# Generated by pormake.
# Topology wls, (5)-cn, num edge types: 1
# Building blocks:
#     Node 0, Type 0, BuildingBlock: XOMCOT_clean_sbu_1, # of connection points: 5
#     Node 1, Type 0, BuildingBlock: XOMCOT_clean_sbu_1, # of connection points: 5
#     Node 2, Type 0, BuildingBlock: XOMCOT_clean_sbu_1, # of connection points: 5
#     Node 3, Type 0, BuildingBlock: XOMCOT_clean_sbu_1, # of connection points: 5
#     Node 4, Type 0, BuildingBlock: XOMCOT_clean_sbu_1, # of connection points: 5
#     Node 5, Type 0, BuildingBlock: XOMCOT_clean_sbu_1, # of connection points: 5
#     Node 6, Type 0, BuildingBlock: XOMCOT_clean_sbu_1, # of connection points: 5
#     Node 7, Type 0, BuildingBlock: XOMCOT_clean_sbu_1, # of connection points: 5
#     Node 8, Type 0, BuildingBlock: XOMCOT_clean_sbu_1, # of connection points: 5
#     Node 9, Type 0, BuildingBlock: XOMCOT_clean_sbu_1, # of connection points: 5
#     Node 10, Type 0, BuildingBlock: XOMCOT_clean_sbu_1, # of connection points: 5
#     Node 11, Type 0, BuildingBlock: XOMCOT_clean_sbu_1, # of connection points: 5
#     Node 12, Type 0, BuildingBlock: XOMCOT_clean_sbu_1, # of connection points: 5
#     Node 13, Type 0, BuildingBlock: XOMCOT_clean_sbu_1, # of connection points: 5
#     Node 14, Type 0, BuildingBlock: XOMCOT_clean_sbu_1, # of connection points: 5
#     Node 15, Type 0, BuildingBlock: XOMCOT_clean_sbu_1, # of connection points: 5
#     Node 16, Type 0, BuildingBlock: XOMCOT_clean_sbu_1, # of connection points: 5
#     Node 17, Type 0, BuildingBlock: XOMCOT_clean_sbu_1, # of connection points: 5
#     Node 18, Type 0, BuildingBlock: XOMCOT_clean_sbu_1, # of connection points: 5
#     Node 19, Type 0, BuildingBlock: XOMCOT_clean_sbu_1, # of connection points: 5
#     Node 20, Type 0, BuildingBlock: XOMCOT_clean_sbu_1, # of connection points: 5
#     Node 21, Type 0, BuildingBlock: XOMCOT_clean_sbu_1, # of connection points: 5
#     Node 22, Type 0, BuildingBlock: XOMCOT_clean_sbu_1, # of connection points: 5
#     Node 23, Type 0, BuildingBlock: XOMCOT_clean_sbu_1, # of connection points: 5
#     Node 24, Type 0, BuildingBlock: XOMCOT_clean_sbu_1, # of connection points: 5
#     Node 25, Type 0, BuildingBlock: XOMCOT_clean_sbu_1, # of connection points: 5
#     Node 26, Type 0, BuildingBlock: XOMCOT_clean_sbu_1, # of connection points: 5
#     Node 27, Type 0, BuildingBlock: XOMCOT_clean_sbu_1, # of connection points: 5
#     Node 28, Type 0, BuildingBlock: XOMCOT_clean_sbu_1, # of connection points: 5
#     Node 29, Type 0, BuildingBlock: XOMCOT_clean_sbu_1, # of connection points: 5
#     Node 30, Type 0, BuildingBlock: XOMCOT_clean_sbu_1, # of connection points: 5
#     Node 31, Type 0, BuildingBlock: XOMCOT_clean_sbu_1, # of connection points: 5
#     Node 32, Type 0, BuildingBlock: XOMCOT_clean_sbu_1, # of connection points: 5
#     Node 33, Type 0, BuildingBlock: XOMCOT_clean_sbu_1, # of connection points: 5
#     Node 34, Type 0, BuildingBlock: XOMCOT_clean_sbu_1, # of connection points: 5
#     Node 35, Type 0, BuildingBlock: XOMCOT_clean_sbu_1, # of connection points: 5
#     Edge 36, Type (0, 0), BuildingBlock: OJICUG_clean_linker_0, # of connection points: 2
#     Edge 37, Type (0, 0), BuildingBlock: OJICUG_clean_linker_0, # of connection points: 2
#     Edge 38, Type (0, 0), BuildingBlock: OJICUG_clean_linker_0, # of connection points: 2
#     Edge 39, Type (0, 0), BuildingBlock: OJICUG_clean_linker_0, # of connection points: 2
#     Edge 40, Type (0, 0), BuildingBlock: OJICUG_clean_linker_0, # of connection points: 2
#     Edge 41, Type (0, 0), BuildingBlock: OJICUG_clean_linker_0, # of connection points: 2
#     Edge 42, Type (0, 0), BuildingBlock: OJICUG_clean_linker_0, # of connection points: 2
#     Edge 43, Type (0, 0), BuildingBlock: OJICUG_clean_linker_0, # of connection points: 2
#     Edge 44, Type (0, 0), BuildingBlock: OJICUG_clean_linker_0, # of connection points: 2
#     Edge 45, Type (0, 0), BuildingBlock: OJICUG_clean_linker_0, # of connection points: 2
#     Edge 46, Type (0, 0), BuildingBlock: OJICUG_clean_linker_0, # of connection points: 2
#     Edge 47, Type (0, 0), BuildingBlock: OJICUG_clean_linker_0, # of connection points: 2
#     Edge 48, Type (0, 0), BuildingBlock: OJICUG_clean_linker_0, # of connection points: 2
#     Edge 49, Type (0, 0), BuildingBlock: OJICUG_clean_linker_0, # of connection points: 2
#     Edge 50, Type (0, 0), BuildingBlock: OJICUG_clean_linker_0, # of connection points: 2
#     Edge 51, Type (0, 0), BuildingBlock: OJICUG_clean_linker_0, # of connection points: 2
#     Edge 52, Type (0, 0), BuildingBlock: OJICUG_clean_linker_0, # of connection points: 2
#     Edge 53, Type (0, 0), BuildingBlock: OJICUG_clean_linker_0, # of connection points: 2
#     Edge 54, Type (0, 0), BuildingBlock: OJICUG_clean_linker_0, # of connection points: 2
#     Edge 55, Type (0, 0), BuildingBlock: OJICUG_clean_linker_0, # of connection points: 2
#     Edge 56, Type (0, 0), BuildingBlock: OJICUG_clean_linker_0, # of connection points: 2
#     Edge 57, Type (0, 0), BuildingBlock: OJICUG_clean_linker_0, # of connection points: 2
#     Edge 58, Type (0, 0), BuildingBlock: OJICUG_clean_linker_0, # of connection points: 2
#     Edge 59, Type (0, 0), BuildingBlock: OJICUG_clean_linker_0, # of connection points: 2
#     Edge 60, Type (0, 0), BuildingBlock: OJICUG_clean_linker_0, # of connection points: 2
#     Edge 61, Type (0, 0), BuildingBlock: OJICUG_clean_linker_0, # of connection points: 2
#     Edge 62, Type (0, 0), BuildingBlock: OJICUG_clean_linker_0, # of connection points: 2
#     Edge 63, Type (0, 0), BuildingBlock: OJICUG_clean_linker_0, # of connection points: 2
#     Edge 64, Type (0, 0), BuildingBlock: OJICUG_clean_linker_0, # of connection points: 2
#     Edge 65, Type (0, 0), BuildingBlock: OJICUG_clean_linker_0, # of connection points: 2
#     Edge 66, Type (0, 0), BuildingBlock: OJICUG_clean_linker_0, # of connection points: 2
#     Edge 67, Type (0, 0), BuildingBlock: OJICUG_clean_linker_0, # of connection points: 2
#     Edge 68, Type (0, 0), BuildingBlock: OJICUG_clean_linker_0, # of connection points: 2
#     Edge 69, Type (0, 0), BuildingBlock: OJICUG_clean_linker_0, # of connection points: 2
#     Edge 70, Type (0, 0), BuildingBlock: OJICUG_clean_linker_0, # of connection points: 2
#     Edge 71, Type (0, 0), BuildingBlock: OJICUG_clean_linker_0, # of connection points: 2
#     Edge 72, Type (0, 0), BuildingBlock: OJICUG_clean_linker_0, # of connection points: 2
#     Edge 73, Type (0, 0), BuildingBlock: OJICUG_clean_linker_0, # of connection points: 2
#     Edge 74, Type (0, 0), BuildingBlock: OJICUG_clean_linker_0, # of connection points: 2
#     Edge 75, Type (0, 0), BuildingBlock: OJICUG_clean_linker_0, # of connection points: 2
#     Edge 76, Type (0, 0), BuildingBlock: OJICUG_clean_linker_0, # of connection points: 2
#     Edge 77, Type (0, 0), BuildingBlock: OJICUG_clean_linker_0, # of connection points: 2
#     Edge 78, Type (0, 0), BuildingBlock: OJICUG_clean_linker_0, # of connection points: 2
#     Edge 79, Type (0, 0), BuildingBlock: OJICUG_clean_linker_0, # of connection points: 2
#     Edge 80, Type (0, 0), BuildingBlock: OJICUG_clean_linker_0, # of connection points: 2
#     Edge 81, Type (0, 0), BuildingBlock: OJICUG_clean_linker_0, # of connection points: 2
#     Edge 82, Type (0, 0), BuildingBlock: OJICUG_clean_linker_0, # of connection points: 2
#     Edge 83, Type (0, 0), BuildingBlock: OJICUG_clean_linker_0, # of connection points: 2
#     Edge 84, Type (0, 0), BuildingBlock: OJICUG_clean_linker_0, # of connection points: 2
#     Edge 85, Type (0, 0), BuildingBlock: OJICUG_clean_linker_0, # of connection points: 2
#     Edge 86, Type (0, 0), BuildingBlock: OJICUG_clean_linker_0, # of connection points: 2
#     Edge 87, Type (0, 0), BuildingBlock: OJICUG_clean_linker_0, # of connection points: 2
#     Edge 88, Type (0, 0), BuildingBlock: OJICUG_clean_linker_0, # of connection points: 2
#     Edge 89, Type (0, 0), BuildingBlock: OJICUG_clean_linker_0, # of connection points: 2
#     Edge 90, Type (0, 0), BuildingBlock: OJICUG_clean_linker_0, # of connection points: 2
#     Edge 91, Type (0, 0), BuildingBlock: OJICUG_clean_linker_0, # of connection points: 2
#     Edge 92, Type (0, 0), BuildingBlock: OJICUG_clean_linker_0, # of connection points: 2
#     Edge 93, Type (0, 0), BuildingBlock: OJICUG_clean_linker_0, # of connection points: 2
#     Edge 94, Type (0, 0), BuildingBlock: OJICUG_clean_linker_0, # of connection points: 2
#     Edge 95, Type (0, 0), BuildingBlock: OJICUG_clean_linker_0, # of connection points: 2
#     Edge 96, Type (0, 0), BuildingBlock: OJICUG_clean_linker_0, # of connection points: 2
#     Edge 97, Type (0, 0), BuildingBlock: OJICUG_clean_linker_0, # of connection points: 2
#     Edge 98, Type (0, 0), BuildingBlock: OJICUG_clean_linker_0, # of connection points: 2
#     Edge 99, Type (0, 0), BuildingBlock: OJICUG_clean_linker_0, # of connection points: 2
#     Edge 100, Type (0, 0), BuildingBlock: OJICUG_clean_linker_0, # of connection points: 2
#     Edge 101, Type (0, 0), BuildingBlock: OJICUG_clean_linker_0, # of connection points: 2
#     Edge 102, Type (0, 0), BuildingBlock: OJICUG_clean_linker_0, # of connection points: 2
#     Edge 103, Type (0, 0), BuildingBlock: OJICUG_clean_linker_0, # of connection points: 2
#     Edge 104, Type (0, 0), BuildingBlock: OJICUG_clean_linker_0, # of connection points: 2
#     Edge 105, Type (0, 0), BuildingBlock: OJICUG_clean_linker_0, # of connection points: 2
#     Edge 106, Type (0, 0), BuildingBlock: OJICUG_clean_linker_0, # of connection points: 2
#     Edge 107, Type (0, 0), BuildingBlock: OJICUG_clean_linker_0, # of connection points: 2
#     Edge 108, Type (0, 0), BuildingBlock: OJICUG_clean_linker_0, # of connection points: 2
#     Edge 109, Type (0, 0), BuildingBlock: OJICUG_clean_linker_0, # of connection points: 2
#     Edge 110, Type (0, 0), BuildingBlock: OJICUG_clean_linker_0, # of connection points: 2
#     Edge 111, Type (0, 0), BuildingBlock: OJICUG_clean_linker_0, # of connection points: 2
#     Edge 112, Type (0, 0), BuildingBlock: OJICUG_clean_linker_0, # of connection points: 2
#     Edge 113, Type (0, 0), BuildingBlock: OJICUG_clean_linker_0, # of connection points: 2
#     Edge 114, Type (0, 0), BuildingBlock: OJICUG_clean_linker_0, # of connection points: 2
#     Edge 115, Type (0, 0), BuildingBlock: OJICUG_clean_linker_0, # of connection points: 2
#     Edge 116, Type (0, 0), BuildingBlock: OJICUG_clean_linker_0, # of connection points: 2
#     Edge 117, Type (0, 0), BuildingBlock: OJICUG_clean_linker_0, # of connection points: 2
#     Edge 118, Type (0, 0), BuildingBlock: OJICUG_clean_linker_0, # of connection points: 2
#     Edge 119, Type (0, 0), BuildingBlock: OJICUG_clean_linker_0, # of connection points: 2
#     Edge 120, Type (0, 0), BuildingBlock: OJICUG_clean_linker_0, # of connection points: 2
#     Edge 121, Type (0, 0), BuildingBlock: OJICUG_clean_linker_0, # of connection points: 2
#     Edge 122, Type (0, 0), BuildingBlock: OJICUG_clean_linker_0, # of connection points: 2
#     Edge 123, Type (0, 0), BuildingBlock: OJICUG_clean_linker_0, # of connection points: 2
#     Edge 124, Type (0, 0), BuildingBlock: OJICUG_clean_linker_0, # of connection points: 2
#     Edge 125, Type (0, 0), BuildingBlock: OJICUG_clean_linker_0, # of connection points: 2
# Relax obj value: 0.222
# Max RMSD: 0.156
# Mean RMSD: 0.156
data_MOF--net-wls--node1-XOMCOT_clean_sbu_1--edge1-OJICUG_clean_linker_0
_symmetry_space_group_name_H-M    P1
_symmetry_Int_Tables_number       1
_symmetry_cell_setting            triclinic
loop_
_symmetry_equiv_pos_as_xyz
'x, y, z'
_cell_length_a     60.130435
_cell_length_b     60.12831
_cell_length_c     26.302089
_cell_angle_alpha  89.853499
_cell_angle_beta   90.10038
_cell_angle_gamma 119.94223
loop_
_atom_site_label
_atom_site_type_symbol
_atom_site_fract_x
_atom_site_fract_y
_atom_site_fract_z
_atom_type_partial_charge
C0 C 0.24369 0.25853 1.02745 0.0
C1 C 0.25157 0.28416 1.03364 0.0
N2 N 0.26925 0.2932 0.0709 0.0
N3 N 0.25593 0.25177 0.06194 0.0
C4 C 0.27177 0.27338 0.08676 0.0
H5 H 0.22903 0.24544 1.00154 0.0
Co6 Co 0.25081 0.22013 0.0797 0.0
C7 C 0.24313 0.21789 0.19558 0.0
O8 O 0.22523 0.19388 0.1886 0.0
N9 N 0.24625 0.18766 0.09654 0.0
C10 C 0.25455 0.1586 0.13045 0.0
C11 C 0.26071 0.18389 0.13103 0.0
C12 C 0.23212 0.16443 0.0741 0.0
N13 N 0.23657 0.14633 0.09448 0.0
O14 O 0.28778 0.23275 0.06402 0.0
H15 H 0.2755 0.19885 0.15408 0.0
H16 H 0.21948 0.16081 1.04228 0.0
O17 O 0.25641 0.2309 0.15641 0.0
C18 C 0.291 0.23246 1.01549 0.0
O19 O 0.2703 0.22244 0.98693 0.0
N20 N 0.21508 0.2089 0.0857 0.0
C21 C 0.16882 0.20791 0.06367 0.0
C22 C 0.18323 0.22064 0.10671 0.0
C23 C 0.20653 0.22155 0.11615 0.0
C24 C 0.20058 0.19539 1.04489 0.0
C25 C 0.17734 0.19444 1.03347 0.0
H26 H 0.21905 0.23554 0.14336 0.0
H27 H 0.20854 0.1883 1.01685 0.0
H28 H 0.28387 0.27429 0.11812 0.0
H29 H 0.24439 0.29507 1.01368 0.0
H30 H 0.2636 0.15022 0.15298 0.0
H31 H 0.17809 0.23233 0.1297 0.0
H32 H 0.16718 0.18494 0.99901 0.0
C33 C 0.75909 0.98844 1.02656 0.0
C34 C 0.73348 0.97034 1.03143 0.0
N35 N 0.72354 0.9787 0.06738 0.0
N36 N 0.76493 0.00736 0.06062 0.0
C37 C 0.74281 1.00116 0.08386 0.0
H38 H 0.77275 0.98721 1.00176 0.0
Co39 Co 0.79596 0.03448 0.07934 0.0
C40 C 0.79724 0.02915 0.19525 0.0
O41 O 0.82161 0.03634 0.1896 0.0
N42 N 0.82776 0.06296 0.09703 0.0
C43 C 0.85563 0.10097 0.12976 0.0
C44 C 0.8306 0.08128 0.13023 0.0
C45 C 0.85128 0.07245 0.07569 0.0
N46 N 0.86867 0.09544 0.09524 0.0
O47 O 0.78237 0.0579 0.06305 0.0
H48 H 0.81516 0.08079 0.15215 0.0
H49 H 0.8556 0.06336 1.04512 0.0
O50 O 0.78438 0.0288 0.15532 0.0
C51 C 0.78295 0.06168 1.0146 0.0
O52 O 0.79367 0.05165 0.98623 0.0
N53 N 0.80832 0.01094 0.08631 0.0
C54 C 0.81174 0.96693 0.06564 0.0
C55 C 0.79828 0.96792 0.10813 0.0
C56 C 0.7962 0.9897 0.1169 0.0
C57 C 0.82244 0.01061 0.046 0.0
C58 C 0.82471 0.98901 1.03542 0.0
H59 H 0.78177 0.98763 0.1436 0.0
H60 H 0.82898 0.02551 1.01759 0.0
H61 H 0.74112 0.01222 0.11449 0.0
H62 H 0.72317 0.95227 1.01141 0.0
H63 H 0.86326 0.1186 0.15129 0.0
H64 H 0.78691 0.95095 0.13105 0.0
H65 H 0.83473 0.98887 1.00135 0.0
C66 C 0.02591 0.76768 1.02458 0.0
C67 C 0.04814 0.7668 1.03212 0.0
N68 N 0.04735 0.7579 0.07948 0.0
N69 N 0.01136 0.75914 0.06692 0.0
C70 C 0.02472 0.75292 0.09916 0.0
H71 H 0.02108 0.77496 0.99123 0.0
Co72 Co 0.98239 0.76096 0.08068 0.0
C73 C 0.98289 0.76793 0.19546 0.0
O74 O 0.97408 0.78356 0.18551 0.0
N75 N 0.95236 0.76257 0.09305 0.0
C76 C 0.91298 0.75076 0.12057 0.0
C77 C 0.93264 0.74532 0.12175 0.0
C78 C 0.94386 0.77794 0.07376 0.0
N79 N 0.92004 0.77127 0.09022 0.0
O80 O 0.96096 0.72366 0.06476 0.0
H81 H 0.93246 0.7295 0.14181 0.0
H82 H 0.95456 0.79356 0.04772 0.0
O83 O 0.98604 0.75596 0.15781 0.0
C84 C 0.95671 0.72046 1.01644 0.0
O85 O 0.96545 0.74121 0.9882 0.0
N86 N 1.0041 0.79701 0.08666 0.0
C87 C 0.04805 0.84373 0.06199 0.0
C88 C 0.04612 0.83169 0.10881 0.0
C89 C 0.02425 0.80822 0.1201 0.0
C90 C 1.0051 0.80935 1.04237 0.0
C91 C 0.0266 0.83285 1.02973 0.0
H92 H 0.02553 0.79787 0.15232 0.0
H93 H 0.99074 0.79943 1.01344 0.0
H94 H 0.01812 0.74488 0.13657 0.0
H95 H 0.0638 0.77268 1.00547 0.0
H96 H 0.89456 0.73987 0.13916 0.0
H97 H 0.06243 0.83881 0.13425 0.0
H98 H 0.02719 0.84131 0.993 0.0
C99 C 0.26206 0.23903 0.56033 0.0
C100 C 0.28748 0.24644 0.55245 0.0
N101 N 0.29626 0.26414 0.51517 0.0
N102 N 0.25516 0.25163 0.52696 0.0
C103 C 0.2765 0.26713 0.50098 0.0
H104 H 0.24926 0.22467 0.58707 0.0
Co105 Co 0.22366 0.24761 0.51217 0.0
C106 C 0.21886 0.24121 0.39676 0.0
O107 O 0.19466 0.22429 0.40542 0.0
N108 N 0.1914 0.24417 0.49821 0.0
C109 C 0.16291 0.2543 0.46837 0.0
C110 C 0.18823 0.26055 0.46797 0.0
C111 C 0.16774 0.22857 0.51784 0.0
N112 N 0.15003 0.23419 0.49989 0.0
O113 O 0.23745 0.28468 0.52903 0.0
H114 H 0.20355 0.27645 0.44759 0.0
H115 H 0.1634 0.21371 0.54551 0.0
O116 O 0.23323 0.2535 0.43523 0.0
C117 C 0.23757 0.28782 0.57765 0.0
O118 O 0.22768 0.26706 0.60611 0.0
N119 N 0.21128 0.2118 0.50503 0.0
C120 C 0.21032 0.16566 0.5275 0.0
C121 C 0.22106 0.17881 0.48201 0.0
C122 C 0.22183 0.20204 0.47196 0.0
C123 C 0.19925 0.19827 0.54785 0.0
C124 C 0.19828 0.17508 0.55951 0.0
H125 H 0.23408 0.21343 0.44131 0.0
H126 H 0.19357 0.20711 0.57686 0.0
H127 H 0.2773 0.27957 0.47037 0.0
H128 H 0.29847 0.23916 0.57169 0.0
H129 H 0.15484 0.26448 0.44871 0.0
H130 H 0.23137 0.17279 0.45704 0.0
H131 H 0.19009 0.16578 0.59545 0.0
C132 C 0.77066 0.02201 0.56692 0.0
C133 C 0.7701 0.04441 0.55958 0.0
N134 N 0.76165 0.04402 0.512 0.0
N135 N 0.76237 0.00774 0.52423 0.0
C136 C 0.7566 0.02145 0.49197 0.0
H137 H 0.77767 0.01691 0.60033 0.0
Co138 Co 0.76443 0.97894 0.5101 0.0
C139 C 0.77117 0.97955 0.39518 0.0
O140 O 0.78706 0.97103 0.40486 0.0
N141 N 0.76633 0.94912 0.4974 0.0
C142 C 0.75508 0.90997 0.46939 0.0
C143 C 0.74931 0.9294 0.46845 0.0
C144 C 0.78185 0.94082 0.51669 0.0
N145 N 0.77554 0.91717 0.4999 0.0
O146 O 0.7272 0.9572 0.52643 0.0
H147 H 0.73343 0.92907 0.44836 0.0
H148 H 0.79731 0.95154 0.54301 0.0
O149 O 0.7592 0.98258 0.43303 0.0
C150 C 0.72413 0.9529 0.57477 0.0
O151 O 0.74496 0.96179 0.60276 0.0
N152 N 0.80044 1.00092 0.50378 0.0
C153 C 0.84702 0.04508 0.52804 0.0
C154 C 0.83494 0.04299 0.48123 0.0
C155 C 0.81152 0.02102 0.47017 0.0
C156 C 0.81284 1.00208 0.54806 0.0
C157 C 0.83626 0.02371 0.56055 0.0
H158 H 0.80112 0.02218 0.43793 0.0
H159 H 0.80301 0.98772 0.5771 0.0
H160 H 0.74895 0.01519 0.45423 0.0
H161 H 0.77597 0.05995 0.58649 0.0
H162 H 0.74445 0.89158 0.45059 0.0
H163 H 0.84199 0.05926 0.45563 0.0
H164 H 0.84474 0.02446 0.59731 0.0
C165 C 0.99221 0.7548 0.56198 0.0
C166 C 0.97423 0.72923 0.55583 0.0
N167 N 0.98291 0.71981 0.51943 0.0
N168 N 0.01141 0.76116 0.5283 0.0
C169 C 1.00548 0.73936 0.50403 0.0
H170 H 0.99068 0.76811 0.58729 0.0
Co171 Co 0.03844 0.79254 0.51055 0.0
C172 C 0.03307 0.79457 0.39491 0.0
O173 O 0.03996 0.81883 0.40128 0.0
N174 N 0.06686 0.82468 0.49361 0.0
C175 C 0.10473 0.85284 0.46055 0.0
C176 C 0.08512 0.82776 0.45998 0.0
C177 C 0.07634 0.84812 0.51535 0.0
N178 N 0.09924 0.86569 0.49556 0.0
O179 O 0.06204 0.77913 0.52631 0.0
H180 H 0.08465 0.81247 0.4376 0.0
H181 H 0.0673 0.85227 0.54629 0.0
O182 O 0.03299 0.78155 0.43434 0.0
C183 C 0.06561 0.77952 0.5748 0.0
O184 O 0.05533 0.78999 0.60317 0.0
N185 N 0.0147 0.80468 0.50427 0.0
C186 C 0.9705 0.8076 0.52624 0.0
C187 C 0.97149 0.79435 0.48339 0.0
C188 C 0.9934 0.79257 0.47387 0.0
C189 C 0.01436 0.81859 0.54492 0.0
C190 C 0.9927 0.82065 0.5561 0.0
H191 H 0.99143 0.77839 0.44664 0.0
H192 H 0.02937 0.82516 0.57305 0.0
H193 H 0.01679 0.73812 0.47336 0.0
H194 H 0.95601 0.71862 0.57527 0.0
H195 H 0.12227 0.86062 0.43865 0.0
H196 H 0.9545 0.78298 0.4606 0.0
H197 H 0.99264 0.83063 0.59028 0.0
C198 C 0.77708 0.75156 0.05564 0.0
C199 C 0.76942 0.72624 0.04577 0.0
N200 N 0.75122 0.71805 1.00954 0.0
N201 N 0.7641 0.75901 1.02448 0.0
C202 C 0.74817 0.73806 0.99793 0.0
H203 H 0.79186 0.76394 0.08209 0.0
Co204 Co 0.76779 0.79062 1.01183 0.0
C205 C 0.7748 0.79694 0.89683 0.0
O206 O 0.79141 0.82111 0.90656 0.0
N207 N 0.77082 0.82293 0.99971 0.0
C208 C 0.76044 0.85138 0.97064 0.0
C209 C 0.75438 0.82612 0.9697 0.0
C210 C 0.78624 0.84653 1.0198 0.0
N211 N 0.78046 0.8642 1.00228 0.0
O212 O 0.73062 0.77611 1.02826 0.0
H213 H 0.73866 0.81087 0.9489 0.0
H214 H 0.80117 0.85087 0.04729 0.0
O215 O 0.7624 0.78208 0.93463 0.0
C216 C 0.72737 0.77513 0.07693 0.0
O217 O 0.74808 0.78486 0.10544 0.0
N218 N 0.80369 0.80362 1.00513 0.0
C219 C 0.8501 0.80524 1.02776 0.0
C220 C 0.83737 0.79494 0.98171 0.0
C221 C 0.81401 0.79383 0.97155 0.0
C222 C 0.81679 0.81524 0.04853 0.0
C223 C 0.84012 0.81657 0.06025 0.0
H224 H 0.80296 0.78189 0.9403 0.0
H225 H 0.80754 0.82031 0.07776 0.0
H226 H 0.73536 0.73778 0.96867 0.0
H227 H 0.77688 0.71491 0.06297 0.0
H228 H 0.75024 0.85947 0.95108 0.0
H229 H 0.84383 0.78517 0.9563 0.0
H230 H 0.8491 0.82442 0.09657 0.0
C231 C 0.26146 0.02345 0.06223 0.0
C232 C 0.2871 0.04122 0.05616 0.0
N233 N 0.29648 0.03223 1.02028 0.0
N234 N 0.25502 1.00408 1.02897 0.0
C235 C 0.27684 0.00971 1.00505 0.0
H236 H 0.24817 0.02521 0.08721 0.0
Co237 Co 0.22371 0.97701 1.01128 0.0
C238 C 0.22159 0.98246 0.89569 0.0
O239 O 0.19729 0.97537 0.90223 0.0
N240 N 0.19164 0.94855 0.99433 0.0
C241 C 0.16355 0.91067 0.96132 0.0
C242 C 0.18865 0.93024 0.96094 0.0
C243 C 0.16811 0.93916 1.01568 0.0
N244 N 0.1506 0.91626 0.99594 0.0
O245 O 0.23727 0.95349 1.02687 0.0
H246 H 0.20401 0.93069 0.93883 0.0
H247 H 0.16384 0.94829 0.04625 0.0
O248 O 0.2347 0.98262 0.93502 0.0
C249 C 0.23695 0.94987 0.07536 0.0
O250 O 0.2264 0.96002 0.10386 0.0
N251 N 0.21143 1.00064 1.00522 0.0
C252 C 0.20803 0.04456 1.02732 0.0
C253 C 0.22138 0.04375 0.98442 0.0
C254 C 0.22337 0.02197 0.9748 0.0
C255 C 0.1975 1.00083 0.046 0.0
C256 C 0.19516 0.02231 0.05717 0.0
H257 H 0.23756 0.02406 0.94745 0.0
H258 H 0.19111 0.98583 0.07418 0.0
H259 H 0.27804 0.99818 0.97479 0.0
H260 H 0.29781 0.05949 0.07534 0.0
H261 H 0.1558 0.89311 0.93955 0.0
H262 H 0.23264 0.06078 0.96161 0.0
H263 H 0.18509 0.0222 0.09135 0.0
C264 C 0.99097 0.24364 0.06116 0.0
C265 C 0.96901 0.24481 0.05207 0.0
N266 N 0.97095 0.25474 1.00526 0.0
N267 N 1.00651 0.25295 1.02029 0.0
C268 C 0.99401 0.25999 0.98745 0.0
H269 H 0.99493 0.23561 0.09448 0.0
Co270 Co 0.03576 0.25124 1.00824 0.0
C271 C 0.03571 0.24361 0.89401 0.0
O272 O 0.04437 0.22796 0.90501 0.0
N273 N 0.06608 0.24979 0.99723 0.0
C274 C 0.10538 0.26132 0.96946 0.0
C275 C 0.08573 0.26677 0.96801 0.0
C276 C 0.07468 0.23462 1.01723 0.0
N277 N 0.09842 0.2411 1.00057 0.0
O278 O 0.05684 0.28851 1.0239 0.0
H279 H 0.08582 0.28235 0.94718 0.0
H280 H 0.0641 0.21921 1.04376 0.0
O281 O 0.03257 0.25593 0.93097 0.0
C282 C 0.06024 0.29149 0.07245 0.0
O283 O 0.05105 0.2706 0.1004 0.0
N284 N 0.01434 0.21519 1.00266 0.0
C285 C 0.97076 0.16833 1.02786 0.0
C286 C 0.9725 0.18015 0.98084 0.0
C287 C 0.99421 0.2037 0.96927 0.0
C288 C 0.01351 0.2031 0.04718 0.0
C289 C 0.99222 0.17951 0.06004 0.0
H290 H 0.9928 0.2139 0.93688 0.0
H291 H 0.02776 0.21329 0.07614 0.0
H292 H 1.00154 0.26878 0.95095 0.0
H293 H 0.95271 0.23836 0.07728 0.0
H294 H 0.12371 0.27194 0.9504 0.0
H295 H 0.95615 0.17278 0.95546 0.0
H296 H 0.99176 0.17124 0.09692 0.0
C297 C 0.75587 0.77294 0.53202 0.0
C298 C 0.73026 0.76479 0.53987 0.0
N299 N 0.72167 0.74642 0.57585 0.0
N300 N 0.76306 0.76015 0.56428 0.0
C301 C 0.74172 0.74379 0.58935 0.0
H302 H 0.76862 0.78806 0.50648 0.0
Co303 Co 0.79469 0.76458 0.57998 0.0
C304 C 0.79832 0.77232 0.69565 0.0
O305 O 0.8225 0.78957 0.68793 0.0
N306 N 0.82706 0.76836 0.59507 0.0
C307 C 0.85583 0.75927 0.62756 0.0
C308 C 0.83058 0.75327 0.62837 0.0
C309 C 0.8504 0.78278 0.57315 0.0
N310 N 0.86831 0.77782 0.59267 0.0
O311 O 0.78109 0.72751 0.56435 0.0
H312 H 0.81552 0.73831 0.65099 0.0
H313 H 0.85432 0.79616 0.54255 0.0
O314 O 0.78474 0.75928 0.6569 0.0
C315 C 0.7807 0.72439 0.5157 0.0
O316 O 0.79082 0.74519 0.48734 0.0
N317 N 0.80685 0.8004 0.58581 0.0
C318 C 0.80889 0.84705 0.56326 0.0
C319 C 0.79676 0.83333 0.60742 0.0
C320 C 0.79534 0.80981 0.61721 0.0
C321 C 0.81984 0.81425 0.54394 0.0
C322 C 0.82138 0.83771 0.53232 0.0
H323 H 0.78174 0.79784 0.64558 0.0
H324 H 0.82594 0.80559 0.51542 0.0
H325 H 0.74117 0.7311 0.61919 0.0
H326 H 0.71906 0.77215 0.52178 0.0
H327 H 0.86408 0.74985 0.64931 0.0
H328 H 0.78583 0.83913 0.63112 0.0
H329 H 0.8304 0.84735 0.4971 0.0
C330 C 0.24867 0.9903 0.52529 0.0
C331 C 0.24989 0.96825 0.53273 0.0
N332 N 0.25892 0.96915 0.57999 0.0
N333 N 0.25712 1.00486 0.56758 0.0
C334 C 0.26363 0.99168 0.59971 0.0
H335 H 0.24124 0.99502 0.492 0.0
Co336 Co 0.2551 0.0337 0.58138 0.0
C337 C 0.24779 0.03283 0.69618 0.0
O338 O 0.23204 0.04149 0.68624 0.0
N339 N 0.25329 0.06365 0.5938 0.0
C340 C 0.26474 0.10288 0.62165 0.0
C341 C 0.27026 0.08327 0.62299 0.0
C342 C 0.23803 0.07218 0.57402 0.0
N343 N 0.24447 0.0959 0.59068 0.0
O344 O 0.29245 0.05528 0.56585 0.0
H345 H 0.28595 0.08344 0.64348 0.0
H346 H 0.22266 0.06157 0.54747 0.0
O347 O 0.25992 0.0299 0.65854 0.0
C348 C 0.29588 0.05955 0.51755 0.0
O349 O 0.27525 0.05083 0.48899 0.0
N350 N 0.21903 0.01184 0.58705 0.0
C351 C 0.17227 0.96795 0.56226 0.0
C352 C 0.18432 0.96976 0.60899 0.0
C353 C 0.2078 0.9916 0.62033 0.0
C354 C 0.20673 0.01092 0.54279 0.0
C355 C 0.1832 0.98947 0.53011 0.0
H356 H 0.21814 0.99024 0.6525 0.0
H357 H 0.21667 0.02533 0.5139 0.0
H358 H 0.27172 0.99835 0.63703 0.0
H359 H 0.24416 0.95263 0.50608 0.0
H360 H 0.27542 0.12123 0.64057 0.0
H361 H 0.17717 0.95339 0.63434 0.0
H362 H 0.17476 0.98899 0.49344 0.0
C363 C 0.02896 0.25782 0.53047 0.0
C364 C 0.04695 0.28334 0.53731 0.0
N365 N 0.03772 0.29278 0.57255 0.0
N366 N 1.00916 0.25152 0.56261 0.0
C367 C 0.01483 0.2733 0.58666 0.0
H368 H 0.03077 0.24454 0.50558 0.0
Co369 Co 0.98129 0.22044 0.57895 0.0
C370 C 0.98516 0.21735 0.69455 0.0
O371 O 0.97707 0.19283 0.68786 0.0
N372 N 0.95207 0.18867 0.59464 0.0
C373 C 0.91355 0.16113 0.62601 0.0
C374 C 0.93338 0.1861 0.62657 0.0
C375 C 0.9427 0.165 0.57399 0.0
N376 N 0.9194 0.14783 0.59276 0.0
O377 O 0.95884 0.23512 0.56292 0.0
H378 H 0.93383 0.20166 0.64796 0.0
H379 H 0.95222 0.16033 0.54483 0.0
O380 O 0.98636 0.23091 0.65523 0.0
C381 C 0.95601 0.23553 0.51433 0.0
O382 O 0.96614 0.22492 0.48593 0.0
N383 N 1.00395 0.20709 0.58556 0.0
C384 C 0.04738 0.20287 0.56386 0.0
C385 C 0.04638 0.21549 0.60771 0.0
C386 C 0.02487 0.21796 0.61713 0.0
C387 C 1.00421 0.19365 0.54402 0.0
C388 C 0.02548 0.19094 0.53293 0.0
H389 H 0.02703 0.23181 0.64533 0.0
H390 H 0.98956 0.18808 0.51529 0.0
H391 H 1.00297 0.27459 0.61609 0.0
H392 H 0.06547 0.29394 0.51893 0.0
H393 H 0.89571 0.15366 0.64678 0.0
H394 H 0.06321 0.22602 0.63141 0.0
H395 H 0.02561 0.18152 0.49799 0.0
C396 C 0.90838 0.59275 0.36614 0.0
C397 C 0.91626 0.61828 0.37431 0.0
N398 N 0.9346 0.62693 0.41032 0.0
N399 N 0.92132 0.58565 0.39817 0.0
C400 C 0.93748 0.60698 0.4235 0.0
H401 H 0.8934 0.58 0.34041 0.0
Co402 Co 0.91736 0.55408 0.4131 0.0
C403 C 0.90988 0.54983 0.5288 0.0
O404 O 0.89317 0.5255 0.52097 0.0
N405 N 0.91411 0.52182 0.42746 0.0
C406 C 0.92498 0.49399 0.45793 0.0
C407 C 0.93025 0.51899 0.45898 0.0
C408 C 0.89959 0.49822 0.40658 0.0
N409 N 0.90567 0.48084 0.42484 0.0
O410 O 0.95448 0.56822 0.39715 0.0
H411 H 0.94549 0.53441 0.4804 0.0
H412 H 0.88527 0.49376 0.37766 0.0
O413 O 0.92261 0.5637 0.49006 0.0
C414 C 0.95761 0.56877 0.34849 0.0
O415 O 0.93682 0.55863 0.32017 0.0
N416 N 0.88147 0.54142 0.41925 0.0
C417 C 0.83481 0.53934 0.39661 0.0
C418 C 0.84831 0.55114 0.44113 0.0
C419 C 0.87181 0.55257 0.45102 0.0
C420 C 0.86777 0.52859 0.37718 0.0
C421 C 0.84432 0.52707 0.36546 0.0
H422 H 0.88361 0.56596 0.4798 0.0
H423 H 0.87656 0.52264 0.34863 0.0
H424 H 0.95028 0.60759 0.45315 0.0
H425 H 0.9088 0.62941 0.35627 0.0
H426 H 0.9354 0.4864 0.47833 0.0
H427 H 0.84235 0.56185 0.4651 0.0
H428 H 0.83483 0.51824 0.33004 0.0
C429 C 0.42484 0.31994 0.36619 0.0
C430 C 0.39939 0.30172 0.37295 0.0
N431 N 0.38981 0.31063 0.40854 0.0
N432 N 0.43094 0.33954 0.39869 0.0
C433 C 0.40912 0.33352 0.42297 0.0
H434 H 0.43816 0.31848 0.3408 0.0
Co435 Co 0.46182 0.36761 0.4143 0.0
C436 C 0.46575 0.36554 0.52998 0.0
O437 O 0.49028 0.37396 0.52242 0.0
N438 N 0.49351 0.39708 0.42893 0.0
C439 C 0.52086 0.43612 0.45813 0.0
C440 C 0.4959 0.41629 0.45905 0.0
C441 C 0.51728 0.40611 0.40895 0.0
N442 N 0.53433 0.42974 0.42643 0.0
O443 O 0.4468 0.38994 0.39743 0.0
H444 H 0.48023 0.41614 0.4795 0.0
H445 H 0.52212 0.39606 0.38123 0.0
O446 O 0.45158 0.36309 0.49087 0.0
C447 C 0.44642 0.39322 0.34893 0.0
O448 O 0.45689 0.3832 0.31986 0.0
N449 N 0.47544 0.34514 0.42181 0.0
C450 C 0.479 0.30126 0.40031 0.0
C451 C 0.46744 0.30293 0.44524 0.0
C452 C 0.4654 0.32473 0.45481 0.0
C453 C 0.48818 0.34438 0.37951 0.0
C454 C 0.49051 0.32287 0.36845 0.0
H455 H 0.45265 0.32319 0.48498 0.0
H456 H 0.49345 0.35883 0.35039 0.0
H457 H 0.40765 0.3452 0.45256 0.0
H458 H 0.38891 0.28333 0.3541 0.0
H459 H 0.52823 0.45431 0.47755 0.0
H460 H 0.45747 0.28645 0.47008 0.0
H461 H 0.49934 0.32236 0.33294 0.0
C462 C 0.69512 0.10238 0.3567 0.0
C463 C 0.71725 0.10132 0.36434 0.0
N464 N 0.71644 0.09258 0.41185 0.0
N465 N 0.68061 0.09409 0.39912 0.0
C466 C 0.6939 0.08786 0.43151 0.0
H467 H 0.69033 0.10958 0.32318 0.0
Co468 Co 0.65177 0.09615 0.41281 0.0
C469 C 0.65223 0.10307 0.52779 0.0
O470 O 0.64358 0.11884 0.51794 0.0
N471 N 0.62188 0.09802 0.42512 0.0
C472 C 0.58261 0.08644 0.45287 0.0
C473 C 0.60217 0.08087 0.45397 0.0
C474 C 0.61347 0.11344 0.40575 0.0
N475 N 0.58971 0.10693 0.42241 0.0
O476 O 0.63009 0.0588 0.39708 0.0
H477 H 0.60192 0.06504 0.47409 0.0
H478 H 0.62421 0.12899 0.37953 0.0
O479 O 0.65535 0.09112 0.49003 0.0
C480 C 0.62573 0.05535 0.34881 0.0
O481 O 0.63457 0.07596 0.32012 0.0
N482 N 0.67371 0.13222 0.41865 0.0
C483 C 0.71799 0.17868 0.394 0.0
C484 C 0.71572 0.16685 0.44118 0.0
C485 C 0.69372 0.14345 0.4524 0.0
C486 C 0.67499 0.14446 0.37404 0.0
C487 C 0.69675 0.16776 0.36122 0.0
H488 H 0.69479 0.13318 0.48498 0.0
H489 H 0.66063 0.13456 0.34509 0.0
H490 H 0.68728 0.07994 0.46899 0.0
H491 H 0.73284 0.10693 0.33762 0.0
H492 H 0.56421 0.07566 0.47161 0.0
H493 H 0.73191 0.17407 0.46698 0.0
H494 H 0.69772 0.17605 0.32411 0.0
C495 C 0.92978 0.57102 0.88854 0.0
C496 C 0.95515 0.57878 0.87879 0.0
N497 N 0.96334 0.59704 0.84264 0.0
N498 N 0.92232 0.584 0.85737 0.0
C499 C 0.9433 0.60002 0.83093 0.0
H500 H 0.9174 0.55621 0.91498 0.0
Co501 Co 0.89076 0.5804 0.84468 0.0
C502 C 0.88444 0.57316 0.72974 0.0
O503 O 0.86026 0.55663 0.7397 0.0
N504 N 0.85852 0.57746 0.8325 0.0
C505 C 0.83014 0.58789 0.80326 0.0
C506 C 0.85536 0.59386 0.80224 0.0
C507 C 0.83494 0.56218 0.85284 0.0
N508 N 0.8173 0.56798 0.83521 0.0
O509 O 0.90535 0.61757 0.8608 0.0
H510 H 0.87063 0.60949 0.78121 0.0
H511 H 0.83059 0.54734 0.88057 0.0
O512 O 0.89933 0.58563 0.76742 0.0
C513 C 0.90621 0.62072 0.90948 0.0
O514 O 0.89635 0.59995 0.9379 0.0
N515 N 0.87765 0.5445 0.83842 0.0
C516 C 0.87608 0.49824 0.86207 0.0
C517 C 0.88616 0.51065 0.81564 0.0
C518 C 0.88728 0.53398 0.80498 0.0
C519 C 0.86615 0.53164 0.88216 0.0
C520 C 0.86489 0.5084 0.89445 0.0
H521 H 0.89914 0.54484 0.77345 0.0
H522 H 0.86121 0.54108 0.91122 0.0
H523 H 0.9436 0.61288 0.80173 0.0
H524 H 0.9665 0.57138 0.89606 0.0
H525 H 0.82207 0.59807 0.78355 0.0
H526 H 0.89581 0.50401 0.79032 0.0
H527 H 0.85726 0.49967 0.93108 0.0
C528 C 0.43904 0.35496 0.897 0.0
C529 C 0.4309 0.37253 0.89057 0.0
N530 N 0.41279 0.36345 0.85412 0.0
N531 N 0.42653 0.33568 0.86334 0.0
C532 C 0.4103 0.34109 0.83894 0.0
H533 H 0.45407 0.35687 0.92233 0.0
Co534 Co 0.43142 0.30913 0.84523 0.0
C535 C 0.43962 0.31537 0.72939 0.0
O536 O 0.45723 0.30881 0.73626 0.0
N537 N 0.43574 0.28119 0.82794 0.0
C538 C 0.42761 0.24402 0.79383 0.0
C539 C 0.42129 0.26307 0.79345 0.0
C540 C 0.45007 0.27218 0.84999 0.0
N541 N 0.44572 0.24976 0.82959 0.0
O542 O 0.39432 0.28504 0.86023 0.0
H543 H 0.40646 0.26328 0.77047 0.0
H544 H 0.46286 0.2812 0.88151 0.0
O545 O 0.4263 0.31503 0.76852 0.0
C546 C 0.391 0.28136 0.90873 0.0
O547 O 0.41169 0.29155 0.93736 0.0
N548 N 0.46718 0.33325 0.84006 0.0
C549 C 0.5139 0.37764 0.8629 0.0
C550 C 0.49965 0.37668 0.81996 0.0
C551 C 0.47616 0.35468 0.81005 0.0
C552 C 0.48135 0.33364 0.88104 0.0
C553 C 0.5049 0.35538 0.89259 0.0
H554 H 0.46384 0.35663 0.78294 0.0
H555 H 0.47296 0.31859 0.90912 0.0
H556 H 0.39794 0.32962 0.80817 0.0
H557 H 0.43822 0.39079 0.90967 0.0
H558 H 0.41865 0.22668 0.77124 0.0
H559 H 0.50509 0.39373 0.79737 0.0
H560 H 0.51492 0.35543 0.92689 0.0
C561 C 0.66007 0.08761 0.89481 0.0
C562 C 0.64205 0.0621 0.88812 0.0
N563 N 0.6507 0.05288 0.8513 0.0
N564 N 0.67928 0.09413 0.86105 0.0
C565 C 0.6733 0.07247 0.8362 0.0
H566 H 0.65859 0.10078 0.92061 0.0
Co567 Co 0.70638 0.12551 0.84389 0.0
C568 C 0.70166 0.12827 0.72819 0.0
O569 O 0.70887 0.15258 0.73502 0.0
N570 N 0.73486 0.15765 0.82752 0.0
C571 C 0.77312 0.18565 0.79586 0.0
C572 C 0.75359 0.16055 0.79535 0.0
C573 C 0.74388 0.18126 0.84815 0.0
N574 N 0.76705 0.19873 0.82925 0.0
O575 O 0.72985 0.11191 0.85946 0.0
H576 H 0.75343 0.14512 0.77401 0.0
H577 H 0.73423 0.18565 0.87752 0.0
O578 O 0.70115 0.11493 0.76742 0.0
C579 C 0.73333 0.11213 0.90797 0.0
O580 O 0.72309 0.12261 0.93643 0.0
N581 N 0.68275 0.13775 0.83789 0.0
C582 C 0.63827 0.13994 0.86096 0.0
C583 C 0.63952 0.12737 0.81722 0.0
C584 C 0.66158 0.12596 0.80709 0.0
C585 C 0.68221 0.15112 0.87932 0.0
C586 C 0.66039 0.1528 0.89108 0.0
H587 H 0.65979 0.11219 0.77903 0.0
H588 H 0.69718 0.15746 0.90751 0.0
H589 H 0.68463 0.07137 0.80539 0.0
H590 H 0.62382 0.0514 0.90752 0.0
H591 H 0.79095 0.19331 0.775 0.0
H592 H 0.62261 0.11618 0.79408 0.0
H593 H 0.66017 0.16229 0.92585 0.0
C594 C 0.44616 0.08619 0.39024 0.0
C595 C 0.4384 0.06079 0.38089 0.0
N596 N 0.41986 0.05235 0.34533 0.0
N597 N 0.4329 0.09344 0.35942 0.0
C598 C 0.41672 0.0723 0.33359 0.0
H599 H 0.4612 0.09874 0.41607 0.0
Co600 Co 0.43646 0.125 0.34637 0.0
C601 C 0.44296 0.13066 0.23116 0.0
O602 O 0.45946 0.15494 0.24018 0.0
N603 N 0.43934 0.15727 0.33389 0.0
C604 C 0.42834 0.18531 0.30508 0.0
C605 C 0.42273 0.1602 0.30389 0.0
C606 C 0.45441 0.18091 0.35422 0.0
N607 N 0.44826 0.19836 0.33686 0.0
O608 O 0.39933 0.11047 0.36316 0.0
H609 H 0.40713 0.14482 0.28307 0.0
H610 H 0.46931 0.18539 0.38186 0.0
O611 O 0.43078 0.11604 0.2694 0.0
C612 C 0.39605 0.10953 0.41181 0.0
O613 O 0.41673 0.11921 0.44041 0.0
N614 N 0.47238 0.13808 0.33913 0.0
C615 C 0.51916 0.14026 0.36081 0.0
C616 C 0.50611 0.12954 0.31525 0.0
C617 C 0.48258 0.12816 0.30557 0.0
C618 C 0.48576 0.15009 0.38203 0.0
C619 C 0.50927 0.1517 0.39327 0.0
H620 H 0.47136 0.11593 0.27478 0.0
H621 H 0.47665 0.15531 0.41131 0.0
H622 H 0.40365 0.07184 0.3047 0.0
H623 H 0.44603 0.04959 0.39795 0.0
H624 H 0.41786 0.19311 0.28562 0.0
H625 H 0.51249 0.11967 0.28991 0.0
H626 H 0.51849 0.15988 0.42925 0.0
C627 C 0.92912 0.35657 0.40214 0.0
C628 C 0.95263 0.37855 0.39612 0.0
N629 N 0.96118 0.37806 0.34914 0.0
N630 N 0.92333 0.34243 0.35927 0.0
C631 C 0.94344 0.35587 0.32826 0.0
H632 H 0.91681 0.35149 0.43513 0.0
Co633 Co 0.89301 0.31299 0.34329 0.0
C634 C 0.89213 0.31259 0.22416 0.0
O635 O 0.86705 0.29812 0.22262 0.0
N636 N 0.86208 0.28279 0.32852 0.0
C637 C 0.83536 0.24284 0.30299 0.0
C638 C 0.8603 0.26277 0.30206 0.0
C639 C 0.838 0.27423 0.34638 0.0
N640 N 0.82133 0.25003 0.33109 0.0
O641 O 0.9095 0.29221 0.35963 0.0
H642 H 0.87633 0.26249 0.28408 0.0
H643 H 0.83272 0.28514 0.37106 0.0
O644 O 0.90358 0.31826 0.26775 0.0
C645 C 0.90813 0.28761 0.40783 0.0
O646 O 0.89572 0.29592 0.43586 0.0
N647 N 0.87765 0.33372 0.33681 0.0
C648 C 0.87474 0.37762 0.3608 0.0
C649 C 0.88263 0.37459 0.31235 0.0
C650 C 0.884 0.35253 0.30113 0.0
C651 C 0.86762 0.3353 0.38224 0.0
C652 C 0.86565 0.35683 0.39472 0.0
H653 H 0.8929 0.35235 0.26605 0.0
H654 H 0.86408 0.32129 0.41158 0.0
H655 H 0.94548 0.34956 0.29104 0.0
H656 H 0.96245 0.39378 0.42359 0.0
H657 H 0.82835 0.2241 0.28614 0.0
H658 H 0.89008 0.39011 0.28492 0.0
H659 H 0.85901 0.35799 0.43232 0.0
C660 C 0.66023 0.57838 0.40033 0.0
C661 C 0.63807 0.57943 0.39318 0.0
N662 N 0.63866 0.58816 0.34575 0.0
N663 N 0.67455 0.58665 0.35768 0.0
C664 C 0.66112 0.59286 0.32561 0.0
H665 H 0.66514 0.57116 0.43365 0.0
Co666 Co 0.7033 0.58447 0.34356 0.0
C667 C 0.70269 0.57784 0.22856 0.0
O668 O 0.71125 0.56196 0.23796 0.0
N669 N 0.73308 0.58245 0.33084 0.0
C670 C 0.77222 0.59361 0.30284 0.0
C671 C 0.75284 0.59945 0.30189 0.0
C672 C 0.7413 0.56686 0.35012 0.0
N673 N 0.76496 0.57311 0.33334 0.0
O674 O 0.72512 0.62171 0.35977 0.0
H675 H 0.75324 0.61537 0.28182 0.0
H676 H 0.73053 0.55138 0.37642 0.0
O677 O 0.69966 0.58972 0.26655 0.0
C678 C 0.72939 0.62481 0.40811 0.0
O679 O 0.72044 0.60399 0.43623 0.0
N680 N 0.68126 0.54848 0.33735 0.0
C681 C 0.63713 0.50185 0.36168 0.0
C682 C 0.63923 0.51392 0.31484 0.0
C683 C 0.66118 0.53738 0.30375 0.0
C684 C 0.68008 0.53609 0.38168 0.0
C685 C 0.65847 0.51265 0.39421 0.0
H686 H 0.66004 0.54778 0.27147 0.0
H687 H 0.69443 0.54593 0.4107 0.0
H688 H 0.66752 0.60067 0.28798 0.0
H689 H 0.62257 0.57375 0.42015 0.0
H690 H 0.79063 0.60422 0.28405 0.0
H691 H 0.62298 0.50682 0.28924 0.0
H692 H 0.65769 0.50419 0.43103 0.0
C693 C 0.42375 0.1045 0.86689 0.0
C694 C 0.39823 0.09677 0.87462 0.0
N695 N 0.38947 0.0788 0.91141 0.0
N696 N 0.43074 0.09185 0.89996 0.0
C697 C 0.40934 0.07598 0.92547 0.0
H698 H 0.43661 0.11924 0.8408 0.0
Co699 Co 0.46231 0.09611 0.91571 0.0
C700 C 0.46611 0.10434 1.03119 0.0
O701 O 0.49032 0.12143 1.02321 0.0
N702 N 0.49464 0.09973 0.93086 0.0
C703 C 0.52339 0.0906 0.96339 0.0
C704 C 0.49816 0.0847 0.96434 0.0
C705 C 0.51796 0.114 0.90877 0.0
N706 N 0.53585 0.10903 0.92826 0.0
O707 O 0.44852 0.05905 0.90028 0.0
H708 H 0.48311 0.06986 0.98719 0.0
H709 H 0.5219 0.12732 0.87806 0.0
O710 O 0.45245 0.09112 0.99267 0.0
C711 C 0.44843 0.05623 0.85159 0.0
O712 O 0.45898 0.0772 0.82375 0.0
N713 N 0.47467 0.13192 0.92113 0.0
C714 C 0.47706 0.17862 0.89753 0.0
C715 C 0.46461 0.16497 0.94157 0.0
C716 C 0.46309 0.14148 0.95197 0.0
C717 C 0.48785 0.14563 0.87929 0.0
C718 C 0.48971 0.16918 0.86733 0.0
H719 H 0.44936 0.1296 0.98024 0.0
H720 H 0.49385 0.13679 0.85095 0.0
H721 H 0.40863 0.06348 0.95589 0.0
H722 H 0.3872 0.10413 0.85581 0.0
H723 H 0.53162 0.0812 0.98526 0.0
H724 H 0.45354 0.17081 0.96475 0.0
H725 H 0.49909 0.17876 0.83232 0.0
C726 C 0.9138 0.32386 0.8527 0.0
C727 C 0.91495 0.30164 0.85845 0.0
N728 N 0.9231 0.30141 0.90602 0.0
N729 N 0.9215 0.33744 0.89631 0.0
C730 C 0.92738 0.32342 0.92756 0.0
H731 H 0.90725 0.32948 0.81933 0.0
Co732 Co 0.92056 0.36683 0.91248 0.0
C733 C 0.91997 0.36721 1.03147 0.0
O734 O 0.90941 0.38176 1.03257 0.0
N735 N 0.91968 0.3969 0.92733 0.0
C736 C 0.93236 0.43678 0.95254 0.0
C737 C 0.93789 0.41717 0.95333 0.0
C738 C 0.90367 0.40498 0.90991 0.0
N739 N 0.91086 0.4291 0.92497 0.0
O740 O 0.95774 0.38767 0.89631 0.0
H741 H 0.95447 0.41781 0.97098 0.0
H742 H 0.88732 0.39376 0.88576 0.0
O743 O 0.92585 0.36149 0.98808 0.0
C744 C 0.96073 0.39248 0.84818 0.0
O745 O 0.93989 0.3844 0.82051 0.0
N746 N 0.88458 0.34609 0.91861 0.0
C747 C 0.83819 0.30207 0.89384 0.0
C748 C 0.84885 0.30519 0.94266 0.0
C749 C 0.87208 0.32733 0.95428 0.0
C750 C 0.87319 0.34443 0.8728 0.0
C751 C 0.84988 0.32283 0.85994 0.0
H752 H 0.881 0.32762 0.98971 0.0
H753 H 0.88373 0.35845 0.84355 0.0
H754 H 0.9351 0.3292 0.96539 0.0
H755 H 0.90998 0.28678 0.8303 0.0
H756 H 0.9439 0.45563 0.96909 0.0
H757 H 0.84076 0.28968 0.97011 0.0
H758 H 0.84225 0.3216 0.82208 0.0
C759 C 0.69253 0.58974 0.85967 0.0
C760 C 0.71057 0.61538 0.86429 0.0
N761 N 0.70233 0.62528 0.90055 0.0
N762 N 0.67376 0.58384 0.89419 0.0
C763 C 0.67998 0.60595 0.91746 0.0
H764 H 0.69371 0.57609 0.83478 0.0
Co765 Co 0.64691 0.55271 0.91331 0.0
C766 C 0.653 0.55165 1.02906 0.0
O767 O 0.64639 0.52742 1.0233 0.0
N768 N 0.61867 0.52073 0.93138 0.0
C769 C 0.58142 0.4921 0.96603 0.0
C770 C 0.60079 0.51731 0.9663 0.0
C771 C 0.60911 0.49745 0.90902 0.0
N772 N 0.58666 0.47961 0.9298 0.0
O773 O 0.62318 0.566 0.89742 0.0
H774 H 0.60136 0.53242 0.98947 0.0
H775 H 0.61772 0.4936 0.8769 0.0
O776 O 0.65277 0.56435 0.98929 0.0
C777 C 0.61939 0.56548 0.84898 0.0
O778 O 0.62946 0.55484 0.82049 0.0
N779 N 0.67075 0.54068 0.91987 0.0
C780 C 0.71479 0.53729 0.89914 0.0
C781 C 0.71393 0.55107 0.94117 0.0
C782 C 0.69214 0.55313 0.94994 0.0
C783 C 0.67101 0.52636 0.8799 0.0
C784 C 0.69262 0.52409 0.86931 0.0
H785 H 0.69425 0.56774 0.9762 0.0
H786 H 0.65604 0.51959 0.8517 0.0
H787 H 0.66907 0.6076 0.94845 0.0
H788 H 0.72855 0.62572 0.84393 0.0
H789 H 0.56419 0.48395 0.98898 0.0
H790 H 0.73097 0.56263 0.9637 0.0
H791 H 0.69268 0.51386 0.83554 0.0
C792 C 0.57582 0.92582 0.69858 0.0
C793 C 0.58391 0.95145 0.70583 0.0
N794 N 0.6023 0.96025 0.74172 0.0
N795 N 0.58867 0.91883 0.73112 0.0
C796 C 0.60499 0.94031 0.7558 0.0
H797 H 0.56074 0.91293 0.67316 0.0
Co798 Co 0.58447 0.88732 0.74724 0.0
C799 C 0.57678 0.8839 0.86294 0.0
O800 O 0.55961 0.85968 0.85547 0.0
N801 N 0.58089 0.85507 0.76272 0.0
C802 C 0.59016 0.82647 0.79551 0.0
C803 C 0.59602 0.85168 0.79614 0.0
C804 C 0.56661 0.8317 0.74092 0.0
N805 N 0.57167 0.8139 0.76061 0.0
O806 O 0.62155 0.90109 0.73151 0.0
H807 H 0.61092 0.86681 0.8187 0.0
H808 H 0.55325 0.82769 0.71025 0.0
O809 O 0.58975 0.89744 0.82404 0.0
C810 C 0.62464 0.9014 0.68286 0.0
O811 O 0.60382 0.89112 0.65461 0.0
N812 N 0.54862 0.87497 0.75314 0.0
C813 C 0.50192 0.87273 0.73036 0.0
C814 C 0.51559 0.88496 0.77445 0.0
C815 C 0.53913 0.88648 0.78436 0.0
C816 C 0.53481 0.86187 0.71138 0.0
C817 C 0.51131 0.86022 0.69965 0.0
H818 H 0.55106 0.90016 0.81259 0.0
H819 H 0.54353 0.85579 0.68294 0.0
H820 H 0.61775 0.94104 0.78567 0.0
H821 H 0.57654 0.96254 0.68732 0.0
H822 H 0.59964 0.81833 0.81738 0.0
H823 H 0.50973 0.8959 0.79796 0.0
H824 H 0.50172 0.85112 0.66449 0.0
C825 C 0.09163 0.65681 0.69219 0.0
C826 C 0.06605 0.63864 0.69708 0.0
N827 N 0.05619 0.64667 0.73382 0.0
N828 N 0.09754 0.67544 0.727 0.0
C829 C 0.07549 0.66902 0.75073 0.0
H830 H 0.10523 0.65582 0.66682 0.0
Co831 Co 0.12867 0.70237 0.74581 0.0
C832 C 0.13012 0.69662 0.86158 0.0
O833 O 0.15443 0.70362 0.85557 0.0
N834 N 0.16061 0.73068 0.76358 0.0
C835 C 0.18875 0.76847 0.79678 0.0
C836 C 0.16364 0.74892 0.79716 0.0
C837 C 0.18409 0.74007 0.74211 0.0
N838 N 0.20164 0.76292 0.76195 0.0
O839 O 0.11525 0.72597 0.73011 0.0
H840 H 0.14829 0.74849 0.81932 0.0
H841 H 0.18829 0.73101 0.71131 0.0
O842 O 0.11722 0.69652 0.8219 0.0
C843 C 0.11588 0.7298 0.68167 0.0
O844 O 0.12667 0.71985 0.65331 0.0
N845 N 0.1408 0.67863 0.75208 0.0
C846 C 0.1434 0.63432 0.72978 0.0
C847 C 0.13015 0.6353 0.77263 0.0
C848 C 0.12851 0.65726 0.78228 0.0
C849 C 0.15474 0.6783 0.71144 0.0
C850 C 0.15661 0.65656 0.70006 0.0
H851 H 0.11423 0.65525 0.8093 0.0
H852 H 0.16141 0.69336 0.68336 0.0
H853 H 0.07385 0.6798 0.78197 0.0
H854 H 0.05571 0.62074 0.67652 0.0
H855 H 0.19655 0.78601 0.81864 0.0
H856 H 0.11863 0.61826 0.79527 0.0
H857 H 0.16655 0.65648 0.66582 0.0
C858 C 0.35937 0.43612 0.69727 0.0
C859 C 0.37688 0.42794 0.70411 0.0
N860 N 0.36755 0.4097 0.74037 0.0
N861 N 0.33986 0.42351 0.73048 0.0
C862 C 0.34511 0.40719 0.75504 0.0
H863 H 0.36143 0.45121 0.6719 0.0
Co864 Co 0.31309 0.42817 0.7479 0.0
C865 C 0.31865 0.43633 0.86363 0.0
O866 O 0.31186 0.45374 0.85632 0.0
N867 N 0.28495 0.43225 0.76459 0.0
C868 C 0.24748 0.42368 0.79793 0.0
C869 C 0.26657 0.41742 0.79839 0.0
C870 C 0.27609 0.44678 0.7429 0.0
N871 N 0.25347 0.44215 0.76282 0.0
O872 O 0.28927 0.39104 0.73292 0.0
H873 H 0.26667 0.40242 0.82098 0.0
H874 H 0.28538 0.45998 0.71204 0.0
O875 O 0.31869 0.42311 0.82472 0.0
C876 C 0.28569 0.38772 0.68441 0.0
O877 O 0.29579 0.40841 0.65576 0.0
N878 N 0.33698 0.46397 0.75307 0.0
C879 C 0.38124 0.51084 0.73026 0.0
C880 C 0.38021 0.49676 0.77355 0.0
C881 C 0.35828 0.47319 0.7835 0.0
C882 C 0.33743 0.47799 0.71175 0.0
C883 C 0.35909 0.50162 0.70022 0.0
H884 H 0.36021 0.46103 0.81106 0.0
H885 H 0.32251 0.46942 0.68348 0.0
H886 H 0.33342 0.39471 0.78551 0.0
H887 H 0.39524 0.43528 0.68536 0.0
H888 H 0.22996 0.41445 0.82 0.0
H889 H 0.39719 0.50238 0.79646 0.0
H890 H 0.35917 0.51151 0.66569 0.0
C891 C 0.59713 0.90474 0.2228 0.0
C892 C 0.6224 0.91219 0.21283 0.0
N893 N 0.63069 0.93036 0.17645 0.0
N894 N 0.58981 0.91781 0.19159 0.0
C895 C 0.61079 0.93359 0.16489 0.0
H896 H 0.58469 0.89003 0.24936 0.0
Co897 Co 0.5583 0.91436 0.17898 0.0
C898 C 0.55201 0.90743 0.06396 0.0
O899 O 0.52779 0.89095 0.07364 0.0
N900 N 0.52607 0.91154 0.1669 0.0
C901 C 0.49783 0.92219 0.13779 0.0
C902 C 0.52303 0.9281 0.1369 0.0
C903 C 0.50242 0.89621 0.18694 0.0
N904 N 0.48486 0.90215 0.16938 0.0
O905 O 0.57306 0.95159 0.19526 0.0
H906 H 0.53837 0.94378 0.11611 0.0
H907 H 0.49795 0.88122 0.21438 0.0
O908 O 0.56687 0.91972 0.10178 0.0
C909 C 0.57423 0.95499 0.24389 0.0
O910 O 0.5645 0.93436 0.27271 0.0
N911 N 0.54508 0.8784 0.17235 0.0
C912 C 0.54323 0.83187 0.19503 0.0
C913 C 0.55357 0.84458 0.14895 0.0
C914 C 0.55478 0.868 0.13875 0.0
C915 C 0.5334 0.86531 0.21577 0.0
C916 C 0.53197 0.84192 0.22752 0.0
H917 H 0.56675 0.87901 0.10746 0.0
H918 H 0.52836 0.87459 0.24497 0.0
H919 H 0.61116 0.94643 0.13556 0.0
H920 H 0.63362 0.90462 0.23006 0.0
H921 H 0.48986 0.93249 0.1182 0.0
H922 H 0.56328 0.83806 0.12352 0.0
H923 H 0.52409 0.83295 0.26387 0.0
C924 C 0.10424 0.68924 0.23307 0.0
C925 C 0.10331 0.71147 0.22593 0.0
N926 N 0.09449 0.71087 0.1786 0.0
N927 N 0.09579 0.67487 0.19053 0.0
C928 C 0.08959 0.68835 0.15855 0.0
H929 H 0.11148 0.68429 0.2663 0.0
Co930 Co 0.09761 0.64595 0.17627 0.0
C931 C 0.10422 0.64665 0.06124 0.0
O932 O 0.1199 0.63784 0.07059 0.0
N933 N 0.09922 0.61596 0.16341 0.0
C934 C 0.08719 0.57654 0.13595 0.0
C935 C 0.08189 0.59629 0.13479 0.0
C936 C 0.11451 0.60735 0.18259 0.0
N937 N 0.1077 0.58349 0.16619 0.0
O938 O 0.06036 0.62443 0.19258 0.0
H939 H 0.06606 0.59618 0.11493 0.0
H940 H 0.13014 0.61798 0.20861 0.0
O941 O 0.09241 0.64975 0.09928 0.0
C942 C 0.05723 0.6201 0.2409 0.0
O943 O 0.07803 0.62887 0.26896 0.0
N944 N 0.13364 0.6677 0.16992 0.0
C945 C 0.18042 0.7116 0.19443 0.0
C946 C 0.1683 0.70977 0.14778 0.0
C947 C 0.1448 0.68791 0.13656 0.0
C948 C 0.14606 0.66861 0.21402 0.0
C949 C 0.16959 0.69008 0.22657 0.0
H950 H 0.13441 0.68923 0.10447 0.0
H951 H 0.13619 0.65419 0.24293 0.0
H952 H 0.08162 0.68192 0.12107 0.0
H953 H 0.1091 0.727 0.25282 0.0
H954 H 0.07616 0.55811 0.11751 0.0
H955 H 0.17539 0.72613 0.12243 0.0
H956 H 0.17811 0.69058 0.26316 0.0
C957 C 0.3211 0.41966 0.22541 0.0
C958 C 0.3034 0.39418 0.2171 0.0
N959 N 0.31328 0.38536 0.18193 0.0
N960 N 0.34136 0.42654 0.19423 0.0
C961 C 0.33626 0.40514 0.16934 0.0
H962 H 0.31878 0.43251 0.25063 0.0
Co963 Co 0.36911 0.45789 0.17964 0.0
C964 C 0.36754 0.46243 0.06403 0.0
O965 O 0.37532 0.48679 0.07206 0.0
N966 N 0.39828 0.48997 0.16579 0.0
C967 C 0.43722 0.51763 0.13652 0.0
C968 C 0.4176 0.4926 0.13567 0.0
C969 C 0.40706 0.5137 0.18578 0.0
N970 N 0.43063 0.53094 0.16817 0.0
O971 O 0.39199 0.44351 0.19665 0.0
H972 H 0.41767 0.47705 0.11523 0.0
H973 H 0.39686 0.51835 0.21356 0.0
O974 O 0.36526 0.44816 0.10288 0.0
C975 C 0.39503 0.44292 0.24518 0.0
O976 O 0.3844 0.45279 0.27425 0.0
N977 N 0.34606 0.47085 0.17198 0.0
C978 C 0.3014 0.47312 0.19296 0.0
C979 C 0.30364 0.46197 0.14795 0.0
C980 C 0.3258 0.46056 0.13866 0.0
C981 C 0.34478 0.48327 0.21431 0.0
C982 C 0.32283 0.48487 0.22523 0.0
H983 H 0.32472 0.44806 0.10838 0.0
H984 H 0.35925 0.48888 0.24347 0.0
H985 H 0.34859 0.40436 0.14032 0.0
H986 H 0.28465 0.38322 0.2344 0.0
H987 H 0.45543 0.52517 0.11705 0.0
H988 H 0.28733 0.45187 0.12279 0.0
H989 H 0.32188 0.49338 0.26081 0.0
C990 C 0.10875 0.42024 0.72552 0.0
C991 C 0.10131 0.39479 0.71784 0.0
N992 N 0.08346 0.3859 0.68087 0.0
N993 N 0.09603 0.42706 0.69229 0.0
C994 C 0.08041 0.40563 0.66669 0.0
H995 H 0.12333 0.43316 0.75175 0.0
Co996 Co 0.10002 0.45856 0.67649 0.0
C997 C 0.108 0.46239 0.56128 0.0
O998 O 0.12499 0.48664 0.56906 0.0
N999 N 0.1034 0.49077 0.66129 0.0
C1000 C 0.09408 0.51941 0.62884 0.0
C1001 C 0.08816 0.49417 0.62818 0.0
C1002 C 0.11785 0.51417 0.68286 0.0
N1003 N 0.11275 0.53198 0.66341 0.0
O1004 O 0.06301 0.44454 0.69163 0.0
H1005 H 0.07319 0.47904 0.60573 0.0
H1006 H 0.13141 0.51824 0.71311 0.0
O1007 O 0.09497 0.44868 0.59988 0.0
C1008 C 0.06 0.44426 0.74025 0.0
O1009 O 0.08085 0.45474 0.76841 0.0
N1010 N 0.13587 0.47116 0.67101 0.0
C1011 C 0.1826 0.47377 0.69484 0.0
C1012 C 0.16922 0.46157 0.65044 0.0
C1013 C 0.1457 0.45994 0.63989 0.0
C1014 C 0.14935 0.48416 0.71312 0.0
C1015 C 0.17291 0.48612 0.72522 0.0
H1016 H 0.13405 0.44641 0.61117 0.0
H1017 H 0.14031 0.4899 0.74152 0.0
H1018 H 0.06793 0.40479 0.63616 0.0
H1019 H 0.10876 0.38389 0.73685 0.0
H1020 H 0.08457 0.52759 0.60718 0.0
H1021 H 0.17528 0.45075 0.62706 0.0
H1022 H 0.18231 0.4953 0.76047 0.0
C1023 C 0.59476 0.68929 0.73045 0.0
C1024 C 0.62036 0.70713 0.72412 0.0
N1025 N 0.62961 0.69838 0.68752 0.0
N1026 N 0.58822 0.67011 0.69665 0.0
C1027 C 0.60994 0.6759 0.67219 0.0
H1028 H 0.58154 0.69092 0.75585 0.0
Co1029 Co 0.55677 0.64338 0.67877 0.0
C1030 C 0.55473 0.64922 0.56324 0.0
O1031 O 0.5306 0.64278 0.56999 0.0
N1032 N 0.52453 0.61526 0.6617 0.0
C1033 C 0.49576 0.57797 0.62755 0.0
C1034 C 0.52101 0.59721 0.62716 0.0
C1035 C 0.50122 0.60596 0.68392 0.0
N1036 N 0.48331 0.58347 0.66343 0.0
O1037 O 0.56986 0.61944 0.69414 0.0
H1038 H 0.53608 0.59759 0.60414 0.0
H1039 H 0.49739 0.6148 0.71565 0.0
O1040 O 0.56772 0.64895 0.60242 0.0
C1041 C 0.5695 0.61579 0.74262 0.0
O1042 O 0.55914 0.62611 0.77116 0.0
N1043 N 0.54498 0.66743 0.6729 0.0
C1044 C 0.54225 0.71174 0.6948 0.0
C1045 C 0.5556 0.71075 0.65212 0.0
C1046 C 0.55729 0.68879 0.64265 0.0
C1047 C 0.53106 0.66782 0.71353 0.0
C1048 C 0.52909 0.68953 0.72466 0.0
H1049 H 0.57153 0.69073 0.61557 0.0
H1050 H 0.52438 0.65279 0.74165 0.0
H1051 H 0.61102 0.66459 0.64133 0.0
H1052 H 0.63109 0.72536 0.74346 0.0
H1053 H 0.48754 0.56065 0.6049 0.0
H1054 H 0.56709 0.72775 0.62938 0.0
H1055 H 0.51906 0.6896 0.75877 0.0
C1056 C 0.32736 0.91164 0.73329 0.0
C1057 C 0.30537 0.91301 0.72613 0.0
N1058 N 0.30622 0.92203 0.67887 0.0
N1059 N 0.34182 0.92 0.69082 0.0
C1060 C 0.32866 0.9266 0.65887 0.0
H1061 H 0.33205 0.90413 0.76647 0.0
Co1062 Co 0.37043 0.9176 0.67655 0.0
C1063 C 0.36946 0.91063 0.56172 0.0
O1064 O 0.3777 0.89452 0.5715 0.0
N1065 N 0.40008 0.9154 0.66362 0.0
C1066 C 0.43911 0.92638 0.63522 0.0
C1067 C 0.41975 0.93225 0.6343 0.0
C1068 C 0.40833 0.89988 0.68308 0.0
N1069 N 0.43191 0.90602 0.66608 0.0
O1070 O 0.39243 0.95473 0.69291 0.0
H1071 H 0.42012 0.94811 0.61403 0.0
H1072 H 0.39766 0.88455 0.70973 0.0
O1073 O 0.36675 0.92285 0.59949 0.0
C1074 C 0.39661 0.95748 0.74131 0.0
O1075 O 0.38747 0.93646 0.76884 0.0
N1076 N 0.34823 0.88167 0.67037 0.0
C1077 C 0.30407 0.83518 0.6951 0.0
C1078 C 0.30597 0.84738 0.64849 0.0
C1079 C 0.32796 0.87074 0.63719 0.0
C1080 C 0.34719 0.8692 0.71449 0.0
C1081 C 0.32559 0.84579 0.72714 0.0
H1082 H 0.32673 0.88127 0.60521 0.0
H1083 H 0.36163 0.87896 0.74337 0.0
H1084 H 0.33524 0.93458 0.62142 0.0
H1085 H 0.28981 0.90733 0.75293 0.0
H1086 H 0.45747 0.93689 0.61621 0.0
H1087 H 0.28959 0.84046 0.62328 0.0
H1088 H 0.325 0.83722 0.76373 0.0
C1089 C 0.0871 0.43789 0.19432 0.0
C1090 C 0.06368 0.43606 0.2034 0.0
N1091 N 0.05582 0.42578 0.24998 0.0
N1092 N 0.09363 0.42863 0.23495 0.0
C1093 C 0.07401 0.421 0.26768 0.0
H1094 H 0.09901 0.44623 0.1611 0.0
Co1095 Co 0.12477 0.43061 0.24664 0.0
C1096 C 0.1323 0.43735 0.3611 0.0
O1097 O 0.15659 0.45315 0.35059 0.0
N1098 N 0.15671 0.43229 0.25727 0.0
C1099 C 0.18429 0.4203 0.28428 0.0
C1100 C 0.15927 0.41499 0.28578 0.0
C1101 C 0.1805 0.44754 0.23761 0.0
N1102 N 0.19767 0.44078 0.25387 0.0
O1103 O 0.10893 0.39345 0.23008 0.0
H1104 H 0.14374 0.39925 0.30609 0.0
H1105 H 0.18535 0.46319 0.21159 0.0
O1106 O 0.11694 0.42534 0.32378 0.0
C1107 C 0.1092 0.39057 0.18149 0.0
O1108 O 0.1205 0.4115 0.15361 0.0
N1109 N 0.13904 0.46661 0.25325 0.0
C1110 C 0.14101 0.51306 0.22934 0.0
C1111 C 0.13146 0.50104 0.27635 0.0
C1112 C 0.13021 0.47766 0.28723 0.0
C1113 C 0.15004 0.47906 0.20889 0.0
C1114 C 0.15153 0.5024 0.1965 0.0
H1115 H 0.11885 0.4672 0.3196 0.0
H1116 H 0.15447 0.46927 0.17969 0.0
H1117 H 0.07291 0.41205 0.30395 0.0
H1118 H 0.05353 0.44225 0.17832 0.0
H1119 H 0.19186 0.40939 0.30283 0.0
H1120 H 0.12237 0.50807 0.3022 0.0
H1121 H 0.15887 0.51085 0.15954 0.0
C1122 C 0.57987 0.65529 0.19239 0.0
C1123 C 0.58113 0.63325 0.19988 0.0
N1124 N 0.59037 0.63429 0.24698 0.0
N1125 N 0.58854 0.66997 0.23448 0.0
C1126 C 0.59518 0.65687 0.26654 0.0
H1127 H 0.57233 0.65993 0.15919 0.0
Co1128 Co 0.5868 0.69899 0.24818 0.0
C1129 C 0.58038 0.69872 0.36321 0.0
O1130 O 0.56474 0.70758 0.35381 0.0
N1131 N 0.58527 0.72909 0.26051 0.0
C1132 C 0.59724 0.76851 0.28783 0.0
C1133 C 0.60258 0.74879 0.28908 0.0
C1134 C 0.56998 0.73766 0.24117 0.0
N1135 N 0.57674 0.76152 0.25753 0.0
O1136 O 0.6241 0.72038 0.23176 0.0
H1137 H 0.61839 0.74893 0.30908 0.0
H1138 H 0.55437 0.727 0.21514 0.0
O1139 O 0.59208 0.69545 0.32518 0.0
C1140 C 0.62738 0.72458 0.18342 0.0
O1141 O 0.60668 0.71578 0.15507 0.0
N1142 N 0.55073 0.67732 0.2548 0.0
C1143 C 0.50351 0.63365 0.23163 0.0
C1144 C 0.51581 0.63559 0.2781 0.0
C1145 C 0.53954 0.65731 0.2886 0.0
C1146 C 0.53819 0.6763 0.2108 0.0
C1147 C 0.51445 0.65494 0.19891 0.0
H1148 H 0.55001 0.65601 0.32058 0.0
H1149 H 0.54805 0.69052 0.18156 0.0
H1150 H 0.60348 0.66366 0.30368 0.0
H1151 H 0.5753 0.61756 0.17336 0.0
H1152 H 0.6082 0.78695 0.30631 0.0
H1153 H 0.50862 0.61937 0.30382 0.0
H1154 H 0.50583 0.6543 0.16236 0.0
C1155 C 0.3605 0.92418 0.19434 0.0
C1156 C 0.37869 0.9497 0.20005 0.0
N1157 N 0.37038 0.95938 0.23664 0.0
N1158 N 0.34152 0.91809 0.22845 0.0
C1159 C 0.34781 0.94002 0.2526 0.0
H1160 H 0.36169 0.9107 0.16895 0.0
Co1161 Co 0.31437 0.88685 0.24634 0.0
C1162 C 0.31949 0.88486 0.36213 0.0
O1163 O 0.31235 0.86053 0.35589 0.0
N1164 N 0.28583 0.85482 0.26328 0.0
C1165 C 0.24784 0.82676 0.29602 0.0
C1166 C 0.2675 0.85181 0.29668 0.0
C1167 C 0.27634 0.83137 0.24157 0.0
N1168 N 0.25336 0.81386 0.26118 0.0
O1169 O 0.29092 0.90045 0.23031 0.0
H1170 H 0.26798 0.86714 0.31895 0.0
H1171 H 0.28543 0.82718 0.2108 0.0
O1172 O 0.31979 0.89792 0.32257 0.0
C1173 C 0.28731 0.90008 0.18182 0.0
O1174 O 0.29749 0.88955 0.15337 0.0
N1175 N 0.33797 0.87453 0.25298 0.0
C1176 C 0.38205 0.87121 0.23219 0.0
C1177 C 0.38097 0.88451 0.27484 0.0
C1178 C 0.35916 0.88654 0.28369 0.0
C1179 C 0.33839 0.86058 0.21248 0.0
C1180 C 0.36003 0.85837 0.20181 0.0
H1181 H 0.36115 0.90083 0.31067 0.0
H1182 H 0.32351 0.85408 0.18409 0.0
H1183 H 0.33674 0.94148 0.28349 0.0
H1184 H 0.3968 0.96011 0.18015 0.0
H1185 H 0.23025 0.81902 0.31773 0.0
H1186 H 0.39788 0.89577 0.29792 0.0
H1187 H 0.36023 0.84847 0.16763 0.0
C1188 C 0.21241 0.088 1.011 0.0
C1189 C 0.21162 0.06965 1.04542 0.0
H1190 H 0.22094 0.12678 0.9995 0.0
C1191 C 0.21727 0.07656 0.09688 0.0
H1192 H 0.20811 0.0833 0.97114 0.0
C1193 C 0.22459 0.1014 0.11306 0.0
C1194 C 0.22642 0.12006 0.07835 0.0
H1195 H 0.2173 0.06315 0.12441 0.0
H1196 H 0.22936 0.10619 0.15273 0.0
C1197 C 0.21962 0.11288 1.02732 0.0
C1198 C 0.91282 0.13043 0.11293 0.0
C1199 C 0.89497 0.11194 0.07945 0.0
H1200 H 0.9504 0.16257 0.12312 0.0
C1201 C 0.903 0.11072 1.02978 0.0
H1202 H 0.90746 0.13171 0.1516 0.0
C1203 C 0.92794 0.12825 1.0135 0.0
C1204 C 0.94548 0.14736 0.04653 0.0
H1205 H 0.88979 0.09687 1.00276 0.0
H1206 H 0.93331 0.12719 0.97468 0.0
C1207 C 0.93768 0.1479 0.09673 0.0
C1208 C 0.88952 0.80146 1.01208 0.0
C1209 C 0.87053 0.79986 0.04549 0.0
H1210 H 0.9203 0.7937 1.00016 0.0
C1211 C 0.86935 0.79028 0.09487 0.0
H1212 H 0.89093 0.80872 0.9738 0.0
C1213 C 0.88604 0.78161 0.10982 0.0
C1214 C 0.90447 0.78239 0.07596 0.0
H1215 H 0.85472 0.78833 0.12138 0.0
H1216 H 0.88423 0.77385 0.14775 0.0
C1217 C 0.90642 0.79297 1.02727 0.0
C1218 C 0.09029 0.20611 0.5799 0.0
C1219 C 0.07254 0.20673 0.54581 0.0
H1220 H 0.12894 0.21428 0.59194 0.0
C1221 C 0.08024 0.21439 0.49529 0.0
H1222 H 0.08495 0.2003 0.61906 0.0
C1223 C 0.10537 0.22246 0.47991 0.0
C1224 C 0.12344 0.22297 0.5145 0.0
H1225 H 0.06727 0.21552 0.46816 0.0
H1226 H 0.11088 0.22896 0.44114 0.0
C1227 C 0.11545 0.214 0.56432 0.0
C1228 C 0.80493 0.88628 0.57903 0.0
C1229 C 0.80411 0.8678 0.54522 0.0
H1230 H 0.79659 0.91665 0.59101 0.0
C1231 C 0.79553 0.86723 0.4952 0.0
H1232 H 0.81139 0.88716 0.61783 0.0
C1233 C 0.78689 0.88393 0.48004 0.0
C1234 C 0.78681 0.90177 0.51432 0.0
H1235 H 0.79423 0.85299 0.46839 0.0
H1236 H 0.77977 0.88255 0.44167 0.0
C1237 C 0.79655 0.90322 0.56362 0.0
C1238 C 0.1148 0.89997 0.56117 0.0
C1239 C 0.11571 0.89202 0.51129 0.0
H1240 H 0.13155 0.93024 0.61627 0.0
C1241 C 0.13393 0.90999 0.47746 0.0
H1242 H 0.10116 0.88668 0.58842 0.0
C1243 C 0.15144 0.93486 0.4935 0.0
C1244 C 0.15123 0.9426 0.54388 0.0
H1245 H 0.13498 0.9047 0.43862 0.0
H1246 H 0.16588 0.94766 0.46677 0.0
C1247 C 0.13238 0.92494 0.57729 0.0
C1248 C 0.79268 0.90898 0.98199 0.0
C1249 C 0.79164 0.89077 1.01694 0.0
H1250 H 0.80013 0.94725 0.96977 0.0
C1251 C 0.80001 0.89862 0.06706 0.0
H1252 H 0.78661 0.90355 0.94302 0.0
C1253 C 0.80785 0.92378 0.08253 0.0
C1254 C 0.80784 0.9417 0.04799 0.0
H1255 H 0.7993 0.885 0.09491 0.0
H1256 H 0.81316 0.92902 0.1219 0.0
C1257 C 0.80077 0.93413 0.99723 0.0
C1258 C 0.1161 0.90097 0.06111 0.0
C1259 C 0.1242 0.8999 1.01142 0.0
H1260 H 0.08565 0.88447 0.1159 0.0
C1261 C 0.10631 0.88167 0.97759 0.0
H1262 H 0.12934 0.91462 0.08836 0.0
C1263 C 0.08134 0.8643 0.99346 0.0
C1264 C 0.07347 0.86466 1.04367 0.0
H1265 H 0.11172 0.88051 0.9389 0.0
H1266 H 0.06859 0.84983 0.96679 0.0
C1267 C 0.09106 0.88353 0.07705 0.0
C1268 C 0.13149 0.22949 0.98053 0.0
C1269 C 0.11399 0.23001 1.01515 0.0
H1270 H 0.16216 0.22172 0.96847 0.0
C1271 C 0.11298 0.22084 0.06483 0.0
H1272 H 0.13255 0.23619 0.9419 0.0
C1273 C 0.13 0.21253 0.08019 0.0
C1274 C 0.14808 0.2128 0.04594 0.0
H1275 H 0.09982 0.22115 0.09245 0.0
H1276 H 0.12947 0.20651 0.11923 0.0
C1277 C 0.14823 0.22086 0.99563 0.0
C1278 C 0.93818 0.7975 0.59556 0.0
C1279 C 0.94529 0.8037 0.5443 0.0
H1280 H 0.90823 0.78461 0.65102 0.0
C1281 C 0.92704 0.80311 0.50992 0.0
H1282 H 0.95154 0.79733 0.62301 0.0
C1283 C 0.90205 0.7956 0.52607 0.0
C1284 C 0.89467 0.78825 0.57685 0.0
H1285 H 0.9319 0.8078 0.4702 0.0
H1286 H 0.88823 0.79447 0.4983 0.0
C1287 C 0.91321 0.78983 0.61155 0.0
C1288 C 0.21476 0.12662 0.51168 0.0
C1289 C 0.21581 0.1453 0.54527 0.0
H1290 H 0.22293 0.09612 0.49984 0.0
C1291 C 0.22494 0.14623 0.59497 0.0
H1292 H 0.20786 0.12541 0.47315 0.0
C1293 C 0.23367 0.1296 0.6101 0.0
C1294 C 0.23337 0.11146 0.57612 0.0
H1295 H 0.22646 0.16062 0.62163 0.0
H1296 H 0.24106 0.13121 0.64828 0.0
C1297 C 0.22328 0.10976 0.52705 0.0
C1298 C 0.88457 0.10371 0.61149 0.0
C1299 C 0.90304 0.1214 0.57768 0.0
H1300 H 0.85262 0.06605 0.62256 0.0
C1301 C 0.90435 0.11307 0.52837 0.0
H1302 H 0.88322 0.10933 0.6499 0.0
C1303 C 0.88691 0.08799 0.51271 0.0
C1304 C 0.86786 0.07058 0.54608 0.0
H1305 H 0.9182 0.12618 0.50117 0.0
H1306 H 0.888 0.08238 0.4741 0.0
C1307 C 0.86724 0.07868 0.59596 0.0
C1308 C 0.88922 0.41181 0.42787 0.0
C1309 C 0.87972 0.40336 0.37848 0.0
H1310 H 0.90433 0.44257 0.48141 0.0
C1311 C 0.87739 0.42058 0.34548 0.0
H1312 H 0.89182 0.39944 0.45426 0.0
C1313 C 0.88508 0.44574 0.36103 0.0
C1314 C 0.89542 0.45433 0.40987 0.0
H1315 H 0.87004 0.41477 0.30729 0.0
H1316 H 0.88378 0.45868 0.33412 0.0
C1317 C 0.89685 0.43682 0.44331 0.0
C1318 C 0.59434 0.46177 0.34672 0.0
C1319 C 0.61164 0.48103 0.37982 0.0
H1320 H 0.55619 0.43029 0.33551 0.0
C1321 C 0.60342 0.4819 0.42947 0.0
H1322 H 0.60005 0.46051 0.30828 0.0
C1323 C 0.57838 0.46462 0.44503 0.0
C1324 C 0.56081 0.44593 0.41148 0.0
H1325 H 0.61598 0.49669 0.45583 0.0
H1326 H 0.57262 0.46618 0.48321 0.0
C1327 C 0.56925 0.44433 0.36245 0.0
C1328 C 0.53915 0.12607 0.42786 0.0
C1329 C 0.53986 0.13521 0.37824 0.0
H1330 H 0.55451 0.11012 0.48073 0.0
C1331 C 0.55863 0.1366 0.34441 0.0
H1332 H 0.52472 0.1243 0.45473 0.0
C1333 C 0.57571 0.12829 0.35941 0.0
C1334 C 0.57415 0.11809 0.40834 0.0
H1335 H 0.55969 0.14353 0.30594 0.0
H1336 H 0.58937 0.12882 0.33202 0.0
C1337 C 0.556 0.11758 0.44262 0.0
C1338 C 0.75791 0.54119 0.91603 0.0
C1339 C 0.73996 0.54105 0.88144 0.0
H1340 H 0.79669 0.54971 0.92827 0.0
C1341 C 0.74742 0.54781 0.83052 0.0
H1342 H 0.75275 0.53612 0.95553 0.0
C1343 C 0.77253 0.55576 0.81513 0.0
C1344 C 0.79077 0.55695 0.85009 0.0
H1345 H 0.73425 0.54832 0.80302 0.0
H1346 H 0.77789 0.5616 0.77602 0.0
C1347 C 0.78302 0.54888 0.90041 0.0
C1348 C 0.4659 0.19989 0.82773 0.0
C1349 C 0.47265 0.19953 0.87885 0.0
H1350 H 0.45228 0.21626 0.77202 0.0
C1351 C 0.47211 0.21731 0.91272 0.0
H1352 H 0.46565 0.18622 0.80068 0.0
C1353 C 0.46409 0.23436 0.8963 0.0
C1354 C 0.45627 0.23393 0.84566 0.0
H1355 H 0.47723 0.21757 0.95231 0.0
H1356 H 0.46301 0.24711 0.92386 0.0
C1357 C 0.45781 0.21686 0.81139 0.0
C1358 C 0.81924 0.26787 0.82673 0.0
C1359 C 0.81779 0.27627 0.8759 0.0
H1360 H 0.80413 0.2371 0.77323 0.0
C1361 C 0.79821 0.25899 0.90855 0.0
H1362 H 0.83428 0.28031 0.80065 0.0
C1363 C 0.78108 0.23379 0.89293 0.0
C1364 C 0.78316 0.22524 0.8443 0.0
H1365 H 0.79638 0.26478 0.94655 0.0
H1366 H 0.76682 0.22083 0.91967 0.0
C1367 C 0.80215 0.24281 0.81116 0.0
C1368 C 0.4681 0.23308 0.40126 0.0
C1369 C 0.45902 0.22492 0.35157 0.0
H1370 H 0.48178 0.2637 0.45572 0.0
C1371 C 0.45903 0.24282 0.31711 0.0
H1372 H 0.46821 0.21974 0.4288 0.0
C1373 C 0.46684 0.26791 0.33236 0.0
C1374 C 0.47478 0.27584 0.38267 0.0
H1375 H 0.45244 0.23723 0.27844 0.0
H1376 H 0.46541 0.28072 0.30521 0.0
C1377 C 0.47574 0.25823 0.41674 0.0
C1378 C 0.77749 0.21484 0.31211 0.0
C1379 C 0.79469 0.23409 0.3452 0.0
H1380 H 0.73997 0.18254 0.3013 0.0
C1381 C 0.78576 0.23642 0.39321 0.0
H1382 H 0.78369 0.21269 0.27474 0.0
C1383 C 0.76054 0.21912 0.40854 0.0
C1384 C 0.74359 0.19933 0.37594 0.0
H1385 H 0.79856 0.25092 0.41974 0.0
H1386 H 0.75446 0.22087 0.44633 0.0
C1387 C 0.75229 0.19775 0.32717 0.0
C1388 C 0.81486 0.55304 0.32863 0.0
C1389 C 0.81413 0.54424 0.37855 0.0
H1390 H 0.79975 0.56905 0.27522 0.0
C1391 C 0.79555 0.54332 0.41227 0.0
H1392 H 0.82918 0.55443 0.30188 0.0
C1393 C 0.77869 0.55181 0.3969 0.0
C1394 C 0.7803 0.56175 0.34771 0.0
H1395 H 0.79453 0.53669 0.45098 0.0
H1396 H 0.76519 0.55167 0.42424 0.0
C1397 C 0.79823 0.56177 0.31351 0.0
C1398 C 0.56958 0.12726 0.86165 0.0
C1399 C 0.5622 0.11946 0.91228 0.0
H1400 H 0.59948 0.14019 0.80576 0.0
C1401 C 0.58077 0.12081 0.94663 0.0
H1402 H 0.55576 0.12631 0.83409 0.0
C1403 C 0.60578 0.12878 0.93046 0.0
C1404 C 0.61292 0.13553 0.87936 0.0
H1405 H 0.57582 0.11526 0.98598 0.0
H1406 H 0.61918 0.12846 0.95761 0.0
C1407 C 0.59462 0.13509 0.84534 0.0
C1408 C 0.90102 0.46347 0.94405 0.0
C1409 C 0.89952 0.44449 0.91092 0.0
H1410 H 0.89455 0.49503 0.95485 0.0
C1411 C 0.88805 0.44179 0.86295 0.0
H1412 H 0.90953 0.46586 0.98138 0.0
C1413 C 0.87937 0.45851 0.84763 0.0
C1414 C 0.88163 0.47802 0.88026 0.0
H1415 H 0.88679 0.42748 0.8364 0.0
H1416 H 0.87146 0.45657 0.80981 0.0
C1417 C 0.8921 0.47996 0.92903 0.0
C1418 C 0.57003 0.4461 0.86282 0.0
C1419 C 0.57034 0.45335 0.91377 0.0
H1420 H 0.55225 0.41641 0.80684 0.0
C1421 C 0.55356 0.43475 0.94849 0.0
H1422 H 0.58255 0.45995 0.83494 0.0
C1423 C 0.53621 0.40982 0.9324 0.0
C1424 C 0.53512 0.40284 0.88105 0.0
H1425 H 0.55353 0.4396 0.98808 0.0
H1426 H 0.52283 0.39639 0.95988 0.0
C1427 C 0.55256 0.42117 0.84662 0.0
C1428 C 0.54671 0.75515 0.67815 0.0
C1429 C 0.54611 0.73694 0.71269 0.0
H1430 H 0.55527 0.79393 0.66627 0.0
C1431 C 0.55222 0.74408 0.76393 0.0
H1432 H 0.5421 0.75027 0.63844 0.0
C1433 C 0.55981 0.76905 0.77978 0.0
C1434 C 0.56139 0.78754 0.74493 0.0
H1435 H 0.55237 0.73075 0.79149 0.0
H1436 H 0.56496 0.77406 0.81924 0.0
C1437 C 0.55414 0.78014 0.69415 0.0
C1438 C 0.27092 0.81475 0.76389 0.0
C1439 C 0.27864 0.81437 0.71355 0.0
H1440 H 0.24069 0.79858 0.81876 0.0
C1441 C 0.26092 0.7956 0.68021 0.0
H1442 H 0.2838 0.82916 0.79052 0.0
C1443 C 0.23591 0.77822 0.69636 0.0
C1444 C 0.22798 0.77927 0.74621 0.0
H1445 H 0.26622 0.79468 0.64126 0.0
H1446 H 0.22258 0.76464 0.66914 0.0
C1447 C 0.24599 0.79744 0.77996 0.0
C1448 C 0.23849 0.46104 0.69642 0.0
C1449 C 0.23772 0.4528 0.74685 0.0
H1450 H 0.222 0.47457 0.64053 0.0
C1451 C 0.22039 0.45399 0.78095 0.0
H1452 H 0.25146 0.46024 0.669 0.0
C1453 C 0.20349 0.46215 0.76461 0.0
C1454 C 0.20345 0.46932 0.71365 0.0
H1455 H 0.21954 0.44813 0.82017 0.0
H1456 H 0.18961 0.46162 0.79148 0.0
C1457 C 0.2215 0.46913 0.67998 0.0
C1458 C 0.44018 0.89022 0.14888 0.0
C1459 C 0.45826 0.89108 0.18391 0.0
H1460 H 0.402 0.883 0.13645 0.0
C1461 C 0.45027 0.88264 0.23397 0.0
H1462 H 0.44571 0.89635 0.10994 0.0
C1463 C 0.4251 0.8749 0.2493 0.0
C1464 C 0.40731 0.87508 0.21468 0.0
H1465 H 0.46379 0.88321 0.26188 0.0
H1466 H 0.41976 0.86952 0.28862 0.0
C1467 C 0.41502 0.88223 0.16398 0.0
C1468 C 0.12957 0.56994 0.22893 0.0
C1469 C 0.11863 0.56774 0.18054 0.0
H1470 H 0.1455 0.55459 0.28229 0.0
C1471 C 0.1173 0.54892 0.14712 0.0
H1472 H 0.13074 0.58412 0.25572 0.0
C1473 C 0.12576 0.53209 0.16225 0.0
C1474 C 0.13573 0.53353 0.21134 0.0
H1475 H 0.10927 0.54691 0.10942 0.0
H1476 H 0.12336 0.51716 0.1361 0.0
C1477 C 0.1379 0.55293 0.24426 0.0
C1478 C 0.44555 0.56593 0.23204 0.0
C1479 C 0.44672 0.55748 0.18279 0.0
H1480 H 0.46235 0.59671 0.28613 0.0
C1481 C 0.46511 0.57505 0.14871 0.0
H1482 H 0.43172 0.55286 0.25932 0.0
C1483 C 0.48262 0.60005 0.16399 0.0
C1484 C 0.48229 0.60827 0.21389 0.0
H1485 H 0.46633 0.56928 0.11034 0.0
H1486 H 0.49721 0.61253 0.13718 0.0
C1487 C 0.46323 0.59101 0.2475 0.0
C1488 C 0.13271 0.60194 0.66044 0.0
C1489 C 0.13926 0.60908 0.71155 0.0
H1490 H 0.11927 0.57189 0.60514 0.0
C1491 C 0.13872 0.59081 0.74582 0.0
H1492 H 0.13249 0.61534 0.63313 0.0
C1493 C 0.13094 0.56577 0.72972 0.0
C1494 C 0.12326 0.55836 0.6791 0.0
H1495 H 0.14364 0.59569 0.78544 0.0
H1496 H 0.12987 0.55194 0.75745 0.0
C1497 C 0.12475 0.5769 0.64448 0.0
C1498 C 0.42471 0.54964 0.74644 0.0
C1499 C 0.40645 0.53209 0.71209 0.0
H1500 H 0.46347 0.57969 0.75806 0.0
C1501 C 0.41352 0.53311 0.6608 0.0
H1502 H 0.41988 0.5494 0.78617 0.0
C1503 C 0.43846 0.55046 0.64472 0.0
C1504 C 0.457 0.56731 0.67939 0.0
H1505 H 0.40016 0.51966 0.63336 0.0
H1506 H 0.44337 0.55035 0.60519 0.0
C1507 C 0.44967 0.56711 0.73025 0.0
C1508 C 0.4651 0.89455 0.64655 0.0
C1509 C 0.44727 0.89475 0.68073 0.0
H1510 H 0.49602 0.88715 0.6352 0.0
C1511 C 0.44578 0.88511 0.73017 0.0
H1512 H 0.46651 0.90159 0.60809 0.0
C1513 C 0.46268 0.87672 0.74579 0.0
C1514 C 0.48117 0.87745 0.71209 0.0
H1515 H 0.43237 0.88516 0.75749 0.0
H1516 H 0.46178 0.87035 0.78468 0.0
C1517 C 0.48177 0.88592 0.66194 0.0
C1518 C 0.26731 0.45963 0.25988 0.0
C1519 C 0.27568 0.46832 0.21005 0.0
H1520 H 0.23609 0.44424 0.31275 0.0
C1521 C 0.25828 0.46955 0.17583 0.0
H1522 H 0.27997 0.458 0.28708 0.0
C1523 C 0.23296 0.46156 0.19071 0.0
C1524 C 0.22437 0.45177 0.23987 0.0
H1525 H 0.26409 0.47614 0.13719 0.0
H1526 H 0.21981 0.46197 0.16308 0.0
C1527 C 0.24202 0.4514 0.27448 0.0
C1528 C 0.54683 0.79232 0.17936 0.0
C1529 C 0.54849 0.81134 0.21276 0.0
H1530 H 0.5544 0.76142 0.16747 0.0
C1531 C 0.55802 0.81243 0.26215 0.0
H1532 H 0.5396 0.79097 0.14108 0.0
C1533 C 0.56657 0.79564 0.27711 0.0
C1534 C 0.56572 0.77719 0.24326 0.0
H1535 H 0.56001 0.82707 0.28866 0.0
H1536 H 0.57429 0.79739 0.31503 0.0
C1537 C 0.55519 0.77531 0.19456 0.0
C1538 C 0.23783 0.7796 0.19554 0.0
C1539 C 0.23689 0.78755 0.24542 0.0
H1540 H 0.22111 0.74934 0.14042 0.0
C1541 C 0.21865 0.76958 0.27921 0.0
H1542 H 0.25148 0.79291 0.16831 0.0
C1543 C 0.20117 0.7447 0.26316 0.0
C1544 C 0.20141 0.73697 0.21279 0.0
H1545 H 0.21758 0.77487 0.31804 0.0
H1546 H 0.18672 0.73189 0.28986 0.0
C1547 C 0.22026 0.75464 0.17939 0.0
C1548 C 0.25928 0.23958 0.28324 0.0
C1549 C 0.24081 0.2304 0.24376 0.0
H1550 H 0.2674 0.25068 0.36259 0.0
C1551 C 0.21688 0.22824 0.2546 0.0
H1552 H 0.2777 0.24087 0.27713 0.0
C1553 C 0.2111 0.23397 0.30283 0.0
C1554 C 0.22876 0.24175 0.34338 0.0
H1555 H 0.2018 0.22066 0.22629 0.0
H1556 H 0.19196 0.23089 0.30909 0.0
C1557 C 0.25335 0.24523 0.33244 0.0
C1558 C 0.78779 0.99279 0.25444 0.0
C1559 C 0.7845 0.01384 0.24285 0.0
H1560 H 0.78525 0.96526 0.30904 0.0
C1561 C 0.77358 0.02194 0.28107 0.0
H1562 H 0.79666 0.98621 0.22709 0.0
C1563 C 0.76732 0.00992 0.3299 0.0
C1564 C 0.77185 0.98953 0.34171 0.0
H1565 H 0.77129 0.03845 0.27431 0.0
H1566 H 0.76036 0.01755 0.3591 0.0
C1567 C 0.78138 0.98079 0.30224 0.0
C1568 C 0.98476 0.77905 0.28804 0.0
C1569 C 0.9931 0.76899 0.24885 0.0
H1570 H 0.99059 0.79477 0.36286 0.0
C1571 C 0.01326 0.76412 0.26078 0.0
H1572 H 0.9694 0.78315 0.28119 0.0
C1573 C 0.02542 0.77052 0.30944 0.0
C1574 C 0.01774 0.78197 0.34729 0.0
H1575 H 0.02056 0.7567 0.23181 0.0
H1576 H 0.04171 0.76787 0.31631 0.0
C1577 C 0.99692 0.78561 0.33564 0.0
C1578 C 0.79061 0.8 0.75576 0.0
C1579 C 0.78644 0.77538 0.74401 0.0
H1580 H 0.78929 0.82543 0.81068 0.0
C1581 C 0.77521 0.75636 0.7823 0.0
H1582 H 0.79962 0.8154 0.72823 0.0
C1583 C 0.76956 0.76238 0.83139 0.0
C1584 C 0.77496 0.78756 0.8433 0.0
H1585 H 0.77219 0.73731 0.77536 0.0
H1586 H 0.76238 0.74776 0.8607 0.0
C1587 C 0.78479 0.80586 0.80379 0.0
C1588 C 0.25199 1.00265 0.76147 0.0
C1589 C 0.24679 0.02259 0.74956 0.0
H1590 H 0.24863 0.97433 0.817 0.0
C1591 C 0.23651 0.03068 0.78877 0.0
H1592 H 0.25959 0.99555 0.73249 0.0
C1593 C 0.23007 0.0185 0.83639 0.0
C1594 C 0.23405 0.99789 0.84803 0.0
H1595 H 0.23215 0.04588 0.78194 0.0
H1596 H 0.22077 0.02464 0.86365 0.0
C1597 C 0.24571 0.99045 0.81014 0.0
C1598 C 0.99471 0.24286 0.77867 0.0
C1599 C 1.00059 0.22924 0.74237 0.0
H1600 H 1.00106 0.25842 0.85505 0.0
C1601 C 0.01977 0.22333 0.75532 0.0
H1602 H 0.97977 0.24742 0.77064 0.0
C1603 C 0.03205 0.22983 0.80275 0.0
C1604 C 0.02543 0.24209 0.84053 0.0
H1605 H 0.02476 0.21263 0.72915 0.0
H1606 H 0.04615 0.22406 0.81054 0.0
C1607 C 1.00694 0.24915 0.82725 0.0
C1608 C 0.88141 0.55619 0.58928 0.0
C1609 C 0.90635 0.56135 0.57722 0.0
H1610 H 0.85561 0.55678 0.64419 0.0
C1611 C 0.92543 0.57349 0.61505 0.0
H1612 H 0.86598 0.54651 0.56206 0.0
C1613 C 0.91922 0.57908 0.66404 0.0
C1614 C 0.89379 0.57276 0.67625 0.0
H1615 H 0.94476 0.57734 0.60784 0.0
H1616 H 0.93398 0.58704 0.693 0.0
C1617 C 0.87537 0.56199 0.63713 0.0
C1618 C 0.43077 0.33398 0.59252 0.0
C1619 C 0.4554 0.35532 0.58283 0.0
H1620 H 0.40597 0.30459 0.6464 0.0
C1621 C 0.47259 0.36476 0.62416 0.0
H1622 H 0.41706 0.3257 0.56175 0.0
C1623 C 0.46637 0.35268 0.67194 0.0
C1624 C 0.44239 0.33075 0.68159 0.0
H1625 H 0.49174 0.38097 0.61891 0.0
H1626 H 0.48117 0.35989 0.70081 0.0
C1627 C 0.42438 0.32183 0.64127 0.0
C1628 C 0.69405 0.10457 0.64226 0.0
C1629 C 0.68647 0.11609 0.68018 0.0
H1630 H 0.68931 0.09103 0.56443 0.0
C1631 C 0.66597 0.1202 0.66832 0.0
H1632 H 0.7101 0.10156 0.6493 0.0
C1633 C 0.65401 0.11399 0.6205 0.0
C1634 C 0.66224 0.10384 0.58128 0.0
H1635 H 0.65973 0.12941 0.69559 0.0
H1636 H 0.63888 0.11843 0.61354 0.0
C1637 C 0.68209 0.09853 0.59339 0.0
C1638 C 0.45289 0.13884 0.13793 0.0
C1639 C 0.44306 0.12086 0.17798 0.0
H1640 H 0.46765 0.14776 0.06225 0.0
C1641 C 0.43757 0.09557 0.16694 0.0
H1642 H 0.45747 0.15848 0.14414 0.0
C1643 C 0.44312 0.08913 0.11815 0.0
C1644 C 0.45434 0.10783 0.0793 0.0
H1645 H 0.43039 0.08117 0.19669 0.0
H1646 H 0.44003 0.07 0.11188 0.0
C1647 C 0.45862 0.13258 0.09021 0.0
C1648 C 0.90692 0.32633 0.0821 0.0
C1649 C 0.91924 0.35334 0.08003 0.0
H1650 H 0.88821 0.29236 0.12885 0.0
C1651 C 0.92634 0.36664 0.12674 0.0
H1652 H 0.90116 0.31522 0.04742 0.0
C1653 C 0.92019 0.35343 0.17376 0.0
C1654 C 0.90548 0.32643 0.17578 0.0
H1655 H 0.93576 0.3874 0.12696 0.0
H1656 H 0.92532 0.36454 0.20842 0.0
C1657 C 0.89955 0.31312 0.1291 0.0
C1658 C 0.65979 0.57488 0.11515 0.0
C1659 C 0.66831 0.56458 0.0765 0.0
H1660 H 0.66389 0.58762 0.19345 0.0
C1661 C 0.68982 0.56197 0.08756 0.0
H1662 H 0.64292 0.57662 0.10881 0.0
C1663 C 0.70182 0.56839 0.13533 0.0
C1664 C 0.69269 0.57728 0.17521 0.0
H1665 H 0.69674 0.55358 0.05986 0.0
H1666 H 0.71769 0.56501 0.14179 0.0
C1667 C 0.67185 0.58119 0.1639 0.0
C1668 C 0.5866 0.91261 0.99861 0.0
C1669 C 0.56143 0.90726 1.01045 0.0
H1670 H 0.61171 0.90993 0.94267 0.0
C1671 C 0.54319 0.89749 0.9709 0.0
H1672 H 0.60119 0.91973 1.02796 0.0
C1673 C 0.54908 0.89169 0.92289 0.0
C1674 C 0.5737 0.89582 0.91121 0.0
H1675 H 0.52362 0.89302 0.97774 0.0
H1676 H 0.53371 0.88271 0.89534 0.0
C1677 C 0.59266 0.90696 0.94955 0.0
C1678 C 0.10053 0.67732 0.99649 0.0
C1679 C 0.10491 0.65678 1.0079 0.0
H1680 H 0.10457 0.70603 0.94129 0.0
C1681 C 0.11423 0.64801 0.96811 0.0
H1682 H 0.09373 0.68498 1.02594 0.0
C1683 C 0.12056 0.66008 0.92036 0.0
C1684 C 0.11742 0.68126 0.90917 0.0
H1685 H 0.11797 0.63237 0.97461 0.0
H1686 H 0.12925 0.65343 0.89272 0.0
C1687 C 0.10673 0.68942 0.94773 0.0
C1688 C 0.33694 0.42741 1.00067 0.0
C1689 C 0.35779 0.45225 1.01094 0.0
H1690 H 0.30819 0.4024 0.94608 0.0
C1691 C 0.3671 0.4697 0.96996 0.0
H1692 H 0.32878 0.41348 1.03116 0.0
C1693 C 0.35531 0.46347 0.92195 0.0
C1694 C 0.33382 0.43926 0.91174 0.0
H1695 H 0.38295 0.489 0.97566 0.0
H1696 H 0.36237 0.4784 0.8933 0.0
C1697 C 0.32508 0.42102 0.95169 0.0
C1698 C 0.14209 0.44967 0.45311 0.0
C1699 C 0.12339 0.43835 0.41464 0.0
H1700 H 0.15187 0.46586 0.52759 0.0
C1701 C 0.09798 0.43187 0.42739 0.0
H1702 H 0.16185 0.45496 0.44569 0.0
C1703 C 0.09203 0.43789 0.47615 0.0
C1704 C 0.11138 0.45062 0.51319 0.0
H1705 H 0.08299 0.42334 0.39902 0.0
H1706 H 0.07267 0.43385 0.48375 0.0
C1707 C 0.1363 0.45587 0.50078 0.0
C1708 C 0.58403 0.66811 0.42808 0.0
C1709 C 0.57975 0.6887 0.41659 0.0
H1710 H 0.57997 0.63945 0.48343 0.0
C1711 C 0.57061 0.69764 0.45637 0.0
H1712 H 0.59071 0.66034 0.39863 0.0
C1713 C 0.56433 0.68568 0.50422 0.0
C1714 C 0.56733 0.66442 0.51545 0.0
H1715 H 0.56697 0.71334 0.44982 0.0
H1716 H 0.55582 0.69248 0.53194 0.0
C1717 C 0.57788 0.6561 0.47691 0.0
C1718 C 0.33933 0.91495 0.49654 0.0
C1719 C 0.35941 0.90993 0.50833 0.0
H1720 H 0.31096 0.91147 0.44107 0.0
C1721 C 0.36772 0.89995 0.46896 0.0
H1722 H 0.33204 0.92229 0.52568 0.0
C1723 C 0.35561 0.89359 0.4213 0.0
C1724 C 0.33487 0.89737 0.40975 0.0
H1725 H 0.38301 0.89572 0.47573 0.0
H1726 H 0.36189 0.88443 0.39399 0.0
C1727 C 0.32721 0.90875 0.44783 0.0
C1728 C 0.34021 0.25549 1.01551 0.0
C1729 C 0.31683 0.24428 0.98898 0.0
H1730 H 0.3813 0.27545 1.01151 0.0
C1731 C 0.31811 0.24492 0.93503 0.0
H1732 H 0.3403 0.25556 0.05668 0.0
C1733 C 0.34175 0.25654 0.90867 0.0
C1734 C 0.36514 0.26787 0.93519 0.0
H1735 H 0.30066 0.23661 0.91267 0.0
H1736 H 0.34167 0.25677 0.8675 0.0
C1737 C 0.36386 0.26696 0.98914 0.0
C1738 C 0.74745 0.09906 0.98836 0.0
C1739 C 0.74684 0.09978 0.93444 0.0
H1740 H 0.75886 0.08679 0.05584 0.0
C1741 C 0.7586 0.0882 0.90785 0.0
H1742 H 0.73861 0.10765 1.01072 0.0
C1743 C 0.77042 0.07631 0.93416 0.0
C1744 C 0.7708 0.07537 0.98808 0.0
H1745 H 0.7586 0.08819 0.86668 0.0
H1746 H 0.7791 0.06756 0.91181 0.0
C1747 C 0.75912 0.08703 1.01467 0.0
C1748 C 0.93244 0.67127 1.01636 0.0
C1749 C 0.94333 0.69468 0.98989 0.0
H1750 H 0.91234 0.63019 1.01225 0.0
C1751 C 0.94166 0.6935 0.93601 0.0
H1752 H 0.93323 0.67114 0.05748 0.0
C1753 C 0.92972 0.66989 0.90962 0.0
C1754 C 0.91883 0.64649 0.93608 0.0
H1755 H 0.9498 0.71098 0.91374 0.0
H1756 H 0.92908 0.67003 0.86847 0.0
C1757 C 0.92038 0.64767 0.98997 0.0
C1758 C 0.27127 0.3606 0.60406 0.0
C1759 C 0.27242 0.36186 0.65799 0.0
H1760 H 0.25985 0.3371 0.53654 0.0
C1761 C 0.26161 0.33847 0.68452 0.0
H1762 H 0.27937 0.37806 0.58169 0.0
C1763 C 0.25024 0.31484 0.65817 0.0
C1764 C 0.24933 0.3136 0.60422 0.0
H1765 H 0.26206 0.33837 0.72568 0.0
H1766 H 0.2423 0.29739 0.68051 0.0
C1767 C 0.26003 0.33699 0.57771 0.0
C1768 C 0.67495 0.92774 0.57541 0.0
C1769 C 0.69842 0.93928 0.60163 0.0
H1770 H 0.63388 0.90686 0.57997 0.0
C1771 C 0.69737 0.93795 0.65555 0.0
H1772 H 0.67471 0.92823 0.53426 0.0
C1773 C 0.67383 0.92573 0.68222 0.0
C1774 C 0.65036 0.91419 0.656 0.0
H1775 H 0.71491 0.94659 0.67764 0.0
H1776 H 0.67407 0.92542 0.72338 0.0
C1777 C 0.65142 0.91538 0.60207 0.0
C1778 C 0.10323 0.74428 0.6012 0.0
C1779 C 0.1036 0.74336 0.65512 0.0
H1780 H 0.09126 0.75595 0.53366 0.0
C1781 C 0.09173 0.75484 0.68165 0.0
H1782 H 0.11206 0.73565 0.57889 0.0
C1783 C 0.07989 0.76668 0.65529 0.0
C1784 C 0.07928 0.76737 0.60137 0.0
H1785 H 0.09145 0.7546 0.72282 0.0
H1786 H 0.0709 0.77514 0.6776 0.0
C1787 C 0.09124 0.75596 0.57483 0.0
C1788 C 0.67658 0.74886 0.18356 0.0
C1789 C 0.65322 0.73798 0.15698 0.0
H1790 H 0.71767 0.76894 0.17966 0.0
C1791 C 0.65452 0.7397 0.1031 0.0
H1792 H 0.67663 0.74803 0.22469 0.0
C1793 C 0.67818 0.75167 0.07682 0.0
C1794 C 0.70154 0.76253 0.1034 0.0
H1795 H 0.63708 0.73159 0.08074 0.0
H1796 H 0.67813 0.75233 1.03568 0.0
C1797 C 0.70024 0.76093 0.15729 0.0
C1798 C 0.24982 0.9355 0.15571 0.0
C1799 C 0.24926 0.93631 0.10179 0.0
H1800 H 0.26193 0.9239 0.22316 0.0
C1801 C 0.26099 0.9247 0.07517 0.0
H1802 H 0.24111 0.94422 0.17811 0.0
C1803 C 0.27285 0.91285 0.10144 0.0
C1804 C 0.27363 0.91227 0.15536 0.0
H1805 H 0.26113 0.92485 1.03399 0.0
H1806 H 0.28172 0.90429 0.07905 0.0
C1807 C 0.26182 0.9238 0.18198 0.0
C1808 C 0.09618 0.3641 0.1004 0.0
C1809 C 0.09672 0.36497 0.15435 0.0
H1810 H 0.08454 0.34101 1.03234 0.0
C1811 C 0.08522 0.34143 0.18036 0.0
H1812 H 0.10473 0.38171 0.07848 0.0
C1813 C 0.07371 0.31798 0.15348 0.0
C1814 C 0.07309 0.31711 0.09953 0.0
H1815 H 0.08512 0.34107 0.22153 0.0
H1816 H 0.0651 0.30038 0.17541 0.0
C1817 C 0.08454 0.34065 0.0735 0.0
C1818 C 0.76679 0.69755 0.43504 0.0
C1819 C 0.768 0.69864 0.48897 0.0
H1820 H 0.75396 0.67421 0.36736 0.0
C1821 C 0.75654 0.67519 0.51531 0.0
H1822 H 0.77525 0.71507 0.41285 0.0
C1823 C 0.74437 0.65163 0.48876 0.0
C1824 C 0.74301 0.65054 0.43484 0.0
H1825 H 0.75687 0.67498 0.55647 0.0
H1826 H 0.73578 0.6341 0.51094 0.0
C1827 C 0.75448 0.674 0.40851 0.0
C1828 C 0.32319 0.07465 0.43749 0.0
C1829 C 0.32178 0.07285 0.49135 0.0
H1830 H 0.34692 0.08717 0.37024 0.0
C1831 C 0.34507 0.08349 0.5181 0.0
H1832 H 0.3058 0.06671 0.41499 0.0
C1833 C 0.36878 0.09541 0.49201 0.0
C1834 C 0.37019 0.09707 0.43814 0.0
H1835 H 0.34504 0.0826 0.55923 0.0
H1836 H 0.38617 0.10324 0.51449 0.0
C1837 C 0.34689 0.08644 0.41139 0.0
C1838 C 0.9202 0.27256 0.48819 0.0
C1839 C 0.92041 0.27407 0.43432 0.0
H1840 H 0.93098 0.25966 0.55562 0.0
C1841 C 0.93229 0.26262 0.40771 0.0
H1842 H 0.91134 0.28114 0.51052 0.0
C1843 C 0.94344 0.25009 0.43396 0.0
C1844 C 0.94331 0.24865 0.48784 0.0
H1845 H 0.93293 0.26325 0.36656 0.0
H1846 H 0.95237 0.24158 0.41162 0.0
C1847 C 0.9315 0.26018 0.51446 0.0
C1848 C 0.03037 0.60504 0.32154 0.0
C1849 C 0.03149 0.60654 0.26763 0.0
H1850 H 1.00698 0.5924 0.38924 0.0
C1851 C 1.00806 0.59524 0.24131 0.0
H1852 H 0.04788 0.6135 0.34371 0.0
C1853 C 0.98449 0.58294 0.26784 0.0
C1854 C 0.98336 0.58156 0.32175 0.0
H1855 H 1.00787 0.59587 0.20016 0.0
H1856 H 0.96698 0.57459 0.24566 0.0
C1857 C 1.0068 0.59287 0.34809 0.0
C1858 C 0.42084 0.41947 0.24369 0.0
C1859 C 0.40887 0.43066 0.27095 0.0
H1860 H 0.44188 0.39934 0.24641 0.0
C1861 C 0.40971 0.42971 0.32484 0.0
H1862 H 0.42071 0.41964 0.20252 0.0
C1863 C 0.42182 0.4179 0.35044 0.0
C1864 C 0.43371 0.40663 0.32319 0.0
H1865 H 0.40075 0.438 0.34773 0.0
H1866 H 0.42175 0.41752 0.39161 0.0
C1867 C 0.43305 0.40776 0.2693 0.0
C1868 C 0.61016 0.02794 0.26895 0.0
C1869 C 0.61208 0.02941 0.3228 0.0
H1870 H 0.59717 1.00411 0.20191 0.0
C1871 C 0.60116 0.00614 0.34973 0.0
H1872 H 0.6183 0.0453 0.24631 0.0
C1873 C 0.58886 0.98239 0.32384 0.0
C1874 C 0.58707 0.98091 0.26998 0.0
H1875 H 0.60212 0.00621 0.39085 0.0
H1876 H 0.58083 0.96502 0.34647 0.0
C1877 C 0.59797 1.00419 0.24305 0.0
C1878 C 0.42373 0.00704 0.84988 0.0
C1879 C 0.43558 0.03068 0.82418 0.0
H1880 H 0.40256 0.966 0.84437 0.0
C1881 C 0.43462 0.02998 0.77023 0.0
H1882 H 0.42386 0.00654 0.89104 0.0
C1883 C 0.42218 0.00663 0.74304 0.0
C1884 C 0.41033 0.983 0.76873 0.0
H1885 H 0.44338 0.04765 0.74852 0.0
H1886 H 0.42187 0.00714 0.70189 0.0
C1887 C 0.41144 0.98369 0.82268 0.0
C1888 C 0.00981 0.41732 0.84757 0.0
C1889 C 0.98637 0.40597 0.82131 0.0
H1890 H 0.05087 0.43821 0.84305 0.0
C1891 C 0.98737 0.40754 0.76744 0.0
H1892 H 0.01004 0.41664 0.88871 0.0
C1893 C 0.01089 0.41986 0.74081 0.0
C1894 C 0.03434 0.43127 0.76709 0.0
H1895 H 0.96982 0.39903 0.74538 0.0
H1896 H 0.01067 0.4204 0.69967 0.0
C1897 C 0.03333 0.4298 0.82097 0.0
C1898 C 0.59314 0.59021 0.74237 0.0
C1899 C 0.58165 0.60204 0.76902 0.0
H1900 H 0.61357 0.5695 0.74622 0.0
C1901 C 0.58229 0.60131 0.82294 0.0
H1902 H 0.59321 0.59029 0.7012 0.0
C1903 C 0.59418 0.58948 0.84919 0.0
C1904 C 0.60576 0.57773 0.82254 0.0
H1905 H 0.57377 0.6102 0.84535 0.0
H1906 H 0.59439 0.58967 0.89036 0.0
C1907 C 0.60488 0.57822 0.76862 0.0
C1908 C 0.31618 0.35025 0.14304 0.0
C1909 C 0.3013 0.36129 0.15645 0.0
H1910 H 0.31757 0.32006 0.10341 0.0
C1911 C 0.27586 0.35028 0.13946 0.0
H1912 H 0.3359 0.35865 0.1557 0.0
C1913 C 0.26549 0.32842 0.10894 0.0
C1914 C 0.28048 0.3174 0.09585 0.0
H1915 H 0.26434 0.35893 0.14878 0.0
H1916 H 0.24569 0.31972 0.09673 0.0
C1917 C 0.30585 0.32848 0.113 0.0
C1918 C 0.66507 0.96797 0.13464 0.0
C1919 C 0.65457 0.94236 0.1501 0.0
H1920 H 0.69518 0.99937 0.09432 0.0
C1921 C 0.66623 0.92819 0.13534 0.0
H1922 H 0.65627 0.97915 0.14567 0.0
C1923 C 0.68833 0.9397 0.10539 0.0
C1924 C 0.69892 0.96545 0.09065 0.0
H1925 H 0.65803 0.90825 0.14626 0.0
H1926 H 0.69762 0.92887 0.0952 0.0
C1927 C 0.68706 0.97941 0.10516 0.0
C1928 C 0.09038 0.73126 0.10104 0.0
C1929 C 0.08918 0.72902 0.15433 0.0
H1930 H 0.07763 0.74239 1.03484 0.0
C1931 C 0.07906 0.74164 0.18246 0.0
H1932 H 0.09895 0.7224 0.07871 0.0
C1933 C 0.06732 0.75346 0.15737 0.0
C1934 C 0.06546 0.75261 0.10403 0.0
H1935 H 0.07824 0.74047 0.22355 0.0
H1936 H 0.05815 0.7617 0.17971 0.0
C1937 C 0.0785 0.74293 0.07596 0.0
C1938 C 0.33205 0.26129 0.4773 0.0
C1939 C 0.32048 0.27579 0.49021 0.0
H1940 H 0.36351 0.26122 0.43898 0.0
C1941 C 0.33137 0.30129 0.47387 0.0
H1942 H 0.32355 0.24142 0.48896 0.0
C1943 C 0.35359 0.31228 0.44509 0.0
C1944 C 0.36526 0.29794 0.43215 0.0
H1945 H 0.3226 0.31269 0.48345 0.0
H1946 H 0.36191 0.33212 0.43327 0.0
C1947 C 0.35437 0.27233 0.44801 0.0
C1948 C 0.75828 0.06466 0.43407 0.0
C1949 C 0.75697 0.06253 0.48738 0.0
H1950 H 0.74604 0.07613 0.36759 0.0
C1951 C 0.7474 0.07573 0.51522 0.0
H1952 H 0.76649 0.05539 0.41192 0.0
C1953 C 0.73621 0.08802 0.48986 0.0
C1954 C 0.73433 0.08703 0.43652 0.0
H1955 H 0.74653 0.07468 0.55632 0.0
H1956 H 0.72738 0.09669 0.51199 0.0
C1957 C 0.74692 0.07678 0.4087 0.0
C1958 C 0.93251 0.6626 0.45087 0.0
C1959 C 0.94674 0.65109 0.43559 0.0
H1960 H 0.93307 0.69375 0.49169 0.0
C1961 C 0.97249 0.66186 0.45014 0.0
H1962 H 0.91247 0.65419 0.44065 0.0
C1963 C 0.98397 0.68389 0.47953 0.0
C1964 C 0.96987 0.69546 0.49498 0.0
H1965 H 0.98368 0.65312 0.43878 0.0
H1966 H 1.00398 0.69211 0.48994 0.0
C1967 C 0.94403 0.68469 0.4808 0.0
C1968 C 0.71341 0.68373 0.96824 0.0
C1969 C 0.73906 0.69417 0.98327 0.0
H1970 H 0.68183 0.65368 0.92829 0.0
C1971 C 0.75312 0.68246 0.96812 0.0
H1972 H 0.70233 0.6926 0.97956 0.0
C1973 C 0.74147 0.66039 0.93818 0.0
C1974 C 0.71568 0.64987 0.92386 0.0
H1975 H 0.77309 0.6906 0.97871 0.0
H1976 H 0.75222 0.65106 0.92766 0.0
C1977 C 0.70182 0.66175 0.9388 0.0
C1978 C 0.35398 0.08165 0.95085 0.0
C1979 C 0.36532 0.06709 0.93674 0.0
H1980 H 0.32292 0.08178 0.99071 0.0
C1981 C 0.35438 0.04149 0.95253 0.0
H1982 H 0.36253 0.10159 0.93967 0.0
C1983 C 0.33234 0.03048 0.98193 0.0
C1984 C 0.32092 0.04489 0.99614 0.0
H1985 H 0.36301 0.03007 0.9421 0.0
H1986 H 0.32396 0.01056 0.99325 0.0
C1987 C 0.33187 0.0706 0.98079 0.0
C1988 C 0.93876 0.26846 1.00737 0.0
C1989 C 0.95329 0.26037 0.97964 0.0
H1990 H 0.91685 0.2875 1.00461 0.0
C1991 C 0.95284 0.26096 0.92617 0.0
H1992 H 0.93853 0.26792 0.04851 0.0
C1993 C 0.94073 0.27245 0.90108 0.0
C1994 C 0.92888 0.28335 0.92928 0.0
H1995 H 0.96316 0.25394 0.9039 0.0
H1996 H 0.94251 0.27471 0.86018 0.0
C1997 C 0.92657 0.27982 0.98228 0.0
C1998 C 0.68693 0.70858 0.61617 0.0
C1999 C 0.69759 0.73429 0.60142 0.0
H2000 H 0.65705 0.67721 0.657 0.0
C2001 C 0.68624 0.74859 0.61726 0.0
H2002 H 0.69559 0.69737 0.60442 0.0
C2003 C 0.66443 0.73717 0.64799 0.0
C2004 C 0.65379 0.71137 0.66244 0.0
H2005 H 0.69461 0.76862 0.60692 0.0
H2006 H 0.65547 0.74816 0.65931 0.0
C2007 C 0.66519 0.6972 0.6464 0.0
C2008 C 0.28616 0.92659 0.60124 0.0
C2009 C 0.28827 0.92761 0.65454 0.0
H2010 H 0.27497 0.93937 0.53514 0.0
C2011 C 0.27556 0.9376 0.68275 0.0
H2012 H 0.2951 0.91813 0.57882 0.0
C2013 C 0.26366 0.94929 0.65777 0.0
C2014 C 0.26452 0.95124 0.60443 0.0
H2015 H 0.27663 0.93828 0.72385 0.0
H2016 H 0.25528 0.95831 0.68019 0.0
C2017 C 0.2744 0.93842 0.57626 0.0
C2018 C 0.0758 0.32821 0.61271 0.0
C2019 C 0.05021 0.31723 0.59667 0.0
H2020 H 0.1065 0.35895 0.65414 0.0
C2021 C 0.03569 0.32867 0.60997 0.0
H2022 H 0.08706 0.31926 0.60345 0.0
C2023 C 0.04648 0.35074 0.63921 0.0
C2024 C 0.07197 0.36173 0.65568 0.0
H2025 H 0.01587 0.32031 0.59806 0.0
H2026 H 0.03495 0.35934 0.64899 0.0
C2027 C 0.08663 0.35037 0.64244 0.0
C2028 C 0.02117 0.60732 0.77115 0.0
C2029 C 0.03164 0.63318 0.7573 0.0
H2030 H 0.99095 0.57545 0.81126 0.0
C2031 C 0.01971 0.64693 0.77274 0.0
H2032 H 0.03054 0.59666 0.76024 0.0
C2033 C 0.99771 0.63514 0.80214 0.0
C2034 C 0.9873 0.60941 0.81663 0.0
H2035 H 0.02774 0.66696 0.76259 0.0
H2036 H 0.98878 0.64612 0.81378 0.0
C2037 C 0.99908 0.59548 0.80106 0.0
C2038 C 0.41618 0.40174 0.81328 0.0
C2039 C 0.40128 0.37607 0.82865 0.0
H2040 H 0.41694 0.43264 0.7708 0.0
C2041 C 0.37575 0.36152 0.81267 0.0
H2042 H 0.43612 0.413 0.82452 0.0
C2043 C 0.36516 0.37237 0.7815 0.0
C2044 C 0.37992 0.39797 0.76593 0.0
H2045 H 0.36413 0.34161 0.82396 0.0
H2046 H 0.3453 0.36089 0.76986 0.0
C2047 C 0.40553 0.41266 0.78173 0.0
C2048 C 0.61181 0.01792 0.81243 0.0
C2049 C 0.63768 0.02867 0.82636 0.0
H2050 H 0.58018 0.98745 0.77235 0.0
C2051 C 0.65182 0.01724 0.8103 0.0
H2052 H 0.60083 0.02688 0.82379 0.0
C2053 C 0.64033 0.99533 0.78065 0.0
C2054 C 0.61453 0.98452 0.76649 0.0
H2055 H 0.67185 0.02544 0.82055 0.0
H2056 H 0.6515 0.98661 0.76895 0.0
C2057 C 0.60028 0.99593 0.78226 0.0
C2058 C 0.42149 0.01662 0.30384 0.0
C2059 C 0.40749 0.0283 0.31964 0.0
H2060 H 0.42043 0.98527 0.26291 0.0
C2061 C 0.38168 0.01768 0.30566 0.0
H2062 H 0.44158 0.0249 0.31363 0.0
C2063 C 0.3699 0.99561 0.27646 0.0
C2064 C 0.38374 0.98382 0.26065 0.0
H2065 H 0.37065 0.02652 0.31748 0.0
H2066 H 0.34983 0.98749 0.26657 0.0
C2067 C 0.40966 0.99448 0.27411 0.0
C2068 C 0.00965 0.41074 0.24756 0.0
C2069 C 0.03234 0.41943 0.27544 0.0
H2070 H 0.96871 0.39105 0.25012 0.0
C2071 C 0.03131 0.4189 0.32891 0.0
H2072 H 0.00994 0.41116 0.20641 0.0
C2073 C 1.00773 0.40717 0.35391 0.0
C2074 C 0.98498 0.3959 0.32563 0.0
H2075 H 0.04868 0.4263 0.35126 0.0
H2076 H 1.00729 0.40514 0.39486 0.0
C2077 C 0.98612 0.39908 0.27254 0.0
C2078 C 0.59539 0.6146 0.32472 0.0
C2079 C 0.59616 0.61649 0.27138 0.0
H2080 H 0.60869 0.60395 0.39077 0.0
C2081 C 0.60624 0.60386 0.24319 0.0
H2082 H 0.58687 0.62349 0.34713 0.0
C2083 C 0.61827 0.5923 0.26816 0.0
C2084 C 0.62047 0.59342 0.32145 0.0
H2085 H 0.60674 0.60478 0.20207 0.0
H2086 H 0.62734 0.58398 0.24571 0.0
C2087 C 0.60756 0.60319 0.34968 0.0
loop_
_geom_bond_atom_site_label_1
_geom_bond_atom_site_label_2
_geom_bond_distance
_geom_bond_site_symmetry_2
_ccdc_geom_bond_type
C0 C1 1.351 . S
C0 N3 1.368 . S
C0 H5 0.931 1_554 S
C1 C0 1.351 . S
C1 N2 1.373 . S
C1 H29 0.930 . S
N2 C1 1.373 . S
N2 C4 1.340 . S
N3 C0 1.368 . S
N3 C4 1.321 . S
N3 Co6 2.135 . S
C4 N2 1.340 . S
C4 N3 1.321 . S
C4 H28 0.930 . S
H5 C0 0.931 1_556 S
Co6 N3 2.135 . S
Co6 N9 2.121 . S
Co6 O14 2.055 . S
Co6 O17 2.039 . S
Co6 N20 2.140 . S
C7 O8 1.227 . S
C7 O17 1.265 . S
O8 C7 1.227 . S
N9 Co6 2.121 . S
N9 C11 1.375 . S
N9 C12 1.313 . S
C10 C11 1.338 . S
C10 N13 1.377 . S
C10 H30 0.930 . S
C11 N9 1.375 . S
C11 C10 1.338 . S
C11 H15 0.931 . S
C12 N9 1.313 . S
C12 N13 1.344 . S
C12 H16 0.930 1_554 S
N13 C10 1.377 . S
N13 C12 1.344 . S
O14 Co6 2.055 . S
O14 C18 1.253 1_554 S
H15 C11 0.931 . S
H16 C12 0.930 1_556 S
O17 Co6 2.039 . S
O17 C7 1.265 . S
C18 O14 1.253 1_556 S
C18 O19 1.227 . S
O19 C18 1.227 . S
N20 Co6 2.140 . S
N20 C23 1.346 . S
N20 C24 1.345 1_554 S
C21 C22 1.387 1_556 S
C21 C25 1.391 . S
C22 C21 1.387 1_554 S
C22 C23 1.369 . S
C22 H31 0.929 . S
C23 N20 1.346 . S
C23 C22 1.369 . S
C23 H26 0.928 . S
C24 N20 1.345 1_556 S
C24 C25 1.371 . S
C24 H27 0.931 . S
C25 C21 1.391 . S
C25 C24 1.371 . S
C25 H32 0.930 . S
H26 C23 0.928 . S
H27 C24 0.931 . S
H28 C4 0.930 . S
H29 C1 0.930 . S
H30 C10 0.930 . S
H31 C22 0.929 . S
H32 C25 0.930 . S
C33 C34 1.351 . S
C33 N36 1.368 . S
C33 H38 0.931 1_554 S
C34 C33 1.351 . S
C34 N35 1.373 . S
C34 H62 0.930 . S
N35 C34 1.373 . S
N35 C37 1.340 . S
N36 C33 1.368 . S
N36 C37 1.321 . S
N36 Co39 2.135 1_565 S
C37 N35 1.340 . S
C37 N36 1.321 . S
C37 H61 0.930 . S
H38 C33 0.931 1_556 S
Co39 N36 2.135 1_545 S
Co39 N42 2.121 . S
Co39 O47 2.055 . S
Co39 O50 2.039 . S
Co39 N53 2.140 1_545 S
C40 O41 1.227 1_545 S
C40 O50 1.265 . S
O41 C40 1.227 1_565 S
N42 Co39 2.121 . S
N42 C44 1.375 . S
N42 C45 1.313 . S
C43 C44 1.338 . S
C43 N46 1.377 . S
C43 H63 0.930 . S
C44 N42 1.375 . S
C44 C43 1.338 . S
C44 H48 0.931 . S
C45 N42 1.313 . S
C45 N46 1.344 . S
C45 H49 0.930 1_554 S
N46 C43 1.377 . S
N46 C45 1.344 . S
O47 Co39 2.055 . S
O47 C51 1.253 1_554 S
H48 C44 0.931 . S
H49 C45 0.930 1_556 S
O50 Co39 2.039 . S
O50 C40 1.265 . S
C51 O47 1.253 1_556 S
C51 O52 1.227 . S
O52 C51 1.227 . S
N53 Co39 2.140 1_565 S
N53 C56 1.346 . S
N53 C57 1.345 1_554 S
C54 C55 1.387 1_556 S
C54 C58 1.391 . S
C55 C54 1.387 1_554 S
C55 C56 1.369 . S
C55 H64 0.929 . S
C56 N53 1.346 . S
C56 C55 1.369 . S
C56 H59 0.928 . S
C57 N53 1.345 1_556 S
C57 C58 1.371 . S
C57 H60 0.931 1_565 S
C58 C54 1.391 . S
C58 C57 1.371 . S
C58 H65 0.930 . S
H59 C56 0.928 . S
H60 C57 0.931 1_545 S
H61 C37 0.930 . S
H62 C34 0.930 . S
H63 C43 0.930 . S
H64 C55 0.929 . S
H65 C58 0.930 . S
C66 C67 1.351 . S
C66 N69 1.368 . S
C66 H71 0.931 1_554 S
C67 C66 1.351 . S
C67 N68 1.373 . S
C67 H95 0.930 . S
N68 C67 1.373 . S
N68 C70 1.340 . S
N69 C66 1.368 . S
N69 C70 1.321 . S
N69 Co72 2.135 1_455 S
C70 N68 1.340 . S
C70 N69 1.321 . S
C70 H94 0.930 . S
H71 C66 0.931 1_556 S
Co72 N69 2.135 1_655 S
Co72 N75 2.121 . S
Co72 O80 2.055 . S
Co72 O83 2.039 . S
Co72 N86 2.140 1_655 S
C73 O74 1.227 1_655 S
C73 O83 1.265 . S
O74 C73 1.227 1_455 S
N75 Co72 2.121 . S
N75 C77 1.375 . S
N75 C78 1.313 . S
C76 C77 1.338 . S
C76 N79 1.377 . S
C76 H96 0.930 . S
C77 N75 1.375 . S
C77 C76 1.338 . S
C77 H81 0.931 . S
C78 N75 1.313 . S
C78 N79 1.344 . S
C78 H82 0.930 1_554 S
N79 C76 1.377 . S
N79 C78 1.344 . S
O80 Co72 2.055 . S
O80 C84 1.253 1_554 S
H81 C77 0.931 . S
H82 C78 0.930 1_556 S
O83 Co72 2.039 . S
O83 C73 1.265 . S
C84 O80 1.253 1_556 S
C84 O85 1.227 . S
O85 C84 1.227 . S
N86 Co72 2.140 1_455 S
N86 C89 1.346 . S
N86 C90 1.345 1_554 S
C87 C88 1.387 1_556 S
C87 C91 1.391 . S
C88 C87 1.387 1_554 S
C88 C89 1.369 . S
C88 H97 0.929 . S
C89 N86 1.346 . S
C89 C88 1.369 . S
C89 H92 0.928 . S
C90 N86 1.345 1_556 S
C90 C91 1.371 . S
C90 H93 0.931 1_455 S
C91 C87 1.391 . S
C91 C90 1.371 . S
C91 H98 0.930 . S
H92 C89 0.928 . S
H93 C90 0.931 1_655 S
H94 C70 0.930 . S
H95 C67 0.930 . S
H96 C76 0.930 . S
H97 C88 0.929 . S
H98 C91 0.930 . S
C99 C100 1.351 . S
C99 N102 1.368 . S
C99 H104 0.931 . S
C100 C99 1.351 . S
C100 N101 1.373 . S
C100 H128 0.930 . S
N101 C100 1.373 . S
N101 C103 1.340 . S
N102 C99 1.368 . S
N102 C103 1.321 . S
N102 Co105 2.135 . S
C103 N101 1.340 . S
C103 N102 1.321 . S
C103 H127 0.930 . S
H104 C99 0.931 . S
Co105 N102 2.135 . S
Co105 N108 2.121 . S
Co105 O113 2.055 . S
Co105 O116 2.039 . S
Co105 N119 2.140 . S
C106 O107 1.227 . S
C106 O116 1.265 . S
O107 C106 1.227 . S
N108 Co105 2.121 . S
N108 C110 1.375 . S
N108 C111 1.313 . S
C109 C110 1.338 . S
C109 N112 1.377 . S
C109 H129 0.930 . S
C110 N108 1.375 . S
C110 C109 1.338 . S
C110 H114 0.931 . S
C111 N108 1.313 . S
C111 N112 1.344 . S
C111 H115 0.930 . S
N112 C109 1.377 . S
N112 C111 1.344 . S
O113 Co105 2.055 . S
O113 C117 1.253 . S
H114 C110 0.931 . S
H115 C111 0.930 . S
O116 Co105 2.039 . S
O116 C106 1.265 . S
C117 O113 1.253 . S
C117 O118 1.227 . S
O118 C117 1.227 . S
N119 Co105 2.140 . S
N119 C122 1.346 . S
N119 C123 1.345 . S
C120 C121 1.387 . S
C120 C124 1.391 . S
C121 C120 1.387 . S
C121 C122 1.369 . S
C121 H130 0.929 . S
C122 N119 1.346 . S
C122 C121 1.369 . S
C122 H125 0.928 . S
C123 N119 1.345 . S
C123 C124 1.371 . S
C123 H126 0.931 . S
C124 C120 1.391 . S
C124 C123 1.371 . S
C124 H131 0.930 . S
H125 C122 0.928 . S
H126 C123 0.931 . S
H127 C103 0.930 . S
H128 C100 0.930 . S
H129 C109 0.930 . S
H130 C121 0.929 . S
H131 C124 0.930 . S
C132 C133 1.351 . S
C132 N135 1.368 . S
C132 H137 0.931 . S
C133 C132 1.351 . S
C133 N134 1.373 . S
C133 H161 0.930 . S
N134 C133 1.373 . S
N134 C136 1.340 . S
N135 C132 1.368 . S
N135 C136 1.321 . S
N135 Co138 2.135 1_545 S
C136 N134 1.340 . S
C136 N135 1.321 . S
C136 H160 0.930 . S
H137 C132 0.931 . S
Co138 N135 2.135 1_565 S
Co138 N141 2.121 . S
Co138 O146 2.055 . S
Co138 O149 2.039 . S
Co138 N152 2.140 1_565 S
C139 O140 1.227 1_565 S
C139 O149 1.265 . S
O140 C139 1.227 1_545 S
N141 Co138 2.121 . S
N141 C143 1.375 . S
N141 C144 1.313 . S
C142 C143 1.338 . S
C142 N145 1.377 . S
C142 H162 0.930 . S
C143 N141 1.375 . S
C143 C142 1.338 . S
C143 H147 0.931 . S
C144 N141 1.313 . S
C144 N145 1.344 . S
C144 H148 0.930 . S
N145 C142 1.377 . S
N145 C144 1.344 . S
O146 Co138 2.055 . S
O146 C150 1.253 . S
H147 C143 0.931 . S
H148 C144 0.930 . S
O149 Co138 2.039 . S
O149 C139 1.265 . S
C150 O146 1.253 . S
C150 O151 1.227 . S
O151 C150 1.227 . S
N152 Co138 2.140 1_545 S
N152 C155 1.346 . S
N152 C156 1.345 . S
C153 C154 1.387 . S
C153 C157 1.391 . S
C154 C153 1.387 . S
C154 C155 1.369 . S
C154 H163 0.929 . S
C155 N152 1.346 . S
C155 C154 1.369 . S
C155 H158 0.928 . S
C156 N152 1.345 . S
C156 C157 1.371 . S
C156 H159 0.931 1_545 S
C157 C153 1.391 . S
C157 C156 1.371 . S
C157 H164 0.930 . S
H158 C155 0.928 . S
H159 C156 0.931 1_565 S
H160 C136 0.930 . S
H161 C133 0.930 . S
H162 C142 0.930 . S
H163 C154 0.929 . S
H164 C157 0.930 . S
C165 C166 1.351 . S
C165 N168 1.368 . S
C165 H170 0.931 . S
C166 C165 1.351 . S
C166 N167 1.373 . S
C166 H194 0.930 . S
N167 C166 1.373 . S
N167 C169 1.340 . S
N168 C165 1.368 . S
N168 C169 1.321 . S
N168 Co171 2.135 1_655 S
C169 N167 1.340 . S
C169 N168 1.321 . S
C169 H193 0.930 . S
H170 C165 0.931 . S
Co171 N168 2.135 1_455 S
Co171 N174 2.121 . S
Co171 O179 2.055 . S
Co171 O182 2.039 . S
Co171 N185 2.140 1_455 S
C172 O173 1.227 1_455 S
C172 O182 1.265 . S
O173 C172 1.227 1_655 S
N174 Co171 2.121 . S
N174 C176 1.375 . S
N174 C177 1.313 . S
C175 C176 1.338 . S
C175 N178 1.377 . S
C175 H195 0.930 . S
C176 N174 1.375 . S
C176 C175 1.338 . S
C176 H180 0.931 . S
C177 N174 1.313 . S
C177 N178 1.344 . S
C177 H181 0.930 . S
N178 C175 1.377 . S
N178 C177 1.344 . S
O179 Co171 2.055 . S
O179 C183 1.253 . S
H180 C176 0.931 . S
H181 C177 0.930 . S
O182 Co171 2.039 . S
O182 C172 1.265 . S
C183 O179 1.253 . S
C183 O184 1.227 . S
O184 C183 1.227 . S
N185 Co171 2.140 1_655 S
N185 C188 1.346 . S
N185 C189 1.345 . S
C186 C187 1.387 . S
C186 C190 1.391 . S
C187 C186 1.387 . S
C187 C188 1.369 . S
C187 H196 0.929 . S
C188 N185 1.346 . S
C188 C187 1.369 . S
C188 H191 0.928 . S
C189 N185 1.345 . S
C189 C190 1.371 . S
C189 H192 0.931 1_655 S
C190 C186 1.391 . S
C190 C189 1.371 . S
C190 H197 0.930 . S
H191 C188 0.928 . S
H192 C189 0.931 1_455 S
H193 C169 0.930 . S
H194 C166 0.930 . S
H195 C175 0.930 . S
H196 C187 0.929 . S
H197 C190 0.930 . S
C198 C199 1.351 . S
C198 N201 1.368 . S
C198 H203 0.931 1_556 S
C199 C198 1.351 . S
C199 N200 1.373 . S
C199 H227 0.930 . S
N200 C199 1.373 . S
N200 C202 1.340 . S
N201 C198 1.368 . S
N201 C202 1.321 . S
N201 Co204 2.135 . S
C202 N200 1.340 . S
C202 N201 1.321 . S
C202 H226 0.930 . S
H203 C198 0.931 1_554 S
Co204 N201 2.135 . S
Co204 N207 2.121 . S
Co204 O212 2.055 . S
Co204 O215 2.039 . S
Co204 N218 2.140 . S
C205 O206 1.227 . S
C205 O215 1.265 . S
O206 C205 1.227 . S
N207 Co204 2.121 . S
N207 C209 1.375 . S
N207 C210 1.313 . S
C208 C209 1.338 . S
C208 N211 1.377 . S
C208 H228 0.930 . S
C209 N207 1.375 . S
C209 C208 1.338 . S
C209 H213 0.931 . S
C210 N207 1.313 . S
C210 N211 1.344 . S
C210 H214 0.930 1_556 S
N211 C208 1.377 . S
N211 C210 1.344 . S
O212 Co204 2.055 . S
O212 C216 1.253 1_556 S
H213 C209 0.931 . S
H214 C210 0.930 1_554 S
O215 Co204 2.039 . S
O215 C205 1.265 . S
C216 O212 1.253 1_554 S
C216 O217 1.227 . S
O217 C216 1.227 . S
N218 Co204 2.140 . S
N218 C221 1.346 . S
N218 C222 1.345 1_556 S
C219 C220 1.387 1_554 S
C219 C223 1.391 . S
C220 C219 1.387 1_556 S
C220 C221 1.369 . S
C220 H229 0.929 . S
C221 N218 1.346 . S
C221 C220 1.369 . S
C221 H224 0.928 . S
C222 N218 1.345 1_554 S
C222 C223 1.371 . S
C222 H225 0.931 . S
C223 C219 1.391 . S
C223 C222 1.371 . S
C223 H230 0.930 . S
H224 C221 0.928 . S
H225 C222 0.931 . S
H226 C202 0.930 . S
H227 C199 0.930 . S
H228 C208 0.930 . S
H229 C220 0.929 . S
H230 C223 0.930 . S
C231 C232 1.351 . S
C231 N234 1.368 . S
C231 H236 0.931 1_556 S
C232 C231 1.351 . S
C232 N233 1.373 . S
C232 H260 0.930 . S
N233 C232 1.373 . S
N233 C235 1.340 . S
N234 C231 1.368 . S
N234 C235 1.321 . S
N234 Co237 2.135 1_545 S
C235 N233 1.340 . S
C235 N234 1.321 . S
C235 H259 0.930 . S
H236 C231 0.931 1_554 S
Co237 N234 2.135 1_565 S
Co237 N240 2.121 . S
Co237 O245 2.055 . S
Co237 O248 2.039 . S
Co237 N251 2.140 1_565 S
C238 O239 1.227 1_565 S
C238 O248 1.265 . S
O239 C238 1.227 1_545 S
N240 Co237 2.121 . S
N240 C242 1.375 . S
N240 C243 1.313 . S
C241 C242 1.338 . S
C241 N244 1.377 . S
C241 H261 0.930 . S
C242 N240 1.375 . S
C242 C241 1.338 . S
C242 H246 0.931 . S
C243 N240 1.313 . S
C243 N244 1.344 . S
C243 H247 0.930 1_556 S
N244 C241 1.377 . S
N244 C243 1.344 . S
O245 Co237 2.055 . S
O245 C249 1.253 1_556 S
H246 C242 0.931 . S
H247 C243 0.930 1_554 S
O248 Co237 2.039 . S
O248 C238 1.265 . S
C249 O245 1.253 1_554 S
C249 O250 1.227 . S
O250 C249 1.227 . S
N251 Co237 2.140 1_545 S
N251 C254 1.346 . S
N251 C255 1.345 1_556 S
C252 C253 1.387 1_554 S
C252 C256 1.391 . S
C253 C252 1.387 1_556 S
C253 C254 1.369 . S
C253 H262 0.929 . S
C254 N251 1.346 . S
C254 C253 1.369 . S
C254 H257 0.928 . S
C255 N251 1.345 1_554 S
C255 C256 1.371 . S
C255 H258 0.931 1_545 S
C256 C252 1.391 . S
C256 C255 1.371 . S
C256 H263 0.930 . S
H257 C254 0.928 . S
H258 C255 0.931 1_565 S
H259 C235 0.930 . S
H260 C232 0.930 . S
H261 C241 0.930 . S
H262 C253 0.929 . S
H263 C256 0.930 . S
C264 C265 1.351 . S
C264 N267 1.368 . S
C264 H269 0.931 1_556 S
C265 C264 1.351 . S
C265 N266 1.373 . S
C265 H293 0.930 . S
N266 C265 1.373 . S
N266 C268 1.340 . S
N267 C264 1.368 . S
N267 C268 1.321 . S
N267 Co270 2.135 1_655 S
C268 N266 1.340 . S
C268 N267 1.321 . S
C268 H292 0.930 . S
H269 C264 0.931 1_554 S
Co270 N267 2.135 1_455 S
Co270 N273 2.121 . S
Co270 O278 2.055 . S
Co270 O281 2.039 . S
Co270 N284 2.140 1_455 S
C271 O272 1.227 1_455 S
C271 O281 1.265 . S
O272 C271 1.227 1_655 S
N273 Co270 2.121 . S
N273 C275 1.375 . S
N273 C276 1.313 . S
C274 C275 1.338 . S
C274 N277 1.377 . S
C274 H294 0.930 . S
C275 N273 1.375 . S
C275 C274 1.338 . S
C275 H279 0.931 . S
C276 N273 1.313 . S
C276 N277 1.344 . S
C276 H280 0.930 1_556 S
N277 C274 1.377 . S
N277 C276 1.344 . S
O278 Co270 2.055 . S
O278 C282 1.253 1_556 S
H279 C275 0.931 . S
H280 C276 0.930 1_554 S
O281 Co270 2.039 . S
O281 C271 1.265 . S
C282 O278 1.253 1_554 S
C282 O283 1.227 . S
O283 C282 1.227 . S
N284 Co270 2.140 1_655 S
N284 C287 1.346 . S
N284 C288 1.345 1_556 S
C285 C286 1.387 1_554 S
C285 C289 1.391 . S
C286 C285 1.387 1_556 S
C286 C287 1.369 . S
C286 H295 0.929 . S
C287 N284 1.346 . S
C287 C286 1.369 . S
C287 H290 0.928 . S
C288 N284 1.345 1_554 S
C288 C289 1.371 . S
C288 H291 0.931 1_655 S
C289 C285 1.391 . S
C289 C288 1.371 . S
C289 H296 0.930 . S
H290 C287 0.928 . S
H291 C288 0.931 1_455 S
H292 C268 0.930 . S
H293 C265 0.930 . S
H294 C274 0.930 . S
H295 C286 0.929 . S
H296 C289 0.930 . S
C297 C298 1.351 . S
C297 N300 1.368 . S
C297 H302 0.931 . S
C298 C297 1.351 . S
C298 N299 1.373 . S
C298 H326 0.930 . S
N299 C298 1.373 . S
N299 C301 1.340 . S
N300 C297 1.368 . S
N300 C301 1.321 . S
N300 Co303 2.135 . S
C301 N299 1.340 . S
C301 N300 1.321 . S
C301 H325 0.930 . S
H302 C297 0.931 . S
Co303 N300 2.135 . S
Co303 N306 2.121 . S
Co303 O311 2.055 . S
Co303 O314 2.039 . S
Co303 N317 2.140 . S
C304 O305 1.227 . S
C304 O314 1.265 . S
O305 C304 1.227 . S
N306 Co303 2.121 . S
N306 C308 1.375 . S
N306 C309 1.313 . S
C307 C308 1.338 . S
C307 N310 1.377 . S
C307 H327 0.930 . S
C308 N306 1.375 . S
C308 C307 1.338 . S
C308 H312 0.931 . S
C309 N306 1.313 . S
C309 N310 1.344 . S
C309 H313 0.930 . S
N310 C307 1.377 . S
N310 C309 1.344 . S
O311 Co303 2.055 . S
O311 C315 1.253 . S
H312 C308 0.931 . S
H313 C309 0.930 . S
O314 Co303 2.039 . S
O314 C304 1.265 . S
C315 O311 1.253 . S
C315 O316 1.227 . S
O316 C315 1.227 . S
N317 Co303 2.140 . S
N317 C320 1.346 . S
N317 C321 1.345 . S
C318 C319 1.387 . S
C318 C322 1.391 . S
C319 C318 1.387 . S
C319 C320 1.369 . S
C319 H328 0.929 . S
C320 N317 1.346 . S
C320 C319 1.369 . S
C320 H323 0.928 . S
C321 N317 1.345 . S
C321 C322 1.371 . S
C321 H324 0.931 . S
C322 C318 1.391 . S
C322 C321 1.371 . S
C322 H329 0.930 . S
H323 C320 0.928 . S
H324 C321 0.931 . S
H325 C301 0.930 . S
H326 C298 0.930 . S
H327 C307 0.930 . S
H328 C319 0.929 . S
H329 C322 0.930 . S
C330 C331 1.351 . S
C330 N333 1.368 . S
C330 H335 0.931 . S
C331 C330 1.351 . S
C331 N332 1.373 . S
C331 H359 0.930 . S
N332 C331 1.373 . S
N332 C334 1.340 . S
N333 C330 1.368 . S
N333 C334 1.321 . S
N333 Co336 2.135 1_565 S
C334 N332 1.340 . S
C334 N333 1.321 . S
C334 H358 0.930 . S
H335 C330 0.931 . S
Co336 N333 2.135 1_545 S
Co336 N339 2.121 . S
Co336 O344 2.055 . S
Co336 O347 2.039 . S
Co336 N350 2.140 1_545 S
C337 O338 1.227 1_545 S
C337 O347 1.265 . S
O338 C337 1.227 1_565 S
N339 Co336 2.121 . S
N339 C341 1.375 . S
N339 C342 1.313 . S
C340 C341 1.338 . S
C340 N343 1.377 . S
C340 H360 0.930 . S
C341 N339 1.375 . S
C341 C340 1.338 . S
C341 H345 0.931 . S
C342 N339 1.313 . S
C342 N343 1.344 . S
C342 H346 0.930 . S
N343 C340 1.377 . S
N343 C342 1.344 . S
O344 Co336 2.055 . S
O344 C348 1.253 . S
H345 C341 0.931 . S
H346 C342 0.930 . S
O347 Co336 2.039 . S
O347 C337 1.265 . S
C348 O344 1.253 . S
C348 O349 1.227 . S
O349 C348 1.227 . S
N350 Co336 2.140 1_565 S
N350 C353 1.346 . S
N350 C354 1.345 . S
C351 C352 1.387 . S
C351 C355 1.391 . S
C352 C351 1.387 . S
C352 C353 1.369 . S
C352 H361 0.929 . S
C353 N350 1.346 . S
C353 C352 1.369 . S
C353 H356 0.928 . S
C354 N350 1.345 . S
C354 C355 1.371 . S
C354 H357 0.931 1_565 S
C355 C351 1.391 . S
C355 C354 1.371 . S
C355 H362 0.930 . S
H356 C353 0.928 . S
H357 C354 0.931 1_545 S
H358 C334 0.930 . S
H359 C331 0.930 . S
H360 C340 0.930 . S
H361 C352 0.929 . S
H362 C355 0.930 . S
C363 C364 1.351 . S
C363 N366 1.368 . S
C363 H368 0.931 . S
C364 C363 1.351 . S
C364 N365 1.373 . S
C364 H392 0.930 . S
N365 C364 1.373 . S
N365 C367 1.340 . S
N366 C363 1.368 . S
N366 C367 1.321 . S
N366 Co369 2.135 1_455 S
C367 N365 1.340 . S
C367 N366 1.321 . S
C367 H391 0.930 . S
H368 C363 0.931 . S
Co369 N366 2.135 1_655 S
Co369 N372 2.121 . S
Co369 O377 2.055 . S
Co369 O380 2.039 . S
Co369 N383 2.140 1_655 S
C370 O371 1.227 1_655 S
C370 O380 1.265 . S
O371 C370 1.227 1_455 S
N372 Co369 2.121 . S
N372 C374 1.375 . S
N372 C375 1.313 . S
C373 C374 1.338 . S
C373 N376 1.377 . S
C373 H393 0.930 . S
C374 N372 1.375 . S
C374 C373 1.338 . S
C374 H378 0.931 . S
C375 N372 1.313 . S
C375 N376 1.344 . S
C375 H379 0.930 . S
N376 C373 1.377 . S
N376 C375 1.344 . S
O377 Co369 2.055 . S
O377 C381 1.253 . S
H378 C374 0.931 . S
H379 C375 0.930 . S
O380 Co369 2.039 . S
O380 C370 1.265 . S
C381 O377 1.253 . S
C381 O382 1.227 . S
O382 C381 1.227 . S
N383 Co369 2.140 1_455 S
N383 C386 1.346 . S
N383 C387 1.345 . S
C384 C385 1.387 . S
C384 C388 1.391 . S
C385 C384 1.387 . S
C385 C386 1.369 . S
C385 H394 0.929 . S
C386 N383 1.346 . S
C386 C385 1.369 . S
C386 H389 0.928 . S
C387 N383 1.345 . S
C387 C388 1.371 . S
C387 H390 0.931 1_455 S
C388 C384 1.391 . S
C388 C387 1.371 . S
C388 H395 0.930 . S
H389 C386 0.928 . S
H390 C387 0.931 1_655 S
H391 C367 0.930 . S
H392 C364 0.930 . S
H393 C373 0.930 . S
H394 C385 0.929 . S
H395 C388 0.930 . S
C396 C397 1.351 . S
C396 N399 1.368 . S
C396 H401 0.931 . S
C397 C396 1.351 . S
C397 N398 1.373 . S
C397 H425 0.930 . S
N398 C397 1.373 . S
N398 C400 1.340 . S
N399 C396 1.368 . S
N399 C400 1.321 . S
N399 Co402 2.135 . S
C400 N398 1.340 . S
C400 N399 1.321 . S
C400 H424 0.930 . S
H401 C396 0.931 . S
Co402 N399 2.135 . S
Co402 N405 2.121 . S
Co402 O410 2.055 . S
Co402 O413 2.039 . S
Co402 N416 2.140 . S
C403 O404 1.227 . S
C403 O413 1.265 . S
O404 C403 1.227 . S
N405 Co402 2.121 . S
N405 C407 1.375 . S
N405 C408 1.313 . S
C406 C407 1.338 . S
C406 N409 1.377 . S
C406 H426 0.930 . S
C407 N405 1.375 . S
C407 C406 1.338 . S
C407 H411 0.931 . S
C408 N405 1.313 . S
C408 N409 1.344 . S
C408 H412 0.930 . S
N409 C406 1.377 . S
N409 C408 1.344 . S
O410 Co402 2.055 . S
O410 C414 1.253 . S
H411 C407 0.931 . S
H412 C408 0.930 . S
O413 Co402 2.039 . S
O413 C403 1.265 . S
C414 O410 1.253 . S
C414 O415 1.227 . S
O415 C414 1.227 . S
N416 Co402 2.140 . S
N416 C419 1.346 . S
N416 C420 1.345 . S
C417 C418 1.387 . S
C417 C421 1.391 . S
C418 C417 1.387 . S
C418 C419 1.369 . S
C418 H427 0.929 . S
C419 N416 1.346 . S
C419 C418 1.369 . S
C419 H422 0.928 . S
C420 N416 1.345 . S
C420 C421 1.371 . S
C420 H423 0.931 . S
C421 C417 1.391 . S
C421 C420 1.371 . S
C421 H428 0.930 . S
H422 C419 0.928 . S
H423 C420 0.931 . S
H424 C400 0.930 . S
H425 C397 0.930 . S
H426 C406 0.930 . S
H427 C418 0.929 . S
H428 C421 0.930 . S
C429 C430 1.351 . S
C429 N432 1.368 . S
C429 H434 0.931 . S
C430 C429 1.351 . S
C430 N431 1.373 . S
C430 H458 0.930 . S
N431 C430 1.373 . S
N431 C433 1.340 . S
N432 C429 1.368 . S
N432 C433 1.321 . S
N432 Co435 2.135 . S
C433 N431 1.340 . S
C433 N432 1.321 . S
C433 H457 0.930 . S
H434 C429 0.931 . S
Co435 N432 2.135 . S
Co435 N438 2.121 . S
Co435 O443 2.055 . S
Co435 O446 2.039 . S
Co435 N449 2.140 . S
C436 O437 1.227 . S
C436 O446 1.265 . S
O437 C436 1.227 . S
N438 Co435 2.121 . S
N438 C440 1.375 . S
N438 C441 1.313 . S
C439 C440 1.338 . S
C439 N442 1.377 . S
C439 H459 0.930 . S
C440 N438 1.375 . S
C440 C439 1.338 . S
C440 H444 0.931 . S
C441 N438 1.313 . S
C441 N442 1.344 . S
C441 H445 0.930 . S
N442 C439 1.377 . S
N442 C441 1.344 . S
O443 Co435 2.055 . S
O443 C447 1.253 . S
H444 C440 0.931 . S
H445 C441 0.930 . S
O446 Co435 2.039 . S
O446 C436 1.265 . S
C447 O443 1.253 . S
C447 O448 1.227 . S
O448 C447 1.227 . S
N449 Co435 2.140 . S
N449 C452 1.346 . S
N449 C453 1.345 . S
C450 C451 1.387 . S
C450 C454 1.391 . S
C451 C450 1.387 . S
C451 C452 1.369 . S
C451 H460 0.929 . S
C452 N449 1.346 . S
C452 C451 1.369 . S
C452 H455 0.928 . S
C453 N449 1.345 . S
C453 C454 1.371 . S
C453 H456 0.931 . S
C454 C450 1.391 . S
C454 C453 1.371 . S
C454 H461 0.930 . S
H455 C452 0.928 . S
H456 C453 0.931 . S
H457 C433 0.930 . S
H458 C430 0.930 . S
H459 C439 0.930 . S
H460 C451 0.929 . S
H461 C454 0.930 . S
C462 C463 1.351 . S
C462 N465 1.368 . S
C462 H467 0.931 . S
C463 C462 1.351 . S
C463 N464 1.373 . S
C463 H491 0.930 . S
N464 C463 1.373 . S
N464 C466 1.340 . S
N465 C462 1.368 . S
N465 C466 1.321 . S
N465 Co468 2.135 . S
C466 N464 1.340 . S
C466 N465 1.321 . S
C466 H490 0.930 . S
H467 C462 0.931 . S
Co468 N465 2.135 . S
Co468 N471 2.121 . S
Co468 O476 2.055 . S
Co468 O479 2.039 . S
Co468 N482 2.140 . S
C469 O470 1.227 . S
C469 O479 1.265 . S
O470 C469 1.227 . S
N471 Co468 2.121 . S
N471 C473 1.375 . S
N471 C474 1.313 . S
C472 C473 1.338 . S
C472 N475 1.377 . S
C472 H492 0.930 . S
C473 N471 1.375 . S
C473 C472 1.338 . S
C473 H477 0.931 . S
C474 N471 1.313 . S
C474 N475 1.344 . S
C474 H478 0.930 . S
N475 C472 1.377 . S
N475 C474 1.344 . S
O476 Co468 2.055 . S
O476 C480 1.253 . S
H477 C473 0.931 . S
H478 C474 0.930 . S
O479 Co468 2.039 . S
O479 C469 1.265 . S
C480 O476 1.253 . S
C480 O481 1.227 . S
O481 C480 1.227 . S
N482 Co468 2.140 . S
N482 C485 1.346 . S
N482 C486 1.345 . S
C483 C484 1.387 . S
C483 C487 1.391 . S
C484 C483 1.387 . S
C484 C485 1.369 . S
C484 H493 0.929 . S
C485 N482 1.346 . S
C485 C484 1.369 . S
C485 H488 0.928 . S
C486 N482 1.345 . S
C486 C487 1.371 . S
C486 H489 0.931 . S
C487 C483 1.391 . S
C487 C486 1.371 . S
C487 H494 0.930 . S
H488 C485 0.928 . S
H489 C486 0.931 . S
H490 C466 0.930 . S
H491 C463 0.930 . S
H492 C472 0.930 . S
H493 C484 0.929 . S
H494 C487 0.930 . S
C495 C496 1.351 . S
C495 N498 1.368 . S
C495 H500 0.931 . S
C496 C495 1.351 . S
C496 N497 1.373 . S
C496 H524 0.930 . S
N497 C496 1.373 . S
N497 C499 1.340 . S
N498 C495 1.368 . S
N498 C499 1.321 . S
N498 Co501 2.135 . S
C499 N497 1.340 . S
C499 N498 1.321 . S
C499 H523 0.930 . S
H500 C495 0.931 . S
Co501 N498 2.135 . S
Co501 N504 2.121 . S
Co501 O509 2.055 . S
Co501 O512 2.039 . S
Co501 N515 2.140 . S
C502 O503 1.227 . S
C502 O512 1.265 . S
O503 C502 1.227 . S
N504 Co501 2.121 . S
N504 C506 1.375 . S
N504 C507 1.313 . S
C505 C506 1.338 . S
C505 N508 1.377 . S
C505 H525 0.930 . S
C506 N504 1.375 . S
C506 C505 1.338 . S
C506 H510 0.931 . S
C507 N504 1.313 . S
C507 N508 1.344 . S
C507 H511 0.930 . S
N508 C505 1.377 . S
N508 C507 1.344 . S
O509 Co501 2.055 . S
O509 C513 1.253 . S
H510 C506 0.931 . S
H511 C507 0.930 . S
O512 Co501 2.039 . S
O512 C502 1.265 . S
C513 O509 1.253 . S
C513 O514 1.227 . S
O514 C513 1.227 . S
N515 Co501 2.140 . S
N515 C518 1.346 . S
N515 C519 1.345 . S
C516 C517 1.387 . S
C516 C520 1.391 . S
C517 C516 1.387 . S
C517 C518 1.369 . S
C517 H526 0.929 . S
C518 N515 1.346 . S
C518 C517 1.369 . S
C518 H521 0.928 . S
C519 N515 1.345 . S
C519 C520 1.371 . S
C519 H522 0.931 . S
C520 C516 1.391 . S
C520 C519 1.371 . S
C520 H527 0.930 . S
H521 C518 0.928 . S
H522 C519 0.931 . S
H523 C499 0.930 . S
H524 C496 0.930 . S
H525 C505 0.930 . S
H526 C517 0.929 . S
H527 C520 0.930 . S
C528 C529 1.351 . S
C528 N531 1.368 . S
C528 H533 0.931 . S
C529 C528 1.351 . S
C529 N530 1.373 . S
C529 H557 0.930 . S
N530 C529 1.373 . S
N530 C532 1.340 . S
N531 C528 1.368 . S
N531 C532 1.321 . S
N531 Co534 2.135 . S
C532 N530 1.340 . S
C532 N531 1.321 . S
C532 H556 0.930 . S
H533 C528 0.931 . S
Co534 N531 2.135 . S
Co534 N537 2.121 . S
Co534 O542 2.055 . S
Co534 O545 2.039 . S
Co534 N548 2.140 . S
C535 O536 1.227 . S
C535 O545 1.265 . S
O536 C535 1.227 . S
N537 Co534 2.121 . S
N537 C539 1.375 . S
N537 C540 1.313 . S
C538 C539 1.338 . S
C538 N541 1.377 . S
C538 H558 0.930 . S
C539 N537 1.375 . S
C539 C538 1.338 . S
C539 H543 0.931 . S
C540 N537 1.313 . S
C540 N541 1.344 . S
C540 H544 0.930 . S
N541 C538 1.377 . S
N541 C540 1.344 . S
O542 Co534 2.055 . S
O542 C546 1.253 . S
H543 C539 0.931 . S
H544 C540 0.930 . S
O545 Co534 2.039 . S
O545 C535 1.265 . S
C546 O542 1.253 . S
C546 O547 1.227 . S
O547 C546 1.227 . S
N548 Co534 2.140 . S
N548 C551 1.346 . S
N548 C552 1.345 . S
C549 C550 1.387 . S
C549 C553 1.391 . S
C550 C549 1.387 . S
C550 C551 1.369 . S
C550 H559 0.929 . S
C551 N548 1.346 . S
C551 C550 1.369 . S
C551 H554 0.928 . S
C552 N548 1.345 . S
C552 C553 1.371 . S
C552 H555 0.931 . S
C553 C549 1.391 . S
C553 C552 1.371 . S
C553 H560 0.930 . S
H554 C551 0.928 . S
H555 C552 0.931 . S
H556 C532 0.930 . S
H557 C529 0.930 . S
H558 C538 0.930 . S
H559 C550 0.929 . S
H560 C553 0.930 . S
C561 C562 1.351 . S
C561 N564 1.368 . S
C561 H566 0.931 . S
C562 C561 1.351 . S
C562 N563 1.373 . S
C562 H590 0.930 . S
N563 C562 1.373 . S
N563 C565 1.340 . S
N564 C561 1.368 . S
N564 C565 1.321 . S
N564 Co567 2.135 . S
C565 N563 1.340 . S
C565 N564 1.321 . S
C565 H589 0.930 . S
H566 C561 0.931 . S
Co567 N564 2.135 . S
Co567 N570 2.121 . S
Co567 O575 2.055 . S
Co567 O578 2.039 . S
Co567 N581 2.140 . S
C568 O569 1.227 . S
C568 O578 1.265 . S
O569 C568 1.227 . S
N570 Co567 2.121 . S
N570 C572 1.375 . S
N570 C573 1.313 . S
C571 C572 1.338 . S
C571 N574 1.377 . S
C571 H591 0.930 . S
C572 N570 1.375 . S
C572 C571 1.338 . S
C572 H576 0.931 . S
C573 N570 1.313 . S
C573 N574 1.344 . S
C573 H577 0.930 . S
N574 C571 1.377 . S
N574 C573 1.344 . S
O575 Co567 2.055 . S
O575 C579 1.253 . S
H576 C572 0.931 . S
H577 C573 0.930 . S
O578 Co567 2.039 . S
O578 C568 1.265 . S
C579 O575 1.253 . S
C579 O580 1.227 . S
O580 C579 1.227 . S
N581 Co567 2.140 . S
N581 C584 1.346 . S
N581 C585 1.345 . S
C582 C583 1.387 . S
C582 C586 1.391 . S
C583 C582 1.387 . S
C583 C584 1.369 . S
C583 H592 0.929 . S
C584 N581 1.346 . S
C584 C583 1.369 . S
C584 H587 0.928 . S
C585 N581 1.345 . S
C585 C586 1.371 . S
C585 H588 0.931 . S
C586 C582 1.391 . S
C586 C585 1.371 . S
C586 H593 0.930 . S
H587 C584 0.928 . S
H588 C585 0.931 . S
H589 C565 0.930 . S
H590 C562 0.930 . S
H591 C571 0.930 . S
H592 C583 0.929 . S
H593 C586 0.930 . S
C594 C595 1.351 . S
C594 N597 1.368 . S
C594 H599 0.931 . S
C595 C594 1.351 . S
C595 N596 1.373 . S
C595 H623 0.930 . S
N596 C595 1.373 . S
N596 C598 1.340 . S
N597 C594 1.368 . S
N597 C598 1.321 . S
N597 Co600 2.135 . S
C598 N596 1.340 . S
C598 N597 1.321 . S
C598 H622 0.930 . S
H599 C594 0.931 . S
Co600 N597 2.135 . S
Co600 N603 2.121 . S
Co600 O608 2.055 . S
Co600 O611 2.039 . S
Co600 N614 2.140 . S
C601 O602 1.227 . S
C601 O611 1.265 . S
O602 C601 1.227 . S
N603 Co600 2.121 . S
N603 C605 1.375 . S
N603 C606 1.313 . S
C604 C605 1.338 . S
C604 N607 1.377 . S
C604 H624 0.930 . S
C605 N603 1.375 . S
C605 C604 1.338 . S
C605 H609 0.931 . S
C606 N603 1.313 . S
C606 N607 1.344 . S
C606 H610 0.930 . S
N607 C604 1.377 . S
N607 C606 1.344 . S
O608 Co600 2.055 . S
O608 C612 1.253 . S
H609 C605 0.931 . S
H610 C606 0.930 . S
O611 Co600 2.039 . S
O611 C601 1.265 . S
C612 O608 1.253 . S
C612 O613 1.227 . S
O613 C612 1.227 . S
N614 Co600 2.140 . S
N614 C617 1.346 . S
N614 C618 1.345 . S
C615 C616 1.387 . S
C615 C619 1.391 . S
C616 C615 1.387 . S
C616 C617 1.369 . S
C616 H625 0.929 . S
C617 N614 1.346 . S
C617 C616 1.369 . S
C617 H620 0.928 . S
C618 N614 1.345 . S
C618 C619 1.371 . S
C618 H621 0.931 . S
C619 C615 1.391 . S
C619 C618 1.371 . S
C619 H626 0.930 . S
H620 C617 0.928 . S
H621 C618 0.931 . S
H622 C598 0.930 . S
H623 C595 0.930 . S
H624 C604 0.930 . S
H625 C616 0.929 . S
H626 C619 0.930 . S
C627 C628 1.351 . S
C627 N630 1.368 . S
C627 H632 0.931 . S
C628 C627 1.351 . S
C628 N629 1.373 . S
C628 H656 0.930 . S
N629 C628 1.373 . S
N629 C631 1.340 . S
N630 C627 1.368 . S
N630 C631 1.321 . S
N630 Co633 2.135 . S
C631 N629 1.340 . S
C631 N630 1.321 . S
C631 H655 0.930 . S
H632 C627 0.931 . S
Co633 N630 2.135 . S
Co633 N636 2.121 . S
Co633 O641 2.055 . S
Co633 O644 2.039 . S
Co633 N647 2.140 . S
C634 O635 1.227 . S
C634 O644 1.265 . S
O635 C634 1.227 . S
N636 Co633 2.121 . S
N636 C638 1.375 . S
N636 C639 1.313 . S
C637 C638 1.338 . S
C637 N640 1.377 . S
C637 H657 0.930 . S
C638 N636 1.375 . S
C638 C637 1.338 . S
C638 H642 0.931 . S
C639 N636 1.313 . S
C639 N640 1.344 . S
C639 H643 0.930 . S
N640 C637 1.377 . S
N640 C639 1.344 . S
O641 Co633 2.055 . S
O641 C645 1.253 . S
H642 C638 0.931 . S
H643 C639 0.930 . S
O644 Co633 2.039 . S
O644 C634 1.265 . S
C645 O641 1.253 . S
C645 O646 1.227 . S
O646 C645 1.227 . S
N647 Co633 2.140 . S
N647 C650 1.346 . S
N647 C651 1.345 . S
C648 C649 1.387 . S
C648 C652 1.391 . S
C649 C648 1.387 . S
C649 C650 1.369 . S
C649 H658 0.929 . S
C650 N647 1.346 . S
C650 C649 1.369 . S
C650 H653 0.928 . S
C651 N647 1.345 . S
C651 C652 1.371 . S
C651 H654 0.931 . S
C652 C648 1.391 . S
C652 C651 1.371 . S
C652 H659 0.930 . S
H653 C650 0.928 . S
H654 C651 0.931 . S
H655 C631 0.930 . S
H656 C628 0.930 . S
H657 C637 0.930 . S
H658 C649 0.929 . S
H659 C652 0.930 . S
C660 C661 1.351 . S
C660 N663 1.368 . S
C660 H665 0.931 . S
C661 C660 1.351 . S
C661 N662 1.373 . S
C661 H689 0.930 . S
N662 C661 1.373 . S
N662 C664 1.340 . S
N663 C660 1.368 . S
N663 C664 1.321 . S
N663 Co666 2.135 . S
C664 N662 1.340 . S
C664 N663 1.321 . S
C664 H688 0.930 . S
H665 C660 0.931 . S
Co666 N663 2.135 . S
Co666 N669 2.121 . S
Co666 O674 2.055 . S
Co666 O677 2.039 . S
Co666 N680 2.140 . S
C667 O668 1.227 . S
C667 O677 1.265 . S
O668 C667 1.227 . S
N669 Co666 2.121 . S
N669 C671 1.375 . S
N669 C672 1.313 . S
C670 C671 1.338 . S
C670 N673 1.377 . S
C670 H690 0.930 . S
C671 N669 1.375 . S
C671 C670 1.338 . S
C671 H675 0.931 . S
C672 N669 1.313 . S
C672 N673 1.344 . S
C672 H676 0.930 . S
N673 C670 1.377 . S
N673 C672 1.344 . S
O674 Co666 2.055 . S
O674 C678 1.253 . S
H675 C671 0.931 . S
H676 C672 0.930 . S
O677 Co666 2.039 . S
O677 C667 1.265 . S
C678 O674 1.253 . S
C678 O679 1.227 . S
O679 C678 1.227 . S
N680 Co666 2.140 . S
N680 C683 1.346 . S
N680 C684 1.345 . S
C681 C682 1.387 . S
C681 C685 1.391 . S
C682 C681 1.387 . S
C682 C683 1.369 . S
C682 H691 0.929 . S
C683 N680 1.346 . S
C683 C682 1.369 . S
C683 H686 0.928 . S
C684 N680 1.345 . S
C684 C685 1.371 . S
C684 H687 0.931 . S
C685 C681 1.391 . S
C685 C684 1.371 . S
C685 H692 0.930 . S
H686 C683 0.928 . S
H687 C684 0.931 . S
H688 C664 0.930 . S
H689 C661 0.930 . S
H690 C670 0.930 . S
H691 C682 0.929 . S
H692 C685 0.930 . S
C693 C694 1.351 . S
C693 N696 1.368 . S
C693 H698 0.931 . S
C694 C693 1.351 . S
C694 N695 1.373 . S
C694 H722 0.930 . S
N695 C694 1.373 . S
N695 C697 1.340 . S
N696 C693 1.368 . S
N696 C697 1.321 . S
N696 Co699 2.135 . S
C697 N695 1.340 . S
C697 N696 1.321 . S
C697 H721 0.930 . S
H698 C693 0.931 . S
Co699 N696 2.135 . S
Co699 N702 2.121 . S
Co699 O707 2.055 . S
Co699 O710 2.039 . S
Co699 N713 2.140 . S
C700 O701 1.227 . S
C700 O710 1.265 . S
O701 C700 1.227 . S
N702 Co699 2.121 . S
N702 C704 1.375 . S
N702 C705 1.313 . S
C703 C704 1.338 . S
C703 N706 1.377 . S
C703 H723 0.930 . S
C704 N702 1.375 . S
C704 C703 1.338 . S
C704 H708 0.931 . S
C705 N702 1.313 . S
C705 N706 1.344 . S
C705 H709 0.930 . S
N706 C703 1.377 . S
N706 C705 1.344 . S
O707 Co699 2.055 . S
O707 C711 1.253 . S
H708 C704 0.931 . S
H709 C705 0.930 . S
O710 Co699 2.039 . S
O710 C700 1.265 . S
C711 O707 1.253 . S
C711 O712 1.227 . S
O712 C711 1.227 . S
N713 Co699 2.140 . S
N713 C716 1.346 . S
N713 C717 1.345 . S
C714 C715 1.387 . S
C714 C718 1.391 . S
C715 C714 1.387 . S
C715 C716 1.369 . S
C715 H724 0.929 . S
C716 N713 1.346 . S
C716 C715 1.369 . S
C716 H719 0.928 . S
C717 N713 1.345 . S
C717 C718 1.371 . S
C717 H720 0.931 . S
C718 C714 1.391 . S
C718 C717 1.371 . S
C718 H725 0.930 . S
H719 C716 0.928 . S
H720 C717 0.931 . S
H721 C697 0.930 . S
H722 C694 0.930 . S
H723 C703 0.930 . S
H724 C715 0.929 . S
H725 C718 0.930 . S
C726 C727 1.351 . S
C726 N729 1.368 . S
C726 H731 0.931 . S
C727 C726 1.351 . S
C727 N728 1.373 . S
C727 H755 0.930 . S
N728 C727 1.373 . S
N728 C730 1.340 . S
N729 C726 1.368 . S
N729 C730 1.321 . S
N729 Co732 2.135 . S
C730 N728 1.340 . S
C730 N729 1.321 . S
C730 H754 0.930 . S
H731 C726 0.931 . S
Co732 N729 2.135 . S
Co732 N735 2.121 . S
Co732 O740 2.055 . S
Co732 O743 2.039 . S
Co732 N746 2.140 . S
C733 O734 1.227 . S
C733 O743 1.265 . S
O734 C733 1.227 . S
N735 Co732 2.121 . S
N735 C737 1.375 . S
N735 C738 1.313 . S
C736 C737 1.338 . S
C736 N739 1.377 . S
C736 H756 0.930 . S
C737 N735 1.375 . S
C737 C736 1.338 . S
C737 H741 0.931 . S
C738 N735 1.313 . S
C738 N739 1.344 . S
C738 H742 0.930 . S
N739 C736 1.377 . S
N739 C738 1.344 . S
O740 Co732 2.055 . S
O740 C744 1.253 . S
H741 C737 0.931 . S
H742 C738 0.930 . S
O743 Co732 2.039 . S
O743 C733 1.265 . S
C744 O740 1.253 . S
C744 O745 1.227 . S
O745 C744 1.227 . S
N746 Co732 2.140 . S
N746 C749 1.346 . S
N746 C750 1.345 . S
C747 C748 1.387 . S
C747 C751 1.391 . S
C748 C747 1.387 . S
C748 C749 1.369 . S
C748 H757 0.929 . S
C749 N746 1.346 . S
C749 C748 1.369 . S
C749 H752 0.928 . S
C750 N746 1.345 . S
C750 C751 1.371 . S
C750 H753 0.931 . S
C751 C747 1.391 . S
C751 C750 1.371 . S
C751 H758 0.930 . S
H752 C749 0.928 . S
H753 C750 0.931 . S
H754 C730 0.930 . S
H755 C727 0.930 . S
H756 C736 0.930 . S
H757 C748 0.929 . S
H758 C751 0.930 . S
C759 C760 1.351 . S
C759 N762 1.368 . S
C759 H764 0.931 . S
C760 C759 1.351 . S
C760 N761 1.373 . S
C760 H788 0.930 . S
N761 C760 1.373 . S
N761 C763 1.340 . S
N762 C759 1.368 . S
N762 C763 1.321 . S
N762 Co765 2.135 . S
C763 N761 1.340 . S
C763 N762 1.321 . S
C763 H787 0.930 . S
H764 C759 0.931 . S
Co765 N762 2.135 . S
Co765 N768 2.121 . S
Co765 O773 2.055 . S
Co765 O776 2.039 . S
Co765 N779 2.140 . S
C766 O767 1.227 . S
C766 O776 1.265 . S
O767 C766 1.227 . S
N768 Co765 2.121 . S
N768 C770 1.375 . S
N768 C771 1.313 . S
C769 C770 1.338 . S
C769 N772 1.377 . S
C769 H789 0.930 . S
C770 N768 1.375 . S
C770 C769 1.338 . S
C770 H774 0.931 . S
C771 N768 1.313 . S
C771 N772 1.344 . S
C771 H775 0.930 . S
N772 C769 1.377 . S
N772 C771 1.344 . S
O773 Co765 2.055 . S
O773 C777 1.253 . S
H774 C770 0.931 . S
H775 C771 0.930 . S
O776 Co765 2.039 . S
O776 C766 1.265 . S
C777 O773 1.253 . S
C777 O778 1.227 . S
O778 C777 1.227 . S
N779 Co765 2.140 . S
N779 C782 1.346 . S
N779 C783 1.345 . S
C780 C781 1.387 . S
C780 C784 1.391 . S
C781 C780 1.387 . S
C781 C782 1.369 . S
C781 H790 0.929 . S
C782 N779 1.346 . S
C782 C781 1.369 . S
C782 H785 0.928 . S
C783 N779 1.345 . S
C783 C784 1.371 . S
C783 H786 0.931 . S
C784 C780 1.391 . S
C784 C783 1.371 . S
C784 H791 0.930 . S
H785 C782 0.928 . S
H786 C783 0.931 . S
H787 C763 0.930 . S
H788 C760 0.930 . S
H789 C769 0.930 . S
H790 C781 0.929 . S
H791 C784 0.930 . S
C792 C793 1.351 . S
C792 N795 1.368 . S
C792 H797 0.931 . S
C793 C792 1.351 . S
C793 N794 1.373 . S
C793 H821 0.930 . S
N794 C793 1.373 . S
N794 C796 1.340 . S
N795 C792 1.368 . S
N795 C796 1.321 . S
N795 Co798 2.135 . S
C796 N794 1.340 . S
C796 N795 1.321 . S
C796 H820 0.930 . S
H797 C792 0.931 . S
Co798 N795 2.135 . S
Co798 N801 2.121 . S
Co798 O806 2.055 . S
Co798 O809 2.039 . S
Co798 N812 2.140 . S
C799 O800 1.227 . S
C799 O809 1.265 . S
O800 C799 1.227 . S
N801 Co798 2.121 . S
N801 C803 1.375 . S
N801 C804 1.313 . S
C802 C803 1.338 . S
C802 N805 1.377 . S
C802 H822 0.930 . S
C803 N801 1.375 . S
C803 C802 1.338 . S
C803 H807 0.931 . S
C804 N801 1.313 . S
C804 N805 1.344 . S
C804 H808 0.930 . S
N805 C802 1.377 . S
N805 C804 1.344 . S
O806 Co798 2.055 . S
O806 C810 1.253 . S
H807 C803 0.931 . S
H808 C804 0.930 . S
O809 Co798 2.039 . S
O809 C799 1.265 . S
C810 O806 1.253 . S
C810 O811 1.227 . S
O811 C810 1.227 . S
N812 Co798 2.140 . S
N812 C815 1.346 . S
N812 C816 1.345 . S
C813 C814 1.387 . S
C813 C817 1.391 . S
C814 C813 1.387 . S
C814 C815 1.369 . S
C814 H823 0.929 . S
C815 N812 1.346 . S
C815 C814 1.369 . S
C815 H818 0.928 . S
C816 N812 1.345 . S
C816 C817 1.371 . S
C816 H819 0.931 . S
C817 C813 1.391 . S
C817 C816 1.371 . S
C817 H824 0.930 . S
H818 C815 0.928 . S
H819 C816 0.931 . S
H820 C796 0.930 . S
H821 C793 0.930 . S
H822 C802 0.930 . S
H823 C814 0.929 . S
H824 C817 0.930 . S
C825 C826 1.351 . S
C825 N828 1.368 . S
C825 H830 0.931 . S
C826 C825 1.351 . S
C826 N827 1.373 . S
C826 H854 0.930 . S
N827 C826 1.373 . S
N827 C829 1.340 . S
N828 C825 1.368 . S
N828 C829 1.321 . S
N828 Co831 2.135 . S
C829 N827 1.340 . S
C829 N828 1.321 . S
C829 H853 0.930 . S
H830 C825 0.931 . S
Co831 N828 2.135 . S
Co831 N834 2.121 . S
Co831 O839 2.055 . S
Co831 O842 2.039 . S
Co831 N845 2.140 . S
C832 O833 1.227 . S
C832 O842 1.265 . S
O833 C832 1.227 . S
N834 Co831 2.121 . S
N834 C836 1.375 . S
N834 C837 1.313 . S
C835 C836 1.338 . S
C835 N838 1.377 . S
C835 H855 0.930 . S
C836 N834 1.375 . S
C836 C835 1.338 . S
C836 H840 0.931 . S
C837 N834 1.313 . S
C837 N838 1.344 . S
C837 H841 0.930 . S
N838 C835 1.377 . S
N838 C837 1.344 . S
O839 Co831 2.055 . S
O839 C843 1.253 . S
H840 C836 0.931 . S
H841 C837 0.930 . S
O842 Co831 2.039 . S
O842 C832 1.265 . S
C843 O839 1.253 . S
C843 O844 1.227 . S
O844 C843 1.227 . S
N845 Co831 2.140 . S
N845 C848 1.346 . S
N845 C849 1.345 . S
C846 C847 1.387 . S
C846 C850 1.391 . S
C847 C846 1.387 . S
C847 C848 1.369 . S
C847 H856 0.929 . S
C848 N845 1.346 . S
C848 C847 1.369 . S
C848 H851 0.928 . S
C849 N845 1.345 . S
C849 C850 1.371 . S
C849 H852 0.931 . S
C850 C846 1.391 . S
C850 C849 1.371 . S
C850 H857 0.930 . S
H851 C848 0.928 . S
H852 C849 0.931 . S
H853 C829 0.930 . S
H854 C826 0.930 . S
H855 C835 0.930 . S
H856 C847 0.929 . S
H857 C850 0.930 . S
C858 C859 1.351 . S
C858 N861 1.368 . S
C858 H863 0.931 . S
C859 C858 1.351 . S
C859 N860 1.373 . S
C859 H887 0.930 . S
N860 C859 1.373 . S
N860 C862 1.340 . S
N861 C858 1.368 . S
N861 C862 1.321 . S
N861 Co864 2.135 . S
C862 N860 1.340 . S
C862 N861 1.321 . S
C862 H886 0.930 . S
H863 C858 0.931 . S
Co864 N861 2.135 . S
Co864 N867 2.121 . S
Co864 O872 2.055 . S
Co864 O875 2.039 . S
Co864 N878 2.140 . S
C865 O866 1.227 . S
C865 O875 1.265 . S
O866 C865 1.227 . S
N867 Co864 2.121 . S
N867 C869 1.375 . S
N867 C870 1.313 . S
C868 C869 1.338 . S
C868 N871 1.377 . S
C868 H888 0.930 . S
C869 N867 1.375 . S
C869 C868 1.338 . S
C869 H873 0.931 . S
C870 N867 1.313 . S
C870 N871 1.344 . S
C870 H874 0.930 . S
N871 C868 1.377 . S
N871 C870 1.344 . S
O872 Co864 2.055 . S
O872 C876 1.253 . S
H873 C869 0.931 . S
H874 C870 0.930 . S
O875 Co864 2.039 . S
O875 C865 1.265 . S
C876 O872 1.253 . S
C876 O877 1.227 . S
O877 C876 1.227 . S
N878 Co864 2.140 . S
N878 C881 1.346 . S
N878 C882 1.345 . S
C879 C880 1.387 . S
C879 C883 1.391 . S
C880 C879 1.387 . S
C880 C881 1.369 . S
C880 H889 0.929 . S
C881 N878 1.346 . S
C881 C880 1.369 . S
C881 H884 0.928 . S
C882 N878 1.345 . S
C882 C883 1.371 . S
C882 H885 0.931 . S
C883 C879 1.391 . S
C883 C882 1.371 . S
C883 H890 0.930 . S
H884 C881 0.928 . S
H885 C882 0.931 . S
H886 C862 0.930 . S
H887 C859 0.930 . S
H888 C868 0.930 . S
H889 C880 0.929 . S
H890 C883 0.930 . S
C891 C892 1.351 . S
C891 N894 1.368 . S
C891 H896 0.931 . S
C892 C891 1.351 . S
C892 N893 1.373 . S
C892 H920 0.930 . S
N893 C892 1.373 . S
N893 C895 1.340 . S
N894 C891 1.368 . S
N894 C895 1.321 . S
N894 Co897 2.135 . S
C895 N893 1.340 . S
C895 N894 1.321 . S
C895 H919 0.930 . S
H896 C891 0.931 . S
Co897 N894 2.135 . S
Co897 N900 2.121 . S
Co897 O905 2.055 . S
Co897 O908 2.039 . S
Co897 N911 2.140 . S
C898 O899 1.227 . S
C898 O908 1.265 . S
O899 C898 1.227 . S
N900 Co897 2.121 . S
N900 C902 1.375 . S
N900 C903 1.313 . S
C901 C902 1.338 . S
C901 N904 1.377 . S
C901 H921 0.930 . S
C902 N900 1.375 . S
C902 C901 1.338 . S
C902 H906 0.931 . S
C903 N900 1.313 . S
C903 N904 1.344 . S
C903 H907 0.930 . S
N904 C901 1.377 . S
N904 C903 1.344 . S
O905 Co897 2.055 . S
O905 C909 1.253 . S
H906 C902 0.931 . S
H907 C903 0.930 . S
O908 Co897 2.039 . S
O908 C898 1.265 . S
C909 O905 1.253 . S
C909 O910 1.227 . S
O910 C909 1.227 . S
N911 Co897 2.140 . S
N911 C914 1.346 . S
N911 C915 1.345 . S
C912 C913 1.387 . S
C912 C916 1.391 . S
C913 C912 1.387 . S
C913 C914 1.369 . S
C913 H922 0.929 . S
C914 N911 1.346 . S
C914 C913 1.369 . S
C914 H917 0.928 . S
C915 N911 1.345 . S
C915 C916 1.371 . S
C915 H918 0.931 . S
C916 C912 1.391 . S
C916 C915 1.371 . S
C916 H923 0.930 . S
H917 C914 0.928 . S
H918 C915 0.931 . S
H919 C895 0.930 . S
H920 C892 0.930 . S
H921 C901 0.930 . S
H922 C913 0.929 . S
H923 C916 0.930 . S
C924 C925 1.351 . S
C924 N927 1.368 . S
C924 H929 0.931 . S
C925 C924 1.351 . S
C925 N926 1.373 . S
C925 H953 0.930 . S
N926 C925 1.373 . S
N926 C928 1.340 . S
N927 C924 1.368 . S
N927 C928 1.321 . S
N927 Co930 2.135 . S
C928 N926 1.340 . S
C928 N927 1.321 . S
C928 H952 0.930 . S
H929 C924 0.931 . S
Co930 N927 2.135 . S
Co930 N933 2.121 . S
Co930 O938 2.055 . S
Co930 O941 2.039 . S
Co930 N944 2.140 . S
C931 O932 1.227 . S
C931 O941 1.265 . S
O932 C931 1.227 . S
N933 Co930 2.121 . S
N933 C935 1.375 . S
N933 C936 1.313 . S
C934 C935 1.338 . S
C934 N937 1.377 . S
C934 H954 0.930 . S
C935 N933 1.375 . S
C935 C934 1.338 . S
C935 H939 0.931 . S
C936 N933 1.313 . S
C936 N937 1.344 . S
C936 H940 0.930 . S
N937 C934 1.377 . S
N937 C936 1.344 . S
O938 Co930 2.055 . S
O938 C942 1.253 . S
H939 C935 0.931 . S
H940 C936 0.930 . S
O941 Co930 2.039 . S
O941 C931 1.265 . S
C942 O938 1.253 . S
C942 O943 1.227 . S
O943 C942 1.227 . S
N944 Co930 2.140 . S
N944 C947 1.346 . S
N944 C948 1.345 . S
C945 C946 1.387 . S
C945 C949 1.391 . S
C946 C945 1.387 . S
C946 C947 1.369 . S
C946 H955 0.929 . S
C947 N944 1.346 . S
C947 C946 1.369 . S
C947 H950 0.928 . S
C948 N944 1.345 . S
C948 C949 1.371 . S
C948 H951 0.931 . S
C949 C945 1.391 . S
C949 C948 1.371 . S
C949 H956 0.930 . S
H950 C947 0.928 . S
H951 C948 0.931 . S
H952 C928 0.930 . S
H953 C925 0.930 . S
H954 C934 0.930 . S
H955 C946 0.929 . S
H956 C949 0.930 . S
C957 C958 1.351 . S
C957 N960 1.368 . S
C957 H962 0.931 . S
C958 C957 1.351 . S
C958 N959 1.373 . S
C958 H986 0.930 . S
N959 C958 1.373 . S
N959 C961 1.340 . S
N960 C957 1.368 . S
N960 C961 1.321 . S
N960 Co963 2.135 . S
C961 N959 1.340 . S
C961 N960 1.321 . S
C961 H985 0.930 . S
H962 C957 0.931 . S
Co963 N960 2.135 . S
Co963 N966 2.121 . S
Co963 O971 2.055 . S
Co963 O974 2.039 . S
Co963 N977 2.140 . S
C964 O965 1.227 . S
C964 O974 1.265 . S
O965 C964 1.227 . S
N966 Co963 2.121 . S
N966 C968 1.375 . S
N966 C969 1.313 . S
C967 C968 1.338 . S
C967 N970 1.377 . S
C967 H987 0.930 . S
C968 N966 1.375 . S
C968 C967 1.338 . S
C968 H972 0.931 . S
C969 N966 1.313 . S
C969 N970 1.344 . S
C969 H973 0.930 . S
N970 C967 1.377 . S
N970 C969 1.344 . S
O971 Co963 2.055 . S
O971 C975 1.253 . S
H972 C968 0.931 . S
H973 C969 0.930 . S
O974 Co963 2.039 . S
O974 C964 1.265 . S
C975 O971 1.253 . S
C975 O976 1.227 . S
O976 C975 1.227 . S
N977 Co963 2.140 . S
N977 C980 1.346 . S
N977 C981 1.345 . S
C978 C979 1.387 . S
C978 C982 1.391 . S
C979 C978 1.387 . S
C979 C980 1.369 . S
C979 H988 0.929 . S
C980 N977 1.346 . S
C980 C979 1.369 . S
C980 H983 0.928 . S
C981 N977 1.345 . S
C981 C982 1.371 . S
C981 H984 0.931 . S
C982 C978 1.391 . S
C982 C981 1.371 . S
C982 H989 0.930 . S
H983 C980 0.928 . S
H984 C981 0.931 . S
H985 C961 0.930 . S
H986 C958 0.930 . S
H987 C967 0.930 . S
H988 C979 0.929 . S
H989 C982 0.930 . S
C990 C991 1.351 . S
C990 N993 1.368 . S
C990 H995 0.931 . S
C991 C990 1.351 . S
C991 N992 1.373 . S
C991 H1019 0.930 . S
N992 C991 1.373 . S
N992 C994 1.340 . S
N993 C990 1.368 . S
N993 C994 1.321 . S
N993 Co996 2.135 . S
C994 N992 1.340 . S
C994 N993 1.321 . S
C994 H1018 0.930 . S
H995 C990 0.931 . S
Co996 N993 2.135 . S
Co996 N999 2.121 . S
Co996 O1004 2.055 . S
Co996 O1007 2.039 . S
Co996 N1010 2.140 . S
C997 O998 1.227 . S
C997 O1007 1.265 . S
O998 C997 1.227 . S
N999 Co996 2.121 . S
N999 C1001 1.375 . S
N999 C1002 1.313 . S
C1000 C1001 1.338 . S
C1000 N1003 1.377 . S
C1000 H1020 0.930 . S
C1001 N999 1.375 . S
C1001 C1000 1.338 . S
C1001 H1005 0.931 . S
C1002 N999 1.313 . S
C1002 N1003 1.344 . S
C1002 H1006 0.930 . S
N1003 C1000 1.377 . S
N1003 C1002 1.344 . S
O1004 Co996 2.055 . S
O1004 C1008 1.253 . S
H1005 C1001 0.931 . S
H1006 C1002 0.930 . S
O1007 Co996 2.039 . S
O1007 C997 1.265 . S
C1008 O1004 1.253 . S
C1008 O1009 1.227 . S
O1009 C1008 1.227 . S
N1010 Co996 2.140 . S
N1010 C1013 1.346 . S
N1010 C1014 1.345 . S
C1011 C1012 1.387 . S
C1011 C1015 1.391 . S
C1012 C1011 1.387 . S
C1012 C1013 1.369 . S
C1012 H1021 0.929 . S
C1013 N1010 1.346 . S
C1013 C1012 1.369 . S
C1013 H1016 0.928 . S
C1014 N1010 1.345 . S
C1014 C1015 1.371 . S
C1014 H1017 0.931 . S
C1015 C1011 1.391 . S
C1015 C1014 1.371 . S
C1015 H1022 0.930 . S
H1016 C1013 0.928 . S
H1017 C1014 0.931 . S
H1018 C994 0.930 . S
H1019 C991 0.930 . S
H1020 C1000 0.930 . S
H1021 C1012 0.929 . S
H1022 C1015 0.930 . S
C1023 C1024 1.351 . S
C1023 N1026 1.368 . S
C1023 H1028 0.931 . S
C1024 C1023 1.351 . S
C1024 N1025 1.373 . S
C1024 H1052 0.930 . S
N1025 C1024 1.373 . S
N1025 C1027 1.340 . S
N1026 C1023 1.368 . S
N1026 C1027 1.321 . S
N1026 Co1029 2.135 . S
C1027 N1025 1.340 . S
C1027 N1026 1.321 . S
C1027 H1051 0.930 . S
H1028 C1023 0.931 . S
Co1029 N1026 2.135 . S
Co1029 N1032 2.121 . S
Co1029 O1037 2.055 . S
Co1029 O1040 2.039 . S
Co1029 N1043 2.140 . S
C1030 O1031 1.227 . S
C1030 O1040 1.265 . S
O1031 C1030 1.227 . S
N1032 Co1029 2.121 . S
N1032 C1034 1.375 . S
N1032 C1035 1.313 . S
C1033 C1034 1.338 . S
C1033 N1036 1.377 . S
C1033 H1053 0.930 . S
C1034 N1032 1.375 . S
C1034 C1033 1.338 . S
C1034 H1038 0.931 . S
C1035 N1032 1.313 . S
C1035 N1036 1.344 . S
C1035 H1039 0.930 . S
N1036 C1033 1.377 . S
N1036 C1035 1.344 . S
O1037 Co1029 2.055 . S
O1037 C1041 1.253 . S
H1038 C1034 0.931 . S
H1039 C1035 0.930 . S
O1040 Co1029 2.039 . S
O1040 C1030 1.265 . S
C1041 O1037 1.253 . S
C1041 O1042 1.227 . S
O1042 C1041 1.227 . S
N1043 Co1029 2.140 . S
N1043 C1046 1.346 . S
N1043 C1047 1.345 . S
C1044 C1045 1.387 . S
C1044 C1048 1.391 . S
C1045 C1044 1.387 . S
C1045 C1046 1.369 . S
C1045 H1054 0.929 . S
C1046 N1043 1.346 . S
C1046 C1045 1.369 . S
C1046 H1049 0.928 . S
C1047 N1043 1.345 . S
C1047 C1048 1.371 . S
C1047 H1050 0.931 . S
C1048 C1044 1.391 . S
C1048 C1047 1.371 . S
C1048 H1055 0.930 . S
H1049 C1046 0.928 . S
H1050 C1047 0.931 . S
H1051 C1027 0.930 . S
H1052 C1024 0.930 . S
H1053 C1033 0.930 . S
H1054 C1045 0.929 . S
H1055 C1048 0.930 . S
C1056 C1057 1.351 . S
C1056 N1059 1.368 . S
C1056 H1061 0.931 . S
C1057 C1056 1.351 . S
C1057 N1058 1.373 . S
C1057 H1085 0.930 . S
N1058 C1057 1.373 . S
N1058 C1060 1.340 . S
N1059 C1056 1.368 . S
N1059 C1060 1.321 . S
N1059 Co1062 2.135 . S
C1060 N1058 1.340 . S
C1060 N1059 1.321 . S
C1060 H1084 0.930 . S
H1061 C1056 0.931 . S
Co1062 N1059 2.135 . S
Co1062 N1065 2.121 . S
Co1062 O1070 2.055 . S
Co1062 O1073 2.039 . S
Co1062 N1076 2.140 . S
C1063 O1064 1.227 . S
C1063 O1073 1.265 . S
O1064 C1063 1.227 . S
N1065 Co1062 2.121 . S
N1065 C1067 1.375 . S
N1065 C1068 1.313 . S
C1066 C1067 1.338 . S
C1066 N1069 1.377 . S
C1066 H1086 0.930 . S
C1067 N1065 1.375 . S
C1067 C1066 1.338 . S
C1067 H1071 0.931 . S
C1068 N1065 1.313 . S
C1068 N1069 1.344 . S
C1068 H1072 0.930 . S
N1069 C1066 1.377 . S
N1069 C1068 1.344 . S
O1070 Co1062 2.055 . S
O1070 C1074 1.253 . S
H1071 C1067 0.931 . S
H1072 C1068 0.930 . S
O1073 Co1062 2.039 . S
O1073 C1063 1.265 . S
C1074 O1070 1.253 . S
C1074 O1075 1.227 . S
O1075 C1074 1.227 . S
N1076 Co1062 2.140 . S
N1076 C1079 1.346 . S
N1076 C1080 1.345 . S
C1077 C1078 1.387 . S
C1077 C1081 1.391 . S
C1078 C1077 1.387 . S
C1078 C1079 1.369 . S
C1078 H1087 0.929 . S
C1079 N1076 1.346 . S
C1079 C1078 1.369 . S
C1079 H1082 0.928 . S
C1080 N1076 1.345 . S
C1080 C1081 1.371 . S
C1080 H1083 0.931 . S
C1081 C1077 1.391 . S
C1081 C1080 1.371 . S
C1081 H1088 0.930 . S
H1082 C1079 0.928 . S
H1083 C1080 0.931 . S
H1084 C1060 0.930 . S
H1085 C1057 0.930 . S
H1086 C1066 0.930 . S
H1087 C1078 0.929 . S
H1088 C1081 0.930 . S
C1089 C1090 1.351 . S
C1089 N1092 1.368 . S
C1089 H1094 0.931 . S
C1090 C1089 1.351 . S
C1090 N1091 1.373 . S
C1090 H1118 0.930 . S
N1091 C1090 1.373 . S
N1091 C1093 1.340 . S
N1092 C1089 1.368 . S
N1092 C1093 1.321 . S
N1092 Co1095 2.135 . S
C1093 N1091 1.340 . S
C1093 N1092 1.321 . S
C1093 H1117 0.930 . S
H1094 C1089 0.931 . S
Co1095 N1092 2.135 . S
Co1095 N1098 2.121 . S
Co1095 O1103 2.055 . S
Co1095 O1106 2.039 . S
Co1095 N1109 2.140 . S
C1096 O1097 1.227 . S
C1096 O1106 1.265 . S
O1097 C1096 1.227 . S
N1098 Co1095 2.121 . S
N1098 C1100 1.375 . S
N1098 C1101 1.313 . S
C1099 C1100 1.338 . S
C1099 N1102 1.377 . S
C1099 H1119 0.930 . S
C1100 N1098 1.375 . S
C1100 C1099 1.338 . S
C1100 H1104 0.931 . S
C1101 N1098 1.313 . S
C1101 N1102 1.344 . S
C1101 H1105 0.930 . S
N1102 C1099 1.377 . S
N1102 C1101 1.344 . S
O1103 Co1095 2.055 . S
O1103 C1107 1.253 . S
H1104 C1100 0.931 . S
H1105 C1101 0.930 . S
O1106 Co1095 2.039 . S
O1106 C1096 1.265 . S
C1107 O1103 1.253 . S
C1107 O1108 1.227 . S
O1108 C1107 1.227 . S
N1109 Co1095 2.140 . S
N1109 C1112 1.346 . S
N1109 C1113 1.345 . S
C1110 C1111 1.387 . S
C1110 C1114 1.391 . S
C1111 C1110 1.387 . S
C1111 C1112 1.369 . S
C1111 H1120 0.929 . S
C1112 N1109 1.346 . S
C1112 C1111 1.369 . S
C1112 H1115 0.928 . S
C1113 N1109 1.345 . S
C1113 C1114 1.371 . S
C1113 H1116 0.931 . S
C1114 C1110 1.391 . S
C1114 C1113 1.371 . S
C1114 H1121 0.930 . S
H1115 C1112 0.928 . S
H1116 C1113 0.931 . S
H1117 C1093 0.930 . S
H1118 C1090 0.930 . S
H1119 C1099 0.930 . S
H1120 C1111 0.929 . S
H1121 C1114 0.930 . S
C1122 C1123 1.351 . S
C1122 N1125 1.368 . S
C1122 H1127 0.931 . S
C1123 C1122 1.351 . S
C1123 N1124 1.373 . S
C1123 H1151 0.930 . S
N1124 C1123 1.373 . S
N1124 C1126 1.340 . S
N1125 C1122 1.368 . S
N1125 C1126 1.321 . S
N1125 Co1128 2.135 . S
C1126 N1124 1.340 . S
C1126 N1125 1.321 . S
C1126 H1150 0.930 . S
H1127 C1122 0.931 . S
Co1128 N1125 2.135 . S
Co1128 N1131 2.121 . S
Co1128 O1136 2.055 . S
Co1128 O1139 2.039 . S
Co1128 N1142 2.140 . S
C1129 O1130 1.227 . S
C1129 O1139 1.265 . S
O1130 C1129 1.227 . S
N1131 Co1128 2.121 . S
N1131 C1133 1.375 . S
N1131 C1134 1.313 . S
C1132 C1133 1.338 . S
C1132 N1135 1.377 . S
C1132 H1152 0.930 . S
C1133 N1131 1.375 . S
C1133 C1132 1.338 . S
C1133 H1137 0.931 . S
C1134 N1131 1.313 . S
C1134 N1135 1.344 . S
C1134 H1138 0.930 . S
N1135 C1132 1.377 . S
N1135 C1134 1.344 . S
O1136 Co1128 2.055 . S
O1136 C1140 1.253 . S
H1137 C1133 0.931 . S
H1138 C1134 0.930 . S
O1139 Co1128 2.039 . S
O1139 C1129 1.265 . S
C1140 O1136 1.253 . S
C1140 O1141 1.227 . S
O1141 C1140 1.227 . S
N1142 Co1128 2.140 . S
N1142 C1145 1.346 . S
N1142 C1146 1.345 . S
C1143 C1144 1.387 . S
C1143 C1147 1.391 . S
C1144 C1143 1.387 . S
C1144 C1145 1.369 . S
C1144 H1153 0.929 . S
C1145 N1142 1.346 . S
C1145 C1144 1.369 . S
C1145 H1148 0.928 . S
C1146 N1142 1.345 . S
C1146 C1147 1.371 . S
C1146 H1149 0.931 . S
C1147 C1143 1.391 . S
C1147 C1146 1.371 . S
C1147 H1154 0.930 . S
H1148 C1145 0.928 . S
H1149 C1146 0.931 . S
H1150 C1126 0.930 . S
H1151 C1123 0.930 . S
H1152 C1132 0.930 . S
H1153 C1144 0.929 . S
H1154 C1147 0.930 . S
C1155 C1156 1.351 . S
C1155 N1158 1.368 . S
C1155 H1160 0.931 . S
C1156 C1155 1.351 . S
C1156 N1157 1.373 . S
C1156 H1184 0.930 . S
N1157 C1156 1.373 . S
N1157 C1159 1.340 . S
N1158 C1155 1.368 . S
N1158 C1159 1.321 . S
N1158 Co1161 2.135 . S
C1159 N1157 1.340 . S
C1159 N1158 1.321 . S
C1159 H1183 0.930 . S
H1160 C1155 0.931 . S
Co1161 N1158 2.135 . S
Co1161 N1164 2.121 . S
Co1161 O1169 2.055 . S
Co1161 O1172 2.039 . S
Co1161 N1175 2.140 . S
C1162 O1163 1.227 . S
C1162 O1172 1.265 . S
O1163 C1162 1.227 . S
N1164 Co1161 2.121 . S
N1164 C1166 1.375 . S
N1164 C1167 1.313 . S
C1165 C1166 1.338 . S
C1165 N1168 1.377 . S
C1165 H1185 0.930 . S
C1166 N1164 1.375 . S
C1166 C1165 1.338 . S
C1166 H1170 0.931 . S
C1167 N1164 1.313 . S
C1167 N1168 1.344 . S
C1167 H1171 0.930 . S
N1168 C1165 1.377 . S
N1168 C1167 1.344 . S
O1169 Co1161 2.055 . S
O1169 C1173 1.253 . S
H1170 C1166 0.931 . S
H1171 C1167 0.930 . S
O1172 Co1161 2.039 . S
O1172 C1162 1.265 . S
C1173 O1169 1.253 . S
C1173 O1174 1.227 . S
O1174 C1173 1.227 . S
N1175 Co1161 2.140 . S
N1175 C1178 1.346 . S
N1175 C1179 1.345 . S
C1176 C1177 1.387 . S
C1176 C1180 1.391 . S
C1177 C1176 1.387 . S
C1177 C1178 1.369 . S
C1177 H1186 0.929 . S
C1178 N1175 1.346 . S
C1178 C1177 1.369 . S
C1178 H1181 0.928 . S
C1179 N1175 1.345 . S
C1179 C1180 1.371 . S
C1179 H1182 0.931 . S
C1180 C1176 1.391 . S
C1180 C1179 1.371 . S
C1180 H1187 0.930 . S
H1181 C1178 0.928 . S
H1182 C1179 0.931 . S
H1183 C1159 0.930 . S
H1184 C1156 0.930 . S
H1185 C1165 0.930 . S
H1186 C1177 0.929 . S
H1187 C1180 0.930 . S
C1188 C1189 1.387 1_556 S
C1188 H1192 0.950 . S
C1188 C1197 1.390 . S
C1189 C1188 1.387 1_554 S
C1189 C1191 1.387 . S
H1190 C1197 0.950 . S
C1191 C1189 1.387 . S
C1191 C1193 1.390 . S
C1191 H1195 0.950 . S
H1192 C1188 0.950 . S
C1193 C1191 1.390 . S
C1193 C1194 1.387 . S
C1193 H1196 0.950 . S
C1194 C1193 1.387 . S
C1194 C1197 1.387 1_554 S
H1195 C1191 0.950 . S
H1196 C1193 0.950 . S
C1197 C1188 1.390 . S
C1197 H1190 0.950 . S
C1197 C1194 1.387 1_556 S
C1198 C1199 1.387 . S
C1198 H1202 0.950 . S
C1198 C1207 1.390 . S
C1199 C1198 1.387 . S
C1199 C1201 1.387 1_554 S
H1200 C1207 0.950 . S
C1201 C1199 1.387 1_556 S
C1201 C1203 1.390 . S
C1201 H1205 0.950 . S
H1202 C1198 0.950 . S
C1203 C1201 1.390 . S
C1203 C1204 1.387 1_556 S
C1203 H1206 0.950 . S
C1204 C1203 1.387 1_554 S
C1204 C1207 1.387 . S
H1205 C1201 0.950 . S
H1206 C1203 0.950 . S
C1207 C1198 1.390 . S
C1207 H1200 0.950 . S
C1207 C1204 1.387 . S
C1208 C1209 1.387 1_556 S
C1208 H1212 0.950 . S
C1208 C1217 1.390 . S
C1209 C1208 1.387 1_554 S
C1209 C1211 1.387 . S
H1210 C1217 0.950 . S
C1211 C1209 1.387 . S
C1211 C1213 1.390 . S
C1211 H1215 0.950 . S
H1212 C1208 0.950 . S
C1213 C1211 1.390 . S
C1213 C1214 1.387 . S
C1213 H1216 0.950 . S
C1214 C1213 1.387 . S
C1214 C1217 1.387 1_554 S
H1215 C1211 0.950 . S
H1216 C1213 0.950 . S
C1217 C1208 1.390 . S
C1217 H1210 0.950 . S
C1217 C1214 1.387 1_556 S
C1218 C1219 1.387 . S
C1218 H1222 0.950 . S
C1218 C1227 1.390 . S
C1219 C1218 1.387 . S
C1219 C1221 1.387 . S
H1220 C1227 0.950 . S
C1221 C1219 1.387 . S
C1221 C1223 1.390 . S
C1221 H1225 0.950 . S
H1222 C1218 0.950 . S
C1223 C1221 1.390 . S
C1223 C1224 1.387 . S
C1223 H1226 0.950 . S
C1224 C1223 1.387 . S
C1224 C1227 1.387 . S
H1225 C1221 0.950 . S
H1226 C1223 0.950 . S
C1227 C1218 1.390 . S
C1227 H1220 0.950 . S
C1227 C1224 1.387 . S
C1228 C1229 1.387 . S
C1228 H1232 0.950 . S
C1228 C1237 1.390 . S
C1229 C1228 1.387 . S
C1229 C1231 1.387 . S
H1230 C1237 0.950 . S
C1231 C1229 1.387 . S
C1231 C1233 1.390 . S
C1231 H1235 0.950 . S
H1232 C1228 0.950 . S
C1233 C1231 1.390 . S
C1233 C1234 1.387 . S
C1233 H1236 0.950 . S
C1234 C1233 1.387 . S
C1234 C1237 1.387 . S
H1235 C1231 0.950 . S
H1236 C1233 0.950 . S
C1237 C1228 1.390 . S
C1237 H1230 0.950 . S
C1237 C1234 1.387 . S
C1238 C1239 1.387 . S
C1238 H1242 0.950 . S
C1238 C1247 1.390 . S
C1239 C1238 1.387 . S
C1239 C1241 1.387 . S
H1240 C1247 0.950 . S
C1241 C1239 1.387 . S
C1241 C1243 1.390 . S
C1241 H1245 0.950 . S
H1242 C1238 0.950 . S
C1243 C1241 1.390 . S
C1243 C1244 1.387 . S
C1243 H1246 0.950 . S
C1244 C1243 1.387 . S
C1244 C1247 1.387 . S
H1245 C1241 0.950 . S
H1246 C1243 0.950 . S
C1247 C1238 1.390 . S
C1247 H1240 0.950 . S
C1247 C1244 1.387 . S
C1248 C1249 1.387 . S
C1248 H1252 0.950 . S
C1248 C1257 1.390 . S
C1249 C1248 1.387 . S
C1249 C1251 1.387 1_556 S
H1250 C1257 0.950 . S
C1251 C1249 1.387 1_554 S
C1251 C1253 1.390 . S
C1251 H1255 0.950 . S
H1252 C1248 0.950 . S
C1253 C1251 1.390 . S
C1253 C1254 1.387 1_554 S
C1253 H1256 0.950 . S
C1254 C1253 1.387 1_556 S
C1254 C1257 1.387 . S
H1255 C1251 0.950 . S
H1256 C1253 0.950 . S
C1257 C1248 1.390 . S
C1257 H1250 0.950 . S
C1257 C1254 1.387 . S
C1258 C1259 1.387 1_554 S
C1258 H1262 0.950 . S
C1258 C1267 1.390 . S
C1259 C1258 1.387 1_556 S
C1259 C1261 1.387 . S
H1260 C1267 0.950 . S
C1261 C1259 1.387 . S
C1261 C1263 1.390 . S
C1261 H1265 0.950 . S
H1262 C1258 0.950 . S
C1263 C1261 1.390 . S
C1263 C1264 1.387 . S
C1263 H1266 0.950 . S
C1264 C1263 1.387 . S
C1264 C1267 1.387 1_556 S
H1265 C1261 0.950 . S
H1266 C1263 0.950 . S
C1267 C1258 1.390 . S
C1267 H1260 0.950 . S
C1267 C1264 1.387 1_554 S
C1268 C1269 1.387 . S
C1268 H1272 0.950 . S
C1268 C1277 1.390 . S
C1269 C1268 1.387 . S
C1269 C1271 1.387 1_556 S
H1270 C1277 0.950 . S
C1271 C1269 1.387 1_554 S
C1271 C1273 1.390 . S
C1271 H1275 0.950 . S
H1272 C1268 0.950 . S
C1273 C1271 1.390 . S
C1273 C1274 1.387 1_554 S
C1273 H1276 0.950 . S
C1274 C1273 1.387 1_556 S
C1274 C1277 1.387 . S
H1275 C1271 0.950 . S
H1276 C1273 0.950 . S
C1277 C1268 1.390 . S
C1277 H1270 0.950 . S
C1277 C1274 1.387 . S
C1278 C1279 1.387 . S
C1278 H1282 0.950 . S
C1278 C1287 1.390 . S
C1279 C1278 1.387 . S
C1279 C1281 1.387 . S
H1280 C1287 0.950 . S
C1281 C1279 1.387 . S
C1281 C1283 1.390 . S
C1281 H1285 0.950 . S
H1282 C1278 0.950 . S
C1283 C1281 1.390 . S
C1283 C1284 1.387 . S
C1283 H1286 0.950 . S
C1284 C1283 1.387 . S
C1284 C1287 1.387 . S
H1285 C1281 0.950 . S
H1286 C1283 0.950 . S
C1287 C1278 1.390 . S
C1287 H1280 0.950 . S
C1287 C1284 1.387 . S
C1288 C1289 1.387 . S
C1288 H1292 0.950 . S
C1288 C1297 1.390 . S
C1289 C1288 1.387 . S
C1289 C1291 1.387 . S
H1290 C1297 0.950 . S
C1291 C1289 1.387 . S
C1291 C1293 1.390 . S
C1291 H1295 0.950 . S
H1292 C1288 0.950 . S
C1293 C1291 1.390 . S
C1293 C1294 1.387 . S
C1293 H1296 0.950 . S
C1294 C1293 1.387 . S
C1294 C1297 1.387 . S
H1295 C1291 0.950 . S
H1296 C1293 0.950 . S
C1297 C1288 1.390 . S
C1297 H1290 0.950 . S
C1297 C1294 1.387 . S
C1298 C1299 1.387 . S
C1298 H1302 0.950 . S
C1298 C1307 1.390 . S
C1299 C1298 1.387 . S
C1299 C1301 1.387 . S
H1300 C1307 0.950 . S
C1301 C1299 1.387 . S
C1301 C1303 1.390 . S
C1301 H1305 0.950 . S
H1302 C1298 0.950 . S
C1303 C1301 1.390 . S
C1303 C1304 1.387 . S
C1303 H1306 0.950 . S
C1304 C1303 1.387 . S
C1304 C1307 1.387 . S
H1305 C1301 0.950 . S
H1306 C1303 0.950 . S
C1307 C1298 1.390 . S
C1307 H1300 0.950 . S
C1307 C1304 1.387 . S
C1308 C1309 1.387 . S
C1308 H1312 0.950 . S
C1308 C1317 1.390 . S
C1309 C1308 1.387 . S
C1309 C1311 1.387 . S
H1310 C1317 0.950 . S
C1311 C1309 1.387 . S
C1311 C1313 1.390 . S
C1311 H1315 0.950 . S
H1312 C1308 0.950 . S
C1313 C1311 1.390 . S
C1313 C1314 1.387 . S
C1313 H1316 0.950 . S
C1314 C1313 1.387 . S
C1314 C1317 1.387 . S
H1315 C1311 0.950 . S
H1316 C1313 0.950 . S
C1317 C1308 1.390 . S
C1317 H1310 0.950 . S
C1317 C1314 1.387 . S
C1318 C1319 1.387 . S
C1318 H1322 0.950 . S
C1318 C1327 1.390 . S
C1319 C1318 1.387 . S
C1319 C1321 1.387 . S
H1320 C1327 0.950 . S
C1321 C1319 1.387 . S
C1321 C1323 1.390 . S
C1321 H1325 0.950 . S
H1322 C1318 0.950 . S
C1323 C1321 1.390 . S
C1323 C1324 1.387 . S
C1323 H1326 0.950 . S
C1324 C1323 1.387 . S
C1324 C1327 1.387 . S
H1325 C1321 0.950 . S
H1326 C1323 0.950 . S
C1327 C1318 1.390 . S
C1327 H1320 0.950 . S
C1327 C1324 1.387 . S
C1328 C1329 1.387 . S
C1328 H1332 0.950 . S
C1328 C1337 1.390 . S
C1329 C1328 1.387 . S
C1329 C1331 1.387 . S
H1330 C1337 0.950 . S
C1331 C1329 1.387 . S
C1331 C1333 1.390 . S
C1331 H1335 0.950 . S
H1332 C1328 0.950 . S
C1333 C1331 1.390 . S
C1333 C1334 1.387 . S
C1333 H1336 0.950 . S
C1334 C1333 1.387 . S
C1334 C1337 1.387 . S
H1335 C1331 0.950 . S
H1336 C1333 0.950 . S
C1337 C1328 1.390 . S
C1337 H1330 0.950 . S
C1337 C1334 1.387 . S
C1338 C1339 1.387 . S
C1338 H1342 0.950 . S
C1338 C1347 1.390 . S
C1339 C1338 1.387 . S
C1339 C1341 1.387 . S
H1340 C1347 0.950 . S
C1341 C1339 1.387 . S
C1341 C1343 1.390 . S
C1341 H1345 0.950 . S
H1342 C1338 0.950 . S
C1343 C1341 1.390 . S
C1343 C1344 1.387 . S
C1343 H1346 0.950 . S
C1344 C1343 1.387 . S
C1344 C1347 1.387 . S
H1345 C1341 0.950 . S
H1346 C1343 0.950 . S
C1347 C1338 1.390 . S
C1347 H1340 0.950 . S
C1347 C1344 1.387 . S
C1348 C1349 1.387 . S
C1348 H1352 0.950 . S
C1348 C1357 1.390 . S
C1349 C1348 1.387 . S
C1349 C1351 1.387 . S
H1350 C1357 0.950 . S
C1351 C1349 1.387 . S
C1351 C1353 1.390 . S
C1351 H1355 0.950 . S
H1352 C1348 0.950 . S
C1353 C1351 1.390 . S
C1353 C1354 1.387 . S
C1353 H1356 0.950 . S
C1354 C1353 1.387 . S
C1354 C1357 1.387 . S
H1355 C1351 0.950 . S
H1356 C1353 0.950 . S
C1357 C1348 1.390 . S
C1357 H1350 0.950 . S
C1357 C1354 1.387 . S
C1358 C1359 1.387 . S
C1358 H1362 0.950 . S
C1358 C1367 1.390 . S
C1359 C1358 1.387 . S
C1359 C1361 1.387 . S
H1360 C1367 0.950 . S
C1361 C1359 1.387 . S
C1361 C1363 1.390 . S
C1361 H1365 0.950 . S
H1362 C1358 0.950 . S
C1363 C1361 1.390 . S
C1363 C1364 1.387 . S
C1363 H1366 0.950 . S
C1364 C1363 1.387 . S
C1364 C1367 1.387 . S
H1365 C1361 0.950 . S
H1366 C1363 0.950 . S
C1367 C1358 1.390 . S
C1367 H1360 0.950 . S
C1367 C1364 1.387 . S
C1368 C1369 1.387 . S
C1368 H1372 0.950 . S
C1368 C1377 1.390 . S
C1369 C1368 1.387 . S
C1369 C1371 1.387 . S
H1370 C1377 0.950 . S
C1371 C1369 1.387 . S
C1371 C1373 1.390 . S
C1371 H1375 0.950 . S
H1372 C1368 0.950 . S
C1373 C1371 1.390 . S
C1373 C1374 1.387 . S
C1373 H1376 0.950 . S
C1374 C1373 1.387 . S
C1374 C1377 1.387 . S
H1375 C1371 0.950 . S
H1376 C1373 0.950 . S
C1377 C1368 1.390 . S
C1377 H1370 0.950 . S
C1377 C1374 1.387 . S
C1378 C1379 1.387 . S
C1378 H1382 0.950 . S
C1378 C1387 1.390 . S
C1379 C1378 1.387 . S
C1379 C1381 1.387 . S
H1380 C1387 0.950 . S
C1381 C1379 1.387 . S
C1381 C1383 1.390 . S
C1381 H1385 0.950 . S
H1382 C1378 0.950 . S
C1383 C1381 1.390 . S
C1383 C1384 1.387 . S
C1383 H1386 0.950 . S
C1384 C1383 1.387 . S
C1384 C1387 1.387 . S
H1385 C1381 0.950 . S
H1386 C1383 0.950 . S
C1387 C1378 1.390 . S
C1387 H1380 0.950 . S
C1387 C1384 1.387 . S
C1388 C1389 1.387 . S
C1388 H1392 0.950 . S
C1388 C1397 1.390 . S
C1389 C1388 1.387 . S
C1389 C1391 1.387 . S
H1390 C1397 0.950 . S
C1391 C1389 1.387 . S
C1391 C1393 1.390 . S
C1391 H1395 0.950 . S
H1392 C1388 0.950 . S
C1393 C1391 1.390 . S
C1393 C1394 1.387 . S
C1393 H1396 0.950 . S
C1394 C1393 1.387 . S
C1394 C1397 1.387 . S
H1395 C1391 0.950 . S
H1396 C1393 0.950 . S
C1397 C1388 1.390 . S
C1397 H1390 0.950 . S
C1397 C1394 1.387 . S
C1398 C1399 1.387 . S
C1398 H1402 0.950 . S
C1398 C1407 1.390 . S
C1399 C1398 1.387 . S
C1399 C1401 1.387 . S
H1400 C1407 0.950 . S
C1401 C1399 1.387 . S
C1401 C1403 1.390 . S
C1401 H1405 0.950 . S
H1402 C1398 0.950 . S
C1403 C1401 1.390 . S
C1403 C1404 1.387 . S
C1403 H1406 0.950 . S
C1404 C1403 1.387 . S
C1404 C1407 1.387 . S
H1405 C1401 0.950 . S
H1406 C1403 0.950 . S
C1407 C1398 1.390 . S
C1407 H1400 0.950 . S
C1407 C1404 1.387 . S
C1408 C1409 1.387 . S
C1408 H1412 0.950 . S
C1408 C1417 1.390 . S
C1409 C1408 1.387 . S
C1409 C1411 1.387 . S
H1410 C1417 0.950 . S
C1411 C1409 1.387 . S
C1411 C1413 1.390 . S
C1411 H1415 0.950 . S
H1412 C1408 0.950 . S
C1413 C1411 1.390 . S
C1413 C1414 1.387 . S
C1413 H1416 0.950 . S
C1414 C1413 1.387 . S
C1414 C1417 1.387 . S
H1415 C1411 0.950 . S
H1416 C1413 0.950 . S
C1417 C1408 1.390 . S
C1417 H1410 0.950 . S
C1417 C1414 1.387 . S
C1418 C1419 1.387 . S
C1418 H1422 0.950 . S
C1418 C1427 1.390 . S
C1419 C1418 1.387 . S
C1419 C1421 1.387 . S
H1420 C1427 0.950 . S
C1421 C1419 1.387 . S
C1421 C1423 1.390 . S
C1421 H1425 0.950 . S
H1422 C1418 0.950 . S
C1423 C1421 1.390 . S
C1423 C1424 1.387 . S
C1423 H1426 0.950 . S
C1424 C1423 1.387 . S
C1424 C1427 1.387 . S
H1425 C1421 0.950 . S
H1426 C1423 0.950 . S
C1427 C1418 1.390 . S
C1427 H1420 0.950 . S
C1427 C1424 1.387 . S
C1428 C1429 1.387 . S
C1428 H1432 0.950 . S
C1428 C1437 1.390 . S
C1429 C1428 1.387 . S
C1429 C1431 1.387 . S
H1430 C1437 0.950 . S
C1431 C1429 1.387 . S
C1431 C1433 1.390 . S
C1431 H1435 0.950 . S
H1432 C1428 0.950 . S
C1433 C1431 1.390 . S
C1433 C1434 1.387 . S
C1433 H1436 0.950 . S
C1434 C1433 1.387 . S
C1434 C1437 1.387 . S
H1435 C1431 0.950 . S
H1436 C1433 0.950 . S
C1437 C1428 1.390 . S
C1437 H1430 0.950 . S
C1437 C1434 1.387 . S
C1438 C1439 1.387 . S
C1438 H1442 0.950 . S
C1438 C1447 1.390 . S
C1439 C1438 1.387 . S
C1439 C1441 1.387 . S
H1440 C1447 0.950 . S
C1441 C1439 1.387 . S
C1441 C1443 1.390 . S
C1441 H1445 0.950 . S
H1442 C1438 0.950 . S
C1443 C1441 1.390 . S
C1443 C1444 1.387 . S
C1443 H1446 0.950 . S
C1444 C1443 1.387 . S
C1444 C1447 1.387 . S
H1445 C1441 0.950 . S
H1446 C1443 0.950 . S
C1447 C1438 1.390 . S
C1447 H1440 0.950 . S
C1447 C1444 1.387 . S
C1448 C1449 1.387 . S
C1448 H1452 0.950 . S
C1448 C1457 1.390 . S
C1449 C1448 1.387 . S
C1449 C1451 1.387 . S
H1450 C1457 0.950 . S
C1451 C1449 1.387 . S
C1451 C1453 1.390 . S
C1451 H1455 0.950 . S
H1452 C1448 0.950 . S
C1453 C1451 1.390 . S
C1453 C1454 1.387 . S
C1453 H1456 0.950 . S
C1454 C1453 1.387 . S
C1454 C1457 1.387 . S
H1455 C1451 0.950 . S
H1456 C1453 0.950 . S
C1457 C1448 1.390 . S
C1457 H1450 0.950 . S
C1457 C1454 1.387 . S
C1458 C1459 1.387 . S
C1458 H1462 0.950 . S
C1458 C1467 1.390 . S
C1459 C1458 1.387 . S
C1459 C1461 1.387 . S
H1460 C1467 0.950 . S
C1461 C1459 1.387 . S
C1461 C1463 1.390 . S
C1461 H1465 0.950 . S
H1462 C1458 0.950 . S
C1463 C1461 1.390 . S
C1463 C1464 1.387 . S
C1463 H1466 0.950 . S
C1464 C1463 1.387 . S
C1464 C1467 1.387 . S
H1465 C1461 0.950 . S
H1466 C1463 0.950 . S
C1467 C1458 1.390 . S
C1467 H1460 0.950 . S
C1467 C1464 1.387 . S
C1468 C1469 1.387 . S
C1468 H1472 0.950 . S
C1468 C1477 1.390 . S
C1469 C1468 1.387 . S
C1469 C1471 1.387 . S
H1470 C1477 0.950 . S
C1471 C1469 1.387 . S
C1471 C1473 1.390 . S
C1471 H1475 0.950 . S
H1472 C1468 0.950 . S
C1473 C1471 1.390 . S
C1473 C1474 1.387 . S
C1473 H1476 0.950 . S
C1474 C1473 1.387 . S
C1474 C1477 1.387 . S
H1475 C1471 0.950 . S
H1476 C1473 0.950 . S
C1477 C1468 1.390 . S
C1477 H1470 0.950 . S
C1477 C1474 1.387 . S
C1478 C1479 1.387 . S
C1478 H1482 0.950 . S
C1478 C1487 1.390 . S
C1479 C1478 1.387 . S
C1479 C1481 1.387 . S
H1480 C1487 0.950 . S
C1481 C1479 1.387 . S
C1481 C1483 1.390 . S
C1481 H1485 0.950 . S
H1482 C1478 0.950 . S
C1483 C1481 1.390 . S
C1483 C1484 1.387 . S
C1483 H1486 0.950 . S
C1484 C1483 1.387 . S
C1484 C1487 1.387 . S
H1485 C1481 0.950 . S
H1486 C1483 0.950 . S
C1487 C1478 1.390 . S
C1487 H1480 0.950 . S
C1487 C1484 1.387 . S
C1488 C1489 1.387 . S
C1488 H1492 0.950 . S
C1488 C1497 1.390 . S
C1489 C1488 1.387 . S
C1489 C1491 1.387 . S
H1490 C1497 0.950 . S
C1491 C1489 1.387 . S
C1491 C1493 1.390 . S
C1491 H1495 0.950 . S
H1492 C1488 0.950 . S
C1493 C1491 1.390 . S
C1493 C1494 1.387 . S
C1493 H1496 0.950 . S
C1494 C1493 1.387 . S
C1494 C1497 1.387 . S
H1495 C1491 0.950 . S
H1496 C1493 0.950 . S
C1497 C1488 1.390 . S
C1497 H1490 0.950 . S
C1497 C1494 1.387 . S
C1498 C1499 1.387 . S
C1498 H1502 0.950 . S
C1498 C1507 1.390 . S
C1499 C1498 1.387 . S
C1499 C1501 1.387 . S
H1500 C1507 0.950 . S
C1501 C1499 1.387 . S
C1501 C1503 1.390 . S
C1501 H1505 0.950 . S
H1502 C1498 0.950 . S
C1503 C1501 1.390 . S
C1503 C1504 1.387 . S
C1503 H1506 0.950 . S
C1504 C1503 1.387 . S
C1504 C1507 1.387 . S
H1505 C1501 0.950 . S
H1506 C1503 0.950 . S
C1507 C1498 1.390 . S
C1507 H1500 0.950 . S
C1507 C1504 1.387 . S
C1508 C1509 1.387 . S
C1508 H1512 0.950 . S
C1508 C1517 1.390 . S
C1509 C1508 1.387 . S
C1509 C1511 1.387 . S
H1510 C1517 0.950 . S
C1511 C1509 1.387 . S
C1511 C1513 1.390 . S
C1511 H1515 0.950 . S
H1512 C1508 0.950 . S
C1513 C1511 1.390 . S
C1513 C1514 1.387 . S
C1513 H1516 0.950 . S
C1514 C1513 1.387 . S
C1514 C1517 1.387 . S
H1515 C1511 0.950 . S
H1516 C1513 0.950 . S
C1517 C1508 1.390 . S
C1517 H1510 0.950 . S
C1517 C1514 1.387 . S
C1518 C1519 1.387 . S
C1518 H1522 0.950 . S
C1518 C1527 1.390 . S
C1519 C1518 1.387 . S
C1519 C1521 1.387 . S
H1520 C1527 0.950 . S
C1521 C1519 1.387 . S
C1521 C1523 1.390 . S
C1521 H1525 0.950 . S
H1522 C1518 0.950 . S
C1523 C1521 1.390 . S
C1523 C1524 1.387 . S
C1523 H1526 0.950 . S
C1524 C1523 1.387 . S
C1524 C1527 1.387 . S
H1525 C1521 0.950 . S
H1526 C1523 0.950 . S
C1527 C1518 1.390 . S
C1527 H1520 0.950 . S
C1527 C1524 1.387 . S
C1528 C1529 1.387 . S
C1528 H1532 0.950 . S
C1528 C1537 1.390 . S
C1529 C1528 1.387 . S
C1529 C1531 1.387 . S
H1530 C1537 0.950 . S
C1531 C1529 1.387 . S
C1531 C1533 1.390 . S
C1531 H1535 0.950 . S
H1532 C1528 0.950 . S
C1533 C1531 1.390 . S
C1533 C1534 1.387 . S
C1533 H1536 0.950 . S
C1534 C1533 1.387 . S
C1534 C1537 1.387 . S
H1535 C1531 0.950 . S
H1536 C1533 0.950 . S
C1537 C1528 1.390 . S
C1537 H1530 0.950 . S
C1537 C1534 1.387 . S
C1538 C1539 1.387 . S
C1538 H1542 0.950 . S
C1538 C1547 1.390 . S
C1539 C1538 1.387 . S
C1539 C1541 1.387 . S
H1540 C1547 0.950 . S
C1541 C1539 1.387 . S
C1541 C1543 1.390 . S
C1541 H1545 0.950 . S
H1542 C1538 0.950 . S
C1543 C1541 1.390 . S
C1543 C1544 1.387 . S
C1543 H1546 0.950 . S
C1544 C1543 1.387 . S
C1544 C1547 1.387 . S
H1545 C1541 0.950 . S
H1546 C1543 0.950 . S
C1547 C1538 1.390 . S
C1547 H1540 0.950 . S
C1547 C1544 1.387 . S
C1548 C1549 1.387 . S
C1548 H1552 0.950 . S
C1548 C1557 1.390 . S
C1549 C1548 1.387 . S
C1549 C1551 1.387 . S
H1550 C1557 0.950 . S
C1551 C1549 1.387 . S
C1551 C1553 1.390 . S
C1551 H1555 0.950 . S
H1552 C1548 0.950 . S
C1553 C1551 1.390 . S
C1553 C1554 1.387 . S
C1553 H1556 0.950 . S
C1554 C1553 1.387 . S
C1554 C1557 1.387 . S
H1555 C1551 0.950 . S
H1556 C1553 0.950 . S
C1557 C1548 1.390 . S
C1557 H1550 0.950 . S
C1557 C1554 1.387 . S
C1558 C1559 1.387 . S
C1558 H1562 0.950 . S
C1558 C1567 1.390 1_545 S
C1559 C1558 1.387 . S
C1559 C1561 1.387 . S
H1560 C1567 0.950 . S
C1561 C1559 1.387 . S
C1561 C1563 1.390 1_545 S
C1561 H1565 0.950 . S
H1562 C1558 0.950 . S
C1563 C1561 1.390 1_565 S
C1563 C1564 1.387 . S
C1563 H1566 0.950 . S
C1564 C1563 1.387 . S
C1564 C1567 1.387 . S
H1565 C1561 0.950 . S
H1566 C1563 0.950 . S
C1567 C1558 1.390 1_565 S
C1567 H1560 0.950 . S
C1567 C1564 1.387 . S
C1568 C1569 1.387 . S
C1568 H1572 0.950 . S
C1568 C1577 1.390 . S
C1569 C1568 1.387 . S
C1569 C1571 1.387 1_655 S
H1570 C1577 0.950 . S
C1571 C1569 1.387 1_455 S
C1571 C1573 1.390 . S
C1571 H1575 0.950 . S
H1572 C1568 0.950 . S
C1573 C1571 1.390 . S
C1573 C1574 1.387 . S
C1573 H1576 0.950 . S
C1574 C1573 1.387 . S
C1574 C1577 1.387 1_455 S
H1575 C1571 0.950 . S
H1576 C1573 0.950 . S
C1577 C1568 1.390 . S
C1577 H1570 0.950 . S
C1577 C1574 1.387 1_655 S
C1578 C1579 1.387 . S
C1578 H1582 0.950 . S
C1578 C1587 1.390 . S
C1579 C1578 1.387 . S
C1579 C1581 1.387 . S
H1580 C1587 0.950 . S
C1581 C1579 1.387 . S
C1581 C1583 1.390 . S
C1581 H1585 0.950 . S
H1582 C1578 0.950 . S
C1583 C1581 1.390 . S
C1583 C1584 1.387 . S
C1583 H1586 0.950 . S
C1584 C1583 1.387 . S
C1584 C1587 1.387 . S
H1585 C1581 0.950 . S
H1586 C1583 0.950 . S
C1587 C1578 1.390 . S
C1587 H1580 0.950 . S
C1587 C1584 1.387 . S
C1588 C1589 1.387 . S
C1588 H1592 0.950 . S
C1588 C1597 1.390 1_545 S
C1589 C1588 1.387 . S
C1589 C1591 1.387 . S
H1590 C1597 0.950 . S
C1591 C1589 1.387 . S
C1591 C1593 1.390 1_545 S
C1591 H1595 0.950 . S
H1592 C1588 0.950 . S
C1593 C1591 1.390 1_565 S
C1593 C1594 1.387 . S
C1593 H1596 0.950 . S
C1594 C1593 1.387 . S
C1594 C1597 1.387 . S
H1595 C1591 0.950 . S
H1596 C1593 0.950 . S
C1597 C1588 1.390 1_565 S
C1597 H1590 0.950 . S
C1597 C1594 1.387 . S
C1598 C1599 1.387 . S
C1598 H1602 0.950 . S
C1598 C1607 1.390 . S
C1599 C1598 1.387 . S
C1599 C1601 1.387 1_655 S
H1600 C1607 0.950 . S
C1601 C1599 1.387 1_455 S
C1601 C1603 1.390 . S
C1601 H1605 0.950 . S
H1602 C1598 0.950 . S
C1603 C1601 1.390 . S
C1603 C1604 1.387 . S
C1603 H1606 0.950 . S
C1604 C1603 1.387 . S
C1604 C1607 1.387 1_455 S
H1605 C1601 0.950 . S
H1606 C1603 0.950 . S
C1607 C1598 1.390 . S
C1607 H1600 0.950 . S
C1607 C1604 1.387 1_655 S
C1608 C1609 1.387 . S
C1608 H1612 0.950 . S
C1608 C1617 1.390 . S
C1609 C1608 1.387 . S
C1609 C1611 1.387 . S
H1610 C1617 0.950 . S
C1611 C1609 1.387 . S
C1611 C1613 1.390 . S
C1611 H1615 0.950 . S
H1612 C1608 0.950 . S
C1613 C1611 1.390 . S
C1613 C1614 1.387 . S
C1613 H1616 0.950 . S
C1614 C1613 1.387 . S
C1614 C1617 1.387 . S
H1615 C1611 0.950 . S
H1616 C1613 0.950 . S
C1617 C1608 1.390 . S
C1617 H1610 0.950 . S
C1617 C1614 1.387 . S
C1618 C1619 1.387 . S
C1618 H1622 0.950 . S
C1618 C1627 1.390 . S
C1619 C1618 1.387 . S
C1619 C1621 1.387 . S
H1620 C1627 0.950 . S
C1621 C1619 1.387 . S
C1621 C1623 1.390 . S
C1621 H1625 0.950 . S
H1622 C1618 0.950 . S
C1623 C1621 1.390 . S
C1623 C1624 1.387 . S
C1623 H1626 0.950 . S
C1624 C1623 1.387 . S
C1624 C1627 1.387 . S
H1625 C1621 0.950 . S
H1626 C1623 0.950 . S
C1627 C1618 1.390 . S
C1627 H1620 0.950 . S
C1627 C1624 1.387 . S
C1628 C1629 1.387 . S
C1628 H1632 0.950 . S
C1628 C1637 1.390 . S
C1629 C1628 1.387 . S
C1629 C1631 1.387 . S
H1630 C1637 0.950 . S
C1631 C1629 1.387 . S
C1631 C1633 1.390 . S
C1631 H1635 0.950 . S
H1632 C1628 0.950 . S
C1633 C1631 1.390 . S
C1633 C1634 1.387 . S
C1633 H1636 0.950 . S
C1634 C1633 1.387 . S
C1634 C1637 1.387 . S
H1635 C1631 0.950 . S
H1636 C1633 0.950 . S
C1637 C1628 1.390 . S
C1637 H1630 0.950 . S
C1637 C1634 1.387 . S
C1638 C1639 1.387 . S
C1638 H1642 0.950 . S
C1638 C1647 1.390 . S
C1639 C1638 1.387 . S
C1639 C1641 1.387 . S
H1640 C1647 0.950 . S
C1641 C1639 1.387 . S
C1641 C1643 1.390 . S
C1641 H1645 0.950 . S
H1642 C1638 0.950 . S
C1643 C1641 1.390 . S
C1643 C1644 1.387 . S
C1643 H1646 0.950 . S
C1644 C1643 1.387 . S
C1644 C1647 1.387 . S
H1645 C1641 0.950 . S
H1646 C1643 0.950 . S
C1647 C1638 1.390 . S
C1647 H1640 0.950 . S
C1647 C1644 1.387 . S
C1648 C1649 1.387 . S
C1648 H1652 0.950 . S
C1648 C1657 1.390 . S
C1649 C1648 1.387 . S
C1649 C1651 1.387 . S
H1650 C1657 0.950 . S
C1651 C1649 1.387 . S
C1651 C1653 1.390 . S
C1651 H1655 0.950 . S
H1652 C1648 0.950 . S
C1653 C1651 1.390 . S
C1653 C1654 1.387 . S
C1653 H1656 0.950 . S
C1654 C1653 1.387 . S
C1654 C1657 1.387 . S
H1655 C1651 0.950 . S
H1656 C1653 0.950 . S
C1657 C1648 1.390 . S
C1657 H1650 0.950 . S
C1657 C1654 1.387 . S
C1658 C1659 1.387 . S
C1658 H1662 0.950 . S
C1658 C1667 1.390 . S
C1659 C1658 1.387 . S
C1659 C1661 1.387 . S
H1660 C1667 0.950 . S
C1661 C1659 1.387 . S
C1661 C1663 1.390 . S
C1661 H1665 0.950 . S
H1662 C1658 0.950 . S
C1663 C1661 1.390 . S
C1663 C1664 1.387 . S
C1663 H1666 0.950 . S
C1664 C1663 1.387 . S
C1664 C1667 1.387 . S
H1665 C1661 0.950 . S
H1666 C1663 0.950 . S
C1667 C1658 1.390 . S
C1667 H1660 0.950 . S
C1667 C1664 1.387 . S
C1668 C1669 1.387 . S
C1668 H1672 0.950 . S
C1668 C1677 1.390 . S
C1669 C1668 1.387 . S
C1669 C1671 1.387 . S
H1670 C1677 0.950 . S
C1671 C1669 1.387 . S
C1671 C1673 1.390 . S
C1671 H1675 0.950 . S
H1672 C1668 0.950 . S
C1673 C1671 1.390 . S
C1673 C1674 1.387 . S
C1673 H1676 0.950 . S
C1674 C1673 1.387 . S
C1674 C1677 1.387 . S
H1675 C1671 0.950 . S
H1676 C1673 0.950 . S
C1677 C1668 1.390 . S
C1677 H1670 0.950 . S
C1677 C1674 1.387 . S
C1678 C1679 1.387 . S
C1678 H1682 0.950 . S
C1678 C1687 1.390 . S
C1679 C1678 1.387 . S
C1679 C1681 1.387 . S
H1680 C1687 0.950 . S
C1681 C1679 1.387 . S
C1681 C1683 1.390 . S
C1681 H1685 0.950 . S
H1682 C1678 0.950 . S
C1683 C1681 1.390 . S
C1683 C1684 1.387 . S
C1683 H1686 0.950 . S
C1684 C1683 1.387 . S
C1684 C1687 1.387 . S
H1685 C1681 0.950 . S
H1686 C1683 0.950 . S
C1687 C1678 1.390 . S
C1687 H1680 0.950 . S
C1687 C1684 1.387 . S
C1688 C1689 1.387 . S
C1688 H1692 0.950 . S
C1688 C1697 1.390 . S
C1689 C1688 1.387 . S
C1689 C1691 1.387 . S
H1690 C1697 0.950 . S
C1691 C1689 1.387 . S
C1691 C1693 1.390 . S
C1691 H1695 0.950 . S
H1692 C1688 0.950 . S
C1693 C1691 1.390 . S
C1693 C1694 1.387 . S
C1693 H1696 0.950 . S
C1694 C1693 1.387 . S
C1694 C1697 1.387 . S
H1695 C1691 0.950 . S
H1696 C1693 0.950 . S
C1697 C1688 1.390 . S
C1697 H1690 0.950 . S
C1697 C1694 1.387 . S
C1698 C1699 1.387 . S
C1698 H1702 0.950 . S
C1698 C1707 1.390 . S
C1699 C1698 1.387 . S
C1699 C1701 1.387 . S
H1700 C1707 0.950 . S
C1701 C1699 1.387 . S
C1701 C1703 1.390 . S
C1701 H1705 0.950 . S
H1702 C1698 0.950 . S
C1703 C1701 1.390 . S
C1703 C1704 1.387 . S
C1703 H1706 0.950 . S
C1704 C1703 1.387 . S
C1704 C1707 1.387 . S
H1705 C1701 0.950 . S
H1706 C1703 0.950 . S
C1707 C1698 1.390 . S
C1707 H1700 0.950 . S
C1707 C1704 1.387 . S
C1708 C1709 1.387 . S
C1708 H1712 0.950 . S
C1708 C1717 1.390 . S
C1709 C1708 1.387 . S
C1709 C1711 1.387 . S
H1710 C1717 0.950 . S
C1711 C1709 1.387 . S
C1711 C1713 1.390 . S
C1711 H1715 0.950 . S
H1712 C1708 0.950 . S
C1713 C1711 1.390 . S
C1713 C1714 1.387 . S
C1713 H1716 0.950 . S
C1714 C1713 1.387 . S
C1714 C1717 1.387 . S
H1715 C1711 0.950 . S
H1716 C1713 0.950 . S
C1717 C1708 1.390 . S
C1717 H1710 0.950 . S
C1717 C1714 1.387 . S
C1718 C1719 1.387 . S
C1718 H1722 0.950 . S
C1718 C1727 1.390 . S
C1719 C1718 1.387 . S
C1719 C1721 1.387 . S
H1720 C1727 0.950 . S
C1721 C1719 1.387 . S
C1721 C1723 1.390 . S
C1721 H1725 0.950 . S
H1722 C1718 0.950 . S
C1723 C1721 1.390 . S
C1723 C1724 1.387 . S
C1723 H1726 0.950 . S
C1724 C1723 1.387 . S
C1724 C1727 1.387 . S
H1725 C1721 0.950 . S
H1726 C1723 0.950 . S
C1727 C1718 1.390 . S
C1727 H1720 0.950 . S
C1727 C1724 1.387 . S
C1728 C1729 1.387 . S
C1728 H1732 0.950 . S
C1728 C1737 1.390 . S
C1729 C1728 1.387 . S
C1729 C1731 1.387 . S
H1730 C1737 0.950 . S
C1731 C1729 1.387 . S
C1731 C1733 1.390 . S
C1731 H1735 0.950 . S
H1732 C1728 0.950 . S
C1733 C1731 1.390 . S
C1733 C1734 1.387 . S
C1733 H1736 0.950 . S
C1734 C1733 1.387 . S
C1734 C1737 1.387 . S
H1735 C1731 0.950 . S
H1736 C1733 0.950 . S
C1737 C1728 1.390 . S
C1737 H1730 0.950 . S
C1737 C1734 1.387 . S
C1738 C1739 1.387 . S
C1738 H1742 0.950 . S
C1738 C1747 1.390 . S
C1739 C1738 1.387 . S
C1739 C1741 1.387 . S
H1740 C1747 0.950 . S
C1741 C1739 1.387 . S
C1741 C1743 1.390 . S
C1741 H1745 0.950 . S
H1742 C1738 0.950 . S
C1743 C1741 1.390 . S
C1743 C1744 1.387 . S
C1743 H1746 0.950 . S
C1744 C1743 1.387 . S
C1744 C1747 1.387 . S
H1745 C1741 0.950 . S
H1746 C1743 0.950 . S
C1747 C1738 1.390 . S
C1747 H1740 0.950 . S
C1747 C1744 1.387 . S
C1748 C1749 1.387 . S
C1748 H1752 0.950 . S
C1748 C1757 1.390 . S
C1749 C1748 1.387 . S
C1749 C1751 1.387 . S
H1750 C1757 0.950 . S
C1751 C1749 1.387 . S
C1751 C1753 1.390 . S
C1751 H1755 0.950 . S
H1752 C1748 0.950 . S
C1753 C1751 1.390 . S
C1753 C1754 1.387 . S
C1753 H1756 0.950 . S
C1754 C1753 1.387 . S
C1754 C1757 1.387 . S
H1755 C1751 0.950 . S
H1756 C1753 0.950 . S
C1757 C1748 1.390 . S
C1757 H1750 0.950 . S
C1757 C1754 1.387 . S
C1758 C1759 1.387 . S
C1758 H1762 0.950 . S
C1758 C1767 1.390 . S
C1759 C1758 1.387 . S
C1759 C1761 1.387 . S
H1760 C1767 0.950 . S
C1761 C1759 1.387 . S
C1761 C1763 1.390 . S
C1761 H1765 0.950 . S
H1762 C1758 0.950 . S
C1763 C1761 1.390 . S
C1763 C1764 1.387 . S
C1763 H1766 0.950 . S
C1764 C1763 1.387 . S
C1764 C1767 1.387 . S
H1765 C1761 0.950 . S
H1766 C1763 0.950 . S
C1767 C1758 1.390 . S
C1767 H1760 0.950 . S
C1767 C1764 1.387 . S
C1768 C1769 1.387 . S
C1768 H1772 0.950 . S
C1768 C1777 1.390 . S
C1769 C1768 1.387 . S
C1769 C1771 1.387 . S
H1770 C1777 0.950 . S
C1771 C1769 1.387 . S
C1771 C1773 1.390 . S
C1771 H1775 0.950 . S
H1772 C1768 0.950 . S
C1773 C1771 1.390 . S
C1773 C1774 1.387 . S
C1773 H1776 0.950 . S
C1774 C1773 1.387 . S
C1774 C1777 1.387 . S
H1775 C1771 0.950 . S
H1776 C1773 0.950 . S
C1777 C1768 1.390 . S
C1777 H1770 0.950 . S
C1777 C1774 1.387 . S
C1778 C1779 1.387 . S
C1778 H1782 0.950 . S
C1778 C1787 1.390 . S
C1779 C1778 1.387 . S
C1779 C1781 1.387 . S
H1780 C1787 0.950 . S
C1781 C1779 1.387 . S
C1781 C1783 1.390 . S
C1781 H1785 0.950 . S
H1782 C1778 0.950 . S
C1783 C1781 1.390 . S
C1783 C1784 1.387 . S
C1783 H1786 0.950 . S
C1784 C1783 1.387 . S
C1784 C1787 1.387 . S
H1785 C1781 0.950 . S
H1786 C1783 0.950 . S
C1787 C1778 1.390 . S
C1787 H1780 0.950 . S
C1787 C1784 1.387 . S
C1788 C1789 1.387 . S
C1788 H1792 0.950 . S
C1788 C1797 1.390 . S
C1789 C1788 1.387 . S
C1789 C1791 1.387 . S
H1790 C1797 0.950 . S
C1791 C1789 1.387 . S
C1791 C1793 1.390 . S
C1791 H1795 0.950 . S
H1792 C1788 0.950 . S
C1793 C1791 1.390 . S
C1793 C1794 1.387 . S
C1793 H1796 0.950 . S
C1794 C1793 1.387 . S
C1794 C1797 1.387 . S
H1795 C1791 0.950 . S
H1796 C1793 0.950 . S
C1797 C1788 1.390 . S
C1797 H1790 0.950 . S
C1797 C1794 1.387 . S
C1798 C1799 1.387 . S
C1798 H1802 0.950 . S
C1798 C1807 1.390 . S
C1799 C1798 1.387 . S
C1799 C1801 1.387 . S
H1800 C1807 0.950 . S
C1801 C1799 1.387 . S
C1801 C1803 1.390 . S
C1801 H1805 0.950 . S
H1802 C1798 0.950 . S
C1803 C1801 1.390 . S
C1803 C1804 1.387 . S
C1803 H1806 0.950 . S
C1804 C1803 1.387 . S
C1804 C1807 1.387 . S
H1805 C1801 0.950 . S
H1806 C1803 0.950 . S
C1807 C1798 1.390 . S
C1807 H1800 0.950 . S
C1807 C1804 1.387 . S
C1808 C1809 1.387 . S
C1808 H1812 0.950 . S
C1808 C1817 1.390 . S
C1809 C1808 1.387 . S
C1809 C1811 1.387 . S
H1810 C1817 0.950 . S
C1811 C1809 1.387 . S
C1811 C1813 1.390 . S
C1811 H1815 0.950 . S
H1812 C1808 0.950 . S
C1813 C1811 1.390 . S
C1813 C1814 1.387 . S
C1813 H1816 0.950 . S
C1814 C1813 1.387 . S
C1814 C1817 1.387 . S
H1815 C1811 0.950 . S
H1816 C1813 0.950 . S
C1817 C1808 1.390 . S
C1817 H1810 0.950 . S
C1817 C1814 1.387 . S
C1818 C1819 1.387 . S
C1818 H1822 0.950 . S
C1818 C1827 1.390 . S
C1819 C1818 1.387 . S
C1819 C1821 1.387 . S
H1820 C1827 0.950 . S
C1821 C1819 1.387 . S
C1821 C1823 1.390 . S
C1821 H1825 0.950 . S
H1822 C1818 0.950 . S
C1823 C1821 1.390 . S
C1823 C1824 1.387 . S
C1823 H1826 0.950 . S
C1824 C1823 1.387 . S
C1824 C1827 1.387 . S
H1825 C1821 0.950 . S
H1826 C1823 0.950 . S
C1827 C1818 1.390 . S
C1827 H1820 0.950 . S
C1827 C1824 1.387 . S
C1828 C1829 1.387 . S
C1828 H1832 0.950 . S
C1828 C1837 1.390 . S
C1829 C1828 1.387 . S
C1829 C1831 1.387 . S
H1830 C1837 0.950 . S
C1831 C1829 1.387 . S
C1831 C1833 1.390 . S
C1831 H1835 0.950 . S
H1832 C1828 0.950 . S
C1833 C1831 1.390 . S
C1833 C1834 1.387 . S
C1833 H1836 0.950 . S
C1834 C1833 1.387 . S
C1834 C1837 1.387 . S
H1835 C1831 0.950 . S
H1836 C1833 0.950 . S
C1837 C1828 1.390 . S
C1837 H1830 0.950 . S
C1837 C1834 1.387 . S
C1838 C1839 1.387 . S
C1838 H1842 0.950 . S
C1838 C1847 1.390 . S
C1839 C1838 1.387 . S
C1839 C1841 1.387 . S
H1840 C1847 0.950 . S
C1841 C1839 1.387 . S
C1841 C1843 1.390 . S
C1841 H1845 0.950 . S
H1842 C1838 0.950 . S
C1843 C1841 1.390 . S
C1843 C1844 1.387 . S
C1843 H1846 0.950 . S
C1844 C1843 1.387 . S
C1844 C1847 1.387 . S
H1845 C1841 0.950 . S
H1846 C1843 0.950 . S
C1847 C1838 1.390 . S
C1847 H1840 0.950 . S
C1847 C1844 1.387 . S
C1848 C1849 1.387 . S
C1848 H1852 0.950 . S
C1848 C1857 1.390 1_455 S
C1849 C1848 1.387 . S
C1849 C1851 1.387 . S
H1850 C1857 0.950 . S
C1851 C1849 1.387 . S
C1851 C1853 1.390 1_455 S
C1851 H1855 0.950 . S
H1852 C1848 0.950 . S
C1853 C1851 1.390 1_655 S
C1853 C1854 1.387 . S
C1853 H1856 0.950 . S
C1854 C1853 1.387 . S
C1854 C1857 1.387 . S
H1855 C1851 0.950 . S
H1856 C1853 0.950 . S
C1857 C1848 1.390 1_655 S
C1857 H1850 0.950 . S
C1857 C1854 1.387 . S
C1858 C1859 1.387 . S
C1858 H1862 0.950 . S
C1858 C1867 1.390 . S
C1859 C1858 1.387 . S
C1859 C1861 1.387 . S
H1860 C1867 0.950 . S
C1861 C1859 1.387 . S
C1861 C1863 1.390 . S
C1861 H1865 0.950 . S
H1862 C1858 0.950 . S
C1863 C1861 1.390 . S
C1863 C1864 1.387 . S
C1863 H1866 0.950 . S
C1864 C1863 1.387 . S
C1864 C1867 1.387 . S
H1865 C1861 0.950 . S
H1866 C1863 0.950 . S
C1867 C1858 1.390 . S
C1867 H1860 0.950 . S
C1867 C1864 1.387 . S
C1868 C1869 1.387 . S
C1868 H1872 0.950 . S
C1868 C1877 1.390 1_545 S
C1869 C1868 1.387 . S
C1869 C1871 1.387 . S
H1870 C1877 0.950 . S
C1871 C1869 1.387 . S
C1871 C1873 1.390 1_545 S
C1871 H1875 0.950 . S
H1872 C1868 0.950 . S
C1873 C1871 1.390 1_565 S
C1873 C1874 1.387 . S
C1873 H1876 0.950 . S
C1874 C1873 1.387 . S
C1874 C1877 1.387 . S
H1875 C1871 0.950 . S
H1876 C1873 0.950 . S
C1877 C1868 1.390 1_565 S
C1877 H1870 0.950 . S
C1877 C1874 1.387 . S
C1878 C1879 1.387 . S
C1878 H1882 0.950 . S
C1878 C1887 1.390 1_545 S
C1879 C1878 1.387 . S
C1879 C1881 1.387 . S
H1880 C1887 0.950 . S
C1881 C1879 1.387 . S
C1881 C1883 1.390 1_545 S
C1881 H1885 0.950 . S
H1882 C1878 0.950 . S
C1883 C1881 1.390 1_565 S
C1883 C1884 1.387 . S
C1883 H1886 0.950 . S
C1884 C1883 1.387 . S
C1884 C1887 1.387 . S
H1885 C1881 0.950 . S
H1886 C1883 0.950 . S
C1887 C1878 1.390 1_565 S
C1887 H1880 0.950 . S
C1887 C1884 1.387 . S
C1888 C1889 1.387 . S
C1888 H1892 0.950 . S
C1888 C1897 1.390 1_655 S
C1889 C1888 1.387 . S
C1889 C1891 1.387 . S
H1890 C1897 0.950 . S
C1891 C1889 1.387 . S
C1891 C1893 1.390 1_655 S
C1891 H1895 0.950 . S
H1892 C1888 0.950 . S
C1893 C1891 1.390 1_455 S
C1893 C1894 1.387 . S
C1893 H1896 0.950 . S
C1894 C1893 1.387 . S
C1894 C1897 1.387 . S
H1895 C1891 0.950 . S
H1896 C1893 0.950 . S
C1897 C1888 1.390 1_455 S
C1897 H1890 0.950 . S
C1897 C1894 1.387 . S
C1898 C1899 1.387 . S
C1898 H1902 0.950 . S
C1898 C1907 1.390 . S
C1899 C1898 1.387 . S
C1899 C1901 1.387 . S
H1900 C1907 0.950 . S
C1901 C1899 1.387 . S
C1901 C1903 1.390 . S
C1901 H1905 0.950 . S
H1902 C1898 0.950 . S
C1903 C1901 1.390 . S
C1903 C1904 1.387 . S
C1903 H1906 0.950 . S
C1904 C1903 1.387 . S
C1904 C1907 1.387 . S
H1905 C1901 0.950 . S
H1906 C1903 0.950 . S
C1907 C1898 1.390 . S
C1907 H1900 0.950 . S
C1907 C1904 1.387 . S
C1908 C1909 1.387 . S
C1908 H1912 0.950 . S
C1908 C1917 1.390 . S
C1909 C1908 1.387 . S
C1909 C1911 1.387 . S
H1910 C1917 0.950 . S
C1911 C1909 1.387 . S
C1911 C1913 1.390 . S
C1911 H1915 0.950 . S
H1912 C1908 0.950 . S
C1913 C1911 1.390 . S
C1913 C1914 1.387 . S
C1913 H1916 0.950 . S
C1914 C1913 1.387 . S
C1914 C1917 1.387 . S
H1915 C1911 0.950 . S
H1916 C1913 0.950 . S
C1917 C1908 1.390 . S
C1917 H1910 0.950 . S
C1917 C1914 1.387 . S
C1918 C1919 1.387 . S
C1918 H1922 0.950 . S
C1918 C1927 1.390 . S
C1919 C1918 1.387 . S
C1919 C1921 1.387 . S
H1920 C1927 0.950 . S
C1921 C1919 1.387 . S
C1921 C1923 1.390 . S
C1921 H1925 0.950 . S
H1922 C1918 0.950 . S
C1923 C1921 1.390 . S
C1923 C1924 1.387 . S
C1923 H1926 0.950 . S
C1924 C1923 1.387 . S
C1924 C1927 1.387 . S
H1925 C1921 0.950 . S
H1926 C1923 0.950 . S
C1927 C1918 1.390 . S
C1927 H1920 0.950 . S
C1927 C1924 1.387 . S
C1928 C1929 1.387 . S
C1928 H1932 0.950 . S
C1928 C1937 1.390 . S
C1929 C1928 1.387 . S
C1929 C1931 1.387 . S
H1930 C1937 0.950 . S
C1931 C1929 1.387 . S
C1931 C1933 1.390 . S
C1931 H1935 0.950 . S
H1932 C1928 0.950 . S
C1933 C1931 1.390 . S
C1933 C1934 1.387 . S
C1933 H1936 0.950 . S
C1934 C1933 1.387 . S
C1934 C1937 1.387 . S
H1935 C1931 0.950 . S
H1936 C1933 0.950 . S
C1937 C1928 1.390 . S
C1937 H1930 0.950 . S
C1937 C1934 1.387 . S
C1938 C1939 1.387 . S
C1938 H1942 0.950 . S
C1938 C1947 1.390 . S
C1939 C1938 1.387 . S
C1939 C1941 1.387 . S
H1940 C1947 0.950 . S
C1941 C1939 1.387 . S
C1941 C1943 1.390 . S
C1941 H1945 0.950 . S
H1942 C1938 0.950 . S
C1943 C1941 1.390 . S
C1943 C1944 1.387 . S
C1943 H1946 0.950 . S
C1944 C1943 1.387 . S
C1944 C1947 1.387 . S
H1945 C1941 0.950 . S
H1946 C1943 0.950 . S
C1947 C1938 1.390 . S
C1947 H1940 0.950 . S
C1947 C1944 1.387 . S
C1948 C1949 1.387 . S
C1948 H1952 0.950 . S
C1948 C1957 1.390 . S
C1949 C1948 1.387 . S
C1949 C1951 1.387 . S
H1950 C1957 0.950 . S
C1951 C1949 1.387 . S
C1951 C1953 1.390 . S
C1951 H1955 0.950 . S
H1952 C1948 0.950 . S
C1953 C1951 1.390 . S
C1953 C1954 1.387 . S
C1953 H1956 0.950 . S
C1954 C1953 1.387 . S
C1954 C1957 1.387 . S
H1955 C1951 0.950 . S
H1956 C1953 0.950 . S
C1957 C1948 1.390 . S
C1957 H1950 0.950 . S
C1957 C1954 1.387 . S
C1958 C1959 1.387 . S
C1958 H1962 0.950 . S
C1958 C1967 1.390 . S
C1959 C1958 1.387 . S
C1959 C1961 1.387 . S
H1960 C1967 0.950 . S
C1961 C1959 1.387 . S
C1961 C1963 1.390 . S
C1961 H1965 0.950 . S
H1962 C1958 0.950 . S
C1963 C1961 1.390 . S
C1963 C1964 1.387 . S
C1963 H1966 0.950 . S
C1964 C1963 1.387 . S
C1964 C1967 1.387 . S
H1965 C1961 0.950 . S
H1966 C1963 0.950 . S
C1967 C1958 1.390 . S
C1967 H1960 0.950 . S
C1967 C1964 1.387 . S
C1968 C1969 1.387 . S
C1968 H1972 0.950 . S
C1968 C1977 1.390 . S
C1969 C1968 1.387 . S
C1969 C1971 1.387 . S
H1970 C1977 0.950 . S
C1971 C1969 1.387 . S
C1971 C1973 1.390 . S
C1971 H1975 0.950 . S
H1972 C1968 0.950 . S
C1973 C1971 1.390 . S
C1973 C1974 1.387 . S
C1973 H1976 0.950 . S
C1974 C1973 1.387 . S
C1974 C1977 1.387 . S
H1975 C1971 0.950 . S
H1976 C1973 0.950 . S
C1977 C1968 1.390 . S
C1977 H1970 0.950 . S
C1977 C1974 1.387 . S
C1978 C1979 1.387 . S
C1978 H1982 0.950 . S
C1978 C1987 1.390 . S
C1979 C1978 1.387 . S
C1979 C1981 1.387 . S
H1980 C1987 0.950 . S
C1981 C1979 1.387 . S
C1981 C1983 1.390 . S
C1981 H1985 0.950 . S
H1982 C1978 0.950 . S
C1983 C1981 1.390 . S
C1983 C1984 1.387 . S
C1983 H1986 0.950 . S
C1984 C1983 1.387 . S
C1984 C1987 1.387 . S
H1985 C1981 0.950 . S
H1986 C1983 0.950 . S
C1987 C1978 1.390 . S
C1987 H1980 0.950 . S
C1987 C1984 1.387 . S
C1988 C1989 1.387 . S
C1988 H1992 0.950 . S
C1988 C1997 1.390 . S
C1989 C1988 1.387 . S
C1989 C1991 1.387 . S
H1990 C1997 0.950 . S
C1991 C1989 1.387 . S
C1991 C1993 1.390 . S
C1991 H1995 0.950 . S
H1992 C1988 0.950 . S
C1993 C1991 1.390 . S
C1993 C1994 1.387 . S
C1993 H1996 0.950 . S
C1994 C1993 1.387 . S
C1994 C1997 1.387 . S
H1995 C1991 0.950 . S
H1996 C1993 0.950 . S
C1997 C1988 1.390 . S
C1997 H1990 0.950 . S
C1997 C1994 1.387 . S
C1998 C1999 1.387 . S
C1998 H2002 0.950 . S
C1998 C2007 1.390 . S
C1999 C1998 1.387 . S
C1999 C2001 1.387 . S
H2000 C2007 0.950 . S
C2001 C1999 1.387 . S
C2001 C2003 1.390 . S
C2001 H2005 0.950 . S
H2002 C1998 0.950 . S
C2003 C2001 1.390 . S
C2003 C2004 1.387 . S
C2003 H2006 0.950 . S
C2004 C2003 1.387 . S
C2004 C2007 1.387 . S
H2005 C2001 0.950 . S
H2006 C2003 0.950 . S
C2007 C1998 1.390 . S
C2007 H2000 0.950 . S
C2007 C2004 1.387 . S
C2008 C2009 1.387 . S
C2008 H2012 0.950 . S
C2008 C2017 1.390 . S
C2009 C2008 1.387 . S
C2009 C2011 1.387 . S
H2010 C2017 0.950 . S
C2011 C2009 1.387 . S
C2011 C2013 1.390 . S
C2011 H2015 0.950 . S
H2012 C2008 0.950 . S
C2013 C2011 1.390 . S
C2013 C2014 1.387 . S
C2013 H2016 0.950 . S
C2014 C2013 1.387 . S
C2014 C2017 1.387 . S
H2015 C2011 0.950 . S
H2016 C2013 0.950 . S
C2017 C2008 1.390 . S
C2017 H2010 0.950 . S
C2017 C2014 1.387 . S
C2018 C2019 1.387 . S
C2018 H2022 0.950 . S
C2018 C2027 1.390 . S
C2019 C2018 1.387 . S
C2019 C2021 1.387 . S
H2020 C2027 0.950 . S
C2021 C2019 1.387 . S
C2021 C2023 1.390 . S
C2021 H2025 0.950 . S
H2022 C2018 0.950 . S
C2023 C2021 1.390 . S
C2023 C2024 1.387 . S
C2023 H2026 0.950 . S
C2024 C2023 1.387 . S
C2024 C2027 1.387 . S
H2025 C2021 0.950 . S
H2026 C2023 0.950 . S
C2027 C2018 1.390 . S
C2027 H2020 0.950 . S
C2027 C2024 1.387 . S
C2028 C2029 1.387 . S
C2028 H2032 0.950 . S
C2028 C2037 1.390 1_455 S
C2029 C2028 1.387 . S
C2029 C2031 1.387 . S
H2030 C2037 0.950 . S
C2031 C2029 1.387 . S
C2031 C2033 1.390 1_455 S
C2031 H2035 0.950 . S
H2032 C2028 0.950 . S
C2033 C2031 1.390 1_655 S
C2033 C2034 1.387 . S
C2033 H2036 0.950 . S
C2034 C2033 1.387 . S
C2034 C2037 1.387 . S
H2035 C2031 0.950 . S
H2036 C2033 0.950 . S
C2037 C2028 1.390 1_655 S
C2037 H2030 0.950 . S
C2037 C2034 1.387 . S
C2038 C2039 1.387 . S
C2038 H2042 0.950 . S
C2038 C2047 1.390 . S
C2039 C2038 1.387 . S
C2039 C2041 1.387 . S
H2040 C2047 0.950 . S
C2041 C2039 1.387 . S
C2041 C2043 1.390 . S
C2041 H2045 0.950 . S
H2042 C2038 0.950 . S
C2043 C2041 1.390 . S
C2043 C2044 1.387 . S
C2043 H2046 0.950 . S
C2044 C2043 1.387 . S
C2044 C2047 1.387 . S
H2045 C2041 0.950 . S
H2046 C2043 0.950 . S
C2047 C2038 1.390 . S
C2047 H2040 0.950 . S
C2047 C2044 1.387 . S
C2048 C2049 1.387 . S
C2048 H2052 0.950 . S
C2048 C2057 1.390 1_545 S
C2049 C2048 1.387 . S
C2049 C2051 1.387 . S
H2050 C2057 0.950 . S
C2051 C2049 1.387 . S
C2051 C2053 1.390 1_545 S
C2051 H2055 0.950 . S
H2052 C2048 0.950 . S
C2053 C2051 1.390 1_565 S
C2053 C2054 1.387 . S
C2053 H2056 0.950 . S
C2054 C2053 1.387 . S
C2054 C2057 1.387 . S
H2055 C2051 0.950 . S
H2056 C2053 0.950 . S
C2057 C2048 1.390 1_565 S
C2057 H2050 0.950 . S
C2057 C2054 1.387 . S
C2058 C2059 1.387 . S
C2058 H2062 0.950 . S
C2058 C2067 1.390 1_545 S
C2059 C2058 1.387 . S
C2059 C2061 1.387 . S
H2060 C2067 0.950 . S
C2061 C2059 1.387 . S
C2061 C2063 1.390 1_545 S
C2061 H2065 0.950 . S
H2062 C2058 0.950 . S
C2063 C2061 1.390 1_565 S
C2063 C2064 1.387 . S
C2063 H2066 0.950 . S
C2064 C2063 1.387 . S
C2064 C2067 1.387 . S
H2065 C2061 0.950 . S
H2066 C2063 0.950 . S
C2067 C2058 1.390 1_565 S
C2067 H2060 0.950 . S
C2067 C2064 1.387 . S
C2068 C2069 1.387 . S
C2068 H2072 0.950 . S
C2068 C2077 1.390 1_455 S
C2069 C2068 1.387 . S
C2069 C2071 1.387 . S
H2070 C2077 0.950 . S
C2071 C2069 1.387 . S
C2071 C2073 1.390 1_455 S
C2071 H2075 0.950 . S
H2072 C2068 0.950 . S
C2073 C2071 1.390 1_655 S
C2073 C2074 1.387 . S
C2073 H2076 0.950 . S
C2074 C2073 1.387 . S
C2074 C2077 1.387 . S
H2075 C2071 0.950 . S
H2076 C2073 0.950 . S
C2077 C2068 1.390 1_655 S
C2077 H2070 0.950 . S
C2077 C2074 1.387 . S
C2078 C2079 1.387 . S
C2078 H2082 0.950 . S
C2078 C2087 1.390 . S
C2079 C2078 1.387 . S
C2079 C2081 1.387 . S
H2080 C2087 0.950 . S
C2081 C2079 1.387 . S
C2081 C2083 1.390 . S
C2081 H2085 0.950 . S
H2082 C2078 0.950 . S
C2083 C2081 1.390 . S
C2083 C2084 1.387 . S
C2083 H2086 0.950 . S
C2084 C2083 1.387 . S
C2084 C2087 1.387 . S
H2085 C2081 0.950 . S
H2086 C2083 0.950 . S
C2087 C2078 1.390 . S
C2087 H2080 0.950 . S
C2087 C2084 1.387 . S
C1189 C252 1.423 . S
C1194 N13 1.397 . S
C1199 N46 1.397 . S
C1204 C285 1.424 . S
C1209 C219 1.423 . S
C1214 N79 1.397 . S
C1219 C384 1.423 . S
C1224 N112 1.397 . S
C1229 C318 1.423 . S
C1234 N145 1.397 . S
C1239 N178 1.397 . S
C1244 C351 1.423 . S
C1249 N211 1.397 . S
C1254 C54 1.423 . S
C1259 N244 1.397 . S
C1264 C87 1.424 . S
C1269 N277 1.397 . S
C1274 C21 1.423 . S
C1279 C186 1.423 . S
C1284 N310 1.397 . S
C1289 C120 1.425 . S
C1294 N343 1.398 . S
C1299 N376 1.397 . S
C1304 C153 1.423 . S
C1309 C648 1.425 . S
C1314 N409 1.397 . S
C1319 C681 1.423 . S
C1324 N442 1.397 . S
C1329 C615 1.425 . S
C1334 N475 1.398 . S
C1339 C780 1.423 . S
C1344 N508 1.397 . S
C1349 C714 1.425 . S
C1354 N541 1.397 . S
C1359 C747 1.424 . S
C1364 N574 1.397 . S
C1369 N607 1.398 . S
C1374 C450 1.425 . S
C1379 N640 1.397 . S
C1384 C483 1.423 . S
C1389 C417 1.423 . S
C1394 N673 1.397 . S
C1399 N706 1.398 . S
C1404 C582 1.425 . S
C1409 N739 1.397 . S
C1414 C516 1.424 . S
C1419 N772 1.397 . S
C1424 C549 1.425 . S
C1429 C1044 1.423 . S
C1434 N805 1.397 . S
C1439 C1077 1.425 . S
C1444 N838 1.397 . S
C1449 N871 1.397 . S
C1454 C1011 1.423 . S
C1459 N904 1.398 . S
C1464 C1176 1.425 . S
C1469 N937 1.397 . S
C1474 C1110 1.423 . S
C1479 N970 1.397 . S
C1484 C1143 1.423 . S
C1489 C846 1.423 . S
C1494 N1003 1.397 . S
C1499 C879 1.425 . S
C1504 N1036 1.397 . S
C1509 N1069 1.397 . S
C1514 C813 1.423 . S
C1519 C978 1.423 . S
C1524 N1102 1.397 . S
C1529 C912 1.425 . S
C1534 N1135 1.397 . S
C1539 N1168 1.397 . S
C1544 C945 1.425 . S
C1549 C7 1.669 . S
C1554 C106 1.669 . S
C1559 C40 1.672 . S
C1564 C139 1.672 . S
C1569 C73 1.672 . S
C1574 C172 1.671 . S
C1579 C304 1.672 . S
C1584 C205 1.672 . S
C1589 C337 1.672 . S
C1594 C238 1.672 . S
C1599 C370 1.668 . S
C1604 C271 1.668 . S
C1609 C403 1.672 . S
C1614 C502 1.672 . S
C1619 C436 1.672 . S
C1624 C535 1.672 . S
C1629 C568 1.669 . S
C1634 C469 1.668 . S
C1639 C601 1.668 . S
C1644 C700 1.668 1_554 S
C1649 C733 1.672 1_554 S
C1654 C634 1.672 . S
C1659 C766 1.671 1_554 S
C1664 C667 1.672 . S
C1669 C898 1.668 1_556 S
C1674 C799 1.669 . S
C1679 C931 1.668 1_556 S
C1684 C832 1.668 . S
C1689 C964 1.671 1_556 S
C1694 C865 1.672 . S
C1699 C1096 1.669 . S
C1704 C997 1.669 . S
C1709 C1129 1.671 . S
C1714 C1030 1.671 . S
C1719 C1063 1.672 . S
C1724 C1162 1.671 . S
C1729 C18 2.277 . S
C1734 C546 2.277 . S
C1739 C579 2.277 . S
C1744 C51 2.276 . S
C1749 C84 2.277 . S
C1754 C513 2.277 . S
C1759 C876 2.276 . S
C1764 C117 2.276 . S
C1769 C150 2.276 . S
C1774 C810 2.277 . S
C1779 C843 2.277 . S
C1784 C183 2.277 . S
C1789 C1140 2.277 . S
C1794 C216 2.276 . S
C1799 C249 2.276 . S
C1804 C1173 2.277 . S
C1809 C1107 2.276 . S
C1814 C282 2.276 . S
C1819 C315 2.276 . S
C1824 C678 2.276 . S
C1829 C348 2.277 . S
C1834 C612 2.277 . S
C1839 C645 2.276 . S
C1844 C381 2.277 . S
C1849 C942 2.277 . S
C1854 C414 2.277 . S
C1859 C975 2.276 . S
C1864 C447 2.277 . S
C1869 C480 2.276 . S
C1874 C909 2.276 . S
C1879 C711 2.277 . S
C1884 C1074 2.277 . S
C1889 C744 2.277 . S
C1894 C1008 2.277 . S
C1899 C1041 2.277 . S
C1904 C777 2.276 . S
C1909 N959 0.735 . S
C1914 N2 0.735 . S
C1919 N893 0.736 . S
C1924 N35 0.733 . S
C1929 N926 0.733 . S
C1934 N68 0.728 . S
C1939 N101 0.727 . S
C1944 N431 0.731 . S
C1949 N134 0.733 . S
C1954 N464 0.728 . S
C1959 N398 0.727 . S
C1964 N167 0.727 . S
C1969 N200 0.727 . S
C1974 N761 0.727 . S
C1979 N695 0.735 . S
C1984 N233 0.730 . S
C1989 N266 0.734 . S
C1994 N728 0.729 . S
C1999 N299 0.727 . S
C2004 N1025 0.732 . S
C2009 N1058 0.728 . S
C2014 N332 0.733 . S
C2019 N365 0.735 . S
C2024 N992 0.735 . S
C2029 N827 0.731 . S
C2034 N497 0.727 . S
C2039 N530 0.726 . S
C2044 N860 0.728 . S
C2049 N563 0.727 . S
C2054 N794 0.727 . S
C2059 N596 0.735 . S
C2064 N1157 0.735 . S
C2069 N1091 0.735 . S
C2074 N629 0.730 . S
C2079 N1124 0.729 . S
C2084 N662 0.734 . S
