# Generated by pormake.
# Topology wme, (6)-cn, num edge types: 1
# Building blocks:
#     Node 0, Type 0, BuildingBlock: MIDCAF_clean_sbu_0, # of connection points: 6
#     Node 1, Type 0, BuildingBlock: MIDCAF_clean_sbu_0, # of connection points: 6
#     Node 2, Type 0, BuildingBlock: MIDCAF_clean_sbu_0, # of connection points: 6
#     Node 3, Type 0, BuildingBlock: MIDCAF_clean_sbu_0, # of connection points: 6
#     Node 4, Type 0, BuildingBlock: MIDCAF_clean_sbu_0, # of connection points: 6
#     Node 5, Type 0, BuildingBlock: MIDCAF_clean_sbu_0, # of connection points: 6
#     Node 6, Type 0, BuildingBlock: MIDCAF_clean_sbu_0, # of connection points: 6
#     Node 7, Type 0, BuildingBlock: MIDCAF_clean_sbu_0, # of connection points: 6
#     Node 8, Type 0, BuildingBlock: MIDCAF_clean_sbu_0, # of connection points: 6
#     Node 9, Type 0, BuildingBlock: MIDCAF_clean_sbu_0, # of connection points: 6
#     Node 10, Type 0, BuildingBlock: MIDCAF_clean_sbu_0, # of connection points: 6
#     Node 11, Type 0, BuildingBlock: MIDCAF_clean_sbu_0, # of connection points: 6
#     Edge 12, Type (0, 0), BuildingBlock: OJICUG_clean_linker_0, # of connection points: 2
#     Edge 13, Type (0, 0), BuildingBlock: OJICUG_clean_linker_0, # of connection points: 2
#     Edge 14, Type (0, 0), BuildingBlock: OJICUG_clean_linker_0, # of connection points: 2
#     Edge 15, Type (0, 0), BuildingBlock: OJICUG_clean_linker_0, # of connection points: 2
#     Edge 16, Type (0, 0), BuildingBlock: OJICUG_clean_linker_0, # of connection points: 2
#     Edge 17, Type (0, 0), BuildingBlock: OJICUG_clean_linker_0, # of connection points: 2
#     Edge 18, Type (0, 0), BuildingBlock: OJICUG_clean_linker_0, # of connection points: 2
#     Edge 19, Type (0, 0), BuildingBlock: OJICUG_clean_linker_0, # of connection points: 2
#     Edge 20, Type (0, 0), BuildingBlock: OJICUG_clean_linker_0, # of connection points: 2
#     Edge 21, Type (0, 0), BuildingBlock: OJICUG_clean_linker_0, # of connection points: 2
#     Edge 22, Type (0, 0), BuildingBlock: OJICUG_clean_linker_0, # of connection points: 2
#     Edge 23, Type (0, 0), BuildingBlock: OJICUG_clean_linker_0, # of connection points: 2
#     Edge 24, Type (0, 0), BuildingBlock: OJICUG_clean_linker_0, # of connection points: 2
#     Edge 25, Type (0, 0), BuildingBlock: OJICUG_clean_linker_0, # of connection points: 2
#     Edge 26, Type (0, 0), BuildingBlock: OJICUG_clean_linker_0, # of connection points: 2
#     Edge 27, Type (0, 0), BuildingBlock: OJICUG_clean_linker_0, # of connection points: 2
#     Edge 28, Type (0, 0), BuildingBlock: OJICUG_clean_linker_0, # of connection points: 2
#     Edge 29, Type (0, 0), BuildingBlock: OJICUG_clean_linker_0, # of connection points: 2
#     Edge 30, Type (0, 0), BuildingBlock: OJICUG_clean_linker_0, # of connection points: 2
#     Edge 31, Type (0, 0), BuildingBlock: OJICUG_clean_linker_0, # of connection points: 2
#     Edge 32, Type (0, 0), BuildingBlock: OJICUG_clean_linker_0, # of connection points: 2
#     Edge 33, Type (0, 0), BuildingBlock: OJICUG_clean_linker_0, # of connection points: 2
#     Edge 34, Type (0, 0), BuildingBlock: OJICUG_clean_linker_0, # of connection points: 2
#     Edge 35, Type (0, 0), BuildingBlock: OJICUG_clean_linker_0, # of connection points: 2
#     Edge 36, Type (0, 0), BuildingBlock: OJICUG_clean_linker_0, # of connection points: 2
#     Edge 37, Type (0, 0), BuildingBlock: OJICUG_clean_linker_0, # of connection points: 2
#     Edge 38, Type (0, 0), BuildingBlock: OJICUG_clean_linker_0, # of connection points: 2
#     Edge 39, Type (0, 0), BuildingBlock: OJICUG_clean_linker_0, # of connection points: 2
#     Edge 40, Type (0, 0), BuildingBlock: OJICUG_clean_linker_0, # of connection points: 2
#     Edge 41, Type (0, 0), BuildingBlock: OJICUG_clean_linker_0, # of connection points: 2
#     Edge 42, Type (0, 0), BuildingBlock: OJICUG_clean_linker_0, # of connection points: 2
#     Edge 43, Type (0, 0), BuildingBlock: OJICUG_clean_linker_0, # of connection points: 2
#     Edge 44, Type (0, 0), BuildingBlock: OJICUG_clean_linker_0, # of connection points: 2
#     Edge 45, Type (0, 0), BuildingBlock: OJICUG_clean_linker_0, # of connection points: 2
#     Edge 46, Type (0, 0), BuildingBlock: OJICUG_clean_linker_0, # of connection points: 2
#     Edge 47, Type (0, 0), BuildingBlock: OJICUG_clean_linker_0, # of connection points: 2
# Relax obj value: 0.386
# Max RMSD: 0.269
# Mean RMSD: 0.269
data_MOF--net-wme--node1-MIDCAF_clean_sbu_0--edge1-OJICUG_clean_linker_0
_symmetry_space_group_name_H-M    P1
_symmetry_Int_Tables_number       1
_symmetry_cell_setting            triclinic
loop_
_symmetry_equiv_pos_as_xyz
'x, y, z'
_cell_length_a     21.062032
_cell_length_b     21.031445
_cell_length_c     43.193411
_cell_angle_alpha  90.543004
_cell_angle_beta   89.782532
_cell_angle_gamma 119.79431
loop_
_atom_site_label
_atom_site_type_symbol
_atom_site_fract_x
_atom_site_fract_y
_atom_site_fract_z
_atom_type_partial_charge
Zn0 Zn 0.14377 0.20717 0.13214 0.0
Zn1 Zn 0.2478 0.43055 0.09835 0.0
Zn2 Zn 0.20815 0.33145 0.13087 0.0
C3 C 0.15661 0.44246 0.14407 0.0
C4 C 0.36833 0.44874 0.13391 0.0
O5 O 0.27808 0.29557 0.15197 0.0
O6 O 0.23712 0.21548 0.11434 0.0
C7 C 0.04421 0.25104 0.12098 0.0
O8 O 0.14468 0.37826 0.1514 0.0
O9 O 0.19857 0.47615 0.12173 0.0
O10 O 0.35254 0.46848 0.1089 0.0
O11 O 0.31801 0.39599 0.14924 0.0
O12 O 0.06131 0.20784 0.10753 0.0
O13 O 0.09139 0.30051 0.13933 0.0
O14 O 0.13671 0.31498 0.17046 0.0
O15 O 0.13693 0.21283 0.18019 0.0
C16 C 0.13068 0.2665 0.19006 0.0
O17 O 0.1947 0.29111 0.08339 0.0
O18 O 0.21511 0.3865 0.05625 0.0
C19 C 0.28336 0.24701 0.13578 0.0
C20 C 0.19939 0.32023 0.05714 0.0
Zn21 Zn 0.78169 0.21967 0.60188 0.0
Zn22 Zn 0.92205 0.14008 0.64509 0.0
Zn23 Zn 0.85748 0.1915 0.62698 0.0
C24 C 0.85988 0.16245 0.69427 0.0
C25 C 0.79993 0.03698 0.61205 0.0
O26 O 0.86233 0.15804 0.57887 0.0
O27 O 0.84449 0.24673 0.56353 0.0
C28 C 0.87919 0.33696 0.63723 0.0
O29 O 0.81479 0.14929 0.6721 0.0
O30 O 0.92529 0.17976 0.6882 0.0
O31 O 0.83388 0.04253 0.63682 0.0
O32 O 0.81879 0.09509 0.59613 0.0
O33 O 0.81044 0.29914 0.63443 0.0
O34 O 0.91824 0.30951 0.62796 0.0
O35 O 0.75682 0.15337 0.65426 0.0
O36 O 0.69582 0.11984 0.61065 0.0
C37 C 0.69545 0.11775 0.63992 0.0
O38 O 0.97105 0.2791 0.6322 0.0
O39 O -0.00409 0.19872 0.61207 0.0
C40 C 0.8721 0.20636 0.55843 0.0
C41 C 0.01744 0.26467 0.61932 0.0
Zn42 Zn 0.76747 0.92092 0.14454 0.0
Zn43 Zn 0.54767 0.82202 0.09894 0.0
Zn44 Zn 0.66218 0.88915 0.12143 0.0
C45 C 0.56773 0.72231 0.12906 0.0
C46 C 0.55544 0.93403 0.13444 0.0
O47 O 0.70804 0.00652 0.13089 0.0
O48 O 0.81083 0.01031 0.11832 0.0
C49 C 0.75161 0.82465 0.09994 0.0
O50 O 0.60117 0.78149 0.14537 0.0
O51 O 0.54786 0.72623 0.10194 0.0
O52 O 0.51805 0.8647 0.1352 0.0
O53 O 0.62036 0.96348 0.12351 0.0
O54 O 0.76107 0.82694 0.1289 0.0
O55 O 0.72521 0.86275 0.08851 0.0
O56 O 0.63858 0.83349 0.16578 0.0
O57 O 0.73225 0.92927 0.18678 0.0
C58 C 0.67089 0.87225 0.18987 0.0
O59 O 0.68789 0.88753 0.07294 0.0
O60 O 0.58606 0.88627 0.0615 0.0
C61 C 0.77485 0.04324 0.12195 0.0
C62 C 0.65111 0.90436 0.05447 0.0
Zn63 Zn 0.83417 0.75208 0.64758 0.0
Zn64 Zn 0.72169 0.54722 0.58792 0.0
Zn65 Zn 0.7676 0.65742 0.61348 0.0
C66 C 0.83544 0.55753 0.61752 0.0
C67 C 0.61419 0.55238 0.62225 0.0
O68 O 0.69236 0.7002 0.61865 0.0
O69 O 0.78856 0.80672 0.63001 0.0
C70 C 0.91929 0.75281 0.59734 0.0
O71 O 0.80844 0.58901 0.63444 0.0
O72 O 0.81348 0.54089 0.59001 0.0
O73 O 0.64343 0.51229 0.6215 0.0
O74 O 0.65235 0.61918 0.61384 0.0
O75 O 0.92297 0.75808 0.62657 0.0
O76 O 0.85687 0.72646 0.58412 0.0
O77 O 0.79652 0.62165 0.65773 0.0
O78 O 0.80709 0.70863 0.68966 0.0
C79 C 0.80125 0.64651 0.68554 0.0
O80 O 0.79956 0.68564 0.56501 0.0
O81 O 0.7036 0.58395 0.54909 0.0
C82 C 0.72313 0.77024 0.62074 0.0
C83 C 0.75358 0.64852 0.54351 0.0
Zn84 Zn 0.0572 0.85006 0.1622 0.0
Zn85 Zn 0.19073 0.77082 0.08262 0.0
Zn86 Zn 0.13111 0.81516 0.12311 0.0
C87 C 0.30131 0.90078 0.10886 0.0
C88 C 0.12005 0.66462 0.13008 0.0
O89 O 0.03466 0.80139 0.09792 0.0
O90 O 0.97641 0.82917 0.1336 0.0
C91 C 0.19916 0.97426 0.15419 0.0
O92 O 0.24554 0.90237 0.12006 0.0
O93 O 0.29278 0.84585 0.09335 0.0
O94 O 0.14108 0.67064 0.10226 0.0
O95 O 0.12221 0.71928 0.14433 0.0
O96 O 0.13967 0.95289 0.16862 0.0
O97 O 0.20607 0.93044 0.13526 0.0
O98 O 0.1102 0.75645 0.16856 0.0
O99 O 0.03789 0.7823 0.19664 0.0
C100 C 0.07552 0.75105 0.19404 0.0
O101 O 0.07278 0.78282 0.07651 0.0
O102 O 0.15096 0.78038 0.04284 0.0
C103 C 0.97998 0.80844 0.10647 0.0
C104 C 0.09028 0.77641 0.0483 0.0
Zn105 Zn 0.19242 0.0736 0.66504 0.0
Zn106 Zn 0.40838 0.17899 0.58079 0.0
Zn107 Zn 0.30828 0.13154 0.62655 0.0
C108 C 0.39176 0.29717 0.60091 0.0
C109 C 0.44905 0.1262 0.63677 0.0
O110 O 0.22274 0.03358 0.60499 0.0
O111 O 0.13123 0.98634 0.63856 0.0
C112 C 0.22142 0.21516 0.64648 0.0
O113 O 0.34209 0.24619 0.61748 0.0
O114 O 0.43042 0.28308 0.58274 0.0
O115 O 0.46264 0.14426 0.60857 0.0
O116 O 0.39372 0.12391 0.6503 0.0
O117 O 0.17875 0.16161 0.66317 0.0
O118 O 0.27291 0.21315 0.6312 0.0
O119 O 0.34385 0.11669 0.67419 0.0
O120 O 0.24207 0.0636 0.70189 0.0
C121 C 0.3106 0.09105 0.70023 0.0
O122 O 0.27591 0.05962 0.58261 0.0
O123 O 0.3539 0.11571 0.54452 0.0
C124 C 0.1585 0.98355 0.61286 0.0
C125 C 0.2951 0.06191 0.55392 0.0
Zn126 Zn 0.54433 0.74594 0.41 0.0
Zn127 Zn 0.74982 0.8466 0.35555 0.0
Zn128 Zn 0.64831 0.77866 0.38238 0.0
C129 C 0.6483 0.79756 0.31358 0.0
C130 C 0.73523 0.93253 0.3992 0.0
O131 O 0.68635 0.81072 0.42975 0.0
O132 O 0.58517 0.71414 0.44441 0.0
C133 C 0.53382 0.63987 0.36652 0.0
O134 O 0.62292 0.81093 0.33826 0.0
O135 O 0.70566 0.79318 0.31547 0.0
O136 O 0.74244 0.93504 0.37004 0.0
O137 O 0.71241 0.87067 0.41261 0.0
O138 O 0.50306 0.67698 0.37306 0.0
O139 O 0.59873 0.66211 0.37674 0.0
O140 O 0.58815 0.82648 0.3605 0.0
O141 O 0.56111 0.84889 0.40689 0.0
C142 C 0.56726 0.86218 0.37821 0.0
O143 O 0.68994 0.70199 0.37887 0.0
O144 O 0.79308 0.80586 0.38436 0.0
C145 C 0.65206 0.75876 0.44912 0.0
C146 C 0.75709 0.7373 0.38788 0.0
Zn147 Zn 0.86723 0.75498 0.83636 0.0
Zn148 Zn 0.7784 0.55229 0.91474 0.0
Zn149 Zn 0.83342 0.65308 0.87459 0.0
C150 C 0.6648 0.56701 0.89357 0.0
C151 C 0.8402 0.50932 0.86603 0.0
O152 O 0.93999 0.73751 0.89209 0.0
O153 O 0.96212 0.81802 0.8551 0.0
C154 C 0.74478 0.74414 0.85766 0.0
O155 O 0.72017 0.62427 0.88255 0.0
O156 O 0.67374 0.51991 0.90777 0.0
O157 O 0.82297 0.49788 0.89431 0.0
O158 O 0.83842 0.56186 0.85186 0.0
O159 O 0.79174 0.78376 0.83793 0.0
O160 O 0.75269 0.69496 0.87218 0.0
O161 O 0.84563 0.61 0.82893 0.0
O162 O 0.87089 0.70469 0.7992 0.0
C163 C 0.85967 0.64041 0.80213 0.0
O164 O 0.90477 0.68924 0.91719 0.0
O165 O 0.82777 0.61233 0.95159 0.0
C166 C 0.9829 0.79818 0.87861 0.0
C167 C 0.88829 0.66841 0.94559 0.0
Zn168 Zn 0.14102 0.89239 0.35219 0.0
Zn169 Zn 0.21129 0.76322 0.41219 0.0
Zn170 Zn 0.17592 0.83187 0.38582 0.0
C171 C 0.11684 0.66421 0.37729 0.0
C172 C 0.32401 0.86461 0.37497 0.0
O173 O 0.26669 0.94716 0.38698 0.0
O174 O 0.19348 -0.01102 0.37387 0.0
C175 C 0.02604 0.78969 0.39266 0.0
O176 O 0.14613 0.72511 0.36255 0.0
O177 O 0.11974 0.66644 0.40648 0.0
O178 O 0.29324 0.79667 0.38034 0.0
O179 O 0.29246 0.90038 0.3837 0.0
O180 O 0.03969 0.81299 0.36515 0.0
O181 O 0.07935 0.81008 0.41185 0.0
O182 O 0.14199 0.77327 0.34067 0.0
O183 O 0.18256 0.87382 0.31345 0.0
C184 C 0.16037 0.80596 0.31442 0.0
O185 O 0.13963 0.83811 0.43409 0.0
O186 O 0.229 0.82215 0.45056 0.0
C187 C 0.25351 0.00046 0.38518 0.0
C188 C 0.18546 0.84599 0.45569 0.0
Zn189 Zn 0.21918 0.17115 0.82 0.0
Zn190 Zn 0.41588 0.25327 0.91562 0.0
Zn191 Zn 0.30877 0.20119 0.889 0.0
C192 C 0.39986 0.1252 0.89233 0.0
C193 C 0.41612 0.34968 0.87193 0.0
O194 O 0.26834 0.27595 0.88126 0.0
O195 O 0.17254 0.2096 0.85085 0.0
C196 C 0.19951 0.05129 0.8507 0.0
O197 O 0.36552 0.1435 0.87311 0.0
O198 O 0.42017 0.15936 0.91782 0.0
O199 O 0.45641 0.32301 0.87903 0.0
O200 O 0.34815 0.31341 0.87847 0.0
O201 O 0.17872 0.05816 0.82409 0.0
O202 O 0.24159 0.10892 0.86553 0.0
O203 O 0.34377 0.16229 0.84646 0.0
O204 O 0.32993 0.23571 0.81483 0.0
C205 C 0.35641 0.19443 0.81984 0.0
O206 O 0.27097 0.17208 0.93534 0.0
O207 O 0.36422 0.2774 0.94898 0.0
C208 C 0.20221 0.25504 0.87301 0.0
C209 C 0.30044 0.22554 0.95442 0.0
Zn210 Zn 0.08757 0.16582 0.37457 0.0
Zn211 Zn 0.19606 0.37707 0.42708 0.0
Zn212 Zn 0.13456 0.28431 0.39276 0.0
C213 C 0.28237 0.3942 0.37492 0.0
C214 C 0.1312 0.41777 0.37807 0.0
O215 O 0.02051 0.22785 0.40839 0.0
O216 O -0.00164 0.11501 0.40032 0.0
C217 C 0.22021 0.20182 0.4015 0.0
O218 O 0.21831 0.36754 0.36256 0.0
O219 O 0.28754 0.39456 0.40422 0.0
O220 O 0.13975 0.42346 0.40721 0.0
O221 O 0.14708 0.37416 0.36314 0.0
O222 O 0.17264 0.15387 0.38381 0.0
O223 O 0.21347 0.25581 0.4106 0.0
O224 O 0.13655 0.30853 0.34236 0.0
O225 O 0.07626 0.19041 0.33143 0.0
C226 C 0.10435 0.25592 0.32241 0.0
O227 O 0.06724 0.28678 0.43196 0.0
O228 O 0.15381 0.32019 0.467 0.0
C229 C 0.97826 0.15843 0.41078 0.0
C230 C 0.08666 0.29292 0.46051 0.0
Zn231 Zn 0.82226 0.02892 0.87479 0.0
Zn232 Zn 0.75258 0.19082 0.9098 0.0
Zn233 Zn 0.77502 0.10556 0.88803 0.0
C234 C 0.85154 0.26653 0.86947 0.0
C235 C 0.62905 0.08603 0.87951 0.0
O236 O 0.68528 -0.00802 0.88379 0.0
O237 O 0.75648 0.96347 0.90887 0.0
C238 C 0.93121 0.14507 0.90635 0.0
O239 O 0.81371 0.20199 0.85763 0.0
O240 O 0.85212 0.27312 0.89858 0.0
O241 O 0.66804 0.15516 0.87951 0.0
O242 O 0.6569 0.0481 0.88941 0.0
O243 O 0.92501 0.10314 0.88409 0.0
O244 O 0.87335 0.14245 0.91774 0.0
O245 O 0.8143 0.13972 0.84254 0.0
O246 O 0.78869 0.02775 0.83043 0.0
C247 C 0.80257 0.09094 0.82197 0.0
O248 O 0.81117 0.11298 0.93578 0.0
O249 O 0.73006 0.14273 0.95101 0.0
C250 C 0.69369 0.94353 0.89814 0.0
C251 C 0.76859 0.11375 0.95699 0.0
C252 C 0.30144 0.08761 0.13105 0.0
C253 C 0.25597 0.05241 0.15644 0.0
H254 H 0.35491 0.18701 0.10537 0.0
C255 C 0.25402 0.09547 0.18115 0.0
H256 H 0.3058 0.05616 0.112 0.0
C257 C 0.28421 0.17104 0.17764 0.0
C258 C 0.31295 0.20276 0.14884 0.0
H259 H 0.22167 0.06993 0.20161 0.0
H260 H 0.27156 0.20072 0.19495 0.0
C261 C 0.331 0.16318 0.12752 0.0
C262 C 0.19497 0.28804 0.60932 0.0
C263 C 0.20187 0.27208 0.64021 0.0
H264 H 0.12789 0.30562 0.57744 0.0
C265 C 0.16874 0.29231 0.66361 0.0
H266 H 0.22092 0.2741 0.59083 0.0
C267 C 0.11779 0.31378 0.65584 0.0
C268 C 0.09643 0.30972 0.62481 0.0
H269 H 0.17465 0.2821 0.68768 0.0
H270 H 0.08454 0.31743 0.67423 0.0
C271 C 0.14232 0.30738 0.60163 0.0
C272 C 0.85242 0.1597 0.14848 0.0
C273 C 0.8177 0.12355 0.12081 0.0
H274 H 0.95541 0.23169 0.1703 0.0
C275 C 0.85334 0.15304 0.09266 0.0
H276 H 0.82631 0.13775 0.17053 0.0
C277 C 0.92769 0.20565 0.09251 0.0
C278 C 0.96634 0.23087 0.12051 0.0
H279 H 0.82791 0.12613 0.07098 0.0
H280 H 0.95688 0.21887 0.07068 0.0
C281 C 0.92688 0.21315 0.14837 0.0
C282 C 0.72284 0.85038 0.58063 0.0
C283 C 0.69132 0.81317 0.60839 0.0
H284 H 0.78556 0.95609 0.55968 0.0
C285 C 0.66836 0.84723 0.63016 0.0
H286 H 0.74024 0.82492 0.56334 0.0
C287 C 0.69246 0.92209 0.62769 0.0
C288 C 0.7404 0.96324 0.60366 0.0
H289 H 0.64372 0.82007 0.65172 0.0
H290 H 0.68412 0.94978 0.64726 0.0
C291 C 0.74914 0.92593 0.57851 0.0
C292 C 0.91884 0.84718 0.069 0.0
C293 C 0.91837 0.79037 0.08588 0.0
H294 H 0.85781 0.90028 0.05794 0.0
C295 C 0.85129 0.72887 0.09348 0.0
H296 H 0.97024 0.89482 0.06274 0.0
C297 C 0.78701 0.73201 0.0908 0.0
C298 C 0.79072 0.79719 0.08104 0.0
H299 H 0.84995 0.68413 0.10628 0.0
H300 H 0.738 0.68999 0.10192 0.0
C301 C 0.85421 0.85001 0.0661 0.0
C302 C -0.00135 0.85868 0.56665 0.0
C303 C -0.01254 0.7937 0.58029 0.0
H304 H 0.06624 0.97549 0.56776 0.0
C305 C 0.04774 0.79018 0.59193 0.0
H306 H 0.95306 0.86191 0.55682 0.0
C307 C 0.11204 0.85506 0.59854 0.0
C308 C 0.11595 0.92198 0.59215 0.0
H309 H 0.04029 0.73973 0.60183 0.0
H310 H 0.15344 0.85311 0.61268 0.0
C311 C 0.06294 0.92379 0.5733 0.0
C312 C 0.91781 0.75881 0.42636 0.0
C313 C 0.94807 0.74234 0.40079 0.0
H314 H 0.82505 0.76336 0.44317 0.0
C315 C 0.9006 0.694 0.37787 0.0
H316 H 0.95283 0.79553 0.44439 0.0
C317 C 0.82667 0.6747 0.37731 0.0
C318 C 0.80003 0.70454 0.39945 0.0
H319 H 0.9226 0.6791 0.35815 0.0
H320 H 0.79476 0.64791 0.35678 0.0
C321 C 0.84368 0.73901 0.42583 0.0
C322 C 0.079 0.90454 0.90522 0.0
C323 C 0.06018 0.8432 0.88637 0.0
H324 H 0.14026 0.02165 0.90787 0.0
C325 C 0.10754 0.84904 0.8621 0.0
H326 H 0.04409 0.90106 0.92439 0.0
C327 C 0.15831 0.91812 0.85108 0.0
C328 C 0.16662 0.98062 0.86639 0.0
H329 H 0.09478 0.80172 0.84766 0.0
H330 H 0.18586 0.92261 0.82929 0.0
C331 C 0.13275 0.9736 0.89525 0.0
C332 C 0.32522 0.19339 0.38475 0.0
C333 C 0.28235 0.19249 0.40992 0.0
H334 H 0.35114 0.1258 0.35617 0.0
C335 C 0.27003 0.14369 0.4341 0.0
H336 H 0.3374 0.23207 0.36616 0.0
C337 C 0.28016 0.0836 0.42874 0.0
C338 C 0.30114 0.07261 0.39918 0.0
H339 H 0.23873 0.14293 0.45421 0.0
H340 H 0.25707 0.03907 0.44507 0.0
C341 C 0.33318 0.1322 0.37895 0.0
C342 C 0.1239 0.21054 0.91903 0.0
C343 C 0.15114 0.2609 0.89462 0.0
H344 H 0.02823 0.13422 0.94378 0.0
C345 C 0.10926 0.29138 0.88409 0.0
H346 H 0.15398 0.18446 0.92689 0.0
C347 C 0.0371 0.2633 0.8943 0.0
C348 C 0.00563 0.2028 0.91423 0.0
H349 H 0.12847 0.32932 0.86494 0.0
H350 H 0.00267 0.28013 0.88244 0.0
C351 C 0.05137 0.18148 0.92877 0.0
C352 C 0.85191 0.12942 0.40503 0.0
C353 C 0.90494 0.12732 0.42373 0.0
H354 H 0.74906 0.0633 0.38261 0.0
C355 C 0.88369 0.0702 0.44497 0.0
H356 H 0.86706 0.17391 0.38893 0.0
C357 C 0.81592 0.00695 0.44156 0.0
C358 C 0.77129 0.00169 0.41657 0.0
H359 H 0.92385 0.06863 0.46006 0.0
H360 H 0.80573 0.95867 0.45432 0.0
C361 C 0.78446 0.06584 0.40131 0.0
C362 C 0.66804 0.80055 0.84635 0.0
C363 C 0.68894 0.76334 0.8672 0.0
H364 H 0.64327 0.88664 0.84097 0.0
C365 C 0.67358 0.76441 0.89879 0.0
H366 H 0.67723 0.79885 0.82173 0.0
C367 C 0.65416 0.81523 0.90984 0.0
C368 C 0.65152 0.8655 0.88931 0.0
H369 H 0.68757 0.73495 0.91535 0.0
H370 H 0.65575 0.82467 0.93461 0.0
C371 C 0.64731 0.85023 0.85743 0.0
C372 C 0.05181 0.52972 0.13214 0.0
C373 C 0.10062 0.59667 0.14634 0.0
H374 H 0.02708 0.41964 0.12348 0.0
C375 C 0.14542 0.59808 0.17053 0.0
H376 H 0.01609 0.52761 0.11368 0.0
C377 C 0.15238 0.53637 0.17581 0.0
C378 C 0.11424 0.47393 0.15696 0.0
H379 H 0.18293 0.6493 0.18194 0.0
H380 H 0.1964 0.54202 0.19058 0.0
C381 C 0.05736 0.46765 0.1381 0.0
C382 C 0.61972 0.1515 0.67212 0.0
C383 C 0.62547 0.09711 0.65519 0.0
H384 H 0.5553 0.20362 0.67956 0.0
C385 C 0.56201 0.03855 0.64236 0.0
H386 H 0.66803 0.19734 0.68219 0.0
C387 C 0.49779 0.04224 0.64088 0.0
C388 C 0.49646 0.10404 0.65253 0.0
H389 H 0.56515 -0.00406 0.62928 0.0
H390 H 0.45278 0.00198 0.62694 0.0
C391 C 0.5553 0.15542 0.67049 0.0
C392 C 0.55041 0.59765 0.1239 0.0
C393 C 0.54278 0.64915 0.14203 0.0
H394 H 0.50025 0.48573 0.1093 0.0
C395 C 0.49307 0.62452 0.16678 0.0
H396 H 0.58896 0.61552 0.10485 0.0
C397 C 0.44235 0.54959 0.16947 0.0
C398 C 0.44047 0.49993 0.14696 0.0
H399 H 0.48619 0.66331 0.18105 0.0
H400 H 0.39698 0.53312 0.18536 0.0
C401 C 0.50017 0.52306 0.12676 0.0
C402 C 0.85972 0.49248 0.65933 0.0
C403 C 0.87933 0.52777 0.63068 0.0
H404 H 0.84899 0.40148 0.68514 0.0
C405 C 0.927 0.51725 0.61121 0.0
H406 H 0.8235 0.5001 0.67484 0.0
C407 C 0.94287 0.46165 0.61745 0.0
C408 C 0.90922 0.41548 0.64267 0.0
H409 H 0.94413 0.54537 0.58926 0.0
H410 H 0.97001 0.44692 0.59976 0.0
C411 C 0.87489 0.43629 0.66536 0.0
C412 C 0.46092 0.95532 0.15787 0.0
C413 C 0.51331 0.97245 0.13446 0.0
H414 H 0.34915 0.92225 0.16776 0.0
C415 C 0.50172 -0.00508 0.10554 0.0
H416 H 0.46868 0.93764 0.18033 0.0
C417 C 0.43223 0.98319 0.09795 0.0
C418 C 0.3755 0.95235 0.11974 0.0
H419 H 0.54128 0.00828 0.08711 0.0
H420 H 0.42035 0.98828 0.07401 0.0
C421 C 0.39224 0.94621 0.15058 0.0
C422 C 0.50254 0.49736 0.59182 0.0
C423 C 0.53419 0.51374 0.62145 0.0
H424 H 0.43009 0.41081 0.56131 0.0
C425 C 0.49669 0.46621 0.6459 0.0
H426 H 0.53058 0.53346 0.57262 0.0
C427 C 0.43731 0.39674 0.63958 0.0
C428 C 0.41729 0.37429 0.60871 0.0
H429 H 0.52021 0.47784 0.66895 0.0
H430 H 0.41604 0.35716 0.65813 0.0
C431 C 0.4453 0.42686 0.58525 0.0
C432 C 0.45437 0.94833 0.38458 0.0
C433 C 0.39954 0.90099 0.36406 0.0
H434 H 0.55722 0.97472 0.40469 0.0
C435 C 0.41708 0.86745 0.33985 0.0
H436 H 0.44197 0.97542 0.40317 0.0
C437 C 0.48343 0.86784 0.34041 0.0
C438 C 0.53052 0.90006 0.36573 0.0
H439 H 0.37543 0.83168 0.32346 0.0
H440 H 0.49108 0.83216 0.32443 0.0
C441 C 0.52027 0.94776 0.38545 0.0
C442 C 0.53464 0.52522 0.90367 0.0
C443 C 0.59145 0.54534 0.88232 0.0
H444 H 0.42434 0.44637 0.91464 0.0
C445 C 0.575 0.51851 0.85181 0.0
H446 H 0.54642 0.54569 0.92727 0.0
C447 C 0.50591 0.45946 0.84495 0.0
C448 C 0.45346 0.42912 0.86849 0.0
H449 H 0.61841 0.53383 0.83496 0.0
H450 H 0.49824 0.43001 0.8233 0.0
C451 C 0.46456 0.46864 0.89625 0.0
C452 C 0.04215 0.5299 0.37394 0.0
C453 C 0.10028 0.59468 0.36218 0.0
H454 H 0.006 0.41947 0.3872 0.0
C455 C 0.15632 0.5913 0.34571 0.0
H456 H -0.00162 0.53125 0.38667 0.0
C457 C 0.16114 0.52711 0.34628 0.0
C458 C 0.10934 0.46626 0.36292 0.0
H459 H 0.20199 0.64082 0.33659 0.0
H460 H 0.21014 0.52865 0.33752 0.0
C461 C 0.04668 0.46597 0.3743 0.0
C462 C 0.50573 0.02896 0.90168 0.0
C463 C 0.55013 0.0556 0.87537 0.0
H464 H 0.42016 0.03083 0.92786 0.0
C465 C 0.5265 0.08103 0.85041 0.0
H466 H 0.523 0.00926 0.92122 0.0
C467 C 0.46702 0.09256 0.85402 0.0
C468 C 0.43211 0.07999 0.88284 0.0
H469 H 0.56015 0.10186 0.82988 0.0
H470 H 0.45611 0.1214 0.83605 0.0
C471 C 0.44726 0.04198 0.90558 0.0
C472 C 0.41498 0.44061 0.37016 0.0
C473 C 0.35131 0.43685 0.3578 0.0
H474 H 0.52757 0.51126 0.38209 0.0
C475 C 0.35858 0.49141 0.33745 0.0
H476 H 0.41068 0.39797 0.38539 0.0
C477 C 0.42614 0.55587 0.33511 0.0
C478 C 0.48586 0.56608 0.35348 0.0
H479 H 0.31066 0.48942 0.32728 0.0
H480 H 0.42831 0.60175 0.32293 0.0
C481 C 0.48229 0.50537 0.36814 0.0
C482 C 0.92633 0.46309 0.86218 0.0
C483 C 0.86345 0.46172 0.8507 0.0
H484 H 0.97416 0.39861 0.8756 0.0
C485 C 0.81165 0.39969 0.83432 0.0
H486 H 0.96693 0.51051 0.87494 0.0
C487 C 0.81611 0.33538 0.83447 0.0
C488 C 0.87152 0.33303 0.85161 0.0
H489 H 0.7626 0.39754 0.8254 0.0
H490 H 0.76989 0.28519 0.82586 0.0
C491 C 0.93066 0.39902 0.86243 0.0
C492 C 0.15134 0.33247 0.27356 0.0
C493 C 0.1023 0.26689 0.28845 0.0
H494 H 0.19787 0.38416 0.22996 0.0
C495 C 0.05557 0.20557 0.26999 0.0
H496 H 0.18804 0.38055 0.28701 0.0
C497 C 0.06234 0.20715 0.23788 0.0
C498 C 0.11441 0.2707 0.2231 0.0
H499 H 0.016 0.15433 0.28044 0.0
H500 H 0.02857 0.15757 0.22464 0.0
C501 C 0.15693 0.33445 0.24098 0.0
C502 C 0.80094 0.07092 0.73513 0.0
C503 C 0.83414 0.14418 0.72598 0.0
H504 H 0.76508 -0.00354 0.77301 0.0
C505 C 0.85155 0.1996 0.74802 0.0
H506 H 0.78807 0.02775 0.71823 0.0
C507 C 0.83808 0.18197 0.77932 0.0
C508 C 0.80851 0.10884 0.78884 0.0
H509 H 0.87775 0.2565 0.74114 0.0
H510 H 0.85384 0.22593 0.79605 0.0
C511 C 0.7884 0.05329 0.7664 0.0
C512 C 0.61492 0.77406 0.229 0.0
C513 C 0.64266 0.84759 0.22096 0.0
H514 H 0.59428 0.69962 0.26626 0.0
C515 C 0.65456 0.89988 0.24397 0.0
H516 H 0.60599 0.73322 0.2115 0.0
C517 C 0.64563 0.88026 0.275 0.0
C518 C 0.62674 0.80876 0.28314 0.0
H519 H 0.67578 0.95689 0.23806 0.0
H520 H 0.66141 0.92263 0.29258 0.0
C521 C 0.60805 0.75487 0.26015 0.0
C522 C 0.75825 0.56889 0.73232 0.0
C523 C 0.81501 0.61159 0.71181 0.0
H524 H 0.7301 0.53716 0.77949 0.0
C525 C 0.88769 0.63677 0.72065 0.0
H526 H 0.70181 0.54905 0.72579 0.0
C527 C 0.90386 0.62988 0.75133 0.0
C528 C 0.84741 0.59906 0.77329 0.0
H529 H 0.93217 0.66977 0.70499 0.0
H530 H 0.96046 0.65986 0.75882 0.0
C531 C 0.77456 0.56101 0.76293 0.0
C532 C 0.04734 0.69954 0.24704 0.0
C533 C 0.09848 0.73229 0.22307 0.0
H534 H 0.02858 0.69561 0.29601 0.0
C535 C 0.17331 0.77206 0.23047 0.0
H536 H -0.01067 0.66936 0.24189 0.0
C537 C 0.19536 0.78982 0.26132 0.0
C538 C 0.14313 0.76491 0.28507 0.0
H539 H 0.21381 0.79876 0.21246 0.0
H540 H 0.25217 0.82883 0.26634 0.0
C541 C 0.06979 0.71493 0.27799 0.0
C542 C 0.41039 0.21061 0.76712 0.0
C543 C 0.37239 0.16348 0.79178 0.0
H544 H 0.4237 0.22288 0.71791 0.0
C545 C 0.33228 0.08778 0.78583 0.0
H546 H 0.44159 0.26929 0.77103 0.0
C547 C 0.32049 0.06134 0.7552 0.0
C548 C 0.35047 0.10993 0.73017 0.0
H549 H 0.30254 0.05003 0.80428 0.0
H550 H 0.28137 0.00407 0.75095 0.0
C551 C 0.40043 0.18389 0.7366 0.0
C552 C 0.22909 0.19311 0.00408 0.0
C553 C 0.2572 0.23777 0.97801 0.0
H554 H 0.18683 0.18388 0.05013 0.0
C555 C 0.25274 0.30194 0.97611 0.0
H556 H 0.23216 0.14337 0.00589 0.0
C557 C 0.22577 0.32438 1.0008 0.0
C558 C 0.2045 0.28408 0.02836 0.0
H559 H 0.2737 0.33685 0.95599 0.0
H560 H 0.22727 0.37647 0.99909 0.0
C561 C 0.20308 0.21633 0.02926 0.0
C562 C 0.00889 0.2032 0.50117 0.0
C563 C 0.0311 0.26881 0.48515 0.0
H564 H 0.93943 0.13032 0.53666 0.0
C565 C -0.00135 0.31115 0.49227 0.0
H566 H 0.03296 0.16939 0.49567 0.0
C567 C 0.94552 0.28906 0.51538 0.0
C568 C 0.92302 0.22362 0.53184 0.0
H569 H 0.01527 0.36206 0.48026 0.0
H570 H 0.92334 0.32456 0.52082 0.0
C571 C 0.95512 0.18064 0.52437 0.0
C572 C 0.66954 0.01579 0.02855 0.0
C573 C 0.68849 0.96087 0.0309 0.0
H574 H 0.68329 0.10951 0.00461 0.0
C575 C 0.74359 0.9633 0.01172 0.0
H576 H 0.62909 0.01676 0.04383 0.0
C577 C 0.77471 0.01681 0.98863 0.0
C578 C 0.75209 0.06917 0.9852 0.0
H579 H 0.76011 0.92225 0.01371 0.0
H580 H 0.81351 0.01499 0.97263 0.0
C581 C 0.7015 0.06969 0.00629 0.0
C582 C 0.70256 0.63658 0.49131 0.0
C583 C 0.74827 0.68276 0.51485 0.0
H584 H 0.63588 0.62534 0.45245 0.0
C585 C 0.77333 0.75842 0.51348 0.0
H586 H 0.6839 0.57837 0.49126 0.0
C587 C 0.74474 0.78556 0.49118 0.0
C588 C 0.69187 0.73686 0.47018 0.0
H589 H 0.81033 0.79536 0.53094 0.0
H590 H 0.76053 0.84305 0.49147 0.0
C591 C 0.6742 0.66324 0.46938 0.0
C592 C 0.01505 0.75159 0.96668 0.0
C593 C 0.93988 0.70535 0.97166 0.0
H594 H 0.12174 0.81117 0.98722 0.0
C595 C 0.91434 0.6882 1.00236 0.0
H596 H 0.0367 0.7648 0.94344 0.0
C597 C 0.96292 0.71386 0.02732 0.0
C598 C 0.03815 0.75824 0.02235 0.0
H599 H 0.85679 0.65233 0.00715 0.0
H600 H 0.94193 0.69522 0.05034 0.0
C601 C 0.06373 0.77766 0.99179 0.0
C602 C 0.17032 0.93872 0.48913 0.0
C603 C 0.19829 0.89083 0.48463 0.0
H604 H 0.1793 0.03144 0.51491 0.0
C605 C 0.25057 0.89446 0.50608 0.0
H606 H 0.13053 0.938 0.47312 0.0
C607 C 0.2784 0.94759 0.52952 0.0
C608 C 0.25429 -0.00167 0.53275 0.0
H609 H 0.2737 0.85874 0.50375 0.0
H610 H 0.32164 0.95125 0.54427 0.0
C611 C 0.19852 -0.00757 0.51293 0.0
loop_
_geom_bond_atom_site_label_1
_geom_bond_atom_site_label_2
_geom_bond_distance
_geom_bond_site_symmetry_2
_ccdc_geom_bond_type
Zn0 O6 1.920 . S
Zn0 O12 1.898 . S
Zn0 O15 1.905 . S
Zn1 O9 1.905 . S
Zn1 O10 1.898 . S
Zn1 O18 1.920 . S
Zn2 O5 2.080 . S
Zn2 O8 2.114 . S
Zn2 O11 2.120 . S
Zn2 O13 2.120 . S
Zn2 O14 2.114 . S
Zn2 O17 2.080 . S
C3 O8 1.166 . S
C3 O9 1.182 . S
C4 O10 1.167 . S
C4 O11 1.299 . S
O5 Zn2 2.080 . S
O5 C19 1.305 . S
O6 Zn0 1.920 . S
O6 C19 1.234 . S
C7 O12 1.167 . S
C7 O13 1.299 . S
O8 Zn2 2.114 . S
O8 C3 1.166 . S
O9 Zn1 1.905 . S
O9 C3 1.182 . S
O10 Zn1 1.898 . S
O10 C4 1.167 . S
O11 Zn2 2.120 . S
O11 C4 1.299 . S
O12 Zn0 1.898 . S
O12 C7 1.167 . S
O13 Zn2 2.120 . S
O13 C7 1.299 . S
O14 Zn2 2.114 . S
O14 C16 1.166 . S
O15 Zn0 1.905 . S
O15 C16 1.182 . S
C16 O14 1.166 . S
C16 O15 1.182 . S
O17 Zn2 2.080 . S
O17 C20 1.305 . S
O18 Zn1 1.920 . S
O18 C20 1.234 . S
C19 O5 1.305 . S
C19 O6 1.234 . S
C20 O17 1.305 . S
C20 O18 1.234 . S
Zn21 O27 1.920 . S
Zn21 O33 1.898 . S
Zn21 O36 1.905 . S
Zn22 O30 1.905 . S
Zn22 O31 1.898 . S
Zn22 O39 1.920 1_655 S
Zn23 O26 2.080 . S
Zn23 O29 2.114 . S
Zn23 O32 2.120 . S
Zn23 O34 2.120 . S
Zn23 O35 2.114 . S
Zn23 O38 2.080 . S
C24 O29 1.166 . S
C24 O30 1.182 . S
C25 O31 1.167 . S
C25 O32 1.299 . S
O26 Zn23 2.080 . S
O26 C40 1.305 . S
O27 Zn21 1.920 . S
O27 C40 1.234 . S
C28 O33 1.167 . S
C28 O34 1.299 . S
O29 Zn23 2.114 . S
O29 C24 1.166 . S
O30 Zn22 1.905 . S
O30 C24 1.182 . S
O31 Zn22 1.898 . S
O31 C25 1.167 . S
O32 Zn23 2.120 . S
O32 C25 1.299 . S
O33 Zn21 1.898 . S
O33 C28 1.167 . S
O34 Zn23 2.120 . S
O34 C28 1.299 . S
O35 Zn23 2.114 . S
O35 C37 1.166 . S
O36 Zn21 1.905 . S
O36 C37 1.182 . S
C37 O35 1.166 . S
C37 O36 1.182 . S
O38 Zn23 2.080 . S
O38 C41 1.305 1_655 S
O39 Zn22 1.920 1_455 S
O39 C41 1.234 . S
C40 O26 1.305 . S
C40 O27 1.234 . S
C41 O38 1.305 1_455 S
C41 O39 1.234 . S
Zn42 O48 1.920 1_565 S
Zn42 O54 1.898 . S
Zn42 O57 1.905 . S
Zn43 O51 1.905 . S
Zn43 O52 1.898 . S
Zn43 O60 1.920 . S
Zn44 O47 2.080 . S
Zn44 O50 2.114 . S
Zn44 O53 2.120 . S
Zn44 O55 2.120 . S
Zn44 O56 2.114 . S
Zn44 O59 2.080 . S
C45 O50 1.166 . S
C45 O51 1.182 . S
C46 O52 1.167 . S
C46 O53 1.299 . S
O47 Zn44 2.080 . S
O47 C61 1.305 1_565 S
O48 Zn42 1.920 1_545 S
O48 C61 1.234 . S
C49 O54 1.167 . S
C49 O55 1.299 . S
O50 Zn44 2.114 . S
O50 C45 1.166 . S
O51 Zn43 1.905 . S
O51 C45 1.182 . S
O52 Zn43 1.898 . S
O52 C46 1.167 . S
O53 Zn44 2.120 . S
O53 C46 1.299 . S
O54 Zn42 1.898 . S
O54 C49 1.167 . S
O55 Zn44 2.120 . S
O55 C49 1.299 . S
O56 Zn44 2.114 . S
O56 C58 1.166 . S
O57 Zn42 1.905 . S
O57 C58 1.182 . S
C58 O56 1.166 . S
C58 O57 1.182 . S
O59 Zn44 2.080 . S
O59 C62 1.305 . S
O60 Zn43 1.920 . S
O60 C62 1.234 . S
C61 O47 1.305 1_545 S
C61 O48 1.234 . S
C62 O59 1.305 . S
C62 O60 1.234 . S
Zn63 O69 1.920 . S
Zn63 O75 1.898 . S
Zn63 O78 1.905 . S
Zn64 O72 1.905 . S
Zn64 O73 1.898 . S
Zn64 O81 1.920 . S
Zn65 O68 2.080 . S
Zn65 O71 2.114 . S
Zn65 O74 2.120 . S
Zn65 O76 2.120 . S
Zn65 O77 2.114 . S
Zn65 O80 2.080 . S
C66 O71 1.166 . S
C66 O72 1.182 . S
C67 O73 1.167 . S
C67 O74 1.299 . S
O68 Zn65 2.080 . S
O68 C82 1.305 . S
O69 Zn63 1.920 . S
O69 C82 1.234 . S
C70 O75 1.167 . S
C70 O76 1.299 . S
O71 Zn65 2.114 . S
O71 C66 1.166 . S
O72 Zn64 1.905 . S
O72 C66 1.182 . S
O73 Zn64 1.898 . S
O73 C67 1.167 . S
O74 Zn65 2.120 . S
O74 C67 1.299 . S
O75 Zn63 1.898 . S
O75 C70 1.167 . S
O76 Zn65 2.120 . S
O76 C70 1.299 . S
O77 Zn65 2.114 . S
O77 C79 1.166 . S
O78 Zn63 1.905 . S
O78 C79 1.182 . S
C79 O77 1.166 . S
C79 O78 1.182 . S
O80 Zn65 2.080 . S
O80 C83 1.305 . S
O81 Zn64 1.920 . S
O81 C83 1.234 . S
C82 O68 1.305 . S
C82 O69 1.234 . S
C83 O80 1.305 . S
C83 O81 1.234 . S
Zn84 O90 1.920 1_455 S
Zn84 O96 1.898 . S
Zn84 O99 1.905 . S
Zn85 O93 1.905 . S
Zn85 O94 1.898 . S
Zn85 O102 1.920 . S
Zn86 O89 2.080 . S
Zn86 O92 2.114 . S
Zn86 O95 2.120 . S
Zn86 O97 2.120 . S
Zn86 O98 2.114 . S
Zn86 O101 2.080 . S
C87 O92 1.166 . S
C87 O93 1.182 . S
C88 O94 1.167 . S
C88 O95 1.299 . S
O89 Zn86 2.080 . S
O89 C103 1.305 1_455 S
O90 Zn84 1.920 1_655 S
O90 C103 1.234 . S
C91 O96 1.167 . S
C91 O97 1.299 . S
O92 Zn86 2.114 . S
O92 C87 1.166 . S
O93 Zn85 1.905 . S
O93 C87 1.182 . S
O94 Zn85 1.898 . S
O94 C88 1.167 . S
O95 Zn86 2.120 . S
O95 C88 1.299 . S
O96 Zn84 1.898 . S
O96 C91 1.167 . S
O97 Zn86 2.120 . S
O97 C91 1.299 . S
O98 Zn86 2.114 . S
O98 C100 1.166 . S
O99 Zn84 1.905 . S
O99 C100 1.182 . S
C100 O98 1.166 . S
C100 O99 1.182 . S
O101 Zn86 2.080 . S
O101 C104 1.305 . S
O102 Zn85 1.920 . S
O102 C104 1.234 . S
C103 O89 1.305 1_655 S
C103 O90 1.234 . S
C104 O101 1.305 . S
C104 O102 1.234 . S
Zn105 O111 1.920 1_545 S
Zn105 O117 1.898 . S
Zn105 O120 1.905 . S
Zn106 O114 1.905 . S
Zn106 O115 1.898 . S
Zn106 O123 1.920 . S
Zn107 O110 2.080 . S
Zn107 O113 2.114 . S
Zn107 O116 2.120 . S
Zn107 O118 2.120 . S
Zn107 O119 2.114 . S
Zn107 O122 2.080 . S
C108 O113 1.166 . S
C108 O114 1.182 . S
C109 O115 1.167 . S
C109 O116 1.299 . S
O110 Zn107 2.080 . S
O110 C124 1.305 1_545 S
O111 Zn105 1.920 1_565 S
O111 C124 1.234 . S
C112 O117 1.167 . S
C112 O118 1.299 . S
O113 Zn107 2.114 . S
O113 C108 1.166 . S
O114 Zn106 1.905 . S
O114 C108 1.182 . S
O115 Zn106 1.898 . S
O115 C109 1.167 . S
O116 Zn107 2.120 . S
O116 C109 1.299 . S
O117 Zn105 1.898 . S
O117 C112 1.167 . S
O118 Zn107 2.120 . S
O118 C112 1.299 . S
O119 Zn107 2.114 . S
O119 C121 1.166 . S
O120 Zn105 1.905 . S
O120 C121 1.182 . S
C121 O119 1.166 . S
C121 O120 1.182 . S
O122 Zn107 2.080 . S
O122 C125 1.305 . S
O123 Zn106 1.920 . S
O123 C125 1.234 . S
C124 O110 1.305 1_565 S
C124 O111 1.234 . S
C125 O122 1.305 . S
C125 O123 1.234 . S
Zn126 O132 1.920 . S
Zn126 O138 1.898 . S
Zn126 O141 1.905 . S
Zn127 O135 1.905 . S
Zn127 O136 1.898 . S
Zn127 O144 1.920 . S
Zn128 O131 2.080 . S
Zn128 O134 2.114 . S
Zn128 O137 2.120 . S
Zn128 O139 2.120 . S
Zn128 O140 2.114 . S
Zn128 O143 2.080 . S
C129 O134 1.166 . S
C129 O135 1.182 . S
C130 O136 1.167 . S
C130 O137 1.299 . S
O131 Zn128 2.080 . S
O131 C145 1.305 . S
O132 Zn126 1.920 . S
O132 C145 1.234 . S
C133 O138 1.167 . S
C133 O139 1.299 . S
O134 Zn128 2.114 . S
O134 C129 1.166 . S
O135 Zn127 1.905 . S
O135 C129 1.182 . S
O136 Zn127 1.898 . S
O136 C130 1.167 . S
O137 Zn128 2.120 . S
O137 C130 1.299 . S
O138 Zn126 1.898 . S
O138 C133 1.167 . S
O139 Zn128 2.120 . S
O139 C133 1.299 . S
O140 Zn128 2.114 . S
O140 C142 1.166 . S
O141 Zn126 1.905 . S
O141 C142 1.182 . S
C142 O140 1.166 . S
C142 O141 1.182 . S
O143 Zn128 2.080 . S
O143 C146 1.305 . S
O144 Zn127 1.920 . S
O144 C146 1.234 . S
C145 O131 1.305 . S
C145 O132 1.234 . S
C146 O143 1.305 . S
C146 O144 1.234 . S
Zn147 O153 1.920 1_655 S
Zn147 O159 1.898 . S
Zn147 O162 1.905 . S
Zn148 O156 1.905 . S
Zn148 O157 1.898 . S
Zn148 O165 1.920 . S
Zn149 O152 2.080 . S
Zn149 O155 2.114 . S
Zn149 O158 2.120 . S
Zn149 O160 2.120 . S
Zn149 O161 2.114 . S
Zn149 O164 2.080 . S
C150 O155 1.166 . S
C150 O156 1.182 . S
C151 O157 1.167 . S
C151 O158 1.299 . S
O152 Zn149 2.080 . S
O152 C166 1.305 1_655 S
O153 Zn147 1.920 1_455 S
O153 C166 1.234 . S
C154 O159 1.167 . S
C154 O160 1.299 . S
O155 Zn149 2.114 . S
O155 C150 1.166 . S
O156 Zn148 1.905 . S
O156 C150 1.182 . S
O157 Zn148 1.898 . S
O157 C151 1.167 . S
O158 Zn149 2.120 . S
O158 C151 1.299 . S
O159 Zn147 1.898 . S
O159 C154 1.167 . S
O160 Zn149 2.120 . S
O160 C154 1.299 . S
O161 Zn149 2.114 . S
O161 C163 1.166 . S
O162 Zn147 1.905 . S
O162 C163 1.182 . S
C163 O161 1.166 . S
C163 O162 1.182 . S
O164 Zn149 2.080 . S
O164 C167 1.305 . S
O165 Zn148 1.920 . S
O165 C167 1.234 . S
C166 O152 1.305 1_455 S
C166 O153 1.234 . S
C167 O164 1.305 . S
C167 O165 1.234 . S
Zn168 O174 1.920 1_565 S
Zn168 O180 1.898 . S
Zn168 O183 1.905 . S
Zn169 O177 1.905 . S
Zn169 O178 1.898 . S
Zn169 O186 1.920 . S
Zn170 O173 2.080 . S
Zn170 O176 2.114 . S
Zn170 O179 2.120 . S
Zn170 O181 2.120 . S
Zn170 O182 2.114 . S
Zn170 O185 2.080 . S
C171 O176 1.166 . S
C171 O177 1.182 . S
C172 O178 1.167 . S
C172 O179 1.299 . S
O173 Zn170 2.080 . S
O173 C187 1.305 1_565 S
O174 Zn168 1.920 1_545 S
O174 C187 1.234 . S
C175 O180 1.167 . S
C175 O181 1.299 . S
O176 Zn170 2.114 . S
O176 C171 1.166 . S
O177 Zn169 1.905 . S
O177 C171 1.182 . S
O178 Zn169 1.898 . S
O178 C172 1.167 . S
O179 Zn170 2.120 . S
O179 C172 1.299 . S
O180 Zn168 1.898 . S
O180 C175 1.167 . S
O181 Zn170 2.120 . S
O181 C175 1.299 . S
O182 Zn170 2.114 . S
O182 C184 1.166 . S
O183 Zn168 1.905 . S
O183 C184 1.182 . S
C184 O182 1.166 . S
C184 O183 1.182 . S
O185 Zn170 2.080 . S
O185 C188 1.305 . S
O186 Zn169 1.920 . S
O186 C188 1.234 . S
C187 O173 1.305 1_545 S
C187 O174 1.234 . S
C188 O185 1.305 . S
C188 O186 1.234 . S
Zn189 O195 1.920 . S
Zn189 O201 1.898 . S
Zn189 O204 1.905 . S
Zn190 O198 1.905 . S
Zn190 O199 1.898 . S
Zn190 O207 1.920 . S
Zn191 O194 2.080 . S
Zn191 O197 2.114 . S
Zn191 O200 2.120 . S
Zn191 O202 2.120 . S
Zn191 O203 2.114 . S
Zn191 O206 2.080 . S
C192 O197 1.166 . S
C192 O198 1.182 . S
C193 O199 1.167 . S
C193 O200 1.299 . S
O194 Zn191 2.080 . S
O194 C208 1.305 . S
O195 Zn189 1.920 . S
O195 C208 1.234 . S
C196 O201 1.167 . S
C196 O202 1.299 . S
O197 Zn191 2.114 . S
O197 C192 1.166 . S
O198 Zn190 1.905 . S
O198 C192 1.182 . S
O199 Zn190 1.898 . S
O199 C193 1.167 . S
O200 Zn191 2.120 . S
O200 C193 1.299 . S
O201 Zn189 1.898 . S
O201 C196 1.167 . S
O202 Zn191 2.120 . S
O202 C196 1.299 . S
O203 Zn191 2.114 . S
O203 C205 1.166 . S
O204 Zn189 1.905 . S
O204 C205 1.182 . S
C205 O203 1.166 . S
C205 O204 1.182 . S
O206 Zn191 2.080 . S
O206 C209 1.305 . S
O207 Zn190 1.920 . S
O207 C209 1.234 . S
C208 O194 1.305 . S
C208 O195 1.234 . S
C209 O206 1.305 . S
C209 O207 1.234 . S
Zn210 O216 1.920 1_455 S
Zn210 O222 1.898 . S
Zn210 O225 1.905 . S
Zn211 O219 1.905 . S
Zn211 O220 1.898 . S
Zn211 O228 1.920 . S
Zn212 O215 2.080 . S
Zn212 O218 2.114 . S
Zn212 O221 2.120 . S
Zn212 O223 2.120 . S
Zn212 O224 2.114 . S
Zn212 O227 2.080 . S
C213 O218 1.166 . S
C213 O219 1.182 . S
C214 O220 1.167 . S
C214 O221 1.299 . S
O215 Zn212 2.080 . S
O215 C229 1.305 1_455 S
O216 Zn210 1.920 1_655 S
O216 C229 1.234 . S
C217 O222 1.167 . S
C217 O223 1.299 . S
O218 Zn212 2.114 . S
O218 C213 1.166 . S
O219 Zn211 1.905 . S
O219 C213 1.182 . S
O220 Zn211 1.898 . S
O220 C214 1.167 . S
O221 Zn212 2.120 . S
O221 C214 1.299 . S
O222 Zn210 1.898 . S
O222 C217 1.167 . S
O223 Zn212 2.120 . S
O223 C217 1.299 . S
O224 Zn212 2.114 . S
O224 C226 1.166 . S
O225 Zn210 1.905 . S
O225 C226 1.182 . S
C226 O224 1.166 . S
C226 O225 1.182 . S
O227 Zn212 2.080 . S
O227 C230 1.305 . S
O228 Zn211 1.920 . S
O228 C230 1.234 . S
C229 O215 1.305 1_655 S
C229 O216 1.234 . S
C230 O227 1.305 . S
C230 O228 1.234 . S
Zn231 O237 1.920 1_545 S
Zn231 O243 1.898 . S
Zn231 O246 1.905 . S
Zn232 O240 1.905 . S
Zn232 O241 1.898 . S
Zn232 O249 1.920 . S
Zn233 O236 2.080 . S
Zn233 O239 2.114 . S
Zn233 O242 2.120 . S
Zn233 O244 2.120 . S
Zn233 O245 2.114 . S
Zn233 O248 2.080 . S
C234 O239 1.166 . S
C234 O240 1.182 . S
C235 O241 1.167 . S
C235 O242 1.299 . S
O236 Zn233 2.080 . S
O236 C250 1.305 1_545 S
O237 Zn231 1.920 1_565 S
O237 C250 1.234 . S
C238 O243 1.167 . S
C238 O244 1.299 . S
O239 Zn233 2.114 . S
O239 C234 1.166 . S
O240 Zn232 1.905 . S
O240 C234 1.182 . S
O241 Zn232 1.898 . S
O241 C235 1.167 . S
O242 Zn233 2.120 . S
O242 C235 1.299 . S
O243 Zn231 1.898 . S
O243 C238 1.167 . S
O244 Zn233 2.120 . S
O244 C238 1.299 . S
O245 Zn233 2.114 . S
O245 C247 1.166 . S
O246 Zn231 1.905 . S
O246 C247 1.182 . S
C247 O245 1.166 . S
C247 O246 1.182 . S
O248 Zn233 2.080 . S
O248 C251 1.305 . S
O249 Zn232 1.920 . S
O249 C251 1.234 . S
C250 O236 1.305 1_565 S
C250 O237 1.234 . S
C251 O248 1.305 . S
C251 O249 1.234 . S
C252 C253 1.387 . S
C252 H256 0.950 . S
C252 C261 1.390 . S
C253 C252 1.387 . S
C253 C255 1.387 . S
H254 C261 0.950 . S
C255 C253 1.387 . S
C255 C257 1.390 . S
C255 H259 0.950 . S
H256 C252 0.950 . S
C257 C255 1.390 . S
C257 C258 1.387 . S
C257 H260 0.950 . S
C258 C257 1.387 . S
C258 C261 1.387 . S
H259 C255 0.950 . S
H260 C257 0.950 . S
C261 C252 1.390 . S
C261 H254 0.950 . S
C261 C258 1.387 . S
C262 C263 1.387 . S
C262 H266 0.950 . S
C262 C271 1.390 . S
C263 C262 1.387 . S
C263 C265 1.387 . S
H264 C271 0.950 . S
C265 C263 1.387 . S
C265 C267 1.390 . S
C265 H269 0.950 . S
H266 C262 0.950 . S
C267 C265 1.390 . S
C267 C268 1.387 . S
C267 H270 0.950 . S
C268 C267 1.387 . S
C268 C271 1.387 . S
H269 C265 0.950 . S
H270 C267 0.950 . S
C271 C262 1.390 . S
C271 H264 0.950 . S
C271 C268 1.387 . S
C272 C273 1.387 . S
C272 H276 0.950 . S
C272 C281 1.390 . S
C273 C272 1.387 . S
C273 C275 1.387 . S
H274 C281 0.950 . S
C275 C273 1.387 . S
C275 C277 1.390 . S
C275 H279 0.950 . S
H276 C272 0.950 . S
C277 C275 1.390 . S
C277 C278 1.387 . S
C277 H280 0.950 . S
C278 C277 1.387 . S
C278 C281 1.387 . S
H279 C275 0.950 . S
H280 C277 0.950 . S
C281 C272 1.390 . S
C281 H274 0.950 . S
C281 C278 1.387 . S
C282 C283 1.387 . S
C282 H286 0.950 . S
C282 C291 1.390 . S
C283 C282 1.387 . S
C283 C285 1.387 . S
H284 C291 0.950 . S
C285 C283 1.387 . S
C285 C287 1.390 . S
C285 H289 0.950 . S
H286 C282 0.950 . S
C287 C285 1.390 . S
C287 C288 1.387 . S
C287 H290 0.950 . S
C288 C287 1.387 . S
C288 C291 1.387 . S
H289 C285 0.950 . S
H290 C287 0.950 . S
C291 C282 1.390 . S
C291 H284 0.950 . S
C291 C288 1.387 . S
C292 C293 1.387 . S
C292 H296 0.950 . S
C292 C301 1.390 . S
C293 C292 1.387 . S
C293 C295 1.387 . S
H294 C301 0.950 . S
C295 C293 1.387 . S
C295 C297 1.390 . S
C295 H299 0.950 . S
H296 C292 0.950 . S
C297 C295 1.390 . S
C297 C298 1.387 . S
C297 H300 0.950 . S
C298 C297 1.387 . S
C298 C301 1.387 . S
H299 C295 0.950 . S
H300 C297 0.950 . S
C301 C292 1.390 . S
C301 H294 0.950 . S
C301 C298 1.387 . S
C302 C303 1.387 . S
C302 H306 0.950 1_455 S
C302 C311 1.390 . S
C303 C302 1.387 . S
C303 C305 1.387 . S
H304 C311 0.950 . S
C305 C303 1.387 . S
C305 C307 1.390 . S
C305 H309 0.950 . S
H306 C302 0.950 1_655 S
C307 C305 1.390 . S
C307 C308 1.387 . S
C307 H310 0.950 . S
C308 C307 1.387 . S
C308 C311 1.387 . S
H309 C305 0.950 . S
H310 C307 0.950 . S
C311 C302 1.390 . S
C311 H304 0.950 . S
C311 C308 1.387 . S
C312 C313 1.387 . S
C312 H316 0.950 . S
C312 C321 1.390 . S
C313 C312 1.387 . S
C313 C315 1.387 . S
H314 C321 0.950 . S
C315 C313 1.387 . S
C315 C317 1.390 . S
C315 H319 0.950 . S
H316 C312 0.950 . S
C317 C315 1.390 . S
C317 C318 1.387 . S
C317 H320 0.950 . S
C318 C317 1.387 . S
C318 C321 1.387 . S
H319 C315 0.950 . S
H320 C317 0.950 . S
C321 C312 1.390 . S
C321 H314 0.950 . S
C321 C318 1.387 . S
C322 C323 1.387 . S
C322 H326 0.950 . S
C322 C331 1.390 . S
C323 C322 1.387 . S
C323 C325 1.387 . S
H324 C331 0.950 . S
C325 C323 1.387 . S
C325 C327 1.390 . S
C325 H329 0.950 . S
H326 C322 0.950 . S
C327 C325 1.390 . S
C327 C328 1.387 . S
C327 H330 0.950 . S
C328 C327 1.387 . S
C328 C331 1.387 . S
H329 C325 0.950 . S
H330 C327 0.950 . S
C331 C322 1.390 . S
C331 H324 0.950 . S
C331 C328 1.387 . S
C332 C333 1.387 . S
C332 H336 0.950 . S
C332 C341 1.390 . S
C333 C332 1.387 . S
C333 C335 1.387 . S
H334 C341 0.950 . S
C335 C333 1.387 . S
C335 C337 1.390 . S
C335 H339 0.950 . S
H336 C332 0.950 . S
C337 C335 1.390 . S
C337 C338 1.387 . S
C337 H340 0.950 . S
C338 C337 1.387 . S
C338 C341 1.387 . S
H339 C335 0.950 . S
H340 C337 0.950 . S
C341 C332 1.390 . S
C341 H334 0.950 . S
C341 C338 1.387 . S
C342 C343 1.387 . S
C342 H346 0.950 . S
C342 C351 1.390 . S
C343 C342 1.387 . S
C343 C345 1.387 . S
H344 C351 0.950 . S
C345 C343 1.387 . S
C345 C347 1.390 . S
C345 H349 0.950 . S
H346 C342 0.950 . S
C347 C345 1.390 . S
C347 C348 1.387 . S
C347 H350 0.950 . S
C348 C347 1.387 . S
C348 C351 1.387 . S
H349 C345 0.950 . S
H350 C347 0.950 . S
C351 C342 1.390 . S
C351 H344 0.950 . S
C351 C348 1.387 . S
C352 C353 1.387 . S
C352 H356 0.950 . S
C352 C361 1.390 . S
C353 C352 1.387 . S
C353 C355 1.387 . S
H354 C361 0.950 . S
C355 C353 1.387 . S
C355 C357 1.390 . S
C355 H359 0.950 . S
H356 C352 0.950 . S
C357 C355 1.390 . S
C357 C358 1.387 . S
C357 H360 0.950 . S
C358 C357 1.387 . S
C358 C361 1.387 . S
H359 C355 0.950 . S
H360 C357 0.950 . S
C361 C352 1.390 . S
C361 H354 0.950 . S
C361 C358 1.387 . S
C362 C363 1.387 . S
C362 H366 0.950 . S
C362 C371 1.390 . S
C363 C362 1.387 . S
C363 C365 1.387 . S
H364 C371 0.950 . S
C365 C363 1.387 . S
C365 C367 1.390 . S
C365 H369 0.950 . S
H366 C362 0.950 . S
C367 C365 1.390 . S
C367 C368 1.387 . S
C367 H370 0.950 . S
C368 C367 1.387 . S
C368 C371 1.387 . S
H369 C365 0.950 . S
H370 C367 0.950 . S
C371 C362 1.390 . S
C371 H364 0.950 . S
C371 C368 1.387 . S
C372 C373 1.387 . S
C372 H376 0.950 . S
C372 C381 1.390 . S
C373 C372 1.387 . S
C373 C375 1.387 . S
H374 C381 0.950 . S
C375 C373 1.387 . S
C375 C377 1.390 . S
C375 H379 0.950 . S
H376 C372 0.950 . S
C377 C375 1.390 . S
C377 C378 1.387 . S
C377 H380 0.950 . S
C378 C377 1.387 . S
C378 C381 1.387 . S
H379 C375 0.950 . S
H380 C377 0.950 . S
C381 C372 1.390 . S
C381 H374 0.950 . S
C381 C378 1.387 . S
C382 C383 1.387 . S
C382 H386 0.950 . S
C382 C391 1.390 . S
C383 C382 1.387 . S
C383 C385 1.387 . S
H384 C391 0.950 . S
C385 C383 1.387 . S
C385 C387 1.390 . S
C385 H389 0.950 . S
H386 C382 0.950 . S
C387 C385 1.390 . S
C387 C388 1.387 . S
C387 H390 0.950 . S
C388 C387 1.387 . S
C388 C391 1.387 . S
H389 C385 0.950 . S
H390 C387 0.950 . S
C391 C382 1.390 . S
C391 H384 0.950 . S
C391 C388 1.387 . S
C392 C393 1.387 . S
C392 H396 0.950 . S
C392 C401 1.390 . S
C393 C392 1.387 . S
C393 C395 1.387 . S
H394 C401 0.950 . S
C395 C393 1.387 . S
C395 C397 1.390 . S
C395 H399 0.950 . S
H396 C392 0.950 . S
C397 C395 1.390 . S
C397 C398 1.387 . S
C397 H400 0.950 . S
C398 C397 1.387 . S
C398 C401 1.387 . S
H399 C395 0.950 . S
H400 C397 0.950 . S
C401 C392 1.390 . S
C401 H394 0.950 . S
C401 C398 1.387 . S
C402 C403 1.387 . S
C402 H406 0.950 . S
C402 C411 1.390 . S
C403 C402 1.387 . S
C403 C405 1.387 . S
H404 C411 0.950 . S
C405 C403 1.387 . S
C405 C407 1.390 . S
C405 H409 0.950 . S
H406 C402 0.950 . S
C407 C405 1.390 . S
C407 C408 1.387 . S
C407 H410 0.950 . S
C408 C407 1.387 . S
C408 C411 1.387 . S
H409 C405 0.950 . S
H410 C407 0.950 . S
C411 C402 1.390 . S
C411 H404 0.950 . S
C411 C408 1.387 . S
C412 C413 1.387 . S
C412 H416 0.950 . S
C412 C421 1.390 . S
C413 C412 1.387 . S
C413 C415 1.387 . S
H414 C421 0.950 . S
C415 C413 1.387 . S
C415 C417 1.390 . S
C415 H419 0.950 1_565 S
H416 C412 0.950 . S
C417 C415 1.390 . S
C417 C418 1.387 . S
C417 H420 0.950 . S
C418 C417 1.387 . S
C418 C421 1.387 . S
H419 C415 0.950 1_545 S
H420 C417 0.950 . S
C421 C412 1.390 . S
C421 H414 0.950 . S
C421 C418 1.387 . S
C422 C423 1.387 . S
C422 H426 0.950 . S
C422 C431 1.390 . S
C423 C422 1.387 . S
C423 C425 1.387 . S
H424 C431 0.950 . S
C425 C423 1.387 . S
C425 C427 1.390 . S
C425 H429 0.950 . S
H426 C422 0.950 . S
C427 C425 1.390 . S
C427 C428 1.387 . S
C427 H430 0.950 . S
C428 C427 1.387 . S
C428 C431 1.387 . S
H429 C425 0.950 . S
H430 C427 0.950 . S
C431 C422 1.390 . S
C431 H424 0.950 . S
C431 C428 1.387 . S
C432 C433 1.387 . S
C432 H436 0.967 . S
C432 C441 1.390 . S
C433 C432 1.387 . S
C433 C435 1.387 . S
H434 C441 0.950 . S
C435 C433 1.387 . S
C435 C437 1.390 . S
C435 H439 0.950 . S
H436 C432 0.967 . S
C437 C435 1.390 . S
C437 C438 1.387 . S
C437 H440 0.950 . S
C438 C437 1.387 . S
C438 C441 1.387 . S
H439 C435 0.950 . S
H440 C437 0.950 . S
C441 C432 1.390 . S
C441 H434 0.950 . S
C441 C438 1.387 . S
C442 C443 1.387 . S
C442 H446 0.950 . S
C442 C451 1.390 . S
C443 C442 1.387 . S
C443 C445 1.387 . S
H444 C451 0.950 . S
C445 C443 1.387 . S
C445 C447 1.390 . S
C445 H449 0.950 . S
H446 C442 0.950 . S
C447 C445 1.390 . S
C447 C448 1.387 . S
C447 H450 0.950 . S
C448 C447 1.387 . S
C448 C451 1.387 . S
H449 C445 0.950 . S
H450 C447 0.950 . S
C451 C442 1.390 . S
C451 H444 0.950 . S
C451 C448 1.387 . S
C452 C453 1.387 . S
C452 H456 0.950 . S
C452 C461 1.390 . S
C453 C452 1.387 . S
C453 C455 1.387 . S
H454 C461 0.950 . S
C455 C453 1.387 . S
C455 C457 1.390 . S
C455 H459 0.950 . S
H456 C452 0.950 . S
C457 C455 1.390 . S
C457 C458 1.387 . S
C457 H460 0.950 . S
C458 C457 1.387 . S
C458 C461 1.387 . S
H459 C455 0.950 . S
H460 C457 0.950 . S
C461 C452 1.390 . S
C461 H454 0.950 . S
C461 C458 1.387 . S
C462 C463 1.387 . S
C462 H466 0.950 . S
C462 C471 1.390 . S
C463 C462 1.387 . S
C463 C465 1.387 . S
H464 C471 0.950 . S
C465 C463 1.387 . S
C465 C467 1.390 . S
C465 H469 0.950 . S
H466 C462 0.950 . S
C467 C465 1.390 . S
C467 C468 1.387 . S
C467 H470 0.950 . S
C468 C467 1.387 . S
C468 C471 1.387 . S
H469 C465 0.950 . S
H470 C467 0.950 . S
C471 C462 1.390 . S
C471 H464 0.950 . S
C471 C468 1.387 . S
C472 C473 1.387 . S
C472 H476 0.950 . S
C472 C481 1.390 . S
C473 C472 1.387 . S
C473 C475 1.387 . S
H474 C481 0.950 . S
C475 C473 1.387 . S
C475 C477 1.390 . S
C475 H479 0.950 . S
H476 C472 0.950 . S
C477 C475 1.390 . S
C477 C478 1.387 . S
C477 H480 0.950 . S
C478 C477 1.387 . S
C478 C481 1.387 . S
H479 C475 0.950 . S
H480 C477 0.950 . S
C481 C472 1.390 . S
C481 H474 0.950 . S
C481 C478 1.387 . S
C482 C483 1.387 . S
C482 H486 0.950 . S
C482 C491 1.390 . S
C483 C482 1.387 . S
C483 C485 1.387 . S
H484 C491 0.950 . S
C485 C483 1.387 . S
C485 C487 1.390 . S
C485 H489 0.950 . S
H486 C482 0.950 . S
C487 C485 1.390 . S
C487 C488 1.387 . S
C487 H490 0.950 . S
C488 C487 1.387 . S
C488 C491 1.387 . S
H489 C485 0.950 . S
H490 C487 0.950 . S
C491 C482 1.390 . S
C491 H484 0.950 . S
C491 C488 1.387 . S
C492 C493 1.387 . S
C492 H496 0.950 . S
C492 C501 1.390 . S
C493 C492 1.387 . S
C493 C495 1.387 . S
H494 C501 0.950 . S
C495 C493 1.387 . S
C495 C497 1.390 . S
C495 H499 0.950 . S
H496 C492 0.950 . S
C497 C495 1.390 . S
C497 C498 1.387 . S
C497 H500 0.950 . S
C498 C497 1.387 . S
C498 C501 1.387 . S
H499 C495 0.950 . S
H500 C497 0.950 . S
C501 C492 1.390 . S
C501 H494 0.950 . S
C501 C498 1.387 . S
C502 C503 1.387 . S
C502 H506 0.950 . S
C502 C511 1.390 . S
C503 C502 1.387 . S
C503 C505 1.387 . S
H504 C511 0.950 . S
C505 C503 1.387 . S
C505 C507 1.390 . S
C505 H509 0.950 . S
H506 C502 0.950 . S
C507 C505 1.390 . S
C507 C508 1.387 . S
C507 H510 0.950 . S
C508 C507 1.387 . S
C508 C511 1.387 . S
H509 C505 0.950 . S
H510 C507 0.950 . S
C511 C502 1.390 . S
C511 H504 0.950 . S
C511 C508 1.387 . S
C512 C513 1.387 . S
C512 H516 0.950 . S
C512 C521 1.390 . S
C513 C512 1.387 . S
C513 C515 1.387 . S
H514 C521 0.950 . S
C515 C513 1.387 . S
C515 C517 1.390 . S
C515 H519 0.950 . S
H516 C512 0.950 . S
C517 C515 1.390 . S
C517 C518 1.387 . S
C517 H520 0.950 . S
C518 C517 1.387 . S
C518 C521 1.387 . S
H519 C515 0.950 . S
H520 C517 0.950 . S
C521 C512 1.390 . S
C521 H514 0.950 . S
C521 C518 1.387 . S
C522 C523 1.387 . S
C522 H526 0.950 . S
C522 C531 1.390 . S
C523 C522 1.387 . S
C523 C525 1.387 . S
H524 C531 0.950 . S
C525 C523 1.387 . S
C525 C527 1.390 . S
C525 H529 0.950 . S
H526 C522 0.950 . S
C527 C525 1.390 . S
C527 C528 1.387 . S
C527 H530 0.950 . S
C528 C527 1.387 . S
C528 C531 1.387 . S
H529 C525 0.950 . S
H530 C527 0.950 . S
C531 C522 1.390 . S
C531 H524 0.950 . S
C531 C528 1.387 . S
C532 C533 1.387 . S
C532 H536 0.950 . S
C532 C541 1.390 . S
C533 C532 1.387 . S
C533 C535 1.387 . S
H534 C541 0.950 . S
C535 C533 1.387 . S
C535 C537 1.390 . S
C535 H539 0.950 . S
H536 C532 0.950 . S
C537 C535 1.390 . S
C537 C538 1.387 . S
C537 H540 0.950 . S
C538 C537 1.387 . S
C538 C541 1.387 . S
H539 C535 0.950 . S
H540 C537 0.950 . S
C541 C532 1.390 . S
C541 H534 0.950 . S
C541 C538 1.387 . S
C542 C543 1.387 . S
C542 H546 0.950 . S
C542 C551 1.390 . S
C543 C542 1.387 . S
C543 C545 1.387 . S
H544 C551 0.950 . S
C545 C543 1.387 . S
C545 C547 1.390 . S
C545 H549 0.950 . S
H546 C542 0.950 . S
C547 C545 1.390 . S
C547 C548 1.387 . S
C547 H550 0.950 . S
C548 C547 1.387 . S
C548 C551 1.387 . S
H549 C545 0.950 . S
H550 C547 0.950 . S
C551 C542 1.390 . S
C551 H544 0.950 . S
C551 C548 1.387 . S
C552 C553 1.387 . S
C552 H556 0.950 . S
C552 C561 1.390 1_556 S
C553 C552 1.387 . S
C553 C555 1.387 . S
H554 C561 0.950 . S
C555 C553 1.387 . S
C555 C557 1.390 1_556 S
C555 H559 0.950 . S
H556 C552 0.950 . S
C557 C555 1.390 1_554 S
C557 C558 1.387 . S
C557 H560 0.950 . S
C558 C557 1.387 . S
C558 C561 1.387 . S
H559 C555 0.950 . S
H560 C557 0.950 . S
C561 C552 1.390 1_554 S
C561 H554 0.950 . S
C561 C558 1.387 . S
C562 C563 1.387 1_655 S
C562 H566 0.950 . S
C562 C571 1.390 . S
C563 C562 1.387 1_455 S
C563 C565 1.387 . S
H564 C571 0.950 . S
C565 C563 1.387 . S
C565 C567 1.390 . S
C565 H569 0.950 . S
H566 C562 0.950 . S
C567 C565 1.390 . S
C567 C568 1.387 1_455 S
C567 H570 0.950 . S
C568 C567 1.387 1_655 S
C568 C571 1.387 . S
H569 C565 0.950 . S
H570 C567 0.950 . S
C571 C562 1.390 . S
C571 H564 0.950 . S
C571 C568 1.387 . S
C572 C573 1.387 . S
C572 H576 0.950 . S
C572 C581 1.390 1_564 S
C573 C572 1.387 . S
C573 C575 1.387 . S
H574 C581 0.950 . S
C575 C573 1.387 . S
C575 C577 1.390 1_564 S
C575 H579 0.950 . S
H576 C572 0.950 . S
C577 C575 1.390 1_546 S
C577 C578 1.387 . S
C577 H580 0.950 . S
C578 C577 1.387 . S
C578 C581 1.387 . S
H579 C575 0.950 . S
H580 C577 0.950 . S
C581 C572 1.390 1_546 S
C581 H574 0.950 . S
C581 C578 1.387 . S
C582 C583 1.387 . S
C582 H586 0.950 . S
C582 C591 1.390 . S
C583 C582 1.387 . S
C583 C585 1.387 . S
H584 C591 0.950 . S
C585 C583 1.387 . S
C585 C587 1.390 . S
C585 H589 0.950 . S
H586 C582 0.950 . S
C587 C585 1.390 . S
C587 C588 1.387 . S
C587 H590 0.950 . S
C588 C587 1.387 . S
C588 C591 1.387 . S
H589 C585 0.950 . S
H590 C587 0.950 . S
C591 C582 1.390 . S
C591 H584 0.950 . S
C591 C588 1.387 . S
C592 C593 1.387 1_455 S
C592 H596 0.950 . S
C592 C601 1.390 1_556 S
C593 C592 1.387 1_655 S
C593 C595 1.387 . S
H594 C601 0.950 . S
C595 C593 1.387 . S
C595 C597 1.390 1_556 S
C595 H599 0.950 . S
H596 C592 0.950 . S
C597 C595 1.390 1_554 S
C597 C598 1.387 1_655 S
C597 H600 0.950 . S
C598 C597 1.387 1_455 S
C598 C601 1.387 . S
H599 C595 0.950 . S
H600 C597 0.950 . S
C601 C592 1.390 1_554 S
C601 H594 0.950 . S
C601 C598 1.387 . S
C602 C603 1.387 . S
C602 H606 0.950 . S
C602 C611 1.390 1_565 S
C603 C602 1.387 . S
C603 C605 1.387 . S
H604 C611 0.950 . S
C605 C603 1.387 . S
C605 C607 1.390 1_565 S
C605 H609 0.950 . S
H606 C602 0.950 . S
C607 C605 1.390 1_545 S
C607 C608 1.387 . S
C607 H610 0.950 . S
C608 C607 1.387 . S
C608 C611 1.387 . S
H609 C605 0.950 . S
H610 C607 0.950 . S
C611 C602 1.390 1_545 S
C611 H604 0.950 . S
C611 C608 1.387 . S
C253 C91 1.018 1_545 S
C258 C19 0.986 . S
C263 C112 1.019 . S
C268 C41 0.985 . S
C273 C61 0.992 . S
C278 C7 1.012 1_655 S
C283 C82 0.986 . S
C288 C25 1.019 1_565 S
C293 C103 0.986 . S
C298 C49 1.018 . S
C303 C70 1.015 1_455 S
C308 C124 0.988 . S
C313 C175 1.019 1_655 S
C318 C146 0.986 . S
C323 C166 0.987 . S
C328 C196 1.018 1_565 S
C333 C217 1.012 . S
C338 C187 0.992 . S
C343 C208 0.986 . S
C348 C238 1.019 1_455 S
C353 C229 0.992 . S
C358 C130 1.012 1_545 S
C363 C154 1.012 . S
C368 C250 0.992 . S
C373 C88 0.976 . S
C378 C3 1.242 . S
C383 C37 1.246 . S
C388 C109 0.971 . S
C393 C45 1.242 . S
C398 C4 0.976 . S
C403 C66 1.247 . S
C408 C28 0.976 . S
C413 C46 0.971 . S
C418 C87 1.245 . S
C423 C67 0.979 . S
C428 C108 1.242 . S
C433 C172 0.980 . S
C438 C142 1.244 . S
C443 C150 1.242 . S
C448 C193 0.976 . S
C453 C171 1.246 . S
C458 C214 0.979 . S
C463 C235 0.980 . S
C468 C192 1.244 . S
C473 C213 1.242 . S
C478 C133 0.976 . S
C483 C151 0.976 . S
C488 C234 1.242 . S
C493 C226 1.432 . S
C498 C16 1.432 . S
C503 C24 1.431 . S
C508 C247 1.428 . S
C513 C58 1.433 . S
C518 C129 1.431 . S
C523 C79 1.432 . S
C528 C163 1.432 . S
C533 C100 1.429 . S
C538 C184 1.433 . S
C543 C205 1.428 . S
C548 C121 1.433 . S
C553 C209 1.404 . S
C558 C20 1.403 . S
C563 C230 1.402 . S
C568 C40 1.405 . S
C573 C62 1.401 . S
C578 C251 1.401 . S
C583 C83 1.403 . S
C588 C145 1.401 . S
C593 C167 1.401 . S
C598 C104 1.404 . S
C603 C188 1.404 . S
C608 C125 1.404 . S
