# Generated by pormake.
# Topology qtz-x, (6)-cn, num edge types: 1
# Building blocks:
#     Node 0, Type 0, BuildingBlock: INOVEN_clean_sbu_0, # of connection points: 6
#     Node 1, Type 0, BuildingBlock: INOVEN_clean_sbu_0, # of connection points: 6
#     Node 2, Type 0, BuildingBlock: INOVEN_clean_sbu_0, # of connection points: 6
#     Edge 3, Type (0, 0), BuildingBlock: EZIPEK_clean_linker_0, # of connection points: 2
#     Edge 4, Type (0, 0), BuildingBlock: EZIPEK_clean_linker_0, # of connection points: 2
#     Edge 5, Type (0, 0), BuildingBlock: EZIPEK_clean_linker_0, # of connection points: 2
#     Edge 6, Type (0, 0), BuildingBlock: EZIPEK_clean_linker_0, # of connection points: 2
#     Edge 7, Type (0, 0), BuildingBlock: EZIPEK_clean_linker_0, # of connection points: 2
#     Edge 8, Type (0, 0), BuildingBlock: EZIPEK_clean_linker_0, # of connection points: 2
#     Edge 9, Type (0, 0), BuildingBlock: EZIPEK_clean_linker_0, # of connection points: 2
#     Edge 10, Type (0, 0), BuildingBlock: EZIPEK_clean_linker_0, # of connection points: 2
#     Edge 11, Type (0, 0), BuildingBlock: EZIPEK_clean_linker_0, # of connection points: 2
# Relax obj value: 0.331
# Max RMSD: 0.311
# Mean RMSD: 0.271
data_MOF--net-qtz-x--node1-INOVEN_clean_sbu_0--edge1-EZIPEK_clean_linker_0
_symmetry_space_group_name_H-M    P1
_symmetry_Int_Tables_number       1
_symmetry_cell_setting            triclinic
loop_
_symmetry_equiv_pos_as_xyz
'x, y, z'
_cell_length_a     11.29234
_cell_length_b     11.128091
_cell_length_c     41.325385
_cell_angle_alpha  64.47393
_cell_angle_beta   117.28915
_cell_angle_gamma 122.41664
loop_
_atom_site_label
_atom_site_type_symbol
_atom_site_fract_x
_atom_site_fract_y
_atom_site_fract_z
_atom_type_partial_charge
Gd0 Gd 1.02644 0.62947 0.19092 0.0
Gd1 Gd 0.34993 0.80075 0.18764 0.0
C2 C 0.30891 0.69133 0.26772 0.0
C3 C 0.82126 0.42276 0.21939 0.0
C4 C 0.82647 0.39259 0.25874 0.0
C5 C 0.73901 0.42542 0.2663 0.0
C6 C 0.92983 0.344 0.28936 0.0
C7 C 0.84363 0.34265 0.33384 0.0
C8 C 0.94017 0.32226 0.32631 0.0
C9 C 0.7459 0.39861 0.30346 0.0
C10 C 0.12859 0.91801 0.19069 0.0
C11 C 0.07493 0.74262 0.10898 0.0
C12 C 0.57052 0.02179 0.16864 0.0
C13 C 0.60979 0.0551 0.13568 0.0
C14 C 0.64906 0.96055 0.13275 0.0
C15 C 0.58096 0.16544 0.10407 0.0
C16 C 0.64183 0.0942 0.06845 0.0
C17 C 0.59355 0.18223 0.07032 0.0
C18 C 0.66332 -0.02073 0.0991 0.0
C19 C 0.25819 0.51098 0.19132 0.0
O20 O 0.16624 0.62469 0.25179 0.0
O21 O 0.4049 0.77124 0.24874 0.0
O22 O 0.80998 0.5444 0.1962 0.0
O23 O 0.91503 0.39836 0.21557 0.0
O24 O 0.99454 0.81977 0.18852 0.0
O25 O 0.19561 0.85602 0.19037 0.0
O26 O 0.21828 0.7984 0.12655 0.0
O27 O 0.97608 0.6705 0.12773 0.0
O28 O 0.58378 0.90675 0.1957 0.0
O29 O 0.44726 0.02895 0.16031 0.0
O30 O 0.38907 0.61434 0.19101 0.0
O31 O 0.18485 0.56888 0.19084 0.0
H32 H 0.66421 0.47034 0.24338 0.0
H33 H 1.00384 0.32296 0.28496 0.0
H34 H 1.01974 0.28329 0.34918 0.0
H35 H 0.67381 0.4199 0.30858 0.0
H36 H 0.66587 0.87043 0.15605 0.0
H37 H 0.54358 0.23497 0.10511 0.0
H38 H 0.56458 0.26224 0.04559 0.0
H39 H 0.69379 0.90602 0.09708 0.0
Gd40 Gd 0.97116 0.18157 0.5721 0.0
Gd41 Gd 0.76237 0.87806 0.56269 0.0
C42 C 0.87106 0.92538 0.64472 0.0
C43 C 0.11266 0.44299 0.5819 0.0
C44 C 0.14489 0.51668 0.60845 0.0
C45 C 0.28446 0.63169 0.61695 0.0
C46 C 1.05107 0.45849 0.62992 0.0
C47 C 0.23743 0.63022 0.66838 0.0
C48 C 0.09715 0.5159 0.65979 0.0
C49 C 0.33031 0.68953 0.64664 0.0
C50 C 0.14623 0.07371 0.57522 0.0
C51 C 0.83746 0.14593 0.48901 0.0
C52 C 0.63313 0.63456 0.54298 0.0
C53 C 0.58829 0.61434 0.50514 0.0
C54 C 0.43995 0.57413 0.48318 0.0
C55 C 0.69285 0.65389 0.48857 0.0
C56 C 0.50438 0.62938 0.42823 0.0
C57 C 0.6511 0.66088 0.45046 0.0
C58 C 0.39857 0.58225 0.44509 0.0
C59 C 0.58747 -0.00891 0.55689 0.0
O60 O 0.93726 0.06662 0.62933 0.0
O61 O 0.80841 0.82528 0.62567 0.0
O62 O 0.16774 0.34704 0.59732 0.0
O63 O 0.97925 0.39725 0.55871 0.0
O64 O 0.18495 0.20224 0.57701 0.0
O65 O 1.00651 0.00162 0.57063 0.0
O66 O 0.76721 0.00437 0.50304 0.0
O67 O 0.91812 0.24003 0.51004 0.0
O68 O 0.56321 0.69106 0.54543 0.0
O69 O 0.77313 0.69126 0.56075 0.0
O70 O 0.54752 0.85995 0.55622 0.0
O71 O 0.72749 0.06087 0.56245 0.0
H72 H 0.35967 0.67338 0.60136 0.0
H73 H 0.94547 0.36584 0.62449 0.0
H74 H 1.02524 0.46955 0.6767 0.0
H75 H 0.43898 0.77758 0.65326 0.0
H76 H 0.35658 0.54279 0.49508 0.0
H77 H 0.80766 0.68513 0.50453 0.0
H78 H 0.73386 0.69477 0.43805 0.0
H79 H 0.28447 0.55578 0.42847 0.0
Gd80 Gd 0.90458 0.93274 0.8601 0.0
Gd81 Gd 1.05712 0.76114 0.89129 0.0
C82 C 1.00923 0.81399 0.95255 0.0
C83 C 0.75389 0.05844 0.84984 0.0
C84 C 0.74588 0.07776 0.88144 0.0
C85 C 0.82098 0.21692 0.88847 0.0
C86 C 0.68699 0.95405 0.90866 0.0
C87 C 0.75416 0.11057 0.94566 0.0
C88 C 0.6953 0.96993 0.94106 0.0
C89 C 0.82113 0.23375 0.9199 0.0
C90 C 0.19081 0.10107 0.86382 0.0
C91 C 0.92697 0.86099 0.7992 0.0
C92 C 0.22685 0.65846 0.89895 0.0
C93 C 0.27149 0.67767 0.86804 0.0
C94 C 0.20721 0.55985 0.85208 0.0
C95 C 0.35719 0.81874 0.85001 0.0
C96 C 0.30982 0.72459 0.80039 0.0
C97 C 0.37729 0.84166 0.81666 0.0
C98 C 0.22678 0.58298 0.81862 0.0
C99 C 0.76941 0.59218 0.88681 0.0
O100 O 0.92149 0.86748 0.92244 0.0
O101 O 0.08979 0.77198 0.94844 0.0
O102 O 0.8832 0.13417 0.84465 0.0
O103 O 0.69325 0.92274 0.84775 0.0
O104 O 0.08307 0.11564 0.83449 0.0
O105 O 0.14251 -0.00608 0.88976 0.0
O106 O 1.03372 0.8312 0.82808 0.0
O107 O 0.84067 0.88916 0.80514 0.0
O108 O 0.08748 0.5773 0.89589 0.0
O109 O 0.27676 0.77719 0.90913 0.0
O110 O 0.87699 0.57329 0.9157 0.0
O111 O 0.81918 0.70084 0.86132 0.0
H112 H 0.87773 0.31243 0.86941 0.0
H113 H 0.63417 0.84439 0.90513 0.0
H114 H 0.64624 0.87294 0.96127 0.0
H115 H 0.87152 0.3421 0.92392 0.0
H116 H 0.13692 0.45109 0.86466 0.0
H117 H 0.40509 0.91269 0.86096 0.0
H118 H 0.44297 0.95124 0.80312 0.0
H119 H 0.17484 0.49072 0.80653 0.0
C120 C 0.29463 0.14997 0.21676 0.0
C121 C 0.17642 0.07809 0.18865 0.0
C122 C 0.09681 0.27942 0.16496 0.0
C123 C 0.21495 0.35178 0.19308 0.0
N124 N 0.39845 0.32695 0.2523 0.0
N125 N 0.99352 0.09978 0.12986 0.0
C126 C 0.30705 0.27954 0.22047 0.0
C127 C 0.08435 0.14917 0.16145 0.0
N128 N 0.40046 0.09942 0.23892 0.0
N129 N 0.99188 0.33078 0.14241 0.0
H130 H 0.98623 0.01109 0.125 0.0
H131 H 0.94104 0.15905 0.10663 0.0
H132 H 0.9973 0.42458 0.14392 0.0
H133 H 0.89221 0.27081 0.12547 0.0
H134 H 0.49645 0.15295 0.25806 0.0
H135 H 0.3982 0.01102 0.23544 0.0
H136 H 0.44279 0.26182 0.27657 0.0
H137 H 0.41482 0.4226 0.25561 0.0
C138 C 0.32235 0.93837 0.54444 0.0
C139 C 0.47606 0.03065 0.55676 0.0
C140 C 0.41308 0.13345 0.58588 0.0
C141 C 0.25937 0.03934 0.57406 0.0
N142 N 0.08608 0.81498 0.55546 0.0
N143 N 0.65136 0.25586 0.5756 0.0
C144 C 0.21894 0.93199 0.55679 0.0
C145 C 0.51678 0.13995 0.57351 0.0
N146 N 0.2726 0.86319 0.51865 0.0
N147 N 0.4634 0.20697 0.61209 0.0
H148 H 0.72384 0.2693 0.56415 0.0
H149 H 0.6822 0.34712 0.58398 0.0
H150 H 0.3966 0.18886 0.62618 0.0
H151 H 0.57459 0.26789 0.62394 0.0
H152 H 0.16145 0.80331 0.50649 0.0
H153 H 0.34037 0.87848 0.50528 0.0
H154 H 1.05215 0.72624 0.54565 0.0
H155 H 1.02408 0.79567 0.57088 0.0
C156 C 0.43375 0.26113 0.85041 0.0
C157 C 0.33872 0.22696 0.86969 0.0
C158 C 0.51848 0.44223 0.89614 0.0
C159 C 0.61915 0.46873 0.8798 0.0
N160 N 0.67231 0.41314 0.83919 0.0
N161 N 0.28739 0.28335 0.91072 0.0
C162 C 0.57644 0.38026 0.85634 0.0
C163 C 0.38069 0.31666 0.89269 0.0
N164 N 0.38765 0.17707 0.82703 0.0
N165 N 0.55072 0.54375 0.91259 0.0
H166 H 0.17887 0.2046 0.90532 0.0
H167 H 0.31795 0.33061 0.93185 0.0
H168 H 0.64753 0.63967 0.9138 0.0
H169 H 0.47859 0.54035 0.92233 0.0
H170 H 0.44944 0.19108 0.81223 0.0
H171 H 0.28411 0.0898 0.82208 0.0
H172 H 0.64972 0.36149 0.81996 0.0
H173 H 0.7797 0.49294 0.84498 0.0
C174 C 0.84076 0.20566 1.00143 0.0
C175 C 0.72569 0.12646 0.97449 0.0
C176 C 0.55483 0.02851 1.00901 0.0
C177 C 0.66541 0.11776 1.03391 0.0
N178 N 0.89832 0.32845 0.04591 0.0
N179 N 0.46379 0.01305 0.9454 0.0
C180 C 0.8037 0.21912 1.02757 0.0
C181 C 0.57942 0.05387 0.97592 0.0
N182 N 0.98446 0.26052 1.00362 0.0
N183 N 0.42886 0.91703 1.0172 0.0
H184 H 0.47684 0.03823 0.91951 0.0
H185 H 0.35587 0.97011 0.94511 0.0
H186 H 0.40462 0.89602 1.04113 0.0
H187 H 0.35395 0.83939 1.00134 0.0
H188 H 1.07144 0.30736 1.02533 0.0
H189 H 1.01676 0.24545 0.98625 0.0
H190 H 0.99641 0.41045 1.04016 0.0
H191 H 0.87033 0.34568 0.06375 0.0
C192 C 0.84875 0.11396 0.43394 0.0
C193 C 0.83656 0.19849 0.44901 0.0
C194 C 0.85351 0.39155 0.39014 0.0
C195 C 0.8384 0.29445 0.37328 0.0
N196 N 0.77883 0.04483 0.37789 0.0
N197 N 0.80165 0.411 0.43801 0.0
C198 C 0.8226 0.14989 0.39477 0.0
C199 C 0.83149 0.33571 0.42613 0.0
N200 N 0.89584 0.00608 0.45695 0.0
N201 N 0.8947 0.53764 0.37275 0.0
H202 H 0.7737 0.36923 0.46271 0.0
H203 H 0.78879 0.50742 0.42136 0.0
H204 H 0.91858 0.58373 0.34732 0.0
H205 H 0.92062 0.61503 0.38552 0.0
H206 H 0.9196 0.95261 0.44685 0.0
H207 H 0.93054 -0.01562 0.48617 0.0
H208 H 0.75793 0.93582 0.3926 0.0
H209 H 0.74647 0.06209 0.34882 0.0
C210 C 0.89552 0.75199 0.75068 0.0
C211 C 0.90667 0.86897 0.75962 0.0
C212 C 0.84294 -0.01381 0.69207 0.0
C213 C 0.86082 0.88678 0.68363 0.0
N214 N 0.90323 0.66905 0.70636 0.0
N215 N 0.91646 0.11302 0.73749 0.0
C216 C 0.88384 0.76607 0.71319 0.0
C217 C 0.88686 -0.00998 0.72991 0.0
N218 N 0.89309 0.62556 0.77774 0.0
N219 N 0.77671 0.07317 0.66377 0.0
H220 H 0.95623 0.12528 0.76463 0.0
H221 H 0.91748 0.20933 0.71678 0.0
H222 H 0.73118 0.06338 0.6362 0.0
H223 H 0.74968 0.13917 0.66844 0.0
H224 H 0.86359 0.52894 0.77205 0.0
H225 H 0.91132 0.61378 0.80572 0.0
H226 H 0.93905 0.59076 0.72752 0.0
H227 H 0.89543 0.67303 0.67992 0.0
C228 C 0.90828 0.67549 1.00893 0.0
C229 C 1.01414 0.80005 0.99138 0.0
C230 C 0.11992 0.90418 0.04586 0.0
C231 C 1.03209 0.76867 0.06631 0.0
N232 N 0.80192 0.55207 0.06027 0.0
N233 N 0.21653 0.03834 0.9924 0.0
C234 C 0.91362 0.66235 0.04578 0.0
C235 C 0.11758 0.91648 1.00955 0.0
N236 N 0.8067 0.56481 0.99116 0.0
N237 N 0.19688 0.02521 0.06002 0.0
H238 H 0.21859 0.04941 0.96632 0.0
H239 H 0.30453 0.12191 1.00516 0.0
H240 H 0.18968 0.02343 0.08453 0.0
H241 H 0.25245 0.13086 0.04552 0.0
H242 H 0.72644 0.46864 1.00182 0.0
H243 H 0.80911 0.56419 0.96643 0.0
H244 H 0.69855 0.4979 0.04332 0.0
H245 H 0.80385 0.52567 0.08776 0.0
C246 C 0.34464 0.76102 0.32291 0.0
C247 C 0.36269 0.67816 0.30873 0.0
C248 C 0.46519 0.55613 0.37306 0.0
C249 C 0.46102 0.64954 0.38701 0.0
N250 N 0.43079 0.86613 0.37434 0.0
N251 N 0.46913 0.51999 0.32002 0.0
C252 C 0.41079 0.75972 0.36165 0.0
C253 C 0.43252 0.58321 0.33374 0.0
N254 N 0.26183 0.83842 0.2997 0.0
N255 N 0.49354 0.43743 0.39713 0.0
H256 H 0.44753 0.53919 0.29139 0.0
H257 H 0.53306 0.46127 0.33694 0.0
H258 H 0.51545 0.41219 0.42612 0.0
H259 H 0.48276 0.35706 0.38806 0.0
H260 H 0.23443 0.89005 0.30934 0.0
H261 H 0.20921 0.83979 0.27131 0.0
H262 H 0.41078 0.958 0.35643 0.0
H263 H 0.48218 0.87082 0.40243 0.0
C264 C 0.26075 0.81704 0.73002 0.0
C265 C 0.3304 0.74483 0.76528 0.0
C266 C 0.37591 0.63363 0.73537 0.0
C267 C 0.28736 0.68674 0.70066 0.0
N268 N 0.16867 0.84945 0.66213 0.0
N269 N 0.5163 0.6554 0.7989 0.0
C270 C 0.23961 0.78785 0.697 0.0
C271 C 0.40747 0.67504 0.76713 0.0
N272 N 0.21527 0.91182 0.72832 0.0
N273 N 0.42223 0.53677 0.73859 0.0
H274 H 0.54151 0.6864 0.82257 0.0
H275 H 0.59279 0.62953 0.79924 0.0
H276 H 0.40277 0.50448 0.71572 0.0
H277 H 0.47222 0.48175 0.76438 0.0
H278 H 0.17553 -0.02154 0.70361 0.0
H279 H 0.22138 0.92859 0.75204 0.0
H280 H 0.13004 0.92428 0.65675 0.0
H281 H 0.14979 0.82671 0.6378 0.0
loop_
_geom_bond_atom_site_label_1
_geom_bond_atom_site_label_2
_geom_bond_distance
_geom_bond_site_symmetry_2
_ccdc_geom_bond_type
Gd0 C3 2.818 . S
Gd0 O20 2.377 1_655 S
Gd0 O22 2.448 . S
Gd0 O23 2.506 . S
Gd0 O24 2.435 . S
Gd0 O25 2.717 1_655 S
Gd0 O27 2.395 . S
Gd0 O31 2.327 . S
Gd1 C12 2.818 . S
Gd1 O21 2.395 . S
Gd1 O25 2.327 . S
Gd1 O26 2.377 1_455 S
Gd1 O28 2.448 . S
Gd1 O29 2.506 1_565 S
Gd1 O30 2.435 . S
Gd1 O31 2.717 1_455 S
C2 O20 1.240 . S
C2 O21 1.240 . S
C3 Gd0 2.818 . S
C3 C4 1.510 . S
C3 O22 1.249 . S
C3 O23 1.252 . S
C4 C3 1.510 . S
C4 C5 1.404 . S
C4 C6 1.352 . S
C5 C4 1.404 . S
C5 C9 1.389 . S
C5 H32 0.930 . S
C6 C4 1.352 . S
C6 C8 1.374 . S
C6 H33 0.931 . S
C7 C8 1.359 . S
C7 C9 1.364 . S
C8 C6 1.374 . S
C8 C7 1.359 . S
C8 H34 0.931 . S
C9 C5 1.389 . S
C9 C7 1.364 . S
C9 H35 0.931 . S
C10 O24 1.256 . S
C10 O25 1.257 1_655 S
C11 O26 1.240 . S
C11 O27 1.240 . S
C12 Gd1 2.818 . S
C12 C13 1.510 1_565 S
C12 O28 1.249 . S
C12 O29 1.252 1_565 S
C13 C12 1.510 1_545 S
C13 C14 1.404 1_545 S
C13 C15 1.352 . S
C14 C13 1.404 1_565 S
C14 C18 1.389 1_565 S
C14 H36 0.930 . S
C15 C13 1.352 . S
C15 C17 1.374 1_554 S
C15 H37 0.931 . S
C16 C17 1.359 . S
C16 C18 1.364 1_556 S
C17 C15 1.374 1_556 S
C17 C16 1.359 . S
C17 H38 0.931 . S
C18 C14 1.389 1_545 S
C18 C16 1.364 1_554 S
C18 H39 0.931 1_545 S
C19 O30 1.256 . S
C19 O31 1.257 1_455 S
O20 Gd0 2.377 1_455 S
O20 C2 1.240 . S
O21 Gd1 2.395 . S
O21 C2 1.240 . S
O22 Gd0 2.448 . S
O22 C3 1.249 . S
O23 Gd0 2.506 . S
O23 C3 1.252 . S
O24 Gd0 2.435 . S
O24 C10 1.256 . S
O25 Gd0 2.717 1_455 S
O25 Gd1 2.327 . S
O25 C10 1.257 1_455 S
O26 Gd1 2.377 1_655 S
O26 C11 1.240 . S
O27 Gd0 2.395 . S
O27 C11 1.240 . S
O28 Gd1 2.448 . S
O28 C12 1.249 . S
O29 Gd1 2.506 1_545 S
O29 C12 1.252 1_545 S
O30 Gd1 2.435 . S
O30 C19 1.256 . S
O31 Gd0 2.327 . S
O31 Gd1 2.717 1_655 S
O31 C19 1.257 1_655 S
H32 C5 0.930 . S
H33 C6 0.931 . S
H34 C8 0.931 . S
H35 C9 0.931 . S
H36 C14 0.930 . S
H37 C15 0.931 . S
H38 C17 0.931 . S
H39 C18 0.931 1_565 S
Gd40 C43 2.818 1_655 S
Gd40 O60 2.377 . S
Gd40 O62 2.448 1_655 S
Gd40 O63 2.506 . S
Gd40 O64 2.435 1_655 S
Gd40 O65 2.717 1_545 S
Gd40 O67 2.395 . S
Gd40 O71 2.327 . S
Gd41 C52 2.818 . S
Gd41 O61 2.395 . S
Gd41 O65 2.327 . S
Gd41 O66 2.377 . S
Gd41 O68 2.448 . S
Gd41 O69 2.506 . S
Gd41 O70 2.435 . S
Gd41 O71 2.717 1_565 S
C42 O60 1.240 1_565 S
C42 O61 1.240 . S
C43 Gd40 2.818 1_455 S
C43 C44 1.510 . S
C43 O62 1.249 . S
C43 O63 1.252 1_455 S
C44 C43 1.510 . S
C44 C45 1.404 . S
C44 C46 1.352 . S
C45 C44 1.404 . S
C45 C49 1.389 . S
C45 H72 0.930 . S
C46 C44 1.352 . S
C46 C48 1.374 . S
C46 H73 0.931 1_455 S
C47 C48 1.359 . S
C47 C49 1.364 . S
C48 C46 1.374 . S
C48 C47 1.359 . S
C48 H74 0.931 1_455 S
C49 C45 1.389 . S
C49 C47 1.364 . S
C49 H75 0.931 . S
C50 O64 1.256 . S
C50 O65 1.257 1_445 S
C51 O66 1.240 1_545 S
C51 O67 1.240 . S
C52 Gd41 2.818 . S
C52 C53 1.510 . S
C52 O68 1.249 . S
C52 O69 1.252 . S
C53 C52 1.510 . S
C53 C54 1.404 . S
C53 C55 1.352 . S
C54 C53 1.404 . S
C54 C58 1.389 . S
C54 H76 0.930 . S
C55 C53 1.352 . S
C55 C57 1.374 . S
C55 H77 0.931 . S
C56 C57 1.359 . S
C56 C58 1.364 . S
C57 C55 1.374 . S
C57 C56 1.359 . S
C57 H78 0.931 . S
C58 C54 1.389 . S
C58 C56 1.364 . S
C58 H79 0.931 . S
C59 O70 1.256 . S
C59 O71 1.257 1_565 S
O60 Gd40 2.377 . S
O60 C42 1.240 1_545 S
O61 Gd41 2.395 . S
O61 C42 1.240 . S
O62 Gd40 2.448 1_455 S
O62 C43 1.249 . S
O63 Gd40 2.506 . S
O63 C43 1.252 1_655 S
O64 Gd40 2.435 1_455 S
O64 C50 1.256 . S
O65 Gd40 2.717 1_565 S
O65 Gd41 2.327 . S
O65 C50 1.257 1_665 S
O66 Gd41 2.377 . S
O66 C51 1.240 1_565 S
O67 Gd40 2.395 . S
O67 C51 1.240 . S
O68 Gd41 2.448 . S
O68 C52 1.249 . S
O69 Gd41 2.506 . S
O69 C52 1.252 . S
O70 Gd41 2.435 . S
O70 C59 1.256 . S
O71 Gd40 2.327 . S
O71 Gd41 2.717 1_545 S
O71 C59 1.257 1_545 S
H72 C45 0.930 . S
H73 C46 0.931 1_655 S
H74 C48 0.931 1_655 S
H75 C49 0.931 . S
H76 C54 0.930 . S
H77 C55 0.931 . S
H78 C57 0.931 . S
H79 C58 0.931 . S
Gd80 C83 2.818 . S
Gd80 O100 2.377 1_655 S
Gd80 O102 2.448 . S
Gd80 O103 2.506 . S
Gd80 O104 2.435 1_655 S
Gd80 O105 2.717 1_655 S
Gd80 O107 2.395 . S
Gd80 O111 2.327 1_545 S
Gd81 C92 2.818 . S
Gd81 O101 2.395 . S
Gd81 O105 2.327 1_565 S
Gd81 O106 2.377 1_455 S
Gd81 O108 2.448 . S
Gd81 O109 2.506 . S
Gd81 O110 2.435 1_455 S
Gd81 O111 2.717 1_455 S
C82 O100 1.240 1_565 S
C82 O101 1.240 . S
C83 Gd80 2.818 . S
C83 C84 1.510 . S
C83 O102 1.249 . S
C83 O103 1.252 . S
C84 C83 1.510 . S
C84 C85 1.404 . S
C84 C86 1.352 . S
C85 C84 1.404 . S
C85 C89 1.389 . S
C85 H112 0.930 . S
C86 C84 1.352 . S
C86 C88 1.374 . S
C86 H113 0.931 1_545 S
C87 C88 1.359 . S
C87 C89 1.364 . S
C88 C86 1.374 . S
C88 C87 1.359 . S
C88 H114 0.931 . S
C89 C85 1.389 . S
C89 C87 1.364 . S
C89 H115 0.931 . S
C90 O104 1.256 . S
C90 O105 1.257 . S
C91 O106 1.240 1_545 S
C91 O107 1.240 . S
C92 Gd81 2.818 . S
C92 C93 1.510 . S
C92 O108 1.249 . S
C92 O109 1.252 . S
C93 C92 1.510 . S
C93 C94 1.404 . S
C93 C95 1.352 . S
C94 C93 1.404 . S
C94 C98 1.389 . S
C94 H116 0.930 . S
C95 C93 1.352 . S
C95 C97 1.374 . S
C95 H117 0.931 1_565 S
C96 C97 1.359 . S
C96 C98 1.364 . S
C97 C95 1.374 . S
C97 C96 1.359 . S
C97 H118 0.931 . S
C98 C94 1.389 . S
C98 C96 1.364 . S
C98 H119 0.931 . S
C99 O110 1.256 . S
C99 O111 1.257 . S
O100 Gd80 2.377 1_455 S
O100 C82 1.240 1_545 S
O101 Gd81 2.395 . S
O101 C82 1.240 . S
O102 Gd80 2.448 . S
O102 C83 1.249 . S
O103 Gd80 2.506 . S
O103 C83 1.252 . S
O104 Gd80 2.435 1_455 S
O104 C90 1.256 . S
O105 Gd80 2.717 1_455 S
O105 Gd81 2.327 1_545 S
O105 C90 1.257 . S
O106 Gd81 2.377 1_655 S
O106 C91 1.240 1_565 S
O107 Gd80 2.395 . S
O107 C91 1.240 . S
O108 Gd81 2.448 . S
O108 C92 1.249 . S
O109 Gd81 2.506 . S
O109 C92 1.252 . S
O110 Gd81 2.435 1_655 S
O110 C99 1.256 . S
O111 Gd80 2.327 1_565 S
O111 Gd81 2.717 1_655 S
O111 C99 1.257 . S
H112 C85 0.930 . S
H113 C86 0.931 1_565 S
H114 C88 0.931 . S
H115 C89 0.931 . S
H116 C94 0.930 . S
H117 C95 0.931 1_545 S
H118 C97 0.931 . S
H119 C98 0.931 . S
C120 C121 1.363 . S
C120 C126 1.379 . S
C120 N128 1.356 . S
C121 C120 1.363 . S
C121 C127 1.363 1_455 S
C122 C123 1.363 . S
C122 C127 1.379 . S
C122 N129 1.356 . S
C123 C122 1.363 . S
C123 C126 1.363 1_655 S
N124 C126 1.356 . S
N124 H136 0.984 . S
N124 H137 0.985 . S
N125 C127 1.356 . S
N125 H130 0.984 . S
N125 H131 0.985 . S
C126 C120 1.379 . S
C126 C123 1.363 1_455 S
C126 N124 1.356 . S
C127 C121 1.363 1_655 S
C127 C122 1.379 . S
C127 N125 1.356 . S
N128 C120 1.356 . S
N128 H134 0.984 . S
N128 H135 0.984 . S
N129 C122 1.356 . S
N129 H132 0.984 . S
N129 H133 0.985 . S
H130 N125 0.984 . S
H131 N125 0.985 . S
H132 N129 0.984 . S
H133 N129 0.985 . S
H134 N128 0.984 . S
H135 N128 0.984 . S
H136 N124 0.984 . S
H137 N124 0.985 . S
C138 C139 1.365 . S
C138 C144 1.379 . S
C138 N146 1.356 . S
C139 C138 1.365 . S
C139 C145 1.356 1_565 S
C140 C141 1.366 . S
C140 C145 1.379 . S
C140 N147 1.356 . S
C141 C140 1.366 . S
C141 C144 1.354 1_545 S
N142 C144 1.356 . S
N142 H154 0.984 1_455 S
N142 H155 0.985 . S
N143 C145 1.356 . S
N143 H148 0.984 . S
N143 H149 0.985 . S
C144 C138 1.379 . S
C144 C141 1.354 1_565 S
C144 N142 1.356 . S
C145 C139 1.356 1_545 S
C145 C140 1.379 . S
C145 N143 1.356 . S
N146 C138 1.356 . S
N146 H152 0.984 . S
N146 H153 0.984 . S
N147 C140 1.356 . S
N147 H150 0.984 . S
N147 H151 0.985 . S
H148 N143 0.984 . S
H149 N143 0.985 . S
H150 N147 0.984 . S
H151 N147 0.985 . S
H152 N146 0.984 . S
H153 N146 0.984 . S
H154 N142 0.984 1_655 S
H155 N142 0.985 . S
C156 C157 1.363 . S
C156 C162 1.379 . S
C156 N164 1.356 . S
C157 C156 1.363 . S
C157 C163 1.363 . S
C158 C159 1.363 . S
C158 C163 1.379 . S
C158 N165 1.356 . S
C159 C158 1.363 . S
C159 C162 1.363 . S
N160 C162 1.356 . S
N160 H172 0.984 . S
N160 H173 0.985 . S
N161 C163 1.356 . S
N161 H166 0.984 . S
N161 H167 0.985 . S
C162 C156 1.379 . S
C162 C159 1.363 . S
C162 N160 1.356 . S
C163 C157 1.363 . S
C163 C158 1.379 . S
C163 N161 1.356 . S
N164 C156 1.356 . S
N164 H170 0.984 . S
N164 H171 0.984 . S
N165 C158 1.356 . S
N165 H168 0.984 . S
N165 H169 0.985 . S
H166 N161 0.984 . S
H167 N161 0.985 . S
H168 N165 0.984 . S
H169 N165 0.985 . S
H170 N164 0.984 . S
H171 N164 0.984 . S
H172 N160 0.984 . S
H173 N160 0.985 . S
C174 C175 1.363 . S
C174 C180 1.379 . S
C174 N182 1.356 . S
C175 C174 1.363 . S
C175 C181 1.363 . S
C176 C177 1.363 . S
C176 C181 1.379 . S
C176 N183 1.356 . S
C177 C176 1.363 . S
C177 C180 1.363 . S
N178 C180 1.356 1_554 S
N178 H190 0.984 . S
N178 H191 0.985 . S
N179 C181 1.356 . S
N179 H184 0.984 . S
N179 H185 0.985 1_545 S
C180 C174 1.379 . S
C180 C177 1.363 . S
C180 N178 1.356 1_556 S
C181 C175 1.363 . S
C181 C176 1.379 . S
C181 N179 1.356 . S
N182 C174 1.356 . S
N182 H188 0.984 . S
N182 H189 0.984 . S
N183 C176 1.356 . S
N183 H186 0.984 . S
N183 H187 0.985 1_545 S
H184 N179 0.984 . S
H185 N179 0.985 1_565 S
H186 N183 0.984 . S
H187 N183 0.985 1_565 S
H188 N182 0.984 . S
H189 N182 0.984 . S
H190 N178 0.984 . S
H191 N178 0.985 . S
C192 C193 1.363 . S
C192 C198 1.379 . S
C192 N200 1.356 . S
C193 C192 1.363 . S
C193 C199 1.363 . S
C194 C195 1.363 . S
C194 C199 1.379 . S
C194 N201 1.356 . S
C195 C194 1.363 . S
C195 C198 1.363 . S
N196 C198 1.356 . S
N196 H208 0.984 . S
N196 H209 0.985 . S
N197 C199 1.356 . S
N197 H202 0.984 . S
N197 H203 0.985 . S
C198 C192 1.379 . S
C198 C195 1.363 . S
C198 N196 1.356 . S
C199 C193 1.363 . S
C199 C194 1.379 . S
C199 N197 1.356 . S
N200 C192 1.356 . S
N200 H206 0.984 1_545 S
N200 H207 0.984 . S
N201 C194 1.356 . S
N201 H204 0.984 . S
N201 H205 0.985 . S
H202 N197 0.984 . S
H203 N197 0.985 . S
H204 N201 0.984 . S
H205 N201 0.985 . S
H206 N200 0.984 1_565 S
H207 N200 0.984 . S
H208 N196 0.984 . S
H209 N196 0.985 . S
C210 C211 1.363 1_565 S
C210 C216 1.379 . S
C210 N218 1.356 . S
C211 C210 1.363 1_545 S
C211 C217 1.363 . S
C212 C213 1.363 1_545 S
C212 C217 1.379 . S
C212 N219 1.356 . S
C213 C212 1.363 1_565 S
C213 C216 1.363 . S
N214 C216 1.356 . S
N214 H226 0.984 . S
N214 H227 0.985 . S
N215 C217 1.356 . S
N215 H220 0.984 . S
N215 H221 0.985 . S
C216 C210 1.379 . S
C216 C213 1.363 . S
C216 N214 1.356 . S
C217 C211 1.363 . S
C217 C212 1.379 . S
C217 N215 1.356 . S
N218 C210 1.356 . S
N218 H224 0.984 . S
N218 H225 0.984 . S
N219 C212 1.356 . S
N219 H222 0.984 . S
N219 H223 0.985 . S
H220 N215 0.984 . S
H221 N215 0.985 . S
H222 N219 0.984 . S
H223 N219 0.985 . S
H224 N218 0.984 . S
H225 N218 0.984 . S
H226 N214 0.984 . S
H227 N214 0.985 . S
C228 C229 1.363 1_655 S
C228 C234 1.379 . S
C228 N236 1.356 . S
C229 C228 1.363 1_455 S
C229 C235 1.363 . S
C230 C231 1.363 1_455 S
C230 C235 1.379 1_554 S
C230 N237 1.356 . S
C231 C230 1.363 1_655 S
C231 C234 1.363 1_554 S
N232 C234 1.356 1_554 S
N232 H244 0.984 1_554 S
N232 H245 0.985 . S
N233 C235 1.356 1_545 S
N233 H238 0.984 . S
N233 H239 0.985 . S
C234 C228 1.379 . S
C234 C231 1.363 1_556 S
C234 N232 1.356 1_556 S
C235 C229 1.363 . S
C235 C230 1.379 1_556 S
C235 N233 1.356 1_565 S
N236 C228 1.356 . S
N236 H242 0.984 . S
N236 H243 0.984 . S
N237 C230 1.356 . S
N237 H240 0.984 1_455 S
N237 H241 0.985 1_565 S
H238 N233 0.984 . S
H239 N233 0.985 . S
H240 N237 0.984 1_655 S
H241 N237 0.985 1_545 S
H242 N236 0.984 . S
H243 N236 0.984 . S
H244 N232 0.984 1_556 S
H245 N232 0.985 . S
C246 C247 1.363 . S
C246 C252 1.379 . S
C246 N254 1.356 . S
C247 C246 1.363 . S
C247 C253 1.363 . S
C248 C249 1.363 . S
C248 C253 1.379 . S
C248 N255 1.356 . S
C249 C248 1.363 . S
C249 C252 1.363 . S
N250 C252 1.356 . S
N250 H262 0.984 . S
N250 H263 0.985 . S
N251 C253 1.356 . S
N251 H256 0.984 . S
N251 H257 0.985 . S
C252 C246 1.379 . S
C252 C249 1.363 . S
C252 N250 1.356 . S
C253 C247 1.363 . S
C253 C248 1.379 . S
C253 N251 1.356 . S
N254 C246 1.356 . S
N254 H260 0.984 . S
N254 H261 0.984 . S
N255 C248 1.356 . S
N255 H258 0.984 . S
N255 H259 0.985 . S
H256 N251 0.984 . S
H257 N251 0.985 . S
H258 N255 0.984 . S
H259 N255 0.985 . S
H260 N254 0.984 . S
H261 N254 0.984 . S
H262 N250 0.984 . S
H263 N250 0.985 . S
C264 C265 1.363 . S
C264 C270 1.379 . S
C264 N272 1.356 . S
C265 C264 1.363 . S
C265 C271 1.363 . S
C266 C267 1.363 . S
C266 C271 1.379 . S
C266 N273 1.356 . S
C267 C266 1.363 . S
C267 C270 1.363 . S
N268 C270 1.356 . S
N268 H280 0.984 1_455 S
N268 H281 0.985 . S
N269 C271 1.356 . S
N269 H274 0.984 . S
N269 H275 0.985 . S
C270 C264 1.379 . S
C270 C267 1.363 . S
C270 N268 1.356 . S
C271 C265 1.363 . S
C271 C266 1.379 . S
C271 N269 1.356 . S
N272 C264 1.356 . S
N272 H278 0.984 . S
N272 H279 0.984 . S
N273 C266 1.356 . S
N273 H276 0.984 . S
N273 H277 0.985 . S
H274 N269 0.984 . S
H275 N269 0.985 . S
H276 N273 0.984 . S
H277 N273 0.985 . S
H278 N272 0.984 . S
H279 N272 0.984 . S
H280 N268 0.984 1_655 S
H281 N268 0.985 . S
C121 C10 1.952 1_445 S
C123 C19 1.952 1_655 S
C139 C59 2.015 . S
C141 C50 2.017 . S
C157 C90 1.623 . S
C159 C99 1.623 . S
C175 C87 1.006 . S
C177 C16 1.020 . S
C193 C51 2.266 . S
C195 C7 2.125 . S
C211 C91 2.796 . S
C213 C42 2.778 . S
C229 C82 2.706 . S
C231 C11 2.595 . S
C247 C2 2.104 . S
C249 C56 1.898 . S
C265 C96 1.008 . S
C267 C47 1.036 . S
