# Generated by pormake.
# Topology ukh, (4)-cn, num edge types: 1
# Building blocks:
#     Node 0, Type 0, BuildingBlock: GALJAG_clean_sbu_0, # of connection points: 4
#     Node 1, Type 0, BuildingBlock: GALJAG_clean_sbu_0, # of connection points: 4
#     Node 2, Type 0, BuildingBlock: GALJAG_clean_sbu_0, # of connection points: 4
#     Node 3, Type 0, BuildingBlock: GALJAG_clean_sbu_0, # of connection points: 4
#     Node 4, Type 0, BuildingBlock: GALJAG_clean_sbu_0, # of connection points: 4
#     Node 5, Type 0, BuildingBlock: GALJAG_clean_sbu_0, # of connection points: 4
#     Node 6, Type 0, BuildingBlock: GALJAG_clean_sbu_0, # of connection points: 4
#     Node 7, Type 0, BuildingBlock: GALJAG_clean_sbu_0, # of connection points: 4
#     Node 8, Type 0, BuildingBlock: GALJAG_clean_sbu_0, # of connection points: 4
#     Node 9, Type 0, BuildingBlock: GALJAG_clean_sbu_0, # of connection points: 4
#     Node 10, Type 0, BuildingBlock: GALJAG_clean_sbu_0, # of connection points: 4
#     Node 11, Type 0, BuildingBlock: GALJAG_clean_sbu_0, # of connection points: 4
#     Edge 12, Type (0, 0), BuildingBlock: UVAHIK_clean_linker_0, # of connection points: 2
#     Edge 13, Type (0, 0), BuildingBlock: UVAHIK_clean_linker_0, # of connection points: 2
#     Edge 14, Type (0, 0), BuildingBlock: UVAHIK_clean_linker_0, # of connection points: 2
#     Edge 15, Type (0, 0), BuildingBlock: UVAHIK_clean_linker_0, # of connection points: 2
#     Edge 16, Type (0, 0), BuildingBlock: UVAHIK_clean_linker_0, # of connection points: 2
#     Edge 17, Type (0, 0), BuildingBlock: UVAHIK_clean_linker_0, # of connection points: 2
#     Edge 18, Type (0, 0), BuildingBlock: UVAHIK_clean_linker_0, # of connection points: 2
#     Edge 19, Type (0, 0), BuildingBlock: UVAHIK_clean_linker_0, # of connection points: 2
#     Edge 20, Type (0, 0), BuildingBlock: UVAHIK_clean_linker_0, # of connection points: 2
#     Edge 21, Type (0, 0), BuildingBlock: UVAHIK_clean_linker_0, # of connection points: 2
#     Edge 22, Type (0, 0), BuildingBlock: UVAHIK_clean_linker_0, # of connection points: 2
#     Edge 23, Type (0, 0), BuildingBlock: UVAHIK_clean_linker_0, # of connection points: 2
#     Edge 24, Type (0, 0), BuildingBlock: UVAHIK_clean_linker_0, # of connection points: 2
#     Edge 25, Type (0, 0), BuildingBlock: UVAHIK_clean_linker_0, # of connection points: 2
#     Edge 26, Type (0, 0), BuildingBlock: UVAHIK_clean_linker_0, # of connection points: 2
#     Edge 27, Type (0, 0), BuildingBlock: UVAHIK_clean_linker_0, # of connection points: 2
#     Edge 28, Type (0, 0), BuildingBlock: UVAHIK_clean_linker_0, # of connection points: 2
#     Edge 29, Type (0, 0), BuildingBlock: UVAHIK_clean_linker_0, # of connection points: 2
#     Edge 30, Type (0, 0), BuildingBlock: UVAHIK_clean_linker_0, # of connection points: 2
#     Edge 31, Type (0, 0), BuildingBlock: UVAHIK_clean_linker_0, # of connection points: 2
#     Edge 32, Type (0, 0), BuildingBlock: UVAHIK_clean_linker_0, # of connection points: 2
#     Edge 33, Type (0, 0), BuildingBlock: UVAHIK_clean_linker_0, # of connection points: 2
#     Edge 34, Type (0, 0), BuildingBlock: UVAHIK_clean_linker_0, # of connection points: 2
#     Edge 35, Type (0, 0), BuildingBlock: UVAHIK_clean_linker_0, # of connection points: 2
# Relax obj value: 0.072
# Max RMSD: 0.081
# Mean RMSD: 0.081
data_MOF--net-ukh--node1-GALJAG_clean_sbu_0--edge1-UVAHIK_clean_linker_0
_symmetry_space_group_name_H-M    P1
_symmetry_Int_Tables_number       1
_symmetry_cell_setting            triclinic
loop_
_symmetry_equiv_pos_as_xyz
'x, y, z'
_cell_length_a     40.484526
_cell_length_b     40.464092
_cell_length_c     87.221566
_cell_angle_alpha  89.989521
_cell_angle_beta   90.028096
_cell_angle_gamma 119.98659
loop_
_atom_site_label
_atom_site_type_symbol
_atom_site_fract_x
_atom_site_fract_y
_atom_site_fract_z
_atom_type_partial_charge
In0 In 0.32279 0.22404 0.05717 0.0
O1 O 0.38029 0.27563 0.05061 0.0
O2 O 0.34057 0.28565 0.06268 0.0
C3 C 0.32917 0.16818 0.04299 0.0
C4 C 0.32462 0.2068 0.08689 0.0
C5 C 0.26174 0.21899 0.04235 0.0
O6 O 0.34919 0.20283 0.03923 0.0
O7 O 0.30676 0.16201 0.05403 0.0
O8 O 0.26316 0.2174 0.05676 0.0
O9 O 0.29096 0.22315 0.0355 0.0
C10 C 0.37289 0.29977 0.05644 0.0
O11 O 0.29419 0.19968 0.0801 0.0
O12 O 0.35425 0.22277 0.07867 0.0
In13 In 0.10062 0.32048 0.39088 0.0
O14 O 0.09233 0.29106 0.41395 0.0
O15 O 0.13299 0.35035 0.41266 0.0
C16 C 0.04589 0.26085 0.37498 0.0
C17 C 0.07511 0.37069 0.39058 0.0
C18 C 0.16331 0.32677 0.3771 0.0
O19 O 0.05049 0.25926 0.38921 0.0
O20 O 0.06868 0.29237 0.36886 0.0
O21 O 0.1494 0.34747 0.37342 0.0
O22 O 0.14618 0.30378 0.3879 0.0
C23 C 0.11673 0.32071 0.42088 0.0
O24 O 0.10721 0.37873 0.38517 0.0
O25 O 0.05627 0.33767 0.39621 0.0
In26 In 0.7747 0.09823 0.72384 0.0
O27 O 0.72246 0.10294 0.71712 0.0
O28 O 0.7133 0.05249 0.7284 0.0
C29 C 0.83067 0.16171 0.71036 0.0
C30 C 0.78957 0.11505 0.75384 0.0
C31 C 0.78154 0.04398 0.70844 0.0
O32 O 0.79608 0.14733 0.70655 0.0
O33 O 0.83669 0.14467 0.72115 0.0
O34 O 0.78296 0.0462 0.72288 0.0
O35 O 0.77682 0.06905 0.70188 0.0
C36 C 0.69868 0.07044 0.72231 0.0
O37 O 0.79782 0.09275 0.74689 0.0
O38 O 0.77371 0.12889 0.74564 0.0
In39 In 0.68117 0.78173 0.05752 0.0
O40 O 0.71112 0.80427 0.0804 0.0
O41 O 0.65103 0.78178 0.07954 0.0
C42 C 0.74223 0.78876 0.04203 0.0
C43 C 0.63057 0.7061 0.05641 0.0
C44 C 0.67386 0.83845 0.04464 0.0
O45 O 0.74097 0.78875 0.05649 0.0
O46 O 0.71294 0.78535 0.0355 0.0
O47 O 0.65724 0.80496 0.0393 0.0
O48 O 0.69336 0.84298 0.05653 0.0
C49 C 0.68107 0.79694 0.08756 0.0
O50 O 0.62261 0.73067 0.05151 0.0
O51 O 0.66369 0.71973 0.06183 0.0
In52 In 0.89642 0.67494 0.38891 0.0
O53 O 0.90207 0.70408 0.41184 0.0
O54 O 0.86475 0.64399 0.41063 0.0
C55 C 0.95132 0.73522 0.37338 0.0
C56 C 0.92268 0.62535 0.38849 0.0
C57 C 0.83304 0.6681 0.37562 0.0
O58 O 0.94846 0.73506 0.38778 0.0
O59 O 0.92665 0.7051 0.36688 0.0
O60 O 0.8468 0.64733 0.3718 0.0
O61 O 0.85083 0.69153 0.38621 0.0
C62 C 0.87897 0.6738 0.41877 0.0
O63 O 0.89116 0.61756 0.38252 0.0
O64 O 0.94058 0.65784 0.39463 0.0
In65 In 0.21999 0.89307 0.72087 0.0
O66 O 0.27593 0.92176 0.70749 0.0
O67 O 0.27141 0.88544 0.72584 0.0
C68 C 0.16838 0.83332 0.70404 0.0
C69 C 0.20698 0.88103 0.75129 0.0
C70 C 0.21026 0.95194 0.71236 0.0
O71 O 0.16129 0.84146 0.71711 0.0
O72 O 0.20208 0.85493 0.69944 0.0
O73 O 0.1847 0.91754 0.71074 0.0
O74 O 0.24025 0.95673 0.7188 0.0
C75 C 0.29208 0.90799 0.71547 0.0
O76 O 0.21657 0.91283 0.74515 0.0
O77 O 0.20437 0.85574 0.74214 0.0
In78 In 0.77331 0.67755 0.60802 0.0
O79 O 0.79178 0.70563 0.58463 0.0
O80 O 0.77084 0.64581 0.58608 0.0
C81 C 0.77996 0.73846 0.6235 0.0
C82 C 0.69818 0.6263 0.61046 0.0
C83 C 0.83362 0.67364 0.61906 0.0
O84 O 0.78013 0.73717 0.60905 0.0
O85 O 0.77653 0.70918 0.63007 0.0
O86 O 0.80072 0.6545 0.62482 0.0
O87 O 0.8357 0.69394 0.60775 0.0
C88 C 0.78423 0.67521 0.57771 0.0
O89 O 0.72348 0.61958 0.61554 0.0
O90 O 0.71087 0.65847 0.60422 0.0
In91 In 0.09991 0.7814 0.941 0.0
O92 O 0.10807 0.73079 0.94723 0.0
O93 O 0.05687 0.71933 0.93602 0.0
C94 C 0.16221 0.83962 0.95413 0.0
C95 C 0.11587 0.79587 0.91098 0.0
C96 C 0.04545 0.78777 0.95644 0.0
O97 O 0.14739 0.80583 0.95906 0.0
O98 O 0.146 0.84377 0.94255 0.0
O99 O 0.05023 0.7933 0.94218 0.0
O100 O 0.06801 0.77911 0.96282 0.0
C101 C 0.07625 0.70601 0.94184 0.0
O102 O 0.08773 0.7959 0.91723 0.0
O103 O 0.13581 0.78824 0.91987 0.0
In104 In 0.32052 0.09774 0.27635 0.0
O105 O 0.37974 0.10575 0.28141 0.0
O106 O 0.33509 0.05038 0.27546 0.0
C107 C 0.32821 0.1619 0.28932 0.0
C108 C 0.3226 0.11129 0.24601 0.0
C109 C 0.25718 0.04408 0.2907 0.0
O110 O 0.34282 0.14356 0.2951 0.0
O111 O 0.3107 0.14843 0.2769 0.0
O112 O 0.26031 0.04574 0.27628 0.0
O113 O 0.28575 0.06955 0.29778 0.0
C114 C 0.36959 0.07113 0.27913 0.0
O115 O 0.29183 0.09095 0.25318 0.0
O116 O 0.35235 0.12467 0.25415 0.0
In117 In 0.21722 0.31614 0.61106 0.0
O118 O 0.19437 0.28639 0.58812 0.0
O119 O 0.22047 0.34696 0.58878 0.0
C120 C 0.20914 0.25534 0.62714 0.0
C121 C 0.29289 0.36591 0.61289 0.0
C122 C 0.16034 0.32437 0.62315 0.0
O123 O 0.21056 0.25644 0.61268 0.0
O124 O 0.21164 0.2846 0.63334 0.0
O125 O 0.19377 0.34149 0.62854 0.0
O126 O 0.15598 0.30402 0.61155 0.0
C127 C 0.20406 0.31689 0.58082 0.0
O128 O 0.26835 0.37421 0.6175 0.0
O129 O 0.27921 0.33283 0.60738 0.0
In130 In 0.89996 0.22364 0.94318 0.0
O131 O 0.90538 0.20028 0.92016 0.0
O132 O 0.8682 0.22316 0.9215 0.0
C133 C 0.95493 0.21821 0.95865 0.0
C134 C 0.9264 0.29951 0.9439 0.0
C135 C 0.837 0.16748 0.95683 0.0
O136 O 0.95222 0.21581 0.94423 0.0
O137 O 0.93006 0.2233 0.96516 0.0
O138 O 0.85107 0.2021 0.96054 0.0
O139 O 0.85417 0.1615 0.94608 0.0
C140 C 0.88235 0.20765 0.91329 0.0
O141 O 0.8945 0.27564 0.94954 0.0
O142 O 0.94456 0.28505 0.93788 0.0
In143 In 0.67782 0.89879 0.2775 0.0
O144 O 0.70935 0.90397 0.25517 0.0
O145 O 0.64887 0.87718 0.25433 0.0
C146 C 0.7422 0.95259 0.29126 0.0
C147 C 0.62713 0.9233 0.28094 0.0
C148 C 0.66705 0.83356 0.29061 0.0
O149 O 0.73579 0.95375 0.27716 0.0
O150 O 0.71639 0.92423 0.29831 0.0
O151 O 0.65647 0.85479 0.29692 0.0
O152 O 0.68212 0.84475 0.27761 0.0
C153 C 0.67952 0.88766 0.24709 0.0
O154 O 0.66227 0.94552 0.27891 0.0
O155 O 0.61724 0.88838 0.2813 0.0
C156 C 0.61235 0.63934 0.06342 0.0
C157 C 0.60358 0.6646 0.05584 0.0
C158 C 0.58726 0.60004 0.06287 0.0
C159 C 0.54056 0.5176 0.05326 0.0
H160 H 0.43145 0.47792 0.05476 0.0
C161 C 0.43252 0.35656 0.04677 0.0
C162 C 0.39958 0.34132 0.05589 0.0
C163 C 0.45722 0.39602 0.04607 0.0
C164 C 0.46185 0.48847 0.05447 0.0
H165 H 0.5618 0.66862 0.04164 0.0
H166 H 0.51827 0.59981 0.04032 0.0
H167 H 0.47469 0.54652 0.05525 0.0
H168 H 0.36686 0.35527 0.0716 0.0
H169 H 0.41038 0.42383 0.07078 0.0
H170 H 0.52781 0.45957 0.05315 0.0
C171 C 0.54419 0.61037 0.04698 0.0
C172 C 0.48668 0.5279 0.05452 0.0
C173 C 0.5692 0.6498 0.04766 0.0
C174 C 0.39195 0.36621 0.06439 0.0
C175 C 0.41678 0.40558 0.06382 0.0
C176 C 0.51575 0.47817 0.05334 0.0
C177 C 0.55294 0.58498 0.05458 0.0
C178 C 0.52638 0.543 0.05401 0.0
C179 C 0.44967 0.42105 0.0546 0.0
C180 C 0.47607 0.46307 0.05404 0.0
H181 H 0.63855 0.64994 0.06991 0.0
H182 H 0.59464 0.58151 0.06913 0.0
H183 H 0.57092 0.52814 0.0526 0.0
H184 H 0.43899 0.33804 0.04002 0.0
H185 H 0.48196 0.40689 0.03868 0.0
C186 C 0.02649 0.38855 0.39799 0.0
C187 C 0.06022 0.39739 0.39016 0.0
C188 C 0.01179 0.41326 0.39741 0.0
C189 C 0.97468 0.45869 0.38756 0.0
H190 H 0.04312 0.56811 0.38801 0.0
C191 C 0.92022 0.56531 0.3795 0.0
C192 C 0.9378 0.59884 0.3883 0.0
C193 C 0.93519 0.54075 0.37922 0.0
C194 C 0.02354 0.53762 0.38801 0.0
H195 H 0.10499 0.43891 0.37553 0.0
H196 H 0.07891 0.48173 0.37419 0.0
H197 H 0.06922 0.52553 0.38896 0.0
H198 H 0.98444 0.63272 0.40388 0.0
H199 H 0.00988 0.58952 0.40374 0.0
H200 H 0.92895 0.47078 0.38723 0.0
C201 C 0.06416 0.45608 0.38105 0.0
C202 C 0.03857 0.51316 0.38833 0.0
C203 C 0.07904 0.43148 0.38175 0.0
C204 C 0.9704 0.60719 0.3969 0.0
C205 C 0.98516 0.58252 0.39673 0.0
C206 C 0.95964 0.48315 0.38735 0.0
C207 C 0.03029 0.44725 0.38886 0.0
C208 C 0.01434 0.47336 0.38818 0.0
C209 C 0.96788 0.54906 0.38783 0.0
C210 C 0.98387 0.52295 0.38765 0.0
H211 H 0.01145 0.36256 0.40464 0.0
H212 H 0.9861 0.40584 0.40381 0.0
H213 H 0.95513 0.42822 0.38719 0.0
H214 H 0.89515 0.55826 0.3727 0.0
H215 H 0.92141 0.51552 0.37207 0.0
C216 C 0.34997 0.90457 0.72304 0.0
C217 C 0.33298 0.92042 0.71381 0.0
C218 C 0.38942 0.91933 0.72265 0.0
C219 C 0.47793 0.00814 0.7145 0.0
H220 H 0.52424 0.94432 0.715 0.0
C221 C 0.64147 0.07177 0.71211 0.0
C222 C 0.65697 0.05394 0.72103 0.0
C223 C 0.60194 0.05512 0.71048 0.0
C224 C 0.51178 0.96258 0.71505 0.0
H225 H 0.34375 0.96328 0.69656 0.0
H226 H 0.41263 0.98905 0.69591 0.0
H227 H 0.45507 0.91487 0.71317 0.0
H228 H 0.64334 0.00513 0.73546 0.0
H229 H 0.57456 0.97667 0.73299 0.0
H230 H 0.53436 0.0558 0.71676 0.0
C231 C 0.39548 0.96542 0.70352 0.0
C232 C 0.47215 0.94566 0.71394 0.0
C233 C 0.35603 0.95048 0.70382 0.0
C234 C 0.63222 0.01945 0.72844 0.0
C235 C 0.59276 0.00297 0.72691 0.0
C236 C 0.51753 0.02506 0.71573 0.0
C237 C 0.41267 0.95041 0.71312 0.0
C238 C 0.4548 0.96826 0.7137 0.0
C239 C 0.57707 0.02042 0.71782 0.0
C240 C 0.53497 0.00249 0.7161 0.0
H241 H 0.33292 0.88144 0.73087 0.0
H242 H 0.40189 0.90733 0.73025 0.0
H243 H 0.46533 0.02628 0.71457 0.0
H244 H 0.65989 0.09828 0.7062 0.0
H245 H 0.59091 0.06915 0.70324 0.0
C246 C 0.643 0.56619 0.62084 0.0
C247 C 0.65687 0.59899 0.61168 0.0
C248 C 0.60372 0.54097 0.6221 0.0
C249 C 0.52105 0.48142 0.61589 0.0
H250 H 0.45173 0.52139 0.61492 0.0
C251 C 0.35976 0.38389 0.60624 0.0
C252 C 0.3344 0.39259 0.61376 0.0
C253 C 0.39905 0.40894 0.60693 0.0
C254 C 0.4706 0.50967 0.61542 0.0
H255 H 0.64067 0.63088 0.59646 0.0
H256 H 0.57255 0.58654 0.59823 0.0
H257 H 0.52011 0.56519 0.61498 0.0
H258 H 0.33019 0.43404 0.6281 0.0
H259 H 0.39893 0.47743 0.62969 0.0
H260 H 0.47151 0.42592 0.61682 0.0
C261 C 0.59168 0.58063 0.60483 0.0
C262 C 0.50993 0.53485 0.61521 0.0
C263 C 0.63081 0.60595 0.60371 0.0
C264 C 0.3491 0.42673 0.62211 0.0
C265 C 0.38849 0.45166 0.62294 0.0
C266 C 0.4817 0.45624 0.61625 0.0
C267 C 0.57754 0.5479 0.61411 0.0
C268 C 0.53569 0.52106 0.61522 0.0
C269 C 0.414 0.44313 0.61532 0.0
C270 C 0.45593 0.47001 0.61581 0.0
H271 H 0.66246 0.56023 0.62718 0.0
H272 H 0.59389 0.51633 0.6295 0.0
H273 H 0.53992 0.46968 0.61579 0.0
H274 H 0.34925 0.35786 0.59964 0.0
H275 H 0.41764 0.40171 0.60065 0.0
C276 C 0.92361 0.35678 0.95304 0.0
C277 C 0.94166 0.34115 0.94435 0.0
C278 C 0.93862 0.3963 0.95357 0.0
C279 C 0.96317 0.47837 0.94563 0.0
H280 H 0.07271 0.54621 0.94482 0.0
C281 C 0.0289 0.63917 0.93446 0.0
C282 C 0.06215 0.66459 0.94245 0.0
C283 C 0.01471 0.5999 0.93522 0.0
C284 C 0.04206 0.52774 0.94523 0.0
H285 H 0.9893 0.35448 0.92929 0.0
H286 H 0.01483 0.42314 0.92982 0.0
H287 H 0.04699 0.47755 0.94581 0.0
H288 H 0.10668 0.66892 0.95753 0.0
H289 H 0.08144 0.60012 0.95919 0.0
H290 H 0.95823 0.52853 0.94552 0.0
C291 C 0.98967 0.40515 0.93656 0.0
C292 C 0.02727 0.48827 0.94558 0.0
C293 C 0.97486 0.36572 0.93615 0.0
C294 C 0.08108 0.64997 0.95119 0.0
C295 C 0.06668 0.61056 0.95207 0.0
C296 C 0.97796 0.51782 0.9454 0.0
C297 C 0.97184 0.421 0.94531 0.0
C298 C 0.98762 0.46305 0.94562 0.0
C299 C 0.03321 0.58501 0.94413 0.0
C300 C 0.0176 0.54303 0.94503 0.0
H301 H 0.89809 0.33851 0.95955 0.0
H302 H 0.92441 0.40748 0.9606 0.0
H303 H 0.93251 0.4599 0.9455 0.0
H304 H 0.01381 0.64963 0.92754 0.0
H305 H 0.98938 0.58124 0.92868 0.0
C306 C 0.43489 0.08001 0.28316 0.0
C307 C 0.39577 0.05577 0.28049 0.0
C308 C 0.4595 0.06516 0.28407 0.0
C309 C 0.46625 0.98032 0.27295 0.0
H310 H 0.54988 0.02075 0.30205 0.0
C311 C 0.56039 0.9119 0.28216 0.0
C312 C 0.59989 0.93735 0.28237 0.0
C313 C 0.53484 0.92564 0.28277 0.0
C314 C 0.52675 0.00933 0.29381 0.0
H315 H 0.35158 0.99693 0.27699 0.0
H316 H 0.3942 0.971 0.27887 0.0
H317 H 0.5066 0.04637 0.30148 0.0
H318 H 0.64367 0.99699 0.28374 0.0
H319 H 0.59911 0.02091 0.28489 0.0
H320 H 0.48635 0.9432 0.26534 0.0
C321 C 0.40615 0.00154 0.27994 0.0
C322 C 0.50204 0.02408 0.29344 0.0
C323 C 0.38166 0.01639 0.27896 0.0
C324 C 0.61335 0.97668 0.28353 0.0
C325 C 0.58785 0.99038 0.28429 0.0
C326 C 0.4908 0.96544 0.27339 0.0
C327 C 0.44543 0.02574 0.28239 0.0
C328 C 0.47156 0.00985 0.28297 0.0
C329 C 0.54833 0.96505 0.28376 0.0
C330 C 0.52142 0.97989 0.28377 0.0
H331 H 0.44657 0.1105 0.28436 0.0
H332 H 0.48966 0.08468 0.28579 0.0
H333 H 0.44351 0.96913 0.26455 0.0
H334 H 0.54922 0.88143 0.28127 0.0
H335 H 0.50451 0.90543 0.28249 0.0
C336 C 0.28961 0.10644 0.22117 0.0
C337 C 0.32364 0.1196 0.22947 0.0
C338 C 0.29052 0.11516 0.20562 0.0
C339 C 0.35299 0.18361 0.17614 0.0
H340 H 0.28005 0.1084 0.14795 0.0
C341 C 0.36006 0.20738 0.11051 0.0
C342 C 0.32532 0.19675 0.10312 0.0
C343 C 0.36059 0.19765 0.12586 0.0
C344 C 0.3004 0.1298 0.15571 0.0
H345 H 0.38533 0.15173 0.22798 0.0
H346 H 0.38699 0.16645 0.20076 0.0
H347 H 0.27983 0.09153 0.1748 0.0
H348 H 0.26391 0.16763 0.10596 0.0
H349 H 0.26484 0.15067 0.13274 0.0
H350 H 0.37361 0.2218 0.15698 0.0
C351 C 0.35956 0.14995 0.20631 0.0
C352 C 0.30025 0.12017 0.1711 0.0
C353 C 0.35862 0.14132 0.22188 0.0
C354 C 0.29113 0.17618 0.11135 0.0
C355 C 0.29164 0.16626 0.12665 0.0
C356 C 0.35324 0.19318 0.16072 0.0
C357 C 0.3255 0.13713 0.19801 0.0
C358 C 0.32639 0.14703 0.18153 0.0
C359 C 0.32636 0.17689 0.13408 0.0
C360 C 0.32679 0.16645 0.15036 0.0
H361 H 0.2622 0.08976 0.22673 0.0
H362 H 0.26375 0.10528 0.19964 0.0
H363 H 0.37314 0.20518 0.18389 0.0
H364 H 0.38686 0.22321 0.10444 0.0
H365 H 0.38776 0.20594 0.13123 0.0
C366 C 0.10948 0.28618 0.44555 0.0
C367 C 0.12581 0.32057 0.43728 0.0
C368 C 0.11839 0.28592 0.46101 0.0
C369 C 0.15411 0.34721 0.49516 0.0
H370 H 0.17641 0.27012 0.51003 0.0
C371 C 0.21016 0.35211 0.55645 0.0
C372 C 0.19613 0.31734 0.5643 0.0
C373 C 0.20216 0.35261 0.54089 0.0
C374 C 0.16979 0.29156 0.50612 0.0
H375 H 0.16411 0.38167 0.43872 0.0
H376 H 0.17958 0.38123 0.46578 0.0
H377 H 0.16088 0.2707 0.48305 0.0
H378 H 0.16268 0.25583 0.56206 0.0
H379 H 0.14804 0.25665 0.53499 0.0
H380 H 0.16248 0.36782 0.51822 0.0
C381 C 0.15976 0.3545 0.46031 0.0
C382 C 0.16096 0.29191 0.49065 0.0
C383 C 0.15105 0.35473 0.44481 0.0
C384 C 0.17404 0.28307 0.55628 0.0
C385 C 0.16584 0.28356 0.54074 0.0
C386 C 0.16271 0.34673 0.51065 0.0
C387 C 0.14361 0.32007 0.46857 0.0
C388 C 0.15305 0.31975 0.485 0.0
C389 C 0.17974 0.31835 0.53285 0.0
C390 C 0.17069 0.31891 0.51633 0.0
H391 H 0.08989 0.2594 0.44006 0.0
H392 H 0.10517 0.259 0.46712 0.0
H393 H 0.14763 0.3687 0.49118 0.0
H394 H 0.22743 0.37899 0.56231 0.0
H395 H 0.21387 0.3799 0.53513 0.0
C396 C 0.7861 0.14714 0.77784 0.0
C397 C 0.79818 0.12442 0.77026 0.0
C398 C 0.79441 0.15602 0.79337 0.0
C399 C 0.82295 0.12474 0.82846 0.0
H400 H 0.85223 0.22632 0.84299 0.0
C401 C 0.88634 0.17817 0.88867 0.0
C402 C 0.87245 0.19847 0.89694 0.0
C403 C 0.87666 0.16906 0.87326 0.0
C404 C 0.84373 0.19773 0.83913 0.0
H405 H 0.82865 0.09338 0.77292 0.0
H406 H 0.84379 0.10943 0.79989 0.0
H407 H 0.83651 0.21056 0.81599 0.0
H408 H 0.83775 0.22537 0.89556 0.0
H409 H 0.82092 0.20954 0.86858 0.0
H410 H 0.83069 0.11212 0.85157 0.0
C411 C 0.82725 0.11982 0.79397 0.0
C412 C 0.83465 0.18865 0.82366 0.0
C413 C 0.81878 0.1108 0.77848 0.0
C414 C 0.8489 0.20971 0.88947 0.0
C415 C 0.83942 0.20082 0.87401 0.0
C416 C 0.83224 0.13389 0.84389 0.0
C417 C 0.81513 0.14249 0.80162 0.0
C418 C 0.82424 0.15206 0.81813 0.0
C419 C 0.8531 0.18028 0.86576 0.0
C420 C 0.84281 0.1705 0.84939 0.0
H421 H 0.77004 0.15792 0.7718 0.0
H422 H 0.78419 0.17311 0.79894 0.0
H423 H 0.81438 0.09608 0.82466 0.0
H424 H 0.90459 0.16917 0.89412 0.0
H425 H 0.888 0.1536 0.86715 0.0
C426 C 0.7155 0.82422 0.11225 0.0
C427 C 0.68118 0.8062 0.10394 0.0
C428 C 0.7157 0.83363 0.12768 0.0
C429 C 0.65889 0.85037 0.15657 0.0
H430 H 0.72245 0.83492 0.18564 0.0
C431 C 0.64627 0.86221 0.22205 0.0
C432 C 0.68028 0.88029 0.23054 0.0
C433 C 0.64682 0.85418 0.2065 0.0
C434 C 0.70489 0.83983 0.17763 0.0
H435 H 0.62013 0.7836 0.10529 0.0
H436 H 0.62038 0.7996 0.13227 0.0
H437 H 0.7224 0.81844 0.15875 0.0
H438 H 0.7416 0.90451 0.22941 0.0
H439 H 0.74262 0.8907 0.20222 0.0
H440 H 0.64125 0.87158 0.17548 0.0
C441 C 0.64723 0.80698 0.12681 0.0
C442 C 0.70485 0.83038 0.16222 0.0
C443 C 0.64704 0.79758 0.11139 0.0
C444 C 0.71491 0.89048 0.22316 0.0
C445 C 0.71547 0.88236 0.20762 0.0
C446 C 0.6589 0.85977 0.17198 0.0
C447 C 0.68157 0.82521 0.13513 0.0
C448 C 0.6818 0.83547 0.15151 0.0
C449 C 0.6814 0.86397 0.19913 0.0
C450 C 0.68184 0.85455 0.1827 0.0
H451 H 0.74229 0.83133 0.1068 0.0
H452 H 0.7427 0.84807 0.1337 0.0
H453 H 0.64129 0.85524 0.14858 0.0
H454 H 0.61912 0.85394 0.22744 0.0
H455 H 0.62005 0.83961 0.20033 0.0
C456 C 0.81107 0.70859 0.55284 0.0
C457 C 0.79186 0.67442 0.5612 0.0
C458 C 0.81977 0.7081 0.53738 0.0
C459 C 0.79262 0.64661 0.50329 0.0
H460 H 0.89458 0.71922 0.48931 0.0
C461 C 0.84583 0.63879 0.44268 0.0
C462 C 0.86896 0.67344 0.43506 0.0
C463 C 0.8362 0.63854 0.45809 0.0
C464 C 0.86583 0.69907 0.49296 0.0
H465 H 0.76613 0.61291 0.5599 0.0
H466 H 0.78118 0.61206 0.53282 0.0
H467 H 0.8775 0.71964 0.51606 0.0
H468 H 0.8999 0.73499 0.43751 0.0
H469 H 0.8825 0.73465 0.46427 0.0
H470 H 0.78073 0.62631 0.48017 0.0
C471 C 0.78941 0.63918 0.53823 0.0
C472 C 0.85608 0.69929 0.5083 0.0
C473 C 0.78095 0.63969 0.55374 0.0
C474 C 0.88221 0.70782 0.44312 0.0
C475 C 0.8724 0.7076 0.45848 0.0
C476 C 0.80228 0.64654 0.48791 0.0
C477 C 0.80921 0.67342 0.52993 0.0
C478 C 0.81939 0.67309 0.51363 0.0
C479 C 0.84932 0.67296 0.46617 0.0
C480 C 0.83901 0.6728 0.48255 0.0
H481 H 0.81979 0.73579 0.55829 0.0
H482 H 0.83465 0.73489 0.53123 0.0
H483 H 0.76399 0.62635 0.50705 0.0
H484 H 0.83532 0.61183 0.43677 0.0
H485 H 0.81885 0.61133 0.4637 0.0
C486 C 0.09944 0.80792 0.8847 0.0
C487 C 0.1252 0.80489 0.89459 0.0
C488 C 0.1084 0.81679 0.86923 0.0
C489 C 0.18891 0.86277 0.84258 0.0
H490 H 0.11412 0.80284 0.81152 0.0
C491 C 0.2066 0.90334 0.77807 0.0
C492 C 0.19858 0.87348 0.76781 0.0
C493 C 0.1981 0.89577 0.79367 0.0
C494 C 0.13529 0.81976 0.82007 0.0
H495 H 0.18059 0.80899 0.8961 0.0
H496 H 0.19639 0.82487 0.86906 0.0
H497 H 0.09836 0.78788 0.83861 0.0
H498 H 0.1754 0.81239 0.76578 0.0
H499 H 0.16021 0.7992 0.79295 0.0
H500 H 0.22584 0.89463 0.82401 0.0
C501 C 0.16931 0.82039 0.87329 0.0
C502 C 0.12618 0.8114 0.83556 0.0
C503 C 0.16016 0.81107 0.88874 0.0
C504 C 0.18192 0.83599 0.77342 0.0
C505 C 0.17302 0.82839 0.78895 0.0
C506 C 0.19786 0.87144 0.82709 0.0
C507 C 0.14348 0.82325 0.86338 0.0
C508 C 0.15297 0.83266 0.84697 0.0
C509 C 0.18098 0.85818 0.79923 0.0
C510 C 0.17122 0.84984 0.81568 0.0
H511 H 0.07229 0.80334 0.88891 0.0
H512 H 0.08809 0.81909 0.86186 0.0
H513 H 0.20998 0.87981 0.85115 0.0
H514 H 0.21946 0.93251 0.77405 0.0
H515 H 0.20433 0.91923 0.80134 0.0
C516 C 0.19988 0.87094 0.97774 0.0
C517 C 0.19374 0.87251 0.96199 0.0
C518 C 0.22558 0.90398 0.98566 0.0
C519 C 0.26911 0.00874 0.98199 0.0
H520 H 0.31811 0.00862 0.02018 0.0
C521 C 0.34381 0.14313 0.01928 0.0
C522 C 0.3286 0.13678 0.03417 0.0
C523 C 0.33749 0.11233 0.01 0.0
C524 C 0.3048 0.00908 0.00946 0.0
H525 H 0.21172 0.90875 0.94189 0.0
H526 H 0.25796 0.96592 0.95548 0.0
H527 H 0.28901 0.95138 0.00416 0.0
H528 H 0.29739 0.0937 0.05142 0.0
H529 H 0.28677 0.04002 0.03528 0.0
H530 H 0.28455 0.06622 0.98739 0.0
C531 C 0.24187 0.93976 0.96193 0.0
C532 C 0.28789 0.97625 0.00033 0.0
C533 C 0.2156 0.90694 0.95409 0.0
C534 C 0.30929 0.09939 0.03996 0.0
C535 C 0.30342 0.06868 0.03076 0.0
C536 C 0.28647 0.04161 0.99099 0.0
C537 C 0.24616 0.9391 0.97793 0.0
C538 C 0.2689 0.97531 0.98666 0.0
C539 C 0.31634 0.07475 0.01552 0.0
C540 C 0.30363 0.04183 0.005 0.0
H541 H 0.18323 0.84472 0.9841 0.0
H542 H 0.22766 0.90224 0.99798 0.0
H543 H 0.25418 0.00913 0.97176 0.0
H544 H 0.35884 0.17166 0.01453 0.0
H545 H 0.34795 0.11777 0.99831 0.0
C546 C 0.21168 0.30616 0.37431 0.0
C547 C 0.19442 0.32624 0.36849 0.0
C548 C 0.23698 0.30058 0.36529 0.0
C549 C 0.25094 0.28698 0.32545 0.0
H550 H 0.34124 0.28662 0.34004 0.0
C551 C 0.31718 0.21729 0.28921 0.0
C552 C 0.32746 0.19373 0.29724 0.0
C553 C 0.31051 0.2435 0.29705 0.0
C554 C 0.31598 0.28637 0.3358 0.0
H555 H 0.19158 0.358 0.34902 0.0
H556 H 0.23545 0.34768 0.33312 0.0
H557 H 0.31202 0.31501 0.35582 0.0
H558 H 0.34076 0.18033 0.31964 0.0
H559 H 0.3277 0.22483 0.33343 0.0
H560 H 0.25298 0.25631 0.30597 0.0
C561 C 0.22942 0.33637 0.34467 0.0
C562 C 0.29942 0.30284 0.34481 0.0
C563 C 0.20447 0.34238 0.35378 0.0
C564 C 0.33298 0.19826 0.31316 0.0
C565 C 0.32566 0.224 0.32105 0.0
C566 C 0.26713 0.27011 0.31655 0.0
C567 C 0.24516 0.31459 0.35021 0.0
C568 C 0.26628 0.30259 0.33985 0.0
C569 C 0.31321 0.24617 0.31314 0.0
C570 C 0.2994 0.2688 0.32174 0.0
H571 H 0.20455 0.2935 0.38563 0.0
H572 H 0.24839 0.2834 0.36982 0.0
H573 H 0.22505 0.28583 0.32143 0.0
H574 H 0.31313 0.21466 0.2769 0.0
H575 H 0.30202 0.26078 0.29051 0.0
C576 C 0.85609 0.20275 0.68701 0.0
C577 C 0.86219 0.19308 0.70179 0.0
C578 C 0.88704 0.22765 0.67788 0.0
C579 C 0.99032 0.29805 0.67781 0.0
H580 H 0.99084 0.24932 0.63965 0.0
C581 C 0.12885 0.33136 0.64656 0.0
C582 C 0.12773 0.32414 0.63078 0.0
C583 C 0.09573 0.32431 0.65432 0.0
C584 C 0.99109 0.26413 0.65002 0.0
H585 H 0.90497 0.20393 0.71906 0.0
H586 H 0.9589 0.24776 0.70321 0.0
H587 H 0.93345 0.22201 0.65508 0.0
H588 H 0.09223 0.30721 0.61046 0.0
H589 H 0.03494 0.29683 0.62379 0.0
H590 H 0.04817 0.34002 0.67285 0.0
C591 C 0.93032 0.23605 0.69864 0.0
C592 C 0.95804 0.24827 0.65891 0.0
C593 C 0.89947 0.21078 0.70768 0.0
C594 C 0.09371 0.31255 0.62269 0.0
C595 C 0.06081 0.30628 0.63037 0.0
C596 C 0.02333 0.31433 0.66879 0.0
C597 C 0.92452 0.24373 0.68348 0.0
C598 C 0.95761 0.26445 0.67308 0.0
C599 C 0.06094 0.31054 0.6464 0.0
C600 C 0.0245 0.29695 0.65496 0.0
H601 H 0.82765 0.18952 0.68218 0.0
H602 H 0.88179 0.23329 0.66626 0.0
H603 H 0.99063 0.31126 0.68866 0.0
H604 H 0.15471 0.34015 0.65308 0.0
H605 H 0.09708 0.3276 0.66666 0.0
C606 C 0.68503 0.90487 0.04477 0.0
C607 C 0.67426 0.8709 0.03677 0.0
C608 C 0.69126 0.93761 0.03694 0.0
C609 C 0.68436 0.97459 0.99826 0.0
H610 H 0.77557 0.06514 0.01231 0.0
C611 C 0.78833 0.09856 0.95957 0.0
C612 C 0.80567 0.1359 0.96539 0.0
C613 C 0.76295 0.06771 0.96858 0.0
C614 C 0.74961 0.04037 0.00838 0.0
H615 H 0.65969 0.84379 0.01447 0.0
H616 H 0.67219 0.90119 0.00066 0.0
H617 H 0.74817 0.00782 0.02782 0.0
H618 H 0.80849 0.17055 0.98484 0.0
H619 H 0.7645 0.11642 0.00073 0.0
H620 H 0.68782 0.00706 0.97824 0.0
C621 C 0.67485 0.9026 0.01302 0.0
C622 C 0.7337 0.00736 0.01731 0.0
C623 C 0.66786 0.86963 0.02092 0.0
C624 C 0.79556 0.14205 0.98007 0.0
C625 C 0.77053 0.11111 0.98917 0.0
C626 C 0.70067 0.00757 0.9892 0.0
C627 C 0.68778 0.93736 0.02088 0.0
C628 C 0.70132 0.97372 0.01224 0.0
C629 C 0.75478 0.07359 0.98365 0.0
C630 C 0.7339 0.04053 0.99406 0.0
H631 H 0.68972 0.90645 0.05704 0.0
H632 H 0.70007 0.96347 0.04347 0.0
H633 H 0.65901 0.94955 0.9941 0.0
H634 H 0.79551 0.09301 0.94826 0.0
H635 H 0.75152 0.03911 0.96407 0.0
C636 C 0.67321 0.77519 0.29024 0.0
C637 C 0.66644 0.80099 0.2985 0.0
C638 C 0.67894 0.74817 0.29793 0.0
C639 C 0.67721 0.7074 0.33677 0.0
H640 H 0.76418 0.70318 0.32054 0.0
C641 C 0.78445 0.68853 0.37344 0.0
C642 C 0.80102 0.66798 0.36746 0.0
C643 C 0.75814 0.69339 0.36482 0.0
C644 C 0.73933 0.70327 0.32509 0.0
H645 H 0.65814 0.81744 0.32117 0.0
H646 H 0.66951 0.7714 0.33464 0.0
H647 H 0.73557 0.73274 0.30552 0.0
H648 H 0.80149 0.6345 0.34815 0.0
H649 H 0.75569 0.64344 0.33294 0.0
H650 H 0.68293 0.67996 0.35682 0.0
C651 C 0.66957 0.7712 0.32223 0.0
C652 C 0.72277 0.72021 0.31645 0.0
C653 C 0.66324 0.79783 0.31452 0.0
C654 C 0.78921 0.65056 0.35303 0.0
C655 C 0.76314 0.65578 0.34431 0.0
C656 C 0.69409 0.69079 0.3455 0.0
C657 C 0.67872 0.74683 0.31405 0.0
C658 C 0.69212 0.72344 0.32232 0.0
C659 C 0.74812 0.67809 0.34997 0.0
C660 C 0.72594 0.68944 0.33989 0.0
H661 H 0.67538 0.77673 0.27786 0.0
H662 H 0.6849 0.72923 0.29122 0.0
H663 H 0.65317 0.70866 0.34154 0.0
H664 H 0.79291 0.70214 0.38457 0.0
H665 H 0.74736 0.71104 0.36944 0.0
C666 C 0.10179 0.77975 0.70051 0.0
C667 C 0.13815 0.8038 0.69432 0.0
C668 C 0.0713 0.75606 0.69099 0.0
C669 C 0.03954 0.75593 0.65209 0.0
H670 H 0.95501 0.65668 0.66319 0.0
C671 C 0.90176 0.6908 0.61717 0.0
C672 C 0.86795 0.67542 0.62575 0.0
C673 C 0.93588 0.69804 0.62404 0.0
C674 C 0.97832 0.68443 0.65995 0.0
H675 H 0.17174 0.82014 0.67347 0.0
H676 H 0.11828 0.77872 0.65677 0.0
H677 H 0.01397 0.68443 0.67815 0.0
H678 H 0.84275 0.65362 0.648 0.0
H679 H 0.90256 0.66744 0.66021 0.0
H680 H 0.00371 0.75723 0.63447 0.0
C681 C 0.11337 0.77844 0.66899 0.0
C682 C 0.01212 0.70023 0.66848 0.0
C683 C 0.14398 0.80199 0.67855 0.0
C684 C 0.86843 0.66543 0.64112 0.0
C685 C 0.90274 0.67322 0.64808 0.0
C686 C 0.00576 0.74033 0.64365 0.0
C687 C 0.07648 0.75609 0.67506 0.0
C688 C 0.04281 0.7365 0.66481 0.0
C689 C 0.93712 0.6907 0.63973 0.0
C690 C 0.97441 0.70472 0.64764 0.0
H691 H 0.09648 0.78043 0.71265 0.0
H692 H 0.04321 0.73946 0.69602 0.0
H693 H 0.06235 0.78422 0.64913 0.0
H694 H 0.90209 0.69833 0.60522 0.0
H695 H 0.96156 0.71057 0.61714 0.0
C696 C 0.01417 0.21328 0.95963 0.0
C697 C 0.98502 0.2158 0.96731 0.0
C698 C 0.04306 0.21194 0.96792 0.0
C699 C 0.08985 0.23555 0.00596 0.0
H700 H 0.12954 0.17062 0.99275 0.0
C701 C 0.19792 0.21489 0.04209 0.0
C702 C 0.22877 0.21654 0.03406 0.0
C703 C 0.16715 0.21333 0.03414 0.0
C704 C 0.11893 0.18911 0.99651 0.0
H705 H 0.96281 0.21818 0.98964 0.0
H706 H 0.01276 0.2152 0.00409 0.0
H707 H 0.07767 0.17049 0.97845 0.0
H708 H 0.2515 0.21746 0.01145 0.0
H709 H 0.1979 0.21481 0.9976 0.0
H710 H 0.13108 0.2541 0.02404 0.0
C711 C 0.01381 0.215 0.99168 0.0
C712 C 0.08927 0.1891 0.9883 0.0
C713 C 0.98505 0.21648 0.98341 0.0
C714 C 0.2281 0.2162 0.01795 0.0
C715 C 0.1973 0.21444 0.01002 0.0
C716 C 0.11939 0.23544 0.0142 0.0
C717 C 0.04331 0.21296 0.98405 0.0
C718 C 0.07447 0.21244 0.99289 0.0
C719 C 0.16656 0.21316 0.01802 0.0
C720 C 0.13437 0.21235 0.00953 0.0
H721 H 0.01492 0.2128 0.94722 0.0
H722 H 0.0656 0.21084 0.96167 0.0
H723 H 0.07958 0.25435 0.00967 0.0
H724 H 0.19763 0.21503 0.0545 0.0
H725 H 0.14369 0.21198 0.04062 0.0
C726 C 0.80243 0.01595 0.29123 0.0
C727 C 0.77627 0.98282 0.29911 0.0
C728 C 0.83343 0.04545 0.29895 0.0
C729 C 0.89179 0.06735 0.33415 0.0
H730 H 0.91372 0.17087 0.32672 0.0
C731 C 0.99145 0.19371 0.37326 0.0
C732 C 0.01626 0.22854 0.36608 0.0
C733 C 0.96334 0.16332 0.36477 0.0
C734 C 0.90831 0.14219 0.32879 0.0
H735 H 0.76245 0.95417 0.32114 0.0
H736 H 0.81641 0.00564 0.33462 0.0
H737 H 0.86331 0.11841 0.31223 0.0
H738 H 0.03139 0.25882 0.3444 0.0
H739 H 0.98262 0.20578 0.32958 0.0
H740 H 0.93667 0.09116 0.3508 0.0
C741 C 0.8132 0.00877 0.32246 0.0
C742 C 0.87944 0.11213 0.32047 0.0
C743 C 0.78216 0.97938 0.31476 0.0
C744 C 0.01257 0.23235 0.35026 0.0
C745 C 0.98449 0.20203 0.34178 0.0
C746 C 0.92071 0.09744 0.34247 0.0
C747 C 0.83896 0.04232 0.31469 0.0
C748 C 0.87072 0.07435 0.32311 0.0
C749 C 0.95947 0.16718 0.34894 0.0
C750 C 0.92919 0.1352 0.33993 0.0
H751 H 0.79864 0.01935 0.27915 0.0
H752 H 0.85306 0.07074 0.2926 0.0
H753 H 0.88609 0.03861 0.3363 0.0
H754 H 0.99361 0.18997 0.38544 0.0
H755 H 0.94423 0.137 0.37065 0.0
C756 C 0.78357 0.77141 0.64819 0.0
C757 C 0.78285 0.77125 0.63209 0.0
C758 C 0.78539 0.80194 0.65638 0.0
C759 C 0.76406 0.87988 0.65282 0.0
H760 H 0.82892 0.92071 0.68864 0.0
C761 C 0.78413 0.01434 0.68371 0.0
C762 C 0.7843 0.01406 0.69981 0.0
C763 C 0.78555 0.98555 0.67544 0.0
C764 C 0.81036 0.90936 0.67876 0.0
H765 H 0.78393 0.80305 0.61191 0.0
H766 H 0.78723 0.85651 0.62622 0.0
H767 H 0.82866 0.86901 0.67411 0.0
H768 H 0.78648 0.9837 0.71991 0.0
H769 H 0.78843 0.93298 0.70546 0.0
H770 H 0.74541 0.91982 0.6575 0.0
C771 C 0.78602 0.83285 0.63252 0.0
C772 C 0.81025 0.87979 0.67043 0.0
C773 C 0.78433 0.80236 0.62432 0.0
C774 C 0.78638 0.98466 0.7075 0.0
C775 C 0.78771 0.95575 0.69922 0.0
C776 C 0.76408 0.90934 0.66116 0.0
C777 C 0.7864 0.83289 0.64864 0.0
C778 C 0.78708 0.86472 0.65737 0.0
C779 C 0.78704 0.95573 0.68308 0.0
C780 C 0.78724 0.92445 0.67422 0.0
H781 H 0.78242 0.74778 0.65449 0.0
H782 H 0.78521 0.80092 0.66879 0.0
H783 H 0.74541 0.86845 0.64296 0.0
H784 H 0.78276 0.03677 0.67747 0.0
H785 H 0.78565 0.98677 0.66304 0.0
C786 C 0.77566 0.79462 0.01728 0.0
C787 C 0.77489 0.79172 0.03333 0.0
C788 C 0.80585 0.79632 0.00891 0.0
C789 C 0.90523 0.81576 0.01264 0.0
H790 H 0.882 0.75896 0.97455 0.0
C791 C 0.01372 0.78699 0.9811 0.0
C792 C 0.01562 0.7907 0.96506 0.0
C793 C 0.98518 0.789 0.98931 0.0
C794 C 0.889 0.77534 0.98507 0.0
H795 H 0.80522 0.78859 0.05326 0.0
H796 H 0.85772 0.79082 0.03862 0.0
H797 H 0.83069 0.75867 0.98923 0.0
H798 H 0.98936 0.7997 0.94503 0.0
H799 H 0.9393 0.80311 0.95941 0.0
H800 H 0.96353 0.83185 0.00854 0.0
C801 C 0.83529 0.79243 0.0325 0.0
C802 C 0.85961 0.77522 0.99349 0.0
C803 C 0.80513 0.79094 0.04089 0.0
C804 C 0.98854 0.79668 0.95739 0.0
C805 C 0.95981 0.79845 0.96561 0.0
C806 C 0.9346 0.81571 0.00425 0.0
C807 C 0.83589 0.79492 0.01639 0.0
C808 C 0.86734 0.79541 0.00739 0.0
C809 C 0.95778 0.79453 0.98165 0.0
C810 C 0.92679 0.79544 0.99038 0.0
H811 H 0.75285 0.79554 0.01114 0.0
H812 H 0.80571 0.79892 0.99655 0.0
H813 H 0.91229 0.8321 0.02317 0.0
H814 H 0.0342 0.78234 0.98732 0.0
H815 H 0.98411 0.78545 0.00164 0.0
C816 C 0.98175 0.76695 0.34864 0.0
C817 C 0.98123 0.76788 0.36473 0.0
C818 C 0.01019 0.79753 0.3404 0.0
C819 C 0.08282 0.89986 0.34371 0.0
H820 H 0.12796 0.87839 0.30864 0.0
C821 C 0.22151 0.01425 0.31485 0.0
C822 C 0.22347 0.01397 0.29877 0.0
C823 C 0.19051 0.98499 0.32261 0.0
C824 C 0.1153 0.88488 0.31828 0.0
H825 H 0.00995 0.80155 0.38483 0.0
H826 H 0.06003 0.8548 0.37045 0.0
H827 H 0.07696 0.82581 0.32285 0.0
H828 H 0.19428 0.98322 0.27818 0.0
H829 H 0.13994 0.93206 0.29176 0.0
H830 H 0.12159 0.95897 0.33922 0.0
C831 C 0.03813 0.83067 0.36418 0.0
C832 C 0.08607 0.85474 0.32643 0.0
C833 C 0.00959 0.80009 0.37243 0.0
C834 C 0.19356 0.98413 0.29058 0.0
C835 C 0.16258 0.95475 0.29836 0.0
C836 C 0.11214 0.93 0.33557 0.0
C837 C 0.03883 0.8297 0.34806 0.0
C838 C 0.06955 0.86185 0.33927 0.0
C839 C 0.16085 0.95474 0.31446 0.0
C840 C 0.1288 0.92284 0.3228 0.0
H841 H 0.96013 0.74257 0.34239 0.0
H842 H 0.00953 0.79608 0.32799 0.0
H843 H 0.07031 0.90636 0.35339 0.0
H844 H 0.24418 0.03685 0.32147 0.0
H845 H 0.19025 0.98559 0.33502 0.0
C846 C 0.17267 0.97679 0.6988 0.0
C847 C 0.20674 0.98377 0.70587 0.0
C848 C 0.17057 0.00611 0.69121 0.0
C849 C 0.21998 0.11147 0.68664 0.0
H850 H 0.16723 0.08643 0.64755 0.0
C851 C 0.20106 0.22241 0.65221 0.0
C852 C 0.20573 0.22299 0.63624 0.0
C853 C 0.19911 0.19266 0.66101 0.0
C854 C 0.18231 0.09397 0.65839 0.0
H855 H 0.26501 0.02709 0.71093 0.0
H856 H 0.26161 0.07813 0.69751 0.0
H857 H 0.1681 0.03632 0.6627 0.0
H858 H 0.21171 0.19276 0.61691 0.0
H859 H 0.20904 0.14104 0.63231 0.0
H860 H 0.23541 0.16933 0.68207 0.0
C861 C 0.23628 0.05019 0.69799 0.0
C862 C 0.18235 0.06513 0.66719 0.0
C863 C 0.2383 0.0209 0.70564 0.0
C864 C 0.20798 0.19298 0.6292 0.0
C865 C 0.20624 0.16326 0.63802 0.0
C866 C 0.22007 0.14032 0.67781 0.0
C867 C 0.20257 0.04302 0.69047 0.0
C868 C 0.20131 0.07353 0.6814 0.0
C869 C 0.20202 0.16288 0.65406 0.0
C870 C 0.20134 0.13197 0.66354 0.0
H871 H 0.14782 0.94846 0.69884 0.0
H872 H 0.14395 -0.00025 0.6858 0.0
H873 H 0.23454 0.11892 0.69759 0.0
H874 H 0.19899 0.24504 0.65796 0.0
H875 H 0.19515 0.19295 0.67328 0.0
loop_
_geom_bond_atom_site_label_1
_geom_bond_atom_site_label_2
_geom_bond_distance
_geom_bond_site_symmetry_2
_ccdc_geom_bond_type
In0 O1 2.294 . S
In0 O2 2.326 . S
In0 O6 2.266 . S
In0 O7 2.326 . S
In0 O8 2.266 . S
In0 O9 2.326 . S
In0 O11 2.294 . S
In0 O12 2.326 . S
O1 In0 2.294 . S
O1 C10 1.240 . S
O2 In0 2.326 . S
O2 C10 1.252 . S
C3 O6 1.252 . S
C3 O7 1.260 . S
C4 O11 1.240 . S
C4 O12 1.252 . S
C5 O8 1.252 . S
C5 O9 1.260 . S
O6 In0 2.266 . S
O6 C3 1.252 . S
O7 In0 2.326 . S
O7 C3 1.260 . S
O8 In0 2.266 . S
O8 C5 1.252 . S
O9 In0 2.326 . S
O9 C5 1.260 . S
C10 O1 1.240 . S
C10 O2 1.252 . S
O11 In0 2.294 . S
O11 C4 1.240 . S
O12 In0 2.326 . S
O12 C4 1.252 . S
In13 O14 2.294 . S
In13 O15 2.326 . S
In13 O19 2.266 . S
In13 O20 2.326 . S
In13 O21 2.266 . S
In13 O22 2.326 . S
In13 O24 2.294 . S
In13 O25 2.326 . S
O14 In13 2.294 . S
O14 C23 1.240 . S
O15 In13 2.326 . S
O15 C23 1.252 . S
C16 O19 1.252 . S
C16 O20 1.260 . S
C17 O24 1.240 . S
C17 O25 1.252 . S
C18 O21 1.252 . S
C18 O22 1.260 . S
O19 In13 2.266 . S
O19 C16 1.252 . S
O20 In13 2.326 . S
O20 C16 1.260 . S
O21 In13 2.266 . S
O21 C18 1.252 . S
O22 In13 2.326 . S
O22 C18 1.260 . S
C23 O14 1.240 . S
C23 O15 1.252 . S
O24 In13 2.294 . S
O24 C17 1.240 . S
O25 In13 2.326 . S
O25 C17 1.252 . S
In26 O27 2.294 . S
In26 O28 2.326 . S
In26 O32 2.266 . S
In26 O33 2.326 . S
In26 O34 2.266 . S
In26 O35 2.326 . S
In26 O37 2.294 . S
In26 O38 2.326 . S
O27 In26 2.294 . S
O27 C36 1.240 . S
O28 In26 2.326 . S
O28 C36 1.252 . S
C29 O32 1.252 . S
C29 O33 1.260 . S
C30 O37 1.240 . S
C30 O38 1.252 . S
C31 O34 1.252 . S
C31 O35 1.260 . S
O32 In26 2.266 . S
O32 C29 1.252 . S
O33 In26 2.326 . S
O33 C29 1.260 . S
O34 In26 2.266 . S
O34 C31 1.252 . S
O35 In26 2.326 . S
O35 C31 1.260 . S
C36 O27 1.240 . S
C36 O28 1.252 . S
O37 In26 2.294 . S
O37 C30 1.240 . S
O38 In26 2.326 . S
O38 C30 1.252 . S
In39 O40 2.294 . S
In39 O41 2.326 . S
In39 O45 2.266 . S
In39 O46 2.326 . S
In39 O47 2.266 . S
In39 O48 2.326 . S
In39 O50 2.294 . S
In39 O51 2.326 . S
O40 In39 2.294 . S
O40 C49 1.240 . S
O41 In39 2.326 . S
O41 C49 1.252 . S
C42 O45 1.252 . S
C42 O46 1.260 . S
C43 O50 1.240 . S
C43 O51 1.252 . S
C44 O47 1.252 . S
C44 O48 1.260 . S
O45 In39 2.266 . S
O45 C42 1.252 . S
O46 In39 2.326 . S
O46 C42 1.260 . S
O47 In39 2.266 . S
O47 C44 1.252 . S
O48 In39 2.326 . S
O48 C44 1.260 . S
C49 O40 1.240 . S
C49 O41 1.252 . S
O50 In39 2.294 . S
O50 C43 1.240 . S
O51 In39 2.326 . S
O51 C43 1.252 . S
In52 O53 2.294 . S
In52 O54 2.326 . S
In52 O58 2.266 . S
In52 O59 2.326 . S
In52 O60 2.266 . S
In52 O61 2.326 . S
In52 O63 2.294 . S
In52 O64 2.326 . S
O53 In52 2.294 . S
O53 C62 1.240 . S
O54 In52 2.326 . S
O54 C62 1.252 . S
C55 O58 1.252 . S
C55 O59 1.260 . S
C56 O63 1.240 . S
C56 O64 1.252 . S
C57 O60 1.252 . S
C57 O61 1.260 . S
O58 In52 2.266 . S
O58 C55 1.252 . S
O59 In52 2.326 . S
O59 C55 1.260 . S
O60 In52 2.266 . S
O60 C57 1.252 . S
O61 In52 2.326 . S
O61 C57 1.260 . S
C62 O53 1.240 . S
C62 O54 1.252 . S
O63 In52 2.294 . S
O63 C56 1.240 . S
O64 In52 2.326 . S
O64 C56 1.252 . S
In65 O66 2.294 . S
In65 O67 2.326 . S
In65 O71 2.266 . S
In65 O72 2.326 . S
In65 O73 2.266 . S
In65 O74 2.326 . S
In65 O76 2.294 . S
In65 O77 2.326 . S
O66 In65 2.294 . S
O66 C75 1.240 . S
O67 In65 2.326 . S
O67 C75 1.252 . S
C68 O71 1.252 . S
C68 O72 1.260 . S
C69 O76 1.240 . S
C69 O77 1.252 . S
C70 O73 1.252 . S
C70 O74 1.260 . S
O71 In65 2.266 . S
O71 C68 1.252 . S
O72 In65 2.326 . S
O72 C68 1.260 . S
O73 In65 2.266 . S
O73 C70 1.252 . S
O74 In65 2.326 . S
O74 C70 1.260 . S
C75 O66 1.240 . S
C75 O67 1.252 . S
O76 In65 2.294 . S
O76 C69 1.240 . S
O77 In65 2.326 . S
O77 C69 1.252 . S
In78 O79 2.294 . S
In78 O80 2.326 . S
In78 O84 2.266 . S
In78 O85 2.326 . S
In78 O86 2.266 . S
In78 O87 2.326 . S
In78 O89 2.294 . S
In78 O90 2.326 . S
O79 In78 2.294 . S
O79 C88 1.240 . S
O80 In78 2.326 . S
O80 C88 1.252 . S
C81 O84 1.252 . S
C81 O85 1.260 . S
C82 O89 1.240 . S
C82 O90 1.252 . S
C83 O86 1.252 . S
C83 O87 1.260 . S
O84 In78 2.266 . S
O84 C81 1.252 . S
O85 In78 2.326 . S
O85 C81 1.260 . S
O86 In78 2.266 . S
O86 C83 1.252 . S
O87 In78 2.326 . S
O87 C83 1.260 . S
C88 O79 1.240 . S
C88 O80 1.252 . S
O89 In78 2.294 . S
O89 C82 1.240 . S
O90 In78 2.326 . S
O90 C82 1.252 . S
In91 O92 2.294 . S
In91 O93 2.326 . S
In91 O97 2.266 . S
In91 O98 2.326 . S
In91 O99 2.266 . S
In91 O100 2.326 . S
In91 O102 2.294 . S
In91 O103 2.326 . S
O92 In91 2.294 . S
O92 C101 1.240 . S
O93 In91 2.326 . S
O93 C101 1.252 . S
C94 O97 1.252 . S
C94 O98 1.260 . S
C95 O102 1.240 . S
C95 O103 1.252 . S
C96 O99 1.252 . S
C96 O100 1.260 . S
O97 In91 2.266 . S
O97 C94 1.252 . S
O98 In91 2.326 . S
O98 C94 1.260 . S
O99 In91 2.266 . S
O99 C96 1.252 . S
O100 In91 2.326 . S
O100 C96 1.260 . S
C101 O92 1.240 . S
C101 O93 1.252 . S
O102 In91 2.294 . S
O102 C95 1.240 . S
O103 In91 2.326 . S
O103 C95 1.252 . S
In104 O105 2.294 . S
In104 O106 2.326 . S
In104 O110 2.266 . S
In104 O111 2.326 . S
In104 O112 2.266 . S
In104 O113 2.326 . S
In104 O115 2.294 . S
In104 O116 2.326 . S
O105 In104 2.294 . S
O105 C114 1.240 . S
O106 In104 2.326 . S
O106 C114 1.252 . S
C107 O110 1.252 . S
C107 O111 1.260 . S
C108 O115 1.240 . S
C108 O116 1.252 . S
C109 O112 1.252 . S
C109 O113 1.260 . S
O110 In104 2.266 . S
O110 C107 1.252 . S
O111 In104 2.326 . S
O111 C107 1.260 . S
O112 In104 2.266 . S
O112 C109 1.252 . S
O113 In104 2.326 . S
O113 C109 1.260 . S
C114 O105 1.240 . S
C114 O106 1.252 . S
O115 In104 2.294 . S
O115 C108 1.240 . S
O116 In104 2.326 . S
O116 C108 1.252 . S
In117 O118 2.294 . S
In117 O119 2.326 . S
In117 O123 2.266 . S
In117 O124 2.326 . S
In117 O125 2.266 . S
In117 O126 2.326 . S
In117 O128 2.294 . S
In117 O129 2.326 . S
O118 In117 2.294 . S
O118 C127 1.240 . S
O119 In117 2.326 . S
O119 C127 1.252 . S
C120 O123 1.252 . S
C120 O124 1.260 . S
C121 O128 1.240 . S
C121 O129 1.252 . S
C122 O125 1.252 . S
C122 O126 1.260 . S
O123 In117 2.266 . S
O123 C120 1.252 . S
O124 In117 2.326 . S
O124 C120 1.260 . S
O125 In117 2.266 . S
O125 C122 1.252 . S
O126 In117 2.326 . S
O126 C122 1.260 . S
C127 O118 1.240 . S
C127 O119 1.252 . S
O128 In117 2.294 . S
O128 C121 1.240 . S
O129 In117 2.326 . S
O129 C121 1.252 . S
In130 O131 2.294 . S
In130 O132 2.326 . S
In130 O136 2.266 . S
In130 O137 2.326 . S
In130 O138 2.266 . S
In130 O139 2.326 . S
In130 O141 2.294 . S
In130 O142 2.326 . S
O131 In130 2.294 . S
O131 C140 1.240 . S
O132 In130 2.326 . S
O132 C140 1.252 . S
C133 O136 1.252 . S
C133 O137 1.260 . S
C134 O141 1.240 . S
C134 O142 1.252 . S
C135 O138 1.252 . S
C135 O139 1.260 . S
O136 In130 2.266 . S
O136 C133 1.252 . S
O137 In130 2.326 . S
O137 C133 1.260 . S
O138 In130 2.266 . S
O138 C135 1.252 . S
O139 In130 2.326 . S
O139 C135 1.260 . S
C140 O131 1.240 . S
C140 O132 1.252 . S
O141 In130 2.294 . S
O141 C134 1.240 . S
O142 In130 2.326 . S
O142 C134 1.252 . S
In143 O144 2.294 . S
In143 O145 2.326 . S
In143 O149 2.266 . S
In143 O150 2.326 . S
In143 O151 2.266 . S
In143 O152 2.326 . S
In143 O154 2.294 . S
In143 O155 2.326 . S
O144 In143 2.294 . S
O144 C153 1.240 . S
O145 In143 2.326 . S
O145 C153 1.252 . S
C146 O149 1.252 . S
C146 O150 1.260 . S
C147 O154 1.240 . S
C147 O155 1.252 . S
C148 O151 1.252 . S
C148 O152 1.260 . S
O149 In143 2.266 . S
O149 C146 1.252 . S
O150 In143 2.326 . S
O150 C146 1.260 . S
O151 In143 2.266 . S
O151 C148 1.252 . S
O152 In143 2.326 . S
O152 C148 1.260 . S
C153 O144 1.240 . S
C153 O145 1.252 . S
O154 In143 2.294 . S
O154 C147 1.240 . S
O155 In143 2.326 . S
O155 C147 1.252 . S
C156 C157 1.349 . S
C156 C158 1.327 . S
C156 H181 0.950 . S
C157 C156 1.349 . S
C157 C173 1.349 . S
C158 C156 1.327 . S
C158 C177 1.429 . S
C158 H182 0.950 . S
C159 C176 1.574 . S
C159 C178 1.368 . S
C159 H183 0.949 . S
H160 C164 0.949 . S
C161 C162 1.349 . S
C161 C163 1.327 . S
C161 H184 0.950 . S
C162 C161 1.349 . S
C162 C174 1.349 . S
C163 C161 1.327 . S
C163 C179 1.429 . S
C163 H185 0.950 . S
C164 H160 0.949 . S
C164 C172 1.574 . S
C164 C180 1.368 . S
H165 C173 0.950 . S
H166 C171 0.950 . S
H167 C172 0.949 . S
H168 C174 0.950 . S
H169 C175 0.950 . S
H170 C176 0.949 . S
C171 H166 0.950 . S
C171 C173 1.327 . S
C171 C177 1.429 . S
C172 C164 1.574 . S
C172 H167 0.949 . S
C172 C178 1.368 . S
C173 C157 1.349 . S
C173 H165 0.950 . S
C173 C171 1.327 . S
C174 C162 1.349 . S
C174 H168 0.950 . S
C174 C175 1.327 . S
C175 H169 0.950 . S
C175 C174 1.327 . S
C175 C179 1.429 . S
C176 C159 1.574 . S
C176 H170 0.949 . S
C176 C180 1.368 . S
C177 C158 1.429 . S
C177 C171 1.429 . S
C177 C178 1.523 . S
C178 C159 1.368 . S
C178 C172 1.368 . S
C178 C177 1.523 . S
C179 C163 1.429 . S
C179 C175 1.429 . S
C179 C180 1.523 . S
C180 C164 1.368 . S
C180 C176 1.368 . S
C180 C179 1.523 . S
H181 C156 0.950 . S
H182 C158 0.950 . S
H183 C159 0.949 . S
H184 C161 0.950 . S
H185 C163 0.950 . S
C186 C187 1.349 . S
C186 C188 1.327 . S
C186 H211 0.950 . S
C187 C186 1.349 . S
C187 C203 1.349 . S
C188 C186 1.327 . S
C188 C207 1.429 . S
C188 H212 0.950 . S
C189 C206 1.574 . S
C189 C208 1.368 1_655 S
C189 H213 0.949 . S
H190 C194 0.949 . S
C191 C192 1.349 . S
C191 C193 1.327 . S
C191 H214 0.950 . S
C192 C191 1.349 . S
C192 C204 1.349 . S
C193 C191 1.327 . S
C193 C209 1.429 . S
C193 H215 0.950 . S
C194 H190 0.949 . S
C194 C202 1.574 . S
C194 C210 1.368 1_455 S
H195 C203 0.950 . S
H196 C201 0.950 . S
H197 C202 0.949 . S
H198 C204 0.950 . S
H199 C205 0.950 . S
H200 C206 0.949 . S
C201 H196 0.950 . S
C201 C203 1.327 . S
C201 C207 1.429 . S
C202 C194 1.574 . S
C202 H197 0.949 . S
C202 C208 1.368 . S
C203 C187 1.349 . S
C203 H195 0.950 . S
C203 C201 1.327 . S
C204 C192 1.349 . S
C204 H198 0.950 . S
C204 C205 1.327 . S
C205 H199 0.950 . S
C205 C204 1.327 . S
C205 C209 1.429 . S
C206 C189 1.574 . S
C206 H200 0.949 . S
C206 C210 1.368 . S
C207 C188 1.429 . S
C207 C201 1.429 . S
C207 C208 1.523 . S
C208 C189 1.368 1_455 S
C208 C202 1.368 . S
C208 C207 1.523 . S
C209 C193 1.429 . S
C209 C205 1.429 . S
C209 C210 1.523 . S
C210 C194 1.368 1_655 S
C210 C206 1.368 . S
C210 C209 1.523 . S
H211 C186 0.950 . S
H212 C188 0.950 . S
H213 C189 0.949 . S
H214 C191 0.950 . S
H215 C193 0.950 . S
C216 C217 1.349 . S
C216 C218 1.327 . S
C216 H241 0.950 . S
C217 C216 1.349 . S
C217 C233 1.349 . S
C218 C216 1.327 . S
C218 C237 1.429 . S
C218 H242 0.950 . S
C219 C236 1.574 . S
C219 C238 1.368 1_545 S
C219 H243 0.949 . S
H220 C224 0.949 . S
C221 C222 1.349 . S
C221 C223 1.327 . S
C221 H244 0.950 . S
C222 C221 1.349 . S
C222 C234 1.349 . S
C223 C221 1.327 . S
C223 C239 1.429 . S
C223 H245 0.950 . S
C224 H220 0.949 . S
C224 C232 1.574 . S
C224 C240 1.368 1_565 S
H225 C233 0.950 . S
H226 C231 0.950 . S
H227 C232 0.949 . S
H228 C234 0.950 . S
H229 C235 0.950 . S
H230 C236 0.949 . S
C231 H226 0.950 . S
C231 C233 1.327 . S
C231 C237 1.429 . S
C232 C224 1.574 . S
C232 H227 0.949 . S
C232 C238 1.368 . S
C233 C217 1.349 . S
C233 H225 0.950 . S
C233 C231 1.327 . S
C234 C222 1.349 . S
C234 H228 0.950 . S
C234 C235 1.327 . S
C235 H229 0.950 . S
C235 C234 1.327 . S
C235 C239 1.429 . S
C236 C219 1.574 . S
C236 H230 0.949 . S
C236 C240 1.368 . S
C237 C218 1.429 . S
C237 C231 1.429 . S
C237 C238 1.523 . S
C238 C219 1.368 1_565 S
C238 C232 1.368 . S
C238 C237 1.523 . S
C239 C223 1.429 . S
C239 C235 1.429 . S
C239 C240 1.523 . S
C240 C224 1.368 1_545 S
C240 C236 1.368 . S
C240 C239 1.523 . S
H241 C216 0.950 . S
H242 C218 0.950 . S
H243 C219 0.949 . S
H244 C221 0.950 . S
H245 C223 0.950 . S
C246 C247 1.349 . S
C246 C248 1.327 . S
C246 H271 0.950 . S
C247 C246 1.349 . S
C247 C263 1.349 . S
C248 C246 1.327 . S
C248 C267 1.429 . S
C248 H272 0.950 . S
C249 C266 1.574 . S
C249 C268 1.368 . S
C249 H273 0.949 . S
H250 C254 0.949 . S
C251 C252 1.349 . S
C251 C253 1.327 . S
C251 H274 0.950 . S
C252 C251 1.349 . S
C252 C264 1.349 . S
C253 C251 1.327 . S
C253 C269 1.429 . S
C253 H275 0.950 . S
C254 H250 0.949 . S
C254 C262 1.574 . S
C254 C270 1.368 . S
H255 C263 0.950 . S
H256 C261 0.950 . S
H257 C262 0.949 . S
H258 C264 0.950 . S
H259 C265 0.950 . S
H260 C266 0.949 . S
C261 H256 0.950 . S
C261 C263 1.327 . S
C261 C267 1.429 . S
C262 C254 1.574 . S
C262 H257 0.949 . S
C262 C268 1.368 . S
C263 C247 1.349 . S
C263 H255 0.950 . S
C263 C261 1.327 . S
C264 C252 1.349 . S
C264 H258 0.950 . S
C264 C265 1.327 . S
C265 H259 0.950 . S
C265 C264 1.327 . S
C265 C269 1.429 . S
C266 C249 1.574 . S
C266 H260 0.949 . S
C266 C270 1.368 . S
C267 C248 1.429 . S
C267 C261 1.429 . S
C267 C268 1.523 . S
C268 C249 1.368 . S
C268 C262 1.368 . S
C268 C267 1.523 . S
C269 C253 1.429 . S
C269 C265 1.429 . S
C269 C270 1.523 . S
C270 C254 1.368 . S
C270 C266 1.368 . S
C270 C269 1.523 . S
H271 C246 0.950 . S
H272 C248 0.950 . S
H273 C249 0.949 . S
H274 C251 0.950 . S
H275 C253 0.950 . S
C276 C277 1.349 . S
C276 C278 1.327 . S
C276 H301 0.950 . S
C277 C276 1.349 . S
C277 C293 1.349 . S
C278 C276 1.327 . S
C278 C297 1.429 . S
C278 H302 0.950 . S
C279 C296 1.574 . S
C279 C298 1.368 . S
C279 H303 0.949 . S
H280 C284 0.949 . S
C281 C282 1.349 . S
C281 C283 1.327 . S
C281 H304 0.950 . S
C282 C281 1.349 . S
C282 C294 1.349 . S
C283 C281 1.327 . S
C283 C299 1.429 . S
C283 H305 0.950 . S
C284 H280 0.949 . S
C284 C292 1.574 . S
C284 C300 1.368 . S
H285 C293 0.950 . S
H286 C291 0.950 . S
H287 C292 0.949 . S
H288 C294 0.950 . S
H289 C295 0.950 . S
H290 C296 0.949 . S
C291 H286 0.950 . S
C291 C293 1.327 . S
C291 C297 1.429 . S
C292 C284 1.574 . S
C292 H287 0.949 . S
C292 C298 1.368 1_455 S
C293 C277 1.349 . S
C293 H285 0.950 . S
C293 C291 1.327 . S
C294 C282 1.349 . S
C294 H288 0.950 . S
C294 C295 1.327 . S
C295 H289 0.950 . S
C295 C294 1.327 . S
C295 C299 1.429 . S
C296 C279 1.574 . S
C296 H290 0.949 . S
C296 C300 1.368 1_655 S
C297 C278 1.429 . S
C297 C291 1.429 . S
C297 C298 1.523 . S
C298 C279 1.368 . S
C298 C292 1.368 1_655 S
C298 C297 1.523 . S
C299 C283 1.429 . S
C299 C295 1.429 . S
C299 C300 1.523 . S
C300 C284 1.368 . S
C300 C296 1.368 1_455 S
C300 C299 1.523 . S
H301 C276 0.950 . S
H302 C278 0.950 . S
H303 C279 0.949 . S
H304 C281 0.950 . S
H305 C283 0.950 . S
C306 C307 1.349 . S
C306 C308 1.327 . S
C306 H331 0.950 . S
C307 C306 1.349 . S
C307 C323 1.349 . S
C308 C306 1.327 . S
C308 C327 1.429 . S
C308 H332 0.950 . S
C309 C326 1.574 . S
C309 C328 1.368 . S
C309 H333 0.949 . S
H310 C314 0.949 . S
C311 C312 1.349 . S
C311 C313 1.327 . S
C311 H334 0.950 . S
C312 C311 1.349 . S
C312 C324 1.349 . S
C313 C311 1.327 . S
C313 C329 1.429 . S
C313 H335 0.950 . S
C314 H310 0.949 . S
C314 C322 1.574 . S
C314 C330 1.368 . S
H315 C323 0.950 . S
H316 C321 0.950 . S
H317 C322 0.949 . S
H318 C324 0.950 . S
H319 C325 0.950 . S
H320 C326 0.949 . S
C321 H316 0.950 . S
C321 C323 1.327 . S
C321 C327 1.429 . S
C322 C314 1.574 . S
C322 H317 0.949 . S
C322 C328 1.368 1_565 S
C323 C307 1.349 . S
C323 H315 0.950 . S
C323 C321 1.327 . S
C324 C312 1.349 . S
C324 H318 0.950 . S
C324 C325 1.327 . S
C325 H319 0.950 . S
C325 C324 1.327 . S
C325 C329 1.429 . S
C326 C309 1.574 . S
C326 H320 0.949 . S
C326 C330 1.368 1_545 S
C327 C308 1.429 . S
C327 C321 1.429 . S
C327 C328 1.523 . S
C328 C309 1.368 . S
C328 C322 1.368 1_545 S
C328 C327 1.523 . S
C329 C313 1.429 . S
C329 C325 1.429 . S
C329 C330 1.523 . S
C330 C314 1.368 . S
C330 C326 1.368 1_565 S
C330 C329 1.523 . S
H331 C306 0.950 . S
H332 C308 0.950 . S
H333 C309 0.949 . S
H334 C311 0.950 . S
H335 C313 0.950 . S
C336 C337 1.349 . S
C336 C338 1.327 . S
C336 H361 0.950 . S
C337 C336 1.349 . S
C337 C353 1.349 . S
C338 C336 1.327 . S
C338 C357 1.429 . S
C338 H362 0.950 . S
C339 C356 1.574 . S
C339 C358 1.368 . S
C339 H363 0.949 . S
H340 C344 0.949 . S
C341 C342 1.349 . S
C341 C343 1.327 . S
C341 H364 0.950 . S
C342 C341 1.349 . S
C342 C354 1.349 . S
C343 C341 1.327 . S
C343 C359 1.429 . S
C343 H365 0.950 . S
C344 H340 0.949 . S
C344 C352 1.574 . S
C344 C360 1.368 . S
H345 C353 0.950 . S
H346 C351 0.950 . S
H347 C352 0.949 . S
H348 C354 0.950 . S
H349 C355 0.950 . S
H350 C356 0.949 . S
C351 H346 0.950 . S
C351 C353 1.327 . S
C351 C357 1.429 . S
C352 C344 1.574 . S
C352 H347 0.949 . S
C352 C358 1.368 . S
C353 C337 1.349 . S
C353 H345 0.950 . S
C353 C351 1.327 . S
C354 C342 1.349 . S
C354 H348 0.950 . S
C354 C355 1.327 . S
C355 H349 0.950 . S
C355 C354 1.327 . S
C355 C359 1.429 . S
C356 C339 1.574 . S
C356 H350 0.949 . S
C356 C360 1.368 . S
C357 C338 1.429 . S
C357 C351 1.429 . S
C357 C358 1.523 . S
C358 C339 1.368 . S
C358 C352 1.368 . S
C358 C357 1.523 . S
C359 C343 1.429 . S
C359 C355 1.429 . S
C359 C360 1.523 . S
C360 C344 1.368 . S
C360 C356 1.368 . S
C360 C359 1.523 . S
H361 C336 0.950 . S
H362 C338 0.950 . S
H363 C339 0.949 . S
H364 C341 0.950 . S
H365 C343 0.950 . S
C366 C367 1.349 . S
C366 C368 1.327 . S
C366 H391 0.950 . S
C367 C366 1.349 . S
C367 C383 1.349 . S
C368 C366 1.327 . S
C368 C387 1.429 . S
C368 H392 0.950 . S
C369 C386 1.574 . S
C369 C388 1.368 . S
C369 H393 0.949 . S
H370 C374 0.949 . S
C371 C372 1.349 . S
C371 C373 1.327 . S
C371 H394 0.950 . S
C372 C371 1.349 . S
C372 C384 1.349 . S
C373 C371 1.327 . S
C373 C389 1.429 . S
C373 H395 0.950 . S
C374 H370 0.949 . S
C374 C382 1.574 . S
C374 C390 1.368 . S
H375 C383 0.950 . S
H376 C381 0.950 . S
H377 C382 0.949 . S
H378 C384 0.950 . S
H379 C385 0.950 . S
H380 C386 0.949 . S
C381 H376 0.950 . S
C381 C383 1.327 . S
C381 C387 1.429 . S
C382 C374 1.574 . S
C382 H377 0.949 . S
C382 C388 1.368 . S
C383 C367 1.349 . S
C383 H375 0.950 . S
C383 C381 1.327 . S
C384 C372 1.349 . S
C384 H378 0.950 . S
C384 C385 1.327 . S
C385 H379 0.950 . S
C385 C384 1.327 . S
C385 C389 1.429 . S
C386 C369 1.574 . S
C386 H380 0.949 . S
C386 C390 1.368 . S
C387 C368 1.429 . S
C387 C381 1.429 . S
C387 C388 1.523 . S
C388 C369 1.368 . S
C388 C382 1.368 . S
C388 C387 1.523 . S
C389 C373 1.429 . S
C389 C385 1.429 . S
C389 C390 1.523 . S
C390 C374 1.368 . S
C390 C386 1.368 . S
C390 C389 1.523 . S
H391 C366 0.950 . S
H392 C368 0.950 . S
H393 C369 0.949 . S
H394 C371 0.950 . S
H395 C373 0.950 . S
C396 C397 1.349 . S
C396 C398 1.327 . S
C396 H421 0.950 . S
C397 C396 1.349 . S
C397 C413 1.349 . S
C398 C396 1.327 . S
C398 C417 1.429 . S
C398 H422 0.950 . S
C399 C416 1.574 . S
C399 C418 1.368 . S
C399 H423 0.949 . S
H400 C404 0.949 . S
C401 C402 1.349 . S
C401 C403 1.327 . S
C401 H424 0.950 . S
C402 C401 1.349 . S
C402 C414 1.349 . S
C403 C401 1.327 . S
C403 C419 1.429 . S
C403 H425 0.950 . S
C404 H400 0.949 . S
C404 C412 1.574 . S
C404 C420 1.368 . S
H405 C413 0.950 . S
H406 C411 0.950 . S
H407 C412 0.949 . S
H408 C414 0.950 . S
H409 C415 0.950 . S
H410 C416 0.949 . S
C411 H406 0.950 . S
C411 C413 1.327 . S
C411 C417 1.429 . S
C412 C404 1.574 . S
C412 H407 0.949 . S
C412 C418 1.368 . S
C413 C397 1.349 . S
C413 H405 0.950 . S
C413 C411 1.327 . S
C414 C402 1.349 . S
C414 H408 0.950 . S
C414 C415 1.327 . S
C415 H409 0.950 . S
C415 C414 1.327 . S
C415 C419 1.429 . S
C416 C399 1.574 . S
C416 H410 0.949 . S
C416 C420 1.368 . S
C417 C398 1.429 . S
C417 C411 1.429 . S
C417 C418 1.523 . S
C418 C399 1.368 . S
C418 C412 1.368 . S
C418 C417 1.523 . S
C419 C403 1.429 . S
C419 C415 1.429 . S
C419 C420 1.523 . S
C420 C404 1.368 . S
C420 C416 1.368 . S
C420 C419 1.523 . S
H421 C396 0.950 . S
H422 C398 0.950 . S
H423 C399 0.949 . S
H424 C401 0.950 . S
H425 C403 0.950 . S
C426 C427 1.349 . S
C426 C428 1.327 . S
C426 H451 0.950 . S
C427 C426 1.349 . S
C427 C443 1.349 . S
C428 C426 1.327 . S
C428 C447 1.429 . S
C428 H452 0.950 . S
C429 C446 1.574 . S
C429 C448 1.368 . S
C429 H453 0.949 . S
H430 C434 0.949 . S
C431 C432 1.349 . S
C431 C433 1.327 . S
C431 H454 0.950 . S
C432 C431 1.349 . S
C432 C444 1.349 . S
C433 C431 1.327 . S
C433 C449 1.429 . S
C433 H455 0.950 . S
C434 H430 0.949 . S
C434 C442 1.574 . S
C434 C450 1.368 . S
H435 C443 0.950 . S
H436 C441 0.950 . S
H437 C442 0.949 . S
H438 C444 0.950 . S
H439 C445 0.950 . S
H440 C446 0.949 . S
C441 H436 0.950 . S
C441 C443 1.327 . S
C441 C447 1.429 . S
C442 C434 1.574 . S
C442 H437 0.949 . S
C442 C448 1.368 . S
C443 C427 1.349 . S
C443 H435 0.950 . S
C443 C441 1.327 . S
C444 C432 1.349 . S
C444 H438 0.950 . S
C444 C445 1.327 . S
C445 H439 0.950 . S
C445 C444 1.327 . S
C445 C449 1.429 . S
C446 C429 1.574 . S
C446 H440 0.949 . S
C446 C450 1.368 . S
C447 C428 1.429 . S
C447 C441 1.429 . S
C447 C448 1.523 . S
C448 C429 1.368 . S
C448 C442 1.368 . S
C448 C447 1.523 . S
C449 C433 1.429 . S
C449 C445 1.429 . S
C449 C450 1.523 . S
C450 C434 1.368 . S
C450 C446 1.368 . S
C450 C449 1.523 . S
H451 C426 0.950 . S
H452 C428 0.950 . S
H453 C429 0.949 . S
H454 C431 0.950 . S
H455 C433 0.950 . S
C456 C457 1.349 . S
C456 C458 1.327 . S
C456 H481 0.950 . S
C457 C456 1.349 . S
C457 C473 1.349 . S
C458 C456 1.327 . S
C458 C477 1.429 . S
C458 H482 0.950 . S
C459 C476 1.574 . S
C459 C478 1.368 . S
C459 H483 0.949 . S
H460 C464 0.949 . S
C461 C462 1.349 . S
C461 C463 1.327 . S
C461 H484 0.950 . S
C462 C461 1.349 . S
C462 C474 1.349 . S
C463 C461 1.327 . S
C463 C479 1.429 . S
C463 H485 0.950 . S
C464 H460 0.949 . S
C464 C472 1.574 . S
C464 C480 1.368 . S
H465 C473 0.950 . S
H466 C471 0.950 . S
H467 C472 0.949 . S
H468 C474 0.950 . S
H469 C475 0.950 . S
H470 C476 0.949 . S
C471 H466 0.950 . S
C471 C473 1.327 . S
C471 C477 1.429 . S
C472 C464 1.574 . S
C472 H467 0.949 . S
C472 C478 1.368 . S
C473 C457 1.349 . S
C473 H465 0.950 . S
C473 C471 1.327 . S
C474 C462 1.349 . S
C474 H468 0.950 . S
C474 C475 1.327 . S
C475 H469 0.950 . S
C475 C474 1.327 . S
C475 C479 1.429 . S
C476 C459 1.574 . S
C476 H470 0.949 . S
C476 C480 1.368 . S
C477 C458 1.429 . S
C477 C471 1.429 . S
C477 C478 1.523 . S
C478 C459 1.368 . S
C478 C472 1.368 . S
C478 C477 1.523 . S
C479 C463 1.429 . S
C479 C475 1.429 . S
C479 C480 1.523 . S
C480 C464 1.368 . S
C480 C476 1.368 . S
C480 C479 1.523 . S
H481 C456 0.950 . S
H482 C458 0.950 . S
H483 C459 0.949 . S
H484 C461 0.950 . S
H485 C463 0.950 . S
C486 C487 1.349 . S
C486 C488 1.327 . S
C486 H511 0.950 . S
C487 C486 1.349 . S
C487 C503 1.349 . S
C488 C486 1.327 . S
C488 C507 1.429 . S
C488 H512 0.950 . S
C489 C506 1.574 . S
C489 C508 1.368 . S
C489 H513 0.949 . S
H490 C494 0.949 . S
C491 C492 1.349 . S
C491 C493 1.327 . S
C491 H514 0.950 . S
C492 C491 1.349 . S
C492 C504 1.349 . S
C493 C491 1.327 . S
C493 C509 1.429 . S
C493 H515 0.950 . S
C494 H490 0.949 . S
C494 C502 1.574 . S
C494 C510 1.368 . S
H495 C503 0.950 . S
H496 C501 0.950 . S
H497 C502 0.949 . S
H498 C504 0.950 . S
H499 C505 0.950 . S
H500 C506 0.949 . S
C501 H496 0.950 . S
C501 C503 1.327 . S
C501 C507 1.429 . S
C502 C494 1.574 . S
C502 H497 0.949 . S
C502 C508 1.368 . S
C503 C487 1.349 . S
C503 H495 0.950 . S
C503 C501 1.327 . S
C504 C492 1.349 . S
C504 H498 0.950 . S
C504 C505 1.327 . S
C505 H499 0.950 . S
C505 C504 1.327 . S
C505 C509 1.429 . S
C506 C489 1.574 . S
C506 H500 0.949 . S
C506 C510 1.368 . S
C507 C488 1.429 . S
C507 C501 1.429 . S
C507 C508 1.523 . S
C508 C489 1.368 . S
C508 C502 1.368 . S
C508 C507 1.523 . S
C509 C493 1.429 . S
C509 C505 1.429 . S
C509 C510 1.523 . S
C510 C494 1.368 . S
C510 C506 1.368 . S
C510 C509 1.523 . S
H511 C486 0.950 . S
H512 C488 0.950 . S
H513 C489 0.949 . S
H514 C491 0.950 . S
H515 C493 0.950 . S
C516 C517 1.349 . S
C516 C518 1.327 . S
C516 H541 0.950 . S
C517 C516 1.349 . S
C517 C533 1.349 . S
C518 C516 1.327 . S
C518 C537 1.429 . S
C518 H542 0.950 . S
C519 C536 1.574 1_565 S
C519 C538 1.368 . S
C519 H543 0.949 . S
H520 C524 0.949 . S
C521 C522 1.349 . S
C521 C523 1.327 . S
C521 H544 0.950 . S
C522 C521 1.349 . S
C522 C534 1.349 . S
C523 C521 1.327 . S
C523 C539 1.429 . S
C523 H545 0.950 . S
C524 H520 0.949 . S
C524 C532 1.574 1_545 S
C524 C540 1.368 . S
H525 C533 0.950 . S
H526 C531 0.950 . S
H527 C532 0.949 . S
H528 C534 0.950 . S
H529 C535 0.950 . S
H530 C536 0.949 . S
C531 H526 0.950 . S
C531 C533 1.327 . S
C531 C537 1.429 . S
C532 C524 1.574 1_565 S
C532 H527 0.949 . S
C532 C538 1.368 1_554 S
C533 C517 1.349 . S
C533 H525 0.950 . S
C533 C531 1.327 . S
C534 C522 1.349 . S
C534 H528 0.950 . S
C534 C535 1.327 . S
C535 H529 0.950 . S
C535 C534 1.327 . S
C535 C539 1.429 . S
C536 C519 1.574 1_545 S
C536 H530 0.949 . S
C536 C540 1.368 1_556 S
C537 C518 1.429 . S
C537 C531 1.429 . S
C537 C538 1.523 . S
C538 C519 1.368 . S
C538 C532 1.368 1_556 S
C538 C537 1.523 . S
C539 C523 1.429 . S
C539 C535 1.429 . S
C539 C540 1.523 . S
C540 C524 1.368 . S
C540 C536 1.368 1_554 S
C540 C539 1.523 . S
H541 C516 0.950 . S
H542 C518 0.950 . S
H543 C519 0.949 . S
H544 C521 0.950 . S
H545 C523 0.950 . S
C546 C547 1.349 . S
C546 C548 1.327 . S
C546 H571 0.950 . S
C547 C546 1.349 . S
C547 C563 1.349 . S
C548 C546 1.327 . S
C548 C567 1.429 . S
C548 H572 0.950 . S
C549 C566 1.574 . S
C549 C568 1.368 . S
C549 H573 0.949 . S
H550 C554 0.949 . S
C551 C552 1.349 . S
C551 C553 1.327 . S
C551 H574 0.950 . S
C552 C551 1.349 . S
C552 C564 1.349 . S
C553 C551 1.327 . S
C553 C569 1.429 . S
C553 H575 0.950 . S
C554 H550 0.949 . S
C554 C562 1.574 . S
C554 C570 1.368 . S
H555 C563 0.950 . S
H556 C561 0.950 . S
H557 C562 0.949 . S
H558 C564 0.950 . S
H559 C565 0.950 . S
H560 C566 0.949 . S
C561 H556 0.950 . S
C561 C563 1.327 . S
C561 C567 1.429 . S
C562 C554 1.574 . S
C562 H557 0.949 . S
C562 C568 1.368 . S
C563 C547 1.349 . S
C563 H555 0.950 . S
C563 C561 1.327 . S
C564 C552 1.349 . S
C564 H558 0.950 . S
C564 C565 1.327 . S
C565 H559 0.950 . S
C565 C564 1.327 . S
C565 C569 1.429 . S
C566 C549 1.574 . S
C566 H560 0.949 . S
C566 C570 1.368 . S
C567 C548 1.429 . S
C567 C561 1.429 . S
C567 C568 1.523 . S
C568 C549 1.368 . S
C568 C562 1.368 . S
C568 C567 1.523 . S
C569 C553 1.429 . S
C569 C565 1.429 . S
C569 C570 1.523 . S
C570 C554 1.368 . S
C570 C566 1.368 . S
C570 C569 1.523 . S
H571 C546 0.950 . S
H572 C548 0.950 . S
H573 C549 0.949 . S
H574 C551 0.950 . S
H575 C553 0.950 . S
C576 C577 1.349 . S
C576 C578 1.327 . S
C576 H601 0.950 . S
C577 C576 1.349 . S
C577 C593 1.349 . S
C578 C576 1.327 . S
C578 C597 1.429 . S
C578 H602 0.950 . S
C579 C596 1.574 1_655 S
C579 C598 1.368 . S
C579 H603 0.949 . S
H580 C584 0.949 . S
C581 C582 1.349 . S
C581 C583 1.327 . S
C581 H604 0.950 . S
C582 C581 1.349 . S
C582 C594 1.349 . S
C583 C581 1.327 . S
C583 C599 1.429 . S
C583 H605 0.950 . S
C584 H580 0.949 . S
C584 C592 1.574 1_455 S
C584 C600 1.368 . S
H585 C593 0.950 . S
H586 C591 0.950 . S
H587 C592 0.949 . S
H588 C594 0.950 . S
H589 C595 0.950 . S
H590 C596 0.949 . S
C591 H586 0.950 . S
C591 C593 1.327 . S
C591 C597 1.429 . S
C592 C584 1.574 1_655 S
C592 H587 0.949 . S
C592 C598 1.368 . S
C593 C577 1.349 . S
C593 H585 0.950 . S
C593 C591 1.327 . S
C594 C582 1.349 . S
C594 H588 0.950 . S
C594 C595 1.327 . S
C595 H589 0.950 . S
C595 C594 1.327 . S
C595 C599 1.429 . S
C596 C579 1.574 1_455 S
C596 H590 0.949 . S
C596 C600 1.368 . S
C597 C578 1.429 . S
C597 C591 1.429 . S
C597 C598 1.523 . S
C598 C579 1.368 . S
C598 C592 1.368 . S
C598 C597 1.523 . S
C599 C583 1.429 . S
C599 C595 1.429 . S
C599 C600 1.523 . S
C600 C584 1.368 . S
C600 C596 1.368 . S
C600 C599 1.523 . S
H601 C576 0.950 . S
H602 C578 0.950 . S
H603 C579 0.949 . S
H604 C581 0.950 . S
H605 C583 0.950 . S
C606 C607 1.349 . S
C606 C608 1.327 . S
C606 H631 0.950 . S
C607 C606 1.349 . S
C607 C623 1.349 . S
C608 C606 1.327 . S
C608 C627 1.429 . S
C608 H632 0.950 . S
C609 C626 1.574 1_565 S
C609 C628 1.368 1_556 S
C609 H633 0.949 . S
H610 C614 0.949 . S
C611 C612 1.349 . S
C611 C613 1.327 . S
C611 H634 0.950 . S
C612 C611 1.349 . S
C612 C624 1.349 . S
C613 C611 1.327 . S
C613 C629 1.429 . S
C613 H635 0.950 . S
C614 H610 0.949 . S
C614 C622 1.574 1_545 S
C614 C630 1.368 1_554 S
H615 C623 0.950 . S
H616 C621 0.950 . S
H617 C622 0.949 . S
H618 C624 0.950 . S
H619 C625 0.950 . S
H620 C626 0.949 . S
C621 H616 0.950 . S
C621 C623 1.327 . S
C621 C627 1.429 . S
C622 C614 1.574 1_565 S
C622 H617 0.949 . S
C622 C628 1.368 . S
C623 C607 1.349 . S
C623 H615 0.950 . S
C623 C621 1.327 . S
C624 C612 1.349 . S
C624 H618 0.950 . S
C624 C625 1.327 . S
C625 H619 0.950 . S
C625 C624 1.327 . S
C625 C629 1.429 . S
C626 C609 1.574 1_545 S
C626 H620 0.949 . S
C626 C630 1.368 . S
C627 C608 1.429 . S
C627 C621 1.429 . S
C627 C628 1.523 . S
C628 C609 1.368 1_554 S
C628 C622 1.368 . S
C628 C627 1.523 . S
C629 C613 1.429 . S
C629 C625 1.429 . S
C629 C630 1.523 . S
C630 C614 1.368 1_556 S
C630 C626 1.368 . S
C630 C629 1.523 . S
H631 C606 0.950 . S
H632 C608 0.950 . S
H633 C609 0.949 . S
H634 C611 0.950 . S
H635 C613 0.950 . S
C636 C637 1.349 . S
C636 C638 1.327 . S
C636 H661 0.950 . S
C637 C636 1.349 . S
C637 C653 1.349 . S
C638 C636 1.327 . S
C638 C657 1.429 . S
C638 H662 0.950 . S
C639 C656 1.574 . S
C639 C658 1.368 . S
C639 H663 0.949 . S
H640 C644 0.949 . S
C641 C642 1.349 . S
C641 C643 1.327 . S
C641 H664 0.950 . S
C642 C641 1.349 . S
C642 C654 1.349 . S
C643 C641 1.327 . S
C643 C659 1.429 . S
C643 H665 0.950 . S
C644 H640 0.949 . S
C644 C652 1.574 . S
C644 C660 1.368 . S
H645 C653 0.950 . S
H646 C651 0.950 . S
H647 C652 0.949 . S
H648 C654 0.950 . S
H649 C655 0.950 . S
H650 C656 0.949 . S
C651 H646 0.950 . S
C651 C653 1.327 . S
C651 C657 1.429 . S
C652 C644 1.574 . S
C652 H647 0.949 . S
C652 C658 1.368 . S
C653 C637 1.349 . S
C653 H645 0.950 . S
C653 C651 1.327 . S
C654 C642 1.349 . S
C654 H648 0.950 . S
C654 C655 1.327 . S
C655 H649 0.950 . S
C655 C654 1.327 . S
C655 C659 1.429 . S
C656 C639 1.574 . S
C656 H650 0.949 . S
C656 C660 1.368 . S
C657 C638 1.429 . S
C657 C651 1.429 . S
C657 C658 1.523 . S
C658 C639 1.368 . S
C658 C652 1.368 . S
C658 C657 1.523 . S
C659 C643 1.429 . S
C659 C655 1.429 . S
C659 C660 1.523 . S
C660 C644 1.368 . S
C660 C656 1.368 . S
C660 C659 1.523 . S
H661 C636 0.950 . S
H662 C638 0.950 . S
H663 C639 0.949 . S
H664 C641 0.950 . S
H665 C643 0.950 . S
C666 C667 1.349 . S
C666 C668 1.327 . S
C666 H691 0.950 . S
C667 C666 1.349 . S
C667 C683 1.349 . S
C668 C666 1.327 . S
C668 C687 1.429 . S
C668 H692 0.950 . S
C669 C686 1.574 1_455 S
C669 C688 1.368 . S
C669 H693 0.949 . S
H670 C674 0.949 . S
C671 C672 1.349 . S
C671 C673 1.327 . S
C671 H694 0.950 . S
C672 C671 1.349 . S
C672 C684 1.349 . S
C673 C671 1.327 . S
C673 C689 1.429 . S
C673 H695 0.950 . S
C674 H670 0.949 . S
C674 C682 1.574 1_655 S
C674 C690 1.368 . S
H675 C683 0.950 . S
H676 C681 0.950 . S
H677 C682 0.949 . S
H678 C684 0.950 . S
H679 C685 0.950 . S
H680 C686 0.949 . S
C681 H676 0.950 . S
C681 C683 1.327 . S
C681 C687 1.429 . S
C682 C674 1.574 1_455 S
C682 H677 0.949 . S
C682 C688 1.368 . S
C683 C667 1.349 . S
C683 H675 0.950 . S
C683 C681 1.327 . S
C684 C672 1.349 . S
C684 H678 0.950 . S
C684 C685 1.327 . S
C685 H679 0.950 . S
C685 C684 1.327 . S
C685 C689 1.429 . S
C686 C669 1.574 1_655 S
C686 H680 0.949 . S
C686 C690 1.368 . S
C687 C668 1.429 . S
C687 C681 1.429 . S
C687 C688 1.523 . S
C688 C669 1.368 . S
C688 C682 1.368 . S
C688 C687 1.523 . S
C689 C673 1.429 . S
C689 C685 1.429 . S
C689 C690 1.523 . S
C690 C674 1.368 . S
C690 C686 1.368 . S
C690 C689 1.523 . S
H691 C666 0.950 . S
H692 C668 0.950 . S
H693 C669 0.949 . S
H694 C671 0.950 . S
H695 C673 0.950 . S
C696 C697 1.349 1_455 S
C696 C698 1.327 . S
C696 H721 0.950 1_455 S
C697 C696 1.349 1_655 S
C697 C713 1.349 1_655 S
C698 C696 1.327 . S
C698 C717 1.429 . S
C698 H722 0.950 . S
C699 C716 1.574 . S
C699 C718 1.368 1_554 S
C699 H723 0.949 . S
H700 C704 0.949 . S
C701 C702 1.349 . S
C701 C703 1.327 . S
C701 H724 0.950 . S
C702 C701 1.349 . S
C702 C714 1.349 . S
C703 C701 1.327 . S
C703 C719 1.429 . S
C703 H725 0.950 . S
C704 H700 0.949 . S
C704 C712 1.574 . S
C704 C720 1.368 1_556 S
H705 C713 0.950 . S
H706 C711 0.950 . S
H707 C712 0.949 . S
H708 C714 0.950 . S
H709 C715 0.950 . S
H710 C716 0.949 . S
C711 H706 0.950 . S
C711 C713 1.327 . S
C711 C717 1.429 . S
C712 C704 1.574 . S
C712 H707 0.949 . S
C712 C718 1.368 . S
C713 C697 1.349 1_455 S
C713 H705 0.950 . S
C713 C711 1.327 . S
C714 C702 1.349 . S
C714 H708 0.950 . S
C714 C715 1.327 . S
C715 H709 0.950 . S
C715 C714 1.327 . S
C715 C719 1.429 . S
C716 C699 1.574 . S
C716 H710 0.949 . S
C716 C720 1.368 . S
C717 C698 1.429 . S
C717 C711 1.429 . S
C717 C718 1.523 . S
C718 C699 1.368 1_556 S
C718 C712 1.368 . S
C718 C717 1.523 . S
C719 C703 1.429 . S
C719 C715 1.429 . S
C719 C720 1.523 . S
C720 C704 1.368 1_554 S
C720 C716 1.368 . S
C720 C719 1.523 . S
H721 C696 0.950 1_655 S
H722 C698 0.950 . S
H723 C699 0.949 . S
H724 C701 0.950 . S
H725 C703 0.950 . S
C726 C727 1.349 1_545 S
C726 C728 1.327 . S
C726 H751 0.950 . S
C727 C726 1.349 1_565 S
C727 C743 1.349 . S
C728 C726 1.327 . S
C728 C747 1.429 . S
C728 H752 0.950 . S
C729 C746 1.574 . S
C729 C748 1.368 . S
C729 H753 0.949 . S
H730 C734 0.949 . S
C731 C732 1.348 1_655 S
C731 C733 1.327 . S
C731 H754 0.951 1_655 S
C732 C731 1.348 1_455 S
C732 C744 1.349 1_455 S
C733 C731 1.327 . S
C733 C749 1.429 . S
C733 H755 0.950 . S
C734 H730 0.949 . S
C734 C742 1.574 . S
C734 C750 1.368 . S
H735 C743 0.950 . S
H736 C741 0.950 . S
H737 C742 0.949 . S
H738 C744 0.950 . S
H739 C745 0.950 . S
H740 C746 0.949 . S
C741 H736 0.950 . S
C741 C743 1.327 1_545 S
C741 C747 1.429 . S
C742 C734 1.574 . S
C742 H737 0.949 . S
C742 C748 1.368 . S
C743 C727 1.349 . S
C743 H735 0.950 . S
C743 C741 1.327 1_565 S
C744 C732 1.349 1_655 S
C744 H738 0.950 . S
C744 C745 1.327 . S
C745 H739 0.950 . S
C745 C744 1.327 . S
C745 C749 1.429 . S
C746 C729 1.574 . S
C746 H740 0.949 . S
C746 C750 1.368 . S
C747 C728 1.429 . S
C747 C741 1.429 . S
C747 C748 1.523 . S
C748 C729 1.368 . S
C748 C742 1.368 . S
C748 C747 1.523 . S
C749 C733 1.429 . S
C749 C745 1.429 . S
C749 C750 1.523 . S
C750 C734 1.368 . S
C750 C746 1.368 . S
C750 C749 1.523 . S
H751 C726 0.950 . S
H752 C728 0.950 . S
H753 C729 0.949 . S
H754 C731 0.951 1_455 S
H755 C733 0.950 . S
C756 C757 1.349 . S
C756 C758 1.327 . S
C756 H781 0.950 . S
C757 C756 1.349 . S
C757 C773 1.349 . S
C758 C756 1.327 . S
C758 C777 1.429 . S
C758 H782 0.950 . S
C759 C776 1.574 . S
C759 C778 1.368 . S
C759 H783 0.949 . S
H760 C764 0.949 . S
C761 C762 1.349 1_565 S
C761 C763 1.327 . S
C761 H784 0.950 1_565 S
C762 C761 1.349 1_545 S
C762 C774 1.349 1_545 S
C763 C761 1.327 . S
C763 C779 1.429 . S
C763 H785 0.950 . S
C764 H760 0.949 . S
C764 C772 1.574 . S
C764 C780 1.368 . S
H765 C773 0.950 . S
H766 C771 0.950 . S
H767 C772 0.949 . S
H768 C774 0.950 . S
H769 C775 0.950 . S
H770 C776 0.949 . S
C771 H766 0.950 . S
C771 C773 1.327 . S
C771 C777 1.429 . S
C772 C764 1.574 . S
C772 H767 0.949 . S
C772 C778 1.368 . S
C773 C757 1.349 . S
C773 H765 0.950 . S
C773 C771 1.327 . S
C774 C762 1.349 1_565 S
C774 H768 0.950 . S
C774 C775 1.327 . S
C775 H769 0.950 . S
C775 C774 1.327 . S
C775 C779 1.429 . S
C776 C759 1.574 . S
C776 H770 0.949 . S
C776 C780 1.368 . S
C777 C758 1.429 . S
C777 C771 1.429 . S
C777 C778 1.523 . S
C778 C759 1.368 . S
C778 C772 1.368 . S
C778 C777 1.523 . S
C779 C763 1.429 . S
C779 C775 1.429 . S
C779 C780 1.523 . S
C780 C764 1.368 . S
C780 C776 1.368 . S
C780 C779 1.523 . S
H781 C756 0.950 . S
H782 C758 0.950 . S
H783 C759 0.949 . S
H784 C761 0.950 1_545 S
H785 C763 0.950 . S
C786 C787 1.349 . S
C786 C788 1.327 . S
C786 H811 0.950 . S
C787 C786 1.349 . S
C787 C803 1.349 . S
C788 C786 1.327 . S
C788 C807 1.429 . S
C788 H812 0.950 . S
C789 C806 1.574 . S
C789 C808 1.368 . S
C789 H813 0.949 . S
H790 C794 0.949 . S
C791 C792 1.349 . S
C791 C793 1.327 1_455 S
C791 H814 0.950 . S
C792 C791 1.349 . S
C792 C804 1.349 1_455 S
C793 C791 1.327 1_655 S
C793 C809 1.429 . S
C793 H815 0.950 . S
C794 H790 0.949 . S
C794 C802 1.574 . S
C794 C810 1.368 . S
H795 C803 0.950 . S
H796 C801 0.950 . S
H797 C802 0.949 . S
H798 C804 0.950 . S
H799 C805 0.950 . S
H800 C806 0.949 . S
C801 H796 0.950 . S
C801 C803 1.327 . S
C801 C807 1.429 . S
C802 C794 1.574 . S
C802 H797 0.949 . S
C802 C808 1.368 1_556 S
C803 C787 1.349 . S
C803 H795 0.950 . S
C803 C801 1.327 . S
C804 C792 1.349 1_655 S
C804 H798 0.950 . S
C804 C805 1.327 . S
C805 H799 0.950 . S
C805 C804 1.327 . S
C805 C809 1.429 . S
C806 C789 1.574 . S
C806 H800 0.949 . S
C806 C810 1.368 1_554 S
C807 C788 1.429 . S
C807 C801 1.429 . S
C807 C808 1.523 . S
C808 C789 1.368 . S
C808 C802 1.368 1_554 S
C808 C807 1.523 . S
C809 C793 1.429 . S
C809 C805 1.429 . S
C809 C810 1.523 . S
C810 C794 1.368 . S
C810 C806 1.368 1_556 S
C810 C809 1.523 . S
H811 C786 0.950 . S
H812 C788 0.950 . S
H813 C789 0.949 . S
H814 C791 0.950 . S
H815 C793 0.950 . S
C816 C817 1.349 1_455 S
C816 C818 1.327 . S
C816 H841 0.950 . S
C817 C816 1.349 1_655 S
C817 C833 1.349 1_655 S
C818 C816 1.327 . S
C818 C837 1.429 . S
C818 H842 0.950 . S
C819 C836 1.574 . S
C819 C838 1.368 . S
C819 H843 0.949 . S
H820 C824 0.949 . S
C821 C822 1.349 . S
C821 C823 1.327 1_545 S
C821 H844 0.950 . S
C822 C821 1.349 . S
C822 C834 1.349 1_545 S
C823 C821 1.327 1_565 S
C823 C839 1.429 . S
C823 H845 0.950 . S
C824 H820 0.949 . S
C824 C832 1.574 . S
C824 C840 1.368 . S
H825 C833 0.950 1_655 S
H826 C831 0.950 . S
H827 C832 0.949 . S
H828 C834 0.950 . S
H829 C835 0.950 . S
H830 C836 0.949 . S
C831 H826 0.950 . S
C831 C833 1.327 . S
C831 C837 1.429 . S
C832 C824 1.574 . S
C832 H827 0.949 . S
C832 C838 1.368 . S
C833 C817 1.349 1_455 S
C833 H825 0.950 1_455 S
C833 C831 1.327 . S
C834 C822 1.349 1_565 S
C834 H828 0.950 . S
C834 C835 1.327 . S
C835 H829 0.950 . S
C835 C834 1.327 . S
C835 C839 1.429 . S
C836 C819 1.574 . S
C836 H830 0.949 . S
C836 C840 1.368 . S
C837 C818 1.429 . S
C837 C831 1.429 . S
C837 C838 1.523 . S
C838 C819 1.368 . S
C838 C832 1.368 . S
C838 C837 1.523 . S
C839 C823 1.429 . S
C839 C835 1.429 . S
C839 C840 1.523 . S
C840 C824 1.368 . S
C840 C836 1.368 . S
C840 C839 1.523 . S
H841 C816 0.950 . S
H842 C818 0.950 . S
H843 C819 0.949 . S
H844 C821 0.950 . S
H845 C823 0.950 . S
C846 C847 1.349 . S
C846 C848 1.327 1_565 S
C846 H871 0.950 . S
C847 C846 1.349 . S
C847 C863 1.349 1_565 S
C848 C846 1.327 1_545 S
C848 C867 1.429 . S
C848 H872 0.950 . S
C849 C866 1.574 . S
C849 C868 1.368 . S
C849 H873 0.949 . S
H850 C854 0.949 . S
C851 C852 1.349 . S
C851 C853 1.327 . S
C851 H874 0.950 . S
C852 C851 1.349 . S
C852 C864 1.349 . S
C853 C851 1.327 . S
C853 C869 1.429 . S
C853 H875 0.950 . S
C854 H850 0.949 . S
C854 C862 1.574 . S
C854 C870 1.368 . S
H855 C863 0.950 . S
H856 C861 0.950 . S
H857 C862 0.949 . S
H858 C864 0.950 . S
H859 C865 0.950 . S
H860 C866 0.949 . S
C861 H856 0.950 . S
C861 C863 1.327 . S
C861 C867 1.429 . S
C862 C854 1.574 . S
C862 H857 0.949 . S
C862 C868 1.368 . S
C863 C847 1.349 1_545 S
C863 H855 0.950 . S
C863 C861 1.327 . S
C864 C852 1.349 . S
C864 H858 0.950 . S
C864 C865 1.327 . S
C865 H859 0.950 . S
C865 C864 1.327 . S
C865 C869 1.429 . S
C866 C849 1.574 . S
C866 H860 0.949 . S
C866 C870 1.368 . S
C867 C848 1.429 . S
C867 C861 1.429 . S
C867 C868 1.523 . S
C868 C849 1.368 . S
C868 C862 1.368 . S
C868 C867 1.523 . S
C869 C853 1.429 . S
C869 C865 1.429 . S
C869 C870 1.523 . S
C870 C854 1.368 . S
C870 C866 1.368 . S
C870 C869 1.523 . S
H871 C846 0.950 . S
H872 C848 0.950 . S
H873 C849 0.949 . S
H874 C851 0.950 . S
H875 C853 0.950 . S
C157 C43 1.536 . S
C162 C10 1.536 . S
C187 C17 1.535 . S
C192 C56 1.535 . S
C217 C75 1.536 . S
C222 C36 1.536 . S
C247 C82 1.536 . S
C252 C121 1.536 . S
C277 C134 1.536 . S
C282 C101 1.536 . S
C307 C114 1.535 . S
C312 C147 1.535 . S
C337 C108 1.691 . S
C342 C4 1.691 . S
C367 C23 1.691 . S
C372 C127 1.691 . S
C397 C30 1.691 . S
C402 C140 1.691 . S
C427 C49 1.691 . S
C432 C153 1.691 . S
C457 C88 1.691 . S
C462 C62 1.691 . S
C487 C95 1.691 . S
C492 C69 1.691 . S
C517 C94 1.192 . S
C522 C3 1.192 . S
C547 C18 1.192 . S
C552 C107 1.192 . S
C577 C29 1.192 . S
C582 C122 1.192 . S
C607 C44 1.192 . S
C612 C135 1.192 . S
C637 C148 1.192 . S
C642 C57 1.192 . S
C667 C68 1.192 . S
C672 C83 1.192 . S
C697 C133 1.381 . S
C702 C5 1.381 . S
C727 C146 1.381 . S
C732 C16 1.381 . S
C757 C81 1.381 . S
C762 C31 1.381 . S
C787 C42 1.381 . S
C792 C96 1.381 . S
C817 C55 1.381 . S
C822 C109 1.381 . S
C847 C70 1.381 . S
C852 C120 1.381 . S
