# Generated by pormake.
# Topology uoh, (4)-cn, num edge types: 1
# Building blocks:
#     Node 0, Type 0, BuildingBlock: ICAMEG_clean_sbu_1, # of connection points: 4
#     Node 1, Type 0, BuildingBlock: ICAMEG_clean_sbu_1, # of connection points: 4
#     Node 2, Type 0, BuildingBlock: ICAMEG_clean_sbu_1, # of connection points: 4
#     Node 3, Type 0, BuildingBlock: ICAMEG_clean_sbu_1, # of connection points: 4
#     Node 4, Type 0, BuildingBlock: ICAMEG_clean_sbu_1, # of connection points: 4
#     Node 5, Type 0, BuildingBlock: ICAMEG_clean_sbu_1, # of connection points: 4
#     Node 6, Type 0, BuildingBlock: ICAMEG_clean_sbu_1, # of connection points: 4
#     Node 7, Type 0, BuildingBlock: ICAMEG_clean_sbu_1, # of connection points: 4
#     Node 8, Type 0, BuildingBlock: ICAMEG_clean_sbu_1, # of connection points: 4
#     Node 9, Type 0, BuildingBlock: ICAMEG_clean_sbu_1, # of connection points: 4
#     Node 10, Type 0, BuildingBlock: ICAMEG_clean_sbu_1, # of connection points: 4
#     Node 11, Type 0, BuildingBlock: ICAMEG_clean_sbu_1, # of connection points: 4
#     Node 12, Type 0, BuildingBlock: ICAMEG_clean_sbu_1, # of connection points: 4
#     Node 13, Type 0, BuildingBlock: ICAMEG_clean_sbu_1, # of connection points: 4
#     Node 14, Type 0, BuildingBlock: ICAMEG_clean_sbu_1, # of connection points: 4
#     Node 15, Type 0, BuildingBlock: ICAMEG_clean_sbu_1, # of connection points: 4
#     Node 16, Type 0, BuildingBlock: ICAMEG_clean_sbu_1, # of connection points: 4
#     Node 17, Type 0, BuildingBlock: ICAMEG_clean_sbu_1, # of connection points: 4
#     Node 18, Type 0, BuildingBlock: ICAMEG_clean_sbu_1, # of connection points: 4
#     Node 19, Type 0, BuildingBlock: ICAMEG_clean_sbu_1, # of connection points: 4
#     Node 20, Type 0, BuildingBlock: ICAMEG_clean_sbu_1, # of connection points: 4
#     Node 21, Type 0, BuildingBlock: ICAMEG_clean_sbu_1, # of connection points: 4
#     Node 22, Type 0, BuildingBlock: ICAMEG_clean_sbu_1, # of connection points: 4
#     Node 23, Type 0, BuildingBlock: ICAMEG_clean_sbu_1, # of connection points: 4
#     Node 24, Type 0, BuildingBlock: ICAMEG_clean_sbu_1, # of connection points: 4
#     Node 25, Type 0, BuildingBlock: ICAMEG_clean_sbu_1, # of connection points: 4
#     Node 26, Type 0, BuildingBlock: ICAMEG_clean_sbu_1, # of connection points: 4
#     Node 27, Type 0, BuildingBlock: ICAMEG_clean_sbu_1, # of connection points: 4
#     Node 28, Type 0, BuildingBlock: ICAMEG_clean_sbu_1, # of connection points: 4
#     Node 29, Type 0, BuildingBlock: ICAMEG_clean_sbu_1, # of connection points: 4
#     Node 30, Type 0, BuildingBlock: ICAMEG_clean_sbu_1, # of connection points: 4
#     Node 31, Type 0, BuildingBlock: ICAMEG_clean_sbu_1, # of connection points: 4
#     Node 32, Type 0, BuildingBlock: ICAMEG_clean_sbu_1, # of connection points: 4
#     Node 33, Type 0, BuildingBlock: ICAMEG_clean_sbu_1, # of connection points: 4
#     Node 34, Type 0, BuildingBlock: ICAMEG_clean_sbu_1, # of connection points: 4
#     Node 35, Type 0, BuildingBlock: ICAMEG_clean_sbu_1, # of connection points: 4
#     Edge 36, Type (0, 0), BuildingBlock: UVAHIK_clean_linker_0, # of connection points: 2
#     Edge 37, Type (0, 0), BuildingBlock: UVAHIK_clean_linker_0, # of connection points: 2
#     Edge 38, Type (0, 0), BuildingBlock: UVAHIK_clean_linker_0, # of connection points: 2
#     Edge 39, Type (0, 0), BuildingBlock: UVAHIK_clean_linker_0, # of connection points: 2
#     Edge 40, Type (0, 0), BuildingBlock: UVAHIK_clean_linker_0, # of connection points: 2
#     Edge 41, Type (0, 0), BuildingBlock: UVAHIK_clean_linker_0, # of connection points: 2
#     Edge 42, Type (0, 0), BuildingBlock: UVAHIK_clean_linker_0, # of connection points: 2
#     Edge 43, Type (0, 0), BuildingBlock: UVAHIK_clean_linker_0, # of connection points: 2
#     Edge 44, Type (0, 0), BuildingBlock: UVAHIK_clean_linker_0, # of connection points: 2
#     Edge 45, Type (0, 0), BuildingBlock: UVAHIK_clean_linker_0, # of connection points: 2
#     Edge 46, Type (0, 0), BuildingBlock: UVAHIK_clean_linker_0, # of connection points: 2
#     Edge 47, Type (0, 0), BuildingBlock: UVAHIK_clean_linker_0, # of connection points: 2
#     Edge 48, Type (0, 0), BuildingBlock: UVAHIK_clean_linker_0, # of connection points: 2
#     Edge 49, Type (0, 0), BuildingBlock: UVAHIK_clean_linker_0, # of connection points: 2
#     Edge 50, Type (0, 0), BuildingBlock: UVAHIK_clean_linker_0, # of connection points: 2
#     Edge 51, Type (0, 0), BuildingBlock: UVAHIK_clean_linker_0, # of connection points: 2
#     Edge 52, Type (0, 0), BuildingBlock: UVAHIK_clean_linker_0, # of connection points: 2
#     Edge 53, Type (0, 0), BuildingBlock: UVAHIK_clean_linker_0, # of connection points: 2
#     Edge 54, Type (0, 0), BuildingBlock: UVAHIK_clean_linker_0, # of connection points: 2
#     Edge 55, Type (0, 0), BuildingBlock: UVAHIK_clean_linker_0, # of connection points: 2
#     Edge 56, Type (0, 0), BuildingBlock: UVAHIK_clean_linker_0, # of connection points: 2
#     Edge 57, Type (0, 0), BuildingBlock: UVAHIK_clean_linker_0, # of connection points: 2
#     Edge 58, Type (0, 0), BuildingBlock: UVAHIK_clean_linker_0, # of connection points: 2
#     Edge 59, Type (0, 0), BuildingBlock: UVAHIK_clean_linker_0, # of connection points: 2
#     Edge 60, Type (0, 0), BuildingBlock: UVAHIK_clean_linker_0, # of connection points: 2
#     Edge 61, Type (0, 0), BuildingBlock: UVAHIK_clean_linker_0, # of connection points: 2
#     Edge 62, Type (0, 0), BuildingBlock: UVAHIK_clean_linker_0, # of connection points: 2
#     Edge 63, Type (0, 0), BuildingBlock: UVAHIK_clean_linker_0, # of connection points: 2
#     Edge 64, Type (0, 0), BuildingBlock: UVAHIK_clean_linker_0, # of connection points: 2
#     Edge 65, Type (0, 0), BuildingBlock: UVAHIK_clean_linker_0, # of connection points: 2
#     Edge 66, Type (0, 0), BuildingBlock: UVAHIK_clean_linker_0, # of connection points: 2
#     Edge 67, Type (0, 0), BuildingBlock: UVAHIK_clean_linker_0, # of connection points: 2
#     Edge 68, Type (0, 0), BuildingBlock: UVAHIK_clean_linker_0, # of connection points: 2
#     Edge 69, Type (0, 0), BuildingBlock: UVAHIK_clean_linker_0, # of connection points: 2
#     Edge 70, Type (0, 0), BuildingBlock: UVAHIK_clean_linker_0, # of connection points: 2
#     Edge 71, Type (0, 0), BuildingBlock: UVAHIK_clean_linker_0, # of connection points: 2
#     Edge 72, Type (0, 0), BuildingBlock: UVAHIK_clean_linker_0, # of connection points: 2
#     Edge 73, Type (0, 0), BuildingBlock: UVAHIK_clean_linker_0, # of connection points: 2
#     Edge 74, Type (0, 0), BuildingBlock: UVAHIK_clean_linker_0, # of connection points: 2
#     Edge 75, Type (0, 0), BuildingBlock: UVAHIK_clean_linker_0, # of connection points: 2
#     Edge 76, Type (0, 0), BuildingBlock: UVAHIK_clean_linker_0, # of connection points: 2
#     Edge 77, Type (0, 0), BuildingBlock: UVAHIK_clean_linker_0, # of connection points: 2
#     Edge 78, Type (0, 0), BuildingBlock: UVAHIK_clean_linker_0, # of connection points: 2
#     Edge 79, Type (0, 0), BuildingBlock: UVAHIK_clean_linker_0, # of connection points: 2
#     Edge 80, Type (0, 0), BuildingBlock: UVAHIK_clean_linker_0, # of connection points: 2
#     Edge 81, Type (0, 0), BuildingBlock: UVAHIK_clean_linker_0, # of connection points: 2
#     Edge 82, Type (0, 0), BuildingBlock: UVAHIK_clean_linker_0, # of connection points: 2
#     Edge 83, Type (0, 0), BuildingBlock: UVAHIK_clean_linker_0, # of connection points: 2
#     Edge 84, Type (0, 0), BuildingBlock: UVAHIK_clean_linker_0, # of connection points: 2
#     Edge 85, Type (0, 0), BuildingBlock: UVAHIK_clean_linker_0, # of connection points: 2
#     Edge 86, Type (0, 0), BuildingBlock: UVAHIK_clean_linker_0, # of connection points: 2
#     Edge 87, Type (0, 0), BuildingBlock: UVAHIK_clean_linker_0, # of connection points: 2
#     Edge 88, Type (0, 0), BuildingBlock: UVAHIK_clean_linker_0, # of connection points: 2
#     Edge 89, Type (0, 0), BuildingBlock: UVAHIK_clean_linker_0, # of connection points: 2
#     Edge 90, Type (0, 0), BuildingBlock: UVAHIK_clean_linker_0, # of connection points: 2
#     Edge 91, Type (0, 0), BuildingBlock: UVAHIK_clean_linker_0, # of connection points: 2
#     Edge 92, Type (0, 0), BuildingBlock: UVAHIK_clean_linker_0, # of connection points: 2
#     Edge 93, Type (0, 0), BuildingBlock: UVAHIK_clean_linker_0, # of connection points: 2
#     Edge 94, Type (0, 0), BuildingBlock: UVAHIK_clean_linker_0, # of connection points: 2
#     Edge 95, Type (0, 0), BuildingBlock: UVAHIK_clean_linker_0, # of connection points: 2
#     Edge 96, Type (0, 0), BuildingBlock: UVAHIK_clean_linker_0, # of connection points: 2
#     Edge 97, Type (0, 0), BuildingBlock: UVAHIK_clean_linker_0, # of connection points: 2
#     Edge 98, Type (0, 0), BuildingBlock: UVAHIK_clean_linker_0, # of connection points: 2
#     Edge 99, Type (0, 0), BuildingBlock: UVAHIK_clean_linker_0, # of connection points: 2
#     Edge 100, Type (0, 0), BuildingBlock: UVAHIK_clean_linker_0, # of connection points: 2
#     Edge 101, Type (0, 0), BuildingBlock: UVAHIK_clean_linker_0, # of connection points: 2
#     Edge 102, Type (0, 0), BuildingBlock: UVAHIK_clean_linker_0, # of connection points: 2
#     Edge 103, Type (0, 0), BuildingBlock: UVAHIK_clean_linker_0, # of connection points: 2
#     Edge 104, Type (0, 0), BuildingBlock: UVAHIK_clean_linker_0, # of connection points: 2
#     Edge 105, Type (0, 0), BuildingBlock: UVAHIK_clean_linker_0, # of connection points: 2
#     Edge 106, Type (0, 0), BuildingBlock: UVAHIK_clean_linker_0, # of connection points: 2
#     Edge 107, Type (0, 0), BuildingBlock: UVAHIK_clean_linker_0, # of connection points: 2
# Relax obj value: 0.038
# Max RMSD: 0.079
# Mean RMSD: 0.078
data_MOF--net-uoh--node1-ICAMEG_clean_sbu_1--edge1-UVAHIK_clean_linker_0
_symmetry_space_group_name_H-M    P1
_symmetry_Int_Tables_number       1
_symmetry_cell_setting            triclinic
loop_
_symmetry_equiv_pos_as_xyz
'x, y, z'
_cell_length_a     120.60337
_cell_length_b     120.59889
_cell_length_c     38.424486
_cell_angle_alpha  89.990702
_cell_angle_beta   90.002677
_cell_angle_gamma 119.9927
loop_
_atom_site_label
_atom_site_type_symbol
_atom_site_fract_x
_atom_site_fract_y
_atom_site_fract_z
_atom_type_partial_charge
Co0 Co 0.24216 0.13157 0.2204 0.0
Co1 Co 0.25163 0.16324 0.20511 0.0
O2 O 0.24212 0.14735 0.23155 0.0
C3 C 0.24998 0.13559 0.29429 0.0
O4 O 0.25877 0.14733 0.28618 0.0
C5 C 0.22509 0.15872 0.20657 0.0
O6 O 0.22097 0.14663 0.19941 0.0
O7 O 0.2444 0.15415 0.16024 0.0
O8 O 0.24182 0.13463 0.16971 0.0
H9 H 0.27966 0.19093 0.10786 0.0
H10 H 0.22289 0.13069 0.26992 0.0
O11 O 0.24249 0.12808 0.27103 0.0
H12 H 0.19797 0.10218 0.17329 0.0
H13 H 0.22883 0.08514 0.23726 0.0
H14 H 0.25563 0.12419 0.16883 0.0
H15 H 0.22156 0.11323 0.17285 0.0
H16 H 0.22879 0.10517 0.25 0.0
O17 O 0.23703 0.16656 0.20981 0.0
H18 H 0.26776 0.17096 0.14159 0.0
H19 H 0.25537 0.18951 0.21264 0.0
H20 H 0.25589 0.10435 0.15504 0.0
H21 H 0.1993 0.11973 0.27158 0.0
H22 H 0.24241 0.08464 0.18938 0.0
H23 H 0.18668 0.10538 0.22295 0.0
O24 O 0.26124 0.14078 0.21886 0.0
H25 H 0.24947 0.17423 0.33011 0.0
H26 H 0.27797 0.1819 0.2299 0.0
H27 H 0.28718 0.19274 0.28566 0.0
H28 H 0.27289 0.18894 0.33625 0.0
H29 H 0.24067 0.16351 0.27394 0.0
H30 H 0.26704 0.20966 0.17951 0.0
H31 H 0.27934 0.21046 0.12679 0.0
O32 O 0.26648 0.1604 0.19974 0.0
C33 C 0.24209 0.14317 0.14964 0.0
C34 C 0.27436 0.19071 0.13084 0.0
C35 C 0.26727 0.20122 0.17103 0.0
N36 N 0.26095 0.17909 0.17918 0.0
C37 C 0.26764 0.17944 0.1501 0.0
C38 C 0.26065 0.18977 0.18964 0.0
C39 C 0.27417 0.20166 0.14146 0.0
C40 C 0.21746 0.12436 0.24884 0.0
N41 N 0.22359 0.12257 0.2214 0.0
C42 C 0.20411 0.11822 0.24985 0.0
C43 C 0.19703 0.11019 0.22252 0.0
C44 C 0.20336 0.1084 0.19464 0.0
C45 C 0.21673 0.11471 0.19449 0.0
C46 C 0.23472 0.09366 0.22206 0.0
C47 C 0.24968 0.11563 0.18376 0.0
C48 C 0.23476 0.10503 0.22919 0.0
N49 N 0.24212 0.11581 0.20998 0.0
C50 C 0.24989 0.10444 0.17589 0.0
C51 C 0.24234 0.09338 0.19519 0.0
C52 C 0.26935 0.15185 0.20738 0.0
C53 C 0.25579 0.17599 0.30823 0.0
C54 C 0.27169 0.18017 0.25181 0.0
C55 C 0.27696 0.18635 0.2833 0.0
C56 C 0.26893 0.18422 0.31167 0.0
N57 N 0.25879 0.17212 0.24863 0.0
C58 C 0.25086 0.16998 0.27633 0.0
Co59 Co 0.86851 0.11049 0.2209 0.0
Co60 Co 0.83684 0.08774 0.20709 0.0
O61 O 0.85307 0.0943 0.23215 0.0
C62 C 0.86458 0.11273 0.29559 0.0
O63 O 0.85236 0.10796 0.28887 0.0
C64 C 0.84209 0.06616 0.20547 0.0
O65 O 0.85411 0.07439 0.19845 0.0
O66 O 0.84556 0.09024 0.16131 0.0
O67 O 0.86505 0.10728 0.17032 0.0
H68 H 0.8078 0.08805 0.11382 0.0
H69 H 0.87045 0.09222 0.26863 0.0
O70 O 0.87239 0.11424 0.27136 0.0
H71 H 0.89842 0.09712 0.16926 0.0
H72 H 0.91474 0.14448 0.2356 0.0
H73 H 0.87482 0.13148 0.1706 0.0
H74 H 0.88677 0.10908 0.17113 0.0
H75 H 0.89518 0.12402 0.24868 0.0
O76 O 0.83405 0.06996 0.20973 0.0
H77 H 0.82814 0.09632 0.14585 0.0
H78 H 0.81094 0.06469 0.21522 0.0
H79 H 0.89418 0.15197 0.15649 0.0
H80 H 0.88202 0.08017 0.26797 0.0
H81 H 0.91433 0.15859 0.18911 0.0
H82 H 0.89609 0.08256 0.21795 0.0
O83 O 0.85885 0.11988 0.22149 0.0
H84 H 0.82711 0.07306 0.33141 0.0
H85 H 0.81804 0.0946 0.23567 0.0
H86 H 0.8076 0.0921 0.29259 0.0
H87 H 0.8121 0.08124 0.34094 0.0
H88 H 0.83743 0.07587 0.27414 0.0
H89 H 0.79044 0.05602 0.18376 0.0
H90 H 0.78876 0.06776 0.13275 0.0
O91 O 0.83912 0.10527 0.20373 0.0
C92 C 0.85638 0.09911 0.15038 0.0
C93 C 0.8084 0.08287 0.13607 0.0
C94 C 0.79866 0.06489 0.1753 0.0
N95 N 0.8207 0.08105 0.18252 0.0
C96 C 0.81988 0.08752 0.15436 0.0
C97 C 0.8103 0.06983 0.19296 0.0
C98 C 0.79772 0.07148 0.14669 0.0
C99 C 0.87666 0.09341 0.24696 0.0
N100 N 0.87798 0.10139 0.22004 0.0
C101 C 0.88314 0.08652 0.24665 0.0
C102 C 0.89102 0.08785 0.21855 0.0
C103 C 0.89232 0.09601 0.1912 0.0
C104 C 0.88568 0.10273 0.19237 0.0
C105 C 0.90603 0.14169 0.22114 0.0
C106 C 0.88357 0.13426 0.18476 0.0
C107 C 0.89492 0.13013 0.22847 0.0
N108 N 0.8839 0.12651 0.21019 0.0
C109 C 0.8945 0.14589 0.17672 0.0
C110 C 0.90579 0.1496 0.19505 0.0
C111 C 0.84758 0.11673 0.21138 0.0
C112 C 0.82504 0.07777 0.31051 0.0
C113 C 0.82008 0.08991 0.2566 0.0
C114 C 0.81411 0.08849 0.28876 0.0
C115 C 0.81664 0.08239 0.31586 0.0
N116 N 0.8283 0.08535 0.25155 0.0
C117 C 0.83081 0.07934 0.27799 0.0
Co118 Co 0.89058 0.75878 0.22008 0.0
Co119 Co 0.91294 0.74946 0.20567 0.0
O120 O 0.90625 0.75867 0.23218 0.0
C121 C 0.88665 0.75039 0.29311 0.0
O122 O 0.89099 0.74269 0.28479 0.0
C123 C 0.93506 0.77593 0.20992 0.0
O124 O 0.92754 0.78021 0.19925 0.0
O125 O 0.91172 0.75729 0.16115 0.0
O126 O 0.89469 0.7598 0.16974 0.0
H127 H 0.914 0.72275 0.10677 0.0
H128 H 0.90842 0.77735 0.27182 0.0
O129 O 0.88598 0.75766 0.2703 0.0
H130 H 0.90597 0.80359 0.17698 0.0
H131 H 0.85721 0.77182 0.23554 0.0
H132 H 0.87049 0.74603 0.16619 0.0
H133 H 0.89338 0.78002 0.17423 0.0
H134 H 0.87711 0.77172 0.24964 0.0
O135 O 0.93073 0.76395 0.21313 0.0
H136 H 0.90544 0.73419 0.1406 0.0
H137 H 0.93536 0.74561 0.21464 0.0
H138 H 0.85057 0.74594 0.15102 0.0
H139 H 0.9211 0.8009 0.27575 0.0
H140 H 0.84381 0.7589 0.18583 0.0
H141 H 0.91994 0.81418 0.22805 0.0
O142 O 0.88078 0.73976 0.21679 0.0
H143 H 0.92448 0.74982 0.33153 0.0
H144 H 0.90478 0.72277 0.22817 0.0
H145 H 0.90564 0.71275 0.28329 0.0
H146 H 0.91556 0.72631 0.33547 0.0
H147 H 0.92331 0.75943 0.27598 0.0
H148 H 0.9443 0.73438 0.18146 0.0
H149 H 0.93357 0.72279 0.12718 0.0
O150 O 0.89533 0.73471 0.19797 0.0
C151 C 0.90317 0.75973 0.15016 0.0
C152 C 0.91874 0.72773 0.13043 0.0
C153 C 0.93576 0.73427 0.17233 0.0
N154 N 0.91985 0.74049 0.17968 0.0
C155 C 0.91392 0.7342 0.14974 0.0
C156 C 0.93067 0.74064 0.19096 0.0
C157 C 0.92973 0.72777 0.14188 0.0
C158 C 0.90778 0.78307 0.25112 0.0
N159 N 0.90012 0.77732 0.22293 0.0
C160 C 0.91502 0.7964 0.25342 0.0
C161 C 0.91438 0.80384 0.22662 0.0
C162 C 0.90654 0.79791 0.19794 0.0
C163 C 0.89946 0.78455 0.1965 0.0
C164 C 0.86007 0.76616 0.22014 0.0
C165 C 0.86765 0.75176 0.18133 0.0
C166 C 0.87131 0.76604 0.22803 0.0
N167 N 0.87501 0.75896 0.20857 0.0
C168 C 0.85635 0.75164 0.17267 0.0
C169 C 0.85256 0.75891 0.19223 0.0
C170 C 0.88384 0.73177 0.20492 0.0
C171 C 0.92016 0.74381 0.30895 0.0
C172 C 0.90907 0.72873 0.25078 0.0
C173 C 0.90956 0.72301 0.2819 0.0
C174 C 0.91514 0.73062 0.31116 0.0
N175 N 0.91402 0.74168 0.24881 0.0
C176 C 0.91952 0.74921 0.27738 0.0
Co177 Co 0.13139 0.24318 0.27567 0.0
Co178 Co 0.16314 0.2523 0.28679 0.0
O179 O 0.14684 0.24284 0.26216 0.0
C180 C 0.13455 0.25 0.2014 0.0
O181 O 0.14672 0.25779 0.20791 0.0
C182 C 0.15885 0.2258 0.28341 0.0
O183 O 0.14719 0.22151 0.29527 0.0
O184 O 0.15473 0.24487 0.33225 0.0
O185 O 0.13542 0.24312 0.32584 0.0
H186 H 0.19233 0.27981 0.38251 0.0
H187 H 0.12945 0.22348 0.22607 0.0
O188 O 0.12697 0.24332 0.22567 0.0
H189 H 0.10247 0.19942 0.32602 0.0
H190 H 0.08487 0.23039 0.26572 0.0
H191 H 0.12529 0.2572 0.32871 0.0
H192 H 0.11373 0.22302 0.32532 0.0
H193 H 0.10447 0.22994 0.24985 0.0
O194 O 0.16636 0.23776 0.27925 0.0
H195 H 0.17185 0.2681 0.35088 0.0
H196 H 0.18927 0.25609 0.27503 0.0
H197 H 0.1059 0.25786 0.34561 0.0
H198 H 0.11827 0.19987 0.22555 0.0
H199 H 0.0855 0.24438 0.31401 0.0
H200 H 0.10469 0.18768 0.27584 0.0
O201 O 0.14084 0.26224 0.27611 0.0
H202 H 0.17247 0.25076 0.15996 0.0
H203 H 0.18133 0.27878 0.26196 0.0
H204 H 0.19138 0.28827 0.20561 0.0
H205 H 0.18699 0.27422 0.15412 0.0
H206 H 0.16251 0.24168 0.21671 0.0
H207 H 0.20991 0.2676 0.30599 0.0
H208 H 0.21154 0.27961 0.36007 0.0
O209 O 0.16043 0.26715 0.29455 0.0
C210 C 0.14411 0.24305 0.34452 0.0
C211 C 0.19175 0.27464 0.35892 0.0
C212 C 0.20161 0.26778 0.316 0.0
N213 N 0.17939 0.26149 0.31102 0.0
C214 C 0.18019 0.26802 0.34085 0.0
C215 C 0.18989 0.26125 0.29863 0.0
C216 C 0.20252 0.27452 0.34633 0.0
C217 C 0.12346 0.21823 0.24789 0.0
N218 N 0.12219 0.22461 0.27559 0.0
C219 C 0.1172 0.20487 0.24752 0.0
C220 C 0.10959 0.19804 0.27577 0.0
C221 C 0.10835 0.20462 0.30394 0.0
C222 C 0.11477 0.21799 0.30343 0.0
C223 C 0.09369 0.23628 0.27973 0.0
C224 C 0.11643 0.25125 0.31498 0.0
C225 C 0.10482 0.23609 0.27083 0.0
N226 N 0.11598 0.24345 0.28855 0.0
C227 C 0.10549 0.25169 0.3246 0.0
C228 C 0.09405 0.24413 0.30684 0.0
C229 C 0.15198 0.27021 0.2874 0.0
C230 C 0.17449 0.25697 0.18223 0.0
C231 C 0.17932 0.27261 0.23965 0.0
C232 C 0.18508 0.27803 0.20783 0.0
C233 C 0.18262 0.27014 0.17896 0.0
N234 N 0.17136 0.25968 0.24267 0.0
C235 C 0.16893 0.25188 0.21448 0.0
Co236 Co 0.75897 0.8881 0.27403 0.0
Co237 Co 0.74994 0.9108 0.28553 0.0
O238 O 0.7591 0.90377 0.26028 0.0
C239 C 0.75112 0.88382 0.20053 0.0
O240 O 0.74342 0.88826 0.20767 0.0
C241 C 0.77642 0.93294 0.28025 0.0
O242 O 0.78076 0.92561 0.29208 0.0
O243 O 0.75783 0.91009 0.33046 0.0
O244 O 0.75977 0.89263 0.32405 0.0
H245 H 0.72344 0.91314 0.38309 0.0
H246 H 0.77793 0.90547 0.2223 0.0
O247 O 0.75812 0.88312 0.22417 0.0
H248 H 0.80344 0.90334 0.31969 0.0
H249 H 0.77161 0.85427 0.26333 0.0
H250 H 0.74578 0.86849 0.32884 0.0
H251 H 0.77984 0.89099 0.32152 0.0
H252 H 0.7718 0.87416 0.24708 0.0
O253 O 0.76443 0.92849 0.27675 0.0
H254 H 0.7348 0.90415 0.35077 0.0
H255 H 0.7461 0.93311 0.2738 0.0
H256 H 0.74539 0.8486 0.34615 0.0
H257 H 0.80151 0.9179 0.21926 0.0
H258 H 0.75837 0.84138 0.31329 0.0
H259 H 0.81442 0.91691 0.26825 0.0
O260 O 0.73993 0.87849 0.27647 0.0
H261 H 0.7502 0.92086 0.15849 0.0
H262 H 0.72323 0.90243 0.26267 0.0
H263 H 0.71317 0.90265 0.207 0.0
H264 H 0.72669 0.91194 0.15441 0.0
H265 H 0.75984 0.92032 0.2146 0.0
H266 H 0.73494 0.94248 0.30543 0.0
H267 H 0.72346 0.93244 0.36042 0.0
O268 O 0.73515 0.89331 0.29451 0.0
C269 C 0.76 0.9015 0.3426 0.0
C270 C 0.72837 0.91758 0.3591 0.0
C271 C 0.73485 0.93405 0.31554 0.0
N272 N 0.74103 0.91805 0.31031 0.0
C273 C 0.7348 0.91251 0.34064 0.0
C274 C 0.74117 0.92873 0.29779 0.0
C275 C 0.7284 0.92842 0.34639 0.0
C276 C 0.78349 0.9049 0.24357 0.0
N277 N 0.77752 0.89746 0.27196 0.0
C278 C 0.79684 0.912 0.24177 0.0
C279 C 0.80407 0.91145 0.26929 0.0
C280 C 0.79792 0.90384 0.29816 0.0
C281 C 0.78455 0.89689 0.29909 0.0
C282 C 0.76593 0.85734 0.2779 0.0
C283 C 0.75152 0.86545 0.31454 0.0
C284 C 0.76599 0.86857 0.26878 0.0
N285 N 0.75889 0.87253 0.28718 0.0
C286 C 0.75123 0.85416 0.32441 0.0
C287 C 0.75851 0.85011 0.30594 0.0
C288 C 0.73205 0.88174 0.28799 0.0
C289 C 0.74421 0.91682 0.18125 0.0
C290 C 0.72917 0.90644 0.23989 0.0
C291 C 0.72343 0.90657 0.20845 0.0
C292 C 0.73102 0.91179 0.17896 0.0
N293 N 0.74212 0.91139 0.24193 0.0
C294 C 0.74962 0.91655 0.21314 0.0
Co295 Co 0.11282 0.86999 0.27362 0.0
Co296 Co 0.09014 0.8382 0.28606 0.0
O297 O 0.09687 0.85447 0.26113 0.0
C298 C 0.11604 0.86625 0.1994 0.0
O299 O 0.11132 0.85404 0.20614 0.0
C300 C 0.06833 0.8431 0.28536 0.0
O301 O 0.07635 0.85513 0.29294 0.0
O302 O 0.09195 0.84678 0.33174 0.0
O303 O 0.10893 0.86641 0.32394 0.0
H304 H 0.08958 0.80911 0.38052 0.0
H305 H 0.09503 0.87177 0.22371 0.0
O306 O 0.1172 0.874 0.22345 0.0
H307 H 0.09841 0.89952 0.32215 0.0
H308 H 0.1467 0.91635 0.26089 0.0
H309 H 0.13312 0.8764 0.32628 0.0
H310 H 0.11058 0.88808 0.32225 0.0
H311 H 0.12653 0.89671 0.2462 0.0
O312 O 0.07235 0.83521 0.28154 0.0
H313 H 0.09807 0.82951 0.34864 0.0
H314 H 0.06741 0.81219 0.27629 0.0
H315 H 0.1533 0.89585 0.34202 0.0
H316 H 0.08279 0.88313 0.22238 0.0
H317 H 0.1602 0.91601 0.30921 0.0
H318 H 0.08441 0.89709 0.27192 0.0
O319 O 0.12238 0.86049 0.27457 0.0
H320 H 0.07712 0.82869 0.16054 0.0
H321 H 0.09763 0.81965 0.25901 0.0
H322 H 0.09598 0.80941 0.20223 0.0
H323 H 0.08565 0.8139 0.15251 0.0
H324 H 0.07908 0.83882 0.2177 0.0
H325 H 0.05853 0.79162 0.30756 0.0
H326 H 0.06968 0.78998 0.36 0.0
O327 O 0.10769 0.84065 0.2913 0.0
C328 C 0.10052 0.85765 0.34323 0.0
C329 C 0.08466 0.80969 0.35765 0.0
C330 C 0.06723 0.79988 0.31673 0.0
N331 N 0.08329 0.82201 0.3105 0.0
C332 C 0.08944 0.82121 0.33944 0.0
C333 C 0.07228 0.81156 0.29918 0.0
C334 C 0.07349 0.79897 0.34614 0.0
C335 C 0.09589 0.87793 0.24519 0.0
N336 N 0.10356 0.8793 0.27294 0.0
C337 C 0.08889 0.88429 0.24437 0.0
C338 C 0.08978 0.89211 0.2722 0.0
C339 C 0.09763 0.89347 0.3004 0.0
C340 C 0.10448 0.88694 0.30036 0.0
C341 C 0.14378 0.90764 0.27543 0.0
C342 C 0.13602 0.88516 0.31202 0.0
C343 C 0.13238 0.89648 0.26719 0.0
N344 N 0.1286 0.88545 0.28556 0.0
C345 C 0.14748 0.89613 0.32099 0.0
C346 C 0.15135 0.90744 0.30255 0.0
C347 C 0.1192 0.84921 0.28463 0.0
C348 C 0.08161 0.82663 0.18204 0.0
C349 C 0.09316 0.82169 0.23748 0.0
C350 C 0.09222 0.81584 0.20541 0.0
C351 C 0.08641 0.81835 0.17753 0.0
N352 N 0.08842 0.8298 0.2417 0.0
C353 C 0.08269 0.83229 0.21451 0.0
Co354 Co 0.75885 0.87083 0.77414 0.0
Co355 Co 0.74996 0.83911 0.78549 0.0
O356 O 0.75903 0.85532 0.76026 0.0
C357 C 0.75085 0.8672 0.70076 0.0
O358 O 0.7432 0.85506 0.70797 0.0
C359 C 0.77648 0.84361 0.7801 0.0
O360 O 0.78077 0.85525 0.79204 0.0
O361 O 0.75786 0.84771 0.83042 0.0
O362 O 0.75981 0.86712 0.8241 0.0
H363 H 0.72362 0.81015 0.88305 0.0
H364 H 0.77772 0.87247 0.722 0.0
O365 O 0.75787 0.87493 0.72433 0.0
H366 H 0.80341 0.90018 0.81902 0.0
H367 H 0.77129 0.91724 0.76352 0.0
H368 H 0.74577 0.8772 0.82934 0.0
H369 H 0.77982 0.88888 0.82128 0.0
H370 H 0.77153 0.89758 0.7471 0.0
O371 O 0.76451 0.83602 0.77655 0.0
H372 H 0.73487 0.83053 0.8508 0.0
H373 H 0.74627 0.81303 0.7736 0.0
H374 H 0.74533 0.89666 0.84682 0.0
H375 H 0.8013 0.88368 0.71853 0.0
H376 H 0.75816 0.91686 0.8138 0.0
H377 H 0.8143 0.89763 0.76733 0.0
O378 O 0.73982 0.86134 0.77699 0.0
H379 H 0.75018 0.82941 0.65837 0.0
H380 H 0.72326 0.82068 0.76274 0.0
H381 H 0.71319 0.81041 0.70709 0.0
H382 H 0.72669 0.81474 0.6544 0.0
H383 H 0.75983 0.83958 0.71447 0.0
H384 H 0.73522 0.79248 0.80515 0.0
H385 H 0.72374 0.79094 0.86023 0.0
O386 O 0.73512 0.84172 0.79466 0.0
C387 C 0.76006 0.85848 0.84258 0.0
C388 C 0.72855 0.81069 0.85903 0.0
C389 C 0.73508 0.80078 0.81533 0.0
N390 N 0.74114 0.82295 0.81023 0.0
C391 C 0.73491 0.82219 0.84061 0.0
C392 C 0.74134 0.81245 0.79762 0.0
C393 C 0.72864 0.79992 0.84623 0.0
C394 C 0.78332 0.87862 0.74319 0.0
N395 N 0.7774 0.88007 0.77171 0.0
C396 C 0.79666 0.8849 0.74114 0.0
C397 C 0.80395 0.89271 0.76855 0.0
C398 C 0.79785 0.89414 0.79757 0.0
C399 C 0.78448 0.88769 0.79874 0.0
C400 C 0.76568 0.9085 0.77816 0.0
C401 C 0.75143 0.88598 0.81497 0.0
C402 C 0.76576 0.89734 0.76894 0.0
N403 N 0.75875 0.88629 0.78743 0.0
C404 C 0.75112 0.89695 0.82493 0.0
C405 C 0.75831 0.90828 0.80638 0.0
C406 C 0.73198 0.85018 0.78846 0.0
C407 C 0.7442 0.82742 0.68117 0.0
C408 C 0.72919 0.82266 0.73992 0.0
C409 C 0.72344 0.81678 0.70849 0.0
C410 C 0.73102 0.81921 0.67895 0.0
N411 N 0.74213 0.8307 0.7419 0.0
C412 C 0.74962 0.83311 0.71305 0.0
Co413 Co 0.13051 0.88834 0.77457 0.0
Co414 Co 0.16228 0.91089 0.78678 0.0
O415 O 0.14621 0.90385 0.76091 0.0
C416 C 0.13462 0.88355 0.70202 0.0
O417 O 0.14668 0.88795 0.71011 0.0
C418 C 0.15799 0.93302 0.7803 0.0
O419 O 0.14625 0.92569 0.79163 0.0
O420 O 0.1535 0.91032 0.83128 0.0
O421 O 0.13389 0.8932 0.82443 0.0
H422 H 0.19065 0.91334 0.88577 0.0
H423 H 0.1295 0.90546 0.7209 0.0
O424 O 0.12675 0.88305 0.72483 0.0
H425 H 0.10126 0.90425 0.81543 0.0
H426 H 0.08404 0.85473 0.76225 0.0
H427 H 0.12349 0.86909 0.83072 0.0
H428 H 0.11229 0.89173 0.81974 0.0
H429 H 0.10395 0.87441 0.74611 0.0
O430 O 0.16557 0.92858 0.77743 0.0
H431 H 0.17044 0.90434 0.85275 0.0
H432 H 0.1885 0.93312 0.77551 0.0
H433 H 0.10376 0.84941 0.84795 0.0
H434 H 0.11857 0.91805 0.71538 0.0
H435 H 0.08385 0.84212 0.8136 0.0
H436 H 0.10436 0.91752 0.76292 0.0
O437 O 0.13975 0.87859 0.77906 0.0
H438 H 0.17261 0.9206 0.65983 0.0
H439 H 0.18064 0.90238 0.76531 0.0
H440 H 0.19112 0.9024 0.71018 0.0
H441 H 0.18714 0.91158 0.65693 0.0
H442 H 0.16224 0.92026 0.71542 0.0
H443 H 0.20888 0.94249 0.80782 0.0
H444 H 0.21006 0.93256 0.86331 0.0
O445 O 0.15947 0.8934 0.7964 0.0
C446 C 0.14256 0.902 0.84307 0.0
C447 C 0.19027 0.91774 0.86157 0.0
C448 C 0.2005 0.93411 0.81785 0.0
N449 N 0.17831 0.91814 0.81212 0.0
C450 C 0.17886 0.91266 0.84272 0.0
C451 C 0.18892 0.92878 0.79971 0.0
C452 C 0.20115 0.92852 0.84897 0.0
C453 C 0.12323 0.90509 0.74155 0.0
N454 N 0.12148 0.89782 0.77052 0.0
C455 C 0.11711 0.91228 0.73834 0.0
C456 C 0.10915 0.91199 0.76505 0.0
C457 C 0.10742 0.90455 0.79452 0.0
C458 C 0.11371 0.89751 0.79686 0.0
C459 C 0.09264 0.85783 0.77747 0.0
C460 C 0.11484 0.86601 0.81577 0.0
C461 C 0.10396 0.86894 0.76841 0.0
N462 N 0.11484 0.87294 0.78763 0.0
C463 C 0.10371 0.85485 0.82559 0.0
C464 C 0.09254 0.85076 0.80629 0.0
C465 C 0.15088 0.88182 0.79066 0.0
C466 C 0.17446 0.91661 0.68287 0.0
C467 C 0.17882 0.90634 0.74224 0.0
C468 C 0.18481 0.90636 0.71111 0.0
C469 C 0.18259 0.91152 0.68125 0.0
N470 N 0.17086 0.91135 0.74363 0.0
C471 C 0.16865 0.91644 0.71447 0.0
Co472 Co 0.11228 0.24195 0.77559 0.0
Co473 Co 0.08969 0.25109 0.78831 0.0
O474 O 0.09669 0.24205 0.76233 0.0
C475 C 0.11693 0.25075 0.70289 0.0
O476 O 0.11263 0.25849 0.71114 0.0
C477 C 0.06761 0.22463 0.78277 0.0
O478 O 0.075 0.2203 0.7942 0.0
O479 O 0.09048 0.24303 0.83288 0.0
O480 O 0.10764 0.24064 0.82564 0.0
H481 H 0.08751 0.27721 0.88714 0.0
H482 H 0.09498 0.22361 0.7226 0.0
O483 O 0.11737 0.24332 0.72565 0.0
H484 H 0.09665 0.19696 0.81753 0.0
H485 H 0.14592 0.22916 0.76259 0.0
H486 H 0.13179 0.25446 0.83099 0.0
H487 H 0.10913 0.22052 0.82118 0.0
H488 H 0.12613 0.22927 0.747 0.0
O489 O 0.072 0.23661 0.7795 0.0
H490 H 0.09646 0.26599 0.85398 0.0
H491 H 0.06734 0.25493 0.77759 0.0
H492 H 0.15159 0.25454 0.84766 0.0
H493 H 0.08241 0.20007 0.71775 0.0
H494 H 0.15877 0.24182 0.81335 0.0
H495 H 0.08318 0.18659 0.7655 0.0
O496 O 0.12199 0.26096 0.7796 0.0
H497 H 0.07952 0.25136 0.66158 0.0
H498 H 0.098 0.27789 0.76645 0.0
H499 H 0.09773 0.28817 0.71125 0.0
H500 H 0.08842 0.27488 0.65831 0.0
H501 H 0.0801 0.24148 0.71724 0.0
H502 H 0.05802 0.26596 0.81006 0.0
H503 H 0.06815 0.27725 0.86519 0.0
O504 O 0.1072 0.26584 0.79736 0.0
C505 C 0.0989 0.24053 0.84452 0.0
C506 C 0.08303 0.27236 0.8631 0.0
C507 C 0.06647 0.26603 0.81987 0.0
N508 N 0.08248 0.25989 0.81377 0.0
C509 C 0.08807 0.26601 0.84417 0.0
C510 C 0.07177 0.25978 0.80164 0.0
C511 C 0.07216 0.27236 0.85079 0.0
C512 C 0.09545 0.2178 0.74333 0.0
N513 N 0.10283 0.22343 0.77204 0.0
C514 C 0.08828 0.20448 0.7405 0.0
C515 C 0.0887 0.19692 0.76733 0.0
C516 C 0.09625 0.20273 0.79654 0.0
C517 C 0.10327 0.21608 0.79849 0.0
C518 C 0.14288 0.23472 0.77779 0.0
C519 C 0.13482 0.24884 0.81606 0.0
C520 C 0.1317 0.23483 0.76905 0.0
N521 N 0.12776 0.24178 0.78824 0.0
C522 C 0.14605 0.24895 0.82556 0.0
C523 C 0.15008 0.24182 0.80628 0.0
C524 C 0.11877 0.26886 0.79122 0.0
C525 C 0.08357 0.25725 0.68449 0.0
C526 C 0.09398 0.27204 0.74351 0.0
C527 C 0.09382 0.27791 0.71234 0.0
C528 C 0.08858 0.27045 0.68266 0.0
N529 N 0.08904 0.25909 0.74511 0.0
C530 C 0.08387 0.2517 0.71612 0.0
Co531 Co 0.86943 0.75902 0.72061 0.0
Co532 Co 0.83775 0.74989 0.70594 0.0
O533 O 0.8538 0.7594 0.7318 0.0
C534 C 0.86502 0.7517 0.79454 0.0
O535 O 0.85289 0.74418 0.78686 0.0
C536 C 0.84281 0.77665 0.70582 0.0
O537 O 0.85489 0.78055 0.69912 0.0
O538 O 0.84669 0.75656 0.66064 0.0
O539 O 0.86632 0.75939 0.66999 0.0
H540 H 0.80938 0.7213 0.61051 0.0
H541 H 0.87075 0.77845 0.7702 0.0
O542 O 0.87296 0.75851 0.7711 0.0
H543 H 0.89932 0.80305 0.6733 0.0
H544 H 0.91567 0.77154 0.73686 0.0
H545 H 0.87635 0.74518 0.66902 0.0
H546 H 0.88791 0.77944 0.67287 0.0
H547 H 0.89589 0.77202 0.74981 0.0
O548 O 0.83481 0.76477 0.70942 0.0
H549 H 0.82951 0.73317 0.64357 0.0
H550 H 0.81172 0.74677 0.71351 0.0
H551 H 0.89595 0.74449 0.65501 0.0
H552 H 0.88206 0.80206 0.77184 0.0
H553 H 0.9158 0.75773 0.68906 0.0
H554 H 0.89644 0.81451 0.72307 0.0
O555 O 0.85996 0.73996 0.71932 0.0
H556 H 0.82723 0.75357 0.83042 0.0
H557 H 0.8189 0.72392 0.73266 0.0
H558 H 0.80815 0.71541 0.78895 0.0
H559 H 0.81229 0.73028 0.83831 0.0
H560 H 0.83786 0.76167 0.77376 0.0
H561 H 0.79142 0.73513 0.68104 0.0
H562 H 0.79015 0.72223 0.62921 0.0
O563 O 0.84019 0.73476 0.70171 0.0
C564 C 0.85767 0.75889 0.64995 0.0
C565 C 0.8098 0.72685 0.63311 0.0
C566 C 0.79973 0.73463 0.67267 0.0
N567 N 0.82176 0.74058 0.68058 0.0
C568 C 0.82116 0.73357 0.65198 0.0
C569 C 0.81125 0.74122 0.6909 0.0
C570 C 0.79902 0.72739 0.6436 0.0
C571 C 0.87709 0.78381 0.74907 0.0
N572 N 0.87872 0.77758 0.72157 0.0
C573 C 0.88343 0.79717 0.75006 0.0
C574 C 0.89148 0.80416 0.72266 0.0
C575 C 0.89309 0.79773 0.69471 0.0
C576 C 0.88658 0.78436 0.69457 0.0
C577 C 0.9071 0.76575 0.72178 0.0
C578 C 0.88497 0.75104 0.68381 0.0
C579 C 0.89586 0.76597 0.72902 0.0
N580 N 0.88501 0.75873 0.70997 0.0
C581 C 0.89603 0.75058 0.67582 0.0
C582 C 0.90716 0.758 0.69495 0.0
C583 C 0.84873 0.73183 0.7089 0.0
C584 C 0.82532 0.747 0.80908 0.0
C585 C 0.82078 0.73045 0.75403 0.0
C586 C 0.81464 0.72558 0.78583 0.0
C587 C 0.81696 0.73393 0.8135 0.0
N588 N 0.82897 0.74329 0.74989 0.0
C589 C 0.83127 0.75154 0.77689 0.0
Co590 Co 0.24211 0.11037 0.71908 0.0
Co591 Co 0.25221 0.08826 0.70875 0.0
O592 O 0.24228 0.09479 0.73245 0.0
C593 C 0.25019 0.11456 0.79252 0.0
O594 O 0.25767 0.10987 0.78521 0.0
C595 C 0.22552 0.06646 0.70725 0.0
O596 O 0.22161 0.07456 0.69973 0.0
O597 O 0.24615 0.09031 0.66218 0.0
O598 O 0.24104 0.10574 0.66904 0.0
H599 H 0.28242 0.0885 0.61829 0.0
H600 H 0.22368 0.09286 0.77162 0.0
O601 O 0.24324 0.11542 0.76901 0.0
H602 H 0.19718 0.09449 0.67625 0.0
H603 H 0.22893 0.14375 0.73134 0.0
H604 H 0.25455 0.12984 0.66357 0.0
H605 H 0.22074 0.10717 0.67318 0.0
H606 H 0.2292 0.12407 0.74725 0.0
O607 O 0.23738 0.07041 0.7118 0.0
H608 H 0.26993 0.09671 0.64842 0.0
H609 H 0.25536 0.06548 0.71916 0.0
H610 H 0.25447 0.14953 0.64657 0.0
H611 H 0.20015 0.08011 0.77595 0.0
H612 H 0.24159 0.1566 0.68058 0.0
H613 H 0.18673 0.08084 0.72796 0.0
O614 O 0.26117 0.12035 0.71572 0.0
H615 H 0.24691 0.07466 0.8341 0.0
H616 H 0.27784 0.09572 0.73872 0.0
H617 H 0.28562 0.09385 0.79656 0.0
H618 H 0.27011 0.08325 0.84473 0.0
H619 H 0.23955 0.07682 0.77592 0.0
H620 H 0.26761 0.05687 0.68961 0.0
H621 H 0.28131 0.06844 0.63887 0.0
O622 O 0.26723 0.10584 0.70499 0.0
C623 C 0.24258 0.0979 0.65024 0.0
C624 C 0.27651 0.08339 0.64042 0.0
C625 C 0.26819 0.06563 0.68042 0.0
N626 N 0.26198 0.08162 0.68562 0.0
C627 C 0.26944 0.08801 0.65763 0.0
C628 C 0.26125 0.07053 0.69699 0.0
C629 C 0.27587 0.07213 0.65196 0.0
C630 C 0.21791 0.09331 0.75078 0.0
N631 N 0.22358 0.10076 0.72219 0.0
C632 C 0.20459 0.08604 0.75331 0.0
C633 C 0.19707 0.08644 0.72636 0.0
C634 C 0.20292 0.09408 0.69732 0.0
C635 C 0.21627 0.10121 0.69565 0.0
C636 C 0.23456 0.14076 0.71628 0.0
C637 C 0.24886 0.13282 0.67836 0.0
C638 C 0.23477 0.12964 0.72521 0.0
N639 N 0.24181 0.12577 0.70619 0.0
C640 C 0.24888 0.14399 0.66867 0.0
C641 C 0.24166 0.14796 0.68779 0.0
C642 C 0.26968 0.11735 0.70868 0.0
C643 C 0.25376 0.07926 0.81329 0.0
C644 C 0.27103 0.09111 0.75956 0.0
C645 C 0.27549 0.09006 0.79224 0.0
C646 C 0.26678 0.08411 0.81925 0.0
N647 N 0.25824 0.08633 0.75391 0.0
C648 C 0.24964 0.08046 0.78025 0.0
Co649 Co 0.88987 0.13138 0.72107 0.0
Co650 Co 0.91247 0.163 0.70536 0.0
O651 O 0.90571 0.14717 0.73244 0.0
C652 C 0.88604 0.1365 0.79368 0.0
O653 O 0.89074 0.14856 0.78498 0.0
C654 C 0.93418 0.158 0.70843 0.0
O655 O 0.92609 0.14587 0.70217 0.0
O656 O 0.9106 0.15368 0.66093 0.0
O657 O 0.89402 0.13396 0.67074 0.0
H658 H 0.91303 0.19054 0.60646 0.0
H659 H 0.90745 0.13076 0.77392 0.0
O660 O 0.88521 0.12836 0.77131 0.0
H661 H 0.90476 0.10116 0.68145 0.0
H662 H 0.85609 0.08526 0.73902 0.0
H663 H 0.86984 0.1238 0.66692 0.0
H664 H 0.89247 0.11242 0.67697 0.0
H665 H 0.87612 0.10524 0.75231 0.0
O666 O 0.93025 0.166 0.71073 0.0
H667 H 0.90451 0.17068 0.64093 0.0
H668 H 0.93527 0.18911 0.71261 0.0
H669 H 0.84979 0.10399 0.65254 0.0
H670 H 0.91981 0.1196 0.7796 0.0
H671 H 0.8428 0.08453 0.68873 0.0
H672 H 0.91854 0.10471 0.73308 0.0
O673 O 0.88023 0.14073 0.71656 0.0
H674 H 0.92552 0.17451 0.83023 0.0
H675 H 0.90509 0.18204 0.7288 0.0
H676 H 0.90679 0.19321 0.784 0.0
H677 H 0.91708 0.18948 0.83521 0.0
H678 H 0.92352 0.16346 0.7746 0.0
H679 H 0.94417 0.20914 0.67875 0.0
H680 H 0.933 0.20995 0.62534 0.0
O681 O 0.89493 0.16049 0.69923 0.0
C682 C 0.90228 0.1425 0.65067 0.0
C683 C 0.91796 0.19032 0.62975 0.0
C684 C 0.93545 0.20075 0.67029 0.0
N685 N 0.91934 0.17876 0.67887 0.0
C686 C 0.91317 0.17911 0.64942 0.0
C687 C 0.93038 0.18937 0.68931 0.0
C688 C 0.92918 0.2012 0.64033 0.0
C689 C 0.90675 0.12419 0.75374 0.0
N690 N 0.89921 0.1222 0.72524 0.0
C691 C 0.91381 0.11795 0.75703 0.0
C692 C 0.91311 0.10961 0.73089 0.0
C693 C 0.90539 0.10762 0.7019 0.0
C694 C 0.89848 0.11405 0.69947 0.0
C695 C 0.85905 0.09366 0.72301 0.0
C696 C 0.8669 0.11535 0.68266 0.0
C697 C 0.87037 0.10501 0.73044 0.0
N698 N 0.8742 0.11564 0.71023 0.0
C699 C 0.85552 0.10417 0.67445 0.0
C700 C 0.8516 0.09326 0.69478 0.0
C701 C 0.8834 0.15191 0.70555 0.0
C702 C 0.92105 0.17624 0.80808 0.0
C703 C 0.90955 0.18033 0.75098 0.0
C704 C 0.91051 0.18671 0.78215 0.0
C705 C 0.91629 0.18463 0.81087 0.0
N706 N 0.91425 0.17214 0.74844 0.0
C707 C 0.91994 0.17005 0.77647 0.0
Co708 Co 0.90993 0.46522 0.5544 0.0
Co709 Co 0.91896 0.49688 0.53948 0.0
O710 O 0.90975 0.48094 0.566 0.0
C711 C 0.91808 0.46994 0.62772 0.0
O712 O 0.92542 0.48208 0.61983 0.0
C713 C 0.89226 0.49195 0.54189 0.0
O714 O 0.88819 0.47984 0.53531 0.0
O715 O 0.91169 0.48775 0.49471 0.0
O716 O 0.90879 0.4681 0.50403 0.0
H717 H 0.94638 0.52481 0.44172 0.0
H718 H 0.89125 0.46425 0.60617 0.0
O719 O 0.91113 0.46191 0.60465 0.0
H720 H 0.86521 0.43515 0.51179 0.0
H721 H 0.89756 0.41903 0.57095 0.0
H722 H 0.92288 0.458 0.50083 0.0
H723 H 0.88879 0.44649 0.50881 0.0
H724 H 0.89734 0.43891 0.58455 0.0
O725 O 0.90419 0.4999 0.54457 0.0
H726 H 0.93486 0.50481 0.47554 0.0
H727 H 0.92229 0.52299 0.54734 0.0
H728 H 0.92329 0.4383 0.48615 0.0
H729 H 0.86769 0.45301 0.61036 0.0
H730 H 0.91056 0.41863 0.52134 0.0
H731 H 0.85451 0.43837 0.56288 0.0
O732 O 0.92895 0.47464 0.55111 0.0
H733 H 0.91687 0.50793 0.66447 0.0
H734 H 0.94528 0.51578 0.56392 0.0
H735 H 0.9545 0.52672 0.61954 0.0
H736 H 0.94026 0.52284 0.67031 0.0
H737 H 0.90806 0.49709 0.60845 0.0
H738 H 0.93358 0.54315 0.51414 0.0
H739 H 0.94578 0.54416 0.46099 0.0
O740 O 0.934 0.49438 0.53361 0.0
C741 C 0.90904 0.47667 0.48414 0.0
C742 C 0.94113 0.5245 0.46489 0.0
C743 C 0.93393 0.53479 0.50551 0.0
N744 N 0.92799 0.51276 0.5135 0.0
C745 C 0.93462 0.51321 0.48419 0.0
C746 C 0.92753 0.52334 0.52415 0.0
C747 C 0.94078 0.53535 0.4757 0.0
C748 C 0.88558 0.4578 0.58558 0.0
N749 N 0.89139 0.45599 0.55737 0.0
C750 C 0.87224 0.4515 0.58802 0.0
C751 C 0.86485 0.4433 0.56134 0.0
C752 C 0.87085 0.4415 0.53265 0.0
C753 C 0.88421 0.44797 0.53107 0.0
C754 C 0.90312 0.42753 0.55537 0.0
C755 C 0.91725 0.44946 0.51613 0.0
C756 C 0.90306 0.43882 0.56299 0.0
N757 N 0.91001 0.44957 0.54332 0.0
C758 C 0.91755 0.43834 0.50775 0.0
C759 C 0.91042 0.42731 0.52753 0.0
C760 C 0.93697 0.48583 0.5402 0.0
C761 C 0.92317 0.50973 0.64251 0.0
C762 C 0.93902 0.514 0.58591 0.0
C763 C 0.9443 0.52025 0.61732 0.0
C764 C 0.9363 0.51808 0.64578 0.0
N765 N 0.92613 0.50583 0.5829 0.0
C766 C 0.91823 0.50367 0.61068 0.0
Co767 Co 0.53619 0.44472 0.55279 0.0
Co768 Co 0.5044 0.4225 0.53891 0.0
O769 O 0.52047 0.4289 0.56447 0.0
C770 C 0.53228 0.44839 0.62666 0.0
O771 O 0.52045 0.44509 0.61853 0.0
C772 C 0.50892 0.40046 0.53948 0.0
O773 O 0.52097 0.4084 0.53185 0.0
O774 O 0.51319 0.42436 0.49356 0.0
O775 O 0.53284 0.44123 0.50215 0.0
H776 H 0.47607 0.42277 0.44341 0.0
H777 H 0.53734 0.42643 0.60216 0.0
O778 O 0.53989 0.44863 0.60336 0.0
H779 H 0.5653 0.4298 0.50424 0.0
H780 H 0.58269 0.4778 0.56799 0.0
H781 H 0.54329 0.46551 0.50121 0.0
H782 H 0.55424 0.44234 0.50438 0.0
H783 H 0.56273 0.45777 0.58137 0.0
O784 O 0.50112 0.40458 0.5433 0.0
H785 H 0.49626 0.43087 0.47611 0.0
H786 H 0.47818 0.39998 0.54753 0.0
H787 H 0.56307 0.48558 0.48678 0.0
H788 H 0.54832 0.4138 0.60323 0.0
H789 H 0.58296 0.49184 0.52029 0.0
H790 H 0.56238 0.41542 0.55395 0.0
O791 O 0.52698 0.45459 0.55171 0.0
H792 H 0.49425 0.40939 0.66422 0.0
H793 H 0.48593 0.4302 0.56515 0.0
H794 H 0.47548 0.42861 0.62157 0.0
H795 H 0.47962 0.41813 0.67159 0.0
H796 H 0.50458 0.41128 0.6074 0.0
H797 H 0.45782 0.39148 0.51543 0.0
H798 H 0.45667 0.40293 0.46304 0.0
O799 O 0.50719 0.44017 0.53385 0.0
C800 C 0.5241 0.43299 0.48243 0.0
C801 C 0.47644 0.41771 0.46625 0.0
C802 C 0.46621 0.40014 0.50665 0.0
N803 N 0.48838 0.41595 0.51382 0.0
C804 C 0.48784 0.42227 0.48492 0.0
C805 C 0.47777 0.40498 0.52467 0.0
C806 C 0.46557 0.40657 0.47726 0.0
C807 C 0.54355 0.42728 0.5808 0.0
N808 N 0.54519 0.43516 0.55333 0.0
C809 C 0.5497 0.42007 0.58147 0.0
C810 C 0.55757 0.42096 0.55379 0.0
C811 C 0.5592 0.42902 0.52587 0.0
C812 C 0.55289 0.43608 0.52606 0.0
C813 C 0.5741 0.47517 0.55314 0.0
C814 C 0.55193 0.46813 0.51576 0.0
C815 C 0.56276 0.46384 0.56063 0.0
N816 N 0.55189 0.46042 0.54186 0.0
C817 C 0.56309 0.47953 0.50754 0.0
C818 C 0.57424 0.48304 0.52637 0.0
C819 C 0.51581 0.45161 0.54099 0.0
C820 C 0.49235 0.41394 0.64259 0.0
C821 C 0.4878 0.42566 0.58681 0.0
C822 C 0.48184 0.42476 0.61868 0.0
C823 C 0.48415 0.41887 0.64672 0.0
N824 N 0.49581 0.42079 0.58295 0.0
C825 C 0.49813 0.415 0.61032 0.0
Co826 Co 0.55624 0.09202 0.55195 0.0
Co827 Co 0.57861 0.08254 0.54001 0.0
O828 O 0.57183 0.09192 0.56529 0.0
C829 C 0.5519 0.08396 0.62529 0.0
O830 O 0.55606 0.07606 0.61756 0.0
C831 C 0.60086 0.10896 0.54421 0.0
O832 O 0.59349 0.1133 0.53267 0.0
O833 O 0.57774 0.09025 0.4949 0.0
O834 O 0.56061 0.09274 0.50178 0.0
H835 H 0.58016 0.05542 0.44298 0.0
H836 H 0.57386 0.11085 0.60355 0.0
O837 O 0.55142 0.09121 0.602 0.0
H838 H 0.572 0.13659 0.50641 0.0
H839 H 0.52292 0.10528 0.56384 0.0
H840 H 0.53642 0.07903 0.49753 0.0
H841 H 0.55936 0.11301 0.50461 0.0
H842 H 0.54271 0.10517 0.57947 0.0
O843 O 0.5964 0.09698 0.54797 0.0
H844 H 0.57149 0.06707 0.47531 0.0
H845 H 0.60084 0.07854 0.55116 0.0
H846 H 0.51663 0.07894 0.48084 0.0
H847 H 0.58659 0.13442 0.60656 0.0
H848 H 0.50976 0.09213 0.51411 0.0
H849 H 0.58572 0.14745 0.55769 0.0
O850 O 0.5464 0.07297 0.54939 0.0
H851 H 0.5892 0.08326 0.66679 0.0
H852 H 0.57014 0.05589 0.56361 0.0
H853 H 0.57052 0.04603 0.61949 0.0
H854 H 0.58012 0.05975 0.67158 0.0
H855 H 0.58851 0.09272 0.61049 0.0
H856 H 0.60989 0.06708 0.51951 0.0
H857 H 0.5995 0.05538 0.46507 0.0
O858 O 0.56102 0.06783 0.5318 0.0
C859 C 0.56924 0.0926 0.48296 0.0
C860 C 0.58475 0.06046 0.46672 0.0
C861 C 0.60145 0.06702 0.50964 0.0
N862 N 0.5856 0.0734 0.51521 0.0
C863 C 0.57987 0.06705 0.48519 0.0
C864 C 0.5963 0.07351 0.52741 0.0
C865 C 0.59561 0.06045 0.47911 0.0
C866 C 0.57335 0.11646 0.58235 0.0
N867 N 0.56583 0.11057 0.55404 0.0
C868 C 0.58061 0.1298 0.58412 0.0
C869 C 0.58014 0.1371 0.55667 0.0
C870 C 0.57244 0.13102 0.52788 0.0
C871 C 0.56533 0.11766 0.52698 0.0
C872 C 0.52583 0.09951 0.5491 0.0
C873 C 0.53354 0.08486 0.512 0.0
C874 C 0.53701 0.0994 0.55786 0.0
N875 N 0.54077 0.09219 0.53924 0.0
C876 C 0.5223 0.08474 0.50248 0.0
C877 C 0.51845 0.09214 0.52118 0.0
C878 C 0.54949 0.06493 0.53814 0.0
C879 C 0.58502 0.07719 0.64426 0.0
C880 C 0.57429 0.06192 0.58617 0.0
C881 C 0.57451 0.05629 0.61773 0.0
C882 C 0.57991 0.06399 0.64694 0.0
N883 N 0.57933 0.07488 0.58374 0.0
C884 C 0.58466 0.08249 0.61226 0.0
Co885 Co 0.79917 0.57652 0.60872 0.0
Co886 Co 0.83092 0.58593 0.6224 0.0
O887 O 0.81495 0.57669 0.59622 0.0
C888 C 0.80353 0.58501 0.53581 0.0
O889 O 0.81555 0.59274 0.54413 0.0
C890 C 0.82655 0.55947 0.61816 0.0
O891 O 0.81481 0.55523 0.62921 0.0
O892 O 0.822 0.57812 0.66707 0.0
O893 O 0.80237 0.57546 0.65896 0.0
H894 H 0.85896 0.61271 0.72082 0.0
H895 H 0.79841 0.55804 0.55662 0.0
O896 O 0.79559 0.57769 0.55859 0.0
H897 H 0.76994 0.53164 0.65162 0.0
H898 H 0.75271 0.56338 0.59409 0.0
H899 H 0.79187 0.58915 0.66308 0.0
H900 H 0.78087 0.55521 0.65458 0.0
H901 H 0.77272 0.56357 0.57951 0.0
O902 O 0.83421 0.57144 0.61472 0.0
H903 H 0.83887 0.60124 0.68739 0.0
H904 H 0.85716 0.58978 0.6128 0.0
H905 H 0.77204 0.58916 0.67874 0.0
H906 H 0.78759 0.5345 0.55247 0.0
H907 H 0.75228 0.57621 0.64412 0.0
H908 H 0.77326 0.52114 0.60025 0.0
O909 O 0.80835 0.59554 0.61219 0.0
H910 H 0.84173 0.58552 0.49625 0.0
H911 H 0.84935 0.61262 0.59966 0.0
H912 H 0.86005 0.62261 0.54434 0.0
H913 H 0.85628 0.60903 0.49214 0.0
H914 H 0.83113 0.57593 0.552 0.0
H915 H 0.87742 0.60105 0.64555 0.0
H916 H 0.87842 0.61266 0.69991 0.0
O917 O 0.82805 0.60068 0.63031 0.0
C918 C 0.81102 0.5756 0.6783 0.0
C919 C 0.85865 0.60772 0.69711 0.0
C920 C 0.86901 0.60116 0.6549 0.0
N921 N 0.84686 0.59493 0.64806 0.0
C922 C 0.84731 0.60123 0.67803 0.0
C923 C 0.8575 0.59477 0.6365 0.0
C924 C 0.86957 0.60767 0.68539 0.0
C925 C 0.79209 0.55229 0.57735 0.0
N926 N 0.79022 0.55799 0.6057 0.0
C927 C 0.78603 0.53896 0.57493 0.0
C928 C 0.77801 0.53147 0.60177 0.0
C929 C 0.77615 0.53736 0.63061 0.0
C930 C 0.78238 0.55071 0.63218 0.0
C931 C 0.76125 0.56905 0.60942 0.0
C932 C 0.78329 0.58343 0.64802 0.0
C933 C 0.77262 0.56921 0.60125 0.0
N934 N 0.78342 0.57628 0.62061 0.0
C935 C 0.7721 0.5835 0.65695 0.0
C936 C 0.76102 0.57624 0.6375 0.0
C937 C 0.81943 0.60356 0.62377 0.0
C938 C 0.84348 0.59153 0.51884 0.0
C939 C 0.84762 0.60665 0.57704 0.0
C940 C 0.85373 0.61236 0.54581 0.0
C941 C 0.85162 0.60473 0.51654 0.0
N942 N 0.83965 0.5937 0.5791 0.0
C943 C 0.83755 0.58615 0.55052 0.0
Co944 Co 0.42522 0.2224 0.60888 0.0
Co945 Co 0.41596 0.24489 0.62205 0.0
O946 O 0.42508 0.238 0.59589 0.0
C947 C 0.41667 0.21804 0.53594 0.0
O948 O 0.40902 0.22247 0.54385 0.0
C949 C 0.44238 0.26708 0.61635 0.0
O950 O 0.44681 0.25971 0.62722 0.0
O951 O 0.42403 0.24405 0.66658 0.0
O952 O 0.42648 0.22694 0.65895 0.0
H953 H 0.38969 0.24669 0.72106 0.0
H954 H 0.44357 0.23985 0.55612 0.0
O955 O 0.42391 0.21741 0.55893 0.0
H956 H 0.47021 0.23806 0.65085 0.0
H957 H 0.43816 0.18888 0.59538 0.0
H958 H 0.41274 0.20279 0.66407 0.0
H959 H 0.44665 0.22552 0.65443 0.0
H960 H 0.43799 0.20866 0.58004 0.0
O961 O 0.43038 0.26264 0.61351 0.0
H962 H 0.40102 0.23791 0.68766 0.0
H963 H 0.41198 0.26718 0.61177 0.0
H964 H 0.41272 0.18301 0.68049 0.0
H965 H 0.4671 0.25247 0.55134 0.0
H966 H 0.4255 0.17594 0.64603 0.0
H967 H 0.48059 0.25164 0.59899 0.0
O968 O 0.40622 0.21264 0.61275 0.0
H969 H 0.41576 0.25536 0.49553 0.0
H970 H 0.38916 0.23655 0.60013 0.0
H971 H 0.3789 0.23692 0.54498 0.0
H972 H 0.39223 0.24639 0.49218 0.0
H973 H 0.42561 0.25467 0.55112 0.0
H974 H 0.40086 0.27634 0.64449 0.0
H975 H 0.38956 0.26605 0.69948 0.0
O976 O 0.40126 0.22734 0.63083 0.0
C977 C 0.42656 0.23562 0.67801 0.0
C978 C 0.39455 0.25124 0.69708 0.0
C979 C 0.40083 0.26789 0.65413 0.0
N980 N 0.40708 0.25197 0.64769 0.0
C981 C 0.40095 0.24629 0.67802 0.0
C982 C 0.40714 0.26268 0.63576 0.0
C983 C 0.39449 0.26211 0.68498 0.0
C984 C 0.44938 0.23935 0.5768 0.0
N985 N 0.44375 0.23191 0.60542 0.0
C986 C 0.4627 0.24656 0.57402 0.0
C987 C 0.47026 0.2461 0.60079 0.0
C988 C 0.46444 0.23849 0.62991 0.0
C989 C 0.4511 0.23143 0.63182 0.0
C990 C 0.43258 0.19188 0.61064 0.0
C991 C 0.41839 0.19982 0.64907 0.0
C992 C 0.43242 0.20305 0.60204 0.0
N993 N 0.42544 0.20693 0.62132 0.0
C994 C 0.41831 0.18859 0.65844 0.0
C995 C 0.42547 0.18462 0.63907 0.0
C996 C 0.39828 0.21579 0.62447 0.0
C997 C 0.40985 0.25124 0.51838 0.0
C998 C 0.39502 0.24063 0.57725 0.0
C999 C 0.38916 0.24085 0.54611 0.0
C1000 C 0.39665 0.24618 0.5165 0.0
N1001 N 0.40798 0.24561 0.57889 0.0
C1002 C 0.41538 0.25087 0.54998 0.0
Co1003 Co 0.77877 0.20306 0.60817 0.0
Co1004 Co 0.75617 0.1713 0.62148 0.0
O1005 O 0.76284 0.18746 0.59603 0.0
C1006 C 0.78198 0.1991 0.53407 0.0
O1007 O 0.77726 0.1869 0.54105 0.0
C1008 C 0.73428 0.17609 0.62015 0.0
O1009 O 0.74226 0.18816 0.62739 0.0
O1010 O 0.75797 0.18005 0.66686 0.0
O1011 O 0.77493 0.19966 0.65855 0.0
H1012 H 0.75576 0.14265 0.71702 0.0
H1013 H 0.76092 0.20459 0.558 0.0
O1014 O 0.78313 0.2069 0.55793 0.0
H1015 H 0.76428 0.23267 0.65555 0.0
H1016 H 0.81254 0.24941 0.5943 0.0
H1017 H 0.79913 0.20972 0.66084 0.0
H1018 H 0.7765 0.22129 0.65618 0.0
H1019 H 0.7924 0.22968 0.58003 0.0
O1020 O 0.73834 0.16822 0.61677 0.0
H1021 H 0.76417 0.16291 0.68449 0.0
H1022 H 0.73348 0.14521 0.61235 0.0
H1023 H 0.81929 0.22926 0.67615 0.0
H1024 H 0.74862 0.21589 0.55615 0.0
H1025 H 0.82611 0.24929 0.64277 0.0
H1026 H 0.75023 0.23002 0.60524 0.0
O1027 O 0.78838 0.19361 0.60955 0.0
H1028 H 0.74309 0.16124 0.49613 0.0
H1029 H 0.76372 0.1527 0.59525 0.0
H1030 H 0.76207 0.14224 0.53885 0.0
H1031 H 0.75168 0.14647 0.4888 0.0
H1032 H 0.74505 0.1716 0.55292 0.0
H1033 H 0.72468 0.12478 0.64426 0.0
H1034 H 0.73588 0.1234 0.69693 0.0
O1035 O 0.77374 0.17383 0.6269 0.0
C1036 C 0.76655 0.19097 0.67807 0.0
C1037 C 0.75082 0.14312 0.69406 0.0
C1038 C 0.73337 0.1331 0.65325 0.0
N1039 N 0.74938 0.15522 0.64642 0.0
C1040 C 0.75555 0.15456 0.67548 0.0
C1041 C 0.73838 0.1447 0.63533 0.0
C1042 C 0.73966 0.13233 0.68279 0.0
C1043 C 0.76177 0.21082 0.57928 0.0
N1044 N 0.76946 0.21232 0.60708 0.0
C1045 C 0.75474 0.21715 0.57817 0.0
C1046 C 0.75563 0.22506 0.60575 0.0
C1047 C 0.7635 0.22654 0.634 0.0
C1048 C 0.77038 0.22005 0.63425 0.0
C1049 C 0.80966 0.24075 0.60909 0.0
C1050 C 0.80199 0.21842 0.64633 0.0
C1051 C 0.79827 0.22954 0.6011 0.0
N1052 N 0.79454 0.21859 0.61979 0.0
C1053 C 0.81344 0.22944 0.65505 0.0
C1054 C 0.81726 0.24068 0.63629 0.0
C1055 C 0.78524 0.18238 0.62005 0.0
C1056 C 0.7476 0.15929 0.51777 0.0
C1057 C 0.75923 0.15463 0.57358 0.0
C1058 C 0.75829 0.14865 0.54172 0.0
C1059 C 0.75245 0.15102 0.51366 0.0
N1060 N 0.75445 0.16273 0.57741 0.0
C1061 C 0.74869 0.16508 0.55003 0.0
Co1062 Co 0.42479 0.20285 0.10815 0.0
Co1063 Co 0.41591 0.17118 0.12177 0.0
O1064 O 0.42526 0.18732 0.09611 0.0
C1065 C 0.41765 0.19884 0.03398 0.0
O1066 O 0.41025 0.18663 0.0409 0.0
C1067 C 0.44264 0.17611 0.12005 0.0
O1068 O 0.4467 0.18819 0.12719 0.0
O1069 O 0.42292 0.18002 0.16702 0.0
O1070 O 0.42528 0.19951 0.15856 0.0
H1071 H 0.38798 0.14258 0.21783 0.0
H1072 H 0.44423 0.20451 0.05802 0.0
O1073 O 0.42424 0.20665 0.05789 0.0
H1074 H 0.46883 0.23275 0.15546 0.0
H1075 H 0.43702 0.2491 0.09409 0.0
H1076 H 0.41098 0.20939 0.16075 0.0
H1077 H 0.44522 0.22121 0.1561 0.0
H1078 H 0.4376 0.22946 0.07992 0.0
O1079 O 0.43072 0.1682 0.11686 0.0
H1080 H 0.39966 0.16281 0.18506 0.0
H1081 H 0.41265 0.14514 0.11278 0.0
H1082 H 0.41018 0.22885 0.17597 0.0
H1083 H 0.46784 0.21596 0.05615 0.0
H1084 H 0.42327 0.24889 0.14252 0.0
H1085 H 0.48029 0.23017 0.10518 0.0
O1086 O 0.40574 0.19327 0.10956 0.0
H1087 H 0.41873 0.16097 0.99643 0.0
H1088 H 0.38974 0.15243 0.09599 0.0
H1089 H 0.38084 0.14185 0.03975 0.0
H1090 H 0.39538 0.14609 0.98949 0.0
H1091 H 0.42721 0.17144 0.05306 0.0
H1092 H 0.40119 0.12475 0.14493 0.0
H1093 H 0.3887 0.12337 0.19779 0.0
O1094 O 0.40081 0.17361 0.12741 0.0
C1095 C 0.42512 0.19091 0.17815 0.0
C1096 C 0.39336 0.14305 0.19478 0.0
C1097 C 0.40078 0.13305 0.15389 0.0
N1098 N 0.40676 0.15513 0.14691 0.0
C1099 C 0.39997 0.15447 0.17607 0.0
C1100 C 0.40728 0.14463 0.13584 0.0
C1101 C 0.39377 0.13228 0.18354 0.0
C1102 C 0.44959 0.21078 0.07928 0.0
N1103 N 0.44336 0.21223 0.10705 0.0
C1104 C 0.46295 0.21719 0.07815 0.0
C1105 C 0.46993 0.22515 0.1057 0.0
C1106 C 0.46351 0.22659 0.13393 0.0
C1107 C 0.45014 0.22 0.13419 0.0
C1108 C 0.43129 0.24044 0.1089 0.0
C1109 C 0.41676 0.2181 0.14621 0.0
C1110 C 0.43157 0.22928 0.10096 0.0
N1111 N 0.42441 0.21832 0.11969 0.0
C1112 C 0.41624 0.22907 0.15489 0.0
C1113 C 0.42358 0.24031 0.13609 0.0
C1114 C 0.39775 0.18206 0.12039 0.0
C1115 C 0.4123 0.15902 0.01817 0.0
C1116 C 0.39613 0.15437 0.07422 0.0
C1117 C 0.39103 0.14832 0.04246 0.0
C1118 C 0.3992 0.15069 0.01427 0.0
N1119 N 0.40899 0.16252 0.07784 0.0
C1120 C 0.41706 0.16488 0.05034 0.0
Co1121 Co 0.79761 0.222 0.10889 0.0
Co1122 Co 0.82939 0.24437 0.12198 0.0
O1123 O 0.8134 0.23751 0.09579 0.0
C1124 C 0.80182 0.21749 0.03612 0.0
O1125 O 0.81388 0.22187 0.04416 0.0
C1126 C 0.82517 0.26654 0.1162 0.0
O1127 O 0.81341 0.25916 0.12733 0.0
O1128 O 0.82051 0.24364 0.16643 0.0
O1129 O 0.80088 0.22662 0.15891 0.0
H1130 H 0.85743 0.24622 0.22114 0.0
H1131 H 0.79686 0.23943 0.05576 0.0
O1132 O 0.79394 0.21693 0.05899 0.0
H1133 H 0.76847 0.23799 0.15017 0.0
H1134 H 0.75111 0.18865 0.09538 0.0
H1135 H 0.79035 0.20247 0.16435 0.0
H1136 H 0.77936 0.22533 0.15411 0.0
H1137 H 0.77112 0.20834 0.07994 0.0
O1138 O 0.83276 0.26213 0.11321 0.0
H1139 H 0.83732 0.23744 0.18774 0.0
H1140 H 0.85567 0.2666 0.1116 0.0
H1141 H 0.77053 0.18277 0.18086 0.0
H1142 H 0.78608 0.25216 0.05061 0.0
H1143 H 0.75072 0.17575 0.14625 0.0
H1144 H 0.77179 0.25152 0.0981 0.0
O1145 O 0.80676 0.21216 0.11309 0.0
H1146 H 0.84016 0.25469 0.99544 0.0
H1147 H 0.84772 0.23584 0.10035 0.0
H1148 H 0.85836 0.2361 0.04531 0.0
H1149 H 0.85462 0.24559 0.99236 0.0
H1150 H 0.82962 0.25412 0.05093 0.0
H1151 H 0.87596 0.27575 0.14431 0.0
H1152 H 0.87693 0.26551 0.19943 0.0
O1153 O 0.82646 0.2268 0.13103 0.0
C1154 C 0.80952 0.23529 0.1779 0.0
C1155 C 0.85713 0.25074 0.1971 0.0
C1156 C 0.86753 0.26733 0.15401 0.0
N1157 N 0.84534 0.25145 0.14764 0.0
C1158 C 0.84578 0.2458 0.17804 0.0
C1159 C 0.85601 0.26212 0.13564 0.0
C1160 C 0.86807 0.26157 0.18493 0.0
C1161 C 0.79056 0.239 0.07638 0.0
N1162 N 0.78869 0.23159 0.10511 0.0
C1163 C 0.78452 0.24628 0.07338 0.0
C1164 C 0.77652 0.24592 0.10006 0.0
C1165 C 0.77466 0.23834 0.12929 0.0
C1166 C 0.78087 0.23121 0.13142 0.0
C1167 C 0.75967 0.19162 0.1107 0.0
C1168 C 0.78175 0.19951 0.14929 0.0
C1169 C 0.77103 0.20275 0.10205 0.0
N1170 N 0.78186 0.2066 0.12141 0.0
C1171 C 0.77056 0.18833 0.15871 0.0
C1172 C 0.75946 0.18439 0.13926 0.0
C1173 C 0.81783 0.21526 0.12486 0.0
C1174 C 0.8419 0.25056 0.01836 0.0
C1175 C 0.846 0.23994 0.0774 0.0
C1176 C 0.85208 0.2401 0.04632 0.0
C1177 C 0.84999 0.24544 0.01663 0.0
N1178 N 0.83808 0.24499 0.07889 0.0
C1179 C 0.836 0.25026 0.0499 0.0
Co1180 Co 0.77854 0.57621 0.10816 0.0
Co1181 Co 0.75602 0.58543 0.12225 0.0
O1182 O 0.7626 0.57591 0.09656 0.0
C1183 C 0.78171 0.58372 0.0344 0.0
O1184 O 0.77716 0.59129 0.04215 0.0
C1185 C 0.73426 0.55871 0.12175 0.0
O1186 O 0.74235 0.55473 0.12865 0.0
O1187 O 0.75811 0.57865 0.16758 0.0
O1188 O 0.77487 0.57573 0.15869 0.0
H1189 H 0.75601 0.61388 0.21775 0.0
H1190 H 0.76057 0.55693 0.05802 0.0
O1191 O 0.78274 0.57682 0.05776 0.0
H1192 H 0.7641 0.53204 0.15488 0.0
H1193 H 0.81221 0.56357 0.09262 0.0
H1194 H 0.79911 0.58985 0.16035 0.0
H1195 H 0.77636 0.55564 0.15573 0.0
H1196 H 0.79203 0.56321 0.07918 0.0
O1197 O 0.7382 0.57061 0.11827 0.0
H1198 H 0.76432 0.60202 0.18488 0.0
H1199 H 0.73321 0.58868 0.11405 0.0
H1200 H 0.81931 0.59043 0.17486 0.0
H1201 H 0.74823 0.53333 0.05596 0.0
H1202 H 0.82598 0.57722 0.14087 0.0
H1203 H 0.74993 0.52073 0.10469 0.0
O1204 O 0.78818 0.59527 0.10978 0.0
H1205 H 0.7423 0.58204 -0.00262 0.0
H1206 H 0.76332 0.61147 0.09574 0.0
H1207 H 0.76135 0.62012 0.03939 0.0
H1208 H 0.75076 0.60536 0.98973 0.0
H1209 H 0.74459 0.57381 0.05411 0.0
H1210 H 0.7245 0.60032 0.14632 0.0
H1211 H 0.73595 0.61307 0.1985 0.0
O1212 O 0.77359 0.60051 0.12696 0.0
C1213 C 0.76667 0.57624 0.1785 0.0
C1214 C 0.75095 0.60839 0.19499 0.0
C1215 C 0.73325 0.60076 0.15493 0.0
N1216 N 0.74931 0.59474 0.14744 0.0
C1217 C 0.75563 0.60168 0.17623 0.0
C1218 C 0.73822 0.59417 0.13681 0.0
C1219 C 0.73969 0.60792 0.1842 0.0
C1220 C 0.76145 0.5515 0.07915 0.0
N1221 N 0.76922 0.55765 0.10687 0.0
C1222 C 0.7544 0.53815 0.07792 0.0
C1223 C 0.75534 0.53108 0.1053 0.0
C1224 C 0.76329 0.53742 0.13348 0.0
C1225 C 0.77018 0.55079 0.13386 0.0
C1226 C 0.80939 0.56935 0.10768 0.0
C1227 C 0.8019 0.58401 0.14559 0.0
C1228 C 0.79799 0.56919 0.10015 0.0
N1229 N 0.79434 0.57641 0.11917 0.0
C1230 C 0.81337 0.58441 0.15386 0.0
C1231 C 0.81711 0.577 0.13476 0.0
C1232 C 0.78507 0.6034 0.1201 0.0
C1233 C 0.7469 0.58856 0.01885 0.0
C1234 C 0.75874 0.60499 0.07423 0.0
C1235 C 0.75762 0.60994 0.04241 0.0
C1236 C 0.75167 0.60165 0.01456 0.0
N1237 N 0.75403 0.59214 0.07825 0.0
C1238 C 0.74817 0.58395 0.05108 0.0
Co1239 Co 0.53667 0.09215 0.05214 0.0
Co1240 Co 0.50486 0.08268 0.03991 0.0
O1241 O 0.52101 0.09213 0.06521 0.0
C1242 C 0.53302 0.0844 0.12572 0.0
O1243 O 0.52097 0.07645 0.11812 0.0
C1244 C 0.509 0.1091 0.04359 0.0
O1245 O 0.52071 0.11343 0.03209 0.0
O1246 O 0.51346 0.0903 0.99476 0.0
O1247 O 0.533 0.09263 0.00187 0.0
H1248 H 0.47625 0.05534 0.94307 0.0
H1249 H 0.53794 0.11124 0.10294 0.0
O1250 O 0.54071 0.09157 0.10228 0.0
H1251 H 0.56549 0.1365 0.00514 0.0
H1252 H 0.58326 0.10545 0.06423 0.0
H1253 H 0.54345 0.07886 -0.0015 0.0
H1254 H 0.55452 0.1129 0.00417 0.0
H1255 H 0.56338 0.10544 0.07951 0.0
O1256 O 0.50149 0.09713 0.04748 0.0
H1257 H 0.49655 0.06707 0.97545 0.0
H1258 H 0.47861 0.07868 0.05075 0.0
H1259 H 0.56313 0.07866 0.98217 0.0
H1260 H 0.54881 0.13482 0.10511 0.0
H1261 H 0.58322 0.09203 0.01515 0.0
H1262 H 0.56268 0.14761 0.0559 0.0
O1263 O 0.52745 0.0731 0.05028 0.0
H1264 H 0.49493 0.08367 0.16652 0.0
H1265 H 0.48668 0.05608 0.06386 0.0
H1266 H 0.47642 0.04633 0.11981 0.0
H1267 H 0.48051 0.06017 0.17164 0.0
H1268 H 0.5051 0.093 0.11015 0.0
H1269 H 0.45813 0.06715 0.01904 0.0
H1270 H 0.45685 0.05533 0.96486 0.0
O1271 O 0.50775 0.06795 0.03212 0.0
C1272 C 0.52427 0.09251 0.9829 0.0
C1273 C 0.47668 0.06043 0.9667 0.0
C1274 C 0.46651 0.06707 0.00931 0.0
N1275 N 0.48875 0.07348 0.01507 0.0
C1276 C 0.48814 0.06706 0.98519 0.0
C1277 C 0.47814 0.0736 0.02711 0.0
C1278 C 0.4658 0.06044 0.97892 0.0
C1279 C 0.54406 0.11674 0.08159 0.0
N1280 N 0.54565 0.11071 0.05356 0.0
C1281 C 0.55015 0.13009 0.08289 0.0
C1282 C 0.55791 0.13726 0.05525 0.0
C1283 C 0.55948 0.13103 0.02675 0.0
C1284 C 0.55322 0.11767 0.02632 0.0
C1285 C 0.57457 0.09961 0.04962 0.0
C1286 C 0.55218 0.08476 0.01283 0.0
C1287 C 0.56329 0.09954 0.05818 0.0
N1288 N 0.5523 0.09224 0.03971 0.0
C1289 C 0.56328 0.08458 0.00353 0.0
C1290 C 0.57454 0.09208 0.02207 0.0
C1291 C 0.51634 0.06504 0.03895 0.0
C1292 C 0.49304 0.07755 0.1441 0.0
C1293 C 0.48855 0.06216 0.08631 0.0
C1294 C 0.48268 0.05659 0.11791 0.0
C1295 C 0.48497 0.06436 0.14697 0.0
N1296 N 0.49645 0.07511 0.0837 0.0
C1297 C 0.49873 0.08278 0.11207 0.0
Co1298 Co 0.90894 0.44426 0.05434 0.0
Co1299 Co 0.9182 0.42179 0.0397 0.0
O1300 O 0.90871 0.42832 0.06575 0.0
C1301 C 0.91644 0.44732 0.12815 0.0
O1302 O 0.92389 0.44261 0.12061 0.0
C1303 C 0.89152 0.39992 0.04054 0.0
O1304 O 0.88745 0.40796 0.03378 0.0
O1305 O 0.91126 0.42384 0.99456 0.0
O1306 O 0.90832 0.44057 0.00386 0.0
H1307 H 0.94648 0.42192 0.94349 0.0
H1308 H 0.88979 0.42622 0.10466 0.0
O1309 O 0.90965 0.44847 0.10471 0.0
H1310 H 0.86464 0.42976 0.00856 0.0
H1311 H 0.89627 0.47788 0.0704 0.0
H1312 H 0.92238 0.46478 0.00191 0.0
H1313 H 0.88824 0.44206 0.0073 0.0
H1314 H 0.89599 0.45774 0.08377 0.0
O1315 O 0.90344 0.40394 0.04385 0.0
H1316 H 0.93461 0.43014 0.97673 0.0
H1317 H 0.9216 0.39905 0.04756 0.0
H1318 H 0.92286 0.48494 0.98748 0.0
H1319 H 0.8662 0.41383 0.10713 0.0
H1320 H 0.90974 0.49161 0.02185 0.0
H1321 H 0.85347 0.41553 0.05877 0.0
O1322 O 0.928 0.45394 0.05245 0.0
H1323 H 0.91517 0.40806 0.16445 0.0
H1324 H 0.94434 0.4292 0.06566 0.0
H1325 H 0.95315 0.42727 0.12177 0.0
H1326 H 0.93852 0.41662 0.17165 0.0
H1327 H 0.90677 0.41031 0.10796 0.0
H1328 H 0.93324 0.39043 0.01492 0.0
H1329 H 0.94584 0.40192 0.96256 0.0
O1330 O 0.93322 0.43939 0.03483 0.0
C1331 C 0.90875 0.43236 0.9839 0.0
C1332 C 0.94105 0.41685 0.96632 0.0
C1333 C 0.93361 0.39917 0.00639 0.0
N1334 N 0.92749 0.41514 0.01418 0.0
C1335 C 0.93434 0.42147 0.98529 0.0
C1336 C 0.92701 0.40408 0.02471 0.0
C1337 C 0.94068 0.40562 0.97702 0.0
C1338 C 0.88431 0.42711 0.0837 0.0
N1339 N 0.89038 0.4349 0.05596 0.0
C1340 C 0.87096 0.42003 0.08516 0.0
C1341 C 0.86382 0.42097 0.05799 0.0
C1342 C 0.87008 0.42894 0.02979 0.0
C1343 C 0.88345 0.43586 0.02918 0.0
C1344 C 0.90201 0.47507 0.05518 0.0
C1345 C 0.91658 0.46758 0.01685 0.0
C1346 C 0.9019 0.46368 0.06267 0.0
N1347 N 0.90908 0.46003 0.04344 0.0
C1348 C 0.91692 0.47902 0.00862 0.0
C1349 C 0.90956 0.48276 0.02794 0.0
C1350 C 0.93612 0.45086 0.04187 0.0
C1351 C 0.92164 0.41269 0.14288 0.0
C1352 C 0.93791 0.4246 0.08726 0.0
C1353 C 0.94296 0.4235 0.11895 0.0
C1354 C 0.93474 0.41751 0.14692 0.0
N1355 N 0.92504 0.41983 0.0835 0.0
C1356 C 0.91693 0.41393 0.11079 0.0
Co1357 Co 0.55715 0.4648 0.05178 0.0
Co1358 Co 0.579 0.49696 0.04081 0.0
O1359 O 0.57237 0.48072 0.06558 0.0
C1360 C 0.55196 0.46884 0.12408 0.0
O1361 O 0.55617 0.48085 0.11568 0.0
C1362 C 0.60124 0.49279 0.04421 0.0
O1363 O 0.5938 0.48109 0.03277 0.0
O1364 O 0.57805 0.48864 0.99515 0.0
O1365 O 0.56222 0.46826 0.00199 0.0
H1366 H 0.57991 0.52612 0.94602 0.0
H1367 H 0.57448 0.46456 0.10607 0.0
O1368 O 0.5517 0.461 0.10151 0.0
H1369 H 0.57421 0.43627 0.01299 0.0
H1370 H 0.52431 0.41808 0.06424 0.0
H1371 H 0.53815 0.45723 0.99477 0.0
H1372 H 0.56113 0.44668 0.00782 0.0
H1373 H 0.54362 0.43829 0.08064 0.0
O1374 O 0.59683 0.50036 0.04808 0.0
H1375 H 0.57147 0.50563 0.97739 0.0
H1376 H 0.60124 0.52315 0.05222 0.0
H1377 H 0.51885 0.43721 0.97727 0.0
H1378 H 0.58763 0.45426 0.11249 0.0
H1379 H 0.51181 0.41744 0.01213 0.0
H1380 H 0.58757 0.44003 0.06567 0.0
O1381 O 0.54695 0.47359 0.04657 0.0
H1382 H 0.58985 0.50623 0.16768 0.0
H1383 H 0.57041 0.51488 0.0659 0.0
H1384 H 0.57083 0.52479 0.12237 0.0
H1385 H 0.58061 0.52049 0.17376 0.0
H1386 H 0.58913 0.49642 0.1108 0.0
H1387 H 0.61006 0.54381 0.02151 0.0
H1388 H 0.59935 0.5454 0.96807 0.0
O1389 O 0.56137 0.49396 0.03335 0.0
C1390 C 0.57041 0.47746 0.98332 0.0
C1391 C 0.58465 0.52556 0.96931 0.0
C1392 C 0.60158 0.53548 0.01165 0.0
N1393 N 0.58582 0.5132 0.01667 0.0
C1394 C 0.5799 0.51398 0.98722 0.0
C1395 C 0.59657 0.52375 0.02887 0.0
C1396 C 0.59556 0.53637 0.98168 0.0
C1397 C 0.57433 0.45829 0.08572 0.0
N1398 N 0.56703 0.4562 0.05662 0.0
C1399 C 0.58183 0.45253 0.08944 0.0
C1400 C 0.5818 0.44456 0.06314 0.0
C1401 C 0.57431 0.44245 0.03357 0.0
C1402 C 0.56696 0.44841 0.03072 0.0
C1403 C 0.52729 0.42662 0.04881 0.0
C1404 C 0.53519 0.44865 0.00994 0.0
C1405 C 0.5382 0.4381 0.05801 0.0
N1406 N 0.54205 0.4489 0.03853 0.0
C1407 C 0.52424 0.43735 -4e-05 0.0
C1408 C 0.52029 0.42627 0.01956 0.0
C1409 C 0.54987 0.4849 0.03739 0.0
C1410 C 0.5856 0.5082 0.14545 0.0
C1411 C 0.57466 0.51293 0.08815 0.0
C1412 C 0.5749 0.5186 0.12004 0.0
C1413 C 0.58039 0.51619 0.14886 0.0
N1414 N 0.57979 0.50512 0.085 0.0
C1415 C 0.58521 0.50273 0.11313 0.0
Co1416 Co 0.57604 0.79735 0.88804 0.0
Co1417 Co 0.58507 0.82911 0.8752 0.0
O1418 O 0.57559 0.81288 0.90034 0.0
C1419 C 0.58311 0.80123 0.96219 0.0
O1420 O 0.59056 0.81344 0.95532 0.0
C1421 C 0.55834 0.82416 0.87594 0.0
O1422 O 0.55433 0.8121 0.86862 0.0
O1423 O 0.5783 0.82045 0.82962 0.0
O1424 O 0.57565 0.80083 0.8377 0.0
H1425 H 0.6135 0.85809 0.78043 0.0
H1426 H 0.55654 0.79563 0.93807 0.0
O1427 O 0.57651 0.79344 0.93823 0.0
H1428 H 0.53207 0.76766 0.84007 0.0
H1429 H 0.56369 0.75104 0.90133 0.0
H1430 H 0.58989 0.79089 0.83535 0.0
H1431 H 0.55567 0.77914 0.83972 0.0
H1432 H 0.56314 0.77069 0.91582 0.0
O1433 O 0.57024 0.83206 0.87964 0.0
H1434 H 0.60165 0.83773 0.81255 0.0
H1435 H 0.58829 0.85511 0.88464 0.0
H1436 H 0.59065 0.77144 0.81981 0.0
H1437 H 0.53294 0.78423 0.93964 0.0
H1438 H 0.57748 0.75133 0.85291 0.0
H1439 H 0.52054 0.77015 0.89033 0.0
O1440 O 0.59511 0.80689 0.88686 0.0
H1441 H 0.58159 0.83879 0.00059 0.0
H1442 H 0.6111 0.84775 0.90208 0.0
H1443 H 0.6197 0.85809 0.95875 0.0
H1444 H 0.6049 0.85364 0.00849 0.0
H1445 H 0.57341 0.82856 0.94354 0.0
H1446 H 0.59991 0.87563 0.85313 0.0
H1447 H 0.61268 0.87722 0.8007 0.0
O1448 O 0.60019 0.8267 0.87003 0.0
C1449 C 0.57598 0.80956 0.81828 0.0
C1450 C 0.60801 0.85753 0.8033 0.0
C1451 C 0.60036 0.86737 0.84407 0.0
N1452 N 0.59436 0.84526 0.85057 0.0
C1453 C 0.6013 0.84604 0.82164 0.0
C1454 C 0.59378 0.85572 0.86176 0.0
C1455 C 0.60753 0.86825 0.81467 0.0
C1456 C 0.55121 0.78942 0.91668 0.0
N1457 N 0.55748 0.78801 0.88892 0.0
C1458 C 0.53785 0.78303 0.91765 0.0
C1459 C 0.5309 0.77515 0.88995 0.0
C1460 C 0.53736 0.77376 0.86172 0.0
C1461 C 0.55073 0.78031 0.86163 0.0
C1462 C 0.56945 0.75974 0.88666 0.0
C1463 C 0.58407 0.78215 0.84974 0.0
C1464 C 0.5692 0.77089 0.89478 0.0
N1465 N 0.5764 0.78189 0.87625 0.0
C1466 C 0.58457 0.77118 0.84088 0.0
C1467 C 0.57719 0.7599 0.85949 0.0
C1468 C 0.60318 0.81817 0.87672 0.0
C1469 C 0.58813 0.84084 0.97908 0.0
C1470 C 0.6046 0.84573 0.92362 0.0
C1471 C 0.60953 0.85164 0.95563 0.0
C1472 C 0.60121 0.84915 0.98352 0.0
N1473 N 0.59176 0.83759 0.91947 0.0
C1474 C 0.58355 0.83512 0.94668 0.0
Co1475 Co 0.20253 0.77771 0.88774 0.0
Co1476 Co 0.17075 0.7551 0.87484 0.0
O1477 O 0.18702 0.76166 0.89959 0.0
C1478 C 0.19873 0.78058 0.9621 0.0
O1479 O 0.18659 0.77614 0.955 0.0
C1480 C 0.17576 0.73337 0.87368 0.0
O1481 O 0.18778 0.74149 0.86627 0.0
O1482 O 0.17931 0.75732 0.82895 0.0
O1483 O 0.19895 0.77424 0.83721 0.0
H1484 H 0.14157 0.7552 0.78166 0.0
H1485 H 0.20436 0.75959 0.93627 0.0
O1486 O 0.20649 0.78168 0.93814 0.0
H1487 H 0.23204 0.76369 0.83689 0.0
H1488 H 0.24888 0.81147 0.90139 0.0
H1489 H 0.20893 0.79849 0.83664 0.0
H1490 H 0.22058 0.77584 0.83817 0.0
H1491 H 0.22924 0.79117 0.91515 0.0
O1492 O 0.16782 0.73729 0.87807 0.0
H1493 H 0.16199 0.76349 0.81333 0.0
H1494 H 0.14478 0.73223 0.88389 0.0
H1495 H 0.22837 0.81882 0.82185 0.0
H1496 H 0.21574 0.74735 0.9362 0.0
H1497 H 0.24853 0.82542 0.85434 0.0
H1498 H 0.22967 0.74934 0.88619 0.0
O1499 O 0.19301 0.78726 0.8878 0.0
H1500 H 0.16138 0.74115 -0.00024 0.0
H1501 H 0.15215 0.76228 0.90325 0.0
H1502 H 0.14194 0.76017 0.96034 0.0
H1503 H 0.14653 0.74953 0.00908 0.0
H1504 H 0.17147 0.74355 0.94231 0.0
H1505 H 0.1242 0.72355 0.85281 0.0
H1506 H 0.12249 0.73509 0.80138 0.0
O1507 O 0.17315 0.77266 0.87089 0.0
C1508 C 0.19015 0.76602 0.81763 0.0
C1509 C 0.14218 0.7501 0.80409 0.0
C1510 C 0.13244 0.73233 0.844 0.0
N1511 N 0.15455 0.7484 0.85057 0.0
C1512 C 0.15371 0.75477 0.82218 0.0
C1513 C 0.14412 0.73728 0.86144 0.0
C1514 C 0.13148 0.73881 0.81515 0.0
C1515 C 0.21051 0.7606 0.91459 0.0
N1516 N 0.21185 0.76846 0.88735 0.0
C1517 C 0.21689 0.75361 0.91462 0.0
C1518 C 0.22468 0.75471 0.88652 0.0
C1519 C 0.22601 0.76275 0.85884 0.0
C1520 C 0.21947 0.76958 0.85967 0.0
C1521 C 0.24016 0.80868 0.88699 0.0
C1522 C 0.21769 0.80126 0.85074 0.0
C1523 C 0.22901 0.79721 0.89469 0.0
N1524 N 0.21798 0.7936 0.87648 0.0
C1525 C 0.22866 0.8128 0.84231 0.0
C1526 C 0.23996 0.8165 0.86058 0.0
C1527 C 0.18171 0.78413 0.87797 0.0
C1528 C 0.15928 0.74577 0.9787 0.0
C1529 C 0.15423 0.75767 0.92435 0.0
C1530 C 0.14839 0.75648 0.9566 0.0
C1531 C 0.15096 0.75049 0.98393 0.0
N1532 N 0.16236 0.753 0.91942 0.0
C1533 C 0.16492 0.74711 0.94607 0.0
Co1534 Co 0.22249 0.42486 0.88827 0.0
Co1535 Co 0.24525 0.41592 0.87472 0.0
O1536 O 0.23849 0.42532 0.90027 0.0
C1537 C 0.2194 0.41773 0.96241 0.0
O1538 O 0.22421 0.41032 0.95547 0.0
C1539 C 0.26698 0.44267 0.87596 0.0
O1540 O 0.25891 0.44666 0.86891 0.0
O1541 O 0.24333 0.42282 0.82938 0.0
O1542 O 0.2263 0.42532 0.83786 0.0
H1543 H 0.24577 0.38777 0.77909 0.0
H1544 H 0.24031 0.44431 0.93832 0.0
O1545 O 0.21818 0.42433 0.93852 0.0
H1546 H 0.23665 0.46889 0.84083 0.0
H1547 H 0.18851 0.43714 0.90239 0.0
H1548 H 0.20211 0.41104 0.83577 0.0
H1549 H 0.22455 0.44528 0.84027 0.0
H1550 H 0.20874 0.43771 0.91651 0.0
O1551 O 0.26303 0.43076 0.87927 0.0
H1552 H 0.23727 0.39951 0.81175 0.0
H1553 H 0.26807 0.41273 0.88358 0.0
H1554 H 0.18186 0.41025 0.8206 0.0
H1555 H 0.25248 0.46792 0.9401 0.0
H1556 H 0.17494 0.42337 0.85403 0.0
H1557 H 0.25072 0.48036 0.89104 0.0
O1558 O 0.21301 0.40581 0.88696 0.0
H1559 H 0.25851 0.41905 -7e-05 0.0
H1560 H 0.23791 0.38982 0.90092 0.0
H1561 H 0.23972 0.38106 0.95727 0.0
H1562 H 0.25009 0.39572 0.00726 0.0
H1563 H 0.2564 0.42739 0.94319 0.0
H1564 H 0.27697 0.40122 0.85153 0.0
H1565 H 0.26577 0.38858 0.79896 0.0
O1566 O 0.22772 0.40079 0.86944 0.0
C1567 C 0.23469 0.42509 0.81827 0.0
C1568 C 0.25072 0.39321 0.80201 0.0
C1569 C 0.26824 0.40077 0.84265 0.0
N1570 N 0.25211 0.40672 0.84967 0.0
C1571 C 0.24593 0.39985 0.82066 0.0
C1572 C 0.26317 0.40729 0.86064 0.0
C1573 C 0.26195 0.39368 0.81316 0.0
C1574 C 0.23939 0.44967 0.91705 0.0
N1575 N 0.23169 0.44343 0.88931 0.0
C1576 C 0.24635 0.46303 0.91813 0.0
C1577 C 0.24537 0.47 0.89056 0.0
C1578 C 0.23749 0.46357 0.86237 0.0
C1579 C 0.23069 0.4502 0.86215 0.0
C1580 C 0.19143 0.4314 0.88758 0.0
C1581 C 0.1992 0.41683 0.8503 0.0
C1582 C 0.20287 0.43166 0.89549 0.0
N1583 N 0.20665 0.42449 0.87678 0.0
C1584 C 0.18771 0.41632 0.84165 0.0
C1585 C 0.18383 0.42368 0.86044 0.0
C1586 C 0.21621 0.39777 0.87645 0.0
C1587 C 0.254 0.41257 0.97831 0.0
C1588 C 0.2424 0.39626 0.92257 0.0
C1589 C 0.24342 0.39124 0.9544 0.0
C1590 C 0.24926 0.39948 0.98243 0.0
N1591 N 0.24708 0.40911 0.91874 0.0
C1592 C 0.25283 0.41724 0.94608 0.0
Co1593 Co 0.46572 0.90931 0.94111 0.0
Co1594 Co 0.49739 0.91845 0.95495 0.0
O1595 O 0.48143 0.90932 0.92868 0.0
C1596 C 0.47016 0.91783 0.86822 0.0
O1597 O 0.4822 0.92548 0.87656 0.0
C1598 C 0.49283 0.8919 0.9506 0.0
O1599 O 0.48107 0.88772 0.96151 0.0
O1600 O 0.48841 0.91067 -0.00042 0.0
O1601 O 0.46887 0.9082 0.99136 0.0
H1602 H 0.52548 0.94505 0.05353 0.0
H1603 H 0.4648 0.89076 0.88902 0.0
O1604 O 0.4622 0.91053 0.89097 0.0
H1605 H 0.43616 0.86449 0.98391 0.0
H1606 H 0.41937 0.89657 0.92634 0.0
H1607 H 0.45857 0.92208 0.99542 0.0
H1608 H 0.44727 0.88807 0.98691 0.0
H1609 H 0.43929 0.89657 0.91182 0.0
O1610 O 0.50054 0.90386 0.9473 0.0
H1611 H 0.5054 0.93372 0.02 0.0
H1612 H 0.52356 0.92208 0.94548 0.0
H1613 H 0.43883 0.92227 0.01102 0.0
H1614 H 0.4538 0.86721 0.88483 0.0
H1615 H 0.41904 0.90945 0.97636 0.0
H1616 H 0.43939 0.85391 0.93256 0.0
O1617 O 0.47504 0.92833 0.94457 0.0
H1618 H 0.50822 0.91798 0.82885 0.0
H1619 H 0.51602 0.9451 0.93232 0.0
H1620 H 0.52679 0.95506 0.87705 0.0
H1621 H 0.52292 0.94146 0.82482 0.0
H1622 H 0.49755 0.90843 0.88454 0.0
H1623 H 0.54381 0.93321 0.97834 0.0
H1624 H 0.54487 0.94483 0.03272 0.0
O1625 O 0.49468 0.93329 0.96283 0.0
C1626 C 0.47745 0.90823 0.01075 0.0
C1627 C 0.52515 0.94005 0.02982 0.0
C1628 C 0.53543 0.93338 0.98765 0.0
N1629 N 0.51333 0.92733 0.9807 0.0
C1630 C 0.51381 0.93364 0.01068 0.0
C1631 C 0.52393 0.92708 0.9692 0.0
C1632 C 0.53602 0.93991 0.01815 0.0
C1633 C 0.45845 0.88503 0.90973 0.0
N1634 N 0.45663 0.89078 0.93807 0.0
C1635 C 0.45229 0.8717 0.90728 0.0
C1636 C 0.44421 0.86425 0.9341 0.0
C1637 C 0.44241 0.87018 0.96293 0.0
C1638 C 0.44875 0.88354 0.96452 0.0
C1639 C 0.42792 0.90217 0.94169 0.0
C1640 C 0.44997 0.91641 0.98034 0.0
C1641 C 0.43923 0.90223 0.93355 0.0
N1642 N 0.45005 0.90923 0.95294 0.0
C1643 C 0.43884 0.91659 0.98924 0.0
C1644 C 0.42774 0.9094 0.96976 0.0
C1645 C 0.48615 0.93628 0.95616 0.0
C1646 C 0.51001 0.924 0.85145 0.0
C1647 C 0.51425 0.93912 0.90969 0.0
C1648 C 0.5204 0.94481 0.87848 0.0
C1649 C 0.51824 0.93718 0.84919 0.0
N1650 N 0.50619 0.92618 0.91171 0.0
C1651 C 0.50404 0.91864 0.88311 0.0
Co1652 Co 0.09163 0.55556 0.94144 0.0
Co1653 Co 0.0826 0.5782 0.95473 0.0
O1654 O 0.09157 0.57119 0.92843 0.0
C1655 C 0.08296 0.5512 0.86863 0.0
O1656 O 0.07538 0.5557 0.87664 0.0
C1657 C 0.10909 0.60019 0.94876 0.0
O1658 O 0.11339 0.59274 0.95988 0.0
O1659 O 0.09073 0.57735 -0.0009 0.0
O1660 O 0.09301 0.56014 0.99149 0.0
H1661 H 0.0567 0.58039 0.05415 0.0
H1662 H 0.10996 0.5729 0.88848 0.0
O1663 O 0.09021 0.55052 0.89153 0.0
H1664 H 0.13663 0.57096 0.98289 0.0
H1665 H 0.10423 0.52179 0.92776 0.0
H1666 H 0.07912 0.536 0.99675 0.0
H1667 H 0.11308 0.55855 0.98672 0.0
H1668 H 0.1042 0.54164 0.91245 0.0
O1669 O 0.09711 0.59588 0.94589 0.0
H1670 H 0.06781 0.57141 0.02058 0.0
H1671 H 0.07884 0.60062 0.94449 0.0
H1672 H 0.07897 0.51615 0.01314 0.0
H1673 H 0.13349 0.58539 0.88344 0.0
H1674 H 0.09159 0.50892 0.97853 0.0
H1675 H 0.14699 0.58448 0.93092 0.0
O1676 O 0.07264 0.54591 0.94551 0.0
H1677 H 0.08217 0.5886 0.82824 0.0
H1678 H 0.05579 0.56997 0.93328 0.0
H1679 H 0.04543 0.57037 0.87834 0.0
H1680 H 0.05866 0.57976 0.82532 0.0
H1681 H 0.09212 0.58788 0.88363 0.0
H1682 H 0.06793 0.60997 0.97736 0.0
H1683 H 0.05671 0.59981 0.03255 0.0
O1684 O 0.06783 0.5607 0.96379 0.0
C1685 C 0.09321 0.56889 0.01051 0.0
C1686 C 0.06152 0.58488 0.03008 0.0
C1687 C 0.06784 0.60149 0.98701 0.0
N1688 N 0.07389 0.58543 0.9805 0.0
C1689 C 0.0678 0.57982 0.01092 0.0
C1690 C 0.07403 0.59617 0.96855 0.0
C1691 C 0.06154 0.59578 0.01797 0.0
C1692 C 0.11577 0.57237 0.90909 0.0
N1693 N 0.11015 0.56495 0.93777 0.0
C1694 C 0.12909 0.5795 0.90616 0.0
C1695 C 0.13666 0.579 0.93284 0.0
C1696 C 0.13085 0.57142 0.96201 0.0
C1697 C 0.11751 0.56444 0.96407 0.0
C1698 C 0.09871 0.52485 0.94309 0.0
C1699 C 0.0847 0.53296 0.98169 0.0
C1700 C 0.09864 0.53607 0.93451 0.0
N1701 N 0.09175 0.54003 0.95387 0.0
C1702 C 0.08455 0.52169 0.99104 0.0
C1703 C 0.09162 0.51764 0.97158 0.0
C1704 C 0.06477 0.54913 0.9574 0.0
C1705 C 0.07631 0.58452 0.85119 0.0
C1706 C 0.0616 0.57402 0.91031 0.0
C1707 C 0.05569 0.57426 0.87929 0.0
C1708 C 0.06312 0.57954 0.84956 0.0
N1709 N 0.07455 0.57893 0.91171 0.0
C1710 C 0.0819 0.58414 0.88268 0.0
Co1711 Co 0.44488 0.5356 0.94205 0.0
Co1712 Co 0.42223 0.50388 0.95424 0.0
O1713 O 0.42902 0.52011 0.92923 0.0
C1714 C 0.44829 0.53205 0.86791 0.0
O1715 O 0.44383 0.51988 0.87478 0.0
C1716 C 0.40017 0.50842 0.95177 0.0
O1717 O 0.40769 0.52009 0.96332 0.0
O1718 O 0.42357 0.51246 -0.00031 0.0
O1719 O 0.44097 0.53184 0.99232 0.0
H1720 H 0.42096 0.47486 0.04989 0.0
H1721 H 0.42699 0.53734 0.89251 0.0
O1722 O 0.44928 0.53974 0.89191 0.0
H1723 H 0.43032 0.56487 0.99149 0.0
H1724 H 0.47867 0.58203 0.93025 0.0
H1725 H 0.46516 0.54191 0.99476 0.0
H1726 H 0.44261 0.55355 0.99109 0.0
H1727 H 0.45855 0.56238 0.9152 0.0
O1728 O 0.40448 0.5008 0.94752 0.0
H1729 H 0.42964 0.49526 0.01791 0.0
H1730 H 0.39968 0.47781 0.94357 0.0
H1731 H 0.48529 0.56135 0.01086 0.0
H1732 H 0.4146 0.54857 0.89171 0.0
H1733 H 0.49216 0.5816 0.9785 0.0
H1734 H 0.41621 0.56243 0.94151 0.0
O1735 O 0.45445 0.5261 0.94277 0.0
H1736 H 0.41055 0.49427 0.8279 0.0
H1737 H 0.43013 0.48544 0.929 0.0
H1738 H 0.42914 0.4752 0.87266 0.0
H1739 H 0.41927 0.47958 0.82162 0.0
H1740 H 0.41186 0.50442 0.88462 0.0
H1741 H 0.39062 0.45725 0.9749 0.0
H1742 H 0.40132 0.45567 0.0284 0.0
O1743 O 0.43978 0.50648 0.96114 0.0
C1744 C 0.43237 0.52318 0.01145 0.0
C1745 C 0.41624 0.47542 0.02656 0.0
C1746 C 0.3992 0.46554 0.9845 0.0
N1747 N 0.41522 0.4877 0.97878 0.0
C1748 C 0.42112 0.48693 0.00829 0.0
C1749 C 0.40435 0.47722 0.96692 0.0
C1750 C 0.40521 0.46466 0.0145 0.0
C1751 C 0.42783 0.54345 0.91412 0.0
N1752 N 0.43557 0.54485 0.94171 0.0
C1753 C 0.42075 0.54974 0.91359 0.0
C1754 C 0.42164 0.5575 0.94156 0.0
C1755 C 0.42956 0.55887 0.96962 0.0
C1756 C 0.43647 0.55242 0.96928 0.0
C1757 C 0.47576 0.57327 0.9446 0.0
C1758 C 0.46805 0.5507 0.9807 0.0
C1759 C 0.4644 0.56211 0.93615 0.0
N1760 N 0.46063 0.55104 0.95429 0.0
C1761 C 0.47947 0.56167 0.98986 0.0
C1762 C 0.48333 0.57302 0.97167 0.0
C1763 C 0.45128 0.51493 0.9539 0.0
C1764 C 0.41484 0.49226 0.84997 0.0
C1765 C 0.42588 0.48745 0.90689 0.0
C1766 C 0.42531 0.48158 0.87507 0.0
C1767 C 0.41976 0.48403 0.84645 0.0
N1768 N 0.42103 0.4955 0.91014 0.0
C1769 C 0.41556 0.49793 0.8822 0.0
Co1770 Co 0.09254 0.53713 0.44094 0.0
Co1771 Co 0.08348 0.50538 0.45419 0.0
O1772 O 0.09295 0.52157 0.42885 0.0
C1773 C 0.08536 0.5331 0.36686 0.0
O1774 O 0.07793 0.5209 0.37391 0.0
C1775 C 0.11022 0.51039 0.45358 0.0
O1776 O 0.11418 0.52244 0.46082 0.0
O1777 O 0.09025 0.51411 0.49969 0.0
O1778 O 0.093 0.53375 0.49132 0.0
H1779 H 0.05506 0.47654 0.54921 0.0
H1780 H 0.11195 0.53871 0.39079 0.0
O1781 O 0.09199 0.54093 0.39069 0.0
H1782 H 0.1366 0.56687 0.4883 0.0
H1783 H 0.10492 0.58342 0.4269 0.0
H1784 H 0.07879 0.54373 0.49357 0.0
H1785 H 0.11299 0.55542 0.48891 0.0
H1786 H 0.10543 0.56373 0.41271 0.0
O1787 O 0.09833 0.50244 0.4499 0.0
H1788 H 0.0669 0.49685 0.51684 0.0
H1789 H 0.08031 0.47938 0.44518 0.0
H1790 H 0.07807 0.56323 0.50881 0.0
H1791 H 0.13555 0.55008 0.38896 0.0
H1792 H 0.09121 0.58326 0.47536 0.0
H1793 H 0.14803 0.56424 0.43802 0.0
O1794 O 0.07348 0.52761 0.44234 0.0
H1795 H 0.08694 0.49547 0.32899 0.0
H1796 H 0.05745 0.48668 0.42746 0.0
H1797 H 0.04884 0.47623 0.37092 0.0
H1798 H 0.06363 0.48059 0.3212 0.0
H1799 H 0.09513 0.50581 0.38592 0.0
H1800 H 0.0687 0.45891 0.47694 0.0
H1801 H 0.05592 0.45739 0.52927 0.0
O1802 O 0.06836 0.5078 0.45924 0.0
C1803 C 0.09262 0.52504 0.51087 0.0
C1804 C 0.06057 0.47707 0.52638 0.0
C1805 C 0.06823 0.46718 0.48585 0.0
N1806 N 0.07421 0.48927 0.47902 0.0
C1807 C 0.06726 0.48853 0.5079 0.0
C1808 C 0.07481 0.4788 0.46802 0.0
C1809 C 0.06106 0.46634 0.5152 0.0
C1810 C 0.11732 0.54497 0.41206 0.0
N1811 N 0.1111 0.54645 0.43983 0.0
C1812 C 0.13068 0.55133 0.41096 0.0
C1813 C 0.13768 0.55926 0.43852 0.0
C1814 C 0.13127 0.56073 0.46675 0.0
C1815 C 0.1179 0.5542 0.46699 0.0
C1816 C 0.09918 0.57476 0.44172 0.0
C1817 C 0.08459 0.55243 0.47903 0.0
C1818 C 0.09941 0.56358 0.43377 0.0
N1819 N 0.09223 0.55262 0.4525 0.0
C1820 C 0.08412 0.56343 0.48772 0.0
C1821 C 0.09148 0.57467 0.46892 0.0
C1822 C 0.0654 0.51634 0.45257 0.0
C1823 C 0.0804 0.49346 0.35049 0.0
C1824 C 0.06395 0.48867 0.40593 0.0
C1825 C 0.05902 0.48269 0.37399 0.0
C1826 C 0.06732 0.48514 0.34612 0.0
N1827 N 0.07679 0.49682 0.41002 0.0
C1828 C 0.08499 0.49924 0.38283 0.0
Co1829 Co 0.46471 0.5561 0.44127 0.0
Co1830 Co 0.49637 0.57885 0.45572 0.0
O1831 O 0.48037 0.57201 0.4294 0.0
C1832 C 0.46935 0.55234 0.36811 0.0
O1833 O 0.48146 0.55703 0.3762 0.0
C1834 C 0.49126 0.6005 0.45341 0.0
O1835 O 0.47917 0.59238 0.46011 0.0
O1836 O 0.4873 0.57699 0.50061 0.0
O1837 O 0.46764 0.56021 0.49162 0.0
H1838 H 0.52457 0.57964 0.5531 0.0
H1839 H 0.46357 0.57365 0.38925 0.0
O1840 O 0.46135 0.55148 0.39103 0.0
H1841 H 0.43458 0.57068 0.48387 0.0
H1842 H 0.41855 0.52212 0.42534 0.0
H1843 H 0.45765 0.53603 0.49506 0.0
H1844 H 0.44601 0.55852 0.48693 0.0
H1845 H 0.43836 0.54224 0.41144 0.0
O1846 O 0.49927 0.5966 0.45056 0.0
H1847 H 0.5045 0.57102 0.51956 0.0
H1848 H 0.52239 0.60171 0.44748 0.0
H1849 H 0.43803 0.51589 0.51003 0.0
H1850 H 0.45224 0.58588 0.38497 0.0
H1851 H 0.41829 0.50882 0.47505 0.0
H1852 H 0.43766 0.58447 0.43257 0.0
O1853 O 0.47421 0.54657 0.44467 0.0
H1854 H 0.50709 0.59181 0.33049 0.0
H1855 H 0.51535 0.57157 0.43108 0.0
H1856 H 0.5262 0.57326 0.3753 0.0
H1857 H 0.5221 0.58346 0.32452 0.0
H1858 H 0.49635 0.58981 0.38669 0.0
H1859 H 0.54262 0.61073 0.4804 0.0
H1860 H 0.54381 0.59964 0.53355 0.0
O1861 O 0.49398 0.56136 0.46164 0.0
C1862 C 0.47625 0.56855 0.51137 0.0
C1863 C 0.52418 0.58454 0.52993 0.0
C1864 C 0.53431 0.602 0.48915 0.0
N1865 N 0.5123 0.58581 0.48147 0.0
C1866 C 0.51285 0.57969 0.51079 0.0
C1867 C 0.52282 0.59686 0.47066 0.0
C1868 C 0.53497 0.59577 0.51896 0.0
C1869 C 0.45714 0.57288 0.40989 0.0
N1870 N 0.45541 0.56533 0.43822 0.0
C1871 C 0.45079 0.57988 0.4074 0.0
C1872 C 0.44263 0.57909 0.43415 0.0
C1873 C 0.44091 0.57136 0.46295 0.0
C1874 C 0.44743 0.56453 0.46458 0.0
C1875 C 0.42708 0.52511 0.44083 0.0
C1876 C 0.44908 0.53305 0.47984 0.0
C1877 C 0.43833 0.53649 0.43304 0.0
N1878 N 0.44912 0.54036 0.4526 0.0
C1879 C 0.43801 0.52162 0.48839 0.0
C1880 C 0.42694 0.51766 0.46872 0.0
C1881 C 0.48545 0.54981 0.45532 0.0
C1882 C 0.50898 0.58738 0.35246 0.0
C1883 C 0.51348 0.57598 0.40908 0.0
C1884 C 0.51968 0.57694 0.37759 0.0
C1885 C 0.51739 0.58267 0.34911 0.0
N1886 N 0.50525 0.58063 0.41217 0.0
C1887 C 0.50297 0.58627 0.38438 0.0
Co1888 Co 0.44498 0.90931 0.44066 0.0
Co1889 Co 0.42233 0.91838 0.45449 0.0
O1890 O 0.42895 0.90883 0.42913 0.0
C1891 C 0.4479 0.91646 0.36663 0.0
O1892 O 0.4433 0.924 0.37414 0.0
C1893 C 0.40073 0.89159 0.45512 0.0
O1894 O 0.40894 0.88776 0.46215 0.0
O1895 O 0.42463 0.91189 0.50007 0.0
O1896 O 0.44144 0.90905 0.49121 0.0
H1897 H 0.42236 0.94723 0.54887 0.0
H1898 H 0.42695 0.88971 0.39125 0.0
O1899 O 0.44905 0.9097 0.39022 0.0
H1900 H 0.43095 0.86543 0.48897 0.0
H1901 H 0.47883 0.8969 0.42548 0.0
H1902 H 0.46567 0.92332 0.49228 0.0
H1903 H 0.44308 0.88904 0.48895 0.0
H1904 H 0.45854 0.89631 0.4121 0.0
O1905 O 0.40455 0.90345 0.45115 0.0
H1906 H 0.43072 0.93531 0.51645 0.0
H1907 H 0.39936 0.92136 0.44626 0.0
H1908 H 0.48598 0.92412 0.5067 0.0
H1909 H 0.41473 0.8661 0.39007 0.0
H1910 H 0.49268 0.91084 0.47318 0.0
H1911 H 0.41667 0.85381 0.43924 0.0
O1912 O 0.45451 0.92837 0.44161 0.0
H1913 H 0.40821 0.91422 0.32982 0.0
H1914 H 0.42937 0.94423 0.42697 0.0
H1915 H 0.42714 0.95253 0.37031 0.0
H1916 H 0.41648 0.93747 0.32125 0.0
H1917 H 0.41074 0.90635 0.38685 0.0
H1918 H 0.39061 0.93305 0.4781 0.0
H1919 H 0.40217 0.94615 0.52972 0.0
O1920 O 0.43987 0.93357 0.45858 0.0
C1921 C 0.43327 0.9096 0.51103 0.0
C1922 C 0.41726 0.94159 0.52635 0.0
C1923 C 0.39943 0.93362 0.48666 0.0
N1924 N 0.41559 0.92773 0.47935 0.0
C1925 C 0.42196 0.93485 0.50784 0.0
C1926 C 0.40442 0.927 0.46879 0.0
C1927 C 0.40592 0.94097 0.51561 0.0
C1928 C 0.42794 0.88442 0.41257 0.0
N1929 N 0.43576 0.89074 0.44004 0.0
C1930 C 0.42095 0.87106 0.41183 0.0
C1931 C 0.42203 0.86416 0.43946 0.0
C1932 C 0.43003 0.87068 0.46738 0.0
C1933 C 0.43685 0.88405 0.46726 0.0
C1934 C 0.476 0.9027 0.44033 0.0
C1935 C 0.46848 0.91745 0.47772 0.0
C1936 C 0.46453 0.90243 0.43284 0.0
N1937 N 0.46087 0.90969 0.45161 0.0
C1938 C 0.48001 0.91797 0.48594 0.0
C1939 C 0.48376 0.91053 0.4671 0.0
C1940 C 0.45136 0.93651 0.45163 0.0
C1941 C 0.41284 0.92087 0.35102 0.0
C1942 C 0.42475 0.93762 0.40573 0.0
C1943 C 0.42349 0.94237 0.37372 0.0
C1944 C 0.4175 0.93392 0.34622 0.0
N1945 N 0.42015 0.92481 0.41025 0.0
C1946 C 0.41425 0.91646 0.38341 0.0
Co1947 Co 0.20392 0.42606 0.38737 0.0
Co1948 Co 0.17226 0.41708 0.37416 0.0
O1949 O 0.18827 0.4261 0.40031 0.0
C1950 C 0.19967 0.41759 0.46035 0.0
O1951 O 0.18758 0.41 0.45241 0.0
C1952 C 0.17677 0.44361 0.37948 0.0
O1953 O 0.18851 0.44788 0.36834 0.0
O1954 O 0.18119 0.42507 0.32964 0.0
O1955 O 0.20066 0.42728 0.33727 0.0
H1956 H 0.14404 0.39092 0.27526 0.0
H1957 H 0.20502 0.44458 0.43985 0.0
O1958 O 0.20758 0.42478 0.43735 0.0
H1959 H 0.23355 0.4709 0.34485 0.0
H1960 H 0.25026 0.43858 0.40091 0.0
H1961 H 0.21085 0.41333 0.33243 0.0
H1962 H 0.22235 0.44733 0.3416 0.0
H1963 H 0.23043 0.43865 0.41615 0.0
O1964 O 0.16911 0.43163 0.38262 0.0
H1965 H 0.16417 0.40211 0.30862 0.0
H1966 H 0.1461 0.41339 0.38439 0.0
H1967 H 0.23049 0.41307 0.31611 0.0
H1968 H 0.21612 0.46813 0.4443 0.0
H1969 H 0.25039 0.42576 0.35047 0.0
H1970 H 0.23048 0.48145 0.39651 0.0
O1971 O 0.19452 0.40704 0.38376 0.0
H1972 H 0.16159 0.41705 0.50062 0.0
H1973 H 0.15366 0.39034 0.39618 0.0
H1974 H 0.14297 0.38016 0.45134 0.0
H1975 H 0.1469 0.39355 0.50406 0.0
H1976 H 0.17219 0.42682 0.44502 0.0
H1977 H 0.1258 0.4024 0.35171 0.0
H1978 H 0.12467 0.39101 0.29679 0.0
O1979 O 0.17494 0.40227 0.36547 0.0
C1980 C 0.19211 0.42746 0.31821 0.0
C1981 C 0.1444 0.39581 0.2992 0.0
C1982 C 0.13417 0.40227 0.34209 0.0
N1983 N 0.15629 0.40832 0.34853 0.0
C1984 C 0.15577 0.40214 0.31825 0.0
C1985 C 0.1457 0.4085 0.36044 0.0
C1986 C 0.13354 0.39588 0.31128 0.0
C1987 C 0.21135 0.45032 0.41911 0.0
N1988 N 0.21309 0.44459 0.3906 0.0
C1989 C 0.21757 0.46365 0.42171 0.0
C1990 C 0.22561 0.47111 0.39486 0.0
C1991 C 0.22733 0.4652 0.36585 0.0
C1992 C 0.22094 0.45185 0.36413 0.0
C1993 C 0.24166 0.43303 0.3857 0.0
C1994 C 0.21949 0.41894 0.34738 0.0
C1995 C 0.2304 0.43301 0.39424 0.0
N1996 N 0.21952 0.42608 0.37502 0.0
C1997 C 0.23057 0.41872 0.33808 0.0
C1998 C 0.24173 0.42584 0.35739 0.0
C1999 C 0.18342 0.39918 0.37199 0.0
C2000 C 0.15978 0.41112 0.47781 0.0
C2001 C 0.15547 0.39623 0.41903 0.0
C2002 C 0.14935 0.39041 0.45017 0.0
C2003 C 0.15155 0.39793 0.47973 0.0
N2004 N 0.16352 0.40917 0.41734 0.0
C2005 C 0.1657 0.4166 0.4462 0.0
Co2006 Co 0.57592 0.77862 0.38737 0.0
Co2007 Co 0.58472 0.75578 0.37465 0.0
O2008 O 0.57578 0.7629 0.40059 0.0
C2009 C 0.58442 0.78293 0.4603 0.0
O2010 O 0.59196 0.77836 0.45244 0.0
C2011 C 0.55814 0.73386 0.38006 0.0
O2012 O 0.55392 0.74135 0.36864 0.0
O2013 O 0.57675 0.75669 0.33006 0.0
O2014 O 0.57464 0.77402 0.33735 0.0
H2015 H 0.61075 0.75335 0.27596 0.0
H2016 H 0.55736 0.76136 0.44006 0.0
O2017 O 0.57725 0.78366 0.43727 0.0
H2018 H 0.5311 0.76359 0.34491 0.0
H2019 H 0.56367 0.81266 0.40024 0.0
H2020 H 0.5887 0.79814 0.33213 0.0
H2021 H 0.55468 0.77583 0.34156 0.0
H2022 H 0.56348 0.79273 0.41585 0.0
O2023 O 0.57011 0.73814 0.38333 0.0
H2024 H 0.59967 0.76246 0.30908 0.0
H2025 H 0.58826 0.73324 0.38533 0.0
H2026 H 0.58908 0.81807 0.31544 0.0
H2027 H 0.53381 0.74905 0.44462 0.0
H2028 H 0.57649 0.82546 0.34961 0.0
H2029 H 0.52052 0.75009 0.39676 0.0
O2030 O 0.59493 0.78813 0.3837 0.0
H2031 H 0.58471 0.74537 0.50132 0.0
H2032 H 0.61143 0.76382 0.39672 0.0
H2033 H 0.62158 0.76335 0.45197 0.0
H2034 H 0.60819 0.75405 0.50477 0.0
H2035 H 0.57496 0.74614 0.44562 0.0
H2036 H 0.59914 0.72376 0.35291 0.0
H2037 H 0.61054 0.73386 0.29787 0.0
O2038 O 0.5996 0.77321 0.36575 0.0
C2039 C 0.57439 0.76522 0.31846 0.0
C2040 C 0.60585 0.74888 0.29996 0.0
C2041 C 0.59932 0.73226 0.34312 0.0
N2042 N 0.5934 0.74844 0.34923 0.0
C2043 C 0.59959 0.75401 0.31887 0.0
C2044 C 0.59315 0.73766 0.36133 0.0
C2045 C 0.60572 0.73794 0.31225 0.0
C2046 C 0.55164 0.76196 0.41928 0.0
N2047 N 0.55739 0.76935 0.39067 0.0
C2048 C 0.53831 0.75492 0.42194 0.0
C2049 C 0.53086 0.7555 0.39506 0.0
C2050 C 0.53679 0.76307 0.36595 0.0
C2051 C 0.55014 0.76995 0.36416 0.0
C2052 C 0.56917 0.80953 0.3851 0.0
C2053 C 0.58314 0.80125 0.347 0.0
C2054 C 0.56912 0.79827 0.39385 0.0
N2055 N 0.57599 0.79422 0.37473 0.0
C2056 C 0.58342 0.81256 0.33748 0.0
C2057 C 0.57637 0.81671 0.35669 0.0
C2058 C 0.60275 0.78481 0.37209 0.0
C2059 C 0.59064 0.74941 0.47847 0.0
C2060 C 0.60554 0.7598 0.4196 0.0
C2061 C 0.61134 0.75953 0.4508 0.0
C2062 C 0.60382 0.7543 0.4804 0.0
N2063 N 0.59261 0.75498 0.4179 0.0
C2064 C 0.58517 0.74982 0.44681 0.0
Co2065 Co 0.22304 0.79737 0.38696 0.0
Co2066 Co 0.24565 0.8291 0.37424 0.0
O2067 O 0.23863 0.81305 0.40016 0.0
C2068 C 0.21842 0.80167 0.45948 0.0
O2069 O 0.22278 0.8137 0.45101 0.0
C2070 C 0.26766 0.8246 0.37974 0.0
O2071 O 0.26022 0.81288 0.36841 0.0
O2072 O 0.24476 0.82027 0.32958 0.0
O2073 O 0.22769 0.80066 0.33693 0.0
H2074 H 0.2478 0.85752 0.27572 0.0
H2075 H 0.24029 0.79634 0.44015 0.0
O2076 O 0.21794 0.79374 0.4369 0.0
H2077 H 0.23863 0.76793 0.34552 0.0
H2078 H 0.18934 0.75098 0.4003 0.0
H2079 H 0.20356 0.79033 0.33143 0.0
H2080 H 0.22618 0.77904 0.34161 0.0
H2081 H 0.20913 0.77088 0.41582 0.0
O2082 O 0.26333 0.83225 0.38285 0.0
H2083 H 0.23883 0.83732 0.30879 0.0
H2084 H 0.26807 0.85525 0.3849 0.0
H2085 H 0.18376 0.77062 0.31483 0.0
H2086 H 0.25282 0.78533 0.44526 0.0
H2087 H 0.17654 0.75076 0.34939 0.0
H2088 H 0.25205 0.77103 0.39767 0.0
O2089 O 0.21334 0.80669 0.38274 0.0
H2090 H 0.25599 0.83945 0.50095 0.0
H2091 H 0.23744 0.84764 0.39642 0.0
H2092 H 0.23782 0.85818 0.45173 0.0
H2093 H 0.24716 0.85412 0.50449 0.0
H2094 H 0.25531 0.82901 0.44519 0.0
H2095 H 0.27741 0.87562 0.35252 0.0
H2096 H 0.26723 0.87685 0.29757 0.0
O2097 O 0.22816 0.82641 0.36541 0.0
C2098 C 0.23635 0.80933 0.31798 0.0
C2099 C 0.2523 0.85711 0.29968 0.0
C2100 C 0.26893 0.86726 0.34275 0.0
N2101 N 0.25287 0.84513 0.34885 0.0
C2102 C 0.24725 0.84571 0.31856 0.0
C2103 C 0.26362 0.85569 0.36093 0.0
C2104 C 0.26321 0.86795 0.31194 0.0
C2105 C 0.23982 0.79004 0.41949 0.0
N2106 N 0.23246 0.78828 0.39071 0.0
C2107 C 0.24697 0.78387 0.42246 0.0
C2108 C 0.24655 0.77586 0.39572 0.0
C2109 C 0.23903 0.77412 0.36645 0.0
C2110 C 0.23202 0.78046 0.36434 0.0
C2111 C 0.1924 0.75956 0.385 0.0
C2112 C 0.20052 0.7817 0.34647 0.0
C2113 C 0.20359 0.77086 0.3937 0.0
N2114 N 0.20755 0.78172 0.37437 0.0
C2115 C 0.18928 0.77058 0.337 0.0
C2116 C 0.18523 0.75945 0.35642 0.0
C2117 C 0.21658 0.81784 0.37132 0.0
C2118 C 0.25193 0.84132 0.47811 0.0
C2119 C 0.24148 0.84578 0.41928 0.0
C2120 C 0.2417 0.85181 0.45051 0.0
C2121 C 0.24695 0.84954 0.4801 0.0
N2122 N 0.24638 0.83774 0.41753 0.0
C2123 C 0.25157 0.83548 0.44643 0.0
C2124 C 0.24537 0.1274 0.83433 0.0
C2125 C 0.24935 0.11842 0.82834 0.0
C2126 C 0.24398 0.13068 0.86825 0.0
C2127 C 0.23563 0.11777 0.9544 0.0
H2128 H 0.25454 0.1526 0.98908 0.0
C2129 C 0.23912 0.12864 0.09991 0.0
C2130 C 0.24051 0.14029 0.11188 0.0
C2131 C 0.23898 0.12623 0.06447 0.0
C2132 C 0.24895 0.14287 0.97966 0.0
H2133 H 0.25502 0.10584 0.8529 0.0
H2134 H 0.2522 0.11132 0.91243 0.0
H2135 H 0.25711 0.14811 0.92849 0.0
H2136 H 0.24228 0.15834 0.09565 0.0
H2137 H 0.24156 0.15391 0.03337 0.0
H2138 H 0.22716 0.11245 0.0048 0.0
C2139 C 0.25033 0.11591 0.89076 0.0
C2140 C 0.25053 0.14031 0.94508 0.0
C2141 C 0.252 0.11283 0.85683 0.0
C2142 C 0.24123 0.14928 0.08734 0.0
C2143 C 0.24094 0.14678 0.05164 0.0
C2144 C 0.23384 0.12034 0.98868 0.0
C2145 C 0.24627 0.12482 0.89668 0.0
C2146 C 0.24409 0.12771 0.93249 0.0
C2147 C 0.24 0.13529 0.03978 0.0
C2148 C 0.24072 0.13287 0.00208 0.0
H2149 H 0.2433 0.13188 0.81278 0.0
H2150 H 0.24081 0.13756 0.8723 0.0
H2151 H 0.2304 0.10801 0.94495 0.0
H2152 H 0.23856 0.12146 0.11789 0.0
H2153 H 0.23852 0.11739 0.05656 0.0
C2154 C 0.87277 0.11922 0.8359 0.0
C2155 C 0.88163 0.13217 0.82947 0.0
C2156 C 0.86879 0.11489 0.86975 0.0
C2157 C 0.86884 0.12639 0.95973 0.0
H2158 H 0.86354 0.09296 0.98559 0.0
C2159 C 0.87005 0.11164 0.10026 0.0
C2160 C 0.8588 0.1009 0.11246 0.0
C2161 C 0.87182 0.11448 0.06492 0.0
C2162 C 0.86485 0.10224 0.9785 0.0
H2163 H 0.89328 0.15077 0.85322 0.0
H2164 H 0.88678 0.14316 0.91261 0.0
H2165 H 0.86878 0.10025 0.9254 0.0
H2166 H 0.84088 0.08432 0.09663 0.0
H2167 H 0.84427 0.08918 0.03416 0.0
H2168 H 0.86558 0.12856 0.01345 0.0
C2169 C 0.88257 0.13638 0.89147 0.0
C2170 C 0.86781 0.10643 0.94407 0.0
C2171 C 0.88637 0.14075 0.85748 0.0
C2172 C 0.84964 0.09268 0.08813 0.0
C2173 C 0.85154 0.09544 0.05249 0.0
C2174 C 0.86612 0.12228 0.9942 0.0
C2175 C 0.87375 0.12337 0.89806 0.0
C2176 C 0.86998 0.11863 0.93431 0.0
C2177 C 0.86251 0.10654 0.04085 0.0
C2178 C 0.86424 0.11025 0.00387 0.0
H2179 H 0.86884 0.11241 0.81469 0.0
H2180 H 0.86179 0.10489 0.87364 0.0
H2181 H 0.87013 0.13569 0.95312 0.0
H2182 H 0.87738 0.11817 0.11804 0.0
H2183 H 0.88042 0.123 0.05636 0.0
C2184 C 0.89206 0.76317 0.10014 0.0
C2185 C 0.90202 0.76129 0.11235 0.0
C2186 C 0.88938 0.76253 0.06476 0.0
C2187 C 0.90065 0.76666 0.97813 0.0
H2188 H 0.86694 0.73853 0.95465 0.0
C2189 C 0.88269 0.75654 0.83625 0.0
C2190 C 0.86968 0.75229 0.83031 0.0
C2191 C 0.88727 0.75731 0.87002 0.0
C2192 C 0.8763 0.74654 0.96072 0.0
H2193 H 0.9175 0.75813 0.09648 0.0
H2194 H 0.91294 0.7574 0.03396 0.0
H2195 H 0.87446 0.74137 0.01462 0.0
H2196 H 0.85125 0.74561 0.85487 0.0
H2197 H 0.85929 0.74747 0.91403 0.0
H2198 H 0.90232 0.77231 0.92481 0.0
C2199 C 0.90717 0.75916 0.05231 0.0
C2200 C 0.88063 0.74806 0.99498 0.0
C2201 C 0.90977 0.7596 0.08799 0.0
C2202 C 0.86131 0.74882 0.85874 0.0
C2203 C 0.86593 0.74981 0.89262 0.0
C2204 C 0.89623 0.76529 0.94388 0.0
C2205 C 0.89671 0.76023 0.0407 0.0
C2206 C 0.89277 0.75818 0.00394 0.0
C2207 C 0.87898 0.75406 0.89871 0.0
C2208 C 0.88394 0.75526 0.9348 0.0
H2209 H 0.88594 0.76461 0.11795 0.0
H2210 H 0.88136 0.76351 0.05618 0.0
H2211 H 0.91001 0.77459 0.98472 0.0
H2212 H 0.88935 0.75915 0.81474 0.0
H2213 H 0.8973 0.76036 0.87353 0.0
C2214 C 0.1515 0.24287 0.40583 0.0
C2215 C 0.14204 0.24198 0.38266 0.0
C2216 C 0.14997 0.2435 0.44181 0.0
C2217 C 0.13709 0.25617 0.5027 0.0
H2218 H 0.13192 0.22998 0.56968 0.0
C2219 C 0.11715 0.25508 0.63919 0.0
C2220 C 0.12119 0.25047 0.66709 0.0
C2221 C 0.12084 0.25434 0.6052 0.0
C2222 C 0.13361 0.23753 0.55153 0.0
H2223 H 0.12328 0.24042 0.37952 0.0
H2224 H 0.12091 0.24183 0.44178 0.0
H2225 H 0.13676 0.22782 0.50908 0.0
H2226 H 0.13253 0.24179 0.68157 0.0
H2227 H 0.13938 0.24096 0.62255 0.0
H2228 H 0.13417 0.26604 0.54461 0.0
C2229 C 0.12944 0.24203 0.43204 0.0
C2230 C 0.13633 0.23624 0.51687 0.0
C2231 C 0.13084 0.24121 0.39636 0.0
C2232 C 0.12918 0.24532 0.66048 0.0
C2233 C 0.13304 0.24478 0.62659 0.0
C2234 C 0.1346 0.25759 0.53735 0.0
C2235 C 0.13907 0.24341 0.45493 0.0
C2236 C 0.13783 0.24542 0.49218 0.0
C2237 C 0.12884 0.24917 0.59843 0.0
C2238 C 0.13253 0.24815 0.56211 0.0
H2239 H 0.16023 0.24349 0.39618 0.0
H2240 H 0.1575 0.24454 0.45925 0.0
H2241 H 0.13828 0.26339 0.48392 0.0
H2242 H 0.1109 0.25899 0.64351 0.0
H2243 H 0.11719 0.25759 0.58419 0.0
C2244 C 0.76383 0.89122 0.39394 0.0
C2245 C 0.76195 0.901 0.3805 0.0
C2246 C 0.76413 0.88953 0.42966 0.0
C2247 C 0.7533 0.8965 0.51241 0.0
H2248 H 0.77246 0.88135 0.55073 0.0
C2249 C 0.75602 0.88497 0.65897 0.0
C2250 C 0.7519 0.87197 0.66494 0.0
C2251 C 0.7577 0.88971 0.62506 0.0
C2252 C 0.76708 0.88559 0.54028 0.0
H2253 H 0.75955 0.91712 0.39436 0.0
H2254 H 0.76052 0.91442 0.45716 0.0
H2255 H 0.7761 0.88882 0.49063 0.0
H2256 H 0.74628 0.85373 0.64037 0.0
H2257 H 0.74964 0.86217 0.58088 0.0
H2258 H 0.74455 0.89345 0.56282 0.0
C2259 C 0.76142 0.90784 0.43982 0.0
C2260 C 0.7691 0.88982 0.50587 0.0
C2261 C 0.76098 0.90946 0.40382 0.0
C2262 C 0.74939 0.86377 0.63645 0.0
C2263 C 0.75137 0.86858 0.60255 0.0
C2264 C 0.75149 0.89249 0.54714 0.0
C2265 C 0.76276 0.89769 0.45315 0.0
C2266 C 0.76197 0.89498 0.49114 0.0
C2267 C 0.75559 0.88159 0.59669 0.0
C2268 C 0.75813 0.88672 0.56096 0.0
H2269 H 0.76462 0.88448 0.37693 0.0
H2270 H 0.76493 0.88146 0.43872 0.0
H2271 H 0.74753 0.90028 0.50194 0.0
H2272 H 0.75798 0.89148 0.68054 0.0
H2273 H 0.76098 0.89977 0.621 0.0
C2274 C 0.11716 0.87094 0.65955 0.0
C2275 C 0.13014 0.87971 0.66607 0.0
C2276 C 0.11267 0.86781 0.62544 0.0
C2277 C 0.1177 0.88116 0.54023 0.0
H2278 H 0.10219 0.84668 0.50316 0.0
C2279 C 0.11165 0.87167 0.39412 0.0
C2280 C 0.1015 0.86015 0.38114 0.0
C2281 C 0.11357 0.87374 0.42975 0.0
C2282 C 0.10622 0.85631 0.51326 0.0
H2283 H 0.14862 0.89204 0.64233 0.0
H2284 H 0.14063 0.88684 0.58245 0.0
H2285 H 0.10885 0.85063 0.56415 0.0
H2286 H 0.08506 0.84196 0.39573 0.0
H2287 H 0.08818 0.84579 0.45837 0.0
H2288 H 0.11485 0.88692 0.49011 0.0
C2289 C 0.13403 0.88229 0.60385 0.0
C2290 C 0.11013 0.85856 0.54805 0.0
C2291 C 0.13859 0.88521 0.63797 0.0
C2292 C 0.093 0.85093 0.40484 0.0
C2293 C 0.09485 0.85308 0.44074 0.0
C2294 C 0.11357 0.87889 0.50574 0.0
C2295 C 0.12104 0.87363 0.59741 0.0
C2296 C 0.11616 0.87104 0.56145 0.0
C2297 C 0.10529 0.86445 0.4536 0.0
C2298 C 0.10809 0.8665 0.4915 0.0
H2299 H 0.11045 0.86654 0.68082 0.0
H2300 H 0.10261 0.86113 0.62094 0.0
H2301 H 0.12214 0.89083 0.55035 0.0
H2302 H 0.11843 0.87902 0.3768 0.0
H2303 H 0.12187 0.8825 0.43847 0.0
C2304 C 0.75633 0.87122 0.15889 0.0
C2305 C 0.7522 0.8801 0.16475 0.0
C2306 C 0.75802 0.86813 0.12502 0.0
C2307 C 0.76741 0.88153 0.04021 0.0
H2308 H 0.74768 0.8473 0.00192 0.0
C2309 C 0.76404 0.87263 0.89392 0.0
C2310 C 0.76207 0.86093 0.88047 0.0
C2311 C 0.76439 0.87462 0.92963 0.0
C2312 C 0.7535 0.85685 0.01238 0.0
H2313 H 0.74654 0.89266 0.14005 0.0
H2314 H 0.74991 0.88754 0.08061 0.0
H2315 H 0.74473 0.85119 0.06278 0.0
H2316 H 0.75957 0.84237 0.8943 0.0
H2317 H 0.76061 0.84605 0.9571 0.0
H2318 H 0.77644 0.88726 0.99056 0.0
C2319 C 0.75165 0.88288 0.10234 0.0
C2320 C 0.75171 0.85907 0.0471 0.0
C2321 C 0.74967 0.88575 0.1362 0.0
C2322 C 0.76107 0.85148 0.90377 0.0
C2323 C 0.76154 0.85355 0.93977 0.0
C2324 C 0.76941 0.87928 0.00581 0.0
C2325 C 0.75588 0.8741 0.09658 0.0
C2326 C 0.75842 0.87148 0.06089 0.0
C2327 C 0.76297 0.86507 0.95311 0.0
C2328 C 0.76221 0.86699 0.9911 0.0
H2329 H 0.7583 0.86669 0.18051 0.0
H2330 H 0.7613 0.86135 0.12103 0.0
H2331 H 0.77283 0.89114 0.05065 0.0
H2332 H 0.76486 0.88017 0.87691 0.0
H2333 H 0.76525 0.88352 0.9387 0.0
C2334 C 0.129 0.88407 0.1582 0.0
C2335 C 0.11972 0.87116 0.16371 0.0
C2336 C 0.13213 0.88899 0.12451 0.0
C2337 C 0.11874 0.88602 0.03997 0.0
H2338 H 0.15288 0.89965 0.00174 0.0
C2339 C 0.12799 0.89225 0.89385 0.0
C2340 C 0.13992 0.90166 0.88081 0.0
C2341 C 0.12583 0.89052 0.92949 0.0
C2342 C 0.14337 0.89618 0.0122 0.0
H2343 H 0.10645 0.85328 0.13857 0.0
H2344 H 0.11167 0.86206 0.07939 0.0
H2345 H 0.14871 0.89238 0.06218 0.0
H2346 H 0.15873 0.91714 0.89526 0.0
H2347 H 0.15479 0.91438 0.95792 0.0
H2348 H 0.11333 0.89002 0.99073 0.0
C2349 C 0.1166 0.86825 0.10127 0.0
C2350 C 0.14099 0.89191 0.04667 0.0
C2351 C 0.11368 0.86323 0.13497 0.0
C2352 C 0.14944 0.90978 0.90442 0.0
C2353 C 0.14722 0.90811 0.94034 0.0
C2354 C 0.12116 0.89053 0.00581 0.0
C2355 C 0.12581 0.88116 0.09588 0.0
C2356 C 0.12859 0.88651 0.06043 0.0
C2357 C 0.13547 0.89826 0.95328 0.0
C2358 C 0.13341 0.89532 0.99112 0.0
H2359 H 0.13383 0.89037 0.17998 0.0
H2360 H 0.13924 0.89898 0.12081 0.0
H2361 H 0.10915 0.88208 0.0504 0.0
H2362 H 0.12038 0.8858 0.87658 0.0
H2363 H 0.11674 0.88268 0.93825 0.0
C2364 C 0.10908 0.23623 0.89532 0.0
C2365 C 0.0994 0.23836 0.8823 0.0
C2366 C 0.11084 0.23583 0.93096 0.0
C2367 C 0.10441 0.24689 0.01415 0.0
H2368 H 0.11941 0.22749 0.0517 0.0
C2369 C 0.11652 0.24442 0.16024 0.0
C2370 C 0.12954 0.24856 0.16574 0.0
C2371 C 0.11159 0.24256 0.12651 0.0
C2372 C 0.11521 0.23293 0.04146 0.0
H2373 H 0.08353 0.24107 0.89684 0.0
H2374 H 0.08635 0.23993 0.95948 0.0
H2375 H 0.1117 0.22387 0.99182 0.0
H2376 H 0.14763 0.25399 0.14053 0.0
H2377 H 0.13887 0.25031 0.08136 0.0
H2378 H 0.10774 0.2557 0.06453 0.0
C2379 C 0.0928 0.23892 0.94188 0.0
C2380 C 0.11084 0.23093 0.00717 0.0
C2381 C 0.0911 0.23945 0.90596 0.0
C2382 C 0.13758 0.25086 0.13696 0.0
C2383 C 0.13257 0.2487 0.10325 0.0
C2384 C 0.10855 0.24869 0.04875 0.0
C2385 C 0.10287 0.23736 0.9548 0.0
C2386 C 0.10573 0.23815 0.99271 0.0
C2387 C 0.11955 0.24452 0.09785 0.0
C2388 C 0.11426 0.24195 0.0623 0.0
H2389 H 0.11567 0.23533 0.87802 0.0
H2390 H 0.11885 0.23486 0.93969 0.0
H2391 H 0.10068 0.25274 0.0039 0.0
H2392 H 0.11013 0.24263 0.18203 0.0
H2393 H 0.10152 0.23932 0.12281 0.0
C2394 C 0.87404 0.75528 0.33544 0.0
C2395 C 0.88255 0.75077 0.32898 0.0
C2396 C 0.8703 0.75595 0.36937 0.0
C2397 C 0.87034 0.74461 0.45956 0.0
H2398 H 0.86564 0.77315 0.48509 0.0
C2399 C 0.87172 0.76081 0.59996 0.0
C2400 C 0.86028 0.75991 0.61209 0.0
C2401 C 0.87363 0.75995 0.56459 0.0
C2402 C 0.86681 0.76508 0.47809 0.0
H2403 H 0.89393 0.74349 0.35275 0.0
H2404 H 0.88789 0.74517 0.41219 0.0
H2405 H 0.87075 0.77089 0.42489 0.0
H2406 H 0.8422 0.75816 0.59613 0.0
H2407 H 0.84582 0.75705 0.53365 0.0
H2408 H 0.86705 0.73928 0.51335 0.0
C2409 C 0.88372 0.7478 0.39107 0.0
C2410 C 0.86968 0.76373 0.44366 0.0
C2411 C 0.88726 0.7469 0.35703 0.0
C2412 C 0.8511 0.75886 0.58769 0.0
C2413 C 0.85314 0.75822 0.55203 0.0
C2414 C 0.86771 0.74612 0.49401 0.0
C2415 C 0.87519 0.75235 0.3977 0.0
C2416 C 0.8716 0.75353 0.434 0.0
C2417 C 0.86427 0.75841 0.54046 0.0
C2418 C 0.86604 0.75641 0.50354 0.0
H2419 H 0.87015 0.7582 0.31421 0.0
H2420 H 0.86352 0.75923 0.3733 0.0
H2421 H 0.87142 0.73647 0.45305 0.0
H2422 H 0.87908 0.76172 0.61781 0.0
H2423 H 0.88235 0.76027 0.55607 0.0
C2424 C 0.23475 0.10475 0.59895 0.0
C2425 C 0.24107 0.09852 0.61221 0.0
C2426 C 0.23478 0.10699 0.56336 0.0
C2427 C 0.23171 0.1056 0.4848 0.0
H2428 H 0.26501 0.12153 0.4401 0.0
C2429 C 0.23857 0.11861 0.3391 0.0
C2430 C 0.24876 0.13079 0.33029 0.0
C2431 C 0.2374 0.11384 0.37277 0.0
C2432 C 0.25566 0.11712 0.4523 0.0
H2433 H 0.25197 0.08932 0.59819 0.0
H2434 H 0.25209 0.09335 0.53575 0.0
H2435 H 0.26275 0.11376 0.49993 0.0
H2436 H 0.26572 0.14753 0.34999 0.0
H2437 H 0.26365 0.13916 0.40909 0.0
H2438 H 0.22466 0.10918 0.43752 0.0
C2439 C 0.24715 0.09651 0.55315 0.0
C2440 C 0.25434 0.11253 0.48633 0.0
C2441 C 0.24699 0.09411 0.58884 0.0
C2442 C 0.25777 0.13811 0.35596 0.0
C2443 C 0.25663 0.13329 0.3897 0.0
C2444 C 0.23301 0.11009 0.45072 0.0
C2445 C 0.24123 0.10316 0.54019 0.0
C2446 C 0.24237 0.10687 0.50305 0.0
C2447 C 0.24642 0.12111 0.39842 0.0
C2448 C 0.24503 0.11603 0.43425 0.0
H2449 H 0.23009 0.10827 0.61615 0.0
H2450 H 0.23022 0.11223 0.55417 0.0
H2451 H 0.22237 0.10122 0.49702 0.0
H2452 H 0.23146 0.1127 0.31996 0.0
H2453 H 0.2295 0.10438 0.37865 0.0
C2454 C 0.89155 0.12735 0.6015 0.0
C2455 C 0.90132 0.13935 0.61315 0.0
C2456 C 0.88937 0.12472 0.56614 0.0
C2457 C 0.89476 0.14114 0.48154 0.0
H2458 H 0.87982 0.10637 0.44678 0.0
C2459 C 0.88236 0.12573 0.33679 0.0
C2460 C 0.86949 0.11637 0.33129 0.0
C2461 C 0.88724 0.12898 0.37048 0.0
C2462 C 0.88398 0.11611 0.45626 0.0
H2463 H 0.91693 0.15777 0.59649 0.0
H2464 H 0.9134 0.15298 0.53435 0.0
H2465 H 0.88794 0.11118 0.50623 0.0
H2466 H 0.85162 0.10306 0.35645 0.0
H2467 H 0.86033 0.10852 0.41567 0.0
H2468 H 0.89102 0.14601 0.43087 0.0
C2469 C 0.90719 0.14574 0.5528 0.0
C2470 C 0.88859 0.11888 0.49029 0.0
C2471 C 0.90929 0.14845 0.58842 0.0
C2472 C 0.86156 0.11034 0.36005 0.0
C2473 C 0.86653 0.1134 0.39377 0.0
C2474 C 0.89038 0.13839 0.44723 0.0
C2475 C 0.89702 0.13393 0.54125 0.0
C2476 C 0.89374 0.13137 0.50369 0.0
C2477 C 0.8794 0.12273 0.39915 0.0
C2478 C 0.8847 0.12581 0.43466 0.0
H2479 H 0.88519 0.12007 0.61966 0.0
H2480 H 0.88131 0.11561 0.55845 0.0
H2481 H 0.89849 0.15082 0.49101 0.0
H2482 H 0.88866 0.13056 0.31502 0.0
H2483 H 0.8972 0.13619 0.37414 0.0
C2484 C 0.91208 0.46048 0.16983 0.0
C2485 C 0.91562 0.45115 0.16396 0.0
C2486 C 0.9107 0.4638 0.20366 0.0
C2487 C 0.90147 0.45087 0.28927 0.0
H2488 H 0.9215 0.48553 0.32447 0.0
C2489 C 0.90502 0.46176 0.43463 0.0
C2490 C 0.90706 0.47367 0.44652 0.0
C2491 C 0.90467 0.45925 0.39923 0.0
C2492 C 0.9156 0.47586 0.31488 0.0
H2493 H 0.92052 0.43801 0.18859 0.0
H2494 H 0.91769 0.44357 0.2481 0.0
H2495 H 0.92418 0.48086 0.26416 0.0
H2496 H 0.9097 0.49207 0.43024 0.0
H2497 H 0.90863 0.48748 0.36799 0.0
H2498 H 0.89259 0.4458 0.33924 0.0
C2499 C 0.91617 0.44838 0.22636 0.0
C2500 C 0.91725 0.4732 0.28048 0.0
C2501 C 0.91785 0.44526 0.19248 0.0
C2502 C 0.90815 0.48281 0.42198 0.0
C2503 C 0.90766 0.48022 0.3863 0.0
C2504 C 0.89962 0.45355 0.32337 0.0
C2505 C 0.91255 0.45764 0.23211 0.0
C2506 C 0.91039 0.46063 0.26776 0.0
C2507 C 0.90616 0.46849 0.37453 0.0
C2508 C 0.9069 0.46602 0.33693 0.0
H2509 H 0.91036 0.46521 0.14823 0.0
H2510 H 0.90788 0.47094 0.20762 0.0
H2511 H 0.89592 0.44115 0.27966 0.0
H2512 H 0.90413 0.45445 0.45264 0.0
H2513 H 0.90375 0.45021 0.39135 0.0
C2514 C 0.5397 0.45127 0.16675 0.0
C2515 C 0.54777 0.46437 0.15995 0.0
C2516 C 0.53596 0.44693 0.20076 0.0
C2517 C 0.53509 0.45844 0.29029 0.0
H2518 H 0.53209 0.42609 0.31799 0.0
C2519 C 0.53769 0.44513 0.43167 0.0
C2520 C 0.52651 0.43443 0.44444 0.0
C2521 C 0.53936 0.44765 0.39613 0.0
C2522 C 0.53277 0.43507 0.31038 0.0
H2523 H 0.55834 0.4832 0.18328 0.0
H2524 H 0.55229 0.47563 0.24277 0.0
H2525 H 0.53692 0.4331 0.25743 0.0
H2526 H 0.50867 0.4176 0.42943 0.0
H2527 H 0.51191 0.42191 0.36668 0.0
H2528 H 0.53163 0.46064 0.34384 0.0
C2529 C 0.54846 0.4687 0.22186 0.0
C2530 C 0.53548 0.43909 0.27573 0.0
C2531 C 0.55201 0.47306 0.18776 0.0
C2532 C 0.51737 0.42593 0.42051 0.0
C2533 C 0.51919 0.42837 0.38469 0.0
C2534 C 0.53263 0.45453 0.32495 0.0
C2535 C 0.54039 0.45556 0.22885 0.0
C2536 C 0.53682 0.45091 0.2653 0.0
C2537 C 0.53005 0.43943 0.37246 0.0
C2538 C 0.53157 0.44289 0.33528 0.0
H2539 H 0.5362 0.44436 0.14572 0.0
H2540 H 0.52955 0.4368 0.20494 0.0
H2541 H 0.53571 0.46742 0.28319 0.0
H2542 H 0.545 0.45187 0.44914 0.0
H2543 H 0.54787 0.45617 0.38711 0.0
C2544 C 0.55847 0.09573 0.43148 0.0
C2545 C 0.56839 0.09403 0.4449 0.0
C2546 C 0.55622 0.0951 0.39582 0.0
C2547 C 0.56782 0.1003 0.31088 0.0
H2548 H 0.53617 0.06998 0.28391 0.0
C2549 C 0.55099 0.09062 0.16772 0.0
C2550 C 0.53779 0.08511 0.16148 0.0
C2551 C 0.55559 0.09143 0.20152 0.0
C2552 C 0.54495 0.07857 0.29096 0.0
H2553 H 0.5842 0.09111 0.43091 0.0
H2554 H 0.58034 0.09035 0.36794 0.0
H2555 H 0.54329 0.07276 0.34432 0.0
H2556 H 0.51906 0.07624 0.18566 0.0
H2557 H 0.52708 0.07807 0.24478 0.0
H2558 H 0.56922 0.10654 0.25817 0.0
C2559 C 0.57429 0.092 0.38556 0.0
C2560 C 0.54908 0.08006 0.32544 0.0
C2561 C 0.57649 0.09245 0.42149 0.0
C2562 C 0.52928 0.08043 0.18968 0.0
C2563 C 0.53389 0.08142 0.22356 0.0
C2564 C 0.5636 0.09892 0.27641 0.0
C2565 C 0.56393 0.09298 0.37273 0.0
C2566 C 0.56046 0.09097 0.33564 0.0
C2567 C 0.54711 0.08692 0.22993 0.0
C2568 C 0.55202 0.0881 0.2661 0.0
H2569 H 0.55208 0.09705 0.44854 0.0
H2570 H 0.54822 0.09596 0.38627 0.0
H2571 H 0.57657 0.10884 0.31849 0.0
H2572 H 0.55778 0.09421 0.14643 0.0
H2573 H 0.56579 0.09551 0.20527 0.0
C2574 C 0.7966 0.57207 0.72872 0.0
C2575 C 0.80841 0.57401 0.71617 0.0
C2576 C 0.79467 0.5727 0.76417 0.0
C2577 C 0.80193 0.56857 0.85045 0.0
H2578 H 0.7969 0.59702 0.8744 0.0
C2579 C 0.79442 0.57877 0.99256 0.0
C2580 C 0.78577 0.58315 -0.00138 0.0
C2581 C 0.79819 0.57798 0.95875 0.0
C2582 C 0.79811 0.58893 0.8682 0.0
H2583 H 0.82715 0.57727 0.73149 0.0
H2584 H 0.82351 0.57799 0.79413 0.0
H2585 H 0.80141 0.59412 0.81431 0.0
H2586 H 0.77418 0.59005 0.97422 0.0
H2587 H 0.78029 0.58819 0.915 0.0
H2588 H 0.79796 0.56291 0.90376 0.0
C2589 C 0.81591 0.57619 0.77599 0.0
C2590 C 0.80082 0.58737 0.83388 0.0
C2591 C 0.81795 0.57575 0.74025 0.0
C2592 C 0.78095 0.58674 0.97027 0.0
C2593 C 0.78453 0.58574 0.93635 0.0
C2594 C 0.79898 0.56999 0.88477 0.0
C2595 C 0.80439 0.57505 0.78794 0.0
C2596 C 0.80264 0.57714 0.82476 0.0
C2597 C 0.79321 0.58135 0.93015 0.0
C2598 C 0.79691 0.58012 0.89401 0.0
H2599 H 0.78896 0.57058 0.71112 0.0
H2600 H 0.78567 0.57167 0.77303 0.0
H2601 H 0.8032 0.56056 0.84372 0.0
H2602 H 0.7984 0.57605 0.01402 0.0
H2603 H 0.80507 0.57482 0.95514 0.0
C2604 C 0.42727 0.24299 0.73978 0.0
C2605 C 0.42871 0.23501 0.71574 0.0
C2606 C 0.42774 0.24108 0.77561 0.0
C2607 C 0.43611 0.2231 0.84007 0.0
H2608 H 0.4106 0.22495 0.89729 0.0
C2609 C 0.41683 0.19578 0.96951 0.0
C2610 C 0.41872 0.2037 -0.00173 0.0
C2611 C 0.41878 0.20076 0.93579 0.0
C2612 C 0.4178 0.22447 0.88154 0.0
H2613 H 0.43233 0.21912 0.71071 0.0
H2614 H 0.43268 0.2156 0.77219 0.0
H2615 H 0.41363 0.23239 0.83701 0.0
H2616 H 0.42365 0.22286 0.01454 0.0
H2617 H 0.4266 0.23142 0.95538 0.0
H2618 H 0.43971 0.21451 0.88426 0.0
C2619 C 0.43148 0.22351 0.76385 0.0
C2620 C 0.41964 0.22884 0.84716 0.0
C2621 C 0.43115 0.22548 0.7283 0.0
C2622 C 0.42219 0.21656 0.99276 0.0
C2623 C 0.42384 0.22145 0.95905 0.0
C2624 C 0.43406 0.21849 0.87413 0.0
C2625 C 0.42957 0.23113 0.78805 0.0
C2626 C 0.42868 0.228 0.82578 0.0
C2627 C 0.42233 0.21364 0.9304 0.0
C2628 C 0.42478 0.21899 0.89492 0.0
H2629 H 0.42541 0.25044 0.731 0.0
H2630 H 0.42643 0.24727 0.79352 0.0
H2631 H 0.44339 0.2226 0.82476 0.0
H2632 H 0.41421 0.18585 0.9731 0.0
H2633 H 0.41753 0.19458 0.9139 0.0
C2634 C 0.75929 0.1844 0.73993 0.0
C2635 C 0.76762 0.1936 0.71593 0.0
C2636 C 0.76131 0.18664 0.77576 0.0
C2637 C 0.78026 0.21262 0.84018 0.0
H2638 H 0.77597 0.18449 0.89851 0.0
C2639 C 0.8057 0.21922 0.97199 0.0
C2640 C 0.79731 0.21366 0.00019 0.0
C2641 C 0.80109 0.21629 0.93792 0.0
C2642 C 0.77714 0.19239 0.88242 0.0
H2643 H 0.78441 0.21255 0.71099 0.0
H2644 H 0.78814 0.21618 0.77252 0.0
H2645 H 0.76904 0.18043 0.83775 0.0
H2646 H 0.77769 0.20034 0.01513 0.0
H2647 H 0.76976 0.19489 0.95535 0.0
H2648 H 0.78897 0.22463 0.88458 0.0
C2649 C 0.77984 0.20737 0.76411 0.0
C2650 C 0.77307 0.19008 0.84777 0.0
C2651 C 0.77775 0.20521 0.72855 0.0
C2652 C 0.78434 0.20479 0.99379 0.0
C2653 C 0.77981 0.20164 0.95974 0.0
C2654 C 0.78455 0.21495 0.87453 0.0
C2655 C 0.77176 0.19808 0.78825 0.0
C2656 C 0.77477 0.20021 0.82604 0.0
C2657 C 0.78811 0.20753 0.93162 0.0
C2658 C 0.78316 0.20489 0.89573 0.0
H2659 H 0.75138 0.17536 0.7311 0.0
H2660 H 0.75478 0.17935 0.79362 0.0
H2661 H 0.78141 0.22061 0.82459 0.0
H2662 H 0.81572 0.22613 0.97627 0.0
H2663 H 0.80764 0.22089 0.91645 0.0
C2664 C 0.41455 0.21972 0.47176 0.0
C2665 C 0.41737 0.21418 0.50004 0.0
C2666 C 0.41621 0.21674 0.43773 0.0
C2667 C 0.41623 0.1927 0.38259 0.0
H2668 H 0.43997 0.22083 0.32419 0.0
C2669 C 0.42592 0.18447 0.2401 0.0
C2670 C 0.4267 0.1936 0.21598 0.0
C2671 C 0.42618 0.18678 0.2759 0.0
C2672 C 0.43319 0.21287 0.33994 0.0
H2673 H 0.42362 0.20084 0.51516 0.0
H2674 H 0.42608 0.1953 0.45546 0.0
H2675 H 0.43651 0.22497 0.38414 0.0
H2676 H 0.42873 0.21249 0.21081 0.0
H2677 H 0.4287 0.21623 0.27229 0.0
H2678 H 0.41235 0.18065 0.33812 0.0
C2679 C 0.4228 0.20208 0.45975 0.0
C2680 C 0.43128 0.21526 0.37427 0.0
C2681 C 0.42144 0.20528 0.49376 0.0
C2682 C 0.42811 0.2052 0.22846 0.0
C2683 C 0.42822 0.20743 0.26399 0.0
C2684 C 0.41794 0.19032 0.34796 0.0
C2685 C 0.4204 0.20794 0.43154 0.0
C2686 C 0.42267 0.20523 0.39568 0.0
C2687 C 0.42713 0.19822 0.28825 0.0
C2688 C 0.4263 0.20042 0.32603 0.0
H2689 H 0.41146 0.22665 0.47594 0.0
H2690 H 0.41427 0.22132 0.4162 0.0
H2691 H 0.40956 0.18483 0.39883 0.0
H2692 H 0.42485 0.17544 0.23138 0.0
H2693 H 0.4255 0.17954 0.29386 0.0
C2694 C 0.79506 0.21682 0.49278 0.0
C2695 C 0.78574 0.20394 0.49835 0.0
C2696 C 0.79827 0.22169 0.45905 0.0
C2697 C 0.78507 0.21863 0.37421 0.0
H2698 H 0.81934 0.23241 0.33684 0.0
C2699 C 0.79481 0.22529 0.2283 0.0
C2700 C 0.80677 0.23478 0.21561 0.0
C2701 C 0.79254 0.22341 0.26387 0.0
C2702 C 0.80979 0.2289 0.34705 0.0
H2703 H 0.77249 0.18603 0.47329 0.0
H2704 H 0.77785 0.19472 0.41404 0.0
H2705 H 0.815 0.22507 0.39721 0.0
H2706 H 0.82552 0.25023 0.23064 0.0
H2707 H 0.82138 0.24723 0.29319 0.0
H2708 H 0.7798 0.22266 0.32481 0.0
C2709 C 0.78275 0.20093 0.4359 0.0
C2710 C 0.80731 0.22459 0.38148 0.0
C2711 C 0.77974 0.19597 0.46964 0.0
C2712 C 0.81621 0.24281 0.23952 0.0
C2713 C 0.81387 0.241 0.27537 0.0
C2714 C 0.78759 0.22317 0.34009 0.0
C2715 C 0.792 0.21383 0.43045 0.0
C2716 C 0.79486 0.21915 0.39494 0.0
C2717 C 0.80209 0.23108 0.28795 0.0
C2718 C 0.7999 0.22803 0.32572 0.0
H2719 H 0.79986 0.22315 0.51453 0.0
H2720 H 0.80542 0.23167 0.45532 0.0
H2721 H 0.77544 0.21466 0.38441 0.0
H2722 H 0.78726 0.2189 0.21079 0.0
H2723 H 0.78343 0.21553 0.27234 0.0
C2724 C 0.78601 0.57998 0.49334 0.0
C2725 C 0.79906 0.58459 0.49991 0.0
C2726 C 0.78163 0.57925 0.45936 0.0
C2727 C 0.79304 0.5906 0.36922 0.0
H2728 H 0.76 0.56184 0.34346 0.0
C2729 C 0.77856 0.57414 0.22885 0.0
C2730 C 0.76811 0.57514 0.2164 0.0
C2731 C 0.78121 0.57499 0.26429 0.0
C2732 C 0.76918 0.56996 0.35053 0.0
H2733 H 0.81775 0.59199 0.47629 0.0
H2734 H 0.81006 0.59022 0.41679 0.0
H2735 H 0.76728 0.5642 0.40378 0.0
H2736 H 0.7518 0.57702 0.23187 0.0
H2737 H 0.75634 0.5781 0.29446 0.0
H2738 H 0.79513 0.59589 0.31538 0.0
C2739 C 0.80323 0.58756 0.43785 0.0
C2740 C 0.77335 0.57138 0.38503 0.0
C2741 C 0.80766 0.58851 0.47193 0.0
C2742 C 0.75993 0.57624 0.24055 0.0
C2743 C 0.76251 0.57687 0.27627 0.0
C2744 C 0.78896 0.58903 0.33471 0.0
C2745 C 0.79015 0.5829 0.4311 0.0
C2746 C 0.78541 0.58167 0.39475 0.0
C2747 C 0.77337 0.5766 0.28815 0.0
C2748 C 0.77706 0.57865 0.32511 0.0
H2749 H 0.77918 0.57701 0.51452 0.0
H2750 H 0.77155 0.57588 0.45534 0.0
H2751 H 0.80221 0.5988 0.37578 0.0
H2752 H 0.78503 0.57319 0.21119 0.0
H2753 H 0.78956 0.57462 0.27307 0.0
C2754 C 0.55186 0.08009 0.68923 0.0
C2755 C 0.54783 0.0846 0.66108 0.0
C2756 C 0.54828 0.08107 0.72316 0.0
C2757 C 0.53569 0.09824 0.7761 0.0
H2758 H 0.53077 0.07252 0.84445 0.0
C2759 C 0.51701 0.09251 0.92134 0.0
C2760 C 0.52654 0.09379 0.94483 0.0
C2761 C 0.51872 0.09197 0.88543 0.0
C2762 C 0.53204 0.0797 0.82546 0.0
H2763 H 0.53663 0.09338 0.64614 0.0
H2764 H 0.52997 0.09463 0.70508 0.0
H2765 H 0.53498 0.06969 0.78399 0.0
H2766 H 0.54563 0.09617 0.9486 0.0
H2767 H 0.54834 0.0949 0.8864 0.0
H2768 H 0.5325 0.10808 0.81812 0.0
C2769 C 0.53622 0.09071 0.70126 0.0
C2770 C 0.53459 0.07818 0.79093 0.0
C2771 C 0.53998 0.08992 0.66741 0.0
C2772 C 0.53801 0.09508 0.93149 0.0
C2773 C 0.5396 0.09434 0.89586 0.0
C2774 C 0.53292 0.09964 0.81063 0.0
C2775 C 0.54039 0.08638 0.72965 0.0
C2776 C 0.53673 0.08756 0.76589 0.0
C2777 C 0.5299 0.09254 0.87268 0.0
C2778 C 0.53131 0.09049 0.83557 0.0
H2779 H 0.55802 0.07605 0.68513 0.0
H2780 H 0.55192 0.07787 0.74434 0.0
H2781 H 0.53744 0.10575 0.75773 0.0
H2782 H 0.50807 0.09148 0.9307 0.0
H2783 H 0.51113 0.09058 0.86775 0.0
C2784 C 0.91965 0.47359 0.69198 0.0
C2785 C 0.91746 0.46542 0.66361 0.0
C2786 C 0.91799 0.46886 0.72595 0.0
C2787 C 0.91886 0.44511 0.78077 0.0
H2788 H 0.89386 0.44779 0.83816 0.0
C2789 C 0.90847 0.42571 0.92162 0.0
C2790 C 0.90717 0.43363 0.94617 0.0
C2791 C 0.90836 0.42804 0.88595 0.0
C2792 C 0.90099 0.44708 0.82269 0.0
H2793 H 0.91234 0.44612 0.64822 0.0
H2794 H 0.90988 0.43803 0.70775 0.0
H2795 H 0.89761 0.45592 0.77872 0.0
H2796 H 0.90426 0.44993 0.95225 0.0
H2797 H 0.90453 0.45419 0.891 0.0
H2798 H 0.92276 0.43686 0.82502 0.0
C2799 C 0.91266 0.44797 0.70362 0.0
C2800 C 0.90308 0.45171 0.78867 0.0
C2801 C 0.91403 0.4526 0.66971 0.0
C2802 C 0.9053 0.4436 0.93424 0.0
C2803 C 0.90534 0.446 0.89884 0.0
C2804 C 0.91697 0.4407 0.8151 0.0
C2805 C 0.91443 0.45601 0.73193 0.0
C2806 C 0.91212 0.45088 0.76762 0.0
C2807 C 0.90703 0.43838 0.87418 0.0
C2808 C 0.90812 0.4418 0.83666 0.0
H2809 H 0.92224 0.48348 0.68791 0.0
H2810 H 0.91944 0.47522 0.74756 0.0
H2811 H 0.92587 0.44437 0.7648 0.0
H2812 H 0.90989 0.41793 0.92991 0.0
H2813 H 0.90949 0.42185 0.86765 0.0
C2814 C 0.54957 0.45523 0.67132 0.0
C2815 C 0.53695 0.45196 0.66277 0.0
C2816 C 0.55408 0.45862 0.70532 0.0
C2817 C 0.5428 0.45501 0.79581 0.0
H2818 H 0.57753 0.48217 0.81421 0.0
C2819 C 0.57436 0.48533 0.92155 0.0
C2820 C 0.56995 0.47514 0.94539 0.0
C2821 C 0.57156 0.48289 0.88606 0.0
C2822 C 0.56779 0.47461 0.80948 0.0
H2823 H 0.51921 0.4498 0.68319 0.0
H2824 H 0.52713 0.45585 0.74257 0.0
H2825 H 0.56968 0.47756 0.75433 0.0
H2826 H 0.56013 0.45444 0.95023 0.0
H2827 H 0.55562 0.45025 0.88864 0.0
H2828 H 0.54076 0.45222 0.8508 0.0
C2829 C 0.53349 0.45563 0.723 0.0
C2830 C 0.56333 0.47189 0.77519 0.0
C2831 C 0.52896 0.45222 0.68895 0.0
C2832 C 0.56354 0.46252 0.9327 0.0
C2833 C 0.56084 0.4601 0.89737 0.0
C2834 C 0.54724 0.45773 0.82998 0.0
C2835 C 0.54609 0.45883 0.73159 0.0
C2836 C 0.55078 0.46202 0.76798 0.0
C2837 C 0.56438 0.47023 0.87382 0.0
C2838 C 0.55982 0.46749 0.83724 0.0
H2839 H 0.55598 0.45511 0.65179 0.0
H2840 H 0.56376 0.46083 0.71115 0.0
H2841 H 0.53314 0.44727 0.79118 0.0
H2842 H 0.57932 0.49516 0.93047 0.0
H2843 H 0.57442 0.49091 0.86856 0.0
C2844 C 0.5729 0.79536 0.76768 0.0
C2845 C 0.57443 0.80697 0.78041 0.0
C2846 C 0.57277 0.79322 0.7321 0.0
C2847 C 0.58323 0.81051 0.6485 0.0
H2848 H 0.56433 0.77596 0.61169 0.0
C2849 C 0.57978 0.79577 0.50249 0.0
C2850 C 0.58373 0.78678 0.49619 0.0
C2851 C 0.5784 0.79895 0.5365 0.0
C2852 C 0.56965 0.78564 0.62173 0.0
H2853 H 0.57645 0.82525 0.76544 0.0
H2854 H 0.57578 0.82129 0.70287 0.0
H2855 H 0.56088 0.78003 0.67172 0.0
H2856 H 0.58942 0.77414 0.52026 0.0
H2857 H 0.5866 0.77945 0.58 0.0
H2858 H 0.5917 0.81604 0.59774 0.0
C2859 C 0.57502 0.81398 0.72066 0.0
C2860 C 0.56774 0.788 0.6561 0.0
C2861 C 0.5753 0.81621 0.75651 0.0
C2862 C 0.58642 0.78114 0.52445 0.0
C2863 C 0.58476 0.78411 0.55849 0.0
C2864 C 0.58494 0.80817 0.61383 0.0
C2865 C 0.57396 0.80252 0.70806 0.0
C2866 C 0.57476 0.8004 0.67024 0.0
C2867 C 0.58067 0.79299 0.56468 0.0
C2868 C 0.57837 0.79567 0.60053 0.0
H2869 H 0.57222 0.788 0.78515 0.0
H2870 H 0.57221 0.78439 0.72357 0.0
H2871 H 0.58891 0.82014 0.65853 0.0
H2872 H 0.57769 0.80029 0.48109 0.0
H2873 H 0.57521 0.8058 0.54081 0.0
C2874 C 0.20591 0.78417 0.50206 0.0
C2875 C 0.21416 0.79724 0.49532 0.0
C2876 C 0.20204 0.77986 0.53602 0.0
C2877 C 0.20107 0.79146 0.62526 0.0
H2878 H 0.19773 0.75901 0.65342 0.0
C2879 C 0.20352 0.7783 0.76674 0.0
C2880 C 0.19243 0.76753 0.7796 0.0
C2881 C 0.20512 0.78081 0.73121 0.0
C2882 C 0.1985 0.76801 0.64568 0.0
H2883 H 0.22491 0.81605 0.51867 0.0
H2884 H 0.21861 0.80852 0.5781 0.0
H2885 H 0.20272 0.76596 0.59287 0.0
H2886 H 0.17466 0.75058 0.76478 0.0
H2887 H 0.17777 0.75487 0.702 0.0
H2888 H 0.19753 0.79374 0.67869 0.0
C2889 C 0.21475 0.8016 0.55717 0.0
C2890 C 0.2013 0.772 0.61104 0.0
C2891 C 0.21845 0.80594 0.52312 0.0
C2892 C 0.18329 0.75897 0.75577 0.0
C2893 C 0.18503 0.7614 0.71995 0.0
C2894 C 0.1985 0.78757 0.65992 0.0
C2895 C 0.20649 0.7885 0.56409 0.0
C2896 C 0.20278 0.78386 0.60047 0.0
C2897 C 0.19582 0.77251 0.70762 0.0
C2898 C 0.19734 0.7759 0.67042 0.0
H2899 H 0.20236 0.77726 0.48104 0.0
H2900 H 0.19548 0.76976 0.54017 0.0
H2901 H 0.2018 0.80047 0.61802 0.0
H2902 H 0.21083 0.78509 0.78414 0.0
H2903 H 0.21358 0.78936 0.72211 0.0
C2904 C 0.19583 0.41547 0.52449 0.0
C2905 C 0.2042 0.41826 0.49626 0.0
C2906 C 0.20045 0.41707 0.55854 0.0
C2907 C 0.22439 0.41683 0.61362 0.0
H2908 H 0.21998 0.44045 0.67252 0.0
C2909 C 0.24203 0.42603 0.75638 0.0
C2910 C 0.23362 0.42673 0.78046 0.0
C2911 C 0.24006 0.42641 0.72057 0.0
C2912 C 0.22118 0.43371 0.65661 0.0
H2913 H 0.22378 0.42441 0.48121 0.0
H2914 H 0.23172 0.42676 0.54094 0.0
H2915 H 0.2125 0.43721 0.61246 0.0
H2916 H 0.21674 0.42873 0.78558 0.0
H2917 H 0.21311 0.42891 0.72407 0.0
H2918 H 0.23245 0.41277 0.65804 0.0
C2919 C 0.22168 0.42356 0.53661 0.0
C2920 C 0.21693 0.43191 0.62224 0.0
C2921 C 0.21715 0.42225 0.50258 0.0
C2922 C 0.22345 0.42817 0.76796 0.0
C2923 C 0.22142 0.42841 0.73242 0.0
C2924 C 0.22841 0.41842 0.6483 0.0
C2925 C 0.21341 0.42118 0.56478 0.0
C2926 C 0.21836 0.42335 0.60066 0.0
C2927 C 0.22959 0.42741 0.70819 0.0
C2928 C 0.22667 0.42673 0.67039 0.0
H2929 H 0.18583 0.41244 0.52027 0.0
H2930 H 0.19392 0.41514 0.58005 0.0
H2931 H 0.22558 0.41018 0.59726 0.0
H2932 H 0.24997 0.42494 0.76512 0.0
H2933 H 0.24665 0.42579 0.70263 0.0
C2934 C 0.48428 0.90829 0.07277 0.0
C2935 C 0.47479 0.90662 0.04859 0.0
C2936 C 0.48219 0.9087 0.1085 0.0
C2937 C 0.46705 0.91989 0.16624 0.0
H2938 H 0.46408 0.89539 0.23614 0.0
C2939 C 0.44708 0.91931 0.30242 0.0
C2940 C 0.45191 0.91576 0.33085 0.0
C2941 C 0.45066 0.91826 0.26854 0.0
C2942 C 0.46513 0.90248 0.21714 0.0
H2943 H 0.45538 0.90327 0.04336 0.0
H2944 H 0.452 0.9043 0.10523 0.0
H2945 H 0.46939 0.89306 0.17616 0.0
H2946 H 0.46451 0.90865 0.3464 0.0
H2947 H 0.47116 0.90731 0.28757 0.0
H2948 H 0.46309 0.92954 0.20669 0.0
C2949 C 0.461 0.9053 0.09647 0.0
C2950 C 0.46812 0.90108 0.18285 0.0
C2951 C 0.46298 0.9047 0.06103 0.0
C2952 C 0.46053 0.91134 0.32489 0.0
C2953 C 0.46428 0.91049 0.29111 0.0
C2954 C 0.4643 0.92144 0.20052 0.0
C2955 C 0.47067 0.90759 0.12034 0.0
C2956 C 0.46887 0.90966 0.15715 0.0
C2957 C 0.45933 0.91385 0.26244 0.0
C2958 C 0.46305 0.91262 0.22634 0.0
H2959 H 0.49348 0.90979 0.0641 0.0
H2960 H 0.48976 0.91046 0.12672 0.0
H2961 H 0.46768 0.92665 0.14666 0.0
H2962 H 0.44033 0.92265 0.30629 0.0
H2963 H 0.44643 0.92069 0.24714 0.0
C2964 C 0.09782 0.55875 0.06078 0.0
C2965 C 0.09549 0.56835 0.04818 0.0
C2966 C 0.09831 0.55692 0.09634 0.0
C2967 C 0.08709 0.56279 0.17988 0.0
H2968 H 0.10703 0.54825 0.21655 0.0
C2969 C 0.08997 0.55078 0.32546 0.0
C2970 C 0.08641 0.5379 0.33112 0.0
C2971 C 0.09157 0.55561 0.2917 0.0
C2972 C 0.10142 0.5523 0.20655 0.0
H2973 H 0.09256 0.58403 0.06332 0.0
H2974 H 0.09385 0.58107 0.12583 0.0
H2975 H 0.1105 0.55614 0.15686 0.0
H2976 H 0.08171 0.51996 0.30616 0.0
H2977 H 0.08493 0.52858 0.24685 0.0
H2978 H 0.07828 0.55915 0.2303 0.0
C2979 C 0.09495 0.57474 0.10797 0.0
C2980 C 0.10335 0.55679 0.17238 0.0
C2981 C 0.09432 0.57652 0.07214 0.0
C2982 C 0.08439 0.5299 0.30245 0.0
C2983 C 0.08629 0.53482 0.26868 0.0
C2984 C 0.08536 0.55853 0.21435 0.0
C2985 C 0.09668 0.56473 0.12048 0.0
C2986 C 0.09595 0.56175 0.15826 0.0
C2987 C 0.08993 0.54772 0.26314 0.0
C2988 C 0.0923 0.55298 0.22758 0.0
H2989 H 0.09879 0.55226 0.04324 0.0
H2990 H 0.09942 0.54896 0.10477 0.0
H2991 H 0.0811 0.56639 0.16986 0.0
H2992 H 0.09153 0.55714 0.34717 0.0
H2993 H 0.0944 0.56558 0.28791 0.0
C2994 C 0.44392 0.53691 0.06245 0.0
C2995 C 0.43362 0.52546 0.04949 0.0
C2996 C 0.44648 0.53854 0.09795 0.0
C2997 C 0.43444 0.5313 0.18378 0.0
H2998 H 0.46762 0.53585 0.20904 0.0
C2999 C 0.45176 0.53933 0.3263 0.0
C3000 C 0.4648 0.54797 0.3324 0.0
C3001 C 0.44727 0.53533 0.29256 0.0
C3002 C 0.4584 0.53476 0.20248 0.0
H3003 H 0.41746 0.50706 0.06417 0.0
H3004 H 0.42181 0.5102 0.12696 0.0
H3005 H 0.46041 0.53133 0.14877 0.0
H3006 H 0.48336 0.55925 0.30812 0.0
H3007 H 0.47549 0.55271 0.24898 0.0
H3008 H 0.43264 0.53544 0.23686 0.0
C3009 C 0.42795 0.51774 0.10907 0.0
C3010 C 0.45424 0.53204 0.16806 0.0
C3011 C 0.42547 0.51598 0.07325 0.0
C3012 C 0.47328 0.5525 0.30415 0.0
C3013 C 0.46876 0.54867 0.27028 0.0
C3014 C 0.43869 0.53426 0.21819 0.0
C3015 C 0.43868 0.5289 0.12142 0.0
C3016 C 0.44231 0.53044 0.15843 0.0
C3017 C 0.45568 0.54004 0.26403 0.0
C3018 C 0.45081 0.53618 0.22789 0.0
H3019 H 0.45037 0.5445 0.04514 0.0
H3020 H 0.45472 0.54728 0.10708 0.0
H3021 H 0.42525 0.53021 0.17669 0.0
H3022 H 0.44501 0.53557 0.34768 0.0
H3023 H 0.43721 0.52848 0.28893 0.0
C3024 C 0.08759 0.53839 0.82631 0.0
C3025 C 0.08364 0.54737 0.83269 0.0
C3026 C 0.08902 0.53527 0.79227 0.0
C3027 C 0.09799 0.54879 0.70737 0.0
H3028 H 0.07896 0.51435 0.67005 0.0
C3029 C 0.09561 0.53927 0.56133 0.0
C3030 C 0.09409 0.52764 0.54874 0.0
C3031 C 0.09555 0.54139 0.59688 0.0
C3032 C 0.08458 0.52397 0.68023 0.0
H3033 H 0.07799 0.56007 0.80876 0.0
H3034 H 0.0809 0.55488 0.74895 0.0
H3035 H 0.07588 0.51833 0.7307 0.0
H3036 H 0.09193 0.50934 0.56395 0.0
H3037 H 0.09231 0.51325 0.62646 0.0
H3038 H 0.10701 0.5545 0.6577 0.0
C3039 C 0.0827 0.55016 0.77043 0.0
C3040 C 0.0827 0.52624 0.71481 0.0
C3041 C 0.08098 0.55307 0.80449 0.0
C3042 C 0.09308 0.51838 0.57276 0.0
C3043 C 0.09318 0.52059 0.60858 0.0
C3044 C 0.10008 0.5465 0.67309 0.0
C3045 C 0.0868 0.5413 0.76415 0.0
C3046 C 0.08919 0.53871 0.72831 0.0
C3047 C 0.0942 0.53205 0.62103 0.0
C3048 C 0.09316 0.53412 0.65877 0.0
H3049 H 0.08965 0.53383 0.84766 0.0
H3050 H 0.09221 0.52843 0.7879 0.0
H3051 H 0.10327 0.55845 0.71757 0.0
H3052 H 0.0964 0.54665 0.54375 0.0
H3053 H 0.0961 0.55022 0.60526 0.0
C3054 C 0.46088 0.54992 0.82647 0.0
C3055 C 0.45192 0.53692 0.83217 0.0
C3056 C 0.46404 0.55473 0.79267 0.0
C3057 C 0.45103 0.55073 0.70695 0.0
H3058 H 0.4857 0.56595 0.67138 0.0
C3059 C 0.46157 0.55763 0.56131 0.0
C3060 C 0.47335 0.5676 0.54907 0.0
C3061 C 0.45917 0.55558 0.59681 0.0
C3062 C 0.47602 0.56201 0.68106 0.0
H3063 H 0.43924 0.51878 0.80724 0.0
H3064 H 0.4445 0.52736 0.74791 0.0
H3065 H 0.48127 0.55882 0.73191 0.0
H3066 H 0.49163 0.58365 0.56481 0.0
H3067 H 0.48723 0.58034 0.62718 0.0
H3068 H 0.44571 0.55413 0.65684 0.0
C3069 C 0.44916 0.53371 0.76971 0.0
C3070 C 0.4735 0.55783 0.7156 0.0
C3071 C 0.44621 0.52882 0.80351 0.0
C3072 C 0.48247 0.57586 0.57335 0.0
C3073 C 0.47999 0.57388 0.6091 0.0
C3074 C 0.45358 0.55514 0.67271 0.0
C3075 C 0.45807 0.54671 0.76411 0.0
C3076 C 0.46094 0.5519 0.72847 0.0
C3077 C 0.46838 0.56356 0.62125 0.0
C3078 C 0.46604 0.56052 0.65899 0.0
H3079 H 0.46546 0.55636 0.84816 0.0
H3080 H 0.47092 0.56479 0.78883 0.0
H3081 H 0.44131 0.54637 0.71665 0.0
H3082 H 0.45428 0.55104 0.54352 0.0
H3083 H 0.45022 0.54739 0.60496 0.0
C3084 C 0.47429 0.92154 0.80438 0.0
C3085 C 0.46569 0.91754 0.83238 0.0
C3086 C 0.46987 0.92073 0.77034 0.0
C3087 C 0.44001 0.90478 0.71748 0.0
H3088 H 0.46182 0.92951 0.6483 0.0
C3089 C 0.42655 0.90964 0.57311 0.0
C3090 C 0.4348 0.90866 0.54896 0.0
C3091 C 0.42914 0.91032 0.60883 0.0
C3092 C 0.45563 0.92259 0.6675 0.0
H3093 H 0.44582 0.90995 0.84707 0.0
H3094 H 0.4382 0.90906 0.78798 0.0
H3095 H 0.46886 0.93224 0.70872 0.0
H3096 H 0.45192 0.90705 0.54375 0.0
H3097 H 0.45648 0.90856 0.60561 0.0
H3098 H 0.42669 0.89535 0.67578 0.0
C3099 C 0.44827 0.91239 0.79195 0.0
C3100 C 0.45969 0.92405 0.70201 0.0
C3101 C 0.45265 0.91298 0.82587 0.0
C3102 C 0.44538 0.90789 0.5614 0.0
C3103 C 0.44805 0.90879 0.59684 0.0
C3104 C 0.43585 0.90346 0.68298 0.0
C3105 C 0.45679 0.91614 0.76367 0.0
C3106 C 0.45205 0.91503 0.72737 0.0
C3107 C 0.44011 0.91024 0.62071 0.0
C3108 C 0.44375 0.91223 0.65771 0.0
H3109 H 0.48437 0.92499 0.80868 0.0
H3110 H 0.4767 0.92346 0.74926 0.0
H3111 H 0.43393 0.89754 0.73609 0.0
H3112 H 0.41833 0.91024 0.56442 0.0
H3113 H 0.42289 0.91141 0.62702 0.0
C3114 C 0.20678 0.43184 0.2679 0.0
C3115 C 0.19486 0.42955 0.28048 0.0
C3116 C 0.20904 0.43209 0.23235 0.0
C3117 C 0.19175 0.42021 0.14929 0.0
H3118 H 0.22612 0.43998 0.11181 0.0
C3119 C 0.20628 0.42231 0.00367 0.0
C3120 C 0.21566 0.41883 -0.00187 0.0
C3121 C 0.2031 0.42403 0.03737 0.0
C3122 C 0.21649 0.43441 0.12205 0.0
H3123 H 0.1762 0.42645 0.26525 0.0
H3124 H 0.18032 0.42733 0.20274 0.0
H3125 H 0.22184 0.44384 0.17126 0.0
H3126 H 0.22903 0.41434 0.02321 0.0
H3127 H 0.22372 0.41777 0.08243 0.0
H3128 H 0.18647 0.41105 0.09933 0.0
C3129 C 0.18779 0.42857 0.22063 0.0
C3130 C 0.21402 0.43657 0.15607 0.0
C3131 C 0.18547 0.42819 0.25646 0.0
C3132 C 0.22173 0.41697 0.02685 0.0
C3133 C 0.21876 0.41899 0.06056 0.0
C3134 C 0.1942 0.41825 0.11495 0.0
C3135 C 0.19952 0.43026 0.20819 0.0
C3136 C 0.20169 0.42925 0.17049 0.0
C3137 C 0.20946 0.42258 0.06599 0.0
C3138 C 0.20665 0.42513 0.10144 0.0
H3139 H 0.21429 0.43296 0.28548 0.0
H3140 H 0.2181 0.43318 0.22399 0.0
H3141 H 0.18219 0.41428 0.15955 0.0
H3142 H 0.20141 0.42375 0.98191 0.0
H3143 H 0.19592 0.42682 0.04107 0.0
C3144 C 0.58393 0.80432 0.02661 0.0
C3145 C 0.58197 0.79636 -0.00211 0.0
C3146 C 0.58193 0.79934 0.06034 0.0
C3147 C 0.58263 0.77552 0.11466 0.0
H3148 H 0.5574 0.77795 0.17164 0.0
C3149 C 0.57336 0.75755 0.25691 0.0
C3150 C 0.5722 0.76576 0.28074 0.0
C3151 C 0.5728 0.75931 0.22104 0.0
C3152 C 0.56457 0.77729 0.15626 0.0
H3153 H 0.57684 0.77714 0.98168 0.0
H3154 H 0.57379 0.76858 0.04087 0.0
H3155 H 0.56102 0.78587 0.11197 0.0
H3156 H 0.56898 0.78191 0.28539 0.0
H3157 H 0.56845 0.78518 0.22381 0.0
H3158 H 0.58677 0.76762 0.1593 0.0
C3159 C 0.57665 0.77857 0.03715 0.0
C3160 C 0.56659 0.78179 0.12211 0.0
C3161 C 0.57836 0.78346 0.00344 0.0
C3162 C 0.56994 0.77538 0.26796 0.0
C3163 C 0.56951 0.7772 0.23237 0.0
C3164 C 0.58082 0.77125 0.14913 0.0
C3165 C 0.57824 0.78643 0.06577 0.0
C3166 C 0.57575 0.7811 0.10127 0.0
C3167 C 0.57113 0.76934 0.20837 0.0
C3168 C 0.57192 0.7723 0.17057 0.0
H3169 H 0.58665 0.81427 0.02298 0.0
H3170 H 0.58325 0.80555 0.0822 0.0
H3171 H 0.58975 0.7749 0.09887 0.0
H3172 H 0.57507 0.75002 0.26586 0.0
H3173 H 0.57389 0.75295 0.20328 0.0
C3174 C 0.22595 0.79494 0.26715 0.0
C3175 C 0.23558 0.80682 0.28007 0.0
C3176 C 0.22355 0.79308 0.2316 0.0
C3177 C 0.23456 0.79989 0.14582 0.0
H3178 H 0.20185 0.79669 0.12142 0.0
C3179 C 0.21675 0.79265 0.00366 0.0
C3180 C 0.20359 0.78449 -0.00216 0.0
C3181 C 0.22145 0.79635 0.03738 0.0
C3182 C 0.21093 0.7974 0.12775 0.0
H3183 H 0.25081 0.82576 0.2653 0.0
H3184 H 0.24671 0.82226 0.20251 0.0
H3185 H 0.20937 0.80121 0.18146 0.0
H3186 H 0.18506 0.77366 0.02265 0.0
H3187 H 0.19329 0.7797 0.08167 0.0
H3188 H 0.23591 0.79542 0.09271 0.0
C3189 C 0.241 0.81455 0.22044 0.0
C3190 C 0.21527 0.80012 0.16202 0.0
C3191 C 0.24333 0.81651 0.25626 0.0
C3192 C 0.19523 0.78006 0.02637 0.0
C3193 C 0.19996 0.7836 0.06018 0.0
C3194 C 0.23013 0.79695 0.11155 0.0
C3195 C 0.23085 0.80294 0.20813 0.0
C3196 C 0.22704 0.80128 0.17129 0.0
C3197 C 0.21314 0.79182 0.06613 0.0
C3198 C 0.21818 0.79553 0.10216 0.0
H3199 H 0.21984 0.7872 0.28454 0.0
H3200 H 0.21573 0.78403 0.22245 0.0
H3201 H 0.24362 0.80063 0.1527 0.0
H3202 H 0.22342 0.79632 0.9821 0.0
H3203 H 0.2316 0.80287 0.04082 0.0
C3204 C 0.15566 0.20354 0.27748 0.0
C3205 C 0.16341 0.21687 0.27352 0.0
C3206 C 0.16018 0.19532 0.26741 0.0
C3207 C 0.18482 0.19457 0.21141 0.0
H3208 H 0.18208 0.16795 0.27349 0.0
C3209 C 0.22053 0.1767 0.20892 0.0
C3210 C 0.21601 0.16349 0.21084 0.0
C3211 C 0.21221 0.18146 0.21346 0.0
C3212 C 0.18272 0.1752 0.25562 0.0
H3213 H 0.18201 0.23199 0.25598 0.0
H3214 H 0.18982 0.21781 0.23893 0.0
H3215 H 0.17078 0.17955 0.2875 0.0
H3216 H 0.1992 0.14488 0.21924 0.0
H3217 H 0.18458 0.15331 0.22785 0.0
H3218 H 0.19715 0.19062 0.18029 0.0
C3219 C 0.1802 0.21363 0.24927 0.0
C3220 C 0.17625 0.18183 0.26361 0.0
C3221 C 0.17574 0.22178 0.25937 0.0
C3222 C 0.20294 0.15511 0.21746 0.0
C3223 C 0.1946 0.15991 0.22253 0.0
C3224 C 0.1913 0.18801 0.20356 0.0
C3225 C 0.17249 0.20031 0.25293 0.0
C3226 C 0.17759 0.19187 0.24213 0.0
C3227 C 0.19917 0.17315 0.2204 0.0
C3228 C 0.19064 0.17854 0.2261 0.0
H3229 H 0.14611 0.19945 0.28824 0.0
H3230 H 0.15401 0.18509 0.2705 0.0
H3231 H 0.18579 0.20204 0.19388 0.0
H3232 H 0.23053 0.18343 0.20382 0.0
H3233 H 0.21604 0.19171 0.21215 0.0
C3234 C 0.79862 0.95205 0.27407 0.0
C3235 C 0.78529 0.94637 0.26982 0.0
C3236 C 0.80679 0.96478 0.26383 0.0
C3237 C 0.80751 0.99006 0.20729 0.0
H3238 H 0.83362 0.01405 0.27027 0.0
C3239 C 0.82446 0.04343 0.20597 0.0
C3240 C 0.8376 0.05233 0.20867 0.0
C3241 C 0.81994 0.03038 0.20991 0.0
C3242 C 0.82653 0.00742 0.25214 0.0
H3243 H 0.77013 0.94964 0.25141 0.0
H3244 H 0.78422 0.97161 0.23404 0.0
H3245 H 0.82223 0.99114 0.28402 0.0
H3246 H 0.85634 0.0545 0.21766 0.0
H3247 H 0.84831 0.03147 0.22523 0.0
H3248 H 0.81139 0.00633 0.1762 0.0
C3249 C 0.78844 0.96627 0.24478 0.0
C3250 C 0.82002 0.99431 0.25998 0.0
C3251 C 0.78033 0.95366 0.25507 0.0
C3252 C 0.84616 0.04785 0.21528 0.0
C3253 C 0.84158 0.03472 0.21977 0.0
C3254 C 0.81396 0.00311 0.19958 0.0
C3255 C 0.80176 0.97199 0.24887 0.0
C3256 C 0.81013 0.98555 0.23818 0.0
C3257 C 0.82842 0.02587 0.21701 0.0
C3258 C 0.82324 0.01196 0.22245 0.0
H3259 H 0.80274 0.94669 0.2853 0.0
H3260 H 0.81702 0.96894 0.26726 0.0
H3261 H 0.80017 0.98352 0.18953 0.0
H3262 H 0.81761 0.04655 0.20083 0.0
H3263 H 0.80973 0.02381 0.20811 0.0
C3264 C 0.95397 0.79823 0.21651 0.0
C3265 C 0.94854 0.78488 0.21972 0.0
C3266 C 0.9667 0.80648 0.22656 0.0
C3267 C 0.99225 0.80724 0.28163 0.0
H3268 H 0.01596 0.83419 0.2201 0.0
C3269 C 0.04578 0.82518 0.28307 0.0
C3270 C 0.05448 0.83839 0.28143 0.0
C3271 C 0.0327 0.82046 0.27883 0.0
C3272 C 0.0094 0.82686 0.23784 0.0
H3273 H 0.95227 0.76979 0.23586 0.0
H3274 H 0.97425 0.78405 0.25295 0.0
H3275 H 0.99305 0.82253 0.20621 0.0
H3276 H 0.0563 0.85705 0.27388 0.0
H3277 H 0.03323 0.84868 0.2658 0.0
H3278 H 0.00858 0.81116 0.31248 0.0
C3279 C 0.9687 0.7882 0.24319 0.0
C3280 C 0.9963 0.82019 0.22991 0.0
C3281 C 0.95609 0.78 0.23306 0.0
C3282 C 0.0498 0.84682 0.27543 0.0
C3283 C 0.03664 0.84205 0.27066 0.0
C3284 C 0.00528 0.81384 0.28944 0.0
C3285 C 0.97415 0.80153 0.24029 0.0
C3286 C 0.98766 0.81001 0.25115 0.0
C3287 C 0.02798 0.82881 0.2725 0.0
C3288 C 0.01404 0.82343 0.26707 0.0
H3289 H 0.9484 0.80229 0.20637 0.0
H3290 H 0.97065 0.81672 0.22406 0.0
H3291 H 0.98579 0.79965 0.29896 0.0
H3292 H 0.04905 0.81842 0.28771 0.0
H3293 H 0.02628 0.8102 0.27988 0.0
C3294 C 0.8251 0.78162 0.70632 0.0
C3295 C 0.83824 0.78592 0.70927 0.0
C3296 C 0.82051 0.79009 0.7103 0.0
C3297 C 0.82684 0.81951 0.75287 0.0
H3298 H 0.80067 0.81712 0.68959 0.0
C3299 C 0.79873 0.84679 0.77429 0.0
C3300 C 0.78542 0.83912 0.76971 0.0
C3301 C 0.80696 0.84228 0.76418 0.0
C3302 C 0.80796 0.8179 0.70754 0.0
H3303 H 0.85691 0.8025 0.7188 0.0
H3304 H 0.84876 0.8174 0.72645 0.0
H3305 H 0.81199 0.80561 0.6765 0.0
H3306 H 0.77035 0.82073 0.75082 0.0
H3307 H 0.78455 0.81294 0.73367 0.0
H3308 H 0.82237 0.83138 0.78469 0.0
C3309 C 0.84208 0.80743 0.72076 0.0
C3310 C 0.81446 0.81134 0.69997 0.0
C3311 C 0.84673 0.79894 0.71623 0.0
C3312 C 0.78054 0.82692 0.75474 0.0
C3313 C 0.78871 0.82248 0.74457 0.0
C3314 C 0.82026 0.82605 0.76057 0.0
C3315 C 0.82892 0.80307 0.7177 0.0
C3316 C 0.82367 0.81175 0.72308 0.0
C3317 C 0.80201 0.83009 0.74902 0.0
C3318 C 0.81045 0.82496 0.73852 0.0
H3319 H 0.8183 0.77166 0.70091 0.0
H3320 H 0.81029 0.78642 0.70827 0.0
H3321 H 0.83387 0.81994 0.77119 0.0
H3322 H 0.80279 0.85624 0.7857 0.0
H3323 H 0.81717 0.84837 0.76788 0.0
C3324 C 0.20318 0.048 0.7162 0.0
C3325 C 0.21629 0.0526 0.71051 0.0
C3326 C 0.19469 0.03484 0.72047 0.0
C3327 C 0.19123 0.00341 0.7009 0.0
H3328 H 0.1701 0.9911 0.78373 0.0
C3329 C 0.17499 0.95381 0.75596 0.0
C3330 C 0.16261 0.94646 0.76987 0.0
C3331 C 0.17956 0.96644 0.74578 0.0
C3332 C 0.17574 0.99437 0.76012 0.0
H3333 H 0.23073 0.04704 0.7042 0.0
H3334 H 0.21599 0.02425 0.71113 0.0
H3335 H 0.18164 0.01405 0.77048 0.0
H3336 H 0.14531 0.94669 0.78393 0.0
H3337 H 0.1534 0.96897 0.76605 0.0
H3338 H 0.18564 0.98389 0.69077 0.0
C3339 C 0.21224 0.03074 0.71234 0.0
C3340 C 0.18234 0.0075 0.75257 0.0
C3341 C 0.2207 0.04382 0.70862 0.0
C3342 C 0.1549 0.9521 0.77337 0.0
C3343 C 0.15953 0.96485 0.76322 0.0
C3344 C 0.18461 0.99034 0.7083 0.0
C3345 C 0.19916 0.0261 0.71843 0.0
C3346 C 0.19048 0.01216 0.72349 0.0
C3347 C 0.1719 0.97213 0.74914 0.0
C3348 C 0.17715 0.98571 0.73863 0.0
H3349 H 0.19952 0.05456 0.71794 0.0
H3350 H 0.18465 0.03149 0.72515 0.0
H3351 H 0.19725 0.00673 0.67796 0.0
H3352 H 0.18123 0.94982 0.75291 0.0
H3353 H 0.18923 0.97183 0.73573 0.0
C3354 C 0.95681 0.17584 0.70978 0.0
C3355 C 0.94802 0.16267 0.71255 0.0
C3356 C 0.96988 0.1805 0.71401 0.0
C3357 C 0.9931 0.17428 0.75647 0.0
H3358 H 0.01674 0.2006 0.69332 0.0
C3359 C 0.04853 0.20239 0.77698 0.0
C3360 C 0.05415 0.21572 0.77265 0.0
C3361 C 0.03577 0.19419 0.7671 0.0
C3362 C 0.01028 0.19327 0.71123 0.0
H3363 H 0.94605 0.14405 0.72216 0.0
H3364 H 0.9691 0.15233 0.73021 0.0
H3365 H 0.99391 0.18922 0.68038 0.0
H3366 H 0.05076 0.23083 0.75447 0.0
H3367 H 0.02873 0.21665 0.73768 0.0
H3368 H 0.00948 0.17873 0.78806 0.0
C3369 C 0.96576 0.15896 0.72447 0.0
C3370 C 0.99721 0.18674 0.70376 0.0
C3371 C 0.95262 0.15424 0.71972 0.0
C3372 C 0.04678 0.22063 0.75818 0.0
C3373 C 0.03414 0.21247 0.74823 0.0
C3374 C 0.00622 0.18088 0.76406 0.0
C3375 C 0.97451 0.17215 0.72147 0.0
C3376 C 0.98845 0.17747 0.72681 0.0
C3377 C 0.02847 0.19916 0.75242 0.0
C3378 C 0.01489 0.19074 0.74206 0.0
H3379 H 0.95361 0.1826 0.70422 0.0
H3380 H 0.97637 0.19073 0.71205 0.0
H3381 H 0.98653 0.16719 0.77474 0.0
H3382 H 0.05396 0.19831 0.78801 0.0
H3383 H 0.03166 0.18396 0.77058 0.0
C3384 C 0.82315 0.53715 0.61212 0.0
C3385 C 0.83102 0.55047 0.60823 0.0
C3386 C 0.82757 0.52885 0.60206 0.0
C3387 C 0.85195 0.52775 0.54597 0.0
H3388 H 0.84929 0.50129 0.60857 0.0
C3389 C 0.88759 0.50986 0.54348 0.0
C3390 C 0.88313 0.49667 0.54601 0.0
C3391 C 0.87925 0.5146 0.54787 0.0
C3392 C 0.84989 0.50848 0.59054 0.0
H3393 H 0.84969 0.56548 0.59079 0.0
H3394 H 0.8573 0.55114 0.57366 0.0
H3395 H 0.83811 0.51302 0.62252 0.0
H3396 H 0.8664 0.47808 0.55528 0.0
H3397 H 0.85174 0.48649 0.5636 0.0
H3398 H 0.86411 0.52361 0.51471 0.0
C3399 C 0.84769 0.54704 0.584 0.0
C3400 C 0.84351 0.51519 0.59851 0.0
C3401 C 0.84334 0.55529 0.59414 0.0
C3402 C 0.87009 0.48829 0.55304 0.0
C3403 C 0.86173 0.49308 0.55794 0.0
C3404 C 0.85834 0.52111 0.53811 0.0
C3405 C 0.83986 0.53373 0.58764 0.0
C3406 C 0.84484 0.52519 0.57685 0.0
C3407 C 0.86625 0.50629 0.55523 0.0
C3408 C 0.85772 0.5117 0.56085 0.0
H3409 H 0.81361 0.53314 0.62284 0.0
H3410 H 0.82132 0.51862 0.60513 0.0
H3411 H 0.85291 0.53519 0.52834 0.0
H3412 H 0.89756 0.51659 0.53804 0.0
H3413 H 0.88305 0.52484 0.54614 0.0
C3414 C 0.46456 0.28614 0.60898 0.0
C3415 C 0.45119 0.28056 0.60615 0.0
C3416 C 0.47266 0.29888 0.59875 0.0
C3417 C 0.47284 0.32432 0.54419 0.0
H3418 H 0.50014 0.34812 0.60474 0.0
C3419 C 0.4909 0.37794 0.54242 0.0
C3420 C 0.50414 0.3866 0.54359 0.0
C3421 C 0.48614 0.36486 0.54681 0.0
C3422 C 0.4927 0.34153 0.58728 0.0
H3423 H 0.43589 0.28404 0.59043 0.0
H3424 H 0.44988 0.30604 0.57308 0.0
H3425 H 0.48864 0.32521 0.61869 0.0
H3426 H 0.52278 0.38832 0.55049 0.0
H3427 H 0.51434 0.36526 0.5588 0.0
H3428 H 0.47652 0.34062 0.51357 0.0
C3429 C 0.45417 0.3006 0.58266 0.0
C3430 C 0.48612 0.32843 0.59523 0.0
C3431 C 0.44613 0.28797 0.59293 0.0
C3432 C 0.51253 0.38186 0.5493 0.0
C3433 C 0.50772 0.3687 0.5542 0.0
C3434 C 0.47935 0.33736 0.53637 0.0
C3435 C 0.46753 0.30621 0.58524 0.0
C3436 C 0.47585 0.31975 0.57435 0.0
C3437 C 0.49446 0.36009 0.55283 0.0
C3438 C 0.48907 0.34615 0.55838 0.0
H3439 H 0.46876 0.28067 0.619 0.0
H3440 H 0.48292 0.30295 0.60098 0.0
H3441 H 0.46518 0.31784 0.5271 0.0
H3442 H 0.48416 0.38126 0.53803 0.0
H3443 H 0.47587 0.35848 0.5461 0.0
C3444 C 0.62179 0.11291 0.56795 0.0
C3445 C 0.61435 0.11785 0.55409 0.0
C3446 C 0.63442 0.12105 0.57798 0.0
C3447 C 0.66224 0.15291 0.56382 0.0
H3448 H 0.67447 0.14405 0.64676 0.0
C3449 C 0.7157 0.1797 0.60957 0.0
C3450 C 0.72042 0.17132 0.61603 0.0
C3451 C 0.70254 0.17487 0.60462 0.0
C3452 C 0.67119 0.14667 0.62359 0.0
H3453 H 0.61445 0.1353 0.5398 0.0
H3454 H 0.63673 0.14963 0.55739 0.0
H3455 H 0.65168 0.13257 0.63327 0.0
H3456 H 0.71503 0.15138 0.62292 0.0
H3457 H 0.69226 0.14308 0.61477 0.0
H3458 H 0.68191 0.16686 0.55391 0.0
C3459 C 0.63268 0.13939 0.56033 0.0
C3460 C 0.65815 0.14008 0.6158 0.0
C3461 C 0.61993 0.13119 0.55034 0.0
C3462 C 0.71174 0.15811 0.61793 0.0
C3463 C 0.69866 0.15334 0.6135 0.0
C3464 C 0.67534 0.15957 0.57174 0.0
C3465 C 0.64002 0.13439 0.57451 0.0
C3466 C 0.65357 0.14281 0.58522 0.0
C3467 C 0.69391 0.16163 0.60671 0.0
C3468 C 0.67997 0.15621 0.60112 0.0
H3469 H 0.61786 0.1027 0.57116 0.0
H3470 H 0.63988 0.11685 0.5881 0.0
H3471 H 0.659 0.15522 0.54003 0.0
H3472 H 0.72218 0.18993 0.60781 0.0
H3473 H 0.69911 0.18147 0.59942 0.0
C3474 C 0.44728 0.15818 0.11785 0.0
C3475 C 0.45177 0.17139 0.11584 0.0
C3476 C 0.45561 0.15344 0.11334 0.0
C3477 C 0.48511 0.15971 0.07118 0.0
H3478 H 0.48194 0.1328 0.1328 0.0
C3479 C 0.51216 0.13134 0.04956 0.0
C3480 C 0.5044 0.118 0.05339 0.0
C3481 C 0.50762 0.13955 0.05955 0.0
C3482 C 0.48294 0.14029 0.11531 0.0
H3483 H 0.46855 0.19001 0.10735 0.0
H3484 H 0.4832 0.1816 0.0988 0.0
H3485 H 0.47063 0.14426 0.14644 0.0
H3486 H 0.48576 0.10287 0.0706 0.0
H3487 H 0.47792 0.11704 0.08756 0.0
H3488 H 0.49704 0.15534 0.03931 0.0
C3489 C 0.47319 0.17499 0.10416 0.0
C3490 C 0.47649 0.14687 0.12318 0.0
C3491 C 0.46483 0.17978 0.1092 0.0
C3492 C 0.49204 0.11308 0.06732 0.0
C3493 C 0.48756 0.12123 0.07736 0.0
C3494 C 0.49155 0.15306 0.06318 0.0
C3495 C 0.46864 0.16176 0.10636 0.0
C3496 C 0.47718 0.15637 0.10068 0.0
C3497 C 0.49528 0.13456 0.07383 0.0
C3498 C 0.49018 0.14299 0.08461 0.0
H3499 H 0.43728 0.15144 0.123 0.0
H3500 H 0.45179 0.14319 0.11469 0.0
H3501 H 0.48577 0.16697 0.05333 0.0
H3502 H 0.52174 0.13544 0.03896 0.0
H3503 H 0.5138 0.14979 0.05657 0.0
C3504 C 0.86932 0.38134 0.05079 0.0
C3505 C 0.88241 0.38605 0.04432 0.0
C3506 C 0.86098 0.36818 0.05551 0.0
C3507 C 0.85781 0.33681 0.0362 0.0
H3508 H 0.837 0.3246 0.11961 0.0
C3509 C 0.84213 0.28741 0.09212 0.0
C3510 C 0.82975 0.28 0.10596 0.0
C3511 C 0.84662 0.30003 0.08191 0.0
C3512 C 0.84256 0.32784 0.09586 0.0
H3513 H 0.89693 0.38065 0.0371 0.0
H3514 H 0.88245 0.35786 0.04487 0.0
H3515 H 0.84828 0.3475 0.10581 0.0
H3516 H 0.81238 0.2801 0.11995 0.0
H3517 H 0.82033 0.30235 0.10207 0.0
H3518 H 0.85241 0.3173 0.02652 0.0
C3519 C 0.8786 0.36427 0.04632 0.0
C3520 C 0.84901 0.34094 0.08798 0.0
C3521 C 0.88692 0.37736 0.04212 0.0
C3522 C 0.82197 0.28556 0.10944 0.0
C3523 C 0.82652 0.2983 0.09929 0.0
C3524 C 0.85135 0.32377 0.04396 0.0
C3525 C 0.86555 0.35952 0.05316 0.0
C3526 C 0.85703 0.34558 0.05867 0.0
C3527 C 0.83888 0.30563 0.0852 0.0
C3528 C 0.84401 0.31918 0.07448 0.0
H3529 H 0.86559 0.38783 0.05278 0.0
H3530 H 0.85095 0.36475 0.06075 0.0
H3531 H 0.86373 0.3401 0.01308 0.0
H3532 H 0.84842 0.28349 0.0891 0.0
H3533 H 0.85628 0.30548 0.07184 0.0
C3534 C 0.71164 0.55392 0.12056 0.0
C3535 C 0.72042 0.54952 0.11793 0.0
C3536 C 0.69858 0.54554 0.11616 0.0
C3537 C 0.67553 0.51626 0.07292 0.0
H3538 H 0.65163 0.51898 0.13492 0.0
C3539 C 0.6202 0.48947 0.05019 0.0
C3540 C 0.61469 0.49728 0.05422 0.0
C3541 C 0.6329 0.49388 0.06046 0.0
C3542 C 0.65817 0.51811 0.11734 0.0
H3543 H 0.72239 0.53286 0.10855 0.0
H3544 H 0.69935 0.51812 0.10019 0.0
H3545 H 0.67437 0.53021 0.14899 0.0
H3546 H 0.61824 0.51587 0.07209 0.0
H3547 H 0.64016 0.52348 0.08957 0.0
H3548 H 0.65932 0.50456 0.04053 0.0
C3549 C 0.70269 0.52809 0.10594 0.0
C3550 C 0.67118 0.52451 0.12546 0.0
C3551 C 0.71583 0.5365 0.11088 0.0
C3552 C 0.62212 0.50955 0.06863 0.0
C3553 C 0.6347 0.51391 0.07897 0.0
C3554 C 0.66246 0.50987 0.06469 0.0
C3555 C 0.69395 0.53256 0.10867 0.0
C3556 C 0.68004 0.52399 0.1028 0.0
C3557 C 0.64024 0.50613 0.07523 0.0
C3558 C 0.65371 0.51109 0.08627 0.0
H3559 H 0.71485 0.56389 0.12603 0.0
H3560 H 0.6921 0.54929 0.11791 0.0
H3561 H 0.68218 0.51575 0.05494 0.0
H3562 H 0.61472 0.47995 0.03923 0.0
H3563 H 0.63691 0.48767 0.0573 0.0
C3564 C 0.50958 0.88763 0.92687 0.0
C3565 C 0.49723 0.88286 0.9407 0.0
C3566 C 0.51389 0.87934 0.91675 0.0
C3567 C 0.50944 0.84737 0.93093 0.0
H3568 H 0.53039 0.85594 0.84776 0.0
C3569 C 0.5361 0.82047 0.88599 0.0
C3570 C 0.54919 0.82887 0.87967 0.0
C3571 C 0.52773 0.82527 0.89061 0.0
C3572 C 0.52451 0.85339 0.87097 0.0
H3573 H 0.47971 0.86556 0.95485 0.0
H3574 H 0.48735 0.85097 0.93716 0.0
H3575 H 0.51921 0.86756 0.86114 0.0
H3576 H 0.56371 0.84882 0.8726 0.0
H3577 H 0.54917 0.85707 0.88017 0.0
H3578 H 0.5151 0.83339 0.94106 0.0
C3579 C 0.49365 0.86119 0.93429 0.0
C3580 C 0.51814 0.86006 0.8787 0.0
C3581 C 0.48929 0.86953 0.94433 0.0
C3582 C 0.55369 0.84208 0.87752 0.0
C3583 C 0.54534 0.84681 0.8816 0.0
C3584 C 0.51581 0.84064 0.92309 0.0
C3585 C 0.50598 0.86603 0.92013 0.0
C3586 C 0.51091 0.85746 0.90939 0.0
C3587 C 0.53229 0.83849 0.88829 0.0
C3588 C 0.52376 0.8439 0.89364 0.0
H3589 H 0.516 0.89782 0.92373 0.0
H3590 H 0.52353 0.88341 0.90663 0.0
H3591 H 0.50396 0.84517 0.9548 0.0
H3592 H 0.53239 0.81025 0.88793 0.0
H3593 H 0.5177 0.81866 0.89576 0.0
C3594 C 0.13137 0.61911 0.94188 0.0
C3595 C 0.11803 0.6136 0.9383 0.0
C3596 C 0.13961 0.63181 0.93155 0.0
C3597 C 0.14042 0.65726 0.87569 0.0
H3598 H 0.16702 0.68105 0.93791 0.0
C3599 C 0.15796 0.71073 0.87474 0.0
C3600 C 0.17115 0.71952 0.87698 0.0
C3601 C 0.15333 0.69766 0.87863 0.0
C3602 C 0.15979 0.67447 0.91997 0.0
H3603 H 0.10293 0.61715 0.92102 0.0
H3604 H 0.11716 0.63908 0.90346 0.0
H3605 H 0.15544 0.65814 0.9517 0.0
H3606 H 0.18983 0.72147 0.88512 0.0
H3607 H 0.18161 0.6984 0.89261 0.0
H3608 H 0.14435 0.67358 0.84477 0.0
C3609 C 0.12132 0.63362 0.91375 0.0
C3610 C 0.15316 0.66136 0.92784 0.0
C3611 C 0.11314 0.62103 0.92415 0.0
C3612 C 0.17963 0.71491 0.88311 0.0
C3613 C 0.17493 0.70175 0.88754 0.0
C3614 C 0.14697 0.6703 0.86795 0.0
C3615 C 0.13465 0.63916 0.91717 0.0
C3616 C 0.14311 0.65269 0.90635 0.0
C3617 C 0.16173 0.69301 0.88521 0.0
C3618 C 0.15643 0.67908 0.89056 0.0
H3619 H 0.13544 0.61363 0.95263 0.0
H3620 H 0.14984 0.63583 0.93444 0.0
H3621 H 0.13293 0.65078 0.85817 0.0
H3622 H 0.15117 0.71395 0.86996 0.0
H3623 H 0.14309 0.69117 0.87718 0.0
C3624 C 0.28542 0.46488 0.88696 0.0
C3625 C 0.28082 0.45185 0.87997 0.0
C3626 C 0.29856 0.47329 0.89189 0.0
C3627 C 0.33003 0.47688 0.87198 0.0
H3628 H 0.3421 0.49684 0.95684 0.0
C3629 C 0.37918 0.49174 0.92768 0.0
C3630 C 0.3867 0.50401 0.94209 0.0
C3631 C 0.36658 0.48743 0.91764 0.0
C3632 C 0.3389 0.49153 0.93269 0.0
H3633 H 0.28639 0.43747 0.87205 0.0
H3634 H 0.30913 0.45207 0.88014 0.0
H3635 H 0.3192 0.48565 0.94285 0.0
H3636 H 0.38677 0.52136 0.95742 0.0
H3637 H 0.36453 0.51371 0.93986 0.0
H3638 H 0.34955 0.48241 0.86208 0.0
C3639 C 0.30266 0.45583 0.88186 0.0
C3640 C 0.3258 0.48513 0.92471 0.0
C3641 C 0.28959 0.44744 0.87747 0.0
C3642 C 0.38123 0.51185 0.94644 0.0
C3643 C 0.36851 0.50747 0.93647 0.0
C3644 C 0.34306 0.48329 0.87984 0.0
C3645 C 0.30729 0.46882 0.88922 0.0
C3646 C 0.32122 0.47739 0.89486 0.0
C3647 C 0.3611 0.49524 0.92168 0.0
C3648 C 0.34759 0.49031 0.91089 0.0
H3649 H 0.27887 0.46853 0.88919 0.0
H3650 H 0.30191 0.48327 0.89756 0.0
H3651 H 0.32678 0.47117 0.84847 0.0
H3652 H 0.38302 0.4854 0.92398 0.0
H3653 H 0.36107 0.47786 0.90704 0.0
C3654 C 0.13251 0.51422 0.44358 0.0
C3655 C 0.11943 0.50575 0.4499 0.0
C3656 C 0.14095 0.5095 0.43903 0.0
C3657 C 0.14445 0.48157 0.45895 0.0
H3658 H 0.16506 0.4899 0.37522 0.0
C3659 C 0.15995 0.44768 0.40368 0.0
C3660 C 0.17228 0.45256 0.38962 0.0
C3661 C 0.15552 0.45587 0.41379 0.0
C3662 C 0.15956 0.48767 0.39907 0.0
H3663 H 0.10501 0.48578 0.457 0.0
H3664 H 0.11968 0.47767 0.44957 0.0
H3665 H 0.15371 0.50149 0.3887 0.0
H3666 H 0.18965 0.46995 0.3751 0.0
H3667 H 0.18181 0.48437 0.39279 0.0
H3668 H 0.14996 0.46758 0.46906 0.0
C3669 C 0.12344 0.48791 0.44809 0.0
C3670 C 0.15307 0.49429 0.40676 0.0
C3671 C 0.11502 0.49256 0.4521 0.0
C3672 C 0.18009 0.46589 0.3858 0.0
C3673 C 0.17561 0.47414 0.39584 0.0
C3674 C 0.15095 0.47502 0.4514 0.0
C3675 C 0.13648 0.4963 0.44142 0.0
C3676 C 0.1451 0.49099 0.43617 0.0
C3677 C 0.16329 0.46919 0.41017 0.0
C3678 C 0.15821 0.47766 0.42075 0.0
H3679 H 0.13616 0.52442 0.44159 0.0
H3680 H 0.15097 0.51616 0.43389 0.0
H3681 H 0.13856 0.479 0.48214 0.0
H3682 H 0.15363 0.43748 0.40698 0.0
H3683 H 0.14589 0.45172 0.42404 0.0
C3684 C 0.50904 0.62315 0.45231 0.0
C3685 C 0.49588 0.61434 0.44953 0.0
C3686 C 0.51367 0.63622 0.4483 0.0
C3687 C 0.50745 0.65946 0.40619 0.0
H3688 H 0.53365 0.68302 0.46973 0.0
C3689 C 0.53583 0.7149 0.38575 0.0
C3690 C 0.54914 0.72044 0.39022 0.0
C3691 C 0.52754 0.70215 0.39565 0.0
C3692 C 0.52635 0.67657 0.45172 0.0
H3693 H 0.47723 0.61233 0.44016 0.0
H3694 H 0.48545 0.63539 0.43244 0.0
H3695 H 0.52222 0.66017 0.4825 0.0
H3696 H 0.56413 0.71691 0.4087 0.0
H3697 H 0.54982 0.69492 0.42553 0.0
H3698 H 0.51201 0.67588 0.37464 0.0
C3699 C 0.49211 0.63206 0.43803 0.0
C3700 C 0.51979 0.6635 0.4591 0.0
C3701 C 0.48742 0.61891 0.44259 0.0
C3702 C 0.55395 0.713 0.40487 0.0
C3703 C 0.54571 0.70038 0.41485 0.0
C3704 C 0.51408 0.67259 0.39868 0.0
C3705 C 0.50528 0.64083 0.44104 0.0
C3706 C 0.51057 0.65477 0.43588 0.0
C3707 C 0.53242 0.6948 0.4105 0.0
C3708 C 0.52391 0.68123 0.42083 0.0
H3709 H 0.51582 0.61997 0.45771 0.0
H3710 H 0.52389 0.64273 0.45027 0.0
H3711 H 0.50041 0.65291 0.3878 0.0
H3712 H 0.53183 0.72037 0.37458 0.0
H3713 H 0.51733 0.6981 0.39205 0.0
C3714 C 0.37803 0.88654 0.45439 0.0
C3715 C 0.38691 0.88227 0.45174 0.0
C3716 C 0.36497 0.87802 0.45043 0.0
C3717 C 0.342 0.84848 0.40824 0.0
H3718 H 0.31813 0.85106 0.47074 0.0
C3719 C 0.28664 0.82131 0.38619 0.0
C3720 C 0.28107 0.82907 0.39019 0.0
C3721 C 0.29934 0.82579 0.3965 0.0
C3722 C 0.32466 0.85022 0.45303 0.0
H3723 H 0.38907 0.8657 0.44279 0.0
H3724 H 0.36604 0.85072 0.43518 0.0
H3725 H 0.34093 0.86255 0.48418 0.0
H3726 H 0.2845 0.8476 0.40824 0.0
H3727 H 0.30643 0.85532 0.42579 0.0
H3728 H 0.32572 0.83657 0.3763 0.0
C3729 C 0.36929 0.8607 0.44062 0.0
C3730 C 0.3377 0.85677 0.46079 0.0
C3731 C 0.38242 0.86924 0.44512 0.0
C3732 C 0.28843 0.84133 0.40477 0.0
C3733 C 0.30102 0.84574 0.41516 0.0
C3734 C 0.32889 0.84194 0.40036 0.0
C3735 C 0.36045 0.86503 0.44336 0.0
C3736 C 0.34655 0.85631 0.43793 0.0
C3737 C 0.30663 0.83803 0.41131 0.0
C3738 C 0.32015 0.84311 0.42211 0.0
H3739 H 0.38115 0.89651 0.45954 0.0
H3740 H 0.35841 0.88167 0.4522 0.0
H3741 H 0.34862 0.84801 0.39012 0.0
H3742 H 0.28121 0.81181 0.3751 0.0
H3743 H 0.30342 0.81963 0.39327 0.0
C3744 C 0.28632 0.14554 0.20443 0.0
C3745 C 0.28272 0.15493 0.201 0.0
C3746 C 0.29876 0.14836 0.19596 0.0
C3747 C 0.32675 0.17094 0.14358 0.0
H3748 H 0.34506 0.15864 0.19987 0.0
C3749 C 0.3805 0.18797 0.12348 0.0
C3750 C 0.3843 0.17873 0.12678 0.0
C3751 C 0.368 0.18493 0.13184 0.0
C3752 C 0.34002 0.16203 0.18364 0.0
H3753 H 0.28956 0.17476 0.18681 0.0
H3754 H 0.31114 0.17965 0.17268 0.0
H3755 H 0.32352 0.15354 0.21672 0.0
H3756 H 0.37776 0.15893 0.14074 0.0
H3757 H 0.35603 0.15367 0.15475 0.0
H3758 H 0.34325 0.17944 0.11054 0.0
C3759 C 0.30431 0.17005 0.18126 0.0
C3760 C 0.32767 0.1591 0.19332 0.0
C3761 C 0.29193 0.16725 0.18967 0.0
C3762 C 0.37523 0.16633 0.13796 0.0
C3763 C 0.36276 0.16331 0.14628 0.0
C3764 C 0.33909 0.17387 0.13392 0.0
C3765 C 0.30784 0.16061 0.18387 0.0
C3766 C 0.32091 0.16355 0.17346 0.0
C3767 C 0.35903 0.1726 0.14369 0.0
C3768 C 0.34588 0.16946 0.15384 0.0
H3769 H 0.27948 0.13594 0.21293 0.0
H3770 H 0.30115 0.14084 0.19801 0.0
H3771 H 0.32172 0.17433 0.12737 0.0
H3772 H 0.38723 0.19762 0.11512 0.0
H3773 H 0.36545 0.19234 0.12985 0.0
C3774 C 0.81141 0.19201 0.12983 0.0
C3775 C 0.82081 0.205 0.13292 0.0
C3776 C 0.81416 0.18241 0.13897 0.0
C3777 C 0.83665 0.1769 0.19162 0.0
H3778 H 0.82423 0.14636 0.135 0.0
C3779 C 0.85349 0.1399 0.21002 0.0
C3780 C 0.84421 0.12689 0.20634 0.0
C3781 C 0.85046 0.14943 0.20245 0.0
C3782 C 0.82764 0.15476 0.15133 0.0
H3783 H 0.84056 0.21803 0.14768 0.0
H3784 H 0.84535 0.20133 0.16302 0.0
H3785 H 0.81927 0.1629 0.11835 0.0
H3786 H 0.82435 0.11375 0.1928 0.0
H3787 H 0.81912 0.13033 0.18012 0.0
H3788 H 0.84508 0.16877 0.2245 0.0
C3789 C 0.83579 0.19856 0.15409 0.0
C3790 C 0.82479 0.16424 0.14178 0.0
C3791 C 0.83305 0.20814 0.14499 0.0
C3792 C 0.83178 0.12365 0.1958 0.0
C3793 C 0.82877 0.13317 0.18826 0.0
C3794 C 0.83951 0.16742 0.20116 0.0
C3795 C 0.82637 0.18558 0.15142 0.0
C3796 C 0.82928 0.17543 0.16177 0.0
C3797 C 0.83812 0.14617 0.19102 0.0
C3798 C 0.83504 0.15624 0.18113 0.0
H3799 H 0.80185 0.18923 0.12081 0.0
H3800 H 0.80664 0.1725 0.13695 0.0
H3801 H 0.84008 0.18531 0.20791 0.0
H3802 H 0.86317 0.14275 0.21793 0.0
H3803 H 0.85791 0.15937 0.20457 0.0
C3804 C 0.80829 0.62053 0.12223 0.0
C3805 C 0.79529 0.61684 0.12597 0.0
C3806 C 0.81786 0.63304 0.13007 0.0
C3807 C 0.82341 0.66121 0.18149 0.0
H3808 H 0.85366 0.67931 0.12379 0.0
C3809 C 0.86059 0.71482 0.20139 0.0
C3810 C 0.87357 0.71847 0.19763 0.0
C3811 C 0.85098 0.70241 0.19281 0.0
C3812 C 0.84533 0.67433 0.1404 0.0
H3813 H 0.78223 0.6236 0.14012 0.0
H3814 H 0.79888 0.64533 0.15328 0.0
H3815 H 0.8371 0.65773 0.10771 0.0
H3816 H 0.88658 0.71177 0.18239 0.0
H3817 H 0.86988 0.69019 0.16805 0.0
H3818 H 0.83165 0.67778 0.21425 0.0
C3819 C 0.80167 0.6385 0.14485 0.0
C3820 C 0.83585 0.66197 0.13115 0.0
C3821 C 0.79212 0.62604 0.13703 0.0
C3822 C 0.8767 0.70935 0.18556 0.0
C3823 C 0.86711 0.69697 0.17705 0.0
C3824 C 0.8329 0.67356 0.19075 0.0
C3825 C 0.81465 0.64212 0.14184 0.0
C3826 C 0.82477 0.65526 0.15158 0.0
C3827 C 0.85414 0.69337 0.18029 0.0
C3828 C 0.84398 0.68027 0.17034 0.0
H3829 H 0.81109 0.6137 0.11392 0.0
H3830 H 0.82779 0.6355 0.12775 0.0
H3831 H 0.81509 0.65622 0.19809 0.0
H3832 H 0.85782 0.7216 0.21043 0.0
H3833 H 0.84107 0.69998 0.19529 0.0
C3834 C 0.18932 0.38194 0.36851 0.0
C3835 C 0.18017 0.38583 0.36453 0.0
C3836 C 0.18629 0.36945 0.36009 0.0
C3837 C 0.16359 0.34147 0.30784 0.0
H3838 H 0.17498 0.32297 0.3666 0.0
C3839 C 0.1461 0.28749 0.28979 0.0
C3840 C 0.15527 0.28364 0.29391 0.0
C3841 C 0.14915 0.30003 0.29778 0.0
C3842 C 0.17185 0.32806 0.3497 0.0
H3843 H 0.16057 0.37948 0.34893 0.0
H3844 H 0.1553 0.35777 0.33481 0.0
H3845 H 0.18037 0.34468 0.38225 0.0
H3846 H 0.17494 0.2901 0.30908 0.0
H3847 H 0.18022 0.31186 0.32247 0.0
H3848 H 0.15506 0.32483 0.27532 0.0
C3849 C 0.16488 0.36442 0.34391 0.0
C3850 C 0.17494 0.34051 0.35868 0.0
C3851 C 0.16789 0.37688 0.35229 0.0
C3852 C 0.1676 0.29267 0.30567 0.0
C3853 C 0.17062 0.30516 0.31362 0.0
C3854 C 0.16049 0.32902 0.29887 0.0
C3855 C 0.17405 0.36057 0.34749 0.0
C3856 C 0.17085 0.34736 0.33786 0.0
C3857 C 0.16141 0.30896 0.31009 0.0
C3858 C 0.1646 0.32217 0.31967 0.0
H3859 H 0.19889 0.38858 0.3777 0.0
H3860 H 0.19362 0.36682 0.36282 0.0
H3861 H 0.16046 0.34656 0.29094 0.0
H3862 H 0.1365 0.28079 0.28095 0.0
H3863 H 0.1418 0.30263 0.29507 0.0
C3864 C 0.62013 0.8079 0.36882 0.0
C3865 C 0.61614 0.79485 0.3647 0.0
C3866 C 0.63267 0.8173 0.36062 0.0
C3867 C 0.66068 0.82243 0.30877 0.0
H3868 H 0.67926 0.85214 0.36807 0.0
C3869 C 0.71472 0.85862 0.29103 0.0
C3870 C 0.71865 0.87166 0.29516 0.0
C3871 C 0.70218 0.84918 0.29916 0.0
C3872 C 0.67415 0.84397 0.35103 0.0
H3873 H 0.62236 0.78149 0.34906 0.0
H3874 H 0.64415 0.79782 0.33531 0.0
H3875 H 0.65745 0.83591 0.38331 0.0
H3876 H 0.71235 0.88495 0.3107 0.0
H3877 H 0.69057 0.86856 0.32434 0.0
H3878 H 0.67739 0.83049 0.27649 0.0
C3879 C 0.63754 0.80081 0.34436 0.0
C3880 C 0.66165 0.83467 0.35976 0.0
C3881 C 0.62504 0.79143 0.35252 0.0
C3882 C 0.70971 0.87502 0.30724 0.0
C3883 C 0.69721 0.86561 0.31534 0.0
C3884 C 0.67318 0.83173 0.30003 0.0
C3885 C 0.6415 0.81385 0.3481 0.0
C3886 C 0.65477 0.82379 0.33874 0.0
C3887 C 0.69331 0.85258 0.31163 0.0
C3888 C 0.68006 0.84261 0.32104 0.0
H3889 H 0.61353 0.81089 0.37797 0.0
H3890 H 0.63538 0.82727 0.36346 0.0
H3891 H 0.65557 0.81426 0.29172 0.0
H3892 H 0.72135 0.85567 0.28194 0.0
H3893 H 0.69951 0.83921 0.29633 0.0
C3894 C 0.2098 0.8334 0.35198 0.0
C3895 C 0.20646 0.82104 0.36354 0.0
C3896 C 0.20037 0.8364 0.34327 0.0
C3897 C 0.16665 0.82163 0.31624 0.0
H3898 H 0.1705 0.85437 0.34309 0.0
C3899 C 0.12609 0.83344 0.30092 0.0
C3900 C 0.12935 0.84589 0.29039 0.0
C3901 C 0.13558 0.83041 0.30854 0.0
C3902 C 0.16937 0.84527 0.33498 0.0
H3903 H 0.19049 0.80216 0.3752 0.0
H3904 H 0.174 0.80745 0.36021 0.0
H3905 H 0.18669 0.84899 0.36033 0.0
H3906 H 0.14525 0.86485 0.27902 0.0
H3907 H 0.16183 0.85949 0.292 0.0
H3908 H 0.14931 0.8179 0.29091 0.0
C3909 C 0.18397 0.81478 0.35761 0.0
C3910 C 0.17863 0.84217 0.34494 0.0
C3911 C 0.19342 0.81177 0.36644 0.0
C3912 C 0.14237 0.85517 0.28705 0.0
C3913 C 0.15188 0.85213 0.29474 0.0
C3914 C 0.15739 0.82473 0.30626 0.0
C3915 C 0.18735 0.82712 0.34581 0.0
C3916 C 0.17738 0.83031 0.33571 0.0
C3917 C 0.14859 0.83973 0.30586 0.0
C3918 C 0.15863 0.83658 0.31555 0.0
H3919 H 0.21974 0.84079 0.34923 0.0
H3920 H 0.20331 0.84594 0.33384 0.0
H3921 H 0.16551 0.81251 0.30822 0.0
H3922 H 0.11618 0.82603 0.30392 0.0
H3923 H 0.1327 0.82082 0.31744 0.0
C3924 C 0.70967 0.83447 0.80769 0.0
C3925 C 0.71862 0.84686 0.79617 0.0
C3926 C 0.69723 0.83138 0.81651 0.0
C3927 C 0.67818 0.84597 0.84417 0.0
H3928 H 0.64933 0.81317 0.81754 0.0
C3929 C 0.62581 0.83398 0.86031 0.0
C3930 C 0.61666 0.82152 0.87085 0.0
C3931 C 0.63832 0.83705 0.85254 0.0
C3932 C 0.6573 0.82229 0.8256 0.0
H3933 H 0.72138 0.8657 0.78466 0.0
H3934 H 0.69957 0.86025 0.79986 0.0
H3935 H 0.6709 0.81865 0.7999 0.0
H3936 H 0.61366 0.80257 0.88205 0.0
H3937 H 0.6356 0.808 0.86879 0.0
H3938 H 0.66458 0.84962 0.86986 0.0
C3939 C 0.70228 0.85297 0.80234 0.0
C3940 C 0.66966 0.82545 0.8154 0.0
C3941 C 0.71475 0.85606 0.79338 0.0
C3942 C 0.62044 0.81226 0.87403 0.0
C3943 C 0.63299 0.81534 0.86617 0.0
C3944 C 0.66582 0.84281 0.8544 0.0
C3945 C 0.6934 0.8406 0.81415 0.0
C3946 C 0.68024 0.83734 0.82453 0.0
C3947 C 0.64204 0.82775 0.85505 0.0
C3948 C 0.65523 0.83094 0.84518 0.0
H3949 H 0.71229 0.82712 0.81034 0.0
H3950 H 0.69069 0.82182 0.82594 0.0
H3951 H 0.68615 0.85511 0.85213 0.0
H3952 H 0.62328 0.84138 0.85743 0.0
H3953 H 0.645 0.84664 0.84363 0.0
C3954 C 0.18773 0.80733 0.87628 0.0
C3955 C 0.17841 0.79433 0.87282 0.0
C3956 C 0.18473 0.81689 0.86882 0.0
C3957 C 0.15745 0.82258 0.85735 0.0
H3958 H 0.1818 0.85177 0.80304 0.0
C3959 C 0.14471 0.85864 0.79618 0.0
C3960 C 0.15401 0.87168 0.79887 0.0
C3961 C 0.14766 0.84918 0.80536 0.0
C3962 C 0.17495 0.84374 0.81851 0.0
H3963 H 0.15851 0.78123 0.85948 0.0
H3964 H 0.15338 0.79784 0.84636 0.0
H3965 H 0.18708 0.83552 0.82051 0.0
H3966 H 0.17377 0.88494 0.81321 0.0
H3967 H 0.17881 0.86849 0.82919 0.0
H3968 H 0.14529 0.83079 0.85518 0.0
C3969 C 0.16297 0.80067 0.85515 0.0
C3970 C 0.17799 0.83445 0.82861 0.0
C3971 C 0.16595 0.79113 0.86254 0.0
C3972 C 0.16635 0.87501 0.81061 0.0
C3973 C 0.16929 0.86556 0.81966 0.0
C3974 C 0.1544 0.83188 0.84722 0.0
C3975 C 0.17234 0.81366 0.85783 0.0
C3976 C 0.16927 0.82375 0.84811 0.0
C3977 C 0.15997 0.85255 0.8173 0.0
C3978 C 0.16311 0.84256 0.82766 0.0
H3979 H 0.19741 0.81016 0.88413 0.0
H3980 H 0.19213 0.82682 0.87157 0.0
H3981 H 0.15058 0.81454 0.87275 0.0
H3982 H 0.13511 0.85573 0.7873 0.0
H3983 H 0.14031 0.83922 0.80289 0.0
C3984 C 0.19305 0.38048 0.87448 0.0
C3985 C 0.20608 0.38428 0.87063 0.0
C3986 C 0.18356 0.36791 0.86685 0.0
C3987 C 0.17818 0.3351 0.85474 0.0
H3988 H 0.14851 0.32988 0.80218 0.0
C3989 C 0.14194 0.286 0.7955 0.0
C3990 C 0.1289 0.28219 0.79892 0.0
C3991 C 0.1514 0.29847 0.80412 0.0
C3992 C 0.15668 0.33116 0.81716 0.0
H3993 H 0.21927 0.37772 0.85618 0.0
H3994 H 0.20276 0.35597 0.84278 0.0
H3995 H 0.16473 0.3515 0.81902 0.0
H3996 H 0.11565 0.28861 0.81399 0.0
H3997 H 0.1321 0.3102 0.82904 0.0
H3998 H 0.17013 0.31476 0.85277 0.0
C3999 C 0.19988 0.36263 0.85204 0.0
C4000 C 0.16596 0.34355 0.82688 0.0
C4001 C 0.20936 0.37516 0.85959 0.0
C4002 C 0.12557 0.29118 0.81083 0.0
C4003 C 0.13502 0.30362 0.81934 0.0
C4004 C 0.1689 0.32271 0.84499 0.0
C4005 C 0.18687 0.35888 0.85528 0.0
C4006 C 0.17683 0.34567 0.84577 0.0
C4007 C 0.14804 0.30741 0.81624 0.0
C4008 C 0.15804 0.3206 0.82609 0.0
H4009 H 0.19017 0.38723 0.88291 0.0
H4010 H 0.17361 0.36528 0.87003 0.0
H4011 H 0.18636 0.33638 0.86967 0.0
H4012 H 0.14485 0.27934 0.78645 0.0
H4013 H 0.16136 0.30114 0.80109 0.0
C4014 C 0.83313 0.70917 0.69219 0.0
C4015 C 0.8455 0.71838 0.70322 0.0
C4016 C 0.83023 0.6967 0.68444 0.0
C4017 C 0.84103 0.67328 0.69804 0.0
H4018 H 0.82098 0.65744 0.61503 0.0
C4019 C 0.83468 0.626 0.64316 0.0
C4020 C 0.82243 0.61685 0.63119 0.0
C4021 C 0.83742 0.63835 0.6518 0.0
C4022 C 0.82646 0.66166 0.6385 0.0
H4023 H 0.86445 0.72153 0.71532 0.0
H4024 H 0.85936 0.69974 0.7016 0.0
H4025 H 0.8259 0.67896 0.63129 0.0
H4026 H 0.80349 0.61364 0.6187 0.0
H4027 H 0.80829 0.63522 0.63402 0.0
H4028 H 0.8416 0.65597 0.70523 0.0
C4029 C 0.85189 0.70219 0.69926 0.0
C4030 C 0.82928 0.674 0.64783 0.0
C4031 C 0.85481 0.7147 0.70703 0.0
C4032 C 0.81304 0.62044 0.62766 0.0
C4033 C 0.8158 0.63283 0.63634 0.0
C4034 C 0.8382 0.66093 0.68871 0.0
C4035 C 0.8396 0.69309 0.68748 0.0
C4036 C 0.8366 0.67995 0.67771 0.0
C4037 C 0.828 0.6419 0.64876 0.0
C4038 C 0.8309 0.65499 0.6588 0.0
H4039 H 0.82568 0.71161 0.68905 0.0
H4040 H 0.82061 0.68987 0.67601 0.0
H4041 H 0.84654 0.67752 0.72146 0.0
H4042 H 0.84218 0.62362 0.64616 0.0
H4043 H 0.84697 0.64516 0.66072 0.0
C4044 C 0.29259 0.12459 0.6946 0.0
C4045 C 0.28309 0.12768 0.703 0.0
C4046 C 0.30504 0.13418 0.68686 0.0
C4047 C 0.32795 0.16859 0.69701 0.0
H4048 H 0.34456 0.16336 0.6173 0.0
C4049 C 0.37581 0.20885 0.64292 0.0
C4050 C 0.38497 0.2056 0.63208 0.0
C4051 C 0.36339 0.19935 0.65142 0.0
C4052 C 0.34013 0.16491 0.63988 0.0
H4053 H 0.27941 0.1434 0.71051 0.0
H4054 H 0.30124 0.16016 0.69698 0.0
H4055 H 0.32294 0.1469 0.63326 0.0
H4056 H 0.38817 0.18973 0.62169 0.0
H4057 H 0.36651 0.17315 0.63697 0.0
H4058 H 0.34516 0.18656 0.7038 0.0
C4059 C 0.29899 0.15027 0.69659 0.0
C4060 C 0.32774 0.15548 0.64901 0.0
C4061 C 0.28647 0.14066 0.70425 0.0
C4062 C 0.38135 0.19259 0.62971 0.0
C4063 C 0.36891 0.18307 0.63836 0.0
C4064 C 0.34038 0.178 0.68796 0.0
C4065 C 0.30836 0.14711 0.68738 0.0
C4066 C 0.32151 0.15721 0.67769 0.0
C4067 C 0.3598 0.18635 0.6495 0.0
C4068 C 0.34662 0.17628 0.65926 0.0
H4069 H 0.2904 0.11472 0.69349 0.0
H4070 H 0.31209 0.13144 0.68045 0.0
H4071 H 0.32347 0.17012 0.7195 0.0
H4072 H 0.37821 0.21876 0.64504 0.0
H4073 H 0.35657 0.20222 0.65931 0.0
C4074 C 0.8602 0.14578 0.7017 0.0
C4075 C 0.87321 0.15509 0.6985 0.0
C4076 C 0.85067 0.14871 0.69321 0.0
C4077 C 0.84539 0.17157 0.64168 0.0
H4078 H 0.81486 0.15915 0.69835 0.0
C4079 C 0.80844 0.18844 0.62285 0.0
C4080 C 0.79543 0.17913 0.62618 0.0
C4081 C 0.81798 0.18547 0.6309 0.0
C4082 C 0.82327 0.16257 0.68202 0.0
H4083 H 0.88636 0.1749 0.68441 0.0
H4084 H 0.8698 0.17999 0.67019 0.0
H4085 H 0.83131 0.154 0.71465 0.0
H4086 H 0.7823 0.15928 0.63983 0.0
H4087 H 0.79887 0.15413 0.65331 0.0
H4088 H 0.83734 0.18015 0.60908 0.0
C4089 C 0.86694 0.17036 0.67868 0.0
C4090 C 0.83269 0.15962 0.69137 0.0
C4091 C 0.87645 0.16745 0.68713 0.0
C4092 C 0.7922 0.16673 0.63706 0.0
C4093 C 0.80172 0.16378 0.64507 0.0
C4094 C 0.83596 0.17452 0.63233 0.0
C4095 C 0.85394 0.16101 0.68132 0.0
C4096 C 0.84387 0.16409 0.67133 0.0
C4097 C 0.81471 0.17313 0.64247 0.0
C4098 C 0.82478 0.17005 0.65237 0.0
H4099 H 0.85734 0.13615 0.7102 0.0
H4100 H 0.84074 0.14125 0.69522 0.0
H4101 H 0.85379 0.17499 0.62536 0.0
H4102 H 0.81129 0.1981 0.61471 0.0
H4103 H 0.82791 0.19293 0.6289 0.0
C4104 C 0.04825 0.52238 0.45583 0.0
C4105 C 0.05195 0.51306 0.4587 0.0
C4106 C 0.03575 0.51939 0.4641 0.0
C4107 C 0.00768 0.49638 0.51529 0.0
H4108 H 0.9895 0.50903 0.45983 0.0
C4109 C 0.95403 0.47969 0.53618 0.0
C4110 C 0.95035 0.48903 0.53333 0.0
C4111 C 0.96648 0.48262 0.52752 0.0
C4112 C 0.9945 0.50554 0.47583 0.0
H4113 H 0.04523 0.49315 0.47171 0.0
H4114 H 0.02352 0.48797 0.48558 0.0
H4115 H 0.01104 0.51416 0.44291 0.0
H4116 H 0.95704 0.50889 0.51979 0.0
H4117 H 0.97867 0.51397 0.5053 0.0
H4118 H 0.99116 0.48777 0.54825 0.0
C4119 C 0.03032 0.49764 0.47753 0.0
C4120 C 0.00684 0.50848 0.4661 0.0
C4121 C 0.04278 0.50062 0.46929 0.0
C4122 C 0.95948 0.50142 0.52224 0.0
C4123 C 0.97189 0.50433 0.51363 0.0
C4124 C 0.99534 0.49344 0.52503 0.0
C4125 C 0.0267 0.50702 0.47544 0.0
C4126 C 0.01357 0.50393 0.48571 0.0
C4127 C 0.97551 0.49494 0.51581 0.0
C4128 C 0.98861 0.498 0.50544 0.0
H4129 H 0.05506 0.53208 0.44792 0.0
H4130 H 0.03328 0.52687 0.46249 0.0
H4131 H 0.01269 0.49289 0.53129 0.0
H4132 H 0.94724 0.47003 0.54446 0.0
H4133 H 0.96893 0.47513 0.52919 0.0
C4134 C 0.50117 0.54302 0.47307 0.0
C4135 C 0.48875 0.53969 0.46206 0.0
C4136 C 0.50419 0.53357 0.48138 0.0
C4137 C 0.49355 0.49932 0.46905 0.0
H4138 H 0.51422 0.50413 0.55112 0.0
C4139 C 0.50033 0.4588 0.52417 0.0
C4140 C 0.51272 0.46191 0.53492 0.0
C4141 C 0.49751 0.46838 0.516 0.0
C4142 C 0.50856 0.50271 0.52793 0.0
H4143 H 0.46981 0.52373 0.45083 0.0
H4144 H 0.4751 0.50724 0.46559 0.0
H4145 H 0.50906 0.52057 0.53466 0.0
H4146 H 0.53178 0.47765 0.54607 0.0
H4147 H 0.52683 0.49442 0.5316 0.0
H4148 H 0.49303 0.48146 0.46233 0.0
C4149 C 0.48252 0.51719 0.46741 0.0
C4150 C 0.5056 0.51213 0.51847 0.0
C4151 C 0.47949 0.52665 0.45905 0.0
C4152 C 0.52214 0.4749 0.53802 0.0
C4153 C 0.51929 0.48451 0.52981 0.0
C4154 C 0.4965 0.48991 0.47851 0.0
C4155 C 0.49488 0.52055 0.47897 0.0
C4156 C 0.49805 0.51054 0.48893 0.0
C4157 C 0.50698 0.48135 0.51829 0.0
C4158 C 0.50401 0.49147 0.50811 0.0
H4159 H 0.50858 0.55294 0.47563 0.0
H4160 H 0.51385 0.53648 0.48964 0.0
H4161 H 0.48788 0.49789 0.44585 0.0
H4162 H 0.49279 0.44892 0.52157 0.0
H4163 H 0.48787 0.46562 0.50785 0.0
C4164 C 0.52625 0.04799 0.53381 0.0
C4165 C 0.53926 0.05162 0.53083 0.0
C4166 C 0.51669 0.03556 0.52513 0.0
C4167 C 0.51096 0.00268 0.51243 0.0
H4168 H 0.48181 0.99801 0.45827 0.0
C4169 C 0.47455 0.95366 0.45385 0.0
C4170 C 0.46154 0.94998 0.45718 0.0
C4171 C 0.4841 0.96618 0.46164 0.0
C4172 C 0.48983 0.99914 0.47365 0.0
H4173 H 0.55235 0.04489 0.51665 0.0
H4174 H 0.53574 0.02338 0.50151 0.0
H4175 H 0.49813 0.01951 0.47583 0.0
H4176 H 0.44843 0.95675 0.47069 0.0
H4177 H 0.46503 0.97844 0.48437 0.0
H4178 H 0.50266 0.98232 0.51034 0.0
C4179 C 0.53292 0.03008 0.51088 0.0
C4180 C 0.49917 0.01146 0.48379 0.0
C4181 C 0.54245 0.04247 0.51944 0.0
C4182 C 0.45834 0.95921 0.46771 0.0
C4183 C 0.46787 0.9717 0.47543 0.0
C4184 C 0.50163 0.99037 0.50231 0.0
C4185 C 0.51993 0.02649 0.51341 0.0
C4186 C 0.50985 0.01337 0.50328 0.0
C4187 C 0.48086 0.97531 0.47285 0.0
C4188 C 0.49095 0.98845 0.4828 0.0
H4189 H 0.52344 0.05477 0.54244 0.0
H4190 H 0.50676 0.03304 0.52773 0.0
H4191 H 0.51898 0.00381 0.52785 0.0
H4192 H 0.47739 0.94683 0.44581 0.0
H4193 H 0.49403 0.96871 0.45895 0.0
C4194 C 0.50097 0.04255 0.02034 0.0
C4195 C 0.51323 0.05168 0.03224 0.0
C4196 C 0.4981 0.03011 0.01241 0.0
C4197 C 0.50857 0.00654 0.02771 0.0
H4198 H 0.48878 0.99057 0.94442 0.0
C4199 C 0.50158 0.95869 0.97537 0.0
C4200 C 0.48932 0.94964 0.96324 0.0
C4201 C 0.50451 0.97115 0.98343 0.0
C4202 C 0.49419 0.99484 0.96796 0.0
H4203 H 0.53207 0.05475 0.04541 0.0
H4204 H 0.52704 0.03299 0.03134 0.0
H4205 H 0.49395 0.01226 0.95968 0.0
H4206 H 0.47054 0.94671 0.94992 0.0
H4207 H 0.47567 0.96847 0.96424 0.0
H4208 H 0.50879 0.98911 0.036 0.0
C4209 C 0.51962 0.03548 0.0285 0.0
C4210 C 0.49716 0.00727 0.97672 0.0
C4211 C 0.52251 0.04797 0.03646 0.0
C4212 C 0.4801 0.95343 0.95903 0.0
C4213 C 0.48305 0.96592 0.96712 0.0
C4214 C 0.50559 0.9941 0.01896 0.0
C4215 C 0.5074 0.02644 0.01611 0.0
C4216 C 0.50437 0.01326 0.00672 0.0
C4217 C 0.49526 0.9749 0.97963 0.0
C4218 C 0.49837 0.98811 0.98897 0.0
H4219 H 0.49355 0.04501 0.01683 0.0
H4220 H 0.48854 0.02333 0.00349 0.0
H4221 H 0.51397 0.01081 0.05125 0.0
H4222 H 0.50895 0.95617 0.97889 0.0
H4223 H 0.51407 0.97788 0.99246 0.0
C4224 C 0.95874 0.45792 0.02481 0.0
C4225 C 0.94955 0.46109 0.03597 0.0
C4226 C 0.97122 0.46748 0.01708 0.0
C4227 C 0.99473 0.50161 0.03119 0.0
H4228 H 0.01058 0.49742 0.94816 0.0
C4229 C 0.04246 0.54226 0.97735 0.0
C4230 C 0.05146 0.53899 0.96514 0.0
C4231 C 0.03004 0.53277 0.9859 0.0
C4232 C 0.00635 0.49867 0.97164 0.0
H4233 H 0.94642 0.47688 0.04828 0.0
H4234 H 0.96824 0.49359 0.03459 0.0
H4235 H 0.98895 0.48094 0.96399 0.0
H4236 H 0.05435 0.52308 0.95227 0.0
H4237 H 0.03267 0.50652 0.96749 0.0
H4238 H 0.01215 0.51933 0.03886 0.0
C4239 C 0.96577 0.48367 0.03213 0.0
C4240 C 0.99395 0.48923 0.98072 0.0
C4241 C 0.95325 0.47408 0.03988 0.0
C4242 C 0.04767 0.52596 0.96141 0.0
C4243 C 0.03522 0.51646 0.97002 0.0
C4244 C 0.00714 0.51105 0.02213 0.0
C4245 C 0.97485 0.48046 0.02026 0.0
C4246 C 0.98801 0.49058 0.01063 0.0
C4247 C 0.02628 0.51976 0.98254 0.0
C4248 C 0.0131 0.50969 0.99224 0.0
H4249 H 0.9563 0.44804 0.02159 0.0
H4250 H 0.97803 0.46469 0.00859 0.0
H4251 H 0.99049 0.50285 0.05463 0.0
H4252 H 0.045 0.55217 0.98052 0.0
H4253 H 0.02334 0.53564 0.99494 0.0
C4254 C 0.54251 0.50018 0.01988 0.0
C4255 C 0.53949 0.48776 0.03007 0.0
C4256 C 0.53286 0.50289 0.01141 0.0
C4257 C 0.49853 0.49148 0.02298 0.0
H4258 H 0.50327 0.51269 0.94214 0.0
C4259 C 0.45813 0.49918 0.97068 0.0
C4260 C 0.46142 0.51162 0.96006 0.0
C4261 C 0.4676 0.49612 0.97832 0.0
C4262 C 0.50186 0.50687 0.965 0.0
H4263 H 0.52385 0.46849 0.03964 0.0
H4264 H 0.50698 0.47326 0.02472 0.0
H4265 H 0.51976 0.50752 0.95776 0.0
H4266 H 0.47734 0.53059 0.94888 0.0
H4267 H 0.49388 0.52526 0.96258 0.0
H4268 H 0.48066 0.49089 0.03038 0.0
C4269 C 0.51686 0.4809 0.02358 0.0
C4270 C 0.5113 0.5039 0.97394 0.0
C4271 C 0.52653 0.47816 0.03203 0.0
C4272 C 0.47445 0.52089 0.95679 0.0
C4273 C 0.48394 0.51783 0.96454 0.0
C4274 C 0.48909 0.49447 0.01408 0.0
C4275 C 0.51994 0.49327 0.01289 0.0
C4276 C 0.50976 0.4962 0.00309 0.0
C4277 C 0.48061 0.50543 0.97568 0.0
C4278 C 0.49065 0.50222 0.985 0.0
H4279 H 0.55236 0.50786 0.01814 0.0
H4280 H 0.53555 0.51256 0.00384 0.0
H4281 H 0.49713 0.48567 0.04585 0.0
H4282 H 0.44821 0.49176 0.97342 0.0
H4283 H 0.4647 0.48643 0.98623 0.0
loop_
_geom_bond_atom_site_label_1
_geom_bond_atom_site_label_2
_geom_bond_distance
_geom_bond_site_symmetry_2
_ccdc_geom_bond_type
Co0 O2 2.143 . S
Co0 O8 2.074 . S
Co0 O11 2.093 . S
Co0 O24 2.097 . S
Co0 N41 2.151 . S
Co0 N49 2.214 . S
Co1 O2 2.160 . S
Co1 O7 2.058 . S
Co1 O17 2.057 . S
Co1 O32 2.037 . S
Co1 N36 2.145 . S
Co1 N57 2.257 . S
O2 Co0 2.143 . S
O2 Co1 2.160 . S
C3 O4 1.278 . S
C3 O11 1.224 . S
O4 C3 1.278 . S
C5 O6 1.245 . S
C5 O17 1.232 . S
O6 C5 1.245 . S
O7 Co1 2.058 . S
O7 C33 1.269 . S
O8 Co0 2.074 . S
O8 C33 1.257 . S
H9 C34 0.930 . S
H10 C40 0.930 . S
O11 Co0 2.093 . S
O11 C3 1.224 . S
H12 C44 0.929 . S
H13 C46 0.930 . S
H14 C47 0.930 . S
H15 C45 0.929 . S
H16 C48 0.928 . S
O17 Co1 2.057 . S
O17 C5 1.232 . S
H18 C37 0.929 . S
H19 C38 0.929 . S
H20 C50 0.931 . S
H21 C42 0.929 . S
H22 C51 0.930 . S
H23 C43 0.931 . S
O24 Co0 2.097 . S
O24 C52 1.214 . S
H25 C53 0.929 . S
H26 C54 0.929 . S
H27 C55 0.930 . S
H28 C56 0.929 . S
H29 C58 0.930 . S
H30 C35 0.930 . S
H31 C39 0.930 . S
O32 Co1 2.037 . S
O32 C52 1.234 . S
C33 O7 1.269 . S
C33 O8 1.257 . S
C34 H9 0.930 . S
C34 C37 1.388 . S
C34 C39 1.418 . S
C35 H30 0.930 . S
C35 C38 1.404 . S
C35 C39 1.353 . S
N36 Co1 2.145 . S
N36 C37 1.397 . S
N36 C38 1.334 . S
C37 H18 0.929 . S
C37 C34 1.388 . S
C37 N36 1.397 . S
C38 H19 0.929 . S
C38 C35 1.404 . S
C38 N36 1.334 . S
C39 H31 0.930 . S
C39 C34 1.418 . S
C39 C35 1.353 . S
C40 H10 0.930 . S
C40 N41 1.330 . S
C40 C42 1.446 . S
N41 Co0 2.151 . S
N41 C40 1.330 . S
N41 C45 1.418 . S
C42 H21 0.929 . S
C42 C40 1.446 . S
C42 C43 1.332 . S
C43 H23 0.931 . S
C43 C42 1.332 . S
C43 C44 1.267 . S
C44 H12 0.929 . S
C44 C43 1.267 . S
C44 C45 1.251 . S
C45 H15 0.929 . S
C45 N41 1.418 . S
C45 C44 1.251 . S
C46 H13 0.930 . S
C46 C48 1.406 . S
C46 C51 1.261 . S
C47 H14 0.930 . S
C47 N49 1.325 . S
C47 C50 1.357 . S
C48 H16 0.928 . S
C48 C46 1.406 . S
C48 N49 1.261 . S
N49 Co0 2.214 . S
N49 C47 1.325 . S
N49 C48 1.261 . S
C50 H20 0.931 . S
C50 C47 1.357 . S
C50 C51 1.312 . S
C51 H22 0.930 . S
C51 C46 1.261 . S
C51 C50 1.312 . S
C52 O24 1.214 . S
C52 O32 1.234 . S
C53 H25 0.929 . S
C53 C56 1.391 . S
C53 C58 1.391 . S
C54 H26 0.929 . S
C54 C55 1.390 . S
C54 N57 1.391 . S
C55 H27 0.930 . S
C55 C54 1.390 . S
C55 C56 1.392 . S
C56 H28 0.929 . S
C56 C53 1.391 . S
C56 C55 1.392 . S
N57 Co1 2.257 . S
N57 C54 1.391 . S
N57 C58 1.388 . S
C58 H29 0.930 . S
C58 C53 1.391 . S
C58 N57 1.388 . S
Co59 O61 2.143 . S
Co59 O67 2.074 . S
Co59 O70 2.093 . S
Co59 O83 2.097 . S
Co59 N100 2.151 . S
Co59 N108 2.214 . S
Co60 O61 2.160 . S
Co60 O66 2.058 . S
Co60 O76 2.057 . S
Co60 O91 2.037 . S
Co60 N95 2.145 . S
Co60 N116 2.257 . S
O61 Co59 2.143 . S
O61 Co60 2.160 . S
C62 O63 1.278 . S
C62 O70 1.224 . S
O63 C62 1.278 . S
C64 O65 1.245 . S
C64 O76 1.232 . S
O65 C64 1.245 . S
O66 Co60 2.058 . S
O66 C92 1.269 . S
O67 Co59 2.074 . S
O67 C92 1.257 . S
H68 C93 0.930 . S
H69 C99 0.930 . S
O70 Co59 2.093 . S
O70 C62 1.224 . S
H71 C103 0.929 . S
H72 C105 0.930 . S
H73 C106 0.930 . S
H74 C104 0.929 . S
H75 C107 0.928 . S
O76 Co60 2.057 . S
O76 C64 1.232 . S
H77 C96 0.929 . S
H78 C97 0.929 . S
H79 C109 0.931 . S
H80 C101 0.929 . S
H81 C110 0.930 . S
H82 C102 0.931 . S
O83 Co59 2.097 . S
O83 C111 1.214 . S
H84 C112 0.929 . S
H85 C113 0.929 . S
H86 C114 0.930 . S
H87 C115 0.929 . S
H88 C117 0.930 . S
H89 C94 0.930 . S
H90 C98 0.930 . S
O91 Co60 2.037 . S
O91 C111 1.234 . S
C92 O66 1.269 . S
C92 O67 1.257 . S
C93 H68 0.930 . S
C93 C96 1.388 . S
C93 C98 1.418 . S
C94 H89 0.930 . S
C94 C97 1.404 . S
C94 C98 1.353 . S
N95 Co60 2.145 . S
N95 C96 1.397 . S
N95 C97 1.334 . S
C96 H77 0.929 . S
C96 C93 1.388 . S
C96 N95 1.397 . S
C97 H78 0.929 . S
C97 C94 1.404 . S
C97 N95 1.334 . S
C98 H90 0.930 . S
C98 C93 1.418 . S
C98 C94 1.353 . S
C99 H69 0.930 . S
C99 N100 1.330 . S
C99 C101 1.446 . S
N100 Co59 2.151 . S
N100 C99 1.330 . S
N100 C104 1.418 . S
C101 H80 0.929 . S
C101 C99 1.446 . S
C101 C102 1.332 . S
C102 H82 0.931 . S
C102 C101 1.332 . S
C102 C103 1.267 . S
C103 H71 0.929 . S
C103 C102 1.267 . S
C103 C104 1.251 . S
C104 H74 0.929 . S
C104 N100 1.418 . S
C104 C103 1.251 . S
C105 H72 0.930 . S
C105 C107 1.406 . S
C105 C110 1.261 . S
C106 H73 0.930 . S
C106 N108 1.325 . S
C106 C109 1.357 . S
C107 H75 0.928 . S
C107 C105 1.406 . S
C107 N108 1.261 . S
N108 Co59 2.214 . S
N108 C106 1.325 . S
N108 C107 1.261 . S
C109 H79 0.931 . S
C109 C106 1.357 . S
C109 C110 1.312 . S
C110 H81 0.930 . S
C110 C105 1.261 . S
C110 C109 1.312 . S
C111 O83 1.214 . S
C111 O91 1.234 . S
C112 H84 0.929 . S
C112 C115 1.391 . S
C112 C117 1.391 . S
C113 H85 0.929 . S
C113 C114 1.390 . S
C113 N116 1.391 . S
C114 H86 0.930 . S
C114 C113 1.390 . S
C114 C115 1.392 . S
C115 H87 0.929 . S
C115 C112 1.391 . S
C115 C114 1.392 . S
N116 Co60 2.257 . S
N116 C113 1.391 . S
N116 C117 1.388 . S
C117 H88 0.930 . S
C117 C112 1.391 . S
C117 N116 1.388 . S
Co118 O120 2.143 . S
Co118 O126 2.074 . S
Co118 O129 2.093 . S
Co118 O142 2.097 . S
Co118 N159 2.151 . S
Co118 N167 2.214 . S
Co119 O120 2.160 . S
Co119 O125 2.058 . S
Co119 O135 2.057 . S
Co119 O150 2.037 . S
Co119 N154 2.145 . S
Co119 N175 2.257 . S
O120 Co118 2.143 . S
O120 Co119 2.160 . S
C121 O122 1.278 . S
C121 O129 1.224 . S
O122 C121 1.278 . S
C123 O124 1.245 . S
C123 O135 1.232 . S
O124 C123 1.245 . S
O125 Co119 2.058 . S
O125 C151 1.269 . S
O126 Co118 2.074 . S
O126 C151 1.257 . S
H127 C152 0.930 . S
H128 C158 0.930 . S
O129 Co118 2.093 . S
O129 C121 1.224 . S
H130 C162 0.929 . S
H131 C164 0.930 . S
H132 C165 0.930 . S
H133 C163 0.929 . S
H134 C166 0.928 . S
O135 Co119 2.057 . S
O135 C123 1.232 . S
H136 C155 0.929 . S
H137 C156 0.929 . S
H138 C168 0.931 . S
H139 C160 0.929 . S
H140 C169 0.930 . S
H141 C161 0.931 . S
O142 Co118 2.097 . S
O142 C170 1.214 . S
H143 C171 0.929 . S
H144 C172 0.929 . S
H145 C173 0.930 . S
H146 C174 0.929 . S
H147 C176 0.930 . S
H148 C153 0.930 . S
H149 C157 0.930 . S
O150 Co119 2.037 . S
O150 C170 1.234 . S
C151 O125 1.269 . S
C151 O126 1.257 . S
C152 H127 0.930 . S
C152 C155 1.388 . S
C152 C157 1.418 . S
C153 H148 0.930 . S
C153 C156 1.404 . S
C153 C157 1.353 . S
N154 Co119 2.145 . S
N154 C155 1.397 . S
N154 C156 1.334 . S
C155 H136 0.929 . S
C155 C152 1.388 . S
C155 N154 1.397 . S
C156 H137 0.929 . S
C156 C153 1.404 . S
C156 N154 1.334 . S
C157 H149 0.930 . S
C157 C152 1.418 . S
C157 C153 1.353 . S
C158 H128 0.930 . S
C158 N159 1.330 . S
C158 C160 1.446 . S
N159 Co118 2.151 . S
N159 C158 1.330 . S
N159 C163 1.418 . S
C160 H139 0.929 . S
C160 C158 1.446 . S
C160 C161 1.332 . S
C161 H141 0.931 . S
C161 C160 1.332 . S
C161 C162 1.267 . S
C162 H130 0.929 . S
C162 C161 1.267 . S
C162 C163 1.251 . S
C163 H133 0.929 . S
C163 N159 1.418 . S
C163 C162 1.251 . S
C164 H131 0.930 . S
C164 C166 1.406 . S
C164 C169 1.261 . S
C165 H132 0.930 . S
C165 N167 1.325 . S
C165 C168 1.357 . S
C166 H134 0.928 . S
C166 C164 1.406 . S
C166 N167 1.261 . S
N167 Co118 2.214 . S
N167 C165 1.325 . S
N167 C166 1.261 . S
C168 H138 0.931 . S
C168 C165 1.357 . S
C168 C169 1.312 . S
C169 H140 0.930 . S
C169 C164 1.261 . S
C169 C168 1.312 . S
C170 O142 1.214 . S
C170 O150 1.234 . S
C171 H143 0.929 . S
C171 C174 1.391 . S
C171 C176 1.391 . S
C172 H144 0.929 . S
C172 C173 1.390 . S
C172 N175 1.391 . S
C173 H145 0.930 . S
C173 C172 1.390 . S
C173 C174 1.392 . S
C174 H146 0.929 . S
C174 C171 1.391 . S
C174 C173 1.392 . S
N175 Co119 2.257 . S
N175 C172 1.391 . S
N175 C176 1.388 . S
C176 H147 0.930 . S
C176 C171 1.391 . S
C176 N175 1.388 . S
Co177 O179 2.143 . S
Co177 O185 2.074 . S
Co177 O188 2.093 . S
Co177 O201 2.097 . S
Co177 N218 2.151 . S
Co177 N226 2.214 . S
Co178 O179 2.160 . S
Co178 O184 2.058 . S
Co178 O194 2.057 . S
Co178 O209 2.037 . S
Co178 N213 2.145 . S
Co178 N234 2.257 . S
O179 Co177 2.143 . S
O179 Co178 2.160 . S
C180 O181 1.278 . S
C180 O188 1.224 . S
O181 C180 1.278 . S
C182 O183 1.245 . S
C182 O194 1.232 . S
O183 C182 1.245 . S
O184 Co178 2.058 . S
O184 C210 1.269 . S
O185 Co177 2.074 . S
O185 C210 1.257 . S
H186 C211 0.930 . S
H187 C217 0.930 . S
O188 Co177 2.093 . S
O188 C180 1.224 . S
H189 C221 0.929 . S
H190 C223 0.930 . S
H191 C224 0.930 . S
H192 C222 0.929 . S
H193 C225 0.928 . S
O194 Co178 2.057 . S
O194 C182 1.232 . S
H195 C214 0.929 . S
H196 C215 0.929 . S
H197 C227 0.931 . S
H198 C219 0.929 . S
H199 C228 0.930 . S
H200 C220 0.931 . S
O201 Co177 2.097 . S
O201 C229 1.214 . S
H202 C230 0.929 . S
H203 C231 0.929 . S
H204 C232 0.930 . S
H205 C233 0.929 . S
H206 C235 0.930 . S
H207 C212 0.930 . S
H208 C216 0.930 . S
O209 Co178 2.037 . S
O209 C229 1.234 . S
C210 O184 1.269 . S
C210 O185 1.257 . S
C211 H186 0.930 . S
C211 C214 1.388 . S
C211 C216 1.418 . S
C212 H207 0.930 . S
C212 C215 1.404 . S
C212 C216 1.353 . S
N213 Co178 2.145 . S
N213 C214 1.397 . S
N213 C215 1.334 . S
C214 H195 0.929 . S
C214 C211 1.388 . S
C214 N213 1.397 . S
C215 H196 0.929 . S
C215 C212 1.404 . S
C215 N213 1.334 . S
C216 H208 0.930 . S
C216 C211 1.418 . S
C216 C212 1.353 . S
C217 H187 0.930 . S
C217 N218 1.330 . S
C217 C219 1.446 . S
N218 Co177 2.151 . S
N218 C217 1.330 . S
N218 C222 1.418 . S
C219 H198 0.929 . S
C219 C217 1.446 . S
C219 C220 1.332 . S
C220 H200 0.931 . S
C220 C219 1.332 . S
C220 C221 1.267 . S
C221 H189 0.929 . S
C221 C220 1.267 . S
C221 C222 1.251 . S
C222 H192 0.929 . S
C222 N218 1.418 . S
C222 C221 1.251 . S
C223 H190 0.930 . S
C223 C225 1.406 . S
C223 C228 1.261 . S
C224 H191 0.930 . S
C224 N226 1.325 . S
C224 C227 1.357 . S
C225 H193 0.928 . S
C225 C223 1.406 . S
C225 N226 1.261 . S
N226 Co177 2.214 . S
N226 C224 1.325 . S
N226 C225 1.261 . S
C227 H197 0.931 . S
C227 C224 1.357 . S
C227 C228 1.312 . S
C228 H199 0.930 . S
C228 C223 1.261 . S
C228 C227 1.312 . S
C229 O201 1.214 . S
C229 O209 1.234 . S
C230 H202 0.929 . S
C230 C233 1.391 . S
C230 C235 1.391 . S
C231 H203 0.929 . S
C231 C232 1.390 . S
C231 N234 1.391 . S
C232 H204 0.930 . S
C232 C231 1.390 . S
C232 C233 1.392 . S
C233 H205 0.929 . S
C233 C230 1.391 . S
C233 C232 1.392 . S
N234 Co178 2.257 . S
N234 C231 1.391 . S
N234 C235 1.388 . S
C235 H206 0.930 . S
C235 C230 1.391 . S
C235 N234 1.388 . S
Co236 O238 2.143 . S
Co236 O244 2.074 . S
Co236 O247 2.093 . S
Co236 O260 2.097 . S
Co236 N277 2.151 . S
Co236 N285 2.214 . S
Co237 O238 2.160 . S
Co237 O243 2.058 . S
Co237 O253 2.057 . S
Co237 O268 2.037 . S
Co237 N272 2.145 . S
Co237 N293 2.257 . S
O238 Co236 2.143 . S
O238 Co237 2.160 . S
C239 O240 1.278 . S
C239 O247 1.224 . S
O240 C239 1.278 . S
C241 O242 1.245 . S
C241 O253 1.232 . S
O242 C241 1.245 . S
O243 Co237 2.058 . S
O243 C269 1.269 . S
O244 Co236 2.074 . S
O244 C269 1.257 . S
H245 C270 0.930 . S
H246 C276 0.930 . S
O247 Co236 2.093 . S
O247 C239 1.224 . S
H248 C280 0.929 . S
H249 C282 0.930 . S
H250 C283 0.930 . S
H251 C281 0.929 . S
H252 C284 0.928 . S
O253 Co237 2.057 . S
O253 C241 1.232 . S
H254 C273 0.929 . S
H255 C274 0.929 . S
H256 C286 0.931 . S
H257 C278 0.929 . S
H258 C287 0.930 . S
H259 C279 0.931 . S
O260 Co236 2.097 . S
O260 C288 1.214 . S
H261 C289 0.929 . S
H262 C290 0.929 . S
H263 C291 0.930 . S
H264 C292 0.929 . S
H265 C294 0.930 . S
H266 C271 0.930 . S
H267 C275 0.930 . S
O268 Co237 2.037 . S
O268 C288 1.234 . S
C269 O243 1.269 . S
C269 O244 1.257 . S
C270 H245 0.930 . S
C270 C273 1.388 . S
C270 C275 1.418 . S
C271 H266 0.930 . S
C271 C274 1.404 . S
C271 C275 1.353 . S
N272 Co237 2.145 . S
N272 C273 1.397 . S
N272 C274 1.334 . S
C273 H254 0.929 . S
C273 C270 1.388 . S
C273 N272 1.397 . S
C274 H255 0.929 . S
C274 C271 1.404 . S
C274 N272 1.334 . S
C275 H267 0.930 . S
C275 C270 1.418 . S
C275 C271 1.353 . S
C276 H246 0.930 . S
C276 N277 1.330 . S
C276 C278 1.446 . S
N277 Co236 2.151 . S
N277 C276 1.330 . S
N277 C281 1.418 . S
C278 H257 0.929 . S
C278 C276 1.446 . S
C278 C279 1.332 . S
C279 H259 0.931 . S
C279 C278 1.332 . S
C279 C280 1.267 . S
C280 H248 0.929 . S
C280 C279 1.267 . S
C280 C281 1.251 . S
C281 H251 0.929 . S
C281 N277 1.418 . S
C281 C280 1.251 . S
C282 H249 0.930 . S
C282 C284 1.406 . S
C282 C287 1.261 . S
C283 H250 0.930 . S
C283 N285 1.325 . S
C283 C286 1.357 . S
C284 H252 0.928 . S
C284 C282 1.406 . S
C284 N285 1.261 . S
N285 Co236 2.214 . S
N285 C283 1.325 . S
N285 C284 1.261 . S
C286 H256 0.931 . S
C286 C283 1.357 . S
C286 C287 1.312 . S
C287 H258 0.930 . S
C287 C282 1.261 . S
C287 C286 1.312 . S
C288 O260 1.214 . S
C288 O268 1.234 . S
C289 H261 0.929 . S
C289 C292 1.391 . S
C289 C294 1.391 . S
C290 H262 0.929 . S
C290 C291 1.390 . S
C290 N293 1.391 . S
C291 H263 0.930 . S
C291 C290 1.390 . S
C291 C292 1.392 . S
C292 H264 0.929 . S
C292 C289 1.391 . S
C292 C291 1.392 . S
N293 Co237 2.257 . S
N293 C290 1.391 . S
N293 C294 1.388 . S
C294 H265 0.930 . S
C294 C289 1.391 . S
C294 N293 1.388 . S
Co295 O297 2.143 . S
Co295 O303 2.074 . S
Co295 O306 2.093 . S
Co295 O319 2.097 . S
Co295 N336 2.151 . S
Co295 N344 2.214 . S
Co296 O297 2.160 . S
Co296 O302 2.058 . S
Co296 O312 2.057 . S
Co296 O327 2.037 . S
Co296 N331 2.145 . S
Co296 N352 2.257 . S
O297 Co295 2.143 . S
O297 Co296 2.160 . S
C298 O299 1.278 . S
C298 O306 1.224 . S
O299 C298 1.278 . S
C300 O301 1.245 . S
C300 O312 1.232 . S
O301 C300 1.245 . S
O302 Co296 2.058 . S
O302 C328 1.269 . S
O303 Co295 2.074 . S
O303 C328 1.257 . S
H304 C329 0.930 . S
H305 C335 0.930 . S
O306 Co295 2.093 . S
O306 C298 1.224 . S
H307 C339 0.929 . S
H308 C341 0.930 . S
H309 C342 0.930 . S
H310 C340 0.929 . S
H311 C343 0.928 . S
O312 Co296 2.057 . S
O312 C300 1.232 . S
H313 C332 0.929 . S
H314 C333 0.929 . S
H315 C345 0.931 . S
H316 C337 0.929 . S
H317 C346 0.930 . S
H318 C338 0.931 . S
O319 Co295 2.097 . S
O319 C347 1.214 . S
H320 C348 0.929 . S
H321 C349 0.929 . S
H322 C350 0.930 . S
H323 C351 0.929 . S
H324 C353 0.930 . S
H325 C330 0.930 . S
H326 C334 0.930 . S
O327 Co296 2.037 . S
O327 C347 1.234 . S
C328 O302 1.269 . S
C328 O303 1.257 . S
C329 H304 0.930 . S
C329 C332 1.388 . S
C329 C334 1.418 . S
C330 H325 0.930 . S
C330 C333 1.404 . S
C330 C334 1.353 . S
N331 Co296 2.145 . S
N331 C332 1.397 . S
N331 C333 1.334 . S
C332 H313 0.929 . S
C332 C329 1.388 . S
C332 N331 1.397 . S
C333 H314 0.929 . S
C333 C330 1.404 . S
C333 N331 1.334 . S
C334 H326 0.930 . S
C334 C329 1.418 . S
C334 C330 1.353 . S
C335 H305 0.930 . S
C335 N336 1.330 . S
C335 C337 1.446 . S
N336 Co295 2.151 . S
N336 C335 1.330 . S
N336 C340 1.418 . S
C337 H316 0.929 . S
C337 C335 1.446 . S
C337 C338 1.332 . S
C338 H318 0.931 . S
C338 C337 1.332 . S
C338 C339 1.267 . S
C339 H307 0.929 . S
C339 C338 1.267 . S
C339 C340 1.251 . S
C340 H310 0.929 . S
C340 N336 1.418 . S
C340 C339 1.251 . S
C341 H308 0.930 . S
C341 C343 1.406 . S
C341 C346 1.261 . S
C342 H309 0.930 . S
C342 N344 1.325 . S
C342 C345 1.357 . S
C343 H311 0.928 . S
C343 C341 1.406 . S
C343 N344 1.261 . S
N344 Co295 2.214 . S
N344 C342 1.325 . S
N344 C343 1.261 . S
C345 H315 0.931 . S
C345 C342 1.357 . S
C345 C346 1.312 . S
C346 H317 0.930 . S
C346 C341 1.261 . S
C346 C345 1.312 . S
C347 O319 1.214 . S
C347 O327 1.234 . S
C348 H320 0.929 . S
C348 C351 1.391 . S
C348 C353 1.391 . S
C349 H321 0.929 . S
C349 C350 1.390 . S
C349 N352 1.391 . S
C350 H322 0.930 . S
C350 C349 1.390 . S
C350 C351 1.392 . S
C351 H323 0.929 . S
C351 C348 1.391 . S
C351 C350 1.392 . S
N352 Co296 2.257 . S
N352 C349 1.391 . S
N352 C353 1.388 . S
C353 H324 0.930 . S
C353 C348 1.391 . S
C353 N352 1.388 . S
Co354 O356 2.143 . S
Co354 O362 2.074 . S
Co354 O365 2.093 . S
Co354 O378 2.097 . S
Co354 N395 2.151 . S
Co354 N403 2.214 . S
Co355 O356 2.160 . S
Co355 O361 2.058 . S
Co355 O371 2.057 . S
Co355 O386 2.037 . S
Co355 N390 2.145 . S
Co355 N411 2.257 . S
O356 Co354 2.143 . S
O356 Co355 2.160 . S
C357 O358 1.278 . S
C357 O365 1.224 . S
O358 C357 1.278 . S
C359 O360 1.245 . S
C359 O371 1.232 . S
O360 C359 1.245 . S
O361 Co355 2.058 . S
O361 C387 1.269 . S
O362 Co354 2.074 . S
O362 C387 1.257 . S
H363 C388 0.930 . S
H364 C394 0.930 . S
O365 Co354 2.093 . S
O365 C357 1.224 . S
H366 C398 0.929 . S
H367 C400 0.930 . S
H368 C401 0.930 . S
H369 C399 0.929 . S
H370 C402 0.928 . S
O371 Co355 2.057 . S
O371 C359 1.232 . S
H372 C391 0.929 . S
H373 C392 0.929 . S
H374 C404 0.931 . S
H375 C396 0.929 . S
H376 C405 0.930 . S
H377 C397 0.931 . S
O378 Co354 2.097 . S
O378 C406 1.214 . S
H379 C407 0.929 . S
H380 C408 0.929 . S
H381 C409 0.930 . S
H382 C410 0.929 . S
H383 C412 0.930 . S
H384 C389 0.930 . S
H385 C393 0.930 . S
O386 Co355 2.037 . S
O386 C406 1.234 . S
C387 O361 1.269 . S
C387 O362 1.257 . S
C388 H363 0.930 . S
C388 C391 1.388 . S
C388 C393 1.418 . S
C389 H384 0.930 . S
C389 C392 1.404 . S
C389 C393 1.353 . S
N390 Co355 2.145 . S
N390 C391 1.397 . S
N390 C392 1.334 . S
C391 H372 0.929 . S
C391 C388 1.388 . S
C391 N390 1.397 . S
C392 H373 0.929 . S
C392 C389 1.404 . S
C392 N390 1.334 . S
C393 H385 0.930 . S
C393 C388 1.418 . S
C393 C389 1.353 . S
C394 H364 0.930 . S
C394 N395 1.330 . S
C394 C396 1.446 . S
N395 Co354 2.151 . S
N395 C394 1.330 . S
N395 C399 1.418 . S
C396 H375 0.929 . S
C396 C394 1.446 . S
C396 C397 1.332 . S
C397 H377 0.931 . S
C397 C396 1.332 . S
C397 C398 1.267 . S
C398 H366 0.929 . S
C398 C397 1.267 . S
C398 C399 1.251 . S
C399 H369 0.929 . S
C399 N395 1.418 . S
C399 C398 1.251 . S
C400 H367 0.930 . S
C400 C402 1.406 . S
C400 C405 1.261 . S
C401 H368 0.930 . S
C401 N403 1.325 . S
C401 C404 1.357 . S
C402 H370 0.928 . S
C402 C400 1.406 . S
C402 N403 1.261 . S
N403 Co354 2.214 . S
N403 C401 1.325 . S
N403 C402 1.261 . S
C404 H374 0.931 . S
C404 C401 1.357 . S
C404 C405 1.312 . S
C405 H376 0.930 . S
C405 C400 1.261 . S
C405 C404 1.312 . S
C406 O378 1.214 . S
C406 O386 1.234 . S
C407 H379 0.929 . S
C407 C410 1.391 . S
C407 C412 1.391 . S
C408 H380 0.929 . S
C408 C409 1.390 . S
C408 N411 1.391 . S
C409 H381 0.930 . S
C409 C408 1.390 . S
C409 C410 1.392 . S
C410 H382 0.929 . S
C410 C407 1.391 . S
C410 C409 1.392 . S
N411 Co355 2.257 . S
N411 C408 1.391 . S
N411 C412 1.388 . S
C412 H383 0.930 . S
C412 C407 1.391 . S
C412 N411 1.388 . S
Co413 O415 2.143 . S
Co413 O421 2.074 . S
Co413 O424 2.093 . S
Co413 O437 2.097 . S
Co413 N454 2.151 . S
Co413 N462 2.214 . S
Co414 O415 2.160 . S
Co414 O420 2.058 . S
Co414 O430 2.057 . S
Co414 O445 2.037 . S
Co414 N449 2.145 . S
Co414 N470 2.257 . S
O415 Co413 2.143 . S
O415 Co414 2.160 . S
C416 O417 1.278 . S
C416 O424 1.224 . S
O417 C416 1.278 . S
C418 O419 1.245 . S
C418 O430 1.232 . S
O419 C418 1.245 . S
O420 Co414 2.058 . S
O420 C446 1.269 . S
O421 Co413 2.074 . S
O421 C446 1.257 . S
H422 C447 0.930 . S
H423 C453 0.930 . S
O424 Co413 2.093 . S
O424 C416 1.224 . S
H425 C457 0.929 . S
H426 C459 0.930 . S
H427 C460 0.930 . S
H428 C458 0.929 . S
H429 C461 0.928 . S
O430 Co414 2.057 . S
O430 C418 1.232 . S
H431 C450 0.929 . S
H432 C451 0.929 . S
H433 C463 0.931 . S
H434 C455 0.929 . S
H435 C464 0.930 . S
H436 C456 0.931 . S
O437 Co413 2.097 . S
O437 C465 1.214 . S
H438 C466 0.929 . S
H439 C467 0.929 . S
H440 C468 0.930 . S
H441 C469 0.929 . S
H442 C471 0.930 . S
H443 C448 0.930 . S
H444 C452 0.930 . S
O445 Co414 2.037 . S
O445 C465 1.234 . S
C446 O420 1.269 . S
C446 O421 1.257 . S
C447 H422 0.930 . S
C447 C450 1.388 . S
C447 C452 1.418 . S
C448 H443 0.930 . S
C448 C451 1.404 . S
C448 C452 1.353 . S
N449 Co414 2.145 . S
N449 C450 1.397 . S
N449 C451 1.334 . S
C450 H431 0.929 . S
C450 C447 1.388 . S
C450 N449 1.397 . S
C451 H432 0.929 . S
C451 C448 1.404 . S
C451 N449 1.334 . S
C452 H444 0.930 . S
C452 C447 1.418 . S
C452 C448 1.353 . S
C453 H423 0.930 . S
C453 N454 1.330 . S
C453 C455 1.446 . S
N454 Co413 2.151 . S
N454 C453 1.330 . S
N454 C458 1.418 . S
C455 H434 0.929 . S
C455 C453 1.446 . S
C455 C456 1.332 . S
C456 H436 0.931 . S
C456 C455 1.332 . S
C456 C457 1.267 . S
C457 H425 0.929 . S
C457 C456 1.267 . S
C457 C458 1.251 . S
C458 H428 0.929 . S
C458 N454 1.418 . S
C458 C457 1.251 . S
C459 H426 0.930 . S
C459 C461 1.406 . S
C459 C464 1.261 . S
C460 H427 0.930 . S
C460 N462 1.325 . S
C460 C463 1.357 . S
C461 H429 0.928 . S
C461 C459 1.406 . S
C461 N462 1.261 . S
N462 Co413 2.214 . S
N462 C460 1.325 . S
N462 C461 1.261 . S
C463 H433 0.931 . S
C463 C460 1.357 . S
C463 C464 1.312 . S
C464 H435 0.930 . S
C464 C459 1.261 . S
C464 C463 1.312 . S
C465 O437 1.214 . S
C465 O445 1.234 . S
C466 H438 0.929 . S
C466 C469 1.391 . S
C466 C471 1.391 . S
C467 H439 0.929 . S
C467 C468 1.390 . S
C467 N470 1.391 . S
C468 H440 0.930 . S
C468 C467 1.390 . S
C468 C469 1.392 . S
C469 H441 0.929 . S
C469 C466 1.391 . S
C469 C468 1.392 . S
N470 Co414 2.257 . S
N470 C467 1.391 . S
N470 C471 1.388 . S
C471 H442 0.930 . S
C471 C466 1.391 . S
C471 N470 1.388 . S
Co472 O474 2.143 . S
Co472 O480 2.074 . S
Co472 O483 2.093 . S
Co472 O496 2.097 . S
Co472 N513 2.151 . S
Co472 N521 2.214 . S
Co473 O474 2.160 . S
Co473 O479 2.058 . S
Co473 O489 2.057 . S
Co473 O504 2.037 . S
Co473 N508 2.145 . S
Co473 N529 2.257 . S
O474 Co472 2.143 . S
O474 Co473 2.160 . S
C475 O476 1.278 . S
C475 O483 1.224 . S
O476 C475 1.278 . S
C477 O478 1.245 . S
C477 O489 1.232 . S
O478 C477 1.245 . S
O479 Co473 2.058 . S
O479 C505 1.269 . S
O480 Co472 2.074 . S
O480 C505 1.257 . S
H481 C506 0.930 . S
H482 C512 0.930 . S
O483 Co472 2.093 . S
O483 C475 1.224 . S
H484 C516 0.929 . S
H485 C518 0.930 . S
H486 C519 0.930 . S
H487 C517 0.929 . S
H488 C520 0.928 . S
O489 Co473 2.057 . S
O489 C477 1.232 . S
H490 C509 0.929 . S
H491 C510 0.929 . S
H492 C522 0.931 . S
H493 C514 0.929 . S
H494 C523 0.930 . S
H495 C515 0.931 . S
O496 Co472 2.097 . S
O496 C524 1.214 . S
H497 C525 0.929 . S
H498 C526 0.929 . S
H499 C527 0.930 . S
H500 C528 0.929 . S
H501 C530 0.930 . S
H502 C507 0.930 . S
H503 C511 0.930 . S
O504 Co473 2.037 . S
O504 C524 1.234 . S
C505 O479 1.269 . S
C505 O480 1.257 . S
C506 H481 0.930 . S
C506 C509 1.388 . S
C506 C511 1.418 . S
C507 H502 0.930 . S
C507 C510 1.404 . S
C507 C511 1.353 . S
N508 Co473 2.145 . S
N508 C509 1.397 . S
N508 C510 1.334 . S
C509 H490 0.929 . S
C509 C506 1.388 . S
C509 N508 1.397 . S
C510 H491 0.929 . S
C510 C507 1.404 . S
C510 N508 1.334 . S
C511 H503 0.930 . S
C511 C506 1.418 . S
C511 C507 1.353 . S
C512 H482 0.930 . S
C512 N513 1.330 . S
C512 C514 1.446 . S
N513 Co472 2.151 . S
N513 C512 1.330 . S
N513 C517 1.418 . S
C514 H493 0.929 . S
C514 C512 1.446 . S
C514 C515 1.332 . S
C515 H495 0.931 . S
C515 C514 1.332 . S
C515 C516 1.267 . S
C516 H484 0.929 . S
C516 C515 1.267 . S
C516 C517 1.251 . S
C517 H487 0.929 . S
C517 N513 1.418 . S
C517 C516 1.251 . S
C518 H485 0.930 . S
C518 C520 1.406 . S
C518 C523 1.261 . S
C519 H486 0.930 . S
C519 N521 1.325 . S
C519 C522 1.357 . S
C520 H488 0.928 . S
C520 C518 1.406 . S
C520 N521 1.261 . S
N521 Co472 2.214 . S
N521 C519 1.325 . S
N521 C520 1.261 . S
C522 H492 0.931 . S
C522 C519 1.357 . S
C522 C523 1.312 . S
C523 H494 0.930 . S
C523 C518 1.261 . S
C523 C522 1.312 . S
C524 O496 1.214 . S
C524 O504 1.234 . S
C525 H497 0.929 . S
C525 C528 1.391 . S
C525 C530 1.391 . S
C526 H498 0.929 . S
C526 C527 1.390 . S
C526 N529 1.391 . S
C527 H499 0.930 . S
C527 C526 1.390 . S
C527 C528 1.392 . S
C528 H500 0.929 . S
C528 C525 1.391 . S
C528 C527 1.392 . S
N529 Co473 2.257 . S
N529 C526 1.391 . S
N529 C530 1.388 . S
C530 H501 0.930 . S
C530 C525 1.391 . S
C530 N529 1.388 . S
Co531 O533 2.143 . S
Co531 O539 2.074 . S
Co531 O542 2.093 . S
Co531 O555 2.097 . S
Co531 N572 2.151 . S
Co531 N580 2.214 . S
Co532 O533 2.160 . S
Co532 O538 2.058 . S
Co532 O548 2.057 . S
Co532 O563 2.037 . S
Co532 N567 2.145 . S
Co532 N588 2.257 . S
O533 Co531 2.143 . S
O533 Co532 2.160 . S
C534 O535 1.278 . S
C534 O542 1.224 . S
O535 C534 1.278 . S
C536 O537 1.245 . S
C536 O548 1.232 . S
O537 C536 1.245 . S
O538 Co532 2.058 . S
O538 C564 1.269 . S
O539 Co531 2.074 . S
O539 C564 1.257 . S
H540 C565 0.930 . S
H541 C571 0.930 . S
O542 Co531 2.093 . S
O542 C534 1.224 . S
H543 C575 0.929 . S
H544 C577 0.930 . S
H545 C578 0.930 . S
H546 C576 0.929 . S
H547 C579 0.928 . S
O548 Co532 2.057 . S
O548 C536 1.232 . S
H549 C568 0.929 . S
H550 C569 0.929 . S
H551 C581 0.931 . S
H552 C573 0.929 . S
H553 C582 0.930 . S
H554 C574 0.931 . S
O555 Co531 2.097 . S
O555 C583 1.214 . S
H556 C584 0.929 . S
H557 C585 0.929 . S
H558 C586 0.930 . S
H559 C587 0.929 . S
H560 C589 0.930 . S
H561 C566 0.930 . S
H562 C570 0.930 . S
O563 Co532 2.037 . S
O563 C583 1.234 . S
C564 O538 1.269 . S
C564 O539 1.257 . S
C565 H540 0.930 . S
C565 C568 1.388 . S
C565 C570 1.418 . S
C566 H561 0.930 . S
C566 C569 1.404 . S
C566 C570 1.353 . S
N567 Co532 2.145 . S
N567 C568 1.397 . S
N567 C569 1.334 . S
C568 H549 0.929 . S
C568 C565 1.388 . S
C568 N567 1.397 . S
C569 H550 0.929 . S
C569 C566 1.404 . S
C569 N567 1.334 . S
C570 H562 0.930 . S
C570 C565 1.418 . S
C570 C566 1.353 . S
C571 H541 0.930 . S
C571 N572 1.330 . S
C571 C573 1.446 . S
N572 Co531 2.151 . S
N572 C571 1.330 . S
N572 C576 1.418 . S
C573 H552 0.929 . S
C573 C571 1.446 . S
C573 C574 1.332 . S
C574 H554 0.931 . S
C574 C573 1.332 . S
C574 C575 1.267 . S
C575 H543 0.929 . S
C575 C574 1.267 . S
C575 C576 1.251 . S
C576 H546 0.929 . S
C576 N572 1.418 . S
C576 C575 1.251 . S
C577 H544 0.930 . S
C577 C579 1.406 . S
C577 C582 1.261 . S
C578 H545 0.930 . S
C578 N580 1.325 . S
C578 C581 1.357 . S
C579 H547 0.928 . S
C579 C577 1.406 . S
C579 N580 1.261 . S
N580 Co531 2.214 . S
N580 C578 1.325 . S
N580 C579 1.261 . S
C581 H551 0.931 . S
C581 C578 1.357 . S
C581 C582 1.312 . S
C582 H553 0.930 . S
C582 C577 1.261 . S
C582 C581 1.312 . S
C583 O555 1.214 . S
C583 O563 1.234 . S
C584 H556 0.929 . S
C584 C587 1.391 . S
C584 C589 1.391 . S
C585 H557 0.929 . S
C585 C586 1.390 . S
C585 N588 1.391 . S
C586 H558 0.930 . S
C586 C585 1.390 . S
C586 C587 1.392 . S
C587 H559 0.929 . S
C587 C584 1.391 . S
C587 C586 1.392 . S
N588 Co532 2.257 . S
N588 C585 1.391 . S
N588 C589 1.388 . S
C589 H560 0.930 . S
C589 C584 1.391 . S
C589 N588 1.388 . S
Co590 O592 2.143 . S
Co590 O598 2.074 . S
Co590 O601 2.093 . S
Co590 O614 2.097 . S
Co590 N631 2.151 . S
Co590 N639 2.214 . S
Co591 O592 2.160 . S
Co591 O597 2.058 . S
Co591 O607 2.057 . S
Co591 O622 2.037 . S
Co591 N626 2.145 . S
Co591 N647 2.257 . S
O592 Co590 2.143 . S
O592 Co591 2.160 . S
C593 O594 1.278 . S
C593 O601 1.224 . S
O594 C593 1.278 . S
C595 O596 1.245 . S
C595 O607 1.232 . S
O596 C595 1.245 . S
O597 Co591 2.058 . S
O597 C623 1.269 . S
O598 Co590 2.074 . S
O598 C623 1.257 . S
H599 C624 0.930 . S
H600 C630 0.930 . S
O601 Co590 2.093 . S
O601 C593 1.224 . S
H602 C634 0.929 . S
H603 C636 0.930 . S
H604 C637 0.930 . S
H605 C635 0.929 . S
H606 C638 0.928 . S
O607 Co591 2.057 . S
O607 C595 1.232 . S
H608 C627 0.929 . S
H609 C628 0.929 . S
H610 C640 0.931 . S
H611 C632 0.929 . S
H612 C641 0.930 . S
H613 C633 0.931 . S
O614 Co590 2.097 . S
O614 C642 1.214 . S
H615 C643 0.929 . S
H616 C644 0.929 . S
H617 C645 0.930 . S
H618 C646 0.929 . S
H619 C648 0.930 . S
H620 C625 0.930 . S
H621 C629 0.930 . S
O622 Co591 2.037 . S
O622 C642 1.234 . S
C623 O597 1.269 . S
C623 O598 1.257 . S
C624 H599 0.930 . S
C624 C627 1.388 . S
C624 C629 1.418 . S
C625 H620 0.930 . S
C625 C628 1.404 . S
C625 C629 1.353 . S
N626 Co591 2.145 . S
N626 C627 1.397 . S
N626 C628 1.334 . S
C627 H608 0.929 . S
C627 C624 1.388 . S
C627 N626 1.397 . S
C628 H609 0.929 . S
C628 C625 1.404 . S
C628 N626 1.334 . S
C629 H621 0.930 . S
C629 C624 1.418 . S
C629 C625 1.353 . S
C630 H600 0.930 . S
C630 N631 1.330 . S
C630 C632 1.446 . S
N631 Co590 2.151 . S
N631 C630 1.330 . S
N631 C635 1.418 . S
C632 H611 0.929 . S
C632 C630 1.446 . S
C632 C633 1.332 . S
C633 H613 0.931 . S
C633 C632 1.332 . S
C633 C634 1.267 . S
C634 H602 0.929 . S
C634 C633 1.267 . S
C634 C635 1.251 . S
C635 H605 0.929 . S
C635 N631 1.418 . S
C635 C634 1.251 . S
C636 H603 0.930 . S
C636 C638 1.406 . S
C636 C641 1.261 . S
C637 H604 0.930 . S
C637 N639 1.325 . S
C637 C640 1.357 . S
C638 H606 0.928 . S
C638 C636 1.406 . S
C638 N639 1.261 . S
N639 Co590 2.214 . S
N639 C637 1.325 . S
N639 C638 1.261 . S
C640 H610 0.931 . S
C640 C637 1.357 . S
C640 C641 1.312 . S
C641 H612 0.930 . S
C641 C636 1.261 . S
C641 C640 1.312 . S
C642 O614 1.214 . S
C642 O622 1.234 . S
C643 H615 0.929 . S
C643 C646 1.391 . S
C643 C648 1.391 . S
C644 H616 0.929 . S
C644 C645 1.390 . S
C644 N647 1.391 . S
C645 H617 0.930 . S
C645 C644 1.390 . S
C645 C646 1.392 . S
C646 H618 0.929 . S
C646 C643 1.391 . S
C646 C645 1.392 . S
N647 Co591 2.257 . S
N647 C644 1.391 . S
N647 C648 1.388 . S
C648 H619 0.930 . S
C648 C643 1.391 . S
C648 N647 1.388 . S
Co649 O651 2.143 . S
Co649 O657 2.074 . S
Co649 O660 2.093 . S
Co649 O673 2.097 . S
Co649 N690 2.151 . S
Co649 N698 2.214 . S
Co650 O651 2.160 . S
Co650 O656 2.058 . S
Co650 O666 2.057 . S
Co650 O681 2.037 . S
Co650 N685 2.145 . S
Co650 N706 2.257 . S
O651 Co649 2.143 . S
O651 Co650 2.160 . S
C652 O653 1.278 . S
C652 O660 1.224 . S
O653 C652 1.278 . S
C654 O655 1.245 . S
C654 O666 1.232 . S
O655 C654 1.245 . S
O656 Co650 2.058 . S
O656 C682 1.269 . S
O657 Co649 2.074 . S
O657 C682 1.257 . S
H658 C683 0.930 . S
H659 C689 0.930 . S
O660 Co649 2.093 . S
O660 C652 1.224 . S
H661 C693 0.929 . S
H662 C695 0.930 . S
H663 C696 0.930 . S
H664 C694 0.929 . S
H665 C697 0.928 . S
O666 Co650 2.057 . S
O666 C654 1.232 . S
H667 C686 0.929 . S
H668 C687 0.929 . S
H669 C699 0.931 . S
H670 C691 0.929 . S
H671 C700 0.930 . S
H672 C692 0.931 . S
O673 Co649 2.097 . S
O673 C701 1.214 . S
H674 C702 0.929 . S
H675 C703 0.929 . S
H676 C704 0.930 . S
H677 C705 0.929 . S
H678 C707 0.930 . S
H679 C684 0.930 . S
H680 C688 0.930 . S
O681 Co650 2.037 . S
O681 C701 1.234 . S
C682 O656 1.269 . S
C682 O657 1.257 . S
C683 H658 0.930 . S
C683 C686 1.388 . S
C683 C688 1.418 . S
C684 H679 0.930 . S
C684 C687 1.404 . S
C684 C688 1.353 . S
N685 Co650 2.145 . S
N685 C686 1.397 . S
N685 C687 1.334 . S
C686 H667 0.929 . S
C686 C683 1.388 . S
C686 N685 1.397 . S
C687 H668 0.929 . S
C687 C684 1.404 . S
C687 N685 1.334 . S
C688 H680 0.930 . S
C688 C683 1.418 . S
C688 C684 1.353 . S
C689 H659 0.930 . S
C689 N690 1.330 . S
C689 C691 1.446 . S
N690 Co649 2.151 . S
N690 C689 1.330 . S
N690 C694 1.418 . S
C691 H670 0.929 . S
C691 C689 1.446 . S
C691 C692 1.332 . S
C692 H672 0.931 . S
C692 C691 1.332 . S
C692 C693 1.267 . S
C693 H661 0.929 . S
C693 C692 1.267 . S
C693 C694 1.251 . S
C694 H664 0.929 . S
C694 N690 1.418 . S
C694 C693 1.251 . S
C695 H662 0.930 . S
C695 C697 1.406 . S
C695 C700 1.261 . S
C696 H663 0.930 . S
C696 N698 1.325 . S
C696 C699 1.357 . S
C697 H665 0.928 . S
C697 C695 1.406 . S
C697 N698 1.261 . S
N698 Co649 2.214 . S
N698 C696 1.325 . S
N698 C697 1.261 . S
C699 H669 0.931 . S
C699 C696 1.357 . S
C699 C700 1.312 . S
C700 H671 0.930 . S
C700 C695 1.261 . S
C700 C699 1.312 . S
C701 O673 1.214 . S
C701 O681 1.234 . S
C702 H674 0.929 . S
C702 C705 1.391 . S
C702 C707 1.391 . S
C703 H675 0.929 . S
C703 C704 1.390 . S
C703 N706 1.391 . S
C704 H676 0.930 . S
C704 C703 1.390 . S
C704 C705 1.392 . S
C705 H677 0.929 . S
C705 C702 1.391 . S
C705 C704 1.392 . S
N706 Co650 2.257 . S
N706 C703 1.391 . S
N706 C707 1.388 . S
C707 H678 0.930 . S
C707 C702 1.391 . S
C707 N706 1.388 . S
Co708 O710 2.143 . S
Co708 O716 2.074 . S
Co708 O719 2.093 . S
Co708 O732 2.097 . S
Co708 N749 2.151 . S
Co708 N757 2.214 . S
Co709 O710 2.160 . S
Co709 O715 2.058 . S
Co709 O725 2.057 . S
Co709 O740 2.037 . S
Co709 N744 2.145 . S
Co709 N765 2.257 . S
O710 Co708 2.143 . S
O710 Co709 2.160 . S
C711 O712 1.278 . S
C711 O719 1.224 . S
O712 C711 1.278 . S
C713 O714 1.245 . S
C713 O725 1.232 . S
O714 C713 1.245 . S
O715 Co709 2.058 . S
O715 C741 1.269 . S
O716 Co708 2.074 . S
O716 C741 1.257 . S
H717 C742 0.930 . S
H718 C748 0.930 . S
O719 Co708 2.093 . S
O719 C711 1.224 . S
H720 C752 0.929 . S
H721 C754 0.930 . S
H722 C755 0.930 . S
H723 C753 0.929 . S
H724 C756 0.928 . S
O725 Co709 2.057 . S
O725 C713 1.232 . S
H726 C745 0.929 . S
H727 C746 0.929 . S
H728 C758 0.931 . S
H729 C750 0.929 . S
H730 C759 0.930 . S
H731 C751 0.931 . S
O732 Co708 2.097 . S
O732 C760 1.214 . S
H733 C761 0.929 . S
H734 C762 0.929 . S
H735 C763 0.930 . S
H736 C764 0.929 . S
H737 C766 0.930 . S
H738 C743 0.930 . S
H739 C747 0.930 . S
O740 Co709 2.037 . S
O740 C760 1.234 . S
C741 O715 1.269 . S
C741 O716 1.257 . S
C742 H717 0.930 . S
C742 C745 1.388 . S
C742 C747 1.418 . S
C743 H738 0.930 . S
C743 C746 1.404 . S
C743 C747 1.353 . S
N744 Co709 2.145 . S
N744 C745 1.397 . S
N744 C746 1.334 . S
C745 H726 0.929 . S
C745 C742 1.388 . S
C745 N744 1.397 . S
C746 H727 0.929 . S
C746 C743 1.404 . S
C746 N744 1.334 . S
C747 H739 0.930 . S
C747 C742 1.418 . S
C747 C743 1.353 . S
C748 H718 0.930 . S
C748 N749 1.330 . S
C748 C750 1.446 . S
N749 Co708 2.151 . S
N749 C748 1.330 . S
N749 C753 1.418 . S
C750 H729 0.929 . S
C750 C748 1.446 . S
C750 C751 1.332 . S
C751 H731 0.931 . S
C751 C750 1.332 . S
C751 C752 1.267 . S
C752 H720 0.929 . S
C752 C751 1.267 . S
C752 C753 1.251 . S
C753 H723 0.929 . S
C753 N749 1.418 . S
C753 C752 1.251 . S
C754 H721 0.930 . S
C754 C756 1.406 . S
C754 C759 1.261 . S
C755 H722 0.930 . S
C755 N757 1.325 . S
C755 C758 1.357 . S
C756 H724 0.928 . S
C756 C754 1.406 . S
C756 N757 1.261 . S
N757 Co708 2.214 . S
N757 C755 1.325 . S
N757 C756 1.261 . S
C758 H728 0.931 . S
C758 C755 1.357 . S
C758 C759 1.312 . S
C759 H730 0.930 . S
C759 C754 1.261 . S
C759 C758 1.312 . S
C760 O732 1.214 . S
C760 O740 1.234 . S
C761 H733 0.929 . S
C761 C764 1.391 . S
C761 C766 1.391 . S
C762 H734 0.929 . S
C762 C763 1.390 . S
C762 N765 1.391 . S
C763 H735 0.930 . S
C763 C762 1.390 . S
C763 C764 1.392 . S
C764 H736 0.929 . S
C764 C761 1.391 . S
C764 C763 1.392 . S
N765 Co709 2.257 . S
N765 C762 1.391 . S
N765 C766 1.388 . S
C766 H737 0.930 . S
C766 C761 1.391 . S
C766 N765 1.388 . S
Co767 O769 2.143 . S
Co767 O775 2.074 . S
Co767 O778 2.093 . S
Co767 O791 2.097 . S
Co767 N808 2.151 . S
Co767 N816 2.214 . S
Co768 O769 2.160 . S
Co768 O774 2.058 . S
Co768 O784 2.057 . S
Co768 O799 2.037 . S
Co768 N803 2.145 . S
Co768 N824 2.257 . S
O769 Co767 2.143 . S
O769 Co768 2.160 . S
C770 O771 1.278 . S
C770 O778 1.224 . S
O771 C770 1.278 . S
C772 O773 1.245 . S
C772 O784 1.232 . S
O773 C772 1.245 . S
O774 Co768 2.058 . S
O774 C800 1.269 . S
O775 Co767 2.074 . S
O775 C800 1.257 . S
H776 C801 0.930 . S
H777 C807 0.930 . S
O778 Co767 2.093 . S
O778 C770 1.224 . S
H779 C811 0.929 . S
H780 C813 0.930 . S
H781 C814 0.930 . S
H782 C812 0.929 . S
H783 C815 0.928 . S
O784 Co768 2.057 . S
O784 C772 1.232 . S
H785 C804 0.929 . S
H786 C805 0.929 . S
H787 C817 0.931 . S
H788 C809 0.929 . S
H789 C818 0.930 . S
H790 C810 0.931 . S
O791 Co767 2.097 . S
O791 C819 1.214 . S
H792 C820 0.929 . S
H793 C821 0.929 . S
H794 C822 0.930 . S
H795 C823 0.929 . S
H796 C825 0.930 . S
H797 C802 0.930 . S
H798 C806 0.930 . S
O799 Co768 2.037 . S
O799 C819 1.234 . S
C800 O774 1.269 . S
C800 O775 1.257 . S
C801 H776 0.930 . S
C801 C804 1.388 . S
C801 C806 1.418 . S
C802 H797 0.930 . S
C802 C805 1.404 . S
C802 C806 1.353 . S
N803 Co768 2.145 . S
N803 C804 1.397 . S
N803 C805 1.334 . S
C804 H785 0.929 . S
C804 C801 1.388 . S
C804 N803 1.397 . S
C805 H786 0.929 . S
C805 C802 1.404 . S
C805 N803 1.334 . S
C806 H798 0.930 . S
C806 C801 1.418 . S
C806 C802 1.353 . S
C807 H777 0.930 . S
C807 N808 1.330 . S
C807 C809 1.446 . S
N808 Co767 2.151 . S
N808 C807 1.330 . S
N808 C812 1.418 . S
C809 H788 0.929 . S
C809 C807 1.446 . S
C809 C810 1.332 . S
C810 H790 0.931 . S
C810 C809 1.332 . S
C810 C811 1.267 . S
C811 H779 0.929 . S
C811 C810 1.267 . S
C811 C812 1.251 . S
C812 H782 0.929 . S
C812 N808 1.418 . S
C812 C811 1.251 . S
C813 H780 0.930 . S
C813 C815 1.406 . S
C813 C818 1.261 . S
C814 H781 0.930 . S
C814 N816 1.325 . S
C814 C817 1.357 . S
C815 H783 0.928 . S
C815 C813 1.406 . S
C815 N816 1.261 . S
N816 Co767 2.214 . S
N816 C814 1.325 . S
N816 C815 1.261 . S
C817 H787 0.931 . S
C817 C814 1.357 . S
C817 C818 1.312 . S
C818 H789 0.930 . S
C818 C813 1.261 . S
C818 C817 1.312 . S
C819 O791 1.214 . S
C819 O799 1.234 . S
C820 H792 0.929 . S
C820 C823 1.391 . S
C820 C825 1.391 . S
C821 H793 0.929 . S
C821 C822 1.390 . S
C821 N824 1.391 . S
C822 H794 0.930 . S
C822 C821 1.390 . S
C822 C823 1.392 . S
C823 H795 0.929 . S
C823 C820 1.391 . S
C823 C822 1.392 . S
N824 Co768 2.257 . S
N824 C821 1.391 . S
N824 C825 1.388 . S
C825 H796 0.930 . S
C825 C820 1.391 . S
C825 N824 1.388 . S
Co826 O828 2.143 . S
Co826 O834 2.074 . S
Co826 O837 2.093 . S
Co826 O850 2.097 . S
Co826 N867 2.151 . S
Co826 N875 2.214 . S
Co827 O828 2.160 . S
Co827 O833 2.058 . S
Co827 O843 2.057 . S
Co827 O858 2.037 . S
Co827 N862 2.145 . S
Co827 N883 2.257 . S
O828 Co826 2.143 . S
O828 Co827 2.160 . S
C829 O830 1.278 . S
C829 O837 1.224 . S
O830 C829 1.278 . S
C831 O832 1.245 . S
C831 O843 1.232 . S
O832 C831 1.245 . S
O833 Co827 2.058 . S
O833 C859 1.269 . S
O834 Co826 2.074 . S
O834 C859 1.257 . S
H835 C860 0.930 . S
H836 C866 0.930 . S
O837 Co826 2.093 . S
O837 C829 1.224 . S
H838 C870 0.929 . S
H839 C872 0.930 . S
H840 C873 0.930 . S
H841 C871 0.929 . S
H842 C874 0.928 . S
O843 Co827 2.057 . S
O843 C831 1.232 . S
H844 C863 0.929 . S
H845 C864 0.929 . S
H846 C876 0.931 . S
H847 C868 0.929 . S
H848 C877 0.930 . S
H849 C869 0.931 . S
O850 Co826 2.097 . S
O850 C878 1.214 . S
H851 C879 0.929 . S
H852 C880 0.929 . S
H853 C881 0.930 . S
H854 C882 0.929 . S
H855 C884 0.930 . S
H856 C861 0.930 . S
H857 C865 0.930 . S
O858 Co827 2.037 . S
O858 C878 1.234 . S
C859 O833 1.269 . S
C859 O834 1.257 . S
C860 H835 0.930 . S
C860 C863 1.388 . S
C860 C865 1.418 . S
C861 H856 0.930 . S
C861 C864 1.404 . S
C861 C865 1.353 . S
N862 Co827 2.145 . S
N862 C863 1.397 . S
N862 C864 1.334 . S
C863 H844 0.929 . S
C863 C860 1.388 . S
C863 N862 1.397 . S
C864 H845 0.929 . S
C864 C861 1.404 . S
C864 N862 1.334 . S
C865 H857 0.930 . S
C865 C860 1.418 . S
C865 C861 1.353 . S
C866 H836 0.930 . S
C866 N867 1.330 . S
C866 C868 1.446 . S
N867 Co826 2.151 . S
N867 C866 1.330 . S
N867 C871 1.418 . S
C868 H847 0.929 . S
C868 C866 1.446 . S
C868 C869 1.332 . S
C869 H849 0.931 . S
C869 C868 1.332 . S
C869 C870 1.267 . S
C870 H838 0.929 . S
C870 C869 1.267 . S
C870 C871 1.251 . S
C871 H841 0.929 . S
C871 N867 1.418 . S
C871 C870 1.251 . S
C872 H839 0.930 . S
C872 C874 1.406 . S
C872 C877 1.261 . S
C873 H840 0.930 . S
C873 N875 1.325 . S
C873 C876 1.357 . S
C874 H842 0.928 . S
C874 C872 1.406 . S
C874 N875 1.261 . S
N875 Co826 2.214 . S
N875 C873 1.325 . S
N875 C874 1.261 . S
C876 H846 0.931 . S
C876 C873 1.357 . S
C876 C877 1.312 . S
C877 H848 0.930 . S
C877 C872 1.261 . S
C877 C876 1.312 . S
C878 O850 1.214 . S
C878 O858 1.234 . S
C879 H851 0.929 . S
C879 C882 1.391 . S
C879 C884 1.391 . S
C880 H852 0.929 . S
C880 C881 1.390 . S
C880 N883 1.391 . S
C881 H853 0.930 . S
C881 C880 1.390 . S
C881 C882 1.392 . S
C882 H854 0.929 . S
C882 C879 1.391 . S
C882 C881 1.392 . S
N883 Co827 2.257 . S
N883 C880 1.391 . S
N883 C884 1.388 . S
C884 H855 0.930 . S
C884 C879 1.391 . S
C884 N883 1.388 . S
Co885 O887 2.143 . S
Co885 O893 2.074 . S
Co885 O896 2.093 . S
Co885 O909 2.097 . S
Co885 N926 2.151 . S
Co885 N934 2.214 . S
Co886 O887 2.160 . S
Co886 O892 2.058 . S
Co886 O902 2.057 . S
Co886 O917 2.037 . S
Co886 N921 2.145 . S
Co886 N942 2.257 . S
O887 Co885 2.143 . S
O887 Co886 2.160 . S
C888 O889 1.278 . S
C888 O896 1.224 . S
O889 C888 1.278 . S
C890 O891 1.245 . S
C890 O902 1.232 . S
O891 C890 1.245 . S
O892 Co886 2.058 . S
O892 C918 1.269 . S
O893 Co885 2.074 . S
O893 C918 1.257 . S
H894 C919 0.930 . S
H895 C925 0.930 . S
O896 Co885 2.093 . S
O896 C888 1.224 . S
H897 C929 0.929 . S
H898 C931 0.930 . S
H899 C932 0.930 . S
H900 C930 0.929 . S
H901 C933 0.928 . S
O902 Co886 2.057 . S
O902 C890 1.232 . S
H903 C922 0.929 . S
H904 C923 0.929 . S
H905 C935 0.931 . S
H906 C927 0.929 . S
H907 C936 0.930 . S
H908 C928 0.931 . S
O909 Co885 2.097 . S
O909 C937 1.214 . S
H910 C938 0.929 . S
H911 C939 0.929 . S
H912 C940 0.930 . S
H913 C941 0.929 . S
H914 C943 0.930 . S
H915 C920 0.930 . S
H916 C924 0.930 . S
O917 Co886 2.037 . S
O917 C937 1.234 . S
C918 O892 1.269 . S
C918 O893 1.257 . S
C919 H894 0.930 . S
C919 C922 1.388 . S
C919 C924 1.418 . S
C920 H915 0.930 . S
C920 C923 1.404 . S
C920 C924 1.353 . S
N921 Co886 2.145 . S
N921 C922 1.397 . S
N921 C923 1.334 . S
C922 H903 0.929 . S
C922 C919 1.388 . S
C922 N921 1.397 . S
C923 H904 0.929 . S
C923 C920 1.404 . S
C923 N921 1.334 . S
C924 H916 0.930 . S
C924 C919 1.418 . S
C924 C920 1.353 . S
C925 H895 0.930 . S
C925 N926 1.330 . S
C925 C927 1.446 . S
N926 Co885 2.151 . S
N926 C925 1.330 . S
N926 C930 1.418 . S
C927 H906 0.929 . S
C927 C925 1.446 . S
C927 C928 1.332 . S
C928 H908 0.931 . S
C928 C927 1.332 . S
C928 C929 1.267 . S
C929 H897 0.929 . S
C929 C928 1.267 . S
C929 C930 1.251 . S
C930 H900 0.929 . S
C930 N926 1.418 . S
C930 C929 1.251 . S
C931 H898 0.930 . S
C931 C933 1.406 . S
C931 C936 1.261 . S
C932 H899 0.930 . S
C932 N934 1.325 . S
C932 C935 1.357 . S
C933 H901 0.928 . S
C933 C931 1.406 . S
C933 N934 1.261 . S
N934 Co885 2.214 . S
N934 C932 1.325 . S
N934 C933 1.261 . S
C935 H905 0.931 . S
C935 C932 1.357 . S
C935 C936 1.312 . S
C936 H907 0.930 . S
C936 C931 1.261 . S
C936 C935 1.312 . S
C937 O909 1.214 . S
C937 O917 1.234 . S
C938 H910 0.929 . S
C938 C941 1.391 . S
C938 C943 1.391 . S
C939 H911 0.929 . S
C939 C940 1.390 . S
C939 N942 1.391 . S
C940 H912 0.930 . S
C940 C939 1.390 . S
C940 C941 1.392 . S
C941 H913 0.929 . S
C941 C938 1.391 . S
C941 C940 1.392 . S
N942 Co886 2.257 . S
N942 C939 1.391 . S
N942 C943 1.388 . S
C943 H914 0.930 . S
C943 C938 1.391 . S
C943 N942 1.388 . S
Co944 O946 2.143 . S
Co944 O952 2.074 . S
Co944 O955 2.093 . S
Co944 O968 2.097 . S
Co944 N985 2.151 . S
Co944 N993 2.214 . S
Co945 O946 2.160 . S
Co945 O951 2.058 . S
Co945 O961 2.057 . S
Co945 O976 2.037 . S
Co945 N980 2.145 . S
Co945 N1001 2.257 . S
O946 Co944 2.143 . S
O946 Co945 2.160 . S
C947 O948 1.278 . S
C947 O955 1.224 . S
O948 C947 1.278 . S
C949 O950 1.245 . S
C949 O961 1.232 . S
O950 C949 1.245 . S
O951 Co945 2.058 . S
O951 C977 1.269 . S
O952 Co944 2.074 . S
O952 C977 1.257 . S
H953 C978 0.930 . S
H954 C984 0.930 . S
O955 Co944 2.093 . S
O955 C947 1.224 . S
H956 C988 0.929 . S
H957 C990 0.930 . S
H958 C991 0.930 . S
H959 C989 0.929 . S
H960 C992 0.928 . S
O961 Co945 2.057 . S
O961 C949 1.232 . S
H962 C981 0.929 . S
H963 C982 0.929 . S
H964 C994 0.931 . S
H965 C986 0.929 . S
H966 C995 0.930 . S
H967 C987 0.931 . S
O968 Co944 2.097 . S
O968 C996 1.214 . S
H969 C997 0.929 . S
H970 C998 0.929 . S
H971 C999 0.930 . S
H972 C1000 0.929 . S
H973 C1002 0.930 . S
H974 C979 0.930 . S
H975 C983 0.930 . S
O976 Co945 2.037 . S
O976 C996 1.234 . S
C977 O951 1.269 . S
C977 O952 1.257 . S
C978 H953 0.930 . S
C978 C981 1.388 . S
C978 C983 1.418 . S
C979 H974 0.930 . S
C979 C982 1.404 . S
C979 C983 1.353 . S
N980 Co945 2.145 . S
N980 C981 1.397 . S
N980 C982 1.334 . S
C981 H962 0.929 . S
C981 C978 1.388 . S
C981 N980 1.397 . S
C982 H963 0.929 . S
C982 C979 1.404 . S
C982 N980 1.334 . S
C983 H975 0.930 . S
C983 C978 1.418 . S
C983 C979 1.353 . S
C984 H954 0.930 . S
C984 N985 1.330 . S
C984 C986 1.446 . S
N985 Co944 2.151 . S
N985 C984 1.330 . S
N985 C989 1.418 . S
C986 H965 0.929 . S
C986 C984 1.446 . S
C986 C987 1.332 . S
C987 H967 0.931 . S
C987 C986 1.332 . S
C987 C988 1.267 . S
C988 H956 0.929 . S
C988 C987 1.267 . S
C988 C989 1.251 . S
C989 H959 0.929 . S
C989 N985 1.418 . S
C989 C988 1.251 . S
C990 H957 0.930 . S
C990 C992 1.406 . S
C990 C995 1.261 . S
C991 H958 0.930 . S
C991 N993 1.325 . S
C991 C994 1.357 . S
C992 H960 0.928 . S
C992 C990 1.406 . S
C992 N993 1.261 . S
N993 Co944 2.214 . S
N993 C991 1.325 . S
N993 C992 1.261 . S
C994 H964 0.931 . S
C994 C991 1.357 . S
C994 C995 1.312 . S
C995 H966 0.930 . S
C995 C990 1.261 . S
C995 C994 1.312 . S
C996 O968 1.214 . S
C996 O976 1.234 . S
C997 H969 0.929 . S
C997 C1000 1.391 . S
C997 C1002 1.391 . S
C998 H970 0.929 . S
C998 C999 1.390 . S
C998 N1001 1.391 . S
C999 H971 0.930 . S
C999 C998 1.390 . S
C999 C1000 1.392 . S
C1000 H972 0.929 . S
C1000 C997 1.391 . S
C1000 C999 1.392 . S
N1001 Co945 2.257 . S
N1001 C998 1.391 . S
N1001 C1002 1.388 . S
C1002 H973 0.930 . S
C1002 C997 1.391 . S
C1002 N1001 1.388 . S
Co1003 O1005 2.143 . S
Co1003 O1011 2.074 . S
Co1003 O1014 2.093 . S
Co1003 O1027 2.097 . S
Co1003 N1044 2.151 . S
Co1003 N1052 2.214 . S
Co1004 O1005 2.160 . S
Co1004 O1010 2.058 . S
Co1004 O1020 2.057 . S
Co1004 O1035 2.037 . S
Co1004 N1039 2.145 . S
Co1004 N1060 2.257 . S
O1005 Co1003 2.143 . S
O1005 Co1004 2.160 . S
C1006 O1007 1.278 . S
C1006 O1014 1.224 . S
O1007 C1006 1.278 . S
C1008 O1009 1.245 . S
C1008 O1020 1.232 . S
O1009 C1008 1.245 . S
O1010 Co1004 2.058 . S
O1010 C1036 1.269 . S
O1011 Co1003 2.074 . S
O1011 C1036 1.257 . S
H1012 C1037 0.930 . S
H1013 C1043 0.930 . S
O1014 Co1003 2.093 . S
O1014 C1006 1.224 . S
H1015 C1047 0.929 . S
H1016 C1049 0.930 . S
H1017 C1050 0.930 . S
H1018 C1048 0.929 . S
H1019 C1051 0.928 . S
O1020 Co1004 2.057 . S
O1020 C1008 1.232 . S
H1021 C1040 0.929 . S
H1022 C1041 0.929 . S
H1023 C1053 0.931 . S
H1024 C1045 0.929 . S
H1025 C1054 0.930 . S
H1026 C1046 0.931 . S
O1027 Co1003 2.097 . S
O1027 C1055 1.214 . S
H1028 C1056 0.929 . S
H1029 C1057 0.929 . S
H1030 C1058 0.930 . S
H1031 C1059 0.929 . S
H1032 C1061 0.930 . S
H1033 C1038 0.930 . S
H1034 C1042 0.930 . S
O1035 Co1004 2.037 . S
O1035 C1055 1.234 . S
C1036 O1010 1.269 . S
C1036 O1011 1.257 . S
C1037 H1012 0.930 . S
C1037 C1040 1.388 . S
C1037 C1042 1.418 . S
C1038 H1033 0.930 . S
C1038 C1041 1.404 . S
C1038 C1042 1.353 . S
N1039 Co1004 2.145 . S
N1039 C1040 1.397 . S
N1039 C1041 1.334 . S
C1040 H1021 0.929 . S
C1040 C1037 1.388 . S
C1040 N1039 1.397 . S
C1041 H1022 0.929 . S
C1041 C1038 1.404 . S
C1041 N1039 1.334 . S
C1042 H1034 0.930 . S
C1042 C1037 1.418 . S
C1042 C1038 1.353 . S
C1043 H1013 0.930 . S
C1043 N1044 1.330 . S
C1043 C1045 1.446 . S
N1044 Co1003 2.151 . S
N1044 C1043 1.330 . S
N1044 C1048 1.418 . S
C1045 H1024 0.929 . S
C1045 C1043 1.446 . S
C1045 C1046 1.332 . S
C1046 H1026 0.931 . S
C1046 C1045 1.332 . S
C1046 C1047 1.267 . S
C1047 H1015 0.929 . S
C1047 C1046 1.267 . S
C1047 C1048 1.251 . S
C1048 H1018 0.929 . S
C1048 N1044 1.418 . S
C1048 C1047 1.251 . S
C1049 H1016 0.930 . S
C1049 C1051 1.406 . S
C1049 C1054 1.261 . S
C1050 H1017 0.930 . S
C1050 N1052 1.325 . S
C1050 C1053 1.357 . S
C1051 H1019 0.928 . S
C1051 C1049 1.406 . S
C1051 N1052 1.261 . S
N1052 Co1003 2.214 . S
N1052 C1050 1.325 . S
N1052 C1051 1.261 . S
C1053 H1023 0.931 . S
C1053 C1050 1.357 . S
C1053 C1054 1.312 . S
C1054 H1025 0.930 . S
C1054 C1049 1.261 . S
C1054 C1053 1.312 . S
C1055 O1027 1.214 . S
C1055 O1035 1.234 . S
C1056 H1028 0.929 . S
C1056 C1059 1.391 . S
C1056 C1061 1.391 . S
C1057 H1029 0.929 . S
C1057 C1058 1.390 . S
C1057 N1060 1.391 . S
C1058 H1030 0.930 . S
C1058 C1057 1.390 . S
C1058 C1059 1.392 . S
C1059 H1031 0.929 . S
C1059 C1056 1.391 . S
C1059 C1058 1.392 . S
N1060 Co1004 2.257 . S
N1060 C1057 1.391 . S
N1060 C1061 1.388 . S
C1061 H1032 0.930 . S
C1061 C1056 1.391 . S
C1061 N1060 1.388 . S
Co1062 O1064 2.143 . S
Co1062 O1070 2.074 . S
Co1062 O1073 2.093 . S
Co1062 O1086 2.097 . S
Co1062 N1103 2.151 . S
Co1062 N1111 2.214 . S
Co1063 O1064 2.160 . S
Co1063 O1069 2.058 . S
Co1063 O1079 2.057 . S
Co1063 O1094 2.037 . S
Co1063 N1098 2.145 . S
Co1063 N1119 2.257 . S
O1064 Co1062 2.143 . S
O1064 Co1063 2.160 . S
C1065 O1066 1.278 . S
C1065 O1073 1.224 . S
O1066 C1065 1.278 . S
C1067 O1068 1.245 . S
C1067 O1079 1.232 . S
O1068 C1067 1.245 . S
O1069 Co1063 2.058 . S
O1069 C1095 1.269 . S
O1070 Co1062 2.074 . S
O1070 C1095 1.257 . S
H1071 C1096 0.930 . S
H1072 C1102 0.930 . S
O1073 Co1062 2.093 . S
O1073 C1065 1.224 . S
H1074 C1106 0.929 . S
H1075 C1108 0.930 . S
H1076 C1109 0.930 . S
H1077 C1107 0.929 . S
H1078 C1110 0.928 . S
O1079 Co1063 2.057 . S
O1079 C1067 1.232 . S
H1080 C1099 0.929 . S
H1081 C1100 0.929 . S
H1082 C1112 0.931 . S
H1083 C1104 0.929 . S
H1084 C1113 0.930 . S
H1085 C1105 0.931 . S
O1086 Co1062 2.097 . S
O1086 C1114 1.214 . S
H1087 C1115 0.929 . S
H1088 C1116 0.929 . S
H1089 C1117 0.930 . S
H1090 C1118 0.929 . S
H1091 C1120 0.930 . S
H1092 C1097 0.930 . S
H1093 C1101 0.930 . S
O1094 Co1063 2.037 . S
O1094 C1114 1.234 . S
C1095 O1069 1.269 . S
C1095 O1070 1.257 . S
C1096 H1071 0.930 . S
C1096 C1099 1.388 . S
C1096 C1101 1.418 . S
C1097 H1092 0.930 . S
C1097 C1100 1.404 . S
C1097 C1101 1.353 . S
N1098 Co1063 2.145 . S
N1098 C1099 1.397 . S
N1098 C1100 1.334 . S
C1099 H1080 0.929 . S
C1099 C1096 1.388 . S
C1099 N1098 1.397 . S
C1100 H1081 0.929 . S
C1100 C1097 1.404 . S
C1100 N1098 1.334 . S
C1101 H1093 0.930 . S
C1101 C1096 1.418 . S
C1101 C1097 1.353 . S
C1102 H1072 0.930 . S
C1102 N1103 1.330 . S
C1102 C1104 1.446 . S
N1103 Co1062 2.151 . S
N1103 C1102 1.330 . S
N1103 C1107 1.418 . S
C1104 H1083 0.929 . S
C1104 C1102 1.446 . S
C1104 C1105 1.332 . S
C1105 H1085 0.931 . S
C1105 C1104 1.332 . S
C1105 C1106 1.267 . S
C1106 H1074 0.929 . S
C1106 C1105 1.267 . S
C1106 C1107 1.251 . S
C1107 H1077 0.929 . S
C1107 N1103 1.418 . S
C1107 C1106 1.251 . S
C1108 H1075 0.930 . S
C1108 C1110 1.406 . S
C1108 C1113 1.261 . S
C1109 H1076 0.930 . S
C1109 N1111 1.325 . S
C1109 C1112 1.357 . S
C1110 H1078 0.928 . S
C1110 C1108 1.406 . S
C1110 N1111 1.261 . S
N1111 Co1062 2.214 . S
N1111 C1109 1.325 . S
N1111 C1110 1.261 . S
C1112 H1082 0.931 . S
C1112 C1109 1.357 . S
C1112 C1113 1.312 . S
C1113 H1084 0.930 . S
C1113 C1108 1.261 . S
C1113 C1112 1.312 . S
C1114 O1086 1.214 . S
C1114 O1094 1.234 . S
C1115 H1087 0.929 . S
C1115 C1118 1.391 . S
C1115 C1120 1.391 . S
C1116 H1088 0.929 . S
C1116 C1117 1.390 . S
C1116 N1119 1.391 . S
C1117 H1089 0.930 . S
C1117 C1116 1.390 . S
C1117 C1118 1.392 . S
C1118 H1090 0.929 . S
C1118 C1115 1.391 . S
C1118 C1117 1.392 . S
N1119 Co1063 2.257 . S
N1119 C1116 1.391 . S
N1119 C1120 1.388 . S
C1120 H1091 0.930 . S
C1120 C1115 1.391 . S
C1120 N1119 1.388 . S
Co1121 O1123 2.143 . S
Co1121 O1129 2.074 . S
Co1121 O1132 2.093 . S
Co1121 O1145 2.097 . S
Co1121 N1162 2.151 . S
Co1121 N1170 2.214 . S
Co1122 O1123 2.160 . S
Co1122 O1128 2.058 . S
Co1122 O1138 2.057 . S
Co1122 O1153 2.037 . S
Co1122 N1157 2.145 . S
Co1122 N1178 2.257 . S
O1123 Co1121 2.143 . S
O1123 Co1122 2.160 . S
C1124 O1125 1.278 . S
C1124 O1132 1.224 . S
O1125 C1124 1.278 . S
C1126 O1127 1.245 . S
C1126 O1138 1.232 . S
O1127 C1126 1.245 . S
O1128 Co1122 2.058 . S
O1128 C1154 1.269 . S
O1129 Co1121 2.074 . S
O1129 C1154 1.257 . S
H1130 C1155 0.930 . S
H1131 C1161 0.930 . S
O1132 Co1121 2.093 . S
O1132 C1124 1.224 . S
H1133 C1165 0.929 . S
H1134 C1167 0.930 . S
H1135 C1168 0.930 . S
H1136 C1166 0.929 . S
H1137 C1169 0.928 . S
O1138 Co1122 2.057 . S
O1138 C1126 1.232 . S
H1139 C1158 0.929 . S
H1140 C1159 0.929 . S
H1141 C1171 0.931 . S
H1142 C1163 0.929 . S
H1143 C1172 0.930 . S
H1144 C1164 0.931 . S
O1145 Co1121 2.097 . S
O1145 C1173 1.214 . S
H1146 C1174 0.929 . S
H1147 C1175 0.929 . S
H1148 C1176 0.930 . S
H1149 C1177 0.929 . S
H1150 C1179 0.930 . S
H1151 C1156 0.930 . S
H1152 C1160 0.930 . S
O1153 Co1122 2.037 . S
O1153 C1173 1.234 . S
C1154 O1128 1.269 . S
C1154 O1129 1.257 . S
C1155 H1130 0.930 . S
C1155 C1158 1.388 . S
C1155 C1160 1.418 . S
C1156 H1151 0.930 . S
C1156 C1159 1.404 . S
C1156 C1160 1.353 . S
N1157 Co1122 2.145 . S
N1157 C1158 1.397 . S
N1157 C1159 1.334 . S
C1158 H1139 0.929 . S
C1158 C1155 1.388 . S
C1158 N1157 1.397 . S
C1159 H1140 0.929 . S
C1159 C1156 1.404 . S
C1159 N1157 1.334 . S
C1160 H1152 0.930 . S
C1160 C1155 1.418 . S
C1160 C1156 1.353 . S
C1161 H1131 0.930 . S
C1161 N1162 1.330 . S
C1161 C1163 1.446 . S
N1162 Co1121 2.151 . S
N1162 C1161 1.330 . S
N1162 C1166 1.418 . S
C1163 H1142 0.929 . S
C1163 C1161 1.446 . S
C1163 C1164 1.332 . S
C1164 H1144 0.931 . S
C1164 C1163 1.332 . S
C1164 C1165 1.267 . S
C1165 H1133 0.929 . S
C1165 C1164 1.267 . S
C1165 C1166 1.251 . S
C1166 H1136 0.929 . S
C1166 N1162 1.418 . S
C1166 C1165 1.251 . S
C1167 H1134 0.930 . S
C1167 C1169 1.406 . S
C1167 C1172 1.261 . S
C1168 H1135 0.930 . S
C1168 N1170 1.325 . S
C1168 C1171 1.357 . S
C1169 H1137 0.928 . S
C1169 C1167 1.406 . S
C1169 N1170 1.261 . S
N1170 Co1121 2.214 . S
N1170 C1168 1.325 . S
N1170 C1169 1.261 . S
C1171 H1141 0.931 . S
C1171 C1168 1.357 . S
C1171 C1172 1.312 . S
C1172 H1143 0.930 . S
C1172 C1167 1.261 . S
C1172 C1171 1.312 . S
C1173 O1145 1.214 . S
C1173 O1153 1.234 . S
C1174 H1146 0.929 . S
C1174 C1177 1.391 . S
C1174 C1179 1.391 . S
C1175 H1147 0.929 . S
C1175 C1176 1.390 . S
C1175 N1178 1.391 . S
C1176 H1148 0.930 . S
C1176 C1175 1.390 . S
C1176 C1177 1.392 . S
C1177 H1149 0.929 . S
C1177 C1174 1.391 . S
C1177 C1176 1.392 . S
N1178 Co1122 2.257 . S
N1178 C1175 1.391 . S
N1178 C1179 1.388 . S
C1179 H1150 0.930 . S
C1179 C1174 1.391 . S
C1179 N1178 1.388 . S
Co1180 O1182 2.143 . S
Co1180 O1188 2.074 . S
Co1180 O1191 2.093 . S
Co1180 O1204 2.097 . S
Co1180 N1221 2.151 . S
Co1180 N1229 2.214 . S
Co1181 O1182 2.160 . S
Co1181 O1187 2.058 . S
Co1181 O1197 2.057 . S
Co1181 O1212 2.037 . S
Co1181 N1216 2.145 . S
Co1181 N1237 2.257 . S
O1182 Co1180 2.143 . S
O1182 Co1181 2.160 . S
C1183 O1184 1.278 . S
C1183 O1191 1.224 . S
O1184 C1183 1.278 . S
C1185 O1186 1.245 . S
C1185 O1197 1.232 . S
O1186 C1185 1.245 . S
O1187 Co1181 2.058 . S
O1187 C1213 1.269 . S
O1188 Co1180 2.074 . S
O1188 C1213 1.257 . S
H1189 C1214 0.930 . S
H1190 C1220 0.930 . S
O1191 Co1180 2.093 . S
O1191 C1183 1.224 . S
H1192 C1224 0.929 . S
H1193 C1226 0.930 . S
H1194 C1227 0.930 . S
H1195 C1225 0.929 . S
H1196 C1228 0.928 . S
O1197 Co1181 2.057 . S
O1197 C1185 1.232 . S
H1198 C1217 0.929 . S
H1199 C1218 0.929 . S
H1200 C1230 0.931 . S
H1201 C1222 0.929 . S
H1202 C1231 0.930 . S
H1203 C1223 0.931 . S
O1204 Co1180 2.097 . S
O1204 C1232 1.214 . S
H1205 C1233 0.929 . S
H1206 C1234 0.929 . S
H1207 C1235 0.930 . S
H1208 C1236 0.929 . S
H1209 C1238 0.930 . S
H1210 C1215 0.930 . S
H1211 C1219 0.930 . S
O1212 Co1181 2.037 . S
O1212 C1232 1.234 . S
C1213 O1187 1.269 . S
C1213 O1188 1.257 . S
C1214 H1189 0.930 . S
C1214 C1217 1.388 . S
C1214 C1219 1.418 . S
C1215 H1210 0.930 . S
C1215 C1218 1.404 . S
C1215 C1219 1.353 . S
N1216 Co1181 2.145 . S
N1216 C1217 1.397 . S
N1216 C1218 1.334 . S
C1217 H1198 0.929 . S
C1217 C1214 1.388 . S
C1217 N1216 1.397 . S
C1218 H1199 0.929 . S
C1218 C1215 1.404 . S
C1218 N1216 1.334 . S
C1219 H1211 0.930 . S
C1219 C1214 1.418 . S
C1219 C1215 1.353 . S
C1220 H1190 0.930 . S
C1220 N1221 1.330 . S
C1220 C1222 1.446 . S
N1221 Co1180 2.151 . S
N1221 C1220 1.330 . S
N1221 C1225 1.418 . S
C1222 H1201 0.929 . S
C1222 C1220 1.446 . S
C1222 C1223 1.332 . S
C1223 H1203 0.931 . S
C1223 C1222 1.332 . S
C1223 C1224 1.267 . S
C1224 H1192 0.929 . S
C1224 C1223 1.267 . S
C1224 C1225 1.251 . S
C1225 H1195 0.929 . S
C1225 N1221 1.418 . S
C1225 C1224 1.251 . S
C1226 H1193 0.930 . S
C1226 C1228 1.406 . S
C1226 C1231 1.261 . S
C1227 H1194 0.930 . S
C1227 N1229 1.325 . S
C1227 C1230 1.357 . S
C1228 H1196 0.928 . S
C1228 C1226 1.406 . S
C1228 N1229 1.261 . S
N1229 Co1180 2.214 . S
N1229 C1227 1.325 . S
N1229 C1228 1.261 . S
C1230 H1200 0.931 . S
C1230 C1227 1.357 . S
C1230 C1231 1.312 . S
C1231 H1202 0.930 . S
C1231 C1226 1.261 . S
C1231 C1230 1.312 . S
C1232 O1204 1.214 . S
C1232 O1212 1.234 . S
C1233 H1205 0.929 . S
C1233 C1236 1.391 . S
C1233 C1238 1.391 . S
C1234 H1206 0.929 . S
C1234 C1235 1.390 . S
C1234 N1237 1.391 . S
C1235 H1207 0.930 . S
C1235 C1234 1.390 . S
C1235 C1236 1.392 . S
C1236 H1208 0.929 . S
C1236 C1233 1.391 . S
C1236 C1235 1.392 . S
N1237 Co1181 2.257 . S
N1237 C1234 1.391 . S
N1237 C1238 1.388 . S
C1238 H1209 0.930 . S
C1238 C1233 1.391 . S
C1238 N1237 1.388 . S
Co1239 O1241 2.143 . S
Co1239 O1247 2.074 . S
Co1239 O1250 2.093 . S
Co1239 O1263 2.097 . S
Co1239 N1280 2.151 . S
Co1239 N1288 2.214 . S
Co1240 O1241 2.160 . S
Co1240 O1246 2.069 . S
Co1240 O1256 2.057 . S
Co1240 O1271 2.037 . S
Co1240 N1275 2.145 . S
Co1240 N1296 2.257 . S
O1241 Co1239 2.143 . S
O1241 Co1240 2.160 . S
C1242 O1243 1.278 . S
C1242 O1250 1.224 . S
O1243 C1242 1.278 . S
C1244 O1245 1.245 . S
C1244 O1256 1.232 . S
O1245 C1244 1.245 . S
O1246 Co1240 2.069 . S
O1246 C1272 1.267 1_554 S
O1247 Co1239 2.074 . S
O1247 C1272 1.257 1_554 S
H1248 C1273 0.930 . S
H1249 C1279 0.930 . S
O1250 Co1239 2.093 . S
O1250 C1242 1.224 . S
H1251 C1283 0.929 . S
H1252 C1285 0.930 . S
H1253 C1286 0.930 . S
H1254 C1284 0.929 . S
H1255 C1287 0.928 . S
O1256 Co1240 2.057 . S
O1256 C1244 1.232 . S
H1257 C1276 0.929 . S
H1258 C1277 0.929 . S
H1259 C1289 0.931 . S
H1260 C1281 0.929 . S
H1261 C1290 0.930 . S
H1262 C1282 0.931 . S
O1263 Co1239 2.097 . S
O1263 C1291 1.214 . S
H1264 C1292 0.929 . S
H1265 C1293 0.929 . S
H1266 C1294 0.930 . S
H1267 C1295 0.929 . S
H1268 C1297 0.930 . S
H1269 C1274 0.930 . S
H1270 C1278 0.930 . S
O1271 Co1240 2.037 . S
O1271 C1291 1.234 . S
C1272 O1246 1.267 1_556 S
C1272 O1247 1.257 1_556 S
C1273 H1248 0.930 . S
C1273 C1276 1.388 . S
C1273 C1278 1.418 . S
C1274 H1269 0.930 . S
C1274 C1277 1.404 1_556 S
C1274 C1278 1.353 . S
N1275 Co1240 2.145 . S
N1275 C1276 1.397 1_554 S
N1275 C1277 1.334 . S
C1276 H1257 0.929 . S
C1276 C1273 1.388 . S
C1276 N1275 1.397 1_556 S
C1277 H1258 0.929 . S
C1277 C1274 1.404 1_554 S
C1277 N1275 1.334 . S
C1278 H1270 0.930 . S
C1278 C1273 1.418 . S
C1278 C1274 1.353 . S
C1279 H1249 0.930 . S
C1279 N1280 1.330 . S
C1279 C1281 1.446 . S
N1280 Co1239 2.151 . S
N1280 C1279 1.330 . S
N1280 C1284 1.418 . S
C1281 H1260 0.929 . S
C1281 C1279 1.446 . S
C1281 C1282 1.332 . S
C1282 H1262 0.931 . S
C1282 C1281 1.332 . S
C1282 C1283 1.267 . S
C1283 H1251 0.929 . S
C1283 C1282 1.267 . S
C1283 C1284 1.251 . S
C1284 H1254 0.929 . S
C1284 N1280 1.418 . S
C1284 C1283 1.251 . S
C1285 H1252 0.930 . S
C1285 C1287 1.406 . S
C1285 C1290 1.261 . S
C1286 H1253 0.930 . S
C1286 N1288 1.325 . S
C1286 C1289 1.357 . S
C1287 H1255 0.928 . S
C1287 C1285 1.406 . S
C1287 N1288 1.261 . S
N1288 Co1239 2.214 . S
N1288 C1286 1.325 . S
N1288 C1287 1.261 . S
C1289 H1259 0.931 . S
C1289 C1286 1.357 . S
C1289 C1290 1.312 . S
C1290 H1261 0.930 . S
C1290 C1285 1.261 . S
C1290 C1289 1.312 . S
C1291 O1263 1.214 . S
C1291 O1271 1.234 . S
C1292 H1264 0.929 . S
C1292 C1295 1.391 . S
C1292 C1297 1.391 . S
C1293 H1265 0.929 . S
C1293 C1294 1.390 . S
C1293 N1296 1.391 . S
C1294 H1266 0.930 . S
C1294 C1293 1.390 . S
C1294 C1295 1.392 . S
C1295 H1267 0.929 . S
C1295 C1292 1.391 . S
C1295 C1294 1.392 . S
N1296 Co1240 2.257 . S
N1296 C1293 1.391 . S
N1296 C1297 1.388 . S
C1297 H1268 0.930 . S
C1297 C1292 1.391 . S
C1297 N1296 1.388 . S
Co1298 O1300 2.143 . S
Co1298 O1306 2.074 . S
Co1298 O1309 2.093 . S
Co1298 O1322 2.097 . S
Co1298 N1339 2.151 . S
Co1298 N1347 2.214 . S
Co1299 O1300 2.160 . S
Co1299 O1305 2.070 . S
Co1299 O1315 2.057 . S
Co1299 O1330 2.037 . S
Co1299 N1334 2.145 . S
Co1299 N1355 2.257 . S
O1300 Co1298 2.143 . S
O1300 Co1299 2.160 . S
C1301 O1302 1.278 . S
C1301 O1309 1.224 . S
O1302 C1301 1.278 . S
C1303 O1304 1.245 . S
C1303 O1315 1.232 . S
O1304 C1303 1.245 . S
O1305 Co1299 2.070 . S
O1305 C1331 1.267 1_554 S
O1306 Co1298 2.074 . S
O1306 C1331 1.257 1_554 S
H1307 C1332 0.930 . S
H1308 C1338 0.930 . S
O1309 Co1298 2.093 . S
O1309 C1301 1.224 . S
H1310 C1342 0.929 . S
H1311 C1344 0.930 . S
H1312 C1345 0.930 . S
H1313 C1343 0.929 . S
H1314 C1346 0.928 . S
O1315 Co1299 2.057 . S
O1315 C1303 1.232 . S
H1316 C1335 0.929 . S
H1317 C1336 0.929 . S
H1318 C1348 0.931 . S
H1319 C1340 0.929 . S
H1320 C1349 0.930 . S
H1321 C1341 0.931 . S
O1322 Co1298 2.097 . S
O1322 C1350 1.214 . S
H1323 C1351 0.929 . S
H1324 C1352 0.929 . S
H1325 C1353 0.930 . S
H1326 C1354 0.929 . S
H1327 C1356 0.930 . S
H1328 C1333 0.930 . S
H1329 C1337 0.930 . S
O1330 Co1299 2.037 . S
O1330 C1350 1.234 . S
C1331 O1305 1.267 1_556 S
C1331 O1306 1.257 1_556 S
C1332 H1307 0.930 . S
C1332 C1335 1.388 . S
C1332 C1337 1.418 . S
C1333 H1328 0.930 . S
C1333 C1336 1.404 1_556 S
C1333 C1337 1.353 . S
N1334 Co1299 2.145 . S
N1334 C1335 1.397 1_554 S
N1334 C1336 1.334 . S
C1335 H1316 0.929 . S
C1335 C1332 1.388 . S
C1335 N1334 1.397 1_556 S
C1336 H1317 0.929 . S
C1336 C1333 1.404 1_554 S
C1336 N1334 1.334 . S
C1337 H1329 0.930 . S
C1337 C1332 1.418 . S
C1337 C1333 1.353 . S
C1338 H1308 0.930 . S
C1338 N1339 1.330 . S
C1338 C1340 1.446 . S
N1339 Co1298 2.151 . S
N1339 C1338 1.330 . S
N1339 C1343 1.418 . S
C1340 H1319 0.929 . S
C1340 C1338 1.446 . S
C1340 C1341 1.332 . S
C1341 H1321 0.931 . S
C1341 C1340 1.332 . S
C1341 C1342 1.267 . S
C1342 H1310 0.929 . S
C1342 C1341 1.267 . S
C1342 C1343 1.251 . S
C1343 H1313 0.929 . S
C1343 N1339 1.418 . S
C1343 C1342 1.251 . S
C1344 H1311 0.930 . S
C1344 C1346 1.406 . S
C1344 C1349 1.261 . S
C1345 H1312 0.930 . S
C1345 N1347 1.325 . S
C1345 C1348 1.357 . S
C1346 H1314 0.928 . S
C1346 C1344 1.406 . S
C1346 N1347 1.261 . S
N1347 Co1298 2.214 . S
N1347 C1345 1.325 . S
N1347 C1346 1.261 . S
C1348 H1318 0.931 . S
C1348 C1345 1.357 . S
C1348 C1349 1.312 . S
C1349 H1320 0.930 . S
C1349 C1344 1.261 . S
C1349 C1348 1.312 . S
C1350 O1322 1.214 . S
C1350 O1330 1.234 . S
C1351 H1323 0.929 . S
C1351 C1354 1.391 . S
C1351 C1356 1.391 . S
C1352 H1324 0.929 . S
C1352 C1353 1.390 . S
C1352 N1355 1.391 . S
C1353 H1325 0.930 . S
C1353 C1352 1.390 . S
C1353 C1354 1.392 . S
C1354 H1326 0.929 . S
C1354 C1351 1.391 . S
C1354 C1353 1.392 . S
N1355 Co1299 2.257 . S
N1355 C1352 1.391 . S
N1355 C1356 1.388 . S
C1356 H1327 0.930 . S
C1356 C1351 1.391 . S
C1356 N1355 1.388 . S
Co1357 O1359 2.143 . S
Co1357 O1365 2.074 . S
Co1357 O1368 2.093 . S
Co1357 O1381 2.097 . S
Co1357 N1398 2.151 . S
Co1357 N1406 2.214 . S
Co1358 O1359 2.160 . S
Co1358 O1364 2.070 . S
Co1358 O1374 2.057 . S
Co1358 O1389 2.037 . S
Co1358 N1393 2.145 . S
Co1358 N1414 2.257 . S
O1359 Co1357 2.143 . S
O1359 Co1358 2.160 . S
C1360 O1361 1.278 . S
C1360 O1368 1.224 . S
O1361 C1360 1.278 . S
C1362 O1363 1.245 . S
C1362 O1374 1.232 . S
O1363 C1362 1.245 . S
O1364 Co1358 2.070 . S
O1364 C1390 1.267 1_554 S
O1365 Co1357 2.074 . S
O1365 C1390 1.257 1_554 S
H1366 C1391 0.930 . S
H1367 C1397 0.930 . S
O1368 Co1357 2.093 . S
O1368 C1360 1.224 . S
H1369 C1401 0.929 . S
H1370 C1403 0.930 . S
H1371 C1404 0.930 . S
H1372 C1402 0.929 . S
H1373 C1405 0.928 . S
O1374 Co1358 2.057 . S
O1374 C1362 1.232 . S
H1375 C1394 0.929 . S
H1376 C1395 0.929 . S
H1377 C1407 0.931 . S
H1378 C1399 0.929 . S
H1379 C1408 0.930 . S
H1380 C1400 0.931 . S
O1381 Co1357 2.097 . S
O1381 C1409 1.214 . S
H1382 C1410 0.929 . S
H1383 C1411 0.929 . S
H1384 C1412 0.930 . S
H1385 C1413 0.929 . S
H1386 C1415 0.930 . S
H1387 C1392 0.930 . S
H1388 C1396 0.930 . S
O1389 Co1358 2.037 . S
O1389 C1409 1.234 . S
C1390 O1364 1.267 1_556 S
C1390 O1365 1.257 1_556 S
C1391 H1366 0.930 . S
C1391 C1394 1.388 . S
C1391 C1396 1.418 . S
C1392 H1387 0.930 . S
C1392 C1395 1.404 1_556 S
C1392 C1396 1.353 . S
N1393 Co1358 2.145 . S
N1393 C1394 1.397 1_554 S
N1393 C1395 1.334 . S
C1394 H1375 0.929 . S
C1394 C1391 1.388 . S
C1394 N1393 1.397 1_556 S
C1395 H1376 0.929 . S
C1395 C1392 1.404 1_554 S
C1395 N1393 1.334 . S
C1396 H1388 0.930 . S
C1396 C1391 1.418 . S
C1396 C1392 1.353 . S
C1397 H1367 0.930 . S
C1397 N1398 1.330 . S
C1397 C1399 1.446 . S
N1398 Co1357 2.151 . S
N1398 C1397 1.330 . S
N1398 C1402 1.418 . S
C1399 H1378 0.929 . S
C1399 C1397 1.446 . S
C1399 C1400 1.332 . S
C1400 H1380 0.931 . S
C1400 C1399 1.332 . S
C1400 C1401 1.267 . S
C1401 H1369 0.929 . S
C1401 C1400 1.267 . S
C1401 C1402 1.251 . S
C1402 H1372 0.929 . S
C1402 N1398 1.418 . S
C1402 C1401 1.251 . S
C1403 H1370 0.930 . S
C1403 C1405 1.406 . S
C1403 C1408 1.261 . S
C1404 H1371 0.930 . S
C1404 N1406 1.325 . S
C1404 C1407 1.357 . S
C1405 H1373 0.928 . S
C1405 C1403 1.406 . S
C1405 N1406 1.261 . S
N1406 Co1357 2.214 . S
N1406 C1404 1.325 . S
N1406 C1405 1.261 . S
C1407 H1377 0.931 . S
C1407 C1404 1.357 . S
C1407 C1408 1.312 . S
C1408 H1379 0.930 . S
C1408 C1403 1.261 . S
C1408 C1407 1.312 . S
C1409 O1381 1.214 . S
C1409 O1389 1.234 . S
C1410 H1382 0.929 . S
C1410 C1413 1.391 . S
C1410 C1415 1.391 . S
C1411 H1383 0.929 . S
C1411 C1412 1.390 . S
C1411 N1414 1.391 . S
C1412 H1384 0.930 . S
C1412 C1411 1.390 . S
C1412 C1413 1.392 . S
C1413 H1385 0.929 . S
C1413 C1410 1.391 . S
C1413 C1412 1.392 . S
N1414 Co1358 2.257 . S
N1414 C1411 1.391 . S
N1414 C1415 1.388 . S
C1415 H1386 0.930 . S
C1415 C1410 1.391 . S
C1415 N1414 1.388 . S
Co1416 O1418 2.143 . S
Co1416 O1424 2.074 . S
Co1416 O1427 2.093 . S
Co1416 O1440 2.097 . S
Co1416 N1457 2.151 . S
Co1416 N1465 2.214 . S
Co1417 O1418 2.160 . S
Co1417 O1423 2.058 . S
Co1417 O1433 2.057 . S
Co1417 O1448 2.037 . S
Co1417 N1452 2.145 . S
Co1417 N1473 2.257 . S
O1418 Co1416 2.143 . S
O1418 Co1417 2.160 . S
C1419 O1420 1.278 . S
C1419 O1427 1.224 . S
O1420 C1419 1.278 . S
C1421 O1422 1.245 . S
C1421 O1433 1.232 . S
O1422 C1421 1.245 . S
O1423 Co1417 2.058 . S
O1423 C1449 1.269 . S
O1424 Co1416 2.074 . S
O1424 C1449 1.257 . S
H1425 C1450 0.930 . S
H1426 C1456 0.930 . S
O1427 Co1416 2.093 . S
O1427 C1419 1.224 . S
H1428 C1460 0.929 . S
H1429 C1462 0.930 . S
H1430 C1463 0.930 . S
H1431 C1461 0.929 . S
H1432 C1464 0.928 . S
O1433 Co1417 2.057 . S
O1433 C1421 1.232 . S
H1434 C1453 0.929 . S
H1435 C1454 0.929 . S
H1436 C1466 0.931 . S
H1437 C1458 0.929 . S
H1438 C1467 0.930 . S
H1439 C1459 0.931 . S
O1440 Co1416 2.097 . S
O1440 C1468 1.214 . S
H1441 C1469 0.929 . S
H1442 C1470 0.929 . S
H1443 C1471 0.930 . S
H1444 C1472 0.929 . S
H1445 C1474 0.930 . S
H1446 C1451 0.930 . S
H1447 C1455 0.930 . S
O1448 Co1417 2.037 . S
O1448 C1468 1.234 . S
C1449 O1423 1.269 . S
C1449 O1424 1.257 . S
C1450 H1425 0.930 . S
C1450 C1453 1.388 . S
C1450 C1455 1.418 . S
C1451 H1446 0.930 . S
C1451 C1454 1.404 . S
C1451 C1455 1.353 . S
N1452 Co1417 2.145 . S
N1452 C1453 1.397 . S
N1452 C1454 1.334 . S
C1453 H1434 0.929 . S
C1453 C1450 1.388 . S
C1453 N1452 1.397 . S
C1454 H1435 0.929 . S
C1454 C1451 1.404 . S
C1454 N1452 1.334 . S
C1455 H1447 0.930 . S
C1455 C1450 1.418 . S
C1455 C1451 1.353 . S
C1456 H1426 0.930 . S
C1456 N1457 1.330 . S
C1456 C1458 1.446 . S
N1457 Co1416 2.151 . S
N1457 C1456 1.330 . S
N1457 C1461 1.418 . S
C1458 H1437 0.929 . S
C1458 C1456 1.446 . S
C1458 C1459 1.332 . S
C1459 H1439 0.931 . S
C1459 C1458 1.332 . S
C1459 C1460 1.267 . S
C1460 H1428 0.929 . S
C1460 C1459 1.267 . S
C1460 C1461 1.251 . S
C1461 H1431 0.929 . S
C1461 N1457 1.418 . S
C1461 C1460 1.251 . S
C1462 H1429 0.930 . S
C1462 C1464 1.406 . S
C1462 C1467 1.261 . S
C1463 H1430 0.930 . S
C1463 N1465 1.325 . S
C1463 C1466 1.357 . S
C1464 H1432 0.928 . S
C1464 C1462 1.406 . S
C1464 N1465 1.261 . S
N1465 Co1416 2.214 . S
N1465 C1463 1.325 . S
N1465 C1464 1.261 . S
C1466 H1436 0.931 . S
C1466 C1463 1.357 . S
C1466 C1467 1.312 . S
C1467 H1438 0.930 . S
C1467 C1462 1.261 . S
C1467 C1466 1.312 . S
C1468 O1440 1.214 . S
C1468 O1448 1.234 . S
C1469 H1441 0.929 . S
C1469 C1472 1.391 . S
C1469 C1474 1.391 . S
C1470 H1442 0.929 . S
C1470 C1471 1.390 . S
C1470 N1473 1.391 . S
C1471 H1443 0.930 . S
C1471 C1470 1.390 . S
C1471 C1472 1.392 . S
C1472 H1444 0.929 . S
C1472 C1469 1.391 . S
C1472 C1471 1.392 . S
N1473 Co1417 2.257 . S
N1473 C1470 1.391 . S
N1473 C1474 1.388 . S
C1474 H1445 0.930 . S
C1474 C1469 1.391 . S
C1474 N1473 1.388 . S
Co1475 O1477 2.143 . S
Co1475 O1483 2.074 . S
Co1475 O1486 2.093 . S
Co1475 O1499 2.097 . S
Co1475 N1516 2.151 . S
Co1475 N1524 2.214 . S
Co1476 O1477 2.160 . S
Co1476 O1482 2.058 . S
Co1476 O1492 2.057 . S
Co1476 O1507 2.037 . S
Co1476 N1511 2.145 . S
Co1476 N1532 2.257 . S
O1477 Co1475 2.143 . S
O1477 Co1476 2.160 . S
C1478 O1479 1.278 . S
C1478 O1486 1.224 . S
O1479 C1478 1.278 . S
C1480 O1481 1.245 . S
C1480 O1492 1.232 . S
O1481 C1480 1.245 . S
O1482 Co1476 2.058 . S
O1482 C1508 1.269 . S
O1483 Co1475 2.074 . S
O1483 C1508 1.257 . S
H1484 C1509 0.930 . S
H1485 C1515 0.930 . S
O1486 Co1475 2.093 . S
O1486 C1478 1.224 . S
H1487 C1519 0.929 . S
H1488 C1521 0.930 . S
H1489 C1522 0.930 . S
H1490 C1520 0.929 . S
H1491 C1523 0.928 . S
O1492 Co1476 2.057 . S
O1492 C1480 1.232 . S
H1493 C1512 0.929 . S
H1494 C1513 0.929 . S
H1495 C1525 0.931 . S
H1496 C1517 0.929 . S
H1497 C1526 0.930 . S
H1498 C1518 0.931 . S
O1499 Co1475 2.097 . S
O1499 C1527 1.214 . S
H1500 C1528 0.929 . S
H1501 C1529 0.929 . S
H1502 C1530 0.930 . S
H1503 C1531 0.929 . S
H1504 C1533 0.930 . S
H1505 C1510 0.930 . S
H1506 C1514 0.930 . S
O1507 Co1476 2.037 . S
O1507 C1527 1.234 . S
C1508 O1482 1.269 . S
C1508 O1483 1.257 . S
C1509 H1484 0.930 . S
C1509 C1512 1.388 . S
C1509 C1514 1.418 . S
C1510 H1505 0.930 . S
C1510 C1513 1.404 . S
C1510 C1514 1.353 . S
N1511 Co1476 2.145 . S
N1511 C1512 1.397 . S
N1511 C1513 1.334 . S
C1512 H1493 0.929 . S
C1512 C1509 1.388 . S
C1512 N1511 1.397 . S
C1513 H1494 0.929 . S
C1513 C1510 1.404 . S
C1513 N1511 1.334 . S
C1514 H1506 0.930 . S
C1514 C1509 1.418 . S
C1514 C1510 1.353 . S
C1515 H1485 0.930 . S
C1515 N1516 1.330 . S
C1515 C1517 1.446 . S
N1516 Co1475 2.151 . S
N1516 C1515 1.330 . S
N1516 C1520 1.418 . S
C1517 H1496 0.929 . S
C1517 C1515 1.446 . S
C1517 C1518 1.332 . S
C1518 H1498 0.931 . S
C1518 C1517 1.332 . S
C1518 C1519 1.267 . S
C1519 H1487 0.929 . S
C1519 C1518 1.267 . S
C1519 C1520 1.251 . S
C1520 H1490 0.929 . S
C1520 N1516 1.418 . S
C1520 C1519 1.251 . S
C1521 H1488 0.930 . S
C1521 C1523 1.406 . S
C1521 C1526 1.261 . S
C1522 H1489 0.930 . S
C1522 N1524 1.325 . S
C1522 C1525 1.357 . S
C1523 H1491 0.928 . S
C1523 C1521 1.406 . S
C1523 N1524 1.261 . S
N1524 Co1475 2.214 . S
N1524 C1522 1.325 . S
N1524 C1523 1.261 . S
C1525 H1495 0.931 . S
C1525 C1522 1.357 . S
C1525 C1526 1.312 . S
C1526 H1497 0.930 . S
C1526 C1521 1.261 . S
C1526 C1525 1.312 . S
C1527 O1499 1.214 . S
C1527 O1507 1.234 . S
C1528 H1500 0.929 . S
C1528 C1531 1.391 . S
C1528 C1533 1.391 . S
C1529 H1501 0.929 . S
C1529 C1530 1.390 . S
C1529 N1532 1.391 . S
C1530 H1502 0.930 . S
C1530 C1529 1.390 . S
C1530 C1531 1.392 . S
C1531 H1503 0.929 . S
C1531 C1528 1.391 . S
C1531 C1530 1.392 . S
N1532 Co1476 2.257 . S
N1532 C1529 1.391 . S
N1532 C1533 1.388 . S
C1533 H1504 0.930 . S
C1533 C1528 1.391 . S
C1533 N1532 1.388 . S
Co1534 O1536 2.143 . S
Co1534 O1542 2.074 . S
Co1534 O1545 2.093 . S
Co1534 O1558 2.097 . S
Co1534 N1575 2.151 . S
Co1534 N1583 2.214 . S
Co1535 O1536 2.160 . S
Co1535 O1541 2.058 . S
Co1535 O1551 2.057 . S
Co1535 O1566 2.037 . S
Co1535 N1570 2.145 . S
Co1535 N1591 2.257 . S
O1536 Co1534 2.143 . S
O1536 Co1535 2.160 . S
C1537 O1538 1.278 . S
C1537 O1545 1.224 . S
O1538 C1537 1.278 . S
C1539 O1540 1.245 . S
C1539 O1551 1.232 . S
O1540 C1539 1.245 . S
O1541 Co1535 2.058 . S
O1541 C1567 1.269 . S
O1542 Co1534 2.074 . S
O1542 C1567 1.257 . S
H1543 C1568 0.930 . S
H1544 C1574 0.930 . S
O1545 Co1534 2.093 . S
O1545 C1537 1.224 . S
H1546 C1578 0.929 . S
H1547 C1580 0.930 . S
H1548 C1581 0.930 . S
H1549 C1579 0.929 . S
H1550 C1582 0.928 . S
O1551 Co1535 2.057 . S
O1551 C1539 1.232 . S
H1552 C1571 0.929 . S
H1553 C1572 0.929 . S
H1554 C1584 0.931 . S
H1555 C1576 0.929 . S
H1556 C1585 0.930 . S
H1557 C1577 0.931 . S
O1558 Co1534 2.097 . S
O1558 C1586 1.214 . S
H1559 C1587 0.929 . S
H1560 C1588 0.929 . S
H1561 C1589 0.930 . S
H1562 C1590 0.929 . S
H1563 C1592 0.930 . S
H1564 C1569 0.930 . S
H1565 C1573 0.930 . S
O1566 Co1535 2.037 . S
O1566 C1586 1.234 . S
C1567 O1541 1.269 . S
C1567 O1542 1.257 . S
C1568 H1543 0.930 . S
C1568 C1571 1.388 . S
C1568 C1573 1.418 . S
C1569 H1564 0.930 . S
C1569 C1572 1.404 . S
C1569 C1573 1.353 . S
N1570 Co1535 2.145 . S
N1570 C1571 1.397 . S
N1570 C1572 1.334 . S
C1571 H1552 0.929 . S
C1571 C1568 1.388 . S
C1571 N1570 1.397 . S
C1572 H1553 0.929 . S
C1572 C1569 1.404 . S
C1572 N1570 1.334 . S
C1573 H1565 0.930 . S
C1573 C1568 1.418 . S
C1573 C1569 1.353 . S
C1574 H1544 0.930 . S
C1574 N1575 1.330 . S
C1574 C1576 1.446 . S
N1575 Co1534 2.151 . S
N1575 C1574 1.330 . S
N1575 C1579 1.418 . S
C1576 H1555 0.929 . S
C1576 C1574 1.446 . S
C1576 C1577 1.332 . S
C1577 H1557 0.931 . S
C1577 C1576 1.332 . S
C1577 C1578 1.267 . S
C1578 H1546 0.929 . S
C1578 C1577 1.267 . S
C1578 C1579 1.251 . S
C1579 H1549 0.929 . S
C1579 N1575 1.418 . S
C1579 C1578 1.251 . S
C1580 H1547 0.930 . S
C1580 C1582 1.406 . S
C1580 C1585 1.261 . S
C1581 H1548 0.930 . S
C1581 N1583 1.325 . S
C1581 C1584 1.357 . S
C1582 H1550 0.928 . S
C1582 C1580 1.406 . S
C1582 N1583 1.261 . S
N1583 Co1534 2.214 . S
N1583 C1581 1.325 . S
N1583 C1582 1.261 . S
C1584 H1554 0.931 . S
C1584 C1581 1.357 . S
C1584 C1585 1.312 . S
C1585 H1556 0.930 . S
C1585 C1580 1.261 . S
C1585 C1584 1.312 . S
C1586 O1558 1.214 . S
C1586 O1566 1.234 . S
C1587 H1559 0.929 . S
C1587 C1590 1.391 . S
C1587 C1592 1.391 . S
C1588 H1560 0.929 . S
C1588 C1589 1.390 . S
C1588 N1591 1.391 . S
C1589 H1561 0.930 . S
C1589 C1588 1.390 . S
C1589 C1590 1.392 . S
C1590 H1562 0.929 . S
C1590 C1587 1.391 . S
C1590 C1589 1.392 . S
N1591 Co1535 2.257 . S
N1591 C1588 1.391 . S
N1591 C1592 1.388 . S
C1592 H1563 0.930 . S
C1592 C1587 1.391 . S
C1592 N1591 1.388 . S
Co1593 O1595 2.143 . S
Co1593 O1601 2.074 . S
Co1593 O1604 2.093 . S
Co1593 O1617 2.097 . S
Co1593 N1634 2.151 . S
Co1593 N1642 2.214 . S
Co1594 O1595 2.160 . S
Co1594 O1600 2.069 . S
Co1594 O1610 2.057 . S
Co1594 O1625 2.037 . S
Co1594 N1629 2.145 . S
Co1594 N1650 2.257 . S
O1595 Co1593 2.143 . S
O1595 Co1594 2.160 . S
C1596 O1597 1.278 . S
C1596 O1604 1.224 . S
O1597 C1596 1.278 . S
C1598 O1599 1.245 . S
C1598 O1610 1.232 . S
O1599 C1598 1.245 . S
O1600 Co1594 2.069 . S
O1600 C1626 1.267 1_556 S
O1601 Co1593 2.074 . S
O1601 C1626 1.257 1_556 S
H1602 C1627 0.930 . S
H1603 C1633 0.930 . S
O1604 Co1593 2.093 . S
O1604 C1596 1.224 . S
H1605 C1637 0.929 . S
H1606 C1639 0.930 . S
H1607 C1640 0.930 . S
H1608 C1638 0.929 . S
H1609 C1641 0.928 . S
O1610 Co1594 2.057 . S
O1610 C1598 1.232 . S
H1611 C1630 0.929 . S
H1612 C1631 0.929 . S
H1613 C1643 0.931 . S
H1614 C1635 0.929 . S
H1615 C1644 0.930 . S
H1616 C1636 0.931 . S
O1617 Co1593 2.097 . S
O1617 C1645 1.214 . S
H1618 C1646 0.929 . S
H1619 C1647 0.929 . S
H1620 C1648 0.930 . S
H1621 C1649 0.929 . S
H1622 C1651 0.930 . S
H1623 C1628 0.930 . S
H1624 C1632 0.930 . S
O1625 Co1594 2.037 . S
O1625 C1645 1.234 . S
C1626 O1600 1.267 1_554 S
C1626 O1601 1.257 1_554 S
C1627 H1602 0.930 . S
C1627 C1630 1.388 . S
C1627 C1632 1.418 . S
C1628 H1623 0.930 . S
C1628 C1631 1.404 1_554 S
C1628 C1632 1.353 . S
N1629 Co1594 2.145 . S
N1629 C1630 1.397 1_556 S
N1629 C1631 1.334 . S
C1630 H1611 0.929 . S
C1630 C1627 1.388 . S
C1630 N1629 1.397 1_554 S
C1631 H1612 0.929 . S
C1631 C1628 1.404 1_556 S
C1631 N1629 1.334 . S
C1632 H1624 0.930 . S
C1632 C1627 1.418 . S
C1632 C1628 1.353 . S
C1633 H1603 0.930 . S
C1633 N1634 1.330 . S
C1633 C1635 1.446 . S
N1634 Co1593 2.151 . S
N1634 C1633 1.330 . S
N1634 C1638 1.418 . S
C1635 H1614 0.929 . S
C1635 C1633 1.446 . S
C1635 C1636 1.332 . S
C1636 H1616 0.931 . S
C1636 C1635 1.332 . S
C1636 C1637 1.267 . S
C1637 H1605 0.929 . S
C1637 C1636 1.267 . S
C1637 C1638 1.251 . S
C1638 H1608 0.929 . S
C1638 N1634 1.418 . S
C1638 C1637 1.251 . S
C1639 H1606 0.930 . S
C1639 C1641 1.406 . S
C1639 C1644 1.261 . S
C1640 H1607 0.930 . S
C1640 N1642 1.325 . S
C1640 C1643 1.357 . S
C1641 H1609 0.928 . S
C1641 C1639 1.406 . S
C1641 N1642 1.261 . S
N1642 Co1593 2.214 . S
N1642 C1640 1.325 . S
N1642 C1641 1.261 . S
C1643 H1613 0.931 . S
C1643 C1640 1.357 . S
C1643 C1644 1.312 . S
C1644 H1615 0.930 . S
C1644 C1639 1.261 . S
C1644 C1643 1.312 . S
C1645 O1617 1.214 . S
C1645 O1625 1.234 . S
C1646 H1618 0.929 . S
C1646 C1649 1.391 . S
C1646 C1651 1.391 . S
C1647 H1619 0.929 . S
C1647 C1648 1.390 . S
C1647 N1650 1.391 . S
C1648 H1620 0.930 . S
C1648 C1647 1.390 . S
C1648 C1649 1.392 . S
C1649 H1621 0.929 . S
C1649 C1646 1.391 . S
C1649 C1648 1.392 . S
N1650 Co1594 2.257 . S
N1650 C1647 1.391 . S
N1650 C1651 1.388 . S
C1651 H1622 0.930 . S
C1651 C1646 1.391 . S
C1651 N1650 1.388 . S
Co1652 O1654 2.143 . S
Co1652 O1660 2.074 . S
Co1652 O1663 2.093 . S
Co1652 O1676 2.097 . S
Co1652 N1693 2.151 . S
Co1652 N1701 2.214 . S
Co1653 O1654 2.160 . S
Co1653 O1659 2.070 . S
Co1653 O1669 2.057 . S
Co1653 O1684 2.037 . S
Co1653 N1688 2.145 . S
Co1653 N1709 2.257 . S
O1654 Co1652 2.143 . S
O1654 Co1653 2.160 . S
C1655 O1656 1.278 . S
C1655 O1663 1.224 . S
O1656 C1655 1.278 . S
C1657 O1658 1.245 . S
C1657 O1669 1.232 . S
O1658 C1657 1.245 . S
O1659 Co1653 2.070 . S
O1659 C1685 1.267 1_556 S
O1660 Co1652 2.074 . S
O1660 C1685 1.257 1_556 S
H1661 C1686 0.930 . S
H1662 C1692 0.930 . S
O1663 Co1652 2.093 . S
O1663 C1655 1.224 . S
H1664 C1696 0.929 . S
H1665 C1698 0.930 . S
H1666 C1699 0.930 . S
H1667 C1697 0.929 . S
H1668 C1700 0.928 . S
O1669 Co1653 2.057 . S
O1669 C1657 1.232 . S
H1670 C1689 0.929 . S
H1671 C1690 0.929 . S
H1672 C1702 0.931 . S
H1673 C1694 0.929 . S
H1674 C1703 0.930 . S
H1675 C1695 0.931 . S
O1676 Co1652 2.097 . S
O1676 C1704 1.214 . S
H1677 C1705 0.929 . S
H1678 C1706 0.929 . S
H1679 C1707 0.930 . S
H1680 C1708 0.929 . S
H1681 C1710 0.930 . S
H1682 C1687 0.930 . S
H1683 C1691 0.930 . S
O1684 Co1653 2.037 . S
O1684 C1704 1.234 . S
C1685 O1659 1.267 1_554 S
C1685 O1660 1.257 1_554 S
C1686 H1661 0.930 . S
C1686 C1689 1.388 . S
C1686 C1691 1.418 . S
C1687 H1682 0.930 . S
C1687 C1690 1.404 1_554 S
C1687 C1691 1.353 . S
N1688 Co1653 2.145 . S
N1688 C1689 1.397 1_556 S
N1688 C1690 1.334 . S
C1689 H1670 0.929 . S
C1689 C1686 1.388 . S
C1689 N1688 1.397 1_554 S
C1690 H1671 0.929 . S
C1690 C1687 1.404 1_556 S
C1690 N1688 1.334 . S
C1691 H1683 0.930 . S
C1691 C1686 1.418 . S
C1691 C1687 1.353 . S
C1692 H1662 0.930 . S
C1692 N1693 1.330 . S
C1692 C1694 1.446 . S
N1693 Co1652 2.151 . S
N1693 C1692 1.330 . S
N1693 C1697 1.418 . S
C1694 H1673 0.929 . S
C1694 C1692 1.446 . S
C1694 C1695 1.332 . S
C1695 H1675 0.931 . S
C1695 C1694 1.332 . S
C1695 C1696 1.267 . S
C1696 H1664 0.929 . S
C1696 C1695 1.267 . S
C1696 C1697 1.251 . S
C1697 H1667 0.929 . S
C1697 N1693 1.418 . S
C1697 C1696 1.251 . S
C1698 H1665 0.930 . S
C1698 C1700 1.406 . S
C1698 C1703 1.261 . S
C1699 H1666 0.930 . S
C1699 N1701 1.325 . S
C1699 C1702 1.357 . S
C1700 H1668 0.928 . S
C1700 C1698 1.406 . S
C1700 N1701 1.261 . S
N1701 Co1652 2.214 . S
N1701 C1699 1.325 . S
N1701 C1700 1.261 . S
C1702 H1672 0.931 . S
C1702 C1699 1.357 . S
C1702 C1703 1.312 . S
C1703 H1674 0.930 . S
C1703 C1698 1.261 . S
C1703 C1702 1.312 . S
C1704 O1676 1.214 . S
C1704 O1684 1.234 . S
C1705 H1677 0.929 . S
C1705 C1708 1.391 . S
C1705 C1710 1.391 . S
C1706 H1678 0.929 . S
C1706 C1707 1.390 . S
C1706 N1709 1.391 . S
C1707 H1679 0.930 . S
C1707 C1706 1.390 . S
C1707 C1708 1.392 . S
C1708 H1680 0.929 . S
C1708 C1705 1.391 . S
C1708 C1707 1.392 . S
N1709 Co1653 2.257 . S
N1709 C1706 1.391 . S
N1709 C1710 1.388 . S
C1710 H1681 0.930 . S
C1710 C1705 1.391 . S
C1710 N1709 1.388 . S
Co1711 O1713 2.143 . S
Co1711 O1719 2.074 . S
Co1711 O1722 2.093 . S
Co1711 O1735 2.097 . S
Co1711 N1752 2.151 . S
Co1711 N1760 2.214 . S
Co1712 O1713 2.160 . S
Co1712 O1718 2.070 . S
Co1712 O1728 2.057 . S
Co1712 O1743 2.037 . S
Co1712 N1747 2.145 . S
Co1712 N1768 2.257 . S
O1713 Co1711 2.143 . S
O1713 Co1712 2.160 . S
C1714 O1715 1.278 . S
C1714 O1722 1.224 . S
O1715 C1714 1.278 . S
C1716 O1717 1.245 . S
C1716 O1728 1.232 . S
O1717 C1716 1.245 . S
O1718 Co1712 2.070 . S
O1718 C1744 1.267 1_556 S
O1719 Co1711 2.074 . S
O1719 C1744 1.257 1_556 S
H1720 C1745 0.930 . S
H1721 C1751 0.930 . S
O1722 Co1711 2.093 . S
O1722 C1714 1.224 . S
H1723 C1755 0.929 . S
H1724 C1757 0.930 . S
H1725 C1758 0.930 . S
H1726 C1756 0.929 . S
H1727 C1759 0.928 . S
O1728 Co1712 2.057 . S
O1728 C1716 1.232 . S
H1729 C1748 0.929 . S
H1730 C1749 0.929 . S
H1731 C1761 0.931 . S
H1732 C1753 0.929 . S
H1733 C1762 0.930 . S
H1734 C1754 0.931 . S
O1735 Co1711 2.097 . S
O1735 C1763 1.214 . S
H1736 C1764 0.929 . S
H1737 C1765 0.929 . S
H1738 C1766 0.930 . S
H1739 C1767 0.929 . S
H1740 C1769 0.930 . S
H1741 C1746 0.930 . S
H1742 C1750 0.930 . S
O1743 Co1712 2.037 . S
O1743 C1763 1.234 . S
C1744 O1718 1.267 1_554 S
C1744 O1719 1.257 1_554 S
C1745 H1720 0.930 . S
C1745 C1748 1.388 . S
C1745 C1750 1.418 . S
C1746 H1741 0.930 . S
C1746 C1749 1.404 1_554 S
C1746 C1750 1.353 . S
N1747 Co1712 2.145 . S
N1747 C1748 1.397 1_556 S
N1747 C1749 1.334 . S
C1748 H1729 0.929 . S
C1748 C1745 1.388 . S
C1748 N1747 1.397 1_554 S
C1749 H1730 0.929 . S
C1749 C1746 1.404 1_556 S
C1749 N1747 1.334 . S
C1750 H1742 0.930 . S
C1750 C1745 1.418 . S
C1750 C1746 1.353 . S
C1751 H1721 0.930 . S
C1751 N1752 1.330 . S
C1751 C1753 1.446 . S
N1752 Co1711 2.151 . S
N1752 C1751 1.330 . S
N1752 C1756 1.418 . S
C1753 H1732 0.929 . S
C1753 C1751 1.446 . S
C1753 C1754 1.332 . S
C1754 H1734 0.931 . S
C1754 C1753 1.332 . S
C1754 C1755 1.267 . S
C1755 H1723 0.929 . S
C1755 C1754 1.267 . S
C1755 C1756 1.251 . S
C1756 H1726 0.929 . S
C1756 N1752 1.418 . S
C1756 C1755 1.251 . S
C1757 H1724 0.930 . S
C1757 C1759 1.406 . S
C1757 C1762 1.261 . S
C1758 H1725 0.930 . S
C1758 N1760 1.325 . S
C1758 C1761 1.357 . S
C1759 H1727 0.928 . S
C1759 C1757 1.406 . S
C1759 N1760 1.261 . S
N1760 Co1711 2.214 . S
N1760 C1758 1.325 . S
N1760 C1759 1.261 . S
C1761 H1731 0.931 . S
C1761 C1758 1.357 . S
C1761 C1762 1.312 . S
C1762 H1733 0.930 . S
C1762 C1757 1.261 . S
C1762 C1761 1.312 . S
C1763 O1735 1.214 . S
C1763 O1743 1.234 . S
C1764 H1736 0.929 . S
C1764 C1767 1.391 . S
C1764 C1769 1.391 . S
C1765 H1737 0.929 . S
C1765 C1766 1.390 . S
C1765 N1768 1.391 . S
C1766 H1738 0.930 . S
C1766 C1765 1.390 . S
C1766 C1767 1.392 . S
C1767 H1739 0.929 . S
C1767 C1764 1.391 . S
C1767 C1766 1.392 . S
N1768 Co1712 2.257 . S
N1768 C1765 1.391 . S
N1768 C1769 1.388 . S
C1769 H1740 0.930 . S
C1769 C1764 1.391 . S
C1769 N1768 1.388 . S
Co1770 O1772 2.143 . S
Co1770 O1778 2.074 . S
Co1770 O1781 2.093 . S
Co1770 O1794 2.097 . S
Co1770 N1811 2.151 . S
Co1770 N1819 2.214 . S
Co1771 O1772 2.160 . S
Co1771 O1777 2.058 . S
Co1771 O1787 2.057 . S
Co1771 O1802 2.037 . S
Co1771 N1806 2.145 . S
Co1771 N1827 2.257 . S
O1772 Co1770 2.143 . S
O1772 Co1771 2.160 . S
C1773 O1774 1.278 . S
C1773 O1781 1.224 . S
O1774 C1773 1.278 . S
C1775 O1776 1.245 . S
C1775 O1787 1.232 . S
O1776 C1775 1.245 . S
O1777 Co1771 2.058 . S
O1777 C1803 1.269 . S
O1778 Co1770 2.074 . S
O1778 C1803 1.257 . S
H1779 C1804 0.930 . S
H1780 C1810 0.930 . S
O1781 Co1770 2.093 . S
O1781 C1773 1.224 . S
H1782 C1814 0.929 . S
H1783 C1816 0.930 . S
H1784 C1817 0.930 . S
H1785 C1815 0.929 . S
H1786 C1818 0.928 . S
O1787 Co1771 2.057 . S
O1787 C1775 1.232 . S
H1788 C1807 0.929 . S
H1789 C1808 0.929 . S
H1790 C1820 0.931 . S
H1791 C1812 0.929 . S
H1792 C1821 0.930 . S
H1793 C1813 0.931 . S
O1794 Co1770 2.097 . S
O1794 C1822 1.214 . S
H1795 C1823 0.929 . S
H1796 C1824 0.929 . S
H1797 C1825 0.930 . S
H1798 C1826 0.929 . S
H1799 C1828 0.930 . S
H1800 C1805 0.930 . S
H1801 C1809 0.930 . S
O1802 Co1771 2.037 . S
O1802 C1822 1.234 . S
C1803 O1777 1.269 . S
C1803 O1778 1.257 . S
C1804 H1779 0.930 . S
C1804 C1807 1.388 . S
C1804 C1809 1.418 . S
C1805 H1800 0.930 . S
C1805 C1808 1.404 . S
C1805 C1809 1.353 . S
N1806 Co1771 2.145 . S
N1806 C1807 1.397 . S
N1806 C1808 1.334 . S
C1807 H1788 0.929 . S
C1807 C1804 1.388 . S
C1807 N1806 1.397 . S
C1808 H1789 0.929 . S
C1808 C1805 1.404 . S
C1808 N1806 1.334 . S
C1809 H1801 0.930 . S
C1809 C1804 1.418 . S
C1809 C1805 1.353 . S
C1810 H1780 0.930 . S
C1810 N1811 1.330 . S
C1810 C1812 1.446 . S
N1811 Co1770 2.151 . S
N1811 C1810 1.330 . S
N1811 C1815 1.418 . S
C1812 H1791 0.929 . S
C1812 C1810 1.446 . S
C1812 C1813 1.332 . S
C1813 H1793 0.931 . S
C1813 C1812 1.332 . S
C1813 C1814 1.267 . S
C1814 H1782 0.929 . S
C1814 C1813 1.267 . S
C1814 C1815 1.251 . S
C1815 H1785 0.929 . S
C1815 N1811 1.418 . S
C1815 C1814 1.251 . S
C1816 H1783 0.930 . S
C1816 C1818 1.406 . S
C1816 C1821 1.261 . S
C1817 H1784 0.930 . S
C1817 N1819 1.325 . S
C1817 C1820 1.357 . S
C1818 H1786 0.928 . S
C1818 C1816 1.406 . S
C1818 N1819 1.261 . S
N1819 Co1770 2.214 . S
N1819 C1817 1.325 . S
N1819 C1818 1.261 . S
C1820 H1790 0.931 . S
C1820 C1817 1.357 . S
C1820 C1821 1.312 . S
C1821 H1792 0.930 . S
C1821 C1816 1.261 . S
C1821 C1820 1.312 . S
C1822 O1794 1.214 . S
C1822 O1802 1.234 . S
C1823 H1795 0.929 . S
C1823 C1826 1.391 . S
C1823 C1828 1.391 . S
C1824 H1796 0.929 . S
C1824 C1825 1.390 . S
C1824 N1827 1.391 . S
C1825 H1797 0.930 . S
C1825 C1824 1.390 . S
C1825 C1826 1.392 . S
C1826 H1798 0.929 . S
C1826 C1823 1.391 . S
C1826 C1825 1.392 . S
N1827 Co1771 2.257 . S
N1827 C1824 1.391 . S
N1827 C1828 1.388 . S
C1828 H1799 0.930 . S
C1828 C1823 1.391 . S
C1828 N1827 1.388 . S
Co1829 O1831 2.143 . S
Co1829 O1837 2.074 . S
Co1829 O1840 2.093 . S
Co1829 O1853 2.097 . S
Co1829 N1870 2.151 . S
Co1829 N1878 2.214 . S
Co1830 O1831 2.160 . S
Co1830 O1836 2.058 . S
Co1830 O1846 2.057 . S
Co1830 O1861 2.037 . S
Co1830 N1865 2.145 . S
Co1830 N1886 2.257 . S
O1831 Co1829 2.143 . S
O1831 Co1830 2.160 . S
C1832 O1833 1.278 . S
C1832 O1840 1.224 . S
O1833 C1832 1.278 . S
C1834 O1835 1.245 . S
C1834 O1846 1.232 . S
O1835 C1834 1.245 . S
O1836 Co1830 2.058 . S
O1836 C1862 1.269 . S
O1837 Co1829 2.074 . S
O1837 C1862 1.257 . S
H1838 C1863 0.930 . S
H1839 C1869 0.930 . S
O1840 Co1829 2.093 . S
O1840 C1832 1.224 . S
H1841 C1873 0.929 . S
H1842 C1875 0.930 . S
H1843 C1876 0.930 . S
H1844 C1874 0.929 . S
H1845 C1877 0.928 . S
O1846 Co1830 2.057 . S
O1846 C1834 1.232 . S
H1847 C1866 0.929 . S
H1848 C1867 0.929 . S
H1849 C1879 0.931 . S
H1850 C1871 0.929 . S
H1851 C1880 0.930 . S
H1852 C1872 0.931 . S
O1853 Co1829 2.097 . S
O1853 C1881 1.214 . S
H1854 C1882 0.929 . S
H1855 C1883 0.929 . S
H1856 C1884 0.930 . S
H1857 C1885 0.929 . S
H1858 C1887 0.930 . S
H1859 C1864 0.930 . S
H1860 C1868 0.930 . S
O1861 Co1830 2.037 . S
O1861 C1881 1.234 . S
C1862 O1836 1.269 . S
C1862 O1837 1.257 . S
C1863 H1838 0.930 . S
C1863 C1866 1.388 . S
C1863 C1868 1.418 . S
C1864 H1859 0.930 . S
C1864 C1867 1.404 . S
C1864 C1868 1.353 . S
N1865 Co1830 2.145 . S
N1865 C1866 1.397 . S
N1865 C1867 1.334 . S
C1866 H1847 0.929 . S
C1866 C1863 1.388 . S
C1866 N1865 1.397 . S
C1867 H1848 0.929 . S
C1867 C1864 1.404 . S
C1867 N1865 1.334 . S
C1868 H1860 0.930 . S
C1868 C1863 1.418 . S
C1868 C1864 1.353 . S
C1869 H1839 0.930 . S
C1869 N1870 1.330 . S
C1869 C1871 1.446 . S
N1870 Co1829 2.151 . S
N1870 C1869 1.330 . S
N1870 C1874 1.418 . S
C1871 H1850 0.929 . S
C1871 C1869 1.446 . S
C1871 C1872 1.332 . S
C1872 H1852 0.931 . S
C1872 C1871 1.332 . S
C1872 C1873 1.267 . S
C1873 H1841 0.929 . S
C1873 C1872 1.267 . S
C1873 C1874 1.251 . S
C1874 H1844 0.929 . S
C1874 N1870 1.418 . S
C1874 C1873 1.251 . S
C1875 H1842 0.930 . S
C1875 C1877 1.406 . S
C1875 C1880 1.261 . S
C1876 H1843 0.930 . S
C1876 N1878 1.325 . S
C1876 C1879 1.357 . S
C1877 H1845 0.928 . S
C1877 C1875 1.406 . S
C1877 N1878 1.261 . S
N1878 Co1829 2.214 . S
N1878 C1876 1.325 . S
N1878 C1877 1.261 . S
C1879 H1849 0.931 . S
C1879 C1876 1.357 . S
C1879 C1880 1.312 . S
C1880 H1851 0.930 . S
C1880 C1875 1.261 . S
C1880 C1879 1.312 . S
C1881 O1853 1.214 . S
C1881 O1861 1.234 . S
C1882 H1854 0.929 . S
C1882 C1885 1.391 . S
C1882 C1887 1.391 . S
C1883 H1855 0.929 . S
C1883 C1884 1.390 . S
C1883 N1886 1.391 . S
C1884 H1856 0.930 . S
C1884 C1883 1.390 . S
C1884 C1885 1.392 . S
C1885 H1857 0.929 . S
C1885 C1882 1.391 . S
C1885 C1884 1.392 . S
N1886 Co1830 2.257 . S
N1886 C1883 1.391 . S
N1886 C1887 1.388 . S
C1887 H1858 0.930 . S
C1887 C1882 1.391 . S
C1887 N1886 1.388 . S
Co1888 O1890 2.143 . S
Co1888 O1896 2.074 . S
Co1888 O1899 2.093 . S
Co1888 O1912 2.097 . S
Co1888 N1929 2.151 . S
Co1888 N1937 2.214 . S
Co1889 O1890 2.160 . S
Co1889 O1895 2.058 . S
Co1889 O1905 2.057 . S
Co1889 O1920 2.037 . S
Co1889 N1924 2.145 . S
Co1889 N1945 2.257 . S
O1890 Co1888 2.143 . S
O1890 Co1889 2.160 . S
C1891 O1892 1.278 . S
C1891 O1899 1.224 . S
O1892 C1891 1.278 . S
C1893 O1894 1.245 . S
C1893 O1905 1.232 . S
O1894 C1893 1.245 . S
O1895 Co1889 2.058 . S
O1895 C1921 1.269 . S
O1896 Co1888 2.074 . S
O1896 C1921 1.257 . S
H1897 C1922 0.930 . S
H1898 C1928 0.930 . S
O1899 Co1888 2.093 . S
O1899 C1891 1.224 . S
H1900 C1932 0.929 . S
H1901 C1934 0.930 . S
H1902 C1935 0.930 . S
H1903 C1933 0.929 . S
H1904 C1936 0.928 . S
O1905 Co1889 2.057 . S
O1905 C1893 1.232 . S
H1906 C1925 0.929 . S
H1907 C1926 0.929 . S
H1908 C1938 0.931 . S
H1909 C1930 0.929 . S
H1910 C1939 0.930 . S
H1911 C1931 0.931 . S
O1912 Co1888 2.097 . S
O1912 C1940 1.214 . S
H1913 C1941 0.929 . S
H1914 C1942 0.929 . S
H1915 C1943 0.930 . S
H1916 C1944 0.929 . S
H1917 C1946 0.930 . S
H1918 C1923 0.930 . S
H1919 C1927 0.930 . S
O1920 Co1889 2.037 . S
O1920 C1940 1.234 . S
C1921 O1895 1.269 . S
C1921 O1896 1.257 . S
C1922 H1897 0.930 . S
C1922 C1925 1.388 . S
C1922 C1927 1.418 . S
C1923 H1918 0.930 . S
C1923 C1926 1.404 . S
C1923 C1927 1.353 . S
N1924 Co1889 2.145 . S
N1924 C1925 1.397 . S
N1924 C1926 1.334 . S
C1925 H1906 0.929 . S
C1925 C1922 1.388 . S
C1925 N1924 1.397 . S
C1926 H1907 0.929 . S
C1926 C1923 1.404 . S
C1926 N1924 1.334 . S
C1927 H1919 0.930 . S
C1927 C1922 1.418 . S
C1927 C1923 1.353 . S
C1928 H1898 0.930 . S
C1928 N1929 1.330 . S
C1928 C1930 1.446 . S
N1929 Co1888 2.151 . S
N1929 C1928 1.330 . S
N1929 C1933 1.418 . S
C1930 H1909 0.929 . S
C1930 C1928 1.446 . S
C1930 C1931 1.332 . S
C1931 H1911 0.931 . S
C1931 C1930 1.332 . S
C1931 C1932 1.267 . S
C1932 H1900 0.929 . S
C1932 C1931 1.267 . S
C1932 C1933 1.251 . S
C1933 H1903 0.929 . S
C1933 N1929 1.418 . S
C1933 C1932 1.251 . S
C1934 H1901 0.930 . S
C1934 C1936 1.406 . S
C1934 C1939 1.261 . S
C1935 H1902 0.930 . S
C1935 N1937 1.325 . S
C1935 C1938 1.357 . S
C1936 H1904 0.928 . S
C1936 C1934 1.406 . S
C1936 N1937 1.261 . S
N1937 Co1888 2.214 . S
N1937 C1935 1.325 . S
N1937 C1936 1.261 . S
C1938 H1908 0.931 . S
C1938 C1935 1.357 . S
C1938 C1939 1.312 . S
C1939 H1910 0.930 . S
C1939 C1934 1.261 . S
C1939 C1938 1.312 . S
C1940 O1912 1.214 . S
C1940 O1920 1.234 . S
C1941 H1913 0.929 . S
C1941 C1944 1.391 . S
C1941 C1946 1.391 . S
C1942 H1914 0.929 . S
C1942 C1943 1.390 . S
C1942 N1945 1.391 . S
C1943 H1915 0.930 . S
C1943 C1942 1.390 . S
C1943 C1944 1.392 . S
C1944 H1916 0.929 . S
C1944 C1941 1.391 . S
C1944 C1943 1.392 . S
N1945 Co1889 2.257 . S
N1945 C1942 1.391 . S
N1945 C1946 1.388 . S
C1946 H1917 0.930 . S
C1946 C1941 1.391 . S
C1946 N1945 1.388 . S
Co1947 O1949 2.143 . S
Co1947 O1955 2.074 . S
Co1947 O1958 2.093 . S
Co1947 O1971 2.097 . S
Co1947 N1988 2.151 . S
Co1947 N1996 2.214 . S
Co1948 O1949 2.160 . S
Co1948 O1954 2.058 . S
Co1948 O1964 2.057 . S
Co1948 O1979 2.037 . S
Co1948 N1983 2.145 . S
Co1948 N2004 2.257 . S
O1949 Co1947 2.143 . S
O1949 Co1948 2.160 . S
C1950 O1951 1.278 . S
C1950 O1958 1.224 . S
O1951 C1950 1.278 . S
C1952 O1953 1.245 . S
C1952 O1964 1.232 . S
O1953 C1952 1.245 . S
O1954 Co1948 2.058 . S
O1954 C1980 1.269 . S
O1955 Co1947 2.074 . S
O1955 C1980 1.257 . S
H1956 C1981 0.930 . S
H1957 C1987 0.930 . S
O1958 Co1947 2.093 . S
O1958 C1950 1.224 . S
H1959 C1991 0.929 . S
H1960 C1993 0.930 . S
H1961 C1994 0.930 . S
H1962 C1992 0.929 . S
H1963 C1995 0.928 . S
O1964 Co1948 2.057 . S
O1964 C1952 1.232 . S
H1965 C1984 0.929 . S
H1966 C1985 0.929 . S
H1967 C1997 0.931 . S
H1968 C1989 0.929 . S
H1969 C1998 0.930 . S
H1970 C1990 0.931 . S
O1971 Co1947 2.097 . S
O1971 C1999 1.214 . S
H1972 C2000 0.929 . S
H1973 C2001 0.929 . S
H1974 C2002 0.930 . S
H1975 C2003 0.929 . S
H1976 C2005 0.930 . S
H1977 C1982 0.930 . S
H1978 C1986 0.930 . S
O1979 Co1948 2.037 . S
O1979 C1999 1.234 . S
C1980 O1954 1.269 . S
C1980 O1955 1.257 . S
C1981 H1956 0.930 . S
C1981 C1984 1.388 . S
C1981 C1986 1.418 . S
C1982 H1977 0.930 . S
C1982 C1985 1.404 . S
C1982 C1986 1.353 . S
N1983 Co1948 2.145 . S
N1983 C1984 1.397 . S
N1983 C1985 1.334 . S
C1984 H1965 0.929 . S
C1984 C1981 1.388 . S
C1984 N1983 1.397 . S
C1985 H1966 0.929 . S
C1985 C1982 1.404 . S
C1985 N1983 1.334 . S
C1986 H1978 0.930 . S
C1986 C1981 1.418 . S
C1986 C1982 1.353 . S
C1987 H1957 0.930 . S
C1987 N1988 1.330 . S
C1987 C1989 1.446 . S
N1988 Co1947 2.151 . S
N1988 C1987 1.330 . S
N1988 C1992 1.418 . S
C1989 H1968 0.929 . S
C1989 C1987 1.446 . S
C1989 C1990 1.332 . S
C1990 H1970 0.931 . S
C1990 C1989 1.332 . S
C1990 C1991 1.267 . S
C1991 H1959 0.929 . S
C1991 C1990 1.267 . S
C1991 C1992 1.251 . S
C1992 H1962 0.929 . S
C1992 N1988 1.418 . S
C1992 C1991 1.251 . S
C1993 H1960 0.930 . S
C1993 C1995 1.406 . S
C1993 C1998 1.261 . S
C1994 H1961 0.930 . S
C1994 N1996 1.325 . S
C1994 C1997 1.357 . S
C1995 H1963 0.928 . S
C1995 C1993 1.406 . S
C1995 N1996 1.261 . S
N1996 Co1947 2.214 . S
N1996 C1994 1.325 . S
N1996 C1995 1.261 . S
C1997 H1967 0.931 . S
C1997 C1994 1.357 . S
C1997 C1998 1.312 . S
C1998 H1969 0.930 . S
C1998 C1993 1.261 . S
C1998 C1997 1.312 . S
C1999 O1971 1.214 . S
C1999 O1979 1.234 . S
C2000 H1972 0.929 . S
C2000 C2003 1.391 . S
C2000 C2005 1.391 . S
C2001 H1973 0.929 . S
C2001 C2002 1.390 . S
C2001 N2004 1.391 . S
C2002 H1974 0.930 . S
C2002 C2001 1.390 . S
C2002 C2003 1.392 . S
C2003 H1975 0.929 . S
C2003 C2000 1.391 . S
C2003 C2002 1.392 . S
N2004 Co1948 2.257 . S
N2004 C2001 1.391 . S
N2004 C2005 1.388 . S
C2005 H1976 0.930 . S
C2005 C2000 1.391 . S
C2005 N2004 1.388 . S
Co2006 O2008 2.143 . S
Co2006 O2014 2.074 . S
Co2006 O2017 2.093 . S
Co2006 O2030 2.097 . S
Co2006 N2047 2.151 . S
Co2006 N2055 2.214 . S
Co2007 O2008 2.160 . S
Co2007 O2013 2.058 . S
Co2007 O2023 2.057 . S
Co2007 O2038 2.037 . S
Co2007 N2042 2.145 . S
Co2007 N2063 2.257 . S
O2008 Co2006 2.143 . S
O2008 Co2007 2.160 . S
C2009 O2010 1.278 . S
C2009 O2017 1.224 . S
O2010 C2009 1.278 . S
C2011 O2012 1.245 . S
C2011 O2023 1.232 . S
O2012 C2011 1.245 . S
O2013 Co2007 2.058 . S
O2013 C2039 1.269 . S
O2014 Co2006 2.074 . S
O2014 C2039 1.257 . S
H2015 C2040 0.930 . S
H2016 C2046 0.930 . S
O2017 Co2006 2.093 . S
O2017 C2009 1.224 . S
H2018 C2050 0.929 . S
H2019 C2052 0.930 . S
H2020 C2053 0.930 . S
H2021 C2051 0.929 . S
H2022 C2054 0.928 . S
O2023 Co2007 2.057 . S
O2023 C2011 1.232 . S
H2024 C2043 0.929 . S
H2025 C2044 0.929 . S
H2026 C2056 0.931 . S
H2027 C2048 0.929 . S
H2028 C2057 0.930 . S
H2029 C2049 0.931 . S
O2030 Co2006 2.097 . S
O2030 C2058 1.214 . S
H2031 C2059 0.929 . S
H2032 C2060 0.929 . S
H2033 C2061 0.930 . S
H2034 C2062 0.929 . S
H2035 C2064 0.930 . S
H2036 C2041 0.930 . S
H2037 C2045 0.930 . S
O2038 Co2007 2.037 . S
O2038 C2058 1.234 . S
C2039 O2013 1.269 . S
C2039 O2014 1.257 . S
C2040 H2015 0.930 . S
C2040 C2043 1.388 . S
C2040 C2045 1.418 . S
C2041 H2036 0.930 . S
C2041 C2044 1.404 . S
C2041 C2045 1.353 . S
N2042 Co2007 2.145 . S
N2042 C2043 1.397 . S
N2042 C2044 1.334 . S
C2043 H2024 0.929 . S
C2043 C2040 1.388 . S
C2043 N2042 1.397 . S
C2044 H2025 0.929 . S
C2044 C2041 1.404 . S
C2044 N2042 1.334 . S
C2045 H2037 0.930 . S
C2045 C2040 1.418 . S
C2045 C2041 1.353 . S
C2046 H2016 0.930 . S
C2046 N2047 1.330 . S
C2046 C2048 1.446 . S
N2047 Co2006 2.151 . S
N2047 C2046 1.330 . S
N2047 C2051 1.418 . S
C2048 H2027 0.929 . S
C2048 C2046 1.446 . S
C2048 C2049 1.332 . S
C2049 H2029 0.931 . S
C2049 C2048 1.332 . S
C2049 C2050 1.267 . S
C2050 H2018 0.929 . S
C2050 C2049 1.267 . S
C2050 C2051 1.251 . S
C2051 H2021 0.929 . S
C2051 N2047 1.418 . S
C2051 C2050 1.251 . S
C2052 H2019 0.930 . S
C2052 C2054 1.406 . S
C2052 C2057 1.261 . S
C2053 H2020 0.930 . S
C2053 N2055 1.325 . S
C2053 C2056 1.357 . S
C2054 H2022 0.928 . S
C2054 C2052 1.406 . S
C2054 N2055 1.261 . S
N2055 Co2006 2.214 . S
N2055 C2053 1.325 . S
N2055 C2054 1.261 . S
C2056 H2026 0.931 . S
C2056 C2053 1.357 . S
C2056 C2057 1.312 . S
C2057 H2028 0.930 . S
C2057 C2052 1.261 . S
C2057 C2056 1.312 . S
C2058 O2030 1.214 . S
C2058 O2038 1.234 . S
C2059 H2031 0.929 . S
C2059 C2062 1.391 . S
C2059 C2064 1.391 . S
C2060 H2032 0.929 . S
C2060 C2061 1.390 . S
C2060 N2063 1.391 . S
C2061 H2033 0.930 . S
C2061 C2060 1.390 . S
C2061 C2062 1.392 . S
C2062 H2034 0.929 . S
C2062 C2059 1.391 . S
C2062 C2061 1.392 . S
N2063 Co2007 2.257 . S
N2063 C2060 1.391 . S
N2063 C2064 1.388 . S
C2064 H2035 0.930 . S
C2064 C2059 1.391 . S
C2064 N2063 1.388 . S
Co2065 O2067 2.143 . S
Co2065 O2073 2.074 . S
Co2065 O2076 2.093 . S
Co2065 O2089 2.097 . S
Co2065 N2106 2.151 . S
Co2065 N2114 2.214 . S
Co2066 O2067 2.160 . S
Co2066 O2072 2.058 . S
Co2066 O2082 2.057 . S
Co2066 O2097 2.037 . S
Co2066 N2101 2.145 . S
Co2066 N2122 2.257 . S
O2067 Co2065 2.143 . S
O2067 Co2066 2.160 . S
C2068 O2069 1.278 . S
C2068 O2076 1.224 . S
O2069 C2068 1.278 . S
C2070 O2071 1.245 . S
C2070 O2082 1.232 . S
O2071 C2070 1.245 . S
O2072 Co2066 2.058 . S
O2072 C2098 1.269 . S
O2073 Co2065 2.074 . S
O2073 C2098 1.257 . S
H2074 C2099 0.930 . S
H2075 C2105 0.930 . S
O2076 Co2065 2.093 . S
O2076 C2068 1.224 . S
H2077 C2109 0.929 . S
H2078 C2111 0.930 . S
H2079 C2112 0.930 . S
H2080 C2110 0.929 . S
H2081 C2113 0.928 . S
O2082 Co2066 2.057 . S
O2082 C2070 1.232 . S
H2083 C2102 0.929 . S
H2084 C2103 0.929 . S
H2085 C2115 0.931 . S
H2086 C2107 0.929 . S
H2087 C2116 0.930 . S
H2088 C2108 0.931 . S
O2089 Co2065 2.097 . S
O2089 C2117 1.214 . S
H2090 C2118 0.929 . S
H2091 C2119 0.929 . S
H2092 C2120 0.930 . S
H2093 C2121 0.929 . S
H2094 C2123 0.930 . S
H2095 C2100 0.930 . S
H2096 C2104 0.930 . S
O2097 Co2066 2.037 . S
O2097 C2117 1.234 . S
C2098 O2072 1.269 . S
C2098 O2073 1.257 . S
C2099 H2074 0.930 . S
C2099 C2102 1.388 . S
C2099 C2104 1.418 . S
C2100 H2095 0.930 . S
C2100 C2103 1.404 . S
C2100 C2104 1.353 . S
N2101 Co2066 2.145 . S
N2101 C2102 1.397 . S
N2101 C2103 1.334 . S
C2102 H2083 0.929 . S
C2102 C2099 1.388 . S
C2102 N2101 1.397 . S
C2103 H2084 0.929 . S
C2103 C2100 1.404 . S
C2103 N2101 1.334 . S
C2104 H2096 0.930 . S
C2104 C2099 1.418 . S
C2104 C2100 1.353 . S
C2105 H2075 0.930 . S
C2105 N2106 1.330 . S
C2105 C2107 1.446 . S
N2106 Co2065 2.151 . S
N2106 C2105 1.330 . S
N2106 C2110 1.418 . S
C2107 H2086 0.929 . S
C2107 C2105 1.446 . S
C2107 C2108 1.332 . S
C2108 H2088 0.931 . S
C2108 C2107 1.332 . S
C2108 C2109 1.267 . S
C2109 H2077 0.929 . S
C2109 C2108 1.267 . S
C2109 C2110 1.251 . S
C2110 H2080 0.929 . S
C2110 N2106 1.418 . S
C2110 C2109 1.251 . S
C2111 H2078 0.930 . S
C2111 C2113 1.406 . S
C2111 C2116 1.261 . S
C2112 H2079 0.930 . S
C2112 N2114 1.325 . S
C2112 C2115 1.357 . S
C2113 H2081 0.928 . S
C2113 C2111 1.406 . S
C2113 N2114 1.261 . S
N2114 Co2065 2.214 . S
N2114 C2112 1.325 . S
N2114 C2113 1.261 . S
C2115 H2085 0.931 . S
C2115 C2112 1.357 . S
C2115 C2116 1.312 . S
C2116 H2087 0.930 . S
C2116 C2111 1.261 . S
C2116 C2115 1.312 . S
C2117 O2089 1.214 . S
C2117 O2097 1.234 . S
C2118 H2090 0.929 . S
C2118 C2121 1.391 . S
C2118 C2123 1.391 . S
C2119 H2091 0.929 . S
C2119 C2120 1.390 . S
C2119 N2122 1.391 . S
C2120 H2092 0.930 . S
C2120 C2119 1.390 . S
C2120 C2121 1.392 . S
C2121 H2093 0.929 . S
C2121 C2118 1.391 . S
C2121 C2120 1.392 . S
N2122 Co2066 2.257 . S
N2122 C2119 1.391 . S
N2122 C2123 1.388 . S
C2123 H2094 0.930 . S
C2123 C2118 1.391 . S
C2123 N2122 1.388 . S
C2124 C2125 1.349 . S
C2124 C2126 1.327 . S
C2124 H2149 0.950 . S
C2125 C2124 1.349 . S
C2125 C2141 1.349 . S
C2126 C2124 1.327 . S
C2126 C2145 1.429 . S
C2126 H2150 0.950 . S
C2127 C2144 1.574 1_556 S
C2127 C2146 1.368 . S
C2127 H2151 0.949 . S
H2128 C2132 0.957 . S
C2129 C2130 1.349 . S
C2129 C2131 1.327 . S
C2129 H2152 0.950 . S
C2130 C2129 1.349 . S
C2130 C2142 1.349 . S
C2131 C2129 1.327 . S
C2131 C2147 1.429 . S
C2131 H2153 0.950 . S
C2132 H2128 0.957 . S
C2132 C2140 1.554 1_554 S
C2132 C2148 1.380 . S
H2133 C2141 0.950 . S
H2134 C2139 0.950 . S
H2135 C2140 0.949 . S
H2136 C2142 0.950 . S
H2137 C2143 0.950 . S
H2138 C2144 0.949 . S
C2139 H2134 0.950 . S
C2139 C2141 1.327 . S
C2139 C2145 1.429 . S
C2140 C2132 1.554 1_556 S
C2140 H2135 0.949 . S
C2140 C2146 1.368 . S
C2141 C2125 1.349 . S
C2141 H2133 0.950 . S
C2141 C2139 1.327 . S
C2142 C2130 1.349 . S
C2142 H2136 0.950 . S
C2142 C2143 1.327 . S
C2143 H2137 0.950 . S
C2143 C2142 1.327 . S
C2143 C2147 1.429 . S
C2144 C2127 1.574 1_554 S
C2144 H2138 0.949 . S
C2144 C2148 1.368 . S
C2145 C2126 1.429 . S
C2145 C2139 1.429 . S
C2145 C2146 1.523 . S
C2146 C2127 1.368 . S
C2146 C2140 1.368 . S
C2146 C2145 1.523 . S
C2147 C2131 1.429 . S
C2147 C2143 1.429 . S
C2147 C2148 1.523 . S
C2148 C2132 1.380 . S
C2148 C2144 1.368 . S
C2148 C2147 1.523 . S
H2149 C2124 0.950 . S
H2150 C2126 0.950 . S
H2151 C2127 0.949 . S
H2152 C2129 0.950 . S
H2153 C2131 0.950 . S
C2154 C2155 1.349 . S
C2154 C2156 1.327 . S
C2154 H2179 0.950 . S
C2155 C2154 1.349 . S
C2155 C2171 1.349 . S
C2156 C2154 1.327 . S
C2156 C2175 1.429 . S
C2156 H2180 0.950 . S
C2157 C2174 1.574 1_556 S
C2157 C2176 1.368 . S
C2157 H2181 0.949 . S
H2158 C2162 0.949 . S
C2159 C2160 1.349 . S
C2159 C2161 1.327 . S
C2159 H2182 0.950 . S
C2160 C2159 1.349 . S
C2160 C2172 1.349 . S
C2161 C2159 1.327 . S
C2161 C2177 1.429 . S
C2161 H2183 0.950 . S
C2162 H2158 0.949 . S
C2162 C2170 1.574 1_554 S
C2162 C2178 1.368 . S
H2163 C2171 0.950 . S
H2164 C2169 0.950 . S
H2165 C2170 0.949 . S
H2166 C2172 0.950 . S
H2167 C2173 0.950 . S
H2168 C2174 0.949 . S
C2169 H2164 0.950 . S
C2169 C2171 1.327 . S
C2169 C2175 1.429 . S
C2170 C2162 1.574 1_556 S
C2170 H2165 0.949 . S
C2170 C2176 1.368 . S
C2171 C2155 1.349 . S
C2171 H2163 0.950 . S
C2171 C2169 1.327 . S
C2172 C2160 1.349 . S
C2172 H2166 0.950 . S
C2172 C2173 1.327 . S
C2173 H2167 0.950 . S
C2173 C2172 1.327 . S
C2173 C2177 1.429 . S
C2174 C2157 1.574 1_554 S
C2174 H2168 0.949 . S
C2174 C2178 1.368 . S
C2175 C2156 1.429 . S
C2175 C2169 1.429 . S
C2175 C2176 1.523 . S
C2176 C2157 1.368 . S
C2176 C2170 1.368 . S
C2176 C2175 1.523 . S
C2177 C2161 1.429 . S
C2177 C2173 1.429 . S
C2177 C2178 1.523 . S
C2178 C2162 1.368 . S
C2178 C2174 1.368 . S
C2178 C2177 1.523 . S
H2179 C2154 0.950 . S
H2180 C2156 0.950 . S
H2181 C2157 0.949 . S
H2182 C2159 0.950 . S
H2183 C2161 0.950 . S
C2184 C2185 1.349 . S
C2184 C2186 1.327 . S
C2184 H2209 0.950 . S
C2185 C2184 1.349 . S
C2185 C2201 1.349 . S
C2186 C2184 1.327 . S
C2186 C2205 1.429 . S
C2186 H2210 0.950 . S
C2187 C2204 1.574 1_554 S
C2187 C2206 1.368 . S
C2187 H2211 0.949 . S
H2188 C2192 0.949 . S
C2189 C2190 1.349 . S
C2189 C2191 1.327 . S
C2189 H2212 0.950 . S
C2190 C2189 1.349 . S
C2190 C2202 1.349 . S
C2191 C2189 1.327 . S
C2191 C2207 1.429 . S
C2191 H2213 0.950 . S
C2192 H2188 0.949 . S
C2192 C2200 1.574 1_556 S
C2192 C2208 1.368 . S
H2193 C2201 0.950 . S
H2194 C2199 0.950 . S
H2195 C2200 0.949 . S
H2196 C2202 0.950 . S
H2197 C2203 0.950 . S
H2198 C2204 0.949 . S
C2199 H2194 0.950 . S
C2199 C2201 1.327 . S
C2199 C2205 1.429 . S
C2200 C2192 1.574 1_554 S
C2200 H2195 0.949 . S
C2200 C2206 1.368 . S
C2201 C2185 1.349 . S
C2201 H2193 0.950 . S
C2201 C2199 1.327 . S
C2202 C2190 1.349 . S
C2202 H2196 0.950 . S
C2202 C2203 1.327 . S
C2203 H2197 0.950 . S
C2203 C2202 1.327 . S
C2203 C2207 1.429 . S
C2204 C2187 1.574 1_556 S
C2204 H2198 0.949 . S
C2204 C2208 1.368 . S
C2205 C2186 1.429 . S
C2205 C2199 1.429 . S
C2205 C2206 1.523 . S
C2206 C2187 1.368 . S
C2206 C2200 1.368 . S
C2206 C2205 1.523 . S
C2207 C2191 1.429 . S
C2207 C2203 1.429 . S
C2207 C2208 1.523 . S
C2208 C2192 1.368 . S
C2208 C2204 1.368 . S
C2208 C2207 1.523 . S
H2209 C2184 0.950 . S
H2210 C2186 0.950 . S
H2211 C2187 0.949 . S
H2212 C2189 0.950 . S
H2213 C2191 0.950 . S
C2214 C2215 1.349 . S
C2214 C2216 1.327 . S
C2214 H2239 0.950 . S
C2215 C2214 1.349 . S
C2215 C2231 1.349 . S
C2216 C2214 1.327 . S
C2216 C2235 1.429 . S
C2216 H2240 0.950 . S
C2217 C2234 1.574 . S
C2217 C2236 1.368 . S
C2217 H2241 0.949 . S
H2218 C2222 0.949 . S
C2219 C2220 1.349 . S
C2219 C2221 1.327 . S
C2219 H2242 0.950 . S
C2220 C2219 1.349 . S
C2220 C2232 1.349 . S
C2221 C2219 1.327 . S
C2221 C2237 1.429 . S
C2221 H2243 0.950 . S
C2222 H2218 0.949 . S
C2222 C2230 1.574 . S
C2222 C2238 1.368 . S
H2223 C2231 0.950 . S
H2224 C2229 0.950 . S
H2225 C2230 0.949 . S
H2226 C2232 0.950 . S
H2227 C2233 0.950 . S
H2228 C2234 0.949 . S
C2229 H2224 0.950 . S
C2229 C2231 1.327 . S
C2229 C2235 1.429 . S
C2230 C2222 1.574 . S
C2230 H2225 0.949 . S
C2230 C2236 1.368 . S
C2231 C2215 1.349 . S
C2231 H2223 0.950 . S
C2231 C2229 1.327 . S
C2232 C2220 1.349 . S
C2232 H2226 0.950 . S
C2232 C2233 1.327 . S
C2233 H2227 0.950 . S
C2233 C2232 1.327 . S
C2233 C2237 1.429 . S
C2234 C2217 1.574 . S
C2234 H2228 0.949 . S
C2234 C2238 1.368 . S
C2235 C2216 1.429 . S
C2235 C2229 1.429 . S
C2235 C2236 1.523 . S
C2236 C2217 1.368 . S
C2236 C2230 1.368 . S
C2236 C2235 1.523 . S
C2237 C2221 1.429 . S
C2237 C2233 1.429 . S
C2237 C2238 1.523 . S
C2238 C2222 1.368 . S
C2238 C2234 1.368 . S
C2238 C2237 1.523 . S
H2239 C2214 0.950 . S
H2240 C2216 0.950 . S
H2241 C2217 0.949 . S
H2242 C2219 0.950 . S
H2243 C2221 0.950 . S
C2244 C2245 1.349 . S
C2244 C2246 1.327 . S
C2244 H2269 0.950 . S
C2245 C2244 1.349 . S
C2245 C2261 1.349 . S
C2246 C2244 1.327 . S
C2246 C2265 1.429 . S
C2246 H2270 0.950 . S
C2247 C2264 1.574 . S
C2247 C2266 1.368 . S
C2247 H2271 0.949 . S
H2248 C2252 0.949 . S
C2249 C2250 1.349 . S
C2249 C2251 1.327 . S
C2249 H2272 0.950 . S
C2250 C2249 1.349 . S
C2250 C2262 1.349 . S
C2251 C2249 1.327 . S
C2251 C2267 1.429 . S
C2251 H2273 0.950 . S
C2252 H2248 0.949 . S
C2252 C2260 1.574 . S
C2252 C2268 1.368 . S
H2253 C2261 0.950 . S
H2254 C2259 0.950 . S
H2255 C2260 0.949 . S
H2256 C2262 0.950 . S
H2257 C2263 0.950 . S
H2258 C2264 0.949 . S
C2259 H2254 0.950 . S
C2259 C2261 1.327 . S
C2259 C2265 1.429 . S
C2260 C2252 1.574 . S
C2260 H2255 0.949 . S
C2260 C2266 1.368 . S
C2261 C2245 1.349 . S
C2261 H2253 0.950 . S
C2261 C2259 1.327 . S
C2262 C2250 1.349 . S
C2262 H2256 0.950 . S
C2262 C2263 1.327 . S
C2263 H2257 0.950 . S
C2263 C2262 1.327 . S
C2263 C2267 1.429 . S
C2264 C2247 1.574 . S
C2264 H2258 0.949 . S
C2264 C2268 1.368 . S
C2265 C2246 1.429 . S
C2265 C2259 1.429 . S
C2265 C2266 1.523 . S
C2266 C2247 1.368 . S
C2266 C2260 1.368 . S
C2266 C2265 1.523 . S
C2267 C2251 1.429 . S
C2267 C2263 1.429 . S
C2267 C2268 1.523 . S
C2268 C2252 1.368 . S
C2268 C2264 1.368 . S
C2268 C2267 1.523 . S
H2269 C2244 0.950 . S
H2270 C2246 0.950 . S
H2271 C2247 0.949 . S
H2272 C2249 0.950 . S
H2273 C2251 0.950 . S
C2274 C2275 1.349 . S
C2274 C2276 1.327 . S
C2274 H2299 0.950 . S
C2275 C2274 1.349 . S
C2275 C2291 1.349 . S
C2276 C2274 1.327 . S
C2276 C2295 1.429 . S
C2276 H2300 0.950 . S
C2277 C2294 1.574 . S
C2277 C2296 1.368 . S
C2277 H2301 0.949 . S
H2278 C2282 0.949 . S
C2279 C2280 1.349 . S
C2279 C2281 1.327 . S
C2279 H2302 0.950 . S
C2280 C2279 1.349 . S
C2280 C2292 1.349 . S
C2281 C2279 1.327 . S
C2281 C2297 1.429 . S
C2281 H2303 0.950 . S
C2282 H2278 0.949 . S
C2282 C2290 1.574 . S
C2282 C2298 1.368 . S
H2283 C2291 0.950 . S
H2284 C2289 0.950 . S
H2285 C2290 0.949 . S
H2286 C2292 0.950 . S
H2287 C2293 0.950 . S
H2288 C2294 0.949 . S
C2289 H2284 0.950 . S
C2289 C2291 1.327 . S
C2289 C2295 1.429 . S
C2290 C2282 1.574 . S
C2290 H2285 0.949 . S
C2290 C2296 1.368 . S
C2291 C2275 1.349 . S
C2291 H2283 0.950 . S
C2291 C2289 1.327 . S
C2292 C2280 1.349 . S
C2292 H2286 0.950 . S
C2292 C2293 1.327 . S
C2293 H2287 0.950 . S
C2293 C2292 1.327 . S
C2293 C2297 1.429 . S
C2294 C2277 1.574 . S
C2294 H2288 0.949 . S
C2294 C2298 1.368 . S
C2295 C2276 1.429 . S
C2295 C2289 1.429 . S
C2295 C2296 1.523 . S
C2296 C2277 1.368 . S
C2296 C2290 1.368 . S
C2296 C2295 1.523 . S
C2297 C2281 1.429 . S
C2297 C2293 1.429 . S
C2297 C2298 1.523 . S
C2298 C2282 1.368 . S
C2298 C2294 1.368 . S
C2298 C2297 1.523 . S
H2299 C2274 0.950 . S
H2300 C2276 0.950 . S
H2301 C2277 0.949 . S
H2302 C2279 0.950 . S
H2303 C2281 0.950 . S
C2304 C2305 1.349 . S
C2304 C2306 1.327 . S
C2304 H2329 0.950 . S
C2305 C2304 1.349 . S
C2305 C2321 1.349 . S
C2306 C2304 1.327 . S
C2306 C2325 1.429 . S
C2306 H2330 0.950 . S
C2307 C2324 1.574 1_554 S
C2307 C2326 1.368 . S
C2307 H2331 0.949 . S
H2308 C2312 0.949 . S
C2309 C2310 1.349 . S
C2309 C2311 1.327 . S
C2309 H2332 0.950 . S
C2310 C2309 1.349 . S
C2310 C2322 1.349 . S
C2311 C2309 1.327 . S
C2311 C2327 1.429 . S
C2311 H2333 0.950 . S
C2312 H2308 0.949 . S
C2312 C2320 1.574 1_556 S
C2312 C2328 1.368 . S
H2313 C2321 0.950 . S
H2314 C2319 0.950 . S
H2315 C2320 0.949 . S
H2316 C2322 0.950 . S
H2317 C2323 0.950 . S
H2318 C2324 0.949 . S
C2319 H2314 0.950 . S
C2319 C2321 1.327 . S
C2319 C2325 1.429 . S
C2320 C2312 1.574 1_554 S
C2320 H2315 0.949 . S
C2320 C2326 1.368 . S
C2321 C2305 1.349 . S
C2321 H2313 0.950 . S
C2321 C2319 1.327 . S
C2322 C2310 1.349 . S
C2322 H2316 0.950 . S
C2322 C2323 1.327 . S
C2323 H2317 0.950 . S
C2323 C2322 1.327 . S
C2323 C2327 1.429 . S
C2324 C2307 1.574 1_556 S
C2324 H2318 0.949 . S
C2324 C2328 1.368 . S
C2325 C2306 1.429 . S
C2325 C2319 1.429 . S
C2325 C2326 1.523 . S
C2326 C2307 1.368 . S
C2326 C2320 1.368 . S
C2326 C2325 1.523 . S
C2327 C2311 1.429 . S
C2327 C2323 1.429 . S
C2327 C2328 1.523 . S
C2328 C2312 1.368 . S
C2328 C2324 1.368 . S
C2328 C2327 1.523 . S
H2329 C2304 0.950 . S
H2330 C2306 0.950 . S
H2331 C2307 0.949 . S
H2332 C2309 0.950 . S
H2333 C2311 0.950 . S
C2334 C2335 1.349 . S
C2334 C2336 1.327 . S
C2334 H2359 0.950 . S
C2335 C2334 1.349 . S
C2335 C2351 1.349 . S
C2336 C2334 1.327 . S
C2336 C2355 1.429 . S
C2336 H2360 0.950 . S
C2337 C2354 1.574 1_554 S
C2337 C2356 1.368 . S
C2337 H2361 0.949 . S
H2338 C2342 0.960 . S
C2339 C2340 1.349 . S
C2339 C2341 1.327 . S
C2339 H2362 0.950 . S
C2340 C2339 1.349 . S
C2340 C2352 1.349 . S
C2341 C2339 1.327 . S
C2341 C2357 1.429 . S
C2341 H2363 0.950 . S
C2342 H2338 0.960 . S
C2342 C2350 1.545 1_556 S
C2342 C2358 1.385 . S
H2343 C2351 0.950 . S
H2344 C2349 0.950 . S
H2345 C2350 0.949 . S
H2346 C2352 0.950 . S
H2347 C2353 0.950 . S
H2348 C2354 0.949 . S
C2349 H2344 0.950 . S
C2349 C2351 1.327 . S
C2349 C2355 1.429 . S
C2350 C2342 1.545 1_554 S
C2350 H2345 0.949 . S
C2350 C2356 1.368 . S
C2351 C2335 1.349 . S
C2351 H2343 0.950 . S
C2351 C2349 1.327 . S
C2352 C2340 1.349 . S
C2352 H2346 0.950 . S
C2352 C2353 1.327 . S
C2353 H2347 0.950 . S
C2353 C2352 1.327 . S
C2353 C2357 1.429 . S
C2354 C2337 1.574 1_556 S
C2354 H2348 0.949 . S
C2354 C2358 1.368 . S
C2355 C2336 1.429 . S
C2355 C2349 1.429 . S
C2355 C2356 1.523 . S
C2356 C2337 1.368 . S
C2356 C2350 1.368 . S
C2356 C2355 1.523 . S
C2357 C2341 1.429 . S
C2357 C2353 1.429 . S
C2357 C2358 1.523 . S
C2358 C2342 1.385 . S
C2358 C2354 1.368 . S
C2358 C2357 1.523 . S
H2359 C2334 0.950 . S
H2360 C2336 0.950 . S
H2361 C2337 0.949 . S
H2362 C2339 0.950 . S
H2363 C2341 0.950 . S
C2364 C2365 1.349 . S
C2364 C2366 1.327 . S
C2364 H2389 0.950 . S
C2365 C2364 1.349 . S
C2365 C2381 1.349 . S
C2366 C2364 1.327 . S
C2366 C2385 1.429 . S
C2366 H2390 0.950 . S
C2367 C2384 1.574 1_556 S
C2367 C2386 1.368 . S
C2367 H2391 0.949 . S
H2368 C2372 0.949 . S
C2369 C2370 1.349 . S
C2369 C2371 1.327 . S
C2369 H2392 0.950 . S
C2370 C2369 1.349 . S
C2370 C2382 1.349 . S
C2371 C2369 1.327 . S
C2371 C2387 1.429 . S
C2371 H2393 0.950 . S
C2372 H2368 0.949 . S
C2372 C2380 1.574 1_554 S
C2372 C2388 1.368 . S
H2373 C2381 0.950 . S
H2374 C2379 0.950 . S
H2375 C2380 0.949 . S
H2376 C2382 0.950 . S
H2377 C2383 0.950 . S
H2378 C2384 0.949 . S
C2379 H2374 0.950 . S
C2379 C2381 1.327 . S
C2379 C2385 1.429 . S
C2380 C2372 1.574 1_556 S
C2380 H2375 0.949 . S
C2380 C2386 1.368 . S
C2381 C2365 1.349 . S
C2381 H2373 0.950 . S
C2381 C2379 1.327 . S
C2382 C2370 1.349 . S
C2382 H2376 0.950 . S
C2382 C2383 1.327 . S
C2383 H2377 0.950 . S
C2383 C2382 1.327 . S
C2383 C2387 1.429 . S
C2384 C2367 1.574 1_554 S
C2384 H2378 0.949 . S
C2384 C2388 1.368 . S
C2385 C2366 1.429 . S
C2385 C2379 1.429 . S
C2385 C2386 1.523 . S
C2386 C2367 1.368 . S
C2386 C2380 1.368 . S
C2386 C2385 1.523 . S
C2387 C2371 1.429 . S
C2387 C2383 1.429 . S
C2387 C2388 1.523 . S
C2388 C2372 1.368 . S
C2388 C2384 1.368 . S
C2388 C2387 1.523 . S
H2389 C2364 0.950 . S
H2390 C2366 0.950 . S
H2391 C2367 0.949 . S
H2392 C2369 0.950 . S
H2393 C2371 0.950 . S
C2394 C2395 1.349 . S
C2394 C2396 1.327 . S
C2394 H2419 0.950 . S
C2395 C2394 1.349 . S
C2395 C2411 1.349 . S
C2396 C2394 1.327 . S
C2396 C2415 1.429 . S
C2396 H2420 0.950 . S
C2397 C2414 1.574 . S
C2397 C2416 1.368 . S
C2397 H2421 0.949 . S
H2398 C2402 0.949 . S
C2399 C2400 1.349 . S
C2399 C2401 1.327 . S
C2399 H2422 0.950 . S
C2400 C2399 1.349 . S
C2400 C2412 1.349 . S
C2401 C2399 1.327 . S
C2401 C2417 1.429 . S
C2401 H2423 0.950 . S
C2402 H2398 0.949 . S
C2402 C2410 1.574 . S
C2402 C2418 1.368 . S
H2403 C2411 0.950 . S
H2404 C2409 0.950 . S
H2405 C2410 0.949 . S
H2406 C2412 0.950 . S
H2407 C2413 0.950 . S
H2408 C2414 0.949 . S
C2409 H2404 0.950 . S
C2409 C2411 1.327 . S
C2409 C2415 1.429 . S
C2410 C2402 1.574 . S
C2410 H2405 0.949 . S
C2410 C2416 1.368 . S
C2411 C2395 1.349 . S
C2411 H2403 0.950 . S
C2411 C2409 1.327 . S
C2412 C2400 1.349 . S
C2412 H2406 0.950 . S
C2412 C2413 1.327 . S
C2413 H2407 0.950 . S
C2413 C2412 1.327 . S
C2413 C2417 1.429 . S
C2414 C2397 1.574 . S
C2414 H2408 0.949 . S
C2414 C2418 1.368 . S
C2415 C2396 1.429 . S
C2415 C2409 1.429 . S
C2415 C2416 1.523 . S
C2416 C2397 1.368 . S
C2416 C2410 1.368 . S
C2416 C2415 1.523 . S
C2417 C2401 1.429 . S
C2417 C2413 1.429 . S
C2417 C2418 1.523 . S
C2418 C2402 1.368 . S
C2418 C2414 1.368 . S
C2418 C2417 1.523 . S
H2419 C2394 0.950 . S
H2420 C2396 0.950 . S
H2421 C2397 0.949 . S
H2422 C2399 0.950 . S
H2423 C2401 0.950 . S
C2424 C2425 1.349 . S
C2424 C2426 1.327 . S
C2424 H2449 0.950 . S
C2425 C2424 1.349 . S
C2425 C2441 1.349 . S
C2426 C2424 1.327 . S
C2426 C2445 1.429 . S
C2426 H2450 0.950 . S
C2427 C2444 1.574 . S
C2427 C2446 1.368 . S
C2427 H2451 0.949 . S
H2428 C2432 0.949 . S
C2429 C2430 1.349 . S
C2429 C2431 1.327 . S
C2429 H2452 0.950 . S
C2430 C2429 1.349 . S
C2430 C2442 1.349 . S
C2431 C2429 1.327 . S
C2431 C2447 1.429 . S
C2431 H2453 0.950 . S
C2432 H2428 0.949 . S
C2432 C2440 1.574 . S
C2432 C2448 1.368 . S
H2433 C2441 0.950 . S
H2434 C2439 0.950 . S
H2435 C2440 0.949 . S
H2436 C2442 0.950 . S
H2437 C2443 0.950 . S
H2438 C2444 0.949 . S
C2439 H2434 0.950 . S
C2439 C2441 1.327 . S
C2439 C2445 1.429 . S
C2440 C2432 1.574 . S
C2440 H2435 0.949 . S
C2440 C2446 1.368 . S
C2441 C2425 1.349 . S
C2441 H2433 0.950 . S
C2441 C2439 1.327 . S
C2442 C2430 1.349 . S
C2442 H2436 0.950 . S
C2442 C2443 1.327 . S
C2443 H2437 0.950 . S
C2443 C2442 1.327 . S
C2443 C2447 1.429 . S
C2444 C2427 1.574 . S
C2444 H2438 0.949 . S
C2444 C2448 1.368 . S
C2445 C2426 1.429 . S
C2445 C2439 1.429 . S
C2445 C2446 1.523 . S
C2446 C2427 1.368 . S
C2446 C2440 1.368 . S
C2446 C2445 1.523 . S
C2447 C2431 1.429 . S
C2447 C2443 1.429 . S
C2447 C2448 1.523 . S
C2448 C2432 1.368 . S
C2448 C2444 1.368 . S
C2448 C2447 1.523 . S
H2449 C2424 0.950 . S
H2450 C2426 0.950 . S
H2451 C2427 0.949 . S
H2452 C2429 0.950 . S
H2453 C2431 0.950 . S
C2454 C2455 1.349 . S
C2454 C2456 1.327 . S
C2454 H2479 0.950 . S
C2455 C2454 1.349 . S
C2455 C2471 1.349 . S
C2456 C2454 1.327 . S
C2456 C2475 1.429 . S
C2456 H2480 0.950 . S
C2457 C2474 1.574 . S
C2457 C2476 1.368 . S
C2457 H2481 0.949 . S
H2458 C2462 0.949 . S
C2459 C2460 1.349 . S
C2459 C2461 1.327 . S
C2459 H2482 0.950 . S
C2460 C2459 1.349 . S
C2460 C2472 1.349 . S
C2461 C2459 1.327 . S
C2461 C2477 1.429 . S
C2461 H2483 0.950 . S
C2462 H2458 0.949 . S
C2462 C2470 1.574 . S
C2462 C2478 1.368 . S
H2463 C2471 0.950 . S
H2464 C2469 0.950 . S
H2465 C2470 0.949 . S
H2466 C2472 0.950 . S
H2467 C2473 0.950 . S
H2468 C2474 0.949 . S
C2469 H2464 0.950 . S
C2469 C2471 1.327 . S
C2469 C2475 1.429 . S
C2470 C2462 1.574 . S
C2470 H2465 0.949 . S
C2470 C2476 1.368 . S
C2471 C2455 1.349 . S
C2471 H2463 0.950 . S
C2471 C2469 1.327 . S
C2472 C2460 1.349 . S
C2472 H2466 0.950 . S
C2472 C2473 1.327 . S
C2473 H2467 0.950 . S
C2473 C2472 1.327 . S
C2473 C2477 1.429 . S
C2474 C2457 1.574 . S
C2474 H2468 0.949 . S
C2474 C2478 1.368 . S
C2475 C2456 1.429 . S
C2475 C2469 1.429 . S
C2475 C2476 1.523 . S
C2476 C2457 1.368 . S
C2476 C2470 1.368 . S
C2476 C2475 1.523 . S
C2477 C2461 1.429 . S
C2477 C2473 1.429 . S
C2477 C2478 1.523 . S
C2478 C2462 1.368 . S
C2478 C2474 1.368 . S
C2478 C2477 1.523 . S
H2479 C2454 0.950 . S
H2480 C2456 0.950 . S
H2481 C2457 0.949 . S
H2482 C2459 0.950 . S
H2483 C2461 0.950 . S
C2484 C2485 1.349 . S
C2484 C2486 1.327 . S
C2484 H2509 0.950 . S
C2485 C2484 1.349 . S
C2485 C2501 1.349 . S
C2486 C2484 1.327 . S
C2486 C2505 1.429 . S
C2486 H2510 0.950 . S
C2487 C2504 1.574 . S
C2487 C2506 1.368 . S
C2487 H2511 0.949 . S
H2488 C2492 0.949 . S
C2489 C2490 1.349 . S
C2489 C2491 1.327 . S
C2489 H2512 0.950 . S
C2490 C2489 1.349 . S
C2490 C2502 1.349 . S
C2491 C2489 1.327 . S
C2491 C2507 1.429 . S
C2491 H2513 0.950 . S
C2492 H2488 0.949 . S
C2492 C2500 1.574 . S
C2492 C2508 1.368 . S
H2493 C2501 0.950 . S
H2494 C2499 0.950 . S
H2495 C2500 0.949 . S
H2496 C2502 0.950 . S
H2497 C2503 0.950 . S
H2498 C2504 0.949 . S
C2499 H2494 0.950 . S
C2499 C2501 1.327 . S
C2499 C2505 1.429 . S
C2500 C2492 1.574 . S
C2500 H2495 0.949 . S
C2500 C2506 1.368 . S
C2501 C2485 1.349 . S
C2501 H2493 0.950 . S
C2501 C2499 1.327 . S
C2502 C2490 1.349 . S
C2502 H2496 0.950 . S
C2502 C2503 1.327 . S
C2503 H2497 0.950 . S
C2503 C2502 1.327 . S
C2503 C2507 1.429 . S
C2504 C2487 1.574 . S
C2504 H2498 0.949 . S
C2504 C2508 1.368 . S
C2505 C2486 1.429 . S
C2505 C2499 1.429 . S
C2505 C2506 1.523 . S
C2506 C2487 1.368 . S
C2506 C2500 1.368 . S
C2506 C2505 1.523 . S
C2507 C2491 1.429 . S
C2507 C2503 1.429 . S
C2507 C2508 1.523 . S
C2508 C2492 1.368 . S
C2508 C2504 1.368 . S
C2508 C2507 1.523 . S
H2509 C2484 0.950 . S
H2510 C2486 0.950 . S
H2511 C2487 0.949 . S
H2512 C2489 0.950 . S
H2513 C2491 0.950 . S
C2514 C2515 1.349 . S
C2514 C2516 1.327 . S
C2514 H2539 0.950 . S
C2515 C2514 1.349 . S
C2515 C2531 1.349 . S
C2516 C2514 1.327 . S
C2516 C2535 1.429 . S
C2516 H2540 0.950 . S
C2517 C2534 1.574 . S
C2517 C2536 1.368 . S
C2517 H2541 0.949 . S
H2518 C2522 0.949 . S
C2519 C2520 1.349 . S
C2519 C2521 1.327 . S
C2519 H2542 0.950 . S
C2520 C2519 1.349 . S
C2520 C2532 1.349 . S
C2521 C2519 1.327 . S
C2521 C2537 1.429 . S
C2521 H2543 0.950 . S
C2522 H2518 0.949 . S
C2522 C2530 1.574 . S
C2522 C2538 1.368 . S
H2523 C2531 0.950 . S
H2524 C2529 0.950 . S
H2525 C2530 0.949 . S
H2526 C2532 0.950 . S
H2527 C2533 0.950 . S
H2528 C2534 0.949 . S
C2529 H2524 0.950 . S
C2529 C2531 1.327 . S
C2529 C2535 1.429 . S
C2530 C2522 1.574 . S
C2530 H2525 0.949 . S
C2530 C2536 1.368 . S
C2531 C2515 1.349 . S
C2531 H2523 0.950 . S
C2531 C2529 1.327 . S
C2532 C2520 1.349 . S
C2532 H2526 0.950 . S
C2532 C2533 1.327 . S
C2533 H2527 0.950 . S
C2533 C2532 1.327 . S
C2533 C2537 1.429 . S
C2534 C2517 1.574 . S
C2534 H2528 0.949 . S
C2534 C2538 1.368 . S
C2535 C2516 1.429 . S
C2535 C2529 1.429 . S
C2535 C2536 1.523 . S
C2536 C2517 1.368 . S
C2536 C2530 1.368 . S
C2536 C2535 1.523 . S
C2537 C2521 1.429 . S
C2537 C2533 1.429 . S
C2537 C2538 1.523 . S
C2538 C2522 1.368 . S
C2538 C2534 1.368 . S
C2538 C2537 1.523 . S
H2539 C2514 0.950 . S
H2540 C2516 0.950 . S
H2541 C2517 0.949 . S
H2542 C2519 0.950 . S
H2543 C2521 0.950 . S
C2544 C2545 1.349 . S
C2544 C2546 1.327 . S
C2544 H2569 0.950 . S
C2545 C2544 1.349 . S
C2545 C2561 1.349 . S
C2546 C2544 1.327 . S
C2546 C2565 1.429 . S
C2546 H2570 0.950 . S
C2547 C2564 1.574 . S
C2547 C2566 1.368 . S
C2547 H2571 0.949 . S
H2548 C2552 0.949 . S
C2549 C2550 1.349 . S
C2549 C2551 1.327 . S
C2549 H2572 0.950 . S
C2550 C2549 1.349 . S
C2550 C2562 1.349 . S
C2551 C2549 1.327 . S
C2551 C2567 1.429 . S
C2551 H2573 0.950 . S
C2552 H2548 0.949 . S
C2552 C2560 1.574 . S
C2552 C2568 1.368 . S
H2553 C2561 0.950 . S
H2554 C2559 0.950 . S
H2555 C2560 0.949 . S
H2556 C2562 0.950 . S
H2557 C2563 0.950 . S
H2558 C2564 0.949 . S
C2559 H2554 0.950 . S
C2559 C2561 1.327 . S
C2559 C2565 1.429 . S
C2560 C2552 1.574 . S
C2560 H2555 0.949 . S
C2560 C2566 1.368 . S
C2561 C2545 1.349 . S
C2561 H2553 0.950 . S
C2561 C2559 1.327 . S
C2562 C2550 1.349 . S
C2562 H2556 0.950 . S
C2562 C2563 1.327 . S
C2563 H2557 0.950 . S
C2563 C2562 1.327 . S
C2563 C2567 1.429 . S
C2564 C2547 1.574 . S
C2564 H2558 0.949 . S
C2564 C2568 1.368 . S
C2565 C2546 1.429 . S
C2565 C2559 1.429 . S
C2565 C2566 1.523 . S
C2566 C2547 1.368 . S
C2566 C2560 1.368 . S
C2566 C2565 1.523 . S
C2567 C2551 1.429 . S
C2567 C2563 1.429 . S
C2567 C2568 1.523 . S
C2568 C2552 1.368 . S
C2568 C2564 1.368 . S
C2568 C2567 1.523 . S
H2569 C2544 0.950 . S
H2570 C2546 0.950 . S
H2571 C2547 0.949 . S
H2572 C2549 0.950 . S
H2573 C2551 0.950 . S
C2574 C2575 1.349 . S
C2574 C2576 1.327 . S
C2574 H2599 0.950 . S
C2575 C2574 1.349 . S
C2575 C2591 1.349 . S
C2576 C2574 1.327 . S
C2576 C2595 1.429 . S
C2576 H2600 0.950 . S
C2577 C2594 1.574 . S
C2577 C2596 1.368 . S
C2577 H2601 0.949 . S
H2578 C2582 0.949 . S
C2579 C2580 1.349 . S
C2579 C2581 1.327 . S
C2579 H2602 0.950 . S
C2580 C2579 1.349 . S
C2580 C2592 1.349 . S
C2581 C2579 1.327 . S
C2581 C2597 1.429 . S
C2581 H2603 0.950 . S
C2582 H2578 0.949 . S
C2582 C2590 1.574 . S
C2582 C2598 1.368 . S
H2583 C2591 0.950 . S
H2584 C2589 0.950 . S
H2585 C2590 0.949 . S
H2586 C2592 0.950 . S
H2587 C2593 0.950 . S
H2588 C2594 0.949 . S
C2589 H2584 0.950 . S
C2589 C2591 1.327 . S
C2589 C2595 1.429 . S
C2590 C2582 1.574 . S
C2590 H2585 0.949 . S
C2590 C2596 1.368 . S
C2591 C2575 1.349 . S
C2591 H2583 0.950 . S
C2591 C2589 1.327 . S
C2592 C2580 1.349 . S
C2592 H2586 0.950 . S
C2592 C2593 1.327 . S
C2593 H2587 0.950 . S
C2593 C2592 1.327 . S
C2593 C2597 1.429 . S
C2594 C2577 1.574 . S
C2594 H2588 0.949 . S
C2594 C2598 1.368 . S
C2595 C2576 1.429 . S
C2595 C2589 1.429 . S
C2595 C2596 1.523 . S
C2596 C2577 1.368 . S
C2596 C2590 1.368 . S
C2596 C2595 1.523 . S
C2597 C2581 1.429 . S
C2597 C2593 1.429 . S
C2597 C2598 1.523 . S
C2598 C2582 1.368 . S
C2598 C2594 1.368 . S
C2598 C2597 1.523 . S
H2599 C2574 0.950 . S
H2600 C2576 0.950 . S
H2601 C2577 0.949 . S
H2602 C2579 0.950 . S
H2603 C2581 0.950 . S
C2604 C2605 1.349 . S
C2604 C2606 1.327 . S
C2604 H2629 0.950 . S
C2605 C2604 1.349 . S
C2605 C2621 1.349 . S
C2606 C2604 1.327 . S
C2606 C2625 1.429 . S
C2606 H2630 0.950 . S
C2607 C2624 1.574 . S
C2607 C2626 1.368 . S
C2607 H2631 0.949 . S
H2608 C2612 0.949 . S
C2609 C2610 1.349 . S
C2609 C2611 1.327 . S
C2609 H2632 0.950 . S
C2610 C2609 1.349 . S
C2610 C2622 1.349 . S
C2611 C2609 1.327 . S
C2611 C2627 1.429 . S
C2611 H2633 0.950 . S
C2612 H2608 0.949 . S
C2612 C2620 1.574 . S
C2612 C2628 1.368 . S
H2613 C2621 0.950 . S
H2614 C2619 0.950 . S
H2615 C2620 0.949 . S
H2616 C2622 0.950 . S
H2617 C2623 0.950 . S
H2618 C2624 0.949 . S
C2619 H2614 0.950 . S
C2619 C2621 1.327 . S
C2619 C2625 1.429 . S
C2620 C2612 1.574 . S
C2620 H2615 0.949 . S
C2620 C2626 1.368 . S
C2621 C2605 1.349 . S
C2621 H2613 0.950 . S
C2621 C2619 1.327 . S
C2622 C2610 1.349 . S
C2622 H2616 0.950 . S
C2622 C2623 1.327 . S
C2623 H2617 0.950 . S
C2623 C2622 1.327 . S
C2623 C2627 1.429 . S
C2624 C2607 1.574 . S
C2624 H2618 0.949 . S
C2624 C2628 1.368 . S
C2625 C2606 1.429 . S
C2625 C2619 1.429 . S
C2625 C2626 1.523 . S
C2626 C2607 1.368 . S
C2626 C2620 1.368 . S
C2626 C2625 1.523 . S
C2627 C2611 1.429 . S
C2627 C2623 1.429 . S
C2627 C2628 1.523 . S
C2628 C2612 1.368 . S
C2628 C2624 1.368 . S
C2628 C2627 1.523 . S
H2629 C2604 0.950 . S
H2630 C2606 0.950 . S
H2631 C2607 0.949 . S
H2632 C2609 0.950 . S
H2633 C2611 0.950 . S
C2634 C2635 1.349 . S
C2634 C2636 1.327 . S
C2634 H2659 0.950 . S
C2635 C2634 1.349 . S
C2635 C2651 1.349 . S
C2636 C2634 1.327 . S
C2636 C2655 1.429 . S
C2636 H2660 0.950 . S
C2637 C2654 1.574 . S
C2637 C2656 1.368 . S
C2637 H2661 0.949 . S
H2638 C2642 0.949 . S
C2639 C2640 1.349 . S
C2639 C2641 1.327 . S
C2639 H2662 0.950 . S
C2640 C2639 1.349 . S
C2640 C2652 1.349 . S
C2641 C2639 1.327 . S
C2641 C2657 1.429 . S
C2641 H2663 0.950 . S
C2642 H2638 0.949 . S
C2642 C2650 1.574 . S
C2642 C2658 1.368 . S
H2643 C2651 0.950 . S
H2644 C2649 0.950 . S
H2645 C2650 0.949 . S
H2646 C2652 0.950 . S
H2647 C2653 0.950 . S
H2648 C2654 0.949 . S
C2649 H2644 0.950 . S
C2649 C2651 1.327 . S
C2649 C2655 1.429 . S
C2650 C2642 1.574 . S
C2650 H2645 0.949 . S
C2650 C2656 1.368 . S
C2651 C2635 1.349 . S
C2651 H2643 0.950 . S
C2651 C2649 1.327 . S
C2652 C2640 1.349 . S
C2652 H2646 0.950 . S
C2652 C2653 1.327 . S
C2653 H2647 0.950 . S
C2653 C2652 1.327 . S
C2653 C2657 1.429 . S
C2654 C2637 1.574 . S
C2654 H2648 0.949 . S
C2654 C2658 1.368 . S
C2655 C2636 1.429 . S
C2655 C2649 1.429 . S
C2655 C2656 1.523 . S
C2656 C2637 1.368 . S
C2656 C2650 1.368 . S
C2656 C2655 1.523 . S
C2657 C2641 1.429 . S
C2657 C2653 1.429 . S
C2657 C2658 1.523 . S
C2658 C2642 1.368 . S
C2658 C2654 1.368 . S
C2658 C2657 1.523 . S
H2659 C2634 0.950 . S
H2660 C2636 0.950 . S
H2661 C2637 0.949 . S
H2662 C2639 0.950 . S
H2663 C2641 0.950 . S
C2664 C2665 1.349 . S
C2664 C2666 1.327 . S
C2664 H2689 0.950 . S
C2665 C2664 1.349 . S
C2665 C2681 1.349 . S
C2666 C2664 1.327 . S
C2666 C2685 1.429 . S
C2666 H2690 0.950 . S
C2667 C2684 1.574 . S
C2667 C2686 1.368 . S
C2667 H2691 0.949 . S
H2668 C2672 0.949 . S
C2669 C2670 1.349 . S
C2669 C2671 1.327 . S
C2669 H2692 0.950 . S
C2670 C2669 1.349 . S
C2670 C2682 1.349 . S
C2671 C2669 1.327 . S
C2671 C2687 1.429 . S
C2671 H2693 0.950 . S
C2672 H2668 0.949 . S
C2672 C2680 1.574 . S
C2672 C2688 1.368 . S
H2673 C2681 0.950 . S
H2674 C2679 0.950 . S
H2675 C2680 0.949 . S
H2676 C2682 0.950 . S
H2677 C2683 0.950 . S
H2678 C2684 0.949 . S
C2679 H2674 0.950 . S
C2679 C2681 1.327 . S
C2679 C2685 1.429 . S
C2680 C2672 1.574 . S
C2680 H2675 0.949 . S
C2680 C2686 1.368 . S
C2681 C2665 1.349 . S
C2681 H2673 0.950 . S
C2681 C2679 1.327 . S
C2682 C2670 1.349 . S
C2682 H2676 0.950 . S
C2682 C2683 1.327 . S
C2683 H2677 0.950 . S
C2683 C2682 1.327 . S
C2683 C2687 1.429 . S
C2684 C2667 1.574 . S
C2684 H2678 0.949 . S
C2684 C2688 1.368 . S
C2685 C2666 1.429 . S
C2685 C2679 1.429 . S
C2685 C2686 1.523 . S
C2686 C2667 1.368 . S
C2686 C2680 1.368 . S
C2686 C2685 1.523 . S
C2687 C2671 1.429 . S
C2687 C2683 1.429 . S
C2687 C2688 1.523 . S
C2688 C2672 1.368 . S
C2688 C2684 1.368 . S
C2688 C2687 1.523 . S
H2689 C2664 0.950 . S
H2690 C2666 0.950 . S
H2691 C2667 0.949 . S
H2692 C2669 0.950 . S
H2693 C2671 0.950 . S
C2694 C2695 1.349 . S
C2694 C2696 1.327 . S
C2694 H2719 0.950 . S
C2695 C2694 1.349 . S
C2695 C2711 1.349 . S
C2696 C2694 1.327 . S
C2696 C2715 1.429 . S
C2696 H2720 0.950 . S
C2697 C2714 1.574 . S
C2697 C2716 1.368 . S
C2697 H2721 0.949 . S
H2698 C2702 0.949 . S
C2699 C2700 1.349 . S
C2699 C2701 1.327 . S
C2699 H2722 0.950 . S
C2700 C2699 1.349 . S
C2700 C2712 1.349 . S
C2701 C2699 1.327 . S
C2701 C2717 1.429 . S
C2701 H2723 0.950 . S
C2702 H2698 0.949 . S
C2702 C2710 1.574 . S
C2702 C2718 1.368 . S
H2703 C2711 0.950 . S
H2704 C2709 0.950 . S
H2705 C2710 0.949 . S
H2706 C2712 0.950 . S
H2707 C2713 0.950 . S
H2708 C2714 0.949 . S
C2709 H2704 0.950 . S
C2709 C2711 1.327 . S
C2709 C2715 1.429 . S
C2710 C2702 1.574 . S
C2710 H2705 0.949 . S
C2710 C2716 1.368 . S
C2711 C2695 1.349 . S
C2711 H2703 0.950 . S
C2711 C2709 1.327 . S
C2712 C2700 1.349 . S
C2712 H2706 0.950 . S
C2712 C2713 1.327 . S
C2713 H2707 0.950 . S
C2713 C2712 1.327 . S
C2713 C2717 1.429 . S
C2714 C2697 1.574 . S
C2714 H2708 0.949 . S
C2714 C2718 1.368 . S
C2715 C2696 1.429 . S
C2715 C2709 1.429 . S
C2715 C2716 1.523 . S
C2716 C2697 1.368 . S
C2716 C2710 1.368 . S
C2716 C2715 1.523 . S
C2717 C2701 1.429 . S
C2717 C2713 1.429 . S
C2717 C2718 1.523 . S
C2718 C2702 1.368 . S
C2718 C2714 1.368 . S
C2718 C2717 1.523 . S
H2719 C2694 0.950 . S
H2720 C2696 0.950 . S
H2721 C2697 0.949 . S
H2722 C2699 0.950 . S
H2723 C2701 0.950 . S
C2724 C2725 1.349 . S
C2724 C2726 1.327 . S
C2724 H2749 0.950 . S
C2725 C2724 1.349 . S
C2725 C2741 1.349 . S
C2726 C2724 1.327 . S
C2726 C2745 1.429 . S
C2726 H2750 0.950 . S
C2727 C2744 1.574 . S
C2727 C2746 1.368 . S
C2727 H2751 0.949 . S
H2728 C2732 0.949 . S
C2729 C2730 1.349 . S
C2729 C2731 1.327 . S
C2729 H2752 0.950 . S
C2730 C2729 1.349 . S
C2730 C2742 1.349 . S
C2731 C2729 1.327 . S
C2731 C2747 1.429 . S
C2731 H2753 0.950 . S
C2732 H2728 0.949 . S
C2732 C2740 1.574 . S
C2732 C2748 1.368 . S
H2733 C2741 0.950 . S
H2734 C2739 0.950 . S
H2735 C2740 0.949 . S
H2736 C2742 0.950 . S
H2737 C2743 0.950 . S
H2738 C2744 0.949 . S
C2739 H2734 0.950 . S
C2739 C2741 1.327 . S
C2739 C2745 1.429 . S
C2740 C2732 1.574 . S
C2740 H2735 0.949 . S
C2740 C2746 1.368 . S
C2741 C2725 1.349 . S
C2741 H2733 0.950 . S
C2741 C2739 1.327 . S
C2742 C2730 1.349 . S
C2742 H2736 0.950 . S
C2742 C2743 1.327 . S
C2743 H2737 0.950 . S
C2743 C2742 1.327 . S
C2743 C2747 1.429 . S
C2744 C2727 1.574 . S
C2744 H2738 0.949 . S
C2744 C2748 1.368 . S
C2745 C2726 1.429 . S
C2745 C2739 1.429 . S
C2745 C2746 1.523 . S
C2746 C2727 1.368 . S
C2746 C2740 1.368 . S
C2746 C2745 1.523 . S
C2747 C2731 1.429 . S
C2747 C2743 1.429 . S
C2747 C2748 1.523 . S
C2748 C2732 1.368 . S
C2748 C2744 1.368 . S
C2748 C2747 1.523 . S
H2749 C2724 0.950 . S
H2750 C2726 0.950 . S
H2751 C2727 0.949 . S
H2752 C2729 0.950 . S
H2753 C2731 0.950 . S
C2754 C2755 1.349 . S
C2754 C2756 1.327 . S
C2754 H2779 0.950 . S
C2755 C2754 1.349 . S
C2755 C2771 1.349 . S
C2756 C2754 1.327 . S
C2756 C2775 1.429 . S
C2756 H2780 0.950 . S
C2757 C2774 1.574 . S
C2757 C2776 1.368 . S
C2757 H2781 0.949 . S
H2758 C2762 0.949 . S
C2759 C2760 1.349 . S
C2759 C2761 1.327 . S
C2759 H2782 0.950 . S
C2760 C2759 1.349 . S
C2760 C2772 1.349 . S
C2761 C2759 1.327 . S
C2761 C2777 1.429 . S
C2761 H2783 0.950 . S
C2762 H2758 0.949 . S
C2762 C2770 1.574 . S
C2762 C2778 1.368 . S
H2763 C2771 0.950 . S
H2764 C2769 0.950 . S
H2765 C2770 0.949 . S
H2766 C2772 0.950 . S
H2767 C2773 0.950 . S
H2768 C2774 0.949 . S
C2769 H2764 0.950 . S
C2769 C2771 1.327 . S
C2769 C2775 1.429 . S
C2770 C2762 1.574 . S
C2770 H2765 0.949 . S
C2770 C2776 1.368 . S
C2771 C2755 1.349 . S
C2771 H2763 0.950 . S
C2771 C2769 1.327 . S
C2772 C2760 1.349 . S
C2772 H2766 0.950 . S
C2772 C2773 1.327 . S
C2773 H2767 0.950 . S
C2773 C2772 1.327 . S
C2773 C2777 1.429 . S
C2774 C2757 1.574 . S
C2774 H2768 0.949 . S
C2774 C2778 1.368 . S
C2775 C2756 1.429 . S
C2775 C2769 1.429 . S
C2775 C2776 1.523 . S
C2776 C2757 1.368 . S
C2776 C2770 1.368 . S
C2776 C2775 1.523 . S
C2777 C2761 1.429 . S
C2777 C2773 1.429 . S
C2777 C2778 1.523 . S
C2778 C2762 1.368 . S
C2778 C2774 1.368 . S
C2778 C2777 1.523 . S
H2779 C2754 0.950 . S
H2780 C2756 0.950 . S
H2781 C2757 0.949 . S
H2782 C2759 0.950 . S
H2783 C2761 0.950 . S
C2784 C2785 1.349 . S
C2784 C2786 1.327 . S
C2784 H2809 0.950 . S
C2785 C2784 1.349 . S
C2785 C2801 1.349 . S
C2786 C2784 1.327 . S
C2786 C2805 1.429 . S
C2786 H2810 0.950 . S
C2787 C2804 1.574 . S
C2787 C2806 1.368 . S
C2787 H2811 0.949 . S
H2788 C2792 0.949 . S
C2789 C2790 1.349 . S
C2789 C2791 1.327 . S
C2789 H2812 0.950 . S
C2790 C2789 1.349 . S
C2790 C2802 1.349 . S
C2791 C2789 1.327 . S
C2791 C2807 1.429 . S
C2791 H2813 0.950 . S
C2792 H2788 0.949 . S
C2792 C2800 1.574 . S
C2792 C2808 1.368 . S
H2793 C2801 0.950 . S
H2794 C2799 0.950 . S
H2795 C2800 0.949 . S
H2796 C2802 0.950 . S
H2797 C2803 0.950 . S
H2798 C2804 0.949 . S
C2799 H2794 0.950 . S
C2799 C2801 1.327 . S
C2799 C2805 1.429 . S
C2800 C2792 1.574 . S
C2800 H2795 0.949 . S
C2800 C2806 1.368 . S
C2801 C2785 1.349 . S
C2801 H2793 0.950 . S
C2801 C2799 1.327 . S
C2802 C2790 1.349 . S
C2802 H2796 0.950 . S
C2802 C2803 1.327 . S
C2803 H2797 0.950 . S
C2803 C2802 1.327 . S
C2803 C2807 1.429 . S
C2804 C2787 1.574 . S
C2804 H2798 0.949 . S
C2804 C2808 1.368 . S
C2805 C2786 1.429 . S
C2805 C2799 1.429 . S
C2805 C2806 1.523 . S
C2806 C2787 1.368 . S
C2806 C2800 1.368 . S
C2806 C2805 1.523 . S
C2807 C2791 1.429 . S
C2807 C2803 1.429 . S
C2807 C2808 1.523 . S
C2808 C2792 1.368 . S
C2808 C2804 1.368 . S
C2808 C2807 1.523 . S
H2809 C2784 0.950 . S
H2810 C2786 0.950 . S
H2811 C2787 0.949 . S
H2812 C2789 0.950 . S
H2813 C2791 0.950 . S
C2814 C2815 1.349 . S
C2814 C2816 1.327 . S
C2814 H2839 0.950 . S
C2815 C2814 1.349 . S
C2815 C2831 1.349 . S
C2816 C2814 1.327 . S
C2816 C2835 1.429 . S
C2816 H2840 0.950 . S
C2817 C2834 1.574 . S
C2817 C2836 1.368 . S
C2817 H2841 0.949 . S
H2818 C2822 0.949 . S
C2819 C2820 1.349 . S
C2819 C2821 1.327 . S
C2819 H2842 0.950 . S
C2820 C2819 1.349 . S
C2820 C2832 1.349 . S
C2821 C2819 1.327 . S
C2821 C2837 1.429 . S
C2821 H2843 0.950 . S
C2822 H2818 0.949 . S
C2822 C2830 1.574 . S
C2822 C2838 1.368 . S
H2823 C2831 0.950 . S
H2824 C2829 0.950 . S
H2825 C2830 0.949 . S
H2826 C2832 0.950 . S
H2827 C2833 0.950 . S
H2828 C2834 0.949 . S
C2829 H2824 0.950 . S
C2829 C2831 1.327 . S
C2829 C2835 1.429 . S
C2830 C2822 1.574 . S
C2830 H2825 0.949 . S
C2830 C2836 1.368 . S
C2831 C2815 1.349 . S
C2831 H2823 0.950 . S
C2831 C2829 1.327 . S
C2832 C2820 1.349 . S
C2832 H2826 0.950 . S
C2832 C2833 1.327 . S
C2833 H2827 0.950 . S
C2833 C2832 1.327 . S
C2833 C2837 1.429 . S
C2834 C2817 1.574 . S
C2834 H2828 0.949 . S
C2834 C2838 1.368 . S
C2835 C2816 1.429 . S
C2835 C2829 1.429 . S
C2835 C2836 1.523 . S
C2836 C2817 1.368 . S
C2836 C2830 1.368 . S
C2836 C2835 1.523 . S
C2837 C2821 1.429 . S
C2837 C2833 1.429 . S
C2837 C2838 1.523 . S
C2838 C2822 1.368 . S
C2838 C2834 1.368 . S
C2838 C2837 1.523 . S
H2839 C2814 0.950 . S
H2840 C2816 0.950 . S
H2841 C2817 0.949 . S
H2842 C2819 0.950 . S
H2843 C2821 0.950 . S
C2844 C2845 1.349 . S
C2844 C2846 1.327 . S
C2844 H2869 0.950 . S
C2845 C2844 1.349 . S
C2845 C2861 1.349 . S
C2846 C2844 1.327 . S
C2846 C2865 1.429 . S
C2846 H2870 0.950 . S
C2847 C2864 1.574 . S
C2847 C2866 1.368 . S
C2847 H2871 0.949 . S
H2848 C2852 0.949 . S
C2849 C2850 1.349 . S
C2849 C2851 1.327 . S
C2849 H2872 0.950 . S
C2850 C2849 1.349 . S
C2850 C2862 1.349 . S
C2851 C2849 1.327 . S
C2851 C2867 1.429 . S
C2851 H2873 0.950 . S
C2852 H2848 0.949 . S
C2852 C2860 1.574 . S
C2852 C2868 1.368 . S
H2853 C2861 0.950 . S
H2854 C2859 0.950 . S
H2855 C2860 0.949 . S
H2856 C2862 0.950 . S
H2857 C2863 0.950 . S
H2858 C2864 0.949 . S
C2859 H2854 0.950 . S
C2859 C2861 1.327 . S
C2859 C2865 1.429 . S
C2860 C2852 1.574 . S
C2860 H2855 0.949 . S
C2860 C2866 1.368 . S
C2861 C2845 1.349 . S
C2861 H2853 0.950 . S
C2861 C2859 1.327 . S
C2862 C2850 1.349 . S
C2862 H2856 0.950 . S
C2862 C2863 1.327 . S
C2863 H2857 0.950 . S
C2863 C2862 1.327 . S
C2863 C2867 1.429 . S
C2864 C2847 1.574 . S
C2864 H2858 0.949 . S
C2864 C2868 1.368 . S
C2865 C2846 1.429 . S
C2865 C2859 1.429 . S
C2865 C2866 1.523 . S
C2866 C2847 1.368 . S
C2866 C2860 1.368 . S
C2866 C2865 1.523 . S
C2867 C2851 1.429 . S
C2867 C2863 1.429 . S
C2867 C2868 1.523 . S
C2868 C2852 1.368 . S
C2868 C2864 1.368 . S
C2868 C2867 1.523 . S
H2869 C2844 0.950 . S
H2870 C2846 0.950 . S
H2871 C2847 0.949 . S
H2872 C2849 0.950 . S
H2873 C2851 0.950 . S
C2874 C2875 1.349 . S
C2874 C2876 1.327 . S
C2874 H2899 0.950 . S
C2875 C2874 1.349 . S
C2875 C2891 1.349 . S
C2876 C2874 1.327 . S
C2876 C2895 1.429 . S
C2876 H2900 0.950 . S
C2877 C2894 1.574 . S
C2877 C2896 1.368 . S
C2877 H2901 0.949 . S
H2878 C2882 0.949 . S
C2879 C2880 1.349 . S
C2879 C2881 1.327 . S
C2879 H2902 0.950 . S
C2880 C2879 1.349 . S
C2880 C2892 1.349 . S
C2881 C2879 1.327 . S
C2881 C2897 1.429 . S
C2881 H2903 0.950 . S
C2882 H2878 0.949 . S
C2882 C2890 1.574 . S
C2882 C2898 1.368 . S
H2883 C2891 0.950 . S
H2884 C2889 0.950 . S
H2885 C2890 0.949 . S
H2886 C2892 0.950 . S
H2887 C2893 0.950 . S
H2888 C2894 0.949 . S
C2889 H2884 0.950 . S
C2889 C2891 1.327 . S
C2889 C2895 1.429 . S
C2890 C2882 1.574 . S
C2890 H2885 0.949 . S
C2890 C2896 1.368 . S
C2891 C2875 1.349 . S
C2891 H2883 0.950 . S
C2891 C2889 1.327 . S
C2892 C2880 1.349 . S
C2892 H2886 0.950 . S
C2892 C2893 1.327 . S
C2893 H2887 0.950 . S
C2893 C2892 1.327 . S
C2893 C2897 1.429 . S
C2894 C2877 1.574 . S
C2894 H2888 0.949 . S
C2894 C2898 1.368 . S
C2895 C2876 1.429 . S
C2895 C2889 1.429 . S
C2895 C2896 1.523 . S
C2896 C2877 1.368 . S
C2896 C2890 1.368 . S
C2896 C2895 1.523 . S
C2897 C2881 1.429 . S
C2897 C2893 1.429 . S
C2897 C2898 1.523 . S
C2898 C2882 1.368 . S
C2898 C2894 1.368 . S
C2898 C2897 1.523 . S
H2899 C2874 0.950 . S
H2900 C2876 0.950 . S
H2901 C2877 0.949 . S
H2902 C2879 0.950 . S
H2903 C2881 0.950 . S
C2904 C2905 1.349 . S
C2904 C2906 1.327 . S
C2904 H2929 0.950 . S
C2905 C2904 1.349 . S
C2905 C2921 1.349 . S
C2906 C2904 1.327 . S
C2906 C2925 1.429 . S
C2906 H2930 0.950 . S
C2907 C2924 1.574 . S
C2907 C2926 1.368 . S
C2907 H2931 0.949 . S
H2908 C2912 0.949 . S
C2909 C2910 1.349 . S
C2909 C2911 1.327 . S
C2909 H2932 0.950 . S
C2910 C2909 1.349 . S
C2910 C2922 1.349 . S
C2911 C2909 1.327 . S
C2911 C2927 1.429 . S
C2911 H2933 0.950 . S
C2912 H2908 0.949 . S
C2912 C2920 1.574 . S
C2912 C2928 1.368 . S
H2913 C2921 0.950 . S
H2914 C2919 0.950 . S
H2915 C2920 0.949 . S
H2916 C2922 0.950 . S
H2917 C2923 0.950 . S
H2918 C2924 0.949 . S
C2919 H2914 0.950 . S
C2919 C2921 1.327 . S
C2919 C2925 1.429 . S
C2920 C2912 1.574 . S
C2920 H2915 0.949 . S
C2920 C2926 1.368 . S
C2921 C2905 1.349 . S
C2921 H2913 0.950 . S
C2921 C2919 1.327 . S
C2922 C2910 1.349 . S
C2922 H2916 0.950 . S
C2922 C2923 1.327 . S
C2923 H2917 0.950 . S
C2923 C2922 1.327 . S
C2923 C2927 1.429 . S
C2924 C2907 1.574 . S
C2924 H2918 0.949 . S
C2924 C2928 1.368 . S
C2925 C2906 1.429 . S
C2925 C2919 1.429 . S
C2925 C2926 1.523 . S
C2926 C2907 1.368 . S
C2926 C2920 1.368 . S
C2926 C2925 1.523 . S
C2927 C2911 1.429 . S
C2927 C2923 1.429 . S
C2927 C2928 1.523 . S
C2928 C2912 1.368 . S
C2928 C2924 1.368 . S
C2928 C2927 1.523 . S
H2929 C2904 0.950 . S
H2930 C2906 0.950 . S
H2931 C2907 0.949 . S
H2932 C2909 0.950 . S
H2933 C2911 0.950 . S
C2934 C2935 1.349 . S
C2934 C2936 1.327 . S
C2934 H2959 0.950 . S
C2935 C2934 1.349 . S
C2935 C2951 1.349 . S
C2936 C2934 1.327 . S
C2936 C2955 1.429 . S
C2936 H2960 0.950 . S
C2937 C2954 1.574 . S
C2937 C2956 1.368 . S
C2937 H2961 0.949 . S
H2938 C2942 0.949 . S
C2939 C2940 1.349 . S
C2939 C2941 1.327 . S
C2939 H2962 0.950 . S
C2940 C2939 1.349 . S
C2940 C2952 1.349 . S
C2941 C2939 1.327 . S
C2941 C2957 1.429 . S
C2941 H2963 0.950 . S
C2942 H2938 0.949 . S
C2942 C2950 1.574 . S
C2942 C2958 1.368 . S
H2943 C2951 0.950 . S
H2944 C2949 0.950 . S
H2945 C2950 0.949 . S
H2946 C2952 0.950 . S
H2947 C2953 0.950 . S
H2948 C2954 0.949 . S
C2949 H2944 0.950 . S
C2949 C2951 1.327 . S
C2949 C2955 1.429 . S
C2950 C2942 1.574 . S
C2950 H2945 0.949 . S
C2950 C2956 1.368 . S
C2951 C2935 1.349 . S
C2951 H2943 0.950 . S
C2951 C2949 1.327 . S
C2952 C2940 1.349 . S
C2952 H2946 0.950 . S
C2952 C2953 1.327 . S
C2953 H2947 0.950 . S
C2953 C2952 1.327 . S
C2953 C2957 1.429 . S
C2954 C2937 1.574 . S
C2954 H2948 0.949 . S
C2954 C2958 1.368 . S
C2955 C2936 1.429 . S
C2955 C2949 1.429 . S
C2955 C2956 1.523 . S
C2956 C2937 1.368 . S
C2956 C2950 1.368 . S
C2956 C2955 1.523 . S
C2957 C2941 1.429 . S
C2957 C2953 1.429 . S
C2957 C2958 1.523 . S
C2958 C2942 1.368 . S
C2958 C2954 1.368 . S
C2958 C2957 1.523 . S
H2959 C2934 0.950 . S
H2960 C2936 0.950 . S
H2961 C2937 0.949 . S
H2962 C2939 0.950 . S
H2963 C2941 0.950 . S
C2964 C2965 1.349 . S
C2964 C2966 1.327 . S
C2964 H2989 0.950 . S
C2965 C2964 1.349 . S
C2965 C2981 1.349 . S
C2966 C2964 1.327 . S
C2966 C2985 1.429 . S
C2966 H2990 0.950 . S
C2967 C2984 1.574 . S
C2967 C2986 1.368 . S
C2967 H2991 0.949 . S
H2968 C2972 0.949 . S
C2969 C2970 1.349 . S
C2969 C2971 1.327 . S
C2969 H2992 0.950 . S
C2970 C2969 1.349 . S
C2970 C2982 1.349 . S
C2971 C2969 1.327 . S
C2971 C2987 1.429 . S
C2971 H2993 0.950 . S
C2972 H2968 0.949 . S
C2972 C2980 1.574 . S
C2972 C2988 1.368 . S
H2973 C2981 0.950 . S
H2974 C2979 0.950 . S
H2975 C2980 0.949 . S
H2976 C2982 0.950 . S
H2977 C2983 0.950 . S
H2978 C2984 0.949 . S
C2979 H2974 0.950 . S
C2979 C2981 1.327 . S
C2979 C2985 1.429 . S
C2980 C2972 1.574 . S
C2980 H2975 0.949 . S
C2980 C2986 1.368 . S
C2981 C2965 1.349 . S
C2981 H2973 0.950 . S
C2981 C2979 1.327 . S
C2982 C2970 1.349 . S
C2982 H2976 0.950 . S
C2982 C2983 1.327 . S
C2983 H2977 0.950 . S
C2983 C2982 1.327 . S
C2983 C2987 1.429 . S
C2984 C2967 1.574 . S
C2984 H2978 0.949 . S
C2984 C2988 1.368 . S
C2985 C2966 1.429 . S
C2985 C2979 1.429 . S
C2985 C2986 1.523 . S
C2986 C2967 1.368 . S
C2986 C2980 1.368 . S
C2986 C2985 1.523 . S
C2987 C2971 1.429 . S
C2987 C2983 1.429 . S
C2987 C2988 1.523 . S
C2988 C2972 1.368 . S
C2988 C2984 1.368 . S
C2988 C2987 1.523 . S
H2989 C2964 0.950 . S
H2990 C2966 0.950 . S
H2991 C2967 0.949 . S
H2992 C2969 0.950 . S
H2993 C2971 0.950 . S
C2994 C2995 1.349 . S
C2994 C2996 1.327 . S
C2994 H3019 0.950 . S
C2995 C2994 1.349 . S
C2995 C3011 1.349 . S
C2996 C2994 1.327 . S
C2996 C3015 1.429 . S
C2996 H3020 0.950 . S
C2997 C3014 1.574 . S
C2997 C3016 1.368 . S
C2997 H3021 0.949 . S
H2998 C3002 0.949 . S
C2999 C3000 1.349 . S
C2999 C3001 1.327 . S
C2999 H3022 0.950 . S
C3000 C2999 1.349 . S
C3000 C3012 1.349 . S
C3001 C2999 1.327 . S
C3001 C3017 1.429 . S
C3001 H3023 0.950 . S
C3002 H2998 0.949 . S
C3002 C3010 1.574 . S
C3002 C3018 1.368 . S
H3003 C3011 0.950 . S
H3004 C3009 0.950 . S
H3005 C3010 0.949 . S
H3006 C3012 0.950 . S
H3007 C3013 0.950 . S
H3008 C3014 0.949 . S
C3009 H3004 0.950 . S
C3009 C3011 1.327 . S
C3009 C3015 1.429 . S
C3010 C3002 1.574 . S
C3010 H3005 0.949 . S
C3010 C3016 1.368 . S
C3011 C2995 1.349 . S
C3011 H3003 0.950 . S
C3011 C3009 1.327 . S
C3012 C3000 1.349 . S
C3012 H3006 0.950 . S
C3012 C3013 1.327 . S
C3013 H3007 0.950 . S
C3013 C3012 1.327 . S
C3013 C3017 1.429 . S
C3014 C2997 1.574 . S
C3014 H3008 0.949 . S
C3014 C3018 1.368 . S
C3015 C2996 1.429 . S
C3015 C3009 1.429 . S
C3015 C3016 1.523 . S
C3016 C2997 1.368 . S
C3016 C3010 1.368 . S
C3016 C3015 1.523 . S
C3017 C3001 1.429 . S
C3017 C3013 1.429 . S
C3017 C3018 1.523 . S
C3018 C3002 1.368 . S
C3018 C3014 1.368 . S
C3018 C3017 1.523 . S
H3019 C2994 0.950 . S
H3020 C2996 0.950 . S
H3021 C2997 0.949 . S
H3022 C2999 0.950 . S
H3023 C3001 0.950 . S
C3024 C3025 1.349 . S
C3024 C3026 1.327 . S
C3024 H3049 0.950 . S
C3025 C3024 1.349 . S
C3025 C3041 1.349 . S
C3026 C3024 1.327 . S
C3026 C3045 1.429 . S
C3026 H3050 0.950 . S
C3027 C3044 1.574 . S
C3027 C3046 1.368 . S
C3027 H3051 0.949 . S
H3028 C3032 0.949 . S
C3029 C3030 1.349 . S
C3029 C3031 1.327 . S
C3029 H3052 0.950 . S
C3030 C3029 1.349 . S
C3030 C3042 1.349 . S
C3031 C3029 1.327 . S
C3031 C3047 1.429 . S
C3031 H3053 0.950 . S
C3032 H3028 0.949 . S
C3032 C3040 1.574 . S
C3032 C3048 1.368 . S
H3033 C3041 0.950 . S
H3034 C3039 0.950 . S
H3035 C3040 0.949 . S
H3036 C3042 0.950 . S
H3037 C3043 0.950 . S
H3038 C3044 0.949 . S
C3039 H3034 0.950 . S
C3039 C3041 1.327 . S
C3039 C3045 1.429 . S
C3040 C3032 1.574 . S
C3040 H3035 0.949 . S
C3040 C3046 1.368 . S
C3041 C3025 1.349 . S
C3041 H3033 0.950 . S
C3041 C3039 1.327 . S
C3042 C3030 1.349 . S
C3042 H3036 0.950 . S
C3042 C3043 1.327 . S
C3043 H3037 0.950 . S
C3043 C3042 1.327 . S
C3043 C3047 1.429 . S
C3044 C3027 1.574 . S
C3044 H3038 0.949 . S
C3044 C3048 1.368 . S
C3045 C3026 1.429 . S
C3045 C3039 1.429 . S
C3045 C3046 1.523 . S
C3046 C3027 1.368 . S
C3046 C3040 1.368 . S
C3046 C3045 1.523 . S
C3047 C3031 1.429 . S
C3047 C3043 1.429 . S
C3047 C3048 1.523 . S
C3048 C3032 1.368 . S
C3048 C3044 1.368 . S
C3048 C3047 1.523 . S
H3049 C3024 0.950 . S
H3050 C3026 0.950 . S
H3051 C3027 0.949 . S
H3052 C3029 0.950 . S
H3053 C3031 0.950 . S
C3054 C3055 1.349 . S
C3054 C3056 1.327 . S
C3054 H3079 0.950 . S
C3055 C3054 1.349 . S
C3055 C3071 1.349 . S
C3056 C3054 1.327 . S
C3056 C3075 1.429 . S
C3056 H3080 0.950 . S
C3057 C3074 1.574 . S
C3057 C3076 1.368 . S
C3057 H3081 0.949 . S
H3058 C3062 0.949 . S
C3059 C3060 1.349 . S
C3059 C3061 1.327 . S
C3059 H3082 0.950 . S
C3060 C3059 1.349 . S
C3060 C3072 1.349 . S
C3061 C3059 1.327 . S
C3061 C3077 1.429 . S
C3061 H3083 0.950 . S
C3062 H3058 0.949 . S
C3062 C3070 1.574 . S
C3062 C3078 1.368 . S
H3063 C3071 0.950 . S
H3064 C3069 0.950 . S
H3065 C3070 0.949 . S
H3066 C3072 0.950 . S
H3067 C3073 0.950 . S
H3068 C3074 0.949 . S
C3069 H3064 0.950 . S
C3069 C3071 1.327 . S
C3069 C3075 1.429 . S
C3070 C3062 1.574 . S
C3070 H3065 0.949 . S
C3070 C3076 1.368 . S
C3071 C3055 1.349 . S
C3071 H3063 0.950 . S
C3071 C3069 1.327 . S
C3072 C3060 1.349 . S
C3072 H3066 0.950 . S
C3072 C3073 1.327 . S
C3073 H3067 0.950 . S
C3073 C3072 1.327 . S
C3073 C3077 1.429 . S
C3074 C3057 1.574 . S
C3074 H3068 0.949 . S
C3074 C3078 1.368 . S
C3075 C3056 1.429 . S
C3075 C3069 1.429 . S
C3075 C3076 1.523 . S
C3076 C3057 1.368 . S
C3076 C3070 1.368 . S
C3076 C3075 1.523 . S
C3077 C3061 1.429 . S
C3077 C3073 1.429 . S
C3077 C3078 1.523 . S
C3078 C3062 1.368 . S
C3078 C3074 1.368 . S
C3078 C3077 1.523 . S
H3079 C3054 0.950 . S
H3080 C3056 0.950 . S
H3081 C3057 0.949 . S
H3082 C3059 0.950 . S
H3083 C3061 0.950 . S
C3084 C3085 1.349 . S
C3084 C3086 1.327 . S
C3084 H3109 0.950 . S
C3085 C3084 1.349 . S
C3085 C3101 1.349 . S
C3086 C3084 1.327 . S
C3086 C3105 1.429 . S
C3086 H3110 0.950 . S
C3087 C3104 1.574 . S
C3087 C3106 1.368 . S
C3087 H3111 0.949 . S
H3088 C3092 0.949 . S
C3089 C3090 1.349 . S
C3089 C3091 1.327 . S
C3089 H3112 0.950 . S
C3090 C3089 1.349 . S
C3090 C3102 1.349 . S
C3091 C3089 1.327 . S
C3091 C3107 1.429 . S
C3091 H3113 0.950 . S
C3092 H3088 0.949 . S
C3092 C3100 1.574 . S
C3092 C3108 1.368 . S
H3093 C3101 0.950 . S
H3094 C3099 0.950 . S
H3095 C3100 0.949 . S
H3096 C3102 0.950 . S
H3097 C3103 0.950 . S
H3098 C3104 0.949 . S
C3099 H3094 0.950 . S
C3099 C3101 1.327 . S
C3099 C3105 1.429 . S
C3100 C3092 1.574 . S
C3100 H3095 0.949 . S
C3100 C3106 1.368 . S
C3101 C3085 1.349 . S
C3101 H3093 0.950 . S
C3101 C3099 1.327 . S
C3102 C3090 1.349 . S
C3102 H3096 0.950 . S
C3102 C3103 1.327 . S
C3103 H3097 0.950 . S
C3103 C3102 1.327 . S
C3103 C3107 1.429 . S
C3104 C3087 1.574 . S
C3104 H3098 0.949 . S
C3104 C3108 1.368 . S
C3105 C3086 1.429 . S
C3105 C3099 1.429 . S
C3105 C3106 1.523 . S
C3106 C3087 1.368 . S
C3106 C3100 1.368 . S
C3106 C3105 1.523 . S
C3107 C3091 1.429 . S
C3107 C3103 1.429 . S
C3107 C3108 1.523 . S
C3108 C3092 1.368 . S
C3108 C3104 1.368 . S
C3108 C3107 1.523 . S
H3109 C3084 0.950 . S
H3110 C3086 0.950 . S
H3111 C3087 0.949 . S
H3112 C3089 0.950 . S
H3113 C3091 0.950 . S
C3114 C3115 1.349 . S
C3114 C3116 1.327 . S
C3114 H3139 0.950 . S
C3115 C3114 1.349 . S
C3115 C3131 1.349 . S
C3116 C3114 1.327 . S
C3116 C3135 1.429 . S
C3116 H3140 0.950 . S
C3117 C3134 1.574 . S
C3117 C3136 1.368 . S
C3117 H3141 0.949 . S
H3118 C3122 0.949 . S
C3119 C3120 1.349 . S
C3119 C3121 1.327 . S
C3119 H3142 0.950 . S
C3120 C3119 1.349 . S
C3120 C3132 1.349 . S
C3121 C3119 1.327 . S
C3121 C3137 1.429 . S
C3121 H3143 0.950 . S
C3122 H3118 0.949 . S
C3122 C3130 1.574 . S
C3122 C3138 1.368 . S
H3123 C3131 0.950 . S
H3124 C3129 0.950 . S
H3125 C3130 0.949 . S
H3126 C3132 0.950 . S
H3127 C3133 0.950 . S
H3128 C3134 0.949 . S
C3129 H3124 0.950 . S
C3129 C3131 1.327 . S
C3129 C3135 1.429 . S
C3130 C3122 1.574 . S
C3130 H3125 0.949 . S
C3130 C3136 1.368 . S
C3131 C3115 1.349 . S
C3131 H3123 0.950 . S
C3131 C3129 1.327 . S
C3132 C3120 1.349 . S
C3132 H3126 0.950 . S
C3132 C3133 1.327 . S
C3133 H3127 0.950 . S
C3133 C3132 1.327 . S
C3133 C3137 1.429 . S
C3134 C3117 1.574 . S
C3134 H3128 0.949 . S
C3134 C3138 1.368 . S
C3135 C3116 1.429 . S
C3135 C3129 1.429 . S
C3135 C3136 1.523 . S
C3136 C3117 1.368 . S
C3136 C3130 1.368 . S
C3136 C3135 1.523 . S
C3137 C3121 1.429 . S
C3137 C3133 1.429 . S
C3137 C3138 1.523 . S
C3138 C3122 1.368 . S
C3138 C3134 1.368 . S
C3138 C3137 1.523 . S
H3139 C3114 0.950 . S
H3140 C3116 0.950 . S
H3141 C3117 0.949 . S
H3142 C3119 0.950 . S
H3143 C3121 0.950 . S
C3144 C3145 1.349 . S
C3144 C3146 1.327 . S
C3144 H3169 0.950 . S
C3145 C3144 1.349 . S
C3145 C3161 1.349 . S
C3146 C3144 1.327 . S
C3146 C3165 1.429 . S
C3146 H3170 0.950 . S
C3147 C3164 1.574 . S
C3147 C3166 1.368 . S
C3147 H3171 0.949 . S
H3148 C3152 0.949 . S
C3149 C3150 1.349 . S
C3149 C3151 1.327 . S
C3149 H3172 0.950 . S
C3150 C3149 1.349 . S
C3150 C3162 1.349 . S
C3151 C3149 1.327 . S
C3151 C3167 1.429 . S
C3151 H3173 0.950 . S
C3152 H3148 0.949 . S
C3152 C3160 1.574 . S
C3152 C3168 1.368 . S
H3153 C3161 0.950 . S
H3154 C3159 0.950 . S
H3155 C3160 0.949 . S
H3156 C3162 0.950 . S
H3157 C3163 0.950 . S
H3158 C3164 0.949 . S
C3159 H3154 0.950 . S
C3159 C3161 1.327 . S
C3159 C3165 1.429 . S
C3160 C3152 1.574 . S
C3160 H3155 0.949 . S
C3160 C3166 1.368 . S
C3161 C3145 1.349 . S
C3161 H3153 0.950 . S
C3161 C3159 1.327 . S
C3162 C3150 1.349 . S
C3162 H3156 0.950 . S
C3162 C3163 1.327 . S
C3163 H3157 0.950 . S
C3163 C3162 1.327 . S
C3163 C3167 1.429 . S
C3164 C3147 1.574 . S
C3164 H3158 0.949 . S
C3164 C3168 1.368 . S
C3165 C3146 1.429 . S
C3165 C3159 1.429 . S
C3165 C3166 1.523 . S
C3166 C3147 1.368 . S
C3166 C3160 1.368 . S
C3166 C3165 1.523 . S
C3167 C3151 1.429 . S
C3167 C3163 1.429 . S
C3167 C3168 1.523 . S
C3168 C3152 1.368 . S
C3168 C3164 1.368 . S
C3168 C3167 1.523 . S
H3169 C3144 0.950 . S
H3170 C3146 0.950 . S
H3171 C3147 0.949 . S
H3172 C3149 0.950 . S
H3173 C3151 0.950 . S
C3174 C3175 1.349 . S
C3174 C3176 1.327 . S
C3174 H3199 0.950 . S
C3175 C3174 1.349 . S
C3175 C3191 1.349 . S
C3176 C3174 1.327 . S
C3176 C3195 1.429 . S
C3176 H3200 0.950 . S
C3177 C3194 1.574 . S
C3177 C3196 1.368 . S
C3177 H3201 0.949 . S
H3178 C3182 0.949 . S
C3179 C3180 1.349 . S
C3179 C3181 1.327 . S
C3179 H3202 0.950 . S
C3180 C3179 1.349 . S
C3180 C3192 1.349 . S
C3181 C3179 1.327 . S
C3181 C3197 1.429 . S
C3181 H3203 0.950 . S
C3182 H3178 0.949 . S
C3182 C3190 1.574 . S
C3182 C3198 1.368 . S
H3183 C3191 0.950 . S
H3184 C3189 0.950 . S
H3185 C3190 0.949 . S
H3186 C3192 0.950 . S
H3187 C3193 0.950 . S
H3188 C3194 0.949 . S
C3189 H3184 0.950 . S
C3189 C3191 1.327 . S
C3189 C3195 1.429 . S
C3190 C3182 1.574 . S
C3190 H3185 0.949 . S
C3190 C3196 1.368 . S
C3191 C3175 1.349 . S
C3191 H3183 0.950 . S
C3191 C3189 1.327 . S
C3192 C3180 1.349 . S
C3192 H3186 0.950 . S
C3192 C3193 1.327 . S
C3193 H3187 0.950 . S
C3193 C3192 1.327 . S
C3193 C3197 1.429 . S
C3194 C3177 1.574 . S
C3194 H3188 0.949 . S
C3194 C3198 1.368 . S
C3195 C3176 1.429 . S
C3195 C3189 1.429 . S
C3195 C3196 1.523 . S
C3196 C3177 1.368 . S
C3196 C3190 1.368 . S
C3196 C3195 1.523 . S
C3197 C3181 1.429 . S
C3197 C3193 1.429 . S
C3197 C3198 1.523 . S
C3198 C3182 1.368 . S
C3198 C3194 1.368 . S
C3198 C3197 1.523 . S
H3199 C3174 0.950 . S
H3200 C3176 0.950 . S
H3201 C3177 0.949 . S
H3202 C3179 0.950 . S
H3203 C3181 0.950 . S
C3204 C3205 1.349 . S
C3204 C3206 1.327 . S
C3204 H3229 0.950 . S
C3205 C3204 1.349 . S
C3205 C3221 1.349 . S
C3206 C3204 1.327 . S
C3206 C3225 1.429 . S
C3206 H3230 0.950 . S
C3207 C3224 1.574 . S
C3207 C3226 1.368 . S
C3207 H3231 0.949 . S
H3208 C3212 0.949 . S
C3209 C3210 1.349 . S
C3209 C3211 1.327 . S
C3209 H3232 0.950 . S
C3210 C3209 1.349 . S
C3210 C3222 1.349 . S
C3211 C3209 1.327 . S
C3211 C3227 1.429 . S
C3211 H3233 0.950 . S
C3212 H3208 0.949 . S
C3212 C3220 1.574 . S
C3212 C3228 1.368 . S
H3213 C3221 0.950 . S
H3214 C3219 0.950 . S
H3215 C3220 0.949 . S
H3216 C3222 0.950 . S
H3217 C3223 0.950 . S
H3218 C3224 0.949 . S
C3219 H3214 0.950 . S
C3219 C3221 1.327 . S
C3219 C3225 1.429 . S
C3220 C3212 1.574 . S
C3220 H3215 0.949 . S
C3220 C3226 1.368 . S
C3221 C3205 1.349 . S
C3221 H3213 0.950 . S
C3221 C3219 1.327 . S
C3222 C3210 1.349 . S
C3222 H3216 0.950 . S
C3222 C3223 1.327 . S
C3223 H3217 0.950 . S
C3223 C3222 1.327 . S
C3223 C3227 1.429 . S
C3224 C3207 1.574 . S
C3224 H3218 0.949 . S
C3224 C3228 1.368 . S
C3225 C3206 1.429 . S
C3225 C3219 1.429 . S
C3225 C3226 1.523 . S
C3226 C3207 1.368 . S
C3226 C3220 1.368 . S
C3226 C3225 1.523 . S
C3227 C3211 1.429 . S
C3227 C3223 1.429 . S
C3227 C3228 1.523 . S
C3228 C3212 1.368 . S
C3228 C3224 1.368 . S
C3228 C3227 1.523 . S
H3229 C3204 0.950 . S
H3230 C3206 0.950 . S
H3231 C3207 0.949 . S
H3232 C3209 0.950 . S
H3233 C3211 0.950 . S
C3234 C3235 1.349 . S
C3234 C3236 1.327 . S
C3234 H3259 0.950 . S
C3235 C3234 1.349 . S
C3235 C3251 1.349 . S
C3236 C3234 1.327 . S
C3236 C3255 1.429 . S
C3236 H3260 0.950 . S
C3237 C3254 1.574 1_565 S
C3237 C3256 1.368 . S
C3237 H3261 0.949 . S
H3238 C3242 0.949 . S
C3239 C3240 1.349 . S
C3239 C3241 1.327 . S
C3239 H3262 0.950 . S
C3240 C3239 1.349 . S
C3240 C3252 1.349 . S
C3241 C3239 1.327 . S
C3241 C3257 1.429 . S
C3241 H3263 0.950 . S
C3242 H3238 0.949 . S
C3242 C3250 1.574 1_545 S
C3242 C3258 1.368 . S
H3243 C3251 0.950 . S
H3244 C3249 0.950 . S
H3245 C3250 0.949 . S
H3246 C3252 0.950 . S
H3247 C3253 0.950 . S
H3248 C3254 0.949 . S
C3249 H3244 0.950 . S
C3249 C3251 1.327 . S
C3249 C3255 1.429 . S
C3250 C3242 1.574 1_565 S
C3250 H3245 0.949 . S
C3250 C3256 1.368 . S
C3251 C3235 1.349 . S
C3251 H3243 0.950 . S
C3251 C3249 1.327 . S
C3252 C3240 1.349 . S
C3252 H3246 0.950 . S
C3252 C3253 1.327 . S
C3253 H3247 0.950 . S
C3253 C3252 1.327 . S
C3253 C3257 1.429 . S
C3254 C3237 1.574 1_545 S
C3254 H3248 0.949 . S
C3254 C3258 1.368 . S
C3255 C3236 1.429 . S
C3255 C3249 1.429 . S
C3255 C3256 1.523 . S
C3256 C3237 1.368 . S
C3256 C3250 1.368 . S
C3256 C3255 1.523 . S
C3257 C3241 1.429 . S
C3257 C3253 1.429 . S
C3257 C3258 1.523 . S
C3258 C3242 1.368 . S
C3258 C3254 1.368 . S
C3258 C3257 1.523 . S
H3259 C3234 0.950 . S
H3260 C3236 0.950 . S
H3261 C3237 0.949 . S
H3262 C3239 0.950 . S
H3263 C3241 0.950 . S
C3264 C3265 1.349 . S
C3264 C3266 1.327 . S
C3264 H3289 0.950 . S
C3265 C3264 1.349 . S
C3265 C3281 1.349 . S
C3266 C3264 1.327 . S
C3266 C3285 1.429 . S
C3266 H3290 0.950 . S
C3267 C3284 1.574 1_655 S
C3267 C3286 1.368 . S
C3267 H3291 0.949 . S
H3268 C3272 0.949 . S
C3269 C3270 1.349 . S
C3269 C3271 1.327 . S
C3269 H3292 0.950 . S
C3270 C3269 1.349 . S
C3270 C3282 1.349 . S
C3271 C3269 1.327 . S
C3271 C3287 1.429 . S
C3271 H3293 0.950 . S
C3272 H3268 0.949 . S
C3272 C3280 1.574 1_455 S
C3272 C3288 1.368 . S
H3273 C3281 0.950 . S
H3274 C3279 0.950 . S
H3275 C3280 0.949 . S
H3276 C3282 0.950 . S
H3277 C3283 0.950 . S
H3278 C3284 0.949 . S
C3279 H3274 0.950 . S
C3279 C3281 1.327 . S
C3279 C3285 1.429 . S
C3280 C3272 1.574 1_655 S
C3280 H3275 0.949 . S
C3280 C3286 1.368 . S
C3281 C3265 1.349 . S
C3281 H3273 0.950 . S
C3281 C3279 1.327 . S
C3282 C3270 1.349 . S
C3282 H3276 0.950 . S
C3282 C3283 1.327 . S
C3283 H3277 0.950 . S
C3283 C3282 1.327 . S
C3283 C3287 1.429 . S
C3284 C3267 1.574 1_455 S
C3284 H3278 0.949 . S
C3284 C3288 1.368 . S
C3285 C3266 1.429 . S
C3285 C3279 1.429 . S
C3285 C3286 1.523 . S
C3286 C3267 1.368 . S
C3286 C3280 1.368 . S
C3286 C3285 1.523 . S
C3287 C3271 1.429 . S
C3287 C3283 1.429 . S
C3287 C3288 1.523 . S
C3288 C3272 1.368 . S
C3288 C3284 1.368 . S
C3288 C3287 1.523 . S
H3289 C3264 0.950 . S
H3290 C3266 0.950 . S
H3291 C3267 0.949 . S
H3292 C3269 0.950 . S
H3293 C3271 0.950 . S
C3294 C3295 1.349 . S
C3294 C3296 1.327 . S
C3294 H3319 0.950 . S
C3295 C3294 1.349 . S
C3295 C3311 1.349 . S
C3296 C3294 1.327 . S
C3296 C3315 1.429 . S
C3296 H3320 0.950 . S
C3297 C3314 1.574 . S
C3297 C3316 1.368 . S
C3297 H3321 0.949 . S
H3298 C3302 0.949 . S
C3299 C3300 1.349 . S
C3299 C3301 1.327 . S
C3299 H3322 0.950 . S
C3300 C3299 1.349 . S
C3300 C3312 1.349 . S
C3301 C3299 1.327 . S
C3301 C3317 1.429 . S
C3301 H3323 0.950 . S
C3302 H3298 0.949 . S
C3302 C3310 1.574 . S
C3302 C3318 1.368 . S
H3303 C3311 0.950 . S
H3304 C3309 0.950 . S
H3305 C3310 0.949 . S
H3306 C3312 0.950 . S
H3307 C3313 0.950 . S
H3308 C3314 0.949 . S
C3309 H3304 0.950 . S
C3309 C3311 1.327 . S
C3309 C3315 1.429 . S
C3310 C3302 1.574 . S
C3310 H3305 0.949 . S
C3310 C3316 1.368 . S
C3311 C3295 1.349 . S
C3311 H3303 0.950 . S
C3311 C3309 1.327 . S
C3312 C3300 1.349 . S
C3312 H3306 0.950 . S
C3312 C3313 1.327 . S
C3313 H3307 0.950 . S
C3313 C3312 1.327 . S
C3313 C3317 1.429 . S
C3314 C3297 1.574 . S
C3314 H3308 0.949 . S
C3314 C3318 1.368 . S
C3315 C3296 1.429 . S
C3315 C3309 1.429 . S
C3315 C3316 1.523 . S
C3316 C3297 1.368 . S
C3316 C3310 1.368 . S
C3316 C3315 1.523 . S
C3317 C3301 1.429 . S
C3317 C3313 1.429 . S
C3317 C3318 1.523 . S
C3318 C3302 1.368 . S
C3318 C3314 1.368 . S
C3318 C3317 1.523 . S
H3319 C3294 0.950 . S
H3320 C3296 0.950 . S
H3321 C3297 0.949 . S
H3322 C3299 0.950 . S
H3323 C3301 0.950 . S
C3324 C3325 1.349 . S
C3324 C3326 1.327 . S
C3324 H3349 0.950 . S
C3325 C3324 1.349 . S
C3325 C3341 1.349 . S
C3326 C3324 1.327 . S
C3326 C3345 1.429 . S
C3326 H3350 0.950 . S
C3327 C3344 1.574 1_545 S
C3327 C3346 1.368 . S
C3327 H3351 0.949 . S
H3328 C3332 0.949 . S
C3329 C3330 1.349 . S
C3329 C3331 1.327 . S
C3329 H3352 0.950 . S
C3330 C3329 1.349 . S
C3330 C3342 1.349 . S
C3331 C3329 1.327 . S
C3331 C3347 1.429 . S
C3331 H3353 0.950 . S
C3332 H3328 0.949 . S
C3332 C3340 1.574 1_565 S
C3332 C3348 1.368 . S
H3333 C3341 0.950 . S
H3334 C3339 0.950 . S
H3335 C3340 0.949 . S
H3336 C3342 0.950 . S
H3337 C3343 0.950 . S
H3338 C3344 0.949 . S
C3339 H3334 0.950 . S
C3339 C3341 1.327 . S
C3339 C3345 1.429 . S
C3340 C3332 1.574 1_545 S
C3340 H3335 0.949 . S
C3340 C3346 1.368 . S
C3341 C3325 1.349 . S
C3341 H3333 0.950 . S
C3341 C3339 1.327 . S
C3342 C3330 1.349 . S
C3342 H3336 0.950 . S
C3342 C3343 1.327 . S
C3343 H3337 0.950 . S
C3343 C3342 1.327 . S
C3343 C3347 1.429 . S
C3344 C3327 1.574 1_565 S
C3344 H3338 0.949 . S
C3344 C3348 1.368 . S
C3345 C3326 1.429 . S
C3345 C3339 1.429 . S
C3345 C3346 1.523 . S
C3346 C3327 1.368 . S
C3346 C3340 1.368 . S
C3346 C3345 1.523 . S
C3347 C3331 1.429 . S
C3347 C3343 1.429 . S
C3347 C3348 1.523 . S
C3348 C3332 1.368 . S
C3348 C3344 1.368 . S
C3348 C3347 1.523 . S
H3349 C3324 0.950 . S
H3350 C3326 0.950 . S
H3351 C3327 0.949 . S
H3352 C3329 0.950 . S
H3353 C3331 0.950 . S
C3354 C3355 1.349 . S
C3354 C3356 1.327 . S
C3354 H3379 0.950 . S
C3355 C3354 1.349 . S
C3355 C3371 1.349 . S
C3356 C3354 1.327 . S
C3356 C3375 1.429 . S
C3356 H3380 0.950 . S
C3357 C3374 1.574 1_655 S
C3357 C3376 1.368 . S
C3357 H3381 0.949 . S
H3358 C3362 0.949 . S
C3359 C3360 1.349 . S
C3359 C3361 1.327 . S
C3359 H3382 0.950 . S
C3360 C3359 1.349 . S
C3360 C3372 1.349 . S
C3361 C3359 1.327 . S
C3361 C3377 1.429 . S
C3361 H3383 0.950 . S
C3362 H3358 0.949 . S
C3362 C3370 1.574 1_455 S
C3362 C3378 1.368 . S
H3363 C3371 0.950 . S
H3364 C3369 0.950 . S
H3365 C3370 0.949 . S
H3366 C3372 0.950 . S
H3367 C3373 0.950 . S
H3368 C3374 0.949 . S
C3369 H3364 0.950 . S
C3369 C3371 1.327 . S
C3369 C3375 1.429 . S
C3370 C3362 1.574 1_655 S
C3370 H3365 0.949 . S
C3370 C3376 1.368 . S
C3371 C3355 1.349 . S
C3371 H3363 0.950 . S
C3371 C3369 1.327 . S
C3372 C3360 1.349 . S
C3372 H3366 0.950 . S
C3372 C3373 1.327 . S
C3373 H3367 0.950 . S
C3373 C3372 1.327 . S
C3373 C3377 1.429 . S
C3374 C3357 1.574 1_455 S
C3374 H3368 0.949 . S
C3374 C3378 1.368 . S
C3375 C3356 1.429 . S
C3375 C3369 1.429 . S
C3375 C3376 1.523 . S
C3376 C3357 1.368 . S
C3376 C3370 1.368 . S
C3376 C3375 1.523 . S
C3377 C3361 1.429 . S
C3377 C3373 1.429 . S
C3377 C3378 1.523 . S
C3378 C3362 1.368 . S
C3378 C3374 1.368 . S
C3378 C3377 1.523 . S
H3379 C3354 0.950 . S
H3380 C3356 0.950 . S
H3381 C3357 0.949 . S
H3382 C3359 0.950 . S
H3383 C3361 0.950 . S
C3384 C3385 1.349 . S
C3384 C3386 1.327 . S
C3384 H3409 0.950 . S
C3385 C3384 1.349 . S
C3385 C3401 1.349 . S
C3386 C3384 1.327 . S
C3386 C3405 1.429 . S
C3386 H3410 0.950 . S
C3387 C3404 1.574 . S
C3387 C3406 1.368 . S
C3387 H3411 0.949 . S
H3388 C3392 0.949 . S
C3389 C3390 1.349 . S
C3389 C3391 1.327 . S
C3389 H3412 0.950 . S
C3390 C3389 1.349 . S
C3390 C3402 1.349 . S
C3391 C3389 1.327 . S
C3391 C3407 1.429 . S
C3391 H3413 0.950 . S
C3392 H3388 0.949 . S
C3392 C3400 1.574 . S
C3392 C3408 1.368 . S
H3393 C3401 0.950 . S
H3394 C3399 0.950 . S
H3395 C3400 0.949 . S
H3396 C3402 0.950 . S
H3397 C3403 0.950 . S
H3398 C3404 0.949 . S
C3399 H3394 0.950 . S
C3399 C3401 1.327 . S
C3399 C3405 1.429 . S
C3400 C3392 1.574 . S
C3400 H3395 0.949 . S
C3400 C3406 1.368 . S
C3401 C3385 1.349 . S
C3401 H3393 0.950 . S
C3401 C3399 1.327 . S
C3402 C3390 1.349 . S
C3402 H3396 0.950 . S
C3402 C3403 1.327 . S
C3403 H3397 0.950 . S
C3403 C3402 1.327 . S
C3403 C3407 1.429 . S
C3404 C3387 1.574 . S
C3404 H3398 0.949 . S
C3404 C3408 1.368 . S
C3405 C3386 1.429 . S
C3405 C3399 1.429 . S
C3405 C3406 1.523 . S
C3406 C3387 1.368 . S
C3406 C3400 1.368 . S
C3406 C3405 1.523 . S
C3407 C3391 1.429 . S
C3407 C3403 1.429 . S
C3407 C3408 1.523 . S
C3408 C3392 1.368 . S
C3408 C3404 1.368 . S
C3408 C3407 1.523 . S
H3409 C3384 0.950 . S
H3410 C3386 0.950 . S
H3411 C3387 0.949 . S
H3412 C3389 0.950 . S
H3413 C3391 0.950 . S
C3414 C3415 1.349 . S
C3414 C3416 1.327 . S
C3414 H3439 0.950 . S
C3415 C3414 1.349 . S
C3415 C3431 1.349 . S
C3416 C3414 1.327 . S
C3416 C3435 1.429 . S
C3416 H3440 0.950 . S
C3417 C3434 1.574 . S
C3417 C3436 1.368 . S
C3417 H3441 0.949 . S
H3418 C3422 0.949 . S
C3419 C3420 1.349 . S
C3419 C3421 1.327 . S
C3419 H3442 0.950 . S
C3420 C3419 1.349 . S
C3420 C3432 1.349 . S
C3421 C3419 1.327 . S
C3421 C3437 1.429 . S
C3421 H3443 0.950 . S
C3422 H3418 0.949 . S
C3422 C3430 1.574 . S
C3422 C3438 1.368 . S
H3423 C3431 0.950 . S
H3424 C3429 0.950 . S
H3425 C3430 0.949 . S
H3426 C3432 0.950 . S
H3427 C3433 0.950 . S
H3428 C3434 0.949 . S
C3429 H3424 0.950 . S
C3429 C3431 1.327 . S
C3429 C3435 1.429 . S
C3430 C3422 1.574 . S
C3430 H3425 0.949 . S
C3430 C3436 1.368 . S
C3431 C3415 1.349 . S
C3431 H3423 0.950 . S
C3431 C3429 1.327 . S
C3432 C3420 1.349 . S
C3432 H3426 0.950 . S
C3432 C3433 1.327 . S
C3433 H3427 0.950 . S
C3433 C3432 1.327 . S
C3433 C3437 1.429 . S
C3434 C3417 1.574 . S
C3434 H3428 0.949 . S
C3434 C3438 1.368 . S
C3435 C3416 1.429 . S
C3435 C3429 1.429 . S
C3435 C3436 1.523 . S
C3436 C3417 1.368 . S
C3436 C3430 1.368 . S
C3436 C3435 1.523 . S
C3437 C3421 1.429 . S
C3437 C3433 1.429 . S
C3437 C3438 1.523 . S
C3438 C3422 1.368 . S
C3438 C3434 1.368 . S
C3438 C3437 1.523 . S
H3439 C3414 0.950 . S
H3440 C3416 0.950 . S
H3441 C3417 0.949 . S
H3442 C3419 0.950 . S
H3443 C3421 0.950 . S
C3444 C3445 1.349 . S
C3444 C3446 1.327 . S
C3444 H3469 0.950 . S
C3445 C3444 1.349 . S
C3445 C3461 1.349 . S
C3446 C3444 1.327 . S
C3446 C3465 1.429 . S
C3446 H3470 0.950 . S
C3447 C3464 1.574 . S
C3447 C3466 1.368 . S
C3447 H3471 0.949 . S
H3448 C3452 0.949 . S
C3449 C3450 1.349 . S
C3449 C3451 1.327 . S
C3449 H3472 0.950 . S
C3450 C3449 1.349 . S
C3450 C3462 1.349 . S
C3451 C3449 1.327 . S
C3451 C3467 1.429 . S
C3451 H3473 0.950 . S
C3452 H3448 0.949 . S
C3452 C3460 1.574 . S
C3452 C3468 1.368 . S
H3453 C3461 0.950 . S
H3454 C3459 0.950 . S
H3455 C3460 0.949 . S
H3456 C3462 0.950 . S
H3457 C3463 0.950 . S
H3458 C3464 0.949 . S
C3459 H3454 0.950 . S
C3459 C3461 1.327 . S
C3459 C3465 1.429 . S
C3460 C3452 1.574 . S
C3460 H3455 0.949 . S
C3460 C3466 1.368 . S
C3461 C3445 1.349 . S
C3461 H3453 0.950 . S
C3461 C3459 1.327 . S
C3462 C3450 1.349 . S
C3462 H3456 0.950 . S
C3462 C3463 1.327 . S
C3463 H3457 0.950 . S
C3463 C3462 1.327 . S
C3463 C3467 1.429 . S
C3464 C3447 1.574 . S
C3464 H3458 0.949 . S
C3464 C3468 1.368 . S
C3465 C3446 1.429 . S
C3465 C3459 1.429 . S
C3465 C3466 1.523 . S
C3466 C3447 1.368 . S
C3466 C3460 1.368 . S
C3466 C3465 1.523 . S
C3467 C3451 1.429 . S
C3467 C3463 1.429 . S
C3467 C3468 1.523 . S
C3468 C3452 1.368 . S
C3468 C3464 1.368 . S
C3468 C3467 1.523 . S
H3469 C3444 0.950 . S
H3470 C3446 0.950 . S
H3471 C3447 0.949 . S
H3472 C3449 0.950 . S
H3473 C3451 0.950 . S
C3474 C3475 1.349 . S
C3474 C3476 1.327 . S
C3474 H3499 0.950 . S
C3475 C3474 1.349 . S
C3475 C3491 1.349 . S
C3476 C3474 1.327 . S
C3476 C3495 1.429 . S
C3476 H3500 0.950 . S
C3477 C3494 1.574 . S
C3477 C3496 1.368 . S
C3477 H3501 0.949 . S
H3478 C3482 0.949 . S
C3479 C3480 1.349 . S
C3479 C3481 1.327 . S
C3479 H3502 0.950 . S
C3480 C3479 1.349 . S
C3480 C3492 1.349 . S
C3481 C3479 1.327 . S
C3481 C3497 1.429 . S
C3481 H3503 0.950 . S
C3482 H3478 0.949 . S
C3482 C3490 1.574 . S
C3482 C3498 1.368 . S
H3483 C3491 0.950 . S
H3484 C3489 0.950 . S
H3485 C3490 0.949 . S
H3486 C3492 0.950 . S
H3487 C3493 0.950 . S
H3488 C3494 0.949 . S
C3489 H3484 0.950 . S
C3489 C3491 1.327 . S
C3489 C3495 1.429 . S
C3490 C3482 1.574 . S
C3490 H3485 0.949 . S
C3490 C3496 1.368 . S
C3491 C3475 1.349 . S
C3491 H3483 0.950 . S
C3491 C3489 1.327 . S
C3492 C3480 1.349 . S
C3492 H3486 0.950 . S
C3492 C3493 1.327 . S
C3493 H3487 0.950 . S
C3493 C3492 1.327 . S
C3493 C3497 1.429 . S
C3494 C3477 1.574 . S
C3494 H3488 0.949 . S
C3494 C3498 1.368 . S
C3495 C3476 1.429 . S
C3495 C3489 1.429 . S
C3495 C3496 1.523 . S
C3496 C3477 1.368 . S
C3496 C3490 1.368 . S
C3496 C3495 1.523 . S
C3497 C3481 1.429 . S
C3497 C3493 1.429 . S
C3497 C3498 1.523 . S
C3498 C3482 1.368 . S
C3498 C3494 1.368 . S
C3498 C3497 1.523 . S
H3499 C3474 0.950 . S
H3500 C3476 0.950 . S
H3501 C3477 0.949 . S
H3502 C3479 0.950 . S
H3503 C3481 0.950 . S
C3504 C3505 1.349 . S
C3504 C3506 1.327 . S
C3504 H3529 0.950 . S
C3505 C3504 1.349 . S
C3505 C3521 1.349 . S
C3506 C3504 1.327 . S
C3506 C3525 1.429 . S
C3506 H3530 0.950 . S
C3507 C3524 1.574 . S
C3507 C3526 1.368 . S
C3507 H3531 0.949 . S
H3508 C3512 0.949 . S
C3509 C3510 1.349 . S
C3509 C3511 1.327 . S
C3509 H3532 0.950 . S
C3510 C3509 1.349 . S
C3510 C3522 1.349 . S
C3511 C3509 1.327 . S
C3511 C3527 1.429 . S
C3511 H3533 0.950 . S
C3512 H3508 0.949 . S
C3512 C3520 1.574 . S
C3512 C3528 1.368 . S
H3513 C3521 0.950 . S
H3514 C3519 0.950 . S
H3515 C3520 0.949 . S
H3516 C3522 0.950 . S
H3517 C3523 0.950 . S
H3518 C3524 0.949 . S
C3519 H3514 0.950 . S
C3519 C3521 1.327 . S
C3519 C3525 1.429 . S
C3520 C3512 1.574 . S
C3520 H3515 0.949 . S
C3520 C3526 1.368 . S
C3521 C3505 1.349 . S
C3521 H3513 0.950 . S
C3521 C3519 1.327 . S
C3522 C3510 1.349 . S
C3522 H3516 0.950 . S
C3522 C3523 1.327 . S
C3523 H3517 0.950 . S
C3523 C3522 1.327 . S
C3523 C3527 1.429 . S
C3524 C3507 1.574 . S
C3524 H3518 0.949 . S
C3524 C3528 1.368 . S
C3525 C3506 1.429 . S
C3525 C3519 1.429 . S
C3525 C3526 1.523 . S
C3526 C3507 1.368 . S
C3526 C3520 1.368 . S
C3526 C3525 1.523 . S
C3527 C3511 1.429 . S
C3527 C3523 1.429 . S
C3527 C3528 1.523 . S
C3528 C3512 1.368 . S
C3528 C3524 1.368 . S
C3528 C3527 1.523 . S
H3529 C3504 0.950 . S
H3530 C3506 0.950 . S
H3531 C3507 0.949 . S
H3532 C3509 0.950 . S
H3533 C3511 0.950 . S
C3534 C3535 1.349 . S
C3534 C3536 1.327 . S
C3534 H3559 0.950 . S
C3535 C3534 1.349 . S
C3535 C3551 1.349 . S
C3536 C3534 1.327 . S
C3536 C3555 1.429 . S
C3536 H3560 0.950 . S
C3537 C3554 1.574 . S
C3537 C3556 1.368 . S
C3537 H3561 0.949 . S
H3538 C3542 0.949 . S
C3539 C3540 1.349 . S
C3539 C3541 1.327 . S
C3539 H3562 0.950 . S
C3540 C3539 1.349 . S
C3540 C3552 1.349 . S
C3541 C3539 1.327 . S
C3541 C3557 1.429 . S
C3541 H3563 0.950 . S
C3542 H3538 0.949 . S
C3542 C3550 1.574 . S
C3542 C3558 1.368 . S
H3543 C3551 0.950 . S
H3544 C3549 0.950 . S
H3545 C3550 0.949 . S
H3546 C3552 0.950 . S
H3547 C3553 0.950 . S
H3548 C3554 0.949 . S
C3549 H3544 0.950 . S
C3549 C3551 1.327 . S
C3549 C3555 1.429 . S
C3550 C3542 1.574 . S
C3550 H3545 0.949 . S
C3550 C3556 1.368 . S
C3551 C3535 1.349 . S
C3551 H3543 0.950 . S
C3551 C3549 1.327 . S
C3552 C3540 1.349 . S
C3552 H3546 0.950 . S
C3552 C3553 1.327 . S
C3553 H3547 0.950 . S
C3553 C3552 1.327 . S
C3553 C3557 1.429 . S
C3554 C3537 1.574 . S
C3554 H3548 0.949 . S
C3554 C3558 1.368 . S
C3555 C3536 1.429 . S
C3555 C3549 1.429 . S
C3555 C3556 1.523 . S
C3556 C3537 1.368 . S
C3556 C3550 1.368 . S
C3556 C3555 1.523 . S
C3557 C3541 1.429 . S
C3557 C3553 1.429 . S
C3557 C3558 1.523 . S
C3558 C3542 1.368 . S
C3558 C3554 1.368 . S
C3558 C3557 1.523 . S
H3559 C3534 0.950 . S
H3560 C3536 0.950 . S
H3561 C3537 0.949 . S
H3562 C3539 0.950 . S
H3563 C3541 0.950 . S
C3564 C3565 1.349 . S
C3564 C3566 1.327 . S
C3564 H3589 0.950 . S
C3565 C3564 1.349 . S
C3565 C3581 1.349 . S
C3566 C3564 1.327 . S
C3566 C3585 1.429 . S
C3566 H3590 0.950 . S
C3567 C3584 1.574 . S
C3567 C3586 1.368 . S
C3567 H3591 0.949 . S
H3568 C3572 0.949 . S
C3569 C3570 1.349 . S
C3569 C3571 1.327 . S
C3569 H3592 0.950 . S
C3570 C3569 1.349 . S
C3570 C3582 1.349 . S
C3571 C3569 1.327 . S
C3571 C3587 1.429 . S
C3571 H3593 0.950 . S
C3572 H3568 0.949 . S
C3572 C3580 1.574 . S
C3572 C3588 1.368 . S
H3573 C3581 0.950 . S
H3574 C3579 0.950 . S
H3575 C3580 0.949 . S
H3576 C3582 0.950 . S
H3577 C3583 0.950 . S
H3578 C3584 0.949 . S
C3579 H3574 0.950 . S
C3579 C3581 1.327 . S
C3579 C3585 1.429 . S
C3580 C3572 1.574 . S
C3580 H3575 0.949 . S
C3580 C3586 1.368 . S
C3581 C3565 1.349 . S
C3581 H3573 0.950 . S
C3581 C3579 1.327 . S
C3582 C3570 1.349 . S
C3582 H3576 0.950 . S
C3582 C3583 1.327 . S
C3583 H3577 0.950 . S
C3583 C3582 1.327 . S
C3583 C3587 1.429 . S
C3584 C3567 1.574 . S
C3584 H3578 0.949 . S
C3584 C3588 1.368 . S
C3585 C3566 1.429 . S
C3585 C3579 1.429 . S
C3585 C3586 1.523 . S
C3586 C3567 1.368 . S
C3586 C3580 1.368 . S
C3586 C3585 1.523 . S
C3587 C3571 1.429 . S
C3587 C3583 1.429 . S
C3587 C3588 1.523 . S
C3588 C3572 1.368 . S
C3588 C3584 1.368 . S
C3588 C3587 1.523 . S
H3589 C3564 0.950 . S
H3590 C3566 0.950 . S
H3591 C3567 0.949 . S
H3592 C3569 0.950 . S
H3593 C3571 0.950 . S
C3594 C3595 1.349 . S
C3594 C3596 1.327 . S
C3594 H3619 0.950 . S
C3595 C3594 1.349 . S
C3595 C3611 1.349 . S
C3596 C3594 1.327 . S
C3596 C3615 1.429 . S
C3596 H3620 0.950 . S
C3597 C3614 1.574 . S
C3597 C3616 1.368 . S
C3597 H3621 0.949 . S
H3598 C3602 0.949 . S
C3599 C3600 1.349 . S
C3599 C3601 1.327 . S
C3599 H3622 0.950 . S
C3600 C3599 1.349 . S
C3600 C3612 1.349 . S
C3601 C3599 1.327 . S
C3601 C3617 1.429 . S
C3601 H3623 0.950 . S
C3602 H3598 0.949 . S
C3602 C3610 1.574 . S
C3602 C3618 1.368 . S
H3603 C3611 0.950 . S
H3604 C3609 0.950 . S
H3605 C3610 0.949 . S
H3606 C3612 0.950 . S
H3607 C3613 0.950 . S
H3608 C3614 0.949 . S
C3609 H3604 0.950 . S
C3609 C3611 1.327 . S
C3609 C3615 1.429 . S
C3610 C3602 1.574 . S
C3610 H3605 0.949 . S
C3610 C3616 1.368 . S
C3611 C3595 1.349 . S
C3611 H3603 0.950 . S
C3611 C3609 1.327 . S
C3612 C3600 1.349 . S
C3612 H3606 0.950 . S
C3612 C3613 1.327 . S
C3613 H3607 0.950 . S
C3613 C3612 1.327 . S
C3613 C3617 1.429 . S
C3614 C3597 1.574 . S
C3614 H3608 0.949 . S
C3614 C3618 1.368 . S
C3615 C3596 1.429 . S
C3615 C3609 1.429 . S
C3615 C3616 1.523 . S
C3616 C3597 1.368 . S
C3616 C3610 1.368 . S
C3616 C3615 1.523 . S
C3617 C3601 1.429 . S
C3617 C3613 1.429 . S
C3617 C3618 1.523 . S
C3618 C3602 1.368 . S
C3618 C3614 1.368 . S
C3618 C3617 1.523 . S
H3619 C3594 0.950 . S
H3620 C3596 0.950 . S
H3621 C3597 0.949 . S
H3622 C3599 0.950 . S
H3623 C3601 0.950 . S
C3624 C3625 1.349 . S
C3624 C3626 1.327 . S
C3624 H3649 0.950 . S
C3625 C3624 1.349 . S
C3625 C3641 1.349 . S
C3626 C3624 1.327 . S
C3626 C3645 1.429 . S
C3626 H3650 0.950 . S
C3627 C3644 1.574 . S
C3627 C3646 1.368 . S
C3627 H3651 0.949 . S
H3628 C3632 0.949 . S
C3629 C3630 1.349 . S
C3629 C3631 1.327 . S
C3629 H3652 0.950 . S
C3630 C3629 1.349 . S
C3630 C3642 1.349 . S
C3631 C3629 1.327 . S
C3631 C3647 1.429 . S
C3631 H3653 0.950 . S
C3632 H3628 0.949 . S
C3632 C3640 1.574 . S
C3632 C3648 1.368 . S
H3633 C3641 0.950 . S
H3634 C3639 0.950 . S
H3635 C3640 0.949 . S
H3636 C3642 0.950 . S
H3637 C3643 0.950 . S
H3638 C3644 0.949 . S
C3639 H3634 0.950 . S
C3639 C3641 1.327 . S
C3639 C3645 1.429 . S
C3640 C3632 1.574 . S
C3640 H3635 0.949 . S
C3640 C3646 1.368 . S
C3641 C3625 1.349 . S
C3641 H3633 0.950 . S
C3641 C3639 1.327 . S
C3642 C3630 1.349 . S
C3642 H3636 0.950 . S
C3642 C3643 1.327 . S
C3643 H3637 0.950 . S
C3643 C3642 1.327 . S
C3643 C3647 1.429 . S
C3644 C3627 1.574 . S
C3644 H3638 0.949 . S
C3644 C3648 1.368 . S
C3645 C3626 1.429 . S
C3645 C3639 1.429 . S
C3645 C3646 1.523 . S
C3646 C3627 1.368 . S
C3646 C3640 1.368 . S
C3646 C3645 1.523 . S
C3647 C3631 1.429 . S
C3647 C3643 1.429 . S
C3647 C3648 1.523 . S
C3648 C3632 1.368 . S
C3648 C3644 1.368 . S
C3648 C3647 1.523 . S
H3649 C3624 0.950 . S
H3650 C3626 0.950 . S
H3651 C3627 0.949 . S
H3652 C3629 0.950 . S
H3653 C3631 0.950 . S
C3654 C3655 1.349 . S
C3654 C3656 1.327 . S
C3654 H3679 0.950 . S
C3655 C3654 1.349 . S
C3655 C3671 1.349 . S
C3656 C3654 1.327 . S
C3656 C3675 1.429 . S
C3656 H3680 0.950 . S
C3657 C3674 1.574 . S
C3657 C3676 1.368 . S
C3657 H3681 0.949 . S
H3658 C3662 0.949 . S
C3659 C3660 1.349 . S
C3659 C3661 1.327 . S
C3659 H3682 0.950 . S
C3660 C3659 1.349 . S
C3660 C3672 1.349 . S
C3661 C3659 1.327 . S
C3661 C3677 1.429 . S
C3661 H3683 0.950 . S
C3662 H3658 0.949 . S
C3662 C3670 1.574 . S
C3662 C3678 1.368 . S
H3663 C3671 0.950 . S
H3664 C3669 0.950 . S
H3665 C3670 0.949 . S
H3666 C3672 0.950 . S
H3667 C3673 0.950 . S
H3668 C3674 0.949 . S
C3669 H3664 0.950 . S
C3669 C3671 1.327 . S
C3669 C3675 1.429 . S
C3670 C3662 1.574 . S
C3670 H3665 0.949 . S
C3670 C3676 1.368 . S
C3671 C3655 1.349 . S
C3671 H3663 0.950 . S
C3671 C3669 1.327 . S
C3672 C3660 1.349 . S
C3672 H3666 0.950 . S
C3672 C3673 1.327 . S
C3673 H3667 0.950 . S
C3673 C3672 1.327 . S
C3673 C3677 1.429 . S
C3674 C3657 1.574 . S
C3674 H3668 0.949 . S
C3674 C3678 1.368 . S
C3675 C3656 1.429 . S
C3675 C3669 1.429 . S
C3675 C3676 1.523 . S
C3676 C3657 1.368 . S
C3676 C3670 1.368 . S
C3676 C3675 1.523 . S
C3677 C3661 1.429 . S
C3677 C3673 1.429 . S
C3677 C3678 1.523 . S
C3678 C3662 1.368 . S
C3678 C3674 1.368 . S
C3678 C3677 1.523 . S
H3679 C3654 0.950 . S
H3680 C3656 0.950 . S
H3681 C3657 0.949 . S
H3682 C3659 0.950 . S
H3683 C3661 0.950 . S
C3684 C3685 1.349 . S
C3684 C3686 1.327 . S
C3684 H3709 0.950 . S
C3685 C3684 1.349 . S
C3685 C3701 1.349 . S
C3686 C3684 1.327 . S
C3686 C3705 1.429 . S
C3686 H3710 0.950 . S
C3687 C3704 1.574 . S
C3687 C3706 1.368 . S
C3687 H3711 0.949 . S
H3688 C3692 0.949 . S
C3689 C3690 1.349 . S
C3689 C3691 1.327 . S
C3689 H3712 0.950 . S
C3690 C3689 1.349 . S
C3690 C3702 1.349 . S
C3691 C3689 1.327 . S
C3691 C3707 1.429 . S
C3691 H3713 0.950 . S
C3692 H3688 0.949 . S
C3692 C3700 1.574 . S
C3692 C3708 1.368 . S
H3693 C3701 0.950 . S
H3694 C3699 0.950 . S
H3695 C3700 0.949 . S
H3696 C3702 0.950 . S
H3697 C3703 0.950 . S
H3698 C3704 0.949 . S
C3699 H3694 0.950 . S
C3699 C3701 1.327 . S
C3699 C3705 1.429 . S
C3700 C3692 1.574 . S
C3700 H3695 0.949 . S
C3700 C3706 1.368 . S
C3701 C3685 1.349 . S
C3701 H3693 0.950 . S
C3701 C3699 1.327 . S
C3702 C3690 1.349 . S
C3702 H3696 0.950 . S
C3702 C3703 1.327 . S
C3703 H3697 0.950 . S
C3703 C3702 1.327 . S
C3703 C3707 1.429 . S
C3704 C3687 1.574 . S
C3704 H3698 0.949 . S
C3704 C3708 1.368 . S
C3705 C3686 1.429 . S
C3705 C3699 1.429 . S
C3705 C3706 1.523 . S
C3706 C3687 1.368 . S
C3706 C3700 1.368 . S
C3706 C3705 1.523 . S
C3707 C3691 1.429 . S
C3707 C3703 1.429 . S
C3707 C3708 1.523 . S
C3708 C3692 1.368 . S
C3708 C3704 1.368 . S
C3708 C3707 1.523 . S
H3709 C3684 0.950 . S
H3710 C3686 0.950 . S
H3711 C3687 0.949 . S
H3712 C3689 0.950 . S
H3713 C3691 0.950 . S
C3714 C3715 1.349 . S
C3714 C3716 1.327 . S
C3714 H3739 0.950 . S
C3715 C3714 1.349 . S
C3715 C3731 1.349 . S
C3716 C3714 1.327 . S
C3716 C3735 1.429 . S
C3716 H3740 0.950 . S
C3717 C3734 1.574 . S
C3717 C3736 1.368 . S
C3717 H3741 0.949 . S
H3718 C3722 0.949 . S
C3719 C3720 1.349 . S
C3719 C3721 1.327 . S
C3719 H3742 0.950 . S
C3720 C3719 1.349 . S
C3720 C3732 1.349 . S
C3721 C3719 1.327 . S
C3721 C3737 1.429 . S
C3721 H3743 0.950 . S
C3722 H3718 0.949 . S
C3722 C3730 1.574 . S
C3722 C3738 1.368 . S
H3723 C3731 0.950 . S
H3724 C3729 0.950 . S
H3725 C3730 0.949 . S
H3726 C3732 0.950 . S
H3727 C3733 0.950 . S
H3728 C3734 0.949 . S
C3729 H3724 0.950 . S
C3729 C3731 1.327 . S
C3729 C3735 1.429 . S
C3730 C3722 1.574 . S
C3730 H3725 0.949 . S
C3730 C3736 1.368 . S
C3731 C3715 1.349 . S
C3731 H3723 0.950 . S
C3731 C3729 1.327 . S
C3732 C3720 1.349 . S
C3732 H3726 0.950 . S
C3732 C3733 1.327 . S
C3733 H3727 0.950 . S
C3733 C3732 1.327 . S
C3733 C3737 1.429 . S
C3734 C3717 1.574 . S
C3734 H3728 0.949 . S
C3734 C3738 1.368 . S
C3735 C3716 1.429 . S
C3735 C3729 1.429 . S
C3735 C3736 1.523 . S
C3736 C3717 1.368 . S
C3736 C3730 1.368 . S
C3736 C3735 1.523 . S
C3737 C3721 1.429 . S
C3737 C3733 1.429 . S
C3737 C3738 1.523 . S
C3738 C3722 1.368 . S
C3738 C3734 1.368 . S
C3738 C3737 1.523 . S
H3739 C3714 0.950 . S
H3740 C3716 0.950 . S
H3741 C3717 0.949 . S
H3742 C3719 0.950 . S
H3743 C3721 0.950 . S
C3744 C3745 1.349 . S
C3744 C3746 1.327 . S
C3744 H3769 0.950 . S
C3745 C3744 1.349 . S
C3745 C3761 1.349 . S
C3746 C3744 1.327 . S
C3746 C3765 1.429 . S
C3746 H3770 0.950 . S
C3747 C3764 1.574 . S
C3747 C3766 1.368 . S
C3747 H3771 0.949 . S
H3748 C3752 0.949 . S
C3749 C3750 1.349 . S
C3749 C3751 1.327 . S
C3749 H3772 0.950 . S
C3750 C3749 1.349 . S
C3750 C3762 1.349 . S
C3751 C3749 1.327 . S
C3751 C3767 1.429 . S
C3751 H3773 0.950 . S
C3752 H3748 0.949 . S
C3752 C3760 1.574 . S
C3752 C3768 1.368 . S
H3753 C3761 0.950 . S
H3754 C3759 0.950 . S
H3755 C3760 0.949 . S
H3756 C3762 0.950 . S
H3757 C3763 0.950 . S
H3758 C3764 0.949 . S
C3759 H3754 0.950 . S
C3759 C3761 1.327 . S
C3759 C3765 1.429 . S
C3760 C3752 1.574 . S
C3760 H3755 0.949 . S
C3760 C3766 1.368 . S
C3761 C3745 1.349 . S
C3761 H3753 0.950 . S
C3761 C3759 1.327 . S
C3762 C3750 1.349 . S
C3762 H3756 0.950 . S
C3762 C3763 1.327 . S
C3763 H3757 0.950 . S
C3763 C3762 1.327 . S
C3763 C3767 1.429 . S
C3764 C3747 1.574 . S
C3764 H3758 0.949 . S
C3764 C3768 1.368 . S
C3765 C3746 1.429 . S
C3765 C3759 1.429 . S
C3765 C3766 1.523 . S
C3766 C3747 1.368 . S
C3766 C3760 1.368 . S
C3766 C3765 1.523 . S
C3767 C3751 1.429 . S
C3767 C3763 1.429 . S
C3767 C3768 1.523 . S
C3768 C3752 1.368 . S
C3768 C3764 1.368 . S
C3768 C3767 1.523 . S
H3769 C3744 0.950 . S
H3770 C3746 0.950 . S
H3771 C3747 0.949 . S
H3772 C3749 0.950 . S
H3773 C3751 0.950 . S
C3774 C3775 1.349 . S
C3774 C3776 1.327 . S
C3774 H3799 0.950 . S
C3775 C3774 1.349 . S
C3775 C3791 1.349 . S
C3776 C3774 1.327 . S
C3776 C3795 1.429 . S
C3776 H3800 0.950 . S
C3777 C3794 1.574 . S
C3777 C3796 1.368 . S
C3777 H3801 0.949 . S
H3778 C3782 0.949 . S
C3779 C3780 1.349 . S
C3779 C3781 1.327 . S
C3779 H3802 0.950 . S
C3780 C3779 1.349 . S
C3780 C3792 1.349 . S
C3781 C3779 1.327 . S
C3781 C3797 1.429 . S
C3781 H3803 0.950 . S
C3782 H3778 0.949 . S
C3782 C3790 1.574 . S
C3782 C3798 1.368 . S
H3783 C3791 0.950 . S
H3784 C3789 0.950 . S
H3785 C3790 0.949 . S
H3786 C3792 0.950 . S
H3787 C3793 0.950 . S
H3788 C3794 0.949 . S
C3789 H3784 0.950 . S
C3789 C3791 1.327 . S
C3789 C3795 1.429 . S
C3790 C3782 1.574 . S
C3790 H3785 0.949 . S
C3790 C3796 1.368 . S
C3791 C3775 1.349 . S
C3791 H3783 0.950 . S
C3791 C3789 1.327 . S
C3792 C3780 1.349 . S
C3792 H3786 0.950 . S
C3792 C3793 1.327 . S
C3793 H3787 0.950 . S
C3793 C3792 1.327 . S
C3793 C3797 1.429 . S
C3794 C3777 1.574 . S
C3794 H3788 0.949 . S
C3794 C3798 1.368 . S
C3795 C3776 1.429 . S
C3795 C3789 1.429 . S
C3795 C3796 1.523 . S
C3796 C3777 1.368 . S
C3796 C3790 1.368 . S
C3796 C3795 1.523 . S
C3797 C3781 1.429 . S
C3797 C3793 1.429 . S
C3797 C3798 1.523 . S
C3798 C3782 1.368 . S
C3798 C3794 1.368 . S
C3798 C3797 1.523 . S
H3799 C3774 0.950 . S
H3800 C3776 0.950 . S
H3801 C3777 0.949 . S
H3802 C3779 0.950 . S
H3803 C3781 0.950 . S
C3804 C3805 1.349 . S
C3804 C3806 1.327 . S
C3804 H3829 0.950 . S
C3805 C3804 1.349 . S
C3805 C3821 1.349 . S
C3806 C3804 1.327 . S
C3806 C3825 1.429 . S
C3806 H3830 0.950 . S
C3807 C3824 1.574 . S
C3807 C3826 1.368 . S
C3807 H3831 0.949 . S
H3808 C3812 0.949 . S
C3809 C3810 1.349 . S
C3809 C3811 1.327 . S
C3809 H3832 0.950 . S
C3810 C3809 1.349 . S
C3810 C3822 1.349 . S
C3811 C3809 1.327 . S
C3811 C3827 1.429 . S
C3811 H3833 0.950 . S
C3812 H3808 0.949 . S
C3812 C3820 1.574 . S
C3812 C3828 1.368 . S
H3813 C3821 0.950 . S
H3814 C3819 0.950 . S
H3815 C3820 0.949 . S
H3816 C3822 0.950 . S
H3817 C3823 0.950 . S
H3818 C3824 0.949 . S
C3819 H3814 0.950 . S
C3819 C3821 1.327 . S
C3819 C3825 1.429 . S
C3820 C3812 1.574 . S
C3820 H3815 0.949 . S
C3820 C3826 1.368 . S
C3821 C3805 1.349 . S
C3821 H3813 0.950 . S
C3821 C3819 1.327 . S
C3822 C3810 1.349 . S
C3822 H3816 0.950 . S
C3822 C3823 1.327 . S
C3823 H3817 0.950 . S
C3823 C3822 1.327 . S
C3823 C3827 1.429 . S
C3824 C3807 1.574 . S
C3824 H3818 0.949 . S
C3824 C3828 1.368 . S
C3825 C3806 1.429 . S
C3825 C3819 1.429 . S
C3825 C3826 1.523 . S
C3826 C3807 1.368 . S
C3826 C3820 1.368 . S
C3826 C3825 1.523 . S
C3827 C3811 1.429 . S
C3827 C3823 1.429 . S
C3827 C3828 1.523 . S
C3828 C3812 1.368 . S
C3828 C3824 1.368 . S
C3828 C3827 1.523 . S
H3829 C3804 0.950 . S
H3830 C3806 0.950 . S
H3831 C3807 0.949 . S
H3832 C3809 0.950 . S
H3833 C3811 0.950 . S
C3834 C3835 1.349 . S
C3834 C3836 1.327 . S
C3834 H3859 0.950 . S
C3835 C3834 1.349 . S
C3835 C3851 1.349 . S
C3836 C3834 1.327 . S
C3836 C3855 1.429 . S
C3836 H3860 0.950 . S
C3837 C3854 1.574 . S
C3837 C3856 1.368 . S
C3837 H3861 0.949 . S
H3838 C3842 0.949 . S
C3839 C3840 1.349 . S
C3839 C3841 1.327 . S
C3839 H3862 0.950 . S
C3840 C3839 1.349 . S
C3840 C3852 1.349 . S
C3841 C3839 1.327 . S
C3841 C3857 1.429 . S
C3841 H3863 0.950 . S
C3842 H3838 0.949 . S
C3842 C3850 1.574 . S
C3842 C3858 1.368 . S
H3843 C3851 0.950 . S
H3844 C3849 0.950 . S
H3845 C3850 0.949 . S
H3846 C3852 0.950 . S
H3847 C3853 0.950 . S
H3848 C3854 0.949 . S
C3849 H3844 0.950 . S
C3849 C3851 1.327 . S
C3849 C3855 1.429 . S
C3850 C3842 1.574 . S
C3850 H3845 0.949 . S
C3850 C3856 1.368 . S
C3851 C3835 1.349 . S
C3851 H3843 0.950 . S
C3851 C3849 1.327 . S
C3852 C3840 1.349 . S
C3852 H3846 0.950 . S
C3852 C3853 1.327 . S
C3853 H3847 0.950 . S
C3853 C3852 1.327 . S
C3853 C3857 1.429 . S
C3854 C3837 1.574 . S
C3854 H3848 0.949 . S
C3854 C3858 1.368 . S
C3855 C3836 1.429 . S
C3855 C3849 1.429 . S
C3855 C3856 1.523 . S
C3856 C3837 1.368 . S
C3856 C3850 1.368 . S
C3856 C3855 1.523 . S
C3857 C3841 1.429 . S
C3857 C3853 1.429 . S
C3857 C3858 1.523 . S
C3858 C3842 1.368 . S
C3858 C3854 1.368 . S
C3858 C3857 1.523 . S
H3859 C3834 0.950 . S
H3860 C3836 0.950 . S
H3861 C3837 0.949 . S
H3862 C3839 0.950 . S
H3863 C3841 0.950 . S
C3864 C3865 1.349 . S
C3864 C3866 1.327 . S
C3864 H3889 0.950 . S
C3865 C3864 1.349 . S
C3865 C3881 1.349 . S
C3866 C3864 1.327 . S
C3866 C3885 1.429 . S
C3866 H3890 0.950 . S
C3867 C3884 1.574 . S
C3867 C3886 1.368 . S
C3867 H3891 0.949 . S
H3868 C3872 0.949 . S
C3869 C3870 1.349 . S
C3869 C3871 1.327 . S
C3869 H3892 0.950 . S
C3870 C3869 1.349 . S
C3870 C3882 1.349 . S
C3871 C3869 1.327 . S
C3871 C3887 1.429 . S
C3871 H3893 0.950 . S
C3872 H3868 0.949 . S
C3872 C3880 1.574 . S
C3872 C3888 1.368 . S
H3873 C3881 0.950 . S
H3874 C3879 0.950 . S
H3875 C3880 0.949 . S
H3876 C3882 0.950 . S
H3877 C3883 0.950 . S
H3878 C3884 0.949 . S
C3879 H3874 0.950 . S
C3879 C3881 1.327 . S
C3879 C3885 1.429 . S
C3880 C3872 1.574 . S
C3880 H3875 0.949 . S
C3880 C3886 1.368 . S
C3881 C3865 1.349 . S
C3881 H3873 0.950 . S
C3881 C3879 1.327 . S
C3882 C3870 1.349 . S
C3882 H3876 0.950 . S
C3882 C3883 1.327 . S
C3883 H3877 0.950 . S
C3883 C3882 1.327 . S
C3883 C3887 1.429 . S
C3884 C3867 1.574 . S
C3884 H3878 0.949 . S
C3884 C3888 1.368 . S
C3885 C3866 1.429 . S
C3885 C3879 1.429 . S
C3885 C3886 1.523 . S
C3886 C3867 1.368 . S
C3886 C3880 1.368 . S
C3886 C3885 1.523 . S
C3887 C3871 1.429 . S
C3887 C3883 1.429 . S
C3887 C3888 1.523 . S
C3888 C3872 1.368 . S
C3888 C3884 1.368 . S
C3888 C3887 1.523 . S
H3889 C3864 0.950 . S
H3890 C3866 0.950 . S
H3891 C3867 0.949 . S
H3892 C3869 0.950 . S
H3893 C3871 0.950 . S
C3894 C3895 1.349 . S
C3894 C3896 1.327 . S
C3894 H3919 0.950 . S
C3895 C3894 1.349 . S
C3895 C3911 1.349 . S
C3896 C3894 1.327 . S
C3896 C3915 1.429 . S
C3896 H3920 0.950 . S
C3897 C3914 1.574 . S
C3897 C3916 1.368 . S
C3897 H3921 0.949 . S
H3898 C3902 0.949 . S
C3899 C3900 1.349 . S
C3899 C3901 1.327 . S
C3899 H3922 0.950 . S
C3900 C3899 1.349 . S
C3900 C3912 1.349 . S
C3901 C3899 1.327 . S
C3901 C3917 1.429 . S
C3901 H3923 0.950 . S
C3902 H3898 0.949 . S
C3902 C3910 1.574 . S
C3902 C3918 1.368 . S
H3903 C3911 0.950 . S
H3904 C3909 0.950 . S
H3905 C3910 0.949 . S
H3906 C3912 0.950 . S
H3907 C3913 0.950 . S
H3908 C3914 0.949 . S
C3909 H3904 0.950 . S
C3909 C3911 1.327 . S
C3909 C3915 1.429 . S
C3910 C3902 1.574 . S
C3910 H3905 0.949 . S
C3910 C3916 1.368 . S
C3911 C3895 1.349 . S
C3911 H3903 0.950 . S
C3911 C3909 1.327 . S
C3912 C3900 1.349 . S
C3912 H3906 0.950 . S
C3912 C3913 1.327 . S
C3913 H3907 0.950 . S
C3913 C3912 1.327 . S
C3913 C3917 1.429 . S
C3914 C3897 1.574 . S
C3914 H3908 0.949 . S
C3914 C3918 1.368 . S
C3915 C3896 1.429 . S
C3915 C3909 1.429 . S
C3915 C3916 1.523 . S
C3916 C3897 1.368 . S
C3916 C3910 1.368 . S
C3916 C3915 1.523 . S
C3917 C3901 1.429 . S
C3917 C3913 1.429 . S
C3917 C3918 1.523 . S
C3918 C3902 1.368 . S
C3918 C3914 1.368 . S
C3918 C3917 1.523 . S
H3919 C3894 0.950 . S
H3920 C3896 0.950 . S
H3921 C3897 0.949 . S
H3922 C3899 0.950 . S
H3923 C3901 0.950 . S
C3924 C3925 1.349 . S
C3924 C3926 1.327 . S
C3924 H3949 0.950 . S
C3925 C3924 1.349 . S
C3925 C3941 1.349 . S
C3926 C3924 1.327 . S
C3926 C3945 1.429 . S
C3926 H3950 0.950 . S
C3927 C3944 1.574 . S
C3927 C3946 1.368 . S
C3927 H3951 0.949 . S
H3928 C3932 0.949 . S
C3929 C3930 1.349 . S
C3929 C3931 1.327 . S
C3929 H3952 0.950 . S
C3930 C3929 1.349 . S
C3930 C3942 1.349 . S
C3931 C3929 1.327 . S
C3931 C3947 1.429 . S
C3931 H3953 0.950 . S
C3932 H3928 0.949 . S
C3932 C3940 1.574 . S
C3932 C3948 1.368 . S
H3933 C3941 0.950 . S
H3934 C3939 0.950 . S
H3935 C3940 0.949 . S
H3936 C3942 0.950 . S
H3937 C3943 0.950 . S
H3938 C3944 0.949 . S
C3939 H3934 0.950 . S
C3939 C3941 1.327 . S
C3939 C3945 1.429 . S
C3940 C3932 1.574 . S
C3940 H3935 0.949 . S
C3940 C3946 1.368 . S
C3941 C3925 1.349 . S
C3941 H3933 0.950 . S
C3941 C3939 1.327 . S
C3942 C3930 1.349 . S
C3942 H3936 0.950 . S
C3942 C3943 1.327 . S
C3943 H3937 0.950 . S
C3943 C3942 1.327 . S
C3943 C3947 1.429 . S
C3944 C3927 1.574 . S
C3944 H3938 0.949 . S
C3944 C3948 1.368 . S
C3945 C3926 1.429 . S
C3945 C3939 1.429 . S
C3945 C3946 1.523 . S
C3946 C3927 1.368 . S
C3946 C3940 1.368 . S
C3946 C3945 1.523 . S
C3947 C3931 1.429 . S
C3947 C3943 1.429 . S
C3947 C3948 1.523 . S
C3948 C3932 1.368 . S
C3948 C3944 1.368 . S
C3948 C3947 1.523 . S
H3949 C3924 0.950 . S
H3950 C3926 0.950 . S
H3951 C3927 0.949 . S
H3952 C3929 0.950 . S
H3953 C3931 0.950 . S
C3954 C3955 1.349 . S
C3954 C3956 1.327 . S
C3954 H3979 0.950 . S
C3955 C3954 1.349 . S
C3955 C3971 1.349 . S
C3956 C3954 1.327 . S
C3956 C3975 1.429 . S
C3956 H3980 0.950 . S
C3957 C3974 1.574 . S
C3957 C3976 1.368 . S
C3957 H3981 0.949 . S
H3958 C3962 0.949 . S
C3959 C3960 1.349 . S
C3959 C3961 1.327 . S
C3959 H3982 0.950 . S
C3960 C3959 1.349 . S
C3960 C3972 1.349 . S
C3961 C3959 1.327 . S
C3961 C3977 1.429 . S
C3961 H3983 0.950 . S
C3962 H3958 0.949 . S
C3962 C3970 1.574 . S
C3962 C3978 1.368 . S
H3963 C3971 0.950 . S
H3964 C3969 0.950 . S
H3965 C3970 0.949 . S
H3966 C3972 0.950 . S
H3967 C3973 0.950 . S
H3968 C3974 0.949 . S
C3969 H3964 0.950 . S
C3969 C3971 1.327 . S
C3969 C3975 1.429 . S
C3970 C3962 1.574 . S
C3970 H3965 0.949 . S
C3970 C3976 1.368 . S
C3971 C3955 1.349 . S
C3971 H3963 0.950 . S
C3971 C3969 1.327 . S
C3972 C3960 1.349 . S
C3972 H3966 0.950 . S
C3972 C3973 1.327 . S
C3973 H3967 0.950 . S
C3973 C3972 1.327 . S
C3973 C3977 1.429 . S
C3974 C3957 1.574 . S
C3974 H3968 0.949 . S
C3974 C3978 1.368 . S
C3975 C3956 1.429 . S
C3975 C3969 1.429 . S
C3975 C3976 1.523 . S
C3976 C3957 1.368 . S
C3976 C3970 1.368 . S
C3976 C3975 1.523 . S
C3977 C3961 1.429 . S
C3977 C3973 1.429 . S
C3977 C3978 1.523 . S
C3978 C3962 1.368 . S
C3978 C3974 1.368 . S
C3978 C3977 1.523 . S
H3979 C3954 0.950 . S
H3980 C3956 0.950 . S
H3981 C3957 0.949 . S
H3982 C3959 0.950 . S
H3983 C3961 0.950 . S
C3984 C3985 1.349 . S
C3984 C3986 1.327 . S
C3984 H4009 0.950 . S
C3985 C3984 1.349 . S
C3985 C4001 1.349 . S
C3986 C3984 1.327 . S
C3986 C4005 1.429 . S
C3986 H4010 0.950 . S
C3987 C4004 1.574 . S
C3987 C4006 1.368 . S
C3987 H4011 0.949 . S
H3988 C3992 0.949 . S
C3989 C3990 1.349 . S
C3989 C3991 1.327 . S
C3989 H4012 0.950 . S
C3990 C3989 1.349 . S
C3990 C4002 1.349 . S
C3991 C3989 1.327 . S
C3991 C4007 1.429 . S
C3991 H4013 0.950 . S
C3992 H3988 0.949 . S
C3992 C4000 1.574 . S
C3992 C4008 1.368 . S
H3993 C4001 0.950 . S
H3994 C3999 0.950 . S
H3995 C4000 0.949 . S
H3996 C4002 0.950 . S
H3997 C4003 0.950 . S
H3998 C4004 0.949 . S
C3999 H3994 0.950 . S
C3999 C4001 1.327 . S
C3999 C4005 1.429 . S
C4000 C3992 1.574 . S
C4000 H3995 0.949 . S
C4000 C4006 1.368 . S
C4001 C3985 1.349 . S
C4001 H3993 0.950 . S
C4001 C3999 1.327 . S
C4002 C3990 1.349 . S
C4002 H3996 0.950 . S
C4002 C4003 1.327 . S
C4003 H3997 0.950 . S
C4003 C4002 1.327 . S
C4003 C4007 1.429 . S
C4004 C3987 1.574 . S
C4004 H3998 0.949 . S
C4004 C4008 1.368 . S
C4005 C3986 1.429 . S
C4005 C3999 1.429 . S
C4005 C4006 1.523 . S
C4006 C3987 1.368 . S
C4006 C4000 1.368 . S
C4006 C4005 1.523 . S
C4007 C3991 1.429 . S
C4007 C4003 1.429 . S
C4007 C4008 1.523 . S
C4008 C3992 1.368 . S
C4008 C4004 1.368 . S
C4008 C4007 1.523 . S
H4009 C3984 0.950 . S
H4010 C3986 0.950 . S
H4011 C3987 0.949 . S
H4012 C3989 0.950 . S
H4013 C3991 0.950 . S
C4014 C4015 1.349 . S
C4014 C4016 1.327 . S
C4014 H4039 0.950 . S
C4015 C4014 1.349 . S
C4015 C4031 1.349 . S
C4016 C4014 1.327 . S
C4016 C4035 1.429 . S
C4016 H4040 0.950 . S
C4017 C4034 1.574 . S
C4017 C4036 1.368 . S
C4017 H4041 0.949 . S
H4018 C4022 0.949 . S
C4019 C4020 1.349 . S
C4019 C4021 1.327 . S
C4019 H4042 0.950 . S
C4020 C4019 1.349 . S
C4020 C4032 1.349 . S
C4021 C4019 1.327 . S
C4021 C4037 1.429 . S
C4021 H4043 0.950 . S
C4022 H4018 0.949 . S
C4022 C4030 1.574 . S
C4022 C4038 1.368 . S
H4023 C4031 0.950 . S
H4024 C4029 0.950 . S
H4025 C4030 0.949 . S
H4026 C4032 0.950 . S
H4027 C4033 0.950 . S
H4028 C4034 0.949 . S
C4029 H4024 0.950 . S
C4029 C4031 1.327 . S
C4029 C4035 1.429 . S
C4030 C4022 1.574 . S
C4030 H4025 0.949 . S
C4030 C4036 1.368 . S
C4031 C4015 1.349 . S
C4031 H4023 0.950 . S
C4031 C4029 1.327 . S
C4032 C4020 1.349 . S
C4032 H4026 0.950 . S
C4032 C4033 1.327 . S
C4033 H4027 0.950 . S
C4033 C4032 1.327 . S
C4033 C4037 1.429 . S
C4034 C4017 1.574 . S
C4034 H4028 0.949 . S
C4034 C4038 1.368 . S
C4035 C4016 1.429 . S
C4035 C4029 1.429 . S
C4035 C4036 1.523 . S
C4036 C4017 1.368 . S
C4036 C4030 1.368 . S
C4036 C4035 1.523 . S
C4037 C4021 1.429 . S
C4037 C4033 1.429 . S
C4037 C4038 1.523 . S
C4038 C4022 1.368 . S
C4038 C4034 1.368 . S
C4038 C4037 1.523 . S
H4039 C4014 0.950 . S
H4040 C4016 0.950 . S
H4041 C4017 0.949 . S
H4042 C4019 0.950 . S
H4043 C4021 0.950 . S
C4044 C4045 1.349 . S
C4044 C4046 1.327 . S
C4044 H4069 0.950 . S
C4045 C4044 1.349 . S
C4045 C4061 1.349 . S
C4046 C4044 1.327 . S
C4046 C4065 1.429 . S
C4046 H4070 0.950 . S
C4047 C4064 1.574 . S
C4047 C4066 1.368 . S
C4047 H4071 0.949 . S
H4048 C4052 0.949 . S
C4049 C4050 1.349 . S
C4049 C4051 1.327 . S
C4049 H4072 0.950 . S
C4050 C4049 1.349 . S
C4050 C4062 1.349 . S
C4051 C4049 1.327 . S
C4051 C4067 1.429 . S
C4051 H4073 0.950 . S
C4052 H4048 0.949 . S
C4052 C4060 1.574 . S
C4052 C4068 1.368 . S
H4053 C4061 0.950 . S
H4054 C4059 0.950 . S
H4055 C4060 0.949 . S
H4056 C4062 0.950 . S
H4057 C4063 0.950 . S
H4058 C4064 0.949 . S
C4059 H4054 0.950 . S
C4059 C4061 1.327 . S
C4059 C4065 1.429 . S
C4060 C4052 1.574 . S
C4060 H4055 0.949 . S
C4060 C4066 1.368 . S
C4061 C4045 1.349 . S
C4061 H4053 0.950 . S
C4061 C4059 1.327 . S
C4062 C4050 1.349 . S
C4062 H4056 0.950 . S
C4062 C4063 1.327 . S
C4063 H4057 0.950 . S
C4063 C4062 1.327 . S
C4063 C4067 1.429 . S
C4064 C4047 1.574 . S
C4064 H4058 0.949 . S
C4064 C4068 1.368 . S
C4065 C4046 1.429 . S
C4065 C4059 1.429 . S
C4065 C4066 1.523 . S
C4066 C4047 1.368 . S
C4066 C4060 1.368 . S
C4066 C4065 1.523 . S
C4067 C4051 1.429 . S
C4067 C4063 1.429 . S
C4067 C4068 1.523 . S
C4068 C4052 1.368 . S
C4068 C4064 1.368 . S
C4068 C4067 1.523 . S
H4069 C4044 0.950 . S
H4070 C4046 0.950 . S
H4071 C4047 0.949 . S
H4072 C4049 0.950 . S
H4073 C4051 0.950 . S
C4074 C4075 1.349 . S
C4074 C4076 1.327 . S
C4074 H4099 0.950 . S
C4075 C4074 1.349 . S
C4075 C4091 1.349 . S
C4076 C4074 1.327 . S
C4076 C4095 1.429 . S
C4076 H4100 0.950 . S
C4077 C4094 1.574 . S
C4077 C4096 1.368 . S
C4077 H4101 0.949 . S
H4078 C4082 0.949 . S
C4079 C4080 1.349 . S
C4079 C4081 1.327 . S
C4079 H4102 0.950 . S
C4080 C4079 1.349 . S
C4080 C4092 1.349 . S
C4081 C4079 1.327 . S
C4081 C4097 1.429 . S
C4081 H4103 0.950 . S
C4082 H4078 0.949 . S
C4082 C4090 1.574 . S
C4082 C4098 1.368 . S
H4083 C4091 0.950 . S
H4084 C4089 0.950 . S
H4085 C4090 0.949 . S
H4086 C4092 0.950 . S
H4087 C4093 0.950 . S
H4088 C4094 0.949 . S
C4089 H4084 0.950 . S
C4089 C4091 1.327 . S
C4089 C4095 1.429 . S
C4090 C4082 1.574 . S
C4090 H4085 0.949 . S
C4090 C4096 1.368 . S
C4091 C4075 1.349 . S
C4091 H4083 0.950 . S
C4091 C4089 1.327 . S
C4092 C4080 1.349 . S
C4092 H4086 0.950 . S
C4092 C4093 1.327 . S
C4093 H4087 0.950 . S
C4093 C4092 1.327 . S
C4093 C4097 1.429 . S
C4094 C4077 1.574 . S
C4094 H4088 0.949 . S
C4094 C4098 1.368 . S
C4095 C4076 1.429 . S
C4095 C4089 1.429 . S
C4095 C4096 1.523 . S
C4096 C4077 1.368 . S
C4096 C4090 1.368 . S
C4096 C4095 1.523 . S
C4097 C4081 1.429 . S
C4097 C4093 1.429 . S
C4097 C4098 1.523 . S
C4098 C4082 1.368 . S
C4098 C4094 1.368 . S
C4098 C4097 1.523 . S
H4099 C4074 0.950 . S
H4100 C4076 0.950 . S
H4101 C4077 0.949 . S
H4102 C4079 0.950 . S
H4103 C4081 0.950 . S
C4104 C4105 1.349 . S
C4104 C4106 1.327 . S
C4104 H4129 0.950 . S
C4105 C4104 1.349 . S
C4105 C4121 1.349 . S
C4106 C4104 1.327 . S
C4106 C4125 1.429 . S
C4106 H4130 0.950 . S
C4107 C4124 1.574 1_455 S
C4107 C4126 1.368 . S
C4107 H4131 0.949 . S
H4108 C4112 0.949 . S
C4109 C4110 1.349 . S
C4109 C4111 1.327 . S
C4109 H4132 0.950 . S
C4110 C4109 1.349 . S
C4110 C4122 1.349 . S
C4111 C4109 1.327 . S
C4111 C4127 1.429 . S
C4111 H4133 0.950 . S
C4112 H4108 0.949 . S
C4112 C4120 1.574 1_655 S
C4112 C4128 1.368 . S
H4113 C4121 0.950 . S
H4114 C4119 0.950 . S
H4115 C4120 0.949 . S
H4116 C4122 0.950 . S
H4117 C4123 0.950 . S
H4118 C4124 0.949 . S
C4119 H4114 0.950 . S
C4119 C4121 1.327 . S
C4119 C4125 1.429 . S
C4120 C4112 1.574 1_455 S
C4120 H4115 0.949 . S
C4120 C4126 1.368 . S
C4121 C4105 1.349 . S
C4121 H4113 0.950 . S
C4121 C4119 1.327 . S
C4122 C4110 1.349 . S
C4122 H4116 0.950 . S
C4122 C4123 1.327 . S
C4123 H4117 0.950 . S
C4123 C4122 1.327 . S
C4123 C4127 1.429 . S
C4124 C4107 1.574 1_655 S
C4124 H4118 0.949 . S
C4124 C4128 1.368 . S
C4125 C4106 1.429 . S
C4125 C4119 1.429 . S
C4125 C4126 1.523 . S
C4126 C4107 1.368 . S
C4126 C4120 1.368 . S
C4126 C4125 1.523 . S
C4127 C4111 1.429 . S
C4127 C4123 1.429 . S
C4127 C4128 1.523 . S
C4128 C4112 1.368 . S
C4128 C4124 1.368 . S
C4128 C4127 1.523 . S
H4129 C4104 0.950 . S
H4130 C4106 0.950 . S
H4131 C4107 0.949 . S
H4132 C4109 0.950 . S
H4133 C4111 0.950 . S
C4134 C4135 1.349 . S
C4134 C4136 1.327 . S
C4134 H4159 0.950 . S
C4135 C4134 1.349 . S
C4135 C4151 1.349 . S
C4136 C4134 1.327 . S
C4136 C4155 1.429 . S
C4136 H4160 0.950 . S
C4137 C4154 1.574 . S
C4137 C4156 1.368 . S
C4137 H4161 0.949 . S
H4138 C4142 0.949 . S
C4139 C4140 1.349 . S
C4139 C4141 1.327 . S
C4139 H4162 0.950 . S
C4140 C4139 1.349 . S
C4140 C4152 1.349 . S
C4141 C4139 1.327 . S
C4141 C4157 1.429 . S
C4141 H4163 0.950 . S
C4142 H4138 0.949 . S
C4142 C4150 1.574 . S
C4142 C4158 1.368 . S
H4143 C4151 0.950 . S
H4144 C4149 0.950 . S
H4145 C4150 0.949 . S
H4146 C4152 0.950 . S
H4147 C4153 0.950 . S
H4148 C4154 0.949 . S
C4149 H4144 0.950 . S
C4149 C4151 1.327 . S
C4149 C4155 1.429 . S
C4150 C4142 1.574 . S
C4150 H4145 0.949 . S
C4150 C4156 1.368 . S
C4151 C4135 1.349 . S
C4151 H4143 0.950 . S
C4151 C4149 1.327 . S
C4152 C4140 1.349 . S
C4152 H4146 0.950 . S
C4152 C4153 1.327 . S
C4153 H4147 0.950 . S
C4153 C4152 1.327 . S
C4153 C4157 1.429 . S
C4154 C4137 1.574 . S
C4154 H4148 0.949 . S
C4154 C4158 1.368 . S
C4155 C4136 1.429 . S
C4155 C4149 1.429 . S
C4155 C4156 1.523 . S
C4156 C4137 1.368 . S
C4156 C4150 1.368 . S
C4156 C4155 1.523 . S
C4157 C4141 1.429 . S
C4157 C4153 1.429 . S
C4157 C4158 1.523 . S
C4158 C4142 1.368 . S
C4158 C4154 1.368 . S
C4158 C4157 1.523 . S
H4159 C4134 0.950 . S
H4160 C4136 0.950 . S
H4161 C4137 0.949 . S
H4162 C4139 0.950 . S
H4163 C4141 0.950 . S
C4164 C4165 1.349 . S
C4164 C4166 1.327 . S
C4164 H4189 0.950 . S
C4165 C4164 1.349 . S
C4165 C4181 1.349 . S
C4166 C4164 1.327 . S
C4166 C4185 1.429 . S
C4166 H4190 0.950 . S
C4167 C4184 1.574 1_545 S
C4167 C4186 1.368 . S
C4167 H4191 0.949 . S
H4168 C4172 0.949 . S
C4169 C4170 1.349 . S
C4169 C4171 1.327 . S
C4169 H4192 0.950 . S
C4170 C4169 1.349 . S
C4170 C4182 1.349 . S
C4171 C4169 1.327 . S
C4171 C4187 1.429 . S
C4171 H4193 0.950 . S
C4172 H4168 0.949 . S
C4172 C4180 1.574 1_565 S
C4172 C4188 1.368 . S
H4173 C4181 0.950 . S
H4174 C4179 0.950 . S
H4175 C4180 0.949 . S
H4176 C4182 0.950 . S
H4177 C4183 0.950 . S
H4178 C4184 0.949 . S
C4179 H4174 0.950 . S
C4179 C4181 1.327 . S
C4179 C4185 1.429 . S
C4180 C4172 1.574 1_545 S
C4180 H4175 0.949 . S
C4180 C4186 1.368 . S
C4181 C4165 1.349 . S
C4181 H4173 0.950 . S
C4181 C4179 1.327 . S
C4182 C4170 1.349 . S
C4182 H4176 0.950 . S
C4182 C4183 1.327 . S
C4183 H4177 0.950 . S
C4183 C4182 1.327 . S
C4183 C4187 1.429 . S
C4184 C4167 1.574 1_565 S
C4184 H4178 0.949 . S
C4184 C4188 1.368 . S
C4185 C4166 1.429 . S
C4185 C4179 1.429 . S
C4185 C4186 1.523 . S
C4186 C4167 1.368 . S
C4186 C4180 1.368 . S
C4186 C4185 1.523 . S
C4187 C4171 1.429 . S
C4187 C4183 1.429 . S
C4187 C4188 1.523 . S
C4188 C4172 1.368 . S
C4188 C4184 1.368 . S
C4188 C4187 1.523 . S
H4189 C4164 0.950 . S
H4190 C4166 0.950 . S
H4191 C4167 0.949 . S
H4192 C4169 0.950 . S
H4193 C4171 0.950 . S
C4194 C4195 1.349 . S
C4194 C4196 1.323 1_554 S
C4194 H4219 0.950 1_554 S
C4195 C4194 1.349 . S
C4195 C4211 1.349 . S
C4196 C4194 1.323 1_556 S
C4196 C4215 1.421 1_556 S
C4196 H4220 0.962 . S
C4197 C4214 1.574 1_545 S
C4197 C4216 1.368 . S
C4197 H4221 0.949 . S
H4198 C4202 0.949 . S
C4199 C4200 1.349 . S
C4199 C4201 1.323 1_556 S
C4199 H4222 0.950 1_556 S
C4200 C4199 1.349 . S
C4200 C4212 1.349 . S
C4201 C4199 1.323 1_554 S
C4201 C4217 1.421 1_554 S
C4201 H4223 0.962 . S
C4202 H4198 0.949 . S
C4202 C4210 1.574 1_565 S
C4202 C4218 1.368 . S
H4203 C4211 0.950 . S
H4204 C4209 0.950 . S
H4205 C4210 0.949 . S
H4206 C4212 0.950 . S
H4207 C4213 0.950 . S
H4208 C4214 0.949 . S
C4209 H4204 0.950 . S
C4209 C4211 1.327 . S
C4209 C4215 1.429 . S
C4210 C4202 1.574 1_545 S
C4210 H4205 0.949 . S
C4210 C4216 1.368 1_556 S
C4211 C4195 1.349 . S
C4211 H4203 0.950 . S
C4211 C4209 1.327 . S
C4212 C4200 1.349 . S
C4212 H4206 0.950 . S
C4212 C4213 1.327 . S
C4213 H4207 0.950 . S
C4213 C4212 1.327 . S
C4213 C4217 1.429 . S
C4214 C4197 1.574 1_565 S
C4214 H4208 0.949 . S
C4214 C4218 1.368 1_554 S
C4215 C4196 1.421 1_554 S
C4215 C4209 1.429 . S
C4215 C4216 1.523 . S
C4216 C4197 1.368 . S
C4216 C4210 1.368 1_554 S
C4216 C4215 1.523 . S
C4217 C4201 1.421 1_556 S
C4217 C4213 1.429 . S
C4217 C4218 1.523 . S
C4218 C4202 1.368 . S
C4218 C4214 1.368 1_556 S
C4218 C4217 1.523 . S
H4219 C4194 0.950 1_556 S
H4220 C4196 0.962 . S
H4221 C4197 0.949 . S
H4222 C4199 0.950 1_554 S
H4223 C4201 0.962 . S
C4224 C4225 1.349 . S
C4224 C4226 1.327 . S
C4224 H4249 0.950 1_554 S
C4225 C4224 1.349 . S
C4225 C4241 1.349 . S
C4226 C4224 1.327 . S
C4226 C4245 1.429 . S
C4226 H4250 0.950 1_554 S
C4227 C4244 1.574 1_655 S
C4227 C4246 1.368 . S
C4227 H4251 0.949 . S
H4228 C4232 0.949 . S
C4229 C4230 1.349 . S
C4229 C4231 1.327 . S
C4229 H4252 0.950 1_556 S
C4230 C4229 1.349 . S
C4230 C4242 1.349 . S
C4231 C4229 1.327 . S
C4231 C4247 1.429 . S
C4231 H4253 0.950 1_556 S
C4232 H4228 0.949 . S
C4232 C4240 1.574 1_455 S
C4232 C4248 1.368 . S
H4233 C4241 0.950 . S
H4234 C4239 0.950 . S
H4235 C4240 0.949 . S
H4236 C4242 0.950 . S
H4237 C4243 0.950 . S
H4238 C4244 0.949 . S
C4239 H4234 0.950 . S
C4239 C4241 1.327 . S
C4239 C4245 1.429 . S
C4240 C4232 1.574 1_655 S
C4240 H4235 0.949 . S
C4240 C4246 1.368 1_556 S
C4241 C4225 1.349 . S
C4241 H4233 0.950 . S
C4241 C4239 1.327 . S
C4242 C4230 1.349 . S
C4242 H4236 0.950 . S
C4242 C4243 1.327 . S
C4243 H4237 0.950 . S
C4243 C4242 1.327 . S
C4243 C4247 1.429 . S
C4244 C4227 1.574 1_455 S
C4244 H4238 0.949 . S
C4244 C4248 1.368 1_554 S
C4245 C4226 1.429 . S
C4245 C4239 1.429 . S
C4245 C4246 1.523 . S
C4246 C4227 1.368 . S
C4246 C4240 1.368 1_554 S
C4246 C4245 1.523 . S
C4247 C4231 1.429 . S
C4247 C4243 1.429 . S
C4247 C4248 1.523 . S
C4248 C4232 1.368 . S
C4248 C4244 1.368 1_556 S
C4248 C4247 1.523 . S
H4249 C4224 0.950 1_556 S
H4250 C4226 0.950 1_556 S
H4251 C4227 0.949 . S
H4252 C4229 0.950 1_554 S
H4253 C4231 0.950 1_554 S
C4254 C4255 1.349 . S
C4254 C4256 1.327 . S
C4254 H4279 0.950 . S
C4255 C4254 1.349 . S
C4255 C4271 1.349 . S
C4256 C4254 1.327 . S
C4256 C4275 1.429 . S
C4256 H4280 0.950 . S
C4257 C4274 1.574 . S
C4257 C4276 1.368 1_556 S
C4257 H4281 0.949 . S
H4258 C4262 0.949 . S
C4259 C4260 1.349 . S
C4259 C4261 1.327 . S
C4259 H4282 0.950 . S
C4260 C4259 1.349 . S
C4260 C4272 1.349 . S
C4261 C4259 1.327 . S
C4261 C4277 1.429 . S
C4261 H4283 0.950 . S
C4262 H4258 0.949 . S
C4262 C4270 1.574 . S
C4262 C4278 1.368 1_554 S
H4263 C4271 0.950 . S
H4264 C4269 0.950 1_556 S
H4265 C4270 0.949 . S
H4266 C4272 0.950 . S
H4267 C4273 0.950 1_554 S
H4268 C4274 0.949 . S
C4269 H4264 0.950 1_554 S
C4269 C4271 1.327 . S
C4269 C4275 1.429 . S
C4270 C4262 1.574 . S
C4270 H4265 0.949 . S
C4270 C4276 1.368 . S
C4271 C4255 1.349 . S
C4271 H4263 0.950 . S
C4271 C4269 1.327 . S
C4272 C4260 1.349 . S
C4272 H4266 0.950 . S
C4272 C4273 1.327 . S
C4273 H4267 0.950 1_556 S
C4273 C4272 1.327 . S
C4273 C4277 1.429 . S
C4274 C4257 1.574 . S
C4274 H4268 0.949 . S
C4274 C4278 1.368 . S
C4275 C4256 1.429 . S
C4275 C4269 1.429 . S
C4275 C4276 1.523 . S
C4276 C4257 1.368 1_554 S
C4276 C4270 1.368 . S
C4276 C4275 1.523 . S
C4277 C4261 1.429 . S
C4277 C4273 1.429 . S
C4277 C4278 1.523 . S
C4278 C4262 1.368 1_556 S
C4278 C4274 1.368 . S
C4278 C4277 1.523 . S
H4279 C4254 0.950 . S
H4280 C4256 0.950 . S
H4281 C4257 0.949 . S
H4282 C4259 0.950 . S
H4283 C4261 0.950 . S
C2125 C593 1.223 . S
C2130 C33 1.219 . S
C2155 C652 1.223 . S
C2160 C92 1.220 . S
C2185 C151 1.220 . S
C2190 C534 1.223 . S
C2215 C210 1.219 . S
C2220 C475 1.223 . S
C2245 C269 1.219 . S
C2250 C357 1.223 . S
C2275 C416 1.223 . S
C2280 C328 1.220 . S
C2305 C239 1.223 . S
C2310 C387 1.219 . S
C2335 C298 1.223 . S
C2340 C446 1.220 . S
C2365 C505 1.220 . S
C2370 C180 1.223 . S
C2395 C121 1.223 . S
C2400 C564 1.219 . S
C2425 C623 1.219 . S
C2430 C3 1.223 . S
C2455 C682 1.220 . S
C2460 C62 1.223 . S
C2485 C1301 1.223 . S
C2490 C741 1.219 . S
C2515 C1360 1.223 . S
C2520 C800 1.220 . S
C2545 C859 1.220 . S
C2550 C1242 1.223 . S
C2575 C918 1.220 . S
C2580 C1183 1.223 1_556 S
C2605 C977 1.219 . S
C2610 C1065 1.223 1_556 S
C2635 C1036 1.220 . S
C2640 C1124 1.223 1_556 S
C2665 C947 1.223 . S
C2670 C1095 1.219 . S
C2695 C1006 1.223 . S
C2700 C1154 1.220 . S
C2725 C888 1.223 . S
C2730 C1213 1.220 . S
C2755 C829 1.223 . S
C2760 C1272 1.219 . S
C2785 C711 1.223 . S
C2790 C1331 1.220 . S
C2815 C770 1.223 . S
C2820 C1390 1.220 . S
C2845 C1449 1.220 . S
C2850 C2009 1.223 . S
C2875 C2068 1.223 . S
C2880 C1508 1.220 . S
C2905 C1950 1.223 . S
C2910 C1567 1.220 . S
C2935 C1626 1.220 . S
C2940 C1891 1.223 . S
C2965 C1685 1.219 . S
C2970 C1773 1.223 . S
C2995 C1744 1.220 . S
C3000 C1832 1.223 . S
C3025 C1655 1.223 . S
C3030 C1803 1.219 . S
C3055 C1714 1.223 . S
C3060 C1862 1.220 . S
C3085 C1596 1.223 . S
C3090 C1921 1.220 . S
C3115 C1980 1.219 . S
C3120 C1537 1.223 1_554 S
C3145 C1419 1.223 1_554 S
C3150 C2039 1.219 . S
C3175 C2098 1.220 . S
C3180 C1478 1.223 1_554 S
C3205 C182 1.591 . S
C3210 C5 1.591 . S
C3235 C241 1.591 . S
C3240 C64 1.591 . S
C3265 C123 1.591 . S
C3270 C300 1.591 . S
C3295 C536 1.591 . S
C3300 C359 1.591 . S
C3325 C595 1.591 . S
C3330 C418 1.591 . S
C3355 C654 1.591 . S
C3360 C477 1.591 . S
C3385 C890 1.591 . S
C3390 C713 1.591 . S
C3415 C949 1.591 . S
C3420 C772 1.591 . S
C3445 C831 1.591 . S
C3450 C1008 1.591 . S
C3475 C1067 1.591 . S
C3480 C1244 1.591 . S
C3505 C1303 1.591 . S
C3510 C1126 1.591 . S
C3535 C1185 1.591 . S
C3540 C1362 1.591 . S
C3565 C1598 1.591 . S
C3570 C1421 1.591 . S
C3595 C1657 1.591 . S
C3600 C1480 1.591 . S
C3625 C1539 1.591 . S
C3630 C1716 1.591 . S
C3655 C1775 1.591 . S
C3660 C1952 1.591 . S
C3685 C1834 1.591 . S
C3690 C2011 1.591 . S
C3715 C1893 1.591 . S
C3720 C2070 1.591 . S
C3745 C52 1.597 . S
C3750 C1114 1.597 . S
C3775 C1173 1.597 . S
C3780 C111 1.597 . S
C3805 C1232 1.597 . S
C3810 C170 1.597 . S
C3835 C1999 1.597 . S
C3840 C229 1.597 . S
C3865 C2058 1.597 . S
C3870 C288 1.597 . S
C3895 C2117 1.597 . S
C3900 C347 1.597 . S
C3925 C406 1.597 . S
C3930 C1468 1.597 . S
C3955 C1527 1.597 . S
C3960 C465 1.597 . S
C3985 C1586 1.597 . S
C3990 C524 1.597 . S
C4015 C583 1.597 . S
C4020 C937 1.597 . S
C4045 C642 1.597 . S
C4050 C996 1.597 . S
C4075 C701 1.597 . S
C4080 C1055 1.597 . S
C4105 C1822 1.597 . S
C4110 C760 1.597 . S
C4135 C1881 1.597 . S
C4140 C819 1.597 . S
C4165 C878 1.597 . S
C4170 C1940 1.597 . S
C4195 C1291 1.597 . S
C4200 C1645 1.597 . S
C4225 C1350 1.597 . S
C4230 C1704 1.597 . S
C4255 C1409 1.597 . S
C4260 C1763 1.597 . S
