# Generated by pormake.
# Topology sxg, (6)-cn, num edge types: 1
# Building blocks:
#     Node 0, Type 0, BuildingBlock: MIFKUJ_clean_sbu_0, # of connection points: 6
#     Node 1, Type 0, BuildingBlock: MIFKUJ_clean_sbu_0, # of connection points: 6
#     Node 2, Type 0, BuildingBlock: MIFKUJ_clean_sbu_0, # of connection points: 6
#     Node 3, Type 0, BuildingBlock: MIFKUJ_clean_sbu_0, # of connection points: 6
#     Node 4, Type 0, BuildingBlock: MIFKUJ_clean_sbu_0, # of connection points: 6
#     Node 5, Type 0, BuildingBlock: MIFKUJ_clean_sbu_0, # of connection points: 6
#     Node 6, Type 0, BuildingBlock: MIFKUJ_clean_sbu_0, # of connection points: 6
#     Node 7, Type 0, BuildingBlock: MIFKUJ_clean_sbu_0, # of connection points: 6
#     Node 8, Type 0, BuildingBlock: MIFKUJ_clean_sbu_0, # of connection points: 6
#     Node 9, Type 0, BuildingBlock: MIFKUJ_clean_sbu_0, # of connection points: 6
#     Node 10, Type 0, BuildingBlock: MIFKUJ_clean_sbu_0, # of connection points: 6
#     Node 11, Type 0, BuildingBlock: MIFKUJ_clean_sbu_0, # of connection points: 6
#     Node 12, Type 0, BuildingBlock: MIFKUJ_clean_sbu_0, # of connection points: 6
#     Node 13, Type 0, BuildingBlock: MIFKUJ_clean_sbu_0, # of connection points: 6
#     Node 14, Type 0, BuildingBlock: MIFKUJ_clean_sbu_0, # of connection points: 6
#     Node 15, Type 0, BuildingBlock: MIFKUJ_clean_sbu_0, # of connection points: 6
#     Node 16, Type 0, BuildingBlock: MIFKUJ_clean_sbu_0, # of connection points: 6
#     Node 17, Type 0, BuildingBlock: MIFKUJ_clean_sbu_0, # of connection points: 6
#     Node 18, Type 0, BuildingBlock: MIFKUJ_clean_sbu_0, # of connection points: 6
#     Node 19, Type 0, BuildingBlock: MIFKUJ_clean_sbu_0, # of connection points: 6
#     Node 20, Type 0, BuildingBlock: MIFKUJ_clean_sbu_0, # of connection points: 6
#     Node 21, Type 0, BuildingBlock: MIFKUJ_clean_sbu_0, # of connection points: 6
#     Node 22, Type 0, BuildingBlock: MIFKUJ_clean_sbu_0, # of connection points: 6
#     Node 23, Type 0, BuildingBlock: MIFKUJ_clean_sbu_0, # of connection points: 6
#     Edge 24, Type (0, 0), BuildingBlock: AJUNOK_clean_linker_0, # of connection points: 2
#     Edge 25, Type (0, 0), BuildingBlock: AJUNOK_clean_linker_0, # of connection points: 2
#     Edge 26, Type (0, 0), BuildingBlock: AJUNOK_clean_linker_0, # of connection points: 2
#     Edge 27, Type (0, 0), BuildingBlock: AJUNOK_clean_linker_0, # of connection points: 2
#     Edge 28, Type (0, 0), BuildingBlock: AJUNOK_clean_linker_0, # of connection points: 2
#     Edge 29, Type (0, 0), BuildingBlock: AJUNOK_clean_linker_0, # of connection points: 2
#     Edge 30, Type (0, 0), BuildingBlock: AJUNOK_clean_linker_0, # of connection points: 2
#     Edge 31, Type (0, 0), BuildingBlock: AJUNOK_clean_linker_0, # of connection points: 2
#     Edge 32, Type (0, 0), BuildingBlock: AJUNOK_clean_linker_0, # of connection points: 2
#     Edge 33, Type (0, 0), BuildingBlock: AJUNOK_clean_linker_0, # of connection points: 2
#     Edge 34, Type (0, 0), BuildingBlock: AJUNOK_clean_linker_0, # of connection points: 2
#     Edge 35, Type (0, 0), BuildingBlock: AJUNOK_clean_linker_0, # of connection points: 2
#     Edge 36, Type (0, 0), BuildingBlock: AJUNOK_clean_linker_0, # of connection points: 2
#     Edge 37, Type (0, 0), BuildingBlock: AJUNOK_clean_linker_0, # of connection points: 2
#     Edge 38, Type (0, 0), BuildingBlock: AJUNOK_clean_linker_0, # of connection points: 2
#     Edge 39, Type (0, 0), BuildingBlock: AJUNOK_clean_linker_0, # of connection points: 2
#     Edge 40, Type (0, 0), BuildingBlock: AJUNOK_clean_linker_0, # of connection points: 2
#     Edge 41, Type (0, 0), BuildingBlock: AJUNOK_clean_linker_0, # of connection points: 2
#     Edge 42, Type (0, 0), BuildingBlock: AJUNOK_clean_linker_0, # of connection points: 2
#     Edge 43, Type (0, 0), BuildingBlock: AJUNOK_clean_linker_0, # of connection points: 2
#     Edge 44, Type (0, 0), BuildingBlock: AJUNOK_clean_linker_0, # of connection points: 2
#     Edge 45, Type (0, 0), BuildingBlock: AJUNOK_clean_linker_0, # of connection points: 2
#     Edge 46, Type (0, 0), BuildingBlock: AJUNOK_clean_linker_0, # of connection points: 2
#     Edge 47, Type (0, 0), BuildingBlock: AJUNOK_clean_linker_0, # of connection points: 2
#     Edge 48, Type (0, 0), BuildingBlock: AJUNOK_clean_linker_0, # of connection points: 2
#     Edge 49, Type (0, 0), BuildingBlock: AJUNOK_clean_linker_0, # of connection points: 2
#     Edge 50, Type (0, 0), BuildingBlock: AJUNOK_clean_linker_0, # of connection points: 2
#     Edge 51, Type (0, 0), BuildingBlock: AJUNOK_clean_linker_0, # of connection points: 2
#     Edge 52, Type (0, 0), BuildingBlock: AJUNOK_clean_linker_0, # of connection points: 2
#     Edge 53, Type (0, 0), BuildingBlock: AJUNOK_clean_linker_0, # of connection points: 2
#     Edge 54, Type (0, 0), BuildingBlock: AJUNOK_clean_linker_0, # of connection points: 2
#     Edge 55, Type (0, 0), BuildingBlock: AJUNOK_clean_linker_0, # of connection points: 2
#     Edge 56, Type (0, 0), BuildingBlock: AJUNOK_clean_linker_0, # of connection points: 2
#     Edge 57, Type (0, 0), BuildingBlock: AJUNOK_clean_linker_0, # of connection points: 2
#     Edge 58, Type (0, 0), BuildingBlock: AJUNOK_clean_linker_0, # of connection points: 2
#     Edge 59, Type (0, 0), BuildingBlock: AJUNOK_clean_linker_0, # of connection points: 2
#     Edge 60, Type (0, 0), BuildingBlock: AJUNOK_clean_linker_0, # of connection points: 2
#     Edge 61, Type (0, 0), BuildingBlock: AJUNOK_clean_linker_0, # of connection points: 2
#     Edge 62, Type (0, 0), BuildingBlock: AJUNOK_clean_linker_0, # of connection points: 2
#     Edge 63, Type (0, 0), BuildingBlock: AJUNOK_clean_linker_0, # of connection points: 2
#     Edge 64, Type (0, 0), BuildingBlock: AJUNOK_clean_linker_0, # of connection points: 2
#     Edge 65, Type (0, 0), BuildingBlock: AJUNOK_clean_linker_0, # of connection points: 2
#     Edge 66, Type (0, 0), BuildingBlock: AJUNOK_clean_linker_0, # of connection points: 2
#     Edge 67, Type (0, 0), BuildingBlock: AJUNOK_clean_linker_0, # of connection points: 2
#     Edge 68, Type (0, 0), BuildingBlock: AJUNOK_clean_linker_0, # of connection points: 2
#     Edge 69, Type (0, 0), BuildingBlock: AJUNOK_clean_linker_0, # of connection points: 2
#     Edge 70, Type (0, 0), BuildingBlock: AJUNOK_clean_linker_0, # of connection points: 2
#     Edge 71, Type (0, 0), BuildingBlock: AJUNOK_clean_linker_0, # of connection points: 2
#     Edge 72, Type (0, 0), BuildingBlock: AJUNOK_clean_linker_0, # of connection points: 2
#     Edge 73, Type (0, 0), BuildingBlock: AJUNOK_clean_linker_0, # of connection points: 2
#     Edge 74, Type (0, 0), BuildingBlock: AJUNOK_clean_linker_0, # of connection points: 2
#     Edge 75, Type (0, 0), BuildingBlock: AJUNOK_clean_linker_0, # of connection points: 2
#     Edge 76, Type (0, 0), BuildingBlock: AJUNOK_clean_linker_0, # of connection points: 2
#     Edge 77, Type (0, 0), BuildingBlock: AJUNOK_clean_linker_0, # of connection points: 2
#     Edge 78, Type (0, 0), BuildingBlock: AJUNOK_clean_linker_0, # of connection points: 2
#     Edge 79, Type (0, 0), BuildingBlock: AJUNOK_clean_linker_0, # of connection points: 2
#     Edge 80, Type (0, 0), BuildingBlock: AJUNOK_clean_linker_0, # of connection points: 2
#     Edge 81, Type (0, 0), BuildingBlock: AJUNOK_clean_linker_0, # of connection points: 2
#     Edge 82, Type (0, 0), BuildingBlock: AJUNOK_clean_linker_0, # of connection points: 2
#     Edge 83, Type (0, 0), BuildingBlock: AJUNOK_clean_linker_0, # of connection points: 2
#     Edge 84, Type (0, 0), BuildingBlock: AJUNOK_clean_linker_0, # of connection points: 2
#     Edge 85, Type (0, 0), BuildingBlock: AJUNOK_clean_linker_0, # of connection points: 2
#     Edge 86, Type (0, 0), BuildingBlock: AJUNOK_clean_linker_0, # of connection points: 2
#     Edge 87, Type (0, 0), BuildingBlock: AJUNOK_clean_linker_0, # of connection points: 2
#     Edge 88, Type (0, 0), BuildingBlock: AJUNOK_clean_linker_0, # of connection points: 2
#     Edge 89, Type (0, 0), BuildingBlock: AJUNOK_clean_linker_0, # of connection points: 2
#     Edge 90, Type (0, 0), BuildingBlock: AJUNOK_clean_linker_0, # of connection points: 2
#     Edge 91, Type (0, 0), BuildingBlock: AJUNOK_clean_linker_0, # of connection points: 2
#     Edge 92, Type (0, 0), BuildingBlock: AJUNOK_clean_linker_0, # of connection points: 2
#     Edge 93, Type (0, 0), BuildingBlock: AJUNOK_clean_linker_0, # of connection points: 2
#     Edge 94, Type (0, 0), BuildingBlock: AJUNOK_clean_linker_0, # of connection points: 2
#     Edge 95, Type (0, 0), BuildingBlock: AJUNOK_clean_linker_0, # of connection points: 2
# Relax obj value: 0.167
# Max RMSD: 0.242
# Mean RMSD: 0.242
data_MOF--net-sxg--node1-MIFKUJ_clean_sbu_0--edge1-AJUNOK_clean_linker_0
_symmetry_space_group_name_H-M    P1
_symmetry_Int_Tables_number       1
_symmetry_cell_setting            triclinic
loop_
_symmetry_equiv_pos_as_xyz
'x, y, z'
_cell_length_a     35.83957
_cell_length_b     35.910921
_cell_length_c     35.898294
_cell_angle_alpha  89.971001
_cell_angle_beta   90.05795
_cell_angle_gamma 90.104852
loop_
_atom_site_label
_atom_site_type_symbol
_atom_site_fract_x
_atom_site_fract_y
_atom_site_fract_z
_atom_type_partial_charge
Zn0 Zn 0.06673 0.29669 0.24812 0.0
Zn1 Zn 0.00866 0.36515 0.24 0.0
C2 C 0.11829 0.28984 0.1855 0.0
O3 O 0.09491 0.26372 0.17483 0.0
C4 C 0.98 0.3445 0.31155 0.0
O5 O 0.99064 0.37879 0.31873 0.0
O6 O 0.08145 0.24714 0.26966 0.0
O7 O 0.06834 0.33507 0.29007 0.0
O8 O 0.0565 0.38673 0.25893 0.0
C9 C 0.11117 0.24352 0.28864 0.0
O10 O 0.13075 0.27339 0.29681 0.0
O11 O 0.11051 0.30896 0.21429 0.0
C12 C 0.9358 0.39727 0.2345 0.0
O13 O 0.92673 0.36285 0.24295 0.0
O14 O 0.97018 0.4059 0.23158 0.0
O15 O 0.01315 0.33963 0.19087 0.0
O16 O 0.0203 0.28497 0.2173 0.0
O17 O 0.98643 0.33105 0.27939 0.0
C18 C 0.07321 0.36991 0.28522 0.0
C19 C 0.00931 0.30459 0.19 0.0
Zn20 Zn 0.42509 0.69095 0.72956 0.0
Zn21 Zn 0.48897 0.61801 0.74671 0.0
C22 C 0.37821 0.701 0.66614 0.0
O23 O 0.40576 0.72314 0.65648 0.0
C24 C 0.51084 0.63229 0.82152 0.0
O25 O 0.50864 0.59578 0.82254 0.0
O26 O 0.41739 0.74309 0.74873 0.0
O27 O 0.41825 0.65341 0.77233 0.0
O28 O 0.43609 0.59983 0.74862 0.0
C29 C 0.38811 0.75047 0.76719 0.0
O30 O 0.36587 0.72295 0.77676 0.0
O31 O 0.38066 0.68296 0.6965 0.0
C32 C 0.55855 0.58328 0.74953 0.0
O33 O 0.56737 0.61769 0.7583 0.0
O34 O 0.52432 0.57469 0.74553 0.0
O35 O 0.50468 0.64387 0.70076 0.0
O36 O 0.46951 0.69366 0.69428 0.0
O37 O 0.50167 0.64922 0.79179 0.0
C38 C 0.41275 0.61868 0.76729 0.0
C39 C 0.49704 0.67392 0.68414 0.0
Zn40 Zn 0.57176 0.19127 0.753 0.0
Zn41 Zn 0.51471 0.1245 0.76178 0.0
C42 C 0.61527 0.19722 0.82202 0.0
O43 O 0.59125 0.22321 0.83128 0.0
C44 C 0.48115 0.1411 0.69284 0.0
O45 O 0.48196 0.10452 0.69236 0.0
O46 O 0.58767 0.24131 0.7323 0.0
O47 O 0.58142 0.14991 0.7144 0.0
O48 O 0.56021 0.09934 0.74298 0.0
C49 C 0.6173 0.24694 0.71368 0.0
O50 O 0.63813 0.21833 0.70449 0.0
O51 O 0.61085 0.17995 0.7915 0.0
C52 C 0.44023 0.09807 0.77018 0.0
O53 O 0.43361 0.13338 0.76336 0.0
O54 O 0.47382 0.08664 0.77138 0.0
O55 O 0.52122 0.15034 0.81075 0.0
O56 O 0.52258 0.20278 0.78001 0.0
O57 O 0.49525 0.15817 0.72056 0.0
C58 C 0.58151 0.11462 0.71917 0.0
C59 C 0.51449 0.18485 0.8094 0.0
Zn60 Zn 0.93425 0.80137 0.24147 0.0
Zn61 Zn 0.98995 0.8693 0.2559 0.0
C62 C 0.88612 0.79209 0.30602 0.0
O63 O 0.91014 0.76577 0.31432 0.0
C64 C 0.02036 0.85004 0.18449 0.0
O65 O 0.01008 0.88436 0.17709 0.0
O66 O 0.91994 0.75167 0.21968 0.0
O67 O 0.93127 0.8416 0.20131 0.0
O68 O 0.94334 0.89166 0.23516 0.0
C69 C 0.89068 0.74621 0.20043 0.0
O70 O 0.87013 0.77492 0.19083 0.0
O71 O 0.89176 0.81197 0.27722 0.0
C72 C 0.06293 0.90131 0.26597 0.0
O73 O 0.07256 0.86726 0.25676 0.0
O74 O 0.02838 0.90957 0.26735 0.0
O75 O 0.98242 0.84111 0.30335 0.0
O76 O 0.9815 0.78967 0.27053 0.0
O77 O 0.01345 0.83655 0.21651 0.0
C78 C 0.9273 0.87636 0.20751 0.0
C79 C 0.98852 0.80651 0.30078 0.0
Zn80 Zn 0.24468 0.0498 0.30746 0.0
Zn81 Zn 0.23033 0.00287 0.37363 0.0
C82 C 0.18253 0.09885 0.29662 0.0
O83 O 0.17701 0.07697 0.2678 0.0
C84 C 0.29819 0.9645 0.35796 0.0
O85 O 0.29834 0.96369 0.39455 0.0
O86 O 0.2658 0.06563 0.25802 0.0
O87 O 0.2859 0.05534 0.34734 0.0
O88 O 0.25063 0.0483 0.39704 0.0
C89 C 0.28751 0.09353 0.25585 0.0
O90 O 0.29869 0.10974 0.28672 0.0
O91 O 0.2089 0.09132 0.31903 0.0
C92 C 0.20877 0.93341 0.39721 0.0
O93 O 0.20867 0.93093 0.36071 0.0
O94 O 0.21865 0.96398 0.41211 0.0
O95 O 0.18186 0.01071 0.34705 0.0
O96 O 0.21365 0.00283 0.29604 0.0
O97 O 0.27105 0.98011 0.34128 0.0
C98 C 0.27932 0.06213 0.38163 0.0
C99 C 0.18321 -0.00073 0.31381 0.0
Zn100 Zn 0.26124 0.94568 0.80071 0.0
Zn101 Zn 0.25976 0.01778 0.86994 0.0
C102 C 0.32423 0.89861 0.77881 0.0
O103 O 0.32844 0.92259 0.75149 0.0
C104 C 0.19651 0.05758 0.85077 0.0
O105 O 0.19639 0.0576 0.88736 0.0
O106 O 0.23072 0.93246 0.75519 0.0
O107 O 0.23218 0.93643 0.84835 0.0
O108 O 0.23462 0.97595 0.89571 0.0
C109 C 0.21737 0.89969 0.75275 0.0
O110 O 0.21999 0.87755 0.78178 0.0
O111 O 0.29893 0.90423 0.8029 0.0
C112 C 0.29409 0.08358 0.89981 0.0
O113 O 0.30994 0.08339 0.86682 0.0
O114 O 0.27139 0.05764 0.90817 0.0
O115 O 0.3094 0.00391 0.84773 0.0
O116 O 0.29002 0.9936 0.79048 0.0
O117 O 0.22256 0.04044 0.83389 0.0
C118 C 0.22348 0.94557 0.88148 0.0
C119 C 0.3141 0.00672 0.81289 0.0
Zn120 Zn 0.74109 0.448 0.69247 0.0
Zn121 Zn 0.7321 0.51413 0.62613 0.0
C122 C 0.68056 0.39617 0.7066 0.0
O123 O 0.67628 0.41661 0.73664 0.0
C124 C 0.80093 0.54841 0.64473 0.0
O125 O 0.80217 0.54917 0.60816 0.0
O126 O 0.76577 0.43213 0.74048 0.0
O127 O 0.77864 0.44371 0.65001 0.0
O128 O 0.75163 0.46931 0.60051 0.0
C129 C 0.77653 0.39859 0.74378 0.0
O130 O 0.77502 0.37679 0.71442 0.0
O131 O 0.70467 0.40602 0.68258 0.0
C132 C 0.7227 0.5886 0.59453 0.0
O133 O 0.73369 0.59926 0.62777 0.0
O134 O 0.72007 0.55395 0.58737 0.0
O135 O 0.68399 0.50416 0.65219 0.0
O136 O 0.71194 0.49462 0.70576 0.0
O137 O 0.77262 0.53397 0.66056 0.0
C138 C 0.7743 0.4462 0.61481 0.0
C139 C 0.68309 0.5037 0.68741 0.0
Zn140 Zn 0.75931 0.55058 0.1917 0.0
Zn141 Zn 0.76847 0.49604 0.12444 0.0
C142 C 0.82244 0.59955 0.19989 0.0
O143 O 0.82751 0.57966 0.23021 0.0
C144 C 0.69869 0.46294 0.13991 0.0
O145 O 0.69738 0.46671 0.10353 0.0
O146 O 0.74044 0.56805 0.24175 0.0
O147 O 0.71789 0.55661 0.15264 0.0
O148 O 0.74793 0.54135 0.10094 0.0
C149 C 0.71995 0.59667 0.24515 0.0
O150 O 0.7076 0.61323 0.21497 0.0
O151 O 0.79633 0.59047 0.17775 0.0
C152 C 0.77821 0.4238 0.09267 0.0
O153 O 0.76848 0.41367 0.12646 0.0
O154 O 0.77954 0.45823 0.0845 0.0
O155 O 0.8174 0.50298 0.15046 0.0
O156 O 0.78738 0.50227 0.20328 0.0
O157 O 0.72752 0.47436 0.15725 0.0
C158 C 0.72213 0.559 0.1174 0.0
C159 C 0.81635 0.49438 0.18457 0.0
Zn160 Zn 0.32052 0.24272 0.0749 0.0
Zn161 Zn 0.39247 0.25803 0.00099 0.0
C162 C 0.299 0.17781 0.11831 0.0
O163 O 0.27 0.17741 0.09589 0.0
C164 C 0.37011 0.32385 0.96469 0.0
O165 O 0.40658 0.32763 0.96488 0.0
O166 O 0.27236 0.26915 0.08883 0.0
O167 O 0.36731 0.2731 0.08641 0.0
O168 O 0.41473 0.28021 0.04725 0.0
C169 C 0.26731 0.2803 0.1221 0.0
O170 O 0.2953 0.27844 0.14569 0.0
O171 O 0.32425 0.20213 0.1133 0.0
C172 C 0.42283 0.24619 0.92773 0.0
O173 O 0.38786 0.2522 0.91859 0.0
O174 O 0.4325 0.24877 0.96181 0.0
O175 O 0.37088 0.20692 0.00807 0.0
O176 O 0.3127 0.21684 0.02509 0.0
O177 O 0.35577 0.29502 0.97959 0.0
C178 C 0.39974 0.28566 0.07891 0.0
C179 C 0.33635 0.19985 0.005 0.0
Zn180 Zn 0.80844 0.25537 0.93018 0.0
Zn181 Zn 0.87949 0.2473 -0.00086 0.0
C182 C 0.79897 0.32681 0.88779 0.0
O183 O 0.79615 0.34427 0.91979 0.0
C184 C 0.84361 0.17631 0.01001 0.0
O185 O 0.8712 0.16563 0.98851 0.0
O186 O 0.76346 0.22273 0.92325 0.0
O187 O 0.85663 0.22951 0.91618 0.0
O188 O 0.90499 0.22725 0.95445 0.0
C189 C 0.75967 0.2054 0.89264 0.0
O190 O 0.78803 0.20443 0.86949 0.0
O191 O 0.80368 0.29174 0.88751 0.0
C192 C 0.91639 0.2432 0.07226 0.0
O193 O 0.88811 0.22208 0.08214 0.0
O194 O 0.91855 0.25467 0.03884 0.0
O195 O 0.85963 0.29909 0.99193 0.0
O196 O 0.80148 0.2843 0.97819 0.0
O197 O 0.84055 0.2107 0.01806 0.0
C198 C 0.89019 0.22038 0.9231 0.0
C199 C 0.825 0.30574 0.99366 0.0
Zn200 Zn 0.68526 0.74773 0.42241 0.0
Zn201 Zn 0.61503 0.75148 0.49241 0.0
C202 C 0.70744 0.68075 0.38295 0.0
O203 O 0.73552 0.68136 0.40649 0.0
C204 C 0.63342 0.81464 0.5352 0.0
O205 O 0.59678 0.81495 0.53585 0.0
O206 O 0.73328 0.77356 0.40724 0.0
O207 O 0.63868 0.77844 0.40901 0.0
O208 O 0.59084 0.77526 0.44835 0.0
C209 C 0.73908 0.78229 0.37339 0.0
O210 O 0.71149 0.77925 0.34945 0.0
O211 O 0.6821 0.70528 0.38585 0.0
C212 C 0.59066 0.7235 0.56067 0.0
O213 O 0.62704 0.7195 0.5624 0.0
O214 O 0.5766 0.73855 0.53179 0.0
O215 O 0.63906 0.702 0.48138 0.0
O216 O 0.69517 0.7248 0.47364 0.0
O217 O 0.64984 0.78933 0.51655 0.0
C218 C 0.60507 0.78625 0.4178 0.0
C219 C 0.67376 0.70031 0.48759 0.0
Zn220 Zn 0.17824 0.76461 0.56268 0.0
Zn221 Zn 0.11007 0.74102 0.49003 0.0
C222 C 0.1892 0.82717 0.61085 0.0
O223 O 0.20963 0.83761 0.58234 0.0
C224 C 0.12701 0.66716 0.46539 0.0
O225 O 0.09051 0.66593 0.46229 0.0
O226 O 0.22923 0.74299 0.56986 0.0
O227 O 0.14131 0.72126 0.56585 0.0
O228 O 0.08822 0.73974 0.54112 0.0
C229 C 0.23342 0.7215 0.59767 0.0
O230 O 0.20396 0.71276 0.61764 0.0
O231 O 0.17146 0.79649 0.60885 0.0
C232 C 0.07701 0.74193 0.41877 0.0
O233 O 0.1117 0.7343 0.40981 0.0
O234 O 0.06817 0.7434 0.45301 0.0
O235 O 0.13751 0.78662 0.47733 0.0
O236 O 0.18083 0.80035 0.51884 0.0
O237 O 0.14226 0.69612 0.47896 0.0
C238 C 0.10596 0.72372 0.5671 0.0
C239 C 0.16409 0.80696 0.48836 0.0
Zn240 Zn -0.00107 0.61872 0.74867 0.0
Zn241 Zn 0.9284 0.69134 0.75639 0.0
C242 C 0.02884 0.63201 0.67533 0.0
O243 O 0.03389 0.59579 0.67585 0.0
C244 C 0.87666 0.69865 0.81498 0.0
O245 O 0.89992 0.72585 0.82275 0.0
O246 O 0.03566 0.57634 0.75525 0.0
O247 O 0.00964 0.65122 0.79221 0.0
O248 O 0.97106 0.69946 0.79295 0.0
C249 C 0.0701 0.58513 0.75434 0.0
O250 O 0.07927 0.61985 0.74717 0.0
O251 O 0.0133 0.64773 0.70291 0.0
C252 C 0.887 0.74488 0.71359 0.0
O253 O 0.86782 0.71491 0.70489 0.0
O254 O 0.91582 0.74138 0.73398 0.0
O255 O 0.93266 0.65244 0.71571 0.0
O256 O 0.94615 0.59981 0.74359 0.0
O257 O 0.88316 0.67825 0.78684 0.0
C258 C -0.00078 0.68213 0.80572 0.0
C259 C 0.92386 0.61913 0.724 0.0
Zn260 Zn 0.51523 0.3819 0.26651 0.0
Zn261 Zn 0.56474 0.31388 0.24957 0.0
C262 C 0.48504 0.36489 0.19267 0.0
O263 O 0.49796 0.39817 0.18458 0.0
C264 C 0.61257 0.29871 0.3132 0.0
O265 O 0.58779 0.27249 0.31968 0.0
O266 O 0.4774 0.42155 0.27936 0.0
O267 O 0.52 0.35126 0.31326 0.0
O268 O 0.51732 0.30155 0.2782 0.0
C269 C 0.4466 0.40742 0.29003 0.0
O270 O 0.44337 0.37098 0.29079 0.0
O271 O 0.49028 0.35175 0.2252 0.0
C272 C 0.60608 0.26458 0.20238 0.0
O273 O 0.62678 0.29443 0.19761 0.0
O274 O 0.5772 0.2668 0.22271 0.0
O275 O 0.57 0.35557 0.21163 0.0
O276 O 0.56364 0.40392 0.24867 0.0
O277 O 0.60737 0.32068 0.28592 0.0
C278 C 0.51051 0.31755 0.30895 0.0
C279 C 0.57875 0.38877 0.22052 0.0
Zn280 Zn 0.48268 0.87895 0.23447 0.0
Zn281 Zn 0.42681 0.81144 0.24994 0.0
C282 C 0.51188 0.86256 0.30846 0.0
O283 O 0.4991 0.89609 0.31547 0.0
C284 C 0.38024 0.79538 0.1861 0.0
O285 O 0.404 0.76781 0.18239 0.0
O286 O 0.52178 0.9174 0.22026 0.0
O287 O 0.47622 0.84801 0.18841 0.0
O288 O 0.47496 0.79779 0.22301 0.0
C289 C 0.55262 0.90208 0.21167 0.0
O290 O 0.5548 0.86563 0.2138 0.0
O291 O 0.50694 0.84869 0.2762 0.0
C292 C 0.3795 0.76237 0.29233 0.0
O293 O 0.35837 0.79218 0.29391 0.0
O294 O 0.41104 0.7646 0.27628 0.0
O295 O 0.42239 0.85394 0.28728 0.0
O296 O 0.435 0.90248 0.25172 0.0
O297 O 0.38568 0.81906 0.21189 0.0
C298 C 0.48368 0.81384 0.19271 0.0
C299 C 0.41665 0.88774 0.27818 0.0
Zn300 Zn 0.00224 0.12754 0.73499 0.0
Zn301 Zn 0.06602 0.19886 0.74312 0.0
C302 C 0.97785 0.14615 0.80922 0.0
O303 O 0.99156 0.11313 0.81696 0.0
C304 C 0.1186 0.2006 0.68227 0.0
O305 O 0.09496 0.22523 0.66905 0.0
O306 O 0.96522 0.08492 0.72711 0.0
O307 O 0.00015 0.15732 0.68795 0.0
O308 O 0.0234 0.21083 0.70817 0.0
C309 C 0.93074 0.09176 0.73263 0.0
O310 O 0.92093 0.12525 0.74344 0.0
O311 O 0.98101 0.15896 0.77638 0.0
C312 C 0.11128 0.25161 0.78393 0.0
O313 O 0.13186 0.22194 0.78987 0.0
O314 O 0.08064 0.24788 0.76646 0.0
O315 O 0.06053 0.15958 0.78273 0.0
O316 O 0.0535 0.10889 0.74932 0.0
O317 O 0.11101 0.1844 0.7128 0.0
C318 C 0.00373 0.19241 0.68512 0.0
C319 C 0.0711 0.12686 0.77432 0.0
Zn320 Zn 0.76198 0.9941 0.61994 0.0
Zn321 Zn 0.75304 0.93757 0.68981 0.0
C322 C 0.68888 0.02164 0.64114 0.0
O323 O 0.67924 0.00551 0.60974 0.0
C324 C 0.81602 0.88964 0.70068 0.0
O325 O 0.82144 0.91234 0.72888 0.0
O326 O 0.77145 0.03094 0.57833 0.0
O327 O 0.81073 0.98965 0.64683 0.0
O328 O 0.78295 0.98515 0.70116 0.0
C329 C 0.78313 0.06266 0.58904 0.0
O330 O 0.78821 0.06819 0.6249 0.0
O331 O 0.72258 0.01942 0.65221 0.0
C332 C 0.71345 0.88891 0.73937 0.0
O333 O 0.70869 0.87057 0.70805 0.0
O334 O 0.7304 0.92009 0.73843 0.0
O335 O 0.71206 0.93355 0.6504 0.0
O336 O 0.74365 0.94557 0.59914 0.0
O337 O 0.78947 0.8964 0.67819 0.0
C338 C 0.8108 0.99535 0.68164 0.0
C339 C 0.71824 0.92757 0.61598 0.0
Zn340 Zn 0.74736 0.98416 0.10435 0.0
Zn341 Zn 0.72128 0.06481 0.16295 0.0
C342 C 0.82174 0.95993 0.11752 0.0
O343 O 0.82096 0.95832 0.08097 0.0
C344 C 0.66357 0.11724 0.172 0.0
O345 O 0.65277 0.09163 0.19584 0.0
O346 O 0.7432 0.94341 0.06671 0.0
O347 O 0.70143 0.97481 0.13448 0.0
O348 O 0.68421 0.02256 0.16913 0.0
C349 C 0.7439 0.91089 0.08063 0.0
O350 O 0.75076 0.90732 0.1164 0.0
O351 O 0.79378 0.97343 0.13461 0.0
C352 C 0.75995 0.10626 0.21579 0.0
O353 O 0.76512 0.12594 0.18538 0.0
O354 O 0.74243 0.07559 0.21331 0.0
O355 O 0.76472 0.0646 0.12682 0.0
O356 O 0.75023 0.03267 0.07671 0.0
O357 O 0.69188 0.11089 0.1518 0.0
C358 C 0.67929 0.9895 0.15768 0.0
C359 C 0.76203 0.06245 0.09162 0.0
Zn360 Zn 0.25054 0.48342 0.39361 0.0
Zn361 Zn 0.26414 0.55844 0.32625 0.0
C362 C 0.18 0.44968 0.37786 0.0
O363 O 0.17993 0.4472 0.41436 0.0
C364 C 0.31524 0.61588 0.3154 0.0
O365 O 0.32511 0.59129 0.29021 0.0
O366 O 0.25741 0.44515 0.43377 0.0
O367 O 0.29815 0.47795 0.36553 0.0
O368 O 0.30594 0.52084 0.32217 0.0
C369 C 0.26376 0.41319 0.41996 0.0
O370 O 0.26196 0.40912 0.38362 0.0
O371 O 0.207 0.46622 0.36183 0.0
C372 C 0.22194 0.5928 0.27006 0.0
O373 O 0.21054 0.6115 0.29938 0.0
O374 O 0.2441 0.56569 0.27488 0.0
O375 O 0.21991 0.55066 0.36081 0.0
O376 O 0.24046 0.53377 0.41578 0.0
O377 O 0.28853 0.60792 0.33732 0.0
C378 C 0.31691 0.49181 0.33904 0.0
C379 C 0.22217 0.55635 0.39567 0.0
Zn380 Zn 0.23516 0.49482 0.87365 0.0
Zn381 Zn 0.25038 0.44023 0.80774 0.0
C382 C 0.29743 0.54343 0.8544 0.0
O383 O 0.2934 0.55365 0.88928 0.0
C384 C 0.18569 0.39449 0.79726 0.0
O385 O 0.18126 0.41747 0.76912 0.0
O386 O 0.22233 0.53232 0.91365 0.0
O387 O 0.18826 0.48699 0.84462 0.0
O388 O 0.22101 0.4871 0.79308 0.0
C389 C 0.20651 0.56224 0.90317 0.0
O390 O 0.19875 0.56648 0.86764 0.0
O391 O 0.27604 0.51825 0.8413 0.0
C392 C 0.29326 0.39067 0.7626 0.0
O393 O 0.29902 0.37519 0.79526 0.0
O394 O 0.27455 0.42072 0.76102 0.0
O395 O 0.28987 0.43825 0.84888 0.0
O396 O 0.25356 0.44816 0.89726 0.0
O397 O 0.21298 0.39958 0.81937 0.0
C398 C 0.19061 0.49367 0.81009 0.0
C399 C 0.28137 0.43193 0.88275 0.0
Zn400 Zn 0.60965 0.73706 0.00788 0.0
Zn401 Zn 0.67613 0.74587 0.92474 0.0
C402 C 0.63234 0.65862 0.02677 0.0
O403 O 0.60524 0.64572 0.00574 0.0
C404 C 0.69006 0.80691 0.87718 0.0
O405 O 0.71475 0.81212 0.90374 0.0
O406 O 0.5686 0.74836 0.04468 0.0
O407 O 0.64383 0.77983 0.01381 0.0
O408 O 0.68504 0.78033 0.9677 0.0
C409 C 0.57808 0.74894 0.07885 0.0
O410 O 0.61275 0.7412 0.08774 0.0
O411 O 0.6381 0.69345 0.0286 0.0
C412 C 0.73073 0.70556 0.88339 0.0
O413 O 0.70205 0.70046 0.86113 0.0
O414 O 0.72558 0.72213 0.91419 0.0
O415 O 0.63624 0.7056 0.9276 0.0
O416 O 0.58697 0.72832 0.95704 0.0
O417 O 0.66793 0.7792 0.87964 0.0
C418 C 0.67282 0.79272 -0.00166 0.0
C419 C 0.60127 0.71119 0.92959 0.0
Zn420 Zn 0.12461 0.76065 0.99062 0.0
Zn421 Zn 0.18524 0.72463 0.07831 0.0
C422 C 0.1455 0.83526 0.97096 0.0
O423 O 0.11431 0.84323 0.98838 0.0
C424 C 0.20606 0.66543 0.1268 0.0
O425 O 0.23114 0.66021 0.10068 0.0
O426 O 0.08375 0.75192 0.95305 0.0
O427 O 0.15286 0.71221 0.99016 0.0
O428 O 0.18823 0.68911 0.03501 0.0
C429 C 0.0955 0.74409 0.9206 0.0
O430 O 0.13161 0.74488 0.91433 0.0
O431 O 0.15641 0.80163 0.96971 0.0
C432 C 0.23661 0.77398 0.11426 0.0
O433 O 0.20699 0.77952 0.13506 0.0
O434 O 0.23347 0.75332 0.08561 0.0
O435 O 0.13895 0.75589 0.08294 0.0
O436 O 0.10113 0.77681 0.03885 0.0
O437 O 0.1828 0.69178 0.12314 0.0
C438 C 0.17406 0.68677 0.00268 0.0
C439 C 0.11004 0.77376 0.073 0.0
Zn440 Zn 0.39209 0.23557 0.49749 0.0
Zn441 Zn 0.32286 0.24446 0.57822 0.0
C442 C 0.37828 0.1645 0.45995 0.0
O443 O 0.41342 0.16726 0.44992 0.0
C444 C 0.30892 0.30057 0.62945 0.0
O445 O 0.28073 0.30289 0.60616 0.0
O446 O 0.43168 0.24813 0.45925 0.0
O447 O 0.35646 0.27759 0.49215 0.0
O448 O 0.31379 0.28128 0.53675 0.0
C449 C 0.4204 0.2507 0.4257 0.0
O450 O 0.38525 0.24341 0.4182 0.0
O451 O 0.36448 0.18918 0.48126 0.0
C452 C 0.26801 0.20391 0.62026 0.0
O453 O 0.2965 0.19947 0.64288 0.0
O454 O 0.27333 0.2202 0.58926 0.0
O455 O 0.36299 0.20548 0.57072 0.0
O456 O 0.41471 0.22983 0.54875 0.0
O457 O 0.33365 0.27585 0.62375 0.0
C458 C 0.32788 0.2927 0.50638 0.0
C459 C 0.39715 0.214 0.57513 0.0
Zn460 Zn 0.86738 0.25937 0.50384 0.0
Zn461 Zn 0.80769 0.22629 0.4148 0.0
C462 C 0.84282 0.33499 0.51944 0.0
O463 O 0.86669 0.34402 0.4932 0.0
C464 C 0.78483 0.17071 0.36194 0.0
O465 O 0.76259 0.16013 0.38902 0.0
O466 O 0.90752 0.2453 0.54038 0.0
O467 O 0.83707 0.21228 0.50105 0.0
O468 O 0.80286 0.18839 0.45588 0.0
C469 C 0.91716 0.26459 0.56847 0.0
O470 O 0.9021 0.29751 0.57347 0.0
O471 O 0.83761 0.30082 0.52718 0.0
C472 C 0.75763 0.27756 0.38145 0.0
O473 O 0.7865 0.28115 0.35919 0.0
O474 O 0.76108 0.25755 0.41051 0.0
O475 O 0.85562 0.2556 0.41155 0.0
O476 O 0.89269 0.27606 0.45649 0.0
O477 O 0.80733 0.19746 0.36737 0.0
C478 C 0.81602 0.18666 0.48868 0.0
C479 C 0.88486 0.27268 0.4221 0.0
C480 C 0.1165 0.42338 0.29722 0.0
C481 C 0.09868 0.39087 0.31015 0.0
C482 C 0.14253 0.44246 0.31938 0.0
C483 C 0.15111 0.43021 0.3556 0.0
H484 H 0.11105 0.43367 0.26937 0.0
H485 H 0.15607 0.46695 0.30802 0.0
S486 S 0.11127 0.34727 0.40305 0.0
N487 N 0.09098 0.34766 0.36176 0.0
N488 N 0.1393 0.38379 0.40361 0.0
C489 C 0.13285 0.39823 0.36919 0.0
C490 C 0.10683 0.37847 0.34641 0.0
C491 C 0.3404 0.59694 0.8417 0.0
C492 C 0.32609 0.56201 0.83087 0.0
C493 C 0.36782 0.61524 0.82065 0.0
C494 C 0.38268 0.59913 0.78818 0.0
H495 H 0.33023 0.61048 0.86665 0.0
H496 H 0.3779 0.64199 0.83037 0.0
S497 S 0.35432 0.5084 0.74718 0.0
N498 N 0.3283 0.51235 0.78491 0.0
N499 N 0.38032 0.5464 0.74567 0.0
C500 C 0.3685 0.56428 0.77685 0.0
C501 C 0.3401 0.54586 0.79804 0.0
C502 C 0.64577 0.10184 0.69515 0.0
C503 C 0.6081 0.09113 0.69818 0.0
C504 C 0.67204 0.07866 0.67766 0.0
C505 C 0.66132 0.04448 0.66166 0.0
H506 H 0.65516 0.12793 0.70711 0.0
H507 H 0.70079 0.08791 0.67599 0.0
S508 S 0.56604 0.004 0.66182 0.0
N509 N 0.56153 0.04394 0.68419 0.0
N510 N 0.61047 0.00119 0.64996 0.0
C511 C 0.62368 0.03372 0.66417 0.0
C512 C 0.59718 0.05681 0.68281 0.0
C513 C 0.88477 0.93057 0.1973 0.0
C514 C 0.90294 0.89893 0.183 0.0
C515 C 0.85919 0.95073 0.17567 0.0
C516 C 0.85145 0.94052 0.13864 0.0
H517 H 0.88936 0.93914 0.22587 0.0
H518 H 0.84503 0.97422 0.1882 0.0
S519 S 0.89327 0.86106 0.08733 0.0
N520 N 0.91245 0.85912 0.12911 0.0
N521 N 0.86499 0.89729 0.08821 0.0
C522 C 0.87044 0.90969 0.12357 0.0
C523 C 0.89598 0.8888 0.14582 0.0
C524 C 0.36512 0.11801 0.40959 0.0
C525 C 0.35369 0.13617 0.44241 0.0
C526 C 0.34109 0.09386 0.39033 0.0
C527 C 0.30481 0.08649 0.40338 0.0
H528 H 0.39251 0.12327 0.39796 0.0
H529 H 0.35099 0.0811 0.36486 0.0
S530 S 0.26174 0.12578 0.48888 0.0
N531 N 0.30394 0.14421 0.48773 0.0
N532 N 0.25892 0.09874 0.45183 0.0
C533 C 0.29335 0.10371 0.43672 0.0
C534 C 0.31771 0.12855 0.45614 0.0
C535 C 0.20628 0.88015 0.89723 0.0
C536 C 0.20295 0.91843 0.90478 0.0
C537 C 0.18826 0.85356 0.91934 0.0
C538 C 0.16562 0.86419 0.94949 0.0
H539 H 0.22339 0.87052 0.87431 0.0
H540 H 0.19166 0.82444 0.91227 0.0
S541 S 0.14722 0.96096 0.98064 0.0
N542 N 0.1753 0.96575 0.9445 0.0
N543 N 0.14074 0.9157 0.98573 0.0
C544 C 0.1618 0.90239 0.95725 0.0
C545 C 0.18067 0.92952 0.93502 0.0
C546 C 0.81383 0.35528 0.5793 0.0
C547 C 0.82542 0.36412 0.54287 0.0
C548 C 0.79845 0.38237 0.60272 0.0
C549 C 0.7934 0.41918 0.59041 0.0
H550 H 0.817 0.32727 0.59004 0.0
H551 H 0.78961 0.37414 0.63039 0.0
S552 S 0.81927 0.45696 0.49781 0.0
N553 N 0.83132 0.41262 0.49588 0.0
N554 N 0.80148 0.46334 0.53974 0.0
C555 C 0.80478 0.42848 0.55413 0.0
C556 C 0.82108 0.40103 0.53043 0.0
C557 C 0.68084 0.57145 0.06265 0.0
C558 C 0.69808 0.58405 0.09553 0.0
C559 C 0.65907 0.59554 0.04076 0.0
C560 C 0.6548 0.63326 0.05047 0.0
H561 H 0.68406 0.54275 0.05394 0.0
H562 H 0.6461 0.58471 0.01573 0.0
S563 S 0.69562 0.67983 0.13363 0.0
N564 N 0.70998 0.63628 0.13663 0.0
N565 N 0.67004 0.68186 0.09543 0.0
C566 C 0.67231 0.6461 0.08327 0.0
C567 C 0.6937 0.62139 0.10583 0.0
C568 C 0.44977 0.33049 0.09881 0.0
C569 C 0.42127 0.30525 0.1085 0.0
C570 C 0.47026 0.34956 0.1262 0.0
C571 C 0.46365 0.34357 0.16438 0.0
H572 H 0.45598 0.336 0.0698 0.0
H573 H 0.49164 0.369 0.11736 0.0
S574 S 0.39264 0.28001 0.20476 0.0
N575 N 0.3877 0.2752 0.15929 0.0
N576 N 0.42667 0.3105 0.21054 0.0
C577 C 0.43562 0.31806 0.17453 0.0
C578 C 0.41429 0.29911 0.14667 0.0
C579 C 0.942 0.17832 0.90321 0.0
C580 C 0.91269 0.2025 0.89361 0.0
C581 C 0.96315 0.16041 0.87571 0.0
C582 C 0.95629 0.1667 0.83764 0.0
H583 H 0.94822 0.1726 0.93219 0.0
H584 H 0.98508 0.14156 0.88436 0.0
S585 S 0.88342 0.22847 0.79784 0.0
N586 N 0.87821 0.23225 0.84336 0.0
N587 N 0.91842 0.19929 0.79174 0.0
C588 C 0.92752 0.1914 0.82766 0.0
C589 C 0.90556 0.20907 0.85563 0.0
C590 C 0.56342 0.81863 0.32571 0.0
C591 C 0.53446 0.8426 0.33684 0.0
C592 C 0.58661 0.8012 0.35203 0.0
C593 C 0.58117 0.80632 0.39055 0.0
H594 H 0.56872 0.81387 0.29638 0.0
H595 H 0.6086 0.78309 0.34211 0.0
S596 S 0.50875 0.86568 0.43425 0.0
N597 N 0.5016 0.87046 0.38904 0.0
N598 N 0.54441 0.83691 0.43843 0.0
C599 C 0.552 0.82982 0.40204 0.0
C600 C 0.52889 0.84816 0.37523 0.0
C601 C 0.09954 0.66586 0.60493 0.0
C602 C 0.08505 0.70049 0.59381 0.0
C603 C 0.08034 0.64324 0.63027 0.0
C604 C 0.04644 0.65487 0.64607 0.0
H605 H 0.12583 0.65601 0.59382 0.0
H606 H 0.09275 0.61696 0.63837 0.0
S607 S 0.9966 0.74305 0.62603 0.0
N608 N 0.03445 0.74505 0.59985 0.0
N609 N -0.00113 0.70299 0.64855 0.0
C610 C 0.03156 0.68937 0.63514 0.0
C611 C 0.05073 0.71206 0.60868 0.0
C612 C 0.8803 0.61365 0.66992 0.0
C613 C 0.89166 0.60109 0.70527 0.0
C614 C 0.85095 0.59636 0.65075 0.0
C615 C 0.83114 0.56638 0.6665 0.0
H616 H 0.89471 0.63657 0.65651 0.0
H617 H 0.84359 0.60677 0.62338 0.0
S618 S 0.84839 0.52415 0.75922 0.0
N619 N 0.88014 0.5574 0.75578 0.0
N620 N 0.82415 0.52555 0.72008 0.0
C621 C 0.84146 0.55414 0.70226 0.0
C622 C 0.87196 0.57128 0.72152 0.0
C623 C 0.62989 0.43635 0.2161 0.0
C624 C 0.60783 0.40875 0.19891 0.0
C625 C 0.6595 0.45355 0.19703 0.0
C626 C 0.66762 0.44434 0.15984 0.0
H627 H 0.62486 0.4441 0.24482 0.0
H628 H 0.67597 0.4744 0.21143 0.0
S629 S 0.61814 0.3741 0.10207 0.0
N630 N 0.59624 0.3731 0.14248 0.0
N631 N 0.65129 0.40577 0.10656 0.0
C632 C 0.64548 0.41715 0.14219 0.0
C633 C 0.61577 0.39926 0.16175 0.0
C634 C 0.37891 0.90016 0.33528 0.0
C635 C 0.38776 0.90934 0.29825 0.0
C636 C 0.35029 0.91856 0.35437 0.0
C637 C 0.3288 0.94638 0.33698 0.0
H638 H 0.39423 0.87851 0.3497 0.0
H639 H 0.34453 0.91035 0.38284 0.0
S640 S 0.34055 0.98078 0.2402 0.0
N641 N 0.3729 0.94839 0.24486 0.0
N642 N 0.31861 0.98253 0.28059 0.0
C643 C 0.33735 0.95593 0.29994 0.0
C644 C 0.36698 0.93759 0.28066 0.0
C645 C 0.15346 0.0633 0.79581 0.0
C646 C 0.16615 0.07673 0.83037 0.0
C647 C 0.12253 0.07947 0.77794 0.0
C648 C 0.10362 0.11004 0.79368 0.0
H649 H 0.16686 0.03954 0.78297 0.0
H650 H 0.11347 0.06795 0.75155 0.0
S651 S 0.1279 0.1573 0.88253 0.0
N652 N 0.15871 0.12343 0.87879 0.0
N653 N 0.10113 0.15398 0.84525 0.0
C654 C 0.11688 0.12435 0.82773 0.0
C655 C 0.14797 0.10765 0.84605 0.0
C656 C 0.71116 0.88091 0.56446 0.0
C657 C 0.69584 0.8994 0.59549 0.0
C658 C 0.69114 0.85309 0.54545 0.0
C659 C 0.65472 0.84325 0.55626 0.0
H660 H 0.73913 0.88753 0.5551 0.0
H661 H 0.70412 0.83958 0.52182 0.0
S662 S 0.60184 0.88332 0.63568 0.0
N663 N 0.64212 0.90565 0.63626 0.0
N664 N 0.60428 0.85405 0.60032 0.0
C665 C 0.63902 0.86166 0.58716 0.0
C666 C 0.65962 0.88952 0.60683 0.0
C667 C 0.80206 0.15597 0.0623 0.0
C668 C 0.81947 0.14802 0.02812 0.0
C669 C 0.7829 0.12825 0.08216 0.0
C670 C 0.7799 0.09165 0.06839 0.0
H671 H 0.80439 0.18344 0.07456 0.0
H672 H 0.7707 0.13549 0.10878 0.0
S673 S 0.81773 0.0573 0.97853 0.0
N674 N 0.83051 0.10146 0.98019 0.0
N675 N 0.79419 0.04956 0.01728 0.0
C676 C 0.79571 0.08377 0.03341 0.0
C677 C 0.8156 0.11188 0.01339 0.0
C678 C 0.18489 0.62814 0.46389 0.0
C679 C 0.15021 0.63779 0.44828 0.0
C680 C 0.20775 0.60121 0.44709 0.0
C681 C 0.19717 0.58383 0.41356 0.0
H682 H 0.19433 0.64137 0.48934 0.0
H683 H 0.23422 0.59451 0.46004 0.0
S684 S 0.1094 0.60013 0.36102 0.0
N685 N 0.10646 0.62805 0.3974 0.0
N686 N 0.14963 0.57827 0.36541 0.0
C687 C 0.16264 0.59348 0.39759 0.0
C688 C 0.13909 0.62023 0.41509 0.0
C689 C 0.36253 0.37291 0.916 0.0
C690 C 0.3468 0.35156 0.94493 0.0
C691 C 0.3412 0.39884 0.89608 0.0
C692 C 0.30351 0.40505 0.90487 0.0
H693 H 0.39146 0.36913 0.90817 0.0
H694 H 0.35442 0.41428 0.87376 0.0
S695 S 0.24907 0.35659 0.97838 0.0
N696 N 0.29119 0.33825 0.98131 0.0
N697 N 0.25122 0.3876 0.94446 0.0
C698 C 0.2875 0.38419 0.93402 0.0
C699 C 0.30908 0.35726 0.95385 0.0
C700 C 0.56187 0.63493 0.8684 0.0
C701 C 0.53127 0.65231 0.85108 0.0
C702 C 0.58433 0.65423 0.89384 0.0
C703 C 0.57639 0.69124 0.90364 0.0
H704 H 0.56936 0.6066 0.86127 0.0
H705 H 0.6081 0.64004 0.90595 0.0
S706 S 0.49864 0.7488 0.86742 0.0
N707 N 0.49387 0.70844 0.84582 0.0
N708 N 0.53534 0.74432 0.89497 0.0
C709 C 0.54524 0.70861 0.88745 0.0
C710 C 0.5229 0.68925 0.86076 0.0
C711 C 0.04028 0.83882 0.11878 0.0
C712 C 0.04183 0.82855 0.15658 0.0
C713 C 0.06185 0.82047 0.09192 0.0
C714 C 0.08628 0.79146 0.10185 0.0
H715 H 0.02236 0.86137 0.1098 0.0
H716 H 0.05988 0.82971 0.06325 0.0
S717 S 0.10014 0.75336 0.19715 0.0
N718 N 0.06915 0.78687 0.20254 0.0
N719 N 0.11 0.75267 0.15224 0.0
C720 C 0.08778 0.78059 0.13956 0.0
C721 C 0.06544 0.799 0.16685 0.0
C722 C 0.4285 0.14413 0.64777 0.0
C723 C 0.46005 0.16119 0.66373 0.0
C724 C 0.40784 0.16187 0.61983 0.0
C725 C 0.41849 0.19698 0.60606 0.0
H726 H 0.41945 0.11689 0.65715 0.0
H727 H 0.38383 0.14752 0.60834 0.0
S728 S 0.49838 0.25392 0.63915 0.0
N729 N 0.50028 0.21571 0.66475 0.0
N730 N 0.46212 0.24866 0.61114 0.0
C731 C 0.44986 0.2145 0.62191 0.0
C732 C 0.47043 0.19675 0.65108 0.0
C733 C 0.9345 0.31831 0.40351 0.0
C734 C 0.91024 0.28905 0.3937 0.0
C735 C 0.9575 0.33543 0.37691 0.0
C736 C 0.95764 0.32366 0.33949 0.0
H737 H 0.93515 0.32875 0.43181 0.0
H738 H 0.97508 0.35835 0.38576 0.0
S739 S 0.90108 0.24659 0.29975 0.0
N740 N 0.8889 0.248 0.34406 0.0
N741 N 0.93243 0.27986 0.2943 0.0
C742 C 0.93437 0.29367 0.32949 0.0
C743 C 0.91057 0.27652 0.35649 0.0
C744 C 0.12999 0.14025 0.27736 0.0
C745 C 0.16173 0.13443 0.29967 0.0
C746 C 0.11264 0.17513 0.27557 0.0
C747 C 0.12655 0.2058 0.29572 0.0
H748 H 0.119 0.11797 0.26019 0.0
H749 H 0.0891 0.17836 0.2569 0.0
S750 S 0.20654 0.20442 0.36152 0.0
N751 N 0.20449 0.16159 0.34495 0.0
N752 N 0.17206 0.22721 0.34128 0.0
C753 C 0.15709 0.19992 0.31968 0.0
C754 C 0.17459 0.16424 0.32178 0.0
C755 C 0.33111 0.83278 0.8005 0.0
C756 C 0.34453 0.86256 0.77872 0.0
C757 C 0.34647 0.79706 0.79768 0.0
C758 C 0.3762 0.7896 0.77327 0.0
H759 H 0.30748 0.83659 0.8189 0.0
H760 H 0.33418 0.7749 0.81409 0.0
S761 S 0.4243 0.85873 0.71296 0.0
N762 N 0.39126 0.88283 0.73397 0.0
N763 N 0.42041 0.81576 0.72886 0.0
C764 C 0.39131 0.81955 0.75281 0.0
C765 C 0.37539 0.85596 0.75544 0.0
C766 C 0.63167 0.35091 0.72761 0.0
C767 C 0.66175 0.35929 0.70386 0.0
C768 C 0.61636 0.31497 0.72922 0.0
C769 C 0.6308 0.28568 0.70751 0.0
H770 H 0.62039 0.37207 0.7459 0.0
H771 H 0.59399 0.30986 0.74884 0.0
S772 S 0.7074 0.2935 0.63837 0.0
N773 N 0.70375 0.33574 0.6561 0.0
N774 N 0.67527 0.26819 0.65951 0.0
C775 C 0.65984 0.29399 0.68247 0.0
C776 C 0.6752 0.33076 0.68051 0.0
C777 C 0.8733 0.64356 0.21838 0.0
C778 C 0.84294 0.63523 0.19493 0.0
C779 C 0.88988 0.67892 0.21839 0.0
C780 C 0.87654 0.70765 0.19523 0.0
H781 H 0.88366 0.62298 0.23787 0.0
H782 H 0.91221 0.68416 0.23806 0.0
S783 S 0.80073 0.6992 0.12524 0.0
N784 N 0.80253 0.6578 0.14519 0.0
N785 N 0.83346 0.72437 0.14565 0.0
C786 C 0.84758 0.69918 0.17014 0.0
C787 C 0.83088 0.66297 0.16983 0.0
C788 C 0.26972 0.10519 0.18948 0.0
C789 C 0.2945 0.11144 0.21929 0.0
C790 C 0.27228 0.12582 0.15642 0.0
C791 C 0.29994 0.15327 0.15165 0.0
H792 H 0.24705 0.08539 0.19224 0.0
H793 H 0.25167 0.12087 0.13489 0.0
S794 S 0.37473 0.17684 0.21956 0.0
N795 N 0.34965 0.14457 0.24071 0.0
N796 N 0.35488 0.18308 0.17853 0.0
C797 C 0.3263 0.15822 0.18045 0.0
C798 C 0.32344 0.13741 0.21426 0.0
C799 C 0.18985 0.84809 0.71454 0.0
C800 C 0.20485 0.88436 0.71628 0.0
C801 C 0.18297 0.83049 0.68031 0.0
C802 C 0.19113 0.84831 0.64637 0.0
H803 H 0.18452 0.83253 0.73984 0.0
H804 H 0.17281 0.80206 0.68059 0.0
S805 S 0.22634 0.94499 0.63515 0.0
N806 N 0.22426 0.93877 0.68066 0.0
N807 N 0.21161 0.90561 0.6165 0.0
C808 C 0.20414 0.88532 0.6476 0.0
C809 C 0.21087 0.90337 0.68247 0.0
C810 C 0.79614 0.34497 0.78358 0.0
C811 C 0.78564 0.38262 0.78093 0.0
C812 C 0.80105 0.32763 0.81816 0.0
C813 C 0.79571 0.3471 0.85178 0.0
H814 H 0.79985 0.32831 0.75871 0.0
H815 H 0.80856 0.29842 0.81836 0.0
S816 S 0.77034 0.44697 0.86049 0.0
N817 N 0.77178 0.43947 0.81515 0.0
N818 N 0.78101 0.40682 0.8802 0.0
C819 C 0.78643 0.38514 0.84966 0.0
C820 C 0.78142 0.40289 0.81428 0.0
C821 C 0.68847 0.64364 0.28575 0.0
C822 C 0.71404 0.61416 0.2822 0.0
C823 C 0.68536 0.66381 0.319 0.0
C824 C 0.70797 0.65566 0.35005 0.0
H825 H 0.6713 0.65193 0.26233 0.0
H826 H 0.66603 0.68696 0.31974 0.0
S827 S 0.77705 0.57902 0.35656 0.0
N828 N 0.76058 0.57608 0.3137 0.0
N829 N 0.75489 0.61425 0.37603 0.0
C830 C 0.73251 0.62523 0.3475 0.0
C831 C 0.73548 0.60441 0.31367 0.0
C832 C 0.19773 0.27395 0.11708 0.0
C833 C 0.22903 0.28847 0.13591 0.0
C834 C 0.16183 0.27593 0.13261 0.0
C835 C 0.15557 0.29298 0.16738 0.0
H836 H 0.20115 0.25928 0.09095 0.0
H837 H 0.13895 0.26298 0.11768 0.0
S838 S 0.22754 0.33908 0.22607 0.0
N839 N 0.25094 0.3231 0.18987 0.0
N840 N 0.18359 0.32732 0.21879 0.0
C841 C 0.18631 0.30959 0.18545 0.0
C842 C 0.22296 0.30717 0.16983 0.0
C843 C 0.69051 0.21405 0.89439 0.0
C844 C 0.72174 0.19592 0.87906 0.0
C845 C 0.65556 0.21253 0.8769 0.0
C846 C 0.65035 0.19253 0.84361 0.0
H847 H 0.69347 0.23157 0.91878 0.0
H848 H 0.63294 0.22862 0.88872 0.0
S849 S 0.72163 0.13433 0.79613 0.0
N850 N 0.74409 0.15326 0.83157 0.0
N851 N 0.6784 0.14983 0.7989 0.0
C852 C 0.68058 0.1715 0.82987 0.0
C853 C 0.71627 0.17337 0.84754 0.0
C854 C 0.78271 0.806 0.32431 0.0
C855 C 0.77754 0.78976 0.35964 0.0
C856 C 0.81824 0.80857 0.30809 0.0
C857 C 0.85004 0.79442 0.32626 0.0
H858 H 0.75894 0.81588 0.30849 0.0
H859 H 0.82045 0.82012 0.28029 0.0
S860 S 0.85242 0.7522 0.42061 0.0
N861 N 0.80794 0.7618 0.4135 0.0
N862 N 0.8745 0.76617 0.38275 0.0
C863 C 0.84559 0.77966 0.3623 0.0
C864 C 0.80944 0.77749 0.37907 0.0
C865 C 0.30999 0.68746 0.66186 0.0
C866 C 0.34262 0.7014 0.64511 0.0
C867 C 0.27502 0.69241 0.64524 0.0
C868 C 0.27122 0.71142 0.61115 0.0
H869 H 0.31112 0.67405 0.68888 0.0
H870 H 0.25067 0.68252 0.66014 0.0
S871 S 0.34873 0.74778 0.55286 0.0
N872 N 0.36947 0.73101 0.59034 0.0
N873 N 0.3037 0.74028 0.55901 0.0
C874 C 0.30389 0.72316 0.59279 0.0
C875 C 0.33958 0.71819 0.60981 0.0
C876 C 0.86837 0.84864 0.72167 0.0
C877 C 0.83692 0.85396 0.69877 0.0
C878 C 0.88561 0.81375 0.72468 0.0
C879 C 0.87192 0.78254 0.70521 0.0
H880 H 0.87915 0.87134 0.73839 0.0
H881 H 0.90887 0.81097 0.74377 0.0
S882 S 0.79269 0.78236 0.63841 0.0
N883 N 0.79467 0.82562 0.65378 0.0
N884 N 0.82688 0.76006 0.65965 0.0
C885 C 0.84171 0.78789 0.68065 0.0
C886 C 0.8243 0.82356 0.67735 0.0
C887 C 0.61281 0.15985 0.19236 0.0
C888 C 0.6468 0.15485 0.17355 0.0
C889 C 0.59896 0.19546 0.19976 0.0
C890 C 0.6187 0.22763 0.18893 0.0
H891 H 0.59728 0.13606 0.20263 0.0
H892 H 0.57328 0.19763 0.21548 0.0
S893 S 0.70726 0.22976 0.13527 0.0
N894 N 0.69844 0.18504 0.14136 0.0
N895 N 0.67248 0.25208 0.15542 0.0
C896 C 0.65168 0.22306 0.16815 0.0
C897 C 0.66571 0.18666 0.16039 0.0
C898 C 0.38343 0.69293 0.29225 0.0
C899 C 0.36468 0.72539 0.30362 0.0
C900 C 0.3678 0.65762 0.29769 0.0
C901 C 0.33297 0.65316 0.31514 0.0
H902 H 0.40978 0.69471 0.27758 0.0
H903 H 0.3828 0.63365 0.2872 0.0
S904 S 0.27407 0.72873 0.3537 0.0
N905 N 0.31049 0.75053 0.33579 0.0
N906 N 0.28129 0.68395 0.34626 0.0
C907 C 0.3148 0.68511 0.32862 0.0
C908 C 0.33059 0.72126 0.32276 0.0
C909 C 0.16063 0.29285 0.81142 0.0
C910 C 0.12645 0.28932 0.79228 0.0
C911 C 0.17856 0.32744 0.81494 0.0
C912 C 0.16322 0.35984 0.79913 0.0
H913 H 0.17443 0.2685 0.82266 0.0
H914 H 0.20558 0.32836 0.82847 0.0
S915 S 0.07195 0.367 0.75082 0.0
N916 N 0.07607 0.32232 0.76085 0.0
N917 N 0.11006 0.38707 0.76717 0.0
C918 C 0.12804 0.3572 0.78194 0.0
C919 C 0.10957 0.32205 0.77863 0.0
C920 C 0.6788 0.81659 0.80887 0.0
C921 C 0.69144 0.83053 0.84324 0.0
C922 C 0.68477 0.83638 0.77564 0.0
C923 C 0.70331 0.87107 0.77546 0.0
H924 H 0.66568 0.78944 0.80733 0.0
H925 H 0.6757 0.82376 0.74977 0.0
S926 S 0.73752 0.92191 0.85892 0.0
N927 N 0.72024 0.88268 0.87561 0.0
N928 N 0.73122 0.91992 0.81342 0.0
C929 C 0.71412 0.88627 0.80999 0.0
C930 C 0.70828 0.86599 0.84376 0.0
C931 C 0.7596 0.10259 0.28538 0.0
C932 C 0.76996 0.12174 0.25273 0.0
C933 C 0.76517 0.11833 0.32064 0.0
C934 C 0.78164 0.15364 0.32463 0.0
H935 H 0.74617 0.07559 0.28377 0.0
H936 H 0.75611 0.10284 0.34492 0.0
S937 S 0.81455 0.21513 0.24816 0.0
N938 N 0.79832 0.17777 0.22686 0.0
N939 N 0.80877 0.20722 0.29306 0.0
C940 C 0.79308 0.17272 0.29234 0.0
C941 C 0.78725 0.1568 0.25642 0.0
C942 C 0.1878 0.65647 0.19327 0.0
C943 C 0.20709 0.64354 0.16172 0.0
C944 C 0.19139 0.63873 0.22778 0.0
C945 C 0.21426 0.60722 0.23214 0.0
H946 H 0.17081 0.68135 0.19175 0.0
H947 H 0.17703 0.65066 0.25146 0.0
S948 S 0.26683 0.55935 0.15696 0.0
N949 N 0.24704 0.59523 0.13612 0.0
N950 N 0.25376 0.56171 0.20097 0.0
C951 C 0.23198 0.59266 0.2003 0.0
C952 C 0.22845 0.6109 0.16512 0.0
C953 C 0.28449 0.37986 0.69441 0.0
C954 C 0.30241 0.37012 0.72791 0.0
C955 C 0.28797 0.3578 0.66249 0.0
C956 C 0.30986 0.3253 0.66249 0.0
H957 H 0.26626 0.40385 0.69314 0.0
H958 H 0.27256 0.36591 0.6378 0.0
S959 S 0.36603 0.28968 0.74168 0.0
N960 N 0.3454 0.32727 0.75825 0.0
N961 N 0.35216 0.286 0.69795 0.0
C962 C 0.32972 0.31634 0.69507 0.0
C963 C 0.3259 0.33867 0.72783 0.0
C964 C 0.80972 0.67924 0.81835 0.0
C965 C 0.84109 0.69531 0.83561 0.0
C966 C 0.7744 0.68094 0.83499 0.0
C967 C 0.76915 0.69843 0.8697 0.0
H968 H 0.81203 0.66689 0.79092 0.0
H969 H 0.75083 0.66967 0.81978 0.0
S970 S 0.84367 0.73964 0.92892 0.0
N971 N 0.86558 0.72559 0.89105 0.0
N972 N 0.79942 0.7285 0.9226 0.0
C973 C 0.80087 0.71222 0.88845 0.0
C974 C 0.83676 0.71078 0.8713 0.0
C975 C 0.30592 0.76512 0.11677 0.0
C976 C 0.27412 0.78495 0.12831 0.0
C977 C 0.34052 0.77006 0.13445 0.0
C978 C 0.34493 0.79531 0.16416 0.0
H979 H 0.30375 0.74412 0.09523 0.0
H980 H 0.36367 0.75289 0.12555 0.0
S981 S 0.27155 0.85803 0.20142 0.0
N982 N 0.25014 0.83362 0.16878 0.0
N983 N 0.31514 0.84324 0.2017 0.0
C984 C 0.31396 0.81723 0.17423 0.0
C985 C 0.2786 0.81193 0.15642 0.0
C986 C 0.19915 0.214 0.61507 0.0
C987 C 0.22935 0.1971 0.6336 0.0
C988 C 0.16314 0.21348 0.63023 0.0
C989 C 0.15569 0.19579 0.66442 0.0
H990 H 0.20353 0.22935 0.58946 0.0
H991 H 0.14127 0.22822 0.61554 0.0
S992 S 0.22396 0.14276 0.72151 0.0
N993 N 0.24864 0.15885 0.68615 0.0
N994 N 0.18095 0.15758 0.71453 0.0
C995 C 0.18511 0.17659 0.68203 0.0
C996 C 0.22191 0.17735 0.66668 0.0
C997 C 0.65309 0.27547 0.36513 0.0
C998 C 0.64847 0.29901 0.33408 0.0
C999 C 0.68807 0.27072 0.38203 0.0
C1000 C 0.72001 0.28904 0.36835 0.0
H1001 H 0.62978 0.25941 0.37571 0.0
H1002 H 0.69036 0.25091 0.40468 0.0
S1003 S 0.72224 0.35775 0.29106 0.0
N1004 N 0.67831 0.34403 0.29294 0.0
N1005 N 0.74401 0.33476 0.32445 0.0
C1006 C 0.71538 0.31452 0.3389 0.0
C1007 C 0.67966 0.31962 0.32186 0.0
C1008 C 0.96626 0.25566 0.16498 0.0
C1009 C 0.98863 0.28729 0.15881 0.0
C1010 C 0.94369 0.241 0.13657 0.0
C1011 C 0.94312 0.25703 0.10075 0.0
H1012 H 0.96512 0.24294 0.19234 0.0
H1013 H 0.92609 0.2173 0.14297 0.0
S1014 S -0.00043 0.33822 0.06958 0.0
N1015 N 0.01073 0.3328 0.11386 0.0
N1016 N 0.96895 0.30511 0.06028 0.0
C1017 C 0.96672 0.28773 0.09386 0.0
C1018 C 0.98925 0.30291 0.12294 0.0
C1019 C 0.53118 0.72538 0.5976 0.0
C1020 C 0.56691 0.71027 0.59182 0.0
C1021 C 0.50885 0.71376 0.62762 0.0
C1022 C 0.52115 0.68614 0.65266 0.0
H1023 H 0.52056 0.74674 0.57911 0.0
H1024 H 0.48165 0.72638 0.63102 0.0
S1025 S 0.61234 0.63687 0.64896 0.0
N1026 N 0.61336 0.66576 0.61322 0.0
N1027 N 0.57161 0.64374 0.66917 0.0
C1028 C 0.55678 0.67054 0.64685 0.0
C1029 C 0.57958 0.68265 0.61659 0.0
C1030 C 0.4442 0.24423 0.86144 0.0
C1031 C 0.44933 0.23331 0.89879 0.0
C1032 C 0.46646 0.22964 0.83279 0.0
C1033 C 0.49396 0.2028 0.84033 0.0
H1034 H 0.42247 0.26389 0.85419 0.0
H1035 H 0.46108 0.23834 0.80438 0.0
S1036 S 0.51962 0.16589 0.9334 0.0
N1037 N 0.48524 0.19527 0.94184 0.0
N1038 N 0.52628 0.16706 0.8879 0.0
C1039 C 0.49993 0.19222 0.87758 0.0
C1040 C 0.47785 0.2077 0.90685 0.0
C1041 C 0.05872 0.74699 0.35188 0.0
C1042 C 0.05071 0.75444 0.38955 0.0
C1043 C 0.03742 0.76275 0.32321 0.0
C1044 C 0.00788 0.78708 0.33122 0.0
H1045 H 0.08222 0.7296 0.34441 0.0
H1046 H 0.04515 0.75712 0.29458 0.0
S1047 S 0.97291 0.81285 0.42474 0.0
N1048 N 0.00891 0.78544 0.43311 0.0
N1049 N 0.96958 0.81567 0.37895 0.0
C1050 C 0.99855 0.79363 0.36856 0.0
C1051 C 0.01974 0.77707 0.39782 0.0
C1052 C 0.1585 0.94662 0.27527 0.0
C1053 C 0.1517 0.97713 0.29878 0.0
C1054 C 0.12946 0.92271 0.26433 0.0
C1055 C 0.09237 0.92879 0.27587 0.0
H1056 H 0.18668 0.94028 0.26642 0.0
H1057 H 0.13629 0.89898 0.24702 0.0
S1058 S 0.05956 0.00669 0.33524 0.0
N1059 N 0.10503 0.01333 0.33178 0.0
N1060 N 0.05036 0.96892 0.31065 0.0
C1061 C 0.08501 0.96014 0.29814 0.0
C1062 C 0.1147 0.98412 0.30977 0.0
C1063 C 0.4121 0.04573 0.80629 0.0
C1064 C 0.40883 0.07267 0.7781 0.0
C1065 C 0.38133 0.02403 0.81694 0.0
C1066 C 0.34662 0.02777 0.79899 0.0
H1067 H 0.43816 0.04241 0.82123 0.0
H1068 H 0.38464 0.0044 0.83963 0.0
S1069 S 0.32432 0.09274 0.72186 0.0
N1070 N 0.36861 0.10114 0.73156 0.0
N1071 N 0.31113 0.05938 0.75073 0.0
C1072 C 0.34341 0.05355 0.76974 0.0
C1073 C 0.37445 0.0763 0.75954 0.0
C1074 C 0.65496 0.54277 0.73741 0.0
C1075 C 0.65028 0.51926 0.70648 0.0
C1076 C 0.62455 0.56201 0.75252 0.0
C1077 C 0.5884 0.55763 0.7378 0.0
H1078 H 0.68253 0.54788 0.74873 0.0
H1079 H 0.62959 0.58138 0.77511 0.0
S1080 S 0.56111 0.49578 0.6596 0.0
N1081 N 0.60669 0.49029 0.66347 0.0
N1082 N 0.54932 0.52572 0.69242 0.0
C1083 C 0.58307 0.53228 0.70844 0.0
C1084 C 0.61412 0.51332 0.69259 0.0
C1085 C 0.91243 0.45219 0.19847 0.0
C1086 C 0.90605 0.42436 0.22528 0.0
C1087 C 0.88335 0.47523 0.18609 0.0
C1088 C 0.84703 0.47189 0.20067 0.0
H1089 H 0.9397 0.45523 0.18582 0.0
H1090 H 0.88928 0.49553 0.16455 0.0
S1091 S 0.8165 0.40526 0.27358 0.0
N1092 N 0.86115 0.3959 0.26738 0.0
N1093 N 0.80679 0.43978 0.24476 0.0
C1094 C 0.84068 0.44528 0.2287 0.0
C1095 C 0.87011 0.42135 0.2408 0.0
C1096 C 0.34808 0.15979 0.94935 0.0
C1097 C 0.32416 0.1704 0.97857 0.0
C1098 C 0.33787 0.13201 0.92392 0.0
C1099 C 0.30358 0.11318 0.92698 0.0
H1100 H 0.37496 0.1732 0.94585 0.0
H1101 H 0.35733 0.12491 0.90197 0.0
S1102 S 0.23039 0.13069 -0.00212 0.0
N1103 N 0.26409 0.16027 0.00852 0.0
N1104 N 0.24522 0.10754 0.96104 0.0
C1105 C 0.27927 0.12346 0.95594 0.0
C1106 C 0.28944 0.15222 0.98159 0.0
C1107 C 0.78242 0.33158 0.04186 0.0
C1108 C 0.81187 0.33701 0.01662 0.0
C1109 C 0.77143 0.36006 0.06614 0.0
C1110 C 0.78879 0.3952 0.06518 0.0
H1111 H 0.76864 0.30476 0.04373 0.0
H1112 H 0.74926 0.35447 0.08588 0.0
S1113 S 0.86576 0.42399 0.0024 0.0
N1114 N 0.85746 0.38015 0.99118 0.0
N1115 N 0.83591 0.43424 0.03588 0.0
C1116 C 0.81737 0.40136 0.03909 0.0
C1117 C 0.82919 0.37206 0.01507 0.0
C1118 C 0.67038 0.63685 0.51618 0.0
C1119 C 0.68822 0.67173 0.51372 0.0
C1120 C 0.68241 0.60969 0.54163 0.0
C1121 C 0.71208 0.61677 0.56629 0.0
H1122 H 0.64691 0.63043 0.49825 0.0
H1123 H 0.66768 0.58334 0.54268 0.0
S1124 S 0.76825 0.70352 0.57118 0.0
N1125 N 0.73758 0.71157 0.53778 0.0
N1126 N 0.75941 0.661 0.58637 0.0
C1127 C 0.73021 0.65148 0.56413 0.0
C1128 C 0.71853 0.67882 0.53761 0.0
C1129 C 0.19767 0.86778 0.47953 0.0
C1130 C 0.17567 0.83883 0.4647 0.0
C1131 C 0.20802 0.89852 0.45768 0.0
C1132 C 0.19719 0.90117 0.42009 0.0
H1133 H 0.20664 0.86696 0.50833 0.0
H1134 H 0.22492 0.92017 0.47027 0.0
S1135 S 0.1395 0.83293 0.36766 0.0
N1136 N 0.14347 0.81497 0.40976 0.0
N1137 N 0.16297 0.87246 0.369 0.0
C1138 C 0.17535 0.87238 0.40485 0.0
C1139 C 0.16457 0.84131 0.42707 0.0
C1140 C 0.061 0.69146 0.83604 0.0
C1141 C 0.02253 0.69914 0.83527 0.0
C1142 C 0.08425 0.70682 0.86331 0.0
C1143 C 0.06994 0.73 0.89141 0.0
H1144 H 0.07345 0.67359 0.81516 0.0
H1145 H 0.11363 0.69979 0.86268 0.0
S1146 S 0.97113 0.7587 0.90217 0.0
N1147 N 0.97112 0.73176 0.86489 0.0
N1148 N 0.01482 0.76011 0.91683 0.0
C1149 C 0.03151 0.73795 0.89113 0.0
C1150 C 0.00784 0.72273 0.86285 0.0
C1151 C 0.4948 0.3073 0.37606 0.0
C1152 C 0.48895 0.29827 0.33836 0.0
C1153 C 0.47363 0.29054 0.40436 0.0
C1154 C 0.44522 0.26481 0.3959 0.0
H1155 H 0.51585 0.32759 0.38374 0.0
H1156 H 0.47869 0.29879 0.43295 0.0
S1157 S 0.41923 0.23113 0.30164 0.0
N1158 N 0.45343 0.26107 0.29416 0.0
N1159 N 0.41305 0.23029 0.34721 0.0
C1160 C 0.43942 0.25517 0.35836 0.0
C1161 C 0.46145 0.27168 0.32963 0.0
C1162 C 0.52325 0.7871 0.09859 0.0
C1163 C 0.55197 0.76212 0.10791 0.0
C1164 C 0.5009 0.80327 0.12623 0.0
C1165 C 0.50586 0.79435 0.16407 0.0
H1166 H 0.51888 0.79535 0.06989 0.0
H1167 H 0.47977 0.82316 0.11793 0.0
S1168 S 0.57585 0.72906 0.20299 0.0
N1169 N 0.58339 0.72835 0.15762 0.0
N1170 N 0.54075 0.75808 0.20939 0.0
C1171 C 0.53353 0.7684 0.17367 0.0
C1172 C 0.55678 0.75248 0.14563 0.0
C1173 C 0.95044 0.20975 0.59547 0.0
C1174 C 0.94174 0.24793 0.59727 0.0
C1175 C 0.97088 0.19226 0.6237 0.0
C1176 C 0.98388 0.21226 0.6548 0.0
H1177 H 0.94064 0.19281 0.57246 0.0
H1178 H 0.97628 0.16271 0.62118 0.0
S1179 S 0.97001 0.31324 0.67242 0.0
N1180 N 0.9487 0.30551 0.63237 0.0
N1181 N 0.98738 0.2727 0.68535 0.0
C1182 C 0.97628 0.2507 0.65656 0.0
C1183 C 0.95515 0.26851 0.62788 0.0
C1184 C 0.87766 0.01555 0.68184 0.0
C1185 C 0.84195 0.01704 0.69819 0.0
C1186 C 0.90692 0.03835 0.69447 0.0
C1187 C 0.90135 0.06412 0.72339 0.0
H1188 H 0.88289 0.99702 0.65863 0.0
H1189 H 0.93357 0.03692 0.68035 0.0
S1190 S 0.8138 0.07763 0.77692 0.0
N1191 N 0.80334 0.045 0.74623 0.0
N1192 N 0.85797 0.08842 0.76941 0.0
C1193 C 0.86613 0.06509 0.74075 0.0
C1194 C 0.83654 0.04139 0.72834 0.0
C1195 C 0.6148 0.98443 0.1851 0.0
C1196 C 0.64752 0.96706 0.17213 0.0
C1197 C 0.58421 0.96339 0.19788 0.0
C1198 C 0.58534 0.92417 0.19863 0.0
H1199 H 0.61254 0.01451 0.18482 0.0
H1200 H 0.55951 0.97802 0.20716 0.0
S1201 S 0.66567 0.8653 0.17017 0.0
N1202 N 0.67976 0.90835 0.16249 0.0
N1203 N 0.62287 0.86898 0.18652 0.0
C1204 C 0.61828 0.90656 0.18644 0.0
C1205 C 0.64916 0.92793 0.1732 0.0
C1206 C 0.38692 0.41415 0.32464 0.0
C1207 C 0.41487 0.43064 0.30261 0.0
C1208 C 0.3559 0.4344 0.33656 0.0
C1209 C 0.35108 0.47201 0.32662 0.0
H1210 H 0.38894 0.38521 0.33294 0.0
H1211 H 0.33523 0.42009 0.35331 0.0
S1212 S 0.41654 0.52861 0.26974 0.0
N1213 N 0.4362 0.48708 0.27175 0.0
N1214 N 0.37745 0.52523 0.29384 0.0
C1215 C 0.37892 0.48903 0.30473 0.0
C1216 C 0.41093 0.46839 0.29289 0.0
C1217 C 0.16646 0.54354 0.76807 0.0
C1218 C 0.15944 0.51306 0.79154 0.0
C1219 C 0.13714 0.56587 0.755 0.0
C1220 C 0.09972 0.55808 0.76437 0.0
H1221 H 0.19488 0.55133 0.76131 0.0
H1222 H 0.14399 0.59001 0.73822 0.0
S1223 S 0.0667 0.47821 0.82124 0.0
N1224 N 0.11258 0.47416 0.82114 0.0
N1225 N 0.05733 0.51548 0.79595 0.0
C1226 C 0.0923 0.52618 0.78592 0.0
C1227 C 0.12222 0.50388 0.79972 0.0
C1228 C 0.70358 0.85482 0.00076 0.0
C1229 C 0.69435 0.82111 0.01819 0.0
C1230 C 0.72126 0.88331 0.02077 0.0
C1231 C 0.73084 0.87861 0.05859 0.0
H1232 H 0.69573 0.85972 0.97201 0.0
H1233 H 0.72638 0.90956 0.00677 0.0
S1234 S 0.71828 0.79215 0.11428 0.0
N1235 N 0.69932 0.78256 0.07347 0.0
N1236 N 0.73394 0.8353 0.11092 0.0
C1237 C 0.72412 0.84373 0.07532 0.0
C1238 C 0.7054 0.81517 0.05515 0.0
C1239 C 0.17635 0.62309 0.91803 0.0
C1240 C 0.19807 0.59269 0.92986 0.0
C1241 C 0.16862 0.65294 0.94184 0.0
C1242 C 0.18245 0.65404 0.97856 0.0
H1243 H 0.16511 0.62399 0.89003 0.0
H1244 H 0.15171 0.67543 0.93107 0.0
S1245 S 0.24031 0.5809 0.02365 0.0
N1246 N 0.23292 0.56511 0.9811 0.0
N1247 N 0.21855 0.6213 0.02584 0.0
C1248 C 0.20399 0.62359 0.99096 0.0
C1249 C 0.21172 0.59297 0.96666 0.0
C1250 C 0.313 0.32422 0.44662 0.0
C1251 C 0.30979 0.32325 0.48562 0.0
C1252 C 0.29704 0.35291 0.4258 0.0
C1253 C 0.27765 0.38217 0.44314 0.0
H1254 H 0.32796 0.30255 0.43191 0.0
H1255 H 0.30079 0.35247 0.39586 0.0
S1256 S 0.26085 0.39249 0.54458 0.0
N1257 N 0.2852 0.35367 0.54088 0.0
N1258 N 0.25542 0.40812 0.50163 0.0
C1259 C 0.27384 0.38146 0.48212 0.0
C1260 C 0.28979 0.35184 0.50338 0.0
C1261 C 0.8173 0.15534 0.55101 0.0
C1262 C 0.80705 0.15429 0.51312 0.0
C1263 C 0.80942 0.1256 0.57499 0.0
C1264 C 0.79117 0.09328 0.56229 0.0
H1265 H 0.83141 0.17942 0.56245 0.0
H1266 H 0.81796 0.12811 0.60388 0.0
S1267 S 0.75858 0.076 0.46559 0.0
N1268 N 0.77768 0.11782 0.46395 0.0
N1269 N 0.76304 0.06191 0.50915 0.0
C1270 C 0.78085 0.09161 0.52444 0.0
C1271 C 0.78873 0.12212 0.49996 0.0
loop_
_geom_bond_atom_site_label_1
_geom_bond_atom_site_label_2
_geom_bond_distance
_geom_bond_site_symmetry_2
_ccdc_geom_bond_type
Zn0 O6 1.969 . S
Zn0 O7 1.965 . S
Zn0 O11 2.024 . S
Zn0 O16 1.969 . S
Zn1 O8 1.969 1_655 S
Zn1 O14 1.969 . S
Zn1 O15 1.965 . S
Zn1 O17 2.024 . S
C2 O3 1.229 . S
C2 O11 1.058 . S
O3 C2 1.229 . S
C4 O5 1.229 . S
C4 O17 1.058 . S
O5 C4 1.229 . S
O6 Zn0 1.969 . S
O6 C9 1.267 . S
O7 Zn0 1.965 . S
O7 C18 1.260 . S
O8 Zn1 1.969 1_455 S
O8 C18 1.258 . S
C9 O6 1.267 . S
C9 O10 1.228 . S
O10 C9 1.228 . S
O11 Zn0 2.024 . S
O11 C2 1.058 . S
C12 O13 1.228 . S
C12 O14 1.267 . S
O13 C12 1.228 . S
O14 Zn1 1.969 . S
O14 C12 1.267 . S
O15 Zn1 1.965 . S
O15 C19 1.260 . S
O16 Zn0 1.969 . S
O16 C19 1.258 1_455 S
O17 Zn1 2.024 . S
O17 C4 1.058 . S
C18 O7 1.260 . S
C18 O8 1.258 . S
C19 O15 1.260 . S
C19 O16 1.258 1_655 S
Zn20 O26 1.969 . S
Zn20 O27 1.965 . S
Zn20 O31 2.024 . S
Zn20 O36 1.969 . S
Zn21 O28 1.969 . S
Zn21 O34 1.969 . S
Zn21 O35 1.965 . S
Zn21 O37 2.024 . S
C22 O23 1.229 . S
C22 O31 1.058 . S
O23 C22 1.229 . S
C24 O25 1.229 . S
C24 O37 1.058 . S
O25 C24 1.229 . S
O26 Zn20 1.969 . S
O26 C29 1.267 . S
O27 Zn20 1.965 . S
O27 C38 1.260 . S
O28 Zn21 1.969 . S
O28 C38 1.258 . S
C29 O26 1.267 . S
C29 O30 1.228 . S
O30 C29 1.228 . S
O31 Zn20 2.024 . S
O31 C22 1.058 . S
C32 O33 1.228 . S
C32 O34 1.267 . S
O33 C32 1.228 . S
O34 Zn21 1.969 . S
O34 C32 1.267 . S
O35 Zn21 1.965 . S
O35 C39 1.260 . S
O36 Zn20 1.969 . S
O36 C39 1.258 . S
O37 Zn21 2.024 . S
O37 C24 1.058 . S
C38 O27 1.260 . S
C38 O28 1.258 . S
C39 O35 1.260 . S
C39 O36 1.258 . S
Zn40 O46 1.969 . S
Zn40 O47 1.965 . S
Zn40 O51 2.024 . S
Zn40 O56 1.969 . S
Zn41 O48 1.969 . S
Zn41 O54 1.969 . S
Zn41 O55 1.965 . S
Zn41 O57 2.024 . S
C42 O43 1.229 . S
C42 O51 1.058 . S
O43 C42 1.229 . S
C44 O45 1.229 . S
C44 O57 1.058 . S
O45 C44 1.229 . S
O46 Zn40 1.969 . S
O46 C49 1.267 . S
O47 Zn40 1.965 . S
O47 C58 1.260 . S
O48 Zn41 1.969 . S
O48 C58 1.258 . S
C49 O46 1.267 . S
C49 O50 1.228 . S
O50 C49 1.228 . S
O51 Zn40 2.024 . S
O51 C42 1.058 . S
C52 O53 1.228 . S
C52 O54 1.267 . S
O53 C52 1.228 . S
O54 Zn41 1.969 . S
O54 C52 1.267 . S
O55 Zn41 1.965 . S
O55 C59 1.260 . S
O56 Zn40 1.969 . S
O56 C59 1.258 . S
O57 Zn41 2.024 . S
O57 C44 1.058 . S
C58 O47 1.260 . S
C58 O48 1.258 . S
C59 O55 1.260 . S
C59 O56 1.258 . S
Zn60 O66 1.969 . S
Zn60 O67 1.965 . S
Zn60 O71 2.024 . S
Zn60 O76 1.969 . S
Zn61 O68 1.969 1_455 S
Zn61 O74 1.969 . S
Zn61 O75 1.965 . S
Zn61 O77 2.024 . S
C62 O63 1.229 . S
C62 O71 1.058 . S
O63 C62 1.229 . S
C64 O65 1.229 . S
C64 O77 1.058 . S
O65 C64 1.229 . S
O66 Zn60 1.969 . S
O66 C69 1.267 . S
O67 Zn60 1.965 . S
O67 C78 1.260 . S
O68 Zn61 1.969 1_655 S
O68 C78 1.258 . S
C69 O66 1.267 . S
C69 O70 1.228 . S
O70 C69 1.228 . S
O71 Zn60 2.024 . S
O71 C62 1.058 . S
C72 O73 1.228 . S
C72 O74 1.267 . S
O73 C72 1.228 . S
O74 Zn61 1.969 . S
O74 C72 1.267 . S
O75 Zn61 1.965 . S
O75 C79 1.260 . S
O76 Zn60 1.969 . S
O76 C79 1.258 1_655 S
O77 Zn61 2.024 . S
O77 C64 1.058 . S
C78 O67 1.260 . S
C78 O68 1.258 . S
C79 O75 1.260 . S
C79 O76 1.258 1_455 S
Zn80 O86 1.969 . S
Zn80 O87 1.965 . S
Zn80 O91 2.024 . S
Zn80 O96 1.969 . S
Zn81 O88 1.969 1_565 S
Zn81 O94 1.969 . S
Zn81 O95 1.965 . S
Zn81 O97 2.024 . S
C82 O83 1.229 . S
C82 O91 1.058 . S
O83 C82 1.229 . S
C84 O85 1.229 . S
C84 O97 1.058 . S
O85 C84 1.229 . S
O86 Zn80 1.969 . S
O86 C89 1.267 . S
O87 Zn80 1.965 . S
O87 C98 1.260 . S
O88 Zn81 1.969 1_545 S
O88 C98 1.258 . S
C89 O86 1.267 . S
C89 O90 1.228 . S
O90 C89 1.228 . S
O91 Zn80 2.024 . S
O91 C82 1.058 . S
C92 O93 1.228 . S
C92 O94 1.267 . S
O93 C92 1.228 . S
O94 Zn81 1.969 . S
O94 C92 1.267 . S
O95 Zn81 1.965 . S
O95 C99 1.260 . S
O96 Zn80 1.969 . S
O96 C99 1.258 1_545 S
O97 Zn81 2.024 . S
O97 C84 1.058 . S
C98 O87 1.260 . S
C98 O88 1.258 . S
C99 O95 1.260 . S
C99 O96 1.258 1_565 S
Zn100 O106 1.969 . S
Zn100 O107 1.965 . S
Zn100 O111 2.024 . S
Zn100 O116 1.969 . S
Zn101 O108 1.969 1_545 S
Zn101 O114 1.969 . S
Zn101 O115 1.965 . S
Zn101 O117 2.024 . S
C102 O103 1.229 . S
C102 O111 1.058 . S
O103 C102 1.229 . S
C104 O105 1.229 . S
C104 O117 1.058 . S
O105 C104 1.229 . S
O106 Zn100 1.969 . S
O106 C109 1.267 . S
O107 Zn100 1.965 . S
O107 C118 1.260 . S
O108 Zn101 1.969 1_565 S
O108 C118 1.258 . S
C109 O106 1.267 . S
C109 O110 1.228 . S
O110 C109 1.228 . S
O111 Zn100 2.024 . S
O111 C102 1.058 . S
C112 O113 1.228 . S
C112 O114 1.267 . S
O113 C112 1.228 . S
O114 Zn101 1.969 . S
O114 C112 1.267 . S
O115 Zn101 1.965 . S
O115 C119 1.260 . S
O116 Zn100 1.969 . S
O116 C119 1.258 1_565 S
O117 Zn101 2.024 . S
O117 C104 1.058 . S
C118 O107 1.260 . S
C118 O108 1.258 . S
C119 O115 1.260 . S
C119 O116 1.258 1_545 S
Zn120 O126 1.969 . S
Zn120 O127 1.965 . S
Zn120 O131 2.024 . S
Zn120 O136 1.969 . S
Zn121 O128 1.969 . S
Zn121 O134 1.969 . S
Zn121 O135 1.965 . S
Zn121 O137 2.024 . S
C122 O123 1.229 . S
C122 O131 1.058 . S
O123 C122 1.229 . S
C124 O125 1.229 . S
C124 O137 1.058 . S
O125 C124 1.229 . S
O126 Zn120 1.969 . S
O126 C129 1.267 . S
O127 Zn120 1.965 . S
O127 C138 1.260 . S
O128 Zn121 1.969 . S
O128 C138 1.258 . S
C129 O126 1.267 . S
C129 O130 1.228 . S
O130 C129 1.228 . S
O131 Zn120 2.024 . S
O131 C122 1.058 . S
C132 O133 1.228 . S
C132 O134 1.267 . S
O133 C132 1.228 . S
O134 Zn121 1.969 . S
O134 C132 1.267 . S
O135 Zn121 1.965 . S
O135 C139 1.260 . S
O136 Zn120 1.969 . S
O136 C139 1.258 . S
O137 Zn121 2.024 . S
O137 C124 1.058 . S
C138 O127 1.260 . S
C138 O128 1.258 . S
C139 O135 1.260 . S
C139 O136 1.258 . S
Zn140 O146 1.969 . S
Zn140 O147 1.965 . S
Zn140 O151 2.024 . S
Zn140 O156 1.969 . S
Zn141 O148 1.969 . S
Zn141 O154 1.969 . S
Zn141 O155 1.965 . S
Zn141 O157 2.024 . S
C142 O143 1.229 . S
C142 O151 1.058 . S
O143 C142 1.229 . S
C144 O145 1.229 . S
C144 O157 1.058 . S
O145 C144 1.229 . S
O146 Zn140 1.969 . S
O146 C149 1.267 . S
O147 Zn140 1.965 . S
O147 C158 1.260 . S
O148 Zn141 1.969 . S
O148 C158 1.258 . S
C149 O146 1.267 . S
C149 O150 1.228 . S
O150 C149 1.228 . S
O151 Zn140 2.024 . S
O151 C142 1.058 . S
C152 O153 1.228 . S
C152 O154 1.267 . S
O153 C152 1.228 . S
O154 Zn141 1.969 . S
O154 C152 1.267 . S
O155 Zn141 1.965 . S
O155 C159 1.260 . S
O156 Zn140 1.969 . S
O156 C159 1.258 . S
O157 Zn141 2.024 . S
O157 C144 1.058 . S
C158 O147 1.260 . S
C158 O148 1.258 . S
C159 O155 1.260 . S
C159 O156 1.258 . S
Zn160 O166 1.969 . S
Zn160 O167 1.965 . S
Zn160 O171 2.024 . S
Zn160 O176 1.969 . S
Zn161 O168 1.969 1_556 S
Zn161 O174 1.969 . S
Zn161 O175 1.965 . S
Zn161 O177 2.024 . S
C162 O163 1.229 . S
C162 O171 1.058 . S
O163 C162 1.229 . S
C164 O165 1.229 . S
C164 O177 1.058 . S
O165 C164 1.229 . S
O166 Zn160 1.969 . S
O166 C169 1.267 . S
O167 Zn160 1.965 . S
O167 C178 1.260 . S
O168 Zn161 1.969 1_554 S
O168 C178 1.258 . S
C169 O166 1.267 . S
C169 O170 1.228 . S
O170 C169 1.228 . S
O171 Zn160 2.024 . S
O171 C162 1.058 . S
C172 O173 1.228 . S
C172 O174 1.267 . S
O173 C172 1.228 . S
O174 Zn161 1.969 . S
O174 C172 1.267 . S
O175 Zn161 1.965 . S
O175 C179 1.260 . S
O176 Zn160 1.969 . S
O176 C179 1.258 1_554 S
O177 Zn161 2.024 . S
O177 C164 1.058 . S
C178 O167 1.260 . S
C178 O168 1.258 . S
C179 O175 1.260 . S
C179 O176 1.258 1_556 S
Zn180 O186 1.969 . S
Zn180 O187 1.965 . S
Zn180 O191 2.024 . S
Zn180 O196 1.969 . S
Zn181 O188 1.969 1_554 S
Zn181 O194 1.969 . S
Zn181 O195 1.965 . S
Zn181 O197 2.024 . S
C182 O183 1.229 . S
C182 O191 1.058 . S
O183 C182 1.229 . S
C184 O185 1.229 . S
C184 O197 1.058 . S
O185 C184 1.229 . S
O186 Zn180 1.969 . S
O186 C189 1.267 . S
O187 Zn180 1.965 . S
O187 C198 1.260 . S
O188 Zn181 1.969 1_556 S
O188 C198 1.258 . S
C189 O186 1.267 . S
C189 O190 1.228 . S
O190 C189 1.228 . S
O191 Zn180 2.024 . S
O191 C182 1.058 . S
C192 O193 1.228 . S
C192 O194 1.267 . S
O193 C192 1.228 . S
O194 Zn181 1.969 . S
O194 C192 1.267 . S
O195 Zn181 1.965 . S
O195 C199 1.260 . S
O196 Zn180 1.969 . S
O196 C199 1.258 1_556 S
O197 Zn181 2.024 . S
O197 C184 1.058 . S
C198 O187 1.260 . S
C198 O188 1.258 . S
C199 O195 1.260 . S
C199 O196 1.258 1_554 S
Zn200 O206 1.969 . S
Zn200 O207 1.965 . S
Zn200 O211 2.024 . S
Zn200 O216 1.969 . S
Zn201 O208 1.969 . S
Zn201 O214 1.969 . S
Zn201 O215 1.965 . S
Zn201 O217 2.024 . S
C202 O203 1.229 . S
C202 O211 1.058 . S
O203 C202 1.229 . S
C204 O205 1.229 . S
C204 O217 1.058 . S
O205 C204 1.229 . S
O206 Zn200 1.969 . S
O206 C209 1.267 . S
O207 Zn200 1.965 . S
O207 C218 1.260 . S
O208 Zn201 1.969 . S
O208 C218 1.258 . S
C209 O206 1.267 . S
C209 O210 1.228 . S
O210 C209 1.228 . S
O211 Zn200 2.024 . S
O211 C202 1.058 . S
C212 O213 1.228 . S
C212 O214 1.267 . S
O213 C212 1.228 . S
O214 Zn201 1.969 . S
O214 C212 1.267 . S
O215 Zn201 1.965 . S
O215 C219 1.260 . S
O216 Zn200 1.969 . S
O216 C219 1.258 . S
O217 Zn201 2.024 . S
O217 C204 1.058 . S
C218 O207 1.260 . S
C218 O208 1.258 . S
C219 O215 1.260 . S
C219 O216 1.258 . S
Zn220 O226 1.969 . S
Zn220 O227 1.965 . S
Zn220 O231 2.024 . S
Zn220 O236 1.969 . S
Zn221 O228 1.969 . S
Zn221 O234 1.969 . S
Zn221 O235 1.965 . S
Zn221 O237 2.024 . S
C222 O223 1.229 . S
C222 O231 1.058 . S
O223 C222 1.229 . S
C224 O225 1.229 . S
C224 O237 1.058 . S
O225 C224 1.229 . S
O226 Zn220 1.969 . S
O226 C229 1.267 . S
O227 Zn220 1.965 . S
O227 C238 1.260 . S
O228 Zn221 1.969 . S
O228 C238 1.258 . S
C229 O226 1.267 . S
C229 O230 1.228 . S
O230 C229 1.228 . S
O231 Zn220 2.024 . S
O231 C222 1.058 . S
C232 O233 1.228 . S
C232 O234 1.267 . S
O233 C232 1.228 . S
O234 Zn221 1.969 . S
O234 C232 1.267 . S
O235 Zn221 1.965 . S
O235 C239 1.260 . S
O236 Zn220 1.969 . S
O236 C239 1.258 . S
O237 Zn221 2.024 . S
O237 C224 1.058 . S
C238 O227 1.260 . S
C238 O228 1.258 . S
C239 O235 1.260 . S
C239 O236 1.258 . S
Zn240 O246 1.969 . S
Zn240 O247 1.965 . S
Zn240 O251 2.024 . S
Zn240 O256 1.969 1_455 S
Zn241 O248 1.969 . S
Zn241 O254 1.969 . S
Zn241 O255 1.965 . S
Zn241 O257 2.024 . S
C242 O243 1.229 . S
C242 O251 1.058 . S
O243 C242 1.229 . S
C244 O245 1.229 . S
C244 O257 1.058 . S
O245 C244 1.229 . S
O246 Zn240 1.969 . S
O246 C249 1.267 . S
O247 Zn240 1.965 . S
O247 C258 1.260 . S
O248 Zn241 1.969 . S
O248 C258 1.258 1_655 S
C249 O246 1.267 . S
C249 O250 1.228 . S
O250 C249 1.228 . S
O251 Zn240 2.024 . S
O251 C242 1.058 . S
C252 O253 1.228 . S
C252 O254 1.267 . S
O253 C252 1.228 . S
O254 Zn241 1.969 . S
O254 C252 1.267 . S
O255 Zn241 1.965 . S
O255 C259 1.260 . S
O256 Zn240 1.969 1_655 S
O256 C259 1.258 . S
O257 Zn241 2.024 . S
O257 C244 1.058 . S
C258 O247 1.260 . S
C258 O248 1.258 1_455 S
C259 O255 1.260 . S
C259 O256 1.258 . S
Zn260 O266 1.969 . S
Zn260 O267 1.965 . S
Zn260 O271 2.024 . S
Zn260 O276 1.969 . S
Zn261 O268 1.969 . S
Zn261 O274 1.969 . S
Zn261 O275 1.965 . S
Zn261 O277 2.024 . S
C262 O263 1.229 . S
C262 O271 1.058 . S
O263 C262 1.229 . S
C264 O265 1.229 . S
C264 O277 1.058 . S
O265 C264 1.229 . S
O266 Zn260 1.969 . S
O266 C269 1.267 . S
O267 Zn260 1.965 . S
O267 C278 1.260 . S
O268 Zn261 1.969 . S
O268 C278 1.258 . S
C269 O266 1.267 . S
C269 O270 1.228 . S
O270 C269 1.228 . S
O271 Zn260 2.024 . S
O271 C262 1.058 . S
C272 O273 1.228 . S
C272 O274 1.267 . S
O273 C272 1.228 . S
O274 Zn261 1.969 . S
O274 C272 1.267 . S
O275 Zn261 1.965 . S
O275 C279 1.260 . S
O276 Zn260 1.969 . S
O276 C279 1.258 . S
O277 Zn261 2.024 . S
O277 C264 1.058 . S
C278 O267 1.260 . S
C278 O268 1.258 . S
C279 O275 1.260 . S
C279 O276 1.258 . S
Zn280 O286 1.969 . S
Zn280 O287 1.965 . S
Zn280 O291 2.024 . S
Zn280 O296 1.969 . S
Zn281 O288 1.969 . S
Zn281 O294 1.969 . S
Zn281 O295 1.965 . S
Zn281 O297 2.024 . S
C282 O283 1.229 . S
C282 O291 1.058 . S
O283 C282 1.229 . S
C284 O285 1.229 . S
C284 O297 1.058 . S
O285 C284 1.229 . S
O286 Zn280 1.969 . S
O286 C289 1.267 . S
O287 Zn280 1.965 . S
O287 C298 1.260 . S
O288 Zn281 1.969 . S
O288 C298 1.258 . S
C289 O286 1.267 . S
C289 O290 1.228 . S
O290 C289 1.228 . S
O291 Zn280 2.024 . S
O291 C282 1.058 . S
C292 O293 1.228 . S
C292 O294 1.267 . S
O293 C292 1.228 . S
O294 Zn281 1.969 . S
O294 C292 1.267 . S
O295 Zn281 1.965 . S
O295 C299 1.260 . S
O296 Zn280 1.969 . S
O296 C299 1.258 . S
O297 Zn281 2.024 . S
O297 C284 1.058 . S
C298 O287 1.260 . S
C298 O288 1.258 . S
C299 O295 1.260 . S
C299 O296 1.258 . S
Zn300 O306 1.969 . S
Zn300 O307 1.965 . S
Zn300 O311 2.024 . S
Zn300 O316 1.969 1_655 S
Zn301 O308 1.969 . S
Zn301 O314 1.969 . S
Zn301 O315 1.965 . S
Zn301 O317 2.024 . S
C302 O303 1.229 . S
C302 O311 1.058 . S
O303 C302 1.229 . S
C304 O305 1.229 . S
C304 O317 1.058 . S
O305 C304 1.229 . S
O306 Zn300 1.969 . S
O306 C309 1.267 . S
O307 Zn300 1.965 . S
O307 C318 1.260 . S
O308 Zn301 1.969 . S
O308 C318 1.258 1_455 S
C309 O306 1.267 . S
C309 O310 1.228 . S
O310 C309 1.228 . S
O311 Zn300 2.024 . S
O311 C302 1.058 . S
C312 O313 1.228 . S
C312 O314 1.267 . S
O313 C312 1.228 . S
O314 Zn301 1.969 . S
O314 C312 1.267 . S
O315 Zn301 1.965 . S
O315 C319 1.260 . S
O316 Zn300 1.969 1_455 S
O316 C319 1.258 . S
O317 Zn301 2.024 . S
O317 C304 1.058 . S
C318 O307 1.260 . S
C318 O308 1.258 1_655 S
C319 O315 1.260 . S
C319 O316 1.258 . S
Zn320 O326 1.969 . S
Zn320 O327 1.965 . S
Zn320 O331 2.024 . S
Zn320 O336 1.969 1_545 S
Zn321 O328 1.969 . S
Zn321 O334 1.969 . S
Zn321 O335 1.965 . S
Zn321 O337 2.024 . S
C322 O323 1.229 . S
C322 O331 1.058 . S
O323 C322 1.229 . S
C324 O325 1.229 . S
C324 O337 1.058 . S
O325 C324 1.229 . S
O326 Zn320 1.969 . S
O326 C329 1.267 . S
O327 Zn320 1.965 . S
O327 C338 1.260 . S
O328 Zn321 1.969 . S
O328 C338 1.258 1_565 S
C329 O326 1.267 . S
C329 O330 1.228 . S
O330 C329 1.228 . S
O331 Zn320 2.024 . S
O331 C322 1.058 . S
C332 O333 1.228 . S
C332 O334 1.267 . S
O333 C332 1.228 . S
O334 Zn321 1.969 . S
O334 C332 1.267 . S
O335 Zn321 1.965 . S
O335 C339 1.260 . S
O336 Zn320 1.969 1_565 S
O336 C339 1.258 . S
O337 Zn321 2.024 . S
O337 C324 1.058 . S
C338 O327 1.260 . S
C338 O328 1.258 1_545 S
C339 O335 1.260 . S
C339 O336 1.258 . S
Zn340 O346 1.969 . S
Zn340 O347 1.965 . S
Zn340 O351 2.024 . S
Zn340 O356 1.969 1_565 S
Zn341 O348 1.969 . S
Zn341 O354 1.969 . S
Zn341 O355 1.965 . S
Zn341 O357 2.024 . S
C342 O343 1.229 . S
C342 O351 1.058 . S
O343 C342 1.229 . S
C344 O345 1.229 . S
C344 O357 1.058 . S
O345 C344 1.229 . S
O346 Zn340 1.969 . S
O346 C349 1.267 . S
O347 Zn340 1.965 . S
O347 C358 1.260 . S
O348 Zn341 1.969 . S
O348 C358 1.258 1_545 S
C349 O346 1.267 . S
C349 O350 1.228 . S
O350 C349 1.228 . S
O351 Zn340 2.024 . S
O351 C342 1.058 . S
C352 O353 1.228 . S
C352 O354 1.267 . S
O353 C352 1.228 . S
O354 Zn341 1.969 . S
O354 C352 1.267 . S
O355 Zn341 1.965 . S
O355 C359 1.260 . S
O356 Zn340 1.969 1_545 S
O356 C359 1.258 . S
O357 Zn341 2.024 . S
O357 C344 1.058 . S
C358 O347 1.260 . S
C358 O348 1.258 1_565 S
C359 O355 1.260 . S
C359 O356 1.258 . S
Zn360 O366 1.969 . S
Zn360 O367 1.965 . S
Zn360 O371 2.024 . S
Zn360 O376 1.969 . S
Zn361 O368 1.969 . S
Zn361 O374 1.969 . S
Zn361 O375 1.965 . S
Zn361 O377 2.024 . S
C362 O363 1.229 . S
C362 O371 1.058 . S
O363 C362 1.229 . S
C364 O365 1.229 . S
C364 O377 1.058 . S
O365 C364 1.229 . S
O366 Zn360 1.969 . S
O366 C369 1.267 . S
O367 Zn360 1.965 . S
O367 C378 1.260 . S
O368 Zn361 1.969 . S
O368 C378 1.258 . S
C369 O366 1.267 . S
C369 O370 1.228 . S
O370 C369 1.228 . S
O371 Zn360 2.024 . S
O371 C362 1.058 . S
C372 O373 1.228 . S
C372 O374 1.267 . S
O373 C372 1.228 . S
O374 Zn361 1.969 . S
O374 C372 1.267 . S
O375 Zn361 1.965 . S
O375 C379 1.260 . S
O376 Zn360 1.969 . S
O376 C379 1.258 . S
O377 Zn361 2.024 . S
O377 C364 1.058 . S
C378 O367 1.260 . S
C378 O368 1.258 . S
C379 O375 1.260 . S
C379 O376 1.258 . S
Zn380 O386 1.969 . S
Zn380 O387 1.965 . S
Zn380 O391 2.024 . S
Zn380 O396 1.969 . S
Zn381 O388 1.969 . S
Zn381 O394 1.969 . S
Zn381 O395 1.965 . S
Zn381 O397 2.024 . S
C382 O383 1.229 . S
C382 O391 1.058 . S
O383 C382 1.229 . S
C384 O385 1.229 . S
C384 O397 1.058 . S
O385 C384 1.229 . S
O386 Zn380 1.969 . S
O386 C389 1.267 . S
O387 Zn380 1.965 . S
O387 C398 1.260 . S
O388 Zn381 1.969 . S
O388 C398 1.258 . S
C389 O386 1.267 . S
C389 O390 1.228 . S
O390 C389 1.228 . S
O391 Zn380 2.024 . S
O391 C382 1.058 . S
C392 O393 1.228 . S
C392 O394 1.267 . S
O393 C392 1.228 . S
O394 Zn381 1.969 . S
O394 C392 1.267 . S
O395 Zn381 1.965 . S
O395 C399 1.260 . S
O396 Zn380 1.969 . S
O396 C399 1.258 . S
O397 Zn381 2.024 . S
O397 C384 1.058 . S
C398 O387 1.260 . S
C398 O388 1.258 . S
C399 O395 1.260 . S
C399 O396 1.258 . S
Zn400 O406 1.969 . S
Zn400 O407 1.965 . S
Zn400 O411 2.024 . S
Zn400 O416 1.969 1_554 S
Zn401 O408 1.969 . S
Zn401 O414 1.969 . S
Zn401 O415 1.965 . S
Zn401 O417 2.024 . S
C402 O403 1.229 . S
C402 O411 1.058 . S
O403 C402 1.229 . S
C404 O405 1.229 . S
C404 O417 1.058 . S
O405 C404 1.229 . S
O406 Zn400 1.969 . S
O406 C409 1.267 . S
O407 Zn400 1.965 . S
O407 C418 1.260 . S
O408 Zn401 1.969 . S
O408 C418 1.258 1_556 S
C409 O406 1.267 . S
C409 O410 1.228 . S
O410 C409 1.228 . S
O411 Zn400 2.024 . S
O411 C402 1.058 . S
C412 O413 1.228 . S
C412 O414 1.267 . S
O413 C412 1.228 . S
O414 Zn401 1.969 . S
O414 C412 1.267 . S
O415 Zn401 1.965 . S
O415 C419 1.260 . S
O416 Zn400 1.969 1_556 S
O416 C419 1.258 . S
O417 Zn401 2.024 . S
O417 C404 1.058 . S
C418 O407 1.260 . S
C418 O408 1.258 1_554 S
C419 O415 1.260 . S
C419 O416 1.258 . S
Zn420 O426 1.969 . S
Zn420 O427 1.965 . S
Zn420 O431 2.024 . S
Zn420 O436 1.969 1_556 S
Zn421 O428 1.969 . S
Zn421 O434 1.969 . S
Zn421 O435 1.965 . S
Zn421 O437 2.024 . S
C422 O423 1.229 . S
C422 O431 1.058 . S
O423 C422 1.229 . S
C424 O425 1.229 . S
C424 O437 1.058 . S
O425 C424 1.229 . S
O426 Zn420 1.969 . S
O426 C429 1.267 . S
O427 Zn420 1.965 . S
O427 C438 1.260 . S
O428 Zn421 1.969 . S
O428 C438 1.258 1_554 S
C429 O426 1.267 . S
C429 O430 1.228 . S
O430 C429 1.228 . S
O431 Zn420 2.024 . S
O431 C422 1.058 . S
C432 O433 1.228 . S
C432 O434 1.267 . S
O433 C432 1.228 . S
O434 Zn421 1.969 . S
O434 C432 1.267 . S
O435 Zn421 1.965 . S
O435 C439 1.260 . S
O436 Zn420 1.969 1_554 S
O436 C439 1.258 . S
O437 Zn421 2.024 . S
O437 C424 1.058 . S
C438 O427 1.260 . S
C438 O428 1.258 1_556 S
C439 O435 1.260 . S
C439 O436 1.258 . S
Zn440 O446 1.969 . S
Zn440 O447 1.965 . S
Zn440 O451 2.024 . S
Zn440 O456 1.969 . S
Zn441 O448 1.969 . S
Zn441 O454 1.969 . S
Zn441 O455 1.965 . S
Zn441 O457 2.024 . S
C442 O443 1.229 . S
C442 O451 1.058 . S
O443 C442 1.229 . S
C444 O445 1.229 . S
C444 O457 1.058 . S
O445 C444 1.229 . S
O446 Zn440 1.969 . S
O446 C449 1.267 . S
O447 Zn440 1.965 . S
O447 C458 1.260 . S
O448 Zn441 1.969 . S
O448 C458 1.258 . S
C449 O446 1.267 . S
C449 O450 1.228 . S
O450 C449 1.228 . S
O451 Zn440 2.024 . S
O451 C442 1.058 . S
C452 O453 1.228 . S
C452 O454 1.267 . S
O453 C452 1.228 . S
O454 Zn441 1.969 . S
O454 C452 1.267 . S
O455 Zn441 1.965 . S
O455 C459 1.260 . S
O456 Zn440 1.969 . S
O456 C459 1.258 . S
O457 Zn441 2.024 . S
O457 C444 1.058 . S
C458 O447 1.260 . S
C458 O448 1.258 . S
C459 O455 1.260 . S
C459 O456 1.258 . S
Zn460 O466 1.969 . S
Zn460 O467 1.965 . S
Zn460 O471 2.024 . S
Zn460 O476 1.969 . S
Zn461 O468 1.969 . S
Zn461 O474 1.969 . S
Zn461 O475 1.965 . S
Zn461 O477 2.024 . S
C462 O463 1.229 . S
C462 O471 1.058 . S
O463 C462 1.229 . S
C464 O465 1.229 . S
C464 O477 1.058 . S
O465 C464 1.229 . S
O466 Zn460 1.969 . S
O466 C469 1.267 . S
O467 Zn460 1.965 . S
O467 C478 1.260 . S
O468 Zn461 1.969 . S
O468 C478 1.258 . S
C469 O466 1.267 . S
C469 O470 1.228 . S
O470 C469 1.228 . S
O471 Zn460 2.024 . S
O471 C462 1.058 . S
C472 O473 1.228 . S
C472 O474 1.267 . S
O473 C472 1.228 . S
O474 Zn461 1.969 . S
O474 C472 1.267 . S
O475 Zn461 1.965 . S
O475 C479 1.260 . S
O476 Zn460 1.969 . S
O476 C479 1.258 . S
O477 Zn461 2.024 . S
O477 C464 1.058 . S
C478 O467 1.260 . S
C478 O468 1.258 . S
C479 O475 1.260 . S
C479 O476 1.258 . S
C480 C481 1.369 . S
C480 C482 1.419 . S
C480 H484 0.930 . S
C481 C480 1.369 . S
C481 C490 1.429 . S
C482 C480 1.419 . S
C482 C483 1.363 . S
C482 H485 0.929 . S
C483 C482 1.363 . S
C483 C489 1.428 . S
H484 C480 0.930 . S
H485 C482 0.929 . S
S486 N487 1.613 . S
S486 N488 1.610 . S
N487 S486 1.613 . S
N487 C490 1.350 . S
N488 S486 1.610 . S
N488 C489 1.351 . S
C489 C483 1.428 . S
C489 N488 1.351 . S
C489 C490 1.434 . S
C490 C481 1.429 . S
C490 N487 1.350 . S
C490 C489 1.434 . S
C491 C492 1.369 . S
C491 C493 1.419 . S
C491 H495 0.930 . S
C492 C491 1.369 . S
C492 C501 1.429 . S
C493 C491 1.419 . S
C493 C494 1.363 . S
C493 H496 0.929 . S
C494 C493 1.363 . S
C494 C500 1.428 . S
H495 C491 0.930 . S
H496 C493 0.929 . S
S497 N498 1.613 . S
S497 N499 1.610 . S
N498 S497 1.613 . S
N498 C501 1.350 . S
N499 S497 1.610 . S
N499 C500 1.351 . S
C500 C494 1.428 . S
C500 N499 1.351 . S
C500 C501 1.434 . S
C501 C492 1.429 . S
C501 N498 1.350 . S
C501 C500 1.434 . S
C502 C503 1.369 . S
C502 C504 1.419 . S
C502 H506 0.930 . S
C503 C502 1.369 . S
C503 C512 1.429 . S
C504 C502 1.419 . S
C504 C505 1.363 . S
C504 H507 0.929 . S
C505 C504 1.363 . S
C505 C511 1.428 . S
H506 C502 0.930 . S
H507 C504 0.929 . S
S508 N509 1.613 . S
S508 N510 1.610 . S
N509 S508 1.613 . S
N509 C512 1.350 . S
N510 S508 1.610 . S
N510 C511 1.351 . S
C511 C505 1.428 . S
C511 N510 1.351 . S
C511 C512 1.434 . S
C512 C503 1.429 . S
C512 N509 1.350 . S
C512 C511 1.434 . S
C513 C514 1.369 . S
C513 C515 1.419 . S
C513 H517 0.930 . S
C514 C513 1.369 . S
C514 C523 1.429 . S
C515 C513 1.419 . S
C515 C516 1.363 . S
C515 H518 0.929 . S
C516 C515 1.363 . S
C516 C522 1.428 . S
H517 C513 0.930 . S
H518 C515 0.929 . S
S519 N520 1.613 . S
S519 N521 1.610 . S
N520 S519 1.613 . S
N520 C523 1.350 . S
N521 S519 1.610 . S
N521 C522 1.351 . S
C522 C516 1.428 . S
C522 N521 1.351 . S
C522 C523 1.434 . S
C523 C514 1.429 . S
C523 N520 1.350 . S
C523 C522 1.434 . S
C524 C525 1.369 . S
C524 C526 1.419 . S
C524 H528 0.930 . S
C525 C524 1.369 . S
C525 C534 1.429 . S
C526 C524 1.419 . S
C526 C527 1.363 . S
C526 H529 0.929 . S
C527 C526 1.363 . S
C527 C533 1.428 . S
H528 C524 0.930 . S
H529 C526 0.929 . S
S530 N531 1.613 . S
S530 N532 1.610 . S
N531 S530 1.613 . S
N531 C534 1.350 . S
N532 S530 1.610 . S
N532 C533 1.351 . S
C533 C527 1.428 . S
C533 N532 1.351 . S
C533 C534 1.434 . S
C534 C525 1.429 . S
C534 N531 1.350 . S
C534 C533 1.434 . S
C535 C536 1.369 . S
C535 C537 1.419 . S
C535 H539 0.930 . S
C536 C535 1.369 . S
C536 C545 1.429 . S
C537 C535 1.419 . S
C537 C538 1.363 . S
C537 H540 0.929 . S
C538 C537 1.363 . S
C538 C544 1.428 . S
H539 C535 0.930 . S
H540 C537 0.929 . S
S541 N542 1.613 . S
S541 N543 1.610 . S
N542 S541 1.613 . S
N542 C545 1.350 . S
N543 S541 1.610 . S
N543 C544 1.351 . S
C544 C538 1.428 . S
C544 N543 1.351 . S
C544 C545 1.434 . S
C545 C536 1.429 . S
C545 N542 1.350 . S
C545 C544 1.434 . S
C546 C547 1.369 . S
C546 C548 1.419 . S
C546 H550 0.930 . S
C547 C546 1.369 . S
C547 C556 1.429 . S
C548 C546 1.419 . S
C548 C549 1.363 . S
C548 H551 0.929 . S
C549 C548 1.363 . S
C549 C555 1.428 . S
H550 C546 0.930 . S
H551 C548 0.929 . S
S552 N553 1.613 . S
S552 N554 1.610 . S
N553 S552 1.613 . S
N553 C556 1.350 . S
N554 S552 1.610 . S
N554 C555 1.351 . S
C555 C549 1.428 . S
C555 N554 1.351 . S
C555 C556 1.434 . S
C556 C547 1.429 . S
C556 N553 1.350 . S
C556 C555 1.434 . S
C557 C558 1.369 . S
C557 C559 1.419 . S
C557 H561 0.930 . S
C558 C557 1.369 . S
C558 C567 1.429 . S
C559 C557 1.419 . S
C559 C560 1.363 . S
C559 H562 0.929 . S
C560 C559 1.363 . S
C560 C566 1.428 . S
H561 C557 0.930 . S
H562 C559 0.929 . S
S563 N564 1.613 . S
S563 N565 1.610 . S
N564 S563 1.613 . S
N564 C567 1.350 . S
N565 S563 1.610 . S
N565 C566 1.351 . S
C566 C560 1.428 . S
C566 N565 1.351 . S
C566 C567 1.434 . S
C567 C558 1.429 . S
C567 N564 1.350 . S
C567 C566 1.434 . S
C568 C569 1.369 . S
C568 C570 1.419 . S
C568 H572 0.930 . S
C569 C568 1.369 . S
C569 C578 1.429 . S
C570 C568 1.419 . S
C570 C571 1.363 . S
C570 H573 0.929 . S
C571 C570 1.363 . S
C571 C577 1.428 . S
H572 C568 0.930 . S
H573 C570 0.929 . S
S574 N575 1.613 . S
S574 N576 1.610 . S
N575 S574 1.613 . S
N575 C578 1.350 . S
N576 S574 1.610 . S
N576 C577 1.351 . S
C577 C571 1.428 . S
C577 N576 1.351 . S
C577 C578 1.434 . S
C578 C569 1.429 . S
C578 N575 1.350 . S
C578 C577 1.434 . S
C579 C580 1.369 . S
C579 C581 1.419 . S
C579 H583 0.930 . S
C580 C579 1.369 . S
C580 C589 1.429 . S
C581 C579 1.419 . S
C581 C582 1.363 . S
C581 H584 0.929 . S
C582 C581 1.363 . S
C582 C588 1.428 . S
H583 C579 0.930 . S
H584 C581 0.929 . S
S585 N586 1.613 . S
S585 N587 1.610 . S
N586 S585 1.613 . S
N586 C589 1.350 . S
N587 S585 1.610 . S
N587 C588 1.351 . S
C588 C582 1.428 . S
C588 N587 1.351 . S
C588 C589 1.434 . S
C589 C580 1.429 . S
C589 N586 1.350 . S
C589 C588 1.434 . S
C590 C591 1.369 . S
C590 C592 1.419 . S
C590 H594 0.930 . S
C591 C590 1.369 . S
C591 C600 1.429 . S
C592 C590 1.419 . S
C592 C593 1.363 . S
C592 H595 0.929 . S
C593 C592 1.363 . S
C593 C599 1.428 . S
H594 C590 0.930 . S
H595 C592 0.929 . S
S596 N597 1.613 . S
S596 N598 1.610 . S
N597 S596 1.613 . S
N597 C600 1.350 . S
N598 S596 1.610 . S
N598 C599 1.351 . S
C599 C593 1.428 . S
C599 N598 1.351 . S
C599 C600 1.434 . S
C600 C591 1.429 . S
C600 N597 1.350 . S
C600 C599 1.434 . S
C601 C602 1.369 . S
C601 C603 1.419 . S
C601 H605 0.930 . S
C602 C601 1.369 . S
C602 C611 1.429 . S
C603 C601 1.419 . S
C603 C604 1.363 . S
C603 H606 0.929 . S
C604 C603 1.363 . S
C604 C610 1.428 . S
H605 C601 0.930 . S
H606 C603 0.929 . S
S607 N608 1.613 . S
S607 N609 1.610 . S
N608 S607 1.613 . S
N608 C611 1.350 . S
N609 S607 1.610 . S
N609 C610 1.351 . S
C610 C604 1.428 . S
C610 N609 1.351 . S
C610 C611 1.434 . S
C611 C602 1.429 . S
C611 N608 1.350 . S
C611 C610 1.434 . S
C612 C613 1.369 . S
C612 C614 1.419 . S
C612 H616 0.930 . S
C613 C612 1.369 . S
C613 C622 1.429 . S
C614 C612 1.419 . S
C614 C615 1.363 . S
C614 H617 0.929 . S
C615 C614 1.363 . S
C615 C621 1.428 . S
H616 C612 0.930 . S
H617 C614 0.929 . S
S618 N619 1.613 . S
S618 N620 1.610 . S
N619 S618 1.613 . S
N619 C622 1.350 . S
N620 S618 1.610 . S
N620 C621 1.351 . S
C621 C615 1.428 . S
C621 N620 1.351 . S
C621 C622 1.434 . S
C622 C613 1.429 . S
C622 N619 1.350 . S
C622 C621 1.434 . S
C623 C624 1.369 . S
C623 C625 1.419 . S
C623 H627 0.930 . S
C624 C623 1.369 . S
C624 C633 1.429 . S
C625 C623 1.419 . S
C625 C626 1.363 . S
C625 H628 0.929 . S
C626 C625 1.363 . S
C626 C632 1.428 . S
H627 C623 0.930 . S
H628 C625 0.929 . S
S629 N630 1.613 . S
S629 N631 1.610 . S
N630 S629 1.613 . S
N630 C633 1.350 . S
N631 S629 1.610 . S
N631 C632 1.351 . S
C632 C626 1.428 . S
C632 N631 1.351 . S
C632 C633 1.434 . S
C633 C624 1.429 . S
C633 N630 1.350 . S
C633 C632 1.434 . S
C634 C635 1.369 . S
C634 C636 1.419 . S
C634 H638 0.930 . S
C635 C634 1.369 . S
C635 C644 1.429 . S
C636 C634 1.419 . S
C636 C637 1.363 . S
C636 H639 0.929 . S
C637 C636 1.363 . S
C637 C643 1.428 . S
H638 C634 0.930 . S
H639 C636 0.929 . S
S640 N641 1.613 . S
S640 N642 1.610 . S
N641 S640 1.613 . S
N641 C644 1.350 . S
N642 S640 1.610 . S
N642 C643 1.351 . S
C643 C637 1.428 . S
C643 N642 1.351 . S
C643 C644 1.434 . S
C644 C635 1.429 . S
C644 N641 1.350 . S
C644 C643 1.434 . S
C645 C646 1.369 . S
C645 C647 1.419 . S
C645 H649 0.930 . S
C646 C645 1.369 . S
C646 C655 1.429 . S
C647 C645 1.419 . S
C647 C648 1.363 . S
C647 H650 0.929 . S
C648 C647 1.363 . S
C648 C654 1.428 . S
H649 C645 0.930 . S
H650 C647 0.929 . S
S651 N652 1.613 . S
S651 N653 1.610 . S
N652 S651 1.613 . S
N652 C655 1.350 . S
N653 S651 1.610 . S
N653 C654 1.351 . S
C654 C648 1.428 . S
C654 N653 1.351 . S
C654 C655 1.434 . S
C655 C646 1.429 . S
C655 N652 1.350 . S
C655 C654 1.434 . S
C656 C657 1.369 . S
C656 C658 1.419 . S
C656 H660 0.930 . S
C657 C656 1.369 . S
C657 C666 1.429 . S
C658 C656 1.419 . S
C658 C659 1.363 . S
C658 H661 0.929 . S
C659 C658 1.363 . S
C659 C665 1.428 . S
H660 C656 0.930 . S
H661 C658 0.929 . S
S662 N663 1.613 . S
S662 N664 1.610 . S
N663 S662 1.613 . S
N663 C666 1.350 . S
N664 S662 1.610 . S
N664 C665 1.351 . S
C665 C659 1.428 . S
C665 N664 1.351 . S
C665 C666 1.434 . S
C666 C657 1.429 . S
C666 N663 1.350 . S
C666 C665 1.434 . S
C667 C668 1.369 . S
C667 C669 1.419 . S
C667 H671 0.930 . S
C668 C667 1.369 . S
C668 C677 1.429 . S
C669 C667 1.419 . S
C669 C670 1.363 . S
C669 H672 0.929 . S
C670 C669 1.363 . S
C670 C676 1.428 . S
H671 C667 0.930 . S
H672 C669 0.929 . S
S673 N674 1.613 . S
S673 N675 1.610 . S
N674 S673 1.613 . S
N674 C677 1.350 . S
N675 S673 1.610 . S
N675 C676 1.351 . S
C676 C670 1.428 . S
C676 N675 1.351 . S
C676 C677 1.434 . S
C677 C668 1.429 . S
C677 N674 1.350 . S
C677 C676 1.434 . S
C678 C679 1.369 . S
C678 C680 1.419 . S
C678 H682 0.930 . S
C679 C678 1.369 . S
C679 C688 1.429 . S
C680 C678 1.419 . S
C680 C681 1.363 . S
C680 H683 0.929 . S
C681 C680 1.363 . S
C681 C687 1.428 . S
H682 C678 0.930 . S
H683 C680 0.929 . S
S684 N685 1.613 . S
S684 N686 1.610 . S
N685 S684 1.613 . S
N685 C688 1.350 . S
N686 S684 1.610 . S
N686 C687 1.351 . S
C687 C681 1.428 . S
C687 N686 1.351 . S
C687 C688 1.434 . S
C688 C679 1.429 . S
C688 N685 1.350 . S
C688 C687 1.434 . S
C689 C690 1.369 . S
C689 C691 1.419 . S
C689 H693 0.930 . S
C690 C689 1.369 . S
C690 C699 1.429 . S
C691 C689 1.419 . S
C691 C692 1.363 . S
C691 H694 0.929 . S
C692 C691 1.363 . S
C692 C698 1.428 . S
H693 C689 0.930 . S
H694 C691 0.929 . S
S695 N696 1.613 . S
S695 N697 1.610 . S
N696 S695 1.613 . S
N696 C699 1.350 . S
N697 S695 1.610 . S
N697 C698 1.351 . S
C698 C692 1.428 . S
C698 N697 1.351 . S
C698 C699 1.434 . S
C699 C690 1.429 . S
C699 N696 1.350 . S
C699 C698 1.434 . S
C700 C701 1.369 . S
C700 C702 1.419 . S
C700 H704 0.930 . S
C701 C700 1.369 . S
C701 C710 1.429 . S
C702 C700 1.419 . S
C702 C703 1.363 . S
C702 H705 0.929 . S
C703 C702 1.363 . S
C703 C709 1.428 . S
H704 C700 0.930 . S
H705 C702 0.929 . S
S706 N707 1.613 . S
S706 N708 1.610 . S
N707 S706 1.613 . S
N707 C710 1.350 . S
N708 S706 1.610 . S
N708 C709 1.351 . S
C709 C703 1.428 . S
C709 N708 1.351 . S
C709 C710 1.434 . S
C710 C701 1.429 . S
C710 N707 1.350 . S
C710 C709 1.434 . S
C711 C712 1.369 . S
C711 C713 1.419 . S
C711 H715 0.930 . S
C712 C711 1.369 . S
C712 C721 1.429 . S
C713 C711 1.419 . S
C713 C714 1.363 . S
C713 H716 0.929 . S
C714 C713 1.363 . S
C714 C720 1.428 . S
H715 C711 0.930 . S
H716 C713 0.929 . S
S717 N718 1.613 . S
S717 N719 1.610 . S
N718 S717 1.613 . S
N718 C721 1.350 . S
N719 S717 1.610 . S
N719 C720 1.351 . S
C720 C714 1.428 . S
C720 N719 1.351 . S
C720 C721 1.434 . S
C721 C712 1.429 . S
C721 N718 1.350 . S
C721 C720 1.434 . S
C722 C723 1.369 . S
C722 C724 1.419 . S
C722 H726 0.930 . S
C723 C722 1.369 . S
C723 C732 1.429 . S
C724 C722 1.419 . S
C724 C725 1.363 . S
C724 H727 0.929 . S
C725 C724 1.363 . S
C725 C731 1.428 . S
H726 C722 0.930 . S
H727 C724 0.929 . S
S728 N729 1.613 . S
S728 N730 1.610 . S
N729 S728 1.613 . S
N729 C732 1.350 . S
N730 S728 1.610 . S
N730 C731 1.351 . S
C731 C725 1.428 . S
C731 N730 1.351 . S
C731 C732 1.434 . S
C732 C723 1.429 . S
C732 N729 1.350 . S
C732 C731 1.434 . S
C733 C734 1.369 . S
C733 C735 1.419 . S
C733 H737 0.930 . S
C734 C733 1.369 . S
C734 C743 1.429 . S
C735 C733 1.419 . S
C735 C736 1.363 . S
C735 H738 0.929 . S
C736 C735 1.363 . S
C736 C742 1.428 . S
H737 C733 0.930 . S
H738 C735 0.929 . S
S739 N740 1.613 . S
S739 N741 1.610 . S
N740 S739 1.613 . S
N740 C743 1.350 . S
N741 S739 1.610 . S
N741 C742 1.351 . S
C742 C736 1.428 . S
C742 N741 1.351 . S
C742 C743 1.434 . S
C743 C734 1.429 . S
C743 N740 1.350 . S
C743 C742 1.434 . S
C744 C745 1.369 . S
C744 C746 1.419 . S
C744 H748 0.930 . S
C745 C744 1.369 . S
C745 C754 1.429 . S
C746 C744 1.419 . S
C746 C747 1.363 . S
C746 H749 0.929 . S
C747 C746 1.363 . S
C747 C753 1.428 . S
H748 C744 0.930 . S
H749 C746 0.929 . S
S750 N751 1.613 . S
S750 N752 1.610 . S
N751 S750 1.613 . S
N751 C754 1.350 . S
N752 S750 1.610 . S
N752 C753 1.351 . S
C753 C747 1.428 . S
C753 N752 1.351 . S
C753 C754 1.434 . S
C754 C745 1.429 . S
C754 N751 1.350 . S
C754 C753 1.434 . S
C755 C756 1.369 . S
C755 C757 1.419 . S
C755 H759 0.930 . S
C756 C755 1.369 . S
C756 C765 1.429 . S
C757 C755 1.419 . S
C757 C758 1.363 . S
C757 H760 0.929 . S
C758 C757 1.363 . S
C758 C764 1.428 . S
H759 C755 0.930 . S
H760 C757 0.929 . S
S761 N762 1.613 . S
S761 N763 1.610 . S
N762 S761 1.613 . S
N762 C765 1.350 . S
N763 S761 1.610 . S
N763 C764 1.351 . S
C764 C758 1.428 . S
C764 N763 1.351 . S
C764 C765 1.434 . S
C765 C756 1.429 . S
C765 N762 1.350 . S
C765 C764 1.434 . S
C766 C767 1.369 . S
C766 C768 1.419 . S
C766 H770 0.930 . S
C767 C766 1.369 . S
C767 C776 1.429 . S
C768 C766 1.419 . S
C768 C769 1.363 . S
C768 H771 0.929 . S
C769 C768 1.363 . S
C769 C775 1.428 . S
H770 C766 0.930 . S
H771 C768 0.929 . S
S772 N773 1.613 . S
S772 N774 1.610 . S
N773 S772 1.613 . S
N773 C776 1.350 . S
N774 S772 1.610 . S
N774 C775 1.351 . S
C775 C769 1.428 . S
C775 N774 1.351 . S
C775 C776 1.434 . S
C776 C767 1.429 . S
C776 N773 1.350 . S
C776 C775 1.434 . S
C777 C778 1.369 . S
C777 C779 1.419 . S
C777 H781 0.930 . S
C778 C777 1.369 . S
C778 C787 1.429 . S
C779 C777 1.419 . S
C779 C780 1.363 . S
C779 H782 0.929 . S
C780 C779 1.363 . S
C780 C786 1.428 . S
H781 C777 0.930 . S
H782 C779 0.929 . S
S783 N784 1.613 . S
S783 N785 1.610 . S
N784 S783 1.613 . S
N784 C787 1.350 . S
N785 S783 1.610 . S
N785 C786 1.351 . S
C786 C780 1.428 . S
C786 N785 1.351 . S
C786 C787 1.434 . S
C787 C778 1.429 . S
C787 N784 1.350 . S
C787 C786 1.434 . S
C788 C789 1.369 . S
C788 C790 1.419 . S
C788 H792 0.930 . S
C789 C788 1.369 . S
C789 C798 1.429 . S
C790 C788 1.419 . S
C790 C791 1.363 . S
C790 H793 0.929 . S
C791 C790 1.363 . S
C791 C797 1.428 . S
H792 C788 0.930 . S
H793 C790 0.929 . S
S794 N795 1.613 . S
S794 N796 1.610 . S
N795 S794 1.613 . S
N795 C798 1.350 . S
N796 S794 1.610 . S
N796 C797 1.351 . S
C797 C791 1.428 . S
C797 N796 1.351 . S
C797 C798 1.434 . S
C798 C789 1.429 . S
C798 N795 1.350 . S
C798 C797 1.434 . S
C799 C800 1.369 . S
C799 C801 1.419 . S
C799 H803 0.930 . S
C800 C799 1.369 . S
C800 C809 1.429 . S
C801 C799 1.419 . S
C801 C802 1.363 . S
C801 H804 0.929 . S
C802 C801 1.363 . S
C802 C808 1.428 . S
H803 C799 0.930 . S
H804 C801 0.929 . S
S805 N806 1.613 . S
S805 N807 1.610 . S
N806 S805 1.613 . S
N806 C809 1.350 . S
N807 S805 1.610 . S
N807 C808 1.351 . S
C808 C802 1.428 . S
C808 N807 1.351 . S
C808 C809 1.434 . S
C809 C800 1.429 . S
C809 N806 1.350 . S
C809 C808 1.434 . S
C810 C811 1.369 . S
C810 C812 1.419 . S
C810 H814 0.930 . S
C811 C810 1.369 . S
C811 C820 1.429 . S
C812 C810 1.419 . S
C812 C813 1.363 . S
C812 H815 0.929 . S
C813 C812 1.363 . S
C813 C819 1.428 . S
H814 C810 0.930 . S
H815 C812 0.929 . S
S816 N817 1.613 . S
S816 N818 1.610 . S
N817 S816 1.613 . S
N817 C820 1.350 . S
N818 S816 1.610 . S
N818 C819 1.351 . S
C819 C813 1.428 . S
C819 N818 1.351 . S
C819 C820 1.434 . S
C820 C811 1.429 . S
C820 N817 1.350 . S
C820 C819 1.434 . S
C821 C822 1.369 . S
C821 C823 1.419 . S
C821 H825 0.930 . S
C822 C821 1.369 . S
C822 C831 1.429 . S
C823 C821 1.419 . S
C823 C824 1.363 . S
C823 H826 0.929 . S
C824 C823 1.363 . S
C824 C830 1.428 . S
H825 C821 0.930 . S
H826 C823 0.929 . S
S827 N828 1.613 . S
S827 N829 1.610 . S
N828 S827 1.613 . S
N828 C831 1.350 . S
N829 S827 1.610 . S
N829 C830 1.351 . S
C830 C824 1.428 . S
C830 N829 1.351 . S
C830 C831 1.434 . S
C831 C822 1.429 . S
C831 N828 1.350 . S
C831 C830 1.434 . S
C832 C833 1.369 . S
C832 C834 1.419 . S
C832 H836 0.930 . S
C833 C832 1.369 . S
C833 C842 1.429 . S
C834 C832 1.419 . S
C834 C835 1.363 . S
C834 H837 0.929 . S
C835 C834 1.363 . S
C835 C841 1.428 . S
H836 C832 0.930 . S
H837 C834 0.929 . S
S838 N839 1.613 . S
S838 N840 1.610 . S
N839 S838 1.613 . S
N839 C842 1.350 . S
N840 S838 1.610 . S
N840 C841 1.351 . S
C841 C835 1.428 . S
C841 N840 1.351 . S
C841 C842 1.434 . S
C842 C833 1.429 . S
C842 N839 1.350 . S
C842 C841 1.434 . S
C843 C844 1.369 . S
C843 C845 1.419 . S
C843 H847 0.930 . S
C844 C843 1.369 . S
C844 C853 1.429 . S
C845 C843 1.419 . S
C845 C846 1.363 . S
C845 H848 0.929 . S
C846 C845 1.363 . S
C846 C852 1.428 . S
H847 C843 0.930 . S
H848 C845 0.929 . S
S849 N850 1.613 . S
S849 N851 1.610 . S
N850 S849 1.613 . S
N850 C853 1.350 . S
N851 S849 1.610 . S
N851 C852 1.351 . S
C852 C846 1.428 . S
C852 N851 1.351 . S
C852 C853 1.434 . S
C853 C844 1.429 . S
C853 N850 1.350 . S
C853 C852 1.434 . S
C854 C855 1.369 . S
C854 C856 1.419 . S
C854 H858 0.930 . S
C855 C854 1.369 . S
C855 C864 1.429 . S
C856 C854 1.419 . S
C856 C857 1.363 . S
C856 H859 0.929 . S
C857 C856 1.363 . S
C857 C863 1.428 . S
H858 C854 0.930 . S
H859 C856 0.929 . S
S860 N861 1.613 . S
S860 N862 1.610 . S
N861 S860 1.613 . S
N861 C864 1.350 . S
N862 S860 1.610 . S
N862 C863 1.351 . S
C863 C857 1.428 . S
C863 N862 1.351 . S
C863 C864 1.434 . S
C864 C855 1.429 . S
C864 N861 1.350 . S
C864 C863 1.434 . S
C865 C866 1.369 . S
C865 C867 1.419 . S
C865 H869 0.930 . S
C866 C865 1.369 . S
C866 C875 1.429 . S
C867 C865 1.419 . S
C867 C868 1.363 . S
C867 H870 0.929 . S
C868 C867 1.363 . S
C868 C874 1.428 . S
H869 C865 0.930 . S
H870 C867 0.929 . S
S871 N872 1.613 . S
S871 N873 1.610 . S
N872 S871 1.613 . S
N872 C875 1.350 . S
N873 S871 1.610 . S
N873 C874 1.351 . S
C874 C868 1.428 . S
C874 N873 1.351 . S
C874 C875 1.434 . S
C875 C866 1.429 . S
C875 N872 1.350 . S
C875 C874 1.434 . S
C876 C877 1.369 . S
C876 C878 1.419 . S
C876 H880 0.930 . S
C877 C876 1.369 . S
C877 C886 1.429 . S
C878 C876 1.419 . S
C878 C879 1.363 . S
C878 H881 0.929 . S
C879 C878 1.363 . S
C879 C885 1.428 . S
H880 C876 0.930 . S
H881 C878 0.929 . S
S882 N883 1.613 . S
S882 N884 1.610 . S
N883 S882 1.613 . S
N883 C886 1.350 . S
N884 S882 1.610 . S
N884 C885 1.351 . S
C885 C879 1.428 . S
C885 N884 1.351 . S
C885 C886 1.434 . S
C886 C877 1.429 . S
C886 N883 1.350 . S
C886 C885 1.434 . S
C887 C888 1.369 . S
C887 C889 1.419 . S
C887 H891 0.930 . S
C888 C887 1.369 . S
C888 C897 1.429 . S
C889 C887 1.419 . S
C889 C890 1.363 . S
C889 H892 0.929 . S
C890 C889 1.363 . S
C890 C896 1.428 . S
H891 C887 0.930 . S
H892 C889 0.929 . S
S893 N894 1.613 . S
S893 N895 1.610 . S
N894 S893 1.613 . S
N894 C897 1.350 . S
N895 S893 1.610 . S
N895 C896 1.351 . S
C896 C890 1.428 . S
C896 N895 1.351 . S
C896 C897 1.434 . S
C897 C888 1.429 . S
C897 N894 1.350 . S
C897 C896 1.434 . S
C898 C899 1.369 . S
C898 C900 1.419 . S
C898 H902 0.930 . S
C899 C898 1.369 . S
C899 C908 1.429 . S
C900 C898 1.419 . S
C900 C901 1.363 . S
C900 H903 0.929 . S
C901 C900 1.363 . S
C901 C907 1.428 . S
H902 C898 0.930 . S
H903 C900 0.929 . S
S904 N905 1.613 . S
S904 N906 1.610 . S
N905 S904 1.613 . S
N905 C908 1.350 . S
N906 S904 1.610 . S
N906 C907 1.351 . S
C907 C901 1.428 . S
C907 N906 1.351 . S
C907 C908 1.434 . S
C908 C899 1.429 . S
C908 N905 1.350 . S
C908 C907 1.434 . S
C909 C910 1.369 . S
C909 C911 1.419 . S
C909 H913 0.930 . S
C910 C909 1.369 . S
C910 C919 1.429 . S
C911 C909 1.419 . S
C911 C912 1.363 . S
C911 H914 0.929 . S
C912 C911 1.363 . S
C912 C918 1.428 . S
H913 C909 0.930 . S
H914 C911 0.929 . S
S915 N916 1.613 . S
S915 N917 1.610 . S
N916 S915 1.613 . S
N916 C919 1.350 . S
N917 S915 1.610 . S
N917 C918 1.351 . S
C918 C912 1.428 . S
C918 N917 1.351 . S
C918 C919 1.434 . S
C919 C910 1.429 . S
C919 N916 1.350 . S
C919 C918 1.434 . S
C920 C921 1.369 . S
C920 C922 1.419 . S
C920 H924 0.930 . S
C921 C920 1.369 . S
C921 C930 1.429 . S
C922 C920 1.419 . S
C922 C923 1.363 . S
C922 H925 0.929 . S
C923 C922 1.363 . S
C923 C929 1.428 . S
H924 C920 0.930 . S
H925 C922 0.929 . S
S926 N927 1.613 . S
S926 N928 1.610 . S
N927 S926 1.613 . S
N927 C930 1.350 . S
N928 S926 1.610 . S
N928 C929 1.351 . S
C929 C923 1.428 . S
C929 N928 1.351 . S
C929 C930 1.434 . S
C930 C921 1.429 . S
C930 N927 1.350 . S
C930 C929 1.434 . S
C931 C932 1.369 . S
C931 C933 1.419 . S
C931 H935 0.930 . S
C932 C931 1.369 . S
C932 C941 1.429 . S
C933 C931 1.419 . S
C933 C934 1.363 . S
C933 H936 0.929 . S
C934 C933 1.363 . S
C934 C940 1.428 . S
H935 C931 0.930 . S
H936 C933 0.929 . S
S937 N938 1.613 . S
S937 N939 1.610 . S
N938 S937 1.613 . S
N938 C941 1.350 . S
N939 S937 1.610 . S
N939 C940 1.351 . S
C940 C934 1.428 . S
C940 N939 1.351 . S
C940 C941 1.434 . S
C941 C932 1.429 . S
C941 N938 1.350 . S
C941 C940 1.434 . S
C942 C943 1.369 . S
C942 C944 1.419 . S
C942 H946 0.930 . S
C943 C942 1.369 . S
C943 C952 1.429 . S
C944 C942 1.419 . S
C944 C945 1.363 . S
C944 H947 0.929 . S
C945 C944 1.363 . S
C945 C951 1.428 . S
H946 C942 0.930 . S
H947 C944 0.929 . S
S948 N949 1.613 . S
S948 N950 1.610 . S
N949 S948 1.613 . S
N949 C952 1.350 . S
N950 S948 1.610 . S
N950 C951 1.351 . S
C951 C945 1.428 . S
C951 N950 1.351 . S
C951 C952 1.434 . S
C952 C943 1.429 . S
C952 N949 1.350 . S
C952 C951 1.434 . S
C953 C954 1.369 . S
C953 C955 1.419 . S
C953 H957 0.930 . S
C954 C953 1.369 . S
C954 C963 1.429 . S
C955 C953 1.419 . S
C955 C956 1.363 . S
C955 H958 0.929 . S
C956 C955 1.363 . S
C956 C962 1.428 . S
H957 C953 0.930 . S
H958 C955 0.929 . S
S959 N960 1.613 . S
S959 N961 1.610 . S
N960 S959 1.613 . S
N960 C963 1.350 . S
N961 S959 1.610 . S
N961 C962 1.351 . S
C962 C956 1.428 . S
C962 N961 1.351 . S
C962 C963 1.434 . S
C963 C954 1.429 . S
C963 N960 1.350 . S
C963 C962 1.434 . S
C964 C965 1.369 . S
C964 C966 1.419 . S
C964 H968 0.930 . S
C965 C964 1.369 . S
C965 C974 1.429 . S
C966 C964 1.419 . S
C966 C967 1.363 . S
C966 H969 0.929 . S
C967 C966 1.363 . S
C967 C973 1.428 . S
H968 C964 0.930 . S
H969 C966 0.929 . S
S970 N971 1.613 . S
S970 N972 1.610 . S
N971 S970 1.613 . S
N971 C974 1.350 . S
N972 S970 1.610 . S
N972 C973 1.351 . S
C973 C967 1.428 . S
C973 N972 1.351 . S
C973 C974 1.434 . S
C974 C965 1.429 . S
C974 N971 1.350 . S
C974 C973 1.434 . S
C975 C976 1.369 . S
C975 C977 1.419 . S
C975 H979 0.930 . S
C976 C975 1.369 . S
C976 C985 1.429 . S
C977 C975 1.419 . S
C977 C978 1.363 . S
C977 H980 0.929 . S
C978 C977 1.363 . S
C978 C984 1.428 . S
H979 C975 0.930 . S
H980 C977 0.929 . S
S981 N982 1.613 . S
S981 N983 1.610 . S
N982 S981 1.613 . S
N982 C985 1.350 . S
N983 S981 1.610 . S
N983 C984 1.351 . S
C984 C978 1.428 . S
C984 N983 1.351 . S
C984 C985 1.434 . S
C985 C976 1.429 . S
C985 N982 1.350 . S
C985 C984 1.434 . S
C986 C987 1.369 . S
C986 C988 1.419 . S
C986 H990 0.930 . S
C987 C986 1.369 . S
C987 C996 1.429 . S
C988 C986 1.419 . S
C988 C989 1.363 . S
C988 H991 0.929 . S
C989 C988 1.363 . S
C989 C995 1.428 . S
H990 C986 0.930 . S
H991 C988 0.929 . S
S992 N993 1.613 . S
S992 N994 1.610 . S
N993 S992 1.613 . S
N993 C996 1.350 . S
N994 S992 1.610 . S
N994 C995 1.351 . S
C995 C989 1.428 . S
C995 N994 1.351 . S
C995 C996 1.434 . S
C996 C987 1.429 . S
C996 N993 1.350 . S
C996 C995 1.434 . S
C997 C998 1.369 . S
C997 C999 1.419 . S
C997 H1001 0.930 . S
C998 C997 1.369 . S
C998 C1007 1.429 . S
C999 C997 1.419 . S
C999 C1000 1.363 . S
C999 H1002 0.929 . S
C1000 C999 1.363 . S
C1000 C1006 1.428 . S
H1001 C997 0.930 . S
H1002 C999 0.929 . S
S1003 N1004 1.613 . S
S1003 N1005 1.610 . S
N1004 S1003 1.613 . S
N1004 C1007 1.350 . S
N1005 S1003 1.610 . S
N1005 C1006 1.351 . S
C1006 C1000 1.428 . S
C1006 N1005 1.351 . S
C1006 C1007 1.434 . S
C1007 C998 1.429 . S
C1007 N1004 1.350 . S
C1007 C1006 1.434 . S
C1008 C1009 1.369 . S
C1008 C1010 1.419 . S
C1008 H1012 0.930 . S
C1009 C1008 1.369 . S
C1009 C1018 1.429 . S
C1010 C1008 1.419 . S
C1010 C1011 1.363 . S
C1010 H1013 0.929 . S
C1011 C1010 1.363 . S
C1011 C1017 1.428 . S
H1012 C1008 0.930 . S
H1013 C1010 0.929 . S
S1014 N1015 1.613 . S
S1014 N1016 1.610 1_455 S
N1015 S1014 1.613 . S
N1015 C1018 1.350 1_455 S
N1016 S1014 1.610 1_655 S
N1016 C1017 1.351 . S
C1017 C1011 1.428 . S
C1017 N1016 1.351 . S
C1017 C1018 1.434 . S
C1018 C1009 1.429 . S
C1018 N1015 1.350 1_655 S
C1018 C1017 1.434 . S
C1019 C1020 1.369 . S
C1019 C1021 1.419 . S
C1019 H1023 0.930 . S
C1020 C1019 1.369 . S
C1020 C1029 1.429 . S
C1021 C1019 1.419 . S
C1021 C1022 1.363 . S
C1021 H1024 0.929 . S
C1022 C1021 1.363 . S
C1022 C1028 1.428 . S
H1023 C1019 0.930 . S
H1024 C1021 0.929 . S
S1025 N1026 1.613 . S
S1025 N1027 1.610 . S
N1026 S1025 1.613 . S
N1026 C1029 1.350 . S
N1027 S1025 1.610 . S
N1027 C1028 1.351 . S
C1028 C1022 1.428 . S
C1028 N1027 1.351 . S
C1028 C1029 1.434 . S
C1029 C1020 1.429 . S
C1029 N1026 1.350 . S
C1029 C1028 1.434 . S
C1030 C1031 1.369 . S
C1030 C1032 1.419 . S
C1030 H1034 0.930 . S
C1031 C1030 1.369 . S
C1031 C1040 1.429 . S
C1032 C1030 1.419 . S
C1032 C1033 1.363 . S
C1032 H1035 0.929 . S
C1033 C1032 1.363 . S
C1033 C1039 1.428 . S
H1034 C1030 0.930 . S
H1035 C1032 0.929 . S
S1036 N1037 1.613 . S
S1036 N1038 1.610 . S
N1037 S1036 1.613 . S
N1037 C1040 1.350 . S
N1038 S1036 1.610 . S
N1038 C1039 1.351 . S
C1039 C1033 1.428 . S
C1039 N1038 1.351 . S
C1039 C1040 1.434 . S
C1040 C1031 1.429 . S
C1040 N1037 1.350 . S
C1040 C1039 1.434 . S
C1041 C1042 1.369 . S
C1041 C1043 1.419 . S
C1041 H1045 0.930 . S
C1042 C1041 1.369 . S
C1042 C1051 1.429 . S
C1043 C1041 1.419 . S
C1043 C1044 1.363 . S
C1043 H1046 0.929 . S
C1044 C1043 1.363 . S
C1044 C1050 1.428 . S
H1045 C1041 0.930 . S
H1046 C1043 0.929 . S
S1047 N1048 1.613 . S
S1047 N1049 1.610 . S
N1048 S1047 1.613 . S
N1048 C1051 1.350 . S
N1049 S1047 1.610 . S
N1049 C1050 1.351 . S
C1050 C1044 1.428 . S
C1050 N1049 1.351 . S
C1050 C1051 1.434 . S
C1051 C1042 1.429 . S
C1051 N1048 1.350 . S
C1051 C1050 1.434 . S
C1052 C1053 1.369 . S
C1052 C1054 1.419 . S
C1052 H1056 0.930 . S
C1053 C1052 1.369 . S
C1053 C1062 1.429 . S
C1054 C1052 1.419 . S
C1054 C1055 1.363 . S
C1054 H1057 0.929 . S
C1055 C1054 1.363 . S
C1055 C1061 1.428 . S
H1056 C1052 0.930 . S
H1057 C1054 0.929 . S
S1058 N1059 1.613 . S
S1058 N1060 1.610 . S
N1059 S1058 1.613 . S
N1059 C1062 1.350 . S
N1060 S1058 1.610 . S
N1060 C1061 1.351 . S
C1061 C1055 1.428 . S
C1061 N1060 1.351 . S
C1061 C1062 1.434 . S
C1062 C1053 1.429 . S
C1062 N1059 1.350 . S
C1062 C1061 1.434 . S
C1063 C1064 1.369 . S
C1063 C1065 1.419 . S
C1063 H1067 0.930 . S
C1064 C1063 1.369 . S
C1064 C1073 1.429 . S
C1065 C1063 1.419 . S
C1065 C1066 1.363 . S
C1065 H1068 0.929 . S
C1066 C1065 1.363 . S
C1066 C1072 1.428 . S
H1067 C1063 0.930 . S
H1068 C1065 0.929 . S
S1069 N1070 1.613 . S
S1069 N1071 1.610 . S
N1070 S1069 1.613 . S
N1070 C1073 1.350 . S
N1071 S1069 1.610 . S
N1071 C1072 1.351 . S
C1072 C1066 1.428 . S
C1072 N1071 1.351 . S
C1072 C1073 1.434 . S
C1073 C1064 1.429 . S
C1073 N1070 1.350 . S
C1073 C1072 1.434 . S
C1074 C1075 1.369 . S
C1074 C1076 1.419 . S
C1074 H1078 0.930 . S
C1075 C1074 1.369 . S
C1075 C1084 1.429 . S
C1076 C1074 1.419 . S
C1076 C1077 1.363 . S
C1076 H1079 0.929 . S
C1077 C1076 1.363 . S
C1077 C1083 1.428 . S
H1078 C1074 0.930 . S
H1079 C1076 0.929 . S
S1080 N1081 1.613 . S
S1080 N1082 1.610 . S
N1081 S1080 1.613 . S
N1081 C1084 1.350 . S
N1082 S1080 1.610 . S
N1082 C1083 1.351 . S
C1083 C1077 1.428 . S
C1083 N1082 1.351 . S
C1083 C1084 1.434 . S
C1084 C1075 1.429 . S
C1084 N1081 1.350 . S
C1084 C1083 1.434 . S
C1085 C1086 1.369 . S
C1085 C1087 1.419 . S
C1085 H1089 0.930 . S
C1086 C1085 1.369 . S
C1086 C1095 1.429 . S
C1087 C1085 1.419 . S
C1087 C1088 1.363 . S
C1087 H1090 0.929 . S
C1088 C1087 1.363 . S
C1088 C1094 1.428 . S
H1089 C1085 0.930 . S
H1090 C1087 0.929 . S
S1091 N1092 1.613 . S
S1091 N1093 1.610 . S
N1092 S1091 1.613 . S
N1092 C1095 1.350 . S
N1093 S1091 1.610 . S
N1093 C1094 1.351 . S
C1094 C1088 1.428 . S
C1094 N1093 1.351 . S
C1094 C1095 1.434 . S
C1095 C1086 1.429 . S
C1095 N1092 1.350 . S
C1095 C1094 1.434 . S
C1096 C1097 1.369 . S
C1096 C1098 1.419 . S
C1096 H1100 0.930 . S
C1097 C1096 1.369 . S
C1097 C1106 1.429 . S
C1098 C1096 1.419 . S
C1098 C1099 1.363 . S
C1098 H1101 0.929 . S
C1099 C1098 1.363 . S
C1099 C1105 1.428 . S
H1100 C1096 0.930 . S
H1101 C1098 0.929 . S
S1102 N1103 1.613 . S
S1102 N1104 1.610 1_554 S
N1103 S1102 1.613 . S
N1103 C1106 1.350 1_554 S
N1104 S1102 1.610 1_556 S
N1104 C1105 1.351 . S
C1105 C1099 1.428 . S
C1105 N1104 1.351 . S
C1105 C1106 1.434 . S
C1106 C1097 1.429 . S
C1106 N1103 1.350 1_556 S
C1106 C1105 1.434 . S
C1107 C1108 1.369 . S
C1107 C1109 1.419 . S
C1107 H1111 0.930 . S
C1108 C1107 1.369 . S
C1108 C1117 1.429 . S
C1109 C1107 1.419 . S
C1109 C1110 1.363 . S
C1109 H1112 0.929 . S
C1110 C1109 1.363 . S
C1110 C1116 1.428 . S
H1111 C1107 0.930 . S
H1112 C1109 0.929 . S
S1113 N1114 1.613 . S
S1113 N1115 1.610 1_556 S
N1114 S1113 1.613 . S
N1114 C1117 1.350 1_556 S
N1115 S1113 1.610 1_554 S
N1115 C1116 1.351 . S
C1116 C1110 1.428 . S
C1116 N1115 1.351 . S
C1116 C1117 1.434 . S
C1117 C1108 1.429 . S
C1117 N1114 1.350 1_554 S
C1117 C1116 1.434 . S
C1118 C1119 1.369 . S
C1118 C1120 1.419 . S
C1118 H1122 0.930 . S
C1119 C1118 1.369 . S
C1119 C1128 1.429 . S
C1120 C1118 1.419 . S
C1120 C1121 1.363 . S
C1120 H1123 0.929 . S
C1121 C1120 1.363 . S
C1121 C1127 1.428 . S
H1122 C1118 0.930 . S
H1123 C1120 0.929 . S
S1124 N1125 1.613 . S
S1124 N1126 1.610 . S
N1125 S1124 1.613 . S
N1125 C1128 1.350 . S
N1126 S1124 1.610 . S
N1126 C1127 1.351 . S
C1127 C1121 1.428 . S
C1127 N1126 1.351 . S
C1127 C1128 1.434 . S
C1128 C1119 1.429 . S
C1128 N1125 1.350 . S
C1128 C1127 1.434 . S
C1129 C1130 1.369 . S
C1129 C1131 1.419 . S
C1129 H1133 0.930 . S
C1130 C1129 1.369 . S
C1130 C1139 1.429 . S
C1131 C1129 1.419 . S
C1131 C1132 1.363 . S
C1131 H1134 0.929 . S
C1132 C1131 1.363 . S
C1132 C1138 1.428 . S
H1133 C1129 0.930 . S
H1134 C1131 0.929 . S
S1135 N1136 1.613 . S
S1135 N1137 1.610 . S
N1136 S1135 1.613 . S
N1136 C1139 1.350 . S
N1137 S1135 1.610 . S
N1137 C1138 1.351 . S
C1138 C1132 1.428 . S
C1138 N1137 1.351 . S
C1138 C1139 1.434 . S
C1139 C1130 1.429 . S
C1139 N1136 1.350 . S
C1139 C1138 1.434 . S
C1140 C1141 1.369 . S
C1140 C1142 1.419 . S
C1140 H1144 0.930 . S
C1141 C1140 1.369 . S
C1141 C1150 1.429 . S
C1142 C1140 1.419 . S
C1142 C1143 1.363 . S
C1142 H1145 0.929 . S
C1143 C1142 1.363 . S
C1143 C1149 1.428 . S
H1144 C1140 0.930 . S
H1145 C1142 0.929 . S
S1146 N1147 1.613 . S
S1146 N1148 1.610 . S
N1147 S1146 1.613 . S
N1147 C1150 1.350 . S
N1148 S1146 1.610 . S
N1148 C1149 1.351 . S
C1149 C1143 1.428 . S
C1149 N1148 1.351 . S
C1149 C1150 1.434 . S
C1150 C1141 1.429 . S
C1150 N1147 1.350 . S
C1150 C1149 1.434 . S
C1151 C1152 1.369 . S
C1151 C1153 1.419 . S
C1151 H1155 0.930 . S
C1152 C1151 1.369 . S
C1152 C1161 1.429 . S
C1153 C1151 1.419 . S
C1153 C1154 1.363 . S
C1153 H1156 0.929 . S
C1154 C1153 1.363 . S
C1154 C1160 1.428 . S
H1155 C1151 0.930 . S
H1156 C1153 0.929 . S
S1157 N1158 1.613 . S
S1157 N1159 1.610 . S
N1158 S1157 1.613 . S
N1158 C1161 1.350 . S
N1159 S1157 1.610 . S
N1159 C1160 1.351 . S
C1160 C1154 1.428 . S
C1160 N1159 1.351 . S
C1160 C1161 1.434 . S
C1161 C1152 1.429 . S
C1161 N1158 1.350 . S
C1161 C1160 1.434 . S
C1162 C1163 1.369 . S
C1162 C1164 1.419 . S
C1162 H1166 0.930 . S
C1163 C1162 1.369 . S
C1163 C1172 1.429 . S
C1164 C1162 1.419 . S
C1164 C1165 1.363 . S
C1164 H1167 0.929 . S
C1165 C1164 1.363 . S
C1165 C1171 1.428 . S
H1166 C1162 0.930 . S
H1167 C1164 0.929 . S
S1168 N1169 1.613 . S
S1168 N1170 1.610 . S
N1169 S1168 1.613 . S
N1169 C1172 1.350 . S
N1170 S1168 1.610 . S
N1170 C1171 1.351 . S
C1171 C1165 1.428 . S
C1171 N1170 1.351 . S
C1171 C1172 1.434 . S
C1172 C1163 1.429 . S
C1172 N1169 1.350 . S
C1172 C1171 1.434 . S
C1173 C1174 1.369 . S
C1173 C1175 1.419 . S
C1173 H1177 0.930 . S
C1174 C1173 1.369 . S
C1174 C1183 1.429 . S
C1175 C1173 1.419 . S
C1175 C1176 1.363 . S
C1175 H1178 0.929 . S
C1176 C1175 1.363 . S
C1176 C1182 1.428 . S
H1177 C1173 0.930 . S
H1178 C1175 0.929 . S
S1179 N1180 1.613 . S
S1179 N1181 1.610 . S
N1180 S1179 1.613 . S
N1180 C1183 1.350 . S
N1181 S1179 1.610 . S
N1181 C1182 1.351 . S
C1182 C1176 1.428 . S
C1182 N1181 1.351 . S
C1182 C1183 1.434 . S
C1183 C1174 1.429 . S
C1183 N1180 1.350 . S
C1183 C1182 1.434 . S
C1184 C1185 1.369 . S
C1184 C1186 1.419 . S
C1184 H1188 0.930 . S
C1185 C1184 1.369 . S
C1185 C1194 1.429 . S
C1186 C1184 1.419 . S
C1186 C1187 1.363 . S
C1186 H1189 0.929 . S
C1187 C1186 1.363 . S
C1187 C1193 1.428 . S
H1188 C1184 0.930 . S
H1189 C1186 0.929 . S
S1190 N1191 1.613 . S
S1190 N1192 1.610 . S
N1191 S1190 1.613 . S
N1191 C1194 1.350 . S
N1192 S1190 1.610 . S
N1192 C1193 1.351 . S
C1193 C1187 1.428 . S
C1193 N1192 1.351 . S
C1193 C1194 1.434 . S
C1194 C1185 1.429 . S
C1194 N1191 1.350 . S
C1194 C1193 1.434 . S
C1195 C1196 1.369 . S
C1195 C1197 1.419 . S
C1195 H1199 0.930 . S
C1196 C1195 1.369 . S
C1196 C1205 1.429 . S
C1197 C1195 1.419 . S
C1197 C1198 1.363 . S
C1197 H1200 0.929 . S
C1198 C1197 1.363 . S
C1198 C1204 1.428 . S
H1199 C1195 0.930 . S
H1200 C1197 0.929 . S
S1201 N1202 1.613 . S
S1201 N1203 1.610 . S
N1202 S1201 1.613 . S
N1202 C1205 1.350 . S
N1203 S1201 1.610 . S
N1203 C1204 1.351 . S
C1204 C1198 1.428 . S
C1204 N1203 1.351 . S
C1204 C1205 1.434 . S
C1205 C1196 1.429 . S
C1205 N1202 1.350 . S
C1205 C1204 1.434 . S
C1206 C1207 1.369 . S
C1206 C1208 1.419 . S
C1206 H1210 0.930 . S
C1207 C1206 1.369 . S
C1207 C1216 1.429 . S
C1208 C1206 1.419 . S
C1208 C1209 1.363 . S
C1208 H1211 0.929 . S
C1209 C1208 1.363 . S
C1209 C1215 1.428 . S
H1210 C1206 0.930 . S
H1211 C1208 0.929 . S
S1212 N1213 1.613 . S
S1212 N1214 1.610 . S
N1213 S1212 1.613 . S
N1213 C1216 1.350 . S
N1214 S1212 1.610 . S
N1214 C1215 1.351 . S
C1215 C1209 1.428 . S
C1215 N1214 1.351 . S
C1215 C1216 1.434 . S
C1216 C1207 1.429 . S
C1216 N1213 1.350 . S
C1216 C1215 1.434 . S
C1217 C1218 1.369 . S
C1217 C1219 1.419 . S
C1217 H1221 0.930 . S
C1218 C1217 1.369 . S
C1218 C1227 1.429 . S
C1219 C1217 1.419 . S
C1219 C1220 1.363 . S
C1219 H1222 0.929 . S
C1220 C1219 1.363 . S
C1220 C1226 1.428 . S
H1221 C1217 0.930 . S
H1222 C1219 0.929 . S
S1223 N1224 1.613 . S
S1223 N1225 1.610 . S
N1224 S1223 1.613 . S
N1224 C1227 1.350 . S
N1225 S1223 1.610 . S
N1225 C1226 1.351 . S
C1226 C1220 1.428 . S
C1226 N1225 1.351 . S
C1226 C1227 1.434 . S
C1227 C1218 1.429 . S
C1227 N1224 1.350 . S
C1227 C1226 1.434 . S
C1228 C1229 1.369 . S
C1228 C1230 1.419 . S
C1228 H1232 0.930 . S
C1229 C1228 1.369 . S
C1229 C1238 1.429 . S
C1230 C1228 1.419 . S
C1230 C1231 1.363 . S
C1230 H1233 0.929 . S
C1231 C1230 1.363 . S
C1231 C1237 1.428 . S
H1232 C1228 0.930 . S
H1233 C1230 0.929 . S
S1234 N1235 1.613 . S
S1234 N1236 1.610 . S
N1235 S1234 1.613 . S
N1235 C1238 1.350 . S
N1236 S1234 1.610 . S
N1236 C1237 1.351 . S
C1237 C1231 1.428 . S
C1237 N1236 1.351 . S
C1237 C1238 1.434 . S
C1238 C1229 1.429 . S
C1238 N1235 1.350 . S
C1238 C1237 1.434 . S
C1239 C1240 1.369 . S
C1239 C1241 1.419 . S
C1239 H1243 0.930 . S
C1240 C1239 1.369 . S
C1240 C1249 1.429 . S
C1241 C1239 1.419 . S
C1241 C1242 1.363 . S
C1241 H1244 0.929 . S
C1242 C1241 1.363 . S
C1242 C1248 1.428 . S
H1243 C1239 0.930 . S
H1244 C1241 0.929 . S
S1245 N1246 1.613 1_554 S
S1245 N1247 1.610 . S
N1246 S1245 1.613 1_556 S
N1246 C1249 1.350 . S
N1247 S1245 1.610 . S
N1247 C1248 1.351 1_554 S
C1248 C1242 1.428 . S
C1248 N1247 1.351 1_556 S
C1248 C1249 1.434 . S
C1249 C1240 1.429 . S
C1249 N1246 1.350 . S
C1249 C1248 1.434 . S
C1250 C1251 1.369 . S
C1250 C1252 1.419 . S
C1250 H1254 0.930 . S
C1251 C1250 1.369 . S
C1251 C1260 1.429 . S
C1252 C1250 1.419 . S
C1252 C1253 1.363 . S
C1252 H1255 0.929 . S
C1253 C1252 1.363 . S
C1253 C1259 1.428 . S
H1254 C1250 0.930 . S
H1255 C1252 0.929 . S
S1256 N1257 1.613 . S
S1256 N1258 1.610 . S
N1257 S1256 1.613 . S
N1257 C1260 1.350 . S
N1258 S1256 1.610 . S
N1258 C1259 1.351 . S
C1259 C1253 1.428 . S
C1259 N1258 1.351 . S
C1259 C1260 1.434 . S
C1260 C1251 1.429 . S
C1260 N1257 1.350 . S
C1260 C1259 1.434 . S
C1261 C1262 1.369 . S
C1261 C1263 1.419 . S
C1261 H1265 0.930 . S
C1262 C1261 1.369 . S
C1262 C1271 1.429 . S
C1263 C1261 1.419 . S
C1263 C1264 1.363 . S
C1263 H1266 0.929 . S
C1264 C1263 1.363 . S
C1264 C1270 1.428 . S
H1265 C1261 0.930 . S
H1266 C1263 0.929 . S
S1267 N1268 1.613 . S
S1267 N1269 1.610 . S
N1268 S1267 1.613 . S
N1268 C1271 1.350 . S
N1269 S1267 1.610 . S
N1269 C1270 1.351 . S
C1270 C1264 1.428 . S
C1270 N1269 1.351 . S
C1270 C1271 1.434 . S
C1271 C1262 1.429 . S
C1271 N1268 1.350 . S
C1271 C1270 1.434 . S
C481 C18 1.405 . S
C483 C362 1.358 . S
C492 C382 1.365 . S
C494 C38 1.400 . S
C503 C58 1.400 . S
C505 C322 1.361 . S
C514 C78 1.403 . S
C516 C342 1.358 . S
C525 C442 1.363 . S
C527 C98 1.402 . S
C536 C118 1.400 . S
C538 C422 1.362 . S
C547 C462 1.361 . S
C549 C138 1.401 . S
C558 C158 1.403 . S
C560 C402 1.360 . S
C569 C178 1.406 . S
C571 C262 1.356 . S
C580 C198 1.404 . S
C582 C302 1.359 . S
C591 C282 1.354 . S
C593 C218 1.405 . S
C602 C238 1.400 . S
C604 C242 1.363 . S
C613 C259 1.400 . S
C615 C124 1.363 . S
C624 C279 1.406 . S
C626 C144 1.356 . S
C635 C299 1.400 . S
C637 C84 1.363 . S
C646 C104 1.354 . S
C648 C319 1.405 . S
C657 C339 1.406 . S
C659 C204 1.356 . S
C668 C184 1.362 . S
C670 C359 1.401 . S
C679 C224 1.354 . S
C681 C379 1.405 . S
C690 C164 1.362 . S
C692 C399 1.402 . S
C701 C24 1.365 . S
C703 C419 1.400 . S
C712 C64 1.355 . S
C714 C439 1.405 . S
C723 C44 1.365 . S
C725 C459 1.400 . S
C734 C479 1.401 . S
C736 C4 1.362 . S
C745 C82 1.297 . S
C747 C9 1.458 . S
C756 C102 1.296 . S
C758 C29 1.458 . S
C767 C122 1.312 . S
C769 C49 1.461 . S
C778 C142 1.307 . S
C780 C69 1.460 . S
C789 C89 1.458 . S
C791 C162 1.300 . S
C800 C109 1.461 . S
C802 C222 1.308 . S
C811 C129 1.462 . S
C813 C182 1.310 . S
C822 C149 1.460 . S
C824 C202 1.305 . S
C833 C169 1.458 . S
C835 C2 1.299 . S
C844 C189 1.461 . S
C846 C42 1.309 . S
C855 C209 1.460 . S
C857 C62 1.305 . S
C866 C22 1.312 . S
C868 C229 1.461 . S
C877 C324 1.296 . S
C879 C252 1.458 . S
C888 C344 1.296 . S
C890 C272 1.458 . S
C899 C292 1.462 . S
C901 C364 1.310 . S
C910 C312 1.458 . S
C912 C384 1.301 . S
C921 C404 1.304 . S
C923 C332 1.459 . S
C932 C352 1.458 . S
C934 C464 1.300 . S
C943 C424 1.311 . S
C945 C372 1.461 . S
C954 C392 1.462 . S
C956 C444 1.310 . S
C965 C244 1.310 . S
C967 C412 1.460 . S
C976 C432 1.461 . S
C978 C284 1.308 . S
C987 C452 1.459 . S
C989 C304 1.300 . S
C998 C264 1.301 . S
C1000 C472 1.459 . S
C1009 C19 1.535 . S
C1011 C192 1.566 . S
C1020 C212 1.558 . S
C1022 C39 1.544 . S
C1031 C172 1.566 . S
C1033 C59 1.537 . S
C1042 C232 1.561 . S
C1044 C79 1.542 . S
C1053 C99 1.540 . S
C1055 C72 1.562 . S
C1064 C52 1.556 . S
C1066 C119 1.546 . S
C1075 C139 1.535 . S
C1077 C32 1.566 . S
C1086 C12 1.557 . S
C1088 C159 1.545 . S
C1097 C179 1.536 . S
C1099 C112 1.565 . S
C1108 C199 1.535 . S
C1110 C152 1.566 . S
C1119 C219 1.548 . S
C1121 C132 1.557 . S
C1130 C239 1.544 . S
C1132 C92 1.559 . S
C1141 C258 1.545 . S
C1143 C429 1.560 . S
C1152 C278 1.543 . S
C1154 C449 1.559 . S
C1163 C409 1.556 . S
C1165 C298 1.546 . S
C1174 C469 1.558 . S
C1176 C318 1.545 . S
C1185 C338 1.547 . S
C1187 C309 1.558 . S
C1196 C358 1.546 . S
C1198 C289 1.557 . S
C1207 C269 1.568 . S
C1209 C378 1.536 . S
C1218 C398 1.537 . S
C1220 C249 1.565 . S
C1229 C418 1.541 . S
C1231 C349 1.561 . S
C1240 C389 1.568 . S
C1242 C438 1.537 . S
C1251 C458 1.539 . S
C1253 C369 1.564 . S
C1262 C478 1.539 . S
C1264 C329 1.564 . S
