# Generated by pormake.
# Topology umg, (4)-cn, num edge types: 1
# Building blocks:
#     Node 0, Type 0, BuildingBlock: MUDLON_clean_sbu_0, # of connection points: 4
#     Node 1, Type 0, BuildingBlock: MUDLON_clean_sbu_0, # of connection points: 4
#     Node 2, Type 0, BuildingBlock: MUDLON_clean_sbu_0, # of connection points: 4
#     Node 3, Type 0, BuildingBlock: MUDLON_clean_sbu_0, # of connection points: 4
#     Node 4, Type 0, BuildingBlock: MUDLON_clean_sbu_0, # of connection points: 4
#     Node 5, Type 0, BuildingBlock: MUDLON_clean_sbu_0, # of connection points: 4
#     Node 6, Type 0, BuildingBlock: MUDLON_clean_sbu_0, # of connection points: 4
#     Node 7, Type 0, BuildingBlock: MUDLON_clean_sbu_0, # of connection points: 4
#     Node 8, Type 0, BuildingBlock: MUDLON_clean_sbu_0, # of connection points: 4
#     Node 9, Type 0, BuildingBlock: MUDLON_clean_sbu_0, # of connection points: 4
#     Node 10, Type 0, BuildingBlock: MUDLON_clean_sbu_0, # of connection points: 4
#     Node 11, Type 0, BuildingBlock: MUDLON_clean_sbu_0, # of connection points: 4
#     Edge 12, Type (0, 0), BuildingBlock: AJUNOK_clean_linker_0, # of connection points: 2
#     Edge 13, Type (0, 0), BuildingBlock: AJUNOK_clean_linker_0, # of connection points: 2
#     Edge 14, Type (0, 0), BuildingBlock: AJUNOK_clean_linker_0, # of connection points: 2
#     Edge 15, Type (0, 0), BuildingBlock: AJUNOK_clean_linker_0, # of connection points: 2
#     Edge 16, Type (0, 0), BuildingBlock: AJUNOK_clean_linker_0, # of connection points: 2
#     Edge 17, Type (0, 0), BuildingBlock: AJUNOK_clean_linker_0, # of connection points: 2
#     Edge 18, Type (0, 0), BuildingBlock: AJUNOK_clean_linker_0, # of connection points: 2
#     Edge 19, Type (0, 0), BuildingBlock: AJUNOK_clean_linker_0, # of connection points: 2
#     Edge 20, Type (0, 0), BuildingBlock: AJUNOK_clean_linker_0, # of connection points: 2
#     Edge 21, Type (0, 0), BuildingBlock: AJUNOK_clean_linker_0, # of connection points: 2
#     Edge 22, Type (0, 0), BuildingBlock: AJUNOK_clean_linker_0, # of connection points: 2
#     Edge 23, Type (0, 0), BuildingBlock: AJUNOK_clean_linker_0, # of connection points: 2
#     Edge 24, Type (0, 0), BuildingBlock: AJUNOK_clean_linker_0, # of connection points: 2
#     Edge 25, Type (0, 0), BuildingBlock: AJUNOK_clean_linker_0, # of connection points: 2
#     Edge 26, Type (0, 0), BuildingBlock: AJUNOK_clean_linker_0, # of connection points: 2
#     Edge 27, Type (0, 0), BuildingBlock: AJUNOK_clean_linker_0, # of connection points: 2
#     Edge 28, Type (0, 0), BuildingBlock: AJUNOK_clean_linker_0, # of connection points: 2
#     Edge 29, Type (0, 0), BuildingBlock: AJUNOK_clean_linker_0, # of connection points: 2
#     Edge 30, Type (0, 0), BuildingBlock: AJUNOK_clean_linker_0, # of connection points: 2
#     Edge 31, Type (0, 0), BuildingBlock: AJUNOK_clean_linker_0, # of connection points: 2
#     Edge 32, Type (0, 0), BuildingBlock: AJUNOK_clean_linker_0, # of connection points: 2
#     Edge 33, Type (0, 0), BuildingBlock: AJUNOK_clean_linker_0, # of connection points: 2
#     Edge 34, Type (0, 0), BuildingBlock: AJUNOK_clean_linker_0, # of connection points: 2
#     Edge 35, Type (0, 0), BuildingBlock: AJUNOK_clean_linker_0, # of connection points: 2
# Relax obj value: 0.016
# Max RMSD: 0.185
# Mean RMSD: 0.185
data_MOF--net-umg--node1-MUDLON_clean_sbu_0--edge1-AJUNOK_clean_linker_0
_symmetry_space_group_name_H-M    P1
_symmetry_Int_Tables_number       1
_symmetry_cell_setting            triclinic
loop_
_symmetry_equiv_pos_as_xyz
'x, y, z'
_cell_length_a     22.141892
_cell_length_b     22.150227
_cell_length_c     66.484091
_cell_angle_alpha  90.081417
_cell_angle_beta   89.988782
_cell_angle_gamma 120.07836
loop_
_atom_site_label
_atom_site_type_symbol
_atom_site_fract_x
_atom_site_fract_y
_atom_site_fract_z
_atom_type_partial_charge
Mg0 Mg 0.32934 0.61609 0.10434 0.0
C1 C 0.32927 0.68132 0.0639 0.0
O2 O 0.26325 0.65628 0.06843 0.0
C3 C 0.35446 0.63864 0.14776 0.0
O4 O 0.33733 0.57312 0.14519 0.0
C5 C 0.44707 0.59117 0.10613 0.0
O6 O 0.47542 0.65934 0.10682 0.0
O7 O 0.38082 0.55431 0.10504 0.0
O8 O 0.36919 0.67698 0.07685 0.0
O9 O 0.21525 0.55737 0.10379 0.0
C10 C 0.18513 0.59204 0.10797 0.0
O11 O 0.22412 0.65851 0.11244 0.0
O12 O 0.358 0.67429 0.13234 0.0
Mg13 Mg 0.73401 0.3173 0.43887 0.0
C14 C 0.67143 0.31934 0.39834 0.0
O15 O 0.63164 0.25264 0.4023 0.0
C16 C 0.73901 0.34355 0.48232 0.0
O17 O 0.78888 0.32865 0.47957 0.0
C18 C 0.87948 0.4331 0.43864 0.0
O19 O 0.84281 0.46481 0.43782 0.0
O20 O 0.84701 0.36673 0.43928 0.0
O21 O 0.71346 0.3589 0.41179 0.0
O22 O 0.68011 0.20357 0.43771 0.0
C23 C 0.61516 0.17031 0.44178 0.0
O24 O 0.58419 0.206 0.44627 0.0
O25 O 0.70516 0.3451 0.46706 0.0
Mg26 Mg 0.44697 0.73236 0.77605 0.0
C27 C 0.43848 0.69682 0.73404 0.0
O28 O 0.50047 0.71096 0.7403 0.0
C29 C 0.3797 0.74271 0.81481 0.0
O30 O 0.40748 0.80833 0.80945 0.0
C31 C 0.4755 0.87618 0.76861 0.0
O32 O 0.41221 0.8371 0.76141 0.0
O33 O 0.50681 0.84605 0.77587 0.0
O34 O 0.39708 0.70042 0.74661 0.0
O35 O 0.50722 0.67928 0.77928 0.0
C36 C 0.4701 0.61296 0.77996 0.0
O37 O 0.4019 0.58466 0.77943 0.0
O38 O 0.38159 0.69921 0.80268 0.0
Mg39 Mg 0.73342 0.42783 0.1057 0.0
C40 C 0.73212 0.36006 0.06571 0.0
O41 O 0.7984 0.38609 0.0701 0.0
C42 C 0.70387 0.40639 0.14902 0.0
O43 O 0.71706 0.47049 0.14607 0.0
C44 C 0.61742 0.45758 0.1058 0.0
O45 O 0.58534 0.38907 0.10545 0.0
O46 O 0.68388 0.49139 0.10591 0.0
O47 O 0.6924 0.36479 0.07866 0.0
O48 O 0.84739 0.48773 0.1047 0.0
C49 C 0.88063 0.45626 0.10899 0.0
O50 O 0.84488 0.38975 0.1137 0.0
O51 O 0.70523 0.37154 0.13396 0.0
Mg52 Mg 0.32594 0.72184 0.43826 0.0
C53 C 0.38814 0.71993 0.39757 0.0
O54 O 0.42587 0.78714 0.40119 0.0
C55 C 0.31751 0.69456 0.48174 0.0
O56 O 0.26833 0.71015 0.47862 0.0
C57 C 0.18355 0.60453 0.43889 0.0
O58 O 0.22364 0.57654 0.43951 0.0
O59 O 0.21273 0.67077 0.43822 0.0
O60 O 0.34777 0.68027 0.41128 0.0
O61 O 0.38161 0.83571 0.4374 0.0
C62 C 0.44674 0.86593 0.4412 0.0
O63 O 0.47448 0.8271 0.44542 0.0
O64 O 0.35269 0.69344 0.46673 0.0
Mg65 Mg 0.63205 0.32606 0.77227 0.0
C66 C 0.70306 0.33361 0.73239 0.0
O67 O 0.68515 0.26935 0.73729 0.0
C68 C 0.65043 0.31496 0.81525 0.0
O69 O 0.58501 0.26795 0.8117 0.0
C70 C 0.60447 0.17942 0.77452 0.0
O71 O 0.66869 0.21506 0.78137 0.0
O72 O 0.57367 0.21257 0.76939 0.0
O73 O 0.69295 0.37068 0.74507 0.0
O74 O 0.56808 0.37498 0.77485 0.0
C75 C 0.60217 0.44135 0.77595 0.0
O76 O 0.67067 0.47319 0.77535 0.0
O77 O 0.68837 0.35029 0.80052 0.0
Mg78 Mg 0.44594 0.72393 0.60562 0.0
C79 C 0.43826 0.69438 0.64789 0.0
O80 O 0.50059 0.70918 0.64176 0.0
C81 C 0.41424 0.69606 0.56311 0.0
O82 O 0.47987 0.71263 0.56494 0.0
C83 C 0.46867 0.60397 0.60469 0.0
O84 O 0.40101 0.5761 0.60717 0.0
O85 O 0.50546 0.67004 0.60308 0.0
O86 O 0.39611 0.69547 0.63509 0.0
O87 O 0.50561 0.83748 0.60514 0.0
C88 C 0.46844 0.86654 0.60479 0.0
O89 O 0.40023 0.82637 0.60465 0.0
O90 O 0.38081 0.69375 0.57894 0.0
Mg91 Mg 0.73008 0.42322 0.94115 0.0
C92 C 0.66855 0.3584 0.98172 0.0
O93 O 0.62933 0.38608 0.97803 0.0
C94 C 0.73789 0.40228 0.89769 0.0
O95 O 0.78732 0.46732 0.90048 0.0
C96 C 0.8759 0.45505 0.94021 0.0
O97 O 0.83949 0.38685 0.93826 0.0
O98 O 0.84315 0.48853 0.94152 0.0
O99 O 0.70967 0.36033 0.96808 0.0
O100 O 0.67229 0.47935 0.94203 0.0
C101 C 0.60711 0.44403 0.93828 0.0
O102 O 0.57955 0.37738 0.93407 0.0
O103 O 0.70361 0.36682 0.91289 0.0
Mg104 Mg 0.3273 0.72127 0.27322 0.0
C105 C 0.32715 0.65562 0.3135 0.0
O106 O 0.26067 0.61627 0.30917 0.0
C107 C 0.3548 0.72969 0.22985 0.0
O108 O 0.33908 0.77869 0.23314 0.0
C109 C 0.44491 0.86415 0.27217 0.0
O110 O 0.47321 0.82439 0.27115 0.0
O111 O 0.37866 0.83462 0.27325 0.0
O112 O 0.3675 0.69888 0.30041 0.0
O113 O 0.21329 0.66595 0.27394 0.0
C114 C 0.18282 0.60108 0.26976 0.0
O115 O 0.22144 0.57341 0.26514 0.0
O116 O 0.35584 0.69417 0.24476 0.0
Mg117 Mg 0.63179 0.3168 0.60779 0.0
C118 C 0.69998 0.38549 0.6475 0.0
O119 O 0.6768 0.42736 0.64225 0.0
C120 C 0.64976 0.34212 0.56461 0.0
O121 O 0.58433 0.32375 0.56803 0.0
C122 C 0.60281 0.43428 0.60357 0.0
O123 O 0.66845 0.46391 0.59794 0.0
O124 O 0.57195 0.37051 0.60892 0.0
O125 O 0.69351 0.33868 0.63515 0.0
O126 O 0.5681 0.20355 0.6067 0.0
C127 C 0.60184 0.17092 0.60625 0.0
O128 O 0.67038 0.20747 0.60649 0.0
O129 O 0.68771 0.3457 0.57946 0.0
Mg130 Mg 0.32339 0.61195 0.93938 0.0
C131 C 0.38855 0.67721 0.97975 0.0
O132 O 0.4239 0.64525 0.97622 0.0
C133 C 0.32035 0.68308 0.89992 0.0
O134 O 0.26672 0.684 0.908 0.0
C135 C 0.17965 0.58682 0.94428 0.0
O136 O 0.21887 0.65223 0.94978 0.0
O137 O 0.20956 0.55279 0.93911 0.0
O138 O 0.34904 0.67803 0.966 0.0
O139 O 0.37386 0.54887 0.94135 0.0
C140 C 0.43877 0.57983 0.93718 0.0
O141 O 0.47013 0.64625 0.93235 0.0
O142 O 0.35488 0.66246 0.91025 0.0
Mg143 Mg 0.73122 0.31417 0.27381 0.0
C144 C 0.73127 0.3799 0.31408 0.0
O145 O 0.79702 0.42146 0.30935 0.0
C146 C 0.70577 0.31257 0.23049 0.0
O147 O 0.72294 0.26416 0.23278 0.0
C148 C 0.61514 0.16836 0.273 0.0
O149 O 0.5831 0.20473 0.27367 0.0
O150 O 0.68159 0.20111 0.27286 0.0
O151 O 0.69131 0.33476 0.30129 0.0
O152 O 0.84512 0.36802 0.27446 0.0
C153 C 0.8783 0.43272 0.27009 0.0
O154 O 0.84248 0.46351 0.26558 0.0
O155 O 0.70249 0.34432 0.24605 0.0
C156 C 0.42655 0.69513 1.01572 0.0
C157 C 0.38204 0.69621 1.00078 0.0
C158 C 0.41229 0.69629 0.03621 0.0
C159 C 0.35251 0.69792 0.04263 0.0
H160 H 0.47077 0.6894 1.01161 0.0
H161 H 0.446 0.6911 0.04703 0.0
S162 S 0.22645 0.71484 1.00967 0.0
N163 N 0.28129 0.70959 0.99393 0.0
N164 N 0.25422 0.71104 0.03242 0.0
C165 C 0.31115 0.70554 0.0279 0.0
C166 C 0.32601 0.70495 1.00699 0.0
C167 C 0.63373 0.29834 0.36234 0.0
C168 C 0.6787 0.34404 0.37722 0.0
C169 C 0.64812 0.31309 0.34184 0.0
C170 C 0.70841 0.37398 0.33536 0.0
H171 H 0.58896 0.2488 0.3665 0.0
H172 H 0.61395 0.27413 0.33108 0.0
S173 S 0.83581 0.51724 0.36812 0.0
N174 N 0.78054 0.45783 0.38394 0.0
N175 N 0.80772 0.48517 0.34541 0.0
C176 C 0.75031 0.42313 0.35001 0.0
C177 C 0.73541 0.40832 0.37093 0.0
C178 C 0.4556 0.65303 0.70158 0.0
C179 C 0.42201 0.68229 0.71241 0.0
C180 C 0.45556 0.65246 0.6806 0.0
C181 C 0.42189 0.68108 0.66954 0.0
H182 H 0.48535 0.63352 0.70937 0.0
H183 H 0.48528 0.63254 0.67297 0.0
S184 S 0.31932 0.75672 0.69065 0.0
N185 N 0.34842 0.7347 0.71062 0.0
N186 N 0.34829 0.73353 0.67087 0.0
C187 C 0.38316 0.70538 0.68009 0.0
C188 C 0.38323 0.70601 0.70164 0.0
C189 C 0.64723 0.34155 0.03826 0.0
C190 C 0.70816 0.34196 0.04455 0.0
C191 C 0.63194 0.34136 1.0178 0.0
C192 C 0.67661 0.34104 1.00279 0.0
H193 H 0.61329 0.34613 0.04913 0.0
H194 H 0.58674 0.3455 1.01378 0.0
S195 S 0.83512 0.32727 1.01139 0.0
N196 N 0.80773 0.33123 0.03418 0.0
N197 N 0.77885 0.33035 0.99574 0.0
C198 C 0.73392 0.33428 1.00889 0.0
C199 C 0.74974 0.33495 0.02976 0.0
C200 C 0.41103 0.72356 0.34107 0.0
C201 C 0.35075 0.66232 0.33473 0.0
C202 C 0.4256 0.73928 0.36155 0.0
C203 C 0.38088 0.69418 0.37653 0.0
H204 H 0.4449 0.76212 0.3302 0.0
H205 H 0.47028 0.7891 0.36559 0.0
S206 S 0.22391 0.52043 0.36785 0.0
N207 N 0.25172 0.55149 0.34506 0.0
N208 N 0.27929 0.58059 0.38353 0.0
C209 C 0.32425 0.62953 0.3704 0.0
C210 C 0.30913 0.61377 0.34952 0.0
C211 C 0.71907 0.30978 0.69655 0.0
C212 C 0.71909 0.35625 0.71104 0.0
C213 C 0.71843 0.32236 0.67592 0.0
C214 C 0.71755 0.38185 0.66889 0.0
H215 H 0.71552 0.26118 0.70111 0.0
H216 H 0.7142 0.2828 0.66549 0.0
S217 S 0.73173 0.5269 0.70045 0.0
N218 N 0.72908 0.46954 0.71677 0.0
N219 N 0.72764 0.49296 0.67802 0.0
C220 C 0.7242 0.43192 0.68314 0.0
C221 C 0.72508 0.41922 0.7042 0.0
C222 C 0.35873 0.64719 0.20483 0.0
C223 C 0.36327 0.7116 0.20894 0.0
C224 C 0.35833 0.62535 0.18501 0.0
C225 C 0.36277 0.6671 0.16846 0.0
H226 H 0.35294 0.61209 0.21696 0.0
H227 H 0.35268 0.57435 0.18271 0.0
S228 S 0.38375 0.84405 0.17114 0.0
N229 N 0.37834 0.81972 0.19483 0.0
N230 N 0.37753 0.77858 0.15763 0.0
C231 C 0.3709 0.7332 0.17237 0.0
C232 C 0.37111 0.75541 0.19258 0.0
C233 C 0.75768 0.34832 0.51952 0.0
C234 C 0.71915 0.35146 0.50308 0.0
C235 C 0.73658 0.3483 0.53939 0.0
C236 C 0.67585 0.35107 0.54365 0.0
H237 H 0.80374 0.34398 0.51709 0.0
H238 H 0.76683 0.34352 0.55145 0.0
S239 S 0.56062 0.36797 0.50621 0.0
N240 N 0.62039 0.36333 0.49253 0.0
N241 N 0.58068 0.36329 0.52984 0.0
C242 C 0.63864 0.35767 0.52742 0.0
C243 C 0.66029 0.35791 0.50716 0.0
C244 C 0.33454 0.75885 0.84772 0.0
C245 C 0.35979 0.72312 0.83607 0.0
C246 C 0.32129 0.74531 0.86837 0.0
C247 C 0.33499 0.69722 0.87819 0.0
H248 H 0.32514 0.79769 0.84084 0.0
H249 H 0.3015 0.77367 0.87677 0.0
S250 S 0.40108 0.58966 0.85447 0.0
N251 N 0.39685 0.63659 0.83585 0.0
N252 N 0.37383 0.61263 0.87462 0.0
C253 C 0.36009 0.66105 0.86669 0.0
C254 C 0.37194 0.67356 0.84563 0.0
C255 C 0.70284 0.32021 0.17349 0.0
C256 C 0.6958 0.37882 0.16977 0.0
C257 C 0.70362 0.29801 0.19316 0.0
C258 C 0.69714 0.3333 0.20994 0.0
H259 H 0.71029 0.29253 0.16118 0.0
H260 H 0.71125 0.25376 0.19516 0.0
S261 S 0.66904 0.48499 0.20826 0.0
N262 N 0.67606 0.46826 0.18445 0.0
N263 N 0.67759 0.42652 0.22139 0.0
C264 C 0.6865 0.3899 0.2064 0.0
C265 C 0.68586 0.41266 0.18634 0.0
C266 C 0.42253 0.68782 0.52585 0.0
C267 C 0.3836 0.68717 0.54271 0.0
C268 C 0.39939 0.6873 0.50622 0.0
C269 C 0.33641 0.68637 0.50258 0.0
H270 H 0.47243 0.69057 0.52775 0.0
H271 H 0.43248 0.69005 0.49383 0.0
S272 S 0.21107 0.67678 0.54142 0.0
N273 N 0.27612 0.67998 0.55442 0.0
N274 N 0.23238 0.67887 0.51753 0.0
C275 C 0.29518 0.68226 0.51927 0.0
C276 C 0.31877 0.68263 0.53932 0.0
C277 C 0.75813 0.4157 0.86055 0.0
C278 C 0.71871 0.37432 0.87691 0.0
C279 C 0.73744 0.3947 0.84064 0.0
C280 C 0.67627 0.33156 0.83626 0.0
H281 H 0.80451 0.46587 0.86306 0.0
H282 H 0.76835 0.4296 0.82864 0.0
S283 S 0.55869 0.20013 0.87352 0.0
N284 N 0.61863 0.26421 0.8873 0.0
N285 N 0.57974 0.22469 0.84992 0.0
C286 C 0.63823 0.28792 0.85243 0.0
C287 C 0.65945 0.30925 0.87274 0.0
C288 C 0.99245 0.45338 0.10877 0.0
C289 C 0.95826 0.4926 0.10831 0.0
C290 C 0.06555 0.48575 0.10837 0.0
C291 C 0.1077 0.55881 0.10775 0.0
H292 H 0.96258 0.39695 0.10939 0.0
H293 H 0.08913 0.45313 0.10883 0.0
S294 S 0.04446 0.68571 0.10594 0.0
N295 N 0.97256 0.60875 0.10683 0.0
N296 N 0.1096 0.6696 0.10626 0.0
C297 C 0.07425 0.59875 0.10716 0.0
C298 C 0.99974 0.56571 0.10738 0.0
C299 C 0.50047 0.05831 0.44176 0.0
C300 C 0.57397 0.09271 0.44121 0.0
C301 C 0.45983 0.98524 0.44148 0.0
C302 C 0.49091 0.94332 0.44087 0.0
H303 H 0.47377 0.088 0.44239 0.0
H304 H 0.40356 0.96151 0.44202 0.0
S305 S 0.68136 1.00717 0.43885 0.0
N306 N 0.67611 0.07887 0.43967 0.0
N307 N 0.60006 0.94184 0.4393 0.0
C308 C 0.5644 0.97697 0.44019 0.0
C309 C 0.60579 0.05146 0.4403 0.0
C310 C 0.60646 0.55663 0.77652 0.0
C311 C 0.56669 0.48323 0.77757 0.0
C312 C 0.57509 0.59806 0.77764 0.0
C313 C 0.50247 0.568 0.77989 0.0
H314 H 0.66254 0.58269 0.7746 0.0
H315 H 0.60815 0.65412 0.77647 0.0
S316 S 0.3747 0.37829 0.78443 0.0
N317 N 0.45073 0.38235 0.78168 0.0
N318 N 0.39166 0.45981 0.78386 0.0
C319 C 0.46206 0.49463 0.78132 0.0
C320 C 0.49411 0.45241 0.78014 0.0
C321 C 0.60553 0.05962 0.60643 0.0
C322 C 0.56584 0.0933 0.60566 0.0
C323 C 0.57376 0.98665 0.60604 0.0
C324 C 0.50081 0.94394 0.60487 0.0
H325 H 0.66191 0.08976 0.60741 0.0
H326 H 0.60689 0.96368 0.60676 0.0
S327 S 0.37276 1.00576 0.60207 0.0
N328 N 0.44935 0.07797 0.60338 0.0
N329 N 0.38955 0.94112 0.60264 0.0
C330 C 0.46035 0.97688 0.60396 0.0
C331 C 0.49281 0.05133 0.60436 0.0
C332 C 0.55326 0.58248 0.93769 0.0
C333 C 0.47973 0.54328 0.93803 0.0
C334 C 0.59388 0.55012 0.93808 0.0
C335 C 0.56279 0.47706 0.93857 0.0
H336 H 0.58003 0.63893 0.93715 0.0
H337 H 0.65016 0.5828 0.93769 0.0
S338 S 0.37224 0.35017 0.94001 0.0
N339 N 0.37753 0.42716 0.93926 0.0
N340 N 0.45353 0.36624 0.9398 0.0
C341 C 0.48926 0.4371 0.93905 0.0
C342 C 0.44788 0.47017 0.93885 0.0
C343 C 0.06347 0.58803 0.26985 0.0
C344 C 0.10541 0.55696 0.27028 0.0
C345 C 0.99034 0.54738 0.26979 0.0
C346 C 0.95595 0.47391 0.27041 0.0
H347 H 0.08721 0.64427 0.26928 0.0
H348 H 0.96062 0.57405 0.2693 0.0
S349 S 0.04162 0.36663 0.2724 0.0
N350 N 0.10695 0.44789 0.27178 0.0
N351 N 0.96986 0.37185 0.27184 0.0
C352 C 0.99725 0.44214 0.27115 0.0
C353 C 0.07177 0.48351 0.27102 0.0
C354 C 0.50255 0.45401 0.10456 0.0
C355 C 0.57588 0.49354 0.10606 0.0
C356 C 0.46146 0.48584 0.10469 0.0
C357 C 0.49184 0.55865 0.10633 0.0
H358 H 0.47627 0.39774 0.1032 0.0
H359 H 0.40538 0.45289 0.10341 0.0
S360 S 0.68165 0.68616 0.11112 0.0
N361 N 0.67712 0.60965 0.10954 0.0
N362 N 0.60031 0.66957 0.1098 0.0
C363 C 0.56519 0.59892 0.10797 0.0
C364 C 0.60705 0.56641 0.10783 0.0
C365 C 0.99062 0.54821 0.43745 0.0
C366 C 0.95702 0.4749 0.43879 0.0
C367 C 0.06358 0.58955 0.43753 0.0
C368 C 0.10625 0.55945 0.43894 0.0
H369 H 0.96042 0.57427 0.4363 0.0
H370 H 0.08658 0.64562 0.43644 0.0
S371 S 0.04458 0.36979 0.44298 0.0
N372 N 0.97233 0.37394 0.44171 0.0
N373 N 0.10921 0.45127 0.44185 0.0
C374 C 0.07339 0.48612 0.44033 0.0
C375 C 0.99897 0.444 0.44026 0.0
C376 C 0.60463 0.06738 0.77953 0.0
C377 C 0.57003 0.10218 0.7726 0.0
C378 C 0.57409 0.99471 0.778 0.0
C379 C 0.50757 0.95347 0.76943 0.0
H380 H 0.65586 0.09636 0.78633 0.0
H381 H 0.60292 0.97076 0.78372 0.0
S382 S 0.39514 1.0188 0.74854 0.0
N383 N 0.46562 0.0896 0.75655 0.0
N384 N 0.40823 0.95332 0.7536 0.0
C385 C 0.47247 0.98759 0.76226 0.0
C386 C 0.50361 0.06172 0.76387 0.0
C387 C 0.573 0.58893 0.60053 0.0
C388 C 0.50116 0.55922 0.60433 0.0
C389 C 0.60501 0.54804 0.60027 0.0
C390 C 0.56671 0.47564 0.6039 0.0
H391 H 0.60503 0.64436 0.5977 0.0
H392 H 0.66053 0.57377 0.59728 0.0
S393 S 0.37677 0.3717 0.61451 0.0
N394 N 0.39233 0.45227 0.61171 0.0
N395 N 0.45263 0.37582 0.61127 0.0
C396 C 0.49477 0.4451 0.6077 0.0
C397 C 0.46202 0.48672 0.60789 0.0
C398 C 0.06031 0.48399 0.93826 0.0
C399 C 0.10239 0.55474 0.94343 0.0
C400 C 0.98745 0.45268 0.93719 0.0
C401 C 0.95339 0.49078 0.94115 0.0
H402 H 0.08367 0.45224 0.93501 0.0
H403 H 0.9577 0.39797 0.93317 0.0
S404 S 0.03924 0.67785 0.95542 0.0
N405 N 0.10421 0.66222 0.95265 0.0
N406 N 0.96757 0.60331 0.95053 0.0
C407 C 0.99473 0.56166 0.94629 0.0
C408 C 0.06903 0.59357 0.94748 0.0
C409 C 0.45921 0.98384 0.27371 0.0
C410 C 0.48966 0.94151 0.27215 0.0
C411 C 0.50026 0.05682 0.27391 0.0
C412 C 0.57362 0.09081 0.27258 0.0
H413 H 0.40309 0.96055 0.27485 0.0
H414 H 0.47393 0.08673 0.27521 0.0
S415 S 0.6796 1.00429 0.26785 0.0
N416 N 0.59824 0.93934 0.26897 0.0
N417 N 0.67499 0.07622 0.26937 0.0
C418 C 0.60486 0.04921 0.2709 0.0
C419 C 0.56305 0.97477 0.27068 0.0
loop_
_geom_bond_atom_site_label_1
_geom_bond_atom_site_label_2
_geom_bond_distance
_geom_bond_site_symmetry_2
_ccdc_geom_bond_type
Mg0 O7 2.141 . S
Mg0 O8 2.048 . S
Mg0 O9 2.048 . S
Mg0 O12 2.141 . S
C1 O2 1.313 . S
C1 O8 1.195 . S
O2 C1 1.313 . S
C3 O4 1.245 . S
C3 O12 1.289 . S
O4 C3 1.245 . S
C5 O6 1.245 . S
C5 O7 1.289 . S
O6 C5 1.245 . S
O7 Mg0 2.141 . S
O7 C5 1.289 . S
O8 Mg0 2.048 . S
O8 C1 1.195 . S
O9 Mg0 2.048 . S
O9 C10 1.195 . S
C10 O9 1.195 . S
C10 O11 1.313 . S
O11 C10 1.313 . S
O12 Mg0 2.141 . S
O12 C3 1.289 . S
Mg13 O20 2.141 . S
Mg13 O21 2.048 . S
Mg13 O22 2.048 . S
Mg13 O25 2.141 . S
C14 O15 1.313 . S
C14 O21 1.195 . S
O15 C14 1.313 . S
C16 O17 1.245 . S
C16 O25 1.289 . S
O17 C16 1.245 . S
C18 O19 1.245 . S
C18 O20 1.289 . S
O19 C18 1.245 . S
O20 Mg13 2.141 . S
O20 C18 1.289 . S
O21 Mg13 2.048 . S
O21 C14 1.195 . S
O22 Mg13 2.048 . S
O22 C23 1.195 . S
C23 O22 1.195 . S
C23 O24 1.313 . S
O24 C23 1.313 . S
O25 Mg13 2.141 . S
O25 C16 1.289 . S
Mg26 O33 2.141 . S
Mg26 O34 2.048 . S
Mg26 O35 2.048 . S
Mg26 O38 2.141 . S
C27 O28 1.313 . S
C27 O34 1.195 . S
O28 C27 1.313 . S
C29 O30 1.245 . S
C29 O38 1.289 . S
O30 C29 1.245 . S
C31 O32 1.245 . S
C31 O33 1.289 . S
O32 C31 1.245 . S
O33 Mg26 2.141 . S
O33 C31 1.289 . S
O34 Mg26 2.048 . S
O34 C27 1.195 . S
O35 Mg26 2.048 . S
O35 C36 1.195 . S
C36 O35 1.195 . S
C36 O37 1.313 . S
O37 C36 1.313 . S
O38 Mg26 2.141 . S
O38 C29 1.289 . S
Mg39 O46 2.141 . S
Mg39 O47 2.048 . S
Mg39 O48 2.048 . S
Mg39 O51 2.141 . S
C40 O41 1.313 . S
C40 O47 1.195 . S
O41 C40 1.313 . S
C42 O43 1.245 . S
C42 O51 1.289 . S
O43 C42 1.245 . S
C44 O45 1.245 . S
C44 O46 1.289 . S
O45 C44 1.245 . S
O46 Mg39 2.141 . S
O46 C44 1.289 . S
O47 Mg39 2.048 . S
O47 C40 1.195 . S
O48 Mg39 2.048 . S
O48 C49 1.195 . S
C49 O48 1.195 . S
C49 O50 1.313 . S
O50 C49 1.313 . S
O51 Mg39 2.141 . S
O51 C42 1.289 . S
Mg52 O59 2.141 . S
Mg52 O60 2.048 . S
Mg52 O61 2.048 . S
Mg52 O64 2.141 . S
C53 O54 1.313 . S
C53 O60 1.195 . S
O54 C53 1.313 . S
C55 O56 1.245 . S
C55 O64 1.289 . S
O56 C55 1.245 . S
C57 O58 1.245 . S
C57 O59 1.289 . S
O58 C57 1.245 . S
O59 Mg52 2.141 . S
O59 C57 1.289 . S
O60 Mg52 2.048 . S
O60 C53 1.195 . S
O61 Mg52 2.048 . S
O61 C62 1.195 . S
C62 O61 1.195 . S
C62 O63 1.313 . S
O63 C62 1.313 . S
O64 Mg52 2.141 . S
O64 C55 1.289 . S
Mg65 O72 2.141 . S
Mg65 O73 2.048 . S
Mg65 O74 2.048 . S
Mg65 O77 2.141 . S
C66 O67 1.313 . S
C66 O73 1.195 . S
O67 C66 1.313 . S
C68 O69 1.245 . S
C68 O77 1.289 . S
O69 C68 1.245 . S
C70 O71 1.245 . S
C70 O72 1.289 . S
O71 C70 1.245 . S
O72 Mg65 2.141 . S
O72 C70 1.289 . S
O73 Mg65 2.048 . S
O73 C66 1.195 . S
O74 Mg65 2.048 . S
O74 C75 1.195 . S
C75 O74 1.195 . S
C75 O76 1.313 . S
O76 C75 1.313 . S
O77 Mg65 2.141 . S
O77 C68 1.289 . S
Mg78 O85 2.141 . S
Mg78 O86 2.048 . S
Mg78 O87 2.048 . S
Mg78 O90 2.141 . S
C79 O80 1.313 . S
C79 O86 1.195 . S
O80 C79 1.313 . S
C81 O82 1.245 . S
C81 O90 1.289 . S
O82 C81 1.245 . S
C83 O84 1.245 . S
C83 O85 1.289 . S
O84 C83 1.245 . S
O85 Mg78 2.141 . S
O85 C83 1.289 . S
O86 Mg78 2.048 . S
O86 C79 1.195 . S
O87 Mg78 2.048 . S
O87 C88 1.195 . S
C88 O87 1.195 . S
C88 O89 1.313 . S
O89 C88 1.313 . S
O90 Mg78 2.141 . S
O90 C81 1.289 . S
Mg91 O98 2.141 . S
Mg91 O99 2.048 . S
Mg91 O100 2.048 . S
Mg91 O103 2.141 . S
C92 O93 1.313 . S
C92 O99 1.195 . S
O93 C92 1.313 . S
C94 O95 1.245 . S
C94 O103 1.289 . S
O95 C94 1.245 . S
C96 O97 1.245 . S
C96 O98 1.289 . S
O97 C96 1.245 . S
O98 Mg91 2.141 . S
O98 C96 1.289 . S
O99 Mg91 2.048 . S
O99 C92 1.195 . S
O100 Mg91 2.048 . S
O100 C101 1.195 . S
C101 O100 1.195 . S
C101 O102 1.313 . S
O102 C101 1.313 . S
O103 Mg91 2.141 . S
O103 C94 1.289 . S
Mg104 O111 2.141 . S
Mg104 O112 2.048 . S
Mg104 O113 2.048 . S
Mg104 O116 2.141 . S
C105 O106 1.313 . S
C105 O112 1.195 . S
O106 C105 1.313 . S
C107 O108 1.245 . S
C107 O116 1.289 . S
O108 C107 1.245 . S
C109 O110 1.245 . S
C109 O111 1.289 . S
O110 C109 1.245 . S
O111 Mg104 2.141 . S
O111 C109 1.289 . S
O112 Mg104 2.048 . S
O112 C105 1.195 . S
O113 Mg104 2.048 . S
O113 C114 1.195 . S
C114 O113 1.195 . S
C114 O115 1.313 . S
O115 C114 1.313 . S
O116 Mg104 2.141 . S
O116 C107 1.289 . S
Mg117 O124 2.141 . S
Mg117 O125 2.048 . S
Mg117 O126 2.048 . S
Mg117 O129 2.141 . S
C118 O119 1.313 . S
C118 O125 1.195 . S
O119 C118 1.313 . S
C120 O121 1.245 . S
C120 O129 1.289 . S
O121 C120 1.245 . S
C122 O123 1.245 . S
C122 O124 1.289 . S
O123 C122 1.245 . S
O124 Mg117 2.141 . S
O124 C122 1.289 . S
O125 Mg117 2.048 . S
O125 C118 1.195 . S
O126 Mg117 2.048 . S
O126 C127 1.195 . S
C127 O126 1.195 . S
C127 O128 1.313 . S
O128 C127 1.313 . S
O129 Mg117 2.141 . S
O129 C120 1.289 . S
Mg130 O137 2.141 . S
Mg130 O138 2.048 . S
Mg130 O139 2.048 . S
Mg130 O142 2.141 . S
C131 O132 1.313 . S
C131 O138 1.195 . S
O132 C131 1.313 . S
C133 O134 1.245 . S
C133 O142 1.289 . S
O134 C133 1.245 . S
C135 O136 1.245 . S
C135 O137 1.289 . S
O136 C135 1.245 . S
O137 Mg130 2.141 . S
O137 C135 1.289 . S
O138 Mg130 2.048 . S
O138 C131 1.195 . S
O139 Mg130 2.048 . S
O139 C140 1.195 . S
C140 O139 1.195 . S
C140 O141 1.313 . S
O141 C140 1.313 . S
O142 Mg130 2.141 . S
O142 C133 1.289 . S
Mg143 O150 2.141 . S
Mg143 O151 2.048 . S
Mg143 O152 2.048 . S
Mg143 O155 2.141 . S
C144 O145 1.313 . S
C144 O151 1.195 . S
O145 C144 1.313 . S
C146 O147 1.245 . S
C146 O155 1.289 . S
O147 C146 1.245 . S
C148 O149 1.245 . S
C148 O150 1.289 . S
O149 C148 1.245 . S
O150 Mg143 2.141 . S
O150 C148 1.289 . S
O151 Mg143 2.048 . S
O151 C144 1.195 . S
O152 Mg143 2.048 . S
O152 C153 1.195 . S
C153 O152 1.195 . S
C153 O154 1.313 . S
O154 C153 1.313 . S
O155 Mg143 2.141 . S
O155 C146 1.289 . S
C156 C157 1.369 . S
C156 C158 1.419 1_556 S
C156 H160 0.930 . S
C157 C156 1.369 . S
C157 C166 1.429 . S
C158 C156 1.419 1_554 S
C158 C159 1.363 . S
C158 H161 0.929 . S
C159 C158 1.363 . S
C159 C165 1.428 . S
H160 C156 0.930 . S
H161 C158 0.929 . S
S162 N163 1.601 1_554 S
S162 N164 1.622 . S
N163 S162 1.601 1_556 S
N163 C166 1.350 . S
N164 S162 1.622 . S
N164 C165 1.351 . S
C165 C159 1.428 . S
C165 N164 1.351 . S
C165 C166 1.434 1_554 S
C166 C157 1.429 . S
C166 N163 1.350 . S
C166 C165 1.434 1_556 S
C167 C168 1.369 . S
C167 C169 1.419 . S
C167 H171 0.930 . S
C168 C167 1.369 . S
C168 C177 1.429 . S
C169 C167 1.419 . S
C169 C170 1.363 . S
C169 H172 0.929 . S
C170 C169 1.363 . S
C170 C176 1.428 . S
H171 C167 0.930 . S
H172 C169 0.929 . S
S173 N174 1.613 . S
S173 N175 1.610 . S
N174 S173 1.613 . S
N174 C177 1.350 . S
N175 S173 1.610 . S
N175 C176 1.351 . S
C176 C170 1.428 . S
C176 N175 1.351 . S
C176 C177 1.434 . S
C177 C168 1.429 . S
C177 N174 1.350 . S
C177 C176 1.434 . S
C178 C179 1.369 . S
C178 C180 1.419 . S
C178 H182 0.930 . S
C179 C178 1.369 . S
C179 C188 1.429 . S
C180 C178 1.419 . S
C180 C181 1.363 . S
C180 H183 0.929 . S
C181 C180 1.363 . S
C181 C187 1.428 . S
H182 C178 0.930 . S
H183 C180 0.929 . S
S184 N185 1.613 . S
S184 N186 1.610 . S
N185 S184 1.613 . S
N185 C188 1.350 . S
N186 S184 1.610 . S
N186 C187 1.351 . S
C187 C181 1.428 . S
C187 N186 1.351 . S
C187 C188 1.434 . S
C188 C179 1.429 . S
C188 N185 1.350 . S
C188 C187 1.434 . S
C189 C190 1.369 . S
C189 C191 1.419 1_554 S
C189 H193 0.930 . S
C190 C189 1.369 . S
C190 C199 1.429 . S
C191 C189 1.419 1_556 S
C191 C192 1.363 . S
C191 H194 0.929 . S
C192 C191 1.363 . S
C192 C198 1.428 . S
H193 C189 0.930 . S
H194 C191 0.929 . S
S195 N196 1.613 . S
S195 N197 1.610 1_554 S
N196 S195 1.613 . S
N196 C199 1.350 . S
N197 S195 1.610 1_556 S
N197 C198 1.351 . S
C198 C192 1.428 . S
C198 N197 1.351 . S
C198 C199 1.434 1_556 S
C199 C190 1.429 . S
C199 N196 1.350 . S
C199 C198 1.434 1_554 S
C200 C201 1.369 . S
C200 C202 1.419 . S
C200 H204 0.930 . S
C201 C200 1.369 . S
C201 C210 1.429 . S
C202 C200 1.419 . S
C202 C203 1.363 . S
C202 H205 0.929 . S
C203 C202 1.363 . S
C203 C209 1.428 . S
H204 C200 0.930 . S
H205 C202 0.929 . S
S206 N207 1.613 . S
S206 N208 1.610 . S
N207 S206 1.613 . S
N207 C210 1.350 . S
N208 S206 1.610 . S
N208 C209 1.351 . S
C209 C203 1.428 . S
C209 N208 1.351 . S
C209 C210 1.434 . S
C210 C201 1.429 . S
C210 N207 1.350 . S
C210 C209 1.434 . S
C211 C212 1.369 . S
C211 C213 1.419 . S
C211 H215 0.930 . S
C212 C211 1.369 . S
C212 C221 1.429 . S
C213 C211 1.419 . S
C213 C214 1.363 . S
C213 H216 0.929 . S
C214 C213 1.363 . S
C214 C220 1.428 . S
H215 C211 0.930 . S
H216 C213 0.929 . S
S217 N218 1.613 . S
S217 N219 1.610 . S
N218 S217 1.613 . S
N218 C221 1.350 . S
N219 S217 1.610 . S
N219 C220 1.351 . S
C220 C214 1.428 . S
C220 N219 1.351 . S
C220 C221 1.434 . S
C221 C212 1.429 . S
C221 N218 1.350 . S
C221 C220 1.434 . S
C222 C223 1.369 . S
C222 C224 1.419 . S
C222 H226 0.930 . S
C223 C222 1.369 . S
C223 C232 1.429 . S
C224 C222 1.419 . S
C224 C225 1.363 . S
C224 H227 0.929 . S
C225 C224 1.363 . S
C225 C231 1.428 . S
H226 C222 0.930 . S
H227 C224 0.929 . S
S228 N229 1.613 . S
S228 N230 1.610 . S
N229 S228 1.613 . S
N229 C232 1.350 . S
N230 S228 1.610 . S
N230 C231 1.351 . S
C231 C225 1.428 . S
C231 N230 1.351 . S
C231 C232 1.434 . S
C232 C223 1.429 . S
C232 N229 1.350 . S
C232 C231 1.434 . S
C233 C234 1.369 . S
C233 C235 1.419 . S
C233 H237 0.930 . S
C234 C233 1.369 . S
C234 C243 1.429 . S
C235 C233 1.419 . S
C235 C236 1.363 . S
C235 H238 0.929 . S
C236 C235 1.363 . S
C236 C242 1.428 . S
H237 C233 0.930 . S
H238 C235 0.929 . S
S239 N240 1.613 . S
S239 N241 1.610 . S
N240 S239 1.613 . S
N240 C243 1.350 . S
N241 S239 1.610 . S
N241 C242 1.351 . S
C242 C236 1.428 . S
C242 N241 1.351 . S
C242 C243 1.434 . S
C243 C234 1.429 . S
C243 N240 1.350 . S
C243 C242 1.434 . S
C244 C245 1.369 . S
C244 C246 1.419 . S
C244 H248 0.930 . S
C245 C244 1.369 . S
C245 C254 1.429 . S
C246 C244 1.419 . S
C246 C247 1.363 . S
C246 H249 0.929 . S
C247 C246 1.363 . S
C247 C253 1.428 . S
H248 C244 0.930 . S
H249 C246 0.929 . S
S250 N251 1.613 . S
S250 N252 1.610 . S
N251 S250 1.613 . S
N251 C254 1.350 . S
N252 S250 1.610 . S
N252 C253 1.351 . S
C253 C247 1.428 . S
C253 N252 1.351 . S
C253 C254 1.434 . S
C254 C245 1.429 . S
C254 N251 1.350 . S
C254 C253 1.434 . S
C255 C256 1.369 . S
C255 C257 1.419 . S
C255 H259 0.930 . S
C256 C255 1.369 . S
C256 C265 1.429 . S
C257 C255 1.419 . S
C257 C258 1.363 . S
C257 H260 0.929 . S
C258 C257 1.363 . S
C258 C264 1.428 . S
H259 C255 0.930 . S
H260 C257 0.929 . S
S261 N262 1.613 . S
S261 N263 1.610 . S
N262 S261 1.613 . S
N262 C265 1.350 . S
N263 S261 1.610 . S
N263 C264 1.351 . S
C264 C258 1.428 . S
C264 N263 1.351 . S
C264 C265 1.434 . S
C265 C256 1.429 . S
C265 N262 1.350 . S
C265 C264 1.434 . S
C266 C267 1.369 . S
C266 C268 1.419 . S
C266 H270 0.930 . S
C267 C266 1.369 . S
C267 C276 1.429 . S
C268 C266 1.419 . S
C268 C269 1.363 . S
C268 H271 0.929 . S
C269 C268 1.363 . S
C269 C275 1.428 . S
H270 C266 0.930 . S
H271 C268 0.929 . S
S272 N273 1.613 . S
S272 N274 1.610 . S
N273 S272 1.613 . S
N273 C276 1.350 . S
N274 S272 1.610 . S
N274 C275 1.351 . S
C275 C269 1.428 . S
C275 N274 1.351 . S
C275 C276 1.434 . S
C276 C267 1.429 . S
C276 N273 1.350 . S
C276 C275 1.434 . S
C277 C278 1.369 . S
C277 C279 1.419 . S
C277 H281 0.930 . S
C278 C277 1.369 . S
C278 C287 1.429 . S
C279 C277 1.419 . S
C279 C280 1.363 . S
C279 H282 0.929 . S
C280 C279 1.363 . S
C280 C286 1.428 . S
H281 C277 0.930 . S
H282 C279 0.929 . S
S283 N284 1.613 . S
S283 N285 1.610 . S
N284 S283 1.613 . S
N284 C287 1.350 . S
N285 S283 1.610 . S
N285 C286 1.351 . S
C286 C280 1.428 . S
C286 N285 1.351 . S
C286 C287 1.434 . S
C287 C278 1.429 . S
C287 N284 1.350 . S
C287 C286 1.434 . S
C288 C289 1.369 . S
C288 C290 1.419 1_655 S
C288 H292 0.930 . S
C289 C288 1.369 . S
C289 C298 1.429 . S
C290 C288 1.419 1_455 S
C290 C291 1.363 . S
C290 H293 0.929 . S
C291 C290 1.363 . S
C291 C297 1.428 . S
H292 C288 0.930 . S
H293 C290 0.929 . S
S294 N295 1.613 . S
S294 N296 1.610 1_655 S
N295 S294 1.613 . S
N295 C298 1.350 . S
N296 S294 1.610 1_455 S
N296 C297 1.351 . S
C297 C291 1.428 . S
C297 N296 1.351 . S
C297 C298 1.434 1_455 S
C298 C289 1.429 . S
C298 N295 1.350 . S
C298 C297 1.434 1_655 S
C299 C300 1.369 . S
C299 C301 1.419 1_545 S
C299 H303 0.930 . S
C300 C299 1.369 . S
C300 C309 1.429 . S
C301 C299 1.419 1_565 S
C301 C302 1.363 . S
C301 H304 0.929 . S
C302 C301 1.363 . S
C302 C308 1.428 . S
H303 C299 0.930 . S
H304 C301 0.929 . S
S305 N306 1.613 . S
S305 N307 1.610 1_545 S
N306 S305 1.613 . S
N306 C309 1.350 . S
N307 S305 1.610 1_565 S
N307 C308 1.351 . S
C308 C302 1.428 . S
C308 N307 1.351 . S
C308 C309 1.434 1_565 S
C309 C300 1.429 . S
C309 N306 1.350 . S
C309 C308 1.434 1_545 S
C310 C311 1.369 . S
C310 C312 1.419 . S
C310 H314 0.930 . S
C311 C310 1.369 . S
C311 C320 1.429 . S
C312 C310 1.419 . S
C312 C313 1.363 . S
C312 H315 0.929 . S
C313 C312 1.363 . S
C313 C319 1.428 . S
H314 C310 0.930 . S
H315 C312 0.929 . S
S316 N317 1.613 . S
S316 N318 1.610 . S
N317 S316 1.613 . S
N317 C320 1.350 . S
N318 S316 1.610 . S
N318 C319 1.351 . S
C319 C313 1.428 . S
C319 N318 1.351 . S
C319 C320 1.434 . S
C320 C311 1.429 . S
C320 N317 1.350 . S
C320 C319 1.434 . S
C321 C322 1.369 . S
C321 C323 1.419 1_545 S
C321 H325 0.930 . S
C322 C321 1.369 . S
C322 C331 1.429 . S
C323 C321 1.419 1_565 S
C323 C324 1.363 . S
C323 H326 0.929 . S
C324 C323 1.363 . S
C324 C330 1.428 . S
H325 C321 0.930 . S
H326 C323 0.929 . S
S327 N328 1.613 . S
S327 N329 1.610 1_545 S
N328 S327 1.613 . S
N328 C331 1.350 . S
N329 S327 1.610 1_565 S
N329 C330 1.351 . S
C330 C324 1.428 . S
C330 N329 1.351 . S
C330 C331 1.434 1_565 S
C331 C322 1.429 . S
C331 N328 1.350 . S
C331 C330 1.434 1_545 S
C332 C333 1.369 . S
C332 C334 1.419 . S
C332 H336 0.930 . S
C333 C332 1.369 . S
C333 C342 1.429 . S
C334 C332 1.419 . S
C334 C335 1.363 . S
C334 H337 0.929 . S
C335 C334 1.363 . S
C335 C341 1.428 . S
H336 C332 0.930 . S
H337 C334 0.929 . S
S338 N339 1.613 . S
S338 N340 1.610 . S
N339 S338 1.613 . S
N339 C342 1.350 . S
N340 S338 1.610 . S
N340 C341 1.351 . S
C341 C335 1.428 . S
C341 N340 1.351 . S
C341 C342 1.434 . S
C342 C333 1.429 . S
C342 N339 1.350 . S
C342 C341 1.434 . S
C343 C344 1.369 . S
C343 C345 1.419 1_455 S
C343 H347 0.930 . S
C344 C343 1.369 . S
C344 C353 1.429 . S
C345 C343 1.419 1_655 S
C345 C346 1.363 . S
C345 H348 0.929 . S
C346 C345 1.363 . S
C346 C352 1.428 . S
H347 C343 0.930 . S
H348 C345 0.929 . S
S349 N350 1.613 1_655 S
S349 N351 1.610 . S
N350 S349 1.613 1_455 S
N350 C353 1.350 . S
N351 S349 1.610 . S
N351 C352 1.351 . S
C352 C346 1.428 . S
C352 N351 1.351 . S
C352 C353 1.434 1_655 S
C353 C344 1.429 . S
C353 N350 1.350 . S
C353 C352 1.434 1_455 S
C354 C355 1.369 . S
C354 C356 1.419 . S
C354 H358 0.930 . S
C355 C354 1.369 . S
C355 C364 1.429 . S
C356 C354 1.419 . S
C356 C357 1.363 . S
C356 H359 0.929 . S
C357 C356 1.363 . S
C357 C363 1.428 . S
H358 C354 0.930 . S
H359 C356 0.929 . S
S360 N361 1.613 . S
S360 N362 1.610 . S
N361 S360 1.613 . S
N361 C364 1.350 . S
N362 S360 1.610 . S
N362 C363 1.351 . S
C363 C357 1.428 . S
C363 N362 1.351 . S
C363 C364 1.434 . S
C364 C355 1.429 . S
C364 N361 1.350 . S
C364 C363 1.434 . S
C365 C366 1.369 . S
C365 C367 1.419 1_655 S
C365 H369 0.930 . S
C366 C365 1.369 . S
C366 C375 1.429 . S
C367 C365 1.419 1_455 S
C367 C368 1.363 . S
C367 H370 0.929 . S
C368 C367 1.363 . S
C368 C374 1.428 . S
H369 C365 0.930 . S
H370 C367 0.929 . S
S371 N372 1.613 . S
S371 N373 1.610 1_655 S
N372 S371 1.613 . S
N372 C375 1.350 . S
N373 S371 1.610 1_455 S
N373 C374 1.351 . S
C374 C368 1.428 . S
C374 N373 1.351 . S
C374 C375 1.434 1_455 S
C375 C366 1.429 . S
C375 N372 1.350 . S
C375 C374 1.434 1_655 S
C376 C377 1.369 . S
C376 C378 1.419 1_545 S
C376 H380 0.930 . S
C377 C376 1.369 . S
C377 C386 1.429 . S
C378 C376 1.419 1_565 S
C378 C379 1.363 . S
C378 H381 0.929 . S
C379 C378 1.363 . S
C379 C385 1.428 . S
H380 C376 0.930 . S
H381 C378 0.929 . S
S382 N383 1.613 . S
S382 N384 1.610 1_545 S
N383 S382 1.613 . S
N383 C386 1.350 . S
N384 S382 1.610 1_565 S
N384 C385 1.351 . S
C385 C379 1.428 . S
C385 N384 1.351 . S
C385 C386 1.434 1_565 S
C386 C377 1.429 . S
C386 N383 1.350 . S
C386 C385 1.434 1_545 S
C387 C388 1.369 . S
C387 C389 1.419 . S
C387 H391 0.930 . S
C388 C387 1.369 . S
C388 C397 1.429 . S
C389 C387 1.419 . S
C389 C390 1.363 . S
C389 H392 0.929 . S
C390 C389 1.363 . S
C390 C396 1.428 . S
H391 C387 0.930 . S
H392 C389 0.929 . S
S393 N394 1.613 . S
S393 N395 1.610 . S
N394 S393 1.613 . S
N394 C397 1.350 . S
N395 S393 1.610 . S
N395 C396 1.351 . S
C396 C390 1.428 . S
C396 N395 1.351 . S
C396 C397 1.434 . S
C397 C388 1.429 . S
C397 N394 1.350 . S
C397 C396 1.434 . S
C398 C399 1.369 . S
C398 C400 1.419 1_455 S
C398 H402 0.930 . S
C399 C398 1.369 . S
C399 C408 1.429 . S
C400 C398 1.419 1_655 S
C400 C401 1.363 . S
C400 H403 0.929 . S
C401 C400 1.363 . S
C401 C407 1.428 . S
H402 C398 0.930 . S
H403 C400 0.929 . S
S404 N405 1.613 1_655 S
S404 N406 1.610 . S
N405 S404 1.613 1_455 S
N405 C408 1.350 . S
N406 S404 1.610 . S
N406 C407 1.351 . S
C407 C401 1.428 . S
C407 N406 1.351 . S
C407 C408 1.434 1_655 S
C408 C399 1.429 . S
C408 N405 1.350 . S
C408 C407 1.434 1_455 S
C409 C410 1.369 . S
C409 C411 1.419 1_565 S
C409 H413 0.930 . S
C410 C409 1.369 . S
C410 C419 1.429 . S
C411 C409 1.419 1_545 S
C411 C412 1.363 . S
C411 H414 0.929 . S
C412 C411 1.363 . S
C412 C418 1.428 . S
H413 C409 0.930 . S
H414 C411 0.929 . S
S415 N416 1.605 1_545 S
S415 N417 1.619 . S
N416 S415 1.605 1_565 S
N416 C419 1.350 . S
N417 S415 1.619 . S
N417 C418 1.351 . S
C418 C412 1.428 . S
C418 N417 1.351 . S
C418 C419 1.434 1_545 S
C419 C410 1.429 . S
C419 N416 1.350 . S
C419 C418 1.434 1_565 S
C157 C131 1.535 . S
C159 C1 1.535 . S
C168 C14 1.538 . S
C170 C144 1.536 . S
C179 C27 1.539 . S
C181 C79 1.537 . S
C190 C40 1.540 . S
C192 C92 1.539 . S
C201 C105 1.535 . S
C203 C53 1.537 . S
C212 C66 1.534 . S
C214 C118 1.536 . S
C223 C107 1.551 . S
C225 C3 1.558 . S
C234 C16 1.556 . S
C236 C120 1.556 . S
C245 C29 1.554 . S
C247 C133 1.557 . S
C256 C42 1.556 . S
C258 C146 1.552 . S
C267 C81 1.557 . S
C269 C55 1.555 . S
C278 C94 1.558 . S
C280 C68 1.553 . S
C289 C49 1.794 . S
C291 C10 1.796 . S
C300 C23 1.793 . S
C302 C62 1.797 . S
C311 C75 1.794 . S
C313 C36 1.796 . S
C322 C127 1.793 . S
C324 C88 1.798 . S
C333 C140 1.792 . S
C335 C101 1.798 . S
C344 C114 1.798 . S
C346 C153 1.793 . S
C355 C44 1.859 . S
C357 C5 1.863 . S
C366 C18 1.861 . S
C368 C57 1.862 . S
C377 C70 1.861 . S
C379 C31 1.862 . S
C388 C83 1.864 . S
C390 C122 1.859 . S
C399 C135 1.862 . S
C401 C96 1.861 . S
C410 C109 1.860 . S
C412 C148 1.862 . S
