# Generated by pormake.
# Topology uob, (4)-cn, num edge types: 1
# Building blocks:
#     Node 0, Type 0, BuildingBlock: QUQFOY_clean_sbu_3, # of connection points: 4
#     Node 1, Type 0, BuildingBlock: QUQFOY_clean_sbu_3, # of connection points: 4
#     Node 2, Type 0, BuildingBlock: QUQFOY_clean_sbu_3, # of connection points: 4
#     Node 3, Type 0, BuildingBlock: QUQFOY_clean_sbu_3, # of connection points: 4
#     Node 4, Type 0, BuildingBlock: QUQFOY_clean_sbu_3, # of connection points: 4
#     Node 5, Type 0, BuildingBlock: QUQFOY_clean_sbu_3, # of connection points: 4
#     Node 6, Type 0, BuildingBlock: QUQFOY_clean_sbu_3, # of connection points: 4
#     Node 7, Type 0, BuildingBlock: QUQFOY_clean_sbu_3, # of connection points: 4
#     Node 8, Type 0, BuildingBlock: QUQFOY_clean_sbu_3, # of connection points: 4
#     Node 9, Type 0, BuildingBlock: QUQFOY_clean_sbu_3, # of connection points: 4
#     Node 10, Type 0, BuildingBlock: QUQFOY_clean_sbu_3, # of connection points: 4
#     Node 11, Type 0, BuildingBlock: QUQFOY_clean_sbu_3, # of connection points: 4
#     Node 12, Type 0, BuildingBlock: QUQFOY_clean_sbu_3, # of connection points: 4
#     Node 13, Type 0, BuildingBlock: QUQFOY_clean_sbu_3, # of connection points: 4
#     Node 14, Type 0, BuildingBlock: QUQFOY_clean_sbu_3, # of connection points: 4
#     Node 15, Type 0, BuildingBlock: QUQFOY_clean_sbu_3, # of connection points: 4
#     Edge 16, Type (0, 0), BuildingBlock: MIFKUJ_clean_linker_0, # of connection points: 2
#     Edge 17, Type (0, 0), BuildingBlock: MIFKUJ_clean_linker_0, # of connection points: 2
#     Edge 18, Type (0, 0), BuildingBlock: MIFKUJ_clean_linker_0, # of connection points: 2
#     Edge 19, Type (0, 0), BuildingBlock: MIFKUJ_clean_linker_0, # of connection points: 2
#     Edge 20, Type (0, 0), BuildingBlock: MIFKUJ_clean_linker_0, # of connection points: 2
#     Edge 21, Type (0, 0), BuildingBlock: MIFKUJ_clean_linker_0, # of connection points: 2
#     Edge 22, Type (0, 0), BuildingBlock: MIFKUJ_clean_linker_0, # of connection points: 2
#     Edge 23, Type (0, 0), BuildingBlock: MIFKUJ_clean_linker_0, # of connection points: 2
#     Edge 24, Type (0, 0), BuildingBlock: MIFKUJ_clean_linker_0, # of connection points: 2
#     Edge 25, Type (0, 0), BuildingBlock: MIFKUJ_clean_linker_0, # of connection points: 2
#     Edge 26, Type (0, 0), BuildingBlock: MIFKUJ_clean_linker_0, # of connection points: 2
#     Edge 27, Type (0, 0), BuildingBlock: MIFKUJ_clean_linker_0, # of connection points: 2
#     Edge 28, Type (0, 0), BuildingBlock: MIFKUJ_clean_linker_0, # of connection points: 2
#     Edge 29, Type (0, 0), BuildingBlock: MIFKUJ_clean_linker_0, # of connection points: 2
#     Edge 30, Type (0, 0), BuildingBlock: MIFKUJ_clean_linker_0, # of connection points: 2
#     Edge 31, Type (0, 0), BuildingBlock: MIFKUJ_clean_linker_0, # of connection points: 2
#     Edge 32, Type (0, 0), BuildingBlock: MIFKUJ_clean_linker_0, # of connection points: 2
#     Edge 33, Type (0, 0), BuildingBlock: MIFKUJ_clean_linker_0, # of connection points: 2
#     Edge 34, Type (0, 0), BuildingBlock: MIFKUJ_clean_linker_0, # of connection points: 2
#     Edge 35, Type (0, 0), BuildingBlock: MIFKUJ_clean_linker_0, # of connection points: 2
#     Edge 36, Type (0, 0), BuildingBlock: MIFKUJ_clean_linker_0, # of connection points: 2
#     Edge 37, Type (0, 0), BuildingBlock: MIFKUJ_clean_linker_0, # of connection points: 2
#     Edge 38, Type (0, 0), BuildingBlock: MIFKUJ_clean_linker_0, # of connection points: 2
#     Edge 39, Type (0, 0), BuildingBlock: MIFKUJ_clean_linker_0, # of connection points: 2
#     Edge 40, Type (0, 0), BuildingBlock: MIFKUJ_clean_linker_0, # of connection points: 2
#     Edge 41, Type (0, 0), BuildingBlock: MIFKUJ_clean_linker_0, # of connection points: 2
#     Edge 42, Type (0, 0), BuildingBlock: MIFKUJ_clean_linker_0, # of connection points: 2
#     Edge 43, Type (0, 0), BuildingBlock: MIFKUJ_clean_linker_0, # of connection points: 2
#     Edge 44, Type (0, 0), BuildingBlock: MIFKUJ_clean_linker_0, # of connection points: 2
#     Edge 45, Type (0, 0), BuildingBlock: MIFKUJ_clean_linker_0, # of connection points: 2
#     Edge 46, Type (0, 0), BuildingBlock: MIFKUJ_clean_linker_0, # of connection points: 2
#     Edge 47, Type (0, 0), BuildingBlock: MIFKUJ_clean_linker_0, # of connection points: 2
# Relax obj value: 0.172
# Max RMSD: 0.203
# Mean RMSD: 0.203
data_MOF--net-uob--node1-QUQFOY_clean_sbu_3--edge1-MIFKUJ_clean_linker_0
_symmetry_space_group_name_H-M    P1
_symmetry_Int_Tables_number       1
_symmetry_cell_setting            triclinic
loop_
_symmetry_equiv_pos_as_xyz
'x, y, z'
_cell_length_a     70.644795
_cell_length_b     70.706364
_cell_length_c     35.325946
_cell_angle_alpha  89.817573
_cell_angle_beta   90.114633
_cell_angle_gamma 89.986626
loop_
_atom_site_label
_atom_site_type_symbol
_atom_site_fract_x
_atom_site_fract_y
_atom_site_fract_z
_atom_type_partial_charge
C0 C 0.12509 0.08412 0.20362 0.0
O1 O 0.11707 0.09544 0.22633 0.0
Cd2 Cd 0.11349 0.0924 0.29233 0.0
O3 O 0.13295 0.06894 0.21563 0.0
Cd4 Cd 0.13673 0.05406 0.27998 0.0
C5 C 0.08911 0.05025 0.28963 0.0
O6 O 0.14401 0.08318 0.31302 0.0
O7 O 0.13616 0.05961 0.34818 0.0
O8 O 0.16944 0.04476 0.26885 0.0
C9 C 0.14295 0.07614 0.34585 0.0
O10 O 0.0895 0.06784 0.29721 0.0
C11 C 0.16808 0.02878 0.28515 0.0
O12 O 0.1042 0.04149 0.28042 0.0
O13 O 0.15151 0.02347 0.29418 0.0
C14 C 0.91737 0.61915 0.47214 0.0
O15 O 0.90826 0.61049 0.49781 0.0
Cd16 Cd 0.91801 0.60534 0.56081 0.0
O17 O 0.93324 0.62706 0.47948 0.0
Cd18 Cd 0.95334 0.63125 0.53809 0.0
C19 C 0.96093 0.58397 0.54152 0.0
O20 O 0.92741 0.63563 0.58185 0.0
O21 O 0.95439 0.62974 0.60754 0.0
O22 O 0.95782 0.66474 0.52434 0.0
C23 C 0.93732 0.63478 0.6116 0.0
O24 O 0.94396 0.58314 0.5535 0.0
C25 C 0.97501 0.66531 0.53483 0.0
O26 O 0.96835 0.59977 0.53227 0.0
O27 O 0.98288 0.64952 0.5419 0.0
C28 C 0.36766 0.41453 0.70779 0.0
O29 O 0.37494 0.40339 0.73199 0.0
Cd30 Cd 0.38179 0.41066 0.79544 0.0
O31 O 0.36179 0.43094 0.71747 0.0
Cd32 Cd 0.35871 0.44895 0.77872 0.0
C33 C 0.4063 0.45267 0.78037 0.0
O34 O 0.35278 0.42197 0.8195 0.0
O35 O 0.36194 0.4472 0.84777 0.0
O36 O 0.32575 0.45648 0.76362 0.0
C37 C 0.35562 0.43048 0.85037 0.0
O38 O 0.40583 0.43523 0.78953 0.0
C39 C 0.32608 0.4729 0.77804 0.0
O40 O 0.39109 0.46179 0.77343 0.0
O41 O 0.34212 0.47901 0.78881 0.0
C42 C 0.58507 0.87592 0.96406 0.0
O43 O 0.59632 0.88306 -0.01182 0.0
Cd44 Cd 0.59303 0.88532 0.05457 0.0
O45 O 0.56972 0.86784 0.97451 0.0
Cd46 Cd 0.55404 0.86135 0.03732 0.0
C47 C 0.54999 0.90877 0.05305 0.0
O48 O 0.58266 0.85497 0.07254 0.0
O49 O 0.55799 0.85999 0.10621 0.0
O50 O 0.54639 0.82857 0.02276 0.0
C51 C 0.57531 0.85542 0.10507 0.0
O52 O 0.56766 0.90839 0.06034 0.0
C53 C 0.52962 0.82918 0.03562 0.0
O54 O 0.54129 0.89387 0.0423 0.0
O55 O 0.52339 0.84539 0.04483 0.0
C56 C 0.11637 0.42415 0.07536 0.0
O57 O 0.10716 0.41333 0.05343 0.0
Cd58 Cd 0.10428 0.41529 -0.0129 0.0
O59 O 0.12548 0.43839 0.06241 0.0
Cd60 Cd 0.12918 0.45209 -0.00314 0.0
C61 C 0.08179 0.45822 0.98524 0.0
O62 O 0.13562 0.42192 0.96693 0.0
O63 O 0.12907 0.44486 0.92905 0.0
O64 O 0.16217 0.46052 0.0084 0.0
C65 C 0.13545 0.42826 0.93348 0.0
O66 O 0.08138 0.44054 0.97863 0.0
C67 C 0.16153 0.47609 -0.00958 0.0
O68 O 0.09722 0.4663 -0.00525 0.0
O69 O 0.14525 0.48171 0.98 0.0
C70 C 0.58246 0.63107 0.34145 0.0
O71 O 0.59388 0.62174 0.32098 0.0
Cd72 Cd 0.59008 0.61208 0.25733 0.0
O73 O 0.56694 0.63751 0.32783 0.0
Cd74 Cd 0.55135 0.63821 0.26371 0.0
C75 C 0.54625 0.59027 0.26681 0.0
O76 O 0.58025 0.64008 0.22723 0.0
O77 O 0.55499 0.6344 0.19523 0.0
O78 O 0.54489 0.67194 0.26879 0.0
C79 C 0.57261 0.63765 0.19525 0.0
O80 O 0.56402 0.58962 0.26082 0.0
C81 C 0.52816 0.67111 0.2557 0.0
O82 O 0.53772 0.6061 0.27056 0.0
O83 O 0.52138 0.65468 0.25033 0.0
C84 C 0.37424 0.08354 0.57342 0.0
O85 O 0.38132 0.09476 0.54916 0.0
Cd86 Cd 0.38431 0.09014 0.48315 0.0
O87 O 0.36663 0.06795 0.56318 0.0
Cd88 Cd 0.36078 0.05168 0.50094 0.0
C89 C 0.40836 0.04763 0.48868 0.0
O90 O 0.35399 0.07991 0.4637 0.0
O91 O 0.35896 0.0545 0.43207 0.0
O92 O 0.32851 0.04297 0.51908 0.0
C93 C 0.35408 0.07172 0.43195 0.0
O94 O 0.40797 0.06519 0.48055 0.0
C95 C 0.32913 0.02667 0.50411 0.0
O96 O 0.39332 0.03891 0.49855 0.0
O97 O 0.34514 0.02119 0.49205 0.0
C98 C 0.91711 0.87362 0.8304 0.0
O99 O 0.90755 0.88322 0.80666 0.0
Cd100 Cd 0.91036 0.88577 0.74008 0.0
O101 O 0.93104 0.86339 0.81971 0.0
Cd102 Cd 0.94628 0.85788 0.75628 0.0
C103 C 0.95495 0.90484 0.74107 0.0
O104 O 0.91684 0.85453 0.72182 0.0
O105 O 0.94146 0.85785 0.68724 0.0
O106 O 0.95281 0.82431 0.76708 0.0
C107 C 0.92384 0.8547 0.689 0.0
O108 O 0.9377 0.90609 0.73083 0.0
C109 C 0.96948 0.82478 0.75366 0.0
O110 O 0.96159 0.88949 0.75489 0.0
O111 O 0.97614 0.84103 0.74595 0.0
C112 C 0.62072 0.58278 0.72372 0.0
O113 O 0.61332 0.59158 0.75123 0.0
Cd114 Cd 0.61268 0.58232 0.81565 0.0
O115 O 0.62962 0.56723 0.72902 0.0
Cd116 Cd 0.63694 0.54686 0.7857 0.0
C117 C 0.58995 0.53986 0.8003 0.0
O118 O 0.64373 0.57204 0.82985 0.0
O119 O 0.6382 0.54491 0.85492 0.0
O120 O 0.66961 0.54219 0.76645 0.0
C121 C 0.64362 0.56184 0.8593 0.0
O122 O 0.59014 0.55641 0.8144 0.0
C123 C 0.67033 0.52483 0.77566 0.0
O124 O 0.60486 0.53281 0.78557 0.0
O125 O 0.65471 0.51703 0.78438 0.0
C126 C 0.4188 0.11864 0.96367 0.0
O127 O 0.40807 0.11115 -0.01168 0.0
Cd128 Cd 0.41164 0.11101 0.05499 0.0
O129 O 0.43362 0.1278 0.97348 0.0
Cd130 Cd 0.44915 0.13572 0.03564 0.0
C131 C 0.4552 0.08896 0.05684 0.0
O132 O 0.42017 0.14247 0.06935 0.0
O133 O 0.44486 0.13924 0.10415 0.0
O134 O 0.45564 0.16814 0.01644 0.0
C135 C 0.42751 0.14361 0.10189 0.0
O136 O 0.43759 0.08895 0.06452 0.0
C137 C 0.47223 0.16871 0.03027 0.0
O138 O 0.46322 0.1038 0.04381 0.0
O139 O 0.47905 0.15312 0.04207 0.0
C140 C 0.87265 0.91467 0.21549 0.0
O141 O 0.88058 0.905 0.24137 0.0
Cd142 Cd 0.8857 0.91382 0.30496 0.0
O143 O 0.86528 0.93078 0.22281 0.0
Cd144 Cd 0.86103 0.9504 0.28175 0.0
C145 C 0.90849 0.95632 0.28736 0.0
O146 O 0.85586 0.92453 0.32586 0.0
O147 O 0.8629 0.9514 0.35062 0.0
O148 O 0.82769 0.95638 0.26901 0.0
C149 C 0.85732 0.93456 0.35532 0.0
O150 O 0.90871 0.93929 0.29927 0.0
C151 C 0.82798 0.9735 0.27981 0.0
O152 O 0.89301 0.96418 0.27721 0.0
O153 O 0.84419 0.98065 0.2861 0.0
C154 C 0.09815 0.3705 0.46275 0.0
O155 O 0.10925 0.37819 0.48643 0.0
Cd156 Cd 0.10344 0.38301 0.55154 0.0
O157 O 0.08245 0.36327 0.47346 0.0
Cd158 Cd 0.06595 0.35867 0.5358 0.0
C159 C 0.06052 0.40619 0.54201 0.0
O160 O 0.09398 0.35293 0.57413 0.0
O161 O 0.06877 0.36036 0.60466 0.0
O162 O 0.05853 0.32555 0.52349 0.0
C163 C 0.0857 0.35447 0.60565 0.0
O164 O 0.07798 0.40641 0.55114 0.0
C165 C 0.04161 0.32636 0.53545 0.0
O166 O 0.05235 0.39071 0.53323 0.0
O167 O 0.03532 0.34268 0.54359 0.0
C168 C 0.62328 0.91938 0.5742 0.0
O169 O 0.616 0.90868 0.54932 0.0
Cd170 Cd 0.61438 0.91323 0.48302 0.0
O171 O 0.63161 0.93474 0.56474 0.0
Cd172 Cd 0.63769 0.95117 0.50255 0.0
C173 C 0.5903 0.95548 0.48651 0.0
O174 O 0.64518 0.92301 0.46593 0.0
O175 O 0.6402 0.94839 0.43384 0.0
O176 O 0.66989 0.96047 0.52031 0.0
C177 C 0.64553 0.93131 0.4342 0.0
O178 O 0.59083 0.9381 0.47726 0.0
C179 C 0.6689 0.97671 0.50492 0.0
O180 O 0.60511 0.96384 0.49872 0.0
O181 O 0.65267 0.98195 0.49339 0.0
C182 C 0.0896 0.11813 0.8111 0.0
O183 O 0.09989 0.10971 0.78704 0.0
Cd184 Cd 0.09439 0.10686 0.72138 0.0
O185 O 0.07438 0.12653 0.80092 0.0
Cd186 Cd 0.0578 0.13148 0.73875 0.0
C187 C 0.05139 0.08428 0.72756 0.0
O188 O 0.08641 0.13815 0.70359 0.0
O189 O 0.06201 0.13175 0.66961 0.0
O190 O 0.0503 0.1642 0.75439 0.0
C191 C 0.07883 0.13793 0.67122 0.0
O192 O 0.06858 0.08407 0.71678 0.0
C193 C 0.03384 0.16405 0.73989 0.0
O194 O 0.04386 0.09946 0.73981 0.0
O195 O 0.02762 0.1481 0.72904 0.0
C196 C 0.8666 0.58852 0.08614 0.0
O197 O 0.87431 0.59987 0.06287 0.0
Cd198 Cd 0.87857 0.59763 -0.00344 0.0
O199 O 0.85896 0.57312 0.07485 0.0
Cd200 Cd 0.85442 0.55741 0.01158 0.0
C201 C 0.90236 0.55472 -0.00179 0.0
O202 O 0.84927 0.58605 0.97587 0.0
O203 O 0.85351 0.56111 0.94273 0.0
O204 O 0.82156 0.54873 0.02234 0.0
C205 C 0.85022 0.5787 0.94339 0.0
O206 O 0.90188 0.57245 -0.00834 0.0
C207 C 0.82319 0.53197 0.00987 0.0
O208 O 0.88742 0.54572 0.00789 0.0
O209 O 0.8399 0.52626 0.003 0.0
C210 C 0.4138 0.37034 0.32701 0.0
O211 O 0.40277 0.3784 0.30359 0.0
Cd212 Cd 0.40963 0.38623 0.2403 0.0
O213 O 0.43009 0.36437 0.31675 0.0
Cd214 Cd 0.4475 0.36233 0.25466 0.0
C215 C 0.45214 0.40986 0.25468 0.0
O216 O 0.42006 0.35724 0.21516 0.0
O217 O 0.44497 0.36633 0.18559 0.0
O218 O 0.45401 0.32895 0.26497 0.0
C219 C 0.42818 0.3601 0.18388 0.0
O220 O 0.43471 0.4098 0.24531 0.0
C221 C 0.47063 0.32926 0.25135 0.0
O222 O 0.46081 0.3944 0.26168 0.0
O223 O 0.47747 0.34547 0.24379 0.0
H224 H 0.2938 0.03029 0.53503 0.0
H225 H 0.2639 0.02132 0.50507 0.0
H226 H 0.29484 0.99416 0.41501 0.0
H227 H 0.32447 0.00188 0.44622 0.0
H228 H 0.25205 0.03519 0.44635 0.0
H229 H 0.26913 0.96656 0.3596 0.0
H230 H 0.28479 0.93579 0.36978 0.0
H231 H 0.276 0.94059 0.48959 0.0
H232 H 0.26005 0.97126 0.48013 0.0
H233 H 0.20496 0.03949 0.27738 0.0
H234 H 0.23092 0.03098 0.31974 0.0
H235 H 0.19577 0.98896 0.37341 0.0
H236 H 0.16953 0.99748 0.33121 0.0
H237 H 0.23551 0.97889 0.36962 0.0
H238 H 0.19513 0.02688 0.4152 0.0
H239 H 0.17588 0.05592 0.41358 0.0
H240 H 0.22564 0.08896 0.3914 0.0
H241 H 0.24519 0.06001 0.39228 0.0
C242 C 0.29415 0.02167 0.50973 0.0
C243 C 0.31149 0.01684 0.49296 0.0
C244 C 0.27704 0.01668 0.49237 0.0
C245 C 0.27693 0.00715 0.45743 0.0
C246 C 0.29429 0.00113 0.44222 0.0
C247 C 0.31136 0.00565 0.46013 0.0
C248 C 0.25925 0.00614 0.4342 0.0
C249 C 0.24843 0.02272 0.43007 0.0
C250 C 0.25401 0.98984 0.41325 0.0
C251 C 0.26349 0.9713 0.41914 0.0
C252 C 0.27043 0.96101 0.3881 0.0
C253 C 0.27939 0.9436 0.39376 0.0
C254 C 0.28143 0.93626 0.43031 0.0
C255 C 0.27447 0.94632 0.46129 0.0
C256 C 0.2655 0.96374 0.45581 0.0
C257 C 0.20289 0.02798 0.29724 0.0
C258 C 0.18505 0.01938 0.30127 0.0
C259 C 0.21774 0.02319 0.32158 0.0
C260 C 0.21511 0.00963 0.35018 0.0
C261 C 0.19804 0.99953 0.35162 0.0
C262 C 0.18307 0.00441 0.32738 0.0
C263 C 0.2292 0.00804 0.3812 0.0
C264 C 0.2392 0.99111 0.38657 0.0
C265 C 0.23326 0.02373 0.40455 0.0
C266 C 0.2216 0.04123 0.40337 0.0
C267 C 0.20195 0.0403 0.40952 0.0
C268 C 0.19098 0.05676 0.40882 0.0
C269 C 0.19951 0.07428 0.40225 0.0
C270 C 0.21904 0.07537 0.39639 0.0
C271 C 0.23008 0.05893 0.397 0.0
H272 H 0.191 0.08702 0.40188 0.0
H273 H 0.28838 0.92278 0.43462 0.0
H274 H 0.95652 0.78847 0.75872 0.0
H275 H 0.96739 0.76147 0.72207 0.0
H276 H 0.01435 0.79437 0.68013 0.0
H277 H 0.00326 0.82167 0.71622 0.0
H278 H 0.99646 0.77962 0.62336 0.0
H279 H 0.02137 0.75452 0.73706 0.0
H280 H 0.02217 0.74535 0.80443 0.0
H281 H 0.97667 0.70619 0.78599 0.0
H282 H 0.97539 0.7153 0.71861 0.0
H283 H 0.00867 0.67059 0.57205 0.0
H284 H 0.018 0.69874 0.60756 0.0
H285 H 0.96966 0.72873 0.5628 0.0
H286 H 0.96051 0.70089 0.52682 0.0
H287 H 0.99831 0.71235 0.66319 0.0
H288 H 0.97488 0.77531 0.56615 0.0
H289 H 0.97676 0.78446 0.49886 0.0
H290 H 0.02484 0.7481 0.4841 0.0
H291 H 0.02344 0.73892 0.55142 0.0
C292 C 0.96949 0.78983 0.74266 0.0
C293 C 0.97893 0.8073 0.74025 0.0
C294 C 0.97574 0.77431 0.72167 0.0
C295 C 0.99171 0.77582 0.69817 0.0
C296 C 0.00195 0.79285 0.69787 0.0
C297 C 0.99566 0.80842 0.71878 0.0
C298 C 0.99623 0.76043 0.67088 0.0
C299 C 0.99709 0.76492 0.63212 0.0
C300 C 0.99756 0.74125 0.6822 0.0
C301 C 0.99824 0.73568 0.72275 0.0
C302 C 0.01145 0.74404 0.7474 0.0
C303 C 0.012 0.73884 0.7856 0.0
C304 C 0.99947 0.72521 0.79949 0.0
C305 C 0.98637 0.71674 0.77519 0.0
C306 C 0.98575 0.7219 0.73697 0.0
C307 C 0.00043 0.6834 0.56863 0.0
C308 C 0.98375 0.68343 0.54678 0.0
C309 C 0.0057 0.69946 0.58924 0.0
C310 C 0.99451 0.71588 0.58813 0.0
C311 C 0.97871 0.71638 0.56389 0.0
C312 C 0.97346 0.70037 0.54328 0.0
C313 C 0.99768 0.73151 0.61563 0.0
C314 C 0.99814 0.72707 0.65444 0.0
C315 C 0.99794 0.75074 0.60437 0.0
C316 C 0.99898 0.75635 0.56386 0.0
C317 C 0.98593 0.76935 0.54863 0.0
C318 C 0.98689 0.77452 0.51045 0.0
C319 C 0.00088 0.76684 0.48721 0.0
C320 C 0.01397 0.75399 0.50211 0.0
C321 C 0.01308 0.74878 0.54027 0.0
H322 H 0.0016 0.77086 0.45765 0.0
H323 H 0.99992 0.7212 0.82907 0.0
H324 H 0.29072 0.46826 0.74778 0.0
H325 H 0.26072 0.47726 0.77709 0.0
H326 H 0.29136 0.5058 0.86607 0.0
H327 H 0.32113 0.49792 0.8355 0.0
H328 H 0.24855 0.46445 0.8368 0.0
H329 H 0.26519 0.53475 0.91806 0.0
H330 H 0.28124 0.56514 0.9061 0.0
H331 H 0.27354 0.55796 0.78641 0.0
H332 H 0.25721 0.52766 0.79763 0.0
H333 H 0.19798 0.46463 0.00191 0.0
H334 H 0.22493 0.47166 0.96117 0.0
H335 H 0.19175 0.51312 0.90078 0.0
H336 H 0.16455 0.50611 0.9414 0.0
H337 H 0.23133 0.52265 0.90691 0.0
H338 H 0.19136 0.4738 0.86237 0.0
H339 H 0.17178 0.44505 0.8666 0.0
H340 H 0.22073 0.41247 0.8976 0.0
H341 H 0.24061 0.44114 0.89402 0.0
C342 C 0.29098 0.47712 0.77274 0.0
C343 C 0.30828 0.48238 0.78931 0.0
C344 C 0.27382 0.48214 0.78972 0.0
C345 C 0.2736 0.49216 0.82408 0.0
C346 C 0.29091 0.49844 0.83926 0.0
C347 C 0.30804 0.49385 0.82173 0.0
C348 C 0.25578 0.49372 0.8466 0.0
C349 C 0.2448 0.47731 0.85165 0.0
C350 C 0.25039 0.51052 0.86569 0.0
C351 C 0.26008 0.52883 0.85872 0.0
C352 C 0.26683 0.53969 0.88919 0.0
C353 C 0.276 0.5569 0.88254 0.0
C354 C 0.27845 0.56345 0.84552 0.0
C355 C 0.27169 0.55284 0.81507 0.0
C356 C 0.2625 0.53562 0.82156 0.0
C357 C 0.19654 0.47572 0.98086 0.0
C358 C 0.179 0.48461 0.97459 0.0
C359 C 0.21196 0.47966 0.95746 0.0
C360 C 0.21019 0.49262 0.9275 0.0
C361 C 0.19336 0.503 0.92365 0.0
C362 C 0.17784 0.49899 0.94698 0.0
C363 C 0.22493 0.4933 0.89766 0.0
C364 C 0.23518 0.51 0.89143 0.0
C365 C 0.22925 0.47703 0.87618 0.0
C366 C 0.21744 0.45967 0.87834 0.0
C367 C 0.19793 0.46054 0.87044 0.0
C368 C 0.18677 0.44426 0.87268 0.0
C369 C 0.19497 0.42696 0.88259 0.0
C370 C 0.21438 0.4259 0.89009 0.0
C371 C 0.22561 0.44216 0.8879 0.0
H372 H 0.18631 0.41435 0.8842 0.0
H373 H 0.28556 0.57678 0.84043 0.0
H374 H 0.54207 0.79287 0.02829 0.0
H375 H 0.53086 0.76548 0.0633 0.0
H376 H 0.48363 0.79795 0.10517 0.0
H377 H 0.49526 0.82577 0.07105 0.0
H378 H 0.5002 0.78294 0.16155 0.0
H379 H 0.47753 0.75737 0.04751 0.0
H380 H 0.47734 0.74842 0.98013 0.0
H381 H 0.52402 0.71067 -0.00059 0.0
H382 H 0.52469 0.71959 0.0668 0.0
H383 H 0.49515 0.67336 0.21488 0.0
H384 H 0.48415 0.70043 0.17743 0.0
H385 H 0.52957 0.73433 0.22278 0.0
H386 H 0.54029 0.70763 0.26073 0.0
H387 H 0.50231 0.71576 0.12201 0.0
H388 H 0.52105 0.77999 0.21962 0.0
H389 H 0.51787 0.78879 0.28678 0.0
H390 H 0.47229 0.74916 0.29975 0.0
H391 H 0.47499 0.7403 0.23255 0.0
C392 C 0.52896 0.79408 0.04393 0.0
C393 C 0.51968 0.8116 0.04712 0.0
C394 C 0.52247 0.7783 0.06394 0.0
C395 C 0.50635 0.77954 0.08706 0.0
C396 C 0.49616 0.79662 0.08775 0.0
C397 C 0.50275 0.8125 0.06796 0.0
C398 C 0.50188 0.76392 0.11409 0.0
C399 C 0.5004 0.76826 0.15279 0.0
C400 C 0.50151 0.74471 0.10283 0.0
C401 C 0.50118 0.73922 0.06227 0.0
C402 C 0.48783 0.74725 0.03736 0.0
C403 C 0.48763 0.74216 -0.00085 0.0
C404 C 0.50067 0.72899 -0.01451 0.0
C405 C 0.51392 0.72086 0.01004 0.0
C406 C 0.51419 0.7259 0.04828 0.0
C407 C 0.5024 0.68678 0.21785 0.0
C408 C 0.51866 0.6883 0.24071 0.0
C409 C 0.49617 0.70221 0.19617 0.0
C410 C 0.506 0.71948 0.19714 0.0
C411 C 0.5215 0.72132 0.22186 0.0
C412 C 0.52768 0.70596 0.24356 0.0
C413 C 0.5017 0.73484 0.16944 0.0
C414 C 0.5016 0.73045 0.13066 0.0
C415 C 0.50011 0.75399 0.18057 0.0
C416 C 0.49829 0.75941 0.221 0.0
C417 C 0.51026 0.77323 0.2367 0.0
C418 C 0.50856 0.77821 0.27482 0.0
C419 C 0.49491 0.76952 0.29753 0.0
C420 C 0.4829 0.75584 0.28216 0.0
C421 C 0.48452 0.75082 0.24406 0.0
H422 H 0.49363 0.77338 0.32704 0.0
H423 H 0.50049 0.72508 0.9559 0.0
H424 H 0.67656 0.48989 0.80737 0.0
H425 H 0.70457 0.48081 0.84392 0.0
H426 H 0.73322 0.53126 0.80589 0.0
H427 H 0.70563 0.54006 0.76847 0.0
H428 H 0.7586 0.50554 0.82065 0.0
H429 H 0.7049 0.53181 0.88469 0.0
H430 H 0.67143 0.53336 0.90364 0.0
H431 H 0.67634 0.47925 0.9584 0.0
H432 H 0.70987 0.47725 0.93906 0.0
H433 H 0.7862 0.54288 0.01316 0.0
H434 H 0.76082 0.53186 0.97215 0.0
H435 H 0.79656 0.48674 0.93195 0.0
H436 H 0.82234 0.49809 0.97225 0.0
H437 H 0.7396 0.50326 0.95581 0.0
H438 H 0.79135 0.48352 0.83607 0.0
H439 H 0.82431 0.48999 0.81675 0.0
H440 H 0.82265 0.54336 0.87437 0.0
H441 H 0.78964 0.53731 0.89351 0.0
C442 C 0.68911 0.49863 0.80546 0.0
C443 C 0.68869 0.51593 0.78567 0.0
C444 C 0.70509 0.49349 0.82665 0.0
C445 C 0.72078 0.50568 0.82872 0.0
C446 C 0.72125 0.52169 0.80513 0.0
C447 C 0.70538 0.52673 0.78368 0.0
C448 C 0.73517 0.50365 0.85937 0.0
C449 C 0.75446 0.50464 0.85017 0.0
C450 C 0.72983 0.5031 0.89805 0.0
C451 C 0.70977 0.50426 0.91002 0.0
C452 C 0.6988 0.52019 0.90056 0.0
C453 C 0.67982 0.52115 0.91139 0.0
C454 C 0.67171 0.5064 0.93217 0.0
C455 C 0.68262 0.49065 0.94222 0.0
C456 C 0.70161 0.48958 0.93129 0.0
C457 C 0.78853 0.53025 -0.00348 0.0
C458 C 0.80644 0.5216 -0.00454 0.0
C459 C 0.77394 0.52394 0.97299 0.0
C460 C 0.77693 0.50878 0.94811 0.0
C461 C 0.79407 0.49874 0.95024 0.0
C462 C 0.80876 0.50516 0.97358 0.0
C463 C 0.76304 0.50526 0.91714 0.0
C464 C 0.74382 0.50336 0.92629 0.0
C465 C 0.7684 0.50595 0.87846 0.0
C466 C 0.78815 0.50982 0.86664 0.0
C467 C 0.79803 0.49664 0.84451 0.0
C468 C 0.81671 0.50024 0.83359 0.0
C469 C 0.82559 0.51704 0.84446 0.0
C470 C 0.81579 0.53033 0.86609 0.0
C471 C 0.7971 0.52681 0.87698 0.0
H472 H 0.84006 0.51979 0.83603 0.0
H473 H 0.65701 0.50719 0.94056 0.0
H474 H 0.50321 0.32562 0.2098 0.0
H475 H 0.51225 0.29824 0.17165 0.0
H476 H 0.46627 0.26619 0.22011 0.0
H477 H 0.45757 0.29317 0.25895 0.0
H478 H 0.49338 0.24314 0.20561 0.0
H479 H 0.46082 0.29172 0.13668 0.0
H480 H 0.45517 0.3238 0.1114 0.0
H481 H 0.508 0.32167 0.05161 0.0
H482 H 0.51404 0.28962 0.07689 0.0
H483 H 0.45766 0.20405 0.0195 0.0
H484 H 0.46607 0.23221 0.0551 0.0
H485 H 0.51492 0.20346 0.10091 0.0
H486 H 0.50612 0.17485 0.06635 0.0
H487 H 0.49164 0.25719 0.0679 0.0
H488 H 0.51805 0.21234 0.19469 0.0
H489 H 0.51504 0.17976 0.2194 0.0
H490 H 0.4613 0.17395 0.16359 0.0
H491 H 0.46389 0.20654 0.13905 0.0
C492 C 0.49544 0.31253 0.21331 0.0
C493 C 0.4795 0.31167 0.23708 0.0
C494 C 0.50051 0.29693 0.19117 0.0
C495 C 0.48962 0.2803 0.19216 0.0
C496 C 0.47485 0.27887 0.21856 0.0
C497 C 0.46987 0.29437 0.24084 0.0
C498 C 0.49214 0.26515 0.16337 0.0
C499 C 0.49333 0.24626 0.17551 0.0
C500 C 0.49146 0.26908 0.12399 0.0
C501 C 0.48801 0.28841 0.10908 0.0
C502 C 0.47131 0.29817 0.1184 0.0
C503 C 0.46801 0.31632 0.10403 0.0
C504 C 0.48125 0.32479 0.08002 0.0
C505 C 0.49779 0.31511 0.07029 0.0
C506 C 0.50115 0.29695 0.08462 0.0
C507 C 0.47053 0.20384 0.03619 0.0
C508 C 0.48097 0.18704 0.04072 0.0
C509 C 0.47535 0.22003 0.05661 0.0
C510 C 0.49081 0.21982 0.08167 0.0
C511 C 0.50263 0.20382 0.08254 0.0
C512 C 0.49767 0.1875 0.06247 0.0
C513 C 0.49281 0.23519 0.11016 0.0
C514 C 0.49237 0.25411 0.09798 0.0
C515 C 0.49309 0.23127 0.14956 0.0
C516 C 0.49131 0.21176 0.16464 0.0
C517 C 0.50559 0.2041 0.1878 0.0
C518 C 0.50395 0.18564 0.20177 0.0
C519 C 0.48803 0.17477 0.19294 0.0
C520 C 0.47366 0.18236 0.1703 0.0
C521 C 0.47521 0.20081 0.15635 0.0
H522 H 0.4868 0.16048 0.20374 0.0
H523 H 0.47867 0.33884 0.06887 0.0
H524 H 0.82491 0.00591 0.32168 0.0
H525 H 0.79826 0.01419 0.36253 0.0
H526 H 0.76502 0.96966 0.31243 0.0
H527 H 0.79157 0.96118 0.27179 0.0
H528 H 0.75986 0.02312 0.36106 0.0
H529 H 0.74865 0.94219 0.38442 0.0
H530 H 0.76741 0.91276 0.38234 0.0
H531 H 0.81835 0.94445 0.40128 0.0
H532 H 0.79992 0.97396 0.40421 0.0
H533 H 0.67217 0.00163 0.44653 0.0
H534 H 0.70096 0.0089 0.41203 0.0
H535 H 0.73407 0.98139 0.49911 0.0
H536 H 0.70498 0.97292 0.53248 0.0
H537 H 0.74353 0.967 0.43905 0.0
H538 H 0.73792 0.03124 0.47286 0.0
H539 H 0.72277 0.06221 0.48309 0.0
H540 H 0.71113 0.06696 0.3641 0.0
H541 H 0.72597 0.03589 0.35318 0.0
C542 C 0.81169 0.99834 0.31828 0.0
C543 C 0.81048 0.98265 0.29391 0.0
C544 C 0.79647 0.00308 0.34178 0.0
C545 C 0.77986 0.99222 0.3412 0.0
C546 C 0.77786 0.97801 0.31379 0.0
C547 C 0.79304 0.97324 0.29039 0.0
C548 C 0.76577 0.99379 0.37223 0.0
C549 C 0.75619 0.01091 0.37819 0.0
C550 C 0.76171 0.9781 0.39582 0.0
C551 C 0.7729 0.96032 0.39407 0.0
C552 C 0.76385 0.94286 0.38823 0.0
C553 C 0.77444 0.92615 0.38694 0.0
C554 C 0.79408 0.92673 0.39157 0.0
C555 C 0.80317 0.94401 0.39757 0.0
C556 C 0.79265 0.96073 0.39901 0.0
C557 C 0.68561 0.9977 0.45911 0.0
C558 C 0.68627 0.98653 0.4921 0.0
C559 C 0.70219 0.00195 0.43928 0.0
C560 C 0.71987 0.99566 0.45265 0.0
C561 C 0.72065 0.98623 0.48779 0.0
C562 C 0.70401 0.98153 0.50711 0.0
C563 C 0.73683 0.99625 0.42745 0.0
C564 C 0.74709 0.97941 0.42241 0.0
C565 C 0.74194 0.01244 0.40589 0.0
C566 C 0.73297 0.03115 0.41225 0.0
C567 C 0.73201 0.03882 0.4489 0.0
C568 C 0.7235 0.05641 0.45481 0.0
C569 C 0.71597 0.06653 0.42427 0.0
C570 C 0.71697 0.0591 0.38773 0.0
C571 C 0.72546 0.04151 0.38166 0.0
H572 H 0.70938 0.08015 0.42892 0.0
H573 H 0.80226 0.91379 0.39061 0.0
H574 H 0.05339 0.28983 0.52794 0.0
H575 H 0.04093 0.26234 0.56104 0.0
H576 H 0.99418 0.29569 0.60223 0.0
H577 H 0.00695 0.32353 0.56985 0.0
H578 H 0.00995 0.27919 0.6587 0.0
H579 H 0.9873 0.25683 0.54188 0.0
H580 H 0.98736 0.24904 0.47392 0.0
H581 H 0.03191 0.20872 0.49228 0.0
H582 H 0.0324 0.2165 0.56024 0.0
H583 H 0.00068 0.16847 0.70035 0.0
H584 H 0.99036 0.19702 0.66688 0.0
H585 H 0.03628 0.22824 0.7177 0.0
H586 H 0.04622 0.20007 0.75193 0.0
H587 H 0.0093 0.21279 0.61412 0.0
H588 H 0.0303 0.2742 0.71687 0.0
H589 H 0.02716 0.28197 0.78454 0.0
H590 H 0.9797 0.24433 0.7938 0.0
H591 H 0.98237 0.23651 0.72606 0.0
C592 C 0.04014 0.29123 0.54306 0.0
C593 C 0.03127 0.30894 0.54648 0.0
C594 C 0.03295 0.27541 0.56196 0.0
C595 C 0.01656 0.27685 0.58425 0.0
C596 C 0.00688 0.29421 0.58537 0.0
C597 C 0.01414 0.3101 0.5666 0.0
C598 C 0.01117 0.26098 0.60994 0.0
C599 C 0.00955 0.26468 0.64888 0.0
C600 C 0.01004 0.24205 0.59719 0.0
C601 C 0.00992 0.23732 0.55623 0.0
C602 C 0.99722 0.24641 0.53141 0.0
C603 C 0.99715 0.24198 0.49287 0.0
C604 C 0.00965 0.22842 0.47879 0.0
C605 C 0.02225 0.21924 0.50323 0.0
C606 C 0.0224 0.22363 0.54179 0.0
C607 C 0.00813 0.1816 0.70551 0.0
C608 C 0.02438 0.18194 0.72861 0.0
C609 C 0.00229 0.19791 0.68611 0.0
C610 C 0.01255 0.21485 0.68951 0.0
C611 C 0.02788 0.21551 0.7149 0.0
C612 C 0.03362 0.19929 0.73447 0.0
C613 C 0.00913 0.23095 0.66301 0.0
C614 C 0.00918 0.22731 0.62391 0.0
C615 C 0.00838 0.24993 0.67557 0.0
C616 C 0.00659 0.25471 0.71633 0.0
C617 C 0.01911 0.26767 0.73325 0.0
C618 C 0.01743 0.27206 0.77166 0.0
C619 C 0.00326 0.26363 0.79347 0.0
C620 C 0.99071 0.25081 0.7769 0.0
C621 C 0.99232 0.24637 0.7385 0.0
H622 H 0.00199 0.26704 0.8232 0.0
H623 H 0.00957 0.225 0.44894 0.0
H624 H 0.05407 0.06603 0.29637 0.0
H625 H 0.02349 0.05029 0.29464 0.0
H626 H 0.05126 0.99632 0.28219 0.0
H627 H 0.08215 0.01213 0.28278 0.0
H628 H 0.02219 0.9986 0.23546 0.0
H629 H 0.03121 0.01038 0.36741 0.0
H630 H 0.03823 0.0293 0.42424 0.0
H631 H 0.99026 0.06482 0.40099 0.0
H632 H 0.98309 0.04626 0.34371 0.0
H633 H 0.94398 0.94136 0.28827 0.0
H634 H 0.97414 0.95807 0.2862 0.0
H635 H 0.94467 0.01139 0.27946 0.0
H636 H 0.91418 0.99468 0.28119 0.0
H637 H 0.97406 0.0098 0.33506 0.0
H638 H 0.9649 0.99638 0.20323 0.0
H639 H 0.95812 0.9762 0.14806 0.0
H640 H 0.00683 0.94211 0.17361 0.0
H641 H 0.01375 0.96192 0.2293 0.0
C642 C 0.05376 0.05079 0.29347 0.0
C643 C 0.07062 0.04033 0.28993 0.0
C644 C 0.0362 0.04179 0.29263 0.0
C645 C 0.03504 0.02208 0.2889 0.0
C646 C 0.05182 0.01155 0.2852 0.0
C647 C 0.06946 0.02059 0.28568 0.0
C648 C 0.01627 0.0126 0.28822 0.0
C649 C 0.01178 0.00085 0.25754 0.0
C650 C 0.00249 0.01586 0.31657 0.0
C651 C 0.00672 0.02703 0.35106 0.0
C652 C 0.02224 0.02231 0.37426 0.0
C653 C 0.02623 0.03296 0.40658 0.0
C654 C 0.01473 0.04828 0.41617 0.0
C655 C 0.99917 0.05296 0.3935 0.0
C656 C 0.99513 0.04237 0.36112 0.0
C657 C 0.94384 0.95664 0.28624 0.0
C658 C 0.92666 0.9667 0.28497 0.0
C659 C 0.96112 0.96615 0.28487 0.0
C660 C 0.96161 0.98593 0.28245 0.0
C661 C 0.94454 0.99609 0.28123 0.0
C662 C 0.92717 0.98654 0.28211 0.0
C663 C 0.98007 0.99586 0.28238 0.0
C664 C 0.98449 0.00765 0.31297 0.0
C665 C 0.99384 0.99246 0.2542 0.0
C666 C 0.98974 0.98054 0.22066 0.0
C667 C 0.97408 0.98448 0.19729 0.0
C668 C 0.97023 0.97313 0.16588 0.0
C669 C 0.98201 0.95786 0.15738 0.0
C670 C 0.9977 0.95393 0.18024 0.0
C671 C 0.00161 0.96523 0.21172 0.0
H672 H 0.97901 0.94908 0.13305 0.0
H673 H 0.01784 0.05651 0.44121 0.0
H674 H 0.99952 0.57885 0.53911 0.0
H675 H 0.01664 0.54869 0.53665 0.0
H676 H 0.96348 0.5187 0.53157 0.0
H677 H 0.94645 0.54853 0.53552 0.0
H678 H 0.98461 0.50198 0.57947 0.0
H679 H 0.99406 0.5244 0.45288 0.0
H680 H 0.00366 0.54688 0.403 0.0
H681 H 0.06089 0.54555 0.44409 0.0
H682 H 0.05158 0.52323 0.49456 0.0
H683 H 0.02253 0.41182 0.52899 0.0
H684 H 0.00561 0.44206 0.5262 0.0
H685 H 0.05771 0.47178 0.54867 0.0
H686 H 0.07471 0.44179 0.55141 0.0
H687 H 0.03719 0.48826 0.49089 0.0
H688 H 0.02627 0.46539 0.61826 0.0
H689 H 0.01569 0.4421 0.66585 0.0
H690 H 0.95954 0.44346 0.61916 0.0
H691 H 0.96985 0.46657 0.57096 0.0
C692 C 0.99154 0.56581 0.53725 0.0
C693 C 0.97165 0.56607 0.53776 0.0
C694 C 0.00132 0.54857 0.53566 0.0
C695 C 0.99137 0.53135 0.53365 0.0
C696 C 0.97151 0.53172 0.53335 0.0
C697 C 0.96178 0.54883 0.53557 0.0
C698 C 0.00143 0.51285 0.53337 0.0
C699 C 0.99592 0.49894 0.55965 0.0
C700 C 0.01643 0.50887 0.50804 0.0
C701 C 0.02207 0.5223 0.47774 0.0
C702 C 0.00866 0.52902 0.45147 0.0
C703 C 0.01406 0.54171 0.42305 0.0
C704 C 0.03286 0.54768 0.42044 0.0
C705 C 0.04632 0.54093 0.44619 0.0
C706 C 0.041 0.52825 0.47468 0.0
C707 C 0.03039 0.42478 0.53337 0.0
C708 C 0.04997 0.42434 0.54061 0.0
C709 C 0.0207 0.44205 0.53181 0.0
C710 C 0.03041 0.45916 0.53742 0.0
C711 C 0.04996 0.45876 0.5442 0.0
C712 C 0.05962 0.44155 0.54596 0.0
C713 C 0.02025 0.47753 0.53678 0.0
C714 C 0.0258 0.49137 0.51047 0.0
C715 C 0.0051 0.48138 0.56168 0.0
C716 C 0.99888 0.46756 0.59078 0.0
C717 C 0.0117 0.46061 0.61797 0.0
C718 C 0.00575 0.44746 0.64508 0.0
C719 C 0.98697 0.44126 0.64546 0.0
C720 C 0.97409 0.44825 0.61879 0.0
C721 C 0.97997 0.46138 0.5916 0.0
H722 H 0.98239 0.43109 0.66647 0.0
H723 H 0.03702 0.5575 0.39842 0.0
H724 H 0.44003 0.43616 0.76449 0.0
H725 H 0.47132 0.45063 0.76448 0.0
H726 H 0.44644 0.50461 0.79198 0.0
H727 H 0.4148 0.49024 0.79028 0.0
H728 H 0.47428 0.50981 0.7446 0.0
H729 H 0.46778 0.47496 0.86056 0.0
H730 H 0.4611 0.44701 0.90029 0.0
H731 H 0.50641 0.41676 0.84677 0.0
H732 H 0.51319 0.44446 0.80636 0.0
H733 H 0.55544 0.55255 0.82354 0.0
H734 H 0.52489 0.53696 0.81736 0.0
H735 H 0.55199 0.48823 0.76836 0.0
H736 H 0.58291 0.50386 0.77408 0.0
H737 H 0.52381 0.4799 0.82474 0.0
H738 H 0.53146 0.51691 0.71216 0.0
H739 H 0.53856 0.54606 0.67671 0.0
H740 H 0.49066 0.57352 0.72711 0.0
H741 H 0.48366 0.5447 0.76404 0.0
C742 C 0.44119 0.45115 0.77034 0.0
C743 C 0.42498 0.46204 0.77785 0.0
C744 C 0.45912 0.45939 0.7705 0.0
C745 C 0.46135 0.47861 0.77929 0.0
C746 C 0.44511 0.48971 0.7854 0.0
C747 C 0.42705 0.48152 0.78446 0.0
C748 C 0.48063 0.48691 0.78296 0.0
C749 C 0.48501 0.50339 0.76249 0.0
C750 C 0.49483 0.47835 0.80574 0.0
C751 C 0.49087 0.46172 0.8302 0.0
C752 C 0.47623 0.4623 0.8571 0.0
C753 C 0.47244 0.44651 0.87976 0.0
C754 C 0.48329 0.4301 0.87599 0.0
C755 C 0.498 0.42947 0.84962 0.0
C756 C 0.50183 0.44521 0.82686 0.0
C757 C 0.55504 0.53847 0.81159 0.0
C758 C 0.57169 0.52951 0.79904 0.0
C759 C 0.5375 0.52961 0.80801 0.0
C760 C 0.53618 0.51157 0.79198 0.0
C761 C 0.55276 0.50222 0.78066 0.0
C762 C 0.57039 0.51117 0.78391 0.0
C763 C 0.51734 0.50276 0.78655 0.0
C764 C 0.51306 0.48623 0.80674 0.0
C765 C 0.50319 0.51141 0.76392 0.0
C766 C 0.50713 0.52866 0.74117 0.0
C767 C 0.52252 0.5292 0.71598 0.0
C768 C 0.52653 0.54568 0.69556 0.0
C769 C 0.51505 0.56163 0.69953 0.0
C770 C 0.49955 0.56115 0.72404 0.0
C771 C 0.49558 0.54475 0.7448 0.0
H772 H 0.51816 0.57436 0.68362 0.0
H773 H 0.48033 0.41789 0.89355 0.0
H774 H 0.56562 0.94383 0.05909 0.0
H775 H 0.54957 0.97418 0.06213 0.0
H776 H 0.49546 0.94596 0.0575 0.0
H777 H 0.51158 0.91533 0.05283 0.0
H778 H 0.49449 0.97553 0.01389 0.0
H779 H 0.51406 0.96524 0.14143 0.0
H780 H 0.53651 0.95729 0.19258 0.0
H781 H 0.57025 0.00578 0.16417 0.0
H782 H 0.54814 0.01388 0.11244 0.0
H783 H 0.44105 0.05424 0.07518 0.0
H784 H 0.45769 0.02409 0.07715 0.0
H785 H 0.51011 0.05227 0.05047 0.0
H786 H 0.49346 0.08276 0.04782 0.0
H787 H 0.51156 0.02301 0.11141 0.0
H788 H 0.49078 0.03212 0.98207 0.0
H789 H 0.46712 0.03925 0.93264 0.0
H790 H 0.43369 0.9918 0.96864 0.0
H791 H 0.45703 0.98456 0.01868 0.0
C792 C 0.55029 0.94399 0.05885 0.0
C793 C 0.53988 0.92709 0.05588 0.0
C794 C 0.54111 0.96142 0.06082 0.0
C795 C 0.52127 0.96241 0.06083 0.0
C796 C 0.51079 0.94557 0.0577 0.0
C797 C 0.52 0.92807 0.05513 0.0
C798 C 0.5116 0.98108 0.06321 0.0
C799 C 0.49805 0.98576 0.0356 0.0
C800 C 0.51641 0.99464 0.09116 0.0
C801 C 0.52951 0.99008 0.12284 0.0
C802 C 0.52632 0.97417 0.14597 0.0
C803 C 0.53898 0.96963 0.17507 0.0
C804 C 0.55483 0.98099 0.18156 0.0
C805 C 0.55798 0.99697 0.15908 0.0
C806 C 0.54537 0.00156 0.12989 0.0
C807 C 0.45615 0.05416 0.06994 0.0
C808 C 0.46588 0.07098 0.06101 0.0
C809 C 0.46562 0.03686 0.07109 0.0
C810 C 0.48507 0.03596 0.06368 0.0
C811 C 0.49506 0.05272 0.05624 0.0
C812 C 0.48552 0.0701 0.05463 0.0
C813 C 0.49463 0.01731 0.06207 0.0
C814 C 0.50807 0.01269 0.08983 0.0
C815 C 0.48952 0.00368 0.03466 0.0
C816 C 0.47556 0.00791 0.00435 0.0
C817 C 0.47831 0.0233 0.97965 0.0
C818 C 0.46497 0.02735 0.95149 0.0
C819 C 0.44888 0.01602 0.94757 0.0
C820 C 0.44614 0.00058 0.97174 0.0
C821 C 0.45943 0.99649 -1e-05 0.0
H822 H 0.43857 0.01918 0.92575 0.0
H823 H 0.56464 0.97741 0.20403 0.0
H824 H 0.07658 0.49677 -0.01149 0.0
H825 H 0.04644 0.51393 -0.01181 0.0
H826 H 0.01624 0.46106 0.97985 0.0
H827 H 0.0461 0.44398 0.97884 0.0
H828 H 0.00023 0.4853 0.93563 0.0
H829 H 0.02114 0.4862 0.06519 0.0
H830 H 0.04321 0.49253 0.11783 0.0
H831 H 0.04235 0.55181 0.0911 0.0
H832 H 0.02046 0.54579 0.03796 0.0
H833 H 0.90931 0.51644 0.00012 0.0
H834 H 0.94011 0.50058 -0.0044 0.0
H835 H 0.96778 0.5547 0.98523 0.0
H836 H 0.93726 0.57062 -0.01046 0.0
H837 H 0.98511 0.53077 0.03785 0.0
H838 H 0.96269 0.52897 0.90895 0.0
H839 H 0.93986 0.52166 0.85818 0.0
H840 H 0.94257 0.46266 0.88679 0.0
H841 H 0.96529 0.46963 0.93802 0.0
C842 C 0.06351 0.48883 -0.01358 0.0
C843 C 0.06379 0.469 0.98378 0.0
C844 C 0.04628 0.49865 -0.01356 0.0
C845 C 0.02901 0.48878 0.98455 0.0
C846 C 0.02932 0.46902 0.98129 0.0
C847 C 0.04648 0.45925 0.9808 0.0
C848 C 0.01053 0.49884 -0.01373 0.0
C849 C 0.99689 0.49509 0.95825 0.0
C850 C 0.00619 0.51186 0.0154 0.0
C851 C 0.01933 0.51552 0.04735 0.0
C852 C 0.02578 0.50057 0.07036 0.0
C853 C 0.03823 0.5041 0.10031 0.0
C854 C 0.04422 0.52256 0.10773 0.0
C855 C 0.03772 0.53752 0.08527 0.0
C856 C 0.02528 0.53406 0.05525 0.0
C857 C 0.92194 0.52495 -0.00315 0.0
C858 C 0.92079 0.5448 -0.0048 0.0
C859 C 0.93951 0.51588 -0.00585 0.0
C860 C 0.9562 0.5265 -0.01002 0.0
C861 C 0.95508 0.54626 -0.01149 0.0
C862 C 0.93757 0.55531 -0.00915 0.0
C863 C 0.9749 0.51708 -0.01255 0.0
C864 C 0.98854 0.521 0.01526 0.0
C865 C 0.97916 0.50405 0.95844 0.0
C866 C 0.96555 0.49984 0.92756 0.0
C867 C 0.9583 0.51445 0.90463 0.0
C868 C 0.94541 0.51037 0.87573 0.0
C869 C 0.93972 0.49173 0.86936 0.0
C870 C 0.94697 0.47711 0.89179 0.0
C871 C 0.95988 0.48111 0.92073 0.0
H872 H 0.92972 0.4886 0.84697 0.0
H873 H 0.05386 0.52527 0.13094 0.0
H874 H 0.43654 0.44504 0.24903 0.0
H875 H 0.45228 0.47551 0.25384 0.0
H876 H 0.50576 0.44748 0.27222 0.0
H877 H 0.48996 0.41665 0.26817 0.0
H878 H 0.5017 0.4771 0.3193 0.0
H879 H 0.49486 0.46691 0.18618 0.0
H880 H 0.47794 0.45937 0.12701 0.0
H881 H 0.44172 0.50748 0.14266 0.0
H882 H 0.45827 0.51516 0.20223 0.0
H883 H 0.561 0.55486 0.27449 0.0
H884 H 0.54421 0.52481 0.27599 0.0
H885 H 0.49091 0.55418 0.26622 0.0
H886 H 0.5077 0.58459 0.26468 0.0
H887 H 0.49448 0.52422 0.21583 0.0
H888 H 0.50267 0.5348 0.34868 0.0
H889 H 0.52043 0.54215 0.40695 0.0
H890 H 0.55525 0.49309 0.39054 0.0
H891 H 0.53787 0.48558 0.33184 0.0
C892 C 0.45167 0.44525 0.25404 0.0
C893 C 0.46201 0.42832 0.25791 0.0
C894 C 0.46066 0.46275 0.25668 0.0
C895 C 0.48025 0.46381 0.26276 0.0
C896 C 0.49063 0.44699 0.26735 0.0
C897 C 0.48159 0.42938 0.26491 0.0
C898 C 0.48977 0.48254 0.26418 0.0
C899 C 0.50034 0.48731 0.29645 0.0
C900 C 0.48763 0.49605 0.23475 0.0
C901 C 0.47769 0.4915 0.19886 0.0
C902 C 0.48319 0.4758 0.17716 0.0
C903 C 0.47368 0.47151 0.14352 0.0
C904 C 0.45873 0.48291 0.13113 0.0
C905 C 0.45329 0.49865 0.15232 0.0
C906 C 0.46274 0.50299 0.186 0.0
C907 C 0.54569 0.55503 0.27282 0.0
C908 C 0.53569 0.57218 0.26937 0.0
C909 C 0.53611 0.53779 0.27391 0.0
C910 C 0.51631 0.53726 0.27153 0.0
C911 C 0.50621 0.55431 0.26822 0.0
C912 C 0.51581 0.57166 0.26745 0.0
C913 C 0.50637 0.51878 0.27094 0.0
C914 C 0.49576 0.51404 0.23875 0.0
C915 C 0.5086 0.50528 0.3003 0.0
C916 C 0.51907 0.50973 0.33565 0.0
C917 C 0.51422 0.52566 0.35731 0.0
C918 C 0.5242 0.52984 0.39046 0.0
C919 C 0.53899 0.51812 0.40239 0.0
C920 C 0.5438 0.50217 0.38124 0.0
C921 C 0.53387 0.49793 0.34805 0.0
H922 H 0.54669 0.52138 0.42806 0.0
H923 H 0.45139 0.47957 0.10508 0.0
H924 H 0.4152 0.00939 0.48502 0.0
H925 H 0.44607 0.99359 0.4833 0.0
H926 H 0.47397 0.04777 0.49078 0.0
H927 H 0.44337 0.06356 0.49082 0.0
H928 H 0.49157 0.028 0.44215 0.0
H929 H 0.46949 0.01577 0.56834 0.0
H930 H 0.44729 0.00445 0.61721 0.0
H931 H 0.45077 0.94814 0.57259 0.0
H932 H 0.47282 0.95917 0.52314 0.0
H933 H 0.58306 0.99326 0.49841 0.0
H934 H 0.55212 0.00905 0.49769 0.0
H935 H 0.52505 0.95615 0.47045 0.0
H936 H 0.55567 0.94032 0.47097 0.0
H937 H 0.50736 0.97504 0.52902 0.0
H938 H 0.5304 0.98837 0.40316 0.0
H939 H 0.55339 0.00046 0.35657 0.0
H940 H 0.549 0.05604 0.40439 0.0
H941 H 0.52616 0.04421 0.45162 0.0
C942 C 0.42794 0.01789 0.48628 0.0
C943 C 0.42683 0.03771 0.48801 0.0
C944 C 0.44559 0.00886 0.48551 0.0
C945 C 0.46242 0.01946 0.48742 0.0
C946 C 0.46126 0.03924 0.48914 0.0
C947 C 0.4437 0.04826 0.48924 0.0
C948 C 0.48132 0.01012 0.48727 0.0
C949 C 0.49505 0.01658 0.46154 0.0
C950 C 0.48588 0.99501 0.51209 0.0
C951 C 0.47264 0.98834 0.54181 0.0
C952 C 0.46541 0.001 0.56878 0.0
C953 C 0.45287 0.99463 0.59661 0.0
C954 C 0.44758 0.9756 0.59794 0.0
C955 C 0.45486 0.96289 0.57149 0.0
C956 C 0.46738 0.96918 0.54358 0.0
C957 C 0.57053 0.98502 0.49207 0.0
C958 C 0.57188 0.96553 0.48471 0.0
C959 C 0.55288 0.99406 0.49162 0.0
C960 C 0.53632 0.98375 0.48394 0.0
C961 C 0.53765 0.96435 0.47652 0.0
C962 C 0.55522 0.95536 0.47668 0.0
C963 C 0.51748 0.99301 0.48411 0.0
C964 C 0.5038 0.98649 0.50977 0.0
C965 C 0.51305 0.00823 0.45963 0.0
C966 C 0.52672 0.01536 0.43116 0.0
C967 C 0.53446 0.00313 0.40394 0.0
C968 C 0.54744 0.00995 0.37738 0.0
C969 C 0.5527 0.029 0.37759 0.0
C970 C 0.54494 0.04129 0.4043 0.0
C971 C 0.53196 0.03454 0.43094 0.0
H972 H 0.56275 0.03425 0.357 0.0
H973 H 0.43787 0.9707 0.61951 0.0
H974 H 0.05915 0.05249 0.68713 0.0
H975 H 0.04286 0.02212 0.68941 0.0
H976 H 0.00372 0.04446 0.77161 0.0
H977 H 0.0196 0.0752 0.7683 0.0
H978 H 0.03898 0.99752 0.7419 0.0
H979 H 0.96168 0.02165 0.7663 0.0
H980 H 0.94079 0.04858 0.75083 0.0
H981 H 0.97454 0.0613 0.65305 0.0
H982 H 0.99547 0.03432 0.66768 0.0
H983 H 0.98321 0.91639 0.78892 0.0
H984 H 0.99986 0.9468 0.78774 0.0
H985 H 0.97046 0.96188 0.68464 0.0
H986 H 0.95306 0.93215 0.68729 0.0
H987 H 0.96962 0.99024 0.72638 0.0
H988 H 0.01997 0.94812 0.69051 0.0
H989 H 0.04137 0.92074 0.69739 0.0
H990 H 0.06253 0.94316 0.80207 0.0
H991 H 0.04109 0.97057 0.79603 0.0
C992 C 0.04696 0.05101 0.70545 0.0
C993 C 0.04062 0.06629 0.72743 0.0
C994 C 0.03771 0.03358 0.70688 0.0
C995 C 0.022 0.03093 0.73057 0.0
C996 C 0.0156 0.04619 0.75258 0.0
C997 C 0.02469 0.06377 0.75071 0.0
C998 C 0.01259 0.01209 0.73236 0.0
C999 C 0.0238 0.99594 0.73848 0.0
C1000 C 0.99281 0.00991 0.72755 0.0
C1001 C 0.98025 0.0261 0.71837 0.0
C1002 C 0.9646 0.03018 0.74146 0.0
C1003 C 0.95276 0.04545 0.73284 0.0
C1004 C 0.95638 0.05669 0.70106 0.0
C1005 C 0.9718 0.05264 0.67775 0.0
C1006 C 0.98367 0.03737 0.68622 0.0
C1007 C 0.98054 0.92614 0.76581 0.0
C1008 C 0.96689 0.92193 0.73813 0.0
C1009 C 0.99008 0.94352 0.76506 0.0
C1010 C 0.98658 0.95671 0.73591 0.0
C1011 C 0.97336 0.95212 0.70763 0.0
C1012 C 0.9635 0.93504 0.70897 0.0
C1013 C 0.99604 0.97556 0.73524 0.0
C1014 C 0.9848 0.99177 0.72975 0.0
C1015 C 0.01587 0.97773 0.73936 0.0
C1016 C 0.0288 0.96129 0.743 0.0
C1017 C 0.0291 0.94714 0.71512 0.0
C1018 C 0.04125 0.93163 0.71885 0.0
C1019 C 0.05326 0.93019 0.7502 0.0
C1020 C 0.05319 0.94429 0.77784 0.0
C1021 C 0.04106 0.95982 0.77425 0.0
H1022 H 0.06265 0.91817 0.75304 0.0
H1023 H 0.9472 0.06851 0.69445 0.0
H1024 H 0.11522 0.15061 0.66726 0.0
H1025 H 0.13541 0.15191 0.61114 0.0
H1026 H 0.08859 0.13285 0.54242 0.0
H1027 H 0.06831 0.13199 0.59799 0.0
H1028 H 0.14586 0.12305 0.57204 0.0
H1029 H 0.09074 0.14583 0.45527 0.0
H1030 H 0.0661 0.17019 0.44719 0.0
H1031 H 0.09307 0.20471 0.53123 0.0
H1032 H 0.11807 0.18072 0.53945 0.0
H1033 H 0.13746 0.0659 0.41919 0.0
H1034 H 0.1376 0.08643 0.47418 0.0
H1035 H 0.15497 0.13353 0.40435 0.0
H1036 H 0.15451 0.11298 0.34868 0.0
H1037 H 0.12502 0.14257 0.44358 0.0
H1038 H 0.18419 0.11827 0.47499 0.0
H1039 H 0.2093 0.09429 0.48159 0.0
H1040 H 0.17703 0.0657 0.56721 0.0
H1041 H 0.15153 0.08925 0.56069 0.0
C1042 C 0.10916 0.14707 0.64 0.0
C1043 C 0.09026 0.14098 0.63696 0.0
C1044 C 0.1207 0.14787 0.60802 0.0
C1045 C 0.11349 0.14267 0.57256 0.0
C1046 C 0.09437 0.13739 0.56932 0.0
C1047 C 0.08282 0.1367 0.60118 0.0
C1048 C 0.12623 0.14008 0.53981 0.0
C1049 C 0.14159 0.12762 0.54397 0.0
C1050 C 0.12122 0.14676 0.50338 0.0
C1051 C 0.10634 0.16143 0.49795 0.0
C1052 C 0.09156 0.15869 0.47177 0.0
C1053 C 0.07748 0.17242 0.46724 0.0
C1054 C 0.07802 0.18898 0.48867 0.0
C1055 C 0.09265 0.19186 0.51467 0.0
C1056 C 0.10677 0.17819 0.51931 0.0
C1057 C 0.14163 0.08054 0.41559 0.0
C1058 C 0.14569 0.08792 0.37964 0.0
C1059 C 0.14192 0.09224 0.44713 0.0
C1060 C 0.14649 0.11149 0.44339 0.0
C1061 C 0.15148 0.11871 0.40779 0.0
C1062 C 0.15116 0.10697 0.37609 0.0
C1063 C 0.14333 0.12419 0.47586 0.0
C1064 C 0.12985 0.13863 0.47168 0.0
C1065 C 0.15035 0.11963 0.51224 0.0
C1066 C 0.16592 0.10565 0.51741 0.0
C1067 C 0.18241 0.10687 0.49522 0.0
C1068 C 0.19671 0.09332 0.4989 0.0
C1069 C 0.19477 0.07849 0.52482 0.0
C1070 C 0.17853 0.07722 0.54721 0.0
C1071 C 0.16416 0.09072 0.54361 0.0
H1072 H 0.20583 0.06798 0.52754 0.0
H1073 H 0.06711 0.19959 0.48512 0.0
H1074 H 0.8998 0.63532 0.62816 0.0
H1075 H 0.88536 0.63438 0.69054 0.0
H1076 H 0.94064 0.63788 0.74248 0.0
H1077 H 0.95527 0.63803 0.67972 0.0
H1078 H 0.92305 0.61045 0.77165 0.0
H1079 H 0.90676 0.67409 0.75237 0.0
H1080 H 0.89521 0.70254 0.71908 0.0
H1081 H 0.83958 0.67835 0.71189 0.0
H1082 H 0.85083 0.64963 0.74464 0.0
H1083 H 0.85623 0.61687 0.94036 0.0
H1084 H 0.87058 0.63429 0.88775 0.0
H1085 H 0.86751 0.5843 0.81832 0.0
H1086 H 0.8534 0.56675 0.87068 0.0
H1087 H 0.86337 0.64203 0.81015 0.0
H1088 H 0.91119 0.57609 0.78655 0.0
H1089 H 0.92426 0.54975 0.82434 0.0
H1090 H 0.9209 0.58353 0.92489 0.0
H1091 H 0.90798 0.61012 0.88766 0.0
C1092 C 0.90887 0.63619 0.65285 0.0
C1093 C 0.92865 0.6365 0.64921 0.0
C1094 C 0.90058 0.63586 0.68856 0.0
C1095 C 0.9119 0.63628 0.72126 0.0
C1096 C 0.93165 0.63755 0.71762 0.0
C1097 C 0.93998 0.63758 0.68183 0.0
C1098 C 0.90316 0.63275 0.75863 0.0
C1099 C 0.91018 0.61761 0.78026 0.0
C1100 C 0.88662 0.64236 0.77056 0.0
C1101 C 0.87968 0.65964 0.7509 0.0
C1102 C 0.89208 0.67477 0.74349 0.0
C1103 C 0.88558 0.69096 0.72473 0.0
C1104 C 0.86668 0.69224 0.71335 0.0
C1105 C 0.85422 0.67735 0.72076 0.0
C1106 C 0.86065 0.66112 0.7395 0.0
C1107 C 0.85814 0.60974 0.91354 0.0
C1108 C 0.85414 0.59034 0.90976 0.0
C1109 C 0.8663 0.61973 0.88359 0.0
C1110 C 0.87045 0.61039 0.84971 0.0
C1111 C 0.86467 0.59159 0.84465 0.0
C1112 C 0.85661 0.5816 0.87452 0.0
C1113 C 0.8828 0.61926 0.82126 0.0
C1114 C 0.87648 0.63531 0.80167 0.0
C1115 C 0.90035 0.61093 0.81185 0.0
C1116 C 0.90849 0.59506 0.8343 0.0
C1117 C 0.91333 0.57793 0.81668 0.0
C1118 C 0.92068 0.56293 0.83805 0.0
C1119 C 0.92335 0.56492 0.87705 0.0
C1120 C 0.91873 0.58195 0.89474 0.0
C1121 C 0.91137 0.59698 0.87352 0.0
H1122 H 0.92902 0.5533 0.89357 0.0
H1123 H 0.86167 0.70479 0.69882 0.0
H1124 H 0.39084 0.35172 0.1744 0.0
H1125 H 0.37187 0.35612 0.11713 0.0
H1126 H 0.42183 0.37376 0.0564 0.0
H1127 H 0.44093 0.36912 0.1133 0.0
H1128 H 0.36646 0.38919 0.08328 0.0
H1129 H 0.41817 0.36403 0.96508 0.0
H1130 H 0.44142 0.33847 0.95565 0.0
H1131 H 0.41216 0.30378 0.0365 0.0
H1132 H 0.38854 0.32898 0.04598 0.0
H1133 H 0.36685 0.4437 0.91915 0.0
H1134 H 0.37164 0.42536 0.97685 0.0
H1135 H 0.34989 0.37556 0.92138 0.0
H1136 H 0.34543 0.3938 0.86306 0.0
H1137 H 0.38281 0.36838 0.95343 0.0
H1138 H 0.32521 0.39578 -0.0055 0.0
H1139 H 0.30188 0.42115 0.00515 0.0
H1140 H 0.34083 0.4494 0.07932 0.0
H1141 H 0.3645 0.42437 0.06871 0.0
C1142 C 0.39784 0.35621 0.14864 0.0
C1143 C 0.41731 0.36032 0.14833 0.0
C1144 C 0.38698 0.35871 0.11602 0.0
C1145 C 0.39546 0.36519 0.0826 0.0
C1146 C 0.41506 0.36847 0.0818 0.0
C1147 C 0.42593 0.36595 0.11437 0.0
C1148 C 0.38371 0.37055 0.04971 0.0
C1149 C 0.36979 0.38445 0.05489 0.0
C1150 C 0.3878 0.36397 0.0129 0.0
C1151 C 0.4016 0.34846 0.00633 0.0
C1152 C 0.41658 0.35089 0.98058 0.0
C1153 C 0.42985 0.33647 0.9753 0.0
C1154 C 0.42829 0.31953 -0.00449 0.0
C1155 C 0.41338 0.31692 0.02092 0.0
C1156 C 0.40005 0.33128 0.02628 0.0
C1157 C 0.36278 0.42893 0.9194 0.0
C1158 C 0.35595 0.42012 0.88655 0.0
C1159 C 0.3654 0.41848 0.95248 0.0
C1160 C 0.36097 0.39913 0.95344 0.0
C1161 C 0.35335 0.39049 0.92117 0.0
C1162 C 0.35081 0.40092 0.88795 0.0
C1163 C 0.36625 0.38772 -0.01309 0.0
C1164 C 0.37901 0.37271 0.98185 0.0
C1165 C 0.36094 0.39313 0.02388 0.0
C1166 C 0.34666 0.40818 0.03072 0.0
C1167 C 0.32884 0.40745 0.01294 0.0
C1168 C 0.31555 0.42177 0.01898 0.0
C1169 C 0.31987 0.43688 0.04288 0.0
C1170 C 0.33749 0.43768 0.06085 0.0
C1171 C 0.35084 0.4234 0.05489 0.0
H1172 H 0.30957 0.44796 0.0475 0.0
H1173 H 0.43862 0.30841 -0.00853 0.0
H1174 H 0.63964 0.8937 0.42324 0.0
H1175 H 0.63649 0.87769 0.3626 0.0
H1176 H 0.65319 0.92888 0.30458 0.0
H1177 H 0.65538 0.94522 0.36532 0.0
H1178 H 0.62203 0.91823 0.27806 0.0
H1179 H 0.67973 0.88625 0.29988 0.0
H1180 H 0.70389 0.8681 0.33496 0.0
H1181 H 0.66563 0.82117 0.34464 0.0
H1182 H 0.64112 0.83912 0.31011 0.0
H1183 H 0.61386 0.85322 0.10939 0.0
H1184 H 0.63352 0.86231 0.16349 0.0
H1185 H 0.58339 0.86933 0.23148 0.0
H1186 H 0.56363 0.86035 0.17775 0.0
H1187 H 0.63796 0.85221 0.24293 0.0
H1188 H 0.58578 0.91481 0.2636 0.0
H1189 H 0.56333 0.93359 0.22527 0.0
H1190 H 0.59521 0.92132 0.12497 0.0
H1191 H 0.6181 0.90288 0.16279 0.0
C1192 C 0.64309 0.90139 0.39759 0.0
C1193 C 0.64746 0.92074 0.39873 0.0
C1194 C 0.64145 0.89217 0.3629 0.0
C1195 C 0.64465 0.90206 0.32895 0.0
C1196 C 0.65055 0.92101 0.3304 0.0
C1197 C 0.65178 0.93033 0.36502 0.0
C1198 C 0.63876 0.89365 0.29246 0.0
C1199 C 0.62581 0.9039 0.27022 0.0
C1200 C 0.64382 0.87503 0.28177 0.0
C1201 C 0.65854 0.8641 0.3025 0.0
C1202 C 0.67641 0.87211 0.3097 0.0
C1203 C 0.69018 0.86184 0.32946 0.0
C1204 C 0.68629 0.8435 0.34206 0.0
C1205 C 0.66862 0.83538 0.33485 0.0
C1206 C 0.6548 0.84558 0.31511 0.0
C1207 C 0.60706 0.85622 0.13617 0.0
C1208 C 0.58721 0.85654 0.13921 0.0
C1209 C 0.61832 0.8613 0.16701 0.0
C1210 C 0.6098 0.86678 0.20099 0.0
C1211 C 0.59012 0.86532 0.20516 0.0
C1212 C 0.57888 0.86024 0.17445 0.0
C1213 C 0.6209 0.87662 0.23016 0.0
C1214 C 0.63466 0.86667 0.25073 0.0
C1215 C 0.61701 0.89572 0.23889 0.0
C1216 C 0.60356 0.90727 0.21604 0.0
C1217 C 0.58807 0.91622 0.23341 0.0
C1218 C 0.57526 0.92681 0.21176 0.0
C1219 C 0.5778 0.92859 0.17269 0.0
C1220 C 0.59322 0.91988 0.15521 0.0
C1221 C 0.60612 0.90936 0.17675 0.0
H1222 H 0.56784 0.93673 0.15595 0.0
H1223 H 0.69697 0.83558 0.35736 0.0
H1224 H 0.12283 0.34475 0.61568 0.0
H1225 H 0.14118 0.34647 0.67446 0.0
H1226 H 0.09094 0.36383 0.73447 0.0
H1227 H 0.07256 0.36167 0.67645 0.0
H1228 H 0.14828 0.37691 0.71218 0.0
H1229 H 0.09074 0.35317 0.8227 0.0
H1230 H 0.06739 0.32752 0.82949 0.0
H1231 H 0.09948 0.29287 0.75339 0.0
H1232 H 0.12321 0.3182 0.74655 0.0
H1233 H 0.13163 0.43671 0.85871 0.0
H1234 H 0.13472 0.41519 0.80556 0.0
H1235 H 0.15192 0.37039 0.88153 0.0
H1236 H 0.14845 0.3919 0.93525 0.0
H1237 H 0.12425 0.35889 0.83908 0.0
H1238 H 0.18306 0.38567 0.81285 0.0
H1239 H 0.20728 0.41057 0.80667 0.0
H1240 H 0.17567 0.43623 0.71619 0.0
H1241 H 0.15119 0.41157 0.72188 0.0
C1242 C 0.11566 0.34854 0.64164 0.0
C1243 C 0.09631 0.35325 0.6415 0.0
C1244 C 0.12615 0.34949 0.67514 0.0
C1245 C 0.11742 0.35506 0.70894 0.0
C1246 C 0.09793 0.35903 0.70898 0.0
C1247 C 0.08744 0.35799 0.67566 0.0
C1248 C 0.12874 0.35929 0.74314 0.0
C1249 C 0.14333 0.37269 0.73999 0.0
C1250 C 0.12288 0.35312 0.77939 0.0
C1251 C 0.10882 0.33763 0.78414 0.0
C1252 C 0.09296 0.34002 0.80771 0.0
C1253 C 0.07961 0.32554 0.81148 0.0
C1254 C 0.08195 0.30858 0.79187 0.0
C1255 C 0.09767 0.30603 0.76852 0.0
C1256 C 0.11107 0.32046 0.76466 0.0
C1257 C 0.13635 0.42237 0.86408 0.0
C1258 C 0.13952 0.41589 0.90109 0.0
C1259 C 0.13835 0.41012 0.83362 0.0
C1260 C 0.14377 0.39122 0.83955 0.0
C1261 C 0.1478 0.38494 0.87637 0.0
C1262 C 0.14574 0.39721 0.90696 0.0
C1263 C 0.14243 0.37773 0.80779 0.0
C1264 C 0.1298 0.36252 0.8114 0.0
C1265 C 0.15039 0.38195 0.77208 0.0
C1266 C 0.16527 0.39668 0.76775 0.0
C1267 C 0.18124 0.39663 0.79164 0.0
C1268 C 0.19502 0.41072 0.78824 0.0
C1269 C 0.19299 0.42499 0.76112 0.0
C1270 C 0.17724 0.42514 0.73716 0.0
C1271 C 0.16344 0.41104 0.74034 0.0
H1272 H 0.20364 0.43593 0.75867 0.0
H1273 H 0.07157 0.29741 0.79477 0.0
H1274 H 0.60922 0.62578 0.19172 0.0
H1275 H 0.62634 0.61577 0.13525 0.0
H1276 H 0.57897 0.63288 0.0656 0.0
H1277 H 0.56143 0.6419 0.12229 0.0
H1278 H 0.58804 0.59958 0.04809 0.0
H1279 H 0.6236 0.6564 0.06611 0.0
H1280 H 0.64286 0.67964 0.10104 0.0
H1281 H 0.68605 0.6378 0.11903 0.0
H1282 H 0.66694 0.61423 0.08463 0.0
H1283 H 0.6498 0.59888 0.87653 0.0
H1284 H 0.64404 0.61401 0.93746 0.0
H1285 H 0.63418 0.5594 -0.0115 0.0
H1286 H 0.63941 0.54417 0.92752 0.0
H1287 H 0.65482 0.61286 0.01359 0.0
H1288 H 0.59171 0.56186 0.03092 0.0
H1289 H 0.57189 0.54111 -0.00886 0.0
H1290 H 0.58179 0.57708 0.89502 0.0
H1291 H 0.60135 0.59821 0.9344 0.0
C1292 C 0.60262 0.62769 0.16427 0.0
C1293 C 0.58398 0.63443 0.16118 0.0
C1294 C 0.61246 0.62207 0.13199 0.0
C1295 C 0.60398 0.62364 0.09614 0.0
C1296 C 0.58574 0.63142 0.093 0.0
C1297 C 0.57575 0.6366 0.1253 0.0
C1298 C 0.61318 0.6154 0.06242 0.0
C1299 C 0.60262 0.60261 0.04062 0.0
C1300 C 0.6322 0.61934 0.05245 0.0
C1301 C 0.64375 0.6335 0.07306 0.0
C1302 C 0.63714 0.65211 0.07776 0.0
C1303 C 0.64805 0.66535 0.09742 0.0
C1304 C 0.66565 0.66019 0.11232 0.0
C1305 C 0.67241 0.64178 0.1075 0.0
C1306 C 0.66155 0.62848 0.08788 0.0
C1307 C 0.64686 0.59005 0.90093 0.0
C1308 C 0.64455 0.5704 0.89715 0.0
C1309 C 0.64376 0.59872 0.93576 0.0
C1310 C 0.63836 0.58781 0.9671 0.0
C1311 C 0.63813 0.56802 0.96436 0.0
C1312 C 0.64106 0.55936 0.92951 0.0
C1313 C 0.62966 0.59712 -1e-05 0.0
C1314 C 0.64027 0.60996 0.02144 0.0
C1315 C 0.61048 0.59374 0.00912 0.0
C1316 C 0.59816 0.58148 -0.01447 0.0
C1317 C 0.58955 0.56539 0.00136 0.0
C1318 C 0.57837 0.55356 0.97888 0.0
C1319 C 0.57563 0.55774 0.94055 0.0
C1320 C 0.58396 0.57383 0.92468 0.0
C1321 C 0.59509 0.58573 0.94708 0.0
H1322 H 0.56703 0.54853 0.92316 0.0
H1323 H 0.67407 0.67046 0.12753 0.0
H1324 H 0.35964 0.10952 0.42186 0.0
H1325 H 0.36427 0.1259 0.36173 0.0
H1326 H 0.35051 0.07462 0.30156 0.0
H1327 H 0.3467 0.05797 0.36179 0.0
H1328 H 0.38249 0.08633 0.2795 0.0
H1329 H 0.32293 0.11597 0.29432 0.0
H1330 H 0.2973 0.13325 0.32645 0.0
H1331 H 0.33346 0.18165 0.33875 0.0
H1332 H 0.35942 0.16457 0.30718 0.0
H1333 H 0.38894 0.14546 0.10527 0.0
H1334 H 0.36942 0.13884 0.16084 0.0
H1335 H 0.41952 0.13709 0.23069 0.0
H1336 H 0.43917 0.14356 0.1754 0.0
H1337 H 0.36421 0.15127 0.23998 0.0
H1338 H 0.41979 0.09304 0.26643 0.0
H1339 H 0.44382 0.07544 0.2301 0.0
H1340 H 0.41064 0.08194 0.12891 0.0
H1341 H 0.38628 0.09924 0.16477 0.0
C1342 C 0.35716 0.10188 0.39579 0.0
C1343 C 0.35311 0.08244 0.39631 0.0
C1344 C 0.35967 0.11129 0.3614 0.0
C1345 C 0.35772 0.10149 0.32709 0.0
C1346 C 0.35219 0.08242 0.3277 0.0
C1347 C 0.35003 0.07293 0.36205 0.0
C1348 C 0.36436 0.1102 0.29135 0.0
C1349 C 0.37821 0.10042 0.27075 0.0
C1350 C 0.35875 0.12854 0.27957 0.0
C1351 C 0.34318 0.13892 0.29855 0.0
C1352 C 0.32548 0.13025 0.30412 0.0
C1353 C 0.31087 0.14002 0.32219 0.0
C1354 C 0.31376 0.15852 0.33468 0.0
C1355 C 0.33125 0.16731 0.32906 0.0
C1356 C 0.3459 0.1576 0.31101 0.0
C1357 C 0.39575 0.14424 0.13267 0.0
C1358 C 0.4156 0.14446 0.13595 0.0
C1359 C 0.38455 0.14063 0.16437 0.0
C1360 C 0.39313 0.13721 0.19948 0.0
C1361 C 0.41274 0.13958 0.20358 0.0
C1362 C 0.42394 0.14314 0.17196 0.0
C1363 C 0.38248 0.12752 0.22957 0.0
C1364 C 0.36806 0.13708 0.24882 0.0
C1365 C 0.3871 0.10873 0.23966 0.0
C1366 C 0.40131 0.09759 0.21824 0.0
C1367 C 0.41757 0.09058 0.23649 0.0
C1368 C 0.43125 0.08068 0.21597 0.0
C1369 C 0.42879 0.07763 0.17719 0.0
C1370 C 0.41257 0.08436 0.15891 0.0
C1371 C 0.39882 0.09422 0.17932 0.0
H1372 H 0.43943 0.07002 0.16132 0.0
H1373 H 0.30244 0.16606 0.34867 0.0
H1374 H 0.93462 0.85486 0.61511 0.0
H1375 H 0.91601 0.86629 0.56138 0.0
H1376 H 0.86733 0.87285 0.6337 0.0
H1377 H 0.88571 0.861 0.68748 0.0
H1378 H 0.85718 0.86332 0.5602 0.0
H1379 H 0.89425 0.90934 0.62449 0.0
H1380 H 0.92298 0.92237 0.65418 0.0
H1381 H 0.95177 0.92064 0.54729 0.0
H1382 H 0.92326 0.90729 0.51706 0.0
H1383 H 0.85708 0.95288 0.423 0.0
H1384 H 0.85969 0.9386 0.48589 0.0
H1385 H 0.85887 0.88297 0.43575 0.0
H1386 H 0.85546 0.89712 0.37319 0.0
H1387 H 0.88862 0.92046 0.50789 0.0
H1388 H 0.84583 0.84938 0.49781 0.0
H1389 H 0.8153 0.83857 0.47179 0.0
H1390 H 0.79356 0.89521 0.47708 0.0
H1391 H 0.82377 0.90631 0.50391 0.0
C1392 C 0.91982 0.85826 0.61935 0.0
C1393 C 0.91171 0.85746 0.65554 0.0
C1394 C 0.90921 0.86475 0.58869 0.0
C1395 C 0.89048 0.8708 0.59396 0.0
C1396 C 0.88181 0.86833 0.62924 0.0
C1397 C 0.89237 0.86164 0.65991 0.0
C1398 C 0.88108 0.88209 0.56423 0.0
C1399 C 0.86393 0.87583 0.54863 0.0
C1400 C 0.88951 0.89893 0.55067 0.0
C1401 C 0.90665 0.90719 0.56858 0.0
C1402 C 0.90674 0.91162 0.60737 0.0
C1403 C 0.923 0.91908 0.62429 0.0
C1404 C 0.93922 0.92231 0.60265 0.0
C1405 C 0.9392 0.91812 0.56402 0.0
C1406 C 0.92299 0.91062 0.54696 0.0
C1407 C 0.85707 0.93757 0.42555 0.0
C1408 C 0.85637 0.92606 0.39328 0.0
C1409 C 0.8585 0.92947 0.46144 0.0
C1410 C 0.85948 0.90973 0.46554 0.0
C1411 C 0.8578 0.89822 0.43342 0.0
C1412 C 0.85604 0.90632 0.39757 0.0
C1413 C 0.86503 0.90128 0.50223 0.0
C1414 C 0.88155 0.90812 0.51947 0.0
C1415 C 0.85562 0.8854 0.51788 0.0
C1416 C 0.83717 0.8787 0.5027 0.0
C1417 C 0.83449 0.85951 0.49376 0.0
C1418 C 0.81724 0.85333 0.47881 0.0
C1419 C 0.80251 0.8662 0.47273 0.0
C1420 C 0.80498 0.88526 0.48174 0.0
C1421 C 0.82218 0.8915 0.49681 0.0
H1422 H 0.78919 0.86139 0.46106 0.0
H1423 H 0.9518 0.92809 0.61576 0.0
H1424 H 0.12129 0.10176 0.84048 0.0
H1425 H 0.12974 0.09785 0.90678 0.0
H1426 H 0.07966 0.12847 0.93978 0.0
H1427 H 0.07092 0.13253 0.87295 0.0
H1428 H 0.11355 0.13796 0.9813 0.0
H1429 H 0.07762 0.08294 0.94323 0.0
H1430 H 0.07049 0.0558 0.90191 0.0
H1431 H 0.12538 0.03231 0.92507 0.0
H1432 H 0.13294 0.05948 0.96611 0.0
H1433 H 0.10212 0.10967 0.16924 0.0
H1434 H 0.0994 0.11675 0.10232 0.0
H1435 H 0.14338 0.07623 0.07789 0.0
H1436 H 0.14575 0.06847 0.14557 0.0
H1437 H 0.11538 0.07213 0.03048 0.0
H1438 H 0.15104 0.12524 0.07201 0.0
H1439 H 0.15928 0.15244 0.11232 0.0
H1440 H 0.10709 0.17976 0.08206 0.0
H1441 H 0.0984 0.15261 0.04197 0.0
C1442 C 0.11206 0.10782 0.86167 0.0
C1443 C 0.09528 0.1173 0.85139 0.0
C1444 C 0.11696 0.10555 0.89958 0.0
C1445 C 0.1052 0.11267 0.928 0.0
C1446 C 0.08887 0.12285 0.91805 0.0
C1447 C 0.08388 0.1251 0.87995 0.0
C1448 C 0.10959 0.10856 0.96805 0.0
C1449 C 0.11376 0.12362 -0.00769 0.0
C1450 C 0.11052 0.08977 0.98175 0.0
C1451 C 0.10591 0.07333 0.95744 0.0
C1452 C 0.08822 0.07206 0.93928 0.0
C1453 C 0.08409 0.05666 0.91595 0.0
C1454 C 0.09749 0.04237 0.91079 0.0
C1455 C 0.11503 0.04341 0.92905 0.0
C1456 C 0.11923 0.05879 0.95237 0.0
C1457 C 0.11138 0.10232 0.14981 0.0
C1458 C 0.12425 0.08855 0.16277 0.0
C1459 C 0.10988 0.10651 0.11146 0.0
C1460 C 0.12148 0.09736 0.08513 0.0
C1461 C 0.13439 0.08357 0.09782 0.0
C1462 C 0.13573 0.07915 0.13641 0.0
C1463 C 0.11919 0.10157 0.04426 0.0
C1464 C 0.11539 0.08651 0.01965 0.0
C1465 C 0.1188 0.12038 0.03021 0.0
C1466 C 0.12402 0.13681 0.05416 0.0
C1467 C 0.14126 0.13699 0.07414 0.0
C1468 C 0.14602 0.15241 0.09693 0.0
C1469 C 0.13371 0.1678 0.0998 0.0
C1470 C 0.11662 0.16782 0.07982 0.0
C1471 C 0.11178 0.15243 0.05701 0.0
H1472 H 0.13742 0.17972 0.11747 0.0
H1473 H 0.09428 0.03046 0.89271 0.0
H1474 H 0.88585 0.60071 0.44769 0.0
H1475 H 0.87439 0.59743 0.38312 0.0
H1476 H 0.91951 0.63327 0.34309 0.0
H1477 H 0.9314 0.63657 0.40817 0.0
H1478 H 0.88093 0.63996 0.31062 0.0
H1479 H 0.92676 0.59007 0.33328 0.0
H1480 H 0.94014 0.56338 0.36963 0.0
H1481 H 0.88804 0.53273 0.35717 0.0
H1482 H 0.87426 0.55938 0.32121 0.0
H1483 H 0.88551 0.61787 0.11826 0.0
H1484 H 0.89017 0.62434 0.18485 0.0
H1485 H 0.85511 0.57651 0.21403 0.0
H1486 H 0.85085 0.56943 0.14656 0.0
H1487 H 0.88586 0.57588 0.25443 0.0
H1488 H 0.84025 0.62336 0.22812 0.0
H1489 H 0.82518 0.64978 0.19373 0.0
H1490 H 0.87375 0.6847 0.21483 0.0
H1491 H 0.88925 0.65841 0.24889 0.0
C1492 C 0.89333 0.60809 0.42536 0.0
C1493 C 0.90969 0.6188 0.43312 0.0
C1494 C 0.88671 0.60617 0.38845 0.0
C1495 C 0.89621 0.61497 0.3585 0.0
C1496 C 0.91204 0.62636 0.36603 0.0
C1497 C 0.91883 0.62818 0.40313 0.0
C1498 C 0.89011 0.61127 0.31922 0.0
C1499 C 0.88219 0.62605 0.29799 0.0
C1500 C 0.89107 0.5929 0.30366 0.0
C1501 C 0.89942 0.57679 0.3249 0.0
C1502 C 0.91811 0.5777 0.33857 0.0
C1503 C 0.92577 0.56257 0.35905 0.0
C1504 C 0.91493 0.54639 0.3658 0.0
C1505 C 0.89642 0.54528 0.35197 0.0
C1506 C 0.88868 0.56039 0.33151 0.0
C1507 C 0.87855 0.60877 0.13864 0.0
C1508 C 0.86779 0.59308 0.12696 0.0
C1509 C 0.88114 0.61262 0.17689 0.0
C1510 C 0.87274 0.60113 0.20454 0.0
C1511 C 0.86166 0.58563 0.19313 0.0
C1512 C 0.85921 0.58161 0.15461 0.0
C1513 C 0.87683 0.60466 0.24512 0.0
C1514 C 0.88439 0.58982 0.26684 0.0
C1515 C 0.87526 0.62294 0.26125 0.0
C1516 C 0.86598 0.63885 0.24086 0.0
C1517 C 0.84779 0.63663 0.2252 0.0
C1518 C 0.83915 0.65159 0.2058 0.0
C1519 C 0.84852 0.66889 0.20204 0.0
C1520 C 0.86652 0.67129 0.21775 0.0
C1521 C 0.87523 0.65636 0.23716 0.0
H1522 H 0.84181 0.68046 0.187 0.0
H1523 H 0.92089 0.53469 0.38167 0.0
H1524 H 0.36089 0.43622 0.64444 0.0
H1525 H 0.36527 0.42669 0.57831 0.0
H1526 H 0.3795 0.37017 0.61498 0.0
H1527 H 0.37477 0.37935 0.68045 0.0
H1528 H 0.39745 0.41519 0.54692 0.0
H1529 H 0.36845 0.33826 0.54831 0.0
H1530 H 0.34269 0.32001 0.5781 0.0
H1531 H 0.31005 0.37081 0.59103 0.0
H1532 H 0.33549 0.38932 0.56086 0.0
H1533 H 0.43611 0.36726 0.39045 0.0
H1534 H 0.42597 0.37193 0.45619 0.0
H1535 H 0.36796 0.37671 0.41893 0.0
H1536 H 0.37788 0.37187 0.35373 0.0
H1537 H 0.37006 0.35837 0.4855 0.0
H1538 H 0.39392 0.41576 0.42964 0.0
H1539 H 0.4177 0.43553 0.39726 0.0
H1540 H 0.45654 0.42695 0.48939 0.0
H1541 H 0.43306 0.40689 0.52206 0.0
C1542 C 0.36454 0.42168 0.63829 0.0
C1543 C 0.36758 0.40859 0.6677 0.0
C1544 C 0.36715 0.41628 0.60057 0.0
C1545 C 0.37265 0.39771 0.59175 0.0
C1546 C 0.37499 0.38449 0.62102 0.0
C1547 C 0.37238 0.38983 0.65853 0.0
C1548 C 0.37742 0.39236 0.55242 0.0
C1549 C 0.39138 0.40282 0.53346 0.0
C1550 C 0.36946 0.37625 0.5348 0.0
C1551 C 0.35397 0.3652 0.5526 0.0
C1552 C 0.35574 0.34552 0.55735 0.0
C1553 C 0.3412 0.33513 0.57434 0.0
C1554 C 0.32477 0.34425 0.58655 0.0
C1555 C 0.32282 0.36377 0.58169 0.0
C1556 C 0.33731 0.37423 0.5647 0.0
C1557 C 0.42117 0.36883 0.39647 0.0
C1558 C 0.40782 0.36947 0.36697 0.0
C1559 C 0.41541 0.37161 0.43392 0.0
C1560 C 0.39625 0.375 0.44223 0.0
C1561 C 0.3828 0.37421 0.41311 0.0
C1562 C 0.38853 0.37153 0.37583 0.0
C1563 C 0.39026 0.38104 0.48043 0.0
C1564 C 0.37611 0.37072 0.49911 0.0
C1565 C 0.39775 0.3975 0.49751 0.0
C1566 C 0.41182 0.40968 0.47809 0.0
C1567 C 0.40758 0.41799 0.44286 0.0
C1568 C 0.421 0.42925 0.42447 0.0
C1569 C 0.43864 0.43245 0.4412 0.0
C1570 C 0.44288 0.42443 0.47643 0.0
C1571 C 0.42953 0.41312 0.4949 0.0
H1572 H 0.44901 0.44118 0.42692 0.0
H1573 H 0.31353 0.33618 0.59971 0.0
H1574 H 0.64027 0.93503 0.63706 0.0
H1575 H 0.63477 0.92638 0.70361 0.0
H1576 H 0.59505 0.88356 0.6685 0.0
H1577 H 0.60048 0.89184 0.60258 0.0
H1578 H 0.58133 0.90743 0.72572 0.0
H1579 H 0.63648 0.86981 0.69633 0.0
H1580 H 0.6692 0.8648 0.67437 0.0
H1581 H 0.68997 0.90128 0.76207 0.0
H1582 H 0.65732 0.90671 0.78424 0.0
H1583 H 0.56649 0.86124 0.90205 0.0
H1584 H 0.57383 0.86699 0.83516 0.0
H1585 H 0.62097 0.90219 0.86785 0.0
H1586 H 0.61422 0.89607 0.93402 0.0
H1587 H 0.63105 0.88185 0.81098 0.0
H1588 H 0.57735 0.92083 0.83995 0.0
H1589 H 0.54504 0.92768 0.8624 0.0
H1590 H 0.52198 0.89142 0.77662 0.0
H1591 H 0.55419 0.88416 0.75397 0.0
C1592 C 0.63046 0.92372 0.64358 0.0
C1593 C 0.62086 0.91412 0.6145 0.0
C1594 C 0.62735 0.91878 0.68151 0.0
C1595 C 0.61451 0.90433 0.69079 0.0
C1596 C 0.60498 0.89477 0.66186 0.0
C1597 C 0.6082 0.8995 0.62415 0.0
C1598 C 0.61059 0.89924 0.73063 0.0
C1599 C 0.59213 0.90165 0.74433 0.0
C1600 C 0.62481 0.89211 0.75493 0.0
C1601 C 0.64444 0.88883 0.74167 0.0
C1602 C 0.64801 0.8769 0.71071 0.0
C1603 C 0.66654 0.87396 0.69828 0.0
C1604 C 0.68165 0.88276 0.71674 0.0
C1605 C 0.67825 0.89449 0.74776 0.0
C1606 C 0.65973 0.8975 0.76028 0.0
C1607 C 0.57849 0.87006 0.89491 0.0
C1608 C 0.58969 0.87824 0.92343 0.0
C1609 C 0.58262 0.87343 0.85671 0.0
C1610 C 0.59781 0.88526 0.84649 0.0
C1611 C 0.60922 0.89301 0.87496 0.0
C1612 C 0.60525 0.88951 0.91291 0.0
C1613 C 0.60172 0.89006 0.80634 0.0
C1614 C 0.6202 0.88761 0.79249 0.0
C1615 C 0.58756 0.89744 0.78203 0.0
C1616 C 0.56818 0.90179 0.79555 0.0
C1617 C 0.5654 0.9142 0.82607 0.0
C1618 C 0.5471 0.91818 0.83879 0.0
C1619 C 0.53147 0.90995 0.82102 0.0
C1620 C 0.5341 0.89776 0.79041 0.0
C1621 C 0.55237 0.89372 0.7776 0.0
H1622 H 0.51732 0.91304 0.83091 0.0
H1623 H 0.696 0.88046 0.70708 0.0
H1624 H 0.07581 0.36187 0.40143 0.0
H1625 H 0.08254 0.36896 0.33491 0.0
H1626 H 0.13794 0.38944 0.36581 0.0
H1627 H 0.13142 0.38247 0.43205 0.0
H1628 H 0.11833 0.41509 0.32405 0.0
H1629 H 0.13408 0.34943 0.3166 0.0
H1630 H 0.12915 0.31516 0.32501 0.0
H1631 H 0.08033 0.31752 0.25255 0.0
H1632 H 0.0848 0.35187 0.24412 0.0
H1633 H 0.1429 0.43323 0.12949 0.0
H1634 H 0.14328 0.42264 0.19583 0.0
H1635 H 0.08958 0.39474 0.17905 0.0
H1636 H 0.08942 0.40468 0.11318 0.0
H1637 H 0.11253 0.37193 0.21429 0.0
H1638 H 0.09434 0.43761 0.22752 0.0
H1639 H 0.09823 0.47208 0.21994 0.0
H1640 H 0.15049 0.4698 0.2821 0.0
H1641 H 0.14701 0.43526 0.28965 0.0
C1642 C 0.08956 0.36751 0.39397 0.0
C1643 C 0.10299 0.37177 0.4221 0.0
C1644 C 0.09339 0.37155 0.35597 0.0
C1645 C 0.11072 0.37979 0.34555 0.0
C1646 C 0.12445 0.38319 0.37333 0.0
C1647 C 0.12067 0.37915 0.41119 0.0
C1648 C 0.11396 0.38628 0.30624 0.0
C1649 C 0.1174 0.4056 0.30002 0.0
C1650 C 0.11241 0.37395 0.27503 0.0
C1651 C 0.10969 0.35327 0.27999 0.0
C1652 C 0.1222 0.34268 0.30271 0.0
C1653 C 0.11951 0.32322 0.30743 0.0
C1654 C 0.10442 0.31417 0.28939 0.0
C1655 C 0.09201 0.32455 0.26653 0.0
C1656 C 0.09463 0.34401 0.26173 0.0
C1657 C 0.13114 0.42499 0.14021 0.0
C1658 C 0.1162 0.41969 0.11618 0.0
C1659 C 0.13135 0.41895 0.17803 0.0
C1660 C 0.11644 0.40786 0.19239 0.0
C1661 C 0.10133 0.40307 0.16855 0.0
C1662 C 0.10123 0.40885 0.1309 0.0
C1663 C 0.11643 0.40084 0.23198 0.0
C1664 C 0.11366 0.3814 0.2383 0.0
C1665 C 0.11844 0.41309 0.2633 0.0
C1666 C 0.12053 0.43384 0.25874 0.0
C1667 C 0.10674 0.44444 0.2393 0.0
C1668 C 0.10885 0.46399 0.23506 0.0
C1669 C 0.12463 0.47311 0.25042 0.0
C1670 C 0.1383 0.46271 0.27015 0.0
C1671 C 0.13626 0.44315 0.27443 0.0
H1672 H 0.12624 0.48825 0.24712 0.0
H1673 H 0.10236 0.29911 0.29308 0.0
H1674 H 0.5934 0.60732 0.701 0.0
H1675 H 0.5873 0.61924 0.63732 0.0
H1676 H 0.63503 0.58774 0.59523 0.0
H1677 H 0.64109 0.57526 0.65923 0.0
H1678 H 0.63042 0.62965 0.57202 0.0
H1679 H 0.59845 0.56894 0.57539 0.0
H1680 H 0.57667 0.54487 0.60101 0.0
H1681 H 0.5305 0.58421 0.59341 0.0
H1682 H 0.55208 0.60861 0.56817 0.0
H1683 H 0.61631 0.62453 0.37572 0.0
H1684 H 0.62264 0.62182 0.44304 0.0
H1685 H 0.56532 0.63893 0.46749 0.0
H1686 H 0.55867 0.64126 0.39945 0.0
H1687 H 0.5735 0.60727 0.50288 0.0
H1688 H 0.60355 0.6668 0.49281 0.0
H1689 H 0.62434 0.69152 0.46647 0.0
H1690 H 0.673 0.65666 0.48773 0.0
H1691 H 0.65249 0.63159 0.5137 0.0
C1692 C 0.60272 0.60297 0.67833 0.0
C1693 C 0.61776 0.59033 0.68512 0.0
C1694 C 0.59916 0.60979 0.64198 0.0
C1695 C 0.61071 0.60434 0.61182 0.0
C1696 C 0.62601 0.59208 0.6184 0.0
C1697 C 0.6294 0.58493 0.6548 0.0
C1698 C 0.60631 0.61111 0.57326 0.0
C1699 C 0.61814 0.62465 0.55654 0.0
C1700 C 0.58979 0.60514 0.55414 0.0
C1701 C 0.57692 0.59066 0.57031 0.0
C1702 C 0.58371 0.57254 0.57967 0.0
C1703 C 0.57139 0.55882 0.59398 0.0
C1704 C 0.55222 0.56301 0.59882 0.0
C1705 C 0.54535 0.58098 0.58962 0.0
C1706 C 0.55762 0.59476 0.5753 0.0
C1707 C 0.60509 0.62806 0.39532 0.0
C1708 C 0.5869 0.6329 0.3822 0.0
C1709 C 0.60881 0.62666 0.43394 0.0
C1710 C 0.5945 0.63027 0.46039 0.0
C1711 C 0.57658 0.6361 0.44751 0.0
C1712 C 0.57282 0.6375 0.40867 0.0
C1713 C 0.59781 0.62569 0.50086 0.0
C1714 C 0.58572 0.61254 0.51822 0.0
C1715 C 0.61399 0.63222 0.52066 0.0
C1716 C 0.62643 0.64724 0.50498 0.0
C1717 C 0.61866 0.66433 0.49159 0.0
C1718 C 0.63041 0.67843 0.47678 0.0
C1719 C 0.64997 0.67565 0.47537 0.0
C1720 C 0.65784 0.65879 0.48884 0.0
C1721 C 0.64616 0.64464 0.50366 0.0
H1722 H 0.65904 0.68659 0.4639 0.0
H1723 H 0.54265 0.5523 0.60945 0.0
H1724 H 0.3609 0.06401 0.63551 0.0
H1725 H 0.36714 0.0711 0.70239 0.0
H1726 H 0.39884 0.1206 0.66963 0.0
H1727 H 0.39265 0.11385 0.60332 0.0
H1728 H 0.41824 0.09683 0.71986 0.0
H1729 H 0.35717 0.12668 0.70645 0.0
H1730 H 0.32319 0.12776 0.69046 0.0
H1731 H 0.31188 0.08464 0.77323 0.0
H1732 H 0.34585 0.08311 0.78934 0.0
H1733 H 0.43331 0.13725 0.90164 0.0
H1734 H 0.42465 0.13246 0.8351 0.0
H1735 H 0.38517 0.0889 0.8682 0.0
H1736 H 0.39323 0.09397 0.93427 0.0
H1737 H 0.36947 0.10997 0.8171 0.0
H1738 H 0.42947 0.07872 0.82997 0.0
H1739 H 0.46335 0.07596 0.84602 0.0
H1740 H 0.4767 0.11919 0.76471 0.0
H1741 H 0.44285 0.12238 0.74853 0.0
C1742 C 0.36901 0.07651 0.6426 0.0
C1743 C 0.37631 0.08831 0.61402 0.0
C1744 C 0.37255 0.08054 0.68076 0.0
C1745 C 0.3835 0.09634 0.69078 0.0
C1746 C 0.39044 0.1083 0.6624 0.0
C1747 C 0.3868 0.10441 0.62447 0.0
C1748 C 0.38844 0.10015 0.73072 0.0
C1749 C 0.40761 0.09992 0.74111 0.0
C1750 C 0.37451 0.10371 0.75842 0.0
C1751 C 0.35408 0.10464 0.7488 0.0
C1752 C 0.34746 0.11731 0.72099 0.0
C1753 C 0.3282 0.11803 0.71196 0.0
C1754 C 0.31539 0.10624 0.73074 0.0
C1755 C 0.32182 0.09374 0.75866 0.0
C1756 C 0.34108 0.09295 0.76778 0.0
C1757 C 0.42278 0.12668 0.89466 0.0
C1758 C 0.41397 0.11601 0.92325 0.0
C1759 C 0.41789 0.1239 0.85665 0.0
C1760 C 0.40437 0.11018 0.84662 0.0
C1761 C 0.39556 0.09961 0.8752 0.0
C1762 C 0.40025 0.10252 0.91303 0.0
C1763 C 0.39934 0.10663 0.80647 0.0
C1764 C 0.38014 0.1069 0.79596 0.0
C1765 C 0.41325 0.10284 0.77871 0.0
C1766 C 0.43361 0.10093 0.78835 0.0
C1767 C 0.43962 0.08774 0.81573 0.0
C1768 C 0.45881 0.08608 0.82481 0.0
C1769 C 0.47216 0.09743 0.80648 0.0
C1770 C 0.46634 0.11043 0.77894 0.0
C1771 C 0.44715 0.11216 0.76979 0.0
H1772 H 0.48702 0.09612 0.81354 0.0
H1773 H 0.30048 0.10682 0.72371 0.0
H1774 H 0.86036 0.93193 0.14988 0.0
H1775 H 0.86572 0.9211 0.08487 0.0
H1776 H 0.89264 0.87058 0.12744 0.0
H1777 H 0.88733 0.88107 0.19204 0.0
H1778 H 0.91453 0.88972 0.07551 0.0
H1779 H 0.85105 0.86665 0.08685 0.0
H1780 H 0.8169 0.86873 0.10051 0.0
H1781 H 0.81031 0.91057 0.01311 0.0
H1782 H 0.84449 0.90894 -0.00073 0.0
H1783 H 0.92899 0.85147 0.89035 0.0
H1784 H 0.9196 0.85453 0.95696 0.0
H1785 H 0.88449 0.90241 0.92794 0.0
H1786 H 0.89326 0.89916 0.86199 0.0
H1787 H 0.86626 0.88088 0.97501 0.0
H1788 H 0.92946 0.90703 0.96842 0.0
H1789 H 0.96372 0.9064 0.95509 0.0
H1790 H 0.97089 0.8605 0.03371 0.0
H1791 H 0.93662 0.86071 0.04715 0.0
C1792 C 0.86714 0.91838 0.14539 0.0
C1793 C 0.87354 0.90747 0.1762 0.0
C1794 C 0.87017 0.91221 0.10827 0.0
C1795 C 0.87963 0.89507 0.10148 0.0
C1796 C 0.8854 0.88388 0.13213 0.0
C1797 C 0.8823 0.88994 0.16907 0.0
C1798 C 0.88472 0.88937 0.06255 0.0
C1799 C 0.90397 0.88748 0.05362 0.0
C1800 C 0.87094 0.88678 0.03402 0.0
C1801 C 0.85037 0.88779 0.04226 0.0
C1802 C 0.84235 0.87642 0.07076 0.0
C1803 C 0.82298 0.87749 0.07849 0.0
C1804 C 0.81145 0.88981 0.05775 0.0
C1805 C 0.81926 0.90105 0.02918 0.0
C1806 C 0.83863 0.90004 0.02135 0.0
C1807 C 0.91926 0.8626 0.89827 0.0
C1808 C 0.9119 0.87505 0.87085 0.0
C1809 C 0.91392 0.86437 0.9363 0.0
C1810 C 0.90141 0.87879 0.94747 0.0
C1811 C 0.89404 0.8911 0.92003 0.0
C1812 C 0.89917 0.88924 0.88224 0.0
C1813 C 0.89613 0.88159 -0.01231 0.0
C1814 C 0.87683 0.88292 -0.00306 0.0
C1815 C 0.90988 0.88387 0.01649 0.0
C1816 C 0.93046 0.88373 0.00843 0.0
C1817 C 0.93833 0.89671 0.98263 0.0
C1818 C 0.95775 0.89644 0.9751 0.0
C1819 C 0.96947 0.88337 -0.00655 0.0
C1820 C 0.9618 0.87058 0.01945 0.0
C1821 C 0.94238 0.87077 0.02705 0.0
H1822 H 0.9845 0.8832 -0.01241 0.0
H1823 H 0.79646 0.89062 0.06378 0.0
loop_
_geom_bond_atom_site_label_1
_geom_bond_atom_site_label_2
_geom_bond_distance
_geom_bond_site_symmetry_2
_ccdc_geom_bond_type
C0 O1 1.306 . S
C0 O3 1.160 . S
O1 C0 1.306 . S
O1 Cd2 2.228 . S
Cd2 O1 2.228 . S
Cd2 O6 2.273 . S
Cd2 O10 2.277 . S
O3 C0 1.160 . S
O3 Cd4 2.203 . S
Cd4 O3 2.203 . S
Cd4 O6 2.411 . S
Cd4 O7 2.333 . S
Cd4 O8 2.352 . S
Cd4 O12 2.277 . S
Cd4 O13 2.356 . S
C5 O10 1.209 . S
C5 O12 1.226 . S
O6 Cd2 2.273 . S
O6 Cd4 2.411 . S
O6 C9 1.320 . S
O7 Cd4 2.333 . S
O7 C9 1.214 . S
O8 Cd4 2.352 . S
O8 C11 1.258 . S
C9 O6 1.320 . S
C9 O7 1.214 . S
O10 Cd2 2.277 . S
O10 C5 1.209 . S
C11 O8 1.258 . S
C11 O13 1.282 . S
O12 Cd4 2.277 . S
O12 C5 1.226 . S
O13 Cd4 2.356 . S
O13 C11 1.282 . S
C14 O15 1.306 . S
C14 O17 1.160 . S
O15 C14 1.306 . S
O15 Cd16 2.228 . S
Cd16 O15 2.228 . S
Cd16 O20 2.273 . S
Cd16 O24 2.277 . S
O17 C14 1.160 . S
O17 Cd18 2.203 . S
Cd18 O17 2.203 . S
Cd18 O20 2.411 . S
Cd18 O21 2.333 . S
Cd18 O22 2.352 . S
Cd18 O26 2.277 . S
Cd18 O27 2.356 . S
C19 O24 1.209 . S
C19 O26 1.226 . S
O20 Cd16 2.273 . S
O20 Cd18 2.411 . S
O20 C23 1.320 . S
O21 Cd18 2.333 . S
O21 C23 1.214 . S
O22 Cd18 2.352 . S
O22 C25 1.258 . S
C23 O20 1.320 . S
C23 O21 1.214 . S
O24 Cd16 2.277 . S
O24 C19 1.209 . S
C25 O22 1.258 . S
C25 O27 1.282 . S
O26 Cd18 2.277 . S
O26 C19 1.226 . S
O27 Cd18 2.356 . S
O27 C25 1.282 . S
C28 O29 1.306 . S
C28 O31 1.160 . S
O29 C28 1.306 . S
O29 Cd30 2.228 . S
Cd30 O29 2.228 . S
Cd30 O34 2.273 . S
Cd30 O38 2.277 . S
O31 C28 1.160 . S
O31 Cd32 2.203 . S
Cd32 O31 2.203 . S
Cd32 O34 2.411 . S
Cd32 O35 2.333 . S
Cd32 O36 2.352 . S
Cd32 O40 2.277 . S
Cd32 O41 2.356 . S
C33 O38 1.209 . S
C33 O40 1.226 . S
O34 Cd30 2.273 . S
O34 Cd32 2.411 . S
O34 C37 1.320 . S
O35 Cd32 2.333 . S
O35 C37 1.214 . S
O36 Cd32 2.352 . S
O36 C39 1.258 . S
C37 O34 1.320 . S
C37 O35 1.214 . S
O38 Cd30 2.277 . S
O38 C33 1.209 . S
C39 O36 1.258 . S
C39 O41 1.282 . S
O40 Cd32 2.277 . S
O40 C33 1.226 . S
O41 Cd32 2.356 . S
O41 C39 1.282 . S
C42 O43 1.306 1_556 S
C42 O45 1.152 1_556 S
O43 C42 1.306 1_554 S
O43 Cd44 2.228 . S
Cd44 O43 2.228 . S
Cd44 O48 2.273 . S
Cd44 O52 2.277 . S
O45 C42 1.152 1_554 S
O45 Cd46 2.225 . S
Cd46 O45 2.225 . S
Cd46 O48 2.411 . S
Cd46 O49 2.333 . S
Cd46 O50 2.352 . S
Cd46 O54 2.277 . S
Cd46 O55 2.356 . S
C47 O52 1.209 . S
C47 O54 1.226 . S
O48 Cd44 2.273 . S
O48 Cd46 2.411 . S
O48 C51 1.320 . S
O49 Cd46 2.333 . S
O49 C51 1.214 . S
O50 Cd46 2.352 . S
O50 C53 1.258 . S
C51 O48 1.320 . S
C51 O49 1.214 . S
O52 Cd44 2.277 . S
O52 C47 1.209 . S
C53 O50 1.258 . S
C53 O55 1.282 . S
O54 Cd46 2.277 . S
O54 C47 1.226 . S
O55 Cd46 2.356 . S
O55 C53 1.282 . S
C56 O57 1.306 . S
C56 O59 1.160 . S
O57 C56 1.306 . S
O57 Cd58 2.228 . S
Cd58 O57 2.228 . S
Cd58 O62 2.273 1_554 S
Cd58 O66 2.277 . S
O59 C56 1.160 . S
O59 Cd60 2.203 . S
Cd60 O59 2.203 . S
Cd60 O62 2.411 1_554 S
Cd60 O63 2.333 1_554 S
Cd60 O64 2.352 . S
Cd60 O68 2.277 . S
Cd60 O69 2.356 1_554 S
C61 O66 1.209 . S
C61 O68 1.226 . S
O62 Cd58 2.273 1_556 S
O62 Cd60 2.411 1_556 S
O62 C65 1.320 . S
O63 Cd60 2.333 1_556 S
O63 C65 1.214 . S
O64 Cd60 2.352 . S
O64 C67 1.258 1_554 S
C65 O62 1.320 . S
C65 O63 1.214 . S
O66 Cd58 2.277 . S
O66 C61 1.209 . S
C67 O64 1.258 1_556 S
C67 O69 1.282 . S
O68 Cd60 2.277 . S
O68 C61 1.226 . S
O69 Cd60 2.356 1_556 S
O69 C67 1.282 . S
C70 O71 1.306 . S
C70 O73 1.160 . S
O71 C70 1.306 . S
O71 Cd72 2.228 . S
Cd72 O71 2.228 . S
Cd72 O76 2.273 . S
Cd72 O80 2.277 . S
O73 C70 1.160 . S
O73 Cd74 2.203 . S
Cd74 O73 2.203 . S
Cd74 O76 2.411 . S
Cd74 O77 2.333 . S
Cd74 O78 2.352 . S
Cd74 O82 2.277 . S
Cd74 O83 2.356 . S
C75 O80 1.209 . S
C75 O82 1.226 . S
O76 Cd72 2.273 . S
O76 Cd74 2.411 . S
O76 C79 1.320 . S
O77 Cd74 2.333 . S
O77 C79 1.214 . S
O78 Cd74 2.352 . S
O78 C81 1.258 . S
C79 O76 1.320 . S
C79 O77 1.214 . S
O80 Cd72 2.277 . S
O80 C75 1.209 . S
C81 O78 1.258 . S
C81 O83 1.282 . S
O82 Cd74 2.277 . S
O82 C75 1.226 . S
O83 Cd74 2.356 . S
O83 C81 1.282 . S
C84 O85 1.306 . S
C84 O87 1.160 . S
O85 C84 1.306 . S
O85 Cd86 2.228 . S
Cd86 O85 2.228 . S
Cd86 O90 2.273 . S
Cd86 O94 2.277 . S
O87 C84 1.160 . S
O87 Cd88 2.203 . S
Cd88 O87 2.203 . S
Cd88 O90 2.411 . S
Cd88 O91 2.333 . S
Cd88 O92 2.352 . S
Cd88 O96 2.277 . S
Cd88 O97 2.356 . S
C89 O94 1.209 . S
C89 O96 1.226 . S
O90 Cd86 2.273 . S
O90 Cd88 2.411 . S
O90 C93 1.320 . S
O91 Cd88 2.333 . S
O91 C93 1.214 . S
O92 Cd88 2.352 . S
O92 C95 1.258 . S
C93 O90 1.320 . S
C93 O91 1.214 . S
O94 Cd86 2.277 . S
O94 C89 1.209 . S
C95 O92 1.258 . S
C95 O97 1.282 . S
O96 Cd88 2.277 . S
O96 C89 1.226 . S
O97 Cd88 2.356 . S
O97 C95 1.282 . S
C98 O99 1.306 . S
C98 O101 1.160 . S
O99 C98 1.306 . S
O99 Cd100 2.228 . S
Cd100 O99 2.228 . S
Cd100 O104 2.273 . S
Cd100 O108 2.277 . S
O101 C98 1.160 . S
O101 Cd102 2.203 . S
Cd102 O101 2.203 . S
Cd102 O104 2.411 . S
Cd102 O105 2.333 . S
Cd102 O106 2.352 . S
Cd102 O110 2.277 . S
Cd102 O111 2.356 . S
C103 O108 1.209 . S
C103 O110 1.226 . S
O104 Cd100 2.273 . S
O104 Cd102 2.411 . S
O104 C107 1.320 . S
O105 Cd102 2.333 . S
O105 C107 1.214 . S
O106 Cd102 2.352 . S
O106 C109 1.258 . S
C107 O104 1.320 . S
C107 O105 1.214 . S
O108 Cd100 2.277 . S
O108 C103 1.209 . S
C109 O106 1.258 . S
C109 O111 1.282 . S
O110 Cd102 2.277 . S
O110 C103 1.226 . S
O111 Cd102 2.356 . S
O111 C109 1.282 . S
C112 O113 1.306 . S
C112 O115 1.160 . S
O113 C112 1.306 . S
O113 Cd114 2.228 . S
Cd114 O113 2.228 . S
Cd114 O118 2.273 . S
Cd114 O122 2.277 . S
O115 C112 1.160 . S
O115 Cd116 2.203 . S
Cd116 O115 2.203 . S
Cd116 O118 2.411 . S
Cd116 O119 2.333 . S
Cd116 O120 2.352 . S
Cd116 O124 2.277 . S
Cd116 O125 2.356 . S
C117 O122 1.209 . S
C117 O124 1.226 . S
O118 Cd114 2.273 . S
O118 Cd116 2.411 . S
O118 C121 1.320 . S
O119 Cd116 2.333 . S
O119 C121 1.214 . S
O120 Cd116 2.352 . S
O120 C123 1.258 . S
C121 O118 1.320 . S
C121 O119 1.214 . S
O122 Cd114 2.277 . S
O122 C117 1.209 . S
C123 O120 1.258 . S
C123 O125 1.282 . S
O124 Cd116 2.277 . S
O124 C117 1.226 . S
O125 Cd116 2.356 . S
O125 C123 1.282 . S
C126 O127 1.306 1_556 S
C126 O129 1.152 1_556 S
O127 C126 1.306 1_554 S
O127 Cd128 2.228 . S
Cd128 O127 2.228 . S
Cd128 O132 2.273 . S
Cd128 O136 2.277 . S
O129 C126 1.152 1_554 S
O129 Cd130 2.225 . S
Cd130 O129 2.225 . S
Cd130 O132 2.411 . S
Cd130 O133 2.333 . S
Cd130 O134 2.352 . S
Cd130 O138 2.277 . S
Cd130 O139 2.356 . S
C131 O136 1.209 . S
C131 O138 1.226 . S
O132 Cd128 2.273 . S
O132 Cd130 2.411 . S
O132 C135 1.320 . S
O133 Cd130 2.333 . S
O133 C135 1.214 . S
O134 Cd130 2.352 . S
O134 C137 1.258 . S
C135 O132 1.320 . S
C135 O133 1.214 . S
O136 Cd128 2.277 . S
O136 C131 1.209 . S
C137 O134 1.258 . S
C137 O139 1.282 . S
O138 Cd130 2.277 . S
O138 C131 1.226 . S
O139 Cd130 2.356 . S
O139 C137 1.282 . S
C140 O141 1.306 . S
C140 O143 1.160 . S
O141 C140 1.306 . S
O141 Cd142 2.228 . S
Cd142 O141 2.228 . S
Cd142 O146 2.273 . S
Cd142 O150 2.277 . S
O143 C140 1.160 . S
O143 Cd144 2.203 . S
Cd144 O143 2.203 . S
Cd144 O146 2.411 . S
Cd144 O147 2.333 . S
Cd144 O148 2.352 . S
Cd144 O152 2.277 . S
Cd144 O153 2.356 . S
C145 O150 1.209 . S
C145 O152 1.226 . S
O146 Cd142 2.273 . S
O146 Cd144 2.411 . S
O146 C149 1.320 . S
O147 Cd144 2.333 . S
O147 C149 1.214 . S
O148 Cd144 2.352 . S
O148 C151 1.258 . S
C149 O146 1.320 . S
C149 O147 1.214 . S
O150 Cd142 2.277 . S
O150 C145 1.209 . S
C151 O148 1.258 . S
C151 O153 1.282 . S
O152 Cd144 2.277 . S
O152 C145 1.226 . S
O153 Cd144 2.356 . S
O153 C151 1.282 . S
C154 O155 1.306 . S
C154 O157 1.160 . S
O155 C154 1.306 . S
O155 Cd156 2.228 . S
Cd156 O155 2.228 . S
Cd156 O160 2.273 . S
Cd156 O164 2.277 . S
O157 C154 1.160 . S
O157 Cd158 2.203 . S
Cd158 O157 2.203 . S
Cd158 O160 2.411 . S
Cd158 O161 2.333 . S
Cd158 O162 2.352 . S
Cd158 O166 2.277 . S
Cd158 O167 2.356 . S
C159 O164 1.209 . S
C159 O166 1.226 . S
O160 Cd156 2.273 . S
O160 Cd158 2.411 . S
O160 C163 1.320 . S
O161 Cd158 2.333 . S
O161 C163 1.214 . S
O162 Cd158 2.352 . S
O162 C165 1.258 . S
C163 O160 1.320 . S
C163 O161 1.214 . S
O164 Cd156 2.277 . S
O164 C159 1.209 . S
C165 O162 1.258 . S
C165 O167 1.282 . S
O166 Cd158 2.277 . S
O166 C159 1.226 . S
O167 Cd158 2.356 . S
O167 C165 1.282 . S
C168 O169 1.306 . S
C168 O171 1.160 . S
O169 C168 1.306 . S
O169 Cd170 2.228 . S
Cd170 O169 2.228 . S
Cd170 O174 2.273 . S
Cd170 O178 2.277 . S
O171 C168 1.160 . S
O171 Cd172 2.203 . S
Cd172 O171 2.203 . S
Cd172 O174 2.411 . S
Cd172 O175 2.333 . S
Cd172 O176 2.352 . S
Cd172 O180 2.277 . S
Cd172 O181 2.356 . S
C173 O178 1.209 . S
C173 O180 1.226 . S
O174 Cd170 2.273 . S
O174 Cd172 2.411 . S
O174 C177 1.320 . S
O175 Cd172 2.333 . S
O175 C177 1.214 . S
O176 Cd172 2.352 . S
O176 C179 1.258 . S
C177 O174 1.320 . S
C177 O175 1.214 . S
O178 Cd170 2.277 . S
O178 C173 1.209 . S
C179 O176 1.258 . S
C179 O181 1.282 . S
O180 Cd172 2.277 . S
O180 C173 1.226 . S
O181 Cd172 2.356 . S
O181 C179 1.282 . S
C182 O183 1.306 . S
C182 O185 1.160 . S
O183 C182 1.306 . S
O183 Cd184 2.228 . S
Cd184 O183 2.228 . S
Cd184 O188 2.273 . S
Cd184 O192 2.277 . S
O185 C182 1.160 . S
O185 Cd186 2.203 . S
Cd186 O185 2.203 . S
Cd186 O188 2.411 . S
Cd186 O189 2.333 . S
Cd186 O190 2.352 . S
Cd186 O194 2.277 . S
Cd186 O195 2.356 . S
C187 O192 1.209 . S
C187 O194 1.226 . S
O188 Cd184 2.273 . S
O188 Cd186 2.411 . S
O188 C191 1.320 . S
O189 Cd186 2.333 . S
O189 C191 1.214 . S
O190 Cd186 2.352 . S
O190 C193 1.258 . S
C191 O188 1.320 . S
C191 O189 1.214 . S
O192 Cd184 2.277 . S
O192 C187 1.209 . S
C193 O190 1.258 . S
C193 O195 1.282 . S
O194 Cd186 2.277 . S
O194 C187 1.226 . S
O195 Cd186 2.356 . S
O195 C193 1.282 . S
C196 O197 1.306 . S
C196 O199 1.160 . S
O197 C196 1.306 . S
O197 Cd198 2.228 . S
Cd198 O197 2.228 . S
Cd198 O202 2.273 1_554 S
Cd198 O206 2.277 . S
O199 C196 1.160 . S
O199 Cd200 2.203 . S
Cd200 O199 2.203 . S
Cd200 O202 2.411 1_554 S
Cd200 O203 2.333 1_554 S
Cd200 O204 2.352 . S
Cd200 O208 2.277 . S
Cd200 O209 2.356 1_554 S
C201 O206 1.209 . S
C201 O208 1.226 . S
O202 Cd198 2.273 1_556 S
O202 Cd200 2.411 1_556 S
O202 C205 1.320 . S
O203 Cd200 2.333 1_556 S
O203 C205 1.214 . S
O204 Cd200 2.352 . S
O204 C207 1.258 1_554 S
C205 O202 1.320 . S
C205 O203 1.214 . S
O206 Cd198 2.277 . S
O206 C201 1.209 . S
C207 O204 1.258 1_556 S
C207 O209 1.282 . S
O208 Cd200 2.277 . S
O208 C201 1.226 . S
O209 Cd200 2.356 1_556 S
O209 C207 1.282 . S
C210 O211 1.306 . S
C210 O213 1.160 . S
O211 C210 1.306 . S
O211 Cd212 2.228 . S
Cd212 O211 2.228 . S
Cd212 O216 2.273 . S
Cd212 O220 2.277 . S
O213 C210 1.160 . S
O213 Cd214 2.203 . S
Cd214 O213 2.203 . S
Cd214 O216 2.411 . S
Cd214 O217 2.333 . S
Cd214 O218 2.352 . S
Cd214 O222 2.277 . S
Cd214 O223 2.356 . S
C215 O220 1.209 . S
C215 O222 1.226 . S
O216 Cd212 2.273 . S
O216 Cd214 2.411 . S
O216 C219 1.320 . S
O217 Cd214 2.333 . S
O217 C219 1.214 . S
O218 Cd214 2.352 . S
O218 C221 1.258 . S
C219 O216 1.320 . S
C219 O217 1.214 . S
O220 Cd212 2.277 . S
O220 C215 1.209 . S
C221 O218 1.258 . S
C221 O223 1.282 . S
O222 Cd214 2.277 . S
O222 C215 1.226 . S
O223 Cd214 2.356 . S
O223 C221 1.282 . S
H224 C242 0.951 . S
H225 C244 0.951 . S
H226 C246 0.950 . S
H227 C247 0.950 . S
H228 C249 0.950 . S
H229 C252 0.950 . S
H230 C253 0.950 . S
H231 C255 0.950 . S
H232 C256 0.950 . S
H233 C257 0.951 . S
H234 C259 0.951 . S
H235 C261 0.950 . S
H236 C262 0.950 . S
H237 C264 0.950 . S
H238 C267 0.950 . S
H239 C268 0.950 . S
H240 C270 0.950 . S
H241 C271 0.950 . S
C242 H224 0.951 . S
C242 C243 1.366 . S
C242 C244 1.388 . S
C243 C242 1.366 . S
C243 C247 1.385 . S
C244 H225 0.951 . S
C244 C242 1.388 . S
C244 C245 1.366 . S
C245 C244 1.366 . S
C245 C246 1.414 . S
C245 C248 1.499 . S
C246 H226 0.950 . S
C246 C245 1.414 . S
C246 C247 1.374 . S
C247 H227 0.950 . S
C247 C243 1.385 . S
C247 C246 1.374 . S
C248 C245 1.499 . S
C248 C249 1.373 . S
C248 C250 1.389 . S
C249 H228 0.950 . S
C249 C248 1.373 . S
C249 C265 1.377 . S
C250 C248 1.389 . S
C250 C251 1.524 . S
C250 C264 1.377 . S
C251 C250 1.524 . S
C251 C252 1.397 . S
C251 C256 1.363 . S
C252 H229 0.950 . S
C252 C251 1.397 . S
C252 C253 1.334 . S
C253 H230 0.950 . S
C253 C252 1.334 . S
C253 C254 1.287 . S
C254 C253 1.287 . S
C254 C255 1.524 . S
C254 H273 0.913 1_545 S
C255 H231 0.950 . S
C255 C254 1.524 . S
C255 C256 1.415 . S
C256 H232 0.950 . S
C256 C251 1.363 . S
C256 C255 1.415 . S
C257 H233 0.951 . S
C257 C258 1.366 . S
C257 C259 1.388 . S
C258 C257 1.366 . S
C258 C262 1.385 . S
C259 H234 0.951 . S
C259 C257 1.388 . S
C259 C260 1.366 . S
C260 C259 1.366 . S
C260 C261 1.414 . S
C260 C263 1.499 . S
C261 H235 0.950 . S
C261 C260 1.414 . S
C261 C262 1.374 . S
C262 H236 0.950 . S
C262 C258 1.385 . S
C262 C261 1.374 . S
C263 C260 1.499 . S
C263 C264 1.373 . S
C263 C265 1.389 . S
C264 H237 0.950 . S
C264 C250 1.377 . S
C264 C263 1.373 . S
C265 C249 1.377 . S
C265 C263 1.389 . S
C265 C266 1.524 . S
C266 C265 1.524 . S
C266 C267 1.397 . S
C266 C271 1.363 . S
C267 H238 0.950 . S
C267 C266 1.397 . S
C267 C268 1.334 . S
C268 H239 0.950 . S
C268 C267 1.334 . S
C268 C269 1.287 . S
C269 C268 1.287 . S
C269 C270 1.524 . S
C269 H272 0.999 . S
C270 H240 0.950 . S
C270 C269 1.524 . S
C270 C271 1.415 . S
C271 H241 0.950 . S
C271 C266 1.363 . S
C271 C270 1.415 . S
H272 C269 0.999 . S
H273 C254 0.913 1_565 S
H274 C292 0.951 . S
H275 C294 0.951 . S
H276 C296 0.950 . S
H277 C297 0.950 . S
H278 C299 0.950 . S
H279 C302 0.950 . S
H280 C303 0.950 . S
H281 C305 0.950 . S
H282 C306 0.950 . S
H283 C307 0.951 . S
H284 C309 0.951 . S
H285 C311 0.950 . S
H286 C312 0.950 . S
H287 C314 0.950 . S
H288 C317 0.950 . S
H289 C318 0.950 . S
H290 C320 0.950 . S
H291 C321 0.950 . S
C292 H274 0.951 . S
C292 C293 1.366 . S
C292 C294 1.388 . S
C293 C292 1.366 . S
C293 C297 1.385 . S
C294 H275 0.951 . S
C294 C292 1.388 . S
C294 C295 1.366 . S
C295 C294 1.366 . S
C295 C296 1.414 . S
C295 C298 1.499 . S
C296 H276 0.950 . S
C296 C295 1.414 . S
C296 C297 1.374 . S
C297 H277 0.950 . S
C297 C293 1.385 . S
C297 C296 1.374 . S
C298 C295 1.499 . S
C298 C299 1.373 . S
C298 C300 1.389 . S
C299 H278 0.950 . S
C299 C298 1.373 . S
C299 C315 1.377 . S
C300 C298 1.389 . S
C300 C301 1.524 . S
C300 C314 1.377 . S
C301 C300 1.524 . S
C301 C302 1.397 . S
C301 C306 1.363 . S
C302 H279 0.950 . S
C302 C301 1.397 . S
C302 C303 1.334 . S
C303 H280 0.950 . S
C303 C302 1.334 . S
C303 C304 1.287 . S
C304 C303 1.287 . S
C304 C305 1.524 . S
C304 H323 0.913 . S
C305 H281 0.950 . S
C305 C304 1.524 . S
C305 C306 1.415 . S
C306 H282 0.950 . S
C306 C301 1.363 . S
C306 C305 1.415 . S
C307 H283 0.951 . S
C307 C308 1.366 . S
C307 C309 1.388 . S
C308 C307 1.366 . S
C308 C312 1.385 . S
C309 H284 0.951 . S
C309 C307 1.388 . S
C309 C310 1.366 . S
C310 C309 1.366 . S
C310 C311 1.414 . S
C310 C313 1.499 . S
C311 H285 0.950 . S
C311 C310 1.414 . S
C311 C312 1.374 . S
C312 H286 0.950 . S
C312 C308 1.385 . S
C312 C311 1.374 . S
C313 C310 1.499 . S
C313 C314 1.373 . S
C313 C315 1.389 . S
C314 H287 0.950 . S
C314 C300 1.377 . S
C314 C313 1.373 . S
C315 C299 1.377 . S
C315 C313 1.389 . S
C315 C316 1.524 . S
C316 C315 1.524 . S
C316 C317 1.397 . S
C316 C321 1.363 . S
C317 H288 0.950 . S
C317 C316 1.397 . S
C317 C318 1.334 . S
C318 H289 0.950 . S
C318 C317 1.334 . S
C318 C319 1.287 . S
C319 C318 1.287 . S
C319 C320 1.524 . S
C319 H322 0.999 . S
C320 H290 0.950 . S
C320 C319 1.524 . S
C320 C321 1.415 . S
C321 H291 0.950 . S
C321 C316 1.363 . S
C321 C320 1.415 . S
H322 C319 0.999 . S
H323 C304 0.913 . S
H324 C342 0.951 . S
H325 C344 0.951 . S
H326 C346 0.950 . S
H327 C347 0.950 . S
H328 C349 0.950 . S
H329 C352 0.950 . S
H330 C353 0.950 . S
H331 C355 0.950 . S
H332 C356 0.950 . S
H333 C357 0.951 . S
H334 C359 0.937 1_554 S
H335 C361 0.950 . S
H336 C362 0.950 . S
H337 C364 0.950 . S
H338 C367 0.950 . S
H339 C368 0.950 . S
H340 C370 0.950 . S
H341 C371 0.950 . S
C342 H324 0.951 . S
C342 C343 1.366 . S
C342 C344 1.388 . S
C343 C342 1.366 . S
C343 C347 1.385 . S
C344 H325 0.951 . S
C344 C342 1.388 . S
C344 C345 1.366 . S
C345 C344 1.366 . S
C345 C346 1.414 . S
C345 C348 1.499 . S
C346 H326 0.950 . S
C346 C345 1.414 . S
C346 C347 1.374 . S
C347 H327 0.950 . S
C347 C343 1.385 . S
C347 C346 1.374 . S
C348 C345 1.499 . S
C348 C349 1.373 . S
C348 C350 1.389 . S
C349 H328 0.950 . S
C349 C348 1.373 . S
C349 C365 1.377 . S
C350 C348 1.389 . S
C350 C351 1.524 . S
C350 C364 1.377 . S
C351 C350 1.524 . S
C351 C352 1.397 . S
C351 C356 1.363 . S
C352 H329 0.950 . S
C352 C351 1.397 . S
C352 C353 1.334 . S
C353 H330 0.950 . S
C353 C352 1.334 . S
C353 C354 1.287 . S
C354 C353 1.287 . S
C354 C355 1.524 . S
C354 H373 0.913 . S
C355 H331 0.950 . S
C355 C354 1.524 . S
C355 C356 1.415 . S
C356 H332 0.950 . S
C356 C351 1.363 . S
C356 C355 1.415 . S
C357 H333 0.951 . S
C357 C358 1.366 1_554 S
C357 C359 1.388 1_554 S
C358 C357 1.366 1_556 S
C358 C362 1.385 . S
C359 H334 0.937 1_556 S
C359 C357 1.388 1_556 S
C359 C360 1.366 . S
C360 C359 1.366 . S
C360 C361 1.414 . S
C360 C363 1.499 . S
C361 H335 0.950 . S
C361 C360 1.414 . S
C361 C362 1.374 . S
C362 H336 0.950 . S
C362 C358 1.385 . S
C362 C361 1.374 . S
C363 C360 1.499 . S
C363 C364 1.373 . S
C363 C365 1.389 . S
C364 H337 0.950 . S
C364 C350 1.377 . S
C364 C363 1.373 . S
C365 C349 1.377 . S
C365 C363 1.389 . S
C365 C366 1.524 . S
C366 C365 1.524 . S
C366 C367 1.397 . S
C366 C371 1.363 . S
C367 H338 0.950 . S
C367 C366 1.397 . S
C367 C368 1.334 . S
C368 H339 0.950 . S
C368 C367 1.334 . S
C368 C369 1.287 . S
C369 C368 1.287 . S
C369 C370 1.524 1_556 S
C369 H372 0.999 1_556 S
C370 H340 0.950 . S
C370 C369 1.524 1_554 S
C370 C371 1.415 1_554 S
C371 H341 0.950 . S
C371 C366 1.363 . S
C371 C370 1.415 1_556 S
H372 C369 0.999 1_554 S
H373 C354 0.913 . S
H374 C392 0.951 . S
H375 C394 0.951 . S
H376 C396 0.950 . S
H377 C397 0.950 . S
H378 C399 0.950 . S
H379 C402 0.950 . S
H380 C403 0.950 . S
H381 C405 0.950 . S
H382 C406 0.950 . S
H383 C407 0.951 . S
H384 C409 0.951 . S
H385 C411 0.950 . S
H386 C412 0.950 . S
H387 C414 0.950 . S
H388 C417 0.950 . S
H389 C418 0.950 . S
H390 C420 0.950 . S
H391 C421 0.950 . S
C392 H374 0.951 . S
C392 C393 1.366 . S
C392 C394 1.388 . S
C393 C392 1.366 . S
C393 C397 1.385 . S
C394 H375 0.951 . S
C394 C392 1.388 . S
C394 C395 1.366 . S
C395 C394 1.366 . S
C395 C396 1.414 . S
C395 C398 1.499 . S
C396 H376 0.950 . S
C396 C395 1.414 . S
C396 C397 1.374 . S
C397 H377 0.950 . S
C397 C393 1.385 . S
C397 C396 1.374 . S
C398 C395 1.499 . S
C398 C399 1.373 . S
C398 C400 1.389 . S
C399 H378 0.950 . S
C399 C398 1.373 . S
C399 C415 1.377 . S
C400 C398 1.389 . S
C400 C401 1.524 . S
C400 C414 1.377 . S
C401 C400 1.524 . S
C401 C402 1.397 . S
C401 C406 1.363 . S
C402 H379 0.950 . S
C402 C401 1.397 . S
C402 C403 1.334 . S
C403 H380 0.950 . S
C403 C402 1.334 . S
C403 C404 1.287 . S
C404 C403 1.287 . S
C404 C405 1.524 . S
C404 H423 0.913 . S
C405 H381 0.950 . S
C405 C404 1.524 . S
C405 C406 1.415 . S
C406 H382 0.950 . S
C406 C401 1.363 . S
C406 C405 1.415 . S
C407 H383 0.951 . S
C407 C408 1.366 . S
C407 C409 1.388 . S
C408 C407 1.366 . S
C408 C412 1.385 . S
C409 H384 0.951 . S
C409 C407 1.388 . S
C409 C410 1.366 . S
C410 C409 1.366 . S
C410 C411 1.414 . S
C410 C413 1.499 . S
C411 H385 0.950 . S
C411 C410 1.414 . S
C411 C412 1.374 . S
C412 H386 0.950 . S
C412 C408 1.385 . S
C412 C411 1.374 . S
C413 C410 1.499 . S
C413 C414 1.373 . S
C413 C415 1.389 . S
C414 H387 0.950 . S
C414 C400 1.377 . S
C414 C413 1.373 . S
C415 C399 1.377 . S
C415 C413 1.389 . S
C415 C416 1.524 . S
C416 C415 1.524 . S
C416 C417 1.397 . S
C416 C421 1.363 . S
C417 H388 0.950 . S
C417 C416 1.397 . S
C417 C418 1.334 . S
C418 H389 0.950 . S
C418 C417 1.334 . S
C418 C419 1.287 . S
C419 C418 1.287 . S
C419 C420 1.524 . S
C419 H422 0.999 . S
C420 H390 0.950 . S
C420 C419 1.524 . S
C420 C421 1.415 . S
C421 H391 0.950 . S
C421 C416 1.363 . S
C421 C420 1.415 . S
H422 C419 0.999 . S
H423 C404 0.913 . S
H424 C442 0.951 . S
H425 C444 0.951 . S
H426 C446 0.950 . S
H427 C447 0.950 . S
H428 C449 0.950 . S
H429 C452 0.950 . S
H430 C453 0.950 . S
H431 C455 0.950 . S
H432 C456 0.950 . S
H433 C457 0.951 . S
H434 C459 0.951 . S
H435 C461 0.950 . S
H436 C462 0.950 1_554 S
H437 C464 0.950 . S
H438 C467 0.950 . S
H439 C468 0.950 . S
H440 C470 0.950 . S
H441 C471 0.950 . S
C442 H424 0.951 . S
C442 C443 1.366 . S
C442 C444 1.388 . S
C443 C442 1.366 . S
C443 C447 1.385 . S
C444 H425 0.951 . S
C444 C442 1.388 . S
C444 C445 1.366 . S
C445 C444 1.366 . S
C445 C446 1.414 . S
C445 C448 1.499 . S
C446 H426 0.950 . S
C446 C445 1.414 . S
C446 C447 1.374 . S
C447 H427 0.950 . S
C447 C443 1.385 . S
C447 C446 1.374 . S
C448 C445 1.499 . S
C448 C449 1.373 . S
C448 C450 1.389 . S
C449 H428 0.950 . S
C449 C448 1.373 . S
C449 C465 1.377 . S
C450 C448 1.389 . S
C450 C451 1.524 . S
C450 C464 1.377 . S
C451 C450 1.524 . S
C451 C452 1.397 . S
C451 C456 1.363 . S
C452 H429 0.950 . S
C452 C451 1.397 . S
C452 C453 1.334 . S
C453 H430 0.950 . S
C453 C452 1.334 . S
C453 C454 1.287 1_556 S
C454 C453 1.287 1_554 S
C454 C455 1.524 . S
C454 H473 0.913 . S
C455 H431 0.950 . S
C455 C454 1.524 . S
C455 C456 1.415 1_554 S
C456 H432 0.950 . S
C456 C451 1.363 . S
C456 C455 1.415 1_556 S
C457 H433 0.951 . S
C457 C458 1.366 . S
C457 C459 1.388 . S
C458 C457 1.366 . S
C458 C462 1.385 . S
C459 H434 0.951 . S
C459 C457 1.388 . S
C459 C460 1.366 . S
C460 C459 1.366 . S
C460 C461 1.414 . S
C460 C463 1.499 . S
C461 H435 0.950 . S
C461 C460 1.414 . S
C461 C462 1.374 . S
C462 H436 0.950 1_556 S
C462 C458 1.385 . S
C462 C461 1.374 . S
C463 C460 1.499 . S
C463 C464 1.373 . S
C463 C465 1.389 . S
C464 H437 0.950 . S
C464 C450 1.377 . S
C464 C463 1.373 . S
C465 C449 1.377 . S
C465 C463 1.389 . S
C465 C466 1.524 . S
C466 C465 1.524 . S
C466 C467 1.397 . S
C466 C471 1.363 . S
C467 H438 0.950 . S
C467 C466 1.397 . S
C467 C468 1.334 . S
C468 H439 0.950 . S
C468 C467 1.334 . S
C468 C469 1.287 . S
C469 C468 1.287 . S
C469 C470 1.524 . S
C469 H472 0.999 . S
C470 H440 0.950 . S
C470 C469 1.524 . S
C470 C471 1.415 . S
C471 H441 0.950 . S
C471 C466 1.363 . S
C471 C470 1.415 . S
H472 C469 0.999 . S
H473 C454 0.913 . S
H474 C492 0.951 . S
H475 C494 0.951 . S
H476 C496 0.950 . S
H477 C497 0.950 . S
H478 C499 0.950 . S
H479 C502 0.950 . S
H480 C503 0.950 . S
H481 C505 0.950 . S
H482 C506 0.950 . S
H483 C507 0.951 . S
H484 C509 0.951 . S
H485 C511 0.950 . S
H486 C512 0.950 . S
H487 C514 0.950 . S
H488 C517 0.950 . S
H489 C518 0.950 . S
H490 C520 0.950 . S
H491 C521 0.950 . S
C492 H474 0.951 . S
C492 C493 1.366 . S
C492 C494 1.388 . S
C493 C492 1.366 . S
C493 C497 1.385 . S
C494 H475 0.951 . S
C494 C492 1.388 . S
C494 C495 1.366 . S
C495 C494 1.366 . S
C495 C496 1.414 . S
C495 C498 1.499 . S
C496 H476 0.950 . S
C496 C495 1.414 . S
C496 C497 1.374 . S
C497 H477 0.950 . S
C497 C493 1.385 . S
C497 C496 1.374 . S
C498 C495 1.499 . S
C498 C499 1.373 . S
C498 C500 1.389 . S
C499 H478 0.950 . S
C499 C498 1.373 . S
C499 C515 1.377 . S
C500 C498 1.389 . S
C500 C501 1.524 . S
C500 C514 1.377 . S
C501 C500 1.524 . S
C501 C502 1.397 . S
C501 C506 1.363 . S
C502 H479 0.950 . S
C502 C501 1.397 . S
C502 C503 1.334 . S
C503 H480 0.950 . S
C503 C502 1.334 . S
C503 C504 1.287 . S
C504 C503 1.287 . S
C504 C505 1.524 . S
C504 H523 0.913 . S
C505 H481 0.950 . S
C505 C504 1.524 . S
C505 C506 1.415 . S
C506 H482 0.950 . S
C506 C501 1.363 . S
C506 C505 1.415 . S
C507 H483 0.951 . S
C507 C508 1.366 . S
C507 C509 1.388 . S
C508 C507 1.366 . S
C508 C512 1.385 . S
C509 H484 0.951 . S
C509 C507 1.388 . S
C509 C510 1.366 . S
C510 C509 1.366 . S
C510 C511 1.414 . S
C510 C513 1.499 . S
C511 H485 0.950 . S
C511 C510 1.414 . S
C511 C512 1.374 . S
C512 H486 0.950 . S
C512 C508 1.385 . S
C512 C511 1.374 . S
C513 C510 1.499 . S
C513 C514 1.373 . S
C513 C515 1.389 . S
C514 H487 0.950 . S
C514 C500 1.377 . S
C514 C513 1.373 . S
C515 C499 1.377 . S
C515 C513 1.389 . S
C515 C516 1.524 . S
C516 C515 1.524 . S
C516 C517 1.397 . S
C516 C521 1.363 . S
C517 H488 0.950 . S
C517 C516 1.397 . S
C517 C518 1.334 . S
C518 H489 0.950 . S
C518 C517 1.334 . S
C518 C519 1.287 . S
C519 C518 1.287 . S
C519 C520 1.524 . S
C519 H522 0.999 . S
C520 H490 0.950 . S
C520 C519 1.524 . S
C520 C521 1.415 . S
C521 H491 0.950 . S
C521 C516 1.363 . S
C521 C520 1.415 . S
H522 C519 0.999 . S
H523 C504 0.913 . S
H524 C542 0.951 . S
H525 C544 0.951 . S
H526 C546 0.950 . S
H527 C547 0.950 . S
H528 C549 0.950 . S
H529 C552 0.950 . S
H530 C553 0.950 . S
H531 C555 0.950 . S
H532 C556 0.950 . S
H533 C557 0.951 . S
H534 C559 0.951 . S
H535 C561 0.950 . S
H536 C562 0.950 . S
H537 C564 0.950 . S
H538 C567 0.950 . S
H539 C568 0.950 . S
H540 C570 0.950 . S
H541 C571 0.950 . S
C542 H524 0.951 . S
C542 C543 1.366 . S
C542 C544 1.388 . S
C543 C542 1.366 . S
C543 C547 1.385 . S
C544 H525 0.951 . S
C544 C542 1.388 . S
C544 C545 1.366 . S
C545 C544 1.366 . S
C545 C546 1.414 . S
C545 C548 1.499 . S
C546 H526 0.950 . S
C546 C545 1.414 . S
C546 C547 1.374 . S
C547 H527 0.950 . S
C547 C543 1.385 . S
C547 C546 1.374 . S
C548 C545 1.499 . S
C548 C549 1.373 . S
C548 C550 1.389 . S
C549 H528 0.950 . S
C549 C548 1.373 . S
C549 C565 1.377 . S
C550 C548 1.389 . S
C550 C551 1.524 . S
C550 C564 1.377 . S
C551 C550 1.524 . S
C551 C552 1.397 . S
C551 C556 1.363 . S
C552 H529 0.950 . S
C552 C551 1.397 . S
C552 C553 1.334 . S
C553 H530 0.950 . S
C553 C552 1.334 . S
C553 C554 1.287 . S
C554 C553 1.287 . S
C554 C555 1.524 . S
C554 H573 0.913 . S
C555 H531 0.950 . S
C555 C554 1.524 . S
C555 C556 1.415 . S
C556 H532 0.950 . S
C556 C551 1.363 . S
C556 C555 1.415 . S
C557 H533 0.951 . S
C557 C558 1.366 . S
C557 C559 1.388 . S
C558 C557 1.366 . S
C558 C562 1.385 . S
C559 H534 0.951 . S
C559 C557 1.388 . S
C559 C560 1.366 . S
C560 C559 1.366 . S
C560 C561 1.414 . S
C560 C563 1.499 . S
C561 H535 0.950 . S
C561 C560 1.414 . S
C561 C562 1.374 . S
C562 H536 0.950 . S
C562 C558 1.385 . S
C562 C561 1.374 . S
C563 C560 1.499 . S
C563 C564 1.373 . S
C563 C565 1.389 . S
C564 H537 0.950 . S
C564 C550 1.377 . S
C564 C563 1.373 . S
C565 C549 1.377 . S
C565 C563 1.389 . S
C565 C566 1.524 . S
C566 C565 1.524 . S
C566 C567 1.397 . S
C566 C571 1.363 . S
C567 H538 0.950 . S
C567 C566 1.397 . S
C567 C568 1.334 . S
C568 H539 0.950 . S
C568 C567 1.334 . S
C568 C569 1.287 . S
C569 C568 1.287 . S
C569 C570 1.524 . S
C569 H572 0.999 1_565 S
C570 H540 0.950 . S
C570 C569 1.524 . S
C570 C571 1.415 . S
C571 H541 0.950 . S
C571 C566 1.363 . S
C571 C570 1.415 . S
H572 C569 0.999 1_545 S
H573 C554 0.913 . S
H574 C592 0.951 . S
H575 C594 0.951 . S
H576 C596 0.950 . S
H577 C597 0.950 . S
H578 C599 0.950 . S
H579 C602 0.950 . S
H580 C603 0.950 . S
H581 C605 0.950 . S
H582 C606 0.950 . S
H583 C607 0.951 . S
H584 C609 0.951 . S
H585 C611 0.950 . S
H586 C612 0.950 . S
H587 C614 0.950 . S
H588 C617 0.950 . S
H589 C618 0.950 . S
H590 C620 0.950 1_655 S
H591 C621 0.950 . S
C592 H574 0.951 . S
C592 C593 1.366 . S
C592 C594 1.388 . S
C593 C592 1.366 . S
C593 C597 1.385 . S
C594 H575 0.951 . S
C594 C592 1.388 . S
C594 C595 1.366 . S
C595 C594 1.366 . S
C595 C596 1.414 . S
C595 C598 1.499 . S
C596 H576 0.950 . S
C596 C595 1.414 . S
C596 C597 1.374 . S
C597 H577 0.950 . S
C597 C593 1.385 . S
C597 C596 1.374 . S
C598 C595 1.499 . S
C598 C599 1.373 . S
C598 C600 1.389 . S
C599 H578 0.950 . S
C599 C598 1.373 . S
C599 C615 1.377 . S
C600 C598 1.389 . S
C600 C601 1.524 . S
C600 C614 1.377 . S
C601 C600 1.524 . S
C601 C602 1.397 . S
C601 C606 1.363 . S
C602 H579 0.950 . S
C602 C601 1.397 . S
C602 C603 1.334 . S
C603 H580 0.950 . S
C603 C602 1.334 . S
C603 C604 1.287 . S
C604 C603 1.287 . S
C604 C605 1.524 . S
C604 H623 0.913 . S
C605 H581 0.950 . S
C605 C604 1.524 . S
C605 C606 1.415 . S
C606 H582 0.950 . S
C606 C601 1.363 . S
C606 C605 1.415 . S
C607 H583 0.951 . S
C607 C608 1.366 . S
C607 C609 1.388 . S
C608 C607 1.366 . S
C608 C612 1.385 . S
C609 H584 0.951 . S
C609 C607 1.388 . S
C609 C610 1.366 . S
C610 C609 1.366 . S
C610 C611 1.414 . S
C610 C613 1.499 . S
C611 H585 0.950 . S
C611 C610 1.414 . S
C611 C612 1.374 . S
C612 H586 0.950 . S
C612 C608 1.385 . S
C612 C611 1.374 . S
C613 C610 1.499 . S
C613 C614 1.373 . S
C613 C615 1.389 . S
C614 H587 0.950 . S
C614 C600 1.377 . S
C614 C613 1.373 . S
C615 C599 1.377 . S
C615 C613 1.389 . S
C615 C616 1.524 . S
C616 C615 1.524 . S
C616 C617 1.397 . S
C616 C621 1.363 . S
C617 H588 0.950 . S
C617 C616 1.397 . S
C617 C618 1.334 . S
C618 H589 0.950 . S
C618 C617 1.334 . S
C618 C619 1.287 . S
C619 C618 1.287 . S
C619 C620 1.524 . S
C619 H622 0.999 . S
C620 H590 0.950 1_455 S
C620 C619 1.524 . S
C620 C621 1.415 . S
C621 H591 0.950 . S
C621 C616 1.363 . S
C621 C620 1.415 . S
H622 C619 0.999 . S
H623 C604 0.913 . S
H624 C642 0.951 . S
H625 C644 0.951 . S
H626 C646 0.950 1_565 S
H627 C647 0.950 . S
H628 C649 0.950 . S
H629 C652 0.950 . S
H630 C653 0.950 . S
H631 C655 0.950 . S
H632 C656 0.950 . S
H633 C657 0.951 . S
H634 C659 0.951 . S
H635 C661 0.950 1_545 S
H636 C662 0.950 . S
H637 C664 0.950 . S
H638 C667 0.950 . S
H639 C668 0.950 . S
H640 C670 0.950 . S
H641 C671 0.950 . S
C642 H624 0.951 . S
C642 C643 1.366 . S
C642 C644 1.388 . S
C643 C642 1.366 . S
C643 C647 1.385 . S
C644 H625 0.951 . S
C644 C642 1.388 . S
C644 C645 1.366 . S
C645 C644 1.366 . S
C645 C646 1.414 . S
C645 C648 1.499 . S
C646 H626 0.950 1_545 S
C646 C645 1.414 . S
C646 C647 1.374 . S
C647 H627 0.950 . S
C647 C643 1.385 . S
C647 C646 1.374 . S
C648 C645 1.499 . S
C648 C649 1.373 1_545 S
C648 C650 1.389 . S
C649 H628 0.950 . S
C649 C648 1.373 1_565 S
C649 C665 1.377 1_455 S
C650 C648 1.389 . S
C650 C651 1.524 . S
C650 C664 1.377 1_455 S
C651 C650 1.524 . S
C651 C652 1.397 . S
C651 C656 1.363 1_455 S
C652 H629 0.950 . S
C652 C651 1.397 . S
C652 C653 1.334 . S
C653 H630 0.950 . S
C653 C652 1.334 . S
C653 C654 1.287 . S
C654 C653 1.287 . S
C654 C655 1.524 1_455 S
C654 H673 0.913 . S
C655 H631 0.950 . S
C655 C654 1.524 1_655 S
C655 C656 1.415 . S
C656 H632 0.950 . S
C656 C651 1.363 1_655 S
C656 C655 1.415 . S
C657 H633 0.951 . S
C657 C658 1.366 . S
C657 C659 1.388 . S
C658 C657 1.366 . S
C658 C662 1.385 . S
C659 H634 0.951 . S
C659 C657 1.388 . S
C659 C660 1.366 . S
C660 C659 1.366 . S
C660 C661 1.414 . S
C660 C663 1.499 . S
C661 H635 0.950 1_565 S
C661 C660 1.414 . S
C661 C662 1.374 . S
C662 H636 0.950 . S
C662 C658 1.385 . S
C662 C661 1.374 . S
C663 C660 1.499 . S
C663 C664 1.373 1_565 S
C663 C665 1.389 . S
C664 H637 0.950 . S
C664 C650 1.377 1_655 S
C664 C663 1.373 1_545 S
C665 C649 1.377 1_655 S
C665 C663 1.389 . S
C665 C666 1.524 . S
C666 C665 1.524 . S
C666 C667 1.397 . S
C666 C671 1.363 1_655 S
C667 H638 0.950 . S
C667 C666 1.397 . S
C667 C668 1.334 . S
C668 H639 0.950 . S
C668 C667 1.334 . S
C668 C669 1.287 . S
C669 C668 1.287 . S
C669 C670 1.524 1_655 S
C669 H672 0.999 . S
C670 H640 0.950 . S
C670 C669 1.524 1_455 S
C670 C671 1.415 . S
C671 H641 0.950 . S
C671 C666 1.363 1_455 S
C671 C670 1.415 . S
H672 C669 0.999 . S
H673 C654 0.913 . S
H674 C692 0.951 . S
H675 C694 0.951 . S
H676 C696 0.950 . S
H677 C697 0.950 . S
H678 C699 0.950 . S
H679 C702 0.950 . S
H680 C703 0.950 . S
H681 C705 0.950 . S
H682 C706 0.950 . S
H683 C707 0.951 . S
H684 C709 0.951 . S
H685 C711 0.950 . S
H686 C712 0.950 . S
H687 C714 0.950 . S
H688 C717 0.950 . S
H689 C718 0.950 . S
H690 C720 0.950 . S
H691 C721 0.950 . S
C692 H674 0.951 . S
C692 C693 1.366 . S
C692 C694 1.388 . S
C693 C692 1.366 . S
C693 C697 1.385 . S
C694 H675 0.951 . S
C694 C692 1.388 . S
C694 C695 1.366 . S
C695 C694 1.366 . S
C695 C696 1.414 . S
C695 C698 1.499 . S
C696 H676 0.950 . S
C696 C695 1.414 . S
C696 C697 1.374 . S
C697 H677 0.950 . S
C697 C693 1.385 . S
C697 C696 1.374 . S
C698 C695 1.499 . S
C698 C699 1.373 . S
C698 C700 1.389 1_655 S
C699 H678 0.950 . S
C699 C698 1.373 . S
C699 C715 1.377 . S
C700 C698 1.389 1_455 S
C700 C701 1.524 . S
C700 C714 1.377 . S
C701 C700 1.524 . S
C701 C702 1.397 . S
C701 C706 1.363 . S
C702 H679 0.950 . S
C702 C701 1.397 . S
C702 C703 1.334 . S
C703 H680 0.950 . S
C703 C702 1.334 . S
C703 C704 1.287 . S
C704 C703 1.287 . S
C704 C705 1.524 . S
C704 H723 0.913 . S
C705 H681 0.950 . S
C705 C704 1.524 . S
C705 C706 1.415 . S
C706 H682 0.950 . S
C706 C701 1.363 . S
C706 C705 1.415 . S
C707 H683 0.951 . S
C707 C708 1.366 . S
C707 C709 1.388 . S
C708 C707 1.366 . S
C708 C712 1.385 . S
C709 H684 0.951 . S
C709 C707 1.388 . S
C709 C710 1.366 . S
C710 C709 1.366 . S
C710 C711 1.414 . S
C710 C713 1.499 . S
C711 H685 0.950 . S
C711 C710 1.414 . S
C711 C712 1.374 . S
C712 H686 0.950 . S
C712 C708 1.385 . S
C712 C711 1.374 . S
C713 C710 1.499 . S
C713 C714 1.373 . S
C713 C715 1.389 1_455 S
C714 H687 0.950 . S
C714 C700 1.377 . S
C714 C713 1.373 . S
C715 C699 1.377 . S
C715 C713 1.389 1_655 S
C715 C716 1.524 . S
C716 C715 1.524 . S
C716 C717 1.397 . S
C716 C721 1.363 . S
C717 H688 0.950 . S
C717 C716 1.397 . S
C717 C718 1.334 . S
C718 H689 0.950 . S
C718 C717 1.334 . S
C718 C719 1.287 . S
C719 C718 1.287 . S
C719 C720 1.524 . S
C719 H722 0.999 . S
C720 H690 0.950 . S
C720 C719 1.524 . S
C720 C721 1.415 . S
C721 H691 0.950 . S
C721 C716 1.363 . S
C721 C720 1.415 . S
H722 C719 0.999 . S
H723 C704 0.913 . S
H724 C742 0.951 . S
H725 C744 0.951 . S
H726 C746 0.950 . S
H727 C747 0.950 . S
H728 C749 0.950 . S
H729 C752 0.950 . S
H730 C753 0.950 . S
H731 C755 0.950 . S
H732 C756 0.950 . S
H733 C757 0.951 . S
H734 C759 0.951 . S
H735 C761 0.950 . S
H736 C762 0.950 . S
H737 C764 0.950 . S
H738 C767 0.950 . S
H739 C768 0.950 . S
H740 C770 0.950 . S
H741 C771 0.950 . S
C742 H724 0.951 . S
C742 C743 1.366 . S
C742 C744 1.388 . S
C743 C742 1.366 . S
C743 C747 1.385 . S
C744 H725 0.951 . S
C744 C742 1.388 . S
C744 C745 1.366 . S
C745 C744 1.366 . S
C745 C746 1.414 . S
C745 C748 1.499 . S
C746 H726 0.950 . S
C746 C745 1.414 . S
C746 C747 1.374 . S
C747 H727 0.950 . S
C747 C743 1.385 . S
C747 C746 1.374 . S
C748 C745 1.499 . S
C748 C749 1.373 . S
C748 C750 1.389 . S
C749 H728 0.950 . S
C749 C748 1.373 . S
C749 C765 1.377 . S
C750 C748 1.389 . S
C750 C751 1.524 . S
C750 C764 1.377 . S
C751 C750 1.524 . S
C751 C752 1.397 . S
C751 C756 1.363 . S
C752 H729 0.950 . S
C752 C751 1.397 . S
C752 C753 1.334 . S
C753 H730 0.950 . S
C753 C752 1.334 . S
C753 C754 1.287 . S
C754 C753 1.287 . S
C754 C755 1.524 . S
C754 H773 0.913 . S
C755 H731 0.950 . S
C755 C754 1.524 . S
C755 C756 1.415 . S
C756 H732 0.950 . S
C756 C751 1.363 . S
C756 C755 1.415 . S
C757 H733 0.951 . S
C757 C758 1.366 . S
C757 C759 1.388 . S
C758 C757 1.366 . S
C758 C762 1.385 . S
C759 H734 0.951 . S
C759 C757 1.388 . S
C759 C760 1.366 . S
C760 C759 1.366 . S
C760 C761 1.414 . S
C760 C763 1.499 . S
C761 H735 0.950 . S
C761 C760 1.414 . S
C761 C762 1.374 . S
C762 H736 0.950 . S
C762 C758 1.385 . S
C762 C761 1.374 . S
C763 C760 1.499 . S
C763 C764 1.373 . S
C763 C765 1.389 . S
C764 H737 0.950 . S
C764 C750 1.377 . S
C764 C763 1.373 . S
C765 C749 1.377 . S
C765 C763 1.389 . S
C765 C766 1.524 . S
C766 C765 1.524 . S
C766 C767 1.397 . S
C766 C771 1.363 . S
C767 H738 0.950 . S
C767 C766 1.397 . S
C767 C768 1.334 . S
C768 H739 0.950 . S
C768 C767 1.334 . S
C768 C769 1.287 . S
C769 C768 1.287 . S
C769 C770 1.524 . S
C769 H772 0.999 . S
C770 H740 0.950 . S
C770 C769 1.524 . S
C770 C771 1.415 . S
C771 H741 0.950 . S
C771 C766 1.363 . S
C771 C770 1.415 . S
H772 C769 0.999 . S
H773 C754 0.913 . S
H774 C792 0.951 . S
H775 C794 0.951 . S
H776 C796 0.950 . S
H777 C797 0.950 . S
H778 C799 0.950 . S
H779 C802 0.950 . S
H780 C803 0.950 . S
H781 C805 0.950 . S
H782 C806 0.950 . S
H783 C807 0.951 . S
H784 C809 0.951 . S
H785 C811 0.950 . S
H786 C812 0.950 . S
H787 C814 0.950 . S
H788 C817 0.950 . S
H789 C818 0.950 . S
H790 C820 0.950 . S
H791 C821 0.950 . S
C792 H774 0.951 . S
C792 C793 1.366 . S
C792 C794 1.388 . S
C793 C792 1.366 . S
C793 C797 1.385 . S
C794 H775 0.951 . S
C794 C792 1.388 . S
C794 C795 1.366 . S
C795 C794 1.366 . S
C795 C796 1.414 . S
C795 C798 1.499 . S
C796 H776 0.950 . S
C796 C795 1.414 . S
C796 C797 1.374 . S
C797 H777 0.950 . S
C797 C793 1.385 . S
C797 C796 1.374 . S
C798 C795 1.499 . S
C798 C799 1.373 . S
C798 C800 1.389 . S
C799 H778 0.950 . S
C799 C798 1.373 . S
C799 C815 1.377 1_565 S
C800 C798 1.389 . S
C800 C801 1.526 . S
C800 C814 1.377 1_565 S
C801 C800 1.526 . S
C801 C802 1.433 . S
C801 C806 1.325 1_565 S
C802 H779 0.950 . S
C802 C801 1.433 . S
C802 C803 1.334 . S
C803 H780 0.950 . S
C803 C802 1.334 . S
C803 C804 1.287 . S
C804 C803 1.287 . S
C804 C805 1.524 1_565 S
C804 H823 0.913 . S
C805 H781 0.950 . S
C805 C804 1.524 1_545 S
C805 C806 1.415 . S
C806 H782 0.950 . S
C806 C801 1.325 1_545 S
C806 C805 1.415 . S
C807 H783 0.951 . S
C807 C808 1.366 . S
C807 C809 1.388 . S
C808 C807 1.366 . S
C808 C812 1.385 . S
C809 H784 0.951 . S
C809 C807 1.388 . S
C809 C810 1.366 . S
C810 C809 1.366 . S
C810 C811 1.414 . S
C810 C813 1.499 . S
C811 H785 0.950 . S
C811 C810 1.414 . S
C811 C812 1.374 . S
C812 H786 0.950 . S
C812 C808 1.385 . S
C812 C811 1.374 . S
C813 C810 1.499 . S
C813 C814 1.373 . S
C813 C815 1.389 . S
C814 H787 0.950 . S
C814 C800 1.377 1_545 S
C814 C813 1.373 . S
C815 C799 1.377 1_545 S
C815 C813 1.389 . S
C815 C816 1.526 . S
C816 C815 1.526 . S
C816 C817 1.433 1_554 S
C816 C821 1.325 1_545 S
C817 H788 0.950 . S
C817 C816 1.433 1_556 S
C817 C818 1.334 . S
C818 H789 0.950 . S
C818 C817 1.334 . S
C818 C819 1.287 . S
C819 C818 1.287 . S
C819 C820 1.524 1_546 S
C819 H822 0.999 . S
C820 H790 0.950 . S
C820 C819 1.524 1_564 S
C820 C821 1.415 . S
C821 H791 0.950 . S
C821 C816 1.325 1_565 S
C821 C820 1.415 . S
H822 C819 0.999 . S
H823 C804 0.913 . S
H824 C842 0.951 . S
H825 C844 0.951 . S
H826 C846 0.950 . S
H827 C847 0.950 . S
H828 C849 0.950 . S
H829 C852 0.950 . S
H830 C853 0.950 . S
H831 C855 0.950 . S
H832 C856 0.950 1_556 S
H833 C857 0.951 . S
H834 C859 0.951 . S
H835 C861 0.950 . S
H836 C862 0.950 . S
H837 C864 0.950 . S
H838 C867 0.950 . S
H839 C868 0.950 . S
H840 C870 0.950 1_554 S
H841 C871 0.950 . S
C842 H824 0.951 . S
C842 C843 1.366 1_556 S
C842 C844 1.388 . S
C843 C842 1.366 1_554 S
C843 C847 1.385 . S
C844 H825 0.951 . S
C844 C842 1.388 . S
C844 C845 1.366 1_556 S
C845 C844 1.366 1_554 S
C845 C846 1.414 . S
C845 C848 1.499 . S
C846 H826 0.950 . S
C846 C845 1.414 . S
C846 C847 1.374 . S
C847 H827 0.950 . S
C847 C843 1.385 . S
C847 C846 1.374 . S
C848 C845 1.499 . S
C848 C849 1.373 . S
C848 C850 1.389 . S
C849 H828 0.950 . S
C849 C848 1.373 . S
C849 C865 1.377 1_455 S
C850 C848 1.389 . S
C850 C851 1.524 . S
C850 C864 1.377 1_455 S
C851 C850 1.524 . S
C851 C852 1.397 . S
C851 C856 1.363 . S
C852 H829 0.950 . S
C852 C851 1.397 . S
C852 C853 1.334 . S
C853 H830 0.950 . S
C853 C852 1.334 . S
C853 C854 1.287 . S
C854 C853 1.287 . S
C854 C855 1.524 . S
C854 H873 0.913 . S
C855 H831 0.950 . S
C855 C854 1.524 . S
C855 C856 1.415 . S
C856 H832 0.950 1_554 S
C856 C851 1.363 . S
C856 C855 1.415 . S
C857 H833 0.951 . S
C857 C858 1.366 . S
C857 C859 1.388 . S
C858 C857 1.366 . S
C858 C862 1.385 1_554 S
C859 H834 0.951 . S
C859 C857 1.388 . S
C859 C860 1.366 . S
C860 C859 1.366 . S
C860 C861 1.414 1_554 S
C860 C863 1.499 . S
C861 H835 0.950 . S
C861 C860 1.414 1_556 S
C861 C862 1.374 . S
C862 H836 0.950 . S
C862 C858 1.385 1_556 S
C862 C861 1.374 . S
C863 C860 1.499 . S
C863 C864 1.373 . S
C863 C865 1.389 . S
C864 H837 0.950 . S
C864 C850 1.377 1_655 S
C864 C863 1.373 . S
C865 C849 1.377 1_655 S
C865 C863 1.389 . S
C865 C866 1.524 1_554 S
C866 C865 1.524 1_556 S
C866 C867 1.397 . S
C866 C871 1.363 1_556 S
C867 H838 0.950 . S
C867 C866 1.397 . S
C867 C868 1.334 . S
C868 H839 0.950 . S
C868 C867 1.334 . S
C868 C869 1.287 . S
C869 C868 1.287 . S
C869 C870 1.524 . S
C869 H872 0.999 . S
C870 H840 0.950 1_556 S
C870 C869 1.524 . S
C870 C871 1.415 1_556 S
C871 H841 0.950 . S
C871 C866 1.363 1_554 S
C871 C870 1.415 1_554 S
H872 C869 0.999 . S
H873 C854 0.913 . S
H874 C892 0.951 . S
H875 C894 0.951 . S
H876 C896 0.950 . S
H877 C897 0.950 . S
H878 C899 0.950 . S
H879 C902 0.950 . S
H880 C903 0.950 . S
H881 C905 0.950 . S
H882 C906 0.950 . S
H883 C907 0.951 . S
H884 C909 0.951 . S
H885 C911 0.950 . S
H886 C912 0.950 . S
H887 C914 0.950 . S
H888 C917 0.950 . S
H889 C918 0.950 . S
H890 C920 0.950 . S
H891 C921 0.950 . S
C892 H874 0.951 . S
C892 C893 1.366 . S
C892 C894 1.388 . S
C893 C892 1.366 . S
C893 C897 1.385 . S
C894 H875 0.951 . S
C894 C892 1.388 . S
C894 C895 1.366 . S
C895 C894 1.366 . S
C895 C896 1.414 . S
C895 C898 1.499 . S
C896 H876 0.950 . S
C896 C895 1.414 . S
C896 C897 1.374 . S
C897 H877 0.950 . S
C897 C893 1.385 . S
C897 C896 1.374 . S
C898 C895 1.499 . S
C898 C899 1.373 . S
C898 C900 1.389 . S
C899 H878 0.950 . S
C899 C898 1.373 . S
C899 C915 1.377 . S
C900 C898 1.389 . S
C900 C901 1.524 . S
C900 C914 1.377 . S
C901 C900 1.524 . S
C901 C902 1.397 . S
C901 C906 1.363 . S
C902 H879 0.950 . S
C902 C901 1.397 . S
C902 C903 1.334 . S
C903 H880 0.950 . S
C903 C902 1.334 . S
C903 C904 1.287 . S
C904 C903 1.287 . S
C904 C905 1.524 . S
C904 H923 0.913 . S
C905 H881 0.950 . S
C905 C904 1.524 . S
C905 C906 1.415 . S
C906 H882 0.950 . S
C906 C901 1.363 . S
C906 C905 1.415 . S
C907 H883 0.951 . S
C907 C908 1.366 . S
C907 C909 1.388 . S
C908 C907 1.366 . S
C908 C912 1.385 . S
C909 H884 0.951 . S
C909 C907 1.388 . S
C909 C910 1.366 . S
C910 C909 1.366 . S
C910 C911 1.414 . S
C910 C913 1.499 . S
C911 H885 0.950 . S
C911 C910 1.414 . S
C911 C912 1.374 . S
C912 H886 0.950 . S
C912 C908 1.385 . S
C912 C911 1.374 . S
C913 C910 1.499 . S
C913 C914 1.373 . S
C913 C915 1.389 . S
C914 H887 0.950 . S
C914 C900 1.377 . S
C914 C913 1.373 . S
C915 C899 1.377 . S
C915 C913 1.389 . S
C915 C916 1.524 . S
C916 C915 1.524 . S
C916 C917 1.397 . S
C916 C921 1.363 . S
C917 H888 0.950 . S
C917 C916 1.397 . S
C917 C918 1.334 . S
C918 H889 0.950 . S
C918 C917 1.334 . S
C918 C919 1.287 . S
C919 C918 1.287 . S
C919 C920 1.524 . S
C919 H922 0.999 . S
C920 H890 0.950 . S
C920 C919 1.524 . S
C920 C921 1.415 . S
C921 H891 0.950 . S
C921 C916 1.363 . S
C921 C920 1.415 . S
H922 C919 0.999 . S
H923 C904 0.913 . S
H924 C942 0.951 . S
H925 C944 0.951 . S
H926 C946 0.950 . S
H927 C947 0.950 . S
H928 C949 0.950 . S
H929 C952 0.950 . S
H930 C953 0.950 . S
H931 C955 0.950 . S
H932 C956 0.950 . S
H933 C957 0.951 . S
H934 C959 0.951 . S
H935 C961 0.950 . S
H936 C962 0.950 . S
H937 C964 0.950 . S
H938 C967 0.950 . S
H939 C968 0.950 . S
H940 C970 0.950 . S
H941 C971 0.950 . S
C942 H924 0.951 . S
C942 C943 1.366 . S
C942 C944 1.388 . S
C943 C942 1.366 . S
C943 C947 1.385 . S
C944 H925 0.951 . S
C944 C942 1.388 . S
C944 C945 1.366 . S
C945 C944 1.366 . S
C945 C946 1.414 . S
C945 C948 1.499 . S
C946 H926 0.950 . S
C946 C945 1.414 . S
C946 C947 1.374 . S
C947 H927 0.950 . S
C947 C943 1.385 . S
C947 C946 1.374 . S
C948 C945 1.499 . S
C948 C949 1.373 . S
C948 C950 1.389 1_545 S
C949 H928 0.950 . S
C949 C948 1.373 . S
C949 C965 1.377 . S
C950 C948 1.389 1_565 S
C950 C951 1.524 . S
C950 C964 1.377 . S
C951 C950 1.524 . S
C951 C952 1.397 . S
C951 C956 1.363 . S
C952 H929 0.950 . S
C952 C951 1.397 . S
C952 C953 1.334 . S
C953 H930 0.950 . S
C953 C952 1.334 . S
C953 C954 1.287 . S
C954 C953 1.287 . S
C954 C955 1.524 . S
C954 H973 0.913 . S
C955 H931 0.950 . S
C955 C954 1.524 . S
C955 C956 1.415 . S
C956 H932 0.950 . S
C956 C951 1.363 . S
C956 C955 1.415 . S
C957 H933 0.951 . S
C957 C958 1.366 . S
C957 C959 1.388 . S
C958 C957 1.366 . S
C958 C962 1.385 . S
C959 H934 0.951 . S
C959 C957 1.388 . S
C959 C960 1.366 . S
C960 C959 1.366 . S
C960 C961 1.414 . S
C960 C963 1.499 . S
C961 H935 0.950 . S
C961 C960 1.414 . S
C961 C962 1.374 . S
C962 H936 0.950 . S
C962 C958 1.385 . S
C962 C961 1.374 . S
C963 C960 1.499 . S
C963 C964 1.373 . S
C963 C965 1.389 1_565 S
C964 H937 0.950 . S
C964 C950 1.377 . S
C964 C963 1.373 . S
C965 C949 1.377 . S
C965 C963 1.389 1_545 S
C965 C966 1.524 . S
C966 C965 1.524 . S
C966 C967 1.397 . S
C966 C971 1.363 . S
C967 H938 0.950 . S
C967 C966 1.397 . S
C967 C968 1.334 . S
C968 H939 0.950 . S
C968 C967 1.334 . S
C968 C969 1.287 . S
C969 C968 1.287 . S
C969 C970 1.524 . S
C969 H972 0.999 . S
C970 H940 0.950 . S
C970 C969 1.524 . S
C970 C971 1.415 . S
C971 H941 0.950 . S
C971 C966 1.363 . S
C971 C970 1.415 . S
H972 C969 0.999 . S
H973 C954 0.913 . S
H974 C992 0.951 . S
H975 C994 0.951 . S
H976 C996 0.950 . S
H977 C997 0.950 . S
H978 C999 0.950 . S
H979 C1002 0.950 . S
H980 C1003 0.950 . S
H981 C1005 0.950 . S
H982 C1006 0.950 . S
H983 C1007 0.951 . S
H984 C1009 0.951 . S
H985 C1011 0.950 . S
H986 C1012 0.950 . S
H987 C1014 0.950 . S
H988 C1017 0.950 . S
H989 C1018 0.950 . S
H990 C1020 0.950 . S
H991 C1021 0.950 . S
C992 H974 0.951 . S
C992 C993 1.366 . S
C992 C994 1.388 . S
C993 C992 1.366 . S
C993 C997 1.385 . S
C994 H975 0.951 . S
C994 C992 1.388 . S
C994 C995 1.366 . S
C995 C994 1.366 . S
C995 C996 1.414 . S
C995 C998 1.499 . S
C996 H976 0.950 . S
C996 C995 1.414 . S
C996 C997 1.374 . S
C997 H977 0.950 . S
C997 C993 1.385 . S
C997 C996 1.374 . S
C998 C995 1.499 . S
C998 C999 1.373 . S
C998 C1000 1.389 1_455 S
C999 H978 0.950 . S
C999 C998 1.373 . S
C999 C1015 1.377 1_545 S
C1000 C998 1.389 1_655 S
C1000 C1001 1.524 . S
C1000 C1014 1.377 1_545 S
C1001 C1000 1.524 . S
C1001 C1002 1.397 . S
C1001 C1006 1.363 . S
C1002 H979 0.950 . S
C1002 C1001 1.397 . S
C1002 C1003 1.334 . S
C1003 H980 0.950 . S
C1003 C1002 1.334 . S
C1003 C1004 1.287 . S
C1004 C1003 1.287 . S
C1004 C1005 1.524 . S
C1004 H1023 0.913 . S
C1005 H981 0.950 . S
C1005 C1004 1.524 . S
C1005 C1006 1.415 . S
C1006 H982 0.950 . S
C1006 C1001 1.363 . S
C1006 C1005 1.415 . S
C1007 H983 0.951 . S
C1007 C1008 1.366 . S
C1007 C1009 1.388 . S
C1008 C1007 1.366 . S
C1008 C1012 1.385 . S
C1009 H984 0.951 . S
C1009 C1007 1.388 . S
C1009 C1010 1.366 . S
C1010 C1009 1.366 . S
C1010 C1011 1.414 . S
C1010 C1013 1.499 . S
C1011 H985 0.950 . S
C1011 C1010 1.414 . S
C1011 C1012 1.374 . S
C1012 H986 0.950 . S
C1012 C1008 1.385 . S
C1012 C1011 1.374 . S
C1013 C1010 1.499 . S
C1013 C1014 1.373 . S
C1013 C1015 1.389 1_655 S
C1014 H987 0.950 . S
C1014 C1000 1.377 1_565 S
C1014 C1013 1.373 . S
C1015 C999 1.377 1_565 S
C1015 C1013 1.389 1_455 S
C1015 C1016 1.524 . S
C1016 C1015 1.524 . S
C1016 C1017 1.397 . S
C1016 C1021 1.363 . S
C1017 H988 0.950 . S
C1017 C1016 1.397 . S
C1017 C1018 1.334 . S
C1018 H989 0.950 . S
C1018 C1017 1.334 . S
C1018 C1019 1.287 . S
C1019 C1018 1.287 . S
C1019 C1020 1.524 . S
C1019 H1022 0.999 . S
C1020 H990 0.950 . S
C1020 C1019 1.524 . S
C1020 C1021 1.415 . S
C1021 H991 0.950 . S
C1021 C1016 1.363 . S
C1021 C1020 1.415 . S
H1022 C1019 0.999 . S
H1023 C1004 0.913 . S
H1024 C1042 0.951 . S
H1025 C1044 0.951 . S
H1026 C1046 0.950 . S
H1027 C1047 0.950 . S
H1028 C1049 0.950 . S
H1029 C1052 0.950 . S
H1030 C1053 0.950 . S
H1031 C1055 0.950 . S
H1032 C1056 0.950 . S
H1033 C1057 0.951 . S
H1034 C1059 0.951 . S
H1035 C1061 0.950 . S
H1036 C1062 0.950 . S
H1037 C1064 0.950 . S
H1038 C1067 0.950 . S
H1039 C1068 0.950 . S
H1040 C1070 0.950 . S
H1041 C1071 0.950 . S
C1042 H1024 0.951 . S
C1042 C1043 1.366 . S
C1042 C1044 1.388 . S
C1043 C1042 1.366 . S
C1043 C1047 1.385 . S
C1044 H1025 0.951 . S
C1044 C1042 1.388 . S
C1044 C1045 1.366 . S
C1045 C1044 1.366 . S
C1045 C1046 1.414 . S
C1045 C1048 1.499 . S
C1046 H1026 0.950 . S
C1046 C1045 1.414 . S
C1046 C1047 1.374 . S
C1047 H1027 0.950 . S
C1047 C1043 1.385 . S
C1047 C1046 1.374 . S
C1048 C1045 1.499 . S
C1048 C1049 1.373 . S
C1048 C1050 1.389 . S
C1049 H1028 0.950 . S
C1049 C1048 1.373 . S
C1049 C1065 1.377 . S
C1050 C1048 1.389 . S
C1050 C1051 1.524 . S
C1050 C1064 1.377 . S
C1051 C1050 1.524 . S
C1051 C1052 1.397 . S
C1051 C1056 1.363 . S
C1052 H1029 0.950 . S
C1052 C1051 1.397 . S
C1052 C1053 1.334 . S
C1053 H1030 0.950 . S
C1053 C1052 1.334 . S
C1053 C1054 1.287 . S
C1054 C1053 1.287 . S
C1054 C1055 1.524 . S
C1054 H1073 0.913 . S
C1055 H1031 0.950 . S
C1055 C1054 1.524 . S
C1055 C1056 1.415 . S
C1056 H1032 0.950 . S
C1056 C1051 1.363 . S
C1056 C1055 1.415 . S
C1057 H1033 0.951 . S
C1057 C1058 1.366 . S
C1057 C1059 1.388 . S
C1058 C1057 1.366 . S
C1058 C1062 1.385 . S
C1059 H1034 0.951 . S
C1059 C1057 1.388 . S
C1059 C1060 1.366 . S
C1060 C1059 1.366 . S
C1060 C1061 1.414 . S
C1060 C1063 1.499 . S
C1061 H1035 0.950 . S
C1061 C1060 1.414 . S
C1061 C1062 1.374 . S
C1062 H1036 0.950 . S
C1062 C1058 1.385 . S
C1062 C1061 1.374 . S
C1063 C1060 1.499 . S
C1063 C1064 1.373 . S
C1063 C1065 1.389 . S
C1064 H1037 0.950 . S
C1064 C1050 1.377 . S
C1064 C1063 1.373 . S
C1065 C1049 1.377 . S
C1065 C1063 1.389 . S
C1065 C1066 1.524 . S
C1066 C1065 1.524 . S
C1066 C1067 1.397 . S
C1066 C1071 1.363 . S
C1067 H1038 0.950 . S
C1067 C1066 1.397 . S
C1067 C1068 1.334 . S
C1068 H1039 0.950 . S
C1068 C1067 1.334 . S
C1068 C1069 1.287 . S
C1069 C1068 1.287 . S
C1069 C1070 1.524 . S
C1069 H1072 0.999 . S
C1070 H1040 0.950 . S
C1070 C1069 1.524 . S
C1070 C1071 1.415 . S
C1071 H1041 0.950 . S
C1071 C1066 1.363 . S
C1071 C1070 1.415 . S
H1072 C1069 0.999 . S
H1073 C1054 0.913 . S
H1074 C1092 0.951 . S
H1075 C1094 0.951 . S
H1076 C1096 0.950 . S
H1077 C1097 0.950 . S
H1078 C1099 0.950 . S
H1079 C1102 0.950 . S
H1080 C1103 0.950 . S
H1081 C1105 0.950 . S
H1082 C1106 0.950 . S
H1083 C1107 0.951 . S
H1084 C1109 0.951 . S
H1085 C1111 0.950 . S
H1086 C1112 0.950 . S
H1087 C1114 0.950 . S
H1088 C1117 0.950 . S
H1089 C1118 0.950 . S
H1090 C1120 0.950 . S
H1091 C1121 0.950 . S
C1092 H1074 0.951 . S
C1092 C1093 1.366 . S
C1092 C1094 1.388 . S
C1093 C1092 1.366 . S
C1093 C1097 1.385 . S
C1094 H1075 0.951 . S
C1094 C1092 1.388 . S
C1094 C1095 1.366 . S
C1095 C1094 1.366 . S
C1095 C1096 1.414 . S
C1095 C1098 1.499 . S
C1096 H1076 0.950 . S
C1096 C1095 1.414 . S
C1096 C1097 1.374 . S
C1097 H1077 0.950 . S
C1097 C1093 1.385 . S
C1097 C1096 1.374 . S
C1098 C1095 1.499 . S
C1098 C1099 1.373 . S
C1098 C1100 1.389 . S
C1099 H1078 0.950 . S
C1099 C1098 1.373 . S
C1099 C1115 1.377 . S
C1100 C1098 1.389 . S
C1100 C1101 1.524 . S
C1100 C1114 1.377 . S
C1101 C1100 1.524 . S
C1101 C1102 1.397 . S
C1101 C1106 1.363 . S
C1102 H1079 0.950 . S
C1102 C1101 1.397 . S
C1102 C1103 1.334 . S
C1103 H1080 0.950 . S
C1103 C1102 1.334 . S
C1103 C1104 1.287 . S
C1104 C1103 1.287 . S
C1104 C1105 1.524 . S
C1104 H1123 0.913 . S
C1105 H1081 0.950 . S
C1105 C1104 1.524 . S
C1105 C1106 1.415 . S
C1106 H1082 0.950 . S
C1106 C1101 1.363 . S
C1106 C1105 1.415 . S
C1107 H1083 0.951 . S
C1107 C1108 1.366 . S
C1107 C1109 1.388 . S
C1108 C1107 1.366 . S
C1108 C1112 1.385 . S
C1109 H1084 0.951 . S
C1109 C1107 1.388 . S
C1109 C1110 1.366 . S
C1110 C1109 1.366 . S
C1110 C1111 1.414 . S
C1110 C1113 1.499 . S
C1111 H1085 0.950 . S
C1111 C1110 1.414 . S
C1111 C1112 1.374 . S
C1112 H1086 0.950 . S
C1112 C1108 1.385 . S
C1112 C1111 1.374 . S
C1113 C1110 1.499 . S
C1113 C1114 1.373 . S
C1113 C1115 1.389 . S
C1114 H1087 0.950 . S
C1114 C1100 1.377 . S
C1114 C1113 1.373 . S
C1115 C1099 1.377 . S
C1115 C1113 1.389 . S
C1115 C1116 1.524 . S
C1116 C1115 1.524 . S
C1116 C1117 1.397 . S
C1116 C1121 1.363 . S
C1117 H1088 0.950 . S
C1117 C1116 1.397 . S
C1117 C1118 1.334 . S
C1118 H1089 0.950 . S
C1118 C1117 1.334 . S
C1118 C1119 1.287 . S
C1119 C1118 1.287 . S
C1119 C1120 1.524 . S
C1119 H1122 0.999 . S
C1120 H1090 0.950 . S
C1120 C1119 1.524 . S
C1120 C1121 1.415 . S
C1121 H1091 0.950 . S
C1121 C1116 1.363 . S
C1121 C1120 1.415 . S
H1122 C1119 0.999 . S
H1123 C1104 0.913 . S
H1124 C1142 0.951 . S
H1125 C1144 0.951 . S
H1126 C1146 0.950 . S
H1127 C1147 0.950 . S
H1128 C1149 0.950 . S
H1129 C1152 0.950 . S
H1130 C1153 0.950 . S
H1131 C1155 0.950 . S
H1132 C1156 0.950 . S
H1133 C1157 0.951 . S
H1134 C1159 0.951 . S
H1135 C1161 0.950 . S
H1136 C1162 0.950 . S
H1137 C1164 0.950 1_556 S
H1138 C1167 0.950 . S
H1139 C1168 0.950 . S
H1140 C1170 0.950 . S
H1141 C1171 0.950 . S
C1142 H1124 0.951 . S
C1142 C1143 1.366 . S
C1142 C1144 1.388 . S
C1143 C1142 1.366 . S
C1143 C1147 1.385 . S
C1144 H1125 0.951 . S
C1144 C1142 1.388 . S
C1144 C1145 1.366 . S
C1145 C1144 1.366 . S
C1145 C1146 1.414 . S
C1145 C1148 1.499 . S
C1146 H1126 0.950 . S
C1146 C1145 1.414 . S
C1146 C1147 1.374 . S
C1147 H1127 0.950 . S
C1147 C1143 1.385 . S
C1147 C1146 1.374 . S
C1148 C1145 1.499 . S
C1148 C1149 1.373 . S
C1148 C1150 1.389 . S
C1149 H1128 0.950 . S
C1149 C1148 1.373 . S
C1149 C1165 1.377 . S
C1150 C1148 1.389 . S
C1150 C1151 1.524 . S
C1150 C1164 1.377 . S
C1151 C1150 1.524 . S
C1151 C1152 1.397 . S
C1151 C1156 1.363 . S
C1152 H1129 0.950 . S
C1152 C1151 1.397 . S
C1152 C1153 1.334 . S
C1153 H1130 0.950 . S
C1153 C1152 1.334 . S
C1153 C1154 1.287 . S
C1154 C1153 1.287 . S
C1154 C1155 1.524 . S
C1154 H1173 0.913 . S
C1155 H1131 0.950 . S
C1155 C1154 1.524 . S
C1155 C1156 1.415 . S
C1156 H1132 0.950 . S
C1156 C1151 1.363 . S
C1156 C1155 1.415 . S
C1157 H1133 0.951 . S
C1157 C1158 1.366 . S
C1157 C1159 1.388 . S
C1158 C1157 1.366 . S
C1158 C1162 1.385 . S
C1159 H1134 0.951 . S
C1159 C1157 1.388 . S
C1159 C1160 1.366 . S
C1160 C1159 1.366 . S
C1160 C1161 1.414 . S
C1160 C1163 1.499 . S
C1161 H1135 0.950 . S
C1161 C1160 1.414 . S
C1161 C1162 1.374 . S
C1162 H1136 0.950 . S
C1162 C1158 1.385 . S
C1162 C1161 1.374 . S
C1163 C1160 1.499 . S
C1163 C1164 1.373 1_556 S
C1163 C1165 1.389 1_556 S
C1164 H1137 0.950 1_554 S
C1164 C1150 1.377 . S
C1164 C1163 1.373 1_554 S
C1165 C1149 1.377 . S
C1165 C1163 1.389 1_554 S
C1165 C1166 1.524 . S
C1166 C1165 1.524 . S
C1166 C1167 1.397 1_554 S
C1166 C1171 1.363 . S
C1167 H1138 0.950 . S
C1167 C1166 1.397 1_556 S
C1167 C1168 1.334 . S
C1168 H1139 0.950 . S
C1168 C1167 1.334 . S
C1168 C1169 1.287 . S
C1169 C1168 1.287 . S
C1169 C1170 1.524 1_556 S
C1169 H1172 0.999 . S
C1170 H1140 0.950 . S
C1170 C1169 1.524 1_554 S
C1170 C1171 1.415 . S
C1171 H1141 0.950 . S
C1171 C1166 1.363 . S
C1171 C1170 1.415 . S
H1172 C1169 0.999 . S
H1173 C1154 0.913 . S
H1174 C1192 0.951 . S
H1175 C1194 0.951 . S
H1176 C1196 0.950 . S
H1177 C1197 0.950 . S
H1178 C1199 0.950 . S
H1179 C1202 0.950 . S
H1180 C1203 0.950 . S
H1181 C1205 0.950 . S
H1182 C1206 0.950 . S
H1183 C1207 0.951 . S
H1184 C1209 0.951 . S
H1185 C1211 0.950 . S
H1186 C1212 0.950 . S
H1187 C1214 0.950 . S
H1188 C1217 0.950 . S
H1189 C1218 0.950 . S
H1190 C1220 0.950 . S
H1191 C1221 0.950 . S
C1192 H1174 0.951 . S
C1192 C1193 1.366 . S
C1192 C1194 1.388 . S
C1193 C1192 1.366 . S
C1193 C1197 1.385 . S
C1194 H1175 0.951 . S
C1194 C1192 1.388 . S
C1194 C1195 1.366 . S
C1195 C1194 1.366 . S
C1195 C1196 1.414 . S
C1195 C1198 1.499 . S
C1196 H1176 0.950 . S
C1196 C1195 1.414 . S
C1196 C1197 1.374 . S
C1197 H1177 0.950 . S
C1197 C1193 1.385 . S
C1197 C1196 1.374 . S
C1198 C1195 1.499 . S
C1198 C1199 1.373 . S
C1198 C1200 1.389 . S
C1199 H1178 0.950 . S
C1199 C1198 1.373 . S
C1199 C1215 1.377 . S
C1200 C1198 1.389 . S
C1200 C1201 1.524 . S
C1200 C1214 1.377 . S
C1201 C1200 1.524 . S
C1201 C1202 1.397 . S
C1201 C1206 1.363 . S
C1202 H1179 0.950 . S
C1202 C1201 1.397 . S
C1202 C1203 1.334 . S
C1203 H1180 0.950 . S
C1203 C1202 1.334 . S
C1203 C1204 1.287 . S
C1204 C1203 1.287 . S
C1204 C1205 1.524 . S
C1204 H1223 0.913 . S
C1205 H1181 0.950 . S
C1205 C1204 1.524 . S
C1205 C1206 1.415 . S
C1206 H1182 0.950 . S
C1206 C1201 1.363 . S
C1206 C1205 1.415 . S
C1207 H1183 0.951 . S
C1207 C1208 1.366 . S
C1207 C1209 1.388 . S
C1208 C1207 1.366 . S
C1208 C1212 1.385 . S
C1209 H1184 0.951 . S
C1209 C1207 1.388 . S
C1209 C1210 1.366 . S
C1210 C1209 1.366 . S
C1210 C1211 1.414 . S
C1210 C1213 1.499 . S
C1211 H1185 0.950 . S
C1211 C1210 1.414 . S
C1211 C1212 1.374 . S
C1212 H1186 0.950 . S
C1212 C1208 1.385 . S
C1212 C1211 1.374 . S
C1213 C1210 1.499 . S
C1213 C1214 1.373 . S
C1213 C1215 1.389 . S
C1214 H1187 0.950 . S
C1214 C1200 1.377 . S
C1214 C1213 1.373 . S
C1215 C1199 1.377 . S
C1215 C1213 1.389 . S
C1215 C1216 1.524 . S
C1216 C1215 1.524 . S
C1216 C1217 1.397 . S
C1216 C1221 1.363 . S
C1217 H1188 0.950 . S
C1217 C1216 1.397 . S
C1217 C1218 1.334 . S
C1218 H1189 0.950 . S
C1218 C1217 1.334 . S
C1218 C1219 1.287 . S
C1219 C1218 1.287 . S
C1219 C1220 1.524 . S
C1219 H1222 0.999 . S
C1220 H1190 0.950 . S
C1220 C1219 1.524 . S
C1220 C1221 1.415 . S
C1221 H1191 0.950 . S
C1221 C1216 1.363 . S
C1221 C1220 1.415 . S
H1222 C1219 0.999 . S
H1223 C1204 0.913 . S
H1224 C1242 0.951 . S
H1225 C1244 0.951 . S
H1226 C1246 0.950 . S
H1227 C1247 0.950 . S
H1228 C1249 0.950 . S
H1229 C1252 0.950 . S
H1230 C1253 0.950 . S
H1231 C1255 0.950 . S
H1232 C1256 0.950 . S
H1233 C1257 0.951 . S
H1234 C1259 0.951 . S
H1235 C1261 0.950 . S
H1236 C1262 0.950 . S
H1237 C1264 0.950 . S
H1238 C1267 0.950 . S
H1239 C1268 0.950 . S
H1240 C1270 0.950 . S
H1241 C1271 0.950 . S
C1242 H1224 0.951 . S
C1242 C1243 1.366 . S
C1242 C1244 1.388 . S
C1243 C1242 1.366 . S
C1243 C1247 1.385 . S
C1244 H1225 0.951 . S
C1244 C1242 1.388 . S
C1244 C1245 1.366 . S
C1245 C1244 1.366 . S
C1245 C1246 1.414 . S
C1245 C1248 1.499 . S
C1246 H1226 0.950 . S
C1246 C1245 1.414 . S
C1246 C1247 1.374 . S
C1247 H1227 0.950 . S
C1247 C1243 1.385 . S
C1247 C1246 1.374 . S
C1248 C1245 1.499 . S
C1248 C1249 1.373 . S
C1248 C1250 1.389 . S
C1249 H1228 0.950 . S
C1249 C1248 1.373 . S
C1249 C1265 1.377 . S
C1250 C1248 1.389 . S
C1250 C1251 1.524 . S
C1250 C1264 1.377 . S
C1251 C1250 1.524 . S
C1251 C1252 1.397 . S
C1251 C1256 1.363 . S
C1252 H1229 0.950 . S
C1252 C1251 1.397 . S
C1252 C1253 1.334 . S
C1253 H1230 0.950 . S
C1253 C1252 1.334 . S
C1253 C1254 1.287 . S
C1254 C1253 1.287 . S
C1254 C1255 1.524 . S
C1254 H1273 0.913 . S
C1255 H1231 0.950 . S
C1255 C1254 1.524 . S
C1255 C1256 1.415 . S
C1256 H1232 0.950 . S
C1256 C1251 1.363 . S
C1256 C1255 1.415 . S
C1257 H1233 0.951 . S
C1257 C1258 1.366 . S
C1257 C1259 1.388 . S
C1258 C1257 1.366 . S
C1258 C1262 1.385 . S
C1259 H1234 0.951 . S
C1259 C1257 1.388 . S
C1259 C1260 1.366 . S
C1260 C1259 1.366 . S
C1260 C1261 1.414 . S
C1260 C1263 1.499 . S
C1261 H1235 0.950 . S
C1261 C1260 1.414 . S
C1261 C1262 1.374 . S
C1262 H1236 0.950 . S
C1262 C1258 1.385 . S
C1262 C1261 1.374 . S
C1263 C1260 1.499 . S
C1263 C1264 1.373 . S
C1263 C1265 1.389 . S
C1264 H1237 0.950 . S
C1264 C1250 1.377 . S
C1264 C1263 1.373 . S
C1265 C1249 1.377 . S
C1265 C1263 1.389 . S
C1265 C1266 1.524 . S
C1266 C1265 1.524 . S
C1266 C1267 1.397 . S
C1266 C1271 1.363 . S
C1267 H1238 0.950 . S
C1267 C1266 1.397 . S
C1267 C1268 1.334 . S
C1268 H1239 0.950 . S
C1268 C1267 1.334 . S
C1268 C1269 1.287 . S
C1269 C1268 1.287 . S
C1269 C1270 1.524 . S
C1269 H1272 0.999 . S
C1270 H1240 0.950 . S
C1270 C1269 1.524 . S
C1270 C1271 1.415 . S
C1271 H1241 0.950 . S
C1271 C1266 1.363 . S
C1271 C1270 1.415 . S
H1272 C1269 0.999 . S
H1273 C1254 0.913 . S
H1274 C1292 0.951 . S
H1275 C1294 0.951 . S
H1276 C1296 0.950 . S
H1277 C1297 0.950 . S
H1278 C1299 0.950 . S
H1279 C1302 0.950 . S
H1280 C1303 0.950 . S
H1281 C1305 0.950 . S
H1282 C1306 0.950 . S
H1283 C1307 0.951 . S
H1284 C1309 0.951 . S
H1285 C1311 0.950 . S
H1286 C1312 0.950 . S
H1287 C1314 0.950 . S
H1288 C1317 0.950 . S
H1289 C1318 0.950 . S
H1290 C1320 0.950 . S
H1291 C1321 0.950 1_554 S
C1292 H1274 0.951 . S
C1292 C1293 1.366 . S
C1292 C1294 1.388 . S
C1293 C1292 1.366 . S
C1293 C1297 1.385 . S
C1294 H1275 0.951 . S
C1294 C1292 1.388 . S
C1294 C1295 1.366 . S
C1295 C1294 1.366 . S
C1295 C1296 1.414 . S
C1295 C1298 1.499 . S
C1296 H1276 0.950 . S
C1296 C1295 1.414 . S
C1296 C1297 1.374 . S
C1297 H1277 0.950 . S
C1297 C1293 1.385 . S
C1297 C1296 1.374 . S
C1298 C1295 1.499 . S
C1298 C1299 1.373 . S
C1298 C1300 1.389 . S
C1299 H1278 0.950 . S
C1299 C1298 1.373 . S
C1299 C1315 1.377 . S
C1300 C1298 1.389 . S
C1300 C1301 1.524 . S
C1300 C1314 1.377 . S
C1301 C1300 1.524 . S
C1301 C1302 1.397 . S
C1301 C1306 1.363 . S
C1302 H1279 0.950 . S
C1302 C1301 1.397 . S
C1302 C1303 1.334 . S
C1303 H1280 0.950 . S
C1303 C1302 1.334 . S
C1303 C1304 1.287 . S
C1304 C1303 1.287 . S
C1304 C1305 1.524 . S
C1304 H1323 0.913 . S
C1305 H1281 0.950 . S
C1305 C1304 1.524 . S
C1305 C1306 1.415 . S
C1306 H1282 0.950 . S
C1306 C1301 1.363 . S
C1306 C1305 1.415 . S
C1307 H1283 0.951 . S
C1307 C1308 1.366 . S
C1307 C1309 1.388 . S
C1308 C1307 1.366 . S
C1308 C1312 1.385 . S
C1309 H1284 0.951 . S
C1309 C1307 1.388 . S
C1309 C1310 1.366 . S
C1310 C1309 1.366 . S
C1310 C1311 1.414 . S
C1310 C1313 1.499 . S
C1311 H1285 0.950 . S
C1311 C1310 1.414 . S
C1311 C1312 1.374 . S
C1312 H1286 0.950 . S
C1312 C1308 1.385 . S
C1312 C1311 1.374 . S
C1313 C1310 1.499 . S
C1313 C1314 1.373 1_556 S
C1313 C1315 1.389 1_556 S
C1314 H1287 0.950 . S
C1314 C1300 1.377 . S
C1314 C1313 1.373 1_554 S
C1315 C1299 1.377 . S
C1315 C1313 1.389 1_554 S
C1315 C1316 1.524 1_554 S
C1316 C1315 1.524 1_556 S
C1316 C1317 1.397 . S
C1316 C1321 1.363 . S
C1317 H1288 0.950 . S
C1317 C1316 1.397 . S
C1317 C1318 1.334 . S
C1318 H1289 0.950 . S
C1318 C1317 1.334 . S
C1318 C1319 1.287 . S
C1319 C1318 1.287 . S
C1319 C1320 1.524 . S
C1319 H1322 0.999 . S
C1320 H1290 0.950 . S
C1320 C1319 1.524 . S
C1320 C1321 1.415 . S
C1321 H1291 0.950 1_556 S
C1321 C1316 1.363 . S
C1321 C1320 1.415 . S
H1322 C1319 0.999 . S
H1323 C1304 0.913 . S
H1324 C1342 0.951 . S
H1325 C1344 0.951 . S
H1326 C1346 0.950 . S
H1327 C1347 0.950 . S
H1328 C1349 0.950 . S
H1329 C1352 0.950 . S
H1330 C1353 0.950 . S
H1331 C1355 0.950 . S
H1332 C1356 0.950 . S
H1333 C1357 0.951 . S
H1334 C1359 0.951 . S
H1335 C1361 0.950 . S
H1336 C1362 0.950 . S
H1337 C1364 0.950 . S
H1338 C1367 0.950 . S
H1339 C1368 0.950 . S
H1340 C1370 0.950 . S
H1341 C1371 0.950 . S
C1342 H1324 0.951 . S
C1342 C1343 1.366 . S
C1342 C1344 1.388 . S
C1343 C1342 1.366 . S
C1343 C1347 1.385 . S
C1344 H1325 0.951 . S
C1344 C1342 1.388 . S
C1344 C1345 1.366 . S
C1345 C1344 1.366 . S
C1345 C1346 1.414 . S
C1345 C1348 1.499 . S
C1346 H1326 0.950 . S
C1346 C1345 1.414 . S
C1346 C1347 1.374 . S
C1347 H1327 0.950 . S
C1347 C1343 1.385 . S
C1347 C1346 1.374 . S
C1348 C1345 1.499 . S
C1348 C1349 1.373 . S
C1348 C1350 1.389 . S
C1349 H1328 0.950 . S
C1349 C1348 1.373 . S
C1349 C1365 1.377 . S
C1350 C1348 1.389 . S
C1350 C1351 1.524 . S
C1350 C1364 1.377 . S
C1351 C1350 1.524 . S
C1351 C1352 1.397 . S
C1351 C1356 1.363 . S
C1352 H1329 0.950 . S
C1352 C1351 1.397 . S
C1352 C1353 1.334 . S
C1353 H1330 0.950 . S
C1353 C1352 1.334 . S
C1353 C1354 1.287 . S
C1354 C1353 1.287 . S
C1354 C1355 1.524 . S
C1354 H1373 0.913 . S
C1355 H1331 0.950 . S
C1355 C1354 1.524 . S
C1355 C1356 1.415 . S
C1356 H1332 0.950 . S
C1356 C1351 1.363 . S
C1356 C1355 1.415 . S
C1357 H1333 0.951 . S
C1357 C1358 1.366 . S
C1357 C1359 1.388 . S
C1358 C1357 1.366 . S
C1358 C1362 1.385 . S
C1359 H1334 0.951 . S
C1359 C1357 1.388 . S
C1359 C1360 1.366 . S
C1360 C1359 1.366 . S
C1360 C1361 1.414 . S
C1360 C1363 1.499 . S
C1361 H1335 0.950 . S
C1361 C1360 1.414 . S
C1361 C1362 1.374 . S
C1362 H1336 0.950 . S
C1362 C1358 1.385 . S
C1362 C1361 1.374 . S
C1363 C1360 1.499 . S
C1363 C1364 1.373 . S
C1363 C1365 1.389 . S
C1364 H1337 0.950 . S
C1364 C1350 1.377 . S
C1364 C1363 1.373 . S
C1365 C1349 1.377 . S
C1365 C1363 1.389 . S
C1365 C1366 1.524 . S
C1366 C1365 1.524 . S
C1366 C1367 1.397 . S
C1366 C1371 1.363 . S
C1367 H1338 0.950 . S
C1367 C1366 1.397 . S
C1367 C1368 1.334 . S
C1368 H1339 0.950 . S
C1368 C1367 1.334 . S
C1368 C1369 1.287 . S
C1369 C1368 1.287 . S
C1369 C1370 1.524 . S
C1369 H1372 0.999 . S
C1370 H1340 0.950 . S
C1370 C1369 1.524 . S
C1370 C1371 1.415 . S
C1371 H1341 0.950 . S
C1371 C1366 1.363 . S
C1371 C1370 1.415 . S
H1372 C1369 0.999 . S
H1373 C1354 0.913 . S
H1374 C1392 0.951 . S
H1375 C1394 0.951 . S
H1376 C1396 0.950 . S
H1377 C1397 0.950 . S
H1378 C1399 0.950 . S
H1379 C1402 0.950 . S
H1380 C1403 0.950 . S
H1381 C1405 0.950 . S
H1382 C1406 0.950 . S
H1383 C1407 0.951 . S
H1384 C1409 0.951 . S
H1385 C1411 0.950 . S
H1386 C1412 0.950 . S
H1387 C1414 0.950 . S
H1388 C1417 0.950 . S
H1389 C1418 0.950 . S
H1390 C1420 0.950 . S
H1391 C1421 0.950 . S
C1392 H1374 0.951 . S
C1392 C1393 1.366 . S
C1392 C1394 1.388 . S
C1393 C1392 1.366 . S
C1393 C1397 1.385 . S
C1394 H1375 0.951 . S
C1394 C1392 1.388 . S
C1394 C1395 1.366 . S
C1395 C1394 1.366 . S
C1395 C1396 1.414 . S
C1395 C1398 1.499 . S
C1396 H1376 0.950 . S
C1396 C1395 1.414 . S
C1396 C1397 1.374 . S
C1397 H1377 0.950 . S
C1397 C1393 1.385 . S
C1397 C1396 1.374 . S
C1398 C1395 1.499 . S
C1398 C1399 1.373 . S
C1398 C1400 1.389 . S
C1399 H1378 0.950 . S
C1399 C1398 1.373 . S
C1399 C1415 1.377 . S
C1400 C1398 1.389 . S
C1400 C1401 1.524 . S
C1400 C1414 1.377 . S
C1401 C1400 1.524 . S
C1401 C1402 1.397 . S
C1401 C1406 1.363 . S
C1402 H1379 0.950 . S
C1402 C1401 1.397 . S
C1402 C1403 1.334 . S
C1403 H1380 0.950 . S
C1403 C1402 1.334 . S
C1403 C1404 1.287 . S
C1404 C1403 1.287 . S
C1404 C1405 1.524 . S
C1404 H1423 0.913 . S
C1405 H1381 0.950 . S
C1405 C1404 1.524 . S
C1405 C1406 1.415 . S
C1406 H1382 0.950 . S
C1406 C1401 1.363 . S
C1406 C1405 1.415 . S
C1407 H1383 0.951 . S
C1407 C1408 1.366 . S
C1407 C1409 1.388 . S
C1408 C1407 1.366 . S
C1408 C1412 1.385 . S
C1409 H1384 0.951 . S
C1409 C1407 1.388 . S
C1409 C1410 1.366 . S
C1410 C1409 1.366 . S
C1410 C1411 1.414 . S
C1410 C1413 1.499 . S
C1411 H1385 0.950 . S
C1411 C1410 1.414 . S
C1411 C1412 1.374 . S
C1412 H1386 0.950 . S
C1412 C1408 1.385 . S
C1412 C1411 1.374 . S
C1413 C1410 1.499 . S
C1413 C1414 1.373 . S
C1413 C1415 1.389 . S
C1414 H1387 0.950 . S
C1414 C1400 1.377 . S
C1414 C1413 1.373 . S
C1415 C1399 1.377 . S
C1415 C1413 1.389 . S
C1415 C1416 1.524 . S
C1416 C1415 1.524 . S
C1416 C1417 1.397 . S
C1416 C1421 1.363 . S
C1417 H1388 0.950 . S
C1417 C1416 1.397 . S
C1417 C1418 1.334 . S
C1418 H1389 0.950 . S
C1418 C1417 1.334 . S
C1418 C1419 1.287 . S
C1419 C1418 1.287 . S
C1419 C1420 1.524 . S
C1419 H1422 0.999 . S
C1420 H1390 0.950 . S
C1420 C1419 1.524 . S
C1420 C1421 1.415 . S
C1421 H1391 0.950 . S
C1421 C1416 1.363 . S
C1421 C1420 1.415 . S
H1422 C1419 0.999 . S
H1423 C1404 0.913 . S
H1424 C1442 0.951 . S
H1425 C1444 0.951 . S
H1426 C1446 0.950 . S
H1427 C1447 0.950 . S
H1428 C1449 0.950 . S
H1429 C1452 0.950 . S
H1430 C1453 0.950 . S
H1431 C1455 0.950 . S
H1432 C1456 0.950 1_554 S
H1433 C1457 0.951 . S
H1434 C1459 0.951 . S
H1435 C1461 0.950 . S
H1436 C1462 0.950 . S
H1437 C1464 0.950 . S
H1438 C1467 0.950 . S
H1439 C1468 0.950 . S
H1440 C1470 0.950 . S
H1441 C1471 0.950 . S
C1442 H1424 0.951 . S
C1442 C1443 1.366 . S
C1442 C1444 1.388 . S
C1443 C1442 1.366 . S
C1443 C1447 1.385 . S
C1444 H1425 0.951 . S
C1444 C1442 1.388 . S
C1444 C1445 1.366 . S
C1445 C1444 1.366 . S
C1445 C1446 1.414 . S
C1445 C1448 1.499 . S
C1446 H1426 0.950 . S
C1446 C1445 1.414 . S
C1446 C1447 1.374 . S
C1447 H1427 0.950 . S
C1447 C1443 1.385 . S
C1447 C1446 1.374 . S
C1448 C1445 1.499 . S
C1448 C1449 1.373 1_556 S
C1448 C1450 1.389 1_556 S
C1449 H1428 0.950 . S
C1449 C1448 1.373 1_554 S
C1449 C1465 1.377 . S
C1450 C1448 1.389 1_554 S
C1450 C1451 1.524 1_554 S
C1450 C1464 1.377 . S
C1451 C1450 1.524 1_556 S
C1451 C1452 1.397 . S
C1451 C1456 1.363 . S
C1452 H1429 0.950 . S
C1452 C1451 1.397 . S
C1452 C1453 1.334 . S
C1453 H1430 0.950 . S
C1453 C1452 1.334 . S
C1453 C1454 1.287 . S
C1454 C1453 1.287 . S
C1454 C1455 1.524 . S
C1454 H1473 0.913 . S
C1455 H1431 0.950 . S
C1455 C1454 1.524 . S
C1455 C1456 1.415 . S
C1456 H1432 0.950 1_556 S
C1456 C1451 1.363 . S
C1456 C1455 1.415 . S
C1457 H1433 0.951 . S
C1457 C1458 1.366 . S
C1457 C1459 1.388 . S
C1458 C1457 1.366 . S
C1458 C1462 1.385 . S
C1459 H1434 0.951 . S
C1459 C1457 1.388 . S
C1459 C1460 1.366 . S
C1460 C1459 1.366 . S
C1460 C1461 1.414 . S
C1460 C1463 1.499 . S
C1461 H1435 0.950 . S
C1461 C1460 1.414 . S
C1461 C1462 1.374 . S
C1462 H1436 0.950 . S
C1462 C1458 1.385 . S
C1462 C1461 1.374 . S
C1463 C1460 1.499 . S
C1463 C1464 1.373 . S
C1463 C1465 1.389 . S
C1464 H1437 0.950 . S
C1464 C1450 1.377 . S
C1464 C1463 1.373 . S
C1465 C1449 1.377 . S
C1465 C1463 1.389 . S
C1465 C1466 1.524 . S
C1466 C1465 1.524 . S
C1466 C1467 1.397 . S
C1466 C1471 1.363 . S
C1467 H1438 0.950 . S
C1467 C1466 1.397 . S
C1467 C1468 1.334 . S
C1468 H1439 0.950 . S
C1468 C1467 1.334 . S
C1468 C1469 1.287 . S
C1469 C1468 1.287 . S
C1469 C1470 1.524 . S
C1469 H1472 0.999 . S
C1470 H1440 0.950 . S
C1470 C1469 1.524 . S
C1470 C1471 1.415 . S
C1471 H1441 0.950 . S
C1471 C1466 1.363 . S
C1471 C1470 1.415 . S
H1472 C1469 0.999 . S
H1473 C1454 0.913 . S
H1474 C1492 0.951 . S
H1475 C1494 0.951 . S
H1476 C1496 0.950 . S
H1477 C1497 0.950 . S
H1478 C1499 0.950 . S
H1479 C1502 0.950 . S
H1480 C1503 0.950 . S
H1481 C1505 0.950 . S
H1482 C1506 0.950 . S
H1483 C1507 0.951 . S
H1484 C1509 0.951 . S
H1485 C1511 0.950 . S
H1486 C1512 0.950 . S
H1487 C1514 0.950 . S
H1488 C1517 0.950 . S
H1489 C1518 0.950 . S
H1490 C1520 0.950 . S
H1491 C1521 0.950 . S
C1492 H1474 0.951 . S
C1492 C1493 1.366 . S
C1492 C1494 1.388 . S
C1493 C1492 1.366 . S
C1493 C1497 1.385 . S
C1494 H1475 0.951 . S
C1494 C1492 1.388 . S
C1494 C1495 1.366 . S
C1495 C1494 1.366 . S
C1495 C1496 1.414 . S
C1495 C1498 1.499 . S
C1496 H1476 0.950 . S
C1496 C1495 1.414 . S
C1496 C1497 1.374 . S
C1497 H1477 0.950 . S
C1497 C1493 1.385 . S
C1497 C1496 1.374 . S
C1498 C1495 1.499 . S
C1498 C1499 1.373 . S
C1498 C1500 1.389 . S
C1499 H1478 0.950 . S
C1499 C1498 1.373 . S
C1499 C1515 1.377 . S
C1500 C1498 1.389 . S
C1500 C1501 1.524 . S
C1500 C1514 1.377 . S
C1501 C1500 1.524 . S
C1501 C1502 1.397 . S
C1501 C1506 1.363 . S
C1502 H1479 0.950 . S
C1502 C1501 1.397 . S
C1502 C1503 1.334 . S
C1503 H1480 0.950 . S
C1503 C1502 1.334 . S
C1503 C1504 1.287 . S
C1504 C1503 1.287 . S
C1504 C1505 1.524 . S
C1504 H1523 0.913 . S
C1505 H1481 0.950 . S
C1505 C1504 1.524 . S
C1505 C1506 1.415 . S
C1506 H1482 0.950 . S
C1506 C1501 1.363 . S
C1506 C1505 1.415 . S
C1507 H1483 0.951 . S
C1507 C1508 1.366 . S
C1507 C1509 1.388 . S
C1508 C1507 1.366 . S
C1508 C1512 1.385 . S
C1509 H1484 0.951 . S
C1509 C1507 1.388 . S
C1509 C1510 1.366 . S
C1510 C1509 1.366 . S
C1510 C1511 1.414 . S
C1510 C1513 1.499 . S
C1511 H1485 0.950 . S
C1511 C1510 1.414 . S
C1511 C1512 1.374 . S
C1512 H1486 0.950 . S
C1512 C1508 1.385 . S
C1512 C1511 1.374 . S
C1513 C1510 1.499 . S
C1513 C1514 1.373 . S
C1513 C1515 1.389 . S
C1514 H1487 0.950 . S
C1514 C1500 1.377 . S
C1514 C1513 1.373 . S
C1515 C1499 1.377 . S
C1515 C1513 1.389 . S
C1515 C1516 1.524 . S
C1516 C1515 1.524 . S
C1516 C1517 1.397 . S
C1516 C1521 1.363 . S
C1517 H1488 0.950 . S
C1517 C1516 1.397 . S
C1517 C1518 1.334 . S
C1518 H1489 0.950 . S
C1518 C1517 1.334 . S
C1518 C1519 1.287 . S
C1519 C1518 1.287 . S
C1519 C1520 1.524 . S
C1519 H1522 0.999 . S
C1520 H1490 0.950 . S
C1520 C1519 1.524 . S
C1520 C1521 1.415 . S
C1521 H1491 0.950 . S
C1521 C1516 1.363 . S
C1521 C1520 1.415 . S
H1522 C1519 0.999 . S
H1523 C1504 0.913 . S
H1524 C1542 0.951 . S
H1525 C1544 0.951 . S
H1526 C1546 0.950 . S
H1527 C1547 0.950 . S
H1528 C1549 0.950 . S
H1529 C1552 0.950 . S
H1530 C1553 0.950 . S
H1531 C1555 0.950 . S
H1532 C1556 0.950 . S
H1533 C1557 0.951 . S
H1534 C1559 0.951 . S
H1535 C1561 0.950 . S
H1536 C1562 0.950 . S
H1537 C1564 0.950 . S
H1538 C1567 0.950 . S
H1539 C1568 0.950 . S
H1540 C1570 0.950 . S
H1541 C1571 0.950 . S
C1542 H1524 0.951 . S
C1542 C1543 1.366 . S
C1542 C1544 1.388 . S
C1543 C1542 1.366 . S
C1543 C1547 1.385 . S
C1544 H1525 0.951 . S
C1544 C1542 1.388 . S
C1544 C1545 1.366 . S
C1545 C1544 1.366 . S
C1545 C1546 1.414 . S
C1545 C1548 1.499 . S
C1546 H1526 0.950 . S
C1546 C1545 1.414 . S
C1546 C1547 1.374 . S
C1547 H1527 0.950 . S
C1547 C1543 1.385 . S
C1547 C1546 1.374 . S
C1548 C1545 1.499 . S
C1548 C1549 1.373 . S
C1548 C1550 1.389 . S
C1549 H1528 0.950 . S
C1549 C1548 1.373 . S
C1549 C1565 1.377 . S
C1550 C1548 1.389 . S
C1550 C1551 1.524 . S
C1550 C1564 1.377 . S
C1551 C1550 1.524 . S
C1551 C1552 1.397 . S
C1551 C1556 1.363 . S
C1552 H1529 0.950 . S
C1552 C1551 1.397 . S
C1552 C1553 1.334 . S
C1553 H1530 0.950 . S
C1553 C1552 1.334 . S
C1553 C1554 1.287 . S
C1554 C1553 1.287 . S
C1554 C1555 1.524 . S
C1554 H1573 0.913 . S
C1555 H1531 0.950 . S
C1555 C1554 1.524 . S
C1555 C1556 1.415 . S
C1556 H1532 0.950 . S
C1556 C1551 1.363 . S
C1556 C1555 1.415 . S
C1557 H1533 0.951 . S
C1557 C1558 1.366 . S
C1557 C1559 1.388 . S
C1558 C1557 1.366 . S
C1558 C1562 1.385 . S
C1559 H1534 0.951 . S
C1559 C1557 1.388 . S
C1559 C1560 1.366 . S
C1560 C1559 1.366 . S
C1560 C1561 1.414 . S
C1560 C1563 1.499 . S
C1561 H1535 0.950 . S
C1561 C1560 1.414 . S
C1561 C1562 1.374 . S
C1562 H1536 0.950 . S
C1562 C1558 1.385 . S
C1562 C1561 1.374 . S
C1563 C1560 1.499 . S
C1563 C1564 1.373 . S
C1563 C1565 1.389 . S
C1564 H1537 0.950 . S
C1564 C1550 1.377 . S
C1564 C1563 1.373 . S
C1565 C1549 1.377 . S
C1565 C1563 1.389 . S
C1565 C1566 1.524 . S
C1566 C1565 1.524 . S
C1566 C1567 1.397 . S
C1566 C1571 1.363 . S
C1567 H1538 0.950 . S
C1567 C1566 1.397 . S
C1567 C1568 1.334 . S
C1568 H1539 0.950 . S
C1568 C1567 1.334 . S
C1568 C1569 1.287 . S
C1569 C1568 1.287 . S
C1569 C1570 1.524 . S
C1569 H1572 0.999 . S
C1570 H1540 0.950 . S
C1570 C1569 1.524 . S
C1570 C1571 1.415 . S
C1571 H1541 0.950 . S
C1571 C1566 1.363 . S
C1571 C1570 1.415 . S
H1572 C1569 0.999 . S
H1573 C1554 0.913 . S
H1574 C1592 0.951 . S
H1575 C1594 0.951 . S
H1576 C1596 0.950 . S
H1577 C1597 0.950 . S
H1578 C1599 0.950 . S
H1579 C1602 0.950 . S
H1580 C1603 0.950 . S
H1581 C1605 0.950 . S
H1582 C1606 0.950 . S
H1583 C1607 0.951 . S
H1584 C1609 0.951 . S
H1585 C1611 0.950 . S
H1586 C1612 0.950 . S
H1587 C1614 0.950 . S
H1588 C1617 0.950 . S
H1589 C1618 0.950 . S
H1590 C1620 0.950 . S
H1591 C1621 0.950 . S
C1592 H1574 0.951 . S
C1592 C1593 1.366 . S
C1592 C1594 1.388 . S
C1593 C1592 1.366 . S
C1593 C1597 1.385 . S
C1594 H1575 0.951 . S
C1594 C1592 1.388 . S
C1594 C1595 1.366 . S
C1595 C1594 1.366 . S
C1595 C1596 1.414 . S
C1595 C1598 1.499 . S
C1596 H1576 0.950 . S
C1596 C1595 1.414 . S
C1596 C1597 1.374 . S
C1597 H1577 0.950 . S
C1597 C1593 1.385 . S
C1597 C1596 1.374 . S
C1598 C1595 1.499 . S
C1598 C1599 1.373 . S
C1598 C1600 1.389 . S
C1599 H1578 0.950 . S
C1599 C1598 1.373 . S
C1599 C1615 1.377 . S
C1600 C1598 1.389 . S
C1600 C1601 1.524 . S
C1600 C1614 1.377 . S
C1601 C1600 1.524 . S
C1601 C1602 1.397 . S
C1601 C1606 1.363 . S
C1602 H1579 0.950 . S
C1602 C1601 1.397 . S
C1602 C1603 1.334 . S
C1603 H1580 0.950 . S
C1603 C1602 1.334 . S
C1603 C1604 1.287 . S
C1604 C1603 1.287 . S
C1604 C1605 1.524 . S
C1604 H1623 0.913 . S
C1605 H1581 0.950 . S
C1605 C1604 1.524 . S
C1605 C1606 1.415 . S
C1606 H1582 0.950 . S
C1606 C1601 1.363 . S
C1606 C1605 1.415 . S
C1607 H1583 0.951 . S
C1607 C1608 1.366 . S
C1607 C1609 1.388 . S
C1608 C1607 1.366 . S
C1608 C1612 1.385 . S
C1609 H1584 0.951 . S
C1609 C1607 1.388 . S
C1609 C1610 1.366 . S
C1610 C1609 1.366 . S
C1610 C1611 1.414 . S
C1610 C1613 1.499 . S
C1611 H1585 0.950 . S
C1611 C1610 1.414 . S
C1611 C1612 1.374 . S
C1612 H1586 0.950 . S
C1612 C1608 1.385 . S
C1612 C1611 1.374 . S
C1613 C1610 1.499 . S
C1613 C1614 1.373 . S
C1613 C1615 1.389 . S
C1614 H1587 0.950 . S
C1614 C1600 1.377 . S
C1614 C1613 1.373 . S
C1615 C1599 1.377 . S
C1615 C1613 1.389 . S
C1615 C1616 1.524 . S
C1616 C1615 1.524 . S
C1616 C1617 1.397 . S
C1616 C1621 1.363 . S
C1617 H1588 0.950 . S
C1617 C1616 1.397 . S
C1617 C1618 1.334 . S
C1618 H1589 0.950 . S
C1618 C1617 1.334 . S
C1618 C1619 1.287 . S
C1619 C1618 1.287 . S
C1619 C1620 1.524 . S
C1619 H1622 0.999 . S
C1620 H1590 0.950 . S
C1620 C1619 1.524 . S
C1620 C1621 1.415 . S
C1621 H1591 0.950 . S
C1621 C1616 1.363 . S
C1621 C1620 1.415 . S
H1622 C1619 0.999 . S
H1623 C1604 0.913 . S
H1624 C1642 0.951 . S
H1625 C1644 0.951 . S
H1626 C1646 0.950 . S
H1627 C1647 0.950 . S
H1628 C1649 0.950 . S
H1629 C1652 0.950 . S
H1630 C1653 0.950 . S
H1631 C1655 0.950 . S
H1632 C1656 0.950 . S
H1633 C1657 0.951 . S
H1634 C1659 0.951 . S
H1635 C1661 0.950 . S
H1636 C1662 0.950 . S
H1637 C1664 0.950 . S
H1638 C1667 0.950 . S
H1639 C1668 0.950 . S
H1640 C1670 0.950 . S
H1641 C1671 0.950 . S
C1642 H1624 0.951 . S
C1642 C1643 1.366 . S
C1642 C1644 1.388 . S
C1643 C1642 1.366 . S
C1643 C1647 1.385 . S
C1644 H1625 0.951 . S
C1644 C1642 1.388 . S
C1644 C1645 1.366 . S
C1645 C1644 1.366 . S
C1645 C1646 1.414 . S
C1645 C1648 1.499 . S
C1646 H1626 0.950 . S
C1646 C1645 1.414 . S
C1646 C1647 1.374 . S
C1647 H1627 0.950 . S
C1647 C1643 1.385 . S
C1647 C1646 1.374 . S
C1648 C1645 1.499 . S
C1648 C1649 1.373 . S
C1648 C1650 1.389 . S
C1649 H1628 0.950 . S
C1649 C1648 1.373 . S
C1649 C1665 1.377 . S
C1650 C1648 1.389 . S
C1650 C1651 1.524 . S
C1650 C1664 1.377 . S
C1651 C1650 1.524 . S
C1651 C1652 1.397 . S
C1651 C1656 1.363 . S
C1652 H1629 0.950 . S
C1652 C1651 1.397 . S
C1652 C1653 1.334 . S
C1653 H1630 0.950 . S
C1653 C1652 1.334 . S
C1653 C1654 1.287 . S
C1654 C1653 1.287 . S
C1654 C1655 1.524 . S
C1654 H1673 0.913 . S
C1655 H1631 0.950 . S
C1655 C1654 1.524 . S
C1655 C1656 1.415 . S
C1656 H1632 0.950 . S
C1656 C1651 1.363 . S
C1656 C1655 1.415 . S
C1657 H1633 0.951 . S
C1657 C1658 1.366 . S
C1657 C1659 1.388 . S
C1658 C1657 1.366 . S
C1658 C1662 1.385 . S
C1659 H1634 0.951 . S
C1659 C1657 1.388 . S
C1659 C1660 1.366 . S
C1660 C1659 1.366 . S
C1660 C1661 1.414 . S
C1660 C1663 1.499 . S
C1661 H1635 0.950 . S
C1661 C1660 1.414 . S
C1661 C1662 1.374 . S
C1662 H1636 0.950 . S
C1662 C1658 1.385 . S
C1662 C1661 1.374 . S
C1663 C1660 1.499 . S
C1663 C1664 1.373 . S
C1663 C1665 1.389 . S
C1664 H1637 0.950 . S
C1664 C1650 1.377 . S
C1664 C1663 1.373 . S
C1665 C1649 1.377 . S
C1665 C1663 1.389 . S
C1665 C1666 1.524 . S
C1666 C1665 1.524 . S
C1666 C1667 1.397 . S
C1666 C1671 1.363 . S
C1667 H1638 0.950 . S
C1667 C1666 1.397 . S
C1667 C1668 1.334 . S
C1668 H1639 0.950 . S
C1668 C1667 1.334 . S
C1668 C1669 1.287 . S
C1669 C1668 1.287 . S
C1669 C1670 1.524 . S
C1669 H1672 0.999 . S
C1670 H1640 0.950 . S
C1670 C1669 1.524 . S
C1670 C1671 1.415 . S
C1671 H1641 0.950 . S
C1671 C1666 1.363 . S
C1671 C1670 1.415 . S
H1672 C1669 0.999 . S
H1673 C1654 0.913 . S
H1674 C1692 0.951 . S
H1675 C1694 0.951 . S
H1676 C1696 0.950 . S
H1677 C1697 0.950 . S
H1678 C1699 0.950 . S
H1679 C1702 0.950 . S
H1680 C1703 0.950 . S
H1681 C1705 0.950 . S
H1682 C1706 0.950 . S
H1683 C1707 0.951 . S
H1684 C1709 0.951 . S
H1685 C1711 0.950 . S
H1686 C1712 0.950 . S
H1687 C1714 0.950 . S
H1688 C1717 0.950 . S
H1689 C1718 0.950 . S
H1690 C1720 0.950 . S
H1691 C1721 0.950 . S
C1692 H1674 0.951 . S
C1692 C1693 1.366 . S
C1692 C1694 1.388 . S
C1693 C1692 1.366 . S
C1693 C1697 1.385 . S
C1694 H1675 0.951 . S
C1694 C1692 1.388 . S
C1694 C1695 1.366 . S
C1695 C1694 1.366 . S
C1695 C1696 1.414 . S
C1695 C1698 1.499 . S
C1696 H1676 0.950 . S
C1696 C1695 1.414 . S
C1696 C1697 1.374 . S
C1697 H1677 0.950 . S
C1697 C1693 1.385 . S
C1697 C1696 1.374 . S
C1698 C1695 1.499 . S
C1698 C1699 1.373 . S
C1698 C1700 1.389 . S
C1699 H1678 0.950 . S
C1699 C1698 1.373 . S
C1699 C1715 1.377 . S
C1700 C1698 1.389 . S
C1700 C1701 1.524 . S
C1700 C1714 1.377 . S
C1701 C1700 1.524 . S
C1701 C1702 1.397 . S
C1701 C1706 1.363 . S
C1702 H1679 0.950 . S
C1702 C1701 1.397 . S
C1702 C1703 1.334 . S
C1703 H1680 0.950 . S
C1703 C1702 1.334 . S
C1703 C1704 1.287 . S
C1704 C1703 1.287 . S
C1704 C1705 1.524 . S
C1704 H1723 0.913 . S
C1705 H1681 0.950 . S
C1705 C1704 1.524 . S
C1705 C1706 1.415 . S
C1706 H1682 0.950 . S
C1706 C1701 1.363 . S
C1706 C1705 1.415 . S
C1707 H1683 0.951 . S
C1707 C1708 1.366 . S
C1707 C1709 1.388 . S
C1708 C1707 1.366 . S
C1708 C1712 1.385 . S
C1709 H1684 0.951 . S
C1709 C1707 1.388 . S
C1709 C1710 1.366 . S
C1710 C1709 1.366 . S
C1710 C1711 1.414 . S
C1710 C1713 1.499 . S
C1711 H1685 0.950 . S
C1711 C1710 1.414 . S
C1711 C1712 1.374 . S
C1712 H1686 0.950 . S
C1712 C1708 1.385 . S
C1712 C1711 1.374 . S
C1713 C1710 1.499 . S
C1713 C1714 1.373 . S
C1713 C1715 1.389 . S
C1714 H1687 0.950 . S
C1714 C1700 1.377 . S
C1714 C1713 1.373 . S
C1715 C1699 1.377 . S
C1715 C1713 1.389 . S
C1715 C1716 1.524 . S
C1716 C1715 1.524 . S
C1716 C1717 1.397 . S
C1716 C1721 1.363 . S
C1717 H1688 0.950 . S
C1717 C1716 1.397 . S
C1717 C1718 1.334 . S
C1718 H1689 0.950 . S
C1718 C1717 1.334 . S
C1718 C1719 1.287 . S
C1719 C1718 1.287 . S
C1719 C1720 1.524 . S
C1719 H1722 0.999 . S
C1720 H1690 0.950 . S
C1720 C1719 1.524 . S
C1720 C1721 1.415 . S
C1721 H1691 0.950 . S
C1721 C1716 1.363 . S
C1721 C1720 1.415 . S
H1722 C1719 0.999 . S
H1723 C1704 0.913 . S
H1724 C1742 0.951 . S
H1725 C1744 0.951 . S
H1726 C1746 0.950 . S
H1727 C1747 0.950 . S
H1728 C1749 0.950 . S
H1729 C1752 0.950 . S
H1730 C1753 0.950 . S
H1731 C1755 0.950 . S
H1732 C1756 0.950 . S
H1733 C1757 0.951 . S
H1734 C1759 0.951 . S
H1735 C1761 0.950 . S
H1736 C1762 0.950 . S
H1737 C1764 0.950 . S
H1738 C1767 0.950 . S
H1739 C1768 0.950 . S
H1740 C1770 0.950 . S
H1741 C1771 0.950 . S
C1742 H1724 0.951 . S
C1742 C1743 1.366 . S
C1742 C1744 1.388 . S
C1743 C1742 1.366 . S
C1743 C1747 1.385 . S
C1744 H1725 0.951 . S
C1744 C1742 1.388 . S
C1744 C1745 1.366 . S
C1745 C1744 1.366 . S
C1745 C1746 1.414 . S
C1745 C1748 1.499 . S
C1746 H1726 0.950 . S
C1746 C1745 1.414 . S
C1746 C1747 1.374 . S
C1747 H1727 0.950 . S
C1747 C1743 1.385 . S
C1747 C1746 1.374 . S
C1748 C1745 1.499 . S
C1748 C1749 1.373 . S
C1748 C1750 1.389 . S
C1749 H1728 0.950 . S
C1749 C1748 1.373 . S
C1749 C1765 1.377 . S
C1750 C1748 1.389 . S
C1750 C1751 1.524 . S
C1750 C1764 1.377 . S
C1751 C1750 1.524 . S
C1751 C1752 1.397 . S
C1751 C1756 1.363 . S
C1752 H1729 0.950 . S
C1752 C1751 1.397 . S
C1752 C1753 1.334 . S
C1753 H1730 0.950 . S
C1753 C1752 1.334 . S
C1753 C1754 1.287 . S
C1754 C1753 1.287 . S
C1754 C1755 1.524 . S
C1754 H1773 0.913 . S
C1755 H1731 0.950 . S
C1755 C1754 1.524 . S
C1755 C1756 1.415 . S
C1756 H1732 0.950 . S
C1756 C1751 1.363 . S
C1756 C1755 1.415 . S
C1757 H1733 0.951 . S
C1757 C1758 1.366 . S
C1757 C1759 1.388 . S
C1758 C1757 1.366 . S
C1758 C1762 1.385 . S
C1759 H1734 0.951 . S
C1759 C1757 1.388 . S
C1759 C1760 1.366 . S
C1760 C1759 1.366 . S
C1760 C1761 1.414 . S
C1760 C1763 1.499 . S
C1761 H1735 0.950 . S
C1761 C1760 1.414 . S
C1761 C1762 1.374 . S
C1762 H1736 0.950 . S
C1762 C1758 1.385 . S
C1762 C1761 1.374 . S
C1763 C1760 1.499 . S
C1763 C1764 1.373 . S
C1763 C1765 1.389 . S
C1764 H1737 0.950 . S
C1764 C1750 1.377 . S
C1764 C1763 1.373 . S
C1765 C1749 1.377 . S
C1765 C1763 1.389 . S
C1765 C1766 1.524 . S
C1766 C1765 1.524 . S
C1766 C1767 1.397 . S
C1766 C1771 1.363 . S
C1767 H1738 0.950 . S
C1767 C1766 1.397 . S
C1767 C1768 1.334 . S
C1768 H1739 0.950 . S
C1768 C1767 1.334 . S
C1768 C1769 1.287 . S
C1769 C1768 1.287 . S
C1769 C1770 1.524 . S
C1769 H1772 0.999 . S
C1770 H1740 0.950 . S
C1770 C1769 1.524 . S
C1770 C1771 1.415 . S
C1771 H1741 0.950 . S
C1771 C1766 1.363 . S
C1771 C1770 1.415 . S
H1772 C1769 0.999 . S
H1773 C1754 0.913 . S
H1774 C1792 0.951 . S
H1775 C1794 0.951 . S
H1776 C1796 0.950 . S
H1777 C1797 0.950 . S
H1778 C1799 0.950 . S
H1779 C1802 0.950 . S
H1780 C1803 0.950 . S
H1781 C1805 0.950 . S
H1782 C1806 0.950 . S
H1783 C1807 0.951 . S
H1784 C1809 0.951 . S
H1785 C1811 0.950 . S
H1786 C1812 0.950 . S
H1787 C1814 0.950 1_556 S
H1788 C1817 0.950 . S
H1789 C1818 0.950 . S
H1790 C1820 0.950 . S
H1791 C1821 0.950 . S
C1792 H1774 0.951 . S
C1792 C1793 1.366 . S
C1792 C1794 1.388 . S
C1793 C1792 1.366 . S
C1793 C1797 1.385 . S
C1794 H1775 0.951 . S
C1794 C1792 1.388 . S
C1794 C1795 1.366 . S
C1795 C1794 1.366 . S
C1795 C1796 1.414 . S
C1795 C1798 1.499 . S
C1796 H1776 0.950 . S
C1796 C1795 1.414 . S
C1796 C1797 1.374 . S
C1797 H1777 0.950 . S
C1797 C1793 1.385 . S
C1797 C1796 1.374 . S
C1798 C1795 1.499 . S
C1798 C1799 1.373 . S
C1798 C1800 1.389 . S
C1799 H1778 0.950 . S
C1799 C1798 1.373 . S
C1799 C1815 1.377 . S
C1800 C1798 1.389 . S
C1800 C1801 1.524 . S
C1800 C1814 1.377 . S
C1801 C1800 1.524 . S
C1801 C1802 1.397 . S
C1801 C1806 1.363 . S
C1802 H1779 0.950 . S
C1802 C1801 1.397 . S
C1802 C1803 1.334 . S
C1803 H1780 0.950 . S
C1803 C1802 1.334 . S
C1803 C1804 1.287 . S
C1804 C1803 1.287 . S
C1804 C1805 1.524 . S
C1804 H1823 0.913 . S
C1805 H1781 0.950 . S
C1805 C1804 1.524 . S
C1805 C1806 1.415 . S
C1806 H1782 0.950 . S
C1806 C1801 1.363 . S
C1806 C1805 1.415 . S
C1807 H1783 0.951 . S
C1807 C1808 1.366 . S
C1807 C1809 1.388 . S
C1808 C1807 1.366 . S
C1808 C1812 1.385 . S
C1809 H1784 0.951 . S
C1809 C1807 1.388 . S
C1809 C1810 1.366 . S
C1810 C1809 1.366 . S
C1810 C1811 1.414 . S
C1810 C1813 1.499 . S
C1811 H1785 0.950 . S
C1811 C1810 1.414 . S
C1811 C1812 1.374 . S
C1812 H1786 0.950 . S
C1812 C1808 1.385 . S
C1812 C1811 1.374 . S
C1813 C1810 1.499 . S
C1813 C1814 1.373 1_556 S
C1813 C1815 1.389 1_556 S
C1814 H1787 0.950 1_554 S
C1814 C1800 1.377 . S
C1814 C1813 1.373 1_554 S
C1815 C1799 1.377 . S
C1815 C1813 1.389 1_554 S
C1815 C1816 1.524 . S
C1816 C1815 1.524 . S
C1816 C1817 1.397 1_554 S
C1816 C1821 1.363 . S
C1817 H1788 0.950 . S
C1817 C1816 1.397 1_556 S
C1817 C1818 1.334 . S
C1818 H1789 0.950 . S
C1818 C1817 1.334 . S
C1818 C1819 1.287 . S
C1819 C1818 1.287 . S
C1819 C1820 1.524 1_556 S
C1819 H1822 0.999 . S
C1820 H1790 0.950 . S
C1820 C1819 1.524 1_554 S
C1820 C1821 1.415 . S
C1821 H1791 0.950 . S
C1821 C1816 1.363 . S
C1821 C1820 1.415 . S
H1822 C1819 0.999 . S
H1823 C1804 0.913 . S
C243 C95 1.427 . S
C258 C11 1.427 . S
C293 C109 1.426 . S
C308 C25 1.426 . S
C343 C39 1.427 . S
C358 C67 1.427 . S
C393 C53 1.427 . S
C408 C81 1.427 . S
C443 C123 1.427 . S
C458 C207 1.427 . S
C493 C221 1.427 . S
C508 C137 1.427 . S
C543 C151 1.427 . S
C558 C179 1.427 . S
C593 C165 1.426 . S
C608 C193 1.426 . S
C643 C5 1.380 . S
C658 C145 1.379 . S
C693 C19 1.379 . S
C708 C159 1.379 . S
C743 C33 1.380 . S
C758 C117 1.380 . S
C793 C47 1.380 . S
C808 C131 1.380 . S
C843 C61 1.379 . S
C858 C201 1.379 . S
C893 C215 1.379 . S
C908 C75 1.379 . S
C943 C89 1.379 . S
C958 C173 1.380 . S
C993 C187 1.379 . S
C1008 C103 1.379 . S
C1043 C191 0.458 . S
C1058 C9 0.458 . S
C1093 C23 0.457 . S
C1108 C205 0.458 . S
C1143 C219 0.458 . S
C1158 C37 0.458 . S
C1193 C177 0.455 . S
C1208 C51 0.456 . S
C1243 C163 0.458 . S
C1258 C65 0.458 . S
C1293 C79 0.455 . S
C1308 C121 0.455 . S
C1343 C93 0.456 . S
C1358 C135 0.457 . S
C1393 C107 0.457 . S
C1408 C149 0.456 . S
C1443 C182 1.475 . S
C1458 C0 1.475 . S
C1493 C14 1.476 . S
C1508 C196 1.475 . S
C1543 C28 1.475 . S
C1558 C210 1.476 . S
C1593 C168 1.475 . S
C1608 C42 1.476 . S
C1643 C154 1.475 . S
C1658 C56 1.475 . S
C1693 C112 1.476 . S
C1708 C70 1.475 . S
C1743 C84 1.475 . S
C1758 C126 1.476 . S
C1793 C140 1.475 . S
C1808 C98 1.476 . S
