# Generated by pormake.
# Topology sth, (5)-cn, num edge types: 1
# Building blocks:
#     Node 0, Type 0, BuildingBlock: XOMCOT_clean_sbu_0, # of connection points: 5
#     Node 1, Type 0, BuildingBlock: XOMCOT_clean_sbu_0, # of connection points: 5
#     Node 2, Type 0, BuildingBlock: XOMCOT_clean_sbu_0, # of connection points: 5
#     Node 3, Type 0, BuildingBlock: XOMCOT_clean_sbu_0, # of connection points: 5
#     Node 4, Type 0, BuildingBlock: XOMCOT_clean_sbu_0, # of connection points: 5
#     Node 5, Type 0, BuildingBlock: XOMCOT_clean_sbu_0, # of connection points: 5
#     Node 6, Type 0, BuildingBlock: XOMCOT_clean_sbu_0, # of connection points: 5
#     Node 7, Type 0, BuildingBlock: XOMCOT_clean_sbu_0, # of connection points: 5
#     Node 8, Type 0, BuildingBlock: XOMCOT_clean_sbu_0, # of connection points: 5
#     Node 9, Type 0, BuildingBlock: XOMCOT_clean_sbu_0, # of connection points: 5
#     Node 10, Type 0, BuildingBlock: XOMCOT_clean_sbu_0, # of connection points: 5
#     Node 11, Type 0, BuildingBlock: XOMCOT_clean_sbu_0, # of connection points: 5
#     Node 12, Type 0, BuildingBlock: XOMCOT_clean_sbu_0, # of connection points: 5
#     Node 13, Type 0, BuildingBlock: XOMCOT_clean_sbu_0, # of connection points: 5
#     Node 14, Type 0, BuildingBlock: XOMCOT_clean_sbu_0, # of connection points: 5
#     Node 15, Type 0, BuildingBlock: XOMCOT_clean_sbu_0, # of connection points: 5
#     Node 16, Type 0, BuildingBlock: XOMCOT_clean_sbu_0, # of connection points: 5
#     Node 17, Type 0, BuildingBlock: XOMCOT_clean_sbu_0, # of connection points: 5
#     Edge 18, Type (0, 0), BuildingBlock: UVAHIK_clean_linker_0, # of connection points: 2
#     Edge 19, Type (0, 0), BuildingBlock: UVAHIK_clean_linker_0, # of connection points: 2
#     Edge 20, Type (0, 0), BuildingBlock: UVAHIK_clean_linker_0, # of connection points: 2
#     Edge 21, Type (0, 0), BuildingBlock: UVAHIK_clean_linker_0, # of connection points: 2
#     Edge 22, Type (0, 0), BuildingBlock: UVAHIK_clean_linker_0, # of connection points: 2
#     Edge 23, Type (0, 0), BuildingBlock: UVAHIK_clean_linker_0, # of connection points: 2
#     Edge 24, Type (0, 0), BuildingBlock: UVAHIK_clean_linker_0, # of connection points: 2
#     Edge 25, Type (0, 0), BuildingBlock: UVAHIK_clean_linker_0, # of connection points: 2
#     Edge 26, Type (0, 0), BuildingBlock: UVAHIK_clean_linker_0, # of connection points: 2
#     Edge 27, Type (0, 0), BuildingBlock: UVAHIK_clean_linker_0, # of connection points: 2
#     Edge 28, Type (0, 0), BuildingBlock: UVAHIK_clean_linker_0, # of connection points: 2
#     Edge 29, Type (0, 0), BuildingBlock: UVAHIK_clean_linker_0, # of connection points: 2
#     Edge 30, Type (0, 0), BuildingBlock: UVAHIK_clean_linker_0, # of connection points: 2
#     Edge 31, Type (0, 0), BuildingBlock: UVAHIK_clean_linker_0, # of connection points: 2
#     Edge 32, Type (0, 0), BuildingBlock: UVAHIK_clean_linker_0, # of connection points: 2
#     Edge 33, Type (0, 0), BuildingBlock: UVAHIK_clean_linker_0, # of connection points: 2
#     Edge 34, Type (0, 0), BuildingBlock: UVAHIK_clean_linker_0, # of connection points: 2
#     Edge 35, Type (0, 0), BuildingBlock: UVAHIK_clean_linker_0, # of connection points: 2
#     Edge 36, Type (0, 0), BuildingBlock: UVAHIK_clean_linker_0, # of connection points: 2
#     Edge 37, Type (0, 0), BuildingBlock: UVAHIK_clean_linker_0, # of connection points: 2
#     Edge 38, Type (0, 0), BuildingBlock: UVAHIK_clean_linker_0, # of connection points: 2
#     Edge 39, Type (0, 0), BuildingBlock: UVAHIK_clean_linker_0, # of connection points: 2
#     Edge 40, Type (0, 0), BuildingBlock: UVAHIK_clean_linker_0, # of connection points: 2
#     Edge 41, Type (0, 0), BuildingBlock: UVAHIK_clean_linker_0, # of connection points: 2
#     Edge 42, Type (0, 0), BuildingBlock: UVAHIK_clean_linker_0, # of connection points: 2
#     Edge 43, Type (0, 0), BuildingBlock: UVAHIK_clean_linker_0, # of connection points: 2
#     Edge 44, Type (0, 0), BuildingBlock: UVAHIK_clean_linker_0, # of connection points: 2
#     Edge 45, Type (0, 0), BuildingBlock: UVAHIK_clean_linker_0, # of connection points: 2
#     Edge 46, Type (0, 0), BuildingBlock: UVAHIK_clean_linker_0, # of connection points: 2
#     Edge 47, Type (0, 0), BuildingBlock: UVAHIK_clean_linker_0, # of connection points: 2
#     Edge 48, Type (0, 0), BuildingBlock: UVAHIK_clean_linker_0, # of connection points: 2
#     Edge 49, Type (0, 0), BuildingBlock: UVAHIK_clean_linker_0, # of connection points: 2
#     Edge 50, Type (0, 0), BuildingBlock: UVAHIK_clean_linker_0, # of connection points: 2
#     Edge 51, Type (0, 0), BuildingBlock: UVAHIK_clean_linker_0, # of connection points: 2
#     Edge 52, Type (0, 0), BuildingBlock: UVAHIK_clean_linker_0, # of connection points: 2
#     Edge 53, Type (0, 0), BuildingBlock: UVAHIK_clean_linker_0, # of connection points: 2
#     Edge 54, Type (0, 0), BuildingBlock: UVAHIK_clean_linker_0, # of connection points: 2
#     Edge 55, Type (0, 0), BuildingBlock: UVAHIK_clean_linker_0, # of connection points: 2
#     Edge 56, Type (0, 0), BuildingBlock: UVAHIK_clean_linker_0, # of connection points: 2
#     Edge 57, Type (0, 0), BuildingBlock: UVAHIK_clean_linker_0, # of connection points: 2
#     Edge 58, Type (0, 0), BuildingBlock: UVAHIK_clean_linker_0, # of connection points: 2
#     Edge 59, Type (0, 0), BuildingBlock: UVAHIK_clean_linker_0, # of connection points: 2
#     Edge 60, Type (0, 0), BuildingBlock: UVAHIK_clean_linker_0, # of connection points: 2
#     Edge 61, Type (0, 0), BuildingBlock: UVAHIK_clean_linker_0, # of connection points: 2
#     Edge 62, Type (0, 0), BuildingBlock: UVAHIK_clean_linker_0, # of connection points: 2
# Relax obj value: 0.186
# Max RMSD: 0.216
# Mean RMSD: 0.216
data_MOF--net-sth--node1-XOMCOT_clean_sbu_0--edge1-UVAHIK_clean_linker_0
_symmetry_space_group_name_H-M    P1
_symmetry_Int_Tables_number       1
_symmetry_cell_setting            triclinic
loop_
_symmetry_equiv_pos_as_xyz
'x, y, z'
_cell_length_a     51.341323
_cell_length_b     51.331897
_cell_length_c     98.315848
_cell_angle_alpha  89.955289
_cell_angle_beta   90.049219
_cell_angle_gamma 119.94081
loop_
_atom_site_label
_atom_site_type_symbol
_atom_site_fract_x
_atom_site_fract_y
_atom_site_fract_z
_atom_type_partial_charge
Co0 Co 0.11921 0.2711 0.22702 0.0
C1 C 0.18489 0.31335 0.22081 0.0
C2 C 0.16234 0.27575 0.2072 0.0
C3 C 0.192 0.29161 0.20358 0.0
N4 N 0.15777 0.28906 0.21802 0.0
N5 N 0.20613 0.31512 0.21208 0.0
H6 H 0.18918 0.32866 0.22919 0.0
H7 H 0.14523 0.25531 0.20247 0.0
C8 C 0.10884 0.21041 0.23561 0.0
O9 O 0.09607 0.21247 0.24682 0.0
N10 N 0.0793 0.25088 0.23507 0.0
C11 C 0.06696 0.25716 0.2458 0.0
C12 C 0.03763 0.23399 0.24734 0.0
C13 C 0.05707 0.22469 0.23007 0.0
N14 N 0.03172 0.21345 0.23751 0.0
C15 C 0.13726 0.30441 0.25191 0.0
C16 C 0.16835 0.27853 0.26306 0.0
C17 C 0.16481 0.29954 0.27078 0.0
C18 C 0.14967 0.31304 0.26488 0.0
C19 C 0.156 0.27094 0.24993 0.0
N20 N 0.13902 0.28247 0.24483 0.0
H21 H 0.12564 0.31519 0.24769 0.0
H22 H 0.16037 0.25596 0.24393 0.0
H23 H 0.07806 0.27664 0.25226 0.0
H24 H 0.05987 0.21362 0.22129 0.0
O25 O 0.11612 0.30647 0.22368 0.0
O26 O 0.10002 0.26813 0.20949 0.0
O27 O 0.1193 0.23172 0.22688 0.0
C28 C 0.10292 0.29427 0.21229 0.0
H29 H 0.20259 0.2862 0.19539 0.0
H30 H 0.02228 0.23193 0.25536 0.0
H31 H 0.18085 0.26836 0.26706 0.0
H32 H 0.14673 0.32967 0.27038 0.0
Co33 Co 0.74386 0.85169 0.22464 0.0
C34 C 0.7118 0.87245 0.20642 0.0
C35 C 0.68451 0.84921 0.22366 0.0
C36 C 0.66827 0.85704 0.21523 0.0
N37 N 0.71206 0.85907 0.21827 0.0
N38 N 0.68528 0.87154 0.20435 0.0
H39 H 0.73039 0.88199 0.19932 0.0
H40 H 0.67579 0.83648 0.23284 0.0
C41 C 0.77198 0.91837 0.2242 0.0
O42 O 0.74643 0.91442 0.22908 0.0
N43 N 0.775 0.84362 0.23063 0.0
C44 C 0.77204 0.82472 0.24079 0.0
C45 C 0.79739 0.82219 0.24129 0.0
C46 C 0.80215 0.85232 0.22501 0.0
N47 N 0.81627 0.83936 0.23135 0.0
C48 C 0.71324 0.83677 0.25023 0.0
C49 C 0.75671 0.88419 0.2651 0.0
C50 C 0.73075 0.86243 0.27173 0.0
C51 C 0.70886 0.83857 0.26408 0.0
C52 C 0.7602 0.88149 0.25114 0.0
N53 N 0.73795 0.85869 0.24368 0.0
H54 H 0.69701 0.81687 0.24493 0.0
H55 H 0.78153 0.89694 0.24659 0.0
H56 H 0.7524 0.81288 0.24717 0.0
H57 H 0.81079 0.86677 0.21618 0.0
O58 O 0.71625 0.80911 0.22404 0.0
O59 O 0.74439 0.8358 0.20669 0.0
O60 O 0.77498 0.89551 0.22171 0.0
C61 C 0.72448 0.80967 0.21153 0.0
H62 H 0.64551 0.8523 0.21701 0.0
H63 H 0.80146 0.80847 0.24838 0.0
H64 H 0.77477 0.90229 0.27077 0.0
H65 H 0.68867 0.82093 0.2688 0.0
Co66 Co 0.16984 0.89018 0.22702 0.0
C67 C 0.14661 0.83647 0.20931 0.0
C68 C 0.17035 0.83247 0.22639 0.0
C69 C 0.16168 0.80799 0.21812 0.0
N70 N 0.16065 0.85032 0.22101 0.0
N71 N 0.14686 0.81049 0.20735 0.0
H72 H 0.13717 0.84568 0.20223 0.0
H73 H 0.18371 0.83684 0.23541 0.0
C74 C 0.10228 0.8548 0.22599 0.0
O75 O 0.10313 0.83138 0.23085 0.0
N76 N 0.17943 0.92996 0.2327 0.0
C77 C 0.2028 0.94877 0.24059 0.0
C78 C 0.20298 0.9756 0.24165 0.0
C79 C 0.16555 0.94538 0.22915 0.0
N80 N 0.17952 0.97331 0.2345 0.0
C81 C 0.18451 0.87457 0.25287 0.0
C82 C 0.13557 0.86849 0.26719 0.0
C83 C 0.15612 0.86239 0.27385 0.0
C84 C 0.18116 0.86614 0.26654 0.0
C85 C 0.13976 0.87679 0.25344 0.0
N86 N 0.16302 0.8779 0.24617 0.0
H87 H 0.20472 0.87863 0.24771 0.0
H88 H 0.12461 0.88306 0.24887 0.0
H89 H 0.21878 0.94345 0.24513 0.0
H90 H 0.14619 0.93677 0.22252 0.0
O91 O 0.21226 0.90342 0.22581 0.0
O92 O 0.18479 0.90564 0.20897 0.0
O93 O 0.12668 0.87962 0.22411 0.0
C94 C 0.21097 0.91098 0.21331 0.0
H95 H 0.16612 0.78976 0.21992 0.0
H96 H 0.21896 0.99522 0.24731 0.0
H97 H 0.11639 0.8669 0.27253 0.0
H98 H 0.19849 0.86327 0.27141 0.0
Co99 Co 0.27193 0.11281 0.79201 0.0
C100 C 0.31831 0.16897 0.80614 0.0
C101 C 0.29284 0.17746 0.79128 0.0
C102 C 0.31309 0.20429 0.79712 0.0
N103 N 0.29625 0.15519 0.79671 0.0
N104 N 0.32904 0.19898 0.80646 0.0
H105 H 0.32636 0.15756 0.81268 0.0
H106 H 0.2761 0.17461 0.7839 0.0
C107 C 0.21036 0.10344 0.7855 0.0
O108 O 0.20687 0.08327 0.77637 0.0
N109 N 0.2474 0.0704 0.78765 0.0
C110 C 0.25212 0.05408 0.77825 0.0
C111 C 0.22863 0.02481 0.77877 0.0
C112 C 0.2218 0.05063 0.79406 0.0
N113 N 0.20945 0.02287 0.7886 0.0
C114 C 0.3045 0.12231 0.76712 0.0
C115 C 0.27385 0.14216 0.75107 0.0
C116 C 0.29801 0.14053 0.74538 0.0
C117 C 0.31347 0.13062 0.75369 0.0
C118 C 0.26577 0.13393 0.76466 0.0
N119 N 0.28062 0.12352 0.77259 0.0
H120 H 0.31723 0.1149 0.77303 0.0
H121 H 0.24828 0.13732 0.76863 0.0
H122 H 0.27094 0.06268 0.77134 0.0
H123 H 0.21174 0.05681 0.8022 0.0
O124 O 0.30477 0.10603 0.79572 0.0
O125 O 0.27125 0.10115 0.81107 0.0
O126 O 0.2351 0.11783 0.79211 0.0
C127 C 0.29437 0.09825 0.80793 0.0
H128 H 0.31518 0.22597 0.79504 0.0
H129 H 0.22522 1.0067 0.77203 0.0
H130 H 0.26123 0.14985 0.74512 0.0
H131 H 0.33287 0.12975 0.74998 0.0
Co132 Co 0.90415 0.17168 0.79457 0.0
C133 C 0.84541 0.16266 0.80691 0.0
C134 C 0.87288 0.15279 0.81997 0.0
C135 C 0.84836 0.14846 0.82721 0.0
N136 N 0.87147 0.1619 0.80727 0.0
N137 N 0.83108 0.1547 0.81908 0.0
H138 H 0.83698 0.16885 0.79817 0.0
H139 H 0.8907 0.14929 0.82373 0.0
C140 C 0.87162 0.10501 0.79706 0.0
O141 O 0.84675 0.1061 0.79553 0.0
N142 N 0.93781 0.18094 0.78289 0.0
C143 C 0.95108 0.20278 0.77346 0.0
C144 C 0.97719 0.20367 0.76918 0.0
C145 C 0.95569 0.16887 0.78418 0.0
N146 N 0.97974 0.18215 0.77592 0.0
C147 C 0.86781 0.17909 0.77459 0.0
C148 C 0.86626 0.13749 0.75627 0.0
C149 C 0.8563 0.15712 0.75204 0.0
C150 C 0.85658 0.17768 0.76148 0.0
C151 C 0.87785 0.14002 0.7694 0.0
N152 N 0.87849 0.16059 0.77846 0.0
H153 H 0.86982 0.19661 0.78131 0.0
H154 H 0.88844 0.12698 0.77183 0.0
H155 H 0.94298 0.21768 0.77031 0.0
H156 H 0.95215 0.15184 0.7916 0.0
O157 O 0.91572 0.21364 0.79522 0.0
O158 O 0.93236 0.19185 0.80945 0.0
O159 O 0.89703 0.12935 0.79687 0.0
C160 C 0.93246 0.21621 0.8056 0.0
H161 H 0.84322 0.14058 0.83761 0.0
H162 H 0.99326 0.21919 0.7619 0.0
H163 H 0.86722 0.12188 0.74916 0.0
H164 H 0.84943 0.19349 0.75855 0.0
Co165 Co 0.84363 0.7361 0.78653 0.0
C166 C 0.86875 0.70418 0.80218 0.0
C167 C 0.84139 0.67796 0.78542 0.0
C168 C 0.85102 0.66114 0.79242 0.0
N169 N 0.85258 0.70495 0.79149 0.0
N170 N 0.86813 0.67751 0.80301 0.0
H171 H 0.87993 0.7224 0.80938 0.0
H172 H 0.82681 0.67081 0.77661 0.0
C173 C 0.90289 0.79151 0.78282 0.0
O174 O 0.89146 0.79654 0.77183 0.0
N175 N 0.83396 0.76738 0.782 0.0
C176 C 0.81266 0.7658 0.77342 0.0
C177 C 0.81122 0.79176 0.77445 0.0
C178 C 0.84432 0.79404 0.78849 0.0
N179 N 0.83123 0.80957 0.78387 0.0
C180 C 0.82776 0.71746 0.75885 0.0
C181 C 0.88351 0.72888 0.74997 0.0
C182 C 0.8591 0.71572 0.74097 0.0
C183 C 0.83102 0.7101 0.74558 0.0
C184 C 0.87916 0.73567 0.76331 0.0
N185 N 0.85172 0.73107 0.7675 0.0
H186 H 0.80536 0.71046 0.76231 0.0
H187 H 0.89765 0.74337 0.77038 0.0
H188 H 0.79797 0.74688 0.7672 0.0
H189 H 0.86064 0.80164 0.79665 0.0
O190 O 0.80148 0.70683 0.78681 0.0
O191 O 0.82695 0.73391 0.80461 0.0
O192 O 0.88715 0.7678 0.78993 0.0
C193 C 0.80132 0.71355 0.7995 0.0
H194 H 0.84583 0.63856 0.78984 0.0
H195 H 0.79641 0.79703 0.76873 0.0
H196 H 0.90538 0.73262 0.74693 0.0
H197 H 0.8114 0.6994 0.73906 0.0
Co198 Co 0.78645 0.60582 0.55736 0.0
C199 C 0.84785 0.65528 0.54708 0.0
C200 C 0.81794 0.62581 0.53176 0.0
C201 C 0.84383 0.64664 0.52554 0.0
N202 N 0.81991 0.63117 0.54527 0.0
N203 N 0.86268 0.66519 0.5351 0.0
H204 H 0.85766 0.66509 0.55677 0.0
H205 H 0.79902 0.60737 0.52671 0.0
C206 C 0.8188 0.57199 0.55343 0.0
O207 O 0.84374 0.59779 0.55499 0.0
N208 N 0.75209 0.57942 0.56834 0.0
C209 C 0.7392 0.58641 0.57856 0.0
C210 C 0.71206 0.56115 0.58172 0.0
C211 C 0.73291 0.5503 0.56546 0.0
N212 N 0.70834 0.53854 0.57346 0.0
C213 C 0.82319 0.64623 0.57826 0.0
C214 C 0.82291 0.60311 0.59519 0.0
C215 C 0.83443 0.63246 0.60017 0.0
C216 C 0.83514 0.6543 0.59136 0.0
C217 C 0.81114 0.59597 0.58202 0.0
N218 N 0.81145 0.61743 0.57366 0.0
H219 H 0.82194 0.66294 0.57206 0.0
H220 H 0.79988 0.57268 0.57896 0.0
H221 H 0.74821 0.60855 0.58298 0.0
H222 H 0.73596 0.53842 0.55707 0.0
O223 O 0.77532 0.63637 0.55824 0.0
O224 O 0.75874 0.60059 0.54263 0.0
O225 O 0.79345 0.57106 0.55371 0.0
C226 C 0.75889 0.62427 0.54754 0.0
H227 H 0.84894 0.64736 0.51481 0.0
H228 H 0.69605 0.55969 0.58926 0.0
H229 H 0.82171 0.58541 0.60163 0.0
H230 H 0.84301 0.67706 0.59482 0.0
Co231 Co 0.40893 0.17834 0.56022 0.0
C232 C 0.37774 0.20432 0.54455 0.0
C233 C 0.35172 0.17775 0.56154 0.0
C234 C 0.33491 0.18725 0.55445 0.0
N235 N 0.37858 0.18853 0.55539 0.0
N236 N 0.35112 0.20381 0.54372 0.0
H237 H 0.39572 0.21492 0.53719 0.0
H238 H 0.34452 0.16331 0.57038 0.0
C239 C 0.46493 0.2359 0.56552 0.0
O240 O 0.46815 0.22232 0.57619 0.0
N241 N 0.4392 0.16717 0.56461 0.0
C242 C 0.43638 0.14468 0.57275 0.0
C243 C 0.46178 0.14231 0.5717 0.0
C244 C 0.46601 0.17726 0.55831 0.0
N245 N 0.48047 0.16287 0.56266 0.0
C246 C 0.38974 0.16053 0.58771 0.0
C247 C 0.4038 0.21626 0.59774 0.0
C248 C 0.39246 0.19169 0.60667 0.0
C249 C 0.38472 0.16345 0.60137 0.0
C250 C 0.40853 0.21229 0.58404 0.0
N251 N 0.40333 0.18497 0.57935 0.0
H252 H 0.3815 0.13821 0.58382 0.0
H253 H 0.41594 0.23115 0.57721 0.0
H254 H 0.41693 0.12973 0.57861 0.0
H255 H 0.47447 0.19436 0.55048 0.0
O256 O 0.37924 0.13645 0.55924 0.0
O257 O 0.40732 0.16309 0.54186 0.0
O258 O 0.44177 0.222 0.55782 0.0
C259 C 0.38692 0.13707 0.54664 0.0
H260 H 0.31235 0.18216 0.557 0.0
H261 H 0.46606 0.12649 0.57714 0.0
H262 H 0.40908 0.23833 0.6013 0.0
H263 H 0.37411 0.14347 0.60767 0.0
Co264 Co 0.84001 0.23122 0.56382 0.0
C265 C 0.82 0.16591 0.55776 0.0
C266 C 0.84138 0.19505 0.54078 0.0
C267 C 0.8327 0.16626 0.53689 0.0
N268 N 0.83365 0.19525 0.55394 0.0
N269 N 0.81916 0.14802 0.5475 0.0
H270 H 0.81028 0.15747 0.56765 0.0
H271 H 0.85183 0.21425 0.53409 0.0
C272 C 0.77243 0.19681 0.56138 0.0
O273 O 0.77202 0.17314 0.56662 0.0
N274 N 0.84632 0.26713 0.57293 0.0
C275 C 0.86295 0.2805 0.58406 0.0
C276 C 0.86309 0.30718 0.58614 0.0
C277 C 0.83683 0.28569 0.56835 0.0
N278 N 0.84674 0.31043 0.57619 0.0
C279 C 0.84764 0.1997 0.58589 0.0
C280 C 0.80639 0.20174 0.6033 0.0
C281 C 0.82564 0.192 0.60834 0.0
C282 C 0.84607 0.19053 0.59938 0.0
C283 C 0.80905 0.21125 0.58974 0.0
N284 N 0.8295 0.21014 0.58121 0.0
H285 H 0.86438 0.19958 0.57927 0.0
H286 H 0.7959 0.22117 0.58637 0.0
H287 H 0.87471 0.27186 0.59001 0.0
H288 H 0.82331 0.28125 0.55928 0.0
O289 O 0.88274 0.24576 0.56433 0.0
O290 O 0.85954 0.25583 0.54792 0.0
O291 O 0.79733 0.22126 0.55979 0.0
C292 C 0.8846 0.2591 0.55284 0.0
H293 H 0.83476 0.15899 0.52681 0.0
H294 H 0.8752 0.32338 0.59407 0.0
H295 H 0.79073 0.20377 0.60998 0.0
H296 H 0.86138 0.1832 0.60291 0.0
Co297 Co 0.94285 0.45354 0.12245 0.0
C298 C 0.98403 0.51877 0.1291 0.0
C299 C 0.94656 0.49569 0.14273 0.0
C300 C 0.96202 0.52542 0.14634 0.0
N301 N 0.96007 0.49148 0.1319 0.0
N302 N 0.98545 0.53984 0.13781 0.0
H303 H 0.99926 0.52335 0.12067 0.0
H304 H 0.92619 0.47835 0.14743 0.0
C305 C 0.88148 0.44158 0.11416 0.0
O306 O 0.88412 0.42964 0.1028 0.0
N307 N 0.92373 0.41428 0.1138 0.0
C308 C 0.92977 0.40387 0.10232 0.0
C309 C 0.90746 0.37436 0.10041 0.0
C310 C 0.89855 0.39074 0.11884 0.0
N311 N 0.88779 0.36627 0.11081 0.0
C312 C 0.97639 0.47448 0.09767 0.0
C313 C 0.94805 0.50387 0.08727 0.0
C314 C 0.96932 0.50153 0.07922 0.0
C315 C 0.98422 0.48742 0.08476 0.0
C316 C 0.94126 0.49101 0.10029 0.0
N317 N 0.95384 0.47465 0.10496 0.0
H318 H 0.98796 0.46338 0.1016 0.0
H319 H 0.92593 0.49436 0.10653 0.0
H320 H 0.94846 0.41639 0.09557 0.0
H321 H 0.88734 0.39225 0.12788 0.0
O322 O 0.97873 0.45113 0.12552 0.0
O323 O 0.94013 0.4334 0.13964 0.0
O324 O 0.90282 0.45236 0.12289 0.0
C325 C 0.96645 0.43691 0.13673 0.0
H326 H 0.95633 0.53586 0.1545 0.0
H327 H 0.9057 0.36014 0.09193 0.0
H328 H 0.93687 0.51565 0.08356 0.0
H329 H 1.00111 0.48543 0.07899 0.0
Co330 Co 0.55541 0.49425 0.12037 0.0
C331 C 0.49961 0.46861 0.137 0.0
C332 C 0.49917 0.49563 0.12041 0.0
C333 C 0.47371 0.48665 0.12804 0.0
N334 N 0.5153 0.48416 0.12594 0.0
N335 N 0.47401 0.46985 0.13855 0.0
H336 H 0.50746 0.45784 0.14406 0.0
H337 H 0.50591 0.51029 0.11164 0.0
C338 C 0.55008 0.43638 0.11219 0.0
O339 O 0.56436 0.45094 0.10115 0.0
N340 N 0.59658 0.5054 0.11534 0.0
C341 C 0.61803 0.53179 0.11004 0.0
C342 C 0.6452 0.53255 0.11017 0.0
C343 C 0.6117 0.49128 0.11925 0.0
N344 N 0.64106 0.50694 0.11587 0.0
C345 C 0.55592 0.5131 0.09269 0.0
C346 C 0.50762 0.45996 0.08359 0.0
C347 C 0.52307 0.48349 0.07428 0.0
C348 C 0.54704 0.51058 0.07913 0.0
C349 C 0.5171 0.4636 0.09715 0.0
N350 N 0.54214 0.48933 0.10139 0.0
H351 H 0.57331 0.53458 0.09624 0.0
H352 H 0.50443 0.44551 0.10424 0.0
H353 H 0.61504 0.55037 0.10709 0.0
H354 H 0.60189 0.4706 0.12503 0.0
O355 O 0.56773 0.53605 0.12233 0.0
O356 O 0.56993 0.50764 0.13877 0.0
O357 O 0.54433 0.45022 0.12156 0.0
C358 C 0.57515 0.53407 0.13475 0.0
H359 H 0.45645 0.49239 0.12604 0.0
H360 H 0.66646 0.55076 0.10657 0.0
H361 H 0.48862 0.43877 0.08045 0.0
H362 H 0.55863 0.53 0.07255 0.0
Co363 Co 0.52783 0.07248 0.12246 0.0
C364 C 0.54608 0.02564 0.12851 0.0
C365 C 0.53371 0.04099 0.14629 0.0
C366 C 0.54189 0.02046 0.15023 0.0
N367 N 0.53608 0.04439 0.13262 0.0
N368 N 0.54986 0.01104 0.13909 0.0
H369 H 0.55196 0.02361 0.11817 0.0
H370 H 0.52745 0.05327 0.15321 0.0
C371 C 0.5949 0.10475 0.12383 0.0
O372 O 0.59337 0.07951 0.12015 0.0
N373 N 0.51941 0.10048 0.11306 0.0
C374 C 0.50251 0.0955 0.10184 0.0
C375 C 0.50049 0.12084 0.09924 0.0
C376 C 0.52707 0.1284 0.11726 0.0
N377 N 0.51583 0.14143 0.10899 0.0
C378 C 0.51844 0.03245 0.10045 0.0
C379 C 0.56008 0.07489 0.08287 0.0
C380 C 0.54057 0.04587 0.07801 0.0
C381 C 0.51982 0.02442 0.08702 0.0
C382 C 0.55759 0.08217 0.09634 0.0
N383 N 0.53716 0.06098 0.10502 0.0
H384 H 0.50162 0.0159 0.10714 0.0
H385 H 0.57088 0.10533 0.09949 0.0
H386 H 0.49191 0.07473 0.09613 0.0
H387 H 0.54038 0.1388 0.12626 0.0
O388 O 0.48544 0.04349 0.1229 0.0
O389 O 0.5094 0.07829 0.1386 0.0
O390 O 0.5708 0.10605 0.12524 0.0
C391 C 0.48425 0.05565 0.13428 0.0
H392 H 0.54351 0.01416 0.16058 0.0
H393 H 0.48791 0.12351 0.09106 0.0
H394 H 0.57586 0.09226 0.0761 0.0
H395 H 0.50424 1.0018 0.0836 0.0
Co396 Co 0.46415 0.94369 0.89227 0.0
C397 C 0.52188 0.99423 0.8798 0.0
C398 C 0.4947 0.95721 0.86658 0.0
C399 C 0.51914 0.97777 0.8594 0.0
N400 N 0.49611 0.96725 0.87937 0.0
N401 N 0.53628 1.00115 0.86762 0.0
H402 H 0.53006 0.00853 0.88864 0.0
H403 H 0.47706 0.93589 0.86276 0.0
C404 C 0.49638 0.90955 0.88838 0.0
O405 O 0.52142 0.93547 0.88945 0.0
N406 N 0.43124 0.91888 0.9042 0.0
C407 C 0.42352 0.92585 0.91618 0.0
C408 C 0.39739 0.90108 0.92068 0.0
C409 C 0.40983 0.89045 0.90149 0.0
N410 N 0.38881 0.87897 0.91135 0.0
C411 C 0.50101 0.98629 0.91253 0.0
C412 C 0.5051 0.94556 0.92947 0.0
C413 C 0.51397 0.97437 0.93456 0.0
C414 C 0.51257 0.9951 0.92567 0.0
C415 C 0.49283 0.93741 0.91644 0.0
N416 N 0.49083 0.95762 0.90806 0.0
H417 H 0.49807 1.00202 0.90634 0.0
H418 H 0.48273 0.91405 0.91365 0.0
H419 H 0.43574 0.94744 0.92118 0.0
H420 H 0.40967 0.87849 0.8924 0.0
O421 O 0.45216 0.97384 0.89244 0.0
O422 O 0.43534 0.93611 0.8778 0.0
O423 O 0.47103 0.90856 0.88923 0.0
C424 C 0.43505 0.95995 0.88212 0.0
H425 H 0.52433 0.97519 0.84899 0.0
H426 H 0.38523 0.89973 0.92988 0.0
H427 H 0.50603 0.92869 0.93573 0.0
H428 H 0.51836 0.01741 0.92905 0.0
Co429 Co 0.07737 0.53192 0.89519 0.0
C430 C 0.03652 0.55473 0.88553 0.0
C431 C 0.08044 0.57642 0.8764 0.0
C432 C 0.06512 0.59001 0.87161 0.0
N433 N 0.06284 0.55461 0.88522 0.0
N434 N 0.03763 0.57652 0.87733 0.0
H435 H 0.01753 0.54003 0.89185 0.0
H436 H 0.10319 0.58234 0.87377 0.0
C437 C 0.13147 0.58102 0.90922 0.0
O438 O 0.12259 0.56476 0.92039 0.0
N439 N 0.0942 0.50992 0.90438 0.0
C440 C 0.08056 0.48133 0.9091 0.0
C441 C 0.10217 0.4734 0.91178 0.0
C442 C 0.1236 0.51814 0.90373 0.0
N443 N 0.12918 0.49687 0.90851 0.0
C444 C 0.04003 0.51204 0.91892 0.0
C445 C 0.05692 0.56811 0.92954 0.0
C446 C 0.03819 0.54247 0.93724 0.0
C447 C 0.02893 0.51418 0.93156 0.0
C448 C 0.06696 0.56489 0.91672 0.0
N449 N 0.06024 0.53713 0.91202 0.0
H450 H 0.03233 0.49006 0.91472 0.0
H451 H 0.08086 0.5848 0.91078 0.0
H452 H 0.05661 0.46625 0.90961 0.0
H453 H 0.14058 0.5385 0.8989 0.0
O454 O 0.04338 0.49471 0.88933 0.0
O455 O 0.08633 0.51901 0.87806 0.0
O456 O 0.11639 0.57098 0.89821 0.0
C457 C 0.0595 0.49547 0.87901 0.0
H458 H 0.07349 0.60847 0.86444 0.0
H459 H 0.09827 0.45183 0.91541 0.0
H460 H 0.0638 0.59038 0.9334 0.0
H461 H 0.01394 0.49378 0.93704 0.0
Co462 Co 0.48394 0.55127 0.88871 0.0
C463 C 0.46923 0.48898 0.88104 0.0
C464 C 0.4431 0.50471 0.87038 0.0
C465 C 0.43585 0.47702 0.86532 0.0
N466 N 0.464 0.51228 0.88017 0.0
N467 N 0.45219 0.46717 0.87201 0.0
H468 H 0.48593 0.48857 0.88763 0.0
H469 H 0.43455 0.51895 0.86681 0.0
C470 C 0.43364 0.55862 0.89983 0.0
O471 O 0.4506 0.5719 0.91048 0.0
N472 N 0.50349 0.59143 0.89653 0.0
C473 C 0.52654 0.60526 0.90539 0.0
C474 C 0.53332 0.63476 0.9069 0.0
C475 C 0.49742 0.61299 0.8925 0.0
N476 N 0.51474 0.6394 0.89886 0.0
C477 C 0.50456 0.53565 0.91266 0.0
C478 C 0.44998 0.50378 0.92577 0.0
C479 C 0.47634 0.51019 0.93283 0.0
C480 C 0.50365 0.52503 0.92576 0.0
C481 C 0.4519 0.5143 0.91242 0.0
N482 N 0.47925 0.53224 0.90647 0.0
H483 H 0.52601 0.54711 0.9076 0.0
H484 H 0.43134 0.50825 0.90703 0.0
H485 H 0.53827 0.59532 0.91027 0.0
H486 H 0.48064 0.60935 0.88492 0.0
O487 O 0.52241 0.55601 0.88406 0.0
O488 O 0.49684 0.5702 0.87085 0.0
O489 O 0.44346 0.54907 0.8902 0.0
C490 C 0.52108 0.5685 0.87283 0.0
H491 H 0.42027 0.46521 0.85712 0.0
H492 H 0.55043 0.65138 0.91349 0.0
H493 H 0.42814 0.49145 0.93056 0.0
H494 H 0.52444 0.5288 0.93034 0.0
Co495 Co 0.61615 0.79544 0.45791 0.0
C496 C 0.6461 0.85268 0.47348 0.0
C497 C 0.67262 0.85234 0.45665 0.0
C498 C 0.68961 0.87793 0.46408 0.0
N499 N 0.64529 0.83654 0.46245 0.0
N500 N 0.67312 0.87806 0.47471 0.0
H501 H 0.62822 0.84501 0.48091 0.0
H502 H 0.68034 0.84493 0.44805 0.0
C503 C 0.56273 0.79785 0.44812 0.0
O504 O 0.56263 0.78136 0.43787 0.0
N505 N 0.58725 0.75337 0.45386 0.0
C506 C 0.59348 0.73191 0.44977 0.0
C507 C 0.56767 0.70435 0.4501 0.0
C508 C 0.55779 0.73795 0.45731 0.0
N509 N 0.54527 0.70829 0.45474 0.0
C510 C 0.63764 0.79169 0.43146 0.0
C511 C 0.63179 0.83708 0.41933 0.0
C512 C 0.64301 0.82187 0.41162 0.0
C513 C 0.64623 0.79919 0.41796 0.0
C514 C 0.62355 0.8289 0.43291 0.0
N515 N 0.62529 0.80551 0.43867 0.0
H516 H 0.64241 0.77575 0.43625 0.0
H517 H 0.61631 0.84182 0.43886 0.0
H518 H 0.61548 0.73524 0.44753 0.0
H519 H 0.54586 0.74783 0.46214 0.0
O520 O 0.64618 0.78459 0.46174 0.0
O521 O 0.61385 0.78387 0.4769 0.0
O522 O 0.58294 0.80607 0.45737 0.0
C523 C 0.63591 0.77903 0.47409 0.0
H524 H 0.71281 0.89466 0.46211 0.0
H525 H 0.56559 0.68299 0.44732 0.0
H526 H 0.62948 0.8552 0.41497 0.0
H527 H 0.6563 0.78789 0.41267 0.0
Co528 Co 0.22926 0.82022 0.45705 0.0
C529 C 0.1678 0.80238 0.4681 0.0
C530 C 0.18596 0.77498 0.47508 0.0
C531 C 0.15816 0.76428 0.48076 0.0
N532 N 0.19195 0.79851 0.46699 0.0
N533 N 0.1467 0.78137 0.47641 0.0
H534 H 0.16561 0.81982 0.46293 0.0
H535 H 0.20103 0.76637 0.47692 0.0
C536 C 0.2331 0.76948 0.44383 0.0
O537 O 0.24089 0.78509 0.43247 0.0
N538 N 0.26814 0.84141 0.44787 0.0
C539 C 0.28325 0.86995 0.44311 0.0
C540 C 0.31278 0.87781 0.44066 0.0
C541 C 0.28924 0.83307 0.44873 0.0
N542 N 0.31627 0.85437 0.44414 0.0
C543 C 0.21233 0.83981 0.43318 0.0
C544 C 0.17189 0.78401 0.42277 0.0
C545 C 0.17882 0.8098 0.41514 0.0
C546 C 0.19872 0.83794 0.4207 0.0
C547 C 0.18568 0.787 0.43547 0.0
N548 N 0.20716 0.81463 0.44009 0.0
H549 H 0.22696 0.86177 0.43729 0.0
H550 H 0.17949 0.76705 0.44144 0.0
H551 H 0.27456 0.88519 0.44249 0.0
H552 H 0.28567 0.81269 0.45365 0.0
O553 O 0.23276 0.85784 0.46215 0.0
O554 O 0.25092 0.83409 0.47426 0.0
O555 O 0.22869 0.78066 0.45463 0.0
C556 C 0.24797 0.85775 0.47265 0.0
H557 H 0.14734 0.74567 0.48782 0.0
H558 H 0.33052 0.89939 0.43711 0.0
H559 H 0.15592 0.76185 0.419 0.0
H560 H 0.20436 0.85848 0.41528 0.0
Co561 Co 0.19226 0.40463 0.45604 0.0
C562 C 0.21599 0.36353 0.46411 0.0
C563 C 0.23088 0.40265 0.47672 0.0
C564 C 0.24502 0.38748 0.48099 0.0
N565 N 0.21286 0.38794 0.46612 0.0
N566 N 0.23574 0.363 0.47311 0.0
H567 H 0.20514 0.34732 0.45603 0.0
H568 H 0.23421 0.42367 0.48081 0.0
C569 C 0.24247 0.4642 0.44606 0.0
O570 O 0.22768 0.46122 0.43472 0.0
N571 N 0.1725 0.4235 0.44669 0.0
C572 C 0.15635 0.41664 0.43507 0.0
C573 C 0.15072 0.43967 0.43206 0.0
C574 C 0.17544 0.44997 0.45075 0.0
N575 N 0.16294 0.46067 0.44192 0.0
C576 C 0.17595 0.36627 0.43265 0.0
C577 C 0.23173 0.39276 0.42038 0.0
C578 C 0.20681 0.37069 0.4132 0.0
C579 C 0.17886 0.35665 0.41975 0.0
C580 C 0.22785 0.40143 0.4334 0.0
N581 N 0.19979 0.38983 0.43895 0.0
H582 H 0.15394 0.35568 0.43724 0.0
H583 H 0.2475 0.41762 0.43888 0.0
H584 H 0.14966 0.39705 0.42886 0.0
H585 H 0.18859 0.46227 0.45952 0.0
O586 O 0.15365 0.37038 0.46058 0.0
O587 O 0.17746 0.41154 0.47307 0.0
O588 O 0.23174 0.44363 0.45514 0.0
C589 C 0.15382 0.38517 0.47133 0.0
H590 H 0.2613 0.39409 0.48915 0.0
H591 H 0.13921 0.44118 0.42313 0.0
H592 H 0.254 0.40332 0.41594 0.0
H593 H 0.159 0.33925 0.41471 0.0
C594 C 0.44711 0.4315 0.15649 0.0
C595 C 0.45196 0.45728 0.14933 0.0
C596 C 0.42426 0.41836 0.16628 0.0
C597 C 0.37139 0.43223 0.18719 0.0
H598 H 0.32175 0.34551 0.18584 0.0
C599 C 0.24825 0.36543 0.20675 0.0
C600 C 0.23779 0.33614 0.21156 0.0
C601 C 0.27794 0.38276 0.2021 0.0
C602 C 0.33564 0.36971 0.18658 0.0
H603 H 0.43753 0.49032 0.14751 0.0
H604 H 0.39751 0.46713 0.16414 0.0
H605 H 0.36694 0.37037 0.17207 0.0
H606 H 0.25016 0.30266 0.21623 0.0
H607 H 0.30221 0.33308 0.20865 0.0
H608 H 0.33931 0.43144 0.20141 0.0
C609 C 0.41137 0.45706 0.16232 0.0
C610 C 0.36167 0.38401 0.17865 0.0
C611 C 0.43412 0.47015 0.15258 0.0
C612 C 0.25798 0.32535 0.21267 0.0
C613 C 0.28759 0.34262 0.20814 0.0
C614 C 0.34524 0.41789 0.19511 0.0
C615 C 0.40579 0.43075 0.16918 0.0
C616 C 0.3797 0.4155 0.17868 0.0
C617 C 0.29756 0.37097 0.20219 0.0
C618 C 0.32683 0.38645 0.19479 0.0
H619 H 0.46038 0.42099 0.15426 0.0
H620 H 0.42089 0.39831 0.17148 0.0
H621 H 0.38497 0.45649 0.18764 0.0
H622 H 0.2328 0.37386 0.20555 0.0
H623 H 0.28477 0.40443 0.19753 0.0
C624 C 0.69673 0.90915 0.18605 0.0
C625 C 0.67606 0.88304 0.19305 0.0
C626 C 0.68676 0.92193 0.17615 0.0
C627 C 0.6188 0.90638 0.15556 0.0
H628 H 0.65121 0.99246 0.15825 0.0
C629 C 0.55095 0.96584 0.14623 0.0
C630 C 0.56443 0.99337 0.13929 0.0
C631 C 0.56712 0.95117 0.14891 0.0
C632 C 0.64229 0.96848 0.15716 0.0
H633 H 0.62906 0.84881 0.19447 0.0
H634 H 0.61168 0.87119 0.17771 0.0
H635 H 0.67585 0.96911 0.1703 0.0
H636 H 0.605 0.02705 0.12944 0.0
H637 H 0.63387 1.00165 0.13441 0.0
H638 H 0.58405 0.90566 0.14317 0.0
C639 C 0.6356 0.8819 0.17965 0.0
C640 C 0.65646 0.95505 0.16405 0.0
C641 C 0.64553 0.86923 0.18946 0.0
C642 C 0.59407 1.00553 0.1346 0.0
C643 C 0.61058 0.99118 0.13755 0.0
C644 C 0.60444 0.91976 0.14884 0.0
C645 C 0.65593 0.90872 0.173 0.0
C646 C 0.6443 0.92366 0.16372 0.0
C647 C 0.59739 0.96413 0.14497 0.0
C648 C 0.61554 0.95081 0.1499 0.0
H649 H 0.72039 0.92032 0.1886 0.0
H650 H 0.70312 0.94241 0.17114 0.0
H651 H 0.60923 0.88227 0.15475 0.0
H652 H 0.52823 0.95638 0.15007 0.0
H653 H 0.55647 0.93055 0.15477 0.0
C654 C 0.99456 0.59135 0.1373 0.0
C655 C 1.00595 0.57162 0.13807 0.0
C656 C 0.01231 0.62145 0.14103 0.0
C657 C 0.08957 0.68082 0.15117 0.0
H658 H 0.0456 0.70498 0.17526 0.0
C659 C 0.1466 0.77133 0.19266 0.0
C660 C 0.13422 0.78941 0.19624 0.0
C661 C 0.13278 0.74867 0.18292 0.0
C662 C 0.05821 0.69901 0.16835 0.0
H663 H 0.04504 0.5678 0.14261 0.0
H664 H 0.07636 0.62058 0.1494 0.0
H665 H 0.01876 0.65844 0.16257 0.0
H666 H 0.09832 0.79873 0.19188 0.0
H667 H 0.07424 0.7593 0.17468 0.0
H668 H 0.12922 0.72115 0.15738 0.0
C669 C 0.05386 0.61304 0.14566 0.0
C670 C 0.04277 0.67221 0.16103 0.0
C671 C 0.03607 0.58287 0.14175 0.0
C672 C 0.10841 0.78521 0.18935 0.0
C673 C 0.09449 0.76243 0.17959 0.0
C674 C 0.10506 0.70772 0.15851 0.0
C675 C 0.04175 0.63238 0.14587 0.0
C676 C 0.05825 0.66249 0.1525 0.0
C677 C 0.10618 0.74347 0.17646 0.0
C678 C 0.08961 0.71688 0.16738 0.0
H679 H 0.97129 0.58294 0.13451 0.0
H680 H 1.00245 0.63582 0.14073 0.0
H681 H 0.10216 0.67423 0.14458 0.0
H682 H 0.16678 0.77432 0.19757 0.0
H683 H 0.14233 0.73443 0.18089 0.0
C684 C 0.44389 0.41714 0.87855 0.0
C685 C 0.45249 0.44003 0.86884 0.0
C686 C 0.43803 0.38843 0.87459 0.0
C687 C 0.44669 0.34596 0.8458 0.0
H688 H 0.36689 0.2827 0.85586 0.0
C689 C 0.37145 0.24989 0.8102 0.0
C690 C 0.35123 0.22129 0.81535 0.0
C691 C 0.38985 0.27337 0.81893 0.0
C692 C 0.38952 0.29982 0.85318 0.0
H693 H 0.4634 0.45181 0.8477 0.0
H694 H 0.45391 0.40226 0.84076 0.0
H695 H 0.3894 0.33089 0.86769 0.0
H696 H 0.33514 0.19437 0.83362 0.0
H697 H 0.3673 0.23579 0.84909 0.0
H698 H 0.44617 0.31546 0.83081 0.0
C699 C 0.45163 0.40609 0.85141 0.0
C700 C 0.40245 0.32749 0.85997 0.0
C701 C 0.45699 0.43445 0.85534 0.0
C702 C 0.35075 0.2162 0.82941 0.0
C703 C 0.36894 0.23992 0.83823 0.0
C704 C 0.43378 0.31836 0.83902 0.0
C705 C 0.4412 0.38244 0.86088 0.0
C706 C 0.43066 0.35129 0.85597 0.0
C707 C 0.38827 0.26895 0.83308 0.0
C708 C 0.40454 0.2954 0.84224 0.0
H709 H 0.43996 0.421 0.88898 0.0
H710 H 0.43012 0.3707 0.88212 0.0
H711 H 0.46869 0.36366 0.84264 0.0
H712 H 0.37224 0.25431 0.79939 0.0
H713 H 0.40414 0.29545 0.8146 0.0
C714 C 0.77763 0.1382 0.81432 0.0
C715 C 0.80259 0.15143 0.82306 0.0
C716 C 0.74875 0.1292 0.81934 0.0
C717 C 0.70776 0.10183 0.85113 0.0
H718 H 0.64428 0.1094 0.8336 0.0
C719 C 0.58814 0.04109 0.87342 0.0
C720 C 0.56487 0.02664 0.86388 0.0
C721 C 0.61718 0.06245 0.86916 0.0
C722 C 0.66166 0.10683 0.8386 0.0
H723 H 0.81742 0.16834 0.84345 0.0
H724 H 0.76731 0.15261 0.85217 0.0
H725 H 0.6949 0.13502 0.82393 0.0
H726 H 0.55327 0.02539 0.84258 0.0
H727 H 0.60353 0.06114 0.83512 0.0
H728 H 0.67472 0.07248 0.86535 0.0
C729 C 0.76982 0.14862 0.84156 0.0
C730 C 0.69067 0.12163 0.83305 0.0
C731 C 0.79848 0.15765 0.83656 0.0
C732 C 0.57083 0.03552 0.85017 0.0
C733 C 0.59974 0.0565 0.8459 0.0
C734 C 0.67876 0.08669 0.85655 0.0
C735 C 0.74452 0.13329 0.83316 0.0
C736 C 0.71396 0.11909 0.83922 0.0
C737 C 0.62359 0.06968 0.85525 0.0
C738 C 0.65514 0.08864 0.85029 0.0
H739 H 0.78019 0.13305 0.8039 0.0
H740 H 0.72959 0.1174 0.81263 0.0
H741 H 0.72518 0.0991 0.85602 0.0
H742 H 0.58428 0.03487 0.88406 0.0
H743 H 0.63478 0.07263 0.87673 0.0
C744 C 0.98673 0.56442 0.87 0.0
C745 C 0.01541 0.58522 0.87487 0.0
C746 C 0.96797 0.57443 0.8645 0.0
C747 C 0.97563 0.64241 0.84778 0.0
H748 H 0.88866 0.60081 0.84947 0.0
C749 C 0.90805 0.68892 0.82012 0.0
C750 C 0.88223 0.66791 0.81305 0.0
C751 C 0.92259 0.67932 0.82923 0.0
C752 C 0.91295 0.6126 0.84882 0.0
H753 H 0.0461 0.63223 0.87891 0.0
H754 H 0.01327 0.64969 0.86983 0.0
H755 H 0.9163 0.58249 0.86295 0.0
H756 H 0.85072 0.62023 0.8106 0.0
H757 H 0.87634 0.60362 0.8261 0.0
H758 H 0.97247 0.67211 0.83348 0.0
C759 C 1.00541 0.6258 0.86979 0.0
C760 C 0.92878 0.60208 0.85656 0.0
C761 C 0.0241 0.61583 0.87512 0.0
C762 C 0.87084 0.63711 0.81564 0.0
C763 C 0.88534 0.62753 0.82472 0.0
C764 C 0.95986 0.65287 0.84005 0.0
C765 C 0.97764 0.60541 0.86387 0.0
C766 C 0.96035 0.61683 0.85612 0.0
C767 C 0.91164 0.64847 0.83151 0.0
C768 C 0.9283 0.63807 0.84039 0.0
H769 H 0.97976 0.54074 0.86957 0.0
H770 H 0.94676 0.55808 0.86002 0.0
H771 H 0.99988 0.65399 0.8469 0.0
H772 H 0.91752 0.71277 0.81837 0.0
H773 H 0.94256 0.69613 0.83441 0.0
C774 C 0.74738 0.67424 0.80153 0.0
C775 C 0.77284 0.69882 0.80731 0.0
C776 C 0.7199 0.66049 0.80834 0.0
C777 C 0.67588 0.67256 0.83448 0.0
H778 H 0.62936 0.58543 0.83471 0.0
C779 C 0.55267 0.60522 0.85458 0.0
C780 C 0.54717 0.58163 0.86351 0.0
C781 C 0.57962 0.61978 0.84716 0.0
C782 C 0.64205 0.60977 0.83475 0.0
H783 H 0.78936 0.72834 0.8248 0.0
H784 H 0.74092 0.70411 0.83683 0.0
H785 H 0.67847 0.61073 0.82378 0.0
H786 H 0.56499 0.55414 0.87133 0.0
H787 H 0.61137 0.57902 0.85833 0.0
H788 H 0.63936 0.67141 0.84562 0.0
C789 C 0.74242 0.69565 0.82694 0.0
C790 C 0.67014 0.62429 0.82842 0.0
C791 C 0.77017 0.70936 0.82013 0.0
C792 C 0.56854 0.57223 0.86451 0.0
C793 C 0.59512 0.58644 0.85702 0.0
C794 C 0.64756 0.65799 0.84075 0.0
C795 C 0.717 0.67099 0.82111 0.0
C796 C 0.68744 0.65585 0.82822 0.0
C797 C 0.60123 0.61064 0.84839 0.0
C798 C 0.63042 0.6264 0.84102 0.0
H799 H 0.74858 0.66556 0.79165 0.0
H800 H 0.70074 0.64182 0.80348 0.0
H801 H 0.68854 0.69691 0.83439 0.0
H802 H 0.53671 0.61309 0.8537 0.0
H803 H 0.58361 0.63823 0.8405 0.0
C804 C 0.408 0.96474 0.8619 0.0
C805 C 0.41689 0.97145 0.87555 0.0
C806 C 0.3931 0.97789 0.85542 0.0
C807 C 0.34637 0.01204 0.86029 0.0
H808 H 0.38566 0.05809 0.82795 0.0
C809 C 0.3037 0.083 0.83113 0.0
C810 C 0.30705 0.08426 0.81693 0.0
C811 C 0.31659 0.06965 0.83915 0.0
C812 C 0.37398 0.04494 0.83682 0.0
H813 H 0.41601 0.99602 0.89331 0.0
H814 H 0.38915 0.01827 0.88206 0.0
H815 H 0.40705 0.03172 0.83992 0.0
H816 H 0.32511 0.07124 0.79997 0.0
H817 H 0.34602 0.04719 0.81365 0.0
H818 H 0.31261 0.02431 0.85694 0.0
C819 C 0.39406 1.00318 0.87636 0.0
C820 C 0.38641 0.02995 0.8437 0.0
C821 C 0.40953 0.99057 0.88275 0.0
C822 C 0.32268 0.07129 0.81092 0.0
C823 C 0.33493 0.05759 0.81882 0.0
C824 C 0.33348 0.02658 0.85323 0.0
C825 C 0.38623 0.99742 0.86258 0.0
C826 C 0.37265 0.01318 0.85543 0.0
C827 C 0.3326 0.05695 0.83307 0.0
C828 C 0.34696 0.04297 0.84128 0.0
H829 H 0.41345 0.95015 0.8561 0.0
H830 H 0.3872 0.97306 0.84478 0.0
H831 H 0.33541 0.9993 0.86937 0.0
H832 H 0.29164 0.09274 0.83601 0.0
H833 H 0.31439 0.06973 0.8501 0.0
C834 C 0.06753 0.46694 0.86014 0.0
C835 C 0.04865 0.46905 0.86989 0.0
C836 C 0.05781 0.44029 0.85272 0.0
C837 C 1.00301 0.35871 0.85474 0.0
H838 H 0.0165 0.35842 0.81598 0.0
C839 C 0.96506 0.24798 0.82494 0.0
C840 C 0.95014 0.24551 0.81261 0.0
C841 C 0.98038 0.27568 0.83173 0.0
C842 C 0.01256 0.35812 0.82681 0.0
H843 H 1.00442 0.44516 0.87915 0.0
H844 H 0.98756 0.3992 0.86621 0.0
H845 H 0.03617 0.40628 0.828 0.0
H846 H 0.94026 0.27034 0.79757 0.0
H847 H 0.96669 0.31826 0.80936 0.0
H848 H 0.97873 0.31066 0.85353 0.0
C849 C 1.01002 0.4178 0.86442 0.0
C850 C 0.02406 0.38556 0.83372 0.0
C851 C 0.01963 0.44433 0.87176 0.0
C852 C 0.95146 0.27141 0.80707 0.0
C853 C 0.96686 0.29902 0.81378 0.0
C854 C 0.99166 0.33132 0.84786 0.0
C855 C 0.02912 0.4152 0.85498 0.0
C856 C 0.01894 0.38619 0.84772 0.0
C857 C 0.98128 0.3015 0.82626 0.0
C858 C 0.99584 0.33065 0.83377 0.0
H859 H 0.09007 0.48553 0.85852 0.0
H860 H 0.0731 0.439 0.84553 0.0
H861 H 0.99906 0.35837 0.86558 0.0
H862 H 0.96449 0.22845 0.82946 0.0
H863 H 0.99146 0.27686 0.84127 0.0
C864 C 0.71307 0.78175 0.18931 0.0
C865 C 0.7117 0.78153 0.20356 0.0
C866 C 0.69931 0.75463 0.18202 0.0
C867 C 0.6416 0.67353 0.18614 0.0
H868 H 0.67561 0.66463 0.15248 0.0
C869 C 0.59526 0.55979 0.15728 0.0
C870 C 0.59074 0.56138 0.14328 0.0
C871 C 0.61069 0.5862 0.165 0.0
C872 C 0.66583 0.66685 0.16186 0.0
H873 H 0.69598 0.75286 0.2214 0.0
H874 H 0.67315 0.70596 0.20884 0.0
H875 H 0.70175 0.71181 0.16506 0.0
H876 H 0.59908 0.59184 0.12638 0.0
H877 H 0.62607 0.63752 0.13977 0.0
H878 H 0.60591 0.6283 0.18296 0.0
C879 C 0.68377 0.72682 0.20316 0.0
C880 C 0.6807 0.69396 0.16904 0.0
C881 C 0.69709 0.75379 0.21039 0.0
C882 C 0.60204 0.58978 0.13717 0.0
C883 C 0.61775 0.61602 0.1448 0.0
C884 C 0.62695 0.64631 0.17904 0.0
C885 C 0.68425 0.72678 0.18887 0.0
C886 C 0.66871 0.69777 0.18124 0.0
C887 C 0.62228 0.61457 0.15879 0.0
C888 C 0.63877 0.64277 0.16677 0.0
H889 H 0.72409 0.80282 0.18378 0.0
H890 H 0.69991 0.75557 0.17101 0.0
H891 H 0.63128 0.67571 0.19534 0.0
H892 H 0.58685 0.53823 0.16225 0.0
H893 H 0.61396 0.58446 0.17578 0.0
C894 C 0.26511 0.92766 0.20909 0.0
C895 C 0.23826 0.926 0.20474 0.0
C896 C 0.2913 0.94279 0.20132 0.0
C897 C 0.31868 0.97271 0.16656 0.0
H898 H 0.39547 0.01615 0.18504 0.0
C899 C 0.43071 0.01612 0.13794 0.0
C900 C 0.45586 0.04319 0.14209 0.0
C901 C 0.40406 1.0034 0.14544 0.0
C902 C 0.37424 1.0045 0.17968 0.0
H903 H 0.2178 0.93894 0.18879 0.0
H904 H 0.26363 0.966 0.17535 0.0
H905 H 0.34938 0.99153 0.19829 0.0
H906 H 0.47263 0.07846 0.15727 0.0
H907 H 0.42577 0.05669 0.17023 0.0
H908 H 0.34345 0.98646 0.14795 0.0
C909 C 0.2644 0.95508 0.18464 0.0
C910 C 0.34773 0.98991 0.18731 0.0
C911 C 0.2381 0.93966 0.19238 0.0
C912 C 0.45366 0.05752 0.15384 0.0
C913 C 0.42683 0.0449 0.16131 0.0
C914 C 0.34515 0.98751 0.15894 0.0
C915 C 0.29142 0.95696 0.18903 0.0
C916 C 0.31959 0.9735 0.18087 0.0
C917 C 0.4017 0.01755 0.15724 0.0
C918 C 0.37335 1.00331 0.16538 0.0
H919 H 0.26592 0.9172 0.21854 0.0
H920 H 0.3114 0.94313 0.20491 0.0
H921 H 0.29753 0.96014 0.16121 0.0
H922 H 0.4317 1.00436 0.12898 0.0
H923 H 0.38552 0.98207 0.1421 0.0
C924 C 0.09681 0.33836 0.2066 0.0
C925 C 0.09047 0.30902 0.20354 0.0
C926 C 0.08381 0.35205 0.19908 0.0
C927 C 0.01897 0.33524 0.17712 0.0
H928 H 0.06636 0.41984 0.16797 0.0
C929 C 0.96566 0.40379 0.15584 0.0
C930 C 0.98101 0.42363 0.14507 0.0
C931 C 0.97894 0.38971 0.16297 0.0
C932 C 0.0528 0.39616 0.17037 0.0
H933 H 0.0656 0.27108 0.19008 0.0
H934 H 0.04284 0.29512 0.17683 0.0
H935 H 0.09005 0.39508 0.17956 0.0
H936 H 0.02247 0.44447 0.13348 0.0
H937 H 0.04552 0.42011 0.14587 0.0
H938 H 0.98176 0.33636 0.16777 0.0
C939 C 0.05781 0.30744 0.18514 0.0
C940 C 0.06635 0.382 0.17713 0.0
C941 C 0.07103 0.29376 0.19265 0.0
C942 C 1.01005 0.42942 0.14176 0.0
C943 C 0.02335 0.41551 0.14891 0.0
C944 C 1.00536 0.34947 0.1704 0.0
C945 C 0.06397 0.33675 0.18831 0.0
C946 C 0.04962 0.35138 0.18063 0.0
C947 C 1.00793 0.39531 0.15955 0.0
C948 C 0.02212 0.38014 0.16693 0.0
H949 H 0.1116 0.35076 0.21495 0.0
H950 H 0.08879 0.37445 0.20193 0.0
H951 H 1.00534 0.31171 0.17978 0.0
H952 H 0.9432 0.39875 0.15861 0.0
H953 H 0.96655 0.37453 0.17121 0.0
C954 C 0.11514 0.80069 0.48616 0.0
C955 C 0.11796 0.77704 0.48056 0.0
C956 C 0.08875 0.79462 0.4931 0.0
C957 C 0.02742 0.73217 0.51205 0.0
H958 H 0.98437 0.77598 0.50875 0.0
C959 C 0.91681 0.69162 0.54094 0.0
C960 C 0.89324 0.68834 0.53254 0.0
C961 C 0.94676 0.7093 0.5367 0.0
C962 C 0.99625 0.76361 0.50984 0.0
H963 H 0.09497 0.72918 0.47682 0.0
H964 H 0.04895 0.71861 0.48855 0.0
H965 H 0.03101 0.79268 0.49595 0.0
H966 H 0.88245 0.70306 0.51382 0.0
H967 H 0.93428 0.73355 0.50636 0.0
H968 H 0.99237 0.70236 0.52541 0.0
C969 C 0.06717 0.74167 0.488 0.0
C970 C 0.02304 0.77331 0.50256 0.0
C971 C 0.09334 0.74771 0.48116 0.0
C972 C 0.90024 0.70499 0.52041 0.0
C973 C 0.93001 0.72269 0.5162 0.0
C974 C 1.00082 0.72257 0.51933 0.0
C975 C 0.06494 0.76482 0.49452 0.0
C976 C 0.03841 0.7571 0.50328 0.0
C977 C 0.95363 0.72414 0.52401 0.0
C978 C 0.98442 0.73766 0.51806 0.0
H979 H 0.13399 0.82343 0.48594 0.0
H980 H 0.08762 0.81295 0.49797 0.0
H981 H 0.03906 0.71954 0.51305 0.0
H982 H 0.91202 0.67897 0.55032 0.0
H983 H 0.96444 0.7103 0.54307 0.0
C984 C 0.22813 0.31273 0.47842 0.0
C985 C 0.24699 0.34248 0.47419 0.0
C986 C 0.24046 0.29533 0.48309 0.0
C987 C 0.31087 0.30737 0.49904 0.0
H988 H 0.27387 0.22078 0.49636 0.0
C989 C 0.36174 0.24325 0.52645 0.0
C990 C 0.34116 0.21709 0.53345 0.0
C991 C 0.3516 0.25714 0.51723 0.0
C992 C 0.28443 0.24498 0.49725 0.0
H993 H 0.29302 0.37677 0.47056 0.0
H994 H 0.31463 0.34628 0.4781 0.0
H995 H 0.25322 0.24688 0.48332 0.0
H996 H 0.29382 0.18417 0.5356 0.0
H997 H 0.27624 0.20853 0.51986 0.0
H998 H 0.34161 0.30554 0.51317 0.0
C999 C 0.29043 0.33644 0.47824 0.0
C1000 C 0.27256 0.25994 0.48977 0.0
C1001 C 0.27812 0.3538 0.47374 0.0
C1002 C 0.31032 0.20459 0.53061 0.0
C1003 C 0.30022 0.21837 0.5214 0.0
C1004 C 0.32271 0.29246 0.50649 0.0
C1005 C 0.27189 0.30745 0.48354 0.0
C1006 C 0.28547 0.29133 0.49066 0.0
C1007 C 0.32065 0.24508 0.51473 0.0
C1008 C 0.30946 0.26102 0.50584 0.0
H1009 H 0.20409 0.30382 0.47907 0.0
H1010 H 0.22546 0.27317 0.48715 0.0
H1011 H 0.32108 0.33147 0.50025 0.0
H1012 H 0.38561 0.25349 0.5284 0.0
H1013 H 0.36802 0.2775 0.51215 0.0
C1014 C 0.66616 0.90976 0.49172 0.0
C1015 C 0.68414 0.89937 0.48573 0.0
C1016 C 0.67862 0.93341 0.50119 0.0
C1017 C 0.75237 0.99821 0.5093 0.0
H1018 H 0.71512 1.00615 0.54213 0.0
C1019 C 0.81809 0.10088 0.54254 0.0
C1020 C 0.80293 0.11586 0.54664 0.0
C1021 C 0.80208 0.07128 0.53789 0.0
C1022 C 0.72573 1.00427 0.53296 0.0
H1023 H 0.72822 0.90348 0.48586 0.0
H1024 H 0.74974 0.94415 0.50234 0.0
H1025 H 0.68896 0.9601 0.52843 0.0
H1026 H 0.75937 0.11163 0.54985 0.0
H1027 H 0.731 0.05978 0.54141 0.0
H1028 H 0.78862 0.04221 0.51341 0.0
C1029 C 0.72639 0.9349 0.49948 0.0
C1030 C 0.71073 0.97795 0.52512 0.0
C1031 C 0.71407 0.9116 0.49003 0.0
C1032 C 0.77139 0.10016 0.54693 0.0
C1033 C 0.75525 0.07057 0.54205 0.0
C1034 C 0.76719 0.02433 0.51704 0.0
C1035 C 0.70917 0.94682 0.50483 0.0
C1036 C 0.7241 0.97457 0.51326 0.0
C1037 C 0.77052 0.05628 0.5369 0.0
C1038 C 0.7543 0.02769 0.52905 0.0
H1039 H 0.643 0.90062 0.48857 0.0
H1040 H 0.66479 0.94211 0.50514 0.0
H1041 H 0.76295 0.99673 0.50003 0.0
H1042 H 0.84242 0.11278 0.54218 0.0
H1043 H 0.81457 0.06072 0.53436 0.0
C1044 C 0.36275 0.08141 0.54602 0.0
C1045 C 0.37465 0.10869 0.53887 0.0
C1046 C 0.3511 0.05412 0.53913 0.0
C1047 C 0.3482 0.02079 0.50501 0.0
H1048 H 0.28022 0.95079 0.52107 0.0
C1049 C 0.26973 0.91281 0.47545 0.0
C1050 C 0.26389 0.88519 0.48107 0.0
C1051 C 0.28528 0.93941 0.48283 0.0
C1052 C 0.29945 0.97006 0.51658 0.0
H1053 H 0.38382 0.12885 0.51885 0.0
H1054 H 0.36206 0.0809 0.50665 0.0
H1055 H 0.30228 0.99895 0.5328 0.0
H1056 H 0.26976 0.8638 0.49887 0.0
H1057 H 0.29626 0.91073 0.51214 0.0
H1058 H 0.34399 0.99181 0.48842 0.0
C1059 C 0.36249 0.08061 0.51765 0.0
C1060 C 0.31224 0.99776 0.52329 0.0
C1061 C 0.37478 0.10813 0.52461 0.0
C1062 C 0.27389 0.88475 0.49432 0.0
C1063 C 0.28898 0.9115 0.50188 0.0
C1064 C 0.33502 0.99318 0.4982 0.0
C1065 C 0.35038 0.05316 0.52484 0.0
C1066 C 0.33681 0.0236 0.51761 0.0
C1067 C 0.29496 0.93908 0.49612 0.0
C1068 C 0.31048 0.9676 0.5039 0.0
H1069 H 0.36283 0.0811 0.55704 0.0
H1070 H 0.34292 0.03378 0.54509 0.0
H1071 H 0.36739 0.03985 0.50041 0.0
H1072 H 0.2626 0.91402 0.46521 0.0
H1073 H 0.28933 0.96027 0.4782 0.0
C1074 C 0.12511 0.39158 0.49048 0.0
C1075 C 0.1277 0.37309 0.48067 0.0
C1076 C 0.09951 0.38042 0.49874 0.0
C1077 C 0.03658 0.30996 0.51215 0.0
H1078 H 0.99703 0.35683 0.51731 0.0
C1079 C 0.93879 0.27423 0.55005 0.0
C1080 C 0.91341 0.27511 0.5453 0.0
C1081 C 0.96551 0.28748 0.54258 0.0
C1082 C 1.00779 0.34346 0.51593 0.0
H1083 H 0.10568 0.3283 0.47197 0.0
H1084 H 0.06132 0.30879 0.48648 0.0
H1085 H 0.0428 0.37718 0.50355 0.0
H1086 H 0.89642 0.29128 0.52912 0.0
H1087 H 0.94332 0.31473 0.51608 0.0
H1088 H 1.00157 0.27618 0.52444 0.0
C1089 C 0.07903 0.33189 0.4878 0.0
C1090 C 0.03414 0.35522 0.50816 0.0
C1091 C 0.10441 0.34311 0.47945 0.0
C1092 C 0.91559 0.29023 0.53306 0.0
C1093 C 0.94248 0.30375 0.52562 0.0
C1094 C 1.01046 0.29837 0.52003 0.0
C1095 C 0.07615 0.35045 0.49748 0.0
C1096 C 0.04873 0.33851 0.50611 0.0
C1097 C 0.96762 0.30216 0.53021 0.0
C1098 C 0.99567 0.31491 0.52197 0.0
H1099 H 0.14262 0.41481 0.49162 0.0
H1100 H 0.09808 0.39521 0.50618 0.0
H1101 H 0.04739 0.29661 0.51086 0.0
H1102 H 0.9379 0.2628 0.55945 0.0
H1103 H 0.98457 0.28619 0.54648 0.0
C1104 C 0.74466 0.66405 0.547 0.0
C1105 C 0.74236 0.63792 0.54124 0.0
C1106 C 0.73093 0.67856 0.54085 0.0
C1107 C 0.67244 0.66988 0.51675 0.0
H1108 H 0.72336 0.75608 0.51227 0.0
C1109 C 0.62986 0.74726 0.49457 0.0
C1110 C 0.64773 0.76577 0.48391 0.0
C1111 C 0.64013 0.73168 0.50265 0.0
C1112 C 0.70884 0.73205 0.51349 0.0
H1113 H 0.72293 0.60592 0.52472 0.0
H1114 H 0.69866 0.63147 0.51389 0.0
H1115 H 0.7429 0.72744 0.52389 0.0
H1116 H 0.69061 0.78343 0.47363 0.0
H1117 H 0.70872 0.75696 0.48786 0.0
H1118 H 0.63849 0.67466 0.50614 0.0
C1119 C 0.71117 0.64057 0.52323 0.0
C1120 C 0.71995 0.71567 0.5202 0.0
C1121 C 0.72515 0.62605 0.52938 0.0
C1122 C 0.67638 0.76934 0.48179 0.0
C1123 C 0.68678 0.75424 0.48996 0.0
C1124 C 0.66117 0.68639 0.51015 0.0
C1125 C 0.7144 0.66729 0.5288 0.0
C1126 C 0.70198 0.68438 0.52182 0.0
C1127 C 0.66862 0.73487 0.50032 0.0
C1128 C 0.67941 0.7176 0.50833 0.0
H1129 H 0.75756 0.67371 0.5562 0.0
H1130 H 0.73345 0.69883 0.54549 0.0
H1131 H 0.65805 0.64583 0.51795 0.0
H1132 H 0.60757 0.74392 0.49632 0.0
H1133 H 0.62578 0.71701 0.51064 0.0
C1134 C 0.19185 0.33735 0.28925 0.0
C1135 C 0.17613 0.30721 0.28499 0.0
C1136 C 0.19956 0.3446 0.30293 0.0
C1137 C 0.20368 0.31255 0.33664 0.0
H1138 H 0.19642 0.37935 0.35049 0.0
C1139 C 0.19383 0.33346 0.39409 0.0
C1140 C 0.2093 0.36336 0.39875 0.0
C1141 C 0.19344 0.32694 0.38023 0.0
C1142 C 0.19895 0.36088 0.34677 0.0
H1143 H 0.15682 0.26106 0.29169 0.0
H1144 H 0.16949 0.27354 0.31564 0.0
H1145 H 0.18881 0.36731 0.32641 0.0
H1146 H 0.23709 0.40978 0.39249 0.0
H1147 H 0.23639 0.39841 0.36832 0.0
H1148 H 0.21274 0.30565 0.35726 0.0
C1149 C 0.17653 0.29173 0.3084 0.0
C1150 C 0.19468 0.35397 0.3329 0.0
C1151 C 0.16918 0.2845 0.29465 0.0
C1152 C 0.22517 0.3865 0.38927 0.0
C1153 C 0.2245 0.38001 0.37539 0.0
C1154 C 0.20763 0.3193 0.35058 0.0
C1155 C 0.19134 0.3219 0.31279 0.0
C1156 C 0.19693 0.32967 0.3276 0.0
C1157 C 0.20823 0.35019 0.37068 0.0
C1158 C 0.20527 0.34353 0.35581 0.0
H1159 H 0.19787 0.35537 0.28199 0.0
H1160 H 0.21168 0.36811 0.30578 0.0
H1161 H 0.20606 0.29397 0.33298 0.0
H1162 H 0.18157 0.3151 0.40114 0.0
H1163 H 0.18058 0.30376 0.37694 0.0
C1164 C 0.71608 0.83643 0.29423 0.0
C1165 C 0.72707 0.86309 0.28667 0.0
C1166 C 0.71077 0.83617 0.30813 0.0
C1167 C 0.69466 0.87646 0.33467 0.0
H1168 H 0.70841 0.82398 0.35832 0.0
C1169 C 0.6681 0.86027 0.39299 0.0
C1170 C 0.65255 0.83004 0.39724 0.0
C1171 C 0.67922 0.86771 0.3797 0.0
C1172 C 0.70441 0.83871 0.35183 0.0
H1173 H 0.74194 0.91065 0.28784 0.0
H1174 H 0.73297 0.91032 0.31236 0.0
H1175 H 0.72651 0.83188 0.33496 0.0
H1176 H 0.63494 0.78394 0.39059 0.0
H1177 H 0.6548 0.79698 0.3676 0.0
H1178 H 0.67236 0.88303 0.35169 0.0
C1179 C 0.72811 0.88952 0.30741 0.0
C1180 C 0.71473 0.84321 0.33845 0.0
C1181 C 0.73349 0.88978 0.29342 0.0
C1182 C 0.64746 0.80747 0.38778 0.0
C1183 C 0.65878 0.81491 0.3746 0.0
C1184 C 0.68452 0.87212 0.34815 0.0
C1185 C 0.71649 0.86262 0.31489 0.0
C1186 C 0.70921 0.86142 0.32959 0.0
C1187 C 0.67521 0.84509 0.37049 0.0
C1188 C 0.6886 0.85253 0.35671 0.0
H1189 H 0.71136 0.81558 0.28938 0.0
H1190 H 0.70143 0.81496 0.31351 0.0
H1191 H 0.6899 0.89049 0.32808 0.0
H1192 H 0.67261 0.87823 0.40004 0.0
H1193 H 0.69183 0.89116 0.37676 0.0
C1194 C 0.14289 0.86702 0.29808 0.0
C1195 C 0.1523 0.85322 0.28843 0.0
C1196 C 0.14091 0.85942 0.31187 0.0
C1197 C 0.13729 0.80141 0.3357 0.0
H1198 H 0.1708 0.8673 0.36147 0.0
C1199 C 0.16908 0.78998 0.39123 0.0
C1200 C 0.16661 0.8081 0.40126 0.0
C1201 C 0.16269 0.79257 0.37759 0.0
C1202 C 0.16082 0.8485 0.35448 0.0
H1203 H 0.1659 0.81979 0.28569 0.0
H1204 H 0.16286 0.80687 0.30973 0.0
H1205 H 0.16842 0.87754 0.33751 0.0
H1206 H 0.15327 0.84136 0.40508 0.0
H1207 H 0.14142 0.84536 0.38143 0.0
H1208 H 0.13005 0.77242 0.35271 0.0
C1209 C 0.15685 0.82345 0.30664 0.0
C1210 C 0.1595 0.85443 0.3407 0.0
C1211 C 0.15894 0.83112 0.29287 0.0
C1212 C 0.15578 0.82741 0.39753 0.0
C1213 C 0.14919 0.82984 0.38396 0.0
C1214 C 0.13853 0.79546 0.34952 0.0
C1215 C 0.14816 0.83775 0.31634 0.0
C1216 C 0.14794 0.83101 0.33111 0.0
C1217 C 0.15351 0.8132 0.37373 0.0
C1218 C 0.1505 0.81897 0.35909 0.0
H1219 H 0.13781 0.88428 0.29503 0.0
H1220 H 0.13384 0.87066 0.31905 0.0
H1221 H 0.1279 0.7828 0.3286 0.0
H1222 H 0.17762 0.7751 0.3938 0.0
H1223 H 0.16645 0.77952 0.37001 0.0
C1224 C 0.39462 0.17877 0.63099 0.0
C1225 C 0.3877 0.19464 0.62136 0.0
C1226 C 0.38751 0.17866 0.64467 0.0
C1227 C 0.33568 0.18895 0.66696 0.0
H1228 H 0.38442 0.18136 0.69513 0.0
C1229 C 0.30651 0.17399 0.72503 0.0
C1230 C 0.30767 0.14964 0.73103 0.0
C1231 C 0.31713 0.18328 0.71178 0.0
C1232 C 0.37062 0.18351 0.68737 0.0
H1233 H 0.3689 0.22387 0.61866 0.0
H1234 H 0.35703 0.22428 0.64275 0.0
H1235 H 0.40351 0.19325 0.67194 0.0
H1236 H 0.31966 0.11519 0.72741 0.0
H1237 H 0.33901 0.13209 0.70459 0.0
H1238 H 0.30281 0.17914 0.68257 0.0
C1239 C 0.36752 0.21146 0.63962 0.0
C1240 C 0.38147 0.19022 0.67407 0.0
C1241 C 0.37462 0.21151 0.62584 0.0
C1242 C 0.31913 0.13451 0.72333 0.0
C1243 C 0.33012 0.14409 0.71022 0.0
C1244 C 0.32498 0.18261 0.68035 0.0
C1245 C 0.37348 0.19463 0.64916 0.0
C1246 C 0.36377 0.19209 0.66361 0.0
C1247 C 0.3295 0.16871 0.70436 0.0
C1248 C 0.34202 0.17898 0.69057 0.0
H1249 H 0.40507 0.16587 0.6279 0.0
H1250 H 0.39209 0.16509 0.65164 0.0
H1251 H 0.32133 0.18998 0.65916 0.0
H1252 H 0.29817 0.18641 0.73068 0.0
H1253 H 0.31645 0.20236 0.70747 0.0
C1254 C 0.86417 0.1862 0.73052 0.0
C1255 C 0.84925 0.15863 0.73749 0.0
C1256 C 0.85957 0.18766 0.71659 0.0
C1257 C 0.8091 0.15966 0.689 0.0
H1258 H 0.87652 0.17757 0.66544 0.0
C1259 C 0.80047 0.16581 0.63017 0.0
C1260 C 0.82653 0.18611 0.62308 0.0
C1261 C 0.80185 0.16042 0.64408 0.0
C1262 C 0.85755 0.17307 0.67182 0.0
H1263 H 0.81736 0.11108 0.7354 0.0
H1264 H 0.80848 0.11391 0.71095 0.0
H1265 H 0.88093 0.17274 0.68987 0.0
H1266 H 0.87417 0.21751 0.62501 0.0
H1267 H 0.87649 0.20945 0.64922 0.0
H1268 H 0.78608 0.16151 0.67119 0.0
C1269 C 0.82396 0.13422 0.71636 0.0
C1270 C 0.86007 0.16999 0.68581 0.0
C1271 C 0.82907 0.13261 0.73028 0.0
C1272 C 0.85383 0.20133 0.63019 0.0
C1273 C 0.85513 0.19647 0.6441 0.0
C1274 C 0.80673 0.16337 0.675 0.0
C1275 C 0.83951 0.16171 0.70939 0.0
C1276 C 0.83595 0.16339 0.69452 0.0
C1277 C 0.82925 0.1757 0.65128 0.0
C1278 C 0.83104 0.1704 0.66618 0.0
H1279 H 0.88014 0.20653 0.73578 0.0
H1280 H 0.87184 0.20907 0.71139 0.0
H1281 H 0.79026 0.15473 0.69558 0.0
H1282 H 0.77915 0.15373 0.6249 0.0
H1283 H 0.78147 0.14396 0.64911 0.0
C1284 C 0.88453 0.72586 0.71811 0.0
C1285 C 0.86194 0.70611 0.72706 0.0
C1286 C 0.88475 0.71752 0.70453 0.0
C1287 C 0.83227 0.6654 0.67866 0.0
H1288 H 0.90425 0.68628 0.65789 0.0
C1289 C 0.82421 0.61906 0.62491 0.0
C1290 C 0.84233 0.63954 0.61482 0.0
C1291 C 0.82924 0.6268 0.63866 0.0
C1292 C 0.88397 0.68048 0.66355 0.0
H1293 H 0.82331 0.66143 0.72916 0.0
H1294 H 0.82398 0.64672 0.70571 0.0
H1295 H 0.90849 0.70061 0.6819 0.0
H1296 H 0.88094 0.68377 0.61142 0.0
H1297 H 0.88948 0.69744 0.63549 0.0
H1298 H 0.80772 0.64544 0.66043 0.0
C1299 C 0.84095 0.66899 0.70894 0.0
C1300 C 0.8864 0.68871 0.6773 0.0
C1301 C 0.84061 0.67737 0.7224 0.0
C1302 C 0.86637 0.66757 0.61891 0.0
C1303 C 0.87143 0.67531 0.63271 0.0
C1304 C 0.82986 0.65714 0.66501 0.0
C1305 C 0.86249 0.68921 0.69972 0.0
C1306 C 0.86052 0.68105 0.68505 0.0
C1307 C 0.85247 0.65525 0.64273 0.0
C1308 C 0.85561 0.66436 0.65729 0.0
H1309 H 0.90122 0.74816 0.72144 0.0
H1310 H 0.90162 0.73368 0.6977 0.0
H1311 H 0.81189 0.65981 0.68419 0.0
H1312 H 0.80526 0.59743 0.62219 0.0
H1313 H 0.8145 0.61062 0.64613 0.0
C1314 C 1.00484 0.52868 0.05995 0.0
C1315 C 0.97526 0.51247 0.06492 0.0
C1316 C 1.0103 0.53605 0.04614 0.0
C1317 C 0.97619 0.50806 0.01296 0.0
H1318 H 0.03765 0.58561 0.99945 0.0
C1319 C 0.99913 0.5274 0.95549 0.0
C1320 C 0.0292 0.54478 0.95135 0.0
C1321 C 0.9912 0.52674 0.96915 0.0
C1322 C 0.02063 0.56369 1.00303 0.0
H1323 H 0.92824 0.4919 0.05938 0.0
H1324 H 0.93777 0.50448 0.0352 0.0
H1325 H 0.02669 0.57862 0.02378 0.0
H1326 H 0.07448 0.57559 0.95816 0.0
H1327 H 0.06098 0.57376 0.98206 0.0
H1328 H 0.9709 0.49249 0.99247 0.0
C1329 C 0.95672 0.51157 0.04201 0.0
C1330 C 0.01426 0.55978 0.01698 0.0
C1331 C 0.95127 0.50459 0.05586 0.0
C1332 C 0.05106 0.56225 0.96106 0.0
C1333 C 0.04323 0.56122 0.97478 0.0
C1334 C 0.98282 0.51181 0.99906 0.0
C1335 C 0.98628 0.52698 0.03697 0.0
C1336 C 0.99205 0.53188 0.0221 0.0
C1337 C 0.01324 0.54299 0.97907 0.0
C1338 C 1.00524 0.53964 0.99386 0.0
H1339 H 0.02377 0.53519 0.06671 0.0
H1340 H 0.03331 0.54778 0.04254 0.0
H1341 H 0.95929 0.48614 0.01662 0.0
H1342 H 0.98178 0.51394 0.94817 0.0
H1343 H 0.96777 0.51308 0.97193 0.0
C1344 C 0.53667 0.49376 0.04959 0.0
C1345 C 0.51441 0.48016 0.05964 0.0
C1346 C 0.52892 0.49171 0.03587 0.0
C1347 C 0.46546 0.47649 0.01298 0.0
H1348 H 0.52038 0.47708 0.98575 0.0
C1349 C 0.45214 0.47609 0.95319 0.0
C1350 C 0.47606 0.50234 0.94747 0.0
C1351 C 0.453 0.46888 0.9669 0.0
C1352 C 0.50471 0.47661 0.99326 0.0
H1353 H 0.46631 0.45328 0.06301 0.0
H1354 H 0.45282 0.44877 0.03898 0.0
H1355 H 0.52893 0.47134 0.00968 0.0
H1356 H 0.51875 0.54234 0.95209 0.0
H1357 H 0.5207 0.5289 0.97559 0.0
H1358 H 0.44133 0.48173 0.9963 0.0
C1359 C 0.47633 0.46157 0.04177 0.0
C1360 C 0.50972 0.47364 1.00698 0.0
C1361 C 0.48411 0.46384 0.05556 0.0
C1362 C 0.50039 0.52141 0.95591 0.0
C1363 C 0.50147 0.51392 0.96943 0.0
C1364 C 0.46019 0.47898 0.99918 0.0
C1365 C 0.49866 0.47562 0.03174 0.0
C1366 C 0.49077 0.47456 0.01707 0.0
C1367 C 0.47796 0.48755 0.97501 0.0
C1368 C 0.48029 0.47991 0.98928 0.0
H1369 H 0.56027 0.50608 0.05229 0.0
H1370 H 0.54678 0.50333 0.02853 0.0
H1371 H 0.4505 0.47752 0.02044 0.0
H1372 H 0.43311 0.46077 0.94704 0.0
H1373 H 0.4346 0.44842 0.97107 0.0
C1374 C 0.51289 0.02681 0.05609 0.0
C1375 C 0.53995 0.03869 0.06337 0.0
C1376 C 0.51198 0.02041 0.04224 0.0
C1377 C 0.56102 0.03421 0.01178 0.0
H1378 H 0.48741 0.96801 0.99743 0.0
C1379 C 0.54054 0.01129 0.95377 0.0
C1380 C 0.52134 0.9816 0.94933 0.0
C1381 C 0.54471 0.01823 0.96767 0.0
C1382 C 0.50842 0.98627 1.00121 0.0
H1383 H 0.58732 0.05324 0.06195 0.0
H1384 H 0.58563 0.04069 0.03785 0.0
H1385 H 0.49126 0.97907 0.02143 0.0
H1386 H 0.49215 0.93586 0.95646 0.0
H1387 H 0.5013 0.94749 0.98031 0.0
H1388 H 0.57869 0.04027 0.99159 0.0
C1389 C 0.56517 0.0371 0.04269 0.0
C1390 C 0.51041 0.99307 0.01506 0.0
C1391 C 0.56617 0.0441 0.05653 0.0
C1392 C 0.50754 0.95895 0.95926 0.0
C1393 C 0.51225 0.96577 0.9731 0.0
C1394 C 0.55923 0.02702 0.99793 0.0
C1395 C 0.53802 0.02512 0.03532 0.0
C1396 C 0.53658 0.01736 0.02056 0.0
C1397 C 0.53025 0.99561 0.97756 0.0
C1398 C 0.53281 1.00302 0.99241 0.0
H1399 H 0.49246 0.02296 0.06108 0.0
H1400 H 0.4908 0.0121 0.03694 0.0
H1401 H 0.58147 0.05331 0.01552 0.0
H1402 H 0.55208 0.02939 0.94653 0.0
H1403 H 0.55861 0.04153 0.9706 0.0
C1404 C 0.1936 0.02619 0.23089 0.0
C1405 C 0.17134 0.99615 0.23294 0.0
C1406 C 0.18594 0.04869 0.22992 0.0
C1407 C 0.12012 0.06111 0.22618 0.0
H1408 H 0.17742 0.13988 0.24025 0.0
C1409 C 0.09476 0.15691 0.23998 0.0
C1410 C 0.11389 0.18472 0.23377 0.0
C1411 C 0.10051 0.13308 0.23879 0.0
C1412 C 0.16131 0.11801 0.23622 0.0
H1413 H 0.1237 0.96585 0.23555 0.0
H1414 H 0.11021 1.00519 0.23461 0.0
H1415 H 0.18978 0.09991 0.24062 0.0
H1416 H 0.15385 0.2094 0.22138 0.0
H1417 H 0.16442 0.16797 0.21973 0.0
H1418 H 0.09113 0.07937 0.22251 0.0
C1419 C 0.13354 0.01151 0.23324 0.0
C1420 C 0.16842 0.09506 0.23631 0.0
C1421 C 0.1412 0.9889 0.23387 0.0
C1422 C 0.13865 0.18816 0.22622 0.0
C1423 C 0.14478 0.16457 0.22531 0.0
C1424 C 0.11276 0.08395 0.22639 0.0
C1425 C 0.15586 0.04183 0.23135 0.0
C1426 C 0.14804 0.06627 0.23121 0.0
C1427 C 0.12585 0.13691 0.23165 0.0
C1428 C 0.13339 0.11261 0.23134 0.0
H1429 H 0.21695 0.03219 0.22994 0.0
H1430 H 0.20375 0.07148 0.22803 0.0
H1431 H 0.10398 0.03953 0.22195 0.0
H1432 H 0.07543 0.15364 0.24579 0.0
H1433 H 0.08569 0.11195 0.2438 0.0
C1434 C 0.82711 0.95413 0.22033 0.0
C1435 C 0.79842 0.9492 0.22375 0.0
C1436 C 0.8523 0.98303 0.22109 0.0
C1437 C 0.87517 0.06423 0.22354 0.0
H1438 H 0.94855 0.0719 0.2385 0.0
C1439 C 0.97676 0.17901 0.23972 0.0
C1440 C 1.00535 0.18417 0.23595 0.0
C1441 C 0.9513 0.15053 0.23801 0.0
C1442 C 0.92832 0.07015 0.23419 0.0
H1443 H 0.77369 0.97106 0.23033 0.0
H1444 H 0.81742 0.02106 0.23184 0.0
H1445 H 0.9049 0.02212 0.23531 0.0
H1446 H 0.02968 0.16314 0.22786 0.0
H1447 H 0.9855 0.11384 0.22477 0.0
H1448 H 0.89863 0.11238 0.22259 0.0
C1449 C 0.82055 1.00278 0.22839 0.0
C1450 C 0.90328 0.04157 0.23231 0.0
C1451 C 0.79542 0.97397 0.2276 0.0
C1452 C 1.00795 0.16013 0.23064 0.0
C1453 C 0.98263 0.13171 0.22902 0.0
C1454 C 0.90019 0.09284 0.22548 0.0
C1455 C 0.8494 1.00769 0.22532 0.0
C1456 C 0.87635 0.03819 0.22695 0.0
C1457 C 0.95397 0.12653 0.23265 0.0
C1458 C 0.92709 0.09615 0.23081 0.0
H1459 H 0.83025 0.93559 0.2173 0.0
H1460 H 0.87409 0.98602 0.21843 0.0
H1461 H 0.85498 0.06254 0.21921 0.0
H1462 H 0.97405 0.19708 0.24381 0.0
H1463 H 0.92956 0.1472 0.24102 0.0
C1464 C 0.86866 0.86835 0.2228 0.0
C1465 C 0.8447 0.84162 0.22803 0.0
C1466 C 0.89682 0.87085 0.22056 0.0
C1467 C 0.93417 0.82507 0.2166 0.0
H1468 H 1.005 0.89613 0.22999 0.0
C1469 C 0.04585 0.82715 0.22703 0.0
C1470 C 0.07297 0.85357 0.22411 0.0
C1471 C 0.01835 0.82647 0.22592 0.0
C1472 C 0.98554 0.87631 0.226 0.0
H1473 H 0.83113 0.79612 0.23436 0.0
H1474 H 0.87989 0.8005 0.23063 0.0
H1475 H 0.95641 0.89389 0.23046 0.0
H1476 H 0.09224 0.89988 0.21743 0.0
H1477 H 0.04432 0.8986 0.2154 0.0
H1478 H 0.96314 0.80726 0.21234 0.0
C1479 C 0.87714 0.81958 0.22822 0.0
C1480 C 0.95767 0.87505 0.22625 0.0
C1481 C 0.84922 0.81719 0.23053 0.0
C1482 C 0.07184 0.87916 0.21983 0.0
C1483 C 0.04434 0.87849 0.21873 0.0
C1484 C 0.96201 0.82632 0.21634 0.0
C1485 C 0.90142 0.84651 0.22335 0.0
C1486 C 0.93154 0.8492 0.22178 0.0
C1487 C 0.01724 0.8522 0.22185 0.0
C1488 C 0.98798 0.85175 0.22124 0.0
H1489 H 0.86587 0.88756 0.22082 0.0
H1490 H 0.91502 0.89183 0.2167 0.0
H1491 H 0.9146 0.80502 0.21284 0.0
H1492 H 0.04584 0.80704 0.23038 0.0
H1493 H 0.99797 0.80594 0.22858 0.0
C1494 C 0.99783 0.14599 0.77669 0.0
C1495 C 1.00402 0.17579 0.77561 0.0
C1496 C 0.02113 0.13959 0.77791 0.0
C1497 C 0.10408 0.17274 0.77441 0.0
H1498 H 0.08878 0.10517 0.79746 0.0
C1499 C 0.19541 0.14241 0.7896 0.0
C1500 C 0.1874 0.11264 0.7864 0.0
C1501 C 0.17391 0.15158 0.78906 0.0
C1502 C 0.09334 0.12409 0.791 0.0
H1503 H 0.03932 0.22231 0.77472 0.0
H1504 H 0.08034 0.21138 0.77727 0.0
H1505 H 0.05 0.11882 0.79462 0.0
H1506 H 0.1506 0.06892 0.78062 0.0
H1507 H 0.11291 0.08471 0.7801 0.0
H1508 H 0.14785 0.17817 0.77112 0.0
C1509 C 0.05748 0.19278 0.77685 0.0
C1510 C 0.07104 0.13181 0.78925 0.0
C1511 C 0.03405 0.19913 0.77539 0.0
C1512 C 0.15738 0.09201 0.78312 0.0
C1513 C 0.13582 0.101 0.78285 0.0
C1514 C 0.12659 0.16527 0.77635 0.0
C1515 C 0.05128 0.16291 0.77837 0.0
C1516 C 0.07585 0.15588 0.78073 0.0
C1517 C 0.14396 0.13096 0.78561 0.0
C1518 C 0.12121 0.14057 0.78449 0.0
H1519 H 0.97482 0.12762 0.77672 0.0
H1520 H 0.01539 0.11627 0.7786 0.0
H1521 H 0.10858 0.19121 0.76768 0.0
H1522 H 0.21845 0.15883 0.79207 0.0
H1523 H 0.18067 0.17477 0.79129 0.0
C1524 C 0.8962 0.0731 0.79869 0.0
C1525 C 0.87002 0.07534 0.7979 0.0
C1526 C 0.8943 0.04488 0.79899 0.0
C1527 C 0.84011 0.96363 0.80525 0.0
H1528 H 0.8955 0.9505 0.78351 0.0
C1529 C 0.81409 0.84611 0.78778 0.0
C1530 C 0.83725 0.83907 0.78792 0.0
C1531 C 0.82006 0.87519 0.79077 0.0
C1532 C 0.88013 0.9539 0.7898 0.0
H1533 H 0.82132 0.04954 0.79688 0.0
H1534 H 0.81807 1.00075 0.79718 0.0
H1535 H 0.90242 1.00103 0.78534 0.0
H1536 H 0.88482 0.85694 0.79144 0.0
H1537 H 0.8954 0.9081 0.7966 0.0
H1538 H 0.8173 0.91634 0.80934 0.0
C1539 C 0.84009 0.02065 0.79783 0.0
C1540 C 0.8841 0.98289 0.79086 0.0
C1541 C 0.84197 0.04875 0.79754 0.0
C1542 C 0.8665 0.86169 0.79136 0.0
C1543 C 0.87258 0.89098 0.79419 0.0
C1544 C 0.83605 0.93468 0.80411 0.0
C1545 C 0.86618 0.01826 0.79853 0.0
C1546 C 0.86378 0.98804 0.79839 0.0
C1547 C 0.84942 0.89808 0.79385 0.0
C1548 C 0.85567 0.92936 0.79617 0.0
H1549 H 0.91818 0.09312 0.79897 0.0
H1550 H 0.91486 0.04393 0.79966 0.0
H1551 H 0.82444 0.9668 0.81141 0.0
H1552 H 0.7913 0.82911 0.78529 0.0
H1553 H 0.80175 0.87993 0.79029 0.0
C1554 C 0.17388 0.96825 0.79038 0.0
C1555 C 0.1797 0.99799 0.79106 0.0
C1556 C 0.14455 0.94411 0.79191 0.0
C1557 C 0.06657 0.92589 0.80216 0.0
H1558 H 0.04279 0.85485 0.78014 0.0
C1559 C 0.94572 0.84402 0.7838 0.0
C1560 C 0.93419 0.81337 0.78661 0.0
C1561 C 0.97576 0.86489 0.78654 0.0
C1562 C 0.04926 0.87441 0.78648 0.0
H1563 H 0.15946 0.02587 0.79371 0.0
H1564 H 0.10839 0.98422 0.79579 0.0
H1565 H 0.09532 0.89462 0.78054 0.0
H1566 H 0.94484 0.7804 0.79455 0.0
H1567 H 0.99813 0.81707 0.79886 0.0
H1568 H 0.01986 0.90621 0.80727 0.0
C1569 C 0.12634 0.97913 0.79465 0.0
C1570 C 0.07942 0.89723 0.78678 0.0
C1571 C 0.15569 1.00316 0.79339 0.0
C1572 C 0.9532 0.80396 0.79237 0.0
C1573 C 0.98359 0.82482 0.79477 0.0
C1574 C 0.03635 0.90336 0.8016 0.0
C1575 C 0.12021 0.94917 0.79387 0.0
C1576 C 0.0885 0.92359 0.79447 0.0
C1577 C 0.99508 0.85545 0.79184 0.0
C1578 C 0.0274 0.87761 0.79363 0.0
H1579 H 0.19208 0.96371 0.78866 0.0
H1580 H 0.14102 0.9215 0.79151 0.0
H1581 H 0.07258 0.94531 0.80851 0.0
H1582 H 0.9315 0.85186 0.77941 0.0
H1583 H 0.98417 0.88835 0.78413 0.0
C1584 C 0.848 0.54495 0.5538 0.0
C1585 C 0.82006 0.54378 0.55381 0.0
C1586 C 0.84973 0.51891 0.55576 0.0
C1587 C 0.848 0.46555 0.56978 0.0
H1588 H 0.79262 0.38937 0.55292 0.0
C1589 C 0.84461 0.35485 0.5846 0.0
C1590 C 0.84226 0.33572 0.57386 0.0
C1591 C 0.84063 0.37955 0.58226 0.0
C1592 C 0.80834 0.41052 0.55766 0.0
H1593 H 0.77186 0.51402 0.55543 0.0
H1594 H 0.77491 0.46848 0.55887 0.0
H1595 H 0.78851 0.43381 0.54792 0.0
H1596 H 0.83427 0.32805 0.55215 0.0
H1597 H 0.82726 0.37084 0.54813 0.0
H1598 H 0.86819 0.44249 0.57933 0.0
C1599 C 0.79549 0.4896 0.55728 0.0
C1600 C 0.8058 0.43591 0.55489 0.0
C1601 C 0.79375 0.51572 0.55532 0.0
C1602 C 0.83569 0.34186 0.56074 0.0
C1603 C 0.83167 0.36647 0.55841 0.0
C1604 C 0.85047 0.44018 0.57258 0.0
C1605 C 0.82356 0.49101 0.55779 0.0
C1606 C 0.82576 0.46378 0.56084 0.0
C1607 C 0.83419 0.38568 0.56912 0.0
C1608 C 0.83079 0.41239 0.5665 0.0
H1609 H 0.86871 0.56613 0.55258 0.0
H1610 H 0.87165 0.52069 0.55582 0.0
H1611 H 0.86347 0.48658 0.57469 0.0
H1612 H 0.84922 0.35061 0.59485 0.0
H1613 H 0.84235 0.3937 0.59077 0.0
C1614 C 0.68646 0.48426 0.56922 0.0
C1615 C 0.68258 0.50878 0.57233 0.0
C1616 C 0.66163 0.45559 0.56733 0.0
C1617 C 0.57849 0.40992 0.57292 0.0
H1618 H 0.5863 0.35593 0.54784 0.0
C1619 C 0.48076 0.28937 0.55946 0.0
C1620 C 0.48826 0.26737 0.56293 0.0
C1621 C 0.50313 0.31984 0.55903 0.0
C1622 C 0.58377 0.37086 0.55481 0.0
H1623 H 0.64967 0.52261 0.57586 0.0
H1624 H 0.60611 0.47278 0.5721 0.0
H1625 H 0.62764 0.4073 0.55039 0.0
H1626 H 0.52481 0.25954 0.56808 0.0
H1627 H 0.56387 0.31236 0.56673 0.0
H1628 H 0.53419 0.37317 0.57706 0.0
C1629 C 0.62832 0.47536 0.57149 0.0
C1630 C 0.60759 0.40025 0.55642 0.0
C1631 C 0.65327 0.504 0.57363 0.0
C1632 C 0.51849 0.27609 0.56534 0.0
C1633 C 0.54082 0.30627 0.56456 0.0
C1634 C 0.55442 0.38063 0.57109 0.0
C1635 C 0.63212 0.45071 0.56822 0.0
C1636 C 0.60565 0.42006 0.56575 0.0
C1637 C 0.53334 0.32853 0.56169 0.0
C1638 C 0.55709 0.36066 0.56223 0.0
H1639 H 0.70883 0.4873 0.56832 0.0
H1640 H 0.6657 0.43722 0.56525 0.0
H1641 H 0.57608 0.42418 0.58031 0.0
H1642 H 0.45754 0.28318 0.5577 0.0
H1643 H 0.49685 0.33664 0.55678 0.0
C1644 C 0.74262 0.22201 0.55537 0.0
C1645 C 0.74358 0.19569 0.55837 0.0
C1646 C 0.71505 0.22084 0.55329 0.0
C1647 C 0.63467 0.16805 0.54551 0.0
H1648 H 0.62042 0.22587 0.56458 0.0
C1649 C 0.51627 0.14469 0.5591 0.0
C1650 C 0.50986 0.16828 0.55883 0.0
C1651 C 0.54533 0.15014 0.55663 0.0
C1652 C 0.62415 0.20987 0.55897 0.0
H1653 H 0.71634 0.14745 0.5612 0.0
H1654 H 0.66852 0.14547 0.55765 0.0
H1655 H 0.67059 0.23167 0.56471 0.0
H1656 H 0.5288 0.21603 0.55535 0.0
H1657 H 0.57986 0.22568 0.55096 0.0
H1658 H 0.58811 0.14581 0.54006 0.0
C1659 C 0.689 0.16699 0.55679 0.0
C1660 C 0.65293 0.21319 0.55906 0.0
C1661 C 0.71646 0.16817 0.55893 0.0
C1662 C 0.53304 0.19739 0.55557 0.0
C1663 C 0.5623 0.20293 0.55318 0.0
C1664 C 0.60595 0.16475 0.54542 0.0
C1665 C 0.68789 0.19331 0.55406 0.0
C1666 C 0.65834 0.19189 0.55261 0.0
C1667 C 0.56883 0.17939 0.55385 0.0
C1668 C 0.60016 0.18519 0.55243 0.0
H1669 H 0.7631 0.24359 0.55486 0.0
H1670 H 0.71498 0.24149 0.55111 0.0
H1671 H 0.63822 0.1516 0.5402 0.0
H1672 H 0.49883 0.12196 0.56141 0.0
H1673 H 0.54956 0.13153 0.55737 0.0
C1674 C 0.85706 0.46902 0.12403 0.0
C1675 C 0.85495 0.44522 0.11618 0.0
C1676 C 0.83255 0.47373 0.12511 0.0
C1677 C 0.75966 0.45315 0.10802 0.0
H1678 H 0.74834 0.49089 0.13988 0.0
C1679 C 0.65599 0.46811 0.11569 0.0
C1680 C 0.66335 0.49809 0.1178 0.0
C1681 C 0.67818 0.45993 0.11649 0.0
C1682 C 0.75128 0.48031 0.13094 0.0
H1683 H 0.82524 0.40685 0.10381 0.0
H1684 H 0.78201 0.41396 0.10623 0.0
H1685 H 0.78865 0.47876 0.13963 0.0
H1686 H 0.69924 0.54272 0.12294 0.0
H1687 H 0.73798 0.52825 0.1247 0.0
H1688 H 0.72163 0.45407 0.09956 0.0
C1689 C 0.80286 0.42989 0.11112 0.0
C1690 C 0.77453 0.47354 0.13072 0.0
C1691 C 0.82758 0.4256 0.1098 0.0
C1692 C 0.69308 0.51952 0.12118 0.0
C1693 C 0.71513 0.51122 0.12227 0.0
C1694 C 0.73608 0.45935 0.10838 0.0
C1695 C 0.80509 0.45435 0.11858 0.0
C1696 C 0.77932 0.46018 0.11918 0.0
C1697 C 0.70798 0.48146 0.11971 0.0
C1698 C 0.73188 0.47329 0.11976 0.0
H1699 H 0.878 0.48467 0.12897 0.0
H1700 H 0.83552 0.49313 0.13074 0.0
H1701 H 0.76284 0.44352 0.09882 0.0
H1702 H 0.63327 0.45124 0.11298 0.0
H1703 H 0.67212 0.43682 0.1145 0.0
C1704 C 0.52211 0.18393 0.12334 0.0
C1705 C 0.51876 0.17077 0.11043 0.0
C1706 C 0.52479 0.21234 0.12468 0.0
C1707 C 0.54735 0.28177 0.10535 0.0
H1708 H 0.50154 0.2979 0.13202 0.0
C1709 C 0.53925 0.38815 0.1016 0.0
C1710 C 0.54203 0.4045 0.11349 0.0
C1711 C 0.53533 0.35931 0.10231 0.0
C1712 C 0.51478 0.29386 0.12465 0.0
H1713 H 0.51579 0.17729 0.08884 0.0
H1714 H 0.52046 0.22672 0.09114 0.0
H1715 H 0.49743 0.24823 0.13124 0.0
H1716 H 0.5416 0.40294 0.1355 0.0
H1717 H 0.53508 0.35215 0.13678 0.0
H1718 H 0.56488 0.32711 0.09875 0.0
C1719 C 0.52108 0.21512 0.10024 0.0
C1720 C 0.51239 0.26542 0.12418 0.0
C1721 C 0.51813 0.18667 0.09892 0.0
C1722 C 0.53946 0.39079 0.12618 0.0
C1723 C 0.53575 0.36176 0.12689 0.0
C1724 C 0.54985 0.31009 0.10586 0.0
C1725 C 0.52452 0.22835 0.11312 0.0
C1726 C 0.52826 0.25893 0.11435 0.0
C1727 C 0.53441 0.34602 0.11492 0.0
C1728 C 0.53314 0.31636 0.1153 0.0
H1729 H 0.52232 0.17212 0.13243 0.0
H1730 H 0.52754 0.22199 0.13474 0.0
H1731 H 0.56041 0.27773 0.09786 0.0
H1732 H 0.54061 0.39786 0.09166 0.0
H1733 H 0.53343 0.34756 0.09288 0.0
C1734 C 0.65087 0.12984 0.12391 0.0
C1735 C 0.62482 0.1323 0.1244 0.0
C1736 C 0.67923 0.15543 0.12299 0.0
C1737 C 0.73305 0.21025 0.11133 0.0
H1738 H 0.75624 0.2827 0.13214 0.0
C1739 C 0.84331 0.32185 0.10104 0.0
C1740 C 0.8594 0.33884 0.11242 0.0
C1741 C 0.81467 0.29667 0.10257 0.0
C1742 C 0.75016 0.26256 0.12631 0.0
H1743 H 0.60823 0.16374 0.1248 0.0
H1744 H 0.65804 0.20867 0.12315 0.0
H1745 H 0.70621 0.23899 0.13521 0.0
H1746 H 0.85843 0.34182 0.1344 0.0
H1747 H 0.80864 0.29795 0.13707 0.0
H1748 H 0.77706 0.23353 0.10259 0.0
C1749 C 0.6564 0.18681 0.12354 0.0
C1750 C 0.72138 0.23764 0.12797 0.0
C1751 C 0.62787 0.16109 0.12447 0.0
C1752 C 0.84646 0.32959 0.12539 0.0
C1753 C 0.81786 0.30447 0.12692 0.0
C1754 C 0.76174 0.23515 0.10965 0.0
C1755 C 0.68235 0.1842 0.12252 0.0
C1756 C 0.71258 0.21111 0.12058 0.0
C1757 C 0.80147 0.28788 0.11553 0.0
C1758 C 0.77072 0.26156 0.11717 0.0
H1759 H 0.64939 0.10804 0.12399 0.0
H1760 H 0.69878 0.15263 0.12255 0.0
H1761 H 0.72685 0.19032 0.10532 0.0
H1762 H 0.85239 0.32854 0.09089 0.0
H1763 H 0.80253 0.28454 0.09356 0.0
C1764 C 0.52558 0.88242 0.88906 0.0
C1765 C 0.49775 0.88136 0.88802 0.0
C1766 C 0.52704 0.85598 0.88963 0.0
C1767 C 0.48061 0.77476 0.89763 0.0
H1768 H 0.54678 0.77062 0.88084 0.0
C1769 C 0.48521 0.66459 0.89452 0.0
C1770 C 0.51286 0.66641 0.89752 0.0
C1771 C 0.4832 0.69064 0.89316 0.0
C1772 C 0.52832 0.77153 0.88568 0.0
H1773 H 0.4496 0.8515 0.88642 0.0
H1774 H 0.45216 0.8053 0.88709 0.0
H1775 H 0.54307 0.8159 0.87822 0.0
H1776 H 0.56008 0.69703 0.90141 0.0
H1777 H 0.5566 0.74267 0.89903 0.0
H1778 H 0.46575 0.7302 0.90497 0.0
C1779 C 0.47288 0.82663 0.88776 0.0
C1780 C 0.52617 0.79751 0.8842 0.0
C1781 C 0.47141 0.85315 0.88726 0.0
C1782 C 0.53846 0.69491 0.89916 0.0
C1783 C 0.5365 0.72102 0.89768 0.0
C1784 C 0.48265 0.7487 0.89903 0.0
C1785 C 0.50072 0.8277 0.88908 0.0
C1786 C 0.50238 0.79956 0.89022 0.0
C1787 C 0.50882 0.71917 0.89468 0.0
C1788 C 0.5066 0.74684 0.89313 0.0
H1789 H 0.54634 0.90373 0.88973 0.0
H1790 H 0.54884 0.85778 0.89086 0.0
H1791 H 0.46228 0.77565 0.90262 0.0
H1792 H 0.46499 0.64298 0.89337 0.0
H1793 H 0.46159 0.68843 0.89075 0.0
C1794 C 0.34999 0.83469 0.92387 0.0
C1795 C 0.36234 0.84957 0.91152 0.0
C1796 C 0.32479 0.80577 0.92392 0.0
C1797 C 0.26024 0.75325 0.90292 0.0
H1798 H 0.25988 0.69167 0.92591 0.0
C1799 C 0.16946 0.62835 0.89755 0.0
C1800 C 0.15843 0.61139 0.90954 0.0
C1801 C 0.1944 0.65736 0.89795 0.0
C1802 C 0.25941 0.70867 0.91956 0.0
H1803 H 0.35737 0.84611 0.88958 0.0
H1804 H 0.3136 0.79577 0.88968 0.0
H1805 H 0.30265 0.74273 0.92661 0.0
H1806 H 0.16502 0.61162 0.93135 0.0
H1807 H 0.20807 0.66232 0.93208 0.0
H1808 H 0.21696 0.71942 0.89594 0.0
C1809 C 0.32337 0.80639 0.89932 0.0
C1810 C 0.28395 0.73793 0.91996 0.0
C1811 C 0.34866 0.83512 0.89926 0.0
C1812 C 0.17302 0.62401 0.92191 0.0
C1813 C 0.19784 0.65307 0.92232 0.0
C1814 C 0.23563 0.72407 0.90258 0.0
C1815 C 0.31123 0.79132 0.91164 0.0
C1816 C 0.28471 0.7605 0.91159 0.0
C1817 C 0.2088 0.67018 0.91036 0.0
C1818 C 0.23495 0.70134 0.91083 0.0
H1819 H 0.36015 0.84518 0.93346 0.0
H1820 H 0.31578 0.7948 0.93358 0.0
H1821 H 0.25999 0.77026 0.89649 0.0
H1822 H 0.15883 0.61926 0.88784 0.0
H1823 H 0.20252 0.66966 0.8885 0.0
C1824 C 0.39331 0.56847 0.908 0.0
C1825 C 0.40197 0.55163 0.89988 0.0
C1826 C 0.36312 0.56068 0.90894 0.0
C1827 C 0.28786 0.51385 0.8927 0.0
H1828 H 0.26017 0.5275 0.92723 0.0
C1829 C 0.16241 0.4755 0.90456 0.0
C1830 C 0.15826 0.49917 0.90901 0.0
C1831 C 0.19141 0.47933 0.90381 0.0
C1832 C 0.2676 0.52352 0.91754 0.0
H1833 H 0.38585 0.51352 0.88624 0.0
H1834 H 0.33298 0.49922 0.8882 0.0
H1835 H 0.31214 0.53928 0.92489 0.0
H1836 H 0.18067 0.5448 0.91662 0.0
H1837 H 0.23113 0.55122 0.91572 0.0
H1838 H 0.24281 0.49752 0.88555 0.0
C1839 C 0.34952 0.51895 0.89361 0.0
C1840 C 0.29749 0.53053 0.91612 0.0
C1841 C 0.37986 0.52709 0.8925 0.0
C1842 C 0.18337 0.52627 0.91314 0.0
C1843 C 0.21216 0.52988 0.91266 0.0
C1844 C 0.25778 0.50638 0.89421 0.0
C1845 C 0.34066 0.53546 0.90197 0.0
C1846 C 0.30826 0.52637 0.90361 0.0
C1847 C 0.21655 0.50664 0.90781 0.0
C1848 C 0.24752 0.51162 0.90658 0.0
H1849 H 0.4099 0.58771 0.91369 0.0
H1850 H 0.35746 0.57454 0.91516 0.0
H1851 H 0.29525 0.5106 0.88287 0.0
H1852 H 0.14338 0.45451 0.90122 0.0
H1853 H 0.19423 0.46105 0.90007 0.0
C1854 C 0.54304 0.83168 0.45572 0.0
C1855 C 0.53885 0.80594 0.44879 0.0
C1856 C 0.52079 0.83996 0.45529 0.0
C1857 C 0.45336 0.82558 0.43497 0.0
H1858 H 0.43483 0.86013 0.46596 0.0
C1859 C 0.34184 0.82522 0.44061 0.0
C1860 C 0.34331 0.85248 0.444 0.0
C1861 C 0.36763 0.82262 0.44091 0.0
C1862 C 0.44005 0.85081 0.45719 0.0
H1863 H 0.50754 0.76781 0.43665 0.0
H1864 H 0.46863 0.78139 0.43635 0.0
H1865 H 0.47601 0.84915 0.4675 0.0
H1866 H 0.37278 0.89835 0.4505 0.0
H1867 H 0.41815 0.89361 0.45132 0.0
H1868 H 0.4166 0.82606 0.4249 0.0
C1869 C 0.4894 0.79606 0.44163 0.0
C1870 C 0.46367 0.84457 0.45804 0.0
C1871 C 0.51168 0.7881 0.44189 0.0
C1872 C 0.37116 0.87719 0.44772 0.0
C1873 C 0.39697 0.87441 0.44829 0.0
C1874 C 0.42959 0.83139 0.43421 0.0
C1875 C 0.49382 0.82243 0.44806 0.0
C1876 C 0.47027 0.83133 0.44701 0.0
C1877 C 0.3954 0.84709 0.44484 0.0
C1878 C 0.4224 0.84363 0.44536 0.0
H1879 H 0.56383 0.84588 0.4611 0.0
H1880 H 0.52507 0.86048 0.46033 0.0
H1881 H 0.45829 0.81629 0.42611 0.0
H1882 H 0.32066 0.8059 0.43766 0.0
H1883 H 0.36576 0.80125 0.43828 0.0
C1884 C 0.16932 0.50585 0.42986 0.0
C1885 C 0.16643 0.49036 0.44207 0.0
C1886 C 0.1757 0.53574 0.43005 0.0
C1887 C 0.17326 0.59327 0.45171 0.0
H1888 H 0.23611 0.64971 0.42773 0.0
C1889 C 0.22042 0.72151 0.45601 0.0
C1890 C 0.2272 0.73808 0.44385 0.0
C1891 C 0.21329 0.69139 0.45588 0.0
C1892 C 0.21823 0.63424 0.43438 0.0
H1893 H 0.1668 0.49373 0.46404 0.0
H1894 H 0.17781 0.54585 0.46439 0.0
H1895 H 0.2216 0.59671 0.42711 0.0
H1896 H 0.23193 0.73592 0.42203 0.0
H1897 H 0.21899 0.68343 0.42176 0.0
H1898 H 0.16957 0.63065 0.45889 0.0
C1899 C 0.17521 0.53492 0.45467 0.0
C1900 C 0.20992 0.60382 0.43402 0.0
C1901 C 0.16911 0.50514 0.45447 0.0
C1902 C 0.22702 0.72392 0.4316 0.0
C1903 C 0.21971 0.69377 0.43146 0.0
C1904 C 0.1814 0.62367 0.45201 0.0
C1905 C 0.17905 0.55073 0.44246 0.0
C1906 C 0.18737 0.58297 0.44269 0.0
C1907 C 0.21257 0.67701 0.44358 0.0
C1908 C 0.20404 0.64461 0.44336 0.0
H1909 H 0.1677 0.49524 0.42015 0.0
H1910 H 0.17821 0.5472 0.42048 0.0
H1911 H 0.15558 0.57772 0.45842 0.0
H1912 H 0.22047 0.73175 0.46565 0.0
H1913 H 0.20845 0.67941 0.46546 0.0
C1914 C 0.49136 0.69118 0.45209 0.0
C1915 C 0.51426 0.6855 0.45615 0.0
C1916 C 0.46138 0.668 0.45199 0.0
C1917 C 0.41615 0.58428 0.45184 0.0
H1918 H 0.34947 0.59844 0.45746 0.0
C1919 C 0.29319 0.4887 0.45696 0.0
C1920 C 0.27279 0.49044 0.44798 0.0
C1921 C 0.32222 0.5131 0.45851 0.0
C1922 C 0.36794 0.59428 0.45583 0.0
H1923 H 0.52389 0.65192 0.4641 0.0
H1924 H 0.47159 0.61178 0.46464 0.0
H1925 H 0.40098 0.63999 0.45997 0.0
H1926 H 0.26643 0.51931 0.43389 0.0
H1927 H 0.3172 0.56237 0.43688 0.0
H1928 H 0.38291 0.53836 0.44811 0.0
C1929 C 0.47663 0.63366 0.46092 0.0
C1930 C 0.39747 0.61806 0.45719 0.0
C1931 C 0.5066 0.65667 0.46073 0.0
C1932 C 0.28177 0.5173 0.44081 0.0
C1933 C 0.31067 0.54195 0.44257 0.0
C1934 C 0.38669 0.56048 0.45074 0.0
C1935 C 0.45363 0.63876 0.4562 0.0
C1936 C 0.42202 0.61342 0.45517 0.0
C1937 C 0.33123 0.53991 0.45132 0.0
C1938 C 0.36234 0.56528 0.45266 0.0
H1939 H 0.49684 0.71322 0.4484 0.0
H1940 H 0.44449 0.67284 0.44813 0.0
H1941 H 0.43428 0.57982 0.44983 0.0
H1942 H 0.28694 0.46827 0.4626 0.0
H1943 H 0.33765 0.51106 0.46535 0.0
loop_
_geom_bond_atom_site_label_1
_geom_bond_atom_site_label_2
_geom_bond_distance
_geom_bond_site_symmetry_2
_ccdc_geom_bond_type
Co0 N4 2.148 . S
Co0 N10 2.128 . S
Co0 N20 2.194 . S
Co0 O25 2.351 . S
Co0 O26 2.155 . S
Co0 O27 2.096 . S
C1 N4 1.301 . S
C1 N5 1.328 . S
C1 H6 0.930 . S
C2 C3 1.333 . S
C2 N4 1.317 . S
C2 H7 0.930 . S
C3 C2 1.333 . S
C3 N5 1.350 . S
C3 H29 0.931 . S
N4 Co0 2.148 . S
N4 C1 1.301 . S
N4 C2 1.317 . S
N5 C1 1.328 . S
N5 C3 1.350 . S
H6 C1 0.930 . S
H7 C2 0.930 . S
C8 O9 1.224 . S
C8 O27 1.247 . S
O9 C8 1.224 . S
N10 Co0 2.128 . S
N10 C11 1.355 . S
N10 C13 1.311 . S
C11 N10 1.355 . S
C11 C12 1.363 . S
C11 H23 0.929 . S
C12 C11 1.363 . S
C12 N14 1.375 . S
C12 H30 0.931 . S
C13 N10 1.311 . S
C13 N14 1.347 . S
C13 H24 0.929 . S
N14 C12 1.375 . S
N14 C13 1.347 . S
C15 C18 1.365 . S
C15 N20 1.328 . S
C15 H21 0.929 . S
C16 C17 1.362 . S
C16 C19 1.378 . S
C16 H31 0.929 . S
C17 C16 1.362 . S
C17 C18 1.366 . S
C18 C15 1.365 . S
C18 C17 1.366 . S
C18 H32 0.930 . S
C19 C16 1.378 . S
C19 N20 1.315 . S
C19 H22 0.930 . S
N20 Co0 2.194 . S
N20 C15 1.328 . S
N20 C19 1.315 . S
H21 C15 0.929 . S
H22 C19 0.930 . S
H23 C11 0.929 . S
H24 C13 0.929 . S
O25 Co0 2.351 . S
O25 C28 1.244 . S
O26 Co0 2.155 . S
O26 C28 1.240 . S
O27 Co0 2.096 . S
O27 C8 1.247 . S
C28 O25 1.244 . S
C28 O26 1.240 . S
H29 C3 0.931 . S
H30 C12 0.931 . S
H31 C16 0.929 . S
H32 C18 0.930 . S
Co33 N37 2.148 . S
Co33 N43 2.128 . S
Co33 N53 2.194 . S
Co33 O58 2.351 . S
Co33 O59 2.155 . S
Co33 O60 2.096 . S
C34 N37 1.301 . S
C34 N38 1.328 . S
C34 H39 0.930 . S
C35 C36 1.333 . S
C35 N37 1.317 . S
C35 H40 0.930 . S
C36 C35 1.333 . S
C36 N38 1.350 . S
C36 H62 0.931 . S
N37 Co33 2.148 . S
N37 C34 1.301 . S
N37 C35 1.317 . S
N38 C34 1.328 . S
N38 C36 1.350 . S
H39 C34 0.930 . S
H40 C35 0.930 . S
C41 O42 1.224 . S
C41 O60 1.247 . S
O42 C41 1.224 . S
N43 Co33 2.128 . S
N43 C44 1.355 . S
N43 C46 1.311 . S
C44 N43 1.355 . S
C44 C45 1.363 . S
C44 H56 0.929 . S
C45 C44 1.363 . S
C45 N47 1.375 . S
C45 H63 0.931 . S
C46 N43 1.311 . S
C46 N47 1.347 . S
C46 H57 0.929 . S
N47 C45 1.375 . S
N47 C46 1.347 . S
C48 C51 1.365 . S
C48 N53 1.328 . S
C48 H54 0.929 . S
C49 C50 1.362 . S
C49 C52 1.378 . S
C49 H64 0.929 . S
C50 C49 1.362 . S
C50 C51 1.366 . S
C51 C48 1.365 . S
C51 C50 1.366 . S
C51 H65 0.930 . S
C52 C49 1.378 . S
C52 N53 1.315 . S
C52 H55 0.930 . S
N53 Co33 2.194 . S
N53 C48 1.328 . S
N53 C52 1.315 . S
H54 C48 0.929 . S
H55 C52 0.930 . S
H56 C44 0.929 . S
H57 C46 0.929 . S
O58 Co33 2.351 . S
O58 C61 1.244 . S
O59 Co33 2.155 . S
O59 C61 1.240 . S
O60 Co33 2.096 . S
O60 C41 1.247 . S
C61 O58 1.244 . S
C61 O59 1.240 . S
H62 C36 0.931 . S
H63 C45 0.931 . S
H64 C49 0.929 . S
H65 C51 0.930 . S
Co66 N70 2.148 . S
Co66 N76 2.128 . S
Co66 N86 2.194 . S
Co66 O91 2.351 . S
Co66 O92 2.155 . S
Co66 O93 2.096 . S
C67 N70 1.301 . S
C67 N71 1.328 . S
C67 H72 0.930 . S
C68 C69 1.333 . S
C68 N70 1.317 . S
C68 H73 0.930 . S
C69 C68 1.333 . S
C69 N71 1.350 . S
C69 H95 0.931 . S
N70 Co66 2.148 . S
N70 C67 1.301 . S
N70 C68 1.317 . S
N71 C67 1.328 . S
N71 C69 1.350 . S
H72 C67 0.930 . S
H73 C68 0.930 . S
C74 O75 1.224 . S
C74 O93 1.247 . S
O75 C74 1.224 . S
N76 Co66 2.128 . S
N76 C77 1.355 . S
N76 C79 1.311 . S
C77 N76 1.355 . S
C77 C78 1.363 . S
C77 H89 0.929 . S
C78 C77 1.363 . S
C78 N80 1.375 . S
C78 H96 0.931 . S
C79 N76 1.311 . S
C79 N80 1.347 . S
C79 H90 0.929 . S
N80 C78 1.375 . S
N80 C79 1.347 . S
C81 C84 1.365 . S
C81 N86 1.328 . S
C81 H87 0.929 . S
C82 C83 1.362 . S
C82 C85 1.378 . S
C82 H97 0.929 . S
C83 C82 1.362 . S
C83 C84 1.366 . S
C84 C81 1.365 . S
C84 C83 1.366 . S
C84 H98 0.930 . S
C85 C82 1.378 . S
C85 N86 1.315 . S
C85 H88 0.930 . S
N86 Co66 2.194 . S
N86 C81 1.328 . S
N86 C85 1.315 . S
H87 C81 0.929 . S
H88 C85 0.930 . S
H89 C77 0.929 . S
H90 C79 0.929 . S
O91 Co66 2.351 . S
O91 C94 1.244 . S
O92 Co66 2.155 . S
O92 C94 1.240 . S
O93 Co66 2.096 . S
O93 C74 1.247 . S
C94 O91 1.244 . S
C94 O92 1.240 . S
H95 C69 0.931 . S
H96 C78 0.931 . S
H97 C82 0.929 . S
H98 C84 0.930 . S
Co99 N103 2.148 . S
Co99 N109 2.128 . S
Co99 N119 2.194 . S
Co99 O124 2.351 . S
Co99 O125 2.155 . S
Co99 O126 2.096 . S
C100 N103 1.301 . S
C100 N104 1.328 . S
C100 H105 0.930 . S
C101 C102 1.333 . S
C101 N103 1.317 . S
C101 H106 0.930 . S
C102 C101 1.333 . S
C102 N104 1.350 . S
C102 H128 0.931 . S
N103 Co99 2.148 . S
N103 C100 1.301 . S
N103 C101 1.317 . S
N104 C100 1.328 . S
N104 C102 1.350 . S
H105 C100 0.930 . S
H106 C101 0.930 . S
C107 O108 1.224 . S
C107 O126 1.247 . S
O108 C107 1.224 . S
N109 Co99 2.128 . S
N109 C110 1.355 . S
N109 C112 1.311 . S
C110 N109 1.355 . S
C110 C111 1.363 . S
C110 H122 0.929 . S
C111 C110 1.363 . S
C111 N113 1.375 . S
C111 H129 0.931 . S
C112 N109 1.311 . S
C112 N113 1.347 . S
C112 H123 0.929 . S
N113 C111 1.375 . S
N113 C112 1.347 . S
C114 C117 1.365 . S
C114 N119 1.328 . S
C114 H120 0.929 . S
C115 C116 1.362 . S
C115 C118 1.378 . S
C115 H130 0.929 . S
C116 C115 1.362 . S
C116 C117 1.366 . S
C117 C114 1.365 . S
C117 C116 1.366 . S
C117 H131 0.930 . S
C118 C115 1.378 . S
C118 N119 1.315 . S
C118 H121 0.930 . S
N119 Co99 2.194 . S
N119 C114 1.328 . S
N119 C118 1.315 . S
H120 C114 0.929 . S
H121 C118 0.930 . S
H122 C110 0.929 . S
H123 C112 0.929 . S
O124 Co99 2.351 . S
O124 C127 1.244 . S
O125 Co99 2.155 . S
O125 C127 1.240 . S
O126 Co99 2.096 . S
O126 C107 1.247 . S
C127 O124 1.244 . S
C127 O125 1.240 . S
H128 C102 0.931 . S
H129 C111 0.931 . S
H130 C115 0.929 . S
H131 C117 0.930 . S
Co132 N136 2.148 . S
Co132 N142 2.128 . S
Co132 N152 2.194 . S
Co132 O157 2.351 . S
Co132 O158 2.155 . S
Co132 O159 2.096 . S
C133 N136 1.301 . S
C133 N137 1.328 . S
C133 H138 0.930 . S
C134 C135 1.333 . S
C134 N136 1.317 . S
C134 H139 0.930 . S
C135 C134 1.333 . S
C135 N137 1.350 . S
C135 H161 0.931 . S
N136 Co132 2.148 . S
N136 C133 1.301 . S
N136 C134 1.317 . S
N137 C133 1.328 . S
N137 C135 1.350 . S
H138 C133 0.930 . S
H139 C134 0.930 . S
C140 O141 1.224 . S
C140 O159 1.247 . S
O141 C140 1.224 . S
N142 Co132 2.128 . S
N142 C143 1.355 . S
N142 C145 1.311 . S
C143 N142 1.355 . S
C143 C144 1.363 . S
C143 H155 0.929 . S
C144 C143 1.363 . S
C144 N146 1.375 . S
C144 H162 0.931 . S
C145 N142 1.311 . S
C145 N146 1.347 . S
C145 H156 0.929 . S
N146 C144 1.375 . S
N146 C145 1.347 . S
C147 C150 1.365 . S
C147 N152 1.328 . S
C147 H153 0.929 . S
C148 C149 1.362 . S
C148 C151 1.378 . S
C148 H163 0.929 . S
C149 C148 1.362 . S
C149 C150 1.366 . S
C150 C147 1.365 . S
C150 C149 1.366 . S
C150 H164 0.930 . S
C151 C148 1.378 . S
C151 N152 1.315 . S
C151 H154 0.930 . S
N152 Co132 2.194 . S
N152 C147 1.328 . S
N152 C151 1.315 . S
H153 C147 0.929 . S
H154 C151 0.930 . S
H155 C143 0.929 . S
H156 C145 0.929 . S
O157 Co132 2.351 . S
O157 C160 1.244 . S
O158 Co132 2.155 . S
O158 C160 1.240 . S
O159 Co132 2.096 . S
O159 C140 1.247 . S
C160 O157 1.244 . S
C160 O158 1.240 . S
H161 C135 0.931 . S
H162 C144 0.931 . S
H163 C148 0.929 . S
H164 C150 0.930 . S
Co165 N169 2.148 . S
Co165 N175 2.128 . S
Co165 N185 2.194 . S
Co165 O190 2.351 . S
Co165 O191 2.155 . S
Co165 O192 2.096 . S
C166 N169 1.301 . S
C166 N170 1.328 . S
C166 H171 0.930 . S
C167 C168 1.333 . S
C167 N169 1.317 . S
C167 H172 0.930 . S
C168 C167 1.333 . S
C168 N170 1.350 . S
C168 H194 0.931 . S
N169 Co165 2.148 . S
N169 C166 1.301 . S
N169 C167 1.317 . S
N170 C166 1.328 . S
N170 C168 1.350 . S
H171 C166 0.930 . S
H172 C167 0.930 . S
C173 O174 1.224 . S
C173 O192 1.247 . S
O174 C173 1.224 . S
N175 Co165 2.128 . S
N175 C176 1.355 . S
N175 C178 1.311 . S
C176 N175 1.355 . S
C176 C177 1.363 . S
C176 H188 0.929 . S
C177 C176 1.363 . S
C177 N179 1.375 . S
C177 H195 0.931 . S
C178 N175 1.311 . S
C178 N179 1.347 . S
C178 H189 0.929 . S
N179 C177 1.375 . S
N179 C178 1.347 . S
C180 C183 1.365 . S
C180 N185 1.328 . S
C180 H186 0.929 . S
C181 C182 1.362 . S
C181 C184 1.378 . S
C181 H196 0.929 . S
C182 C181 1.362 . S
C182 C183 1.366 . S
C183 C180 1.365 . S
C183 C182 1.366 . S
C183 H197 0.930 . S
C184 C181 1.378 . S
C184 N185 1.315 . S
C184 H187 0.930 . S
N185 Co165 2.194 . S
N185 C180 1.328 . S
N185 C184 1.315 . S
H186 C180 0.929 . S
H187 C184 0.930 . S
H188 C176 0.929 . S
H189 C178 0.929 . S
O190 Co165 2.351 . S
O190 C193 1.244 . S
O191 Co165 2.155 . S
O191 C193 1.240 . S
O192 Co165 2.096 . S
O192 C173 1.247 . S
C193 O190 1.244 . S
C193 O191 1.240 . S
H194 C168 0.931 . S
H195 C177 0.931 . S
H196 C181 0.929 . S
H197 C183 0.930 . S
Co198 N202 2.148 . S
Co198 N208 2.128 . S
Co198 N218 2.194 . S
Co198 O223 2.351 . S
Co198 O224 2.155 . S
Co198 O225 2.096 . S
C199 N202 1.301 . S
C199 N203 1.328 . S
C199 H204 0.930 . S
C200 C201 1.333 . S
C200 N202 1.317 . S
C200 H205 0.930 . S
C201 C200 1.333 . S
C201 N203 1.350 . S
C201 H227 0.931 . S
N202 Co198 2.148 . S
N202 C199 1.301 . S
N202 C200 1.317 . S
N203 C199 1.328 . S
N203 C201 1.350 . S
H204 C199 0.930 . S
H205 C200 0.930 . S
C206 O207 1.224 . S
C206 O225 1.247 . S
O207 C206 1.224 . S
N208 Co198 2.128 . S
N208 C209 1.355 . S
N208 C211 1.311 . S
C209 N208 1.355 . S
C209 C210 1.363 . S
C209 H221 0.929 . S
C210 C209 1.363 . S
C210 N212 1.375 . S
C210 H228 0.931 . S
C211 N208 1.311 . S
C211 N212 1.347 . S
C211 H222 0.929 . S
N212 C210 1.375 . S
N212 C211 1.347 . S
C213 C216 1.365 . S
C213 N218 1.328 . S
C213 H219 0.929 . S
C214 C215 1.362 . S
C214 C217 1.378 . S
C214 H229 0.929 . S
C215 C214 1.362 . S
C215 C216 1.366 . S
C216 C213 1.365 . S
C216 C215 1.366 . S
C216 H230 0.930 . S
C217 C214 1.378 . S
C217 N218 1.315 . S
C217 H220 0.930 . S
N218 Co198 2.194 . S
N218 C213 1.328 . S
N218 C217 1.315 . S
H219 C213 0.929 . S
H220 C217 0.930 . S
H221 C209 0.929 . S
H222 C211 0.929 . S
O223 Co198 2.351 . S
O223 C226 1.244 . S
O224 Co198 2.155 . S
O224 C226 1.240 . S
O225 Co198 2.096 . S
O225 C206 1.247 . S
C226 O223 1.244 . S
C226 O224 1.240 . S
H227 C201 0.931 . S
H228 C210 0.931 . S
H229 C214 0.929 . S
H230 C216 0.930 . S
Co231 N235 2.148 . S
Co231 N241 2.128 . S
Co231 N251 2.194 . S
Co231 O256 2.351 . S
Co231 O257 2.155 . S
Co231 O258 2.096 . S
C232 N235 1.301 . S
C232 N236 1.328 . S
C232 H237 0.930 . S
C233 C234 1.333 . S
C233 N235 1.317 . S
C233 H238 0.930 . S
C234 C233 1.333 . S
C234 N236 1.350 . S
C234 H260 0.931 . S
N235 Co231 2.148 . S
N235 C232 1.301 . S
N235 C233 1.317 . S
N236 C232 1.328 . S
N236 C234 1.350 . S
H237 C232 0.930 . S
H238 C233 0.930 . S
C239 O240 1.224 . S
C239 O258 1.247 . S
O240 C239 1.224 . S
N241 Co231 2.128 . S
N241 C242 1.355 . S
N241 C244 1.311 . S
C242 N241 1.355 . S
C242 C243 1.363 . S
C242 H254 0.929 . S
C243 C242 1.363 . S
C243 N245 1.375 . S
C243 H261 0.931 . S
C244 N241 1.311 . S
C244 N245 1.347 . S
C244 H255 0.929 . S
N245 C243 1.375 . S
N245 C244 1.347 . S
C246 C249 1.365 . S
C246 N251 1.328 . S
C246 H252 0.929 . S
C247 C248 1.362 . S
C247 C250 1.378 . S
C247 H262 0.929 . S
C248 C247 1.362 . S
C248 C249 1.366 . S
C249 C246 1.365 . S
C249 C248 1.366 . S
C249 H263 0.930 . S
C250 C247 1.378 . S
C250 N251 1.315 . S
C250 H253 0.930 . S
N251 Co231 2.194 . S
N251 C246 1.328 . S
N251 C250 1.315 . S
H252 C246 0.929 . S
H253 C250 0.930 . S
H254 C242 0.929 . S
H255 C244 0.929 . S
O256 Co231 2.351 . S
O256 C259 1.244 . S
O257 Co231 2.155 . S
O257 C259 1.240 . S
O258 Co231 2.096 . S
O258 C239 1.247 . S
C259 O256 1.244 . S
C259 O257 1.240 . S
H260 C234 0.931 . S
H261 C243 0.931 . S
H262 C247 0.929 . S
H263 C249 0.930 . S
Co264 N268 2.148 . S
Co264 N274 2.128 . S
Co264 N284 2.194 . S
Co264 O289 2.351 . S
Co264 O290 2.155 . S
Co264 O291 2.096 . S
C265 N268 1.301 . S
C265 N269 1.328 . S
C265 H270 0.930 . S
C266 C267 1.333 . S
C266 N268 1.317 . S
C266 H271 0.930 . S
C267 C266 1.333 . S
C267 N269 1.350 . S
C267 H293 0.931 . S
N268 Co264 2.148 . S
N268 C265 1.301 . S
N268 C266 1.317 . S
N269 C265 1.328 . S
N269 C267 1.350 . S
H270 C265 0.930 . S
H271 C266 0.930 . S
C272 O273 1.224 . S
C272 O291 1.247 . S
O273 C272 1.224 . S
N274 Co264 2.128 . S
N274 C275 1.355 . S
N274 C277 1.311 . S
C275 N274 1.355 . S
C275 C276 1.363 . S
C275 H287 0.929 . S
C276 C275 1.363 . S
C276 N278 1.375 . S
C276 H294 0.931 . S
C277 N274 1.311 . S
C277 N278 1.347 . S
C277 H288 0.929 . S
N278 C276 1.375 . S
N278 C277 1.347 . S
C279 C282 1.365 . S
C279 N284 1.328 . S
C279 H285 0.929 . S
C280 C281 1.362 . S
C280 C283 1.378 . S
C280 H295 0.929 . S
C281 C280 1.362 . S
C281 C282 1.366 . S
C282 C279 1.365 . S
C282 C281 1.366 . S
C282 H296 0.930 . S
C283 C280 1.378 . S
C283 N284 1.315 . S
C283 H286 0.930 . S
N284 Co264 2.194 . S
N284 C279 1.328 . S
N284 C283 1.315 . S
H285 C279 0.929 . S
H286 C283 0.930 . S
H287 C275 0.929 . S
H288 C277 0.929 . S
O289 Co264 2.351 . S
O289 C292 1.244 . S
O290 Co264 2.155 . S
O290 C292 1.240 . S
O291 Co264 2.096 . S
O291 C272 1.247 . S
C292 O289 1.244 . S
C292 O290 1.240 . S
H293 C267 0.931 . S
H294 C276 0.931 . S
H295 C280 0.929 . S
H296 C282 0.930 . S
Co297 N301 2.148 . S
Co297 N307 2.128 . S
Co297 N317 2.194 . S
Co297 O322 2.351 . S
Co297 O323 2.155 . S
Co297 O324 2.096 . S
C298 N301 1.301 . S
C298 N302 1.328 . S
C298 H303 0.930 . S
C299 C300 1.333 . S
C299 N301 1.317 . S
C299 H304 0.930 . S
C300 C299 1.333 . S
C300 N302 1.350 . S
C300 H326 0.931 . S
N301 Co297 2.148 . S
N301 C298 1.301 . S
N301 C299 1.317 . S
N302 C298 1.328 . S
N302 C300 1.350 . S
H303 C298 0.930 . S
H304 C299 0.930 . S
C305 O306 1.224 . S
C305 O324 1.247 . S
O306 C305 1.224 . S
N307 Co297 2.128 . S
N307 C308 1.355 . S
N307 C310 1.311 . S
C308 N307 1.355 . S
C308 C309 1.363 . S
C308 H320 0.929 . S
C309 C308 1.363 . S
C309 N311 1.375 . S
C309 H327 0.931 . S
C310 N307 1.311 . S
C310 N311 1.347 . S
C310 H321 0.929 . S
N311 C309 1.375 . S
N311 C310 1.347 . S
C312 C315 1.365 . S
C312 N317 1.328 . S
C312 H318 0.929 . S
C313 C314 1.362 . S
C313 C316 1.378 . S
C313 H328 0.929 . S
C314 C313 1.362 . S
C314 C315 1.366 . S
C315 C312 1.365 . S
C315 C314 1.366 . S
C315 H329 0.948 . S
C316 C313 1.378 . S
C316 N317 1.315 . S
C316 H319 0.930 . S
N317 Co297 2.194 . S
N317 C312 1.328 . S
N317 C316 1.315 . S
H318 C312 0.929 . S
H319 C316 0.930 . S
H320 C308 0.929 . S
H321 C310 0.929 . S
O322 Co297 2.351 . S
O322 C325 1.244 . S
O323 Co297 2.155 . S
O323 C325 1.240 . S
O324 Co297 2.096 . S
O324 C305 1.247 . S
C325 O322 1.244 . S
C325 O323 1.240 . S
H326 C300 0.931 . S
H327 C309 0.931 . S
H328 C313 0.929 . S
H329 C315 0.948 . S
Co330 N334 2.148 . S
Co330 N340 2.128 . S
Co330 N350 2.194 . S
Co330 O355 2.351 . S
Co330 O356 2.155 . S
Co330 O357 2.096 . S
C331 N334 1.301 . S
C331 N335 1.328 . S
C331 H336 0.930 . S
C332 C333 1.333 . S
C332 N334 1.317 . S
C332 H337 0.930 . S
C333 C332 1.333 . S
C333 N335 1.350 . S
C333 H359 0.931 . S
N334 Co330 2.148 . S
N334 C331 1.301 . S
N334 C332 1.317 . S
N335 C331 1.328 . S
N335 C333 1.350 . S
H336 C331 0.930 . S
H337 C332 0.930 . S
C338 O339 1.224 . S
C338 O357 1.247 . S
O339 C338 1.224 . S
N340 Co330 2.128 . S
N340 C341 1.355 . S
N340 C343 1.311 . S
C341 N340 1.355 . S
C341 C342 1.363 . S
C341 H353 0.929 . S
C342 C341 1.363 . S
C342 N344 1.375 . S
C342 H360 0.931 . S
C343 N340 1.311 . S
C343 N344 1.347 . S
C343 H354 0.929 . S
N344 C342 1.375 . S
N344 C343 1.347 . S
C345 C348 1.365 . S
C345 N350 1.328 . S
C345 H351 0.929 . S
C346 C347 1.362 . S
C346 C349 1.378 . S
C346 H361 0.929 . S
C347 C346 1.362 . S
C347 C348 1.366 . S
C348 C345 1.365 . S
C348 C347 1.366 . S
C348 H362 0.930 . S
C349 C346 1.378 . S
C349 N350 1.315 . S
C349 H352 0.930 . S
N350 Co330 2.194 . S
N350 C345 1.328 . S
N350 C349 1.315 . S
H351 C345 0.929 . S
H352 C349 0.930 . S
H353 C341 0.929 . S
H354 C343 0.929 . S
O355 Co330 2.351 . S
O355 C358 1.244 . S
O356 Co330 2.155 . S
O356 C358 1.240 . S
O357 Co330 2.096 . S
O357 C338 1.247 . S
C358 O355 1.244 . S
C358 O356 1.240 . S
H359 C333 0.931 . S
H360 C342 0.931 . S
H361 C346 0.929 . S
H362 C348 0.930 . S
Co363 N367 2.148 . S
Co363 N373 2.128 . S
Co363 N383 2.194 . S
Co363 O388 2.351 . S
Co363 O389 2.155 . S
Co363 O390 2.096 . S
C364 N367 1.301 . S
C364 N368 1.328 . S
C364 H369 0.930 . S
C365 C366 1.333 . S
C365 N367 1.317 . S
C365 H370 0.930 . S
C366 C365 1.333 . S
C366 N368 1.350 . S
C366 H392 0.931 . S
N367 Co363 2.148 . S
N367 C364 1.301 . S
N367 C365 1.317 . S
N368 C364 1.328 . S
N368 C366 1.350 . S
H369 C364 0.930 . S
H370 C365 0.930 . S
C371 O372 1.224 . S
C371 O390 1.247 . S
O372 C371 1.224 . S
N373 Co363 2.128 . S
N373 C374 1.355 . S
N373 C376 1.311 . S
C374 N373 1.355 . S
C374 C375 1.363 . S
C374 H386 0.929 . S
C375 C374 1.363 . S
C375 N377 1.375 . S
C375 H393 0.931 . S
C376 N373 1.311 . S
C376 N377 1.347 . S
C376 H387 0.929 . S
N377 C375 1.375 . S
N377 C376 1.347 . S
C378 C381 1.365 . S
C378 N383 1.328 . S
C378 H384 0.929 . S
C379 C380 1.362 . S
C379 C382 1.378 . S
C379 H394 0.929 . S
C380 C379 1.362 . S
C380 C381 1.366 . S
C381 C378 1.365 . S
C381 C380 1.366 . S
C381 H395 0.930 1_545 S
C382 C379 1.378 . S
C382 N383 1.315 . S
C382 H385 0.930 . S
N383 Co363 2.194 . S
N383 C378 1.328 . S
N383 C382 1.315 . S
H384 C378 0.929 . S
H385 C382 0.930 . S
H386 C374 0.929 . S
H387 C376 0.929 . S
O388 Co363 2.351 . S
O388 C391 1.244 . S
O389 Co363 2.155 . S
O389 C391 1.240 . S
O390 Co363 2.096 . S
O390 C371 1.247 . S
C391 O388 1.244 . S
C391 O389 1.240 . S
H392 C366 0.931 . S
H393 C375 0.931 . S
H394 C379 0.929 . S
H395 C381 0.930 1_565 S
Co396 N400 2.148 . S
Co396 N406 2.128 . S
Co396 N416 2.194 . S
Co396 O421 2.351 . S
Co396 O422 2.155 . S
Co396 O423 2.096 . S
C397 N400 1.301 . S
C397 N401 1.328 . S
C397 H402 0.930 . S
C398 C399 1.333 . S
C398 N400 1.317 . S
C398 H403 0.930 . S
C399 C398 1.333 . S
C399 N401 1.350 . S
C399 H425 0.931 . S
N400 Co396 2.148 . S
N400 C397 1.301 . S
N400 C398 1.317 . S
N401 C397 1.328 . S
N401 C399 1.350 . S
H402 C397 0.930 . S
H403 C398 0.930 . S
C404 O405 1.224 . S
C404 O423 1.247 . S
O405 C404 1.224 . S
N406 Co396 2.128 . S
N406 C407 1.355 . S
N406 C409 1.311 . S
C407 N406 1.355 . S
C407 C408 1.363 . S
C407 H419 0.929 . S
C408 C407 1.363 . S
C408 N410 1.375 . S
C408 H426 0.931 . S
C409 N406 1.311 . S
C409 N410 1.347 . S
C409 H420 0.929 . S
N410 C408 1.375 . S
N410 C409 1.347 . S
C411 C414 1.365 . S
C411 N416 1.328 . S
C411 H417 0.929 . S
C412 C413 1.362 . S
C412 C415 1.378 . S
C412 H427 0.929 . S
C413 C412 1.362 . S
C413 C414 1.366 . S
C414 C411 1.365 . S
C414 C413 1.366 . S
C414 H428 0.948 . S
C415 C412 1.378 . S
C415 N416 1.315 . S
C415 H418 0.930 . S
N416 Co396 2.194 . S
N416 C411 1.328 . S
N416 C415 1.315 . S
H417 C411 0.929 . S
H418 C415 0.930 . S
H419 C407 0.929 . S
H420 C409 0.929 . S
O421 Co396 2.351 . S
O421 C424 1.244 . S
O422 Co396 2.155 . S
O422 C424 1.240 . S
O423 Co396 2.096 . S
O423 C404 1.247 . S
C424 O421 1.244 . S
C424 O422 1.240 . S
H425 C399 0.931 . S
H426 C408 0.931 . S
H427 C412 0.929 . S
H428 C414 0.948 . S
Co429 N433 2.148 . S
Co429 N439 2.128 . S
Co429 N449 2.194 . S
Co429 O454 2.351 . S
Co429 O455 2.155 . S
Co429 O456 2.096 . S
C430 N433 1.301 . S
C430 N434 1.328 . S
C430 H435 0.930 . S
C431 C432 1.333 . S
C431 N433 1.317 . S
C431 H436 0.930 . S
C432 C431 1.333 . S
C432 N434 1.350 . S
C432 H458 0.931 . S
N433 Co429 2.148 . S
N433 C430 1.301 . S
N433 C431 1.317 . S
N434 C430 1.328 . S
N434 C432 1.350 . S
H435 C430 0.930 . S
H436 C431 0.930 . S
C437 O438 1.224 . S
C437 O456 1.247 . S
O438 C437 1.224 . S
N439 Co429 2.128 . S
N439 C440 1.355 . S
N439 C442 1.311 . S
C440 N439 1.355 . S
C440 C441 1.363 . S
C440 H452 0.929 . S
C441 C440 1.363 . S
C441 N443 1.375 . S
C441 H459 0.931 . S
C442 N439 1.311 . S
C442 N443 1.347 . S
C442 H453 0.929 . S
N443 C441 1.375 . S
N443 C442 1.347 . S
C444 C447 1.365 . S
C444 N449 1.328 . S
C444 H450 0.929 . S
C445 C446 1.362 . S
C445 C448 1.378 . S
C445 H460 0.929 . S
C446 C445 1.362 . S
C446 C447 1.366 . S
C447 C444 1.365 . S
C447 C446 1.366 . S
C447 H461 0.930 1_455 S
C448 C445 1.378 . S
C448 N449 1.315 . S
C448 H451 0.930 . S
N449 Co429 2.194 . S
N449 C444 1.328 . S
N449 C448 1.315 . S
H450 C444 0.929 . S
H451 C448 0.930 . S
H452 C440 0.929 . S
H453 C442 0.929 . S
O454 Co429 2.351 . S
O454 C457 1.244 . S
O455 Co429 2.155 . S
O455 C457 1.240 . S
O456 Co429 2.096 . S
O456 C437 1.247 . S
C457 O454 1.244 . S
C457 O455 1.240 . S
H458 C432 0.931 . S
H459 C441 0.931 . S
H460 C445 0.929 . S
H461 C447 0.930 1_655 S
Co462 N466 2.148 . S
Co462 N472 2.128 . S
Co462 N482 2.194 . S
Co462 O487 2.351 . S
Co462 O488 2.155 . S
Co462 O489 2.096 . S
C463 N466 1.301 . S
C463 N467 1.328 . S
C463 H468 0.930 . S
C464 C465 1.333 . S
C464 N466 1.317 . S
C464 H469 0.930 . S
C465 C464 1.333 . S
C465 N467 1.350 . S
C465 H491 0.931 . S
N466 Co462 2.148 . S
N466 C463 1.301 . S
N466 C464 1.317 . S
N467 C463 1.328 . S
N467 C465 1.350 . S
H468 C463 0.930 . S
H469 C464 0.930 . S
C470 O471 1.224 . S
C470 O489 1.247 . S
O471 C470 1.224 . S
N472 Co462 2.128 . S
N472 C473 1.355 . S
N472 C475 1.311 . S
C473 N472 1.355 . S
C473 C474 1.363 . S
C473 H485 0.929 . S
C474 C473 1.363 . S
C474 N476 1.375 . S
C474 H492 0.931 . S
C475 N472 1.311 . S
C475 N476 1.347 . S
C475 H486 0.929 . S
N476 C474 1.375 . S
N476 C475 1.347 . S
C477 C480 1.365 . S
C477 N482 1.328 . S
C477 H483 0.929 . S
C478 C479 1.362 . S
C478 C481 1.378 . S
C478 H493 0.929 . S
C479 C478 1.362 . S
C479 C480 1.366 . S
C480 C477 1.365 . S
C480 C479 1.366 . S
C480 H494 0.930 . S
C481 C478 1.378 . S
C481 N482 1.315 . S
C481 H484 0.930 . S
N482 Co462 2.194 . S
N482 C477 1.328 . S
N482 C481 1.315 . S
H483 C477 0.929 . S
H484 C481 0.930 . S
H485 C473 0.929 . S
H486 C475 0.929 . S
O487 Co462 2.351 . S
O487 C490 1.244 . S
O488 Co462 2.155 . S
O488 C490 1.240 . S
O489 Co462 2.096 . S
O489 C470 1.247 . S
C490 O487 1.244 . S
C490 O488 1.240 . S
H491 C465 0.931 . S
H492 C474 0.931 . S
H493 C478 0.929 . S
H494 C480 0.930 . S
Co495 N499 2.148 . S
Co495 N505 2.128 . S
Co495 N515 2.194 . S
Co495 O520 2.351 . S
Co495 O521 2.155 . S
Co495 O522 2.096 . S
C496 N499 1.301 . S
C496 N500 1.328 . S
C496 H501 0.930 . S
C497 C498 1.333 . S
C497 N499 1.317 . S
C497 H502 0.930 . S
C498 C497 1.333 . S
C498 N500 1.350 . S
C498 H524 0.931 . S
N499 Co495 2.148 . S
N499 C496 1.301 . S
N499 C497 1.317 . S
N500 C496 1.328 . S
N500 C498 1.350 . S
H501 C496 0.930 . S
H502 C497 0.930 . S
C503 O504 1.224 . S
C503 O522 1.247 . S
O504 C503 1.224 . S
N505 Co495 2.128 . S
N505 C506 1.355 . S
N505 C508 1.311 . S
C506 N505 1.355 . S
C506 C507 1.363 . S
C506 H518 0.929 . S
C507 C506 1.363 . S
C507 N509 1.375 . S
C507 H525 0.931 . S
C508 N505 1.311 . S
C508 N509 1.347 . S
C508 H519 0.929 . S
N509 C507 1.375 . S
N509 C508 1.347 . S
C510 C513 1.365 . S
C510 N515 1.328 . S
C510 H516 0.929 . S
C511 C512 1.362 . S
C511 C514 1.378 . S
C511 H526 0.929 . S
C512 C511 1.362 . S
C512 C513 1.366 . S
C513 C510 1.365 . S
C513 C512 1.366 . S
C513 H527 0.930 . S
C514 C511 1.378 . S
C514 N515 1.315 . S
C514 H517 0.930 . S
N515 Co495 2.194 . S
N515 C510 1.328 . S
N515 C514 1.315 . S
H516 C510 0.929 . S
H517 C514 0.930 . S
H518 C506 0.929 . S
H519 C508 0.929 . S
O520 Co495 2.351 . S
O520 C523 1.244 . S
O521 Co495 2.155 . S
O521 C523 1.240 . S
O522 Co495 2.096 . S
O522 C503 1.247 . S
C523 O520 1.244 . S
C523 O521 1.240 . S
H524 C498 0.931 . S
H525 C507 0.931 . S
H526 C511 0.929 . S
H527 C513 0.930 . S
Co528 N532 2.148 . S
Co528 N538 2.128 . S
Co528 N548 2.194 . S
Co528 O553 2.351 . S
Co528 O554 2.155 . S
Co528 O555 2.096 . S
C529 N532 1.301 . S
C529 N533 1.328 . S
C529 H534 0.930 . S
C530 C531 1.333 . S
C530 N532 1.317 . S
C530 H535 0.930 . S
C531 C530 1.333 . S
C531 N533 1.350 . S
C531 H557 0.931 . S
N532 Co528 2.148 . S
N532 C529 1.301 . S
N532 C530 1.317 . S
N533 C529 1.328 . S
N533 C531 1.350 . S
H534 C529 0.930 . S
H535 C530 0.930 . S
C536 O537 1.224 . S
C536 O555 1.247 . S
O537 C536 1.224 . S
N538 Co528 2.128 . S
N538 C539 1.355 . S
N538 C541 1.311 . S
C539 N538 1.355 . S
C539 C540 1.363 . S
C539 H551 0.929 . S
C540 C539 1.363 . S
C540 N542 1.375 . S
C540 H558 0.931 . S
C541 N538 1.311 . S
C541 N542 1.347 . S
C541 H552 0.929 . S
N542 C540 1.375 . S
N542 C541 1.347 . S
C543 C546 1.365 . S
C543 N548 1.328 . S
C543 H549 0.929 . S
C544 C545 1.362 . S
C544 C547 1.378 . S
C544 H559 0.929 . S
C545 C544 1.362 . S
C545 C546 1.366 . S
C546 C543 1.365 . S
C546 C545 1.366 . S
C546 H560 0.930 . S
C547 C544 1.378 . S
C547 N548 1.315 . S
C547 H550 0.930 . S
N548 Co528 2.194 . S
N548 C543 1.328 . S
N548 C547 1.315 . S
H549 C543 0.929 . S
H550 C547 0.930 . S
H551 C539 0.929 . S
H552 C541 0.929 . S
O553 Co528 2.351 . S
O553 C556 1.244 . S
O554 Co528 2.155 . S
O554 C556 1.240 . S
O555 Co528 2.096 . S
O555 C536 1.247 . S
C556 O553 1.244 . S
C556 O554 1.240 . S
H557 C531 0.931 . S
H558 C540 0.931 . S
H559 C544 0.929 . S
H560 C546 0.930 . S
Co561 N565 2.148 . S
Co561 N571 2.128 . S
Co561 N581 2.194 . S
Co561 O586 2.351 . S
Co561 O587 2.155 . S
Co561 O588 2.096 . S
C562 N565 1.301 . S
C562 N566 1.328 . S
C562 H567 0.930 . S
C563 C564 1.333 . S
C563 N565 1.317 . S
C563 H568 0.930 . S
C564 C563 1.333 . S
C564 N566 1.350 . S
C564 H590 0.931 . S
N565 Co561 2.148 . S
N565 C562 1.301 . S
N565 C563 1.317 . S
N566 C562 1.328 . S
N566 C564 1.350 . S
H567 C562 0.930 . S
H568 C563 0.930 . S
C569 O570 1.224 . S
C569 O588 1.247 . S
O570 C569 1.224 . S
N571 Co561 2.128 . S
N571 C572 1.355 . S
N571 C574 1.311 . S
C572 N571 1.355 . S
C572 C573 1.363 . S
C572 H584 0.929 . S
C573 C572 1.363 . S
C573 N575 1.375 . S
C573 H591 0.931 . S
C574 N571 1.311 . S
C574 N575 1.347 . S
C574 H585 0.929 . S
N575 C573 1.375 . S
N575 C574 1.347 . S
C576 C579 1.365 . S
C576 N581 1.328 . S
C576 H582 0.929 . S
C577 C578 1.362 . S
C577 C580 1.378 . S
C577 H592 0.929 . S
C578 C577 1.362 . S
C578 C579 1.366 . S
C579 C576 1.365 . S
C579 C578 1.366 . S
C579 H593 0.930 . S
C580 C577 1.378 . S
C580 N581 1.315 . S
C580 H583 0.930 . S
N581 Co561 2.194 . S
N581 C576 1.328 . S
N581 C580 1.315 . S
H582 C576 0.929 . S
H583 C580 0.930 . S
H584 C572 0.929 . S
H585 C574 0.929 . S
O586 Co561 2.351 . S
O586 C589 1.244 . S
O587 Co561 2.155 . S
O587 C589 1.240 . S
O588 Co561 2.096 . S
O588 C569 1.247 . S
C589 O586 1.244 . S
C589 O587 1.240 . S
H590 C564 0.931 . S
H591 C573 0.931 . S
H592 C577 0.929 . S
H593 C579 0.930 . S
C594 C595 1.349 . S
C594 C596 1.327 . S
C594 H619 0.950 . S
C595 C594 1.349 . S
C595 C611 1.349 . S
C596 C594 1.327 . S
C596 C615 1.429 . S
C596 H620 0.950 . S
C597 C614 1.574 . S
C597 C616 1.368 . S
C597 H621 0.949 . S
H598 C602 0.949 . S
C599 C600 1.349 . S
C599 C601 1.327 . S
C599 H622 0.950 . S
C600 C599 1.349 . S
C600 C612 1.349 . S
C601 C599 1.327 . S
C601 C617 1.429 . S
C601 H623 0.950 . S
C602 H598 0.949 . S
C602 C610 1.574 . S
C602 C618 1.368 . S
H603 C611 0.950 . S
H604 C609 0.950 . S
H605 C610 0.949 . S
H606 C612 0.950 . S
H607 C613 0.950 . S
H608 C614 0.949 . S
C609 H604 0.950 . S
C609 C611 1.327 . S
C609 C615 1.429 . S
C610 C602 1.574 . S
C610 H605 0.949 . S
C610 C616 1.368 . S
C611 C595 1.349 . S
C611 H603 0.950 . S
C611 C609 1.327 . S
C612 C600 1.349 . S
C612 H606 0.950 . S
C612 C613 1.327 . S
C613 H607 0.950 . S
C613 C612 1.327 . S
C613 C617 1.429 . S
C614 C597 1.574 . S
C614 H608 0.949 . S
C614 C618 1.368 . S
C615 C596 1.429 . S
C615 C609 1.429 . S
C615 C616 1.523 . S
C616 C597 1.368 . S
C616 C610 1.368 . S
C616 C615 1.523 . S
C617 C601 1.429 . S
C617 C613 1.429 . S
C617 C618 1.523 . S
C618 C602 1.368 . S
C618 C614 1.368 . S
C618 C617 1.523 . S
H619 C594 0.950 . S
H620 C596 0.950 . S
H621 C597 0.949 . S
H622 C599 0.950 . S
H623 C601 0.950 . S
C624 C625 1.349 . S
C624 C626 1.327 . S
C624 H649 0.950 . S
C625 C624 1.349 . S
C625 C641 1.349 . S
C626 C624 1.327 . S
C626 C645 1.429 . S
C626 H650 0.950 . S
C627 C644 1.574 . S
C627 C646 1.368 . S
C627 H651 0.949 . S
H628 C632 0.949 . S
C629 C630 1.349 . S
C629 C631 1.327 . S
C629 H652 0.950 . S
C630 C629 1.349 . S
C630 C642 1.349 . S
C631 C629 1.327 . S
C631 C647 1.429 . S
C631 H653 0.950 . S
C632 H628 0.949 . S
C632 C640 1.574 . S
C632 C648 1.368 . S
H633 C641 0.950 . S
H634 C639 0.950 . S
H635 C640 0.949 . S
H636 C642 0.950 1_545 S
H637 C643 0.950 . S
H638 C644 0.949 . S
C639 H634 0.950 . S
C639 C641 1.327 . S
C639 C645 1.429 . S
C640 C632 1.574 . S
C640 H635 0.949 . S
C640 C646 1.368 . S
C641 C625 1.349 . S
C641 H633 0.950 . S
C641 C639 1.327 . S
C642 C630 1.349 . S
C642 H636 0.950 1_565 S
C642 C643 1.327 . S
C643 H637 0.950 . S
C643 C642 1.327 . S
C643 C647 1.429 . S
C644 C627 1.574 . S
C644 H638 0.949 . S
C644 C648 1.368 . S
C645 C626 1.429 . S
C645 C639 1.429 . S
C645 C646 1.523 . S
C646 C627 1.368 . S
C646 C640 1.368 . S
C646 C645 1.523 . S
C647 C631 1.429 . S
C647 C643 1.429 . S
C647 C648 1.523 . S
C648 C632 1.368 . S
C648 C644 1.368 . S
C648 C647 1.523 . S
H649 C624 0.950 . S
H650 C626 0.950 . S
H651 C627 0.949 . S
H652 C629 0.950 . S
H653 C631 0.950 . S
C654 C655 1.349 . S
C654 C656 1.327 . S
C654 H679 0.950 1_455 S
C655 C654 1.349 . S
C655 C671 1.349 . S
C656 C654 1.327 . S
C656 C675 1.429 . S
C656 H680 0.950 . S
C657 C674 1.574 . S
C657 C676 1.368 . S
C657 H681 0.949 . S
H658 C662 0.949 . S
C659 C660 1.349 . S
C659 C661 1.327 . S
C659 H682 0.950 . S
C660 C659 1.349 . S
C660 C672 1.349 . S
C661 C659 1.327 . S
C661 C677 1.429 . S
C661 H683 0.950 . S
C662 H658 0.949 . S
C662 C670 1.574 . S
C662 C678 1.368 . S
H663 C671 0.950 . S
H664 C669 0.950 . S
H665 C670 0.949 . S
H666 C672 0.950 . S
H667 C673 0.950 . S
H668 C674 0.949 . S
C669 H664 0.950 . S
C669 C671 1.327 . S
C669 C675 1.429 . S
C670 C662 1.574 . S
C670 H665 0.949 . S
C670 C676 1.368 . S
C671 C655 1.349 . S
C671 H663 0.950 . S
C671 C669 1.327 . S
C672 C660 1.349 . S
C672 H666 0.950 . S
C672 C673 1.327 . S
C673 H667 0.950 . S
C673 C672 1.327 . S
C673 C677 1.429 . S
C674 C657 1.574 . S
C674 H668 0.949 . S
C674 C678 1.368 . S
C675 C656 1.429 . S
C675 C669 1.429 . S
C675 C676 1.523 . S
C676 C657 1.368 . S
C676 C670 1.368 . S
C676 C675 1.523 . S
C677 C661 1.429 . S
C677 C673 1.429 . S
C677 C678 1.523 . S
C678 C662 1.368 . S
C678 C674 1.368 . S
C678 C677 1.523 . S
H679 C654 0.950 1_655 S
H680 C656 0.950 . S
H681 C657 0.949 . S
H682 C659 0.950 . S
H683 C661 0.950 . S
C684 C685 1.349 . S
C684 C686 1.327 . S
C684 H709 0.950 . S
C685 C684 1.349 . S
C685 C701 1.349 . S
C686 C684 1.327 . S
C686 C705 1.429 . S
C686 H710 0.950 . S
C687 C704 1.574 . S
C687 C706 1.368 . S
C687 H711 0.949 . S
H688 C692 0.949 . S
C689 C690 1.349 . S
C689 C691 1.327 . S
C689 H712 0.950 . S
C690 C689 1.349 . S
C690 C702 1.349 . S
C691 C689 1.327 . S
C691 C707 1.429 . S
C691 H713 0.950 . S
C692 H688 0.949 . S
C692 C700 1.574 . S
C692 C708 1.368 . S
H693 C701 0.950 . S
H694 C699 0.950 . S
H695 C700 0.949 . S
H696 C702 0.950 . S
H697 C703 0.950 . S
H698 C704 0.949 . S
C699 H694 0.950 . S
C699 C701 1.327 . S
C699 C705 1.429 . S
C700 C692 1.574 . S
C700 H695 0.949 . S
C700 C706 1.368 . S
C701 C685 1.349 . S
C701 H693 0.950 . S
C701 C699 1.327 . S
C702 C690 1.349 . S
C702 H696 0.950 . S
C702 C703 1.327 . S
C703 H697 0.950 . S
C703 C702 1.327 . S
C703 C707 1.429 . S
C704 C687 1.574 . S
C704 H698 0.949 . S
C704 C708 1.368 . S
C705 C686 1.429 . S
C705 C699 1.429 . S
C705 C706 1.523 . S
C706 C687 1.368 . S
C706 C700 1.368 . S
C706 C705 1.523 . S
C707 C691 1.429 . S
C707 C703 1.429 . S
C707 C708 1.523 . S
C708 C692 1.368 . S
C708 C704 1.368 . S
C708 C707 1.523 . S
H709 C684 0.950 . S
H710 C686 0.950 . S
H711 C687 0.949 . S
H712 C689 0.950 . S
H713 C691 0.950 . S
C714 C715 1.349 . S
C714 C716 1.327 . S
C714 H739 0.950 . S
C715 C714 1.349 . S
C715 C731 1.349 . S
C716 C714 1.327 . S
C716 C735 1.429 . S
C716 H740 0.950 . S
C717 C734 1.574 . S
C717 C736 1.368 . S
C717 H741 0.949 . S
H718 C722 0.949 . S
C719 C720 1.349 . S
C719 C721 1.327 . S
C719 H742 0.950 . S
C720 C719 1.349 . S
C720 C732 1.349 . S
C721 C719 1.327 . S
C721 C737 1.429 . S
C721 H743 0.950 . S
C722 H718 0.949 . S
C722 C730 1.574 . S
C722 C738 1.368 . S
H723 C731 0.950 . S
H724 C729 0.950 . S
H725 C730 0.949 . S
H726 C732 0.950 . S
H727 C733 0.950 . S
H728 C734 0.949 . S
C729 H724 0.950 . S
C729 C731 1.327 . S
C729 C735 1.429 . S
C730 C722 1.574 . S
C730 H725 0.949 . S
C730 C736 1.368 . S
C731 C715 1.349 . S
C731 H723 0.950 . S
C731 C729 1.327 . S
C732 C720 1.349 . S
C732 H726 0.950 . S
C732 C733 1.327 . S
C733 H727 0.950 . S
C733 C732 1.327 . S
C733 C737 1.429 . S
C734 C717 1.574 . S
C734 H728 0.949 . S
C734 C738 1.368 . S
C735 C716 1.429 . S
C735 C729 1.429 . S
C735 C736 1.523 . S
C736 C717 1.368 . S
C736 C730 1.368 . S
C736 C735 1.523 . S
C737 C721 1.429 . S
C737 C733 1.429 . S
C737 C738 1.523 . S
C738 C722 1.368 . S
C738 C734 1.368 . S
C738 C737 1.523 . S
H739 C714 0.950 . S
H740 C716 0.950 . S
H741 C717 0.949 . S
H742 C719 0.950 . S
H743 C721 0.950 . S
C744 C745 1.349 . S
C744 C746 1.327 . S
C744 H769 0.950 . S
C745 C744 1.349 . S
C745 C761 1.349 . S
C746 C744 1.327 . S
C746 C765 1.429 . S
C746 H770 0.950 . S
C747 C764 1.574 . S
C747 C766 1.368 . S
C747 H771 0.949 . S
H748 C752 0.949 . S
C749 C750 1.349 . S
C749 C751 1.327 . S
C749 H772 0.950 . S
C750 C749 1.349 . S
C750 C762 1.349 . S
C751 C749 1.327 . S
C751 C767 1.429 . S
C751 H773 0.950 . S
C752 H748 0.949 . S
C752 C760 1.574 . S
C752 C768 1.368 . S
H753 C761 0.950 1_455 S
H754 C759 0.950 . S
H755 C760 0.949 . S
H756 C762 0.950 . S
H757 C763 0.950 . S
H758 C764 0.949 . S
C759 H754 0.950 . S
C759 C761 1.327 . S
C759 C765 1.429 . S
C760 C752 1.574 . S
C760 H755 0.949 . S
C760 C766 1.368 . S
C761 C745 1.349 . S
C761 H753 0.950 1_655 S
C761 C759 1.327 . S
C762 C750 1.349 . S
C762 H756 0.950 . S
C762 C763 1.327 . S
C763 H757 0.950 . S
C763 C762 1.327 . S
C763 C767 1.429 . S
C764 C747 1.574 . S
C764 H758 0.949 . S
C764 C768 1.368 . S
C765 C746 1.429 . S
C765 C759 1.429 . S
C765 C766 1.523 . S
C766 C747 1.368 . S
C766 C760 1.368 . S
C766 C765 1.523 . S
C767 C751 1.429 . S
C767 C763 1.429 . S
C767 C768 1.523 . S
C768 C752 1.368 . S
C768 C764 1.368 . S
C768 C767 1.523 . S
H769 C744 0.950 . S
H770 C746 0.950 . S
H771 C747 0.949 . S
H772 C749 0.950 . S
H773 C751 0.950 . S
C774 C775 1.349 . S
C774 C776 1.327 . S
C774 H799 0.950 . S
C775 C774 1.349 . S
C775 C791 1.349 . S
C776 C774 1.327 . S
C776 C795 1.429 . S
C776 H800 0.950 . S
C777 C794 1.574 . S
C777 C796 1.368 . S
C777 H801 0.949 . S
H778 C782 0.949 . S
C779 C780 1.349 . S
C779 C781 1.327 . S
C779 H802 0.950 . S
C780 C779 1.349 . S
C780 C792 1.349 . S
C781 C779 1.327 . S
C781 C797 1.429 . S
C781 H803 0.950 . S
C782 H778 0.949 . S
C782 C790 1.574 . S
C782 C798 1.368 . S
H783 C791 0.950 . S
H784 C789 0.950 . S
H785 C790 0.949 . S
H786 C792 0.950 . S
H787 C793 0.950 . S
H788 C794 0.949 . S
C789 H784 0.950 . S
C789 C791 1.327 . S
C789 C795 1.429 . S
C790 C782 1.574 . S
C790 H785 0.949 . S
C790 C796 1.368 . S
C791 C775 1.349 . S
C791 H783 0.950 . S
C791 C789 1.327 . S
C792 C780 1.349 . S
C792 H786 0.950 . S
C792 C793 1.327 . S
C793 H787 0.950 . S
C793 C792 1.327 . S
C793 C797 1.429 . S
C794 C777 1.574 . S
C794 H788 0.949 . S
C794 C798 1.368 . S
C795 C776 1.429 . S
C795 C789 1.429 . S
C795 C796 1.523 . S
C796 C777 1.368 . S
C796 C790 1.368 . S
C796 C795 1.523 . S
C797 C781 1.429 . S
C797 C793 1.429 . S
C797 C798 1.523 . S
C798 C782 1.368 . S
C798 C794 1.368 . S
C798 C797 1.523 . S
H799 C774 0.950 . S
H800 C776 0.950 . S
H801 C777 0.949 . S
H802 C779 0.950 . S
H803 C781 0.950 . S
C804 C805 1.349 . S
C804 C806 1.350 . S
C804 H829 0.950 . S
C805 C804 1.349 . S
C805 C821 1.349 . S
C806 C804 1.350 . S
C806 C825 1.416 . S
C806 H830 0.940 1_565 S
C807 C824 1.574 . S
C807 C826 1.368 . S
C807 H831 0.949 1_545 S
H808 C812 0.949 . S
C809 C810 1.349 . S
C809 C811 1.327 . S
C809 H832 0.950 . S
C810 C809 1.349 . S
C810 C822 1.349 . S
C811 C809 1.327 . S
C811 C827 1.429 . S
C811 H833 0.950 . S
C812 H808 0.949 . S
C812 C820 1.574 . S
C812 C828 1.368 . S
H813 C821 0.950 . S
H814 C819 0.950 . S
H815 C820 0.949 . S
H816 C822 0.950 . S
H817 C823 0.950 . S
H818 C824 0.949 . S
C819 H814 0.950 . S
C819 C821 1.327 . S
C819 C825 1.429 . S
C820 C812 1.574 . S
C820 H815 0.949 . S
C820 C826 1.368 . S
C821 C805 1.349 . S
C821 H813 0.950 . S
C821 C819 1.327 . S
C822 C810 1.349 . S
C822 H816 0.950 . S
C822 C823 1.327 . S
C823 H817 0.950 . S
C823 C822 1.327 . S
C823 C827 1.429 . S
C824 C807 1.574 . S
C824 H818 0.949 . S
C824 C828 1.368 . S
C825 C806 1.416 . S
C825 C819 1.429 . S
C825 C826 1.523 1_565 S
C826 C807 1.368 . S
C826 C820 1.368 . S
C826 C825 1.523 1_545 S
C827 C811 1.429 . S
C827 C823 1.429 . S
C827 C828 1.523 . S
C828 C812 1.368 . S
C828 C824 1.368 . S
C828 C827 1.523 . S
H829 C804 0.950 . S
H830 C806 0.940 1_545 S
H831 C807 0.949 1_565 S
H832 C809 0.950 . S
H833 C811 0.950 . S
C834 C835 1.349 . S
C834 C836 1.327 . S
C834 H859 0.950 . S
C835 C834 1.349 . S
C835 C851 1.349 . S
C836 C834 1.327 . S
C836 C855 1.428 . S
C836 H860 0.950 . S
C837 C854 1.574 . S
C837 C856 1.368 . S
C837 H861 0.949 . S
H838 C842 0.949 . S
C839 C840 1.349 . S
C839 C841 1.327 . S
C839 H862 0.950 . S
C840 C839 1.349 . S
C840 C852 1.349 . S
C841 C839 1.327 . S
C841 C857 1.429 . S
C841 H863 0.950 . S
C842 H838 0.949 . S
C842 C850 1.574 . S
C842 C858 1.368 . S
H843 C851 0.950 . S
H844 C849 0.950 1_655 S
H845 C850 0.949 . S
H846 C852 0.950 . S
H847 C853 0.950 . S
H848 C854 0.949 . S
C849 H844 0.950 1_455 S
C849 C851 1.327 . S
C849 C855 1.429 . S
C850 C842 1.574 . S
C850 H845 0.949 . S
C850 C856 1.368 . S
C851 C835 1.349 . S
C851 H843 0.950 . S
C851 C849 1.327 . S
C852 C840 1.349 . S
C852 H846 0.950 . S
C852 C853 1.327 . S
C853 H847 0.950 . S
C853 C852 1.327 . S
C853 C857 1.429 . S
C854 C837 1.574 . S
C854 H848 0.949 . S
C854 C858 1.368 . S
C855 C836 1.428 . S
C855 C849 1.429 . S
C855 C856 1.523 1_455 S
C856 C837 1.368 . S
C856 C850 1.368 . S
C856 C855 1.523 1_655 S
C857 C841 1.429 . S
C857 C853 1.429 . S
C857 C858 1.523 . S
C858 C842 1.368 . S
C858 C854 1.368 . S
C858 C857 1.523 . S
H859 C834 0.950 . S
H860 C836 0.950 . S
H861 C837 0.949 . S
H862 C839 0.950 . S
H863 C841 0.950 . S
C864 C865 1.349 . S
C864 C866 1.327 . S
C864 H889 0.950 . S
C865 C864 1.349 . S
C865 C881 1.349 . S
C866 C864 1.327 . S
C866 C885 1.429 . S
C866 H890 0.950 . S
C867 C884 1.574 . S
C867 C886 1.368 . S
C867 H891 0.949 . S
H868 C872 0.949 . S
C869 C870 1.349 . S
C869 C871 1.327 . S
C869 H892 0.950 . S
C870 C869 1.349 . S
C870 C882 1.349 . S
C871 C869 1.327 . S
C871 C887 1.429 . S
C871 H893 0.950 . S
C872 H868 0.949 . S
C872 C880 1.574 . S
C872 C888 1.368 . S
H873 C881 0.950 . S
H874 C879 0.950 . S
H875 C880 0.949 . S
H876 C882 0.950 . S
H877 C883 0.950 . S
H878 C884 0.949 . S
C879 H874 0.950 . S
C879 C881 1.327 . S
C879 C885 1.429 . S
C880 C872 1.574 . S
C880 H875 0.949 . S
C880 C886 1.368 . S
C881 C865 1.349 . S
C881 H873 0.950 . S
C881 C879 1.327 . S
C882 C870 1.349 . S
C882 H876 0.950 . S
C882 C883 1.327 . S
C883 H877 0.950 . S
C883 C882 1.327 . S
C883 C887 1.429 . S
C884 C867 1.574 . S
C884 H878 0.949 . S
C884 C888 1.368 . S
C885 C866 1.429 . S
C885 C879 1.429 . S
C885 C886 1.523 . S
C886 C867 1.368 . S
C886 C880 1.368 . S
C886 C885 1.523 . S
C887 C871 1.429 . S
C887 C883 1.429 . S
C887 C888 1.523 . S
C888 C872 1.368 . S
C888 C884 1.368 . S
C888 C887 1.523 . S
H889 C864 0.950 . S
H890 C866 0.950 . S
H891 C867 0.949 . S
H892 C869 0.950 . S
H893 C871 0.950 . S
C894 C895 1.349 . S
C894 C896 1.327 . S
C894 H919 0.950 . S
C895 C894 1.349 . S
C895 C911 1.349 . S
C896 C894 1.327 . S
C896 C915 1.429 . S
C896 H920 0.950 . S
C897 C914 1.574 . S
C897 C916 1.368 . S
C897 H921 0.949 . S
H898 C902 0.949 . S
C899 C900 1.349 . S
C899 C901 1.327 . S
C899 H922 0.950 . S
C900 C899 1.349 . S
C900 C912 1.349 . S
C901 C899 1.327 . S
C901 C917 1.430 . S
C901 H923 0.950 . S
C902 H898 0.949 . S
C902 C910 1.574 . S
C902 C918 1.368 . S
H903 C911 0.950 . S
H904 C909 0.950 . S
H905 C910 0.949 . S
H906 C912 0.950 . S
H907 C913 0.950 . S
H908 C914 0.949 . S
C909 H904 0.950 . S
C909 C911 1.327 . S
C909 C915 1.429 . S
C910 C902 1.574 . S
C910 H905 0.949 . S
C910 C916 1.368 . S
C911 C895 1.349 . S
C911 H903 0.950 . S
C911 C909 1.327 . S
C912 C900 1.349 . S
C912 H906 0.950 . S
C912 C913 1.327 . S
C913 H907 0.950 . S
C913 C912 1.327 . S
C913 C917 1.427 . S
C914 C897 1.574 . S
C914 H908 0.949 . S
C914 C918 1.368 . S
C915 C896 1.429 . S
C915 C909 1.429 . S
C915 C916 1.523 . S
C916 C897 1.368 . S
C916 C910 1.368 . S
C916 C915 1.523 . S
C917 C901 1.430 . S
C917 C913 1.427 . S
C917 C918 1.523 1_545 S
C918 C902 1.368 . S
C918 C914 1.368 . S
C918 C917 1.523 1_565 S
H919 C894 0.950 . S
H920 C896 0.950 . S
H921 C897 0.949 . S
H922 C899 0.950 . S
H923 C901 0.950 . S
C924 C925 1.349 . S
C924 C926 1.327 . S
C924 H949 0.950 . S
C925 C924 1.349 . S
C925 C941 1.349 . S
C926 C924 1.327 . S
C926 C945 1.429 . S
C926 H950 0.950 . S
C927 C944 1.574 1_455 S
C927 C946 1.368 . S
C927 H951 0.948 . S
H928 C932 0.949 . S
C929 C930 1.349 . S
C929 C931 1.327 . S
C929 H952 0.950 . S
C930 C929 1.349 . S
C930 C942 1.349 . S
C931 C929 1.327 . S
C931 C947 1.429 . S
C931 H953 0.950 . S
C932 H928 0.949 . S
C932 C940 1.574 . S
C932 C948 1.368 . S
H933 C941 0.950 . S
H934 C939 0.950 . S
H935 C940 0.949 . S
H936 C942 0.950 1_455 S
H937 C943 0.950 . S
H938 C944 0.949 . S
C939 H934 0.950 . S
C939 C941 1.327 . S
C939 C945 1.429 . S
C940 C932 1.574 . S
C940 H935 0.949 . S
C940 C946 1.368 . S
C941 C925 1.349 . S
C941 H933 0.950 . S
C941 C939 1.327 . S
C942 C930 1.349 . S
C942 H936 0.950 1_655 S
C942 C943 1.327 1_655 S
C943 H937 0.950 . S
C943 C942 1.327 1_455 S
C943 C947 1.429 1_455 S
C944 C927 1.574 1_655 S
C944 H938 0.949 . S
C944 C948 1.368 1_655 S
C945 C926 1.429 . S
C945 C939 1.429 . S
C945 C946 1.523 . S
C946 C927 1.368 . S
C946 C940 1.368 . S
C946 C945 1.523 . S
C947 C931 1.429 . S
C947 C943 1.429 1_655 S
C947 C948 1.523 1_655 S
C948 C932 1.368 . S
C948 C944 1.368 1_455 S
C948 C947 1.523 1_455 S
H949 C924 0.950 . S
H950 C926 0.950 . S
H951 C927 0.948 . S
H952 C929 0.950 . S
H953 C931 0.950 . S
C954 C955 1.349 . S
C954 C956 1.327 . S
C954 H979 0.950 . S
C955 C954 1.349 . S
C955 C971 1.349 . S
C956 C954 1.327 . S
C956 C975 1.429 . S
C956 H980 0.950 . S
C957 C974 1.574 1_455 S
C957 C976 1.368 . S
C957 H981 0.949 . S
H958 C962 0.949 . S
C959 C960 1.349 . S
C959 C961 1.327 . S
C959 H982 0.950 . S
C960 C959 1.349 . S
C960 C972 1.349 . S
C961 C959 1.327 . S
C961 C977 1.429 . S
C961 H983 0.950 . S
C962 H958 0.949 . S
C962 C970 1.574 1_655 S
C962 C978 1.368 . S
H963 C971 0.950 . S
H964 C969 0.950 . S
H965 C970 0.949 . S
H966 C972 0.950 . S
H967 C973 0.950 . S
H968 C974 0.949 . S
C969 H964 0.950 . S
C969 C971 1.327 . S
C969 C975 1.429 . S
C970 C962 1.574 1_455 S
C970 H965 0.949 . S
C970 C976 1.368 . S
C971 C955 1.349 . S
C971 H963 0.950 . S
C971 C969 1.327 . S
C972 C960 1.349 . S
C972 H966 0.950 . S
C972 C973 1.327 . S
C973 H967 0.950 . S
C973 C972 1.327 . S
C973 C977 1.429 . S
C974 C957 1.574 1_655 S
C974 H968 0.949 . S
C974 C978 1.368 . S
C975 C956 1.429 . S
C975 C969 1.429 . S
C975 C976 1.523 . S
C976 C957 1.368 . S
C976 C970 1.368 . S
C976 C975 1.523 . S
C977 C961 1.429 . S
C977 C973 1.429 . S
C977 C978 1.523 . S
C978 C962 1.368 . S
C978 C974 1.368 . S
C978 C977 1.523 . S
H979 C954 0.950 . S
H980 C956 0.950 . S
H981 C957 0.949 . S
H982 C959 0.950 . S
H983 C961 0.950 . S
C984 C985 1.349 . S
C984 C986 1.327 . S
C984 H1009 0.950 . S
C985 C984 1.349 . S
C985 C1001 1.349 . S
C986 C984 1.327 . S
C986 C1005 1.429 . S
C986 H1010 0.950 . S
C987 C1004 1.574 . S
C987 C1006 1.368 . S
C987 H1011 0.949 . S
H988 C992 0.949 . S
C989 C990 1.349 . S
C989 C991 1.327 . S
C989 H1012 0.950 . S
C990 C989 1.349 . S
C990 C1002 1.349 . S
C991 C989 1.327 . S
C991 C1007 1.429 . S
C991 H1013 0.950 . S
C992 H988 0.949 . S
C992 C1000 1.574 . S
C992 C1008 1.368 . S
H993 C1001 0.950 . S
H994 C999 0.950 . S
H995 C1000 0.949 . S
H996 C1002 0.950 . S
H997 C1003 0.950 . S
H998 C1004 0.949 . S
C999 H994 0.950 . S
C999 C1001 1.327 . S
C999 C1005 1.429 . S
C1000 C992 1.574 . S
C1000 H995 0.949 . S
C1000 C1006 1.368 . S
C1001 C985 1.349 . S
C1001 H993 0.950 . S
C1001 C999 1.327 . S
C1002 C990 1.349 . S
C1002 H996 0.950 . S
C1002 C1003 1.327 . S
C1003 H997 0.950 . S
C1003 C1002 1.327 . S
C1003 C1007 1.429 . S
C1004 C987 1.574 . S
C1004 H998 0.949 . S
C1004 C1008 1.368 . S
C1005 C986 1.429 . S
C1005 C999 1.429 . S
C1005 C1006 1.523 . S
C1006 C987 1.368 . S
C1006 C1000 1.368 . S
C1006 C1005 1.523 . S
C1007 C991 1.429 . S
C1007 C1003 1.429 . S
C1007 C1008 1.523 . S
C1008 C992 1.368 . S
C1008 C1004 1.368 . S
C1008 C1007 1.523 . S
H1009 C984 0.950 . S
H1010 C986 0.950 . S
H1011 C987 0.949 . S
H1012 C989 0.950 . S
H1013 C991 0.950 . S
C1014 C1015 1.349 . S
C1014 C1016 1.327 . S
C1014 H1039 0.950 . S
C1015 C1014 1.349 . S
C1015 C1031 1.349 . S
C1016 C1014 1.327 . S
C1016 C1035 1.429 . S
C1016 H1040 0.950 . S
C1017 C1034 1.580 . S
C1017 C1036 1.360 1_545 S
C1017 H1041 0.947 . S
H1018 C1022 0.949 . S
C1019 C1020 1.349 . S
C1019 C1021 1.327 . S
C1019 H1042 0.950 . S
C1020 C1019 1.349 . S
C1020 C1032 1.349 . S
C1021 C1019 1.327 . S
C1021 C1037 1.429 . S
C1021 H1043 0.950 . S
C1022 H1018 0.949 . S
C1022 C1030 1.574 . S
C1022 C1038 1.368 1_565 S
H1023 C1031 0.950 . S
H1024 C1029 0.950 . S
H1025 C1030 0.949 . S
H1026 C1032 0.950 . S
H1027 C1033 0.950 . S
H1028 C1034 0.949 . S
C1029 H1024 0.950 . S
C1029 C1031 1.327 . S
C1029 C1035 1.429 . S
C1030 C1022 1.574 . S
C1030 H1025 0.949 . S
C1030 C1036 1.368 . S
C1031 C1015 1.349 . S
C1031 H1023 0.950 . S
C1031 C1029 1.327 . S
C1032 C1020 1.349 . S
C1032 H1026 0.950 . S
C1032 C1033 1.327 . S
C1033 H1027 0.950 . S
C1033 C1032 1.327 . S
C1033 C1037 1.429 . S
C1034 C1017 1.580 . S
C1034 H1028 0.949 . S
C1034 C1038 1.368 . S
C1035 C1016 1.429 . S
C1035 C1029 1.429 . S
C1035 C1036 1.523 . S
C1036 C1017 1.360 1_565 S
C1036 C1030 1.368 . S
C1036 C1035 1.523 . S
C1037 C1021 1.429 . S
C1037 C1033 1.429 . S
C1037 C1038 1.523 . S
C1038 C1022 1.368 1_545 S
C1038 C1034 1.368 . S
C1038 C1037 1.523 . S
H1039 C1014 0.950 . S
H1040 C1016 0.950 . S
H1041 C1017 0.947 . S
H1042 C1019 0.950 . S
H1043 C1021 0.950 . S
C1044 C1045 1.349 . S
C1044 C1046 1.327 . S
C1044 H1069 0.950 . S
C1045 C1044 1.349 . S
C1045 C1061 1.349 . S
C1046 C1044 1.327 . S
C1046 C1065 1.429 . S
C1046 H1070 0.950 . S
C1047 C1064 1.574 1_545 S
C1047 C1066 1.368 . S
C1047 H1071 0.949 . S
H1048 C1052 0.949 . S
C1049 C1050 1.349 . S
C1049 C1051 1.327 . S
C1049 H1072 0.950 . S
C1050 C1049 1.349 . S
C1050 C1062 1.349 . S
C1051 C1049 1.327 . S
C1051 C1067 1.429 . S
C1051 H1073 0.950 . S
C1052 H1048 0.949 . S
C1052 C1060 1.574 1_565 S
C1052 C1068 1.368 . S
H1053 C1061 0.950 . S
H1054 C1059 0.950 . S
H1055 C1060 0.949 . S
H1056 C1062 0.950 . S
H1057 C1063 0.950 . S
H1058 C1064 0.949 . S
C1059 H1054 0.950 . S
C1059 C1061 1.327 . S
C1059 C1065 1.429 . S
C1060 C1052 1.574 1_545 S
C1060 H1055 0.949 . S
C1060 C1066 1.368 . S
C1061 C1045 1.349 . S
C1061 H1053 0.950 . S
C1061 C1059 1.327 . S
C1062 C1050 1.349 . S
C1062 H1056 0.950 . S
C1062 C1063 1.327 . S
C1063 H1057 0.950 . S
C1063 C1062 1.327 . S
C1063 C1067 1.429 . S
C1064 C1047 1.574 1_565 S
C1064 H1058 0.949 . S
C1064 C1068 1.368 . S
C1065 C1046 1.429 . S
C1065 C1059 1.429 . S
C1065 C1066 1.523 . S
C1066 C1047 1.368 . S
C1066 C1060 1.368 . S
C1066 C1065 1.523 . S
C1067 C1051 1.429 . S
C1067 C1063 1.429 . S
C1067 C1068 1.523 . S
C1068 C1052 1.368 . S
C1068 C1064 1.368 . S
C1068 C1067 1.523 . S
H1069 C1044 0.950 . S
H1070 C1046 0.950 . S
H1071 C1047 0.949 . S
H1072 C1049 0.950 . S
H1073 C1051 0.950 . S
C1074 C1075 1.349 . S
C1074 C1076 1.327 . S
C1074 H1099 0.950 . S
C1075 C1074 1.349 . S
C1075 C1091 1.349 . S
C1076 C1074 1.327 . S
C1076 C1095 1.429 . S
C1076 H1100 0.950 . S
C1077 C1094 1.574 1_455 S
C1077 C1096 1.368 . S
C1077 H1101 0.949 . S
H1078 C1082 0.949 . S
C1079 C1080 1.349 . S
C1079 C1081 1.327 . S
C1079 H1102 0.950 . S
C1080 C1079 1.349 . S
C1080 C1092 1.349 . S
C1081 C1079 1.327 . S
C1081 C1097 1.429 . S
C1081 H1103 0.950 . S
C1082 H1078 0.949 . S
C1082 C1090 1.574 1_655 S
C1082 C1098 1.368 . S
H1083 C1091 0.950 . S
H1084 C1089 0.950 . S
H1085 C1090 0.949 . S
H1086 C1092 0.950 . S
H1087 C1093 0.950 . S
H1088 C1094 0.949 . S
C1089 H1084 0.950 . S
C1089 C1091 1.327 . S
C1089 C1095 1.429 . S
C1090 C1082 1.574 1_455 S
C1090 H1085 0.949 . S
C1090 C1096 1.368 . S
C1091 C1075 1.349 . S
C1091 H1083 0.950 . S
C1091 C1089 1.327 . S
C1092 C1080 1.349 . S
C1092 H1086 0.950 . S
C1092 C1093 1.327 . S
C1093 H1087 0.950 . S
C1093 C1092 1.327 . S
C1093 C1097 1.429 . S
C1094 C1077 1.574 1_655 S
C1094 H1088 0.949 . S
C1094 C1098 1.368 . S
C1095 C1076 1.429 . S
C1095 C1089 1.429 . S
C1095 C1096 1.523 . S
C1096 C1077 1.368 . S
C1096 C1090 1.368 . S
C1096 C1095 1.523 . S
C1097 C1081 1.429 . S
C1097 C1093 1.429 . S
C1097 C1098 1.523 . S
C1098 C1082 1.368 . S
C1098 C1094 1.368 . S
C1098 C1097 1.523 . S
H1099 C1074 0.950 . S
H1100 C1076 0.950 . S
H1101 C1077 0.949 . S
H1102 C1079 0.950 . S
H1103 C1081 0.950 . S
C1104 C1105 1.349 . S
C1104 C1106 1.327 . S
C1104 H1129 0.950 . S
C1105 C1104 1.349 . S
C1105 C1121 1.349 . S
C1106 C1104 1.327 . S
C1106 C1125 1.429 . S
C1106 H1130 0.950 . S
C1107 C1124 1.574 . S
C1107 C1126 1.368 . S
C1107 H1131 0.949 . S
H1108 C1112 0.949 . S
C1109 C1110 1.349 . S
C1109 C1111 1.327 . S
C1109 H1132 0.950 . S
C1110 C1109 1.349 . S
C1110 C1122 1.349 . S
C1111 C1109 1.327 . S
C1111 C1127 1.429 . S
C1111 H1133 0.950 . S
C1112 H1108 0.949 . S
C1112 C1120 1.574 . S
C1112 C1128 1.368 . S
H1113 C1121 0.950 . S
H1114 C1119 0.950 . S
H1115 C1120 0.949 . S
H1116 C1122 0.950 . S
H1117 C1123 0.950 . S
H1118 C1124 0.949 . S
C1119 H1114 0.950 . S
C1119 C1121 1.327 . S
C1119 C1125 1.429 . S
C1120 C1112 1.574 . S
C1120 H1115 0.949 . S
C1120 C1126 1.368 . S
C1121 C1105 1.349 . S
C1121 H1113 0.950 . S
C1121 C1119 1.327 . S
C1122 C1110 1.349 . S
C1122 H1116 0.950 . S
C1122 C1123 1.327 . S
C1123 H1117 0.950 . S
C1123 C1122 1.327 . S
C1123 C1127 1.429 . S
C1124 C1107 1.574 . S
C1124 H1118 0.949 . S
C1124 C1128 1.368 . S
C1125 C1106 1.429 . S
C1125 C1119 1.429 . S
C1125 C1126 1.523 . S
C1126 C1107 1.368 . S
C1126 C1120 1.368 . S
C1126 C1125 1.523 . S
C1127 C1111 1.429 . S
C1127 C1123 1.429 . S
C1127 C1128 1.523 . S
C1128 C1112 1.368 . S
C1128 C1124 1.368 . S
C1128 C1127 1.523 . S
H1129 C1104 0.950 . S
H1130 C1106 0.950 . S
H1131 C1107 0.949 . S
H1132 C1109 0.950 . S
H1133 C1111 0.950 . S
C1134 C1135 1.349 . S
C1134 C1136 1.327 . S
C1134 H1159 0.950 . S
C1135 C1134 1.349 . S
C1135 C1151 1.349 . S
C1136 C1134 1.327 . S
C1136 C1155 1.429 . S
C1136 H1160 0.950 . S
C1137 C1154 1.574 . S
C1137 C1156 1.368 . S
C1137 H1161 0.949 . S
H1138 C1142 0.949 . S
C1139 C1140 1.349 . S
C1139 C1141 1.327 . S
C1139 H1162 0.950 . S
C1140 C1139 1.349 . S
C1140 C1152 1.349 . S
C1141 C1139 1.327 . S
C1141 C1157 1.429 . S
C1141 H1163 0.950 . S
C1142 H1138 0.949 . S
C1142 C1150 1.574 . S
C1142 C1158 1.368 . S
H1143 C1151 0.950 . S
H1144 C1149 0.950 . S
H1145 C1150 0.949 . S
H1146 C1152 0.950 . S
H1147 C1153 0.950 . S
H1148 C1154 0.949 . S
C1149 H1144 0.950 . S
C1149 C1151 1.327 . S
C1149 C1155 1.429 . S
C1150 C1142 1.574 . S
C1150 H1145 0.949 . S
C1150 C1156 1.368 . S
C1151 C1135 1.349 . S
C1151 H1143 0.950 . S
C1151 C1149 1.327 . S
C1152 C1140 1.349 . S
C1152 H1146 0.950 . S
C1152 C1153 1.327 . S
C1153 H1147 0.950 . S
C1153 C1152 1.327 . S
C1153 C1157 1.429 . S
C1154 C1137 1.574 . S
C1154 H1148 0.949 . S
C1154 C1158 1.368 . S
C1155 C1136 1.429 . S
C1155 C1149 1.429 . S
C1155 C1156 1.523 . S
C1156 C1137 1.368 . S
C1156 C1150 1.368 . S
C1156 C1155 1.523 . S
C1157 C1141 1.429 . S
C1157 C1153 1.429 . S
C1157 C1158 1.523 . S
C1158 C1142 1.368 . S
C1158 C1154 1.368 . S
C1158 C1157 1.523 . S
H1159 C1134 0.950 . S
H1160 C1136 0.950 . S
H1161 C1137 0.949 . S
H1162 C1139 0.950 . S
H1163 C1141 0.950 . S
C1164 C1165 1.349 . S
C1164 C1166 1.327 . S
C1164 H1189 0.950 . S
C1165 C1164 1.349 . S
C1165 C1181 1.349 . S
C1166 C1164 1.327 . S
C1166 C1185 1.429 . S
C1166 H1190 0.950 . S
C1167 C1184 1.574 . S
C1167 C1186 1.368 . S
C1167 H1191 0.949 . S
H1168 C1172 0.949 . S
C1169 C1170 1.349 . S
C1169 C1171 1.327 . S
C1169 H1192 0.950 . S
C1170 C1169 1.349 . S
C1170 C1182 1.349 . S
C1171 C1169 1.327 . S
C1171 C1187 1.429 . S
C1171 H1193 0.950 . S
C1172 H1168 0.949 . S
C1172 C1180 1.574 . S
C1172 C1188 1.368 . S
H1173 C1181 0.950 . S
H1174 C1179 0.950 . S
H1175 C1180 0.949 . S
H1176 C1182 0.950 . S
H1177 C1183 0.950 . S
H1178 C1184 0.949 . S
C1179 H1174 0.950 . S
C1179 C1181 1.327 . S
C1179 C1185 1.429 . S
C1180 C1172 1.574 . S
C1180 H1175 0.949 . S
C1180 C1186 1.368 . S
C1181 C1165 1.349 . S
C1181 H1173 0.950 . S
C1181 C1179 1.327 . S
C1182 C1170 1.349 . S
C1182 H1176 0.950 . S
C1182 C1183 1.327 . S
C1183 H1177 0.950 . S
C1183 C1182 1.327 . S
C1183 C1187 1.429 . S
C1184 C1167 1.574 . S
C1184 H1178 0.949 . S
C1184 C1188 1.368 . S
C1185 C1166 1.429 . S
C1185 C1179 1.429 . S
C1185 C1186 1.523 . S
C1186 C1167 1.368 . S
C1186 C1180 1.368 . S
C1186 C1185 1.523 . S
C1187 C1171 1.429 . S
C1187 C1183 1.429 . S
C1187 C1188 1.523 . S
C1188 C1172 1.368 . S
C1188 C1184 1.368 . S
C1188 C1187 1.523 . S
H1189 C1164 0.950 . S
H1190 C1166 0.950 . S
H1191 C1167 0.949 . S
H1192 C1169 0.950 . S
H1193 C1171 0.950 . S
C1194 C1195 1.349 . S
C1194 C1196 1.327 . S
C1194 H1219 0.950 . S
C1195 C1194 1.349 . S
C1195 C1211 1.349 . S
C1196 C1194 1.327 . S
C1196 C1215 1.429 . S
C1196 H1220 0.950 . S
C1197 C1214 1.574 . S
C1197 C1216 1.368 . S
C1197 H1221 0.949 . S
H1198 C1202 0.949 . S
C1199 C1200 1.349 . S
C1199 C1201 1.327 . S
C1199 H1222 0.950 . S
C1200 C1199 1.349 . S
C1200 C1212 1.349 . S
C1201 C1199 1.327 . S
C1201 C1217 1.429 . S
C1201 H1223 0.950 . S
C1202 H1198 0.949 . S
C1202 C1210 1.574 . S
C1202 C1218 1.368 . S
H1203 C1211 0.950 . S
H1204 C1209 0.950 . S
H1205 C1210 0.949 . S
H1206 C1212 0.950 . S
H1207 C1213 0.950 . S
H1208 C1214 0.949 . S
C1209 H1204 0.950 . S
C1209 C1211 1.327 . S
C1209 C1215 1.429 . S
C1210 C1202 1.574 . S
C1210 H1205 0.949 . S
C1210 C1216 1.368 . S
C1211 C1195 1.349 . S
C1211 H1203 0.950 . S
C1211 C1209 1.327 . S
C1212 C1200 1.349 . S
C1212 H1206 0.950 . S
C1212 C1213 1.327 . S
C1213 H1207 0.950 . S
C1213 C1212 1.327 . S
C1213 C1217 1.429 . S
C1214 C1197 1.574 . S
C1214 H1208 0.949 . S
C1214 C1218 1.368 . S
C1215 C1196 1.429 . S
C1215 C1209 1.429 . S
C1215 C1216 1.523 . S
C1216 C1197 1.368 . S
C1216 C1210 1.368 . S
C1216 C1215 1.523 . S
C1217 C1201 1.429 . S
C1217 C1213 1.429 . S
C1217 C1218 1.523 . S
C1218 C1202 1.368 . S
C1218 C1214 1.368 . S
C1218 C1217 1.523 . S
H1219 C1194 0.950 . S
H1220 C1196 0.950 . S
H1221 C1197 0.949 . S
H1222 C1199 0.950 . S
H1223 C1201 0.950 . S
C1224 C1225 1.349 . S
C1224 C1226 1.327 . S
C1224 H1249 0.950 . S
C1225 C1224 1.349 . S
C1225 C1241 1.349 . S
C1226 C1224 1.327 . S
C1226 C1245 1.429 . S
C1226 H1250 0.950 . S
C1227 C1244 1.574 . S
C1227 C1246 1.368 . S
C1227 H1251 0.949 . S
H1228 C1232 0.949 . S
C1229 C1230 1.349 . S
C1229 C1231 1.327 . S
C1229 H1252 0.950 . S
C1230 C1229 1.349 . S
C1230 C1242 1.349 . S
C1231 C1229 1.327 . S
C1231 C1247 1.429 . S
C1231 H1253 0.950 . S
C1232 H1228 0.949 . S
C1232 C1240 1.574 . S
C1232 C1248 1.368 . S
H1233 C1241 0.950 . S
H1234 C1239 0.950 . S
H1235 C1240 0.949 . S
H1236 C1242 0.950 . S
H1237 C1243 0.950 . S
H1238 C1244 0.949 . S
C1239 H1234 0.950 . S
C1239 C1241 1.327 . S
C1239 C1245 1.429 . S
C1240 C1232 1.574 . S
C1240 H1235 0.949 . S
C1240 C1246 1.368 . S
C1241 C1225 1.349 . S
C1241 H1233 0.950 . S
C1241 C1239 1.327 . S
C1242 C1230 1.349 . S
C1242 H1236 0.950 . S
C1242 C1243 1.327 . S
C1243 H1237 0.950 . S
C1243 C1242 1.327 . S
C1243 C1247 1.429 . S
C1244 C1227 1.574 . S
C1244 H1238 0.949 . S
C1244 C1248 1.368 . S
C1245 C1226 1.429 . S
C1245 C1239 1.429 . S
C1245 C1246 1.523 . S
C1246 C1227 1.368 . S
C1246 C1240 1.368 . S
C1246 C1245 1.523 . S
C1247 C1231 1.429 . S
C1247 C1243 1.429 . S
C1247 C1248 1.523 . S
C1248 C1232 1.368 . S
C1248 C1244 1.368 . S
C1248 C1247 1.523 . S
H1249 C1224 0.950 . S
H1250 C1226 0.950 . S
H1251 C1227 0.949 . S
H1252 C1229 0.950 . S
H1253 C1231 0.950 . S
C1254 C1255 1.349 . S
C1254 C1256 1.327 . S
C1254 H1279 0.950 . S
C1255 C1254 1.349 . S
C1255 C1271 1.349 . S
C1256 C1254 1.327 . S
C1256 C1275 1.429 . S
C1256 H1280 0.950 . S
C1257 C1274 1.574 . S
C1257 C1276 1.368 . S
C1257 H1281 0.949 . S
H1258 C1262 0.949 . S
C1259 C1260 1.349 . S
C1259 C1261 1.327 . S
C1259 H1282 0.950 . S
C1260 C1259 1.349 . S
C1260 C1272 1.349 . S
C1261 C1259 1.327 . S
C1261 C1277 1.429 . S
C1261 H1283 0.950 . S
C1262 H1258 0.949 . S
C1262 C1270 1.574 . S
C1262 C1278 1.368 . S
H1263 C1271 0.950 . S
H1264 C1269 0.950 . S
H1265 C1270 0.949 . S
H1266 C1272 0.950 . S
H1267 C1273 0.950 . S
H1268 C1274 0.949 . S
C1269 H1264 0.950 . S
C1269 C1271 1.327 . S
C1269 C1275 1.429 . S
C1270 C1262 1.574 . S
C1270 H1265 0.949 . S
C1270 C1276 1.368 . S
C1271 C1255 1.349 . S
C1271 H1263 0.950 . S
C1271 C1269 1.327 . S
C1272 C1260 1.349 . S
C1272 H1266 0.950 . S
C1272 C1273 1.327 . S
C1273 H1267 0.950 . S
C1273 C1272 1.327 . S
C1273 C1277 1.429 . S
C1274 C1257 1.574 . S
C1274 H1268 0.949 . S
C1274 C1278 1.368 . S
C1275 C1256 1.429 . S
C1275 C1269 1.429 . S
C1275 C1276 1.523 . S
C1276 C1257 1.368 . S
C1276 C1270 1.368 . S
C1276 C1275 1.523 . S
C1277 C1261 1.429 . S
C1277 C1273 1.429 . S
C1277 C1278 1.523 . S
C1278 C1262 1.368 . S
C1278 C1274 1.368 . S
C1278 C1277 1.523 . S
H1279 C1254 0.950 . S
H1280 C1256 0.950 . S
H1281 C1257 0.949 . S
H1282 C1259 0.950 . S
H1283 C1261 0.950 . S
C1284 C1285 1.349 . S
C1284 C1286 1.327 . S
C1284 H1309 0.950 . S
C1285 C1284 1.349 . S
C1285 C1301 1.349 . S
C1286 C1284 1.327 . S
C1286 C1305 1.429 . S
C1286 H1310 0.950 . S
C1287 C1304 1.574 . S
C1287 C1306 1.368 . S
C1287 H1311 0.949 . S
H1288 C1292 0.949 . S
C1289 C1290 1.349 . S
C1289 C1291 1.327 . S
C1289 H1312 0.950 . S
C1290 C1289 1.349 . S
C1290 C1302 1.349 . S
C1291 C1289 1.327 . S
C1291 C1307 1.429 . S
C1291 H1313 0.950 . S
C1292 H1288 0.949 . S
C1292 C1300 1.574 . S
C1292 C1308 1.368 . S
H1293 C1301 0.950 . S
H1294 C1299 0.950 . S
H1295 C1300 0.949 . S
H1296 C1302 0.950 . S
H1297 C1303 0.950 . S
H1298 C1304 0.949 . S
C1299 H1294 0.950 . S
C1299 C1301 1.327 . S
C1299 C1305 1.429 . S
C1300 C1292 1.574 . S
C1300 H1295 0.949 . S
C1300 C1306 1.368 . S
C1301 C1285 1.349 . S
C1301 H1293 0.950 . S
C1301 C1299 1.327 . S
C1302 C1290 1.349 . S
C1302 H1296 0.950 . S
C1302 C1303 1.327 . S
C1303 H1297 0.950 . S
C1303 C1302 1.327 . S
C1303 C1307 1.429 . S
C1304 C1287 1.574 . S
C1304 H1298 0.949 . S
C1304 C1308 1.368 . S
C1305 C1286 1.429 . S
C1305 C1299 1.429 . S
C1305 C1306 1.523 . S
C1306 C1287 1.368 . S
C1306 C1300 1.368 . S
C1306 C1305 1.523 . S
C1307 C1291 1.429 . S
C1307 C1303 1.429 . S
C1307 C1308 1.523 . S
C1308 C1292 1.368 . S
C1308 C1304 1.368 . S
C1308 C1307 1.523 . S
H1309 C1284 0.950 . S
H1310 C1286 0.950 . S
H1311 C1287 0.949 . S
H1312 C1289 0.950 . S
H1313 C1291 0.950 . S
C1314 C1315 1.349 1_455 S
C1314 C1316 1.327 . S
C1314 H1339 0.950 . S
C1315 C1314 1.349 1_655 S
C1315 C1331 1.349 . S
C1316 C1314 1.327 . S
C1316 C1335 1.429 1_455 S
C1316 H1340 0.950 . S
C1317 C1334 1.574 1_554 S
C1317 C1336 1.368 . S
C1317 H1341 0.949 . S
H1318 C1322 0.949 . S
C1319 C1320 1.349 1_655 S
C1319 C1321 1.327 . S
C1319 H1342 0.950 . S
C1320 C1319 1.349 1_455 S
C1320 C1332 1.349 . S
C1321 C1319 1.327 . S
C1321 C1337 1.429 1_655 S
C1321 H1343 0.950 . S
C1322 H1318 0.949 . S
C1322 C1330 1.574 1_556 S
C1322 C1338 1.368 . S
H1323 C1331 0.950 . S
H1324 C1329 0.950 . S
H1325 C1330 0.949 . S
H1326 C1332 0.950 . S
H1327 C1333 0.950 . S
H1328 C1334 0.949 . S
C1329 H1324 0.950 . S
C1329 C1331 1.327 . S
C1329 C1335 1.429 . S
C1330 C1322 1.574 1_554 S
C1330 H1325 0.949 . S
C1330 C1336 1.368 1_455 S
C1331 C1315 1.349 . S
C1331 H1323 0.950 . S
C1331 C1329 1.327 . S
C1332 C1320 1.349 . S
C1332 H1326 0.950 . S
C1332 C1333 1.327 . S
C1333 H1327 0.950 . S
C1333 C1332 1.327 . S
C1333 C1337 1.429 . S
C1334 C1317 1.574 1_556 S
C1334 H1328 0.949 . S
C1334 C1338 1.368 1_655 S
C1335 C1316 1.429 1_655 S
C1335 C1329 1.429 . S
C1335 C1336 1.523 . S
C1336 C1317 1.368 . S
C1336 C1330 1.368 1_655 S
C1336 C1335 1.523 . S
C1337 C1321 1.429 1_455 S
C1337 C1333 1.429 . S
C1337 C1338 1.523 . S
C1338 C1322 1.368 . S
C1338 C1334 1.368 1_455 S
C1338 C1337 1.523 . S
H1339 C1314 0.950 . S
H1340 C1316 0.950 . S
H1341 C1317 0.949 . S
H1342 C1319 0.950 . S
H1343 C1321 0.950 . S
C1344 C1345 1.349 . S
C1344 C1346 1.327 . S
C1344 H1369 0.950 . S
C1345 C1344 1.349 . S
C1345 C1361 1.349 . S
C1346 C1344 1.327 . S
C1346 C1365 1.429 . S
C1346 H1370 0.950 . S
C1347 C1364 1.574 1_554 S
C1347 C1366 1.368 . S
C1347 H1371 0.949 . S
H1348 C1352 0.949 . S
C1349 C1350 1.349 . S
C1349 C1351 1.327 . S
C1349 H1372 0.950 . S
C1350 C1349 1.349 . S
C1350 C1362 1.349 . S
C1351 C1349 1.327 . S
C1351 C1367 1.429 . S
C1351 H1373 0.950 . S
C1352 H1348 0.949 . S
C1352 C1360 1.574 1_556 S
C1352 C1368 1.368 . S
H1353 C1361 0.950 . S
H1354 C1359 0.950 . S
H1355 C1360 0.949 . S
H1356 C1362 0.950 . S
H1357 C1363 0.950 . S
H1358 C1364 0.949 . S
C1359 H1354 0.950 . S
C1359 C1361 1.327 . S
C1359 C1365 1.429 . S
C1360 C1352 1.574 1_554 S
C1360 H1355 0.949 . S
C1360 C1366 1.368 . S
C1361 C1345 1.349 . S
C1361 H1353 0.950 . S
C1361 C1359 1.327 . S
C1362 C1350 1.349 . S
C1362 H1356 0.950 . S
C1362 C1363 1.327 . S
C1363 H1357 0.950 . S
C1363 C1362 1.327 . S
C1363 C1367 1.429 . S
C1364 C1347 1.574 1_556 S
C1364 H1358 0.949 . S
C1364 C1368 1.368 . S
C1365 C1346 1.429 . S
C1365 C1359 1.429 . S
C1365 C1366 1.523 . S
C1366 C1347 1.368 . S
C1366 C1360 1.368 . S
C1366 C1365 1.523 . S
C1367 C1351 1.429 . S
C1367 C1363 1.429 . S
C1367 C1368 1.523 . S
C1368 C1352 1.368 . S
C1368 C1364 1.368 . S
C1368 C1367 1.523 . S
H1369 C1344 0.950 . S
H1370 C1346 0.950 . S
H1371 C1347 0.949 . S
H1372 C1349 0.950 . S
H1373 C1351 0.950 . S
C1374 C1375 1.349 1_565 S
C1374 C1376 1.327 . S
C1374 H1399 0.950 . S
C1375 C1374 1.349 1_545 S
C1375 C1391 1.349 . S
C1376 C1374 1.327 . S
C1376 C1395 1.429 1_565 S
C1376 H1400 0.950 . S
C1377 C1394 1.574 1_554 S
C1377 C1396 1.368 . S
C1377 H1401 0.949 . S
H1378 C1382 0.949 . S
C1379 C1380 1.364 . S
C1379 C1381 1.322 1_565 S
C1379 H1402 0.941 1_565 S
C1380 C1379 1.364 . S
C1380 C1392 1.349 . S
C1381 C1379 1.322 1_545 S
C1381 C1397 1.429 1_545 S
C1381 H1403 0.950 . S
C1382 H1378 0.949 . S
C1382 C1390 1.574 1_556 S
C1382 C1398 1.368 . S
H1383 C1391 0.950 . S
H1384 C1389 0.950 . S
H1385 C1390 0.949 . S
H1386 C1392 0.950 . S
H1387 C1393 0.950 . S
H1388 C1394 0.949 . S
C1389 H1384 0.950 . S
C1389 C1391 1.327 . S
C1389 C1395 1.429 . S
C1390 C1382 1.574 1_554 S
C1390 H1385 0.949 . S
C1390 C1396 1.368 1_565 S
C1391 C1375 1.349 . S
C1391 H1383 0.950 . S
C1391 C1389 1.327 . S
C1392 C1380 1.349 . S
C1392 H1386 0.950 . S
C1392 C1393 1.327 . S
C1393 H1387 0.950 . S
C1393 C1392 1.327 . S
C1393 C1397 1.429 . S
C1394 C1377 1.574 1_556 S
C1394 H1388 0.949 . S
C1394 C1398 1.368 1_545 S
C1395 C1376 1.429 1_545 S
C1395 C1389 1.429 . S
C1395 C1396 1.523 . S
C1396 C1377 1.368 . S
C1396 C1390 1.368 1_545 S
C1396 C1395 1.523 . S
C1397 C1381 1.429 1_565 S
C1397 C1393 1.429 . S
C1397 C1398 1.523 . S
C1398 C1382 1.368 . S
C1398 C1394 1.368 1_565 S
C1398 C1397 1.523 . S
H1399 C1374 0.950 . S
H1400 C1376 0.950 . S
H1401 C1377 0.949 . S
H1402 C1379 0.941 1_545 S
H1403 C1381 0.950 . S
C1404 C1405 1.349 1_545 S
C1404 C1406 1.327 . S
C1404 H1429 0.950 . S
C1405 C1404 1.349 1_565 S
C1405 C1421 1.349 . S
C1406 C1404 1.327 . S
C1406 C1425 1.429 . S
C1406 H1430 0.950 . S
C1407 C1424 1.574 . S
C1407 C1426 1.368 . S
C1407 H1431 0.949 . S
H1408 C1412 0.949 . S
C1409 C1410 1.349 . S
C1409 C1411 1.327 . S
C1409 H1432 0.950 . S
C1410 C1409 1.349 . S
C1410 C1422 1.349 . S
C1411 C1409 1.327 . S
C1411 C1427 1.429 . S
C1411 H1433 0.950 . S
C1412 H1408 0.949 . S
C1412 C1420 1.574 . S
C1412 C1428 1.368 . S
H1413 C1421 0.950 . S
H1414 C1419 0.950 . S
H1415 C1420 0.949 . S
H1416 C1422 0.950 . S
H1417 C1423 0.950 . S
H1418 C1424 0.949 . S
C1419 H1414 0.950 . S
C1419 C1421 1.327 1_545 S
C1419 C1425 1.429 . S
C1420 C1412 1.574 . S
C1420 H1415 0.949 . S
C1420 C1426 1.368 . S
C1421 C1405 1.349 . S
C1421 H1413 0.950 . S
C1421 C1419 1.327 1_565 S
C1422 C1410 1.349 . S
C1422 H1416 0.950 . S
C1422 C1423 1.327 . S
C1423 H1417 0.950 . S
C1423 C1422 1.327 . S
C1423 C1427 1.429 . S
C1424 C1407 1.574 . S
C1424 H1418 0.949 . S
C1424 C1428 1.368 . S
C1425 C1406 1.429 . S
C1425 C1419 1.429 . S
C1425 C1426 1.523 . S
C1426 C1407 1.368 . S
C1426 C1420 1.368 . S
C1426 C1425 1.523 . S
C1427 C1411 1.429 . S
C1427 C1423 1.429 . S
C1427 C1428 1.523 . S
C1428 C1412 1.368 . S
C1428 C1424 1.368 . S
C1428 C1427 1.523 . S
H1429 C1404 0.950 . S
H1430 C1406 0.950 . S
H1431 C1407 0.949 . S
H1432 C1409 0.950 . S
H1433 C1411 0.950 . S
C1434 C1435 1.349 . S
C1434 C1436 1.327 . S
C1434 H1459 0.950 . S
C1435 C1434 1.349 . S
C1435 C1451 1.349 . S
C1436 C1434 1.327 . S
C1436 C1455 1.429 . S
C1436 H1460 0.950 . S
C1437 C1454 1.574 . S
C1437 C1456 1.368 . S
C1437 H1461 0.949 . S
H1438 C1442 0.949 . S
C1439 C1440 1.349 1_655 S
C1439 C1441 1.327 . S
C1439 H1462 0.950 . S
C1440 C1439 1.349 1_455 S
C1440 C1452 1.349 . S
C1441 C1439 1.327 . S
C1441 C1457 1.429 . S
C1441 H1463 0.950 . S
C1442 H1438 0.949 . S
C1442 C1450 1.574 . S
C1442 C1458 1.368 . S
H1443 C1451 0.950 . S
H1444 C1449 0.957 . S
H1445 C1450 0.949 . S
H1446 C1452 0.950 . S
H1447 C1453 0.950 . S
H1448 C1454 0.949 . S
C1449 H1444 0.957 . S
C1449 C1451 1.327 . S
C1449 C1455 1.429 . S
C1450 C1442 1.574 . S
C1450 H1445 0.949 . S
C1450 C1456 1.368 . S
C1451 C1435 1.349 . S
C1451 H1443 0.950 . S
C1451 C1449 1.327 . S
C1452 C1440 1.349 . S
C1452 H1446 0.950 . S
C1452 C1453 1.327 1_455 S
C1453 H1447 0.950 . S
C1453 C1452 1.327 1_655 S
C1453 C1457 1.429 . S
C1454 C1437 1.574 . S
C1454 H1448 0.949 . S
C1454 C1458 1.368 . S
C1455 C1436 1.429 . S
C1455 C1449 1.429 . S
C1455 C1456 1.523 1_565 S
C1456 C1437 1.368 . S
C1456 C1450 1.368 . S
C1456 C1455 1.523 1_545 S
C1457 C1441 1.429 . S
C1457 C1453 1.429 . S
C1457 C1458 1.523 . S
C1458 C1442 1.368 . S
C1458 C1454 1.368 . S
C1458 C1457 1.523 . S
H1459 C1434 0.950 . S
H1460 C1436 0.950 . S
H1461 C1437 0.949 . S
H1462 C1439 0.950 . S
H1463 C1441 0.950 . S
C1464 C1465 1.349 . S
C1464 C1466 1.327 . S
C1464 H1489 0.950 . S
C1465 C1464 1.349 . S
C1465 C1481 1.349 . S
C1466 C1464 1.327 . S
C1466 C1485 1.429 . S
C1466 H1490 0.950 . S
C1467 C1484 1.574 . S
C1467 C1486 1.368 . S
C1467 H1491 0.949 . S
H1468 C1472 0.949 . S
C1469 C1470 1.349 . S
C1469 C1471 1.327 . S
C1469 H1492 0.950 . S
C1470 C1469 1.349 . S
C1470 C1482 1.349 . S
C1471 C1469 1.327 . S
C1471 C1487 1.429 . S
C1471 H1493 0.950 . S
C1472 H1468 0.949 . S
C1472 C1480 1.574 . S
C1472 C1488 1.368 . S
H1473 C1481 0.950 . S
H1474 C1479 0.950 . S
H1475 C1480 0.949 . S
H1476 C1482 0.950 . S
H1477 C1483 0.950 . S
H1478 C1484 0.949 . S
C1479 H1474 0.950 . S
C1479 C1481 1.327 . S
C1479 C1485 1.429 . S
C1480 C1472 1.574 . S
C1480 H1475 0.949 . S
C1480 C1486 1.368 . S
C1481 C1465 1.349 . S
C1481 H1473 0.950 . S
C1481 C1479 1.327 . S
C1482 C1470 1.349 . S
C1482 H1476 0.950 . S
C1482 C1483 1.327 . S
C1483 H1477 0.950 . S
C1483 C1482 1.327 . S
C1483 C1487 1.429 . S
C1484 C1467 1.574 . S
C1484 H1478 0.949 . S
C1484 C1488 1.368 . S
C1485 C1466 1.429 . S
C1485 C1479 1.429 . S
C1485 C1486 1.523 . S
C1486 C1467 1.368 . S
C1486 C1480 1.368 . S
C1486 C1485 1.523 . S
C1487 C1471 1.429 . S
C1487 C1483 1.429 . S
C1487 C1488 1.523 1_455 S
C1488 C1472 1.368 . S
C1488 C1484 1.368 . S
C1488 C1487 1.523 1_655 S
H1489 C1464 0.950 . S
H1490 C1466 0.950 . S
H1491 C1467 0.949 . S
H1492 C1469 0.950 . S
H1493 C1471 0.950 . S
C1494 C1495 1.349 . S
C1494 C1496 1.327 1_655 S
C1494 H1519 0.950 . S
C1495 C1494 1.349 . S
C1495 C1511 1.349 1_655 S
C1496 C1494 1.327 1_455 S
C1496 C1515 1.429 . S
C1496 H1520 0.950 . S
C1497 C1514 1.574 . S
C1497 C1516 1.368 . S
C1497 H1521 0.949 . S
H1498 C1502 0.949 . S
C1499 C1500 1.349 . S
C1499 C1501 1.327 . S
C1499 H1522 0.950 . S
C1500 C1499 1.349 . S
C1500 C1512 1.349 . S
C1501 C1499 1.327 . S
C1501 C1517 1.429 . S
C1501 H1523 0.950 . S
C1502 H1498 0.949 . S
C1502 C1510 1.574 . S
C1502 C1518 1.368 . S
H1503 C1511 0.950 . S
H1504 C1509 0.950 . S
H1505 C1510 0.949 . S
H1506 C1512 0.950 . S
H1507 C1513 0.950 . S
H1508 C1514 0.949 . S
C1509 H1504 0.950 . S
C1509 C1511 1.327 . S
C1509 C1515 1.429 . S
C1510 C1502 1.574 . S
C1510 H1505 0.949 . S
C1510 C1516 1.368 . S
C1511 C1495 1.349 1_455 S
C1511 H1503 0.950 . S
C1511 C1509 1.327 . S
C1512 C1500 1.349 . S
C1512 H1506 0.950 . S
C1512 C1513 1.327 . S
C1513 H1507 0.950 . S
C1513 C1512 1.327 . S
C1513 C1517 1.429 . S
C1514 C1497 1.574 . S
C1514 H1508 0.949 . S
C1514 C1518 1.368 . S
C1515 C1496 1.429 . S
C1515 C1509 1.429 . S
C1515 C1516 1.523 . S
C1516 C1497 1.368 . S
C1516 C1510 1.368 . S
C1516 C1515 1.523 . S
C1517 C1501 1.429 . S
C1517 C1513 1.429 . S
C1517 C1518 1.523 . S
C1518 C1502 1.368 . S
C1518 C1514 1.368 . S
C1518 C1517 1.523 . S
H1519 C1494 0.950 . S
H1520 C1496 0.950 . S
H1521 C1497 0.949 . S
H1522 C1499 0.950 . S
H1523 C1501 0.950 . S
C1524 C1525 1.349 . S
C1524 C1526 1.327 . S
C1524 H1549 0.950 . S
C1525 C1524 1.349 . S
C1525 C1541 1.349 . S
C1526 C1524 1.327 . S
C1526 C1545 1.429 . S
C1526 H1550 0.950 . S
C1527 C1544 1.574 . S
C1527 C1546 1.368 . S
C1527 H1551 0.949 . S
H1528 C1532 0.949 . S
C1529 C1530 1.349 . S
C1529 C1531 1.327 . S
C1529 H1552 0.950 . S
C1530 C1529 1.349 . S
C1530 C1542 1.349 . S
C1531 C1529 1.327 . S
C1531 C1547 1.429 . S
C1531 H1553 0.950 . S
C1532 H1528 0.949 . S
C1532 C1540 1.574 . S
C1532 C1548 1.368 . S
H1533 C1541 0.950 . S
H1534 C1539 0.950 . S
H1535 C1540 0.949 . S
H1536 C1542 0.950 . S
H1537 C1543 0.950 . S
H1538 C1544 0.949 . S
C1539 H1534 0.950 . S
C1539 C1541 1.327 . S
C1539 C1545 1.429 . S
C1540 C1532 1.574 . S
C1540 H1535 0.949 . S
C1540 C1546 1.368 . S
C1541 C1525 1.349 . S
C1541 H1533 0.950 . S
C1541 C1539 1.327 . S
C1542 C1530 1.349 . S
C1542 H1536 0.950 . S
C1542 C1543 1.327 . S
C1543 H1537 0.950 . S
C1543 C1542 1.327 . S
C1543 C1547 1.429 . S
C1544 C1527 1.574 . S
C1544 H1538 0.949 . S
C1544 C1548 1.368 . S
C1545 C1526 1.429 . S
C1545 C1539 1.429 . S
C1545 C1546 1.523 1_545 S
C1546 C1527 1.368 . S
C1546 C1540 1.368 . S
C1546 C1545 1.523 1_565 S
C1547 C1531 1.429 . S
C1547 C1543 1.429 . S
C1547 C1548 1.523 . S
C1548 C1532 1.368 . S
C1548 C1544 1.368 . S
C1548 C1547 1.523 . S
H1549 C1524 0.950 . S
H1550 C1526 0.950 . S
H1551 C1527 0.949 . S
H1552 C1529 0.950 . S
H1553 C1531 0.950 . S
C1554 C1555 1.349 1_565 S
C1554 C1556 1.327 . S
C1554 H1579 0.950 . S
C1555 C1554 1.349 1_545 S
C1555 C1571 1.349 . S
C1556 C1554 1.327 . S
C1556 C1575 1.429 . S
C1556 H1580 0.950 . S
C1557 C1574 1.574 . S
C1557 C1576 1.368 . S
C1557 H1581 0.949 . S
H1558 C1562 0.949 . S
C1559 C1560 1.349 . S
C1559 C1561 1.327 . S
C1559 H1582 0.950 . S
C1560 C1559 1.349 . S
C1560 C1572 1.349 . S
C1561 C1559 1.327 . S
C1561 C1577 1.429 . S
C1561 H1583 0.950 . S
C1562 H1558 0.949 . S
C1562 C1570 1.574 . S
C1562 C1578 1.368 . S
H1563 C1571 0.950 . S
H1564 C1569 0.950 . S
H1565 C1570 0.949 . S
H1566 C1572 0.950 . S
H1567 C1573 0.950 . S
H1568 C1574 0.949 . S
C1569 H1564 0.950 . S
C1569 C1571 1.327 1_565 S
C1569 C1575 1.429 . S
C1570 C1562 1.574 . S
C1570 H1565 0.949 . S
C1570 C1576 1.368 . S
C1571 C1555 1.349 . S
C1571 H1563 0.950 . S
C1571 C1569 1.327 1_545 S
C1572 C1560 1.349 . S
C1572 H1566 0.950 . S
C1572 C1573 1.327 . S
C1573 H1567 0.950 . S
C1573 C1572 1.327 . S
C1573 C1577 1.429 . S
C1574 C1557 1.574 . S
C1574 H1568 0.949 . S
C1574 C1578 1.368 . S
C1575 C1556 1.429 . S
C1575 C1569 1.429 . S
C1575 C1576 1.523 . S
C1576 C1557 1.368 . S
C1576 C1570 1.368 . S
C1576 C1575 1.523 . S
C1577 C1561 1.429 . S
C1577 C1573 1.429 . S
C1577 C1578 1.523 1_655 S
C1578 C1562 1.368 . S
C1578 C1574 1.368 . S
C1578 C1577 1.523 1_455 S
H1579 C1554 0.950 . S
H1580 C1556 0.950 . S
H1581 C1557 0.949 . S
H1582 C1559 0.950 . S
H1583 C1561 0.950 . S
C1584 C1585 1.349 . S
C1584 C1586 1.327 . S
C1584 H1609 0.950 . S
C1585 C1584 1.349 . S
C1585 C1601 1.349 . S
C1586 C1584 1.327 . S
C1586 C1605 1.429 . S
C1586 H1610 0.950 . S
C1587 C1604 1.574 . S
C1587 C1606 1.368 . S
C1587 H1611 0.949 . S
H1588 C1592 0.949 . S
C1589 C1590 1.349 . S
C1589 C1591 1.327 . S
C1589 H1612 0.950 . S
C1590 C1589 1.349 . S
C1590 C1602 1.349 . S
C1591 C1589 1.327 . S
C1591 C1607 1.429 . S
C1591 H1613 0.950 . S
C1592 H1588 0.949 . S
C1592 C1600 1.574 . S
C1592 C1608 1.368 . S
H1593 C1601 0.950 . S
H1594 C1599 0.950 . S
H1595 C1600 0.949 . S
H1596 C1602 0.950 . S
H1597 C1603 0.950 . S
H1598 C1604 0.949 . S
C1599 H1594 0.950 . S
C1599 C1601 1.327 . S
C1599 C1605 1.429 . S
C1600 C1592 1.574 . S
C1600 H1595 0.949 . S
C1600 C1606 1.368 . S
C1601 C1585 1.349 . S
C1601 H1593 0.950 . S
C1601 C1599 1.327 . S
C1602 C1590 1.349 . S
C1602 H1596 0.950 . S
C1602 C1603 1.327 . S
C1603 H1597 0.950 . S
C1603 C1602 1.327 . S
C1603 C1607 1.429 . S
C1604 C1587 1.574 . S
C1604 H1598 0.949 . S
C1604 C1608 1.368 . S
C1605 C1586 1.429 . S
C1605 C1599 1.429 . S
C1605 C1606 1.523 . S
C1606 C1587 1.368 . S
C1606 C1600 1.368 . S
C1606 C1605 1.523 . S
C1607 C1591 1.429 . S
C1607 C1603 1.429 . S
C1607 C1608 1.523 . S
C1608 C1592 1.368 . S
C1608 C1604 1.368 . S
C1608 C1607 1.523 . S
H1609 C1584 0.950 . S
H1610 C1586 0.950 . S
H1611 C1587 0.949 . S
H1612 C1589 0.950 . S
H1613 C1591 0.950 . S
C1614 C1615 1.349 . S
C1614 C1616 1.327 . S
C1614 H1639 0.950 . S
C1615 C1614 1.349 . S
C1615 C1631 1.349 . S
C1616 C1614 1.327 . S
C1616 C1635 1.429 . S
C1616 H1640 0.950 . S
C1617 C1634 1.574 . S
C1617 C1636 1.368 . S
C1617 H1641 0.949 . S
H1618 C1622 0.949 . S
C1619 C1620 1.349 . S
C1619 C1621 1.327 . S
C1619 H1642 0.950 . S
C1620 C1619 1.349 . S
C1620 C1632 1.349 . S
C1621 C1619 1.327 . S
C1621 C1637 1.429 . S
C1621 H1643 0.950 . S
C1622 H1618 0.949 . S
C1622 C1630 1.574 . S
C1622 C1638 1.368 . S
H1623 C1631 0.950 . S
H1624 C1629 0.950 . S
H1625 C1630 0.949 . S
H1626 C1632 0.950 . S
H1627 C1633 0.950 . S
H1628 C1634 0.949 . S
C1629 H1624 0.950 . S
C1629 C1631 1.327 . S
C1629 C1635 1.429 . S
C1630 C1622 1.574 . S
C1630 H1625 0.949 . S
C1630 C1636 1.368 . S
C1631 C1615 1.349 . S
C1631 H1623 0.950 . S
C1631 C1629 1.327 . S
C1632 C1620 1.349 . S
C1632 H1626 0.950 . S
C1632 C1633 1.327 . S
C1633 H1627 0.950 . S
C1633 C1632 1.327 . S
C1633 C1637 1.429 . S
C1634 C1617 1.574 . S
C1634 H1628 0.949 . S
C1634 C1638 1.368 . S
C1635 C1616 1.429 . S
C1635 C1629 1.429 . S
C1635 C1636 1.523 . S
C1636 C1617 1.368 . S
C1636 C1630 1.368 . S
C1636 C1635 1.523 . S
C1637 C1621 1.429 . S
C1637 C1633 1.429 . S
C1637 C1638 1.523 . S
C1638 C1622 1.368 . S
C1638 C1634 1.368 . S
C1638 C1637 1.523 . S
H1639 C1614 0.950 . S
H1640 C1616 0.950 . S
H1641 C1617 0.949 . S
H1642 C1619 0.950 . S
H1643 C1621 0.950 . S
C1644 C1645 1.349 . S
C1644 C1646 1.327 . S
C1644 H1669 0.950 . S
C1645 C1644 1.349 . S
C1645 C1661 1.349 . S
C1646 C1644 1.327 . S
C1646 C1665 1.429 . S
C1646 H1670 0.950 . S
C1647 C1664 1.574 . S
C1647 C1666 1.368 . S
C1647 H1671 0.949 . S
H1648 C1652 0.949 . S
C1649 C1650 1.349 . S
C1649 C1651 1.327 . S
C1649 H1672 0.950 . S
C1650 C1649 1.349 . S
C1650 C1662 1.349 . S
C1651 C1649 1.327 . S
C1651 C1667 1.429 . S
C1651 H1673 0.950 . S
C1652 H1648 0.949 . S
C1652 C1660 1.574 . S
C1652 C1668 1.368 . S
H1653 C1661 0.950 . S
H1654 C1659 0.950 . S
H1655 C1660 0.949 . S
H1656 C1662 0.950 . S
H1657 C1663 0.950 . S
H1658 C1664 0.949 . S
C1659 H1654 0.950 . S
C1659 C1661 1.327 . S
C1659 C1665 1.429 . S
C1660 C1652 1.574 . S
C1660 H1655 0.949 . S
C1660 C1666 1.368 . S
C1661 C1645 1.349 . S
C1661 H1653 0.950 . S
C1661 C1659 1.327 . S
C1662 C1650 1.349 . S
C1662 H1656 0.950 . S
C1662 C1663 1.327 . S
C1663 H1657 0.950 . S
C1663 C1662 1.327 . S
C1663 C1667 1.429 . S
C1664 C1647 1.574 . S
C1664 H1658 0.949 . S
C1664 C1668 1.368 . S
C1665 C1646 1.429 . S
C1665 C1659 1.429 . S
C1665 C1666 1.523 . S
C1666 C1647 1.368 . S
C1666 C1660 1.368 . S
C1666 C1665 1.523 . S
C1667 C1651 1.429 . S
C1667 C1663 1.429 . S
C1667 C1668 1.523 . S
C1668 C1652 1.368 . S
C1668 C1664 1.368 . S
C1668 C1667 1.523 . S
H1669 C1644 0.950 . S
H1670 C1646 0.950 . S
H1671 C1647 0.949 . S
H1672 C1649 0.950 . S
H1673 C1651 0.950 . S
C1674 C1675 1.349 . S
C1674 C1676 1.327 . S
C1674 H1699 0.950 . S
C1675 C1674 1.349 . S
C1675 C1691 1.349 . S
C1676 C1674 1.327 . S
C1676 C1695 1.429 . S
C1676 H1700 0.950 . S
C1677 C1694 1.574 . S
C1677 C1696 1.368 . S
C1677 H1701 0.949 . S
H1678 C1682 0.949 . S
C1679 C1680 1.349 . S
C1679 C1681 1.327 . S
C1679 H1702 0.950 . S
C1680 C1679 1.349 . S
C1680 C1692 1.349 . S
C1681 C1679 1.327 . S
C1681 C1697 1.429 . S
C1681 H1703 0.950 . S
C1682 H1678 0.949 . S
C1682 C1690 1.574 . S
C1682 C1698 1.368 . S
H1683 C1691 0.950 . S
H1684 C1689 0.950 . S
H1685 C1690 0.949 . S
H1686 C1692 0.950 . S
H1687 C1693 0.950 . S
H1688 C1694 0.949 . S
C1689 H1684 0.950 . S
C1689 C1691 1.327 . S
C1689 C1695 1.429 . S
C1690 C1682 1.574 . S
C1690 H1685 0.949 . S
C1690 C1696 1.368 . S
C1691 C1675 1.349 . S
C1691 H1683 0.950 . S
C1691 C1689 1.327 . S
C1692 C1680 1.349 . S
C1692 H1686 0.950 . S
C1692 C1693 1.327 . S
C1693 H1687 0.950 . S
C1693 C1692 1.327 . S
C1693 C1697 1.429 . S
C1694 C1677 1.574 . S
C1694 H1688 0.949 . S
C1694 C1698 1.368 . S
C1695 C1676 1.429 . S
C1695 C1689 1.429 . S
C1695 C1696 1.523 . S
C1696 C1677 1.368 . S
C1696 C1690 1.368 . S
C1696 C1695 1.523 . S
C1697 C1681 1.429 . S
C1697 C1693 1.429 . S
C1697 C1698 1.523 . S
C1698 C1682 1.368 . S
C1698 C1694 1.368 . S
C1698 C1697 1.523 . S
H1699 C1674 0.950 . S
H1700 C1676 0.950 . S
H1701 C1677 0.949 . S
H1702 C1679 0.950 . S
H1703 C1681 0.950 . S
C1704 C1705 1.349 . S
C1704 C1706 1.327 . S
C1704 H1729 0.950 . S
C1705 C1704 1.349 . S
C1705 C1721 1.349 . S
C1706 C1704 1.327 . S
C1706 C1725 1.429 . S
C1706 H1730 0.950 . S
C1707 C1724 1.574 . S
C1707 C1726 1.368 . S
C1707 H1731 0.949 . S
H1708 C1712 0.949 . S
C1709 C1710 1.349 . S
C1709 C1711 1.327 . S
C1709 H1732 0.950 . S
C1710 C1709 1.349 . S
C1710 C1722 1.349 . S
C1711 C1709 1.327 . S
C1711 C1727 1.429 . S
C1711 H1733 0.950 . S
C1712 H1708 0.949 . S
C1712 C1720 1.574 . S
C1712 C1728 1.368 . S
H1713 C1721 0.950 . S
H1714 C1719 0.950 . S
H1715 C1720 0.949 . S
H1716 C1722 0.950 . S
H1717 C1723 0.950 . S
H1718 C1724 0.949 . S
C1719 H1714 0.950 . S
C1719 C1721 1.327 . S
C1719 C1725 1.429 . S
C1720 C1712 1.574 . S
C1720 H1715 0.949 . S
C1720 C1726 1.368 . S
C1721 C1705 1.349 . S
C1721 H1713 0.950 . S
C1721 C1719 1.327 . S
C1722 C1710 1.349 . S
C1722 H1716 0.950 . S
C1722 C1723 1.327 . S
C1723 H1717 0.950 . S
C1723 C1722 1.327 . S
C1723 C1727 1.429 . S
C1724 C1707 1.574 . S
C1724 H1718 0.949 . S
C1724 C1728 1.368 . S
C1725 C1706 1.429 . S
C1725 C1719 1.429 . S
C1725 C1726 1.523 . S
C1726 C1707 1.368 . S
C1726 C1720 1.368 . S
C1726 C1725 1.523 . S
C1727 C1711 1.429 . S
C1727 C1723 1.429 . S
C1727 C1728 1.523 . S
C1728 C1712 1.368 . S
C1728 C1724 1.368 . S
C1728 C1727 1.523 . S
H1729 C1704 0.950 . S
H1730 C1706 0.950 . S
H1731 C1707 0.949 . S
H1732 C1709 0.950 . S
H1733 C1711 0.950 . S
C1734 C1735 1.349 . S
C1734 C1736 1.327 . S
C1734 H1759 0.950 . S
C1735 C1734 1.349 . S
C1735 C1751 1.349 . S
C1736 C1734 1.327 . S
C1736 C1755 1.429 . S
C1736 H1760 0.950 . S
C1737 C1754 1.574 . S
C1737 C1756 1.368 . S
C1737 H1761 0.949 . S
H1738 C1742 0.949 . S
C1739 C1740 1.349 . S
C1739 C1741 1.327 . S
C1739 H1762 0.950 . S
C1740 C1739 1.349 . S
C1740 C1752 1.349 . S
C1741 C1739 1.327 . S
C1741 C1757 1.429 . S
C1741 H1763 0.950 . S
C1742 H1738 0.949 . S
C1742 C1750 1.574 . S
C1742 C1758 1.368 . S
H1743 C1751 0.950 . S
H1744 C1749 0.950 . S
H1745 C1750 0.949 . S
H1746 C1752 0.950 . S
H1747 C1753 0.950 . S
H1748 C1754 0.949 . S
C1749 H1744 0.950 . S
C1749 C1751 1.327 . S
C1749 C1755 1.429 . S
C1750 C1742 1.574 . S
C1750 H1745 0.949 . S
C1750 C1756 1.368 . S
C1751 C1735 1.349 . S
C1751 H1743 0.950 . S
C1751 C1749 1.327 . S
C1752 C1740 1.349 . S
C1752 H1746 0.950 . S
C1752 C1753 1.327 . S
C1753 H1747 0.950 . S
C1753 C1752 1.327 . S
C1753 C1757 1.429 . S
C1754 C1737 1.574 . S
C1754 H1748 0.949 . S
C1754 C1758 1.368 . S
C1755 C1736 1.429 . S
C1755 C1749 1.429 . S
C1755 C1756 1.523 . S
C1756 C1737 1.368 . S
C1756 C1750 1.368 . S
C1756 C1755 1.523 . S
C1757 C1741 1.429 . S
C1757 C1753 1.429 . S
C1757 C1758 1.523 . S
C1758 C1742 1.368 . S
C1758 C1754 1.368 . S
C1758 C1757 1.523 . S
H1759 C1734 0.950 . S
H1760 C1736 0.950 . S
H1761 C1737 0.949 . S
H1762 C1739 0.950 . S
H1763 C1741 0.950 . S
C1764 C1765 1.349 . S
C1764 C1766 1.327 . S
C1764 H1789 0.950 . S
C1765 C1764 1.349 . S
C1765 C1781 1.349 . S
C1766 C1764 1.327 . S
C1766 C1785 1.429 . S
C1766 H1790 0.950 . S
C1767 C1784 1.574 . S
C1767 C1786 1.368 . S
C1767 H1791 0.949 . S
H1768 C1772 0.949 . S
C1769 C1770 1.349 . S
C1769 C1771 1.327 . S
C1769 H1792 0.950 . S
C1770 C1769 1.349 . S
C1770 C1782 1.349 . S
C1771 C1769 1.327 . S
C1771 C1787 1.429 . S
C1771 H1793 0.950 . S
C1772 H1768 0.949 . S
C1772 C1780 1.574 . S
C1772 C1788 1.368 . S
H1773 C1781 0.950 . S
H1774 C1779 0.950 . S
H1775 C1780 0.949 . S
H1776 C1782 0.950 . S
H1777 C1783 0.950 . S
H1778 C1784 0.949 . S
C1779 H1774 0.950 . S
C1779 C1781 1.327 . S
C1779 C1785 1.429 . S
C1780 C1772 1.574 . S
C1780 H1775 0.949 . S
C1780 C1786 1.368 . S
C1781 C1765 1.349 . S
C1781 H1773 0.950 . S
C1781 C1779 1.327 . S
C1782 C1770 1.349 . S
C1782 H1776 0.950 . S
C1782 C1783 1.327 . S
C1783 H1777 0.950 . S
C1783 C1782 1.327 . S
C1783 C1787 1.429 . S
C1784 C1767 1.574 . S
C1784 H1778 0.949 . S
C1784 C1788 1.368 . S
C1785 C1766 1.429 . S
C1785 C1779 1.429 . S
C1785 C1786 1.523 . S
C1786 C1767 1.368 . S
C1786 C1780 1.368 . S
C1786 C1785 1.523 . S
C1787 C1771 1.429 . S
C1787 C1783 1.429 . S
C1787 C1788 1.523 . S
C1788 C1772 1.368 . S
C1788 C1784 1.368 . S
C1788 C1787 1.523 . S
H1789 C1764 0.950 . S
H1790 C1766 0.950 . S
H1791 C1767 0.949 . S
H1792 C1769 0.950 . S
H1793 C1771 0.950 . S
C1794 C1795 1.349 . S
C1794 C1796 1.327 . S
C1794 H1819 0.950 . S
C1795 C1794 1.349 . S
C1795 C1811 1.349 . S
C1796 C1794 1.327 . S
C1796 C1815 1.429 . S
C1796 H1820 0.950 . S
C1797 C1814 1.574 . S
C1797 C1816 1.368 . S
C1797 H1821 0.949 . S
H1798 C1802 0.949 . S
C1799 C1800 1.349 . S
C1799 C1801 1.327 . S
C1799 H1822 0.950 . S
C1800 C1799 1.349 . S
C1800 C1812 1.349 . S
C1801 C1799 1.327 . S
C1801 C1817 1.429 . S
C1801 H1823 0.950 . S
C1802 H1798 0.949 . S
C1802 C1810 1.574 . S
C1802 C1818 1.368 . S
H1803 C1811 0.950 . S
H1804 C1809 0.950 . S
H1805 C1810 0.949 . S
H1806 C1812 0.950 . S
H1807 C1813 0.950 . S
H1808 C1814 0.949 . S
C1809 H1804 0.950 . S
C1809 C1811 1.327 . S
C1809 C1815 1.429 . S
C1810 C1802 1.574 . S
C1810 H1805 0.949 . S
C1810 C1816 1.368 . S
C1811 C1795 1.349 . S
C1811 H1803 0.950 . S
C1811 C1809 1.327 . S
C1812 C1800 1.349 . S
C1812 H1806 0.950 . S
C1812 C1813 1.327 . S
C1813 H1807 0.950 . S
C1813 C1812 1.327 . S
C1813 C1817 1.429 . S
C1814 C1797 1.574 . S
C1814 H1808 0.949 . S
C1814 C1818 1.368 . S
C1815 C1796 1.429 . S
C1815 C1809 1.429 . S
C1815 C1816 1.523 . S
C1816 C1797 1.368 . S
C1816 C1810 1.368 . S
C1816 C1815 1.523 . S
C1817 C1801 1.429 . S
C1817 C1813 1.429 . S
C1817 C1818 1.523 . S
C1818 C1802 1.368 . S
C1818 C1814 1.368 . S
C1818 C1817 1.523 . S
H1819 C1794 0.950 . S
H1820 C1796 0.950 . S
H1821 C1797 0.949 . S
H1822 C1799 0.950 . S
H1823 C1801 0.950 . S
C1824 C1825 1.349 . S
C1824 C1826 1.327 . S
C1824 H1849 0.950 . S
C1825 C1824 1.349 . S
C1825 C1841 1.349 . S
C1826 C1824 1.327 . S
C1826 C1845 1.429 . S
C1826 H1850 0.950 . S
C1827 C1844 1.574 . S
C1827 C1846 1.368 . S
C1827 H1851 0.949 . S
H1828 C1832 0.949 . S
C1829 C1830 1.349 . S
C1829 C1831 1.327 . S
C1829 H1852 0.950 . S
C1830 C1829 1.349 . S
C1830 C1842 1.349 . S
C1831 C1829 1.327 . S
C1831 C1847 1.429 . S
C1831 H1853 0.950 . S
C1832 H1828 0.949 . S
C1832 C1840 1.574 . S
C1832 C1848 1.368 . S
H1833 C1841 0.950 . S
H1834 C1839 0.950 . S
H1835 C1840 0.949 . S
H1836 C1842 0.950 . S
H1837 C1843 0.950 . S
H1838 C1844 0.949 . S
C1839 H1834 0.950 . S
C1839 C1841 1.327 . S
C1839 C1845 1.429 . S
C1840 C1832 1.574 . S
C1840 H1835 0.949 . S
C1840 C1846 1.368 . S
C1841 C1825 1.349 . S
C1841 H1833 0.950 . S
C1841 C1839 1.327 . S
C1842 C1830 1.349 . S
C1842 H1836 0.950 . S
C1842 C1843 1.327 . S
C1843 H1837 0.950 . S
C1843 C1842 1.327 . S
C1843 C1847 1.429 . S
C1844 C1827 1.574 . S
C1844 H1838 0.949 . S
C1844 C1848 1.368 . S
C1845 C1826 1.429 . S
C1845 C1839 1.429 . S
C1845 C1846 1.523 . S
C1846 C1827 1.368 . S
C1846 C1840 1.368 . S
C1846 C1845 1.523 . S
C1847 C1831 1.429 . S
C1847 C1843 1.429 . S
C1847 C1848 1.523 . S
C1848 C1832 1.368 . S
C1848 C1844 1.368 . S
C1848 C1847 1.523 . S
H1849 C1824 0.950 . S
H1850 C1826 0.950 . S
H1851 C1827 0.949 . S
H1852 C1829 0.950 . S
H1853 C1831 0.950 . S
C1854 C1855 1.349 . S
C1854 C1856 1.327 . S
C1854 H1879 0.950 . S
C1855 C1854 1.349 . S
C1855 C1871 1.349 . S
C1856 C1854 1.327 . S
C1856 C1875 1.429 . S
C1856 H1880 0.950 . S
C1857 C1874 1.574 . S
C1857 C1876 1.368 . S
C1857 H1881 0.949 . S
H1858 C1862 0.949 . S
C1859 C1860 1.349 . S
C1859 C1861 1.327 . S
C1859 H1882 0.950 . S
C1860 C1859 1.349 . S
C1860 C1872 1.349 . S
C1861 C1859 1.327 . S
C1861 C1877 1.429 . S
C1861 H1883 0.950 . S
C1862 H1858 0.949 . S
C1862 C1870 1.574 . S
C1862 C1878 1.368 . S
H1863 C1871 0.950 . S
H1864 C1869 0.950 . S
H1865 C1870 0.949 . S
H1866 C1872 0.950 . S
H1867 C1873 0.950 . S
H1868 C1874 0.949 . S
C1869 H1864 0.950 . S
C1869 C1871 1.327 . S
C1869 C1875 1.429 . S
C1870 C1862 1.574 . S
C1870 H1865 0.949 . S
C1870 C1876 1.368 . S
C1871 C1855 1.349 . S
C1871 H1863 0.950 . S
C1871 C1869 1.327 . S
C1872 C1860 1.349 . S
C1872 H1866 0.950 . S
C1872 C1873 1.327 . S
C1873 H1867 0.950 . S
C1873 C1872 1.327 . S
C1873 C1877 1.429 . S
C1874 C1857 1.574 . S
C1874 H1868 0.949 . S
C1874 C1878 1.368 . S
C1875 C1856 1.429 . S
C1875 C1869 1.429 . S
C1875 C1876 1.523 . S
C1876 C1857 1.368 . S
C1876 C1870 1.368 . S
C1876 C1875 1.523 . S
C1877 C1861 1.429 . S
C1877 C1873 1.429 . S
C1877 C1878 1.523 . S
C1878 C1862 1.368 . S
C1878 C1874 1.368 . S
C1878 C1877 1.523 . S
H1879 C1854 0.950 . S
H1880 C1856 0.950 . S
H1881 C1857 0.949 . S
H1882 C1859 0.950 . S
H1883 C1861 0.950 . S
C1884 C1885 1.349 . S
C1884 C1886 1.327 . S
C1884 H1909 0.950 . S
C1885 C1884 1.349 . S
C1885 C1901 1.349 . S
C1886 C1884 1.327 . S
C1886 C1905 1.429 . S
C1886 H1910 0.950 . S
C1887 C1904 1.574 . S
C1887 C1906 1.368 . S
C1887 H1911 0.949 . S
H1888 C1892 0.949 . S
C1889 C1890 1.349 . S
C1889 C1891 1.327 . S
C1889 H1912 0.950 . S
C1890 C1889 1.349 . S
C1890 C1902 1.349 . S
C1891 C1889 1.327 . S
C1891 C1907 1.429 . S
C1891 H1913 0.950 . S
C1892 H1888 0.949 . S
C1892 C1900 1.574 . S
C1892 C1908 1.368 . S
H1893 C1901 0.950 . S
H1894 C1899 0.950 . S
H1895 C1900 0.949 . S
H1896 C1902 0.950 . S
H1897 C1903 0.950 . S
H1898 C1904 0.949 . S
C1899 H1894 0.950 . S
C1899 C1901 1.327 . S
C1899 C1905 1.429 . S
C1900 C1892 1.574 . S
C1900 H1895 0.949 . S
C1900 C1906 1.368 . S
C1901 C1885 1.349 . S
C1901 H1893 0.950 . S
C1901 C1899 1.327 . S
C1902 C1890 1.349 . S
C1902 H1896 0.950 . S
C1902 C1903 1.327 . S
C1903 H1897 0.950 . S
C1903 C1902 1.327 . S
C1903 C1907 1.429 . S
C1904 C1887 1.574 . S
C1904 H1898 0.949 . S
C1904 C1908 1.368 . S
C1905 C1886 1.429 . S
C1905 C1899 1.429 . S
C1905 C1906 1.523 . S
C1906 C1887 1.368 . S
C1906 C1900 1.368 . S
C1906 C1905 1.523 . S
C1907 C1891 1.429 . S
C1907 C1903 1.429 . S
C1907 C1908 1.523 . S
C1908 C1892 1.368 . S
C1908 C1904 1.368 . S
C1908 C1907 1.523 . S
H1909 C1884 0.950 . S
H1910 C1886 0.950 . S
H1911 C1887 0.949 . S
H1912 C1889 0.950 . S
H1913 C1891 0.950 . S
C1914 C1915 1.349 . S
C1914 C1916 1.327 . S
C1914 H1939 0.950 . S
C1915 C1914 1.349 . S
C1915 C1931 1.349 . S
C1916 C1914 1.327 . S
C1916 C1935 1.429 . S
C1916 H1940 0.950 . S
C1917 C1934 1.574 . S
C1917 C1936 1.368 . S
C1917 H1941 0.949 . S
H1918 C1922 0.949 . S
C1919 C1920 1.349 . S
C1919 C1921 1.327 . S
C1919 H1942 0.950 . S
C1920 C1919 1.349 . S
C1920 C1932 1.349 . S
C1921 C1919 1.327 . S
C1921 C1937 1.429 . S
C1921 H1943 0.950 . S
C1922 H1918 0.949 . S
C1922 C1930 1.574 . S
C1922 C1938 1.368 . S
H1923 C1931 0.950 . S
H1924 C1929 0.950 . S
H1925 C1930 0.949 . S
H1926 C1932 0.950 . S
H1927 C1933 0.950 . S
H1928 C1934 0.949 . S
C1929 H1924 0.950 . S
C1929 C1931 1.327 . S
C1929 C1935 1.429 . S
C1930 C1922 1.574 . S
C1930 H1925 0.949 . S
C1930 C1936 1.368 . S
C1931 C1915 1.349 . S
C1931 H1923 0.950 . S
C1931 C1929 1.327 . S
C1932 C1920 1.349 . S
C1932 H1926 0.950 . S
C1932 C1933 1.327 . S
C1933 H1927 0.950 . S
C1933 C1932 1.327 . S
C1933 C1937 1.429 . S
C1934 C1917 1.574 . S
C1934 H1928 0.949 . S
C1934 C1938 1.368 . S
C1935 C1916 1.429 . S
C1935 C1929 1.429 . S
C1935 C1936 1.523 . S
C1936 C1917 1.368 . S
C1936 C1930 1.368 . S
C1936 C1935 1.523 . S
C1937 C1921 1.429 . S
C1937 C1933 1.429 . S
C1937 C1938 1.523 . S
C1938 C1922 1.368 . S
C1938 C1934 1.368 . S
C1938 C1937 1.523 . S
H1939 C1914 0.950 . S
H1940 C1916 0.950 . S
H1941 C1917 0.949 . S
H1942 C1919 0.950 . S
H1943 C1921 0.950 . S
C595 N335 1.853 . S
C600 N5 1.853 . S
C625 N38 1.852 . S
C630 N368 1.852 1_565 S
C655 N302 1.853 1_455 S
C660 N71 1.852 . S
C685 N467 1.853 . S
C690 N104 1.853 . S
C715 N137 1.852 . S
C720 N401 1.853 1_545 S
C745 N434 1.852 1_655 S
C750 N170 1.852 . S
C775 C193 1.753 . S
C780 C490 1.753 . S
C805 C424 1.753 . S
C810 C127 1.753 . S
C835 C457 1.753 . S
C840 C160 1.753 . S
C865 C61 1.753 . S
C870 C358 1.753 . S
C895 C94 1.753 . S
C900 C391 1.753 . S
C925 C28 1.753 . S
C930 C325 1.753 . S
C955 N533 1.853 . S
C960 N203 1.853 . S
C985 N566 1.852 . S
C990 N236 1.852 . S
C1015 N500 1.853 . S
C1020 N269 1.853 . S
C1045 C259 1.753 . S
C1050 C556 1.753 . S
C1075 C589 1.753 . S
C1080 C292 1.753 . S
C1105 C226 1.753 . S
C1110 C523 1.753 . S
C1135 C17 1.233 . S
C1140 C578 1.233 . S
C1165 C50 1.233 . S
C1170 C512 1.233 . S
C1195 C83 1.233 . S
C1200 C545 1.233 . S
C1225 C248 1.233 . S
C1230 C116 1.233 . S
C1255 C149 1.233 . S
C1260 C281 1.233 . S
C1285 C182 1.233 . S
C1290 C215 1.233 . S
C1315 C314 1.233 . S
C1320 C446 1.233 . S
C1345 C347 1.233 . S
C1350 C479 1.233 . S
C1375 C380 1.233 . S
C1380 C413 1.233 . S
C1405 N80 1.361 . S
C1410 C8 1.352 . S
C1435 C41 1.352 . S
C1440 N14 1.361 . S
C1465 N47 1.361 . S
C1470 C74 1.352 . S
C1495 N146 1.361 . S
C1500 C107 1.352 . S
C1525 C140 1.352 . S
C1530 N179 1.361 . S
C1555 N113 1.361 . S
C1560 C173 1.352 . S
C1585 C206 1.352 . S
C1590 N278 1.361 . S
C1615 N212 1.361 . S
C1620 C239 1.352 . S
C1645 C272 1.352 . S
C1650 N245 1.361 . S
C1675 C305 1.352 . S
C1680 N344 1.361 . S
C1705 N377 1.361 . S
C1710 C338 1.352 . S
C1735 C371 1.352 . S
C1740 N311 1.361 . S
C1765 C404 1.352 . S
C1770 N476 1.361 . S
C1795 N410 1.361 . S
C1800 C437 1.352 . S
C1825 C470 1.352 . S
C1830 N443 1.361 . S
C1855 C503 1.352 . S
C1860 N542 1.361 . S
C1885 N575 1.361 . S
C1890 C536 1.352 . S
C1915 N509 1.361 . S
C1920 C569 1.352 . S
