# Generated by pormake.
# Topology vmg, (6)-cn, num edge types: 1
# Building blocks:
#     Node 0, Type 0, BuildingBlock: OJICUG_clean_sbu_0, # of connection points: 6
#     Node 1, Type 0, BuildingBlock: OJICUG_clean_sbu_0, # of connection points: 6
#     Node 2, Type 0, BuildingBlock: OJICUG_clean_sbu_0, # of connection points: 6
#     Node 3, Type 0, BuildingBlock: OJICUG_clean_sbu_0, # of connection points: 6
#     Node 4, Type 0, BuildingBlock: OJICUG_clean_sbu_0, # of connection points: 6
#     Node 5, Type 0, BuildingBlock: OJICUG_clean_sbu_0, # of connection points: 6
#     Node 6, Type 0, BuildingBlock: OJICUG_clean_sbu_0, # of connection points: 6
#     Node 7, Type 0, BuildingBlock: OJICUG_clean_sbu_0, # of connection points: 6
#     Edge 8, Type (0, 0), BuildingBlock: ZUJKAS_clean_linker_0, # of connection points: 2
#     Edge 9, Type (0, 0), BuildingBlock: ZUJKAS_clean_linker_0, # of connection points: 2
#     Edge 10, Type (0, 0), BuildingBlock: ZUJKAS_clean_linker_0, # of connection points: 2
#     Edge 11, Type (0, 0), BuildingBlock: ZUJKAS_clean_linker_0, # of connection points: 2
#     Edge 12, Type (0, 0), BuildingBlock: ZUJKAS_clean_linker_0, # of connection points: 2
#     Edge 13, Type (0, 0), BuildingBlock: ZUJKAS_clean_linker_0, # of connection points: 2
#     Edge 14, Type (0, 0), BuildingBlock: ZUJKAS_clean_linker_0, # of connection points: 2
#     Edge 15, Type (0, 0), BuildingBlock: ZUJKAS_clean_linker_0, # of connection points: 2
#     Edge 16, Type (0, 0), BuildingBlock: ZUJKAS_clean_linker_0, # of connection points: 2
#     Edge 17, Type (0, 0), BuildingBlock: ZUJKAS_clean_linker_0, # of connection points: 2
#     Edge 18, Type (0, 0), BuildingBlock: ZUJKAS_clean_linker_0, # of connection points: 2
#     Edge 19, Type (0, 0), BuildingBlock: ZUJKAS_clean_linker_0, # of connection points: 2
#     Edge 20, Type (0, 0), BuildingBlock: ZUJKAS_clean_linker_0, # of connection points: 2
#     Edge 21, Type (0, 0), BuildingBlock: ZUJKAS_clean_linker_0, # of connection points: 2
#     Edge 22, Type (0, 0), BuildingBlock: ZUJKAS_clean_linker_0, # of connection points: 2
#     Edge 23, Type (0, 0), BuildingBlock: ZUJKAS_clean_linker_0, # of connection points: 2
#     Edge 24, Type (0, 0), BuildingBlock: ZUJKAS_clean_linker_0, # of connection points: 2
#     Edge 25, Type (0, 0), BuildingBlock: ZUJKAS_clean_linker_0, # of connection points: 2
#     Edge 26, Type (0, 0), BuildingBlock: ZUJKAS_clean_linker_0, # of connection points: 2
#     Edge 27, Type (0, 0), BuildingBlock: ZUJKAS_clean_linker_0, # of connection points: 2
#     Edge 28, Type (0, 0), BuildingBlock: ZUJKAS_clean_linker_0, # of connection points: 2
#     Edge 29, Type (0, 0), BuildingBlock: ZUJKAS_clean_linker_0, # of connection points: 2
#     Edge 30, Type (0, 0), BuildingBlock: ZUJKAS_clean_linker_0, # of connection points: 2
#     Edge 31, Type (0, 0), BuildingBlock: ZUJKAS_clean_linker_0, # of connection points: 2
# Relax obj value: 0.217
# Max RMSD: 0.229
# Mean RMSD: 0.229
data_MOF--net-vmg--node1-OJICUG_clean_sbu_0--edge1-ZUJKAS_clean_linker_0
_symmetry_space_group_name_H-M    P1
_symmetry_Int_Tables_number       1
_symmetry_cell_setting            triclinic
loop_
_symmetry_equiv_pos_as_xyz
'x, y, z'
_cell_length_a     38.741367
_cell_length_b     56.409624
_cell_length_c     35.056868
_cell_angle_alpha  90.010161
_cell_angle_beta   108.77046
_cell_angle_gamma 89.94565
loop_
_atom_site_label
_atom_site_type_symbol
_atom_site_fract_x
_atom_site_fract_y
_atom_site_fract_z
_atom_type_partial_charge
Sc0 Sc 0.16367 0.39509 0.10591 0.0
Sc1 Sc 0.23059 0.43107 0.17144 0.0
Sc2 Sc 0.22072 0.37146 0.19767 0.0
O3 O 0.20506 0.39917 0.15834 0.0
C4 C 0.13489 0.36436 0.16585 0.0
C5 C 0.14717 0.44586 0.13523 0.0
C6 C 0.22565 0.41521 0.25697 0.0
C7 C 0.21631 0.4292 0.07711 0.0
C8 C 0.20777 0.34681 0.11156 0.0
C9 C 0.29687 0.39514 0.20222 0.0
O10 O 0.13015 0.37638 0.13402 0.0
O11 O 0.1799 0.45067 0.15603 0.0
O12 O 0.21977 0.39323 0.24892 0.0
O13 O 0.19059 0.41416 0.07 0.0
O14 O 0.22249 0.34723 0.14983 0.0
O15 O 0.28347 0.41498 0.18756 0.0
O16 O 0.18628 0.36291 0.09215 0.0
O17 O 0.23361 0.43635 0.11233 0.0
O18 O 0.27773 0.37832 0.20878 0.0
O19 O 0.13769 0.42664 0.11594 0.0
O20 O 0.16599 0.36085 0.19167 0.0
O21 O 0.231 0.43002 0.23228 0.0
Sc22 Sc 0.75565 0.37469 0.29132 0.0
Sc23 Sc 0.75068 0.43025 0.33529 0.0
Sc24 Sc 0.82237 0.39249 0.38072 0.0
O25 O 0.77596 0.39895 0.33551 0.0
C26 C 0.77747 0.3452 0.37487 0.0
C27 C 0.68261 0.39586 0.29994 0.0
C28 C 0.77711 0.42262 0.42655 0.0
C29 C 0.74941 0.42446 0.24458 0.0
C30 C 0.8395 0.36524 0.30907 0.0
C31 C 0.83515 0.44459 0.36344 0.0
O32 O 0.76149 0.34681 0.3367 0.0
O33 O 0.69675 0.41546 0.31466 0.0
O34 O 0.80602 0.41255 0.42497 0.0
O35 O 0.74938 0.40173 0.24427 0.0
O36 O 0.84805 0.37281 0.34491 0.0
O37 O 0.80172 0.44965 0.35718 0.0
O38 O 0.8073 0.36607 0.28477 0.0
O39 O 0.75017 0.43656 0.27541 0.0
O40 O 0.84679 0.42342 0.36611 0.0
O41 O 0.7008 0.37931 0.29111 0.0
O42 O 0.79892 0.36103 0.39545 0.0
O43 O 0.74971 0.42583 0.39542 0.0
Sc44 Sc 0.75908 0.62358 0.79195 0.0
Sc45 Sc 0.76062 0.56736 0.83551 0.0
Sc46 Sc 0.8185 0.61152 0.88881 0.0
O47 O 0.77923 0.60086 0.83853 0.0
C48 C 0.84188 0.6377 0.81966 0.0
C49 C 0.76472 0.5743 0.74806 0.0
C50 C 0.84682 0.56141 0.87874 0.0
C51 C 0.68772 0.59665 0.79174 0.0
C52 C 0.7657 0.65506 0.87061 0.0
C53 C 0.77098 0.57674 0.92533 0.0
O54 O 0.8123 0.6333 0.79185 0.0
O55 O 0.76881 0.56172 0.7792 0.0
O56 O 0.85306 0.58345 0.88343 0.0
O57 O 0.70378 0.61557 0.78731 0.0
O58 O 0.78509 0.64019 0.89566 0.0
O59 O 0.75 0.57038 0.89112 0.0
O60 O 0.75738 0.65284 0.83241 0.0
O61 O 0.70475 0.57768 0.80604 0.0
O62 O 0.79862 0.58998 0.9294 0.0
O63 O 0.75906 0.59664 0.74705 0.0
O64 O 0.84625 0.6334 0.85659 0.0
O65 O 0.8147 0.55279 0.86586 0.0
Sc66 Sc 0.16364 0.60844 0.60789 0.0
Sc67 Sc 0.22559 0.56534 0.65571 0.0
Sc68 Sc 0.22902 0.62127 0.69996 0.0
O69 O 0.20643 0.59839 0.65483 0.0
C70 C 0.21514 0.6517 0.61869 0.0
C71 C 0.20487 0.57297 0.56501 0.0
C72 C 0.2987 0.59566 0.6923 0.0
C73 C 0.13867 0.55889 0.62304 0.0
C74 C 0.1471 0.63497 0.68041 0.0
C75 C 0.22946 0.57189 0.746 0.0
O76 O 0.19576 0.63609 0.59526 0.0
O77 O 0.23072 0.56908 0.59728 0.0
O78 O 0.28281 0.61444 0.69786 0.0
O79 O 0.13177 0.58094 0.62088 0.0
O80 O 0.1772 0.62935 0.7064 0.0
O81 O 0.22237 0.55941 0.71428 0.0
O82 O 0.1412 0.63219 0.64282 0.0
O83 O 0.17086 0.55064 0.63023 0.0
O84 O 0.23522 0.59421 0.74638 0.0
O85 O 0.17704 0.58514 0.56469 0.0
O86 O 0.22486 0.65041 0.65718 0.0
O87 O 0.28183 0.57631 0.68028 0.0
Sc88 Sc 0.66105 0.89591 0.10177 0.0
Sc89 Sc 0.72846 0.93316 0.16412 0.0
Sc90 Sc 0.7209 0.87396 0.19334 0.0
O91 O 0.70355 0.90097 0.153 0.0
C92 C 0.63497 0.86658 0.16527 0.0
C93 C 0.6448 0.94717 0.13003 0.0
C94 C 0.72693 0.91825 0.25147 0.0
C95 C 0.71135 0.92978 0.06911 0.0
C96 C 0.70547 0.84767 0.10853 0.0
C97 C 0.7957 0.89802 0.19381 0.0
O98 O 0.62887 0.87838 0.13297 0.0
O99 O 0.67745 0.95226 0.15071 0.0
O100 O 0.72061 0.89626 0.24405 0.0
O101 O 0.68683 0.91393 0.06341 0.0
O102 O 0.72247 0.84929 0.14622 0.0
O103 O 0.7816 0.91752 0.17819 0.0
O104 O 0.68241 0.86293 0.08894 0.0
O105 O 0.72847 0.93793 0.10372 0.0
O106 O 0.77733 0.88141 0.20237 0.0
O107 O 0.63566 0.92792 0.11073 0.0
O108 O 0.66677 0.86295 0.18955 0.0
O109 O 0.73167 0.93274 0.22598 0.0
Sc110 Sc 0.25753 0.8724 0.29677 0.0
Sc111 Sc 0.25017 0.93004 0.33281 0.0
Sc112 Sc 0.31985 0.89194 0.38874 0.0
O113 O 0.27576 0.89808 0.33953 0.0
C114 C 0.27538 0.84357 0.37942 0.0
C115 C 0.18298 0.89518 0.29985 0.0
C116 C 0.27014 0.92294 0.42727 0.0
C117 C 0.25123 0.91909 0.2437 0.0
C118 C 0.34336 0.86505 0.32107 0.0
C119 C 0.3338 0.94469 0.36598 0.0
O120 O 0.25735 0.84622 0.34216 0.0
O121 O 0.19723 0.91423 0.31705 0.0
O122 O 0.29613 0.90847 0.43032 0.0
O123 O 0.25667 0.89681 0.24831 0.0
O124 O 0.35048 0.87584 0.35442 0.0
O125 O 0.30049 0.94982 0.34841 0.0
O126 O 0.31114 0.8619 0.29756 0.0
O127 O 0.24715 0.93248 0.27104 0.0
O128 O 0.34452 0.92456 0.38136 0.0
O129 O 0.20119 0.8791 0.28962 0.0
O130 O 0.29899 0.85835 0.39963 0.0
O131 O 0.25043 0.9314 0.39384 0.0
Sc132 Sc 0.25376 0.12132 0.79607 0.0
Sc133 Sc 0.2527 0.06537 0.84014 0.0
Sc134 Sc 0.32013 0.10578 0.88683 0.0
O135 O 0.27516 0.09762 0.84067 0.0
C136 C 0.33716 0.1331 0.81518 0.0
C137 C 0.24976 0.07181 0.74934 0.0
C138 C 0.33874 0.05468 0.87113 0.0
C139 C 0.1819 0.09755 0.80308 0.0
C140 C 0.27166 0.15129 0.87905 0.0
C141 C 0.27655 0.07324 0.93131 0.0
O142 O 0.30566 0.13009 0.79001 0.0
O143 O 0.25274 0.05909 0.78018 0.0
O144 O 0.34795 0.07632 0.87278 0.0
O145 O 0.19874 0.11514 0.79497 0.0
O146 O 0.29295 0.13574 0.90073 0.0
O147 O 0.25002 0.06958 0.89955 0.0
O148 O 0.25764 0.14953 0.84062 0.0
O149 O 0.19762 0.07838 0.81812 0.0
O150 O 0.30505 0.08424 0.93073 0.0
O151 O 0.24872 0.09448 0.74957 0.0
O152 O 0.34481 0.12747 0.852 0.0
O153 O 0.30574 0.04809 0.86393 0.0
Sc154 Sc 0.65586 0.10818 0.60161 0.0
Sc155 Sc 0.71849 0.06706 0.65678 0.0
Sc156 Sc 0.72062 0.12549 0.69258 0.0
O157 O 0.69877 0.10041 0.6504 0.0
C158 C 0.70672 0.15224 0.60726 0.0
C159 C 0.70103 0.07147 0.56502 0.0
C160 C 0.79133 0.09784 0.69248 0.0
C161 C 0.63231 0.05891 0.62204 0.0
C162 C 0.63718 0.13877 0.66913 0.0
C163 C 0.71708 0.07911 0.74425 0.0
O164 O 0.68534 0.13648 0.58655 0.0
O165 O 0.72498 0.06714 0.59865 0.0
O166 O 0.77532 0.117 0.69573 0.0
O167 O 0.62472 0.0807 0.6158 0.0
O168 O 0.66838 0.13629 0.69526 0.0
O169 O 0.71277 0.06487 0.71503 0.0
O170 O 0.63023 0.13185 0.63296 0.0
O171 O 0.66483 0.05101 0.63208 0.0
O172 O 0.72343 0.10124 0.74225 0.0
O173 O 0.67321 0.08438 0.562 0.0
O174 O 0.71945 0.15171 0.64584 0.0
O175 O 0.77456 0.07842 0.68105 0.0
H176 H 0.63418 0.42631 0.31632 0.0
H177 H 0.56883 0.42048 0.30206 0.0
H178 H 0.57645 0.35135 0.25286 0.0
H179 H 0.64182 0.35698 0.26661 0.0
H180 H 0.52143 0.38034 0.203 0.0
H181 H 0.5152 0.37686 0.35874 0.0
H182 H 0.53982 0.40199 0.3495 0.0
H183 H 0.55704 0.37259 0.3473 0.0
C184 C 0.62209 0.40979 0.30271 0.0
C185 C 0.64326 0.39214 0.29255 0.0
C186 C 0.5848 0.40643 0.29489 0.0
C187 C 0.56811 0.38536 0.27701 0.0
C188 C 0.58905 0.36765 0.26698 0.0
H189 H 0.33772 0.35753 0.2417 0.0
H190 H 0.40362 0.35209 0.25866 0.0
C191 C 0.62636 0.37095 0.27483 0.0
C192 C 0.52835 0.38255 0.26639 0.0
H193 H 0.45876 0.38387 0.30605 0.0
C194 C 0.50769 0.38078 0.22551 0.0
C195 C 0.51072 0.38281 0.29595 0.0
C196 C 0.53183 0.38343 0.34037 0.0
C197 C 0.46956 0.38044 0.21323 0.0
C198 C 0.45191 0.3822 0.24265 0.0
C199 C 0.47255 0.38276 0.28363 0.0
C200 C 0.41212 0.38499 0.23134 0.0
C201 C 0.44844 0.37859 0.16891 0.0
C202 C 0.39546 0.40541 0.21078 0.0
C203 C 0.35799 0.40865 0.20117 0.0
C204 C 0.33653 0.39152 0.2121 0.0
C205 C 0.35342 0.37103 0.23274 0.0
C206 C 0.39101 0.36787 0.24248 0.0
H207 H 0.46536 0.37099 0.15164 0.0
H208 H 0.42375 0.36744 0.16383 0.0
H209 H 0.43954 0.39656 0.15683 0.0
H210 H 0.41156 0.41898 0.20259 0.0
H211 H 0.34591 0.42463 0.18529 0.0
H212 H 0.6406 0.63173 0.75279 0.0
H213 H 0.57416 0.63195 0.73486 0.0
H214 H 0.57723 0.56222 0.78615 0.0
H215 H 0.64362 0.56172 0.80436 0.0
H216 H 0.52296 0.59678 0.68561 0.0
H217 H 0.51914 0.60512 0.84235 0.0
H218 H 0.55904 0.61242 0.82872 0.0
H219 H 0.54783 0.58198 0.83392 0.0
C220 C 0.62722 0.61642 0.76033 0.0
C221 C 0.64748 0.59673 0.78017 0.0
C222 C 0.58929 0.61659 0.74997 0.0
C223 C 0.57107 0.59721 0.7596 0.0
C224 C 0.59101 0.57744 0.77895 0.0
H225 H 0.34222 0.56087 0.67769 0.0
H226 H 0.40833 0.56182 0.69268 0.0
C227 C 0.62891 0.57718 0.78916 0.0
C228 C 0.53108 0.59763 0.7493 0.0
H229 H 0.46279 0.5988 0.79099 0.0
C230 C 0.50971 0.59727 0.70855 0.0
C231 C 0.51416 0.59849 0.77945 0.0
C232 C 0.53611 0.59971 0.82361 0.0
C233 C 0.47154 0.59735 0.69711 0.0
C234 C 0.45463 0.59766 0.72729 0.0
C235 C 0.47602 0.59841 0.76802 0.0
C236 C 0.41465 0.59732 0.71726 0.0
C237 C 0.44956 0.59734 0.65292 0.0
C238 C 0.3966 0.61689 0.72664 0.0
C239 C 0.35888 0.61645 0.71819 0.0
C240 C 0.33861 0.59629 0.70054 0.0
C241 C 0.35694 0.57668 0.69127 0.0
C242 C 0.39467 0.57721 0.69959 0.0
H243 H 0.46645 0.60207 0.63374 0.0
H244 H 0.43814 0.57937 0.64411 0.0
H245 H 0.42642 0.60998 0.64674 0.0
H246 H 0.41174 0.63251 0.74049 0.0
H247 H 0.3457 0.63183 0.72584 0.0
H248 H 0.14119 0.85789 0.26057 0.0
H249 H 0.07506 0.85364 0.24248 0.0
H250 H 0.06892 0.92058 0.29938 0.0
H251 H 0.13486 0.92499 0.31799 0.0
H252 H 0.02738 0.8828 0.31785 0.0
H253 H 0.00237 0.89447 0.15336 0.0
H254 H 0.03458 0.8719 0.1782 0.0
H255 H 0.045 0.90248 0.19078 0.0
C256 C 0.12583 0.87168 0.2694 0.0
C257 C 0.1433 0.8919 0.29044 0.0
C258 C 0.08808 0.86923 0.25891 0.0
C259 C 0.06732 0.88695 0.26921 0.0
C260 C 0.08466 0.90678 0.29111 0.0
H261 H 0.84522 0.92959 0.18278 0.0
H262 H 0.91105 0.92434 0.20059 0.0
C263 C 0.12232 0.90928 0.3016 0.0
C264 C 0.02732 0.88527 0.25657 0.0
H265 H 0.95097 0.8887 0.17423 0.0
C266 C 0.01057 0.88386 0.28647 0.0
C267 C 0.00579 0.88689 0.2156 0.0
C268 C 0.02268 0.88919 0.18252 0.0
C269 C 0.97256 0.88447 0.27648 0.0
C270 C 0.95103 0.88624 0.23551 0.0
C271 C 0.96777 0.88721 0.20556 0.0
C272 C 0.91113 0.88869 0.22337 0.0
C273 C 0.95577 0.88412 0.30981 0.0
C274 C 0.88957 0.87018 0.22978 0.0
C275 C 0.85196 0.87311 0.21978 0.0
C276 C 0.83534 0.89459 0.20303 0.0
C277 C 0.8571 0.91287 0.19577 0.0
C278 C 0.89468 0.9099 0.20583 0.0
H279 H 0.97632 0.88727 0.33985 0.0
H280 H 0.93407 0.89778 0.30451 0.0
H281 H 0.94312 0.86655 0.31043 0.0
H282 H 0.90188 0.85356 0.24275 0.0
H283 H 0.836 0.85859 0.22547 0.0
H284 H 0.13961 0.07722 0.84285 0.0
H285 H 0.0731 0.07819 0.82394 0.0
H286 H 0.06784 0.12075 0.71985 0.0
H287 H 0.1344 0.12104 0.74013 0.0
H288 H 0.02121 0.13653 0.75099 0.0
H289 H 0.00422 0.03922 0.7398 0.0
H290 H 0.03158 0.04786 0.78948 0.0
H291 H 0.04767 0.05325 0.74737 0.0
C292 C 0.12417 0.08685 0.81605 0.0
C293 C 0.142 0.09897 0.79282 0.0
C294 C 0.08618 0.0872 0.80502 0.0
C295 C 0.06535 0.09893 0.76978 0.0
C296 C 0.08327 0.11144 0.74703 0.0
H297 H 0.83328 0.07157 0.65906 0.0
H298 H 0.89967 0.07283 0.67578 0.0
C299 C 0.12127 0.11163 0.75864 0.0
C300 C 0.02493 0.0985 0.75683 0.0
H301 H 0.95172 0.06161 0.73929 0.0
C302 C 0.00601 0.12012 0.74809 0.0
C303 C 0.00498 0.07707 0.75216 0.0
C304 C 0.02317 0.05306 0.75726 0.0
C305 C 0.96783 0.12095 0.73543 0.0
C306 C 0.948 0.09963 0.73332 0.0
C307 C 0.96688 0.07799 0.74144 0.0
C308 C 0.90771 0.0993 0.72265 0.0
C309 C 0.94931 0.14463 0.72349 0.0
C310 C 0.89015 0.11354 0.74367 0.0
C311 C 0.85225 0.11328 0.73342 0.0
C312 C 0.8313 0.09816 0.70293 0.0
C313 C 0.84887 0.08337 0.68272 0.0
C314 C 0.88674 0.08409 0.69227 0.0
H315 H 0.9668 0.15707 0.71333 0.0
H316 H 0.92291 0.14276 0.6989 0.0
H317 H 0.94416 0.15274 0.74999 0.0
H318 H 0.90574 0.12474 0.76824 0.0
H319 H 0.83936 0.12457 0.74991 0.0
H320 H 0.18126 0.34081 0.03004 0.0
H321 H 0.19131 0.30782 0.99034 0.0
H322 H 0.26116 0.27431 0.09815 0.0
H323 H 0.25085 0.30735 0.13875 0.0
H324 H 0.25576 0.29114 0.98214 0.0
H325 H 0.18745 0.22215 0.04538 0.0
H326 H 0.18244 0.25344 0.05309 0.0
H327 H 0.22303 0.23807 0.08217 0.0
C328 C 0.19877 0.32647 0.04562 0.0
C329 C 0.21508 0.32674 0.08783 0.0
C330 C 0.20449 0.30761 0.0227 0.0
C331 C 0.22655 0.28849 0.0413 0.0
C332 C 0.24345 0.28873 0.08329 0.0
H333 H 0.29783 0.16046 0.95961 0.0
H334 H 0.28526 0.19424 0.99583 0.0
C335 C 0.2377 0.30768 0.10642 0.0
C336 C 0.23186 0.26851 0.01631 0.0
H337 H 0.21782 0.20911 0.00033 0.0
C338 C 0.24737 0.2732 0.98597 0.0
C339 C 0.22055 0.24521 0.02119 0.0
C340 C 0.20213 0.23935 0.05195 0.0
C341 C 0.25279 0.25506 0.96106 0.0
C342 C 0.24189 0.23171 0.9663 0.0
C343 C 0.22603 0.22707 0.99634 0.0
C344 C 0.24906 0.21147 0.94298 0.0
C345 C 0.27109 0.26085 0.93018 0.0
C346 C 0.23266 0.20986 0.901 0.0
C347 C 0.23985 0.19039 0.8798 0.0
C348 C 0.26345 0.17222 0.90038 0.0
C349 C 0.27954 0.17402 0.94251 0.0
C350 C 0.27237 0.19335 0.96346 0.0
H351 H 0.2842 0.2786 0.93534 0.0
H352 H 0.29209 0.24735 0.93059 0.0
H353 H 0.25043 0.26077 0.89972 0.0
H354 H 0.21411 0.22354 0.88472 0.0
H355 H 0.22688 0.18954 0.84747 0.0
H356 H 0.80729 0.33641 0.45532 0.0
H357 H 0.79641 0.30303 0.49347 0.0
H358 H 0.72263 0.27268 0.38494 0.0
H359 H 0.73292 0.30657 0.34591 0.0
H360 H 0.6954 0.27365 0.45018 0.0
H361 H 0.83477 0.23557 0.49697 0.0
H362 H 0.83395 0.26654 0.50834 0.0
H363 H 0.81918 0.25691 0.45667 0.0
C364 C 0.78886 0.32265 0.43918 0.0
C365 C 0.77108 0.32421 0.39729 0.0
C366 C 0.78291 0.30344 0.46119 0.0
C367 C 0.75932 0.28517 0.44196 0.0
C368 C 0.74125 0.28656 0.40025 0.0
H369 H 0.68458 0.15819 0.52578 0.0
H370 H 0.69784 0.19078 0.48758 0.0
C371 C 0.74718 0.3059 0.37801 0.0
C372 C 0.75251 0.26526 0.46613 0.0
H373 H 0.79509 0.22142 0.53173 0.0
C374 C 0.7171 0.26209 0.46773 0.0
C375 C 0.781 0.25037 0.4893 0.0
C376 C 0.8193 0.25233 0.48752 0.0
C377 C 0.70951 0.24466 0.49244 0.0
C378 C 0.73802 0.22985 0.51571 0.0
C379 C 0.77342 0.23299 0.51413 0.0
C380 C 0.73099 0.21002 0.5398 0.0
C381 C 0.67115 0.2424 0.4939 0.0
C382 C 0.74615 0.20973 0.58199 0.0
C383 C 0.73866 0.19094 0.60431 0.0
C384 C 0.71614 0.1721 0.58463 0.0
C385 C 0.7018 0.17239 0.54222 0.0
C386 C 0.7092 0.19109 0.52015 0.0
H387 H 0.65484 0.25866 0.48263 0.0
H388 H 0.65743 0.22734 0.47461 0.0
H389 H 0.67127 0.23881 0.52509 0.0
H390 H 0.76334 0.22418 0.59761 0.0
H391 H 0.75027 0.19125 0.63684 0.0
H392 H 0.65575 0.82501 0.04708 0.0
H393 H 0.66594 0.79243 0.00627 0.0
H394 H 0.78047 0.79252 0.0754 0.0
H395 H 0.76983 0.8244 0.11797 0.0
H396 H 0.70317 0.7907 0.95752 0.0
H397 H 0.76073 0.72373 0.0767 0.0
H398 H 0.74058 0.75093 0.08634 0.0
H399 H 0.78678 0.75058 0.08533 0.0
C400 C 0.68304 0.81786 0.05391 0.0
C401 C 0.712 0.82708 0.0858 0.0
C402 C 0.68887 0.79929 0.03046 0.0
C403 C 0.7239 0.78976 0.0379 0.0
C404 C 0.753 0.79906 0.06971 0.0
H405 H 0.77612 0.70169 0.85707 0.0
H406 H 0.76565 0.73554 0.89598 0.0
C407 C 0.74698 0.81733 0.09391 0.0
C408 C 0.72965 0.77064 0.01135 0.0
H409 H 0.76366 0.71481 0.01172 0.0
C410 C 0.71624 0.77404 0.96939 0.0
C411 C 0.74636 0.74879 0.02672 0.0
C412 C 0.75909 0.74316 0.0712 0.0
C413 C 0.71861 0.75618 0.94244 0.0
C414 C 0.73631 0.73462 0.95784 0.0
C415 C 0.75017 0.73135 -0.00019 0.0
C416 C 0.73993 0.71479 0.93141 0.0
C417 C 0.70094 0.76039 0.89786 0.0
C418 C 0.7293 0.69184 0.93842 0.0
C419 C 0.73622 0.67255 0.91708 0.0
C420 C 0.75314 0.67587 0.88763 0.0
C421 C 0.76232 0.69886 0.8791 0.0
C422 C 0.75625 0.71817 0.90127 0.0
H423 H 0.67913 0.77402 0.89193 0.0
H424 H 0.72178 0.76693 0.88491 0.0
H425 H 0.68892 0.74384 0.88196 0.0
H426 H 0.71659 0.68872 0.96135 0.0
H427 H 0.72918 0.6549 0.92429 0.0
H428 H 0.24612 0.65038 0.56007 0.0
H429 H 0.25848 0.68371 0.52194 0.0
H430 H 0.21794 0.73213 0.59308 0.0
H431 H 0.20783 0.6987 0.63305 0.0
H432 H 0.21245 0.71161 0.47454 0.0
H433 H 0.30624 0.76721 0.59331 0.0
H434 H 0.29439 0.73744 0.603 0.0
H435 H 0.26411 0.76177 0.60266 0.0
C436 C 0.24072 0.66824 0.56812 0.0
C437 C 0.22639 0.67214 0.59957 0.0
C438 C 0.24757 0.68725 0.54622 0.0
C439 C 0.23943 0.71053 0.55472 0.0
C440 C 0.22544 0.71446 0.5866 0.0
H441 H 0.21042 0.82184 0.37175 0.0
H442 H 0.19975 0.78972 0.41377 0.0
C443 C 0.21952 0.6954 0.60933 0.0
C444 C 0.24349 0.73024 0.52834 0.0
H445 H 0.28114 0.78491 0.52868 0.0
C446 C 0.22773 0.72757 0.48642 0.0
C447 C 0.26356 0.75102 0.5437 0.0
C448 C 0.28335 0.75445 0.58809 0.0
C449 C 0.2319 0.74485 0.45947 0.0
C450 C 0.25095 0.76597 0.47487 0.0
C451 C 0.26631 0.76879 0.51681 0.0
C452 C 0.25683 0.78498 0.44827 0.0
C453 C 0.21696 0.73978 0.41486 0.0
C454 C 0.29225 0.79342 0.45418 0.0
C455 C 0.29816 0.81213 0.43109 0.0
C456 C 0.26887 0.82255 0.40107 0.0
C457 C 0.23349 0.81381 0.3943 0.0
C458 C 0.22744 0.79541 0.41819 0.0
H459 H 0.21365 0.72044 0.40877 0.0
H460 H 0.18968 0.74811 0.40232 0.0
H461 H 0.23501 0.74701 0.39869 0.0
H462 H 0.31539 0.78567 0.47705 0.0
H463 H 0.32573 0.81855 0.43684 0.0
H464 H 0.91727 0.57032 0.88544 0.0
H465 H 0.97047 0.55125 0.93235 0.0
H466 H 0.90124 0.49853 0.95961 0.0
H467 H 0.8475 0.51791 0.91308 0.0
H468 H 0.94345 0.52391 0.0265 0.0
H469 H 0.02881 0.49095 0.93744 0.0
H470 H 0.01464 0.52119 0.92664 0.0
H471 H 0.98108 0.49796 0.91477 0.0
C472 C 0.91347 0.55418 0.90036 0.0
C473 C 0.87829 0.54569 0.89596 0.0
C474 C 0.94392 0.54326 0.92707 0.0
C475 C 0.9397 0.52355 0.94944 0.0
C476 C 0.9049 0.51378 0.94252 0.0
H477 H 0.07771 0.43984 0.13382 0.0
H478 H 0.02644 0.46447 0.09596 0.0
C479 C 0.87431 0.5247 0.91567 0.0
C480 C 0.97083 0.5153 0.98357 0.0
H481 H 0.05758 0.49414 0.00826 0.0
C482 C 0.96836 0.51724 0.02256 0.0
C483 C 0.00339 0.50706 0.97825 0.0
C484 C 0.00711 0.50395 0.93699 0.0
C485 C -0.00225 0.51107 0.05654 0.0
C486 C 0.03017 0.50265 0.05118 0.0
C487 C 0.03279 0.50102 0.01224 0.0
C488 C 0.06008 0.49243 0.08455 0.0
C489 C -0.00606 0.51362 0.09783 0.0
C490 C 0.0959 0.50067 0.09251 0.0
C491 C 0.12532 0.48664 0.11448 0.0
C492 C 0.11893 0.46415 0.12788 0.0
C493 C 0.08313 0.4572 0.12377 0.0
C494 C 0.05385 0.47128 0.10223 0.0
H495 H 0.97263 0.52681 0.09786 0.0
H496 H 0.98583 0.49629 0.10729 0.0
H497 H 0.02014 0.51903 0.1204 0.0
H498 H 0.1011 0.51692 0.07884 0.0
H499 H 0.15272 0.49219 0.11696 0.0
H500 H 0.13605 0.51608 0.58607 0.0
H501 H 0.08071 0.49713 0.54227 0.0
H502 H 0.01482 0.54735 0.58095 0.0
H503 H 0.06989 0.56647 0.62474 0.0
H504 H 0.011 0.47952 0.55164 0.0
H505 H -0.00131 0.56065 0.45756 0.0
H506 H 0.04032 0.55276 0.49677 0.0
H507 H 0.00287 0.56523 0.50963 0.0
C508 C 0.10981 0.52249 0.58651 0.0
C509 C 0.10716 0.54298 0.60818 0.0
C510 C 0.07828 0.51176 0.5613 0.0
C511 C 0.04402 0.52135 0.55785 0.0
C512 C 0.04122 0.54007 0.58287 0.0
H513 H 0.82928 0.48615 0.40051 0.0
H514 H 0.88069 0.50874 0.44426 0.0
C515 C 0.07264 0.55086 0.60793 0.0
C516 C 0.01178 0.51371 0.52481 0.0
H517 H 0.95272 0.53168 0.43424 0.0
C518 C -0.00185 0.49088 0.52603 0.0
C519 C -0.00454 0.5287 0.49147 0.0
C520 C 0.01013 0.55316 0.48839 0.0
C521 C 0.96815 0.48262 0.49462 0.0
C522 C 0.95204 0.49753 0.46117 0.0
C523 C 0.96542 0.52043 0.46005 0.0
C524 C 0.92136 0.48913 0.42711 0.0
C525 C 0.95376 0.45803 0.4973 0.0
C526 C 0.92749 0.47191 0.40126 0.0
C527 C 0.89833 0.45902 0.3763 0.0
C528 C 0.86281 0.46325 0.37709 0.0
C529 C 0.85637 0.48254 0.39929 0.0
C530 C 0.88567 0.49538 0.42443 0.0
H531 H 0.96556 0.45027 0.52789 0.0
H532 H 0.9236 0.45835 0.48933 0.0
H533 H 0.96071 0.44625 0.47547 0.0
H534 H 0.95503 0.46712 0.40288 0.0
H535 H 0.90393 0.44439 0.35912 0.0
H536 H 0.57727 0.94061 0.13433 0.0
H537 H 0.52363 0.96284 0.09473 0.0
H538 H 0.59308 0.01513 0.06689 0.0
H539 H 0.64705 0.99287 0.10674 0.0
H540 H 0.49529 0.01288 0.08119 0.0
H541 H 0.54436 0.97359 0.96204 0.0
H542 H 0.56178 0.96432 0.014 0.0
H543 H 0.57589 0.99208 -0.00113 0.0
C544 C 0.58106 0.95753 0.12155 0.0
C545 C 0.61601 0.96501 0.12301 0.0
C546 C 0.55045 0.97015 0.09888 0.0
C547 C 0.55463 0.99022 0.07732 0.0
C548 C 0.58957 -0.0005 0.08323 0.0
H549 H 0.40837 0.05797 0.87017 0.0
H550 H 0.46112 0.03927 0.91871 0.0
C551 C 0.62032 0.98693 0.10624 0.0
C552 C 0.52347 0.99805 0.04301 0.0
H553 H 0.48887 0.99434 0.94055 0.0
C554 C 0.49383 0.00901 0.0504 0.0
C555 C 0.52172 0.9925 0.00306 0.0
C556 C 0.55245 0.97982 0.99376 0.0
C557 C 0.46248 0.01508 0.01854 0.0
C558 C 0.46063 0.00936 0.97857 0.0
C559 C 0.49035 0.99841 0.97129 0.0
C560 C 0.42916 0.01631 0.94374 0.0
C561 C 0.432 0.02802 0.02787 0.0
C562 C 0.39397 0.00814 0.93971 0.0
C563 C 0.36369 0.01876 0.91185 0.0
C564 C 0.36852 0.03764 0.8879 0.0
C565 C 0.40393 0.04363 0.88862 0.0
C566 C 0.43407 0.03305 0.91644 0.0
H567 H 0.44111 0.03568 0.05871 0.0
H568 H 0.42103 0.04254 0.0059 0.0
H569 H 0.40948 0.01544 0.02585 0.0
H570 H 0.38983 0.99472 0.9599 0.0
H571 H 0.33672 0.01378 0.91194 0.0
H572 H 0.32647 0.99003 0.38837 0.0
H573 H 0.37708 0.01481 0.42834 0.0
H574 H 0.45372 0.96543 0.40641 0.0
H575 H 0.40347 0.94078 0.36658 0.0
H576 H 0.42152 0.99105 0.49678 0.0
H577 H 0.50485 0.02905 0.40973 0.0
H578 H 0.45774 0.02057 0.38655 0.0
H579 H 0.49321 0.99854 0.39777 0.0
C580 C 0.35406 0.98521 0.39028 0.0
C581 C 0.36133 0.96346 0.37498 0.0
C582 C 0.3829 -0.00073 0.41329 0.0
C583 C 0.41901 0.99183 0.4204 0.0
C584 C 0.42605 0.97162 0.40085 0.0
H585 H 0.63151 0.01507 0.58915 0.0
H586 H 0.5771 0.9955 0.54472 0.0
C587 C 0.39735 0.95751 0.37822 0.0
C588 C 0.44857 0.00162 0.4545 0.0
H589 H 0.53487 0.02351 0.48061 0.0
C590 C 0.44613 0.99854 0.49331 0.0
C591 C 0.4807 0.01091 0.44971 0.0
C592 C 0.48422 0.01517 0.40865 0.0
C593 C 0.47556 0.00385 0.52769 0.0
C594 C 0.50794 0.01272 0.5229 0.0
C595 C 0.51012 0.01627 0.48407 0.0
C596 C 0.53927 0.02005 0.55747 0.0
C597 C 0.47214 -0.00068 0.56875 0.0
C598 C 0.53561 0.03934 0.58102 0.0
C599 C 0.56652 0.0504 0.60656 0.0
C600 C 0.60143 0.04244 0.60846 0.0
C601 C 0.60493 0.0215 0.58837 0.0
C602 C 0.57392 0.01045 0.56272 0.0
H603 H 0.45015 0.98638 0.56729 0.0
H604 H 0.49815 0.99256 0.59004 0.0
H605 H 0.46532 0.01619 0.58097 0.0
H606 H 0.50913 0.04714 0.57707 0.0
H607 H 0.56315 0.06648 0.62193 0.0
H608 H 0.06992 0.38664 0.149 0.0
H609 H 0.01843 0.37532 0.1705 0.0
H610 H 0.07411 0.31076 0.222 0.0
H611 H 0.12708 0.32302 0.20292 0.0
H612 H 0.97199 0.34128 0.1564 0.0
H613 H 0.05588 0.33651 0.3183 0.0
H614 H 0.07426 0.34694 0.28033 0.0
H615 H 0.06828 0.31566 0.28636 0.0
C616 C 0.07107 0.36996 0.16469 0.0
C617 C 0.1025 0.35581 0.17479 0.0
C618 C 0.0416 0.36344 0.1769 0.0
C619 C 0.04264 0.34241 0.19869 0.0
C620 C 0.07315 0.32745 0.20648 0.0
H621 H 0.83625 0.32982 0.25475 0.0
H622 H 0.88503 0.31721 0.22867 0.0
C623 C 0.10323 0.33435 0.19533 0.0
C624 C 0.01242 0.33733 0.21483 0.0
H625 H -0.00696 0.33209 0.30273 0.0
C626 C 0.97653 0.33908 0.18839 0.0
C627 C 0.01846 0.33432 0.25659 0.0
C628 C 0.05624 0.33343 0.28713 0.0
C629 C 0.9467 0.34005 0.20276 0.0
C630 C 0.95286 0.33783 0.24467 0.0
C631 C 0.98846 0.33391 0.27067 0.0
C632 C 0.9241 0.34308 0.26294 0.0
C633 C 0.90947 0.3453 0.17315 0.0
C634 C 0.93047 0.36083 0.29251 0.0
C635 C 0.90326 0.36739 0.3084 0.0
C636 C 0.86882 0.35668 0.29442 0.0
C637 C 0.86252 0.33854 0.26554 0.0
C638 C 0.89024 0.33146 0.25045 0.0
H639 H 0.91104 0.35175 0.14381 0.0
H640 H 0.89292 0.32885 0.16731 0.0
H641 H 0.89506 0.35889 0.18529 0.0
H642 H 0.95631 0.37012 0.30262 0.0
H643 H 0.90874 0.3815 0.33053 0.0
H644 H 0.14659 0.63798 0.75819 0.0
H645 H 0.09434 0.64543 0.78096 0.0
H646 H 0.02683 0.65806 0.65834 0.0
H647 H 0.07879 0.6501 0.63499 0.0
H648 H 0.04554 0.68274 0.77433 0.0
H649 H 0.97591 0.60274 0.69264 0.0
H650 H 0.02312 0.60917 0.6995 0.0
H651 H 0.98761 0.62436 0.6613 0.0
C652 C 0.12079 0.64263 0.73598 0.0
C653 C 0.11684 0.64309 0.69461 0.0
C654 C 0.09092 0.64693 0.74914 0.0
C655 C 0.05654 0.6518 0.72128 0.0
C656 C 0.05297 0.65379 0.68026 0.0
H657 H 0.84104 0.65385 0.74589 0.0
H658 H 0.89324 0.66109 0.72301 0.0
C659 C 0.08278 0.64935 0.667 0.0
C660 C 0.02414 0.65315 0.73501 0.0
H661 H 0.9436 0.6255 0.72617 0.0
C662 C 0.02315 0.6703 0.76372 0.0
C663 C -0.00487 0.63675 0.7214 0.0
C664 C -0.00451 0.61707 0.69231 0.0
C665 C -0.00629 0.67161 0.77888 0.0
C666 C 0.96481 0.65518 0.76526 0.0
C667 C 0.9657 0.63819 0.73636 0.0
C668 C 0.93362 0.65463 0.78109 0.0
C669 C -0.00641 0.69065 0.80904 0.0
C670 C 0.93898 0.64911 0.82166 0.0
C671 C 0.90909 0.64496 0.83497 0.0
C672 C 0.87333 0.64603 0.8078 0.0
C673 C 0.86815 0.65272 0.76765 0.0
C674 C 0.89798 0.6569 0.75445 0.0
H675 H 0.01246 0.70537 0.80848 0.0
H676 H 0.96576 0.698 0.80318 0.0
H677 H 0.00259 0.68288 0.83975 0.0
H678 H 0.96627 0.64683 0.84258 0.0
H679 H 0.91411 0.63972 0.86601 0.0
H680 H 0.40968 0.88591 0.33908 0.0
H681 H 0.45821 0.87666 0.31133 0.0
H682 H 0.39594 0.81735 0.24664 0.0
H683 H 0.34608 0.82755 0.27255 0.0
H684 H 0.50135 0.84123 0.31506 0.0
H685 H 0.41335 0.85128 0.15567 0.0
H686 H 0.39758 0.85861 0.19725 0.0
H687 H 0.39938 0.82816 0.18258 0.0
C688 C 0.40641 0.8708 0.31914 0.0
C689 C 0.37402 0.85757 0.30761 0.0
C690 C 0.43419 0.8655 0.30329 0.0
C691 C 0.43047 0.8466 0.27617 0.0
C692 C 0.39896 0.83249 0.26643 0.0
H693 H 0.63041 0.8276 0.20984 0.0
H694 H 0.57969 0.81684 0.23393 0.0
C695 C 0.37064 0.83819 0.28147 0.0
C696 C 0.45927 0.84263 0.25737 0.0
H697 H 0.47507 0.84292 0.16705 0.0
C698 C 0.49563 0.84144 0.28267 0.0
C699 C 0.4517 0.84295 0.21506 0.0
C700 C 0.41346 0.84553 0.18603 0.0
C701 C 0.52472 0.84213 0.26709 0.0
C702 C 0.51717 0.84277 0.22479 0.0
C703 C 0.48078 0.84239 0.19944 0.0
C704 C 0.54614 0.84693 0.20632 0.0
C705 C 0.56302 0.84386 0.2963 0.0
C706 C 0.54317 0.86648 0.18065 0.0
C707 C 0.57143 0.87213 0.16577 0.0
C708 C 0.60355 0.85859 0.17687 0.0
C709 C 0.60607 0.83849 0.2013 0.0
C710 C 0.57727 0.83246 0.21532 0.0
H711 H 0.56328 0.84897 0.32701 0.0
H712 H 0.5766 0.82635 0.29862 0.0
H713 H 0.57929 0.85708 0.28597 0.0
H714 H 0.51944 0.87792 0.17319 0.0
H715 H 0.56882 0.88779 0.14714 0.0
H716 H 0.64067 0.15544 0.74373 0.0
H717 H 0.58972 0.16234 0.76907 0.0
H718 H 0.51374 0.14797 0.6512 0.0
H719 H 0.56443 0.14118 0.62527 0.0
H720 H 0.49302 0.18649 0.69647 0.0
H721 H 0.53183 0.10224 0.78224 0.0
H722 H 0.56741 0.12397 0.79076 0.0
H723 H 0.54914 0.11041 0.74205 0.0
C724 C 0.61317 0.15419 0.72289 0.0
C725 C 0.60673 0.14739 0.68254 0.0
C726 C 0.58409 0.1581 0.73751 0.0
C727 C 0.54807 0.15524 0.71215 0.0
C728 C 0.54141 0.15016 0.67126 0.0
H729 H 0.33493 0.14067 0.73714 0.0
H730 H 0.38607 0.14952 0.71313 0.0
C731 C 0.57047 0.14627 0.65653 0.0
C732 C 0.51763 0.15516 0.72904 0.0
H733 H 0.48225 0.12323 0.79032 0.0
C734 C 0.49064 0.17275 0.71713 0.0
C735 C 0.51462 0.13713 0.75582 0.0
C736 C 0.54207 0.11722 0.76832 0.0
C737 C 0.46077 0.17289 0.73167 0.0
C738 C 0.45763 0.1547 0.75816 0.0
C739 C 0.48484 0.13726 0.77024 0.0
C740 C 0.42576 0.1526 0.77266 0.0
C741 C 0.43312 0.1926 0.71891 0.0
C742 C 0.43101 0.15135 0.81413 0.0
C743 C 0.4019 0.14603 0.828 0.0
C744 C 0.3669 0.14175 0.80064 0.0
C745 C 0.36144 0.14396 0.75911 0.0
C746 C 0.39064 0.14919 0.74527 0.0
H747 H 0.44479 0.20851 0.70894 0.0
H748 H 0.40968 0.18646 0.69319 0.0
H749 H 0.42278 0.19776 0.74383 0.0
H750 H 0.45792 0.15381 0.83579 0.0
H751 H 0.40714 0.14456 0.86018 0.0
H752 H 0.27409 0.45769 0.08016 0.0
H753 H 0.28036 0.48357 0.02705 0.0
H754 H 0.18181 0.4545 0.94407 0.0
H755 H 0.17488 0.42868 -0.00278 0.0
H756 H 0.2848 0.47492 0.95029 0.0
H757 H 0.1608 0.5263 0.944 0.0
H758 H 0.18249 0.50599 0.98445 0.0
H759 H 0.1533 0.49495 0.93692 0.0
C760 C 0.25392 0.45654 0.0505 0.0
C761 C 0.22369 0.44131 0.04309 0.0
C762 C 0.25757 0.47139 0.02022 0.0
C763 C 0.23105 0.47135 0.98206 0.0
C764 C 0.20209 0.45514 0.97371 0.0
H765 H 0.22777 0.5242 0.75649 0.0
H766 H 0.2314 0.50256 0.81732 0.0
C767 C 0.19841 0.44022 0.00399 0.0
C768 C 0.23328 0.48871 0.95138 0.0
H769 H 0.18705 0.53412 0.89238 0.0
C770 C 0.2636 0.48799 0.93784 0.0
C771 C 0.20599 0.50611 0.93599 0.0
C772 C 0.17396 0.50862 0.95132 0.0
C773 C 0.26648 0.50351 0.90779 0.0
C774 C 0.23813 0.51994 0.89069 0.0
C775 C 0.20865 0.52142 0.90553 0.0
C776 C 0.2367 0.53379 0.8545 0.0
C777 C 0.29957 0.50196 0.89411 0.0
C778 C 0.23764 0.55868 0.85507 0.0
C779 C 0.2355 0.57135 0.81995 0.0
C780 C 0.23188 0.55921 0.7838 0.0
C781 C 0.23057 0.53425 0.78364 0.0
C782 C 0.23289 0.52174 0.81852 0.0
H783 H 0.32309 0.4938 0.91755 0.0
H784 H 0.29307 0.49073 0.86672 0.0
H785 H 0.30769 0.51977 0.88651 0.0
H786 H 0.24021 0.56824 0.88265 0.0
H787 H 0.23644 0.59053 0.82106 0.0
H788 H 0.71913 0.43794 0.44832 0.0
H789 H 0.72086 0.46547 0.50277 0.0
H790 H 0.83843 0.46491 0.54141 0.0
H791 H 0.83698 0.43682 0.48795 0.0
H792 H 0.81486 0.46481 0.60417 0.0
H793 H 0.74211 0.5351 0.49887 0.0
H794 H 0.71592 0.50832 0.49188 0.0
H795 H 0.7588 0.50852 0.48208 0.0
C796 C 0.74535 0.44335 0.46888 0.0
C797 C 0.7779 0.43526 0.46374 0.0
C798 C 0.7463 0.45934 0.49962 0.0
C799 C 0.77976 0.46789 0.52523 0.0
C800 C 0.8123 0.45878 0.52165 0.0
H801 H 0.78875 0.5901 0.68648 0.0
H802 H 0.79584 0.56597 0.63074 0.0
C803 C 0.8114 0.44255 0.49126 0.0
C804 C 0.7808 0.48627 0.55578 0.0
H805 H 0.74658 0.54049 0.56837 0.0
C806 C 0.80027 0.48146 0.59625 0.0
C807 C 0.76268 0.50833 0.54536 0.0
C808 C 0.74407 0.51551 0.50213 0.0
C809 C 0.80045 0.49753 0.62678 0.0
C810 C 0.77973 0.51865 0.61666 0.0
C811 C 0.76195 0.52411 0.57607 0.0
C812 C 0.77372 0.53404 0.64813 0.0
C813 C 0.82256 0.49159 0.66968 0.0
C814 C 0.75762 0.52431 0.67503 0.0
C815 C 0.75385 0.53782 0.70659 0.0
C816 C 0.76552 0.56155 0.71162 0.0
C817 C 0.77966 0.57183 0.68328 0.0
C818 C 0.78382 0.55808 0.65166 0.0
H819 H 0.84581 0.47974 0.67083 0.0
H820 H 0.83335 0.50783 0.6874 0.0
H821 H 0.805 0.48211 0.68421 0.0
H822 H 0.7485 0.50605 0.67203 0.0
H823 H 0.74214 0.52954 0.72747 0.0
H824 H 0.73976 0.40907 0.1664 0.0
H825 H 0.74067 0.4338 0.1087 0.0
H826 H 0.76246 0.49562 0.18509 0.0
H827 H 0.76112 0.47175 0.24165 0.0
H828 H 0.70689 0.50277 0.11434 0.0
H829 H 0.82973 0.46455 0.08779 0.0
H830 H 0.79398 0.44413 0.08745 0.0
H831 H 0.81891 0.45893 0.13336 0.0
C832 C 0.74476 0.42791 0.17075 0.0
C833 C 0.75005 0.43832 0.20871 0.0
C834 C 0.74547 0.442 0.13787 0.0
C835 C 0.75178 0.46656 0.14271 0.0
C836 C 0.75735 0.47677 0.18055 0.0
H837 H 0.82037 0.57128 0.00121 0.0
H838 H 0.81424 0.54514 0.0546 0.0
C839 C 0.7565 0.46293 0.21299 0.0
C840 C 0.75205 0.48232 0.10892 0.0
H841 H 0.80106 0.49669 0.04682 0.0
C842 C 0.72729 0.50133 0.0993 0.0
C843 C 0.77909 0.48064 0.08992 0.0
C844 C 0.80719 0.4611 0.10019 0.0
C845 C 0.72919 0.51893 0.0718 0.0
C846 C 0.75607 0.51721 0.05258 0.0
C847 C 0.78055 0.49802 0.06172 0.0
C848 C 0.75871 0.53483 0.02221 0.0
C849 C 0.70312 0.53962 0.06462 0.0
C850 C 0.72929 0.53812 0.9868 0.0
C851 C 0.73255 0.5532 0.95661 0.0
C852 C 0.7655 0.56513 0.96089 0.0
C853 C 0.79451 0.56259 -0.00288 0.0
C854 C 0.79118 0.54745 0.02745 0.0
H855 H 0.69196 0.54194 0.08988 0.0
H856 H 0.71659 0.55637 0.06065 0.0
H857 H 0.67985 0.53635 0.03682 0.0
H858 H 0.70419 0.52832 0.98178 0.0
H859 H 0.70966 0.55467 0.92908 0.0
H860 H 0.1782 0.40516 0.29875 0.0
H861 H 0.16865 0.42972 0.35279 0.0
H862 H 0.26081 0.47294 0.35436 0.0
H863 H 0.27036 0.44878 0.30095 0.0
H864 H 0.22239 0.44697 0.43515 0.0
H865 H 0.16537 0.51685 0.32057 0.0
H866 H 0.1676 0.486 0.30758 0.0
H867 H 0.20773 0.50418 0.31972 0.0
C868 C 0.19705 0.41942 0.31166 0.0
C869 C 0.22489 0.42518 0.29563 0.0
C870 C 0.19142 0.43352 0.34219 0.0
C871 C 0.21364 0.45337 0.35684 0.0
C872 C 0.24308 0.4579 0.343 0.0
H873 H 0.26245 0.55104 0.55102 0.0
H874 H 0.26017 0.52172 0.49912 0.0
C875 C 0.24859 0.44401 0.31264 0.0
C876 C 0.20521 0.47063 0.38442 0.0
H877 H 0.18249 0.52882 0.38944 0.0
C878 C 0.21311 0.46475 0.42515 0.0
C879 C 0.1927 0.49372 0.37111 0.0
C880 C 0.18252 0.50061 0.32729 0.0
C881 C 0.21064 0.48182 0.45337 0.0
C882 C 0.20056 0.50538 0.44047 0.0
C883 C 0.19066 0.51085 0.39935 0.0
C884 C 0.20201 0.52477 0.46953 0.0
C885 C 0.21935 0.47459 0.49688 0.0
C886 C 0.17039 0.53727 0.46861 0.0
C887 C 0.17164 0.55433 0.49811 0.0
C888 C 0.20459 0.55916 0.52889 0.0
C889 C 0.23656 0.54764 0.528 0.0
C890 C 0.23527 0.53068 0.49858 0.0
H891 H 0.21621 0.45516 0.49989 0.0
H892 H 0.24807 0.47927 0.51357 0.0
H893 H 0.2015 0.48395 0.51123 0.0
H894 H 0.14452 0.53317 0.44606 0.0
H895 H 0.14647 0.56275 0.49801 0.0
H896 H 0.66793 0.92857 0.98987 0.0
H897 H 0.67175 0.95492 0.93584 0.0
H898 H 0.77047 0.98556 0.01591 0.0
H899 H 0.76743 0.9591 0.06954 0.0
H900 H 0.66871 0.00373 0.94102 0.0
H901 H 0.79658 0.97677 0.91386 0.0
H902 H 0.77421 0.95827 0.94075 0.0
H903 H 0.80223 0.98267 0.96582 0.0
C904 C 0.69106 0.94039 0.99561 0.0
C905 C 0.71728 0.94176 0.03411 0.0
C906 C 0.69306 0.95556 0.9648 0.0
C907 C 0.72145 0.97215 0.97184 0.0
C908 C 0.74865 0.97267 0.00956 0.0
H909 H 0.75922 0.0882 0.82242 0.0
H910 H 0.75997 0.06499 0.88232 0.0
C911 C 0.74672 0.95756 0.04029 0.0
C912 C 0.72088 0.99037 0.94118 0.0
H913 H 0.76996 0.01317 0.88446 0.0
C914 C 0.6908 0.00574 0.92856 0.0
C915 C 0.74998 0.99318 0.92543 0.0
C916 C 0.78244 0.97672 0.93685 0.0
C917 C 0.68889 0.02374 0.90035 0.0
C918 C 0.71769 0.0263 0.88418 0.0
C919 C 0.74813 0.01129 0.89736 0.0
C920 C 0.7148 0.04246 0.85008 0.0
C921 C 0.65603 0.03983 0.88791 0.0
C922 C 0.68889 0.03763 0.8126 0.0
C923 C 0.68865 0.05058 0.77874 0.0
C924 C 0.7142 0.06873 0.78166 0.0
C925 C 0.73905 0.07444 0.81955 0.0
C926 C 0.73961 0.06115 0.85358 0.0
H927 H 0.6416 0.03997 0.91065 0.0
H928 H 0.66395 0.05827 0.88335 0.0
H929 H 0.63666 0.03344 0.859 0.0
H930 H 0.66986 0.0231 0.80917 0.0
H931 H 0.66916 0.04586 0.74984 0.0
H932 H 0.28138 0.0828 0.69179 0.0
H933 H 0.28399 0.05719 0.63598 0.0
H934 H 0.21433 0.00635 0.66727 0.0
H935 H 0.21285 0.03129 0.72348 0.0
H936 H 0.27284 0.98529 0.66011 0.0
H937 H 0.21201 0.04279 0.52688 0.0
H938 H 0.2503 0.05587 0.56439 0.0
H939 H 0.20921 0.04981 0.57601 0.0
C940 C 0.26608 0.06639 0.68607 0.0
C941 C 0.24701 0.05894 0.71187 0.0
C942 C 0.26752 0.05178 0.65421 0.0
C943 C 0.24921 0.02986 0.64732 0.0
C944 C 0.22884 0.02308 0.6721 0.0
H945 H 0.20828 0.94171 0.43593 0.0
H946 H 0.20352 0.96594 0.49179 0.0
C947 C 0.22792 0.03738 0.70412 0.0
C948 C 0.25287 0.01305 0.61625 0.0
H949 H 0.23854 0.00664 0.51556 0.0
C950 C 0.26523 0.98995 0.62845 0.0
C951 C 0.24267 0.01906 0.57496 0.0
C952 C 0.22747 0.04315 0.55963 0.0
C953 C 0.26737 0.97265 0.60055 0.0
C954 C 0.25795 0.9788 0.55937 0.0
C955 C 0.24583 0.00194 0.54718 0.0
C956 C 0.26004 0.96156 0.52819 0.0
C957 C 0.27871 0.94781 0.61539 0.0
C958 C 0.29311 0.95038 0.53062 0.0
C959 C 0.29571 0.93609 0.49903 0.0
C960 C 0.26546 0.93319 0.4641 0.0
C961 C 0.23204 0.94361 0.46249 0.0
C962 C 0.22935 0.95758 0.49426 0.0
H963 H 0.27415 0.94432 0.6446 0.0
H964 H 0.26353 0.93436 0.59321 0.0
H965 H 0.30825 0.94556 0.62012 0.0
H966 H 0.31737 0.95357 0.55608 0.0
H967 H 0.32197 0.92864 0.50087 0.0
H968 H 0.2891 0.90628 0.1925 0.0
H969 H 0.29858 0.93098 0.13878 0.0
H970 H 0.22488 0.98348 0.15797 0.0
H971 H 0.21549 0.95924 0.21125 0.0
H972 H 0.24852 0.95228 0.06617 0.0
H973 H 0.32274 0.01931 0.17802 0.0
H974 H 0.31444 0.98954 0.19196 0.0
H975 H 0.27915 0.01164 0.18228 0.0
C976 C 0.27436 0.92284 0.18457 0.0
C977 C 0.25189 0.93097 0.20635 0.0
C978 C 0.27998 0.93699 0.15416 0.0
C979 C 0.26318 0.95932 0.14531 0.0
C980 C 0.23882 0.96658 0.1651 0.0
H981 H 0.21778 0.05577 0.94884 0.0
H982 H 0.21842 0.02776 0.00213 0.0
C983 C 0.23335 0.95263 0.19538 0.0
C984 C 0.2715 0.97567 0.11643 0.0
H985 H 0.30138 0.0319 0.10905 0.0
C986 C 0.26053 0.96956 0.07553 0.0
C987 C 0.28779 0.99804 0.12887 0.0
C988 C 0.30207 0.00498 0.17274 0.0
C989 C 0.26355 0.98581 0.04642 0.0
C990 C 0.27734 0.00882 0.05862 0.0
C991 C 0.29026 0.01441 0.09973 0.0
C992 C 0.27713 0.02755 0.02893 0.0
C993 C 0.25162 0.97828 0.00281 0.0
C994 C 0.3098 0.03784 0.02791 0.0
C995 C 0.30952 0.05416 -0.00227 0.0
C996 C 0.2765 0.06044 0.96816 0.0
C997 C 0.24369 0.05119 0.97095 0.0
C998 C 0.24402 0.03499 0.00114 0.0
H999 H 0.25196 0.95868 -0.00018 0.0
H1000 H 0.2233 0.98447 0.98771 0.0
H1001 H 0.26942 0.98613 0.98686 0.0
H1002 H 0.33562 0.03251 0.04943 0.0
H1003 H 0.33529 0.0608 0.99627 0.0
H1004 H 0.64643 0.06329 0.4937 0.0
H1005 H 0.6474 0.0348 0.44128 0.0
H1006 H 0.76077 0.02012 0.50399 0.0
H1007 H 0.76005 0.04825 0.5566 0.0
H1008 H 0.68863 0.03133 0.39031 0.0
H1009 H 0.7146 0.95432 0.49368 0.0
H1010 H 0.70065 0.9829 0.50682 0.0
H1011 H 0.74759 0.97751 0.51135 0.0
C1012 C 0.67176 0.05432 0.49599 0.0
C1013 C 0.70309 0.05793 0.52956 0.0
C1014 C 0.67217 0.0379 0.46616 0.0
C1015 C 0.70385 0.02482 0.46943 0.0
C1016 C 0.73571 0.02947 0.50155 0.0
H1017 H 0.77076 0.95314 0.29273 0.0
H1018 H 0.76282 0.9769 0.34741 0.0
C1019 C 0.73532 0.04576 0.53139 0.0
C1020 C 0.70387 0.00635 0.43931 0.0
H1021 H 0.7239 0.94801 0.42997 0.0
C1022 C 0.69594 0.01307 0.39891 0.0
C1023 C 0.71267 0.98239 0.45042 0.0
C1024 C 0.71899 0.97375 0.49286 0.0
C1025 C 0.69841 0.99676 0.36969 0.0
C1026 C 0.70967 0.97322 0.38133 0.0
C1027 C 0.71577 0.96615 0.42128 0.0
C1028 C 0.71748 0.95638 0.35273 0.0
C1029 C 0.68943 0.00495 0.3266 0.0
C1030 C 0.69607 0.93603 0.33941 0.0
C1031 C 0.70089 0.92211 0.30827 0.0
C1032 C 0.72709 0.92855 0.29024 0.0
C1033 C 0.75013 0.94791 0.30585 0.0
C1034 C 0.7455 0.96159 0.33691 0.0
H1035 H 0.67179 0.02098 0.3206 0.0
H1036 H 0.71507 0.00953 0.32062 0.0
H1037 H 0.67547 0.99077 0.30523 0.0
H1038 H 0.6745 0.93163 0.35161 0.0
H1039 H 0.68263 0.90738 0.29658 0.0
loop_
_geom_bond_atom_site_label_1
_geom_bond_atom_site_label_2
_geom_bond_distance
_geom_bond_site_symmetry_2
_ccdc_geom_bond_type
Sc0 O3 2.025 . S
Sc0 O10 2.105 . S
Sc0 O13 2.105 . S
Sc0 O16 2.105 . S
Sc0 O19 2.105 . S
Sc1 O3 2.025 . S
Sc1 O11 2.105 . S
Sc1 O15 2.105 . S
Sc1 O17 2.105 . S
Sc1 O21 2.105 . S
Sc2 O3 2.025 . S
Sc2 O12 2.105 . S
Sc2 O14 2.105 . S
Sc2 O18 2.105 . S
Sc2 O20 2.105 . S
O3 Sc0 2.025 . S
O3 Sc1 2.025 . S
O3 Sc2 2.025 . S
C4 O10 1.268 . S
C4 O20 1.268 . S
C5 O11 1.268 . S
C5 O19 1.268 . S
C6 O12 1.268 . S
C6 O21 1.268 . S
C7 O13 1.268 . S
C7 O17 1.268 . S
C8 O14 1.268 . S
C8 O16 1.268 . S
C9 O15 1.268 . S
C9 O18 1.268 . S
O10 Sc0 2.105 . S
O10 C4 1.268 . S
O11 Sc1 2.105 . S
O11 C5 1.268 . S
O12 Sc2 2.105 . S
O12 C6 1.268 . S
O13 Sc0 2.105 . S
O13 C7 1.268 . S
O14 Sc2 2.105 . S
O14 C8 1.268 . S
O15 Sc1 2.105 . S
O15 C9 1.268 . S
O16 Sc0 2.105 . S
O16 C8 1.268 . S
O17 Sc1 2.105 . S
O17 C7 1.268 . S
O18 Sc2 2.105 . S
O18 C9 1.268 . S
O19 Sc0 2.105 . S
O19 C5 1.268 . S
O20 Sc2 2.105 . S
O20 C4 1.268 . S
O21 Sc1 2.105 . S
O21 C6 1.268 . S
Sc22 O25 2.025 . S
Sc22 O32 2.105 . S
Sc22 O35 2.105 . S
Sc22 O38 2.105 . S
Sc22 O41 2.105 . S
Sc23 O25 2.025 . S
Sc23 O33 2.105 . S
Sc23 O37 2.105 . S
Sc23 O39 2.105 . S
Sc23 O43 2.105 . S
Sc24 O25 2.025 . S
Sc24 O34 2.105 . S
Sc24 O36 2.105 . S
Sc24 O40 2.105 . S
Sc24 O42 2.105 . S
O25 Sc22 2.025 . S
O25 Sc23 2.025 . S
O25 Sc24 2.025 . S
C26 O32 1.268 . S
C26 O42 1.268 . S
C27 O33 1.268 . S
C27 O41 1.268 . S
C28 O34 1.268 . S
C28 O43 1.268 . S
C29 O35 1.268 . S
C29 O39 1.268 . S
C30 O36 1.268 . S
C30 O38 1.268 . S
C31 O37 1.268 . S
C31 O40 1.268 . S
O32 Sc22 2.105 . S
O32 C26 1.268 . S
O33 Sc23 2.105 . S
O33 C27 1.268 . S
O34 Sc24 2.105 . S
O34 C28 1.268 . S
O35 Sc22 2.105 . S
O35 C29 1.268 . S
O36 Sc24 2.105 . S
O36 C30 1.268 . S
O37 Sc23 2.105 . S
O37 C31 1.268 . S
O38 Sc22 2.105 . S
O38 C30 1.268 . S
O39 Sc23 2.105 . S
O39 C29 1.268 . S
O40 Sc24 2.105 . S
O40 C31 1.268 . S
O41 Sc22 2.105 . S
O41 C27 1.268 . S
O42 Sc24 2.105 . S
O42 C26 1.268 . S
O43 Sc23 2.105 . S
O43 C28 1.268 . S
Sc44 O47 2.025 . S
Sc44 O54 2.105 . S
Sc44 O57 2.105 . S
Sc44 O60 2.105 . S
Sc44 O63 2.105 . S
Sc45 O47 2.025 . S
Sc45 O55 2.105 . S
Sc45 O59 2.105 . S
Sc45 O61 2.105 . S
Sc45 O65 2.105 . S
Sc46 O47 2.025 . S
Sc46 O56 2.105 . S
Sc46 O58 2.105 . S
Sc46 O62 2.105 . S
Sc46 O64 2.105 . S
O47 Sc44 2.025 . S
O47 Sc45 2.025 . S
O47 Sc46 2.025 . S
C48 O54 1.268 . S
C48 O64 1.268 . S
C49 O55 1.268 . S
C49 O63 1.268 . S
C50 O56 1.268 . S
C50 O65 1.268 . S
C51 O57 1.268 . S
C51 O61 1.268 . S
C52 O58 1.268 . S
C52 O60 1.268 . S
C53 O59 1.268 . S
C53 O62 1.268 . S
O54 Sc44 2.105 . S
O54 C48 1.268 . S
O55 Sc45 2.105 . S
O55 C49 1.268 . S
O56 Sc46 2.105 . S
O56 C50 1.268 . S
O57 Sc44 2.105 . S
O57 C51 1.268 . S
O58 Sc46 2.105 . S
O58 C52 1.268 . S
O59 Sc45 2.105 . S
O59 C53 1.268 . S
O60 Sc44 2.105 . S
O60 C52 1.268 . S
O61 Sc45 2.105 . S
O61 C51 1.268 . S
O62 Sc46 2.105 . S
O62 C53 1.268 . S
O63 Sc44 2.105 . S
O63 C49 1.268 . S
O64 Sc46 2.105 . S
O64 C48 1.268 . S
O65 Sc45 2.105 . S
O65 C50 1.268 . S
Sc66 O69 2.025 . S
Sc66 O76 2.105 . S
Sc66 O79 2.105 . S
Sc66 O82 2.105 . S
Sc66 O85 2.105 . S
Sc67 O69 2.025 . S
Sc67 O77 2.105 . S
Sc67 O81 2.105 . S
Sc67 O83 2.105 . S
Sc67 O87 2.105 . S
Sc68 O69 2.025 . S
Sc68 O78 2.105 . S
Sc68 O80 2.105 . S
Sc68 O84 2.105 . S
Sc68 O86 2.105 . S
O69 Sc66 2.025 . S
O69 Sc67 2.025 . S
O69 Sc68 2.025 . S
C70 O76 1.268 . S
C70 O86 1.268 . S
C71 O77 1.268 . S
C71 O85 1.268 . S
C72 O78 1.268 . S
C72 O87 1.268 . S
C73 O79 1.268 . S
C73 O83 1.268 . S
C74 O80 1.268 . S
C74 O82 1.268 . S
C75 O81 1.268 . S
C75 O84 1.268 . S
O76 Sc66 2.105 . S
O76 C70 1.268 . S
O77 Sc67 2.105 . S
O77 C71 1.268 . S
O78 Sc68 2.105 . S
O78 C72 1.268 . S
O79 Sc66 2.105 . S
O79 C73 1.268 . S
O80 Sc68 2.105 . S
O80 C74 1.268 . S
O81 Sc67 2.105 . S
O81 C75 1.268 . S
O82 Sc66 2.105 . S
O82 C74 1.268 . S
O83 Sc67 2.105 . S
O83 C73 1.268 . S
O84 Sc68 2.105 . S
O84 C75 1.268 . S
O85 Sc66 2.105 . S
O85 C71 1.268 . S
O86 Sc68 2.105 . S
O86 C70 1.268 . S
O87 Sc67 2.105 . S
O87 C72 1.268 . S
Sc88 O91 2.025 . S
Sc88 O98 2.105 . S
Sc88 O101 2.105 . S
Sc88 O104 2.105 . S
Sc88 O107 2.105 . S
Sc89 O91 2.025 . S
Sc89 O99 2.105 . S
Sc89 O103 2.105 . S
Sc89 O105 2.105 . S
Sc89 O109 2.105 . S
Sc90 O91 2.025 . S
Sc90 O100 2.105 . S
Sc90 O102 2.105 . S
Sc90 O106 2.105 . S
Sc90 O108 2.105 . S
O91 Sc88 2.025 . S
O91 Sc89 2.025 . S
O91 Sc90 2.025 . S
C92 O98 1.268 . S
C92 O108 1.268 . S
C93 O99 1.268 . S
C93 O107 1.268 . S
C94 O100 1.268 . S
C94 O109 1.268 . S
C95 O101 1.268 . S
C95 O105 1.268 . S
C96 O102 1.268 . S
C96 O104 1.268 . S
C97 O103 1.268 . S
C97 O106 1.268 . S
O98 Sc88 2.105 . S
O98 C92 1.268 . S
O99 Sc89 2.105 . S
O99 C93 1.268 . S
O100 Sc90 2.105 . S
O100 C94 1.268 . S
O101 Sc88 2.105 . S
O101 C95 1.268 . S
O102 Sc90 2.105 . S
O102 C96 1.268 . S
O103 Sc89 2.105 . S
O103 C97 1.268 . S
O104 Sc88 2.105 . S
O104 C96 1.268 . S
O105 Sc89 2.105 . S
O105 C95 1.268 . S
O106 Sc90 2.105 . S
O106 C97 1.268 . S
O107 Sc88 2.105 . S
O107 C93 1.268 . S
O108 Sc90 2.105 . S
O108 C92 1.268 . S
O109 Sc89 2.105 . S
O109 C94 1.268 . S
Sc110 O113 2.025 . S
Sc110 O120 2.105 . S
Sc110 O123 2.105 . S
Sc110 O126 2.105 . S
Sc110 O129 2.105 . S
Sc111 O113 2.025 . S
Sc111 O121 2.105 . S
Sc111 O125 2.105 . S
Sc111 O127 2.105 . S
Sc111 O131 2.105 . S
Sc112 O113 2.025 . S
Sc112 O122 2.105 . S
Sc112 O124 2.105 . S
Sc112 O128 2.105 . S
Sc112 O130 2.105 . S
O113 Sc110 2.025 . S
O113 Sc111 2.025 . S
O113 Sc112 2.025 . S
C114 O120 1.268 . S
C114 O130 1.268 . S
C115 O121 1.268 . S
C115 O129 1.268 . S
C116 O122 1.268 . S
C116 O131 1.268 . S
C117 O123 1.268 . S
C117 O127 1.268 . S
C118 O124 1.268 . S
C118 O126 1.268 . S
C119 O125 1.268 . S
C119 O128 1.268 . S
O120 Sc110 2.105 . S
O120 C114 1.268 . S
O121 Sc111 2.105 . S
O121 C115 1.268 . S
O122 Sc112 2.105 . S
O122 C116 1.268 . S
O123 Sc110 2.105 . S
O123 C117 1.268 . S
O124 Sc112 2.105 . S
O124 C118 1.268 . S
O125 Sc111 2.105 . S
O125 C119 1.268 . S
O126 Sc110 2.105 . S
O126 C118 1.268 . S
O127 Sc111 2.105 . S
O127 C117 1.268 . S
O128 Sc112 2.105 . S
O128 C119 1.268 . S
O129 Sc110 2.105 . S
O129 C115 1.268 . S
O130 Sc112 2.105 . S
O130 C114 1.268 . S
O131 Sc111 2.105 . S
O131 C116 1.268 . S
Sc132 O135 2.025 . S
Sc132 O142 2.105 . S
Sc132 O145 2.105 . S
Sc132 O148 2.105 . S
Sc132 O151 2.105 . S
Sc133 O135 2.025 . S
Sc133 O143 2.105 . S
Sc133 O147 2.105 . S
Sc133 O149 2.105 . S
Sc133 O153 2.105 . S
Sc134 O135 2.025 . S
Sc134 O144 2.105 . S
Sc134 O146 2.105 . S
Sc134 O150 2.105 . S
Sc134 O152 2.105 . S
O135 Sc132 2.025 . S
O135 Sc133 2.025 . S
O135 Sc134 2.025 . S
C136 O142 1.268 . S
C136 O152 1.268 . S
C137 O143 1.268 . S
C137 O151 1.268 . S
C138 O144 1.268 . S
C138 O153 1.268 . S
C139 O145 1.268 . S
C139 O149 1.268 . S
C140 O146 1.268 . S
C140 O148 1.268 . S
C141 O147 1.268 . S
C141 O150 1.268 . S
O142 Sc132 2.105 . S
O142 C136 1.268 . S
O143 Sc133 2.105 . S
O143 C137 1.268 . S
O144 Sc134 2.105 . S
O144 C138 1.268 . S
O145 Sc132 2.105 . S
O145 C139 1.268 . S
O146 Sc134 2.105 . S
O146 C140 1.268 . S
O147 Sc133 2.105 . S
O147 C141 1.268 . S
O148 Sc132 2.105 . S
O148 C140 1.268 . S
O149 Sc133 2.105 . S
O149 C139 1.268 . S
O150 Sc134 2.105 . S
O150 C141 1.268 . S
O151 Sc132 2.105 . S
O151 C137 1.268 . S
O152 Sc134 2.105 . S
O152 C136 1.268 . S
O153 Sc133 2.105 . S
O153 C138 1.268 . S
Sc154 O157 2.025 . S
Sc154 O164 2.105 . S
Sc154 O167 2.105 . S
Sc154 O170 2.105 . S
Sc154 O173 2.105 . S
Sc155 O157 2.025 . S
Sc155 O165 2.105 . S
Sc155 O169 2.105 . S
Sc155 O171 2.105 . S
Sc155 O175 2.105 . S
Sc156 O157 2.025 . S
Sc156 O166 2.105 . S
Sc156 O168 2.105 . S
Sc156 O172 2.105 . S
Sc156 O174 2.105 . S
O157 Sc154 2.025 . S
O157 Sc155 2.025 . S
O157 Sc156 2.025 . S
C158 O164 1.268 . S
C158 O174 1.268 . S
C159 O165 1.268 . S
C159 O173 1.268 . S
C160 O166 1.268 . S
C160 O175 1.268 . S
C161 O167 1.268 . S
C161 O171 1.268 . S
C162 O168 1.268 . S
C162 O170 1.268 . S
C163 O169 1.268 . S
C163 O172 1.268 . S
O164 Sc154 2.105 . S
O164 C158 1.268 . S
O165 Sc155 2.105 . S
O165 C159 1.268 . S
O166 Sc156 2.105 . S
O166 C160 1.268 . S
O167 Sc154 2.105 . S
O167 C161 1.268 . S
O168 Sc156 2.105 . S
O168 C162 1.268 . S
O169 Sc155 2.105 . S
O169 C163 1.268 . S
O170 Sc154 2.105 . S
O170 C162 1.268 . S
O171 Sc155 2.105 . S
O171 C161 1.268 . S
O172 Sc156 2.105 . S
O172 C163 1.268 . S
O173 Sc154 2.105 . S
O173 C159 1.268 . S
O174 Sc156 2.105 . S
O174 C158 1.268 . S
O175 Sc155 2.105 . S
O175 C160 1.268 . S
H176 C184 0.929 . S
H177 C186 0.930 . S
H178 C188 0.930 . S
H179 C191 0.929 . S
H180 C194 0.930 . S
H181 C196 0.960 . S
H182 C196 0.960 . S
H183 C196 0.960 . S
C184 H176 0.929 . S
C184 C185 1.377 . S
C184 C186 1.384 . S
C185 C184 1.377 . S
C185 C191 1.390 . S
C186 H177 0.930 . S
C186 C184 1.384 . S
C186 C187 1.372 . S
C187 C186 1.372 . S
C187 C188 1.400 . S
C187 C192 1.490 . S
C188 H178 0.930 . S
C188 C187 1.400 . S
C188 C191 1.386 . S
H189 C205 0.930 . S
H190 C206 0.931 . S
C191 H179 0.929 . S
C191 C185 1.390 . S
C191 C188 1.386 . S
C192 C187 1.490 . S
C192 C194 1.395 . S
C192 C195 1.403 . S
H193 C199 0.930 . S
C194 H180 0.930 . S
C194 C192 1.395 . S
C194 C197 1.403 . S
C195 C192 1.403 . S
C195 C196 1.524 . S
C195 C199 1.400 . S
C196 H181 0.960 . S
C196 H182 0.960 . S
C196 H183 0.960 . S
C196 C195 1.524 . S
C197 C194 1.403 . S
C197 C198 1.392 . S
C197 C201 1.495 . S
C198 C197 1.392 . S
C198 C199 1.385 . S
C198 C200 1.478 . S
C199 H193 0.930 . S
C199 C195 1.400 . S
C199 C198 1.385 . S
C200 C198 1.478 . S
C200 C202 1.381 . S
C200 C206 1.383 . S
C201 C197 1.495 . S
C201 H207 0.959 . S
C201 H208 0.961 . S
C201 H209 0.960 . S
C202 C200 1.381 . S
C202 C203 1.394 . S
C202 H210 0.930 . S
C203 C202 1.394 . S
C203 C204 1.383 . S
C203 H211 0.929 . S
C204 C203 1.383 . S
C204 C205 1.377 . S
C205 H189 0.930 . S
C205 C204 1.377 . S
C205 C206 1.379 . S
C206 H190 0.931 . S
C206 C200 1.383 . S
C206 C205 1.379 . S
H207 C201 0.959 . S
H208 C201 0.961 . S
H209 C201 0.960 . S
H210 C202 0.930 . S
H211 C203 0.929 . S
H212 C220 0.929 . S
H213 C222 0.930 . S
H214 C224 0.930 . S
H215 C227 0.929 . S
H216 C230 0.930 . S
H217 C232 0.960 . S
H218 C232 0.960 . S
H219 C232 0.960 . S
C220 H212 0.929 . S
C220 C221 1.377 . S
C220 C222 1.384 . S
C221 C220 1.377 . S
C221 C227 1.390 . S
C222 H213 0.930 . S
C222 C220 1.384 . S
C222 C223 1.372 . S
C223 C222 1.372 . S
C223 C224 1.400 . S
C223 C228 1.490 . S
C224 H214 0.930 . S
C224 C223 1.400 . S
C224 C227 1.386 . S
H225 C241 0.930 . S
H226 C242 0.931 . S
C227 H215 0.929 . S
C227 C221 1.390 . S
C227 C224 1.386 . S
C228 C223 1.490 . S
C228 C230 1.395 . S
C228 C231 1.403 . S
H229 C235 0.930 . S
C230 H216 0.930 . S
C230 C228 1.395 . S
C230 C233 1.403 . S
C231 C228 1.403 . S
C231 C232 1.524 . S
C231 C235 1.400 . S
C232 H217 0.960 . S
C232 H218 0.960 . S
C232 H219 0.960 . S
C232 C231 1.524 . S
C233 C230 1.403 . S
C233 C234 1.392 . S
C233 C237 1.495 . S
C234 C233 1.392 . S
C234 C235 1.385 . S
C234 C236 1.478 . S
C235 H229 0.930 . S
C235 C231 1.400 . S
C235 C234 1.385 . S
C236 C234 1.478 . S
C236 C238 1.381 . S
C236 C242 1.383 . S
C237 C233 1.495 . S
C237 H243 0.959 . S
C237 H244 0.961 . S
C237 H245 0.960 . S
C238 C236 1.381 . S
C238 C239 1.394 . S
C238 H246 0.930 . S
C239 C238 1.394 . S
C239 C240 1.383 . S
C239 H247 0.929 . S
C240 C239 1.383 . S
C240 C241 1.377 . S
C241 H225 0.930 . S
C241 C240 1.377 . S
C241 C242 1.379 . S
C242 H226 0.931 . S
C242 C236 1.383 . S
C242 C241 1.379 . S
H243 C237 0.959 . S
H244 C237 0.961 . S
H245 C237 0.960 . S
H246 C238 0.930 . S
H247 C239 0.929 . S
H248 C256 0.929 . S
H249 C258 0.930 . S
H250 C260 0.930 . S
H251 C263 0.929 . S
H252 C266 0.930 . S
H253 C268 0.960 . S
H254 C268 0.960 . S
H255 C268 0.960 . S
C256 H248 0.929 . S
C256 C257 1.377 . S
C256 C258 1.384 . S
C257 C256 1.377 . S
C257 C263 1.390 . S
C258 H249 0.930 . S
C258 C256 1.384 . S
C258 C259 1.372 . S
C259 C258 1.372 . S
C259 C260 1.400 . S
C259 C264 1.490 . S
C260 H250 0.930 . S
C260 C259 1.400 . S
C260 C263 1.386 . S
H261 C277 0.930 . S
H262 C278 0.931 . S
C263 H251 0.929 . S
C263 C257 1.390 . S
C263 C260 1.386 . S
C264 C259 1.490 . S
C264 C266 1.395 . S
C264 C267 1.403 . S
H265 C271 0.930 . S
C266 H252 0.930 . S
C266 C264 1.395 . S
C266 C269 1.403 1_455 S
C267 C264 1.403 . S
C267 C268 1.524 . S
C267 C271 1.400 1_455 S
C268 H253 0.960 . S
C268 H254 0.960 . S
C268 H255 0.960 . S
C268 C267 1.524 . S
C269 C266 1.403 1_655 S
C269 C270 1.392 . S
C269 C273 1.495 . S
C270 C269 1.392 . S
C270 C271 1.385 . S
C270 C272 1.478 . S
C271 H265 0.930 . S
C271 C267 1.400 1_655 S
C271 C270 1.385 . S
C272 C270 1.478 . S
C272 C274 1.381 . S
C272 C278 1.383 . S
C273 C269 1.495 . S
C273 H279 0.959 . S
C273 H280 0.961 . S
C273 H281 0.960 . S
C274 C272 1.381 . S
C274 C275 1.394 . S
C274 H282 0.930 . S
C275 C274 1.394 . S
C275 C276 1.383 . S
C275 H283 0.929 . S
C276 C275 1.383 . S
C276 C277 1.377 . S
C277 H261 0.930 . S
C277 C276 1.377 . S
C277 C278 1.379 . S
C278 H262 0.931 . S
C278 C272 1.383 . S
C278 C277 1.379 . S
H279 C273 0.959 . S
H280 C273 0.961 . S
H281 C273 0.960 . S
H282 C274 0.930 . S
H283 C275 0.929 . S
H284 C292 0.929 . S
H285 C294 0.930 . S
H286 C296 0.930 . S
H287 C299 0.929 . S
H288 C302 0.930 . S
H289 C304 0.960 . S
H290 C304 0.960 . S
H291 C304 0.960 . S
C292 H284 0.929 . S
C292 C293 1.377 . S
C292 C294 1.384 . S
C293 C292 1.377 . S
C293 C299 1.390 . S
C294 H285 0.930 . S
C294 C292 1.384 . S
C294 C295 1.372 . S
C295 C294 1.372 . S
C295 C296 1.400 . S
C295 C300 1.490 . S
C296 H286 0.930 . S
C296 C295 1.400 . S
C296 C299 1.386 . S
H297 C313 0.930 . S
H298 C314 0.931 . S
C299 H287 0.929 . S
C299 C293 1.390 . S
C299 C296 1.386 . S
C300 C295 1.490 . S
C300 C302 1.395 . S
C300 C303 1.403 . S
H301 C307 0.930 . S
C302 H288 0.930 . S
C302 C300 1.395 . S
C302 C305 1.403 1_455 S
C303 C300 1.403 . S
C303 C304 1.524 . S
C303 C307 1.400 1_455 S
C304 H289 0.960 . S
C304 H290 0.960 . S
C304 H291 0.960 . S
C304 C303 1.524 . S
C305 C302 1.403 1_655 S
C305 C306 1.392 . S
C305 C309 1.495 . S
C306 C305 1.392 . S
C306 C307 1.385 . S
C306 C308 1.478 . S
C307 H301 0.930 . S
C307 C303 1.400 1_655 S
C307 C306 1.385 . S
C308 C306 1.478 . S
C308 C310 1.381 . S
C308 C314 1.383 . S
C309 C305 1.495 . S
C309 H315 0.959 . S
C309 H316 0.961 . S
C309 H317 0.960 . S
C310 C308 1.381 . S
C310 C311 1.394 . S
C310 H318 0.930 . S
C311 C310 1.394 . S
C311 C312 1.383 . S
C311 H319 0.929 . S
C312 C311 1.383 . S
C312 C313 1.377 . S
C313 H297 0.930 . S
C313 C312 1.377 . S
C313 C314 1.379 . S
C314 H298 0.931 . S
C314 C308 1.383 . S
C314 C313 1.379 . S
H315 C309 0.959 . S
H316 C309 0.961 . S
H317 C309 0.960 . S
H318 C310 0.930 . S
H319 C311 0.929 . S
H320 C328 0.929 . S
H321 C330 0.930 . S
H322 C332 0.930 . S
H323 C335 0.929 . S
H324 C338 0.930 . S
H325 C340 0.960 . S
H326 C340 0.960 . S
H327 C340 0.960 . S
C328 H320 0.929 . S
C328 C329 1.377 . S
C328 C330 1.384 . S
C329 C328 1.377 . S
C329 C335 1.390 . S
C330 H321 0.930 . S
C330 C328 1.384 . S
C330 C331 1.372 . S
C331 C330 1.372 . S
C331 C332 1.400 . S
C331 C336 1.490 . S
C332 H322 0.930 . S
C332 C331 1.400 . S
C332 C335 1.386 . S
H333 C349 0.930 . S
H334 C350 0.931 . S
C335 H323 0.929 . S
C335 C329 1.390 . S
C335 C332 1.386 . S
C336 C331 1.490 . S
C336 C338 1.395 1_554 S
C336 C339 1.403 . S
H337 C343 0.930 . S
C338 H324 0.930 . S
C338 C336 1.395 1_556 S
C338 C341 1.403 . S
C339 C336 1.403 . S
C339 C340 1.524 . S
C339 C343 1.400 . S
C340 H325 0.960 . S
C340 H326 0.960 . S
C340 H327 0.960 . S
C340 C339 1.524 . S
C341 C338 1.403 . S
C341 C342 1.392 . S
C341 C345 1.495 . S
C342 C341 1.392 . S
C342 C343 1.385 1_556 S
C342 C344 1.478 . S
C343 H337 0.930 . S
C343 C339 1.400 . S
C343 C342 1.385 1_554 S
C344 C342 1.478 . S
C344 C346 1.381 . S
C344 C350 1.383 . S
C345 C341 1.495 . S
C345 H351 0.959 . S
C345 H352 0.961 . S
C345 H353 0.960 . S
C346 C344 1.381 . S
C346 C347 1.394 . S
C346 H354 0.930 . S
C347 C346 1.394 . S
C347 C348 1.383 . S
C347 H355 0.929 . S
C348 C347 1.383 . S
C348 C349 1.377 . S
C349 H333 0.930 . S
C349 C348 1.377 . S
C349 C350 1.379 . S
C350 H334 0.931 . S
C350 C344 1.383 . S
C350 C349 1.379 . S
H351 C345 0.959 . S
H352 C345 0.961 . S
H353 C345 0.960 . S
H354 C346 0.930 . S
H355 C347 0.929 . S
H356 C364 0.929 . S
H357 C366 0.930 . S
H358 C368 0.930 . S
H359 C371 0.929 . S
H360 C374 0.930 . S
H361 C376 0.960 . S
H362 C376 0.960 . S
H363 C376 0.960 . S
C364 H356 0.929 . S
C364 C365 1.377 . S
C364 C366 1.384 . S
C365 C364 1.377 . S
C365 C371 1.390 . S
C366 H357 0.930 . S
C366 C364 1.384 . S
C366 C367 1.372 . S
C367 C366 1.372 . S
C367 C368 1.400 . S
C367 C372 1.490 . S
C368 H358 0.930 . S
C368 C367 1.400 . S
C368 C371 1.386 . S
H369 C385 0.930 . S
H370 C386 0.931 . S
C371 H359 0.929 . S
C371 C365 1.390 . S
C371 C368 1.386 . S
C372 C367 1.490 . S
C372 C374 1.395 . S
C372 C375 1.403 . S
H373 C379 0.930 . S
C374 H360 0.930 . S
C374 C372 1.395 . S
C374 C377 1.403 . S
C375 C372 1.403 . S
C375 C376 1.524 . S
C375 C379 1.400 . S
C376 H361 0.960 . S
C376 H362 0.960 . S
C376 H363 0.960 . S
C376 C375 1.524 . S
C377 C374 1.403 . S
C377 C378 1.392 . S
C377 C381 1.495 . S
C378 C377 1.392 . S
C378 C379 1.385 . S
C378 C380 1.478 . S
C379 H373 0.930 . S
C379 C375 1.400 . S
C379 C378 1.385 . S
C380 C378 1.478 . S
C380 C382 1.381 . S
C380 C386 1.383 . S
C381 C377 1.495 . S
C381 H387 0.959 . S
C381 H388 0.961 . S
C381 H389 0.960 . S
C382 C380 1.381 . S
C382 C383 1.394 . S
C382 H390 0.930 . S
C383 C382 1.394 . S
C383 C384 1.383 . S
C383 H391 0.929 . S
C384 C383 1.383 . S
C384 C385 1.377 . S
C385 H369 0.930 . S
C385 C384 1.377 . S
C385 C386 1.379 . S
C386 H370 0.931 . S
C386 C380 1.383 . S
C386 C385 1.379 . S
H387 C381 0.959 . S
H388 C381 0.961 . S
H389 C381 0.960 . S
H390 C382 0.930 . S
H391 C383 0.929 . S
H392 C400 0.929 . S
H393 C402 0.930 . S
H394 C404 0.930 . S
H395 C407 0.929 . S
H396 C410 0.930 . S
H397 C412 0.960 . S
H398 C412 0.960 . S
H399 C412 0.960 . S
C400 H392 0.929 . S
C400 C401 1.377 . S
C400 C402 1.384 . S
C401 C400 1.377 . S
C401 C407 1.390 . S
C402 H393 0.930 . S
C402 C400 1.384 . S
C402 C403 1.372 . S
C403 C402 1.372 . S
C403 C404 1.400 . S
C403 C408 1.490 . S
C404 H394 0.930 . S
C404 C403 1.400 . S
C404 C407 1.386 . S
H405 C421 0.930 . S
H406 C422 0.931 . S
C407 H395 0.929 . S
C407 C401 1.390 . S
C407 C404 1.386 . S
C408 C403 1.490 . S
C408 C410 1.395 1_554 S
C408 C411 1.403 . S
H409 C415 0.930 . S
C410 H396 0.930 . S
C410 C408 1.395 1_556 S
C410 C413 1.403 . S
C411 C408 1.403 . S
C411 C412 1.524 . S
C411 C415 1.400 . S
C412 H397 0.960 . S
C412 H398 0.960 . S
C412 H399 0.960 . S
C412 C411 1.524 . S
C413 C410 1.403 . S
C413 C414 1.392 . S
C413 C417 1.495 . S
C414 C413 1.392 . S
C414 C415 1.385 1_556 S
C414 C416 1.478 . S
C415 H409 0.930 . S
C415 C411 1.400 . S
C415 C414 1.385 1_554 S
C416 C414 1.478 . S
C416 C418 1.381 . S
C416 C422 1.383 . S
C417 C413 1.495 . S
C417 H423 0.959 . S
C417 H424 0.961 . S
C417 H425 0.960 . S
C418 C416 1.381 . S
C418 C419 1.394 . S
C418 H426 0.930 . S
C419 C418 1.394 . S
C419 C420 1.383 . S
C419 H427 0.929 . S
C420 C419 1.383 . S
C420 C421 1.377 . S
C421 H405 0.930 . S
C421 C420 1.377 . S
C421 C422 1.379 . S
C422 H406 0.931 . S
C422 C416 1.383 . S
C422 C421 1.379 . S
H423 C417 0.959 . S
H424 C417 0.961 . S
H425 C417 0.960 . S
H426 C418 0.930 . S
H427 C419 0.929 . S
H428 C436 0.929 . S
H429 C438 0.930 . S
H430 C440 0.930 . S
H431 C443 0.929 . S
H432 C446 0.930 . S
H433 C448 0.960 . S
H434 C448 0.960 . S
H435 C448 0.960 . S
C436 H428 0.929 . S
C436 C437 1.377 . S
C436 C438 1.384 . S
C437 C436 1.377 . S
C437 C443 1.390 . S
C438 H429 0.930 . S
C438 C436 1.384 . S
C438 C439 1.372 . S
C439 C438 1.372 . S
C439 C440 1.400 . S
C439 C444 1.490 . S
C440 H430 0.930 . S
C440 C439 1.400 . S
C440 C443 1.386 . S
H441 C457 0.930 . S
H442 C458 0.931 . S
C443 H431 0.929 . S
C443 C437 1.390 . S
C443 C440 1.386 . S
C444 C439 1.490 . S
C444 C446 1.395 . S
C444 C447 1.403 . S
H445 C451 0.930 . S
C446 H432 0.930 . S
C446 C444 1.395 . S
C446 C449 1.403 . S
C447 C444 1.403 . S
C447 C448 1.524 . S
C447 C451 1.400 . S
C448 H433 0.960 . S
C448 H434 0.960 . S
C448 H435 0.960 . S
C448 C447 1.524 . S
C449 C446 1.403 . S
C449 C450 1.392 . S
C449 C453 1.495 . S
C450 C449 1.392 . S
C450 C451 1.385 . S
C450 C452 1.478 . S
C451 H445 0.930 . S
C451 C447 1.400 . S
C451 C450 1.385 . S
C452 C450 1.478 . S
C452 C454 1.381 . S
C452 C458 1.383 . S
C453 C449 1.495 . S
C453 H459 0.959 . S
C453 H460 0.961 . S
C453 H461 0.960 . S
C454 C452 1.381 . S
C454 C455 1.394 . S
C454 H462 0.930 . S
C455 C454 1.394 . S
C455 C456 1.383 . S
C455 H463 0.929 . S
C456 C455 1.383 . S
C456 C457 1.377 . S
C457 H441 0.930 . S
C457 C456 1.377 . S
C457 C458 1.379 . S
C458 H442 0.931 . S
C458 C452 1.383 . S
C458 C457 1.379 . S
H459 C453 0.959 . S
H460 C453 0.961 . S
H461 C453 0.960 . S
H462 C454 0.930 . S
H463 C455 0.929 . S
H464 C472 0.929 . S
H465 C474 0.930 . S
H466 C476 0.930 . S
H467 C479 0.929 . S
H468 C482 0.930 . S
H469 C484 0.960 1_455 S
H470 C484 0.960 . S
H471 C484 0.960 . S
C472 H464 0.929 . S
C472 C473 1.377 . S
C472 C474 1.384 . S
C473 C472 1.377 . S
C473 C479 1.390 . S
C474 H465 0.930 . S
C474 C472 1.384 . S
C474 C475 1.372 . S
C475 C474 1.372 . S
C475 C476 1.400 . S
C475 C480 1.490 . S
C476 H466 0.930 . S
C476 C475 1.400 . S
C476 C479 1.386 . S
H477 C493 0.930 . S
H478 C494 0.931 . S
C479 H467 0.929 . S
C479 C473 1.390 . S
C479 C476 1.386 . S
C480 C475 1.490 . S
C480 C482 1.395 1_556 S
C480 C483 1.403 . S
H481 C487 0.930 . S
C482 H468 0.930 . S
C482 C480 1.395 1_554 S
C482 C485 1.403 1_655 S
C483 C480 1.403 . S
C483 C484 1.524 . S
C483 C487 1.400 1_655 S
C484 H469 0.960 1_655 S
C484 H470 0.960 . S
C484 H471 0.960 . S
C484 C483 1.524 . S
C485 C482 1.403 1_455 S
C485 C486 1.392 . S
C485 C489 1.495 . S
C486 C485 1.392 . S
C486 C487 1.385 1_554 S
C486 C488 1.478 . S
C487 H481 0.930 . S
C487 C483 1.400 1_455 S
C487 C486 1.385 1_556 S
C488 C486 1.478 . S
C488 C490 1.381 . S
C488 C494 1.383 . S
C489 C485 1.495 . S
C489 H495 0.959 1_455 S
C489 H496 0.961 . S
C489 H497 0.960 . S
C490 C488 1.381 . S
C490 C491 1.394 . S
C490 H498 0.930 . S
C491 C490 1.394 . S
C491 C492 1.383 . S
C491 H499 0.929 . S
C492 C491 1.383 . S
C492 C493 1.377 . S
C493 H477 0.930 . S
C493 C492 1.377 . S
C493 C494 1.379 . S
C494 H478 0.931 . S
C494 C488 1.383 . S
C494 C493 1.379 . S
H495 C489 0.959 1_655 S
H496 C489 0.961 . S
H497 C489 0.960 . S
H498 C490 0.930 . S
H499 C491 0.929 . S
H500 C508 0.929 . S
H501 C510 0.930 . S
H502 C512 0.930 . S
H503 C515 0.929 . S
H504 C518 0.930 . S
H505 C520 0.973 . S
H506 C520 0.956 1_455 S
H507 C520 0.955 1_455 S
C508 H500 0.929 . S
C508 C509 1.377 . S
C508 C510 1.384 . S
C509 C508 1.377 . S
C509 C515 1.390 . S
C510 H501 0.930 . S
C510 C508 1.384 . S
C510 C511 1.372 . S
C511 C510 1.372 . S
C511 C512 1.400 . S
C511 C516 1.490 . S
C512 H502 0.930 . S
C512 C511 1.400 . S
C512 C515 1.386 . S
H513 C529 0.930 . S
H514 C530 0.931 . S
C515 H503 0.929 . S
C515 C509 1.390 . S
C515 C512 1.386 . S
C516 C511 1.490 . S
C516 C518 1.395 . S
C516 C519 1.403 . S
H517 C523 0.930 . S
C518 H504 0.930 . S
C518 C516 1.395 . S
C518 C521 1.418 . S
C519 C516 1.403 . S
C519 C520 1.520 1_455 S
C519 C523 1.400 1_455 S
C520 H505 0.973 . S
C520 H506 0.956 1_655 S
C520 H507 0.955 1_655 S
C520 C519 1.520 1_655 S
C521 C518 1.418 . S
C521 C522 1.372 1_455 S
C521 C525 1.502 . S
C522 C521 1.372 1_655 S
C522 C523 1.385 . S
C522 C524 1.478 . S
C523 H517 0.930 . S
C523 C519 1.400 1_655 S
C523 C522 1.385 . S
C524 C522 1.478 . S
C524 C526 1.381 . S
C524 C530 1.383 . S
C525 C521 1.502 . S
C525 H531 0.959 . S
C525 H532 0.961 1_455 S
C525 H533 0.960 1_455 S
C526 C524 1.381 . S
C526 C527 1.394 . S
C526 H534 0.930 . S
C527 C526 1.394 . S
C527 C528 1.383 . S
C527 H535 0.929 . S
C528 C527 1.383 . S
C528 C529 1.377 . S
C529 H513 0.930 . S
C529 C528 1.377 . S
C529 C530 1.379 . S
C530 H514 0.931 . S
C530 C524 1.383 . S
C530 C529 1.379 . S
H531 C525 0.959 . S
H532 C525 0.961 1_655 S
H533 C525 0.960 1_655 S
H534 C526 0.930 . S
H535 C527 0.929 . S
H536 C544 0.929 . S
H537 C546 0.930 . S
H538 C548 0.930 . S
H539 C551 0.929 . S
H540 C554 0.930 . S
H541 C556 0.960 . S
H542 C556 0.960 . S
H543 C556 0.960 . S
C544 H536 0.929 . S
C544 C545 1.377 . S
C544 C546 1.384 . S
C545 C544 1.377 . S
C545 C551 1.390 . S
C546 H537 0.930 . S
C546 C544 1.384 . S
C546 C547 1.372 . S
C547 C546 1.372 . S
C547 C548 1.400 . S
C547 C552 1.490 . S
C548 H538 0.930 . S
C548 C547 1.400 . S
C548 C551 1.386 . S
H549 C565 0.930 . S
H550 C566 0.931 . S
C551 H539 0.929 . S
C551 C545 1.390 . S
C551 C548 1.386 . S
C552 C547 1.490 . S
C552 C554 1.395 1_565 S
C552 C555 1.403 1_554 S
H553 C559 0.933 . S
C554 H540 0.930 . S
C554 C552 1.395 1_545 S
C554 C557 1.403 . S
C555 C552 1.403 1_556 S
C555 C556 1.524 . S
C555 C559 1.422 . S
C556 H541 0.960 . S
C556 H542 0.960 . S
C556 H543 0.960 . S
C556 C555 1.524 . S
C557 C554 1.403 . S
C557 C558 1.392 1_554 S
C557 C561 1.495 . S
C558 C557 1.392 1_556 S
C558 C559 1.362 1_545 S
C558 C560 1.478 . S
C559 H553 0.933 . S
C559 C555 1.422 . S
C559 C558 1.362 1_565 S
C560 C558 1.478 . S
C560 C562 1.381 . S
C560 C566 1.383 . S
C561 C557 1.495 . S
C561 H567 0.959 . S
C561 H568 0.961 . S
C561 H569 0.960 . S
C562 C560 1.381 . S
C562 C563 1.394 . S
C562 H570 0.947 . S
C563 C562 1.394 . S
C563 C564 1.383 . S
C563 H571 0.929 . S
C564 C563 1.383 . S
C564 C565 1.377 . S
C565 H549 0.930 . S
C565 C564 1.377 . S
C565 C566 1.379 . S
C566 H550 0.931 . S
C566 C560 1.383 . S
C566 C565 1.379 . S
H567 C561 0.959 . S
H568 C561 0.961 . S
H569 C561 0.960 . S
H570 C562 0.947 . S
H571 C563 0.929 . S
H572 C580 0.929 . S
H573 C582 0.930 . S
H574 C584 0.930 . S
H575 C587 0.929 . S
H576 C590 0.930 . S
H577 C592 0.960 . S
H578 C592 0.960 . S
H579 C592 0.960 1_565 S
C580 H572 0.929 . S
C580 C581 1.377 . S
C580 C582 1.384 . S
C581 C580 1.377 . S
C581 C587 1.390 . S
C582 H573 0.930 . S
C582 C580 1.384 . S
C582 C583 1.372 . S
C583 C582 1.372 . S
C583 C584 1.400 . S
C583 C588 1.490 . S
C584 H574 0.930 . S
C584 C583 1.400 . S
C584 C587 1.386 . S
H585 C601 0.930 . S
H586 C602 0.931 1_565 S
C587 H575 0.929 . S
C587 C581 1.390 . S
C587 C584 1.386 . S
C588 C583 1.490 . S
C588 C590 1.395 . S
C588 C591 1.403 1_565 S
H589 C595 0.930 . S
C590 H576 0.930 . S
C590 C588 1.395 . S
C590 C593 1.403 . S
C591 C588 1.403 1_545 S
C591 C592 1.524 . S
C591 C595 1.400 . S
C592 H577 0.960 . S
C592 H578 0.960 . S
C592 H579 0.960 1_545 S
C592 C591 1.524 . S
C593 C590 1.403 . S
C593 C594 1.392 1_565 S
C593 C597 1.495 . S
C594 C593 1.392 1_545 S
C594 C595 1.385 . S
C594 C596 1.478 . S
C595 H589 0.930 . S
C595 C591 1.400 . S
C595 C594 1.385 . S
C596 C594 1.478 . S
C596 C598 1.381 . S
C596 C602 1.383 . S
C597 C593 1.495 . S
C597 H603 0.959 . S
C597 H604 0.961 . S
C597 H605 0.960 1_565 S
C598 C596 1.381 . S
C598 C599 1.394 . S
C598 H606 0.930 . S
C599 C598 1.394 . S
C599 C600 1.383 . S
C599 H607 0.929 . S
C600 C599 1.383 . S
C600 C601 1.377 . S
C601 H585 0.930 . S
C601 C600 1.377 . S
C601 C602 1.379 . S
C602 H586 0.931 1_545 S
C602 C596 1.383 . S
C602 C601 1.379 . S
H603 C597 0.959 . S
H604 C597 0.961 . S
H605 C597 0.960 1_545 S
H606 C598 0.930 . S
H607 C599 0.929 . S
H608 C616 0.929 . S
H609 C618 0.930 . S
H610 C620 0.930 . S
H611 C623 0.929 . S
H612 C626 0.924 1_455 S
H613 C628 0.960 . S
H614 C628 0.960 . S
H615 C628 0.960 . S
C616 H608 0.929 . S
C616 C617 1.377 . S
C616 C618 1.384 . S
C617 C616 1.377 . S
C617 C623 1.390 . S
C618 H609 0.930 . S
C618 C616 1.384 . S
C618 C619 1.372 . S
C619 C618 1.372 . S
C619 C620 1.400 . S
C619 C624 1.490 . S
C620 H610 0.930 . S
C620 C619 1.400 . S
C620 C623 1.386 . S
H621 C637 0.930 . S
H622 C638 0.931 . S
C623 H611 0.929 . S
C623 C617 1.390 . S
C623 C620 1.386 . S
C624 C619 1.490 . S
C624 C626 1.380 1_455 S
C624 C627 1.403 . S
H625 C631 0.930 . S
C626 H612 0.924 1_655 S
C626 C624 1.380 1_655 S
C626 C629 1.425 . S
C627 C624 1.403 . S
C627 C628 1.524 . S
C627 C631 1.400 1_455 S
C628 H613 0.960 . S
C628 H614 0.960 . S
C628 H615 0.960 . S
C628 C627 1.524 . S
C629 C626 1.425 . S
C629 C630 1.392 . S
C629 C633 1.495 . S
C630 C629 1.392 . S
C630 C631 1.385 . S
C630 C632 1.478 . S
C631 H625 0.930 . S
C631 C627 1.400 1_655 S
C631 C630 1.385 . S
C632 C630 1.478 . S
C632 C634 1.381 . S
C632 C638 1.383 . S
C633 C629 1.495 . S
C633 H639 0.959 . S
C633 H640 0.961 . S
C633 H641 0.960 . S
C634 C632 1.381 . S
C634 C635 1.394 . S
C634 H642 0.930 . S
C635 C634 1.394 . S
C635 C636 1.383 . S
C635 H643 0.929 . S
C636 C635 1.383 . S
C636 C637 1.377 . S
C637 H621 0.930 . S
C637 C636 1.377 . S
C637 C638 1.379 . S
C638 H622 0.931 . S
C638 C632 1.383 . S
C638 C637 1.379 . S
H639 C633 0.959 . S
H640 C633 0.961 . S
H641 C633 0.960 . S
H642 C634 0.930 . S
H643 C635 0.929 . S
H644 C652 0.929 . S
H645 C654 0.930 . S
H646 C656 0.930 . S
H647 C659 0.929 . S
H648 C662 0.930 . S
H649 C664 0.960 . S
H650 C664 0.960 . S
H651 C664 0.960 . S
C652 H644 0.929 . S
C652 C653 1.377 . S
C652 C654 1.384 . S
C653 C652 1.377 . S
C653 C659 1.390 . S
C654 H645 0.930 . S
C654 C652 1.384 . S
C654 C655 1.372 . S
C655 C654 1.372 . S
C655 C656 1.400 . S
C655 C660 1.490 . S
C656 H646 0.930 . S
C656 C655 1.400 . S
C656 C659 1.386 . S
H657 C673 0.930 . S
H658 C674 0.931 . S
C659 H647 0.929 . S
C659 C653 1.390 . S
C659 C656 1.386 . S
C660 C655 1.490 . S
C660 C662 1.395 . S
C660 C663 1.403 1_455 S
H661 C667 0.930 . S
C662 H648 0.930 . S
C662 C660 1.395 . S
C662 C665 1.403 . S
C663 C660 1.403 1_655 S
C663 C664 1.524 . S
C663 C667 1.400 . S
C664 H649 0.960 . S
C664 H650 0.960 . S
C664 H651 0.960 . S
C664 C663 1.524 . S
C665 C662 1.403 . S
C665 C666 1.392 1_455 S
C665 C669 1.495 . S
C666 C665 1.392 1_655 S
C666 C667 1.385 . S
C666 C668 1.478 . S
C667 H661 0.930 . S
C667 C663 1.400 . S
C667 C666 1.385 . S
C668 C666 1.478 . S
C668 C670 1.381 . S
C668 C674 1.383 . S
C669 C665 1.495 . S
C669 H675 0.959 . S
C669 H676 0.961 . S
C669 H677 0.960 . S
C670 C668 1.381 . S
C670 C671 1.394 . S
C670 H678 0.930 . S
C671 C670 1.394 . S
C671 C672 1.383 . S
C671 H679 0.929 . S
C672 C671 1.383 . S
C672 C673 1.377 . S
C673 H657 0.930 . S
C673 C672 1.377 . S
C673 C674 1.379 . S
C674 H658 0.931 . S
C674 C668 1.383 . S
C674 C673 1.379 . S
H675 C669 0.959 . S
H676 C669 0.961 . S
H677 C669 0.960 . S
H678 C670 0.930 . S
H679 C671 0.929 . S
H680 C688 0.929 . S
H681 C690 0.930 . S
H682 C692 0.930 . S
H683 C695 0.929 . S
H684 C698 0.930 . S
H685 C700 0.960 . S
H686 C700 0.960 . S
H687 C700 0.960 . S
C688 H680 0.929 . S
C688 C689 1.377 . S
C688 C690 1.384 . S
C689 C688 1.377 . S
C689 C695 1.390 . S
C690 H681 0.930 . S
C690 C688 1.384 . S
C690 C691 1.372 . S
C691 C690 1.372 . S
C691 C692 1.400 . S
C691 C696 1.490 . S
C692 H682 0.930 . S
C692 C691 1.400 . S
C692 C695 1.386 . S
H693 C709 0.930 . S
H694 C710 0.931 . S
C695 H683 0.929 . S
C695 C689 1.390 . S
C695 C692 1.386 . S
C696 C691 1.490 . S
C696 C698 1.395 . S
C696 C699 1.403 . S
H697 C703 0.930 . S
C698 H684 0.930 . S
C698 C696 1.395 . S
C698 C701 1.403 . S
C699 C696 1.403 . S
C699 C700 1.524 . S
C699 C703 1.400 . S
C700 H685 0.960 . S
C700 H686 0.960 . S
C700 H687 0.960 . S
C700 C699 1.524 . S
C701 C698 1.403 . S
C701 C702 1.392 . S
C701 C705 1.495 . S
C702 C701 1.392 . S
C702 C703 1.385 . S
C702 C704 1.478 . S
C703 H697 0.930 . S
C703 C699 1.400 . S
C703 C702 1.385 . S
C704 C702 1.478 . S
C704 C706 1.381 . S
C704 C710 1.383 . S
C705 C701 1.495 . S
C705 H711 0.959 . S
C705 H712 0.961 . S
C705 H713 0.960 . S
C706 C704 1.381 . S
C706 C707 1.394 . S
C706 H714 0.930 . S
C707 C706 1.394 . S
C707 C708 1.383 . S
C707 H715 0.929 . S
C708 C707 1.383 . S
C708 C709 1.377 . S
C709 H693 0.930 . S
C709 C708 1.377 . S
C709 C710 1.379 . S
C710 H694 0.931 . S
C710 C704 1.383 . S
C710 C709 1.379 . S
H711 C705 0.959 . S
H712 C705 0.961 . S
H713 C705 0.960 . S
H714 C706 0.930 . S
H715 C707 0.929 . S
H716 C724 0.929 . S
H717 C726 0.930 . S
H718 C728 0.930 . S
H719 C731 0.929 . S
H720 C734 0.930 . S
H721 C736 0.960 . S
H722 C736 0.960 . S
H723 C736 0.960 . S
C724 H716 0.929 . S
C724 C725 1.377 . S
C724 C726 1.384 . S
C725 C724 1.377 . S
C725 C731 1.390 . S
C726 H717 0.930 . S
C726 C724 1.384 . S
C726 C727 1.372 . S
C727 C726 1.372 . S
C727 C728 1.400 . S
C727 C732 1.490 . S
C728 H718 0.930 . S
C728 C727 1.400 . S
C728 C731 1.386 . S
H729 C745 0.930 . S
H730 C746 0.931 . S
C731 H719 0.929 . S
C731 C725 1.390 . S
C731 C728 1.386 . S
C732 C727 1.490 . S
C732 C734 1.395 . S
C732 C735 1.403 . S
H733 C739 0.930 . S
C734 H720 0.930 . S
C734 C732 1.395 . S
C734 C737 1.403 . S
C735 C732 1.403 . S
C735 C736 1.524 . S
C735 C739 1.400 . S
C736 H721 0.960 . S
C736 H722 0.960 . S
C736 H723 0.960 . S
C736 C735 1.524 . S
C737 C734 1.403 . S
C737 C738 1.392 . S
C737 C741 1.495 . S
C738 C737 1.392 . S
C738 C739 1.385 . S
C738 C740 1.478 . S
C739 H733 0.930 . S
C739 C735 1.400 . S
C739 C738 1.385 . S
C740 C738 1.478 . S
C740 C742 1.381 . S
C740 C746 1.383 . S
C741 C737 1.495 . S
C741 H747 0.959 . S
C741 H748 0.961 . S
C741 H749 0.960 . S
C742 C740 1.381 . S
C742 C743 1.394 . S
C742 H750 0.930 . S
C743 C742 1.394 . S
C743 C744 1.383 . S
C743 H751 0.929 . S
C744 C743 1.383 . S
C744 C745 1.377 . S
C745 H729 0.930 . S
C745 C744 1.377 . S
C745 C746 1.379 . S
C746 H730 0.931 . S
C746 C740 1.383 . S
C746 C745 1.379 . S
H747 C741 0.959 . S
H748 C741 0.961 . S
H749 C741 0.960 . S
H750 C742 0.930 . S
H751 C743 0.929 . S
H752 C760 0.929 . S
H753 C762 0.930 . S
H754 C764 0.930 . S
H755 C767 0.929 . S
H756 C770 0.930 . S
H757 C772 0.960 . S
H758 C772 0.960 . S
H759 C772 0.960 . S
C760 H752 0.929 . S
C760 C761 1.377 . S
C760 C762 1.384 1_554 S
C761 C760 1.377 . S
C761 C767 1.390 1_554 S
C762 H753 0.930 . S
C762 C760 1.384 1_556 S
C762 C763 1.372 . S
C763 C762 1.372 . S
C763 C764 1.400 . S
C763 C768 1.490 . S
C764 H754 0.930 . S
C764 C763 1.400 . S
C764 C767 1.386 . S
H765 C781 0.930 . S
H766 C782 0.931 . S
C767 H755 0.929 . S
C767 C761 1.390 1_556 S
C767 C764 1.386 . S
C768 C763 1.490 . S
C768 C770 1.395 . S
C768 C771 1.403 . S
H769 C775 0.930 . S
C770 H756 0.930 . S
C770 C768 1.395 . S
C770 C773 1.403 . S
C771 C768 1.403 . S
C771 C772 1.524 . S
C771 C775 1.400 . S
C772 H757 0.960 . S
C772 H758 0.960 . S
C772 H759 0.960 . S
C772 C771 1.524 . S
C773 C770 1.403 . S
C773 C774 1.392 . S
C773 C777 1.495 . S
C774 C773 1.392 . S
C774 C775 1.385 . S
C774 C776 1.478 . S
C775 H769 0.930 . S
C775 C771 1.400 . S
C775 C774 1.385 . S
C776 C774 1.478 . S
C776 C778 1.381 . S
C776 C782 1.383 . S
C777 C773 1.495 . S
C777 H783 0.959 . S
C777 H784 0.961 . S
C777 H785 0.960 . S
C778 C776 1.381 . S
C778 C779 1.394 . S
C778 H786 0.930 . S
C779 C778 1.394 . S
C779 C780 1.383 . S
C779 H787 0.929 . S
C780 C779 1.383 . S
C780 C781 1.377 . S
C781 H765 0.930 . S
C781 C780 1.377 . S
C781 C782 1.379 . S
C782 H766 0.931 . S
C782 C776 1.383 . S
C782 C781 1.379 . S
H783 C777 0.959 . S
H784 C777 0.961 . S
H785 C777 0.960 . S
H786 C778 0.930 . S
H787 C779 0.929 . S
H788 C796 0.929 . S
H789 C798 0.930 . S
H790 C800 0.930 . S
H791 C803 0.929 . S
H792 C806 0.930 . S
H793 C808 0.960 . S
H794 C808 0.960 . S
H795 C808 0.960 . S
C796 H788 0.929 . S
C796 C797 1.377 . S
C796 C798 1.384 . S
C797 C796 1.377 . S
C797 C803 1.390 . S
C798 H789 0.930 . S
C798 C796 1.384 . S
C798 C799 1.372 . S
C799 C798 1.372 . S
C799 C800 1.400 . S
C799 C804 1.490 . S
C800 H790 0.930 . S
C800 C799 1.400 . S
C800 C803 1.386 . S
H801 C817 0.930 . S
H802 C818 0.931 . S
C803 H791 0.929 . S
C803 C797 1.390 . S
C803 C800 1.386 . S
C804 C799 1.490 . S
C804 C806 1.395 . S
C804 C807 1.403 . S
H805 C811 0.930 . S
C806 H792 0.930 . S
C806 C804 1.395 . S
C806 C809 1.403 . S
C807 C804 1.403 . S
C807 C808 1.524 . S
C807 C811 1.400 . S
C808 H793 0.960 . S
C808 H794 0.960 . S
C808 H795 0.960 . S
C808 C807 1.524 . S
C809 C806 1.403 . S
C809 C810 1.392 . S
C809 C813 1.495 . S
C810 C809 1.392 . S
C810 C811 1.385 . S
C810 C812 1.478 . S
C811 H805 0.930 . S
C811 C807 1.400 . S
C811 C810 1.385 . S
C812 C810 1.478 . S
C812 C814 1.381 . S
C812 C818 1.383 . S
C813 C809 1.495 . S
C813 H819 0.959 . S
C813 H820 0.961 . S
C813 H821 0.960 . S
C814 C812 1.381 . S
C814 C815 1.394 . S
C814 H822 0.930 . S
C815 C814 1.394 . S
C815 C816 1.383 . S
C815 H823 0.929 . S
C816 C815 1.383 . S
C816 C817 1.377 . S
C817 H801 0.930 . S
C817 C816 1.377 . S
C817 C818 1.379 . S
C818 H802 0.931 . S
C818 C812 1.383 . S
C818 C817 1.379 . S
H819 C813 0.959 . S
H820 C813 0.961 . S
H821 C813 0.960 . S
H822 C814 0.930 . S
H823 C815 0.929 . S
H824 C832 0.929 . S
H825 C834 0.930 . S
H826 C836 0.930 . S
H827 C839 0.929 . S
H828 C842 0.930 . S
H829 C844 0.960 . S
H830 C844 0.960 . S
H831 C844 0.960 . S
C832 H824 0.929 . S
C832 C833 1.377 . S
C832 C834 1.384 . S
C833 C832 1.377 . S
C833 C839 1.390 . S
C834 H825 0.930 . S
C834 C832 1.384 . S
C834 C835 1.372 . S
C835 C834 1.372 . S
C835 C836 1.400 . S
C835 C840 1.490 . S
C836 H826 0.930 . S
C836 C835 1.400 . S
C836 C839 1.386 . S
H837 C853 0.930 . S
H838 C854 0.931 . S
C839 H827 0.929 . S
C839 C833 1.390 . S
C839 C836 1.386 . S
C840 C835 1.490 . S
C840 C842 1.395 . S
C840 C843 1.403 . S
H841 C847 0.930 . S
C842 H828 0.930 . S
C842 C840 1.395 . S
C842 C845 1.403 . S
C843 C840 1.403 . S
C843 C844 1.524 . S
C843 C847 1.400 . S
C844 H829 0.960 . S
C844 H830 0.960 . S
C844 H831 0.960 . S
C844 C843 1.524 . S
C845 C842 1.403 . S
C845 C846 1.392 . S
C845 C849 1.495 . S
C846 C845 1.392 . S
C846 C847 1.385 . S
C846 C848 1.478 . S
C847 H841 0.930 . S
C847 C843 1.400 . S
C847 C846 1.385 . S
C848 C846 1.478 . S
C848 C850 1.381 . S
C848 C854 1.383 . S
C849 C845 1.495 . S
C849 H855 0.959 . S
C849 H856 0.961 . S
C849 H857 0.960 . S
C850 C848 1.381 . S
C850 C851 1.394 1_554 S
C850 H858 0.930 . S
C851 C850 1.394 1_556 S
C851 C852 1.383 . S
C851 H859 0.929 . S
C852 C851 1.383 . S
C852 C853 1.377 1_556 S
C853 H837 0.930 . S
C853 C852 1.377 1_554 S
C853 C854 1.379 . S
C854 H838 0.931 . S
C854 C848 1.383 . S
C854 C853 1.379 . S
H855 C849 0.959 . S
H856 C849 0.961 . S
H857 C849 0.960 . S
H858 C850 0.930 . S
H859 C851 0.929 . S
H860 C868 0.929 . S
H861 C870 0.930 . S
H862 C872 0.930 . S
H863 C875 0.929 . S
H864 C878 0.930 . S
H865 C880 0.960 . S
H866 C880 0.960 . S
H867 C880 0.960 . S
C868 H860 0.929 . S
C868 C869 1.377 . S
C868 C870 1.384 . S
C869 C868 1.377 . S
C869 C875 1.390 . S
C870 H861 0.930 . S
C870 C868 1.384 . S
C870 C871 1.372 . S
C871 C870 1.372 . S
C871 C872 1.400 . S
C871 C876 1.490 . S
C872 H862 0.930 . S
C872 C871 1.400 . S
C872 C875 1.386 . S
H873 C889 0.930 . S
H874 C890 0.931 . S
C875 H863 0.929 . S
C875 C869 1.390 . S
C875 C872 1.386 . S
C876 C871 1.490 . S
C876 C878 1.395 . S
C876 C879 1.403 . S
H877 C883 0.930 . S
C878 H864 0.930 . S
C878 C876 1.395 . S
C878 C881 1.403 . S
C879 C876 1.403 . S
C879 C880 1.524 . S
C879 C883 1.400 . S
C880 H865 0.960 . S
C880 H866 0.960 . S
C880 H867 0.960 . S
C880 C879 1.524 . S
C881 C878 1.403 . S
C881 C882 1.392 . S
C881 C885 1.495 . S
C882 C881 1.392 . S
C882 C883 1.385 . S
C882 C884 1.478 . S
C883 H877 0.930 . S
C883 C879 1.400 . S
C883 C882 1.385 . S
C884 C882 1.478 . S
C884 C886 1.381 . S
C884 C890 1.383 . S
C885 C881 1.495 . S
C885 H891 0.959 . S
C885 H892 0.961 . S
C885 H893 0.960 . S
C886 C884 1.381 . S
C886 C887 1.394 . S
C886 H894 0.930 . S
C887 C886 1.394 . S
C887 C888 1.383 . S
C887 H895 0.929 . S
C888 C887 1.383 . S
C888 C889 1.377 . S
C889 H873 0.930 . S
C889 C888 1.377 . S
C889 C890 1.379 . S
C890 H874 0.931 . S
C890 C884 1.383 . S
C890 C889 1.379 . S
H891 C885 0.959 . S
H892 C885 0.961 . S
H893 C885 0.960 . S
H894 C886 0.930 . S
H895 C887 0.929 . S
H896 C904 0.929 . S
H897 C906 0.930 . S
H898 C908 0.930 . S
H899 C911 0.929 . S
H900 C914 0.930 . S
H901 C916 0.960 . S
H902 C916 0.960 . S
H903 C916 0.960 . S
C904 H896 0.929 . S
C904 C905 1.377 1_556 S
C904 C906 1.384 . S
C905 C904 1.377 1_554 S
C905 C911 1.390 . S
C906 H897 0.930 . S
C906 C904 1.384 . S
C906 C907 1.372 . S
C907 C906 1.372 . S
C907 C908 1.400 . S
C907 C912 1.490 . S
C908 H898 0.930 . S
C908 C907 1.400 . S
C908 C911 1.386 1_556 S
H909 C925 0.930 . S
H910 C926 0.931 . S
C911 H899 0.929 . S
C911 C905 1.390 . S
C911 C908 1.386 1_554 S
C912 C907 1.490 . S
C912 C914 1.395 . S
C912 C915 1.403 . S
H913 C919 0.930 . S
C914 H900 0.930 . S
C914 C912 1.395 . S
C914 C917 1.403 1_565 S
C915 C912 1.403 . S
C915 C916 1.524 . S
C915 C919 1.400 . S
C916 H901 0.960 . S
C916 H902 0.960 . S
C916 H903 0.960 . S
C916 C915 1.524 . S
C917 C914 1.403 1_545 S
C917 C918 1.392 . S
C917 C921 1.495 . S
C918 C917 1.392 . S
C918 C919 1.385 1_545 S
C918 C920 1.478 . S
C919 H913 0.930 . S
C919 C915 1.400 . S
C919 C918 1.385 1_565 S
C920 C918 1.478 . S
C920 C922 1.381 . S
C920 C926 1.383 . S
C921 C917 1.495 . S
C921 H927 0.959 . S
C921 H928 0.961 . S
C921 H929 0.960 . S
C922 C920 1.381 . S
C922 C923 1.394 . S
C922 H930 0.930 . S
C923 C922 1.394 . S
C923 C924 1.383 . S
C923 H931 0.929 . S
C924 C923 1.383 . S
C924 C925 1.377 . S
C925 H909 0.930 . S
C925 C924 1.377 . S
C925 C926 1.379 . S
C926 H910 0.931 . S
C926 C920 1.383 . S
C926 C925 1.379 . S
H927 C921 0.959 . S
H928 C921 0.961 . S
H929 C921 0.960 . S
H930 C922 0.930 . S
H931 C923 0.929 . S
H932 C940 0.929 . S
H933 C942 0.930 . S
H934 C944 0.930 . S
H935 C947 0.929 . S
H936 C950 0.930 . S
H937 C952 0.960 . S
H938 C952 0.960 . S
H939 C952 0.960 . S
C940 H932 0.929 . S
C940 C941 1.377 . S
C940 C942 1.384 . S
C941 C940 1.377 . S
C941 C947 1.390 . S
C942 H933 0.930 . S
C942 C940 1.384 . S
C942 C943 1.372 . S
C943 C942 1.372 . S
C943 C944 1.400 . S
C943 C948 1.490 . S
C944 H934 0.930 . S
C944 C943 1.400 . S
C944 C947 1.386 . S
H945 C961 0.930 . S
H946 C962 0.931 . S
C947 H935 0.929 . S
C947 C941 1.390 . S
C947 C944 1.386 . S
C948 C943 1.490 . S
C948 C950 1.395 1_545 S
C948 C951 1.403 . S
H949 C955 0.930 1_545 S
C950 H936 0.930 . S
C950 C948 1.395 1_565 S
C950 C953 1.403 . S
C951 C948 1.403 . S
C951 C952 1.524 . S
C951 C955 1.400 1_545 S
C952 H937 0.960 . S
C952 H938 0.960 . S
C952 H939 0.960 . S
C952 C951 1.524 . S
C953 C950 1.403 . S
C953 C954 1.392 . S
C953 C957 1.495 . S
C954 C953 1.392 . S
C954 C955 1.385 . S
C954 C956 1.478 . S
C955 H949 0.930 1_565 S
C955 C951 1.400 1_565 S
C955 C954 1.385 . S
C956 C954 1.478 . S
C956 C958 1.381 . S
C956 C962 1.383 . S
C957 C953 1.495 . S
C957 H963 0.959 . S
C957 H964 0.961 . S
C957 H965 0.960 . S
C958 C956 1.381 . S
C958 C959 1.394 . S
C958 H966 0.930 . S
C959 C958 1.394 . S
C959 C960 1.383 . S
C959 H967 0.929 . S
C960 C959 1.383 . S
C960 C961 1.377 . S
C961 H945 0.930 . S
C961 C960 1.377 . S
C961 C962 1.379 . S
C962 H946 0.931 . S
C962 C956 1.383 . S
C962 C961 1.379 . S
H963 C957 0.959 . S
H964 C957 0.961 . S
H965 C957 0.960 . S
H966 C958 0.930 . S
H967 C959 0.929 . S
H968 C976 0.929 . S
H969 C978 0.930 . S
H970 C980 0.930 . S
H971 C983 0.929 . S
H972 C986 0.930 . S
H973 C988 0.960 . S
H974 C988 0.960 . S
H975 C988 0.960 . S
C976 H968 0.929 . S
C976 C977 1.377 . S
C976 C978 1.384 . S
C977 C976 1.377 . S
C977 C983 1.390 . S
C978 H969 0.930 . S
C978 C976 1.384 . S
C978 C979 1.372 . S
C979 C978 1.372 . S
C979 C980 1.400 . S
C979 C984 1.490 . S
C980 H970 0.930 . S
C980 C979 1.400 . S
C980 C983 1.386 . S
H981 C997 0.930 . S
H982 C998 0.931 . S
C983 H971 0.929 . S
C983 C977 1.390 . S
C983 C980 1.386 . S
C984 C979 1.490 . S
C984 C986 1.395 . S
C984 C987 1.403 1_565 S
H985 C991 0.930 . S
C986 H972 0.930 . S
C986 C984 1.395 . S
C986 C989 1.410 . S
C987 C984 1.403 1_545 S
C987 C988 1.524 . S
C987 C991 1.400 . S
C988 H973 0.960 . S
C988 H974 0.960 . S
C988 H975 0.960 . S
C988 C987 1.524 . S
C989 C986 1.410 . S
C989 C990 1.381 1_565 S
C989 C993 1.500 . S
C990 C989 1.381 1_545 S
C990 C991 1.385 . S
C990 C992 1.478 . S
C991 H985 0.930 . S
C991 C987 1.400 . S
C991 C990 1.385 . S
C992 C990 1.478 . S
C992 C994 1.381 . S
C992 C998 1.383 . S
C993 C989 1.500 . S
C993 H999 0.959 . S
C993 H1000 0.961 . S
C993 H1001 0.931 1_565 S
C994 C992 1.381 . S
C994 C995 1.394 . S
C994 H1002 0.930 . S
C995 C994 1.394 . S
C995 C996 1.383 1_554 S
C995 H1003 0.929 . S
C996 C995 1.383 1_556 S
C996 C997 1.377 . S
C997 H981 0.930 . S
C997 C996 1.377 . S
C997 C998 1.379 1_556 S
C998 H982 0.931 . S
C998 C992 1.383 . S
C998 C997 1.379 1_554 S
H999 C993 0.959 . S
H1000 C993 0.961 . S
H1001 C993 0.931 1_545 S
H1002 C994 0.930 . S
H1003 C995 0.929 . S
H1004 C1012 0.929 . S
H1005 C1014 0.930 . S
H1006 C1016 0.930 . S
H1007 C1019 0.929 . S
H1008 C1022 0.930 . S
H1009 C1024 0.960 . S
H1010 C1024 0.960 . S
H1011 C1024 0.960 1_545 S
C1012 H1004 0.929 . S
C1012 C1013 1.377 . S
C1012 C1014 1.384 . S
C1013 C1012 1.377 . S
C1013 C1019 1.390 . S
C1014 H1005 0.930 . S
C1014 C1012 1.384 . S
C1014 C1015 1.372 . S
C1015 C1014 1.372 . S
C1015 C1016 1.400 . S
C1015 C1020 1.490 . S
C1016 H1006 0.930 . S
C1016 C1015 1.400 . S
C1016 C1019 1.386 . S
H1017 C1033 0.930 . S
H1018 C1034 0.931 . S
C1019 H1007 0.929 . S
C1019 C1013 1.390 . S
C1019 C1016 1.386 . S
C1020 C1015 1.490 . S
C1020 C1022 1.395 . S
C1020 C1023 1.403 . S
H1021 C1027 0.930 . S
C1022 H1008 0.930 . S
C1022 C1020 1.395 . S
C1022 C1025 1.403 . S
C1023 C1020 1.403 . S
C1023 C1024 1.524 1_545 S
C1023 C1027 1.400 1_545 S
C1024 H1009 0.960 . S
C1024 H1010 0.960 . S
C1024 H1011 0.960 1_565 S
C1024 C1023 1.524 1_565 S
C1025 C1022 1.403 . S
C1025 C1026 1.392 1_545 S
C1025 C1029 1.495 . S
C1026 C1025 1.392 1_565 S
C1026 C1027 1.385 . S
C1026 C1028 1.478 . S
C1027 H1021 0.930 . S
C1027 C1023 1.400 1_565 S
C1027 C1026 1.385 . S
C1028 C1026 1.478 . S
C1028 C1030 1.381 . S
C1028 C1034 1.383 . S
C1029 C1025 1.495 . S
C1029 H1035 0.959 . S
C1029 H1036 0.961 . S
C1029 H1037 0.960 . S
C1030 C1028 1.381 . S
C1030 C1031 1.394 . S
C1030 H1038 0.930 . S
C1031 C1030 1.394 . S
C1031 C1032 1.383 . S
C1031 H1039 0.929 . S
C1032 C1031 1.383 . S
C1032 C1033 1.377 . S
C1033 H1017 0.930 . S
C1033 C1032 1.377 . S
C1033 C1034 1.379 . S
C1034 H1018 0.931 . S
C1034 C1028 1.383 . S
C1034 C1033 1.379 . S
H1035 C1029 0.959 . S
H1036 C1029 0.961 . S
H1037 C1029 0.960 . S
H1038 C1030 0.930 . S
H1039 C1031 0.929 . S
C185 C27 1.386 . S
C204 C9 1.407 . S
C221 C51 1.392 . S
C240 C72 1.406 . S
C257 C115 1.388 . S
C276 C97 1.365 . S
C293 C139 1.390 . S
C312 C160 1.385 . S
C329 C8 1.600 . S
C348 C140 1.605 . S
C365 C26 1.600 . S
C384 C158 1.585 . S
C401 C96 1.601 . S
C420 C52 1.610 . S
C437 C70 1.604 . S
C456 C114 1.603 . S
C473 C50 0.576 . S
C492 C5 0.634 . S
C509 C73 0.570 . S
C528 C31 0.612 . S
C545 C93 0.569 . S
C564 C138 0.509 . S
C581 C119 0.586 . S
C600 C161 0.648 . S
C617 C4 1.781 . S
C636 C30 1.772 . S
C653 C74 1.781 . S
C672 C48 1.784 . S
C689 C118 1.781 . S
C708 C92 1.775 . S
C725 C162 1.781 . S
C744 C136 1.785 . S
C761 C7 1.130 . S
C780 C75 1.191 . S
C797 C28 1.144 . S
C816 C49 1.205 . S
C833 C29 1.207 . S
C852 C53 1.181 . S
C869 C6 1.208 . S
C888 C71 1.094 . S
C905 C95 1.144 . S
C924 C163 1.219 . S
C941 C137 1.211 . S
C960 C116 1.167 . S
C977 C117 1.208 . S
C996 C141 1.092 . S
C1013 C159 1.130 . S
C1032 C94 1.209 . S
