# Generated by pormake.
# Topology uos, (4)-cn, num edge types: 1
# Building blocks:
#     Node 0, Type 0, BuildingBlock: KUFVIS_clean_sbu_0, # of connection points: 4
#     Node 1, Type 0, BuildingBlock: KUFVIS_clean_sbu_0, # of connection points: 4
#     Node 2, Type 0, BuildingBlock: KUFVIS_clean_sbu_0, # of connection points: 4
#     Node 3, Type 0, BuildingBlock: KUFVIS_clean_sbu_0, # of connection points: 4
#     Node 4, Type 0, BuildingBlock: KUFVIS_clean_sbu_0, # of connection points: 4
#     Node 5, Type 0, BuildingBlock: KUFVIS_clean_sbu_0, # of connection points: 4
#     Node 6, Type 0, BuildingBlock: KUFVIS_clean_sbu_0, # of connection points: 4
#     Node 7, Type 0, BuildingBlock: KUFVIS_clean_sbu_0, # of connection points: 4
#     Node 8, Type 0, BuildingBlock: KUFVIS_clean_sbu_0, # of connection points: 4
#     Node 9, Type 0, BuildingBlock: KUFVIS_clean_sbu_0, # of connection points: 4
#     Node 10, Type 0, BuildingBlock: KUFVIS_clean_sbu_0, # of connection points: 4
#     Node 11, Type 0, BuildingBlock: KUFVIS_clean_sbu_0, # of connection points: 4
#     Node 12, Type 0, BuildingBlock: KUFVIS_clean_sbu_0, # of connection points: 4
#     Node 13, Type 0, BuildingBlock: KUFVIS_clean_sbu_0, # of connection points: 4
#     Node 14, Type 0, BuildingBlock: KUFVIS_clean_sbu_0, # of connection points: 4
#     Node 15, Type 0, BuildingBlock: KUFVIS_clean_sbu_0, # of connection points: 4
#     Node 16, Type 0, BuildingBlock: KUFVIS_clean_sbu_0, # of connection points: 4
#     Node 17, Type 0, BuildingBlock: KUFVIS_clean_sbu_0, # of connection points: 4
#     Node 18, Type 0, BuildingBlock: KUFVIS_clean_sbu_0, # of connection points: 4
#     Node 19, Type 0, BuildingBlock: KUFVIS_clean_sbu_0, # of connection points: 4
#     Node 20, Type 0, BuildingBlock: KUFVIS_clean_sbu_0, # of connection points: 4
#     Node 21, Type 0, BuildingBlock: KUFVIS_clean_sbu_0, # of connection points: 4
#     Node 22, Type 0, BuildingBlock: KUFVIS_clean_sbu_0, # of connection points: 4
#     Node 23, Type 0, BuildingBlock: KUFVIS_clean_sbu_0, # of connection points: 4
#     Node 24, Type 0, BuildingBlock: KUFVIS_clean_sbu_0, # of connection points: 4
#     Node 25, Type 0, BuildingBlock: KUFVIS_clean_sbu_0, # of connection points: 4
#     Node 26, Type 0, BuildingBlock: KUFVIS_clean_sbu_0, # of connection points: 4
#     Node 27, Type 0, BuildingBlock: KUFVIS_clean_sbu_0, # of connection points: 4
#     Node 28, Type 0, BuildingBlock: KUFVIS_clean_sbu_0, # of connection points: 4
#     Node 29, Type 0, BuildingBlock: KUFVIS_clean_sbu_0, # of connection points: 4
#     Node 30, Type 0, BuildingBlock: KUFVIS_clean_sbu_0, # of connection points: 4
#     Node 31, Type 0, BuildingBlock: KUFVIS_clean_sbu_0, # of connection points: 4
#     Edge 32, Type (0, 0), BuildingBlock: UVAHIK_clean_linker_0, # of connection points: 2
#     Edge 33, Type (0, 0), BuildingBlock: UVAHIK_clean_linker_0, # of connection points: 2
#     Edge 34, Type (0, 0), BuildingBlock: UVAHIK_clean_linker_0, # of connection points: 2
#     Edge 35, Type (0, 0), BuildingBlock: UVAHIK_clean_linker_0, # of connection points: 2
#     Edge 36, Type (0, 0), BuildingBlock: UVAHIK_clean_linker_0, # of connection points: 2
#     Edge 37, Type (0, 0), BuildingBlock: UVAHIK_clean_linker_0, # of connection points: 2
#     Edge 38, Type (0, 0), BuildingBlock: UVAHIK_clean_linker_0, # of connection points: 2
#     Edge 39, Type (0, 0), BuildingBlock: UVAHIK_clean_linker_0, # of connection points: 2
#     Edge 40, Type (0, 0), BuildingBlock: UVAHIK_clean_linker_0, # of connection points: 2
#     Edge 41, Type (0, 0), BuildingBlock: UVAHIK_clean_linker_0, # of connection points: 2
#     Edge 42, Type (0, 0), BuildingBlock: UVAHIK_clean_linker_0, # of connection points: 2
#     Edge 43, Type (0, 0), BuildingBlock: UVAHIK_clean_linker_0, # of connection points: 2
#     Edge 44, Type (0, 0), BuildingBlock: UVAHIK_clean_linker_0, # of connection points: 2
#     Edge 45, Type (0, 0), BuildingBlock: UVAHIK_clean_linker_0, # of connection points: 2
#     Edge 46, Type (0, 0), BuildingBlock: UVAHIK_clean_linker_0, # of connection points: 2
#     Edge 47, Type (0, 0), BuildingBlock: UVAHIK_clean_linker_0, # of connection points: 2
#     Edge 48, Type (0, 0), BuildingBlock: UVAHIK_clean_linker_0, # of connection points: 2
#     Edge 49, Type (0, 0), BuildingBlock: UVAHIK_clean_linker_0, # of connection points: 2
#     Edge 50, Type (0, 0), BuildingBlock: UVAHIK_clean_linker_0, # of connection points: 2
#     Edge 51, Type (0, 0), BuildingBlock: UVAHIK_clean_linker_0, # of connection points: 2
#     Edge 52, Type (0, 0), BuildingBlock: UVAHIK_clean_linker_0, # of connection points: 2
#     Edge 53, Type (0, 0), BuildingBlock: UVAHIK_clean_linker_0, # of connection points: 2
#     Edge 54, Type (0, 0), BuildingBlock: UVAHIK_clean_linker_0, # of connection points: 2
#     Edge 55, Type (0, 0), BuildingBlock: UVAHIK_clean_linker_0, # of connection points: 2
#     Edge 56, Type (0, 0), BuildingBlock: UVAHIK_clean_linker_0, # of connection points: 2
#     Edge 57, Type (0, 0), BuildingBlock: UVAHIK_clean_linker_0, # of connection points: 2
#     Edge 58, Type (0, 0), BuildingBlock: UVAHIK_clean_linker_0, # of connection points: 2
#     Edge 59, Type (0, 0), BuildingBlock: UVAHIK_clean_linker_0, # of connection points: 2
#     Edge 60, Type (0, 0), BuildingBlock: UVAHIK_clean_linker_0, # of connection points: 2
#     Edge 61, Type (0, 0), BuildingBlock: UVAHIK_clean_linker_0, # of connection points: 2
#     Edge 62, Type (0, 0), BuildingBlock: UVAHIK_clean_linker_0, # of connection points: 2
#     Edge 63, Type (0, 0), BuildingBlock: UVAHIK_clean_linker_0, # of connection points: 2
#     Edge 64, Type (0, 0), BuildingBlock: UVAHIK_clean_linker_0, # of connection points: 2
#     Edge 65, Type (0, 0), BuildingBlock: UVAHIK_clean_linker_0, # of connection points: 2
#     Edge 66, Type (0, 0), BuildingBlock: UVAHIK_clean_linker_0, # of connection points: 2
#     Edge 67, Type (0, 0), BuildingBlock: UVAHIK_clean_linker_0, # of connection points: 2
#     Edge 68, Type (0, 0), BuildingBlock: UVAHIK_clean_linker_0, # of connection points: 2
#     Edge 69, Type (0, 0), BuildingBlock: UVAHIK_clean_linker_0, # of connection points: 2
#     Edge 70, Type (0, 0), BuildingBlock: UVAHIK_clean_linker_0, # of connection points: 2
#     Edge 71, Type (0, 0), BuildingBlock: UVAHIK_clean_linker_0, # of connection points: 2
#     Edge 72, Type (0, 0), BuildingBlock: UVAHIK_clean_linker_0, # of connection points: 2
#     Edge 73, Type (0, 0), BuildingBlock: UVAHIK_clean_linker_0, # of connection points: 2
#     Edge 74, Type (0, 0), BuildingBlock: UVAHIK_clean_linker_0, # of connection points: 2
#     Edge 75, Type (0, 0), BuildingBlock: UVAHIK_clean_linker_0, # of connection points: 2
#     Edge 76, Type (0, 0), BuildingBlock: UVAHIK_clean_linker_0, # of connection points: 2
#     Edge 77, Type (0, 0), BuildingBlock: UVAHIK_clean_linker_0, # of connection points: 2
#     Edge 78, Type (0, 0), BuildingBlock: UVAHIK_clean_linker_0, # of connection points: 2
#     Edge 79, Type (0, 0), BuildingBlock: UVAHIK_clean_linker_0, # of connection points: 2
#     Edge 80, Type (0, 0), BuildingBlock: UVAHIK_clean_linker_0, # of connection points: 2
#     Edge 81, Type (0, 0), BuildingBlock: UVAHIK_clean_linker_0, # of connection points: 2
#     Edge 82, Type (0, 0), BuildingBlock: UVAHIK_clean_linker_0, # of connection points: 2
#     Edge 83, Type (0, 0), BuildingBlock: UVAHIK_clean_linker_0, # of connection points: 2
#     Edge 84, Type (0, 0), BuildingBlock: UVAHIK_clean_linker_0, # of connection points: 2
#     Edge 85, Type (0, 0), BuildingBlock: UVAHIK_clean_linker_0, # of connection points: 2
#     Edge 86, Type (0, 0), BuildingBlock: UVAHIK_clean_linker_0, # of connection points: 2
#     Edge 87, Type (0, 0), BuildingBlock: UVAHIK_clean_linker_0, # of connection points: 2
#     Edge 88, Type (0, 0), BuildingBlock: UVAHIK_clean_linker_0, # of connection points: 2
#     Edge 89, Type (0, 0), BuildingBlock: UVAHIK_clean_linker_0, # of connection points: 2
#     Edge 90, Type (0, 0), BuildingBlock: UVAHIK_clean_linker_0, # of connection points: 2
#     Edge 91, Type (0, 0), BuildingBlock: UVAHIK_clean_linker_0, # of connection points: 2
#     Edge 92, Type (0, 0), BuildingBlock: UVAHIK_clean_linker_0, # of connection points: 2
#     Edge 93, Type (0, 0), BuildingBlock: UVAHIK_clean_linker_0, # of connection points: 2
#     Edge 94, Type (0, 0), BuildingBlock: UVAHIK_clean_linker_0, # of connection points: 2
#     Edge 95, Type (0, 0), BuildingBlock: UVAHIK_clean_linker_0, # of connection points: 2
# Relax obj value: 0.044
# Max RMSD: 0.060
# Mean RMSD: 0.060
data_MOF--net-uos--node1-KUFVIS_clean_sbu_0--edge1-UVAHIK_clean_linker_0
_symmetry_space_group_name_H-M    P1
_symmetry_Int_Tables_number       1
_symmetry_cell_setting            triclinic
loop_
_symmetry_equiv_pos_as_xyz
'x, y, z'
_cell_length_a     110.45075
_cell_length_b     110.4837
_cell_length_c     29.665009
_cell_angle_alpha  89.997864
_cell_angle_beta   90.001187
_cell_angle_gamma 90.000161
loop_
_atom_site_label
_atom_site_type_symbol
_atom_site_fract_x
_atom_site_fract_y
_atom_site_fract_z
_atom_type_partial_charge
Mn0 Mn 0.1675 0.16272 0.12418 0.0
Mn1 Mn 0.1672 0.17907 0.22072 0.0
C2 C 0.16138 0.15381 0.19093 0.0
C3 C 0.15783 0.15585 0.05857 0.0
C4 C 0.19008 0.16846 0.18124 0.0
O5 O 0.16855 0.18012 0.10091 0.0
O6 O 0.1683 0.18989 0.16761 0.0
C7 C 0.14332 0.19067 0.20746 0.0
N8 N 0.15095 0.1839 0.23323 0.0
C9 C 0.13633 0.18274 0.29317 0.0
C10 C 0.12833 0.18976 0.26741 0.0
C11 C 0.13182 0.19369 0.22428 0.0
C12 C 0.14764 0.17996 0.27454 0.0
H13 H 0.146 0.19376 0.17439 0.0
C14 C 0.16886 0.18977 0.12454 0.0
O15 O 0.16956 0.156 0.06189 0.0
O16 O 0.15181 0.16013 0.09251 0.0
N17 N 0.16621 0.17001 0.27554 0.0
C18 C 0.17477 0.16286 0.29514 0.0
C19 C 0.17255 0.15789 0.33793 0.0
C20 C 0.16168 0.16052 0.36048 0.0
C21 C 0.1531 0.16808 0.33996 0.0
C22 C 0.15578 0.17271 0.29718 0.0
H23 H 0.1832 0.16093 0.27812 0.0
O24 O 0.16505 0.14724 0.15741 0.0
O25 O 0.16118 0.16547 0.18435 0.0
O26 O 0.18523 0.16351 0.14664 0.0
O27 O 0.18417 0.17439 0.21089 0.0
C28 C 0.14193 0.17109 0.36001 0.0
C29 C 0.13351 0.17833 0.33648 0.0
H30 H 0.11947 0.19213 0.28031 0.0
H31 H 0.12569 0.19908 0.20413 0.0
H32 H 0.17923 0.15208 0.35357 0.0
H33 H 0.15999 0.15664 0.39342 0.0
H34 H 0.13966 0.16779 0.39332 0.0
H35 H 0.12488 0.18041 0.35196 0.0
Mn36 Mn 0.09076 0.91684 0.37985 0.0
Mn37 Mn 0.07521 0.91539 0.47786 0.0
C38 C 0.10009 0.90974 0.44443 0.0
C39 C 0.09737 0.90791 0.31243 0.0
C40 C 0.08628 0.93857 0.44324 0.0
O41 O 0.07328 0.91818 0.35813 0.0
O42 O 0.06417 0.91818 0.42597 0.0
C43 C 0.06236 0.89248 0.45791 0.0
N44 N 0.06957 0.89917 0.48558 0.0
C45 C 0.07017 0.88322 0.54072 0.0
C46 C 0.06269 0.87617 0.51294 0.0
C47 C 0.05882 0.88081 0.47126 0.0
C48 C 0.07346 0.89475 0.52549 0.0
H49 H 0.05931 0.89603 0.42595 0.0
C50 C 0.06388 0.91895 0.38293 0.0
O51 O 0.09723 0.9196 0.31743 0.0
O52 O 0.09315 0.90156 0.34557 0.0
N53 N 0.08434 0.9127 0.53173 0.0
C54 C 0.09193 0.92044 0.55368 0.0
C55 C 0.09674 0.91712 0.5957 0.0
C56 C 0.09355 0.90597 0.61506 0.0
C57 C 0.08565 0.89819 0.59203 0.0
C58 C 0.08114 0.902 0.55027 0.0
H59 H 0.09438 0.92903 0.53901 0.0
O60 O 0.10642 0.91398 0.41124 0.0
O61 O 0.08838 0.90962 0.43897 0.0
O62 O 0.09004 0.93432 0.40552 0.0
O63 O 0.08092 0.93216 0.47298 0.0
C64 C 0.08221 0.88673 0.60857 0.0
C65 C 0.07454 0.87922 0.58278 0.0
H66 H 0.05992 0.86718 0.52317 0.0
H67 H 0.05308 0.87542 0.44956 0.0
H68 H 0.10287 0.92315 0.61317 0.0
H69 H 0.09729 0.90344 0.64748 0.0
H70 H 0.0855 0.88356 0.64086 0.0
H71 H 0.0721 0.87037 0.59558 0.0
Mn72 Mn 0.33615 0.84022 0.62979 0.0
Mn73 Mn 0.33731 0.82483 0.72819 0.0
C74 C 0.34324 0.84958 0.69429 0.0
C75 C 0.34533 0.84657 0.56247 0.0
C76 C 0.31429 0.83608 0.69293 0.0
O77 O 0.33469 0.82275 0.60842 0.0
O78 O 0.33434 0.81377 0.67648 0.0
C79 C 0.36002 0.81161 0.70834 0.0
N80 N 0.35344 0.81894 0.73596 0.0
C81 C 0.36941 0.8193 0.79109 0.0
C82 C 0.37633 0.81169 0.76338 0.0
C83 C 0.37163 0.80788 0.72173 0.0
C84 C 0.35793 0.82278 0.77583 0.0
H85 H 0.35642 0.80861 0.6764 0.0
C86 C 0.33368 0.81342 0.63342 0.0
O87 O 0.33362 0.84664 0.56711 0.0
O88 O 0.35154 0.84235 0.59598 0.0
N89 N 0.34017 0.83398 0.78194 0.0
C90 C 0.33258 0.84174 0.80376 0.0
C91 C 0.33598 0.84649 0.84578 0.0
C92 C 0.34705 0.84309 0.86526 0.0
C93 C 0.3547 0.83505 0.84229 0.0
C94 C 0.35081 0.83059 0.80055 0.0
H95 H 0.32409 0.8444 0.78891 0.0
O96 O 0.3391 0.8559 0.66088 0.0
O97 O 0.34327 0.83787 0.68911 0.0
O98 O 0.31861 0.83964 0.65504 0.0
O99 O 0.32062 0.83082 0.72318 0.0
C100 C 0.36609 0.83142 0.85886 0.0
C101 C 0.37348 0.82362 0.83314 0.0
H102 H 0.38528 0.80877 0.77364 0.0
H103 H 0.37693 0.80204 0.70007 0.0
H104 H 0.33006 0.85276 0.86315 0.0
H105 H 0.34963 0.84679 0.89768 0.0
H106 H 0.36932 0.83468 0.89113 0.0
H107 H 0.38229 0.82103 0.84595 0.0
Mn108 Mn 0.41211 0.08591 0.8888 0.0
Mn109 Mn 0.42689 0.08704 0.9885 0.0
C110 C 0.40226 0.09273 0.9528 0.0
C111 C 0.40597 0.09507 0.82113 0.0
C112 C 0.41625 0.06395 0.95147 0.0
O113 O 0.42975 0.08479 0.86883 0.0
O114 O 0.43832 0.08441 0.93766 0.0
C115 C 0.43988 0.11001 0.97079 0.0
N116 N 0.43248 0.10323 0.99746 0.0
C117 C 0.43158 0.11898 0.05337 0.0
C118 C 0.43925 0.1261 0.02663 0.0
C119 C 0.44337 0.12161 0.98505 0.0
C120 C 0.42835 0.10752 0.03724 0.0
H121 H 0.44312 0.10657 0.93892 0.0
C122 C 0.43895 0.08387 0.89462 0.0
O123 O 0.4061 0.08336 0.82561 0.0
O124 O 0.40989 0.10131 0.85505 0.0
N125 N 0.41737 0.08958 0.04154 0.0
C126 C 0.40958 0.08181 0.06229 0.0
C127 C 0.40451 0.08499 0.10405 0.0
C128 C 0.40764 0.09604 0.12437 0.0
C129 C 0.41573 0.10387 0.10249 0.0
C130 C 0.42049 0.1002 0.06094 0.0
H131 H 0.40715 0.07332 0.04685 0.0
O132 O 0.3962 0.08855 0.91879 0.0
O133 O 0.41401 0.09293 0.94853 0.0
O134 O 0.41283 0.06833 0.91351 0.0
O135 O 0.42123 0.07028 0.98236 0.0
C136 C 0.41912 0.11523 0.11998 0.0
C137 C 0.42697 0.12282 0.09528 0.0
H138 H 0.44199 0.13504 0.03758 0.0
H139 H 0.44926 0.12707 0.96415 0.0
H140 H 0.39822 0.07893 0.12059 0.0
H141 H 0.40372 0.09844 0.1566 0.0
H142 H 0.41565 0.11829 0.15217 0.0
H143 H 0.42937 0.13161 0.10878 0.0
Mn144 Mn 0.16669 0.84077 0.87733 0.0
Mn145 Mn 0.16367 0.82636 0.77738 0.0
C146 C 0.15988 0.85123 0.81458 0.0
C147 C 0.15803 0.84684 0.94593 0.0
C148 C 0.18794 0.83463 0.81494 0.0
O149 O 0.16734 0.82292 0.89542 0.0
O150 O 0.16367 0.81443 0.82761 0.0
C151 C 0.13865 0.81732 0.78961 0.0
N152 N 0.14694 0.82356 0.76482 0.0
C153 C 0.1322 0.82782 0.70721 0.0
C154 C 0.12356 0.82126 0.73175 0.0
C155 C 0.12679 0.81604 0.77324 0.0
C156 C 0.1439 0.82874 0.72511 0.0
H157 H 0.14107 0.81342 0.82172 0.0
C158 C 0.16544 0.81373 0.87024 0.0
O159 O 0.16972 0.84631 0.94091 0.0
O160 O 0.15154 0.84329 0.91211 0.0
N161 N 0.1634 0.8367 0.72555 0.0
C162 C 0.17249 0.84356 0.70793 0.0
C163 C 0.17059 0.84982 0.66734 0.0
C164 C 0.1594 0.8489 0.64512 0.0
C165 C 0.1502 0.84172 0.66373 0.0
C166 C 0.15266 0.83561 0.7041 0.0
H167 H 0.18109 0.84436 0.7249 0.0
O168 O 0.16441 0.85701 0.84864 0.0
O169 O 0.15933 0.83953 0.81837 0.0
O170 O 0.18394 0.83958 0.85102 0.0
O171 O 0.18113 0.8292 0.78656 0.0
C172 C 0.13859 0.84066 0.64447 0.0
C173 C 0.12959 0.83374 0.66625 0.0
H174 H 0.11439 0.82031 0.71938 0.0
H175 H 0.12014 0.81108 0.79263 0.0
H176 H 0.17772 0.85539 0.65331 0.0
H177 H 0.15792 0.85385 0.61409 0.0
H178 H 0.13642 0.84533 0.6134 0.0
H179 H 0.12063 0.83318 0.65157 0.0
Mn180 Mn 0.41278 0.91554 0.12678 0.0
Mn181 Mn 0.42664 0.91287 0.02559 0.0
C182 C 0.40201 0.90887 0.06464 0.0
C183 C 0.40712 0.90672 0.19556 0.0
C184 C 0.41853 0.93699 0.0648 0.0
O185 O 0.43074 0.91615 0.14349 0.0
O186 O 0.43885 0.91277 0.07483 0.0
C187 C 0.43596 0.88789 0.03594 0.0
N188 N 0.42945 0.89619 0.01216 0.0
C189 C 0.42491 0.88159 0.95438 0.0
C190 C 0.4317 0.87293 0.97795 0.0
C191 C 0.4372 0.87609 0.01901 0.0
C192 C 0.42403 0.89322 0.97283 0.0
H193 H 0.44012 0.89026 0.06766 0.0
C194 C 0.43979 0.91436 0.1175 0.0
O195 O 0.40758 0.91842 0.19081 0.0
O196 O 0.41049 0.90031 0.16129 0.0
N197 N 0.416 0.91269 0.97461 0.0
C198 C 0.40902 0.92181 0.95782 0.0
C199 C 0.40254 0.91999 0.91766 0.0
C200 C 0.40337 0.90886 0.89499 0.0
C201 C 0.41066 0.89964 0.91273 0.0
C202 C 0.41699 0.902 0.95271 0.0
H203 H 0.40831 0.93036 0.97512 0.0
O204 O 0.39639 0.9133 0.09927 0.0
O205 O 0.41373 0.90834 0.06749 0.0
O206 O 0.4138 0.93286 0.10109 0.0
O207 O 0.42379 0.93029 0.03564 0.0
C208 C 0.41166 0.88808 0.89296 0.0
C209 C 0.41876 0.87906 0.91382 0.0
H210 H 0.43263 0.8638 0.96513 0.0
H211 H 0.44237 0.86943 0.0376 0.0
H212 H 0.39688 0.92713 0.90429 0.0
H213 H 0.39826 0.90745 0.86427 0.0
H214 H 0.40682 0.88597 0.86219 0.0
H215 H 0.41927 0.87015 0.89874 0.0
Mn216 Mn 0.33568 0.16154 0.38562 0.0
Mn217 Mn 0.33782 0.17582 0.28528 0.0
C218 C 0.34173 0.1509 0.3222 0.0
C219 C 0.34495 0.15574 0.45345 0.0
C220 C 0.31389 0.16847 0.32807 0.0
O221 O 0.33541 0.17956 0.40277 0.0
O222 O 0.33957 0.18776 0.33478 0.0
C223 C 0.36346 0.18357 0.28926 0.0
N224 N 0.35436 0.17761 0.26764 0.0
C225 C 0.36759 0.1722 0.20637 0.0
C226 C 0.37705 0.17844 0.22767 0.0
C227 C 0.37499 0.1841 0.26939 0.0
C228 C 0.35627 0.17205 0.22767 0.0
H229 H 0.36193 0.18782 0.32152 0.0
C230 C 0.33793 0.1886 0.37745 0.0
O231 O 0.33323 0.15627 0.44978 0.0
O232 O 0.35116 0.15908 0.41859 0.0
N233 N 0.33641 0.16525 0.23438 0.0
C234 C 0.32661 0.15881 0.22009 0.0
C235 C 0.32734 0.15214 0.1799 0.0
C236 C 0.3381 0.15222 0.15463 0.0
C237 C 0.34803 0.15899 0.16978 0.0
C238 C 0.34674 0.16553 0.20996 0.0
H239 H 0.31831 0.15873 0.23928 0.0
O240 O 0.33762 0.14519 0.35716 0.0
O241 O 0.34234 0.1626 0.32571 0.0
O242 O 0.31821 0.16265 0.36167 0.0
O243 O 0.32043 0.17419 0.29963 0.0
C244 C 0.35924 0.15928 0.14717 0.0
C245 C 0.36902 0.16587 0.16547 0.0
H246 H 0.38598 0.17879 0.21262 0.0
H247 H 0.38228 0.18882 0.28626 0.0
H248 H 0.31964 0.14691 0.16848 0.0
H249 H 0.33866 0.14696 0.12388 0.0
H250 H 0.36052 0.15427 0.11614 0.0
H251 H 0.37766 0.16583 0.14824 0.0
Mn252 Mn 0.09154 0.08708 0.62096 0.0
Mn253 Mn 0.07829 0.08875 0.51834 0.0
C254 C 0.1024 0.09395 0.55948 0.0
C255 C 0.0968 0.09602 0.68999 0.0
C256 C 0.08771 0.0653 0.5574 0.0
O257 O 0.07359 0.08615 0.63688 0.0
O258 O 0.06592 0.08677 0.56653 0.0
C259 C 0.06609 0.11233 0.532 0.0
N260 N 0.07369 0.10518 0.50759 0.0
C261 C 0.07702 0.12102 0.45328 0.0
C262 C 0.06916 0.12853 0.47769 0.0
C263 C 0.0637 0.12418 0.51729 0.0
C264 C 0.07904 0.1093 0.46957 0.0
H265 H 0.06189 0.10903 0.56248 0.0
C266 C 0.06471 0.08592 0.60937 0.0
O267 O 0.09654 0.08432 0.68523 0.0
O268 O 0.09344 0.10238 0.65553 0.0
N269 N 0.08894 0.09072 0.46795 0.0
C270 C 0.0967 0.08251 0.4494 0.0
C271 C 0.10305 0.08552 0.40995 0.0
C272 C 0.10127 0.09688 0.3897 0.0
C273 C 0.09313 0.10511 0.40906 0.0
C274 C 0.08699 0.10157 0.44823 0.0
H275 H 0.09813 0.07379 0.46488 0.0
O276 O 0.10794 0.08962 0.59444 0.0
O277 O 0.09063 0.0942 0.56137 0.0
O278 O 0.09103 0.06961 0.59558 0.0
O279 O 0.08303 0.07174 0.52619 0.0
C280 C 0.09107 0.11679 0.39161 0.0
C281 C 0.08305 0.12475 0.41379 0.0
H282 H 0.06732 0.13768 0.46651 0.0
H283 H 0.05767 0.12994 0.53641 0.0
H284 H 0.10934 0.07913 0.39529 0.0
H285 H 0.10628 0.09921 0.35954 0.0
H286 H 0.09575 0.11981 0.36154 0.0
H287 H 0.08166 0.13376 0.40039 0.0
Mn288 Mn 0.83679 0.84208 0.86671 0.0
Mn289 Mn 0.838 0.82788 0.76595 0.0
C290 C 0.84388 0.85219 0.80363 0.0
C291 C 0.84578 0.84793 0.93499 0.0
C292 C 0.81495 0.83859 0.80275 0.0
O293 O 0.83545 0.82436 0.88556 0.0
O294 O 0.83487 0.81632 0.81587 0.0
C295 C 0.86062 0.81434 0.78426 0.0
N296 N 0.85411 0.822 0.75765 0.0
C297 C 0.87011 0.82279 0.7027 0.0
C298 C 0.87696 0.81486 0.72939 0.0
C299 C 0.87221 0.81067 0.77047 0.0
C300 C 0.85866 0.82621 0.71838 0.0
H301 H 0.85698 0.81104 0.81572 0.0
C302 C 0.83428 0.8154 0.85881 0.0
O303 O 0.83408 0.84783 0.93012 0.0
O304 O 0.85211 0.84409 0.90114 0.0
N305 N 0.84096 0.83756 0.71365 0.0
C306 C 0.8334 0.84552 0.69273 0.0
C307 C 0.83683 0.85064 0.65135 0.0
C308 C 0.8479 0.84738 0.63153 0.0
C309 C 0.85551 0.83911 0.65353 0.0
C310 C 0.8516 0.8343 0.6947 0.0
H311 H 0.82486 0.84802 0.70771 0.0
O312 O 0.83963 0.85812 0.83782 0.0
O313 O 0.84397 0.84043 0.80711 0.0
O314 O 0.81925 0.8416 0.84131 0.0
O315 O 0.82132 0.83385 0.77146 0.0
C316 C 0.86688 0.83553 0.63648 0.0
C317 C 0.87421 0.82746 0.66122 0.0
H318 H 0.88589 0.81197 0.71878 0.0
H319 H 0.87745 0.80458 0.79133 0.0
H320 H 0.83094 0.85706 0.63468 0.0
H321 H 0.8505 0.85133 0.59955 0.0
H322 H 0.87012 0.83904 0.6046 0.0
H323 H 0.883 0.82492 0.64807 0.0
Mn324 Mn 0.91194 0.08666 0.62279 0.0
Mn325 Mn 0.92593 0.08891 0.52197 0.0
C326 C 0.90107 0.09268 0.55997 0.0
C327 C 0.90638 0.09582 0.69103 0.0
C328 C 0.91884 0.06494 0.56504 0.0
O329 O 0.92999 0.08638 0.63904 0.0
O330 O 0.93806 0.09068 0.57093 0.0
C331 C 0.93364 0.11455 0.52562 0.0
N332 N 0.92758 0.10546 0.50437 0.0
C333 C 0.92176 0.11873 0.44377 0.0
C334 C 0.92808 0.12819 0.46473 0.0
C335 C 0.934 0.1261 0.50592 0.0
C336 C 0.92179 0.10739 0.46486 0.0
H337 H 0.93812 0.11299 0.55744 0.0
C338 C 0.93898 0.08894 0.61352 0.0
O339 O 0.90692 0.08411 0.68713 0.0
O340 O 0.90956 0.10209 0.65608 0.0
N341 N 0.91517 0.08747 0.47161 0.0
C342 C 0.90872 0.07765 0.45763 0.0
C343 C 0.90181 0.07841 0.41799 0.0
C344 C 0.90167 0.0892 0.39296 0.0
C345 C 0.90847 0.09915 0.4078 0.0
C346 C 0.91524 0.09784 0.44742 0.0
H347 H 0.90879 0.06933 0.47666 0.0
O348 O 0.89549 0.08855 0.59521 0.0
O349 O 0.91278 0.09335 0.56292 0.0
O350 O 0.91305 0.06923 0.59872 0.0
O351 O 0.92446 0.07149 0.53632 0.0
C352 C 0.90855 0.1104 0.38542 0.0
C353 C 0.91519 0.12018 0.40341 0.0
H354 H 0.9283 0.13714 0.44982 0.0
H355 H 0.9388 0.13339 0.52251 0.0
H356 H 0.89656 0.07069 0.40681 0.0
H357 H 0.89623 0.08978 0.36266 0.0
H358 H 0.90335 0.11169 0.35483 0.0
H359 H 0.91499 0.12885 0.38636 0.0
Mn360 Mn 0.66783 0.16314 0.3807 0.0
Mn361 Mn 0.66706 0.1796 0.28438 0.0
C362 C 0.6609 0.15444 0.31463 0.0
C363 C 0.65866 0.1565 0.4475 0.0
C364 C 0.69004 0.16848 0.32121 0.0
O365 O 0.66965 0.1805 0.40397 0.0
O366 O 0.66872 0.19033 0.33748 0.0
C367 C 0.64348 0.19157 0.30018 0.0
N368 N 0.65082 0.18473 0.27352 0.0
C369 C 0.63582 0.184 0.21481 0.0
C370 C 0.62811 0.19109 0.24151 0.0
C371 C 0.63193 0.19484 0.28447 0.0
C372 C 0.64718 0.18096 0.23239 0.0
H373 H 0.64642 0.19452 0.33311 0.0
C374 C 0.66981 0.19016 0.3804 0.0
O375 O 0.67034 0.15619 0.4423 0.0
O376 O 0.6524 0.16109 0.41473 0.0
N377 N 0.66554 0.17066 0.22949 0.0
C378 C 0.67387 0.16345 0.20884 0.0
C379 C 0.67133 0.15868 0.16598 0.0
C380 C 0.66039 0.16159 0.14442 0.0
C381 C 0.65205 0.1692 0.16601 0.0
C382 C 0.65505 0.17363 0.20879 0.0
H383 H 0.68236 0.16132 0.22506 0.0
O384 O 0.66462 0.14777 0.34778 0.0
O385 O 0.66105 0.1661 0.32126 0.0
O386 O 0.68535 0.16346 0.35597 0.0
O387 O 0.68401 0.17463 0.29252 0.0
C388 C 0.64081 0.17246 0.14704 0.0
C389 C 0.63266 0.17977 0.17157 0.0
H390 H 0.61921 0.19366 0.22945 0.0
H391 H 0.62602 0.20029 0.30534 0.0
H392 H 0.67782 0.15283 0.1495 0.0
H393 H 0.65846 0.15788 0.11139 0.0
H394 H 0.63828 0.16931 0.11379 0.0
H395 H 0.62397 0.18205 0.15691 0.0
Mn396 Mn 0.59145 0.91848 0.12361 0.0
Mn397 Mn 0.5762 0.91779 0.02481 0.0
C398 C 0.60097 0.91191 0.0586 0.0
C399 C 0.59783 0.909 0.19038 0.0
C400 C 0.58711 0.9407 0.06238 0.0
O401 O 0.57391 0.91957 0.14476 0.0
O402 O 0.56504 0.92027 0.07652 0.0
C403 C 0.56322 0.8948 0.04225 0.0
N404 N 0.57051 0.90165 0.01541 0.0
C405 C 0.57108 0.88611 0.95866 0.0
C406 C 0.56352 0.87891 0.98557 0.0
C407 C 0.55962 0.88326 0.02765 0.0
C408 C 0.57443 0.8975 0.97514 0.0
H409 H 0.56016 0.89813 0.07451 0.0
C410 C 0.56461 0.92063 0.11961 0.0
O411 O 0.59775 0.92073 0.1866 0.0
O412 O 0.59375 0.90293 0.15629 0.0
N413 N 0.58545 0.91541 0.97099 0.0
C414 C 0.59315 0.92324 0.95004 0.0
C415 C 0.59799 0.9202 0.90776 0.0
C416 C 0.59472 0.90923 0.88713 0.0
C417 C 0.58673 0.90135 0.90919 0.0
C418 C 0.58219 0.90487 0.95127 0.0
H419 H 0.59568 0.93166 0.96573 0.0
O420 O 0.60721 0.91591 0.09246 0.0
O421 O 0.58926 0.91172 0.06361 0.0
O422 O 0.59068 0.93617 0.0999 0.0
O423 O 0.58197 0.93451 0.03147 0.0
C424 C 0.5832 0.89006 0.89137 0.0
C425 C 0.57546 0.88241 0.91624 0.0
H426 H 0.56069 0.87002 0.97436 0.0
H427 H 0.55382 0.87775 0.04869 0.0
H428 H 0.6042 0.9263 0.89108 0.0
H429 H 0.59847 0.90693 0.85451 0.0
H430 H 0.58649 0.88711 0.85879 0.0
H431 H 0.57296 0.87368 0.90248 0.0
Mn432 Mn 0.83658 0.16306 0.12613 0.0
Mn433 Mn 0.83796 0.17888 0.22336 0.0
C434 C 0.8425 0.15345 0.19214 0.0
C435 C 0.84608 0.15654 0.05974 0.0
C436 C 0.81441 0.17015 0.18133 0.0
O437 O 0.83592 0.18076 0.10499 0.0
O438 O 0.83948 0.19005 0.17138 0.0
C439 C 0.86338 0.18726 0.21801 0.0
N440 N 0.85435 0.1816 0.24106 0.0
C441 C 0.86715 0.17886 0.30586 0.0
C442 C 0.87653 0.18486 0.28315 0.0
C443 C 0.87466 0.18899 0.23888 0.0
C444 C 0.85613 0.17735 0.28324 0.0
H445 H 0.86198 0.19038 0.18394 0.0
C446 C 0.83804 0.19022 0.12856 0.0
O447 O 0.83435 0.15686 0.06315 0.0
O448 O 0.85219 0.16043 0.0941 0.0
N449 N 0.83674 0.16929 0.27687 0.0
C450 C 0.82717 0.1627 0.29232 0.0
C451 C 0.82783 0.15729 0.33509 0.0
C452 C 0.8382 0.1589 0.36184 0.0
C453 C 0.84788 0.16582 0.34537 0.0
C454 C 0.84677 0.17088 0.30233 0.0
H455 H 0.81911 0.16158 0.27217 0.0
O456 O 0.83871 0.14722 0.1579 0.0
O457 O 0.84301 0.1651 0.1864 0.0
O458 O 0.81901 0.16408 0.14892 0.0
O459 O 0.82067 0.17641 0.20902 0.0
C460 C 0.85866 0.16779 0.36973 0.0
C461 C 0.86834 0.17417 0.34981 0.0
H462 H 0.88524 0.18622 0.29916 0.0
H463 H 0.8819 0.1935 0.22093 0.0
H464 H 0.82033 0.15195 0.34754 0.0
H465 H 0.83867 0.15472 0.39482 0.0
H466 H 0.85968 0.16422 0.40353 0.0
H467 H 0.87669 0.17533 0.36842 0.0
Mn468 Mn 0.59122 0.08843 0.88231 0.0
Mn469 Mn 0.57782 0.09212 0.98397 0.0
C470 C 0.60229 0.09577 0.94273 0.0
C471 C 0.59648 0.09629 0.81162 0.0
C472 C 0.58575 0.06763 0.94759 0.0
O473 O 0.57317 0.08757 0.86696 0.0
O474 O 0.56539 0.09179 0.9355 0.0
C475 C 0.56853 0.11702 0.97092 0.0
N476 N 0.57511 0.10892 0.99539 0.0
C477 C 0.57991 0.12402 0.05107 0.0
C478 C 0.57305 0.13248 0.02678 0.0
C479 C 0.56738 0.12897 0.98643 0.0
C480 C 0.5807 0.11223 0.03402 0.0
H481 H 0.56424 0.11437 0.93975 0.0
C482 C 0.56425 0.08971 0.8932 0.0
O483 O 0.59616 0.08469 0.81882 0.0
O484 O 0.59324 0.10322 0.84469 0.0
N485 N 0.58867 0.09274 0.03429 0.0
C486 C 0.59563 0.08373 0.052 0.0
C487 C 0.60222 0.08587 0.0917 0.0
C488 C 0.6015 0.0972 0.113 0.0
C489 C 0.59421 0.1063 0.09434 0.0
C490 C 0.58778 0.10361 0.0549 0.0
H491 H 0.59624 0.07501 0.0358 0.0
O492 O 0.60772 0.09103 0.90828 0.0
O493 O 0.59055 0.09626 0.94064 0.0
O494 O 0.59039 0.07143 0.9107 0.0
O495 O 0.58056 0.07458 0.97608 0.0
C496 C 0.59331 0.11803 0.11272 0.0
C497 C 0.58619 0.12689 0.09103 0.0
H498 H 0.57218 0.14172 0.03851 0.0
H499 H 0.56216 0.13547 0.96729 0.0
H500 H 0.60786 0.07882 0.10578 0.0
H501 H 0.60668 0.09885 0.14338 0.0
H502 H 0.59824 0.12039 0.14304 0.0
H503 H 0.58574 0.13593 0.10503 0.0
Mn504 Mn 0.66649 0.84172 0.627 0.0
Mn505 Mn 0.66382 0.8288 0.72991 0.0
C506 C 0.66017 0.85313 0.68821 0.0
C507 C 0.65762 0.84705 0.55789 0.0
C508 C 0.68799 0.83609 0.68896 0.0
O509 O 0.66664 0.8236 0.61228 0.0
O510 O 0.66335 0.81622 0.68213 0.0
C511 C 0.63863 0.81991 0.72151 0.0
N512 N 0.64712 0.82643 0.74425 0.0
C513 C 0.63277 0.83174 0.80201 0.0
C514 C 0.62392 0.82493 0.77954 0.0
C515 C 0.62685 0.81904 0.73901 0.0
C516 C 0.64437 0.83224 0.78304 0.0
H517 H 0.64083 0.81545 0.69018 0.0
C518 C 0.66475 0.81483 0.63954 0.0
O519 O 0.66931 0.84637 0.56234 0.0
O520 O 0.65121 0.84406 0.5927 0.0
N521 N 0.66399 0.83986 0.77962 0.0
C522 C 0.6733 0.84677 0.79533 0.0
C523 C 0.67173 0.8536 0.83483 0.0
C524 C 0.66064 0.85318 0.85796 0.0
C525 C 0.65122 0.84595 0.84135 0.0
C526 C 0.65334 0.83927 0.802 0.0
H527 H 0.68184 0.84714 0.7777 0.0
O528 O 0.66464 0.85837 0.65286 0.0
O529 O 0.65943 0.84141 0.68664 0.0
O530 O 0.68387 0.84056 0.65222 0.0
O531 O 0.68126 0.83122 0.71892 0.0
C532 C 0.6397 0.84534 0.86165 0.0
C533 C 0.63048 0.83827 0.84194 0.0
H534 H 0.6148 0.82429 0.7928 0.0
H535 H 0.62003 0.81387 0.72125 0.0
H536 H 0.67903 0.85919 0.84734 0.0
H537 H 0.65943 0.85855 0.88819 0.0
H538 H 0.63777 0.85047 0.89195 0.0
H539 H 0.62159 0.83805 0.8574 0.0
Mn540 Mn 0.91242 0.91834 0.36938 0.0
Mn541 Mn 0.92746 0.91644 0.46823 0.0
C542 C 0.90225 0.91248 0.43401 0.0
C543 C 0.90614 0.90897 0.3024 0.0
C544 C 0.91985 0.94025 0.42524 0.0
O545 O 0.93029 0.91859 0.35051 0.0
O546 O 0.93906 0.91453 0.41764 0.0
C547 C 0.93519 0.8908 0.46467 0.0
N548 N 0.92935 0.89995 0.48638 0.0
C549 C 0.92431 0.88692 0.54862 0.0
C550 C 0.93041 0.87739 0.52718 0.0
C551 C 0.93583 0.87933 0.48494 0.0
C552 C 0.92404 0.89817 0.5269 0.0
H553 H 0.93928 0.89224 0.43205 0.0
C554 C 0.93954 0.91612 0.37487 0.0
O555 O 0.90675 0.92069 0.30568 0.0
O556 O 0.90968 0.90281 0.33712 0.0
N557 N 0.91725 0.91802 0.52007 0.0
C558 C 0.9109 0.92787 0.5345 0.0
C559 C 0.90446 0.92725 0.57524 0.0
C560 C 0.90467 0.91657 0.6009 0.0
C561 C 0.91135 0.90659 0.58557 0.0
C562 C 0.91765 0.90776 0.54483 0.0
H563 H 0.91071 0.93611 0.51499 0.0
O564 O 0.89628 0.9165 0.39948 0.0
O565 O 0.91392 0.91184 0.42937 0.0
O566 O 0.91373 0.93585 0.39258 0.0
O567 O 0.92579 0.9338 0.45334 0.0
C568 C 0.91175 0.89544 0.60857 0.0
C569 C 0.91822 0.88561 0.59009 0.0
H570 H 0.93085 0.86851 0.54254 0.0
H571 H 0.94046 0.87199 0.46799 0.0
H572 H 0.8993 0.93498 0.58679 0.0
H573 H 0.89959 0.91609 0.63207 0.0
H574 H 0.90692 0.89425 0.64004 0.0
H575 H 0.91827 0.87701 0.60765 0.0
Mn576 Mn 0.66664 0.66199 0.62402 0.0
Mn577 Mn 0.66386 0.67486 0.72698 0.0
C578 C 0.66042 0.65052 0.68525 0.0
C579 C 0.65771 0.65652 0.55506 0.0
C580 C 0.68809 0.66776 0.68606 0.0
O581 O 0.66661 0.68012 0.60932 0.0
O582 O 0.6633 0.68743 0.67923 0.0
C583 C 0.6386 0.68354 0.71853 0.0
N584 N 0.64714 0.6771 0.74131 0.0
C585 C 0.63284 0.67173 0.79918 0.0
C586 C 0.62393 0.67846 0.77667 0.0
C587 C 0.62681 0.68434 0.73606 0.0
C588 C 0.64444 0.6713 0.78016 0.0
H589 H 0.64075 0.68799 0.68713 0.0
C590 C 0.66466 0.68886 0.63666 0.0
O591 O 0.66941 0.65735 0.55924 0.0
O592 O 0.65134 0.65948 0.58997 0.0
N593 N 0.6641 0.6638 0.77669 0.0
C594 C 0.67346 0.65695 0.79237 0.0
C595 C 0.67194 0.65013 0.83192 0.0
C596 C 0.66087 0.65049 0.85513 0.0
C597 C 0.65139 0.65766 0.83853 0.0
C598 C 0.65346 0.66434 0.79913 0.0
H599 H 0.68199 0.65662 0.77469 0.0
O600 O 0.66494 0.64532 0.6499 0.0
O601 O 0.65959 0.66223 0.68367 0.0
O602 O 0.68403 0.66329 0.64921 0.0
O603 O 0.68131 0.67257 0.716 0.0
C604 C 0.63988 0.65821 0.85889 0.0
C605 C 0.6306 0.66521 0.83916 0.0
H606 H 0.61482 0.67904 0.78995 0.0
H607 H 0.61995 0.68945 0.71826 0.0
H608 H 0.67928 0.64457 0.84441 0.0
H609 H 0.6597 0.64513 0.88539 0.0
H610 H 0.63799 0.65308 0.88923 0.0
H611 H 0.62172 0.66538 0.85466 0.0
Mn612 Mn 0.59097 0.41569 0.87959 0.0
Mn613 Mn 0.57759 0.41267 0.98151 0.0
C614 C 0.6021 0.40904 0.94093 0.0
C615 C 0.59643 0.40701 0.8103 0.0
C616 C 0.58522 0.43696 0.94239 0.0
O617 O 0.57293 0.41612 0.86399 0.0
O618 O 0.56517 0.41246 0.93302 0.0
C619 C 0.5686 0.38757 0.97121 0.0
N620 N 0.57507 0.39593 0.99479 0.0
C621 C 0.58007 0.38133 0.05204 0.0
C622 C 0.57331 0.3726 0.02869 0.0
C623 C 0.5676 0.37573 0.988 0.0
C624 C 0.5807 0.39299 0.03375 0.0
H625 H 0.56428 0.38991 0.93976 0.0
C626 C 0.56402 0.41413 0.89047 0.0
O627 O 0.59588 0.41869 0.81529 0.0
O628 O 0.59327 0.40052 0.84466 0.0
N629 N 0.58845 0.41257 0.03184 0.0
C630 C 0.59537 0.42177 0.04839 0.0
C631 C 0.60204 0.42 0.08816 0.0
C632 C 0.60146 0.40883 0.11069 0.0
C633 C 0.59422 0.39953 0.09319 0.0
C634 C 0.5877 0.40185 0.05361 0.0
H635 H 0.59588 0.43036 0.03121 0.0
O636 O 0.60751 0.41358 0.90607 0.0
O637 O 0.59037 0.40839 0.93876 0.0
O638 O 0.58987 0.43296 0.90576 0.0
O639 O 0.58015 0.43014 0.97162 0.0
C640 C 0.59347 0.38794 0.11282 0.0
C641 C 0.58642 0.37883 0.0922 0.0
H642 H 0.57257 0.36344 0.0414 0.0
H643 H 0.56246 0.36901 0.96956 0.0
H644 H 0.60764 0.42721 0.10133 0.0
H645 H 0.6067 0.40746 0.14111 0.0
H646 H 0.59847 0.38586 0.14327 0.0
H647 H 0.5861 0.3699 0.10714 0.0
Mn648 Mn 0.83746 0.34107 0.13001 0.0
Mn649 Mn 0.84043 0.32565 0.22785 0.0
C650 C 0.84383 0.35105 0.19471 0.0
C651 C 0.84628 0.34784 0.06247 0.0
C652 C 0.81617 0.33432 0.19163 0.0
O653 O 0.83705 0.32343 0.10893 0.0
O654 O 0.8403 0.31437 0.17581 0.0
C655 C 0.86539 0.31674 0.21281 0.0
N656 N 0.85715 0.3225 0.23934 0.0
C657 C 0.87167 0.32478 0.29912 0.0
C658 C 0.88027 0.31866 0.2728 0.0
C659 C 0.87714 0.31472 0.2293 0.0
C660 C 0.86014 0.32658 0.28077 0.0
H661 H 0.86303 0.31377 0.1793 0.0
C662 C 0.83878 0.31401 0.13307 0.0
O663 O 0.83458 0.34723 0.06704 0.0
O664 O 0.85269 0.34408 0.09617 0.0
N665 N 0.84087 0.3351 0.28188 0.0
C666 C 0.83188 0.34174 0.30126 0.0
C667 C 0.8337 0.3468 0.34415 0.0
C668 C 0.84467 0.3448 0.36698 0.0
C669 C 0.85378 0.3379 0.34642 0.0
C670 C 0.85146 0.33313 0.30357 0.0
H671 H 0.82341 0.34323 0.28401 0.0
O672 O 0.8394 0.35702 0.16094 0.0
O673 O 0.84472 0.3394 0.1894 0.0
O674 O 0.82011 0.33942 0.1557 0.0
O675 O 0.82301 0.32878 0.21958 0.0
C676 C 0.86515 0.33572 0.36642 0.0
C677 C 0.87413 0.32927 0.3426 0.0
H678 H 0.88933 0.31707 0.28544 0.0
H679 H 0.88376 0.31012 0.20857 0.0
H680 H 0.82665 0.35217 0.35969 0.0
H681 H 0.84603 0.34871 0.40008 0.0
H682 H 0.86717 0.33912 0.39982 0.0
H683 H 0.88293 0.3279 0.35792 0.0
Mn684 Mn 0.91324 0.58638 0.37306 0.0
Mn685 Mn 0.9279 0.58937 0.47247 0.0
C686 C 0.90277 0.59255 0.43664 0.0
C687 C 0.90685 0.59523 0.30514 0.0
C688 C 0.9205 0.56503 0.43292 0.0
O689 O 0.93111 0.58633 0.35458 0.0
O690 O 0.93965 0.59048 0.42196 0.0
C691 C 0.93574 0.61489 0.46379 0.0
N692 N 0.92987 0.60609 0.4873 0.0
C693 C 0.9249 0.62001 0.5469 0.0
C694 C 0.93103 0.62919 0.5236 0.0
C695 C 0.93643 0.62663 0.48177 0.0
C696 C 0.92456 0.60847 0.5274 0.0
H697 H 0.93981 0.61298 0.43149 0.0
C698 C 0.94028 0.58876 0.3793 0.0
O699 O 0.90769 0.58355 0.30936 0.0
O700 O 0.91027 0.60164 0.33939 0.0
N701 N 0.91765 0.58859 0.52446 0.0
C702 C 0.91135 0.57896 0.54102 0.0
C703 C 0.905 0.58015 0.58179 0.0
C704 C 0.90528 0.59118 0.60533 0.0
C705 C 0.91194 0.60092 0.5879 0.0
C706 C 0.91815 0.59917 0.54724 0.0
H707 H 0.91112 0.57045 0.52319 0.0
O708 O 0.897 0.58809 0.40239 0.0
O709 O 0.91444 0.59343 0.43242 0.0
O710 O 0.91492 0.56904 0.39818 0.0
O711 O 0.926 0.57189 0.46096 0.0
C712 C 0.91241 0.61237 0.60869 0.0
C713 C 0.91887 0.62192 0.58817 0.0
H714 H 0.93152 0.63827 0.53722 0.0
H715 H 0.94108 0.6337 0.46339 0.0
H716 H 0.89987 0.5726 0.59499 0.0
H717 H 0.90027 0.5921 0.63653 0.0
H718 H 0.90764 0.61401 0.64002 0.0
H719 H 0.91897 0.63074 0.60405 0.0
Mn720 Mn 0.66774 0.34064 0.37632 0.0
Mn721 Mn 0.66703 0.3251 0.27818 0.0
C722 C 0.66097 0.34991 0.31117 0.0
C723 C 0.65833 0.34712 0.44304 0.0
C724 C 0.6899 0.33637 0.31461 0.0
O725 O 0.66907 0.3232 0.39818 0.0
O726 O 0.66974 0.31412 0.33032 0.0
C727 C 0.6442 0.31196 0.29683 0.0
N728 N 0.65091 0.31924 0.2695 0.0
C729 C 0.63518 0.31961 0.21343 0.0
C730 C 0.62812 0.31205 0.24084 0.0
C731 C 0.63263 0.30826 0.28281 0.0
C732 C 0.64661 0.32306 0.22931 0.0
H733 H 0.64764 0.30898 0.32902 0.0
C734 C 0.67017 0.31383 0.37343 0.0
O735 O 0.67005 0.34714 0.43898 0.0
O736 O 0.65222 0.34288 0.40928 0.0
N737 N 0.66445 0.33417 0.22407 0.0
C738 C 0.67217 0.34185 0.20252 0.0
C739 C 0.66897 0.34658 0.16024 0.0
C740 C 0.65795 0.34323 0.14023 0.0
C741 C 0.65017 0.33525 0.16288 0.0
C742 C 0.65386 0.33081 0.20491 0.0
H743 H 0.68064 0.34445 0.21774 0.0
O744 O 0.66496 0.35628 0.3447 0.0
O745 O 0.6609 0.33821 0.31661 0.0
O746 O 0.68539 0.34 0.35211 0.0
O747 O 0.68371 0.33106 0.28409 0.0
C748 C 0.63883 0.33165 0.14569 0.0
C749 C 0.63131 0.32391 0.17109 0.0
H750 H 0.6192 0.30916 0.2301 0.0
H751 H 0.62722 0.30246 0.30423 0.0
H752 H 0.67499 0.35278 0.14309 0.0
H753 H 0.65552 0.3469 0.10761 0.0
H754 H 0.63575 0.33488 0.1132 0.0
H755 H 0.62254 0.32134 0.1578 0.0
Mn756 Mn 0.91244 0.41784 0.62538 0.0
Mn757 Mn 0.92567 0.41469 0.52335 0.0
C758 C 0.90101 0.41205 0.5635 0.0
C759 C 0.90668 0.40889 0.69395 0.0
C760 C 0.91944 0.43913 0.56479 0.0
O761 O 0.93055 0.41735 0.64075 0.0
O762 O 0.93802 0.41324 0.57162 0.0
C763 C 0.93299 0.38898 0.53028 0.0
N764 N 0.92702 0.39795 0.50798 0.0
C765 C 0.92084 0.38419 0.44945 0.0
C766 C 0.92706 0.37484 0.47147 0.0
C767 C 0.93312 0.37724 0.51216 0.0
C768 C 0.92107 0.39572 0.46902 0.0
H769 H 0.93756 0.39077 0.56173 0.0
C770 C 0.9393 0.41478 0.61418 0.0
O771 O 0.90769 0.42058 0.69011 0.0
O772 O 0.90955 0.40255 0.65889 0.0
N773 N 0.91476 0.41579 0.47334 0.0
C774 C 0.90853 0.4256 0.45795 0.0
C775 C 0.90161 0.42461 0.41841 0.0
C776 C 0.90125 0.41358 0.39487 0.0
C777 C 0.90784 0.40364 0.41108 0.0
C778 C 0.91464 0.40519 0.45051 0.0
H779 H 0.90879 0.43411 0.47579 0.0
O780 O 0.89579 0.41659 0.59879 0.0
O781 O 0.91269 0.4109 0.56572 0.0
O782 O 0.91425 0.4352 0.6005 0.0
O783 O 0.92434 0.43219 0.53553 0.0
C784 C 0.9077 0.39219 0.3902 0.0
C785 C 0.91418 0.38246 0.40943 0.0
H786 H 0.92712 0.36576 0.45775 0.0
H787 H 0.93784 0.37004 0.52957 0.0
H788 H 0.89654 0.43231 0.40614 0.0
H789 H 0.89582 0.41282 0.3646 0.0
H790 H 0.90247 0.3907 0.35982 0.0
H791 H 0.91383 0.37365 0.39353 0.0
Mn792 Mn 0.83642 0.66158 0.87018 0.0
Mn793 Mn 0.83771 0.67607 0.76998 0.0
C794 C 0.84363 0.65168 0.80682 0.0
C795 C 0.8454 0.65553 0.9383 0.0
C796 C 0.81466 0.66515 0.80589 0.0
O797 O 0.835 0.67925 0.88972 0.0
O798 O 0.83447 0.68746 0.82029 0.0
C799 C 0.86025 0.68965 0.78929 0.0
N800 N 0.85381 0.68205 0.76221 0.0
C801 C 0.86985 0.68155 0.7074 0.0
C802 C 0.87664 0.68942 0.73458 0.0
C803 C 0.87184 0.69343 0.77581 0.0
C804 C 0.85841 0.67801 0.72279 0.0
H805 H 0.85657 0.69281 0.82087 0.0
C806 C 0.83383 0.68826 0.86324 0.0
O807 O 0.83371 0.65561 0.93336 0.0
O808 O 0.85173 0.65952 0.9047 0.0
N809 N 0.84079 0.66657 0.71731 0.0
C810 C 0.83329 0.65863 0.69592 0.0
C811 C 0.83678 0.6537 0.65429 0.0
C812 C 0.84783 0.65713 0.6347 0.0
C813 C 0.85538 0.66535 0.65723 0.0
C814 C 0.85142 0.66997 0.69863 0.0
H815 H 0.82478 0.65601 0.71075 0.0
O816 O 0.83935 0.64564 0.84069 0.0
O817 O 0.84367 0.66342 0.81076 0.0
O818 O 0.8189 0.66206 0.84447 0.0
O819 O 0.82107 0.67 0.77493 0.0
C820 C 0.86674 0.66905 0.64048 0.0
C821 C 0.87401 0.67706 0.66573 0.0
H822 H 0.88556 0.6924 0.72421 0.0
H823 H 0.87703 0.69947 0.79704 0.0
H824 H 0.83093 0.64731 0.63724 0.0
H825 H 0.85046 0.65333 0.60251 0.0
H826 H 0.87002 0.66569 0.60845 0.0
H827 H 0.88279 0.67971 0.65279 0.0
Mn828 Mn 0.59104 0.58586 0.12065 0.0
Mn829 Mn 0.5762 0.58692 0.02106 0.0
C830 C 0.60086 0.59254 0.05632 0.0
C831 C 0.59739 0.5951 0.18797 0.0
C832 C 0.58686 0.56385 0.05815 0.0
O833 O 0.57341 0.58479 0.14099 0.0
O834 O 0.5649 0.58425 0.07213 0.0
C835 C 0.56323 0.60987 0.03912 0.0
N836 N 0.57056 0.60309 0.01221 0.0
C837 C 0.57122 0.61878 0.95601 0.0
C838 C 0.56362 0.62591 0.983 0.0
C839 C 0.55966 0.62146 0.02484 0.0
C840 C 0.57457 0.60736 0.97221 0.0
H841 H 0.5601 0.60646 0.07117 0.0
C842 C 0.56424 0.58376 0.11515 0.0
O843 O 0.59714 0.58339 0.18382 0.0
O844 O 0.59342 0.60131 0.15403 0.0
N845 N 0.58558 0.58945 0.96768 0.0
C846 C 0.59326 0.58164 0.94653 0.0
C847 C 0.5981 0.58474 0.90434 0.0
C848 C 0.59485 0.59575 0.88397 0.0
C849 C 0.5869 0.60363 0.90627 0.0
C850 C 0.58235 0.60003 0.94824 0.0
H851 H 0.59576 0.57317 0.96197 0.0
O852 O 0.60694 0.5884 0.09033 0.0
O853 O 0.58913 0.59281 0.06076 0.0
O854 O 0.59024 0.56823 0.09617 0.0
O855 O 0.58192 0.57017 0.02716 0.0
C856 C 0.58339 0.61495 0.88873 0.0
C857 C 0.57565 0.62257 0.91375 0.0
H858 H 0.56081 0.63482 0.97201 0.0
H859 H 0.55382 0.62692 0.04593 0.0
H860 H 0.60429 0.57865 0.88747 0.0
H861 H 0.59859 0.59808 0.85135 0.0
H862 H 0.58671 0.61796 0.85624 0.0
H863 H 0.57316 0.63132 0.90019 0.0
Mn864 Mn 0.33601 0.34066 0.38715 0.0
Mn865 Mn 0.3379 0.32658 0.28636 0.0
C866 C 0.34189 0.35141 0.32382 0.0
C867 C 0.34535 0.34642 0.4548 0.0
C868 C 0.31408 0.33385 0.33012 0.0
O869 O 0.33583 0.32262 0.4039 0.0
O870 O 0.33967 0.31452 0.33549 0.0
C871 C 0.36351 0.31873 0.28957 0.0
N872 N 0.35441 0.32477 0.26833 0.0
C873 C 0.36757 0.33032 0.20707 0.0
C874 C 0.37705 0.32401 0.22798 0.0
C875 C 0.37502 0.31824 0.2695 0.0
C876 C 0.35628 0.33044 0.22855 0.0
H877 H 0.36201 0.31439 0.32168 0.0
C878 C 0.33819 0.31361 0.37823 0.0
O879 O 0.33363 0.34579 0.45144 0.0
O880 O 0.35154 0.34317 0.41974 0.0
N881 N 0.33644 0.33726 0.23579 0.0
C882 C 0.32663 0.34374 0.22188 0.0
C883 C 0.32733 0.35052 0.18191 0.0
C884 C 0.33806 0.35049 0.15648 0.0
C885 C 0.348 0.34366 0.17125 0.0
C886 C 0.34675 0.33702 0.21121 0.0
H887 H 0.31835 0.34379 0.2412 0.0
O888 O 0.33783 0.35706 0.35901 0.0
O889 O 0.34253 0.33971 0.32701 0.0
O890 O 0.3185 0.33953 0.36384 0.0
O891 O 0.32053 0.32823 0.30111 0.0
C892 C 0.35919 0.34342 0.14847 0.0
C893 C 0.36897 0.33677 0.16639 0.0
H894 H 0.38596 0.32368 0.21278 0.0
H895 H 0.38232 0.31345 0.28607 0.0
H896 H 0.31963 0.35578 0.17079 0.0
H897 H 0.3386 0.35582 0.12591 0.0
H898 H 0.36044 0.34851 0.11761 0.0
H899 H 0.3776 0.33684 0.14903 0.0
Mn900 Mn 0.41259 0.58798 0.11624 0.0
Mn901 Mn 0.42714 0.58868 0.01599 0.0
C902 C 0.40268 0.59479 0.05243 0.0
C903 C 0.40673 0.59716 0.18404 0.0
C904 C 0.41626 0.56584 0.05412 0.0
O905 O 0.43027 0.58655 0.13563 0.0
O906 O 0.43866 0.58608 0.06654 0.0
C907 C 0.44038 0.61158 0.03224 0.0
N908 N 0.43283 0.6048 0.00616 0.0
C909 C 0.43181 0.62043 0.94983 0.0
C910 C 0.43962 0.62756 0.97595 0.0
C911 C 0.44387 0.62314 0.01744 0.0
C912 C 0.42857 0.60903 0.96648 0.0
H913 H 0.44371 0.6082 0.06403 0.0
C914 C 0.43939 0.58554 0.10956 0.0
O915 O 0.40673 0.58546 0.17948 0.0
O916 O 0.41066 0.60341 0.15008 0.0
N917 N 0.4175 0.59113 0.96321 0.0
C918 C 0.4097 0.58329 0.94284 0.0
C919 C 0.40451 0.5864 0.90122 0.0
C920 C 0.40756 0.59742 0.88057 0.0
C921 C 0.41572 0.60529 0.90191 0.0
C922 C 0.42059 0.6017 0.94338 0.0
H923 H 0.4074 0.57476 0.9584 0.0
O924 O 0.39665 0.59082 0.08684 0.0
O925 O 0.41443 0.59484 0.05624 0.0
O926 O 0.41292 0.5704 0.09184 0.0
O927 O 0.42136 0.57197 0.02299 0.0
C928 C 0.4191 0.6166 0.88394 0.0
C929 C 0.42706 0.62421 0.90804 0.0
H930 H 0.44237 0.63647 0.96459 0.0
H931 H 0.44988 0.62861 0.03787 0.0
H932 H 0.39821 0.5803 0.885 0.0
H933 H 0.40354 0.59978 0.84845 0.0
H934 H 0.41554 0.6196 0.85181 0.0
H935 H 0.42946 0.63295 0.89416 0.0
Mn936 Mn 0.16673 0.6626 0.87493 0.0
Mn937 Mn 0.16429 0.67912 0.77962 0.0
C938 C 0.15995 0.65349 0.80908 0.0
C939 C 0.1581 0.65571 0.9424 0.0
C940 C 0.18828 0.67012 0.81728 0.0
O941 O 0.16783 0.68017 0.89747 0.0
O942 O 0.16318 0.68989 0.83284 0.0
C943 C 0.13888 0.68728 0.78892 0.0
N944 N 0.14773 0.68185 0.76422 0.0
C945 C 0.13435 0.67939 0.70092 0.0
C946 C 0.12515 0.68517 0.72534 0.0
C947 C 0.1274 0.68904 0.76969 0.0
C948 C 0.14559 0.67785 0.72194 0.0
H949 H 0.14057 0.69018 0.82306 0.0
C950 C 0.16527 0.68977 0.87529 0.0
O951 O 0.16976 0.65588 0.93664 0.0
O952 O 0.15153 0.65994 0.90979 0.0
N953 N 0.16508 0.6699 0.72511 0.0
C954 C 0.17455 0.66349 0.70784 0.0
C955 C 0.17352 0.65833 0.66473 0.0
C956 C 0.16289 0.66001 0.63951 0.0
C957 C 0.15332 0.66675 0.65783 0.0
C958 C 0.15481 0.67157 0.7011 0.0
H959 H 0.1828 0.6623 0.72681 0.0
O960 O 0.16405 0.647 0.84211 0.0
O961 O 0.15961 0.6651 0.81599 0.0
O962 O 0.184 0.66365 0.84921 0.0
O963 O 0.18174 0.67669 0.79155 0.0
C964 C 0.1423 0.66875 0.6351 0.0
C965 C 0.13277 0.67494 0.6568 0.0
H966 H 0.11628 0.68655 0.71061 0.0
H967 H 0.1203 0.69338 0.78897 0.0
H968 H 0.18095 0.65314 0.65085 0.0
H969 H 0.16213 0.65602 0.60628 0.0
H970 H 0.14098 0.66535 0.6012 0.0
H971 H 0.12423 0.67613 0.63942 0.0
Mn972 Mn 0.09208 0.41596 0.62492 0.0
Mn973 Mn 0.07913 0.41335 0.52219 0.0
C974 C 0.10353 0.40975 0.56372 0.0
C975 C 0.09728 0.40703 0.69396 0.0
C976 C 0.08609 0.4375 0.56412 0.0
O977 O 0.07392 0.41609 0.63931 0.0
O978 O 0.06654 0.41232 0.56979 0.0
C979 C 0.07083 0.38792 0.52845 0.0
N980 N 0.07723 0.39667 0.50662 0.0
C981 C 0.08321 0.38271 0.44847 0.0
C982 C 0.07655 0.37358 0.47002 0.0
C983 C 0.07037 0.37619 0.51029 0.0
C984 C 0.08329 0.39424 0.46806 0.0
H985 H 0.06617 0.38987 0.55959 0.0
C986 C 0.06517 0.41386 0.61232 0.0
O987 O 0.0966 0.41872 0.68968 0.0
O988 O 0.09437 0.40065 0.65898 0.0
N989 N 0.09029 0.41406 0.47285 0.0
C990 C 0.09695 0.42364 0.45795 0.0
C991 C 0.10403 0.4224 0.41889 0.0
C992 C 0.10411 0.41137 0.39534 0.0
C993 C 0.09709 0.40168 0.41106 0.0
C994 C 0.09015 0.40347 0.45001 0.0
H995 H 0.09691 0.43216 0.4758 0.0
O996 O 0.10876 0.41413 0.59926 0.0
O997 O 0.09181 0.40901 0.56525 0.0
O998 O 0.091 0.43333 0.59996 0.0
O999 O 0.08103 0.43081 0.53449 0.0
C1000 C 0.09692 0.39023 0.39017 0.0
C1001 C 0.09 0.38074 0.40891 0.0
H1002 H 0.07623 0.36451 0.45627 0.0
H1003 H 0.06531 0.36917 0.52733 0.0
H1004 H 0.10943 0.42992 0.40701 0.0
H1005 H 0.10966 0.41042 0.36546 0.0
H1006 H 0.10225 0.38855 0.36015 0.0
H1007 H 0.09011 0.37192 0.39301 0.0
Mn1008 Mn 0.33486 0.66196 0.61891 0.0
Mn1009 Mn 0.33649 0.6766 0.71857 0.0
C1010 C 0.34097 0.65164 0.68289 0.0
C1011 C 0.34437 0.65625 0.55153 0.0
C1012 C 0.3128 0.66879 0.67497 0.0
O1013 O 0.33424 0.67989 0.60115 0.0
O1014 O 0.33826 0.68845 0.66868 0.0
C1015 C 0.36201 0.68476 0.71576 0.0
N1016 N 0.35294 0.67866 0.73699 0.0
C1017 C 0.36603 0.6735 0.79892 0.0
C1018 C 0.37548 0.67985 0.77799 0.0
C1019 C 0.37346 0.68546 0.73614 0.0
C1020 C 0.35479 0.67317 0.77713 0.0
H1021 H 0.36052 0.68899 0.68344 0.0
C1022 C 0.33662 0.68906 0.62595 0.0
O1023 O 0.33264 0.65652 0.55489 0.0
O1024 O 0.35045 0.65975 0.58652 0.0
N1025 N 0.33504 0.66612 0.7697 0.0
C1026 C 0.32528 0.65956 0.78362 0.0
C1027 C 0.32598 0.65291 0.8239 0.0
C1028 C 0.33666 0.65316 0.84961 0.0
C1029 C 0.34654 0.66005 0.83481 0.0
C1030 C 0.34529 0.66655 0.79453 0.0
H1031 H 0.31704 0.65934 0.76406 0.0
O1032 O 0.33707 0.64573 0.64803 0.0
O1033 O 0.34134 0.66333 0.67892 0.0
O1034 O 0.31733 0.66282 0.64214 0.0
O1035 O 0.31915 0.67474 0.70337 0.0
C1036 C 0.35768 0.6605 0.8579 0.0
C1037 C 0.36743 0.66721 0.83995 0.0
H1038 H 0.38435 0.68035 0.79343 0.0
H1039 H 0.38074 0.69029 0.71958 0.0
H1040 H 0.31832 0.64759 0.83504 0.0
H1041 H 0.3372 0.64792 0.88043 0.0
H1042 H 0.35893 0.65553 0.88902 0.0
H1043 H 0.37602 0.6673 0.85755 0.0
Mn1044 Mn 0.09209 0.58515 0.37643 0.0
Mn1045 Mn 0.07741 0.58765 0.47619 0.0
C1046 C 0.10208 0.59268 0.43895 0.0
C1047 C 0.09792 0.59345 0.307 0.0
C1048 C 0.08718 0.56384 0.44088 0.0
O1049 O 0.07434 0.58377 0.35767 0.0
O1050 O 0.06564 0.58582 0.42604 0.0
C1051 C 0.06593 0.61147 0.45998 0.0
N1052 N 0.07305 0.60418 0.48582 0.0
C1053 C 0.07599 0.61999 0.54054 0.0
C1054 C 0.06862 0.62764 0.51466 0.0
C1055 C 0.0636 0.62337 0.47415 0.0
C1056 C 0.07798 0.60822 0.52474 0.0
H1057 H 0.06207 0.60821 0.42881 0.0
C1058 C 0.06506 0.58428 0.3833 0.0
O1059 O 0.09796 0.58183 0.3137 0.0
O1060 O 0.09405 0.60015 0.33982 0.0
N1061 N 0.08748 0.58945 0.52824 0.0
C1062 C 0.09482 0.5811 0.54819 0.0
C1063 C 0.10077 0.58404 0.58856 0.0
C1064 C 0.09899 0.59545 0.60833 0.0
C1065 C 0.09123 0.60382 0.58761 0.0
C1066 C 0.0855 0.60036 0.54751 0.0
H1067 H 0.09617 0.57229 0.53324 0.0
O1068 O 0.1081 0.58823 0.40533 0.0
O1069 O 0.09034 0.59275 0.43499 0.0
O1070 O 0.09158 0.56792 0.40393 0.0
O1071 O 0.08176 0.57051 0.46967 0.0
C1072 C 0.08918 0.61555 0.60459 0.0
C1073 C 0.08159 0.62364 0.581 0.0
H1074 H 0.06682 0.63684 0.5254 0.0
H1075 H 0.05794 0.62924 0.4539 0.0
H1076 H 0.10674 0.57753 0.60436 0.0
H1077 H 0.1037 0.59773 0.63923 0.0
H1078 H 0.09355 0.61851 0.63538 0.0
H1079 H 0.08022 0.63269 0.59406 0.0
Mn1080 Mn 0.16758 0.34024 0.12863 0.0
Mn1081 Mn 0.16695 0.32389 0.22513 0.0
C1082 C 0.16168 0.34929 0.19536 0.0
C1083 C 0.15801 0.34723 0.06307 0.0
C1084 C 0.19003 0.33405 0.18565 0.0
O1085 O 0.16833 0.32283 0.10538 0.0
O1086 O 0.16783 0.31304 0.172 0.0
C1087 C 0.14282 0.3128 0.21184 0.0
N1088 N 0.1506 0.31939 0.23763 0.0
C1089 C 0.13601 0.32086 0.29758 0.0
C1090 C 0.12786 0.31402 0.27178 0.0
C1091 C 0.13126 0.31003 0.22864 0.0
C1092 C 0.14738 0.32339 0.27896 0.0
H1093 H 0.14544 0.30967 0.17875 0.0
C1094 C 0.16843 0.31316 0.12894 0.0
O1095 O 0.16974 0.3469 0.06631 0.0
O1096 O 0.15193 0.34308 0.09709 0.0
N1097 N 0.16615 0.33294 0.27999 0.0
C1098 C 0.17488 0.33988 0.29963 0.0
C1099 C 0.17279 0.34486 0.34248 0.0
C1100 C 0.16186 0.34245 0.36505 0.0
C1101 C 0.15311 0.33511 0.34446 0.0
C1102 C 0.15568 0.33044 0.30165 0.0
H1103 H 0.18334 0.34164 0.2826 0.0
O1104 O 0.16544 0.35577 0.16172 0.0
O1105 O 0.16123 0.33764 0.18886 0.0
O1106 O 0.1853 0.33911 0.15106 0.0
O1107 O 0.184 0.32822 0.21525 0.0
C1108 C 0.14186 0.33237 0.36445 0.0
C1109 C 0.13328 0.32533 0.34089 0.0
H1110 H 0.11894 0.31184 0.28466 0.0
H1111 H 0.12501 0.30478 0.20846 0.0
H1112 H 0.17959 0.35051 0.35817 0.0
H1113 H 0.16028 0.34633 0.39806 0.0
H1114 H 0.13965 0.33572 0.39775 0.0
H1115 H 0.1246 0.32344 0.35633 0.0
Mn1116 Mn 0.41197 0.41638 0.89001 0.0
Mn1117 Mn 0.42691 0.4155 0.98941 0.0
C1118 C 0.40223 0.40967 0.95435 0.0
C1119 C 0.4058 0.40714 0.82264 0.0
C1120 C 0.41612 0.43847 0.95191 0.0
O1121 O 0.42958 0.41755 0.86972 0.0
O1122 O 0.43828 0.41797 0.9383 0.0
C1123 C 0.43985 0.39246 0.97248 0.0
N1124 N 0.43248 0.39933 0.99896 0.0
C1125 C 0.43156 0.38373 0.05544 0.0
C1126 C 0.4392 0.37652 0.0289 0.0
C1127 C 0.44332 0.38089 0.98714 0.0
C1128 C 0.42835 0.39515 0.03892 0.0
H1129 H 0.44308 0.39581 0.94047 0.0
C1130 C 0.43883 0.41847 0.89524 0.0
O1131 O 0.40593 0.41885 0.82689 0.0
O1132 O 0.40975 0.40093 0.85662 0.0
N1133 N 0.41743 0.41314 0.04268 0.0
C1134 C 0.40972 0.42101 0.06329 0.0
C1135 C 0.40465 0.41794 0.10518 0.0
C1136 C 0.40774 0.40692 0.1258 0.0
C1137 C 0.41578 0.39901 0.10413 0.0
C1138 C 0.42053 0.40255 0.06241 0.0
H1139 H 0.40736 0.4295 0.04768 0.0
O1140 O 0.39611 0.41374 0.92029 0.0
O1141 O 0.41397 0.4095 0.94988 0.0
O1142 O 0.41259 0.43399 0.91427 0.0
O1143 O 0.42127 0.43225 0.98269 0.0
C1144 C 0.41915 0.38768 0.12199 0.0
C1145 C 0.42696 0.38 0.09751 0.0
H1146 H 0.44193 0.36759 0.04016 0.0
H1147 H 0.44918 0.37536 0.9664 0.0
H1148 H 0.39842 0.42407 0.1216 0.0
H1149 H 0.40381 0.4046 0.15812 0.0
H1150 H 0.41569 0.38471 0.15432 0.0
H1151 H 0.42935 0.37125 0.1113 0.0
C1152 C 0.29411 0.15733 0.3238 0.0
C1153 C 0.30074 0.16809 0.31885 0.0
C1154 C 0.28219 0.15654 0.30771 0.0
C1155 C 0.26119 0.17243 0.22804 0.0
H1156 H 0.23667 0.15227 0.2838 0.0
C1157 C 0.20981 0.17788 0.20066 0.0
C1158 C 0.20327 0.1675 0.18837 0.0
C1159 C 0.22199 0.17704 0.21278 0.0
C1160 C 0.2435 0.15782 0.26764 0.0
H1161 H 0.29991 0.18666 0.29579 0.0
H1162 H 0.27903 0.18559 0.27042 0.0
H1163 H 0.25706 0.15295 0.31594 0.0
H1164 H 0.20423 0.14809 0.17913 0.0
H1165 H 0.22565 0.14654 0.2019 0.0
H1166 H 0.24738 0.17775 0.18125 0.0
C1167 C 0.28309 0.17752 0.2846 0.0
C1168 C 0.2552 0.15821 0.28596 0.0
C1169 C 0.29504 0.17822 0.29974 0.0
C1170 C 0.20916 0.15623 0.18788 0.0
C1171 C 0.22133 0.15534 0.20123 0.0
C1172 C 0.24947 0.1722 0.21037 0.0
C1173 C 0.27658 0.16657 0.28698 0.0
C1174 C 0.26419 0.16566 0.26677 0.0
C1175 C 0.22781 0.16575 0.21402 0.0
C1176 C 0.24049 0.16499 0.2302 0.0
H1177 H 0.29835 0.14934 0.33789 0.0
H1178 H 0.27757 0.14792 0.30996 0.0
H1179 H 0.26789 0.17798 0.21123 0.0
H1180 H 0.20543 0.18665 0.20154 0.0
H1181 H 0.22677 0.18518 0.22272 0.0
C1182 C 0.09037 0.9603 0.42103 0.0
C1183 C 0.08823 0.95154 0.45445 0.0
C1184 C 0.09142 0.97258 0.43266 0.0
C1185 C 0.08386 0.99381 0.52668 0.0
H1186 H 0.10478 0.01591 0.46171 0.0
C1187 C 0.0911 0.04368 0.5822 0.0
C1188 C 0.08938 0.05222 0.5476 0.0
C1189 C 0.09201 0.03131 0.57204 0.0
C1190 C 0.0989 0.00982 0.48016 0.0
H1191 H 0.08606 0.94884 0.52656 0.0
H1192 H 0.08843 0.96986 0.54667 0.0
H1193 H 0.10438 0.99452 0.44079 0.0
H1194 H 0.08763 0.05436 0.47503 0.0
H1195 H 0.08943 0.03299 0.45767 0.0
H1196 H 0.0785 0.00912 0.56628 0.0
C1197 C 0.08883 0.96745 0.51132 0.0
C1198 C 0.0986 0.99758 0.46797 0.0
C1199 C 0.08758 0.9553 0.49971 0.0
C1200 C 0.08893 0.0481 0.50268 0.0
C1201 C 0.09004 0.03582 0.49256 0.0
C1202 C 0.08429 0.006 0.5392 0.0
C1203 C 0.09052 0.97633 0.47802 0.0
C1204 C 0.09103 0.9894 0.49093 0.0
C1205 C 0.09145 0.02727 0.52707 0.0
C1206 C 0.09174 0.01416 0.51588 0.0
H1207 H 0.09088 0.95772 0.38586 0.0
H1208 H 0.09262 0.97915 0.40595 0.0
H1209 H 0.07769 0.98791 0.54458 0.0
H1210 H 0.09146 0.04653 0.61711 0.0
H1211 H 0.09314 0.02489 0.59933 0.0
C1212 C 0.20495 0.833 0.75937 0.0
C1213 C 0.20101 0.83561 0.80351 0.0
C1214 C 0.21711 0.83418 0.74743 0.0
C1215 C 0.24754 0.83286 0.79299 0.0
H1216 H 0.25693 0.84988 0.68403 0.0
C1217 C 0.29765 0.83875 0.74893 0.0
C1218 C 0.3013 0.83801 0.7036 0.0
C1219 C 0.28546 0.83957 0.76045 0.0
C1220 C 0.25448 0.84495 0.71422 0.0
H1221 H 0.20694 0.84141 0.86977 0.0
H1222 H 0.22837 0.84312 0.84902 0.0
H1223 H 0.23563 0.84914 0.70617 0.0
H1224 H 0.2949 0.8378 0.63463 0.0
H1225 H 0.2734 0.83872 0.65473 0.0
H1226 H 0.26616 0.82816 0.80041 0.0
C1227 C 0.22189 0.8403 0.8237 0.0
C1228 C 0.24227 0.84461 0.72704 0.0
C1229 C 0.20963 0.83933 0.83554 0.0
C1230 C 0.29239 0.83841 0.66985 0.0
C1231 C 0.28006 0.83898 0.68147 0.0
C1232 C 0.25969 0.83304 0.77986 0.0
C1233 C 0.22572 0.83779 0.77942 0.0
C1234 C 0.2387 0.83858 0.76662 0.0
C1235 C 0.27643 0.83936 0.72709 0.0
C1236 C 0.26337 0.83914 0.74041 0.0
H1237 H 0.19862 0.83011 0.73366 0.0
H1238 H 0.21982 0.83204 0.71324 0.0
H1239 H 0.24502 0.82797 0.82321 0.0
H1240 H 0.30423 0.83856 0.77592 0.0
H1241 H 0.28313 0.84025 0.79581 0.0
C1242 C 0.41386 0.04702 0.00644 0.0
C1243 C 0.41452 0.05089 0.96134 0.0
C1244 C 0.41319 0.03475 0.01714 0.0
C1245 C 0.40795 0.004 0.96884 0.0
H1246 H 0.42518 0.99405 0.0767 0.0
C1247 C 0.4199 0.95423 0.01013 0.0
C1248 C 0.41751 0.95011 0.05419 0.0
C1249 C 0.41872 0.96646 0.99906 0.0
C1250 C 0.42021 0.99671 0.04678 0.0
H1251 H 0.41475 0.04482 0.89195 0.0
H1252 H 0.41407 0.02323 0.91061 0.0
H1253 H 0.42483 0.0153 0.05546 0.0
H1254 H 0.41209 0.95575 0.12123 0.0
H1255 H 0.41034 0.97727 0.10197 0.0
H1256 H 0.40381 0.98518 0.95955 0.0
C1257 C 0.41377 0.02975 0.9378 0.0
C1258 C 0.41996 0.00892 0.03456 0.0
C1259 C 0.4142 0.04213 0.927 0.0
C1260 C 0.414 0.95859 0.08702 0.0
C1261 C 0.41301 0.97091 0.07604 0.0
C1262 C 0.40837 0.99173 0.98077 0.0
C1263 C 0.41345 0.0259 0.98315 0.0
C1264 C 0.41377 0.01278 0.99553 0.0
C1265 C 0.41531 0.97494 0.03185 0.0
C1266 C 0.41448 0.98797 0.01993 0.0
H1267 H 0.41397 0.05347 0.03386 0.0
H1268 H 0.41257 0.03224 0.05234 0.0
H1269 H 0.40295 0.00658 0.93896 0.0
H1270 H 0.42262 0.94801 0.98382 0.0
H1271 H 0.42069 0.96931 0.9649 0.0
C1272 C 0.79309 0.84035 0.82691 0.0
C1273 C 0.80191 0.84043 0.79276 0.0
C1274 C 0.78073 0.84078 0.81588 0.0
C1275 C 0.76009 0.83512 0.71825 0.0
H1276 H 0.73611 0.85051 0.79439 0.0
C1277 C 0.70961 0.84052 0.66629 0.0
C1278 C 0.70115 0.83701 0.69923 0.0
C1279 C 0.72194 0.84153 0.67715 0.0
C1280 C 0.74273 0.84615 0.77286 0.0
H1281 H 0.80462 0.8417 0.72045 0.0
H1282 H 0.78338 0.84304 0.70161 0.0
H1283 H 0.75749 0.8515 0.81522 0.0
H1284 H 0.69913 0.83187 0.76962 0.0
H1285 H 0.72044 0.8338 0.78826 0.0
H1286 H 0.74531 0.82993 0.67564 0.0
C1287 C 0.78585 0.84213 0.73677 0.0
C1288 C 0.75498 0.84666 0.78491 0.0
C1289 C 0.79811 0.84149 0.74768 0.0
C1290 C 0.70533 0.83459 0.74321 0.0
C1291 C 0.71756 0.83578 0.75413 0.0
C1292 C 0.74788 0.83476 0.70595 0.0
C1293 C 0.77695 0.84147 0.7705 0.0
C1294 C 0.76385 0.84111 0.75783 0.0
C1295 C 0.72601 0.83925 0.7213 0.0
C1296 C 0.73905 0.8402 0.73323 0.0
H1297 H 0.79572 0.83947 0.86193 0.0
H1298 H 0.77416 0.84017 0.84285 0.0
H1299 H 0.76656 0.83047 0.69699 0.0
H1300 H 0.70673 0.84245 0.63214 0.0
H1301 H 0.72827 0.84426 0.65116 0.0
C1302 C 0.93009 0.95929 0.44918 0.0
C1303 C 0.91963 0.95344 0.43355 0.0
C1304 C 0.92968 0.97138 0.46288 0.0
C1305 C 0.90999 0.99911 0.46374 0.0
H1306 H 0.93183 0.00836 0.56019 0.0
C1307 C 0.90811 0.04493 0.56279 0.0
C1308 C 0.91874 0.05174 0.55682 0.0
C1309 C 0.9077 0.03275 0.54947 0.0
C1310 C 0.92566 0.00587 0.53334 0.0
H1311 H 0.90054 0.95563 0.41956 0.0
H1312 H 0.8996 0.9766 0.44537 0.0
H1313 H 0.93196 0.98763 0.53244 0.0
H1314 H 0.93735 0.05111 0.53382 0.0
H1315 H 0.93678 0.02971 0.51261 0.0
H1316 H 0.90345 0.01742 0.46641 0.0
C1317 C 0.90828 0.97205 0.44571 0.0
C1318 C 0.92581 0.99401 0.51689 0.0
C1319 C 0.90878 0.96 0.43088 0.0
C1320 C 0.92905 0.04606 0.53889 0.0
C1321 C 0.92874 0.03384 0.52676 0.0
C1322 C 0.90966 0.01091 0.48099 0.0
C1323 C 0.9187 0.97787 0.46268 0.0
C1324 C 0.91813 0.99047 0.48125 0.0
C1325 C 0.91801 0.02714 0.53118 0.0
C1326 C 0.91761 0.01442 0.5155 0.0
H1327 H 0.93861 0.95445 0.45132 0.0
H1328 H 0.93801 0.97556 0.47412 0.0
H1329 H 0.90403 0.99687 0.43599 0.0
H1330 H 0.9 0.04914 0.57602 0.0
H1331 H 0.89934 0.02773 0.55324 0.0
C1332 C 0.70928 0.15639 0.31605 0.0
C1333 C 0.7032 0.16753 0.31326 0.0
C1334 C 0.7215 0.15553 0.30334 0.0
C1335 C 0.74934 0.17263 0.29455 0.0
H1336 H 0.75796 0.15321 0.19051 0.0
C1337 C 0.79518 0.17947 0.20824 0.0
C1338 C 0.80124 0.16943 0.19006 0.0
C1339 C 0.78319 0.1785 0.22265 0.0
C1340 C 0.75581 0.15852 0.2201 0.0
H1341 H 0.70509 0.18653 0.29666 0.0
H1342 H 0.72649 0.18514 0.2765 0.0
H1343 H 0.73738 0.15225 0.22087 0.0
H1344 H 0.79945 0.15054 0.1719 0.0
H1345 H 0.77858 0.14867 0.19853 0.0
H1346 H 0.76765 0.17876 0.29504 0.0
C1347 C 0.72181 0.17705 0.28765 0.0
C1348 C 0.74401 0.15796 0.23739 0.0
C1349 C 0.70959 0.17784 0.29913 0.0
C1350 C 0.79494 0.15846 0.1853 0.0
C1351 C 0.78296 0.15741 0.20064 0.0
C1352 C 0.76117 0.17302 0.27792 0.0
C1353 C 0.72784 0.16588 0.28896 0.0
C1354 C 0.74063 0.1652 0.27419 0.0
C1355 C 0.777 0.16737 0.22041 0.0
C1356 C 0.76453 0.16622 0.23972 0.0
H1357 H 0.70449 0.1483 0.32641 0.0
H1358 H 0.726 0.14683 0.30464 0.0
H1359 H 0.74696 0.17824 0.32317 0.0
H1360 H 0.7998 0.18806 0.21199 0.0
H1361 H 0.77884 0.1865 0.2361 0.0
C1362 C 0.58985 0.04586 0.92684 0.0
C1363 C 0.58668 0.05457 0.95932 0.0
C1364 C 0.59065 0.03359 0.93856 0.0
C1365 C 0.59528 0.01297 0.03444 0.0
H1366 H 0.57813 0.98959 0.961 0.0
C1367 C 0.58936 0.96245 0.08761 0.0
C1368 C 0.58885 0.95379 0.05296 0.0
C1369 C 0.58979 0.97486 0.07725 0.0
C1370 C 0.58319 0.99592 0.98156 0.0
H1371 H 0.58202 0.05713 0.02988 0.0
H1372 H 0.58363 0.03586 0.05014 0.0
H1373 H 0.57796 0.01084 0.9397 0.0
H1374 H 0.58907 0.95142 0.98033 0.0
H1375 H 0.59046 0.97267 0.96257 0.0
H1376 H 0.60071 0.99804 0.0759 0.0
C1377 C 0.58547 0.03852 0.01566 0.0
C1378 C 0.58303 0.00813 0.96931 0.0
C1379 C 0.58448 0.05072 0.00385 0.0
C1380 C 0.58933 0.95779 0.00799 0.0
C1381 C 0.58999 0.97007 0.99771 0.0
C1382 C 0.59559 1.0007 0.0464 0.0
C1383 C 0.58849 0.02981 0.98315 0.0
C1384 C 0.58905 0.01679 0.99561 0.0
C1385 C 0.5899 0.97884 0.03202 0.0
C1386 C 0.58956 0.99198 0.02005 0.0
H1387 H 0.59161 0.04849 0.89228 0.0
H1388 H 0.59304 0.02706 0.91283 0.0
H1389 H 0.60005 0.01946 0.05525 0.0
H1390 H 0.58895 0.95967 0.12259 0.0
H1391 H 0.58964 0.98132 0.10468 0.0
C1392 C 0.70978 0.66326 0.66418 0.0
C1393 C 0.70124 0.66687 0.6967 0.0
C1394 C 0.72207 0.66221 0.67556 0.0
C1395 C 0.74252 0.65764 0.77235 0.0
H1396 H 0.76671 0.67312 0.69749 0.0
C1397 C 0.79271 0.66337 0.82905 0.0
C1398 C 0.80165 0.66326 0.79535 0.0
C1399 C 0.78038 0.66294 0.81739 0.0
C1400 C 0.76014 0.66853 0.71848 0.0
H1401 H 0.69906 0.67216 0.76689 0.0
H1402 H 0.72029 0.67017 0.78639 0.0
H1403 H 0.74554 0.6737 0.67494 0.0
H1404 H 0.80462 0.66191 0.7232 0.0
H1405 H 0.78346 0.66054 0.70331 0.0
H1406 H 0.75709 0.65231 0.81566 0.0
C1407 C 0.7175 0.66814 0.7522 0.0
C1408 C 0.74798 0.66891 0.70548 0.0
C1409 C 0.70531 0.66936 0.74077 0.0
C1410 C 0.79801 0.66214 0.75011 0.0
C1411 C 0.7858 0.66149 0.73858 0.0
C1412 C 0.75472 0.65711 0.78511 0.0
C1413 C 0.72603 0.66456 0.71983 0.0
C1414 C 0.73902 0.66354 0.73239 0.0
C1415 C 0.77677 0.66221 0.77182 0.0
C1416 C 0.76372 0.66259 0.75842 0.0
H1417 H 0.70698 0.66127 0.62999 0.0
H1418 H 0.72846 0.65941 0.64991 0.0
H1419 H 0.73581 0.65334 0.79363 0.0
H1420 H 0.79521 0.6643 0.86418 0.0
H1421 H 0.77371 0.66359 0.84401 0.0
C1422 C 0.58377 0.45409 0.99758 0.0
C1423 C 0.58612 0.45007 0.95333 0.0
C1424 C 0.58484 0.4663 0.00899 0.0
C1425 C 0.58302 0.49665 0.9621 0.0
H1426 H 0.60027 0.50646 0.07002 0.0
C1427 C 0.58925 0.54693 0.00311 0.0
C1428 C 0.5886 0.55078 0.04824 0.0
C1429 C 0.58992 0.53468 0.99231 0.0
C1430 C 0.59527 0.50389 0.04013 0.0
H1431 H 0.59135 0.45592 0.88633 0.0
H1432 H 0.59292 0.47741 0.90619 0.0
H1433 H 0.59955 0.48509 0.04893 0.0
H1434 H 0.58839 0.54467 0.11758 0.0
H1435 H 0.58911 0.52308 0.09873 0.0
H1436 H 0.57828 0.51524 0.95388 0.0
C1437 C 0.59035 0.47097 0.93201 0.0
C1438 C 0.59493 0.49165 0.02791 0.0
C1439 C 0.58948 0.45867 0.92067 0.0
C1440 C 0.58894 0.542 0.08251 0.0
C1441 C 0.58939 0.52963 0.0716 0.0
C1442 C 0.5832 0.50885 0.97461 0.0
C1443 C 0.5881 0.47489 0.97638 0.0
C1444 C 0.58882 0.48791 0.98868 0.0
C1445 C 0.58969 0.5258 0.02621 0.0
C1446 C 0.5894 0.51268 0.01366 0.0
H1447 H 0.58116 0.44778 0.02378 0.0
H1448 H 0.58291 0.46906 0.04329 0.0
H1449 H 0.57806 0.49402 0.93216 0.0
H1450 H 0.58912 0.55339 0.97573 0.0
H1451 H 0.59054 0.53219 0.95708 0.0
C1452 C 0.70693 0.33864 0.25978 0.0
C1453 C 0.70295 0.33829 0.30486 0.0
C1454 C 0.71921 0.33961 0.24946 0.0
C1455 C 0.74867 0.33115 0.29092 0.0
H1456 H 0.76106 0.3536 0.20156 0.0
C1457 C 0.79942 0.33257 0.24807 0.0
C1458 C 0.80312 0.33528 0.2038 0.0
C1459 C 0.78735 0.33372 0.26105 0.0
C1460 C 0.75775 0.34713 0.22606 0.0
H1461 H 0.70884 0.33882 0.3745 0.0
H1462 H 0.73053 0.34014 0.35626 0.0
H1463 H 0.73985 0.35469 0.22448 0.0
H1464 H 0.79683 0.34123 0.13827 0.0
H1465 H 0.77554 0.34271 0.16032 0.0
H1466 H 0.76624 0.32313 0.29116 0.0
C1467 C 0.72399 0.33983 0.32906 0.0
C1468 C 0.74562 0.34786 0.23951 0.0
C1469 C 0.7116 0.33913 0.33949 0.0
C1470 C 0.79432 0.3391 0.17265 0.0
C1471 C 0.78211 0.34003 0.1855 0.0
C1472 C 0.76073 0.33028 0.27694 0.0
C1473 C 0.72789 0.34001 0.28388 0.0
C1474 C 0.74096 0.33988 0.27208 0.0
C1475 C 0.77845 0.33736 0.23 0.0
C1476 C 0.76549 0.33827 0.24433 0.0
H1477 H 0.70057 0.33799 0.23216 0.0
H1478 H 0.72195 0.3396 0.21439 0.0
H1479 H 0.74526 0.32473 0.31542 0.0
H1480 H 0.80589 0.32969 0.27331 0.0
H1481 H 0.78505 0.33187 0.29586 0.0
C1482 C 0.92598 0.45671 0.51734 0.0
C1483 C 0.91937 0.45232 0.5545 0.0
C1484 C 0.92531 0.46885 0.50465 0.0
C1485 C 0.91731 0.49936 0.54553 0.0
H1486 H 0.9169 0.50686 0.41773 0.0
C1487 C 0.92702 0.54734 0.47992 0.0
C1488 C 0.92016 0.55187 0.44362 0.0
C1489 C 0.92615 0.53524 0.49296 0.0
C1490 C 0.91688 0.50494 0.45353 0.0
H1491 H 0.90701 0.45748 0.60794 0.0
H1492 H 0.90583 0.47879 0.58565 0.0
H1493 H 0.91648 0.48581 0.44235 0.0
H1494 H 0.9071 0.54699 0.39213 0.0
H1495 H 0.90556 0.52576 0.41503 0.0
H1496 H 0.91759 0.5185 0.55671 0.0
C1497 C 0.91159 0.47275 0.5665 0.0
C1498 C 0.91679 0.49286 0.46769 0.0
C1499 C 0.91226 0.46053 0.5793 0.0
C1500 C 0.91257 0.54383 0.42006 0.0
C1501 C 0.91169 0.53166 0.43321 0.0
C1502 C 0.91741 0.51145 0.53136 0.0
C1503 C 0.918 0.47702 0.52861 0.0
C1504 C 0.9172 0.4899 0.51386 0.0
C1505 C 0.91837 0.52725 0.47021 0.0
C1506 C 0.91739 0.5144 0.48516 0.0
H1507 H 0.93164 0.45074 0.49748 0.0
H1508 H 0.9306 0.47185 0.476 0.0
H1509 H 0.91768 0.49744 0.5813 0.0
H1510 H 0.93304 0.55319 0.49882 0.0
H1511 H 0.93164 0.53213 0.52089 0.0
C1512 C 0.2951 0.32421 0.30211 0.0
C1513 C 0.30088 0.33422 0.32191 0.0
C1514 C 0.28293 0.32485 0.28963 0.0
C1515 C 0.26005 0.34528 0.24888 0.0
H1516 H 0.23717 0.32084 0.28789 0.0
C1517 C 0.20912 0.34595 0.19658 0.0
C1518 C 0.2032 0.33476 0.19305 0.0
C1519 C 0.22112 0.34651 0.212 0.0
C1520 C 0.24345 0.32763 0.27586 0.0
H1521 H 0.29848 0.35274 0.34415 0.0
H1522 H 0.27712 0.35395 0.32103 0.0
H1523 H 0.25772 0.32063 0.31732 0.0
H1524 H 0.20521 0.31539 0.20017 0.0
H1525 H 0.22626 0.31621 0.22401 0.0
H1526 H 0.24601 0.35199 0.20579 0.0
C1527 C 0.28204 0.34558 0.31591 0.0
C1528 C 0.2552 0.32756 0.29324 0.0
C1529 C 0.29419 0.34485 0.32948 0.0
C1530 C 0.20961 0.32413 0.20278 0.0
C1531 C 0.22163 0.32465 0.21714 0.0
C1532 C 0.24833 0.34522 0.23074 0.0
C1533 C 0.27634 0.33559 0.29567 0.0
C1534 C 0.26364 0.33632 0.2797 0.0
C1535 C 0.22746 0.33585 0.22351 0.0
C1536 C 0.23989 0.3363 0.24358 0.0
H1537 H 0.30005 0.31592 0.29575 0.0
H1538 H 0.27875 0.31704 0.27392 0.0
H1539 H 0.26645 0.35207 0.23764 0.0
H1540 H 0.20426 0.35428 0.18989 0.0
H1541 H 0.22523 0.35532 0.21668 0.0
C1542 C 0.41469 0.54842 1.00048 0.0
C1543 C 0.41421 0.55277 0.04508 0.0
C1544 C 0.41337 0.53611 0.99125 0.0
C1545 C 0.41846 0.50649 0.041 0.0
H1546 H 0.39875 0.49463 0.94215 0.0
C1547 C 0.41451 0.4556 0.00657 0.0
C1548 C 0.41419 0.45152 0.96165 0.0
C1549 C 0.41336 0.46785 0.01681 0.0
C1550 C 0.40442 0.49779 0.9695 0.0
H1551 H 0.41179 0.54751 0.1149 0.0
H1552 H 0.40972 0.52584 0.09869 0.0
H1553 H 0.39859 0.51617 0.9609 0.0
H1554 H 0.41217 0.45724 0.8922 0.0
H1555 H 0.41057 0.47882 0.90992 0.0
H1556 H 0.42471 0.48834 0.04877 0.0
C1557 C 0.41106 0.53207 0.07096 0.0
C1558 C 0.40426 0.51013 0.98042 0.0
C1559 C 0.41219 0.54447 0.08022 0.0
C1560 C 0.41243 0.46006 0.92714 0.0
C1561 C 0.41146 0.47244 0.9374 0.0
C1562 C 0.41875 0.49422 0.02978 0.0
C1563 C 0.4117 0.52777 0.02635 0.0
C1564 C 0.41128 0.5146 0.01629 0.0
C1565 C 0.41207 0.4765 0.98243 0.0
C1566 C 0.41171 0.48966 0.99393 0.0
H1567 H 0.41621 0.55451 0.97246 0.0
H1568 H 0.41404 0.53306 0.95662 0.0
H1569 H 0.42415 0.50971 0.06823 0.0
H1570 H 0.41573 0.44932 0.0342 0.0
H1571 H 0.41352 0.47052 0.05192 0.0
C1572 C 0.29366 0.67888 0.699 0.0
C1573 C 0.29958 0.66852 0.68258 0.0
C1574 C 0.28142 0.67846 0.71073 0.0
C1575 C 0.25867 0.65922 0.75758 0.0
H1576 H 0.23532 0.68137 0.70562 0.0
C1577 C 0.20783 0.65872 0.80944 0.0
C1578 C 0.20139 0.66966 0.80715 0.0
C1579 C 0.2198 0.65805 0.79376 0.0
C1580 C 0.24172 0.67526 0.72126 0.0
H1581 H 0.29735 0.64958 0.66561 0.0
H1582 H 0.27588 0.64875 0.68766 0.0
H1583 H 0.25604 0.6812 0.67769 0.0
H1584 H 0.20256 0.6886 0.78901 0.0
H1585 H 0.22353 0.68769 0.76453 0.0
H1586 H 0.24465 0.65369 0.80286 0.0
C1587 C 0.28075 0.65723 0.69057 0.0
C1588 C 0.25357 0.67509 0.70473 0.0
C1589 C 0.29296 0.65773 0.67766 0.0
C1590 C 0.20729 0.68002 0.79083 0.0
C1591 C 0.2193 0.67943 0.7762 0.0
C1592 C 0.24686 0.65957 0.77488 0.0
C1593 C 0.27491 0.66759 0.7074 0.0
C1594 C 0.26216 0.66711 0.72285 0.0
C1595 C 0.22566 0.66838 0.77624 0.0
C1596 C 0.23822 0.66768 0.75724 0.0
H1597 H 0.29857 0.6873 0.70325 0.0
H1598 H 0.27712 0.68655 0.72378 0.0
H1599 H 0.26519 0.65307 0.77238 0.0
H1600 H 0.20344 0.65056 0.82135 0.0
H1601 H 0.22426 0.64934 0.79402 0.0
C1602 C 0.09474 0.45833 0.57797 0.0
C1603 C 0.08678 0.45069 0.55433 0.0
C1604 C 0.096 0.47052 0.56565 0.0
C1605 C 0.09008 0.49163 0.46994 0.0
H1606 H 0.09328 0.51645 0.56139 0.0
C1607 C 0.08283 0.54625 0.49156 0.0
C1608 C 0.08837 0.55077 0.45223 0.0
C1609 C 0.08387 0.53409 0.50347 0.0
C1610 C 0.09234 0.50964 0.53536 0.0
H1611 H 0.0736 0.45007 0.50001 0.0
H1612 H 0.07555 0.47122 0.47956 0.0
H1613 H 0.09232 0.49528 0.58377 0.0
H1614 H 0.09942 0.54585 0.39466 0.0
H1615 H 0.10134 0.5245 0.41581 0.0
H1616 H 0.08957 0.50604 0.42169 0.0
C1617 C 0.0811 0.46777 0.50676 0.0
C1618 C 0.09194 0.49746 0.54821 0.0
C1619 C 0.0799 0.45562 0.51885 0.0
C1620 C 0.095 0.54271 0.42506 0.0
C1621 C 0.09607 0.53046 0.43714 0.0
C1622 C 0.09042 0.50382 0.4571 0.0
C1623 C 0.08927 0.47537 0.52955 0.0
C1624 C 0.09059 0.4883 0.51574 0.0
C1625 C 0.09053 0.52602 0.47664 0.0
C1626 C 0.09134 0.513 0.48971 0.0
H1627 H 0.10025 0.45482 0.60523 0.0
H1628 H 0.10244 0.47607 0.58381 0.0
H1629 H 0.08928 0.48481 0.44388 0.0
H1630 H 0.07757 0.5521 0.51338 0.0
H1631 H 0.07924 0.53099 0.53351 0.0
C1632 C 0.13889 0.14855 0.02084 0.0
C1633 C 0.1515 0.1503 0.01954 0.0
C1634 C 0.13291 0.14256 0.98576 0.0
C1635 C 0.13549 0.13432 0.8659 0.0
H1636 H 0.11122 0.11017 0.89519 0.0
C1637 C 0.10338 0.11462 0.7314 0.0
C1638 C 0.10182 0.10199 0.73081 0.0
C1639 C 0.10924 0.1203 0.7674 0.0
C1640 C 0.11801 0.11684 0.88647 0.0
H1641 H 0.16769 0.14727 0.97981 0.0
H1642 H 0.1572 0.13694 0.9181 0.0
H1643 H 0.1221 0.12054 0.95578 0.0
H1644 H 0.10489 0.08546 0.76846 0.0
H1645 H 0.11501 0.09544 0.8319 0.0
H1646 H 0.13139 0.13066 0.79664 0.0
C1647 C 0.15195 0.14021 0.94642 0.0
C1648 C 0.12417 0.12286 0.92116 0.0
C1649 C 0.15796 0.14611 0.98181 0.0
C1650 C 0.10591 0.0952 0.76792 0.0
C1651 C 0.1117 0.10093 0.80426 0.0
C1652 C 0.12924 0.12841 0.83125 0.0
C1653 C 0.13937 0.13824 0.94823 0.0
C1654 C 0.13297 0.1317 0.9113 0.0
C1655 C 0.11363 0.11353 0.804 0.0
C1656 C 0.1204 0.11962 0.84109 0.0
H1657 H 0.13362 0.15164 0.04941 0.0
H1658 H 0.1232 0.14135 0.98793 0.0
H1659 H 0.14215 0.14112 0.85713 0.0
H1660 H 0.10033 0.12015 0.70345 0.0
H1661 H 0.11039 0.13004 0.76647 0.0
C1662 C 0.15904 0.85649 0.023 0.0
C1663 C 0.15219 0.85231 0.9862 0.0
C1664 C 0.15341 0.86259 0.05886 0.0
C1665 C 0.12615 0.88062 0.08495 0.0
H1666 H 0.13332 0.87313 0.20976 0.0
C1667 C 0.1075 0.90867 0.23627 0.0
C1668 C 0.10304 0.90192 0.27286 0.0
C1669 C 0.11365 0.90292 0.20083 0.0
C1670 C 0.13121 0.87531 0.17505 0.0
H1671 H 0.13401 0.85105 0.9588 0.0
H1672 H 0.12429 0.86165 0.02089 0.0
H1673 H 0.14393 0.86232 0.14958 0.0
H1674 H 0.10141 0.8838 0.30049 0.0
H1675 H 0.11211 0.87386 0.23905 0.0
H1676 H 0.11337 0.89355 0.11037 0.0
C1677 C 0.134 0.86032 0.02198 0.0
C1678 C 0.13736 0.8692 0.14061 0.0
C1679 C 0.13959 0.85415 0.98653 0.0
C1680 C 0.10471 0.8893 0.27286 0.0
C1681 C 0.11095 0.88359 0.2378 0.0
C1682 C 0.1201 0.88684 0.11937 0.0
C1683 C 0.14084 0.86475 0.05834 0.0
C1684 C 0.1348 0.87167 0.09514 0.0
C1685 C 0.11559 0.89032 0.20154 0.0
C1686 C 0.12244 0.88415 0.16484 0.0
H1687 H 0.16877 0.85526 0.02372 0.0
H1688 H 0.15893 0.86591 0.08638 0.0
H1689 H 0.12406 0.88283 0.05024 0.0
H1690 H 0.1064 0.91841 0.23531 0.0
H1691 H 0.11715 0.90837 0.17342 0.0
C1692 C 0.39683 0.90758 0.27144 0.0
C1693 C 0.40196 0.90079 0.2362 0.0
C1694 C 0.39095 0.90177 0.3074 0.0
C1695 C 0.38773 0.8717 0.36343 0.0
H1696 H 0.35791 0.88529 0.41016 0.0
C1697 C 0.36426 0.85213 0.52108 0.0
C1698 C 0.35154 0.85191 0.52275 0.0
C1699 C 0.37032 0.85797 0.48594 0.0
C1700 C 0.36616 0.8813 0.3972 0.0
H1701 H 0.4051 0.88256 0.21162 0.0
H1702 H 0.39483 0.87253 0.2735 0.0
H1703 H 0.36888 0.89587 0.35057 0.0
H1704 H 0.33521 0.85753 0.48812 0.0
H1705 H 0.34581 0.86756 0.42599 0.0
H1706 H 0.38488 0.85698 0.40896 0.0
C1707 C 0.39545 0.88231 0.27401 0.0
C1708 C 0.37256 0.88747 0.36346 0.0
C1709 C 0.40132 0.88809 0.23827 0.0
C1710 C 0.34501 0.85751 0.48781 0.0
C1711 C 0.3511 0.86336 0.45243 0.0
C1712 C 0.38133 0.86553 0.39699 0.0
C1713 C 0.39008 0.88905 0.30892 0.0
C1714 C 0.38343 0.88274 0.34603 0.0
C1715 C 0.36385 0.86375 0.45122 0.0
C1716 C 0.37046 0.87024 0.41445 0.0
H1717 H 0.39714 0.91737 0.27082 0.0
H1718 H 0.38707 0.90725 0.33398 0.0
H1719 H 0.39613 0.86782 0.3513 0.0
H1720 H 0.3696 0.84798 0.54754 0.0
H1721 H 0.38012 0.85822 0.48669 0.0
C1722 C 0.39521 0.09456 0.74615 0.0
C1723 C 0.40071 0.10119 0.78105 0.0
C1724 C 0.38936 0.10053 0.71051 0.0
C1725 C 0.38696 0.13057 0.65389 0.0
H1726 H 0.35657 0.11784 0.60884 0.0
C1727 C 0.36381 0.14996 0.49498 0.0
C1728 C 0.3511 0.15061 0.49373 0.0
C1729 C 0.36976 0.1442 0.53062 0.0
C1730 C 0.36498 0.12159 0.62132 0.0
H1731 H 0.4045 0.11931 0.80538 0.0
H1732 H 0.39429 0.12965 0.74392 0.0
H1733 H 0.36731 0.10711 0.66862 0.0
H1734 H 0.33468 0.14592 0.52966 0.0
H1735 H 0.34508 0.13602 0.59251 0.0
H1736 H 0.38452 0.14518 0.60748 0.0
C1737 C 0.39459 0.11985 0.74351 0.0
C1738 C 0.37125 0.11533 0.65518 0.0
C1739 C 0.40043 0.1139 0.77899 0.0
C1740 C 0.34448 0.14559 0.52961 0.0
C1741 C 0.35045 0.13981 0.56543 0.0
C1742 C 0.3807 0.13682 0.62013 0.0
C1743 C 0.38888 0.11327 0.70893 0.0
C1744 C 0.38232 0.11974 0.67198 0.0
C1745 C 0.36318 0.13894 0.56619 0.0
C1746 C 0.36963 0.13242 0.60326 0.0
H1747 H 0.39524 0.08476 0.74674 0.0
H1748 H 0.38521 0.09516 0.68418 0.0
H1749 H 0.39551 0.13419 0.66555 0.0
H1750 H 0.36921 0.15367 0.46781 0.0
H1751 H 0.37954 0.14359 0.52958 0.0
C1752 C 0.84505 0.85765 0.01185 0.0
C1753 C 0.8518 0.85322 0.97521 0.0
C1754 C 0.85082 0.8636 0.0477 0.0
C1755 C 0.8786 0.88079 0.07417 0.0
H1756 H 0.87043 0.8742 0.19884 0.0
C1757 C 0.89683 0.90935 0.22477 0.0
C1758 C 0.90072 0.9028 0.26275 0.0
C1759 C 0.89089 0.90347 0.18914 0.0
C1760 C 0.87284 0.87612 0.16418 0.0
H1761 H 0.86995 0.85137 0.94808 0.0
H1762 H 0.87994 0.8617 0.01028 0.0
H1763 H 0.8599 0.86337 0.13858 0.0
H1764 H 0.90156 0.88488 0.29263 0.0
H1765 H 0.89124 0.87471 0.23081 0.0
H1766 H 0.89159 0.89348 0.09977 0.0
C1767 C 0.87019 0.86068 0.01121 0.0
C1768 C 0.86673 0.86999 0.12966 0.0
C1769 C 0.86445 0.85466 0.9757 0.0
C1770 C 0.8987 0.89023 0.26393 0.0
C1771 C 0.89268 0.88439 0.22863 0.0
C1772 C 0.88462 0.88701 0.10867 0.0
C1773 C 0.86345 0.86536 0.04741 0.0
C1774 C 0.86962 0.87216 0.08424 0.0
C1775 C 0.8886 0.89094 0.19098 0.0
C1776 C 0.8819 0.88467 0.15411 0.0
H1777 H 0.83528 0.85673 0.01245 0.0
H1778 H 0.84536 0.86714 0.07503 0.0
H1779 H 0.88095 0.88278 0.0395 0.0
H1780 H 0.89821 0.91904 0.22287 0.0
H1781 H 0.88782 0.90878 0.16067 0.0
C1782 C 0.84576 0.14589 0.98465 0.0
C1783 C 0.85233 0.15117 0.02016 0.0
C1784 C 0.85179 0.14003 0.94921 0.0
C1785 C 0.88194 0.13734 0.89401 0.0
H1786 H 0.86888 0.10729 0.84717 0.0
C1787 C 0.90091 0.1146 0.73358 0.0
C1788 C 0.90145 0.10189 0.73174 0.0
C1789 C 0.8953 0.12048 0.76969 0.0
C1790 C 0.87273 0.11561 0.86015 0.0
H1791 H 0.8704 0.15456 0.04588 0.0
H1792 H 0.88085 0.14433 0.98464 0.0
H1793 H 0.8582 0.11795 0.90725 0.0
H1794 H 0.89671 0.0854 0.76712 0.0
H1795 H 0.88704 0.09568 0.83074 0.0
H1796 H 0.89658 0.13489 0.84765 0.0
C1797 C 0.87106 0.14481 0.98367 0.0
C1798 C 0.8665 0.12182 0.8942 0.0
C1799 C 0.86505 0.15065 0.01899 0.0
C1800 C 0.89647 0.0952 0.76753 0.0
C1801 C 0.89083 0.1011 0.80377 0.0
C1802 C 0.88816 0.13113 0.86003 0.0
C1803 C 0.86453 0.13933 0.94845 0.0
C1804 C 0.87102 0.13278 0.91158 0.0
C1805 C 0.89007 0.11383 0.8051 0.0
C1806 C 0.88363 0.1202 0.84251 0.0
H1807 H 0.83596 0.14612 0.98453 0.0
H1808 H 0.84647 0.13606 0.92236 0.0
H1809 H 0.88566 0.1458 0.90619 0.0
H1810 H 0.9046 0.12006 0.70652 0.0
H1811 H 0.89477 0.13027 0.76914 0.0
C1812 C 0.61017 0.09524 0.74427 0.0
C1813 C 0.60145 0.10154 0.76956 0.0
C1814 C 0.61614 0.10092 0.70833 0.0
C1815 C 0.61401 0.12462 0.62393 0.0
H1816 H 0.64888 0.12754 0.63373 0.0
C1817 C 0.64079 0.15445 0.49891 0.0
C1818 C 0.65261 0.15101 0.48714 0.0
C1819 C 0.63464 0.14856 0.53388 0.0
C1820 C 0.63918 0.12665 0.62971 0.0
H1821 H 0.59176 0.11852 0.77586 0.0
H1822 H 0.60183 0.12823 0.71178 0.0
H1823 H 0.63765 0.11624 0.69057 0.0
H1824 H 0.66728 0.13871 0.50275 0.0
H1825 H 0.65644 0.12804 0.56207 0.0
H1826 H 0.61541 0.13453 0.56237 0.0
C1827 C 0.60418 0.11899 0.7203 0.0
C1828 C 0.63275 0.12021 0.66258 0.0
C1829 C 0.59843 0.11343 0.75691 0.0
C1830 C 0.65822 0.14166 0.51143 0.0
C1831 C 0.65197 0.13556 0.54571 0.0
C1832 C 0.62044 0.13082 0.59045 0.0
C1833 C 0.61328 0.11288 0.69631 0.0
C1834 C 0.6201 0.11921 0.66018 0.0
C1835 C 0.64002 0.13884 0.55732 0.0
C1836 C 0.63315 0.13206 0.59295 0.0
H1837 H 0.61276 0.08611 0.7535 0.0
H1838 H 0.6231 0.09601 0.69021 0.0
H1839 H 0.60425 0.12391 0.62121 0.0
H1840 H 0.63626 0.16168 0.48094 0.0
H1841 H 0.62563 0.15166 0.54233 0.0
C1842 C 0.639 0.85275 0.51475 0.0
C1843 C 0.6517 0.85207 0.51695 0.0
C1844 C 0.63325 0.85855 0.47877 0.0
C1845 C 0.63854 0.88136 0.38925 0.0
H1846 H 0.60809 0.86911 0.34304 0.0
C1847 C 0.60868 0.90911 0.26524 0.0
C1848 C 0.60315 0.90267 0.22991 0.0
C1849 C 0.61449 0.90294 0.3005 0.0
C1850 C 0.61663 0.87264 0.35523 0.0
H1851 H 0.66832 0.85675 0.48225 0.0
H1852 H 0.65826 0.86674 0.41876 0.0
H1853 H 0.61884 0.85783 0.40096 0.0
H1854 H 0.59931 0.88468 0.20434 0.0
H1855 H 0.60946 0.87401 0.26511 0.0
H1856 H 0.63643 0.89605 0.34267 0.0
C1857 C 0.65275 0.86292 0.44539 0.0
C1858 C 0.62275 0.86622 0.38891 0.0
C1859 C 0.65852 0.85709 0.48155 0.0
C1860 C 0.6034 0.88995 0.23109 0.0
C1861 C 0.6092 0.88381 0.26618 0.0
C1862 C 0.63242 0.88779 0.35545 0.0
C1863 C 0.64003 0.86384 0.44378 0.0
C1864 C 0.63377 0.8705 0.40654 0.0
C1865 C 0.61491 0.89019 0.30126 0.0
C1866 C 0.62136 0.88352 0.33797 0.0
H1867 H 0.63345 0.84905 0.5415 0.0
H1868 H 0.62347 0.8592 0.47916 0.0
H1869 H 0.64693 0.88503 0.40232 0.0
H1870 H 0.60867 0.91891 0.26533 0.0
H1871 H 0.61864 0.90817 0.32723 0.0
C1872 C 0.6392 0.64929 0.51461 0.0
C1873 C 0.65178 0.65128 0.51451 0.0
C1874 C 0.63356 0.64321 0.479 0.0
C1875 C 0.63677 0.63459 0.35971 0.0
H1876 H 0.61304 0.61001 0.3901 0.0
C1877 C 0.60456 0.61388 0.227 0.0
C1878 C 0.60292 0.60125 0.22752 0.0
C1879 C 0.61068 0.61974 0.26205 0.0
C1880 C 0.61969 0.61678 0.38103 0.0
H1881 H 0.66825 0.64871 0.47601 0.0
H1882 H 0.65834 0.63821 0.41317 0.0
H1883 H 0.62365 0.62082 0.45014 0.0
H1884 H 0.60623 0.58491 0.26599 0.0
H1885 H 0.61679 0.5952 0.32777 0.0
H1886 H 0.63276 0.63059 0.29058 0.0
C1887 C 0.65286 0.64135 0.4411 0.0
C1888 C 0.62569 0.62306 0.41543 0.0
C1889 C 0.65855 0.64737 0.47708 0.0
C1890 C 0.6073 0.59465 0.26461 0.0
C1891 C 0.61334 0.60055 0.30001 0.0
C1892 C 0.63067 0.6284 0.32529 0.0
C1893 C 0.64033 0.63902 0.44206 0.0
C1894 C 0.63426 0.6321 0.40522 0.0
C1895 C 0.61525 0.61315 0.29882 0.0
C1896 C 0.622 0.61946 0.33552 0.0
H1897 H 0.63368 0.65218 0.5428 0.0
H1898 H 0.62387 0.64176 0.48048 0.0
H1899 H 0.64327 0.64152 0.35068 0.0
H1900 H 0.60132 0.61927 0.19898 0.0
H1901 H 0.61181 0.62947 0.26038 0.0
C1902 C 0.60206 0.38847 0.76673 0.0
C1903 C 0.60148 0.40117 0.76929 0.0
C1904 C 0.60787 0.38275 0.73071 0.0
C1905 C 0.6308 0.38803 0.64158 0.0
H1906 H 0.61838 0.35769 0.59497 0.0
C1907 C 0.65846 0.35806 0.5177 0.0
C1908 C 0.65201 0.35252 0.48244 0.0
C1909 C 0.6523 0.36393 0.55286 0.0
C1910 C 0.62195 0.3662 0.60725 0.0
H1911 H 0.60635 0.41781 0.73521 0.0
H1912 H 0.61633 0.40781 0.67157 0.0
H1913 H 0.60711 0.36848 0.65275 0.0
H1914 H 0.63401 0.34872 0.45682 0.0
H1915 H 0.62336 0.35898 0.51735 0.0
H1916 H 0.64551 0.38586 0.59514 0.0
C1917 C 0.61244 0.40228 0.69798 0.0
C1918 C 0.61554 0.37234 0.64087 0.0
C1919 C 0.60661 0.40802 0.73421 0.0
C1920 C 0.63929 0.35282 0.48354 0.0
C1921 C 0.63315 0.35868 0.51849 0.0
C1922 C 0.63721 0.38189 0.6078 0.0
C1923 C 0.61325 0.38955 0.696 0.0
C1924 C 0.61988 0.38332 0.65869 0.0
C1925 C 0.63955 0.36439 0.55354 0.0
C1926 C 0.63288 0.37087 0.59018 0.0
H1927 H 0.59828 0.38289 0.79324 0.0
H1928 H 0.60844 0.37297 0.73086 0.0
H1929 H 0.63451 0.39638 0.65479 0.0
H1930 H 0.66827 0.35801 0.51783 0.0
H1931 H 0.65754 0.36807 0.57957 0.0
C1932 C 0.90074 0.39021 0.73611 0.0
C1933 C 0.90153 0.40291 0.73456 0.0
C1934 C 0.89494 0.38438 0.77187 0.0
C1935 C 0.87242 0.38935 0.86272 0.0
H1936 H 0.885 0.35881 0.9069 0.0
C1937 C 0.84551 0.35889 0.98792 0.0
C1938 C 0.85224 0.35337 0.02251 0.0
C1939 C 0.8514 0.36488 0.95234 0.0
C1940 C 0.88137 0.36737 0.89528 0.0
H1941 H 0.89699 0.41943 0.77007 0.0
H1942 H 0.88698 0.40921 0.83324 0.0
H1943 H 0.89598 0.36977 0.84885 0.0
H1944 H 0.87045 0.34972 0.04643 0.0
H1945 H 0.8806 0.36015 0.9852 0.0
H1946 H 0.85793 0.38702 0.9101 0.0
C1947 C 0.89073 0.40377 0.80627 0.0
C1948 C 0.88763 0.37361 0.86152 0.0
C1949 C 0.89657 0.40964 0.7703 0.0
C1950 C 0.86495 0.35381 0.02028 0.0
C1951 C 0.87081 0.35976 0.98491 0.0
C1952 C 0.86615 0.38309 0.89663 0.0
C1953 C 0.88975 0.39105 0.80732 0.0
C1954 C 0.88324 0.38468 0.84462 0.0
C1955 C 0.86414 0.36545 0.95052 0.0
C1956 C 0.87055 0.37201 0.91343 0.0
H1957 H 0.9044 0.38472 0.70909 0.0
H1958 H 0.89424 0.37461 0.77101 0.0
H1959 H 0.86868 0.39776 0.85023 0.0
H1960 H 0.83571 0.35875 0.98869 0.0
H1961 H 0.84596 0.36902 0.92619 0.0
C1962 C 0.89733 0.59437 0.2278 0.0
C1963 C 0.90128 0.60114 0.26518 0.0
C1964 C 0.89121 0.60004 0.19206 0.0
C1965 C 0.87277 0.62711 0.16658 0.0
H1966 H 0.88067 0.62036 0.0418 0.0
C1967 C 0.84472 0.64558 0.01484 0.0
C1968 C 0.85144 0.65009 0.97825 0.0
C1969 C 0.85052 0.63955 0.05045 0.0
C1970 C 0.87837 0.62236 0.0765 0.0
H1971 H 0.90205 0.6192 0.2938 0.0
H1972 H 0.89142 0.62898 0.23191 0.0
H1973 H 0.89149 0.60978 0.10196 0.0
H1974 H 0.86957 0.65196 0.95091 0.0
H1975 H 0.8796 0.64147 0.01266 0.0
H1976 H 0.85971 0.63975 0.14115 0.0
C1977 C 0.89295 0.61931 0.23026 0.0
C1978 C 0.8845 0.61622 0.11094 0.0
C1979 C 0.89915 0.61369 0.26561 0.0
C1980 C 0.86409 0.64862 0.97851 0.0
C1981 C 0.86985 0.6425 0.01375 0.0
C1982 C 0.86655 0.63316 0.13214 0.0
C1983 C 0.88879 0.61255 0.19325 0.0
C1984 C 0.88188 0.61862 0.15642 0.0
C1985 C 0.86315 0.63777 0.04994 0.0
C1986 C 0.86937 0.63096 0.08667 0.0
H1987 H 0.8988 0.58469 0.22648 0.0
H1988 H 0.88809 0.59458 0.16407 0.0
H1989 H 0.87044 0.62908 0.20128 0.0
H1990 H 0.83496 0.64653 0.01561 0.0
H1991 H 0.84509 0.63598 0.07778 0.0
C1992 C 0.36407 0.35363 0.49404 0.0
C1993 C 0.35149 0.35165 0.49487 0.0
C1994 C 0.36986 0.35959 0.52958 0.0
C1995 C 0.378 0.37946 0.59401 0.0
H1996 H 0.37108 0.37155 0.71867 0.0
C1997 C 0.39607 0.40763 0.7458 0.0
C1998 C 0.40046 0.40099 0.78279 0.0
C1999 C 0.39017 0.40174 0.71008 0.0
C2000 C 0.37314 0.37384 0.68401 0.0
H2001 H 0.33518 0.35413 0.53443 0.0
H2002 H 0.34536 0.36443 0.59702 0.0
H2003 H 0.36054 0.36077 0.65832 0.0
H2004 H 0.40227 0.38294 0.81079 0.0
H2005 H 0.39203 0.37275 0.74879 0.0
H2006 H 0.39064 0.39248 0.61968 0.0
C2007 C 0.35072 0.36136 0.56865 0.0
C2008 C 0.36702 0.36773 0.64946 0.0
C2009 C 0.34489 0.35548 0.5328 0.0
C2010 C 0.39901 0.38834 0.78287 0.0
C2011 C 0.39304 0.3825 0.74747 0.0
C2012 C 0.38403 0.38565 0.62856 0.0
C2013 C 0.36325 0.36366 0.5671 0.0
C2014 C 0.36945 0.37039 0.60403 0.0
C2015 C 0.38844 0.38912 0.71085 0.0
C2016 C 0.38175 0.38284 0.67399 0.0
H2017 H 0.36946 0.35081 0.46539 0.0
H2018 H 0.37955 0.36103 0.52763 0.0
H2019 H 0.37998 0.38182 0.55936 0.0
H2020 H 0.397 0.41738 0.74476 0.0
H2021 H 0.38669 0.40712 0.68243 0.0
C2022 C 0.36342 0.65093 0.51038 0.0
C2023 C 0.3507 0.65133 0.51133 0.0
C2024 C 0.36953 0.6454 0.47464 0.0
C2025 C 0.36531 0.62294 0.38324 0.0
H2026 H 0.39566 0.63618 0.33989 0.0
C2027 C 0.39612 0.59654 0.25913 0.0
C2028 C 0.4015 0.60325 0.22419 0.0
C2029 C 0.39019 0.60243 0.29473 0.0
C2030 C 0.38716 0.63238 0.35131 0.0
H2031 H 0.33443 0.64645 0.47478 0.0
H2032 H 0.34512 0.63695 0.41178 0.0
H2033 H 0.38438 0.64687 0.39799 0.0
H2034 H 0.40505 0.62142 0.19979 0.0
H2035 H 0.39469 0.63162 0.26131 0.0
H2036 H 0.36797 0.60858 0.33574 0.0
C2037 C 0.35037 0.64076 0.43917 0.0
C2038 C 0.38074 0.63846 0.38506 0.0
C2039 C 0.34423 0.6463 0.47507 0.0
C2040 C 0.40106 0.61596 0.22624 0.0
C2041 C 0.39514 0.62183 0.26171 0.0
C2042 C 0.37174 0.61686 0.34941 0.0
C2043 C 0.36311 0.64013 0.43871 0.0
C2044 C 0.36974 0.63382 0.4016 0.0
C2045 C 0.3895 0.61515 0.29623 0.0
C2046 C 0.38276 0.62149 0.33298 0.0
H2047 H 0.3687 0.65465 0.53783 0.0
H2048 H 0.37932 0.64497 0.47588 0.0
H2049 H 0.35695 0.61901 0.39547 0.0
H2050 H 0.39628 0.58674 0.25856 0.0
H2051 H 0.38612 0.59699 0.32106 0.0
C2052 C 0.15836 0.64093 0.0066 0.0
C2053 C 0.15239 0.6501 0.98251 0.0
C2054 C 0.15241 0.63467 0.04125 0.0
C2055 C 0.12115 0.62903 0.08718 0.0
H2056 H 0.13898 0.61487 0.18661 0.0
C2057 C 0.09966 0.61082 0.25315 0.0
C2058 C 0.10302 0.59902 0.26568 0.0
C2059 C 0.10533 0.61662 0.21688 0.0
C2060 C 0.13391 0.61872 0.15882 0.0
H2061 H 0.13572 0.6603 0.97714 0.0
H2062 H 0.12561 0.65002 0.03912 0.0
H2063 H 0.14977 0.62649 0.12942 0.0
H2064 H 0.11491 0.58401 0.24988 0.0
H2065 H 0.12511 0.59433 0.1872 0.0
H2066 H 0.10522 0.62168 0.11839 0.0
C2067 C 0.13468 0.64717 0.03023 0.0
C2068 C 0.14009 0.62535 0.12575 0.0
C2069 C 0.14053 0.65321 0.99492 0.0
C2070 C 0.11206 0.59306 0.24075 0.0
C2071 C 0.11795 0.59898 0.20516 0.0
C2072 C 0.11496 0.62265 0.12083 0.0
C2073 C 0.14041 0.63761 0.05341 0.0
C2074 C 0.13382 0.63061 0.08925 0.0
C2075 C 0.11469 0.61085 0.19311 0.0
C2076 C 0.12128 0.61739 0.15687 0.0
H2077 H 0.16746 0.63824 0.99745 0.0
H2078 H 0.15715 0.62729 0.05743 0.0
H2079 H 0.11594 0.6326 0.05929 0.0
H2080 H 0.09274 0.61565 0.2718 0.0
H2081 H 0.10268 0.62578 0.20836 0.0
C2082 C 0.10615 0.40791 0.77225 0.0
C2083 C 0.10225 0.4011 0.73492 0.0
C2084 C 0.11194 0.40223 0.80869 0.0
C2085 C 0.12976 0.37492 0.83571 0.0
H2086 H 0.12235 0.3826 0.96017 0.0
C2087 C 0.15826 0.35707 0.98651 0.0
C2088 C 0.15174 0.35285 0.02404 0.0
C2089 C 0.15231 0.36303 0.95113 0.0
C2090 C 0.12449 0.38033 0.92556 0.0
H2091 H 0.10108 0.38295 0.70729 0.0
H2092 H 0.11111 0.37314 0.77049 0.0
H2093 H 0.11149 0.39294 0.89948 0.0
H2094 H 0.13382 0.35148 0.05356 0.0
H2095 H 0.12349 0.36184 0.99207 0.0
H2096 H 0.14271 0.36226 0.86169 0.0
C2097 C 0.10983 0.38286 0.77151 0.0
C2098 C 0.11835 0.38633 0.89082 0.0
C2099 C 0.10398 0.38849 0.7354 0.0
C2100 C 0.13913 0.3546 0.02516 0.0
C2101 C 0.13321 0.36063 0.99007 0.0
C2102 C 0.13599 0.36901 0.8704 0.0
C2103 C 0.11405 0.38966 0.80831 0.0
C2104 C 0.12083 0.38362 0.84547 0.0
C2105 C 0.13972 0.36499 0.95274 0.0
C2106 C 0.13336 0.37156 0.91577 0.0
H2107 H 0.10499 0.41764 0.77288 0.0
H2108 H 0.11511 0.40773 0.8365 0.0
H2109 H 0.13199 0.37272 0.80111 0.0
H2110 H 0.16799 0.3559 0.98467 0.0
H2111 H 0.1576 0.36633 0.92296 0.0
C2112 C 0.17792 0.29289 0.12607 0.0
C2113 C 0.16995 0.3013 0.10676 0.0
C2114 C 0.17864 0.28112 0.10946 0.0
C2115 C 0.16021 0.25788 0.05934 0.0
H2116 H 0.19082 0.24071 0.05603 0.0
C2117 C 0.16318 0.2053 0.06608 0.0
C2118 C 0.17045 0.20163 0.10246 0.0
C2119 C 0.16364 0.21733 0.0507 0.0
C2120 C 0.1822 0.24537 0.05629 0.0
H2121 H 0.15663 0.30416 0.05429 0.0
H2122 H 0.15763 0.28322 0.02562 0.0
H2123 H 0.19068 0.26279 0.05731 0.0
H2124 H 0.18429 0.20729 0.14964 0.0
H2125 H 0.18531 0.22801 0.12246 0.0
H2126 H 0.15177 0.2404 0.0613 0.0
C2127 C 0.16344 0.28588 0.05331 0.0
C2128 C 0.18211 0.25801 0.05699 0.0
C2129 C 0.16291 0.29783 0.06947 0.0
C2130 C 0.1786 0.20991 0.12151 0.0
C2131 C 0.17923 0.22176 0.10571 0.0
C2132 C 0.16029 0.24519 0.0587 0.0
C2133 C 0.17125 0.27739 0.07351 0.0
C2134 C 0.17115 0.26438 0.0607 0.0
C2135 C 0.17159 0.22572 0.07083 0.0
C2136 C 0.17132 0.23882 0.05937 0.0
H2137 H 0.18344 0.29535 0.15484 0.0
H2138 H 0.18461 0.27477 0.12621 0.0
H2139 H 0.15163 0.26255 0.06241 0.0
H2140 H 0.15675 0.19908 0.05116 0.0
H2141 H 0.15764 0.22015 0.02381 0.0
C2142 C 0.9603 0.90739 0.37216 0.0
C2143 C 0.95167 0.91533 0.35388 0.0
C2144 C 0.97231 0.90771 0.35765 0.0
C2145 C 0.99449 0.92921 0.31886 0.0
H2146 H 0.01494 0.90074 0.31102 0.0
C2147 C 0.04866 0.91465 0.32185 0.0
C2148 C 0.05184 0.92059 0.36205 0.0
C2149 C 0.03664 0.91485 0.30651 0.0
C2150 C 0.00937 0.9088 0.31216 0.0
H2151 H 0.94872 0.92954 0.30476 0.0
H2152 H 0.96996 0.93032 0.27998 0.0
H2153 H 0.99293 0.89853 0.30839 0.0
H2154 H 0.04518 0.93199 0.41607 0.0
H2155 H 0.0244 0.93255 0.38899 0.0
H2156 H 0.01091 0.93941 0.32532 0.0
C2157 C 0.96732 0.92375 0.30525 0.0
C2158 C 0.99677 0.90752 0.31097 0.0
C2159 C 0.95518 0.92326 0.31923 0.0
C2160 C 0.04298 0.92729 0.38506 0.0
C2161 C 0.03108 0.92769 0.36935 0.0
C2162 C 0.00709 0.93047 0.32051 0.0
C2163 C 0.97604 0.91611 0.32498 0.0
C2164 C 0.98919 0.91767 0.31596 0.0
C2165 C 0.02769 0.92123 0.33058 0.0
C2166 C 0.01464 0.92024 0.31882 0.0
H2167 H 0.95787 0.90117 0.39887 0.0
H2168 H 0.97881 0.90181 0.37395 0.0
H2169 H 0.9889 0.93719 0.32305 0.0
H2170 H 0.05531 0.90936 0.30361 0.0
H2171 H 0.03427 0.9098 0.2765 0.0
C2172 C 0.33795 0.79816 0.57252 0.0
C2173 C 0.33201 0.80137 0.61268 0.0
C2174 C 0.33772 0.78613 0.55729 0.0
C2175 C 0.34379 0.75891 0.5635 0.0
H2176 H 0.31538 0.73844 0.57402 0.0
C2177 C 0.34509 0.70994 0.6243 0.0
C2178 C 0.3373 0.70125 0.60547 0.0
C2179 C 0.34475 0.72194 0.60981 0.0
C2180 C 0.32336 0.74403 0.56995 0.0
H2181 H 0.32057 0.79477 0.66672 0.0
H2182 H 0.31997 0.77398 0.6398 0.0
H2183 H 0.31315 0.76044 0.576 0.0
H2184 H 0.32332 0.69823 0.5555 0.0
H2185 H 0.32248 0.71946 0.53081 0.0
H2186 H 0.35408 0.74248 0.56021 0.0
C2187 C 0.32485 0.78065 0.62013 0.0
C2188 C 0.32209 0.75662 0.57141 0.0
C2189 C 0.32527 0.79254 0.63575 0.0
C2190 C 0.32947 0.70473 0.57041 0.0
C2191 C 0.32896 0.71686 0.55647 0.0
C2192 C 0.34507 0.74631 0.56252 0.0
C2193 C 0.33132 0.77722 0.58142 0.0
C2194 C 0.33233 0.76418 0.56984 0.0
C2195 C 0.33647 0.72562 0.57663 0.0
C2196 C 0.33492 0.73874 0.56737 0.0
H2197 H 0.34326 0.80478 0.55425 0.0
H2198 H 0.34279 0.78373 0.52733 0.0
H2199 H 0.35185 0.76448 0.56247 0.0
H2200 H 0.35123 0.70754 0.65131 0.0
H2201 H 0.35055 0.72848 0.62643 0.0
C2202 C 0.45468 0.08886 0.83621 0.0
C2203 C 0.45117 0.08246 0.87498 0.0
C2204 C 0.46685 0.08895 0.82258 0.0
C2205 C 0.49391 0.0953 0.83347 0.0
H2206 H 0.51475 0.0671 0.84118 0.0
C2207 C 0.54285 0.09687 0.89585 0.0
C2208 C 0.55176 0.08976 0.87486 0.0
C2209 C 0.53079 0.09624 0.8821 0.0
C2210 C 0.50906 0.07504 0.83801 0.0
H2211 H 0.45739 0.07051 0.92809 0.0
H2212 H 0.47845 0.07043 0.90386 0.0
H2213 H 0.49275 0.06454 0.84084 0.0
H2214 H 0.55505 0.07659 0.82215 0.0
H2215 H 0.53373 0.07521 0.79881 0.0
H2216 H 0.51021 0.10584 0.83335 0.0
C2217 C 0.47191 0.07545 0.88407 0.0
C2218 C 0.49647 0.07358 0.83811 0.0
C2219 C 0.45986 0.07556 0.89814 0.0
C2220 C 0.54838 0.08221 0.83881 0.0
C2221 C 0.5362 0.08139 0.82559 0.0
C2222 C 0.50649 0.09677 0.83392 0.0
C2223 C 0.47562 0.08239 0.84691 0.0
C2224 C 0.48877 0.08372 0.83731 0.0
C2225 C 0.52728 0.08833 0.84748 0.0
C2226 C 0.51418 0.08668 0.83767 0.0
H2227 H 0.44817 0.09431 0.81793 0.0
H2228 H 0.46948 0.09437 0.79378 0.0
H2229 H 0.48822 0.10329 0.83313 0.0
H2230 H 0.54514 0.1028 0.92365 0.0
H2231 H 0.52412 0.10158 0.90002 0.0
C2232 C 0.1727 0.7982 0.92651 0.0
C2233 C 0.16508 0.80148 0.89049 0.0
C2234 C 0.17296 0.7862 0.94213 0.0
C2235 C 0.15507 0.75826 0.94597 0.0
H2236 H 0.18489 0.74037 0.9278 0.0
C2237 C 0.15553 0.70981 0.88512 0.0
C2238 C 0.16451 0.70158 0.89854 0.0
C2239 C 0.15561 0.72169 0.90066 0.0
C2240 C 0.17656 0.74524 0.93439 0.0
H2241 H 0.15149 0.79486 0.84382 0.0
H2242 H 0.15162 0.77422 0.87203 0.0
H2243 H 0.1851 0.76254 0.92503 0.0
H2244 H 0.18047 0.69924 0.94 0.0
H2245 H 0.18077 0.72035 0.96697 0.0
H2246 H 0.14639 0.74107 0.95324 0.0
C2247 C 0.15748 0.78083 0.8879 0.0
C2248 C 0.17669 0.75793 0.93271 0.0
C2249 C 0.15744 0.79266 0.87162 0.0
C2250 C 0.17337 0.70538 0.9295 0.0
C2251 C 0.17358 0.71745 0.9446 0.0
C2252 C 0.15496 0.74564 0.94804 0.0
C2253 C 0.16533 0.77742 0.92285 0.0
C2254 C 0.16584 0.7645 0.93636 0.0
C2255 C 0.16478 0.72578 0.9297 0.0
C2256 C 0.16558 0.73895 0.93994 0.0
H2257 H 0.17875 0.8048 0.94142 0.0
H2258 H 0.17913 0.78375 0.969 0.0
H2259 H 0.14661 0.76313 0.94936 0.0
H2260 H 0.14861 0.70718 0.86121 0.0
H2261 H 0.14881 0.72786 0.88781 0.0
C2262 C 0.46123 0.90733 0.1151 0.0
C2263 C 0.45218 0.91416 0.13661 0.0
C2264 C 0.47322 0.90788 0.12968 0.0
C2265 C 0.4946 0.92874 0.17806 0.0
H2266 H 0.51564 0.90062 0.17929 0.0
C2267 C 0.54904 0.91516 0.17795 0.0
C2268 C 0.55248 0.92196 0.14004 0.0
C2269 C 0.53689 0.91494 0.19185 0.0
C2270 C 0.50989 0.90856 0.18003 0.0
H2271 H 0.44858 0.92671 0.19112 0.0
H2272 H 0.46979 0.92795 0.21596 0.0
H2273 H 0.49368 0.8979 0.17805 0.0
H2274 H 0.54618 0.93447 0.08889 0.0
H2275 H 0.52517 0.93431 0.1136 0.0
H2276 H 0.51083 0.93939 0.17727 0.0
C2277 C 0.46747 0.92205 0.1881 0.0
C2278 C 0.49733 0.907 0.17899 0.0
C2279 C 0.45535 0.92131 0.17402 0.0
C2280 C 0.54377 0.92912 0.11817 0.0
C2281 C 0.53174 0.92909 0.13252 0.0
C2282 C 0.50717 0.9303 0.17857 0.0
C2283 C 0.47653 0.91542 0.1657 0.0
C2284 C 0.48957 0.91706 0.17644 0.0
C2285 C 0.52808 0.92173 0.16865 0.0
C2286 C 0.51495 0.92022 0.17802 0.0
H2287 H 0.4591 0.90171 0.08625 0.0
H2288 H 0.48001 0.90279 0.11134 0.0
H2289 H 0.48885 0.93666 0.17587 0.0
H2290 H 0.55557 0.9095 0.19519 0.0
H2291 H 0.53431 0.90919 0.21983 0.0
C2292 C 0.34697 0.20923 0.3766 0.0
C2293 C 0.33917 0.20085 0.39727 0.0
C2294 C 0.34751 0.22117 0.39142 0.0
C2295 C 0.32907 0.24474 0.44037 0.0
H2296 H 0.35961 0.26207 0.43998 0.0
C2297 C 0.33239 0.29753 0.43476 0.0
C2298 C 0.33938 0.30132 0.39772 0.0
C2299 C 0.3327 0.28539 0.44898 0.0
C2300 C 0.35101 0.25737 0.44071 0.0
H2301 H 0.32595 0.19842 0.45047 0.0
H2302 H 0.32668 0.21964 0.47597 0.0
H2303 H 0.35957 0.23999 0.44002 0.0
H2304 H 0.35256 0.29551 0.348 0.0
H2305 H 0.35331 0.27466 0.37321 0.0
H2306 H 0.32054 0.2622 0.43848 0.0
C2307 C 0.33247 0.21679 0.44849 0.0
C2308 C 0.35098 0.24473 0.44073 0.0
C2309 C 0.3321 0.20466 0.43409 0.0
C2310 C 0.34705 0.29291 0.3766 0.0
C2311 C 0.34754 0.28094 0.39126 0.0
C2312 C 0.3291 0.25744 0.44039 0.0
C2313 C 0.34014 0.22517 0.427 0.0
C2314 C 0.34003 0.23828 0.43845 0.0
C2315 C 0.34025 0.27697 0.42709 0.0
C2316 C 0.34008 0.26386 0.43846 0.0
H2317 H 0.35253 0.20662 0.34817 0.0
H2318 H 0.35337 0.22742 0.37364 0.0
H2319 H 0.32049 0.24002 0.43844 0.0
H2320 H 0.32634 0.3038 0.45148 0.0
H2321 H 0.32697 0.28255 0.47666 0.0
C2322 C 0.95979 0.09764 0.61391 0.0
C2323 C 0.9513 0.08965 0.6329 0.0
C2324 C 0.9719 0.09733 0.6272 0.0
C2325 C 0.99656 0.09759 0.67326 0.0
H2326 H 0.01102 0.06597 0.6555 0.0
C2327 C 0.04866 0.09015 0.6676 0.0
C2328 C 0.05221 0.08471 0.62686 0.0
C2329 C 0.03645 0.09006 0.68075 0.0
C2330 C 0.0071 0.07482 0.66125 0.0
H2331 H 0.94878 0.07533 0.68187 0.0
H2332 H 0.97019 0.07455 0.70437 0.0
H2333 H 0.98897 0.06796 0.6579 0.0
H2334 H 0.04596 0.07437 0.5693 0.0
H2335 H 0.02483 0.07396 0.59269 0.0
H2336 H 0.0147 0.10452 0.67452 0.0
C2337 C 0.96735 0.08115 0.67956 0.0
C2338 C 0.99449 0.07595 0.66293 0.0
C2339 C 0.95511 0.08164 0.66688 0.0
C2340 C 0.04347 0.07869 0.60076 0.0
C2341 C 0.03139 0.07838 0.61432 0.0
C2342 C 0.00918 0.09643 0.67219 0.0
C2343 C 0.97589 0.08888 0.65924 0.0
C2344 C 0.98909 0.08741 0.66728 0.0
C2345 C 0.02768 0.08426 0.65395 0.0
C2346 C 0.01456 0.0851 0.66449 0.0
H2347 H 0.95713 0.10392 0.58769 0.0
H2348 H 0.97827 0.1033 0.61054 0.0
H2349 H 0.99263 0.10652 0.67684 0.0
H2350 H 0.0552 0.09491 0.68824 0.0
H2351 H 0.03382 0.09467 0.71146 0.0
C2352 C 0.8225 0.70752 0.86112 0.0
C2353 C 0.83153 0.70046 0.8814 0.0
C2354 C 0.8218 0.7199 0.86959 0.0
C2355 C 0.83233 0.74564 0.93884 0.0
H2356 H 0.82959 0.76247 0.82456 0.0
C2357 C 0.83957 0.79792 0.90945 0.0
C2358 C 0.83202 0.80316 0.8767 0.0
C2359 C 0.83888 0.78544 0.91836 0.0
C2360 C 0.83019 0.75796 0.85691 0.0
H2361 H 0.84648 0.70057 0.92857 0.0
H2362 H 0.84539 0.7225 0.94307 0.0
H2363 H 0.82942 0.74058 0.82594 0.0
H2364 H 0.8172 0.79986 0.8306 0.0
H2365 H 0.81568 0.77836 0.84713 0.0
H2366 H 0.83318 0.76329 0.96952 0.0
C2367 C 0.83875 0.71837 0.92106 0.0
C2368 C 0.8301 0.74537 0.85769 0.0
C2369 C 0.83937 0.70585 0.91288 0.0
C2370 C 0.82319 0.79599 0.8557 0.0
C2371 C 0.8224 0.78367 0.86495 0.0
C2372 C 0.8324 0.75838 0.93806 0.0
C2373 C 0.83027 0.72558 0.89792 0.0
C2374 C 0.83093 0.73903 0.89861 0.0
C2375 C 0.83058 0.77811 0.89476 0.0
C2376 C 0.83109 0.76466 0.89704 0.0
H2377 H 0.81632 0.70355 0.83691 0.0
H2378 H 0.81497 0.72514 0.8521 0.0
H2379 H 0.83307 0.74099 0.97085 0.0
H2380 H 0.84651 0.80328 0.92582 0.0
H2381 H 0.8453 0.78143 0.94154 0.0
C2382 C 0.66512 0.20592 0.43924 0.0
C2383 C 0.67195 0.20198 0.40211 0.0
C2384 C 0.66598 0.21799 0.45395 0.0
C2385 C 0.68482 0.24583 0.44278 0.0
H2386 H 0.65431 0.26318 0.44314 0.0
C2387 C 0.67946 0.29336 0.37274 0.0
C2388 C 0.67202 0.30185 0.39448 0.0
C2389 C 0.6804 0.28156 0.38897 0.0
C2390 C 0.6629 0.25846 0.44429 0.0
H2391 H 0.68548 0.20719 0.35295 0.0
H2392 H 0.68715 0.22796 0.37877 0.0
H2393 H 0.65434 0.24104 0.44543 0.0
H2394 H 0.65989 0.30475 0.45082 0.0
H2395 H 0.66127 0.28379 0.47877 0.0
H2396 H 0.69336 0.26319 0.43851 0.0
C2397 C 0.68112 0.22191 0.39673 0.0
C2398 C 0.66292 0.24578 0.44566 0.0
C2399 C 0.68011 0.21002 0.38169 0.0
C2400 C 0.66576 0.29838 0.43366 0.0
C2401 C 0.6665 0.28642 0.44946 0.0
C2402 C 0.68479 0.25846 0.44119 0.0
C2403 C 0.67387 0.22615 0.43229 0.0
C2404 C 0.67388 0.23932 0.44279 0.0
C2405 C 0.67376 0.27787 0.42696 0.0
C2406 C 0.67383 0.26489 0.4399 0.0
H2407 H 0.65869 0.19989 0.45522 0.0
H2408 H 0.66028 0.22101 0.48145 0.0
H2409 H 0.69342 0.24112 0.44137 0.0
H2410 H 0.6844 0.29579 0.34251 0.0
H2411 H 0.68594 0.27516 0.37052 0.0
C2412 C 0.84696 0.29306 0.13072 0.0
C2413 C 0.83939 0.30191 0.11168 0.0
C2414 C 0.84707 0.28129 0.11404 0.0
C2415 C 0.82799 0.25856 0.06607 0.0
H2416 H 0.85838 0.24122 0.05485 0.0
C2417 C 0.8312 0.20582 0.07176 0.0
C2418 C 0.83907 0.2022 0.1065 0.0
C2419 C 0.83127 0.21787 0.05637 0.0
C2420 C 0.8498 0.24593 0.05727 0.0
H2421 H 0.82602 0.30534 0.05979 0.0
H2422 H 0.8259 0.28436 0.03129 0.0
H2423 H 0.85838 0.2633 0.05673 0.0
H2424 H 0.85353 0.20815 0.15067 0.0
H2425 H 0.85388 0.22878 0.12335 0.0
H2426 H 0.81951 0.2411 0.06992 0.0
C2427 C 0.83191 0.28675 0.05872 0.0
C2428 C 0.8498 0.25856 0.05827 0.0
C2429 C 0.83202 0.29873 0.07486 0.0
C2430 C 0.84738 0.21062 0.12382 0.0
C2431 C 0.84762 0.22247 0.10793 0.0
C2432 C 0.82799 0.24586 0.06521 0.0
C2433 C 0.83944 0.27792 0.07836 0.0
C2434 C 0.83897 0.26499 0.06485 0.0
C2435 C 0.83943 0.22634 0.07471 0.0
C2436 C 0.83897 0.23943 0.06305 0.0
H2437 H 0.85272 0.29518 0.15917 0.0
H2438 H 0.85283 0.27466 0.13032 0.0
H2439 H 0.81952 0.26329 0.07138 0.0
H2440 H 0.82463 0.19953 0.05812 0.0
H2441 H 0.82483 0.22062 0.0308 0.0
C2442 C 0.66983 0.70533 0.58053 0.0
C2443 C 0.66366 0.70143 0.61941 0.0
C2444 C 0.66947 0.71757 0.56754 0.0
C2445 C 0.6517 0.74563 0.58342 0.0
H2446 H 0.68215 0.76299 0.5759 0.0
C2447 C 0.65709 0.79371 0.6466 0.0
C2448 C 0.66381 0.80227 0.62209 0.0
C2449 C 0.65654 0.78168 0.63273 0.0
C2450 C 0.67356 0.75826 0.57678 0.0
H2451 H 0.65194 0.70724 0.67402 0.0
H2452 H 0.65112 0.72824 0.65104 0.0
H2453 H 0.68209 0.74078 0.57519 0.0
H2454 H 0.67519 0.80489 0.56336 0.0
H2455 H 0.67447 0.78353 0.53953 0.0
H2456 H 0.64321 0.763 0.58767 0.0
C2457 C 0.65628 0.72196 0.63059 0.0
C2458 C 0.67353 0.74555 0.57636 0.0
C2459 C 0.65682 0.70989 0.64394 0.0
C2460 C 0.66989 0.79851 0.5828 0.0
C2461 C 0.66952 0.78631 0.56929 0.0
C2462 C 0.65173 0.75826 0.58387 0.0
C2463 C 0.66268 0.726 0.59259 0.0
C2464 C 0.66263 0.73914 0.58174 0.0
C2465 C 0.66282 0.77779 0.59424 0.0
C2466 C 0.6627 0.76471 0.58261 0.0
H2467 H 0.67523 0.69903 0.5611 0.0
H2468 H 0.67452 0.72046 0.53815 0.0
H2469 H 0.64314 0.74093 0.58687 0.0
H2470 H 0.65229 0.79625 0.67699 0.0
H2471 H 0.65146 0.77532 0.65308 0.0
C2472 C 0.54805 0.4211 0.83559 0.0
C2473 C 0.55155 0.41378 0.87212 0.0
C2474 C 0.53585 0.42171 0.82246 0.0
C2475 C 0.50633 0.40606 0.83217 0.0
H2476 H 0.49225 0.43816 0.83864 0.0
C2477 C 0.45971 0.42686 0.89801 0.0
C2478 C 0.451 0.4199 0.87522 0.0
C2479 C 0.47171 0.42706 0.8834 0.0
C2480 C 0.49606 0.42915 0.83602 0.0
H2481 H 0.54513 0.40089 0.92183 0.0
H2482 H 0.52408 0.40171 0.89831 0.0
H2483 H 0.51428 0.43583 0.83817 0.0
H2484 H 0.44791 0.40801 0.81835 0.0
H2485 H 0.46914 0.40809 0.79329 0.0
H2486 H 0.48813 0.39935 0.83233 0.0
C2487 C 0.53067 0.40705 0.87996 0.0
C2488 C 0.50866 0.42783 0.83545 0.0
C2489 C 0.54274 0.40664 0.89364 0.0
C2490 C 0.45444 0.4135 0.83634 0.0
C2491 C 0.46657 0.4135 0.82218 0.0
C2492 C 0.49373 0.40739 0.83216 0.0
C2493 C 0.52703 0.41477 0.8449 0.0
C2494 C 0.51391 0.41625 0.83532 0.0
C2495 C 0.47536 0.42013 0.84609 0.0
C2496 C 0.48847 0.41893 0.83587 0.0
H2497 H 0.55463 0.42675 0.81852 0.0
H2498 H 0.53327 0.42775 0.79534 0.0
H2499 H 0.51014 0.39703 0.83181 0.0
H2500 H 0.4573 0.4319 0.92802 0.0
H2501 H 0.47828 0.43213 0.90286 0.0
C2502 C 0.95594 0.58144 0.324 0.0
C2503 C 0.9525 0.58934 0.35886 0.0
C2504 C 0.96808 0.58082 0.31017 0.0
C2505 C 0.99766 0.59668 0.3157 0.0
H2506 H 0.01155 0.56469 0.33031 0.0
C2507 C 0.0439 0.57675 0.3884 0.0
C2508 C 0.05281 0.58296 0.3638 0.0
C2509 C 0.03192 0.57653 0.37361 0.0
C2510 C 0.00779 0.57365 0.32537 0.0
H2511 H 0.95887 0.60329 0.40447 0.0
H2512 H 0.97982 0.60242 0.37971 0.0
H2513 H 0.98955 0.56711 0.32862 0.0
H2514 H 0.05628 0.59355 0.30374 0.0
H2515 H 0.03505 0.59349 0.27832 0.0
H2516 H 0.01591 0.60329 0.31484 0.0
C2517 C 0.97325 0.59665 0.36319 0.0
C2518 C 0.9952 0.57503 0.3241 0.0
C2519 C 0.96124 0.5971 0.37759 0.0
C2520 C 0.04958 0.58864 0.32315 0.0
C2521 C 0.03746 0.58864 0.30877 0.0
C2522 C 0.01026 0.59529 0.3164 0.0
C2523 C 0.97689 0.58829 0.33023 0.0
C2524 C 0.99001 0.58661 0.32108 0.0
C2525 C 0.0285 0.5827 0.33424 0.0
C2526 C 0.01544 0.58381 0.32307 0.0
H2527 H 0.94941 0.57531 0.30917 0.0
H2528 H 0.97065 0.57428 0.28468 0.0
H2529 H 0.9939 0.60571 0.31309 0.0
H2530 H 0.04616 0.57227 0.41979 0.0
H2531 H 0.02522 0.57201 0.39426 0.0
C2532 C 0.96 0.40594 0.60931 0.0
C2533 C 0.95174 0.4134 0.63229 0.0
C2534 C 0.97205 0.40524 0.62285 0.0
C2535 C 0.99594 0.4229 0.67426 0.0
H2536 H 0.01321 0.39241 0.66592 0.0
C2537 C 0.04881 0.41924 0.66847 0.0
C2538 C 0.05265 0.41284 0.63005 0.0
C2539 C 0.0366 0.4189 0.68193 0.0
C2540 C 0.00852 0.40099 0.66883 0.0
H2541 H 0.94967 0.42584 0.68823 0.0
H2542 H 0.97105 0.4248 0.71156 0.0
H2543 H 0.99113 0.39248 0.66681 0.0
H2544 H 0.0468 0.4007 0.5768 0.0
H2545 H 0.02583 0.39991 0.60062 0.0
H2546 H 0.01343 0.43141 0.67393 0.0
C2547 C 0.96802 0.41942 0.6832 0.0
C2548 C 0.99589 0.40103 0.66932 0.0
C2549 C 0.9558 0.41996 0.67003 0.0
C2550 C 0.04417 0.40577 0.60649 0.0
C2551 C 0.03213 0.40524 0.62033 0.0
C2552 C 0.00865 0.42285 0.67384 0.0
C2553 C 0.97628 0.41209 0.65948 0.0
C2554 C 0.98945 0.412 0.66998 0.0
C2555 C 0.02815 0.4119 0.65782 0.0
C2556 C 0.01504 0.41191 0.6691 0.0
H2557 H 0.9572 0.40075 0.58014 0.0
H2558 H 0.97818 0.39965 0.60338 0.0
H2559 H 0.99123 0.43149 0.67463 0.0
H2560 H 0.05512 0.42482 0.68716 0.0
H2561 H 0.03376 0.42413 0.71092 0.0
C2562 C 0.45537 0.58914 0.16885 0.0
C2563 C 0.45159 0.5835 0.12876 0.0
C2564 C 0.46744 0.5881 0.18332 0.0
C2565 C 0.49511 0.56961 0.1684 0.0
H2566 H 0.51304 0.5996 0.18071 0.0
C2567 C 0.54381 0.5745 0.11082 0.0
C2568 C 0.55205 0.58182 0.13442 0.0
C2569 C 0.5318 0.57361 0.12465 0.0
C2570 C 0.50816 0.59112 0.17857 0.0
H2571 H 0.45724 0.57192 0.07368 0.0
H2572 H 0.47803 0.56989 0.09921 0.0
H2573 H 0.49088 0.60002 0.17916 0.0
H2574 H 0.55426 0.59371 0.19186 0.0
H2575 H 0.53294 0.59233 0.21588 0.0
H2576 H 0.51231 0.56074 0.16548 0.0
C2577 C 0.4718 0.57517 0.11944 0.0
C2578 C 0.49546 0.59137 0.17765 0.0
C2579 C 0.4599 0.5764 0.10462 0.0
C2580 C 0.5481 0.58794 0.17327 0.0
C2581 C 0.53592 0.58721 0.18679 0.0
C2582 C 0.50774 0.56935 0.16945 0.0
C2583 C 0.47579 0.58115 0.1585 0.0
C2584 C 0.48885 0.58066 0.17051 0.0
C2585 C 0.52761 0.58013 0.16221 0.0
C2586 C 0.51442 0.58015 0.17244 0.0
H2587 H 0.44915 0.59473 0.18793 0.0
H2588 H 0.47029 0.59281 0.21352 0.0
H2589 H 0.49024 0.56119 0.1636 0.0
H2590 H 0.54661 0.56966 0.08081 0.0
H2591 H 0.52564 0.56822 0.10452 0.0
C2592 C 0.16177 0.13805 0.25083 0.0
C2593 C 0.15594 0.14791 0.23043 0.0
C2594 C 0.15641 0.1321 0.28732 0.0
C2595 C 0.1353 0.13668 0.37953 0.0
H2596 H 0.13172 0.10179 0.38017 0.0
C2597 C 0.10627 0.11212 0.51234 0.0
C2598 C 0.10936 0.10027 0.52451 0.0
C2599 C 0.11265 0.11808 0.47836 0.0
C2600 C 0.13287 0.11152 0.38109 0.0
H2601 H 0.13953 0.15857 0.22875 0.0
H2602 H 0.13027 0.14846 0.29378 0.0
H2603 H 0.14146 0.1117 0.31623 0.0
H2604 H 0.12229 0.0858 0.51514 0.0
H2605 H 0.13369 0.09625 0.45615 0.0
H2606 H 0.1271 0.13661 0.44467 0.0
C2607 C 0.1391 0.14552 0.28227 0.0
C2608 C 0.13837 0.11718 0.34425 0.0
C2609 C 0.14441 0.15136 0.24546 0.0
C2610 C 0.11953 0.0948 0.505 0.0
C2611 C 0.12598 0.10077 0.47109 0.0
C2612 C 0.13002 0.13103 0.41673 0.0
C2613 C 0.14509 0.13589 0.30367 0.0
C2614 C 0.13954 0.12982 0.34302 0.0
C2615 C 0.12244 0.11238 0.45653 0.0
C2616 C 0.12863 0.11837 0.41789 0.0
H2617 H 0.17055 0.13505 0.2389 0.0
H2618 H 0.16118 0.12467 0.3032 0.0
H2619 H 0.1362 0.14642 0.37951 0.0
H2620 H 0.09873 0.11666 0.52843 0.0
H2621 H 0.10958 0.12697 0.46816 0.0
C2622 C 0.11639 0.90927 0.50225 0.0
C2623 C 0.10629 0.90377 0.48221 0.0
C2624 C 0.12247 0.90353 0.53763 0.0
C2625 C 0.11762 0.88248 0.62911 0.0
H2626 H 0.15247 0.87855 0.63022 0.0
C2627 C 0.14168 0.85508 0.7678 0.0
C2628 C 0.15368 0.85791 0.77862 0.0
C2629 C 0.13583 0.86106 0.73255 0.0
C2630 C 0.14276 0.87981 0.63105 0.0
H2631 H 0.09534 0.88755 0.47968 0.0
H2632 H 0.10569 0.87765 0.54288 0.0
H2633 H 0.14268 0.888 0.56547 0.0
H2634 H 0.16859 0.87009 0.76558 0.0
H2635 H 0.15833 0.88088 0.70467 0.0
H2636 H 0.11756 0.8749 0.69517 0.0
C2637 C 0.10874 0.88649 0.5319 0.0
C2638 C 0.13716 0.88511 0.59369 0.0
C2639 C 0.10277 0.89217 0.49617 0.0
C2640 C 0.15944 0.86751 0.75653 0.0
C2641 C 0.15358 0.8736 0.72145 0.0
C2642 C 0.12321 0.87747 0.66694 0.0
C2643 C 0.11857 0.89218 0.55321 0.0
C2644 C 0.12454 0.88645 0.59237 0.0
C2645 C 0.14179 0.87023 0.70815 0.0
C2646 C 0.13586 0.87599 0.66842 0.0
H2647 H 0.11944 0.9181 0.49111 0.0
H2648 H 0.13004 0.90809 0.55349 0.0
H2649 H 0.10789 0.88345 0.62896 0.0
H2650 H 0.13691 0.84802 0.78589 0.0
H2651 H 0.12682 0.85811 0.72351 0.0
C2652 C 0.398 0.89073 0.01783 0.0
C2653 C 0.39516 0.9027 0.02908 0.0
C2654 C 0.39191 0.88493 0.98278 0.0
C2655 C 0.37293 0.89203 0.88217 0.0
H2656 H 0.3696 0.85715 0.87859 0.0
C2657 C 0.34377 0.86595 0.7518 0.0
C2658 C 0.34921 0.85578 0.73203 0.0
C2659 C 0.34948 0.87198 0.78733 0.0
C2660 C 0.37048 0.86689 0.87915 0.0
H2661 H 0.38285 0.91756 0.01717 0.0
H2662 H 0.37186 0.90736 0.95654 0.0
H2663 H 0.37808 0.86668 0.94516 0.0
H2664 H 0.36534 0.84469 0.73004 0.0
H2665 H 0.37522 0.85499 0.79337 0.0
H2666 H 0.36474 0.8921 0.8166 0.0
C2667 C 0.37923 0.90262 0.97283 0.0
C2668 C 0.37544 0.87239 0.9172 0.0
C2669 C 0.38543 0.90845 0.00774 0.0
C2670 C 0.36075 0.85217 0.74632 0.0
C2671 C 0.36642 0.85811 0.78213 0.0
C2672 C 0.36767 0.88651 0.84457 0.0
C2673 C 0.38263 0.89089 0.959 0.0
C2674 C 0.37682 0.88505 0.91919 0.0
C2675 C 0.36076 0.86798 0.80328 0.0
C2676 C 0.36644 0.87388 0.8427 0.0
H2677 H 0.40517 0.88598 0.03536 0.0
H2678 H 0.39488 0.87595 0.97331 0.0
H2679 H 0.37411 0.90175 0.88175 0.0
H2680 H 0.33498 0.86906 0.74041 0.0
H2681 H 0.34494 0.87958 0.80305 0.0
C2682 C 0.38547 0.09314 0.0088 0.0
C2683 C 0.39577 0.09863 0.99007 0.0
C2684 C 0.37918 0.0988 0.04386 0.0
C2685 C 0.38375 0.11949 0.13678 0.0
H2686 H 0.34892 0.12365 0.13659 0.0
C2687 C 0.35977 0.14694 0.27492 0.0
C2688 C 0.34775 0.14422 0.28585 0.0
C2689 C 0.36553 0.14098 0.23952 0.0
C2690 C 0.35863 0.12232 0.13776 0.0
H2691 H 0.40682 0.1148 0.98939 0.0
H2692 H 0.39608 0.12455 0.05198 0.0
H2693 H 0.35886 0.11426 0.07192 0.0
H2694 H 0.33268 0.13227 0.27248 0.0
H2695 H 0.34281 0.12147 0.21112 0.0
H2696 H 0.38367 0.12691 0.20304 0.0
C2697 C 0.39304 0.11577 0.04027 0.0
C2698 C 0.36431 0.11705 0.10045 0.0
C2699 C 0.39924 0.11017 0.00489 0.0
C2700 C 0.34185 0.13475 0.26343 0.0
C2701 C 0.34764 0.12866 0.22812 0.0
C2702 C 0.37808 0.12444 0.17451 0.0
C2703 C 0.38305 0.11006 0.06041 0.0
C2704 C 0.37693 0.11566 0.09958 0.0
C2705 C 0.35948 0.13188 0.215 0.0
C2706 C 0.36544 0.12605 0.17547 0.0
H2707 H 0.38246 0.08437 0.99697 0.0
H2708 H 0.37148 0.09423 0.0588 0.0
H2709 H 0.39348 0.11847 0.13704 0.0
H2710 H 0.36462 0.15393 0.2931 0.0
H2711 H 0.37458 0.14385 0.23053 0.0
C2712 C 0.8986 0.8946 0.48243 0.0
C2713 C 0.8958 0.90658 0.47123 0.0
C2714 C 0.8928 0.88893 0.51842 0.0
C2715 C 0.87427 0.89594 0.62057 0.0
H2716 H 0.87045 0.8611 0.62171 0.0
C2717 C 0.84471 0.86923 0.74871 0.0
C2718 C 0.85 0.85879 0.76714 0.0
C2719 C 0.85055 0.87555 0.71416 0.0
C2720 C 0.87145 0.87083 0.62186 0.0
H2721 H 0.88391 0.92168 0.48486 0.0
H2722 H 0.87337 0.91169 0.54715 0.0
H2723 H 0.87892 0.87084 0.55571 0.0
H2724 H 0.86602 0.84752 0.76791 0.0
H2725 H 0.8761 0.85834 0.7063 0.0
H2726 H 0.86611 0.89577 0.68627 0.0
C2727 C 0.88051 0.90683 0.52995 0.0
C2728 C 0.87643 0.87646 0.58413 0.0
C2729 C 0.88645 0.91253 0.49409 0.0
C2730 C 0.86154 0.85522 0.75264 0.0
C2731 C 0.86734 0.86146 0.71781 0.0
C2732 C 0.86895 0.8903 0.65787 0.0
C2733 C 0.88379 0.89502 0.54323 0.0
C2734 C 0.87801 0.88909 0.58298 0.0
C2735 C 0.86181 0.87159 0.69785 0.0
C2736 C 0.86755 0.87767 0.65888 0.0
H2737 H 0.90549 0.8897 0.46392 0.0
H2738 H 0.89571 0.87991 0.5275 0.0
H2739 H 0.87558 0.90564 0.62161 0.0
H2740 H 0.83593 0.8723 0.76029 0.0
H2741 H 0.84611 0.88334 0.69934 0.0
C2742 C 0.85934 0.15034 0.24665 0.0
C2743 C 0.84776 0.1472 0.23131 0.0
C2744 C 0.86452 0.14422 0.28305 0.0
C2745 C 0.86528 0.11561 0.34249 0.0
H2746 H 0.8757 0.13453 0.44543 0.0
C2747 C 0.88461 0.0927 0.50235 0.0
C2748 C 0.89419 0.09864 0.52397 0.0
C2749 C 0.87818 0.0985 0.4679 0.0
C2750 C 0.87306 0.12907 0.41679 0.0
H2751 H 0.8329 0.1346 0.23883 0.0
H2752 H 0.8421 0.12364 0.30226 0.0
H2753 H 0.86675 0.14458 0.38086 0.0
H2754 H 0.90381 0.11558 0.53059 0.0
H2755 H 0.89314 0.12556 0.46941 0.0
H2756 H 0.87227 0.10011 0.37694 0.0
C2757 C 0.84699 0.13108 0.28698 0.0
C2758 C 0.8678 0.13487 0.37996 0.0
C2759 C 0.84172 0.13735 0.251 0.0
C2760 C 0.89674 0.11069 0.51299 0.0
C2761 C 0.89043 0.11646 0.47843 0.0
C2762 C 0.87086 0.10979 0.3789 0.0
C2763 C 0.85838 0.13456 0.3036 0.0
C2764 C 0.86383 0.12823 0.34257 0.0
C2765 C 0.88116 0.1104 0.4549 0.0
C2766 C 0.87484 0.11646 0.41661 0.0
H2767 H 0.8644 0.15751 0.2304 0.0
H2768 H 0.8734 0.14694 0.29484 0.0
H2769 H 0.86238 0.1103 0.31374 0.0
H2770 H 0.88227 0.08349 0.51147 0.0
H2771 H 0.87089 0.09364 0.45159 0.0
C2772 C 0.66113 0.13876 0.25451 0.0
C2773 C 0.65538 0.14864 0.27507 0.0
C2774 C 0.65574 0.13291 0.21788 0.0
C2775 C 0.63526 0.13786 0.12473 0.0
H2776 H 0.63067 0.10309 0.12404 0.0
C2777 C 0.6068 0.11407 0.98825 0.0
C2778 C 0.60936 0.102 0.97758 0.0
C2779 C 0.61315 0.11991 0.0226 0.0
C2780 C 0.6321 0.11278 0.1231 0.0
H2781 H 0.63904 0.15942 0.27694 0.0
H2782 H 0.62975 0.1495 0.21146 0.0
H2783 H 0.64014 0.11278 0.18895 0.0
H2784 H 0.62144 0.08696 0.98977 0.0
H2785 H 0.63283 0.09719 0.04925 0.0
H2786 H 0.62771 0.13798 0.05855 0.0
C2787 C 0.63854 0.14646 0.22307 0.0
C2788 C 0.63744 0.11831 0.16054 0.0
C2789 C 0.64387 0.15219 0.2601 0.0
C2790 C 0.61907 0.09616 0.99876 0.0
C2791 C 0.62551 0.10201 0.03299 0.0
C2792 C 0.63018 0.13233 0.08689 0.0
C2793 C 0.64448 0.13682 0.2015 0.0
C2794 C 0.63897 0.13091 0.16177 0.0
C2795 C 0.6224 0.11386 0.04629 0.0
C2796 C 0.62842 0.11971 0.08565 0.0
H2797 H 0.66988 0.13568 0.2664 0.0
H2798 H 0.66046 0.12547 0.20186 0.0
H2799 H 0.63645 0.14756 0.12477 0.0
H2800 H 0.59965 0.11888 0.97083 0.0
H2801 H 0.61042 0.129 0.03168 0.0
C2802 C 0.65993 0.8701 0.74365 0.0
C2803 C 0.65406 0.86034 0.72296 0.0
C2804 C 0.65416 0.87654 0.7781 0.0
C2805 C 0.6436 0.88324 0.86866 0.0
H2806 H 0.60873 0.88666 0.87241 0.0
C2807 C 0.61742 0.91179 1.00119 0.0
C2808 C 0.60727 0.90619 0.02049 0.0
C2809 C 0.62349 0.90632 0.96521 0.0
C2810 C 0.61846 0.88577 0.87181 0.0
H2811 H 0.63721 0.85051 0.71733 0.0
H2812 H 0.62728 0.86124 0.77847 0.0
H2813 H 0.61822 0.87825 0.80568 0.0
H2814 H 0.59626 0.88999 0.02111 0.0
H2815 H 0.60663 0.88054 0.95707 0.0
H2816 H 0.6437 0.89131 0.93444 0.0
C2817 C 0.6363 0.86406 0.76885 0.0
C2818 C 0.62395 0.88084 0.83365 0.0
C2819 C 0.64205 0.85772 0.73431 0.0
C2820 C 0.60373 0.89471 0.00525 0.0
C2821 C 0.60971 0.88929 0.969 0.0
C2822 C 0.6381 0.88846 0.9064 0.0
C2823 C 0.64237 0.87338 0.79208 0.0
C2824 C 0.6366 0.87937 0.83165 0.0
C2825 C 0.61955 0.89512 0.94831 0.0
C2826 C 0.62547 0.88968 0.90841 0.0
H2827 H 0.66909 0.87249 0.73416 0.0
H2828 H 0.659 0.88391 0.79401 0.0
H2829 H 0.65333 0.88202 0.86903 0.0
H2830 H 0.62048 0.92052 0.0133 0.0
H2831 H 0.63108 0.91098 0.94988 0.0
C2832 C 0.61746 0.59255 0.99954 0.0
C2833 C 0.60732 0.59824 0.01858 0.0
C2834 C 0.62363 0.59796 0.96366 0.0
C2835 C 0.61872 0.61847 0.87005 0.0
H2836 H 0.65362 0.62164 0.8661 0.0
C2837 C 0.64228 0.64589 0.73108 0.0
C2838 C 0.6543 0.64329 0.71986 0.0
C2839 C 0.63654 0.63962 0.76575 0.0
C2840 C 0.64388 0.62057 0.86602 0.0
H2841 H 0.59646 0.61453 0.01897 0.0
H2842 H 0.60702 0.62388 0.95516 0.0
H2843 H 0.644 0.61261 0.93201 0.0
H2844 H 0.66934 0.63115 0.73133 0.0
H2845 H 0.65924 0.6198 0.79134 0.0
H2846 H 0.61843 0.62581 0.8037 0.0
C2847 C 0.61001 0.61512 0.96719 0.0
C2848 C 0.63839 0.6155 0.90407 0.0
C2849 C 0.60392 0.60976 0.00331 0.0
C2850 C 0.66017 0.63354 0.74072 0.0
C2851 C 0.6544 0.62715 0.77528 0.0
C2852 C 0.62419 0.6232 0.83155 0.0
C2853 C 0.61981 0.60919 0.94663 0.0
C2854 C 0.62574 0.6145 0.90653 0.0
C2855 C 0.64262 0.63035 0.78923 0.0
C2856 C 0.63685 0.62448 0.8291 0.0
H2857 H 0.62041 0.58378 0.01168 0.0
H2858 H 0.63118 0.59321 0.94843 0.0
H2859 H 0.60897 0.61777 0.87101 0.0
H2860 H 0.63744 0.65308 0.71396 0.0
H2861 H 0.62753 0.64248 0.77529 0.0
C2862 C 0.64368 0.35245 0.2581 0.0
C2863 C 0.65518 0.35606 0.27292 0.0
C2864 C 0.63816 0.35835 0.22186 0.0
C2865 C 0.63706 0.3867 0.15943 0.0
H2866 H 0.6269 0.36689 0.05843 0.0
C2867 C 0.61889 0.40868 0.99697 0.0
C2868 C 0.60916 0.40286 0.9759 0.0
C2869 C 0.62526 0.40286 0.03145 0.0
C2870 C 0.62947 0.3726 0.0865 0.0
H2871 H 0.66947 0.36928 0.26499 0.0
H2872 H 0.65976 0.37975 0.20165 0.0
H2873 H 0.6354 0.35736 0.125 0.0
H2874 H 0.59933 0.38603 0.96957 0.0
H2875 H 0.60993 0.376 0.03086 0.0
H2876 H 0.63053 0.40193 0.12239 0.0
C2877 C 0.65516 0.37217 0.21726 0.0
C2878 C 0.63445 0.36709 0.12454 0.0
C2879 C 0.66072 0.36618 0.2532 0.0
C2880 C 0.6065 0.39084 0.9869 0.0
C2881 C 0.61276 0.38503 0.02151 0.0
C2882 C 0.63179 0.39222 0.12183 0.0
C2883 C 0.64392 0.36818 0.20083 0.0
C2884 C 0.63836 0.37408 0.16119 0.0
C2885 C 0.62204 0.39106 0.0451 0.0
C2886 C 0.62797 0.38524 0.0847 0.0
H2887 H 0.63901 0.345 0.2743 0.0
H2888 H 0.6294 0.35524 0.21026 0.0
H2889 H 0.6399 0.39228 0.18755 0.0
H2890 H 0.62133 0.41785 0.98772 0.0
H2891 H 0.63261 0.40766 0.04761 0.0
C2892 C 0.89588 0.3939 0.51857 0.0
C2893 C 0.89375 0.40609 0.52858 0.0
C2894 C 0.88943 0.38819 0.4843 0.0
C2895 C 0.87104 0.39526 0.38249 0.0
H2896 H 0.8658 0.36063 0.38479 0.0
C2897 C 0.84261 0.36731 0.25269 0.0
C2898 C 0.84899 0.35765 0.23322 0.0
C2899 C 0.84761 0.37377 0.28872 0.0
C2900 C 0.86721 0.37028 0.38376 0.0
H2901 H 0.88238 0.42158 0.51486 0.0
H2902 H 0.87078 0.41155 0.45518 0.0
H2903 H 0.87417 0.37057 0.45072 0.0
H2904 H 0.86601 0.34796 0.2324 0.0
H2905 H 0.87455 0.35885 0.2971 0.0
H2906 H 0.86354 0.39481 0.31567 0.0
C2907 C 0.87784 0.40652 0.47221 0.0
C2908 C 0.8721 0.37602 0.42141 0.0
C2909 C 0.88438 0.41225 0.5065 0.0
C2910 C 0.8607 0.35497 0.2485 0.0
C2911 C 0.86562 0.36128 0.28498 0.0
C2912 C 0.86585 0.38951 0.34515 0.0
C2913 C 0.88047 0.39448 0.45995 0.0
C2914 C 0.8743 0.38857 0.42109 0.0
C2915 C 0.85906 0.37066 0.30558 0.0
C2916 C 0.86407 0.37694 0.34535 0.0
H2917 H 0.90279 0.38888 0.53651 0.0
H2918 H 0.89186 0.37897 0.47587 0.0
H2919 H 0.87277 0.40489 0.38053 0.0
H2920 H 0.83368 0.36972 0.24052 0.0
H2921 H 0.84243 0.38101 0.30404 0.0
C2922 C 0.86133 0.64889 0.75585 0.0
C2923 C 0.8498 0.64521 0.77013 0.0
C2924 C 0.86715 0.6428 0.72074 0.0
C2925 C 0.86892 0.6142 0.65954 0.0
H2926 H 0.87863 0.63401 0.55798 0.0
C2927 C 0.88675 0.59237 0.49582 0.0
C2928 C 0.89605 0.59845 0.47316 0.0
C2929 C 0.88064 0.59802 0.53136 0.0
C2930 C 0.87623 0.6283 0.58621 0.0
H2931 H 0.83579 0.63167 0.76261 0.0
H2932 H 0.84603 0.62089 0.70117 0.0
H2933 H 0.87021 0.6435 0.62453 0.0
H2934 H 0.9054 0.61551 0.46555 0.0
H2935 H 0.89534 0.62522 0.52867 0.0
H2936 H 0.87564 0.59901 0.62269 0.0
C2937 C 0.85043 0.62864 0.71638 0.0
C2938 C 0.87126 0.63378 0.62426 0.0
C2939 C 0.84456 0.63482 0.75121 0.0
C2940 C 0.89857 0.61052 0.484 0.0
C2941 C 0.8926 0.61613 0.51971 0.0
C2942 C 0.87425 0.6087 0.62197 0.0
C2943 C 0.86167 0.63272 0.70028 0.0
C2944 C 0.86744 0.6268 0.66103 0.0
C2945 C 0.8837 0.60989 0.54458 0.0
C2946 C 0.87789 0.61567 0.58455 0.0
H2947 H 0.86576 0.65656 0.7715 0.0
H2948 H 0.87591 0.646 0.70938 0.0
H2949 H 0.86615 0.60862 0.68776 0.0
H2950 H 0.88441 0.58316 0.48678 0.0
H2951 H 0.87357 0.59304 0.54849 0.0
C2952 C 0.34198 0.3677 0.26553 0.0
C2953 C 0.34788 0.35817 0.2876 0.0
C2954 C 0.34775 0.37386 0.23039 0.0
C2955 C 0.37817 0.37827 0.17696 0.0
H2956 H 0.35896 0.38836 0.07419 0.0
C2957 C 0.39927 0.39236 0.00704 0.0
C2958 C 0.3958 0.40387 0.99197 0.0
C2959 C 0.39311 0.38683 0.04265 0.0
C2960 C 0.3644 0.3856 0.10279 0.0
H2961 H 0.36475 0.34843 0.29442 0.0
H2962 H 0.37469 0.35868 0.23216 0.0
H2963 H 0.34903 0.37893 0.13882 0.0
H2964 H 0.38253 0.41817 0.99873 0.0
H2965 H 0.3716 0.40844 0.06096 0.0
H2966 H 0.39356 0.38433 0.13964 0.0
C2967 C 0.36564 0.36152 0.24129 0.0
C2968 C 0.35872 0.3803 0.14005 0.0
C2969 C 0.35989 0.35546 0.2765 0.0
C2970 C 0.38554 0.40942 0.01075 0.0
C2971 C 0.37928 0.40384 0.04603 0.0
C2972 C 0.38384 0.38326 0.1393 0.0
C2973 C 0.35959 0.37067 0.21713 0.0
C2974 C 0.36554 0.3766 0.17777 0.0
C2975 C 0.38314 0.39259 0.06277 0.0
C2976 C 0.37702 0.38704 0.10202 0.0
H2977 H 0.33281 0.37016 0.27472 0.0
H2978 H 0.34292 0.38109 0.21361 0.0
H2979 H 0.38374 0.37581 0.20553 0.0
H2980 H 0.40682 0.38769 0.99152 0.0
H2981 H 0.39614 0.37807 0.05452 0.0
C2982 C 0.38583 0.595 0.99674 0.0
C2983 C 0.39615 0.60056 0.01497 0.0
C2984 C 0.37945 0.60055 0.96166 0.0
C2985 C 0.38369 0.6211 0.86801 0.0
H2986 H 0.34883 0.62502 0.86948 0.0
C2987 C 0.35907 0.64816 0.73034 0.0
C2988 C 0.3471 0.64518 0.71955 0.0
C2989 C 0.36497 0.64236 0.7658 0.0
C2990 C 0.35855 0.62377 0.86799 0.0
H2991 H 0.40719 0.61673 0.01467 0.0
H2992 H 0.39629 0.6263 0.95206 0.0
H2993 H 0.35902 0.61581 0.93399 0.0
H2994 H 0.33226 0.63299 0.73336 0.0
H2995 H 0.34263 0.62249 0.79491 0.0
H2996 H 0.38336 0.62846 0.80163 0.0
C2997 C 0.3933 0.61755 0.96419 0.0
C2998 C 0.36437 0.61859 0.90518 0.0
C2999 C 0.39958 0.61205 0.99957 0.0
C3000 C 0.34139 0.63566 0.74228 0.0
C3001 C 0.34731 0.62974 0.77768 0.0
C3002 C 0.37788 0.62598 0.83044 0.0
C3003 C 0.38326 0.61178 0.9446 0.0
C3004 C 0.377 0.61728 0.90556 0.0
C3005 C 0.35911 0.63319 0.79054 0.0
C3006 C 0.36523 0.62748 0.82996 0.0
H3007 H 0.38285 0.58626 0.00902 0.0
H3008 H 0.37173 0.59593 0.94715 0.0
H3009 H 0.39342 0.62013 0.86737 0.0
H3010 H 0.36379 0.6552 0.71193 0.0
H3011 H 0.37398 0.64539 0.77462 0.0
C3012 C 0.14265 0.65066 0.75621 0.0
C3013 C 0.15441 0.64756 0.76978 0.0
C3014 C 0.13723 0.64478 0.71969 0.0
C3015 C 0.13685 0.61655 0.65694 0.0
H3016 H 0.12458 0.63578 0.55766 0.0
C3017 C 0.1185 0.59366 0.49634 0.0
C3018 C 0.10855 0.59907 0.47506 0.0
C3019 C 0.12459 0.59972 0.53094 0.0
C3020 C 0.12773 0.63022 0.5853 0.0
H3021 H 0.16938 0.63529 0.7588 0.0
H3022 H 0.15981 0.62478 0.69517 0.0
H3023 H 0.13339 0.64573 0.62279 0.0
H3024 H 0.09801 0.61546 0.46887 0.0
H3025 H 0.10808 0.62587 0.53064 0.0
H3026 H 0.13053 0.60101 0.62123 0.0
C3027 C 0.15493 0.63199 0.71196 0.0
C3028 C 0.13292 0.63598 0.62245 0.0
C3029 C 0.16041 0.63801 0.74808 0.0
C3030 C 0.10534 0.61094 0.48637 0.0
C3031 C 0.11131 0.61697 0.52124 0.0
C3032 C 0.13136 0.61077 0.62034 0.0
C3033 C 0.14334 0.63541 0.6972 0.0
C3034 C 0.13763 0.62922 0.65838 0.0
C3035 C 0.12089 0.61136 0.5447 0.0
C3036 C 0.1268 0.61751 0.58374 0.0
H3037 H 0.13764 0.65761 0.77396 0.0
H3038 H 0.12821 0.64745 0.70938 0.0
H3039 H 0.14028 0.61114 0.68459 0.0
H3040 H 0.12139 0.58464 0.48686 0.0
H3041 H 0.13218 0.59524 0.54686 0.0
C3042 C 0.16262 0.36514 0.25487 0.0
C3043 C 0.15651 0.35536 0.23503 0.0
C3044 C 0.15751 0.37128 0.29141 0.0
C3045 C 0.13736 0.36726 0.38578 0.0
H3046 H 0.13244 0.40198 0.38301 0.0
C3047 C 0.10829 0.39149 0.51865 0.0
C3048 C 0.11075 0.40359 0.52912 0.0
C3049 C 0.11478 0.3856 0.48484 0.0
C3050 C 0.13398 0.39232 0.38487 0.0
H3051 H 0.13986 0.34506 0.23438 0.0
H3052 H 0.13108 0.35546 0.29977 0.0
H3053 H 0.14195 0.39189 0.3189 0.0
H3054 H 0.12271 0.41871 0.51676 0.0
H3055 H 0.13435 0.4084 0.45794 0.0
H3056 H 0.12984 0.36756 0.45199 0.0
C3057 C 0.13992 0.3582 0.28764 0.0
C3058 C 0.13933 0.38656 0.34794 0.0
C3059 C 0.14496 0.35219 0.25069 0.0
C3060 C 0.12045 0.40947 0.508 0.0
C3061 C 0.12702 0.40357 0.4742 0.0
C3062 C 0.13225 0.37302 0.42306 0.0
C3063 C 0.14619 0.36775 0.30843 0.0
C3064 C 0.14093 0.37396 0.34794 0.0
C3065 C 0.12408 0.39164 0.46143 0.0
C3066 C 0.13033 0.38562 0.42294 0.0
H3067 H 0.17141 0.36793 0.24242 0.0
H3068 H 0.16247 0.37866 0.30683 0.0
H3069 H 0.13862 0.35757 0.38668 0.0
H3070 H 0.10111 0.38666 0.5359 0.0
H3071 H 0.11214 0.37647 0.47601 0.0
loop_
_geom_bond_atom_site_label_1
_geom_bond_atom_site_label_2
_geom_bond_distance
_geom_bond_site_symmetry_2
_ccdc_geom_bond_type
Mn0 O5 2.095 . S
Mn0 O15 2.162 . S
Mn0 O16 2.297 . S
Mn0 O24 2.385 . S
Mn0 O25 2.209 . S
Mn0 O26 2.094 . S
Mn1 O6 2.121 . S
Mn1 N8 2.257 . S
Mn1 N17 2.282 . S
Mn1 O25 2.215 . S
Mn1 O27 2.117 . S
C2 O24 1.234 . S
C2 O25 1.283 . S
C3 O15 1.281 . S
C3 O16 1.236 . S
C4 O26 1.240 . S
C4 O27 1.264 . S
O5 Mn0 2.095 . S
O5 C14 1.250 . S
O6 Mn1 2.121 . S
O6 C14 1.258 . S
C7 N8 1.326 . S
C7 C11 1.460 . S
C7 H13 0.929 . S
N8 Mn1 2.257 . S
N8 C7 1.326 . S
N8 C12 1.362 . S
C9 C10 1.258 . S
C9 C12 1.431 . S
C9 C29 1.449 . S
C10 C9 1.258 . S
C10 C11 1.477 . S
C10 H30 0.931 . S
C11 C7 1.460 . S
C11 C10 1.477 . S
C11 H31 0.930 . S
C12 N8 1.362 . S
C12 C9 1.431 . S
C12 C22 1.476 . S
H13 C7 0.929 . S
C14 O5 1.250 . S
C14 O6 1.258 . S
O15 Mn0 2.162 . S
O15 C3 1.281 . S
O16 Mn0 2.297 . S
O16 C3 1.236 . S
N17 Mn1 2.282 . S
N17 C18 1.328 . S
N17 C22 1.318 . S
C18 N17 1.328 . S
C18 C19 1.457 . S
C18 H23 0.929 . S
C19 C18 1.457 . S
C19 C20 1.291 . S
C19 H32 0.931 . S
C20 C19 1.291 . S
C20 C21 1.373 . S
C20 H33 0.929 . S
C21 C20 1.373 . S
C21 C22 1.396 . S
C21 C28 1.403 . S
C22 C12 1.476 . S
C22 N17 1.318 . S
C22 C21 1.396 . S
H23 C18 0.929 . S
O24 Mn0 2.385 . S
O24 C2 1.234 . S
O25 Mn0 2.209 . S
O25 Mn1 2.215 . S
O25 C2 1.283 . S
O26 Mn0 2.094 . S
O26 C4 1.240 . S
O27 Mn1 2.117 . S
O27 C4 1.264 . S
C28 C21 1.403 . S
C28 C29 1.399 . S
C28 H34 0.929 . S
C29 C9 1.449 . S
C29 C28 1.399 . S
C29 H35 0.930 . S
H30 C10 0.931 . S
H31 C11 0.930 . S
H32 C19 0.931 . S
H33 C20 0.929 . S
H34 C28 0.929 . S
H35 C29 0.930 . S
Mn36 O41 2.095 . S
Mn36 O51 2.162 . S
Mn36 O52 2.297 . S
Mn36 O60 2.385 . S
Mn36 O61 2.209 . S
Mn36 O62 2.094 . S
Mn37 O42 2.121 . S
Mn37 N44 2.257 . S
Mn37 N53 2.282 . S
Mn37 O61 2.215 . S
Mn37 O63 2.117 . S
C38 O60 1.234 . S
C38 O61 1.283 . S
C39 O51 1.281 . S
C39 O52 1.236 . S
C40 O62 1.240 . S
C40 O63 1.264 . S
O41 Mn36 2.095 . S
O41 C50 1.250 . S
O42 Mn37 2.121 . S
O42 C50 1.258 . S
C43 N44 1.326 . S
C43 C47 1.460 . S
C43 H49 0.929 . S
N44 Mn37 2.257 . S
N44 C43 1.326 . S
N44 C48 1.362 . S
C45 C46 1.258 . S
C45 C48 1.431 . S
C45 C65 1.449 . S
C46 C45 1.258 . S
C46 C47 1.477 . S
C46 H66 0.931 . S
C47 C43 1.460 . S
C47 C46 1.477 . S
C47 H67 0.930 . S
C48 N44 1.362 . S
C48 C45 1.431 . S
C48 C58 1.476 . S
H49 C43 0.929 . S
C50 O41 1.250 . S
C50 O42 1.258 . S
O51 Mn36 2.162 . S
O51 C39 1.281 . S
O52 Mn36 2.297 . S
O52 C39 1.236 . S
N53 Mn37 2.282 . S
N53 C54 1.328 . S
N53 C58 1.318 . S
C54 N53 1.328 . S
C54 C55 1.457 . S
C54 H59 0.929 . S
C55 C54 1.457 . S
C55 C56 1.291 . S
C55 H68 0.931 . S
C56 C55 1.291 . S
C56 C57 1.373 . S
C56 H69 0.929 . S
C57 C56 1.373 . S
C57 C58 1.396 . S
C57 C64 1.403 . S
C58 C48 1.476 . S
C58 N53 1.318 . S
C58 C57 1.396 . S
H59 C54 0.929 . S
O60 Mn36 2.385 . S
O60 C38 1.234 . S
O61 Mn36 2.209 . S
O61 Mn37 2.215 . S
O61 C38 1.283 . S
O62 Mn36 2.094 . S
O62 C40 1.240 . S
O63 Mn37 2.117 . S
O63 C40 1.264 . S
C64 C57 1.403 . S
C64 C65 1.399 . S
C64 H70 0.929 . S
C65 C45 1.449 . S
C65 C64 1.399 . S
C65 H71 0.930 . S
H66 C46 0.931 . S
H67 C47 0.930 . S
H68 C55 0.931 . S
H69 C56 0.929 . S
H70 C64 0.929 . S
H71 C65 0.930 . S
Mn72 O77 2.095 . S
Mn72 O87 2.162 . S
Mn72 O88 2.297 . S
Mn72 O96 2.385 . S
Mn72 O97 2.209 . S
Mn72 O98 2.094 . S
Mn73 O78 2.121 . S
Mn73 N80 2.257 . S
Mn73 N89 2.282 . S
Mn73 O97 2.215 . S
Mn73 O99 2.117 . S
C74 O96 1.234 . S
C74 O97 1.283 . S
C75 O87 1.281 . S
C75 O88 1.236 . S
C76 O98 1.240 . S
C76 O99 1.264 . S
O77 Mn72 2.095 . S
O77 C86 1.250 . S
O78 Mn73 2.121 . S
O78 C86 1.258 . S
C79 N80 1.326 . S
C79 C83 1.460 . S
C79 H85 0.929 . S
N80 Mn73 2.257 . S
N80 C79 1.326 . S
N80 C84 1.362 . S
C81 C82 1.258 . S
C81 C84 1.431 . S
C81 C101 1.449 . S
C82 C81 1.258 . S
C82 C83 1.477 . S
C82 H102 0.931 . S
C83 C79 1.460 . S
C83 C82 1.477 . S
C83 H103 0.930 . S
C84 N80 1.362 . S
C84 C81 1.431 . S
C84 C94 1.476 . S
H85 C79 0.929 . S
C86 O77 1.250 . S
C86 O78 1.258 . S
O87 Mn72 2.162 . S
O87 C75 1.281 . S
O88 Mn72 2.297 . S
O88 C75 1.236 . S
N89 Mn73 2.282 . S
N89 C90 1.328 . S
N89 C94 1.318 . S
C90 N89 1.328 . S
C90 C91 1.457 . S
C90 H95 0.929 . S
C91 C90 1.457 . S
C91 C92 1.291 . S
C91 H104 0.931 . S
C92 C91 1.291 . S
C92 C93 1.373 . S
C92 H105 0.929 . S
C93 C92 1.373 . S
C93 C94 1.396 . S
C93 C100 1.403 . S
C94 C84 1.476 . S
C94 N89 1.318 . S
C94 C93 1.396 . S
H95 C90 0.929 . S
O96 Mn72 2.385 . S
O96 C74 1.234 . S
O97 Mn72 2.209 . S
O97 Mn73 2.215 . S
O97 C74 1.283 . S
O98 Mn72 2.094 . S
O98 C76 1.240 . S
O99 Mn73 2.117 . S
O99 C76 1.264 . S
C100 C93 1.403 . S
C100 C101 1.399 . S
C100 H106 0.929 . S
C101 C81 1.449 . S
C101 C100 1.399 . S
C101 H107 0.930 . S
H102 C82 0.931 . S
H103 C83 0.930 . S
H104 C91 0.931 . S
H105 C92 0.929 . S
H106 C100 0.929 . S
H107 C101 0.930 . S
Mn108 O113 2.095 . S
Mn108 O123 2.162 . S
Mn108 O124 2.297 . S
Mn108 O132 2.385 . S
Mn108 O133 2.209 . S
Mn108 O134 2.094 . S
Mn109 O114 2.121 . S
Mn109 N116 2.257 1_556 S
Mn109 N125 2.282 1_556 S
Mn109 O133 2.215 . S
Mn109 O135 2.117 . S
C110 O132 1.234 . S
C110 O133 1.283 . S
C111 O123 1.281 . S
C111 O124 1.236 . S
C112 O134 1.240 . S
C112 O135 1.264 . S
O113 Mn108 2.095 . S
O113 C122 1.250 . S
O114 Mn109 2.121 . S
O114 C122 1.258 . S
C115 N116 1.326 . S
C115 C119 1.460 . S
C115 H121 0.929 1_554 S
N116 Mn109 2.257 1_554 S
N116 C115 1.326 . S
N116 C120 1.362 . S
C117 C118 1.258 . S
C117 C120 1.431 . S
C117 C137 1.449 . S
C118 C117 1.258 . S
C118 C119 1.477 . S
C118 H138 0.931 . S
C119 C115 1.460 . S
C119 C118 1.477 . S
C119 H139 0.930 . S
C120 N116 1.362 . S
C120 C117 1.431 . S
C120 C130 1.476 . S
H121 C115 0.929 1_556 S
C122 O113 1.250 . S
C122 O114 1.258 . S
O123 Mn108 2.162 . S
O123 C111 1.281 . S
O124 Mn108 2.297 . S
O124 C111 1.236 . S
N125 Mn109 2.282 1_554 S
N125 C126 1.328 . S
N125 C130 1.318 . S
C126 N125 1.328 . S
C126 C127 1.457 . S
C126 H131 0.929 . S
C127 C126 1.457 . S
C127 C128 1.291 . S
C127 H140 0.931 . S
C128 C127 1.291 . S
C128 C129 1.373 . S
C128 H141 0.929 . S
C129 C128 1.373 . S
C129 C130 1.396 . S
C129 C136 1.403 . S
C130 C120 1.476 . S
C130 N125 1.318 . S
C130 C129 1.396 . S
H131 C126 0.929 . S
O132 Mn108 2.385 . S
O132 C110 1.234 . S
O133 Mn108 2.209 . S
O133 Mn109 2.215 . S
O133 C110 1.283 . S
O134 Mn108 2.094 . S
O134 C112 1.240 . S
O135 Mn109 2.117 . S
O135 C112 1.264 . S
C136 C129 1.403 . S
C136 C137 1.399 . S
C136 H142 0.929 . S
C137 C117 1.449 . S
C137 C136 1.399 . S
C137 H143 0.930 . S
H138 C118 0.931 . S
H139 C119 0.930 . S
H140 C127 0.931 . S
H141 C128 0.929 . S
H142 C136 0.929 . S
H143 C137 0.930 . S
Mn144 O149 2.095 . S
Mn144 O159 2.162 . S
Mn144 O160 2.297 . S
Mn144 O168 2.385 . S
Mn144 O169 2.209 . S
Mn144 O170 2.094 . S
Mn145 O150 2.121 . S
Mn145 N152 2.257 . S
Mn145 N161 2.282 . S
Mn145 O169 2.215 . S
Mn145 O171 2.117 . S
C146 O168 1.234 . S
C146 O169 1.283 . S
C147 O159 1.281 . S
C147 O160 1.236 . S
C148 O170 1.240 . S
C148 O171 1.264 . S
O149 Mn144 2.095 . S
O149 C158 1.250 . S
O150 Mn145 2.121 . S
O150 C158 1.258 . S
C151 N152 1.326 . S
C151 C155 1.460 . S
C151 H157 0.929 . S
N152 Mn145 2.257 . S
N152 C151 1.326 . S
N152 C156 1.362 . S
C153 C154 1.258 . S
C153 C156 1.431 . S
C153 C173 1.449 . S
C154 C153 1.258 . S
C154 C155 1.477 . S
C154 H174 0.931 . S
C155 C151 1.460 . S
C155 C154 1.477 . S
C155 H175 0.930 . S
C156 N152 1.362 . S
C156 C153 1.431 . S
C156 C166 1.476 . S
H157 C151 0.929 . S
C158 O149 1.250 . S
C158 O150 1.258 . S
O159 Mn144 2.162 . S
O159 C147 1.281 . S
O160 Mn144 2.297 . S
O160 C147 1.236 . S
N161 Mn145 2.282 . S
N161 C162 1.328 . S
N161 C166 1.318 . S
C162 N161 1.328 . S
C162 C163 1.457 . S
C162 H167 0.929 . S
C163 C162 1.457 . S
C163 C164 1.291 . S
C163 H176 0.931 . S
C164 C163 1.291 . S
C164 C165 1.373 . S
C164 H177 0.929 . S
C165 C164 1.373 . S
C165 C166 1.396 . S
C165 C172 1.403 . S
C166 C156 1.476 . S
C166 N161 1.318 . S
C166 C165 1.396 . S
H167 C162 0.929 . S
O168 Mn144 2.385 . S
O168 C146 1.234 . S
O169 Mn144 2.209 . S
O169 Mn145 2.215 . S
O169 C146 1.283 . S
O170 Mn144 2.094 . S
O170 C148 1.240 . S
O171 Mn145 2.117 . S
O171 C148 1.264 . S
C172 C165 1.403 . S
C172 C173 1.399 . S
C172 H178 0.929 . S
C173 C153 1.449 . S
C173 C172 1.399 . S
C173 H179 0.930 . S
H174 C154 0.931 . S
H175 C155 0.930 . S
H176 C163 0.931 . S
H177 C164 0.929 . S
H178 C172 0.929 . S
H179 C173 0.930 . S
Mn180 O185 2.095 . S
Mn180 O195 2.162 . S
Mn180 O196 2.297 . S
Mn180 O204 2.385 . S
Mn180 O205 2.209 . S
Mn180 O206 2.094 . S
Mn181 O186 2.121 . S
Mn181 N188 2.257 1_554 S
Mn181 N197 2.282 1_554 S
Mn181 O205 2.215 . S
Mn181 O207 2.117 . S
C182 O204 1.234 . S
C182 O205 1.283 . S
C183 O195 1.281 . S
C183 O196 1.236 . S
C184 O206 1.240 . S
C184 O207 1.264 . S
O185 Mn180 2.095 . S
O185 C194 1.250 . S
O186 Mn181 2.121 . S
O186 C194 1.258 . S
C187 N188 1.326 . S
C187 C191 1.460 . S
C187 H193 0.929 1_556 S
N188 Mn181 2.257 1_556 S
N188 C187 1.326 . S
N188 C192 1.362 . S
C189 C190 1.258 . S
C189 C192 1.431 . S
C189 C209 1.449 . S
C190 C189 1.258 . S
C190 C191 1.477 . S
C190 H210 0.931 . S
C191 C187 1.460 . S
C191 C190 1.477 . S
C191 H211 0.930 . S
C192 N188 1.362 . S
C192 C189 1.431 . S
C192 C202 1.476 . S
H193 C187 0.929 1_554 S
C194 O185 1.250 . S
C194 O186 1.258 . S
O195 Mn180 2.162 . S
O195 C183 1.281 . S
O196 Mn180 2.297 . S
O196 C183 1.236 . S
N197 Mn181 2.282 1_556 S
N197 C198 1.328 . S
N197 C202 1.318 . S
C198 N197 1.328 . S
C198 C199 1.457 . S
C198 H203 0.929 . S
C199 C198 1.457 . S
C199 C200 1.291 . S
C199 H212 0.931 . S
C200 C199 1.291 . S
C200 C201 1.373 . S
C200 H213 0.929 . S
C201 C200 1.373 . S
C201 C202 1.396 . S
C201 C208 1.403 . S
C202 C192 1.476 . S
C202 N197 1.318 . S
C202 C201 1.396 . S
H203 C198 0.929 . S
O204 Mn180 2.385 . S
O204 C182 1.234 . S
O205 Mn180 2.209 . S
O205 Mn181 2.215 . S
O205 C182 1.283 . S
O206 Mn180 2.094 . S
O206 C184 1.240 . S
O207 Mn181 2.117 . S
O207 C184 1.264 . S
C208 C201 1.403 . S
C208 C209 1.399 . S
C208 H214 0.929 . S
C209 C189 1.449 . S
C209 C208 1.399 . S
C209 H215 0.930 . S
H210 C190 0.931 . S
H211 C191 0.930 . S
H212 C199 0.931 . S
H213 C200 0.929 . S
H214 C208 0.929 . S
H215 C209 0.930 . S
Mn216 O221 2.095 . S
Mn216 O231 2.162 . S
Mn216 O232 2.297 . S
Mn216 O240 2.385 . S
Mn216 O241 2.209 . S
Mn216 O242 2.094 . S
Mn217 O222 2.121 . S
Mn217 N224 2.257 . S
Mn217 N233 2.282 . S
Mn217 O241 2.215 . S
Mn217 O243 2.117 . S
C218 O240 1.234 . S
C218 O241 1.283 . S
C219 O231 1.281 . S
C219 O232 1.236 . S
C220 O242 1.240 . S
C220 O243 1.264 . S
O221 Mn216 2.095 . S
O221 C230 1.250 . S
O222 Mn217 2.121 . S
O222 C230 1.258 . S
C223 N224 1.326 . S
C223 C227 1.460 . S
C223 H229 0.929 . S
N224 Mn217 2.257 . S
N224 C223 1.326 . S
N224 C228 1.362 . S
C225 C226 1.258 . S
C225 C228 1.431 . S
C225 C245 1.449 . S
C226 C225 1.258 . S
C226 C227 1.477 . S
C226 H246 0.931 . S
C227 C223 1.460 . S
C227 C226 1.477 . S
C227 H247 0.930 . S
C228 N224 1.362 . S
C228 C225 1.431 . S
C228 C238 1.476 . S
H229 C223 0.929 . S
C230 O221 1.250 . S
C230 O222 1.258 . S
O231 Mn216 2.162 . S
O231 C219 1.281 . S
O232 Mn216 2.297 . S
O232 C219 1.236 . S
N233 Mn217 2.282 . S
N233 C234 1.328 . S
N233 C238 1.318 . S
C234 N233 1.328 . S
C234 C235 1.457 . S
C234 H239 0.929 . S
C235 C234 1.457 . S
C235 C236 1.291 . S
C235 H248 0.931 . S
C236 C235 1.291 . S
C236 C237 1.373 . S
C236 H249 0.929 . S
C237 C236 1.373 . S
C237 C238 1.396 . S
C237 C244 1.403 . S
C238 C228 1.476 . S
C238 N233 1.318 . S
C238 C237 1.396 . S
H239 C234 0.929 . S
O240 Mn216 2.385 . S
O240 C218 1.234 . S
O241 Mn216 2.209 . S
O241 Mn217 2.215 . S
O241 C218 1.283 . S
O242 Mn216 2.094 . S
O242 C220 1.240 . S
O243 Mn217 2.117 . S
O243 C220 1.264 . S
C244 C237 1.403 . S
C244 C245 1.399 . S
C244 H250 0.929 . S
C245 C225 1.449 . S
C245 C244 1.399 . S
C245 H251 0.930 . S
H246 C226 0.931 . S
H247 C227 0.930 . S
H248 C235 0.931 . S
H249 C236 0.929 . S
H250 C244 0.929 . S
H251 C245 0.930 . S
Mn252 O257 2.095 . S
Mn252 O267 2.162 . S
Mn252 O268 2.297 . S
Mn252 O276 2.385 . S
Mn252 O277 2.209 . S
Mn252 O278 2.094 . S
Mn253 O258 2.121 . S
Mn253 N260 2.257 . S
Mn253 N269 2.282 . S
Mn253 O277 2.215 . S
Mn253 O279 2.117 . S
C254 O276 1.234 . S
C254 O277 1.283 . S
C255 O267 1.281 . S
C255 O268 1.236 . S
C256 O278 1.240 . S
C256 O279 1.264 . S
O257 Mn252 2.095 . S
O257 C266 1.250 . S
O258 Mn253 2.121 . S
O258 C266 1.258 . S
C259 N260 1.326 . S
C259 C263 1.460 . S
C259 H265 0.929 . S
N260 Mn253 2.257 . S
N260 C259 1.326 . S
N260 C264 1.362 . S
C261 C262 1.258 . S
C261 C264 1.431 . S
C261 C281 1.449 . S
C262 C261 1.258 . S
C262 C263 1.477 . S
C262 H282 0.931 . S
C263 C259 1.460 . S
C263 C262 1.477 . S
C263 H283 0.930 . S
C264 N260 1.362 . S
C264 C261 1.431 . S
C264 C274 1.476 . S
H265 C259 0.929 . S
C266 O257 1.250 . S
C266 O258 1.258 . S
O267 Mn252 2.162 . S
O267 C255 1.281 . S
O268 Mn252 2.297 . S
O268 C255 1.236 . S
N269 Mn253 2.282 . S
N269 C270 1.328 . S
N269 C274 1.318 . S
C270 N269 1.328 . S
C270 C271 1.457 . S
C270 H275 0.929 . S
C271 C270 1.457 . S
C271 C272 1.291 . S
C271 H284 0.931 . S
C272 C271 1.291 . S
C272 C273 1.373 . S
C272 H285 0.929 . S
C273 C272 1.373 . S
C273 C274 1.396 . S
C273 C280 1.403 . S
C274 C264 1.476 . S
C274 N269 1.318 . S
C274 C273 1.396 . S
H275 C270 0.929 . S
O276 Mn252 2.385 . S
O276 C254 1.234 . S
O277 Mn252 2.209 . S
O277 Mn253 2.215 . S
O277 C254 1.283 . S
O278 Mn252 2.094 . S
O278 C256 1.240 . S
O279 Mn253 2.117 . S
O279 C256 1.264 . S
C280 C273 1.403 . S
C280 C281 1.399 . S
C280 H286 0.929 . S
C281 C261 1.449 . S
C281 C280 1.399 . S
C281 H287 0.930 . S
H282 C262 0.931 . S
H283 C263 0.930 . S
H284 C271 0.931 . S
H285 C272 0.929 . S
H286 C280 0.929 . S
H287 C281 0.930 . S
Mn288 O293 2.095 . S
Mn288 O303 2.162 . S
Mn288 O304 2.297 . S
Mn288 O312 2.385 . S
Mn288 O313 2.209 . S
Mn288 O314 2.094 . S
Mn289 O294 2.121 . S
Mn289 N296 2.257 . S
Mn289 N305 2.282 . S
Mn289 O313 2.215 . S
Mn289 O315 2.117 . S
C290 O312 1.234 . S
C290 O313 1.283 . S
C291 O303 1.281 . S
C291 O304 1.236 . S
C292 O314 1.240 . S
C292 O315 1.264 . S
O293 Mn288 2.095 . S
O293 C302 1.250 . S
O294 Mn289 2.121 . S
O294 C302 1.258 . S
C295 N296 1.326 . S
C295 C299 1.460 . S
C295 H301 0.929 . S
N296 Mn289 2.257 . S
N296 C295 1.326 . S
N296 C300 1.362 . S
C297 C298 1.258 . S
C297 C300 1.431 . S
C297 C317 1.449 . S
C298 C297 1.258 . S
C298 C299 1.477 . S
C298 H318 0.931 . S
C299 C295 1.460 . S
C299 C298 1.477 . S
C299 H319 0.930 . S
C300 N296 1.362 . S
C300 C297 1.431 . S
C300 C310 1.476 . S
H301 C295 0.929 . S
C302 O293 1.250 . S
C302 O294 1.258 . S
O303 Mn288 2.162 . S
O303 C291 1.281 . S
O304 Mn288 2.297 . S
O304 C291 1.236 . S
N305 Mn289 2.282 . S
N305 C306 1.328 . S
N305 C310 1.318 . S
C306 N305 1.328 . S
C306 C307 1.457 . S
C306 H311 0.929 . S
C307 C306 1.457 . S
C307 C308 1.291 . S
C307 H320 0.931 . S
C308 C307 1.291 . S
C308 C309 1.373 . S
C308 H321 0.929 . S
C309 C308 1.373 . S
C309 C310 1.396 . S
C309 C316 1.403 . S
C310 C300 1.476 . S
C310 N305 1.318 . S
C310 C309 1.396 . S
H311 C306 0.929 . S
O312 Mn288 2.385 . S
O312 C290 1.234 . S
O313 Mn288 2.209 . S
O313 Mn289 2.215 . S
O313 C290 1.283 . S
O314 Mn288 2.094 . S
O314 C292 1.240 . S
O315 Mn289 2.117 . S
O315 C292 1.264 . S
C316 C309 1.403 . S
C316 C317 1.399 . S
C316 H322 0.929 . S
C317 C297 1.449 . S
C317 C316 1.399 . S
C317 H323 0.930 . S
H318 C298 0.931 . S
H319 C299 0.930 . S
H320 C307 0.931 . S
H321 C308 0.929 . S
H322 C316 0.929 . S
H323 C317 0.930 . S
Mn324 O329 2.095 . S
Mn324 O339 2.162 . S
Mn324 O340 2.297 . S
Mn324 O348 2.385 . S
Mn324 O349 2.209 . S
Mn324 O350 2.094 . S
Mn325 O330 2.121 . S
Mn325 N332 2.257 . S
Mn325 N341 2.282 . S
Mn325 O349 2.215 . S
Mn325 O351 2.117 . S
C326 O348 1.234 . S
C326 O349 1.283 . S
C327 O339 1.281 . S
C327 O340 1.236 . S
C328 O350 1.240 . S
C328 O351 1.264 . S
O329 Mn324 2.095 . S
O329 C338 1.250 . S
O330 Mn325 2.121 . S
O330 C338 1.258 . S
C331 N332 1.326 . S
C331 C335 1.460 . S
C331 H337 0.929 . S
N332 Mn325 2.257 . S
N332 C331 1.326 . S
N332 C336 1.362 . S
C333 C334 1.258 . S
C333 C336 1.431 . S
C333 C353 1.449 . S
C334 C333 1.258 . S
C334 C335 1.477 . S
C334 H354 0.931 . S
C335 C331 1.460 . S
C335 C334 1.477 . S
C335 H355 0.930 . S
C336 N332 1.362 . S
C336 C333 1.431 . S
C336 C346 1.476 . S
H337 C331 0.929 . S
C338 O329 1.250 . S
C338 O330 1.258 . S
O339 Mn324 2.162 . S
O339 C327 1.281 . S
O340 Mn324 2.297 . S
O340 C327 1.236 . S
N341 Mn325 2.282 . S
N341 C342 1.328 . S
N341 C346 1.318 . S
C342 N341 1.328 . S
C342 C343 1.457 . S
C342 H347 0.929 . S
C343 C342 1.457 . S
C343 C344 1.291 . S
C343 H356 0.931 . S
C344 C343 1.291 . S
C344 C345 1.373 . S
C344 H357 0.929 . S
C345 C344 1.373 . S
C345 C346 1.396 . S
C345 C352 1.403 . S
C346 C336 1.476 . S
C346 N341 1.318 . S
C346 C345 1.396 . S
H347 C342 0.929 . S
O348 Mn324 2.385 . S
O348 C326 1.234 . S
O349 Mn324 2.209 . S
O349 Mn325 2.215 . S
O349 C326 1.283 . S
O350 Mn324 2.094 . S
O350 C328 1.240 . S
O351 Mn325 2.117 . S
O351 C328 1.264 . S
C352 C345 1.403 . S
C352 C353 1.399 . S
C352 H358 0.929 . S
C353 C333 1.449 . S
C353 C352 1.399 . S
C353 H359 0.930 . S
H354 C334 0.931 . S
H355 C335 0.930 . S
H356 C343 0.931 . S
H357 C344 0.929 . S
H358 C352 0.929 . S
H359 C353 0.930 . S
Mn360 O365 2.095 . S
Mn360 O375 2.162 . S
Mn360 O376 2.297 . S
Mn360 O384 2.385 . S
Mn360 O385 2.209 . S
Mn360 O386 2.094 . S
Mn361 O366 2.121 . S
Mn361 N368 2.257 . S
Mn361 N377 2.282 . S
Mn361 O385 2.215 . S
Mn361 O387 2.117 . S
C362 O384 1.234 . S
C362 O385 1.283 . S
C363 O375 1.281 . S
C363 O376 1.236 . S
C364 O386 1.240 . S
C364 O387 1.264 . S
O365 Mn360 2.095 . S
O365 C374 1.250 . S
O366 Mn361 2.121 . S
O366 C374 1.258 . S
C367 N368 1.326 . S
C367 C371 1.460 . S
C367 H373 0.929 . S
N368 Mn361 2.257 . S
N368 C367 1.326 . S
N368 C372 1.362 . S
C369 C370 1.258 . S
C369 C372 1.431 . S
C369 C389 1.449 . S
C370 C369 1.258 . S
C370 C371 1.477 . S
C370 H390 0.931 . S
C371 C367 1.460 . S
C371 C370 1.477 . S
C371 H391 0.930 . S
C372 N368 1.362 . S
C372 C369 1.431 . S
C372 C382 1.476 . S
H373 C367 0.929 . S
C374 O365 1.250 . S
C374 O366 1.258 . S
O375 Mn360 2.162 . S
O375 C363 1.281 . S
O376 Mn360 2.297 . S
O376 C363 1.236 . S
N377 Mn361 2.282 . S
N377 C378 1.328 . S
N377 C382 1.318 . S
C378 N377 1.328 . S
C378 C379 1.457 . S
C378 H383 0.929 . S
C379 C378 1.457 . S
C379 C380 1.291 . S
C379 H392 0.931 . S
C380 C379 1.291 . S
C380 C381 1.373 . S
C380 H393 0.929 . S
C381 C380 1.373 . S
C381 C382 1.396 . S
C381 C388 1.403 . S
C382 C372 1.476 . S
C382 N377 1.318 . S
C382 C381 1.396 . S
H383 C378 0.929 . S
O384 Mn360 2.385 . S
O384 C362 1.234 . S
O385 Mn360 2.209 . S
O385 Mn361 2.215 . S
O385 C362 1.283 . S
O386 Mn360 2.094 . S
O386 C364 1.240 . S
O387 Mn361 2.117 . S
O387 C364 1.264 . S
C388 C381 1.403 . S
C388 C389 1.399 . S
C388 H394 0.929 . S
C389 C369 1.449 . S
C389 C388 1.399 . S
C389 H395 0.930 . S
H390 C370 0.931 . S
H391 C371 0.930 . S
H392 C379 0.931 . S
H393 C380 0.929 . S
H394 C388 0.929 . S
H395 C389 0.930 . S
Mn396 O401 2.095 . S
Mn396 O411 2.162 . S
Mn396 O412 2.297 . S
Mn396 O420 2.385 . S
Mn396 O421 2.209 . S
Mn396 O422 2.094 . S
Mn397 O402 2.121 . S
Mn397 N404 2.257 1_554 S
Mn397 N413 2.282 1_554 S
Mn397 O421 2.215 . S
Mn397 O423 2.117 . S
C398 O420 1.234 . S
C398 O421 1.283 . S
C399 O411 1.281 . S
C399 O412 1.236 . S
C400 O422 1.240 . S
C400 O423 1.264 . S
O401 Mn396 2.095 . S
O401 C410 1.250 . S
O402 Mn397 2.121 . S
O402 C410 1.258 . S
C403 N404 1.326 . S
C403 C407 1.460 . S
C403 H409 0.929 1_556 S
N404 Mn397 2.257 1_556 S
N404 C403 1.326 . S
N404 C408 1.362 . S
C405 C406 1.258 . S
C405 C408 1.431 . S
C405 C425 1.449 . S
C406 C405 1.258 . S
C406 C407 1.477 . S
C406 H426 0.931 . S
C407 C403 1.460 . S
C407 C406 1.477 . S
C407 H427 0.930 . S
C408 N404 1.362 . S
C408 C405 1.431 . S
C408 C418 1.476 . S
H409 C403 0.929 1_554 S
C410 O401 1.250 . S
C410 O402 1.258 . S
O411 Mn396 2.162 . S
O411 C399 1.281 . S
O412 Mn396 2.297 . S
O412 C399 1.236 . S
N413 Mn397 2.282 1_556 S
N413 C414 1.328 . S
N413 C418 1.318 . S
C414 N413 1.328 . S
C414 C415 1.457 . S
C414 H419 0.929 . S
C415 C414 1.457 . S
C415 C416 1.291 . S
C415 H428 0.931 . S
C416 C415 1.291 . S
C416 C417 1.373 . S
C416 H429 0.929 . S
C417 C416 1.373 . S
C417 C418 1.396 . S
C417 C424 1.403 . S
C418 C408 1.476 . S
C418 N413 1.318 . S
C418 C417 1.396 . S
H419 C414 0.929 . S
O420 Mn396 2.385 . S
O420 C398 1.234 . S
O421 Mn396 2.209 . S
O421 Mn397 2.215 . S
O421 C398 1.283 . S
O422 Mn396 2.094 . S
O422 C400 1.240 . S
O423 Mn397 2.117 . S
O423 C400 1.264 . S
C424 C417 1.403 . S
C424 C425 1.399 . S
C424 H430 0.929 . S
C425 C405 1.449 . S
C425 C424 1.399 . S
C425 H431 0.930 . S
H426 C406 0.931 . S
H427 C407 0.930 . S
H428 C415 0.931 . S
H429 C416 0.929 . S
H430 C424 0.929 . S
H431 C425 0.930 . S
Mn432 O437 2.095 . S
Mn432 O447 2.162 . S
Mn432 O448 2.297 . S
Mn432 O456 2.385 . S
Mn432 O457 2.209 . S
Mn432 O458 2.094 . S
Mn433 O438 2.121 . S
Mn433 N440 2.257 . S
Mn433 N449 2.282 . S
Mn433 O457 2.215 . S
Mn433 O459 2.117 . S
C434 O456 1.234 . S
C434 O457 1.283 . S
C435 O447 1.281 . S
C435 O448 1.236 . S
C436 O458 1.240 . S
C436 O459 1.264 . S
O437 Mn432 2.095 . S
O437 C446 1.250 . S
O438 Mn433 2.121 . S
O438 C446 1.258 . S
C439 N440 1.326 . S
C439 C443 1.460 . S
C439 H445 0.929 . S
N440 Mn433 2.257 . S
N440 C439 1.326 . S
N440 C444 1.362 . S
C441 C442 1.258 . S
C441 C444 1.431 . S
C441 C461 1.449 . S
C442 C441 1.258 . S
C442 C443 1.477 . S
C442 H462 0.931 . S
C443 C439 1.460 . S
C443 C442 1.477 . S
C443 H463 0.930 . S
C444 N440 1.362 . S
C444 C441 1.431 . S
C444 C454 1.476 . S
H445 C439 0.929 . S
C446 O437 1.250 . S
C446 O438 1.258 . S
O447 Mn432 2.162 . S
O447 C435 1.281 . S
O448 Mn432 2.297 . S
O448 C435 1.236 . S
N449 Mn433 2.282 . S
N449 C450 1.328 . S
N449 C454 1.318 . S
C450 N449 1.328 . S
C450 C451 1.457 . S
C450 H455 0.929 . S
C451 C450 1.457 . S
C451 C452 1.291 . S
C451 H464 0.931 . S
C452 C451 1.291 . S
C452 C453 1.373 . S
C452 H465 0.929 . S
C453 C452 1.373 . S
C453 C454 1.396 . S
C453 C460 1.403 . S
C454 C444 1.476 . S
C454 N449 1.318 . S
C454 C453 1.396 . S
H455 C450 0.929 . S
O456 Mn432 2.385 . S
O456 C434 1.234 . S
O457 Mn432 2.209 . S
O457 Mn433 2.215 . S
O457 C434 1.283 . S
O458 Mn432 2.094 . S
O458 C436 1.240 . S
O459 Mn433 2.117 . S
O459 C436 1.264 . S
C460 C453 1.403 . S
C460 C461 1.399 . S
C460 H466 0.929 . S
C461 C441 1.449 . S
C461 C460 1.399 . S
C461 H467 0.930 . S
H462 C442 0.931 . S
H463 C443 0.930 . S
H464 C451 0.931 . S
H465 C452 0.929 . S
H466 C460 0.929 . S
H467 C461 0.930 . S
Mn468 O473 2.095 . S
Mn468 O483 2.162 . S
Mn468 O484 2.297 . S
Mn468 O492 2.385 . S
Mn468 O493 2.209 . S
Mn468 O494 2.094 . S
Mn469 O474 2.121 . S
Mn469 N476 2.257 1_556 S
Mn469 N485 2.282 1_556 S
Mn469 O493 2.215 . S
Mn469 O495 2.117 . S
C470 O492 1.234 . S
C470 O493 1.283 . S
C471 O483 1.281 . S
C471 O484 1.236 . S
C472 O494 1.240 . S
C472 O495 1.264 . S
O473 Mn468 2.095 . S
O473 C482 1.250 . S
O474 Mn469 2.121 . S
O474 C482 1.258 . S
C475 N476 1.326 . S
C475 C479 1.460 . S
C475 H481 0.929 1_554 S
N476 Mn469 2.257 1_554 S
N476 C475 1.326 . S
N476 C480 1.362 . S
C477 C478 1.258 . S
C477 C480 1.431 . S
C477 C497 1.449 . S
C478 C477 1.258 . S
C478 C479 1.477 . S
C478 H498 0.931 . S
C479 C475 1.460 . S
C479 C478 1.477 . S
C479 H499 0.930 . S
C480 N476 1.362 . S
C480 C477 1.431 . S
C480 C490 1.476 . S
H481 C475 0.929 1_556 S
C482 O473 1.250 . S
C482 O474 1.258 . S
O483 Mn468 2.162 . S
O483 C471 1.281 . S
O484 Mn468 2.297 . S
O484 C471 1.236 . S
N485 Mn469 2.282 1_554 S
N485 C486 1.328 . S
N485 C490 1.318 . S
C486 N485 1.328 . S
C486 C487 1.457 . S
C486 H491 0.929 . S
C487 C486 1.457 . S
C487 C488 1.291 . S
C487 H500 0.931 . S
C488 C487 1.291 . S
C488 C489 1.373 . S
C488 H501 0.929 . S
C489 C488 1.373 . S
C489 C490 1.396 . S
C489 C496 1.403 . S
C490 C480 1.476 . S
C490 N485 1.318 . S
C490 C489 1.396 . S
H491 C486 0.929 . S
O492 Mn468 2.385 . S
O492 C470 1.234 . S
O493 Mn468 2.209 . S
O493 Mn469 2.215 . S
O493 C470 1.283 . S
O494 Mn468 2.094 . S
O494 C472 1.240 . S
O495 Mn469 2.117 . S
O495 C472 1.264 . S
C496 C489 1.403 . S
C496 C497 1.399 . S
C496 H502 0.929 . S
C497 C477 1.449 . S
C497 C496 1.399 . S
C497 H503 0.930 . S
H498 C478 0.931 . S
H499 C479 0.930 . S
H500 C487 0.931 . S
H501 C488 0.929 . S
H502 C496 0.929 . S
H503 C497 0.930 . S
Mn504 O509 2.095 . S
Mn504 O519 2.162 . S
Mn504 O520 2.297 . S
Mn504 O528 2.385 . S
Mn504 O529 2.209 . S
Mn504 O530 2.094 . S
Mn505 O510 2.121 . S
Mn505 N512 2.257 . S
Mn505 N521 2.282 . S
Mn505 O529 2.215 . S
Mn505 O531 2.117 . S
C506 O528 1.234 . S
C506 O529 1.283 . S
C507 O519 1.281 . S
C507 O520 1.236 . S
C508 O530 1.240 . S
C508 O531 1.264 . S
O509 Mn504 2.095 . S
O509 C518 1.250 . S
O510 Mn505 2.121 . S
O510 C518 1.258 . S
C511 N512 1.326 . S
C511 C515 1.460 . S
C511 H517 0.929 . S
N512 Mn505 2.257 . S
N512 C511 1.326 . S
N512 C516 1.362 . S
C513 C514 1.258 . S
C513 C516 1.431 . S
C513 C533 1.449 . S
C514 C513 1.258 . S
C514 C515 1.477 . S
C514 H534 0.931 . S
C515 C511 1.460 . S
C515 C514 1.477 . S
C515 H535 0.930 . S
C516 N512 1.362 . S
C516 C513 1.431 . S
C516 C526 1.476 . S
H517 C511 0.929 . S
C518 O509 1.250 . S
C518 O510 1.258 . S
O519 Mn504 2.162 . S
O519 C507 1.281 . S
O520 Mn504 2.297 . S
O520 C507 1.236 . S
N521 Mn505 2.282 . S
N521 C522 1.328 . S
N521 C526 1.318 . S
C522 N521 1.328 . S
C522 C523 1.457 . S
C522 H527 0.929 . S
C523 C522 1.457 . S
C523 C524 1.291 . S
C523 H536 0.931 . S
C524 C523 1.291 . S
C524 C525 1.373 . S
C524 H537 0.929 . S
C525 C524 1.373 . S
C525 C526 1.396 . S
C525 C532 1.403 . S
C526 C516 1.476 . S
C526 N521 1.318 . S
C526 C525 1.396 . S
H527 C522 0.929 . S
O528 Mn504 2.385 . S
O528 C506 1.234 . S
O529 Mn504 2.209 . S
O529 Mn505 2.215 . S
O529 C506 1.283 . S
O530 Mn504 2.094 . S
O530 C508 1.240 . S
O531 Mn505 2.117 . S
O531 C508 1.264 . S
C532 C525 1.403 . S
C532 C533 1.399 . S
C532 H538 0.929 . S
C533 C513 1.449 . S
C533 C532 1.399 . S
C533 H539 0.930 . S
H534 C514 0.931 . S
H535 C515 0.930 . S
H536 C523 0.931 . S
H537 C524 0.929 . S
H538 C532 0.929 . S
H539 C533 0.930 . S
Mn540 O545 2.095 . S
Mn540 O555 2.162 . S
Mn540 O556 2.297 . S
Mn540 O564 2.385 . S
Mn540 O565 2.209 . S
Mn540 O566 2.094 . S
Mn541 O546 2.121 . S
Mn541 N548 2.257 . S
Mn541 N557 2.282 . S
Mn541 O565 2.215 . S
Mn541 O567 2.117 . S
C542 O564 1.234 . S
C542 O565 1.283 . S
C543 O555 1.281 . S
C543 O556 1.236 . S
C544 O566 1.240 . S
C544 O567 1.264 . S
O545 Mn540 2.095 . S
O545 C554 1.250 . S
O546 Mn541 2.121 . S
O546 C554 1.258 . S
C547 N548 1.326 . S
C547 C551 1.460 . S
C547 H553 0.929 . S
N548 Mn541 2.257 . S
N548 C547 1.326 . S
N548 C552 1.362 . S
C549 C550 1.258 . S
C549 C552 1.431 . S
C549 C569 1.449 . S
C550 C549 1.258 . S
C550 C551 1.477 . S
C550 H570 0.931 . S
C551 C547 1.460 . S
C551 C550 1.477 . S
C551 H571 0.930 . S
C552 N548 1.362 . S
C552 C549 1.431 . S
C552 C562 1.476 . S
H553 C547 0.929 . S
C554 O545 1.250 . S
C554 O546 1.258 . S
O555 Mn540 2.162 . S
O555 C543 1.281 . S
O556 Mn540 2.297 . S
O556 C543 1.236 . S
N557 Mn541 2.282 . S
N557 C558 1.328 . S
N557 C562 1.318 . S
C558 N557 1.328 . S
C558 C559 1.457 . S
C558 H563 0.929 . S
C559 C558 1.457 . S
C559 C560 1.291 . S
C559 H572 0.931 . S
C560 C559 1.291 . S
C560 C561 1.373 . S
C560 H573 0.929 . S
C561 C560 1.373 . S
C561 C562 1.396 . S
C561 C568 1.403 . S
C562 C552 1.476 . S
C562 N557 1.318 . S
C562 C561 1.396 . S
H563 C558 0.929 . S
O564 Mn540 2.385 . S
O564 C542 1.234 . S
O565 Mn540 2.209 . S
O565 Mn541 2.215 . S
O565 C542 1.283 . S
O566 Mn540 2.094 . S
O566 C544 1.240 . S
O567 Mn541 2.117 . S
O567 C544 1.264 . S
C568 C561 1.403 . S
C568 C569 1.399 . S
C568 H574 0.929 . S
C569 C549 1.449 . S
C569 C568 1.399 . S
C569 H575 0.930 . S
H570 C550 0.931 . S
H571 C551 0.930 . S
H572 C559 0.931 . S
H573 C560 0.929 . S
H574 C568 0.929 . S
H575 C569 0.930 . S
Mn576 O581 2.095 . S
Mn576 O591 2.162 . S
Mn576 O592 2.297 . S
Mn576 O600 2.385 . S
Mn576 O601 2.209 . S
Mn576 O602 2.094 . S
Mn577 O582 2.121 . S
Mn577 N584 2.257 . S
Mn577 N593 2.282 . S
Mn577 O601 2.215 . S
Mn577 O603 2.117 . S
C578 O600 1.234 . S
C578 O601 1.283 . S
C579 O591 1.281 . S
C579 O592 1.236 . S
C580 O602 1.240 . S
C580 O603 1.264 . S
O581 Mn576 2.095 . S
O581 C590 1.250 . S
O582 Mn577 2.121 . S
O582 C590 1.258 . S
C583 N584 1.326 . S
C583 C587 1.460 . S
C583 H589 0.929 . S
N584 Mn577 2.257 . S
N584 C583 1.326 . S
N584 C588 1.362 . S
C585 C586 1.258 . S
C585 C588 1.431 . S
C585 C605 1.449 . S
C586 C585 1.258 . S
C586 C587 1.477 . S
C586 H606 0.931 . S
C587 C583 1.460 . S
C587 C586 1.477 . S
C587 H607 0.930 . S
C588 N584 1.362 . S
C588 C585 1.431 . S
C588 C598 1.476 . S
H589 C583 0.929 . S
C590 O581 1.250 . S
C590 O582 1.258 . S
O591 Mn576 2.162 . S
O591 C579 1.281 . S
O592 Mn576 2.297 . S
O592 C579 1.236 . S
N593 Mn577 2.282 . S
N593 C594 1.328 . S
N593 C598 1.318 . S
C594 N593 1.328 . S
C594 C595 1.457 . S
C594 H599 0.929 . S
C595 C594 1.457 . S
C595 C596 1.291 . S
C595 H608 0.931 . S
C596 C595 1.291 . S
C596 C597 1.373 . S
C596 H609 0.929 . S
C597 C596 1.373 . S
C597 C598 1.396 . S
C597 C604 1.403 . S
C598 C588 1.476 . S
C598 N593 1.318 . S
C598 C597 1.396 . S
H599 C594 0.929 . S
O600 Mn576 2.385 . S
O600 C578 1.234 . S
O601 Mn576 2.209 . S
O601 Mn577 2.215 . S
O601 C578 1.283 . S
O602 Mn576 2.094 . S
O602 C580 1.240 . S
O603 Mn577 2.117 . S
O603 C580 1.264 . S
C604 C597 1.403 . S
C604 C605 1.399 . S
C604 H610 0.929 . S
C605 C585 1.449 . S
C605 C604 1.399 . S
C605 H611 0.930 . S
H606 C586 0.931 . S
H607 C587 0.930 . S
H608 C595 0.931 . S
H609 C596 0.929 . S
H610 C604 0.929 . S
H611 C605 0.930 . S
Mn612 O617 2.095 . S
Mn612 O627 2.162 . S
Mn612 O628 2.297 . S
Mn612 O636 2.385 . S
Mn612 O637 2.209 . S
Mn612 O638 2.094 . S
Mn613 O618 2.121 . S
Mn613 N620 2.257 1_556 S
Mn613 N629 2.282 1_556 S
Mn613 O637 2.215 . S
Mn613 O639 2.117 . S
C614 O636 1.234 . S
C614 O637 1.283 . S
C615 O627 1.281 . S
C615 O628 1.236 . S
C616 O638 1.240 . S
C616 O639 1.264 . S
O617 Mn612 2.095 . S
O617 C626 1.250 . S
O618 Mn613 2.121 . S
O618 C626 1.258 . S
C619 N620 1.326 . S
C619 C623 1.460 . S
C619 H625 0.929 1_554 S
N620 Mn613 2.257 1_554 S
N620 C619 1.326 . S
N620 C624 1.362 . S
C621 C622 1.258 . S
C621 C624 1.431 . S
C621 C641 1.449 . S
C622 C621 1.258 . S
C622 C623 1.477 . S
C622 H642 0.931 . S
C623 C619 1.460 . S
C623 C622 1.477 . S
C623 H643 0.930 . S
C624 N620 1.362 . S
C624 C621 1.431 . S
C624 C634 1.476 . S
H625 C619 0.929 1_556 S
C626 O617 1.250 . S
C626 O618 1.258 . S
O627 Mn612 2.162 . S
O627 C615 1.281 . S
O628 Mn612 2.297 . S
O628 C615 1.236 . S
N629 Mn613 2.282 1_554 S
N629 C630 1.328 . S
N629 C634 1.318 . S
C630 N629 1.328 . S
C630 C631 1.457 . S
C630 H635 0.929 . S
C631 C630 1.457 . S
C631 C632 1.291 . S
C631 H644 0.931 . S
C632 C631 1.291 . S
C632 C633 1.373 . S
C632 H645 0.929 . S
C633 C632 1.373 . S
C633 C634 1.396 . S
C633 C640 1.403 . S
C634 C624 1.476 . S
C634 N629 1.318 . S
C634 C633 1.396 . S
H635 C630 0.929 . S
O636 Mn612 2.385 . S
O636 C614 1.234 . S
O637 Mn612 2.209 . S
O637 Mn613 2.215 . S
O637 C614 1.283 . S
O638 Mn612 2.094 . S
O638 C616 1.240 . S
O639 Mn613 2.117 . S
O639 C616 1.264 . S
C640 C633 1.403 . S
C640 C641 1.399 . S
C640 H646 0.929 . S
C641 C621 1.449 . S
C641 C640 1.399 . S
C641 H647 0.930 . S
H642 C622 0.931 . S
H643 C623 0.930 . S
H644 C631 0.931 . S
H645 C632 0.929 . S
H646 C640 0.929 . S
H647 C641 0.930 . S
Mn648 O653 2.095 . S
Mn648 O663 2.162 . S
Mn648 O664 2.297 . S
Mn648 O672 2.385 . S
Mn648 O673 2.209 . S
Mn648 O674 2.094 . S
Mn649 O654 2.121 . S
Mn649 N656 2.257 . S
Mn649 N665 2.282 . S
Mn649 O673 2.215 . S
Mn649 O675 2.117 . S
C650 O672 1.234 . S
C650 O673 1.283 . S
C651 O663 1.281 . S
C651 O664 1.236 . S
C652 O674 1.240 . S
C652 O675 1.264 . S
O653 Mn648 2.095 . S
O653 C662 1.250 . S
O654 Mn649 2.121 . S
O654 C662 1.258 . S
C655 N656 1.326 . S
C655 C659 1.460 . S
C655 H661 0.929 . S
N656 Mn649 2.257 . S
N656 C655 1.326 . S
N656 C660 1.362 . S
C657 C658 1.258 . S
C657 C660 1.431 . S
C657 C677 1.449 . S
C658 C657 1.258 . S
C658 C659 1.477 . S
C658 H678 0.931 . S
C659 C655 1.460 . S
C659 C658 1.477 . S
C659 H679 0.930 . S
C660 N656 1.362 . S
C660 C657 1.431 . S
C660 C670 1.476 . S
H661 C655 0.929 . S
C662 O653 1.250 . S
C662 O654 1.258 . S
O663 Mn648 2.162 . S
O663 C651 1.281 . S
O664 Mn648 2.297 . S
O664 C651 1.236 . S
N665 Mn649 2.282 . S
N665 C666 1.328 . S
N665 C670 1.318 . S
C666 N665 1.328 . S
C666 C667 1.457 . S
C666 H671 0.929 . S
C667 C666 1.457 . S
C667 C668 1.291 . S
C667 H680 0.931 . S
C668 C667 1.291 . S
C668 C669 1.373 . S
C668 H681 0.929 . S
C669 C668 1.373 . S
C669 C670 1.396 . S
C669 C676 1.403 . S
C670 C660 1.476 . S
C670 N665 1.318 . S
C670 C669 1.396 . S
H671 C666 0.929 . S
O672 Mn648 2.385 . S
O672 C650 1.234 . S
O673 Mn648 2.209 . S
O673 Mn649 2.215 . S
O673 C650 1.283 . S
O674 Mn648 2.094 . S
O674 C652 1.240 . S
O675 Mn649 2.117 . S
O675 C652 1.264 . S
C676 C669 1.403 . S
C676 C677 1.399 . S
C676 H682 0.929 . S
C677 C657 1.449 . S
C677 C676 1.399 . S
C677 H683 0.930 . S
H678 C658 0.931 . S
H679 C659 0.930 . S
H680 C667 0.931 . S
H681 C668 0.929 . S
H682 C676 0.929 . S
H683 C677 0.930 . S
Mn684 O689 2.095 . S
Mn684 O699 2.162 . S
Mn684 O700 2.297 . S
Mn684 O708 2.385 . S
Mn684 O709 2.209 . S
Mn684 O710 2.094 . S
Mn685 O690 2.121 . S
Mn685 N692 2.257 . S
Mn685 N701 2.282 . S
Mn685 O709 2.215 . S
Mn685 O711 2.117 . S
C686 O708 1.234 . S
C686 O709 1.283 . S
C687 O699 1.281 . S
C687 O700 1.236 . S
C688 O710 1.240 . S
C688 O711 1.264 . S
O689 Mn684 2.095 . S
O689 C698 1.250 . S
O690 Mn685 2.121 . S
O690 C698 1.258 . S
C691 N692 1.326 . S
C691 C695 1.460 . S
C691 H697 0.929 . S
N692 Mn685 2.257 . S
N692 C691 1.326 . S
N692 C696 1.362 . S
C693 C694 1.258 . S
C693 C696 1.431 . S
C693 C713 1.449 . S
C694 C693 1.258 . S
C694 C695 1.477 . S
C694 H714 0.931 . S
C695 C691 1.460 . S
C695 C694 1.477 . S
C695 H715 0.930 . S
C696 N692 1.362 . S
C696 C693 1.431 . S
C696 C706 1.476 . S
H697 C691 0.929 . S
C698 O689 1.250 . S
C698 O690 1.258 . S
O699 Mn684 2.162 . S
O699 C687 1.281 . S
O700 Mn684 2.297 . S
O700 C687 1.236 . S
N701 Mn685 2.282 . S
N701 C702 1.328 . S
N701 C706 1.318 . S
C702 N701 1.328 . S
C702 C703 1.457 . S
C702 H707 0.929 . S
C703 C702 1.457 . S
C703 C704 1.291 . S
C703 H716 0.931 . S
C704 C703 1.291 . S
C704 C705 1.373 . S
C704 H717 0.929 . S
C705 C704 1.373 . S
C705 C706 1.396 . S
C705 C712 1.403 . S
C706 C696 1.476 . S
C706 N701 1.318 . S
C706 C705 1.396 . S
H707 C702 0.929 . S
O708 Mn684 2.385 . S
O708 C686 1.234 . S
O709 Mn684 2.209 . S
O709 Mn685 2.215 . S
O709 C686 1.283 . S
O710 Mn684 2.094 . S
O710 C688 1.240 . S
O711 Mn685 2.117 . S
O711 C688 1.264 . S
C712 C705 1.403 . S
C712 C713 1.399 . S
C712 H718 0.929 . S
C713 C693 1.449 . S
C713 C712 1.399 . S
C713 H719 0.930 . S
H714 C694 0.931 . S
H715 C695 0.930 . S
H716 C703 0.931 . S
H717 C704 0.929 . S
H718 C712 0.929 . S
H719 C713 0.930 . S
Mn720 O725 2.095 . S
Mn720 O735 2.162 . S
Mn720 O736 2.297 . S
Mn720 O744 2.385 . S
Mn720 O745 2.209 . S
Mn720 O746 2.094 . S
Mn721 O726 2.121 . S
Mn721 N728 2.257 . S
Mn721 N737 2.282 . S
Mn721 O745 2.215 . S
Mn721 O747 2.117 . S
C722 O744 1.234 . S
C722 O745 1.283 . S
C723 O735 1.281 . S
C723 O736 1.236 . S
C724 O746 1.240 . S
C724 O747 1.264 . S
O725 Mn720 2.095 . S
O725 C734 1.250 . S
O726 Mn721 2.121 . S
O726 C734 1.258 . S
C727 N728 1.326 . S
C727 C731 1.460 . S
C727 H733 0.929 . S
N728 Mn721 2.257 . S
N728 C727 1.326 . S
N728 C732 1.362 . S
C729 C730 1.258 . S
C729 C732 1.431 . S
C729 C749 1.449 . S
C730 C729 1.258 . S
C730 C731 1.477 . S
C730 H750 0.931 . S
C731 C727 1.460 . S
C731 C730 1.477 . S
C731 H751 0.930 . S
C732 N728 1.362 . S
C732 C729 1.431 . S
C732 C742 1.476 . S
H733 C727 0.929 . S
C734 O725 1.250 . S
C734 O726 1.258 . S
O735 Mn720 2.162 . S
O735 C723 1.281 . S
O736 Mn720 2.297 . S
O736 C723 1.236 . S
N737 Mn721 2.282 . S
N737 C738 1.328 . S
N737 C742 1.318 . S
C738 N737 1.328 . S
C738 C739 1.457 . S
C738 H743 0.929 . S
C739 C738 1.457 . S
C739 C740 1.291 . S
C739 H752 0.931 . S
C740 C739 1.291 . S
C740 C741 1.373 . S
C740 H753 0.929 . S
C741 C740 1.373 . S
C741 C742 1.396 . S
C741 C748 1.403 . S
C742 C732 1.476 . S
C742 N737 1.318 . S
C742 C741 1.396 . S
H743 C738 0.929 . S
O744 Mn720 2.385 . S
O744 C722 1.234 . S
O745 Mn720 2.209 . S
O745 Mn721 2.215 . S
O745 C722 1.283 . S
O746 Mn720 2.094 . S
O746 C724 1.240 . S
O747 Mn721 2.117 . S
O747 C724 1.264 . S
C748 C741 1.403 . S
C748 C749 1.399 . S
C748 H754 0.929 . S
C749 C729 1.449 . S
C749 C748 1.399 . S
C749 H755 0.930 . S
H750 C730 0.931 . S
H751 C731 0.930 . S
H752 C739 0.931 . S
H753 C740 0.929 . S
H754 C748 0.929 . S
H755 C749 0.930 . S
Mn756 O761 2.095 . S
Mn756 O771 2.162 . S
Mn756 O772 2.297 . S
Mn756 O780 2.385 . S
Mn756 O781 2.209 . S
Mn756 O782 2.094 . S
Mn757 O762 2.121 . S
Mn757 N764 2.257 . S
Mn757 N773 2.282 . S
Mn757 O781 2.215 . S
Mn757 O783 2.117 . S
C758 O780 1.234 . S
C758 O781 1.283 . S
C759 O771 1.281 . S
C759 O772 1.236 . S
C760 O782 1.240 . S
C760 O783 1.264 . S
O761 Mn756 2.095 . S
O761 C770 1.250 . S
O762 Mn757 2.121 . S
O762 C770 1.258 . S
C763 N764 1.326 . S
C763 C767 1.460 . S
C763 H769 0.929 . S
N764 Mn757 2.257 . S
N764 C763 1.326 . S
N764 C768 1.362 . S
C765 C766 1.258 . S
C765 C768 1.431 . S
C765 C785 1.449 . S
C766 C765 1.258 . S
C766 C767 1.477 . S
C766 H786 0.931 . S
C767 C763 1.460 . S
C767 C766 1.477 . S
C767 H787 0.930 . S
C768 N764 1.362 . S
C768 C765 1.431 . S
C768 C778 1.476 . S
H769 C763 0.929 . S
C770 O761 1.250 . S
C770 O762 1.258 . S
O771 Mn756 2.162 . S
O771 C759 1.281 . S
O772 Mn756 2.297 . S
O772 C759 1.236 . S
N773 Mn757 2.282 . S
N773 C774 1.328 . S
N773 C778 1.318 . S
C774 N773 1.328 . S
C774 C775 1.457 . S
C774 H779 0.929 . S
C775 C774 1.457 . S
C775 C776 1.291 . S
C775 H788 0.931 . S
C776 C775 1.291 . S
C776 C777 1.373 . S
C776 H789 0.929 . S
C777 C776 1.373 . S
C777 C778 1.396 . S
C777 C784 1.403 . S
C778 C768 1.476 . S
C778 N773 1.318 . S
C778 C777 1.396 . S
H779 C774 0.929 . S
O780 Mn756 2.385 . S
O780 C758 1.234 . S
O781 Mn756 2.209 . S
O781 Mn757 2.215 . S
O781 C758 1.283 . S
O782 Mn756 2.094 . S
O782 C760 1.240 . S
O783 Mn757 2.117 . S
O783 C760 1.264 . S
C784 C777 1.403 . S
C784 C785 1.399 . S
C784 H790 0.929 . S
C785 C765 1.449 . S
C785 C784 1.399 . S
C785 H791 0.930 . S
H786 C766 0.931 . S
H787 C767 0.930 . S
H788 C775 0.931 . S
H789 C776 0.929 . S
H790 C784 0.929 . S
H791 C785 0.930 . S
Mn792 O797 2.095 . S
Mn792 O807 2.162 . S
Mn792 O808 2.297 . S
Mn792 O816 2.385 . S
Mn792 O817 2.209 . S
Mn792 O818 2.094 . S
Mn793 O798 2.121 . S
Mn793 N800 2.257 . S
Mn793 N809 2.282 . S
Mn793 O817 2.215 . S
Mn793 O819 2.117 . S
C794 O816 1.234 . S
C794 O817 1.283 . S
C795 O807 1.281 . S
C795 O808 1.236 . S
C796 O818 1.240 . S
C796 O819 1.264 . S
O797 Mn792 2.095 . S
O797 C806 1.250 . S
O798 Mn793 2.121 . S
O798 C806 1.258 . S
C799 N800 1.326 . S
C799 C803 1.460 . S
C799 H805 0.929 . S
N800 Mn793 2.257 . S
N800 C799 1.326 . S
N800 C804 1.362 . S
C801 C802 1.258 . S
C801 C804 1.431 . S
C801 C821 1.449 . S
C802 C801 1.258 . S
C802 C803 1.477 . S
C802 H822 0.931 . S
C803 C799 1.460 . S
C803 C802 1.477 . S
C803 H823 0.930 . S
C804 N800 1.362 . S
C804 C801 1.431 . S
C804 C814 1.476 . S
H805 C799 0.929 . S
C806 O797 1.250 . S
C806 O798 1.258 . S
O807 Mn792 2.162 . S
O807 C795 1.281 . S
O808 Mn792 2.297 . S
O808 C795 1.236 . S
N809 Mn793 2.282 . S
N809 C810 1.328 . S
N809 C814 1.318 . S
C810 N809 1.328 . S
C810 C811 1.457 . S
C810 H815 0.929 . S
C811 C810 1.457 . S
C811 C812 1.291 . S
C811 H824 0.931 . S
C812 C811 1.291 . S
C812 C813 1.373 . S
C812 H825 0.929 . S
C813 C812 1.373 . S
C813 C814 1.396 . S
C813 C820 1.403 . S
C814 C804 1.476 . S
C814 N809 1.318 . S
C814 C813 1.396 . S
H815 C810 0.929 . S
O816 Mn792 2.385 . S
O816 C794 1.234 . S
O817 Mn792 2.209 . S
O817 Mn793 2.215 . S
O817 C794 1.283 . S
O818 Mn792 2.094 . S
O818 C796 1.240 . S
O819 Mn793 2.117 . S
O819 C796 1.264 . S
C820 C813 1.403 . S
C820 C821 1.399 . S
C820 H826 0.929 . S
C821 C801 1.449 . S
C821 C820 1.399 . S
C821 H827 0.930 . S
H822 C802 0.931 . S
H823 C803 0.930 . S
H824 C811 0.931 . S
H825 C812 0.929 . S
H826 C820 0.929 . S
H827 C821 0.930 . S
Mn828 O833 2.095 . S
Mn828 O843 2.162 . S
Mn828 O844 2.297 . S
Mn828 O852 2.385 . S
Mn828 O853 2.209 . S
Mn828 O854 2.094 . S
Mn829 O834 2.121 . S
Mn829 N836 2.257 1_554 S
Mn829 N845 2.282 1_554 S
Mn829 O853 2.215 . S
Mn829 O855 2.117 . S
C830 O852 1.234 . S
C830 O853 1.283 . S
C831 O843 1.281 . S
C831 O844 1.236 . S
C832 O854 1.240 . S
C832 O855 1.264 . S
O833 Mn828 2.095 . S
O833 C842 1.250 . S
O834 Mn829 2.121 . S
O834 C842 1.258 . S
C835 N836 1.326 . S
C835 C839 1.460 . S
C835 H841 0.929 1_556 S
N836 Mn829 2.257 1_556 S
N836 C835 1.326 . S
N836 C840 1.362 . S
C837 C838 1.258 . S
C837 C840 1.431 . S
C837 C857 1.449 . S
C838 C837 1.258 . S
C838 C839 1.477 . S
C838 H858 0.931 . S
C839 C835 1.460 . S
C839 C838 1.477 . S
C839 H859 0.930 . S
C840 N836 1.362 . S
C840 C837 1.431 . S
C840 C850 1.476 . S
H841 C835 0.929 1_554 S
C842 O833 1.250 . S
C842 O834 1.258 . S
O843 Mn828 2.162 . S
O843 C831 1.281 . S
O844 Mn828 2.297 . S
O844 C831 1.236 . S
N845 Mn829 2.282 1_556 S
N845 C846 1.328 . S
N845 C850 1.318 . S
C846 N845 1.328 . S
C846 C847 1.457 . S
C846 H851 0.929 . S
C847 C846 1.457 . S
C847 C848 1.291 . S
C847 H860 0.931 . S
C848 C847 1.291 . S
C848 C849 1.373 . S
C848 H861 0.929 . S
C849 C848 1.373 . S
C849 C850 1.396 . S
C849 C856 1.403 . S
C850 C840 1.476 . S
C850 N845 1.318 . S
C850 C849 1.396 . S
H851 C846 0.929 . S
O852 Mn828 2.385 . S
O852 C830 1.234 . S
O853 Mn828 2.209 . S
O853 Mn829 2.215 . S
O853 C830 1.283 . S
O854 Mn828 2.094 . S
O854 C832 1.240 . S
O855 Mn829 2.117 . S
O855 C832 1.264 . S
C856 C849 1.403 . S
C856 C857 1.399 . S
C856 H862 0.929 . S
C857 C837 1.449 . S
C857 C856 1.399 . S
C857 H863 0.930 . S
H858 C838 0.931 . S
H859 C839 0.930 . S
H860 C847 0.931 . S
H861 C848 0.929 . S
H862 C856 0.929 . S
H863 C857 0.930 . S
Mn864 O869 2.095 . S
Mn864 O879 2.162 . S
Mn864 O880 2.297 . S
Mn864 O888 2.385 . S
Mn864 O889 2.209 . S
Mn864 O890 2.094 . S
Mn865 O870 2.121 . S
Mn865 N872 2.257 . S
Mn865 N881 2.282 . S
Mn865 O889 2.215 . S
Mn865 O891 2.117 . S
C866 O888 1.234 . S
C866 O889 1.283 . S
C867 O879 1.281 . S
C867 O880 1.236 . S
C868 O890 1.240 . S
C868 O891 1.264 . S
O869 Mn864 2.095 . S
O869 C878 1.250 . S
O870 Mn865 2.121 . S
O870 C878 1.258 . S
C871 N872 1.326 . S
C871 C875 1.460 . S
C871 H877 0.929 . S
N872 Mn865 2.257 . S
N872 C871 1.326 . S
N872 C876 1.362 . S
C873 C874 1.258 . S
C873 C876 1.431 . S
C873 C893 1.449 . S
C874 C873 1.258 . S
C874 C875 1.477 . S
C874 H894 0.931 . S
C875 C871 1.460 . S
C875 C874 1.477 . S
C875 H895 0.930 . S
C876 N872 1.362 . S
C876 C873 1.431 . S
C876 C886 1.476 . S
H877 C871 0.929 . S
C878 O869 1.250 . S
C878 O870 1.258 . S
O879 Mn864 2.162 . S
O879 C867 1.281 . S
O880 Mn864 2.297 . S
O880 C867 1.236 . S
N881 Mn865 2.282 . S
N881 C882 1.328 . S
N881 C886 1.318 . S
C882 N881 1.328 . S
C882 C883 1.457 . S
C882 H887 0.929 . S
C883 C882 1.457 . S
C883 C884 1.291 . S
C883 H896 0.931 . S
C884 C883 1.291 . S
C884 C885 1.373 . S
C884 H897 0.929 . S
C885 C884 1.373 . S
C885 C886 1.396 . S
C885 C892 1.403 . S
C886 C876 1.476 . S
C886 N881 1.318 . S
C886 C885 1.396 . S
H887 C882 0.929 . S
O888 Mn864 2.385 . S
O888 C866 1.234 . S
O889 Mn864 2.209 . S
O889 Mn865 2.215 . S
O889 C866 1.283 . S
O890 Mn864 2.094 . S
O890 C868 1.240 . S
O891 Mn865 2.117 . S
O891 C868 1.264 . S
C892 C885 1.403 . S
C892 C893 1.399 . S
C892 H898 0.929 . S
C893 C873 1.449 . S
C893 C892 1.399 . S
C893 H899 0.930 . S
H894 C874 0.931 . S
H895 C875 0.930 . S
H896 C883 0.931 . S
H897 C884 0.929 . S
H898 C892 0.929 . S
H899 C893 0.930 . S
Mn900 O905 2.095 . S
Mn900 O915 2.162 . S
Mn900 O916 2.297 . S
Mn900 O924 2.385 . S
Mn900 O925 2.209 . S
Mn900 O926 2.094 . S
Mn901 O906 2.121 . S
Mn901 N908 2.257 1_554 S
Mn901 N917 2.282 1_554 S
Mn901 O925 2.215 . S
Mn901 O927 2.117 . S
C902 O924 1.234 . S
C902 O925 1.283 . S
C903 O915 1.281 . S
C903 O916 1.236 . S
C904 O926 1.240 . S
C904 O927 1.264 . S
O905 Mn900 2.095 . S
O905 C914 1.250 . S
O906 Mn901 2.121 . S
O906 C914 1.258 . S
C907 N908 1.326 . S
C907 C911 1.460 . S
C907 H913 0.929 1_556 S
N908 Mn901 2.257 1_556 S
N908 C907 1.326 . S
N908 C912 1.362 . S
C909 C910 1.258 . S
C909 C912 1.431 . S
C909 C929 1.449 . S
C910 C909 1.258 . S
C910 C911 1.477 . S
C910 H930 0.931 . S
C911 C907 1.460 . S
C911 C910 1.477 . S
C911 H931 0.930 . S
C912 N908 1.362 . S
C912 C909 1.431 . S
C912 C922 1.476 . S
H913 C907 0.929 1_554 S
C914 O905 1.250 . S
C914 O906 1.258 . S
O915 Mn900 2.162 . S
O915 C903 1.281 . S
O916 Mn900 2.297 . S
O916 C903 1.236 . S
N917 Mn901 2.282 1_556 S
N917 C918 1.328 . S
N917 C922 1.318 . S
C918 N917 1.328 . S
C918 C919 1.457 . S
C918 H923 0.929 . S
C919 C918 1.457 . S
C919 C920 1.291 . S
C919 H932 0.931 . S
C920 C919 1.291 . S
C920 C921 1.373 . S
C920 H933 0.929 . S
C921 C920 1.373 . S
C921 C922 1.396 . S
C921 C928 1.403 . S
C922 C912 1.476 . S
C922 N917 1.318 . S
C922 C921 1.396 . S
H923 C918 0.929 . S
O924 Mn900 2.385 . S
O924 C902 1.234 . S
O925 Mn900 2.209 . S
O925 Mn901 2.215 . S
O925 C902 1.283 . S
O926 Mn900 2.094 . S
O926 C904 1.240 . S
O927 Mn901 2.117 . S
O927 C904 1.264 . S
C928 C921 1.403 . S
C928 C929 1.399 . S
C928 H934 0.929 . S
C929 C909 1.449 . S
C929 C928 1.399 . S
C929 H935 0.930 . S
H930 C910 0.931 . S
H931 C911 0.930 . S
H932 C919 0.931 . S
H933 C920 0.929 . S
H934 C928 0.929 . S
H935 C929 0.930 . S
Mn936 O941 2.095 . S
Mn936 O951 2.162 . S
Mn936 O952 2.297 . S
Mn936 O960 2.385 . S
Mn936 O961 2.209 . S
Mn936 O962 2.094 . S
Mn937 O942 2.121 . S
Mn937 N944 2.257 . S
Mn937 N953 2.282 . S
Mn937 O961 2.215 . S
Mn937 O963 2.117 . S
C938 O960 1.234 . S
C938 O961 1.283 . S
C939 O951 1.281 . S
C939 O952 1.236 . S
C940 O962 1.240 . S
C940 O963 1.264 . S
O941 Mn936 2.095 . S
O941 C950 1.250 . S
O942 Mn937 2.121 . S
O942 C950 1.258 . S
C943 N944 1.326 . S
C943 C947 1.460 . S
C943 H949 0.929 . S
N944 Mn937 2.257 . S
N944 C943 1.326 . S
N944 C948 1.362 . S
C945 C946 1.258 . S
C945 C948 1.431 . S
C945 C965 1.449 . S
C946 C945 1.258 . S
C946 C947 1.477 . S
C946 H966 0.931 . S
C947 C943 1.460 . S
C947 C946 1.477 . S
C947 H967 0.930 . S
C948 N944 1.362 . S
C948 C945 1.431 . S
C948 C958 1.476 . S
H949 C943 0.929 . S
C950 O941 1.250 . S
C950 O942 1.258 . S
O951 Mn936 2.162 . S
O951 C939 1.281 . S
O952 Mn936 2.297 . S
O952 C939 1.236 . S
N953 Mn937 2.282 . S
N953 C954 1.328 . S
N953 C958 1.318 . S
C954 N953 1.328 . S
C954 C955 1.457 . S
C954 H959 0.929 . S
C955 C954 1.457 . S
C955 C956 1.291 . S
C955 H968 0.931 . S
C956 C955 1.291 . S
C956 C957 1.373 . S
C956 H969 0.929 . S
C957 C956 1.373 . S
C957 C958 1.396 . S
C957 C964 1.403 . S
C958 C948 1.476 . S
C958 N953 1.318 . S
C958 C957 1.396 . S
H959 C954 0.929 . S
O960 Mn936 2.385 . S
O960 C938 1.234 . S
O961 Mn936 2.209 . S
O961 Mn937 2.215 . S
O961 C938 1.283 . S
O962 Mn936 2.094 . S
O962 C940 1.240 . S
O963 Mn937 2.117 . S
O963 C940 1.264 . S
C964 C957 1.403 . S
C964 C965 1.399 . S
C964 H970 0.929 . S
C965 C945 1.449 . S
C965 C964 1.399 . S
C965 H971 0.930 . S
H966 C946 0.931 . S
H967 C947 0.930 . S
H968 C955 0.931 . S
H969 C956 0.929 . S
H970 C964 0.929 . S
H971 C965 0.930 . S
Mn972 O977 2.095 . S
Mn972 O987 2.162 . S
Mn972 O988 2.297 . S
Mn972 O996 2.385 . S
Mn972 O997 2.209 . S
Mn972 O998 2.094 . S
Mn973 O978 2.121 . S
Mn973 N980 2.257 . S
Mn973 N989 2.282 . S
Mn973 O997 2.215 . S
Mn973 O999 2.117 . S
C974 O996 1.234 . S
C974 O997 1.283 . S
C975 O987 1.281 . S
C975 O988 1.236 . S
C976 O998 1.240 . S
C976 O999 1.264 . S
O977 Mn972 2.095 . S
O977 C986 1.250 . S
O978 Mn973 2.121 . S
O978 C986 1.258 . S
C979 N980 1.326 . S
C979 C983 1.460 . S
C979 H985 0.929 . S
N980 Mn973 2.257 . S
N980 C979 1.326 . S
N980 C984 1.362 . S
C981 C982 1.258 . S
C981 C984 1.431 . S
C981 C1001 1.449 . S
C982 C981 1.258 . S
C982 C983 1.477 . S
C982 H1002 0.931 . S
C983 C979 1.460 . S
C983 C982 1.477 . S
C983 H1003 0.930 . S
C984 N980 1.362 . S
C984 C981 1.431 . S
C984 C994 1.476 . S
H985 C979 0.929 . S
C986 O977 1.250 . S
C986 O978 1.258 . S
O987 Mn972 2.162 . S
O987 C975 1.281 . S
O988 Mn972 2.297 . S
O988 C975 1.236 . S
N989 Mn973 2.282 . S
N989 C990 1.328 . S
N989 C994 1.318 . S
C990 N989 1.328 . S
C990 C991 1.457 . S
C990 H995 0.929 . S
C991 C990 1.457 . S
C991 C992 1.291 . S
C991 H1004 0.931 . S
C992 C991 1.291 . S
C992 C993 1.373 . S
C992 H1005 0.929 . S
C993 C992 1.373 . S
C993 C994 1.396 . S
C993 C1000 1.403 . S
C994 C984 1.476 . S
C994 N989 1.318 . S
C994 C993 1.396 . S
H995 C990 0.929 . S
O996 Mn972 2.385 . S
O996 C974 1.234 . S
O997 Mn972 2.209 . S
O997 Mn973 2.215 . S
O997 C974 1.283 . S
O998 Mn972 2.094 . S
O998 C976 1.240 . S
O999 Mn973 2.117 . S
O999 C976 1.264 . S
C1000 C993 1.403 . S
C1000 C1001 1.399 . S
C1000 H1006 0.929 . S
C1001 C981 1.449 . S
C1001 C1000 1.399 . S
C1001 H1007 0.930 . S
H1002 C982 0.931 . S
H1003 C983 0.930 . S
H1004 C991 0.931 . S
H1005 C992 0.929 . S
H1006 C1000 0.929 . S
H1007 C1001 0.930 . S
Mn1008 O1013 2.095 . S
Mn1008 O1023 2.162 . S
Mn1008 O1024 2.297 . S
Mn1008 O1032 2.385 . S
Mn1008 O1033 2.209 . S
Mn1008 O1034 2.094 . S
Mn1009 O1014 2.121 . S
Mn1009 N1016 2.257 . S
Mn1009 N1025 2.282 . S
Mn1009 O1033 2.215 . S
Mn1009 O1035 2.117 . S
C1010 O1032 1.234 . S
C1010 O1033 1.283 . S
C1011 O1023 1.281 . S
C1011 O1024 1.236 . S
C1012 O1034 1.240 . S
C1012 O1035 1.264 . S
O1013 Mn1008 2.095 . S
O1013 C1022 1.250 . S
O1014 Mn1009 2.121 . S
O1014 C1022 1.258 . S
C1015 N1016 1.326 . S
C1015 C1019 1.460 . S
C1015 H1021 0.929 . S
N1016 Mn1009 2.257 . S
N1016 C1015 1.326 . S
N1016 C1020 1.362 . S
C1017 C1018 1.258 . S
C1017 C1020 1.431 . S
C1017 C1037 1.449 . S
C1018 C1017 1.258 . S
C1018 C1019 1.477 . S
C1018 H1038 0.931 . S
C1019 C1015 1.460 . S
C1019 C1018 1.477 . S
C1019 H1039 0.930 . S
C1020 N1016 1.362 . S
C1020 C1017 1.431 . S
C1020 C1030 1.476 . S
H1021 C1015 0.929 . S
C1022 O1013 1.250 . S
C1022 O1014 1.258 . S
O1023 Mn1008 2.162 . S
O1023 C1011 1.281 . S
O1024 Mn1008 2.297 . S
O1024 C1011 1.236 . S
N1025 Mn1009 2.282 . S
N1025 C1026 1.328 . S
N1025 C1030 1.318 . S
C1026 N1025 1.328 . S
C1026 C1027 1.457 . S
C1026 H1031 0.929 . S
C1027 C1026 1.457 . S
C1027 C1028 1.291 . S
C1027 H1040 0.931 . S
C1028 C1027 1.291 . S
C1028 C1029 1.373 . S
C1028 H1041 0.929 . S
C1029 C1028 1.373 . S
C1029 C1030 1.396 . S
C1029 C1036 1.403 . S
C1030 C1020 1.476 . S
C1030 N1025 1.318 . S
C1030 C1029 1.396 . S
H1031 C1026 0.929 . S
O1032 Mn1008 2.385 . S
O1032 C1010 1.234 . S
O1033 Mn1008 2.209 . S
O1033 Mn1009 2.215 . S
O1033 C1010 1.283 . S
O1034 Mn1008 2.094 . S
O1034 C1012 1.240 . S
O1035 Mn1009 2.117 . S
O1035 C1012 1.264 . S
C1036 C1029 1.403 . S
C1036 C1037 1.399 . S
C1036 H1042 0.929 . S
C1037 C1017 1.449 . S
C1037 C1036 1.399 . S
C1037 H1043 0.930 . S
H1038 C1018 0.931 . S
H1039 C1019 0.930 . S
H1040 C1027 0.931 . S
H1041 C1028 0.929 . S
H1042 C1036 0.929 . S
H1043 C1037 0.930 . S
Mn1044 O1049 2.095 . S
Mn1044 O1059 2.162 . S
Mn1044 O1060 2.297 . S
Mn1044 O1068 2.385 . S
Mn1044 O1069 2.209 . S
Mn1044 O1070 2.094 . S
Mn1045 O1050 2.121 . S
Mn1045 N1052 2.257 . S
Mn1045 N1061 2.282 . S
Mn1045 O1069 2.215 . S
Mn1045 O1071 2.117 . S
C1046 O1068 1.234 . S
C1046 O1069 1.283 . S
C1047 O1059 1.281 . S
C1047 O1060 1.236 . S
C1048 O1070 1.240 . S
C1048 O1071 1.264 . S
O1049 Mn1044 2.095 . S
O1049 C1058 1.250 . S
O1050 Mn1045 2.121 . S
O1050 C1058 1.258 . S
C1051 N1052 1.326 . S
C1051 C1055 1.460 . S
C1051 H1057 0.929 . S
N1052 Mn1045 2.257 . S
N1052 C1051 1.326 . S
N1052 C1056 1.362 . S
C1053 C1054 1.258 . S
C1053 C1056 1.431 . S
C1053 C1073 1.449 . S
C1054 C1053 1.258 . S
C1054 C1055 1.477 . S
C1054 H1074 0.931 . S
C1055 C1051 1.460 . S
C1055 C1054 1.477 . S
C1055 H1075 0.930 . S
C1056 N1052 1.362 . S
C1056 C1053 1.431 . S
C1056 C1066 1.476 . S
H1057 C1051 0.929 . S
C1058 O1049 1.250 . S
C1058 O1050 1.258 . S
O1059 Mn1044 2.162 . S
O1059 C1047 1.281 . S
O1060 Mn1044 2.297 . S
O1060 C1047 1.236 . S
N1061 Mn1045 2.282 . S
N1061 C1062 1.328 . S
N1061 C1066 1.318 . S
C1062 N1061 1.328 . S
C1062 C1063 1.457 . S
C1062 H1067 0.929 . S
C1063 C1062 1.457 . S
C1063 C1064 1.291 . S
C1063 H1076 0.931 . S
C1064 C1063 1.291 . S
C1064 C1065 1.373 . S
C1064 H1077 0.929 . S
C1065 C1064 1.373 . S
C1065 C1066 1.396 . S
C1065 C1072 1.403 . S
C1066 C1056 1.476 . S
C1066 N1061 1.318 . S
C1066 C1065 1.396 . S
H1067 C1062 0.929 . S
O1068 Mn1044 2.385 . S
O1068 C1046 1.234 . S
O1069 Mn1044 2.209 . S
O1069 Mn1045 2.215 . S
O1069 C1046 1.283 . S
O1070 Mn1044 2.094 . S
O1070 C1048 1.240 . S
O1071 Mn1045 2.117 . S
O1071 C1048 1.264 . S
C1072 C1065 1.403 . S
C1072 C1073 1.399 . S
C1072 H1078 0.929 . S
C1073 C1053 1.449 . S
C1073 C1072 1.399 . S
C1073 H1079 0.930 . S
H1074 C1054 0.931 . S
H1075 C1055 0.930 . S
H1076 C1063 0.931 . S
H1077 C1064 0.929 . S
H1078 C1072 0.929 . S
H1079 C1073 0.930 . S
Mn1080 O1085 2.095 . S
Mn1080 O1095 2.162 . S
Mn1080 O1096 2.297 . S
Mn1080 O1104 2.385 . S
Mn1080 O1105 2.209 . S
Mn1080 O1106 2.094 . S
Mn1081 O1086 2.121 . S
Mn1081 N1088 2.257 . S
Mn1081 N1097 2.282 . S
Mn1081 O1105 2.215 . S
Mn1081 O1107 2.117 . S
C1082 O1104 1.234 . S
C1082 O1105 1.283 . S
C1083 O1095 1.281 . S
C1083 O1096 1.236 . S
C1084 O1106 1.240 . S
C1084 O1107 1.264 . S
O1085 Mn1080 2.095 . S
O1085 C1094 1.250 . S
O1086 Mn1081 2.121 . S
O1086 C1094 1.258 . S
C1087 N1088 1.326 . S
C1087 C1091 1.460 . S
C1087 H1093 0.929 . S
N1088 Mn1081 2.257 . S
N1088 C1087 1.326 . S
N1088 C1092 1.362 . S
C1089 C1090 1.258 . S
C1089 C1092 1.431 . S
C1089 C1109 1.449 . S
C1090 C1089 1.258 . S
C1090 C1091 1.477 . S
C1090 H1110 0.931 . S
C1091 C1087 1.460 . S
C1091 C1090 1.477 . S
C1091 H1111 0.930 . S
C1092 N1088 1.362 . S
C1092 C1089 1.431 . S
C1092 C1102 1.476 . S
H1093 C1087 0.929 . S
C1094 O1085 1.250 . S
C1094 O1086 1.258 . S
O1095 Mn1080 2.162 . S
O1095 C1083 1.281 . S
O1096 Mn1080 2.297 . S
O1096 C1083 1.236 . S
N1097 Mn1081 2.282 . S
N1097 C1098 1.328 . S
N1097 C1102 1.318 . S
C1098 N1097 1.328 . S
C1098 C1099 1.457 . S
C1098 H1103 0.929 . S
C1099 C1098 1.457 . S
C1099 C1100 1.291 . S
C1099 H1112 0.931 . S
C1100 C1099 1.291 . S
C1100 C1101 1.373 . S
C1100 H1113 0.929 . S
C1101 C1100 1.373 . S
C1101 C1102 1.396 . S
C1101 C1108 1.403 . S
C1102 C1092 1.476 . S
C1102 N1097 1.318 . S
C1102 C1101 1.396 . S
H1103 C1098 0.929 . S
O1104 Mn1080 2.385 . S
O1104 C1082 1.234 . S
O1105 Mn1080 2.209 . S
O1105 Mn1081 2.215 . S
O1105 C1082 1.283 . S
O1106 Mn1080 2.094 . S
O1106 C1084 1.240 . S
O1107 Mn1081 2.117 . S
O1107 C1084 1.264 . S
C1108 C1101 1.403 . S
C1108 C1109 1.399 . S
C1108 H1114 0.929 . S
C1109 C1089 1.449 . S
C1109 C1108 1.399 . S
C1109 H1115 0.930 . S
H1110 C1090 0.931 . S
H1111 C1091 0.930 . S
H1112 C1099 0.931 . S
H1113 C1100 0.929 . S
H1114 C1108 0.929 . S
H1115 C1109 0.930 . S
Mn1116 O1121 2.095 . S
Mn1116 O1131 2.162 . S
Mn1116 O1132 2.297 . S
Mn1116 O1140 2.385 . S
Mn1116 O1141 2.209 . S
Mn1116 O1142 2.094 . S
Mn1117 O1122 2.121 . S
Mn1117 N1124 2.257 1_556 S
Mn1117 N1133 2.282 1_556 S
Mn1117 O1141 2.215 . S
Mn1117 O1143 2.117 . S
C1118 O1140 1.234 . S
C1118 O1141 1.283 . S
C1119 O1131 1.281 . S
C1119 O1132 1.236 . S
C1120 O1142 1.240 . S
C1120 O1143 1.264 . S
O1121 Mn1116 2.095 . S
O1121 C1130 1.250 . S
O1122 Mn1117 2.121 . S
O1122 C1130 1.258 . S
C1123 N1124 1.326 . S
C1123 C1127 1.460 . S
C1123 H1129 0.929 1_554 S
N1124 Mn1117 2.257 1_554 S
N1124 C1123 1.326 . S
N1124 C1128 1.362 . S
C1125 C1126 1.258 . S
C1125 C1128 1.431 . S
C1125 C1145 1.449 . S
C1126 C1125 1.258 . S
C1126 C1127 1.477 . S
C1126 H1146 0.931 . S
C1127 C1123 1.460 . S
C1127 C1126 1.477 . S
C1127 H1147 0.930 . S
C1128 N1124 1.362 . S
C1128 C1125 1.431 . S
C1128 C1138 1.476 . S
H1129 C1123 0.929 1_556 S
C1130 O1121 1.250 . S
C1130 O1122 1.258 . S
O1131 Mn1116 2.162 . S
O1131 C1119 1.281 . S
O1132 Mn1116 2.297 . S
O1132 C1119 1.236 . S
N1133 Mn1117 2.282 1_554 S
N1133 C1134 1.328 . S
N1133 C1138 1.318 . S
C1134 N1133 1.328 . S
C1134 C1135 1.457 . S
C1134 H1139 0.929 . S
C1135 C1134 1.457 . S
C1135 C1136 1.291 . S
C1135 H1148 0.931 . S
C1136 C1135 1.291 . S
C1136 C1137 1.373 . S
C1136 H1149 0.929 . S
C1137 C1136 1.373 . S
C1137 C1138 1.396 . S
C1137 C1144 1.403 . S
C1138 C1128 1.476 . S
C1138 N1133 1.318 . S
C1138 C1137 1.396 . S
H1139 C1134 0.929 . S
O1140 Mn1116 2.385 . S
O1140 C1118 1.234 . S
O1141 Mn1116 2.209 . S
O1141 Mn1117 2.215 . S
O1141 C1118 1.283 . S
O1142 Mn1116 2.094 . S
O1142 C1120 1.240 . S
O1143 Mn1117 2.117 . S
O1143 C1120 1.264 . S
C1144 C1137 1.403 . S
C1144 C1145 1.399 . S
C1144 H1150 0.929 . S
C1145 C1125 1.449 . S
C1145 C1144 1.399 . S
C1145 H1151 0.930 . S
H1146 C1126 0.931 . S
H1147 C1127 0.930 . S
H1148 C1135 0.931 . S
H1149 C1136 0.929 . S
H1150 C1144 0.929 . S
H1151 C1145 0.930 . S
C1152 C1153 1.349 . S
C1152 C1154 1.327 . S
C1152 H1177 0.950 . S
C1153 C1152 1.349 . S
C1153 C1169 1.349 . S
C1154 C1152 1.327 . S
C1154 C1173 1.429 . S
C1154 H1178 0.950 . S
C1155 C1172 1.574 . S
C1155 C1174 1.368 . S
C1155 H1179 0.949 . S
H1156 C1160 0.949 . S
C1157 C1158 1.349 . S
C1157 C1159 1.327 . S
C1157 H1180 0.950 . S
C1158 C1157 1.349 . S
C1158 C1170 1.349 . S
C1159 C1157 1.327 . S
C1159 C1175 1.429 . S
C1159 H1181 0.950 . S
C1160 H1156 0.949 . S
C1160 C1168 1.574 . S
C1160 C1176 1.368 . S
H1161 C1169 0.950 . S
H1162 C1167 0.950 . S
H1163 C1168 0.949 . S
H1164 C1170 0.950 . S
H1165 C1171 0.950 . S
H1166 C1172 0.949 . S
C1167 H1162 0.950 . S
C1167 C1169 1.327 . S
C1167 C1173 1.429 . S
C1168 C1160 1.574 . S
C1168 H1163 0.949 . S
C1168 C1174 1.368 . S
C1169 C1153 1.349 . S
C1169 H1161 0.950 . S
C1169 C1167 1.327 . S
C1170 C1158 1.349 . S
C1170 H1164 0.950 . S
C1170 C1171 1.327 . S
C1171 H1165 0.950 . S
C1171 C1170 1.327 . S
C1171 C1175 1.429 . S
C1172 C1155 1.574 . S
C1172 H1166 0.949 . S
C1172 C1176 1.368 . S
C1173 C1154 1.429 . S
C1173 C1167 1.429 . S
C1173 C1174 1.523 . S
C1174 C1155 1.368 . S
C1174 C1168 1.368 . S
C1174 C1173 1.523 . S
C1175 C1159 1.429 . S
C1175 C1171 1.429 . S
C1175 C1176 1.523 . S
C1176 C1160 1.368 . S
C1176 C1172 1.368 . S
C1176 C1175 1.523 . S
H1177 C1152 0.950 . S
H1178 C1154 0.950 . S
H1179 C1155 0.949 . S
H1180 C1157 0.950 . S
H1181 C1159 0.950 . S
C1182 C1183 1.349 . S
C1182 C1184 1.327 . S
C1182 H1207 0.950 . S
C1183 C1182 1.349 . S
C1183 C1199 1.349 . S
C1184 C1182 1.327 . S
C1184 C1203 1.429 . S
C1184 H1208 0.950 . S
C1185 C1202 1.574 1_565 S
C1185 C1204 1.368 . S
C1185 H1209 0.949 . S
H1186 C1190 0.949 . S
C1187 C1188 1.349 . S
C1187 C1189 1.327 . S
C1187 H1210 0.950 . S
C1188 C1187 1.349 . S
C1188 C1200 1.349 . S
C1189 C1187 1.327 . S
C1189 C1205 1.429 . S
C1189 H1211 0.950 . S
C1190 H1186 0.949 . S
C1190 C1198 1.574 1_545 S
C1190 C1206 1.368 . S
H1191 C1199 0.950 . S
H1192 C1197 0.950 . S
H1193 C1198 0.949 . S
H1194 C1200 0.950 . S
H1195 C1201 0.950 . S
H1196 C1202 0.949 . S
C1197 H1192 0.950 . S
C1197 C1199 1.327 . S
C1197 C1203 1.429 . S
C1198 C1190 1.574 1_565 S
C1198 H1193 0.949 . S
C1198 C1204 1.368 . S
C1199 C1183 1.349 . S
C1199 H1191 0.950 . S
C1199 C1197 1.327 . S
C1200 C1188 1.349 . S
C1200 H1194 0.950 . S
C1200 C1201 1.327 . S
C1201 H1195 0.950 . S
C1201 C1200 1.327 . S
C1201 C1205 1.429 . S
C1202 C1185 1.574 1_545 S
C1202 H1196 0.949 . S
C1202 C1206 1.368 . S
C1203 C1184 1.429 . S
C1203 C1197 1.429 . S
C1203 C1204 1.523 . S
C1204 C1185 1.368 . S
C1204 C1198 1.368 . S
C1204 C1203 1.523 . S
C1205 C1189 1.429 . S
C1205 C1201 1.429 . S
C1205 C1206 1.523 . S
C1206 C1190 1.368 . S
C1206 C1202 1.368 . S
C1206 C1205 1.523 . S
H1207 C1182 0.950 . S
H1208 C1184 0.950 . S
H1209 C1185 0.949 . S
H1210 C1187 0.950 . S
H1211 C1189 0.950 . S
C1212 C1213 1.349 . S
C1212 C1214 1.327 . S
C1212 H1237 0.950 . S
C1213 C1212 1.349 . S
C1213 C1229 1.349 . S
C1214 C1212 1.327 . S
C1214 C1233 1.429 . S
C1214 H1238 0.950 . S
C1215 C1232 1.574 . S
C1215 C1234 1.368 . S
C1215 H1239 0.949 . S
H1216 C1220 0.949 . S
C1217 C1218 1.349 . S
C1217 C1219 1.327 . S
C1217 H1240 0.950 . S
C1218 C1217 1.349 . S
C1218 C1230 1.349 . S
C1219 C1217 1.327 . S
C1219 C1235 1.429 . S
C1219 H1241 0.950 . S
C1220 H1216 0.949 . S
C1220 C1228 1.574 . S
C1220 C1236 1.368 . S
H1221 C1229 0.950 . S
H1222 C1227 0.950 . S
H1223 C1228 0.949 . S
H1224 C1230 0.950 . S
H1225 C1231 0.950 . S
H1226 C1232 0.949 . S
C1227 H1222 0.950 . S
C1227 C1229 1.327 . S
C1227 C1233 1.429 . S
C1228 C1220 1.574 . S
C1228 H1223 0.949 . S
C1228 C1234 1.368 . S
C1229 C1213 1.349 . S
C1229 H1221 0.950 . S
C1229 C1227 1.327 . S
C1230 C1218 1.349 . S
C1230 H1224 0.950 . S
C1230 C1231 1.327 . S
C1231 H1225 0.950 . S
C1231 C1230 1.327 . S
C1231 C1235 1.429 . S
C1232 C1215 1.574 . S
C1232 H1226 0.949 . S
C1232 C1236 1.368 . S
C1233 C1214 1.429 . S
C1233 C1227 1.429 . S
C1233 C1234 1.523 . S
C1234 C1215 1.368 . S
C1234 C1228 1.368 . S
C1234 C1233 1.523 . S
C1235 C1219 1.429 . S
C1235 C1231 1.429 . S
C1235 C1236 1.523 . S
C1236 C1220 1.368 . S
C1236 C1232 1.368 . S
C1236 C1235 1.523 . S
H1237 C1212 0.950 . S
H1238 C1214 0.950 . S
H1239 C1215 0.949 . S
H1240 C1217 0.950 . S
H1241 C1219 0.950 . S
C1242 C1243 1.349 . S
C1242 C1244 1.327 . S
C1242 H1267 0.950 . S
C1243 C1242 1.349 . S
C1243 C1259 1.349 . S
C1244 C1242 1.327 . S
C1244 C1263 1.429 . S
C1244 H1268 0.950 1_556 S
C1245 C1262 1.574 1_545 S
C1245 C1264 1.368 . S
C1245 H1269 0.949 . S
H1246 C1250 0.949 . S
C1247 C1248 1.349 . S
C1247 C1249 1.327 . S
C1247 H1270 0.950 . S
C1248 C1247 1.349 . S
C1248 C1260 1.349 . S
C1249 C1247 1.327 . S
C1249 C1265 1.429 . S
C1249 H1271 0.950 1_554 S
C1250 H1246 0.949 . S
C1250 C1258 1.574 1_565 S
C1250 C1266 1.368 . S
H1251 C1259 0.950 . S
H1252 C1257 0.950 . S
H1253 C1258 0.949 . S
H1254 C1260 0.950 . S
H1255 C1261 0.950 . S
H1256 C1262 0.949 . S
C1257 H1252 0.950 . S
C1257 C1259 1.327 . S
C1257 C1263 1.429 . S
C1258 C1250 1.574 1_545 S
C1258 H1253 0.949 . S
C1258 C1264 1.368 1_554 S
C1259 C1243 1.349 . S
C1259 H1251 0.950 . S
C1259 C1257 1.327 . S
C1260 C1248 1.349 . S
C1260 H1254 0.950 . S
C1260 C1261 1.327 . S
C1261 H1255 0.950 . S
C1261 C1260 1.327 . S
C1261 C1265 1.429 . S
C1262 C1245 1.574 1_565 S
C1262 H1256 0.949 . S
C1262 C1266 1.368 1_556 S
C1263 C1244 1.429 . S
C1263 C1257 1.429 . S
C1263 C1264 1.523 . S
C1264 C1245 1.368 . S
C1264 C1258 1.368 1_556 S
C1264 C1263 1.523 . S
C1265 C1249 1.429 . S
C1265 C1261 1.429 . S
C1265 C1266 1.523 . S
C1266 C1250 1.368 . S
C1266 C1262 1.368 1_554 S
C1266 C1265 1.523 . S
H1267 C1242 0.950 . S
H1268 C1244 0.950 1_554 S
H1269 C1245 0.949 . S
H1270 C1247 0.950 . S
H1271 C1249 0.950 1_556 S
C1272 C1273 1.349 . S
C1272 C1274 1.327 . S
C1272 H1297 0.950 . S
C1273 C1272 1.349 . S
C1273 C1289 1.349 . S
C1274 C1272 1.327 . S
C1274 C1293 1.429 . S
C1274 H1298 0.950 . S
C1275 C1292 1.574 . S
C1275 C1294 1.368 . S
C1275 H1299 0.949 . S
H1276 C1280 0.949 . S
C1277 C1278 1.349 . S
C1277 C1279 1.327 . S
C1277 H1300 0.950 . S
C1278 C1277 1.349 . S
C1278 C1290 1.349 . S
C1279 C1277 1.327 . S
C1279 C1295 1.429 . S
C1279 H1301 0.950 . S
C1280 H1276 0.949 . S
C1280 C1288 1.574 . S
C1280 C1296 1.368 . S
H1281 C1289 0.950 . S
H1282 C1287 0.950 . S
H1283 C1288 0.949 . S
H1284 C1290 0.950 . S
H1285 C1291 0.950 . S
H1286 C1292 0.949 . S
C1287 H1282 0.950 . S
C1287 C1289 1.327 . S
C1287 C1293 1.429 . S
C1288 C1280 1.574 . S
C1288 H1283 0.949 . S
C1288 C1294 1.368 . S
C1289 C1273 1.349 . S
C1289 H1281 0.950 . S
C1289 C1287 1.327 . S
C1290 C1278 1.349 . S
C1290 H1284 0.950 . S
C1290 C1291 1.327 . S
C1291 H1285 0.950 . S
C1291 C1290 1.327 . S
C1291 C1295 1.429 . S
C1292 C1275 1.574 . S
C1292 H1286 0.949 . S
C1292 C1296 1.368 . S
C1293 C1274 1.429 . S
C1293 C1287 1.429 . S
C1293 C1294 1.523 . S
C1294 C1275 1.368 . S
C1294 C1288 1.368 . S
C1294 C1293 1.523 . S
C1295 C1279 1.429 . S
C1295 C1291 1.429 . S
C1295 C1296 1.523 . S
C1296 C1280 1.368 . S
C1296 C1292 1.368 . S
C1296 C1295 1.523 . S
H1297 C1272 0.950 . S
H1298 C1274 0.950 . S
H1299 C1275 0.949 . S
H1300 C1277 0.950 . S
H1301 C1279 0.950 . S
C1302 C1303 1.349 . S
C1302 C1304 1.327 . S
C1302 H1327 0.950 . S
C1303 C1302 1.349 . S
C1303 C1319 1.349 . S
C1304 C1302 1.327 . S
C1304 C1323 1.429 . S
C1304 H1328 0.950 . S
C1305 C1322 1.574 1_565 S
C1305 C1324 1.368 . S
C1305 H1329 0.949 . S
H1306 C1310 0.949 . S
C1307 C1308 1.349 . S
C1307 C1309 1.327 . S
C1307 H1330 0.950 . S
C1308 C1307 1.349 . S
C1308 C1320 1.349 . S
C1309 C1307 1.327 . S
C1309 C1325 1.429 . S
C1309 H1331 0.950 . S
C1310 H1306 0.949 . S
C1310 C1318 1.574 1_545 S
C1310 C1326 1.368 . S
H1311 C1319 0.950 . S
H1312 C1317 0.950 . S
H1313 C1318 0.949 . S
H1314 C1320 0.950 . S
H1315 C1321 0.950 . S
H1316 C1322 0.949 . S
C1317 H1312 0.950 . S
C1317 C1319 1.327 . S
C1317 C1323 1.429 . S
C1318 C1310 1.574 1_565 S
C1318 H1313 0.949 . S
C1318 C1324 1.368 . S
C1319 C1303 1.349 . S
C1319 H1311 0.950 . S
C1319 C1317 1.327 . S
C1320 C1308 1.349 . S
C1320 H1314 0.950 . S
C1320 C1321 1.327 . S
C1321 H1315 0.950 . S
C1321 C1320 1.327 . S
C1321 C1325 1.429 . S
C1322 C1305 1.574 1_545 S
C1322 H1316 0.949 . S
C1322 C1326 1.368 . S
C1323 C1304 1.429 . S
C1323 C1317 1.429 . S
C1323 C1324 1.523 . S
C1324 C1305 1.368 . S
C1324 C1318 1.368 . S
C1324 C1323 1.523 . S
C1325 C1309 1.429 . S
C1325 C1321 1.429 . S
C1325 C1326 1.523 . S
C1326 C1310 1.368 . S
C1326 C1322 1.368 . S
C1326 C1325 1.523 . S
H1327 C1302 0.950 . S
H1328 C1304 0.950 . S
H1329 C1305 0.949 . S
H1330 C1307 0.950 . S
H1331 C1309 0.950 . S
C1332 C1333 1.349 . S
C1332 C1334 1.327 . S
C1332 H1357 0.950 . S
C1333 C1332 1.349 . S
C1333 C1349 1.349 . S
C1334 C1332 1.327 . S
C1334 C1353 1.429 . S
C1334 H1358 0.950 . S
C1335 C1352 1.574 . S
C1335 C1354 1.368 . S
C1335 H1359 0.949 . S
H1336 C1340 0.949 . S
C1337 C1338 1.349 . S
C1337 C1339 1.327 . S
C1337 H1360 0.950 . S
C1338 C1337 1.349 . S
C1338 C1350 1.349 . S
C1339 C1337 1.327 . S
C1339 C1355 1.429 . S
C1339 H1361 0.950 . S
C1340 H1336 0.949 . S
C1340 C1348 1.574 . S
C1340 C1356 1.368 . S
H1341 C1349 0.950 . S
H1342 C1347 0.950 . S
H1343 C1348 0.949 . S
H1344 C1350 0.950 . S
H1345 C1351 0.950 . S
H1346 C1352 0.949 . S
C1347 H1342 0.950 . S
C1347 C1349 1.327 . S
C1347 C1353 1.429 . S
C1348 C1340 1.574 . S
C1348 H1343 0.949 . S
C1348 C1354 1.368 . S
C1349 C1333 1.349 . S
C1349 H1341 0.950 . S
C1349 C1347 1.327 . S
C1350 C1338 1.349 . S
C1350 H1344 0.950 . S
C1350 C1351 1.327 . S
C1351 H1345 0.950 . S
C1351 C1350 1.327 . S
C1351 C1355 1.429 . S
C1352 C1335 1.574 . S
C1352 H1346 0.949 . S
C1352 C1356 1.368 . S
C1353 C1334 1.429 . S
C1353 C1347 1.429 . S
C1353 C1354 1.523 . S
C1354 C1335 1.368 . S
C1354 C1348 1.368 . S
C1354 C1353 1.523 . S
C1355 C1339 1.429 . S
C1355 C1351 1.429 . S
C1355 C1356 1.523 . S
C1356 C1340 1.368 . S
C1356 C1352 1.368 . S
C1356 C1355 1.523 . S
H1357 C1332 0.950 . S
H1358 C1334 0.950 . S
H1359 C1335 0.949 . S
H1360 C1337 0.950 . S
H1361 C1339 0.950 . S
C1362 C1363 1.349 . S
C1362 C1364 1.327 . S
C1362 H1387 0.950 . S
C1363 C1362 1.349 . S
C1363 C1379 1.349 . S
C1364 C1362 1.327 . S
C1364 C1383 1.429 . S
C1364 H1388 0.950 . S
C1365 C1382 1.574 1_545 S
C1365 C1384 1.368 1_554 S
C1365 H1389 0.949 . S
H1366 C1370 0.949 . S
C1367 C1368 1.349 . S
C1367 C1369 1.327 . S
C1367 H1390 0.950 . S
C1368 C1367 1.349 . S
C1368 C1380 1.349 . S
C1369 C1367 1.327 . S
C1369 C1385 1.429 . S
C1369 H1391 0.950 . S
C1370 H1366 0.949 . S
C1370 C1378 1.574 1_565 S
C1370 C1386 1.368 1_556 S
H1371 C1379 0.950 . S
H1372 C1377 0.950 1_554 S
H1373 C1378 0.949 . S
H1374 C1380 0.950 . S
H1375 C1381 0.950 1_556 S
H1376 C1382 0.949 . S
C1377 H1372 0.950 1_556 S
C1377 C1379 1.327 . S
C1377 C1383 1.429 . S
C1378 C1370 1.574 1_545 S
C1378 H1373 0.949 . S
C1378 C1384 1.368 . S
C1379 C1363 1.349 . S
C1379 H1371 0.950 . S
C1379 C1377 1.327 . S
C1380 C1368 1.349 . S
C1380 H1374 0.950 . S
C1380 C1381 1.327 . S
C1381 H1375 0.950 1_554 S
C1381 C1380 1.327 . S
C1381 C1385 1.429 . S
C1382 C1365 1.574 1_565 S
C1382 H1376 0.949 . S
C1382 C1386 1.368 . S
C1383 C1364 1.429 . S
C1383 C1377 1.429 . S
C1383 C1384 1.523 . S
C1384 C1365 1.368 1_556 S
C1384 C1378 1.368 . S
C1384 C1383 1.523 . S
C1385 C1369 1.429 . S
C1385 C1381 1.429 . S
C1385 C1386 1.523 . S
C1386 C1370 1.368 1_554 S
C1386 C1382 1.368 . S
C1386 C1385 1.523 . S
H1387 C1362 0.950 . S
H1388 C1364 0.950 . S
H1389 C1365 0.949 . S
H1390 C1367 0.950 . S
H1391 C1369 0.950 . S
C1392 C1393 1.349 . S
C1392 C1394 1.327 . S
C1392 H1417 0.950 . S
C1393 C1392 1.349 . S
C1393 C1409 1.349 . S
C1394 C1392 1.327 . S
C1394 C1413 1.429 . S
C1394 H1418 0.950 . S
C1395 C1412 1.574 . S
C1395 C1414 1.368 . S
C1395 H1419 0.949 . S
H1396 C1400 0.949 . S
C1397 C1398 1.349 . S
C1397 C1399 1.327 . S
C1397 H1420 0.950 . S
C1398 C1397 1.349 . S
C1398 C1410 1.349 . S
C1399 C1397 1.327 . S
C1399 C1415 1.429 . S
C1399 H1421 0.950 . S
C1400 H1396 0.949 . S
C1400 C1408 1.574 . S
C1400 C1416 1.368 . S
H1401 C1409 0.950 . S
H1402 C1407 0.950 . S
H1403 C1408 0.949 . S
H1404 C1410 0.950 . S
H1405 C1411 0.950 . S
H1406 C1412 0.949 . S
C1407 H1402 0.950 . S
C1407 C1409 1.327 . S
C1407 C1413 1.429 . S
C1408 C1400 1.574 . S
C1408 H1403 0.949 . S
C1408 C1414 1.368 . S
C1409 C1393 1.349 . S
C1409 H1401 0.950 . S
C1409 C1407 1.327 . S
C1410 C1398 1.349 . S
C1410 H1404 0.950 . S
C1410 C1411 1.327 . S
C1411 H1405 0.950 . S
C1411 C1410 1.327 . S
C1411 C1415 1.429 . S
C1412 C1395 1.574 . S
C1412 H1406 0.949 . S
C1412 C1416 1.368 . S
C1413 C1394 1.429 . S
C1413 C1407 1.429 . S
C1413 C1414 1.523 . S
C1414 C1395 1.368 . S
C1414 C1408 1.368 . S
C1414 C1413 1.523 . S
C1415 C1399 1.429 . S
C1415 C1411 1.429 . S
C1415 C1416 1.523 . S
C1416 C1400 1.368 . S
C1416 C1412 1.368 . S
C1416 C1415 1.523 . S
H1417 C1392 0.950 . S
H1418 C1394 0.950 . S
H1419 C1395 0.949 . S
H1420 C1397 0.950 . S
H1421 C1399 0.950 . S
C1422 C1423 1.349 . S
C1422 C1424 1.327 . S
C1422 H1447 0.950 . S
C1423 C1422 1.349 . S
C1423 C1439 1.349 . S
C1424 C1422 1.327 . S
C1424 C1443 1.429 . S
C1424 H1448 0.950 1_556 S
C1425 C1442 1.574 . S
C1425 C1444 1.368 . S
C1425 H1449 0.949 . S
H1426 C1430 0.949 . S
C1427 C1428 1.349 . S
C1427 C1429 1.327 . S
C1427 H1450 0.950 . S
C1428 C1427 1.349 . S
C1428 C1440 1.349 . S
C1429 C1427 1.327 . S
C1429 C1445 1.429 . S
C1429 H1451 0.950 1_554 S
C1430 H1426 0.949 . S
C1430 C1438 1.574 . S
C1430 C1446 1.368 . S
H1431 C1439 0.950 . S
H1432 C1437 0.950 . S
H1433 C1438 0.949 . S
H1434 C1440 0.950 . S
H1435 C1441 0.950 . S
H1436 C1442 0.949 . S
C1437 H1432 0.950 . S
C1437 C1439 1.327 . S
C1437 C1443 1.429 . S
C1438 C1430 1.574 . S
C1438 H1433 0.949 . S
C1438 C1444 1.368 1_554 S
C1439 C1423 1.349 . S
C1439 H1431 0.950 . S
C1439 C1437 1.327 . S
C1440 C1428 1.349 . S
C1440 H1434 0.950 . S
C1440 C1441 1.327 . S
C1441 H1435 0.950 . S
C1441 C1440 1.327 . S
C1441 C1445 1.429 . S
C1442 C1425 1.574 . S
C1442 H1436 0.949 . S
C1442 C1446 1.368 1_556 S
C1443 C1424 1.429 . S
C1443 C1437 1.429 . S
C1443 C1444 1.523 . S
C1444 C1425 1.368 . S
C1444 C1438 1.368 1_556 S
C1444 C1443 1.523 . S
C1445 C1429 1.429 . S
C1445 C1441 1.429 . S
C1445 C1446 1.523 . S
C1446 C1430 1.368 . S
C1446 C1442 1.368 1_554 S
C1446 C1445 1.523 . S
H1447 C1422 0.950 . S
H1448 C1424 0.950 1_554 S
H1449 C1425 0.949 . S
H1450 C1427 0.950 . S
H1451 C1429 0.950 1_556 S
C1452 C1453 1.349 . S
C1452 C1454 1.327 . S
C1452 H1477 0.950 . S
C1453 C1452 1.349 . S
C1453 C1469 1.349 . S
C1454 C1452 1.327 . S
C1454 C1473 1.429 . S
C1454 H1478 0.950 . S
C1455 C1472 1.574 . S
C1455 C1474 1.368 . S
C1455 H1479 0.949 . S
H1456 C1460 0.949 . S
C1457 C1458 1.349 . S
C1457 C1459 1.327 . S
C1457 H1480 0.950 . S
C1458 C1457 1.349 . S
C1458 C1470 1.349 . S
C1459 C1457 1.327 . S
C1459 C1475 1.429 . S
C1459 H1481 0.950 . S
C1460 H1456 0.949 . S
C1460 C1468 1.574 . S
C1460 C1476 1.368 . S
H1461 C1469 0.950 . S
H1462 C1467 0.950 . S
H1463 C1468 0.949 . S
H1464 C1470 0.950 . S
H1465 C1471 0.950 . S
H1466 C1472 0.949 . S
C1467 H1462 0.950 . S
C1467 C1469 1.327 . S
C1467 C1473 1.429 . S
C1468 C1460 1.574 . S
C1468 H1463 0.949 . S
C1468 C1474 1.368 . S
C1469 C1453 1.349 . S
C1469 H1461 0.950 . S
C1469 C1467 1.327 . S
C1470 C1458 1.349 . S
C1470 H1464 0.950 . S
C1470 C1471 1.327 . S
C1471 H1465 0.950 . S
C1471 C1470 1.327 . S
C1471 C1475 1.429 . S
C1472 C1455 1.574 . S
C1472 H1466 0.949 . S
C1472 C1476 1.368 . S
C1473 C1454 1.429 . S
C1473 C1467 1.429 . S
C1473 C1474 1.523 . S
C1474 C1455 1.368 . S
C1474 C1468 1.368 . S
C1474 C1473 1.523 . S
C1475 C1459 1.429 . S
C1475 C1471 1.429 . S
C1475 C1476 1.523 . S
C1476 C1460 1.368 . S
C1476 C1472 1.368 . S
C1476 C1475 1.523 . S
H1477 C1452 0.950 . S
H1478 C1454 0.950 . S
H1479 C1455 0.949 . S
H1480 C1457 0.950 . S
H1481 C1459 0.950 . S
C1482 C1483 1.349 . S
C1482 C1484 1.327 . S
C1482 H1507 0.950 . S
C1483 C1482 1.349 . S
C1483 C1499 1.349 . S
C1484 C1482 1.327 . S
C1484 C1503 1.429 . S
C1484 H1508 0.950 . S
C1485 C1502 1.574 . S
C1485 C1504 1.368 . S
C1485 H1509 0.949 . S
H1486 C1490 0.949 . S
C1487 C1488 1.349 . S
C1487 C1489 1.327 . S
C1487 H1510 0.950 . S
C1488 C1487 1.349 . S
C1488 C1500 1.349 . S
C1489 C1487 1.327 . S
C1489 C1505 1.429 . S
C1489 H1511 0.950 . S
C1490 H1486 0.949 . S
C1490 C1498 1.574 . S
C1490 C1506 1.368 . S
H1491 C1499 0.950 . S
H1492 C1497 0.950 . S
H1493 C1498 0.949 . S
H1494 C1500 0.950 . S
H1495 C1501 0.950 . S
H1496 C1502 0.949 . S
C1497 H1492 0.950 . S
C1497 C1499 1.327 . S
C1497 C1503 1.429 . S
C1498 C1490 1.574 . S
C1498 H1493 0.949 . S
C1498 C1504 1.368 . S
C1499 C1483 1.349 . S
C1499 H1491 0.950 . S
C1499 C1497 1.327 . S
C1500 C1488 1.349 . S
C1500 H1494 0.950 . S
C1500 C1501 1.327 . S
C1501 H1495 0.950 . S
C1501 C1500 1.327 . S
C1501 C1505 1.429 . S
C1502 C1485 1.574 . S
C1502 H1496 0.949 . S
C1502 C1506 1.368 . S
C1503 C1484 1.429 . S
C1503 C1497 1.429 . S
C1503 C1504 1.523 . S
C1504 C1485 1.368 . S
C1504 C1498 1.368 . S
C1504 C1503 1.523 . S
C1505 C1489 1.429 . S
C1505 C1501 1.429 . S
C1505 C1506 1.523 . S
C1506 C1490 1.368 . S
C1506 C1502 1.368 . S
C1506 C1505 1.523 . S
H1507 C1482 0.950 . S
H1508 C1484 0.950 . S
H1509 C1485 0.949 . S
H1510 C1487 0.950 . S
H1511 C1489 0.950 . S
C1512 C1513 1.349 . S
C1512 C1514 1.327 . S
C1512 H1537 0.950 . S
C1513 C1512 1.349 . S
C1513 C1529 1.349 . S
C1514 C1512 1.327 . S
C1514 C1533 1.429 . S
C1514 H1538 0.950 . S
C1515 C1532 1.574 . S
C1515 C1534 1.368 . S
C1515 H1539 0.949 . S
H1516 C1520 0.949 . S
C1517 C1518 1.349 . S
C1517 C1519 1.327 . S
C1517 H1540 0.950 . S
C1518 C1517 1.349 . S
C1518 C1530 1.349 . S
C1519 C1517 1.327 . S
C1519 C1535 1.429 . S
C1519 H1541 0.950 . S
C1520 H1516 0.949 . S
C1520 C1528 1.574 . S
C1520 C1536 1.368 . S
H1521 C1529 0.950 . S
H1522 C1527 0.950 . S
H1523 C1528 0.949 . S
H1524 C1530 0.950 . S
H1525 C1531 0.950 . S
H1526 C1532 0.949 . S
C1527 H1522 0.950 . S
C1527 C1529 1.327 . S
C1527 C1533 1.429 . S
C1528 C1520 1.574 . S
C1528 H1523 0.949 . S
C1528 C1534 1.368 . S
C1529 C1513 1.349 . S
C1529 H1521 0.950 . S
C1529 C1527 1.327 . S
C1530 C1518 1.349 . S
C1530 H1524 0.950 . S
C1530 C1531 1.327 . S
C1531 H1525 0.950 . S
C1531 C1530 1.327 . S
C1531 C1535 1.429 . S
C1532 C1515 1.574 . S
C1532 H1526 0.949 . S
C1532 C1536 1.368 . S
C1533 C1514 1.429 . S
C1533 C1527 1.429 . S
C1533 C1534 1.523 . S
C1534 C1515 1.368 . S
C1534 C1528 1.368 . S
C1534 C1533 1.523 . S
C1535 C1519 1.429 . S
C1535 C1531 1.429 . S
C1535 C1536 1.523 . S
C1536 C1520 1.368 . S
C1536 C1532 1.368 . S
C1536 C1535 1.523 . S
H1537 C1512 0.950 . S
H1538 C1514 0.950 . S
H1539 C1515 0.949 . S
H1540 C1517 0.950 . S
H1541 C1519 0.950 . S
C1542 C1543 1.349 . S
C1542 C1544 1.327 . S
C1542 H1567 0.950 . S
C1543 C1542 1.349 . S
C1543 C1559 1.349 . S
C1544 C1542 1.327 . S
C1544 C1563 1.429 . S
C1544 H1568 0.950 1_554 S
C1545 C1562 1.574 . S
C1545 C1564 1.368 . S
C1545 H1569 0.949 . S
H1546 C1550 0.949 . S
C1547 C1548 1.349 . S
C1547 C1549 1.327 . S
C1547 H1570 0.950 . S
C1548 C1547 1.349 . S
C1548 C1560 1.349 . S
C1549 C1547 1.327 . S
C1549 C1565 1.429 . S
C1549 H1571 0.950 1_556 S
C1550 H1546 0.949 . S
C1550 C1558 1.574 . S
C1550 C1566 1.368 . S
H1551 C1559 0.950 . S
H1552 C1557 0.950 . S
H1553 C1558 0.949 . S
H1554 C1560 0.950 . S
H1555 C1561 0.950 . S
H1556 C1562 0.949 . S
C1557 H1552 0.950 . S
C1557 C1559 1.327 . S
C1557 C1563 1.429 . S
C1558 C1550 1.574 . S
C1558 H1553 0.949 . S
C1558 C1564 1.368 1_556 S
C1559 C1543 1.349 . S
C1559 H1551 0.950 . S
C1559 C1557 1.327 . S
C1560 C1548 1.349 . S
C1560 H1554 0.950 . S
C1560 C1561 1.327 . S
C1561 H1555 0.950 . S
C1561 C1560 1.327 . S
C1561 C1565 1.429 . S
C1562 C1545 1.574 . S
C1562 H1556 0.949 . S
C1562 C1566 1.368 1_554 S
C1563 C1544 1.429 . S
C1563 C1557 1.429 . S
C1563 C1564 1.523 . S
C1564 C1545 1.368 . S
C1564 C1558 1.368 1_554 S
C1564 C1563 1.523 . S
C1565 C1549 1.429 . S
C1565 C1561 1.429 . S
C1565 C1566 1.523 . S
C1566 C1550 1.368 . S
C1566 C1562 1.368 1_556 S
C1566 C1565 1.523 . S
H1567 C1542 0.950 . S
H1568 C1544 0.950 1_556 S
H1569 C1545 0.949 . S
H1570 C1547 0.950 . S
H1571 C1549 0.950 1_554 S
C1572 C1573 1.349 . S
C1572 C1574 1.327 . S
C1572 H1597 0.950 . S
C1573 C1572 1.349 . S
C1573 C1589 1.349 . S
C1574 C1572 1.327 . S
C1574 C1593 1.429 . S
C1574 H1598 0.950 . S
C1575 C1592 1.574 . S
C1575 C1594 1.368 . S
C1575 H1599 0.949 . S
H1576 C1580 0.949 . S
C1577 C1578 1.349 . S
C1577 C1579 1.327 . S
C1577 H1600 0.950 . S
C1578 C1577 1.349 . S
C1578 C1590 1.349 . S
C1579 C1577 1.327 . S
C1579 C1595 1.429 . S
C1579 H1601 0.950 . S
C1580 H1576 0.949 . S
C1580 C1588 1.574 . S
C1580 C1596 1.368 . S
H1581 C1589 0.950 . S
H1582 C1587 0.950 . S
H1583 C1588 0.949 . S
H1584 C1590 0.950 . S
H1585 C1591 0.950 . S
H1586 C1592 0.949 . S
C1587 H1582 0.950 . S
C1587 C1589 1.327 . S
C1587 C1593 1.429 . S
C1588 C1580 1.574 . S
C1588 H1583 0.949 . S
C1588 C1594 1.368 . S
C1589 C1573 1.349 . S
C1589 H1581 0.950 . S
C1589 C1587 1.327 . S
C1590 C1578 1.349 . S
C1590 H1584 0.950 . S
C1590 C1591 1.327 . S
C1591 H1585 0.950 . S
C1591 C1590 1.327 . S
C1591 C1595 1.429 . S
C1592 C1575 1.574 . S
C1592 H1586 0.949 . S
C1592 C1596 1.368 . S
C1593 C1574 1.429 . S
C1593 C1587 1.429 . S
C1593 C1594 1.523 . S
C1594 C1575 1.368 . S
C1594 C1588 1.368 . S
C1594 C1593 1.523 . S
C1595 C1579 1.429 . S
C1595 C1591 1.429 . S
C1595 C1596 1.523 . S
C1596 C1580 1.368 . S
C1596 C1592 1.368 . S
C1596 C1595 1.523 . S
H1597 C1572 0.950 . S
H1598 C1574 0.950 . S
H1599 C1575 0.949 . S
H1600 C1577 0.950 . S
H1601 C1579 0.950 . S
C1602 C1603 1.349 . S
C1602 C1604 1.327 . S
C1602 H1627 0.950 . S
C1603 C1602 1.349 . S
C1603 C1619 1.349 . S
C1604 C1602 1.327 . S
C1604 C1623 1.429 . S
C1604 H1628 0.950 . S
C1605 C1622 1.574 . S
C1605 C1624 1.368 . S
C1605 H1629 0.949 . S
H1606 C1610 0.949 . S
C1607 C1608 1.349 . S
C1607 C1609 1.327 . S
C1607 H1630 0.950 . S
C1608 C1607 1.349 . S
C1608 C1620 1.349 . S
C1609 C1607 1.327 . S
C1609 C1625 1.429 . S
C1609 H1631 0.950 . S
C1610 H1606 0.949 . S
C1610 C1618 1.574 . S
C1610 C1626 1.368 . S
H1611 C1619 0.950 . S
H1612 C1617 0.950 . S
H1613 C1618 0.949 . S
H1614 C1620 0.950 . S
H1615 C1621 0.950 . S
H1616 C1622 0.949 . S
C1617 H1612 0.950 . S
C1617 C1619 1.327 . S
C1617 C1623 1.429 . S
C1618 C1610 1.574 . S
C1618 H1613 0.949 . S
C1618 C1624 1.368 . S
C1619 C1603 1.349 . S
C1619 H1611 0.950 . S
C1619 C1617 1.327 . S
C1620 C1608 1.349 . S
C1620 H1614 0.950 . S
C1620 C1621 1.327 . S
C1621 H1615 0.950 . S
C1621 C1620 1.327 . S
C1621 C1625 1.429 . S
C1622 C1605 1.574 . S
C1622 H1616 0.949 . S
C1622 C1626 1.368 . S
C1623 C1604 1.429 . S
C1623 C1617 1.429 . S
C1623 C1624 1.523 . S
C1624 C1605 1.368 . S
C1624 C1618 1.368 . S
C1624 C1623 1.523 . S
C1625 C1609 1.429 . S
C1625 C1621 1.429 . S
C1625 C1626 1.523 . S
C1626 C1610 1.368 . S
C1626 C1622 1.368 . S
C1626 C1625 1.523 . S
H1627 C1602 0.950 . S
H1628 C1604 0.950 . S
H1629 C1605 0.949 . S
H1630 C1607 0.950 . S
H1631 C1609 0.950 . S
C1632 C1633 1.349 . S
C1632 C1634 1.327 1_554 S
C1632 H1657 0.950 . S
C1633 C1632 1.349 . S
C1633 C1649 1.349 1_554 S
C1634 C1632 1.327 1_556 S
C1634 C1653 1.429 . S
C1634 H1658 0.950 . S
C1635 C1652 1.574 . S
C1635 C1654 1.368 . S
C1635 H1659 0.949 . S
H1636 C1640 0.949 . S
C1637 C1638 1.349 . S
C1637 C1639 1.327 . S
C1637 H1660 0.950 . S
C1638 C1637 1.349 . S
C1638 C1650 1.349 . S
C1639 C1637 1.327 . S
C1639 C1655 1.429 . S
C1639 H1661 0.950 . S
C1640 H1636 0.949 . S
C1640 C1648 1.574 . S
C1640 C1656 1.368 . S
H1641 C1649 0.950 . S
H1642 C1647 0.950 . S
H1643 C1648 0.949 . S
H1644 C1650 0.950 . S
H1645 C1651 0.950 . S
H1646 C1652 0.949 . S
C1647 H1642 0.950 . S
C1647 C1649 1.327 . S
C1647 C1653 1.429 . S
C1648 C1640 1.574 . S
C1648 H1643 0.949 . S
C1648 C1654 1.368 . S
C1649 C1633 1.349 1_556 S
C1649 H1641 0.950 . S
C1649 C1647 1.327 . S
C1650 C1638 1.349 . S
C1650 H1644 0.950 . S
C1650 C1651 1.327 . S
C1651 H1645 0.950 . S
C1651 C1650 1.327 . S
C1651 C1655 1.429 . S
C1652 C1635 1.574 . S
C1652 H1646 0.949 . S
C1652 C1656 1.368 . S
C1653 C1634 1.429 . S
C1653 C1647 1.429 . S
C1653 C1654 1.523 . S
C1654 C1635 1.368 . S
C1654 C1648 1.368 . S
C1654 C1653 1.523 . S
C1655 C1639 1.429 . S
C1655 C1651 1.429 . S
C1655 C1656 1.523 . S
C1656 C1640 1.368 . S
C1656 C1652 1.368 . S
C1656 C1655 1.523 . S
H1657 C1632 0.950 . S
H1658 C1634 0.950 . S
H1659 C1635 0.949 . S
H1660 C1637 0.950 . S
H1661 C1639 0.950 . S
C1662 C1663 1.349 1_554 S
C1662 C1664 1.327 . S
C1662 H1687 0.950 . S
C1663 C1662 1.349 1_556 S
C1663 C1679 1.349 . S
C1664 C1662 1.327 . S
C1664 C1683 1.429 . S
C1664 H1688 0.950 . S
C1665 C1682 1.574 . S
C1665 C1684 1.368 . S
C1665 H1689 0.949 . S
H1666 C1670 0.949 . S
C1667 C1668 1.349 . S
C1667 C1669 1.327 . S
C1667 H1690 0.950 . S
C1668 C1667 1.349 . S
C1668 C1680 1.349 . S
C1669 C1667 1.327 . S
C1669 C1685 1.429 . S
C1669 H1691 0.950 . S
C1670 H1666 0.949 . S
C1670 C1678 1.574 . S
C1670 C1686 1.368 . S
H1671 C1679 0.950 . S
H1672 C1677 0.945 1_556 S
H1673 C1678 0.949 . S
H1674 C1680 0.950 . S
H1675 C1681 0.950 . S
H1676 C1682 0.949 . S
C1677 H1672 0.945 1_554 S
C1677 C1679 1.327 1_554 S
C1677 C1683 1.429 . S
C1678 C1670 1.574 . S
C1678 H1673 0.949 . S
C1678 C1684 1.368 . S
C1679 C1663 1.349 . S
C1679 H1671 0.950 . S
C1679 C1677 1.327 1_556 S
C1680 C1668 1.349 . S
C1680 H1674 0.950 . S
C1680 C1681 1.327 . S
C1681 H1675 0.950 . S
C1681 C1680 1.327 . S
C1681 C1685 1.429 . S
C1682 C1665 1.574 . S
C1682 H1676 0.949 . S
C1682 C1686 1.368 . S
C1683 C1664 1.429 . S
C1683 C1677 1.429 . S
C1683 C1684 1.523 . S
C1684 C1665 1.368 . S
C1684 C1678 1.368 . S
C1684 C1683 1.523 . S
C1685 C1669 1.429 . S
C1685 C1681 1.429 . S
C1685 C1686 1.523 . S
C1686 C1670 1.368 . S
C1686 C1682 1.368 . S
C1686 C1685 1.523 . S
H1687 C1662 0.950 . S
H1688 C1664 0.950 . S
H1689 C1665 0.949 . S
H1690 C1667 0.950 . S
H1691 C1669 0.950 . S
C1692 C1693 1.349 . S
C1692 C1694 1.327 . S
C1692 H1717 0.950 . S
C1693 C1692 1.349 . S
C1693 C1709 1.349 . S
C1694 C1692 1.327 . S
C1694 C1713 1.429 . S
C1694 H1718 0.950 . S
C1695 C1712 1.574 . S
C1695 C1714 1.368 . S
C1695 H1719 0.949 . S
H1696 C1700 0.949 . S
C1697 C1698 1.349 . S
C1697 C1699 1.327 . S
C1697 H1720 0.950 . S
C1698 C1697 1.349 . S
C1698 C1710 1.349 . S
C1699 C1697 1.327 . S
C1699 C1715 1.429 . S
C1699 H1721 0.950 . S
C1700 H1696 0.949 . S
C1700 C1708 1.574 . S
C1700 C1716 1.368 . S
H1701 C1709 0.950 . S
H1702 C1707 0.950 . S
H1703 C1708 0.949 . S
H1704 C1710 0.950 . S
H1705 C1711 0.950 . S
H1706 C1712 0.949 . S
C1707 H1702 0.950 . S
C1707 C1709 1.327 . S
C1707 C1713 1.429 . S
C1708 C1700 1.574 . S
C1708 H1703 0.949 . S
C1708 C1714 1.368 . S
C1709 C1693 1.349 . S
C1709 H1701 0.950 . S
C1709 C1707 1.327 . S
C1710 C1698 1.349 . S
C1710 H1704 0.950 . S
C1710 C1711 1.327 . S
C1711 H1705 0.950 . S
C1711 C1710 1.327 . S
C1711 C1715 1.429 . S
C1712 C1695 1.574 . S
C1712 H1706 0.949 . S
C1712 C1716 1.368 . S
C1713 C1694 1.429 . S
C1713 C1707 1.429 . S
C1713 C1714 1.523 . S
C1714 C1695 1.368 . S
C1714 C1708 1.368 . S
C1714 C1713 1.523 . S
C1715 C1699 1.429 . S
C1715 C1711 1.429 . S
C1715 C1716 1.523 . S
C1716 C1700 1.368 . S
C1716 C1712 1.368 . S
C1716 C1715 1.523 . S
H1717 C1692 0.950 . S
H1718 C1694 0.950 . S
H1719 C1695 0.949 . S
H1720 C1697 0.950 . S
H1721 C1699 0.950 . S
C1722 C1723 1.349 . S
C1722 C1724 1.327 . S
C1722 H1747 0.950 . S
C1723 C1722 1.349 . S
C1723 C1739 1.349 . S
C1724 C1722 1.327 . S
C1724 C1743 1.429 . S
C1724 H1748 0.950 . S
C1725 C1742 1.574 . S
C1725 C1744 1.368 . S
C1725 H1749 0.949 . S
H1726 C1730 0.949 . S
C1727 C1728 1.349 . S
C1727 C1729 1.327 . S
C1727 H1750 0.950 . S
C1728 C1727 1.349 . S
C1728 C1740 1.349 . S
C1729 C1727 1.327 . S
C1729 C1745 1.429 . S
C1729 H1751 0.950 . S
C1730 H1726 0.949 . S
C1730 C1738 1.574 . S
C1730 C1746 1.368 . S
H1731 C1739 0.950 . S
H1732 C1737 0.950 . S
H1733 C1738 0.949 . S
H1734 C1740 0.950 . S
H1735 C1741 0.950 . S
H1736 C1742 0.949 . S
C1737 H1732 0.950 . S
C1737 C1739 1.327 . S
C1737 C1743 1.429 . S
C1738 C1730 1.574 . S
C1738 H1733 0.949 . S
C1738 C1744 1.368 . S
C1739 C1723 1.349 . S
C1739 H1731 0.950 . S
C1739 C1737 1.327 . S
C1740 C1728 1.349 . S
C1740 H1734 0.950 . S
C1740 C1741 1.327 . S
C1741 H1735 0.950 . S
C1741 C1740 1.327 . S
C1741 C1745 1.429 . S
C1742 C1725 1.574 . S
C1742 H1736 0.949 . S
C1742 C1746 1.368 . S
C1743 C1724 1.429 . S
C1743 C1737 1.429 . S
C1743 C1744 1.523 . S
C1744 C1725 1.368 . S
C1744 C1738 1.368 . S
C1744 C1743 1.523 . S
C1745 C1729 1.429 . S
C1745 C1741 1.429 . S
C1745 C1746 1.523 . S
C1746 C1730 1.368 . S
C1746 C1742 1.368 . S
C1746 C1745 1.523 . S
H1747 C1722 0.950 . S
H1748 C1724 0.950 . S
H1749 C1725 0.949 . S
H1750 C1727 0.950 . S
H1751 C1729 0.950 . S
C1752 C1753 1.349 1_554 S
C1752 C1754 1.327 . S
C1752 H1777 0.950 . S
C1753 C1752 1.349 1_556 S
C1753 C1769 1.349 . S
C1754 C1752 1.327 . S
C1754 C1773 1.429 . S
C1754 H1778 0.950 . S
C1755 C1772 1.574 . S
C1755 C1774 1.368 . S
C1755 H1779 0.949 . S
H1756 C1760 0.949 . S
C1757 C1758 1.349 . S
C1757 C1759 1.327 . S
C1757 H1780 0.950 . S
C1758 C1757 1.349 . S
C1758 C1770 1.349 . S
C1759 C1757 1.327 . S
C1759 C1775 1.429 . S
C1759 H1781 0.950 . S
C1760 H1756 0.949 . S
C1760 C1768 1.574 . S
C1760 C1776 1.368 . S
H1761 C1769 0.950 . S
H1762 C1767 0.949 1_556 S
H1763 C1768 0.949 . S
H1764 C1770 0.950 . S
H1765 C1771 0.950 . S
H1766 C1772 0.949 . S
C1767 H1762 0.949 1_554 S
C1767 C1769 1.327 1_554 S
C1767 C1773 1.429 . S
C1768 C1760 1.574 . S
C1768 H1763 0.949 . S
C1768 C1774 1.368 . S
C1769 C1753 1.349 . S
C1769 H1761 0.950 . S
C1769 C1767 1.327 1_556 S
C1770 C1758 1.349 . S
C1770 H1764 0.950 . S
C1770 C1771 1.327 . S
C1771 H1765 0.950 . S
C1771 C1770 1.327 . S
C1771 C1775 1.429 . S
C1772 C1755 1.574 . S
C1772 H1766 0.949 . S
C1772 C1776 1.368 . S
C1773 C1754 1.429 . S
C1773 C1767 1.429 . S
C1773 C1774 1.523 . S
C1774 C1755 1.368 . S
C1774 C1768 1.368 . S
C1774 C1773 1.523 . S
C1775 C1759 1.429 . S
C1775 C1771 1.429 . S
C1775 C1776 1.523 . S
C1776 C1760 1.368 . S
C1776 C1772 1.368 . S
C1776 C1775 1.523 . S
H1777 C1752 0.950 . S
H1778 C1754 0.950 . S
H1779 C1755 0.949 . S
H1780 C1757 0.950 . S
H1781 C1759 0.950 . S
C1782 C1783 1.349 . S
C1782 C1784 1.327 1_554 S
C1782 H1807 0.950 . S
C1783 C1782 1.349 . S
C1783 C1799 1.349 1_554 S
C1784 C1782 1.327 1_556 S
C1784 C1803 1.429 . S
C1784 H1808 0.950 . S
C1785 C1802 1.574 . S
C1785 C1804 1.368 . S
C1785 H1809 0.949 . S
H1786 C1790 0.949 . S
C1787 C1788 1.349 . S
C1787 C1789 1.327 . S
C1787 H1810 0.950 . S
C1788 C1787 1.349 . S
C1788 C1800 1.349 . S
C1789 C1787 1.327 . S
C1789 C1805 1.429 . S
C1789 H1811 0.950 . S
C1790 H1786 0.949 . S
C1790 C1798 1.574 . S
C1790 C1806 1.368 . S
H1791 C1799 0.950 . S
H1792 C1797 0.950 . S
H1793 C1798 0.949 . S
H1794 C1800 0.950 . S
H1795 C1801 0.950 . S
H1796 C1802 0.949 . S
C1797 H1792 0.950 . S
C1797 C1799 1.327 . S
C1797 C1803 1.429 . S
C1798 C1790 1.574 . S
C1798 H1793 0.949 . S
C1798 C1804 1.368 . S
C1799 C1783 1.349 1_556 S
C1799 H1791 0.950 . S
C1799 C1797 1.327 . S
C1800 C1788 1.349 . S
C1800 H1794 0.950 . S
C1800 C1801 1.327 . S
C1801 H1795 0.950 . S
C1801 C1800 1.327 . S
C1801 C1805 1.429 . S
C1802 C1785 1.574 . S
C1802 H1796 0.949 . S
C1802 C1806 1.368 . S
C1803 C1784 1.429 . S
C1803 C1797 1.429 . S
C1803 C1804 1.523 . S
C1804 C1785 1.368 . S
C1804 C1798 1.368 . S
C1804 C1803 1.523 . S
C1805 C1789 1.429 . S
C1805 C1801 1.429 . S
C1805 C1806 1.523 . S
C1806 C1790 1.368 . S
C1806 C1802 1.368 . S
C1806 C1805 1.523 . S
H1807 C1782 0.950 . S
H1808 C1784 0.950 . S
H1809 C1785 0.949 . S
H1810 C1787 0.950 . S
H1811 C1789 0.950 . S
C1812 C1813 1.349 . S
C1812 C1814 1.327 . S
C1812 H1837 0.950 . S
C1813 C1812 1.349 . S
C1813 C1829 1.349 . S
C1814 C1812 1.327 . S
C1814 C1833 1.429 . S
C1814 H1838 0.950 . S
C1815 C1832 1.574 . S
C1815 C1834 1.368 . S
C1815 H1839 0.949 . S
H1816 C1820 0.949 . S
C1817 C1818 1.349 . S
C1817 C1819 1.327 . S
C1817 H1840 0.950 . S
C1818 C1817 1.349 . S
C1818 C1830 1.349 . S
C1819 C1817 1.327 . S
C1819 C1835 1.429 . S
C1819 H1841 0.950 . S
C1820 H1816 0.949 . S
C1820 C1828 1.574 . S
C1820 C1836 1.368 . S
H1821 C1829 0.950 . S
H1822 C1827 0.950 . S
H1823 C1828 0.949 . S
H1824 C1830 0.950 . S
H1825 C1831 0.950 . S
H1826 C1832 0.949 . S
C1827 H1822 0.950 . S
C1827 C1829 1.327 . S
C1827 C1833 1.429 . S
C1828 C1820 1.574 . S
C1828 H1823 0.949 . S
C1828 C1834 1.368 . S
C1829 C1813 1.349 . S
C1829 H1821 0.950 . S
C1829 C1827 1.327 . S
C1830 C1818 1.349 . S
C1830 H1824 0.950 . S
C1830 C1831 1.327 . S
C1831 H1825 0.950 . S
C1831 C1830 1.327 . S
C1831 C1835 1.429 . S
C1832 C1815 1.574 . S
C1832 H1826 0.949 . S
C1832 C1836 1.368 . S
C1833 C1814 1.429 . S
C1833 C1827 1.429 . S
C1833 C1834 1.523 . S
C1834 C1815 1.368 . S
C1834 C1828 1.368 . S
C1834 C1833 1.523 . S
C1835 C1819 1.429 . S
C1835 C1831 1.429 . S
C1835 C1836 1.523 . S
C1836 C1820 1.368 . S
C1836 C1832 1.368 . S
C1836 C1835 1.523 . S
H1837 C1812 0.950 . S
H1838 C1814 0.950 . S
H1839 C1815 0.949 . S
H1840 C1817 0.950 . S
H1841 C1819 0.950 . S
C1842 C1843 1.349 . S
C1842 C1844 1.327 . S
C1842 H1867 0.950 . S
C1843 C1842 1.349 . S
C1843 C1859 1.349 . S
C1844 C1842 1.327 . S
C1844 C1863 1.429 . S
C1844 H1868 0.950 . S
C1845 C1862 1.574 . S
C1845 C1864 1.368 . S
C1845 H1869 0.949 . S
H1846 C1850 0.949 . S
C1847 C1848 1.349 . S
C1847 C1849 1.327 . S
C1847 H1870 0.950 . S
C1848 C1847 1.349 . S
C1848 C1860 1.349 . S
C1849 C1847 1.327 . S
C1849 C1865 1.429 . S
C1849 H1871 0.950 . S
C1850 H1846 0.949 . S
C1850 C1858 1.574 . S
C1850 C1866 1.368 . S
H1851 C1859 0.950 . S
H1852 C1857 0.950 . S
H1853 C1858 0.949 . S
H1854 C1860 0.950 . S
H1855 C1861 0.950 . S
H1856 C1862 0.949 . S
C1857 H1852 0.950 . S
C1857 C1859 1.327 . S
C1857 C1863 1.429 . S
C1858 C1850 1.574 . S
C1858 H1853 0.949 . S
C1858 C1864 1.368 . S
C1859 C1843 1.349 . S
C1859 H1851 0.950 . S
C1859 C1857 1.327 . S
C1860 C1848 1.349 . S
C1860 H1854 0.950 . S
C1860 C1861 1.327 . S
C1861 H1855 0.950 . S
C1861 C1860 1.327 . S
C1861 C1865 1.429 . S
C1862 C1845 1.574 . S
C1862 H1856 0.949 . S
C1862 C1866 1.368 . S
C1863 C1844 1.429 . S
C1863 C1857 1.429 . S
C1863 C1864 1.523 . S
C1864 C1845 1.368 . S
C1864 C1858 1.368 . S
C1864 C1863 1.523 . S
C1865 C1849 1.429 . S
C1865 C1861 1.429 . S
C1865 C1866 1.523 . S
C1866 C1850 1.368 . S
C1866 C1862 1.368 . S
C1866 C1865 1.523 . S
H1867 C1842 0.950 . S
H1868 C1844 0.950 . S
H1869 C1845 0.949 . S
H1870 C1847 0.950 . S
H1871 C1849 0.950 . S
C1872 C1873 1.349 . S
C1872 C1874 1.327 . S
C1872 H1897 0.950 . S
C1873 C1872 1.349 . S
C1873 C1889 1.349 . S
C1874 C1872 1.327 . S
C1874 C1893 1.429 . S
C1874 H1898 0.950 . S
C1875 C1892 1.574 . S
C1875 C1894 1.368 . S
C1875 H1899 0.949 . S
H1876 C1880 0.949 . S
C1877 C1878 1.349 . S
C1877 C1879 1.327 . S
C1877 H1900 0.950 . S
C1878 C1877 1.349 . S
C1878 C1890 1.349 . S
C1879 C1877 1.327 . S
C1879 C1895 1.429 . S
C1879 H1901 0.950 . S
C1880 H1876 0.949 . S
C1880 C1888 1.574 . S
C1880 C1896 1.368 . S
H1881 C1889 0.950 . S
H1882 C1887 0.950 . S
H1883 C1888 0.949 . S
H1884 C1890 0.950 . S
H1885 C1891 0.950 . S
H1886 C1892 0.949 . S
C1887 H1882 0.950 . S
C1887 C1889 1.327 . S
C1887 C1893 1.429 . S
C1888 C1880 1.574 . S
C1888 H1883 0.949 . S
C1888 C1894 1.368 . S
C1889 C1873 1.349 . S
C1889 H1881 0.950 . S
C1889 C1887 1.327 . S
C1890 C1878 1.349 . S
C1890 H1884 0.950 . S
C1890 C1891 1.327 . S
C1891 H1885 0.950 . S
C1891 C1890 1.327 . S
C1891 C1895 1.429 . S
C1892 C1875 1.574 . S
C1892 H1886 0.949 . S
C1892 C1896 1.368 . S
C1893 C1874 1.429 . S
C1893 C1887 1.429 . S
C1893 C1894 1.523 . S
C1894 C1875 1.368 . S
C1894 C1888 1.368 . S
C1894 C1893 1.523 . S
C1895 C1879 1.429 . S
C1895 C1891 1.429 . S
C1895 C1896 1.523 . S
C1896 C1880 1.368 . S
C1896 C1892 1.368 . S
C1896 C1895 1.523 . S
H1897 C1872 0.950 . S
H1898 C1874 0.950 . S
H1899 C1875 0.949 . S
H1900 C1877 0.950 . S
H1901 C1879 0.950 . S
C1902 C1903 1.349 . S
C1902 C1904 1.327 . S
C1902 H1927 0.950 . S
C1903 C1902 1.349 . S
C1903 C1919 1.349 . S
C1904 C1902 1.327 . S
C1904 C1923 1.429 . S
C1904 H1928 0.950 . S
C1905 C1922 1.574 . S
C1905 C1924 1.368 . S
C1905 H1929 0.949 . S
H1906 C1910 0.949 . S
C1907 C1908 1.349 . S
C1907 C1909 1.327 . S
C1907 H1930 0.950 . S
C1908 C1907 1.349 . S
C1908 C1920 1.349 . S
C1909 C1907 1.327 . S
C1909 C1925 1.429 . S
C1909 H1931 0.950 . S
C1910 H1906 0.949 . S
C1910 C1918 1.574 . S
C1910 C1926 1.368 . S
H1911 C1919 0.950 . S
H1912 C1917 0.950 . S
H1913 C1918 0.949 . S
H1914 C1920 0.950 . S
H1915 C1921 0.950 . S
H1916 C1922 0.949 . S
C1917 H1912 0.950 . S
C1917 C1919 1.327 . S
C1917 C1923 1.429 . S
C1918 C1910 1.574 . S
C1918 H1913 0.949 . S
C1918 C1924 1.368 . S
C1919 C1903 1.349 . S
C1919 H1911 0.950 . S
C1919 C1917 1.327 . S
C1920 C1908 1.349 . S
C1920 H1914 0.950 . S
C1920 C1921 1.327 . S
C1921 H1915 0.950 . S
C1921 C1920 1.327 . S
C1921 C1925 1.429 . S
C1922 C1905 1.574 . S
C1922 H1916 0.949 . S
C1922 C1926 1.368 . S
C1923 C1904 1.429 . S
C1923 C1917 1.429 . S
C1923 C1924 1.523 . S
C1924 C1905 1.368 . S
C1924 C1918 1.368 . S
C1924 C1923 1.523 . S
C1925 C1909 1.429 . S
C1925 C1921 1.429 . S
C1925 C1926 1.523 . S
C1926 C1910 1.368 . S
C1926 C1922 1.368 . S
C1926 C1925 1.523 . S
H1927 C1902 0.950 . S
H1928 C1904 0.950 . S
H1929 C1905 0.949 . S
H1930 C1907 0.950 . S
H1931 C1909 0.950 . S
C1932 C1933 1.349 . S
C1932 C1934 1.327 . S
C1932 H1957 0.950 . S
C1933 C1932 1.349 . S
C1933 C1949 1.349 . S
C1934 C1932 1.327 . S
C1934 C1953 1.429 . S
C1934 H1958 0.950 . S
C1935 C1952 1.574 . S
C1935 C1954 1.368 . S
C1935 H1959 0.949 . S
H1936 C1940 0.949 . S
C1937 C1938 1.349 . S
C1937 C1939 1.327 1_554 S
C1937 H1960 0.950 . S
C1938 C1937 1.349 . S
C1938 C1950 1.349 1_554 S
C1939 C1937 1.327 1_556 S
C1939 C1955 1.429 . S
C1939 H1961 0.950 . S
C1940 H1936 0.949 . S
C1940 C1948 1.574 . S
C1940 C1956 1.368 . S
H1941 C1949 0.950 . S
H1942 C1947 0.950 . S
H1943 C1948 0.949 . S
H1944 C1950 0.950 1_554 S
H1945 C1951 0.950 . S
H1946 C1952 0.949 . S
C1947 H1942 0.950 . S
C1947 C1949 1.327 . S
C1947 C1953 1.429 . S
C1948 C1940 1.574 . S
C1948 H1943 0.949 . S
C1948 C1954 1.368 . S
C1949 C1933 1.349 . S
C1949 H1941 0.950 . S
C1949 C1947 1.327 . S
C1950 C1938 1.349 1_556 S
C1950 H1944 0.950 1_556 S
C1950 C1951 1.327 . S
C1951 H1945 0.950 . S
C1951 C1950 1.327 . S
C1951 C1955 1.429 . S
C1952 C1935 1.574 . S
C1952 H1946 0.949 . S
C1952 C1956 1.368 . S
C1953 C1934 1.429 . S
C1953 C1947 1.429 . S
C1953 C1954 1.523 . S
C1954 C1935 1.368 . S
C1954 C1948 1.368 . S
C1954 C1953 1.523 . S
C1955 C1939 1.429 . S
C1955 C1951 1.429 . S
C1955 C1956 1.523 . S
C1956 C1940 1.368 . S
C1956 C1952 1.368 . S
C1956 C1955 1.523 . S
H1957 C1932 0.950 . S
H1958 C1934 0.950 . S
H1959 C1935 0.949 . S
H1960 C1937 0.950 . S
H1961 C1939 0.950 . S
C1962 C1963 1.349 . S
C1962 C1964 1.327 . S
C1962 H1987 0.950 . S
C1963 C1962 1.349 . S
C1963 C1979 1.349 . S
C1964 C1962 1.327 . S
C1964 C1983 1.429 . S
C1964 H1988 0.950 . S
C1965 C1982 1.574 . S
C1965 C1984 1.368 . S
C1965 H1989 0.949 . S
H1966 C1970 0.949 . S
C1967 C1968 1.349 1_554 S
C1967 C1969 1.327 . S
C1967 H1990 0.950 . S
C1968 C1967 1.349 1_556 S
C1968 C1980 1.349 . S
C1969 C1967 1.327 . S
C1969 C1985 1.429 . S
C1969 H1991 0.950 . S
C1970 H1966 0.949 . S
C1970 C1978 1.574 . S
C1970 C1986 1.368 . S
H1971 C1979 0.950 . S
H1972 C1977 0.950 . S
H1973 C1978 0.949 . S
H1974 C1980 0.950 . S
H1975 C1981 0.950 . S
H1976 C1982 0.949 . S
C1977 H1972 0.950 . S
C1977 C1979 1.327 . S
C1977 C1983 1.429 . S
C1978 C1970 1.574 . S
C1978 H1973 0.949 . S
C1978 C1984 1.368 . S
C1979 C1963 1.349 . S
C1979 H1971 0.950 . S
C1979 C1977 1.327 . S
C1980 C1968 1.349 . S
C1980 H1974 0.950 . S
C1980 C1981 1.327 1_556 S
C1981 H1975 0.950 . S
C1981 C1980 1.327 1_554 S
C1981 C1985 1.429 . S
C1982 C1965 1.574 . S
C1982 H1976 0.949 . S
C1982 C1986 1.368 . S
C1983 C1964 1.429 . S
C1983 C1977 1.429 . S
C1983 C1984 1.523 . S
C1984 C1965 1.368 . S
C1984 C1978 1.368 . S
C1984 C1983 1.523 . S
C1985 C1969 1.429 . S
C1985 C1981 1.429 . S
C1985 C1986 1.523 . S
C1986 C1970 1.368 . S
C1986 C1982 1.368 . S
C1986 C1985 1.523 . S
H1987 C1962 0.950 . S
H1988 C1964 0.950 . S
H1989 C1965 0.949 . S
H1990 C1967 0.950 . S
H1991 C1969 0.950 . S
C1992 C1993 1.349 . S
C1992 C1994 1.327 . S
C1992 H2017 0.950 . S
C1993 C1992 1.349 . S
C1993 C2009 1.349 . S
C1994 C1992 1.327 . S
C1994 C2013 1.429 . S
C1994 H2018 0.950 . S
C1995 C2012 1.574 . S
C1995 C2014 1.368 . S
C1995 H2019 0.949 . S
H1996 C2000 0.949 . S
C1997 C1998 1.349 . S
C1997 C1999 1.327 . S
C1997 H2020 0.950 . S
C1998 C1997 1.349 . S
C1998 C2010 1.349 . S
C1999 C1997 1.327 . S
C1999 C2015 1.429 . S
C1999 H2021 0.950 . S
C2000 H1996 0.949 . S
C2000 C2008 1.574 . S
C2000 C2016 1.368 . S
H2001 C2009 0.950 . S
H2002 C2007 0.950 . S
H2003 C2008 0.949 . S
H2004 C2010 0.950 . S
H2005 C2011 0.950 . S
H2006 C2012 0.949 . S
C2007 H2002 0.950 . S
C2007 C2009 1.327 . S
C2007 C2013 1.429 . S
C2008 C2000 1.574 . S
C2008 H2003 0.949 . S
C2008 C2014 1.368 . S
C2009 C1993 1.349 . S
C2009 H2001 0.950 . S
C2009 C2007 1.327 . S
C2010 C1998 1.349 . S
C2010 H2004 0.950 . S
C2010 C2011 1.327 . S
C2011 H2005 0.950 . S
C2011 C2010 1.327 . S
C2011 C2015 1.429 . S
C2012 C1995 1.574 . S
C2012 H2006 0.949 . S
C2012 C2016 1.368 . S
C2013 C1994 1.429 . S
C2013 C2007 1.429 . S
C2013 C2014 1.523 . S
C2014 C1995 1.368 . S
C2014 C2008 1.368 . S
C2014 C2013 1.523 . S
C2015 C1999 1.429 . S
C2015 C2011 1.429 . S
C2015 C2016 1.523 . S
C2016 C2000 1.368 . S
C2016 C2012 1.368 . S
C2016 C2015 1.523 . S
H2017 C1992 0.950 . S
H2018 C1994 0.950 . S
H2019 C1995 0.949 . S
H2020 C1997 0.950 . S
H2021 C1999 0.950 . S
C2022 C2023 1.349 . S
C2022 C2024 1.327 . S
C2022 H2047 0.950 . S
C2023 C2022 1.349 . S
C2023 C2039 1.349 . S
C2024 C2022 1.327 . S
C2024 C2043 1.429 . S
C2024 H2048 0.950 . S
C2025 C2042 1.574 . S
C2025 C2044 1.368 . S
C2025 H2049 0.949 . S
H2026 C2030 0.949 . S
C2027 C2028 1.349 . S
C2027 C2029 1.327 . S
C2027 H2050 0.950 . S
C2028 C2027 1.349 . S
C2028 C2040 1.349 . S
C2029 C2027 1.327 . S
C2029 C2045 1.429 . S
C2029 H2051 0.950 . S
C2030 H2026 0.949 . S
C2030 C2038 1.574 . S
C2030 C2046 1.368 . S
H2031 C2039 0.950 . S
H2032 C2037 0.950 . S
H2033 C2038 0.949 . S
H2034 C2040 0.950 . S
H2035 C2041 0.950 . S
H2036 C2042 0.949 . S
C2037 H2032 0.950 . S
C2037 C2039 1.327 . S
C2037 C2043 1.429 . S
C2038 C2030 1.574 . S
C2038 H2033 0.949 . S
C2038 C2044 1.368 . S
C2039 C2023 1.349 . S
C2039 H2031 0.950 . S
C2039 C2037 1.327 . S
C2040 C2028 1.349 . S
C2040 H2034 0.950 . S
C2040 C2041 1.327 . S
C2041 H2035 0.950 . S
C2041 C2040 1.327 . S
C2041 C2045 1.429 . S
C2042 C2025 1.574 . S
C2042 H2036 0.949 . S
C2042 C2046 1.368 . S
C2043 C2024 1.429 . S
C2043 C2037 1.429 . S
C2043 C2044 1.523 . S
C2044 C2025 1.368 . S
C2044 C2038 1.368 . S
C2044 C2043 1.523 . S
C2045 C2029 1.429 . S
C2045 C2041 1.429 . S
C2045 C2046 1.523 . S
C2046 C2030 1.368 . S
C2046 C2042 1.368 . S
C2046 C2045 1.523 . S
H2047 C2022 0.950 . S
H2048 C2024 0.950 . S
H2049 C2025 0.949 . S
H2050 C2027 0.950 . S
H2051 C2029 0.950 . S
C2052 C2053 1.349 1_554 S
C2052 C2054 1.327 . S
C2052 H2077 0.950 . S
C2053 C2052 1.349 1_556 S
C2053 C2069 1.349 . S
C2054 C2052 1.327 . S
C2054 C2073 1.429 . S
C2054 H2078 0.950 . S
C2055 C2072 1.574 . S
C2055 C2074 1.368 . S
C2055 H2079 0.949 . S
H2056 C2060 0.949 . S
C2057 C2058 1.349 . S
C2057 C2059 1.327 . S
C2057 H2080 0.950 . S
C2058 C2057 1.349 . S
C2058 C2070 1.349 . S
C2059 C2057 1.327 . S
C2059 C2075 1.429 . S
C2059 H2081 0.950 . S
C2060 H2056 0.949 . S
C2060 C2068 1.574 . S
C2060 C2076 1.368 . S
H2061 C2069 0.950 . S
H2062 C2067 0.950 . S
H2063 C2068 0.949 . S
H2064 C2070 0.950 . S
H2065 C2071 0.950 . S
H2066 C2072 0.949 . S
C2067 H2062 0.950 . S
C2067 C2069 1.327 1_554 S
C2067 C2073 1.429 . S
C2068 C2060 1.574 . S
C2068 H2063 0.949 . S
C2068 C2074 1.368 . S
C2069 C2053 1.349 . S
C2069 H2061 0.950 . S
C2069 C2067 1.327 1_556 S
C2070 C2058 1.349 . S
C2070 H2064 0.950 . S
C2070 C2071 1.327 . S
C2071 H2065 0.950 . S
C2071 C2070 1.327 . S
C2071 C2075 1.429 . S
C2072 C2055 1.574 . S
C2072 H2066 0.949 . S
C2072 C2076 1.368 . S
C2073 C2054 1.429 . S
C2073 C2067 1.429 . S
C2073 C2074 1.523 . S
C2074 C2055 1.368 . S
C2074 C2068 1.368 . S
C2074 C2073 1.523 . S
C2075 C2059 1.429 . S
C2075 C2071 1.429 . S
C2075 C2076 1.523 . S
C2076 C2060 1.368 . S
C2076 C2072 1.368 . S
C2076 C2075 1.523 . S
H2077 C2052 0.950 . S
H2078 C2054 0.950 . S
H2079 C2055 0.949 . S
H2080 C2057 0.950 . S
H2081 C2059 0.950 . S
C2082 C2083 1.349 . S
C2082 C2084 1.327 . S
C2082 H2107 0.950 . S
C2083 C2082 1.349 . S
C2083 C2099 1.349 . S
C2084 C2082 1.327 . S
C2084 C2103 1.429 . S
C2084 H2108 0.950 . S
C2085 C2102 1.574 . S
C2085 C2104 1.368 . S
C2085 H2109 0.949 . S
H2086 C2090 0.949 . S
C2087 C2088 1.349 1_556 S
C2087 C2089 1.327 . S
C2087 H2110 0.950 . S
C2088 C2087 1.349 1_554 S
C2088 C2100 1.349 . S
C2089 C2087 1.327 . S
C2089 C2105 1.429 . S
C2089 H2111 0.950 . S
C2090 H2086 0.949 . S
C2090 C2098 1.574 . S
C2090 C2106 1.368 . S
H2091 C2099 0.950 . S
H2092 C2097 0.950 . S
H2093 C2098 0.949 . S
H2094 C2100 0.950 . S
H2095 C2101 0.950 . S
H2096 C2102 0.949 . S
C2097 H2092 0.950 . S
C2097 C2099 1.327 . S
C2097 C2103 1.429 . S
C2098 C2090 1.574 . S
C2098 H2093 0.949 . S
C2098 C2104 1.368 . S
C2099 C2083 1.349 . S
C2099 H2091 0.950 . S
C2099 C2097 1.327 . S
C2100 C2088 1.349 . S
C2100 H2094 0.950 . S
C2100 C2101 1.327 1_554 S
C2101 H2095 0.950 . S
C2101 C2100 1.327 1_556 S
C2101 C2105 1.429 . S
C2102 C2085 1.574 . S
C2102 H2096 0.949 . S
C2102 C2106 1.368 . S
C2103 C2084 1.429 . S
C2103 C2097 1.429 . S
C2103 C2104 1.523 . S
C2104 C2085 1.368 . S
C2104 C2098 1.368 . S
C2104 C2103 1.523 . S
C2105 C2089 1.429 . S
C2105 C2101 1.429 . S
C2105 C2106 1.523 . S
C2106 C2090 1.368 . S
C2106 C2102 1.368 . S
C2106 C2105 1.523 . S
H2107 C2082 0.950 . S
H2108 C2084 0.950 . S
H2109 C2085 0.949 . S
H2110 C2087 0.950 . S
H2111 C2089 0.950 . S
C2112 C2113 1.349 . S
C2112 C2114 1.327 . S
C2112 H2137 0.950 . S
C2113 C2112 1.349 . S
C2113 C2129 1.349 . S
C2114 C2112 1.327 . S
C2114 C2133 1.429 . S
C2114 H2138 0.950 . S
C2115 C2132 1.574 . S
C2115 C2134 1.368 . S
C2115 H2139 0.949 . S
H2116 C2120 0.949 . S
C2117 C2118 1.349 . S
C2117 C2119 1.327 . S
C2117 H2140 0.950 . S
C2118 C2117 1.349 . S
C2118 C2130 1.349 . S
C2119 C2117 1.327 . S
C2119 C2135 1.429 . S
C2119 H2141 0.950 . S
C2120 H2116 0.949 . S
C2120 C2128 1.574 . S
C2120 C2136 1.368 . S
H2121 C2129 0.950 . S
H2122 C2127 0.950 . S
H2123 C2128 0.949 . S
H2124 C2130 0.950 . S
H2125 C2131 0.950 . S
H2126 C2132 0.949 . S
C2127 H2122 0.950 . S
C2127 C2129 1.327 . S
C2127 C2133 1.429 . S
C2128 C2120 1.574 . S
C2128 H2123 0.949 . S
C2128 C2134 1.368 . S
C2129 C2113 1.349 . S
C2129 H2121 0.950 . S
C2129 C2127 1.327 . S
C2130 C2118 1.349 . S
C2130 H2124 0.950 . S
C2130 C2131 1.327 . S
C2131 H2125 0.950 . S
C2131 C2130 1.327 . S
C2131 C2135 1.429 . S
C2132 C2115 1.574 . S
C2132 H2126 0.949 . S
C2132 C2136 1.368 . S
C2133 C2114 1.429 . S
C2133 C2127 1.429 . S
C2133 C2134 1.523 . S
C2134 C2115 1.368 . S
C2134 C2128 1.368 . S
C2134 C2133 1.523 . S
C2135 C2119 1.429 . S
C2135 C2131 1.429 . S
C2135 C2136 1.523 . S
C2136 C2120 1.368 . S
C2136 C2132 1.368 . S
C2136 C2135 1.523 . S
H2137 C2112 0.950 . S
H2138 C2114 0.950 . S
H2139 C2115 0.949 . S
H2140 C2117 0.950 . S
H2141 C2119 0.950 . S
C2142 C2143 1.349 . S
C2142 C2144 1.327 . S
C2142 H2167 0.950 . S
C2143 C2142 1.349 . S
C2143 C2159 1.349 . S
C2144 C2142 1.327 . S
C2144 C2163 1.429 . S
C2144 H2168 0.950 . S
C2145 C2162 1.574 1_655 S
C2145 C2164 1.368 . S
C2145 H2169 0.949 . S
H2146 C2150 0.949 . S
C2147 C2148 1.349 . S
C2147 C2149 1.327 . S
C2147 H2170 0.950 . S
C2148 C2147 1.349 . S
C2148 C2160 1.349 . S
C2149 C2147 1.327 . S
C2149 C2165 1.429 . S
C2149 H2171 0.950 . S
C2150 H2146 0.949 . S
C2150 C2158 1.574 1_455 S
C2150 C2166 1.368 . S
H2151 C2159 0.950 . S
H2152 C2157 0.950 . S
H2153 C2158 0.949 . S
H2154 C2160 0.950 . S
H2155 C2161 0.950 . S
H2156 C2162 0.949 . S
C2157 H2152 0.950 . S
C2157 C2159 1.327 . S
C2157 C2163 1.429 . S
C2158 C2150 1.574 1_655 S
C2158 H2153 0.949 . S
C2158 C2164 1.368 . S
C2159 C2143 1.349 . S
C2159 H2151 0.950 . S
C2159 C2157 1.327 . S
C2160 C2148 1.349 . S
C2160 H2154 0.950 . S
C2160 C2161 1.327 . S
C2161 H2155 0.950 . S
C2161 C2160 1.327 . S
C2161 C2165 1.429 . S
C2162 C2145 1.574 1_455 S
C2162 H2156 0.949 . S
C2162 C2166 1.368 . S
C2163 C2144 1.429 . S
C2163 C2157 1.429 . S
C2163 C2164 1.523 . S
C2164 C2145 1.368 . S
C2164 C2158 1.368 . S
C2164 C2163 1.523 . S
C2165 C2149 1.429 . S
C2165 C2161 1.429 . S
C2165 C2166 1.523 . S
C2166 C2150 1.368 . S
C2166 C2162 1.368 . S
C2166 C2165 1.523 . S
H2167 C2142 0.950 . S
H2168 C2144 0.950 . S
H2169 C2145 0.949 . S
H2170 C2147 0.950 . S
H2171 C2149 0.950 . S
C2172 C2173 1.349 . S
C2172 C2174 1.327 . S
C2172 H2197 0.950 . S
C2173 C2172 1.349 . S
C2173 C2189 1.349 . S
C2174 C2172 1.327 . S
C2174 C2193 1.429 . S
C2174 H2198 0.950 . S
C2175 C2192 1.574 . S
C2175 C2194 1.368 . S
C2175 H2199 0.949 . S
H2176 C2180 0.949 . S
C2177 C2178 1.349 . S
C2177 C2179 1.327 . S
C2177 H2200 0.950 . S
C2178 C2177 1.349 . S
C2178 C2190 1.349 . S
C2179 C2177 1.327 . S
C2179 C2195 1.429 . S
C2179 H2201 0.950 . S
C2180 H2176 0.949 . S
C2180 C2188 1.574 . S
C2180 C2196 1.368 . S
H2181 C2189 0.950 . S
H2182 C2187 0.950 . S
H2183 C2188 0.949 . S
H2184 C2190 0.950 . S
H2185 C2191 0.950 . S
H2186 C2192 0.949 . S
C2187 H2182 0.950 . S
C2187 C2189 1.327 . S
C2187 C2193 1.429 . S
C2188 C2180 1.574 . S
C2188 H2183 0.949 . S
C2188 C2194 1.368 . S
C2189 C2173 1.349 . S
C2189 H2181 0.950 . S
C2189 C2187 1.327 . S
C2190 C2178 1.349 . S
C2190 H2184 0.950 . S
C2190 C2191 1.327 . S
C2191 H2185 0.950 . S
C2191 C2190 1.327 . S
C2191 C2195 1.429 . S
C2192 C2175 1.574 . S
C2192 H2186 0.949 . S
C2192 C2196 1.368 . S
C2193 C2174 1.429 . S
C2193 C2187 1.429 . S
C2193 C2194 1.523 . S
C2194 C2175 1.368 . S
C2194 C2188 1.368 . S
C2194 C2193 1.523 . S
C2195 C2179 1.429 . S
C2195 C2191 1.429 . S
C2195 C2196 1.523 . S
C2196 C2180 1.368 . S
C2196 C2192 1.368 . S
C2196 C2195 1.523 . S
H2197 C2172 0.950 . S
H2198 C2174 0.950 . S
H2199 C2175 0.949 . S
H2200 C2177 0.950 . S
H2201 C2179 0.950 . S
C2202 C2203 1.349 . S
C2202 C2204 1.327 . S
C2202 H2227 0.950 . S
C2203 C2202 1.349 . S
C2203 C2219 1.349 . S
C2204 C2202 1.327 . S
C2204 C2223 1.429 . S
C2204 H2228 0.950 . S
C2205 C2222 1.574 . S
C2205 C2224 1.368 . S
C2205 H2229 0.949 . S
H2206 C2210 0.949 . S
C2207 C2208 1.349 . S
C2207 C2209 1.327 . S
C2207 H2230 0.950 . S
C2208 C2207 1.349 . S
C2208 C2220 1.349 . S
C2209 C2207 1.327 . S
C2209 C2225 1.429 . S
C2209 H2231 0.950 . S
C2210 H2206 0.949 . S
C2210 C2218 1.574 . S
C2210 C2226 1.368 . S
H2211 C2219 0.950 . S
H2212 C2217 0.950 . S
H2213 C2218 0.949 . S
H2214 C2220 0.950 . S
H2215 C2221 0.950 . S
H2216 C2222 0.949 . S
C2217 H2212 0.950 . S
C2217 C2219 1.327 . S
C2217 C2223 1.429 . S
C2218 C2210 1.574 . S
C2218 H2213 0.949 . S
C2218 C2224 1.368 . S
C2219 C2203 1.349 . S
C2219 H2211 0.950 . S
C2219 C2217 1.327 . S
C2220 C2208 1.349 . S
C2220 H2214 0.950 . S
C2220 C2221 1.327 . S
C2221 H2215 0.950 . S
C2221 C2220 1.327 . S
C2221 C2225 1.429 . S
C2222 C2205 1.574 . S
C2222 H2216 0.949 . S
C2222 C2226 1.368 . S
C2223 C2204 1.429 . S
C2223 C2217 1.429 . S
C2223 C2224 1.523 . S
C2224 C2205 1.368 . S
C2224 C2218 1.368 . S
C2224 C2223 1.523 . S
C2225 C2209 1.429 . S
C2225 C2221 1.429 . S
C2225 C2226 1.523 . S
C2226 C2210 1.368 . S
C2226 C2222 1.368 . S
C2226 C2225 1.523 . S
H2227 C2202 0.950 . S
H2228 C2204 0.950 . S
H2229 C2205 0.949 . S
H2230 C2207 0.950 . S
H2231 C2209 0.950 . S
C2232 C2233 1.349 . S
C2232 C2234 1.327 . S
C2232 H2257 0.950 . S
C2233 C2232 1.349 . S
C2233 C2249 1.349 . S
C2234 C2232 1.327 . S
C2234 C2253 1.429 . S
C2234 H2258 0.950 . S
C2235 C2252 1.574 . S
C2235 C2254 1.368 . S
C2235 H2259 0.949 . S
H2236 C2240 0.949 . S
C2237 C2238 1.349 . S
C2237 C2239 1.327 . S
C2237 H2260 0.950 . S
C2238 C2237 1.349 . S
C2238 C2250 1.349 . S
C2239 C2237 1.327 . S
C2239 C2255 1.429 . S
C2239 H2261 0.950 . S
C2240 H2236 0.949 . S
C2240 C2248 1.574 . S
C2240 C2256 1.368 . S
H2241 C2249 0.950 . S
H2242 C2247 0.950 . S
H2243 C2248 0.949 . S
H2244 C2250 0.950 . S
H2245 C2251 0.950 . S
H2246 C2252 0.949 . S
C2247 H2242 0.950 . S
C2247 C2249 1.327 . S
C2247 C2253 1.429 . S
C2248 C2240 1.574 . S
C2248 H2243 0.949 . S
C2248 C2254 1.368 . S
C2249 C2233 1.349 . S
C2249 H2241 0.950 . S
C2249 C2247 1.327 . S
C2250 C2238 1.349 . S
C2250 H2244 0.950 . S
C2250 C2251 1.327 . S
C2251 H2245 0.950 . S
C2251 C2250 1.327 . S
C2251 C2255 1.429 . S
C2252 C2235 1.574 . S
C2252 H2246 0.949 . S
C2252 C2256 1.368 . S
C2253 C2234 1.429 . S
C2253 C2247 1.429 . S
C2253 C2254 1.523 . S
C2254 C2235 1.368 . S
C2254 C2248 1.368 . S
C2254 C2253 1.523 . S
C2255 C2239 1.429 . S
C2255 C2251 1.429 . S
C2255 C2256 1.523 . S
C2256 C2240 1.368 . S
C2256 C2252 1.368 . S
C2256 C2255 1.523 . S
H2257 C2232 0.950 . S
H2258 C2234 0.950 . S
H2259 C2235 0.949 . S
H2260 C2237 0.950 . S
H2261 C2239 0.950 . S
C2262 C2263 1.349 . S
C2262 C2264 1.327 . S
C2262 H2287 0.950 . S
C2263 C2262 1.349 . S
C2263 C2279 1.349 . S
C2264 C2262 1.327 . S
C2264 C2283 1.429 . S
C2264 H2288 0.950 . S
C2265 C2282 1.574 . S
C2265 C2284 1.368 . S
C2265 H2289 0.949 . S
H2266 C2270 0.949 . S
C2267 C2268 1.349 . S
C2267 C2269 1.327 . S
C2267 H2290 0.950 . S
C2268 C2267 1.349 . S
C2268 C2280 1.349 . S
C2269 C2267 1.327 . S
C2269 C2285 1.429 . S
C2269 H2291 0.950 . S
C2270 H2266 0.949 . S
C2270 C2278 1.574 . S
C2270 C2286 1.368 . S
H2271 C2279 0.950 . S
H2272 C2277 0.950 . S
H2273 C2278 0.949 . S
H2274 C2280 0.950 . S
H2275 C2281 0.950 . S
H2276 C2282 0.949 . S
C2277 H2272 0.950 . S
C2277 C2279 1.327 . S
C2277 C2283 1.429 . S
C2278 C2270 1.574 . S
C2278 H2273 0.949 . S
C2278 C2284 1.368 . S
C2279 C2263 1.349 . S
C2279 H2271 0.950 . S
C2279 C2277 1.327 . S
C2280 C2268 1.349 . S
C2280 H2274 0.950 . S
C2280 C2281 1.327 . S
C2281 H2275 0.950 . S
C2281 C2280 1.327 . S
C2281 C2285 1.429 . S
C2282 C2265 1.574 . S
C2282 H2276 0.949 . S
C2282 C2286 1.368 . S
C2283 C2264 1.429 . S
C2283 C2277 1.429 . S
C2283 C2284 1.523 . S
C2284 C2265 1.368 . S
C2284 C2278 1.368 . S
C2284 C2283 1.523 . S
C2285 C2269 1.429 . S
C2285 C2281 1.429 . S
C2285 C2286 1.523 . S
C2286 C2270 1.368 . S
C2286 C2282 1.368 . S
C2286 C2285 1.523 . S
H2287 C2262 0.950 . S
H2288 C2264 0.950 . S
H2289 C2265 0.949 . S
H2290 C2267 0.950 . S
H2291 C2269 0.950 . S
C2292 C2293 1.349 . S
C2292 C2294 1.327 . S
C2292 H2317 0.950 . S
C2293 C2292 1.349 . S
C2293 C2309 1.349 . S
C2294 C2292 1.327 . S
C2294 C2313 1.429 . S
C2294 H2318 0.950 . S
C2295 C2312 1.574 . S
C2295 C2314 1.368 . S
C2295 H2319 0.949 . S
H2296 C2300 0.949 . S
C2297 C2298 1.349 . S
C2297 C2299 1.327 . S
C2297 H2320 0.950 . S
C2298 C2297 1.349 . S
C2298 C2310 1.349 . S
C2299 C2297 1.327 . S
C2299 C2315 1.429 . S
C2299 H2321 0.950 . S
C2300 H2296 0.949 . S
C2300 C2308 1.574 . S
C2300 C2316 1.368 . S
H2301 C2309 0.950 . S
H2302 C2307 0.950 . S
H2303 C2308 0.949 . S
H2304 C2310 0.950 . S
H2305 C2311 0.950 . S
H2306 C2312 0.949 . S
C2307 H2302 0.950 . S
C2307 C2309 1.327 . S
C2307 C2313 1.429 . S
C2308 C2300 1.574 . S
C2308 H2303 0.949 . S
C2308 C2314 1.368 . S
C2309 C2293 1.349 . S
C2309 H2301 0.950 . S
C2309 C2307 1.327 . S
C2310 C2298 1.349 . S
C2310 H2304 0.950 . S
C2310 C2311 1.327 . S
C2311 H2305 0.950 . S
C2311 C2310 1.327 . S
C2311 C2315 1.429 . S
C2312 C2295 1.574 . S
C2312 H2306 0.949 . S
C2312 C2316 1.368 . S
C2313 C2294 1.429 . S
C2313 C2307 1.429 . S
C2313 C2314 1.523 . S
C2314 C2295 1.368 . S
C2314 C2308 1.368 . S
C2314 C2313 1.523 . S
C2315 C2299 1.429 . S
C2315 C2311 1.429 . S
C2315 C2316 1.523 . S
C2316 C2300 1.368 . S
C2316 C2312 1.368 . S
C2316 C2315 1.523 . S
H2317 C2292 0.950 . S
H2318 C2294 0.950 . S
H2319 C2295 0.949 . S
H2320 C2297 0.950 . S
H2321 C2299 0.950 . S
C2322 C2323 1.349 . S
C2322 C2324 1.327 . S
C2322 H2347 0.950 . S
C2323 C2322 1.349 . S
C2323 C2339 1.349 . S
C2324 C2322 1.327 . S
C2324 C2343 1.429 . S
C2324 H2348 0.950 . S
C2325 C2342 1.574 1_655 S
C2325 C2344 1.368 . S
C2325 H2349 0.949 . S
H2326 C2330 0.949 . S
C2327 C2328 1.349 . S
C2327 C2329 1.327 . S
C2327 H2350 0.950 . S
C2328 C2327 1.349 . S
C2328 C2340 1.349 . S
C2329 C2327 1.327 . S
C2329 C2345 1.429 . S
C2329 H2351 0.950 . S
C2330 H2326 0.949 . S
C2330 C2338 1.574 1_455 S
C2330 C2346 1.368 . S
H2331 C2339 0.950 . S
H2332 C2337 0.950 . S
H2333 C2338 0.949 . S
H2334 C2340 0.950 . S
H2335 C2341 0.950 . S
H2336 C2342 0.949 . S
C2337 H2332 0.950 . S
C2337 C2339 1.327 . S
C2337 C2343 1.429 . S
C2338 C2330 1.574 1_655 S
C2338 H2333 0.949 . S
C2338 C2344 1.368 . S
C2339 C2323 1.349 . S
C2339 H2331 0.950 . S
C2339 C2337 1.327 . S
C2340 C2328 1.349 . S
C2340 H2334 0.950 . S
C2340 C2341 1.327 . S
C2341 H2335 0.950 . S
C2341 C2340 1.327 . S
C2341 C2345 1.429 . S
C2342 C2325 1.574 1_455 S
C2342 H2336 0.949 . S
C2342 C2346 1.368 . S
C2343 C2324 1.429 . S
C2343 C2337 1.429 . S
C2343 C2344 1.523 . S
C2344 C2325 1.368 . S
C2344 C2338 1.368 . S
C2344 C2343 1.523 . S
C2345 C2329 1.429 . S
C2345 C2341 1.429 . S
C2345 C2346 1.523 . S
C2346 C2330 1.368 . S
C2346 C2342 1.368 . S
C2346 C2345 1.523 . S
H2347 C2322 0.950 . S
H2348 C2324 0.950 . S
H2349 C2325 0.949 . S
H2350 C2327 0.950 . S
H2351 C2329 0.950 . S
C2352 C2353 1.349 . S
C2352 C2354 1.327 . S
C2352 H2377 0.950 . S
C2353 C2352 1.349 . S
C2353 C2369 1.349 . S
C2354 C2352 1.327 . S
C2354 C2373 1.429 . S
C2354 H2378 0.950 . S
C2355 C2372 1.574 . S
C2355 C2374 1.368 . S
C2355 H2379 0.949 . S
H2356 C2360 0.949 . S
C2357 C2358 1.349 . S
C2357 C2359 1.327 . S
C2357 H2380 0.950 . S
C2358 C2357 1.349 . S
C2358 C2370 1.349 . S
C2359 C2357 1.327 . S
C2359 C2375 1.429 . S
C2359 H2381 0.950 . S
C2360 H2356 0.949 . S
C2360 C2368 1.574 . S
C2360 C2376 1.368 . S
H2361 C2369 0.950 . S
H2362 C2367 0.950 . S
H2363 C2368 0.949 . S
H2364 C2370 0.950 . S
H2365 C2371 0.950 . S
H2366 C2372 0.949 . S
C2367 H2362 0.950 . S
C2367 C2369 1.327 . S
C2367 C2373 1.429 . S
C2368 C2360 1.574 . S
C2368 H2363 0.949 . S
C2368 C2374 1.368 . S
C2369 C2353 1.349 . S
C2369 H2361 0.950 . S
C2369 C2367 1.327 . S
C2370 C2358 1.349 . S
C2370 H2364 0.950 . S
C2370 C2371 1.327 . S
C2371 H2365 0.950 . S
C2371 C2370 1.327 . S
C2371 C2375 1.429 . S
C2372 C2355 1.574 . S
C2372 H2366 0.949 . S
C2372 C2376 1.368 . S
C2373 C2354 1.429 . S
C2373 C2367 1.429 . S
C2373 C2374 1.523 . S
C2374 C2355 1.368 . S
C2374 C2368 1.368 . S
C2374 C2373 1.523 . S
C2375 C2359 1.429 . S
C2375 C2371 1.429 . S
C2375 C2376 1.523 . S
C2376 C2360 1.368 . S
C2376 C2372 1.368 . S
C2376 C2375 1.523 . S
H2377 C2352 0.950 . S
H2378 C2354 0.950 . S
H2379 C2355 0.949 . S
H2380 C2357 0.950 . S
H2381 C2359 0.950 . S
C2382 C2383 1.349 . S
C2382 C2384 1.327 . S
C2382 H2407 0.950 . S
C2383 C2382 1.349 . S
C2383 C2399 1.349 . S
C2384 C2382 1.327 . S
C2384 C2403 1.429 . S
C2384 H2408 0.950 . S
C2385 C2402 1.574 . S
C2385 C2404 1.368 . S
C2385 H2409 0.949 . S
H2386 C2390 0.949 . S
C2387 C2388 1.349 . S
C2387 C2389 1.327 . S
C2387 H2410 0.950 . S
C2388 C2387 1.349 . S
C2388 C2400 1.349 . S
C2389 C2387 1.327 . S
C2389 C2405 1.429 . S
C2389 H2411 0.950 . S
C2390 H2386 0.949 . S
C2390 C2398 1.574 . S
C2390 C2406 1.368 . S
H2391 C2399 0.950 . S
H2392 C2397 0.950 . S
H2393 C2398 0.949 . S
H2394 C2400 0.950 . S
H2395 C2401 0.950 . S
H2396 C2402 0.949 . S
C2397 H2392 0.950 . S
C2397 C2399 1.327 . S
C2397 C2403 1.429 . S
C2398 C2390 1.574 . S
C2398 H2393 0.949 . S
C2398 C2404 1.368 . S
C2399 C2383 1.349 . S
C2399 H2391 0.950 . S
C2399 C2397 1.327 . S
C2400 C2388 1.349 . S
C2400 H2394 0.950 . S
C2400 C2401 1.327 . S
C2401 H2395 0.950 . S
C2401 C2400 1.327 . S
C2401 C2405 1.429 . S
C2402 C2385 1.574 . S
C2402 H2396 0.949 . S
C2402 C2406 1.368 . S
C2403 C2384 1.429 . S
C2403 C2397 1.429 . S
C2403 C2404 1.523 . S
C2404 C2385 1.368 . S
C2404 C2398 1.368 . S
C2404 C2403 1.523 . S
C2405 C2389 1.429 . S
C2405 C2401 1.429 . S
C2405 C2406 1.523 . S
C2406 C2390 1.368 . S
C2406 C2402 1.368 . S
C2406 C2405 1.523 . S
H2407 C2382 0.950 . S
H2408 C2384 0.950 . S
H2409 C2385 0.949 . S
H2410 C2387 0.950 . S
H2411 C2389 0.950 . S
C2412 C2413 1.349 . S
C2412 C2414 1.327 . S
C2412 H2437 0.950 . S
C2413 C2412 1.349 . S
C2413 C2429 1.349 . S
C2414 C2412 1.327 . S
C2414 C2433 1.429 . S
C2414 H2438 0.950 . S
C2415 C2432 1.574 . S
C2415 C2434 1.368 . S
C2415 H2439 0.949 . S
H2416 C2420 0.949 . S
C2417 C2418 1.349 . S
C2417 C2419 1.327 . S
C2417 H2440 0.950 . S
C2418 C2417 1.349 . S
C2418 C2430 1.349 . S
C2419 C2417 1.327 . S
C2419 C2435 1.429 . S
C2419 H2441 0.950 . S
C2420 H2416 0.949 . S
C2420 C2428 1.574 . S
C2420 C2436 1.368 . S
H2421 C2429 0.950 . S
H2422 C2427 0.950 . S
H2423 C2428 0.949 . S
H2424 C2430 0.950 . S
H2425 C2431 0.950 . S
H2426 C2432 0.949 . S
C2427 H2422 0.950 . S
C2427 C2429 1.327 . S
C2427 C2433 1.429 . S
C2428 C2420 1.574 . S
C2428 H2423 0.949 . S
C2428 C2434 1.368 . S
C2429 C2413 1.349 . S
C2429 H2421 0.950 . S
C2429 C2427 1.327 . S
C2430 C2418 1.349 . S
C2430 H2424 0.950 . S
C2430 C2431 1.327 . S
C2431 H2425 0.950 . S
C2431 C2430 1.327 . S
C2431 C2435 1.429 . S
C2432 C2415 1.574 . S
C2432 H2426 0.949 . S
C2432 C2436 1.368 . S
C2433 C2414 1.429 . S
C2433 C2427 1.429 . S
C2433 C2434 1.523 . S
C2434 C2415 1.368 . S
C2434 C2428 1.368 . S
C2434 C2433 1.523 . S
C2435 C2419 1.429 . S
C2435 C2431 1.429 . S
C2435 C2436 1.523 . S
C2436 C2420 1.368 . S
C2436 C2432 1.368 . S
C2436 C2435 1.523 . S
H2437 C2412 0.950 . S
H2438 C2414 0.950 . S
H2439 C2415 0.949 . S
H2440 C2417 0.950 . S
H2441 C2419 0.950 . S
C2442 C2443 1.349 . S
C2442 C2444 1.327 . S
C2442 H2467 0.950 . S
C2443 C2442 1.349 . S
C2443 C2459 1.349 . S
C2444 C2442 1.327 . S
C2444 C2463 1.429 . S
C2444 H2468 0.950 . S
C2445 C2462 1.574 . S
C2445 C2464 1.368 . S
C2445 H2469 0.949 . S
H2446 C2450 0.949 . S
C2447 C2448 1.349 . S
C2447 C2449 1.327 . S
C2447 H2470 0.950 . S
C2448 C2447 1.349 . S
C2448 C2460 1.349 . S
C2449 C2447 1.327 . S
C2449 C2465 1.429 . S
C2449 H2471 0.950 . S
C2450 H2446 0.949 . S
C2450 C2458 1.574 . S
C2450 C2466 1.368 . S
H2451 C2459 0.950 . S
H2452 C2457 0.950 . S
H2453 C2458 0.949 . S
H2454 C2460 0.950 . S
H2455 C2461 0.950 . S
H2456 C2462 0.949 . S
C2457 H2452 0.950 . S
C2457 C2459 1.327 . S
C2457 C2463 1.429 . S
C2458 C2450 1.574 . S
C2458 H2453 0.949 . S
C2458 C2464 1.368 . S
C2459 C2443 1.349 . S
C2459 H2451 0.950 . S
C2459 C2457 1.327 . S
C2460 C2448 1.349 . S
C2460 H2454 0.950 . S
C2460 C2461 1.327 . S
C2461 H2455 0.950 . S
C2461 C2460 1.327 . S
C2461 C2465 1.429 . S
C2462 C2445 1.574 . S
C2462 H2456 0.949 . S
C2462 C2466 1.368 . S
C2463 C2444 1.429 . S
C2463 C2457 1.429 . S
C2463 C2464 1.523 . S
C2464 C2445 1.368 . S
C2464 C2458 1.368 . S
C2464 C2463 1.523 . S
C2465 C2449 1.429 . S
C2465 C2461 1.429 . S
C2465 C2466 1.523 . S
C2466 C2450 1.368 . S
C2466 C2462 1.368 . S
C2466 C2465 1.523 . S
H2467 C2442 0.950 . S
H2468 C2444 0.950 . S
H2469 C2445 0.949 . S
H2470 C2447 0.950 . S
H2471 C2449 0.950 . S
C2472 C2473 1.349 . S
C2472 C2474 1.327 . S
C2472 H2497 0.950 . S
C2473 C2472 1.349 . S
C2473 C2489 1.349 . S
C2474 C2472 1.327 . S
C2474 C2493 1.429 . S
C2474 H2498 0.950 . S
C2475 C2492 1.574 . S
C2475 C2494 1.368 . S
C2475 H2499 0.949 . S
H2476 C2480 0.949 . S
C2477 C2478 1.349 . S
C2477 C2479 1.327 . S
C2477 H2500 0.950 . S
C2478 C2477 1.349 . S
C2478 C2490 1.349 . S
C2479 C2477 1.327 . S
C2479 C2495 1.429 . S
C2479 H2501 0.950 . S
C2480 H2476 0.949 . S
C2480 C2488 1.574 . S
C2480 C2496 1.368 . S
H2481 C2489 0.950 . S
H2482 C2487 0.950 . S
H2483 C2488 0.949 . S
H2484 C2490 0.950 . S
H2485 C2491 0.950 . S
H2486 C2492 0.949 . S
C2487 H2482 0.950 . S
C2487 C2489 1.327 . S
C2487 C2493 1.429 . S
C2488 C2480 1.574 . S
C2488 H2483 0.949 . S
C2488 C2494 1.368 . S
C2489 C2473 1.349 . S
C2489 H2481 0.950 . S
C2489 C2487 1.327 . S
C2490 C2478 1.349 . S
C2490 H2484 0.950 . S
C2490 C2491 1.327 . S
C2491 H2485 0.950 . S
C2491 C2490 1.327 . S
C2491 C2495 1.429 . S
C2492 C2475 1.574 . S
C2492 H2486 0.949 . S
C2492 C2496 1.368 . S
C2493 C2474 1.429 . S
C2493 C2487 1.429 . S
C2493 C2494 1.523 . S
C2494 C2475 1.368 . S
C2494 C2488 1.368 . S
C2494 C2493 1.523 . S
C2495 C2479 1.429 . S
C2495 C2491 1.429 . S
C2495 C2496 1.523 . S
C2496 C2480 1.368 . S
C2496 C2492 1.368 . S
C2496 C2495 1.523 . S
H2497 C2472 0.950 . S
H2498 C2474 0.950 . S
H2499 C2475 0.949 . S
H2500 C2477 0.950 . S
H2501 C2479 0.950 . S
C2502 C2503 1.349 . S
C2502 C2504 1.327 . S
C2502 H2527 0.950 . S
C2503 C2502 1.349 . S
C2503 C2519 1.349 . S
C2504 C2502 1.327 . S
C2504 C2523 1.429 . S
C2504 H2528 0.950 . S
C2505 C2522 1.574 1_655 S
C2505 C2524 1.368 . S
C2505 H2529 0.949 . S
H2506 C2510 0.949 . S
C2507 C2508 1.349 . S
C2507 C2509 1.327 . S
C2507 H2530 0.950 . S
C2508 C2507 1.349 . S
C2508 C2520 1.349 . S
C2509 C2507 1.327 . S
C2509 C2525 1.429 . S
C2509 H2531 0.950 . S
C2510 H2506 0.949 . S
C2510 C2518 1.574 1_455 S
C2510 C2526 1.368 . S
H2511 C2519 0.950 . S
H2512 C2517 0.950 . S
H2513 C2518 0.949 . S
H2514 C2520 0.950 . S
H2515 C2521 0.950 . S
H2516 C2522 0.949 . S
C2517 H2512 0.950 . S
C2517 C2519 1.327 . S
C2517 C2523 1.429 . S
C2518 C2510 1.574 1_655 S
C2518 H2513 0.949 . S
C2518 C2524 1.368 . S
C2519 C2503 1.349 . S
C2519 H2511 0.950 . S
C2519 C2517 1.327 . S
C2520 C2508 1.349 . S
C2520 H2514 0.950 . S
C2520 C2521 1.327 . S
C2521 H2515 0.950 . S
C2521 C2520 1.327 . S
C2521 C2525 1.429 . S
C2522 C2505 1.574 1_455 S
C2522 H2516 0.949 . S
C2522 C2526 1.368 . S
C2523 C2504 1.429 . S
C2523 C2517 1.429 . S
C2523 C2524 1.523 . S
C2524 C2505 1.368 . S
C2524 C2518 1.368 . S
C2524 C2523 1.523 . S
C2525 C2509 1.429 . S
C2525 C2521 1.429 . S
C2525 C2526 1.523 . S
C2526 C2510 1.368 . S
C2526 C2522 1.368 . S
C2526 C2525 1.523 . S
H2527 C2502 0.950 . S
H2528 C2504 0.950 . S
H2529 C2505 0.949 . S
H2530 C2507 0.950 . S
H2531 C2509 0.950 . S
C2532 C2533 1.349 . S
C2532 C2534 1.327 . S
C2532 H2557 0.950 . S
C2533 C2532 1.349 . S
C2533 C2549 1.349 . S
C2534 C2532 1.327 . S
C2534 C2553 1.429 . S
C2534 H2558 0.950 . S
C2535 C2552 1.574 1_655 S
C2535 C2554 1.368 . S
C2535 H2559 0.949 . S
H2536 C2540 0.949 . S
C2537 C2538 1.349 . S
C2537 C2539 1.327 . S
C2537 H2560 0.950 . S
C2538 C2537 1.349 . S
C2538 C2550 1.349 . S
C2539 C2537 1.327 . S
C2539 C2555 1.429 . S
C2539 H2561 0.950 . S
C2540 H2536 0.949 . S
C2540 C2548 1.574 1_455 S
C2540 C2556 1.368 . S
H2541 C2549 0.950 . S
H2542 C2547 0.950 . S
H2543 C2548 0.949 . S
H2544 C2550 0.950 . S
H2545 C2551 0.950 . S
H2546 C2552 0.949 . S
C2547 H2542 0.950 . S
C2547 C2549 1.327 . S
C2547 C2553 1.429 . S
C2548 C2540 1.574 1_655 S
C2548 H2543 0.949 . S
C2548 C2554 1.368 . S
C2549 C2533 1.349 . S
C2549 H2541 0.950 . S
C2549 C2547 1.327 . S
C2550 C2538 1.349 . S
C2550 H2544 0.950 . S
C2550 C2551 1.327 . S
C2551 H2545 0.950 . S
C2551 C2550 1.327 . S
C2551 C2555 1.429 . S
C2552 C2535 1.574 1_455 S
C2552 H2546 0.949 . S
C2552 C2556 1.368 . S
C2553 C2534 1.429 . S
C2553 C2547 1.429 . S
C2553 C2554 1.523 . S
C2554 C2535 1.368 . S
C2554 C2548 1.368 . S
C2554 C2553 1.523 . S
C2555 C2539 1.429 . S
C2555 C2551 1.429 . S
C2555 C2556 1.523 . S
C2556 C2540 1.368 . S
C2556 C2552 1.368 . S
C2556 C2555 1.523 . S
H2557 C2532 0.950 . S
H2558 C2534 0.950 . S
H2559 C2535 0.949 . S
H2560 C2537 0.950 . S
H2561 C2539 0.950 . S
C2562 C2563 1.349 . S
C2562 C2564 1.327 . S
C2562 H2587 0.950 . S
C2563 C2562 1.349 . S
C2563 C2579 1.349 . S
C2564 C2562 1.327 . S
C2564 C2583 1.429 . S
C2564 H2588 0.950 . S
C2565 C2582 1.574 . S
C2565 C2584 1.368 . S
C2565 H2589 0.949 . S
H2566 C2570 0.949 . S
C2567 C2568 1.349 . S
C2567 C2569 1.327 . S
C2567 H2590 0.950 . S
C2568 C2567 1.349 . S
C2568 C2580 1.349 . S
C2569 C2567 1.327 . S
C2569 C2585 1.429 . S
C2569 H2591 0.950 . S
C2570 H2566 0.949 . S
C2570 C2578 1.574 . S
C2570 C2586 1.368 . S
H2571 C2579 0.950 . S
H2572 C2577 0.950 . S
H2573 C2578 0.949 . S
H2574 C2580 0.950 . S
H2575 C2581 0.950 . S
H2576 C2582 0.949 . S
C2577 H2572 0.950 . S
C2577 C2579 1.327 . S
C2577 C2583 1.429 . S
C2578 C2570 1.574 . S
C2578 H2573 0.949 . S
C2578 C2584 1.368 . S
C2579 C2563 1.349 . S
C2579 H2571 0.950 . S
C2579 C2577 1.327 . S
C2580 C2568 1.349 . S
C2580 H2574 0.950 . S
C2580 C2581 1.327 . S
C2581 H2575 0.950 . S
C2581 C2580 1.327 . S
C2581 C2585 1.429 . S
C2582 C2565 1.574 . S
C2582 H2576 0.949 . S
C2582 C2586 1.368 . S
C2583 C2564 1.429 . S
C2583 C2577 1.429 . S
C2583 C2584 1.523 . S
C2584 C2565 1.368 . S
C2584 C2578 1.368 . S
C2584 C2583 1.523 . S
C2585 C2569 1.429 . S
C2585 C2581 1.429 . S
C2585 C2586 1.523 . S
C2586 C2570 1.368 . S
C2586 C2582 1.368 . S
C2586 C2585 1.523 . S
H2587 C2562 0.950 . S
H2588 C2564 0.950 . S
H2589 C2565 0.949 . S
H2590 C2567 0.950 . S
H2591 C2569 0.950 . S
C2592 C2593 1.349 . S
C2592 C2594 1.327 . S
C2592 H2617 0.950 . S
C2593 C2592 1.349 . S
C2593 C2609 1.349 . S
C2594 C2592 1.327 . S
C2594 C2613 1.429 . S
C2594 H2618 0.950 . S
C2595 C2612 1.574 . S
C2595 C2614 1.368 . S
C2595 H2619 0.949 . S
H2596 C2600 0.949 . S
C2597 C2598 1.349 . S
C2597 C2599 1.327 . S
C2597 H2620 0.950 . S
C2598 C2597 1.349 . S
C2598 C2610 1.349 . S
C2599 C2597 1.327 . S
C2599 C2615 1.429 . S
C2599 H2621 0.950 . S
C2600 H2596 0.949 . S
C2600 C2608 1.574 . S
C2600 C2616 1.368 . S
H2601 C2609 0.950 . S
H2602 C2607 0.950 . S
H2603 C2608 0.949 . S
H2604 C2610 0.950 . S
H2605 C2611 0.950 . S
H2606 C2612 0.949 . S
C2607 H2602 0.950 . S
C2607 C2609 1.327 . S
C2607 C2613 1.429 . S
C2608 C2600 1.574 . S
C2608 H2603 0.949 . S
C2608 C2614 1.368 . S
C2609 C2593 1.349 . S
C2609 H2601 0.950 . S
C2609 C2607 1.327 . S
C2610 C2598 1.349 . S
C2610 H2604 0.950 . S
C2610 C2611 1.327 . S
C2611 H2605 0.950 . S
C2611 C2610 1.327 . S
C2611 C2615 1.429 . S
C2612 C2595 1.574 . S
C2612 H2606 0.949 . S
C2612 C2616 1.368 . S
C2613 C2594 1.429 . S
C2613 C2607 1.429 . S
C2613 C2614 1.523 . S
C2614 C2595 1.368 . S
C2614 C2608 1.368 . S
C2614 C2613 1.523 . S
C2615 C2599 1.429 . S
C2615 C2611 1.429 . S
C2615 C2616 1.523 . S
C2616 C2600 1.368 . S
C2616 C2612 1.368 . S
C2616 C2615 1.523 . S
H2617 C2592 0.950 . S
H2618 C2594 0.950 . S
H2619 C2595 0.949 . S
H2620 C2597 0.950 . S
H2621 C2599 0.950 . S
C2622 C2623 1.349 . S
C2622 C2624 1.327 . S
C2622 H2647 0.950 . S
C2623 C2622 1.349 . S
C2623 C2639 1.349 . S
C2624 C2622 1.327 . S
C2624 C2643 1.429 . S
C2624 H2648 0.950 . S
C2625 C2642 1.574 . S
C2625 C2644 1.368 . S
C2625 H2649 0.949 . S
H2626 C2630 0.949 . S
C2627 C2628 1.349 . S
C2627 C2629 1.327 . S
C2627 H2650 0.950 . S
C2628 C2627 1.349 . S
C2628 C2640 1.349 . S
C2629 C2627 1.327 . S
C2629 C2645 1.429 . S
C2629 H2651 0.950 . S
C2630 H2626 0.949 . S
C2630 C2638 1.574 . S
C2630 C2646 1.368 . S
H2631 C2639 0.950 . S
H2632 C2637 0.950 . S
H2633 C2638 0.949 . S
H2634 C2640 0.950 . S
H2635 C2641 0.950 . S
H2636 C2642 0.949 . S
C2637 H2632 0.950 . S
C2637 C2639 1.327 . S
C2637 C2643 1.429 . S
C2638 C2630 1.574 . S
C2638 H2633 0.949 . S
C2638 C2644 1.368 . S
C2639 C2623 1.349 . S
C2639 H2631 0.950 . S
C2639 C2637 1.327 . S
C2640 C2628 1.349 . S
C2640 H2634 0.950 . S
C2640 C2641 1.327 . S
C2641 H2635 0.950 . S
C2641 C2640 1.327 . S
C2641 C2645 1.429 . S
C2642 C2625 1.574 . S
C2642 H2636 0.949 . S
C2642 C2646 1.368 . S
C2643 C2624 1.429 . S
C2643 C2637 1.429 . S
C2643 C2644 1.523 . S
C2644 C2625 1.368 . S
C2644 C2638 1.368 . S
C2644 C2643 1.523 . S
C2645 C2629 1.429 . S
C2645 C2641 1.429 . S
C2645 C2646 1.523 . S
C2646 C2630 1.368 . S
C2646 C2642 1.368 . S
C2646 C2645 1.523 . S
H2647 C2622 0.950 . S
H2648 C2624 0.950 . S
H2649 C2625 0.949 . S
H2650 C2627 0.950 . S
H2651 C2629 0.950 . S
C2652 C2653 1.349 . S
C2652 C2654 1.327 1_554 S
C2652 H2677 0.950 . S
C2653 C2652 1.349 . S
C2653 C2669 1.349 1_554 S
C2654 C2652 1.327 1_556 S
C2654 C2673 1.429 . S
C2654 H2678 0.950 . S
C2655 C2672 1.574 . S
C2655 C2674 1.368 . S
C2655 H2679 0.949 . S
H2656 C2660 0.949 . S
C2657 C2658 1.349 . S
C2657 C2659 1.327 . S
C2657 H2680 0.950 . S
C2658 C2657 1.349 . S
C2658 C2670 1.349 . S
C2659 C2657 1.327 . S
C2659 C2675 1.429 . S
C2659 H2681 0.950 . S
C2660 H2656 0.949 . S
C2660 C2668 1.574 . S
C2660 C2676 1.368 . S
H2661 C2669 0.950 . S
H2662 C2667 0.950 . S
H2663 C2668 0.949 . S
H2664 C2670 0.950 . S
H2665 C2671 0.950 . S
H2666 C2672 0.949 . S
C2667 H2662 0.950 . S
C2667 C2669 1.327 . S
C2667 C2673 1.429 . S
C2668 C2660 1.574 . S
C2668 H2663 0.949 . S
C2668 C2674 1.368 . S
C2669 C2653 1.349 1_556 S
C2669 H2661 0.950 . S
C2669 C2667 1.327 . S
C2670 C2658 1.349 . S
C2670 H2664 0.950 . S
C2670 C2671 1.327 . S
C2671 H2665 0.950 . S
C2671 C2670 1.327 . S
C2671 C2675 1.429 . S
C2672 C2655 1.574 . S
C2672 H2666 0.949 . S
C2672 C2676 1.368 . S
C2673 C2654 1.429 . S
C2673 C2667 1.429 . S
C2673 C2674 1.523 . S
C2674 C2655 1.368 . S
C2674 C2668 1.368 . S
C2674 C2673 1.523 . S
C2675 C2659 1.429 . S
C2675 C2671 1.429 . S
C2675 C2676 1.523 . S
C2676 C2660 1.368 . S
C2676 C2672 1.368 . S
C2676 C2675 1.523 . S
H2677 C2652 0.950 . S
H2678 C2654 0.950 . S
H2679 C2655 0.949 . S
H2680 C2657 0.950 . S
H2681 C2659 0.950 . S
C2682 C2683 1.349 . S
C2682 C2684 1.327 1_556 S
C2682 H2707 0.950 . S
C2683 C2682 1.349 . S
C2683 C2699 1.349 1_556 S
C2684 C2682 1.327 1_554 S
C2684 C2703 1.429 . S
C2684 H2708 0.950 . S
C2685 C2702 1.574 . S
C2685 C2704 1.368 . S
C2685 H2709 0.949 . S
H2686 C2690 0.949 . S
C2687 C2688 1.349 . S
C2687 C2689 1.327 . S
C2687 H2710 0.950 . S
C2688 C2687 1.349 . S
C2688 C2700 1.349 . S
C2689 C2687 1.327 . S
C2689 C2705 1.429 . S
C2689 H2711 0.950 . S
C2690 H2686 0.949 . S
C2690 C2698 1.574 . S
C2690 C2706 1.368 . S
H2691 C2699 0.950 . S
H2692 C2697 0.950 . S
H2693 C2698 0.949 . S
H2694 C2700 0.950 . S
H2695 C2701 0.950 . S
H2696 C2702 0.949 . S
C2697 H2692 0.950 . S
C2697 C2699 1.327 . S
C2697 C2703 1.429 . S
C2698 C2690 1.574 . S
C2698 H2693 0.949 . S
C2698 C2704 1.368 . S
C2699 C2683 1.349 1_554 S
C2699 H2691 0.950 . S
C2699 C2697 1.327 . S
C2700 C2688 1.349 . S
C2700 H2694 0.950 . S
C2700 C2701 1.327 . S
C2701 H2695 0.950 . S
C2701 C2700 1.327 . S
C2701 C2705 1.429 . S
C2702 C2685 1.574 . S
C2702 H2696 0.949 . S
C2702 C2706 1.368 . S
C2703 C2684 1.429 . S
C2703 C2697 1.429 . S
C2703 C2704 1.523 . S
C2704 C2685 1.368 . S
C2704 C2698 1.368 . S
C2704 C2703 1.523 . S
C2705 C2689 1.429 . S
C2705 C2701 1.429 . S
C2705 C2706 1.523 . S
C2706 C2690 1.368 . S
C2706 C2702 1.368 . S
C2706 C2705 1.523 . S
H2707 C2682 0.950 . S
H2708 C2684 0.950 . S
H2709 C2685 0.949 . S
H2710 C2687 0.950 . S
H2711 C2689 0.950 . S
C2712 C2713 1.349 . S
C2712 C2714 1.327 . S
C2712 H2737 0.950 . S
C2713 C2712 1.349 . S
C2713 C2729 1.349 . S
C2714 C2712 1.327 . S
C2714 C2733 1.429 . S
C2714 H2738 0.950 . S
C2715 C2732 1.574 . S
C2715 C2734 1.368 . S
C2715 H2739 0.949 . S
H2716 C2720 0.949 . S
C2717 C2718 1.349 . S
C2717 C2719 1.327 . S
C2717 H2740 0.950 . S
C2718 C2717 1.349 . S
C2718 C2730 1.349 . S
C2719 C2717 1.327 . S
C2719 C2735 1.429 . S
C2719 H2741 0.950 . S
C2720 H2716 0.949 . S
C2720 C2728 1.574 . S
C2720 C2736 1.368 . S
H2721 C2729 0.950 . S
H2722 C2727 0.950 . S
H2723 C2728 0.949 . S
H2724 C2730 0.950 . S
H2725 C2731 0.950 . S
H2726 C2732 0.949 . S
C2727 H2722 0.950 . S
C2727 C2729 1.327 . S
C2727 C2733 1.429 . S
C2728 C2720 1.574 . S
C2728 H2723 0.949 . S
C2728 C2734 1.368 . S
C2729 C2713 1.349 . S
C2729 H2721 0.950 . S
C2729 C2727 1.327 . S
C2730 C2718 1.349 . S
C2730 H2724 0.950 . S
C2730 C2731 1.327 . S
C2731 H2725 0.950 . S
C2731 C2730 1.327 . S
C2731 C2735 1.429 . S
C2732 C2715 1.574 . S
C2732 H2726 0.949 . S
C2732 C2736 1.368 . S
C2733 C2714 1.429 . S
C2733 C2727 1.429 . S
C2733 C2734 1.523 . S
C2734 C2715 1.368 . S
C2734 C2728 1.368 . S
C2734 C2733 1.523 . S
C2735 C2719 1.429 . S
C2735 C2731 1.429 . S
C2735 C2736 1.523 . S
C2736 C2720 1.368 . S
C2736 C2732 1.368 . S
C2736 C2735 1.523 . S
H2737 C2712 0.950 . S
H2738 C2714 0.950 . S
H2739 C2715 0.949 . S
H2740 C2717 0.950 . S
H2741 C2719 0.950 . S
C2742 C2743 1.349 . S
C2742 C2744 1.327 . S
C2742 H2767 0.950 . S
C2743 C2742 1.349 . S
C2743 C2759 1.349 . S
C2744 C2742 1.327 . S
C2744 C2763 1.429 . S
C2744 H2768 0.950 . S
C2745 C2762 1.574 . S
C2745 C2764 1.368 . S
C2745 H2769 0.949 . S
H2746 C2750 0.949 . S
C2747 C2748 1.349 . S
C2747 C2749 1.327 . S
C2747 H2770 0.950 . S
C2748 C2747 1.349 . S
C2748 C2760 1.349 . S
C2749 C2747 1.327 . S
C2749 C2765 1.429 . S
C2749 H2771 0.950 . S
C2750 H2746 0.949 . S
C2750 C2758 1.574 . S
C2750 C2766 1.368 . S
H2751 C2759 0.950 . S
H2752 C2757 0.950 . S
H2753 C2758 0.949 . S
H2754 C2760 0.950 . S
H2755 C2761 0.950 . S
H2756 C2762 0.949 . S
C2757 H2752 0.950 . S
C2757 C2759 1.327 . S
C2757 C2763 1.429 . S
C2758 C2750 1.574 . S
C2758 H2753 0.949 . S
C2758 C2764 1.368 . S
C2759 C2743 1.349 . S
C2759 H2751 0.950 . S
C2759 C2757 1.327 . S
C2760 C2748 1.349 . S
C2760 H2754 0.950 . S
C2760 C2761 1.327 . S
C2761 H2755 0.950 . S
C2761 C2760 1.327 . S
C2761 C2765 1.429 . S
C2762 C2745 1.574 . S
C2762 H2756 0.949 . S
C2762 C2766 1.368 . S
C2763 C2744 1.429 . S
C2763 C2757 1.429 . S
C2763 C2764 1.523 . S
C2764 C2745 1.368 . S
C2764 C2758 1.368 . S
C2764 C2763 1.523 . S
C2765 C2749 1.429 . S
C2765 C2761 1.429 . S
C2765 C2766 1.523 . S
C2766 C2750 1.368 . S
C2766 C2762 1.368 . S
C2766 C2765 1.523 . S
H2767 C2742 0.950 . S
H2768 C2744 0.950 . S
H2769 C2745 0.949 . S
H2770 C2747 0.950 . S
H2771 C2749 0.950 . S
C2772 C2773 1.349 . S
C2772 C2774 1.327 . S
C2772 H2797 0.950 . S
C2773 C2772 1.349 . S
C2773 C2789 1.349 . S
C2774 C2772 1.327 . S
C2774 C2793 1.429 . S
C2774 H2798 0.950 . S
C2775 C2792 1.574 . S
C2775 C2794 1.368 . S
C2775 H2799 0.949 . S
H2776 C2780 0.949 . S
C2777 C2778 1.349 . S
C2777 C2779 1.327 1_556 S
C2777 H2800 0.950 . S
C2778 C2777 1.349 . S
C2778 C2790 1.349 1_556 S
C2779 C2777 1.327 1_554 S
C2779 C2795 1.429 . S
C2779 H2801 0.950 . S
C2780 H2776 0.949 . S
C2780 C2788 1.574 . S
C2780 C2796 1.368 . S
H2781 C2789 0.950 . S
H2782 C2787 0.950 . S
H2783 C2788 0.949 . S
H2784 C2790 0.950 . S
H2785 C2791 0.950 . S
H2786 C2792 0.949 . S
C2787 H2782 0.950 . S
C2787 C2789 1.327 . S
C2787 C2793 1.429 . S
C2788 C2780 1.574 . S
C2788 H2783 0.949 . S
C2788 C2794 1.368 . S
C2789 C2773 1.349 . S
C2789 H2781 0.950 . S
C2789 C2787 1.327 . S
C2790 C2778 1.349 1_554 S
C2790 H2784 0.950 . S
C2790 C2791 1.327 . S
C2791 H2785 0.950 . S
C2791 C2790 1.327 . S
C2791 C2795 1.429 . S
C2792 C2775 1.574 . S
C2792 H2786 0.949 . S
C2792 C2796 1.368 . S
C2793 C2774 1.429 . S
C2793 C2787 1.429 . S
C2793 C2794 1.523 . S
C2794 C2775 1.368 . S
C2794 C2788 1.368 . S
C2794 C2793 1.523 . S
C2795 C2779 1.429 . S
C2795 C2791 1.429 . S
C2795 C2796 1.523 . S
C2796 C2780 1.368 . S
C2796 C2792 1.368 . S
C2796 C2795 1.523 . S
H2797 C2772 0.950 . S
H2798 C2774 0.950 . S
H2799 C2775 0.949 . S
H2800 C2777 0.950 . S
H2801 C2779 0.950 . S
C2802 C2803 1.349 . S
C2802 C2804 1.327 . S
C2802 H2827 0.950 . S
C2803 C2802 1.349 . S
C2803 C2819 1.349 . S
C2804 C2802 1.327 . S
C2804 C2823 1.429 . S
C2804 H2828 0.950 . S
C2805 C2822 1.574 . S
C2805 C2824 1.368 . S
C2805 H2829 0.949 . S
H2806 C2810 0.949 . S
C2807 C2808 1.349 . S
C2807 C2809 1.327 1_554 S
C2807 H2830 0.950 . S
C2808 C2807 1.349 . S
C2808 C2820 1.349 1_554 S
C2809 C2807 1.327 1_556 S
C2809 C2825 1.429 . S
C2809 H2831 0.945 1_556 S
C2810 H2806 0.949 . S
C2810 C2818 1.574 . S
C2810 C2826 1.368 . S
H2811 C2819 0.950 . S
H2812 C2817 0.950 . S
H2813 C2818 0.949 . S
H2814 C2820 0.950 . S
H2815 C2821 0.950 . S
H2816 C2822 0.949 . S
C2817 H2812 0.950 . S
C2817 C2819 1.327 . S
C2817 C2823 1.429 . S
C2818 C2810 1.574 . S
C2818 H2813 0.949 . S
C2818 C2824 1.368 . S
C2819 C2803 1.349 . S
C2819 H2811 0.950 . S
C2819 C2817 1.327 . S
C2820 C2808 1.349 1_556 S
C2820 H2814 0.950 . S
C2820 C2821 1.327 . S
C2821 H2815 0.950 . S
C2821 C2820 1.327 . S
C2821 C2825 1.429 . S
C2822 C2805 1.574 . S
C2822 H2816 0.949 . S
C2822 C2826 1.368 . S
C2823 C2804 1.429 . S
C2823 C2817 1.429 . S
C2823 C2824 1.523 . S
C2824 C2805 1.368 . S
C2824 C2818 1.368 . S
C2824 C2823 1.523 . S
C2825 C2809 1.429 . S
C2825 C2821 1.429 . S
C2825 C2826 1.523 . S
C2826 C2810 1.368 . S
C2826 C2822 1.368 . S
C2826 C2825 1.523 . S
H2827 C2802 0.950 . S
H2828 C2804 0.950 . S
H2829 C2805 0.949 . S
H2830 C2807 0.950 . S
H2831 C2809 0.945 1_554 S
C2832 C2833 1.349 . S
C2832 C2834 1.327 1_554 S
C2832 H2857 0.950 . S
C2833 C2832 1.349 . S
C2833 C2849 1.349 1_554 S
C2834 C2832 1.327 1_556 S
C2834 C2853 1.429 . S
C2834 H2858 0.947 1_556 S
C2835 C2852 1.574 . S
C2835 C2854 1.368 . S
C2835 H2859 0.949 . S
H2836 C2840 0.949 . S
C2837 C2838 1.349 . S
C2837 C2839 1.327 . S
C2837 H2860 0.950 . S
C2838 C2837 1.349 . S
C2838 C2850 1.349 . S
C2839 C2837 1.327 . S
C2839 C2855 1.429 . S
C2839 H2861 0.950 . S
C2840 H2836 0.949 . S
C2840 C2848 1.574 . S
C2840 C2856 1.368 . S
H2841 C2849 0.950 . S
H2842 C2847 0.950 . S
H2843 C2848 0.949 . S
H2844 C2850 0.950 . S
H2845 C2851 0.950 . S
H2846 C2852 0.949 . S
C2847 H2842 0.950 . S
C2847 C2849 1.327 . S
C2847 C2853 1.429 . S
C2848 C2840 1.574 . S
C2848 H2843 0.949 . S
C2848 C2854 1.368 . S
C2849 C2833 1.349 1_556 S
C2849 H2841 0.950 . S
C2849 C2847 1.327 . S
C2850 C2838 1.349 . S
C2850 H2844 0.950 . S
C2850 C2851 1.327 . S
C2851 H2845 0.950 . S
C2851 C2850 1.327 . S
C2851 C2855 1.429 . S
C2852 C2835 1.574 . S
C2852 H2846 0.949 . S
C2852 C2856 1.368 . S
C2853 C2834 1.429 . S
C2853 C2847 1.429 . S
C2853 C2854 1.523 . S
C2854 C2835 1.368 . S
C2854 C2848 1.368 . S
C2854 C2853 1.523 . S
C2855 C2839 1.429 . S
C2855 C2851 1.429 . S
C2855 C2856 1.523 . S
C2856 C2840 1.368 . S
C2856 C2852 1.368 . S
C2856 C2855 1.523 . S
H2857 C2832 0.950 . S
H2858 C2834 0.947 1_554 S
H2859 C2835 0.949 . S
H2860 C2837 0.950 . S
H2861 C2839 0.950 . S
C2862 C2863 1.349 . S
C2862 C2864 1.327 . S
C2862 H2887 0.950 . S
C2863 C2862 1.349 . S
C2863 C2879 1.349 . S
C2864 C2862 1.327 . S
C2864 C2883 1.429 . S
C2864 H2888 0.950 . S
C2865 C2882 1.574 . S
C2865 C2884 1.368 . S
C2865 H2889 0.949 . S
H2866 C2870 0.949 . S
C2867 C2868 1.349 1_554 S
C2867 C2869 1.327 . S
C2867 H2890 0.950 1_554 S
C2868 C2867 1.349 1_556 S
C2868 C2880 1.349 . S
C2869 C2867 1.327 . S
C2869 C2885 1.429 . S
C2869 H2891 0.950 . S
C2870 H2866 0.949 . S
C2870 C2878 1.574 . S
C2870 C2886 1.368 . S
H2871 C2879 0.950 . S
H2872 C2877 0.950 . S
H2873 C2878 0.949 . S
H2874 C2880 0.950 . S
H2875 C2881 0.950 . S
H2876 C2882 0.949 . S
C2877 H2872 0.950 . S
C2877 C2879 1.327 . S
C2877 C2883 1.429 . S
C2878 C2870 1.574 . S
C2878 H2873 0.949 . S
C2878 C2884 1.368 . S
C2879 C2863 1.349 . S
C2879 H2871 0.950 . S
C2879 C2877 1.327 . S
C2880 C2868 1.349 . S
C2880 H2874 0.950 . S
C2880 C2881 1.327 1_556 S
C2881 H2875 0.950 . S
C2881 C2880 1.327 1_554 S
C2881 C2885 1.429 . S
C2882 C2865 1.574 . S
C2882 H2876 0.949 . S
C2882 C2886 1.368 . S
C2883 C2864 1.429 . S
C2883 C2877 1.429 . S
C2883 C2884 1.523 . S
C2884 C2865 1.368 . S
C2884 C2878 1.368 . S
C2884 C2883 1.523 . S
C2885 C2869 1.429 . S
C2885 C2881 1.429 . S
C2885 C2886 1.523 . S
C2886 C2870 1.368 . S
C2886 C2882 1.368 . S
C2886 C2885 1.523 . S
H2887 C2862 0.950 . S
H2888 C2864 0.950 . S
H2889 C2865 0.949 . S
H2890 C2867 0.950 1_556 S
H2891 C2869 0.950 . S
C2892 C2893 1.349 . S
C2892 C2894 1.327 . S
C2892 H2917 0.950 . S
C2893 C2892 1.349 . S
C2893 C2909 1.349 . S
C2894 C2892 1.327 . S
C2894 C2913 1.429 . S
C2894 H2918 0.950 . S
C2895 C2912 1.574 . S
C2895 C2914 1.368 . S
C2895 H2919 0.949 . S
H2896 C2900 0.949 . S
C2897 C2898 1.349 . S
C2897 C2899 1.327 . S
C2897 H2920 0.950 . S
C2898 C2897 1.349 . S
C2898 C2910 1.349 . S
C2899 C2897 1.327 . S
C2899 C2915 1.429 . S
C2899 H2921 0.950 . S
C2900 H2896 0.949 . S
C2900 C2908 1.574 . S
C2900 C2916 1.368 . S
H2901 C2909 0.950 . S
H2902 C2907 0.950 . S
H2903 C2908 0.949 . S
H2904 C2910 0.950 . S
H2905 C2911 0.950 . S
H2906 C2912 0.949 . S
C2907 H2902 0.950 . S
C2907 C2909 1.327 . S
C2907 C2913 1.429 . S
C2908 C2900 1.574 . S
C2908 H2903 0.949 . S
C2908 C2914 1.368 . S
C2909 C2893 1.349 . S
C2909 H2901 0.950 . S
C2909 C2907 1.327 . S
C2910 C2898 1.349 . S
C2910 H2904 0.950 . S
C2910 C2911 1.327 . S
C2911 H2905 0.950 . S
C2911 C2910 1.327 . S
C2911 C2915 1.429 . S
C2912 C2895 1.574 . S
C2912 H2906 0.949 . S
C2912 C2916 1.368 . S
C2913 C2894 1.429 . S
C2913 C2907 1.429 . S
C2913 C2914 1.523 . S
C2914 C2895 1.368 . S
C2914 C2908 1.368 . S
C2914 C2913 1.523 . S
C2915 C2899 1.429 . S
C2915 C2911 1.429 . S
C2915 C2916 1.523 . S
C2916 C2900 1.368 . S
C2916 C2912 1.368 . S
C2916 C2915 1.523 . S
H2917 C2892 0.950 . S
H2918 C2894 0.950 . S
H2919 C2895 0.949 . S
H2920 C2897 0.950 . S
H2921 C2899 0.950 . S
C2922 C2923 1.349 . S
C2922 C2924 1.327 . S
C2922 H2947 0.950 . S
C2923 C2922 1.349 . S
C2923 C2939 1.349 . S
C2924 C2922 1.327 . S
C2924 C2943 1.429 . S
C2924 H2948 0.950 . S
C2925 C2942 1.574 . S
C2925 C2944 1.368 . S
C2925 H2949 0.949 . S
H2926 C2930 0.949 . S
C2927 C2928 1.349 . S
C2927 C2929 1.327 . S
C2927 H2950 0.950 . S
C2928 C2927 1.349 . S
C2928 C2940 1.349 . S
C2929 C2927 1.327 . S
C2929 C2945 1.429 . S
C2929 H2951 0.950 . S
C2930 H2926 0.949 . S
C2930 C2938 1.574 . S
C2930 C2946 1.368 . S
H2931 C2939 0.950 . S
H2932 C2937 0.950 . S
H2933 C2938 0.949 . S
H2934 C2940 0.950 . S
H2935 C2941 0.950 . S
H2936 C2942 0.949 . S
C2937 H2932 0.950 . S
C2937 C2939 1.327 . S
C2937 C2943 1.429 . S
C2938 C2930 1.574 . S
C2938 H2933 0.949 . S
C2938 C2944 1.368 . S
C2939 C2923 1.349 . S
C2939 H2931 0.950 . S
C2939 C2937 1.327 . S
C2940 C2928 1.349 . S
C2940 H2934 0.950 . S
C2940 C2941 1.327 . S
C2941 H2935 0.950 . S
C2941 C2940 1.327 . S
C2941 C2945 1.429 . S
C2942 C2925 1.574 . S
C2942 H2936 0.949 . S
C2942 C2946 1.368 . S
C2943 C2924 1.429 . S
C2943 C2937 1.429 . S
C2943 C2944 1.523 . S
C2944 C2925 1.368 . S
C2944 C2938 1.368 . S
C2944 C2943 1.523 . S
C2945 C2929 1.429 . S
C2945 C2941 1.429 . S
C2945 C2946 1.523 . S
C2946 C2930 1.368 . S
C2946 C2942 1.368 . S
C2946 C2945 1.523 . S
H2947 C2922 0.950 . S
H2948 C2924 0.950 . S
H2949 C2925 0.949 . S
H2950 C2927 0.950 . S
H2951 C2929 0.950 . S
C2952 C2953 1.349 . S
C2952 C2954 1.327 . S
C2952 H2977 0.950 . S
C2953 C2952 1.349 . S
C2953 C2969 1.349 . S
C2954 C2952 1.327 . S
C2954 C2973 1.429 . S
C2954 H2978 0.950 . S
C2955 C2972 1.574 . S
C2955 C2974 1.368 . S
C2955 H2979 0.949 . S
H2956 C2960 0.949 . S
C2957 C2958 1.349 1_554 S
C2957 C2959 1.327 . S
C2957 H2980 0.950 . S
C2958 C2957 1.349 1_556 S
C2958 C2970 1.349 . S
C2959 C2957 1.327 . S
C2959 C2975 1.429 . S
C2959 H2981 0.950 . S
C2960 H2956 0.949 . S
C2960 C2968 1.574 . S
C2960 C2976 1.368 . S
H2961 C2969 0.950 . S
H2962 C2967 0.950 . S
H2963 C2968 0.949 . S
H2964 C2970 0.950 . S
H2965 C2971 0.950 . S
H2966 C2972 0.949 . S
C2967 H2962 0.950 . S
C2967 C2969 1.327 . S
C2967 C2973 1.429 . S
C2968 C2960 1.574 . S
C2968 H2963 0.949 . S
C2968 C2974 1.368 . S
C2969 C2953 1.349 . S
C2969 H2961 0.950 . S
C2969 C2967 1.327 . S
C2970 C2958 1.349 . S
C2970 H2964 0.950 . S
C2970 C2971 1.327 1_556 S
C2971 H2965 0.950 . S
C2971 C2970 1.327 1_554 S
C2971 C2975 1.429 . S
C2972 C2955 1.574 . S
C2972 H2966 0.949 . S
C2972 C2976 1.368 . S
C2973 C2954 1.429 . S
C2973 C2967 1.429 . S
C2973 C2974 1.523 . S
C2974 C2955 1.368 . S
C2974 C2968 1.368 . S
C2974 C2973 1.523 . S
C2975 C2959 1.429 . S
C2975 C2971 1.429 . S
C2975 C2976 1.523 . S
C2976 C2960 1.368 . S
C2976 C2972 1.368 . S
C2976 C2975 1.523 . S
H2977 C2952 0.950 . S
H2978 C2954 0.950 . S
H2979 C2955 0.949 . S
H2980 C2957 0.950 . S
H2981 C2959 0.950 . S
C2982 C2983 1.349 . S
C2982 C2984 1.327 1_554 S
C2982 H3007 0.950 . S
C2983 C2982 1.349 . S
C2983 C2999 1.349 . S
C2984 C2982 1.327 1_556 S
C2984 C3003 1.429 . S
C2984 H3008 0.950 . S
C2985 C3002 1.574 . S
C2985 C3004 1.368 . S
C2985 H3009 0.949 . S
H2986 C2990 0.949 . S
C2987 C2988 1.349 . S
C2987 C2989 1.327 . S
C2987 H3010 0.950 . S
C2988 C2987 1.349 . S
C2988 C3000 1.349 . S
C2989 C2987 1.327 . S
C2989 C3005 1.429 . S
C2989 H3011 0.950 . S
C2990 H2986 0.949 . S
C2990 C2998 1.574 . S
C2990 C3006 1.368 . S
H2991 C2999 0.950 . S
H2992 C2997 0.950 . S
H2993 C2998 0.949 . S
H2994 C3000 0.950 . S
H2995 C3001 0.950 . S
H2996 C3002 0.949 . S
C2997 H2992 0.950 . S
C2997 C2999 1.327 1_556 S
C2997 C3003 1.429 . S
C2998 C2990 1.574 . S
C2998 H2993 0.949 . S
C2998 C3004 1.368 . S
C2999 C2983 1.349 . S
C2999 H2991 0.950 . S
C2999 C2997 1.327 1_554 S
C3000 C2988 1.349 . S
C3000 H2994 0.950 . S
C3000 C3001 1.327 . S
C3001 H2995 0.950 . S
C3001 C3000 1.327 . S
C3001 C3005 1.429 . S
C3002 C2985 1.574 . S
C3002 H2996 0.949 . S
C3002 C3006 1.368 . S
C3003 C2984 1.429 . S
C3003 C2997 1.429 . S
C3003 C3004 1.523 . S
C3004 C2985 1.368 . S
C3004 C2998 1.368 . S
C3004 C3003 1.523 . S
C3005 C2989 1.429 . S
C3005 C3001 1.429 . S
C3005 C3006 1.523 . S
C3006 C2990 1.368 . S
C3006 C3002 1.368 . S
C3006 C3005 1.523 . S
H3007 C2982 0.950 . S
H3008 C2984 0.950 . S
H3009 C2985 0.949 . S
H3010 C2987 0.950 . S
H3011 C2989 0.950 . S
C3012 C3013 1.349 . S
C3012 C3014 1.327 . S
C3012 H3037 0.950 . S
C3013 C3012 1.349 . S
C3013 C3029 1.349 . S
C3014 C3012 1.327 . S
C3014 C3033 1.429 . S
C3014 H3038 0.950 . S
C3015 C3032 1.574 . S
C3015 C3034 1.368 . S
C3015 H3039 0.949 . S
H3016 C3020 0.949 . S
C3017 C3018 1.349 . S
C3017 C3019 1.327 . S
C3017 H3040 0.950 . S
C3018 C3017 1.349 . S
C3018 C3030 1.349 . S
C3019 C3017 1.327 . S
C3019 C3035 1.429 . S
C3019 H3041 0.950 . S
C3020 H3016 0.949 . S
C3020 C3028 1.574 . S
C3020 C3036 1.368 . S
H3021 C3029 0.950 . S
H3022 C3027 0.950 . S
H3023 C3028 0.949 . S
H3024 C3030 0.950 . S
H3025 C3031 0.950 . S
H3026 C3032 0.949 . S
C3027 H3022 0.950 . S
C3027 C3029 1.327 . S
C3027 C3033 1.429 . S
C3028 C3020 1.574 . S
C3028 H3023 0.949 . S
C3028 C3034 1.368 . S
C3029 C3013 1.349 . S
C3029 H3021 0.950 . S
C3029 C3027 1.327 . S
C3030 C3018 1.349 . S
C3030 H3024 0.950 . S
C3030 C3031 1.327 . S
C3031 H3025 0.950 . S
C3031 C3030 1.327 . S
C3031 C3035 1.429 . S
C3032 C3015 1.574 . S
C3032 H3026 0.949 . S
C3032 C3036 1.368 . S
C3033 C3014 1.429 . S
C3033 C3027 1.429 . S
C3033 C3034 1.523 . S
C3034 C3015 1.368 . S
C3034 C3028 1.368 . S
C3034 C3033 1.523 . S
C3035 C3019 1.429 . S
C3035 C3031 1.429 . S
C3035 C3036 1.523 . S
C3036 C3020 1.368 . S
C3036 C3032 1.368 . S
C3036 C3035 1.523 . S
H3037 C3012 0.950 . S
H3038 C3014 0.950 . S
H3039 C3015 0.949 . S
H3040 C3017 0.950 . S
H3041 C3019 0.950 . S
C3042 C3043 1.349 . S
C3042 C3044 1.327 . S
C3042 H3067 0.950 . S
C3043 C3042 1.349 . S
C3043 C3059 1.349 . S
C3044 C3042 1.327 . S
C3044 C3063 1.429 . S
C3044 H3068 0.950 . S
C3045 C3062 1.574 . S
C3045 C3064 1.368 . S
C3045 H3069 0.949 . S
H3046 C3050 0.949 . S
C3047 C3048 1.349 . S
C3047 C3049 1.327 . S
C3047 H3070 0.950 . S
C3048 C3047 1.349 . S
C3048 C3060 1.349 . S
C3049 C3047 1.327 . S
C3049 C3065 1.429 . S
C3049 H3071 0.950 . S
C3050 H3046 0.949 . S
C3050 C3058 1.574 . S
C3050 C3066 1.368 . S
H3051 C3059 0.950 . S
H3052 C3057 0.950 . S
H3053 C3058 0.949 . S
H3054 C3060 0.950 . S
H3055 C3061 0.950 . S
H3056 C3062 0.949 . S
C3057 H3052 0.950 . S
C3057 C3059 1.327 . S
C3057 C3063 1.429 . S
C3058 C3050 1.574 . S
C3058 H3053 0.949 . S
C3058 C3064 1.368 . S
C3059 C3043 1.349 . S
C3059 H3051 0.950 . S
C3059 C3057 1.327 . S
C3060 C3048 1.349 . S
C3060 H3054 0.950 . S
C3060 C3061 1.327 . S
C3061 H3055 0.950 . S
C3061 C3060 1.327 . S
C3061 C3065 1.429 . S
C3062 C3045 1.574 . S
C3062 H3056 0.949 . S
C3062 C3066 1.368 . S
C3063 C3044 1.429 . S
C3063 C3057 1.429 . S
C3063 C3064 1.523 . S
C3064 C3045 1.368 . S
C3064 C3058 1.368 . S
C3064 C3063 1.523 . S
C3065 C3049 1.429 . S
C3065 C3061 1.429 . S
C3065 C3066 1.523 . S
C3066 C3050 1.368 . S
C3066 C3062 1.368 . S
C3066 C3065 1.523 . S
H3067 C3042 0.950 . S
H3068 C3044 0.950 . S
H3069 C3045 0.949 . S
H3070 C3047 0.950 . S
H3071 C3049 0.950 . S
C1153 C220 1.489 . S
C1158 C4 1.489 . S
C1183 C40 1.489 . S
C1188 C256 1.489 . S
C1213 C148 1.489 . S
C1218 C76 1.489 . S
C1243 C112 1.489 . S
C1248 C184 1.489 . S
C1273 C292 1.489 . S
C1278 C508 1.489 . S
C1303 C544 1.489 . S
C1308 C328 1.489 . S
C1333 C364 1.489 . S
C1338 C436 1.489 . S
C1363 C472 1.489 . S
C1368 C400 1.489 . S
C1393 C580 1.489 . S
C1398 C796 1.489 . S
C1423 C616 1.489 . S
C1428 C832 1.489 . S
C1453 C724 1.489 . S
C1458 C652 1.489 . S
C1483 C760 1.489 . S
C1488 C688 1.489 . S
C1513 C868 1.489 . S
C1518 C1084 1.489 . S
C1543 C904 1.489 . S
C1548 C1120 1.489 . S
C1573 C1012 1.489 . S
C1578 C940 1.489 . S
C1603 C976 1.489 . S
C1608 C1048 1.489 . S
C1633 C3 1.469 . S
C1638 C255 1.469 . S
C1663 C147 1.469 . S
C1668 C39 1.469 . S
C1693 C183 1.469 . S
C1698 C75 1.469 . S
C1723 C111 1.469 . S
C1728 C219 1.469 . S
C1753 C291 1.469 . S
C1758 C543 1.469 . S
C1783 C435 1.469 . S
C1788 C327 1.469 . S
C1813 C471 1.469 . S
C1818 C363 1.469 . S
C1843 C507 1.469 . S
C1848 C399 1.469 . S
C1873 C579 1.469 . S
C1878 C831 1.469 . S
C1903 C615 1.469 . S
C1908 C723 1.469 . S
C1933 C759 1.469 . S
C1938 C651 1.469 . S
C1963 C687 1.469 . S
C1968 C795 1.469 . S
C1993 C867 1.469 . S
C1998 C1119 1.469 . S
C2023 C1011 1.469 . S
C2028 C903 1.469 . S
C2053 C939 1.469 . S
C2058 C1047 1.469 . S
C2083 C975 1.469 . S
C2088 C1083 1.469 . S
C2113 C1094 1.348 . S
C2118 C14 1.348 . S
C2143 C554 1.348 . S
C2148 C50 1.348 . S
C2173 C86 1.347 . S
C2178 C1022 1.347 . S
C2203 C122 1.347 . S
C2208 C482 1.347 . S
C2233 C158 1.347 . S
C2238 C950 1.347 . S
C2263 C194 1.347 . S
C2268 C410 1.347 . S
C2293 C230 1.348 . S
C2298 C878 1.348 . S
C2323 C338 1.348 . S
C2328 C266 1.348 . S
C2353 C806 1.348 . S
C2358 C302 1.348 . S
C2383 C374 1.347 . S
C2388 C734 1.347 . S
C2413 C662 1.347 . S
C2418 C446 1.347 . S
C2443 C590 1.348 . S
C2448 C518 1.348 . S
C2473 C626 1.348 . S
C2478 C1130 1.348 . S
C2503 C698 1.347 . S
C2508 C1058 1.347 . S
C2533 C770 1.347 . S
C2538 C986 1.347 . S
C2563 C914 1.348 . S
C2568 C842 1.348 . S
C2593 C2 1.323 . S
C2598 C254 1.323 . S
C2623 C38 1.323 . S
C2628 C146 1.323 . S
C2653 C182 1.323 . S
C2658 C74 1.323 . S
C2683 C110 1.323 . S
C2688 C218 1.323 . S
C2713 C542 1.323 . S
C2718 C290 1.323 . S
C2743 C434 1.323 . S
C2748 C326 1.323 . S
C2773 C362 1.323 . S
C2778 C470 1.323 . S
C2803 C506 1.323 . S
C2808 C398 1.323 . S
C2833 C830 1.323 . S
C2838 C578 1.323 . S
C2863 C722 1.323 . S
C2868 C614 1.323 . S
C2893 C758 1.323 . S
C2898 C650 1.323 . S
C2923 C794 1.323 . S
C2928 C686 1.323 . S
C2953 C866 1.323 . S
C2958 C1118 1.323 . S
C2983 C902 1.323 . S
C2988 C1010 1.323 . S
C3013 C938 1.323 . S
C3018 C1046 1.323 . S
C3043 C1082 1.323 . S
C3048 C974 1.323 . S
