# Generated by pormake.
# Topology upc, (4)-cn, num edge types: 1
# Building blocks:
#     Node 0, Type 0, BuildingBlock: MUDLON_clean_sbu_0, # of connection points: 4
#     Node 1, Type 0, BuildingBlock: MUDLON_clean_sbu_0, # of connection points: 4
#     Node 2, Type 0, BuildingBlock: MUDLON_clean_sbu_0, # of connection points: 4
#     Node 3, Type 0, BuildingBlock: MUDLON_clean_sbu_0, # of connection points: 4
#     Node 4, Type 0, BuildingBlock: MUDLON_clean_sbu_0, # of connection points: 4
#     Node 5, Type 0, BuildingBlock: MUDLON_clean_sbu_0, # of connection points: 4
#     Node 6, Type 0, BuildingBlock: MUDLON_clean_sbu_0, # of connection points: 4
#     Node 7, Type 0, BuildingBlock: MUDLON_clean_sbu_0, # of connection points: 4
#     Node 8, Type 0, BuildingBlock: MUDLON_clean_sbu_0, # of connection points: 4
#     Node 9, Type 0, BuildingBlock: MUDLON_clean_sbu_0, # of connection points: 4
#     Node 10, Type 0, BuildingBlock: MUDLON_clean_sbu_0, # of connection points: 4
#     Node 11, Type 0, BuildingBlock: MUDLON_clean_sbu_0, # of connection points: 4
#     Node 12, Type 0, BuildingBlock: MUDLON_clean_sbu_0, # of connection points: 4
#     Node 13, Type 0, BuildingBlock: MUDLON_clean_sbu_0, # of connection points: 4
#     Node 14, Type 0, BuildingBlock: MUDLON_clean_sbu_0, # of connection points: 4
#     Node 15, Type 0, BuildingBlock: MUDLON_clean_sbu_0, # of connection points: 4
#     Edge 16, Type (0, 0), BuildingBlock: ZUJKAS_clean_linker_0, # of connection points: 2
#     Edge 17, Type (0, 0), BuildingBlock: ZUJKAS_clean_linker_0, # of connection points: 2
#     Edge 18, Type (0, 0), BuildingBlock: ZUJKAS_clean_linker_0, # of connection points: 2
#     Edge 19, Type (0, 0), BuildingBlock: ZUJKAS_clean_linker_0, # of connection points: 2
#     Edge 20, Type (0, 0), BuildingBlock: ZUJKAS_clean_linker_0, # of connection points: 2
#     Edge 21, Type (0, 0), BuildingBlock: ZUJKAS_clean_linker_0, # of connection points: 2
#     Edge 22, Type (0, 0), BuildingBlock: ZUJKAS_clean_linker_0, # of connection points: 2
#     Edge 23, Type (0, 0), BuildingBlock: ZUJKAS_clean_linker_0, # of connection points: 2
#     Edge 24, Type (0, 0), BuildingBlock: ZUJKAS_clean_linker_0, # of connection points: 2
#     Edge 25, Type (0, 0), BuildingBlock: ZUJKAS_clean_linker_0, # of connection points: 2
#     Edge 26, Type (0, 0), BuildingBlock: ZUJKAS_clean_linker_0, # of connection points: 2
#     Edge 27, Type (0, 0), BuildingBlock: ZUJKAS_clean_linker_0, # of connection points: 2
#     Edge 28, Type (0, 0), BuildingBlock: ZUJKAS_clean_linker_0, # of connection points: 2
#     Edge 29, Type (0, 0), BuildingBlock: ZUJKAS_clean_linker_0, # of connection points: 2
#     Edge 30, Type (0, 0), BuildingBlock: ZUJKAS_clean_linker_0, # of connection points: 2
#     Edge 31, Type (0, 0), BuildingBlock: ZUJKAS_clean_linker_0, # of connection points: 2
#     Edge 32, Type (0, 0), BuildingBlock: ZUJKAS_clean_linker_0, # of connection points: 2
#     Edge 33, Type (0, 0), BuildingBlock: ZUJKAS_clean_linker_0, # of connection points: 2
#     Edge 34, Type (0, 0), BuildingBlock: ZUJKAS_clean_linker_0, # of connection points: 2
#     Edge 35, Type (0, 0), BuildingBlock: ZUJKAS_clean_linker_0, # of connection points: 2
#     Edge 36, Type (0, 0), BuildingBlock: ZUJKAS_clean_linker_0, # of connection points: 2
#     Edge 37, Type (0, 0), BuildingBlock: ZUJKAS_clean_linker_0, # of connection points: 2
#     Edge 38, Type (0, 0), BuildingBlock: ZUJKAS_clean_linker_0, # of connection points: 2
#     Edge 39, Type (0, 0), BuildingBlock: ZUJKAS_clean_linker_0, # of connection points: 2
#     Edge 40, Type (0, 0), BuildingBlock: ZUJKAS_clean_linker_0, # of connection points: 2
#     Edge 41, Type (0, 0), BuildingBlock: ZUJKAS_clean_linker_0, # of connection points: 2
#     Edge 42, Type (0, 0), BuildingBlock: ZUJKAS_clean_linker_0, # of connection points: 2
#     Edge 43, Type (0, 0), BuildingBlock: ZUJKAS_clean_linker_0, # of connection points: 2
#     Edge 44, Type (0, 0), BuildingBlock: ZUJKAS_clean_linker_0, # of connection points: 2
#     Edge 45, Type (0, 0), BuildingBlock: ZUJKAS_clean_linker_0, # of connection points: 2
#     Edge 46, Type (0, 0), BuildingBlock: ZUJKAS_clean_linker_0, # of connection points: 2
#     Edge 47, Type (0, 0), BuildingBlock: ZUJKAS_clean_linker_0, # of connection points: 2
# Relax obj value: 0.273
# Max RMSD: 0.206
# Mean RMSD: 0.206
data_MOF--net-upc--node1-MUDLON_clean_sbu_0--edge1-ZUJKAS_clean_linker_0
_symmetry_space_group_name_H-M    P1
_symmetry_Int_Tables_number       1
_symmetry_cell_setting            triclinic
loop_
_symmetry_equiv_pos_as_xyz
'x, y, z'
_cell_length_a     46.095534
_cell_length_b     46.231723
_cell_length_c     56.175451
_cell_angle_alpha  90.452051
_cell_angle_beta   90.232906
_cell_angle_gamma 89.974154
loop_
_atom_site_label
_atom_site_type_symbol
_atom_site_fract_x
_atom_site_fract_y
_atom_site_fract_z
_atom_type_partial_charge
Mg0 Mg 0.06829 0.68533 0.13437 0.0
C1 C 0.02228 0.66108 0.16373 0.0
O2 O 1.00919 0.66707 0.14355 0.0
C3 C 0.12255 0.71957 0.12688 0.0
O4 O 0.10425 0.73273 0.1126 0.0
C5 C 0.04342 0.65091 0.09223 0.0
O6 O 0.02465 0.6723 0.09264 0.0
O7 O 0.06447 0.65127 0.10701 0.0
O8 O 0.04901 0.6673 0.16603 0.0
O9 O 0.0426 0.7227 0.12382 0.0
C10 C 0.03061 0.74317 0.13556 0.0
O11 O 0.01501 0.76202 0.12368 0.0
O12 O 0.11361 0.69811 0.13885 0.0
Mg13 Mg 0.84309 0.06083 0.13524 0.0
C14 C 0.86023 0.01603 0.16981 0.0
O15 O 0.84814 1.00062 0.15271 0.0
C16 C 0.80732 0.11462 0.12875 0.0
O17 O 0.79141 0.09533 0.11742 0.0
C18 C 0.8772 0.03197 0.09473 0.0
O19 O 0.85685 0.0124 0.09747 0.0
O20 O 0.87654 0.05474 0.10767 0.0
O21 O 0.86107 0.04338 0.1678 0.0
O22 O 0.80453 0.03583 0.12579 0.0
C23 C 0.78399 0.02475 0.13786 0.0
O24 O 0.76429 1.00956 0.12632 0.0
O25 O 0.831 0.10651 0.13836 0.0
Mg26 Mg 0.47297 0.85329 0.12867 0.0
C27 C 0.48986 0.90145 0.16201 0.0
O28 O 0.48001 0.91675 0.14411 0.0
C29 C 0.42033 0.81425 0.12635 0.0
O30 O 0.44036 0.79619 0.1188 0.0
C31 C 0.50314 0.89404 0.09358 0.0
O32 O 0.52582 0.88473 0.10552 0.0
O33 O 0.47815 0.88427 0.09901 0.0
O34 O 0.48849 0.87404 0.16086 0.0
O35 O 0.5002 0.81541 0.12234 0.0
C36 C 0.51159 0.79528 0.13473 0.0
O37 O 0.52806 0.77642 0.12352 0.0
O38 O 0.42766 0.84 0.13186 0.0
Mg39 Mg 0.67565 0.46548 0.12695 0.0
C40 C 0.66153 0.5112 0.16216 0.0
O41 O 0.67418 0.52605 0.14529 0.0
C42 C 0.71146 0.41132 0.12207 0.0
O43 O 0.72758 0.42999 0.11061 0.0
C44 C 0.63732 0.49533 0.08942 0.0
O45 O 0.65419 0.51713 0.09536 0.0
O46 O 0.64164 0.47092 0.09929 0.0
O47 O 0.65896 0.48398 0.15963 0.0
O48 O 0.71466 0.48961 0.11762 0.0
C49 C 0.73587 0.50058 0.1293 0.0
O50 O 0.75548 0.51494 0.11727 0.0
O51 O 0.68756 0.4199 0.13097 0.0
Mg52 Mg 0.07486 0.86314 0.38444 0.0
C53 C 0.0265 0.87578 0.35185 0.0
O54 O 1.01333 0.86675 0.37112 0.0
C55 C 0.13223 0.83839 0.39818 0.0
O56 O 0.11767 0.83674 0.41818 0.0
C57 C 0.06513 0.89708 0.43126 0.0
O58 O 0.06483 0.87095 0.4403 0.0
O59 O 0.06971 0.89995 0.40906 0.0
O60 O 0.05407 0.87634 0.35161 0.0
O61 O 0.05151 0.8258 0.39803 0.0
C62 C 0.03981 0.80421 0.38744 0.0
O63 O 0.02565 0.78542 0.40041 0.0
O64 O 0.12008 0.85005 0.38028 0.0
Mg65 Mg 0.67054 0.06885 0.39197 0.0
C66 C 0.6557 0.02817 0.35169 0.0
O67 O 0.66995 1.01033 0.36556 0.0
C68 C 0.7097 0.12082 0.39806 0.0
O69 O 0.72563 0.10079 0.40818 0.0
C70 C 0.61906 0.04212 0.41789 0.0
O71 O 0.62236 0.02339 0.40042 0.0
O72 O 0.63627 0.0637 0.41913 0.0
O73 O 0.65274 0.05442 0.35814 0.0
O74 O 0.70787 0.04213 0.40156 0.0
C75 C 0.72892 0.0305 0.39028 0.0
O76 O 0.74734 0.01471 0.4025 0.0
O77 O 0.68488 0.1139 0.38977 0.0
Mg78 Mg 0.46646 0.67002 0.3866 0.0
C79 C 0.51283 0.65777 0.3513 0.0
O80 O 0.52732 0.67213 0.36773 0.0
C81 C 0.40778 0.69268 0.39941 0.0
O82 O 0.4211 0.69339 0.42014 0.0
C83 C 0.49248 0.61983 0.41551 0.0
O84 O 0.51227 0.62201 0.39887 0.0
O85 O 0.47084 0.63708 0.41502 0.0
O86 O 0.48586 0.6534 0.35422 0.0
O87 O 0.48924 0.70964 0.39676 0.0
C88 C 0.49976 0.73119 0.3856 0.0
O89 O 0.51328 0.75113 0.39821 0.0
O90 O 0.42126 0.68253 0.38149 0.0
Mg91 Mg 0.85775 0.46449 0.38355 0.0
C92 C 0.87693 0.5086 0.34992 0.0
O93 O 0.8689 0.52377 0.36864 0.0
C94 C 0.81996 0.41246 0.39108 0.0
O95 O 0.8057 0.43241 0.40301 0.0
C96 C 0.89518 0.49188 0.42352 0.0
O97 O 0.87636 0.51294 0.42072 0.0
O98 O 0.89236 0.46899 0.41086 0.0
O99 O 0.87471 0.48122 0.35053 0.0
O100 O 0.82045 0.49128 0.3929 0.0
C101 C 0.80006 0.50333 0.38111 0.0
O102 O 0.78146 0.51937 0.393 0.0
O103 O 0.84338 0.41949 0.38066 0.0
Mg104 Mg 0.96366 0.36773 0.89832 0.0
C105 C 1.00539 0.31219 0.89702 0.0
O106 O 0.02212 0.29466 0.90924 0.0
C107 C 0.9904 0.40512 0.93736 0.0
O108 O 1.01149 0.38641 0.93405 0.0
C109 C 0.91343 0.32569 0.89969 0.0
O110 O 0.93465 0.30874 0.90663 0.0
O111 O 0.91903 0.352 0.89496 0.0
O112 O 0.99218 0.33217 0.90845 0.0
O113 O 0.97947 0.38643 0.86564 0.0
C114 C 1.00683 0.388 0.86331 0.0
O115 O 0.02355 0.37778 0.88027 0.0
O116 O 0.9671 0.40221 0.92529 0.0
Mg117 Mg 0.146 0.95055 0.88808 0.0
C118 C 0.19465 0.99872 0.88073 0.0
O119 O 0.21074 0.01912 0.89044 0.0
C120 C 0.11246 0.97492 0.93061 0.0
O121 O 0.13256 0.99488 0.92856 0.0
C122 C 0.18328 0.89999 0.90337 0.0
O123 O 0.18587 0.91661 0.92234 0.0
O124 O 0.16726 0.9084 0.88627 0.0
O125 O 0.17841 0.98399 0.89439 0.0
O126 O 0.12405 0.96023 0.85504 0.0
C127 C 0.10784 0.98244 0.85533 0.0
O128 O 0.10574 0.99762 0.87512 0.0
O129 O 0.11309 0.95316 0.91652 0.0
Mg130 Mg 0.5776 0.15993 0.8834 0.0
C131 C 0.5327 0.2142 0.87646 0.0
O132 O 0.51411 0.23056 0.88807 0.0
C133 C 0.54685 0.11707 0.91655 0.0
O134 O 0.52427 0.12679 0.90471 0.0
C135 C 0.62537 0.2052 0.88656 0.0
O136 O 0.60272 0.22242 0.88725 0.0
O137 O 0.62139 0.17799 0.8851 0.0
O138 O 0.54594 0.19473 0.88835 0.0
O139 O 0.57089 0.13841 0.8495 0.0
C140 C 0.54562 0.13829 0.84042 0.0
O141 O 0.52444 0.15134 0.8518 0.0
O142 O 0.57186 0.12722 0.91166 0.0
Mg143 Mg 0.36158 0.57172 0.88558 0.0
C144 C 0.30173 0.53538 0.88371 0.0
O145 O 0.28306 0.52046 0.89627 0.0
C146 C 0.39974 0.54334 0.92378 0.0
O147 O 0.38319 0.52128 0.91785 0.0
C148 C 0.34085 0.63093 0.90018 0.0
O149 O 0.34499 0.61908 0.92111 0.0
O150 O 0.34712 0.61639 0.88158 0.0
O151 O 0.32332 0.54648 0.89481 0.0
O152 O 0.38004 0.55379 0.85331 0.0
C153 C 0.37889 0.52645 0.85098 0.0
O154 O 0.36585 0.51127 0.86745 0.0
O155 O 0.39524 0.56759 0.91369 0.0
Mg156 Mg 0.94757 0.1551 0.62987 0.0
C157 C 0.98443 0.18738 0.66618 0.0
O158 O 0.99613 0.16156 0.66795 0.0
C159 C 0.95687 0.12591 0.58229 0.0
O160 O 0.9284 0.12619 0.58342 0.0
C161 C 0.89814 0.19315 0.61568 0.0
O162 O 0.92029 0.21077 0.61333 0.0
O163 O 0.90297 0.16711 0.62169 0.0
O164 O 0.96567 0.19175 0.6499 0.0
O165 O 0.94852 0.12078 0.65592 0.0
C166 C 0.96316 0.09785 0.65232 0.0
O167 O 0.97492 0.09346 0.63135 0.0
O168 O 0.97125 0.13875 0.59866 0.0
Mg169 Mg 0.37221 0.94188 0.62946 0.0
C170 C 0.31618 0.97506 0.65035 0.0
O171 O 0.32444 0.99905 0.63999 0.0
C172 C 0.40171 0.98398 0.59595 0.0
O173 O 0.40519 0.99772 0.61631 0.0
C174 C 0.3527 0.88602 0.60781 0.0
O175 O 0.34353 0.90462 0.59188 0.0
O176 O 0.36792 0.89527 0.6252 0.0
O177 O 0.33073 0.95195 0.64709 0.0
O178 O 0.40637 0.95308 0.65496 0.0
C179 C 0.40101 0.97473 0.66833 0.0
O180 O 0.37564 0.98735 0.66655 0.0
O181 O 0.38616 0.96114 0.59552 0.0
Mg182 Mg 0.55864 0.35034 0.6249 0.0
C183 C 0.5219 0.29077 0.62904 0.0
O184 O 0.50518 0.27247 0.61736 0.0
C185 C 0.53117 0.39964 0.59589 0.0
O186 O 0.51169 0.39731 0.61277 0.0
C187 C 0.61037 0.31467 0.61236 0.0
O188 O 0.59047 0.30399 0.59797 0.0
O189 O 0.60352 0.33548 0.6262 0.0
O190 O 0.53169 0.3124 0.61754 0.0
O191 O 0.54484 0.37005 0.6581 0.0
C192 C 0.51842 0.36702 0.66397 0.0
O193 O 0.50127 0.35148 0.65021 0.0
O194 O 0.55306 0.3827 0.59623 0.0
Mg195 Mg 0.17117 0.56106 0.62969 0.0
C196 C 0.2275 0.5203 0.63499 0.0
O197 O 0.24508 0.50224 0.62405 0.0
C198 C 0.13325 0.5334 0.59038 0.0
O199 O 0.14978 0.5111 0.59545 0.0
C200 C 0.1969 0.61665 0.61221 0.0
O201 O 0.19215 0.60311 0.59191 0.0
O202 O 0.18917 0.6046 0.63144 0.0
O203 O 0.20726 0.53176 0.62263 0.0
O204 O 0.15113 0.54799 0.66263 0.0
C205 C 0.14965 0.5209 0.66605 0.0
O206 O 0.16068 0.50326 0.65003 0.0
O207 O 0.13767 0.55722 0.60143 0.0
H208 H 0.16697 0.69698 0.15374 0.0
H209 H 0.21754 0.71332 0.15539 0.0
H210 H 0.19762 0.78119 0.1057 0.0
H211 H 0.14733 0.76487 0.1037 0.0
H212 H 0.2467 0.75041 0.09357 0.0
H213 H 0.25125 0.78539 0.1883 0.0
H214 H 0.23889 0.74893 0.18362 0.0
H215 H 0.21748 0.7786 0.17284 0.0
C216 C 0.17333 0.71547 0.14327 0.0
C217 C 0.15307 0.72961 0.1286 0.0
C218 C 0.2022 0.7249 0.14434 0.0
C219 C 0.21128 0.74872 0.13089 0.0
C220 C 0.19108 0.76284 0.11629 0.0
H221 H 0.37274 0.84612 0.13978 0.0
H222 H 0.32207 0.83009 0.14115 0.0
C223 C 0.1623 0.75346 0.11519 0.0
C224 C 0.24202 0.75835 0.13117 0.0
H225 H 0.29578 0.78511 0.16718 0.0
C226 C 0.25742 0.75801 0.10966 0.0
C227 C 0.25587 0.76861 0.15213 0.0
C228 C 0.24001 0.77071 0.17552 0.0
C229 C 0.28636 0.76735 0.10856 0.0
C230 C 0.30046 0.77688 0.12962 0.0
C231 C 0.28499 0.77757 0.1511 0.0
C232 C 0.33126 0.78629 0.1296 0.0
C233 C 0.3014 0.76743 0.08475 0.0
C234 C 0.35327 0.76686 0.12307 0.0
C235 C 0.38215 0.77594 0.1222 0.0
C236 C 0.3897 0.80464 0.128 0.0
C237 C 0.36767 0.82391 0.1351 0.0
C238 C 0.33872 0.81478 0.13594 0.0
H239 H 0.28564 0.76674 0.06974 0.0
H240 H 0.31524 0.78693 0.08286 0.0
H241 H 0.31552 0.74805 0.0833 0.0
H242 H 0.34807 0.74463 0.11856 0.0
H243 H 0.39855 0.76044 0.11686 0.0
H244 H 0.75732 0.13746 0.11079 0.0
H245 H 0.74164 0.18786 0.11142 0.0
H246 H 0.81945 0.21188 0.14952 0.0
H247 H 0.8353 0.16118 0.14924 0.0
H248 H 0.76827 0.2379 0.1677 0.0
H249 H 0.77677 0.2514 0.06994 0.0
H250 H 0.7548 0.22124 0.07862 0.0
H251 H 0.79297 0.22131 0.08537 0.0
C252 C 0.77119 0.15339 0.11933 0.0
C253 C 0.79773 0.14526 0.1298 0.0
C254 C 0.76219 0.18225 0.11958 0.0
C255 C 0.77958 0.2037 0.13015 0.0
C256 C 0.80577 0.19567 0.14114 0.0
H257 H 0.76218 0.38782 0.10623 0.0
H258 H 0.77876 0.33792 0.10964 0.0
C259 C 0.81482 0.1667 0.14092 0.0
C260 C 0.7704 0.2345 0.12951 0.0
H261 H 0.75334 0.28915 0.09136 0.0
C262 C 0.7651 0.24918 0.15104 0.0
C263 C 0.76658 0.24927 0.10775 0.0
C264 C 0.77332 0.23513 0.0841 0.0
C265 C 0.75557 0.27811 0.15135 0.0
C266 C 0.75086 0.29256 0.12955 0.0
C267 C 0.75664 0.27798 0.10806 0.0
C268 C 0.74081 0.32309 0.12848 0.0
C269 C 0.75113 0.29309 0.17501 0.0
C270 C 0.71381 0.33142 0.13786 0.0
C271 C 0.70422 0.3601 0.13597 0.0
C272 C 0.72137 0.38091 0.12451 0.0
C273 C 0.74836 0.37241 0.11515 0.0
C274 C 0.75792 0.34384 0.11708 0.0
H275 H 0.76254 0.28171 0.18967 0.0
H276 H 0.75892 0.3158 0.17446 0.0
H277 H 0.72762 0.29343 0.1792 0.0
H278 H 0.69996 0.31566 0.14631 0.0
H279 H 0.68328 0.36588 0.14329 0.0
H280 H 0.16479 0.82899 0.35794 0.0
H281 H 0.21095 0.80276 0.35497 0.0
H282 H 0.2115 0.79098 0.43104 0.0
H283 H 0.16536 0.81657 0.43412 0.0
H284 H 0.26488 0.8128 0.37512 0.0
H285 H 0.22087 0.70863 0.40679 0.0
H286 H 0.19783 0.73828 0.398 0.0
H287 H 0.21407 0.73786 0.42719 0.0
C288 C 0.17481 0.82091 0.37404 0.0
C289 C 0.16124 0.82466 0.39625 0.0
C290 C 0.20116 0.80588 0.3723 0.0
C291 C 0.21434 0.7943 0.39271 0.0
C292 C 0.20135 0.79899 0.41496 0.0
H293 H 0.37157 0.71056 0.4349 0.0
H294 H 0.32444 0.7343 0.43101 0.0
C295 C 0.17503 0.81383 0.4167 0.0
C296 C 0.24174 0.77745 0.39097 0.0
H297 H 0.27261 0.71292 0.40623 0.0
C298 C 0.26651 0.79083 0.38162 0.0
C299 C 0.24381 0.74869 0.39933 0.0
C300 C 0.21765 0.7324 0.40816 0.0
C301 C 0.29354 0.77669 0.38141 0.0
C302 C 0.29575 0.74837 0.3906 0.0
C303 C 0.27086 0.7347 0.39932 0.0
C304 C 0.324 0.73315 0.39252 0.0
C305 C 0.31978 0.79249 0.37222 0.0
C306 C 0.33915 0.72413 0.37214 0.0
C307 C 0.36611 0.71034 0.37429 0.0
C308 C 0.37839 0.70544 0.39689 0.0
C309 C 0.36283 0.71406 0.41723 0.0
C310 C 0.33586 0.72763 0.41506 0.0
H311 H 0.31535 0.81582 0.36931 0.0
H312 H 0.33822 0.79043 0.38488 0.0
H313 H 0.32652 0.78269 0.35501 0.0
H314 H 0.33017 0.72785 0.35458 0.0
H315 H 0.37753 0.70399 0.35827 0.0
H316 H 0.77016 0.39187 0.4108 0.0
H317 H 0.75208 0.34229 0.41054 0.0
H318 H 0.82616 0.3149 0.36954 0.0
H319 H 0.84439 0.36477 0.36945 0.0
H320 H 0.77293 0.2917 0.35301 0.0
H321 H 0.78623 0.27648 0.4503 0.0
H322 H 0.76526 0.30779 0.44258 0.0
H323 H 0.80295 0.30599 0.43459 0.0
C324 C 0.7827 0.37537 0.40171 0.0
C325 C 0.80889 0.38231 0.3903 0.0
C326 C 0.77235 0.34697 0.40168 0.0
C327 C 0.788 0.3248 0.39038 0.0
C328 C 0.81382 0.33167 0.37849 0.0
H329 H 0.76228 0.14125 0.41303 0.0
H330 H 0.78128 0.19032 0.4099 0.0
C331 C 0.82423 0.36016 0.3785 0.0
C332 C 0.77734 0.2945 0.39112 0.0
H333 H 0.75964 0.24029 0.42938 0.0
C334 C 0.77012 0.28038 0.36968 0.0
C335 C 0.774 0.27965 0.41287 0.0
C336 C 0.78276 0.29311 0.43639 0.0
C337 C 0.75913 0.25199 0.36946 0.0
C338 C 0.75487 0.23753 0.39129 0.0
C339 C 0.7626 0.25149 0.41267 0.0
C340 C 0.74321 0.20759 0.39242 0.0
C341 C 0.75262 0.23758 0.34585 0.0
C342 C 0.71531 0.20096 0.3838 0.0
C343 C 0.70432 0.17279 0.38554 0.0
C344 C 0.72097 0.15079 0.39609 0.0
C345 C 0.74883 0.15761 0.4048 0.0
C346 C 0.75977 0.18569 0.40303 0.0
H347 H 0.76385 0.2485 0.33095 0.0
H348 H 0.7592 0.21447 0.34601 0.0
H349 H 0.72893 0.23859 0.34236 0.0
H350 H 0.70189 0.21764 0.37599 0.0
H351 H 0.68276 0.16831 0.37873 0.0
H352 H 0.89627 0.26949 0.90373 0.0
H353 H 0.84728 0.24988 0.90034 0.0
H354 H 0.81375 0.33554 0.88775 0.0
H355 H 0.86295 0.35533 0.89059 0.0
H356 H 0.80006 0.26134 0.92741 0.0
H357 H 0.77722 0.29015 0.83347 0.0
H358 H 0.8132 0.29193 0.8462 0.0
H359 H 0.78748 0.32042 0.85184 0.0
C360 C 0.87853 0.28421 0.90011 0.0
C361 C 0.88357 0.31401 0.89736 0.0
C362 C 0.8505 0.27293 0.89818 0.0
C363 C 0.82684 0.29113 0.89345 0.0
C364 C 0.83173 0.32095 0.89085 0.0
H365 H 0.64084 0.26224 0.88575 0.0
H366 H 0.68969 0.28276 0.88759 0.0
C367 C 0.85985 0.33227 0.89263 0.0
C368 C 0.79706 0.27887 0.89207 0.0
H369 H 0.73774 0.27173 0.85578 0.0
C370 C 0.7865 0.26351 0.9117 0.0
C371 C 0.77935 0.28169 0.87156 0.0
C372 C 0.78993 0.2967 0.84948 0.0
C373 C 0.75864 0.25123 0.9115 0.0
C374 C 0.74095 0.25412 0.89104 0.0
C375 C 0.75139 0.26957 0.87145 0.0
C376 C 0.71144 0.24141 0.88972 0.0
C377 C 0.74811 0.23568 0.93334 0.0
C378 C 0.7075 0.2113 0.89002 0.0
C379 C 0.67958 0.19944 0.8889 0.0
C380 C 0.65508 0.21752 0.88747 0.0
C381 C 0.65919 0.24767 0.88695 0.0
C382 C 0.6871 0.25947 0.88795 0.0
H383 H 0.76164 0.24074 0.94925 0.0
H384 H 0.72523 0.24148 0.93727 0.0
H385 H 0.74909 0.21199 0.9301 0.0
H386 H 0.72605 0.19696 0.89103 0.0
H387 H 0.6772 0.17615 0.88925 0.0
H388 H 0.32972 0.66912 0.93635 0.0
H389 H 0.30416 0.71538 0.9341 0.0
H390 H 0.2949 0.70468 0.85816 0.0
H391 H 0.3205 0.65823 0.8602 0.0
H392 H 0.318 0.76609 0.90549 0.0
H393 H 0.21054 0.71768 0.88354 0.0
H394 H 0.23987 0.69679 0.89613 0.0
H395 H 0.24064 0.70665 0.86531 0.0
C396 C 0.32238 0.67661 0.91912 0.0
C397 C 0.32706 0.65988 0.89846 0.0
C398 C 0.3078 0.70309 0.91789 0.0
C399 C 0.29732 0.71327 0.89603 0.0
C400 C 0.30248 0.697 0.87526 0.0
H401 H 0.18852 0.86366 0.86473 0.0
H402 H 0.21709 0.81908 0.86183 0.0
C403 C 0.31725 0.67055 0.87645 0.0
C404 C 0.28078 0.74081 0.89517 0.0
H405 H 0.21296 0.7685 0.88599 0.0
C406 C 0.29505 0.76667 0.90116 0.0
C407 C 0.25089 0.74149 0.8894 0.0
C408 C 0.23439 0.71421 0.88337 0.0
C409 C 0.28024 0.79325 0.90153 0.0
C410 C 0.25013 0.79387 0.8964 0.0
C411 C 0.23599 0.76803 0.88999 0.0
C412 C 0.23277 0.82096 0.89817 0.0
C413 C 0.29713 0.82045 0.9071 0.0
C414 C 0.23159 0.83659 0.91968 0.0
C415 C 0.21542 0.86212 0.92137 0.0
C416 C 0.19971 0.87241 0.90165 0.0
C417 C 0.20037 0.85638 0.88026 0.0
C418 C 0.21672 0.83089 0.87856 0.0
H419 H 0.3206 0.81765 0.90325 0.0
H420 H 0.28885 0.83906 0.89671 0.0
H421 H 0.29498 0.82569 0.92632 0.0
H422 H 0.24311 0.82897 0.93526 0.0
H423 H 0.21521 0.87376 0.93817 0.0
H424 H 0.63057 0.26963 0.58546 0.0
H425 H 0.67896 0.24821 0.58591 0.0
H426 H 0.70594 0.30977 0.63964 0.0
H427 H 0.65727 0.33118 0.63959 0.0
H428 H 0.73167 0.27329 0.57585 0.0
H429 H 0.73002 0.23238 0.66847 0.0
H430 H 0.69767 0.24433 0.65323 0.0
H431 H 0.72236 0.27033 0.66595 0.0
C432 C 0.64672 0.27863 0.59745 0.0
C433 C 0.63998 0.30209 0.61256 0.0
C434 C 0.67441 0.26634 0.59766 0.0
C435 C 0.69596 0.27711 0.61303 0.0
C436 C 0.68947 0.30073 0.62797 0.0
H437 H 0.88121 0.24768 0.60346 0.0
H438 H 0.832 0.26713 0.60198 0.0
C439 C 0.6617 0.31306 0.62781 0.0
C440 C 0.72533 0.26389 0.61295 0.0
H441 H 0.77494 0.22935 0.64803 0.0
C442 C 0.74111 0.26363 0.59162 0.0
C443 C 0.73744 0.2509 0.63344 0.0
C444 C 0.72094 0.24919 0.65653 0.0
C445 C 0.76887 0.25118 0.59032 0.0
C446 C 0.78136 0.23904 0.611 0.0
C447 C 0.76539 0.23884 0.63223 0.0
C448 C 0.81115 0.22682 0.61109 0.0
C449 C 0.7844 0.25078 0.56672 0.0
C450 C 0.81586 0.19773 0.61702 0.0
C451 C 0.84406 0.18651 0.61797 0.0
C452 C 0.86809 0.20427 0.6132 0.0
C453 C 0.86323 0.23334 0.60712 0.0
C454 C 0.83507 0.2445 0.60615 0.0
H455 H 0.76908 0.25354 0.55158 0.0
H456 H 0.80019 0.26888 0.5663 0.0
H457 H 0.7965 0.23023 0.56414 0.0
H458 H 0.79769 0.18374 0.621 0.0
H459 H 0.84703 0.16407 0.62281 0.0
H460 H 0.21024 0.65091 0.57442 0.0
H461 H 0.23834 0.69581 0.57471 0.0
H462 H 0.24793 0.69042 0.65089 0.0
H463 H 0.21966 0.64548 0.65085 0.0
H464 H 0.22558 0.7491 0.60375 0.0
H465 H 0.33289 0.6986 0.62242 0.0
H466 H 0.30289 0.67835 0.60992 0.0
H467 H 0.30283 0.68821 0.64085 0.0
C468 C 0.21823 0.65928 0.59127 0.0
C469 C 0.21273 0.64458 0.61262 0.0
C470 C 0.23429 0.68493 0.59138 0.0
C471 C 0.24546 0.6962 0.61277 0.0
C472 C 0.23975 0.68185 0.63417 0.0
H473 H 0.35401 0.84629 0.64382 0.0
H474 H 0.32861 0.79981 0.64505 0.0
C475 C 0.22346 0.65628 0.63411 0.0
C476 C 0.26278 0.7232 0.61261 0.0
H477 H 0.33159 0.74945 0.61953 0.0
C478 C 0.24875 0.74924 0.60719 0.0
C479 C 0.29293 0.72323 0.61728 0.0
C480 C 0.30898 0.69564 0.62283 0.0
C481 C 0.26407 0.77547 0.60646 0.0
C482 C 0.29444 0.77549 0.61055 0.0
C483 C 0.30839 0.74941 0.61624 0.0
C484 C 0.31195 0.80242 0.60906 0.0
C485 C 0.24739 0.80299 0.60185 0.0
C486 C 0.31203 0.81879 0.58811 0.0
C487 C 0.32633 0.84542 0.5874 0.0
C488 C 0.34128 0.85603 0.60752 0.0
C489 C 0.34269 0.83877 0.62801 0.0
C490 C 0.32811 0.81222 0.62877 0.0
H491 H 0.22401 0.80052 0.60612 0.0
H492 H 0.25625 0.82132 0.6125 0.0
H493 H 0.24904 0.80849 0.58272 0.0
H494 H 0.30046 0.81126 0.57243 0.0
H495 H 0.32508 0.85802 0.57126 0.0
H496 H 0.89084 0.56555 0.34628 0.0
H497 H 0.9133 0.58993 0.3128 0.0
H498 H 0.91331 0.50997 0.27272 0.0
H499 H 0.89118 0.48508 0.30651 0.0
H500 H 0.96609 0.53821 0.27174 0.0
H501 H 0.87706 0.61407 0.25002 0.0
H502 H 0.88741 0.61581 0.28082 0.0
H503 H 0.87192 0.58303 0.26884 0.0
C504 C 0.89537 0.55312 0.3303 0.0
C505 C 0.88929 0.52335 0.32906 0.0
C506 C 0.90807 0.56717 0.31111 0.0
C507 C 0.91458 0.55186 0.29017 0.0
C508 C 0.90834 0.52217 0.28873 0.0
H509 H 0.96856 0.63695 0.16052 0.0
H510 H 0.94293 0.60941 0.1907 0.0
C511 C 0.89573 0.50801 0.30802 0.0
C512 C 0.92921 0.56676 0.27033 0.0
H513 H 0.92368 0.62518 0.23386 0.0
C514 C 0.95673 0.55706 0.26326 0.0
C515 C 0.91679 0.59113 0.25914 0.0
C516 C 0.88654 0.60146 0.26491 0.0
C517 C 0.97257 0.5716 0.24575 0.0
C518 C 0.96078 0.59688 0.23546 0.0
C519 C 0.93289 0.60607 0.24205 0.0
C520 C 0.97666 0.61377 0.21738 0.0
C521 C 1.00158 0.55953 0.23825 0.0
C522 C 1.00398 0.62581 0.2225 0.0
C523 C 0.01886 0.64144 0.20517 0.0
C524 C 1.00644 0.64561 0.18256 0.0
C525 C 0.97876 0.63414 0.17775 0.0
C526 C 0.96406 0.61836 0.19497 0.0
H527 H 1.00362 0.53624 0.24268 0.0
H528 H 1.00498 0.56211 0.21882 0.0
H529 H 0.01908 0.57136 0.24781 0.0
H530 H 0.01377 0.62318 0.2399 0.0
H531 H 0.04003 0.65026 0.20947 0.0
H532 H 0.85977 0.95844 0.17978 0.0
H533 H 0.88619 0.93355 0.21132 0.0
H534 H 0.91985 0.01522 0.23676 0.0
H535 H 0.89299 0.04041 0.2055 0.0
H536 H 0.9448 0.93219 0.21764 0.0
H537 H 0.89128 0.97828 0.29763 0.0
H538 H 0.87621 0.9818 0.26809 0.0
H539 H 0.90509 1.00524 0.27786 0.0
C540 C 0.87252 0.97118 0.19224 0.0
C541 C 0.87438 1.00141 0.19009 0.0
C542 C 0.88764 0.9569 0.21023 0.0
C543 C 0.90483 0.97253 0.22646 0.0
C544 C 0.90631 1.00277 0.22466 0.0
H545 H 0.04596 0.90445 0.3125 0.0
H546 H 0.01649 0.92669 0.28124 0.0
C547 C 0.89106 0.01713 0.20672 0.0
C548 C 0.92231 0.95697 0.24447 0.0
H549 H 0.93472 0.95153 0.30417 0.0
C550 C 0.94253 0.9363 0.23658 0.0
C551 C 0.91902 0.96212 0.26915 0.0
C552 C 0.89653 0.98285 0.27875 0.0
C553 C 0.95987 0.92091 0.2527 0.0
C554 C 0.95733 0.92684 0.27734 0.0
C555 C 0.93682 0.94721 0.28524 0.0
C556 C 0.97545 0.91198 0.29533 0.0
C557 C 0.98033 0.8981 0.24323 0.0
C558 C 0.96217 0.89653 0.31369 0.0
C559 C 0.9789 0.88409 0.33167 0.0
C560 C 1.00926 0.88692 0.33166 0.0
C561 C 0.02262 0.9018 0.31294 0.0
C562 C 1.00582 0.9144 0.295 0.0
H563 H 0.97386 0.89058 0.22514 0.0
H564 H 1.00248 0.90736 0.24203 0.0
H565 H 0.98124 0.87912 0.2552 0.0
H566 H 0.93878 0.89438 0.31427 0.0
H567 H 0.96794 0.87265 0.34578 0.0
H568 H 0.61649 0.05641 0.32354 0.0
H569 H 0.58879 0.03619 0.29005 0.0
H570 H 0.6343 0.95523 0.29719 0.0
H571 H 0.66203 0.97511 0.33077 0.0
H572 H 0.62533 0.98113 0.24708 0.0
H573 H 0.52676 0.96818 0.30313 0.0
H574 H 0.54541 1.0024 0.30446 0.0
H575 H 0.56279 0.97062 0.31578 0.0
C576 C 0.62084 0.0344 0.31784 0.0
C577 C 0.64117 0.0172 0.32998 0.0
C578 C 0.60497 0.02292 0.29877 0.0
C579 C 0.60938 0.9942 0.29146 0.0
C580 C 0.63058 0.97742 0.30275 0.0
H581 H 0.50875 0.877 0.20347 0.0
H582 H 0.53753 0.90009 0.23507 0.0
C583 C 0.6463 0.98879 0.32194 0.0
C584 C 0.59087 0.98118 0.2728 0.0
H585 H 0.52264 0.95513 0.26258 0.0
C586 C 0.60286 0.9755 0.25037 0.0
C587 C 0.56173 0.97367 0.27741 0.0
C588 C 0.54827 0.9788 0.30151 0.0
C589 C 0.5862 0.96265 0.2322 0.0
C590 C 0.55695 0.95545 0.23673 0.0
C591 C 0.54507 0.96087 0.25924 0.0
C592 C 0.53844 0.94201 0.21826 0.0
C593 C 0.59998 0.9565 0.20838 0.0
C594 C 0.52897 0.95823 0.19876 0.0
C595 C 0.51237 0.94524 0.1808 0.0
C596 C 0.50513 0.91574 0.18204 0.0
C597 C 0.51407 0.89973 0.20197 0.0
C598 C 0.53049 0.91284 0.22001 0.0
H599 H 0.62393 0.95915 0.20895 0.0
H600 H 0.59481 0.93415 0.20235 0.0
H601 H 0.59105 0.97164 0.19498 0.0
H602 H 0.53472 0.98087 0.19731 0.0
H603 H 0.50583 0.95815 0.1657 0.0
H604 H 0.66361 0.56892 0.17213 0.0
H605 H 0.64031 0.59464 0.205 0.0
H606 H 0.60777 0.51387 0.23197 0.0
H607 H 0.63138 0.48781 0.19927 0.0
H608 H 0.58127 0.5956 0.2141 0.0
H609 H 0.64311 0.55262 0.29114 0.0
H610 H 0.65571 0.54922 0.26085 0.0
H611 H 0.62821 0.52526 0.27178 0.0
C612 C 0.65175 0.55655 0.18517 0.0
C613 C 0.64919 0.52633 0.18303 0.0
C614 C 0.63844 0.57131 0.20392 0.0
C615 C 0.62248 0.55614 0.22094 0.0
C616 C 0.62037 0.52592 0.21919 0.0
H617 H 0.49032 0.62439 0.31523 0.0
H618 H 0.51694 0.60087 0.28283 0.0
C619 C 0.63373 0.51109 0.20043 0.0
C620 C 0.6068 0.5722 0.23976 0.0
H621 H 0.60077 0.58005 0.29995 0.0
C622 C 0.58557 0.59231 0.23288 0.0
C623 C 0.61276 0.56806 0.26419 0.0
C624 C 0.63637 0.54783 0.27251 0.0
C625 C 0.56979 0.60812 0.24985 0.0
C626 C 0.57507 0.60326 0.27429 0.0
C627 C 0.59661 0.58349 0.28117 0.0
C628 C 0.55865 0.61861 0.29307 0.0
C629 C 0.54796 0.63021 0.24151 0.0
C630 C 0.57334 0.63622 0.30957 0.0
C631 C 0.55826 0.64953 0.32814 0.0
C632 C 0.52822 0.6453 0.33063 0.0
C633 C 0.51345 0.62807 0.31379 0.0
C634 C 0.52858 0.61474 0.2952 0.0
H635 H 0.55173 0.63649 0.22272 0.0
H636 H 0.52583 0.6209 0.24268 0.0
H637 H 0.54871 0.64997 0.25287 0.0
H638 H 0.59655 0.63945 0.30819 0.0
H639 H 0.57027 0.66274 0.34077 0.0
H640 H 0.14625 0.4645 0.6794 0.0
H641 H 0.11961 0.44449 0.71288 0.0
H642 H 0.0919 0.5302 0.73344 0.0
H643 H 0.11902 0.55059 0.70011 0.0
H644 H 0.11046 0.49788 0.77143 0.0
H645 H 0.03195 0.43542 0.71668 0.0
H646 H 0.06894 0.42722 0.70943 0.0
H647 H 0.055 0.46302 0.70433 0.0
C648 C 0.1345 0.47915 0.69102 0.0
C649 C 0.13453 0.50912 0.68699 0.0
C650 C 0.11912 0.46763 0.71005 0.0
C651 C 0.10323 0.4858 0.72527 0.0
C652 C 0.10381 0.5158 0.72172 0.0
H653 H 0.97908 0.41786 0.82798 0.0
H654 H 1.00136 0.44345 0.7947 0.0
C655 C 0.11932 0.5274 0.7027 0.0
C656 C 0.08655 0.47336 0.74517 0.0
H657 H 0.03455 0.42337 0.75798 0.0
C658 C 0.09367 0.48179 0.76851 0.0
C659 C 0.0643 0.45276 0.74128 0.0
C660 C 0.05436 0.44428 0.71656 0.0
C661 C 0.07988 0.46933 0.78814 0.0
C662 C 0.05887 0.44746 0.78426 0.0
C663 C 0.05096 0.43985 0.7609 0.0
C664 C 0.04535 0.43175 0.80421 0.0
C665 C 0.08787 0.47981 0.81281 0.0
C666 C 0.06265 0.41614 0.82019 0.0
C667 C 0.05005 0.40165 0.83922 0.0
C668 C 0.01983 0.40221 0.84246 0.0
C669 C 1.00243 0.41711 0.826 0.0
C670 C 0.01511 0.43176 0.80701 0.0
H671 H 0.09719 0.50197 0.81247 0.0
H672 H 0.06873 0.47989 0.82475 0.0
H673 H 0.1045 0.46517 0.82045 0.0
H674 H 0.08596 0.41517 0.81794 0.0
H675 H 0.06403 0.39009 0.85142 0.0
H676 H 0.06701 0.02482 0.85215 0.0
H677 H 0.03977 0.03963 0.81697 0.0
H678 H 0.08432 0.97523 0.77484 0.0
H679 H 0.11146 0.95988 0.81015 0.0
H680 H 0.06235 0.06105 0.77533 0.0
H681 H 0.99905 0.96078 0.75776 0.0
H682 H 0.01755 0.96751 0.78565 0.0
H683 H 0.03762 0.95577 0.75998 0.0
C684 C 0.07094 0.01366 0.83545 0.0
C685 C 0.09131 0.9911 0.83395 0.0
C686 C 0.05532 0.02214 0.81537 0.0
C687 C 0.05971 1.00824 0.7934 0.0
C688 C 0.08012 0.98578 0.79176 0.0
H689 H 0.99797 0.04992 0.65173 0.0
H690 H 0.01968 0.02591 0.68614 0.0
C691 C 0.09573 0.97717 0.8119 0.0
C692 C 0.04386 0.01843 0.7721 0.0
H693 H 0.99518 0.99807 0.72911 0.0
C694 C 0.0476 0.04731 0.76528 0.0
C695 C 0.02475 1.00037 0.75898 0.0
C696 C 0.01923 0.96944 0.76602 0.0
C697 C 0.03279 0.05864 0.74563 0.0
C698 C 1.01343 0.04071 0.73269 0.0
C699 C 1.00994 1.01172 0.73923 0.0
C700 C 0.99693 0.05198 0.71217 0.0
C701 C 0.03823 0.08965 0.73868 0.0
C702 C 0.97606 0.07368 0.71554 0.0
C703 C 0.9636 0.08744 0.69597 0.0
C704 C 0.97185 0.07969 0.6727 0.0
C705 C 0.99127 0.05652 0.66941 0.0
C706 C 1.0037 0.04276 0.68903 0.0
H707 H 0.05818 0.09849 0.74719 0.0
H708 H 0.04029 0.09157 0.71907 0.0
H709 H 0.0196 0.10319 0.74442 0.0
H710 H 0.97032 0.08078 0.73333 0.0
H711 H 0.94858 0.10507 0.69914 0.0
H712 H 0.58037 0.09883 0.8177 0.0
H713 H 0.56806 0.06945 0.78255 0.0
H714 H 0.48526 0.11255 0.77773 0.0
H715 H 0.49735 0.14193 0.81262 0.0
H716 H 0.52011 0.0319 0.78049 0.0
H717 H 0.5139 0.11289 0.70879 0.0
H718 H 0.5333 0.1194 0.73635 0.0
H719 H 0.49459 0.12432 0.7349 0.0
C720 C 0.55974 0.10235 0.80889 0.0
C721 C 0.5397 0.12251 0.81799 0.0
C722 C 0.55278 0.08557 0.78885 0.0
C723 C 0.52593 0.0891 0.77741 0.0
C724 C 0.50634 0.10989 0.78603 0.0
H725 H 0.39366 0.01894 0.69967 0.0
H726 H 0.43036 0.0435 0.72351 0.0
C727 C 0.51316 0.12646 0.80611 0.0
C728 C 0.51674 0.0693 0.75802 0.0
H729 H 0.48454 0.06969 0.70331 0.0
C730 C 0.51312 0.03988 0.76329 0.0
C731 C 0.50786 0.07981 0.7356 0.0
C732 C 0.51289 0.11079 0.72846 0.0
C733 C 0.49836 0.02128 0.74753 0.0
C734 C 0.48728 0.03246 0.72602 0.0
C735 C 0.49298 0.06127 0.71993 0.0
C736 C 0.46573 0.01631 0.71168 0.0
C737 C 0.49266 0.99044 0.75472 0.0
C738 C 0.47352 0.99257 0.69734 0.0
C739 C 0.45241 0.97829 0.68356 0.0
C740 C 0.42338 0.9877 0.68401 0.0
C741 C 0.4158 1.01116 0.6988 0.0
C742 C 0.43676 0.02531 0.71242 0.0
H743 H 0.50201 0.98536 0.77246 0.0
H744 H 0.46893 0.98637 0.75515 0.0
H745 H 0.5022 0.97545 0.74135 0.0
H746 H 0.49587 0.98542 0.69655 0.0
H747 H 0.4589 0.96037 0.67226 0.0
H748 H 0.46274 0.36585 0.68005 0.0
H749 H 0.44161 0.39495 0.712 0.0
H750 H 0.52512 0.43333 0.7265 0.0
H751 H 0.54666 0.40407 0.69456 0.0
H752 H 0.49379 0.41627 0.76768 0.0
H753 H 0.42694 0.48291 0.70672 0.0
H754 H 0.42229 0.44462 0.7026 0.0
H755 H 0.45685 0.46092 0.69648 0.0
C756 C 0.47671 0.38037 0.69007 0.0
C757 C 0.50633 0.38289 0.6846 0.0
C758 C 0.46453 0.39709 0.70823 0.0
C759 C 0.4817 0.41669 0.7212 0.0
C760 C 0.5115 0.41849 0.71647 0.0
H761 H 0.41003 0.55071 0.81476 0.0
H762 H 0.43672 0.52532 0.78324 0.0
C763 C 0.52374 0.40176 0.69826 0.0
C764 C 0.46835 0.4353 0.73965 0.0
H765 H 0.41602 0.48659 0.74809 0.0
C766 C 0.47696 0.43182 0.76342 0.0
C767 C 0.44675 0.45588 0.73393 0.0
C768 C 0.43781 0.46158 0.70852 0.0
C769 C 0.46368 0.44765 0.7818 0.0
C770 C 0.44101 0.46711 0.77618 0.0
C771 C 0.4332 0.4714 0.75232 0.0
C772 C 0.42454 0.48253 0.7949 0.0
C773 C 0.474 0.44339 0.80705 0.0
C774 C 0.40831 0.46686 0.81144 0.0
C775 C 0.39305 0.48123 0.82937 0.0
C776 C 0.39363 0.51158 0.83103 0.0
C777 C 0.40926 0.5273 0.81401 0.0
C778 C 0.42453 0.51286 0.79604 0.0
H779 H 0.49626 0.43418 0.80765 0.0
H780 H 0.47385 0.46414 0.81715 0.0
H781 H 0.45925 0.42809 0.81612 0.0
H782 H 0.4075 0.44346 0.8105 0.0
H783 H 0.38105 0.46847 0.84207 0.0
H784 H 0.99344 0.77117 0.16506 0.0
H785 H 0.99894 0.7813 0.20749 0.0
H786 H 0.07965 0.73415 0.20824 0.0
H787 H 0.07417 0.72386 0.16552 0.0
H788 H 0.04508 0.72205 0.24718 0.0
H789 H 0.05417 0.84057 0.23613 0.0
H790 H 0.02183 0.82613 0.22276 0.0
H791 H 0.05676 0.8156 0.21136 0.0
C792 C 1.01238 0.76283 0.17421 0.0
C793 C 0.03338 0.74661 0.16181 0.0
C794 C 0.01557 0.76884 0.19849 0.0
C795 C 0.04005 0.75914 0.211 0.0
C796 C 0.06067 0.7421 0.19892 0.0
H797 H 0.08189 0.8216 0.35578 0.0
H798 H 0.08413 0.81105 0.31293 0.0
C799 C 0.05742 0.73599 0.17452 0.0
C800 C 0.04373 0.7667 0.23668 0.0
H801 H 0.04487 0.82396 0.27567 0.0
C802 C 0.04536 0.74433 0.25338 0.0
C803 C 0.0445 0.79581 0.24483 0.0
C804 C 0.04453 0.8209 0.22782 0.0
C805 C 0.04651 0.75023 0.27797 0.0
C806 C 0.04564 0.7793 0.28614 0.0
C807 C 0.04523 0.80169 0.26944 0.0
C808 C 0.04401 0.78677 0.31194 0.0
C809 C 0.04858 0.72525 0.29501 0.0
C810 C 0.02039 0.77738 0.32551 0.0
C811 C 0.01897 0.78367 0.34985 0.0
C812 C 0.04097 0.79979 0.36122 0.0
C813 C 0.06434 0.80971 0.34753 0.0
C814 C 0.06575 0.80345 0.32306 0.0
H815 H 0.05734 0.70553 0.28617 0.0
H816 H 0.06262 0.73076 0.31051 0.0
H817 H 0.0266 0.72008 0.30172 0.0
H818 H 1.00303 0.76505 0.31726 0.0
H819 H 1.00057 0.77577 0.35982 0.0
H820 H 0.80498 0.06818 0.16748 0.0
H821 H 0.79673 0.07374 0.21044 0.0
H822 H 0.74812 0.99409 0.2104 0.0
H823 H 0.75625 0.9885 0.16778 0.0
H824 H 0.71934 0.03786 0.23355 0.0
H825 H 0.83308 0.02963 0.26605 0.0
H826 H 0.82687 0.0567 0.24381 0.0
H827 H 0.82252 0.01914 0.23625 0.0
C828 C 0.79307 0.05161 0.17671 0.0
C829 C 0.78156 0.02777 0.16417 0.0
C830 C 0.78827 0.05483 0.2013 0.0
C831 C 0.7719 0.03422 0.21377 0.0
C832 C 0.76072 1.01032 0.20125 0.0
H833 H 0.75783 0.99328 0.36146 0.0
H834 H 0.7673 0.99714 0.319 0.0
C835 C 0.76547 1.00715 0.17682 0.0
C836 C 0.76549 0.03758 0.23966 0.0
H837 H 0.797 0.039 0.29484 0.0
C838 C 0.73633 0.03836 0.24696 0.0
C839 C 0.78764 0.03782 0.25718 0.0
C840 C 0.81929 0.03553 0.25056 0.0
C841 C 0.7287 0.03891 0.27121 0.0
C842 C 0.75085 0.03935 0.28873 0.0
C843 C 0.78002 0.03901 0.28142 0.0
C844 C 0.74433 0.03756 0.31468 0.0
C845 C 0.69703 0.03765 0.27787 0.0
C846 C 0.72814 0.05902 0.3266 0.0
C847 C 0.72258 0.05683 0.35112 0.0
C848 C 0.73312 0.03315 0.36413 0.0
C849 C 0.74933 1.01184 0.35206 0.0
C850 C 0.75484 0.01401 0.32772 0.0
H851 H 0.68308 0.03124 0.26253 0.0
H852 H 0.69352 0.02206 0.29252 0.0
H853 H 0.68987 0.0593 0.28418 0.0
H854 H 0.72019 0.07768 0.31705 0.0
H855 H 0.71054 0.07386 0.35991 0.0
H856 H 0.45924 0.70932 0.35345 0.0
H857 H 0.45584 0.7196 0.31062 0.0
H858 H 0.53307 0.77191 0.31567 0.0
H859 H 0.53639 0.76194 0.35806 0.0
H860 H 0.49021 0.7998 0.29178 0.0
H861 H 0.50393 0.68856 0.25527 0.0
H862 H 0.47519 0.69289 0.27651 0.0
H863 H 0.5122 0.69765 0.28585 0.0
C864 C 0.47573 0.72255 0.34532 0.0
C865 C 0.49816 0.73461 0.35924 0.0
C866 C 0.47377 0.72848 0.3208 0.0
C867 C 0.4943 0.74649 0.30975 0.0
C868 C 0.51686 0.7581 0.32366 0.0
H869 H 0.54615 0.7657 0.16504 0.0
H870 H 0.5387 0.75536 0.2069 0.0
C871 C 0.51875 0.75228 0.34798 0.0
C872 C 0.49234 0.75418 0.28396 0.0
H873 H 0.49621 0.72589 0.22764 0.0
C874 C 0.49128 0.78361 0.27774 0.0
C875 C 0.49405 0.73314 0.26558 0.0
C876 C 0.49666 0.7013 0.27101 0.0
C877 C 0.49261 0.79259 0.25384 0.0
C878 C 0.49434 0.77156 0.23543 0.0
C879 C 0.49466 0.74208 0.24165 0.0
C880 C 0.49866 0.77947 0.20987 0.0
C881 C 0.49359 0.82456 0.24865 0.0
C882 C 0.47886 0.797 0.19731 0.0
C883 C 0.4833 0.80334 0.17308 0.0
C884 C 0.50741 0.79195 0.1609 0.0
C885 C 0.52724 0.77481 0.1737 0.0
C886 C 0.52296 0.76872 0.19775 0.0
H887 H 0.49886 0.83757 0.2648 0.0
H888 H 0.50993 0.82934 0.23475 0.0
H889 H 0.47205 0.83166 0.24201 0.0
H890 H 0.45963 0.80523 0.20604 0.0
H891 H 0.46742 0.81628 0.16379 0.0
H892 H 0.71454 0.4591 0.16016 0.0
H893 H 0.72471 0.45495 0.20301 0.0
H894 H 0.7761 0.53275 0.20053 0.0
H895 H 0.76613 0.53692 0.15811 0.0
H896 H 0.80453 0.48917 0.22365 0.0
H897 H 0.6928 0.50214 0.25908 0.0
H898 H 0.69721 0.47418 0.23698 0.0
H899 H 0.70215 0.51135 0.22891 0.0
C900 C 0.72752 0.47557 0.16885 0.0
C901 C 0.7393 0.49843 0.15564 0.0
C902 C 0.7334 0.47317 0.19338 0.0
C903 C 0.75112 0.49364 0.20515 0.0
C904 C 0.76249 0.5166 0.19197 0.0
H905 H 0.77258 0.54078 0.35186 0.0
H906 H 0.76196 0.5356 0.30955 0.0
C907 C 0.75668 0.51897 0.16763 0.0
C908 C 0.75874 0.49117 0.23096 0.0
H909 H 0.73012 0.4936 0.28701 0.0
C910 C 0.78823 0.48987 0.23751 0.0
C911 C 0.73755 0.49249 0.2491 0.0
C912 C 0.70566 0.49537 0.24331 0.0
C913 C 0.7971 0.49036 0.26155 0.0
C914 C 0.77591 0.49156 0.2797 0.0
C915 C 0.74639 0.49237 0.27315 0.0
C916 C 0.78381 0.49448 0.30546 0.0
C917 C 0.82912 0.49096 0.2673 0.0
C918 C 0.80003 0.47322 0.31748 0.0
C919 C 0.80632 0.47621 0.34193 0.0
C920 C 0.79644 0.50048 0.35481 0.0
C921 C 0.78056 0.52177 0.34258 0.0
C922 C 0.77436 0.51882 0.31831 0.0
H923 H 0.84243 0.49615 0.25145 0.0
H924 H 0.83388 0.50714 0.2815 0.0
H925 H 0.83593 0.46941 0.27385 0.0
H926 H 0.80721 0.45397 0.30811 0.0
H927 H 0.81802 0.45914 0.35084 0.0
H928 H 0.95191 0.23569 0.67638 0.0
H929 H 0.95492 0.26634 0.71214 0.0
H930 H 0.02938 0.21806 0.7361 0.0
H931 H 0.02646 0.18728 0.7006 0.0
H932 H 0.95098 0.24309 0.75962 0.0
H933 H 0.05314 0.30402 0.74661 0.0
H934 H 0.03338 0.28738 0.72226 0.0
H935 H 0.0562 0.2658 0.74111 0.0
C936 C 0.96934 0.232 0.68898 0.0
C937 C 0.98897 0.20899 0.68559 0.0
C938 C 0.97094 0.24948 0.70947 0.0
C939 C 0.9925 0.24465 0.72672 0.0
C940 C 1.01283 0.22249 0.72288 0.0
H941 H 0.04255 0.28275 0.86849 0.0
H942 H 0.03735 0.27082 0.82643 0.0
C943 C 1.01106 0.20483 0.70258 0.0
C944 C 0.99233 0.26077 0.74976 0.0
H945 H 0.03468 0.30258 0.78629 0.0
C946 C 0.96902 0.25654 0.76535 0.0
C947 C 0.01589 0.27824 0.75719 0.0
C948 C 0.04099 0.28441 0.74086 0.0
C949 C 0.96941 0.26786 0.78869 0.0
C950 C 0.9935 0.28455 0.79645 0.0
C951 C 0.01622 0.28982 0.78042 0.0
C952 C 0.99702 0.29407 0.82174 0.0
C953 C 0.94482 0.26039 0.8052 0.0
C954 C 0.97639 0.3117 0.83321 0.0
C955 C 0.97916 0.31834 0.85756 0.0
C956 C 1.00283 0.30785 0.8708 0.0
C957 C 0.02392 0.29113 0.85897 0.0
C958 C 0.02107 0.28438 0.8348 0.0
H959 H 0.93134 0.24235 0.7981 0.0
H960 H 0.9532 0.25421 0.82301 0.0
H961 H 0.93058 0.27956 0.80746 0.0
H962 H 0.9579 0.31996 0.82345 0.0
H963 H 0.96238 0.33096 0.86604 0.0
H964 H 0.29086 0.92903 0.67247 0.0
H965 H 0.26073 0.92974 0.70815 0.0
H966 H 0.26282 0.02299 0.70879 0.0
H967 H 0.2924 0.02246 0.67275 0.0
H968 H 0.27705 0.94953 0.7505 0.0
H969 H 0.17877 1.00963 0.7235 0.0
H970 H 0.20437 0.99553 0.70212 0.0
H971 H 0.21126 0.02939 0.71719 0.0
C972 C 0.28438 0.94975 0.67986 0.0
C973 C 0.29411 0.97571 0.66966 0.0
C974 C 0.26716 0.9501 0.70035 0.0
C975 C 0.25917 0.9764 0.71118 0.0
C976 C 0.26801 1.00239 0.70055 0.0
H977 H 0.20794 0.03833 0.84728 0.0
H978 H 0.21914 0.03001 0.80538 0.0
C979 C 0.28509 1.00206 0.67993 0.0
C980 C 0.24422 0.97654 0.73475 0.0
H981 H 0.1876 1.00624 0.76569 0.0
C982 C 0.25719 0.96152 0.75369 0.0
C983 C 0.21827 0.99215 0.73904 0.0
C984 C 0.2022 1.00733 0.71931 0.0
C985 C 0.2458 0.96276 0.77687 0.0
C986 C 0.22047 0.97922 0.78131 0.0
C987 C 0.20697 0.99357 0.76229 0.0
C988 C 0.20965 0.98423 0.80597 0.0
C989 C 0.26181 0.94762 0.79668 0.0
C990 C 0.19955 0.96143 0.82018 0.0
C991 C 0.19298 0.96618 0.84433 0.0
C992 C 0.19647 0.99379 0.8546 0.0
C993 C 0.20515 0.01675 0.83996 0.0
C994 C 0.2115 1.01206 0.81594 0.0
H995 H 0.28355 0.93987 0.79101 0.0
H996 H 0.26455 0.9623 0.81227 0.0
H997 H 0.24902 0.92863 0.80249 0.0
H998 H 0.19763 0.9398 0.81281 0.0
H999 H 0.18665 0.94802 0.85515 0.0
H1000 H 0.49618 0.24291 0.84719 0.0
H1001 H 0.50231 0.25516 0.80559 0.0
H1002 H 0.58438 0.21043 0.80447 0.0
H1003 H 0.57827 0.19783 0.8467 0.0
H1004 H 0.54539 0.28796 0.78543 0.0
H1005 H 0.54232 0.17747 0.74551 0.0
H1006 H 0.5308 0.18472 0.77563 0.0
H1007 H 0.56873 0.18347 0.76867 0.0
C1008 C 0.51559 0.23545 0.83822 0.0
C1009 C 0.53673 0.21927 0.85046 0.0
C1010 C 0.51905 0.24259 0.81431 0.0
C1011 C 0.54375 0.23378 0.80172 0.0
C1012 C 0.56492 0.21724 0.81367 0.0
H1013 H 0.56654 0.31165 0.65797 0.0
H1014 H 0.57647 0.29869 0.69963 0.0
C1015 C 0.56142 0.21002 0.83784 0.0
C1016 C 0.54687 0.24267 0.77631 0.0
H1017 H 0.5462 0.21656 0.71918 0.0
C1018 C 0.54597 0.27235 0.77092 0.0
C1019 C 0.54732 0.22235 0.75735 0.0
C1020 C 0.54714 0.1902 0.76191 0.0
C1021 C 0.54445 0.28221 0.74727 0.0
C1022 C 0.54444 0.26188 0.72828 0.0
C1023 C 0.54639 0.23222 0.73366 0.0
C1024 C 0.53915 0.27053 0.70299 0.0
C1025 C 0.54121 0.31424 0.7429 0.0
C1026 C 0.51513 0.25903 0.69081 0.0
C1027 C 0.50957 0.26631 0.66714 0.0
C1028 C 0.52783 0.28539 0.65478 0.0
C1029 C 0.55181 0.29726 0.66697 0.0
C1030 C 0.55749 0.2898 0.69083 0.0
H1031 H 0.53549 0.32632 0.7594 0.0
H1032 H 0.56204 0.32296 0.73622 0.0
H1033 H 0.52424 0.3184 0.72926 0.0
H1034 H 0.50049 0.24432 0.69968 0.0
H1035 H 0.49081 0.25676 0.65848 0.0
H1036 H 0.32354 0.5758 0.85192 0.0
H1037 H 0.31091 0.58066 0.80948 0.0
H1038 H 0.25544 0.50592 0.81421 0.0
H1039 H 0.26782 0.50098 0.85606 0.0
H1040 H 0.31675 0.54336 0.77072 0.0
H1041 H 0.20045 0.5651 0.78594 0.0
H1042 H 0.22707 0.56691 0.80958 0.0
H1043 H 0.21196 0.53263 0.80046 0.0
C1044 C 0.30893 0.56027 0.84384 0.0
C1045 C 0.29669 0.53807 0.85754 0.0
C1046 C 0.30152 0.56318 0.8196 0.0
C1047 C 0.28153 0.54412 0.80872 0.0
C1048 C 0.27015 0.52147 0.82225 0.0
H1049 H 0.25605 0.48609 0.66619 0.0
H1050 H 0.26869 0.49587 0.70753 0.0
C1051 C 0.27748 0.51858 0.84626 0.0
C1052 C 0.2728 0.54699 0.78316 0.0
H1053 H 0.21315 0.54819 0.74659 0.0
C1054 C 0.29413 0.54489 0.76547 0.0
C1055 C 0.24331 0.54954 0.7761 0.0
C1056 C 0.21942 0.55399 0.79403 0.0
C1057 C 0.28669 0.54351 0.74113 0.0
C1058 C 0.25705 0.54367 0.73419 0.0
C1059 C 0.23583 0.54759 0.75179 0.0
C1060 C 0.24774 0.53769 0.70907 0.0
C1061 C 0.31077 0.54156 0.72308 0.0
C1062 C 0.23029 0.55723 0.69625 0.0
C1063 C 0.22265 0.55149 0.67235 0.0
C1064 C 0.23217 0.52603 0.66092 0.0
C1065 C 0.24861 0.50613 0.67421 0.0
C1066 C 0.2561 0.51178 0.69791 0.0
H1067 H 0.33113 0.55136 0.73007 0.0
H1068 H 0.31528 0.51846 0.71903 0.0
H1069 H 0.30474 0.55252 0.70625 0.0
H1070 H 0.2232 0.57724 0.70453 0.0
H1071 H 0.21016 0.56735 0.6627 0.0
H1072 H 0.99895 0.64265 0.06051 0.0
H1073 H 0.98989 0.60069 0.03485 0.0
H1074 H 0.06843 0.56069 0.06047 0.0
H1075 H 0.07742 0.60244 0.0866 0.0
H1076 H 0.02166 0.57711 0.99864 0.0
H1077 H 1.00923 0.49716 0.071 0.0
H1078 H 1.00961 0.53566 0.07655 0.0
H1079 H 0.04305 0.51637 0.07196 0.0
C1080 C 0.01436 0.62496 0.06074 0.0
C1081 C 0.03886 0.62591 0.07578 0.0
C1082 C 1.00912 0.60094 0.04601 0.0
C1083 C 0.02816 0.57723 0.046 0.0
C1084 C 0.05302 0.57838 0.06056 0.0
H1085 H 0.03633 0.41518 0.96723 0.0
H1086 H 0.04462 0.45695 0.9933 0.0
C1087 C 0.05826 0.60239 0.07537 0.0
C1088 C 0.02205 0.55157 0.03053 0.0
H1089 H 1.01062 0.47848 0.03152 0.0
C1090 C 0.01911 0.55557 1.00586 0.0
C1091 C 0.01862 0.52342 0.03991 0.0
C1092 C 0.02 0.51784 0.06632 0.0
C1093 C 1.01344 0.53221 0.99032 0.0
C1094 C 1.01021 0.50407 0.9997 0.0
C1095 C 1.0131 0.50005 0.02435 0.0
C1096 C 1.00446 0.47844 0.98417 0.0
C1097 C 1.01165 0.53771 0.96392 0.0
C1098 C 0.97883 0.4763 0.97063 0.0
C1099 C 0.97393 0.45232 0.9557 0.0
C1100 C 0.99459 0.42997 0.95402 0.0
C1101 C 0.01997 0.43198 0.96797 0.0
C1102 C 0.02477 0.45587 0.98293 0.0
H1103 H 0.02109 0.55899 0.95916 0.0
H1104 H 0.0231 0.52049 0.95375 0.0
H1105 H 0.98855 0.53761 0.95828 0.0
H1106 H 0.9626 0.49321 0.97161 0.0
H1107 H 0.95412 0.45146 0.94528 0.0
H1108 H 0.10712 0.01779 0.96407 0.0
H1109 H 0.06731 0.02622 0.99179 0.0
H1110 H 0.02331 0.9506 0.96449 0.0
H1111 H 0.06344 0.94171 0.93682 0.0
H1112 H 1.01012 0.03702 0.98185 0.0
H1113 H 0.01967 0.93749 0.03588 0.0
H1114 H 0.04782 0.94902 0.01584 0.0
H1115 H 0.01608 0.93096 1.00446 0.0
C1116 C 0.08913 1.00273 0.96404 0.0
C1117 C 0.08863 0.97896 0.94821 0.0
C1118 C 0.0663 1.00765 0.97992 0.0
C1119 C 0.04236 0.98891 0.98051 0.0
C1120 C 0.04177 0.96507 0.96478 0.0
H1121 H 0.8823 0.98745 0.06262 0.0
H1122 H 0.92176 0.97799 0.03471 0.0
C1123 C 0.0647 0.96007 0.94887 0.0
C1124 C 0.01774 0.99507 0.99701 0.0
H1125 H 0.97873 0.96725 0.04317 0.0
C1126 C 1.00333 0.02179 0.99531 0.0
C1127 C 1.00876 0.97522 0.01458 0.0
C1128 C 0.02401 0.94667 0.01803 0.0
C1129 C 0.98002 0.02901 0.01036 0.0
C1130 C 0.97113 1.00923 0.02803 0.0
C1131 C 0.98548 0.98246 0.02968 0.0
C1132 C 0.94685 0.01568 0.04483 0.0
C1133 C 0.96471 0.05751 1.00678 0.0
C1134 C 0.94771 0.04 0.06004 0.0
C1135 C 0.92499 0.04561 0.076 0.0
C1136 C 0.90102 0.02683 0.0773 0.0
C1137 C 0.90033 1.00244 0.06214 0.0
C1138 C 0.92296 0.99693 0.04615 0.0
H1139 H 0.96852 0.06621 0.98868 0.0
H1140 H 0.94097 0.05532 0.00949 0.0
H1141 H 0.97316 0.07354 0.01987 0.0
H1142 H 0.96617 0.05446 0.05984 0.0
H1143 H 0.92641 0.06444 0.08753 0.0
H1144 H 0.55382 0.91818 0.07811 0.0
H1145 H 0.56047 0.95578 0.04834 0.0
H1146 H 0.46811 0.9584 0.03623 0.0
H1147 H 0.46119 0.92089 0.06634 0.0
H1148 H 0.54702 0.95665 1.00064 0.0
H1149 H 0.48668 0.04342 0.04795 0.0
H1150 H 0.49737 1.01026 0.06228 0.0
H1151 H 0.46613 1.01093 0.04303 0.0
C1152 C 0.53482 0.92672 0.06919 0.0
C1153 C 0.50691 0.91647 0.07481 0.0
C1154 C 0.53871 0.94828 0.05209 0.0
C1155 C 0.51481 0.9604 0.0402 0.0
C1156 C 0.4869 0.94993 0.04546 0.0
H1157 H 0.49602 0.09256 0.93133 0.0
H1158 H 0.48906 0.05471 0.96086 0.0
C1159 C 0.48298 0.92828 0.0626 0.0
C1160 C 0.51934 0.98364 0.02215 0.0
H1161 H 0.50224 0.05375 0.00877 0.0
C1162 C 0.53729 0.97791 1.00248 0.0
C1163 C 0.50673 1.01148 0.02446 0.0
C1164 C 0.48837 0.01959 0.04566 0.0
C1165 C 0.54252 0.99892 0.98495 0.0
C1166 C 0.52993 0.02677 0.98727 0.0
C1167 C 0.51195 0.03249 1.00692 0.0
C1168 C 0.53462 0.05006 0.9693 0.0
C1169 C 0.56091 0.99083 0.96376 0.0
C1170 C 0.56259 0.06056 0.96428 0.0
C1171 C 0.56669 0.08235 0.9473 0.0
C1172 C 0.54289 0.09426 0.93499 0.0
C1173 C 0.51492 0.08394 0.94032 0.0
C1174 C 0.51085 0.06224 0.95729 0.0
H1175 H 0.56257 0.967 0.96145 0.0
H1176 H 0.55193 1.0002 0.94715 0.0
H1177 H 0.58315 0.99947 0.96643 0.0
H1178 H 0.58128 0.05203 0.97362 0.0
H1179 H 0.58851 0.08981 0.94379 0.0
H1180 H 0.44007 0.58325 0.93983 0.0
H1181 H 0.48056 0.57517 0.96758 0.0
H1182 H 0.45438 0.48627 0.97529 0.0
H1183 H 0.41431 0.49399 0.94756 0.0
H1184 H 0.48095 0.55694 0.01492 0.0
H1185 H 0.53972 0.47773 0.95838 0.0
H1186 H 0.51078 0.50007 0.94701 0.0
H1187 H 0.50262 0.46807 0.96371 0.0
C1188 C 0.44294 0.56197 0.94741 0.0
C1189 C 0.42392 0.53925 0.94125 0.0
C1190 C 0.46613 0.55737 0.9633 0.0
C1191 C 0.47097 0.52993 0.97324 0.0
C1192 C 0.45165 0.50744 0.96748 0.0
H1193 H 0.59666 0.45589 0.07322 0.0
H1194 H 0.55627 0.46443 0.0455 0.0
C1195 C 0.42853 0.512 0.95167 0.0
C1196 C 0.49584 0.52479 0.98991 0.0
H1197 H 0.55626 0.48286 0.99833 0.0
C1198 C 0.49751 0.54088 0.0112 0.0
C1199 C 0.51749 0.50372 0.98521 0.0
C1200 C 0.51781 0.48658 0.96224 0.0
C1201 C 0.51975 0.5361 0.02804 0.0
C1202 C 0.54136 0.515 0.02335 0.0
C1203 C 0.53971 0.49894 1.00204 0.0
C1204 C 0.56611 0.50966 0.0401 0.0
C1205 C 0.51943 0.55325 0.051 0.0
C1206 C 0.58554 0.532 0.04603 0.0
C1207 C 0.60862 0.52718 0.06183 0.0
C1208 C 0.61308 0.4998 0.07207 0.0
C1209 C 0.59391 0.47725 0.06578 0.0
C1210 C 0.57077 0.48212 0.0499 0.0
H1211 H 0.49756 0.56221 0.05482 0.0
H1212 H 0.52635 0.53971 0.06625 0.0
H1213 H 0.53473 0.57167 0.04957 0.0
H1214 H 0.58295 0.55325 0.03832 0.0
H1215 H 0.62295 0.54507 0.06605 0.0
H1216 H 0.05497 0.95308 0.41744 0.0
H1217 H 0.04016 0.99405 0.44243 0.0
H1218 H 0.04507 0.94016 0.50462 0.0
H1219 H 0.05915 0.89896 0.47971 0.0
H1220 H 0.99564 0.96953 0.50398 0.0
H1221 H 0.08544 0.04599 0.48682 0.0
H1222 H 0.06774 0.03386 0.46004 0.0
H1223 H 0.08712 1.00834 0.47818 0.0
C1224 C 0.05324 0.95001 0.43648 0.0
C1225 C 0.05829 0.92265 0.44653 0.0
C1226 C 0.04493 0.97357 0.4508 0.0
C1227 C 0.04188 0.97044 0.47554 0.0
C1228 C 0.04735 0.94324 0.48562 0.0
H1229 H 0.01363 0.10735 0.58172 0.0
H1230 H 0.03502 0.07059 0.55538 0.0
C1231 C 0.05544 0.91965 0.47132 0.0
C1232 C 0.03122 0.99484 0.49076 0.0
H1233 H 0.04392 0.06536 0.50669 0.0
C1234 C 1.00633 0.99041 0.50462 0.0
C1235 C 0.04528 0.02209 0.49192 0.0
C1236 C 0.07304 0.02783 0.47864 0.0
C1237 C 0.99489 0.01242 0.51922 0.0
C1238 C 1.00821 0.04004 0.51961 0.0
C1239 C 0.03345 0.04437 0.50615 0.0
C1240 C 0.99625 0.06445 0.53409 0.0
C1241 C 0.96889 1.00564 0.53444 0.0
C1242 C 0.96771 0.0741 0.53037 0.0
C1243 C 0.95541 0.09496 0.54543 0.0
C1244 C 0.97148 0.10701 0.56441 0.0
C1245 C 1.00063 0.09857 0.56728 0.0
C1246 C 1.01288 0.07749 0.55226 0.0
H1247 H 0.96652 0.982 0.53727 0.0
H1248 H 0.97045 0.01654 0.55208 0.0
H1249 H 0.94894 0.01339 0.52538 0.0
H1250 H 0.95466 0.06497 0.5161 0.0
H1251 H 0.93301 0.10112 0.54253 0.0
H1252 H 0.60533 0.07556 0.45725 0.0
H1253 H 0.5668 0.06691 0.48646 0.0
H1254 H 0.54079 0.9903 0.44773 0.0
H1255 H 0.57916 0.99849 0.41882 0.0
H1256 H 0.50631 0.06232 0.48047 0.0
H1257 H 0.55155 0.95965 0.51495 0.0
H1258 H 0.57245 0.98407 0.49691 0.0
H1259 H 0.54678 0.95975 0.48323 0.0
C1260 C 0.59146 0.05683 0.455 0.0
C1261 C 0.59559 0.03763 0.43572 0.0
C1262 C 0.56939 0.05193 0.4717 0.0
C1263 C 0.55114 0.02764 0.46958 0.0
C1264 C 0.55494 1.00881 0.45012 0.0
H1265 H 0.40975 0.95462 0.55357 0.0
H1266 H 0.4441 0.96634 0.5218 0.0
C1267 C 0.57689 0.01366 0.43348 0.0
C1268 C 0.52795 0.02199 0.48746 0.0
H1269 H 0.50372 0.97164 0.52704 0.0
C1270 C 0.50584 0.04257 0.49074 0.0
C1271 C 0.52716 0.99615 0.50085 0.0
C1272 C 0.55088 0.97374 0.49903 0.0
C1273 C 0.48279 0.03778 0.50666 0.0
C1274 C 0.482 1.01191 0.52001 0.0
C1275 C 0.50412 0.99137 0.51671 0.0
C1276 C 0.45916 1.00614 0.53818 0.0
C1277 C 0.45915 0.06024 0.50864 0.0
C1278 C 0.4559 0.02466 0.55792 0.0
C1279 C 0.43628 0.01804 0.57605 0.0
C1280 C 0.41946 0.99262 0.57502 0.0
C1281 C 0.42215 0.97446 0.55491 0.0
C1282 C 0.44191 0.98108 0.53677 0.0
H1283 H 0.45824 0.07417 0.49263 0.0
H1284 H 0.43761 0.04997 0.51111 0.0
H1285 H 0.46359 0.07436 0.5243 0.0
H1286 H 0.46929 0.0438 0.55975 0.0
H1287 H 0.43497 0.0325 0.59128 0.0
H1288 H 0.56693 0.41185 0.55791 0.0
H1289 H 0.56033 0.44945 0.52768 0.0
H1290 H 0.4802 0.47542 0.56085 0.0
H1291 H 0.48673 0.4384 0.5911 0.0
H1292 H 0.51557 0.45777 0.49494 0.0
H1293 H 0.52254 0.5522 0.55608 0.0
H1294 H 0.53352 0.51634 0.56484 0.0
H1295 H 0.49575 0.52616 0.56463 0.0
C1296 C 0.54795 0.42563 0.55882 0.0
C1297 C 0.52748 0.4221 0.57711 0.0
C1298 C 0.54419 0.44714 0.54149 0.0
C1299 C 0.52001 0.46574 0.54216 0.0
C1300 C 0.49939 0.46192 0.56019 0.0
H1301 H 0.45618 0.6079 0.45325 0.0
H1302 H 0.46221 0.57028 0.48356 0.0
C1303 C 0.5031 0.4405 0.57745 0.0
C1304 C 0.5159 0.48868 0.52377 0.0
H1305 H 0.50667 0.56163 0.51658 0.0
C1306 C 0.51382 0.48048 0.49968 0.0
C1307 C 0.5134 0.5184 0.52986 0.0
C1308 C 0.51668 0.52891 0.55523 0.0
C1309 C 0.50882 0.50099 0.48167 0.0
C1310 C 0.50636 0.53071 0.48776 0.0
C1311 C 0.5084 0.53891 0.51185 0.0
C1312 C 0.50253 0.55366 0.46933 0.0
C1313 C 0.50554 0.49047 0.45631 0.0
C1314 C 0.52334 0.55729 0.45142 0.0
C1315 C 0.51994 0.57871 0.43412 0.0
C1316 C 0.49571 0.59731 0.4343 0.0
C1317 C 0.47504 0.59396 0.45246 0.0
C1318 C 0.47849 0.57244 0.46984 0.0
H1319 H 0.4995 0.46722 0.45547 0.0
H1320 H 0.48884 0.50315 0.44664 0.0
H1321 H 0.52653 0.49303 0.44695 0.0
H1322 H 0.54244 0.54366 0.4509 0.0
H1323 H 0.53647 0.58067 0.42059 0.0
H1324 H 0.90736 0.53879 0.45186 0.0
H1325 H 0.94799 0.54562 0.47937 0.0
H1326 H 0.97923 0.46005 0.46242 0.0
H1327 H 0.93878 0.45319 0.43444 0.0
H1328 H 0.96353 0.5165 0.5193 0.0
H1329 H 0.0518 0.50789 0.45286 0.0
H1330 H 0.01421 0.51183 0.44439 0.0
H1331 H 0.02809 0.47712 0.45316 0.0
C1332 C 0.92287 0.52137 0.45387 0.0
C1333 C 0.91975 0.49545 0.44074 0.0
C1334 C 0.94615 0.52534 0.46969 0.0
C1335 C 0.96709 0.5036 0.47278 0.0
C1336 C 0.96383 0.47748 0.46 0.0
H1337 H 0.12026 0.48599 0.56284 0.0
H1338 H 0.0801 0.47959 0.53477 0.0
C1339 C 0.94051 0.47349 0.4441 0.0
C1340 C 0.99192 0.50825 0.48968 0.0
H1341 H 0.06607 0.50968 0.49349 0.0
C1342 C 0.98594 0.51513 0.5136 0.0
C1343 C 0.02127 0.50654 0.48236 0.0
C1344 C 0.02933 0.50072 0.45676 0.0
C1345 C 1.00832 0.51977 0.53037 0.0
C1346 C 0.03765 0.51797 0.52306 0.0
C1347 C 0.04365 0.5111 0.49916 0.0
C1348 C 0.0624 0.52248 0.54002 0.0
C1349 C 1.00034 0.52584 0.55595 0.0
C1350 C 0.06629 0.54894 0.55217 0.0
C1351 C 0.0894 0.55274 0.5683 0.0
C1352 C 0.10921 0.53015 0.57263 0.0
C1353 C 0.10547 0.50388 0.5601 0.0
C1354 C 0.08247 0.50015 0.54397 0.0
H1355 H 0.97761 0.51946 0.55981 0.0
H1356 H 0.01504 0.51418 0.56831 0.0
H1357 H 1.00248 0.54936 0.5596 0.0
H1358 H 0.05149 0.56674 0.54913 0.0
H1359 H 0.09161 0.57329 0.57751 0.0
loop_
_geom_bond_atom_site_label_1
_geom_bond_atom_site_label_2
_geom_bond_distance
_geom_bond_site_symmetry_2
_ccdc_geom_bond_type
Mg0 O7 2.141 . S
Mg0 O8 2.048 . S
Mg0 O9 2.048 . S
Mg0 O12 2.141 . S
C1 O2 1.313 . S
C1 O8 1.195 1_655 S
O2 C1 1.313 . S
C3 O4 1.245 . S
C3 O12 1.289 . S
O4 C3 1.245 . S
C5 O6 1.245 . S
C5 O7 1.289 . S
O6 C5 1.245 . S
O7 Mg0 2.141 . S
O7 C5 1.289 . S
O8 Mg0 2.048 . S
O8 C1 1.195 1_455 S
O9 Mg0 2.048 . S
O9 C10 1.195 . S
C10 O9 1.195 . S
C10 O11 1.313 . S
O11 C10 1.313 . S
O12 Mg0 2.141 . S
O12 C3 1.289 . S
Mg13 O20 2.141 . S
Mg13 O21 2.048 . S
Mg13 O22 2.048 . S
Mg13 O25 2.141 . S
C14 O15 1.313 . S
C14 O21 1.195 1_565 S
O15 C14 1.313 . S
C16 O17 1.245 . S
C16 O25 1.289 . S
O17 C16 1.245 . S
C18 O19 1.245 . S
C18 O20 1.289 . S
O19 C18 1.245 . S
O20 Mg13 2.141 . S
O20 C18 1.289 . S
O21 Mg13 2.048 . S
O21 C14 1.195 1_545 S
O22 Mg13 2.048 . S
O22 C23 1.195 . S
C23 O22 1.195 . S
C23 O24 1.313 . S
O24 C23 1.313 . S
O25 Mg13 2.141 . S
O25 C16 1.289 . S
Mg26 O33 2.141 . S
Mg26 O34 2.048 . S
Mg26 O35 2.048 . S
Mg26 O38 2.141 . S
C27 O28 1.313 . S
C27 O34 1.195 . S
O28 C27 1.313 . S
C29 O30 1.245 . S
C29 O38 1.289 . S
O30 C29 1.245 . S
C31 O32 1.245 . S
C31 O33 1.289 . S
O32 C31 1.245 . S
O33 Mg26 2.141 . S
O33 C31 1.289 . S
O34 Mg26 2.048 . S
O34 C27 1.195 . S
O35 Mg26 2.048 . S
O35 C36 1.195 . S
C36 O35 1.195 . S
C36 O37 1.313 . S
O37 C36 1.313 . S
O38 Mg26 2.141 . S
O38 C29 1.289 . S
Mg39 O46 2.141 . S
Mg39 O47 2.048 . S
Mg39 O48 2.048 . S
Mg39 O51 2.141 . S
C40 O41 1.313 . S
C40 O47 1.195 . S
O41 C40 1.313 . S
C42 O43 1.245 . S
C42 O51 1.289 . S
O43 C42 1.245 . S
C44 O45 1.245 . S
C44 O46 1.289 . S
O45 C44 1.245 . S
O46 Mg39 2.141 . S
O46 C44 1.289 . S
O47 Mg39 2.048 . S
O47 C40 1.195 . S
O48 Mg39 2.048 . S
O48 C49 1.195 . S
C49 O48 1.195 . S
C49 O50 1.313 . S
O50 C49 1.313 . S
O51 Mg39 2.141 . S
O51 C42 1.289 . S
Mg52 O59 2.141 . S
Mg52 O60 2.048 . S
Mg52 O61 2.048 . S
Mg52 O64 2.141 . S
C53 O54 1.313 . S
C53 O60 1.195 1_655 S
O54 C53 1.313 . S
C55 O56 1.245 . S
C55 O64 1.289 . S
O56 C55 1.245 . S
C57 O58 1.245 . S
C57 O59 1.289 . S
O58 C57 1.245 . S
O59 Mg52 2.141 . S
O59 C57 1.289 . S
O60 Mg52 2.048 . S
O60 C53 1.195 1_455 S
O61 Mg52 2.048 . S
O61 C62 1.195 . S
C62 O61 1.195 . S
C62 O63 1.313 . S
O63 C62 1.313 . S
O64 Mg52 2.141 . S
O64 C55 1.289 . S
Mg65 O72 2.141 . S
Mg65 O73 2.048 . S
Mg65 O74 2.048 . S
Mg65 O77 2.141 . S
C66 O67 1.313 . S
C66 O73 1.195 1_565 S
O67 C66 1.313 . S
C68 O69 1.245 . S
C68 O77 1.289 . S
O69 C68 1.245 . S
C70 O71 1.245 . S
C70 O72 1.289 . S
O71 C70 1.245 . S
O72 Mg65 2.141 . S
O72 C70 1.289 . S
O73 Mg65 2.048 . S
O73 C66 1.195 1_545 S
O74 Mg65 2.048 . S
O74 C75 1.195 . S
C75 O74 1.195 . S
C75 O76 1.313 . S
O76 C75 1.313 . S
O77 Mg65 2.141 . S
O77 C68 1.289 . S
Mg78 O85 2.141 . S
Mg78 O86 2.048 . S
Mg78 O87 2.048 . S
Mg78 O90 2.141 . S
C79 O80 1.313 . S
C79 O86 1.195 . S
O80 C79 1.313 . S
C81 O82 1.245 . S
C81 O90 1.289 . S
O82 C81 1.245 . S
C83 O84 1.245 . S
C83 O85 1.289 . S
O84 C83 1.245 . S
O85 Mg78 2.141 . S
O85 C83 1.289 . S
O86 Mg78 2.048 . S
O86 C79 1.195 . S
O87 Mg78 2.048 . S
O87 C88 1.195 . S
C88 O87 1.195 . S
C88 O89 1.313 . S
O89 C88 1.313 . S
O90 Mg78 2.141 . S
O90 C81 1.289 . S
Mg91 O98 2.141 . S
Mg91 O99 2.048 . S
Mg91 O100 2.048 . S
Mg91 O103 2.141 . S
C92 O93 1.313 . S
C92 O99 1.195 . S
O93 C92 1.313 . S
C94 O95 1.245 . S
C94 O103 1.289 . S
O95 C94 1.245 . S
C96 O97 1.245 . S
C96 O98 1.289 . S
O97 C96 1.245 . S
O98 Mg91 2.141 . S
O98 C96 1.289 . S
O99 Mg91 2.048 . S
O99 C92 1.195 . S
O100 Mg91 2.048 . S
O100 C101 1.195 . S
C101 O100 1.195 . S
C101 O102 1.313 . S
O102 C101 1.313 . S
O103 Mg91 2.141 . S
O103 C94 1.289 . S
Mg104 O111 2.141 . S
Mg104 O112 2.048 . S
Mg104 O113 2.048 . S
Mg104 O116 2.141 . S
C105 O106 1.313 . S
C105 O112 1.195 . S
O106 C105 1.313 . S
C107 O108 1.245 . S
C107 O116 1.289 . S
O108 C107 1.245 . S
C109 O110 1.245 . S
C109 O111 1.289 . S
O110 C109 1.245 . S
O111 Mg104 2.141 . S
O111 C109 1.289 . S
O112 Mg104 2.048 . S
O112 C105 1.195 . S
O113 Mg104 2.048 . S
O113 C114 1.195 1_655 S
C114 O113 1.195 1_455 S
C114 O115 1.313 . S
O115 C114 1.313 . S
O116 Mg104 2.141 . S
O116 C107 1.289 . S
Mg117 O124 2.141 . S
Mg117 O125 2.048 . S
Mg117 O126 2.048 . S
Mg117 O129 2.141 . S
C118 O119 1.313 . S
C118 O125 1.195 . S
O119 C118 1.313 . S
C120 O121 1.245 . S
C120 O129 1.289 . S
O121 C120 1.245 . S
C122 O123 1.245 . S
C122 O124 1.289 . S
O123 C122 1.245 . S
O124 Mg117 2.141 . S
O124 C122 1.289 . S
O125 Mg117 2.048 . S
O125 C118 1.195 . S
O126 Mg117 2.048 . S
O126 C127 1.195 1_565 S
C127 O126 1.195 1_545 S
C127 O128 1.313 . S
O128 C127 1.313 . S
O129 Mg117 2.141 . S
O129 C120 1.289 . S
Mg130 O137 2.141 . S
Mg130 O138 2.048 . S
Mg130 O139 2.048 . S
Mg130 O142 2.141 . S
C131 O132 1.313 . S
C131 O138 1.195 . S
O132 C131 1.313 . S
C133 O134 1.245 . S
C133 O142 1.289 . S
O134 C133 1.245 . S
C135 O136 1.245 . S
C135 O137 1.289 . S
O136 C135 1.245 . S
O137 Mg130 2.141 . S
O137 C135 1.289 . S
O138 Mg130 2.048 . S
O138 C131 1.195 . S
O139 Mg130 2.048 . S
O139 C140 1.195 . S
C140 O139 1.195 . S
C140 O141 1.313 . S
O141 C140 1.313 . S
O142 Mg130 2.141 . S
O142 C133 1.289 . S
Mg143 O150 2.141 . S
Mg143 O151 2.048 . S
Mg143 O152 2.048 . S
Mg143 O155 2.141 . S
C144 O145 1.313 . S
C144 O151 1.195 . S
O145 C144 1.313 . S
C146 O147 1.245 . S
C146 O155 1.289 . S
O147 C146 1.245 . S
C148 O149 1.245 . S
C148 O150 1.289 . S
O149 C148 1.245 . S
O150 Mg143 2.141 . S
O150 C148 1.289 . S
O151 Mg143 2.048 . S
O151 C144 1.195 . S
O152 Mg143 2.048 . S
O152 C153 1.195 . S
C153 O152 1.195 . S
C153 O154 1.313 . S
O154 C153 1.313 . S
O155 Mg143 2.141 . S
O155 C146 1.289 . S
Mg156 O163 2.141 . S
Mg156 O164 2.048 . S
Mg156 O165 2.048 . S
Mg156 O168 2.141 . S
C157 O158 1.313 . S
C157 O164 1.195 . S
O158 C157 1.313 . S
C159 O160 1.245 . S
C159 O168 1.289 . S
O160 C159 1.245 . S
C161 O162 1.245 . S
C161 O163 1.289 . S
O162 C161 1.245 . S
O163 Mg156 2.141 . S
O163 C161 1.289 . S
O164 Mg156 2.048 . S
O164 C157 1.195 . S
O165 Mg156 2.048 . S
O165 C166 1.195 1_655 S
C166 O165 1.195 1_455 S
C166 O167 1.313 . S
O167 C166 1.313 . S
O168 Mg156 2.141 . S
O168 C159 1.289 . S
Mg169 O176 2.141 . S
Mg169 O177 2.048 . S
Mg169 O178 2.048 . S
Mg169 O181 2.141 . S
C170 O171 1.313 . S
C170 O177 1.195 . S
O171 C170 1.313 . S
C172 O173 1.245 . S
C172 O181 1.289 . S
O173 C172 1.245 . S
C174 O175 1.245 . S
C174 O176 1.289 . S
O175 C174 1.245 . S
O176 Mg169 2.141 . S
O176 C174 1.289 . S
O177 Mg169 2.048 . S
O177 C170 1.195 . S
O178 Mg169 2.048 . S
O178 C179 1.195 1_565 S
C179 O178 1.195 1_545 S
C179 O180 1.313 . S
O180 C179 1.313 . S
O181 Mg169 2.141 . S
O181 C172 1.289 . S
Mg182 O189 2.141 . S
Mg182 O190 2.048 . S
Mg182 O191 2.048 . S
Mg182 O194 2.141 . S
C183 O184 1.313 . S
C183 O190 1.195 . S
O184 C183 1.313 . S
C185 O186 1.245 . S
C185 O194 1.289 . S
O186 C185 1.245 . S
C187 O188 1.245 . S
C187 O189 1.289 . S
O188 C187 1.245 . S
O189 Mg182 2.141 . S
O189 C187 1.289 . S
O190 Mg182 2.048 . S
O190 C183 1.195 . S
O191 Mg182 2.048 . S
O191 C192 1.195 . S
C192 O191 1.195 . S
C192 O193 1.313 . S
O193 C192 1.313 . S
O194 Mg182 2.141 . S
O194 C185 1.289 . S
Mg195 O202 2.141 . S
Mg195 O203 2.048 . S
Mg195 O204 2.048 . S
Mg195 O207 2.141 . S
C196 O197 1.313 . S
C196 O203 1.195 . S
O197 C196 1.313 . S
C198 O199 1.245 . S
C198 O207 1.289 . S
O199 C198 1.245 . S
C200 O201 1.245 . S
C200 O202 1.289 . S
O201 C200 1.245 . S
O202 Mg195 2.141 . S
O202 C200 1.289 . S
O203 Mg195 2.048 . S
O203 C196 1.195 . S
O204 Mg195 2.048 . S
O204 C205 1.195 . S
C205 O204 1.195 . S
C205 O206 1.313 . S
O206 C205 1.313 . S
O207 Mg195 2.141 . S
O207 C198 1.289 . S
H208 C216 0.929 . S
H209 C218 0.930 . S
H210 C220 0.930 . S
H211 C223 0.929 . S
H212 C226 0.930 . S
H213 C228 0.960 . S
H214 C228 0.960 . S
H215 C228 0.960 . S
C216 H208 0.929 . S
C216 C217 1.377 . S
C216 C218 1.384 . S
C217 C216 1.377 . S
C217 C223 1.390 . S
C218 H209 0.930 . S
C218 C216 1.384 . S
C218 C219 1.372 . S
C219 C218 1.372 . S
C219 C220 1.400 . S
C219 C224 1.490 . S
C220 H210 0.930 . S
C220 C219 1.400 . S
C220 C223 1.386 . S
H221 C237 0.930 . S
H222 C238 0.931 . S
C223 H211 0.929 . S
C223 C217 1.390 . S
C223 C220 1.386 . S
C224 C219 1.490 . S
C224 C226 1.395 . S
C224 C227 1.403 . S
H225 C231 0.930 . S
C226 H212 0.930 . S
C226 C224 1.395 . S
C226 C229 1.403 . S
C227 C224 1.403 . S
C227 C228 1.524 . S
C227 C231 1.400 . S
C228 H213 0.960 . S
C228 H214 0.960 . S
C228 H215 0.960 . S
C228 C227 1.524 . S
C229 C226 1.403 . S
C229 C230 1.392 . S
C229 C233 1.495 . S
C230 C229 1.392 . S
C230 C231 1.385 . S
C230 C232 1.478 . S
C231 H225 0.930 . S
C231 C227 1.400 . S
C231 C230 1.385 . S
C232 C230 1.478 . S
C232 C234 1.381 . S
C232 C238 1.383 . S
C233 C229 1.495 . S
C233 H239 0.959 . S
C233 H240 0.961 . S
C233 H241 0.960 . S
C234 C232 1.381 . S
C234 C235 1.394 . S
C234 H242 0.930 . S
C235 C234 1.394 . S
C235 C236 1.383 . S
C235 H243 0.929 . S
C236 C235 1.383 . S
C236 C237 1.377 . S
C237 H221 0.930 . S
C237 C236 1.377 . S
C237 C238 1.379 . S
C238 H222 0.931 . S
C238 C232 1.383 . S
C238 C237 1.379 . S
H239 C233 0.959 . S
H240 C233 0.961 . S
H241 C233 0.960 . S
H242 C234 0.930 . S
H243 C235 0.929 . S
H244 C252 0.929 . S
H245 C254 0.930 . S
H246 C256 0.930 . S
H247 C259 0.929 . S
H248 C262 0.930 . S
H249 C264 0.960 . S
H250 C264 0.960 . S
H251 C264 0.960 . S
C252 H244 0.929 . S
C252 C253 1.377 . S
C252 C254 1.384 . S
C253 C252 1.377 . S
C253 C259 1.390 . S
C254 H245 0.930 . S
C254 C252 1.384 . S
C254 C255 1.372 . S
C255 C254 1.372 . S
C255 C256 1.400 . S
C255 C260 1.490 . S
C256 H246 0.930 . S
C256 C255 1.400 . S
C256 C259 1.386 . S
H257 C273 0.930 . S
H258 C274 0.931 . S
C259 H247 0.929 . S
C259 C253 1.390 . S
C259 C256 1.386 . S
C260 C255 1.490 . S
C260 C262 1.395 . S
C260 C263 1.403 . S
H261 C267 0.930 . S
C262 H248 0.930 . S
C262 C260 1.395 . S
C262 C265 1.403 . S
C263 C260 1.403 . S
C263 C264 1.524 . S
C263 C267 1.400 . S
C264 H249 0.960 . S
C264 H250 0.960 . S
C264 H251 0.960 . S
C264 C263 1.524 . S
C265 C262 1.403 . S
C265 C266 1.392 . S
C265 C269 1.495 . S
C266 C265 1.392 . S
C266 C267 1.385 . S
C266 C268 1.478 . S
C267 H261 0.930 . S
C267 C263 1.400 . S
C267 C266 1.385 . S
C268 C266 1.478 . S
C268 C270 1.381 . S
C268 C274 1.383 . S
C269 C265 1.495 . S
C269 H275 0.959 . S
C269 H276 0.961 . S
C269 H277 0.960 . S
C270 C268 1.381 . S
C270 C271 1.394 . S
C270 H278 0.930 . S
C271 C270 1.394 . S
C271 C272 1.383 . S
C271 H279 0.929 . S
C272 C271 1.383 . S
C272 C273 1.377 . S
C273 H257 0.930 . S
C273 C272 1.377 . S
C273 C274 1.379 . S
C274 H258 0.931 . S
C274 C268 1.383 . S
C274 C273 1.379 . S
H275 C269 0.959 . S
H276 C269 0.961 . S
H277 C269 0.960 . S
H278 C270 0.930 . S
H279 C271 0.929 . S
H280 C288 0.929 . S
H281 C290 0.930 . S
H282 C292 0.930 . S
H283 C295 0.929 . S
H284 C298 0.930 . S
H285 C300 0.960 . S
H286 C300 0.960 . S
H287 C300 0.960 . S
C288 H280 0.929 . S
C288 C289 1.377 . S
C288 C290 1.384 . S
C289 C288 1.377 . S
C289 C295 1.390 . S
C290 H281 0.930 . S
C290 C288 1.384 . S
C290 C291 1.372 . S
C291 C290 1.372 . S
C291 C292 1.400 . S
C291 C296 1.490 . S
C292 H282 0.930 . S
C292 C291 1.400 . S
C292 C295 1.386 . S
H293 C309 0.930 . S
H294 C310 0.931 . S
C295 H283 0.929 . S
C295 C289 1.390 . S
C295 C292 1.386 . S
C296 C291 1.490 . S
C296 C298 1.395 . S
C296 C299 1.403 . S
H297 C303 0.930 . S
C298 H284 0.930 . S
C298 C296 1.395 . S
C298 C301 1.403 . S
C299 C296 1.403 . S
C299 C300 1.524 . S
C299 C303 1.400 . S
C300 H285 0.960 . S
C300 H286 0.960 . S
C300 H287 0.960 . S
C300 C299 1.524 . S
C301 C298 1.403 . S
C301 C302 1.392 . S
C301 C305 1.495 . S
C302 C301 1.392 . S
C302 C303 1.385 . S
C302 C304 1.478 . S
C303 H297 0.930 . S
C303 C299 1.400 . S
C303 C302 1.385 . S
C304 C302 1.478 . S
C304 C306 1.381 . S
C304 C310 1.383 . S
C305 C301 1.495 . S
C305 H311 0.959 . S
C305 H312 0.961 . S
C305 H313 0.960 . S
C306 C304 1.381 . S
C306 C307 1.394 . S
C306 H314 0.930 . S
C307 C306 1.394 . S
C307 C308 1.383 . S
C307 H315 0.929 . S
C308 C307 1.383 . S
C308 C309 1.377 . S
C309 H293 0.930 . S
C309 C308 1.377 . S
C309 C310 1.379 . S
C310 H294 0.931 . S
C310 C304 1.383 . S
C310 C309 1.379 . S
H311 C305 0.959 . S
H312 C305 0.961 . S
H313 C305 0.960 . S
H314 C306 0.930 . S
H315 C307 0.929 . S
H316 C324 0.929 . S
H317 C326 0.930 . S
H318 C328 0.930 . S
H319 C331 0.929 . S
H320 C334 0.930 . S
H321 C336 0.960 . S
H322 C336 0.960 . S
H323 C336 0.960 . S
C324 H316 0.929 . S
C324 C325 1.377 . S
C324 C326 1.384 . S
C325 C324 1.377 . S
C325 C331 1.390 . S
C326 H317 0.930 . S
C326 C324 1.384 . S
C326 C327 1.372 . S
C327 C326 1.372 . S
C327 C328 1.400 . S
C327 C332 1.490 . S
C328 H318 0.930 . S
C328 C327 1.400 . S
C328 C331 1.386 . S
H329 C345 0.930 . S
H330 C346 0.931 . S
C331 H319 0.929 . S
C331 C325 1.390 . S
C331 C328 1.386 . S
C332 C327 1.490 . S
C332 C334 1.395 . S
C332 C335 1.403 . S
H333 C339 0.930 . S
C334 H320 0.930 . S
C334 C332 1.395 . S
C334 C337 1.403 . S
C335 C332 1.403 . S
C335 C336 1.524 . S
C335 C339 1.400 . S
C336 H321 0.960 . S
C336 H322 0.960 . S
C336 H323 0.960 . S
C336 C335 1.524 . S
C337 C334 1.403 . S
C337 C338 1.392 . S
C337 C341 1.495 . S
C338 C337 1.392 . S
C338 C339 1.385 . S
C338 C340 1.478 . S
C339 H333 0.930 . S
C339 C335 1.400 . S
C339 C338 1.385 . S
C340 C338 1.478 . S
C340 C342 1.381 . S
C340 C346 1.383 . S
C341 C337 1.495 . S
C341 H347 0.959 . S
C341 H348 0.961 . S
C341 H349 0.960 . S
C342 C340 1.381 . S
C342 C343 1.394 . S
C342 H350 0.930 . S
C343 C342 1.394 . S
C343 C344 1.383 . S
C343 H351 0.929 . S
C344 C343 1.383 . S
C344 C345 1.377 . S
C345 H329 0.930 . S
C345 C344 1.377 . S
C345 C346 1.379 . S
C346 H330 0.931 . S
C346 C340 1.383 . S
C346 C345 1.379 . S
H347 C341 0.959 . S
H348 C341 0.961 . S
H349 C341 0.960 . S
H350 C342 0.930 . S
H351 C343 0.929 . S
H352 C360 0.929 . S
H353 C362 0.930 . S
H354 C364 0.930 . S
H355 C367 0.929 . S
H356 C370 0.930 . S
H357 C372 0.960 . S
H358 C372 0.960 . S
H359 C372 0.960 . S
C360 H352 0.929 . S
C360 C361 1.377 . S
C360 C362 1.384 . S
C361 C360 1.377 . S
C361 C367 1.390 . S
C362 H353 0.930 . S
C362 C360 1.384 . S
C362 C363 1.372 . S
C363 C362 1.372 . S
C363 C364 1.400 . S
C363 C368 1.490 . S
C364 H354 0.930 . S
C364 C363 1.400 . S
C364 C367 1.386 . S
H365 C381 0.930 . S
H366 C382 0.931 . S
C367 H355 0.929 . S
C367 C361 1.390 . S
C367 C364 1.386 . S
C368 C363 1.490 . S
C368 C370 1.395 . S
C368 C371 1.403 . S
H369 C375 0.930 . S
C370 H356 0.930 . S
C370 C368 1.395 . S
C370 C373 1.403 . S
C371 C368 1.403 . S
C371 C372 1.524 . S
C371 C375 1.400 . S
C372 H357 0.960 . S
C372 H358 0.960 . S
C372 H359 0.960 . S
C372 C371 1.524 . S
C373 C370 1.403 . S
C373 C374 1.392 . S
C373 C377 1.495 . S
C374 C373 1.392 . S
C374 C375 1.385 . S
C374 C376 1.478 . S
C375 H369 0.930 . S
C375 C371 1.400 . S
C375 C374 1.385 . S
C376 C374 1.478 . S
C376 C378 1.381 . S
C376 C382 1.383 . S
C377 C373 1.495 . S
C377 H383 0.959 . S
C377 H384 0.961 . S
C377 H385 0.960 . S
C378 C376 1.381 . S
C378 C379 1.394 . S
C378 H386 0.930 . S
C379 C378 1.394 . S
C379 C380 1.383 . S
C379 H387 0.929 . S
C380 C379 1.383 . S
C380 C381 1.377 . S
C381 H365 0.930 . S
C381 C380 1.377 . S
C381 C382 1.379 . S
C382 H366 0.931 . S
C382 C376 1.383 . S
C382 C381 1.379 . S
H383 C377 0.959 . S
H384 C377 0.961 . S
H385 C377 0.960 . S
H386 C378 0.930 . S
H387 C379 0.929 . S
H388 C396 0.929 . S
H389 C398 0.930 . S
H390 C400 0.930 . S
H391 C403 0.929 . S
H392 C406 0.930 . S
H393 C408 0.960 . S
H394 C408 0.960 . S
H395 C408 0.960 . S
C396 H388 0.929 . S
C396 C397 1.377 . S
C396 C398 1.384 . S
C397 C396 1.377 . S
C397 C403 1.390 . S
C398 H389 0.930 . S
C398 C396 1.384 . S
C398 C399 1.372 . S
C399 C398 1.372 . S
C399 C400 1.400 . S
C399 C404 1.490 . S
C400 H390 0.930 . S
C400 C399 1.400 . S
C400 C403 1.386 . S
H401 C417 0.930 . S
H402 C418 0.931 . S
C403 H391 0.929 . S
C403 C397 1.390 . S
C403 C400 1.386 . S
C404 C399 1.490 . S
C404 C406 1.395 . S
C404 C407 1.403 . S
H405 C411 0.930 . S
C406 H392 0.930 . S
C406 C404 1.395 . S
C406 C409 1.403 . S
C407 C404 1.403 . S
C407 C408 1.524 . S
C407 C411 1.400 . S
C408 H393 0.960 . S
C408 H394 0.960 . S
C408 H395 0.960 . S
C408 C407 1.524 . S
C409 C406 1.403 . S
C409 C410 1.392 . S
C409 C413 1.495 . S
C410 C409 1.392 . S
C410 C411 1.385 . S
C410 C412 1.478 . S
C411 H405 0.930 . S
C411 C407 1.400 . S
C411 C410 1.385 . S
C412 C410 1.478 . S
C412 C414 1.381 . S
C412 C418 1.383 . S
C413 C409 1.495 . S
C413 H419 0.959 . S
C413 H420 0.961 . S
C413 H421 0.960 . S
C414 C412 1.381 . S
C414 C415 1.394 . S
C414 H422 0.930 . S
C415 C414 1.394 . S
C415 C416 1.383 . S
C415 H423 0.929 . S
C416 C415 1.383 . S
C416 C417 1.377 . S
C417 H401 0.930 . S
C417 C416 1.377 . S
C417 C418 1.379 . S
C418 H402 0.931 . S
C418 C412 1.383 . S
C418 C417 1.379 . S
H419 C413 0.959 . S
H420 C413 0.961 . S
H421 C413 0.960 . S
H422 C414 0.930 . S
H423 C415 0.929 . S
H424 C432 0.929 . S
H425 C434 0.930 . S
H426 C436 0.930 . S
H427 C439 0.929 . S
H428 C442 0.930 . S
H429 C444 0.960 . S
H430 C444 0.960 . S
H431 C444 0.960 . S
C432 H424 0.929 . S
C432 C433 1.377 . S
C432 C434 1.384 . S
C433 C432 1.377 . S
C433 C439 1.390 . S
C434 H425 0.930 . S
C434 C432 1.384 . S
C434 C435 1.372 . S
C435 C434 1.372 . S
C435 C436 1.400 . S
C435 C440 1.490 . S
C436 H426 0.930 . S
C436 C435 1.400 . S
C436 C439 1.386 . S
H437 C453 0.930 . S
H438 C454 0.931 . S
C439 H427 0.929 . S
C439 C433 1.390 . S
C439 C436 1.386 . S
C440 C435 1.490 . S
C440 C442 1.395 . S
C440 C443 1.403 . S
H441 C447 0.930 . S
C442 H428 0.930 . S
C442 C440 1.395 . S
C442 C445 1.403 . S
C443 C440 1.403 . S
C443 C444 1.524 . S
C443 C447 1.400 . S
C444 H429 0.960 . S
C444 H430 0.960 . S
C444 H431 0.960 . S
C444 C443 1.524 . S
C445 C442 1.403 . S
C445 C446 1.392 . S
C445 C449 1.495 . S
C446 C445 1.392 . S
C446 C447 1.385 . S
C446 C448 1.478 . S
C447 H441 0.930 . S
C447 C443 1.400 . S
C447 C446 1.385 . S
C448 C446 1.478 . S
C448 C450 1.381 . S
C448 C454 1.383 . S
C449 C445 1.495 . S
C449 H455 0.959 . S
C449 H456 0.961 . S
C449 H457 0.960 . S
C450 C448 1.381 . S
C450 C451 1.394 . S
C450 H458 0.930 . S
C451 C450 1.394 . S
C451 C452 1.383 . S
C451 H459 0.929 . S
C452 C451 1.383 . S
C452 C453 1.377 . S
C453 H437 0.930 . S
C453 C452 1.377 . S
C453 C454 1.379 . S
C454 H438 0.931 . S
C454 C448 1.383 . S
C454 C453 1.379 . S
H455 C449 0.959 . S
H456 C449 0.961 . S
H457 C449 0.960 . S
H458 C450 0.930 . S
H459 C451 0.929 . S
H460 C468 0.929 . S
H461 C470 0.930 . S
H462 C472 0.930 . S
H463 C475 0.929 . S
H464 C478 0.930 . S
H465 C480 0.960 . S
H466 C480 0.960 . S
H467 C480 0.960 . S
C468 H460 0.929 . S
C468 C469 1.377 . S
C468 C470 1.384 . S
C469 C468 1.377 . S
C469 C475 1.390 . S
C470 H461 0.930 . S
C470 C468 1.384 . S
C470 C471 1.372 . S
C471 C470 1.372 . S
C471 C472 1.400 . S
C471 C476 1.490 . S
C472 H462 0.930 . S
C472 C471 1.400 . S
C472 C475 1.386 . S
H473 C489 0.930 . S
H474 C490 0.931 . S
C475 H463 0.929 . S
C475 C469 1.390 . S
C475 C472 1.386 . S
C476 C471 1.490 . S
C476 C478 1.395 . S
C476 C479 1.403 . S
H477 C483 0.930 . S
C478 H464 0.930 . S
C478 C476 1.395 . S
C478 C481 1.403 . S
C479 C476 1.403 . S
C479 C480 1.524 . S
C479 C483 1.400 . S
C480 H465 0.960 . S
C480 H466 0.960 . S
C480 H467 0.960 . S
C480 C479 1.524 . S
C481 C478 1.403 . S
C481 C482 1.392 . S
C481 C485 1.495 . S
C482 C481 1.392 . S
C482 C483 1.385 . S
C482 C484 1.478 . S
C483 H477 0.930 . S
C483 C479 1.400 . S
C483 C482 1.385 . S
C484 C482 1.478 . S
C484 C486 1.381 . S
C484 C490 1.383 . S
C485 C481 1.495 . S
C485 H491 0.959 . S
C485 H492 0.961 . S
C485 H493 0.960 . S
C486 C484 1.381 . S
C486 C487 1.394 . S
C486 H494 0.930 . S
C487 C486 1.394 . S
C487 C488 1.383 . S
C487 H495 0.929 . S
C488 C487 1.383 . S
C488 C489 1.377 . S
C489 H473 0.930 . S
C489 C488 1.377 . S
C489 C490 1.379 . S
C490 H474 0.931 . S
C490 C484 1.383 . S
C490 C489 1.379 . S
H491 C485 0.959 . S
H492 C485 0.961 . S
H493 C485 0.960 . S
H494 C486 0.930 . S
H495 C487 0.929 . S
H496 C504 0.929 . S
H497 C506 0.930 . S
H498 C508 0.930 . S
H499 C511 0.929 . S
H500 C514 0.930 . S
H501 C516 0.960 . S
H502 C516 0.960 . S
H503 C516 0.960 . S
C504 H496 0.929 . S
C504 C505 1.377 . S
C504 C506 1.384 . S
C505 C504 1.377 . S
C505 C511 1.390 . S
C506 H497 0.930 . S
C506 C504 1.384 . S
C506 C507 1.372 . S
C507 C506 1.372 . S
C507 C508 1.400 . S
C507 C512 1.490 . S
C508 H498 0.930 . S
C508 C507 1.400 . S
C508 C511 1.386 . S
H509 C525 0.930 . S
H510 C526 0.931 . S
C511 H499 0.929 . S
C511 C505 1.390 . S
C511 C508 1.386 . S
C512 C507 1.490 . S
C512 C514 1.395 . S
C512 C515 1.403 . S
H513 C519 0.930 . S
C514 H500 0.930 . S
C514 C512 1.395 . S
C514 C517 1.403 . S
C515 C512 1.403 . S
C515 C516 1.524 . S
C515 C519 1.400 . S
C516 H501 0.960 . S
C516 H502 0.960 . S
C516 H503 0.960 . S
C516 C515 1.524 . S
C517 C514 1.403 . S
C517 C518 1.392 . S
C517 C521 1.495 . S
C518 C517 1.392 . S
C518 C519 1.385 . S
C518 C520 1.478 . S
C519 H513 0.930 . S
C519 C515 1.400 . S
C519 C518 1.385 . S
C520 C518 1.478 . S
C520 C522 1.381 . S
C520 C526 1.383 . S
C521 C517 1.495 . S
C521 H527 0.959 . S
C521 H528 0.961 . S
C521 H529 0.960 . S
C522 C520 1.381 . S
C522 C523 1.394 . S
C522 H530 0.930 . S
C523 C522 1.394 . S
C523 C524 1.383 . S
C523 H531 0.929 1_655 S
C524 C523 1.383 . S
C524 C525 1.377 . S
C525 H509 0.930 . S
C525 C524 1.377 . S
C525 C526 1.379 . S
C526 H510 0.931 . S
C526 C520 1.383 . S
C526 C525 1.379 . S
H527 C521 0.959 . S
H528 C521 0.961 . S
H529 C521 0.960 . S
H530 C522 0.930 . S
H531 C523 0.929 1_455 S
H532 C540 0.929 . S
H533 C542 0.930 . S
H534 C544 0.930 . S
H535 C547 0.929 . S
H536 C550 0.930 . S
H537 C552 0.960 . S
H538 C552 0.960 . S
H539 C552 0.960 . S
C540 H532 0.929 . S
C540 C541 1.377 . S
C540 C542 1.384 . S
C541 C540 1.377 . S
C541 C547 1.390 . S
C542 H533 0.930 . S
C542 C540 1.384 . S
C542 C543 1.372 . S
C543 C542 1.372 . S
C543 C544 1.400 . S
C543 C548 1.490 . S
C544 H534 0.930 . S
C544 C543 1.400 . S
C544 C547 1.386 . S
H545 C561 0.930 1_455 S
H546 C562 0.931 . S
C547 H535 0.929 . S
C547 C541 1.390 . S
C547 C544 1.386 . S
C548 C543 1.490 . S
C548 C550 1.395 . S
C548 C551 1.403 . S
H549 C555 0.930 . S
C550 H536 0.930 . S
C550 C548 1.395 . S
C550 C553 1.403 . S
C551 C548 1.403 . S
C551 C552 1.524 . S
C551 C555 1.400 . S
C552 H537 0.960 . S
C552 H538 0.960 . S
C552 H539 0.960 . S
C552 C551 1.524 . S
C553 C550 1.403 . S
C553 C554 1.392 . S
C553 C557 1.495 . S
C554 C553 1.392 . S
C554 C555 1.385 . S
C554 C556 1.478 . S
C555 H549 0.930 . S
C555 C551 1.400 . S
C555 C554 1.385 . S
C556 C554 1.478 . S
C556 C558 1.381 . S
C556 C562 1.383 . S
C557 C553 1.495 . S
C557 H563 0.959 . S
C557 H564 0.961 . S
C557 H565 0.960 . S
C558 C556 1.381 . S
C558 C559 1.394 . S
C558 H566 0.930 . S
C559 C558 1.394 . S
C559 C560 1.383 . S
C559 H567 0.929 . S
C560 C559 1.383 . S
C560 C561 1.377 . S
C561 H545 0.930 1_655 S
C561 C560 1.377 . S
C561 C562 1.379 . S
C562 H546 0.931 . S
C562 C556 1.383 . S
C562 C561 1.379 . S
H563 C557 0.959 . S
H564 C557 0.961 . S
H565 C557 0.960 . S
H566 C558 0.930 . S
H567 C559 0.929 . S
H568 C576 0.929 1_545 S
H569 C578 0.930 . S
H570 C580 0.930 . S
H571 C583 0.929 . S
H572 C586 0.930 . S
H573 C588 0.960 . S
H574 C588 0.960 . S
H575 C588 0.960 . S
C576 H568 0.929 1_565 S
C576 C577 1.377 . S
C576 C578 1.384 . S
C577 C576 1.377 . S
C577 C583 1.390 . S
C578 H569 0.930 . S
C578 C576 1.384 . S
C578 C579 1.372 . S
C579 C578 1.372 . S
C579 C580 1.400 . S
C579 C584 1.490 . S
C580 H570 0.930 . S
C580 C579 1.400 . S
C580 C583 1.386 . S
H581 C597 0.930 . S
H582 C598 0.931 . S
C583 H571 0.929 . S
C583 C577 1.390 . S
C583 C580 1.386 . S
C584 C579 1.490 . S
C584 C586 1.395 . S
C584 C587 1.403 . S
H585 C591 0.930 . S
C586 H572 0.930 . S
C586 C584 1.395 . S
C586 C589 1.403 . S
C587 C584 1.403 . S
C587 C588 1.524 . S
C587 C591 1.400 . S
C588 H573 0.960 . S
C588 H574 0.960 . S
C588 H575 0.960 . S
C588 C587 1.524 . S
C589 C586 1.403 . S
C589 C590 1.392 . S
C589 C593 1.495 . S
C590 C589 1.392 . S
C590 C591 1.385 . S
C590 C592 1.478 . S
C591 H585 0.930 . S
C591 C587 1.400 . S
C591 C590 1.385 . S
C592 C590 1.478 . S
C592 C594 1.381 . S
C592 C598 1.383 . S
C593 C589 1.495 . S
C593 H599 0.959 . S
C593 H600 0.961 . S
C593 H601 0.960 . S
C594 C592 1.381 . S
C594 C595 1.394 . S
C594 H602 0.930 . S
C595 C594 1.394 . S
C595 C596 1.383 . S
C595 H603 0.929 . S
C596 C595 1.383 . S
C596 C597 1.377 . S
C597 H581 0.930 . S
C597 C596 1.377 . S
C597 C598 1.379 . S
C598 H582 0.931 . S
C598 C592 1.383 . S
C598 C597 1.379 . S
H599 C593 0.959 . S
H600 C593 0.961 . S
H601 C593 0.960 . S
H602 C594 0.930 . S
H603 C595 0.929 . S
H604 C612 0.929 . S
H605 C614 0.930 . S
H606 C616 0.930 . S
H607 C619 0.929 . S
H608 C622 0.930 . S
H609 C624 0.960 . S
H610 C624 0.960 . S
H611 C624 0.960 . S
C612 H604 0.929 . S
C612 C613 1.377 . S
C612 C614 1.384 . S
C613 C612 1.377 . S
C613 C619 1.390 . S
C614 H605 0.930 . S
C614 C612 1.384 . S
C614 C615 1.372 . S
C615 C614 1.372 . S
C615 C616 1.400 . S
C615 C620 1.490 . S
C616 H606 0.930 . S
C616 C615 1.400 . S
C616 C619 1.386 . S
H617 C633 0.930 . S
H618 C634 0.931 . S
C619 H607 0.929 . S
C619 C613 1.390 . S
C619 C616 1.386 . S
C620 C615 1.490 . S
C620 C622 1.395 . S
C620 C623 1.403 . S
H621 C627 0.930 . S
C622 H608 0.930 . S
C622 C620 1.395 . S
C622 C625 1.403 . S
C623 C620 1.403 . S
C623 C624 1.524 . S
C623 C627 1.400 . S
C624 H609 0.960 . S
C624 H610 0.960 . S
C624 H611 0.960 . S
C624 C623 1.524 . S
C625 C622 1.403 . S
C625 C626 1.392 . S
C625 C629 1.495 . S
C626 C625 1.392 . S
C626 C627 1.385 . S
C626 C628 1.478 . S
C627 H621 0.930 . S
C627 C623 1.400 . S
C627 C626 1.385 . S
C628 C626 1.478 . S
C628 C630 1.381 . S
C628 C634 1.383 . S
C629 C625 1.495 . S
C629 H635 0.959 . S
C629 H636 0.961 . S
C629 H637 0.960 . S
C630 C628 1.381 . S
C630 C631 1.394 . S
C630 H638 0.930 . S
C631 C630 1.394 . S
C631 C632 1.383 . S
C631 H639 0.929 . S
C632 C631 1.383 . S
C632 C633 1.377 . S
C633 H617 0.930 . S
C633 C632 1.377 . S
C633 C634 1.379 . S
C634 H618 0.931 . S
C634 C628 1.383 . S
C634 C633 1.379 . S
H635 C629 0.959 . S
H636 C629 0.961 . S
H637 C629 0.960 . S
H638 C630 0.930 . S
H639 C631 0.929 . S
H640 C648 0.929 . S
H641 C650 0.930 . S
H642 C652 0.930 . S
H643 C655 0.929 . S
H644 C658 0.930 . S
H645 C660 0.960 . S
H646 C660 0.960 . S
H647 C660 0.960 . S
C648 H640 0.929 . S
C648 C649 1.377 . S
C648 C650 1.384 . S
C649 C648 1.377 . S
C649 C655 1.390 . S
C650 H641 0.930 . S
C650 C648 1.384 . S
C650 C651 1.372 . S
C651 C650 1.372 . S
C651 C652 1.400 . S
C651 C656 1.490 . S
C652 H642 0.930 . S
C652 C651 1.400 . S
C652 C655 1.386 . S
H653 C669 0.930 1_655 S
H654 C670 0.931 . S
C655 H643 0.929 . S
C655 C649 1.390 . S
C655 C652 1.386 . S
C656 C651 1.490 . S
C656 C658 1.395 . S
C656 C659 1.403 . S
H657 C663 0.930 . S
C658 H644 0.930 . S
C658 C656 1.395 . S
C658 C661 1.403 . S
C659 C656 1.403 . S
C659 C660 1.524 . S
C659 C663 1.400 . S
C660 H645 0.960 . S
C660 H646 0.960 . S
C660 H647 0.960 . S
C660 C659 1.524 . S
C661 C658 1.403 . S
C661 C662 1.392 . S
C661 C665 1.495 . S
C662 C661 1.392 . S
C662 C663 1.385 . S
C662 C664 1.478 . S
C663 H657 0.930 . S
C663 C659 1.400 . S
C663 C662 1.385 . S
C664 C662 1.478 . S
C664 C666 1.381 . S
C664 C670 1.383 . S
C665 C661 1.495 . S
C665 H671 0.959 . S
C665 H672 0.961 . S
C665 H673 0.960 . S
C666 C664 1.381 . S
C666 C667 1.394 . S
C666 H674 0.930 . S
C667 C666 1.394 . S
C667 C668 1.383 . S
C667 H675 0.929 . S
C668 C667 1.383 . S
C668 C669 1.377 . S
C669 H653 0.930 1_455 S
C669 C668 1.377 . S
C669 C670 1.379 . S
C670 H654 0.931 . S
C670 C664 1.383 . S
C670 C669 1.379 . S
H671 C665 0.959 . S
H672 C665 0.961 . S
H673 C665 0.960 . S
H674 C666 0.930 . S
H675 C667 0.929 . S
H676 C684 0.929 . S
H677 C686 0.930 . S
H678 C688 0.930 . S
H679 C691 0.929 . S
H680 C694 0.930 . S
H681 C696 0.960 . S
H682 C696 0.960 . S
H683 C696 0.960 . S
C684 H676 0.929 . S
C684 C685 1.377 . S
C684 C686 1.384 . S
C685 C684 1.377 . S
C685 C691 1.390 . S
C686 H677 0.930 . S
C686 C684 1.384 . S
C686 C687 1.372 . S
C687 C686 1.372 . S
C687 C688 1.400 . S
C687 C692 1.490 . S
C688 H678 0.930 . S
C688 C687 1.400 . S
C688 C691 1.386 . S
H689 C705 0.930 . S
H690 C706 0.931 . S
C691 H679 0.929 . S
C691 C685 1.390 . S
C691 C688 1.386 . S
C692 C687 1.490 . S
C692 C694 1.395 . S
C692 C695 1.403 . S
H693 C699 0.930 . S
C694 H680 0.930 . S
C694 C692 1.395 . S
C694 C697 1.403 . S
C695 C692 1.403 . S
C695 C696 1.524 . S
C695 C699 1.400 . S
C696 H681 0.960 . S
C696 H682 0.960 . S
C696 H683 0.960 . S
C696 C695 1.524 . S
C697 C694 1.403 . S
C697 C698 1.392 . S
C697 C701 1.495 . S
C698 C697 1.392 . S
C698 C699 1.385 . S
C698 C700 1.478 . S
C699 H693 0.930 . S
C699 C695 1.400 . S
C699 C698 1.385 . S
C700 C698 1.478 . S
C700 C702 1.381 . S
C700 C706 1.383 . S
C701 C697 1.495 . S
C701 H707 0.959 . S
C701 H708 0.961 . S
C701 H709 0.960 . S
C702 C700 1.381 . S
C702 C703 1.394 . S
C702 H710 0.930 . S
C703 C702 1.394 . S
C703 C704 1.383 . S
C703 H711 0.929 1_455 S
C704 C703 1.383 . S
C704 C705 1.377 . S
C705 H689 0.930 . S
C705 C704 1.377 . S
C705 C706 1.379 . S
C706 H690 0.931 . S
C706 C700 1.383 . S
C706 C705 1.379 . S
H707 C701 0.959 . S
H708 C701 0.961 . S
H709 C701 0.960 . S
H710 C702 0.930 . S
H711 C703 0.929 1_655 S
H712 C720 0.929 . S
H713 C722 0.930 . S
H714 C724 0.930 . S
H715 C727 0.929 . S
H716 C730 0.930 . S
H717 C732 0.960 . S
H718 C732 0.960 . S
H719 C732 0.960 . S
C720 H712 0.929 . S
C720 C721 1.377 . S
C720 C722 1.384 . S
C721 C720 1.377 . S
C721 C727 1.390 . S
C722 H713 0.930 . S
C722 C720 1.384 . S
C722 C723 1.372 . S
C723 C722 1.372 . S
C723 C724 1.400 . S
C723 C728 1.490 . S
C724 H714 0.930 . S
C724 C723 1.400 . S
C724 C727 1.386 . S
H725 C741 0.930 . S
H726 C742 0.931 . S
C727 H715 0.929 . S
C727 C721 1.390 . S
C727 C724 1.386 . S
C728 C723 1.490 . S
C728 C730 1.395 . S
C728 C731 1.403 . S
H729 C735 0.930 . S
C730 H716 0.930 . S
C730 C728 1.395 . S
C730 C733 1.403 . S
C731 C728 1.403 . S
C731 C732 1.524 . S
C731 C735 1.400 . S
C732 H717 0.960 . S
C732 H718 0.960 . S
C732 H719 0.960 . S
C732 C731 1.524 . S
C733 C730 1.403 . S
C733 C734 1.392 . S
C733 C737 1.495 . S
C734 C733 1.392 . S
C734 C735 1.385 . S
C734 C736 1.478 . S
C735 H729 0.930 . S
C735 C731 1.400 . S
C735 C734 1.385 . S
C736 C734 1.478 . S
C736 C738 1.381 . S
C736 C742 1.383 . S
C737 C733 1.495 . S
C737 H743 0.951 1_545 S
C737 H744 0.961 . S
C737 H745 0.960 1_545 S
C738 C736 1.381 . S
C738 C739 1.394 . S
C738 H746 0.930 . S
C739 C738 1.394 . S
C739 C740 1.383 . S
C739 H747 0.929 . S
C740 C739 1.383 . S
C740 C741 1.377 . S
C741 H725 0.930 . S
C741 C740 1.377 . S
C741 C742 1.379 . S
C742 H726 0.931 . S
C742 C736 1.383 . S
C742 C741 1.379 . S
H743 C737 0.951 1_565 S
H744 C737 0.961 . S
H745 C737 0.960 1_565 S
H746 C738 0.930 . S
H747 C739 0.929 . S
H748 C756 0.929 . S
H749 C758 0.930 . S
H750 C760 0.930 . S
H751 C763 0.929 . S
H752 C766 0.930 . S
H753 C768 0.960 . S
H754 C768 0.960 . S
H755 C768 0.960 . S
C756 H748 0.929 . S
C756 C757 1.377 . S
C756 C758 1.384 . S
C757 C756 1.377 . S
C757 C763 1.390 . S
C758 H749 0.930 . S
C758 C756 1.384 . S
C758 C759 1.372 . S
C759 C758 1.372 . S
C759 C760 1.400 . S
C759 C764 1.490 . S
C760 H750 0.930 . S
C760 C759 1.400 . S
C760 C763 1.386 . S
H761 C777 0.930 . S
H762 C778 0.931 . S
C763 H751 0.929 . S
C763 C757 1.390 . S
C763 C760 1.386 . S
C764 C759 1.490 . S
C764 C766 1.395 . S
C764 C767 1.403 . S
H765 C771 0.930 . S
C766 H752 0.930 . S
C766 C764 1.395 . S
C766 C769 1.403 . S
C767 C764 1.403 . S
C767 C768 1.524 . S
C767 C771 1.400 . S
C768 H753 0.960 . S
C768 H754 0.960 . S
C768 H755 0.960 . S
C768 C767 1.524 . S
C769 C766 1.403 . S
C769 C770 1.392 . S
C769 C773 1.495 . S
C770 C769 1.392 . S
C770 C771 1.385 . S
C770 C772 1.478 . S
C771 H765 0.930 . S
C771 C767 1.400 . S
C771 C770 1.385 . S
C772 C770 1.478 . S
C772 C774 1.381 . S
C772 C778 1.383 . S
C773 C769 1.495 . S
C773 H779 0.959 . S
C773 H780 0.961 . S
C773 H781 0.960 . S
C774 C772 1.381 . S
C774 C775 1.394 . S
C774 H782 0.930 . S
C775 C774 1.394 . S
C775 C776 1.383 . S
C775 H783 0.929 . S
C776 C775 1.383 . S
C776 C777 1.377 . S
C777 H761 0.930 . S
C777 C776 1.377 . S
C777 C778 1.379 . S
C778 H762 0.931 . S
C778 C772 1.383 . S
C778 C777 1.379 . S
H779 C773 0.959 . S
H780 C773 0.961 . S
H781 C773 0.960 . S
H782 C774 0.930 . S
H783 C775 0.929 . S
H784 C792 0.929 . S
H785 C794 0.930 . S
H786 C796 0.930 . S
H787 C799 0.929 . S
H788 C802 0.930 . S
H789 C804 0.960 . S
H790 C804 0.960 . S
H791 C804 0.960 . S
C792 H784 0.929 . S
C792 C793 1.377 . S
C792 C794 1.384 . S
C793 C792 1.377 . S
C793 C799 1.390 . S
C794 H785 0.930 . S
C794 C792 1.384 . S
C794 C795 1.372 . S
C795 C794 1.372 . S
C795 C796 1.400 . S
C795 C800 1.490 . S
C796 H786 0.930 . S
C796 C795 1.400 . S
C796 C799 1.386 . S
H797 C813 0.930 . S
H798 C814 0.931 . S
C799 H787 0.929 . S
C799 C793 1.390 . S
C799 C796 1.386 . S
C800 C795 1.490 . S
C800 C802 1.395 . S
C800 C803 1.403 . S
H801 C807 0.930 . S
C802 H788 0.930 . S
C802 C800 1.395 . S
C802 C805 1.403 . S
C803 C800 1.403 . S
C803 C804 1.524 . S
C803 C807 1.400 . S
C804 H789 0.960 . S
C804 H790 0.960 . S
C804 H791 0.960 . S
C804 C803 1.524 . S
C805 C802 1.403 . S
C805 C806 1.392 . S
C805 C809 1.495 . S
C806 C805 1.392 . S
C806 C807 1.385 . S
C806 C808 1.478 . S
C807 H801 0.930 . S
C807 C803 1.400 . S
C807 C806 1.385 . S
C808 C806 1.478 . S
C808 C810 1.381 . S
C808 C814 1.383 . S
C809 C805 1.495 . S
C809 H815 0.959 . S
C809 H816 0.961 . S
C809 H817 0.960 . S
C810 C808 1.381 . S
C810 C811 1.394 . S
C810 H818 0.930 . S
C811 C810 1.394 . S
C811 C812 1.383 . S
C811 H819 0.929 . S
C812 C811 1.383 . S
C812 C813 1.377 . S
C813 H797 0.930 . S
C813 C812 1.377 . S
C813 C814 1.379 . S
C814 H798 0.931 . S
C814 C808 1.383 . S
C814 C813 1.379 . S
H815 C809 0.959 . S
H816 C809 0.961 . S
H817 C809 0.960 . S
H818 C810 0.930 . S
H819 C811 0.929 . S
H820 C828 0.929 . S
H821 C830 0.930 . S
H822 C832 0.930 . S
H823 C835 0.929 . S
H824 C838 0.930 . S
H825 C840 0.960 . S
H826 C840 0.960 . S
H827 C840 0.960 . S
C828 H820 0.929 . S
C828 C829 1.377 . S
C828 C830 1.384 . S
C829 C828 1.377 . S
C829 C835 1.390 . S
C830 H821 0.930 . S
C830 C828 1.384 . S
C830 C831 1.372 . S
C831 C830 1.372 . S
C831 C832 1.400 . S
C831 C836 1.490 . S
C832 H822 0.930 . S
C832 C831 1.400 . S
C832 C835 1.386 . S
H833 C849 0.930 . S
H834 C850 0.931 . S
C835 H823 0.929 . S
C835 C829 1.390 . S
C835 C832 1.386 . S
C836 C831 1.490 . S
C836 C838 1.395 . S
C836 C839 1.403 . S
H837 C843 0.930 . S
C838 H824 0.930 . S
C838 C836 1.395 . S
C838 C841 1.403 . S
C839 C836 1.403 . S
C839 C840 1.524 . S
C839 C843 1.400 . S
C840 H825 0.960 . S
C840 H826 0.960 . S
C840 H827 0.960 . S
C840 C839 1.524 . S
C841 C838 1.403 . S
C841 C842 1.392 . S
C841 C845 1.495 . S
C842 C841 1.392 . S
C842 C843 1.385 . S
C842 C844 1.478 . S
C843 H837 0.930 . S
C843 C839 1.400 . S
C843 C842 1.385 . S
C844 C842 1.478 . S
C844 C846 1.381 . S
C844 C850 1.383 . S
C845 C841 1.495 . S
C845 H851 0.959 . S
C845 H852 0.961 . S
C845 H853 0.960 . S
C846 C844 1.381 . S
C846 C847 1.394 . S
C846 H854 0.930 . S
C847 C846 1.394 . S
C847 C848 1.383 . S
C847 H855 0.929 . S
C848 C847 1.383 . S
C848 C849 1.377 . S
C849 H833 0.930 . S
C849 C848 1.377 . S
C849 C850 1.379 . S
C850 H834 0.931 . S
C850 C844 1.383 . S
C850 C849 1.379 . S
H851 C845 0.959 . S
H852 C845 0.961 . S
H853 C845 0.960 . S
H854 C846 0.930 . S
H855 C847 0.929 . S
H856 C864 0.929 . S
H857 C866 0.930 . S
H858 C868 0.930 . S
H859 C871 0.929 . S
H860 C874 0.930 . S
H861 C876 0.960 . S
H862 C876 0.960 . S
H863 C876 0.960 . S
C864 H856 0.929 . S
C864 C865 1.377 . S
C864 C866 1.384 . S
C865 C864 1.377 . S
C865 C871 1.390 . S
C866 H857 0.930 . S
C866 C864 1.384 . S
C866 C867 1.372 . S
C867 C866 1.372 . S
C867 C868 1.400 . S
C867 C872 1.490 . S
C868 H858 0.930 . S
C868 C867 1.400 . S
C868 C871 1.386 . S
H869 C885 0.930 . S
H870 C886 0.931 . S
C871 H859 0.929 . S
C871 C865 1.390 . S
C871 C868 1.386 . S
C872 C867 1.490 . S
C872 C874 1.395 . S
C872 C875 1.403 . S
H873 C879 0.930 . S
C874 H860 0.930 . S
C874 C872 1.395 . S
C874 C877 1.403 . S
C875 C872 1.403 . S
C875 C876 1.524 . S
C875 C879 1.400 . S
C876 H861 0.960 . S
C876 H862 0.960 . S
C876 H863 0.960 . S
C876 C875 1.524 . S
C877 C874 1.403 . S
C877 C878 1.392 . S
C877 C881 1.495 . S
C878 C877 1.392 . S
C878 C879 1.385 . S
C878 C880 1.478 . S
C879 H873 0.930 . S
C879 C875 1.400 . S
C879 C878 1.385 . S
C880 C878 1.478 . S
C880 C882 1.381 . S
C880 C886 1.383 . S
C881 C877 1.495 . S
C881 H887 0.959 . S
C881 H888 0.961 . S
C881 H889 0.960 . S
C882 C880 1.381 . S
C882 C883 1.394 . S
C882 H890 0.930 . S
C883 C882 1.394 . S
C883 C884 1.383 . S
C883 H891 0.929 . S
C884 C883 1.383 . S
C884 C885 1.377 . S
C885 H869 0.930 . S
C885 C884 1.377 . S
C885 C886 1.379 . S
C886 H870 0.931 . S
C886 C880 1.383 . S
C886 C885 1.379 . S
H887 C881 0.959 . S
H888 C881 0.961 . S
H889 C881 0.960 . S
H890 C882 0.930 . S
H891 C883 0.929 . S
H892 C900 0.929 . S
H893 C902 0.930 . S
H894 C904 0.930 . S
H895 C907 0.929 . S
H896 C910 0.930 . S
H897 C912 0.960 . S
H898 C912 0.960 . S
H899 C912 0.960 . S
C900 H892 0.929 . S
C900 C901 1.377 . S
C900 C902 1.384 . S
C901 C900 1.377 . S
C901 C907 1.390 . S
C902 H893 0.930 . S
C902 C900 1.384 . S
C902 C903 1.372 . S
C903 C902 1.372 . S
C903 C904 1.400 . S
C903 C908 1.490 . S
C904 H894 0.930 . S
C904 C903 1.400 . S
C904 C907 1.386 . S
H905 C921 0.930 . S
H906 C922 0.931 . S
C907 H895 0.929 . S
C907 C901 1.390 . S
C907 C904 1.386 . S
C908 C903 1.490 . S
C908 C910 1.395 . S
C908 C911 1.403 . S
H909 C915 0.930 . S
C910 H896 0.930 . S
C910 C908 1.395 . S
C910 C913 1.403 . S
C911 C908 1.403 . S
C911 C912 1.524 . S
C911 C915 1.400 . S
C912 H897 0.960 . S
C912 H898 0.960 . S
C912 H899 0.960 . S
C912 C911 1.524 . S
C913 C910 1.403 . S
C913 C914 1.392 . S
C913 C917 1.495 . S
C914 C913 1.392 . S
C914 C915 1.385 . S
C914 C916 1.478 . S
C915 H909 0.930 . S
C915 C911 1.400 . S
C915 C914 1.385 . S
C916 C914 1.478 . S
C916 C918 1.381 . S
C916 C922 1.383 . S
C917 C913 1.495 . S
C917 H923 0.959 . S
C917 H924 0.961 . S
C917 H925 0.960 . S
C918 C916 1.381 . S
C918 C919 1.394 . S
C918 H926 0.930 . S
C919 C918 1.394 . S
C919 C920 1.383 . S
C919 H927 0.929 . S
C920 C919 1.383 . S
C920 C921 1.377 . S
C921 H905 0.930 . S
C921 C920 1.377 . S
C921 C922 1.379 . S
C922 H906 0.931 . S
C922 C916 1.383 . S
C922 C921 1.379 . S
H923 C917 0.959 . S
H924 C917 0.961 . S
H925 C917 0.960 . S
H926 C918 0.930 . S
H927 C919 0.929 . S
H928 C936 0.929 . S
H929 C938 0.930 . S
H930 C940 0.930 . S
H931 C943 0.929 . S
H932 C946 0.930 . S
H933 C948 0.960 . S
H934 C948 0.960 . S
H935 C948 0.960 . S
C936 H928 0.929 . S
C936 C937 1.377 . S
C936 C938 1.384 . S
C937 C936 1.377 . S
C937 C943 1.390 . S
C938 H929 0.930 . S
C938 C936 1.384 . S
C938 C939 1.372 . S
C939 C938 1.372 . S
C939 C940 1.400 . S
C939 C944 1.490 . S
C940 H930 0.930 . S
C940 C939 1.400 . S
C940 C943 1.386 . S
H941 C957 0.930 . S
H942 C958 0.931 . S
C943 H931 0.929 . S
C943 C937 1.390 . S
C943 C940 1.386 . S
C944 C939 1.490 . S
C944 C946 1.395 . S
C944 C947 1.403 . S
H945 C951 0.930 . S
C946 H932 0.930 . S
C946 C944 1.395 . S
C946 C949 1.403 . S
C947 C944 1.403 . S
C947 C948 1.524 . S
C947 C951 1.400 . S
C948 H933 0.960 . S
C948 H934 0.960 . S
C948 H935 0.960 . S
C948 C947 1.524 . S
C949 C946 1.403 . S
C949 C950 1.392 . S
C949 C953 1.495 . S
C950 C949 1.392 . S
C950 C951 1.385 . S
C950 C952 1.478 . S
C951 H945 0.930 . S
C951 C947 1.400 . S
C951 C950 1.385 . S
C952 C950 1.478 . S
C952 C954 1.381 . S
C952 C958 1.383 . S
C953 C949 1.495 . S
C953 H959 0.959 . S
C953 H960 0.961 . S
C953 H961 0.960 . S
C954 C952 1.381 . S
C954 C955 1.394 . S
C954 H962 0.930 . S
C955 C954 1.394 . S
C955 C956 1.383 . S
C955 H963 0.929 . S
C956 C955 1.383 . S
C956 C957 1.377 . S
C957 H941 0.930 . S
C957 C956 1.377 . S
C957 C958 1.379 . S
C958 H942 0.931 . S
C958 C952 1.383 . S
C958 C957 1.379 . S
H959 C953 0.959 . S
H960 C953 0.961 . S
H961 C953 0.960 . S
H962 C954 0.930 . S
H963 C955 0.929 . S
H964 C972 0.929 . S
H965 C974 0.930 . S
H966 C976 0.930 . S
H967 C979 0.929 . S
H968 C982 0.930 . S
H969 C984 0.960 . S
H970 C984 0.960 . S
H971 C984 0.960 . S
C972 H964 0.929 . S
C972 C973 1.377 . S
C972 C974 1.384 . S
C973 C972 1.377 . S
C973 C979 1.390 . S
C974 H965 0.930 . S
C974 C972 1.384 . S
C974 C975 1.372 . S
C975 C974 1.372 . S
C975 C976 1.400 . S
C975 C980 1.490 . S
C976 H966 0.930 . S
C976 C975 1.400 . S
C976 C979 1.386 . S
H977 C993 0.930 . S
H978 C994 0.931 . S
C979 H967 0.929 . S
C979 C973 1.390 . S
C979 C976 1.386 . S
C980 C975 1.490 . S
C980 C982 1.395 . S
C980 C983 1.403 . S
H981 C987 0.930 . S
C982 H968 0.930 . S
C982 C980 1.395 . S
C982 C985 1.403 . S
C983 C980 1.403 . S
C983 C984 1.524 . S
C983 C987 1.400 . S
C984 H969 0.960 . S
C984 H970 0.960 . S
C984 H971 0.960 . S
C984 C983 1.524 . S
C985 C982 1.403 . S
C985 C986 1.392 . S
C985 C989 1.495 . S
C986 C985 1.392 . S
C986 C987 1.385 . S
C986 C988 1.478 . S
C987 H981 0.930 . S
C987 C983 1.400 . S
C987 C986 1.385 . S
C988 C986 1.478 . S
C988 C990 1.381 . S
C988 C994 1.383 . S
C989 C985 1.495 . S
C989 H995 0.959 . S
C989 H996 0.961 . S
C989 H997 0.960 . S
C990 C988 1.381 . S
C990 C991 1.394 . S
C990 H998 0.930 . S
C991 C990 1.394 . S
C991 C992 1.383 . S
C991 H999 0.929 . S
C992 C991 1.383 . S
C992 C993 1.377 . S
C993 H977 0.930 . S
C993 C992 1.377 . S
C993 C994 1.379 . S
C994 H978 0.931 . S
C994 C988 1.383 . S
C994 C993 1.379 . S
H995 C989 0.959 . S
H996 C989 0.961 . S
H997 C989 0.960 . S
H998 C990 0.930 . S
H999 C991 0.929 . S
H1000 C1008 0.929 . S
H1001 C1010 0.930 . S
H1002 C1012 0.930 . S
H1003 C1015 0.929 . S
H1004 C1018 0.930 . S
H1005 C1020 0.960 . S
H1006 C1020 0.960 . S
H1007 C1020 0.960 . S
C1008 H1000 0.929 . S
C1008 C1009 1.377 . S
C1008 C1010 1.384 . S
C1009 C1008 1.377 . S
C1009 C1015 1.390 . S
C1010 H1001 0.930 . S
C1010 C1008 1.384 . S
C1010 C1011 1.372 . S
C1011 C1010 1.372 . S
C1011 C1012 1.400 . S
C1011 C1016 1.490 . S
C1012 H1002 0.930 . S
C1012 C1011 1.400 . S
C1012 C1015 1.386 . S
H1013 C1029 0.930 . S
H1014 C1030 0.931 . S
C1015 H1003 0.929 . S
C1015 C1009 1.390 . S
C1015 C1012 1.386 . S
C1016 C1011 1.490 . S
C1016 C1018 1.395 . S
C1016 C1019 1.403 . S
H1017 C1023 0.930 . S
C1018 H1004 0.930 . S
C1018 C1016 1.395 . S
C1018 C1021 1.403 . S
C1019 C1016 1.403 . S
C1019 C1020 1.524 . S
C1019 C1023 1.400 . S
C1020 H1005 0.960 . S
C1020 H1006 0.960 . S
C1020 H1007 0.960 . S
C1020 C1019 1.524 . S
C1021 C1018 1.403 . S
C1021 C1022 1.392 . S
C1021 C1025 1.495 . S
C1022 C1021 1.392 . S
C1022 C1023 1.385 . S
C1022 C1024 1.478 . S
C1023 H1017 0.930 . S
C1023 C1019 1.400 . S
C1023 C1022 1.385 . S
C1024 C1022 1.478 . S
C1024 C1026 1.381 . S
C1024 C1030 1.383 . S
C1025 C1021 1.495 . S
C1025 H1031 0.959 . S
C1025 H1032 0.961 . S
C1025 H1033 0.960 . S
C1026 C1024 1.381 . S
C1026 C1027 1.394 . S
C1026 H1034 0.930 . S
C1027 C1026 1.394 . S
C1027 C1028 1.383 . S
C1027 H1035 0.929 . S
C1028 C1027 1.383 . S
C1028 C1029 1.377 . S
C1029 H1013 0.930 . S
C1029 C1028 1.377 . S
C1029 C1030 1.379 . S
C1030 H1014 0.931 . S
C1030 C1024 1.383 . S
C1030 C1029 1.379 . S
H1031 C1025 0.959 . S
H1032 C1025 0.961 . S
H1033 C1025 0.960 . S
H1034 C1026 0.930 . S
H1035 C1027 0.929 . S
H1036 C1044 0.929 . S
H1037 C1046 0.930 . S
H1038 C1048 0.930 . S
H1039 C1051 0.929 . S
H1040 C1054 0.930 . S
H1041 C1056 0.960 . S
H1042 C1056 0.960 . S
H1043 C1056 0.960 . S
C1044 H1036 0.929 . S
C1044 C1045 1.377 . S
C1044 C1046 1.384 . S
C1045 C1044 1.377 . S
C1045 C1051 1.390 . S
C1046 H1037 0.930 . S
C1046 C1044 1.384 . S
C1046 C1047 1.372 . S
C1047 C1046 1.372 . S
C1047 C1048 1.400 . S
C1047 C1052 1.490 . S
C1048 H1038 0.930 . S
C1048 C1047 1.400 . S
C1048 C1051 1.386 . S
H1049 C1065 0.930 . S
H1050 C1066 0.931 . S
C1051 H1039 0.929 . S
C1051 C1045 1.390 . S
C1051 C1048 1.386 . S
C1052 C1047 1.490 . S
C1052 C1054 1.395 . S
C1052 C1055 1.403 . S
H1053 C1059 0.930 . S
C1054 H1040 0.930 . S
C1054 C1052 1.395 . S
C1054 C1057 1.403 . S
C1055 C1052 1.403 . S
C1055 C1056 1.524 . S
C1055 C1059 1.400 . S
C1056 H1041 0.960 . S
C1056 H1042 0.960 . S
C1056 H1043 0.960 . S
C1056 C1055 1.524 . S
C1057 C1054 1.403 . S
C1057 C1058 1.392 . S
C1057 C1061 1.495 . S
C1058 C1057 1.392 . S
C1058 C1059 1.385 . S
C1058 C1060 1.478 . S
C1059 H1053 0.930 . S
C1059 C1055 1.400 . S
C1059 C1058 1.385 . S
C1060 C1058 1.478 . S
C1060 C1062 1.381 . S
C1060 C1066 1.383 . S
C1061 C1057 1.495 . S
C1061 H1067 0.959 . S
C1061 H1068 0.961 . S
C1061 H1069 0.960 . S
C1062 C1060 1.381 . S
C1062 C1063 1.394 . S
C1062 H1070 0.930 . S
C1063 C1062 1.394 . S
C1063 C1064 1.383 . S
C1063 H1071 0.929 . S
C1064 C1063 1.383 . S
C1064 C1065 1.377 . S
C1065 H1049 0.930 . S
C1065 C1064 1.377 . S
C1065 C1066 1.379 . S
C1066 H1050 0.931 . S
C1066 C1060 1.383 . S
C1066 C1065 1.379 . S
H1067 C1061 0.959 . S
H1068 C1061 0.961 . S
H1069 C1061 0.960 . S
H1070 C1062 0.930 . S
H1071 C1063 0.929 . S
H1072 C1080 0.929 . S
H1073 C1082 0.930 . S
H1074 C1084 0.930 . S
H1075 C1087 0.929 . S
H1076 C1090 0.930 . S
H1077 C1092 0.960 . S
H1078 C1092 0.960 . S
H1079 C1092 0.960 . S
C1080 H1072 0.929 . S
C1080 C1081 1.377 . S
C1080 C1082 1.384 . S
C1081 C1080 1.377 . S
C1081 C1087 1.390 . S
C1082 H1073 0.930 . S
C1082 C1080 1.384 . S
C1082 C1083 1.372 . S
C1083 C1082 1.372 . S
C1083 C1084 1.400 . S
C1083 C1088 1.490 . S
C1084 H1074 0.930 . S
C1084 C1083 1.400 . S
C1084 C1087 1.386 . S
H1085 C1101 0.930 . S
H1086 C1102 0.931 . S
C1087 H1075 0.929 . S
C1087 C1081 1.390 . S
C1087 C1084 1.386 . S
C1088 C1083 1.490 . S
C1088 C1090 1.395 1_554 S
C1088 C1091 1.403 1_455 S
H1089 C1095 0.930 . S
C1090 H1076 0.930 . S
C1090 C1088 1.395 1_556 S
C1090 C1093 1.403 . S
C1091 C1088 1.403 1_655 S
C1091 C1092 1.524 . S
C1091 C1095 1.400 1_554 S
C1092 H1077 0.960 . S
C1092 H1078 0.960 . S
C1092 H1079 0.960 . S
C1092 C1091 1.524 . S
C1093 C1090 1.403 . S
C1093 C1094 1.392 1_455 S
C1093 C1097 1.495 . S
C1094 C1093 1.392 1_655 S
C1094 C1095 1.385 . S
C1094 C1096 1.478 . S
C1095 H1089 0.930 . S
C1095 C1091 1.400 1_556 S
C1095 C1094 1.385 . S
C1096 C1094 1.478 . S
C1096 C1098 1.381 . S
C1096 C1102 1.383 . S
C1097 C1093 1.495 . S
C1097 H1103 0.959 . S
C1097 H1104 0.961 . S
C1097 H1105 0.960 . S
C1098 C1096 1.381 . S
C1098 C1099 1.394 . S
C1098 H1106 0.930 . S
C1099 C1098 1.394 . S
C1099 C1100 1.383 . S
C1099 H1107 0.929 . S
C1100 C1099 1.383 . S
C1100 C1101 1.377 . S
C1101 H1085 0.930 . S
C1101 C1100 1.377 . S
C1101 C1102 1.379 . S
C1102 H1086 0.931 . S
C1102 C1096 1.383 . S
C1102 C1101 1.379 . S
H1103 C1097 0.959 . S
H1104 C1097 0.961 . S
H1105 C1097 0.960 . S
H1106 C1098 0.930 . S
H1107 C1099 0.929 . S
H1108 C1116 0.929 . S
H1109 C1118 0.930 . S
H1110 C1120 0.930 . S
H1111 C1123 0.929 . S
H1112 C1126 0.930 . S
H1113 C1128 0.960 . S
H1114 C1128 0.956 1_455 S
H1115 C1128 0.960 . S
C1116 H1108 0.929 . S
C1116 C1117 1.377 . S
C1116 C1118 1.384 . S
C1117 C1116 1.377 . S
C1117 C1123 1.390 . S
C1118 H1109 0.930 . S
C1118 C1116 1.384 . S
C1118 C1119 1.372 . S
C1119 C1118 1.372 . S
C1119 C1120 1.400 . S
C1119 C1124 1.490 . S
C1120 H1110 0.930 . S
C1120 C1119 1.400 . S
C1120 C1123 1.386 . S
H1121 C1137 0.930 . S
H1122 C1138 0.931 . S
C1123 H1111 0.929 . S
C1123 C1117 1.390 . S
C1123 C1120 1.386 . S
C1124 C1119 1.490 . S
C1124 C1126 1.395 1_566 S
C1124 C1127 1.403 1_455 S
H1125 C1131 0.930 1_556 S
C1126 H1112 0.930 . S
C1126 C1124 1.395 1_544 S
C1126 C1129 1.403 . S
C1127 C1124 1.403 1_655 S
C1127 C1128 1.524 . S
C1127 C1131 1.395 1_556 S
C1128 H1113 0.960 . S
C1128 H1114 0.956 1_655 S
C1128 H1115 0.960 . S
C1128 C1127 1.524 . S
C1129 C1126 1.403 . S
C1129 C1130 1.392 1_455 S
C1129 C1133 1.495 . S
C1130 C1129 1.392 1_655 S
C1130 C1131 1.391 1_545 S
C1130 C1132 1.478 . S
C1131 H1125 0.930 1_554 S
C1131 C1127 1.395 1_554 S
C1131 C1130 1.391 1_565 S
C1132 C1130 1.478 . S
C1132 C1134 1.381 . S
C1132 C1138 1.383 . S
C1133 C1129 1.495 . S
C1133 H1139 0.959 . S
C1133 H1140 0.961 . S
C1133 H1141 0.960 . S
C1134 C1132 1.381 . S
C1134 C1135 1.394 . S
C1134 H1142 0.930 . S
C1135 C1134 1.394 . S
C1135 C1136 1.383 . S
C1135 H1143 0.929 . S
C1136 C1135 1.383 . S
C1136 C1137 1.377 . S
C1137 H1121 0.930 . S
C1137 C1136 1.377 . S
C1137 C1138 1.379 . S
C1138 H1122 0.931 . S
C1138 C1132 1.383 . S
C1138 C1137 1.379 . S
H1139 C1133 0.959 . S
H1140 C1133 0.961 . S
H1141 C1133 0.960 . S
H1142 C1134 0.930 . S
H1143 C1135 0.929 . S
H1144 C1152 0.929 . S
H1145 C1154 0.930 . S
H1146 C1156 0.930 . S
H1147 C1159 0.929 . S
H1148 C1162 0.930 . S
H1149 C1164 0.960 . S
H1150 C1164 0.960 . S
H1151 C1164 0.960 . S
C1152 H1144 0.929 . S
C1152 C1153 1.377 . S
C1152 C1154 1.384 . S
C1153 C1152 1.377 . S
C1153 C1159 1.390 . S
C1154 H1145 0.930 . S
C1154 C1152 1.384 . S
C1154 C1155 1.372 . S
C1155 C1154 1.372 . S
C1155 C1156 1.400 . S
C1155 C1160 1.490 . S
C1156 H1146 0.930 . S
C1156 C1155 1.400 . S
C1156 C1159 1.386 . S
H1157 C1173 0.930 . S
H1158 C1174 0.931 . S
C1159 H1147 0.929 . S
C1159 C1153 1.390 . S
C1159 C1156 1.386 . S
C1160 C1155 1.490 . S
C1160 C1162 1.395 1_554 S
C1160 C1163 1.403 1_565 S
H1161 C1167 0.930 . S
C1162 H1148 0.930 . S
C1162 C1160 1.395 1_556 S
C1162 C1165 1.403 . S
C1163 C1160 1.403 1_545 S
C1163 C1164 1.524 . S
C1163 C1167 1.400 . S
C1164 H1149 0.960 . S
C1164 H1150 0.960 . S
C1164 H1151 0.960 . S
C1164 C1163 1.524 . S
C1165 C1162 1.403 . S
C1165 C1166 1.392 1_565 S
C1165 C1169 1.495 . S
C1166 C1165 1.392 1_545 S
C1166 C1167 1.385 1_556 S
C1166 C1168 1.478 . S
C1167 H1161 0.930 . S
C1167 C1163 1.400 . S
C1167 C1166 1.385 1_554 S
C1168 C1166 1.478 . S
C1168 C1170 1.381 . S
C1168 C1174 1.383 . S
C1169 C1165 1.495 . S
C1169 H1175 0.959 . S
C1169 H1176 0.961 . S
C1169 H1177 0.960 . S
C1170 C1168 1.381 . S
C1170 C1171 1.394 . S
C1170 H1178 0.930 . S
C1171 C1170 1.394 . S
C1171 C1172 1.383 . S
C1171 H1179 0.929 . S
C1172 C1171 1.383 . S
C1172 C1173 1.377 . S
C1173 H1157 0.930 . S
C1173 C1172 1.377 . S
C1173 C1174 1.379 . S
C1174 H1158 0.931 . S
C1174 C1168 1.383 . S
C1174 C1173 1.379 . S
H1175 C1169 0.959 . S
H1176 C1169 0.961 . S
H1177 C1169 0.960 . S
H1178 C1170 0.930 . S
H1179 C1171 0.929 . S
H1180 C1188 0.929 . S
H1181 C1190 0.930 . S
H1182 C1192 0.930 . S
H1183 C1195 0.929 . S
H1184 C1198 0.930 . S
H1185 C1200 0.960 . S
H1186 C1200 0.960 . S
H1187 C1200 0.960 . S
C1188 H1180 0.929 . S
C1188 C1189 1.377 . S
C1188 C1190 1.384 . S
C1189 C1188 1.377 . S
C1189 C1195 1.390 . S
C1190 H1181 0.930 . S
C1190 C1188 1.384 . S
C1190 C1191 1.372 . S
C1191 C1190 1.372 . S
C1191 C1192 1.400 . S
C1191 C1196 1.490 . S
C1192 H1182 0.930 . S
C1192 C1191 1.400 . S
C1192 C1195 1.386 . S
H1193 C1209 0.930 . S
H1194 C1210 0.931 . S
C1195 H1183 0.929 . S
C1195 C1189 1.390 . S
C1195 C1192 1.386 . S
C1196 C1191 1.490 . S
C1196 C1198 1.395 1_556 S
C1196 C1199 1.403 . S
H1197 C1203 0.930 . S
C1198 H1184 0.930 . S
C1198 C1196 1.395 1_554 S
C1198 C1201 1.403 . S
C1199 C1196 1.403 . S
C1199 C1200 1.524 . S
C1199 C1203 1.400 . S
C1200 H1185 0.960 . S
C1200 H1186 0.960 . S
C1200 H1187 0.960 . S
C1200 C1199 1.524 . S
C1201 C1198 1.403 . S
C1201 C1202 1.392 . S
C1201 C1205 1.495 . S
C1202 C1201 1.392 . S
C1202 C1203 1.385 1_554 S
C1202 C1204 1.478 . S
C1203 H1197 0.930 . S
C1203 C1199 1.400 . S
C1203 C1202 1.385 1_556 S
C1204 C1202 1.478 . S
C1204 C1206 1.381 . S
C1204 C1210 1.383 . S
C1205 C1201 1.495 . S
C1205 H1211 0.959 . S
C1205 H1212 0.961 . S
C1205 H1213 0.960 . S
C1206 C1204 1.381 . S
C1206 C1207 1.394 . S
C1206 H1214 0.930 . S
C1207 C1206 1.394 . S
C1207 C1208 1.383 . S
C1207 H1215 0.929 . S
C1208 C1207 1.383 . S
C1208 C1209 1.377 . S
C1209 H1193 0.930 . S
C1209 C1208 1.377 . S
C1209 C1210 1.379 . S
C1210 H1194 0.931 . S
C1210 C1204 1.383 . S
C1210 C1209 1.379 . S
H1211 C1205 0.959 . S
H1212 C1205 0.961 . S
H1213 C1205 0.960 . S
H1214 C1206 0.930 . S
H1215 C1207 0.929 . S
H1216 C1224 0.929 . S
H1217 C1226 0.930 1_655 S
H1218 C1228 0.930 . S
H1219 C1231 0.929 . S
H1220 C1234 0.930 . S
H1221 C1236 0.960 1_545 S
H1222 C1236 0.965 . S
H1223 C1236 0.960 . S
C1224 H1216 0.929 . S
C1224 C1225 1.377 . S
C1224 C1226 1.384 . S
C1225 C1224 1.377 . S
C1225 C1231 1.390 . S
C1226 H1217 0.930 1_455 S
C1226 C1224 1.384 . S
C1226 C1227 1.372 . S
C1227 C1226 1.372 . S
C1227 C1228 1.400 . S
C1227 C1232 1.490 . S
C1228 H1218 0.930 . S
C1228 C1227 1.400 . S
C1228 C1231 1.386 . S
H1229 C1245 0.930 . S
H1230 C1246 0.931 . S
C1231 H1219 0.929 . S
C1231 C1225 1.390 . S
C1231 C1228 1.386 . S
C1232 C1227 1.490 . S
C1232 C1234 1.395 1_455 S
C1232 C1235 1.403 . S
H1233 C1239 0.930 . S
C1234 H1220 0.930 . S
C1234 C1232 1.395 1_655 S
C1234 C1237 1.403 1_565 S
C1235 C1232 1.403 . S
C1235 C1236 1.524 . S
C1235 C1239 1.400 1_565 S
C1236 H1221 0.960 1_565 S
C1236 H1222 0.965 . S
C1236 H1223 0.960 . S
C1236 C1235 1.524 . S
C1237 C1234 1.403 1_545 S
C1237 C1238 1.392 . S
C1237 C1241 1.495 . S
C1238 C1237 1.392 . S
C1238 C1239 1.385 1_655 S
C1238 C1240 1.478 . S
C1239 H1233 0.930 . S
C1239 C1235 1.400 1_545 S
C1239 C1238 1.385 1_455 S
C1240 C1238 1.478 . S
C1240 C1242 1.381 . S
C1240 C1246 1.383 . S
C1241 C1237 1.495 . S
C1241 H1247 0.959 1_545 S
C1241 H1248 0.961 . S
C1241 H1249 0.960 . S
C1242 C1240 1.381 . S
C1242 C1243 1.394 . S
C1242 H1250 0.930 . S
C1243 C1242 1.394 . S
C1243 C1244 1.383 . S
C1243 H1251 0.929 . S
C1244 C1243 1.383 . S
C1244 C1245 1.377 . S
C1245 H1229 0.930 . S
C1245 C1244 1.377 . S
C1245 C1246 1.379 . S
C1246 H1230 0.931 . S
C1246 C1240 1.383 . S
C1246 C1245 1.379 . S
H1247 C1241 0.959 1_565 S
H1248 C1241 0.961 . S
H1249 C1241 0.960 . S
H1250 C1242 0.930 . S
H1251 C1243 0.929 . S
H1252 C1260 0.929 . S
H1253 C1262 0.930 . S
H1254 C1264 0.930 . S
H1255 C1267 0.929 1_565 S
H1256 C1270 0.930 . S
H1257 C1272 0.960 . S
H1258 C1272 0.960 . S
H1259 C1272 0.960 . S
C1260 H1252 0.929 . S
C1260 C1261 1.377 . S
C1260 C1262 1.384 . S
C1261 C1260 1.377 . S
C1261 C1267 1.390 . S
C1262 H1253 0.930 . S
C1262 C1260 1.384 . S
C1262 C1263 1.372 . S
C1263 C1262 1.372 . S
C1263 C1264 1.400 1_545 S
C1263 C1268 1.490 . S
C1264 H1254 0.930 . S
C1264 C1263 1.400 1_565 S
C1264 C1267 1.386 1_565 S
H1265 C1281 0.930 . S
H1266 C1282 0.931 . S
C1267 H1255 0.929 1_545 S
C1267 C1261 1.390 . S
C1267 C1264 1.386 1_545 S
C1268 C1263 1.490 . S
C1268 C1270 1.395 . S
C1268 C1271 1.403 1_545 S
H1269 C1275 0.930 . S
C1270 H1256 0.930 . S
C1270 C1268 1.395 . S
C1270 C1273 1.403 . S
C1271 C1268 1.403 1_565 S
C1271 C1272 1.524 . S
C1271 C1275 1.400 . S
C1272 H1257 0.960 . S
C1272 H1258 0.960 . S
C1272 H1259 0.960 . S
C1272 C1271 1.524 . S
C1273 C1270 1.403 . S
C1273 C1274 1.392 1_545 S
C1273 C1277 1.495 . S
C1274 C1273 1.392 1_565 S
C1274 C1275 1.385 . S
C1274 C1276 1.478 . S
C1275 H1269 0.930 . S
C1275 C1271 1.400 . S
C1275 C1274 1.385 . S
C1276 C1274 1.478 . S
C1276 C1278 1.381 1_565 S
C1276 C1282 1.383 . S
C1277 C1273 1.495 . S
C1277 H1283 0.959 . S
C1277 H1284 0.961 . S
C1277 H1285 0.960 . S
C1278 C1276 1.381 1_545 S
C1278 C1279 1.394 1_545 S
C1278 H1286 0.930 . S
C1279 C1278 1.394 1_565 S
C1279 C1280 1.383 . S
C1279 H1287 0.929 1_565 S
C1280 C1279 1.383 . S
C1280 C1281 1.377 . S
C1281 H1265 0.930 . S
C1281 C1280 1.377 . S
C1281 C1282 1.379 . S
C1282 H1266 0.931 . S
C1282 C1276 1.383 . S
C1282 C1281 1.379 . S
H1283 C1277 0.959 . S
H1284 C1277 0.961 . S
H1285 C1277 0.960 . S
H1286 C1278 0.930 . S
H1287 C1279 0.929 1_545 S
H1288 C1296 0.929 . S
H1289 C1298 0.930 . S
H1290 C1300 0.930 . S
H1291 C1303 0.929 . S
H1292 C1306 0.930 . S
H1293 C1308 0.960 . S
H1294 C1308 0.960 . S
H1295 C1308 0.960 . S
C1296 H1288 0.929 . S
C1296 C1297 1.377 . S
C1296 C1298 1.384 . S
C1297 C1296 1.377 . S
C1297 C1303 1.390 . S
C1298 H1289 0.930 . S
C1298 C1296 1.384 . S
C1298 C1299 1.372 . S
C1299 C1298 1.372 . S
C1299 C1300 1.400 . S
C1299 C1304 1.490 . S
C1300 H1290 0.930 . S
C1300 C1299 1.400 . S
C1300 C1303 1.386 . S
H1301 C1317 0.930 . S
H1302 C1318 0.931 . S
C1303 H1291 0.929 . S
C1303 C1297 1.390 . S
C1303 C1300 1.386 . S
C1304 C1299 1.490 . S
C1304 C1306 1.395 . S
C1304 C1307 1.403 . S
H1305 C1311 0.930 . S
C1306 H1292 0.930 . S
C1306 C1304 1.395 . S
C1306 C1309 1.403 . S
C1307 C1304 1.403 . S
C1307 C1308 1.524 . S
C1307 C1311 1.400 . S
C1308 H1293 0.960 . S
C1308 H1294 0.960 . S
C1308 H1295 0.960 . S
C1308 C1307 1.524 . S
C1309 C1306 1.403 . S
C1309 C1310 1.392 . S
C1309 C1313 1.495 . S
C1310 C1309 1.392 . S
C1310 C1311 1.385 . S
C1310 C1312 1.478 . S
C1311 H1305 0.930 . S
C1311 C1307 1.400 . S
C1311 C1310 1.385 . S
C1312 C1310 1.478 . S
C1312 C1314 1.381 . S
C1312 C1318 1.383 . S
C1313 C1309 1.495 . S
C1313 H1319 0.959 . S
C1313 H1320 0.961 . S
C1313 H1321 0.960 . S
C1314 C1312 1.381 . S
C1314 C1315 1.394 . S
C1314 H1322 0.930 . S
C1315 C1314 1.394 . S
C1315 C1316 1.383 . S
C1315 H1323 0.929 . S
C1316 C1315 1.383 . S
C1316 C1317 1.377 . S
C1317 H1301 0.930 . S
C1317 C1316 1.377 . S
C1317 C1318 1.379 . S
C1318 H1302 0.931 . S
C1318 C1312 1.383 . S
C1318 C1317 1.379 . S
H1319 C1313 0.959 . S
H1320 C1313 0.961 . S
H1321 C1313 0.960 . S
H1322 C1314 0.930 . S
H1323 C1315 0.929 . S
H1324 C1332 0.929 . S
H1325 C1334 0.930 . S
H1326 C1336 0.930 . S
H1327 C1339 0.929 . S
H1328 C1342 0.930 . S
H1329 C1344 0.960 . S
H1330 C1344 0.960 1_655 S
H1331 C1344 0.960 . S
C1332 H1324 0.929 . S
C1332 C1333 1.377 . S
C1332 C1334 1.384 . S
C1333 C1332 1.377 . S
C1333 C1339 1.390 . S
C1334 H1325 0.930 . S
C1334 C1332 1.384 . S
C1334 C1335 1.372 . S
C1335 C1334 1.372 . S
C1335 C1336 1.400 . S
C1335 C1340 1.490 . S
C1336 H1326 0.930 . S
C1336 C1335 1.400 . S
C1336 C1339 1.386 . S
H1337 C1353 0.930 . S
H1338 C1354 0.931 . S
C1339 H1327 0.929 . S
C1339 C1333 1.390 . S
C1339 C1336 1.386 . S
C1340 C1335 1.490 . S
C1340 C1342 1.395 . S
C1340 C1343 1.388 1_655 S
H1341 C1347 0.930 . S
C1342 H1328 0.930 . S
C1342 C1340 1.395 . S
C1342 C1345 1.403 . S
C1343 C1340 1.388 1_455 S
C1343 C1344 1.526 . S
C1343 C1347 1.413 . S
C1344 H1329 0.960 . S
C1344 H1330 0.960 1_455 S
C1344 H1331 0.960 . S
C1344 C1343 1.526 . S
C1345 C1342 1.403 . S
C1345 C1346 1.392 1_655 S
C1345 C1349 1.495 . S
C1346 C1345 1.392 1_455 S
C1346 C1347 1.385 . S
C1346 C1348 1.478 . S
C1347 H1341 0.930 . S
C1347 C1343 1.413 . S
C1347 C1346 1.385 . S
C1348 C1346 1.478 . S
C1348 C1350 1.381 . S
C1348 C1354 1.383 . S
C1349 C1345 1.495 . S
C1349 H1355 0.959 . S
C1349 H1356 0.961 1_655 S
C1349 H1357 0.960 . S
C1350 C1348 1.381 . S
C1350 C1351 1.394 . S
C1350 H1358 0.930 . S
C1351 C1350 1.394 . S
C1351 C1352 1.383 . S
C1351 H1359 0.929 . S
C1352 C1351 1.383 . S
C1352 C1353 1.377 . S
C1353 H1337 0.930 . S
C1353 C1352 1.377 . S
C1353 C1354 1.379 . S
C1354 H1338 0.931 . S
C1354 C1348 1.383 . S
C1354 C1353 1.379 . S
H1355 C1349 0.959 . S
H1356 C1349 0.961 1_455 S
H1357 C1349 0.960 . S
H1358 C1350 0.930 . S
H1359 C1351 0.929 . S
C217 C3 2.362 . S
C236 C29 2.363 . S
C253 C16 2.364 . S
C272 C42 2.351 . S
C289 C55 2.362 . S
C308 C81 2.357 . S
C325 C94 2.365 . S
C344 C68 2.350 . S
C361 C109 2.362 . S
C380 C135 2.362 . S
C397 C148 2.365 . S
C416 C122 2.360 . S
C433 C187 2.362 . S
C452 C161 2.367 . S
C469 C200 2.365 . S
C488 C174 2.364 . S
C505 C92 1.911 . S
C524 C1 1.905 . S
C541 C14 1.903 . S
C560 C53 1.890 . S
C577 C66 1.905 . S
C596 C27 1.917 . S
C613 C40 1.907 . S
C632 C79 1.885 . S
C649 C205 1.909 . S
C668 C114 1.923 . S
C685 C127 1.908 . S
C704 C166 1.892 . S
C721 C140 1.903 . S
C740 C179 1.886 . S
C757 C192 1.908 . S
C776 C153 1.922 . S
C793 C10 0.205 . S
C812 C62 0.314 . S
C829 C23 0.222 . S
C848 C75 0.204 . S
C865 C88 0.236 . S
C884 C36 0.134 . S
C901 C49 0.215 . S
C920 C101 0.237 . S
C937 C157 0.240 . S
C956 C105 0.313 . S
C973 C170 0.240 . S
C992 C118 0.315 . S
C1009 C131 0.203 . S
C1028 C183 0.121 . S
C1045 C144 0.233 . S
C1064 C196 0.239 . S
C1081 C5 1.898 . S
C1100 C107 1.883 . S
C1117 C120 1.902 . S
C1136 C18 1.904 . S
C1153 C31 1.896 . S
C1172 C133 1.894 . S
C1189 C146 1.901 . S
C1208 C44 1.893 . S
C1225 C57 1.900 . S
C1244 C159 1.907 . S
C1261 C70 1.900 . S
C1280 C172 1.885 . S
C1297 C185 1.901 . S
C1316 C83 1.897 . S
C1333 C96 1.896 . S
C1352 C198 1.889 . S
