# Generated by pormake.
# Topology umy, (4)-cn, num edge types: 1
# Building blocks:
#     Node 0, Type 0, BuildingBlock: GALJAG_clean_sbu_0, # of connection points: 4
#     Node 1, Type 0, BuildingBlock: GALJAG_clean_sbu_0, # of connection points: 4
#     Node 2, Type 0, BuildingBlock: GALJAG_clean_sbu_0, # of connection points: 4
#     Node 3, Type 0, BuildingBlock: GALJAG_clean_sbu_0, # of connection points: 4
#     Node 4, Type 0, BuildingBlock: GALJAG_clean_sbu_0, # of connection points: 4
#     Node 5, Type 0, BuildingBlock: GALJAG_clean_sbu_0, # of connection points: 4
#     Node 6, Type 0, BuildingBlock: GALJAG_clean_sbu_0, # of connection points: 4
#     Node 7, Type 0, BuildingBlock: GALJAG_clean_sbu_0, # of connection points: 4
#     Node 8, Type 0, BuildingBlock: GALJAG_clean_sbu_0, # of connection points: 4
#     Node 9, Type 0, BuildingBlock: GALJAG_clean_sbu_0, # of connection points: 4
#     Node 10, Type 0, BuildingBlock: GALJAG_clean_sbu_0, # of connection points: 4
#     Node 11, Type 0, BuildingBlock: GALJAG_clean_sbu_0, # of connection points: 4
#     Edge 12, Type (0, 0), BuildingBlock: EZIPEK_clean_linker_0, # of connection points: 2
#     Edge 13, Type (0, 0), BuildingBlock: EZIPEK_clean_linker_0, # of connection points: 2
#     Edge 14, Type (0, 0), BuildingBlock: EZIPEK_clean_linker_0, # of connection points: 2
#     Edge 15, Type (0, 0), BuildingBlock: EZIPEK_clean_linker_0, # of connection points: 2
#     Edge 16, Type (0, 0), BuildingBlock: EZIPEK_clean_linker_0, # of connection points: 2
#     Edge 17, Type (0, 0), BuildingBlock: EZIPEK_clean_linker_0, # of connection points: 2
#     Edge 18, Type (0, 0), BuildingBlock: EZIPEK_clean_linker_0, # of connection points: 2
#     Edge 19, Type (0, 0), BuildingBlock: EZIPEK_clean_linker_0, # of connection points: 2
#     Edge 20, Type (0, 0), BuildingBlock: EZIPEK_clean_linker_0, # of connection points: 2
#     Edge 21, Type (0, 0), BuildingBlock: EZIPEK_clean_linker_0, # of connection points: 2
#     Edge 22, Type (0, 0), BuildingBlock: EZIPEK_clean_linker_0, # of connection points: 2
#     Edge 23, Type (0, 0), BuildingBlock: EZIPEK_clean_linker_0, # of connection points: 2
#     Edge 24, Type (0, 0), BuildingBlock: EZIPEK_clean_linker_0, # of connection points: 2
#     Edge 25, Type (0, 0), BuildingBlock: EZIPEK_clean_linker_0, # of connection points: 2
#     Edge 26, Type (0, 0), BuildingBlock: EZIPEK_clean_linker_0, # of connection points: 2
#     Edge 27, Type (0, 0), BuildingBlock: EZIPEK_clean_linker_0, # of connection points: 2
#     Edge 28, Type (0, 0), BuildingBlock: EZIPEK_clean_linker_0, # of connection points: 2
#     Edge 29, Type (0, 0), BuildingBlock: EZIPEK_clean_linker_0, # of connection points: 2
#     Edge 30, Type (0, 0), BuildingBlock: EZIPEK_clean_linker_0, # of connection points: 2
#     Edge 31, Type (0, 0), BuildingBlock: EZIPEK_clean_linker_0, # of connection points: 2
#     Edge 32, Type (0, 0), BuildingBlock: EZIPEK_clean_linker_0, # of connection points: 2
#     Edge 33, Type (0, 0), BuildingBlock: EZIPEK_clean_linker_0, # of connection points: 2
#     Edge 34, Type (0, 0), BuildingBlock: EZIPEK_clean_linker_0, # of connection points: 2
#     Edge 35, Type (0, 0), BuildingBlock: EZIPEK_clean_linker_0, # of connection points: 2
# Relax obj value: 0.077
# Max RMSD: 0.076
# Mean RMSD: 0.076
data_MOF--net-umy--node1-GALJAG_clean_sbu_0--edge1-EZIPEK_clean_linker_0
_symmetry_space_group_name_H-M    P1
_symmetry_Int_Tables_number       1
_symmetry_cell_setting            triclinic
loop_
_symmetry_equiv_pos_as_xyz
'x, y, z'
_cell_length_a     25.898309
_cell_length_b     25.873042
_cell_length_c     43.968987
_cell_angle_alpha  89.975876
_cell_angle_beta   90.022234
_cell_angle_gamma 120.02657
loop_
_atom_site_label
_atom_site_type_symbol
_atom_site_fract_x
_atom_site_fract_y
_atom_site_fract_z
_atom_type_partial_charge
In0 In 0.05014 0.33843 0.14434 0.0
O1 O 0.05457 0.28508 0.10406 0.0
O2 O 0.13155 0.36879 0.11419 0.0
C3 C 0.95759 0.25061 0.17469 0.0
C4 C 0.01746 0.41073 0.11709 0.0
C5 C 0.12355 0.36823 0.19249 0.0
O6 O 0.98391 0.23969 0.15365 0.0
O7 O 0.97607 0.30515 0.17943 0.0
O8 O 0.10081 0.39929 0.18432 0.0
O9 O 0.11194 0.32451 0.17546 0.0
C10 C 0.10757 0.32343 0.09726 0.0
O11 O 0.06325 0.42995 0.13358 0.0
O12 O 0.98628 0.35464 0.11527 0.0
In13 In 0.71207 0.05211 0.31073 0.0
O14 O 0.6377 0.07407 0.30691 0.0
O15 O 0.63904 0.01295 0.27482 0.0
C16 C 0.75347 0.12398 0.35969 0.0
C17 C 0.78844 0.1004 0.26418 0.0
C18 C 0.6946 0.95235 0.33938 0.0
O19 O 0.69871 0.08721 0.35597 0.0
O20 O 0.78683 0.12646 0.33822 0.0
O21 O 0.74567 0.99683 0.33517 0.0
O22 O 0.65279 0.95565 0.32662 0.0
C23 C 0.61412 0.04143 0.28388 0.0
O24 O 0.77067 0.04759 0.27298 0.0
O25 O 0.76843 0.12838 0.27887 0.0
In26 In 0.65057 0.71391 0.48208 0.0
O27 O 0.55718 0.63507 0.47592 0.0
O28 O 0.62524 0.63838 0.44767 0.0
C29 C 0.62472 0.76342 0.52909 0.0
C30 C 0.67063 0.79154 0.43662 0.0
C31 C 0.73036 0.69454 0.51231 0.0
O32 O 0.58957 0.7108 0.52023 0.0
O33 O 0.67155 0.7921 0.51339 0.0
O34 O 0.74126 0.71754 0.48609 0.0
O35 O 0.67886 0.67882 0.52193 0.0
C36 C 0.57058 0.61204 0.45432 0.0
O37 O 0.71138 0.78285 0.44665 0.0
O38 O 0.62132 0.76301 0.45015 0.0
In39 In 0.94537 0.65774 0.64657 0.0
O40 O 0.93276 0.56497 0.64286 0.0
O41 O 0.98908 0.6303 0.61013 0.0
C42 C 0.8752 0.62101 0.69637 0.0
C43 C 0.88531 0.67461 0.60093 0.0
C44 C 0.04643 0.7446 0.67241 0.0
O45 O 0.91368 0.60576 0.69135 0.0
O46 O 0.8699 0.65162 0.67565 0.0
O47 O -0.0015 0.74584 0.67208 0.0
O48 O 0.04529 0.70281 0.65721 0.0
C49 C 0.96475 0.5768 0.61926 0.0
O50 O 0.92879 0.71811 0.61409 0.0
O51 O 0.87392 0.6242 0.61049 0.0
In52 In 0.28397 0.93903 0.81531 0.0
O53 O 0.22109 0.93254 0.77695 0.0
O54 O 0.23554 0.85938 0.78417 0.0
C55 C 0.29915 0.03854 0.84281 0.0
C56 C 0.38401 0.95831 0.78713 0.0
C57 C 0.23672 0.86826 0.86432 0.0
O58 O 0.25773 0.00998 0.82394 0.0
O59 O 0.33505 0.01952 0.84616 0.0
O60 O 0.29132 0.89224 0.85778 0.0
O61 O 0.20558 0.87767 0.84553 0.0
C62 C 0.21015 0.88126 0.76864 0.0
O63 O 0.3595 0.92027 0.80803 0.0
O64 O 0.35972 0.98905 0.78122 0.0
In65 In 0.3379 0.28659 0.97768 0.0
O66 O 0.43318 0.36119 0.97152 0.0
O67 O 0.36695 0.36267 0.9434 0.0
C68 C 0.35696 0.23718 0.02702 0.0
C69 C 0.31987 0.21078 0.93193 0.0
C70 C 0.25487 0.30342 0.00529 0.0
O71 O 0.39033 0.29146 0.02031 0.0
O72 O 0.31593 0.20731 0.00821 0.0
O73 O 0.24132 0.26333 0.9855 0.0
O74 O 0.30995 0.33767 0.00923 0.0
C75 C 0.4215 0.38632 0.95019 0.0
O76 O 0.28299 0.22774 0.93805 0.0
O77 O 0.3652 0.23148 0.94888 0.0
In78 In 0.66115 0.94985 0.69045 0.0
O79 O 0.71752 0.94678 0.72997 0.0
O80 O 0.63854 0.86664 0.71735 0.0
C81 C 0.74394 0.05178 0.66354 0.0
C82 C 0.57556 0.9613 0.71839 0.0
C83 C 0.62945 0.88219 0.63999 0.0
O84 O 0.7492 0.00614 0.66547 0.0
O85 O 0.70009 0.04825 0.67774 0.0
O86 O 0.60266 0.90941 0.64821 0.0
O87 O 0.67008 0.88737 0.65769 0.0
C88 C 0.68279 0.89182 0.73487 0.0
O89 O 0.5665 0.93258 0.69385 0.0
O90 O 0.62825 0.98565 0.72847 0.0
In91 In 0.71462 0.6549 0.85403 0.0
O92 O 0.76922 0.71023 0.89475 0.0
O93 O 0.7715 0.63117 0.88379 0.0
C94 C 0.70047 0.73763 0.82371 0.0
C95 C 0.61258 0.57567 0.88131 0.0
C96 C 0.76093 0.62412 0.80734 0.0
O97 O 0.74548 0.75107 0.84 0.0
O98 O 0.66105 0.68314 0.82403 0.0
O99 O 0.71161 0.58757 0.81923 0.0
O100 O 0.78763 0.67476 0.8198 0.0
C101 C 0.78871 0.67553 0.90115 0.0
O102 O 0.63228 0.56354 0.85776 0.0
O103 O 0.6427 0.62899 0.89038 0.0
In104 In 0.04831 0.70612 0.02448 0.0
O105 O 0.05398 0.76544 0.06432 0.0
O106 O 0.13059 0.75833 0.05399 0.0
C107 C 0.95351 0.69572 0.99422 0.0
C108 C 0.01746 0.60212 0.05231 0.0
C109 C 0.12016 0.75261 0.976 0.0
O110 O 0.97859 0.73373 0.01514 0.0
O111 O 0.97372 0.66097 0.99 0.0
O112 O 0.10076 0.69929 0.98437 0.0
O113 O 0.10575 0.78281 0.99283 0.0
C114 C 0.10722 0.78048 0.07081 0.0
O115 O 0.06187 0.62776 0.03481 0.0
O116 O 0.98697 0.62757 0.05494 0.0
In117 In 0.33681 0.054 0.18892 0.0
O118 O 0.43243 0.07601 0.1955 0.0
O119 O 0.36632 0.00804 0.22358 0.0
C120 C 0.35553 0.12299 0.13984 0.0
C121 C 0.31708 0.11067 0.2346 0.0
C122 C 0.25589 0.95304 0.16101 0.0
O123 O 0.39098 0.10511 0.14739 0.0
O124 O 0.31233 0.10843 0.15771 0.0
O125 O 0.24125 0.97818 0.18106 0.0
O126 O 0.31117 0.97598 0.15681 0.0
C127 C 0.42091 0.03951 0.21697 0.0
O128 O 0.28067 0.05678 0.22823 0.0
O129 O 0.3626 0.13598 0.21784 0.0
In130 In 0.2836 0.34455 0.35379 0.0
O131 O 0.22842 0.29121 0.39469 0.0
O132 O 0.22792 0.37096 0.38282 0.0
C133 C 0.29599 0.25916 0.3254 0.0
C134 C 0.38377 0.42596 0.38181 0.0
C135 C 0.23805 0.3702 0.30494 0.0
O136 O 0.2527 0.24693 0.34282 0.0
O137 O 0.33503 0.31363 0.32412 0.0
O138 O 0.29238 0.40097 0.3121 0.0
O139 O 0.20626 0.32866 0.32317 0.0
C140 C 0.20991 0.32697 0.4006 0.0
O141 O 0.36158 0.4384 0.35938 0.0
O142 O 0.35719 0.37154 0.38926 0.0
In143 In 0.9422 0.28804 0.52038 0.0
O144 O 0.93354 0.3706 0.52448 0.0
O145 O 0.99078 0.36109 0.55597 0.0
C146 C 0.8695 0.23675 0.47228 0.0
C147 C 0.88138 0.21388 0.56677 0.0
C148 C 0.04231 0.30655 0.49235 0.0
O149 O 0.8785 0.28548 0.48346 0.0
O150 O 0.89466 0.21281 0.48626 0.0
O151 O 0.02007 0.27082 0.51442 0.0
O152 O 0.01683 0.33585 0.48601 0.0
C153 C 0.96668 0.39074 0.54756 0.0
O154 O 0.93085 0.22098 0.55777 0.0
O155 O 0.86258 0.24282 0.55196 0.0
C156 C -0.00283 0.49721 0.05265 0.0
C157 C 0.00412 0.54731 0.06916 0.0
C158 C -0.00079 0.49655 0.11703 0.0
C159 C 0.00353 0.45195 0.10044 0.0
N160 N 0.00916 0.4103 0.05215 0.0
N161 N 0.01454 0.59675 0.11733 0.0
C162 C 0.00214 0.45168 0.06814 0.0
C163 C 0.00485 0.54724 0.10147 0.0
N164 N 0.98483 0.49283 0.02222 0.0
N165 N 0.98883 0.48982 0.14766 0.0
H166 H 0.01801 0.63466 0.10708 0.0
H167 H 0.0233 0.60202 0.14058 0.0
H168 H 0.98356 0.45256 0.15956 0.0
H169 H 0.97945 0.51779 0.16063 0.0
H170 H 0.9735 0.45473 0.00943 0.0
H171 H 0.98 0.52513 0.01038 0.0
H172 H 0.01641 0.41283 0.02877 0.0
H173 H 0.01183 0.37539 0.06235 0.0
C174 C 0.51256 0.98468 0.25972 0.0
C175 C 0.56362 0.04004 0.26737 0.0
C176 C 0.51595 0.09328 0.24641 0.0
C177 C 0.46872 0.03867 0.23502 0.0
N178 N 0.42673 0.93289 0.22664 0.0
N179 N 0.61947 0.14736 0.26124 0.0
C180 C 0.46811 0.98433 0.24057 0.0
C181 C 0.56692 0.09451 0.25889 0.0
N182 N 0.50533 0.93267 0.27163 0.0
N183 N 0.51134 0.14367 0.24651 0.0
H184 H 0.65907 0.1504 0.26876 0.0
H185 H 0.62528 0.18736 0.25246 0.0
H186 H 0.47361 0.14445 0.23889 0.0
H187 H 0.54213 0.18296 0.25738 0.0
H188 H 0.46618 0.89176 0.26924 0.0
H189 H 0.536 0.93119 0.28647 0.0
H190 H 0.42817 0.89339 0.2274 0.0
H191 H 0.39419 0.93098 0.21196 0.0
C192 C 0.47763 0.57194 0.42342 0.0
C193 C 0.52431 0.56422 0.43522 0.0
C194 C 0.48298 0.46833 0.4086 0.0
C195 C 0.43244 0.47297 0.40026 0.0
N196 N 0.3753 0.52302 0.40693 0.0
N197 N 0.56728 0.50124 0.44279 0.0
C198 C 0.4279 0.523 0.40969 0.0
C199 C 0.52602 0.51135 0.42882 0.0
N200 N 0.48177 0.62674 0.424 0.0
N201 N 0.49112 0.42439 0.39635 0.0
H202 H 0.59903 0.53146 0.45794 0.0
H203 H 0.5667 0.46076 0.44142 0.0
H204 H 0.46136 0.39301 0.38092 0.0
H205 H 0.53004 0.42247 0.39925 0.0
H206 H 0.45149 0.63561 0.41288 0.0
H207 H 0.51883 0.66496 0.43239 0.0
H208 H 0.3685 0.55602 0.41647 0.0
H209 H 0.33637 0.48716 0.3983 0.0
C210 C 0.91215 0.47999 0.59135 0.0
C211 C 0.96658 0.52951 0.60126 0.0
C212 C 0.02242 0.4906 0.57376 0.0
C213 C 0.96779 0.43853 0.56646 0.0
N214 N 0.86173 0.37716 0.57537 0.0
N215 N 0.07357 0.57806 0.60608 0.0
C216 C 0.91295 0.43133 0.57726 0.0
C217 C 0.0219 0.53388 0.5936 0.0
N218 N 0.8597 0.48032 0.59401 0.0
N219 N 0.07438 0.49961 0.56098 0.0
H220 H 0.07469 0.61003 0.62093 0.0
H221 H 0.11454 0.58001 0.60383 0.0
H222 H 0.07624 0.46887 0.54633 0.0
H223 H 0.11473 0.53948 0.5629 0.0
H224 H 0.82004 0.44819 0.58397 0.0
H225 H 0.85667 0.51566 0.60336 0.0
H226 H 0.82206 0.36812 0.58594 0.0
H227 H 0.86017 0.33931 0.56621 0.0
C228 C 0.47474 0.90679 0.74242 0.0
C229 C 0.52665 0.96177 0.7355 0.0
C230 C 0.487 0.01538 0.76437 0.0
C231 C 0.4328 0.96083 0.76853 0.0
N232 N 0.36976 0.85747 0.75412 0.0
N233 N 0.57794 0.06949 0.73497 0.0
C234 C 0.42507 0.90733 0.7554 0.0
C235 C 0.53171 0.01652 0.7451 0.0
N236 N 0.47363 0.8539 0.73804 0.0
N237 N 0.49678 0.06545 0.77968 0.0
H238 H 0.61083 0.07207 0.72033 0.0
H239 H 0.58059 0.11049 0.73874 0.0
H240 H 0.46538 0.06617 0.79424 0.0
H241 H 0.53787 0.10479 0.78001 0.0
H242 H 0.43887 0.81311 0.74569 0.0
H243 H 0.50999 0.85116 0.7299 0.0
H244 H 0.36103 0.81928 0.74204 0.0
H245 H 0.33136 0.85646 0.76205 0.0
C246 C 0.46882 0.4892 0.92696 0.0
C247 C 0.46924 0.43525 0.93222 0.0
C248 C 0.56685 0.47745 0.90787 0.0
C249 C 0.56336 0.52847 0.89933 0.0
N250 N 0.50697 0.5795 0.89674 0.0
N251 N 0.5117 0.37284 0.92052 0.0
C252 C 0.51323 0.53357 0.90779 0.0
C253 C 0.51625 0.42784 0.92064 0.0
N254 N 0.42762 0.4991 0.94115 0.0
N255 N 0.61932 0.47715 0.90515 0.0
H256 H 0.47428 0.3343 0.92839 0.0
H257 H 0.54224 0.36433 0.90944 0.0
H258 H 0.65868 0.5136 0.89726 0.0
H259 H 0.62545 0.44322 0.914 0.0
H260 H 0.42901 0.54002 0.94063 0.0
H261 H 0.3951 0.46813 0.95575 0.0
H262 H 0.46839 0.58206 0.89958 0.0
H263 H 0.53832 0.61243 0.88244 0.0
C264 C 0.1521 0.2672 0.07304 0.0
C265 C 0.14042 0.31518 0.07199 0.0
C266 C 0.20119 0.35393 0.02582 0.0
C267 C 0.21064 0.30449 0.02612 0.0
N268 N 0.18864 0.20923 0.04721 0.0
N269 N 0.145 0.39879 0.04529 0.0
C270 C 0.18356 0.25932 0.04869 0.0
C271 C 0.16248 0.35708 0.04776 0.0
N272 N 0.1368 0.2316 0.09831 0.0
N273 N 0.23013 0.39837 0.00485 0.0
H274 H 0.11715 0.40272 0.06109 0.0
H275 H 0.15414 0.42652 0.0265 0.0
H276 H 0.25593 0.39576 0.98734 0.0
H277 H 0.23119 0.4391 0.00563 0.0
H278 H 0.15067 0.20073 0.10221 0.0
H279 H 0.11444 0.23622 0.1169 0.0
H280 H 0.16393 0.17168 0.06072 0.0
H281 H 0.21436 0.20295 0.03106 0.0
C282 C 0.81362 0.12754 0.20947 0.0
C283 C 0.83294 0.12988 0.23988 0.0
C284 C 0.93584 0.2 0.22505 0.0
C285 C 0.91532 0.20415 0.19572 0.0
N286 N 0.83583 0.17355 0.15935 0.0
N287 N 0.91093 0.16922 0.27761 0.0
C288 C 0.85456 0.16775 0.18756 0.0
C289 C 0.89377 0.16597 0.24791 0.0
N290 N 0.75618 0.0869 0.20172 0.0
N291 N -0.00427 0.22759 0.23075 0.0
H292 H 0.8819 0.14259 0.29474 0.0
H293 H 0.95296 0.2005 0.28566 0.0
H294 H 0.02773 0.25202 0.21431 0.0
H295 H 0.01396 0.22199 0.25073 0.0
H296 H 0.74025 0.07902 0.1795 0.0
H297 H 0.72523 0.05753 0.21746 0.0
H298 H 0.79126 0.15328 0.15289 0.0
H299 H 0.86515 0.20145 0.14263 0.0
C300 C 0.70025 0.82731 0.38255 0.0
C301 C 0.67935 0.8333 0.41148 0.0
C302 C 0.65686 0.9075 0.39069 0.0
C303 C 0.68417 0.90689 0.36275 0.0
N304 N 0.73787 0.87105 0.33289 0.0
N305 N 0.65294 0.89027 0.44484 0.0
C306 C 0.70801 0.86843 0.35898 0.0
C307 C 0.6616 0.87632 0.416 0.0
N308 N 0.70979 0.78075 0.37708 0.0
N309 N 0.62686 0.93826 0.39344 0.0
H310 H 0.66008 0.87124 0.46413 0.0
H311 H 0.64594 0.92568 0.44977 0.0
H312 H 0.62446 0.96476 0.37634 0.0
H313 H 0.60055 0.93403 0.41225 0.0
H314 H 0.71893 0.77052 0.35556 0.0
H315 H 0.7035 0.74904 0.39349 0.0
H316 H 0.76224 0.84928 0.33026 0.0
H317 H 0.74106 0.89783 0.31442 0.0
C318 C 0.83458 0.73369 0.53424 0.0
C319 C 0.77386 0.68769 0.53156 0.0
C320 C 0.78539 0.63956 0.57674 0.0
C321 C 0.8477 0.68077 0.57719 0.0
N322 N 0.93344 0.75775 0.55039 0.0
N323 N 0.69896 0.58679 0.54465 0.0
C324 C 0.87305 0.72513 0.55415 0.0
C325 C 0.75173 0.63732 0.55097 0.0
N326 N 0.85526 0.78684 0.5194 0.0
N327 N 0.75715 0.60491 0.60151 0.0
H328 H 0.67471 0.58194 0.52485 0.0
H329 H 0.68354 0.54748 0.55713 0.0
H330 H 0.77837 0.60922 0.62228 0.0
H331 H 0.71093 0.57773 0.60265 0.0
H332 H 0.89758 0.82334 0.52332 0.0
H333 H 0.82878 0.79703 0.50573 0.0
H334 H 0.95334 0.78674 0.53211 0.0
H335 H 0.96325 0.75094 0.56331 0.0
C336 C 0.13058 0.84219 0.69163 0.0
C337 C 0.09365 0.7796 0.69493 0.0
C338 C 0.12737 0.7861 0.74743 0.0
C339 C 0.16908 0.84758 0.7433 0.0
N340 N 0.21934 0.93128 0.70888 0.0
N341 N 0.06832 0.69004 0.72366 0.0
C342 C 0.17319 0.87511 0.71469 0.0
C343 C 0.0961 0.7509 0.72196 0.0
N344 N 0.12505 0.87013 0.66651 0.0
N345 N 0.11433 0.76189 0.77599 0.0
H346 H 0.04292 0.66169 0.70611 0.0
H347 H 0.07452 0.66779 0.74181 0.0
H348 H 0.13251 0.78701 0.79567 0.0
H349 H 0.07997 0.7186 0.7804 0.0
H350 H 0.14596 0.9164 0.66447 0.0
H351 H 0.09659 0.84689 0.64849 0.0
H352 H 0.22756 0.95108 0.68747 0.0
H353 H 0.25305 0.95591 0.72455 0.0
C354 C 0.34603 0.14465 0.86057 0.0
C355 C 0.30017 0.08425 0.86335 0.0
C356 C 0.26566 0.10729 0.9107 0.0
C357 C 0.31017 0.16805 0.90731 0.0
N358 N 0.38554 0.24734 0.8769 0.0
N359 N 0.2111 0.00859 0.88839 0.0
C360 C 0.34835 0.18757 0.88159 0.0
C361 C 0.25804 0.06587 0.88747 0.0
N362 N 0.38786 0.16064 0.83814 0.0
N363 N 0.23305 0.08857 0.93698 0.0
H364 H 0.20563 0.97561 0.87301 0.0
H365 H 0.17518 0.99439 0.9032 0.0
H366 H 0.23689 0.11756 0.95444 0.0
H367 H 0.20526 0.0439 0.94265 0.0
H368 H 0.42643 0.20225 0.83694 0.0
H369 H 0.38566 0.13095 0.82144 0.0
H370 H 0.41063 0.26515 0.85723 0.0
H371 H 0.38757 0.27986 0.89168 0.0
C372 C 0.70747 0.77262 0.7701 0.0
C373 C 0.69942 0.77999 0.80146 0.0
C374 C 0.68483 0.86442 0.78945 0.0
C375 C 0.69399 0.8576 0.75824 0.0
N376 N 0.72526 0.81411 0.71912 0.0
N377 N 0.69019 0.83767 0.84189 0.0
C378 C 0.70847 0.81415 0.74864 0.0
C379 C 0.69143 0.82766 0.81144 0.0
N380 N 0.71387 0.72566 0.76079 0.0
N381 N 0.66703 0.90399 0.79786 0.0
H382 H 0.6923 0.81003 0.85853 0.0
H383 H 0.69094 0.87532 0.85077 0.0
H384 H 0.66274 0.93226 0.78243 0.0
H385 H 0.65293 0.90645 0.81969 0.0
H386 H 0.71191 0.71304 0.73816 0.0
H387 H 0.71827 0.69697 0.77581 0.0
H388 H 0.74233 0.7878 0.71117 0.0
H389 H 0.72708 0.84439 0.70287 0.0
C390 C 0.80816 0.64343 0.95138 0.0
C391 C 0.82859 0.68541 0.92723 0.0
C392 C 0.92673 0.74161 0.95141 0.0
C393 C 0.90847 0.69564 0.97353 0.0
N394 N 0.83357 0.60155 0.99439 0.0
N395 N 0.90799 0.77138 0.90218 0.0
C396 C 0.84954 0.64624 0.97353 0.0
C397 C 0.88782 0.73424 0.92688 0.0
N398 N 0.7488 0.60199 0.95355 0.0
N399 N 0.98161 0.79191 0.95357 0.0
H400 H 0.88087 0.76764 0.8838 0.0
H401 H 0.95255 0.80323 0.89868 0.0
H402 H 0.01283 0.79793 0.97018 0.0
H403 H 0.99485 0.82979 0.94028 0.0
H404 H 0.72984 0.57364 0.97208 0.0
H405 H 0.71724 0.59934 0.93791 0.0
H406 H 0.79388 0.56089 0.99339 0.0
H407 H 0.86157 0.60396 0.01208 0.0
C408 C 0.20527 0.84853 0.14061 0.0
C409 C 0.21218 0.90645 0.14042 0.0
C410 C 0.15062 0.88193 0.09439 0.0
C411 C 0.14104 0.82297 0.09551 0.0
N412 N 0.15065 0.74661 0.12204 0.0
N413 N 0.18512 0.97647 0.11994 0.0
C414 C 0.16601 0.80525 0.1193 0.0
C415 C 0.18237 0.92234 0.11836 0.0
N416 N 0.23699 0.83524 0.16089 0.0
N417 N 0.13311 0.90071 0.06934 0.0
H418 H 0.211 0.00934 0.13572 0.0
H419 H 0.15836 0.98743 0.10693 0.0
H420 H 0.11087 0.87313 0.05091 0.0
H421 H 0.14523 0.94504 0.0654 0.0
H422 H 0.23986 0.79656 0.15984 0.0
H423 H 0.26333 0.86459 0.17799 0.0
H424 H 0.16202 0.72945 0.14065 0.0
H425 H 0.12229 0.71374 0.10681 0.0
C426 C 0.26399 0.16089 0.25584 0.0
C427 C 0.30701 0.14281 0.25951 0.0
C428 C 0.34093 0.19839 0.30743 0.0
C429 C 0.29672 0.21507 0.30428 0.0
N430 N 0.2109 0.20673 0.27786 0.0
N431 N 0.3793 0.13463 0.29047 0.0
C432 C 0.25626 0.19415 0.27934 0.0
C433 C 0.34347 0.15877 0.28583 0.0
N434 N 0.23298 0.14919 0.22911 0.0
N435 N 0.38102 0.22126 0.33082 0.0
H436 H 0.38177 0.10514 0.27515 0.0
H437 H 0.40292 0.13975 0.31045 0.0
H438 H 0.37832 0.24763 0.34799 0.0
H439 H 0.41868 0.21678 0.33249 0.0
H440 H 0.20656 0.1675 0.22328 0.0
H441 H 0.23675 0.12421 0.21154 0.0
H442 H 0.17587 0.18692 0.2624 0.0
H443 H 0.20576 0.23433 0.29329 0.0
C444 C 0.18802 0.363 0.4491 0.0
C445 C 0.16966 0.31818 0.42642 0.0
C446 C 0.07343 0.25943 0.45208 0.0
C447 C 0.08878 0.30797 0.47224 0.0
N448 N 0.15874 0.40748 0.48924 0.0
N449 N 0.09266 0.22696 0.40385 0.0
C450 C 0.14562 0.36023 0.47057 0.0
C451 C 0.11205 0.2668 0.42744 0.0
N452 N 0.24653 0.40692 0.45076 0.0
N453 N 0.02159 0.2065 0.45616 0.0
H454 H 0.11911 0.23093 0.38514 0.0
H455 H 0.0487 0.19265 0.40143 0.0
H456 H 0.99055 0.19968 0.47299 0.0
H457 H 0.01146 0.16759 0.44443 0.0
H458 H 0.26402 0.4379 0.46837 0.0
H459 H 0.27904 0.40885 0.43605 0.0
H460 H 0.19647 0.44944 0.48668 0.0
H461 H 0.13008 0.40565 0.50643 0.0
C462 C 0.875 0.17655 0.6206 0.0
C463 C 0.84685 0.17408 0.59243 0.0
C464 C 0.74982 0.10369 0.61464 0.0
C465 C 0.77886 0.0994 0.64112 0.0
N466 N 0.86976 0.12778 0.66859 0.0
N467 N 0.75872 0.12468 0.56094 0.0
C468 C 0.84176 0.13449 0.64382 0.0
C469 C 0.78453 0.13514 0.58906 0.0
N470 N 0.93232 0.22087 0.62586 0.0
N471 N 0.68905 0.07726 0.61344 0.0
H472 H 0.78278 0.14421 0.54124 0.0
H473 H 0.71492 0.09143 0.55664 0.0
H474 H 0.66055 0.05075 0.63064 0.0
H475 H 0.66684 0.08559 0.59604 0.0
H476 H 0.95303 0.22825 0.64699 0.0
H477 H 0.95733 0.25421 0.61007 0.0
H478 H 0.91588 0.14672 0.67008 0.0
H479 H 0.84657 0.10046 0.68697 0.0
C480 C 0.16393 0.38695 0.27673 0.0
C481 C 0.21385 0.37847 0.27606 0.0
C482 C 0.21261 0.37953 0.22038 0.0
C483 C 0.15742 0.37856 0.22114 0.0
N484 N 0.07532 0.37189 0.25068 0.0
N485 N 0.28026 0.35675 0.24721 0.0
C486 C 0.13183 0.38043 0.24945 0.0
C487 C 0.23723 0.37263 0.24788 0.0
N488 N 0.14764 0.40203 0.30337 0.0
N489 N 0.242 0.38799 0.1934 0.0
H490 H 0.2987 0.34958 0.26671 0.0
H491 H 0.29369 0.34512 0.22726 0.0
H492 H 0.22583 0.39456 0.17287 0.0
H493 H 0.28508 0.39471 0.19189 0.0
H494 H 0.11529 0.41467 0.30462 0.0
H495 H 0.1706 0.40772 0.32374 0.0
H496 H 0.05222 0.36576 0.27098 0.0
H497 H 0.049 0.36516 0.23154 0.0
C498 C 0.79306 0.14792 0.44349 0.0
C499 C 0.83432 0.2101 0.44417 0.0
C500 C 0.81245 0.21716 0.39046 0.0
C501 C 0.7782 0.15411 0.38903 0.0
N502 N 0.74773 0.05891 0.41278 0.0
N503 N 0.89148 0.30266 0.41633 0.0
C504 C 0.77133 0.11923 0.41519 0.0
C505 C 0.84592 0.24476 0.41721 0.0
N506 N 0.77363 0.11624 0.46992 0.0
N507 N 0.81269 0.25062 0.36635 0.0
H508 H 0.91927 0.32425 0.43475 0.0
H509 H 0.90561 0.32761 0.39636 0.0
H510 H 0.78882 0.23158 0.3464 0.0
H511 H 0.83194 0.29688 0.36726 0.0
H512 H 0.73926 0.07193 0.47078 0.0
H513 H 0.78728 0.13613 0.49117 0.0
H514 H 0.7475 0.03229 0.43064 0.0
H515 H 0.73465 0.03649 0.3921 0.0
C516 C 0.60489 0.7883 0.61263 0.0
C517 C 0.61634 0.84783 0.61135 0.0
C518 C 0.61501 0.84343 0.55568 0.0
C519 C 0.61454 0.78854 0.55719 0.0
N520 N 0.61472 0.71058 0.58758 0.0
N521 N 0.63865 0.9351 0.58149 0.0
C522 C 0.61016 0.7609 0.58576 0.0
C523 C 0.62233 0.87611 0.58282 0.0
N524 N 0.58817 0.75771 0.63953 0.0
N525 N 0.60723 0.86364 0.52832 0.0
H526 H 0.64518 0.96099 0.60075 0.0
H527 H 0.6505 0.95962 0.56136 0.0
H528 H 0.5994 0.83923 0.50828 0.0
H529 H 0.60195 0.90082 0.52607 0.0
H530 H 0.57363 0.7123 0.6413 0.0
H531 H 0.58291 0.77629 0.65954 0.0
H532 H 0.61924 0.69304 0.60808 0.0
H533 H 0.61885 0.68876 0.56866 0.0
C534 C 0.78108 0.58461 0.72626 0.0
C535 C 0.84398 0.61107 0.72583 0.0
C536 C 0.84683 0.62643 0.78084 0.0
C537 C 0.78599 0.61049 0.78026 0.0
N538 N 0.69557 0.5796 0.75128 0.0
N539 N 0.93817 0.66731 0.75215 0.0
C540 C 0.75272 0.59002 0.75278 0.0
C541 C 0.87737 0.634 0.75303 0.0
N542 N 0.74849 0.55408 0.70136 0.0
N543 N 0.87544 0.63424 0.80802 0.0
H544 H 0.96238 0.67765 0.73201 0.0
H545 H 0.96409 0.69021 0.77093 0.0
H546 H 0.85379 0.62758 0.8289 0.0
H547 H 0.91845 0.6408 0.80977 0.0
H548 H 0.70208 0.52894 0.70134 0.0
H549 H 0.76809 0.54907 0.68167 0.0
H550 H 0.67221 0.57178 0.73093 0.0
H551 H 0.67281 0.5835 0.76983 0.0
C552 C 0.23394 0.86443 0.92137 0.0
C553 C 0.21144 0.83547 0.89303 0.0
C554 C 0.12918 0.7506 0.91911 0.0
C555 C 0.15415 0.77767 0.94755 0.0
N556 N 0.23741 0.85332 0.97591 0.0
N557 N 0.14611 0.74583 0.86524 0.0
C558 C 0.20887 0.8324 0.94871 0.0
C559 C 0.16168 0.77684 0.89201 0.0
N560 N 0.27658 0.92356 0.92233 0.0
N561 N 0.07294 0.70215 0.91766 0.0
H562 H 0.1697 0.76342 0.84507 0.0
H563 H 0.11377 0.70084 0.86373 0.0
H564 H 0.04662 0.6821 0.93676 0.0
H565 H 0.05015 0.68512 0.89727 0.0
H566 H 0.28942 0.94838 0.94237 0.0
H567 H 0.29519 0.94953 0.90296 0.0
H568 H 0.28027 0.89003 0.97773 0.0
H569 H 0.22077 0.8304 0.99635 0.0
C570 C 0.36205 0.21003 0.11168 0.0
C571 C 0.3613 0.15491 0.11105 0.0
C572 C 0.3687 0.16004 0.05546 0.0
C573 C 0.36208 0.21116 0.05597 0.0
N574 N 0.34083 0.27841 0.08436 0.0
N575 N 0.35218 0.07126 0.08208 0.0
C576 C 0.35594 0.23477 0.08402 0.0
C577 C 0.36184 0.12827 0.08289 0.0
N578 N 0.36995 0.23946 0.13862 0.0
N579 N 0.3827 0.1425 0.02888 0.0
H580 H 0.34497 0.04536 0.10149 0.0
H581 H 0.3455 0.04745 0.06197 0.0
H582 H 0.38864 0.16511 0.00837 0.0
H583 H 0.39404 0.10917 0.02777 0.0
H584 H 0.37684 0.28266 0.14001 0.0
H585 H 0.37548 0.2231 0.15932 0.0
H586 H 0.32908 0.29224 0.10413 0.0
H587 H 0.33434 0.29692 0.06469 0.0
loop_
_geom_bond_atom_site_label_1
_geom_bond_atom_site_label_2
_geom_bond_distance
_geom_bond_site_symmetry_2
_ccdc_geom_bond_type
In0 O1 2.294 . S
In0 O2 2.326 . S
In0 O6 2.266 1_455 S
In0 O7 2.326 1_455 S
In0 O8 2.266 . S
In0 O9 2.326 . S
In0 O11 2.294 . S
In0 O12 2.326 . S
O1 In0 2.294 . S
O1 C10 1.240 . S
O2 In0 2.326 . S
O2 C10 1.252 . S
C3 O6 1.252 . S
C3 O7 1.260 . S
C4 O11 1.240 . S
C4 O12 1.252 . S
C5 O8 1.252 . S
C5 O9 1.260 . S
O6 In0 2.266 1_655 S
O6 C3 1.252 . S
O7 In0 2.326 1_655 S
O7 C3 1.260 . S
O8 In0 2.266 . S
O8 C5 1.252 . S
O9 In0 2.326 . S
O9 C5 1.260 . S
C10 O1 1.240 . S
C10 O2 1.252 . S
O11 In0 2.294 . S
O11 C4 1.240 . S
O12 In0 2.326 . S
O12 C4 1.252 . S
In13 O14 2.294 . S
In13 O15 2.326 . S
In13 O19 2.266 . S
In13 O20 2.326 . S
In13 O21 2.266 1_545 S
In13 O22 2.326 1_545 S
In13 O24 2.294 . S
In13 O25 2.326 . S
O14 In13 2.294 . S
O14 C23 1.240 . S
O15 In13 2.326 . S
O15 C23 1.252 . S
C16 O19 1.252 . S
C16 O20 1.260 . S
C17 O24 1.240 . S
C17 O25 1.252 . S
C18 O21 1.252 . S
C18 O22 1.260 . S
O19 In13 2.266 . S
O19 C16 1.252 . S
O20 In13 2.326 . S
O20 C16 1.260 . S
O21 In13 2.266 1_565 S
O21 C18 1.252 . S
O22 In13 2.326 1_565 S
O22 C18 1.260 . S
C23 O14 1.240 . S
C23 O15 1.252 . S
O24 In13 2.294 . S
O24 C17 1.240 . S
O25 In13 2.326 . S
O25 C17 1.252 . S
In26 O27 2.294 . S
In26 O28 2.326 . S
In26 O32 2.266 . S
In26 O33 2.326 . S
In26 O34 2.266 . S
In26 O35 2.326 . S
In26 O37 2.294 . S
In26 O38 2.326 . S
O27 In26 2.294 . S
O27 C36 1.240 . S
O28 In26 2.326 . S
O28 C36 1.252 . S
C29 O32 1.252 . S
C29 O33 1.260 . S
C30 O37 1.240 . S
C30 O38 1.252 . S
C31 O34 1.252 . S
C31 O35 1.260 . S
O32 In26 2.266 . S
O32 C29 1.252 . S
O33 In26 2.326 . S
O33 C29 1.260 . S
O34 In26 2.266 . S
O34 C31 1.252 . S
O35 In26 2.326 . S
O35 C31 1.260 . S
C36 O27 1.240 . S
C36 O28 1.252 . S
O37 In26 2.294 . S
O37 C30 1.240 . S
O38 In26 2.326 . S
O38 C30 1.252 . S
In39 O40 2.294 . S
In39 O41 2.326 . S
In39 O45 2.266 . S
In39 O46 2.326 . S
In39 O47 2.266 1_655 S
In39 O48 2.326 1_655 S
In39 O50 2.294 . S
In39 O51 2.326 . S
O40 In39 2.294 . S
O40 C49 1.240 . S
O41 In39 2.326 . S
O41 C49 1.252 . S
C42 O45 1.252 . S
C42 O46 1.260 . S
C43 O50 1.240 . S
C43 O51 1.252 . S
C44 O47 1.252 . S
C44 O48 1.260 . S
O45 In39 2.266 . S
O45 C42 1.252 . S
O46 In39 2.326 . S
O46 C42 1.260 . S
O47 In39 2.266 1_455 S
O47 C44 1.252 . S
O48 In39 2.326 1_455 S
O48 C44 1.260 . S
C49 O40 1.240 . S
C49 O41 1.252 . S
O50 In39 2.294 . S
O50 C43 1.240 . S
O51 In39 2.326 . S
O51 C43 1.252 . S
In52 O53 2.294 . S
In52 O54 2.326 . S
In52 O58 2.266 1_565 S
In52 O59 2.326 1_565 S
In52 O60 2.266 . S
In52 O61 2.326 . S
In52 O63 2.294 . S
In52 O64 2.326 . S
O53 In52 2.294 . S
O53 C62 1.240 . S
O54 In52 2.326 . S
O54 C62 1.252 . S
C55 O58 1.252 . S
C55 O59 1.260 . S
C56 O63 1.240 . S
C56 O64 1.252 . S
C57 O60 1.252 . S
C57 O61 1.260 . S
O58 In52 2.266 1_545 S
O58 C55 1.252 . S
O59 In52 2.326 1_545 S
O59 C55 1.260 . S
O60 In52 2.266 . S
O60 C57 1.252 . S
O61 In52 2.326 . S
O61 C57 1.260 . S
C62 O53 1.240 . S
C62 O54 1.252 . S
O63 In52 2.294 . S
O63 C56 1.240 . S
O64 In52 2.326 . S
O64 C56 1.252 . S
In65 O66 2.294 . S
In65 O67 2.326 . S
In65 O71 2.266 1_556 S
In65 O72 2.326 1_556 S
In65 O73 2.266 . S
In65 O74 2.326 1_556 S
In65 O76 2.294 . S
In65 O77 2.326 . S
O66 In65 2.294 . S
O66 C75 1.240 . S
O67 In65 2.326 . S
O67 C75 1.252 . S
C68 O71 1.252 . S
C68 O72 1.260 . S
C69 O76 1.240 . S
C69 O77 1.252 . S
C70 O73 1.252 1_554 S
C70 O74 1.260 . S
O71 In65 2.266 1_554 S
O71 C68 1.252 . S
O72 In65 2.326 1_554 S
O72 C68 1.260 . S
O73 In65 2.266 . S
O73 C70 1.252 1_556 S
O74 In65 2.326 1_554 S
O74 C70 1.260 . S
C75 O66 1.240 . S
C75 O67 1.252 . S
O76 In65 2.294 . S
O76 C69 1.240 . S
O77 In65 2.326 . S
O77 C69 1.252 . S
In78 O79 2.294 . S
In78 O80 2.326 . S
In78 O84 2.266 1_565 S
In78 O85 2.326 1_565 S
In78 O86 2.266 . S
In78 O87 2.326 . S
In78 O89 2.294 . S
In78 O90 2.326 . S
O79 In78 2.294 . S
O79 C88 1.240 . S
O80 In78 2.326 . S
O80 C88 1.252 . S
C81 O84 1.252 . S
C81 O85 1.260 . S
C82 O89 1.240 . S
C82 O90 1.252 . S
C83 O86 1.252 . S
C83 O87 1.260 . S
O84 In78 2.266 1_545 S
O84 C81 1.252 . S
O85 In78 2.326 1_545 S
O85 C81 1.260 . S
O86 In78 2.266 . S
O86 C83 1.252 . S
O87 In78 2.326 . S
O87 C83 1.260 . S
C88 O79 1.240 . S
C88 O80 1.252 . S
O89 In78 2.294 . S
O89 C82 1.240 . S
O90 In78 2.326 . S
O90 C82 1.252 . S
In91 O92 2.294 . S
In91 O93 2.326 . S
In91 O97 2.266 . S
In91 O98 2.326 . S
In91 O99 2.266 . S
In91 O100 2.326 . S
In91 O102 2.294 . S
In91 O103 2.326 . S
O92 In91 2.294 . S
O92 C101 1.240 . S
O93 In91 2.326 . S
O93 C101 1.252 . S
C94 O97 1.252 . S
C94 O98 1.260 . S
C95 O102 1.240 . S
C95 O103 1.252 . S
C96 O99 1.252 . S
C96 O100 1.260 . S
O97 In91 2.266 . S
O97 C94 1.252 . S
O98 In91 2.326 . S
O98 C94 1.260 . S
O99 In91 2.266 . S
O99 C96 1.252 . S
O100 In91 2.326 . S
O100 C96 1.260 . S
C101 O92 1.240 . S
C101 O93 1.252 . S
O102 In91 2.294 . S
O102 C95 1.240 . S
O103 In91 2.326 . S
O103 C95 1.252 . S
In104 O105 2.294 . S
In104 O106 2.326 . S
In104 O110 2.266 1_455 S
In104 O111 2.326 1_454 S
In104 O112 2.266 1_554 S
In104 O113 2.326 1_554 S
In104 O115 2.294 . S
In104 O116 2.326 . S
O105 In104 2.294 . S
O105 C114 1.240 . S
O106 In104 2.326 . S
O106 C114 1.252 . S
C107 O110 1.252 1_556 S
C107 O111 1.260 . S
C108 O115 1.240 . S
C108 O116 1.252 . S
C109 O112 1.252 . S
C109 O113 1.260 . S
O110 In104 2.266 1_655 S
O110 C107 1.252 1_554 S
O111 In104 2.326 1_656 S
O111 C107 1.260 . S
O112 In104 2.266 1_556 S
O112 C109 1.252 . S
O113 In104 2.326 1_556 S
O113 C109 1.260 . S
C114 O105 1.240 . S
C114 O106 1.252 . S
O115 In104 2.294 . S
O115 C108 1.240 . S
O116 In104 2.326 . S
O116 C108 1.252 . S
In117 O118 2.294 . S
In117 O119 2.326 . S
In117 O123 2.266 . S
In117 O124 2.326 . S
In117 O125 2.266 1_545 S
In117 O126 2.326 1_545 S
In117 O128 2.294 . S
In117 O129 2.326 . S
O118 In117 2.294 . S
O118 C127 1.240 . S
O119 In117 2.326 . S
O119 C127 1.252 . S
C120 O123 1.252 . S
C120 O124 1.260 . S
C121 O128 1.240 . S
C121 O129 1.252 . S
C122 O125 1.252 . S
C122 O126 1.260 . S
O123 In117 2.266 . S
O123 C120 1.252 . S
O124 In117 2.326 . S
O124 C120 1.260 . S
O125 In117 2.266 1_565 S
O125 C122 1.252 . S
O126 In117 2.326 1_565 S
O126 C122 1.260 . S
C127 O118 1.240 . S
C127 O119 1.252 . S
O128 In117 2.294 . S
O128 C121 1.240 . S
O129 In117 2.326 . S
O129 C121 1.252 . S
In130 O131 2.294 . S
In130 O132 2.326 . S
In130 O136 2.266 . S
In130 O137 2.326 . S
In130 O138 2.266 . S
In130 O139 2.326 . S
In130 O141 2.294 . S
In130 O142 2.326 . S
O131 In130 2.294 . S
O131 C140 1.240 . S
O132 In130 2.326 . S
O132 C140 1.252 . S
C133 O136 1.252 . S
C133 O137 1.260 . S
C134 O141 1.240 . S
C134 O142 1.252 . S
C135 O138 1.252 . S
C135 O139 1.260 . S
O136 In130 2.266 . S
O136 C133 1.252 . S
O137 In130 2.326 . S
O137 C133 1.260 . S
O138 In130 2.266 . S
O138 C135 1.252 . S
O139 In130 2.326 . S
O139 C135 1.260 . S
C140 O131 1.240 . S
C140 O132 1.252 . S
O141 In130 2.294 . S
O141 C134 1.240 . S
O142 In130 2.326 . S
O142 C134 1.252 . S
In143 O144 2.294 . S
In143 O145 2.326 . S
In143 O149 2.266 . S
In143 O150 2.326 . S
In143 O151 2.266 1_655 S
In143 O152 2.326 1_655 S
In143 O154 2.294 . S
In143 O155 2.326 . S
O144 In143 2.294 . S
O144 C153 1.240 . S
O145 In143 2.326 . S
O145 C153 1.252 . S
C146 O149 1.252 . S
C146 O150 1.260 . S
C147 O154 1.240 . S
C147 O155 1.252 . S
C148 O151 1.252 . S
C148 O152 1.260 . S
O149 In143 2.266 . S
O149 C146 1.252 . S
O150 In143 2.326 . S
O150 C146 1.260 . S
O151 In143 2.266 1_455 S
O151 C148 1.252 . S
O152 In143 2.326 1_455 S
O152 C148 1.260 . S
C153 O144 1.240 . S
C153 O145 1.252 . S
O154 In143 2.294 . S
O154 C147 1.240 . S
O155 In143 2.326 . S
O155 C147 1.252 . S
C156 C157 1.363 . S
C156 C162 1.379 . S
C156 N164 1.356 . S
C157 C156 1.363 . S
C157 C163 1.363 . S
C158 C159 1.363 . S
C158 C163 1.379 . S
C158 N165 1.356 . S
C159 C158 1.363 . S
C159 C162 1.363 . S
N160 C162 1.356 . S
N160 H172 0.984 . S
N160 H173 0.985 . S
N161 C163 1.356 . S
N161 H166 0.984 . S
N161 H167 0.985 . S
C162 C156 1.379 . S
C162 C159 1.363 . S
C162 N160 1.356 . S
C163 C157 1.363 . S
C163 C158 1.379 . S
C163 N161 1.356 . S
N164 C156 1.356 . S
N164 H170 0.984 . S
N164 H171 0.984 . S
N165 C158 1.356 . S
N165 H168 0.984 . S
N165 H169 0.985 . S
H166 N161 0.984 . S
H167 N161 0.985 . S
H168 N165 0.984 . S
H169 N165 0.985 . S
H170 N164 0.984 . S
H171 N164 0.984 . S
H172 N160 0.984 . S
H173 N160 0.985 . S
C174 C175 1.363 . S
C174 C180 1.379 . S
C174 N182 1.356 1_545 S
C175 C174 1.363 . S
C175 C181 1.363 . S
C176 C177 1.363 . S
C176 C181 1.379 . S
C176 N183 1.356 . S
C177 C176 1.363 . S
C177 C180 1.363 . S
N178 C180 1.356 1_565 S
N178 H190 0.984 . S
N178 H191 0.985 . S
N179 C181 1.356 . S
N179 H184 0.984 . S
N179 H185 0.985 . S
C180 C174 1.379 . S
C180 C177 1.363 . S
C180 N178 1.356 1_545 S
C181 C175 1.363 . S
C181 C176 1.379 . S
C181 N179 1.356 . S
N182 C174 1.356 1_565 S
N182 H188 0.984 . S
N182 H189 0.984 . S
N183 C176 1.356 . S
N183 H186 0.984 . S
N183 H187 0.985 . S
H184 N179 0.984 . S
H185 N179 0.985 . S
H186 N183 0.984 . S
H187 N183 0.985 . S
H188 N182 0.984 . S
H189 N182 0.984 . S
H190 N178 0.984 . S
H191 N178 0.985 . S
C192 C193 1.363 . S
C192 C198 1.379 . S
C192 N200 1.356 . S
C193 C192 1.363 . S
C193 C199 1.363 . S
C194 C195 1.363 . S
C194 C199 1.379 . S
C194 N201 1.356 . S
C195 C194 1.363 . S
C195 C198 1.363 . S
N196 C198 1.356 . S
N196 H208 0.984 . S
N196 H209 0.985 . S
N197 C199 1.356 . S
N197 H202 0.984 . S
N197 H203 0.985 . S
C198 C192 1.379 . S
C198 C195 1.363 . S
C198 N196 1.356 . S
C199 C193 1.363 . S
C199 C194 1.379 . S
C199 N197 1.356 . S
N200 C192 1.356 . S
N200 H206 0.984 . S
N200 H207 0.984 . S
N201 C194 1.356 . S
N201 H204 0.984 . S
N201 H205 0.985 . S
H202 N197 0.984 . S
H203 N197 0.985 . S
H204 N201 0.984 . S
H205 N201 0.985 . S
H206 N200 0.984 . S
H207 N200 0.984 . S
H208 N196 0.984 . S
H209 N196 0.985 . S
C210 C211 1.363 . S
C210 C216 1.379 . S
C210 N218 1.356 . S
C211 C210 1.363 . S
C211 C217 1.363 1_655 S
C212 C213 1.363 1_455 S
C212 C217 1.379 . S
C212 N219 1.356 . S
C213 C212 1.363 1_655 S
C213 C216 1.363 . S
N214 C216 1.356 . S
N214 H226 0.984 . S
N214 H227 0.985 . S
N215 C217 1.356 . S
N215 H220 0.984 . S
N215 H221 0.985 . S
C216 C210 1.379 . S
C216 C213 1.363 . S
C216 N214 1.356 . S
C217 C211 1.363 1_455 S
C217 C212 1.379 . S
C217 N215 1.356 . S
N218 C210 1.356 . S
N218 H224 0.984 . S
N218 H225 0.984 . S
N219 C212 1.356 . S
N219 H222 0.984 . S
N219 H223 0.985 . S
H220 N215 0.984 . S
H221 N215 0.985 . S
H222 N219 0.984 . S
H223 N219 0.985 . S
H224 N218 0.984 . S
H225 N218 0.984 . S
H226 N214 0.984 . S
H227 N214 0.985 . S
C228 C229 1.363 . S
C228 C234 1.379 . S
C228 N236 1.356 . S
C229 C228 1.363 . S
C229 C235 1.363 . S
C230 C231 1.363 . S
C230 C235 1.379 . S
C230 N237 1.356 1_565 S
C231 C230 1.363 . S
C231 C234 1.363 . S
N232 C234 1.356 . S
N232 H244 0.984 . S
N232 H245 0.985 . S
N233 C235 1.356 1_545 S
N233 H238 0.984 . S
N233 H239 0.985 . S
C234 C228 1.379 . S
C234 C231 1.363 . S
C234 N232 1.356 . S
C235 C229 1.363 . S
C235 C230 1.379 . S
C235 N233 1.356 1_565 S
N236 C228 1.356 . S
N236 H242 0.984 . S
N236 H243 0.984 . S
N237 C230 1.356 1_545 S
N237 H240 0.984 . S
N237 H241 0.985 . S
H238 N233 0.984 . S
H239 N233 0.985 . S
H240 N237 0.984 . S
H241 N237 0.985 . S
H242 N236 0.984 . S
H243 N236 0.984 . S
H244 N232 0.984 . S
H245 N232 0.985 . S
C246 C247 1.363 . S
C246 C252 1.379 . S
C246 N254 1.356 . S
C247 C246 1.363 . S
C247 C253 1.363 . S
C248 C249 1.363 . S
C248 C253 1.379 . S
C248 N255 1.356 . S
C249 C248 1.363 . S
C249 C252 1.363 . S
N250 C252 1.356 . S
N250 H262 0.984 . S
N250 H263 0.985 . S
N251 C253 1.356 . S
N251 H256 0.984 . S
N251 H257 0.985 . S
C252 C246 1.379 . S
C252 C249 1.363 . S
C252 N250 1.356 . S
C253 C247 1.363 . S
C253 C248 1.379 . S
C253 N251 1.356 . S
N254 C246 1.356 . S
N254 H260 0.984 . S
N254 H261 0.984 . S
N255 C248 1.356 . S
N255 H258 0.984 . S
N255 H259 0.985 . S
H256 N251 0.984 . S
H257 N251 0.985 . S
H258 N255 0.984 . S
H259 N255 0.985 . S
H260 N254 0.984 . S
H261 N254 0.984 . S
H262 N250 0.984 . S
H263 N250 0.985 . S
C264 C265 1.363 . S
C264 C270 1.379 . S
C264 N272 1.356 . S
C265 C264 1.363 . S
C265 C271 1.363 . S
C266 C267 1.363 . S
C266 C271 1.379 . S
C266 N273 1.356 . S
C267 C266 1.363 . S
C267 C270 1.363 . S
N268 C270 1.356 . S
N268 H280 0.984 . S
N268 H281 0.985 . S
N269 C271 1.356 . S
N269 H274 0.984 . S
N269 H275 0.985 . S
C270 C264 1.379 . S
C270 C267 1.363 . S
C270 N268 1.356 . S
C271 C265 1.363 . S
C271 C266 1.379 . S
C271 N269 1.356 . S
N272 C264 1.356 . S
N272 H278 0.984 . S
N272 H279 0.984 . S
N273 C266 1.356 . S
N273 H276 0.984 1_554 S
N273 H277 0.985 1_554 S
H274 N269 0.984 . S
H275 N269 0.985 . S
H276 N273 0.984 1_556 S
H277 N273 0.985 1_556 S
H278 N272 0.984 . S
H279 N272 0.984 . S
H280 N268 0.984 . S
H281 N268 0.985 . S
C282 C283 1.363 . S
C282 C288 1.379 . S
C282 N290 1.356 . S
C283 C282 1.363 . S
C283 C289 1.363 . S
C284 C285 1.363 . S
C284 C289 1.379 . S
C284 N291 1.356 . S
C285 C284 1.363 . S
C285 C288 1.363 . S
N286 C288 1.356 . S
N286 H298 0.984 . S
N286 H299 0.985 . S
N287 C289 1.356 . S
N287 H292 0.984 . S
N287 H293 0.985 . S
C288 C282 1.379 . S
C288 C285 1.363 . S
C288 N286 1.356 . S
C289 C283 1.363 . S
C289 C284 1.379 . S
C289 N287 1.356 . S
N290 C282 1.356 . S
N290 H296 0.984 . S
N290 H297 0.984 . S
N291 C284 1.356 . S
N291 H294 0.984 . S
N291 H295 0.985 . S
H292 N287 0.984 . S
H293 N287 0.985 . S
H294 N291 0.984 . S
H295 N291 0.985 . S
H296 N290 0.984 . S
H297 N290 0.984 . S
H298 N286 0.984 . S
H299 N286 0.985 . S
C300 C301 1.363 . S
C300 C306 1.379 . S
C300 N308 1.356 . S
C301 C300 1.363 . S
C301 C307 1.363 . S
C302 C303 1.363 . S
C302 C307 1.379 . S
C302 N309 1.356 . S
C303 C302 1.363 . S
C303 C306 1.363 . S
N304 C306 1.356 . S
N304 H316 0.984 . S
N304 H317 0.985 . S
N305 C307 1.356 . S
N305 H310 0.984 . S
N305 H311 0.985 . S
C306 C300 1.379 . S
C306 C303 1.363 . S
C306 N304 1.356 . S
C307 C301 1.363 . S
C307 C302 1.379 . S
C307 N305 1.356 . S
N308 C300 1.356 . S
N308 H314 0.984 . S
N308 H315 0.984 . S
N309 C302 1.356 . S
N309 H312 0.984 . S
N309 H313 0.985 . S
H310 N305 0.984 . S
H311 N305 0.985 . S
H312 N309 0.984 . S
H313 N309 0.985 . S
H314 N308 0.984 . S
H315 N308 0.984 . S
H316 N304 0.984 . S
H317 N304 0.985 . S
C318 C319 1.363 . S
C318 C324 1.379 . S
C318 N326 1.356 . S
C319 C318 1.363 . S
C319 C325 1.363 . S
C320 C321 1.363 . S
C320 C325 1.379 . S
C320 N327 1.356 . S
C321 C320 1.363 . S
C321 C324 1.363 . S
N322 C324 1.356 . S
N322 H334 0.984 . S
N322 H335 0.985 . S
N323 C325 1.356 . S
N323 H328 0.984 . S
N323 H329 0.985 . S
C324 C318 1.379 . S
C324 C321 1.363 . S
C324 N322 1.356 . S
C325 C319 1.363 . S
C325 C320 1.379 . S
C325 N323 1.356 . S
N326 C318 1.356 . S
N326 H332 0.984 . S
N326 H333 0.984 . S
N327 C320 1.356 . S
N327 H330 0.984 . S
N327 H331 0.985 . S
H328 N323 0.984 . S
H329 N323 0.985 . S
H330 N327 0.984 . S
H331 N327 0.985 . S
H332 N326 0.984 . S
H333 N326 0.984 . S
H334 N322 0.984 . S
H335 N322 0.985 . S
C336 C337 1.363 . S
C336 C342 1.379 . S
C336 N344 1.356 . S
C337 C336 1.363 . S
C337 C343 1.363 . S
C338 C339 1.363 . S
C338 C343 1.379 . S
C338 N345 1.356 . S
C339 C338 1.363 . S
C339 C342 1.363 . S
N340 C342 1.356 . S
N340 H352 0.984 . S
N340 H353 0.985 . S
N341 C343 1.356 . S
N341 H346 0.984 . S
N341 H347 0.978 1_455 S
C342 C336 1.379 . S
C342 C339 1.363 . S
C342 N340 1.356 . S
C343 C337 1.363 . S
C343 C338 1.379 . S
C343 N341 1.356 . S
N344 C336 1.356 . S
N344 H350 0.984 . S
N344 H351 0.984 . S
N345 C338 1.356 . S
N345 H348 0.984 . S
N345 H349 0.985 . S
H346 N341 0.984 . S
H347 N341 0.978 1_655 S
H348 N345 0.984 . S
H349 N345 0.985 . S
H350 N344 0.984 . S
H351 N344 0.984 . S
H352 N340 0.984 . S
H353 N340 0.985 . S
C354 C355 1.363 . S
C354 C360 1.379 . S
C354 N362 1.356 . S
C355 C354 1.363 . S
C355 C361 1.363 . S
C356 C357 1.363 . S
C356 C361 1.379 . S
C356 N363 1.356 . S
C357 C356 1.363 . S
C357 C360 1.363 . S
N358 C360 1.356 . S
N358 H370 0.984 . S
N358 H371 0.985 . S
N359 C361 1.356 . S
N359 H364 0.984 1_545 S
N359 H365 0.985 1_545 S
C360 C354 1.379 . S
C360 C357 1.363 . S
C360 N358 1.356 . S
C361 C355 1.363 . S
C361 C356 1.379 . S
C361 N359 1.356 . S
N362 C354 1.356 . S
N362 H368 0.984 . S
N362 H369 0.984 . S
N363 C356 1.356 . S
N363 H366 0.984 . S
N363 H367 0.985 . S
H364 N359 0.984 1_565 S
H365 N359 0.985 1_565 S
H366 N363 0.984 . S
H367 N363 0.985 . S
H368 N362 0.984 . S
H369 N362 0.984 . S
H370 N358 0.984 . S
H371 N358 0.985 . S
C372 C373 1.363 . S
C372 C378 1.379 . S
C372 N380 1.356 . S
C373 C372 1.363 . S
C373 C379 1.363 . S
C374 C375 1.363 . S
C374 C379 1.379 . S
C374 N381 1.356 . S
C375 C374 1.363 . S
C375 C378 1.363 . S
N376 C378 1.356 . S
N376 H388 0.984 . S
N376 H389 0.985 . S
N377 C379 1.356 . S
N377 H382 0.984 . S
N377 H383 0.985 . S
C378 C372 1.379 . S
C378 C375 1.363 . S
C378 N376 1.356 . S
C379 C373 1.363 . S
C379 C374 1.379 . S
C379 N377 1.356 . S
N380 C372 1.356 . S
N380 H386 0.984 . S
N380 H387 0.984 . S
N381 C374 1.356 . S
N381 H384 0.984 . S
N381 H385 0.985 . S
H382 N377 0.984 . S
H383 N377 0.985 . S
H384 N381 0.984 . S
H385 N381 0.985 . S
H386 N380 0.984 . S
H387 N380 0.984 . S
H388 N376 0.984 . S
H389 N376 0.985 . S
C390 C391 1.363 . S
C390 C396 1.379 . S
C390 N398 1.356 . S
C391 C390 1.363 . S
C391 C397 1.363 . S
C392 C393 1.363 . S
C392 C397 1.379 . S
C392 N399 1.356 . S
C393 C392 1.363 . S
C393 C396 1.363 . S
N394 C396 1.356 . S
N394 H406 0.984 1_556 S
N394 H407 0.985 1_556 S
N395 C397 1.356 . S
N395 H400 0.984 . S
N395 H401 0.985 . S
C396 C390 1.379 . S
C396 C393 1.363 . S
C396 N394 1.356 . S
C397 C391 1.363 . S
C397 C392 1.379 . S
C397 N395 1.356 . S
N398 C390 1.356 . S
N398 H404 0.984 . S
N398 H405 0.984 . S
N399 C392 1.356 . S
N399 H402 0.984 1_655 S
N399 H403 0.985 1_655 S
H400 N395 0.984 . S
H401 N395 0.985 . S
H402 N399 0.984 1_455 S
H403 N399 0.985 1_455 S
H404 N398 0.984 . S
H405 N398 0.984 . S
H406 N394 0.984 1_554 S
H407 N394 0.985 1_554 S
C408 C409 1.363 . S
C408 C414 1.379 . S
C408 N416 1.356 . S
C409 C408 1.363 . S
C409 C415 1.363 . S
C410 C411 1.363 . S
C410 C415 1.379 . S
C410 N417 1.356 . S
C411 C410 1.363 . S
C411 C414 1.363 . S
N412 C414 1.356 . S
N412 H424 0.984 . S
N412 H425 0.985 . S
N413 C415 1.356 . S
N413 H418 0.984 . S
N413 H419 0.985 . S
C414 C408 1.379 . S
C414 C411 1.363 . S
C414 N412 1.356 . S
C415 C409 1.363 . S
C415 C410 1.379 . S
C415 N413 1.356 . S
N416 C408 1.356 . S
N416 H422 0.984 . S
N416 H423 0.984 . S
N417 C410 1.356 . S
N417 H420 0.984 . S
N417 H421 0.985 . S
H418 N413 0.984 . S
H419 N413 0.985 . S
H420 N417 0.984 . S
H421 N417 0.985 . S
H422 N416 0.984 . S
H423 N416 0.984 . S
H424 N412 0.984 . S
H425 N412 0.985 . S
C426 C427 1.363 . S
C426 C432 1.379 . S
C426 N434 1.356 . S
C427 C426 1.363 . S
C427 C433 1.363 . S
C428 C429 1.363 . S
C428 C433 1.379 . S
C428 N435 1.356 . S
C429 C428 1.363 . S
C429 C432 1.363 . S
N430 C432 1.356 . S
N430 H442 0.984 . S
N430 H443 0.985 . S
N431 C433 1.356 . S
N431 H436 0.984 . S
N431 H437 0.985 . S
C432 C426 1.379 . S
C432 C429 1.363 . S
C432 N430 1.356 . S
C433 C427 1.363 . S
C433 C428 1.379 . S
C433 N431 1.356 . S
N434 C426 1.356 . S
N434 H440 0.984 . S
N434 H441 0.984 . S
N435 C428 1.356 . S
N435 H438 0.984 . S
N435 H439 0.985 . S
H436 N431 0.984 . S
H437 N431 0.985 . S
H438 N435 0.984 . S
H439 N435 0.985 . S
H440 N434 0.984 . S
H441 N434 0.984 . S
H442 N430 0.984 . S
H443 N430 0.985 . S
C444 C445 1.363 . S
C444 C450 1.379 . S
C444 N452 1.356 . S
C445 C444 1.363 . S
C445 C451 1.363 . S
C446 C447 1.363 . S
C446 C451 1.379 . S
C446 N453 1.356 . S
C447 C446 1.363 . S
C447 C450 1.363 . S
N448 C450 1.356 . S
N448 H460 0.984 . S
N448 H461 0.985 . S
N449 C451 1.356 . S
N449 H454 0.984 . S
N449 H455 0.985 . S
C450 C444 1.379 . S
C450 C447 1.363 . S
C450 N448 1.356 . S
C451 C445 1.363 . S
C451 C446 1.379 . S
C451 N449 1.356 . S
N452 C444 1.356 . S
N452 H458 0.984 . S
N452 H459 0.984 . S
N453 C446 1.356 . S
N453 H456 0.984 1_455 S
N453 H457 0.985 1_455 S
H454 N449 0.984 . S
H455 N449 0.985 . S
H456 N453 0.984 1_655 S
H457 N453 0.985 1_655 S
H458 N452 0.984 . S
H459 N452 0.984 . S
H460 N448 0.984 . S
H461 N448 0.985 . S
C462 C463 1.363 . S
C462 C468 1.379 . S
C462 N470 1.356 . S
C463 C462 1.363 . S
C463 C469 1.363 . S
C464 C465 1.363 . S
C464 C469 1.379 . S
C464 N471 1.356 . S
C465 C464 1.363 . S
C465 C468 1.363 . S
N466 C468 1.356 . S
N466 H478 0.984 . S
N466 H479 0.985 . S
N467 C469 1.356 . S
N467 H472 0.984 . S
N467 H473 0.985 . S
C468 C462 1.379 . S
C468 C465 1.363 . S
C468 N466 1.356 . S
C469 C463 1.363 . S
C469 C464 1.379 . S
C469 N467 1.356 . S
N470 C462 1.356 . S
N470 H476 0.984 . S
N470 H477 0.984 . S
N471 C464 1.356 . S
N471 H474 0.984 . S
N471 H475 0.985 . S
H472 N467 0.984 . S
H473 N467 0.985 . S
H474 N471 0.984 . S
H475 N471 0.985 . S
H476 N470 0.984 . S
H477 N470 0.984 . S
H478 N466 0.984 . S
H479 N466 0.985 . S
C480 C481 1.363 . S
C480 C486 1.379 . S
C480 N488 1.356 . S
C481 C480 1.363 . S
C481 C487 1.363 . S
C482 C483 1.363 . S
C482 C487 1.379 . S
C482 N489 1.356 . S
C483 C482 1.363 . S
C483 C486 1.363 . S
N484 C486 1.356 . S
N484 H496 0.984 . S
N484 H497 0.985 . S
N485 C487 1.356 . S
N485 H490 0.984 . S
N485 H491 0.985 . S
C486 C480 1.379 . S
C486 C483 1.363 . S
C486 N484 1.356 . S
C487 C481 1.363 . S
C487 C482 1.379 . S
C487 N485 1.356 . S
N488 C480 1.356 . S
N488 H494 0.984 . S
N488 H495 0.984 . S
N489 C482 1.356 . S
N489 H492 0.984 . S
N489 H493 0.985 . S
H490 N485 0.984 . S
H491 N485 0.985 . S
H492 N489 0.984 . S
H493 N489 0.985 . S
H494 N488 0.984 . S
H495 N488 0.984 . S
H496 N484 0.984 . S
H497 N484 0.985 . S
C498 C499 1.363 . S
C498 C504 1.379 . S
C498 N506 1.356 . S
C499 C498 1.363 . S
C499 C505 1.363 . S
C500 C501 1.363 . S
C500 C505 1.379 . S
C500 N507 1.356 . S
C501 C500 1.363 . S
C501 C504 1.363 . S
N502 C504 1.356 . S
N502 H514 0.984 . S
N502 H515 0.985 . S
N503 C505 1.356 . S
N503 H508 0.984 . S
N503 H509 0.985 . S
C504 C498 1.379 . S
C504 C501 1.363 . S
C504 N502 1.356 . S
C505 C499 1.363 . S
C505 C500 1.379 . S
C505 N503 1.356 . S
N506 C498 1.356 . S
N506 H512 0.984 . S
N506 H513 0.984 . S
N507 C500 1.356 . S
N507 H510 0.984 . S
N507 H511 0.985 . S
H508 N503 0.984 . S
H509 N503 0.985 . S
H510 N507 0.984 . S
H511 N507 0.985 . S
H512 N506 0.984 . S
H513 N506 0.984 . S
H514 N502 0.984 . S
H515 N502 0.985 . S
C516 C517 1.363 . S
C516 C522 1.379 . S
C516 N524 1.356 . S
C517 C516 1.363 . S
C517 C523 1.363 . S
C518 C519 1.363 . S
C518 C523 1.379 . S
C518 N525 1.356 . S
C519 C518 1.363 . S
C519 C522 1.363 . S
N520 C522 1.356 . S
N520 H532 0.984 . S
N520 H533 0.985 . S
N521 C523 1.356 . S
N521 H526 0.984 . S
N521 H527 0.985 . S
C522 C516 1.379 . S
C522 C519 1.363 . S
C522 N520 1.356 . S
C523 C517 1.363 . S
C523 C518 1.379 . S
C523 N521 1.356 . S
N524 C516 1.356 . S
N524 H530 0.984 . S
N524 H531 0.984 . S
N525 C518 1.356 . S
N525 H528 0.984 . S
N525 H529 0.985 . S
H526 N521 0.984 . S
H527 N521 0.985 . S
H528 N525 0.984 . S
H529 N525 0.985 . S
H530 N524 0.984 . S
H531 N524 0.984 . S
H532 N520 0.984 . S
H533 N520 0.985 . S
C534 C535 1.363 . S
C534 C540 1.379 . S
C534 N542 1.356 . S
C535 C534 1.363 . S
C535 C541 1.363 . S
C536 C537 1.363 . S
C536 C541 1.379 . S
C536 N543 1.356 . S
C537 C536 1.363 . S
C537 C540 1.363 . S
N538 C540 1.356 . S
N538 H550 0.984 . S
N538 H551 0.985 . S
N539 C541 1.356 . S
N539 H544 0.984 . S
N539 H545 0.985 . S
C540 C534 1.379 . S
C540 C537 1.363 . S
C540 N538 1.356 . S
C541 C535 1.363 . S
C541 C536 1.379 . S
C541 N539 1.356 . S
N542 C534 1.356 . S
N542 H548 0.984 . S
N542 H549 0.984 . S
N543 C536 1.356 . S
N543 H546 0.984 . S
N543 H547 0.985 . S
H544 N539 0.984 . S
H545 N539 0.985 . S
H546 N543 0.984 . S
H547 N543 0.985 . S
H548 N542 0.984 . S
H549 N542 0.984 . S
H550 N538 0.984 . S
H551 N538 0.985 . S
C552 C553 1.363 . S
C552 C558 1.379 . S
C552 N560 1.356 . S
C553 C552 1.363 . S
C553 C559 1.363 . S
C554 C555 1.363 . S
C554 C559 1.379 . S
C554 N561 1.356 . S
C555 C554 1.363 . S
C555 C558 1.363 . S
N556 C558 1.356 . S
N556 H568 0.984 . S
N556 H569 0.985 . S
N557 C559 1.356 . S
N557 H562 0.984 . S
N557 H563 0.985 . S
C558 C552 1.379 . S
C558 C555 1.363 . S
C558 N556 1.356 . S
C559 C553 1.363 . S
C559 C554 1.379 . S
C559 N557 1.356 . S
N560 C552 1.356 . S
N560 H566 0.984 . S
N560 H567 0.984 . S
N561 C554 1.356 . S
N561 H564 0.984 . S
N561 H565 0.985 . S
H562 N557 0.984 . S
H563 N557 0.985 . S
H564 N561 0.984 . S
H565 N561 0.985 . S
H566 N560 0.984 . S
H567 N560 0.984 . S
H568 N556 0.984 . S
H569 N556 0.985 . S
C570 C571 1.363 . S
C570 C576 1.379 . S
C570 N578 1.356 . S
C571 C570 1.363 . S
C571 C577 1.363 . S
C572 C573 1.363 . S
C572 C577 1.379 . S
C572 N579 1.356 . S
C573 C572 1.363 . S
C573 C576 1.363 . S
N574 C576 1.356 . S
N574 H586 0.984 . S
N574 H587 0.985 . S
N575 C577 1.356 . S
N575 H580 0.984 . S
N575 H581 0.985 . S
C576 C570 1.379 . S
C576 C573 1.363 . S
C576 N574 1.356 . S
C577 C571 1.363 . S
C577 C572 1.379 . S
C577 N575 1.356 . S
N578 C570 1.356 . S
N578 H584 0.984 . S
N578 H585 0.984 . S
N579 C572 1.356 . S
N579 H582 0.984 . S
N579 H583 0.985 . S
H580 N575 0.984 . S
H581 N575 0.985 . S
H582 N579 0.984 . S
H583 N579 0.985 . S
H584 N578 0.984 . S
H585 N578 0.984 . S
H586 N574 0.984 . S
H587 N574 0.985 . S
C157 C108 1.393 . S
C159 C4 1.393 . S
C175 C23 1.393 . S
C177 C127 1.393 . S
C193 C36 1.393 . S
C195 C134 1.393 . S
C211 C49 1.393 . S
C213 C153 1.393 . S
C229 C82 1.393 . S
C231 C56 1.393 . S
C247 C75 1.393 . S
C249 C95 1.393 . S
C265 C10 1.556 . S
C267 C70 1.537 . S
C283 C17 1.557 . S
C285 C3 1.537 . S
C301 C30 1.556 . S
C303 C18 1.537 . S
C319 C31 1.537 . S
C321 C43 1.557 . S
C337 C44 1.537 . S
C339 C62 1.556 . S
C355 C55 1.537 . S
C357 C69 1.557 . S
C373 C94 1.537 . S
C375 C88 1.556 . S
C391 C101 1.557 . S
C393 C107 1.537 . S
C409 C122 1.537 . S
C411 C114 1.556 . S
C427 C121 1.557 . S
C429 C133 1.537 . S
C445 C140 1.556 . S
C447 C148 1.537 . S
C463 C147 1.557 . S
C465 C81 1.537 . S
C481 C135 1.353 . S
C483 C5 1.353 . S
C499 C146 1.353 . S
C501 C16 1.353 . S
C517 C83 1.353 . S
C519 C29 1.353 . S
C535 C42 1.353 . S
C537 C96 1.353 . S
C553 C57 1.353 . S
C555 C109 1.353 . S
C571 C120 1.353 . S
C573 C68 1.353 . S
