# Generated by pormake.
# Topology nfc, (4)-cn, num edge types: 1
# Building blocks:
#     Node 0, Type 0, BuildingBlock: MUDLON_clean_sbu_0, # of connection points: 4
#     Node 1, Type 0, BuildingBlock: MUDLON_clean_sbu_0, # of connection points: 4
#     Node 2, Type 0, BuildingBlock: MUDLON_clean_sbu_0, # of connection points: 4
#     Node 3, Type 0, BuildingBlock: MUDLON_clean_sbu_0, # of connection points: 4
#     Node 4, Type 0, BuildingBlock: MUDLON_clean_sbu_0, # of connection points: 4
#     Node 5, Type 0, BuildingBlock: MUDLON_clean_sbu_0, # of connection points: 4
#     Node 6, Type 0, BuildingBlock: MUDLON_clean_sbu_0, # of connection points: 4
#     Node 7, Type 0, BuildingBlock: MUDLON_clean_sbu_0, # of connection points: 4
#     Node 8, Type 0, BuildingBlock: MUDLON_clean_sbu_0, # of connection points: 4
#     Node 9, Type 0, BuildingBlock: MUDLON_clean_sbu_0, # of connection points: 4
#     Node 10, Type 0, BuildingBlock: MUDLON_clean_sbu_0, # of connection points: 4
#     Node 11, Type 0, BuildingBlock: MUDLON_clean_sbu_0, # of connection points: 4
#     Node 12, Type 0, BuildingBlock: MUDLON_clean_sbu_0, # of connection points: 4
#     Node 13, Type 0, BuildingBlock: MUDLON_clean_sbu_0, # of connection points: 4
#     Node 14, Type 0, BuildingBlock: MUDLON_clean_sbu_0, # of connection points: 4
#     Node 15, Type 0, BuildingBlock: MUDLON_clean_sbu_0, # of connection points: 4
#     Edge 16, Type (0, 0), BuildingBlock: OJICUG_clean_linker_0, # of connection points: 2
#     Edge 17, Type (0, 0), BuildingBlock: OJICUG_clean_linker_0, # of connection points: 2
#     Edge 18, Type (0, 0), BuildingBlock: OJICUG_clean_linker_0, # of connection points: 2
#     Edge 19, Type (0, 0), BuildingBlock: OJICUG_clean_linker_0, # of connection points: 2
#     Edge 20, Type (0, 0), BuildingBlock: OJICUG_clean_linker_0, # of connection points: 2
#     Edge 21, Type (0, 0), BuildingBlock: OJICUG_clean_linker_0, # of connection points: 2
#     Edge 22, Type (0, 0), BuildingBlock: OJICUG_clean_linker_0, # of connection points: 2
#     Edge 23, Type (0, 0), BuildingBlock: OJICUG_clean_linker_0, # of connection points: 2
#     Edge 24, Type (0, 0), BuildingBlock: OJICUG_clean_linker_0, # of connection points: 2
#     Edge 25, Type (0, 0), BuildingBlock: OJICUG_clean_linker_0, # of connection points: 2
#     Edge 26, Type (0, 0), BuildingBlock: OJICUG_clean_linker_0, # of connection points: 2
#     Edge 27, Type (0, 0), BuildingBlock: OJICUG_clean_linker_0, # of connection points: 2
#     Edge 28, Type (0, 0), BuildingBlock: OJICUG_clean_linker_0, # of connection points: 2
#     Edge 29, Type (0, 0), BuildingBlock: OJICUG_clean_linker_0, # of connection points: 2
#     Edge 30, Type (0, 0), BuildingBlock: OJICUG_clean_linker_0, # of connection points: 2
#     Edge 31, Type (0, 0), BuildingBlock: OJICUG_clean_linker_0, # of connection points: 2
#     Edge 32, Type (0, 0), BuildingBlock: OJICUG_clean_linker_0, # of connection points: 2
#     Edge 33, Type (0, 0), BuildingBlock: OJICUG_clean_linker_0, # of connection points: 2
#     Edge 34, Type (0, 0), BuildingBlock: OJICUG_clean_linker_0, # of connection points: 2
#     Edge 35, Type (0, 0), BuildingBlock: OJICUG_clean_linker_0, # of connection points: 2
#     Edge 36, Type (0, 0), BuildingBlock: OJICUG_clean_linker_0, # of connection points: 2
#     Edge 37, Type (0, 0), BuildingBlock: OJICUG_clean_linker_0, # of connection points: 2
#     Edge 38, Type (0, 0), BuildingBlock: OJICUG_clean_linker_0, # of connection points: 2
#     Edge 39, Type (0, 0), BuildingBlock: OJICUG_clean_linker_0, # of connection points: 2
#     Edge 40, Type (0, 0), BuildingBlock: OJICUG_clean_linker_0, # of connection points: 2
#     Edge 41, Type (0, 0), BuildingBlock: OJICUG_clean_linker_0, # of connection points: 2
#     Edge 42, Type (0, 0), BuildingBlock: OJICUG_clean_linker_0, # of connection points: 2
#     Edge 43, Type (0, 0), BuildingBlock: OJICUG_clean_linker_0, # of connection points: 2
#     Edge 44, Type (0, 0), BuildingBlock: OJICUG_clean_linker_0, # of connection points: 2
#     Edge 45, Type (0, 0), BuildingBlock: OJICUG_clean_linker_0, # of connection points: 2
#     Edge 46, Type (0, 0), BuildingBlock: OJICUG_clean_linker_0, # of connection points: 2
#     Edge 47, Type (0, 0), BuildingBlock: OJICUG_clean_linker_0, # of connection points: 2
# Relax obj value: 0.326
# Max RMSD: 0.223
# Mean RMSD: 0.218
data_MOF--net-nfc--node1-MUDLON_clean_sbu_0--edge1-OJICUG_clean_linker_0
_symmetry_space_group_name_H-M    P1
_symmetry_Int_Tables_number       1
_symmetry_cell_setting            triclinic
loop_
_symmetry_equiv_pos_as_xyz
'x, y, z'
_cell_length_a     24.105238
_cell_length_b     31.710642
_cell_length_c     20.358776
_cell_angle_alpha  89.82134
_cell_angle_beta   89.57448
_cell_angle_gamma 90.815327
loop_
_atom_site_label
_atom_site_type_symbol
_atom_site_fract_x
_atom_site_fract_y
_atom_site_fract_z
_atom_type_partial_charge
Mg0 Mg 0.11541 0.25024 0.98035 0.0
C1 C 0.06301 0.16657 0.91755 0.0
O2 O 0.11538 0.15627 0.91167 0.0
C3 C 0.18201 0.33742 -0.00084 0.0
O4 O 0.15588 0.3491 0.94589 0.0
C5 C 0.13983 0.26213 0.83175 0.0
O6 O 0.10299 0.29176 0.84057 0.0
O7 O 0.15911 0.24358 0.88176 0.0
O8 O 0.05078 0.20158 0.94417 0.0
O9 O 0.07406 0.2529 0.08026 0.0
C10 C 0.0226 0.25103 0.09371 0.0
O11 O 0.9864 0.24817 0.04594 0.0
O12 O 0.17698 0.29961 0.01961 0.0
Mg13 Mg 0.22908 0.92381 0.24287 0.0
C14 C 0.30213 0.85792 0.20906 0.0
O15 O 0.33099 0.88962 0.23338 0.0
C16 C 0.12873 0.97895 0.24476 0.0
O17 O 0.15774 0.99729 0.19758 0.0
C18 C 0.25054 0.95757 0.10887 0.0
O19 O 0.20519 0.93475 0.10076 0.0
O20 O 0.2691 0.96235 0.1668 0.0
O21 O 0.24943 0.86079 0.20828 0.0
O22 O 0.2688 0.9298 0.33779 0.0
C23 C 0.23958 0.91819 0.38714 0.0
O24 O 0.18893 0.90381 0.37746 0.0
O25 O 0.14446 0.94334 0.26593 0.0
Mg26 Mg 0.69258 0.18301 0.51488 0.0
C27 C 0.64657 0.08939 0.52786 0.0
O28 O 0.67489 0.08044 0.47445 0.0
C29 C 0.80135 0.19429 0.44373 0.0
O30 O 0.82032 0.19027 0.50362 0.0
C31 C 0.75628 0.19048 0.64203 0.0
O32 O 0.76492 0.15033 0.63063 0.0
O33 O 0.72925 0.21188 0.60054 0.0
O34 O 0.64763 0.12684 0.55 0.0
O35 O 0.63733 0.22852 0.47335 0.0
C36 C 0.61119 0.21611 0.42297 0.0
O37 O 0.60186 0.17541 0.41629 0.0
O38 O 0.75159 0.18272 0.4329 0.0
Mg39 Mg 0.43115 0.47612 0.77912 0.0
C40 C 0.38341 0.55929 0.74773 0.0
O41 O 0.34676 0.54261 0.78863 0.0
C42 C 0.53936 0.45422 0.84068 0.0
O43 O 0.53088 0.49128 0.8671 0.0
C44 C 0.40207 0.4178 0.67187 0.0
O45 O 0.45516 0.41031 0.67893 0.0
O46 O 0.37799 0.44023 0.71474 0.0
O47 O 0.42783 0.53918 0.73569 0.0
O48 O 0.40298 0.4789 0.87928 0.0
C49 C 0.41783 0.51128 0.91162 0.0
O50 O 0.43808 0.54425 0.87994 0.0
O51 O 0.50925 0.44274 0.79272 0.0
Mg52 Mg 1.0029 0.1715 0.49474 0.0
C53 C 0.04271 0.10484 0.4118 0.0
O54 O 0.07204 0.13887 0.39736 0.0
C55 C 0.94424 0.22944 0.5807 0.0
O56 O 0.99252 0.24727 0.56763 0.0
C57 C 0.97597 0.19591 0.35616 0.0
O58 O 0.94202 0.16336 0.36296 0.0
O59 O 1.00466 0.20804 0.40487 0.0
O60 O 1.00802 0.10631 0.45925 0.0
O61 O 0.07581 0.19171 0.54823 0.0
C62 C 0.09311 0.17222 0.59838 0.0
O63 O 0.0733 0.13423 0.61114 0.0
O64 O 0.93313 0.19346 0.55578 0.0
Mg65 Mg 0.4218 0.93144 0.7512 0.0
C66 C 0.41674 0.8357 0.76721 0.0
O67 O 0.40407 0.83739 0.70462 0.0
C68 C 0.51645 0.96135 0.66649 0.0
O69 O 0.4986 0.92837 0.63347 0.0
C70 C 0.39053 0.96978 0.88032 0.0
O71 O 0.44359 0.96311 0.88954 0.0
O72 O 0.37036 0.96296 0.82368 0.0
O73 O 0.43155 0.86942 0.79634 0.0
O74 O 0.37897 0.92523 0.65874 0.0
C75 C 0.32687 0.92297 0.65082 0.0
O76 O 0.29382 0.92291 0.70243 0.0
O77 O 0.49535 0.96855 0.72292 0.0
Mg78 Mg 0.71458 0.24683 0.03689 0.0
C79 C 0.66175 0.33138 0.99052 0.0
O80 O 0.68649 0.34349 0.04469 0.0
C81 C 0.81087 0.18532 0.0976 0.0
O82 O 0.84144 0.19361 0.04533 0.0
C83 C 0.77651 0.25577 0.9026 0.0
O84 O 0.76857 0.29576 0.91566 0.0
O85 O 0.76405 0.22835 0.94603 0.0
O86 O 0.66457 0.29292 0.97343 0.0
O87 O 0.65983 0.25996 0.12556 0.0
C88 C 0.67589 0.28106 0.17495 0.0
O89 O 0.72405 0.30093 0.17204 0.0
O90 O 0.76288 0.20131 0.10304 0.0
Mg91 Mg 0.36046 0.48374 0.27905 0.0
C92 C 0.29021 0.46223 0.16306 0.0
O93 O 0.32517 0.48937 0.13603 0.0
C94 C 0.35909 0.57023 0.34565 0.0
O95 O 0.33497 0.54857 0.39326 0.0
C96 C 0.45461 0.49767 0.18869 0.0
O97 O 0.46205 0.53212 0.22332 0.0
O98 O 0.42722 0.4673 0.2142 0.0
O99 O 0.29021 0.4578 0.22525 0.0
O100 O 0.37059 0.45094 0.37089 0.0
C101 C 0.33039 0.44371 0.41023 0.0
O102 O 0.28046 0.45633 0.39475 0.0
O103 O 0.36897 0.55203 0.29141 0.0
Mg104 Mg 0.79462 0.44321 0.74865 0.0
C105 C 0.83998 0.36657 0.70169 0.0
O106 O 0.88087 0.39193 0.71894 0.0
C107 C 0.71055 0.47134 0.84686 0.0
O108 O 0.73112 0.43833 0.87652 0.0
C109 C 0.81361 0.4825 0.61871 0.0
O110 O 0.76086 0.47165 0.61579 0.0
O111 O 0.8386 0.47827 0.67299 0.0
O112 O 0.79031 0.37959 0.70703 0.0
O113 O 0.84544 0.43618 0.83476 0.0
C114 C 0.84266 0.40109 0.86508 0.0
O115 O 0.81159 0.37042 0.84162 0.0
O116 O 0.72375 0.47821 0.787 0.0
Mg117 Mg 0.89991 0.97639 0.32769 0.0
C118 C 0.87384 0.06402 0.295 0.0
O119 O 0.83298 0.05189 0.33404 0.0
C120 C 0.9609 0.89828 0.35658 0.0
O121 O 0.91154 0.88518 0.33785 0.0
C122 C 0.89407 0.94027 0.1938 0.0
O123 O 0.94745 0.94137 0.20646 0.0
O124 O 0.86031 0.95 0.23961 0.0
O125 O 0.91521 0.03978 0.28851 0.0
O126 O 0.84767 0.98189 0.41609 0.0
C127 C 0.87176 0.9943 0.4683 0.0
O128 O 0.92552 1.00173 0.46611 0.0
O129 O 0.97118 0.9378 0.35613 0.0
Mg130 Mg 0.95612 0.41146 0.26176 0.0
C131 C 0.89387 0.33192 0.29045 0.0
O132 O 0.85766 0.35435 0.25808 0.0
C133 C 0.06079 0.42904 0.18386 0.0
O134 O 0.04158 0.39605 0.1521 0.0
C135 C 0.93978 0.46387 0.3826 0.0
O136 O 0.99322 0.45682 0.387 0.0
O137 O 0.91389 0.45061 0.33242 0.0
O138 O 0.94271 0.34711 0.29875 0.0
O139 O 0.91548 0.41488 0.16868 0.0
C140 C 0.91799 0.38361 0.13002 0.0
O141 O 0.94125 0.34862 0.14986 0.0
O142 O 0.03793 0.43895 0.23818 0.0
Mg143 Mg 0.81884 0.98315 0.7884 0.0
C144 C 0.74732 0.04054 0.70096 0.0
O145 O 0.70634 0.06641 0.69034 0.0
C146 C 0.84816 0.94243 0.91552 0.0
O147 O 0.88952 0.93245 0.8764 0.0
C148 C 0.75955 0.92436 0.69838 0.0
O149 O 0.71966 0.94658 0.72483 0.0
O150 O 0.80934 0.93128 0.71705 0.0
O151 O 0.75706 1.02891 0.75973 0.0
O152 O 0.89583 1.02024 0.79576 0.0
C153 C 0.88796 0.05219 0.83244 0.0
O154 O 0.83792 0.0579 0.85656 0.0
O155 O 0.80751 0.96217 0.89096 0.0
Mg156 Mg 0.59965 0.72384 0.49331 0.0
C157 C 0.48381 0.71216 0.43811 0.0
O158 O 0.47078 0.72682 0.49644 0.0
C159 C 0.68742 0.7861 0.5337 0.0
O160 O 0.71191 0.74994 0.54388 0.0
C161 C 0.66779 0.64897 0.43341 0.0
O162 O 0.70436 0.61895 0.43968 0.0
O163 O 0.66124 0.67476 0.48065 0.0
O164 O 0.53462 0.71275 0.42061 0.0
O165 O 0.56335 0.7145 0.59066 0.0
C166 C 0.54363 0.67979 0.61261 0.0
O167 O 0.54292 0.64654 0.57424 0.0
O168 O 0.64024 0.78577 0.50556 0.0
Mg169 Mg 0.24929 0.64133 0.00402 0.0
C170 C 0.33608 0.68866 0.90892 0.0
O171 O 0.34418 0.65016 0.8877 0.0
C172 C 0.19482 0.55141 0.039 0.0
O173 O 0.22535 0.53937 0.98896 0.0
C174 C 0.19673 0.61363 0.86372 0.0
O175 O 0.23206 0.58248 0.86278 0.0
O176 O 0.19577 0.63848 0.9125 0.0
O177 O 0.30161 0.69452 0.95556 0.0
O178 O 0.296 0.65125 0.09912 0.0
C179 C 0.30044 0.62362 0.14391 0.0
O180 O 0.2885 0.58403 0.13076 0.0
O181 O 0.19492 0.59016 0.05508 0.0
Mg182 Mg 0.54024 0.68364 0.03302 0.0
C183 C 0.59941 0.59634 0.00526 0.0
O184 O 0.57032 0.58393 0.05672 0.0
C185 C 0.42794 0.72828 0.07749 0.0
O186 O 0.40415 0.69521 0.05038 0.0
C187 C 0.49957 0.66371 0.89108 0.0
O188 O 0.49693 0.62576 0.91702 0.0
O189 O 0.50958 0.695 0.92833 0.0
O190 O 0.59857 0.63483 0.9878 0.0
O191 O 0.57795 0.67652 0.13619 0.0
C192 C 0.55992 0.65183 0.18109 0.0
O193 O 0.51742 0.62678 0.16906 0.0
O194 O 0.48061 0.73201 0.07602 0.0
Mg195 Mg 0.18983 0.71552 0.51659 0.0
C196 C 0.10914 0.76877 0.45126 0.0
O197 O 0.10157 0.73036 0.42864 0.0
C198 C 0.28447 0.67513 0.57329 0.0
O199 O 0.26382 0.64948 0.52908 0.0
C200 C 0.25229 0.70046 0.39116 0.0
O201 O 0.27961 0.73392 0.41197 0.0
O202 O 0.21134 0.68635 0.42452 0.0
O203 O 0.14668 0.77458 0.49424 0.0
O204 O 0.13808 0.67234 0.57243 0.0
C205 C 0.12088 0.68685 0.62676 0.0
O206 O 0.11874 0.72802 0.63338 0.0
O207 O 0.26293 0.71144 0.57971 0.0
C208 C 0.95426 0.22554 0.17848 0.0
C209 C 1.00555 0.24461 0.1628 0.0
H210 H 0.90475 0.19493 0.25294 0.0
C211 C 0.04362 0.25276 0.21333 0.0
H212 H 0.9238 0.21967 0.14074 0.0
C213 C 0.03254 0.23897 0.27723 0.0
C214 C 0.9835 0.21633 0.29156 0.0
H215 H 0.08317 0.26812 0.20294 0.0
H216 H 0.06378 0.244 0.31449 0.0
C217 C 0.94357 0.2111 0.24233 0.0
C218 C 0.22627 0.91501 0.50906 0.0
C219 C 0.26193 0.92001 0.45449 0.0
H220 H 0.21865 0.91207 0.61387 0.0
C221 C 0.31893 0.92612 0.46503 0.0
H222 H 0.18203 0.91068 0.50255 0.0
C223 C 0.33992 0.92679 0.5288 0.0
C224 C 0.30428 0.9217 0.58345 0.0
H225 H 0.34746 0.92997 0.42401 0.0
H226 H 0.38416 0.93145 0.53517 0.0
C227 C 0.2472 0.91594 0.57289 0.0
C228 C 0.80044 0.20093 0.81936 0.0
C229 C 0.78305 0.24199 0.83389 0.0
H230 H 0.8068 0.15254 0.74658 0.0
C231 C 0.76305 0.26744 0.78304 0.0
H232 H 0.81589 0.18065 0.8578 0.0
C233 C 0.75634 0.25107 0.72009 0.0
C234 C 0.77097 0.20931 0.70608 0.0
H235 H 0.74879 0.29908 0.79275 0.0
H236 H 0.73744 0.27073 0.68312 0.0
C237 C 0.79495 0.18483 0.75579 0.0
C238 C 0.43682 0.54412 0.02007 0.0
C239 C 0.42702 0.50776 0.98264 0.0
H240 H 0.45409 0.56944 0.11468 0.0
C241 C 0.43178 0.46793 0.01226 0.0
H242 H 0.43369 0.57519 -0.00168 0.0
C243 C 0.4451 0.46457 0.07855 0.0
C244 C 0.45329 0.50099 0.11658 0.0
H245 H 0.4257 0.43929 0.98419 0.0
H246 H 0.44708 0.4335 0.1006 0.0
C247 C 0.44966 0.54077 0.08647 0.0
C248 C 0.14337 0.17595 0.70533 0.0
C249 C 0.12071 0.19664 0.65097 0.0
H250 H 0.1703 0.18113 0.80473 0.0
C251 C 0.11604 0.24084 0.65253 0.0
H252 H 0.14811 0.14203 0.70528 0.0
C253 C 0.12694 0.26308 0.71024 0.0
C254 C 0.14431 0.24173 0.76673 0.0
H255 H 0.09943 0.25793 0.61115 0.0
H256 H 0.11826 0.2965 0.71185 0.0
C257 C 0.15597 0.19844 0.76239 0.0
C258 C 0.85016 0.48138 0.4384 0.0
C259 C 0.90829 0.47877 0.44055 0.0
H260 H 0.77448 0.48549 0.49325 0.0
C261 C 0.93516 0.48521 0.50081 0.0
H262 H 0.82818 0.47713 0.39263 0.0
C263 C 0.90431 0.49003 0.55864 0.0
C264 C 0.846 0.4885 0.55725 0.0
H265 H 0.97993 0.48389 0.50408 0.0
H266 H 0.92619 0.49215 0.60482 0.0
C267 C 0.81933 0.48623 0.49618 0.0
C268 C 0.60375 0.24455 0.24432 0.0
C269 C 0.64774 0.27406 0.23904 0.0
H270 H 0.55678 0.20337 0.30775 0.0
C271 C 0.66998 0.29137 0.29671 0.0
H272 H 0.58498 0.23104 0.20088 0.0
C273 C 0.65316 0.27584 0.35816 0.0
C274 C 0.61421 0.24242 0.36284 0.0
H275 H 0.70339 0.31455 0.29441 0.0
H276 H 0.67456 0.28734 0.40128 0.0
C277 C 0.58736 0.22872 0.30565 0.0
C278 C 0.91179 0.91506 0.07962 0.0
C279 C 0.87587 0.93436 0.12469 0.0
H280 H 0.93068 0.90171 0.97926 0.0
C281 C 0.82681 0.95237 0.10098 0.0
H282 H 0.94976 0.90069 0.09615 0.0
C283 C 0.81595 0.95336 0.03312 0.0
C284 C 0.85375 0.93609 0.98782 0.0
H285 H 0.79844 0.96777 0.13438 0.0
H286 H 0.77927 0.96927 0.01605 0.0
C287 C 0.90079 0.91572 0.01233 0.0
C288 C 0.5123 0.63694 0.71034 0.0
C289 C 0.52617 0.67632 0.68251 0.0
H290 H 0.49225 0.60217 0.79774 0.0
C291 C 0.52651 0.71212 0.72316 0.0
H292 H 0.51209 0.60867 0.68065 0.0
C293 C 0.51553 0.70833 0.79049 0.0
C294 C 0.50329 0.66874 0.8187 0.0
H295 H 0.53675 0.74303 0.70337 0.0
H296 H 0.51798 0.73636 0.82067 0.0
C297 C 0.50082 0.63322 0.77759 0.0
C298 C 0.87284 0.43257 0.97066 0.0
C299 C 0.86604 0.39687 0.93092 0.0
H300 H 0.89365 0.45619 0.06553 0.0
C301 C 0.8773 0.35678 0.9565 0.0
H302 H 0.8639 0.46379 0.95214 0.0
C303 C 0.89428 0.35235 0.02143 0.0
C304 C 0.89968 0.38797 0.06176 0.0
H305 H 0.87276 0.32886 0.9264 0.0
H306 H 0.90253 0.32106 0.04017 0.0
C307 C 0.88919 0.42813 0.03572 0.0
C308 C 0.26086 0.61904 0.25651 0.0
C309 C 0.29784 0.63864 0.21207 0.0
H310 H 0.21677 0.62363 0.34755 0.0
C311 C 0.32313 0.67717 0.22912 0.0
H312 H 0.24038 0.58947 0.24439 0.0
C313 C 0.30927 0.69704 0.288 0.0
C314 C 0.26957 0.67869 0.33058 0.0
H315 H 0.35214 0.69257 0.19578 0.0
H316 H 0.32845 0.72725 0.29918 0.0
C317 C 0.24661 0.63899 0.31507 0.0
C318 C 0.83765 1.02946 0.64232 0.0
C319 C 0.77979 1.02483 0.64438 0.0
H320 H 0.91205 1.02349 0.58528 0.0
C321 C 0.75243 1.0082 0.58941 0.0
H322 H 0.85953 0.04324 0.68331 0.0
C323 C 0.78211 0.99722 0.53269 0.0
C324 C 0.84003 1.00289 0.52973 0.0
H325 H 0.70799 1.00364 0.59057 0.0
H326 H 0.75956 0.98499 0.4909 0.0
C327 C 0.8675 1.01857 0.58568 0.0
C328 C 0.61207 0.68833 0.27151 0.0
C329 C 0.58616 0.6517 0.24669 0.0
H330 H 0.65644 0.71661 0.35183 0.0
C331 C 0.58438 0.61513 0.28583 0.0
H332 H 0.61352 0.7171 0.2427 0.0
C333 C 0.60955 0.61479 0.34755 0.0
C334 C 0.63543 0.65132 0.37227 0.0
H335 H 0.56454 0.58652 0.26816 0.0
H336 H 0.60923 0.58579 0.37586 0.0
C337 C 0.63595 0.68826 0.33414 0.0
C338 C 0.26161 0.96725 0.98742 0.0
C339 C 0.28444 0.96993 0.05067 0.0
H340 H 0.27698 0.96597 0.88379 0.0
C341 C 0.3414 0.97902 0.05677 0.0
H342 H 0.21777 0.96064 0.98102 0.0
C343 C 0.37551 0.98179 0.00089 0.0
C344 C 0.35328 0.9759 0.9378 0.0
H345 H 0.3603 0.98134 0.10475 0.0
H346 H 0.41973 0.98641 0.00743 0.0
C347 C 0.29559 0.9704 0.93159 0.0
C348 C 0.12955 0.65978 0.8058 0.0
C349 C 0.1653 0.62509 0.80418 0.0
H350 H 0.08608 0.70599 0.75038 0.0
C351 C 0.17574 0.6054 0.74371 0.0
H352 H 0.11963 0.6752 0.85172 0.0
C353 C 0.15597 0.62298 0.68537 0.0
C354 C 0.12562 0.66061 0.68667 0.0
H355 H 0.2026 0.57836 0.74083 0.0
H356 H 0.16867 0.60913 0.63917 0.0
C357 C 0.10999 0.67737 0.74766 0.0
C358 C 0.39249 0.40729 0.48877 0.0
C359 C 0.34207 0.42739 0.47655 0.0
H360 H 0.45024 0.3869 0.56075 0.0
C361 C 0.30642 0.43617 0.52947 0.0
H362 H 0.42032 0.39941 0.44875 0.0
C363 C 0.3237 0.42921 0.59396 0.0
C364 C 0.37673 0.41312 0.60632 0.0
H365 H 0.26703 0.4513 0.52143 0.0
H366 H 0.29721 0.43931 0.63396 0.0
C367 C 0.40949 0.39991 0.55305 0.0
C368 C 0.20751 0.36587 0.10934 0.0
C369 C 0.21024 0.36929 0.04054 0.0
H370 H 0.22867 0.39323 0.20199 0.0
C371 C 0.23762 0.40429 0.01225 0.0
H372 H 0.18588 0.33951 0.1325 0.0
C373 C 0.26288 0.43486 0.05209 0.0
C374 C 0.2598 0.43166 0.12105 0.0
H375 H 0.24 0.40781 0.95936 0.0
H376 H 0.28473 0.46103 0.02876 0.0
C377 C 0.23152 0.3969 0.14916 0.0
C378 C 0.06098 1.02786 0.39405 0.0
C379 C 0.04847 0.06778 0.36877 0.0
H380 H 0.09654 0.96756 0.37378 0.0
C381 C 0.05164 0.07454 0.30065 0.0
H382 H 0.05903 1.02202 0.44647 0.0
C383 C 0.07223 0.04347 0.25908 0.0
C384 C 0.09085 1.00513 0.28488 0.0
H385 H 0.04156 0.105 0.27995 0.0
H386 H 0.0776 0.05082 0.2074 0.0
C387 C 0.08232 0.9967 0.3523 0.0
C388 C 0.57656 0.98453 0.57127 0.0
C389 C 0.55337 0.99298 0.63348 0.0
H390 H 0.6237 1.00819 0.48897 0.0
C391 C 0.5617 0.03319 0.66075 0.0
H392 H 0.5709 0.95391 0.54867 0.0
C393 C 0.59141 0.06443 0.62612 0.0
C394 C 0.6143 0.05613 0.56372 0.0
H395 H 0.54412 0.04094 0.70824 0.0
H396 H 0.59657 0.09516 0.64854 0.0
C397 C 0.60657 1.01574 0.53676 0.0
C398 C 0.59163 0.38583 0.84688 0.0
C399 C 0.57282 0.42296 0.87677 0.0
H400 H 0.63478 0.32747 0.85947 0.0
C401 C 0.58251 0.42892 0.94411 0.0
H402 H 0.58404 0.38006 0.7953 0.0
C403 C 0.61172 0.39932 0.98041 0.0
C404 C 0.63087 0.36233 0.9508 0.0
H405 H 0.56701 0.45645 0.96931 0.0
H406 H 0.61855 0.4052 0.03213 0.0
C407 C 0.62037 0.3557 0.88365 0.0
C408 C 0.96281 0.14546 0.90916 0.0
C409 C 0.01857 0.13766 0.89373 0.0
H410 H 0.8785 0.12471 0.90222 0.0
C411 C 0.03125 0.10194 0.85573 0.0
H412 H 0.95144 0.1726 0.93824 0.0
C413 C 0.98903 0.07439 0.83437 0.0
C414 C 0.93336 0.0819 0.85099 0.0
H415 H 0.07382 0.09519 0.84257 0.0
H416 H 1.00005 0.04698 0.80576 0.0
C417 C 0.92087 0.11789 0.88832 0.0
C418 C 0.89621 0.30224 0.71159 0.0
C419 C 0.85392 0.32389 0.67919 0.0
H420 H 0.95687 0.25371 0.70583 0.0
C421 C 0.83356 0.30797 0.61978 0.0
H422 H 0.9126 0.314 0.75757 0.0
C423 C 0.85868 0.27304 0.59045 0.0
C424 C 0.90434 0.25368 0.62021 0.0
H425 H 0.80143 0.32445 0.59358 0.0
H426 H 0.84551 0.26407 0.54199 0.0
C427 C 0.9212 0.26753 0.68235 0.0
C428 C 0.82674 0.27099 0.30233 0.0
C429 C 0.87496 0.29249 0.32335 0.0
H430 H 0.766 0.22248 0.32286 0.0
C431 C 0.90166 0.27823 0.37979 0.0
H432 H 0.80532 0.28117 0.25867 0.0
C433 C 0.87942 0.24444 0.41595 0.0
C434 C 0.82987 0.22407 0.39733 0.0
H435 H 0.93886 0.29395 0.39736 0.0
H436 H 0.90082 0.23493 0.45947 0.0
C437 C 0.80442 0.23712 0.33887 0.0
C438 C 0.89535 0.10392 0.19023 0.0
C439 C 0.86446 0.09953 0.24884 0.0
H440 H 0.90245 0.13424 0.09595 0.0
C441 C 0.81872 0.12583 0.25895 0.0
H442 H 0.9307 0.08407 0.18082 0.0
C443 C 0.80222 0.15405 0.21032 0.0
C444 C 0.83125 0.15706 0.15032 0.0
H445 H 0.79425 0.12362 0.30371 0.0
H446 H 0.76596 0.17302 0.21945 0.0
C447 C 0.87883 0.13239 0.14136 0.0
C448 C 0.76292 0.82497 0.59434 0.0
C449 C 0.70957 0.82474 0.56633 0.0
H450 H 0.82105 0.85673 0.65744 0.0
C451 C 0.67553 0.8597 0.57691 0.0
H452 H 0.79039 0.79864 0.58696 0.0
C453 C 0.69292 0.89264 0.6179 0.0
C454 C 0.745 0.89173 0.64884 0.0
H455 H 0.6343 0.8607 0.55621 0.0
H456 H 0.66474 0.91835 0.62681 0.0
C457 C 0.7806 0.85824 0.6348 0.0
C458 C 0.63356 0.57049 0.89603 0.0
C459 C 0.6286 0.56506 0.96447 0.0
H460 H 0.66184 0.54456 0.8046 0.0
C461 C 0.64992 0.52862 0.99338 0.0
H462 H 0.61688 0.59816 0.87236 0.0
C463 C 0.6765 0.4985 0.95493 0.0
C464 C 0.68054 0.50322 0.88625 0.0
H465 H 0.64669 0.52364 0.04596 0.0
H466 H 0.69369 0.47129 0.97931 0.0
C467 C 0.65892 0.53969 0.85719 0.0
C468 C 0.11682 0.49688 0.1793 0.0
C469 C 0.09939 0.45897 0.14963 0.0
H470 H 0.16043 0.55601 0.1675 0.0
C471 C 0.11442 0.45176 0.08372 0.0
H472 H 0.10568 0.50364 0.22977 0.0
C473 C 0.14514 0.48185 0.04806 0.0
C474 C 0.16199 0.51987 0.07734 0.0
H475 H 0.10141 0.42317 0.05888 0.0
H476 H 0.15521 0.47549 0.99714 0.0
C477 C 0.14771 0.52706 0.14346 0.0
C478 C 0.08131 0.84576 0.44506 0.0
C479 C 0.07348 0.80334 0.42656 0.0
H480 H 0.0522 0.90952 0.43713 0.0
C481 C 0.03011 0.79339 0.38318 0.0
H482 H 0.11425 0.85447 0.47841 0.0
C483 C 0.99489 0.82451 0.35996 0.0
C484 C 1.00201 0.8668 0.37872 0.0
H485 H 0.02265 0.76122 0.36748 0.0
H486 H 0.96162 0.81522 0.32732 0.0
C487 C 0.04604 0.87729 0.42106 0.0
C488 C 0.36543 0.63532 0.41414 0.0
C489 C 0.3835 0.61249 0.3594 0.0
H490 H 0.38002 0.68766 0.47825 0.0
C491 C 0.42884 0.62842 0.32262 0.0
H492 H 0.3299 0.6243 0.44225 0.0
C493 C 0.4589 0.66375 0.34474 0.0
C494 C 0.44389 0.684 0.4034 0.0
H495 H 0.44337 0.61206 0.27935 0.0
H496 H 0.49558 0.67386 0.31806 0.0
C497 C 0.3943 0.67144 0.43476 0.0
C498 C 0.42081 0.79032 0.15196 0.0
C499 C 0.39435 0.76031 0.11207 0.0
H500 H 0.41252 0.84364 0.21441 0.0
C501 C 0.33612 0.76113 0.10669 0.0
H502 H 0.46543 0.79041 0.15796 0.0
C503 C 0.30528 0.79193 0.13966 0.0
C504 C 0.33224 0.82244 0.17844 0.0
H505 H 0.31444 0.7383 0.07652 0.0
H506 H 0.26069 0.79239 0.13367 0.0
C507 C 0.39024 0.82083 0.18472 0.0
C508 C 0.39794 0.75786 0.7741 0.0
C509 C 0.40337 0.79699 0.80568 0.0
H510 H 0.37537 0.69264 0.78295 0.0
C511 C 0.39014 0.79952 0.87301 0.0
H512 H 0.40788 0.75481 0.72236 0.0
C513 C 0.36926 0.76415 0.90702 0.0
C514 C 0.3627 0.72524 0.87495 0.0
H515 H 0.39335 0.82929 0.89873 0.0
H516 H 0.35742 0.76745 0.95813 0.0
C517 C 0.37891 0.72224 0.80872 0.0
C518 C 0.36598 0.63196 0.60287 0.0
C519 C 0.32101 0.65661 0.6232 0.0
H520 H 0.42231 0.58279 0.62679 0.0
C521 C 0.30232 0.65322 0.68836 0.0
H522 H 0.38027 0.63265 0.55268 0.0
C523 C 0.32485 0.62294 0.7303 0.0
C524 C 0.36791 0.59673 0.70869 0.0
H525 H 0.26689 0.67105 0.70499 0.0
H526 H 0.30661 0.61862 0.77852 0.0
C527 C 0.38988 0.6029 0.64544 0.0
loop_
_geom_bond_atom_site_label_1
_geom_bond_atom_site_label_2
_geom_bond_distance
_geom_bond_site_symmetry_2
_ccdc_geom_bond_type
Mg0 O7 2.141 1_554 S
Mg0 O8 2.048 1_554 S
Mg0 O9 2.048 . S
Mg0 O12 2.141 . S
C1 O2 1.313 1_456 S
C1 O8 1.195 . S
O2 C1 1.313 1_654 S
C3 O4 1.245 . S
C3 O12 1.289 . S
O4 C3 1.245 . S
C5 O6 1.245 . S
C5 O7 1.289 . S
O6 C5 1.245 . S
O7 Mg0 2.141 1_556 S
O7 C5 1.289 . S
O8 Mg0 2.048 1_556 S
O8 C1 1.195 . S
O9 Mg0 2.048 . S
O9 C10 1.195 . S
C10 O9 1.195 . S
C10 O11 1.313 . S
O11 C10 1.313 . S
O12 Mg0 2.141 . S
O12 C3 1.289 . S
Mg13 O20 2.141 . S
Mg13 O21 2.048 . S
Mg13 O22 2.048 . S
Mg13 O25 2.141 . S
C14 O15 1.313 . S
C14 O21 1.195 . S
O15 C14 1.313 . S
C16 O17 1.245 . S
C16 O25 1.289 . S
O17 C16 1.245 . S
C18 O19 1.245 . S
C18 O20 1.289 . S
O19 C18 1.245 . S
O20 Mg13 2.141 . S
O20 C18 1.289 . S
O21 Mg13 2.048 . S
O21 C14 1.195 . S
O22 Mg13 2.048 . S
O22 C23 1.195 . S
C23 O22 1.195 . S
C23 O24 1.313 . S
O24 C23 1.313 . S
O25 Mg13 2.141 . S
O25 C16 1.289 . S
Mg26 O33 2.141 . S
Mg26 O34 2.048 . S
Mg26 O35 2.048 . S
Mg26 O38 2.141 . S
C27 O28 1.313 . S
C27 O34 1.195 . S
O28 C27 1.313 . S
C29 O30 1.245 . S
C29 O38 1.289 . S
O30 C29 1.245 . S
C31 O32 1.245 . S
C31 O33 1.289 . S
O32 C31 1.245 . S
O33 Mg26 2.141 . S
O33 C31 1.289 . S
O34 Mg26 2.048 . S
O34 C27 1.195 . S
O35 Mg26 2.048 . S
O35 C36 1.195 . S
C36 O35 1.195 . S
C36 O37 1.313 . S
O37 C36 1.313 . S
O38 Mg26 2.141 . S
O38 C29 1.289 . S
Mg39 O46 2.141 . S
Mg39 O47 2.048 . S
Mg39 O48 2.048 . S
Mg39 O51 2.141 . S
C40 O41 1.313 . S
C40 O47 1.195 . S
O41 C40 1.313 . S
C42 O43 1.245 . S
C42 O51 1.289 . S
O43 C42 1.245 . S
C44 O45 1.245 . S
C44 O46 1.289 . S
O45 C44 1.245 . S
O46 Mg39 2.141 . S
O46 C44 1.289 . S
O47 Mg39 2.048 . S
O47 C40 1.195 . S
O48 Mg39 2.048 . S
O48 C49 1.195 . S
C49 O48 1.195 . S
C49 O50 1.313 . S
O50 C49 1.313 . S
O51 Mg39 2.141 . S
O51 C42 1.289 . S
Mg52 O59 2.141 . S
Mg52 O60 2.048 . S
Mg52 O61 2.048 . S
Mg52 O64 2.141 . S
C53 O54 1.313 . S
C53 O60 1.195 . S
O54 C53 1.313 . S
C55 O56 1.245 1_455 S
C55 O64 1.289 . S
O56 C55 1.245 1_655 S
C57 O58 1.245 . S
C57 O59 1.289 . S
O58 C57 1.245 . S
O59 Mg52 2.141 . S
O59 C57 1.289 . S
O60 Mg52 2.048 . S
O60 C53 1.195 . S
O61 Mg52 2.048 . S
O61 C62 1.195 . S
C62 O61 1.195 . S
C62 O63 1.313 . S
O63 C62 1.313 . S
O64 Mg52 2.141 . S
O64 C55 1.289 . S
Mg65 O72 2.141 . S
Mg65 O73 2.048 . S
Mg65 O74 2.048 . S
Mg65 O77 2.141 . S
C66 O67 1.313 . S
C66 O73 1.195 . S
O67 C66 1.313 . S
C68 O69 1.245 . S
C68 O77 1.289 . S
O69 C68 1.245 . S
C70 O71 1.245 . S
C70 O72 1.289 . S
O71 C70 1.245 . S
O72 Mg65 2.141 . S
O72 C70 1.289 . S
O73 Mg65 2.048 . S
O73 C66 1.195 . S
O74 Mg65 2.048 . S
O74 C75 1.195 . S
C75 O74 1.195 . S
C75 O76 1.313 . S
O76 C75 1.313 . S
O77 Mg65 2.141 . S
O77 C68 1.289 . S
Mg78 O85 2.141 1_554 S
Mg78 O86 2.048 1_554 S
Mg78 O87 2.048 . S
Mg78 O90 2.141 . S
C79 O80 1.313 1_556 S
C79 O86 1.195 . S
O80 C79 1.313 1_554 S
C81 O82 1.245 . S
C81 O90 1.289 . S
O82 C81 1.245 . S
C83 O84 1.245 . S
C83 O85 1.289 . S
O84 C83 1.245 . S
O85 Mg78 2.141 1_556 S
O85 C83 1.289 . S
O86 Mg78 2.048 1_556 S
O86 C79 1.195 . S
O87 Mg78 2.048 . S
O87 C88 1.195 . S
C88 O87 1.195 . S
C88 O89 1.313 . S
O89 C88 1.313 . S
O90 Mg78 2.141 . S
O90 C81 1.289 . S
Mg91 O98 2.141 . S
Mg91 O99 2.048 . S
Mg91 O100 2.048 . S
Mg91 O103 2.141 . S
C92 O93 1.313 . S
C92 O99 1.195 . S
O93 C92 1.313 . S
C94 O95 1.245 . S
C94 O103 1.289 . S
O95 C94 1.245 . S
C96 O97 1.245 . S
C96 O98 1.289 . S
O97 C96 1.245 . S
O98 Mg91 2.141 . S
O98 C96 1.289 . S
O99 Mg91 2.048 . S
O99 C92 1.195 . S
O100 Mg91 2.048 . S
O100 C101 1.195 . S
C101 O100 1.195 . S
C101 O102 1.313 . S
O102 C101 1.313 . S
O103 Mg91 2.141 . S
O103 C94 1.289 . S
Mg104 O111 2.141 . S
Mg104 O112 2.048 . S
Mg104 O113 2.048 . S
Mg104 O116 2.141 . S
C105 O106 1.313 . S
C105 O112 1.195 . S
O106 C105 1.313 . S
C107 O108 1.245 . S
C107 O116 1.289 . S
O108 C107 1.245 . S
C109 O110 1.245 . S
C109 O111 1.289 . S
O110 C109 1.245 . S
O111 Mg104 2.141 . S
O111 C109 1.289 . S
O112 Mg104 2.048 . S
O112 C105 1.195 . S
O113 Mg104 2.048 . S
O113 C114 1.195 . S
C114 O113 1.195 . S
C114 O115 1.313 . S
O115 C114 1.313 . S
O116 Mg104 2.141 . S
O116 C107 1.289 . S
Mg117 O124 2.141 . S
Mg117 O125 2.048 . S
Mg117 O126 2.048 . S
Mg117 O129 2.141 . S
C118 O119 1.312 1_565 S
C118 O125 1.195 . S
O119 C118 1.312 1_545 S
C120 O121 1.245 . S
C120 O129 1.289 . S
O121 C120 1.245 . S
C122 O123 1.245 . S
C122 O124 1.289 . S
O123 C122 1.245 . S
O124 Mg117 2.141 . S
O124 C122 1.289 . S
O125 Mg117 2.048 . S
O125 C118 1.195 . S
O126 Mg117 2.048 . S
O126 C127 1.195 . S
C127 O126 1.195 . S
C127 O128 1.313 . S
O128 C127 1.313 . S
O129 Mg117 2.141 . S
O129 C120 1.289 . S
Mg130 O137 2.141 . S
Mg130 O138 2.048 . S
Mg130 O139 2.048 . S
Mg130 O142 2.141 . S
C131 O132 1.313 . S
C131 O138 1.195 . S
O132 C131 1.313 . S
C133 O134 1.245 . S
C133 O142 1.289 . S
O134 C133 1.245 . S
C135 O136 1.245 . S
C135 O137 1.289 . S
O136 C135 1.245 . S
O137 Mg130 2.141 . S
O137 C135 1.289 . S
O138 Mg130 2.048 . S
O138 C131 1.195 . S
O139 Mg130 2.048 . S
O139 C140 1.195 . S
C140 O139 1.195 . S
C140 O141 1.313 . S
O141 C140 1.313 . S
O142 Mg130 2.141 . S
O142 C133 1.289 . S
Mg143 O150 2.141 . S
Mg143 O151 2.048 . S
Mg143 O152 2.048 . S
Mg143 O155 2.141 . S
C144 O145 1.313 . S
C144 O151 1.195 . S
O145 C144 1.313 . S
C146 O147 1.245 . S
C146 O155 1.289 . S
O147 C146 1.245 . S
C148 O149 1.245 . S
C148 O150 1.289 . S
O149 C148 1.245 . S
O150 Mg143 2.141 . S
O150 C148 1.289 . S
O151 Mg143 2.048 . S
O151 C144 1.195 . S
O152 Mg143 2.048 . S
O152 C153 1.195 . S
C153 O152 1.195 . S
C153 O154 1.313 . S
O154 C153 1.313 . S
O155 Mg143 2.141 . S
O155 C146 1.289 . S
Mg156 O163 2.141 . S
Mg156 O164 2.048 . S
Mg156 O165 2.048 . S
Mg156 O168 2.141 . S
C157 O158 1.313 . S
C157 O164 1.195 . S
O158 C157 1.313 . S
C159 O160 1.245 . S
C159 O168 1.289 . S
O160 C159 1.245 . S
C161 O162 1.245 . S
C161 O163 1.289 . S
O162 C161 1.245 . S
O163 Mg156 2.141 . S
O163 C161 1.289 . S
O164 Mg156 2.048 . S
O164 C157 1.195 . S
O165 Mg156 2.048 . S
O165 C166 1.195 . S
C166 O165 1.195 . S
C166 O167 1.313 . S
O167 C166 1.313 . S
O168 Mg156 2.141 . S
O168 C159 1.289 . S
Mg169 O176 2.141 1_554 S
Mg169 O177 2.048 1_554 S
Mg169 O178 2.048 . S
Mg169 O181 2.141 . S
C170 O171 1.313 . S
C170 O177 1.195 . S
O171 C170 1.313 . S
C172 O173 1.245 . S
C172 O181 1.289 . S
O173 C172 1.245 . S
C174 O175 1.245 . S
C174 O176 1.289 . S
O175 C174 1.245 . S
O176 Mg169 2.141 1_556 S
O176 C174 1.289 . S
O177 Mg169 2.048 1_556 S
O177 C170 1.195 . S
O178 Mg169 2.048 . S
O178 C179 1.195 . S
C179 O178 1.195 . S
C179 O180 1.313 . S
O180 C179 1.313 . S
O181 Mg169 2.141 . S
O181 C172 1.289 . S
Mg182 O189 2.141 1_554 S
Mg182 O190 2.048 1_554 S
Mg182 O191 2.048 . S
Mg182 O194 2.141 . S
C183 O184 1.313 1_556 S
C183 O190 1.195 . S
O184 C183 1.313 1_554 S
C185 O186 1.245 . S
C185 O194 1.289 . S
O186 C185 1.245 . S
C187 O188 1.245 . S
C187 O189 1.289 . S
O188 C187 1.245 . S
O189 Mg182 2.141 1_556 S
O189 C187 1.289 . S
O190 Mg182 2.048 1_556 S
O190 C183 1.195 . S
O191 Mg182 2.048 . S
O191 C192 1.195 . S
C192 O191 1.195 . S
C192 O193 1.313 . S
O193 C192 1.313 . S
O194 Mg182 2.141 . S
O194 C185 1.289 . S
Mg195 O202 2.141 . S
Mg195 O203 2.048 . S
Mg195 O204 2.048 . S
Mg195 O207 2.141 . S
C196 O197 1.313 . S
C196 O203 1.195 . S
O197 C196 1.313 . S
C198 O199 1.245 . S
C198 O207 1.289 . S
O199 C198 1.245 . S
C200 O201 1.245 . S
C200 O202 1.289 . S
O201 C200 1.245 . S
O202 Mg195 2.141 . S
O202 C200 1.289 . S
O203 Mg195 2.048 . S
O203 C196 1.195 . S
O204 Mg195 2.048 . S
O204 C205 1.195 . S
C205 O204 1.195 . S
C205 O206 1.313 . S
O206 C205 1.313 . S
O207 Mg195 2.141 . S
O207 C198 1.289 . S
C208 C209 1.387 . S
C208 H212 0.950 1_455 S
C208 C217 1.390 . S
C209 C208 1.387 . S
C209 C211 1.387 . S
H210 C217 0.950 1_655 S
C211 C209 1.387 . S
C211 C213 1.390 . S
C211 H215 0.950 . S
H212 C208 0.950 1_655 S
C213 C211 1.390 . S
C213 C214 1.387 . S
C213 H216 0.950 . S
C214 C213 1.387 . S
C214 C217 1.387 . S
H215 C211 0.950 . S
H216 C213 0.950 . S
C217 C208 1.390 . S
C217 H210 0.950 1_455 S
C217 C214 1.387 . S
C218 C219 1.387 . S
C218 H222 0.950 . S
C218 C227 1.390 . S
C219 C218 1.387 . S
C219 C221 1.387 . S
H220 C227 0.950 . S
C221 C219 1.387 . S
C221 C223 1.390 . S
C221 H225 0.950 . S
H222 C218 0.950 . S
C223 C221 1.390 . S
C223 C224 1.387 . S
C223 H226 0.950 . S
C224 C223 1.387 . S
C224 C227 1.387 . S
H225 C221 0.950 . S
H226 C223 0.950 . S
C227 C218 1.390 . S
C227 H220 0.950 . S
C227 C224 1.387 . S
C228 C229 1.387 . S
C228 H232 0.950 . S
C228 C237 1.390 . S
C229 C228 1.387 . S
C229 C231 1.387 . S
H230 C237 0.950 . S
C231 C229 1.387 . S
C231 C233 1.390 . S
C231 H235 0.950 . S
H232 C228 0.950 . S
C233 C231 1.390 . S
C233 C234 1.387 . S
C233 H236 0.950 . S
C234 C233 1.387 . S
C234 C237 1.387 . S
H235 C231 0.950 . S
H236 C233 0.950 . S
C237 C228 1.390 . S
C237 H230 0.950 . S
C237 C234 1.387 . S
C238 C239 1.387 . S
C238 H242 0.950 . S
C238 C247 1.390 1_556 S
C239 C238 1.387 . S
C239 C241 1.387 . S
H240 C247 0.950 . S
C241 C239 1.387 . S
C241 C243 1.390 1_556 S
C241 H245 0.950 . S
H242 C238 0.950 . S
C243 C241 1.390 1_554 S
C243 C244 1.387 . S
C243 H246 0.950 . S
C244 C243 1.387 . S
C244 C247 1.387 . S
H245 C241 0.950 . S
H246 C243 0.950 . S
C247 C238 1.390 1_554 S
C247 H240 0.950 . S
C247 C244 1.387 . S
C248 C249 1.387 . S
C248 H252 0.950 . S
C248 C257 1.390 . S
C249 C248 1.387 . S
C249 C251 1.387 . S
H250 C257 0.950 . S
C251 C249 1.387 . S
C251 C253 1.390 . S
C251 H255 0.950 . S
H252 C248 0.950 . S
C253 C251 1.390 . S
C253 C254 1.387 . S
C253 H256 0.950 . S
C254 C253 1.387 . S
C254 C257 1.387 . S
H255 C251 0.950 . S
H256 C253 0.950 . S
C257 C248 1.390 . S
C257 H250 0.950 . S
C257 C254 1.387 . S
C258 C259 1.387 . S
C258 H262 0.950 . S
C258 C267 1.390 . S
C259 C258 1.387 . S
C259 C261 1.387 . S
H260 C267 0.950 . S
C261 C259 1.387 . S
C261 C263 1.390 . S
C261 H265 0.950 . S
H262 C258 0.950 . S
C263 C261 1.390 . S
C263 C264 1.387 . S
C263 H266 0.950 . S
C264 C263 1.387 . S
C264 C267 1.387 . S
H265 C261 0.950 . S
H266 C263 0.950 . S
C267 C258 1.390 . S
C267 H260 0.950 . S
C267 C264 1.387 . S
C268 C269 1.387 . S
C268 H272 0.950 . S
C268 C277 1.390 . S
C269 C268 1.387 . S
C269 C271 1.387 . S
H270 C277 0.950 . S
C271 C269 1.387 . S
C271 C273 1.390 . S
C271 H275 0.950 . S
H272 C268 0.950 . S
C273 C271 1.390 . S
C273 C274 1.387 . S
C273 H276 0.950 . S
C274 C273 1.387 . S
C274 C277 1.387 . S
H275 C271 0.950 . S
H276 C273 0.950 . S
C277 C268 1.390 . S
C277 H270 0.950 . S
C277 C274 1.387 . S
C278 C279 1.387 . S
C278 H282 0.950 . S
C278 C287 1.390 1_554 S
C279 C278 1.387 . S
C279 C281 1.387 . S
H280 C287 0.950 . S
C281 C279 1.387 . S
C281 C283 1.390 1_554 S
C281 H285 0.950 . S
H282 C278 0.950 . S
C283 C281 1.390 1_556 S
C283 C284 1.387 . S
C283 H286 0.950 . S
C284 C283 1.387 . S
C284 C287 1.387 . S
H285 C281 0.950 . S
H286 C283 0.950 . S
C287 C278 1.390 1_556 S
C287 H280 0.950 . S
C287 C284 1.387 . S
C288 C289 1.387 . S
C288 H292 0.950 . S
C288 C297 1.390 . S
C289 C288 1.387 . S
C289 C291 1.387 . S
H290 C297 0.950 . S
C291 C289 1.387 . S
C291 C293 1.390 . S
C291 H295 0.950 . S
H292 C288 0.950 . S
C293 C291 1.390 . S
C293 C294 1.387 . S
C293 H296 0.950 . S
C294 C293 1.387 . S
C294 C297 1.387 . S
H295 C291 0.950 . S
H296 C293 0.950 . S
C297 C288 1.390 . S
C297 H290 0.950 . S
C297 C294 1.387 . S
C298 C299 1.387 . S
C298 H302 0.950 . S
C298 C307 1.390 1_556 S
C299 C298 1.387 . S
C299 C301 1.387 . S
H300 C307 0.950 . S
C301 C299 1.387 . S
C301 C303 1.390 1_556 S
C301 H305 0.950 . S
H302 C298 0.950 . S
C303 C301 1.390 1_554 S
C303 C304 1.387 . S
C303 H306 0.950 . S
C304 C303 1.387 . S
C304 C307 1.387 . S
H305 C301 0.950 . S
H306 C303 0.950 . S
C307 C298 1.390 1_554 S
C307 H300 0.950 . S
C307 C304 1.387 . S
C308 C309 1.387 . S
C308 H312 0.950 . S
C308 C317 1.390 . S
C309 C308 1.387 . S
C309 C311 1.387 . S
H310 C317 0.950 . S
C311 C309 1.387 . S
C311 C313 1.390 . S
C311 H315 0.950 . S
H312 C308 0.950 . S
C313 C311 1.390 . S
C313 C314 1.387 . S
C313 H316 0.950 . S
C314 C313 1.387 . S
C314 C317 1.387 . S
H315 C311 0.950 . S
H316 C313 0.950 . S
C317 C308 1.390 . S
C317 H310 0.950 . S
C317 C314 1.387 . S
C318 C319 1.387 . S
C318 H322 0.950 . S
C318 C327 1.390 . S
C319 C318 1.387 . S
C319 C321 1.387 . S
H320 C327 0.950 . S
C321 C319 1.387 . S
C321 C323 1.390 . S
C321 H325 0.950 . S
H322 C318 0.950 . S
C323 C321 1.390 . S
C323 C324 1.387 . S
C323 H326 0.950 . S
C324 C323 1.387 . S
C324 C327 1.387 . S
H325 C321 0.950 . S
H326 C323 0.950 . S
C327 C318 1.390 . S
C327 H320 0.950 . S
C327 C324 1.387 . S
C328 C329 1.387 . S
C328 H332 0.950 . S
C328 C337 1.390 . S
C329 C328 1.387 . S
C329 C331 1.387 . S
H330 C337 0.950 . S
C331 C329 1.387 . S
C331 C333 1.390 . S
C331 H335 0.950 . S
H332 C328 0.950 . S
C333 C331 1.390 . S
C333 C334 1.387 . S
C333 H336 0.950 . S
C334 C333 1.387 . S
C334 C337 1.387 . S
H335 C331 0.950 . S
H336 C333 0.950 . S
C337 C328 1.390 . S
C337 H330 0.950 . S
C337 C334 1.387 . S
C338 C339 1.387 . S
C338 H342 0.950 . S
C338 C347 1.390 1_554 S
C339 C338 1.387 . S
C339 C341 1.387 . S
H340 C347 0.950 . S
C341 C339 1.387 . S
C341 C343 1.390 1_554 S
C341 H345 0.950 1_565 S
H342 C338 0.950 . S
C343 C341 1.390 1_556 S
C343 C344 1.387 . S
C343 H346 0.950 1_565 S
C344 C343 1.387 . S
C344 C347 1.387 . S
H345 C341 0.950 1_545 S
H346 C343 0.950 1_545 S
C347 C338 1.390 1_556 S
C347 H340 0.950 . S
C347 C344 1.387 . S
C348 C349 1.387 . S
C348 H352 0.950 . S
C348 C357 1.390 . S
C349 C348 1.387 . S
C349 C351 1.387 . S
H350 C357 0.950 . S
C351 C349 1.387 . S
C351 C353 1.390 . S
C351 H355 0.950 . S
H352 C348 0.950 . S
C353 C351 1.390 . S
C353 C354 1.387 . S
C353 H356 0.950 . S
C354 C353 1.387 . S
C354 C357 1.387 . S
H355 C351 0.950 . S
H356 C353 0.950 . S
C357 C348 1.390 . S
C357 H350 0.950 . S
C357 C354 1.387 . S
C358 C359 1.387 . S
C358 H362 0.950 . S
C358 C367 1.390 . S
C359 C358 1.387 . S
C359 C361 1.387 . S
H360 C367 0.950 . S
C361 C359 1.387 . S
C361 C363 1.390 . S
C361 H365 0.950 . S
H362 C358 0.950 . S
C363 C361 1.390 . S
C363 C364 1.387 . S
C363 H366 0.950 . S
C364 C363 1.387 . S
C364 C367 1.387 . S
H365 C361 0.950 . S
H366 C363 0.950 . S
C367 C358 1.390 . S
C367 H360 0.950 . S
C367 C364 1.387 . S
C368 C369 1.387 . S
C368 H372 0.950 . S
C368 C377 1.390 . S
C369 C368 1.387 . S
C369 C371 1.387 . S
H370 C377 0.950 . S
C371 C369 1.387 . S
C371 C373 1.390 . S
C371 H375 0.950 . S
H372 C368 0.950 . S
C373 C371 1.390 . S
C373 C374 1.387 . S
C373 H376 0.950 . S
C374 C373 1.387 . S
C374 C377 1.387 . S
H375 C371 0.950 . S
H376 C373 0.950 . S
C377 C368 1.390 . S
C377 H370 0.950 . S
C377 C374 1.387 . S
C378 C379 1.387 . S
C378 H382 0.950 . S
C378 C387 1.390 . S
C379 C378 1.387 . S
C379 C381 1.387 . S
H380 C387 0.950 . S
C381 C379 1.387 . S
C381 C383 1.390 . S
C381 H385 0.950 . S
H382 C378 0.950 . S
C383 C381 1.390 . S
C383 C384 1.387 . S
C383 H386 0.950 . S
C384 C383 1.387 . S
C384 C387 1.387 . S
H385 C381 0.950 . S
H386 C383 0.950 . S
C387 C378 1.390 . S
C387 H380 0.950 . S
C387 C384 1.387 . S
C388 C389 1.387 . S
C388 H392 0.950 1_545 S
C388 C397 1.390 . S
C389 C388 1.387 . S
C389 C391 1.387 . S
H390 C397 0.950 . S
C391 C389 1.387 . S
C391 C393 1.390 . S
C391 H395 0.950 . S
H392 C388 0.950 1_565 S
C393 C391 1.390 . S
C393 C394 1.387 . S
C393 H396 0.950 . S
C394 C393 1.387 . S
C394 C397 1.387 . S
H395 C391 0.950 . S
H396 C393 0.950 . S
C397 C388 1.390 . S
C397 H390 0.950 . S
C397 C394 1.387 . S
C398 C399 1.387 . S
C398 H402 0.950 . S
C398 C407 1.390 . S
C399 C398 1.387 . S
C399 C401 1.387 . S
H400 C407 0.950 . S
C401 C399 1.387 . S
C401 C403 1.390 . S
C401 H405 0.950 . S
H402 C398 0.950 . S
C403 C401 1.390 . S
C403 C404 1.387 . S
C403 H406 0.950 . S
C404 C403 1.387 . S
C404 C407 1.387 . S
H405 C401 0.950 . S
H406 C403 0.950 . S
C407 C398 1.390 . S
C407 H400 0.950 . S
C407 C404 1.387 . S
C408 C409 1.387 . S
C408 H412 0.950 . S
C408 C417 1.390 . S
C409 C408 1.387 . S
C409 C411 1.387 1_455 S
H410 C417 0.950 1_565 S
C411 C409 1.387 1_655 S
C411 C413 1.390 . S
C411 H415 0.950 . S
H412 C408 0.950 . S
C413 C411 1.390 . S
C413 C414 1.387 . S
C413 H416 0.950 . S
C414 C413 1.387 . S
C414 C417 1.387 1_655 S
H415 C411 0.950 . S
H416 C413 0.950 . S
C417 C408 1.390 . S
C417 H410 0.950 1_545 S
C417 C414 1.387 1_455 S
C418 C419 1.387 . S
C418 H422 0.950 . S
C418 C427 1.390 . S
C419 C418 1.387 . S
C419 C421 1.387 . S
H420 C427 0.950 . S
C421 C419 1.387 . S
C421 C423 1.390 . S
C421 H425 0.950 . S
H422 C418 0.950 . S
C423 C421 1.390 . S
C423 C424 1.387 . S
C423 H426 0.950 . S
C424 C423 1.387 . S
C424 C427 1.387 . S
H425 C421 0.950 . S
H426 C423 0.950 . S
C427 C418 1.390 . S
C427 H420 0.950 . S
C427 C424 1.387 . S
C428 C429 1.387 . S
C428 H432 0.950 . S
C428 C437 1.390 . S
C429 C428 1.387 . S
C429 C431 1.387 . S
H430 C437 0.950 . S
C431 C429 1.387 . S
C431 C433 1.390 . S
C431 H435 0.950 . S
H432 C428 0.950 . S
C433 C431 1.390 . S
C433 C434 1.387 . S
C433 H436 0.950 . S
C434 C433 1.387 . S
C434 C437 1.387 . S
H435 C431 0.950 . S
H436 C433 0.950 . S
C437 C428 1.390 . S
C437 H430 0.950 . S
C437 C434 1.387 . S
C438 C439 1.387 . S
C438 H442 0.950 . S
C438 C447 1.390 . S
C439 C438 1.387 . S
C439 C441 1.387 . S
H440 C447 0.950 . S
C441 C439 1.387 . S
C441 C443 1.390 . S
C441 H445 0.950 . S
H442 C438 0.950 . S
C443 C441 1.390 . S
C443 C444 1.387 . S
C443 H446 0.950 . S
C444 C443 1.387 . S
C444 C447 1.387 . S
H445 C441 0.950 . S
H446 C443 0.950 . S
C447 C438 1.390 . S
C447 H440 0.950 . S
C447 C444 1.387 . S
C448 C449 1.387 . S
C448 H452 0.950 . S
C448 C457 1.390 . S
C449 C448 1.387 . S
C449 C451 1.387 . S
H450 C457 0.950 . S
C451 C449 1.387 . S
C451 C453 1.390 . S
C451 H455 0.950 . S
H452 C448 0.950 . S
C453 C451 1.390 . S
C453 C454 1.387 . S
C453 H456 0.950 . S
C454 C453 1.387 . S
C454 C457 1.387 . S
H455 C451 0.950 . S
H456 C453 0.950 . S
C457 C448 1.390 . S
C457 H450 0.950 . S
C457 C454 1.387 . S
C458 C459 1.387 . S
C458 H462 0.950 . S
C458 C467 1.390 . S
C459 C458 1.387 . S
C459 C461 1.387 . S
H460 C467 0.950 . S
C461 C459 1.387 . S
C461 C463 1.390 . S
C461 H465 0.950 . S
H462 C458 0.950 . S
C463 C461 1.390 . S
C463 C464 1.387 . S
C463 H466 0.950 . S
C464 C463 1.387 . S
C464 C467 1.387 . S
H465 C461 0.950 . S
H466 C463 0.950 . S
C467 C458 1.390 . S
C467 H460 0.950 . S
C467 C464 1.387 . S
C468 C469 1.387 . S
C468 H472 0.950 . S
C468 C477 1.390 . S
C469 C468 1.387 . S
C469 C471 1.387 1_655 S
H470 C477 0.950 . S
C471 C469 1.387 1_455 S
C471 C473 1.390 . S
C471 H475 0.950 . S
H472 C468 0.950 . S
C473 C471 1.390 . S
C473 C474 1.387 . S
C473 H476 0.950 . S
C474 C473 1.387 . S
C474 C477 1.387 1_455 S
H475 C471 0.950 . S
H476 C473 0.950 . S
C477 C468 1.390 . S
C477 H470 0.950 . S
C477 C474 1.387 1_655 S
C478 C479 1.387 . S
C478 H482 0.950 . S
C478 C487 1.390 1_455 S
C479 C478 1.387 . S
C479 C481 1.387 . S
H480 C487 0.950 . S
C481 C479 1.387 . S
C481 C483 1.390 . S
C481 H485 0.950 . S
H482 C478 0.950 . S
C483 C481 1.390 . S
C483 C484 1.387 1_455 S
C483 H486 0.950 . S
C484 C483 1.387 1_655 S
C484 C487 1.387 . S
H485 C481 0.950 . S
H486 C483 0.950 . S
C487 C478 1.390 1_655 S
C487 H480 0.950 . S
C487 C484 1.387 . S
C488 C489 1.387 . S
C488 H492 0.950 . S
C488 C497 1.390 . S
C489 C488 1.387 . S
C489 C491 1.387 . S
H490 C497 0.950 . S
C491 C489 1.387 . S
C491 C493 1.390 . S
C491 H495 0.950 . S
H492 C488 0.950 . S
C493 C491 1.390 . S
C493 C494 1.387 . S
C493 H496 0.950 . S
C494 C493 1.387 . S
C494 C497 1.387 . S
H495 C491 0.950 . S
H496 C493 0.950 . S
C497 C488 1.390 . S
C497 H490 0.950 . S
C497 C494 1.387 . S
C498 C499 1.387 . S
C498 H502 0.950 . S
C498 C507 1.390 . S
C499 C498 1.387 . S
C499 C501 1.387 . S
H500 C507 0.950 . S
C501 C499 1.387 . S
C501 C503 1.390 . S
C501 H505 0.950 . S
H502 C498 0.950 . S
C503 C501 1.390 . S
C503 C504 1.387 . S
C503 H506 0.950 . S
C504 C503 1.387 . S
C504 C507 1.387 . S
H505 C501 0.950 . S
H506 C503 0.950 . S
C507 C498 1.390 . S
C507 H500 0.950 . S
C507 C504 1.387 . S
C508 C509 1.387 . S
C508 H512 0.950 . S
C508 C517 1.390 . S
C509 C508 1.387 . S
C509 C511 1.387 . S
H510 C517 0.950 . S
C511 C509 1.387 . S
C511 C513 1.390 . S
C511 H515 0.950 . S
H512 C508 0.950 . S
C513 C511 1.390 . S
C513 C514 1.387 . S
C513 H516 0.950 . S
C514 C513 1.387 . S
C514 C517 1.387 . S
H515 C511 0.950 . S
H516 C513 0.950 . S
C517 C508 1.390 . S
C517 H510 0.950 . S
C517 C514 1.387 . S
C518 C519 1.387 . S
C518 H522 0.950 . S
C518 C527 1.390 . S
C519 C518 1.387 . S
C519 C521 1.387 . S
H520 C527 0.950 . S
C521 C519 1.387 . S
C521 C523 1.390 . S
C521 H525 0.950 . S
H522 C518 0.950 . S
C523 C521 1.390 . S
C523 C524 1.387 . S
C523 H526 0.950 . S
C524 C523 1.387 . S
C524 C527 1.387 . S
H525 C521 0.950 . S
H526 C523 0.950 . S
C527 C518 1.390 . S
C527 H520 0.950 . S
C527 C524 1.387 . S
C209 C10 0.967 . S
C214 C57 0.966 . S
C219 C23 0.883 . S
C224 C75 0.883 . S
C229 C83 0.948 . S
C234 C31 0.948 . S
C239 C49 0.887 . S
C244 C96 0.883 . S
C249 C62 0.966 . S
C254 C5 0.952 . S
C259 C135 0.953 . S
C264 C109 0.952 . S
C269 C88 0.936 . S
C274 C36 0.937 . S
C279 C122 0.953 . S
C284 C146 0.925 . S
C289 C166 0.966 . S
C294 C187 0.965 . S
C299 C114 0.887 . S
C304 C140 0.887 . S
C309 C179 0.977 . S
C314 C200 0.976 . S
C319 C144 0.901 . S
C324 C127 0.895 . S
C329 C192 0.975 . S
C334 C161 0.955 . S
C339 C18 0.952 . S
C344 C70 0.952 . S
C349 C174 0.940 . S
C354 C205 0.952 . S
C359 C101 0.931 . S
C364 C44 0.923 . S
C369 C3 1.666 . S
C374 C92 1.664 . S
C379 C53 1.684 . S
C384 C16 1.648 1_545 S
C389 C68 1.661 1_545 S
C394 C27 1.684 . S
C399 C42 1.665 . S
C404 C79 1.701 . S
C409 C1 1.690 . S
C414 C153 1.690 1_545 S
C419 C105 1.671 . S
C424 C55 1.691 1_655 S
C429 C131 1.661 . S
C434 C29 1.669 . S
C439 C118 1.663 1_545 S
C444 C81 1.670 . S
C449 C159 1.652 . S
C454 C148 1.651 . S
C459 C183 1.683 . S
C464 C107 1.648 . S
C469 C133 1.636 . S
C474 C172 1.654 . S
C479 C196 1.677 . S
C484 C120 1.648 . S
C489 C94 1.654 . S
C494 C157 1.669 . S
C499 C185 1.693 . S
C504 C14 1.673 . S
C509 C66 1.682 . S
C514 C170 1.696 . S
C519 C198 1.717 . S
C524 C40 1.685 . S
