# Generated by pormake.
# Topology wmy, (6)-cn, num edge types: 1
# Building blocks:
#     Node 0, Type 0, BuildingBlock: OJICUG_clean_sbu_0, # of connection points: 6
#     Node 1, Type 0, BuildingBlock: OJICUG_clean_sbu_0, # of connection points: 6
#     Node 2, Type 0, BuildingBlock: OJICUG_clean_sbu_0, # of connection points: 6
#     Node 3, Type 0, BuildingBlock: OJICUG_clean_sbu_0, # of connection points: 6
#     Node 4, Type 0, BuildingBlock: OJICUG_clean_sbu_0, # of connection points: 6
#     Node 5, Type 0, BuildingBlock: OJICUG_clean_sbu_0, # of connection points: 6
#     Node 6, Type 0, BuildingBlock: OJICUG_clean_sbu_0, # of connection points: 6
#     Node 7, Type 0, BuildingBlock: OJICUG_clean_sbu_0, # of connection points: 6
#     Node 8, Type 0, BuildingBlock: OJICUG_clean_sbu_0, # of connection points: 6
#     Node 9, Type 0, BuildingBlock: OJICUG_clean_sbu_0, # of connection points: 6
#     Node 10, Type 0, BuildingBlock: OJICUG_clean_sbu_0, # of connection points: 6
#     Node 11, Type 0, BuildingBlock: OJICUG_clean_sbu_0, # of connection points: 6
#     Node 12, Type 0, BuildingBlock: OJICUG_clean_sbu_0, # of connection points: 6
#     Node 13, Type 0, BuildingBlock: OJICUG_clean_sbu_0, # of connection points: 6
#     Node 14, Type 0, BuildingBlock: OJICUG_clean_sbu_0, # of connection points: 6
#     Node 15, Type 0, BuildingBlock: OJICUG_clean_sbu_0, # of connection points: 6
#     Node 16, Type 0, BuildingBlock: OJICUG_clean_sbu_0, # of connection points: 6
#     Node 17, Type 0, BuildingBlock: OJICUG_clean_sbu_0, # of connection points: 6
#     Node 18, Type 0, BuildingBlock: OJICUG_clean_sbu_0, # of connection points: 6
#     Node 19, Type 0, BuildingBlock: OJICUG_clean_sbu_0, # of connection points: 6
#     Node 20, Type 0, BuildingBlock: OJICUG_clean_sbu_0, # of connection points: 6
#     Node 21, Type 0, BuildingBlock: OJICUG_clean_sbu_0, # of connection points: 6
#     Node 22, Type 0, BuildingBlock: OJICUG_clean_sbu_0, # of connection points: 6
#     Node 23, Type 0, BuildingBlock: OJICUG_clean_sbu_0, # of connection points: 6
#     Node 24, Type 0, BuildingBlock: OJICUG_clean_sbu_0, # of connection points: 6
#     Node 25, Type 0, BuildingBlock: OJICUG_clean_sbu_0, # of connection points: 6
#     Node 26, Type 0, BuildingBlock: OJICUG_clean_sbu_0, # of connection points: 6
#     Node 27, Type 0, BuildingBlock: OJICUG_clean_sbu_0, # of connection points: 6
#     Node 28, Type 0, BuildingBlock: OJICUG_clean_sbu_0, # of connection points: 6
#     Node 29, Type 0, BuildingBlock: OJICUG_clean_sbu_0, # of connection points: 6
#     Node 30, Type 0, BuildingBlock: OJICUG_clean_sbu_0, # of connection points: 6
#     Node 31, Type 0, BuildingBlock: OJICUG_clean_sbu_0, # of connection points: 6
#     Node 32, Type 0, BuildingBlock: OJICUG_clean_sbu_0, # of connection points: 6
#     Node 33, Type 0, BuildingBlock: OJICUG_clean_sbu_0, # of connection points: 6
#     Node 34, Type 0, BuildingBlock: OJICUG_clean_sbu_0, # of connection points: 6
#     Node 35, Type 0, BuildingBlock: OJICUG_clean_sbu_0, # of connection points: 6
#     Edge 36, Type (0, 0), BuildingBlock: AJUNOK_clean_linker_0, # of connection points: 2
#     Edge 37, Type (0, 0), BuildingBlock: AJUNOK_clean_linker_0, # of connection points: 2
#     Edge 38, Type (0, 0), BuildingBlock: AJUNOK_clean_linker_0, # of connection points: 2
#     Edge 39, Type (0, 0), BuildingBlock: AJUNOK_clean_linker_0, # of connection points: 2
#     Edge 40, Type (0, 0), BuildingBlock: AJUNOK_clean_linker_0, # of connection points: 2
#     Edge 41, Type (0, 0), BuildingBlock: AJUNOK_clean_linker_0, # of connection points: 2
#     Edge 42, Type (0, 0), BuildingBlock: AJUNOK_clean_linker_0, # of connection points: 2
#     Edge 43, Type (0, 0), BuildingBlock: AJUNOK_clean_linker_0, # of connection points: 2
#     Edge 44, Type (0, 0), BuildingBlock: AJUNOK_clean_linker_0, # of connection points: 2
#     Edge 45, Type (0, 0), BuildingBlock: AJUNOK_clean_linker_0, # of connection points: 2
#     Edge 46, Type (0, 0), BuildingBlock: AJUNOK_clean_linker_0, # of connection points: 2
#     Edge 47, Type (0, 0), BuildingBlock: AJUNOK_clean_linker_0, # of connection points: 2
#     Edge 48, Type (0, 0), BuildingBlock: AJUNOK_clean_linker_0, # of connection points: 2
#     Edge 49, Type (0, 0), BuildingBlock: AJUNOK_clean_linker_0, # of connection points: 2
#     Edge 50, Type (0, 0), BuildingBlock: AJUNOK_clean_linker_0, # of connection points: 2
#     Edge 51, Type (0, 0), BuildingBlock: AJUNOK_clean_linker_0, # of connection points: 2
#     Edge 52, Type (0, 0), BuildingBlock: AJUNOK_clean_linker_0, # of connection points: 2
#     Edge 53, Type (0, 0), BuildingBlock: AJUNOK_clean_linker_0, # of connection points: 2
#     Edge 54, Type (0, 0), BuildingBlock: AJUNOK_clean_linker_0, # of connection points: 2
#     Edge 55, Type (0, 0), BuildingBlock: AJUNOK_clean_linker_0, # of connection points: 2
#     Edge 56, Type (0, 0), BuildingBlock: AJUNOK_clean_linker_0, # of connection points: 2
#     Edge 57, Type (0, 0), BuildingBlock: AJUNOK_clean_linker_0, # of connection points: 2
#     Edge 58, Type (0, 0), BuildingBlock: AJUNOK_clean_linker_0, # of connection points: 2
#     Edge 59, Type (0, 0), BuildingBlock: AJUNOK_clean_linker_0, # of connection points: 2
#     Edge 60, Type (0, 0), BuildingBlock: AJUNOK_clean_linker_0, # of connection points: 2
#     Edge 61, Type (0, 0), BuildingBlock: AJUNOK_clean_linker_0, # of connection points: 2
#     Edge 62, Type (0, 0), BuildingBlock: AJUNOK_clean_linker_0, # of connection points: 2
#     Edge 63, Type (0, 0), BuildingBlock: AJUNOK_clean_linker_0, # of connection points: 2
#     Edge 64, Type (0, 0), BuildingBlock: AJUNOK_clean_linker_0, # of connection points: 2
#     Edge 65, Type (0, 0), BuildingBlock: AJUNOK_clean_linker_0, # of connection points: 2
#     Edge 66, Type (0, 0), BuildingBlock: AJUNOK_clean_linker_0, # of connection points: 2
#     Edge 67, Type (0, 0), BuildingBlock: AJUNOK_clean_linker_0, # of connection points: 2
#     Edge 68, Type (0, 0), BuildingBlock: AJUNOK_clean_linker_0, # of connection points: 2
#     Edge 69, Type (0, 0), BuildingBlock: AJUNOK_clean_linker_0, # of connection points: 2
#     Edge 70, Type (0, 0), BuildingBlock: AJUNOK_clean_linker_0, # of connection points: 2
#     Edge 71, Type (0, 0), BuildingBlock: AJUNOK_clean_linker_0, # of connection points: 2
#     Edge 72, Type (0, 0), BuildingBlock: AJUNOK_clean_linker_0, # of connection points: 2
#     Edge 73, Type (0, 0), BuildingBlock: AJUNOK_clean_linker_0, # of connection points: 2
#     Edge 74, Type (0, 0), BuildingBlock: AJUNOK_clean_linker_0, # of connection points: 2
#     Edge 75, Type (0, 0), BuildingBlock: AJUNOK_clean_linker_0, # of connection points: 2
#     Edge 76, Type (0, 0), BuildingBlock: AJUNOK_clean_linker_0, # of connection points: 2
#     Edge 77, Type (0, 0), BuildingBlock: AJUNOK_clean_linker_0, # of connection points: 2
#     Edge 78, Type (0, 0), BuildingBlock: AJUNOK_clean_linker_0, # of connection points: 2
#     Edge 79, Type (0, 0), BuildingBlock: AJUNOK_clean_linker_0, # of connection points: 2
#     Edge 80, Type (0, 0), BuildingBlock: AJUNOK_clean_linker_0, # of connection points: 2
#     Edge 81, Type (0, 0), BuildingBlock: AJUNOK_clean_linker_0, # of connection points: 2
#     Edge 82, Type (0, 0), BuildingBlock: AJUNOK_clean_linker_0, # of connection points: 2
#     Edge 83, Type (0, 0), BuildingBlock: AJUNOK_clean_linker_0, # of connection points: 2
#     Edge 84, Type (0, 0), BuildingBlock: AJUNOK_clean_linker_0, # of connection points: 2
#     Edge 85, Type (0, 0), BuildingBlock: AJUNOK_clean_linker_0, # of connection points: 2
#     Edge 86, Type (0, 0), BuildingBlock: AJUNOK_clean_linker_0, # of connection points: 2
#     Edge 87, Type (0, 0), BuildingBlock: AJUNOK_clean_linker_0, # of connection points: 2
#     Edge 88, Type (0, 0), BuildingBlock: AJUNOK_clean_linker_0, # of connection points: 2
#     Edge 89, Type (0, 0), BuildingBlock: AJUNOK_clean_linker_0, # of connection points: 2
#     Edge 90, Type (0, 0), BuildingBlock: AJUNOK_clean_linker_0, # of connection points: 2
#     Edge 91, Type (0, 0), BuildingBlock: AJUNOK_clean_linker_0, # of connection points: 2
#     Edge 92, Type (0, 0), BuildingBlock: AJUNOK_clean_linker_0, # of connection points: 2
#     Edge 93, Type (0, 0), BuildingBlock: AJUNOK_clean_linker_0, # of connection points: 2
#     Edge 94, Type (0, 0), BuildingBlock: AJUNOK_clean_linker_0, # of connection points: 2
#     Edge 95, Type (0, 0), BuildingBlock: AJUNOK_clean_linker_0, # of connection points: 2
#     Edge 96, Type (0, 0), BuildingBlock: AJUNOK_clean_linker_0, # of connection points: 2
#     Edge 97, Type (0, 0), BuildingBlock: AJUNOK_clean_linker_0, # of connection points: 2
#     Edge 98, Type (0, 0), BuildingBlock: AJUNOK_clean_linker_0, # of connection points: 2
#     Edge 99, Type (0, 0), BuildingBlock: AJUNOK_clean_linker_0, # of connection points: 2
#     Edge 100, Type (0, 0), BuildingBlock: AJUNOK_clean_linker_0, # of connection points: 2
#     Edge 101, Type (0, 0), BuildingBlock: AJUNOK_clean_linker_0, # of connection points: 2
#     Edge 102, Type (0, 0), BuildingBlock: AJUNOK_clean_linker_0, # of connection points: 2
#     Edge 103, Type (0, 0), BuildingBlock: AJUNOK_clean_linker_0, # of connection points: 2
#     Edge 104, Type (0, 0), BuildingBlock: AJUNOK_clean_linker_0, # of connection points: 2
#     Edge 105, Type (0, 0), BuildingBlock: AJUNOK_clean_linker_0, # of connection points: 2
#     Edge 106, Type (0, 0), BuildingBlock: AJUNOK_clean_linker_0, # of connection points: 2
#     Edge 107, Type (0, 0), BuildingBlock: AJUNOK_clean_linker_0, # of connection points: 2
#     Edge 108, Type (0, 0), BuildingBlock: AJUNOK_clean_linker_0, # of connection points: 2
#     Edge 109, Type (0, 0), BuildingBlock: AJUNOK_clean_linker_0, # of connection points: 2
#     Edge 110, Type (0, 0), BuildingBlock: AJUNOK_clean_linker_0, # of connection points: 2
#     Edge 111, Type (0, 0), BuildingBlock: AJUNOK_clean_linker_0, # of connection points: 2
#     Edge 112, Type (0, 0), BuildingBlock: AJUNOK_clean_linker_0, # of connection points: 2
#     Edge 113, Type (0, 0), BuildingBlock: AJUNOK_clean_linker_0, # of connection points: 2
#     Edge 114, Type (0, 0), BuildingBlock: AJUNOK_clean_linker_0, # of connection points: 2
#     Edge 115, Type (0, 0), BuildingBlock: AJUNOK_clean_linker_0, # of connection points: 2
#     Edge 116, Type (0, 0), BuildingBlock: AJUNOK_clean_linker_0, # of connection points: 2
#     Edge 117, Type (0, 0), BuildingBlock: AJUNOK_clean_linker_0, # of connection points: 2
#     Edge 118, Type (0, 0), BuildingBlock: AJUNOK_clean_linker_0, # of connection points: 2
#     Edge 119, Type (0, 0), BuildingBlock: AJUNOK_clean_linker_0, # of connection points: 2
#     Edge 120, Type (0, 0), BuildingBlock: AJUNOK_clean_linker_0, # of connection points: 2
#     Edge 121, Type (0, 0), BuildingBlock: AJUNOK_clean_linker_0, # of connection points: 2
#     Edge 122, Type (0, 0), BuildingBlock: AJUNOK_clean_linker_0, # of connection points: 2
#     Edge 123, Type (0, 0), BuildingBlock: AJUNOK_clean_linker_0, # of connection points: 2
#     Edge 124, Type (0, 0), BuildingBlock: AJUNOK_clean_linker_0, # of connection points: 2
#     Edge 125, Type (0, 0), BuildingBlock: AJUNOK_clean_linker_0, # of connection points: 2
#     Edge 126, Type (0, 0), BuildingBlock: AJUNOK_clean_linker_0, # of connection points: 2
#     Edge 127, Type (0, 0), BuildingBlock: AJUNOK_clean_linker_0, # of connection points: 2
#     Edge 128, Type (0, 0), BuildingBlock: AJUNOK_clean_linker_0, # of connection points: 2
#     Edge 129, Type (0, 0), BuildingBlock: AJUNOK_clean_linker_0, # of connection points: 2
#     Edge 130, Type (0, 0), BuildingBlock: AJUNOK_clean_linker_0, # of connection points: 2
#     Edge 131, Type (0, 0), BuildingBlock: AJUNOK_clean_linker_0, # of connection points: 2
#     Edge 132, Type (0, 0), BuildingBlock: AJUNOK_clean_linker_0, # of connection points: 2
#     Edge 133, Type (0, 0), BuildingBlock: AJUNOK_clean_linker_0, # of connection points: 2
#     Edge 134, Type (0, 0), BuildingBlock: AJUNOK_clean_linker_0, # of connection points: 2
#     Edge 135, Type (0, 0), BuildingBlock: AJUNOK_clean_linker_0, # of connection points: 2
#     Edge 136, Type (0, 0), BuildingBlock: AJUNOK_clean_linker_0, # of connection points: 2
#     Edge 137, Type (0, 0), BuildingBlock: AJUNOK_clean_linker_0, # of connection points: 2
#     Edge 138, Type (0, 0), BuildingBlock: AJUNOK_clean_linker_0, # of connection points: 2
#     Edge 139, Type (0, 0), BuildingBlock: AJUNOK_clean_linker_0, # of connection points: 2
#     Edge 140, Type (0, 0), BuildingBlock: AJUNOK_clean_linker_0, # of connection points: 2
#     Edge 141, Type (0, 0), BuildingBlock: AJUNOK_clean_linker_0, # of connection points: 2
#     Edge 142, Type (0, 0), BuildingBlock: AJUNOK_clean_linker_0, # of connection points: 2
#     Edge 143, Type (0, 0), BuildingBlock: AJUNOK_clean_linker_0, # of connection points: 2
# Relax obj value: 0.454
# Max RMSD: 0.185
# Mean RMSD: 0.185
data_MOF--net-wmy--node1-OJICUG_clean_sbu_0--edge1-AJUNOK_clean_linker_0
_symmetry_space_group_name_H-M    P1
_symmetry_Int_Tables_number       1
_symmetry_cell_setting            triclinic
loop_
_symmetry_equiv_pos_as_xyz
'x, y, z'
_cell_length_a     40.892891
_cell_length_b     40.896353
_cell_length_c     43.671508
_cell_angle_alpha  90.018902
_cell_angle_beta   89.990235
_cell_angle_gamma 119.99763
loop_
_atom_site_label
_atom_site_type_symbol
_atom_site_fract_x
_atom_site_fract_y
_atom_site_fract_z
_atom_type_partial_charge
Sc0 Sc 0.01119 0.12899 0.08359 0.0
Sc1 Sc 0.06149 0.21675 0.1187 0.0
Sc2 Sc 0.96121 0.17127 0.11221 0.0
O3 O 0.01119 0.17248 0.10486 0.0
C4 C 0.95193 0.14006 0.04418 0.0
C5 C 0.08404 0.19964 0.05459 0.0
C6 C 0.0162 0.25796 0.09754 0.0
C7 C 0.07495 0.14731 0.13166 0.0
C8 C 0.93695 0.08542 0.12448 0.0
C9 C 0.00701 0.20248 0.17525 0.0
O10 O 0.9775 0.13126 0.0471 0.0
O11 O 0.08669 0.22452 0.07355 0.0
O12 O 0.98383 0.22854 0.09575 0.0
O13 O 0.04494 0.12342 0.11818 0.0
O14 O 0.9319 0.11329 0.12921 0.0
O15 O 0.03943 0.21168 0.16434 0.0
O16 O 0.96328 0.08762 0.10781 0.0
O17 O 0.08622 0.18247 0.13191 0.0
O18 O 0.97728 0.18977 0.15888 0.0
O19 O 0.06002 0.16481 0.05707 0.0
O20 O 0.94079 0.1526 0.06608 0.0
O21 O 0.04539 0.2577 0.107 0.0
Sc22 Sc 0.86864 0.87901 0.07935 0.0
Sc23 Sc 0.78304 0.84524 0.1182 0.0
Sc24 Sc 0.8269 0.78881 0.11209 0.0
O25 O 0.82609 0.83761 0.10331 0.0
C26 C 0.85577 0.80572 0.04321 0.0
C27 C 0.79755 0.88127 0.05193 0.0
C28 C 0.74047 0.75841 0.09753 0.0
C29 C 0.85391 0.92811 0.12763 0.0
C30 C 0.91282 0.8509 0.12234 0.0
C31 C 0.7974 0.80523 0.17519 0.0
O32 O 0.86472 0.84024 0.04449 0.0
O33 O 0.7744 0.8631 0.07338 0.0
O34 O 0.76938 0.75452 0.09658 0.0
O35 O 0.87592 0.9218 0.11138 0.0
O36 O 0.88509 0.81827 0.12823 0.0
O37 O 0.78809 0.82828 0.1641 0.0
O38 O 0.9105 0.87398 0.1044 0.0
O39 O 0.81914 0.90396 0.13131 0.0
O40 O 0.80969 0.78803 0.15873 0.0
O41 O 0.83185 0.88968 0.05214 0.0
O42 O 0.844 0.78381 0.06622 0.0
O43 O 0.74128 0.78843 0.10626 0.0
Sc44 Sc 0.11752 0.99278 0.08102 0.0
Sc45 Sc 0.15178 0.94 0.11725 0.0
Sc46 Sc 0.2097 0.03999 0.11039 0.0
O47 O 0.15982 0.99094 0.1029 0.0
C48 C 0.18939 0.05116 0.04221 0.0
C49 C 0.11246 0.91843 0.05245 0.0
C50 C 0.23793 0.9824 0.09517 0.0
C51 C 0.0698 0.92911 0.12931 0.0
C52 C 0.14988 0.06631 0.12314 0.0
C53 C 0.19372 0.99448 0.17382 0.0
O54 O 0.15464 0.02667 0.04499 0.0
O55 O 0.13241 0.91387 0.07254 0.0
O56 O 0.24266 0.01551 0.09421 0.0
O57 O 0.07627 0.95843 0.11446 0.0
O58 O 0.18257 0.0706 0.12738 0.0
O59 O 0.17005 0.96219 0.16291 0.0
O60 O 0.12515 0.04055 0.10636 0.0
O61 O 0.09356 0.91781 0.13122 0.0
O62 O 0.21134 0.02383 0.15717 0.0
O63 O 0.10401 0.9443 0.05381 0.0
O64 O 0.21289 0.06105 0.06418 0.0
O65 O 0.20779 0.95377 0.10435 0.0
Sc66 Sc 0.12975 0.00972 0.40346 0.0
Sc67 Sc 0.21479 0.06306 0.36412 0.0
Sc68 Sc 0.17307 0.96296 0.37013 0.0
O69 O 0.17258 0.01189 0.37909 0.0
C70 C 0.14399 0.94993 0.43914 0.0
C71 C 0.20088 0.08303 0.431 0.0
C72 C 0.25961 0.02089 0.38415 0.0
C73 C 0.14284 0.07367 0.35585 0.0
C74 C 0.08629 0.93708 0.36066 0.0
C75 C 0.20093 0.00936 0.30689 0.0
O76 O 0.134 0.9747 0.43775 0.0
O77 O 0.22354 0.08892 0.40898 0.0
O78 O 0.23113 0.98775 0.38525 0.0
O79 O 0.12149 0.04519 0.37217 0.0
O80 O 0.11444 0.93282 0.35479 0.0
O81 O 0.20962 0.04137 0.31832 0.0
O82 O 0.08815 0.96265 0.37819 0.0
O83 O 0.17765 0.0848 0.35167 0.0
O84 O 0.18925 0.97957 0.32299 0.0
O85 O 0.16665 0.0569 0.43109 0.0
O86 O 0.15687 0.9407 0.41626 0.0
O87 O 0.25787 0.04955 0.37531 0.0
Sc88 Sc 0.98251 0.11558 0.39934 0.0
Sc89 Sc 0.93398 0.15426 0.36349 0.0
Sc90 Sc 0.03353 0.20785 0.3714 0.0
O91 O 0.98354 0.15942 0.37802 0.0
C92 C 0.04245 0.18484 0.43925 0.0
C93 C 0.91072 0.11628 0.42763 0.0
C94 C 0.97933 0.24031 0.38517 0.0
C95 C 0.9188 0.07048 0.35182 0.0
C96 C 0.05736 0.14605 0.35903 0.0
C97 C 0.98884 0.19344 0.30762 0.0
O98 O 0.0156 0.15094 0.43657 0.0
O99 O 0.90981 0.13974 0.40899 0.0
O100 O 0.01081 0.2418 0.3893 0.0
O101 O 0.94956 0.0768 0.36397 0.0
O102 O 0.06215 0.17879 0.35367 0.0
O103 O 0.95645 0.16888 0.31779 0.0
O104 O 0.03117 0.1222 0.37602 0.0
O105 O 0.90753 0.09436 0.35249 0.0
O106 O 0.01758 0.21169 0.32488 0.0
O107 O 0.93292 0.10318 0.42482 0.0
O108 O 0.05407 0.20829 0.41719 0.0
O109 O 0.95109 0.21226 0.37295 0.0
Sc110 Sc 0.88095 0.87454 0.39871 0.0
Sc111 Sc 0.8469 0.78644 0.36494 0.0
Sc112 Sc 0.78816 0.82735 0.37079 0.0
O113 O 0.83847 0.8294 0.37807 0.0
C114 C 0.80954 0.86032 0.43843 0.0
C115 C 0.88667 0.80612 0.42873 0.0
C116 C 0.76067 0.74172 0.38651 0.0
C117 C 0.92878 0.85816 0.35196 0.0
C118 C 0.84579 0.91404 0.35771 0.0
C119 C 0.80524 0.79765 0.30794 0.0
O120 O 0.84433 0.87061 0.4355 0.0
O121 O 0.86437 0.78032 0.41045 0.0
O122 O 0.75635 0.77032 0.38829 0.0
O123 O 0.92101 0.88177 0.36389 0.0
O124 O 0.81376 0.88478 0.35325 0.0
O125 O 0.82982 0.79042 0.31902 0.0
O126 O 0.87126 0.91404 0.3742 0.0
O127 O 0.90596 0.82274 0.35263 0.0
O128 O 0.78655 0.80859 0.3242 0.0
O129 O 0.8967 0.84072 0.42543 0.0
O130 O 0.78577 0.84628 0.41667 0.0
O131 O 0.79045 0.74326 0.37636 0.0
Sc132 Sc 0.03028 0.82309 0.8721 0.0
Sc133 Sc 0.931 0.77887 0.86275 0.0
Sc134 Sc 0.97997 0.86458 0.90095 0.0
O135 O 0.98054 0.82212 0.87859 0.0
C136 C 0.03851 0.85324 0.94067 0.0
C137 C 0.97482 0.7366 0.88452 0.0
C138 C 0.90666 0.79224 0.92735 0.0
C139 C 0.98707 0.795 0.8075 0.0
C140 C 0.05464 0.90867 0.86082 0.0
C141 C 0.91824 0.8491 0.85207 0.0
O142 O 0.05067 0.84242 0.91825 0.0
O143 O 0.947 0.73713 0.87217 0.0
O144 O 0.92987 0.8274 0.9256 0.0
O145 O 0.01515 0.80428 0.82524 0.0
O146 O 0.02916 0.90664 0.87849 0.0
O147 O 0.90636 0.81382 0.85143 0.0
O148 O 0.05905 0.88068 0.85477 0.0
O149 O 0.95461 0.78746 0.81727 0.0
O150 O 0.94833 0.87235 0.86575 0.0
O151 O 0.00649 0.76614 0.88924 0.0
O152 O 0.01184 0.8605 0.93814 0.0
O153 O 0.90518 0.7683 0.9079 0.0
Sc154 Sc 0.17195 0.20877 0.87196 0.0
Sc155 Sc 0.20775 0.14794 0.86105 0.0
Sc156 Sc 0.12507 0.11693 0.9008 0.0
O157 O 0.16775 0.15784 0.87784 0.0
C158 C 0.14158 0.18851 0.94034 0.0
C159 C 0.25548 0.23058 0.88282 0.0
C160 C 0.19728 0.11469 0.92631 0.0
C161 C 0.19355 0.18752 0.80687 0.0
C162 C 0.08483 0.15216 0.86077 0.0
C163 C 0.13604 0.06637 0.85433 0.0
O164 O 0.1523 0.21107 0.91767 0.0
O165 O 0.24986 0.20648 0.86239 0.0
O166 O 0.16184 0.10173 0.92415 0.0
O167 O 0.19161 0.21104 0.8251 0.0
O168 O 0.085 0.12816 0.87911 0.0
O169 O 0.17162 0.08752 0.85543 0.0
O170 O 0.11443 0.18323 0.85381 0.0
O171 O 0.19424 0.15825 0.81609 0.0
O172 O 0.1138 0.07659 0.86517 0.0
O173 O 0.2289 0.23606 0.89147 0.0
O174 O 0.13305 0.15417 0.93809 0.0
O175 O 0.2212 0.13771 0.907 0.0
Sc176 Sc 0.78797 0.96135 0.87001 0.0
Sc177 Sc 0.8448 0.06142 0.86533 0.0
Sc178 Sc 0.88017 0.00853 0.89914 0.0
O179 O 0.83746 0.01031 0.87809 0.0
C180 C 0.80848 0.94945 0.93777 0.0
C181 C 0.75813 0.01732 0.88592 0.0
C182 C 0.88335 0.08117 0.92973 0.0
C183 C 0.80494 0.00903 0.80774 0.0
C184 C 0.84759 0.93497 0.857 0.0
C185 C 0.92779 0.07416 0.85306 0.0
O186 O 0.78511 0.93948 0.9157 0.0
O187 O 0.78778 0.04633 0.87651 0.0
O188 O 0.89389 0.05698 0.92657 0.0
O189 O 0.78668 0.97901 0.8236 0.0
O190 O 0.87241 0.96058 0.87383 0.0
O191 O 0.90411 0.08571 0.85311 0.0
O192 O 0.81516 0.93116 0.8525 0.0
O193 O 0.82865 0.04089 0.81925 0.0
O194 O 0.92072 0.04309 0.86522 0.0
O195 O 0.75462 0.98475 0.88727 0.0
O196 O 0.84318 0.97437 0.93526 0.0
O197 O 0.86146 0.08473 0.91103 0.0
Sc198 Sc 0.82912 0.04041 0.61192 0.0
Sc199 Sc 0.78673 0.94077 0.61844 0.0
Sc200 Sc 0.87212 0.99294 0.5801 0.0
O201 O 0.82926 0.99142 0.60361 0.0
C202 C 0.85809 0.05143 0.54311 0.0
C203 C 0.74327 0.98403 0.59778 0.0
C204 C 0.80136 0.91849 0.55329 0.0
C205 C 0.80012 0.99448 0.67507 0.0
C206 C 0.91518 0.06652 0.62192 0.0
C207 C 0.85894 0.93082 0.62839 0.0
O208 O 0.84793 0.0628 0.56639 0.0
O209 O 0.74425 0.95561 0.60838 0.0
O210 O 0.83611 0.94313 0.55465 0.0
O211 O 0.81021 0.02343 0.65829 0.0
O212 O 0.91371 0.04219 0.60317 0.0
O213 O 0.82352 0.91819 0.62986 0.0
O214 O 0.88661 0.06939 0.62923 0.0
O215 O 0.79311 0.9626 0.66435 0.0
O216 O 0.8813 0.96074 0.61399 0.0
O217 O 0.77225 0.01653 0.59495 0.0
O218 O 0.86575 0.02493 0.54413 0.0
O219 O 0.7773 0.91544 0.57324 0.0
Sc220 Sc 0.9645 0.79362 0.61123 0.0
Sc221 Sc 0.06448 0.84682 0.61907 0.0
Sc222 Sc 0.01633 0.8857 0.58253 0.0
O223 O 0.01498 0.84184 0.60434 0.0
C224 C 0.95679 0.81598 0.54279 0.0
C225 C 0.01839 0.76062 0.59741 0.0
C226 C 0.08845 0.88531 0.55454 0.0
C227 C 0.00886 0.80739 0.6751 0.0
C228 C 0.9419 0.85638 0.62308 0.0
C229 C 0.07935 0.93041 0.63121 0.0
O230 O 0.94478 0.7925 0.56486 0.0
O231 O 0.04749 0.78939 0.60786 0.0
O232 O 0.06541 0.89744 0.55659 0.0
O233 O 0.97958 0.79038 0.6582 0.0
O234 O 0.96828 0.8801 0.60619 0.0
O235 O 0.09006 0.90609 0.63181 0.0
O236 O 0.93628 0.8233 0.62804 0.0
O237 O 0.04153 0.83063 0.66461 0.0
O238 O 0.04982 0.92489 0.61729 0.0
O239 O 0.98649 0.75855 0.59472 0.0
O240 O 0.98296 0.85008 0.54576 0.0
O241 O 0.09013 0.863 0.57397 0.0
Sc242 Sc 0.21193 0.17247 0.61322 0.0
Sc243 Sc 0.15491 0.21548 0.61622 0.0
Sc244 Sc 0.12001 0.12683 0.58371 0.0
O245 O 0.16254 0.17169 0.6044 0.0
C246 C 0.1918 0.13968 0.54557 0.0
C247 C 0.24169 0.25788 0.59622 0.0
C248 C 0.11545 0.1953 0.55249 0.0
C249 C 0.1938 0.20355 0.67471 0.0
C250 C 0.15289 0.08654 0.6263 0.0
C251 C 0.07254 0.14495 0.62911 0.0
O252 O 0.21476 0.15246 0.56795 0.0
O253 O 0.21198 0.2573 0.60537 0.0
O254 O 0.10478 0.16067 0.55657 0.0
O255 O 0.21275 0.19226 0.65922 0.0
O256 O 0.12856 0.08696 0.60866 0.0
O257 O 0.09571 0.18024 0.6279 0.0
O258 O 0.18481 0.1155 0.63159 0.0
O259 O 0.17019 0.21146 0.66268 0.0
O260 O 0.08007 0.12068 0.6182 0.0
O261 O 0.24535 0.22889 0.59532 0.0
O262 O 0.15718 0.13043 0.54751 0.0
O263 O 0.13861 0.22142 0.57015 0.0
Sc264 Sc 0.67677 0.46691 0.41555 0.0
Sc265 Sc 0.72977 0.54945 0.45828 0.0
Sc266 Sc 0.63016 0.50891 0.45099 0.0
O267 O 0.67891 0.50847 0.44168 0.0
C268 C 0.61648 0.48153 0.38157 0.0
C269 C 0.7509 0.53936 0.39063 0.0
C270 C 0.68851 0.59572 0.43967 0.0
C271 C 0.73941 0.47683 0.4635 0.0
C272 C 0.60419 0.42186 0.45825 0.0
C273 C 0.67527 0.53386 0.51487 0.0
O274 O 0.64205 0.47261 0.38165 0.0
O275 O 0.75666 0.56062 0.41368 0.0
O276 O 0.65548 0.56736 0.43662 0.0
O277 O 0.71158 0.45677 0.44614 0.0
O278 O 0.60036 0.44996 0.46556 0.0
O279 O 0.70727 0.54161 0.50402 0.0
O280 O 0.6293 0.42424 0.43986 0.0
O281 O 0.75082 0.51141 0.46901 0.0
O282 O 0.64648 0.52438 0.49807 0.0
O283 O 0.7244 0.50534 0.38908 0.0
O284 O 0.60722 0.49306 0.40524 0.0
O285 O 0.71652 0.59327 0.44932 0.0
Sc286 Sc 0.53463 0.21347 0.41869 0.0
Sc287 Sc 0.45037 0.18046 0.45887 0.0
Sc288 Sc 0.49168 0.12266 0.44988 0.0
O289 O 0.49224 0.17211 0.44258 0.0
C290 C 0.52 0.14108 0.38077 0.0
C291 C 0.46254 0.21627 0.39367 0.0
C292 C 0.40516 0.09376 0.43837 0.0
C293 C 0.52238 0.26345 0.4664 0.0
C294 C 0.57853 0.1824 0.45906 0.0
C295 C 0.46547 0.14024 0.51439 0.0
O296 O 0.52826 0.17539 0.38234 0.0
O297 O 0.43915 0.19549 0.41409 0.0
O298 O 0.43401 0.09036 0.43364 0.0
O299 O 0.54467 0.25542 0.45245 0.0
O300 O 0.54998 0.15068 0.46604 0.0
O301 O 0.45905 0.16581 0.50437 0.0
O302 O 0.57668 0.20585 0.44119 0.0
O303 O 0.48718 0.24019 0.46888 0.0
O304 O 0.47405 0.12071 0.49688 0.0
O305 O 0.49739 0.2265 0.39414 0.0
O306 O 0.5094 0.11915 0.40381 0.0
O307 O 0.40702 0.12297 0.4503 0.0
Sc308 Sc 0.78705 0.32009 0.41691 0.0
Sc309 Sc 0.82007 0.26911 0.4582 0.0
Sc310 Sc 0.8761 0.36936 0.4516 0.0
O311 O 0.82778 0.31951 0.44237 0.0
C312 C 0.86077 0.38205 0.38243 0.0
C313 C 0.78759 0.24748 0.39102 0.0
C314 C 0.90739 0.31337 0.43888 0.0
C315 C 0.73637 0.25597 0.46456 0.0
C316 C 0.8128 0.39221 0.45978 0.0
C317 C 0.85867 0.32383 0.51486 0.0
O318 O 0.82647 0.35599 0.38295 0.0
O319 O 0.80388 0.24222 0.41371 0.0
O320 O 0.911 0.34607 0.43704 0.0
O321 O 0.74292 0.28373 0.44755 0.0
O322 O 0.84551 0.39762 0.46634 0.0
O323 O 0.83577 0.29147 0.50381 0.0
O324 O 0.79028 0.36648 0.44173 0.0
O325 O 0.76081 0.2461 0.46993 0.0
O326 O 0.87612 0.35348 0.49863 0.0
O327 O 0.77915 0.27334 0.38988 0.0
O328 O 0.88209 0.39175 0.40579 0.0
O329 O 0.87735 0.28431 0.44779 0.0
Sc330 Sc 0.79218 0.32936 0.74423 0.0
Sc331 Sc 0.87699 0.38755 0.70604 0.0
Sc332 Sc 0.83931 0.28769 0.70862 0.0
O333 O 0.83624 0.33494 0.7195 0.0
C334 C 0.81077 0.271 0.77723 0.0
C335 C 0.85877 0.40482 0.7729 0.0
C336 C 0.92407 0.34772 0.72608 0.0
C337 C 0.80274 0.39359 0.69743 0.0
C338 C 0.75206 0.25887 0.69896 0.0
C339 C 0.86778 0.33672 0.64735 0.0
O340 O 0.79885 0.29432 0.77724 0.0
O341 O 0.8819 0.41305 0.75081 0.0
O342 O 0.89733 0.31378 0.72374 0.0
O343 O 0.78245 0.36515 0.71424 0.0
O344 O 0.78107 0.2563 0.69261 0.0
O345 O 0.87605 0.36819 0.65968 0.0
O346 O 0.75252 0.28275 0.71766 0.0
O347 O 0.83755 0.40556 0.69233 0.0
O348 O 0.85542 0.30638 0.66254 0.0
O349 O 0.82609 0.37603 0.77312 0.0
O350 O 0.82388 0.26339 0.75371 0.0
O351 O 0.92078 0.37623 0.71966 0.0
Sc352 Sc 0.64846 0.44741 0.74531 0.0
Sc353 Sc 0.60127 0.48418 0.70349 0.0
Sc354 Sc 0.70177 0.53643 0.71129 0.0
O355 O 0.65049 0.48941 0.71988 0.0
C356 C 0.71136 0.5194 0.7808 0.0
C357 C 0.57642 0.44986 0.77013 0.0
C358 C 0.64841 0.57054 0.725 0.0
C359 C 0.58632 0.4004 0.69498 0.0
C360 C 0.72096 0.4706 0.70351 0.0
C361 C 0.65783 0.52258 0.64749 0.0
O362 O 0.6844 0.48555 0.77972 0.0
O363 O 0.57216 0.46634 0.7471 0.0
O364 O 0.68074 0.5732 0.72549 0.0
O365 O 0.61193 0.40503 0.71375 0.0
O366 O 0.72796 0.50384 0.69697 0.0
O367 O 0.62497 0.50152 0.65841 0.0
O368 O 0.69436 0.44869 0.72117 0.0
O369 O 0.57768 0.42567 0.68932 0.0
O370 O 0.68748 0.53779 0.66395 0.0
O371 O 0.60188 0.44093 0.77194 0.0
O372 O 0.72264 0.54104 0.75761 0.0
O373 O 0.61842 0.54115 0.71644 0.0
Sc374 Sc 0.55057 0.20214 0.73765 0.0
Sc375 Sc 0.51237 0.11386 0.70349 0.0
Sc376 Sc 0.45767 0.15916 0.71016 0.0
O377 O 0.50664 0.15831 0.71708 0.0
C378 C 0.48062 0.19126 0.77793 0.0
C379 C 0.55242 0.13145 0.76734 0.0
C380 C 0.4261 0.07289 0.72482 0.0
C381 C 0.59567 0.18269 0.69042 0.0
C382 C 0.51845 0.24474 0.69698 0.0
C383 C 0.47252 0.12843 0.64688 0.0
O384 O 0.51504 0.2003 0.77456 0.0
O385 O 0.52943 0.10635 0.74887 0.0
O386 O 0.42342 0.10236 0.72696 0.0
O387 O 0.58963 0.2073 0.70271 0.0
O388 O 0.48551 0.2167 0.69308 0.0
O389 O 0.49582 0.11928 0.65772 0.0
O390 O 0.54336 0.24319 0.71313 0.0
O391 O 0.57146 0.14766 0.69081 0.0
O392 O 0.4551 0.14063 0.66338 0.0
O393 O 0.56398 0.16643 0.76429 0.0
O394 O 0.4565 0.17798 0.75635 0.0
O395 O 0.45525 0.07294 0.71488 0.0
Sc396 Sc 0.70514 0.16057 0.20986 0.0
Sc397 Sc 0.60531 0.11865 0.20292 0.0
Sc398 Sc 0.6577 0.20188 0.24479 0.0
O399 O 0.656 0.16027 0.21912 0.0
C400 C 0.71769 0.18753 0.27921 0.0
C401 C 0.64803 0.07397 0.22192 0.0
C402 C 0.58285 0.13012 0.26971 0.0
C403 C 0.65991 0.13392 0.14631 0.0
C404 C 0.73065 0.24714 0.20254 0.0
C405 C 0.59544 0.19099 0.19641 0.0
O406 O 0.72786 0.17711 0.25544 0.0
O407 O 0.61947 0.07567 0.21261 0.0
O408 O 0.60921 0.1642 0.2707 0.0
O409 O 0.6888 0.14431 0.16314 0.0
O410 O 0.70577 0.24461 0.22122 0.0
O411 O 0.5839 0.15621 0.19174 0.0
O412 O 0.7343 0.21913 0.19476 0.0
O413 O 0.62774 0.1258 0.15705 0.0
O414 O 0.62364 0.21176 0.21321 0.0
O415 O 0.68088 0.10261 0.22455 0.0
O416 O 0.69148 0.19559 0.27924 0.0
O417 O 0.57797 0.10798 0.24747 0.0
Sc418 Sc 0.83966 0.54503 0.2096 0.0
Sc419 Sc 0.88301 0.48839 0.20472 0.0
Sc420 Sc 0.79824 0.45592 0.24416 0.0
O421 O 0.84035 0.49654 0.21942 0.0
C422 C 0.81139 0.52984 0.2787 0.0
C423 C 0.9261 0.57595 0.22291 0.0
C424 C 0.8703 0.45466 0.27111 0.0
C425 C 0.86777 0.52586 0.14705 0.0
C426 C 0.75348 0.48376 0.2013 0.0
C427 C 0.81178 0.4052 0.19751 0.0
O428 O 0.82192 0.5506 0.25498 0.0
O429 O 0.92517 0.54603 0.21373 0.0
O430 O 0.83561 0.44495 0.27069 0.0
O431 O 0.85711 0.54489 0.16304 0.0
O432 O 0.75575 0.46133 0.22007 0.0
O433 O 0.84678 0.42884 0.19441 0.0
O434 O 0.78158 0.5154 0.19371 0.0
O435 O 0.87579 0.50217 0.15864 0.0
O436 O 0.78945 0.41255 0.21221 0.0
O437 O 0.89703 0.57943 0.22518 0.0
O438 O 0.80367 0.49566 0.27868 0.0
O439 O 0.89341 0.47371 0.24996 0.0
Sc440 Sc 0.45701 0.2958 0.21138 0.0
Sc441 Sc 0.51225 0.39567 0.20344 0.0
Sc442 Sc 0.54632 0.34609 0.24511 0.0
O443 O 0.50513 0.34587 0.21991 0.0
C444 C 0.47315 0.2854 0.28079 0.0
C445 C 0.42502 0.35078 0.22271 0.0
C446 C 0.54551 0.41909 0.27018 0.0
C447 C 0.47482 0.33999 0.14734 0.0
C448 C 0.52007 0.27311 0.20317 0.0
C449 C 0.59595 0.40908 0.19692 0.0
O450 O 0.45189 0.27426 0.25739 0.0
O451 O 0.45444 0.37957 0.21258 0.0
O452 O 0.55539 0.39424 0.27094 0.0
O453 O 0.45632 0.31132 0.16444 0.0
O454 O 0.5424 0.29861 0.22147 0.0
O455 O 0.57174 0.41948 0.19266 0.0
O456 O 0.48759 0.26793 0.19625 0.0
O457 O 0.49817 0.3726 0.15778 0.0
O458 O 0.58944 0.38077 0.21317 0.0
O459 O 0.42219 0.31863 0.22609 0.0
O460 O 0.50728 0.31188 0.27992 0.0
O461 O 0.52722 0.4227 0.2481 0.0
Sc462 Sc 0.48799 0.36767 0.95143 0.0
Sc463 Sc 0.45865 0.27084 0.95854 0.0
Sc464 Sc 0.53901 0.33006 0.91695 0.0
O465 O 0.49523 0.32297 0.94236 0.0
C466 C 0.51506 0.38199 0.88174 0.0
C467 C 0.40466 0.30233 0.93905 0.0
C468 C 0.47233 0.25113 0.89238 0.0
C469 C 0.46769 0.32207 0.01494 0.0
C470 C 0.57638 0.40385 0.95895 0.0
C471 C 0.53658 0.27121 0.96381 0.0
O472 O 0.50479 0.39199 0.90582 0.0
O473 O 0.41105 0.27879 0.95287 0.0
O474 O 0.5061 0.27832 0.89265 0.0
O475 O 0.47088 0.34908 -0.00179 0.0
O476 O 0.57749 0.3822 0.93869 0.0
O477 O 0.50091 0.25468 0.96645 0.0
O478 O 0.54575 0.40146 0.96845 0.0
O479 O 0.46695 0.29282 0.00412 0.0
O480 O 0.55539 0.30242 0.94987 0.0
O481 O 0.43019 0.33648 0.93438 0.0
O482 O 0.52558 0.35761 0.88179 0.0
O483 O 0.44844 0.2457 0.91329 0.0
Sc484 Sc 0.63628 0.12742 0.94966 0.0
Sc485 Sc 0.73634 0.17871 0.95842 0.0
Sc486 Sc 0.69078 0.21489 0.91384 0.0
O487 O 0.68782 0.1736 0.94073 0.0
C488 C 0.62661 0.14284 0.87947 0.0
C489 C 0.68832 0.09135 0.93967 0.0
C490 C 0.76174 0.20927 0.8911 0.0
C491 C 0.6795 0.14319 0.01403 0.0
C492 C 0.61925 0.19465 0.95568 0.0
C493 C 0.75316 0.26361 0.96341 0.0
O494 O 0.61475 0.12253 0.90341 0.0
O495 O 0.71782 0.12039 0.94945 0.0
O496 O 0.73746 0.21972 0.88881 0.0
O497 O 0.65042 0.12614 -0.00292 0.0
O498 O 0.64481 0.21464 0.93654 0.0
O499 O 0.76152 0.23829 0.96955 0.0
O500 O 0.61197 0.16177 0.96384 0.0
O501 O 0.71236 0.1653 0.00356 0.0
O502 O 0.72715 0.25856 0.94491 0.0
O503 O 0.65673 0.08988 0.93597 0.0
O504 O 0.655 0.17594 0.87958 0.0
O505 O 0.76496 0.19248 0.91443 0.0
Sc506 Sc 0.87311 0.5053 0.95062 0.0
Sc507 Sc 0.8171 0.54781 0.95936 0.0
Sc508 Sc 0.77883 0.45916 0.92672 0.0
O509 O 0.82321 0.50391 0.94559 0.0
C510 C 0.8471 0.46992 0.88417 0.0
C511 C 0.90273 0.59092 0.93761 0.0
C512 C 0.77807 0.5301 0.89612 0.0
C513 C 0.85739 0.53384 0.01473 0.0
C514 C 0.81548 0.41928 0.96561 0.0
C515 C 0.73351 0.47909 0.97188 0.0
O516 O 0.87214 0.48444 0.90498 0.0
O517 O 0.87505 0.59015 0.95132 0.0
O518 O 0.76413 0.49487 0.90089 0.0
O519 O 0.87728 0.52577 -0.00295 0.0
O520 O 0.78886 0.41912 0.95054 0.0
O521 O 0.75697 0.5141 0.96897 0.0
O522 O 0.84787 0.44845 0.96873 0.0
O523 O 0.83139 0.53993 0.00509 0.0
O524 O 0.74128 0.4541 0.96333 0.0
O525 O 0.90421 0.56138 0.93162 0.0
O526 O 0.81267 0.46053 0.88834 0.0
O527 O 0.80299 0.55564 0.91326 0.0
Sc528 Sc 0.34789 0.81029 0.73387 0.0
Sc529 Sc 0.39857 0.88327 0.78617 0.0
Sc530 Sc 0.29823 0.83901 0.78121 0.0
O531 O 0.34833 0.84418 0.76733 0.0
C532 C 0.28303 0.82382 0.70963 0.0
C533 C 0.42189 0.88689 0.71622 0.0
C534 C 0.35318 0.92731 0.77451 0.0
C535 C 0.40951 0.81189 0.77995 0.0
C536 C 0.27784 0.75409 0.77598 0.0
C537 C 0.34466 0.86008 0.84419 0.0
O538 O 0.31191 0.82071 0.70483 0.0
O539 O 0.42823 0.90141 0.7428 0.0
O540 O 0.32039 0.89833 0.77206 0.0
O541 O 0.38444 0.79668 0.75928 0.0
O542 O 0.27354 0.77896 0.79016 0.0
O543 O 0.37658 0.8707 0.83199 0.0
O544 O 0.30147 0.76199 0.75439 0.0
O545 O 0.41878 0.84368 0.79208 0.0
O546 O 0.31489 0.84966 0.82855 0.0
O547 O 0.39417 0.85466 0.71004 0.0
O548 O 0.27256 0.82695 0.73627 0.0
O549 O 0.38282 0.92598 0.78127 0.0
Sc550 Sc 0.19077 0.53086 0.73278 0.0
Sc551 Sc 0.11926 0.5121 0.7855 0.0
Sc552 Sc 0.15903 0.45248 0.78003 0.0
O553 O 0.15633 0.49863 0.76634 0.0
C554 C 0.17269 0.45214 0.70789 0.0
C555 C 0.11624 0.53372 0.71638 0.0
C556 C 0.07136 0.42246 0.77495 0.0
C557 C 0.19352 0.59266 0.7786 0.0
C558 C 0.24483 0.51148 0.77279 0.0
C559 C 0.14149 0.4806 0.84331 0.0
O560 O 0.17445 0.48355 0.70318 0.0
O561 O 0.10013 0.52268 0.74222 0.0
O562 O 0.09928 0.41726 0.77056 0.0
O563 O 0.20898 0.58105 0.75948 0.0
O564 O 0.21923 0.48592 0.78947 0.0
O565 O 0.13374 0.50404 0.83105 0.0
O566 O 0.23763 0.52679 0.75043 0.0
O567 O 0.16055 0.5716 0.78942 0.0
O568 O 0.14829 0.45851 0.82758 0.0
O569 O 0.14881 0.5388 0.71073 0.0
O570 O 0.17137 0.43933 0.73467 0.0
O571 O 0.07479 0.45408 0.78274 0.0
Sc572 Sc 0.46867 0.65593 0.73284 0.0
Sc573 Sc 0.48774 0.60457 0.786 0.0
Sc574 Sc 0.54813 0.70421 0.77939 0.0
O575 O 0.50165 0.6551 0.76638 0.0
C576 C 0.54824 0.72263 0.70939 0.0
C577 C 0.4714 0.58403 0.71463 0.0
C578 C 0.57692 0.6448 0.77456 0.0
C579 C 0.40656 0.59052 0.77606 0.0
C580 C 0.48178 0.72412 0.77577 0.0
C581 C 0.52037 0.66028 0.84302 0.0
O582 O 0.51344 0.69914 0.70653 0.0
O583 O 0.47095 0.57441 0.74247 0.0
O584 O 0.58329 0.67869 0.7742 0.0
O585 O 0.41747 0.61138 0.75244 0.0
O586 O 0.51495 0.73229 0.7843 0.0
O587 O 0.50144 0.62741 0.83166 0.0
O588 O 0.46112 0.69662 0.75807 0.0
O589 O 0.42947 0.58871 0.79467 0.0
O590 O 0.53814 0.68974 0.82683 0.0
O591 O 0.47584 0.61589 0.70685 0.0
O592 O 0.56593 0.72749 0.73425 0.0
O593 O 0.54443 0.61595 0.77871 0.0
Sc594 Sc 0.46718 0.67836 0.07521 0.0
Sc595 Sc 0.55004 0.72984 0.03337 0.0
Sc596 Sc 0.50689 0.63008 0.03866 0.0
O597 O 0.50806 0.6793 0.04911 0.0
C598 C 0.48116 0.61714 0.10852 0.0
C599 C 0.54188 0.75064 0.1008 0.0
C600 C 0.59434 0.68562 0.0475 0.0
C601 C 0.47972 0.74341 0.03 0.0
C602 C 0.42003 0.60498 0.03364 0.0
C603 C 0.52932 0.67665 0.97552 0.0
O604 O 0.47284 0.64321 0.10879 0.0
O605 O 0.5637 0.75443 0.07864 0.0
O606 O 0.56541 0.65335 0.05161 0.0
O607 O 0.45741 0.71344 0.04433 0.0
O608 O 0.4477 0.60087 0.02567 0.0
O609 O 0.5385 0.70847 0.9875 0.0
O610 O 0.42323 0.63067 0.05176 0.0
O611 O 0.51451 0.75447 0.02638 0.0
O612 O 0.52078 0.64719 0.99131 0.0
O613 O 0.50686 0.7264 0.10127 0.0
O614 O 0.49207 0.60758 0.08461 0.0
O615 O 0.59258 0.71418 0.0385 0.0
Sc616 Sc 0.32901 0.79669 0.08108 0.0
Sc617 Sc 0.2743 0.81969 0.03389 0.0
Sc618 Sc 0.37329 0.88242 0.04127 0.0
O619 O 0.32548 0.83295 0.05205 0.0
C620 C 0.38729 0.87476 0.11193 0.0
C621 C 0.25249 0.7926 0.10265 0.0
C622 C 0.31262 0.90816 0.04888 0.0
C623 C 0.26795 0.73869 0.03423 0.0
C624 C 0.40216 0.82373 0.03907 0.0
C625 C 0.32918 0.85633 0.97716 0.0
O626 O 0.36231 0.84013 0.11329 0.0
O627 O 0.24603 0.80503 0.07802 0.0
O628 O 0.34613 0.91447 0.0526 0.0
O629 O 0.29544 0.74878 0.05257 0.0
O630 O 0.40438 0.85411 0.0294 0.0
O631 O 0.2974 0.83212 0.98829 0.0
O632 O 0.3777 0.80185 0.0583 0.0
O633 O 0.25608 0.76068 0.02585 0.0
O634 O 0.35733 0.87792 0.99379 0.0
O635 O 0.28043 0.78757 0.10627 0.0
O636 O 0.39648 0.89353 0.08717 0.0
O637 O 0.28534 0.87657 0.04013 0.0
Sc638 Sc 0.20801 0.52489 0.08184 0.0
Sc639 Sc 0.17802 0.44635 0.03371 0.0
Sc640 Sc 0.12416 0.49293 0.0406 0.0
O641 O 0.17005 0.48798 0.05195 0.0
C642 C 0.13203 0.5139 0.11146 0.0
C643 C 0.20243 0.44803 0.10325 0.0
C644 C 0.08944 0.40429 0.0486 0.0
C645 C 0.26215 0.51514 0.03454 0.0
C646 C 0.19097 0.57833 0.03942 0.0
C647 C 0.1464 0.47047 0.97659 0.0
O648 O 0.16573 0.52049 0.11323 0.0
O649 O 0.19121 0.43076 0.07778 0.0
O650 O 0.08653 0.43378 0.05099 0.0
O651 O 0.25506 0.53342 0.05438 0.0
O652 O 0.1586 0.5529 0.02996 0.0
O653 O 0.16657 0.4578 0.98788 0.0
O654 O 0.2104 0.57185 0.05856 0.0
O655 O 0.23762 0.48284 0.02466 0.0
O656 O 0.1283 0.48168 0.99307 0.0
O657 O 0.20949 0.48157 0.10753 0.0
O658 O 0.11371 0.50559 0.0865 0.0
O659 O 0.11976 0.40489 0.04105 0.0
Sc660 Sc 0.37179 0.4923 0.5409 0.0
Sc661 Sc 0.27178 0.45033 0.53413 0.0
Sc662 Sc 0.32272 0.52411 0.58599 0.0
O663 O 0.32204 0.48891 0.55351 0.0
C664 C 0.38713 0.51023 0.61198 0.0
C665 C 0.31487 0.40421 0.54712 0.0
C666 C 0.24839 0.44829 0.60425 0.0
C667 C 0.32731 0.47258 0.47707 0.0
C668 C 0.39361 0.57839 0.54387 0.0
C669 C 0.26089 0.52162 0.53933 0.0
O670 O 0.39606 0.50316 0.58606 0.0
O671 O 0.28582 0.40652 0.54026 0.0
O672 O 0.27699 0.47991 0.61066 0.0
O673 O 0.3563 0.48254 0.49353 0.0
O674 O 0.36849 0.57174 0.56392 0.0
O675 O 0.25254 0.49042 0.5266 0.0
O676 O 0.39875 0.55273 0.5321 0.0
O677 O 0.29486 0.46183 0.48842 0.0
O678 O 0.28525 0.53625 0.56055 0.0
O679 O 0.34798 0.43263 0.54977 0.0
O680 O 0.35991 0.5163 0.61574 0.0
O681 O 0.24161 0.43401 0.5775 0.0
Sc682 Sc 0.50902 0.87933 0.54043 0.0
Sc683 Sc 0.55144 0.82146 0.53585 0.0
Sc684 Sc 0.47683 0.79911 0.58647 0.0
O685 O 0.51241 0.83324 0.55405 0.0
C686 C 0.49131 0.87801 0.61155 0.0
C687 C 0.59703 0.91081 0.5479 0.0
C688 C 0.55275 0.80144 0.60609 0.0
C689 C 0.52967 0.85317 0.47761 0.0
C690 C 0.42302 0.81517 0.54323 0.0
C691 C 0.47996 0.73916 0.54111 0.0
O692 O 0.49784 0.89355 0.58542 0.0
O693 O 0.59497 0.87944 0.54157 0.0
O694 O 0.52062 0.79759 0.61176 0.0
O695 O 0.51935 0.87271 0.49315 0.0
O696 O 0.42953 0.79727 0.56388 0.0
O697 O 0.51167 0.76186 0.529 0.0
O698 O 0.44875 0.84565 0.53114 0.0
O699 O 0.54017 0.83186 0.48995 0.0
O700 O 0.46455 0.74911 0.56151 0.0
O701 O 0.56851 0.91543 0.54976 0.0
O702 O 0.48518 0.84474 0.61555 0.0
O703 O 0.56769 0.80898 0.57963 0.0
Sc704 Sc 0.12209 0.62952 0.54115 0.0
Sc705 Sc 0.1803 0.72975 0.53576 0.0
Sc706 Sc 0.20327 0.67784 0.58618 0.0
O707 O 0.16856 0.67908 0.55419 0.0
C708 C 0.12474 0.61415 0.61244 0.0
C709 C 0.09109 0.68661 0.54864 0.0
C710 C 0.202 0.75192 0.60581 0.0
C711 C 0.14745 0.67544 0.47784 0.0
C712 C 0.18622 0.60747 0.54325 0.0
C713 C 0.26248 0.74022 0.54001 0.0
O714 O 0.10861 0.60477 0.58652 0.0
O715 O 0.12252 0.71571 0.54204 0.0
O716 O 0.20556 0.72347 0.61142 0.0
O717 O 0.12804 0.64578 0.49362 0.0
O718 O 0.20453 0.63213 0.56363 0.0
O719 O 0.23969 0.74923 0.52811 0.0
O720 O 0.15546 0.60256 0.53161 0.0
O721 O 0.16888 0.70741 0.48998 0.0
O722 O 0.25276 0.71512 0.5606 0.0
O723 O 0.08627 0.65337 0.55058 0.0
O724 O 0.15824 0.64106 0.61588 0.0
O725 O 0.19391 0.75908 0.57945 0.0
Sc726 Sc 0.16026 0.70354 0.28074 0.0
Sc727 Sc 0.11573 0.60333 0.28795 0.0
Sc728 Sc 0.19659 0.65329 0.24274 0.0
O729 O 0.1574 0.65333 0.27051 0.0
C730 C 0.18403 0.71581 0.21048 0.0
C731 C 0.07255 0.64836 0.27153 0.0
C732 C 0.12173 0.58031 0.21953 0.0
C733 C 0.13691 0.65908 0.34476 0.0
C734 C 0.24618 0.72532 0.28508 0.0
C735 C 0.18606 0.59017 0.29058 0.0
O736 O 0.17453 0.72604 0.23476 0.0
O737 O 0.07366 0.61917 0.27989 0.0
O738 O 0.15572 0.60654 0.21676 0.0
O739 O 0.14713 0.68807 0.32809 0.0
O740 O 0.24156 0.6996 0.26637 0.0
O741 O 0.15233 0.58052 0.29778 0.0
O742 O 0.21956 0.73095 0.29339 0.0
O743 O 0.12597 0.62637 0.33375 0.0
O744 O 0.20579 0.61694 0.27223 0.0
O745 O 0.10165 0.68084 0.26862 0.0
O746 O 0.19151 0.68924 0.20982 0.0
O747 O 0.1021 0.5751 0.24361 0.0
Sc748 Sc 0.29291 0.4525 0.28171 0.0
Sc749 Sc 0.39303 0.51178 0.28524 0.0
Sc750 Sc 0.3384 0.53739 0.24059 0.0
O751 O 0.34151 0.50052 0.26924 0.0
C752 C 0.27674 0.45937 0.21141 0.0
C753 C 0.35042 0.42302 0.27101 0.0
C754 C 0.41288 0.53914 0.21639 0.0
C755 C 0.34081 0.47729 0.34398 0.0
C756 C 0.26787 0.51422 0.28501 0.0
C757 C 0.40262 0.59404 0.28609 0.0
O758 O 0.26807 0.44119 0.23645 0.0
O759 O 0.37938 0.45439 0.27776 0.0
O760 O 0.38522 0.54478 0.21372 0.0
O761 O 0.31077 0.45742 0.32869 0.0
O762 O 0.29192 0.53492 0.26507 0.0
O763 O 0.41346 0.57104 0.29395 0.0
O764 O 0.26427 0.48313 0.29437 0.0
O765 O 0.37235 0.49954 0.33148 0.0
O766 O 0.37477 0.5851 0.26839 0.0
O767 O 0.31713 0.4179 0.26969 0.0
O768 O 0.30238 0.49373 0.20926 0.0
O769 O 0.41968 0.5262 0.24054 0.0
Sc770 Sc 0.54406 0.83966 0.28031 0.0
Sc771 Sc 0.48751 0.88315 0.28852 0.0
Sc772 Sc 0.45936 0.80539 0.23997 0.0
O773 O 0.49699 0.84279 0.26971 0.0
C774 C 0.5352 0.81803 0.20964 0.0
C775 C 0.57563 0.92743 0.2716 0.0
C776 C 0.46068 0.88078 0.21973 0.0
C777 C 0.52276 0.86187 0.34465 0.0
C778 C 0.47979 0.75375 0.28175 0.0
C779 C 0.40472 0.81193 0.28877 0.0
O780 O 0.55358 0.82622 0.23454 0.0
O781 O 0.54515 0.92597 0.28007 0.0
O782 O 0.45495 0.84776 0.21495 0.0
O783 O 0.54141 0.85174 0.3278 0.0
O784 O 0.45969 0.75919 0.26253 0.0
O785 O 0.4284 0.84469 0.29851 0.0
O786 O 0.51145 0.77998 0.29162 0.0
O787 O 0.50085 0.87263 0.33383 0.0
O788 O 0.4126 0.79477 0.26844 0.0
O789 O 0.57958 0.89859 0.26895 0.0
O790 O 0.50166 0.81181 0.20785 0.0
O791 O 0.47224 0.89798 0.24515 0.0
C792 C 0.10442 0.226 0.00227 0.0
C793 C 0.11001 0.20963 0.02859 0.0
C794 C 0.11788 0.22219 0.9736 0.0
C795 C 0.13672 0.20144 0.97065 0.0
H796 H 0.08666 0.23867 0.00333 0.0
H797 H 0.11058 0.23256 0.9534 0.0
S798 S 0.16299 0.15818 0.03358 0.0
N799 N 0.13924 0.17599 0.05053 0.0
N800 N 0.16455 0.16886 -0.00305 0.0
C801 C 0.14536 0.18808 -0.00271 0.0
C802 C 0.13197 0.19217 0.02625 0.0
C803 C 0.77174 0.87455 -0.00056 0.0
C804 C 0.78661 0.89652 0.02602 0.0
C805 C 0.7758 0.89177 0.97073 0.0
C806 C 0.79554 0.93136 0.96794 0.0
H807 H 0.76005 0.84424 0.00044 0.0
H808 H 0.76644 0.87419 0.95043 0.0
S809 S 0.8351 0.00083 0.03124 0.0
N810 N 0.81786 0.95933 0.04819 0.0
N811 N 0.8258 0.99169 -0.00558 0.0
C812 C 0.80755 0.95331 -0.00531 0.0
C813 C 0.80299 0.93584 0.02374 0.0
C814 C 0.11561 0.89456 0.00068 0.0
C815 C 0.09487 0.8914 0.02726 0.0
C816 C 0.09708 0.87899 0.97278 0.0
C817 C 0.05739 0.86048 0.97078 0.0
H818 H 0.14613 0.91177 0.00085 0.0
H819 H 0.11392 0.88428 0.95228 0.0
S820 S 0.99073 0.84083 0.03503 0.0
N821 N 0.03301 0.86524 0.05067 0.0
N822 N 0.99817 0.83599 -0.00143 0.0
C823 C 0.03655 0.85454 -0.00215 0.0
C824 C 0.05534 0.87008 0.02604 0.0
C825 C 0.22435 0.09766 0.48423 0.0
C826 C 0.21275 0.10821 0.45753 0.0
C827 C 0.22095 0.11096 0.51304 0.0
C828 C 0.2051 0.13442 0.51573 0.0
H829 H 0.23285 0.07648 0.48312 0.0
H830 H 0.2275 0.10016 0.53338 0.0
S831 S 0.17504 0.17357 0.45233 0.0
N832 N 0.18883 0.14645 0.43524 0.0
N833 N 0.18195 0.17109 0.48932 0.0
C834 C 0.19644 0.14755 0.48899 0.0
C835 C 0.2004 0.13449 0.45982 0.0
C836 C 0.85058 0.04777 0.48677 0.0
C837 C 0.86247 0.07007 0.51337 0.0
C838 C 0.86224 0.0641 0.45784 0.0
C839 C 0.88625 0.1032 0.45462 0.0
H840 H 0.83428 0.01725 0.48846 0.0
H841 H 0.85536 0.04568 0.43813 0.0
S842 S 0.92185 0.17422 0.5168 0.0
N843 N 0.89622 0.13348 0.53457 0.0
N844 N 0.91874 0.1642 0.47988 0.0
C845 C 0.89549 0.12617 0.48071 0.0
C846 C 0.8834 0.10953 0.51028 0.0
C847 C 0.89954 0.78246 0.50926 0.0
C848 C 0.93907 0.80442 0.51229 0.0
C849 C 0.88203 0.77919 0.48079 0.0
C850 C 0.90372 0.79739 0.45474 0.0
H851 H 0.88198 0.77041 0.52933 0.0
H852 H 0.85149 0.76515 0.47973 0.0
S853 S 0.00806 0.85221 0.44958 0.0
N854 N 0.99931 0.83999 0.48599 0.0
N855 N 0.96637 0.83381 0.43282 0.0
C856 C 0.94319 0.81621 0.45699 0.0
C857 C 0.96092 0.81972 0.48574 0.0
C858 C 0.84844 0.80288 0.98682 0.0
C859 C 0.85941 0.79121 0.01324 0.0
C860 C 0.85924 0.79756 0.95773 0.0
C861 C 0.88163 0.78067 0.95408 0.0
H862 H 0.83354 0.81849 0.98877 0.0
H863 H 0.85326 0.81013 0.93822 0.0
S864 S 0.91333 0.7406 0.01557 0.0
N865 N 0.88979 0.75784 0.03376 0.0
N866 N 0.91099 0.74867 0.97877 0.0
C867 C 0.88968 0.7656 0.97998 0.0
C868 C 0.87834 0.77072 0.00973 0.0
C869 C 0.2243 0.12386 0.97871 0.0
C870 C 0.2091 0.10081 0.9527 0.0
C871 C 0.2211 0.10782 0.00788 0.0
C872 C 0.20211 0.06836 0.01167 0.0
H873 H 0.2354 0.15403 0.97698 0.0
H874 H 0.23044 0.12615 0.02775 0.0
S875 S 0.16256 0.99646 0.95005 0.0
N876 N 0.17871 0.03721 0.9321 0.0
N877 N 0.17239 0.0071 0.98664 0.0
C878 C 0.18996 0.04542 0.98544 0.0
C879 C 0.19357 0.06168 0.95597 0.0
C880 C 0.87758 0.10205 0.982 0.0
C881 C 0.89966 0.10669 0.95593 0.0
C882 C 0.89475 0.11593 0.01063 0.0
C883 C 0.93429 0.13427 0.01376 0.0
H884 H 0.8471 0.08488 0.98079 0.0
H885 H 0.87699 0.10951 0.0307 0.0
S886 S 0.00411 0.15794 0.95138 0.0
N887 N 0.96262 0.13433 0.93433 0.0
N888 N 0.99485 0.16054 0.98781 0.0
C889 C 0.95645 0.14185 0.9873 0.0
C890 C 0.93909 0.12797 0.95841 0.0
C891 C 0.81229 0.85864 0.49502 0.0
C892 C 0.79718 0.86593 0.46873 0.0
C893 C 0.80887 0.8717 0.52374 0.0
C894 C 0.79039 0.89262 0.52713 0.0
H895 H 0.82896 0.84484 0.49309 0.0
H896 H 0.82368 0.8683 0.54297 0.0
S897 S 0.74248 0.91575 0.46609 0.0
N898 N 0.75973 0.89198 0.44829 0.0
N899 N 0.75396 0.91725 0.50256 0.0
C900 C 0.77233 0.8973 0.50159 0.0
C901 C 0.77556 0.88371 0.47222 0.0
C902 C 0.13681 0.93802 0.52446 0.0
C903 C 0.1137 0.89882 0.52788 0.0
C904 C 0.14957 0.95412 0.49558 0.0
C905 C 0.13969 0.93156 0.46912 0.0
H906 H 0.14217 0.95659 0.54386 0.0
H907 H 0.16498 0.98464 0.4937 0.0
S908 S 0.0841 0.82706 0.4665 0.0
N909 N 0.08472 0.83748 0.50315 0.0
N910 N 0.10919 0.8678 0.44854 0.0
C911 C 0.11981 0.8921 0.47256 0.0
C912 C 0.10663 0.87567 0.50212 0.0
C913 C 0.05848 0.1822 0.52386 0.0
C914 C 0.09798 0.20351 0.52645 0.0
C915 C 0.04056 0.17864 0.49585 0.0
C916 C 0.0615 0.19624 0.46933 0.0
H917 H 0.04149 0.16593 0.54319 0.0
H918 H 0.01022 0.16024 0.49462 0.0
S919 S 0.16531 0.25942 0.4651 0.0
N920 N 0.1573 0.24565 0.50125 0.0
N921 N 0.12357 0.23933 0.44821 0.0
C922 C 0.10076 0.22048 0.47221 0.0
C923 C 0.11907 0.22401 0.50093 0.0
C924 C 0.80434 0.54182 0.36321 0.0
C925 C 0.7767 0.55257 0.36451 0.0
C926 C 0.81817 0.53767 0.33503 0.0
C927 C 0.80506 0.5446 0.30741 0.0
H928 H 0.81238 0.53281 0.38381 0.0
H929 H 0.83716 0.52637 0.33474 0.0
S930 S 0.73582 0.57724 0.29895 0.0
N931 N 0.73893 0.57294 0.33631 0.0
N932 N 0.76578 0.56622 0.28316 0.0
C933 C 0.78021 0.5589 0.30858 0.0
C934 C 0.76575 0.56261 0.33728 0.0
C935 C 0.46769 0.2705 0.3658 0.0
C936 C 0.45066 0.23109 0.36815 0.0
C937 C 0.47178 0.28782 0.3374 0.0
C938 C 0.45892 0.26625 0.31044 0.0
H939 H 0.48122 0.28819 0.38558 0.0
H940 H 0.48759 0.31839 0.33629 0.0
S941 S 0.40689 0.16178 0.30533 0.0
N942 N 0.41677 0.17074 0.34212 0.0
N943 N 0.42388 0.20329 0.28839 0.0
C944 C 0.43814 0.22668 0.31293 0.0
C945 C 0.43418 0.20904 0.34198 0.0
C946 C 0.71859 0.1805 0.33548 0.0
C947 C 0.7387 0.19354 0.30789 0.0
C948 C 0.73657 0.19421 0.36365 0.0
C949 C 0.77501 0.22167 0.36495 0.0
H950 H 0.68828 0.16173 0.33517 0.0
H951 H 0.71949 0.18626 0.38425 0.0
S952 S 0.84073 0.26227 0.29948 0.0
N953 N 0.7997 0.23251 0.28366 0.0
N954 N 0.83327 0.25916 0.33683 0.0
C955 C 0.79606 0.2325 0.33777 0.0
C956 C 0.77789 0.21815 0.30906 0.0
C957 C 0.88069 0.44496 0.85231 0.0
C958 C 0.85767 0.46149 0.85409 0.0
C959 C 0.88469 0.42976 0.82462 0.0
C960 C 0.86658 0.43163 0.79791 0.0
H961 H 0.89326 0.44113 0.87285 0.0
H962 H 0.89955 0.41404 0.82463 0.0
S963 S 0.80771 0.47659 0.78961 0.0
N964 N 0.81984 0.48219 0.82613 0.0
N965 N 0.82792 0.45422 0.77417 0.0
C966 C 0.84618 0.45083 0.79892 0.0
C967 C 0.84158 0.46567 0.82703 0.0
C968 C 0.54311 0.44084 0.85069 0.0
C969 C 0.51898 0.40155 0.85253 0.0
C970 C 0.55839 0.45818 0.82242 0.0
C971 C 0.5492 0.43674 0.79537 0.0
H972 H 0.55345 0.45753 0.87141 0.0
H973 H 0.58028 0.48762 0.82217 0.0
S974 S 0.48263 0.33424 0.78761 0.0
N975 N 0.483 0.34267 0.82465 0.0
N976 N 0.51117 0.37548 0.7716 0.0
C977 C 0.52189 0.39835 0.7966 0.0
C978 C 0.50684 0.38064 0.82525 0.0
C979 C 0.60762 0.13737 0.79474 0.0
C980 C 0.56823 0.12136 0.79347 0.0
C981 C 0.62605 0.14119 0.82259 0.0
C982 C 0.60576 0.12921 0.85024 0.0
H983 H 0.62456 0.14985 0.77441 0.0
H984 H 0.65665 0.15589 0.82273 0.0
S985 S 0.50167 0.08192 0.85853 0.0
N986 N 0.50911 0.09057 0.82146 0.0
N987 N 0.5437 0.09735 0.87414 0.0
C988 C 0.56604 0.11011 0.8489 0.0
C989 C 0.54726 0.10634 0.82038 0.0
C990 C 0.54622 0.1081 0.34971 0.0
C991 C 0.52598 0.12758 0.35109 0.0
C992 C 0.56104 0.10415 0.32179 0.0
C993 C 0.55513 0.11872 0.29453 0.0
H994 H 0.55365 0.09904 0.37059 0.0
H995 H 0.57999 0.09283 0.322 0.0
S996 S 0.49895 0.16636 0.28532 0.0
N997 N 0.49696 0.15733 0.32236 0.0
N998 N 0.5242 0.14922 0.27001 0.0
C999 C 0.53169 0.13463 0.29526 0.0
C1000 C 0.51723 0.13926 0.32356 0.0
C1001 C 0.86478 0.38278 0.3258 0.0
C1002 C 0.87495 0.40299 0.35351 0.0
C1003 C 0.86845 0.40112 0.29792 0.0
C1004 C 0.88218 0.44017 0.2969 0.0
H1005 H 0.85141 0.35224 0.32591 0.0
H1006 H 0.85719 0.38415 0.27742 0.0
S1007 S 0.91591 0.50626 0.36252 0.0
N1008 N 0.90263 0.46455 0.37793 0.0
N1009 N 0.90871 0.49893 0.32529 0.0
C1010 C 0.89535 0.46114 0.32401 0.0
C1011 C 0.89199 0.44252 0.35247 0.0
C1012 C 0.61498 0.48742 0.32515 0.0
C1013 C 0.59512 0.4751 0.35292 0.0
C1014 C 0.59681 0.47292 0.29713 0.0
C1015 C 0.55835 0.44538 0.29607 0.0
H1016 H 0.6453 0.50622 0.32523 0.0
H1017 H 0.61377 0.48042 0.27648 0.0
S1018 S 0.49327 0.40614 0.36209 0.0
N1019 N 0.53436 0.43644 0.37753 0.0
N1020 N 0.50041 0.40839 0.32471 0.0
C1021 C 0.53756 0.43516 0.32341 0.0
C1022 C 0.55594 0.45029 0.35197 0.0
C1023 C 0.48752 0.19372 0.83442 0.0
C1024 C 0.46923 0.19748 0.80852 0.0
C1025 C 0.48426 0.20713 0.86299 0.0
C1026 C 0.46259 0.22475 0.86673 0.0
H1027 H 0.50635 0.18237 0.83224 0.0
H1028 H 0.50132 0.20655 0.88176 0.0
S1029 S 0.40489 0.23686 0.80741 0.0
N1030 N 0.42499 0.21599 0.78925 0.0
N1031 N 0.41953 0.24195 0.84328 0.0
C1032 C 0.44143 0.22568 0.84182 0.0
C1033 C 0.44454 0.21177 0.81257 0.0
C1034 C 0.77442 0.19706 0.83868 0.0
C1035 C 0.7876 0.21954 0.86518 0.0
C1036 C 0.78534 0.2133 0.80949 0.0
C1037 C 0.80924 0.25243 0.80632 0.0
H1038 H 0.75223 0.16781 0.84042 0.0
H1039 H 0.772 0.19594 0.78953 0.0
S1040 S 0.85653 0.32193 0.86852 0.0
N1041 N 0.8301 0.28142 0.88637 0.0
N1042 N 0.85016 0.31214 0.83157 0.0
C1043 C 0.82585 0.27427 0.83255 0.0
C1044 C 0.81525 0.25766 0.86209 0.0
C1045 C 0.70815 0.52058 0.83729 0.0
C1046 C 0.73031 0.53287 0.81061 0.0
C1047 C 0.72468 0.52407 0.86596 0.0
C1048 C 0.76391 0.5401 0.86895 0.0
H1049 H 0.6776 0.50584 0.83578 0.0
H1050 H 0.70641 0.51139 0.8856 0.0
S1051 S 0.83472 0.58062 0.80678 0.0
N1052 N 0.79373 0.56513 0.78928 0.0
N1053 N 0.82488 0.57155 0.84358 0.0
C1054 C 0.7867 0.55561 0.84295 0.0
C1055 C 0.76983 0.55206 0.81358 0.0
C1056 C 0.48092 0.89648 0.69386 0.0
C1057 C 0.4507 0.90353 0.69224 0.0
C1058 C 0.49754 0.89253 0.66712 0.0
C1059 C 0.48495 0.89638 0.63809 0.0
H1060 H 0.48838 0.88908 0.71556 0.0
H1061 H 0.51779 0.88288 0.66909 0.0
S1062 S 0.41247 0.92321 0.62226 0.0
N1063 N 0.41288 0.92003 0.65996 0.0
N1064 N 0.44518 0.91415 0.60955 0.0
C1065 C 0.45854 0.90874 0.63643 0.0
C1066 C 0.44108 0.91195 0.66366 0.0
C1067 C 0.09561 0.55121 0.63727 0.0
C1068 C 0.10701 0.58976 0.63927 0.0
C1069 C 0.09292 0.53047 0.66369 0.0
C1070 C 0.10052 0.54746 0.69279 0.0
H1071 H 0.09318 0.53823 0.61512 0.0
H1072 H 0.08884 0.50231 0.66106 0.0
S1073 S 0.12414 0.64542 0.71041 0.0
N1074 N 0.12058 0.64253 0.6727 0.0
N1075 N 0.11442 0.60317 0.72237 0.0
C1076 C 0.10703 0.58444 0.69526 0.0
C1077 C 0.11059 0.60577 0.66841 0.0
C1078 C 0.41964 0.52491 0.69361 0.0
C1079 C 0.4568 0.5551 0.69058 0.0
C1080 C 0.39776 0.50718 0.66766 0.0
C1081 C 0.41285 0.51842 0.63808 0.0
H1082 H 0.40591 0.51814 0.7158 0.0
H1083 H 0.36803 0.48691 0.67065 0.0
S1084 S 0.51108 0.59078 0.61858 0.0
N1085 N 0.5094 0.59177 0.65635 0.0
N1086 N 0.4688 0.55735 0.60749 0.0
C1087 C 0.45143 0.54499 0.63504 0.0
C1088 C 0.47338 0.56364 0.66141 0.0
C1089 C 0.54923 0.80738 0.1263 0.0
C1090 C 0.55584 0.77684 0.12666 0.0
C1091 C 0.54652 0.8237 0.15366 0.0
C1092 C 0.55077 0.81017 0.1821 0.0
H1093 H 0.54228 0.81611 0.105 0.0
H1094 H 0.53801 0.84489 0.15268 0.0
S1095 S 0.57243 0.73343 0.19485 0.0
N1096 N 0.56962 0.73572 0.15724 0.0
N1097 N 0.56555 0.76706 0.20887 0.0
C1098 C 0.56113 0.7822 0.18257 0.0
C1099 C 0.56334 0.76525 0.15469 0.0
C1100 C 0.21621 0.77705 0.18266 0.0
C1101 C 0.191 0.73789 0.18218 0.0
C1102 C 0.23309 0.79664 0.15551 0.0
C1103 C 0.22432 0.77776 0.1272 0.0
H1104 H 0.22591 0.7918 0.20429 0.0
H1105 H 0.25558 0.82579 0.15701 0.0
S1106 S 0.15584 0.67672 0.1135 0.0
N1107 N 0.15496 0.68191 0.15095 0.0
N1108 N 0.18592 0.71901 0.09991 0.0
C1109 C 0.19619 0.73961 0.12618 0.0
C1110 C 0.17966 0.71953 0.15376 0.0
C1111 C 0.21527 0.43004 0.18409 0.0
C1112 C 0.25396 0.44175 0.18385 0.0
C1113 C 0.19582 0.42589 0.15658 0.0
C1114 C 0.21436 0.43241 0.1282 0.0
H1115 H 0.20111 0.42823 0.20553 0.0
H1116 H 0.16747 0.42165 0.15762 0.0
S1117 S 0.31344 0.45677 0.11551 0.0
N1118 N 0.30868 0.45489 0.15314 0.0
N1119 N 0.27169 0.4458 0.10146 0.0
C1120 C 0.25157 0.43935 0.12774 0.0
C1121 C 0.2716 0.4445 0.15565 0.0
C1122 C 0.23024 0.42648 0.65761 0.0
C1123 C 0.21948 0.43188 0.62831 0.0
C1124 C 0.21097 0.42751 0.68383 0.0
C1125 C 0.18108 0.43507 0.68147 0.0
H1126 H 0.25595 0.42529 0.66048 0.0
H1127 H 0.22247 0.42699 0.70607 0.0
S1128 S 0.13818 0.44456 0.60975 0.0
N1129 N 0.1736 0.43906 0.59817 0.0
N1130 N 0.13804 0.4422 0.64751 0.0
C1131 C 0.16747 0.43618 0.65217 0.0
C1132 C 0.18656 0.43427 0.62549 0.0
C1133 C 0.56738 0.75495 0.62825 0.0
C1134 C 0.56937 0.79015 0.63074 0.0
C1135 C 0.5653 0.73435 0.65454 0.0
C1136 C 0.56625 0.74894 0.68388 0.0
H1137 H 0.56259 0.74124 0.60614 0.0
H1138 H 0.55923 0.70549 0.65193 0.0
S1139 S 0.57783 0.84253 0.70219 0.0
N1140 N 0.57689 0.84067 0.66438 0.0
N1141 N 0.57451 0.80255 0.71386 0.0
C1142 C 0.57312 0.78603 0.6865 0.0
C1143 C 0.57434 0.8066 0.65981 0.0
C1144 C 0.19891 0.76869 0.6596 0.0
C1145 C 0.21472 0.78027 0.63027 0.0
C1146 C 0.21982 0.78676 0.68591 0.0
C1147 C 0.25744 0.81621 0.68351 0.0
H1148 H 0.17184 0.74312 0.6623 0.0
H1149 H 0.20803 0.77469 0.70807 0.0
S1150 S 0.30893 0.86128 0.61199 0.0
N1151 N 0.26757 0.82671 0.60029 0.0
N1152 N 0.30744 0.85999 0.6498 0.0
C1153 C 0.27187 0.83074 0.65437 0.0
C1154 C 0.25025 0.81292 0.62764 0.0
C1155 C 0.10369 0.54721 0.13872 0.0
C1156 C 0.11578 0.52051 0.1393 0.0
C1157 C 0.1002 0.56345 0.16599 0.0
C1158 C 0.10768 0.55264 0.19453 0.0
H1159 H 0.10084 0.55851 0.11708 0.0
H1160 H 0.09528 0.5871 0.16454 0.0
S1161 S 0.13416 0.47954 0.20833 0.0
N1162 N 0.13081 0.48079 0.1707 0.0
N1163 N 0.12321 0.51058 0.2219 0.0
C1164 C 0.1156 0.52301 0.19545 0.0
C1165 C 0.11995 0.50709 0.16778 0.0
C1166 C 0.48202 0.61389 0.16523 0.0
C1167 C 0.47396 0.59506 0.13691 0.0
C1168 C 0.46597 0.59407 0.19233 0.0
C1169 C 0.44101 0.55492 0.19188 0.0
H1170 H 0.49854 0.64444 0.16614 0.0
H1171 H 0.47006 0.60999 0.21323 0.0
S1172 S 0.41513 0.49187 0.12455 0.0
N1173 N 0.44343 0.5345 0.11064 0.0
N1174 N 0.41221 0.49742 0.16175 0.0
C1175 C 0.43547 0.53532 0.16429 0.0
C1176 C 0.45235 0.55541 0.13669 0.0
C1177 C 0.44824 0.90391 0.13987 0.0
C1178 C 0.40938 0.89148 0.13995 0.0
C1179 C 0.4671 0.90583 0.16725 0.0
C1180 C 0.44778 0.89632 0.19538 0.0
H1181 H 0.46304 0.90789 0.11838 0.0
H1182 H 0.49578 0.911 0.16606 0.0
S1183 S 0.34773 0.86873 0.20797 0.0
N1184 N 0.35358 0.87443 0.17054 0.0
N1185 N 0.38931 0.87906 0.22207 0.0
C1186 C 0.41024 0.88843 0.196 0.0
C1187 C 0.3909 0.88574 0.16817 0.0
C1188 C 0.08337 0.09587 0.15264 0.0
C1189 C 0.10009 0.13329 0.14214 0.0
C1190 C 0.10231 0.07548 0.15028 0.0
C1191 C 0.13863 0.09184 0.1374 0.0
H1192 H 0.05401 0.08099 0.15968 0.0
H1193 H 0.08692 0.04559 0.1556 0.0
S1194 S 0.19832 0.19158 0.11392 0.0
N1195 N 0.15782 0.18816 0.12419 0.0
N1196 N 0.19338 0.14938 0.11957 0.0
C1197 C 0.15772 0.13064 0.13099 0.0
C1198 C 0.1384 0.15158 0.13348 0.0
C1199 C 0.9069 0.98708 0.14862 0.0
C1200 C 0.86924 0.96728 0.13861 0.0
C1201 C 0.92747 0.02653 0.14808 0.0
C1202 C 0.91124 0.04762 0.13723 0.0
H1203 H 0.9216 0.97196 0.1542 0.0
H1204 H 0.95739 0.04047 0.15325 0.0
S1205 S 0.81154 0.00951 0.11428 0.0
N1206 N 0.81466 0.97169 0.12241 0.0
N1207 N 0.85384 0.04622 0.12086 0.0
C1208 C 0.87242 0.02847 0.13081 0.0
C1209 C 0.85123 0.98807 0.13161 0.0
C1210 C 0.97 0.90147 0.14697 0.0
C1211 C 0.95032 0.86415 0.13599 0.0
C1212 C 0.00939 0.92127 0.14872 0.0
C1213 C 0.03047 0.90438 0.13962 0.0
H1214 H 0.95508 0.91669 0.15133 0.0
H1215 H 0.02352 0.95106 0.15438 0.0
S1216 S 0.99173 0.80469 0.11558 0.0
N1217 N 0.95407 0.80908 0.12072 0.0
N1218 N 0.02849 0.84615 0.12436 0.0
C1219 C 0.01089 0.86553 0.13259 0.0
C1220 C 0.97057 0.84538 0.13065 0.0
C1221 C 0.06739 0.09641 0.33643 0.0
C1222 C 0.08328 0.13395 0.34666 0.0
C1223 C 0.08858 0.07816 0.3358 0.0
C1224 C 0.12651 0.09681 0.34519 0.0
H1225 H 0.0374 0.07989 0.33167 0.0
H1226 H 0.07424 0.04827 0.33059 0.0
S1227 S 0.18321 0.19736 0.36814 0.0
N1228 N 0.14048 0.19085 0.36199 0.0
N1229 N 0.18072 0.15659 0.36043 0.0
C1230 C 0.14401 0.13568 0.35176 0.0
C1231 C 0.12223 0.1543 0.35258 0.0
C1232 C 0.85767 0.01067 0.35762 0.0
C1233 C 0.89262 0.03116 0.34249 0.0
C1234 C 0.83895 0.97101 0.35902 0.0
C1235 C 0.85459 0.95094 0.3451 0.0
H1236 H 0.84694 0.02537 0.3713 0.0
H1237 H 0.81452 0.95644 0.37379 0.0
S1238 S 0.9404 0.99114 0.29676 0.0
N1239 N 0.93841 0.02831 0.309 0.0
N1240 N 0.90316 0.95388 0.31141 0.0
C1241 C 0.88688 0.97092 0.32682 0.0
C1242 C 0.90595 0.0111 0.32555 0.0
C1243 C 0.02758 0.87432 0.35719 0.0
C1244 C 0.04887 0.91192 0.34724 0.0
C1245 C 0.98793 0.85472 0.35495 0.0
C1246 C 0.96862 0.8725 0.34318 0.0
H1247 H 0.04118 0.86138 0.36953 0.0
H1248 H 0.9723 0.82712 0.36551 0.0
S1249 S 0.01252 0.96764 0.30822 0.0
N1250 N 0.04857 0.96372 0.32051 0.0
N1251 N 0.97424 0.92732 0.31681 0.0
C1252 C 0.99002 0.90844 0.33006 0.0
C1253 C 0.03016 0.92807 0.33201 0.0
C1254 C 0.91092 0.90039 0.82916 0.0
C1255 C 0.89377 0.86391 0.84177 0.0
C1256 C 0.8931 0.92196 0.83045 0.0
C1257 C 0.8575 0.90772 0.84428 0.0
H1258 H 0.93978 0.91368 0.82101 0.0
H1259 H 0.90885 0.95125 0.82333 0.0
S1260 S 0.79818 0.81177 0.87612 0.0
N1261 N 0.83713 0.81262 0.86473 0.0
N1262 N 0.80359 0.85343 0.86708 0.0
C1263 C 0.83813 0.8698 0.85357 0.0
C1264 C 0.85633 0.84773 0.85228 0.0
C1265 C 0.13768 0.00615 0.85531 0.0
C1266 C 0.11983 0.0263 0.84573 0.0
C1267 C 0.11767 0.96649 0.85647 0.0
C1268 C 0.07957 0.94617 0.84769 0.0
H1269 H 0.16591 0.02101 0.86484 0.0
H1270 H 0.13082 0.95206 0.86719 0.0
S1271 S 0.02308 0.98535 0.81428 0.0
N1272 N 0.06425 0.0228 0.8224 0.0
N1273 N 0.02689 0.94844 0.82425 0.0
C1274 C 0.06314 0.96587 0.83451 0.0
C1275 C 0.08323 0.00599 0.83361 0.0
C1276 C 0.98875 0.08408 0.83252 0.0
C1277 C 0.96742 0.0999 0.84356 0.0
C1278 C 0.0282 0.10413 0.83394 0.0
C1279 C 0.04782 0.1406 0.84669 0.0
H1280 H 0.97481 0.05479 0.82537 0.0
H1281 H 0.04326 0.08944 0.82806 0.0
S1282 S 0.0058 0.19766 0.87263 0.0
N1283 N 0.96915 0.15675 0.86252 0.0
N1284 N 0.04362 0.19401 0.86589 0.0
C1285 C 0.02728 0.15851 0.85421 0.0
C1286 C 0.98688 0.1382 0.85244 0.0
C1287 C 0.87825 0.8502 0.62815 0.0
C1288 C 0.91673 0.86895 0.63604 0.0
C1289 C 0.85747 0.86912 0.62956 0.0
C1290 C 0.87479 0.90723 0.63872 0.0
H1291 H 0.86532 0.82241 0.61781 0.0
H1292 H 0.82911 0.85521 0.62026 0.0
S1293 S 0.97233 0.96551 0.66808 0.0
N1294 N 0.96927 0.92504 0.65835 0.0
N1295 N 0.93042 0.9605 0.66081 0.0
C1296 C 0.91178 0.92441 0.65019 0.0
C1297 C 0.93274 0.90525 0.64887 0.0
C1298 C 0.08861 0.98945 0.65485 0.0
C1299 C 0.10476 0.96936 0.64185 0.0
C1300 C 0.10731 0.0289 0.65365 0.0
C1301 C 0.14278 0.04955 0.63945 0.0
H1302 H 0.05978 0.97449 0.66315 0.0
H1303 H 0.09223 0.04306 0.66099 0.0
S1304 S 0.19966 0.01073 0.60647 0.0
N1305 N 0.16039 0.9732 0.61816 0.0
N1306 N 0.1955 0.04763 0.61586 0.0
C1307 C 0.16119 0.03019 0.62977 0.0
C1308 C 0.14214 0.98987 0.63103 0.0
C1309 C 0.97199 0.07557 0.64877 0.0
C1310 C 0.95263 0.09199 0.63489 0.0
C1311 C 0.01144 0.09489 0.6502 0.0
C1312 C 0.03285 0.13131 0.63779 0.0
H1313 H 0.9567 0.04625 0.65586 0.0
H1314 H 0.0253 0.07996 0.65859 0.0
S1315 S 0.99507 0.1883 0.60263 0.0
N1316 N 0.95713 0.14787 0.6116 0.0
N1317 N 0.03153 0.18472 0.61444 0.0
C1318 C 0.01362 0.14958 0.62693 0.0
C1319 C 0.97332 0.1297 0.6254 0.0
C1320 C 0.81904 0.45586 0.46564 0.0
C1321 C 0.79935 0.41698 0.47212 0.0
C1322 C 0.80044 0.47699 0.46656 0.0
C1323 C 0.76174 0.45961 0.47383 0.0
H1324 H 0.84761 0.46908 0.45683 0.0
H1325 H 0.81533 0.5059 0.45848 0.0
S1326 S 0.70025 0.36063 0.49872 0.0
N1327 N 0.74119 0.36364 0.49091 0.0
N1328 N 0.70637 0.40314 0.49235 0.0
C1329 C 0.74324 0.42194 0.48369 0.0
C1330 C 0.76207 0.40064 0.48291 0.0
C1331 C 0.57534 0.32439 0.48502 0.0
C1332 C 0.53777 0.30357 0.47484 0.0
C1333 C 0.59552 0.36383 0.48306 0.0
C1334 C 0.57893 0.3839 0.4708 0.0
H1335 H 0.59024 0.30997 0.49213 0.0
H1336 H 0.62532 0.3785 0.48868 0.0
S1337 S 0.4802 0.3432 0.44424 0.0
N1338 N 0.48353 0.30625 0.45505 0.0
N1339 N 0.52188 0.38062 0.45119 0.0
C1340 C 0.54041 0.36387 0.46337 0.0
C1341 C 0.51967 0.32354 0.46547 0.0
C1342 C 0.67684 0.24928 0.48497 0.0
C1343 C 0.69675 0.2318 0.47433 0.0
C1344 C 0.63739 0.23075 0.48359 0.0
C1345 C 0.6164 0.19409 0.47141 0.0
H1346 H 0.692 0.27866 0.49186 0.0
H1347 H 0.62342 0.24652 0.48945 0.0
S1348 S 0.65478 0.13429 0.4441 0.0
N1349 N 0.69247 0.17428 0.45442 0.0
N1350 N 0.61801 0.13947 0.45164 0.0
C1351 C 0.63561 0.17484 0.46366 0.0
C1352 C 0.67597 0.19374 0.46518 0.0
C1353 C 0.74701 0.39817 0.68146 0.0
C1354 C 0.78582 0.4166 0.68804 0.0
C1355 C 0.72686 0.41741 0.68314 0.0
C1356 C 0.7447 0.45574 0.69153 0.0
H1357 H 0.73152 0.36796 0.67751 0.0
H1358 H 0.69648 0.40139 0.68034 0.0
S1359 S 0.84672 0.5182 0.70652 0.0
N1360 N 0.84231 0.47648 0.69942 0.0
N1361 N 0.804 0.51258 0.7028 0.0
C1362 C 0.78409 0.47551 0.69493 0.0
C1363 C 0.8048 0.45589 0.6931 0.0
C1364 C 0.50869 0.30007 0.69346 0.0
C1365 C 0.52882 0.2821 0.68442 0.0
C1366 C 0.52586 0.33966 0.6926 0.0
C1367 C 0.56345 0.36199 0.68268 0.0
H1368 H 0.48139 0.28397 0.70443 0.0
H1369 H 0.5113 0.35285 0.70305 0.0
S1370 S 0.62464 0.32773 0.65047 0.0
N1371 N 0.58546 0.28896 0.66037 0.0
N1372 N 0.61763 0.36314 0.65891 0.0
C1373 C 0.5818 0.34396 0.67001 0.0
C1374 C 0.56445 0.30395 0.67086 0.0
C1375 C 0.65697 0.23185 0.66903 0.0
C1376 C 0.635 0.19535 0.68115 0.0
C1377 C 0.69641 0.25067 0.67077 0.0
C1378 C 0.71519 0.23372 0.68479 0.0
H1379 H 0.64356 0.2473 0.66083 0.0
H1380 H 0.71208 0.28013 0.66409 0.0
S1381 S 0.6711 0.13657 0.71556 0.0
N1382 N 0.63514 0.141 0.7037 0.0
N1383 N 0.70951 0.17694 0.7073 0.0
C1384 C 0.69394 0.1958 0.69368 0.0
C1385 C 0.65365 0.17641 0.69175 0.0
C1386 C 0.53381 0.18943 0.19444 0.0
C1387 C 0.57233 0.20743 0.18643 0.0
C1388 C 0.51476 0.21003 0.19642 0.0
C1389 C 0.53381 0.24895 0.19021 0.0
H1390 H 0.51952 0.16044 0.20236 0.0
H1391 H 0.48644 0.19636 0.20579 0.0
S1392 S 0.63186 0.30673 0.16166 0.0
N1393 N 0.62661 0.26444 0.16732 0.0
N1394 N 0.5909 0.303 0.17072 0.0
C1395 C 0.57075 0.2659 0.17858 0.0
C1396 C 0.59004 0.24512 0.17673 0.0
C1397 C 0.75934 0.34493 0.17753 0.0
C1398 C 0.79671 0.36548 0.1882 0.0
C1399 C 0.73934 0.30547 0.17854 0.0
C1400 C 0.75593 0.28519 0.19035 0.0
H1401 H 0.74445 0.3595 0.1708 0.0
H1402 H 0.7096 0.29086 0.17267 0.0
S1403 S 0.85425 0.32536 0.21776 0.0
N1404 N 0.85085 0.36254 0.20782 0.0
N1405 N 0.81279 0.28806 0.20997 0.0
C1406 C 0.79432 0.30507 0.19818 0.0
C1407 C 0.81488 0.34543 0.19702 0.0
C1408 C 0.69479 0.43486 0.17713 0.0
C1409 C 0.71555 0.47157 0.18915 0.0
C1410 C 0.65534 0.41609 0.17602 0.0
C1411 C 0.63535 0.43337 0.18693 0.0
H1412 H 0.70893 0.41929 0.17118 0.0
H1413 H 0.64029 0.3867 0.16917 0.0
S1414 S 0.6769 0.53089 0.21702 0.0
N1415 N 0.71377 0.52605 0.20906 0.0
N1416 N 0.6393 0.49072 0.20694 0.0
C1417 C 0.65591 0.47148 0.19593 0.0
C1418 C 0.69624 0.49065 0.19709 0.0
C1419 C 0.55821 0.19175 0.9688 0.0
C1420 C 0.59784 0.21188 0.96806 0.0
C1421 C 0.53784 0.21101 0.97088 0.0
C1422 C 0.55668 0.25082 0.97215 0.0
H1423 H 0.54297 0.16154 0.96491 0.0
H1424 H 0.5074 0.19486 0.96858 0.0
S1425 S 0.66008 0.31533 0.97693 0.0
N1426 N 0.65499 0.27283 0.97378 0.0
N1427 N 0.6169 0.30878 0.97744 0.0
C1428 C 0.59614 0.27056 0.97501 0.0
C1429 C 0.6167 0.25111 0.97301 0.0
C1430 C 0.81015 0.32609 0.95699 0.0
C1431 C 0.77759 0.30254 0.97408 0.0
C1432 C 0.82592 0.36544 0.95753 0.0
C1433 C 0.80943 0.38218 0.97512 0.0
H1434 H 0.82113 0.31393 0.94079 0.0
H1435 H 0.84852 0.38239 0.94165 0.0
S1436 S 0.73037 0.33345 0.02987 0.0
N1437 N 0.73395 0.29897 0.01337 0.0
N1438 N 0.76349 0.37308 0.01425 0.0
C1439 C 0.77971 0.35925 -0.00505 0.0
C1440 C 0.76376 0.31926 -0.00554 0.0
C1441 C 0.67593 0.48304 0.9604 0.0
C1442 C 0.69335 0.46689 0.97775 0.0
C1443 C 0.63643 0.46486 0.95757 0.0
C1444 C 0.61315 0.43055 0.97264 0.0
H1445 H 0.69291 0.50774 0.94642 0.0
H1446 H 0.62434 0.47575 0.94122 0.0
S1447 S 0.64451 0.38129 0.02605 0.0
N1448 N 0.68419 0.41781 0.01371 0.0
N1449 N 0.60995 0.38428 0.00912 0.0
C1450 C 0.6301 0.41659 0.99277 0.0
C1451 C 0.67024 0.43459 -0.00485 0.0
C1452 C 0.48702 0.78751 0.78125 0.0
C1453 C 0.46619 0.74813 0.7854 0.0
C1454 C 0.46912 0.80926 0.78254 0.0
C1455 C 0.43008 0.79211 0.7881 0.0
H1456 H 0.51645 0.80105 0.77454 0.0
H1457 H 0.48521 0.83894 0.77667 0.0
S1458 S 0.36515 0.69147 0.80668 0.0
N1459 N 0.40606 0.694 0.7998 0.0
N1460 N 0.37269 0.73484 0.80237 0.0
C1461 C 0.41001 0.75351 0.79518 0.0
C1462 C 0.42804 0.73149 0.7938 0.0
C1463 C 0.25376 0.65308 0.78319 0.0
C1464 C 0.21427 0.63342 0.78598 0.0
C1465 C 0.27408 0.69237 0.78229 0.0
C1466 C 0.25599 0.71383 0.78455 0.0
H1467 H 0.26898 0.63798 0.77979 0.0
H1468 H 0.30409 0.70605 0.77791 0.0
S1469 S 0.15364 0.6764 0.79606 0.0
N1470 N 0.15794 0.63837 0.79397 0.0
N1471 N 0.1968 0.71291 0.79268 0.0
C1472 C 0.21695 0.69487 0.79003 0.0
C1473 C 0.19593 0.65445 0.79071 0.0
C1474 C 0.34568 0.54541 0.75229 0.0
C1475 C 0.36551 0.56437 0.77885 0.0
C1476 C 0.3063 0.52548 0.75163 0.0
C1477 C 0.28504 0.52366 0.77749 0.0
H1478 H 0.36078 0.54737 0.73134 0.0
H1479 H 0.29231 0.51305 0.73013 0.0
S1480 S 0.32319 0.56597 0.85344 0.0
N1481 N 0.36116 0.57797 0.83238 0.0
N1482 N 0.28645 0.54041 0.83105 0.0
C1483 C 0.30431 0.54034 0.80486 0.0
C1484 C 0.34479 0.56075 0.80557 0.0
C1485 C 0.46374 0.82554 0.0395 0.0
C1486 C 0.42748 0.81112 0.02702 0.0
C1487 C 0.48285 0.80509 0.03721 0.0
C1488 C 0.46579 0.76948 0.02286 0.0
H1489 H 0.47587 0.85088 0.05341 0.0
H1490 H 0.50934 0.81542 0.04932 0.0
S1491 S 0.3745 0.72363 0.98165 0.0
N1492 N 0.37786 0.76255 -0.00404 0.0
N1493 N 0.41331 0.72362 0.9922 0.0
C1494 C 0.4312 0.75671 0.00787 0.0
C1495 C 0.41212 0.77774 0.00983 0.0
C1496 C 0.26659 0.67834 0.02435 0.0
C1497 C 0.24685 0.69823 0.02576 0.0
C1498 C 0.24756 0.63898 0.02581 0.0
C1499 C 0.20802 0.61784 0.02875 0.0
H1500 H 0.29719 0.69339 0.02433 0.0
H1501 H 0.26422 0.62511 0.0268 0.0
S1502 S 0.1427 0.6559 0.02807 0.0
N1503 N 0.18519 0.6937 0.026 0.0
N1504 N 0.14934 0.61923 0.02885 0.0
C1505 C 0.18759 0.63698 0.02692 0.0
C1506 C 0.20707 0.67737 0.02538 0.0
C1507 C 0.3243 0.51775 0.034 0.0
C1508 C 0.30149 0.53245 0.02411 0.0
C1509 C 0.3639 0.54025 0.03367 0.0
C1510 C 0.38145 0.57789 0.02348 0.0
H1511 H 0.31154 0.49015 0.04463 0.0
H1512 H 0.38058 0.52939 0.04415 0.0
S1513 S 0.33394 0.62641 0.99004 0.0
N1514 N 0.29902 0.58441 -0.00012 0.0
N1515 N 0.37329 0.62678 -0.00069 0.0
C1516 C 0.35888 0.59131 0.01074 0.0
C1517 C 0.31885 0.56851 0.01105 0.0
C1518 C 0.26108 0.58143 0.53067 0.0
C1519 C 0.24064 0.54179 0.53104 0.0
C1520 C 0.24267 0.60237 0.53169 0.0
C1521 C 0.20306 0.58456 0.53329 0.0
H1522 H 0.29167 0.59641 0.53161 0.0
H1523 H 0.25975 0.63285 0.53326 0.0
S1524 S 0.13638 0.48151 0.53049 0.0
N1525 N 0.17859 0.48538 0.5295 0.0
N1526 N 0.14377 0.5251 0.53163 0.0
C1527 C 0.18209 0.54504 0.53077 0.0
C1528 C 0.20098 0.52353 0.52962 0.0
C1529 C 0.42062 0.67951 0.53078 0.0
C1530 C 0.46017 0.69866 0.53307 0.0
C1531 C 0.39954 0.64012 0.53148 0.0
C1532 C 0.41715 0.61828 0.53462 0.0
H1533 H 0.40568 0.69518 0.53033 0.0
H1534 H 0.36901 0.62669 0.53148 0.0
S1535 S 0.52013 0.65458 0.5388 0.0
N1536 N 0.51646 0.69294 0.53614 0.0
N1537 N 0.47653 0.61842 0.53759 0.0
C1538 C 0.45679 0.63683 0.53449 0.0
C1539 C 0.47842 0.67722 0.5337 0.0
C1540 C 0.36153 0.75876 0.53157 0.0
C1541 C 0.38324 0.79834 0.53351 0.0
C1542 C 0.32216 0.7403 0.53068 0.0
C1543 C 0.30289 0.76067 0.53161 0.0
H1544 H 0.37502 0.74174 0.53274 0.0
H1545 H 0.30663 0.70971 0.53128 0.0
S1546 S 0.34671 0.86492 0.53251 0.0
N1547 N 0.38295 0.85758 0.53301 0.0
N1548 N 0.3084 0.8227 0.53119 0.0
C1549 C 0.32421 0.80036 0.53065 0.0
C1550 C 0.36462 0.81928 0.53163 0.0
C1551 C 0.20495 0.50941 0.29063 0.0
C1552 C 0.24376 0.52831 0.29731 0.0
C1553 C 0.18442 0.52855 0.29225 0.0
C1554 C 0.2024 0.56699 0.30039 0.0
H1555 H 0.19134 0.48107 0.28129 0.0
H1556 H 0.15553 0.51437 0.2841 0.0
S1557 S 0.30134 0.62628 0.32597 0.0
N1558 N 0.29768 0.58532 0.31702 0.0
N1559 N 0.25921 0.62119 0.3198 0.0
C1560 C 0.23999 0.58465 0.31031 0.0
C1561 C 0.26071 0.56529 0.3088 0.0
C1562 C 0.4257 0.69381 0.29959 0.0
C1563 C 0.46433 0.71456 0.29231 0.0
C1564 C 0.40657 0.65441 0.30061 0.0
C1565 C 0.42534 0.63427 0.29454 0.0
H1566 H 0.40952 0.70805 0.30227 0.0
H1567 H 0.37631 0.6395 0.30397 0.0
S1568 S 0.52727 0.67554 0.27736 0.0
N1569 N 0.52151 0.71252 0.28152 0.0
N1570 N 0.48545 0.638 0.28364 0.0
C1571 C 0.46468 0.65473 0.28996 0.0
C1572 C 0.48425 0.69509 0.2888 0.0
C1573 C 0.30698 0.73229 0.30183 0.0
C1574 C 0.28501 0.74937 0.29652 0.0
C1575 C 0.34629 0.75369 0.30299 0.0
C1576 C 0.36509 0.79301 0.29899 0.0
H1577 H 0.29386 0.7018 0.30261 0.0
H1578 H 0.36217 0.73902 0.30444 0.0
S1579 S 0.32028 0.85201 0.29058 0.0
N1580 N 0.2844 0.80827 0.29193 0.0
N1581 N 0.35886 0.84889 0.29425 0.0
C1582 C 0.34342 0.81095 0.29736 0.0
C1583 C 0.3031 0.78897 0.2961 0.0
C1584 C 0.96287 0.17919 0.25431 0.0
C1585 C 0.99389 0.19948 0.27397 0.0
C1586 C 0.96725 0.18144 0.22248 0.0
C1587 C 0.00286 0.20392 0.20886 0.0
H1588 H 0.93496 0.16059 0.26347 0.0
H1589 H 0.94257 0.16431 0.20851 0.0
S1590 S 0.09266 0.26591 0.24967 0.0
N1591 N 0.06123 0.24531 0.27718 0.0
N1592 N 0.06926 0.24929 0.21733 0.0
C1593 C 0.0339 0.22562 0.22809 0.0
C1594 C 0.02946 0.22351 0.26059 0.0
C1595 C 0.78713 0.81848 0.26018 0.0
C1596 C 0.79995 0.79599 0.27427 0.0
C1597 C 0.78535 0.82043 0.22824 0.0
C1598 C 0.79608 0.79977 0.20899 0.0
H1599 H 0.77962 0.83585 0.27387 0.0
H1600 H 0.77634 0.83907 0.21866 0.0
S1601 S 0.82752 0.73308 0.23474 0.0
N1602 N 0.82067 0.75028 0.26674 0.0
N1603 N 0.81714 0.7535 0.2068 0.0
C1604 C 0.80731 0.77574 0.22291 0.0
C1605 C 0.80933 0.77401 0.25547 0.0
C1606 C 0.18092 0.97065 0.25883 0.0
C1607 C 0.20246 0.00604 0.27308 0.0
C1608 C 0.17921 0.96706 0.22686 0.0
C1609 C 0.19915 0.99867 0.20766 0.0
H1610 H 0.1642 0.94552 0.27241 0.0
H1611 H 0.16134 0.93926 0.21721 0.0
S1612 S 0.26297 0.09735 0.23368 0.0
N1613 N 0.24642 0.073 0.26561 0.0
N1614 N 0.24346 0.06645 0.20566 0.0
C1615 C 0.22214 0.03408 0.2217 0.0
C1616 C 0.22369 0.03772 0.25429 0.0
C1617 C 0.96779 0.78692 0.72181 0.0
C1618 C 0.00393 0.80145 0.70875 0.0
C1619 C 0.96252 0.78397 0.7536 0.0
C1620 C 0.99313 0.79519 0.77383 0.0
H1621 H 0.94331 0.77876 0.70742 0.0
H1622 H 0.9342 0.77348 0.76231 0.0
S1623 S 0.09328 0.8319 0.75119 0.0
N1624 N 0.07057 0.82484 0.71846 0.0
N1625 N 0.06089 0.8193 0.77813 0.0
C1626 C 0.02931 0.80838 0.76101 0.0
C1627 C 0.03466 0.81155 0.72857 0.0
C1628 C 0.21226 0.18333 0.72247 0.0
C1629 C 0.19677 0.20362 0.70857 0.0
C1630 C 0.21154 0.17882 0.75422 0.0
C1631 C 0.1957 0.19474 0.77352 0.0
H1632 H 0.224 0.16963 0.70873 0.0
H1633 H 0.22322 0.16234 0.76366 0.0
S1634 S 0.15354 0.25259 0.74906 0.0
N1635 N 0.16669 0.2414 0.71683 0.0
N1636 N 0.1655 0.23301 0.77665 0.0
C1637 C 0.18133 0.2163 0.76014 0.0
C1638 C 0.18179 0.22068 0.72767 0.0
C1639 C 0.78699 0.97046 0.75982 0.0
C1640 C 0.80043 0.00583 0.77401 0.0
C1641 C 0.78607 0.96697 0.72791 0.0
C1642 C 0.79833 0.99866 0.70876 0.0
H1643 H 0.77826 0.94528 0.77343 0.0
H1644 H 0.77637 0.9392 0.71829 0.0
S1645 S 0.83247 0.09729 0.73457 0.0
N1646 N 0.82365 0.07282 0.76654 0.0
N1647 N 0.8219 0.06648 0.70659 0.0
C1648 C 0.8103 0.03405 0.72268 0.0
C1649 C 0.8114 0.03758 0.75524 0.0
C1650 C 0.69685 0.53781 0.59992 0.0
C1651 C 0.66215 0.52817 0.61387 0.0
C1652 C 0.70104 0.54051 0.56804 0.0
C1653 C 0.67076 0.53388 0.5487 0.0
H1654 H 0.7208 0.54226 0.61365 0.0
H1655 H 0.72812 0.54706 0.55856 0.0
S1656 S 0.57496 0.51172 0.57411 0.0
N1657 N 0.5977 0.51473 0.60614 0.0
N1658 N 0.60542 0.51994 0.54628 0.0
C1659 C 0.63625 0.52568 0.56248 0.0
C1660 C 0.63198 0.52276 0.59499 0.0
C1661 C 0.45582 0.1516 0.59976 0.0
C1662 C 0.46757 0.12789 0.61319 0.0
C1663 C 0.45441 0.15468 0.56792 0.0
C1664 C 0.46445 0.13401 0.54806 0.0
H1665 H 0.4488 0.16899 0.6139 0.0
H1666 H 0.44603 0.17408 0.55892 0.0
S1667 S 0.49346 0.06479 0.57181 0.0
N1668 N 0.48682 0.08125 0.6043 0.0
N1669 N 0.48408 0.08674 0.54447 0.0
C1670 C 0.47477 0.10891 0.56124 0.0
C1671 C 0.47639 0.10597 0.59375 0.0
C1672 C 0.8718 0.36128 0.56304 0.0
C1673 C 0.86425 0.32758 0.54836 0.0
C1674 C 0.87432 0.36455 0.595 0.0
C1675 C 0.86966 0.33432 0.6135 0.0
H1676 H 0.87448 0.38491 0.54983 0.0
H1677 H 0.87877 0.39059 0.60524 0.0
S1678 S 0.85489 0.24186 0.58562 0.0
N1679 N 0.85576 0.26475 0.55425 0.0
N1680 N 0.86101 0.27077 0.61422 0.0
C1681 C 0.86412 0.30112 0.59886 0.0
C1682 C 0.86122 0.29776 0.56634 0.0
C1683 C 0.63958 0.12893 0.06095 0.0
C1684 C 0.67448 0.13821 0.04759 0.0
C1685 C 0.63483 0.12666 0.0928 0.0
C1686 C 0.66473 0.13334 0.11259 0.0
H1687 H 0.61596 0.12446 0.04676 0.0
H1688 H 0.60767 0.12044 0.1019 0.0
S1689 S 0.76075 0.15447 0.08868 0.0
N1690 N 0.73861 0.15129 0.05628 0.0
N1691 N 0.72989 0.14678 0.11603 0.0
C1692 C 0.69942 0.14112 0.09935 0.0
C1693 C 0.70424 0.14367 0.06692 0.0
C1694 C 0.85172 0.54932 0.0997 0.0
C1695 C 0.8686 0.53011 0.11326 0.0
C1696 C 0.84911 0.55119 0.06789 0.0
C1697 C 0.86352 0.53422 0.04822 0.0
H1698 H 0.83941 0.56225 0.11372 0.0
H1699 H 0.83516 0.56565 0.05871 0.0
S1700 S 0.9125 0.48235 0.07188 0.0
N1701 N 0.90163 0.49527 0.10436 0.0
N1702 N 0.89666 0.49868 0.04458 0.0
C1703 C 0.88164 0.51599 0.06138 0.0
C1704 C 0.88416 0.51393 0.09384 0.0
C1705 C 0.48222 0.36165 0.06216 0.0
C1706 C 0.46652 0.32568 0.04861 0.0
C1707 C 0.4842 0.366 0.09405 0.0
C1708 C 0.47018 0.33454 0.11367 0.0
H1709 H 0.49411 0.3868 0.04807 0.0
H1710 H 0.49723 0.39434 0.10333 0.0
S1711 S 0.42397 0.23389 0.08951 0.0
N1712 N 0.43499 0.25788 0.05716 0.0
N1713 N 0.4386 0.26584 0.11696 0.0
C1714 C 0.4533 0.29826 0.10034 0.0
C1715 C 0.45154 0.2939 0.06788 0.0
C1716 C 0.30611 0.83997 0.89226 0.0
C1717 C 0.34175 0.8599 0.8781 0.0
C1718 C 0.30235 0.83924 0.92416 0.0
C1719 C 0.33403 0.85864 0.94334 0.0
H1720 H 0.28076 0.82441 0.87864 0.0
H1721 H 0.27425 0.82324 0.93378 0.0
S1722 S 0.43387 0.91584 0.91775 0.0
N1723 N 0.40944 0.90007 0.88576 0.0
N1724 N 0.40249 0.89872 0.94563 0.0
C1725 C 0.3699 0.87899 0.92947 0.0
C1726 C 0.37374 0.87957 0.89694 0.0
C1727 C 0.15508 0.45251 0.92348 0.0
C1728 C 0.1446 0.47332 0.94275 0.0
C1729 C 0.15392 0.45502 0.89151 0.0
C1730 C 0.1425 0.47868 0.87736 0.0
H1731 H 0.16406 0.43387 0.93313 0.0
H1732 H 0.1622 0.43825 0.87784 0.0
S1733 S 0.1135 0.54034 0.91755 0.0
N1734 N 0.12327 0.51922 0.9453 0.0
N1735 N 0.12105 0.52392 0.88544 0.0
C1736 C 0.13222 0.49992 0.89641 0.0
C1737 C 0.13324 0.49722 0.92897 0.0
C1738 C 0.5221 0.64003 0.9275 0.0
C1739 C 0.52741 0.67333 0.94164 0.0
C1740 C 0.51936 0.63578 0.89562 0.0
C1741 C 0.52208 0.66475 0.87663 0.0
H1742 H 0.52014 0.61697 0.9411 0.0
H1743 H 0.51566 0.60982 0.88579 0.0
S1744 S 0.53318 0.75646 0.90183 0.0
N1745 N 0.53336 0.73515 0.93384 0.0
N1746 N 0.52843 0.72707 0.87405 0.0
C1747 C 0.52689 0.69799 0.89034 0.0
C1748 C 0.52951 0.70231 0.92278 0.0
C1749 C 0.30288 0.46019 0.39231 0.0
C1750 C 0.33834 0.47543 0.37789 0.0
C1751 C 0.29962 0.45939 0.42424 0.0
C1752 C 0.33168 0.47361 0.44322 0.0
H1753 H 0.27727 0.44922 0.37885 0.0
H1754 H 0.27164 0.44754 0.43405 0.0
S1755 S 0.43123 0.51541 0.41691 0.0
N1756 N 0.40621 0.5042 0.38508 0.0
N1757 N 0.40029 0.50285 0.44502 0.0
C1758 C 0.36739 0.48855 0.42909 0.0
C1759 C 0.37067 0.48943 0.39652 0.0
C1760 C 0.51136 0.87722 0.3977 0.0
C1761 C 0.52593 0.85999 0.37841 0.0
C1762 C 0.51297 0.87502 0.42959 0.0
C1763 C 0.52901 0.85535 0.44367 0.0
H1764 H 0.49855 0.89256 0.38816 0.0
H1765 H 0.50114 0.88873 0.44327 0.0
S1766 S 0.57128 0.80514 0.40352 0.0
N1767 N 0.55706 0.82246 0.37578 0.0
N1768 N 0.56014 0.81847 0.43565 0.0
C1769 C 0.54389 0.83808 0.42466 0.0
C1770 C 0.54235 0.84042 0.39212 0.0
C1771 C 0.11894 0.633 0.39795 0.0
C1772 C 0.13937 0.66415 0.37853 0.0
C1773 C 0.12156 0.63701 0.42988 0.0
C1774 C 0.14496 0.67232 0.44382 0.0
H1775 H 0.1006 0.60521 0.38846 0.0
H1776 H 0.10513 0.61202 0.44368 0.0
S1777 S 0.20556 0.76279 0.40307 0.0
N1778 N 0.18455 0.73154 0.37553 0.0
N1779 N 0.1895 0.7391 0.43534 0.0
C1780 C 0.16569 0.70376 0.4246 0.0
C1781 C 0.16288 0.69968 0.39207 0.0
C1782 C 0.04407 0.33607 0.04095 0.0
C1783 C 0.05897 0.36798 0.06007 0.0
C1784 C 0.02551 0.2995 0.05333 0.0
C1785 C 0.02222 0.29395 0.08518 0.0
H1786 H 0.04939 0.33944 0.01653 0.0
H1787 H 0.01702 0.27568 0.03808 0.0
S1788 S 0.05425 0.36815 0.14474 0.0
N1789 N 0.0665 0.39167 0.11208 0.0
N1790 N 0.03292 0.32295 0.13539 0.0
C1791 C 0.0347 0.32551 0.10435 0.0
C1792 C 0.05275 0.36263 0.09174 0.0
C1793 C 0.67356 0.70724 0.10165 0.0
C1794 C 0.70524 0.72971 0.08334 0.0
C1795 C 0.63717 0.68856 0.08889 0.0
C1796 C 0.63161 0.69284 0.0577 0.0
H1797 H 0.67665 0.70637 0.12623 0.0
H1798 H 0.61314 0.67388 0.10405 0.0
S1799 S 0.70592 0.746 -7e-05 0.0
N1800 N 0.72928 0.75241 0.0323 0.0
N1801 N 0.66083 0.71848 0.00848 0.0
C1802 C 0.66335 0.71305 0.0389 0.0
C1803 C 0.70029 0.7313 0.05173 0.0
C1804 C 0.26133 0.96283 0.05097 0.0
C1805 C 0.26623 0.97488 0.08157 0.0
C1806 C 0.27931 0.94389 0.03954 0.0
C1807 C 0.30307 0.9369 0.05829 0.0
H1808 H 0.24114 0.96535 0.03653 0.0
H1809 H 0.27272 0.93254 0.01651 0.0
S1810 S 0.32702 0.96532 0.13944 0.0
N1811 N 0.29774 0.98049 0.12995 0.0
N1812 N 0.33255 0.94571 0.10824 0.0
C1813 C 0.31044 0.95141 0.08824 0.0
C1814 C 0.29162 0.97017 0.1 0.0
C1815 C 0.32792 0.04082 0.38074 0.0
C1816 C 0.29523 0.02857 0.39858 0.0
C1817 C 0.36388 0.05844 0.39437 0.0
C1818 C 0.36811 0.06533 0.4261 0.0
H1819 H 0.32581 0.03889 0.356 0.0
H1820 H 0.38854 0.06968 0.37972 0.0
S1821 S 0.29108 0.03675 0.48276 0.0
N1822 N 0.2691 0.02206 0.44957 0.0
N1823 N 0.33663 0.0565 0.47506 0.0
C1824 C 0.3355 0.05138 0.44425 0.0
C1825 C 0.29901 0.03267 0.43049 0.0
C1826 C 0.95559 0.28538 0.38033 0.0
C1827 C 0.97251 0.26949 0.39846 0.0
C1828 C 0.93826 0.30403 0.39376 0.0
C1829 C 0.93655 0.30652 0.42575 0.0
H1830 H 0.95348 0.28109 0.35576 0.0
H1831 H 0.92312 0.31341 0.37916 0.0
S1832 S 0.97903 0.2722 0.48311 0.0
N1833 N 0.98933 0.26035 0.4498 0.0
N1834 N 0.95533 0.29409 0.47509 0.0
C1835 C 0.95539 0.29291 0.444 0.0
C1836 C 0.97384 0.27475 0.43031 0.0
C1837 C 0.7117 0.67366 0.38318 0.0
C1838 C 0.73304 0.70608 0.40111 0.0
C1839 C 0.69338 0.63757 0.39656 0.0
C1840 C 0.69689 0.63294 0.42808 0.0
H1841 H 0.71112 0.67605 0.3585 0.0
H1842 H 0.67926 0.61308 0.38178 0.0
S1843 S 0.7479 0.70916 0.48492 0.0
N1844 N 0.75447 0.73157 0.45203 0.0
N1845 N 0.72135 0.66375 0.47701 0.0
C1846 C 0.71646 0.6653 0.44637 0.0
C1847 C 0.73427 0.70195 0.43289 0.0
C1848 C 0.93257 0.63163 0.89243 0.0
C1849 C 0.93088 0.62727 0.92439 0.0
C1850 C 0.95004 0.66769 0.87921 0.0
C1851 C 0.96723 0.70032 0.89754 0.0
H1852 H 0.91744 0.60721 0.87772 0.0
H1853 H 0.94801 0.6701 0.85465 0.0
S1854 S 0.97415 0.7036 0.98216 0.0
N1855 N 0.95009 0.65809 0.97391 0.0
N1856 N 0.98439 0.72596 0.94896 0.0
C1857 C 0.96855 0.69619 0.92934 0.0
C1858 C 0.9499 0.65955 0.94283 0.0
C1859 C 0.34566 0.30422 0.92364 0.0
C1860 C 0.36732 0.28614 0.9239 0.0
C1861 C 0.30907 0.28635 0.91063 0.0
C1862 C 0.29365 0.25036 0.89696 0.0
H1863 H 0.35664 0.33174 0.93413 0.0
H1864 H 0.29296 0.30079 0.91109 0.0
S1865 S 0.33995 0.19197 0.89117 0.0
N1866 N 0.37104 0.23091 0.90864 0.0
N1867 N 0.30339 0.19761 0.88482 0.0
C1868 C 0.31558 0.23255 0.89689 0.0
C1869 C 0.35214 0.25041 0.91011 0.0
C1870 C 0.69103 0.05393 0.89624 0.0
C1871 C 0.69383 0.06078 0.92794 0.0
C1872 C 0.7092 0.03623 0.88257 0.0
C1873 C 0.7296 0.02395 0.90039 0.0
H1874 H 0.67813 0.06573 0.8816 0.0
H1875 H 0.70963 0.03463 0.85781 0.0
S1876 S 0.74141 0.03122 0.98459 0.0
N1877 N 0.71586 0.05126 0.97695 0.0
N1878 N 0.74867 0.01659 0.95135 0.0
C1879 C 0.72951 0.02742 0.93232 0.0
C1880 C 0.71186 0.04619 0.94613 0.0
C1881 C 0.67516 0.96202 0.60385 0.0
C1882 C 0.70717 0.97685 0.58492 0.0
C1883 C 0.63883 0.94451 0.59122 0.0
C1884 C 0.63358 0.94051 0.55936 0.0
H1885 H 0.67819 0.96166 0.62848 0.0
H1886 H 0.61475 0.93091 0.60648 0.0
S1887 S 0.70831 0.97748 0.50015 0.0
N1888 N 0.73157 0.98968 0.53295 0.0
N1889 N 0.66299 0.95513 0.50919 0.0
C1890 C 0.66532 0.95736 0.54022 0.0
C1891 C 0.70231 0.97605 0.55306 0.0
C1892 C 0.03119 0.73211 0.55253 0.0
C1893 C 0.02438 0.73108 0.58414 0.0
C1894 C 0.04973 0.71406 0.54025 0.0
C1895 C 0.06114 0.69378 0.55916 0.0
H1896 H 0.02542 0.74987 0.53769 0.0
H1897 H 0.05767 0.71832 0.51629 0.0
S1898 S 0.04669 0.67996 0.64292 0.0
N1899 N 0.02822 0.70652 0.63375 0.0
N1900 N 0.06177 0.67128 0.61049 0.0
C1901 C 0.0515 0.68985 0.59033 0.0
C1902 C 0.03345 0.70895 0.60292 0.0
C1903 C 0.31008 0.36143 0.58889 0.0
C1904 C 0.30774 0.36708 0.5574 0.0
C1905 C 0.29136 0.32498 0.60139 0.0
C1906 C 0.27079 0.2933 0.5826 0.0
H1907 H 0.32325 0.38539 0.60429 0.0
H1908 H 0.29066 0.32177 0.62606 0.0
S1909 S 0.26071 0.29298 0.49836 0.0
N1910 N 0.28632 0.33815 0.50745 0.0
N1911 N 0.2524 0.26941 0.53085 0.0
C1912 C 0.27131 0.29841 0.55081 0.0
C1913 C 0.28954 0.33548 0.53819 0.0
C1914 C 0.02628 0.37673 0.73702 0.0
C1915 C 0.03302 0.39266 0.76655 0.0
C1916 C 0.98973 0.35866 0.72448 0.0
C1917 C 0.95913 0.35557 0.74141 0.0
H1918 H 0.04974 0.3814 0.72252 0.0
H1919 H 0.9859 0.34969 0.70077 0.0
S1920 S 0.96108 0.38706 0.82121 0.0
N1921 N 0.00551 0.40016 0.81347 0.0
N1922 N 0.93689 0.36567 0.79006 0.0
C1923 C 0.96501 0.36815 0.77184 0.0
C1924 C 0.00203 0.3868 0.78444 0.0
C1925 C 0.61935 0.64346 0.73484 0.0
C1926 C 0.60699 0.63714 0.76545 0.0
C1927 C 0.63681 0.62454 0.72209 0.0
C1928 C 0.64321 0.5997 0.7399 0.0
H1929 H 0.61206 0.66 0.7199 0.0
H1930 H 0.64259 0.62702 0.69773 0.0
S1931 S 0.62052 0.57755 0.82202 0.0
N1932 N 0.60527 0.60709 0.81379 0.0
N1933 N 0.63938 0.57264 0.79013 0.0
C1934 C 0.63423 0.59605 0.77117 0.0
C1935 C 0.61578 0.61457 0.78393 0.0
C1936 C 0.3961 0.03216 0.76968 0.0
C1937 C 0.39655 0.03735 0.73786 0.0
C1938 C 0.37816 0.99578 0.78229 0.0
C1939 C 0.35945 0.96381 0.76343 0.0
H1940 H 0.41274 0.05606 0.78456 0.0
H1941 H 0.38141 0.99254 0.80653 0.0
S1942 S 0.34966 0.96288 0.67908 0.0
N1943 N 0.37492 0.00812 0.68805 0.0
N1944 N 0.3398 0.93967 0.71185 0.0
C1945 C 0.35682 0.96888 0.73192 0.0
C1946 C 0.37584 0.0058 0.71905 0.0
C1947 C 0.64089 0.03196 0.26526 0.0
C1948 C 0.64073 0.03726 0.23347 0.0
C1949 C 0.62255 0.99551 0.27784 0.0
C1950 C 0.60462 0.96356 0.25888 0.0
H1951 H 0.65215 0.05602 0.28058 0.0
H1952 H 0.62012 0.99237 0.30251 0.0
S1953 S 0.59959 0.96264 0.17421 0.0
N1954 N 0.62334 0.00791 0.18333 0.0
N1955 N 0.59026 0.93935 0.20691 0.0
C1956 C 0.60713 0.96855 0.22701 0.0
C1957 C 0.62488 0.00553 0.21428 0.0
C1958 C 0.0304 0.64161 0.22864 0.0
C1959 C 0.03602 0.64197 0.2604 0.0
C1960 C 0.99386 0.62303 0.2163 0.0
C1961 C 0.96211 0.60532 0.23549 0.0
H1962 H 0.05429 0.65245 0.21315 0.0
H1963 H 0.9905 0.62011 0.19167 0.0
S1964 S 0.96202 0.60253 0.3202 0.0
N1965 N 0.00721 0.62591 0.31078 0.0
N1966 N 0.93837 0.59233 0.28762 0.0
C1967 C 0.96737 0.60862 0.26731 0.0
C1968 C 0.0045 0.62666 0.27981 0.0
C1969 C 0.35922 0.38933 0.22793 0.0
C1970 C 0.35767 0.39354 0.25973 0.0
C1971 C 0.37833 0.37188 0.21571 0.0
C1972 C 0.39548 0.35737 0.23501 0.0
H1973 H 0.34877 0.40272 0.21243 0.0
H1974 H 0.38201 0.37212 0.19112 0.0
S1975 S 0.3957 0.35789 0.31979 0.0
N1976 N 0.37235 0.37968 0.31022 0.0
N1977 N 0.40699 0.34537 0.28724 0.0
C1978 C 0.39117 0.35844 0.2668 0.0
C1979 C 0.37255 0.37701 0.27922 0.0
loop_
_geom_bond_atom_site_label_1
_geom_bond_atom_site_label_2
_geom_bond_distance
_geom_bond_site_symmetry_2
_ccdc_geom_bond_type
Sc0 O3 2.025 . S
Sc0 O10 2.105 1_455 S
Sc0 O13 2.105 . S
Sc0 O16 2.105 1_455 S
Sc0 O19 2.105 . S
Sc1 O3 2.025 . S
Sc1 O11 2.105 . S
Sc1 O15 2.105 . S
Sc1 O17 2.105 . S
Sc1 O21 2.105 . S
Sc2 O3 2.025 1_655 S
Sc2 O12 2.105 1_655 S
Sc2 O14 2.105 . S
Sc2 O18 2.099 1_655 S
Sc2 O20 2.105 . S
O3 Sc0 2.025 . S
O3 Sc1 2.025 . S
O3 Sc2 2.025 1_455 S
C4 O10 1.268 . S
C4 O20 1.268 . S
C5 O11 1.268 . S
C5 O19 1.268 . S
C6 O12 1.268 . S
C6 O21 1.268 . S
C7 O13 1.268 . S
C7 O17 1.268 . S
C8 O14 1.268 . S
C8 O16 1.268 . S
C9 O15 1.268 . S
C9 O18 1.291 . S
O10 Sc0 2.105 1_655 S
O10 C4 1.268 . S
O11 Sc1 2.105 . S
O11 C5 1.268 . S
O12 Sc2 2.105 1_455 S
O12 C6 1.268 . S
O13 Sc0 2.105 . S
O13 C7 1.268 . S
O14 Sc2 2.105 . S
O14 C8 1.268 . S
O15 Sc1 2.105 . S
O15 C9 1.268 . S
O16 Sc0 2.105 1_655 S
O16 C8 1.268 . S
O17 Sc1 2.105 . S
O17 C7 1.268 . S
O18 Sc2 2.099 1_455 S
O18 C9 1.291 . S
O19 Sc0 2.105 . S
O19 C5 1.268 . S
O20 Sc2 2.105 . S
O20 C4 1.268 . S
O21 Sc1 2.105 . S
O21 C6 1.268 . S
Sc22 O25 2.025 . S
Sc22 O32 2.105 . S
Sc22 O35 2.105 . S
Sc22 O38 2.105 . S
Sc22 O41 2.105 . S
Sc23 O25 2.025 . S
Sc23 O33 2.105 . S
Sc23 O37 2.105 . S
Sc23 O39 2.105 . S
Sc23 O43 2.105 . S
Sc24 O25 2.025 . S
Sc24 O34 2.105 . S
Sc24 O36 2.105 . S
Sc24 O40 2.105 . S
Sc24 O42 2.105 . S
O25 Sc22 2.025 . S
O25 Sc23 2.025 . S
O25 Sc24 2.025 . S
C26 O32 1.268 . S
C26 O42 1.268 . S
C27 O33 1.268 . S
C27 O41 1.268 . S
C28 O34 1.268 . S
C28 O43 1.268 . S
C29 O35 1.268 . S
C29 O39 1.268 . S
C30 O36 1.268 . S
C30 O38 1.268 . S
C31 O37 1.268 . S
C31 O40 1.268 . S
O32 Sc22 2.105 . S
O32 C26 1.268 . S
O33 Sc23 2.105 . S
O33 C27 1.268 . S
O34 Sc24 2.105 . S
O34 C28 1.268 . S
O35 Sc22 2.105 . S
O35 C29 1.268 . S
O36 Sc24 2.105 . S
O36 C30 1.268 . S
O37 Sc23 2.105 . S
O37 C31 1.268 . S
O38 Sc22 2.105 . S
O38 C30 1.268 . S
O39 Sc23 2.105 . S
O39 C29 1.268 . S
O40 Sc24 2.105 . S
O40 C31 1.268 . S
O41 Sc22 2.105 . S
O41 C27 1.268 . S
O42 Sc24 2.105 . S
O42 C26 1.268 . S
O43 Sc23 2.105 . S
O43 C28 1.268 . S
Sc44 O47 2.025 . S
Sc44 O54 2.105 1_565 S
Sc44 O57 2.105 . S
Sc44 O60 2.105 1_565 S
Sc44 O63 2.105 . S
Sc45 O47 2.025 . S
Sc45 O55 2.105 . S
Sc45 O59 2.105 . S
Sc45 O61 2.105 . S
Sc45 O65 2.105 . S
Sc46 O47 2.025 1_545 S
Sc46 O56 2.105 1_545 S
Sc46 O58 2.105 . S
Sc46 O62 2.098 1_545 S
Sc46 O64 2.105 . S
O47 Sc44 2.025 . S
O47 Sc45 2.025 . S
O47 Sc46 2.025 1_565 S
C48 O54 1.268 . S
C48 O64 1.268 . S
C49 O55 1.268 . S
C49 O63 1.268 . S
C50 O56 1.268 . S
C50 O65 1.268 . S
C51 O57 1.268 . S
C51 O61 1.268 . S
C52 O58 1.268 . S
C52 O60 1.268 . S
C53 O59 1.268 . S
C53 O62 1.285 . S
O54 Sc44 2.105 1_545 S
O54 C48 1.268 . S
O55 Sc45 2.105 . S
O55 C49 1.268 . S
O56 Sc46 2.105 1_565 S
O56 C50 1.268 . S
O57 Sc44 2.105 . S
O57 C51 1.268 . S
O58 Sc46 2.105 . S
O58 C52 1.268 . S
O59 Sc45 2.105 . S
O59 C53 1.268 . S
O60 Sc44 2.105 1_545 S
O60 C52 1.268 . S
O61 Sc45 2.105 . S
O61 C51 1.268 . S
O62 Sc46 2.098 1_565 S
O62 C53 1.285 . S
O63 Sc44 2.105 . S
O63 C49 1.268 . S
O64 Sc46 2.105 . S
O64 C48 1.268 . S
O65 Sc45 2.105 . S
O65 C50 1.268 . S
Sc66 O69 2.025 . S
Sc66 O76 2.105 1_545 S
Sc66 O79 2.105 . S
Sc66 O82 2.105 1_545 S
Sc66 O85 2.105 . S
Sc67 O69 2.025 . S
Sc67 O77 2.105 . S
Sc67 O81 2.105 . S
Sc67 O83 2.105 . S
Sc67 O87 2.105 . S
Sc68 O69 2.025 1_565 S
Sc68 O78 2.105 1_565 S
Sc68 O80 2.105 . S
Sc68 O84 2.099 1_565 S
Sc68 O86 2.105 . S
O69 Sc66 2.025 . S
O69 Sc67 2.025 . S
O69 Sc68 2.025 1_545 S
C70 O76 1.268 . S
C70 O86 1.268 . S
C71 O77 1.268 . S
C71 O85 1.268 . S
C72 O78 1.268 . S
C72 O87 1.268 . S
C73 O79 1.268 . S
C73 O83 1.268 . S
C74 O80 1.268 . S
C74 O82 1.268 . S
C75 O81 1.268 . S
C75 O84 1.291 . S
O76 Sc66 2.105 1_565 S
O76 C70 1.268 . S
O77 Sc67 2.105 . S
O77 C71 1.268 . S
O78 Sc68 2.105 1_545 S
O78 C72 1.268 . S
O79 Sc66 2.105 . S
O79 C73 1.268 . S
O80 Sc68 2.105 . S
O80 C74 1.268 . S
O81 Sc67 2.105 . S
O81 C75 1.268 . S
O82 Sc66 2.105 1_565 S
O82 C74 1.268 . S
O83 Sc67 2.105 . S
O83 C73 1.268 . S
O84 Sc68 2.099 1_545 S
O84 C75 1.291 . S
O85 Sc66 2.105 . S
O85 C71 1.268 . S
O86 Sc68 2.105 . S
O86 C70 1.268 . S
O87 Sc67 2.105 . S
O87 C72 1.268 . S
Sc88 O91 2.025 . S
Sc88 O98 2.105 1_655 S
Sc88 O101 2.105 . S
Sc88 O104 2.105 1_655 S
Sc88 O107 2.105 . S
Sc89 O91 2.025 . S
Sc89 O99 2.105 . S
Sc89 O103 2.105 . S
Sc89 O105 2.105 . S
Sc89 O109 2.105 . S
Sc90 O91 2.025 1_455 S
Sc90 O100 2.105 1_455 S
Sc90 O102 2.105 . S
Sc90 O106 2.098 1_455 S
Sc90 O108 2.105 . S
O91 Sc88 2.025 . S
O91 Sc89 2.025 . S
O91 Sc90 2.025 1_655 S
C92 O98 1.268 . S
C92 O108 1.268 . S
C93 O99 1.268 . S
C93 O107 1.268 . S
C94 O100 1.268 . S
C94 O109 1.268 . S
C95 O101 1.268 . S
C95 O105 1.268 . S
C96 O102 1.268 . S
C96 O104 1.268 . S
C97 O103 1.268 . S
C97 O106 1.285 . S
O98 Sc88 2.105 1_455 S
O98 C92 1.268 . S
O99 Sc89 2.105 . S
O99 C93 1.268 . S
O100 Sc90 2.105 1_655 S
O100 C94 1.268 . S
O101 Sc88 2.105 . S
O101 C95 1.268 . S
O102 Sc90 2.105 . S
O102 C96 1.268 . S
O103 Sc89 2.105 . S
O103 C97 1.268 . S
O104 Sc88 2.105 1_455 S
O104 C96 1.268 . S
O105 Sc89 2.105 . S
O105 C95 1.268 . S
O106 Sc90 2.098 1_655 S
O106 C97 1.285 . S
O107 Sc88 2.105 . S
O107 C93 1.268 . S
O108 Sc90 2.105 . S
O108 C92 1.268 . S
O109 Sc89 2.105 . S
O109 C94 1.268 . S
Sc110 O113 2.025 . S
Sc110 O120 2.105 . S
Sc110 O123 2.105 . S
Sc110 O126 2.105 . S
Sc110 O129 2.105 . S
Sc111 O113 2.025 . S
Sc111 O121 2.105 . S
Sc111 O125 2.105 . S
Sc111 O127 2.105 . S
Sc111 O131 2.105 . S
Sc112 O113 2.025 . S
Sc112 O122 2.105 . S
Sc112 O124 2.105 . S
Sc112 O128 2.105 . S
Sc112 O130 2.105 . S
O113 Sc110 2.025 . S
O113 Sc111 2.025 . S
O113 Sc112 2.025 . S
C114 O120 1.268 . S
C114 O130 1.268 . S
C115 O121 1.268 . S
C115 O129 1.268 . S
C116 O122 1.268 . S
C116 O131 1.268 . S
C117 O123 1.268 . S
C117 O127 1.268 . S
C118 O124 1.268 . S
C118 O126 1.268 . S
C119 O125 1.268 . S
C119 O128 1.268 . S
O120 Sc110 2.105 . S
O120 C114 1.268 . S
O121 Sc111 2.105 . S
O121 C115 1.268 . S
O122 Sc112 2.105 . S
O122 C116 1.268 . S
O123 Sc110 2.105 . S
O123 C117 1.268 . S
O124 Sc112 2.105 . S
O124 C118 1.268 . S
O125 Sc111 2.105 . S
O125 C119 1.268 . S
O126 Sc110 2.105 . S
O126 C118 1.268 . S
O127 Sc111 2.105 . S
O127 C117 1.268 . S
O128 Sc112 2.105 . S
O128 C119 1.268 . S
O129 Sc110 2.105 . S
O129 C115 1.268 . S
O130 Sc112 2.105 . S
O130 C114 1.268 . S
O131 Sc111 2.105 . S
O131 C116 1.268 . S
Sc132 O135 2.025 1_455 S
Sc132 O142 2.105 . S
Sc132 O145 2.099 1_455 S
Sc132 O148 2.105 . S
Sc132 O151 2.105 1_455 S
Sc133 O135 2.025 . S
Sc133 O143 2.105 . S
Sc133 O147 2.105 . S
Sc133 O149 2.105 . S
Sc133 O153 2.105 . S
Sc134 O135 2.025 . S
Sc134 O144 2.105 . S
Sc134 O146 2.105 1_655 S
Sc134 O150 2.105 . S
Sc134 O152 2.105 1_655 S
O135 Sc132 2.025 1_655 S
O135 Sc133 2.025 . S
O135 Sc134 2.025 . S
C136 O142 1.268 . S
C136 O152 1.268 . S
C137 O143 1.268 . S
C137 O151 1.268 . S
C138 O144 1.268 . S
C138 O153 1.268 . S
C139 O145 1.291 . S
C139 O149 1.268 . S
C140 O146 1.268 . S
C140 O148 1.268 . S
C141 O147 1.268 . S
C141 O150 1.268 . S
O142 Sc132 2.105 . S
O142 C136 1.268 . S
O143 Sc133 2.105 . S
O143 C137 1.268 . S
O144 Sc134 2.105 . S
O144 C138 1.268 . S
O145 Sc132 2.099 1_655 S
O145 C139 1.291 . S
O146 Sc134 2.105 1_455 S
O146 C140 1.268 . S
O147 Sc133 2.105 . S
O147 C141 1.268 . S
O148 Sc132 2.105 . S
O148 C140 1.268 . S
O149 Sc133 2.105 . S
O149 C139 1.268 . S
O150 Sc134 2.105 . S
O150 C141 1.268 . S
O151 Sc132 2.105 1_655 S
O151 C137 1.268 . S
O152 Sc134 2.105 1_455 S
O152 C136 1.268 . S
O153 Sc133 2.105 . S
O153 C138 1.268 . S
Sc154 O157 2.025 . S
Sc154 O164 2.105 . S
Sc154 O167 2.105 . S
Sc154 O170 2.105 . S
Sc154 O173 2.105 . S
Sc155 O157 2.025 . S
Sc155 O165 2.105 . S
Sc155 O169 2.105 . S
Sc155 O171 2.105 . S
Sc155 O175 2.105 . S
Sc156 O157 2.025 . S
Sc156 O166 2.105 . S
Sc156 O168 2.105 . S
Sc156 O172 2.105 . S
Sc156 O174 2.105 . S
O157 Sc154 2.025 . S
O157 Sc155 2.025 . S
O157 Sc156 2.025 . S
C158 O164 1.268 . S
C158 O174 1.268 . S
C159 O165 1.268 . S
C159 O173 1.268 . S
C160 O166 1.268 . S
C160 O175 1.268 . S
C161 O167 1.268 . S
C161 O171 1.268 . S
C162 O168 1.268 . S
C162 O170 1.268 . S
C163 O169 1.268 . S
C163 O172 1.268 . S
O164 Sc154 2.105 . S
O164 C158 1.268 . S
O165 Sc155 2.105 . S
O165 C159 1.268 . S
O166 Sc156 2.105 . S
O166 C160 1.268 . S
O167 Sc154 2.105 . S
O167 C161 1.268 . S
O168 Sc156 2.105 . S
O168 C162 1.268 . S
O169 Sc155 2.105 . S
O169 C163 1.268 . S
O170 Sc154 2.105 . S
O170 C162 1.268 . S
O171 Sc155 2.105 . S
O171 C161 1.268 . S
O172 Sc156 2.105 . S
O172 C163 1.268 . S
O173 Sc154 2.105 . S
O173 C159 1.268 . S
O174 Sc156 2.105 . S
O174 C158 1.268 . S
O175 Sc155 2.105 . S
O175 C160 1.268 . S
Sc176 O179 2.025 1_565 S
Sc176 O186 2.105 . S
Sc176 O189 2.098 1_565 S
Sc176 O192 2.105 . S
Sc176 O195 2.105 1_565 S
Sc177 O179 2.025 . S
Sc177 O187 2.105 . S
Sc177 O191 2.105 . S
Sc177 O193 2.105 . S
Sc177 O197 2.105 . S
Sc178 O179 2.025 . S
Sc178 O188 2.105 . S
Sc178 O190 2.105 1_545 S
Sc178 O194 2.105 . S
Sc178 O196 2.105 1_545 S
O179 Sc176 2.025 1_545 S
O179 Sc177 2.025 . S
O179 Sc178 2.025 . S
C180 O186 1.268 . S
C180 O196 1.268 . S
C181 O187 1.268 . S
C181 O195 1.268 . S
C182 O188 1.268 . S
C182 O197 1.268 . S
C183 O189 1.285 . S
C183 O193 1.268 . S
C184 O190 1.268 . S
C184 O192 1.268 . S
C185 O191 1.268 . S
C185 O194 1.268 . S
O186 Sc176 2.105 . S
O186 C180 1.268 . S
O187 Sc177 2.105 . S
O187 C181 1.268 . S
O188 Sc178 2.105 . S
O188 C182 1.268 . S
O189 Sc176 2.098 1_545 S
O189 C183 1.285 . S
O190 Sc178 2.105 1_565 S
O190 C184 1.268 . S
O191 Sc177 2.105 . S
O191 C185 1.268 . S
O192 Sc176 2.105 . S
O192 C184 1.268 . S
O193 Sc177 2.105 . S
O193 C183 1.268 . S
O194 Sc178 2.105 . S
O194 C185 1.268 . S
O195 Sc176 2.105 1_545 S
O195 C181 1.268 . S
O196 Sc178 2.105 1_565 S
O196 C180 1.268 . S
O197 Sc177 2.105 . S
O197 C182 1.268 . S
Sc198 O201 2.025 1_545 S
Sc198 O208 2.105 . S
Sc198 O211 2.099 1_545 S
Sc198 O214 2.105 . S
Sc198 O217 2.105 1_545 S
Sc199 O201 2.025 . S
Sc199 O209 2.105 . S
Sc199 O213 2.105 . S
Sc199 O215 2.105 . S
Sc199 O219 2.105 . S
Sc200 O201 2.025 . S
Sc200 O210 2.105 . S
Sc200 O212 2.105 1_565 S
Sc200 O216 2.105 . S
Sc200 O218 2.105 1_565 S
O201 Sc198 2.025 1_565 S
O201 Sc199 2.025 . S
O201 Sc200 2.025 . S
C202 O208 1.268 . S
C202 O218 1.268 . S
C203 O209 1.268 . S
C203 O217 1.268 . S
C204 O210 1.268 . S
C204 O219 1.268 . S
C205 O211 1.291 . S
C205 O215 1.268 . S
C206 O212 1.268 . S
C206 O214 1.268 . S
C207 O213 1.268 . S
C207 O216 1.268 . S
O208 Sc198 2.105 . S
O208 C202 1.268 . S
O209 Sc199 2.105 . S
O209 C203 1.268 . S
O210 Sc200 2.105 . S
O210 C204 1.268 . S
O211 Sc198 2.099 1_565 S
O211 C205 1.291 . S
O212 Sc200 2.105 1_545 S
O212 C206 1.268 . S
O213 Sc199 2.105 . S
O213 C207 1.268 . S
O214 Sc198 2.105 . S
O214 C206 1.268 . S
O215 Sc199 2.105 . S
O215 C205 1.268 . S
O216 Sc200 2.105 . S
O216 C207 1.268 . S
O217 Sc198 2.105 1_565 S
O217 C203 1.268 . S
O218 Sc200 2.105 1_545 S
O218 C202 1.268 . S
O219 Sc199 2.105 . S
O219 C204 1.268 . S
Sc220 O223 2.025 1_655 S
Sc220 O230 2.105 . S
Sc220 O233 2.098 1_655 S
Sc220 O236 2.105 . S
Sc220 O239 2.105 1_655 S
Sc221 O223 2.025 . S
Sc221 O231 2.105 . S
Sc221 O235 2.105 . S
Sc221 O237 2.105 . S
Sc221 O241 2.105 . S
Sc222 O223 2.025 . S
Sc222 O232 2.105 . S
Sc222 O234 2.105 1_455 S
Sc222 O238 2.105 . S
Sc222 O240 2.105 1_455 S
O223 Sc220 2.025 1_455 S
O223 Sc221 2.025 . S
O223 Sc222 2.025 . S
C224 O230 1.268 . S
C224 O240 1.268 . S
C225 O231 1.268 . S
C225 O239 1.268 . S
C226 O232 1.268 . S
C226 O241 1.268 . S
C227 O233 1.285 . S
C227 O237 1.268 . S
C228 O234 1.268 . S
C228 O236 1.268 . S
C229 O235 1.268 . S
C229 O238 1.268 . S
O230 Sc220 2.105 . S
O230 C224 1.268 . S
O231 Sc221 2.105 . S
O231 C225 1.268 . S
O232 Sc222 2.105 . S
O232 C226 1.268 . S
O233 Sc220 2.098 1_455 S
O233 C227 1.285 . S
O234 Sc222 2.105 1_655 S
O234 C228 1.268 . S
O235 Sc221 2.105 . S
O235 C229 1.268 . S
O236 Sc220 2.105 . S
O236 C228 1.268 . S
O237 Sc221 2.105 . S
O237 C227 1.268 . S
O238 Sc222 2.105 . S
O238 C229 1.268 . S
O239 Sc220 2.105 1_455 S
O239 C225 1.268 . S
O240 Sc222 2.105 1_655 S
O240 C224 1.268 . S
O241 Sc221 2.105 . S
O241 C226 1.268 . S
Sc242 O245 2.025 . S
Sc242 O252 2.105 . S
Sc242 O255 2.105 . S
Sc242 O258 2.105 . S
Sc242 O261 2.105 . S
Sc243 O245 2.025 . S
Sc243 O253 2.105 . S
Sc243 O257 2.105 . S
Sc243 O259 2.105 . S
Sc243 O263 2.105 . S
Sc244 O245 2.025 . S
Sc244 O254 2.105 . S
Sc244 O256 2.105 . S
Sc244 O260 2.105 . S
Sc244 O262 2.105 . S
O245 Sc242 2.025 . S
O245 Sc243 2.025 . S
O245 Sc244 2.025 . S
C246 O252 1.268 . S
C246 O262 1.268 . S
C247 O253 1.268 . S
C247 O261 1.268 . S
C248 O254 1.268 . S
C248 O263 1.268 . S
C249 O255 1.268 . S
C249 O259 1.268 . S
C250 O256 1.268 . S
C250 O258 1.268 . S
C251 O257 1.268 . S
C251 O260 1.268 . S
O252 Sc242 2.105 . S
O252 C246 1.268 . S
O253 Sc243 2.105 . S
O253 C247 1.268 . S
O254 Sc244 2.105 . S
O254 C248 1.268 . S
O255 Sc242 2.105 . S
O255 C249 1.268 . S
O256 Sc244 2.105 . S
O256 C250 1.268 . S
O257 Sc243 2.105 . S
O257 C251 1.268 . S
O258 Sc242 2.105 . S
O258 C250 1.268 . S
O259 Sc243 2.105 . S
O259 C249 1.268 . S
O260 Sc244 2.105 . S
O260 C251 1.268 . S
O261 Sc242 2.105 . S
O261 C247 1.268 . S
O262 Sc244 2.105 . S
O262 C246 1.268 . S
O263 Sc243 2.105 . S
O263 C248 1.268 . S
Sc264 O267 2.025 . S
Sc264 O274 2.105 . S
Sc264 O277 2.105 . S
Sc264 O280 2.105 . S
Sc264 O283 2.105 . S
Sc265 O267 2.025 . S
Sc265 O275 2.105 . S
Sc265 O279 2.105 . S
Sc265 O281 2.105 . S
Sc265 O285 2.105 . S
Sc266 O267 2.025 . S
Sc266 O276 2.105 . S
Sc266 O278 2.105 . S
Sc266 O282 2.105 . S
Sc266 O284 2.105 . S
O267 Sc264 2.025 . S
O267 Sc265 2.025 . S
O267 Sc266 2.025 . S
C268 O274 1.268 . S
C268 O284 1.268 . S
C269 O275 1.268 . S
C269 O283 1.268 . S
C270 O276 1.268 . S
C270 O285 1.268 . S
C271 O277 1.268 . S
C271 O281 1.268 . S
C272 O278 1.268 . S
C272 O280 1.268 . S
C273 O279 1.268 . S
C273 O282 1.268 . S
O274 Sc264 2.105 . S
O274 C268 1.268 . S
O275 Sc265 2.105 . S
O275 C269 1.268 . S
O276 Sc266 2.105 . S
O276 C270 1.268 . S
O277 Sc264 2.105 . S
O277 C271 1.268 . S
O278 Sc266 2.105 . S
O278 C272 1.268 . S
O279 Sc265 2.105 . S
O279 C273 1.268 . S
O280 Sc264 2.105 . S
O280 C272 1.268 . S
O281 Sc265 2.105 . S
O281 C271 1.268 . S
O282 Sc266 2.105 . S
O282 C273 1.268 . S
O283 Sc264 2.105 . S
O283 C269 1.268 . S
O284 Sc266 2.105 . S
O284 C268 1.268 . S
O285 Sc265 2.105 . S
O285 C270 1.268 . S
Sc286 O289 2.025 . S
Sc286 O296 2.105 . S
Sc286 O299 2.105 . S
Sc286 O302 2.105 . S
Sc286 O305 2.105 . S
Sc287 O289 2.025 . S
Sc287 O297 2.105 . S
Sc287 O301 2.105 . S
Sc287 O303 2.105 . S
Sc287 O307 2.105 . S
Sc288 O289 2.025 . S
Sc288 O298 2.105 . S
Sc288 O300 2.105 . S
Sc288 O304 2.105 . S
Sc288 O306 2.105 . S
O289 Sc286 2.025 . S
O289 Sc287 2.025 . S
O289 Sc288 2.025 . S
C290 O296 1.268 . S
C290 O306 1.268 . S
C291 O297 1.268 . S
C291 O305 1.268 . S
C292 O298 1.268 . S
C292 O307 1.268 . S
C293 O299 1.268 . S
C293 O303 1.268 . S
C294 O300 1.268 . S
C294 O302 1.268 . S
C295 O301 1.268 . S
C295 O304 1.268 . S
O296 Sc286 2.105 . S
O296 C290 1.268 . S
O297 Sc287 2.105 . S
O297 C291 1.268 . S
O298 Sc288 2.105 . S
O298 C292 1.268 . S
O299 Sc286 2.105 . S
O299 C293 1.268 . S
O300 Sc288 2.105 . S
O300 C294 1.268 . S
O301 Sc287 2.105 . S
O301 C295 1.268 . S
O302 Sc286 2.105 . S
O302 C294 1.268 . S
O303 Sc287 2.105 . S
O303 C293 1.268 . S
O304 Sc288 2.105 . S
O304 C295 1.268 . S
O305 Sc286 2.105 . S
O305 C291 1.268 . S
O306 Sc288 2.105 . S
O306 C290 1.268 . S
O307 Sc287 2.105 . S
O307 C292 1.268 . S
Sc308 O311 2.025 . S
Sc308 O318 2.105 . S
Sc308 O321 2.105 . S
Sc308 O324 2.105 . S
Sc308 O327 2.105 . S
Sc309 O311 2.025 . S
Sc309 O319 2.105 . S
Sc309 O323 2.105 . S
Sc309 O325 2.105 . S
Sc309 O329 2.105 . S
Sc310 O311 2.025 . S
Sc310 O320 2.105 . S
Sc310 O322 2.105 . S
Sc310 O326 2.105 . S
Sc310 O328 2.105 . S
O311 Sc308 2.025 . S
O311 Sc309 2.025 . S
O311 Sc310 2.025 . S
C312 O318 1.268 . S
C312 O328 1.268 . S
C313 O319 1.268 . S
C313 O327 1.268 . S
C314 O320 1.268 . S
C314 O329 1.268 . S
C315 O321 1.268 . S
C315 O325 1.268 . S
C316 O322 1.268 . S
C316 O324 1.268 . S
C317 O323 1.268 . S
C317 O326 1.268 . S
O318 Sc308 2.105 . S
O318 C312 1.268 . S
O319 Sc309 2.105 . S
O319 C313 1.268 . S
O320 Sc310 2.105 . S
O320 C314 1.268 . S
O321 Sc308 2.105 . S
O321 C315 1.268 . S
O322 Sc310 2.105 . S
O322 C316 1.268 . S
O323 Sc309 2.105 . S
O323 C317 1.268 . S
O324 Sc308 2.105 . S
O324 C316 1.268 . S
O325 Sc309 2.105 . S
O325 C315 1.268 . S
O326 Sc310 2.105 . S
O326 C317 1.268 . S
O327 Sc308 2.105 . S
O327 C313 1.268 . S
O328 Sc310 2.105 . S
O328 C312 1.268 . S
O329 Sc309 2.105 . S
O329 C314 1.268 . S
Sc330 O333 2.025 . S
Sc330 O340 2.105 . S
Sc330 O343 2.105 . S
Sc330 O346 2.105 . S
Sc330 O349 2.105 . S
Sc331 O333 2.025 . S
Sc331 O341 2.105 . S
Sc331 O345 2.105 . S
Sc331 O347 2.105 . S
Sc331 O351 2.105 . S
Sc332 O333 2.025 . S
Sc332 O342 2.105 . S
Sc332 O344 2.105 . S
Sc332 O348 2.105 . S
Sc332 O350 2.105 . S
O333 Sc330 2.025 . S
O333 Sc331 2.025 . S
O333 Sc332 2.025 . S
C334 O340 1.268 . S
C334 O350 1.268 . S
C335 O341 1.268 . S
C335 O349 1.268 . S
C336 O342 1.268 . S
C336 O351 1.268 . S
C337 O343 1.268 . S
C337 O347 1.268 . S
C338 O344 1.268 . S
C338 O346 1.268 . S
C339 O345 1.268 . S
C339 O348 1.268 . S
O340 Sc330 2.105 . S
O340 C334 1.268 . S
O341 Sc331 2.105 . S
O341 C335 1.268 . S
O342 Sc332 2.105 . S
O342 C336 1.268 . S
O343 Sc330 2.105 . S
O343 C337 1.268 . S
O344 Sc332 2.105 . S
O344 C338 1.268 . S
O345 Sc331 2.105 . S
O345 C339 1.268 . S
O346 Sc330 2.105 . S
O346 C338 1.268 . S
O347 Sc331 2.105 . S
O347 C337 1.268 . S
O348 Sc332 2.105 . S
O348 C339 1.268 . S
O349 Sc330 2.105 . S
O349 C335 1.268 . S
O350 Sc332 2.105 . S
O350 C334 1.268 . S
O351 Sc331 2.105 . S
O351 C336 1.268 . S
Sc352 O355 2.025 . S
Sc352 O362 2.105 . S
Sc352 O365 2.105 . S
Sc352 O368 2.105 . S
Sc352 O371 2.105 . S
Sc353 O355 2.025 . S
Sc353 O363 2.105 . S
Sc353 O367 2.105 . S
Sc353 O369 2.105 . S
Sc353 O373 2.105 . S
Sc354 O355 2.025 . S
Sc354 O364 2.105 . S
Sc354 O366 2.105 . S
Sc354 O370 2.105 . S
Sc354 O372 2.105 . S
O355 Sc352 2.025 . S
O355 Sc353 2.025 . S
O355 Sc354 2.025 . S
C356 O362 1.268 . S
C356 O372 1.268 . S
C357 O363 1.268 . S
C357 O371 1.268 . S
C358 O364 1.268 . S
C358 O373 1.268 . S
C359 O365 1.268 . S
C359 O369 1.268 . S
C360 O366 1.268 . S
C360 O368 1.268 . S
C361 O367 1.268 . S
C361 O370 1.268 . S
O362 Sc352 2.105 . S
O362 C356 1.268 . S
O363 Sc353 2.105 . S
O363 C357 1.268 . S
O364 Sc354 2.105 . S
O364 C358 1.268 . S
O365 Sc352 2.105 . S
O365 C359 1.268 . S
O366 Sc354 2.105 . S
O366 C360 1.268 . S
O367 Sc353 2.105 . S
O367 C361 1.268 . S
O368 Sc352 2.105 . S
O368 C360 1.268 . S
O369 Sc353 2.105 . S
O369 C359 1.268 . S
O370 Sc354 2.105 . S
O370 C361 1.268 . S
O371 Sc352 2.105 . S
O371 C357 1.268 . S
O372 Sc354 2.105 . S
O372 C356 1.268 . S
O373 Sc353 2.105 . S
O373 C358 1.268 . S
Sc374 O377 2.025 . S
Sc374 O384 2.105 . S
Sc374 O387 2.105 . S
Sc374 O390 2.105 . S
Sc374 O393 2.105 . S
Sc375 O377 2.025 . S
Sc375 O385 2.105 . S
Sc375 O389 2.105 . S
Sc375 O391 2.105 . S
Sc375 O395 2.105 . S
Sc376 O377 2.025 . S
Sc376 O386 2.105 . S
Sc376 O388 2.105 . S
Sc376 O392 2.105 . S
Sc376 O394 2.105 . S
O377 Sc374 2.025 . S
O377 Sc375 2.025 . S
O377 Sc376 2.025 . S
C378 O384 1.268 . S
C378 O394 1.268 . S
C379 O385 1.268 . S
C379 O393 1.268 . S
C380 O386 1.268 . S
C380 O395 1.268 . S
C381 O387 1.268 . S
C381 O391 1.268 . S
C382 O388 1.268 . S
C382 O390 1.268 . S
C383 O389 1.268 . S
C383 O392 1.268 . S
O384 Sc374 2.105 . S
O384 C378 1.268 . S
O385 Sc375 2.105 . S
O385 C379 1.268 . S
O386 Sc376 2.105 . S
O386 C380 1.268 . S
O387 Sc374 2.105 . S
O387 C381 1.268 . S
O388 Sc376 2.105 . S
O388 C382 1.268 . S
O389 Sc375 2.105 . S
O389 C383 1.268 . S
O390 Sc374 2.105 . S
O390 C382 1.268 . S
O391 Sc375 2.105 . S
O391 C381 1.268 . S
O392 Sc376 2.105 . S
O392 C383 1.268 . S
O393 Sc374 2.105 . S
O393 C379 1.268 . S
O394 Sc376 2.105 . S
O394 C378 1.268 . S
O395 Sc375 2.105 . S
O395 C380 1.268 . S
Sc396 O399 2.025 . S
Sc396 O406 2.105 . S
Sc396 O409 2.105 . S
Sc396 O412 2.105 . S
Sc396 O415 2.105 . S
Sc397 O399 2.025 . S
Sc397 O407 2.105 . S
Sc397 O411 2.105 . S
Sc397 O413 2.105 . S
Sc397 O417 2.105 . S
Sc398 O399 2.025 . S
Sc398 O408 2.105 . S
Sc398 O410 2.105 . S
Sc398 O414 2.105 . S
Sc398 O416 2.105 . S
O399 Sc396 2.025 . S
O399 Sc397 2.025 . S
O399 Sc398 2.025 . S
C400 O406 1.268 . S
C400 O416 1.268 . S
C401 O407 1.268 . S
C401 O415 1.268 . S
C402 O408 1.268 . S
C402 O417 1.268 . S
C403 O409 1.268 . S
C403 O413 1.268 . S
C404 O410 1.268 . S
C404 O412 1.268 . S
C405 O411 1.268 . S
C405 O414 1.268 . S
O406 Sc396 2.105 . S
O406 C400 1.268 . S
O407 Sc397 2.105 . S
O407 C401 1.268 . S
O408 Sc398 2.105 . S
O408 C402 1.268 . S
O409 Sc396 2.105 . S
O409 C403 1.268 . S
O410 Sc398 2.105 . S
O410 C404 1.268 . S
O411 Sc397 2.105 . S
O411 C405 1.268 . S
O412 Sc396 2.105 . S
O412 C404 1.268 . S
O413 Sc397 2.105 . S
O413 C403 1.268 . S
O414 Sc398 2.105 . S
O414 C405 1.268 . S
O415 Sc396 2.105 . S
O415 C401 1.268 . S
O416 Sc398 2.105 . S
O416 C400 1.268 . S
O417 Sc397 2.105 . S
O417 C402 1.268 . S
Sc418 O421 2.025 . S
Sc418 O428 2.105 . S
Sc418 O431 2.105 . S
Sc418 O434 2.105 . S
Sc418 O437 2.105 . S
Sc419 O421 2.025 . S
Sc419 O429 2.105 . S
Sc419 O433 2.105 . S
Sc419 O435 2.105 . S
Sc419 O439 2.105 . S
Sc420 O421 2.025 . S
Sc420 O430 2.105 . S
Sc420 O432 2.105 . S
Sc420 O436 2.105 . S
Sc420 O438 2.105 . S
O421 Sc418 2.025 . S
O421 Sc419 2.025 . S
O421 Sc420 2.025 . S
C422 O428 1.268 . S
C422 O438 1.268 . S
C423 O429 1.268 . S
C423 O437 1.268 . S
C424 O430 1.268 . S
C424 O439 1.268 . S
C425 O431 1.268 . S
C425 O435 1.268 . S
C426 O432 1.268 . S
C426 O434 1.268 . S
C427 O433 1.268 . S
C427 O436 1.268 . S
O428 Sc418 2.105 . S
O428 C422 1.268 . S
O429 Sc419 2.105 . S
O429 C423 1.268 . S
O430 Sc420 2.105 . S
O430 C424 1.268 . S
O431 Sc418 2.105 . S
O431 C425 1.268 . S
O432 Sc420 2.105 . S
O432 C426 1.268 . S
O433 Sc419 2.105 . S
O433 C427 1.268 . S
O434 Sc418 2.105 . S
O434 C426 1.268 . S
O435 Sc419 2.105 . S
O435 C425 1.268 . S
O436 Sc420 2.105 . S
O436 C427 1.268 . S
O437 Sc418 2.105 . S
O437 C423 1.268 . S
O438 Sc420 2.105 . S
O438 C422 1.268 . S
O439 Sc419 2.105 . S
O439 C424 1.268 . S
Sc440 O443 2.025 . S
Sc440 O450 2.105 . S
Sc440 O453 2.105 . S
Sc440 O456 2.105 . S
Sc440 O459 2.105 . S
Sc441 O443 2.025 . S
Sc441 O451 2.105 . S
Sc441 O455 2.105 . S
Sc441 O457 2.105 . S
Sc441 O461 2.105 . S
Sc442 O443 2.025 . S
Sc442 O452 2.105 . S
Sc442 O454 2.105 . S
Sc442 O458 2.105 . S
Sc442 O460 2.105 . S
O443 Sc440 2.025 . S
O443 Sc441 2.025 . S
O443 Sc442 2.025 . S
C444 O450 1.268 . S
C444 O460 1.268 . S
C445 O451 1.268 . S
C445 O459 1.268 . S
C446 O452 1.268 . S
C446 O461 1.268 . S
C447 O453 1.268 . S
C447 O457 1.268 . S
C448 O454 1.268 . S
C448 O456 1.268 . S
C449 O455 1.268 . S
C449 O458 1.268 . S
O450 Sc440 2.105 . S
O450 C444 1.268 . S
O451 Sc441 2.105 . S
O451 C445 1.268 . S
O452 Sc442 2.105 . S
O452 C446 1.268 . S
O453 Sc440 2.105 . S
O453 C447 1.268 . S
O454 Sc442 2.105 . S
O454 C448 1.268 . S
O455 Sc441 2.105 . S
O455 C449 1.268 . S
O456 Sc440 2.105 . S
O456 C448 1.268 . S
O457 Sc441 2.105 . S
O457 C447 1.268 . S
O458 Sc442 2.105 . S
O458 C449 1.268 . S
O459 Sc440 2.105 . S
O459 C445 1.268 . S
O460 Sc442 2.105 . S
O460 C444 1.268 . S
O461 Sc441 2.105 . S
O461 C446 1.268 . S
Sc462 O465 2.025 . S
Sc462 O472 2.105 . S
Sc462 O475 2.105 1_556 S
Sc462 O478 2.105 . S
Sc462 O481 2.105 . S
Sc463 O465 2.025 . S
Sc463 O473 2.105 . S
Sc463 O477 2.105 . S
Sc463 O479 2.105 1_556 S
Sc463 O483 2.105 . S
Sc464 O465 2.025 . S
Sc464 O474 2.105 . S
Sc464 O476 2.105 . S
Sc464 O480 2.105 . S
Sc464 O482 2.105 . S
O465 Sc462 2.025 . S
O465 Sc463 2.025 . S
O465 Sc464 2.025 . S
C466 O472 1.268 . S
C466 O482 1.268 . S
C467 O473 1.268 . S
C467 O481 1.268 . S
C468 O474 1.268 . S
C468 O483 1.268 . S
C469 O475 1.268 . S
C469 O479 1.268 . S
C470 O476 1.268 . S
C470 O478 1.268 . S
C471 O477 1.268 . S
C471 O480 1.268 . S
O472 Sc462 2.105 . S
O472 C466 1.268 . S
O473 Sc463 2.105 . S
O473 C467 1.268 . S
O474 Sc464 2.105 . S
O474 C468 1.268 . S
O475 Sc462 2.105 1_554 S
O475 C469 1.268 . S
O476 Sc464 2.105 . S
O476 C470 1.268 . S
O477 Sc463 2.105 . S
O477 C471 1.268 . S
O478 Sc462 2.105 . S
O478 C470 1.268 . S
O479 Sc463 2.105 1_554 S
O479 C469 1.268 . S
O480 Sc464 2.105 . S
O480 C471 1.268 . S
O481 Sc462 2.105 . S
O481 C467 1.268 . S
O482 Sc464 2.105 . S
O482 C466 1.268 . S
O483 Sc463 2.105 . S
O483 C468 1.268 . S
Sc484 O487 2.025 . S
Sc484 O494 2.105 . S
Sc484 O497 2.105 1_556 S
Sc484 O500 2.105 . S
Sc484 O503 2.105 . S
Sc485 O487 2.025 . S
Sc485 O495 2.105 . S
Sc485 O499 2.105 . S
Sc485 O501 2.105 1_556 S
Sc485 O505 2.105 . S
Sc486 O487 2.025 . S
Sc486 O496 2.105 . S
Sc486 O498 2.105 . S
Sc486 O502 2.105 . S
Sc486 O504 2.105 . S
O487 Sc484 2.025 . S
O487 Sc485 2.025 . S
O487 Sc486 2.025 . S
C488 O494 1.268 . S
C488 O504 1.268 . S
C489 O495 1.268 . S
C489 O503 1.268 . S
C490 O496 1.268 . S
C490 O505 1.268 . S
C491 O497 1.268 . S
C491 O501 1.268 . S
C492 O498 1.268 . S
C492 O500 1.268 . S
C493 O499 1.268 . S
C493 O502 1.268 . S
O494 Sc484 2.105 . S
O494 C488 1.268 . S
O495 Sc485 2.105 . S
O495 C489 1.268 . S
O496 Sc486 2.105 . S
O496 C490 1.268 . S
O497 Sc484 2.105 1_554 S
O497 C491 1.268 . S
O498 Sc486 2.105 . S
O498 C492 1.268 . S
O499 Sc485 2.105 . S
O499 C493 1.268 . S
O500 Sc484 2.105 . S
O500 C492 1.268 . S
O501 Sc485 2.105 1_554 S
O501 C491 1.268 . S
O502 Sc486 2.105 . S
O502 C493 1.268 . S
O503 Sc484 2.105 . S
O503 C489 1.268 . S
O504 Sc486 2.105 . S
O504 C488 1.268 . S
O505 Sc485 2.105 . S
O505 C490 1.268 . S
Sc506 O509 2.025 . S
Sc506 O516 2.105 . S
Sc506 O519 2.105 1_556 S
Sc506 O522 2.105 . S
Sc506 O525 2.105 . S
Sc507 O509 2.025 . S
Sc507 O517 2.105 . S
Sc507 O521 2.105 . S
Sc507 O523 2.105 1_556 S
Sc507 O527 2.105 . S
Sc508 O509 2.025 . S
Sc508 O518 2.105 . S
Sc508 O520 2.105 . S
Sc508 O524 2.105 . S
Sc508 O526 2.105 . S
O509 Sc506 2.025 . S
O509 Sc507 2.025 . S
O509 Sc508 2.025 . S
C510 O516 1.268 . S
C510 O526 1.268 . S
C511 O517 1.268 . S
C511 O525 1.268 . S
C512 O518 1.268 . S
C512 O527 1.268 . S
C513 O519 1.268 . S
C513 O523 1.268 . S
C514 O520 1.268 . S
C514 O522 1.268 . S
C515 O521 1.268 . S
C515 O524 1.268 . S
O516 Sc506 2.105 . S
O516 C510 1.268 . S
O517 Sc507 2.105 . S
O517 C511 1.268 . S
O518 Sc508 2.105 . S
O518 C512 1.268 . S
O519 Sc506 2.105 1_554 S
O519 C513 1.268 . S
O520 Sc508 2.105 . S
O520 C514 1.268 . S
O521 Sc507 2.105 . S
O521 C515 1.268 . S
O522 Sc506 2.105 . S
O522 C514 1.268 . S
O523 Sc507 2.105 1_554 S
O523 C513 1.268 . S
O524 Sc508 2.105 . S
O524 C515 1.268 . S
O525 Sc506 2.105 . S
O525 C511 1.268 . S
O526 Sc508 2.105 . S
O526 C510 1.268 . S
O527 Sc507 2.105 . S
O527 C512 1.268 . S
Sc528 O531 2.025 . S
Sc528 O538 2.105 . S
Sc528 O541 2.105 . S
Sc528 O544 2.105 . S
Sc528 O547 2.105 . S
Sc529 O531 2.025 . S
Sc529 O539 2.105 . S
Sc529 O543 2.105 . S
Sc529 O545 2.105 . S
Sc529 O549 2.105 . S
Sc530 O531 2.025 . S
Sc530 O540 2.105 . S
Sc530 O542 2.105 . S
Sc530 O546 2.105 . S
Sc530 O548 2.105 . S
O531 Sc528 2.025 . S
O531 Sc529 2.025 . S
O531 Sc530 2.025 . S
C532 O538 1.268 . S
C532 O548 1.268 . S
C533 O539 1.268 . S
C533 O547 1.268 . S
C534 O540 1.268 . S
C534 O549 1.268 . S
C535 O541 1.268 . S
C535 O545 1.268 . S
C536 O542 1.268 . S
C536 O544 1.268 . S
C537 O543 1.268 . S
C537 O546 1.268 . S
O538 Sc528 2.105 . S
O538 C532 1.268 . S
O539 Sc529 2.105 . S
O539 C533 1.268 . S
O540 Sc530 2.105 . S
O540 C534 1.268 . S
O541 Sc528 2.105 . S
O541 C535 1.268 . S
O542 Sc530 2.105 . S
O542 C536 1.268 . S
O543 Sc529 2.105 . S
O543 C537 1.268 . S
O544 Sc528 2.105 . S
O544 C536 1.268 . S
O545 Sc529 2.105 . S
O545 C535 1.268 . S
O546 Sc530 2.105 . S
O546 C537 1.268 . S
O547 Sc528 2.105 . S
O547 C533 1.268 . S
O548 Sc530 2.105 . S
O548 C532 1.268 . S
O549 Sc529 2.105 . S
O549 C534 1.268 . S
Sc550 O553 2.025 . S
Sc550 O560 2.105 . S
Sc550 O563 2.105 . S
Sc550 O566 2.105 . S
Sc550 O569 2.105 . S
Sc551 O553 2.025 . S
Sc551 O561 2.105 . S
Sc551 O565 2.105 . S
Sc551 O567 2.105 . S
Sc551 O571 2.105 . S
Sc552 O553 2.025 . S
Sc552 O562 2.105 . S
Sc552 O564 2.105 . S
Sc552 O568 2.105 . S
Sc552 O570 2.105 . S
O553 Sc550 2.025 . S
O553 Sc551 2.025 . S
O553 Sc552 2.025 . S
C554 O560 1.268 . S
C554 O570 1.268 . S
C555 O561 1.268 . S
C555 O569 1.268 . S
C556 O562 1.268 . S
C556 O571 1.268 . S
C557 O563 1.268 . S
C557 O567 1.268 . S
C558 O564 1.268 . S
C558 O566 1.268 . S
C559 O565 1.268 . S
C559 O568 1.268 . S
O560 Sc550 2.105 . S
O560 C554 1.268 . S
O561 Sc551 2.105 . S
O561 C555 1.268 . S
O562 Sc552 2.105 . S
O562 C556 1.268 . S
O563 Sc550 2.105 . S
O563 C557 1.268 . S
O564 Sc552 2.105 . S
O564 C558 1.268 . S
O565 Sc551 2.105 . S
O565 C559 1.268 . S
O566 Sc550 2.105 . S
O566 C558 1.268 . S
O567 Sc551 2.105 . S
O567 C557 1.268 . S
O568 Sc552 2.105 . S
O568 C559 1.268 . S
O569 Sc550 2.105 . S
O569 C555 1.268 . S
O570 Sc552 2.105 . S
O570 C554 1.268 . S
O571 Sc551 2.105 . S
O571 C556 1.268 . S
Sc572 O575 2.025 . S
Sc572 O582 2.105 . S
Sc572 O585 2.105 . S
Sc572 O588 2.105 . S
Sc572 O591 2.105 . S
Sc573 O575 2.025 . S
Sc573 O583 2.105 . S
Sc573 O587 2.105 . S
Sc573 O589 2.105 . S
Sc573 O593 2.105 . S
Sc574 O575 2.025 . S
Sc574 O584 2.105 . S
Sc574 O586 2.105 . S
Sc574 O590 2.105 . S
Sc574 O592 2.105 . S
O575 Sc572 2.025 . S
O575 Sc573 2.025 . S
O575 Sc574 2.025 . S
C576 O582 1.268 . S
C576 O592 1.268 . S
C577 O583 1.268 . S
C577 O591 1.268 . S
C578 O584 1.268 . S
C578 O593 1.268 . S
C579 O585 1.268 . S
C579 O589 1.268 . S
C580 O586 1.268 . S
C580 O588 1.268 . S
C581 O587 1.268 . S
C581 O590 1.268 . S
O582 Sc572 2.105 . S
O582 C576 1.268 . S
O583 Sc573 2.105 . S
O583 C577 1.268 . S
O584 Sc574 2.105 . S
O584 C578 1.268 . S
O585 Sc572 2.105 . S
O585 C579 1.268 . S
O586 Sc574 2.105 . S
O586 C580 1.268 . S
O587 Sc573 2.105 . S
O587 C581 1.268 . S
O588 Sc572 2.105 . S
O588 C580 1.268 . S
O589 Sc573 2.105 . S
O589 C579 1.268 . S
O590 Sc574 2.105 . S
O590 C581 1.268 . S
O591 Sc572 2.105 . S
O591 C577 1.268 . S
O592 Sc574 2.105 . S
O592 C576 1.268 . S
O593 Sc573 2.105 . S
O593 C578 1.268 . S
Sc594 O597 2.025 . S
Sc594 O604 2.105 . S
Sc594 O607 2.105 . S
Sc594 O610 2.105 . S
Sc594 O613 2.105 . S
Sc595 O597 2.025 . S
Sc595 O605 2.105 . S
Sc595 O609 2.105 1_554 S
Sc595 O611 2.105 . S
Sc595 O615 2.105 . S
Sc596 O597 2.025 . S
Sc596 O606 2.105 . S
Sc596 O608 2.105 . S
Sc596 O612 2.105 1_554 S
Sc596 O614 2.105 . S
O597 Sc594 2.025 . S
O597 Sc595 2.025 . S
O597 Sc596 2.025 . S
C598 O604 1.268 . S
C598 O614 1.268 . S
C599 O605 1.268 . S
C599 O613 1.268 . S
C600 O606 1.268 . S
C600 O615 1.268 . S
C601 O607 1.268 . S
C601 O611 1.268 . S
C602 O608 1.268 . S
C602 O610 1.268 . S
C603 O609 1.268 . S
C603 O612 1.268 . S
O604 Sc594 2.105 . S
O604 C598 1.268 . S
O605 Sc595 2.105 . S
O605 C599 1.268 . S
O606 Sc596 2.105 . S
O606 C600 1.268 . S
O607 Sc594 2.105 . S
O607 C601 1.268 . S
O608 Sc596 2.105 . S
O608 C602 1.268 . S
O609 Sc595 2.105 1_556 S
O609 C603 1.268 . S
O610 Sc594 2.105 . S
O610 C602 1.268 . S
O611 Sc595 2.105 . S
O611 C601 1.268 . S
O612 Sc596 2.105 1_556 S
O612 C603 1.268 . S
O613 Sc594 2.105 . S
O613 C599 1.268 . S
O614 Sc596 2.105 . S
O614 C598 1.268 . S
O615 Sc595 2.105 . S
O615 C600 1.268 . S
Sc616 O619 2.025 . S
Sc616 O626 2.105 . S
Sc616 O629 2.105 . S
Sc616 O632 2.105 . S
Sc616 O635 2.105 . S
Sc617 O619 2.025 . S
Sc617 O627 2.105 . S
Sc617 O631 2.105 1_554 S
Sc617 O633 2.105 . S
Sc617 O637 2.105 . S
Sc618 O619 2.025 . S
Sc618 O628 2.105 . S
Sc618 O630 2.105 . S
Sc618 O634 2.105 1_554 S
Sc618 O636 2.105 . S
O619 Sc616 2.025 . S
O619 Sc617 2.025 . S
O619 Sc618 2.025 . S
C620 O626 1.268 . S
C620 O636 1.268 . S
C621 O627 1.268 . S
C621 O635 1.268 . S
C622 O628 1.268 . S
C622 O637 1.268 . S
C623 O629 1.268 . S
C623 O633 1.268 . S
C624 O630 1.268 . S
C624 O632 1.268 . S
C625 O631 1.268 . S
C625 O634 1.268 . S
O626 Sc616 2.105 . S
O626 C620 1.268 . S
O627 Sc617 2.105 . S
O627 C621 1.268 . S
O628 Sc618 2.105 . S
O628 C622 1.268 . S
O629 Sc616 2.105 . S
O629 C623 1.268 . S
O630 Sc618 2.105 . S
O630 C624 1.268 . S
O631 Sc617 2.105 1_556 S
O631 C625 1.268 . S
O632 Sc616 2.105 . S
O632 C624 1.268 . S
O633 Sc617 2.105 . S
O633 C623 1.268 . S
O634 Sc618 2.105 1_556 S
O634 C625 1.268 . S
O635 Sc616 2.105 . S
O635 C621 1.268 . S
O636 Sc618 2.105 . S
O636 C620 1.268 . S
O637 Sc617 2.105 . S
O637 C622 1.268 . S
Sc638 O641 2.025 . S
Sc638 O648 2.105 . S
Sc638 O651 2.105 . S
Sc638 O654 2.105 . S
Sc638 O657 2.105 . S
Sc639 O641 2.025 . S
Sc639 O649 2.105 . S
Sc639 O653 2.105 1_554 S
Sc639 O655 2.105 . S
Sc639 O659 2.105 . S
Sc640 O641 2.025 . S
Sc640 O650 2.105 . S
Sc640 O652 2.105 . S
Sc640 O656 2.105 1_554 S
Sc640 O658 2.105 . S
O641 Sc638 2.025 . S
O641 Sc639 2.025 . S
O641 Sc640 2.025 . S
C642 O648 1.268 . S
C642 O658 1.268 . S
C643 O649 1.268 . S
C643 O657 1.268 . S
C644 O650 1.268 . S
C644 O659 1.268 . S
C645 O651 1.268 . S
C645 O655 1.268 . S
C646 O652 1.268 . S
C646 O654 1.268 . S
C647 O653 1.268 . S
C647 O656 1.268 . S
O648 Sc638 2.105 . S
O648 C642 1.268 . S
O649 Sc639 2.105 . S
O649 C643 1.268 . S
O650 Sc640 2.105 . S
O650 C644 1.268 . S
O651 Sc638 2.105 . S
O651 C645 1.268 . S
O652 Sc640 2.105 . S
O652 C646 1.268 . S
O653 Sc639 2.105 1_556 S
O653 C647 1.268 . S
O654 Sc638 2.105 . S
O654 C646 1.268 . S
O655 Sc639 2.105 . S
O655 C645 1.268 . S
O656 Sc640 2.105 1_556 S
O656 C647 1.268 . S
O657 Sc638 2.105 . S
O657 C643 1.268 . S
O658 Sc640 2.105 . S
O658 C642 1.268 . S
O659 Sc639 2.105 . S
O659 C644 1.268 . S
Sc660 O663 2.025 . S
Sc660 O670 2.105 . S
Sc660 O673 2.105 . S
Sc660 O676 2.105 . S
Sc660 O679 2.105 . S
Sc661 O663 2.025 . S
Sc661 O671 2.105 . S
Sc661 O675 2.105 . S
Sc661 O677 2.105 . S
Sc661 O681 2.105 . S
Sc662 O663 2.025 . S
Sc662 O672 2.105 . S
Sc662 O674 2.105 . S
Sc662 O678 2.105 . S
Sc662 O680 2.105 . S
O663 Sc660 2.025 . S
O663 Sc661 2.025 . S
O663 Sc662 2.025 . S
C664 O670 1.268 . S
C664 O680 1.268 . S
C665 O671 1.268 . S
C665 O679 1.268 . S
C666 O672 1.268 . S
C666 O681 1.268 . S
C667 O673 1.268 . S
C667 O677 1.268 . S
C668 O674 1.268 . S
C668 O676 1.268 . S
C669 O675 1.268 . S
C669 O678 1.268 . S
O670 Sc660 2.105 . S
O670 C664 1.268 . S
O671 Sc661 2.105 . S
O671 C665 1.268 . S
O672 Sc662 2.105 . S
O672 C666 1.268 . S
O673 Sc660 2.105 . S
O673 C667 1.268 . S
O674 Sc662 2.105 . S
O674 C668 1.268 . S
O675 Sc661 2.105 . S
O675 C669 1.268 . S
O676 Sc660 2.105 . S
O676 C668 1.268 . S
O677 Sc661 2.105 . S
O677 C667 1.268 . S
O678 Sc662 2.105 . S
O678 C669 1.268 . S
O679 Sc660 2.105 . S
O679 C665 1.268 . S
O680 Sc662 2.105 . S
O680 C664 1.268 . S
O681 Sc661 2.105 . S
O681 C666 1.268 . S
Sc682 O685 2.025 . S
Sc682 O692 2.105 . S
Sc682 O695 2.105 . S
Sc682 O698 2.105 . S
Sc682 O701 2.105 . S
Sc683 O685 2.025 . S
Sc683 O693 2.105 . S
Sc683 O697 2.105 . S
Sc683 O699 2.105 . S
Sc683 O703 2.105 . S
Sc684 O685 2.025 . S
Sc684 O694 2.105 . S
Sc684 O696 2.105 . S
Sc684 O700 2.105 . S
Sc684 O702 2.105 . S
O685 Sc682 2.025 . S
O685 Sc683 2.025 . S
O685 Sc684 2.025 . S
C686 O692 1.268 . S
C686 O702 1.268 . S
C687 O693 1.268 . S
C687 O701 1.268 . S
C688 O694 1.268 . S
C688 O703 1.268 . S
C689 O695 1.268 . S
C689 O699 1.268 . S
C690 O696 1.268 . S
C690 O698 1.268 . S
C691 O697 1.268 . S
C691 O700 1.268 . S
O692 Sc682 2.105 . S
O692 C686 1.268 . S
O693 Sc683 2.105 . S
O693 C687 1.268 . S
O694 Sc684 2.105 . S
O694 C688 1.268 . S
O695 Sc682 2.105 . S
O695 C689 1.268 . S
O696 Sc684 2.105 . S
O696 C690 1.268 . S
O697 Sc683 2.105 . S
O697 C691 1.268 . S
O698 Sc682 2.105 . S
O698 C690 1.268 . S
O699 Sc683 2.105 . S
O699 C689 1.268 . S
O700 Sc684 2.105 . S
O700 C691 1.268 . S
O701 Sc682 2.105 . S
O701 C687 1.268 . S
O702 Sc684 2.105 . S
O702 C686 1.268 . S
O703 Sc683 2.105 . S
O703 C688 1.268 . S
Sc704 O707 2.025 . S
Sc704 O714 2.105 . S
Sc704 O717 2.105 . S
Sc704 O720 2.105 . S
Sc704 O723 2.105 . S
Sc705 O707 2.025 . S
Sc705 O715 2.105 . S
Sc705 O719 2.105 . S
Sc705 O721 2.105 . S
Sc705 O725 2.105 . S
Sc706 O707 2.025 . S
Sc706 O716 2.105 . S
Sc706 O718 2.105 . S
Sc706 O722 2.105 . S
Sc706 O724 2.105 . S
O707 Sc704 2.025 . S
O707 Sc705 2.025 . S
O707 Sc706 2.025 . S
C708 O714 1.268 . S
C708 O724 1.268 . S
C709 O715 1.268 . S
C709 O723 1.268 . S
C710 O716 1.268 . S
C710 O725 1.268 . S
C711 O717 1.268 . S
C711 O721 1.268 . S
C712 O718 1.268 . S
C712 O720 1.268 . S
C713 O719 1.268 . S
C713 O722 1.268 . S
O714 Sc704 2.105 . S
O714 C708 1.268 . S
O715 Sc705 2.105 . S
O715 C709 1.268 . S
O716 Sc706 2.105 . S
O716 C710 1.268 . S
O717 Sc704 2.105 . S
O717 C711 1.268 . S
O718 Sc706 2.105 . S
O718 C712 1.268 . S
O719 Sc705 2.105 . S
O719 C713 1.268 . S
O720 Sc704 2.105 . S
O720 C712 1.268 . S
O721 Sc705 2.105 . S
O721 C711 1.268 . S
O722 Sc706 2.105 . S
O722 C713 1.268 . S
O723 Sc704 2.105 . S
O723 C709 1.268 . S
O724 Sc706 2.105 . S
O724 C708 1.268 . S
O725 Sc705 2.105 . S
O725 C710 1.268 . S
Sc726 O729 2.025 . S
Sc726 O736 2.105 . S
Sc726 O739 2.105 . S
Sc726 O742 2.105 . S
Sc726 O745 2.105 . S
Sc727 O729 2.025 . S
Sc727 O737 2.105 . S
Sc727 O741 2.105 . S
Sc727 O743 2.105 . S
Sc727 O747 2.105 . S
Sc728 O729 2.025 . S
Sc728 O738 2.105 . S
Sc728 O740 2.105 . S
Sc728 O744 2.105 . S
Sc728 O746 2.105 . S
O729 Sc726 2.025 . S
O729 Sc727 2.025 . S
O729 Sc728 2.025 . S
C730 O736 1.268 . S
C730 O746 1.268 . S
C731 O737 1.268 . S
C731 O745 1.268 . S
C732 O738 1.268 . S
C732 O747 1.268 . S
C733 O739 1.268 . S
C733 O743 1.268 . S
C734 O740 1.268 . S
C734 O742 1.268 . S
C735 O741 1.268 . S
C735 O744 1.268 . S
O736 Sc726 2.105 . S
O736 C730 1.268 . S
O737 Sc727 2.105 . S
O737 C731 1.268 . S
O738 Sc728 2.105 . S
O738 C732 1.268 . S
O739 Sc726 2.105 . S
O739 C733 1.268 . S
O740 Sc728 2.105 . S
O740 C734 1.268 . S
O741 Sc727 2.105 . S
O741 C735 1.268 . S
O742 Sc726 2.105 . S
O742 C734 1.268 . S
O743 Sc727 2.105 . S
O743 C733 1.268 . S
O744 Sc728 2.105 . S
O744 C735 1.268 . S
O745 Sc726 2.105 . S
O745 C731 1.268 . S
O746 Sc728 2.105 . S
O746 C730 1.268 . S
O747 Sc727 2.105 . S
O747 C732 1.268 . S
Sc748 O751 2.025 . S
Sc748 O758 2.105 . S
Sc748 O761 2.105 . S
Sc748 O764 2.105 . S
Sc748 O767 2.105 . S
Sc749 O751 2.025 . S
Sc749 O759 2.105 . S
Sc749 O763 2.105 . S
Sc749 O765 2.105 . S
Sc749 O769 2.105 . S
Sc750 O751 2.025 . S
Sc750 O760 2.105 . S
Sc750 O762 2.105 . S
Sc750 O766 2.105 . S
Sc750 O768 2.105 . S
O751 Sc748 2.025 . S
O751 Sc749 2.025 . S
O751 Sc750 2.025 . S
C752 O758 1.268 . S
C752 O768 1.268 . S
C753 O759 1.268 . S
C753 O767 1.268 . S
C754 O760 1.268 . S
C754 O769 1.268 . S
C755 O761 1.268 . S
C755 O765 1.268 . S
C756 O762 1.268 . S
C756 O764 1.268 . S
C757 O763 1.268 . S
C757 O766 1.268 . S
O758 Sc748 2.105 . S
O758 C752 1.268 . S
O759 Sc749 2.105 . S
O759 C753 1.268 . S
O760 Sc750 2.105 . S
O760 C754 1.268 . S
O761 Sc748 2.105 . S
O761 C755 1.268 . S
O762 Sc750 2.105 . S
O762 C756 1.268 . S
O763 Sc749 2.105 . S
O763 C757 1.268 . S
O764 Sc748 2.105 . S
O764 C756 1.268 . S
O765 Sc749 2.105 . S
O765 C755 1.268 . S
O766 Sc750 2.105 . S
O766 C757 1.268 . S
O767 Sc748 2.105 . S
O767 C753 1.268 . S
O768 Sc750 2.105 . S
O768 C752 1.268 . S
O769 Sc749 2.105 . S
O769 C754 1.268 . S
Sc770 O773 2.025 . S
Sc770 O780 2.105 . S
Sc770 O783 2.105 . S
Sc770 O786 2.105 . S
Sc770 O789 2.105 . S
Sc771 O773 2.025 . S
Sc771 O781 2.105 . S
Sc771 O785 2.105 . S
Sc771 O787 2.105 . S
Sc771 O791 2.105 . S
Sc772 O773 2.025 . S
Sc772 O782 2.105 . S
Sc772 O784 2.105 . S
Sc772 O788 2.105 . S
Sc772 O790 2.105 . S
O773 Sc770 2.025 . S
O773 Sc771 2.025 . S
O773 Sc772 2.025 . S
C774 O780 1.268 . S
C774 O790 1.268 . S
C775 O781 1.268 . S
C775 O789 1.268 . S
C776 O782 1.268 . S
C776 O791 1.268 . S
C777 O783 1.268 . S
C777 O787 1.268 . S
C778 O784 1.268 . S
C778 O786 1.268 . S
C779 O785 1.268 . S
C779 O788 1.268 . S
O780 Sc770 2.105 . S
O780 C774 1.268 . S
O781 Sc771 2.105 . S
O781 C775 1.268 . S
O782 Sc772 2.105 . S
O782 C776 1.268 . S
O783 Sc770 2.105 . S
O783 C777 1.268 . S
O784 Sc772 2.105 . S
O784 C778 1.268 . S
O785 Sc771 2.105 . S
O785 C779 1.268 . S
O786 Sc770 2.105 . S
O786 C778 1.268 . S
O787 Sc771 2.105 . S
O787 C777 1.268 . S
O788 Sc772 2.105 . S
O788 C779 1.268 . S
O789 Sc770 2.105 . S
O789 C775 1.268 . S
O790 Sc772 2.105 . S
O790 C774 1.268 . S
O791 Sc771 2.105 . S
O791 C776 1.268 . S
C792 C793 1.369 . S
C792 C794 1.419 1_554 S
C792 H796 0.930 . S
C793 C792 1.369 . S
C793 C802 1.429 . S
C794 C792 1.419 1_556 S
C794 C795 1.363 . S
C794 H797 0.929 . S
C795 C794 1.363 . S
C795 C801 1.428 . S
H796 C792 0.930 . S
H797 C794 0.929 . S
S798 N799 1.613 . S
S798 N800 1.610 1_554 S
N799 S798 1.613 . S
N799 C802 1.350 . S
N800 S798 1.610 1_556 S
N800 C801 1.351 . S
C801 C795 1.428 . S
C801 N800 1.351 . S
C801 C802 1.434 1_556 S
C802 C793 1.429 . S
C802 N799 1.350 . S
C802 C801 1.434 1_554 S
C803 C804 1.369 . S
C803 C805 1.419 1_554 S
C803 H807 0.930 . S
C804 C803 1.369 . S
C804 C813 1.429 . S
C805 C803 1.419 1_556 S
C805 C806 1.363 . S
C805 H808 0.929 . S
C806 C805 1.363 . S
C806 C812 1.428 . S
H807 C803 0.930 . S
H808 C805 0.929 . S
S809 N810 1.613 1_545 S
S809 N811 1.610 1_554 S
N810 S809 1.613 1_565 S
N810 C813 1.350 . S
N811 S809 1.610 1_556 S
N811 C812 1.351 1_545 S
C812 C806 1.428 . S
C812 N811 1.351 1_565 S
C812 C813 1.434 1_556 S
C813 C804 1.429 . S
C813 N810 1.350 . S
C813 C812 1.434 1_554 S
C814 C815 1.369 . S
C814 C816 1.419 1_554 S
C814 H818 0.930 . S
C815 C814 1.369 . S
C815 C824 1.429 . S
C816 C814 1.419 1_556 S
C816 C817 1.363 . S
C816 H819 0.929 . S
C817 C816 1.363 . S
C817 C823 1.428 . S
H818 C814 0.930 . S
H819 C816 0.929 . S
S820 N821 1.613 . S
S820 N822 1.610 1_554 S
N821 S820 1.613 . S
N821 C824 1.350 . S
N822 S820 1.610 1_556 S
N822 C823 1.351 . S
C823 C817 1.428 . S
C823 N822 1.351 . S
C823 C824 1.434 1_556 S
C824 C815 1.429 . S
C824 N821 1.350 . S
C824 C823 1.434 1_554 S
C825 C826 1.369 . S
C825 C827 1.419 . S
C825 H829 0.930 . S
C826 C825 1.369 . S
C826 C835 1.429 . S
C827 C825 1.419 . S
C827 C828 1.363 . S
C827 H830 0.929 . S
C828 C827 1.363 . S
C828 C834 1.428 . S
H829 C825 0.930 . S
H830 C827 0.929 . S
S831 N832 1.613 . S
S831 N833 1.610 . S
N832 S831 1.613 . S
N832 C835 1.350 . S
N833 S831 1.610 . S
N833 C834 1.351 . S
C834 C828 1.428 . S
C834 N833 1.351 . S
C834 C835 1.434 . S
C835 C826 1.429 . S
C835 N832 1.350 . S
C835 C834 1.434 . S
C836 C837 1.369 . S
C836 C838 1.419 . S
C836 H840 0.930 . S
C837 C836 1.369 . S
C837 C846 1.429 . S
C838 C836 1.419 . S
C838 C839 1.363 . S
C838 H841 0.929 . S
C839 C838 1.363 . S
C839 C845 1.428 . S
H840 C836 0.930 . S
H841 C838 0.929 . S
S842 N843 1.613 . S
S842 N844 1.610 . S
N843 S842 1.613 . S
N843 C846 1.350 . S
N844 S842 1.610 . S
N844 C845 1.351 . S
C845 C839 1.428 . S
C845 N844 1.351 . S
C845 C846 1.434 . S
C846 C837 1.429 . S
C846 N843 1.350 . S
C846 C845 1.434 . S
C847 C848 1.369 . S
C847 C849 1.419 . S
C847 H851 0.930 . S
C848 C847 1.369 . S
C848 C857 1.429 . S
C849 C847 1.419 . S
C849 C850 1.363 . S
C849 H852 0.929 . S
C850 C849 1.363 . S
C850 C856 1.428 . S
H851 C847 0.930 . S
H852 C849 0.929 . S
S853 N854 1.613 . S
S853 N855 1.610 1_455 S
N854 S853 1.613 . S
N854 C857 1.350 1_455 S
N855 S853 1.610 1_655 S
N855 C856 1.351 . S
C856 C850 1.428 . S
C856 N855 1.351 . S
C856 C857 1.434 . S
C857 C848 1.429 . S
C857 N854 1.350 1_655 S
C857 C856 1.434 . S
C858 C859 1.369 . S
C858 C860 1.419 1_554 S
C858 H862 0.930 . S
C859 C858 1.369 . S
C859 C868 1.429 . S
C860 C858 1.419 1_556 S
C860 C861 1.363 . S
C860 H863 0.929 . S
C861 C860 1.363 . S
C861 C867 1.428 . S
H862 C858 0.930 . S
H863 C860 0.929 . S
S864 N865 1.613 . S
S864 N866 1.610 1_554 S
N865 S864 1.613 . S
N865 C868 1.350 . S
N866 S864 1.610 1_556 S
N866 C867 1.351 . S
C867 C861 1.428 . S
C867 N866 1.351 . S
C867 C868 1.434 1_556 S
C868 C859 1.429 . S
C868 N865 1.350 . S
C868 C867 1.434 1_554 S
C869 C870 1.369 . S
C869 C871 1.419 1_556 S
C869 H873 0.928 1_556 S
C870 C869 1.369 . S
C870 C879 1.429 . S
C871 C869 1.419 1_554 S
C871 C872 1.363 . S
C871 H874 0.929 . S
C872 C871 1.363 . S
C872 C878 1.428 1_554 S
H873 C869 0.928 1_554 S
H874 C871 0.929 . S
S875 N876 1.613 1_565 S
S875 N877 1.610 . S
N876 S875 1.613 1_545 S
N876 C879 1.350 . S
N877 S875 1.610 . S
N877 C878 1.351 1_565 S
C878 C872 1.428 1_556 S
C878 N877 1.351 1_545 S
C878 C879 1.434 . S
C879 C870 1.429 . S
C879 N876 1.350 . S
C879 C878 1.434 . S
C880 C881 1.369 . S
C880 C882 1.419 1_556 S
C880 H884 0.930 . S
C881 C880 1.369 . S
C881 C890 1.429 . S
C882 C880 1.419 1_554 S
C882 C883 1.363 . S
C882 H885 0.929 . S
C883 C882 1.363 . S
C883 C889 1.428 . S
H884 C880 0.930 . S
H885 C882 0.929 . S
S886 N887 1.613 1_554 S
S886 N888 1.610 . S
N887 S886 1.613 1_556 S
N887 C890 1.350 . S
N888 S886 1.610 . S
N888 C889 1.351 . S
C889 C883 1.428 . S
C889 N888 1.351 . S
C889 C890 1.434 1_554 S
C890 C881 1.429 . S
C890 N887 1.350 . S
C890 C889 1.434 1_556 S
C891 C892 1.369 . S
C891 C893 1.419 . S
C891 H895 0.930 . S
C892 C891 1.369 . S
C892 C901 1.429 . S
C893 C891 1.419 . S
C893 C894 1.363 . S
C893 H896 0.929 . S
C894 C893 1.363 . S
C894 C900 1.428 . S
H895 C891 0.930 . S
H896 C893 0.929 . S
S897 N898 1.613 . S
S897 N899 1.610 . S
N898 S897 1.613 . S
N898 C901 1.350 . S
N899 S897 1.610 . S
N899 C900 1.351 . S
C900 C894 1.428 . S
C900 N899 1.351 . S
C900 C901 1.434 . S
C901 C892 1.429 . S
C901 N898 1.350 . S
C901 C900 1.434 . S
C902 C903 1.369 . S
C902 C904 1.419 . S
C902 H906 0.930 . S
C903 C902 1.369 . S
C903 C912 1.429 . S
C904 C902 1.419 . S
C904 C905 1.363 . S
C904 H907 0.929 . S
C905 C904 1.363 . S
C905 C911 1.428 . S
H906 C902 0.930 . S
H907 C904 0.929 . S
S908 N909 1.613 . S
S908 N910 1.610 . S
N909 S908 1.613 . S
N909 C912 1.350 . S
N910 S908 1.610 . S
N910 C911 1.351 . S
C911 C905 1.428 . S
C911 N910 1.351 . S
C911 C912 1.434 . S
C912 C903 1.429 . S
C912 N909 1.350 . S
C912 C911 1.434 . S
C913 C914 1.369 . S
C913 C915 1.419 . S
C913 H917 0.930 . S
C914 C913 1.369 . S
C914 C923 1.429 . S
C915 C913 1.419 . S
C915 C916 1.363 . S
C915 H918 0.929 . S
C916 C915 1.363 . S
C916 C922 1.428 . S
H917 C913 0.930 . S
H918 C915 0.929 . S
S919 N920 1.613 . S
S919 N921 1.610 . S
N920 S919 1.613 . S
N920 C923 1.350 . S
N921 S919 1.610 . S
N921 C922 1.351 . S
C922 C916 1.428 . S
C922 N921 1.351 . S
C922 C923 1.434 . S
C923 C914 1.429 . S
C923 N920 1.350 . S
C923 C922 1.434 . S
C924 C925 1.369 . S
C924 C926 1.419 . S
C924 H928 0.930 . S
C925 C924 1.369 . S
C925 C934 1.429 . S
C926 C924 1.419 . S
C926 C927 1.363 . S
C926 H929 0.929 . S
C927 C926 1.363 . S
C927 C933 1.428 . S
H928 C924 0.930 . S
H929 C926 0.929 . S
S930 N931 1.613 . S
S930 N932 1.610 . S
N931 S930 1.613 . S
N931 C934 1.350 . S
N932 S930 1.610 . S
N932 C933 1.351 . S
C933 C927 1.428 . S
C933 N932 1.351 . S
C933 C934 1.434 . S
C934 C925 1.429 . S
C934 N931 1.350 . S
C934 C933 1.434 . S
C935 C936 1.369 . S
C935 C937 1.419 . S
C935 H939 0.930 . S
C936 C935 1.369 . S
C936 C945 1.429 . S
C937 C935 1.419 . S
C937 C938 1.363 . S
C937 H940 0.929 . S
C938 C937 1.363 . S
C938 C944 1.428 . S
H939 C935 0.930 . S
H940 C937 0.929 . S
S941 N942 1.613 . S
S941 N943 1.610 . S
N942 S941 1.613 . S
N942 C945 1.350 . S
N943 S941 1.610 . S
N943 C944 1.351 . S
C944 C938 1.428 . S
C944 N943 1.351 . S
C944 C945 1.434 . S
C945 C936 1.429 . S
C945 N942 1.350 . S
C945 C944 1.434 . S
C946 C947 1.369 . S
C946 C948 1.419 . S
C946 H950 0.930 . S
C947 C946 1.369 . S
C947 C956 1.429 . S
C948 C946 1.419 . S
C948 C949 1.363 . S
C948 H951 0.929 . S
C949 C948 1.363 . S
C949 C955 1.428 . S
H950 C946 0.930 . S
H951 C948 0.929 . S
S952 N953 1.613 . S
S952 N954 1.610 . S
N953 S952 1.613 . S
N953 C956 1.350 . S
N954 S952 1.610 . S
N954 C955 1.351 . S
C955 C949 1.428 . S
C955 N954 1.351 . S
C955 C956 1.434 . S
C956 C947 1.429 . S
C956 N953 1.350 . S
C956 C955 1.434 . S
C957 C958 1.369 . S
C957 C959 1.419 . S
C957 H961 0.930 . S
C958 C957 1.369 . S
C958 C967 1.429 . S
C959 C957 1.419 . S
C959 C960 1.363 . S
C959 H962 0.929 . S
C960 C959 1.363 . S
C960 C966 1.428 . S
H961 C957 0.930 . S
H962 C959 0.929 . S
S963 N964 1.613 . S
S963 N965 1.610 . S
N964 S963 1.613 . S
N964 C967 1.350 . S
N965 S963 1.610 . S
N965 C966 1.351 . S
C966 C960 1.428 . S
C966 N965 1.351 . S
C966 C967 1.434 . S
C967 C958 1.429 . S
C967 N964 1.350 . S
C967 C966 1.434 . S
C968 C969 1.369 . S
C968 C970 1.419 . S
C968 H972 0.930 . S
C969 C968 1.369 . S
C969 C978 1.429 . S
C970 C968 1.419 . S
C970 C971 1.363 . S
C970 H973 0.929 . S
C971 C970 1.363 . S
C971 C977 1.428 . S
H972 C968 0.930 . S
H973 C970 0.929 . S
S974 N975 1.613 . S
S974 N976 1.610 . S
N975 S974 1.613 . S
N975 C978 1.350 . S
N976 S974 1.610 . S
N976 C977 1.351 . S
C977 C971 1.428 . S
C977 N976 1.351 . S
C977 C978 1.434 . S
C978 C969 1.429 . S
C978 N975 1.350 . S
C978 C977 1.434 . S
C979 C980 1.369 . S
C979 C981 1.419 . S
C979 H983 0.930 . S
C980 C979 1.369 . S
C980 C989 1.429 . S
C981 C979 1.419 . S
C981 C982 1.363 . S
C981 H984 0.929 . S
C982 C981 1.363 . S
C982 C988 1.428 . S
H983 C979 0.930 . S
H984 C981 0.929 . S
S985 N986 1.613 . S
S985 N987 1.610 . S
N986 S985 1.613 . S
N986 C989 1.350 . S
N987 S985 1.610 . S
N987 C988 1.351 . S
C988 C982 1.428 . S
C988 N987 1.351 . S
C988 C989 1.434 . S
C989 C980 1.429 . S
C989 N986 1.350 . S
C989 C988 1.434 . S
C990 C991 1.369 . S
C990 C992 1.419 . S
C990 H994 0.930 . S
C991 C990 1.369 . S
C991 C1000 1.429 . S
C992 C990 1.419 . S
C992 C993 1.363 . S
C992 H995 0.929 . S
C993 C992 1.363 . S
C993 C999 1.428 . S
H994 C990 0.930 . S
H995 C992 0.929 . S
S996 N997 1.613 . S
S996 N998 1.610 . S
N997 S996 1.613 . S
N997 C1000 1.350 . S
N998 S996 1.610 . S
N998 C999 1.351 . S
C999 C993 1.428 . S
C999 N998 1.351 . S
C999 C1000 1.434 . S
C1000 C991 1.429 . S
C1000 N997 1.350 . S
C1000 C999 1.434 . S
C1001 C1002 1.369 . S
C1001 C1003 1.419 . S
C1001 H1005 0.930 . S
C1002 C1001 1.369 . S
C1002 C1011 1.429 . S
C1003 C1001 1.419 . S
C1003 C1004 1.363 . S
C1003 H1006 0.929 . S
C1004 C1003 1.363 . S
C1004 C1010 1.428 . S
H1005 C1001 0.930 . S
H1006 C1003 0.929 . S
S1007 N1008 1.613 . S
S1007 N1009 1.610 . S
N1008 S1007 1.613 . S
N1008 C1011 1.350 . S
N1009 S1007 1.610 . S
N1009 C1010 1.351 . S
C1010 C1004 1.428 . S
C1010 N1009 1.351 . S
C1010 C1011 1.434 . S
C1011 C1002 1.429 . S
C1011 N1008 1.350 . S
C1011 C1010 1.434 . S
C1012 C1013 1.369 . S
C1012 C1014 1.419 . S
C1012 H1016 0.930 . S
C1013 C1012 1.369 . S
C1013 C1022 1.429 . S
C1014 C1012 1.419 . S
C1014 C1015 1.363 . S
C1014 H1017 0.929 . S
C1015 C1014 1.363 . S
C1015 C1021 1.428 . S
H1016 C1012 0.930 . S
H1017 C1014 0.929 . S
S1018 N1019 1.613 . S
S1018 N1020 1.610 . S
N1019 S1018 1.613 . S
N1019 C1022 1.350 . S
N1020 S1018 1.610 . S
N1020 C1021 1.351 . S
C1021 C1015 1.428 . S
C1021 N1020 1.351 . S
C1021 C1022 1.434 . S
C1022 C1013 1.429 . S
C1022 N1019 1.350 . S
C1022 C1021 1.434 . S
C1023 C1024 1.369 . S
C1023 C1025 1.419 . S
C1023 H1027 0.930 . S
C1024 C1023 1.369 . S
C1024 C1033 1.429 . S
C1025 C1023 1.419 . S
C1025 C1026 1.363 . S
C1025 H1028 0.929 . S
C1026 C1025 1.363 . S
C1026 C1032 1.428 . S
H1027 C1023 0.930 . S
H1028 C1025 0.929 . S
S1029 N1030 1.613 . S
S1029 N1031 1.610 . S
N1030 S1029 1.613 . S
N1030 C1033 1.350 . S
N1031 S1029 1.610 . S
N1031 C1032 1.351 . S
C1032 C1026 1.428 . S
C1032 N1031 1.351 . S
C1032 C1033 1.434 . S
C1033 C1024 1.429 . S
C1033 N1030 1.350 . S
C1033 C1032 1.434 . S
C1034 C1035 1.369 . S
C1034 C1036 1.419 . S
C1034 H1038 0.930 . S
C1035 C1034 1.369 . S
C1035 C1044 1.429 . S
C1036 C1034 1.419 . S
C1036 C1037 1.363 . S
C1036 H1039 0.929 . S
C1037 C1036 1.363 . S
C1037 C1043 1.428 . S
H1038 C1034 0.930 . S
H1039 C1036 0.929 . S
S1040 N1041 1.613 . S
S1040 N1042 1.610 . S
N1041 S1040 1.613 . S
N1041 C1044 1.350 . S
N1042 S1040 1.610 . S
N1042 C1043 1.351 . S
C1043 C1037 1.428 . S
C1043 N1042 1.351 . S
C1043 C1044 1.434 . S
C1044 C1035 1.429 . S
C1044 N1041 1.350 . S
C1044 C1043 1.434 . S
C1045 C1046 1.369 . S
C1045 C1047 1.419 . S
C1045 H1049 0.930 . S
C1046 C1045 1.369 . S
C1046 C1055 1.429 . S
C1047 C1045 1.419 . S
C1047 C1048 1.363 . S
C1047 H1050 0.929 . S
C1048 C1047 1.363 . S
C1048 C1054 1.428 . S
H1049 C1045 0.930 . S
H1050 C1047 0.929 . S
S1051 N1052 1.613 . S
S1051 N1053 1.610 . S
N1052 S1051 1.613 . S
N1052 C1055 1.350 . S
N1053 S1051 1.610 . S
N1053 C1054 1.351 . S
C1054 C1048 1.428 . S
C1054 N1053 1.351 . S
C1054 C1055 1.434 . S
C1055 C1046 1.429 . S
C1055 N1052 1.350 . S
C1055 C1054 1.434 . S
C1056 C1057 1.369 . S
C1056 C1058 1.419 . S
C1056 H1060 0.930 . S
C1057 C1056 1.369 . S
C1057 C1066 1.429 . S
C1058 C1056 1.419 . S
C1058 C1059 1.363 . S
C1058 H1061 0.929 . S
C1059 C1058 1.363 . S
C1059 C1065 1.428 . S
H1060 C1056 0.930 . S
H1061 C1058 0.929 . S
S1062 N1063 1.613 . S
S1062 N1064 1.610 . S
N1063 S1062 1.613 . S
N1063 C1066 1.350 . S
N1064 S1062 1.610 . S
N1064 C1065 1.351 . S
C1065 C1059 1.428 . S
C1065 N1064 1.351 . S
C1065 C1066 1.434 . S
C1066 C1057 1.429 . S
C1066 N1063 1.350 . S
C1066 C1065 1.434 . S
C1067 C1068 1.369 . S
C1067 C1069 1.419 . S
C1067 H1071 0.930 . S
C1068 C1067 1.369 . S
C1068 C1077 1.429 . S
C1069 C1067 1.419 . S
C1069 C1070 1.363 . S
C1069 H1072 0.929 . S
C1070 C1069 1.363 . S
C1070 C1076 1.428 . S
H1071 C1067 0.930 . S
H1072 C1069 0.929 . S
S1073 N1074 1.613 . S
S1073 N1075 1.610 . S
N1074 S1073 1.613 . S
N1074 C1077 1.350 . S
N1075 S1073 1.610 . S
N1075 C1076 1.351 . S
C1076 C1070 1.428 . S
C1076 N1075 1.351 . S
C1076 C1077 1.434 . S
C1077 C1068 1.429 . S
C1077 N1074 1.350 . S
C1077 C1076 1.434 . S
C1078 C1079 1.369 . S
C1078 C1080 1.419 . S
C1078 H1082 0.930 . S
C1079 C1078 1.369 . S
C1079 C1088 1.429 . S
C1080 C1078 1.419 . S
C1080 C1081 1.363 . S
C1080 H1083 0.929 . S
C1081 C1080 1.363 . S
C1081 C1087 1.428 . S
H1082 C1078 0.930 . S
H1083 C1080 0.929 . S
S1084 N1085 1.613 . S
S1084 N1086 1.610 . S
N1085 S1084 1.613 . S
N1085 C1088 1.350 . S
N1086 S1084 1.610 . S
N1086 C1087 1.351 . S
C1087 C1081 1.428 . S
C1087 N1086 1.351 . S
C1087 C1088 1.434 . S
C1088 C1079 1.429 . S
C1088 N1085 1.350 . S
C1088 C1087 1.434 . S
C1089 C1090 1.369 . S
C1089 C1091 1.419 . S
C1089 H1093 0.930 . S
C1090 C1089 1.369 . S
C1090 C1099 1.429 . S
C1091 C1089 1.419 . S
C1091 C1092 1.363 . S
C1091 H1094 0.929 . S
C1092 C1091 1.363 . S
C1092 C1098 1.428 . S
H1093 C1089 0.930 . S
H1094 C1091 0.929 . S
S1095 N1096 1.613 . S
S1095 N1097 1.610 . S
N1096 S1095 1.613 . S
N1096 C1099 1.350 . S
N1097 S1095 1.610 . S
N1097 C1098 1.351 . S
C1098 C1092 1.428 . S
C1098 N1097 1.351 . S
C1098 C1099 1.434 . S
C1099 C1090 1.429 . S
C1099 N1096 1.350 . S
C1099 C1098 1.434 . S
C1100 C1101 1.369 . S
C1100 C1102 1.419 . S
C1100 H1104 0.930 . S
C1101 C1100 1.369 . S
C1101 C1110 1.429 . S
C1102 C1100 1.419 . S
C1102 C1103 1.363 . S
C1102 H1105 0.929 . S
C1103 C1102 1.363 . S
C1103 C1109 1.428 . S
H1104 C1100 0.930 . S
H1105 C1102 0.929 . S
S1106 N1107 1.613 . S
S1106 N1108 1.610 . S
N1107 S1106 1.613 . S
N1107 C1110 1.350 . S
N1108 S1106 1.610 . S
N1108 C1109 1.351 . S
C1109 C1103 1.428 . S
C1109 N1108 1.351 . S
C1109 C1110 1.434 . S
C1110 C1101 1.429 . S
C1110 N1107 1.350 . S
C1110 C1109 1.434 . S
C1111 C1112 1.369 . S
C1111 C1113 1.419 . S
C1111 H1115 0.930 . S
C1112 C1111 1.369 . S
C1112 C1121 1.429 . S
C1113 C1111 1.419 . S
C1113 C1114 1.363 . S
C1113 H1116 0.929 . S
C1114 C1113 1.363 . S
C1114 C1120 1.428 . S
H1115 C1111 0.930 . S
H1116 C1113 0.929 . S
S1117 N1118 1.613 . S
S1117 N1119 1.610 . S
N1118 S1117 1.613 . S
N1118 C1121 1.350 . S
N1119 S1117 1.610 . S
N1119 C1120 1.351 . S
C1120 C1114 1.428 . S
C1120 N1119 1.351 . S
C1120 C1121 1.434 . S
C1121 C1112 1.429 . S
C1121 N1118 1.350 . S
C1121 C1120 1.434 . S
C1122 C1123 1.369 . S
C1122 C1124 1.419 . S
C1122 H1126 0.930 . S
C1123 C1122 1.369 . S
C1123 C1132 1.429 . S
C1124 C1122 1.419 . S
C1124 C1125 1.363 . S
C1124 H1127 0.929 . S
C1125 C1124 1.363 . S
C1125 C1131 1.428 . S
H1126 C1122 0.930 . S
H1127 C1124 0.929 . S
S1128 N1129 1.613 . S
S1128 N1130 1.610 . S
N1129 S1128 1.613 . S
N1129 C1132 1.350 . S
N1130 S1128 1.610 . S
N1130 C1131 1.351 . S
C1131 C1125 1.428 . S
C1131 N1130 1.351 . S
C1131 C1132 1.434 . S
C1132 C1123 1.429 . S
C1132 N1129 1.350 . S
C1132 C1131 1.434 . S
C1133 C1134 1.369 . S
C1133 C1135 1.419 . S
C1133 H1137 0.930 . S
C1134 C1133 1.369 . S
C1134 C1143 1.429 . S
C1135 C1133 1.419 . S
C1135 C1136 1.363 . S
C1135 H1138 0.929 . S
C1136 C1135 1.363 . S
C1136 C1142 1.428 . S
H1137 C1133 0.930 . S
H1138 C1135 0.929 . S
S1139 N1140 1.613 . S
S1139 N1141 1.610 . S
N1140 S1139 1.613 . S
N1140 C1143 1.350 . S
N1141 S1139 1.610 . S
N1141 C1142 1.351 . S
C1142 C1136 1.428 . S
C1142 N1141 1.351 . S
C1142 C1143 1.434 . S
C1143 C1134 1.429 . S
C1143 N1140 1.350 . S
C1143 C1142 1.434 . S
C1144 C1145 1.369 . S
C1144 C1146 1.419 . S
C1144 H1148 0.930 . S
C1145 C1144 1.369 . S
C1145 C1154 1.429 . S
C1146 C1144 1.419 . S
C1146 C1147 1.363 . S
C1146 H1149 0.929 . S
C1147 C1146 1.363 . S
C1147 C1153 1.428 . S
H1148 C1144 0.930 . S
H1149 C1146 0.929 . S
S1150 N1151 1.613 . S
S1150 N1152 1.610 . S
N1151 S1150 1.613 . S
N1151 C1154 1.350 . S
N1152 S1150 1.610 . S
N1152 C1153 1.351 . S
C1153 C1147 1.428 . S
C1153 N1152 1.351 . S
C1153 C1154 1.434 . S
C1154 C1145 1.429 . S
C1154 N1151 1.350 . S
C1154 C1153 1.434 . S
C1155 C1156 1.369 . S
C1155 C1157 1.419 . S
C1155 H1159 0.930 . S
C1156 C1155 1.369 . S
C1156 C1165 1.429 . S
C1157 C1155 1.419 . S
C1157 C1158 1.363 . S
C1157 H1160 0.929 . S
C1158 C1157 1.363 . S
C1158 C1164 1.428 . S
H1159 C1155 0.930 . S
H1160 C1157 0.929 . S
S1161 N1162 1.613 . S
S1161 N1163 1.610 . S
N1162 S1161 1.613 . S
N1162 C1165 1.350 . S
N1163 S1161 1.610 . S
N1163 C1164 1.351 . S
C1164 C1158 1.428 . S
C1164 N1163 1.351 . S
C1164 C1165 1.434 . S
C1165 C1156 1.429 . S
C1165 N1162 1.350 . S
C1165 C1164 1.434 . S
C1166 C1167 1.369 . S
C1166 C1168 1.419 . S
C1166 H1170 0.930 . S
C1167 C1166 1.369 . S
C1167 C1176 1.429 . S
C1168 C1166 1.419 . S
C1168 C1169 1.363 . S
C1168 H1171 0.929 . S
C1169 C1168 1.363 . S
C1169 C1175 1.428 . S
H1170 C1166 0.930 . S
H1171 C1168 0.929 . S
S1172 N1173 1.613 . S
S1172 N1174 1.610 . S
N1173 S1172 1.613 . S
N1173 C1176 1.350 . S
N1174 S1172 1.610 . S
N1174 C1175 1.351 . S
C1175 C1169 1.428 . S
C1175 N1174 1.351 . S
C1175 C1176 1.434 . S
C1176 C1167 1.429 . S
C1176 N1173 1.350 . S
C1176 C1175 1.434 . S
C1177 C1178 1.369 . S
C1177 C1179 1.419 . S
C1177 H1181 0.930 . S
C1178 C1177 1.369 . S
C1178 C1187 1.429 . S
C1179 C1177 1.419 . S
C1179 C1180 1.363 . S
C1179 H1182 0.929 . S
C1180 C1179 1.363 . S
C1180 C1186 1.428 . S
H1181 C1177 0.930 . S
H1182 C1179 0.929 . S
S1183 N1184 1.613 . S
S1183 N1185 1.610 . S
N1184 S1183 1.613 . S
N1184 C1187 1.350 . S
N1185 S1183 1.610 . S
N1185 C1186 1.351 . S
C1186 C1180 1.428 . S
C1186 N1185 1.351 . S
C1186 C1187 1.434 . S
C1187 C1178 1.429 . S
C1187 N1184 1.350 . S
C1187 C1186 1.434 . S
C1188 C1189 1.369 . S
C1188 C1190 1.419 . S
C1188 H1192 0.930 . S
C1189 C1188 1.369 . S
C1189 C1198 1.429 . S
C1190 C1188 1.419 . S
C1190 C1191 1.363 . S
C1190 H1193 0.929 . S
C1191 C1190 1.363 . S
C1191 C1197 1.428 . S
H1192 C1188 0.930 . S
H1193 C1190 0.929 . S
S1194 N1195 1.613 . S
S1194 N1196 1.610 . S
N1195 S1194 1.613 . S
N1195 C1198 1.350 . S
N1196 S1194 1.610 . S
N1196 C1197 1.351 . S
C1197 C1191 1.428 . S
C1197 N1196 1.351 . S
C1197 C1198 1.434 . S
C1198 C1189 1.429 . S
C1198 N1195 1.350 . S
C1198 C1197 1.434 . S
C1199 C1200 1.367 1_545 S
C1199 C1201 1.430 . S
C1199 H1203 0.921 1_545 S
C1200 C1199 1.367 1_565 S
C1200 C1209 1.429 . S
C1201 C1199 1.430 . S
C1201 C1202 1.363 . S
C1201 H1204 0.929 . S
C1202 C1201 1.363 . S
C1202 C1208 1.428 . S
H1203 C1199 0.921 1_565 S
H1204 C1201 0.929 . S
S1205 N1206 1.613 1_545 S
S1205 N1207 1.610 . S
N1206 S1205 1.613 1_565 S
N1206 C1209 1.350 . S
N1207 S1205 1.610 . S
N1207 C1208 1.351 . S
C1208 C1202 1.428 . S
C1208 N1207 1.351 . S
C1208 C1209 1.434 1_545 S
C1209 C1200 1.429 . S
C1209 N1206 1.350 . S
C1209 C1208 1.434 1_565 S
C1210 C1211 1.369 . S
C1210 C1212 1.430 . S
C1210 H1214 0.930 . S
C1211 C1210 1.369 . S
C1211 C1220 1.429 . S
C1212 C1210 1.430 . S
C1212 C1213 1.354 1_655 S
C1212 H1215 0.927 1_655 S
C1213 C1212 1.354 1_455 S
C1213 C1219 1.428 . S
H1214 C1210 0.930 . S
H1215 C1212 0.927 1_455 S
S1216 N1217 1.613 . S
S1216 N1218 1.610 1_655 S
N1217 S1216 1.613 . S
N1217 C1220 1.350 . S
N1218 S1216 1.610 1_455 S
N1218 C1219 1.351 . S
C1219 C1213 1.428 . S
C1219 N1218 1.351 . S
C1219 C1220 1.434 1_455 S
C1220 C1211 1.429 . S
C1220 N1217 1.350 . S
C1220 C1219 1.434 1_655 S
C1221 C1222 1.369 . S
C1221 C1223 1.419 . S
C1221 H1225 0.930 . S
C1222 C1221 1.369 . S
C1222 C1231 1.429 . S
C1223 C1221 1.419 . S
C1223 C1224 1.363 . S
C1223 H1226 0.929 . S
C1224 C1223 1.363 . S
C1224 C1230 1.428 . S
H1225 C1221 0.930 . S
H1226 C1223 0.929 . S
S1227 N1228 1.613 . S
S1227 N1229 1.610 . S
N1228 S1227 1.613 . S
N1228 C1231 1.350 . S
N1229 S1227 1.610 . S
N1229 C1230 1.351 . S
C1230 C1224 1.428 . S
C1230 N1229 1.351 . S
C1230 C1231 1.434 . S
C1231 C1222 1.429 . S
C1231 N1228 1.350 . S
C1231 C1230 1.434 . S
C1232 C1233 1.369 . S
C1232 C1234 1.419 1_545 S
C1232 H1236 0.930 . S
C1233 C1232 1.369 . S
C1233 C1242 1.438 . S
C1234 C1232 1.419 1_565 S
C1234 C1235 1.363 . S
C1234 H1237 0.929 . S
C1235 C1234 1.363 . S
C1235 C1241 1.428 . S
H1236 C1232 0.930 . S
H1237 C1234 0.929 . S
S1238 N1239 1.613 1_565 S
S1238 N1240 1.610 . S
N1239 S1238 1.613 1_545 S
N1239 C1242 1.348 . S
N1240 S1238 1.610 . S
N1240 C1241 1.351 . S
C1241 C1235 1.428 . S
C1241 N1240 1.351 . S
C1241 C1242 1.425 1_565 S
C1242 C1233 1.438 . S
C1242 N1239 1.348 . S
C1242 C1241 1.425 1_545 S
C1243 C1244 1.369 . S
C1243 C1245 1.419 1_455 S
C1243 H1247 0.930 . S
C1244 C1243 1.369 . S
C1244 C1253 1.429 . S
C1245 C1243 1.419 1_655 S
C1245 C1246 1.363 . S
C1245 H1248 0.929 . S
C1246 C1245 1.363 . S
C1246 C1252 1.428 . S
H1247 C1243 0.930 . S
H1248 C1245 0.929 . S
S1249 N1250 1.613 . S
S1249 N1251 1.610 1_455 S
N1250 S1249 1.613 . S
N1250 C1253 1.350 . S
N1251 S1249 1.610 1_655 S
N1251 C1252 1.349 . S
C1252 C1246 1.428 . S
C1252 N1251 1.349 . S
C1252 C1253 1.436 1_655 S
C1253 C1244 1.429 . S
C1253 N1250 1.350 . S
C1253 C1252 1.436 1_455 S
C1254 C1255 1.369 . S
C1254 C1256 1.419 . S
C1254 H1258 0.930 . S
C1255 C1254 1.369 . S
C1255 C1264 1.429 . S
C1256 C1254 1.419 . S
C1256 C1257 1.363 . S
C1256 H1259 0.929 . S
C1257 C1256 1.363 . S
C1257 C1263 1.428 . S
H1258 C1254 0.930 . S
H1259 C1256 0.929 . S
S1260 N1261 1.613 . S
S1260 N1262 1.610 . S
N1261 S1260 1.613 . S
N1261 C1264 1.350 . S
N1262 S1260 1.610 . S
N1262 C1263 1.351 . S
C1263 C1257 1.428 . S
C1263 N1262 1.351 . S
C1263 C1264 1.434 . S
C1264 C1255 1.429 . S
C1264 N1261 1.350 . S
C1264 C1263 1.434 . S
C1265 C1266 1.369 . S
C1265 C1267 1.419 1_545 S
C1265 H1269 0.930 . S
C1266 C1265 1.369 . S
C1266 C1275 1.424 1_545 S
C1267 C1265 1.419 1_565 S
C1267 C1268 1.363 . S
C1267 H1270 0.929 . S
C1268 C1267 1.363 . S
C1268 C1274 1.428 . S
H1269 C1265 0.930 . S
H1270 C1267 0.929 . S
S1271 N1272 1.613 1_565 S
S1271 N1273 1.610 . S
N1272 S1271 1.613 1_545 S
N1272 C1275 1.343 1_545 S
N1273 S1271 1.610 . S
N1273 C1274 1.351 . S
C1274 C1268 1.428 . S
C1274 N1273 1.351 . S
C1274 C1275 1.446 . S
C1275 C1266 1.424 1_565 S
C1275 N1272 1.343 1_565 S
C1275 C1274 1.446 . S
C1276 C1277 1.397 . S
C1276 C1278 1.390 1_655 S
C1276 H1280 0.931 . S
C1277 C1276 1.397 . S
C1277 C1286 1.429 . S
C1278 C1276 1.390 1_455 S
C1278 C1279 1.363 . S
C1278 H1281 0.929 . S
C1279 C1278 1.363 . S
C1279 C1285 1.428 . S
H1280 C1276 0.931 . S
H1281 C1278 0.929 . S
S1282 N1283 1.613 1_455 S
S1282 N1284 1.610 . S
N1283 S1282 1.613 1_655 S
N1283 C1286 1.350 . S
N1284 S1282 1.610 . S
N1284 C1285 1.351 . S
C1285 C1279 1.428 . S
C1285 N1284 1.351 . S
C1285 C1286 1.434 1_455 S
C1286 C1277 1.429 . S
C1286 N1283 1.350 . S
C1286 C1285 1.434 1_655 S
C1287 C1288 1.369 . S
C1287 C1289 1.419 . S
C1287 H1291 0.930 . S
C1288 C1287 1.369 . S
C1288 C1297 1.429 . S
C1289 C1287 1.419 . S
C1289 C1290 1.363 . S
C1289 H1292 0.929 . S
C1290 C1289 1.363 . S
C1290 C1296 1.428 . S
H1291 C1287 0.930 . S
H1292 C1289 0.929 . S
S1293 N1294 1.613 . S
S1293 N1295 1.610 . S
N1294 S1293 1.613 . S
N1294 C1297 1.350 . S
N1295 S1293 1.610 . S
N1295 C1296 1.351 . S
C1296 C1290 1.428 . S
C1296 N1295 1.351 . S
C1296 C1297 1.434 . S
C1297 C1288 1.429 . S
C1297 N1294 1.350 . S
C1297 C1296 1.434 . S
C1298 C1299 1.369 . S
C1298 C1300 1.420 1_565 S
C1298 H1302 0.929 . S
C1299 C1298 1.369 . S
C1299 C1308 1.429 . S
C1300 C1298 1.420 1_545 S
C1300 C1301 1.363 . S
C1300 H1303 0.929 . S
C1301 C1300 1.363 . S
C1301 C1307 1.428 . S
H1302 C1298 0.929 . S
H1303 C1300 0.929 . S
S1304 N1305 1.613 1_545 S
S1304 N1306 1.610 . S
N1305 S1304 1.613 1_565 S
N1305 C1308 1.350 . S
N1306 S1304 1.610 . S
N1306 C1307 1.351 . S
C1307 C1301 1.428 . S
C1307 N1306 1.351 . S
C1307 C1308 1.434 1_545 S
C1308 C1299 1.429 . S
C1308 N1305 1.350 . S
C1308 C1307 1.434 1_565 S
C1309 C1310 1.369 . S
C1309 C1311 1.427 . S
C1309 H1313 0.930 . S
C1310 C1309 1.369 . S
C1310 C1319 1.429 . S
C1311 C1309 1.427 . S
C1311 C1312 1.359 1_655 S
C1311 H1314 0.925 1_655 S
C1312 C1311 1.359 1_455 S
C1312 C1318 1.428 . S
H1313 C1309 0.930 . S
H1314 C1311 0.925 1_455 S
S1315 N1316 1.613 . S
S1315 N1317 1.610 1_655 S
N1316 S1315 1.613 . S
N1316 C1319 1.350 . S
N1317 S1315 1.610 1_455 S
N1317 C1318 1.351 . S
C1318 C1312 1.428 . S
C1318 N1317 1.351 . S
C1318 C1319 1.434 1_455 S
C1319 C1310 1.429 . S
C1319 N1316 1.350 . S
C1319 C1318 1.434 1_655 S
C1320 C1321 1.369 . S
C1320 C1322 1.419 . S
C1320 H1324 0.930 . S
C1321 C1320 1.369 . S
C1321 C1330 1.429 . S
C1322 C1320 1.419 . S
C1322 C1323 1.363 . S
C1322 H1325 0.929 . S
C1323 C1322 1.363 . S
C1323 C1329 1.428 . S
H1324 C1320 0.930 . S
H1325 C1322 0.929 . S
S1326 N1327 1.613 . S
S1326 N1328 1.610 . S
N1327 S1326 1.613 . S
N1327 C1330 1.350 . S
N1328 S1326 1.610 . S
N1328 C1329 1.351 . S
C1329 C1323 1.428 . S
C1329 N1328 1.351 . S
C1329 C1330 1.434 . S
C1330 C1321 1.429 . S
C1330 N1327 1.350 . S
C1330 C1329 1.434 . S
C1331 C1332 1.369 . S
C1331 C1333 1.419 . S
C1331 H1335 0.930 . S
C1332 C1331 1.369 . S
C1332 C1341 1.429 . S
C1333 C1331 1.419 . S
C1333 C1334 1.363 . S
C1333 H1336 0.929 . S
C1334 C1333 1.363 . S
C1334 C1340 1.428 . S
H1335 C1331 0.930 . S
H1336 C1333 0.929 . S
S1337 N1338 1.613 . S
S1337 N1339 1.610 . S
N1338 S1337 1.613 . S
N1338 C1341 1.350 . S
N1339 S1337 1.610 . S
N1339 C1340 1.351 . S
C1340 C1334 1.428 . S
C1340 N1339 1.351 . S
C1340 C1341 1.434 . S
C1341 C1332 1.429 . S
C1341 N1338 1.350 . S
C1341 C1340 1.434 . S
C1342 C1343 1.369 . S
C1342 C1344 1.419 . S
C1342 H1346 0.930 . S
C1343 C1342 1.369 . S
C1343 C1352 1.429 . S
C1344 C1342 1.419 . S
C1344 C1345 1.363 . S
C1344 H1347 0.929 . S
C1345 C1344 1.363 . S
C1345 C1351 1.428 . S
H1346 C1342 0.930 . S
H1347 C1344 0.929 . S
S1348 N1349 1.613 . S
S1348 N1350 1.610 . S
N1349 S1348 1.613 . S
N1349 C1352 1.350 . S
N1350 S1348 1.610 . S
N1350 C1351 1.351 . S
C1351 C1345 1.428 . S
C1351 N1350 1.351 . S
C1351 C1352 1.434 . S
C1352 C1343 1.429 . S
C1352 N1349 1.350 . S
C1352 C1351 1.434 . S
C1353 C1354 1.369 . S
C1353 C1355 1.419 . S
C1353 H1357 0.930 . S
C1354 C1353 1.369 . S
C1354 C1363 1.429 . S
C1355 C1353 1.419 . S
C1355 C1356 1.363 . S
C1355 H1358 0.929 . S
C1356 C1355 1.363 . S
C1356 C1362 1.428 . S
H1357 C1353 0.930 . S
H1358 C1355 0.929 . S
S1359 N1360 1.613 . S
S1359 N1361 1.610 . S
N1360 S1359 1.613 . S
N1360 C1363 1.350 . S
N1361 S1359 1.610 . S
N1361 C1362 1.351 . S
C1362 C1356 1.428 . S
C1362 N1361 1.351 . S
C1362 C1363 1.434 . S
C1363 C1354 1.429 . S
C1363 N1360 1.350 . S
C1363 C1362 1.434 . S
C1364 C1365 1.369 . S
C1364 C1366 1.419 . S
C1364 H1368 0.930 . S
C1365 C1364 1.369 . S
C1365 C1374 1.429 . S
C1366 C1364 1.419 . S
C1366 C1367 1.363 . S
C1366 H1369 0.929 . S
C1367 C1366 1.363 . S
C1367 C1373 1.428 . S
H1368 C1364 0.930 . S
H1369 C1366 0.929 . S
S1370 N1371 1.613 . S
S1370 N1372 1.610 . S
N1371 S1370 1.613 . S
N1371 C1374 1.350 . S
N1372 S1370 1.610 . S
N1372 C1373 1.351 . S
C1373 C1367 1.428 . S
C1373 N1372 1.351 . S
C1373 C1374 1.434 . S
C1374 C1365 1.429 . S
C1374 N1371 1.350 . S
C1374 C1373 1.434 . S
C1375 C1376 1.369 . S
C1375 C1377 1.419 . S
C1375 H1379 0.930 . S
C1376 C1375 1.369 . S
C1376 C1385 1.429 . S
C1377 C1375 1.419 . S
C1377 C1378 1.363 . S
C1377 H1380 0.929 . S
C1378 C1377 1.363 . S
C1378 C1384 1.428 . S
H1379 C1375 0.930 . S
H1380 C1377 0.929 . S
S1381 N1382 1.613 . S
S1381 N1383 1.610 . S
N1382 S1381 1.613 . S
N1382 C1385 1.350 . S
N1383 S1381 1.610 . S
N1383 C1384 1.351 . S
C1384 C1378 1.428 . S
C1384 N1383 1.351 . S
C1384 C1385 1.434 . S
C1385 C1376 1.429 . S
C1385 N1382 1.350 . S
C1385 C1384 1.434 . S
C1386 C1387 1.369 . S
C1386 C1388 1.419 . S
C1386 H1390 0.930 . S
C1387 C1386 1.369 . S
C1387 C1396 1.429 . S
C1388 C1386 1.419 . S
C1388 C1389 1.363 . S
C1388 H1391 0.929 . S
C1389 C1388 1.363 . S
C1389 C1395 1.428 . S
H1390 C1386 0.930 . S
H1391 C1388 0.929 . S
S1392 N1393 1.613 . S
S1392 N1394 1.610 . S
N1393 S1392 1.613 . S
N1393 C1396 1.350 . S
N1394 S1392 1.610 . S
N1394 C1395 1.351 . S
C1395 C1389 1.428 . S
C1395 N1394 1.351 . S
C1395 C1396 1.434 . S
C1396 C1387 1.429 . S
C1396 N1393 1.350 . S
C1396 C1395 1.434 . S
C1397 C1398 1.369 . S
C1397 C1399 1.419 . S
C1397 H1401 0.930 . S
C1398 C1397 1.369 . S
C1398 C1407 1.429 . S
C1399 C1397 1.419 . S
C1399 C1400 1.363 . S
C1399 H1402 0.929 . S
C1400 C1399 1.363 . S
C1400 C1406 1.428 . S
H1401 C1397 0.930 . S
H1402 C1399 0.929 . S
S1403 N1404 1.613 . S
S1403 N1405 1.610 . S
N1404 S1403 1.613 . S
N1404 C1407 1.350 . S
N1405 S1403 1.610 . S
N1405 C1406 1.351 . S
C1406 C1400 1.428 . S
C1406 N1405 1.351 . S
C1406 C1407 1.434 . S
C1407 C1398 1.429 . S
C1407 N1404 1.350 . S
C1407 C1406 1.434 . S
C1408 C1409 1.369 . S
C1408 C1410 1.419 . S
C1408 H1412 0.930 . S
C1409 C1408 1.369 . S
C1409 C1418 1.429 . S
C1410 C1408 1.419 . S
C1410 C1411 1.363 . S
C1410 H1413 0.929 . S
C1411 C1410 1.363 . S
C1411 C1417 1.428 . S
H1412 C1408 0.930 . S
H1413 C1410 0.929 . S
S1414 N1415 1.613 . S
S1414 N1416 1.610 . S
N1415 S1414 1.613 . S
N1415 C1418 1.350 . S
N1416 S1414 1.610 . S
N1416 C1417 1.351 . S
C1417 C1411 1.428 . S
C1417 N1416 1.351 . S
C1417 C1418 1.434 . S
C1418 C1409 1.429 . S
C1418 N1415 1.350 . S
C1418 C1417 1.434 . S
C1419 C1420 1.369 . S
C1419 C1421 1.419 . S
C1419 H1423 0.930 1_556 S
C1420 C1419 1.369 . S
C1420 C1429 1.429 . S
C1421 C1419 1.419 . S
C1421 C1422 1.363 . S
C1421 H1424 0.929 1_556 S
C1422 C1421 1.363 . S
C1422 C1428 1.428 . S
H1423 C1419 0.930 1_554 S
H1424 C1421 0.929 1_554 S
S1425 N1426 1.613 . S
S1425 N1427 1.610 . S
N1426 S1425 1.613 . S
N1426 C1429 1.350 . S
N1427 S1425 1.610 . S
N1427 C1428 1.351 . S
C1428 C1422 1.428 . S
C1428 N1427 1.351 . S
C1428 C1429 1.434 . S
C1429 C1420 1.429 . S
C1429 N1426 1.350 . S
C1429 C1428 1.434 . S
C1430 C1431 1.369 . S
C1430 C1432 1.419 . S
C1430 H1434 0.930 . S
C1431 C1430 1.369 . S
C1431 C1440 1.429 1_556 S
C1432 C1430 1.419 . S
C1432 C1433 1.363 . S
C1432 H1435 0.929 . S
C1433 C1432 1.363 . S
C1433 C1439 1.426 . S
H1434 C1430 0.930 . S
H1435 C1432 0.929 . S
S1436 N1437 1.613 . S
S1436 N1438 1.610 . S
N1437 S1436 1.613 . S
N1437 C1440 1.350 . S
N1438 S1436 1.610 . S
N1438 C1439 1.353 1_554 S
C1439 C1433 1.426 . S
C1439 N1438 1.353 1_556 S
C1439 C1440 1.434 1_556 S
C1440 C1431 1.429 1_554 S
C1440 N1437 1.350 . S
C1440 C1439 1.434 1_554 S
C1441 C1442 1.369 . S
C1441 C1443 1.419 . S
C1441 H1445 0.930 . S
C1442 C1441 1.369 . S
C1442 C1451 1.429 . S
C1443 C1441 1.419 . S
C1443 C1444 1.363 . S
C1443 H1446 0.929 . S
C1444 C1443 1.363 . S
C1444 C1450 1.428 . S
H1445 C1441 0.930 . S
H1446 C1443 0.929 . S
S1447 N1448 1.613 . S
S1447 N1449 1.610 . S
N1448 S1447 1.613 . S
N1448 C1451 1.350 . S
N1449 S1447 1.610 . S
N1449 C1450 1.351 . S
C1450 C1444 1.428 . S
C1450 N1449 1.351 . S
C1450 C1451 1.434 . S
C1451 C1442 1.429 . S
C1451 N1448 1.350 . S
C1451 C1450 1.434 . S
C1452 C1453 1.369 . S
C1452 C1454 1.419 . S
C1452 H1456 0.930 . S
C1453 C1452 1.369 . S
C1453 C1462 1.429 . S
C1454 C1452 1.419 . S
C1454 C1455 1.363 . S
C1454 H1457 0.929 . S
C1455 C1454 1.363 . S
C1455 C1461 1.428 . S
H1456 C1452 0.930 . S
H1457 C1454 0.929 . S
S1458 N1459 1.613 . S
S1458 N1460 1.610 . S
N1459 S1458 1.613 . S
N1459 C1462 1.350 . S
N1460 S1458 1.610 . S
N1460 C1461 1.351 . S
C1461 C1455 1.428 . S
C1461 N1460 1.351 . S
C1461 C1462 1.434 . S
C1462 C1453 1.429 . S
C1462 N1459 1.350 . S
C1462 C1461 1.434 . S
C1463 C1464 1.369 . S
C1463 C1465 1.419 . S
C1463 H1467 0.930 . S
C1464 C1463 1.369 . S
C1464 C1473 1.429 . S
C1465 C1463 1.419 . S
C1465 C1466 1.363 . S
C1465 H1468 0.929 . S
C1466 C1465 1.363 . S
C1466 C1472 1.428 . S
H1467 C1463 0.930 . S
H1468 C1465 0.929 . S
S1469 N1470 1.613 . S
S1469 N1471 1.610 . S
N1470 S1469 1.613 . S
N1470 C1473 1.350 . S
N1471 S1469 1.610 . S
N1471 C1472 1.351 . S
C1472 C1466 1.428 . S
C1472 N1471 1.351 . S
C1472 C1473 1.434 . S
C1473 C1464 1.429 . S
C1473 N1470 1.350 . S
C1473 C1472 1.434 . S
C1474 C1475 1.369 . S
C1474 C1476 1.419 . S
C1474 H1478 0.930 . S
C1475 C1474 1.369 . S
C1475 C1484 1.429 . S
C1476 C1474 1.419 . S
C1476 C1477 1.363 . S
C1476 H1479 0.929 . S
C1477 C1476 1.363 . S
C1477 C1483 1.428 . S
H1478 C1474 0.930 . S
H1479 C1476 0.929 . S
S1480 N1481 1.613 . S
S1480 N1482 1.610 . S
N1481 S1480 1.613 . S
N1481 C1484 1.350 . S
N1482 S1480 1.610 . S
N1482 C1483 1.351 . S
C1483 C1477 1.428 . S
C1483 N1482 1.351 . S
C1483 C1484 1.434 . S
C1484 C1475 1.429 . S
C1484 N1481 1.350 . S
C1484 C1483 1.434 . S
C1485 C1486 1.369 . S
C1485 C1487 1.419 . S
C1485 H1489 0.930 . S
C1486 C1485 1.369 . S
C1486 C1495 1.429 . S
C1487 C1485 1.419 . S
C1487 C1488 1.363 . S
C1487 H1490 0.929 . S
C1488 C1487 1.363 . S
C1488 C1494 1.428 . S
H1489 C1485 0.930 . S
H1490 C1487 0.929 . S
S1491 N1492 1.613 . S
S1491 N1493 1.610 . S
N1492 S1491 1.613 . S
N1492 C1495 1.350 . S
N1493 S1491 1.610 . S
N1493 C1494 1.351 . S
C1494 C1488 1.428 . S
C1494 N1493 1.351 . S
C1494 C1495 1.434 . S
C1495 C1486 1.429 . S
C1495 N1492 1.350 . S
C1495 C1494 1.434 . S
C1496 C1497 1.369 . S
C1496 C1498 1.419 . S
C1496 H1500 0.930 1_554 S
C1497 C1496 1.369 . S
C1497 C1506 1.429 . S
C1498 C1496 1.419 . S
C1498 C1499 1.363 . S
C1498 H1501 0.929 1_554 S
C1499 C1498 1.363 . S
C1499 C1505 1.428 . S
H1500 C1496 0.930 1_556 S
H1501 C1498 0.929 1_556 S
S1502 N1503 1.613 . S
S1502 N1504 1.610 . S
N1503 S1502 1.613 . S
N1503 C1506 1.350 . S
N1504 S1502 1.610 . S
N1504 C1505 1.351 . S
C1505 C1499 1.428 . S
C1505 N1504 1.351 . S
C1505 C1506 1.434 . S
C1506 C1497 1.429 . S
C1506 N1503 1.350 . S
C1506 C1505 1.434 . S
C1507 C1508 1.369 . S
C1507 C1509 1.419 . S
C1507 H1511 0.930 . S
C1508 C1507 1.369 . S
C1508 C1517 1.429 1_554 S
C1509 C1507 1.419 . S
C1509 C1510 1.363 . S
C1509 H1512 0.929 . S
C1510 C1509 1.363 . S
C1510 C1516 1.429 . S
H1511 C1507 0.930 . S
H1512 C1509 0.929 . S
S1513 N1514 1.613 . S
S1513 N1515 1.610 . S
N1514 S1513 1.613 . S
N1514 C1517 1.350 . S
N1515 S1513 1.610 . S
N1515 C1516 1.350 1_556 S
C1516 C1510 1.429 . S
C1516 N1515 1.350 1_554 S
C1516 C1517 1.434 1_554 S
C1517 C1508 1.429 1_556 S
C1517 N1514 1.350 . S
C1517 C1516 1.434 1_556 S
C1518 C1519 1.369 . S
C1518 C1520 1.419 . S
C1518 H1522 0.930 . S
C1519 C1518 1.369 . S
C1519 C1528 1.429 . S
C1520 C1518 1.419 . S
C1520 C1521 1.363 . S
C1520 H1523 0.929 . S
C1521 C1520 1.363 . S
C1521 C1527 1.428 . S
H1522 C1518 0.930 . S
H1523 C1520 0.929 . S
S1524 N1525 1.613 . S
S1524 N1526 1.610 . S
N1525 S1524 1.613 . S
N1525 C1528 1.350 . S
N1526 S1524 1.610 . S
N1526 C1527 1.351 . S
C1527 C1521 1.428 . S
C1527 N1526 1.351 . S
C1527 C1528 1.434 . S
C1528 C1519 1.429 . S
C1528 N1525 1.350 . S
C1528 C1527 1.434 . S
C1529 C1530 1.369 . S
C1529 C1531 1.419 . S
C1529 H1533 0.930 . S
C1530 C1529 1.369 . S
C1530 C1539 1.429 . S
C1531 C1529 1.419 . S
C1531 C1532 1.363 . S
C1531 H1534 0.929 . S
C1532 C1531 1.363 . S
C1532 C1538 1.428 . S
H1533 C1529 0.930 . S
H1534 C1531 0.929 . S
S1535 N1536 1.613 . S
S1535 N1537 1.610 . S
N1536 S1535 1.613 . S
N1536 C1539 1.350 . S
N1537 S1535 1.610 . S
N1537 C1538 1.351 . S
C1538 C1532 1.428 . S
C1538 N1537 1.351 . S
C1538 C1539 1.434 . S
C1539 C1530 1.429 . S
C1539 N1536 1.350 . S
C1539 C1538 1.434 . S
C1540 C1541 1.369 . S
C1540 C1542 1.419 . S
C1540 H1544 0.930 . S
C1541 C1540 1.369 . S
C1541 C1550 1.429 . S
C1542 C1540 1.419 . S
C1542 C1543 1.363 . S
C1542 H1545 0.929 . S
C1543 C1542 1.363 . S
C1543 C1549 1.428 . S
H1544 C1540 0.930 . S
H1545 C1542 0.929 . S
S1546 N1547 1.613 . S
S1546 N1548 1.610 . S
N1547 S1546 1.613 . S
N1547 C1550 1.350 . S
N1548 S1546 1.610 . S
N1548 C1549 1.351 . S
C1549 C1543 1.428 . S
C1549 N1548 1.351 . S
C1549 C1550 1.434 . S
C1550 C1541 1.429 . S
C1550 N1547 1.350 . S
C1550 C1549 1.434 . S
C1551 C1552 1.369 . S
C1551 C1553 1.419 . S
C1551 H1555 0.930 . S
C1552 C1551 1.369 . S
C1552 C1561 1.429 . S
C1553 C1551 1.419 . S
C1553 C1554 1.363 . S
C1553 H1556 0.929 . S
C1554 C1553 1.363 . S
C1554 C1560 1.428 . S
H1555 C1551 0.930 . S
H1556 C1553 0.929 . S
S1557 N1558 1.613 . S
S1557 N1559 1.610 . S
N1558 S1557 1.613 . S
N1558 C1561 1.350 . S
N1559 S1557 1.610 . S
N1559 C1560 1.351 . S
C1560 C1554 1.428 . S
C1560 N1559 1.351 . S
C1560 C1561 1.434 . S
C1561 C1552 1.429 . S
C1561 N1558 1.350 . S
C1561 C1560 1.434 . S
C1562 C1563 1.369 . S
C1562 C1564 1.419 . S
C1562 H1566 0.930 . S
C1563 C1562 1.369 . S
C1563 C1572 1.429 . S
C1564 C1562 1.419 . S
C1564 C1565 1.363 . S
C1564 H1567 0.929 . S
C1565 C1564 1.363 . S
C1565 C1571 1.428 . S
H1566 C1562 0.930 . S
H1567 C1564 0.929 . S
S1568 N1569 1.613 . S
S1568 N1570 1.610 . S
N1569 S1568 1.613 . S
N1569 C1572 1.350 . S
N1570 S1568 1.610 . S
N1570 C1571 1.351 . S
C1571 C1565 1.428 . S
C1571 N1570 1.351 . S
C1571 C1572 1.434 . S
C1572 C1563 1.429 . S
C1572 N1569 1.350 . S
C1572 C1571 1.434 . S
C1573 C1574 1.369 . S
C1573 C1575 1.419 . S
C1573 H1577 0.930 . S
C1574 C1573 1.369 . S
C1574 C1583 1.429 . S
C1575 C1573 1.419 . S
C1575 C1576 1.363 . S
C1575 H1578 0.929 . S
C1576 C1575 1.363 . S
C1576 C1582 1.428 . S
H1577 C1573 0.930 . S
H1578 C1575 0.929 . S
S1579 N1580 1.613 . S
S1579 N1581 1.610 . S
N1580 S1579 1.613 . S
N1580 C1583 1.350 . S
N1581 S1579 1.610 . S
N1581 C1582 1.351 . S
C1582 C1576 1.428 . S
C1582 N1581 1.351 . S
C1582 C1583 1.434 . S
C1583 C1574 1.429 . S
C1583 N1580 1.350 . S
C1583 C1582 1.434 . S
C1584 C1585 1.369 . S
C1584 C1586 1.419 . S
C1584 H1588 0.930 . S
C1585 C1584 1.369 . S
C1585 C1594 1.429 1_655 S
C1586 C1584 1.419 . S
C1586 C1587 1.363 1_655 S
C1586 H1589 0.929 . S
C1587 C1586 1.363 1_455 S
C1587 C1593 1.428 . S
H1588 C1584 0.930 . S
H1589 C1586 0.929 . S
S1590 N1591 1.613 . S
S1590 N1592 1.610 . S
N1591 S1590 1.613 . S
N1591 C1594 1.350 . S
N1592 S1590 1.610 . S
N1592 C1593 1.351 . S
C1593 C1587 1.428 . S
C1593 N1592 1.351 . S
C1593 C1594 1.434 . S
C1594 C1585 1.429 1_455 S
C1594 N1591 1.350 . S
C1594 C1593 1.434 . S
C1595 C1596 1.369 . S
C1595 C1597 1.419 . S
C1595 H1599 0.930 . S
C1596 C1595 1.369 . S
C1596 C1605 1.429 . S
C1597 C1595 1.419 . S
C1597 C1598 1.363 . S
C1597 H1600 0.929 . S
C1598 C1597 1.363 . S
C1598 C1604 1.428 . S
H1599 C1595 0.930 . S
H1600 C1597 0.929 . S
S1601 N1602 1.613 . S
S1601 N1603 1.610 . S
N1602 S1601 1.613 . S
N1602 C1605 1.350 . S
N1603 S1601 1.610 . S
N1603 C1604 1.351 . S
C1604 C1598 1.428 . S
C1604 N1603 1.351 . S
C1604 C1605 1.434 . S
C1605 C1596 1.429 . S
C1605 N1602 1.350 . S
C1605 C1604 1.434 . S
C1606 C1607 1.369 1_565 S
C1606 C1608 1.419 . S
C1606 H1610 0.930 . S
C1607 C1606 1.369 1_545 S
C1607 C1616 1.429 . S
C1608 C1606 1.419 . S
C1608 C1609 1.363 . S
C1608 H1611 0.929 . S
C1609 C1608 1.363 . S
C1609 C1615 1.428 1_565 S
H1610 C1606 0.930 . S
H1611 C1608 0.929 . S
S1612 N1613 1.613 . S
S1612 N1614 1.610 . S
N1613 S1612 1.613 . S
N1613 C1616 1.350 . S
N1614 S1612 1.610 . S
N1614 C1615 1.351 . S
C1615 C1609 1.428 1_545 S
C1615 N1614 1.351 . S
C1615 C1616 1.434 . S
C1616 C1607 1.429 . S
C1616 N1613 1.350 . S
C1616 C1615 1.434 . S
C1617 C1618 1.369 1_655 S
C1617 C1619 1.419 . S
C1617 H1621 0.930 . S
C1618 C1617 1.369 1_455 S
C1618 C1627 1.429 . S
C1619 C1617 1.419 . S
C1619 C1620 1.363 . S
C1619 H1622 0.929 . S
C1620 C1619 1.363 . S
C1620 C1626 1.428 1_655 S
H1621 C1617 0.930 . S
H1622 C1619 0.929 . S
S1623 N1624 1.613 . S
S1623 N1625 1.610 . S
N1624 S1623 1.613 . S
N1624 C1627 1.350 . S
N1625 S1623 1.610 . S
N1625 C1626 1.351 . S
C1626 C1620 1.428 1_455 S
C1626 N1625 1.351 . S
C1626 C1627 1.434 . S
C1627 C1618 1.429 . S
C1627 N1624 1.350 . S
C1627 C1626 1.434 . S
C1628 C1629 1.369 . S
C1628 C1630 1.419 . S
C1628 H1632 0.930 . S
C1629 C1628 1.369 . S
C1629 C1638 1.429 . S
C1630 C1628 1.419 . S
C1630 C1631 1.363 . S
C1630 H1633 0.929 . S
C1631 C1630 1.363 . S
C1631 C1637 1.428 . S
H1632 C1628 0.930 . S
H1633 C1630 0.929 . S
S1634 N1635 1.613 . S
S1634 N1636 1.610 . S
N1635 S1634 1.613 . S
N1635 C1638 1.350 . S
N1636 S1634 1.610 . S
N1636 C1637 1.351 . S
C1637 C1631 1.428 . S
C1637 N1636 1.351 . S
C1637 C1638 1.434 . S
C1638 C1629 1.429 . S
C1638 N1635 1.350 . S
C1638 C1637 1.434 . S
C1639 C1640 1.369 1_565 S
C1639 C1641 1.419 . S
C1639 H1643 0.930 . S
C1640 C1639 1.369 1_545 S
C1640 C1649 1.429 . S
C1641 C1639 1.419 . S
C1641 C1642 1.363 . S
C1641 H1644 0.929 . S
C1642 C1641 1.363 . S
C1642 C1648 1.428 1_565 S
H1643 C1639 0.930 . S
H1644 C1641 0.929 . S
S1645 N1646 1.613 . S
S1645 N1647 1.610 . S
N1646 S1645 1.613 . S
N1646 C1649 1.350 . S
N1647 S1645 1.610 . S
N1647 C1648 1.351 . S
C1648 C1642 1.428 1_545 S
C1648 N1647 1.351 . S
C1648 C1649 1.434 . S
C1649 C1640 1.429 . S
C1649 N1646 1.350 . S
C1649 C1648 1.434 . S
C1650 C1651 1.369 . S
C1650 C1652 1.419 . S
C1650 H1654 0.930 . S
C1651 C1650 1.369 . S
C1651 C1660 1.429 . S
C1652 C1650 1.419 . S
C1652 C1653 1.363 . S
C1652 H1655 0.929 . S
C1653 C1652 1.363 . S
C1653 C1659 1.428 . S
H1654 C1650 0.930 . S
H1655 C1652 0.929 . S
S1656 N1657 1.613 . S
S1656 N1658 1.610 . S
N1657 S1656 1.613 . S
N1657 C1660 1.350 . S
N1658 S1656 1.610 . S
N1658 C1659 1.351 . S
C1659 C1653 1.428 . S
C1659 N1658 1.351 . S
C1659 C1660 1.434 . S
C1660 C1651 1.429 . S
C1660 N1657 1.350 . S
C1660 C1659 1.434 . S
C1661 C1662 1.369 . S
C1661 C1663 1.419 . S
C1661 H1665 0.930 . S
C1662 C1661 1.369 . S
C1662 C1671 1.429 . S
C1663 C1661 1.419 . S
C1663 C1664 1.363 . S
C1663 H1666 0.929 . S
C1664 C1663 1.363 . S
C1664 C1670 1.428 . S
H1665 C1661 0.930 . S
H1666 C1663 0.929 . S
S1667 N1668 1.613 . S
S1667 N1669 1.610 . S
N1668 S1667 1.613 . S
N1668 C1671 1.350 . S
N1669 S1667 1.610 . S
N1669 C1670 1.351 . S
C1670 C1664 1.428 . S
C1670 N1669 1.351 . S
C1670 C1671 1.434 . S
C1671 C1662 1.429 . S
C1671 N1668 1.350 . S
C1671 C1670 1.434 . S
C1672 C1673 1.369 . S
C1672 C1674 1.419 . S
C1672 H1676 0.930 . S
C1673 C1672 1.369 . S
C1673 C1682 1.429 . S
C1674 C1672 1.419 . S
C1674 C1675 1.363 . S
C1674 H1677 0.929 . S
C1675 C1674 1.363 . S
C1675 C1681 1.428 . S
H1676 C1672 0.930 . S
H1677 C1674 0.929 . S
S1678 N1679 1.613 . S
S1678 N1680 1.610 . S
N1679 S1678 1.613 . S
N1679 C1682 1.350 . S
N1680 S1678 1.610 . S
N1680 C1681 1.351 . S
C1681 C1675 1.428 . S
C1681 N1680 1.351 . S
C1681 C1682 1.434 . S
C1682 C1673 1.429 . S
C1682 N1679 1.350 . S
C1682 C1681 1.434 . S
C1683 C1684 1.369 . S
C1683 C1685 1.419 . S
C1683 H1687 0.930 . S
C1684 C1683 1.369 . S
C1684 C1693 1.429 . S
C1685 C1683 1.419 . S
C1685 C1686 1.363 . S
C1685 H1688 0.929 . S
C1686 C1685 1.363 . S
C1686 C1692 1.428 . S
H1687 C1683 0.930 . S
H1688 C1685 0.929 . S
S1689 N1690 1.613 . S
S1689 N1691 1.610 . S
N1690 S1689 1.613 . S
N1690 C1693 1.350 . S
N1691 S1689 1.610 . S
N1691 C1692 1.351 . S
C1692 C1686 1.428 . S
C1692 N1691 1.351 . S
C1692 C1693 1.434 . S
C1693 C1684 1.429 . S
C1693 N1690 1.350 . S
C1693 C1692 1.434 . S
C1694 C1695 1.369 . S
C1694 C1696 1.419 . S
C1694 H1698 0.930 . S
C1695 C1694 1.369 . S
C1695 C1704 1.429 . S
C1696 C1694 1.419 . S
C1696 C1697 1.363 . S
C1696 H1699 0.929 . S
C1697 C1696 1.363 . S
C1697 C1703 1.428 . S
H1698 C1694 0.930 . S
H1699 C1696 0.929 . S
S1700 N1701 1.613 . S
S1700 N1702 1.610 . S
N1701 S1700 1.613 . S
N1701 C1704 1.350 . S
N1702 S1700 1.610 . S
N1702 C1703 1.351 . S
C1703 C1697 1.428 . S
C1703 N1702 1.351 . S
C1703 C1704 1.434 . S
C1704 C1695 1.429 . S
C1704 N1701 1.350 . S
C1704 C1703 1.434 . S
C1705 C1706 1.369 . S
C1705 C1707 1.419 . S
C1705 H1709 0.930 . S
C1706 C1705 1.369 . S
C1706 C1715 1.429 . S
C1707 C1705 1.419 . S
C1707 C1708 1.363 . S
C1707 H1710 0.929 . S
C1708 C1707 1.363 . S
C1708 C1714 1.428 . S
H1709 C1705 0.930 . S
H1710 C1707 0.929 . S
S1711 N1712 1.613 . S
S1711 N1713 1.610 . S
N1712 S1711 1.613 . S
N1712 C1715 1.350 . S
N1713 S1711 1.610 . S
N1713 C1714 1.351 . S
C1714 C1708 1.428 . S
C1714 N1713 1.351 . S
C1714 C1715 1.434 . S
C1715 C1706 1.429 . S
C1715 N1712 1.350 . S
C1715 C1714 1.434 . S
C1716 C1717 1.369 . S
C1716 C1718 1.419 . S
C1716 H1720 0.930 . S
C1717 C1716 1.369 . S
C1717 C1726 1.429 . S
C1718 C1716 1.419 . S
C1718 C1719 1.363 . S
C1718 H1721 0.929 . S
C1719 C1718 1.363 . S
C1719 C1725 1.428 . S
H1720 C1716 0.930 . S
H1721 C1718 0.929 . S
S1722 N1723 1.613 . S
S1722 N1724 1.610 . S
N1723 S1722 1.613 . S
N1723 C1726 1.350 . S
N1724 S1722 1.610 . S
N1724 C1725 1.351 . S
C1725 C1719 1.428 . S
C1725 N1724 1.351 . S
C1725 C1726 1.434 . S
C1726 C1717 1.429 . S
C1726 N1723 1.350 . S
C1726 C1725 1.434 . S
C1727 C1728 1.369 . S
C1727 C1729 1.419 . S
C1727 H1731 0.930 . S
C1728 C1727 1.369 . S
C1728 C1737 1.429 . S
C1729 C1727 1.419 . S
C1729 C1730 1.363 . S
C1729 H1732 0.929 . S
C1730 C1729 1.363 . S
C1730 C1736 1.428 . S
H1731 C1727 0.930 . S
H1732 C1729 0.929 . S
S1733 N1734 1.613 . S
S1733 N1735 1.610 . S
N1734 S1733 1.613 . S
N1734 C1737 1.350 . S
N1735 S1733 1.610 . S
N1735 C1736 1.351 . S
C1736 C1730 1.428 . S
C1736 N1735 1.351 . S
C1736 C1737 1.434 . S
C1737 C1728 1.429 . S
C1737 N1734 1.350 . S
C1737 C1736 1.434 . S
C1738 C1739 1.369 . S
C1738 C1740 1.419 . S
C1738 H1742 0.930 . S
C1739 C1738 1.369 . S
C1739 C1748 1.429 . S
C1740 C1738 1.419 . S
C1740 C1741 1.363 . S
C1740 H1743 0.929 . S
C1741 C1740 1.363 . S
C1741 C1747 1.428 . S
H1742 C1738 0.930 . S
H1743 C1740 0.929 . S
S1744 N1745 1.613 . S
S1744 N1746 1.610 . S
N1745 S1744 1.613 . S
N1745 C1748 1.350 . S
N1746 S1744 1.610 . S
N1746 C1747 1.351 . S
C1747 C1741 1.428 . S
C1747 N1746 1.351 . S
C1747 C1748 1.434 . S
C1748 C1739 1.429 . S
C1748 N1745 1.350 . S
C1748 C1747 1.434 . S
C1749 C1750 1.369 . S
C1749 C1751 1.419 . S
C1749 H1753 0.930 . S
C1750 C1749 1.369 . S
C1750 C1759 1.429 . S
C1751 C1749 1.419 . S
C1751 C1752 1.363 . S
C1751 H1754 0.929 . S
C1752 C1751 1.363 . S
C1752 C1758 1.428 . S
H1753 C1749 0.930 . S
H1754 C1751 0.929 . S
S1755 N1756 1.613 . S
S1755 N1757 1.610 . S
N1756 S1755 1.613 . S
N1756 C1759 1.350 . S
N1757 S1755 1.610 . S
N1757 C1758 1.351 . S
C1758 C1752 1.428 . S
C1758 N1757 1.351 . S
C1758 C1759 1.434 . S
C1759 C1750 1.429 . S
C1759 N1756 1.350 . S
C1759 C1758 1.434 . S
C1760 C1761 1.369 . S
C1760 C1762 1.419 . S
C1760 H1764 0.930 . S
C1761 C1760 1.369 . S
C1761 C1770 1.429 . S
C1762 C1760 1.419 . S
C1762 C1763 1.363 . S
C1762 H1765 0.929 . S
C1763 C1762 1.363 . S
C1763 C1769 1.428 . S
H1764 C1760 0.930 . S
H1765 C1762 0.929 . S
S1766 N1767 1.613 . S
S1766 N1768 1.610 . S
N1767 S1766 1.613 . S
N1767 C1770 1.350 . S
N1768 S1766 1.610 . S
N1768 C1769 1.351 . S
C1769 C1763 1.428 . S
C1769 N1768 1.351 . S
C1769 C1770 1.434 . S
C1770 C1761 1.429 . S
C1770 N1767 1.350 . S
C1770 C1769 1.434 . S
C1771 C1772 1.369 . S
C1771 C1773 1.419 . S
C1771 H1775 0.930 . S
C1772 C1771 1.369 . S
C1772 C1781 1.429 . S
C1773 C1771 1.419 . S
C1773 C1774 1.363 . S
C1773 H1776 0.929 . S
C1774 C1773 1.363 . S
C1774 C1780 1.428 . S
H1775 C1771 0.930 . S
H1776 C1773 0.929 . S
S1777 N1778 1.613 . S
S1777 N1779 1.610 . S
N1778 S1777 1.613 . S
N1778 C1781 1.350 . S
N1779 S1777 1.610 . S
N1779 C1780 1.351 . S
C1780 C1774 1.428 . S
C1780 N1779 1.351 . S
C1780 C1781 1.434 . S
C1781 C1772 1.429 . S
C1781 N1778 1.350 . S
C1781 C1780 1.434 . S
C1782 C1783 1.369 . S
C1782 C1784 1.419 . S
C1782 H1786 0.930 . S
C1783 C1782 1.369 . S
C1783 C1792 1.429 . S
C1784 C1782 1.419 . S
C1784 C1785 1.363 . S
C1784 H1787 0.929 . S
C1785 C1784 1.363 . S
C1785 C1791 1.428 . S
H1786 C1782 0.930 . S
H1787 C1784 0.929 . S
S1788 N1789 1.613 . S
S1788 N1790 1.610 . S
N1789 S1788 1.613 . S
N1789 C1792 1.350 . S
N1790 S1788 1.610 . S
N1790 C1791 1.351 . S
C1791 C1785 1.428 . S
C1791 N1790 1.351 . S
C1791 C1792 1.434 . S
C1792 C1783 1.429 . S
C1792 N1789 1.350 . S
C1792 C1791 1.434 . S
C1793 C1794 1.369 . S
C1793 C1795 1.419 . S
C1793 H1797 0.930 . S
C1794 C1793 1.369 . S
C1794 C1803 1.429 . S
C1795 C1793 1.419 . S
C1795 C1796 1.363 . S
C1795 H1798 0.929 . S
C1796 C1795 1.363 . S
C1796 C1802 1.428 . S
H1797 C1793 0.930 . S
H1798 C1795 0.929 . S
S1799 N1800 1.613 . S
S1799 N1801 1.610 . S
N1800 S1799 1.613 . S
N1800 C1803 1.350 . S
N1801 S1799 1.610 . S
N1801 C1802 1.351 . S
C1802 C1796 1.428 . S
C1802 N1801 1.351 . S
C1802 C1803 1.434 . S
C1803 C1794 1.429 . S
C1803 N1800 1.350 . S
C1803 C1802 1.434 . S
C1804 C1805 1.369 . S
C1804 C1806 1.419 . S
C1804 H1808 0.930 . S
C1805 C1804 1.369 . S
C1805 C1814 1.429 . S
C1806 C1804 1.419 . S
C1806 C1807 1.363 . S
C1806 H1809 0.929 . S
C1807 C1806 1.363 . S
C1807 C1813 1.428 . S
H1808 C1804 0.930 . S
H1809 C1806 0.929 . S
S1810 N1811 1.613 . S
S1810 N1812 1.610 . S
N1811 S1810 1.613 . S
N1811 C1814 1.350 . S
N1812 S1810 1.610 . S
N1812 C1813 1.351 . S
C1813 C1807 1.428 . S
C1813 N1812 1.351 . S
C1813 C1814 1.434 . S
C1814 C1805 1.429 . S
C1814 N1811 1.350 . S
C1814 C1813 1.434 . S
C1815 C1816 1.369 . S
C1815 C1817 1.419 . S
C1815 H1819 0.930 . S
C1816 C1815 1.369 . S
C1816 C1825 1.429 . S
C1817 C1815 1.419 . S
C1817 C1818 1.363 . S
C1817 H1820 0.929 . S
C1818 C1817 1.363 . S
C1818 C1824 1.428 . S
H1819 C1815 0.930 . S
H1820 C1817 0.929 . S
S1821 N1822 1.613 . S
S1821 N1823 1.610 . S
N1822 S1821 1.613 . S
N1822 C1825 1.350 . S
N1823 S1821 1.610 . S
N1823 C1824 1.351 . S
C1824 C1818 1.428 . S
C1824 N1823 1.351 . S
C1824 C1825 1.434 . S
C1825 C1816 1.429 . S
C1825 N1822 1.350 . S
C1825 C1824 1.434 . S
C1826 C1827 1.369 . S
C1826 C1828 1.419 . S
C1826 H1830 0.930 . S
C1827 C1826 1.369 . S
C1827 C1836 1.429 . S
C1828 C1826 1.419 . S
C1828 C1829 1.363 . S
C1828 H1831 0.929 . S
C1829 C1828 1.363 . S
C1829 C1835 1.428 . S
H1830 C1826 0.930 . S
H1831 C1828 0.929 . S
S1832 N1833 1.613 . S
S1832 N1834 1.610 . S
N1833 S1832 1.613 . S
N1833 C1836 1.350 . S
N1834 S1832 1.610 . S
N1834 C1835 1.351 . S
C1835 C1829 1.428 . S
C1835 N1834 1.351 . S
C1835 C1836 1.434 . S
C1836 C1827 1.429 . S
C1836 N1833 1.350 . S
C1836 C1835 1.434 . S
C1837 C1838 1.369 . S
C1837 C1839 1.419 . S
C1837 H1841 0.930 . S
C1838 C1837 1.369 . S
C1838 C1847 1.429 . S
C1839 C1837 1.419 . S
C1839 C1840 1.363 . S
C1839 H1842 0.929 . S
C1840 C1839 1.363 . S
C1840 C1846 1.428 . S
H1841 C1837 0.930 . S
H1842 C1839 0.929 . S
S1843 N1844 1.613 . S
S1843 N1845 1.610 . S
N1844 S1843 1.613 . S
N1844 C1847 1.350 . S
N1845 S1843 1.610 . S
N1845 C1846 1.351 . S
C1846 C1840 1.428 . S
C1846 N1845 1.351 . S
C1846 C1847 1.434 . S
C1847 C1838 1.429 . S
C1847 N1844 1.350 . S
C1847 C1846 1.434 . S
C1848 C1849 1.369 . S
C1848 C1850 1.419 . S
C1848 H1852 0.930 . S
C1849 C1848 1.369 . S
C1849 C1858 1.429 . S
C1850 C1848 1.419 . S
C1850 C1851 1.363 . S
C1850 H1853 0.929 . S
C1851 C1850 1.363 . S
C1851 C1857 1.428 . S
H1852 C1848 0.930 . S
H1853 C1850 0.929 . S
S1854 N1855 1.613 1_455 S
S1854 N1856 1.610 1_455 S
N1855 S1854 1.613 1_655 S
N1855 C1858 1.350 . S
N1856 S1854 1.610 1_655 S
N1856 C1857 1.351 . S
C1857 C1851 1.428 . S
C1857 N1856 1.351 . S
C1857 C1858 1.434 . S
C1858 C1849 1.429 . S
C1858 N1855 1.350 . S
C1858 C1857 1.434 . S
C1859 C1860 1.369 . S
C1859 C1861 1.419 . S
C1859 H1863 0.930 . S
C1860 C1859 1.369 . S
C1860 C1869 1.429 . S
C1861 C1859 1.419 . S
C1861 C1862 1.363 . S
C1861 H1864 0.929 . S
C1862 C1861 1.363 . S
C1862 C1868 1.428 . S
H1863 C1859 0.930 . S
H1864 C1861 0.929 . S
S1865 N1866 1.613 . S
S1865 N1867 1.610 . S
N1866 S1865 1.613 . S
N1866 C1869 1.350 . S
N1867 S1865 1.610 . S
N1867 C1868 1.351 . S
C1868 C1862 1.428 . S
C1868 N1867 1.351 . S
C1868 C1869 1.434 . S
C1869 C1860 1.429 . S
C1869 N1866 1.350 . S
C1869 C1868 1.434 . S
C1870 C1871 1.369 . S
C1870 C1872 1.419 . S
C1870 H1874 0.930 . S
C1871 C1870 1.369 . S
C1871 C1880 1.429 . S
C1872 C1870 1.419 . S
C1872 C1873 1.363 . S
C1872 H1875 0.929 . S
C1873 C1872 1.363 . S
C1873 C1879 1.428 . S
H1874 C1870 0.930 . S
H1875 C1872 0.929 . S
S1876 N1877 1.613 . S
S1876 N1878 1.610 . S
N1877 S1876 1.613 . S
N1877 C1880 1.350 . S
N1878 S1876 1.610 . S
N1878 C1879 1.351 . S
C1879 C1873 1.428 . S
C1879 N1878 1.351 . S
C1879 C1880 1.434 . S
C1880 C1871 1.429 . S
C1880 N1877 1.350 . S
C1880 C1879 1.434 . S
C1881 C1882 1.369 . S
C1881 C1883 1.419 . S
C1881 H1885 0.930 . S
C1882 C1881 1.369 . S
C1882 C1891 1.429 . S
C1883 C1881 1.419 . S
C1883 C1884 1.363 . S
C1883 H1886 0.929 . S
C1884 C1883 1.363 . S
C1884 C1890 1.428 . S
H1885 C1881 0.930 . S
H1886 C1883 0.929 . S
S1887 N1888 1.613 . S
S1887 N1889 1.610 . S
N1888 S1887 1.613 . S
N1888 C1891 1.350 . S
N1889 S1887 1.610 . S
N1889 C1890 1.351 . S
C1890 C1884 1.428 . S
C1890 N1889 1.351 . S
C1890 C1891 1.434 . S
C1891 C1882 1.429 . S
C1891 N1888 1.350 . S
C1891 C1890 1.434 . S
C1892 C1893 1.369 . S
C1892 C1894 1.419 . S
C1892 H1896 0.930 . S
C1893 C1892 1.369 . S
C1893 C1902 1.429 . S
C1894 C1892 1.419 . S
C1894 C1895 1.363 . S
C1894 H1897 0.929 . S
C1895 C1894 1.363 . S
C1895 C1901 1.428 . S
H1896 C1892 0.930 . S
H1897 C1894 0.929 . S
S1898 N1899 1.613 . S
S1898 N1900 1.610 . S
N1899 S1898 1.613 . S
N1899 C1902 1.350 . S
N1900 S1898 1.610 . S
N1900 C1901 1.351 . S
C1901 C1895 1.428 . S
C1901 N1900 1.351 . S
C1901 C1902 1.434 . S
C1902 C1893 1.429 . S
C1902 N1899 1.350 . S
C1902 C1901 1.434 . S
C1903 C1904 1.369 . S
C1903 C1905 1.419 . S
C1903 H1907 0.930 . S
C1904 C1903 1.369 . S
C1904 C1913 1.429 . S
C1905 C1903 1.419 . S
C1905 C1906 1.363 . S
C1905 H1908 0.929 . S
C1906 C1905 1.363 . S
C1906 C1912 1.428 . S
H1907 C1903 0.930 . S
H1908 C1905 0.929 . S
S1909 N1910 1.613 . S
S1909 N1911 1.610 . S
N1910 S1909 1.613 . S
N1910 C1913 1.350 . S
N1911 S1909 1.610 . S
N1911 C1912 1.351 . S
C1912 C1906 1.428 . S
C1912 N1911 1.351 . S
C1912 C1913 1.434 . S
C1913 C1904 1.429 . S
C1913 N1910 1.350 . S
C1913 C1912 1.434 . S
C1914 C1915 1.369 . S
C1914 C1916 1.419 1_455 S
C1914 H1918 0.930 . S
C1915 C1914 1.369 . S
C1915 C1924 1.429 . S
C1916 C1914 1.419 1_655 S
C1916 C1917 1.363 . S
C1916 H1919 0.929 . S
C1917 C1916 1.363 . S
C1917 C1923 1.428 . S
H1918 C1914 0.930 . S
H1919 C1916 0.929 . S
S1920 N1921 1.613 1_655 S
S1920 N1922 1.610 . S
N1921 S1920 1.613 1_455 S
N1921 C1924 1.350 . S
N1922 S1920 1.610 . S
N1922 C1923 1.351 . S
C1923 C1917 1.428 . S
C1923 N1922 1.351 . S
C1923 C1924 1.434 1_655 S
C1924 C1915 1.429 . S
C1924 N1921 1.350 . S
C1924 C1923 1.434 1_455 S
C1925 C1926 1.369 . S
C1925 C1927 1.419 . S
C1925 H1929 0.930 . S
C1926 C1925 1.369 . S
C1926 C1935 1.429 . S
C1927 C1925 1.419 . S
C1927 C1928 1.363 . S
C1927 H1930 0.929 . S
C1928 C1927 1.363 . S
C1928 C1934 1.428 . S
H1929 C1925 0.930 . S
H1930 C1927 0.929 . S
S1931 N1932 1.613 . S
S1931 N1933 1.610 . S
N1932 S1931 1.613 . S
N1932 C1935 1.350 . S
N1933 S1931 1.610 . S
N1933 C1934 1.351 . S
C1934 C1928 1.428 . S
C1934 N1933 1.351 . S
C1934 C1935 1.434 . S
C1935 C1926 1.429 . S
C1935 N1932 1.350 . S
C1935 C1934 1.434 . S
C1936 C1937 1.369 . S
C1936 C1938 1.419 1_545 S
C1936 H1940 0.930 . S
C1937 C1936 1.369 . S
C1937 C1946 1.429 . S
C1938 C1936 1.419 1_565 S
C1938 C1939 1.363 . S
C1938 H1941 0.929 . S
C1939 C1938 1.363 . S
C1939 C1945 1.428 . S
H1940 C1936 0.930 . S
H1941 C1938 0.929 . S
S1942 N1943 1.613 1_565 S
S1942 N1944 1.610 . S
N1943 S1942 1.613 1_545 S
N1943 C1946 1.350 . S
N1944 S1942 1.610 . S
N1944 C1945 1.351 . S
C1945 C1939 1.428 . S
C1945 N1944 1.351 . S
C1945 C1946 1.434 1_565 S
C1946 C1937 1.429 . S
C1946 N1943 1.350 . S
C1946 C1945 1.434 1_545 S
C1947 C1948 1.369 . S
C1947 C1949 1.419 1_545 S
C1947 H1951 0.930 . S
C1948 C1947 1.369 . S
C1948 C1957 1.429 . S
C1949 C1947 1.419 1_565 S
C1949 C1950 1.363 . S
C1949 H1952 0.929 . S
C1950 C1949 1.363 . S
C1950 C1956 1.428 . S
H1951 C1947 0.930 . S
H1952 C1949 0.929 . S
S1953 N1954 1.613 1_565 S
S1953 N1955 1.610 . S
N1954 S1953 1.613 1_545 S
N1954 C1957 1.350 . S
N1955 S1953 1.610 . S
N1955 C1956 1.351 . S
C1956 C1950 1.428 . S
C1956 N1955 1.351 . S
C1956 C1957 1.434 1_565 S
C1957 C1948 1.429 . S
C1957 N1954 1.350 . S
C1957 C1956 1.434 1_545 S
C1958 C1959 1.369 . S
C1958 C1960 1.419 1_455 S
C1958 H1962 0.930 . S
C1959 C1958 1.369 . S
C1959 C1968 1.429 . S
C1960 C1958 1.419 1_655 S
C1960 C1961 1.363 . S
C1960 H1963 0.929 . S
C1961 C1960 1.363 . S
C1961 C1967 1.428 . S
H1962 C1958 0.930 . S
H1963 C1960 0.929 . S
S1964 N1965 1.613 1_655 S
S1964 N1966 1.610 . S
N1965 S1964 1.613 1_455 S
N1965 C1968 1.350 . S
N1966 S1964 1.610 . S
N1966 C1967 1.351 . S
C1967 C1961 1.428 . S
C1967 N1966 1.351 . S
C1967 C1968 1.434 1_655 S
C1968 C1959 1.429 . S
C1968 N1965 1.350 . S
C1968 C1967 1.434 1_455 S
C1969 C1970 1.369 . S
C1969 C1971 1.419 . S
C1969 H1973 0.930 . S
C1970 C1969 1.369 . S
C1970 C1979 1.429 . S
C1971 C1969 1.419 . S
C1971 C1972 1.363 . S
C1971 H1974 0.929 . S
C1972 C1971 1.363 . S
C1972 C1978 1.428 . S
H1973 C1969 0.930 . S
H1974 C1971 0.929 . S
S1975 N1976 1.613 . S
S1975 N1977 1.610 . S
N1976 S1975 1.613 . S
N1976 C1979 1.350 . S
N1977 S1975 1.610 . S
N1977 C1978 1.351 . S
C1978 C1972 1.428 . S
C1978 N1977 1.351 . S
C1978 C1979 1.434 . S
C1979 C1970 1.429 . S
C1979 N1976 1.350 . S
C1979 C1978 1.434 . S
C793 C5 1.394 . S
C795 C158 1.359 . S
C804 C27 1.394 . S
C806 C180 1.360 . S
C815 C49 1.394 . S
C817 C136 1.357 . S
C826 C71 1.398 . S
C828 C246 1.363 . S
C837 C202 1.354 . S
C839 C93 1.398 . S
C848 C224 1.356 . S
C850 C115 1.395 . S
C859 C26 1.362 . S
C861 C138 1.402 . S
C870 C160 1.395 . S
C872 C48 1.361 . S
C881 C182 1.396 . S
C883 C4 1.355 . S
C892 C114 1.359 . S
C894 C204 1.401 . S
C903 C226 1.403 . S
C905 C70 1.361 . S
C914 C248 1.399 . S
C916 C92 1.356 . S
C925 C269 1.399 . S
C927 C422 1.357 . S
C936 C291 1.395 . S
C938 C444 1.355 . S
C947 C400 1.354 . S
C949 C313 1.397 . S
C958 C510 1.354 . S
C960 C335 1.395 . S
C969 C466 1.361 . S
C971 C357 1.396 . S
C980 C379 1.402 . S
C982 C488 1.360 . S
C991 C290 1.366 . S
C993 C402 1.400 . S
C1002 C312 1.355 . S
C1004 C424 1.399 . S
C1013 C268 1.354 . S
C1015 C446 1.396 . S
C1024 C378 1.363 . S
C1026 C468 1.402 . S
C1035 C490 1.395 . S
C1037 C334 1.362 . S
C1046 C356 1.355 . S
C1048 C512 1.399 . S
C1057 C533 1.396 . S
C1059 C686 1.355 . S
C1068 C708 1.354 . S
C1070 C555 1.395 . S
C1079 C577 1.400 . S
C1081 C664 1.357 . S
C1090 C599 1.395 . S
C1092 C774 1.355 . S
C1101 C730 1.363 . S
C1103 C621 1.397 . S
C1112 C752 1.366 . S
C1114 C643 1.399 . S
C1123 C666 1.394 . S
C1125 C554 1.356 . S
C1134 C688 1.403 . S
C1136 C576 1.362 . S
C1145 C710 1.394 . S
C1147 C532 1.356 . S
C1156 C642 1.365 . S
C1158 C732 1.398 . S
C1167 C598 1.358 . S
C1169 C754 1.401 . S
C1178 C620 1.366 . S
C1180 C776 1.399 . S
C1189 C7 1.129 . S
C1191 C52 1.150 . S
C1200 C29 1.129 . S
C1202 C8 1.151 . S
C1211 C30 1.152 . S
C1213 C51 1.132 . S
C1222 C96 1.153 . S
C1224 C73 1.132 . S
C1233 C95 1.142 . S
C1235 C118 1.153 . S
C1244 C74 1.151 . S
C1246 C117 1.139 . S
C1255 C141 1.129 . S
C1257 C184 1.149 . S
C1266 C163 1.143 . S
C1268 C140 1.156 . S
C1277 C185 1.140 . S
C1279 C162 1.158 . S
C1288 C228 1.159 . S
C1290 C207 1.141 . S
C1299 C229 1.130 . S
C1301 C250 1.149 . S
C1310 C206 1.147 . S
C1312 C251 1.132 . S
C1321 C316 1.148 . S
C1323 C271 1.136 . S
C1332 C293 1.129 . S
C1334 C272 1.150 . S
C1343 C315 1.133 . S
C1345 C294 1.155 . S
C1354 C337 1.130 . S
C1356 C360 1.153 . S
C1365 C382 1.147 . S
C1367 C359 1.132 . S
C1376 C381 1.132 . S
C1378 C338 1.154 . S
C1387 C405 1.130 . S
C1389 C448 1.149 . S
C1398 C427 1.129 . S
C1400 C404 1.151 . S
C1409 C426 1.147 . S
C1411 C449 1.133 . S
C1420 C492 1.148 . S
C1422 C471 1.135 . S
C1431 C493 1.143 . S
C1433 C514 1.158 . S
C1442 C515 1.135 . S
C1444 C470 1.150 . S
C1453 C580 1.148 . S
C1455 C535 1.136 . S
C1464 C557 1.138 . S
C1466 C536 1.158 . S
C1475 C579 1.137 . S
C1477 C558 1.157 . S
C1486 C624 1.149 . S
C1488 C601 1.137 . S
C1497 C623 1.129 . S
C1499 C646 1.150 . S
C1508 C645 1.143 . S
C1510 C602 1.158 . S
C1519 C669 1.139 . S
C1521 C712 1.158 . S
C1530 C691 1.129 . S
C1532 C668 1.150 . S
C1541 C690 1.147 . S
C1543 C713 1.131 . S
C1552 C756 1.155 . S
C1554 C735 1.141 . S
C1563 C778 1.148 . S
C1565 C757 1.131 . S
C1574 C734 1.155 . S
C1576 C779 1.134 . S
C1585 C97 1.531 . S
C1587 C9 1.537 . S
C1596 C119 1.536 . S
C1598 C31 1.532 . S
C1607 C75 1.538 . S
C1609 C53 1.532 . S
C1618 C227 1.538 . S
C1620 C139 1.533 . S
C1629 C249 1.538 . S
C1631 C161 1.532 . S
C1640 C183 1.536 . S
C1642 C205 1.532 . S
C1651 C361 1.538 . S
C1653 C273 1.532 . S
C1662 C383 1.537 . S
C1664 C295 1.532 . S
C1673 C317 1.537 . S
C1675 C339 1.532 . S
C1684 C491 1.536 . S
C1686 C403 1.532 . S
C1695 C425 1.538 . S
C1697 C513 1.533 . S
C1706 C469 1.536 . S
C1708 C447 1.532 . S
C1717 C537 1.535 . S
C1719 C625 1.532 . S
C1728 C647 1.531 . S
C1730 C559 1.537 . S
C1739 C603 1.535 . S
C1741 C581 1.535 . S
C1750 C755 1.534 . S
C1752 C667 1.533 . S
C1761 C777 1.533 . S
C1763 C689 1.537 . S
C1772 C733 1.534 . S
C1774 C711 1.536 . S
C1783 C644 1.445 . S
C1785 C6 1.445 . S
C1794 C28 1.444 . S
C1796 C600 1.444 . S
C1805 C50 1.443 . S
C1807 C622 1.442 . S
C1816 C72 1.444 . S
C1818 C292 1.445 . S
C1827 C94 1.441 . S
C1829 C314 1.442 . S
C1838 C116 1.445 . S
C1840 C270 1.445 . S
C1849 C511 1.446 . S
C1851 C137 1.445 . S
C1860 C467 1.442 . S
C1862 C159 1.442 . S
C1871 C489 1.444 . S
C1873 C181 1.444 . S
C1882 C203 1.446 . S
C1884 C687 1.446 . S
C1893 C225 1.441 . S
C1895 C709 1.441 . S
C1904 C665 1.443 . S
C1906 C247 1.443 . S
C1915 C556 1.442 . S
C1917 C336 1.442 . S
C1926 C578 1.442 . S
C1928 C358 1.442 . S
C1937 C380 1.446 . S
C1939 C534 1.446 . S
C1948 C401 1.442 . S
C1950 C775 1.443 . S
C1959 C731 1.445 . S
C1961 C423 1.445 . S
C1970 C753 1.442 . S
C1972 C445 1.442 . S
