# Generated by pormake.
# Topology uox, (4)-cn, num edge types: 1
# Building blocks:
#     Node 0, Type 0, BuildingBlock: GALJAG_clean_sbu_0, # of connection points: 4
#     Node 1, Type 0, BuildingBlock: GALJAG_clean_sbu_0, # of connection points: 4
#     Node 2, Type 0, BuildingBlock: GALJAG_clean_sbu_0, # of connection points: 4
#     Node 3, Type 0, BuildingBlock: GALJAG_clean_sbu_0, # of connection points: 4
#     Node 4, Type 0, BuildingBlock: GALJAG_clean_sbu_0, # of connection points: 4
#     Node 5, Type 0, BuildingBlock: GALJAG_clean_sbu_0, # of connection points: 4
#     Node 6, Type 0, BuildingBlock: GALJAG_clean_sbu_0, # of connection points: 4
#     Node 7, Type 0, BuildingBlock: GALJAG_clean_sbu_0, # of connection points: 4
#     Node 8, Type 0, BuildingBlock: GALJAG_clean_sbu_0, # of connection points: 4
#     Node 9, Type 0, BuildingBlock: GALJAG_clean_sbu_0, # of connection points: 4
#     Node 10, Type 0, BuildingBlock: GALJAG_clean_sbu_0, # of connection points: 4
#     Node 11, Type 0, BuildingBlock: GALJAG_clean_sbu_0, # of connection points: 4
#     Node 12, Type 0, BuildingBlock: GALJAG_clean_sbu_0, # of connection points: 4
#     Node 13, Type 0, BuildingBlock: GALJAG_clean_sbu_0, # of connection points: 4
#     Node 14, Type 0, BuildingBlock: GALJAG_clean_sbu_0, # of connection points: 4
#     Node 15, Type 0, BuildingBlock: GALJAG_clean_sbu_0, # of connection points: 4
#     Node 16, Type 0, BuildingBlock: GALJAG_clean_sbu_0, # of connection points: 4
#     Node 17, Type 0, BuildingBlock: GALJAG_clean_sbu_0, # of connection points: 4
#     Node 18, Type 0, BuildingBlock: GALJAG_clean_sbu_0, # of connection points: 4
#     Node 19, Type 0, BuildingBlock: GALJAG_clean_sbu_0, # of connection points: 4
#     Node 20, Type 0, BuildingBlock: GALJAG_clean_sbu_0, # of connection points: 4
#     Node 21, Type 0, BuildingBlock: GALJAG_clean_sbu_0, # of connection points: 4
#     Node 22, Type 0, BuildingBlock: GALJAG_clean_sbu_0, # of connection points: 4
#     Node 23, Type 0, BuildingBlock: GALJAG_clean_sbu_0, # of connection points: 4
#     Node 24, Type 0, BuildingBlock: GALJAG_clean_sbu_0, # of connection points: 4
#     Node 25, Type 0, BuildingBlock: GALJAG_clean_sbu_0, # of connection points: 4
#     Node 26, Type 0, BuildingBlock: GALJAG_clean_sbu_0, # of connection points: 4
#     Node 27, Type 0, BuildingBlock: GALJAG_clean_sbu_0, # of connection points: 4
#     Node 28, Type 0, BuildingBlock: GALJAG_clean_sbu_0, # of connection points: 4
#     Node 29, Type 0, BuildingBlock: GALJAG_clean_sbu_0, # of connection points: 4
#     Node 30, Type 0, BuildingBlock: GALJAG_clean_sbu_0, # of connection points: 4
#     Node 31, Type 0, BuildingBlock: GALJAG_clean_sbu_0, # of connection points: 4
#     Edge 32, Type (0, 0), BuildingBlock: UVAHIK_clean_linker_0, # of connection points: 2
#     Edge 33, Type (0, 0), BuildingBlock: UVAHIK_clean_linker_0, # of connection points: 2
#     Edge 34, Type (0, 0), BuildingBlock: UVAHIK_clean_linker_0, # of connection points: 2
#     Edge 35, Type (0, 0), BuildingBlock: UVAHIK_clean_linker_0, # of connection points: 2
#     Edge 36, Type (0, 0), BuildingBlock: UVAHIK_clean_linker_0, # of connection points: 2
#     Edge 37, Type (0, 0), BuildingBlock: UVAHIK_clean_linker_0, # of connection points: 2
#     Edge 38, Type (0, 0), BuildingBlock: UVAHIK_clean_linker_0, # of connection points: 2
#     Edge 39, Type (0, 0), BuildingBlock: UVAHIK_clean_linker_0, # of connection points: 2
#     Edge 40, Type (0, 0), BuildingBlock: UVAHIK_clean_linker_0, # of connection points: 2
#     Edge 41, Type (0, 0), BuildingBlock: UVAHIK_clean_linker_0, # of connection points: 2
#     Edge 42, Type (0, 0), BuildingBlock: UVAHIK_clean_linker_0, # of connection points: 2
#     Edge 43, Type (0, 0), BuildingBlock: UVAHIK_clean_linker_0, # of connection points: 2
#     Edge 44, Type (0, 0), BuildingBlock: UVAHIK_clean_linker_0, # of connection points: 2
#     Edge 45, Type (0, 0), BuildingBlock: UVAHIK_clean_linker_0, # of connection points: 2
#     Edge 46, Type (0, 0), BuildingBlock: UVAHIK_clean_linker_0, # of connection points: 2
#     Edge 47, Type (0, 0), BuildingBlock: UVAHIK_clean_linker_0, # of connection points: 2
#     Edge 48, Type (0, 0), BuildingBlock: UVAHIK_clean_linker_0, # of connection points: 2
#     Edge 49, Type (0, 0), BuildingBlock: UVAHIK_clean_linker_0, # of connection points: 2
#     Edge 50, Type (0, 0), BuildingBlock: UVAHIK_clean_linker_0, # of connection points: 2
#     Edge 51, Type (0, 0), BuildingBlock: UVAHIK_clean_linker_0, # of connection points: 2
#     Edge 52, Type (0, 0), BuildingBlock: UVAHIK_clean_linker_0, # of connection points: 2
#     Edge 53, Type (0, 0), BuildingBlock: UVAHIK_clean_linker_0, # of connection points: 2
#     Edge 54, Type (0, 0), BuildingBlock: UVAHIK_clean_linker_0, # of connection points: 2
#     Edge 55, Type (0, 0), BuildingBlock: UVAHIK_clean_linker_0, # of connection points: 2
#     Edge 56, Type (0, 0), BuildingBlock: UVAHIK_clean_linker_0, # of connection points: 2
#     Edge 57, Type (0, 0), BuildingBlock: UVAHIK_clean_linker_0, # of connection points: 2
#     Edge 58, Type (0, 0), BuildingBlock: UVAHIK_clean_linker_0, # of connection points: 2
#     Edge 59, Type (0, 0), BuildingBlock: UVAHIK_clean_linker_0, # of connection points: 2
#     Edge 60, Type (0, 0), BuildingBlock: UVAHIK_clean_linker_0, # of connection points: 2
#     Edge 61, Type (0, 0), BuildingBlock: UVAHIK_clean_linker_0, # of connection points: 2
#     Edge 62, Type (0, 0), BuildingBlock: UVAHIK_clean_linker_0, # of connection points: 2
#     Edge 63, Type (0, 0), BuildingBlock: UVAHIK_clean_linker_0, # of connection points: 2
#     Edge 64, Type (0, 0), BuildingBlock: UVAHIK_clean_linker_0, # of connection points: 2
#     Edge 65, Type (0, 0), BuildingBlock: UVAHIK_clean_linker_0, # of connection points: 2
#     Edge 66, Type (0, 0), BuildingBlock: UVAHIK_clean_linker_0, # of connection points: 2
#     Edge 67, Type (0, 0), BuildingBlock: UVAHIK_clean_linker_0, # of connection points: 2
#     Edge 68, Type (0, 0), BuildingBlock: UVAHIK_clean_linker_0, # of connection points: 2
#     Edge 69, Type (0, 0), BuildingBlock: UVAHIK_clean_linker_0, # of connection points: 2
#     Edge 70, Type (0, 0), BuildingBlock: UVAHIK_clean_linker_0, # of connection points: 2
#     Edge 71, Type (0, 0), BuildingBlock: UVAHIK_clean_linker_0, # of connection points: 2
#     Edge 72, Type (0, 0), BuildingBlock: UVAHIK_clean_linker_0, # of connection points: 2
#     Edge 73, Type (0, 0), BuildingBlock: UVAHIK_clean_linker_0, # of connection points: 2
#     Edge 74, Type (0, 0), BuildingBlock: UVAHIK_clean_linker_0, # of connection points: 2
#     Edge 75, Type (0, 0), BuildingBlock: UVAHIK_clean_linker_0, # of connection points: 2
#     Edge 76, Type (0, 0), BuildingBlock: UVAHIK_clean_linker_0, # of connection points: 2
#     Edge 77, Type (0, 0), BuildingBlock: UVAHIK_clean_linker_0, # of connection points: 2
#     Edge 78, Type (0, 0), BuildingBlock: UVAHIK_clean_linker_0, # of connection points: 2
#     Edge 79, Type (0, 0), BuildingBlock: UVAHIK_clean_linker_0, # of connection points: 2
#     Edge 80, Type (0, 0), BuildingBlock: UVAHIK_clean_linker_0, # of connection points: 2
#     Edge 81, Type (0, 0), BuildingBlock: UVAHIK_clean_linker_0, # of connection points: 2
#     Edge 82, Type (0, 0), BuildingBlock: UVAHIK_clean_linker_0, # of connection points: 2
#     Edge 83, Type (0, 0), BuildingBlock: UVAHIK_clean_linker_0, # of connection points: 2
#     Edge 84, Type (0, 0), BuildingBlock: UVAHIK_clean_linker_0, # of connection points: 2
#     Edge 85, Type (0, 0), BuildingBlock: UVAHIK_clean_linker_0, # of connection points: 2
#     Edge 86, Type (0, 0), BuildingBlock: UVAHIK_clean_linker_0, # of connection points: 2
#     Edge 87, Type (0, 0), BuildingBlock: UVAHIK_clean_linker_0, # of connection points: 2
#     Edge 88, Type (0, 0), BuildingBlock: UVAHIK_clean_linker_0, # of connection points: 2
#     Edge 89, Type (0, 0), BuildingBlock: UVAHIK_clean_linker_0, # of connection points: 2
#     Edge 90, Type (0, 0), BuildingBlock: UVAHIK_clean_linker_0, # of connection points: 2
#     Edge 91, Type (0, 0), BuildingBlock: UVAHIK_clean_linker_0, # of connection points: 2
#     Edge 92, Type (0, 0), BuildingBlock: UVAHIK_clean_linker_0, # of connection points: 2
#     Edge 93, Type (0, 0), BuildingBlock: UVAHIK_clean_linker_0, # of connection points: 2
#     Edge 94, Type (0, 0), BuildingBlock: UVAHIK_clean_linker_0, # of connection points: 2
#     Edge 95, Type (0, 0), BuildingBlock: UVAHIK_clean_linker_0, # of connection points: 2
# Relax obj value: 0.005
# Max RMSD: 0.035
# Mean RMSD: 0.035
data_MOF--net-uox--node1-GALJAG_clean_sbu_0--edge1-UVAHIK_clean_linker_0
_symmetry_space_group_name_H-M    P1
_symmetry_Int_Tables_number       1
_symmetry_cell_setting            triclinic
loop_
_symmetry_equiv_pos_as_xyz
'x, y, z'
_cell_length_a     62.996455
_cell_length_b     63.054356
_cell_length_c     93.794789
_cell_angle_alpha  89.992099
_cell_angle_beta   90.001456
_cell_angle_gamma 90.031908
loop_
_atom_site_label
_atom_site_type_symbol
_atom_site_fract_x
_atom_site_fract_y
_atom_site_fract_z
_atom_type_partial_charge
In0 In 0.39302 0.06126 0.15225 0.0
O1 O 0.38203 0.03478 0.13734 0.0
O2 O 0.35993 0.0472 0.15233 0.0
C3 C 0.43292 0.06838 0.14298 0.0
C4 C 0.39962 0.04354 0.17799 0.0
C5 C 0.37467 0.09875 0.14602 0.0
O6 O 0.42022 0.05638 0.13637 0.0
O7 O 0.42554 0.07643 0.15423 0.0
O8 O 0.37719 0.09245 0.15869 0.0
O9 O 0.38136 0.08615 0.1366 0.0
C10 C 0.36349 0.03408 0.14247 0.0
O11 O 0.39293 0.0623 0.17655 0.0
O12 O 0.40328 0.03392 0.16646 0.0
In13 In 0.1811 0.14247 0.40139 0.0
O14 O 0.17814 0.14097 0.42565 0.0
O15 O 0.20792 0.14985 0.4168 0.0
C16 C 0.1429 0.12554 0.39535 0.0
C17 C 0.20878 0.11391 0.39084 0.0
C18 C 0.1751 0.18267 0.39228 0.0
O19 O 0.15001 0.12658 0.40792 0.0
O20 O 0.15508 0.13298 0.38591 0.0
O21 O 0.18386 0.16876 0.3846 0.0
O22 O 0.16972 0.17635 0.4045 0.0
C23 C 0.19716 0.14632 0.42789 0.0
O24 O 0.21141 0.13365 0.3894 0.0
O25 O 0.19208 0.10867 0.39736 0.0
In26 In 0.10034 0.92943 0.65375 0.0
O27 O 0.11065 0.95703 0.63945 0.0
O28 O 0.13289 0.94476 0.65435 0.0
C29 C 0.06086 0.922 0.64389 0.0
C30 C 0.09352 0.94527 0.68001 0.0
C31 C 0.11854 0.89203 0.64714 0.0
O32 O 0.07345 0.93463 0.63773 0.0
O33 O 0.06816 0.91341 0.655 0.0
O34 O 0.11414 0.8972 0.6598 0.0
O35 O 0.11383 0.90573 0.63788 0.0
C36 C 0.12906 0.95817 0.64473 0.0
O37 O 0.10448 0.92884 0.67785 0.0
O38 O 0.08569 0.95352 0.66894 0.0
In39 In 0.31198 0.84945 0.90147 0.0
O40 O 0.3135 0.84875 0.92578 0.0
O41 O 0.2844 0.84024 0.91577 0.0
C42 C 0.3499 0.86724 0.89547 0.0
C43 C 0.28466 0.87883 0.89166 0.0
C44 C 0.31766 0.80939 0.89215 0.0
O45 O 0.34304 0.86555 0.90806 0.0
O46 O 0.33767 0.85998 0.88602 0.0
O47 O 0.30736 0.82297 0.88509 0.0
O48 O 0.32493 0.81602 0.90386 0.0
C49 C 0.29442 0.84298 0.92727 0.0
O50 O 0.28517 0.86017 0.88677 0.0
O51 O 0.29809 0.88264 0.90129 0.0
In52 In 0.39448 0.93078 0.3431 0.0
O53 O 0.3944 0.92701 0.31881 0.0
O54 O 0.39912 0.95781 0.32747 0.0
C55 C 0.37928 0.89207 0.34983 0.0
C56 C 0.3656 0.95778 0.35405 0.0
C57 C 0.43522 0.92746 0.35174 0.0
O58 O 0.37785 0.89962 0.33739 0.0
O59 O 0.38821 0.90407 0.35876 0.0
O60 O 0.42094 0.93537 0.35952 0.0
O61 O 0.42897 0.92142 0.33964 0.0
C62 C 0.39752 0.94649 0.31645 0.0
O63 O 0.38533 0.96068 0.35532 0.0
O64 O 0.36045 0.94106 0.34752 0.0
In65 In 0.3096 0.14456 0.59323 0.0
O66 O 0.28287 0.13342 0.60784 0.0
O67 O 0.29785 0.11051 0.5946 0.0
C68 C 0.31242 0.18522 0.60199 0.0
C69 C 0.29223 0.14875 0.56716 0.0
C70 C 0.34878 0.12987 0.59945 0.0
O71 O 0.30387 0.17097 0.60949 0.0
O72 O 0.31934 0.17898 0.5901 0.0
O73 O 0.34143 0.12971 0.58693 0.0
O74 O 0.33635 0.13726 0.60873 0.0
C75 C 0.28371 0.11436 0.60376 0.0
O76 O 0.3117 0.14476 0.56894 0.0
O77 O 0.28169 0.15084 0.57851 0.0
In78 In 0.10157 0.06424 0.84241 0.0
O79 O 0.11123 0.03576 0.85607 0.0
O80 O 0.13433 0.04926 0.84228 0.0
C81 C 0.06196 0.07063 0.85236 0.0
C82 C 0.09509 0.04866 0.81606 0.0
C83 C 0.11928 0.10197 0.84891 0.0
O84 O 0.07561 0.06008 0.85921 0.0
O85 O 0.06833 0.07786 0.84057 0.0
O86 O 0.11476 0.09674 0.83629 0.0
O87 O 0.11486 0.08821 0.8582 0.0
C88 C 0.12997 0.03513 0.85132 0.0
O89 O 0.10599 0.06512 0.81832 0.0
O90 O 0.08727 0.04022 0.82707 0.0
In91 In 0.18004 0.85003 0.09157 0.0
O92 O 0.17722 0.84891 0.06732 0.0
O93 O 0.20729 0.84227 0.07663 0.0
C94 C 0.14177 0.86657 0.09818 0.0
C95 C 0.20714 0.87981 0.10118 0.0
C96 C 0.17627 0.80974 0.10091 0.0
O97 O 0.14849 0.86564 0.08553 0.0
O98 O 0.15433 0.85923 0.1074 0.0
O99 O 0.18585 0.82383 0.10797 0.0
O100 O 0.16871 0.81599 0.08919 0.0
C101 C 0.19649 0.84419 0.06538 0.0
O102 O 0.20726 0.861 0.10581 0.0
O103 O 0.19317 0.88361 0.09189 0.0
In104 In 0.59857 0.93267 0.84288 0.0
O105 O 0.61092 0.95893 0.85744 0.0
O106 O 0.63258 0.94457 0.84297 0.0
C107 C 0.55825 0.92948 0.8523 0.0
C108 C 0.59304 0.95032 0.81704 0.0
C109 C 0.61414 0.89385 0.84896 0.0
O110 O 0.57257 0.93862 0.85944 0.0
O111 O 0.56428 0.92213 0.84048 0.0
O112 O 0.6129 0.90076 0.83636 0.0
O113 O 0.60752 0.90647 0.85838 0.0
C114 C 0.62959 0.95829 0.85254 0.0
O115 O 0.59751 0.93092 0.8186 0.0
O116 O 0.59114 0.96063 0.82849 0.0
In117 In 0.81111 0.84944 0.59375 0.0
O118 O 0.78167 0.8586 0.60641 0.0
O119 O 0.80193 0.88342 0.59931 0.0
C120 C 0.81334 0.80868 0.60236 0.0
C121 C 0.79451 0.84747 0.56728 0.0
C122 C 0.85069 0.86327 0.5996 0.0
O123 O 0.80686 0.82335 0.61039 0.0
O124 O 0.81841 0.81452 0.58997 0.0
O125 O 0.84196 0.86649 0.58767 0.0
O126 O 0.83939 0.85334 0.60847 0.0
C127 C 0.7851 0.87829 0.60573 0.0
O128 O 0.81426 0.849 0.5694 0.0
O129 O 0.7834 0.84683 0.57844 0.0
In130 In 0.89311 0.06195 0.34267 0.0
O131 O 0.88805 0.06304 0.31852 0.0
O132 O 0.90176 0.03529 0.3275 0.0
C133 C 0.87789 0.10113 0.34794 0.0
C134 C 0.86426 0.03451 0.35303 0.0
C135 C 0.93315 0.06622 0.35258 0.0
O136 O 0.88464 0.09568 0.33581 0.0
O137 O 0.87877 0.08683 0.35733 0.0
O138 O 0.9182 0.05948 0.36028 0.0
O139 O 0.92789 0.07068 0.33998 0.0
C140 C 0.89544 0.04468 0.31643 0.0
O141 O 0.88395 0.03223 0.35505 0.0
O142 O 0.85914 0.05081 0.34602 0.0
In143 In 0.68242 0.14372 0.0939 0.0
O144 O 0.71202 0.1337 0.10605 0.0
O145 O 0.69064 0.1095 0.09953 0.0
C146 C 0.68204 0.18423 0.10311 0.0
C147 C 0.69829 0.14564 0.06723 0.0
C148 C 0.64257 0.13055 0.09959 0.0
O149 O 0.68769 0.169 0.11095 0.0
O150 O 0.67674 0.17905 0.09062 0.0
O151 O 0.65146 0.12698 0.08777 0.0
O152 O 0.65379 0.14061 0.10843 0.0
C153 C 0.70789 0.11414 0.1056 0.0
O154 O 0.67856 0.14535 0.06961 0.0
O155 O 0.70976 0.14508 0.07823 0.0
In156 In 0.59891 0.06179 0.65163 0.0
O157 O 0.59948 0.06502 0.67589 0.0
O158 O 0.59131 0.03506 0.66703 0.0
C159 C 0.61667 0.09944 0.64528 0.0
C160 C 0.62773 0.0341 0.64149 0.0
C161 C 0.55884 0.06812 0.64237 0.0
O162 O 0.61566 0.09251 0.6579 0.0
O163 O 0.60868 0.08741 0.63595 0.0
O164 O 0.57254 0.05861 0.63491 0.0
O165 O 0.56533 0.0741 0.65442 0.0
C166 C 0.59429 0.04596 0.67812 0.0
O167 O 0.60802 0.03154 0.63967 0.0
O168 O 0.63278 0.05068 0.64818 0.0
In169 In 0.68197 0.84841 0.40181 0.0
O170 O 0.6793 0.85036 0.42613 0.0
O171 O 0.70835 0.83962 0.41726 0.0
C172 C 0.64434 0.86572 0.39484 0.0
C173 C 0.70925 0.8773 0.39118 0.0
C174 C 0.67575 0.80847 0.39236 0.0
O175 O 0.65076 0.86455 0.40758 0.0
O176 O 0.65694 0.85824 0.38566 0.0
O177 O 0.68854 0.82108 0.38642 0.0
O178 O 0.66633 0.81593 0.40311 0.0
C179 C 0.698 0.84402 0.42836 0.0
O180 O 0.71149 0.85765 0.38913 0.0
O181 O 0.69314 0.88235 0.39838 0.0
In182 In 0.89207 0.92929 0.15187 0.0
O183 O 0.89264 0.9264 0.17621 0.0
O184 O 0.89667 0.95695 0.167 0.0
C185 C 0.87581 0.89082 0.14575 0.0
C186 C 0.86276 0.95589 0.14112 0.0
C187 C 0.93248 0.92555 0.14261 0.0
O188 O 0.87589 0.89823 0.15826 0.0
O189 O 0.88401 0.90275 0.13646 0.0
O190 O 0.918 0.93358 0.13505 0.0
O191 O 0.9266 0.91958 0.15481 0.0
C192 C 0.89538 0.94603 0.17821 0.0
O193 O 0.88243 0.95879 0.13941 0.0
O194 O 0.85792 0.93941 0.148 0.0
In195 In 0.8126 0.14286 0.90242 0.0
O196 O 0.78582 0.13124 0.88801 0.0
O197 O 0.80087 0.10881 0.90158 0.0
C198 C 0.81583 0.18329 0.89329 0.0
C199 C 0.79511 0.14726 0.92843 0.0
C200 C 0.85169 0.128 0.89621 0.0
O201 O 0.80716 0.16896 0.88592 0.0
O202 O 0.82267 0.17725 0.90525 0.0
O203 O 0.84491 0.12924 0.90884 0.0
O204 O 0.83878 0.1342 0.88683 0.0
C205 C 0.78673 0.11231 0.89236 0.0
O206 O 0.81424 0.14184 0.92669 0.0
O207 O 0.78497 0.15075 0.91706 0.0
In208 In 0.89333 0.56219 0.65199 0.0
O209 O 0.88654 0.56302 0.67592 0.0
O210 O 0.90571 0.53801 0.66788 0.0
C211 C 0.8776 0.60069 0.64557 0.0
C212 C 0.86471 0.53416 0.64186 0.0
C213 C 0.93328 0.56795 0.64244 0.0
O214 O 0.88073 0.5948 0.65828 0.0
O215 O 0.88251 0.5872 0.63619 0.0
O216 O 0.91937 0.55837 0.6352 0.0
O217 O 0.92701 0.5745 0.65443 0.0
C218 C 0.89696 0.54639 0.67858 0.0
O219 O 0.88445 0.5314 0.64054 0.0
O220 O 0.85952 0.55112 0.64803 0.0
In221 In 0.68288 0.64486 0.90092 0.0
O222 O 0.67922 0.64383 0.92517 0.0
O223 O 0.70956 0.65131 0.9166 0.0
C224 C 0.64486 0.62764 0.8946 0.0
C225 C 0.71104 0.61691 0.89025 0.0
C226 C 0.6776 0.68512 0.89178 0.0
O227 O 0.65206 0.6281 0.90716 0.0
O228 O 0.65682 0.63584 0.88532 0.0
O229 O 0.68592 0.67096 0.88411 0.0
O230 O 0.67213 0.679 0.90404 0.0
C231 C 0.69841 0.64839 0.92759 0.0
O232 O 0.71339 0.6367 0.889 0.0
O233 O 0.69438 0.61127 0.89667 0.0
In234 In 0.5996 0.42805 0.15195 0.0
O235 O 0.59741 0.42667 0.17621 0.0
O236 O 0.58835 0.4553 0.16585 0.0
C237 C 0.61947 0.39122 0.14619 0.0
C238 C 0.62938 0.45566 0.14311 0.0
C239 C 0.56038 0.42028 0.14168 0.0
O240 O 0.61615 0.39746 0.15879 0.0
O241 O 0.61274 0.40352 0.13661 0.0
O242 O 0.57293 0.43309 0.13567 0.0
O243 O 0.56759 0.4117 0.15281 0.0
C244 C 0.59081 0.44549 0.17746 0.0
O245 O 0.61145 0.45429 0.13713 0.0
O246 O 0.63219 0.44303 0.15337 0.0
In247 In 0.81385 0.35062 0.40219 0.0
O248 O 0.8166 0.35042 0.42648 0.0
O249 O 0.78787 0.33934 0.41725 0.0
C250 C 0.85038 0.37048 0.39543 0.0
C251 C 0.78583 0.37942 0.39241 0.0
C252 C 0.82104 0.31099 0.39246 0.0
O253 O 0.8445 0.36777 0.40817 0.0
O254 O 0.83778 0.36327 0.38616 0.0
O255 O 0.80544 0.32194 0.38834 0.0
O256 O 0.83277 0.31994 0.40153 0.0
C257 C 0.79815 0.3432 0.42848 0.0
O258 O 0.78846 0.36166 0.38644 0.0
O259 O 0.79747 0.38264 0.40313 0.0
In260 In 0.89294 0.43006 0.8426 0.0
O261 O 0.88583 0.46173 0.85357 0.0
O262 O 0.85985 0.4422 0.84761 0.0
C263 C 0.9325 0.42233 0.85217 0.0
C264 C 0.89657 0.44528 0.81583 0.0
C265 C 0.87622 0.39198 0.84905 0.0
O266 O 0.91935 0.43328 0.85918 0.0
O267 O 0.92572 0.41555 0.84036 0.0
O268 O 0.87937 0.3978 0.83633 0.0
O269 O 0.88148 0.40536 0.85841 0.0
C270 C 0.86596 0.45937 0.8531 0.0
O271 O 0.88419 0.43022 0.81894 0.0
O272 O 0.90727 0.45234 0.82615 0.0
In273 In 0.8102 0.64244 0.09312 0.0
O274 O 0.81221 0.6428 0.06882 0.0
O275 O 0.78221 0.64867 0.07846 0.0
C276 C 0.84954 0.62829 0.09938 0.0
C277 C 0.78485 0.61175 0.10357 0.0
C278 C 0.81268 0.68304 0.10202 0.0
O279 O 0.84222 0.628 0.08685 0.0
O280 O 0.83699 0.63554 0.10864 0.0
O281 O 0.80407 0.66869 0.10942 0.0
O282 O 0.81979 0.67691 0.09015 0.0
C283 C 0.79271 0.64673 0.06709 0.0
O284 O 0.78357 0.6308 0.10762 0.0
O285 O 0.79914 0.60817 0.09446 0.0
In286 In 0.60087 0.56165 0.34084 0.0
O287 O 0.60263 0.56294 0.31659 0.0
O288 O 0.58984 0.53513 0.32618 0.0
C289 C 0.61847 0.59993 0.34603 0.0
C290 C 0.6298 0.53331 0.34984 0.0
C291 C 0.56143 0.56769 0.35141 0.0
O292 O 0.61077 0.59503 0.33406 0.0
O293 O 0.61746 0.5855 0.3553 0.0
O294 O 0.57596 0.55913 0.35866 0.0
O295 O 0.5668 0.5729 0.33897 0.0
C296 C 0.5947 0.54472 0.31484 0.0
O297 O 0.61108 0.53375 0.35469 0.0
O298 O 0.63389 0.5473 0.34061 0.0
In299 In 0.68384 0.34725 0.59339 0.0
O300 O 0.68101 0.3466 0.56903 0.0
O301 O 0.71175 0.34452 0.57825 0.0
C302 C 0.64427 0.36102 0.59926 0.0
C303 C 0.70939 0.37662 0.60524 0.0
C304 C 0.68189 0.30652 0.60208 0.0
O305 O 0.65271 0.36356 0.58716 0.0
O306 O 0.65583 0.35172 0.60828 0.0
O307 O 0.6888 0.32119 0.60996 0.0
O308 O 0.67618 0.31238 0.58982 0.0
C309 C 0.70078 0.34503 0.56703 0.0
O310 O 0.71288 0.35698 0.60627 0.0
O311 O 0.69277 0.38145 0.59848 0.0
In312 In 0.09945 0.4318 0.34252 0.0
O313 O 0.09872 0.43012 0.3182 0.0
O314 O 0.0932 0.46 0.32809 0.0
C315 C 0.11319 0.39233 0.34877 0.0
C316 C 0.131 0.45652 0.35249 0.0
C317 C 0.05883 0.43022 0.35155 0.0
O318 O 0.11294 0.3994 0.33618 0.0
O319 O 0.10661 0.40515 0.35808 0.0
O320 O 0.07338 0.43869 0.35884 0.0
O321 O 0.06477 0.42272 0.33975 0.0
C322 C 0.09491 0.44965 0.31663 0.0
O323 O 0.11227 0.45764 0.35722 0.0
O324 O 0.13383 0.44271 0.34295 0.0
In325 In 0.30986 0.34761 0.09404 0.0
O326 O 0.31323 0.34794 0.06974 0.0
O327 O 0.28239 0.34417 0.07855 0.0
C328 C 0.34964 0.36128 0.09937 0.0
C329 C 0.28391 0.37658 0.10601 0.0
C330 C 0.31207 0.30695 0.10289 0.0
O331 O 0.34049 0.36466 0.08761 0.0
O332 O 0.33866 0.35127 0.10838 0.0
O333 O 0.30589 0.32179 0.1109 0.0
O334 O 0.31691 0.31259 0.09041 0.0
C335 C 0.2936 0.34564 0.06747 0.0
O336 O 0.28013 0.35695 0.10636 0.0
O337 O 0.30105 0.38158 0.09994 0.0
In338 In 0.39576 0.56194 0.84241 0.0
O339 O 0.38541 0.53271 0.85493 0.0
O340 O 0.36136 0.55272 0.84644 0.0
C341 C 0.43632 0.56503 0.85144 0.0
C342 C 0.39874 0.54497 0.81612 0.0
C343 C 0.38079 0.60089 0.84855 0.0
O344 O 0.42182 0.55718 0.85908 0.0
O345 O 0.43036 0.57111 0.83928 0.0
O346 O 0.38022 0.59334 0.83608 0.0
O347 O 0.38891 0.58883 0.85779 0.0
C348 C 0.36581 0.5361 0.8533 0.0
O349 O 0.39578 0.56457 0.81805 0.0
O350 O 0.40036 0.53418 0.82737 0.0
In351 In 0.18204 0.64337 0.59329 0.0
O352 O 0.21236 0.63435 0.60508 0.0
O353 O 0.19251 0.6094 0.59767 0.0
C354 C 0.17878 0.68369 0.6027 0.0
C355 C 0.19756 0.64685 0.56662 0.0
C356 C 0.14333 0.62761 0.59947 0.0
O357 O 0.18585 0.66889 0.61039 0.0
O358 O 0.17347 0.67816 0.59029 0.0
O359 O 0.15099 0.62698 0.58703 0.0
O360 O 0.15519 0.63611 0.60867 0.0
C361 C 0.20943 0.61462 0.60394 0.0
O362 O 0.17807 0.6438 0.56902 0.0
O363 O 0.20899 0.64822 0.57761 0.0
In364 In 0.10034 0.56283 0.15161 0.0
O365 O 0.10144 0.56586 0.1759 0.0
O366 O 0.09264 0.53612 0.16698 0.0
C367 C 0.11738 0.60074 0.14503 0.0
C368 C 0.12904 0.53512 0.14133 0.0
C369 C 0.06013 0.56878 0.14254 0.0
O370 O 0.11686 0.5938 0.15766 0.0
O371 O 0.10937 0.58853 0.13582 0.0
O372 O 0.07384 0.55935 0.13505 0.0
O373 O 0.06667 0.57488 0.15456 0.0
C374 C 0.09602 0.54685 0.1781 0.0
O375 O 0.10933 0.53272 0.1395 0.0
O376 O 0.1342 0.55162 0.14808 0.0
In377 In 0.18304 0.35083 0.90129 0.0
O378 O 0.2123 0.36091 0.88876 0.0
O379 O 0.19173 0.38515 0.89626 0.0
C380 C 0.1813 0.31015 0.89247 0.0
C381 C 0.19957 0.34874 0.92776 0.0
C382 C 0.14325 0.36387 0.89542 0.0
O383 O 0.18766 0.325 0.88453 0.0
O384 O 0.17603 0.3158 0.90487 0.0
O385 O 0.1515 0.36623 0.90759 0.0
O386 O 0.15512 0.35515 0.88631 0.0
C387 C 0.20858 0.38051 0.88972 0.0
O388 O 0.17996 0.35143 0.9256 0.0
O389 O 0.21062 0.347 0.91662 0.0
In390 In 0.39444 0.43066 0.65127 0.0
O391 O 0.39286 0.42831 0.67557 0.0
O392 O 0.40256 0.45758 0.6664 0.0
C393 C 0.37664 0.39299 0.64496 0.0
C394 C 0.366 0.45833 0.64062 0.0
C395 C 0.4345 0.42372 0.64219 0.0
O396 O 0.37766 0.39994 0.65757 0.0
O397 O 0.38459 0.40503 0.63562 0.0
O398 O 0.42116 0.43389 0.63485 0.0
O399 O 0.42769 0.41739 0.65409 0.0
C400 C 0.39867 0.44724 0.67761 0.0
O401 O 0.38575 0.46066 0.6389 0.0
O402 O 0.3607 0.44195 0.64746 0.0
In403 In 0.31295 0.64202 0.40245 0.0
O404 O 0.28691 0.63004 0.38752 0.0
O405 O 0.30117 0.60805 0.40181 0.0
C406 C 0.3176 0.68255 0.39379 0.0
C407 C 0.29458 0.64705 0.42813 0.0
C408 C 0.35192 0.62687 0.39638 0.0
O409 O 0.30757 0.66902 0.38649 0.0
O410 O 0.32489 0.67566 0.40542 0.0
O411 O 0.34494 0.6278 0.40899 0.0
O412 O 0.3392 0.63338 0.38697 0.0
C413 C 0.28755 0.61126 0.39219 0.0
O414 O 0.31374 0.64148 0.42675 0.0
O415 O 0.28485 0.65028 0.41657 0.0
C416 C 0.39973 0.97765 0.30017 0.0
C417 C 0.39916 0.95556 0.30199 0.0
C418 C 0.40123 0.98646 0.28657 0.0
C419 C 0.39264 0.97405 0.24846 0.0
H420 H 0.42553 0.02541 0.24285 0.0
C421 C 0.40603 0.01139 0.19293 0.0
C422 C 0.40205 0.03327 0.19203 0.0
C423 C 0.40713 0.00138 0.2062 0.0
C424 C 0.41622 0.01112 0.24429 0.0
H425 H 0.3999 0.92531 0.29104 0.0
H426 H 0.40302 0.94069 0.26721 0.0
H427 H 0.42497 0.00851 0.26623 0.0
H428 H 0.39657 0.06193 0.20424 0.0
H429 H 0.39871 0.04445 0.22745 0.0
H430 H 0.38407 0.97666 0.22643 0.0
C431 C 0.40189 0.95124 0.27629 0.0
C432 C 0.41582 0.00146 0.25768 0.0
C433 C 0.40021 0.94241 0.28993 0.0
C434 C 0.39967 0.04505 0.20463 0.0
C435 C 0.40098 0.03507 0.2179 0.0
C436 C 0.39321 0.98361 0.23503 0.0
C437 C 0.4024 0.97339 0.27445 0.0
C438 C 0.4038 0.98295 0.25998 0.0
C439 C 0.40449 0.0131 0.2188 0.0
C440 C 0.40481 0.00237 0.23286 0.0
H441 H 0.39881 0.9882 0.30927 0.0
H442 H 0.40114 0.00357 0.28556 0.0
H443 H 0.38298 0.96 0.24988 0.0
H444 H 0.40793 0.00191 0.18339 0.0
H445 H 0.41005 0.98446 0.2066 0.0
C446 C 0.26013 0.15137 0.55167 0.0
C447 C 0.28232 0.15024 0.55295 0.0
C448 C 0.25059 0.15197 0.53824 0.0
C449 C 0.26042 0.1651 0.50075 0.0
H450 H 0.21352 0.12681 0.49328 0.0
C451 C 0.22827 0.15104 0.44404 0.0
C452 C 0.20634 0.14801 0.44231 0.0
C453 C 0.23717 0.15215 0.45765 0.0
C454 C 0.22636 0.13785 0.49524 0.0
H455 H 0.31197 0.14923 0.54124 0.0
H456 H 0.29526 0.15049 0.51771 0.0
H457 H 0.22976 0.12751 0.51686 0.0
H458 H 0.17643 0.14411 0.45342 0.0
H459 H 0.19186 0.14658 0.47723 0.0
H460 H 0.25693 0.17567 0.47922 0.0
C461 C 0.28529 0.15091 0.52711 0.0
C462 C 0.2357 0.13819 0.50873 0.0
C463 C 0.29483 0.15009 0.54055 0.0
C464 C 0.19342 0.14635 0.45445 0.0
C465 C 0.20229 0.14763 0.46808 0.0
C466 C 0.25096 0.16492 0.48728 0.0
C467 C 0.26307 0.15166 0.52583 0.0
C468 C 0.25289 0.15172 0.5116 0.0
C469 C 0.2243 0.15043 0.46985 0.0
C470 C 0.2339 0.15118 0.48433 0.0
H471 H 0.25009 0.15152 0.56104 0.0
H472 H 0.23345 0.15276 0.53755 0.0
H473 H 0.27349 0.17588 0.50274 0.0
H474 H 0.23865 0.15226 0.43487 0.0
H475 H 0.25421 0.15394 0.45859 0.0
C476 C 0.10466 0.04694 0.79024 0.0
C477 C 0.09254 0.03937 0.80173 0.0
C478 C 0.10336 0.03717 0.77691 0.0
C479 C 0.07006 0.00309 0.75443 0.0
H480 H 0.12333 0.98802 0.73633 0.0
C481 C 0.07741 0.97212 0.69638 0.0
C482 C 0.09113 0.95484 0.69427 0.0
C483 C 0.07628 0.98209 0.70966 0.0
C484 C 0.10834 0.99205 0.7413 0.0
H485 H 0.06905 0.01613 0.80821 0.0
H486 H 0.06664 -0.00082 0.78483 0.0
H487 H 0.12364 0.00694 0.75903 0.0
H488 H 0.11405 0.93413 0.70444 0.0
H489 H 0.1122 0.95168 0.72761 0.0
H490 H 0.05478 0.98817 0.73662 0.0
C491 C 0.07715 0.01264 0.78616 0.0
C492 C 0.10852 0.00305 0.7542 0.0
C493 C 0.07861 0.02227 0.79954 0.0
C494 C 0.10335 0.94743 0.70575 0.0
C495 C 0.10239 0.95753 0.71898 0.0
C496 C 0.06988 0.99228 0.74141 0.0
C497 C 0.08976 0.01979 0.77479 0.0
C498 C 0.08939 0.00862 0.76091 0.0
C499 C 0.08902 0.9751 0.72101 0.0
C500 C 0.08903 0.98656 0.73478 0.0
H501 H 0.11551 0.06012 0.79162 0.0
H502 H 0.1131 0.04313 0.76827 0.0
H503 H 0.05509 0.00728 0.75937 0.0
H504 H 0.06779 0.97815 0.6877 0.0
H505 H 0.06593 0.99567 0.71093 0.0
C506 C 0.26224 0.8373 0.94231 0.0
C507 C 0.28427 0.84042 0.94133 0.0
C508 C 0.25236 0.83598 0.9556 0.0
C509 C 0.26194 0.82474 0.99342 0.0
H510 H 0.21224 0.8598 -0.00031 0.0
C511 C 0.22799 0.83977 0.04954 0.0
C512 C 0.2059 0.84166 0.05108 0.0
C513 C 0.23709 0.83819 0.03602 0.0
C514 C 0.22587 0.84961 -0.00192 0.0
H515 H 0.31334 0.84409 0.95345 0.0
H516 H 0.29606 0.84158 0.97674 0.0
H517 H 0.22903 0.85929 0.9763 0.0
H518 H 0.17595 0.84287 0.03976 0.0
H519 H 0.19177 0.83955 0.01612 0.0
H520 H 0.25873 0.81488 0.01513 0.0
C521 C 0.28646 0.84016 0.96721 0.0
C522 C 0.23552 0.84939 0.98468 0.0
C523 C 0.29633 0.8417 0.9539 0.0
C524 C 0.19304 0.84156 0.03887 0.0
C525 C 0.20213 0.83979 0.02533 0.0
C526 C 0.25217 0.82479 0.00679 0.0
C527 C 0.26435 0.83754 0.96818 0.0
C528 C 0.25374 0.83709 0.98226 0.0
C529 C 0.2243 0.83827 0.02373 0.0
C530 C 0.23412 0.83738 0.00933 0.0
H531 H 0.25254 0.83624 0.93279 0.0
H532 H 0.23532 0.83375 0.95605 0.0
H533 H 0.27582 0.81491 0.99178 0.0
H534 H 0.23831 0.83991 0.05878 0.0
H535 H 0.25422 0.83741 0.0352 0.0
C536 C 0.59112 0.94811 0.79044 0.0
C537 C 0.59089 0.9604 0.80292 0.0
C538 C 0.58984 0.95784 0.77707 0.0
C539 C 0.60139 0.00789 0.75903 0.0
H540 H 0.56449 0.9861 0.72936 0.0
C541 C 0.59336 0.0499 0.70466 0.0
C542 C 0.59224 0.03688 0.69255 0.0
C543 C 0.59185 0.0411 0.7183 0.0
C544 C 0.57506 0.99225 0.73747 0.0
H545 H 0.58894 0.99243 0.81126 0.0
H546 H 0.58689 0.00939 0.78791 0.0
H547 H 0.56446 0.96943 0.75283 0.0
H548 H 0.58866 0.00449 0.68515 0.0
H549 H 0.58658 0.98908 0.70889 0.0
H550 H 0.61246 0.03033 0.74366 0.0
C551 C 0.5881 0.99228 0.78846 0.0
C552 C 0.57498 0.98272 0.75091 0.0
C553 C 0.58916 0.98255 0.80181 0.0
C554 C 0.58946 0.01494 0.6943 0.0
C555 C 0.58813 0.00612 0.70792 0.0
C556 C 0.60162 0.0173 0.74556 0.0
C557 C 0.58854 0.98003 0.77596 0.0
C558 C 0.58819 0.99041 0.7618 0.0
C559 C 0.58936 0.01908 0.7201 0.0
C560 C 0.58853 0.00954 0.73458 0.0
H561 H 0.59244 0.931 0.79098 0.0
H562 H 0.59039 0.94803 0.7676 0.0
H563 H 0.61193 0.01396 0.76719 0.0
H564 H 0.59539 0.06689 0.7036 0.0
H565 H 0.59253 0.05158 0.72743 0.0
C566 C 0.69516 0.84667 0.45491 0.0
C567 C 0.70747 0.84275 0.44272 0.0
C568 C 0.70447 0.84638 0.46844 0.0
C569 C 0.75254 0.82836 0.48796 0.0
H570 H 0.73509 0.87101 0.51533 0.0
C571 C 0.79762 0.8446 0.54071 0.0
C572 C 0.78492 0.84662 0.55294 0.0
C573 C 0.78828 0.84374 0.52719 0.0
C574 C 0.74001 0.85891 0.50783 0.0
H575 H 0.73908 0.83528 0.43508 0.0
H576 H 0.75541 0.83522 0.4586 0.0
H577 H 0.71833 0.86988 0.49193 0.0
H578 H 0.75258 0.84939 0.56066 0.0
H579 H 0.73635 0.84804 0.53709 0.0
H580 H 0.7745 0.81767 0.50387 0.0
C581 C 0.73851 0.83812 0.4578 0.0
C582 C 0.73035 0.85819 0.49444 0.0
C583 C 0.72917 0.83827 0.44431 0.0
C584 C 0.76277 0.84784 0.55142 0.0
C585 C 0.75348 0.84718 0.53793 0.0
C586 C 0.76232 0.8292 0.50132 0.0
C587 C 0.72631 0.8423 0.47003 0.0
C588 C 0.73645 0.84287 0.48435 0.0
C589 C 0.76612 0.84511 0.52568 0.0
C590 C 0.7561 0.84444 0.5114 0.0
H591 H 0.67837 0.85008 0.454 0.0
H592 H 0.69453 0.84932 0.47765 0.0
H593 H 0.75742 0.81615 0.48053 0.0
H594 H 0.81474 0.84363 0.54159 0.0
H595 H 0.7984 0.84229 0.51791 0.0
C596 C 0.90119 0.01301 0.30098 0.0
C597 C 0.89629 0.03466 0.30223 0.0
C598 C 0.90162 0.00326 0.28763 0.0
C599 C 0.90856 0.01397 0.24963 0.0
H600 H 0.87861 0.9608 0.24428 0.0
C601 C 0.89587 0.97787 0.19394 0.0
C602 C 0.89651 0.95572 0.19251 0.0
C603 C 0.89642 0.98725 0.20741 0.0
C604 C 0.88736 0.97545 0.24563 0.0
H605 H 0.88823 0.06318 0.29053 0.0
H606 H 0.88926 0.04615 0.26708 0.0
H607 H 0.8786 0.97776 0.26764 0.0
H608 H 0.89852 0.92597 0.20398 0.0
H609 H 0.9001 0.94234 0.22755 0.0
H610 H 0.91769 0.01158 0.22775 0.0
C611 C 0.89273 0.03676 0.27647 0.0
C612 C 0.88725 0.9852 0.259 0.0
C613 C 0.89205 0.04646 0.28986 0.0
C614 C 0.89791 0.94309 0.20479 0.0
C615 C 0.89868 0.95249 0.21829 0.0
C616 C 0.90887 0.00411 0.2363 0.0
C617 C 0.8974 0.01504 0.27524 0.0
C618 C 0.89774 0.00461 0.2611 0.0
C619 C 0.89785 0.9747 0.21977 0.0
C620 C 0.89814 0.9848 0.2341 0.0
H621 H 0.90452 0.00351 0.31034 0.0
H622 H 0.90545 0.98655 0.28697 0.0
H623 H 0.91702 0.02879 0.25103 0.0
H624 H 0.89464 0.98801 0.18466 0.0
H625 H 0.89533 0.00435 0.20812 0.0
C626 C 0.79703 0.14504 0.955 0.0
C627 C 0.78506 0.14858 0.94261 0.0
C628 C 0.78728 0.14532 0.96838 0.0
C629 C 0.73884 0.16313 0.98731 0.0
H630 H 0.75592 0.1206 0.01488 0.0
C631 C 0.69453 0.14878 0.0407 0.0
C632 C 0.70749 0.14636 0.05277 0.0
C633 C 0.70351 0.14931 0.02706 0.0
C634 C 0.7511 0.13267 0.00733 0.0
H635 H 0.75359 0.15542 0.93446 0.0
H636 H 0.7365 0.15559 0.95778 0.0
H637 H 0.77269 0.12136 0.9915 0.0
H638 H 0.73995 0.14264 0.06009 0.0
H639 H 0.75555 0.14352 0.03635 0.0
H640 H 0.71709 0.17427 0.0032 0.0
C641 C 0.75346 0.15291 0.95721 0.0
C642 C 0.76075 0.13316 0.99395 0.0
C643 C 0.76323 0.15271 0.94384 0.0
C644 C 0.72954 0.14449 0.05098 0.0
C645 C 0.73848 0.14487 0.03738 0.0
C646 C 0.7291 0.16256 0.0007 0.0
C647 C 0.76534 0.14904 0.96963 0.0
C648 C 0.75485 0.14848 0.98381 0.0
C649 C 0.72558 0.14723 0.02528 0.0
C650 C 0.73526 0.14742 0.01088 0.0
H651 H 0.81391 0.14191 0.95438 0.0
H652 H 0.79697 0.14264 0.97775 0.0
H653 H 0.73409 0.17528 0.9798 0.0
H654 H 0.67748 0.15026 0.04179 0.0
H655 H 0.69318 0.151 0.0179 0.0
C656 C 0.91113 0.51908 0.69532 0.0
C657 C 0.89823 0.53689 0.69293 0.0
C658 C 0.91166 0.5094 0.7087 0.0
C659 C 0.87997 0.50249 0.74112 0.0
H660 H 0.93317 0.48402 0.75782 0.0
C661 C 0.88352 0.44843 0.79073 0.0
C662 C 0.89784 0.4546 0.80143 0.0
C663 C 0.884 0.45822 0.77736 0.0
C664 C 0.91821 0.48916 0.7533 0.0
H665 H 0.87598 0.55874 0.70267 0.0
H666 H 0.87689 0.54178 0.72611 0.0
H667 H 0.93333 0.50258 0.73495 0.0
H668 H 0.92414 0.47549 0.80649 0.0
H669 H 0.92504 0.49249 0.78313 0.0
H670 H 0.86485 0.48918 0.7595 0.0
C671 C 0.88648 0.53524 0.71759 0.0
C672 C 0.91828 0.49964 0.74018 0.0
C673 C 0.88606 0.54502 0.70421 0.0
C674 C 0.91292 0.47041 0.79843 0.0
C675 C 0.91349 0.48007 0.78505 0.0
C676 C 0.87988 0.49188 0.75419 0.0
C677 C 0.89919 0.51726 0.71994 0.0
C678 C 0.89917 0.50643 0.73396 0.0
C679 C 0.89891 0.47423 0.77442 0.0
C680 C 0.899 0.48513 0.76042 0.0
H681 H 0.92067 0.51245 0.68681 0.0
H682 H 0.92145 0.49545 0.71016 0.0
H683 H 0.86497 0.50736 0.73651 0.0
H684 H 0.87173 0.43629 0.79275 0.0
H685 H 0.87272 0.45324 0.76931 0.0
C686 C 0.79525 0.64844 0.04049 0.0
C687 C 0.78277 0.64845 0.0529 0.0
C688 C 0.78569 0.64964 0.02707 0.0
C689 C 0.73584 0.63819 0.00855 0.0
H690 H 0.75791 0.67595 0.97948 0.0
C691 C 0.69422 0.6483 0.95414 0.0
C692 C 0.70737 0.64978 0.94209 0.0
C693 C 0.70293 0.64921 0.96784 0.0
C694 C 0.75169 0.66514 0.98742 0.0
H695 H 0.75057 0.64983 0.06103 0.0
H696 H 0.73389 0.65177 0.03758 0.0
H697 H 0.77436 0.67531 0.00302 0.0
H698 H 0.73989 0.65333 0.93489 0.0
H699 H 0.75511 0.6544 0.95871 0.0
H700 H 0.7135 0.62763 0.99294 0.0
C701 C 0.75103 0.65078 0.03823 0.0
C702 C 0.7611 0.66482 0.0009 0.0
C703 C 0.76059 0.64978 0.05165 0.0
C704 C 0.72934 0.65227 0.94398 0.0
C705 C 0.73805 0.65302 0.95765 0.0
C706 C 0.72654 0.63837 0.99504 0.0
C707 C 0.76348 0.65067 0.02581 0.0
C708 C 0.7533 0.6513 0.01159 0.0
C709 C 0.72497 0.65147 0.96975 0.0
C710 C 0.73441 0.65179 0.98428 0.0
H711 H 0.81239 0.64742 0.04115 0.0
H712 H 0.79566 0.64935 0.01766 0.0
H713 H 0.72967 0.62743 0.01655 0.0
H714 H 0.67721 0.64647 0.95298 0.0
H715 H 0.69236 0.64827 0.97692 0.0
C716 C 0.59334 0.54764 0.28829 0.0
C717 C 0.5917 0.53518 0.30063 0.0
C718 C 0.59096 0.53846 0.27483 0.0
C719 C 0.57184 0.48951 0.25654 0.0
H720 H 0.60853 0.50952 0.22618 0.0
C721 C 0.58802 0.44376 0.20404 0.0
C722 C 0.58749 0.45573 0.19141 0.0
C723 C 0.58632 0.45377 0.21728 0.0
C724 C 0.59803 0.50393 0.23453 0.0
H725 H 0.58625 0.5034 0.30865 0.0
H726 H 0.58288 0.4872 0.28521 0.0
H727 H 0.6101 0.52642 0.24948 0.0
H728 H 0.58428 0.48742 0.18268 0.0
H729 H 0.58164 0.50491 0.20584 0.0
H730 H 0.56045 0.46646 0.24157 0.0
C731 C 0.5854 0.50416 0.28584 0.0
C732 C 0.59884 0.51366 0.24788 0.0
C733 C 0.58749 0.51341 0.2993 0.0
C734 C 0.58476 0.4778 0.19224 0.0
C735 C 0.58334 0.48782 0.20548 0.0
C736 C 0.57126 0.4796 0.24322 0.0
C737 C 0.5872 0.51655 0.27342 0.0
C738 C 0.5858 0.50656 0.25908 0.0
C739 C 0.58433 0.47592 0.21811 0.0
C740 C 0.58437 0.48672 0.23211 0.0
H741 H 0.59641 0.56451 0.28903 0.0
H742 H 0.59203 0.54859 0.26554 0.0
H743 H 0.56129 0.48385 0.26482 0.0
H744 H 0.59008 0.42671 0.20369 0.0
H745 H 0.58725 0.44427 0.22689 0.0
C746 C 0.7327 0.34507 0.55133 0.0
C747 C 0.71053 0.34394 0.55274 0.0
C748 C 0.74214 0.3442 0.53789 0.0
C749 C 0.73368 0.32599 0.50126 0.0
H750 H 0.77769 0.36678 0.49202 0.0
C751 C 0.76714 0.33586 0.44431 0.0
C752 C 0.78877 0.34077 0.4428 0.0
C753 C 0.75778 0.33517 0.4578 0.0
C754 C 0.76568 0.35504 0.49449 0.0
H755 H 0.68083 0.34084 0.54126 0.0
H756 H 0.69743 0.33915 0.51766 0.0
H757 H 0.76074 0.36789 0.51535 0.0
H758 H 0.81777 0.3481 0.45422 0.0
H759 H 0.80159 0.34636 0.47782 0.0
H760 H 0.73876 0.31295 0.48048 0.0
C761 C 0.70745 0.34069 0.52699 0.0
C762 C 0.75591 0.35576 0.50784 0.0
C763 C 0.69796 0.34176 0.54046 0.0
C764 C 0.80102 0.34438 0.45506 0.0
C765 C 0.7917 0.34355 0.46857 0.0
C766 C 0.74357 0.32516 0.48793 0.0
C767 C 0.72964 0.342 0.52559 0.0
C768 C 0.73981 0.34126 0.51136 0.0
C769 C 0.7699 0.33925 0.47009 0.0
C770 C 0.75968 0.3397 0.48438 0.0
H771 H 0.74279 0.34673 0.56061 0.0
H772 H 0.75928 0.34502 0.53714 0.0
H773 H 0.72148 0.31446 0.50377 0.0
H774 H 0.75727 0.33309 0.43503 0.0
H775 H 0.74091 0.33207 0.45854 0.0
C776 C 0.09211 0.48205 0.30147 0.0
C777 C 0.09317 0.45985 0.30253 0.0
C778 C 0.09125 0.49187 0.28814 0.0
C779 C 0.07731 0.48291 0.25069 0.0
H780 H 0.11567 0.52978 0.24332 0.0
C781 C 0.09102 0.5157 0.19414 0.0
C782 C 0.09419 0.5376 0.19249 0.0
C783 C 0.08989 0.50669 0.2077 0.0
C784 C 0.1046 0.51696 0.24525 0.0
H785 H 0.09379 0.43048 0.29053 0.0
H786 H 0.0921 0.44769 0.26718 0.0
H787 H 0.11531 0.51311 0.26676 0.0
H788 H 0.09827 0.56736 0.20371 0.0
H789 H 0.09578 0.55173 0.22747 0.0
H790 H 0.0664 0.48683 0.22926 0.0
C791 C 0.09192 0.45745 0.27668 0.0
C792 C 0.10446 0.50736 0.25867 0.0
C793 C 0.09299 0.44763 0.29002 0.0
C794 C 0.09593 0.5504 0.20468 0.0
C795 C 0.09462 0.54141 0.21828 0.0
C796 C 0.0773 0.49262 0.2373 0.0
C797 C 0.09123 0.47968 0.27562 0.0
C798 C 0.09092 0.49016 0.26149 0.0
C799 C 0.09172 0.51942 0.21995 0.0
C800 C 0.09107 0.50966 0.23438 0.0
H801 H 0.09221 0.49189 0.31094 0.0
H802 H 0.09052 0.50902 0.28764 0.0
H803 H 0.06652 0.46984 0.25264 0.0
H804 H 0.08973 0.50541 0.18492 0.0
H805 H 0.08801 0.48967 0.20857 0.0
C806 C 0.26214 0.34418 0.05136 0.0
C807 C 0.28428 0.34508 0.05305 0.0
C808 C 0.25312 0.34409 0.03777 0.0
C809 C 0.26468 0.35808 0.00034 0.0
H810 H 0.21544 0.32298 0.99252 0.0
C811 C 0.23119 0.34666 0.94369 0.0
C812 C 0.20905 0.34786 0.94213 0.0
C813 C 0.24036 0.34608 0.95723 0.0
C814 C 0.22906 0.33301 0.99459 0.0
H815 H 0.31437 0.34633 0.04189 0.0
H816 H 0.29863 0.34579 0.01809 0.0
H817 H 0.23183 0.32196 0.01607 0.0
H818 H 0.1791 0.34928 0.95347 0.0
H819 H 0.19517 0.34822 0.9772 0.0
H820 H 0.26197 0.36899 0.97881 0.0
C821 C 0.28822 0.34552 0.02727 0.0
C822 C 0.23845 0.33245 0.00808 0.0
C823 C 0.29725 0.3457 0.04089 0.0
C824 C 0.19622 0.34834 0.95437 0.0
C825 C 0.2054 0.34763 0.96793 0.0
C826 C 0.25535 0.35856 0.98684 0.0
C827 C 0.26604 0.34479 0.02556 0.0
C828 C 0.25634 0.34503 0.01113 0.0
C829 C 0.22758 0.34658 0.96949 0.0
C830 C 0.23742 0.34607 0.98384 0.0
H831 H 0.25173 0.34379 0.06055 0.0
H832 H 0.23599 0.34385 0.03686 0.0
H833 H 0.2782 0.36824 0.0024 0.0
H834 H 0.24149 0.34625 0.93445 0.0
H835 H 0.25748 0.34502 0.95809 0.0
C836 C 0.40003 0.51295 0.80055 0.0
C837 C 0.39981 0.53514 0.80186 0.0
C838 C 0.40053 0.50344 0.78712 0.0
C839 C 0.41539 0.51261 0.74991 0.0
H840 H 0.37624 0.46657 0.74205 0.0
C841 C 0.40374 0.47875 0.69333 0.0
C842 C 0.40017 0.45687 0.69191 0.0
C843 C 0.40437 0.48814 0.7068 0.0
C844 C 0.38751 0.47917 0.74412 0.0
H845 H 0.40023 0.56482 0.7902 0.0
H846 H 0.40132 0.54813 0.76663 0.0
H847 H 0.3761 0.48342 0.76542 0.0
H848 H 0.39491 0.42754 0.70343 0.0
H849 H 0.39654 0.44382 0.72701 0.0
H850 H 0.42705 0.50822 0.7287 0.0
C851 C 0.4011 0.53814 0.77603 0.0
C852 C 0.38736 0.48887 0.75749 0.0
C853 C 0.40037 0.54767 0.78948 0.0
C854 C 0.39758 0.44448 0.70422 0.0
C855 C 0.39838 0.45384 0.71771 0.0
C856 C 0.41568 0.50278 0.73655 0.0
C857 C 0.40103 0.51593 0.77473 0.0
C858 C 0.40125 0.50571 0.76051 0.0
C859 C 0.40161 0.47583 0.71916 0.0
C860 C 0.4017 0.48598 0.73348 0.0
H861 H 0.39961 0.50288 0.8099 0.0
H862 H 0.4007 0.48629 0.78644 0.0
H863 H 0.42645 0.52539 0.75201 0.0
H864 H 0.40569 0.48873 0.68402 0.0
H865 H 0.40656 0.50515 0.70749 0.0
C866 C 0.19332 0.649 0.5401 0.0
C867 C 0.20655 0.64848 0.55214 0.0
C868 C 0.20208 0.6504 0.52642 0.0
C869 C 0.25198 0.66445 0.50749 0.0
H870 H 0.22788 0.6307 0.47695 0.0
C871 C 0.29599 0.64743 0.45476 0.0
C872 C 0.28414 0.64908 0.44213 0.0
C873 C 0.28595 0.64879 0.46801 0.0
C874 C 0.23464 0.64039 0.48534 0.0
H875 H 0.23925 0.6489 0.55937 0.0
H876 H 0.25451 0.65081 0.53561 0.0
H877 H 0.21122 0.63037 0.50042 0.0
H878 H 0.25257 0.65355 0.43341 0.0
H879 H 0.23502 0.65575 0.45659 0.0
H880 H 0.27572 0.67399 0.49245 0.0
C881 C 0.23739 0.65065 0.53665 0.0
C882 C 0.22507 0.64026 0.49878 0.0
C883 C 0.22864 0.6494 0.55028 0.0
C884 C 0.2621 0.65223 0.44298 0.0
C885 C 0.25204 0.65338 0.45623 0.0
C886 C 0.26164 0.66443 0.49409 0.0
C887 C 0.22424 0.65119 0.52454 0.0
C888 C 0.23373 0.65215 0.51005 0.0
C889 C 0.26386 0.65161 0.46887 0.0
C890 C 0.25315 0.65228 0.48292 0.0
H891 H 0.17622 0.6484 0.54123 0.0
H892 H 0.19149 0.65104 0.51734 0.0
H893 H 0.25884 0.67413 0.51584 0.0
H894 H 0.313 0.64499 0.45442 0.0
H895 H 0.29542 0.64717 0.47759 0.0
C896 C 0.32764 0.01765 0.14471 0.0
C897 C 0.34732 0.0187 0.13771 0.0
C898 C 0.31251 0.00266 0.14066 0.0
C899 C 0.29604 0.96847 0.11099 0.0
H900 H 0.26638 0.93717 0.14053 0.0
C901 C 0.22315 0.91593 0.09924 0.0
C902 C 0.22269 0.8959 0.1058 0.0
C903 C 0.23842 0.93089 0.10315 0.0
C904 C 0.27462 0.9457 0.13217 0.0
H905 H 0.36655 0.0051 0.12087 0.0
H906 H 0.34 0.97884 0.11373 0.0
H907 H 0.2933 0.96323 0.14715 0.0
H908 H 0.23763 0.87589 0.12169 0.0
H909 H 0.26429 0.90211 0.12857 0.0
H910 H 0.27743 0.95082 0.09601 0.0
C911 C 0.33628 0.9897 0.12233 0.0
C912 C 0.28987 0.96075 0.13595 0.0
C913 C 0.35149 0.00465 0.12644 0.0
C914 C 0.23759 0.89122 0.11648 0.0
C915 C 0.25279 0.90624 0.12045 0.0
C916 C 0.28068 0.95351 0.10721 0.0
C917 C 0.3167 0.98846 0.12948 0.0
C918 C 0.30071 0.97231 0.12541 0.0
C919 C 0.25344 0.92618 0.11375 0.0
C920 C 0.2698 0.94199 0.11776 0.0
H921 H 0.32395 0.02831 0.15342 0.0
H922 H 0.29745 0.00227 0.14623 0.0
H923 H 0.30403 0.97725 0.10264 0.0
H924 H 0.21185 0.91998 0.09098 0.0
H925 H 0.23837 0.94623 0.09794 0.0
C926 C 0.24527 0.10437 0.3826 0.0
C927 C 0.22452 0.09814 0.38606 0.0
C928 C 0.26059 0.08919 0.37914 0.0
C929 C 0.27165 0.0315 0.38276 0.0
H930 H 0.31553 0.04347 0.3549 0.0
C931 C 0.32813 0.96801 0.35941 0.0
C932 C 0.34977 0.97336 0.35897 0.0
C933 C 0.313 0.98316 0.36322 0.0
C934 C 0.30345 0.04001 0.36278 0.0
H935 H 0.20322 0.07132 0.38812 0.0
H936 H 0.22962 0.04491 0.38153 0.0
H937 H 0.28839 0.07005 0.3598 0.0
H938 H 0.37261 -0.00138 0.3623 0.0
H939 H 0.34604 0.02523 0.36876 0.0
H940 H 0.2865 0.00118 0.38537 0.0
C941 C 0.23437 0.0614 0.38194 0.0
C942 C 0.28792 0.05524 0.36564 0.0
C943 C 0.21916 0.07655 0.3856 0.0
C944 C 0.35603 0.99406 0.36259 0.0
C945 C 0.34086 0.0093 0.36619 0.0
C946 C 0.28701 0.01618 0.37975 0.0
C947 C 0.25538 0.06748 0.37887 0.0
C948 C 0.27183 0.0512 0.37569 0.0
C949 C 0.3192 0.00401 0.36645 0.0
C950 C 0.30306 0.02032 0.36976 0.0
H951 H 0.24986 0.12092 0.38298 0.0
H952 H 0.27664 0.09448 0.37704 0.0
H953 H 0.25981 0.02797 0.39078 0.0
H954 H 0.32288 0.95217 0.35666 0.0
H955 H 0.29638 0.97873 0.36327 0.0
C956 C 0.14072 0.98808 0.62898 0.0
C957 C 0.14487 0.97415 0.64032 0.0
C958 C 0.15573 0.00335 0.62504 0.0
C959 C 0.20133 0.03328 0.639 0.0
H960 H 0.21504 0.0422 0.59914 0.0
C961 C 0.25338 0.10288 0.61915 0.0
C962 C 0.26859 0.09806 0.6087 0.0
C963 C 0.23837 0.08774 0.62325 0.0
C964 C 0.21144 0.0398 0.61032 0.0
H965 H 0.16791 0.96521 0.65643 0.0
H966 H 0.19402 0.99184 0.64957 0.0
H967 H 0.18845 0.01573 0.6057 0.0
H968 H 0.28026 0.07357 0.59448 0.0
H969 H 0.25406 0.04713 0.60165 0.0
H970 H 0.22446 0.0572 0.64363 0.0
C971 C 0.17916 0.99107 0.64378 0.0
C972 C 0.19608 0.02482 0.61406 0.0
C973 C 0.16426 0.97575 0.64764 0.0
C974 C 0.2687 0.07774 0.60256 0.0
C975 C 0.25362 0.06266 0.60659 0.0
C976 C 0.21659 0.04836 0.63526 0.0
C977 C 0.17505 0.00506 0.63246 0.0
C978 C 0.19095 0.02133 0.62844 0.0
C979 C 0.23821 0.06754 0.6169 0.0
C980 C 0.22187 0.0517 0.62089 0.0
H981 H 0.12589 0.98721 0.62316 0.0
H982 H 0.15208 0.01403 0.61634 0.0
H983 H 0.19756 0.03105 0.65017 0.0
H984 H 0.25291 0.11843 0.62404 0.0
H985 H 0.22658 0.09199 0.63115 0.0
C986 C 0.16545 0.01796 0.84895 0.0
C987 C 0.14553 0.01889 0.85565 0.0
C988 C 0.18011 0.00237 0.85273 0.0
C989 C 0.19487 0.96636 0.88174 0.0
H990 H 0.22606 0.93677 0.85214 0.0
C991 C 0.26789 0.91452 0.89384 0.0
C992 C 0.269 0.89476 0.88697 0.0
C993 C 0.25253 0.92933 0.88989 0.0
C994 C 0.21737 0.94481 0.86051 0.0
H995 H 0.12534 0.00435 0.87161 0.0
H996 H 0.15109 0.97707 0.8783 0.0
H997 H 0.19933 0.96307 0.84557 0.0
H998 H 0.25514 0.87508 0.87046 0.0
H999 H 0.22829 0.90108 0.86349 0.0
H1000 H 0.21287 0.94807 0.89669 0.0
C1001 C 0.15534 0.98848 0.87015 0.0
C1002 C 0.20222 0.95998 0.85676 0.0
C1003 C 0.1406 0.00402 0.86629 0.0
C1004 C 0.25466 0.8902 0.87592 0.0
C1005 C 0.23935 0.9051 0.8719 0.0
C1006 C 0.21011 0.95129 0.8855 0.0
C1007 C 0.17521 0.98745 0.86335 0.0
C1008 C 0.19088 0.97096 0.86734 0.0
C1009 C 0.23804 0.92474 0.87893 0.0
C1010 C 0.22158 0.94042 0.87492 0.0
H1011 H 0.16971 0.02923 0.84071 0.0
H1012 H 0.1954 0.00214 0.84744 0.0
H1013 H 0.18647 0.97469 0.89012 0.0
H1014 H 0.27875 0.91848 0.90239 0.0
H1015 H 0.25208 0.94446 0.89536 0.0
C1016 C 0.77192 0.07569 0.89413 0.0
C1017 C 0.77179 0.09575 0.88761 0.0
C1018 C 0.75706 0.06033 0.89023 0.0
C1019 C 0.72074 0.0445 0.86154 0.0
H1020 H 0.69148 0.01384 0.89155 0.0
C1021 C 0.66613 0.97314 0.85012 0.0
C1022 C 0.64644 0.97302 0.85714 0.0
C1023 C 0.68179 0.98772 0.85395 0.0
C1024 C 0.69947 0.02234 0.88307 0.0
H1025 H 0.75632 0.11536 0.87172 0.0
H1026 H 0.73037 0.08841 0.86484 0.0
H1027 H 0.71828 0.04029 0.89776 0.0
H1028 H 0.62778 0.98777 0.87383 0.0
H1029 H 0.65526 0.01324 0.8806 0.0
H1030 H 0.70179 0.02668 0.84685 0.0
C1031 C 0.74201 0.08458 0.87294 0.0
C1032 C 0.71493 0.03731 0.88661 0.0
C1033 C 0.75679 0.10002 0.87691 0.0
C1034 C 0.64283 0.9875 0.86825 0.0
C1035 C 0.65857 0.00201 0.87215 0.0
C1036 C 0.70539 0.0294 0.85799 0.0
C1037 C 0.74186 0.06467 0.87967 0.0
C1038 C 0.72568 0.04858 0.87588 0.0
C1039 C 0.67813 0.00238 0.86495 0.0
C1040 C 0.69457 0.01822 0.86873 0.0
H1041 H 0.78332 0.07194 0.9024 0.0
H1042 H 0.75748 0.04502 0.89546 0.0
H1043 H 0.72887 0.05285 0.85305 0.0
H1044 H 0.66937 0.96213 0.84152 0.0
H1045 H 0.69682 0.98748 0.84833 0.0
C1046 C 0.66531 0.02392 0.63677 0.0
C1047 C 0.64369 0.01847 0.63688 0.0
C1048 C 0.68065 0.00884 0.63326 0.0
C1049 C 0.69063 0.95215 0.63403 0.0
H1050 H 0.73503 0.9644 0.60662 0.0
C1051 C 0.74894 0.888 0.61438 0.0
C1052 C 0.76975 0.89412 0.61096 0.0
C1053 C 0.73378 0.90321 0.61801 0.0
C1054 C 0.72299 0.96082 0.61449 0.0
H1055 H 0.62108 0.9931 0.63329 0.0
H1056 H 0.64804 0.96655 0.62735 0.0
H1057 H 0.70795 0.99098 0.61157 0.0
H1058 H 0.79132 0.92076 0.6092 0.0
H1059 H 0.76512 0.94728 0.61609 0.0
H1060 H 0.70585 0.92226 0.6373 0.0
C1061 C 0.65303 0.98254 0.62994 0.0
C1062 C 0.7074 0.97601 0.61723 0.0
C1063 C 0.63764 -0.00227 0.63324 0.0
C1064 C 0.77534 0.91563 0.61171 0.0
C1065 C 0.76025 0.93083 0.61553 0.0
C1066 C 0.70638 0.93705 0.63145 0.0
C1067 C 0.67467 0.98795 0.63 0.0
C1068 C 0.69104 0.97177 0.62698 0.0
C1069 C 0.73917 0.92486 0.61848 0.0
C1070 C 0.72273 0.94115 0.62159 0.0
H1071 H 0.67041 0.03982 0.63953 0.0
H1072 H 0.69724 0.01337 0.63345 0.0
H1073 H 0.67833 0.94864 0.64175 0.0
H1074 H 0.74416 0.87152 0.61379 0.0
H1075 H 0.71767 0.898 0.62001 0.0
C1076 C 0.74531 0.88689 0.38217 0.0
C1077 C 0.72476 0.89313 0.38618 0.0
C1078 C 0.76045 0.90208 0.3784 0.0
C1079 C 0.76698 0.95561 0.36464 0.0
H1080 H 0.82089 0.95533 0.3846 0.0
C1081 C 0.82682 0.02385 0.35795 0.0
C1082 C 0.84849 0.01875 0.35778 0.0
C1083 C 0.81176 0.0086 0.36171 0.0
C1084 C 0.80608 0.95548 0.37875 0.0
H1085 H 0.70369 0.91997 0.38902 0.0
H1086 H 0.73006 0.94651 0.38206 0.0
H1087 H 0.79459 0.928 0.38978 0.0
H1088 H 0.8715 0.99381 0.36141 0.0
H1089 H 0.84525 0.96693 0.36746 0.0
H1090 H 0.7785 0.98261 0.35328 0.0
C1091 C 0.73445 0.9299 0.38197 0.0
C1092 C 0.79102 0.93986 0.38177 0.0
C1093 C 0.71943 0.91475 0.38599 0.0
C1094 C 0.85488 -0.0018 0.36157 0.0
C1095 C 0.8398 0.98283 0.3651 0.0
C1096 C 0.78216 0.97104 0.36144 0.0
C1097 C 0.75516 0.92371 0.37833 0.0
C1098 C 0.77131 0.93987 0.37479 0.0
C1099 C 0.81801 0.98778 0.36514 0.0
C1100 C 0.80188 0.97126 0.36851 0.0
H1101 H 0.74983 0.87031 0.38228 0.0
H1102 H 0.7763 0.89696 0.37554 0.0
H1103 H 0.75194 0.95581 0.35904 0.0
H1104 H 0.82149 0.03965 0.35515 0.0
H1105 H 0.7952 0.01317 0.36193 0.0
C1106 C 0.74403 0.10342 0.11369 0.0
C1107 C 0.72291 0.09789 0.11066 0.0
C1108 C 0.75884 0.08779 0.11714 0.0
C1109 C 0.76491 0.03421 0.13109 0.0
H1110 H 0.8172 0.03354 0.10926 0.0
C1111 C 0.82506 0.96597 0.13657 0.0
C1112 C 0.84669 0.97129 0.13633 0.0
C1113 C 0.80971 0.98101 0.13296 0.0
C1114 C 0.80284 0.03364 0.11561 0.0
H1115 H 0.70047 0.07188 0.10936 0.0
H1116 H 0.72637 0.04454 0.11573 0.0
H1117 H 0.79087 0.06105 0.10479 0.0
H1118 H 0.86932 -0.00361 0.13204 0.0
H1119 H 0.84259 0.02285 0.12619 0.0
H1120 H 0.777 0.00723 0.14222 0.0
C1121 C 0.73143 0.06095 0.11531 0.0
C1122 C 0.78775 0.04937 0.113 0.0
C1123 C 0.71667 0.07655 0.11164 0.0
C1124 C 0.85275 0.99181 0.13221 0.0
C1125 C 0.8374 0.00695 0.12879 0.0
C1126 C 0.78013 0.01864 0.13385 0.0
C1127 C 0.75272 0.06641 0.11783 0.0
C1128 C 0.76868 0.04979 0.12072 0.0
C1129 C 0.81566 0.00179 0.12923 0.0
C1130 C 0.7993 0.01815 0.12613 0.0
H1131 H 0.74927 0.11975 0.11298 0.0
H1132 H 0.77513 0.0924 0.11919 0.0
H1133 H 0.75037 0.03432 0.13726 0.0
H1134 H 0.81997 0.9502 0.13963 0.0
H1135 H 0.79318 0.97632 0.13313 0.0
C1136 C 0.7451 0.38686 0.61445 0.0
C1137 C 0.72441 0.39271 0.61055 0.0
C1138 C 0.75997 0.40229 0.61826 0.0
C1139 C 0.77046 0.45989 0.61442 0.0
H1140 H 0.81398 0.44864 0.64266 0.0
C1141 C 0.82726 0.52381 0.63678 0.0
C1142 C 0.84886 0.51836 0.6373 0.0
C1143 C 0.81202 0.50861 0.63328 0.0
C1144 C 0.80199 0.4519 0.63468 0.0
H1145 H 0.7027 0.41911 0.60812 0.0
H1146 H 0.72837 0.44601 0.6153 0.0
H1147 H 0.78678 0.422 0.63797 0.0
H1148 H 0.87154 0.49287 0.63449 0.0
H1149 H 0.84477 0.46612 0.62856 0.0
H1150 H 0.7855 0.49006 0.61144 0.0
C1151 C 0.73339 0.4296 0.61499 0.0
C1152 C 0.78643 0.43664 0.63195 0.0
C1153 C 0.71861 0.41418 0.61099 0.0
C1154 C 0.855 0.49749 0.63411 0.0
C1155 C 0.83971 0.48219 0.63082 0.0
C1156 C 0.78585 0.47524 0.61729 0.0
C1157 C 0.75437 0.42389 0.61843 0.0
C1158 C 0.77052 0.44039 0.62173 0.0
C1159 C 0.81808 0.48761 0.63045 0.0
C1160 C 0.80182 0.47133 0.62738 0.0
H1161 H 0.75004 0.37041 0.61412 0.0
H1162 H 0.77602 0.39728 0.62063 0.0
H1163 H 0.75875 0.4632 0.60627 0.0
H1164 H 0.8221 0.5398 0.63919 0.0
H1165 H 0.79543 0.51314 0.63314 0.0
C1166 C 0.82921 0.47087 0.85911 0.0
C1167 C 0.85085 0.47578 0.85781 0.0
C1168 C 0.81455 0.4866 0.86259 0.0
C1169 C 0.80983 0.5411 0.87723 0.0
H1170 H 0.75483 0.53882 0.85867 0.0
C1171 C 0.74746 0.60827 0.88141 0.0
C1172 C 0.727 0.60152 0.88527 0.0
C1173 C 0.76295 0.59347 0.87757 0.0
C1174 C 0.7701 0.53959 0.86396 0.0
H1175 H 0.87425 0.50088 0.85931 0.0
H1176 H 0.84856 0.52858 0.86504 0.0
H1177 H 0.78142 0.512 0.85319 0.0
H1178 H 0.7065 0.57415 0.88784 0.0
H1179 H 0.73346 0.54834 0.88089 0.0
H1180 H 0.79843 0.56899 0.88781 0.0
C1181 C 0.84293 0.51249 0.86365 0.0
C1182 C 0.78531 0.52417 0.8609 0.0
C1183 C 0.85765 0.49665 0.86033 0.0
C1184 C 0.72215 0.57979 0.88491 0.0
C1185 C 0.73753 0.56504 0.88089 0.0
C1186 C 0.79466 0.55667 0.88016 0.0
C1187 C 0.82115 0.50769 0.86466 0.0
C1188 C 0.80528 0.52457 0.86763 0.0
C1189 C 0.75813 0.57172 0.87733 0.0
C1190 C 0.7746 0.55592 0.87367 0.0
H1191 H 0.82356 0.45486 0.85734 0.0
H1192 H 0.79801 0.4822 0.86363 0.0
H1193 H 0.82492 0.54177 0.88274 0.0
H1194 H 0.75163 0.62493 0.88163 0.0
H1195 H 0.77869 0.59901 0.87477 0.0
C1196 C 0.75433 0.59981 0.11862 0.0
C1197 C 0.77004 0.59515 0.10846 0.0
C1198 C 0.73955 0.58439 0.12261 0.0
C1199 C 0.71433 0.53558 0.10961 0.0
H1200 H 0.69808 0.52798 0.14917 0.0
C1201 C 0.64253 0.48449 0.127 0.0
C1202 C 0.64571 0.47116 0.1388 0.0
C1203 C 0.65792 0.49944 0.12321 0.0
C1204 C 0.70254 0.52986 0.13808 0.0
H1205 H 0.78288 0.57065 0.09473 0.0
H1206 H 0.75711 0.5437 0.10175 0.0
H1207 H 0.72512 0.55418 0.14299 0.0
H1208 H 0.66749 0.46287 0.15583 0.0
H1209 H 0.69432 0.48892 0.14921 0.0
H1210 H 0.69186 0.51114 0.10472 0.0
C1211 C 0.75609 0.55932 0.10651 0.0
C1212 C 0.71787 0.54497 0.13454 0.0
C1213 C 0.77092 0.5747 0.10256 0.0
C1214 C 0.66458 0.47296 0.14669 0.0
C1215 C 0.67989 0.48796 0.14296 0.0
C1216 C 0.69891 0.52055 0.11315 0.0
C1217 C 0.74015 0.56406 0.11648 0.0
C1218 C 0.72395 0.54796 0.12027 0.0
C1219 C 0.6767 0.50141 0.13122 0.0
C1220 C 0.6929 0.5175 0.12742 0.0
H1221 H 0.75326 0.61546 0.12332 0.0
H1222 H 0.72734 0.58854 0.13024 0.0
H1223 H 0.71854 0.53769 0.09851 0.0
H1224 H 0.62811 0.48345 0.12074 0.0
H1225 H 0.65497 0.50973 0.11418 0.0
C1226 C 0.75716 0.39097 0.37562 0.0
C1227 C 0.76998 0.39506 0.38756 0.0
C1228 C 0.74176 0.40562 0.37137 0.0
C1229 C 0.70961 0.45003 0.38501 0.0
H1230 H 0.7021 0.46373 0.34503 0.0
C1231 C 0.6405 0.5021 0.36467 0.0
C1232 C 0.64559 0.51737 0.35432 0.0
C1233 C 0.65539 0.4868 0.36867 0.0
C1234 C 0.70409 0.46013 0.35624 0.0
H1235 H 0.77693 0.41774 0.40431 0.0
H1236 H 0.75021 0.44333 0.39683 0.0
H1237 H 0.72897 0.43787 0.35205 0.0
H1238 H 0.67024 0.5287 0.34008 0.0
H1239 H 0.69628 0.50211 0.34714 0.0
H1240 H 0.68501 0.47256 0.38924 0.0
C1241 C 0.75184 0.42872 0.39086 0.0
C1242 C 0.71931 0.44517 0.36024 0.0
C1243 C 0.76724 0.41412 0.39509 0.0
C1244 C 0.66585 0.5171 0.34808 0.0
C1245 C 0.68071 0.50179 0.35204 0.0
C1246 C 0.69435 0.46493 0.38101 0.0
C1247 C 0.73886 0.42459 0.379 0.0
C1248 C 0.72233 0.44006 0.37468 0.0
C1249 C 0.67564 0.48645 0.36237 0.0
C1250 C 0.6915 0.47023 0.36659 0.0
H1251 H 0.7589 0.37638 0.36964 0.0
H1252 H 0.73187 0.40193 0.36225 0.0
H1253 H 0.7114 0.44624 0.39621 0.0
H1254 H 0.62497 0.50189 0.36962 0.0
H1255 H 0.65095 0.47505 0.37656 0.0
C1256 C 0.14448 0.48567 0.36816 0.0
C1257 C 0.14805 0.471 0.35716 0.0
C1258 C 0.1603 0.5001 0.37203 0.0
C1259 C 0.20736 0.52705 0.35782 0.0
H1260 H 0.2196 0.53894 0.39754 0.0
C1261 C 0.25817 0.5984 0.37642 0.0
C1262 C 0.27287 0.59449 0.38736 0.0
C1263 C 0.24359 0.58277 0.37242 0.0
C1264 C 0.21644 0.53569 0.3864 0.0
H1265 H 0.17102 0.45969 0.3417 0.0
H1266 H 0.19864 0.48493 0.34846 0.0
H1267 H 0.19299 0.51226 0.39145 0.0
H1268 H 0.28412 0.57109 0.40254 0.0
H1269 H 0.25867 0.54384 0.39556 0.0
H1270 H 0.23084 0.55047 0.35277 0.0
C1271 C 0.18357 0.48536 0.35402 0.0
C1272 C 0.20109 0.52057 0.38292 0.0
C1273 C 0.16782 0.47083 0.35022 0.0
C1274 C 0.27294 0.57458 0.39408 0.0
C1275 C 0.2583 0.55902 0.39015 0.0
C1276 C 0.2226 0.54229 0.36129 0.0
C1277 C 0.17992 0.50023 0.36489 0.0
C1278 C 0.19639 0.51609 0.3686 0.0
C1279 C 0.24336 0.56301 0.37937 0.0
C1280 C 0.22731 0.54675 0.37562 0.0
H1281 H 0.12938 0.48617 0.37367 0.0
H1282 H 0.15699 0.51151 0.38037 0.0
H1283 H 0.20392 0.52406 0.34668 0.0
H1284 H 0.25775 0.61362 0.37107 0.0
H1285 H 0.23215 0.58633 0.36414 0.0
C1286 C 0.24766 0.38665 0.11431 0.0
C1287 C 0.26866 0.39253 0.11121 0.0
C1288 C 0.23264 0.40202 0.11791 0.0
C1289 C 0.22611 0.45559 0.132 0.0
H1290 H 0.17348 0.45579 0.11053 0.0
C1291 C 0.16654 0.52432 0.1369 0.0
C1292 C 0.14484 0.51929 0.13676 0.0
C1293 C 0.18167 0.50896 0.13349 0.0
C1294 C 0.18793 0.45581 0.11679 0.0
H1295 H 0.29066 0.41891 0.10991 0.0
H1296 H 0.26444 0.44577 0.11651 0.0
H1297 H 0.19984 0.4283 0.10605 0.0
H1298 H 0.12185 0.4944 0.13285 0.0
H1299 H 0.14823 0.46736 0.12733 0.0
H1300 H 0.21414 0.48271 0.14301 0.0
C1301 C 0.25961 0.42929 0.11606 0.0
C1302 C 0.20304 0.44009 0.11418 0.0
C1303 C 0.27457 0.41395 0.11225 0.0
C1304 C 0.13849 0.49873 0.13294 0.0
C1305 C 0.15364 0.48327 0.12972 0.0
C1306 C 0.21089 0.47115 0.13476 0.0
C1307 C 0.23844 0.4235 0.11867 0.0
C1308 C 0.22228 0.43989 0.12172 0.0
C1309 C 0.17544 0.48815 0.13007 0.0
C1310 C 0.19163 0.47153 0.12714 0.0
H1311 H 0.24266 0.37024 0.11356 0.0
H1312 H 0.21644 0.39715 0.12001 0.0
H1313 H 0.24076 0.45564 0.13805 0.0
H1314 H 0.17186 0.54011 0.13972 0.0
H1315 H 0.19827 0.51345 0.13356 0.0
C1316 C 0.35491 0.50022 0.86182 0.0
C1317 C 0.34938 0.52106 0.85807 0.0
C1318 C 0.33916 0.48541 0.8651 0.0
C1319 C 0.28479 0.47953 0.87765 0.0
H1320 H 0.2859 0.42601 0.85729 0.0
C1321 C 0.21761 0.41816 0.88402 0.0
C1322 C 0.22356 0.39673 0.88453 0.0
C1323 C 0.23233 0.43367 0.88006 0.0
C1324 C 0.28548 0.44073 0.86323 0.0
H1325 H 0.32322 0.54301 0.85529 0.0
H1326 H 0.29569 0.51717 0.86138 0.0
H1327 H 0.31332 0.45242 0.85273 0.0
H1328 H 0.2494 0.37461 0.88118 0.0
H1329 H 0.27524 0.4016 0.87474 0.0
H1330 H 0.25742 0.46772 0.88852 0.0
C1331 C 0.31218 0.5123 0.86164 0.0
C1332 C 0.30117 0.45586 0.86056 0.0
C1333 C 0.3279 0.52703 0.85813 0.0
C1334 C 0.24434 0.39102 0.88078 0.0
C1335 C 0.25913 0.40652 0.87701 0.0
C1336 C 0.26927 0.46427 0.88048 0.0
C1337 C 0.31766 0.49129 0.86492 0.0
C1338 C 0.30098 0.47535 0.86777 0.0
C1339 C 0.25337 0.42808 0.87671 0.0
C1340 C 0.26945 0.44463 0.87333 0.0
H1341 H 0.37135 0.49519 0.86182 0.0
H1342 H 0.34377 0.46933 0.86773 0.0
H1343 H 0.28442 0.49442 0.8834 0.0
H1344 H 0.20163 0.42298 0.88679 0.0
H1345 H 0.22719 0.45005 0.87967 0.0
C1346 C 0.32862 0.46883 0.63556 0.0
C1347 C 0.35027 0.47404 0.63577 0.0
C1348 C 0.31348 0.48403 0.63189 0.0
C1349 C 0.30722 0.53717 0.61514 0.0
H1350 H 0.25363 0.53645 0.63551 0.0
C1351 C 0.24598 0.60523 0.61206 0.0
C1352 C 0.22518 0.5989 0.60875 0.0
C1353 C 0.26133 0.59016 0.61562 0.0
C1354 C 0.2685 0.53675 0.62971 0.0
H1355 H 0.37318 0.49912 0.63221 0.0
H1356 H 0.34676 0.52593 0.62624 0.0
H1357 H 0.2805 0.50985 0.64093 0.0
H1358 H 0.20392 0.57199 0.60691 0.0
H1359 H 0.23069 0.54565 0.61345 0.0
H1360 H 0.29524 0.5645 0.6042 0.0
C1361 C 0.34141 0.50998 0.62856 0.0
C1362 C 0.28386 0.52145 0.63273 0.0
C1363 C 0.35658 0.49465 0.63203 0.0
C1364 C 0.21984 0.5773 0.60942 0.0
C1365 C 0.23511 0.56226 0.61319 0.0
C1366 C 0.29195 0.55265 0.61227 0.0
C1367 C 0.31964 0.50491 0.62857 0.0
C1368 C 0.30338 0.52136 0.62541 0.0
C1369 C 0.25604 0.56853 0.61615 0.0
C1370 C 0.27242 0.55249 0.61947 0.0
H1371 H 0.32333 0.45299 0.6383 0.0
H1372 H 0.29694 0.47938 0.63169 0.0
H1373 H 0.32189 0.53742 0.60913 0.0
H1374 H 0.25054 0.62179 0.61159 0.0
H1375 H 0.27734 0.59538 0.61797 0.0
C1376 C 0.36331 0.12568 0.1281 0.0
C1377 C 0.365 0.11938 0.14241 0.0
C1378 C 0.35475 0.1454 0.12459 0.0
C1379 C 0.34529 0.19852 0.1395 0.0
H1380 H 0.31049 0.20526 0.10568 0.0
C1381 C 0.31152 0.2798 0.12235 0.0
C1382 C 0.31444 0.28489 0.1079 0.0
C1383 C 0.31511 0.25915 0.1272 0.0
C1384 C 0.32025 0.20362 0.11513 0.0
H1385 H 0.35875 0.12857 0.16428 0.0
H1386 H 0.34355 0.16305 0.15814 0.0
H1387 H 0.32139 0.16985 0.11316 0.0
H1388 H 0.32288 0.27234 0.08714 0.0
H1389 H 0.32915 0.23633 0.0956 0.0
H1390 H 0.34435 0.23234 0.14135 0.0
C1391 C 0.3491 0.15283 0.14964 0.0
C1392 C 0.32652 0.18336 0.1194 0.0
C1393 C 0.35771 0.13307 0.15316 0.0
C1394 C 0.32049 0.26887 0.09834 0.0
C1395 C 0.32396 0.24822 0.10317 0.0
C1396 C 0.33895 0.21879 0.13525 0.0
C1397 C 0.34763 0.15926 0.13531 0.0
C1398 C 0.33943 0.1806 0.13149 0.0
C1399 C 0.32155 0.24319 0.11768 0.0
C1400 C 0.32666 0.22157 0.12288 0.0
H1401 H 0.36885 0.11549 0.11959 0.0
H1402 H 0.35417 0.14999 0.11347 0.0
H1403 H 0.35544 0.19699 0.14876 0.0
H1404 H 0.30683 0.29184 0.12995 0.0
H1405 H 0.31294 0.25568 0.13842 0.0
C1406 C 0.11496 0.11585 0.37766 0.0
C1407 C 0.12189 0.11654 0.39188 0.0
C1408 C 0.09496 0.10777 0.3743 0.0
C1409 C 0.04221 0.09808 0.38971 0.0
H1410 H 0.03431 0.06464 0.35541 0.0
C1411 C 0.96002 0.06589 0.37228 0.0
C1412 C 0.95504 0.06908 0.35784 0.0
C1413 C 0.98069 0.06935 0.37723 0.0
C1414 C 0.03626 0.07403 0.36499 0.0
H1415 H 0.11346 0.10913 0.41373 0.0
H1416 H 0.07843 0.09485 0.40783 0.0
H1417 H 0.07003 0.07485 0.3627 0.0
H1418 H 0.96776 0.07808 0.33722 0.0
H1419 H 0.0037 0.08416 0.34583 0.0
H1420 H 0.00837 0.09751 0.39185 0.0
C1421 C 0.08842 0.10075 0.39931 0.0
C1422 C 0.05671 0.07989 0.36916 0.0
C1423 C 0.10849 0.10883 0.40268 0.0
C1424 C 0.97113 0.07547 0.34841 0.0
C1425 C 0.99176 0.07881 0.35333 0.0
C1426 C 0.02174 0.09217 0.38554 0.0
C1427 C 0.08142 0.10019 0.38507 0.0
C1428 C 0.05988 0.09233 0.38141 0.0
C1429 C -0.00325 0.0759 0.3678 0.0
C1430 C 0.01853 0.08043 0.37299 0.0
H1431 H 0.12491 0.12173 0.36912 0.0
H1432 H 0.08992 0.10789 0.36326 0.0
H1433 H 0.04411 0.10783 0.39912 0.0
H1434 H 0.94792 0.06094 0.37978 0.0
H1435 H 0.98412 0.06684 0.38842 0.0
C1436 C 0.13405 0.85697 0.65406 0.0
C1437 C 0.128 0.87137 0.64339 0.0
C1438 C 0.14236 0.83715 0.65043 0.0
C1439 C 0.16579 0.80703 0.62022 0.0
H1440 H 0.14577 0.75797 0.64123 0.0
C1441 C 0.1703 0.72182 0.59844 0.0
C1442 C 0.17622 0.70561 0.6079 0.0
C1443 C 0.16698 0.74241 0.6034 0.0
C1444 C 0.15175 0.77154 0.63539 0.0
H1445 H 0.12605 0.87646 0.62056 0.0
H1446 H 0.14007 0.84178 0.61421 0.0
H1447 H 0.13517 0.79339 0.6488 0.0
H1448 H 0.18363 0.69823 0.62993 0.0
H1449 H 0.17763 0.7343 0.63864 0.0
H1450 H 0.18181 0.78504 0.60655 0.0
C1451 C 0.13884 0.84587 0.62539 0.0
C1452 C 0.14571 0.79185 0.63974 0.0
C1453 C 0.13065 0.8657 0.62903 0.0
C1454 C 0.17906 0.71043 0.6224 0.0
C1455 C 0.17554 0.73102 0.62739 0.0
C1456 C 0.1717 0.78672 0.61583 0.0
C1457 C 0.14468 0.83129 0.63604 0.0
C1458 C 0.15242 0.80983 0.63208 0.0
C1459 C 0.16935 0.74718 0.61795 0.0
C1460 C 0.16451 0.76877 0.62326 0.0
H1461 H 0.13228 0.86098 0.66523 0.0
H1462 H 0.14696 0.82641 0.65889 0.0
H1463 H 0.17159 0.82055 0.61425 0.0
H1464 H 0.16802 0.71855 0.5872 0.0
H1465 H 0.16199 0.75449 0.59591 0.0
C1466 C 0.53085 0.93199 0.87159 0.0
C1467 C 0.53627 0.92698 0.85745 0.0
C1468 C 0.51019 0.92854 0.87655 0.0
C1469 C 0.45508 0.92074 0.8644 0.0
H1470 H 0.44797 0.8892 0.89957 0.0
C1471 C 0.37768 0.87724 0.87777 0.0
C1472 C 0.37066 0.87677 0.89197 0.0
C1473 C 0.39742 0.88587 0.87434 0.0
C1474 C 0.44962 0.89835 0.88987 0.0
H1475 H 0.5243 0.9149 0.83735 0.0
H1476 H 0.48831 0.90901 0.84598 0.0
H1477 H 0.4834 0.90034 0.89218 0.0
H1478 H 0.37865 0.88519 0.91372 0.0
H1479 H 0.41317 0.90055 0.90771 0.0
H1480 H 0.42141 0.91861 0.86197 0.0
C1481 C 0.49995 0.91566 0.85321 0.0
C1482 C 0.46993 0.90471 0.88563 0.0
C1483 C 0.52059 0.91891 0.8483 0.0
C1484 C 0.3837 0.88528 0.90268 0.0
C1485 C 0.40349 0.89399 0.89925 0.0
C1486 C 0.4348 0.9145 0.86866 0.0
C1487 C 0.49457 0.92026 0.86742 0.0
C1488 C 0.4729 0.91557 0.8727 0.0
C1489 C 0.41059 0.89433 0.88503 0.0
C1490 C 0.43187 0.90282 0.88128 0.0
H1491 H 0.54265 0.93823 0.87887 0.0
H1492 H 0.50643 0.93234 0.88753 0.0
H1493 H 0.45687 0.92941 0.8545 0.0
H1494 H 0.36801 0.87072 0.86928 0.0
H1495 H 0.40253 0.88551 0.86332 0.0
C1496 C 0.31579 0.71101 0.37514 0.0
C1497 C 0.32155 0.70447 0.38892 0.0
C1498 C 0.32101 0.73138 0.37032 0.0
C1499 C 0.359 0.77468 0.37754 0.0
H1500 H 0.32046 0.80918 0.35515 0.0
C1501 C 0.37473 0.86295 0.36756 0.0
C1502 C 0.3715 0.87073 0.3537 0.0
C1503 C 0.36803 0.8426 0.37126 0.0
C1504 C 0.33146 0.79962 0.36127 0.0
H1505 H 0.33659 0.71429 0.40865 0.0
H1506 H 0.34535 0.74977 0.40037 0.0
H1507 H 0.30949 0.77373 0.36283 0.0
H1508 H 0.35842 0.86345 0.33289 0.0
H1509 H 0.34665 0.8277 0.33938 0.0
H1510 H 0.38088 0.8005 0.37611 0.0
C1511 C 0.33723 0.73911 0.39314 0.0
C1512 C 0.32519 0.77933 0.36566 0.0
C1513 C 0.33208 0.71881 0.39792 0.0
C1514 C 0.36113 0.85785 0.34365 0.0
C1515 C 0.35431 0.83745 0.34738 0.0
C1516 C 0.36521 0.7949 0.3732 0.0
C1517 C 0.33209 0.74554 0.37922 0.0
C1518 C 0.33882 0.76675 0.37399 0.0
C1519 C 0.35789 0.82955 0.36119 0.0
C1520 C 0.35144 0.8077 0.36516 0.0
H1521 H 0.30768 0.70025 0.36796 0.0
H1522 H 0.31693 0.73581 0.35951 0.0
H1523 H 0.37008 0.7652 0.38365 0.0
H1524 H 0.3826 0.87253 0.37556 0.0
H1525 H 0.37071 0.83709 0.38205 0.0
C1526 C 0.3836 0.11352 0.59257 0.0
C1527 C 0.37037 0.12248 0.60302 0.0
C1528 C 0.40421 0.10704 0.59604 0.0
C1529 C 0.44646 0.11672 0.6223 0.0
H1530 H 0.4688 0.0624 0.61003 0.0
C1531 C 0.52257 0.08261 0.64646 0.0
C1532 C 0.53715 0.07277 0.63729 0.0
C1533 C 0.50239 0.08814 0.64161 0.0
C1534 C 0.46288 0.07773 0.61338 0.0
H1535 H 0.36819 0.13145 0.6253 0.0
H1536 H 0.40404 0.12017 0.63133 0.0
H1537 H 0.4332 0.07325 0.60259 0.0
H1538 H 0.54198 0.06063 0.61592 0.0
H1539 H 0.50665 0.07053 0.60735 0.0
H1540 H 0.47599 0.12132 0.63306 0.0
C1541 C 0.39862 0.11832 0.62044 0.0
C1542 C 0.44251 0.08393 0.60913 0.0
C1543 C 0.37804 0.12467 0.617 0.0
C1544 C 0.53102 0.06818 0.62323 0.0
C1545 C 0.51078 0.07378 0.61834 0.0
C1546 C 0.46679 0.11058 0.62649 0.0
C1547 C 0.41198 0.10957 0.60999 0.0
C1548 C 0.43399 0.10336 0.61373 0.0
C1549 C 0.49634 0.08406 0.62745 0.0
C1550 C 0.47513 0.09089 0.62227 0.0
H1551 H 0.37808 0.11164 0.58171 0.0
H1552 H 0.4142 0.10045 0.58776 0.0
H1553 H 0.4405 0.13198 0.62577 0.0
H1554 H 0.52678 0.08622 0.65739 0.0
H1555 H 0.49151 0.09563 0.649 0.0
C1556 C 0.13167 0.12831 0.86695 0.0
C1557 C 0.12876 0.12265 0.85261 0.0
C1558 C 0.14011 0.14807 0.87053 0.0
C1559 C 0.14745 0.202 0.85613 0.0
H1560 H 0.18431 0.20839 0.88898 0.0
C1561 C 0.18176 0.28313 0.87296 0.0
C1562 C 0.17914 0.28809 0.88746 0.0
C1563 C 0.17821 0.26249 0.86808 0.0
C1564 C 0.174 0.20683 0.87979 0.0
H1565 H 0.13278 0.13302 0.83074 0.0
H1566 H 0.14788 0.16746 0.83697 0.0
H1567 H 0.1734 0.173 0.88141 0.0
H1568 H 0.17142 0.2753 0.90828 0.0
H1569 H 0.16531 0.23925 0.89977 0.0
H1570 H 0.14797 0.23587 0.8546 0.0
C1571 C 0.1433 0.15677 0.84547 0.0
C1572 C 0.16769 0.18658 0.87548 0.0
C1573 C 0.13475 0.13701 0.84189 0.0
C1574 C 0.17354 0.27193 0.89705 0.0
C1575 C 0.17017 0.25127 0.89219 0.0
C1576 C 0.15388 0.22223 0.86039 0.0
C1577 C 0.14595 0.16259 0.85984 0.0
C1578 C 0.15405 0.18395 0.86374 0.0
C1579 C 0.17217 0.24641 0.87763 0.0
C1580 C 0.16693 0.22486 0.8724 0.0
H1581 H 0.12714 0.11758 0.87544 0.0
H1582 H 0.14158 0.15215 0.8817 0.0
H1583 H 0.13671 0.20059 0.84716 0.0
H1584 H 0.1861 0.29528 0.86534 0.0
H1585 H 0.18005 0.25913 0.85683 0.0
C1586 C 0.10727 0.88367 0.0915 0.0
C1587 C 0.12079 0.87532 0.102 0.0
C1588 C 0.08728 0.89159 0.09521 0.0
C1589 C 0.056 0.91054 0.1262 0.0
H1590 H 0.00741 0.89562 0.10287 0.0
C1591 C 0.97016 0.91507 0.14676 0.0
C1592 C 0.95445 0.92274 0.13749 0.0
C1593 C 0.99079 0.91162 0.14187 0.0
C1594 C 0.02086 0.90019 0.10938 0.0
H1595 H 0.12409 0.86878 0.12459 0.0
H1596 H 0.08922 0.88226 0.13102 0.0
H1597 H 0.04296 0.88524 0.09526 0.0
H1598 H 0.948 0.93307 0.11587 0.0
H1599 H 0.98416 0.92695 0.10728 0.0
H1600 H 0.03384 0.92501 0.14048 0.0
C1601 C 0.0941 0.88306 0.11996 0.0
C1602 C 0.04123 0.89426 0.10502 0.0
C1603 C 0.11405 0.87518 0.11626 0.0
C1604 C 0.95981 0.92713 0.12325 0.0
C1605 C 0.98045 0.92354 0.11832 0.0
C1606 C 0.03565 0.91638 0.13058 0.0
C1607 C 0.08045 0.89133 0.10949 0.0
C1608 C 0.059 0.89907 0.1135 0.0
C1609 C 0.99613 0.91566 0.12757 0.0
C1610 C 0.01784 0.91099 0.12233 0.0
H1611 H 0.11209 0.88403 0.08042 0.0
H1612 H 0.07722 0.89804 0.0869 0.0
H1613 H 0.06939 0.91487 0.13283 0.0
H1614 H 0.96649 0.91152 0.15779 0.0
H1615 H 0.00246 0.90528 0.14921 0.0
C1616 C 0.67769 0.71253 0.87246 0.0
C1617 C 0.67395 0.70698 0.88675 0.0
C1618 C 0.67336 0.73307 0.86765 0.0
C1619 C 0.66543 0.7879 0.88019 0.0
H1620 H 0.63286 0.79487 0.84542 0.0
C1621 C 0.6229 0.86581 0.86675 0.0
C1622 C 0.62268 0.87272 0.85253 0.0
C1623 C 0.63089 0.84586 0.87026 0.0
C1624 C 0.64226 0.79324 0.85503 0.0
H1625 H 0.66307 0.71858 0.90725 0.0
H1626 H 0.65556 0.75438 0.89887 0.0
H1627 H 0.64416 0.75949 0.85275 0.0
H1628 H 0.63074 0.86424 0.83079 0.0
H1629 H 0.64496 0.82934 0.83695 0.0
H1630 H 0.66344 0.82156 0.88256 0.0
C1631 C 0.66195 0.74294 0.8914 0.0
C1632 C 0.64871 0.77297 0.85923 0.0
C1633 C 0.66613 0.72241 0.89618 0.0
C1634 C 0.63066 0.85929 0.84185 0.0
C1635 C 0.63871 0.83929 0.84537 0.0
C1636 C 0.65907 0.80815 0.87597 0.0
C1637 C 0.66539 0.74846 0.87707 0.0
C1638 C 0.66006 0.77007 0.87198 0.0
C1639 C 0.63893 0.83236 0.85963 0.0
C1640 C 0.64709 0.81102 0.86347 0.0
H1641 H 0.68372 0.70094 0.86496 0.0
H1642 H 0.67631 0.73693 0.85657 0.0
H1643 H 0.67448 0.78619 0.88995 0.0
H1644 H 0.61678 0.87578 0.87521 0.0
H1645 H 0.63046 0.84088 0.88131 0.0
C1646 C 0.03221 0.92571 0.62547 0.0
C1647 C 0.03944 0.91708 0.6384 0.0
C1648 C 0.01217 0.9203 0.62015 0.0
C1649 C 0.9709 0.87879 0.62329 0.0
H1650 H 0.93347 0.92115 0.60697 0.0
C1651 C 0.88192 0.86387 0.61588 0.0
C1652 C 0.87253 0.87012 0.60297 0.0
C1653 C 0.9027 0.86979 0.61912 0.0
C1654 C 0.94387 0.90911 0.61134 0.0
H1655 H 0.03125 0.89639 0.65604 0.0
H1656 H 0.9963 0.88724 0.64692 0.0
H1657 H 0.96913 0.93134 0.61473 0.0
H1658 H 0.87741 0.8877 0.58338 0.0
H1659 H 0.91389 0.89824 0.58912 0.0
H1660 H 0.94559 0.85667 0.62016 0.0
C1661 C 0.0062 0.89784 0.64071 0.0
C1662 C 0.96428 0.91493 0.61577 0.0
C1663 C 0.02618 0.90321 0.646 0.0
C1664 C 0.88427 0.88265 0.59341 0.0
C1665 C 0.90508 0.88874 0.59671 0.0
C1666 C 0.95054 0.87302 0.61892 0.0
C1667 C -0.00099 0.90615 0.62767 0.0
C1668 C 0.97788 0.89989 0.62202 0.0
C1669 C 0.91454 0.8822 0.60955 0.0
C1670 C 0.93668 0.88818 0.61312 0.0
H1671 H 0.04214 0.93643 0.61938 0.0
H1672 H 0.00715 0.92686 0.61003 0.0
H1673 H 0.98116 0.8667 0.62773 0.0
H1674 H 0.87327 0.85424 0.62349 0.0
H1675 H 0.90944 0.86479 0.62919 0.0
C1676 C 0.84512 0.27982 0.38992 0.0
C1677 C 0.82559 0.28957 0.3869 0.0
C1678 C 0.84974 0.25972 0.38452 0.0
C1679 C 0.82508 0.21077 0.3721 0.0
H1680 H 0.88016 0.19999 0.35507 0.0
C1681 C 0.85983 0.12691 0.36409 0.0
C1682 C 0.86997 0.12266 0.35106 0.0
C1683 C 0.85297 0.14741 0.36733 0.0
C1684 C 0.86465 0.20281 0.35968 0.0
H1685 H 0.79549 0.28592 0.37597 0.0
H1686 H 0.80347 0.2505 0.36668 0.0
H1687 H 0.87105 0.23584 0.36284 0.0
H1688 H 0.88068 0.1364 0.33113 0.0
H1689 H 0.86892 0.17238 0.3369 0.0
H1690 H 0.81885 0.17764 0.36918 0.0
C1691 C 0.8152 0.25851 0.37319 0.0
C1692 C 0.85952 0.22326 0.36423 0.0
C1693 C 0.81068 0.27877 0.37846 0.0
C1694 C 0.87291 0.13924 0.34126 0.0
C1695 C 0.86627 0.15981 0.34457 0.0
C1696 C 0.83032 0.19025 0.3677 0.0
C1697 C 0.83482 0.24885 0.37612 0.0
C1698 C 0.83976 0.2274 0.3706 0.0
C1699 C 0.85633 0.16411 0.35767 0.0
C1700 C 0.85022 0.18605 0.36155 0.0
H1701 H 0.85694 0.28778 0.39639 0.0
H1702 H 0.86489 0.25255 0.38707 0.0
H1703 H 0.80979 0.21352 0.37705 0.0
H1704 H 0.85732 0.11443 0.37184 0.0
H1705 H 0.84554 0.15031 0.37756 0.0
C1706 C 0.6091 0.11108 0.09333 0.0
C1707 C 0.62072 0.12366 0.10292 0.0
C1708 C 0.58839 0.1047 0.09663 0.0
C1709 C 0.54287 0.11917 0.11926 0.0
H1710 H 0.52515 0.06076 0.11409 0.0
C1711 C 0.46766 0.08683 0.14575 0.0
C1712 C 0.45446 0.0734 0.13776 0.0
C1713 C 0.48766 0.09254 0.14065 0.0
C1714 C 0.52977 0.07719 0.11541 0.0
H1715 H 0.61986 0.13938 0.12348 0.0
H1716 H 0.58387 0.12828 0.12923 0.0
H1717 H 0.56061 0.07177 0.10646 0.0
H1718 H 0.45192 0.0551 0.11827 0.0
H1719 H 0.48697 0.06522 0.10927 0.0
H1720 H 0.5122 0.12465 0.12826 0.0
C1721 C 0.59062 0.12348 0.11911 0.0
C1722 C 0.55006 0.08348 0.11105 0.0
C1723 C 0.61129 0.12973 0.11585 0.0
C1724 C 0.4618 0.06547 0.12466 0.0
C1725 C 0.48187 0.0712 0.11954 0.0
C1726 C 0.52263 0.11291 0.12358 0.0
C1727 C 0.57891 0.11094 0.10954 0.0
C1728 C 0.55692 0.10447 0.11315 0.0
C1729 C 0.49492 0.085 0.12742 0.0
C1730 C 0.51596 0.09177 0.12193 0.0
H1731 H 0.616 0.10617 0.08328 0.0
H1732 H 0.5797 0.09514 0.08902 0.0
H1733 H 0.54755 0.13555 0.12075 0.0
H1734 H 0.4625 0.09311 0.15593 0.0
H1735 H 0.49748 0.10285 0.14712 0.0
C1736 C 0.6837 0.27902 0.62128 0.0
C1737 C 0.67966 0.28441 0.607 0.0
C1738 C 0.68014 0.25835 0.62611 0.0
C1739 C 0.67243 0.20316 0.61382 0.0
H1740 H 0.63972 0.19694 0.6486 0.0
C1741 C 0.62705 0.12679 0.62737 0.0
C1742 C 0.6265 0.11997 0.64161 0.0
C1743 C 0.6361 0.14628 0.62381 0.0
C1744 C 0.64917 0.19836 0.63901 0.0
H1745 H 0.66932 0.27235 0.5865 0.0
H1746 H 0.66306 0.23634 0.59492 0.0
H1747 H 0.65154 0.23206 0.64116 0.0
H1748 H 0.63521 0.12804 0.6633 0.0
H1749 H 0.65118 0.16215 0.65707 0.0
H1750 H 0.66976 0.16951 0.61153 0.0
C1751 C 0.66912 0.248 0.60237 0.0
C1752 C 0.65594 0.21848 0.63474 0.0
C1753 C 0.67257 0.26865 0.59756 0.0
C1754 C 0.63535 0.13294 0.65224 0.0
C1755 C 0.64441 0.15249 0.64868 0.0
C1756 C 0.6657 0.18304 0.6181 0.0
C1757 C 0.6726 0.24268 0.61673 0.0
C1758 C 0.6673 0.22113 0.62197 0.0
C1759 C 0.64483 0.15939 0.63442 0.0
C1760 C 0.65365 0.18046 0.63059 0.0
H1761 H 0.68922 0.29086 0.62879 0.0
H1762 H 0.68315 0.25466 0.63721 0.0
H1763 H 0.68147 0.20468 0.60405 0.0
H1764 H 0.62033 0.11714 0.61894 0.0
H1765 H 0.63584 0.15127 0.61276 0.0
C1766 C 0.47277 0.91695 0.34706 0.0
C1767 C 0.45736 0.92468 0.35655 0.0
C1768 C 0.4935 0.9133 0.3517 0.0
C1769 C 0.52404 0.90125 0.38388 0.0
H1770 H 0.57241 0.91499 0.36003 0.0
C1771 C 0.61019 0.88351 0.40142 0.0
C1772 C 0.62358 0.8749 0.39094 0.0
C1773 C 0.59034 0.89174 0.39771 0.0
C1774 C 0.55906 0.91091 0.36677 0.0
H1775 H 0.4516 0.93502 0.37825 0.0
H1776 H 0.48792 0.92858 0.38638 0.0
H1777 H 0.5369 0.92575 0.35264 0.0
H1778 H 0.6268 0.86827 0.36836 0.0
H1779 H 0.5921 0.88229 0.36191 0.0
H1780 H 0.54609 0.88595 0.39785 0.0
C1781 C 0.4839 0.92525 0.37538 0.0
C1782 C 0.53873 0.91711 0.36255 0.0
C1783 C 0.46316 0.92902 0.37071 0.0
C1784 C 0.61685 0.87486 0.37667 0.0
C1785 C 0.59701 0.88304 0.37296 0.0
C1786 C 0.54436 0.89497 0.38809 0.0
C1787 C 0.49924 0.91721 0.36593 0.0
C1788 C 0.52097 0.9121 0.37096 0.0
C1789 C 0.58348 0.89151 0.38344 0.0
C1790 C 0.56208 0.89947 0.37948 0.0
H1791 H 0.46875 0.91344 0.33608 0.0
H1792 H 0.50489 0.90686 0.34421 0.0
H1793 H 0.51063 0.89694 0.39051 0.0
H1794 H 0.61501 0.88382 0.41251 0.0
H1795 H 0.58041 0.89837 0.40601 0.0
C1796 C 0.82341 0.7206 0.09786 0.0
C1797 C 0.81508 0.70509 0.10703 0.0
C1798 C 0.82683 0.74123 0.10273 0.0
C1799 C 0.83747 0.77116 0.13532 0.0
H1800 H 0.82584 0.81979 0.11125 0.0
C1801 C 0.85719 0.85719 0.15261 0.0
C1802 C 0.86665 0.86996 0.14211 0.0
C1803 C 0.84851 0.83747 0.14901 0.0
C1804 C 0.8293 0.80636 0.11806 0.0
H1805 H 0.80343 0.69903 0.1284 0.0
H1806 H 0.80951 0.7352 0.13694 0.0
H1807 H 0.8145 0.78458 0.10366 0.0
H1808 H 0.87447 0.87217 0.11964 0.0
H1809 H 0.85967 0.83777 0.11341 0.0
H1810 H 0.85278 0.79286 0.14955 0.0
C1811 C 0.81346 0.73133 0.12601 0.0
C1812 C 0.82277 0.78622 0.11372 0.0
C1813 C 0.80988 0.71068 0.1211 0.0
C1814 C 0.86723 0.86271 0.12797 0.0
C1815 C 0.85859 0.84305 0.12438 0.0
C1816 C 0.84408 0.79133 0.13965 0.0
C1817 C 0.82211 0.74677 0.11689 0.0
C1818 C 0.82713 0.76836 0.12218 0.0
C1819 C 0.84911 0.8302 0.13484 0.0
C1820 C 0.84042 0.80909 0.13093 0.0
H1821 H 0.82757 0.71675 0.08696 0.0
H1822 H 0.83377 0.7527 0.09549 0.0
H1823 H 0.84124 0.75766 0.142 0.0
H1824 H 0.85646 0.86243 0.1636 0.0
H1825 H 0.84117 0.82801 0.1573 0.0
C1826 C 0.03456 0.06898 0.87169 0.0
C1827 C 0.04022 0.07431 0.85764 0.0
C1828 C 0.01399 0.07288 0.87666 0.0
C1829 C 0.9593 0.08119 0.86427 0.0
H1830 H 0.95117 0.11097 0.90003 0.0
C1831 C 0.88008 0.12062 0.87839 0.0
C1832 C 0.87305 0.12007 0.89258 0.0
C1833 C 0.90029 0.11333 0.87482 0.0
C1834 C 0.95312 0.10232 0.89014 0.0
H1835 H 0.02885 0.0877 0.83776 0.0
H1836 H 0.99297 0.09433 0.84639 0.0
H1837 H 0.98693 0.10094 0.89257 0.0
H1838 H 0.88157 0.11134 0.91419 0.0
H1839 H 0.91689 0.09824 0.90792 0.0
H1840 H 0.92562 0.08251 0.86176 0.0
C1841 C 0.00436 0.08709 0.85355 0.0
C1842 C 0.97361 0.09662 0.88587 0.0
C1843 C 0.02494 0.08341 0.84864 0.0
C1844 C 0.88661 0.112 0.90316 0.0
C1845 C 0.90686 0.1046 0.89957 0.0
C1846 C 0.93885 0.08673 0.86857 0.0
C1847 C -0.00131 0.08192 0.86761 0.0
C1848 C 0.97691 0.08635 0.87277 0.0
C1849 C 0.91393 0.10518 0.88535 0.0
C1850 C 0.93553 0.09774 0.88142 0.0
H1851 H 0.04605 0.06196 0.87886 0.0
H1852 H 0.00998 0.06865 0.88752 0.0
H1853 H 0.96137 0.07295 0.85423 0.0
H1854 H 0.87003 0.12686 0.87001 0.0
H1855 H 0.90535 0.11442 0.86381 0.0
C1856 C 0.82212 0.77072 0.59766 0.0
C1857 C 0.81597 0.78662 0.60729 0.0
C1858 C 0.82604 0.75012 0.60245 0.0
C1859 C 0.84251 0.7211 0.6343 0.0
H1860 H 0.82489 0.67169 0.61271 0.0
C1861 C 0.86217 0.63576 0.65259 0.0
C1862 C 0.86874 0.62164 0.64188 0.0
C1863 C 0.85375 0.65556 0.64899 0.0
C1864 C 0.83007 0.68534 0.6188 0.0
H1865 H 0.80862 0.79339 0.62941 0.0
H1866 H 0.81555 0.75733 0.63779 0.0
H1867 H 0.81327 0.70687 0.60523 0.0
H1868 H 0.8717 0.61713 0.61905 0.0
H1869 H 0.85744 0.65176 0.61279 0.0
H1870 H 0.85977 0.69969 0.64765 0.0
C1871 C 0.81743 0.76086 0.62656 0.0
C1872 C 0.82337 0.70546 0.61453 0.0
C1873 C 0.81336 0.78144 0.62175 0.0
C1874 C 0.8667 0.62766 0.62754 0.0
C1875 C 0.85837 0.64745 0.62395 0.0
C1876 C 0.84931 0.70098 0.63853 0.0
C1877 C 0.82402 0.74505 0.61697 0.0
C1878 C 0.82974 0.72357 0.62213 0.0
C1879 C 0.85179 0.66165 0.63462 0.0
C1880 C 0.8434 0.68288 0.63071 0.0
H1881 H 0.82426 0.77426 0.58645 0.0
H1882 H 0.8313 0.73833 0.59483 0.0
H1883 H 0.84788 0.7348 0.64026 0.0
H1884 H 0.86347 0.63148 0.66374 0.0
H1885 H 0.84862 0.66603 0.65747 0.0
C1886 C 0.61696 0.61843 0.87676 0.0
C1887 C 0.62406 0.6183 0.89095 0.0
C1888 C 0.59721 0.60991 0.87322 0.0
C1889 C 0.54508 0.59697 0.88857 0.0
H1890 H 0.53789 0.56614 0.85311 0.0
C1891 C 0.46387 0.56322 0.87065 0.0
C1892 C 0.45837 0.56765 0.85645 0.0
C1893 C 0.48456 0.56684 0.8755 0.0
C1894 C 0.53965 0.57478 0.86303 0.0
H1895 H 0.61618 0.60898 0.91256 0.0
H1896 H 0.58162 0.59391 0.90635 0.0
H1897 H 0.57331 0.57716 0.86054 0.0
H1898 H 0.47023 0.5789 0.8361 0.0
H1899 H 0.50624 0.58522 0.84453 0.0
H1900 H 0.51134 0.59483 0.89093 0.0
C1901 C 0.59127 0.6008 0.89799 0.0
C1902 C 0.55992 0.58112 0.86727 0.0
C1903 C 0.61108 0.60934 0.90153 0.0
C1904 C 0.47401 0.57532 0.84711 0.0
C1905 C 0.49467 0.57881 0.85192 0.0
C1906 C 0.52479 0.59057 0.88433 0.0
C1907 C 0.58411 0.60103 0.88379 0.0
C1908 C 0.56282 0.59264 0.87996 0.0
C1909 C 0.50014 0.5748 0.86619 0.0
C1910 C 0.52182 0.57976 0.87138 0.0
H1911 H 0.6266 0.62528 0.86837 0.0
H1912 H 0.59204 0.61067 0.86222 0.0
H1913 H 0.54675 0.606 0.89833 0.0
H1914 H 0.45213 0.55727 0.87808 0.0
H1915 H 0.48836 0.56344 0.88653 0.0
C1916 C 0.63724 0.35753 0.15377 0.0
C1917 C 0.63006 0.37097 0.14284 0.0
C1918 C 0.64661 0.33803 0.15048 0.0
C1919 C 0.67106 0.30778 0.12075 0.0
H1920 H 0.65211 0.25858 0.14205 0.0
C1921 C 0.67542 0.22274 0.0989 0.0
C1922 C 0.68071 0.20626 0.10831 0.0
C1923 C 0.67276 0.24339 0.10394 0.0
C1924 C 0.65786 0.2722 0.13615 0.0
H1925 H 0.62735 0.37477 0.11993 0.0
H1926 H 0.64334 0.34073 0.1142 0.0
H1927 H 0.64093 0.29387 0.14949 0.0
H1928 H 0.68794 0.1985 0.1303 0.0
H1929 H 0.68319 0.23467 0.13914 0.0
H1930 H 0.68742 0.28597 0.10713 0.0
C1931 C 0.64208 0.3453 0.1253 0.0
C1932 C 0.65147 0.29243 0.14042 0.0
C1933 C 0.63275 0.36475 0.12859 0.0
C1934 C 0.68381 0.2109 0.12281 0.0
C1935 C 0.68101 0.23156 0.12788 0.0
C1936 C 0.67738 0.28755 0.11645 0.0
C1937 C 0.64898 0.33164 0.1362 0.0
C1938 C 0.65764 0.31041 0.13259 0.0
C1939 C 0.67522 0.24796 0.11851 0.0
C1940 C 0.6705 0.26952 0.12394 0.0
H1941 H 0.63545 0.36198 0.16486 0.0
H1942 H 0.65196 0.32796 0.15911 0.0
H1943 H 0.67644 0.32135 0.11465 0.0
H1944 H 0.67295 0.21963 0.08766 0.0
H1945 H 0.66805 0.25565 0.09649 0.0
C1946 C 0.88406 0.38902 0.40221 0.0
C1947 C 0.8707 0.38067 0.39162 0.0
C1948 C 0.90371 0.39784 0.39858 0.0
C1949 C 0.93483 0.41816 0.36776 0.0
H1950 H 0.98337 0.40304 0.39107 0.0
C1951 C 0.02083 0.421 0.34733 0.0
C1952 C 0.03669 0.42851 0.35656 0.0
C1953 C 6e-05 0.41831 0.35217 0.0
C1954 C 0.96993 0.40768 0.38458 0.0
H1955 H 0.86724 0.37524 0.36891 0.0
H1956 H 0.90159 0.39017 0.36259 0.0
H1957 H 0.94785 0.3925 0.39857 0.0
H1958 H 0.04322 0.43947 0.37803 0.0
H1959 H 0.00681 0.43458 0.38655 0.0
H1960 H 0.95708 0.4327 0.35353 0.0
C1961 C 0.89682 0.39032 0.37368 0.0
C1962 C 0.94956 0.40167 0.38888 0.0
C1963 C 0.87718 0.38161 0.37731 0.0
C1964 C 0.0313 0.43364 0.37068 0.0
C1965 C 0.01052 0.43076 0.37557 0.0
C1966 C 0.95521 0.42404 0.36342 0.0
C1967 C 0.9104 0.39841 0.38427 0.0
C1968 C 0.9318 0.40651 0.38039 0.0
C1969 C 0.99473 0.42293 0.36638 0.0
C1970 C 0.97299 0.41856 0.37167 0.0
H1971 H 0.87942 0.3886 0.41333 0.0
H1972 H 0.91366 0.40416 0.40697 0.0
H1973 H 0.92146 0.42252 0.36112 0.0
H1974 H 0.02452 0.41694 0.33638 0.0
H1975 H 0.9883 0.41201 0.34489 0.0
C1976 C 0.86595 0.36484 0.86712 0.0
C1977 C 0.86728 0.37107 0.85278 0.0
C1978 C 0.85788 0.34496 0.87077 0.0
C1979 C 0.84836 0.29156 0.85598 0.0
H1980 H 0.81521 0.28466 0.89052 0.0
C1981 C 0.81429 0.21053 0.8739 0.0
C1982 C 0.81848 0.20526 0.88818 0.0
C1983 C 0.81794 0.23112 0.86894 0.0
C1984 C 0.82448 0.28636 0.88086 0.0
H1985 H 0.86094 0.36153 0.83099 0.0
H1986 H 0.84647 0.32683 0.83736 0.0
H1987 H 0.82563 0.32011 0.88284 0.0
H1988 H 0.82928 0.21744 0.90854 0.0
H1989 H 0.8355 0.2534 0.89992 0.0
H1990 H 0.84721 0.25772 0.85408 0.0
C1991 C 0.85199 0.3372 0.84579 0.0
C1992 C 0.83052 0.30664 0.87647 0.0
C1993 C 0.86018 0.3571 0.84214 0.0
C1994 C 0.82591 0.22104 0.89748 0.0
C1995 C 0.82936 0.24165 0.89257 0.0
C1996 C 0.84217 0.27127 0.86031 0.0
C1997 C 0.85083 0.33086 0.86015 0.0
C1998 C 0.84288 0.30946 0.86413 0.0
C1999 C 0.82561 0.24685 0.87822 0.0
C2000 C 0.8305 0.26845 0.87293 0.0
H2001 H 0.87138 0.37524 0.87556 0.0
H2002 H 0.8576 0.34048 0.88191 0.0
H2003 H 0.85808 0.29311 0.84651 0.0
H2004 H 0.80855 0.19865 0.86649 0.0
H2005 H 0.8148 0.23475 0.85785 0.0
C2006 C 0.02378 0.58313 0.14664 0.0
C2007 C 0.03838 0.57323 0.13751 0.0
C2008 C 0.00355 0.58846 0.1418 0.0
C2009 C 0.96401 0.57731 0.1137 0.0
H2010 H 0.94126 0.6316 0.12569 0.0
C2011 C 0.88452 0.61221 0.0926 0.0
C2012 C 0.8712 0.62118 0.103 0.0
C2013 C 0.90519 0.60597 0.09612 0.0
C2014 C 0.94733 0.61632 0.12234 0.0
H2015 H 0.04317 0.56079 0.11621 0.0
H2016 H 0.00775 0.57033 0.10766 0.0
H2017 H 0.97682 0.62129 0.13306 0.0
H2018 H 0.86892 0.63043 0.12521 0.0
H2019 H 0.90486 0.61956 0.13133 0.0
H2020 H 0.93437 0.57246 0.10294 0.0
C2021 C 0.01191 0.57378 0.11862 0.0
C2022 C 0.96769 0.61039 0.12658 0.0
C2023 C 0.0322 0.56839 0.12349 0.0
C2024 C 0.87884 0.62363 0.11696 0.0
C2025 C 0.89947 0.61752 0.12045 0.0
C2026 C 0.9436 0.5833 0.1094 0.0
C2027 C -0.00255 0.58411 0.12769 0.0
C2028 C 0.97617 0.59069 0.1225 0.0
C2029 C 0.91291 0.60874 0.11006 0.0
C2030 C 0.93496 0.60275 0.11386 0.0
H2031 H 0.02804 0.58695 0.15754 0.0
H2032 H 0.99265 0.596 0.14916 0.0
H2033 H 0.97003 0.56196 0.11046 0.0
H2034 H 0.87903 0.61013 0.08175 0.0
H2035 H 0.91525 0.59935 0.08788 0.0
C2036 C 0.63869 0.62471 0.36175 0.0
C2037 C 0.62712 0.62116 0.34917 0.0
C2038 C 0.64581 0.64506 0.36518 0.0
C2039 C 0.63191 0.70029 0.36028 0.0
H2040 H 0.68885 0.71205 0.37397 0.0
C2041 C 0.65367 0.77564 0.39171 0.0
C2042 C 0.67152 0.78694 0.38692 0.0
C2043 C 0.64913 0.75557 0.38624 0.0
C2044 C 0.67294 0.70898 0.37009 0.0
H2045 H 0.61424 0.63595 0.33018 0.0
H2046 H 0.62636 0.67167 0.33634 0.0
H2047 H 0.67982 0.67635 0.36555 0.0
H2048 H 0.69882 0.78603 0.37286 0.0
H2049 H 0.69109 0.75056 0.36351 0.0
H2050 H 0.62486 0.73272 0.36515 0.0
C2051 C 0.62998 0.65866 0.34348 0.0
C2052 C 0.66776 0.6886 0.36535 0.0
C2053 C 0.62313 0.63825 0.33995 0.0
C2054 C 0.68494 0.77766 0.37672 0.0
C2055 C 0.68058 0.75739 0.37141 0.0
C2056 C 0.63699 0.72055 0.36522 0.0
C2057 C 0.64122 0.66227 0.35619 0.0
C2058 C 0.64717 0.68406 0.36047 0.0
C2059 C 0.66252 0.74627 0.37603 0.0
C2060 C 0.6575 0.72503 0.37025 0.0
H2061 H 0.64202 0.6118 0.36904 0.0
H2062 H 0.65431 0.64746 0.37509 0.0
H2063 H 0.61587 0.69715 0.35668 0.0
H2064 H 0.64303 0.78244 0.39954 0.0
H2065 H 0.63522 0.74721 0.39007 0.0
C2066 C 0.61027 0.37928 0.59268 0.0
C2067 C 0.62253 0.36811 0.60269 0.0
C2068 C 0.58959 0.38569 0.59605 0.0
C2069 C 0.54539 0.37319 0.62041 0.0
H2070 H 0.5258 0.43007 0.61181 0.0
C2071 C 0.46997 0.40702 0.6458 0.0
C2072 C 0.45611 0.4187 0.63711 0.0
C2073 C 0.49003 0.40124 0.64086 0.0
C2074 C 0.53095 0.41405 0.61412 0.0
H2075 H 0.62286 0.355 0.62407 0.0
H2076 H 0.58696 0.3662 0.62994 0.0
H2077 H 0.56129 0.41901 0.6043 0.0
H2078 H 0.45248 0.43383 0.61649 0.0
H2079 H 0.48763 0.42361 0.60778 0.0
H2080 H 0.51522 0.36819 0.63027 0.0
C2081 C 0.59316 0.36984 0.61945 0.0
C2082 C 0.55126 0.40772 0.60982 0.0
C2083 C 0.61379 0.36354 0.61612 0.0
C2084 C 0.46286 0.42484 0.62344 0.0
C2085 C 0.48299 0.41906 0.61847 0.0
C2086 C 0.52515 0.37949 0.62468 0.0
C2087 C 0.58079 0.3809 0.60945 0.0
C2088 C 0.55879 0.38732 0.61312 0.0
C2089 C 0.4967 0.40698 0.62709 0.0
C2090 C 0.5178 0.40009 0.62178 0.0
H2091 H 0.61662 0.38302 0.58225 0.0
H2092 H 0.58038 0.39409 0.5881 0.0
H2093 H 0.55057 0.35722 0.62284 0.0
H2094 H 0.46526 0.40214 0.65642 0.0
H2095 H 0.50035 0.39229 0.64786 0.0
C2096 C 0.11881 0.36349 0.36656 0.0
C2097 C 0.12033 0.37071 0.35244 0.0
C2098 C 0.12514 0.34297 0.37013 0.0
C2099 C 0.15858 0.2985 0.35854 0.0
H2100 H 0.12254 0.2661 0.38403 0.0
C2101 C 0.17431 0.21026 0.37302 0.0
C2102 C 0.17052 0.20438 0.38725 0.0
C2103 C 0.16867 0.23048 0.36817 0.0
C2104 C 0.13292 0.27501 0.37704 0.0
H2105 H 0.12987 0.36221 0.33098 0.0
H2106 H 0.141 0.32618 0.33725 0.0
H2107 H 0.11166 0.30142 0.37658 0.0
H2108 H 0.15852 0.2152 0.40765 0.0
H2109 H 0.14907 0.25048 0.3993 0.0
H2110 H 0.17996 0.27209 0.35915 0.0
C2111 C 0.13497 0.33649 0.34555 0.0
C2112 C 0.12665 0.29523 0.37274 0.0
C2113 C 0.12852 0.35705 0.34196 0.0
C2114 C 0.16149 0.21922 0.3966 0.0
C2115 C 0.15594 0.23939 0.39179 0.0
C2116 C 0.16491 0.27823 0.36289 0.0
C2117 C 0.13319 0.32921 0.35967 0.0
C2118 C 0.13951 0.30731 0.36359 0.0
C2119 C 0.15918 0.24518 0.37747 0.0
C2120 C 0.15225 0.26636 0.37232 0.0
H2121 H 0.11263 0.37367 0.37489 0.0
H2122 H 0.12387 0.33793 0.38114 0.0
H2123 H 0.16889 0.30751 0.35156 0.0
H2124 H 0.18121 0.1991 0.36557 0.0
H2125 H 0.17125 0.2344 0.35707 0.0
C2126 C 0.38165 0.36145 0.11498 0.0
C2127 C 0.37162 0.36807 0.10238 0.0
C2128 C 0.40257 0.36733 0.11782 0.0
C2129 C 0.44314 0.40709 0.10976 0.0
H2130 H 0.48138 0.36436 0.12474 0.0
C2131 C 0.53168 0.42409 0.12329 0.0
C2132 C 0.53908 0.41516 0.13608 0.0
C2133 C 0.51167 0.41857 0.11794 0.0
C2134 C 0.47086 0.37653 0.12067 0.0
H2135 H 0.37549 0.38624 0.08292 0.0
H2136 H 0.41221 0.39672 0.08799 0.0
H2137 H 0.44559 0.35434 0.11762 0.0
H2138 H 0.53127 0.39377 0.15342 0.0
H2139 H 0.49644 0.38442 0.14425 0.0
H2140 H 0.46834 0.42938 0.11312 0.0
C2141 C 0.4038 0.38695 0.09563 0.0
C2142 C 0.45038 0.37076 0.11657 0.0
C2143 C 0.38286 0.3809 0.09272 0.0
C2144 C 0.52606 0.40084 0.14349 0.0
C2145 C 0.50614 0.39535 0.13817 0.0
C2146 C 0.46367 0.4129 0.11392 0.0
C2147 C 0.4139 0.38006 0.10817 0.0
C2148 C 0.43617 0.38604 0.11133 0.0
C2149 C 0.49876 0.404 0.12528 0.0
C2150 C 0.47761 0.39773 0.11969 0.0
H2151 H 0.37339 0.35158 0.12264 0.0
H2152 H 0.40983 0.36204 0.12767 0.0
H2153 H 0.43247 0.41921 0.10581 0.0
H2154 H 0.54141 0.43516 0.11735 0.0
H2155 H 0.50647 0.42542 0.10794 0.0
C2156 C 0.31553 0.78142 0.87322 0.0
C2157 C 0.32137 0.78755 0.88708 0.0
C2158 C 0.31979 0.76088 0.86837 0.0
C2159 C 0.33138 0.70678 0.88106 0.0
H2160 H 0.35865 0.69936 0.84433 0.0
C2161 C 0.3742 0.62969 0.86621 0.0
C2162 C 0.37241 0.62206 0.8522 0.0
C2163 C 0.3662 0.64959 0.86984 0.0
C2164 C 0.35073 0.70111 0.85451 0.0
H2165 H 0.33594 0.77699 0.90679 0.0
H2166 H 0.34329 0.74121 0.89836 0.0
H2167 H 0.34735 0.73469 0.85182 0.0
H2168 H 0.36083 0.62925 0.83098 0.0
H2169 H 0.34662 0.66407 0.83737 0.0
H2170 H 0.33485 0.67332 0.88384 0.0
C2171 C 0.33533 0.75218 0.89126 0.0
C2172 C 0.34428 0.72134 0.85879 0.0
C2173 C 0.33124 0.77271 0.89606 0.0
C2174 C 0.36247 0.63476 0.84186 0.0
C2175 C 0.35442 0.65472 0.84551 0.0
C2176 C 0.33774 0.68657 0.87676 0.0
C2177 C 0.32976 0.74606 0.87735 0.0
C2178 C 0.33489 0.72442 0.87223 0.0
C2179 C 0.35615 0.66232 0.85956 0.0
C2180 C 0.34786 0.68355 0.86355 0.0
H2181 H 0.30791 0.79256 0.86608 0.0
H2182 H 0.3152 0.75654 0.85763 0.0
H2183 H 0.32383 0.70862 0.89136 0.0
H2184 H 0.38186 0.6203 0.8744 0.0
H2185 H 0.36818 0.65511 0.8807 0.0
C2186 C 0.96107 0.56603 0.62336 0.0
C2187 C 0.95516 0.57148 0.63733 0.0
C2188 C 0.98173 0.56989 0.61854 0.0
C2189 C 0.03624 0.57942 0.63139 0.0
H2190 H 0.04464 0.60728 0.59496 0.0
C2191 C 0.1145 0.62075 0.6171 0.0
C2192 C 0.12214 0.61916 0.60308 0.0
C2193 C 0.09444 0.61299 0.62063 0.0
C2194 C 0.0426 0.59918 0.60506 0.0
H2195 H 0.96622 0.58503 0.65724 0.0
H2196 H 0.00218 0.59174 0.64885 0.0
H2197 H 0.00891 0.59691 0.6023 0.0
H2198 H 0.11483 0.6081 0.58175 0.0
H2199 H 0.07971 0.59432 0.58796 0.0
H2200 H 0.06982 0.58184 0.63426 0.0
C2201 C 0.99095 0.58435 0.64165 0.0
C2202 C 0.02214 0.59326 0.60926 0.0
C2203 C 0.97031 0.58064 0.64642 0.0
C2204 C 0.10932 0.60957 0.59265 0.0
C2205 C 0.0892 0.60178 0.59619 0.0
C2206 C 0.05667 0.58526 0.62718 0.0
C2207 C -0.00312 0.57909 0.62765 0.0
C2208 C 0.01872 0.58368 0.62259 0.0
C2209 C 0.08154 0.6034 0.61023 0.0
C2210 C 0.06005 0.59558 0.61409 0.0
H2211 H 0.9497 0.55895 0.61612 0.0
H2212 H 0.9859 0.56556 0.60772 0.0
H2213 H 0.03413 0.5717 0.64161 0.0
H2214 H 0.12397 0.62813 0.62536 0.0
H2215 H 0.08889 0.61485 0.63149 0.0
C2216 C 0.13578 0.63458 0.15164 0.0
C2217 C 0.12646 0.62156 0.14122 0.0
C2218 C 0.14399 0.65445 0.14796 0.0
C2219 C 0.16157 0.68623 0.1168 0.0
H2220 H 0.14911 0.73437 0.14113 0.0
C2221 C 0.16483 0.77234 0.09697 0.0
C2222 C 0.17366 0.78776 0.106 0.0
C2223 C 0.16169 0.75166 0.10182 0.0
C2224 C 0.15299 0.72103 0.13433 0.0
H2225 H 0.11848 0.61905 0.1188 0.0
H2226 H 0.13242 0.65374 0.11242 0.0
H2227 H 0.13875 0.69881 0.14868 0.0
H2228 H 0.18634 0.79365 0.12712 0.0
H2229 H 0.18068 0.75739 0.13566 0.0
H2230 H 0.17525 0.70857 0.10227 0.0
C2231 C 0.13379 0.64853 0.12338 0.0
C2232 C 0.14708 0.70066 0.13866 0.0
C2233 C 0.12564 0.62869 0.12706 0.0
C2234 C 0.17949 0.78206 0.11994 0.0
C2235 C 0.17618 0.76137 0.12484 0.0
C2236 C 0.16737 0.7066 0.11245 0.0
C2237 C 0.14302 0.66168 0.13378 0.0
C2238 C 0.15097 0.68307 0.12982 0.0
C2239 C 0.16719 0.74599 0.11583 0.0
C2240 C 0.16282 0.72424 0.12106 0.0
H2241 H 0.13669 0.62944 0.16265 0.0
H2242 H 0.15119 0.66411 0.15619 0.0
H2243 H 0.16521 0.67298 0.10988 0.0
H2244 H 0.16018 0.77627 0.08617 0.0
H2245 H 0.15448 0.74022 0.09469 0.0
C2246 C 0.11264 0.36558 0.87862 0.0
C2247 C 0.12133 0.37041 0.89202 0.0
C2248 C 0.09183 0.3713 0.87535 0.0
C2249 C 0.04917 0.40823 0.88486 0.0
H2250 H 0.01377 0.36743 0.86503 0.0
C2251 C 0.96066 0.4239 0.87103 0.0
C2252 C 0.95397 0.41724 0.85746 0.0
C2253 C 0.98079 0.41835 0.87612 0.0
C2254 C 0.02351 0.37908 0.87045 0.0
H2255 H 0.11516 0.38521 0.91246 0.0
H2256 H 0.07862 0.39534 0.90669 0.0
H2257 H 0.04943 0.3574 0.87242 0.0
H2258 H 0.96317 0.3999 0.83848 0.0
H2259 H -0.00174 0.39048 0.84723 0.0
H2260 H 0.02329 0.43003 0.88267 0.0
C2261 C 0.088 0.38715 0.89873 0.0
C2262 C 0.04392 0.37331 0.8747 0.0
C2263 C 0.10885 0.38128 0.90205 0.0
C2264 C 0.96784 0.40517 0.84902 0.0
C2265 C 0.9879 0.39965 0.85408 0.0
C2266 C 0.02872 0.41404 0.88055 0.0
C2267 C 0.07925 0.38207 0.88537 0.0
C2268 C 0.05709 0.38791 0.88176 0.0
C2269 C 0.99456 0.406 0.86773 0.0
C2270 C 0.01579 0.39961 0.87311 0.0
H2271 H 0.12188 0.35725 0.87066 0.0
H2272 H 0.08563 0.36746 0.86489 0.0
H2273 H 0.05903 0.41985 0.8902 0.0
H2274 H 0.95027 0.43319 0.87778 0.0
H2275 H 0.9854 0.42336 0.88672 0.0
C2276 C 0.31002 0.213 0.621 0.0
C2277 C 0.31494 0.20731 0.6069 0.0
C2278 C 0.31364 0.23369 0.6258 0.0
C2279 C 0.32248 0.28853 0.61331 0.0
H2280 H 0.35336 0.2954 0.64878 0.0
C2281 C 0.36689 0.36533 0.62711 0.0
C2282 C 0.36696 0.37237 0.6413 0.0
C2283 C 0.35806 0.34573 0.62356 0.0
C2284 C 0.3444 0.29382 0.63898 0.0
H2285 H 0.32699 0.21884 0.58668 0.0
H2286 H 0.33327 0.25489 0.59503 0.0
H2287 H 0.34183 0.26014 0.64139 0.0
H2288 H 0.35762 0.36457 0.66292 0.0
H2289 H 0.34198 0.33031 0.65671 0.0
H2290 H 0.32526 0.32212 0.61078 0.0
C2291 C 0.32652 0.24345 0.60236 0.0
C2292 C 0.33781 0.27361 0.63475 0.0
C2293 C 0.32305 0.22277 0.5976 0.0
C2294 C 0.35785 0.3595 0.65189 0.0
C2295 C 0.34898 0.33986 0.64834 0.0
C2296 C 0.32898 0.30873 0.61756 0.0
C2297 C 0.32207 0.24908 0.61655 0.0
C2298 C 0.32715 0.27071 0.62173 0.0
C2299 C 0.34905 0.33273 0.63413 0.0
C2300 C 0.3404 0.31156 0.6303 0.0
H2301 H 0.30373 0.20139 0.62839 0.0
H2302 H 0.30992 0.23763 0.63676 0.0
H2303 H 0.31397 0.28682 0.60334 0.0
H2304 H 0.37384 0.37488 0.61871 0.0
H2305 H 0.35872 0.34058 0.61256 0.0
C2306 C 0.53491 0.56827 0.37139 0.0
C2307 C 0.53999 0.57206 0.35702 0.0
C2308 C 0.51483 0.57361 0.37668 0.0
C2309 C 0.46945 0.60869 0.36868 0.0
H2310 H 0.4378 0.57185 0.39408 0.0
C2311 C 0.38072 0.62054 0.3787 0.0
C2312 C 0.37349 0.61943 0.39283 0.0
C2313 C 0.40135 0.61442 0.37526 0.0
C2314 C 0.44659 0.58239 0.38712 0.0
H2315 H 0.52791 0.58377 0.33685 0.0
H2316 H 0.49297 0.59273 0.34598 0.0
H2317 H 0.47347 0.56158 0.38635 0.0
H2318 H 0.38198 0.6106 0.41443 0.0
H2319 H 0.41824 0.59976 0.40838 0.0
H2320 H 0.44257 0.62934 0.36925 0.0
C2321 C 0.50454 0.58609 0.35326 0.0
C2322 C 0.46699 0.57653 0.38271 0.0
C2323 C 0.52453 0.58081 0.348 0.0
C2324 C 0.38717 0.61165 0.40345 0.0
C2325 C 0.40785 0.60537 0.39998 0.0
C2326 C 0.44912 0.61448 0.37304 0.0
C2327 C 0.49953 0.58285 0.3677 0.0
C2328 C 0.47848 0.58948 0.37324 0.0
C2329 C 0.41521 0.60696 0.38587 0.0
C2330 C 0.43733 0.60125 0.38211 0.0
H2331 H 0.54656 0.56155 0.37858 0.0
H2332 H 0.51147 0.57101 0.38787 0.0
H2333 H 0.47809 0.61928 0.36167 0.0
H2334 H 0.37052 0.62639 0.37027 0.0
H2335 H 0.40647 0.61549 0.36426 0.0
loop_
_geom_bond_atom_site_label_1
_geom_bond_atom_site_label_2
_geom_bond_distance
_geom_bond_site_symmetry_2
_ccdc_geom_bond_type
In0 O1 2.294 . S
In0 O2 2.326 . S
In0 O6 2.266 . S
In0 O7 2.326 . S
In0 O8 2.266 . S
In0 O9 2.326 . S
In0 O11 2.294 . S
In0 O12 2.326 . S
O1 In0 2.294 . S
O1 C10 1.240 . S
O2 In0 2.326 . S
O2 C10 1.252 . S
C3 O6 1.252 . S
C3 O7 1.260 . S
C4 O11 1.240 . S
C4 O12 1.252 . S
C5 O8 1.252 . S
C5 O9 1.260 . S
O6 In0 2.266 . S
O6 C3 1.252 . S
O7 In0 2.326 . S
O7 C3 1.260 . S
O8 In0 2.266 . S
O8 C5 1.252 . S
O9 In0 2.326 . S
O9 C5 1.260 . S
C10 O1 1.240 . S
C10 O2 1.252 . S
O11 In0 2.294 . S
O11 C4 1.240 . S
O12 In0 2.326 . S
O12 C4 1.252 . S
In13 O14 2.294 . S
In13 O15 2.326 . S
In13 O19 2.266 . S
In13 O20 2.326 . S
In13 O21 2.266 . S
In13 O22 2.326 . S
In13 O24 2.294 . S
In13 O25 2.326 . S
O14 In13 2.294 . S
O14 C23 1.240 . S
O15 In13 2.326 . S
O15 C23 1.252 . S
C16 O19 1.252 . S
C16 O20 1.260 . S
C17 O24 1.240 . S
C17 O25 1.252 . S
C18 O21 1.252 . S
C18 O22 1.260 . S
O19 In13 2.266 . S
O19 C16 1.252 . S
O20 In13 2.326 . S
O20 C16 1.260 . S
O21 In13 2.266 . S
O21 C18 1.252 . S
O22 In13 2.326 . S
O22 C18 1.260 . S
C23 O14 1.240 . S
C23 O15 1.252 . S
O24 In13 2.294 . S
O24 C17 1.240 . S
O25 In13 2.326 . S
O25 C17 1.252 . S
In26 O27 2.294 . S
In26 O28 2.326 . S
In26 O32 2.266 . S
In26 O33 2.326 . S
In26 O34 2.266 . S
In26 O35 2.326 . S
In26 O37 2.294 . S
In26 O38 2.326 . S
O27 In26 2.294 . S
O27 C36 1.240 . S
O28 In26 2.326 . S
O28 C36 1.252 . S
C29 O32 1.252 . S
C29 O33 1.260 . S
C30 O37 1.240 . S
C30 O38 1.252 . S
C31 O34 1.252 . S
C31 O35 1.260 . S
O32 In26 2.266 . S
O32 C29 1.252 . S
O33 In26 2.326 . S
O33 C29 1.260 . S
O34 In26 2.266 . S
O34 C31 1.252 . S
O35 In26 2.326 . S
O35 C31 1.260 . S
C36 O27 1.240 . S
C36 O28 1.252 . S
O37 In26 2.294 . S
O37 C30 1.240 . S
O38 In26 2.326 . S
O38 C30 1.252 . S
In39 O40 2.294 . S
In39 O41 2.326 . S
In39 O45 2.266 . S
In39 O46 2.326 . S
In39 O47 2.266 . S
In39 O48 2.326 . S
In39 O50 2.294 . S
In39 O51 2.326 . S
O40 In39 2.294 . S
O40 C49 1.240 . S
O41 In39 2.326 . S
O41 C49 1.252 . S
C42 O45 1.252 . S
C42 O46 1.260 . S
C43 O50 1.240 . S
C43 O51 1.252 . S
C44 O47 1.252 . S
C44 O48 1.260 . S
O45 In39 2.266 . S
O45 C42 1.252 . S
O46 In39 2.326 . S
O46 C42 1.260 . S
O47 In39 2.266 . S
O47 C44 1.252 . S
O48 In39 2.326 . S
O48 C44 1.260 . S
C49 O40 1.240 . S
C49 O41 1.252 . S
O50 In39 2.294 . S
O50 C43 1.240 . S
O51 In39 2.326 . S
O51 C43 1.252 . S
In52 O53 2.294 . S
In52 O54 2.326 . S
In52 O58 2.266 . S
In52 O59 2.326 . S
In52 O60 2.266 . S
In52 O61 2.326 . S
In52 O63 2.294 . S
In52 O64 2.326 . S
O53 In52 2.294 . S
O53 C62 1.240 . S
O54 In52 2.326 . S
O54 C62 1.252 . S
C55 O58 1.252 . S
C55 O59 1.260 . S
C56 O63 1.240 . S
C56 O64 1.252 . S
C57 O60 1.252 . S
C57 O61 1.260 . S
O58 In52 2.266 . S
O58 C55 1.252 . S
O59 In52 2.326 . S
O59 C55 1.260 . S
O60 In52 2.266 . S
O60 C57 1.252 . S
O61 In52 2.326 . S
O61 C57 1.260 . S
C62 O53 1.240 . S
C62 O54 1.252 . S
O63 In52 2.294 . S
O63 C56 1.240 . S
O64 In52 2.326 . S
O64 C56 1.252 . S
In65 O66 2.294 . S
In65 O67 2.326 . S
In65 O71 2.266 . S
In65 O72 2.326 . S
In65 O73 2.266 . S
In65 O74 2.326 . S
In65 O76 2.294 . S
In65 O77 2.326 . S
O66 In65 2.294 . S
O66 C75 1.240 . S
O67 In65 2.326 . S
O67 C75 1.252 . S
C68 O71 1.252 . S
C68 O72 1.260 . S
C69 O76 1.240 . S
C69 O77 1.252 . S
C70 O73 1.252 . S
C70 O74 1.260 . S
O71 In65 2.266 . S
O71 C68 1.252 . S
O72 In65 2.326 . S
O72 C68 1.260 . S
O73 In65 2.266 . S
O73 C70 1.252 . S
O74 In65 2.326 . S
O74 C70 1.260 . S
C75 O66 1.240 . S
C75 O67 1.252 . S
O76 In65 2.294 . S
O76 C69 1.240 . S
O77 In65 2.326 . S
O77 C69 1.252 . S
In78 O79 2.294 . S
In78 O80 2.326 . S
In78 O84 2.266 . S
In78 O85 2.326 . S
In78 O86 2.266 . S
In78 O87 2.326 . S
In78 O89 2.294 . S
In78 O90 2.326 . S
O79 In78 2.294 . S
O79 C88 1.240 . S
O80 In78 2.326 . S
O80 C88 1.252 . S
C81 O84 1.252 . S
C81 O85 1.260 . S
C82 O89 1.240 . S
C82 O90 1.252 . S
C83 O86 1.252 . S
C83 O87 1.260 . S
O84 In78 2.266 . S
O84 C81 1.252 . S
O85 In78 2.326 . S
O85 C81 1.260 . S
O86 In78 2.266 . S
O86 C83 1.252 . S
O87 In78 2.326 . S
O87 C83 1.260 . S
C88 O79 1.240 . S
C88 O80 1.252 . S
O89 In78 2.294 . S
O89 C82 1.240 . S
O90 In78 2.326 . S
O90 C82 1.252 . S
In91 O92 2.294 . S
In91 O93 2.326 . S
In91 O97 2.266 . S
In91 O98 2.326 . S
In91 O99 2.266 . S
In91 O100 2.326 . S
In91 O102 2.294 . S
In91 O103 2.326 . S
O92 In91 2.294 . S
O92 C101 1.240 . S
O93 In91 2.326 . S
O93 C101 1.252 . S
C94 O97 1.252 . S
C94 O98 1.260 . S
C95 O102 1.240 . S
C95 O103 1.252 . S
C96 O99 1.252 . S
C96 O100 1.260 . S
O97 In91 2.266 . S
O97 C94 1.252 . S
O98 In91 2.326 . S
O98 C94 1.260 . S
O99 In91 2.266 . S
O99 C96 1.252 . S
O100 In91 2.326 . S
O100 C96 1.260 . S
C101 O92 1.240 . S
C101 O93 1.252 . S
O102 In91 2.294 . S
O102 C95 1.240 . S
O103 In91 2.326 . S
O103 C95 1.252 . S
In104 O105 2.294 . S
In104 O106 2.326 . S
In104 O110 2.266 . S
In104 O111 2.326 . S
In104 O112 2.266 . S
In104 O113 2.326 . S
In104 O115 2.294 . S
In104 O116 2.326 . S
O105 In104 2.294 . S
O105 C114 1.240 . S
O106 In104 2.326 . S
O106 C114 1.252 . S
C107 O110 1.252 . S
C107 O111 1.260 . S
C108 O115 1.240 . S
C108 O116 1.252 . S
C109 O112 1.252 . S
C109 O113 1.260 . S
O110 In104 2.266 . S
O110 C107 1.252 . S
O111 In104 2.326 . S
O111 C107 1.260 . S
O112 In104 2.266 . S
O112 C109 1.252 . S
O113 In104 2.326 . S
O113 C109 1.260 . S
C114 O105 1.240 . S
C114 O106 1.252 . S
O115 In104 2.294 . S
O115 C108 1.240 . S
O116 In104 2.326 . S
O116 C108 1.252 . S
In117 O118 2.294 . S
In117 O119 2.326 . S
In117 O123 2.266 . S
In117 O124 2.326 . S
In117 O125 2.266 . S
In117 O126 2.326 . S
In117 O128 2.294 . S
In117 O129 2.326 . S
O118 In117 2.294 . S
O118 C127 1.240 . S
O119 In117 2.326 . S
O119 C127 1.252 . S
C120 O123 1.252 . S
C120 O124 1.260 . S
C121 O128 1.240 . S
C121 O129 1.252 . S
C122 O125 1.252 . S
C122 O126 1.260 . S
O123 In117 2.266 . S
O123 C120 1.252 . S
O124 In117 2.326 . S
O124 C120 1.260 . S
O125 In117 2.266 . S
O125 C122 1.252 . S
O126 In117 2.326 . S
O126 C122 1.260 . S
C127 O118 1.240 . S
C127 O119 1.252 . S
O128 In117 2.294 . S
O128 C121 1.240 . S
O129 In117 2.326 . S
O129 C121 1.252 . S
In130 O131 2.294 . S
In130 O132 2.326 . S
In130 O136 2.266 . S
In130 O137 2.326 . S
In130 O138 2.266 . S
In130 O139 2.326 . S
In130 O141 2.294 . S
In130 O142 2.326 . S
O131 In130 2.294 . S
O131 C140 1.240 . S
O132 In130 2.326 . S
O132 C140 1.252 . S
C133 O136 1.252 . S
C133 O137 1.260 . S
C134 O141 1.240 . S
C134 O142 1.252 . S
C135 O138 1.252 . S
C135 O139 1.260 . S
O136 In130 2.266 . S
O136 C133 1.252 . S
O137 In130 2.326 . S
O137 C133 1.260 . S
O138 In130 2.266 . S
O138 C135 1.252 . S
O139 In130 2.326 . S
O139 C135 1.260 . S
C140 O131 1.240 . S
C140 O132 1.252 . S
O141 In130 2.294 . S
O141 C134 1.240 . S
O142 In130 2.326 . S
O142 C134 1.252 . S
In143 O144 2.294 . S
In143 O145 2.326 . S
In143 O149 2.266 . S
In143 O150 2.326 . S
In143 O151 2.266 . S
In143 O152 2.326 . S
In143 O154 2.294 . S
In143 O155 2.326 . S
O144 In143 2.294 . S
O144 C153 1.240 . S
O145 In143 2.326 . S
O145 C153 1.252 . S
C146 O149 1.252 . S
C146 O150 1.260 . S
C147 O154 1.240 . S
C147 O155 1.252 . S
C148 O151 1.252 . S
C148 O152 1.260 . S
O149 In143 2.266 . S
O149 C146 1.252 . S
O150 In143 2.326 . S
O150 C146 1.260 . S
O151 In143 2.266 . S
O151 C148 1.252 . S
O152 In143 2.326 . S
O152 C148 1.260 . S
C153 O144 1.240 . S
C153 O145 1.252 . S
O154 In143 2.294 . S
O154 C147 1.240 . S
O155 In143 2.326 . S
O155 C147 1.252 . S
In156 O157 2.294 . S
In156 O158 2.326 . S
In156 O162 2.266 . S
In156 O163 2.326 . S
In156 O164 2.266 . S
In156 O165 2.326 . S
In156 O167 2.294 . S
In156 O168 2.326 . S
O157 In156 2.294 . S
O157 C166 1.240 . S
O158 In156 2.326 . S
O158 C166 1.252 . S
C159 O162 1.252 . S
C159 O163 1.260 . S
C160 O167 1.240 . S
C160 O168 1.252 . S
C161 O164 1.252 . S
C161 O165 1.260 . S
O162 In156 2.266 . S
O162 C159 1.252 . S
O163 In156 2.326 . S
O163 C159 1.260 . S
O164 In156 2.266 . S
O164 C161 1.252 . S
O165 In156 2.326 . S
O165 C161 1.260 . S
C166 O157 1.240 . S
C166 O158 1.252 . S
O167 In156 2.294 . S
O167 C160 1.240 . S
O168 In156 2.326 . S
O168 C160 1.252 . S
In169 O170 2.294 . S
In169 O171 2.326 . S
In169 O175 2.266 . S
In169 O176 2.326 . S
In169 O177 2.266 . S
In169 O178 2.326 . S
In169 O180 2.294 . S
In169 O181 2.326 . S
O170 In169 2.294 . S
O170 C179 1.240 . S
O171 In169 2.326 . S
O171 C179 1.252 . S
C172 O175 1.252 . S
C172 O176 1.260 . S
C173 O180 1.240 . S
C173 O181 1.252 . S
C174 O177 1.252 . S
C174 O178 1.260 . S
O175 In169 2.266 . S
O175 C172 1.252 . S
O176 In169 2.326 . S
O176 C172 1.260 . S
O177 In169 2.266 . S
O177 C174 1.252 . S
O178 In169 2.326 . S
O178 C174 1.260 . S
C179 O170 1.240 . S
C179 O171 1.252 . S
O180 In169 2.294 . S
O180 C173 1.240 . S
O181 In169 2.326 . S
O181 C173 1.252 . S
In182 O183 2.294 . S
In182 O184 2.326 . S
In182 O188 2.266 . S
In182 O189 2.326 . S
In182 O190 2.266 . S
In182 O191 2.326 . S
In182 O193 2.294 . S
In182 O194 2.326 . S
O183 In182 2.294 . S
O183 C192 1.240 . S
O184 In182 2.326 . S
O184 C192 1.252 . S
C185 O188 1.252 . S
C185 O189 1.260 . S
C186 O193 1.240 . S
C186 O194 1.252 . S
C187 O190 1.252 . S
C187 O191 1.260 . S
O188 In182 2.266 . S
O188 C185 1.252 . S
O189 In182 2.326 . S
O189 C185 1.260 . S
O190 In182 2.266 . S
O190 C187 1.252 . S
O191 In182 2.326 . S
O191 C187 1.260 . S
C192 O183 1.240 . S
C192 O184 1.252 . S
O193 In182 2.294 . S
O193 C186 1.240 . S
O194 In182 2.326 . S
O194 C186 1.252 . S
In195 O196 2.294 . S
In195 O197 2.326 . S
In195 O201 2.266 . S
In195 O202 2.326 . S
In195 O203 2.266 . S
In195 O204 2.326 . S
In195 O206 2.294 . S
In195 O207 2.326 . S
O196 In195 2.294 . S
O196 C205 1.240 . S
O197 In195 2.326 . S
O197 C205 1.252 . S
C198 O201 1.252 . S
C198 O202 1.260 . S
C199 O206 1.240 . S
C199 O207 1.252 . S
C200 O203 1.252 . S
C200 O204 1.260 . S
O201 In195 2.266 . S
O201 C198 1.252 . S
O202 In195 2.326 . S
O202 C198 1.260 . S
O203 In195 2.266 . S
O203 C200 1.252 . S
O204 In195 2.326 . S
O204 C200 1.260 . S
C205 O196 1.240 . S
C205 O197 1.252 . S
O206 In195 2.294 . S
O206 C199 1.240 . S
O207 In195 2.326 . S
O207 C199 1.252 . S
In208 O209 2.294 . S
In208 O210 2.326 . S
In208 O214 2.266 . S
In208 O215 2.326 . S
In208 O216 2.266 . S
In208 O217 2.326 . S
In208 O219 2.294 . S
In208 O220 2.326 . S
O209 In208 2.294 . S
O209 C218 1.240 . S
O210 In208 2.326 . S
O210 C218 1.252 . S
C211 O214 1.252 . S
C211 O215 1.260 . S
C212 O219 1.240 . S
C212 O220 1.252 . S
C213 O216 1.252 . S
C213 O217 1.260 . S
O214 In208 2.266 . S
O214 C211 1.252 . S
O215 In208 2.326 . S
O215 C211 1.260 . S
O216 In208 2.266 . S
O216 C213 1.252 . S
O217 In208 2.326 . S
O217 C213 1.260 . S
C218 O209 1.240 . S
C218 O210 1.252 . S
O219 In208 2.294 . S
O219 C212 1.240 . S
O220 In208 2.326 . S
O220 C212 1.252 . S
In221 O222 2.294 . S
In221 O223 2.326 . S
In221 O227 2.266 . S
In221 O228 2.326 . S
In221 O229 2.266 . S
In221 O230 2.326 . S
In221 O232 2.294 . S
In221 O233 2.326 . S
O222 In221 2.294 . S
O222 C231 1.240 . S
O223 In221 2.326 . S
O223 C231 1.252 . S
C224 O227 1.252 . S
C224 O228 1.260 . S
C225 O232 1.240 . S
C225 O233 1.252 . S
C226 O229 1.252 . S
C226 O230 1.260 . S
O227 In221 2.266 . S
O227 C224 1.252 . S
O228 In221 2.326 . S
O228 C224 1.260 . S
O229 In221 2.266 . S
O229 C226 1.252 . S
O230 In221 2.326 . S
O230 C226 1.260 . S
C231 O222 1.240 . S
C231 O223 1.252 . S
O232 In221 2.294 . S
O232 C225 1.240 . S
O233 In221 2.326 . S
O233 C225 1.252 . S
In234 O235 2.294 . S
In234 O236 2.326 . S
In234 O240 2.266 . S
In234 O241 2.326 . S
In234 O242 2.266 . S
In234 O243 2.326 . S
In234 O245 2.294 . S
In234 O246 2.326 . S
O235 In234 2.294 . S
O235 C244 1.240 . S
O236 In234 2.326 . S
O236 C244 1.252 . S
C237 O240 1.252 . S
C237 O241 1.260 . S
C238 O245 1.240 . S
C238 O246 1.252 . S
C239 O242 1.252 . S
C239 O243 1.260 . S
O240 In234 2.266 . S
O240 C237 1.252 . S
O241 In234 2.326 . S
O241 C237 1.260 . S
O242 In234 2.266 . S
O242 C239 1.252 . S
O243 In234 2.326 . S
O243 C239 1.260 . S
C244 O235 1.240 . S
C244 O236 1.252 . S
O245 In234 2.294 . S
O245 C238 1.240 . S
O246 In234 2.326 . S
O246 C238 1.252 . S
In247 O248 2.294 . S
In247 O249 2.326 . S
In247 O253 2.266 . S
In247 O254 2.326 . S
In247 O255 2.266 . S
In247 O256 2.326 . S
In247 O258 2.294 . S
In247 O259 2.326 . S
O248 In247 2.294 . S
O248 C257 1.240 . S
O249 In247 2.326 . S
O249 C257 1.252 . S
C250 O253 1.252 . S
C250 O254 1.260 . S
C251 O258 1.240 . S
C251 O259 1.252 . S
C252 O255 1.252 . S
C252 O256 1.260 . S
O253 In247 2.266 . S
O253 C250 1.252 . S
O254 In247 2.326 . S
O254 C250 1.260 . S
O255 In247 2.266 . S
O255 C252 1.252 . S
O256 In247 2.326 . S
O256 C252 1.260 . S
C257 O248 1.240 . S
C257 O249 1.252 . S
O258 In247 2.294 . S
O258 C251 1.240 . S
O259 In247 2.326 . S
O259 C251 1.252 . S
In260 O261 2.294 . S
In260 O262 2.326 . S
In260 O266 2.266 . S
In260 O267 2.326 . S
In260 O268 2.266 . S
In260 O269 2.326 . S
In260 O271 2.294 . S
In260 O272 2.326 . S
O261 In260 2.294 . S
O261 C270 1.240 . S
O262 In260 2.326 . S
O262 C270 1.252 . S
C263 O266 1.252 . S
C263 O267 1.260 . S
C264 O271 1.240 . S
C264 O272 1.252 . S
C265 O268 1.252 . S
C265 O269 1.260 . S
O266 In260 2.266 . S
O266 C263 1.252 . S
O267 In260 2.326 . S
O267 C263 1.260 . S
O268 In260 2.266 . S
O268 C265 1.252 . S
O269 In260 2.326 . S
O269 C265 1.260 . S
C270 O261 1.240 . S
C270 O262 1.252 . S
O271 In260 2.294 . S
O271 C264 1.240 . S
O272 In260 2.326 . S
O272 C264 1.252 . S
In273 O274 2.294 . S
In273 O275 2.326 . S
In273 O279 2.266 . S
In273 O280 2.326 . S
In273 O281 2.266 . S
In273 O282 2.326 . S
In273 O284 2.294 . S
In273 O285 2.326 . S
O274 In273 2.294 . S
O274 C283 1.240 . S
O275 In273 2.326 . S
O275 C283 1.252 . S
C276 O279 1.252 . S
C276 O280 1.260 . S
C277 O284 1.240 . S
C277 O285 1.252 . S
C278 O281 1.252 . S
C278 O282 1.260 . S
O279 In273 2.266 . S
O279 C276 1.252 . S
O280 In273 2.326 . S
O280 C276 1.260 . S
O281 In273 2.266 . S
O281 C278 1.252 . S
O282 In273 2.326 . S
O282 C278 1.260 . S
C283 O274 1.240 . S
C283 O275 1.252 . S
O284 In273 2.294 . S
O284 C277 1.240 . S
O285 In273 2.326 . S
O285 C277 1.252 . S
In286 O287 2.294 . S
In286 O288 2.326 . S
In286 O292 2.266 . S
In286 O293 2.326 . S
In286 O294 2.266 . S
In286 O295 2.326 . S
In286 O297 2.294 . S
In286 O298 2.326 . S
O287 In286 2.294 . S
O287 C296 1.240 . S
O288 In286 2.326 . S
O288 C296 1.252 . S
C289 O292 1.252 . S
C289 O293 1.260 . S
C290 O297 1.240 . S
C290 O298 1.252 . S
C291 O294 1.252 . S
C291 O295 1.260 . S
O292 In286 2.266 . S
O292 C289 1.252 . S
O293 In286 2.326 . S
O293 C289 1.260 . S
O294 In286 2.266 . S
O294 C291 1.252 . S
O295 In286 2.326 . S
O295 C291 1.260 . S
C296 O287 1.240 . S
C296 O288 1.252 . S
O297 In286 2.294 . S
O297 C290 1.240 . S
O298 In286 2.326 . S
O298 C290 1.252 . S
In299 O300 2.294 . S
In299 O301 2.326 . S
In299 O305 2.266 . S
In299 O306 2.326 . S
In299 O307 2.266 . S
In299 O308 2.326 . S
In299 O310 2.294 . S
In299 O311 2.326 . S
O300 In299 2.294 . S
O300 C309 1.240 . S
O301 In299 2.326 . S
O301 C309 1.252 . S
C302 O305 1.252 . S
C302 O306 1.260 . S
C303 O310 1.240 . S
C303 O311 1.252 . S
C304 O307 1.252 . S
C304 O308 1.260 . S
O305 In299 2.266 . S
O305 C302 1.252 . S
O306 In299 2.326 . S
O306 C302 1.260 . S
O307 In299 2.266 . S
O307 C304 1.252 . S
O308 In299 2.326 . S
O308 C304 1.260 . S
C309 O300 1.240 . S
C309 O301 1.252 . S
O310 In299 2.294 . S
O310 C303 1.240 . S
O311 In299 2.326 . S
O311 C303 1.252 . S
In312 O313 2.294 . S
In312 O314 2.326 . S
In312 O318 2.266 . S
In312 O319 2.326 . S
In312 O320 2.266 . S
In312 O321 2.326 . S
In312 O323 2.294 . S
In312 O324 2.326 . S
O313 In312 2.294 . S
O313 C322 1.240 . S
O314 In312 2.326 . S
O314 C322 1.252 . S
C315 O318 1.252 . S
C315 O319 1.260 . S
C316 O323 1.240 . S
C316 O324 1.252 . S
C317 O320 1.252 . S
C317 O321 1.260 . S
O318 In312 2.266 . S
O318 C315 1.252 . S
O319 In312 2.326 . S
O319 C315 1.260 . S
O320 In312 2.266 . S
O320 C317 1.252 . S
O321 In312 2.326 . S
O321 C317 1.260 . S
C322 O313 1.240 . S
C322 O314 1.252 . S
O323 In312 2.294 . S
O323 C316 1.240 . S
O324 In312 2.326 . S
O324 C316 1.252 . S
In325 O326 2.294 . S
In325 O327 2.326 . S
In325 O331 2.266 . S
In325 O332 2.326 . S
In325 O333 2.266 . S
In325 O334 2.326 . S
In325 O336 2.294 . S
In325 O337 2.326 . S
O326 In325 2.294 . S
O326 C335 1.240 . S
O327 In325 2.326 . S
O327 C335 1.252 . S
C328 O331 1.252 . S
C328 O332 1.260 . S
C329 O336 1.240 . S
C329 O337 1.252 . S
C330 O333 1.252 . S
C330 O334 1.260 . S
O331 In325 2.266 . S
O331 C328 1.252 . S
O332 In325 2.326 . S
O332 C328 1.260 . S
O333 In325 2.266 . S
O333 C330 1.252 . S
O334 In325 2.326 . S
O334 C330 1.260 . S
C335 O326 1.240 . S
C335 O327 1.252 . S
O336 In325 2.294 . S
O336 C329 1.240 . S
O337 In325 2.326 . S
O337 C329 1.252 . S
In338 O339 2.294 . S
In338 O340 2.326 . S
In338 O344 2.266 . S
In338 O345 2.326 . S
In338 O346 2.266 . S
In338 O347 2.326 . S
In338 O349 2.294 . S
In338 O350 2.326 . S
O339 In338 2.294 . S
O339 C348 1.240 . S
O340 In338 2.326 . S
O340 C348 1.252 . S
C341 O344 1.252 . S
C341 O345 1.260 . S
C342 O349 1.240 . S
C342 O350 1.252 . S
C343 O346 1.252 . S
C343 O347 1.260 . S
O344 In338 2.266 . S
O344 C341 1.252 . S
O345 In338 2.326 . S
O345 C341 1.260 . S
O346 In338 2.266 . S
O346 C343 1.252 . S
O347 In338 2.326 . S
O347 C343 1.260 . S
C348 O339 1.240 . S
C348 O340 1.252 . S
O349 In338 2.294 . S
O349 C342 1.240 . S
O350 In338 2.326 . S
O350 C342 1.252 . S
In351 O352 2.294 . S
In351 O353 2.326 . S
In351 O357 2.266 . S
In351 O358 2.326 . S
In351 O359 2.266 . S
In351 O360 2.326 . S
In351 O362 2.294 . S
In351 O363 2.326 . S
O352 In351 2.294 . S
O352 C361 1.240 . S
O353 In351 2.326 . S
O353 C361 1.252 . S
C354 O357 1.252 . S
C354 O358 1.260 . S
C355 O362 1.240 . S
C355 O363 1.252 . S
C356 O359 1.252 . S
C356 O360 1.260 . S
O357 In351 2.266 . S
O357 C354 1.252 . S
O358 In351 2.326 . S
O358 C354 1.260 . S
O359 In351 2.266 . S
O359 C356 1.252 . S
O360 In351 2.326 . S
O360 C356 1.260 . S
C361 O352 1.240 . S
C361 O353 1.252 . S
O362 In351 2.294 . S
O362 C355 1.240 . S
O363 In351 2.326 . S
O363 C355 1.252 . S
In364 O365 2.294 . S
In364 O366 2.326 . S
In364 O370 2.266 . S
In364 O371 2.326 . S
In364 O372 2.266 . S
In364 O373 2.326 . S
In364 O375 2.294 . S
In364 O376 2.326 . S
O365 In364 2.294 . S
O365 C374 1.240 . S
O366 In364 2.326 . S
O366 C374 1.252 . S
C367 O370 1.252 . S
C367 O371 1.260 . S
C368 O375 1.240 . S
C368 O376 1.252 . S
C369 O372 1.252 . S
C369 O373 1.260 . S
O370 In364 2.266 . S
O370 C367 1.252 . S
O371 In364 2.326 . S
O371 C367 1.260 . S
O372 In364 2.266 . S
O372 C369 1.252 . S
O373 In364 2.326 . S
O373 C369 1.260 . S
C374 O365 1.240 . S
C374 O366 1.252 . S
O375 In364 2.294 . S
O375 C368 1.240 . S
O376 In364 2.326 . S
O376 C368 1.252 . S
In377 O378 2.294 . S
In377 O379 2.326 . S
In377 O383 2.266 . S
In377 O384 2.326 . S
In377 O385 2.266 . S
In377 O386 2.326 . S
In377 O388 2.294 . S
In377 O389 2.326 . S
O378 In377 2.294 . S
O378 C387 1.240 . S
O379 In377 2.326 . S
O379 C387 1.252 . S
C380 O383 1.252 . S
C380 O384 1.260 . S
C381 O388 1.240 . S
C381 O389 1.252 . S
C382 O385 1.252 . S
C382 O386 1.260 . S
O383 In377 2.266 . S
O383 C380 1.252 . S
O384 In377 2.326 . S
O384 C380 1.260 . S
O385 In377 2.266 . S
O385 C382 1.252 . S
O386 In377 2.326 . S
O386 C382 1.260 . S
C387 O378 1.240 . S
C387 O379 1.252 . S
O388 In377 2.294 . S
O388 C381 1.240 . S
O389 In377 2.326 . S
O389 C381 1.252 . S
In390 O391 2.294 . S
In390 O392 2.326 . S
In390 O396 2.266 . S
In390 O397 2.326 . S
In390 O398 2.266 . S
In390 O399 2.326 . S
In390 O401 2.294 . S
In390 O402 2.326 . S
O391 In390 2.294 . S
O391 C400 1.240 . S
O392 In390 2.326 . S
O392 C400 1.252 . S
C393 O396 1.252 . S
C393 O397 1.260 . S
C394 O401 1.240 . S
C394 O402 1.252 . S
C395 O398 1.252 . S
C395 O399 1.260 . S
O396 In390 2.266 . S
O396 C393 1.252 . S
O397 In390 2.326 . S
O397 C393 1.260 . S
O398 In390 2.266 . S
O398 C395 1.252 . S
O399 In390 2.326 . S
O399 C395 1.260 . S
C400 O391 1.240 . S
C400 O392 1.252 . S
O401 In390 2.294 . S
O401 C394 1.240 . S
O402 In390 2.326 . S
O402 C394 1.252 . S
In403 O404 2.294 . S
In403 O405 2.326 . S
In403 O409 2.266 . S
In403 O410 2.326 . S
In403 O411 2.266 . S
In403 O412 2.326 . S
In403 O414 2.294 . S
In403 O415 2.326 . S
O404 In403 2.294 . S
O404 C413 1.240 . S
O405 In403 2.326 . S
O405 C413 1.252 . S
C406 O409 1.252 . S
C406 O410 1.260 . S
C407 O414 1.240 . S
C407 O415 1.252 . S
C408 O411 1.252 . S
C408 O412 1.260 . S
O409 In403 2.266 . S
O409 C406 1.252 . S
O410 In403 2.326 . S
O410 C406 1.260 . S
O411 In403 2.266 . S
O411 C408 1.252 . S
O412 In403 2.326 . S
O412 C408 1.260 . S
C413 O404 1.240 . S
C413 O405 1.252 . S
O414 In403 2.294 . S
O414 C407 1.240 . S
O415 In403 2.326 . S
O415 C407 1.252 . S
C416 C417 1.349 . S
C416 C418 1.327 . S
C416 H441 0.950 . S
C417 C416 1.349 . S
C417 C433 1.349 . S
C418 C416 1.327 . S
C418 C437 1.429 . S
C418 H442 0.950 1_565 S
C419 C436 1.574 . S
C419 C438 1.368 . S
C419 H443 0.949 . S
H420 C424 0.949 . S
C421 C422 1.349 . S
C421 C423 1.327 . S
C421 H444 0.950 . S
C422 C421 1.349 . S
C422 C434 1.349 . S
C423 C421 1.327 . S
C423 C439 1.429 . S
C423 H445 0.950 1_545 S
C424 H420 0.949 . S
C424 C432 1.574 . S
C424 C440 1.368 . S
H425 C433 0.950 . S
H426 C431 0.950 . S
H427 C432 0.949 . S
H428 C434 0.950 . S
H429 C435 0.950 . S
H430 C436 0.949 . S
C431 H426 0.950 . S
C431 C433 1.327 . S
C431 C437 1.429 . S
C432 C424 1.574 . S
C432 H427 0.949 . S
C432 C438 1.368 1_545 S
C433 C417 1.349 . S
C433 H425 0.950 . S
C433 C431 1.327 . S
C434 C422 1.349 . S
C434 H428 0.950 . S
C434 C435 1.327 . S
C435 H429 0.950 . S
C435 C434 1.327 . S
C435 C439 1.429 . S
C436 C419 1.574 . S
C436 H430 0.949 . S
C436 C440 1.368 1_565 S
C437 C418 1.429 . S
C437 C431 1.429 . S
C437 C438 1.523 . S
C438 C419 1.368 . S
C438 C432 1.368 1_565 S
C438 C437 1.523 . S
C439 C423 1.429 . S
C439 C435 1.429 . S
C439 C440 1.523 . S
C440 C424 1.368 . S
C440 C436 1.368 1_545 S
C440 C439 1.523 . S
H441 C416 0.950 . S
H442 C418 0.950 1_545 S
H443 C419 0.949 . S
H444 C421 0.950 . S
H445 C423 0.950 1_565 S
C446 C447 1.349 . S
C446 C448 1.327 . S
C446 H471 0.950 . S
C447 C446 1.349 . S
C447 C463 1.349 . S
C448 C446 1.327 . S
C448 C467 1.429 . S
C448 H472 0.950 . S
C449 C466 1.574 . S
C449 C468 1.368 . S
C449 H473 0.949 . S
H450 C454 0.949 . S
C451 C452 1.349 . S
C451 C453 1.327 . S
C451 H474 0.950 . S
C452 C451 1.349 . S
C452 C464 1.349 . S
C453 C451 1.327 . S
C453 C469 1.429 . S
C453 H475 0.950 . S
C454 H450 0.949 . S
C454 C462 1.574 . S
C454 C470 1.368 . S
H455 C463 0.950 . S
H456 C461 0.950 . S
H457 C462 0.949 . S
H458 C464 0.950 . S
H459 C465 0.950 . S
H460 C466 0.949 . S
C461 H456 0.950 . S
C461 C463 1.327 . S
C461 C467 1.429 . S
C462 C454 1.574 . S
C462 H457 0.949 . S
C462 C468 1.368 . S
C463 C447 1.349 . S
C463 H455 0.950 . S
C463 C461 1.327 . S
C464 C452 1.349 . S
C464 H458 0.950 . S
C464 C465 1.327 . S
C465 H459 0.950 . S
C465 C464 1.327 . S
C465 C469 1.429 . S
C466 C449 1.574 . S
C466 H460 0.949 . S
C466 C470 1.368 . S
C467 C448 1.429 . S
C467 C461 1.429 . S
C467 C468 1.523 . S
C468 C449 1.368 . S
C468 C462 1.368 . S
C468 C467 1.523 . S
C469 C453 1.429 . S
C469 C465 1.429 . S
C469 C470 1.523 . S
C470 C454 1.368 . S
C470 C466 1.368 . S
C470 C469 1.523 . S
H471 C446 0.950 . S
H472 C448 0.950 . S
H473 C449 0.949 . S
H474 C451 0.950 . S
H475 C453 0.950 . S
C476 C477 1.349 . S
C476 C478 1.327 . S
C476 H501 0.950 . S
C477 C476 1.349 . S
C477 C493 1.349 . S
C478 C476 1.327 . S
C478 C497 1.429 . S
C478 H502 0.950 . S
C479 C496 1.556 1_545 S
C479 C498 1.368 . S
C479 H503 0.949 . S
H480 C484 0.949 . S
C481 C482 1.349 . S
C481 C483 1.327 . S
C481 H504 0.950 . S
C482 C481 1.349 . S
C482 C494 1.349 . S
C483 C481 1.327 . S
C483 C499 1.429 . S
C483 H505 0.950 . S
C484 H480 0.949 . S
C484 C492 1.556 1_565 S
C484 C500 1.368 . S
H485 C493 0.950 . S
H486 C491 0.950 . S
H487 C492 0.952 . S
H488 C494 0.950 . S
H489 C495 0.950 . S
H490 C496 0.952 . S
C491 H486 0.950 . S
C491 C493 1.327 . S
C491 C497 1.429 . S
C492 C484 1.556 1_545 S
C492 H487 0.952 . S
C492 C498 1.385 . S
C493 C477 1.349 . S
C493 H485 0.950 . S
C493 C491 1.327 . S
C494 C482 1.349 . S
C494 H488 0.950 . S
C494 C495 1.327 . S
C495 H489 0.950 . S
C495 C494 1.327 . S
C495 C499 1.429 . S
C496 C479 1.556 1_565 S
C496 H490 0.952 . S
C496 C500 1.385 . S
C497 C478 1.429 . S
C497 C491 1.429 . S
C497 C498 1.523 . S
C498 C479 1.368 . S
C498 C492 1.385 . S
C498 C497 1.523 . S
C499 C483 1.429 . S
C499 C495 1.429 . S
C499 C500 1.523 . S
C500 C484 1.368 . S
C500 C496 1.385 . S
C500 C499 1.523 . S
H501 C476 0.950 . S
H502 C478 0.950 . S
H503 C479 0.949 . S
H504 C481 0.950 . S
H505 C483 0.950 . S
C506 C507 1.349 . S
C506 C508 1.327 . S
C506 H531 0.950 . S
C507 C506 1.349 . S
C507 C523 1.349 . S
C508 C506 1.327 . S
C508 C527 1.429 . S
C508 H532 0.950 . S
C509 C526 1.574 1_556 S
C509 C528 1.368 . S
C509 H533 0.949 . S
H510 C514 0.949 . S
C511 C512 1.349 . S
C511 C513 1.327 . S
C511 H534 0.950 . S
C512 C511 1.349 . S
C512 C524 1.349 . S
C513 C511 1.327 . S
C513 C529 1.429 . S
C513 H535 0.950 . S
C514 H510 0.949 . S
C514 C522 1.574 1_554 S
C514 C530 1.368 . S
H515 C523 0.950 . S
H516 C521 0.950 . S
H517 C522 0.949 . S
H518 C524 0.950 . S
H519 C525 0.950 . S
H520 C526 0.949 . S
C521 H516 0.950 . S
C521 C523 1.327 . S
C521 C527 1.429 . S
C522 C514 1.574 1_556 S
C522 H517 0.949 . S
C522 C528 1.368 . S
C523 C507 1.349 . S
C523 H515 0.950 . S
C523 C521 1.327 . S
C524 C512 1.349 . S
C524 H518 0.950 . S
C524 C525 1.327 . S
C525 H519 0.950 . S
C525 C524 1.327 . S
C525 C529 1.429 . S
C526 C509 1.574 1_554 S
C526 H520 0.949 . S
C526 C530 1.368 . S
C527 C508 1.429 . S
C527 C521 1.429 . S
C527 C528 1.523 . S
C528 C509 1.368 . S
C528 C522 1.368 . S
C528 C527 1.523 . S
C529 C513 1.429 . S
C529 C525 1.429 . S
C529 C530 1.523 . S
C530 C514 1.368 . S
C530 C526 1.368 . S
C530 C529 1.523 . S
H531 C506 0.950 . S
H532 C508 0.950 . S
H533 C509 0.949 . S
H534 C511 0.950 . S
H535 C513 0.950 . S
C536 C537 1.349 . S
C536 C538 1.327 . S
C536 H561 0.950 . S
C537 C536 1.349 . S
C537 C553 1.349 . S
C538 C536 1.327 . S
C538 C557 1.429 . S
C538 H562 0.950 . S
C539 C556 1.574 . S
C539 C558 1.368 1_545 S
C539 H563 0.949 . S
H540 C544 0.949 . S
C541 C542 1.349 . S
C541 C543 1.327 . S
C541 H564 0.950 . S
C542 C541 1.349 . S
C542 C554 1.349 . S
C543 C541 1.327 . S
C543 C559 1.429 . S
C543 H565 0.950 . S
C544 H540 0.949 . S
C544 C552 1.574 . S
C544 C560 1.368 1_565 S
H545 C553 0.950 . S
H546 C551 0.950 1_545 S
H547 C552 0.949 . S
H548 C554 0.950 . S
H549 C555 0.950 1_565 S
H550 C556 0.949 . S
C551 H546 0.950 1_565 S
C551 C553 1.327 . S
C551 C557 1.429 . S
C552 C544 1.574 . S
C552 H547 0.949 . S
C552 C558 1.368 . S
C553 C537 1.349 . S
C553 H545 0.950 . S
C553 C551 1.327 . S
C554 C542 1.349 . S
C554 H548 0.950 . S
C554 C555 1.327 . S
C555 H549 0.950 1_545 S
C555 C554 1.327 . S
C555 C559 1.429 . S
C556 C539 1.574 . S
C556 H550 0.949 . S
C556 C560 1.368 . S
C557 C538 1.429 . S
C557 C551 1.429 . S
C557 C558 1.523 . S
C558 C539 1.368 1_565 S
C558 C552 1.368 . S
C558 C557 1.523 . S
C559 C543 1.429 . S
C559 C555 1.429 . S
C559 C560 1.523 . S
C560 C544 1.368 1_545 S
C560 C556 1.368 . S
C560 C559 1.523 . S
H561 C536 0.950 . S
H562 C538 0.950 . S
H563 C539 0.949 . S
H564 C541 0.950 . S
H565 C543 0.950 . S
C566 C567 1.349 . S
C566 C568 1.327 . S
C566 H591 0.950 . S
C567 C566 1.349 . S
C567 C583 1.349 . S
C568 C566 1.327 . S
C568 C587 1.429 . S
C568 H592 0.950 . S
C569 C586 1.574 . S
C569 C588 1.368 . S
C569 H593 0.949 . S
H570 C574 0.949 . S
C571 C572 1.349 . S
C571 C573 1.327 . S
C571 H594 0.950 . S
C572 C571 1.349 . S
C572 C584 1.349 . S
C573 C571 1.327 . S
C573 C589 1.429 . S
C573 H595 0.950 . S
C574 H570 0.949 . S
C574 C582 1.574 . S
C574 C590 1.368 . S
H575 C583 0.950 . S
H576 C581 0.950 . S
H577 C582 0.949 . S
H578 C584 0.950 . S
H579 C585 0.950 . S
H580 C586 0.949 . S
C581 H576 0.950 . S
C581 C583 1.327 . S
C581 C587 1.429 . S
C582 C574 1.574 . S
C582 H577 0.949 . S
C582 C588 1.368 . S
C583 C567 1.349 . S
C583 H575 0.950 . S
C583 C581 1.327 . S
C584 C572 1.349 . S
C584 H578 0.950 . S
C584 C585 1.327 . S
C585 H579 0.950 . S
C585 C584 1.327 . S
C585 C589 1.429 . S
C586 C569 1.574 . S
C586 H580 0.949 . S
C586 C590 1.368 . S
C587 C568 1.429 . S
C587 C581 1.429 . S
C587 C588 1.523 . S
C588 C569 1.368 . S
C588 C582 1.368 . S
C588 C587 1.523 . S
C589 C573 1.429 . S
C589 C585 1.429 . S
C589 C590 1.523 . S
C590 C574 1.368 . S
C590 C586 1.368 . S
C590 C589 1.523 . S
H591 C566 0.950 . S
H592 C568 0.950 . S
H593 C569 0.949 . S
H594 C571 0.950 . S
H595 C573 0.950 . S
C596 C597 1.349 . S
C596 C598 1.327 . S
C596 H621 0.950 . S
C597 C596 1.349 . S
C597 C613 1.349 . S
C598 C596 1.327 . S
C598 C617 1.429 . S
C598 H622 0.950 1_545 S
C599 C616 1.574 . S
C599 C618 1.368 . S
C599 H623 0.949 . S
H600 C604 0.949 . S
C601 C602 1.349 . S
C601 C603 1.327 . S
C601 H624 0.950 . S
C602 C601 1.349 . S
C602 C614 1.349 . S
C603 C601 1.327 . S
C603 C619 1.429 . S
C603 H625 0.950 1_565 S
C604 H600 0.949 . S
C604 C612 1.574 . S
C604 C620 1.368 . S
H605 C613 0.950 . S
H606 C611 0.950 . S
H607 C612 0.949 . S
H608 C614 0.950 . S
H609 C615 0.950 . S
H610 C616 0.949 . S
C611 H606 0.950 . S
C611 C613 1.327 . S
C611 C617 1.429 . S
C612 C604 1.574 . S
C612 H607 0.949 . S
C612 C618 1.368 1_565 S
C613 C597 1.349 . S
C613 H605 0.950 . S
C613 C611 1.327 . S
C614 C602 1.349 . S
C614 H608 0.950 . S
C614 C615 1.327 . S
C615 H609 0.950 . S
C615 C614 1.327 . S
C615 C619 1.429 . S
C616 C599 1.574 . S
C616 H610 0.949 . S
C616 C620 1.368 1_545 S
C617 C598 1.429 . S
C617 C611 1.429 . S
C617 C618 1.523 . S
C618 C599 1.368 . S
C618 C612 1.368 1_545 S
C618 C617 1.523 . S
C619 C603 1.429 . S
C619 C615 1.429 . S
C619 C620 1.523 . S
C620 C604 1.368 . S
C620 C616 1.368 1_565 S
C620 C619 1.523 . S
H621 C596 0.950 . S
H622 C598 0.950 1_565 S
H623 C599 0.949 . S
H624 C601 0.950 . S
H625 C603 0.950 1_545 S
C626 C627 1.349 . S
C626 C628 1.327 . S
C626 H651 0.950 . S
C627 C626 1.349 . S
C627 C643 1.349 . S
C628 C626 1.327 . S
C628 C647 1.429 . S
C628 H652 0.950 . S
C629 C646 1.574 1_556 S
C629 C648 1.368 . S
C629 H653 0.949 . S
H630 C634 0.949 . S
C631 C632 1.349 . S
C631 C633 1.327 . S
C631 H654 0.950 . S
C632 C631 1.349 . S
C632 C644 1.349 . S
C633 C631 1.327 . S
C633 C649 1.429 . S
C633 H655 0.950 . S
C634 H630 0.949 . S
C634 C642 1.574 1_554 S
C634 C650 1.368 . S
H635 C643 0.950 . S
H636 C641 0.950 . S
H637 C642 0.949 . S
H638 C644 0.950 . S
H639 C645 0.950 . S
H640 C646 0.949 . S
C641 H636 0.950 . S
C641 C643 1.327 . S
C641 C647 1.429 . S
C642 C634 1.574 1_556 S
C642 H637 0.949 . S
C642 C648 1.368 . S
C643 C627 1.349 . S
C643 H635 0.950 . S
C643 C641 1.327 . S
C644 C632 1.349 . S
C644 H638 0.950 . S
C644 C645 1.327 . S
C645 H639 0.950 . S
C645 C644 1.327 . S
C645 C649 1.429 . S
C646 C629 1.574 1_554 S
C646 H640 0.949 . S
C646 C650 1.368 . S
C647 C628 1.429 . S
C647 C641 1.429 . S
C647 C648 1.523 . S
C648 C629 1.368 . S
C648 C642 1.368 . S
C648 C647 1.523 . S
C649 C633 1.429 . S
C649 C645 1.429 . S
C649 C650 1.523 . S
C650 C634 1.368 . S
C650 C646 1.368 . S
C650 C649 1.523 . S
H651 C626 0.950 . S
H652 C628 0.950 . S
H653 C629 0.949 . S
H654 C631 0.950 . S
H655 C633 0.950 . S
C656 C657 1.349 . S
C656 C658 1.327 . S
C656 H681 0.950 . S
C657 C656 1.349 . S
C657 C673 1.349 . S
C658 C656 1.327 . S
C658 C677 1.429 . S
C658 H682 0.950 . S
C659 C676 1.574 . S
C659 C678 1.368 . S
C659 H683 0.949 . S
H660 C664 0.949 . S
C661 C662 1.349 . S
C661 C663 1.327 . S
C661 H684 0.950 . S
C662 C661 1.349 . S
C662 C674 1.349 . S
C663 C661 1.327 . S
C663 C679 1.429 . S
C663 H685 0.950 . S
C664 H660 0.949 . S
C664 C672 1.574 . S
C664 C680 1.368 . S
H665 C673 0.950 . S
H666 C671 0.950 . S
H667 C672 0.949 . S
H668 C674 0.950 . S
H669 C675 0.950 . S
H670 C676 0.949 . S
C671 H666 0.950 . S
C671 C673 1.327 . S
C671 C677 1.429 . S
C672 C664 1.574 . S
C672 H667 0.949 . S
C672 C678 1.368 . S
C673 C657 1.349 . S
C673 H665 0.950 . S
C673 C671 1.327 . S
C674 C662 1.349 . S
C674 H668 0.950 . S
C674 C675 1.327 . S
C675 H669 0.950 . S
C675 C674 1.327 . S
C675 C679 1.429 . S
C676 C659 1.574 . S
C676 H670 0.949 . S
C676 C680 1.368 . S
C677 C658 1.429 . S
C677 C671 1.429 . S
C677 C678 1.523 . S
C678 C659 1.368 . S
C678 C672 1.368 . S
C678 C677 1.523 . S
C679 C663 1.429 . S
C679 C675 1.429 . S
C679 C680 1.523 . S
C680 C664 1.368 . S
C680 C676 1.368 . S
C680 C679 1.523 . S
H681 C656 0.950 . S
H682 C658 0.950 . S
H683 C659 0.949 . S
H684 C661 0.950 . S
H685 C663 0.950 . S
C686 C687 1.349 . S
C686 C688 1.327 . S
C686 H711 0.950 . S
C687 C686 1.349 . S
C687 C703 1.349 . S
C688 C686 1.327 . S
C688 C707 1.429 . S
C688 H712 0.950 . S
C689 C706 1.574 1_554 S
C689 C708 1.368 . S
C689 H713 0.949 . S
H690 C694 0.949 . S
C691 C692 1.349 . S
C691 C693 1.327 . S
C691 H714 0.950 . S
C692 C691 1.349 . S
C692 C704 1.349 . S
C693 C691 1.327 . S
C693 C709 1.429 . S
C693 H715 0.950 . S
C694 H690 0.949 . S
C694 C702 1.574 1_556 S
C694 C710 1.368 . S
H695 C703 0.950 . S
H696 C701 0.950 . S
H697 C702 0.949 . S
H698 C704 0.950 . S
H699 C705 0.950 . S
H700 C706 0.949 . S
C701 H696 0.950 . S
C701 C703 1.327 . S
C701 C707 1.429 . S
C702 C694 1.574 1_554 S
C702 H697 0.949 . S
C702 C708 1.368 . S
C703 C687 1.349 . S
C703 H695 0.950 . S
C703 C701 1.327 . S
C704 C692 1.349 . S
C704 H698 0.950 . S
C704 C705 1.327 . S
C705 H699 0.950 . S
C705 C704 1.327 . S
C705 C709 1.429 . S
C706 C689 1.574 1_556 S
C706 H700 0.949 . S
C706 C710 1.368 . S
C707 C688 1.429 . S
C707 C701 1.429 . S
C707 C708 1.523 . S
C708 C689 1.368 . S
C708 C702 1.368 . S
C708 C707 1.523 . S
C709 C693 1.429 . S
C709 C705 1.429 . S
C709 C710 1.523 . S
C710 C694 1.368 . S
C710 C706 1.368 . S
C710 C709 1.523 . S
H711 C686 0.950 . S
H712 C688 0.950 . S
H713 C689 0.949 . S
H714 C691 0.950 . S
H715 C693 0.950 . S
C716 C717 1.349 . S
C716 C718 1.327 . S
C716 H741 0.950 . S
C717 C716 1.349 . S
C717 C733 1.349 . S
C718 C716 1.327 . S
C718 C737 1.429 . S
C718 H742 0.950 . S
C719 C736 1.574 . S
C719 C738 1.368 . S
C719 H743 0.949 . S
H720 C724 0.949 . S
C721 C722 1.349 . S
C721 C723 1.327 . S
C721 H744 0.950 . S
C722 C721 1.349 . S
C722 C734 1.349 . S
C723 C721 1.327 . S
C723 C739 1.429 . S
C723 H745 0.950 . S
C724 H720 0.949 . S
C724 C732 1.574 . S
C724 C740 1.368 . S
H725 C733 0.950 . S
H726 C731 0.950 . S
H727 C732 0.949 . S
H728 C734 0.950 . S
H729 C735 0.950 . S
H730 C736 0.949 . S
C731 H726 0.950 . S
C731 C733 1.327 . S
C731 C737 1.429 . S
C732 C724 1.574 . S
C732 H727 0.949 . S
C732 C738 1.368 . S
C733 C717 1.349 . S
C733 H725 0.950 . S
C733 C731 1.327 . S
C734 C722 1.349 . S
C734 H728 0.950 . S
C734 C735 1.327 . S
C735 H729 0.950 . S
C735 C734 1.327 . S
C735 C739 1.429 . S
C736 C719 1.574 . S
C736 H730 0.949 . S
C736 C740 1.368 . S
C737 C718 1.429 . S
C737 C731 1.429 . S
C737 C738 1.523 . S
C738 C719 1.368 . S
C738 C732 1.368 . S
C738 C737 1.523 . S
C739 C723 1.429 . S
C739 C735 1.429 . S
C739 C740 1.523 . S
C740 C724 1.368 . S
C740 C736 1.368 . S
C740 C739 1.523 . S
H741 C716 0.950 . S
H742 C718 0.950 . S
H743 C719 0.949 . S
H744 C721 0.950 . S
H745 C723 0.950 . S
C746 C747 1.349 . S
C746 C748 1.327 . S
C746 H771 0.950 . S
C747 C746 1.349 . S
C747 C763 1.349 . S
C748 C746 1.327 . S
C748 C767 1.429 . S
C748 H772 0.950 . S
C749 C766 1.574 . S
C749 C768 1.368 . S
C749 H773 0.949 . S
H750 C754 0.949 . S
C751 C752 1.349 . S
C751 C753 1.327 . S
C751 H774 0.950 . S
C752 C751 1.349 . S
C752 C764 1.349 . S
C753 C751 1.327 . S
C753 C769 1.429 . S
C753 H775 0.950 . S
C754 H750 0.949 . S
C754 C762 1.574 . S
C754 C770 1.368 . S
H755 C763 0.950 . S
H756 C761 0.950 . S
H757 C762 0.949 . S
H758 C764 0.950 . S
H759 C765 0.950 . S
H760 C766 0.949 . S
C761 H756 0.950 . S
C761 C763 1.327 . S
C761 C767 1.429 . S
C762 C754 1.574 . S
C762 H757 0.949 . S
C762 C768 1.368 . S
C763 C747 1.349 . S
C763 H755 0.950 . S
C763 C761 1.327 . S
C764 C752 1.349 . S
C764 H758 0.950 . S
C764 C765 1.327 . S
C765 H759 0.950 . S
C765 C764 1.327 . S
C765 C769 1.429 . S
C766 C749 1.574 . S
C766 H760 0.949 . S
C766 C770 1.368 . S
C767 C748 1.429 . S
C767 C761 1.429 . S
C767 C768 1.523 . S
C768 C749 1.368 . S
C768 C762 1.368 . S
C768 C767 1.523 . S
C769 C753 1.429 . S
C769 C765 1.429 . S
C769 C770 1.523 . S
C770 C754 1.368 . S
C770 C766 1.368 . S
C770 C769 1.523 . S
H771 C746 0.950 . S
H772 C748 0.950 . S
H773 C749 0.949 . S
H774 C751 0.950 . S
H775 C753 0.950 . S
C776 C777 1.349 . S
C776 C778 1.327 . S
C776 H801 0.950 . S
C777 C776 1.349 . S
C777 C793 1.349 . S
C778 C776 1.327 . S
C778 C797 1.429 . S
C778 H802 0.950 . S
C779 C796 1.574 . S
C779 C798 1.368 . S
C779 H803 0.949 . S
H780 C784 0.949 . S
C781 C782 1.349 . S
C781 C783 1.327 . S
C781 H804 0.950 . S
C782 C781 1.349 . S
C782 C794 1.349 . S
C783 C781 1.327 . S
C783 C799 1.429 . S
C783 H805 0.950 . S
C784 H780 0.949 . S
C784 C792 1.574 . S
C784 C800 1.368 . S
H785 C793 0.950 . S
H786 C791 0.950 . S
H787 C792 0.949 . S
H788 C794 0.950 . S
H789 C795 0.950 . S
H790 C796 0.949 . S
C791 H786 0.950 . S
C791 C793 1.327 . S
C791 C797 1.429 . S
C792 C784 1.574 . S
C792 H787 0.949 . S
C792 C798 1.368 . S
C793 C777 1.349 . S
C793 H785 0.950 . S
C793 C791 1.327 . S
C794 C782 1.349 . S
C794 H788 0.950 . S
C794 C795 1.327 . S
C795 H789 0.950 . S
C795 C794 1.327 . S
C795 C799 1.429 . S
C796 C779 1.574 . S
C796 H790 0.949 . S
C796 C800 1.368 . S
C797 C778 1.429 . S
C797 C791 1.429 . S
C797 C798 1.523 . S
C798 C779 1.368 . S
C798 C792 1.368 . S
C798 C797 1.523 . S
C799 C783 1.429 . S
C799 C795 1.429 . S
C799 C800 1.523 . S
C800 C784 1.368 . S
C800 C796 1.368 . S
C800 C799 1.523 . S
H801 C776 0.950 . S
H802 C778 0.950 . S
H803 C779 0.949 . S
H804 C781 0.950 . S
H805 C783 0.950 . S
C806 C807 1.349 . S
C806 C808 1.327 . S
C806 H831 0.950 . S
C807 C806 1.349 . S
C807 C823 1.349 . S
C808 C806 1.327 . S
C808 C827 1.429 . S
C808 H832 0.950 . S
C809 C826 1.574 1_554 S
C809 C828 1.368 . S
C809 H833 0.949 . S
H810 C814 0.949 . S
C811 C812 1.349 . S
C811 C813 1.327 . S
C811 H834 0.950 . S
C812 C811 1.349 . S
C812 C824 1.349 . S
C813 C811 1.327 . S
C813 C829 1.429 . S
C813 H835 0.950 . S
C814 H810 0.949 . S
C814 C822 1.574 1_556 S
C814 C830 1.368 . S
H815 C823 0.950 . S
H816 C821 0.950 . S
H817 C822 0.949 . S
H818 C824 0.950 . S
H819 C825 0.950 . S
H820 C826 0.949 . S
C821 H816 0.950 . S
C821 C823 1.327 . S
C821 C827 1.429 . S
C822 C814 1.574 1_554 S
C822 H817 0.949 . S
C822 C828 1.368 . S
C823 C807 1.349 . S
C823 H815 0.950 . S
C823 C821 1.327 . S
C824 C812 1.349 . S
C824 H818 0.950 . S
C824 C825 1.327 . S
C825 H819 0.950 . S
C825 C824 1.327 . S
C825 C829 1.429 . S
C826 C809 1.574 1_556 S
C826 H820 0.949 . S
C826 C830 1.368 . S
C827 C808 1.429 . S
C827 C821 1.429 . S
C827 C828 1.523 . S
C828 C809 1.368 . S
C828 C822 1.368 . S
C828 C827 1.523 . S
C829 C813 1.429 . S
C829 C825 1.429 . S
C829 C830 1.523 . S
C830 C814 1.368 . S
C830 C826 1.368 . S
C830 C829 1.523 . S
H831 C806 0.950 . S
H832 C808 0.950 . S
H833 C809 0.949 . S
H834 C811 0.950 . S
H835 C813 0.950 . S
C836 C837 1.349 . S
C836 C838 1.327 . S
C836 H861 0.950 . S
C837 C836 1.349 . S
C837 C853 1.349 . S
C838 C836 1.327 . S
C838 C857 1.429 . S
C838 H862 0.950 . S
C839 C856 1.574 . S
C839 C858 1.368 . S
C839 H863 0.949 . S
H840 C844 0.949 . S
C841 C842 1.349 . S
C841 C843 1.327 . S
C841 H864 0.950 . S
C842 C841 1.349 . S
C842 C854 1.349 . S
C843 C841 1.327 . S
C843 C859 1.429 . S
C843 H865 0.950 . S
C844 H840 0.949 . S
C844 C852 1.574 . S
C844 C860 1.368 . S
H845 C853 0.950 . S
H846 C851 0.950 . S
H847 C852 0.949 . S
H848 C854 0.950 . S
H849 C855 0.950 . S
H850 C856 0.949 . S
C851 H846 0.950 . S
C851 C853 1.327 . S
C851 C857 1.429 . S
C852 C844 1.574 . S
C852 H847 0.949 . S
C852 C858 1.368 . S
C853 C837 1.349 . S
C853 H845 0.950 . S
C853 C851 1.327 . S
C854 C842 1.349 . S
C854 H848 0.950 . S
C854 C855 1.327 . S
C855 H849 0.950 . S
C855 C854 1.327 . S
C855 C859 1.429 . S
C856 C839 1.574 . S
C856 H850 0.949 . S
C856 C860 1.368 . S
C857 C838 1.429 . S
C857 C851 1.429 . S
C857 C858 1.523 . S
C858 C839 1.368 . S
C858 C852 1.368 . S
C858 C857 1.523 . S
C859 C843 1.429 . S
C859 C855 1.429 . S
C859 C860 1.523 . S
C860 C844 1.368 . S
C860 C856 1.368 . S
C860 C859 1.523 . S
H861 C836 0.950 . S
H862 C838 0.950 . S
H863 C839 0.949 . S
H864 C841 0.950 . S
H865 C843 0.950 . S
C866 C867 1.349 . S
C866 C868 1.327 . S
C866 H891 0.950 . S
C867 C866 1.349 . S
C867 C883 1.349 . S
C868 C866 1.327 . S
C868 C887 1.429 . S
C868 H892 0.950 . S
C869 C886 1.574 . S
C869 C888 1.368 . S
C869 H893 0.949 . S
H870 C874 0.949 . S
C871 C872 1.349 . S
C871 C873 1.327 . S
C871 H894 0.950 . S
C872 C871 1.349 . S
C872 C884 1.349 . S
C873 C871 1.327 . S
C873 C889 1.429 . S
C873 H895 0.950 . S
C874 H870 0.949 . S
C874 C882 1.574 . S
C874 C890 1.368 . S
H875 C883 0.950 . S
H876 C881 0.950 . S
H877 C882 0.949 . S
H878 C884 0.950 . S
H879 C885 0.950 . S
H880 C886 0.949 . S
C881 H876 0.950 . S
C881 C883 1.327 . S
C881 C887 1.429 . S
C882 C874 1.574 . S
C882 H877 0.949 . S
C882 C888 1.368 . S
C883 C867 1.349 . S
C883 H875 0.950 . S
C883 C881 1.327 . S
C884 C872 1.349 . S
C884 H878 0.950 . S
C884 C885 1.327 . S
C885 H879 0.950 . S
C885 C884 1.327 . S
C885 C889 1.429 . S
C886 C869 1.574 . S
C886 H880 0.949 . S
C886 C890 1.368 . S
C887 C868 1.429 . S
C887 C881 1.429 . S
C887 C888 1.523 . S
C888 C869 1.368 . S
C888 C882 1.368 . S
C888 C887 1.523 . S
C889 C873 1.429 . S
C889 C885 1.429 . S
C889 C890 1.523 . S
C890 C874 1.368 . S
C890 C886 1.368 . S
C890 C889 1.523 . S
H891 C866 0.950 . S
H892 C868 0.950 . S
H893 C869 0.949 . S
H894 C871 0.950 . S
H895 C873 0.950 . S
C896 C897 1.349 . S
C896 C898 1.327 . S
C896 H921 0.950 . S
C897 C896 1.349 . S
C897 C913 1.349 . S
C898 C896 1.327 . S
C898 C917 1.429 1_545 S
C898 H922 0.950 . S
C899 C916 1.574 . S
C899 C918 1.368 . S
C899 H923 0.949 . S
H900 C904 0.949 . S
C901 C902 1.349 . S
C901 C903 1.327 . S
C901 H924 0.950 . S
C902 C901 1.349 . S
C902 C914 1.349 . S
C903 C901 1.327 . S
C903 C919 1.429 . S
C903 H925 0.950 . S
C904 H900 0.949 . S
C904 C912 1.574 . S
C904 C920 1.368 . S
H905 C913 0.950 . S
H906 C911 0.941 1_565 S
H907 C912 0.949 . S
H908 C914 0.950 . S
H909 C915 0.950 . S
H910 C916 0.949 . S
C911 H906 0.941 1_545 S
C911 C913 1.342 . S
C911 C917 1.423 1_545 S
C912 C904 1.574 . S
C912 H907 0.949 . S
C912 C918 1.368 . S
C913 C897 1.349 . S
C913 H905 0.950 . S
C913 C911 1.342 . S
C914 C902 1.349 . S
C914 H908 0.950 . S
C914 C915 1.327 . S
C915 H909 0.950 . S
C915 C914 1.327 . S
C915 C919 1.429 . S
C916 C899 1.574 . S
C916 H910 0.949 . S
C916 C920 1.368 . S
C917 C898 1.429 1_565 S
C917 C911 1.423 1_565 S
C917 C918 1.523 . S
C918 C899 1.368 . S
C918 C912 1.368 . S
C918 C917 1.523 . S
C919 C903 1.429 . S
C919 C915 1.429 . S
C919 C920 1.523 . S
C920 C904 1.368 . S
C920 C916 1.368 . S
C920 C919 1.523 . S
H921 C896 0.950 . S
H922 C898 0.950 . S
H923 C899 0.949 . S
H924 C901 0.950 . S
H925 C903 0.950 . S
C926 C927 1.349 . S
C926 C928 1.327 . S
C926 H951 0.950 . S
C927 C926 1.349 . S
C927 C943 1.349 . S
C928 C926 1.327 . S
C928 C947 1.429 . S
C928 H952 0.950 . S
C929 C946 1.574 . S
C929 C948 1.368 . S
C929 H953 0.949 . S
H930 C934 0.949 . S
C931 C932 1.349 . S
C931 C933 1.327 . S
C931 H954 0.950 . S
C932 C931 1.349 . S
C932 C944 1.349 . S
C933 C931 1.327 . S
C933 C949 1.429 1_565 S
C933 H955 0.950 . S
C934 H930 0.949 . S
C934 C942 1.574 . S
C934 C950 1.368 . S
H935 C943 0.950 . S
H936 C941 0.950 . S
H937 C942 0.949 . S
H938 C944 0.950 1_545 S
H939 C945 0.950 . S
H940 C946 0.949 1_565 S
C941 H936 0.950 . S
C941 C943 1.327 . S
C941 C947 1.429 . S
C942 C934 1.574 . S
C942 H937 0.949 . S
C942 C948 1.368 . S
C943 C927 1.349 . S
C943 H935 0.950 . S
C943 C941 1.327 . S
C944 C932 1.349 . S
C944 H938 0.950 1_565 S
C944 C945 1.327 1_565 S
C945 H939 0.950 . S
C945 C944 1.327 1_545 S
C945 C949 1.429 . S
C946 C929 1.574 . S
C946 H940 0.949 1_545 S
C946 C950 1.368 . S
C947 C928 1.429 . S
C947 C941 1.429 . S
C947 C948 1.523 . S
C948 C929 1.368 . S
C948 C942 1.368 . S
C948 C947 1.523 . S
C949 C933 1.429 1_545 S
C949 C945 1.429 . S
C949 C950 1.523 . S
C950 C934 1.368 . S
C950 C946 1.368 . S
C950 C949 1.523 . S
H951 C926 0.950 . S
H952 C928 0.950 . S
H953 C929 0.949 . S
H954 C931 0.950 . S
H955 C933 0.950 . S
C956 C957 1.349 . S
C956 C958 1.327 . S
C956 H981 0.950 . S
C957 C956 1.349 . S
C957 C973 1.349 . S
C958 C956 1.327 . S
C958 C977 1.429 1_565 S
C958 H982 0.950 . S
C959 C976 1.574 . S
C959 C978 1.368 . S
C959 H983 0.949 . S
H960 C964 0.949 . S
C961 C962 1.349 . S
C961 C963 1.327 . S
C961 H984 0.950 . S
C962 C961 1.349 . S
C962 C974 1.349 . S
C963 C961 1.327 . S
C963 C979 1.429 . S
C963 H985 0.950 . S
C964 H960 0.949 . S
C964 C972 1.574 . S
C964 C980 1.368 . S
H965 C973 0.950 . S
H966 C971 0.950 . S
H967 C972 0.949 . S
H968 C974 0.950 . S
H969 C975 0.950 . S
H970 C976 0.949 . S
C971 H966 0.950 . S
C971 C973 1.326 1_545 S
C971 C977 1.429 . S
C972 C964 1.574 . S
C972 H967 0.949 . S
C972 C978 1.368 . S
C973 C957 1.349 . S
C973 H965 0.950 . S
C973 C971 1.326 1_565 S
C974 C962 1.349 . S
C974 H968 0.950 . S
C974 C975 1.327 . S
C975 H969 0.950 . S
C975 C974 1.327 . S
C975 C979 1.429 . S
C976 C959 1.574 . S
C976 H970 0.949 . S
C976 C980 1.368 . S
C977 C958 1.429 1_545 S
C977 C971 1.429 . S
C977 C978 1.523 . S
C978 C959 1.368 . S
C978 C972 1.368 . S
C978 C977 1.523 . S
C979 C963 1.429 . S
C979 C975 1.429 . S
C979 C980 1.523 . S
C980 C964 1.368 . S
C980 C976 1.368 . S
C980 C979 1.523 . S
H981 C956 0.950 . S
H982 C958 0.950 . S
H983 C959 0.949 . S
H984 C961 0.950 . S
H985 C963 0.950 . S
C986 C987 1.349 . S
C986 C988 1.312 1_545 S
C986 H1011 0.950 . S
C987 C986 1.349 . S
C987 C1003 1.349 . S
C988 C986 1.312 1_565 S
C988 C1007 1.434 . S
C988 H1012 0.960 . S
C989 C1006 1.574 . S
C989 C1008 1.368 . S
C989 H1013 0.949 . S
H990 C994 0.949 . S
C991 C992 1.349 . S
C991 C993 1.327 . S
C991 H1014 0.950 . S
C992 C991 1.349 . S
C992 C1004 1.349 . S
C993 C991 1.327 . S
C993 C1009 1.429 . S
C993 H1015 0.950 . S
C994 H990 0.949 . S
C994 C1002 1.574 . S
C994 C1010 1.368 . S
H995 C1003 0.950 . S
H996 C1001 0.950 . S
H997 C1002 0.949 . S
H998 C1004 0.950 . S
H999 C1005 0.950 . S
H1000 C1006 0.949 . S
C1001 H996 0.950 . S
C1001 C1003 1.327 . S
C1001 C1007 1.429 1_545 S
C1002 C994 1.574 . S
C1002 H997 0.949 . S
C1002 C1008 1.368 . S
C1003 C987 1.349 . S
C1003 H995 0.950 . S
C1003 C1001 1.327 . S
C1004 C992 1.349 . S
C1004 H998 0.950 . S
C1004 C1005 1.327 . S
C1005 H999 0.950 . S
C1005 C1004 1.327 . S
C1005 C1009 1.429 . S
C1006 C989 1.574 . S
C1006 H1000 0.949 . S
C1006 C1010 1.368 . S
C1007 C988 1.434 . S
C1007 C1001 1.429 1_565 S
C1007 C1008 1.523 . S
C1008 C989 1.368 . S
C1008 C1002 1.368 . S
C1008 C1007 1.523 . S
C1009 C993 1.429 . S
C1009 C1005 1.429 . S
C1009 C1010 1.523 . S
C1010 C994 1.368 . S
C1010 C1006 1.368 . S
C1010 C1009 1.523 . S
H1011 C986 0.950 . S
H1012 C988 0.960 . S
H1013 C989 0.949 . S
H1014 C991 0.950 . S
H1015 C993 0.950 . S
C1016 C1017 1.349 . S
C1016 C1018 1.327 . S
C1016 H1041 0.950 . S
C1017 C1016 1.349 . S
C1017 C1033 1.349 . S
C1018 C1016 1.327 . S
C1018 C1037 1.429 . S
C1018 H1042 0.950 . S
C1019 C1036 1.574 . S
C1019 C1038 1.368 . S
C1019 H1043 0.949 . S
H1020 C1024 0.949 . S
C1021 C1022 1.349 . S
C1021 C1023 1.327 . S
C1021 H1044 0.950 . S
C1022 C1021 1.349 . S
C1022 C1034 1.349 . S
C1023 C1021 1.327 . S
C1023 C1039 1.429 1_565 S
C1023 H1045 0.952 . S
C1024 H1020 0.949 . S
C1024 C1032 1.574 . S
C1024 C1040 1.368 . S
H1025 C1033 0.950 . S
H1026 C1031 0.950 . S
H1027 C1032 0.949 . S
H1028 C1034 0.950 . S
H1029 C1035 0.950 1_545 S
H1030 C1036 0.949 . S
C1031 H1026 0.950 . S
C1031 C1033 1.327 . S
C1031 C1037 1.429 . S
C1032 C1024 1.574 . S
C1032 H1027 0.949 . S
C1032 C1038 1.368 . S
C1033 C1017 1.349 . S
C1033 H1025 0.950 . S
C1033 C1031 1.327 . S
C1034 C1022 1.349 . S
C1034 H1028 0.950 . S
C1034 C1035 1.327 . S
C1035 H1029 0.950 1_565 S
C1035 C1034 1.327 . S
C1035 C1039 1.429 1_565 S
C1036 C1019 1.574 . S
C1036 H1030 0.949 . S
C1036 C1040 1.368 . S
C1037 C1018 1.429 . S
C1037 C1031 1.429 . S
C1037 C1038 1.523 . S
C1038 C1019 1.368 . S
C1038 C1032 1.368 . S
C1038 C1037 1.523 . S
C1039 C1023 1.429 1_545 S
C1039 C1035 1.429 1_545 S
C1039 C1040 1.523 . S
C1040 C1024 1.368 . S
C1040 C1036 1.368 . S
C1040 C1039 1.523 . S
H1041 C1016 0.950 . S
H1042 C1018 0.950 . S
H1043 C1019 0.949 . S
H1044 C1021 0.950 . S
H1045 C1023 0.952 . S
C1046 C1047 1.349 . S
C1046 C1048 1.327 . S
C1046 H1071 0.950 . S
C1047 C1046 1.349 . S
C1047 C1063 1.349 . S
C1048 C1046 1.327 . S
C1048 C1067 1.429 1_545 S
C1048 H1072 0.950 . S
C1049 C1066 1.574 . S
C1049 C1068 1.368 . S
C1049 H1073 0.949 . S
H1050 C1054 0.949 . S
C1051 C1052 1.349 . S
C1051 C1053 1.327 . S
C1051 H1074 0.950 . S
C1052 C1051 1.349 . S
C1052 C1064 1.349 . S
C1053 C1051 1.327 . S
C1053 C1069 1.429 . S
C1053 H1075 0.950 . S
C1054 H1050 0.949 . S
C1054 C1062 1.574 . S
C1054 C1070 1.368 . S
H1055 C1063 0.950 . S
H1056 C1061 0.950 . S
H1057 C1062 0.994 . S
H1058 C1064 0.950 . S
H1059 C1065 0.950 . S
H1060 C1066 0.949 . S
C1061 H1056 0.950 . S
C1061 C1063 1.327 1_565 S
C1061 C1067 1.429 . S
C1062 C1054 1.574 . S
C1062 H1057 0.994 . S
C1062 C1068 1.368 . S
C1063 C1047 1.349 . S
C1063 H1055 0.950 . S
C1063 C1061 1.327 1_545 S
C1064 C1052 1.349 . S
C1064 H1058 0.950 . S
C1064 C1065 1.327 . S
C1065 H1059 0.950 . S
C1065 C1064 1.327 . S
C1065 C1069 1.429 . S
C1066 C1049 1.574 . S
C1066 H1060 0.949 . S
C1066 C1070 1.368 . S
C1067 C1048 1.429 1_565 S
C1067 C1061 1.429 . S
C1067 C1068 1.523 . S
C1068 C1049 1.368 . S
C1068 C1062 1.368 . S
C1068 C1067 1.523 . S
C1069 C1053 1.429 . S
C1069 C1065 1.429 . S
C1069 C1070 1.523 . S
C1070 C1054 1.368 . S
C1070 C1066 1.368 . S
C1070 C1069 1.523 . S
H1071 C1046 0.950 . S
H1072 C1048 0.950 . S
H1073 C1049 0.949 . S
H1074 C1051 0.950 . S
H1075 C1053 0.950 . S
C1076 C1077 1.349 . S
C1076 C1078 1.327 . S
C1076 H1101 0.950 . S
C1077 C1076 1.349 . S
C1077 C1093 1.349 . S
C1078 C1076 1.327 . S
C1078 C1097 1.429 . S
C1078 H1102 0.950 . S
C1079 C1096 1.574 . S
C1079 C1098 1.368 . S
C1079 H1103 0.949 . S
H1080 C1084 0.949 . S
C1081 C1082 1.349 . S
C1081 C1083 1.327 . S
C1081 H1104 0.950 . S
C1082 C1081 1.349 . S
C1082 C1094 1.349 . S
C1083 C1081 1.327 . S
C1083 C1099 1.429 1_545 S
C1083 H1105 0.950 . S
C1084 H1080 0.949 . S
C1084 C1092 1.574 . S
C1084 C1100 1.368 . S
H1085 C1093 0.950 . S
H1086 C1091 0.950 . S
H1087 C1092 0.949 . S
H1088 C1094 0.950 . S
H1089 C1095 0.950 . S
H1090 C1096 0.949 . S
C1091 H1086 0.950 . S
C1091 C1093 1.327 . S
C1091 C1097 1.429 . S
C1092 C1084 1.574 . S
C1092 H1087 0.949 . S
C1092 C1098 1.368 . S
C1093 C1077 1.349 . S
C1093 H1085 0.950 . S
C1093 C1091 1.327 . S
C1094 C1082 1.349 . S
C1094 H1088 0.950 . S
C1094 C1095 1.327 1_545 S
C1095 H1089 0.950 . S
C1095 C1094 1.327 1_565 S
C1095 C1099 1.429 . S
C1096 C1079 1.574 . S
C1096 H1090 0.949 . S
C1096 C1100 1.368 . S
C1097 C1078 1.429 . S
C1097 C1091 1.429 . S
C1097 C1098 1.523 . S
C1098 C1079 1.368 . S
C1098 C1092 1.368 . S
C1098 C1097 1.523 . S
C1099 C1083 1.429 1_565 S
C1099 C1095 1.429 . S
C1099 C1100 1.523 . S
C1100 C1084 1.368 . S
C1100 C1096 1.368 . S
C1100 C1099 1.523 . S
H1101 C1076 0.950 . S
H1102 C1078 0.950 . S
H1103 C1079 0.949 . S
H1104 C1081 0.950 . S
H1105 C1083 0.950 . S
C1106 C1107 1.349 . S
C1106 C1108 1.327 . S
C1106 H1131 0.950 . S
C1107 C1106 1.349 . S
C1107 C1123 1.349 . S
C1108 C1106 1.327 . S
C1108 C1127 1.429 . S
C1108 H1132 0.950 . S
C1109 C1126 1.574 . S
C1109 C1128 1.368 . S
C1109 H1133 0.949 . S
H1110 C1114 0.949 . S
C1111 C1112 1.349 . S
C1111 C1113 1.327 . S
C1111 H1134 0.950 . S
C1112 C1111 1.349 . S
C1112 C1124 1.349 . S
C1113 C1111 1.327 . S
C1113 C1129 1.429 1_565 S
C1113 H1135 0.950 . S
C1114 H1110 0.949 . S
C1114 C1122 1.574 . S
C1114 C1130 1.368 . S
H1115 C1123 0.950 . S
H1116 C1121 0.950 . S
H1117 C1122 0.949 . S
H1118 C1124 0.950 . S
H1119 C1125 0.975 . S
H1120 C1126 0.949 . S
C1121 H1116 0.950 . S
C1121 C1123 1.327 . S
C1121 C1127 1.429 . S
C1122 C1114 1.574 . S
C1122 H1117 0.949 . S
C1122 C1128 1.368 . S
C1123 C1107 1.349 . S
C1123 H1115 0.950 . S
C1123 C1121 1.327 . S
C1124 C1112 1.349 . S
C1124 H1118 0.950 . S
C1124 C1125 1.293 1_565 S
C1125 H1119 0.975 . S
C1125 C1124 1.293 1_545 S
C1125 C1129 1.440 . S
C1126 C1109 1.574 . S
C1126 H1120 0.949 . S
C1126 C1130 1.368 . S
C1127 C1108 1.429 . S
C1127 C1121 1.429 . S
C1127 C1128 1.523 . S
C1128 C1109 1.368 . S
C1128 C1122 1.368 . S
C1128 C1127 1.523 . S
C1129 C1113 1.429 1_545 S
C1129 C1125 1.440 . S
C1129 C1130 1.523 . S
C1130 C1114 1.368 . S
C1130 C1126 1.368 . S
C1130 C1129 1.523 . S
H1131 C1106 0.950 . S
H1132 C1108 0.950 . S
H1133 C1109 0.949 . S
H1134 C1111 0.950 . S
H1135 C1113 0.950 . S
C1136 C1137 1.349 . S
C1136 C1138 1.327 . S
C1136 H1161 0.950 . S
C1137 C1136 1.349 . S
C1137 C1153 1.349 . S
C1138 C1136 1.327 . S
C1138 C1157 1.429 . S
C1138 H1162 0.950 . S
C1139 C1156 1.574 . S
C1139 C1158 1.368 . S
C1139 H1163 0.949 . S
H1140 C1144 0.949 . S
C1141 C1142 1.349 . S
C1141 C1143 1.327 . S
C1141 H1164 0.950 . S
C1142 C1141 1.349 . S
C1142 C1154 1.349 . S
C1143 C1141 1.327 . S
C1143 C1159 1.429 . S
C1143 H1165 0.950 . S
C1144 H1140 0.949 . S
C1144 C1152 1.574 . S
C1144 C1160 1.368 . S
H1145 C1153 0.950 . S
H1146 C1151 0.950 . S
H1147 C1152 0.949 . S
H1148 C1154 0.950 . S
H1149 C1155 0.950 . S
H1150 C1156 0.949 . S
C1151 H1146 0.950 . S
C1151 C1153 1.327 . S
C1151 C1157 1.429 . S
C1152 C1144 1.574 . S
C1152 H1147 0.949 . S
C1152 C1158 1.368 . S
C1153 C1137 1.349 . S
C1153 H1145 0.950 . S
C1153 C1151 1.327 . S
C1154 C1142 1.349 . S
C1154 H1148 0.950 . S
C1154 C1155 1.327 . S
C1155 H1149 0.950 . S
C1155 C1154 1.327 . S
C1155 C1159 1.429 . S
C1156 C1139 1.574 . S
C1156 H1150 0.949 . S
C1156 C1160 1.368 . S
C1157 C1138 1.429 . S
C1157 C1151 1.429 . S
C1157 C1158 1.523 . S
C1158 C1139 1.368 . S
C1158 C1152 1.368 . S
C1158 C1157 1.523 . S
C1159 C1143 1.429 . S
C1159 C1155 1.429 . S
C1159 C1160 1.523 . S
C1160 C1144 1.368 . S
C1160 C1156 1.368 . S
C1160 C1159 1.523 . S
H1161 C1136 0.950 . S
H1162 C1138 0.950 . S
H1163 C1139 0.949 . S
H1164 C1141 0.950 . S
H1165 C1143 0.950 . S
C1166 C1167 1.349 . S
C1166 C1168 1.327 . S
C1166 H1191 0.950 . S
C1167 C1166 1.349 . S
C1167 C1183 1.349 . S
C1168 C1166 1.327 . S
C1168 C1187 1.429 . S
C1168 H1192 0.950 . S
C1169 C1186 1.574 . S
C1169 C1188 1.368 . S
C1169 H1193 0.949 . S
H1170 C1174 0.949 . S
C1171 C1172 1.349 . S
C1171 C1173 1.327 . S
C1171 H1194 0.950 . S
C1172 C1171 1.349 . S
C1172 C1184 1.349 . S
C1173 C1171 1.327 . S
C1173 C1189 1.429 . S
C1173 H1195 0.950 . S
C1174 H1170 0.949 . S
C1174 C1182 1.574 . S
C1174 C1190 1.368 . S
H1175 C1183 0.950 . S
H1176 C1181 0.950 . S
H1177 C1182 0.949 . S
H1178 C1184 0.950 . S
H1179 C1185 0.950 . S
H1180 C1186 0.949 . S
C1181 H1176 0.950 . S
C1181 C1183 1.327 . S
C1181 C1187 1.429 . S
C1182 C1174 1.574 . S
C1182 H1177 0.949 . S
C1182 C1188 1.368 . S
C1183 C1167 1.349 . S
C1183 H1175 0.950 . S
C1183 C1181 1.327 . S
C1184 C1172 1.349 . S
C1184 H1178 0.950 . S
C1184 C1185 1.327 . S
C1185 H1179 0.950 . S
C1185 C1184 1.327 . S
C1185 C1189 1.429 . S
C1186 C1169 1.574 . S
C1186 H1180 0.949 . S
C1186 C1190 1.368 . S
C1187 C1168 1.429 . S
C1187 C1181 1.429 . S
C1187 C1188 1.523 . S
C1188 C1169 1.368 . S
C1188 C1182 1.368 . S
C1188 C1187 1.523 . S
C1189 C1173 1.429 . S
C1189 C1185 1.429 . S
C1189 C1190 1.523 . S
C1190 C1174 1.368 . S
C1190 C1186 1.368 . S
C1190 C1189 1.523 . S
H1191 C1166 0.950 . S
H1192 C1168 0.950 . S
H1193 C1169 0.949 . S
H1194 C1171 0.950 . S
H1195 C1173 0.950 . S
C1196 C1197 1.349 . S
C1196 C1198 1.327 . S
C1196 H1221 0.950 . S
C1197 C1196 1.349 . S
C1197 C1213 1.349 . S
C1198 C1196 1.327 . S
C1198 C1217 1.429 . S
C1198 H1222 0.950 . S
C1199 C1216 1.574 . S
C1199 C1218 1.368 . S
C1199 H1223 0.949 . S
H1200 C1204 0.949 . S
C1201 C1202 1.349 . S
C1201 C1203 1.327 . S
C1201 H1224 0.950 . S
C1202 C1201 1.349 . S
C1202 C1214 1.349 . S
C1203 C1201 1.327 . S
C1203 C1219 1.429 . S
C1203 H1225 0.950 . S
C1204 H1200 0.949 . S
C1204 C1212 1.574 . S
C1204 C1220 1.368 . S
H1205 C1213 0.950 . S
H1206 C1211 0.950 . S
H1207 C1212 0.949 . S
H1208 C1214 0.950 . S
H1209 C1215 0.950 . S
H1210 C1216 0.949 . S
C1211 H1206 0.950 . S
C1211 C1213 1.327 . S
C1211 C1217 1.429 . S
C1212 C1204 1.574 . S
C1212 H1207 0.949 . S
C1212 C1218 1.368 . S
C1213 C1197 1.349 . S
C1213 H1205 0.950 . S
C1213 C1211 1.327 . S
C1214 C1202 1.349 . S
C1214 H1208 0.950 . S
C1214 C1215 1.327 . S
C1215 H1209 0.950 . S
C1215 C1214 1.327 . S
C1215 C1219 1.429 . S
C1216 C1199 1.574 . S
C1216 H1210 0.949 . S
C1216 C1220 1.368 . S
C1217 C1198 1.429 . S
C1217 C1211 1.429 . S
C1217 C1218 1.523 . S
C1218 C1199 1.368 . S
C1218 C1212 1.368 . S
C1218 C1217 1.523 . S
C1219 C1203 1.429 . S
C1219 C1215 1.429 . S
C1219 C1220 1.523 . S
C1220 C1204 1.368 . S
C1220 C1216 1.368 . S
C1220 C1219 1.523 . S
H1221 C1196 0.950 . S
H1222 C1198 0.950 . S
H1223 C1199 0.949 . S
H1224 C1201 0.950 . S
H1225 C1203 0.950 . S
C1226 C1227 1.349 . S
C1226 C1228 1.327 . S
C1226 H1251 0.950 . S
C1227 C1226 1.349 . S
C1227 C1243 1.349 . S
C1228 C1226 1.327 . S
C1228 C1247 1.429 . S
C1228 H1252 0.950 . S
C1229 C1246 1.574 . S
C1229 C1248 1.368 . S
C1229 H1253 0.949 . S
H1230 C1234 0.949 . S
C1231 C1232 1.349 . S
C1231 C1233 1.327 . S
C1231 H1254 0.950 . S
C1232 C1231 1.349 . S
C1232 C1244 1.349 . S
C1233 C1231 1.327 . S
C1233 C1249 1.429 . S
C1233 H1255 0.950 . S
C1234 H1230 0.949 . S
C1234 C1242 1.574 . S
C1234 C1250 1.368 . S
H1235 C1243 0.950 . S
H1236 C1241 0.950 . S
H1237 C1242 0.949 . S
H1238 C1244 0.950 . S
H1239 C1245 0.950 . S
H1240 C1246 0.949 . S
C1241 H1236 0.950 . S
C1241 C1243 1.327 . S
C1241 C1247 1.429 . S
C1242 C1234 1.574 . S
C1242 H1237 0.949 . S
C1242 C1248 1.368 . S
C1243 C1227 1.349 . S
C1243 H1235 0.950 . S
C1243 C1241 1.327 . S
C1244 C1232 1.349 . S
C1244 H1238 0.950 . S
C1244 C1245 1.327 . S
C1245 H1239 0.950 . S
C1245 C1244 1.327 . S
C1245 C1249 1.429 . S
C1246 C1229 1.574 . S
C1246 H1240 0.949 . S
C1246 C1250 1.368 . S
C1247 C1228 1.429 . S
C1247 C1241 1.429 . S
C1247 C1248 1.523 . S
C1248 C1229 1.368 . S
C1248 C1242 1.368 . S
C1248 C1247 1.523 . S
C1249 C1233 1.429 . S
C1249 C1245 1.429 . S
C1249 C1250 1.523 . S
C1250 C1234 1.368 . S
C1250 C1246 1.368 . S
C1250 C1249 1.523 . S
H1251 C1226 0.950 . S
H1252 C1228 0.950 . S
H1253 C1229 0.949 . S
H1254 C1231 0.950 . S
H1255 C1233 0.950 . S
C1256 C1257 1.349 . S
C1256 C1258 1.327 . S
C1256 H1281 0.950 . S
C1257 C1256 1.349 . S
C1257 C1273 1.349 . S
C1258 C1256 1.327 . S
C1258 C1277 1.429 . S
C1258 H1282 0.950 . S
C1259 C1276 1.574 . S
C1259 C1278 1.368 . S
C1259 H1283 0.949 . S
H1260 C1264 0.949 . S
C1261 C1262 1.349 . S
C1261 C1263 1.327 . S
C1261 H1284 0.950 . S
C1262 C1261 1.349 . S
C1262 C1274 1.349 . S
C1263 C1261 1.327 . S
C1263 C1279 1.429 . S
C1263 H1285 0.950 . S
C1264 H1260 0.949 . S
C1264 C1272 1.574 . S
C1264 C1280 1.368 . S
H1265 C1273 0.950 . S
H1266 C1271 0.950 . S
H1267 C1272 0.949 . S
H1268 C1274 0.950 . S
H1269 C1275 0.950 . S
H1270 C1276 0.949 . S
C1271 H1266 0.950 . S
C1271 C1273 1.327 . S
C1271 C1277 1.429 . S
C1272 C1264 1.574 . S
C1272 H1267 0.949 . S
C1272 C1278 1.368 . S
C1273 C1257 1.349 . S
C1273 H1265 0.950 . S
C1273 C1271 1.327 . S
C1274 C1262 1.349 . S
C1274 H1268 0.950 . S
C1274 C1275 1.327 . S
C1275 H1269 0.950 . S
C1275 C1274 1.327 . S
C1275 C1279 1.429 . S
C1276 C1259 1.574 . S
C1276 H1270 0.949 . S
C1276 C1280 1.368 . S
C1277 C1258 1.429 . S
C1277 C1271 1.429 . S
C1277 C1278 1.523 . S
C1278 C1259 1.368 . S
C1278 C1272 1.368 . S
C1278 C1277 1.523 . S
C1279 C1263 1.429 . S
C1279 C1275 1.429 . S
C1279 C1280 1.523 . S
C1280 C1264 1.368 . S
C1280 C1276 1.368 . S
C1280 C1279 1.523 . S
H1281 C1256 0.950 . S
H1282 C1258 0.950 . S
H1283 C1259 0.949 . S
H1284 C1261 0.950 . S
H1285 C1263 0.950 . S
C1286 C1287 1.349 . S
C1286 C1288 1.327 . S
C1286 H1311 0.950 . S
C1287 C1286 1.349 . S
C1287 C1303 1.349 . S
C1288 C1286 1.327 . S
C1288 C1307 1.429 . S
C1288 H1312 0.950 . S
C1289 C1306 1.574 . S
C1289 C1308 1.368 . S
C1289 H1313 0.949 . S
H1290 C1294 0.949 . S
C1291 C1292 1.349 . S
C1291 C1293 1.327 . S
C1291 H1314 0.950 . S
C1292 C1291 1.349 . S
C1292 C1304 1.349 . S
C1293 C1291 1.327 . S
C1293 C1309 1.429 . S
C1293 H1315 0.950 . S
C1294 H1290 0.949 . S
C1294 C1302 1.574 . S
C1294 C1310 1.368 . S
H1295 C1303 0.950 . S
H1296 C1301 0.950 . S
H1297 C1302 0.949 . S
H1298 C1304 0.950 . S
H1299 C1305 0.950 . S
H1300 C1306 0.949 . S
C1301 H1296 0.950 . S
C1301 C1303 1.327 . S
C1301 C1307 1.429 . S
C1302 C1294 1.574 . S
C1302 H1297 0.949 . S
C1302 C1308 1.368 . S
C1303 C1287 1.349 . S
C1303 H1295 0.950 . S
C1303 C1301 1.327 . S
C1304 C1292 1.349 . S
C1304 H1298 0.950 . S
C1304 C1305 1.327 . S
C1305 H1299 0.950 . S
C1305 C1304 1.327 . S
C1305 C1309 1.429 . S
C1306 C1289 1.574 . S
C1306 H1300 0.949 . S
C1306 C1310 1.368 . S
C1307 C1288 1.429 . S
C1307 C1301 1.429 . S
C1307 C1308 1.523 . S
C1308 C1289 1.368 . S
C1308 C1302 1.368 . S
C1308 C1307 1.523 . S
C1309 C1293 1.429 . S
C1309 C1305 1.429 . S
C1309 C1310 1.523 . S
C1310 C1294 1.368 . S
C1310 C1306 1.368 . S
C1310 C1309 1.523 . S
H1311 C1286 0.950 . S
H1312 C1288 0.950 . S
H1313 C1289 0.949 . S
H1314 C1291 0.950 . S
H1315 C1293 0.950 . S
C1316 C1317 1.349 . S
C1316 C1318 1.327 . S
C1316 H1341 0.950 . S
C1317 C1316 1.349 . S
C1317 C1333 1.349 . S
C1318 C1316 1.327 . S
C1318 C1337 1.429 . S
C1318 H1342 0.950 . S
C1319 C1336 1.574 . S
C1319 C1338 1.368 . S
C1319 H1343 0.949 . S
H1320 C1324 0.949 . S
C1321 C1322 1.349 . S
C1321 C1323 1.327 . S
C1321 H1344 0.950 . S
C1322 C1321 1.349 . S
C1322 C1334 1.349 . S
C1323 C1321 1.327 . S
C1323 C1339 1.429 . S
C1323 H1345 0.950 . S
C1324 H1320 0.949 . S
C1324 C1332 1.574 . S
C1324 C1340 1.368 . S
H1325 C1333 0.950 . S
H1326 C1331 0.950 . S
H1327 C1332 0.949 . S
H1328 C1334 0.950 . S
H1329 C1335 0.950 . S
H1330 C1336 0.949 . S
C1331 H1326 0.950 . S
C1331 C1333 1.327 . S
C1331 C1337 1.429 . S
C1332 C1324 1.574 . S
C1332 H1327 0.949 . S
C1332 C1338 1.368 . S
C1333 C1317 1.349 . S
C1333 H1325 0.950 . S
C1333 C1331 1.327 . S
C1334 C1322 1.349 . S
C1334 H1328 0.950 . S
C1334 C1335 1.327 . S
C1335 H1329 0.950 . S
C1335 C1334 1.327 . S
C1335 C1339 1.429 . S
C1336 C1319 1.574 . S
C1336 H1330 0.949 . S
C1336 C1340 1.368 . S
C1337 C1318 1.429 . S
C1337 C1331 1.429 . S
C1337 C1338 1.523 . S
C1338 C1319 1.368 . S
C1338 C1332 1.368 . S
C1338 C1337 1.523 . S
C1339 C1323 1.429 . S
C1339 C1335 1.429 . S
C1339 C1340 1.523 . S
C1340 C1324 1.368 . S
C1340 C1336 1.368 . S
C1340 C1339 1.523 . S
H1341 C1316 0.950 . S
H1342 C1318 0.950 . S
H1343 C1319 0.949 . S
H1344 C1321 0.950 . S
H1345 C1323 0.950 . S
C1346 C1347 1.349 . S
C1346 C1348 1.327 . S
C1346 H1371 0.950 . S
C1347 C1346 1.349 . S
C1347 C1363 1.349 . S
C1348 C1346 1.327 . S
C1348 C1367 1.429 . S
C1348 H1372 0.950 . S
C1349 C1366 1.574 . S
C1349 C1368 1.368 . S
C1349 H1373 0.949 . S
H1350 C1354 0.949 . S
C1351 C1352 1.349 . S
C1351 C1353 1.327 . S
C1351 H1374 0.950 . S
C1352 C1351 1.349 . S
C1352 C1364 1.349 . S
C1353 C1351 1.327 . S
C1353 C1369 1.429 . S
C1353 H1375 0.950 . S
C1354 H1350 0.949 . S
C1354 C1362 1.574 . S
C1354 C1370 1.368 . S
H1355 C1363 0.950 . S
H1356 C1361 0.950 . S
H1357 C1362 0.949 . S
H1358 C1364 0.950 . S
H1359 C1365 0.950 . S
H1360 C1366 0.949 . S
C1361 H1356 0.950 . S
C1361 C1363 1.327 . S
C1361 C1367 1.429 . S
C1362 C1354 1.574 . S
C1362 H1357 0.949 . S
C1362 C1368 1.368 . S
C1363 C1347 1.349 . S
C1363 H1355 0.950 . S
C1363 C1361 1.327 . S
C1364 C1352 1.349 . S
C1364 H1358 0.950 . S
C1364 C1365 1.327 . S
C1365 H1359 0.950 . S
C1365 C1364 1.327 . S
C1365 C1369 1.429 . S
C1366 C1349 1.574 . S
C1366 H1360 0.949 . S
C1366 C1370 1.368 . S
C1367 C1348 1.429 . S
C1367 C1361 1.429 . S
C1367 C1368 1.523 . S
C1368 C1349 1.368 . S
C1368 C1362 1.368 . S
C1368 C1367 1.523 . S
C1369 C1353 1.429 . S
C1369 C1365 1.429 . S
C1369 C1370 1.523 . S
C1370 C1354 1.368 . S
C1370 C1366 1.368 . S
C1370 C1369 1.523 . S
H1371 C1346 0.950 . S
H1372 C1348 0.950 . S
H1373 C1349 0.949 . S
H1374 C1351 0.950 . S
H1375 C1353 0.950 . S
C1376 C1377 1.349 . S
C1376 C1378 1.327 . S
C1376 H1401 0.950 . S
C1377 C1376 1.349 . S
C1377 C1393 1.349 . S
C1378 C1376 1.327 . S
C1378 C1397 1.429 . S
C1378 H1402 0.950 . S
C1379 C1396 1.574 . S
C1379 C1398 1.368 . S
C1379 H1403 0.949 . S
H1380 C1384 0.949 . S
C1381 C1382 1.349 . S
C1381 C1383 1.327 . S
C1381 H1404 0.950 . S
C1382 C1381 1.349 . S
C1382 C1394 1.349 . S
C1383 C1381 1.327 . S
C1383 C1399 1.429 . S
C1383 H1405 0.950 . S
C1384 H1380 0.949 . S
C1384 C1392 1.574 . S
C1384 C1400 1.368 . S
H1385 C1393 0.950 . S
H1386 C1391 0.950 . S
H1387 C1392 0.949 . S
H1388 C1394 0.950 . S
H1389 C1395 0.950 . S
H1390 C1396 0.949 . S
C1391 H1386 0.950 . S
C1391 C1393 1.327 . S
C1391 C1397 1.429 . S
C1392 C1384 1.574 . S
C1392 H1387 0.949 . S
C1392 C1398 1.368 . S
C1393 C1377 1.349 . S
C1393 H1385 0.950 . S
C1393 C1391 1.327 . S
C1394 C1382 1.349 . S
C1394 H1388 0.950 . S
C1394 C1395 1.327 . S
C1395 H1389 0.950 . S
C1395 C1394 1.327 . S
C1395 C1399 1.429 . S
C1396 C1379 1.574 . S
C1396 H1390 0.949 . S
C1396 C1400 1.368 . S
C1397 C1378 1.429 . S
C1397 C1391 1.429 . S
C1397 C1398 1.523 . S
C1398 C1379 1.368 . S
C1398 C1392 1.368 . S
C1398 C1397 1.523 . S
C1399 C1383 1.429 . S
C1399 C1395 1.429 . S
C1399 C1400 1.523 . S
C1400 C1384 1.368 . S
C1400 C1396 1.368 . S
C1400 C1399 1.523 . S
H1401 C1376 0.950 . S
H1402 C1378 0.950 . S
H1403 C1379 0.949 . S
H1404 C1381 0.950 . S
H1405 C1383 0.950 . S
C1406 C1407 1.349 . S
C1406 C1408 1.327 . S
C1406 H1431 0.950 . S
C1407 C1406 1.349 . S
C1407 C1423 1.349 . S
C1408 C1406 1.327 . S
C1408 C1427 1.429 . S
C1408 H1432 0.950 . S
C1409 C1426 1.574 . S
C1409 C1428 1.368 . S
C1409 H1433 0.949 . S
H1410 C1414 0.949 . S
C1411 C1412 1.349 . S
C1411 C1413 1.327 . S
C1411 H1434 0.950 . S
C1412 C1411 1.349 . S
C1412 C1424 1.349 . S
C1413 C1411 1.327 . S
C1413 C1429 1.429 . S
C1413 H1435 0.950 . S
C1414 H1410 0.949 . S
C1414 C1422 1.574 . S
C1414 C1430 1.368 . S
H1415 C1423 0.950 . S
H1416 C1421 0.950 . S
H1417 C1422 0.949 . S
H1418 C1424 0.950 . S
H1419 C1425 0.976 . S
H1420 C1426 0.949 . S
C1421 H1416 0.950 . S
C1421 C1423 1.327 . S
C1421 C1427 1.429 . S
C1422 C1414 1.574 . S
C1422 H1417 0.949 . S
C1422 C1428 1.368 . S
C1423 C1407 1.349 . S
C1423 H1415 0.950 . S
C1423 C1421 1.327 . S
C1424 C1412 1.349 . S
C1424 H1418 0.950 . S
C1424 C1425 1.327 . S
C1425 H1419 0.976 . S
C1425 C1424 1.327 . S
C1425 C1429 1.429 . S
C1426 C1409 1.574 . S
C1426 H1420 0.949 . S
C1426 C1430 1.368 . S
C1427 C1408 1.429 . S
C1427 C1421 1.429 . S
C1427 C1428 1.523 . S
C1428 C1409 1.368 . S
C1428 C1422 1.368 . S
C1428 C1427 1.523 . S
C1429 C1413 1.429 . S
C1429 C1425 1.429 . S
C1429 C1430 1.523 1_655 S
C1430 C1414 1.368 . S
C1430 C1426 1.368 . S
C1430 C1429 1.523 1_455 S
H1431 C1406 0.950 . S
H1432 C1408 0.950 . S
H1433 C1409 0.949 . S
H1434 C1411 0.950 . S
H1435 C1413 0.950 . S
C1436 C1437 1.349 . S
C1436 C1438 1.327 . S
C1436 H1461 0.950 . S
C1437 C1436 1.349 . S
C1437 C1453 1.349 . S
C1438 C1436 1.327 . S
C1438 C1457 1.429 . S
C1438 H1462 0.950 . S
C1439 C1456 1.574 . S
C1439 C1458 1.368 . S
C1439 H1463 0.949 . S
H1440 C1444 0.949 . S
C1441 C1442 1.349 . S
C1441 C1443 1.327 . S
C1441 H1464 0.950 . S
C1442 C1441 1.349 . S
C1442 C1454 1.349 . S
C1443 C1441 1.327 . S
C1443 C1459 1.429 . S
C1443 H1465 0.950 . S
C1444 H1440 0.949 . S
C1444 C1452 1.574 . S
C1444 C1460 1.368 . S
H1445 C1453 0.950 . S
H1446 C1451 0.950 . S
H1447 C1452 0.949 . S
H1448 C1454 0.950 . S
H1449 C1455 0.950 . S
H1450 C1456 0.949 . S
C1451 H1446 0.950 . S
C1451 C1453 1.327 . S
C1451 C1457 1.429 . S
C1452 C1444 1.574 . S
C1452 H1447 0.949 . S
C1452 C1458 1.368 . S
C1453 C1437 1.349 . S
C1453 H1445 0.950 . S
C1453 C1451 1.327 . S
C1454 C1442 1.349 . S
C1454 H1448 0.950 . S
C1454 C1455 1.327 . S
C1455 H1449 0.950 . S
C1455 C1454 1.327 . S
C1455 C1459 1.429 . S
C1456 C1439 1.574 . S
C1456 H1450 0.949 . S
C1456 C1460 1.368 . S
C1457 C1438 1.429 . S
C1457 C1451 1.429 . S
C1457 C1458 1.523 . S
C1458 C1439 1.368 . S
C1458 C1452 1.368 . S
C1458 C1457 1.523 . S
C1459 C1443 1.429 . S
C1459 C1455 1.429 . S
C1459 C1460 1.523 . S
C1460 C1444 1.368 . S
C1460 C1456 1.368 . S
C1460 C1459 1.523 . S
H1461 C1436 0.950 . S
H1462 C1438 0.950 . S
H1463 C1439 0.949 . S
H1464 C1441 0.950 . S
H1465 C1443 0.950 . S
C1466 C1467 1.349 . S
C1466 C1468 1.327 . S
C1466 H1491 0.950 . S
C1467 C1466 1.349 . S
C1467 C1483 1.349 . S
C1468 C1466 1.327 . S
C1468 C1487 1.429 . S
C1468 H1492 0.950 . S
C1469 C1486 1.574 . S
C1469 C1488 1.368 . S
C1469 H1493 0.949 . S
H1470 C1474 0.949 . S
C1471 C1472 1.349 . S
C1471 C1473 1.327 . S
C1471 H1494 0.950 . S
C1472 C1471 1.349 . S
C1472 C1484 1.349 . S
C1473 C1471 1.327 . S
C1473 C1489 1.429 . S
C1473 H1495 0.950 . S
C1474 H1470 0.949 . S
C1474 C1482 1.574 . S
C1474 C1490 1.368 . S
H1475 C1483 0.950 . S
H1476 C1481 0.950 . S
H1477 C1482 0.949 . S
H1478 C1484 0.950 . S
H1479 C1485 0.950 . S
H1480 C1486 0.949 . S
C1481 H1476 0.950 . S
C1481 C1483 1.327 . S
C1481 C1487 1.429 . S
C1482 C1474 1.574 . S
C1482 H1477 0.949 . S
C1482 C1488 1.368 . S
C1483 C1467 1.349 . S
C1483 H1475 0.950 . S
C1483 C1481 1.327 . S
C1484 C1472 1.349 . S
C1484 H1478 0.950 . S
C1484 C1485 1.327 . S
C1485 H1479 0.950 . S
C1485 C1484 1.327 . S
C1485 C1489 1.429 . S
C1486 C1469 1.574 . S
C1486 H1480 0.949 . S
C1486 C1490 1.368 . S
C1487 C1468 1.429 . S
C1487 C1481 1.429 . S
C1487 C1488 1.523 . S
C1488 C1469 1.368 . S
C1488 C1482 1.368 . S
C1488 C1487 1.523 . S
C1489 C1473 1.429 . S
C1489 C1485 1.429 . S
C1489 C1490 1.523 . S
C1490 C1474 1.368 . S
C1490 C1486 1.368 . S
C1490 C1489 1.523 . S
H1491 C1466 0.950 . S
H1492 C1468 0.950 . S
H1493 C1469 0.949 . S
H1494 C1471 0.950 . S
H1495 C1473 0.950 . S
C1496 C1497 1.349 . S
C1496 C1498 1.327 . S
C1496 H1521 0.950 . S
C1497 C1496 1.349 . S
C1497 C1513 1.349 . S
C1498 C1496 1.327 . S
C1498 C1517 1.429 . S
C1498 H1522 0.950 . S
C1499 C1516 1.574 . S
C1499 C1518 1.368 . S
C1499 H1523 0.949 . S
H1500 C1504 0.949 . S
C1501 C1502 1.349 . S
C1501 C1503 1.327 . S
C1501 H1524 0.950 . S
C1502 C1501 1.349 . S
C1502 C1514 1.349 . S
C1503 C1501 1.327 . S
C1503 C1519 1.429 . S
C1503 H1525 0.950 . S
C1504 H1500 0.949 . S
C1504 C1512 1.574 . S
C1504 C1520 1.368 . S
H1505 C1513 0.950 . S
H1506 C1511 0.950 . S
H1507 C1512 0.949 . S
H1508 C1514 0.950 . S
H1509 C1515 0.950 . S
H1510 C1516 0.949 . S
C1511 H1506 0.950 . S
C1511 C1513 1.327 . S
C1511 C1517 1.429 . S
C1512 C1504 1.574 . S
C1512 H1507 0.949 . S
C1512 C1518 1.368 . S
C1513 C1497 1.349 . S
C1513 H1505 0.950 . S
C1513 C1511 1.327 . S
C1514 C1502 1.349 . S
C1514 H1508 0.950 . S
C1514 C1515 1.327 . S
C1515 H1509 0.950 . S
C1515 C1514 1.327 . S
C1515 C1519 1.429 . S
C1516 C1499 1.574 . S
C1516 H1510 0.949 . S
C1516 C1520 1.368 . S
C1517 C1498 1.429 . S
C1517 C1511 1.429 . S
C1517 C1518 1.523 . S
C1518 C1499 1.368 . S
C1518 C1512 1.368 . S
C1518 C1517 1.523 . S
C1519 C1503 1.429 . S
C1519 C1515 1.429 . S
C1519 C1520 1.523 . S
C1520 C1504 1.368 . S
C1520 C1516 1.368 . S
C1520 C1519 1.523 . S
H1521 C1496 0.950 . S
H1522 C1498 0.950 . S
H1523 C1499 0.949 . S
H1524 C1501 0.950 . S
H1525 C1503 0.950 . S
C1526 C1527 1.349 . S
C1526 C1528 1.327 . S
C1526 H1551 0.950 . S
C1527 C1526 1.349 . S
C1527 C1543 1.349 . S
C1528 C1526 1.327 . S
C1528 C1547 1.429 . S
C1528 H1552 0.950 . S
C1529 C1546 1.574 . S
C1529 C1548 1.368 . S
C1529 H1553 0.949 . S
H1530 C1534 0.949 . S
C1531 C1532 1.349 . S
C1531 C1533 1.327 . S
C1531 H1554 0.950 . S
C1532 C1531 1.349 . S
C1532 C1544 1.349 . S
C1533 C1531 1.327 . S
C1533 C1549 1.429 . S
C1533 H1555 0.950 . S
C1534 H1530 0.949 . S
C1534 C1542 1.574 . S
C1534 C1550 1.368 . S
H1535 C1543 0.950 . S
H1536 C1541 0.950 . S
H1537 C1542 0.949 . S
H1538 C1544 0.950 . S
H1539 C1545 0.950 . S
H1540 C1546 0.949 . S
C1541 H1536 0.950 . S
C1541 C1543 1.327 . S
C1541 C1547 1.429 . S
C1542 C1534 1.574 . S
C1542 H1537 0.949 . S
C1542 C1548 1.368 . S
C1543 C1527 1.349 . S
C1543 H1535 0.950 . S
C1543 C1541 1.327 . S
C1544 C1532 1.349 . S
C1544 H1538 0.950 . S
C1544 C1545 1.327 . S
C1545 H1539 0.950 . S
C1545 C1544 1.327 . S
C1545 C1549 1.429 . S
C1546 C1529 1.574 . S
C1546 H1540 0.949 . S
C1546 C1550 1.368 . S
C1547 C1528 1.429 . S
C1547 C1541 1.429 . S
C1547 C1548 1.523 . S
C1548 C1529 1.368 . S
C1548 C1542 1.368 . S
C1548 C1547 1.523 . S
C1549 C1533 1.429 . S
C1549 C1545 1.429 . S
C1549 C1550 1.523 . S
C1550 C1534 1.368 . S
C1550 C1546 1.368 . S
C1550 C1549 1.523 . S
H1551 C1526 0.950 . S
H1552 C1528 0.950 . S
H1553 C1529 0.949 . S
H1554 C1531 0.950 . S
H1555 C1533 0.950 . S
C1556 C1557 1.349 . S
C1556 C1558 1.327 . S
C1556 H1581 0.950 . S
C1557 C1556 1.349 . S
C1557 C1573 1.349 . S
C1558 C1556 1.327 . S
C1558 C1577 1.429 . S
C1558 H1582 0.950 . S
C1559 C1576 1.574 . S
C1559 C1578 1.368 . S
C1559 H1583 0.949 . S
H1560 C1564 0.949 . S
C1561 C1562 1.349 . S
C1561 C1563 1.327 . S
C1561 H1584 0.950 . S
C1562 C1561 1.349 . S
C1562 C1574 1.349 . S
C1563 C1561 1.327 . S
C1563 C1579 1.429 . S
C1563 H1585 0.950 . S
C1564 H1560 0.949 . S
C1564 C1572 1.574 . S
C1564 C1580 1.368 . S
H1565 C1573 0.950 . S
H1566 C1571 0.950 . S
H1567 C1572 0.949 . S
H1568 C1574 0.950 . S
H1569 C1575 0.950 . S
H1570 C1576 0.949 . S
C1571 H1566 0.950 . S
C1571 C1573 1.327 . S
C1571 C1577 1.429 . S
C1572 C1564 1.574 . S
C1572 H1567 0.949 . S
C1572 C1578 1.368 . S
C1573 C1557 1.349 . S
C1573 H1565 0.950 . S
C1573 C1571 1.327 . S
C1574 C1562 1.349 . S
C1574 H1568 0.950 . S
C1574 C1575 1.327 . S
C1575 H1569 0.950 . S
C1575 C1574 1.327 . S
C1575 C1579 1.429 . S
C1576 C1559 1.574 . S
C1576 H1570 0.949 . S
C1576 C1580 1.368 . S
C1577 C1558 1.429 . S
C1577 C1571 1.429 . S
C1577 C1578 1.523 . S
C1578 C1559 1.368 . S
C1578 C1572 1.368 . S
C1578 C1577 1.523 . S
C1579 C1563 1.429 . S
C1579 C1575 1.429 . S
C1579 C1580 1.523 . S
C1580 C1564 1.368 . S
C1580 C1576 1.368 . S
C1580 C1579 1.523 . S
H1581 C1556 0.950 . S
H1582 C1558 0.950 . S
H1583 C1559 0.949 . S
H1584 C1561 0.950 . S
H1585 C1563 0.950 . S
C1586 C1587 1.349 . S
C1586 C1588 1.327 . S
C1586 H1611 0.950 . S
C1587 C1586 1.349 . S
C1587 C1603 1.349 . S
C1588 C1586 1.327 . S
C1588 C1607 1.429 . S
C1588 H1612 0.950 . S
C1589 C1606 1.574 . S
C1589 C1608 1.368 . S
C1589 H1613 0.949 . S
H1590 C1594 0.949 . S
C1591 C1592 1.349 . S
C1591 C1593 1.327 . S
C1591 H1614 0.950 . S
C1592 C1591 1.349 . S
C1592 C1604 1.349 . S
C1593 C1591 1.327 . S
C1593 C1609 1.429 . S
C1593 H1615 0.950 1_655 S
C1594 H1590 0.949 . S
C1594 C1602 1.574 . S
C1594 C1610 1.368 . S
H1595 C1603 0.950 . S
H1596 C1601 0.950 . S
H1597 C1602 0.949 . S
H1598 C1604 0.950 . S
H1599 C1605 0.950 . S
H1600 C1606 0.949 . S
C1601 H1596 0.950 . S
C1601 C1603 1.327 . S
C1601 C1607 1.429 . S
C1602 C1594 1.574 . S
C1602 H1597 0.949 . S
C1602 C1608 1.368 . S
C1603 C1587 1.349 . S
C1603 H1595 0.950 . S
C1603 C1601 1.327 . S
C1604 C1592 1.349 . S
C1604 H1598 0.950 . S
C1604 C1605 1.327 . S
C1605 H1599 0.950 . S
C1605 C1604 1.327 . S
C1605 C1609 1.429 . S
C1606 C1589 1.574 . S
C1606 H1600 0.949 . S
C1606 C1610 1.368 . S
C1607 C1588 1.429 . S
C1607 C1601 1.429 . S
C1607 C1608 1.523 . S
C1608 C1589 1.368 . S
C1608 C1602 1.368 . S
C1608 C1607 1.523 . S
C1609 C1593 1.429 . S
C1609 C1605 1.429 . S
C1609 C1610 1.523 1_655 S
C1610 C1594 1.368 . S
C1610 C1606 1.368 . S
C1610 C1609 1.523 1_455 S
H1611 C1586 0.950 . S
H1612 C1588 0.950 . S
H1613 C1589 0.949 . S
H1614 C1591 0.950 . S
H1615 C1593 0.950 1_455 S
C1616 C1617 1.349 . S
C1616 C1618 1.327 . S
C1616 H1641 0.950 . S
C1617 C1616 1.349 . S
C1617 C1633 1.349 . S
C1618 C1616 1.327 . S
C1618 C1637 1.429 . S
C1618 H1642 0.950 . S
C1619 C1636 1.574 . S
C1619 C1638 1.368 . S
C1619 H1643 0.949 . S
H1620 C1624 0.949 . S
C1621 C1622 1.349 . S
C1621 C1623 1.327 . S
C1621 H1644 0.950 . S
C1622 C1621 1.349 . S
C1622 C1634 1.349 . S
C1623 C1621 1.327 . S
C1623 C1639 1.429 . S
C1623 H1645 0.950 . S
C1624 H1620 0.949 . S
C1624 C1632 1.574 . S
C1624 C1640 1.368 . S
H1625 C1633 0.950 . S
H1626 C1631 0.950 . S
H1627 C1632 0.949 . S
H1628 C1634 0.950 . S
H1629 C1635 0.950 . S
H1630 C1636 0.949 . S
C1631 H1626 0.950 . S
C1631 C1633 1.327 . S
C1631 C1637 1.429 . S
C1632 C1624 1.574 . S
C1632 H1627 0.949 . S
C1632 C1638 1.368 . S
C1633 C1617 1.349 . S
C1633 H1625 0.950 . S
C1633 C1631 1.327 . S
C1634 C1622 1.349 . S
C1634 H1628 0.950 . S
C1634 C1635 1.327 . S
C1635 H1629 0.950 . S
C1635 C1634 1.327 . S
C1635 C1639 1.429 . S
C1636 C1619 1.574 . S
C1636 H1630 0.949 . S
C1636 C1640 1.368 . S
C1637 C1618 1.429 . S
C1637 C1631 1.429 . S
C1637 C1638 1.523 . S
C1638 C1619 1.368 . S
C1638 C1632 1.368 . S
C1638 C1637 1.523 . S
C1639 C1623 1.429 . S
C1639 C1635 1.429 . S
C1639 C1640 1.523 . S
C1640 C1624 1.368 . S
C1640 C1636 1.368 . S
C1640 C1639 1.523 . S
H1641 C1616 0.950 . S
H1642 C1618 0.950 . S
H1643 C1619 0.949 . S
H1644 C1621 0.950 . S
H1645 C1623 0.950 . S
C1646 C1647 1.349 . S
C1646 C1648 1.327 . S
C1646 H1671 0.950 . S
C1647 C1646 1.349 . S
C1647 C1663 1.349 . S
C1648 C1646 1.327 . S
C1648 C1667 1.429 . S
C1648 H1672 0.950 . S
C1649 C1666 1.574 . S
C1649 C1668 1.368 . S
C1649 H1673 0.949 . S
H1650 C1654 0.949 . S
C1651 C1652 1.349 . S
C1651 C1653 1.327 . S
C1651 H1674 0.950 . S
C1652 C1651 1.349 . S
C1652 C1664 1.349 . S
C1653 C1651 1.327 . S
C1653 C1669 1.429 . S
C1653 H1675 0.950 . S
C1654 H1650 0.949 . S
C1654 C1662 1.574 . S
C1654 C1670 1.368 . S
H1655 C1663 0.950 . S
H1656 C1661 0.950 . S
H1657 C1662 0.949 . S
H1658 C1664 0.950 . S
H1659 C1665 0.950 . S
H1660 C1666 0.949 . S
C1661 H1656 0.950 . S
C1661 C1663 1.327 . S
C1661 C1667 1.429 . S
C1662 C1654 1.574 . S
C1662 H1657 0.949 . S
C1662 C1668 1.368 . S
C1663 C1647 1.349 . S
C1663 H1655 0.950 . S
C1663 C1661 1.327 . S
C1664 C1652 1.349 . S
C1664 H1658 0.950 . S
C1664 C1665 1.327 . S
C1665 H1659 0.950 . S
C1665 C1664 1.327 . S
C1665 C1669 1.429 . S
C1666 C1649 1.574 . S
C1666 H1660 0.949 . S
C1666 C1670 1.368 . S
C1667 C1648 1.429 . S
C1667 C1661 1.429 . S
C1667 C1668 1.523 1_455 S
C1668 C1649 1.368 . S
C1668 C1662 1.368 . S
C1668 C1667 1.523 1_655 S
C1669 C1653 1.429 . S
C1669 C1665 1.429 . S
C1669 C1670 1.523 . S
C1670 C1654 1.368 . S
C1670 C1666 1.368 . S
C1670 C1669 1.523 . S
H1671 C1646 0.950 . S
H1672 C1648 0.950 . S
H1673 C1649 0.949 . S
H1674 C1651 0.950 . S
H1675 C1653 0.950 . S
C1676 C1677 1.349 . S
C1676 C1678 1.327 . S
C1676 H1701 0.950 . S
C1677 C1676 1.349 . S
C1677 C1693 1.349 . S
C1678 C1676 1.327 . S
C1678 C1697 1.429 . S
C1678 H1702 0.950 . S
C1679 C1696 1.574 . S
C1679 C1698 1.368 . S
C1679 H1703 0.949 . S
H1680 C1684 0.949 . S
C1681 C1682 1.349 . S
C1681 C1683 1.327 . S
C1681 H1704 0.950 . S
C1682 C1681 1.349 . S
C1682 C1694 1.349 . S
C1683 C1681 1.327 . S
C1683 C1699 1.429 . S
C1683 H1705 0.950 . S
C1684 H1680 0.949 . S
C1684 C1692 1.574 . S
C1684 C1700 1.368 . S
H1685 C1693 0.950 . S
H1686 C1691 0.950 . S
H1687 C1692 0.949 . S
H1688 C1694 0.950 . S
H1689 C1695 0.950 . S
H1690 C1696 0.949 . S
C1691 H1686 0.950 . S
C1691 C1693 1.327 . S
C1691 C1697 1.429 . S
C1692 C1684 1.574 . S
C1692 H1687 0.949 . S
C1692 C1698 1.368 . S
C1693 C1677 1.349 . S
C1693 H1685 0.950 . S
C1693 C1691 1.327 . S
C1694 C1682 1.349 . S
C1694 H1688 0.950 . S
C1694 C1695 1.327 . S
C1695 H1689 0.950 . S
C1695 C1694 1.327 . S
C1695 C1699 1.429 . S
C1696 C1679 1.574 . S
C1696 H1690 0.949 . S
C1696 C1700 1.368 . S
C1697 C1678 1.429 . S
C1697 C1691 1.429 . S
C1697 C1698 1.523 . S
C1698 C1679 1.368 . S
C1698 C1692 1.368 . S
C1698 C1697 1.523 . S
C1699 C1683 1.429 . S
C1699 C1695 1.429 . S
C1699 C1700 1.523 . S
C1700 C1684 1.368 . S
C1700 C1696 1.368 . S
C1700 C1699 1.523 . S
H1701 C1676 0.950 . S
H1702 C1678 0.950 . S
H1703 C1679 0.949 . S
H1704 C1681 0.950 . S
H1705 C1683 0.950 . S
C1706 C1707 1.349 . S
C1706 C1708 1.327 . S
C1706 H1731 0.950 . S
C1707 C1706 1.349 . S
C1707 C1723 1.349 . S
C1708 C1706 1.327 . S
C1708 C1727 1.429 . S
C1708 H1732 0.950 . S
C1709 C1726 1.574 . S
C1709 C1728 1.368 . S
C1709 H1733 0.949 . S
H1710 C1714 0.949 . S
C1711 C1712 1.349 . S
C1711 C1713 1.327 . S
C1711 H1734 0.950 . S
C1712 C1711 1.349 . S
C1712 C1724 1.349 . S
C1713 C1711 1.327 . S
C1713 C1729 1.429 . S
C1713 H1735 0.950 . S
C1714 H1710 0.949 . S
C1714 C1722 1.574 . S
C1714 C1730 1.368 . S
H1715 C1723 0.950 . S
H1716 C1721 0.950 . S
H1717 C1722 0.949 . S
H1718 C1724 0.950 . S
H1719 C1725 0.950 . S
H1720 C1726 0.949 . S
C1721 H1716 0.950 . S
C1721 C1723 1.327 . S
C1721 C1727 1.429 . S
C1722 C1714 1.574 . S
C1722 H1717 0.949 . S
C1722 C1728 1.368 . S
C1723 C1707 1.349 . S
C1723 H1715 0.950 . S
C1723 C1721 1.327 . S
C1724 C1712 1.349 . S
C1724 H1718 0.950 . S
C1724 C1725 1.327 . S
C1725 H1719 0.950 . S
C1725 C1724 1.327 . S
C1725 C1729 1.429 . S
C1726 C1709 1.574 . S
C1726 H1720 0.949 . S
C1726 C1730 1.368 . S
C1727 C1708 1.429 . S
C1727 C1721 1.429 . S
C1727 C1728 1.523 . S
C1728 C1709 1.368 . S
C1728 C1722 1.368 . S
C1728 C1727 1.523 . S
C1729 C1713 1.429 . S
C1729 C1725 1.429 . S
C1729 C1730 1.523 . S
C1730 C1714 1.368 . S
C1730 C1726 1.368 . S
C1730 C1729 1.523 . S
H1731 C1706 0.950 . S
H1732 C1708 0.950 . S
H1733 C1709 0.949 . S
H1734 C1711 0.950 . S
H1735 C1713 0.950 . S
C1736 C1737 1.349 . S
C1736 C1738 1.327 . S
C1736 H1761 0.950 . S
C1737 C1736 1.349 . S
C1737 C1753 1.349 . S
C1738 C1736 1.327 . S
C1738 C1757 1.429 . S
C1738 H1762 0.950 . S
C1739 C1756 1.574 . S
C1739 C1758 1.368 . S
C1739 H1763 0.949 . S
H1740 C1744 0.949 . S
C1741 C1742 1.349 . S
C1741 C1743 1.327 . S
C1741 H1764 0.950 . S
C1742 C1741 1.349 . S
C1742 C1754 1.349 . S
C1743 C1741 1.327 . S
C1743 C1759 1.429 . S
C1743 H1765 0.950 . S
C1744 H1740 0.949 . S
C1744 C1752 1.574 . S
C1744 C1760 1.368 . S
H1745 C1753 0.950 . S
H1746 C1751 0.950 . S
H1747 C1752 0.949 . S
H1748 C1754 0.950 . S
H1749 C1755 0.950 . S
H1750 C1756 0.949 . S
C1751 H1746 0.950 . S
C1751 C1753 1.327 . S
C1751 C1757 1.429 . S
C1752 C1744 1.574 . S
C1752 H1747 0.949 . S
C1752 C1758 1.368 . S
C1753 C1737 1.349 . S
C1753 H1745 0.950 . S
C1753 C1751 1.327 . S
C1754 C1742 1.349 . S
C1754 H1748 0.950 . S
C1754 C1755 1.327 . S
C1755 H1749 0.950 . S
C1755 C1754 1.327 . S
C1755 C1759 1.429 . S
C1756 C1739 1.574 . S
C1756 H1750 0.949 . S
C1756 C1760 1.368 . S
C1757 C1738 1.429 . S
C1757 C1751 1.429 . S
C1757 C1758 1.523 . S
C1758 C1739 1.368 . S
C1758 C1752 1.368 . S
C1758 C1757 1.523 . S
C1759 C1743 1.429 . S
C1759 C1755 1.429 . S
C1759 C1760 1.523 . S
C1760 C1744 1.368 . S
C1760 C1756 1.368 . S
C1760 C1759 1.523 . S
H1761 C1736 0.950 . S
H1762 C1738 0.950 . S
H1763 C1739 0.949 . S
H1764 C1741 0.950 . S
H1765 C1743 0.950 . S
C1766 C1767 1.349 . S
C1766 C1768 1.327 . S
C1766 H1791 0.950 . S
C1767 C1766 1.349 . S
C1767 C1783 1.349 . S
C1768 C1766 1.327 . S
C1768 C1787 1.429 . S
C1768 H1792 0.950 . S
C1769 C1786 1.574 . S
C1769 C1788 1.368 . S
C1769 H1793 0.949 . S
H1770 C1774 0.949 . S
C1771 C1772 1.349 . S
C1771 C1773 1.327 . S
C1771 H1794 0.950 . S
C1772 C1771 1.349 . S
C1772 C1784 1.349 . S
C1773 C1771 1.327 . S
C1773 C1789 1.429 . S
C1773 H1795 0.950 . S
C1774 H1770 0.949 . S
C1774 C1782 1.574 . S
C1774 C1790 1.368 . S
H1775 C1783 0.950 . S
H1776 C1781 0.950 . S
H1777 C1782 0.949 . S
H1778 C1784 0.950 . S
H1779 C1785 0.950 . S
H1780 C1786 0.949 . S
C1781 H1776 0.950 . S
C1781 C1783 1.327 . S
C1781 C1787 1.429 . S
C1782 C1774 1.574 . S
C1782 H1777 0.949 . S
C1782 C1788 1.368 . S
C1783 C1767 1.349 . S
C1783 H1775 0.950 . S
C1783 C1781 1.327 . S
C1784 C1772 1.349 . S
C1784 H1778 0.950 . S
C1784 C1785 1.327 . S
C1785 H1779 0.950 . S
C1785 C1784 1.327 . S
C1785 C1789 1.429 . S
C1786 C1769 1.574 . S
C1786 H1780 0.949 . S
C1786 C1790 1.368 . S
C1787 C1768 1.429 . S
C1787 C1781 1.429 . S
C1787 C1788 1.523 . S
C1788 C1769 1.368 . S
C1788 C1782 1.368 . S
C1788 C1787 1.523 . S
C1789 C1773 1.429 . S
C1789 C1785 1.429 . S
C1789 C1790 1.523 . S
C1790 C1774 1.368 . S
C1790 C1786 1.368 . S
C1790 C1789 1.523 . S
H1791 C1766 0.950 . S
H1792 C1768 0.950 . S
H1793 C1769 0.949 . S
H1794 C1771 0.950 . S
H1795 C1773 0.950 . S
C1796 C1797 1.349 . S
C1796 C1798 1.327 . S
C1796 H1821 0.950 . S
C1797 C1796 1.349 . S
C1797 C1813 1.349 . S
C1798 C1796 1.327 . S
C1798 C1817 1.429 . S
C1798 H1822 0.950 . S
C1799 C1816 1.574 . S
C1799 C1818 1.368 . S
C1799 H1823 0.949 . S
H1800 C1804 0.949 . S
C1801 C1802 1.349 . S
C1801 C1803 1.327 . S
C1801 H1824 0.950 . S
C1802 C1801 1.349 . S
C1802 C1814 1.349 . S
C1803 C1801 1.327 . S
C1803 C1819 1.429 . S
C1803 H1825 0.950 . S
C1804 H1800 0.949 . S
C1804 C1812 1.574 . S
C1804 C1820 1.368 . S
H1805 C1813 0.950 . S
H1806 C1811 0.950 . S
H1807 C1812 0.949 . S
H1808 C1814 0.950 . S
H1809 C1815 0.950 . S
H1810 C1816 0.949 . S
C1811 H1806 0.950 . S
C1811 C1813 1.327 . S
C1811 C1817 1.429 . S
C1812 C1804 1.574 . S
C1812 H1807 0.949 . S
C1812 C1818 1.368 . S
C1813 C1797 1.349 . S
C1813 H1805 0.950 . S
C1813 C1811 1.327 . S
C1814 C1802 1.349 . S
C1814 H1808 0.950 . S
C1814 C1815 1.327 . S
C1815 H1809 0.950 . S
C1815 C1814 1.327 . S
C1815 C1819 1.429 . S
C1816 C1799 1.574 . S
C1816 H1810 0.949 . S
C1816 C1820 1.368 . S
C1817 C1798 1.429 . S
C1817 C1811 1.429 . S
C1817 C1818 1.523 . S
C1818 C1799 1.368 . S
C1818 C1812 1.368 . S
C1818 C1817 1.523 . S
C1819 C1803 1.429 . S
C1819 C1815 1.429 . S
C1819 C1820 1.523 . S
C1820 C1804 1.368 . S
C1820 C1816 1.368 . S
C1820 C1819 1.523 . S
H1821 C1796 0.950 . S
H1822 C1798 0.950 . S
H1823 C1799 0.949 . S
H1824 C1801 0.950 . S
H1825 C1803 0.950 . S
C1826 C1827 1.349 . S
C1826 C1828 1.327 . S
C1826 H1851 0.950 . S
C1827 C1826 1.349 . S
C1827 C1843 1.349 . S
C1828 C1826 1.327 . S
C1828 C1847 1.429 . S
C1828 H1852 0.950 . S
C1829 C1846 1.574 . S
C1829 C1848 1.368 . S
C1829 H1853 0.949 . S
H1830 C1834 0.949 . S
C1831 C1832 1.349 . S
C1831 C1833 1.327 . S
C1831 H1854 0.950 . S
C1832 C1831 1.349 . S
C1832 C1844 1.349 . S
C1833 C1831 1.327 . S
C1833 C1849 1.429 . S
C1833 H1855 0.950 . S
C1834 H1830 0.949 . S
C1834 C1842 1.574 . S
C1834 C1850 1.368 . S
H1835 C1843 0.950 . S
H1836 C1841 0.950 1_655 S
H1837 C1842 0.949 . S
H1838 C1844 0.950 . S
H1839 C1845 0.950 . S
H1840 C1846 0.949 . S
C1841 H1836 0.950 1_455 S
C1841 C1843 1.327 . S
C1841 C1847 1.429 . S
C1842 C1834 1.574 . S
C1842 H1837 0.949 . S
C1842 C1848 1.368 . S
C1843 C1827 1.349 . S
C1843 H1835 0.950 . S
C1843 C1841 1.327 . S
C1844 C1832 1.349 . S
C1844 H1838 0.950 . S
C1844 C1845 1.327 . S
C1845 H1839 0.950 . S
C1845 C1844 1.327 . S
C1845 C1849 1.429 . S
C1846 C1829 1.574 . S
C1846 H1840 0.949 . S
C1846 C1850 1.368 . S
C1847 C1828 1.429 . S
C1847 C1841 1.429 . S
C1847 C1848 1.523 1_455 S
C1848 C1829 1.368 . S
C1848 C1842 1.368 . S
C1848 C1847 1.523 1_655 S
C1849 C1833 1.429 . S
C1849 C1845 1.429 . S
C1849 C1850 1.523 . S
C1850 C1834 1.368 . S
C1850 C1846 1.368 . S
C1850 C1849 1.523 . S
H1851 C1826 0.950 . S
H1852 C1828 0.950 . S
H1853 C1829 0.949 . S
H1854 C1831 0.950 . S
H1855 C1833 0.950 . S
C1856 C1857 1.349 . S
C1856 C1858 1.327 . S
C1856 H1881 0.950 . S
C1857 C1856 1.349 . S
C1857 C1873 1.349 . S
C1858 C1856 1.327 . S
C1858 C1877 1.429 . S
C1858 H1882 0.950 . S
C1859 C1876 1.574 . S
C1859 C1878 1.368 . S
C1859 H1883 0.949 . S
H1860 C1864 0.949 . S
C1861 C1862 1.349 . S
C1861 C1863 1.327 . S
C1861 H1884 0.950 . S
C1862 C1861 1.349 . S
C1862 C1874 1.349 . S
C1863 C1861 1.327 . S
C1863 C1879 1.429 . S
C1863 H1885 0.950 . S
C1864 H1860 0.949 . S
C1864 C1872 1.574 . S
C1864 C1880 1.368 . S
H1865 C1873 0.950 . S
H1866 C1871 0.950 . S
H1867 C1872 0.949 . S
H1868 C1874 0.950 . S
H1869 C1875 0.950 . S
H1870 C1876 0.949 . S
C1871 H1866 0.950 . S
C1871 C1873 1.327 . S
C1871 C1877 1.429 . S
C1872 C1864 1.574 . S
C1872 H1867 0.949 . S
C1872 C1878 1.368 . S
C1873 C1857 1.349 . S
C1873 H1865 0.950 . S
C1873 C1871 1.327 . S
C1874 C1862 1.349 . S
C1874 H1868 0.950 . S
C1874 C1875 1.327 . S
C1875 H1869 0.950 . S
C1875 C1874 1.327 . S
C1875 C1879 1.429 . S
C1876 C1859 1.574 . S
C1876 H1870 0.949 . S
C1876 C1880 1.368 . S
C1877 C1858 1.429 . S
C1877 C1871 1.429 . S
C1877 C1878 1.523 . S
C1878 C1859 1.368 . S
C1878 C1872 1.368 . S
C1878 C1877 1.523 . S
C1879 C1863 1.429 . S
C1879 C1875 1.429 . S
C1879 C1880 1.523 . S
C1880 C1864 1.368 . S
C1880 C1876 1.368 . S
C1880 C1879 1.523 . S
H1881 C1856 0.950 . S
H1882 C1858 0.950 . S
H1883 C1859 0.949 . S
H1884 C1861 0.950 . S
H1885 C1863 0.950 . S
C1886 C1887 1.349 . S
C1886 C1888 1.327 . S
C1886 H1911 0.950 . S
C1887 C1886 1.349 . S
C1887 C1903 1.349 . S
C1888 C1886 1.327 . S
C1888 C1907 1.429 . S
C1888 H1912 0.950 . S
C1889 C1906 1.574 . S
C1889 C1908 1.368 . S
C1889 H1913 0.949 . S
H1890 C1894 0.949 . S
C1891 C1892 1.349 . S
C1891 C1893 1.327 . S
C1891 H1914 0.950 . S
C1892 C1891 1.349 . S
C1892 C1904 1.349 . S
C1893 C1891 1.327 . S
C1893 C1909 1.429 . S
C1893 H1915 0.950 . S
C1894 H1890 0.949 . S
C1894 C1902 1.574 . S
C1894 C1910 1.368 . S
H1895 C1903 0.950 . S
H1896 C1901 0.950 . S
H1897 C1902 0.949 . S
H1898 C1904 0.950 . S
H1899 C1905 0.950 . S
H1900 C1906 0.949 . S
C1901 H1896 0.950 . S
C1901 C1903 1.327 . S
C1901 C1907 1.429 . S
C1902 C1894 1.574 . S
C1902 H1897 0.949 . S
C1902 C1908 1.368 . S
C1903 C1887 1.349 . S
C1903 H1895 0.950 . S
C1903 C1901 1.327 . S
C1904 C1892 1.349 . S
C1904 H1898 0.950 . S
C1904 C1905 1.327 . S
C1905 H1899 0.950 . S
C1905 C1904 1.327 . S
C1905 C1909 1.429 . S
C1906 C1889 1.574 . S
C1906 H1900 0.949 . S
C1906 C1910 1.368 . S
C1907 C1888 1.429 . S
C1907 C1901 1.429 . S
C1907 C1908 1.523 . S
C1908 C1889 1.368 . S
C1908 C1902 1.368 . S
C1908 C1907 1.523 . S
C1909 C1893 1.429 . S
C1909 C1905 1.429 . S
C1909 C1910 1.523 . S
C1910 C1894 1.368 . S
C1910 C1906 1.368 . S
C1910 C1909 1.523 . S
H1911 C1886 0.950 . S
H1912 C1888 0.950 . S
H1913 C1889 0.949 . S
H1914 C1891 0.950 . S
H1915 C1893 0.950 . S
C1916 C1917 1.349 . S
C1916 C1918 1.327 . S
C1916 H1941 0.950 . S
C1917 C1916 1.349 . S
C1917 C1933 1.349 . S
C1918 C1916 1.327 . S
C1918 C1937 1.429 . S
C1918 H1942 0.950 . S
C1919 C1936 1.574 . S
C1919 C1938 1.368 . S
C1919 H1943 0.949 . S
H1920 C1924 0.949 . S
C1921 C1922 1.349 . S
C1921 C1923 1.327 . S
C1921 H1944 0.950 . S
C1922 C1921 1.349 . S
C1922 C1934 1.349 . S
C1923 C1921 1.327 . S
C1923 C1939 1.429 . S
C1923 H1945 0.950 . S
C1924 H1920 0.949 . S
C1924 C1932 1.574 . S
C1924 C1940 1.368 . S
H1925 C1933 0.950 . S
H1926 C1931 0.950 . S
H1927 C1932 0.949 . S
H1928 C1934 0.950 . S
H1929 C1935 0.950 . S
H1930 C1936 0.949 . S
C1931 H1926 0.950 . S
C1931 C1933 1.327 . S
C1931 C1937 1.429 . S
C1932 C1924 1.574 . S
C1932 H1927 0.949 . S
C1932 C1938 1.368 . S
C1933 C1917 1.349 . S
C1933 H1925 0.950 . S
C1933 C1931 1.327 . S
C1934 C1922 1.349 . S
C1934 H1928 0.950 . S
C1934 C1935 1.327 . S
C1935 H1929 0.950 . S
C1935 C1934 1.327 . S
C1935 C1939 1.429 . S
C1936 C1919 1.574 . S
C1936 H1930 0.949 . S
C1936 C1940 1.368 . S
C1937 C1918 1.429 . S
C1937 C1931 1.429 . S
C1937 C1938 1.523 . S
C1938 C1919 1.368 . S
C1938 C1932 1.368 . S
C1938 C1937 1.523 . S
C1939 C1923 1.429 . S
C1939 C1935 1.429 . S
C1939 C1940 1.523 . S
C1940 C1924 1.368 . S
C1940 C1936 1.368 . S
C1940 C1939 1.523 . S
H1941 C1916 0.950 . S
H1942 C1918 0.950 . S
H1943 C1919 0.949 . S
H1944 C1921 0.950 . S
H1945 C1923 0.950 . S
C1946 C1947 1.349 . S
C1946 C1948 1.327 . S
C1946 H1971 0.950 . S
C1947 C1946 1.349 . S
C1947 C1963 1.349 . S
C1948 C1946 1.327 . S
C1948 C1967 1.429 . S
C1948 H1972 0.950 . S
C1949 C1966 1.574 . S
C1949 C1968 1.368 . S
C1949 H1973 0.949 . S
H1950 C1954 0.949 . S
C1951 C1952 1.349 . S
C1951 C1953 1.327 . S
C1951 H1974 0.950 . S
C1952 C1951 1.349 . S
C1952 C1964 1.349 . S
C1953 C1951 1.327 . S
C1953 C1969 1.429 . S
C1953 H1975 0.950 . S
C1954 H1950 0.949 . S
C1954 C1962 1.574 . S
C1954 C1970 1.368 . S
H1955 C1963 0.950 . S
H1956 C1961 0.950 . S
H1957 C1962 0.949 . S
H1958 C1964 0.950 . S
H1959 C1965 0.950 . S
H1960 C1966 0.949 . S
C1961 H1956 0.950 . S
C1961 C1963 1.327 . S
C1961 C1967 1.429 . S
C1962 C1954 1.574 . S
C1962 H1957 0.949 . S
C1962 C1968 1.368 . S
C1963 C1947 1.349 . S
C1963 H1955 0.950 . S
C1963 C1961 1.327 . S
C1964 C1952 1.349 . S
C1964 H1958 0.950 . S
C1964 C1965 1.327 . S
C1965 H1959 0.950 . S
C1965 C1964 1.327 . S
C1965 C1969 1.429 . S
C1966 C1949 1.574 . S
C1966 H1960 0.949 . S
C1966 C1970 1.368 . S
C1967 C1948 1.429 . S
C1967 C1961 1.429 . S
C1967 C1968 1.523 . S
C1968 C1949 1.368 . S
C1968 C1962 1.368 . S
C1968 C1967 1.523 . S
C1969 C1953 1.429 . S
C1969 C1965 1.429 . S
C1969 C1970 1.523 1_455 S
C1970 C1954 1.368 . S
C1970 C1966 1.368 . S
C1970 C1969 1.523 1_655 S
H1971 C1946 0.950 . S
H1972 C1948 0.950 . S
H1973 C1949 0.949 . S
H1974 C1951 0.950 . S
H1975 C1953 0.950 . S
C1976 C1977 1.349 . S
C1976 C1978 1.327 . S
C1976 H2001 0.950 . S
C1977 C1976 1.349 . S
C1977 C1993 1.349 . S
C1978 C1976 1.327 . S
C1978 C1997 1.429 . S
C1978 H2002 0.950 . S
C1979 C1996 1.574 . S
C1979 C1998 1.368 . S
C1979 H2003 0.949 . S
H1980 C1984 0.949 . S
C1981 C1982 1.349 . S
C1981 C1983 1.327 . S
C1981 H2004 0.950 . S
C1982 C1981 1.349 . S
C1982 C1994 1.349 . S
C1983 C1981 1.327 . S
C1983 C1999 1.429 . S
C1983 H2005 0.950 . S
C1984 H1980 0.949 . S
C1984 C1992 1.574 . S
C1984 C2000 1.368 . S
H1985 C1993 0.950 . S
H1986 C1991 0.950 . S
H1987 C1992 0.949 . S
H1988 C1994 0.950 . S
H1989 C1995 0.950 . S
H1990 C1996 0.949 . S
C1991 H1986 0.950 . S
C1991 C1993 1.327 . S
C1991 C1997 1.429 . S
C1992 C1984 1.574 . S
C1992 H1987 0.949 . S
C1992 C1998 1.368 . S
C1993 C1977 1.349 . S
C1993 H1985 0.950 . S
C1993 C1991 1.327 . S
C1994 C1982 1.349 . S
C1994 H1988 0.950 . S
C1994 C1995 1.327 . S
C1995 H1989 0.950 . S
C1995 C1994 1.327 . S
C1995 C1999 1.429 . S
C1996 C1979 1.574 . S
C1996 H1990 0.949 . S
C1996 C2000 1.368 . S
C1997 C1978 1.429 . S
C1997 C1991 1.429 . S
C1997 C1998 1.523 . S
C1998 C1979 1.368 . S
C1998 C1992 1.368 . S
C1998 C1997 1.523 . S
C1999 C1983 1.429 . S
C1999 C1995 1.429 . S
C1999 C2000 1.523 . S
C2000 C1984 1.368 . S
C2000 C1996 1.368 . S
C2000 C1999 1.523 . S
H2001 C1976 0.950 . S
H2002 C1978 0.950 . S
H2003 C1979 0.949 . S
H2004 C1981 0.950 . S
H2005 C1983 0.950 . S
C2006 C2007 1.349 . S
C2006 C2008 1.327 . S
C2006 H2031 0.950 . S
C2007 C2006 1.349 . S
C2007 C2023 1.349 . S
C2008 C2006 1.327 . S
C2008 C2027 1.429 . S
C2008 H2032 0.950 . S
C2009 C2026 1.574 . S
C2009 C2028 1.368 . S
C2009 H2033 0.949 . S
H2010 C2014 0.949 . S
C2011 C2012 1.349 . S
C2011 C2013 1.327 . S
C2011 H2034 0.950 . S
C2012 C2011 1.349 . S
C2012 C2024 1.349 . S
C2013 C2011 1.327 . S
C2013 C2029 1.429 . S
C2013 H2035 0.950 . S
C2014 H2010 0.949 . S
C2014 C2022 1.574 . S
C2014 C2030 1.368 . S
H2015 C2023 0.950 . S
H2016 C2021 0.950 . S
H2017 C2022 0.949 . S
H2018 C2024 0.950 . S
H2019 C2025 0.950 . S
H2020 C2026 0.949 . S
C2021 H2016 0.950 . S
C2021 C2023 1.327 . S
C2021 C2027 1.429 . S
C2022 C2014 1.574 . S
C2022 H2017 0.949 . S
C2022 C2028 1.368 . S
C2023 C2007 1.349 . S
C2023 H2015 0.950 . S
C2023 C2021 1.327 . S
C2024 C2012 1.349 . S
C2024 H2018 0.950 . S
C2024 C2025 1.327 . S
C2025 H2019 0.950 . S
C2025 C2024 1.327 . S
C2025 C2029 1.429 . S
C2026 C2009 1.574 . S
C2026 H2020 0.949 . S
C2026 C2030 1.368 . S
C2027 C2008 1.429 . S
C2027 C2021 1.429 . S
C2027 C2028 1.523 1_455 S
C2028 C2009 1.368 . S
C2028 C2022 1.368 . S
C2028 C2027 1.523 1_655 S
C2029 C2013 1.429 . S
C2029 C2025 1.429 . S
C2029 C2030 1.523 . S
C2030 C2014 1.368 . S
C2030 C2026 1.368 . S
C2030 C2029 1.523 . S
H2031 C2006 0.950 . S
H2032 C2008 0.950 . S
H2033 C2009 0.949 . S
H2034 C2011 0.950 . S
H2035 C2013 0.950 . S
C2036 C2037 1.349 . S
C2036 C2038 1.327 . S
C2036 H2061 0.950 . S
C2037 C2036 1.349 . S
C2037 C2053 1.349 . S
C2038 C2036 1.327 . S
C2038 C2057 1.429 . S
C2038 H2062 0.950 . S
C2039 C2056 1.574 . S
C2039 C2058 1.368 . S
C2039 H2063 0.949 . S
H2040 C2044 0.949 . S
C2041 C2042 1.349 . S
C2041 C2043 1.327 . S
C2041 H2064 0.950 . S
C2042 C2041 1.349 . S
C2042 C2054 1.349 . S
C2043 C2041 1.327 . S
C2043 C2059 1.429 . S
C2043 H2065 0.950 . S
C2044 H2040 0.949 . S
C2044 C2052 1.574 . S
C2044 C2060 1.368 . S
H2045 C2053 0.950 . S
H2046 C2051 0.950 . S
H2047 C2052 0.949 . S
H2048 C2054 0.950 . S
H2049 C2055 0.950 . S
H2050 C2056 0.949 . S
C2051 H2046 0.950 . S
C2051 C2053 1.327 . S
C2051 C2057 1.429 . S
C2052 C2044 1.574 . S
C2052 H2047 0.949 . S
C2052 C2058 1.368 . S
C2053 C2037 1.349 . S
C2053 H2045 0.950 . S
C2053 C2051 1.327 . S
C2054 C2042 1.349 . S
C2054 H2048 0.950 . S
C2054 C2055 1.327 . S
C2055 H2049 0.950 . S
C2055 C2054 1.327 . S
C2055 C2059 1.429 . S
C2056 C2039 1.574 . S
C2056 H2050 0.949 . S
C2056 C2060 1.368 . S
C2057 C2038 1.429 . S
C2057 C2051 1.429 . S
C2057 C2058 1.523 . S
C2058 C2039 1.368 . S
C2058 C2052 1.368 . S
C2058 C2057 1.523 . S
C2059 C2043 1.429 . S
C2059 C2055 1.429 . S
C2059 C2060 1.523 . S
C2060 C2044 1.368 . S
C2060 C2056 1.368 . S
C2060 C2059 1.523 . S
H2061 C2036 0.950 . S
H2062 C2038 0.950 . S
H2063 C2039 0.949 . S
H2064 C2041 0.950 . S
H2065 C2043 0.950 . S
C2066 C2067 1.349 . S
C2066 C2068 1.327 . S
C2066 H2091 0.950 . S
C2067 C2066 1.349 . S
C2067 C2083 1.349 . S
C2068 C2066 1.327 . S
C2068 C2087 1.429 . S
C2068 H2092 0.950 . S
C2069 C2086 1.574 . S
C2069 C2088 1.368 . S
C2069 H2093 0.949 . S
H2070 C2074 0.949 . S
C2071 C2072 1.349 . S
C2071 C2073 1.327 . S
C2071 H2094 0.950 . S
C2072 C2071 1.349 . S
C2072 C2084 1.349 . S
C2073 C2071 1.327 . S
C2073 C2089 1.429 . S
C2073 H2095 0.950 . S
C2074 H2070 0.949 . S
C2074 C2082 1.574 . S
C2074 C2090 1.368 . S
H2075 C2083 0.950 . S
H2076 C2081 0.950 . S
H2077 C2082 0.949 . S
H2078 C2084 0.950 . S
H2079 C2085 0.950 . S
H2080 C2086 0.949 . S
C2081 H2076 0.950 . S
C2081 C2083 1.327 . S
C2081 C2087 1.429 . S
C2082 C2074 1.574 . S
C2082 H2077 0.949 . S
C2082 C2088 1.368 . S
C2083 C2067 1.349 . S
C2083 H2075 0.950 . S
C2083 C2081 1.327 . S
C2084 C2072 1.349 . S
C2084 H2078 0.950 . S
C2084 C2085 1.327 . S
C2085 H2079 0.950 . S
C2085 C2084 1.327 . S
C2085 C2089 1.429 . S
C2086 C2069 1.574 . S
C2086 H2080 0.949 . S
C2086 C2090 1.368 . S
C2087 C2068 1.429 . S
C2087 C2081 1.429 . S
C2087 C2088 1.523 . S
C2088 C2069 1.368 . S
C2088 C2082 1.368 . S
C2088 C2087 1.523 . S
C2089 C2073 1.429 . S
C2089 C2085 1.429 . S
C2089 C2090 1.523 . S
C2090 C2074 1.368 . S
C2090 C2086 1.368 . S
C2090 C2089 1.523 . S
H2091 C2066 0.950 . S
H2092 C2068 0.950 . S
H2093 C2069 0.949 . S
H2094 C2071 0.950 . S
H2095 C2073 0.950 . S
C2096 C2097 1.349 . S
C2096 C2098 1.327 . S
C2096 H2121 0.950 . S
C2097 C2096 1.349 . S
C2097 C2113 1.349 . S
C2098 C2096 1.327 . S
C2098 C2117 1.429 . S
C2098 H2122 0.950 . S
C2099 C2116 1.574 . S
C2099 C2118 1.368 . S
C2099 H2123 0.949 . S
H2100 C2104 0.949 . S
C2101 C2102 1.349 . S
C2101 C2103 1.327 . S
C2101 H2124 0.950 . S
C2102 C2101 1.349 . S
C2102 C2114 1.349 . S
C2103 C2101 1.327 . S
C2103 C2119 1.429 . S
C2103 H2125 0.950 . S
C2104 H2100 0.949 . S
C2104 C2112 1.574 . S
C2104 C2120 1.368 . S
H2105 C2113 0.950 . S
H2106 C2111 0.950 . S
H2107 C2112 0.949 . S
H2108 C2114 0.950 . S
H2109 C2115 0.950 . S
H2110 C2116 0.949 . S
C2111 H2106 0.950 . S
C2111 C2113 1.327 . S
C2111 C2117 1.429 . S
C2112 C2104 1.574 . S
C2112 H2107 0.949 . S
C2112 C2118 1.368 . S
C2113 C2097 1.349 . S
C2113 H2105 0.950 . S
C2113 C2111 1.327 . S
C2114 C2102 1.349 . S
C2114 H2108 0.950 . S
C2114 C2115 1.327 . S
C2115 H2109 0.950 . S
C2115 C2114 1.327 . S
C2115 C2119 1.429 . S
C2116 C2099 1.574 . S
C2116 H2110 0.949 . S
C2116 C2120 1.368 . S
C2117 C2098 1.429 . S
C2117 C2111 1.429 . S
C2117 C2118 1.523 . S
C2118 C2099 1.368 . S
C2118 C2112 1.368 . S
C2118 C2117 1.523 . S
C2119 C2103 1.429 . S
C2119 C2115 1.429 . S
C2119 C2120 1.523 . S
C2120 C2104 1.368 . S
C2120 C2116 1.368 . S
C2120 C2119 1.523 . S
H2121 C2096 0.950 . S
H2122 C2098 0.950 . S
H2123 C2099 0.949 . S
H2124 C2101 0.950 . S
H2125 C2103 0.950 . S
C2126 C2127 1.349 . S
C2126 C2128 1.327 . S
C2126 H2151 0.950 . S
C2127 C2126 1.349 . S
C2127 C2143 1.349 . S
C2128 C2126 1.327 . S
C2128 C2147 1.429 . S
C2128 H2152 0.950 . S
C2129 C2146 1.574 . S
C2129 C2148 1.368 . S
C2129 H2153 0.949 . S
H2130 C2134 0.949 . S
C2131 C2132 1.349 . S
C2131 C2133 1.327 . S
C2131 H2154 0.950 . S
C2132 C2131 1.349 . S
C2132 C2144 1.349 . S
C2133 C2131 1.327 . S
C2133 C2149 1.429 . S
C2133 H2155 0.950 . S
C2134 H2130 0.949 . S
C2134 C2142 1.574 . S
C2134 C2150 1.368 . S
H2135 C2143 0.950 . S
H2136 C2141 0.950 . S
H2137 C2142 0.949 . S
H2138 C2144 0.950 . S
H2139 C2145 0.950 . S
H2140 C2146 0.949 . S
C2141 H2136 0.950 . S
C2141 C2143 1.327 . S
C2141 C2147 1.429 . S
C2142 C2134 1.574 . S
C2142 H2137 0.949 . S
C2142 C2148 1.368 . S
C2143 C2127 1.349 . S
C2143 H2135 0.950 . S
C2143 C2141 1.327 . S
C2144 C2132 1.349 . S
C2144 H2138 0.950 . S
C2144 C2145 1.327 . S
C2145 H2139 0.950 . S
C2145 C2144 1.327 . S
C2145 C2149 1.429 . S
C2146 C2129 1.574 . S
C2146 H2140 0.949 . S
C2146 C2150 1.368 . S
C2147 C2128 1.429 . S
C2147 C2141 1.429 . S
C2147 C2148 1.523 . S
C2148 C2129 1.368 . S
C2148 C2142 1.368 . S
C2148 C2147 1.523 . S
C2149 C2133 1.429 . S
C2149 C2145 1.429 . S
C2149 C2150 1.523 . S
C2150 C2134 1.368 . S
C2150 C2146 1.368 . S
C2150 C2149 1.523 . S
H2151 C2126 0.950 . S
H2152 C2128 0.950 . S
H2153 C2129 0.949 . S
H2154 C2131 0.950 . S
H2155 C2133 0.950 . S
C2156 C2157 1.349 . S
C2156 C2158 1.327 . S
C2156 H2181 0.950 . S
C2157 C2156 1.349 . S
C2157 C2173 1.349 . S
C2158 C2156 1.327 . S
C2158 C2177 1.429 . S
C2158 H2182 0.950 . S
C2159 C2176 1.574 . S
C2159 C2178 1.368 . S
C2159 H2183 0.949 . S
H2160 C2164 0.949 . S
C2161 C2162 1.349 . S
C2161 C2163 1.327 . S
C2161 H2184 0.950 . S
C2162 C2161 1.349 . S
C2162 C2174 1.349 . S
C2163 C2161 1.327 . S
C2163 C2179 1.429 . S
C2163 H2185 0.950 . S
C2164 H2160 0.949 . S
C2164 C2172 1.574 . S
C2164 C2180 1.368 . S
H2165 C2173 0.950 . S
H2166 C2171 0.950 . S
H2167 C2172 0.949 . S
H2168 C2174 0.950 . S
H2169 C2175 0.950 . S
H2170 C2176 0.949 . S
C2171 H2166 0.950 . S
C2171 C2173 1.327 . S
C2171 C2177 1.429 . S
C2172 C2164 1.574 . S
C2172 H2167 0.949 . S
C2172 C2178 1.368 . S
C2173 C2157 1.349 . S
C2173 H2165 0.950 . S
C2173 C2171 1.327 . S
C2174 C2162 1.349 . S
C2174 H2168 0.950 . S
C2174 C2175 1.327 . S
C2175 H2169 0.950 . S
C2175 C2174 1.327 . S
C2175 C2179 1.429 . S
C2176 C2159 1.574 . S
C2176 H2170 0.949 . S
C2176 C2180 1.368 . S
C2177 C2158 1.429 . S
C2177 C2171 1.429 . S
C2177 C2178 1.523 . S
C2178 C2159 1.368 . S
C2178 C2172 1.368 . S
C2178 C2177 1.523 . S
C2179 C2163 1.429 . S
C2179 C2175 1.429 . S
C2179 C2180 1.523 . S
C2180 C2164 1.368 . S
C2180 C2176 1.368 . S
C2180 C2179 1.523 . S
H2181 C2156 0.950 . S
H2182 C2158 0.950 . S
H2183 C2159 0.949 . S
H2184 C2161 0.950 . S
H2185 C2163 0.950 . S
C2186 C2187 1.349 . S
C2186 C2188 1.327 . S
C2186 H2211 0.950 . S
C2187 C2186 1.349 . S
C2187 C2203 1.349 . S
C2188 C2186 1.327 . S
C2188 C2207 1.429 . S
C2188 H2212 0.950 . S
C2189 C2206 1.574 . S
C2189 C2208 1.368 . S
C2189 H2213 0.949 . S
H2190 C2194 0.949 . S
C2191 C2192 1.349 . S
C2191 C2193 1.327 . S
C2191 H2214 0.950 . S
C2192 C2191 1.349 . S
C2192 C2204 1.349 . S
C2193 C2191 1.327 . S
C2193 C2209 1.429 . S
C2193 H2215 0.950 . S
C2194 H2190 0.949 . S
C2194 C2202 1.574 . S
C2194 C2210 1.368 . S
H2195 C2203 0.950 . S
H2196 C2201 0.950 1_455 S
H2197 C2202 0.949 . S
H2198 C2204 0.950 . S
H2199 C2205 0.950 . S
H2200 C2206 0.949 . S
C2201 H2196 0.950 1_655 S
C2201 C2203 1.327 . S
C2201 C2207 1.429 . S
C2202 C2194 1.574 . S
C2202 H2197 0.949 . S
C2202 C2208 1.368 . S
C2203 C2187 1.349 . S
C2203 H2195 0.950 . S
C2203 C2201 1.327 . S
C2204 C2192 1.349 . S
C2204 H2198 0.950 . S
C2204 C2205 1.327 . S
C2205 H2199 0.950 . S
C2205 C2204 1.327 . S
C2205 C2209 1.429 . S
C2206 C2189 1.574 . S
C2206 H2200 0.949 . S
C2206 C2210 1.368 . S
C2207 C2188 1.429 . S
C2207 C2201 1.429 . S
C2207 C2208 1.523 1_655 S
C2208 C2189 1.368 . S
C2208 C2202 1.368 . S
C2208 C2207 1.523 1_455 S
C2209 C2193 1.429 . S
C2209 C2205 1.429 . S
C2209 C2210 1.523 . S
C2210 C2194 1.368 . S
C2210 C2206 1.368 . S
C2210 C2209 1.523 . S
H2211 C2186 0.950 . S
H2212 C2188 0.950 . S
H2213 C2189 0.949 . S
H2214 C2191 0.950 . S
H2215 C2193 0.950 . S
C2216 C2217 1.349 . S
C2216 C2218 1.327 . S
C2216 H2241 0.950 . S
C2217 C2216 1.349 . S
C2217 C2233 1.349 . S
C2218 C2216 1.327 . S
C2218 C2237 1.429 . S
C2218 H2242 0.950 . S
C2219 C2236 1.574 . S
C2219 C2238 1.368 . S
C2219 H2243 0.949 . S
H2220 C2224 0.949 . S
C2221 C2222 1.349 . S
C2221 C2223 1.327 . S
C2221 H2244 0.950 . S
C2222 C2221 1.349 . S
C2222 C2234 1.349 . S
C2223 C2221 1.327 . S
C2223 C2239 1.429 . S
C2223 H2245 0.950 . S
C2224 H2220 0.949 . S
C2224 C2232 1.574 . S
C2224 C2240 1.368 . S
H2225 C2233 0.950 . S
H2226 C2231 0.950 . S
H2227 C2232 0.949 . S
H2228 C2234 0.950 . S
H2229 C2235 0.950 . S
H2230 C2236 0.949 . S
C2231 H2226 0.950 . S
C2231 C2233 1.327 . S
C2231 C2237 1.429 . S
C2232 C2224 1.574 . S
C2232 H2227 0.949 . S
C2232 C2238 1.368 . S
C2233 C2217 1.349 . S
C2233 H2225 0.950 . S
C2233 C2231 1.327 . S
C2234 C2222 1.349 . S
C2234 H2228 0.950 . S
C2234 C2235 1.327 . S
C2235 H2229 0.950 . S
C2235 C2234 1.327 . S
C2235 C2239 1.429 . S
C2236 C2219 1.574 . S
C2236 H2230 0.949 . S
C2236 C2240 1.368 . S
C2237 C2218 1.429 . S
C2237 C2231 1.429 . S
C2237 C2238 1.523 . S
C2238 C2219 1.368 . S
C2238 C2232 1.368 . S
C2238 C2237 1.523 . S
C2239 C2223 1.429 . S
C2239 C2235 1.429 . S
C2239 C2240 1.523 . S
C2240 C2224 1.368 . S
C2240 C2236 1.368 . S
C2240 C2239 1.523 . S
H2241 C2216 0.950 . S
H2242 C2218 0.950 . S
H2243 C2219 0.949 . S
H2244 C2221 0.950 . S
H2245 C2223 0.950 . S
C2246 C2247 1.349 . S
C2246 C2248 1.327 . S
C2246 H2271 0.950 . S
C2247 C2246 1.349 . S
C2247 C2263 1.349 . S
C2248 C2246 1.327 . S
C2248 C2267 1.429 . S
C2248 H2272 0.950 . S
C2249 C2266 1.574 . S
C2249 C2268 1.368 . S
C2249 H2273 0.949 . S
H2250 C2254 0.949 . S
C2251 C2252 1.349 . S
C2251 C2253 1.327 . S
C2251 H2274 0.950 . S
C2252 C2251 1.349 . S
C2252 C2264 1.349 . S
C2253 C2251 1.327 . S
C2253 C2269 1.429 . S
C2253 H2275 0.950 . S
C2254 H2250 0.949 . S
C2254 C2262 1.574 . S
C2254 C2270 1.368 . S
H2255 C2263 0.950 . S
H2256 C2261 0.950 . S
H2257 C2262 0.949 . S
H2258 C2264 0.950 . S
H2259 C2265 0.950 . S
H2260 C2266 0.949 . S
C2261 H2256 0.950 . S
C2261 C2263 1.327 . S
C2261 C2267 1.429 . S
C2262 C2254 1.574 . S
C2262 H2257 0.949 . S
C2262 C2268 1.368 . S
C2263 C2247 1.349 . S
C2263 H2255 0.950 . S
C2263 C2261 1.327 . S
C2264 C2252 1.349 . S
C2264 H2258 0.950 . S
C2264 C2265 1.327 . S
C2265 H2259 0.950 . S
C2265 C2264 1.327 . S
C2265 C2269 1.429 . S
C2266 C2249 1.574 . S
C2266 H2260 0.949 . S
C2266 C2270 1.368 . S
C2267 C2248 1.429 . S
C2267 C2261 1.429 . S
C2267 C2268 1.523 . S
C2268 C2249 1.368 . S
C2268 C2262 1.368 . S
C2268 C2267 1.523 . S
C2269 C2253 1.429 . S
C2269 C2265 1.429 . S
C2269 C2270 1.523 1_655 S
C2270 C2254 1.368 . S
C2270 C2266 1.368 . S
C2270 C2269 1.523 1_455 S
H2271 C2246 0.950 . S
H2272 C2248 0.950 . S
H2273 C2249 0.949 . S
H2274 C2251 0.950 . S
H2275 C2253 0.950 . S
C2276 C2277 1.349 . S
C2276 C2278 1.327 . S
C2276 H2301 0.950 . S
C2277 C2276 1.349 . S
C2277 C2293 1.349 . S
C2278 C2276 1.327 . S
C2278 C2297 1.429 . S
C2278 H2302 0.950 . S
C2279 C2296 1.574 . S
C2279 C2298 1.368 . S
C2279 H2303 0.949 . S
H2280 C2284 0.949 . S
C2281 C2282 1.349 . S
C2281 C2283 1.327 . S
C2281 H2304 0.950 . S
C2282 C2281 1.349 . S
C2282 C2294 1.349 . S
C2283 C2281 1.327 . S
C2283 C2299 1.429 . S
C2283 H2305 0.950 . S
C2284 H2280 0.949 . S
C2284 C2292 1.574 . S
C2284 C2300 1.368 . S
H2285 C2293 0.950 . S
H2286 C2291 0.950 . S
H2287 C2292 0.949 . S
H2288 C2294 0.950 . S
H2289 C2295 0.950 . S
H2290 C2296 0.949 . S
C2291 H2286 0.950 . S
C2291 C2293 1.327 . S
C2291 C2297 1.429 . S
C2292 C2284 1.574 . S
C2292 H2287 0.949 . S
C2292 C2298 1.368 . S
C2293 C2277 1.349 . S
C2293 H2285 0.950 . S
C2293 C2291 1.327 . S
C2294 C2282 1.349 . S
C2294 H2288 0.950 . S
C2294 C2295 1.327 . S
C2295 H2289 0.950 . S
C2295 C2294 1.327 . S
C2295 C2299 1.429 . S
C2296 C2279 1.574 . S
C2296 H2290 0.949 . S
C2296 C2300 1.368 . S
C2297 C2278 1.429 . S
C2297 C2291 1.429 . S
C2297 C2298 1.523 . S
C2298 C2279 1.368 . S
C2298 C2292 1.368 . S
C2298 C2297 1.523 . S
C2299 C2283 1.429 . S
C2299 C2295 1.429 . S
C2299 C2300 1.523 . S
C2300 C2284 1.368 . S
C2300 C2296 1.368 . S
C2300 C2299 1.523 . S
H2301 C2276 0.950 . S
H2302 C2278 0.950 . S
H2303 C2279 0.949 . S
H2304 C2281 0.950 . S
H2305 C2283 0.950 . S
C2306 C2307 1.349 . S
C2306 C2308 1.327 . S
C2306 H2331 0.950 . S
C2307 C2306 1.349 . S
C2307 C2323 1.349 . S
C2308 C2306 1.327 . S
C2308 C2327 1.429 . S
C2308 H2332 0.950 . S
C2309 C2326 1.574 . S
C2309 C2328 1.368 . S
C2309 H2333 0.949 . S
H2310 C2314 0.949 . S
C2311 C2312 1.349 . S
C2311 C2313 1.327 . S
C2311 H2334 0.950 . S
C2312 C2311 1.349 . S
C2312 C2324 1.349 . S
C2313 C2311 1.327 . S
C2313 C2329 1.429 . S
C2313 H2335 0.950 . S
C2314 H2310 0.949 . S
C2314 C2322 1.574 . S
C2314 C2330 1.368 . S
H2315 C2323 0.950 . S
H2316 C2321 0.950 . S
H2317 C2322 0.949 . S
H2318 C2324 0.950 . S
H2319 C2325 0.950 . S
H2320 C2326 0.949 . S
C2321 H2316 0.950 . S
C2321 C2323 1.327 . S
C2321 C2327 1.429 . S
C2322 C2314 1.574 . S
C2322 H2317 0.949 . S
C2322 C2328 1.368 . S
C2323 C2307 1.349 . S
C2323 H2315 0.950 . S
C2323 C2321 1.327 . S
C2324 C2312 1.349 . S
C2324 H2318 0.950 . S
C2324 C2325 1.327 . S
C2325 H2319 0.950 . S
C2325 C2324 1.327 . S
C2325 C2329 1.429 . S
C2326 C2309 1.574 . S
C2326 H2320 0.949 . S
C2326 C2330 1.368 . S
C2327 C2308 1.429 . S
C2327 C2321 1.429 . S
C2327 C2328 1.523 . S
C2328 C2309 1.368 . S
C2328 C2322 1.368 . S
C2328 C2327 1.523 . S
C2329 C2313 1.429 . S
C2329 C2325 1.429 . S
C2329 C2330 1.523 . S
C2330 C2314 1.368 . S
C2330 C2326 1.368 . S
C2330 C2329 1.523 . S
H2331 C2306 0.950 . S
H2332 C2308 0.950 . S
H2333 C2309 0.949 . S
H2334 C2311 0.950 . S
H2335 C2313 0.950 . S
C417 C62 1.503 . S
C422 C4 1.503 . S
C447 C69 1.503 . S
C452 C23 1.503 . S
C477 C82 1.503 . S
C482 C30 1.503 . S
C507 C49 1.503 . S
C512 C101 1.503 . S
C537 C108 1.503 . S
C542 C166 1.503 . S
C567 C179 1.503 . S
C572 C121 1.503 . S
C597 C140 1.503 . S
C602 C192 1.503 . S
C627 C199 1.503 . S
C632 C147 1.503 . S
C657 C218 1.503 . S
C662 C264 1.503 . S
C687 C283 1.503 . S
C692 C231 1.503 . S
C717 C296 1.503 . S
C722 C244 1.503 . S
C747 C309 1.503 . S
C752 C257 1.503 . S
C777 C322 1.503 . S
C782 C374 1.503 . S
C807 C335 1.503 . S
C812 C381 1.503 . S
C837 C342 1.503 . S
C842 C400 1.503 . S
C867 C355 1.503 . S
C872 C407 1.503 . S
C897 C10 1.519 . S
C902 C95 1.519 . S
C927 C17 1.519 . S
C932 C56 1.519 . S
C957 C36 1.519 . S
C962 C75 1.519 . S
C987 C88 1.519 . S
C992 C43 1.519 . S
C1017 C205 1.519 . S
C1022 C114 1.519 . S
C1047 C160 1.519 . S
C1052 C127 1.519 . S
C1077 C173 1.519 . S
C1082 C134 1.519 . S
C1107 C153 1.519 . S
C1112 C186 1.519 . S
C1137 C303 1.519 . S
C1142 C212 1.519 . S
C1167 C270 1.519 . S
C1172 C225 1.519 . S
C1197 C277 1.519 . S
C1202 C238 1.519 . S
C1227 C251 1.519 . S
C1232 C290 1.519 . S
C1257 C316 1.519 . S
C1262 C413 1.519 . S
C1287 C329 1.519 . S
C1292 C368 1.519 . S
C1317 C348 1.519 . S
C1322 C387 1.519 . S
C1347 C394 1.519 . S
C1352 C361 1.519 . S
C1377 C5 1.493 . S
C1382 C330 1.493 . S
C1407 C16 1.493 . S
C1412 C135 1.493 . S
C1437 C31 1.493 . S
C1442 C354 1.493 . S
C1467 C107 1.493 . S
C1472 C42 1.493 . S
C1497 C406 1.493 . S
C1502 C55 1.493 . S
C1527 C70 1.493 . S
C1532 C161 1.493 . S
C1557 C83 1.493 . S
C1562 C380 1.493 . S
C1587 C94 1.493 . S
C1592 C187 1.493 . S
C1617 C226 1.493 . S
C1622 C109 1.493 . S
C1647 C29 1.493 . S
C1652 C122 1.493 . S
C1677 C252 1.493 . S
C1682 C133 1.493 . S
C1707 C148 1.493 . S
C1712 C3 1.493 . S
C1737 C304 1.493 . S
C1742 C159 1.493 . S
C1767 C57 1.493 . S
C1772 C172 1.493 . S
C1797 C278 1.493 . S
C1802 C185 1.493 . S
C1827 C81 1.493 . S
C1832 C200 1.493 . S
C1857 C120 1.493 . S
C1862 C211 1.493 . S
C1887 C224 1.493 . S
C1892 C341 1.493 . S
C1917 C237 1.493 . S
C1922 C146 1.493 . S
C1947 C250 1.493 . S
C1952 C317 1.493 . S
C1977 C265 1.493 . S
C1982 C198 1.493 . S
C2007 C369 1.493 . S
C2012 C276 1.493 . S
C2037 C289 1.493 . S
C2042 C174 1.493 . S
C2067 C302 1.493 . S
C2072 C395 1.493 . S
C2097 C315 1.493 . S
C2102 C18 1.493 . S
C2127 C328 1.493 . S
C2132 C239 1.493 . S
C2157 C44 1.493 . S
C2162 C343 1.493 . S
C2187 C213 1.493 . S
C2192 C356 1.493 . S
C2217 C367 1.493 . S
C2222 C96 1.493 . S
C2247 C382 1.493 . S
C2252 C263 1.493 . S
C2277 C68 1.493 . S
C2282 C393 1.493 . S
C2307 C291 1.493 . S
C2312 C408 1.493 . S
