# Generated by pormake.
# Topology zni, (4)-cn, num edge types: 1
# Building blocks:
#     Node 0, Type 0, BuildingBlock: QUQFOY_clean_sbu_1, # of connection points: 4
#     Node 1, Type 0, BuildingBlock: QUQFOY_clean_sbu_1, # of connection points: 4
#     Node 2, Type 0, BuildingBlock: QUQFOY_clean_sbu_1, # of connection points: 4
#     Node 3, Type 0, BuildingBlock: QUQFOY_clean_sbu_1, # of connection points: 4
#     Node 4, Type 0, BuildingBlock: QUQFOY_clean_sbu_1, # of connection points: 4
#     Node 5, Type 0, BuildingBlock: QUQFOY_clean_sbu_1, # of connection points: 4
#     Node 6, Type 0, BuildingBlock: QUQFOY_clean_sbu_1, # of connection points: 4
#     Node 7, Type 0, BuildingBlock: QUQFOY_clean_sbu_1, # of connection points: 4
#     Node 8, Type 0, BuildingBlock: QUQFOY_clean_sbu_1, # of connection points: 4
#     Node 9, Type 0, BuildingBlock: QUQFOY_clean_sbu_1, # of connection points: 4
#     Node 10, Type 0, BuildingBlock: QUQFOY_clean_sbu_1, # of connection points: 4
#     Node 11, Type 0, BuildingBlock: QUQFOY_clean_sbu_1, # of connection points: 4
#     Node 12, Type 0, BuildingBlock: QUQFOY_clean_sbu_1, # of connection points: 4
#     Node 13, Type 0, BuildingBlock: QUQFOY_clean_sbu_1, # of connection points: 4
#     Node 14, Type 0, BuildingBlock: QUQFOY_clean_sbu_1, # of connection points: 4
#     Node 15, Type 0, BuildingBlock: QUQFOY_clean_sbu_1, # of connection points: 4
#     Node 16, Type 0, BuildingBlock: QUQFOY_clean_sbu_1, # of connection points: 4
#     Node 17, Type 0, BuildingBlock: QUQFOY_clean_sbu_1, # of connection points: 4
#     Node 18, Type 0, BuildingBlock: QUQFOY_clean_sbu_1, # of connection points: 4
#     Node 19, Type 0, BuildingBlock: QUQFOY_clean_sbu_1, # of connection points: 4
#     Node 20, Type 0, BuildingBlock: QUQFOY_clean_sbu_1, # of connection points: 4
#     Node 21, Type 0, BuildingBlock: QUQFOY_clean_sbu_1, # of connection points: 4
#     Node 22, Type 0, BuildingBlock: QUQFOY_clean_sbu_1, # of connection points: 4
#     Node 23, Type 0, BuildingBlock: QUQFOY_clean_sbu_1, # of connection points: 4
#     Node 24, Type 0, BuildingBlock: QUQFOY_clean_sbu_1, # of connection points: 4
#     Node 25, Type 0, BuildingBlock: QUQFOY_clean_sbu_1, # of connection points: 4
#     Node 26, Type 0, BuildingBlock: QUQFOY_clean_sbu_1, # of connection points: 4
#     Node 27, Type 0, BuildingBlock: QUQFOY_clean_sbu_1, # of connection points: 4
#     Node 28, Type 0, BuildingBlock: QUQFOY_clean_sbu_1, # of connection points: 4
#     Node 29, Type 0, BuildingBlock: QUQFOY_clean_sbu_1, # of connection points: 4
#     Node 30, Type 0, BuildingBlock: QUQFOY_clean_sbu_1, # of connection points: 4
#     Node 31, Type 0, BuildingBlock: QUQFOY_clean_sbu_1, # of connection points: 4
#     Edge 32, Type (0, 0), BuildingBlock: MIFKUJ_clean_linker_0, # of connection points: 2
#     Edge 33, Type (0, 0), BuildingBlock: MIFKUJ_clean_linker_0, # of connection points: 2
#     Edge 34, Type (0, 0), BuildingBlock: MIFKUJ_clean_linker_0, # of connection points: 2
#     Edge 35, Type (0, 0), BuildingBlock: MIFKUJ_clean_linker_0, # of connection points: 2
#     Edge 36, Type (0, 0), BuildingBlock: MIFKUJ_clean_linker_0, # of connection points: 2
#     Edge 37, Type (0, 0), BuildingBlock: MIFKUJ_clean_linker_0, # of connection points: 2
#     Edge 38, Type (0, 0), BuildingBlock: MIFKUJ_clean_linker_0, # of connection points: 2
#     Edge 39, Type (0, 0), BuildingBlock: MIFKUJ_clean_linker_0, # of connection points: 2
#     Edge 40, Type (0, 0), BuildingBlock: MIFKUJ_clean_linker_0, # of connection points: 2
#     Edge 41, Type (0, 0), BuildingBlock: MIFKUJ_clean_linker_0, # of connection points: 2
#     Edge 42, Type (0, 0), BuildingBlock: MIFKUJ_clean_linker_0, # of connection points: 2
#     Edge 43, Type (0, 0), BuildingBlock: MIFKUJ_clean_linker_0, # of connection points: 2
#     Edge 44, Type (0, 0), BuildingBlock: MIFKUJ_clean_linker_0, # of connection points: 2
#     Edge 45, Type (0, 0), BuildingBlock: MIFKUJ_clean_linker_0, # of connection points: 2
#     Edge 46, Type (0, 0), BuildingBlock: MIFKUJ_clean_linker_0, # of connection points: 2
#     Edge 47, Type (0, 0), BuildingBlock: MIFKUJ_clean_linker_0, # of connection points: 2
#     Edge 48, Type (0, 0), BuildingBlock: MIFKUJ_clean_linker_0, # of connection points: 2
#     Edge 49, Type (0, 0), BuildingBlock: MIFKUJ_clean_linker_0, # of connection points: 2
#     Edge 50, Type (0, 0), BuildingBlock: MIFKUJ_clean_linker_0, # of connection points: 2
#     Edge 51, Type (0, 0), BuildingBlock: MIFKUJ_clean_linker_0, # of connection points: 2
#     Edge 52, Type (0, 0), BuildingBlock: MIFKUJ_clean_linker_0, # of connection points: 2
#     Edge 53, Type (0, 0), BuildingBlock: MIFKUJ_clean_linker_0, # of connection points: 2
#     Edge 54, Type (0, 0), BuildingBlock: MIFKUJ_clean_linker_0, # of connection points: 2
#     Edge 55, Type (0, 0), BuildingBlock: MIFKUJ_clean_linker_0, # of connection points: 2
#     Edge 56, Type (0, 0), BuildingBlock: MIFKUJ_clean_linker_0, # of connection points: 2
#     Edge 57, Type (0, 0), BuildingBlock: MIFKUJ_clean_linker_0, # of connection points: 2
#     Edge 58, Type (0, 0), BuildingBlock: MIFKUJ_clean_linker_0, # of connection points: 2
#     Edge 59, Type (0, 0), BuildingBlock: MIFKUJ_clean_linker_0, # of connection points: 2
#     Edge 60, Type (0, 0), BuildingBlock: MIFKUJ_clean_linker_0, # of connection points: 2
#     Edge 61, Type (0, 0), BuildingBlock: MIFKUJ_clean_linker_0, # of connection points: 2
#     Edge 62, Type (0, 0), BuildingBlock: MIFKUJ_clean_linker_0, # of connection points: 2
#     Edge 63, Type (0, 0), BuildingBlock: MIFKUJ_clean_linker_0, # of connection points: 2
#     Edge 64, Type (0, 0), BuildingBlock: MIFKUJ_clean_linker_0, # of connection points: 2
#     Edge 65, Type (0, 0), BuildingBlock: MIFKUJ_clean_linker_0, # of connection points: 2
#     Edge 66, Type (0, 0), BuildingBlock: MIFKUJ_clean_linker_0, # of connection points: 2
#     Edge 67, Type (0, 0), BuildingBlock: MIFKUJ_clean_linker_0, # of connection points: 2
#     Edge 68, Type (0, 0), BuildingBlock: MIFKUJ_clean_linker_0, # of connection points: 2
#     Edge 69, Type (0, 0), BuildingBlock: MIFKUJ_clean_linker_0, # of connection points: 2
#     Edge 70, Type (0, 0), BuildingBlock: MIFKUJ_clean_linker_0, # of connection points: 2
#     Edge 71, Type (0, 0), BuildingBlock: MIFKUJ_clean_linker_0, # of connection points: 2
#     Edge 72, Type (0, 0), BuildingBlock: MIFKUJ_clean_linker_0, # of connection points: 2
#     Edge 73, Type (0, 0), BuildingBlock: MIFKUJ_clean_linker_0, # of connection points: 2
#     Edge 74, Type (0, 0), BuildingBlock: MIFKUJ_clean_linker_0, # of connection points: 2
#     Edge 75, Type (0, 0), BuildingBlock: MIFKUJ_clean_linker_0, # of connection points: 2
#     Edge 76, Type (0, 0), BuildingBlock: MIFKUJ_clean_linker_0, # of connection points: 2
#     Edge 77, Type (0, 0), BuildingBlock: MIFKUJ_clean_linker_0, # of connection points: 2
#     Edge 78, Type (0, 0), BuildingBlock: MIFKUJ_clean_linker_0, # of connection points: 2
#     Edge 79, Type (0, 0), BuildingBlock: MIFKUJ_clean_linker_0, # of connection points: 2
#     Edge 80, Type (0, 0), BuildingBlock: MIFKUJ_clean_linker_0, # of connection points: 2
#     Edge 81, Type (0, 0), BuildingBlock: MIFKUJ_clean_linker_0, # of connection points: 2
#     Edge 82, Type (0, 0), BuildingBlock: MIFKUJ_clean_linker_0, # of connection points: 2
#     Edge 83, Type (0, 0), BuildingBlock: MIFKUJ_clean_linker_0, # of connection points: 2
#     Edge 84, Type (0, 0), BuildingBlock: MIFKUJ_clean_linker_0, # of connection points: 2
#     Edge 85, Type (0, 0), BuildingBlock: MIFKUJ_clean_linker_0, # of connection points: 2
#     Edge 86, Type (0, 0), BuildingBlock: MIFKUJ_clean_linker_0, # of connection points: 2
#     Edge 87, Type (0, 0), BuildingBlock: MIFKUJ_clean_linker_0, # of connection points: 2
#     Edge 88, Type (0, 0), BuildingBlock: MIFKUJ_clean_linker_0, # of connection points: 2
#     Edge 89, Type (0, 0), BuildingBlock: MIFKUJ_clean_linker_0, # of connection points: 2
#     Edge 90, Type (0, 0), BuildingBlock: MIFKUJ_clean_linker_0, # of connection points: 2
#     Edge 91, Type (0, 0), BuildingBlock: MIFKUJ_clean_linker_0, # of connection points: 2
#     Edge 92, Type (0, 0), BuildingBlock: MIFKUJ_clean_linker_0, # of connection points: 2
#     Edge 93, Type (0, 0), BuildingBlock: MIFKUJ_clean_linker_0, # of connection points: 2
#     Edge 94, Type (0, 0), BuildingBlock: MIFKUJ_clean_linker_0, # of connection points: 2
#     Edge 95, Type (0, 0), BuildingBlock: MIFKUJ_clean_linker_0, # of connection points: 2
# Relax obj value: 0.189
# Max RMSD: 0.171
# Mean RMSD: 0.171
data_MOF--net-zni--node1-QUQFOY_clean_sbu_1--edge1-MIFKUJ_clean_linker_0
_symmetry_space_group_name_H-M    P1
_symmetry_Int_Tables_number       1
_symmetry_cell_setting            triclinic
loop_
_symmetry_equiv_pos_as_xyz
'x, y, z'
_cell_length_a     77.190368
_cell_length_b     77.194267
_cell_length_c     43.482219
_cell_angle_alpha  89.997533
_cell_angle_beta   90.001436
_cell_angle_gamma 89.997884
loop_
_atom_site_label
_atom_site_type_symbol
_atom_site_fract_x
_atom_site_fract_y
_atom_site_fract_z
_atom_type_partial_charge
O0 O 0.07575 0.10382 0.3643 0.0
Cd1 Cd 0.10228 0.10404 0.3586 0.0
Cd2 Cd 0.101 0.10956 0.42342 0.0
O3 O 0.07523 0.10384 0.41508 0.0
O4 O 0.10666 0.09301 0.31797 0.0
O5 O 0.11503 0.08139 0.36208 0.0
C6 C 0.11389 0.08036 0.33247 0.0
C7 C 0.11145 0.10414 0.47328 0.0
C8 C 0.06737 0.10302 0.38942 0.0
C9 C 0.11597 0.13766 0.38087 0.0
O10 O 0.11089 0.13265 0.40719 0.0
O11 O 0.11452 0.12779 0.35765 0.0
O12 O 0.09996 0.11576 0.46771 0.0
O13 O 0.11662 0.09473 0.45053 0.0
O14 O 0.14792 0.8295 0.62118 0.0
Cd15 Cd 0.1488 0.85602 0.6156 0.0
Cd16 Cd 0.14063 0.85422 0.68039 0.0
O17 O 0.14509 0.82826 0.67169 0.0
O18 O 0.15959 0.8594 0.57444 0.0
O19 O 0.17206 0.86787 0.61769 0.0
C20 C 0.17268 0.86632 0.58812 0.0
C21 C 0.14542 0.86397 0.73085 0.0
C22 C 0.14697 0.82074 0.64588 0.0
C23 C 0.11498 0.87104 0.63542 0.0
O24 O 0.11873 0.86555 0.66213 0.0
O25 O 0.12559 0.86924 0.61333 0.0
O26 O 0.13314 0.85341 0.72407 0.0
O27 O 0.15577 0.86858 0.70903 0.0
O28 O 0.42468 0.89639 0.86599 0.0
Cd29 Cd 0.39798 0.89678 0.86419 0.0
Cd30 Cd 0.4016 0.89214 0.92752 0.0
O31 O 0.42691 0.89829 0.91645 0.0
O32 O 0.39179 0.90835 0.8248 0.0
O33 O 0.38626 0.91973 0.87053 0.0
C34 C 0.38591 0.9211 0.84089 0.0
C35 C 0.39202 0.89917 0.97721 0.0
C36 C 0.43392 0.89814 0.88999 0.0
C37 C 0.38523 0.8634 0.88887 0.0
O38 O 0.39192 0.8684 0.91404 0.0
O39 O 0.38514 0.87336 0.86561 0.0
O40 O 0.40389 0.88782 0.97236 0.0
O41 O 0.3859 0.90732 0.95368 0.0
O42 O 0.35526 0.17258 0.1086 0.0
Cd43 Cd 0.35511 0.14585 0.10565 0.0
Cd44 Cd 0.36095 0.14854 0.16846 0.0
O45 O 0.354 0.17379 0.15918 0.0
O46 O 0.34329 0.14032 0.06617 0.0
O47 O 0.3323 0.13376 0.11175 0.0
C48 C 0.33071 0.134 0.08214 0.0
C49 C 0.35359 0.13828 0.21754 0.0
C50 C 0.35364 0.18131 0.13321 0.0
C51 C 0.3893 0.13355 0.12786 0.0
O52 O 0.38489 0.14008 0.15352 0.0
O53 O 0.37864 0.13311 0.1056 0.0
O54 O 0.365 0.15019 0.21348 0.0
O55 O 0.34596 0.13211 0.19351 0.0
O56 O 0.07709 0.89515 0.14538 0.0
Cd57 Cd 0.10367 0.89553 0.14978 0.0
Cd58 Cd 0.10257 0.89014 0.08604 0.0
O59 O 0.07676 0.89557 0.09467 0.0
O60 O 0.10869 0.90771 0.18909 0.0
O61 O 0.11587 0.91822 0.14344 0.0
C62 C 0.1153 0.92009 0.17298 0.0
C63 C 0.11239 0.89775 0.03677 0.0
C64 C 0.06878 0.89609 0.12022 0.0
C65 C 0.11801 0.8621 0.12751 0.0
O66 O 0.11278 0.86688 0.10111 0.0
O67 O 0.11641 0.87207 0.15058 0.0
O68 O 0.10121 0.88567 0.04111 0.0
O69 O 0.11805 0.90595 0.0606 0.0
O70 O 0.35536 0.82528 0.39029 0.0
Cd71 Cd 0.35448 0.8519 0.39402 0.0
Cd72 Cd 0.36079 0.8497 0.32974 0.0
O73 O 0.35607 0.82393 0.33961 0.0
O74 O 0.34291 0.8567 0.43403 0.0
O75 O 0.33145 0.86377 0.38909 0.0
C76 C 0.33016 0.86319 0.41872 0.0
C77 C 0.35418 0.85858 0.27939 0.0
C78 C 0.35521 0.81645 0.36562 0.0
C79 C 0.38784 0.86658 0.37171 0.0
O80 O 0.38346 0.86079 0.34548 0.0
O81 O 0.37767 0.86515 0.39455 0.0
O82 O 0.36646 0.84785 0.28529 0.0
O83 O 0.34509 0.86416 0.30224 0.0
O84 O 0.42161 0.10158 0.63242 0.0
Cd85 Cd 0.39539 0.10151 0.64123 0.0
Cd86 Cd 0.39454 0.10832 0.57505 0.0
O87 O 0.42072 0.10386 0.58179 0.0
O88 O 0.3931 0.09095 0.68279 0.0
O89 O 0.38276 0.07867 0.64065 0.0
C90 C 0.38531 0.07805 0.67001 0.0
C91 C 0.38447 0.1039 0.52459 0.0
C92 C 0.42928 0.10212 0.60658 0.0
C93 C 0.37954 0.13483 0.62109 0.0
O94 O 0.38333 0.13015 0.5939 0.0
O95 O 0.38294 0.1251 0.64386 0.0
O96 O 0.39492 0.11623 0.53157 0.0
O97 O 0.38001 0.09338 0.54625 0.0
O98 O 0.14695 0.1724 0.88679 0.0
Cd99 Cd 0.14766 0.14582 0.89149 0.0
Cd100 Cd 0.14282 0.14739 0.8266 0.0
O101 O 0.14738 0.17324 0.83607 0.0
O102 O 0.15824 0.14148 0.93253 0.0
O103 O 0.17081 0.13391 0.88881 0.0
C104 C 0.17137 0.13485 0.91848 0.0
C105 C 0.15017 0.13846 0.77661 0.0
C106 C 0.14765 0.18098 0.86187 0.0
C107 C 0.11473 0.13112 0.86722 0.0
O108 O 0.1198 0.13655 0.84115 0.0
O109 O 0.12434 0.13274 0.89078 0.0
O110 O 0.1379 0.14929 0.78188 0.0
O111 O 0.15879 0.13272 0.7999 0.0
O112 O 0.92538 0.90191 0.62749 0.0
Cd113 Cd 0.89859 0.90172 0.63159 0.0
Cd114 Cd 0.90208 0.89361 0.56868 0.0
O115 O 0.92704 0.90165 0.57684 0.0
O116 O 0.89402 0.91277 0.6722 0.0
O117 O 0.88595 0.92448 0.62806 0.0
C118 C 0.88693 0.92548 0.65768 0.0
C119 C 0.89093 0.89769 0.51895 0.0
C120 C 0.93431 0.9029 0.60295 0.0
C121 C 0.88757 0.86655 0.61242 0.0
O122 O 0.89476 0.8701 0.58693 0.0
O123 O 0.88599 0.87806 0.63311 0.0
O124 O 0.90334 0.88705 0.52454 0.0
O125 O 0.88508 0.90676 0.54163 0.0
O126 O 0.85192 0.17417 0.38338 0.0
Cd127 Cd 0.85181 0.14759 0.38842 0.0
Cd128 Cd 0.85782 0.14897 0.32439 0.0
O129 O 0.85237 0.17476 0.33267 0.0
O130 O 0.84111 0.14335 0.4294 0.0
O131 O 0.82887 0.13526 0.38569 0.0
C132 C 0.82816 0.1364 0.41532 0.0
C133 C 0.84997 0.13825 0.27588 0.0
C134 C 0.85141 0.18261 0.3583 0.0
C135 C 0.88565 0.13368 0.36612 0.0
O136 O 0.88114 0.13912 0.33972 0.0
O137 O 0.87538 0.13494 0.38886 0.0
O138 O 0.86187 0.14973 0.27926 0.0
O139 O 0.84202 0.13291 0.30021 0.0
O140 O 0.57849 0.10055 0.13353 0.0
Cd141 Cd 0.60481 0.10064 0.14193 0.0
Cd142 Cd 0.60553 0.10733 0.07603 0.0
O143 O 0.57937 0.10315 0.08294 0.0
O144 O 0.60773 0.08978 0.18313 0.0
O145 O 0.61755 0.07789 0.14022 0.0
C146 C 0.61543 0.07705 0.16967 0.0
C147 C 0.61556 0.10294 0.02552 0.0
C148 C 0.57081 0.10129 0.10771 0.0
C149 C 0.62045 0.13406 0.12157 0.0
O150 O 0.61662 0.12927 0.09447 0.0
O151 O 0.6172 0.12434 0.14443 0.0
O152 O 0.60507 0.11522 0.03255 0.0
O153 O 0.62004 0.0924 0.04713 0.0
O154 O 0.64912 0.82871 0.87531 0.0
Cd155 Cd 0.64948 0.85534 0.87934 0.0
Cd156 Cd 0.64373 0.85357 0.81631 0.0
O157 O 0.64939 0.82785 0.82463 0.0
O158 O 0.66099 0.86025 0.91937 0.0
O159 O 0.67235 0.8675 0.87442 0.0
C160 C 0.67368 0.86685 0.90405 0.0
C161 C 0.65241 0.86472 0.76858 0.0
C162 C 0.65 0.82013 0.85042 0.0
C163 C 0.61562 0.8689 0.85715 0.0
O164 O 0.62012 0.86311 0.83097 0.0
O165 O 0.626 0.86811 0.8798 0.0
O166 O 0.64047 0.85318 0.77097 0.0
O167 O 0.65989 0.86988 0.79351 0.0
O168 O 0.92361 0.10138 0.86833 0.0
Cd169 Cd 0.89692 0.1016 0.86559 0.0
Cd170 Cd 0.90028 0.10585 0.92938 0.0
O171 O 0.92569 0.09994 0.91884 0.0
O172 O 0.89154 0.09223 0.824 0.0
O173 O 0.88456 0.07863 0.86705 0.0
C174 C 0.88496 0.07885 0.83733 0.0
C175 C 0.88991 0.09694 0.97753 0.0
C176 C 0.93277 0.09982 0.89246 0.0
C177 C 0.88464 0.13515 0.89163 0.0
O178 O 0.89102 0.12993 0.91692 0.0
O179 O 0.88459 0.12531 0.86819 0.0
O180 O 0.9019 0.1084 0.97478 0.0
O181 O 0.88395 0.08995 0.95272 0.0
O182 O 0.64483 0.1732 0.61177 0.0
Cd183 Cd 0.64486 0.14676 0.60509 0.0
Cd184 Cd 0.63836 0.14641 0.66919 0.0
O185 O 0.6432 0.17247 0.6624 0.0
O186 O 0.65684 0.14283 0.56517 0.0
O187 O 0.6675 0.13419 0.60989 0.0
C188 C 0.66923 0.13563 0.58042 0.0
C189 C 0.64558 0.13607 0.71832 0.0
C190 C 0.6447 0.18098 0.63753 0.0
C191 C 0.61111 0.13172 0.62531 0.0
O192 O 0.6156 0.13603 0.65237 0.0
O193 O 0.62126 0.13425 0.60272 0.0
O194 O 0.63316 0.14686 0.71393 0.0
O195 O 0.65427 0.13101 0.69461 0.0
O196 O 0.57751 0.89656 0.36875 0.0
Cd197 Cd 0.60414 0.89626 0.36493 0.0
Cd198 Cd 0.6025 0.89288 0.42782 0.0
O199 O 0.57685 0.89885 0.41925 0.0
O200 O 0.60972 0.90739 0.32486 0.0
O201 O 0.6166 0.91891 0.3699 0.0
C202 C 0.61628 0.9201 0.34023 0.0
C203 C 0.61444 0.90295 0.47399 0.0
C204 C 0.56903 0.89859 0.39353 0.0
C205 C 0.61696 0.86294 0.39032 0.0
O206 O 0.61132 0.86853 0.41593 0.0
O207 O 0.61638 0.87249 0.36653 0.0
O208 O 0.60235 0.8915 0.47346 0.0
O209 O 0.61964 0.90923 0.44807 0.0
O210 O 0.85326 0.82525 0.10482 0.0
Cd211 Cd 0.85326 0.85193 0.10212 0.0
Cd212 Cd 0.85755 0.84861 0.16659 0.0
O213 O 0.85126 0.82337 0.15532 0.0
O214 O 0.8433 0.85749 0.06108 0.0
O215 O 0.83031 0.86421 0.10486 0.0
C216 C 0.83011 0.864 0.07513 0.0
C217 C 0.85035 0.85759 0.21658 0.0
C218 C 0.85136 0.81621 0.12901 0.0
C219 C 0.88657 0.86461 0.128 0.0
O220 O 0.88135 0.85823 0.1533 0.0
O221 O 0.87682 0.86449 0.10447 0.0
O222 O 0.86178 0.84585 0.21141 0.0
O223 O 0.84238 0.86409 0.19319 0.0
O224 O 0.57623 0.60616 0.85886 0.0
Cd225 Cd 0.60284 0.60528 0.85472 0.0
Cd226 Cd 0.60057 0.61274 0.91872 0.0
O227 O 0.57483 0.60734 0.90954 0.0
O228 O 0.60749 0.59289 0.81543 0.0
O229 O 0.61467 0.58234 0.86102 0.0
C230 C 0.61397 0.58044 0.8315 0.0
C231 C 0.61028 0.6081 0.96929 0.0
C232 C 0.56739 0.60614 0.88353 0.0
C233 C 0.61713 0.63912 0.87473 0.0
O234 O 0.61122 0.63515 0.90107 0.0
O235 O 0.61602 0.62849 0.85251 0.0
O236 O 0.5992 0.61993 0.96254 0.0
O237 O 0.61544 0.59809 0.94735 0.0
O238 O 0.64708 0.32548 0.11896 0.0
Cd239 Cd 0.64709 0.35215 0.11555 0.0
Cd240 Cd 0.64187 0.35 0.17861 0.0
O241 O 0.64704 0.32424 0.16961 0.0
O242 O 0.65851 0.35756 0.07566 0.0
O243 O 0.66983 0.36448 0.12082 0.0
C244 C 0.67115 0.36413 0.09117 0.0
C245 C 0.65094 0.36048 0.22654 0.0
C246 C 0.64778 0.31671 0.14367 0.0
C247 C 0.61344 0.36565 0.13898 0.0
O248 O 0.61826 0.35988 0.16497 0.0
O249 O 0.62349 0.36476 0.11588 0.0
O250 O 0.63888 0.34909 0.22392 0.0
O251 O 0.65832 0.36591 0.20171 0.0
O252 O 0.92219 0.3982 0.36542 0.0
Cd253 Cd 0.89565 0.3982 0.36006 0.0
Cd254 Cd 0.89702 0.39179 0.42518 0.0
O255 O 0.92274 0.39733 0.41615 0.0
O256 O 0.89157 0.40849 0.31871 0.0
O257 O 0.8832 0.42112 0.3619 0.0
C258 C 0.88446 0.42152 0.33226 0.0
C259 C 0.88782 0.39796 0.47552 0.0
C260 C 0.93059 0.39855 0.39055 0.0
C261 C 0.88148 0.36442 0.38226 0.0
O262 O 0.88663 0.36892 0.40884 0.0
O263 O 0.88314 0.3746 0.35949 0.0
O264 O 0.89887 0.38598 0.46957 0.0
O265 O 0.88199 0.40693 0.45273 0.0
O266 O 0.84924 0.67731 0.62175 0.0
Cd267 Cd 0.8503 0.6507 0.61668 0.0
Cd268 Cd 0.85632 0.65212 0.68046 0.0
O269 O 0.8527 0.67815 0.67216 0.0
O270 O 0.83944 0.64585 0.57604 0.0
O271 O 0.82804 0.63728 0.6202 0.0
C272 C 0.82698 0.63831 0.59058 0.0
C273 C 0.84724 0.64161 0.72842 0.0
C274 C 0.85038 0.68584 0.64666 0.0
C275 C 0.88429 0.63683 0.63938 0.0
O276 O 0.87931 0.64144 0.66599 0.0
O277 O 0.87446 0.63892 0.61619 0.0
O278 O 0.85976 0.65248 0.72575 0.0
O279 O 0.83936 0.63681 0.70366 0.0
O280 O 0.57681 0.39699 0.63301 0.0
Cd281 Cd 0.60314 0.39708 0.64114 0.0
Cd282 Cd 0.60363 0.39027 0.57633 0.0
O283 O 0.57752 0.39524 0.58232 0.0
O284 O 0.60612 0.4083 0.68202 0.0
O285 O 0.61577 0.41986 0.63871 0.0
C286 C 0.61372 0.42095 0.66815 0.0
C287 C 0.6151 0.39538 0.52714 0.0
C288 C 0.56903 0.39679 0.60724 0.0
C289 C 0.61812 0.36333 0.62161 0.0
O290 O 0.61385 0.36782 0.59456 0.0
O291 O 0.61559 0.37348 0.64416 0.0
O292 O 0.6041 0.38326 0.53241 0.0
O293 O 0.61918 0.40543 0.54971 0.0
O294 O 0.85291 0.32651 0.89196 0.0
Cd295 Cd 0.85219 0.35315 0.89561 0.0
Cd296 Cd 0.8585 0.3501 0.83112 0.0
O297 O 0.85315 0.32448 0.84131 0.0
O298 O 0.84157 0.35779 0.9365 0.0
O299 O 0.829 0.36502 0.89261 0.0
C300 C 0.82846 0.36434 0.92229 0.0
C301 C 0.85306 0.35948 0.78062 0.0
C302 C 0.85243 0.31737 0.86765 0.0
C303 C 0.88577 0.36691 0.87293 0.0
O304 O 0.88134 0.36068 0.84707 0.0
O305 O 0.8755 0.36621 0.89571 0.0
O306 O 0.86481 0.34825 0.78695 0.0
O307 O 0.84354 0.36497 0.80298 0.0
O308 O 0.92258 0.60133 0.12958 0.0
Cd309 Cd 0.89589 0.60093 0.13263 0.0
Cd310 Cd 0.89848 0.60548 0.06984 0.0
O311 O 0.92408 0.59981 0.07904 0.0
O312 O 0.89051 0.58995 0.17292 0.0
O313 O 0.88389 0.57797 0.12817 0.0
C314 C 0.88416 0.57703 0.15786 0.0
C315 C 0.8873 0.59642 0.02245 0.0
C316 C 0.93149 0.59989 0.10514 0.0
C317 C 0.88282 0.6344 0.10812 0.0
O318 O 0.8892 0.62947 0.08264 0.0
O319 O 0.88301 0.62436 0.13129 0.0
O320 O 0.8993 0.60791 0.02441 0.0
O321 O 0.88181 0.58946 0.04761 0.0
O322 O 0.64713 0.67096 0.3893 0.0
Cd323 Cd 0.64803 0.64418 0.39011 0.0
Cd324 Cd 0.64205 0.64916 0.32677 0.0
O325 O 0.64835 0.6742 0.33896 0.0
O326 O 0.65829 0.63837 0.43083 0.0
O327 O 0.67147 0.63285 0.38672 0.0
C328 C 0.67172 0.63263 0.41645 0.0
C329 C 0.64867 0.64086 0.27614 0.0
C330 C 0.64844 0.68068 0.36582 0.0
C331 C 0.61416 0.63202 0.3659 0.0
O332 O 0.61845 0.63963 0.34115 0.0
O333 O 0.62481 0.63089 0.3881 0.0
O334 O 0.63722 0.65244 0.28224 0.0
O335 O 0.65692 0.63406 0.29895 0.0
O336 O 0.42271 0.39626 0.13975 0.0
Cd337 Cd 0.39602 0.39678 0.14235 0.0
Cd338 Cd 0.39892 0.39209 0.07858 0.0
O339 O 0.42439 0.39773 0.08918 0.0
O340 O 0.39027 0.4083 0.18199 0.0
O341 O 0.38418 0.41972 0.13652 0.0
C342 C 0.38413 0.42105 0.16617 0.0
C343 C 0.38978 0.39913 0.02862 0.0
C344 C 0.43169 0.39771 0.11538 0.0
C345 C 0.38252 0.36358 0.11785 0.0
O346 O 0.3888 0.36857 0.09235 0.0
O347 O 0.38303 0.37343 0.14124 0.0
O348 O 0.40125 0.38744 0.03387 0.0
O349 O 0.3837 0.40752 0.05192 0.0
O350 O 0.35107 0.67258 0.88595 0.0
Cd351 Cd 0.35086 0.64589 0.88616 0.0
Cd352 Cd 0.3555 0.65031 0.82393 0.0
O353 O 0.34957 0.67557 0.83562 0.0
O354 O 0.34049 0.63921 0.92633 0.0
O355 O 0.32783 0.63394 0.8816 0.0
C356 C 0.32736 0.6333 0.9113 0.0
C357 C 0.34565 0.6402 0.77636 0.0
C358 C 0.34958 0.68219 0.86238 0.0
C359 C 0.38464 0.63409 0.86063 0.0
O360 O 0.37974 0.64104 0.83559 0.0
O361 O 0.37448 0.6335 0.8836 0.0
O362 O 0.35695 0.65237 0.77843 0.0
O363 O 0.33943 0.63381 0.80146 0.0
O364 O 0.0753 0.60526 0.63924 0.0
Cd365 Cd 0.10193 0.60491 0.64267 0.0
Cd366 Cd 0.09971 0.61054 0.57893 0.0
O367 O 0.0739 0.60579 0.58859 0.0
O368 O 0.1072 0.59372 0.68283 0.0
O369 O 0.11402 0.58196 0.63799 0.0
C370 C 0.11367 0.5809 0.66766 0.0
C371 C 0.10909 0.6025 0.5296 0.0
C372 C 0.06644 0.60494 0.61461 0.0
C373 C 0.11583 0.63848 0.6196 0.0
O374 O 0.11031 0.6337 0.59341 0.0
O375 O 0.11453 0.6285 0.64272 0.0
O376 O 0.09814 0.61479 0.53395 0.0
O377 O 0.11471 0.5943 0.55346 0.0
O378 O 0.14615 0.32883 0.38548 0.0
Cd379 Cd 0.14632 0.35536 0.39102 0.0
Cd380 Cd 0.13972 0.35378 0.32602 0.0
O381 O 0.14452 0.32792 0.33486 0.0
O382 O 0.15654 0.35868 0.43263 0.0
O383 O 0.16925 0.36788 0.3901 0.0
C384 C 0.16965 0.36597 0.41962 0.0
C385 C 0.14638 0.36291 0.27587 0.0
C386 C 0.14597 0.32024 0.36056 0.0
C387 C 0.11258 0.36973 0.36896 0.0
O388 O 0.11705 0.36454 0.34238 0.0
O389 O 0.12274 0.36801 0.39175 0.0
O390 O 0.13404 0.35221 0.28156 0.0
O391 O 0.15538 0.36847 0.29884 0.0
O392 O 0.42492 0.5983 0.37015 0.0
Cd393 Cd 0.39834 0.59967 0.36553 0.0
Cd394 Cd 0.40025 0.60512 0.42923 0.0
O395 O 0.42578 0.59874 0.42085 0.0
O396 O 0.39346 0.58987 0.32409 0.0
O397 O 0.38487 0.57734 0.36725 0.0
C398 C 0.38592 0.57706 0.33758 0.0
C399 C 0.38869 0.59698 0.47686 0.0
C400 C 0.43345 0.59745 0.3951 0.0
C401 C 0.38639 0.63411 0.38898 0.0
O402 O 0.39175 0.62916 0.41517 0.0
O403 O 0.38695 0.62391 0.36604 0.0
O404 O 0.40108 0.60802 0.47461 0.0
O405 O 0.38293 0.58998 0.45193 0.0
O406 O 0.14788 0.67229 0.11644 0.0
Cd407 Cd 0.14732 0.64596 0.10846 0.0
Cd408 Cd 0.14085 0.64583 0.17404 0.0
O409 O 0.14644 0.67174 0.16717 0.0
O410 O 0.1586 0.64266 0.06772 0.0
O411 O 0.16965 0.6326 0.11117 0.0
C412 C 0.17095 0.63465 0.08175 0.0
C413 C 0.14488 0.63533 0.22432 0.0
C414 C 0.14801 0.68013 0.14215 0.0
C415 C 0.11352 0.63163 0.12877 0.0
O416 O 0.11834 0.63583 0.15569 0.0
O417 O 0.12347 0.634 0.1059 0.0
O418 O 0.13318 0.64654 0.21763 0.0
O419 O 0.1551 0.63042 0.20253 0.0
O420 O 0.07544 0.39731 0.86065 0.0
Cd421 Cd 0.10192 0.39708 0.85425 0.0
Cd422 Cd 0.10131 0.3918 0.91924 0.0
O423 O 0.07557 0.39777 0.91143 0.0
O424 O 0.10624 0.40896 0.81435 0.0
O425 O 0.11477 0.41954 0.85921 0.0
C426 C 0.11352 0.42127 0.8297 0.0
C427 C 0.11151 0.39655 0.9695 0.0
C428 C 0.06739 0.39841 0.88608 0.0
C429 C 0.11576 0.36355 0.87614 0.0
O430 O 0.11097 0.36872 0.90253 0.0
O431 O 0.11413 0.37331 0.85281 0.0
O432 O 0.10004 0.38504 0.96325 0.0
O433 O 0.11688 0.40619 0.94721 0.0
O434 O 0.35257 0.32587 0.61569 0.0
Cd435 Cd 0.35315 0.3523 0.60891 0.0
Cd436 Cd 0.36118 0.35143 0.67348 0.0
O437 O 0.35621 0.32546 0.66601 0.0
O438 O 0.34164 0.35536 0.56833 0.0
O439 O 0.33083 0.36577 0.61166 0.0
C440 C 0.32932 0.36339 0.58236 0.0
C441 C 0.35552 0.36124 0.72362 0.0
C442 C 0.35359 0.31754 0.64083 0.0
C443 C 0.3875 0.36657 0.62791 0.0
O444 O 0.38338 0.36211 0.65508 0.0
O445 O 0.37702 0.36426 0.60573 0.0
O446 O 0.36785 0.3506 0.71757 0.0
O447 O 0.34594 0.36634 0.70103 0.0
H448 H 0.12145 0.04831 0.35586 0.0
H449 H 0.12682 0.02168 0.3269 0.0
H450 H 0.12466 0.05051 0.24193 0.0
H451 H 0.11873 0.07701 0.27069 0.0
H452 H 0.10487 0.02384 0.23755 0.0
H453 H 0.16322 0.0321 0.27076 0.0
H454 H 0.18692 0.03729 0.30766 0.0
H455 H 0.17416 0.99022 0.35516 0.0
H456 H 0.15022 0.98486 0.31879 0.0
H457 H 0.12407 0.95083 0.14557 0.0
H458 H 0.1291 0.9787 0.17098 0.0
H459 H 0.12367 0.95419 0.25958 0.0
H460 H 0.11868 0.92633 0.23445 0.0
H461 H 0.14962 0.97934 0.25908 0.0
H462 H 0.0896 0.97318 0.22864 0.0
H463 H 0.06596 0.96805 0.19158 0.0
H464 H 0.08257 0.01185 0.13832 0.0
H465 H 0.10647 0.01709 0.17487 0.0
C466 C 0.12243 0.04901 0.33104 0.0
C467 C 0.11957 0.06473 0.31555 0.0
C468 C 0.12558 0.03378 0.31448 0.0
C469 C 0.12625 0.03406 0.28216 0.0
C470 C 0.12414 0.04992 0.26681 0.0
C471 C 0.12079 0.06508 0.2833 0.0
C472 C 0.12761 0.01768 0.26425 0.0
C473 C 0.11492 0.01432 0.24187 0.0
C474 C 0.14043 0.005 0.27027 0.0
C475 C 0.15483 0.00816 0.29218 0.0
C476 C 0.16538 0.02292 0.28921 0.0
C477 C 0.17887 0.02588 0.31001 0.0
C478 C 0.18202 0.01411 0.33378 0.0
C479 C 0.1717 0.99934 0.33675 0.0
C480 C 0.15818 0.99632 0.31603 0.0
C481 C 0.12426 0.95131 0.17046 0.0
C482 C 0.1208 0.93641 0.188 0.0
C483 C 0.1271 0.96725 0.18494 0.0
C484 C 0.12655 0.96853 0.21716 0.0
C485 C 0.12413 0.95349 0.2347 0.0
C486 C 0.1212 0.93759 0.22027 0.0
C487 C 0.12695 0.98568 0.23256 0.0
C488 C 0.13982 0.98908 0.25454 0.0
C489 C 0.11435 0.99848 0.22615 0.0
C490 C 0.09993 0.9954 0.20427 0.0
C491 C 0.08829 0.98163 0.20889 0.0
C492 C 0.07483 0.97871 0.188 0.0
C493 C 0.0728 0.98958 0.16256 0.0
C494 C 0.08419 0.00342 0.158 0.0
C495 C 0.09769 0.00637 0.1788 0.0
H496 H 0.06237 0.98731 0.14642 0.0
H497 H 0.19247 0.01643 0.34985 0.0
H498 H 0.20537 0.8729 0.60972 0.0
H499 H 0.23169 0.87713 0.57929 0.0
H500 H 0.20145 0.87523 0.49586 0.0
H501 H 0.17525 0.87044 0.52609 0.0
H502 H 0.22745 0.8546 0.49063 0.0
H503 H 0.22133 0.91343 0.52294 0.0
H504 H 0.21746 0.93747 0.55964 0.0
H505 H 0.26502 0.9237 0.60468 0.0
H506 H 0.26906 0.89942 0.5685 0.0
H507 H 0.29884 0.87192 0.39336 0.0
H508 H 0.2716 0.87735 0.42064 0.0
H509 H 0.29801 0.87204 0.50752 0.0
H510 H 0.32524 0.86666 0.48054 0.0
H511 H 0.27341 0.89841 0.50834 0.0
H512 H 0.27763 0.83815 0.47867 0.0
H513 H 0.28144 0.81416 0.44182 0.0
H514 H 0.23682 0.83132 0.39132 0.0
H515 H 0.23289 0.85556 0.42767 0.0
C516 C 0.20431 0.87368 0.58492 0.0
C517 C 0.18826 0.87125 0.5703 0.0
C518 C 0.21936 0.87617 0.56752 0.0
C519 C 0.21858 0.8766 0.53521 0.0
C520 C 0.20242 0.87489 0.52072 0.0
C521 C 0.18744 0.87218 0.53805 0.0
C522 C 0.23468 0.87736 0.51641 0.0
C523 C 0.2373 0.86444 0.49414 0.0
C524 C 0.24779 0.8899 0.52137 0.0
C525 C 0.24542 0.90451 0.54315 0.0
C526 C 0.2309 0.91544 0.54082 0.0
C527 C 0.22869 0.92913 0.5615 0.0
C528 C 0.24097 0.93208 0.58452 0.0
C529 C 0.25551 0.92138 0.58685 0.0
C530 C 0.25778 0.90767 0.56624 0.0
C531 C 0.29891 0.8722 0.41827 0.0
C532 C 0.31417 0.86869 0.43479 0.0
C533 C 0.28333 0.87526 0.43381 0.0
C534 C 0.28277 0.8749 0.4661 0.0
C535 C 0.29816 0.87237 0.48261 0.0
C536 C 0.3137 0.86921 0.46712 0.0
C537 C 0.266 0.87573 0.48272 0.0
C538 C 0.26335 0.88881 0.50465 0.0
C539 C 0.25279 0.86339 0.47743 0.0
C540 C 0.25509 0.84877 0.45567 0.0
C541 C 0.26872 0.83688 0.45956 0.0
C542 C 0.27088 0.82323 0.43879 0.0
C543 C 0.25941 0.82125 0.41419 0.0
C544 C 0.24571 0.83289 0.41036 0.0
C545 C 0.24351 0.84658 0.43104 0.0
H546 H 0.26111 0.81067 0.39813 0.0
H547 H 0.23923 0.94269 0.60051 0.0
H548 H 0.38456 0.07532 0.73245 0.0
H549 H 0.3801 0.04922 0.76308 0.0
H550 H 0.37136 0.01971 0.68028 0.0
H551 H 0.37541 0.04597 0.64939 0.0
H552 H 0.35024 0.00879 0.72559 0.0
H553 H 0.41092 0.01986 0.71449 0.0
H554 H 0.43782 0.03705 0.71682 0.0
H555 H 0.43159 0.04312 0.81436 0.0
H556 H 0.40451 0.02615 0.81254 0.0
H557 H 0.37822 0.92577 0.78022 0.0
H558 H 0.37315 0.95319 0.75356 0.0
H559 H 0.37653 0.98055 0.83982 0.0
H560 H 0.38147 0.9531 0.86677 0.0
H561 H 0.39896 0.993 0.79459 0.0
H562 H 0.33879 0.97895 0.80456 0.0
H563 H 0.31283 0.96052 0.80009 0.0
H564 H 0.31931 0.9584 0.70209 0.0
H565 H 0.34547 0.97662 0.706 0.0
C566 C 0.38148 0.06333 0.72073 0.0
C567 C 0.38053 0.06266 0.68846 0.0
C568 C 0.37897 0.0484 0.73829 0.0
C569 C 0.37576 0.03243 0.72395 0.0
C570 C 0.3739 0.03188 0.69183 0.0
C571 C 0.37625 0.04689 0.6742 0.0
C572 C 0.37542 0.01622 0.74238 0.0
C573 C 0.36095 0.00525 0.74048 0.0
C574 C 0.38931 0.0117 0.76213 0.0
C575 C 0.40559 0.0219 0.76332 0.0
C576 C 0.41522 0.02498 0.7364 0.0
C577 C 0.4305 0.03466 0.73763 0.0
C578 C 0.43638 0.04122 0.76571 0.0
C579 C 0.427 0.03806 0.79262 0.0
C580 C 0.41169 0.0284 0.79151 0.0
C581 C 0.37756 0.93758 0.79362 0.0
C582 C 0.38032 0.93729 0.82559 0.0
C583 C 0.37459 0.95323 0.77835 0.0
C584 C 0.37444 0.96889 0.79472 0.0
C585 C 0.37657 0.96858 0.82679 0.0
C586 C 0.37933 0.95289 0.84215 0.0
C587 C 0.37375 0.98561 0.77797 0.0
C588 C 0.38814 0.99663 0.78001 0.0
C589 C 0.35993 0.98998 0.75806 0.0
C590 C 0.34419 0.97903 0.75562 0.0
C591 C 0.33477 0.97443 0.78208 0.0
C592 C 0.32 0.96405 0.77964 0.0
C593 C 0.31444 0.95826 0.75084 0.0
C594 C 0.32364 0.96288 0.7244 0.0
C595 C 0.33843 0.97325 0.72671 0.0
H596 H 0.303 0.95023 0.749 0.0
H597 H 0.44822 0.04871 0.76662 0.0
H598 H 0.20355 0.12672 0.89606 0.0
H599 H 0.23003 0.1218 0.92572 0.0
H600 H 0.20093 0.12617 0.0101 0.0
H601 H 0.17455 0.13152 0.98065 0.0
H602 H 0.22812 0.14595 0.01284 0.0
H603 H 0.21843 0.0869 0.9848 0.0
H604 H 0.21279 0.06238 0.94987 0.0
H605 H 0.26039 0.07264 0.90211 0.0
H606 H 0.2662 0.09738 0.9365 0.0
H607 H 0.29941 0.12672 0.10887 0.0
H608 H 0.27171 0.12199 0.08268 0.0
H609 H 0.29748 0.12457 0.99481 0.0
H610 H 0.32517 0.1293 0.02073 0.0
H611 H 0.2714 0.09934 0.99645 0.0
H612 H 0.27933 0.15981 0.02142 0.0
H613 H 0.28502 0.18441 0.05618 0.0
H614 H 0.24025 0.17108 0.1098 0.0
H615 H 0.23443 0.14624 0.07556 0.0
C616 C 0.20275 0.12635 0.92092 0.0
C617 C 0.18697 0.1296 0.936 0.0
C618 C 0.21789 0.12346 0.93788 0.0
C619 C 0.21749 0.12352 0.97021 0.0
C620 C 0.2016 0.12611 0.98522 0.0
C621 C 0.18651 0.12914 0.96832 0.0
C622 C 0.23377 0.12231 0.98841 0.0
C623 C 0.23738 0.13553 0.00965 0.0
C624 C 0.24612 0.10897 0.9838 0.0
C625 C 0.24268 0.09409 0.96308 0.0
C626 C 0.22763 0.08402 0.9667 0.0
C627 C 0.22441 0.07006 0.94702 0.0
C628 C 0.2362 0.06598 0.92374 0.0
C629 C 0.25126 0.07582 0.92013 0.0
C630 C 0.25453 0.0898 0.93974 0.0
C631 C 0.29923 0.12595 0.084 0.0
C632 C 0.31446 0.12855 0.06686 0.0
C633 C 0.28339 0.1233 0.06907 0.0
C634 C 0.28253 0.12313 0.0368 0.0
C635 C 0.29786 0.12466 0.01972 0.0
C636 C 0.31367 0.12744 0.03459 0.0
C637 C 0.26557 0.12291 0.02076 0.0
C638 C 0.26193 0.10955 0.99985 0.0
C639 C 0.25314 0.13609 0.02564 0.0
C640 C 0.25657 0.15106 0.04616 0.0
C641 C 0.27079 0.16204 0.04077 0.0
C642 C 0.27402 0.17604 0.06035 0.0
C643 C 0.26304 0.17927 0.08524 0.0
C644 C 0.24877 0.16854 0.09054 0.0
C645 C 0.24549 0.1545 0.07106 0.0
H646 H 0.26556 0.19012 0.10036 0.0
H647 H 0.23369 0.05517 0.90853 0.0
H648 H 0.88349 0.92929 0.71972 0.0
H649 H 0.87767 0.95591 0.74819 0.0
H650 H 0.87203 0.98381 0.66283 0.0
H651 H 0.87788 0.95713 0.63405 0.0
H652 H 0.89504 0.99915 0.7021 0.0
H653 H 0.8372 0.97724 0.70794 0.0
H654 H 0.81451 0.95554 0.71831 0.0
H655 H 0.8296 0.95371 0.81329 0.0
H656 H 0.85255 0.97523 0.80342 0.0
H657 H 0.87817 0.07796 0.77585 0.0
H658 H 0.87314 0.05244 0.74392 0.0
H659 H 0.87497 0.01994 0.82458 0.0
H660 H 0.87945 0.04556 0.85685 0.0
H661 H 0.85164 0.0077 0.78491 0.0
H662 H 0.91098 0.02621 0.77914 0.0
H663 H 0.93482 0.04688 0.77031 0.0
H664 H 0.91826 0.05374 0.67682 0.0
H665 H 0.89416 0.03327 0.68524 0.0
C666 C 0.88074 0.94102 0.70694 0.0
C667 C 0.88122 0.94112 0.6746 0.0
C668 C 0.87732 0.95622 0.72328 0.0
C669 C 0.87432 0.97183 0.70765 0.0
C670 C 0.87426 0.97188 0.67534 0.0
C671 C 0.87755 0.95662 0.65894 0.0
C672 C 0.87286 0.9883 0.7251 0.0
C673 C 0.8853 0.00119 0.71973 0.0
C674 C 0.86052 0.99068 0.74883 0.0
C675 C 0.84669 0.97776 0.75487 0.0
C676 C 0.83577 0.97212 0.73099 0.0
C677 C 0.82284 0.95986 0.73679 0.0
C678 C 0.82063 0.95322 0.76643 0.0
C679 C 0.83133 0.95886 0.79034 0.0
C680 C 0.84429 0.9711 0.78467 0.0
C681 C 0.87722 0.06541 0.78687 0.0
C682 C 0.8794 0.06374 0.81883 0.0
C683 C 0.8744 0.05082 0.76856 0.0
C684 C 0.8741 0.03421 0.78174 0.0
C685 C 0.87524 0.03261 0.81387 0.0
C686 C 0.87783 0.04726 0.83229 0.0
C687 C 0.87384 0.01853 0.76189 0.0
C688 C 0.8612 0.00576 0.76694 0.0
C689 C 0.88614 0.0161 0.73807 0.0
C690 C 0.90066 0.02836 0.73292 0.0
C691 C 0.91235 0.03222 0.75677 0.0
C692 C 0.92592 0.04389 0.75183 0.0
C693 C 0.92803 0.05166 0.72305 0.0
C694 C 0.91659 0.04774 0.69912 0.0
C695 C 0.90298 0.0361 0.70395 0.0
H696 H 0.93854 0.06069 0.71927 0.0
H697 H 0.81062 0.94374 0.77087 0.0
H698 H 0.82508 0.13247 0.47737 0.0
H699 H 0.7987 0.12713 0.50682 0.0
H700 H 0.76941 0.12392 0.42247 0.0
H701 H 0.7959 0.12876 0.39282 0.0
H702 H 0.77192 0.1471 0.51065 0.0
H703 H 0.73276 0.1003 0.43247 0.0
H704 H 0.73803 0.0759 0.39707 0.0
H705 H 0.78549 0.0641 0.44414 0.0
H706 H 0.78039 0.08828 0.48007 0.0
H707 H 0.67461 0.1325 0.51867 0.0
H708 H 0.70215 0.12779 0.49222 0.0
H709 H 0.72803 0.12263 0.57963 0.0
H710 H 0.70046 0.12727 0.60635 0.0
H711 H 0.72769 0.10161 0.49248 0.0
H712 H 0.76579 0.14651 0.57343 0.0
H713 H 0.76059 0.17091 0.60895 0.0
H714 H 0.71596 0.18601 0.55645 0.0
H715 H 0.72104 0.16187 0.52042 0.0
C716 C 0.81307 0.13033 0.46504 0.0
C717 C 0.81257 0.13108 0.43275 0.0
C718 C 0.79798 0.12731 0.48194 0.0
C719 C 0.78203 0.12506 0.46695 0.0
C720 C 0.78158 0.1253 0.43462 0.0
C721 C 0.79673 0.12814 0.41766 0.0
C722 C 0.76576 0.12392 0.48521 0.0
C723 C 0.76245 0.13692 0.50705 0.0
C724 C 0.75314 0.1109 0.48011 0.0
C725 C 0.75626 0.09622 0.45878 0.0
C726 C 0.74428 0.09246 0.43534 0.0
C727 C 0.74725 0.07867 0.41517 0.0
C728 C 0.76211 0.06849 0.41829 0.0
C729 C 0.77401 0.07204 0.44166 0.0
C730 C 0.7711 0.0858 0.46191 0.0
C731 C 0.6861 0.13009 0.53229 0.0
C732 C 0.68539 0.1304 0.56462 0.0
C733 C 0.70182 0.12732 0.51712 0.0
C734 C 0.71714 0.12504 0.53396 0.0
C735 C 0.71635 0.1245 0.56622 0.0
C736 C 0.70059 0.12711 0.58144 0.0
C737 C 0.73405 0.12472 0.51778 0.0
C738 C 0.73737 0.11158 0.49627 0.0
C739 C 0.74675 0.13756 0.5232 0.0
C740 C 0.74368 0.15225 0.54449 0.0
C741 C 0.7549 0.15507 0.56945 0.0
C742 C 0.75197 0.16885 0.58967 0.0
C743 C 0.73791 0.17996 0.58503 0.0
C744 C 0.72679 0.17735 0.5601 0.0
C745 C 0.72968 0.16361 0.5398 0.0
H746 H 0.73566 0.19061 0.60072 0.0
H747 H 0.76439 0.05783 0.40264 0.0
H748 H 0.62107 0.9247 0.27858 0.0
H749 H 0.62614 0.95194 0.25145 0.0
H750 H 0.62871 0.97899 0.33811 0.0
H751 H 0.62367 0.95172 0.36552 0.0
H752 H 0.60517 0.9932 0.2978 0.0
H753 H 0.66451 0.97512 0.29531 0.0
H754 H 0.68871 0.95503 0.28543 0.0
H755 H 0.67582 0.95402 0.18939 0.0
H756 H 0.65138 0.97392 0.19875 0.0
H757 H 0.6195 0.07456 0.23172 0.0
H758 H 0.62463 0.04842 0.26196 0.0
H759 H 0.62749 0.01826 0.17857 0.0
H760 H 0.62296 0.04457 0.14807 0.0
H761 H 0.65001 0.00613 0.21933 0.0
H762 H 0.5897 0.02098 0.22092 0.0
H763 H 0.56433 0.03987 0.22888 0.0
H764 H 0.57756 0.04536 0.32431 0.0
H765 H 0.60316 0.02668 0.31681 0.0
C766 C 0.62304 0.93639 0.29193 0.0
C767 C 0.62189 0.93607 0.32421 0.0
C768 C 0.62601 0.95194 0.27637 0.0
C769 C 0.62785 0.96749 0.29276 0.0
C770 C 0.62736 0.96712 0.32504 0.0
C771 C 0.62453 0.95152 0.34066 0.0
C772 C 0.62859 0.98425 0.2761 0.0
C773 C 0.61519 0.99619 0.28112 0.0
C774 C 0.6413 0.98784 0.25352 0.0
C775 C 0.65602 0.97591 0.24779 0.0
C776 C 0.66674 0.9705 0.27212 0.0
C777 C 0.68053 0.95917 0.26661 0.0
C778 C 0.68378 0.95322 0.23682 0.0
C779 C 0.67328 0.95863 0.21246 0.0
C780 C 0.65947 0.96995 0.21786 0.0
C781 C 0.62145 0.0624 0.21978 0.0
C782 C 0.62063 0.06158 0.18752 0.0
C783 C 0.62432 0.04745 0.23711 0.0
C784 C 0.62603 0.03129 0.22259 0.0
C785 C 0.62613 0.03056 0.1903 0.0
C786 C 0.62351 0.0456 0.17289 0.0
C787 C 0.62661 0.0151 0.24112 0.0
C788 C 0.64014 0.00323 0.23631 0.0
C789 C 0.61386 0.01139 0.26363 0.0
C790 C 0.59845 0.02259 0.26823 0.0
C791 C 0.58727 0.02632 0.24355 0.0
C792 C 0.57284 0.03697 0.24798 0.0
C793 C 0.56936 0.04385 0.27706 0.0
C794 C 0.58029 0.04005 0.30178 0.0
C795 C 0.59475 0.02942 0.29746 0.0
H796 H 0.55818 0.0521 0.28045 0.0
H797 H 0.69446 0.94445 0.23259 0.0
H798 H 0.67845 0.87103 0.96576 0.0
H799 H 0.70571 0.87601 0.99283 0.0
H800 H 0.73257 0.87946 0.90606 0.0
H801 H 0.70526 0.87447 0.87871 0.0
H802 H 0.74723 0.85595 0.94539 0.0
H803 H 0.72852 0.91493 0.95011 0.0
H804 H 0.70824 0.93887 0.96066 0.0
H805 H 0.70716 0.925 0.05627 0.0
H806 H 0.72725 0.9008 0.04623 0.0
H807 H 0.82814 0.8702 0.01353 0.0
H808 H 0.80217 0.87591 0.98314 0.0
H809 H 0.77132 0.87598 0.06588 0.0
H810 H 0.79741 0.87072 0.09659 0.0
H811 H 0.75943 0.89976 0.02605 0.0
H812 H 0.77485 0.83955 0.02161 0.0
H813 H 0.79412 0.81458 0.0126 0.0
H814 H 0.80001 0.82959 0.91809 0.0
H815 H 0.78096 0.85481 0.92666 0.0
C816 C 0.6901 0.87314 0.95238 0.0
C817 C 0.68971 0.87227 0.92007 0.0
C818 C 0.70567 0.87608 0.96791 0.0
C819 C 0.72117 0.87817 0.95147 0.0
C820 C 0.72074 0.87791 0.91918 0.0
C821 C 0.70512 0.87511 0.90359 0.0
C822 C 0.73795 0.87894 0.96809 0.0
C823 C 0.75006 0.86576 0.96254 0.0
C824 C 0.74136 0.89139 0.99122 0.0
C825 C 0.72929 0.90595 0.99736 0.0
C826 C 0.72385 0.91689 0.97335 0.0
C827 C 0.71241 0.93053 0.97924 0.0
C828 C 0.70639 0.93344 0.0091 0.0
C829 C 0.71183 0.92273 0.03314 0.0
C830 C 0.72326 0.90906 0.02737 0.0
C831 C 0.81587 0.87169 0.02534 0.0
C832 C 0.81479 0.86981 0.05744 0.0
C833 C 0.80102 0.8749 0.00791 0.0
C834 C 0.78473 0.87598 0.02215 0.0
C835 C 0.78374 0.87511 0.05437 0.0
C836 C 0.79866 0.87208 0.0719 0.0
C837 C 0.76869 0.87677 0.00329 0.0
C838 C 0.75668 0.89012 0.00857 0.0
C839 C 0.76522 0.86435 0.98011 0.0
C840 C 0.77664 0.84917 0.97487 0.0
C841 C 0.78037 0.8376 0.99897 0.0
C842 C 0.79123 0.82339 0.99393 0.0
C843 C 0.79833 0.82053 0.96481 0.0
C844 C 0.79453 0.83185 0.94064 0.0
C845 C 0.7837 0.84609 0.94557 0.0
H846 H 0.80673 0.80952 0.96095 0.0
H847 H 0.69753 0.94401 0.01362 0.0
H848 H 0.61772 0.4241 0.73014 0.0
H849 H 0.62266 0.45058 0.75952 0.0
H850 H 0.62543 0.47988 0.67516 0.0
H851 H 0.62108 0.45324 0.64552 0.0
H852 H 0.64786 0.49252 0.71552 0.0
H853 H 0.58759 0.47729 0.71761 0.0
H854 H 0.56238 0.4583 0.72636 0.0
H855 H 0.57568 0.45413 0.82196 0.0
H856 H 0.60113 0.47292 0.81368 0.0
H857 H 0.61843 0.57456 0.77016 0.0
H858 H 0.62348 0.54684 0.74467 0.0
H859 H 0.62608 0.52143 0.83289 0.0
H860 H 0.62106 0.54922 0.85867 0.0
H861 H 0.6028 0.50622 0.79319 0.0
H862 H 0.66196 0.52472 0.79024 0.0
H863 H 0.68604 0.54483 0.77965 0.0
H864 H 0.67344 0.54432 0.68347 0.0
H865 H 0.64911 0.52439 0.69354 0.0
C866 C 0.61962 0.43614 0.7178 0.0
C867 C 0.61882 0.43662 0.68552 0.0
C868 C 0.62237 0.45129 0.73465 0.0
C869 C 0.624 0.46731 0.71961 0.0
C870 C 0.62413 0.46769 0.68729 0.0
C871 C 0.62162 0.45247 0.67037 0.0
C872 C 0.62448 0.48369 0.73758 0.0
C873 C 0.63794 0.49558 0.73233 0.0
C874 C 0.61168 0.48761 0.75989 0.0
C875 C 0.59637 0.47635 0.76496 0.0
C876 C 0.58521 0.47222 0.74045 0.0
C877 C 0.57087 0.46151 0.74533 0.0
C878 C 0.56746 0.45497 0.77468 0.0
C879 C 0.57836 0.45918 0.79923 0.0
C880 C 0.59274 0.46986 0.79446 0.0
C881 C 0.62036 0.56313 0.7842 0.0
C882 C 0.61927 0.56407 0.81645 0.0
C883 C 0.62333 0.5473 0.76957 0.0
C884 C 0.62523 0.53208 0.78688 0.0
C885 C 0.6247 0.53304 0.81912 0.0
C886 C 0.62188 0.54893 0.83381 0.0
C887 C 0.62617 0.51504 0.77117 0.0
C888 C 0.61287 0.50306 0.7767 0.0
C889 C 0.63896 0.51121 0.74885 0.0
C890 C 0.65361 0.52316 0.7427 0.0
C891 C 0.66423 0.529 0.76687 0.0
C892 C 0.67794 0.54035 0.76095 0.0
C893 C 0.68125 0.54587 0.73091 0.0
C894 C 0.67086 0.54003 0.70673 0.0
C895 C 0.65712 0.5287 0.71252 0.0
H896 H 0.69187 0.55466 0.72638 0.0
H897 H 0.55634 0.44669 0.77842 0.0
H898 H 0.82597 0.37025 0.98389 0.0
H899 H 0.79972 0.3754 0.01381 0.0
H900 H 0.76937 0.37506 0.93048 0.0
H901 H 0.79576 0.37041 0.90023 0.0
H902 H 0.75676 0.39848 0.97009 0.0
H903 H 0.77335 0.33859 0.97491 0.0
H904 H 0.79306 0.31401 0.98431 0.0
H905 H 0.79815 0.3292 0.07889 0.0
H906 H 0.77864 0.35402 0.06993 0.0
H907 H 0.67604 0.36849 0.02952 0.0
H908 H 0.70329 0.37392 0.00273 0.0
H909 H 0.72984 0.37766 0.08976 0.0
H910 H 0.70254 0.3722 0.11683 0.0
H911 H 0.74501 0.35451 0.05067 0.0
H912 H 0.72527 0.41315 0.04552 0.0
H913 H 0.70459 0.4367 0.03462 0.0
H914 H 0.70415 0.4227 0.93906 0.0
H915 H 0.72463 0.39889 0.94945 0.0
C916 C 0.81374 0.37152 0.97186 0.0
C917 C 0.8129 0.36972 0.93972 0.0
C918 C 0.79873 0.37441 0.98902 0.0
C919 C 0.78251 0.37521 0.97448 0.0
C920 C 0.78173 0.3744 0.94222 0.0
C921 C 0.79682 0.37171 0.92496 0.0
C922 C 0.76635 0.37569 0.99303 0.0
C923 C 0.75412 0.3888 0.98755 0.0
C924 C 0.763 0.36321 0.01619 0.0
C925 C 0.77469 0.34826 0.02167 0.0
C926 C 0.77878 0.33676 0.99766 0.0
C927 C 0.7899 0.32278 0.00291 0.0
C928 C 0.7969 0.32007 0.03216 0.0
C929 C 0.79275 0.33133 0.05623 0.0
C930 C 0.78165 0.34535 0.05109 0.0
C931 C 0.68761 0.37076 0.04302 0.0
C932 C 0.68714 0.36983 0.07532 0.0
C933 C 0.70317 0.37396 0.02765 0.0
C934 C 0.71859 0.37626 0.04424 0.0
C935 C 0.71807 0.37595 0.07653 0.0
C936 C 0.70246 0.37288 0.09196 0.0
C937 C 0.73541 0.3773 0.0278 0.0
C938 C 0.74774 0.36436 0.03353 0.0
C939 C 0.73869 0.38979 0.00468 0.0
C940 C 0.72639 0.40413 0.99832 0.0
C941 C 0.72066 0.41499 0.02222 0.0
C942 C 0.70899 0.42841 0.01613 0.0
C943 C 0.70303 0.43117 0.98618 0.0
C944 C 0.70876 0.42054 0.96225 0.0
C945 C 0.72042 0.40709 0.96823 0.0
H946 H 0.694 0.44157 0.98151 0.0
H947 H 0.8055 0.30924 0.03618 0.0
H948 H 0.87905 0.42335 0.27045 0.0
H949 H 0.8739 0.44926 0.2396 0.0
H950 H 0.87329 0.4804 0.32199 0.0
H951 H 0.87789 0.45435 0.35316 0.0
H952 H 0.85024 0.49253 0.28176 0.0
H953 H 0.9102 0.47624 0.27812 0.0
H954 H 0.93496 0.45662 0.26964 0.0
H955 H 0.92021 0.45052 0.17504 0.0
H956 H 0.89521 0.46994 0.18307 0.0
H957 H 0.87983 0.57281 0.21968 0.0
H958 H 0.87461 0.54583 0.24746 0.0
H959 H 0.87118 0.51824 0.16142 0.0
H960 H 0.87644 0.54527 0.13335 0.0
H961 H 0.89439 0.5037 0.20122 0.0
H962 H 0.83558 0.52321 0.20535 0.0
H963 H 0.81194 0.54392 0.21549 0.0
H964 H 0.82586 0.54541 0.31106 0.0
H965 H 0.84975 0.52489 0.30142 0.0
C966 C 0.87757 0.43568 0.28207 0.0
C967 C 0.87907 0.43685 0.31422 0.0
C968 C 0.87469 0.45049 0.26438 0.0
C969 C 0.87363 0.46684 0.2784 0.0
C970 C 0.87416 0.46794 0.31064 0.0
C971 C 0.87681 0.45305 0.32843 0.0
C972 C 0.87315 0.48283 0.25933 0.0
C973 C 0.85996 0.49505 0.26431 0.0
C974 C 0.88568 0.48602 0.23621 0.0
C975 C 0.90074 0.47438 0.23129 0.0
C976 C 0.91217 0.47061 0.25557 0.0
C977 C 0.92625 0.45954 0.25084 0.0
C978 C 0.92913 0.45228 0.22184 0.0
C979 C 0.91795 0.45612 0.1975 0.0
C980 C 0.90383 0.46716 0.20212 0.0
C981 C 0.87767 0.56107 0.2066 0.0
C982 C 0.87863 0.56117 0.1743 0.0
C983 C 0.8746 0.54566 0.22254 0.0
C984 C 0.87244 0.53003 0.20652 0.0
C985 C 0.87278 0.53018 0.17422 0.0
C986 C 0.87573 0.54563 0.15822 0.0
C987 C 0.87147 0.5134 0.22357 0.0
C988 C 0.8845 0.50109 0.21836 0.0
C989 C 0.85894 0.5103 0.2467 0.0
C990 C 0.84455 0.52261 0.2526 0.0
C991 C 0.83369 0.52806 0.22849 0.0
C992 C 0.82023 0.53974 0.23416 0.0
C993 C 0.81743 0.546 0.26389 0.0
C994 C 0.82806 0.54056 0.28803 0.0
C995 C 0.84155 0.52888 0.28249 0.0
H996 H 0.807 0.55505 0.26823 0.0
H997 H 0.94004 0.44372 0.21822 0.0
H998 H 0.67382 0.62445 0.47728 0.0
H999 H 0.70001 0.61997 0.50773 0.0
H1000 H 0.7312 0.62525 0.42593 0.0
H1001 H 0.70493 0.62919 0.39511 0.0
H1002 H 0.74517 0.6017 0.46353 0.0
H1003 H 0.72382 0.65987 0.47398 0.0
H1004 H 0.7021 0.68243 0.48518 0.0
H1005 H 0.69729 0.66361 0.57773 0.0
H1006 H 0.71883 0.64077 0.56693 0.0
H1007 H 0.82279 0.63572 0.52845 0.0
H1008 H 0.79621 0.62921 0.50036 0.0
H1009 H 0.76936 0.62084 0.58607 0.0
H1010 H 0.79599 0.62742 0.61447 0.0
H1011 H 0.75262 0.64371 0.54888 0.0
H1012 H 0.7772 0.58715 0.53835 0.0
H1013 H 0.79984 0.56578 0.52571 0.0
H1014 H 0.79983 0.58295 0.43178 0.0
H1015 H 0.77735 0.60461 0.44395 0.0
C1016 C 0.68623 0.62437 0.46567 0.0
C1017 C 0.68733 0.62737 0.43384 0.0
C1018 C 0.70121 0.62187 0.48313 0.0
C1019 C 0.71761 0.6227 0.46926 0.0
C1020 C 0.7187 0.62464 0.43718 0.0
C1021 C 0.70367 0.62691 0.41959 0.0
C1022 C 0.73356 0.62284 0.48843 0.0
C1023 C 0.74687 0.61096 0.48205 0.0
C1024 C 0.73569 0.63474 0.51296 0.0
C1025 C 0.72279 0.6485 0.51954 0.0
C1026 C 0.71803 0.66046 0.49665 0.0
C1027 C 0.70577 0.67331 0.50293 0.0
C1028 C 0.69828 0.67442 0.53212 0.0
C1029 C 0.70308 0.66271 0.55511 0.0
C1030 C 0.71532 0.64982 0.54893 0.0
C1031 C 0.81132 0.63222 0.54137 0.0
C1032 C 0.81148 0.63216 0.57372 0.0
C1033 C 0.79614 0.62841 0.52523 0.0
C1034 C 0.78081 0.62445 0.5411 0.0
C1035 C 0.78106 0.62382 0.57338 0.0
C1036 C 0.7963 0.62754 0.58956 0.0
C1037 C 0.76425 0.62258 0.52403 0.0
C1038 C 0.75085 0.63426 0.53068 0.0
C1039 C 0.76219 0.61065 0.49957 0.0
C1040 C 0.77568 0.5976 0.49214 0.0
C1041 C 0.78212 0.58647 0.51505 0.0
C1042 C 0.79491 0.57429 0.50796 0.0
C1043 C 0.8013 0.57303 0.47798 0.0
C1044 C 0.79488 0.58394 0.455 0.0
C1045 C 0.78209 0.59616 0.46198 0.0
H1046 H 0.8112 0.56359 0.47253 0.0
H1047 H 0.68879 0.68438 0.53695 0.0
H1048 H 0.37846 0.42589 0.2275 0.0
H1049 H 0.37314 0.45322 0.25412 0.0
H1050 H 0.37219 0.48007 0.16715 0.0
H1051 H 0.3775 0.45269 0.14024 0.0
H1052 H 0.39499 0.49434 0.20827 0.0
H1053 H 0.33566 0.47668 0.20835 0.0
H1054 H 0.3111 0.45684 0.21697 0.0
H1055 H 0.32252 0.45555 0.31359 0.0
H1056 H 0.34731 0.47519 0.30549 0.0
H1057 H 0.38091 0.5754 0.27563 0.0
H1058 H 0.37519 0.54965 0.24468 0.0
H1059 H 0.37247 0.51868 0.32714 0.0
H1060 H 0.37771 0.54458 0.35838 0.0
H1061 H 0.34946 0.50732 0.28547 0.0
H1062 H 0.41003 0.52159 0.2857 0.0
H1063 H 0.43555 0.5404 0.27867 0.0
H1064 H 0.42291 0.54669 0.18315 0.0
H1065 H 0.39717 0.5281 0.18972 0.0
C1066 C 0.37681 0.43755 0.21395 0.0
C1067 C 0.37849 0.43714 0.18175 0.0
C1068 C 0.37369 0.45316 0.22922 0.0
C1069 C 0.37221 0.46868 0.21262 0.0
C1070 C 0.37325 0.46823 0.18038 0.0
C1071 C 0.37624 0.45257 0.16504 0.0
C1072 C 0.37131 0.48548 0.22915 0.0
C1073 C 0.38481 0.49735 0.22464 0.0
C1074 C 0.35836 0.48911 0.25128 0.0
C1075 C 0.34344 0.47731 0.25626 0.0
C1076 C 0.33303 0.47205 0.2314 0.0
C1077 C 0.31904 0.46087 0.2362 0.0
C1078 C 0.31527 0.45491 0.2658 0.0
C1079 C 0.32546 0.46017 0.29067 0.0
C1080 C 0.33947 0.47134 0.28599 0.0
C1081 C 0.37882 0.56317 0.28723 0.0
C1082 C 0.37997 0.56197 0.31943 0.0
C1083 C 0.3756 0.54844 0.26949 0.0
C1084 C 0.3738 0.53216 0.28353 0.0
C1085 C 0.3739 0.53109 0.31579 0.0
C1086 C 0.37692 0.5459 0.33362 0.0
C1087 C 0.37315 0.51616 0.26454 0.0
C1088 C 0.35947 0.50441 0.26874 0.0
C1089 C 0.38607 0.51248 0.24233 0.0
C1090 C 0.40157 0.52362 0.23829 0.0
C1091 C 0.41262 0.52709 0.26325 0.0
C1092 C 0.42714 0.5377 0.25935 0.0
C1093 C 0.43082 0.54478 0.2305 0.0
C1094 C 0.42002 0.54123 0.20549 0.0
C1095 C 0.40547 0.53065 0.20929 0.0
H1096 H 0.44207 0.55298 0.22752 0.0
H1097 H 0.30444 0.44626 0.26947 0.0
H1098 H 0.20137 0.62185 0.10509 0.0
H1099 H 0.22821 0.61606 0.07684 0.0
H1100 H 0.20276 0.62928 0.99171 0.0
H1101 H 0.17592 0.63498 0.01964 0.0
H1102 H 0.22503 0.60151 0.98485 0.0
H1103 H 0.22589 0.65924 0.02826 0.0
H1104 H 0.22402 0.68057 0.07038 0.0
H1105 H 0.26675 0.656 0.1162 0.0
H1106 H 0.26871 0.63438 0.07451 0.0
H1107 H 0.29439 0.62976 0.88909 0.0
H1108 H 0.26805 0.62453 0.91892 0.0
H1109 H 0.2988 0.618 0.00102 0.0
H1110 H 0.32506 0.62385 0.97151 0.0
H1111 H 0.27441 0.63965 0.01209 0.0
H1112 H 0.2758 0.58364 0.96547 0.0
H1113 H 0.27767 0.5625 0.9231 0.0
H1114 H 0.23123 0.58329 0.88321 0.0
H1115 H 0.2292 0.60472 0.92513 0.0
C1116 C 0.20141 0.62326 0.0803 0.0
C1117 C 0.18656 0.62905 0.06464 0.0
C1118 C 0.21676 0.61997 0.06421 0.0
C1119 C 0.21752 0.62244 0.03222 0.0
C1120 C 0.20247 0.6273 0.01638 0.0
C1121 C 0.18715 0.63064 0.03243 0.0
C1122 C 0.23425 0.62137 0.0155 0.0
C1123 C 0.23585 0.60987 0.99066 0.0
C1124 C 0.24843 0.63206 0.02349 0.0
C1125 C 0.24731 0.64509 0.04847 0.0
C1126 C 0.23479 0.65831 0.04745 0.0
C1127 C 0.23373 0.67046 0.07121 0.0
C1128 C 0.24522 0.6696 0.096 0.0
C1129 C 0.25783 0.65662 0.09702 0.0
C1130 C 0.25893 0.64443 0.07333 0.0
C1131 C 0.29555 0.62686 0.91337 0.0
C1132 C 0.31177 0.62732 0.928 0.0
C1133 C 0.28047 0.6238 0.93042 0.0
C1134 C 0.2814 0.62077 0.96228 0.0
C1135 C 0.29771 0.62036 0.97654 0.0
C1136 C 0.31273 0.62367 0.95962 0.0
C1137 C 0.26537 0.61973 0.98123 0.0
C1138 C 0.26381 0.63099 0.00646 0.0
C1139 C 0.25128 0.60879 0.97356 0.0
C1140 C 0.25243 0.59588 0.94834 0.0
C1141 C 0.26605 0.58379 0.94755 0.0
C1142 C 0.26713 0.57174 0.92363 0.0
C1143 C 0.2546 0.57158 0.90044 0.0
C1144 C 0.24094 0.58344 0.90117 0.0
C1145 C 0.2398 0.59553 0.92503 0.0
H1146 H 0.25546 0.56224 0.88194 0.0
H1147 H 0.24439 0.67902 0.11438 0.0
H1148 H 0.11567 0.42707 0.76791 0.0
H1149 H 0.12111 0.45454 0.74186 0.0
H1150 H 0.12899 0.4795 0.82949 0.0
H1151 H 0.1235 0.45198 0.85584 0.0
H1152 H 0.10524 0.49628 0.79382 0.0
H1153 H 0.16268 0.47409 0.78101 0.0
H1154 H 0.18478 0.45256 0.76639 0.0
H1155 H 0.1673 0.45435 0.6727 0.0
H1156 H 0.14491 0.47572 0.68683 0.0
H1157 H 0.12136 0.57754 0.72852 0.0
H1158 H 0.12665 0.55078 0.75696 0.0
H1159 H 0.12305 0.52153 0.67265 0.0
H1160 H 0.11835 0.5484 0.64386 0.0
H1161 H 0.14679 0.50747 0.70904 0.0
H1162 H 0.0879 0.52637 0.72137 0.0
H1163 H 0.06455 0.5469 0.73441 0.0
H1164 H 0.08329 0.54996 0.82723 0.0
H1165 H 0.10691 0.52962 0.81461 0.0
C1166 C 0.11884 0.43833 0.78167 0.0
C1167 C 0.11907 0.43736 0.81397 0.0
C1168 C 0.12204 0.45402 0.7667 0.0
C1169 C 0.12554 0.46906 0.78371 0.0
C1170 C 0.12635 0.46803 0.81593 0.0
C1171 C 0.12326 0.45229 0.83094 0.0
C1172 C 0.12673 0.48609 0.76796 0.0
C1173 C 0.11458 0.49886 0.77574 0.0
C1174 C 0.13852 0.48922 0.74365 0.0
C1175 C 0.15202 0.47641 0.73505 0.0
C1176 C 0.16345 0.46979 0.75733 0.0
C1177 C 0.17605 0.45764 0.74912 0.0
C1178 C 0.17742 0.45207 0.71864 0.0
C1179 C 0.16622 0.45867 0.6963 0.0
C1180 C 0.15358 0.47082 0.70439 0.0
C1181 C 0.12196 0.56544 0.71595 0.0
C1182 C 0.11924 0.56504 0.68399 0.0
C1183 C 0.12492 0.55014 0.73226 0.0
C1184 C 0.12482 0.53408 0.71708 0.0
C1185 C 0.1231 0.53374 0.6849 0.0
C1186 C 0.12039 0.54911 0.66847 0.0
C1187 C 0.12528 0.51765 0.73493 0.0
C1188 C 0.13763 0.50497 0.72743 0.0
C1189 C 0.11351 0.51445 0.75929 0.0
C1190 C 0.09928 0.52663 0.76696 0.0
C1191 C 0.08711 0.53152 0.7445 0.0
C1192 C 0.07382 0.54311 0.75182 0.0
C1193 C 0.07247 0.54977 0.7816 0.0
C1194 C 0.08438 0.54482 0.80415 0.0
C1195 C 0.09771 0.53325 0.79694 0.0
H1196 H 0.06217 0.55874 0.78723 0.0
H1197 H 0.18719 0.44265 0.71233 0.0
H1198 H 0.17415 0.36207 0.48137 0.0
H1199 H 0.20065 0.36631 0.51095 0.0
H1200 H 0.22681 0.38451 0.4295 0.0
H1201 H 0.20022 0.38027 0.39953 0.0
H1202 H 0.23065 0.34887 0.50006 0.0
H1203 H 0.25934 0.41306 0.4543 0.0
H1204 H 0.24926 0.44114 0.43395 0.0
H1205 H 0.20169 0.43598 0.48433 0.0
H1206 H 0.21158 0.408 0.50531 0.0
H1207 H 0.3205 0.35475 0.52372 0.0
H1208 H 0.29288 0.3597 0.49789 0.0
H1209 H 0.2744 0.38827 0.57646 0.0
H1210 H 0.30204 0.38311 0.60296 0.0
H1211 H 0.2659 0.40228 0.5114 0.0
H1212 H 0.26131 0.35208 0.57821 0.0
H1213 H 0.2715 0.32416 0.59902 0.0
H1214 H 0.26956 0.30178 0.50868 0.0
H1215 H 0.25962 0.32967 0.48726 0.0
C1216 C 0.18544 0.36722 0.46975 0.0
C1217 C 0.1851 0.37072 0.43801 0.0
C1218 C 0.20059 0.36961 0.48673 0.0
C1219 C 0.21569 0.37571 0.47245 0.0
C1220 C 0.21524 0.37993 0.44103 0.0
C1221 C 0.20006 0.37746 0.42393 0.0
C1222 C 0.23219 0.37617 0.48993 0.0
C1223 C 0.23827 0.3606 0.50263 0.0
C1224 C 0.24216 0.39145 0.49333 0.0
C1225 C 0.23615 0.40835 0.48113 0.0
C1226 C 0.24676 0.41795 0.46112 0.0
C1227 C 0.24107 0.43385 0.44946 0.0
C1228 C 0.22482 0.44031 0.45776 0.0
C1229 C 0.21425 0.43092 0.47782 0.0
C1230 C 0.21988 0.41503 0.48956 0.0
C1231 C 0.3107 0.36233 0.53542 0.0
C1232 C 0.31342 0.36843 0.56552 0.0
C1233 C 0.29494 0.36516 0.52056 0.0
C1234 C 0.28165 0.37431 0.53533 0.0
C1235 C 0.28458 0.38125 0.5647 0.0
C1236 C 0.30032 0.37822 0.57982 0.0
C1237 C 0.26424 0.375 0.52116 0.0
C1238 C 0.25812 0.39066 0.50894 0.0
C1239 C 0.25412 0.35983 0.51824 0.0
C1240 C 0.25989 0.343 0.53111 0.0
C1241 C 0.26321 0.34125 0.56275 0.0
C1242 C 0.2689 0.32542 0.57466 0.0
C1243 C 0.27122 0.31121 0.55518 0.0
C1244 C 0.26778 0.3128 0.52375 0.0
C1245 C 0.26211 0.32861 0.51171 0.0
H1246 H 0.27563 0.29897 0.56444 0.0
H1247 H 0.22044 0.45261 0.4487 0.0
H1248 H 0.1234 0.15538 0.3276 0.0
H1249 H 0.13167 0.18591 0.32281 0.0
H1250 H 0.13212 0.19077 0.42164 0.0
H1251 H 0.12369 0.16051 0.42664 0.0
H1252 H 0.11331 0.21572 0.39615 0.0
H1253 H 0.16967 0.19105 0.37977 0.0
H1254 H 0.19123 0.17208 0.35498 0.0
H1255 H 0.18209 0.19713 0.26831 0.0
H1256 H 0.16028 0.21611 0.29252 0.0
H1257 H 0.14775 0.29937 0.41136 0.0
H1258 H 0.14574 0.26782 0.41316 0.0
H1259 H 0.14299 0.26599 0.31416 0.0
H1260 H 0.14516 0.29758 0.31204 0.0
H1261 H 0.1632 0.23958 0.33801 0.0
H1262 H 0.1066 0.26376 0.35421 0.0
H1263 H 0.08501 0.28276 0.37889 0.0
H1264 H 0.09458 0.25826 0.4659 0.0
H1265 H 0.11643 0.23927 0.4418 0.0
C1266 C 0.12549 0.16289 0.3483 0.0
C1267 C 0.12275 0.15552 0.37749 0.0
C1268 C 0.13026 0.18033 0.34553 0.0
C1269 C 0.13252 0.19062 0.37189 0.0
C1270 C 0.13037 0.1831 0.40099 0.0
C1271 C 0.12556 0.16576 0.40379 0.0
C1272 C 0.13597 0.20948 0.36938 0.0
C1273 C 0.12438 0.22089 0.38381 0.0
C1274 C 0.1501 0.21627 0.35251 0.0
C1275 C 0.1632 0.20488 0.3379 0.0
C1276 C 0.17214 0.19241 0.35537 0.0
C1277 C 0.18443 0.18168 0.34143 0.0
C1278 C 0.18799 0.18336 0.31007 0.0
C1279 C 0.1793 0.19582 0.2926 0.0
C1280 C 0.16698 0.20658 0.30642 0.0
C1281 C 0.14691 0.29229 0.38992 0.0
C1282 C 0.14643 0.30105 0.36156 0.0
C1283 C 0.14573 0.27424 0.39101 0.0
C1284 C 0.14396 0.2646 0.36381 0.0
C1285 C 0.1443 0.2732 0.33541 0.0
C1286 C 0.14548 0.29127 0.33428 0.0
C1287 C 0.1407 0.24569 0.36519 0.0
C1288 C 0.1522 0.23433 0.35042 0.0
C1289 C 0.12647 0.23888 0.38174 0.0
C1290 C 0.11327 0.25021 0.39626 0.0
C1291 C 0.1042 0.26252 0.37865 0.0
C1292 C 0.0919 0.27327 0.39253 0.0
C1293 C 0.08846 0.27175 0.42396 0.0
C1294 C 0.09728 0.25944 0.44157 0.0
C1295 C 0.10961 0.24867 0.42781 0.0
H1296 H 0.07893 0.28008 0.43466 0.0
H1297 H 0.19752 0.17504 0.29932 0.0
H1298 H 0.95476 0.90317 0.65448 0.0
H1299 H 0.98636 0.90231 0.65676 0.0
H1300 H 0.98885 0.90483 0.55775 0.0
H1301 H 0.95726 0.90544 0.5552 0.0
H1302 H 0.00837 0.87915 0.57904 0.0
H1303 H 0.00157 0.93924 0.60236 0.0
H1304 H 0.9898 0.96468 0.62957 0.0
H1305 H 0.01074 0.94583 0.71472 0.0
H1306 H 0.02243 0.92015 0.68811 0.0
H1307 H 0.1003 0.88079 0.5805 0.0
H1308 H 0.07057 0.89075 0.57187 0.0
H1309 H 0.06066 0.88826 0.6694 0.0
H1310 H 0.09028 0.87857 0.67829 0.0
H1311 H 0.0456 0.91649 0.64426 0.0
H1312 H 0.04902 0.85519 0.62276 0.0
H1313 H 0.0604 0.82916 0.59676 0.0
H1314 H 0.04532 0.85 0.50919 0.0
H1315 H 0.03406 0.87627 0.53467 0.0
C1316 C 0.96201 0.90378 0.63319 0.0
C1317 C 0.95344 0.90429 0.60465 0.0
C1318 C 0.9801 0.90337 0.63454 0.0
C1319 C 0.98999 0.90361 0.60742 0.0
C1320 C 0.98148 0.90462 0.57896 0.0
C1321 C 0.96341 0.905 0.57757 0.0
C1322 C 0.00909 0.90152 0.60868 0.0
C1323 C 0.01656 0.88756 0.59278 0.0
C1324 C 0.01973 0.91223 0.62717 0.0
C1325 C 0.01276 0.9277 0.64325 0.0
C1326 C 0.00355 0.94045 0.62693 0.0
C1327 C 0.99692 0.95493 0.64224 0.0
C1328 C 0.99949 0.95685 0.67386 0.0
C1329 C 0.00875 0.94432 0.69023 0.0
C1330 C 0.0154 0.92981 0.67503 0.0
C1331 C 0.09186 0.88258 0.60014 0.0
C1332 C 0.09763 0.87871 0.63005 0.0
C1333 C 0.07486 0.88822 0.59516 0.0
C1334 C 0.06334 0.89003 0.61997 0.0
C1335 C 0.06931 0.88694 0.64992 0.0
C1336 C 0.08626 0.88131 0.65492 0.0
C1337 C 0.04477 0.89407 0.61484 0.0
C1338 C 0.03742 0.90831 0.63011 0.0
C1339 C 0.03419 0.88357 0.5959 0.0
C1340 C 0.0409 0.86777 0.58057 0.0
C1341 C 0.04826 0.85428 0.59794 0.0
C1342 C 0.05467 0.83948 0.5833 0.0
C1343 C 0.05363 0.83796 0.55133 0.0
C1344 C 0.04615 0.85121 0.53394 0.0
C1345 C 0.03975 0.86606 0.54846 0.0
H1346 H 0.0586 0.82649 0.54005 0.0
H1347 H 0.99434 0.96807 0.68568 0.0
H1348 H 0.37262 0.84662 0.83782 0.0
H1349 H 0.36331 0.81637 0.83416 0.0
H1350 H 0.37267 0.80966 0.93124 0.0
H1351 H 0.38213 0.83969 0.93508 0.0
H1352 H 0.38756 0.78444 0.89867 0.0
H1353 H 0.33164 0.81121 0.90298 0.0
H1354 H 0.30857 0.83151 0.88749 0.0
H1355 H 0.30732 0.80874 0.79742 0.0
H1356 H 0.33057 0.78845 0.81224 0.0
H1357 H 0.35242 0.70099 0.91551 0.0
H1358 H 0.35519 0.73239 0.92049 0.0
H1359 H 0.34891 0.73807 0.82246 0.0
H1360 H 0.34601 0.70667 0.8172 0.0
H1361 H 0.33175 0.76379 0.85551 0.0
H1362 H 0.38836 0.7378 0.85097 0.0
H1363 H 0.41125 0.71735 0.86669 0.0
H1364 H 0.41108 0.73891 0.95772 0.0
H1365 H 0.38799 0.75934 0.94264 0.0
C1366 C 0.37253 0.83876 0.85845 0.0
C1367 C 0.37823 0.84557 0.88669 0.0
C1368 C 0.36714 0.82148 0.85634 0.0
C1369 C 0.36725 0.81077 0.88246 0.0
C1370 C 0.37253 0.81767 0.91078 0.0
C1371 C 0.37792 0.83488 0.91291 0.0
C1372 C 0.36284 0.79211 0.88009 0.0
C1373 C 0.37524 0.77996 0.88967 0.0
C1374 C 0.34694 0.78624 0.86763 0.0
C1375 C 0.33298 0.79843 0.85863 0.0
C1376 C 0.32656 0.81063 0.87978 0.0
C1377 C 0.31343 0.82211 0.87114 0.0
C1378 C 0.30652 0.82145 0.84146 0.0
C1379 C 0.3127 0.80926 0.82039 0.0
C1380 C 0.32585 0.79776 0.8289 0.0
C1381 C 0.35138 0.7089 0.89502 0.0
C1382 C 0.34918 0.70128 0.8659 0.0
C1383 C 0.353 0.72685 0.89792 0.0
C1384 C 0.3525 0.7375 0.87178 0.0
C1385 C 0.34938 0.73005 0.8429 0.0
C1386 C 0.34779 0.71209 0.83995 0.0
C1387 C 0.35642 0.75624 0.87433 0.0
C1388 C 0.34401 0.76835 0.86465 0.0
C1389 C 0.37231 0.76213 0.88672 0.0
C1390 C 0.38632 0.74998 0.89576 0.0
C1391 C 0.39311 0.73809 0.8744 0.0
C1392 C 0.40613 0.72652 0.88319 0.0
C1393 C 0.41258 0.72679 0.91321 0.0
C1394 C 0.40605 0.73869 0.93448 0.0
C1395 C 0.39301 0.75028 0.92582 0.0
H1396 H 0.42265 0.71781 0.91997 0.0
H1397 H 0.29635 0.83034 0.83482 0.0
H1398 H 0.41735 0.1412 0.1633 0.0
H1399 H 0.44742 0.13256 0.15504 0.0
H1400 H 0.43225 0.10303 0.07534 0.0
H1401 H 0.40198 0.11197 0.08297 0.0
H1402 H 0.45753 0.0866 0.12334 0.0
H1403 H 0.44841 0.13538 0.05526 0.0
H1404 H 0.43827 0.16487 0.04295 0.0
H1405 H 0.47237 0.18595 0.11141 0.0
H1406 H 0.48251 0.15654 0.12446 0.0
H1407 H 0.54999 0.10743 0.05797 0.0
H1408 H 0.51841 0.10934 0.05695 0.0
H1409 H 0.51649 0.09666 0.15347 0.0
H1410 H 0.54811 0.09471 0.15479 0.0
H1411 H 0.49877 0.13225 0.09005 0.0
H1412 H 0.47831 0.07453 0.16674 0.0
H1413 H 0.48837 0.04506 0.17951 0.0
H1414 H 0.51366 0.04132 0.09181 0.0
H1415 H 0.50355 0.07066 0.07833 0.0
C1416 C 0.42033 0.13275 0.14413 0.0
C1417 C 0.40728 0.12731 0.12371 0.0
C1418 C 0.43752 0.12784 0.13947 0.0
C1419 C 0.44197 0.1172 0.11461 0.0
C1420 C 0.42897 0.11124 0.0947 0.0
C1421 C 0.41175 0.11641 0.09901 0.0
C1422 C 0.46038 0.1131 0.10888 0.0
C1423 C 0.46658 0.09649 0.11587 0.0
C1424 C 0.47206 0.12604 0.09897 0.0
C1425 C 0.46609 0.14375 0.09102 0.0
C1426 C 0.45362 0.14629 0.06788 0.0
C1427 C 0.4479 0.16299 0.06073 0.0
C1428 C 0.45464 0.17727 0.07644 0.0
C1429 C 0.46715 0.17488 0.09928 0.0
C1430 C 0.4729 0.1582 0.10654 0.0
C1431 C 0.54288 0.10483 0.07894 0.0
C1432 C 0.55161 0.10098 0.10651 0.0
C1433 C 0.52482 0.10598 0.07829 0.0
C1434 C 0.51512 0.10308 0.10508 0.0
C1435 C 0.52373 0.09876 0.13245 0.0
C1436 C 0.54181 0.09773 0.13319 0.0
C1437 C 0.4961 0.10574 0.10488 0.0
C1438 C 0.48977 0.1222 0.09707 0.0
C1439 C 0.48435 0.09262 0.11398 0.0
C1440 C 0.49028 0.07486 0.12165 0.0
C1441 C 0.48594 0.06738 0.15012 0.0
C1442 C 0.49167 0.05071 0.15749 0.0
C1443 C 0.50169 0.04135 0.13652 0.0
C1444 C 0.50595 0.04861 0.10808 0.0
C1445 C 0.50025 0.06528 0.10058 0.0
H1446 H 0.50612 0.02845 0.14228 0.0
H1447 H 0.45019 0.1902 0.07087 0.0
H1448 H 0.14941 0.7025 0.09335 0.0
H1449 H 0.14851 0.73408 0.09471 0.0
H1450 H 0.14809 0.73289 0.1939 0.0
H1451 H 0.14869 0.70124 0.19278 0.0
H1452 H 0.12345 0.75359 0.17294 0.0
H1453 H 0.18391 0.74691 0.15388 0.0
H1454 H 0.20999 0.73578 0.12781 0.0
H1455 H 0.19379 0.75967 0.0434 0.0
H1456 H 0.16747 0.77075 0.06884 0.0
H1457 H 0.1266 0.84545 0.18119 0.0
H1458 H 0.13587 0.81531 0.18723 0.0
H1459 H 0.13459 0.80855 0.08879 0.0
H1460 H 0.12551 0.8386 0.08248 0.0
H1461 H 0.1626 0.79246 0.11441 0.0
H1462 H 0.10083 0.79587 0.13195 0.0
H1463 H 0.0744 0.80669 0.15737 0.0
H1464 H 0.09324 0.78857 0.24454 0.0
H1465 H 0.11991 0.77784 0.21966 0.0
C1466 C 0.14933 0.70893 0.11549 0.0
C1467 C 0.14906 0.6993 0.14296 0.0
C1468 C 0.14891 0.72702 0.11623 0.0
C1469 C 0.14839 0.73588 0.14442 0.0
C1470 C 0.14851 0.72633 0.17189 0.0
C1471 C 0.14888 0.70823 0.17118 0.0
C1472 C 0.14652 0.75502 0.14512 0.0
C1473 C 0.13225 0.76211 0.16069 0.0
C1474 C 0.15777 0.76613 0.12862 0.0
C1475 C 0.17364 0.75955 0.11324 0.0
C1476 C 0.18584 0.74969 0.1297 0.0
C1477 C 0.20068 0.7434 0.11504 0.0
C1478 C 0.20353 0.74698 0.08395 0.0
C1479 C 0.19156 0.7569 0.06748 0.0
C1480 C 0.17669 0.7632 0.08202 0.0
C1481 C 0.12849 0.83762 0.1608 0.0
C1482 C 0.12515 0.84441 0.13136 0.0
C1483 C 0.13374 0.82038 0.16431 0.0
C1484 C 0.13572 0.80965 0.13847 0.0
C1485 C 0.13314 0.8166 0.10904 0.0
C1486 C 0.12785 0.83378 0.10551 0.0
C1487 C 0.13947 0.7909 0.14194 0.0
C1488 C 0.15402 0.78392 0.12708 0.0
C1489 C 0.12848 0.77985 0.15907 0.0
C1490 C 0.11244 0.78625 0.17402 0.0
C1491 C 0.0994 0.79432 0.15658 0.0
C1492 C 0.08437 0.80042 0.17088 0.0
C1493 C 0.08217 0.79837 0.20257 0.0
C1494 C 0.09498 0.79018 0.22001 0.0
C1495 C 0.11005 0.78408 0.20582 0.0
H1496 H 0.07052 0.80309 0.2136 0.0
H1497 H 0.21503 0.7421 0.07265 0.0
H1498 H 0.54777 0.89601 0.34334 0.0
H1499 H 0.51617 0.89522 0.34273 0.0
H1500 H 0.5152 0.90292 0.44099 0.0
H1501 H 0.54685 0.90342 0.44191 0.0
H1502 H 0.49494 0.87675 0.42515 0.0
H1503 H 0.50213 0.93508 0.39119 0.0
H1504 H 0.51386 0.95879 0.35941 0.0
H1505 H 0.49182 0.9357 0.27854 0.0
H1506 H 0.48016 0.91171 0.30977 0.0
H1507 H 0.40293 0.87866 0.42478 0.0
H1508 H 0.43276 0.88878 0.43143 0.0
H1509 H 0.44218 0.88147 0.33451 0.0
H1510 H 0.41245 0.87167 0.32754 0.0
H1511 H 0.45746 0.91058 0.35455 0.0
H1512 H 0.45387 0.85072 0.38716 0.0
H1513 H 0.44252 0.82648 0.41814 0.0
H1514 H 0.45824 0.85235 0.50099 0.0
H1515 H 0.46948 0.87686 0.47048 0.0
C1516 C 0.54086 0.89774 0.3648 0.0
C1517 C 0.54987 0.89971 0.39269 0.0
C1518 C 0.52276 0.89739 0.36438 0.0
C1519 C 0.51329 0.89917 0.39179 0.0
C1520 C 0.52224 0.90154 0.41957 0.0
C1521 C 0.54034 0.90185 0.42003 0.0
C1522 C 0.49415 0.89732 0.39166 0.0
C1523 C 0.48671 0.88442 0.4102 0.0
C1524 C 0.48344 0.90707 0.3717 0.0
C1525 C 0.49037 0.92152 0.35283 0.0
C1526 C 0.49989 0.93499 0.3666 0.0
C1527 C 0.50651 0.94849 0.34869 0.0
C1528 C 0.50361 0.94873 0.31697 0.0
C1529 C 0.49406 0.93549 0.30311 0.0
C1530 C 0.48742 0.92195 0.32092 0.0
C1531 C 0.41129 0.87939 0.40482 0.0
C1532 C 0.40533 0.87418 0.37568 0.0
C1533 C 0.42835 0.88513 0.40868 0.0
C1534 C 0.43976 0.88565 0.38352 0.0
C1535 C 0.43362 0.88117 0.35424 0.0
C1536 C 0.4166 0.87548 0.35035 0.0
C1537 C 0.45837 0.88988 0.3877 0.0
C1538 C 0.4657 0.90315 0.36988 0.0
C1539 C 0.46902 0.88045 0.40824 0.0
C1540 C 0.46232 0.8657 0.42657 0.0
C1541 C 0.45478 0.85129 0.412 0.0
C1542 C 0.44839 0.8375 0.42946 0.0
C1543 C 0.44961 0.8379 0.46152 0.0
C1544 C 0.45727 0.85208 0.47617 0.0
C1545 C 0.46366 0.86592 0.4588 0.0
H1546 H 0.44465 0.82721 0.47501 0.0
H1547 H 0.50875 0.9592 0.30314 0.0
H1548 H 0.36472 0.15587 0.57823 0.0
H1549 H 0.35658 0.1862 0.58406 0.0
H1550 H 0.37021 0.18419 0.68019 0.0
H1551 H 0.3781 0.15358 0.6747 0.0
H1552 H 0.34156 0.20464 0.6701 0.0
H1553 H 0.39912 0.19912 0.62913 0.0
H1554 H 0.42135 0.18836 0.59316 0.0
H1555 H 0.39459 0.21226 0.51769 0.0
H1556 H 0.37206 0.22297 0.55318 0.0
H1557 H 0.35808 0.29524 0.68923 0.0
H1558 H 0.35881 0.26362 0.68771 0.0
H1559 H 0.34741 0.26474 0.5906 0.0
H1560 H 0.34694 0.29636 0.59177 0.0
H1561 H 0.37438 0.24452 0.60215 0.0
H1562 H 0.31725 0.25114 0.64394 0.0
H1563 H 0.29523 0.26187 0.68033 0.0
H1564 H 0.32137 0.23632 0.75476 0.0
H1565 H 0.34369 0.22561 0.71887 0.0
C1566 C 0.36577 0.16177 0.60075 0.0
C1567 C 0.3723 0.15238 0.62592 0.0
C1568 C 0.36112 0.17913 0.60402 0.0
C1569 C 0.36315 0.18754 0.63239 0.0
C1570 C 0.36863 0.17795 0.65805 0.0
C1571 C 0.37316 0.16047 0.65486 0.0
C1572 C 0.36085 0.20659 0.6345 0.0
C1573 C 0.34885 0.2134 0.65551 0.0
C1574 C 0.37019 0.21798 0.61512 0.0
C1575 C 0.38382 0.21171 0.59377 0.0
C1576 C 0.39792 0.20198 0.60484 0.0
C1577 C 0.41058 0.19591 0.58454 0.0
C1578 C 0.40936 0.19959 0.55315 0.0
C1579 C 0.39551 0.2094 0.54201 0.0
C1580 C 0.38279 0.21549 0.5622 0.0
C1581 C 0.35553 0.28878 0.66759 0.0
C1582 C 0.35254 0.29836 0.64057 0.0
C1583 C 0.35587 0.27067 0.66681 0.0
C1584 C 0.35305 0.2618 0.63908 0.0
C1585 C 0.34963 0.27132 0.61225 0.0
C1586 C 0.34935 0.28941 0.61298 0.0
C1587 C 0.35491 0.24267 0.63749 0.0
C1588 C 0.36697 0.23581 0.61666 0.0
C1589 C 0.34566 0.23132 0.65713 0.0
C1590 C 0.33224 0.23771 0.67875 0.0
C1591 C 0.31838 0.24792 0.66811 0.0
C1592 C 0.30583 0.25398 0.68864 0.0
C1593 C 0.30692 0.24982 0.71985 0.0
C1594 C 0.32055 0.23955 0.73058 0.0
C1595 C 0.33315 0.23347 0.71015 0.0
H1596 H 0.29719 0.25452 0.73571 0.0
H1597 H 0.41918 0.19487 0.53748 0.0
H1598 H 0.09753 0.12135 0.91981 0.0
H1599 H 0.06718 0.11242 0.92426 0.0
H1600 H 0.06155 0.11565 0.82574 0.0
H1601 H 0.09167 0.12469 0.82106 0.0
H1602 H 0.03662 0.13336 0.85467 0.0
H1603 H 0.06183 0.07669 0.86221 0.0
H1604 H 0.08124 0.05424 0.88317 0.0
H1605 H 0.05721 0.05929 0.97178 0.0
H1606 H 0.0378 0.08195 0.95145 0.0
H1607 H 0.95243 0.10015 0.84007 0.0
H1608 H 0.98394 0.10196 0.83628 0.0
H1609 H 0.98803 0.09984 0.93513 0.0
H1610 H 0.95651 0.09783 0.9392 0.0
H1611 H 0.01378 0.08097 0.90689 0.0
H1612 H 0.98947 0.1381 0.90024 0.0
H1613 H 0.97008 0.16078 0.87996 0.0
H1614 H 0.9928 0.15518 0.79037 0.0
H1615 H 0.01216 0.13228 0.81003 0.0
C1616 C 0.0899 0.11992 0.89906 0.0
C1617 C 0.09702 0.12386 0.8701 0.0
C1618 C 0.07257 0.11476 0.90164 0.0
C1619 C 0.06211 0.11336 0.87531 0.0
C1620 C 0.06937 0.11671 0.84636 0.0
C1621 C 0.08662 0.12186 0.84375 0.0
C1622 C 0.04331 0.10963 0.87791 0.0
C1623 C 0.03165 0.12176 0.86566 0.0
C1624 C 0.03682 0.09477 0.89309 0.0
C1625 C 0.04848 0.08115 0.90538 0.0
C1626 C 0.06078 0.07313 0.88624 0.0
C1627 C 0.07177 0.06034 0.89799 0.0
C1628 C 0.07049 0.05537 0.92881 0.0
C1629 C 0.0582 0.06316 0.94792 0.0
C1630 C 0.04719 0.07597 0.93629 0.0
C1631 C 0.96001 0.09986 0.86102 0.0
C1632 C 0.9519 0.09904 0.88996 0.0
C1633 C 0.97803 0.10092 0.85881 0.0
C1634 C 0.9883 0.1013 0.88545 0.0
C1635 C 0.98034 0.09961 0.91429 0.0
C1636 C 0.9623 0.09853 0.91655 0.0
C1637 C 0.00718 0.10459 0.88326 0.0
C1638 C 0.01881 0.0925 0.89575 0.0
C1639 C 0.01371 0.11953 0.86839 0.0
C1640 C 0.00214 0.13335 0.85653 0.0
C1641 C 0.99023 0.14161 0.87615 0.0
C1642 C 0.97926 0.15452 0.86478 0.0
C1643 C 0.98017 0.15938 0.83387 0.0
C1644 C 0.99209 0.15138 0.81429 0.0
C1645 C 0.00307 0.13844 0.82554 0.0
H1646 H 0.97167 0.16938 0.82511 0.0
H1647 H 0.079 0.04546 0.93786 0.0
H1648 H 0.83323 0.70711 0.6066 0.0
H1649 H 0.83522 0.73872 0.60327 0.0
H1650 H 0.87076 0.73895 0.68001 0.0
H1651 H 0.86776 0.70763 0.68471 0.0
H1652 H 0.85319 0.76578 0.68471 0.0
H1653 H 0.88358 0.74014 0.59957 0.0
H1654 H 0.88706 0.72202 0.55325 0.0
H1655 H 0.84813 0.75185 0.50663 0.0
H1656 H 0.84428 0.77003 0.55284 0.0
H1657 H 0.90244 0.83719 0.59122 0.0
H1658 H 0.89322 0.80742 0.5996 0.0
H1659 H 0.84952 0.82564 0.65261 0.0
H1660 H 0.85954 0.85557 0.64593 0.0
H1661 H 0.86809 0.79024 0.58267 0.0
H1662 H 0.83553 0.79479 0.70219 0.0
H1663 H 0.83782 0.81175 0.75014 0.0
H1664 H 0.89137 0.82227 0.73094 0.0
H1665 H 0.88944 0.80522 0.68308 0.0
C1666 C 0.84126 0.714 0.62297 0.0
C1667 C 0.85042 0.70495 0.64578 0.0
C1668 C 0.84249 0.73204 0.62096 0.0
C1669 C 0.85349 0.74128 0.6409 0.0
C1670 C 0.86217 0.73223 0.66433 0.0
C1671 C 0.8605 0.71429 0.66694 0.0
C1672 C 0.85678 0.76015 0.63656 0.0
C1673 C 0.85641 0.77112 0.66236 0.0
C1674 C 0.86124 0.7672 0.60754 0.0
C1675 C 0.8635 0.75629 0.57975 0.0
C1676 C 0.87568 0.74275 0.5795 0.0
C1677 C 0.87773 0.73248 0.55327 0.0
C1678 C 0.86778 0.73574 0.52705 0.0
C1679 C 0.8558 0.74931 0.52698 0.0
C1680 C 0.85368 0.75961 0.55318 0.0
C1681 C 0.89092 0.83483 0.60485 0.0
C1682 C 0.88172 0.84864 0.61802 0.0
C1683 C 0.88559 0.81779 0.60953 0.0
C1684 C 0.87068 0.81414 0.62688 0.0
C1685 C 0.86128 0.828 0.63972 0.0
C1686 C 0.86694 0.84511 0.63578 0.0
C1687 C 0.86512 0.79579 0.63099 0.0
C1688 C 0.86482 0.78495 0.60504 0.0
C1689 C 0.86094 0.78871 0.66012 0.0
C1690 C 0.86226 0.79892 0.68889 0.0
C1691 C 0.84779 0.80071 0.70825 0.0
C1692 C 0.84903 0.81033 0.7354 0.0
C1693 C 0.86471 0.81814 0.74352 0.0
C1694 C 0.87921 0.81628 0.72456 0.0
C1695 C 0.87804 0.80665 0.69741 0.0
H1696 H 0.86564 0.82559 0.76453 0.0
H1697 H 0.86939 0.72778 0.50676 0.0
H1698 H 0.90091 0.12244 0.41961 0.0
H1699 H 0.9309 0.11292 0.42673 0.0
H1700 H 0.94046 0.11973 0.32974 0.0
H1701 H 0.91055 0.12895 0.3223 0.0
H1702 H 0.95587 0.09077 0.35065 0.0
H1703 H 0.95181 0.15087 0.38197 0.0
H1704 H 0.94024 0.1752 0.41248 0.0
H1705 H 0.95606 0.14991 0.49585 0.0
H1706 H 0.96753 0.12532 0.46581 0.0
H1707 H 0.04603 0.10481 0.33927 0.0
H1708 H 0.01446 0.10575 0.3387 0.0
H1709 H 0.01354 0.09989 0.43737 0.0
H1710 H 0.04521 0.09935 0.43824 0.0
H1711 H 0.99303 0.12533 0.42065 0.0
H1712 H 0.00047 0.06674 0.38852 0.0
H1713 H 0.01232 0.04272 0.35763 0.0
H1714 H 0.99044 0.0649 0.27583 0.0
H1715 H 0.97866 0.0892 0.30615 0.0
C1716 C 0.90934 0.12175 0.39974 0.0
C1717 C 0.90335 0.12661 0.37043 0.0
C1718 C 0.92649 0.11635 0.40388 0.0
C1719 C 0.93798 0.11584 0.37883 0.0
C1720 C 0.93184 0.12004 0.3494 0.0
C1721 C 0.91473 0.12539 0.34523 0.0
C1722 C 0.95661 0.11176 0.38322 0.0
C1723 C 0.96403 0.09836 0.36583 0.0
C1724 C 0.96716 0.12138 0.40364 0.0
C1725 C 0.96034 0.13618 0.42168 0.0
C1726 C 0.9527 0.15044 0.40682 0.0
C1727 C 0.94618 0.16429 0.42402 0.0
C1728 C 0.94736 0.16407 0.45609 0.0
C1729 C 0.95512 0.15004 0.47101 0.0
C1730 C 0.96164 0.13615 0.45391 0.0
C1731 C 0.03914 0.10351 0.36085 0.0
C1732 C 0.04818 0.10204 0.38882 0.0
C1733 C 0.02105 0.10396 0.36046 0.0
C1734 C 0.01159 0.1027 0.38796 0.0
C1735 C 0.02056 0.10086 0.41586 0.0
C1736 C 0.03867 0.10052 0.4163 0.0
C1737 C 0.99242 0.10447 0.3877 0.0
C1738 C 0.98487 0.1175 0.40583 0.0
C1739 C 0.98178 0.0945 0.36794 0.0
C1740 C 0.98878 0.07986 0.34961 0.0
C1741 C 0.99828 0.06656 0.36391 0.0
C1742 C 0.00497 0.05289 0.34651 0.0
C1743 C 0.00216 0.0523 0.31478 0.0
C1744 C 0.99261 0.06537 0.30041 0.0
C1745 C 0.98591 0.07909 0.3177 0.0
H1746 H 0.00735 0.0417 0.30135 0.0
H1747 H 0.94231 0.1748 0.46937 0.0
H1748 H 0.64764 0.29383 0.19182 0.0
H1749 H 0.6464 0.26226 0.18939 0.0
H1750 H 0.64846 0.26449 0.09033 0.0
H1751 H 0.64942 0.2961 0.09248 0.0
H1752 H 0.62281 0.2442 0.10904 0.0
H1753 H 0.68309 0.25009 0.13323 0.0
H1754 H 0.70841 0.2603 0.16265 0.0
H1755 H 0.68967 0.23409 0.24316 0.0
H1756 H 0.66409 0.22392 0.21432 0.0
H1757 H 0.63214 0.15624 0.07747 0.0
H1758 H 0.64006 0.18657 0.08352 0.0
H1759 H 0.63265 0.18258 0.18155 0.0
H1760 H 0.62475 0.15195 0.17578 0.0
H1761 H 0.66132 0.20344 0.16489 0.0
H1762 H 0.60082 0.1982 0.14078 0.0
H1763 H 0.57563 0.18783 0.11116 0.0
H1764 H 0.59506 0.21311 0.03023 0.0
H1765 H 0.62052 0.22342 0.05929 0.0
C1766 C 0.64802 0.28762 0.16949 0.0
C1767 C 0.64855 0.29753 0.14232 0.0
C1768 C 0.6474 0.26954 0.16817 0.0
C1769 C 0.64745 0.26099 0.13969 0.0
C1770 C 0.6484 0.27082 0.11257 0.0
C1771 C 0.64898 0.2889 0.11385 0.0
C1772 C 0.64532 0.2419 0.13805 0.0
C1773 C 0.63142 0.23531 0.12087 0.0
C1774 C 0.65621 0.23029 0.15428 0.0
C1775 C 0.67158 0.23638 0.17168 0.0
C1776 C 0.68428 0.24662 0.15728 0.0
C1777 C 0.6987 0.25238 0.17384 0.0
C1778 C 0.70062 0.24789 0.20478 0.0
C1779 C 0.68815 0.23759 0.2192 0.0
C1780 C 0.6737 0.23181 0.20275 0.0
C1781 C 0.63238 0.16168 0.10043 0.0
C1782 C 0.62756 0.1517 0.12613 0.0
C1783 C 0.63693 0.17905 0.10381 0.0
C1784 C 0.63664 0.18688 0.13289 0.0
C1785 C 0.63288 0.17676 0.15888 0.0
C1786 C 0.62834 0.15928 0.15553 0.0
C1787 C 0.63899 0.20587 0.13558 0.0
C1788 C 0.6528 0.21241 0.15304 0.0
C1789 C 0.62803 0.2175 0.11961 0.0
C1790 C 0.61266 0.21144 0.10214 0.0
C1791 C 0.59979 0.20144 0.11661 0.0
C1792 C 0.58546 0.19559 0.09993 0.0
C1793 C 0.58377 0.19977 0.06881 0.0
C1794 C 0.5964 0.20986 0.05433 0.0
C1795 C 0.61077 0.21572 0.0709 0.0
H1796 H 0.57266 0.19523 0.05594 0.0
H1797 H 0.7118 0.25235 0.21755 0.0
H1798 H 0.60103 0.88222 0.90965 0.0
H1799 H 0.57098 0.89142 0.9171 0.0
H1800 H 0.55989 0.87995 0.82202 0.0
H1801 H 0.58988 0.87108 0.8142 0.0
H1802 H 0.54406 0.90925 0.8393 0.0
H1803 H 0.55014 0.85112 0.87961 0.0
H1804 H 0.56285 0.82859 0.91291 0.0
H1805 H 0.54822 0.85755 0.99313 0.0
H1806 H 0.5356 0.88036 0.96025 0.0
H1807 H 0.45367 0.89392 0.83826 0.0
H1808 H 0.4852 0.89311 0.83475 0.0
H1809 H 0.48907 0.90391 0.93186 0.0
H1810 H 0.45749 0.90434 0.93574 0.0
H1811 H 0.50924 0.87783 0.9173 0.0
H1812 H 0.50013 0.93455 0.8766 0.0
H1813 H 0.4871 0.95671 0.84293 0.0
H1814 H 0.5071 0.93054 0.76336 0.0
H1815 H 0.52005 0.90808 0.79651 0.0
C1816 C 0.59224 0.88181 0.89025 0.0
C1817 C 0.59785 0.87576 0.86139 0.0
C1818 C 0.57505 0.88703 0.89457 0.0
C1819 C 0.56313 0.88613 0.87021 0.0
C1820 C 0.56886 0.88073 0.84115 0.0
C1821 C 0.58602 0.87559 0.83677 0.0
C1822 C 0.54449 0.89 0.87513 0.0
C1823 C 0.5364 0.90233 0.85623 0.0
C1824 C 0.5346 0.88127 0.89773 0.0
C1825 C 0.54211 0.86753 0.91748 0.0
C1826 C 0.54975 0.85274 0.90435 0.0
C1827 C 0.55692 0.83991 0.92314 0.0
C1828 C 0.55639 0.84166 0.95511 0.0
C1829 C 0.54865 0.85623 0.96836 0.0
C1830 C 0.54148 0.8691 0.94966 0.0
C1831 C 0.46121 0.89633 0.85883 0.0
C1832 C 0.45303 0.89915 0.8873 0.0
C1833 C 0.47927 0.89595 0.85675 0.0
C1834 C 0.48954 0.89863 0.88299 0.0
C1835 C 0.48142 0.90182 0.91131 0.0
C1836 C 0.46335 0.90209 0.91346 0.0
C1837 C 0.50869 0.89697 0.8812 0.0
C1838 C 0.51689 0.88499 0.90066 0.0
C1839 C 0.51866 0.90602 0.85909 0.0
C1840 C 0.51096 0.91956 0.83906 0.0
C1841 C 0.50165 0.93345 0.85191 0.0
C1842 C 0.49429 0.94608 0.83291 0.0
C1843 C 0.49624 0.94502 0.80102 0.0
C1844 C 0.50559 0.93135 0.78806 0.0
C1845 C 0.51296 0.91868 0.80695 0.0
H1846 H 0.49054 0.95481 0.78636 0.0
H1847 H 0.56195 0.83172 0.96963 0.0
H1848 H 0.85559 0.29769 0.91965 0.0
H1849 H 0.85817 0.26622 0.92304 0.0
H1850 H 0.85147 0.26208 0.82488 0.0
H1851 H 0.84888 0.29363 0.82115 0.0
H1852 H 0.83353 0.23616 0.85871 0.0
H1853 H 0.89056 0.26066 0.85061 0.0
H1854 H 0.91438 0.2804 0.86466 0.0
H1855 H 0.91567 0.25877 0.95562 0.0
H1856 H 0.89165 0.23906 0.94223 0.0
H1857 H 0.87173 0.15188 0.84076 0.0
H1858 H 0.86324 0.18235 0.83668 0.0
H1859 H 0.87423 0.1896 0.93308 0.0
H1860 H 0.88284 0.15932 0.93736 0.0
H1861 H 0.88951 0.21402 0.89879 0.0
H1862 H 0.83286 0.18907 0.90698 0.0
H1863 H 0.8089 0.16942 0.89329 0.0
H1864 H 0.80672 0.1916 0.80281 0.0
H1865 H 0.83086 0.21124 0.81583 0.0
C1866 C 0.85445 0.29011 0.89878 0.0
C1867 C 0.85219 0.29821 0.87007 0.0
C1868 C 0.85596 0.27212 0.90078 0.0
C1869 C 0.85519 0.26187 0.87417 0.0
C1870 C 0.85211 0.26979 0.84567 0.0
C1871 C 0.85071 0.28782 0.84359 0.0
C1872 C 0.85874 0.24304 0.87598 0.0
C1873 C 0.84582 0.23126 0.86712 0.0
C1874 C 0.87469 0.23673 0.88742 0.0
C1875 C 0.88919 0.24851 0.89551 0.0
C1876 C 0.89582 0.26021 0.87369 0.0
C1877 C 0.90937 0.27138 0.88152 0.0
C1878 C 0.9165 0.27088 0.91104 0.0
C1879 C 0.91011 0.25917 0.93277 0.0
C1880 C 0.89654 0.24798 0.92507 0.0
C1881 C 0.87216 0.15991 0.86117 0.0
C1882 C 0.87806 0.15315 0.88935 0.0
C1883 C 0.86725 0.17731 0.85881 0.0
C1884 C 0.86807 0.18824 0.8846 0.0
C1885 C 0.87355 0.18142 0.91287 0.0
C1886 C 0.87844 0.16407 0.91526 0.0
C1887 C 0.86422 0.20701 0.88189 0.0
C1888 C 0.87716 0.21883 0.89044 0.0
C1889 C 0.84829 0.2133 0.8702 0.0
C1890 C 0.8338 0.2015 0.86228 0.0
C1891 C 0.82739 0.18965 0.88407 0.0
C1892 C 0.81375 0.17854 0.87645 0.0
C1893 C 0.80632 0.17923 0.84717 0.0
C1894 C 0.8125 0.19107 0.82547 0.0
C1895 C 0.82615 0.2022 0.83296 0.0
H1896 H 0.79576 0.17062 0.84132 0.0
H1897 H 0.927 0.27953 0.91706 0.0
H1898 H 0.59521 0.12419 0.57037 0.0
H1899 H 0.56516 0.115 0.56249 0.0
H1900 H 0.55711 0.11434 0.66065 0.0
H1901 H 0.58705 0.12324 0.66877 0.0
H1902 H 0.54138 0.08709 0.63347 0.0
H1903 H 0.54512 0.14911 0.61763 0.0
H1904 H 0.55623 0.17567 0.59301 0.0
H1905 H 0.53881 0.15741 0.505 0.0
H1906 H 0.52779 0.13063 0.52908 0.0
H1907 H 0.45187 0.10064 0.655 0.0
H1908 H 0.48342 0.10162 0.65329 0.0
H1909 H 0.48187 0.10298 0.55414 0.0
H1910 H 0.45021 0.10235 0.55563 0.0
H1911 H 0.50308 0.12705 0.57546 0.0
H1912 H 0.49571 0.06654 0.59303 0.0
H1913 H 0.48416 0.04043 0.61844 0.0
H1914 H 0.50801 0.05574 0.7034 0.0
H1915 H 0.51952 0.08208 0.67862 0.0
C1916 C 0.5871 0.12188 0.59029 0.0
C1917 C 0.59351 0.12461 0.6202 0.0
C1918 C 0.56992 0.11669 0.58573 0.0
C1919 C 0.55884 0.1142 0.61099 0.0
C1920 C 0.56542 0.11619 0.64083 0.0
C1921 C 0.58255 0.12137 0.64541 0.0
C1922 C 0.54014 0.11049 0.6066 0.0
C1923 C 0.53297 0.09584 0.62088 0.0
C1924 C 0.52926 0.12169 0.58954 0.0
C1925 C 0.53583 0.13779 0.57508 0.0
C1926 C 0.54379 0.15071 0.59299 0.0
C1927 C 0.55004 0.16581 0.57915 0.0
C1928 C 0.54828 0.1682 0.54745 0.0
C1929 C 0.5402 0.15552 0.52954 0.0
C1930 C 0.53395 0.14038 0.54327 0.0
C1931 C 0.4582 0.10098 0.63278 0.0
C1932 C 0.44847 0.10145 0.60545 0.0
C1933 C 0.47628 0.10144 0.63185 0.0
C1934 C 0.48504 0.10217 0.60357 0.0
C1935 C 0.47539 0.10237 0.57622 0.0
C1936 C 0.45728 0.10198 0.57713 0.0
C1937 C 0.50421 0.10378 0.60277 0.0
C1938 C 0.51148 0.11808 0.58757 0.0
C1939 C 0.51516 0.09226 0.61903 0.0
C1940 C 0.50839 0.07636 0.63399 0.0
C1941 C 0.4984 0.06441 0.61718 0.0
C1942 C 0.49187 0.04955 0.63147 0.0
C1943 C 0.49532 0.04645 0.66253 0.0
C1944 C 0.50535 0.05816 0.67935 0.0
C1945 C 0.5119 0.07305 0.66518 0.0
H1946 H 0.49024 0.03495 0.67355 0.0
H1947 H 0.55313 0.1799 0.53677 0.0
H1948 H 0.65198 0.70525 0.32085 0.0
H1949 H 0.6499 0.73664 0.32643 0.0
H1950 H 0.64382 0.73085 0.4245 0.0
H1951 H 0.64574 0.69938 0.41915 0.0
H1952 H 0.61909 0.75136 0.40021 0.0
H1953 H 0.6809 0.74744 0.39466 0.0
H1954 H 0.709 0.73862 0.37275 0.0
H1955 H 0.69775 0.76686 0.29005 0.0
H1956 H 0.66945 0.77567 0.3113 0.0
H1957 H 0.62143 0.83986 0.43724 0.0
H1958 H 0.62979 0.80948 0.43363 0.0
H1959 H 0.63528 0.81448 0.33533 0.0
H1960 H 0.62711 0.84509 0.33872 0.0
H1961 H 0.66111 0.79453 0.36037 0.0
H1962 H 0.59905 0.79726 0.36448 0.0
H1963 H 0.57071 0.80596 0.38558 0.0
H1964 H 0.58224 0.77957 0.47007 0.0
H1965 H 0.61078 0.77092 0.44962 0.0
C1966 C 0.65041 0.71063 0.34368 0.0
C1967 C 0.64895 0.69976 0.36955 0.0
C1968 C 0.6493 0.72861 0.34683 0.0
C1969 C 0.64679 0.7361 0.37589 0.0
C1970 C 0.64576 0.72533 0.40185 0.0
C1971 C 0.64691 0.70734 0.39875 0.0
C1972 C 0.64401 0.75504 0.37892 0.0
C1973 C 0.62843 0.76079 0.392 0.0
C1974 C 0.65596 0.76734 0.36732 0.0
C1975 C 0.67297 0.76208 0.35448 0.0
C1976 C 0.68434 0.75165 0.3717 0.0
C1977 C 0.70032 0.74668 0.35942 0.0
C1978 C 0.70514 0.75214 0.33 0.0
C1979 C 0.69399 0.76263 0.31283 0.0
C1980 C 0.67799 0.76763 0.32499 0.0
C1981 C 0.62454 0.83459 0.41483 0.0
C1982 C 0.62342 0.8449 0.38821 0.0
C1983 C 0.62928 0.81718 0.41282 0.0
C1984 C 0.63288 0.80965 0.38416 0.0
C1985 C 0.6325 0.82004 0.35767 0.0
C1986 C 0.62778 0.83751 0.35965 0.0
C1987 C 0.63625 0.79078 0.38182 0.0
C1988 C 0.65186 0.78506 0.36876 0.0
C1989 C 0.6243 0.77846 0.39331 0.0
C1990 C 0.60712 0.78359 0.40563 0.0
C1991 C 0.5956 0.79343 0.38765 0.0
C1992 C 0.57949 0.79833 0.39948 0.0
C1993 C 0.57469 0.79336 0.42918 0.0
C1994 C 0.58598 0.78344 0.44709 0.0
C1995 C 0.60212 0.77852 0.43538 0.0
H1996 H 0.56221 0.79717 0.43829 0.0
H1997 H 0.71752 0.74828 0.32053 0.0
H1998 H 0.91053 0.8667 0.17402 0.0
H1999 H 0.94053 0.87619 0.17035 0.0
H2000 H 0.93333 0.88786 0.07417 0.0
H2001 H 0.90321 0.87805 0.07747 0.0
H2002 H 0.96218 0.86931 0.08341 0.0
H2003 H 0.9376 0.92042 0.12754 0.0
H2004 H 0.91999 0.93702 0.16455 0.0
H2005 H 0.95235 0.91954 0.23862 0.0
H2006 H 0.97002 0.90263 0.20212 0.0
H2007 H 0.04712 0.90264 0.07177 0.0
H2008 H 0.0155 0.90158 0.07132 0.0
H2009 H 0.01536 0.88981 0.16832 0.0
H2010 H 0.04698 0.89132 0.16916 0.0
H2011 H 0.98953 0.91128 0.15493 0.0
H2012 H 0.01159 0.85777 0.11298 0.0
H2013 H 0.02881 0.83983 0.07736 0.0
H2014 H 0.00081 0.86082 0.00059 0.0
H2015 H 0.98356 0.87906 0.03576 0.0
C2016 C 0.91522 0.87142 0.15209 0.0
C2017 C 0.90443 0.87157 0.126 0.0
C2018 C 0.93239 0.87695 0.1501 0.0
C2019 C 0.93913 0.88294 0.12209 0.0
C2020 C 0.92837 0.88335 0.09606 0.0
C2021 C 0.91115 0.87777 0.098 0.0
C2022 C 0.95771 0.88773 0.11976 0.0
C2023 C 0.96809 0.87877 0.09859 0.0
C2024 C 0.9655 0.89975 0.14011 0.0
C2025 C 0.95508 0.91016 0.16208 0.0
C2026 C 0.94091 0.92003 0.15174 0.0
C2027 C 0.93092 0.92951 0.17263 0.0
C2028 C 0.93503 0.92931 0.20392 0.0
C2029 C 0.94918 0.91968 0.21437 0.0
C2030 C 0.95921 0.91017 0.19358 0.0
C2031 C 0.04037 0.89997 0.09309 0.0
C2032 C 0.0496 0.89688 0.12045 0.0
C2033 C 0.02228 0.89933 0.09276 0.0
C2034 C 0.01306 0.89529 0.11966 0.0
C2035 C 0.0222 0.8929 0.14726 0.0
C2036 C 0.04029 0.89372 0.14768 0.0
C2037 C 0.994 0.89271 0.11882 0.0
C2038 C 0.98355 0.90203 0.13943 0.0
C2039 C 0.98613 0.88092 0.09811 0.0
C2040 C 0.99643 0.86991 0.07696 0.0
C2041 C 0.00919 0.85865 0.08848 0.0
C2042 C 0.01894 0.84841 0.06838 0.0
C2043 C 0.01594 0.84923 0.03672 0.0
C2044 C 0.00314 0.86023 0.02511 0.0
C2045 C 0.99337 0.87051 0.04511 0.0
H2046 H 0.0235 0.84129 0.02119 0.0
H2047 H 0.92726 0.93663 0.22007 0.0
H2048 H 0.65492 0.79782 0.80226 0.0
H2049 H 0.65384 0.76619 0.80327 0.0
H2050 H 0.64528 0.76739 0.90129 0.0
H2051 H 0.64675 0.79899 0.90062 0.0
H2052 H 0.66668 0.74157 0.88651 0.0
H2053 H 0.61153 0.76284 0.84981 0.0
H2054 H 0.59232 0.77939 0.81527 0.0
H2055 H 0.61061 0.74997 0.73799 0.0
H2056 H 0.63009 0.73339 0.77206 0.0
H2057 H 0.622 0.66426 0.91792 0.0
H2058 H 0.63207 0.69377 0.91012 0.0
H2059 H 0.63941 0.68343 0.8135 0.0
H2060 H 0.62898 0.65373 0.821 0.0
H2061 H 0.6219 0.71294 0.82232 0.0
H2062 H 0.67434 0.68888 0.86157 0.0
H2063 H 0.69262 0.67216 0.89738 0.0
H2064 H 0.67881 0.70654 0.97103 0.0
H2065 H 0.66025 0.72333 0.93578 0.0
C2066 C 0.65297 0.79136 0.82409 0.0
C2067 C 0.65076 0.80095 0.85133 0.0
C2068 C 0.6523 0.77327 0.8246 0.0
C2069 C 0.64918 0.76443 0.85227 0.0
C2070 C 0.64766 0.77393 0.87966 0.0
C2071 C 0.64846 0.79202 0.87922 0.0
C2072 C 0.6467 0.74536 0.85262 0.0
C2073 C 0.65683 0.7353 0.87261 0.0
C2074 C 0.63416 0.73712 0.83387 0.0
C2075 C 0.6224 0.74703 0.81341 0.0
C2076 C 0.61154 0.76 0.82542 0.0
C2077 C 0.60059 0.76936 0.80594 0.0
C2078 C 0.60028 0.76577 0.77444 0.0
C2079 C 0.61089 0.75276 0.76238 0.0
C2080 C 0.62188 0.74337 0.78176 0.0
C2081 C 0.6259 0.66813 0.895 0.0
C2082 C 0.62463 0.6566 0.87005 0.0
C2083 C 0.63179 0.68503 0.89064 0.0
C2084 C 0.63671 0.69077 0.8613 0.0
C2085 C 0.63574 0.67924 0.83637 0.0
C2086 C 0.62982 0.66226 0.84071 0.0
C2087 C 0.64168 0.70915 0.85661 0.0
C2088 C 0.63198 0.71911 0.83584 0.0
C2089 C 0.65455 0.7173 0.87478 0.0
C2090 C 0.66582 0.70731 0.89603 0.0
C2091 C 0.67511 0.69281 0.88545 0.0
C2092 C 0.68554 0.68333 0.90564 0.0
C2093 C 0.68686 0.68827 0.93647 0.0
C2094 C 0.67778 0.70273 0.94715 0.0
C2095 C 0.66733 0.71225 0.92705 0.0
H2096 H 0.69493 0.6809 0.95207 0.0
H2097 H 0.5918 0.77303 0.7594 0.0
H2098 H 0.45209 0.3934 0.16635 0.0
H2099 H 0.48366 0.39201 0.16844 0.0
H2100 H 0.4863 0.40234 0.07103 0.0
H2101 H 0.4547 0.40336 0.0686 0.0
H2102 H 0.50604 0.37578 0.08508 0.0
H2103 H 0.49875 0.43295 0.12527 0.0
H2104 H 0.48676 0.4555 0.15934 0.0
H2105 H 0.50767 0.42927 0.23812 0.0
H2106 H 0.51958 0.40643 0.20456 0.0
H2107 H 0.59799 0.37873 0.08701 0.0
H2108 H 0.56793 0.38829 0.08119 0.0
H2109 H 0.55857 0.37767 0.17716 0.0
H2110 H 0.58855 0.36845 0.18334 0.0
H2111 H 0.54286 0.40705 0.16031 0.0
H2112 H 0.54718 0.34861 0.12098 0.0
H2113 H 0.55885 0.3256 0.08751 0.0
H2114 H 0.54312 0.35418 0.0075 0.0
H2115 H 0.53156 0.37747 0.04053 0.0
C2116 C 0.45937 0.39559 0.14542 0.0
C2117 C 0.45084 0.39844 0.11729 0.0
C2118 C 0.47745 0.39487 0.14668 0.0
C2119 C 0.48738 0.39723 0.11993 0.0
C2120 C 0.47891 0.40048 0.09196 0.0
C2121 C 0.46084 0.40109 0.09064 0.0
C2122 C 0.50651 0.39515 0.12078 0.0
C2123 C 0.51412 0.3829 0.10111 0.0
C2124 C 0.51704 0.40414 0.14214 0.0
C2125 C 0.50995 0.4179 0.1624 0.0
C2126 C 0.50069 0.43192 0.14988 0.0
C2127 C 0.49392 0.44477 0.1691 0.0
C2128 C 0.49642 0.4438 0.20088 0.0
C2129 C 0.50573 0.43 0.2135 0.0
C2130 C 0.51252 0.41711 0.19438 0.0
C2131 C 0.58958 0.37859 0.10694 0.0
C2132 C 0.59566 0.37268 0.13558 0.0
C2133 C 0.57239 0.384 0.10355 0.0
C2134 C 0.56094 0.38347 0.12866 0.0
C2135 C 0.56716 0.37818 0.15747 0.0
C2136 C 0.58432 0.37284 0.16091 0.0
C2137 C 0.54228 0.3876 0.12484 0.0
C2138 C 0.53476 0.40016 0.14399 0.0
C2139 C 0.53181 0.37888 0.10306 0.0
C2140 C 0.53869 0.36486 0.08321 0.0
C2141 C 0.54633 0.35004 0.09625 0.0
C2142 C 0.5529 0.33694 0.07736 0.0
C2143 C 0.55177 0.33845 0.0454 0.0
C2144 C 0.54402 0.35304 0.03226 0.0
C2145 C 0.53745 0.36619 0.05105 0.0
H2146 H 0.55687 0.3283 0.03081 0.0
H2147 H 0.49117 0.45375 0.21572 0.0
H2148 H 0.8508 0.20392 0.40865 0.0
H2149 H 0.85186 0.23552 0.40937 0.0
H2150 H 0.85122 0.23643 0.31018 0.0
H2151 H 0.85041 0.2048 0.3092 0.0
H2152 H 0.87628 0.25657 0.33197 0.0
H2153 H 0.81589 0.24957 0.35187 0.0
H2154 H 0.78997 0.23799 0.37787 0.0
H2155 H 0.80684 0.26026 0.46326 0.0
H2156 H 0.83299 0.27177 0.43787 0.0
H2157 H 0.87274 0.34844 0.32803 0.0
H2158 H 0.86362 0.31834 0.32088 0.0
H2159 H 0.86532 0.31031 0.41899 0.0
H2160 H 0.87424 0.34032 0.42642 0.0
H2161 H 0.83739 0.29436 0.39326 0.0
H2162 H 0.89898 0.29835 0.37473 0.0
H2163 H 0.92524 0.30966 0.34942 0.0
H2164 H 0.90607 0.29269 0.26174 0.0
H2165 H 0.87957 0.28148 0.28652 0.0
C2166 C 0.85069 0.21082 0.38696 0.0
C2167 C 0.85058 0.20179 0.35886 0.0
C2168 C 0.85121 0.22892 0.38742 0.0
C2169 C 0.85148 0.23836 0.35982 0.0
C2170 C 0.85101 0.22941 0.33175 0.0
C2171 C 0.85052 0.21131 0.33126 0.0
C2172 C 0.85338 0.2575 0.36029 0.0
C2173 C 0.86755 0.26487 0.34485 0.0
C2174 C 0.84222 0.26829 0.37763 0.0
C2175 C 0.82648 0.26142 0.39299 0.0
C2176 C 0.81414 0.25189 0.37624 0.0
C2177 C 0.7994 0.24535 0.39087 0.0
C2178 C 0.79678 0.24835 0.42221 0.0
C2179 C 0.80889 0.25793 0.43899 0.0
C2180 C 0.82367 0.26448 0.42448 0.0
C2181 C 0.87097 0.34034 0.34812 0.0
C2182 C 0.87438 0.34676 0.37778 0.0
C2183 C 0.86581 0.32312 0.34397 0.0
C2184 C 0.864 0.31204 0.36939 0.0
C2185 C 0.86665 0.31863 0.39906 0.0
C2186 C 0.87184 0.33579 0.40323 0.0
C2187 C 0.86034 0.29333 0.36518 0.0
C2188 C 0.84592 0.28605 0.38 0.0
C2189 C 0.87128 0.28259 0.34732 0.0
C2190 C 0.88721 0.28927 0.33242 0.0
C2191 C 0.90031 0.29716 0.35002 0.0
C2192 C 0.91524 0.30353 0.33578 0.0
C2193 C 0.9173 0.30195 0.30398 0.0
C2194 C 0.90444 0.29394 0.28636 0.0
C2195 C 0.88947 0.28758 0.30049 0.0
H2196 H 0.92887 0.30688 0.29299 0.0
H2197 H 0.78536 0.24329 0.43349 0.0
H2198 H 0.90109 0.62788 0.58585 0.0
H2199 H 0.93153 0.61939 0.58013 0.0
H2200 H 0.93818 0.62196 0.67851 0.0
H2201 H 0.908 0.63047 0.68447 0.0
H2202 H 0.96267 0.64034 0.64841 0.0
H2203 H 0.93756 0.58346 0.64221 0.0
H2204 H 0.91808 0.56092 0.62178 0.0
H2205 H 0.94157 0.56582 0.53269 0.0
H2206 H 0.96105 0.58858 0.55251 0.0
H2207 H 0.04603 0.60572 0.66605 0.0
H2208 H 0.01452 0.60823 0.66839 0.0
H2209 H 0.01181 0.60632 0.56939 0.0
H2210 H 0.04336 0.60369 0.56675 0.0
H2211 H 0.98534 0.58753 0.59727 0.0
H2212 H 0.01014 0.64434 0.60289 0.0
H2213 H 0.02966 0.66701 0.62274 0.0
H2214 H 0.00643 0.66259 0.71212 0.0
H2215 H 0.98693 0.63969 0.6929 0.0
C2216 C 0.90898 0.62642 0.60628 0.0
C2217 C 0.90211 0.62998 0.63559 0.0
C2218 C 0.92636 0.62152 0.60298 0.0
C2219 C 0.93711 0.62006 0.62892 0.0
C2220 C 0.93013 0.62309 0.65819 0.0
C2221 C 0.91283 0.62793 0.66152 0.0
C2222 C 0.95591 0.61647 0.6257 0.0
C2223 C 0.9676 0.62867 0.63759 0.0
C2224 C 0.96234 0.60152 0.61073 0.0
C2225 C 0.95063 0.58786 0.59876 0.0
C2226 C 0.93847 0.57985 0.61819 0.0
C2227 C 0.92745 0.56701 0.60674 0.0
C2228 C 0.92855 0.56198 0.57593 0.0
C2229 C 0.94071 0.56975 0.55654 0.0
C2230 C 0.95175 0.58261 0.56787 0.0
C2231 C 0.03875 0.60563 0.64475 0.0
C2232 C 0.04726 0.60469 0.61619 0.0
C2233 C 0.02074 0.6071 0.64614 0.0
C2234 C 0.01087 0.6077 0.61904 0.0
C2235 C 0.0192 0.60592 0.59056 0.0
C2236 C 0.03724 0.60449 0.58912 0.0
C2237 C 0.99201 0.61126 0.62048 0.0
C2238 C 0.98035 0.59916 0.60811 0.0
C2239 C 0.98554 0.62635 0.63492 0.0
C2240 C 0.99719 0.64018 0.64653 0.0
C2241 C 0.00929 0.6481 0.62684 0.0
C2242 C 0.02033 0.66101 0.63796 0.0
C2243 C 0.01932 0.66621 0.66869 0.0
C2244 C 0.00722 0.65854 0.68834 0.0
C2245 C 0.99616 0.6456 0.67734 0.0
H2246 H 0.02788 0.67621 0.67726 0.0
H2247 H 0.92001 0.55203 0.56711 0.0
H2248 H 0.64726 0.20363 0.58921 0.0
H2249 H 0.6468 0.23524 0.59117 0.0
H2250 H 0.64378 0.23343 0.69018 0.0
H2251 H 0.644 0.2018 0.68846 0.0
H2252 H 0.62002 0.25492 0.667 0.0
H2253 H 0.68084 0.24652 0.6545 0.0
H2254 H 0.70735 0.23465 0.6309 0.0
H2255 H 0.69481 0.25969 0.54557 0.0
H2256 H 0.66808 0.2715 0.56852 0.0
H2257 H 0.62429 0.34672 0.67647 0.0
H2258 H 0.633 0.31647 0.68377 0.0
H2259 H 0.63619 0.30977 0.58545 0.0
H2260 H 0.62775 0.33988 0.57794 0.0
H2261 H 0.66236 0.29304 0.61417 0.0
H2262 H 0.60012 0.29789 0.62433 0.0
H2263 H 0.57305 0.30926 0.64672 0.0
H2264 H 0.58816 0.29042 0.73569 0.0
H2265 H 0.61544 0.27913 0.71387 0.0
C2266 C 0.64666 0.20993 0.61144 0.0
C2267 C 0.64562 0.20015 0.63867 0.0
C2268 C 0.64649 0.22803 0.61253 0.0
C2269 C 0.64541 0.23671 0.64085 0.0
C2270 C 0.64464 0.227 0.66808 0.0
C2271 C 0.6448 0.20891 0.66703 0.0
C2272 C 0.64406 0.25588 0.64187 0.0
C2273 C 0.62948 0.26327 0.65602 0.0
C2274 C 0.65623 0.26676 0.62703 0.0
C2275 C 0.67238 0.2598 0.61319 0.0
C2276 C 0.68367 0.2494 0.63064 0.0
C2277 C 0.69874 0.24269 0.61738 0.0
C2278 C 0.70274 0.24638 0.58674 0.0
C2279 C 0.69169 0.25683 0.56931 0.0
C2280 C 0.67658 0.26355 0.58244 0.0
C2281 C 0.62708 0.33887 0.65643 0.0
C2282 C 0.62514 0.34568 0.62662 0.0
C2283 C 0.63201 0.32158 0.66064 0.0
C2284 C 0.63503 0.31081 0.63513 0.0
C2285 C 0.63391 0.31783 0.60545 0.0
C2286 C 0.62898 0.33505 0.60122 0.0
C2287 C 0.63823 0.29198 0.63895 0.0
C2288 C 0.65309 0.28467 0.62562 0.0
C2289 C 0.6263 0.28113 0.65444 0.0
C2290 C 0.6099 0.28786 0.66756 0.0
C2291 C 0.59772 0.2963 0.64872 0.0
C2292 C 0.58234 0.3027 0.66129 0.0
C2293 C 0.57891 0.30061 0.69263 0.0
C2294 C 0.59085 0.29206 0.71143 0.0
C2295 C 0.60627 0.28565 0.69898 0.0
H2296 H 0.56699 0.30558 0.70232 0.0
H2297 H 0.71442 0.24117 0.57651 0.0
H2298 H 0.04603 0.40337 0.93561 0.0
H2299 H 0.0144 0.40254 0.93646 0.0
H2300 H 0.01367 0.39446 0.8383 0.0
H2301 H 0.04527 0.39567 0.8371 0.0
H2302 H 0.98824 0.41593 0.85501 0.0
H2303 H 0.00993 0.36048 0.88917 0.0
H2304 H 0.02708 0.34094 0.92216 0.0
H2305 H 0.99937 0.35879 0.00172 0.0
H2306 H 0.9822 0.37861 0.96922 0.0
H2307 H 0.91003 0.37165 0.82811 0.0
H2308 H 0.93977 0.38152 0.834 0.0
H2309 H 0.93147 0.38885 0.93124 0.0
H2310 H 0.90155 0.37867 0.92564 0.0
H2311 H 0.96067 0.37093 0.92018 0.0
H2312 H 0.93614 0.42375 0.88337 0.0
H2313 H 0.91881 0.44229 0.84893 0.0
H2314 H 0.95156 0.42861 0.7729 0.0
H2315 H 0.96895 0.4098 0.80678 0.0
C2316 C 0.03915 0.40159 0.91413 0.0
C2317 C 0.04821 0.39942 0.88631 0.0
C2318 C 0.02106 0.40106 0.91469 0.0
C2319 C 0.01167 0.39814 0.88753 0.0
C2320 C 0.02064 0.39669 0.85956 0.0
C2321 C 0.03873 0.39733 0.85894 0.0
C2322 C 0.99259 0.39574 0.8883 0.0
C2323 C 0.9822 0.40604 0.86912 0.0
C2324 C 0.98467 0.38312 0.9073 0.0
C2325 C 0.99493 0.37117 0.92683 0.0
C2326 C 0.00759 0.36033 0.91374 0.0
C2327 C 0.01729 0.34919 0.93233 0.0
C2328 C 0.01435 0.34866 0.96403 0.0
C2329 C 0.00166 0.35924 0.97718 0.0
C2330 C 0.99193 0.37042 0.95868 0.0
C2331 C 0.91441 0.37551 0.85076 0.0
C2332 C 0.90338 0.37432 0.87644 0.0
C2333 C 0.93143 0.38128 0.85403 0.0
C2334 C 0.9378 0.38612 0.88299 0.0
C2335 C 0.92678 0.38524 0.90865 0.0
C2336 C 0.90968 0.37946 0.90539 0.0
C2337 C 0.95631 0.39094 0.88652 0.0
C2338 C 0.96663 0.38105 0.90646 0.0
C2339 C 0.96415 0.40385 0.86805 0.0
C2340 C 0.9538 0.41527 0.84762 0.0
C2341 C 0.93958 0.4246 0.85927 0.0
C2342 C 0.92976 0.43518 0.83985 0.0
C2343 C 0.93407 0.43661 0.80874 0.0
C2344 C 0.94824 0.42749 0.797 0.0
C2345 C 0.9581 0.41689 0.81632 0.0
H2346 H 0.92644 0.44479 0.79374 0.0
H2347 H 0.02188 0.34003 0.97839 0.0
H2348 H 0.84342 0.79316 0.17471 0.0
H2349 H 0.84437 0.76157 0.17218 0.0
H2350 H 0.85837 0.76431 0.07626 0.0
H2351 H 0.857 0.79591 0.07835 0.0
H2352 H 0.83666 0.73806 0.08574 0.0
H2353 H 0.88914 0.75898 0.13304 0.0
H2354 H 0.9063 0.77523 0.17122 0.0
H2355 H 0.88387 0.74511 0.24409 0.0
H2356 H 0.86641 0.72883 0.20633 0.0
H2357 H 0.88144 0.65925 0.06349 0.0
H2358 H 0.87186 0.68916 0.06856 0.0
H2359 H 0.85856 0.67999 0.16355 0.0
H2360 H 0.8685 0.64999 0.15887 0.0
H2361 H 0.87713 0.7088 0.15759 0.0
H2362 H 0.82706 0.6854 0.10774 0.0
H2363 H 0.81119 0.66899 0.06806 0.0
H2364 H 0.8302 0.7035 0.99837 0.0
H2365 H 0.8464 0.71997 0.03755 0.0
C2366 C 0.84653 0.78705 0.15297 0.0
C2367 C 0.85032 0.79708 0.1268 0.0
C2368 C 0.84711 0.76898 0.1516 0.0
C2369 C 0.85177 0.76057 0.12418 0.0
C2370 C 0.8548 0.77051 0.09769 0.0
C2371 C 0.85406 0.78859 0.09896 0.0
C2372 C 0.85441 0.74152 0.12345 0.0
C2373 C 0.84558 0.73166 0.10131 0.0
C2374 C 0.86579 0.73311 0.1442 0.0
C2375 C 0.87633 0.74283 0.1669 0.0
C2376 C 0.88778 0.75591 0.15722 0.0
C2377 C 0.89757 0.76511 0.17878 0.0
C2378 C 0.89613 0.76124 0.21007 0.0
C2379 C 0.88494 0.74812 0.21986 0.0
C2380 C 0.8751 0.7389 0.19839 0.0
C2381 C 0.87634 0.66349 0.08544 0.0
C2382 C 0.87579 0.6522 0.11082 0.0
C2383 C 0.87075 0.68061 0.08823 0.0
C2384 C 0.86428 0.68678 0.11633 0.0
C2385 C 0.86345 0.67548 0.14161 0.0
C2386 C 0.86911 0.65833 0.13888 0.0
C2387 C 0.8595 0.70531 0.1197 0.0
C2388 C 0.86799 0.71511 0.14231 0.0
C2389 C 0.84792 0.71365 0.0992 0.0
C2390 C 0.83803 0.70386 0.0756 0.0
C2391 C 0.82795 0.68943 0.08393 0.0
C2392 C 0.81888 0.68012 0.06152 0.0
C2393 C 0.8197 0.68519 0.03071 0.0
C2394 C 0.82957 0.69959 0.02225 0.0
C2395 C 0.83868 0.70893 0.04456 0.0
H2396 H 0.81265 0.678 0.0134 0.0
H2397 H 0.90373 0.76837 0.22673 0.0
H2398 H 0.60141 0.60941 0.40923 0.0
H2399 H 0.57122 0.59992 0.41547 0.0
H2400 H 0.55637 0.63058 0.33691 0.0
H2401 H 0.58633 0.63983 0.3301 0.0
H2402 H 0.53641 0.63617 0.39265 0.0
H2403 H 0.55755 0.59078 0.32556 0.0
H2404 H 0.57715 0.56691 0.31112 0.0
H2405 H 0.5621 0.53867 0.3919 0.0
H2406 H 0.54258 0.56252 0.40705 0.0
H2407 H 0.45417 0.59032 0.34551 0.0
H2408 H 0.48579 0.59233 0.34292 0.0
H2409 H 0.48767 0.6045 0.43962 0.0
H2410 H 0.45613 0.60239 0.44258 0.0
H2411 H 0.51445 0.57639 0.37666 0.0
H2412 H 0.51492 0.64018 0.44372 0.0
H2413 H 0.49521 0.66425 0.45684 0.0
H2414 H 0.46708 0.65609 0.37287 0.0
H2415 H 0.48678 0.63216 0.35908 0.0
C2416 C 0.59172 0.614 0.39316 0.0
C2417 C 0.59627 0.62538 0.3692 0.0
C2418 C 0.57453 0.60855 0.39673 0.0
C2419 C 0.56164 0.6146 0.37665 0.0
C2420 C 0.56617 0.6258 0.35262 0.0
C2421 C 0.58332 0.63102 0.34874 0.0
C2422 C 0.54325 0.60991 0.38117 0.0
C2423 C 0.53164 0.62308 0.38938 0.0
C2424 C 0.53707 0.59285 0.37673 0.0
C2425 C 0.54878 0.57852 0.36763 0.0
C2426 C 0.55856 0.57957 0.34041 0.0
C2427 C 0.56962 0.56602 0.33206 0.0
C2428 C 0.57092 0.55131 0.35064 0.0
C2429 C 0.56111 0.55009 0.37756 0.0
C2430 C 0.55004 0.56361 0.38603 0.0
C2431 C 0.46132 0.59313 0.36635 0.0
C2432 C 0.45261 0.59637 0.39418 0.0
C2433 C 0.47939 0.59417 0.36485 0.0
C2434 C 0.48899 0.59867 0.39103 0.0
C2435 C 0.48044 0.60106 0.41916 0.0
C2436 C 0.46241 0.59985 0.42077 0.0
C2437 C 0.50767 0.60267 0.38822 0.0
C2438 C 0.5193 0.58942 0.38034 0.0
C2439 C 0.51392 0.61969 0.39285 0.0
C2440 C 0.50219 0.63427 0.40058 0.0
C2441 C 0.50456 0.64357 0.42803 0.0
C2442 C 0.49339 0.65719 0.43558 0.0
C2443 C 0.47986 0.66166 0.41575 0.0
C2444 C 0.47752 0.65257 0.38827 0.0
C2445 C 0.48867 0.63897 0.38059 0.0
H2446 H 0.47122 0.67218 0.42166 0.0
H2447 H 0.57948 0.54083 0.34412 0.0
H2448 H 0.3695 0.34726 0.16905 0.0
H2449 H 0.36008 0.31707 0.17331 0.0
H2450 H 0.37028 0.30946 0.07671 0.0
H2451 H 0.37936 0.33957 0.07208 0.0
H2452 H 0.34121 0.2929 0.09337 0.0
H2453 H 0.39991 0.29772 0.13133 0.0
H2454 H 0.42299 0.30931 0.16473 0.0
H2455 H 0.39541 0.29187 0.24471 0.0
H2456 H 0.37205 0.28036 0.21176 0.0
H2457 H 0.35701 0.20241 0.08286 0.0
H2458 H 0.35753 0.23405 0.082 0.0
H2459 H 0.34769 0.2352 0.17965 0.0
H2460 H 0.3475 0.20359 0.18085 0.0
H2461 H 0.37389 0.25555 0.16587 0.0
H2462 H 0.3166 0.24759 0.12673 0.0
H2463 H 0.29411 0.23555 0.0926 0.0
H2464 H 0.31914 0.25844 0.01433 0.0
H2465 H 0.34193 0.2704 0.04793 0.0
C2466 C 0.36956 0.33922 0.14865 0.0
C2467 C 0.37537 0.3458 0.12031 0.0
C2468 C 0.36421 0.32195 0.15114 0.0
C2469 C 0.36472 0.31095 0.12541 0.0
C2470 C 0.3698 0.3177 0.09687 0.0
C2471 C 0.37508 0.33493 0.09433 0.0
C2472 C 0.36096 0.29216 0.12835 0.0
C2473 C 0.3484 0.28469 0.10911 0.0
C2474 C 0.37009 0.28152 0.14932 0.0
C2475 C 0.38415 0.28837 0.16912 0.0
C2476 C 0.39871 0.29648 0.15605 0.0
C2477 C 0.41185 0.30301 0.1749 0.0
C2478 C 0.41064 0.30138 0.20683 0.0
C2479 C 0.39632 0.29315 0.21998 0.0
C2480 C 0.38313 0.28662 0.20124 0.0
C2481 C 0.35474 0.20939 0.1041 0.0
C2482 C 0.3523 0.20045 0.13195 0.0
C2483 C 0.35496 0.2275 0.10354 0.0
C2484 C 0.35252 0.23702 0.13074 0.0
C2485 C 0.34962 0.22813 0.1584 0.0
C2486 C 0.34949 0.21004 0.15901 0.0
C2487 C 0.35421 0.25619 0.13071 0.0
C2488 C 0.36646 0.26374 0.15045 0.0
C2489 C 0.34482 0.26686 0.11013 0.0
C2490 C 0.33105 0.25978 0.08985 0.0
C2491 C 0.31738 0.24995 0.10222 0.0
C2492 C 0.30457 0.24316 0.08296 0.0
C2493 C 0.30521 0.2462 0.05131 0.0
C2494 C 0.31866 0.25608 0.03885 0.0
C2495 C 0.33152 0.26289 0.058 0.0
H2496 H 0.29528 0.24092 0.03644 0.0
H2497 H 0.42083 0.30644 0.22138 0.0
H2498 H 0.40098 0.62185 0.91224 0.0
H2499 H 0.43143 0.61358 0.91746 0.0
H2500 H 0.43951 0.62348 0.82091 0.0
H2501 H 0.40911 0.63164 0.81536 0.0
H2502 H 0.45638 0.59406 0.84023 0.0
H2503 H 0.45038 0.65361 0.87247 0.0
H2504 H 0.43803 0.67745 0.90322 0.0
H2505 H 0.45506 0.65264 0.98628 0.0
H2506 H 0.46731 0.62853 0.95602 0.0
H2507 H 0.5469 0.60835 0.83232 0.0
H2508 H 0.51535 0.6096 0.83014 0.0
H2509 H 0.51281 0.60367 0.92871 0.0
H2510 H 0.54443 0.60286 0.93119 0.0
H2511 H 0.49256 0.62904 0.91121 0.0
H2512 H 0.50088 0.5705 0.87849 0.0
H2513 H 0.51328 0.54681 0.84748 0.0
H2514 H 0.49206 0.56938 0.76545 0.0
H2515 H 0.47973 0.59334 0.79591 0.0
C2516 C 0.40917 0.62209 0.89202 0.0
C2517 C 0.40263 0.62756 0.86343 0.0
C2518 C 0.42658 0.61741 0.89509 0.0
C2519 C 0.43776 0.61812 0.86965 0.0
C2520 C 0.43111 0.62286 0.84084 0.0
C2521 C 0.41373 0.62759 0.83776 0.0
C2522 C 0.45658 0.61483 0.87326 0.0
C2523 C 0.46435 0.60176 0.85558 0.0
C2524 C 0.46686 0.62464 0.8938 0.0
C2525 C 0.45959 0.63918 0.91201 0.0
C2526 C 0.45137 0.65317 0.89731 0.0
C2527 C 0.44441 0.66675 0.91464 0.0
C2528 C 0.44571 0.66653 0.94669 0.0
C2529 C 0.45403 0.65277 0.96146 0.0
C2530 C 0.46099 0.63916 0.94423 0.0
C2531 C 0.53965 0.60713 0.85354 0.0
C2532 C 0.54822 0.60554 0.88195 0.0
C2533 C 0.52158 0.60776 0.85223 0.0
C2534 C 0.51167 0.60654 0.87923 0.0
C2535 C 0.52017 0.60463 0.90757 0.0
C2536 C 0.53826 0.60414 0.90893 0.0
C2537 C 0.4925 0.60827 0.87805 0.0
C2538 C 0.48463 0.62113 0.89613 0.0
C2539 C 0.48216 0.59824 0.85787 0.0
C2540 C 0.48949 0.5838 0.83948 0.0
C2541 C 0.49896 0.57048 0.85381 0.0
C2542 C 0.50596 0.55699 0.83633 0.0
C2543 C 0.50349 0.55661 0.80451 0.0
C2544 C 0.49398 0.5697 0.7901 0.0
C2545 C 0.48696 0.58323 0.80747 0.0
H2546 H 0.50892 0.54615 0.79102 0.0
H2547 H 0.44032 0.67705 0.96007 0.0
H2548 H 0.12366 0.66162 0.57424 0.0
H2549 H 0.13224 0.69183 0.57997 0.0
H2550 H 0.13171 0.6862 0.67868 0.0
H2551 H 0.12341 0.65576 0.67314 0.0
H2552 H 0.11387 0.71677 0.60541 0.0
H2553 H 0.15967 0.71586 0.71076 0.0
H2554 H 0.18116 0.69656 0.73506 0.0
H2555 H 0.19115 0.6724 0.64789 0.0
H2556 H 0.16991 0.69171 0.62301 0.0
H2557 H 0.14491 0.79762 0.69367 0.0
H2558 H 0.14242 0.76607 0.69041 0.0
H2559 H 0.14689 0.76886 0.59168 0.0
H2560 H 0.14927 0.80034 0.5946 0.0
H2561 H 0.16309 0.73979 0.66638 0.0
H2562 H 0.11765 0.74085 0.56077 0.0
H2563 H 0.09625 0.76027 0.53646 0.0
H2564 H 0.08566 0.78382 0.62392 0.0
H2565 H 0.10679 0.76438 0.64881 0.0
C2566 C 0.12558 0.66671 0.5972 0.0
C2567 C 0.12277 0.65627 0.62325 0.0
C2568 C 0.13046 0.68402 0.60042 0.0
C2569 C 0.13264 0.6913 0.62973 0.0
C2570 C 0.13033 0.68081 0.65581 0.0
C2571 C 0.12553 0.66342 0.65261 0.0
C2572 C 0.13618 0.71014 0.6328 0.0
C2573 C 0.1248 0.72176 0.61835 0.0
C2574 C 0.15013 0.7167 0.65046 0.0
C2575 C 0.16305 0.70511 0.66512 0.0
C2576 C 0.1665 0.70647 0.69677 0.0
C2577 C 0.17863 0.69552 0.71064 0.0
C2578 C 0.18747 0.68322 0.69305 0.0
C2579 C 0.18424 0.68188 0.66152 0.0
C2580 C 0.17213 0.69281 0.64753 0.0
C2581 C 0.14553 0.79152 0.67126 0.0
C2582 C 0.14711 0.80155 0.64436 0.0
C2583 C 0.14417 0.77348 0.66948 0.0
C2584 C 0.14424 0.76517 0.6408 0.0
C2585 C 0.14657 0.77506 0.61403 0.0
C2586 C 0.14795 0.79306 0.61577 0.0
C2587 C 0.14093 0.74629 0.63861 0.0
C2588 C 0.15223 0.73472 0.65335 0.0
C2589 C 0.1269 0.73972 0.62121 0.0
C2590 C 0.11394 0.75128 0.60657 0.0
C2591 C 0.1107 0.75013 0.57482 0.0
C2592 C 0.09863 0.76115 0.56094 0.0
C2593 C 0.08965 0.77331 0.57862 0.0
C2594 C 0.09267 0.77444 0.61023 0.0
C2595 C 0.10471 0.76344 0.62423 0.0
H2596 H 0.08033 0.78184 0.56782 0.0
H2597 H 0.19685 0.67475 0.70383 0.0
H2598 H 0.08808 0.3757 0.32494 0.0
H2599 H 0.05822 0.38492 0.33226 0.0
H2600 H 0.06696 0.38935 0.42993 0.0
H2601 H 0.09697 0.3798 0.42288 0.0
H2602 H 0.03816 0.37136 0.41807 0.0
H2603 H 0.06124 0.42559 0.38519 0.0
H2604 H 0.07782 0.44548 0.352 0.0
H2605 H 0.04463 0.43329 0.27578 0.0
H2606 H 0.02799 0.41313 0.30839 0.0
H2607 H 0.9526 0.40221 0.43953 0.0
H2608 H 0.98424 0.40161 0.43898 0.0
H2609 H 0.98369 0.39608 0.34026 0.0
H2610 H 0.95206 0.39707 0.34049 0.0
H2611 H 0.00907 0.4175 0.35769 0.0
H2612 H 0.98864 0.36088 0.38823 0.0
H2613 H 0.97224 0.34027 0.42035 0.0
H2614 H 0.00079 0.35653 0.50005 0.0
H2615 H 0.01721 0.37741 0.46843 0.0
C2616 C 0.08377 0.37881 0.34799 0.0
C2617 C 0.09495 0.37695 0.37335 0.0
C2618 C 0.06668 0.3842 0.35211 0.0
C2619 C 0.06038 0.38802 0.38161 0.0
C2620 C 0.07157 0.38653 0.40694 0.0
C2621 C 0.08873 0.38111 0.40286 0.0
C2622 C 0.0418 0.39232 0.38599 0.0
C2623 C 0.03188 0.38171 0.40539 0.0
C2624 C 0.03351 0.40555 0.36889 0.0
C2625 C 0.04343 0.41776 0.34922 0.0
C2626 C 0.05755 0.42706 0.3613 0.0
C2627 C 0.06695 0.4384 0.34259 0.0
C2628 C 0.0623 0.44063 0.31179 0.0
C2629 C 0.04822 0.43155 0.29964 0.0
C2630 C 0.03878 0.42018 0.31824 0.0
C2631 C 0.95919 0.40101 0.41765 0.0
C2632 C 0.94977 0.39952 0.39006 0.0
C2633 C 0.97729 0.40062 0.4174 0.0
C2634 C 0.98633 0.39851 0.38963 0.0
C2635 C 0.97699 0.39769 0.36197 0.0
C2636 C 0.95889 0.3982 0.36216 0.0
C2637 C 0.00545 0.39638 0.3894 0.0
C2638 C 0.01544 0.40735 0.37073 0.0
C2639 C 0.01381 0.38343 0.40706 0.0
C2640 C 0.004 0.37084 0.42605 0.0
C2641 C 0.99132 0.36015 0.41265 0.0
C2642 C 0.98204 0.34841 0.43075 0.0
C2643 C 0.98544 0.34713 0.46224 0.0
C2644 C 0.99815 0.35756 0.47567 0.0
C2645 C 0.00746 0.36934 0.45767 0.0
H2646 H 0.97824 0.33803 0.47622 0.0
H2647 H 0.0696 0.44941 0.29734 0.0
H2648 H 0.3823 0.65867 0.43363 0.0
H2649 H 0.37362 0.68881 0.42726 0.0
H2650 H 0.36741 0.6807 0.32973 0.0
H2651 H 0.37632 0.65044 0.33581 0.0
H2652 H 0.386 0.70951 0.34177 0.0
H2653 H 0.33211 0.68571 0.37586 0.0
H2654 H 0.31284 0.66883 0.40972 0.0
H2655 H 0.32561 0.70201 0.48566 0.0
H2656 H 0.34515 0.71896 0.45236 0.0
H2657 H 0.35225 0.79356 0.31782 0.0
H2658 H 0.35416 0.76201 0.31991 0.0
H2659 H 0.35998 0.7643 0.41849 0.0
H2660 H 0.3577 0.79585 0.41672 0.0
H2661 H 0.33957 0.73783 0.40263 0.0
H2662 H 0.39517 0.75973 0.3708 0.0
H2663 H 0.41526 0.77648 0.33822 0.0
H2664 H 0.40001 0.74666 0.25938 0.0
H2665 H 0.37965 0.72988 0.29144 0.0
C2666 C 0.37896 0.66321 0.41081 0.0
C2667 C 0.38004 0.65211 0.3852 0.0
C2668 C 0.3739 0.68045 0.40725 0.0
C2669 C 0.36969 0.68697 0.37807 0.0
C2670 C 0.37056 0.67591 0.35248 0.0
C2671 C 0.37561 0.65861 0.35601 0.0
C2672 C 0.36529 0.70556 0.37422 0.0
C2673 C 0.37561 0.71564 0.3546 0.0
C2674 C 0.35204 0.71363 0.39159 0.0
C2675 C 0.3402 0.70353 0.41165 0.0
C2676 C 0.33091 0.68934 0.39983 0.0
C2677 C 0.31992 0.67977 0.41892 0.0
C2678 C 0.31803 0.68432 0.44984 0.0
C2679 C 0.32709 0.69849 0.46171 0.0
C2680 C 0.33811 0.7081 0.44273 0.0
C2681 C 0.35379 0.78737 0.34 0.0
C2682 C 0.35498 0.79727 0.36709 0.0
C2683 C 0.35494 0.76931 0.34113 0.0
C2684 C 0.35752 0.7608 0.3693 0.0
C2685 C 0.35804 0.77059 0.39649 0.0
C2686 C 0.35678 0.78865 0.39542 0.0
C2687 C 0.36037 0.74178 0.37037 0.0
C2688 C 0.34981 0.73165 0.38952 0.0
C2689 C 0.37348 0.73365 0.35272 0.0
C2690 C 0.38575 0.74368 0.33344 0.0
C2691 C 0.39601 0.75684 0.34647 0.0
C2692 C 0.40746 0.76632 0.32811 0.0
C2693 C 0.40887 0.76267 0.29673 0.0
C2694 C 0.39887 0.74949 0.28367 0.0
C2695 C 0.38739 0.73999 0.30193 0.0
H2696 H 0.41774 0.77003 0.28255 0.0
H2697 H 0.30952 0.67689 0.46458 0.0
H2698 H 0.95461 0.59744 0.05754 0.0
H2699 H 0.98613 0.59976 0.06013 0.0
H2700 H 0.98336 0.60378 0.15895 0.0
H2701 H 0.95182 0.60165 0.1566 0.0
H2702 H 0.00264 0.62924 0.13457 0.0
H2703 H 0.99911 0.56744 0.12439 0.0
H2704 H 0.9901 0.53988 0.10062 0.0
H2705 H 0.01654 0.5537 0.01728 0.0
H2706 H 0.02551 0.58147 0.04042 0.0
H2707 H 0.09003 0.6236 0.17331 0.0
H2708 H 0.05981 0.61543 0.16677 0.0
H2709 H 0.06608 0.6162 0.06824 0.0
H2710 H 0.09661 0.62438 0.07452 0.0
H2711 H 0.04534 0.58833 0.08979 0.0
H2712 H 0.04876 0.65003 0.09983 0.0
H2713 H 0.05791 0.67756 0.12356 0.0
H2714 H 0.03141 0.6639 0.20693 0.0
H2715 H 0.02231 0.63615 0.18384 0.0
C2716 C 0.9607 0.5986 0.07988 0.0
C2717 C 0.95066 0.59946 0.10687 0.0
C2718 C 0.97874 0.59986 0.08131 0.0
C2719 C 0.9871 0.60189 0.10974 0.0
C2720 C 0.97716 0.60224 0.13676 0.0
C2721 C 0.95913 0.60098 0.13537 0.0
C2722 C 0.00607 0.60487 0.11122 0.0
C2723 C 0.01196 0.62016 0.12517 0.0
C2724 C 0.01821 0.5933 0.09801 0.0
C2725 C 0.01283 0.57662 0.08403 0.0
C2726 C 0.00287 0.56468 0.1009 0.0
C2727 C 0.9978 0.549 0.08756 0.0
C2728 C 0.0027 0.54506 0.05743 0.0
C2729 C 0.01273 0.55678 0.0406 0.0
C2730 C 0.01782 0.57248 0.05383 0.0
C2731 C 0.08511 0.6219 0.15018 0.0
C2732 C 0.09572 0.62486 0.1244 0.0
C2733 C 0.0678 0.61722 0.14652 0.0
C2734 C 0.06067 0.61547 0.11704 0.0
C2735 C 0.07137 0.61755 0.0912 0.0
C2736 C 0.08878 0.62226 0.09483 0.0
C2737 C 0.04181 0.61253 0.11357 0.0
C2738 C 0.03596 0.59736 0.09915 0.0
C2739 C 0.02963 0.62421 0.12628 0.0
C2740 C 0.03499 0.64094 0.1402 0.0
C2741 C 0.045 0.65283 0.12331 0.0
C2742 C 0.05016 0.66849 0.13663 0.0
C2743 C 0.04528 0.67246 0.16676 0.0
C2744 C 0.03519 0.6608 0.18361 0.0
C2745 C 0.03002 0.64511 0.17041 0.0
H2746 H 0.04928 0.68458 0.17704 0.0
H2747 H 0.99876 0.53292 0.04715 0.0
H2748 H 0.15021 0.20346 0.81333 0.0
H2749 H 0.14761 0.235 0.81446 0.0
H2750 H 0.14251 0.23357 0.9132 0.0
H2751 H 0.14498 0.20202 0.91233 0.0
H2752 H 0.11717 0.25255 0.88656 0.0
H2753 H 0.17911 0.24878 0.88012 0.0
H2754 H 0.20707 0.2394 0.85835 0.0
H2755 H 0.19485 0.26471 0.77314 0.0
H2756 H 0.16669 0.27405 0.79426 0.0
H2757 H 0.1224 0.34046 0.92204 0.0
H2758 H 0.13036 0.31008 0.91721 0.0
H2759 H 0.13193 0.3152 0.8185 0.0
H2760 H 0.12399 0.34589 0.82306 0.0
H2761 H 0.15901 0.29457 0.84243 0.0
H2762 H 0.09721 0.29837 0.8488 0.0
H2763 H 0.0693 0.30793 0.87054 0.0
H2764 H 0.08123 0.28231 0.9556 0.0
H2765 H 0.10935 0.27281 0.93452 0.0
C2766 C 0.14872 0.20985 0.83535 0.0
C2767 C 0.14772 0.20018 0.86274 0.0
C2768 C 0.14732 0.2279 0.83594 0.0
C2769 C 0.14493 0.23664 0.86392 0.0
C2770 C 0.14433 0.22707 0.89135 0.0
C2771 C 0.1458 0.20903 0.89081 0.0
C2772 C 0.14195 0.25563 0.86447 0.0
C2773 C 0.12644 0.26174 0.8773 0.0
C2774 C 0.15379 0.26757 0.85144 0.0
C2775 C 0.1707 0.26195 0.83867 0.0
C2776 C 0.18231 0.25221 0.85664 0.0
C2777 C 0.19821 0.24693 0.84444 0.0
C2778 C 0.20271 0.25141 0.81435 0.0
C2779 C 0.19133 0.26123 0.79642 0.0
C2780 C 0.1754 0.26653 0.80851 0.0
C2781 C 0.12457 0.33525 0.89924 0.0
C2782 C 0.12235 0.3456 0.87289 0.0
C2783 C 0.12911 0.31784 0.89655 0.0
C2784 C 0.13146 0.31034 0.8675 0.0
C2785 C 0.1301 0.32076 0.84114 0.0
C2786 C 0.12553 0.33827 0.84379 0.0
C2787 C 0.13437 0.29142 0.86494 0.0
C2788 C 0.14977 0.28533 0.85164 0.0
C2789 C 0.12242 0.27944 0.87747 0.0
C2790 C 0.10546 0.28501 0.89017 0.0
C2791 C 0.09395 0.29489 0.87223 0.0
C2792 C 0.07808 0.30028 0.88442 0.0
C2793 C 0.07351 0.29576 0.91446 0.0
C2794 C 0.08479 0.28581 0.93235 0.0
C2795 C 0.10069 0.28041 0.92028 0.0
H2796 H 0.06122 0.29995 0.92386 0.0
H2797 H 0.21503 0.24732 0.80495 0.0
H2798 H 0.41184 0.37528 0.67067 0.0
H2799 H 0.44153 0.38462 0.66183 0.0
H2800 H 0.4329 0.38344 0.56384 0.0
H2801 H 0.40302 0.37381 0.57247 0.0
H2802 H 0.46221 0.36666 0.57942 0.0
H2803 H 0.4378 0.42202 0.60099 0.0
H2804 H 0.42048 0.44346 0.62963 0.0
H2805 H 0.45317 0.43682 0.70865 0.0
H2806 H 0.47054 0.41515 0.68065 0.0
H2807 H 0.54797 0.3974 0.55648 0.0
H2808 H 0.51632 0.39642 0.55524 0.0
H2809 H 0.515 0.39643 0.65442 0.0
H2810 H 0.54658 0.39775 0.65592 0.0
H2811 H 0.48989 0.41669 0.63156 0.0
H2812 H 0.51133 0.35877 0.61302 0.0
H2813 H 0.52841 0.33655 0.58575 0.0
H2814 H 0.50096 0.34763 0.50212 0.0
H2815 H 0.48387 0.37008 0.52884 0.0
C2816 C 0.41614 0.37717 0.64719 0.0
C2817 C 0.40503 0.37374 0.62226 0.0
C2818 C 0.43313 0.38263 0.64219 0.0
C2819 C 0.4394 0.38492 0.61218 0.0
C2820 C 0.42829 0.38182 0.5872 0.0
C2821 C 0.41121 0.37637 0.59218 0.0
C2822 C 0.45789 0.38937 0.6072 0.0
C2823 C 0.46819 0.37784 0.59022 0.0
C2824 C 0.46576 0.40373 0.62185 0.0
C2825 C 0.45542 0.41687 0.63874 0.0
C2826 C 0.44123 0.42504 0.62454 0.0
C2827 C 0.43141 0.43725 0.64066 0.0
C2828 C 0.4357 0.44148 0.67095 0.0
C2829 C 0.44985 0.43353 0.68518 0.0
C2830 C 0.45971 0.4213 0.66918 0.0
C2831 C 0.54095 0.39735 0.57805 0.0
C2832 C 0.54984 0.3975 0.60632 0.0
C2833 C 0.52285 0.39674 0.57729 0.0
C2834 C 0.5133 0.3961 0.60474 0.0
C2835 C 0.5221 0.3969 0.63295 0.0
C2836 C 0.54018 0.39758 0.63375 0.0
C2837 C 0.4942 0.39382 0.60429 0.0
C2838 C 0.48383 0.40572 0.6203 0.0
C2839 C 0.48625 0.37975 0.58887 0.0
C2840 C 0.49648 0.36623 0.57283 0.0
C2841 C 0.50904 0.35655 0.58876 0.0
C2842 C 0.5187 0.34391 0.57342 0.0
C2843 C 0.51581 0.34072 0.5422 0.0
C2844 C 0.50321 0.35014 0.52629 0.0
C2845 C 0.49353 0.36282 0.54152 0.0
H2846 H 0.52331 0.33093 0.53036 0.0
H2847 H 0.42808 0.45094 0.6834 0.0
H2848 H 0.1354 0.08052 0.4951 0.0
H2849 H 0.1497 0.08088 0.54584 0.0
H2850 H 0.11967 0.12571 0.57134 0.0
H2851 H 0.10524 0.1253 0.52172 0.0
H2852 H 0.15819 0.12793 0.57811 0.0
H2853 H 0.10717 0.09112 0.59978 0.0
H2854 H 0.09003 0.06448 0.59237 0.0
H2855 H 0.13409 0.03359 0.61744 0.0
H2856 H 0.15156 0.06008 0.62461 0.0
H2857 H 0.13945 0.15399 0.72422 0.0
H2858 H 0.14148 0.14316 0.67197 0.0
H2859 H 0.16991 0.09854 0.70396 0.0
H2860 H 0.16781 0.10942 0.75711 0.0
H2861 H 0.143 0.08956 0.66559 0.0
H2862 H 0.1909 0.12701 0.65922 0.0
H2863 H 0.20813 0.15351 0.66728 0.0
H2864 H 0.17198 0.18265 0.61293 0.0
H2865 H 0.15437 0.15641 0.6049 0.0
C2866 C 0.13174 0.0903 0.51173 0.0
C2867 C 0.11921 0.1029 0.50435 0.0
C2868 C 0.13993 0.0905 0.54058 0.0
C2869 C 0.13581 0.10343 0.56208 0.0
C2870 C 0.1231 0.11572 0.55492 0.0
C2871 C 0.11481 0.1154 0.52653 0.0
C2872 C 0.14473 0.10484 0.59207 0.0
C2873 C 0.15508 0.11947 0.59726 0.0
C2874 C 0.14124 0.09338 0.61661 0.0
C2875 C 0.13072 0.07754 0.61226 0.0
C2876 C 0.11325 0.07864 0.60338 0.0
C2877 C 0.10346 0.06358 0.59931 0.0
C2878 C 0.11098 0.04735 0.6043 0.0
C2879 C 0.12829 0.04616 0.61349 0.0
C2880 C 0.13814 0.06119 0.61756 0.0
C2881 C 0.14636 0.14198 0.72024 0.0
C2882 C 0.15345 0.13254 0.7448 0.0
C2883 C 0.14761 0.13585 0.69024 0.0
C2884 C 0.15603 0.12014 0.68395 0.0
C2885 C 0.16347 0.11076 0.70831 0.0
C2886 C 0.16232 0.11701 0.73857 0.0
C2887 C 0.15563 0.1133 0.65205 0.0
C2888 C 0.14685 0.09767 0.64639 0.0
C2889 C 0.16072 0.1238 0.62694 0.0
C2890 C 0.1713 0.13969 0.63146 0.0
C2891 C 0.18657 0.13908 0.6491 0.0
C2892 C 0.19641 0.15406 0.65366 0.0
C2893 C 0.19116 0.16975 0.64062 0.0
C2894 C 0.17606 0.17048 0.62297 0.0
C2895 C 0.16616 0.15554 0.61834 0.0
H2896 H 0.19879 0.18133 0.64419 0.0
H2897 H 0.10338 0.0357 0.60116 0.0
H2898 H 0.17151 0.88375 0.75651 0.0
H2899 H 0.17174 0.89683 0.80827 0.0
H2900 H 0.12179 0.87414 0.82685 0.0
H2901 H 0.12156 0.86092 0.77617 0.0
H2902 H 0.12493 0.91115 0.83944 0.0
H2903 H 0.15448 0.85528 0.85575 0.0
H2904 H 0.17858 0.83488 0.84701 0.0
H2905 H 0.21495 0.87322 0.87783 0.0
H2906 H 0.19104 0.89393 0.88638 0.0
H2907 H 0.09615 0.89 0.98346 0.0
H2908 H 0.10734 0.89258 0.93143 0.0
H2909 H 0.15429 0.91569 0.96626 0.0
H2910 H 0.14297 0.91319 0.01909 0.0
H2911 H 0.16033 0.88828 0.92557 0.0
H2912 H 0.12924 0.94068 0.92387 0.0
H2913 H 0.10504 0.96079 0.93345 0.0
H2914 H 0.07202 0.93038 0.87516 0.0
H2915 H 0.09593 0.90992 0.86557 0.0
C2916 C 0.16067 0.88149 0.77179 0.0
C2917 C 0.14653 0.87129 0.76226 0.0
C2918 C 0.1608 0.88899 0.80123 0.0
C2919 C 0.1467 0.88654 0.82117 0.0
C2920 C 0.13272 0.87628 0.81169 0.0
C2921 C 0.13269 0.86865 0.78271 0.0
C2922 C 0.14603 0.89443 0.85216 0.0
C2923 C 0.13276 0.90634 0.85831 0.0
C2924 C 0.15673 0.88865 0.87644 0.0
C2925 C 0.17103 0.87622 0.87125 0.0
C2926 C 0.16763 0.85941 0.86035 0.0
C2927 C 0.18125 0.84778 0.8555 0.0
C2928 C 0.19829 0.85277 0.86174 0.0
C2929 C 0.20175 0.86939 0.87292 0.0
C2930 C 0.18818 0.88108 0.87777 0.0
C2931 C 0.10876 0.89587 0.98013 0.0
C2932 C 0.1187 0.90137 0.00534 0.0
C2933 C 0.11511 0.89743 0.95031 0.0
C2934 C 0.13158 0.90448 0.94492 0.0
C2935 C 0.14149 0.91032 0.96996 0.0
C2936 C 0.135 0.90896 1.00002 0.0
C2937 C 0.13853 0.90427 0.91312 0.0
C2938 C 0.15295 0.89377 0.90671 0.0
C2939 C 0.12892 0.91144 0.8885 0.0
C2940 C 0.11443 0.92374 0.89402 0.0
C2941 C 0.1168 0.93821 0.91321 0.0
C2942 C 0.10312 0.94969 0.91864 0.0
C2943 C 0.087 0.94686 0.90492 0.0
C2944 C 0.08453 0.93256 0.88573 0.0
C2945 C 0.09816 0.92104 0.88023 0.0
H2946 H 0.07643 0.95576 0.90915 0.0
H2947 H 0.20881 0.84375 0.85799 0.0
H2948 H 0.40489 0.88579 0.03013 0.0
H2949 H 0.39081 0.88453 0.08012 0.0
H2950 H 0.3487 0.91572 0.04596 0.0
H2951 H 0.36271 0.91693 0.9951 0.0
H2952 H 0.36711 0.9204 0.11632 0.0
H2953 H 0.33353 0.88373 0.04757 0.0
H2954 H 0.33112 0.86301 0.00459 0.0
H2955 H 0.36321 0.82679 0.05332 0.0
H2956 H 0.36603 0.84743 0.09637 0.0
H2957 H 0.33387 0.88562 0.25892 0.0
H2958 H 0.33243 0.89714 0.20622 0.0
H2959 H 0.36748 0.85709 0.17587 0.0
H2960 H 0.36874 0.8455 0.22769 0.0
H2961 H 0.34285 0.86174 0.13452 0.0
H2962 H 0.38143 0.89853 0.19571 0.0
H2963 H 0.38783 0.9187 0.23825 0.0
H2964 H 0.34927 0.954 0.20443 0.0
H2965 H 0.34253 0.93392 0.16186 0.0
C2966 C 0.39279 0.89268 0.03322 0.0
C2967 C 0.38482 0.90131 0.00852 0.0
C2968 C 0.38479 0.89197 0.06188 0.0
C2969 C 0.36871 0.89993 0.06655 0.0
C2970 C 0.36115 0.90954 0.04267 0.0
C2971 C 0.36916 0.9102 0.01371 0.0
C2972 C 0.3594 0.89631 0.09554 0.0
C2973 C 0.3612 0.90783 0.12023 0.0
C2974 C 0.35207 0.87979 0.10057 0.0
C2975 C 0.35005 0.86716 0.0751 0.0
C2976 C 0.34015 0.87139 0.04902 0.0
C2977 C 0.3387 0.85966 0.02466 0.0
C2978 C 0.34702 0.8436 0.0262 0.0
C2979 C 0.35676 0.83923 0.05216 0.0
C2980 C 0.35827 0.85093 0.07656 0.0
C2981 C 0.34102 0.87915 0.24084 0.0
C2982 C 0.35151 0.86472 0.2475 0.0
C2983 C 0.34025 0.88579 0.21081 0.0
C2984 C 0.34996 0.87806 0.18712 0.0
C2985 C 0.35983 0.86325 0.19367 0.0
C2986 C 0.3606 0.85668 0.22344 0.0
C2987 C 0.35098 0.88562 0.15576 0.0
C2988 C 0.34785 0.87469 0.13057 0.0
C2989 C 0.35724 0.90263 0.15041 0.0
C2990 C 0.36132 0.91465 0.17591 0.0
C2991 C 0.37423 0.91054 0.19751 0.0
C2992 C 0.37794 0.92196 0.22158 0.0
C2993 C 0.36892 0.93759 0.22411 0.0
C2994 C 0.35621 0.94186 0.20249 0.0
C2995 C 0.35244 0.93047 0.1784 0.0
H2996 H 0.37181 0.94642 0.24276 0.0
H2997 H 0.34591 0.83455 0.0073 0.0
H2998 H 0.38847 0.12734 0.47881 0.0
H2999 H 0.37565 0.12708 0.42781 0.0
H3000 H 0.3514 0.07796 0.44704 0.0
H3001 H 0.36414 0.07818 0.49908 0.0
H3002 H 0.37025 0.08265 0.38537 0.0
H3003 H 0.32466 0.10642 0.44572 0.0
H3004 H 0.31196 0.12474 0.48632 0.0
H3005 H 0.33021 0.17039 0.44014 0.0
H3006 H 0.34326 0.15234 0.3995 0.0
H3007 H 0.33869 0.10736 0.23479 0.0
H3008 H 0.33628 0.0958 0.28741 0.0
H3009 H 0.35844 0.14303 0.32305 0.0
H3010 H 0.36088 0.15449 0.27116 0.0
H3011 H 0.33151 0.13167 0.35846 0.0
H3012 H 0.38355 0.10803 0.3091 0.0
H3013 H 0.39861 0.09082 0.26945 0.0
H3014 H 0.36943 0.04577 0.2955 0.0
H3015 H 0.35406 0.06281 0.33508 0.0
C3016 C 0.3805 0.11638 0.47234 0.0
C3017 C 0.3773 0.10278 0.49308 0.0
C3018 C 0.37313 0.1163 0.44315 0.0
C3019 C 0.36247 0.1026 0.43384 0.0
C3020 C 0.35956 0.08868 0.45397 0.0
C3021 C 0.36682 0.08884 0.4836 0.0
C3022 C 0.35449 0.10341 0.40294 0.0
C3023 C 0.36128 0.09295 0.3795 0.0
C3024 C 0.34298 0.11701 0.39538 0.0
C3025 C 0.33497 0.128 0.41956 0.0
C3026 C 0.32605 0.12036 0.4443 0.0
C3027 C 0.31878 0.1307 0.46732 0.0
C3028 C 0.32028 0.14872 0.46581 0.0
C3029 C 0.32904 0.15643 0.44125 0.0
C3030 C 0.33635 0.14615 0.41818 0.0
C3031 C 0.34277 0.11533 0.25397 0.0
C3032 C 0.35008 0.13177 0.24889 0.0
C3033 C 0.34144 0.10871 0.28394 0.0
C3034 C 0.34726 0.11854 0.30911 0.0
C3035 C 0.35381 0.13524 0.30402 0.0
C3036 C 0.35529 0.14174 0.27428 0.0
C3037 C 0.34786 0.1114 0.34077 0.0
C3038 C 0.33978 0.1208 0.36436 0.0
C3039 C 0.35827 0.09692 0.34841 0.0
C3040 C 0.3675 0.08672 0.32469 0.0
C3041 C 0.38026 0.09449 0.30617 0.0
C3042 C 0.38886 0.08476 0.28376 0.0
C3043 C 0.38493 0.06723 0.27987 0.0
C3044 C 0.37242 0.05937 0.29847 0.0
C3045 C 0.36376 0.06905 0.32088 0.0
H3046 H 0.39161 0.05972 0.26252 0.0
H3047 H 0.31465 0.1567 0.48367 0.0
H3048 H 0.83436 0.88762 0.23561 0.0
H3049 H 0.83369 0.89933 0.28823 0.0
H3050 H 0.85987 0.85355 0.32115 0.0
H3051 H 0.86041 0.84184 0.2693 0.0
H3052 H 0.83559 0.86334 0.36098 0.0
H3053 H 0.88218 0.89062 0.30248 0.0
H3054 H 0.89393 0.90834 0.2601 0.0
H3055 H 0.86269 0.95141 0.28897 0.0
H3056 H 0.85063 0.93385 0.33135 0.0
H3057 H 0.89906 0.87742 0.47011 0.0
H3058 H 0.88477 0.8761 0.42033 0.0
H3059 H 0.85087 0.9179 0.44669 0.0
H3060 H 0.86503 0.91918 0.49747 0.0
H3061 H 0.8704 0.91636 0.3796 0.0
H3062 H 0.8296 0.88829 0.44731 0.0
H3063 H 0.82172 0.86906 0.49039 0.0
H3064 H 0.84518 0.82594 0.44396 0.0
H3065 H 0.85345 0.84497 0.40081 0.0
C3066 C 0.83964 0.87995 0.25424 0.0
C3067 C 0.84755 0.86388 0.24832 0.0
C3068 C 0.83934 0.88668 0.28421 0.0
C3069 C 0.84688 0.87738 0.30858 0.0
C3070 C 0.85394 0.86096 0.30279 0.0
C3071 C 0.85431 0.85431 0.27303 0.0
C3072 C 0.84875 0.88488 0.33985 0.0
C3073 C 0.84296 0.87509 0.36503 0.0
C3074 C 0.85814 0.90036 0.34523 0.0
C3075 C 0.86534 0.91087 0.31976 0.0
C3076 C 0.87772 0.90382 0.29961 0.0
C3077 C 0.88445 0.91384 0.27564 0.0
C3078 C 0.87901 0.93097 0.27177 0.0
C3079 C 0.86686 0.93813 0.29194 0.0
C3080 C 0.86007 0.92815 0.31593 0.0
C3081 C 0.88868 0.8865 0.46542 0.0
C3082 C 0.88313 0.89837 0.48786 0.0
C3083 C 0.88054 0.88569 0.4369 0.0
C3084 C 0.86676 0.89683 0.43001 0.0
C3085 C 0.86151 0.90921 0.45174 0.0
C3086 C 0.86959 0.9099 0.48065 0.0
C3087 C 0.85763 0.89454 0.40041 0.0
C3088 C 0.86225 0.90514 0.37556 0.0
C3089 C 0.84739 0.87966 0.39523 0.0
C3090 C 0.8422 0.86809 0.42089 0.0
C3091 C 0.83318 0.87473 0.44638 0.0
C3092 C 0.82863 0.86386 0.4708 0.0
C3093 C 0.83296 0.8463 0.46993 0.0
C3094 C 0.84182 0.83955 0.44459 0.0
C3095 C 0.84642 0.85037 0.42012 0.0
H3096 H 0.82944 0.83791 0.48887 0.0
H3097 H 0.88424 0.93871 0.25321 0.0
H3098 H 0.85746 0.08478 0.99174 0.0
H3099 H 0.844 0.08437 0.043 0.0
H3100 H 0.8924 0.10071 0.08329 0.0
H3101 H 0.90576 0.10121 0.03256 0.0
H3102 H 0.87515 0.07776 0.12071 0.0
H3103 H 0.86347 0.13044 0.06112 0.0
H3104 H 0.85154 0.14606 0.01637 0.0
H3105 H 0.801 0.12548 0.03563 0.0
H3106 H 0.81272 0.10956 0.08029 0.0
H3107 H 0.85662 0.15338 0.22099 0.0
H3108 H 0.8559 0.13997 0.17032 0.0
H3109 H 0.8355 0.09299 0.21001 0.0
H3110 H 0.83612 0.10651 0.26125 0.0
H3111 H 0.83178 0.12474 0.13256 0.0
H3112 H 0.85833 0.05979 0.17244 0.0
H3113 H 0.87308 0.04662 0.21711 0.0
H3114 H 0.89746 0.09529 0.23751 0.0
H3115 H 0.88302 0.10865 0.19278 0.0
C3116 C 0.86531 0.08781 0.01168 0.0
C3117 C 0.88259 0.0932 0.0082 0.0
C3118 C 0.85761 0.08762 0.04089 0.0
C3119 C 0.86717 0.09265 0.06691 0.0
C3120 C 0.88478 0.09673 0.06358 0.0
C3121 C 0.89238 0.09711 0.03452 0.0
C3122 C 0.85873 0.09594 0.09699 0.0
C3123 C 0.86532 0.08771 0.12328 0.0
C3124 C 0.84603 0.10903 0.10041 0.0
C3125 C 0.83899 0.11865 0.07373 0.0
C3126 C 0.84984 0.12916 0.05565 0.0
C3127 C 0.84312 0.13808 0.03034 0.0
C3128 C 0.82553 0.13672 0.0231 0.0
C3129 C 0.81462 0.12648 0.04121 0.0
C3130 C 0.8213 0.11751 0.06652 0.0
C3131 C 0.85165 0.14031 0.21891 0.0
C3132 C 0.84657 0.13093 0.24508 0.0
C3133 C 0.85114 0.13269 0.18988 0.0
C3134 C 0.84576 0.11545 0.1864 0.0
C3135 C 0.83974 0.1063 0.21224 0.0
C3136 C 0.84005 0.11404 0.24143 0.0
C3137 C 0.84849 0.10684 0.15629 0.0
C3138 C 0.84091 0.11416 0.12999 0.0
C3139 C 0.86052 0.09313 0.15288 0.0
C3140 C 0.86941 0.08523 0.17959 0.0
C3141 C 0.86686 0.06765 0.18647 0.0
C3142 C 0.87517 0.06016 0.21177 0.0
C3143 C 0.88614 0.07014 0.23021 0.0
C3144 C 0.8889 0.0876 0.2233 0.0
C3145 C 0.88065 0.09513 0.198 0.0
H3146 H 0.89255 0.06432 0.2498 0.0
H3147 H 0.82034 0.14364 0.0035 0.0
H3148 H 0.63638 0.1514 0.77174 0.0
H3149 H 0.6397 0.1403 0.8237 0.0
H3150 H 0.6658 0.09502 0.78859 0.0
H3151 H 0.66259 0.10627 0.73581 0.0
H3152 H 0.63844 0.08762 0.83055 0.0
H3153 H 0.68956 0.12102 0.82935 0.0
H3154 H 0.70826 0.14614 0.81827 0.0
H3155 H 0.67701 0.17804 0.87713 0.0
H3156 H 0.65795 0.15321 0.88822 0.0
H3157 H 0.63548 0.07706 0.99944 0.0
H3158 H 0.64816 0.07697 0.94735 0.0
H3159 H 0.62491 0.12675 0.92943 0.0
H3160 H 0.61216 0.12687 0.98045 0.0
H3161 H 0.6611 0.12445 0.91495 0.0
H3162 H 0.60621 0.09276 0.90167 0.0
H3163 H 0.58679 0.06803 0.91172 0.0
H3164 H 0.62596 0.03282 0.8799 0.0
H3165 H 0.6457 0.05738 0.87004 0.0
C3166 C 0.64301 0.13917 0.77497 0.0
C3167 C 0.64922 0.12969 0.7497 0.0
C3168 C 0.64498 0.13287 0.80474 0.0
C3169 C 0.65313 0.11691 0.81004 0.0
C3170 C 0.65956 0.10742 0.78495 0.0
C3171 C 0.65779 0.11388 0.75492 0.0
C3172 C 0.65372 0.11011 0.84189 0.0
C3173 C 0.64391 0.09532 0.84903 0.0
C3174 C 0.66083 0.12016 0.86598 0.0
C3175 C 0.6723 0.1352 0.85961 0.0
C3176 C 0.68661 0.13341 0.83982 0.0
C3177 C 0.69729 0.14761 0.83354 0.0
C3178 C 0.69383 0.16367 0.84699 0.0
C3179 C 0.67969 0.16558 0.86677 0.0
C3180 C 0.66897 0.15143 0.87311 0.0
C3181 C 0.63304 0.08791 0.98425 0.0
C3182 C 0.62281 0.10196 0.99406 0.0
C3183 C 0.6403 0.08785 0.95462 0.0
C3184 C 0.63756 0.10193 0.93474 0.0
C3185 C 0.6273 0.11583 0.94453 0.0
C3186 C 0.61993 0.11581 0.97371 0.0
C3187 C 0.64505 0.10262 0.90342 0.0
C3188 C 0.65635 0.1163 0.89647 0.0
C3189 C 0.63935 0.09154 0.87959 0.0
C3190 C 0.6275 0.07685 0.88557 0.0
C3191 C 0.61074 0.07973 0.89712 0.0
C3192 C 0.59966 0.06575 0.90271 0.0
C3193 C 0.60516 0.04886 0.89657 0.0
C3194 C 0.62174 0.04591 0.88474 0.0
C3195 C 0.63287 0.05985 0.87914 0.0
H3196 H 0.59657 0.03805 0.90089 0.0
H3197 H 0.70211 0.17465 0.84209 0.0
H3198 H 0.59981 0.90166 0.5305 0.0
H3199 H 0.61438 0.90382 0.58004 0.0
H3200 H 0.66247 0.91586 0.53423 0.0
H3201 H 0.64775 0.91389 0.48415 0.0
H3202 H 0.6653 0.88819 0.57327 0.0
H3203 H 0.64622 0.9458 0.58109 0.0
H3204 H 0.62614 0.97052 0.57713 0.0
H3205 H 0.59286 0.94732 0.64468 0.0
H3206 H 0.61259 0.92232 0.64874 0.0
H3207 H 0.66771 0.89602 0.75557 0.0
H3208 H 0.67029 0.90973 0.70468 0.0
H3209 H 0.6484 0.86409 0.66264 0.0
H3210 H 0.64577 0.85049 0.71289 0.0
H3211 H 0.64305 0.91737 0.66695 0.0
H3212 H 0.6641 0.85764 0.59323 0.0
H3213 H 0.68449 0.83318 0.59727 0.0
H3214 H 0.7156 0.86204 0.6611 0.0
H3215 H 0.69555 0.88679 0.65713 0.0
C3216 C 0.61339 0.90521 0.53097 0.0
C3217 C 0.62268 0.90755 0.50352 0.0
C3218 C 0.62169 0.90654 0.55932 0.0
C3219 C 0.6395 0.9101 0.56086 0.0
C3220 C 0.64869 0.91322 0.53353 0.0
C3221 C 0.64028 0.91216 0.505 0.0
C3222 C 0.64853 0.90817 0.59078 0.0
C3223 C 0.66071 0.89479 0.59374 0.0
C3224 C 0.64288 0.91711 0.61736 0.0
C3225 C 0.63092 0.93215 0.61519 0.0
C3226 C 0.63458 0.94591 0.59499 0.0
C3227 C 0.62325 0.95998 0.59274 0.0
C3228 C 0.60823 0.96049 0.61064 0.0
C3229 C 0.60452 0.94693 0.63086 0.0
C3230 C 0.61579 0.93281 0.6332 0.0
C3231 C 0.66383 0.88882 0.73534 0.0
C3232 C 0.65648 0.87222 0.73816 0.0
C3233 C 0.66525 0.89667 0.70636 0.0
C3234 C 0.65968 0.88788 0.67984 0.0
C3235 C 0.65306 0.87103 0.68266 0.0
C3236 C 0.65145 0.8633 0.71147 0.0
C3237 C 0.65888 0.89662 0.64948 0.0
C3238 C 0.64816 0.91121 0.64645 0.0
C3239 C 0.66598 0.88886 0.62281 0.0
C3240 C 0.67827 0.8741 0.62489 0.0
C3241 C 0.67536 0.85885 0.60793 0.0
C3242 C 0.68685 0.8449 0.61027 0.0
C3243 C 0.70132 0.84605 0.62944 0.0
C3244 C 0.70436 0.86115 0.6463 0.0
C3245 C 0.69292 0.87514 0.64404 0.0
H3246 H 0.71019 0.83523 0.63124 0.0
H3247 H 0.59948 0.9714 0.60885 0.0
H3248 H 0.6327 0.58385 0.99376 0.0
H3249 H 0.6461 0.58445 0.04523 0.0
H3250 H 0.61807 0.63126 0.06637 0.0
H3251 H 0.60455 0.63065 0.01595 0.0
H3252 H 0.65543 0.63231 0.07678 0.0
H3253 H 0.6038 0.59638 0.09545 0.0
H3254 H 0.58612 0.57016 0.08727 0.0
H3255 H 0.6289 0.53823 0.11507 0.0
H3256 H 0.6469 0.56429 0.12303 0.0
H3257 H 0.63796 0.65744 0.22468 0.0
H3258 H 0.63914 0.64725 0.17191 0.0
H3259 H 0.66628 0.60126 0.20125 0.0
H3260 H 0.66501 0.61147 0.25487 0.0
H3261 H 0.63904 0.59364 0.16313 0.0
H3262 H 0.68782 0.63012 0.15785 0.0
H3263 H 0.7056 0.65618 0.16662 0.0
H3264 H 0.67001 0.68654 0.11321 0.0
H3265 H 0.65186 0.66074 0.10449 0.0
C3266 C 0.6293 0.59414 0.00956 0.0
C3267 C 0.61757 0.60721 0.00075 0.0
C3268 C 0.63698 0.59448 0.03884 0.0
C3269 C 0.63316 0.60799 0.05938 0.0
C3270 C 0.62128 0.62081 0.05073 0.0
C3271 C 0.61349 0.62036 0.02189 0.0
C3272 C 0.64149 0.60935 0.08994 0.0
C3273 C 0.652 0.62381 0.09569 0.0
C3274 C 0.63758 0.59783 0.11421 0.0
C3275 C 0.62676 0.58223 0.10938 0.0
C3276 C 0.60948 0.58375 0.0995 0.0
C3277 C 0.59939 0.56893 0.09498 0.0
C3278 C 0.6064 0.55253 0.10052 0.0
C3279 C 0.6235 0.55093 0.1107 0.0
C3280 C 0.63365 0.56572 0.11522 0.0
C3281 C 0.6444 0.64526 0.22 0.0
C3282 C 0.65138 0.63525 0.24397 0.0
C3283 C 0.64517 0.63948 0.18971 0.0
C3284 C 0.65299 0.62358 0.18253 0.0
C3285 C 0.66029 0.61362 0.20628 0.0
C3286 C 0.65962 0.6195 0.23682 0.0
C3287 C 0.65221 0.6172 0.15034 0.0
C3288 C 0.64311 0.60182 0.14418 0.0
C3289 C 0.65755 0.62782 0.12556 0.0
C3290 C 0.66845 0.64345 0.13055 0.0
C3291 C 0.68372 0.64237 0.1481 0.0
C3292 C 0.69388 0.6571 0.15306 0.0
C3293 C 0.68893 0.67301 0.14049 0.0
C3294 C 0.67383 0.67421 0.1229 0.0
C3295 C 0.66363 0.65951 0.11789 0.0
H3296 H 0.69681 0.6844 0.14436 0.0
H3297 H 0.59857 0.54107 0.09703 0.0
H3298 H 0.63452 0.4222 0.50296 0.0
H3299 H 0.64887 0.42287 0.45224 0.0
H3300 H 0.62926 0.37173 0.43283 0.0
H3301 H 0.61477 0.37108 0.48238 0.0
H3302 H 0.66663 0.37727 0.42225 0.0
H3303 H 0.60874 0.40266 0.40296 0.0
H3304 H 0.58675 0.42547 0.41051 0.0
H3305 H 0.62316 0.46405 0.38075 0.0
H3306 H 0.64543 0.44145 0.3734 0.0
H3307 H 0.64601 0.34456 0.28117 0.0
H3308 H 0.6492 0.35682 0.33232 0.0
H3309 H 0.66842 0.40444 0.29315 0.0
H3310 H 0.66529 0.39203 0.24123 0.0
H3311 H 0.64154 0.40968 0.33436 0.0
H3312 H 0.69567 0.38202 0.33696 0.0
H3313 H 0.71731 0.35904 0.32848 0.0
H3314 H 0.68953 0.3253 0.38955 0.0
H3315 H 0.66756 0.34796 0.39805 0.0
C3316 C 0.63325 0.41117 0.48773 0.0
C3317 C 0.62346 0.39662 0.4966 0.0
C3318 C 0.64147 0.41156 0.45891 0.0
C3319 C 0.64021 0.39728 0.43903 0.0
C3320 C 0.63049 0.38282 0.44797 0.0
C3321 C 0.6221 0.38254 0.47627 0.0
C3322 C 0.64856 0.39699 0.40842 0.0
C3323 C 0.66137 0.38449 0.40298 0.0
C3324 C 0.64216 0.40693 0.38363 0.0
C3325 C 0.62879 0.42044 0.38809 0.0
C3326 C 0.61209 0.41603 0.39834 0.0
C3327 C 0.59957 0.42891 0.40251 0.0
C3328 C 0.60358 0.44621 0.39624 0.0
C3329 C 0.62009 0.45066 0.38569 0.0
C3330 C 0.63266 0.43782 0.38152 0.0
C3331 C 0.65122 0.35753 0.28337 0.0
C3332 C 0.65537 0.36736 0.25723 0.0
C3333 C 0.65315 0.3645 0.31268 0.0
C3334 C 0.65921 0.38149 0.31661 0.0
C3335 C 0.66384 0.39126 0.2906 0.0
C3336 C 0.66212 0.38415 0.26105 0.0
C3337 C 0.65889 0.38915 0.34789 0.0
C3338 C 0.64753 0.403 0.35357 0.0
C3339 C 0.66673 0.3805 0.37298 0.0
C3340 C 0.67994 0.36675 0.36815 0.0
C3341 C 0.69411 0.36968 0.34847 0.0
C3342 C 0.70645 0.3567 0.34367 0.0
C3343 C 0.7048 0.34072 0.35848 0.0
C3344 C 0.69081 0.3377 0.37814 0.0
C3345 C 0.67843 0.35063 0.38302 0.0
H3346 H 0.71436 0.33069 0.35472 0.0
H3347 H 0.59386 0.45616 0.39946 0.0
H3348 H 0.82974 0.38338 0.75768 0.0
H3349 H 0.83034 0.39699 0.70637 0.0
H3350 H 0.8746 0.3658 0.68208 0.0
H3351 H 0.87395 0.35206 0.73231 0.0
H3352 H 0.8777 0.4041 0.67433 0.0
H3353 H 0.83977 0.35397 0.65352 0.0
H3354 H 0.81278 0.33739 0.66106 0.0
H3355 H 0.78281 0.38187 0.63483 0.0
H3356 H 0.80965 0.39878 0.62754 0.0
H3357 H 0.90304 0.38587 0.5273 0.0
H3358 H 0.8923 0.3873 0.57969 0.0
H3359 H 0.84818 0.41703 0.54927 0.0
H3360 H 0.85897 0.41556 0.496 0.0
H3361 H 0.83885 0.38978 0.58706 0.0
H3362 H 0.87722 0.437 0.59366 0.0
H3363 H 0.90402 0.45376 0.5856 0.0
H3364 H 0.93263 0.41679 0.63912 0.0
H3365 H 0.90607 0.39965 0.64713 0.0
C3366 C 0.83943 0.37929 0.74119 0.0
C3367 C 0.85183 0.36668 0.74912 0.0
C3368 C 0.83977 0.38709 0.71201 0.0
C3369 C 0.85262 0.38247 0.69069 0.0
C3370 C 0.86467 0.36962 0.69835 0.0
C3371 C 0.86421 0.36172 0.7271 0.0
C3372 C 0.8543 0.39114 0.6605 0.0
C3373 C 0.86915 0.40115 0.65522 0.0
C3374 C 0.84273 0.38787 0.63602 0.0
C3375 C 0.82667 0.3777 0.64045 0.0
C3376 C 0.82741 0.36026 0.6497 0.0
C3377 C 0.81215 0.35079 0.65384 0.0
C3378 C 0.79608 0.35859 0.64855 0.0
C3379 C 0.79525 0.37586 0.63901 0.0
C3380 C 0.81048 0.38539 0.63487 0.0
C3381 C 0.89115 0.39291 0.53166 0.0
C3382 C 0.88184 0.4006 0.50749 0.0
C3383 C 0.88506 0.39381 0.56173 0.0
C3384 C 0.86954 0.40245 0.5685 0.0
C3385 C 0.86025 0.41039 0.54455 0.0
C3386 C 0.86646 0.40961 0.51422 0.0
C3387 C 0.86285 0.40192 0.60049 0.0
C3388 C 0.84708 0.39342 0.60622 0.0
C3389 C 0.87353 0.40673 0.62553 0.0
C3390 C 0.88961 0.41702 0.62098 0.0
C3391 C 0.88924 0.43238 0.60359 0.0
C3392 C 0.90439 0.44196 0.59903 0.0
C3393 C 0.92001 0.43634 0.61184 0.0
C3394 C 0.92051 0.42114 0.62925 0.0
C3395 C 0.90539 0.41151 0.63387 0.0
H3396 H 0.93173 0.44377 0.60828 0.0
H3397 H 0.78428 0.35124 0.65175 0.0
H3398 H 0.90244 0.59962 0.96664 0.0
H3399 H 0.88815 0.59977 0.9167 0.0
H3400 H 0.83978 0.58579 0.95979 0.0
H3401 H 0.85418 0.58553 0.01025 0.0
H3402 H 0.86894 0.57796 0.88012 0.0
H3403 H 0.80935 0.61289 0.92509 0.0
H3404 H 0.79947 0.62904 0.9709 0.0
H3405 H 0.85138 0.64689 0.98695 0.0
H3406 H 0.86149 0.631 0.94107 0.0
H3407 H 0.83129 0.61068 0.74178 0.0
H3408 H 0.8297 0.59665 0.79249 0.0
H3409 H 0.85275 0.64188 0.83402 0.0
H3410 H 0.85436 0.65581 0.7839 0.0
H3411 H 0.82841 0.62764 0.87168 0.0
H3412 H 0.878 0.60907 0.80926 0.0
H3413 H 0.89117 0.59542 0.76357 0.0
H3414 H 0.86374 0.54821 0.78255 0.0
H3415 H 0.85026 0.56169 0.82817 0.0
C3416 C 0.88886 0.59613 0.96543 0.0
C3417 C 0.87937 0.59272 0.9923 0.0
C3418 C 0.88072 0.59613 0.93684 0.0
C3419 C 0.86288 0.59295 0.93456 0.0
C3420 C 0.85356 0.58833 0.9611 0.0
C3421 C 0.8618 0.58813 0.98984 0.0
C3422 C 0.85404 0.59688 0.9051 0.0
C3423 C 0.8597 0.5885 0.87829 0.0
C3424 C 0.84213 0.61076 0.90268 0.0
C3425 C 0.83618 0.62058 0.92997 0.0
C3426 C 0.81862 0.62029 0.9384 0.0
C3427 C 0.81299 0.62939 0.96435 0.0
C3428 C 0.8248 0.63891 0.9819 0.0
C3429 C 0.84226 0.63945 0.97342 0.0
C3430 C 0.84794 0.63039 0.94747 0.0
C3431 C 0.83558 0.61776 0.7619 0.0
C3432 C 0.84313 0.63425 0.75891 0.0
C3433 C 0.8347 0.60973 0.79079 0.0
C3434 C 0.84124 0.61818 0.81698 0.0
C3435 C 0.84758 0.63513 0.81419 0.0
C3436 C 0.84861 0.64304 0.78546 0.0
C3437 C 0.84366 0.60899 0.84664 0.0
C3438 C 0.83689 0.61647 0.87351 0.0
C3439 C 0.85485 0.59452 0.8491 0.0
C3440 C 0.86297 0.58643 0.8218 0.0
C3441 C 0.8747 0.59582 0.80353 0.0
C3442 C 0.88222 0.58812 0.77768 0.0
C3443 C 0.87825 0.57098 0.77009 0.0
C3444 C 0.86677 0.5615 0.7884 0.0
C3445 C 0.85918 0.56916 0.81424 0.0
H3446 H 0.88409 0.56503 0.75008 0.0
H3447 H 0.82043 0.64588 0.00205 0.0
H3448 H 0.33501 0.38811 0.74419 0.0
H3449 H 0.3333 0.39944 0.79704 0.0
H3450 H 0.36913 0.36 0.82705 0.0
H3451 H 0.37075 0.34867 0.77508 0.0
H3452 H 0.34326 0.36358 0.8674 0.0
H3453 H 0.38246 0.40136 0.80949 0.0
H3454 H 0.38932 0.42212 0.7681 0.0
H3455 H 0.35017 0.45679 0.80184 0.0
H3456 H 0.34297 0.4361 0.84324 0.0
H3457 H 0.40314 0.38572 0.97617 0.0
H3458 H 0.38989 0.3851 0.92545 0.0
H3459 H 0.34791 0.41699 0.95804 0.0
H3460 H 0.3611 0.41757 0.00965 0.0
H3461 H 0.36693 0.42208 0.88925 0.0
H3462 H 0.33272 0.38456 0.95504 0.0
H3463 H 0.32963 0.36326 0.99698 0.0
H3464 H 0.36201 0.32747 0.94787 0.0
H3465 H 0.36552 0.34868 0.90588 0.0
C3466 C 0.34233 0.38178 0.76221 0.0
C3467 C 0.35308 0.36756 0.75545 0.0
C3468 C 0.34139 0.38829 0.79231 0.0
C3469 C 0.35115 0.3806 0.81596 0.0
C3470 C 0.36142 0.3661 0.80926 0.0
C3471 C 0.3624 0.35968 0.77941 0.0
C3472 C 0.35162 0.38777 0.84762 0.0
C3473 C 0.34813 0.37649 0.87216 0.0
C3474 C 0.35768 0.40473 0.85396 0.0
C3475 C 0.36202 0.41711 0.82914 0.0
C3476 C 0.37523 0.41335 0.8079 0.0
C3477 C 0.3792 0.42511 0.78449 0.0
C3478 C 0.37014 0.44073 0.78227 0.0
C3479 C 0.35714 0.44466 0.80353 0.0
C3480 C 0.35311 0.43293 0.82697 0.0
C3481 C 0.39124 0.39288 0.9726 0.0
C3482 C 0.38306 0.40154 0.99705 0.0
C3483 C 0.38373 0.39255 0.94353 0.0
C3484 C 0.36791 0.4009 0.93818 0.0
C3485 C 0.36016 0.41051 0.96186 0.0
C3486 C 0.3677 0.41081 0.99124 0.0
C3487 C 0.35903 0.39768 0.90863 0.0
C3488 C 0.36115 0.40955 0.88453 0.0
C3489 C 0.35184 0.3812 0.90255 0.0
C3490 C 0.34943 0.36824 0.9274 0.0
C3491 C 0.33926 0.37218 0.95328 0.0
C3492 C 0.33743 0.36012 0.97705 0.0
C3493 C 0.34563 0.34403 0.97511 0.0
C3494 C 0.35565 0.33994 0.94934 0.0
C3495 C 0.35754 0.35196 0.92553 0.0
H3496 H 0.34422 0.33472 0.99355 0.0
H3497 H 0.37323 0.44983 0.76413 0.0
H3498 H 0.33759 0.65838 0.72521 0.0
H3499 H 0.33723 0.64759 0.67242 0.0
H3500 H 0.34591 0.59562 0.70589 0.0
H3501 H 0.34502 0.60636 0.75886 0.0
H3502 H 0.3635 0.63669 0.64685 0.0
H3503 H 0.33859 0.56525 0.65109 0.0
H3504 H 0.3152 0.54848 0.67572 0.0
H3505 H 0.28484 0.59477 0.68542 0.0
H3506 H 0.30793 0.61178 0.66047 0.0
H3507 H 0.40505 0.5946 0.53162 0.0
H3508 H 0.39188 0.59718 0.58244 0.0
H3509 H 0.34104 0.59669 0.54122 0.0
H3510 H 0.35428 0.5933 0.49015 0.0
H3511 H 0.34049 0.58276 0.60009 0.0
H3512 H 0.35994 0.63447 0.5509 0.0
H3513 H 0.38066 0.65303 0.523 0.0
H3514 H 0.41607 0.65023 0.59902 0.0
H3515 H 0.39566 0.63142 0.62718 0.0
C3516 C 0.33872 0.64456 0.72123 0.0
C3517 C 0.34129 0.63316 0.7459 0.0
C3518 C 0.33863 0.6384 0.69108 0.0
C3519 C 0.3417 0.62077 0.68493 0.0
C3520 C 0.34321 0.6092 0.70982 0.0
C3521 C 0.34275 0.61534 0.74013 0.0
C3522 C 0.34596 0.61517 0.65301 0.0
C3523 C 0.35825 0.62497 0.63672 0.0
C3524 C 0.3391 0.59997 0.6393 0.0
C3525 C 0.32508 0.58982 0.65413 0.0
C3526 C 0.3269 0.57184 0.65835 0.0
C3527 C 0.31369 0.5623 0.6724 0.0
C3528 C 0.29857 0.57057 0.68221 0.0
C3529 C 0.29659 0.5884 0.67792 0.0
C3530 C 0.30975 0.598 0.66387 0.0
C3531 C 0.39106 0.59441 0.53351 0.0
C3532 C 0.38066 0.59392 0.50708 0.0
C3533 C 0.38354 0.59593 0.56252 0.0
C3534 C 0.3655 0.5976 0.56551 0.0
C3535 C 0.35498 0.5955 0.5394 0.0
C3536 C 0.36254 0.59356 0.51027 0.0
C3537 C 0.35814 0.60414 0.59483 0.0
C3538 C 0.34544 0.59455 0.61045 0.0
C3539 C 0.36411 0.61989 0.60767 0.0
C3540 C 0.37632 0.63144 0.59104 0.0
C3541 C 0.37218 0.63774 0.56159 0.0
C3542 C 0.38387 0.64831 0.54574 0.0
C3543 C 0.39968 0.65278 0.55921 0.0
C3544 C 0.40382 0.64674 0.58861 0.0
C3545 C 0.39219 0.63614 0.60454 0.0
H3546 H 0.40872 0.66096 0.5469 0.0
H3547 H 0.28836 0.56315 0.69309 0.0
H3548 H 0.0935 0.61155 0.47627 0.0
H3549 H 0.10459 0.6085 0.42429 0.0
H3550 H 0.14987 0.5822 0.459 0.0
H3551 H 0.13869 0.58527 0.51181 0.0
H3552 H 0.15797 0.60885 0.41855 0.0
H3553 H 0.12269 0.55915 0.41616 0.0
H3554 H 0.0969 0.54108 0.42548 0.0
H3555 H 0.06655 0.57434 0.36751 0.0
H3556 H 0.09208 0.59278 0.35819 0.0
H3557 H 0.16953 0.6136 0.24961 0.0
H3558 H 0.16879 0.60022 0.30113 0.0
H3559 H 0.12055 0.62626 0.32009 0.0
H3560 H 0.12128 0.63974 0.26967 0.0
H3561 H 0.12089 0.58926 0.3321 0.0
H3562 H 0.15493 0.64249 0.34917 0.0
H3563 H 0.18065 0.66083 0.34064 0.0
H3564 H 0.21369 0.61945 0.37092 0.0
H3565 H 0.18813 0.60079 0.37925 0.0
C3566 C 0.10571 0.60489 0.47294 0.0
C3567 C 0.11524 0.59867 0.49813 0.0
C3568 C 0.112 0.60306 0.44313 0.0
C3569 C 0.12798 0.59495 0.43769 0.0
C3570 C 0.13746 0.5884 0.46271 0.0
C3571 C 0.13103 0.59009 0.49277 0.0
C3572 C 0.13494 0.59474 0.40589 0.0
C3573 C 0.15018 0.60405 0.39962 0.0
C3574 C 0.12481 0.58846 0.38117 0.0
C3575 C 0.10935 0.57737 0.38648 0.0
C3576 C 0.1105 0.56267 0.40551 0.0
C3577 C 0.09592 0.55235 0.41079 0.0
C3578 C 0.0801 0.55656 0.39709 0.0
C3579 C 0.07883 0.57108 0.37806 0.0
C3580 C 0.09337 0.58146 0.37271 0.0
C3581 C 0.15886 0.61652 0.26493 0.0
C3582 C 0.14547 0.62774 0.25557 0.0
C3583 C 0.15844 0.60886 0.29422 0.0
C3584 C 0.14453 0.61217 0.3142 0.0
C3585 C 0.13131 0.62344 0.3049 0.0
C3586 C 0.13183 0.63122 0.27607 0.0
C3587 C 0.14327 0.60417 0.34505 0.0
C3588 C 0.12908 0.59334 0.35104 0.0
C3589 C 0.15439 0.60896 0.36942 0.0
C3590 C 0.16968 0.62018 0.36439 0.0
C3591 C 0.1677 0.63725 0.3537 0.0
C3592 C 0.18223 0.64772 0.34898 0.0
C3593 C 0.1988 0.64129 0.35511 0.0
C3594 C 0.20086 0.62439 0.36609 0.0
C3595 C 0.18635 0.61387 0.37082 0.0
H3596 H 0.21004 0.64941 0.35145 0.0
H3597 H 0.06882 0.54855 0.40121 0.0
H3598 H 0.13437 0.34787 0.22389 0.0
H3599 H 0.1368 0.35826 0.17139 0.0
H3600 H 0.16743 0.40164 0.20227 0.0
H3601 H 0.16498 0.3912 0.25566 0.0
H3602 H 0.14061 0.41133 0.1629 0.0
H3603 H 0.18733 0.37209 0.1597 0.0
H3604 H 0.20337 0.34503 0.16945 0.0
H3605 H 0.16666 0.31668 0.11495 0.0
H3606 H 0.15024 0.34351 0.10523 0.0
H3607 H 0.13517 0.41999 0.99286 0.0
H3608 H 0.14865 0.41936 0.04429 0.0
H3609 H 0.11834 0.37429 0.06741 0.0
H3610 H 0.10477 0.37494 0.01707 0.0
H3611 H 0.15574 0.37154 0.07743 0.0
H3612 H 0.10574 0.41005 0.09503 0.0
H3613 H 0.08942 0.43706 0.08609 0.0
H3614 H 0.13374 0.467 0.11326 0.0
H3615 H 0.15039 0.44013 0.12198 0.0
C3616 C 0.1418 0.35953 0.21963 0.0
C3617 C 0.14948 0.36872 0.24394 0.0
C3618 C 0.14327 0.3654 0.1895 0.0
C3619 C 0.15248 0.38061 0.18283 0.0
C3620 C 0.16037 0.38981 0.20694 0.0
C3621 C 0.15902 0.3838 0.23733 0.0
C3622 C 0.15263 0.38707 0.1507 0.0
C3623 C 0.14445 0.4029 0.14414 0.0
C3624 C 0.15766 0.3761 0.1262 0.0
C3625 C 0.16754 0.35986 0.13174 0.0
C3626 C 0.18262 0.36008 0.1499 0.0
C3627 C 0.19179 0.34477 0.15542 0.0
C3628 C 0.18604 0.32915 0.14282 0.0
C3629 C 0.17112 0.3288 0.12465 0.0
C3630 C 0.1619 0.34407 0.11907 0.0
C3631 C 0.1313 0.41008 0.00909 0.0
C3632 C 0.11893 0.3975 0.00085 0.0
C3633 C 0.13902 0.40972 0.03834 0.0
C3634 C 0.13457 0.39667 0.05942 0.0
C3635 C 0.12204 0.38437 0.05134 0.0
C3636 C 0.11423 0.38484 0.02254 0.0
C3637 C 0.14287 0.39522 0.08997 0.0
C3638 C 0.15263 0.3803 0.09614 0.0
C3639 C 0.13939 0.40705 0.11398 0.0
C3640 C 0.12937 0.42312 0.1087 0.0
C3641 C 0.11205 0.4224 0.09878 0.0
C3642 C 0.10273 0.43768 0.09383 0.0
C3643 C 0.11056 0.45374 0.09898 0.0
C3644 C 0.12771 0.45456 0.10919 0.0
C3645 C 0.13709 0.43931 0.11414 0.0
H3646 H 0.10332 0.46556 0.09516 0.0
H3647 H 0.19315 0.31731 0.14713 0.0
loop_
_geom_bond_atom_site_label_1
_geom_bond_atom_site_label_2
_geom_bond_distance
_geom_bond_site_symmetry_2
_ccdc_geom_bond_type
O0 Cd1 2.223 . S
O0 C8 1.315 . S
Cd1 O0 2.223 . S
Cd1 O4 2.297 . S
Cd1 O5 2.439 . S
Cd1 O11 2.240 . S
Cd2 O3 2.240 . S
Cd2 O10 2.223 . S
Cd2 O12 2.297 . S
Cd2 O13 2.439 . S
O3 Cd2 2.240 . S
O3 C8 1.279 . S
O4 Cd1 2.297 . S
O4 C6 1.247 . S
O5 Cd1 2.439 . S
O5 C6 1.208 . S
C6 O4 1.247 . S
C6 O5 1.208 . S
C7 O12 1.247 . S
C7 O13 1.208 . S
C8 O0 1.315 . S
C8 O3 1.279 . S
C9 O10 1.315 . S
C9 O11 1.279 . S
O10 Cd2 2.223 . S
O10 C9 1.315 . S
O11 Cd1 2.240 . S
O11 C9 1.279 . S
O12 Cd2 2.297 . S
O12 C7 1.247 . S
O13 Cd2 2.439 . S
O13 C7 1.208 . S
O14 Cd15 2.223 . S
O14 C22 1.315 . S
Cd15 O14 2.223 . S
Cd15 O18 2.297 . S
Cd15 O19 2.439 . S
Cd15 O25 2.240 . S
Cd16 O17 2.240 . S
Cd16 O24 2.223 . S
Cd16 O26 2.297 . S
Cd16 O27 2.439 . S
O17 Cd16 2.240 . S
O17 C22 1.279 . S
O18 Cd15 2.297 . S
O18 C20 1.247 . S
O19 Cd15 2.439 . S
O19 C20 1.208 . S
C20 O18 1.247 . S
C20 O19 1.208 . S
C21 O26 1.247 . S
C21 O27 1.208 . S
C22 O14 1.315 . S
C22 O17 1.279 . S
C23 O24 1.315 . S
C23 O25 1.279 . S
O24 Cd16 2.223 . S
O24 C23 1.315 . S
O25 Cd15 2.240 . S
O25 C23 1.279 . S
O26 Cd16 2.297 . S
O26 C21 1.247 . S
O27 Cd16 2.439 . S
O27 C21 1.208 . S
O28 Cd29 2.223 . S
O28 C36 1.315 . S
Cd29 O28 2.223 . S
Cd29 O32 2.297 . S
Cd29 O33 2.439 . S
Cd29 O39 2.240 . S
Cd30 O31 2.240 . S
Cd30 O38 2.223 . S
Cd30 O40 2.297 . S
Cd30 O41 2.439 . S
O31 Cd30 2.240 . S
O31 C36 1.279 . S
O32 Cd29 2.297 . S
O32 C34 1.247 . S
O33 Cd29 2.439 . S
O33 C34 1.208 . S
C34 O32 1.247 . S
C34 O33 1.208 . S
C35 O40 1.247 . S
C35 O41 1.208 . S
C36 O28 1.315 . S
C36 O31 1.279 . S
C37 O38 1.315 . S
C37 O39 1.279 . S
O38 Cd30 2.223 . S
O38 C37 1.315 . S
O39 Cd29 2.240 . S
O39 C37 1.279 . S
O40 Cd30 2.297 . S
O40 C35 1.247 . S
O41 Cd30 2.439 . S
O41 C35 1.208 . S
O42 Cd43 2.223 . S
O42 C50 1.315 . S
Cd43 O42 2.223 . S
Cd43 O46 2.297 . S
Cd43 O47 2.439 . S
Cd43 O53 2.240 . S
Cd44 O45 2.240 . S
Cd44 O52 2.223 . S
Cd44 O54 2.297 . S
Cd44 O55 2.439 . S
O45 Cd44 2.240 . S
O45 C50 1.279 . S
O46 Cd43 2.297 . S
O46 C48 1.247 . S
O47 Cd43 2.439 . S
O47 C48 1.208 . S
C48 O46 1.247 . S
C48 O47 1.208 . S
C49 O54 1.247 . S
C49 O55 1.208 . S
C50 O42 1.315 . S
C50 O45 1.279 . S
C51 O52 1.315 . S
C51 O53 1.279 . S
O52 Cd44 2.223 . S
O52 C51 1.315 . S
O53 Cd43 2.240 . S
O53 C51 1.279 . S
O54 Cd44 2.297 . S
O54 C49 1.247 . S
O55 Cd44 2.439 . S
O55 C49 1.208 . S
O56 Cd57 2.223 . S
O56 C64 1.315 . S
Cd57 O56 2.223 . S
Cd57 O60 2.297 . S
Cd57 O61 2.439 . S
Cd57 O67 2.240 . S
Cd58 O59 2.240 . S
Cd58 O66 2.223 . S
Cd58 O68 2.297 . S
Cd58 O69 2.439 . S
O59 Cd58 2.240 . S
O59 C64 1.279 . S
O60 Cd57 2.297 . S
O60 C62 1.247 . S
O61 Cd57 2.439 . S
O61 C62 1.208 . S
C62 O60 1.247 . S
C62 O61 1.208 . S
C63 O68 1.247 . S
C63 O69 1.208 . S
C64 O56 1.315 . S
C64 O59 1.279 . S
C65 O66 1.315 . S
C65 O67 1.279 . S
O66 Cd58 2.223 . S
O66 C65 1.315 . S
O67 Cd57 2.240 . S
O67 C65 1.279 . S
O68 Cd58 2.297 . S
O68 C63 1.247 . S
O69 Cd58 2.439 . S
O69 C63 1.208 . S
O70 Cd71 2.223 . S
O70 C78 1.315 . S
Cd71 O70 2.223 . S
Cd71 O74 2.297 . S
Cd71 O75 2.439 . S
Cd71 O81 2.240 . S
Cd72 O73 2.240 . S
Cd72 O80 2.223 . S
Cd72 O82 2.297 . S
Cd72 O83 2.439 . S
O73 Cd72 2.240 . S
O73 C78 1.279 . S
O74 Cd71 2.297 . S
O74 C76 1.247 . S
O75 Cd71 2.439 . S
O75 C76 1.208 . S
C76 O74 1.247 . S
C76 O75 1.208 . S
C77 O82 1.247 . S
C77 O83 1.208 . S
C78 O70 1.315 . S
C78 O73 1.279 . S
C79 O80 1.315 . S
C79 O81 1.279 . S
O80 Cd72 2.223 . S
O80 C79 1.315 . S
O81 Cd71 2.240 . S
O81 C79 1.279 . S
O82 Cd72 2.297 . S
O82 C77 1.247 . S
O83 Cd72 2.439 . S
O83 C77 1.208 . S
O84 Cd85 2.223 . S
O84 C92 1.315 . S
Cd85 O84 2.223 . S
Cd85 O88 2.297 . S
Cd85 O89 2.439 . S
Cd85 O95 2.240 . S
Cd86 O87 2.240 . S
Cd86 O94 2.223 . S
Cd86 O96 2.297 . S
Cd86 O97 2.439 . S
O87 Cd86 2.240 . S
O87 C92 1.279 . S
O88 Cd85 2.297 . S
O88 C90 1.247 . S
O89 Cd85 2.439 . S
O89 C90 1.208 . S
C90 O88 1.247 . S
C90 O89 1.208 . S
C91 O96 1.247 . S
C91 O97 1.208 . S
C92 O84 1.315 . S
C92 O87 1.279 . S
C93 O94 1.315 . S
C93 O95 1.279 . S
O94 Cd86 2.223 . S
O94 C93 1.315 . S
O95 Cd85 2.240 . S
O95 C93 1.279 . S
O96 Cd86 2.297 . S
O96 C91 1.247 . S
O97 Cd86 2.439 . S
O97 C91 1.208 . S
O98 Cd99 2.223 . S
O98 C106 1.315 . S
Cd99 O98 2.223 . S
Cd99 O102 2.297 . S
Cd99 O103 2.439 . S
Cd99 O109 2.240 . S
Cd100 O101 2.240 . S
Cd100 O108 2.223 . S
Cd100 O110 2.297 . S
Cd100 O111 2.439 . S
O101 Cd100 2.240 . S
O101 C106 1.279 . S
O102 Cd99 2.297 . S
O102 C104 1.247 . S
O103 Cd99 2.439 . S
O103 C104 1.208 . S
C104 O102 1.247 . S
C104 O103 1.208 . S
C105 O110 1.247 . S
C105 O111 1.208 . S
C106 O98 1.315 . S
C106 O101 1.279 . S
C107 O108 1.315 . S
C107 O109 1.279 . S
O108 Cd100 2.223 . S
O108 C107 1.315 . S
O109 Cd99 2.240 . S
O109 C107 1.279 . S
O110 Cd100 2.297 . S
O110 C105 1.247 . S
O111 Cd100 2.439 . S
O111 C105 1.208 . S
O112 Cd113 2.223 . S
O112 C120 1.315 . S
Cd113 O112 2.223 . S
Cd113 O116 2.297 . S
Cd113 O117 2.439 . S
Cd113 O123 2.240 . S
Cd114 O115 2.240 . S
Cd114 O122 2.223 . S
Cd114 O124 2.297 . S
Cd114 O125 2.439 . S
O115 Cd114 2.240 . S
O115 C120 1.279 . S
O116 Cd113 2.297 . S
O116 C118 1.247 . S
O117 Cd113 2.439 . S
O117 C118 1.208 . S
C118 O116 1.247 . S
C118 O117 1.208 . S
C119 O124 1.247 . S
C119 O125 1.208 . S
C120 O112 1.315 . S
C120 O115 1.279 . S
C121 O122 1.315 . S
C121 O123 1.279 . S
O122 Cd114 2.223 . S
O122 C121 1.315 . S
O123 Cd113 2.240 . S
O123 C121 1.279 . S
O124 Cd114 2.297 . S
O124 C119 1.247 . S
O125 Cd114 2.439 . S
O125 C119 1.208 . S
O126 Cd127 2.223 . S
O126 C134 1.315 . S
Cd127 O126 2.223 . S
Cd127 O130 2.297 . S
Cd127 O131 2.439 . S
Cd127 O137 2.240 . S
Cd128 O129 2.240 . S
Cd128 O136 2.223 . S
Cd128 O138 2.297 . S
Cd128 O139 2.439 . S
O129 Cd128 2.240 . S
O129 C134 1.279 . S
O130 Cd127 2.297 . S
O130 C132 1.247 . S
O131 Cd127 2.439 . S
O131 C132 1.208 . S
C132 O130 1.247 . S
C132 O131 1.208 . S
C133 O138 1.247 . S
C133 O139 1.208 . S
C134 O126 1.315 . S
C134 O129 1.279 . S
C135 O136 1.315 . S
C135 O137 1.279 . S
O136 Cd128 2.223 . S
O136 C135 1.315 . S
O137 Cd127 2.240 . S
O137 C135 1.279 . S
O138 Cd128 2.297 . S
O138 C133 1.247 . S
O139 Cd128 2.439 . S
O139 C133 1.208 . S
O140 Cd141 2.223 . S
O140 C148 1.315 . S
Cd141 O140 2.223 . S
Cd141 O144 2.297 . S
Cd141 O145 2.439 . S
Cd141 O151 2.240 . S
Cd142 O143 2.240 . S
Cd142 O150 2.223 . S
Cd142 O152 2.297 . S
Cd142 O153 2.439 . S
O143 Cd142 2.240 . S
O143 C148 1.279 . S
O144 Cd141 2.297 . S
O144 C146 1.247 . S
O145 Cd141 2.439 . S
O145 C146 1.208 . S
C146 O144 1.247 . S
C146 O145 1.208 . S
C147 O152 1.247 . S
C147 O153 1.208 . S
C148 O140 1.315 . S
C148 O143 1.279 . S
C149 O150 1.315 . S
C149 O151 1.279 . S
O150 Cd142 2.223 . S
O150 C149 1.315 . S
O151 Cd141 2.240 . S
O151 C149 1.279 . S
O152 Cd142 2.297 . S
O152 C147 1.247 . S
O153 Cd142 2.439 . S
O153 C147 1.208 . S
O154 Cd155 2.223 . S
O154 C162 1.315 . S
Cd155 O154 2.223 . S
Cd155 O158 2.297 . S
Cd155 O159 2.439 . S
Cd155 O165 2.240 . S
Cd156 O157 2.240 . S
Cd156 O164 2.223 . S
Cd156 O166 2.297 . S
Cd156 O167 2.439 . S
O157 Cd156 2.240 . S
O157 C162 1.279 . S
O158 Cd155 2.297 . S
O158 C160 1.247 . S
O159 Cd155 2.439 . S
O159 C160 1.208 . S
C160 O158 1.247 . S
C160 O159 1.208 . S
C161 O166 1.247 . S
C161 O167 1.208 . S
C162 O154 1.315 . S
C162 O157 1.279 . S
C163 O164 1.315 . S
C163 O165 1.279 . S
O164 Cd156 2.223 . S
O164 C163 1.315 . S
O165 Cd155 2.240 . S
O165 C163 1.279 . S
O166 Cd156 2.297 . S
O166 C161 1.247 . S
O167 Cd156 2.439 . S
O167 C161 1.208 . S
O168 Cd169 2.223 . S
O168 C176 1.315 . S
Cd169 O168 2.223 . S
Cd169 O172 2.297 . S
Cd169 O173 2.439 . S
Cd169 O179 2.240 . S
Cd170 O171 2.240 . S
Cd170 O178 2.223 . S
Cd170 O180 2.297 . S
Cd170 O181 2.439 . S
O171 Cd170 2.240 . S
O171 C176 1.279 . S
O172 Cd169 2.297 . S
O172 C174 1.247 . S
O173 Cd169 2.439 . S
O173 C174 1.208 . S
C174 O172 1.247 . S
C174 O173 1.208 . S
C175 O180 1.247 . S
C175 O181 1.208 . S
C176 O168 1.315 . S
C176 O171 1.279 . S
C177 O178 1.315 . S
C177 O179 1.279 . S
O178 Cd170 2.223 . S
O178 C177 1.315 . S
O179 Cd169 2.240 . S
O179 C177 1.279 . S
O180 Cd170 2.297 . S
O180 C175 1.247 . S
O181 Cd170 2.439 . S
O181 C175 1.208 . S
O182 Cd183 2.223 . S
O182 C190 1.315 . S
Cd183 O182 2.223 . S
Cd183 O186 2.297 . S
Cd183 O187 2.439 . S
Cd183 O193 2.240 . S
Cd184 O185 2.240 . S
Cd184 O192 2.223 . S
Cd184 O194 2.297 . S
Cd184 O195 2.439 . S
O185 Cd184 2.240 . S
O185 C190 1.279 . S
O186 Cd183 2.297 . S
O186 C188 1.247 . S
O187 Cd183 2.439 . S
O187 C188 1.208 . S
C188 O186 1.247 . S
C188 O187 1.208 . S
C189 O194 1.247 . S
C189 O195 1.208 . S
C190 O182 1.315 . S
C190 O185 1.279 . S
C191 O192 1.315 . S
C191 O193 1.279 . S
O192 Cd184 2.223 . S
O192 C191 1.315 . S
O193 Cd183 2.240 . S
O193 C191 1.279 . S
O194 Cd184 2.297 . S
O194 C189 1.247 . S
O195 Cd184 2.439 . S
O195 C189 1.208 . S
O196 Cd197 2.223 . S
O196 C204 1.315 . S
Cd197 O196 2.223 . S
Cd197 O200 2.297 . S
Cd197 O201 2.439 . S
Cd197 O207 2.240 . S
Cd198 O199 2.240 . S
Cd198 O206 2.223 . S
Cd198 O208 2.297 . S
Cd198 O209 2.439 . S
O199 Cd198 2.240 . S
O199 C204 1.279 . S
O200 Cd197 2.297 . S
O200 C202 1.247 . S
O201 Cd197 2.439 . S
O201 C202 1.208 . S
C202 O200 1.247 . S
C202 O201 1.208 . S
C203 O208 1.247 . S
C203 O209 1.208 . S
C204 O196 1.315 . S
C204 O199 1.279 . S
C205 O206 1.315 . S
C205 O207 1.279 . S
O206 Cd198 2.223 . S
O206 C205 1.315 . S
O207 Cd197 2.240 . S
O207 C205 1.279 . S
O208 Cd198 2.297 . S
O208 C203 1.247 . S
O209 Cd198 2.439 . S
O209 C203 1.208 . S
O210 Cd211 2.223 . S
O210 C218 1.315 . S
Cd211 O210 2.223 . S
Cd211 O214 2.297 . S
Cd211 O215 2.439 . S
Cd211 O221 2.240 . S
Cd212 O213 2.240 . S
Cd212 O220 2.223 . S
Cd212 O222 2.297 . S
Cd212 O223 2.439 . S
O213 Cd212 2.240 . S
O213 C218 1.279 . S
O214 Cd211 2.297 . S
O214 C216 1.247 . S
O215 Cd211 2.439 . S
O215 C216 1.208 . S
C216 O214 1.247 . S
C216 O215 1.208 . S
C217 O222 1.247 . S
C217 O223 1.208 . S
C218 O210 1.315 . S
C218 O213 1.279 . S
C219 O220 1.315 . S
C219 O221 1.279 . S
O220 Cd212 2.223 . S
O220 C219 1.315 . S
O221 Cd211 2.240 . S
O221 C219 1.279 . S
O222 Cd212 2.297 . S
O222 C217 1.247 . S
O223 Cd212 2.439 . S
O223 C217 1.208 . S
O224 Cd225 2.223 . S
O224 C232 1.315 . S
Cd225 O224 2.223 . S
Cd225 O228 2.297 . S
Cd225 O229 2.439 . S
Cd225 O235 2.240 . S
Cd226 O227 2.240 . S
Cd226 O234 2.223 . S
Cd226 O236 2.297 . S
Cd226 O237 2.439 . S
O227 Cd226 2.240 . S
O227 C232 1.279 . S
O228 Cd225 2.297 . S
O228 C230 1.247 . S
O229 Cd225 2.439 . S
O229 C230 1.208 . S
C230 O228 1.247 . S
C230 O229 1.208 . S
C231 O236 1.247 . S
C231 O237 1.208 . S
C232 O224 1.315 . S
C232 O227 1.279 . S
C233 O234 1.315 . S
C233 O235 1.279 . S
O234 Cd226 2.223 . S
O234 C233 1.315 . S
O235 Cd225 2.240 . S
O235 C233 1.279 . S
O236 Cd226 2.297 . S
O236 C231 1.247 . S
O237 Cd226 2.439 . S
O237 C231 1.208 . S
O238 Cd239 2.223 . S
O238 C246 1.315 . S
Cd239 O238 2.223 . S
Cd239 O242 2.297 . S
Cd239 O243 2.439 . S
Cd239 O249 2.240 . S
Cd240 O241 2.240 . S
Cd240 O248 2.223 . S
Cd240 O250 2.297 . S
Cd240 O251 2.439 . S
O241 Cd240 2.240 . S
O241 C246 1.279 . S
O242 Cd239 2.297 . S
O242 C244 1.247 . S
O243 Cd239 2.439 . S
O243 C244 1.208 . S
C244 O242 1.247 . S
C244 O243 1.208 . S
C245 O250 1.247 . S
C245 O251 1.208 . S
C246 O238 1.315 . S
C246 O241 1.279 . S
C247 O248 1.315 . S
C247 O249 1.279 . S
O248 Cd240 2.223 . S
O248 C247 1.315 . S
O249 Cd239 2.240 . S
O249 C247 1.279 . S
O250 Cd240 2.297 . S
O250 C245 1.247 . S
O251 Cd240 2.439 . S
O251 C245 1.208 . S
O252 Cd253 2.223 . S
O252 C260 1.315 . S
Cd253 O252 2.223 . S
Cd253 O256 2.297 . S
Cd253 O257 2.439 . S
Cd253 O263 2.240 . S
Cd254 O255 2.240 . S
Cd254 O262 2.223 . S
Cd254 O264 2.297 . S
Cd254 O265 2.439 . S
O255 Cd254 2.240 . S
O255 C260 1.279 . S
O256 Cd253 2.297 . S
O256 C258 1.247 . S
O257 Cd253 2.439 . S
O257 C258 1.208 . S
C258 O256 1.247 . S
C258 O257 1.208 . S
C259 O264 1.247 . S
C259 O265 1.208 . S
C260 O252 1.315 . S
C260 O255 1.279 . S
C261 O262 1.315 . S
C261 O263 1.279 . S
O262 Cd254 2.223 . S
O262 C261 1.315 . S
O263 Cd253 2.240 . S
O263 C261 1.279 . S
O264 Cd254 2.297 . S
O264 C259 1.247 . S
O265 Cd254 2.439 . S
O265 C259 1.208 . S
O266 Cd267 2.223 . S
O266 C274 1.315 . S
Cd267 O266 2.223 . S
Cd267 O270 2.297 . S
Cd267 O271 2.439 . S
Cd267 O277 2.240 . S
Cd268 O269 2.240 . S
Cd268 O276 2.223 . S
Cd268 O278 2.297 . S
Cd268 O279 2.439 . S
O269 Cd268 2.240 . S
O269 C274 1.279 . S
O270 Cd267 2.297 . S
O270 C272 1.247 . S
O271 Cd267 2.439 . S
O271 C272 1.208 . S
C272 O270 1.247 . S
C272 O271 1.208 . S
C273 O278 1.247 . S
C273 O279 1.208 . S
C274 O266 1.315 . S
C274 O269 1.279 . S
C275 O276 1.315 . S
C275 O277 1.279 . S
O276 Cd268 2.223 . S
O276 C275 1.315 . S
O277 Cd267 2.240 . S
O277 C275 1.279 . S
O278 Cd268 2.297 . S
O278 C273 1.247 . S
O279 Cd268 2.439 . S
O279 C273 1.208 . S
O280 Cd281 2.223 . S
O280 C288 1.315 . S
Cd281 O280 2.223 . S
Cd281 O284 2.297 . S
Cd281 O285 2.439 . S
Cd281 O291 2.240 . S
Cd282 O283 2.240 . S
Cd282 O290 2.223 . S
Cd282 O292 2.297 . S
Cd282 O293 2.439 . S
O283 Cd282 2.240 . S
O283 C288 1.279 . S
O284 Cd281 2.297 . S
O284 C286 1.247 . S
O285 Cd281 2.439 . S
O285 C286 1.208 . S
C286 O284 1.247 . S
C286 O285 1.208 . S
C287 O292 1.247 . S
C287 O293 1.208 . S
C288 O280 1.315 . S
C288 O283 1.279 . S
C289 O290 1.315 . S
C289 O291 1.279 . S
O290 Cd282 2.223 . S
O290 C289 1.315 . S
O291 Cd281 2.240 . S
O291 C289 1.279 . S
O292 Cd282 2.297 . S
O292 C287 1.247 . S
O293 Cd282 2.439 . S
O293 C287 1.208 . S
O294 Cd295 2.223 . S
O294 C302 1.315 . S
Cd295 O294 2.223 . S
Cd295 O298 2.297 . S
Cd295 O299 2.439 . S
Cd295 O305 2.240 . S
Cd296 O297 2.240 . S
Cd296 O304 2.223 . S
Cd296 O306 2.297 . S
Cd296 O307 2.439 . S
O297 Cd296 2.240 . S
O297 C302 1.279 . S
O298 Cd295 2.297 . S
O298 C300 1.247 . S
O299 Cd295 2.439 . S
O299 C300 1.208 . S
C300 O298 1.247 . S
C300 O299 1.208 . S
C301 O306 1.247 . S
C301 O307 1.208 . S
C302 O294 1.315 . S
C302 O297 1.279 . S
C303 O304 1.315 . S
C303 O305 1.279 . S
O304 Cd296 2.223 . S
O304 C303 1.315 . S
O305 Cd295 2.240 . S
O305 C303 1.279 . S
O306 Cd296 2.297 . S
O306 C301 1.247 . S
O307 Cd296 2.439 . S
O307 C301 1.208 . S
O308 Cd309 2.223 . S
O308 C316 1.315 . S
Cd309 O308 2.223 . S
Cd309 O312 2.297 . S
Cd309 O313 2.439 . S
Cd309 O319 2.240 . S
Cd310 O311 2.240 . S
Cd310 O318 2.223 . S
Cd310 O320 2.297 . S
Cd310 O321 2.439 . S
O311 Cd310 2.240 . S
O311 C316 1.279 . S
O312 Cd309 2.297 . S
O312 C314 1.247 . S
O313 Cd309 2.439 . S
O313 C314 1.208 . S
C314 O312 1.247 . S
C314 O313 1.208 . S
C315 O320 1.247 . S
C315 O321 1.208 . S
C316 O308 1.315 . S
C316 O311 1.279 . S
C317 O318 1.315 . S
C317 O319 1.279 . S
O318 Cd310 2.223 . S
O318 C317 1.315 . S
O319 Cd309 2.240 . S
O319 C317 1.279 . S
O320 Cd310 2.297 . S
O320 C315 1.247 . S
O321 Cd310 2.439 . S
O321 C315 1.208 . S
O322 Cd323 2.223 . S
O322 C330 1.315 . S
Cd323 O322 2.223 . S
Cd323 O326 2.297 . S
Cd323 O327 2.439 . S
Cd323 O333 2.240 . S
Cd324 O325 2.240 . S
Cd324 O332 2.223 . S
Cd324 O334 2.297 . S
Cd324 O335 2.439 . S
O325 Cd324 2.240 . S
O325 C330 1.279 . S
O326 Cd323 2.297 . S
O326 C328 1.247 . S
O327 Cd323 2.439 . S
O327 C328 1.208 . S
C328 O326 1.247 . S
C328 O327 1.208 . S
C329 O334 1.247 . S
C329 O335 1.208 . S
C330 O322 1.315 . S
C330 O325 1.279 . S
C331 O332 1.315 . S
C331 O333 1.279 . S
O332 Cd324 2.223 . S
O332 C331 1.315 . S
O333 Cd323 2.240 . S
O333 C331 1.279 . S
O334 Cd324 2.297 . S
O334 C329 1.247 . S
O335 Cd324 2.439 . S
O335 C329 1.208 . S
O336 Cd337 2.223 . S
O336 C344 1.315 . S
Cd337 O336 2.223 . S
Cd337 O340 2.297 . S
Cd337 O341 2.439 . S
Cd337 O347 2.240 . S
Cd338 O339 2.240 . S
Cd338 O346 2.223 . S
Cd338 O348 2.297 . S
Cd338 O349 2.439 . S
O339 Cd338 2.240 . S
O339 C344 1.279 . S
O340 Cd337 2.297 . S
O340 C342 1.247 . S
O341 Cd337 2.439 . S
O341 C342 1.208 . S
C342 O340 1.247 . S
C342 O341 1.208 . S
C343 O348 1.247 . S
C343 O349 1.208 . S
C344 O336 1.315 . S
C344 O339 1.279 . S
C345 O346 1.315 . S
C345 O347 1.279 . S
O346 Cd338 2.223 . S
O346 C345 1.315 . S
O347 Cd337 2.240 . S
O347 C345 1.279 . S
O348 Cd338 2.297 . S
O348 C343 1.247 . S
O349 Cd338 2.439 . S
O349 C343 1.208 . S
O350 Cd351 2.223 . S
O350 C358 1.315 . S
Cd351 O350 2.223 . S
Cd351 O354 2.297 . S
Cd351 O355 2.439 . S
Cd351 O361 2.240 . S
Cd352 O353 2.240 . S
Cd352 O360 2.223 . S
Cd352 O362 2.297 . S
Cd352 O363 2.439 . S
O353 Cd352 2.240 . S
O353 C358 1.279 . S
O354 Cd351 2.297 . S
O354 C356 1.247 . S
O355 Cd351 2.439 . S
O355 C356 1.208 . S
C356 O354 1.247 . S
C356 O355 1.208 . S
C357 O362 1.247 . S
C357 O363 1.208 . S
C358 O350 1.315 . S
C358 O353 1.279 . S
C359 O360 1.315 . S
C359 O361 1.279 . S
O360 Cd352 2.223 . S
O360 C359 1.315 . S
O361 Cd351 2.240 . S
O361 C359 1.279 . S
O362 Cd352 2.297 . S
O362 C357 1.247 . S
O363 Cd352 2.439 . S
O363 C357 1.208 . S
O364 Cd365 2.223 . S
O364 C372 1.315 . S
Cd365 O364 2.223 . S
Cd365 O368 2.297 . S
Cd365 O369 2.439 . S
Cd365 O375 2.240 . S
Cd366 O367 2.240 . S
Cd366 O374 2.223 . S
Cd366 O376 2.297 . S
Cd366 O377 2.439 . S
O367 Cd366 2.240 . S
O367 C372 1.279 . S
O368 Cd365 2.297 . S
O368 C370 1.247 . S
O369 Cd365 2.439 . S
O369 C370 1.208 . S
C370 O368 1.247 . S
C370 O369 1.208 . S
C371 O376 1.247 . S
C371 O377 1.208 . S
C372 O364 1.315 . S
C372 O367 1.279 . S
C373 O374 1.315 . S
C373 O375 1.279 . S
O374 Cd366 2.223 . S
O374 C373 1.315 . S
O375 Cd365 2.240 . S
O375 C373 1.279 . S
O376 Cd366 2.297 . S
O376 C371 1.247 . S
O377 Cd366 2.439 . S
O377 C371 1.208 . S
O378 Cd379 2.223 . S
O378 C386 1.315 . S
Cd379 O378 2.223 . S
Cd379 O382 2.297 . S
Cd379 O383 2.439 . S
Cd379 O389 2.240 . S
Cd380 O381 2.240 . S
Cd380 O388 2.223 . S
Cd380 O390 2.297 . S
Cd380 O391 2.439 . S
O381 Cd380 2.240 . S
O381 C386 1.279 . S
O382 Cd379 2.297 . S
O382 C384 1.247 . S
O383 Cd379 2.439 . S
O383 C384 1.208 . S
C384 O382 1.247 . S
C384 O383 1.208 . S
C385 O390 1.247 . S
C385 O391 1.208 . S
C386 O378 1.315 . S
C386 O381 1.279 . S
C387 O388 1.315 . S
C387 O389 1.279 . S
O388 Cd380 2.223 . S
O388 C387 1.315 . S
O389 Cd379 2.240 . S
O389 C387 1.279 . S
O390 Cd380 2.297 . S
O390 C385 1.247 . S
O391 Cd380 2.439 . S
O391 C385 1.208 . S
O392 Cd393 2.223 . S
O392 C400 1.315 . S
Cd393 O392 2.223 . S
Cd393 O396 2.297 . S
Cd393 O397 2.439 . S
Cd393 O403 2.240 . S
Cd394 O395 2.240 . S
Cd394 O402 2.223 . S
Cd394 O404 2.297 . S
Cd394 O405 2.439 . S
O395 Cd394 2.240 . S
O395 C400 1.279 . S
O396 Cd393 2.297 . S
O396 C398 1.247 . S
O397 Cd393 2.439 . S
O397 C398 1.208 . S
C398 O396 1.247 . S
C398 O397 1.208 . S
C399 O404 1.247 . S
C399 O405 1.208 . S
C400 O392 1.315 . S
C400 O395 1.279 . S
C401 O402 1.315 . S
C401 O403 1.279 . S
O402 Cd394 2.223 . S
O402 C401 1.315 . S
O403 Cd393 2.240 . S
O403 C401 1.279 . S
O404 Cd394 2.297 . S
O404 C399 1.247 . S
O405 Cd394 2.439 . S
O405 C399 1.208 . S
O406 Cd407 2.223 . S
O406 C414 1.315 . S
Cd407 O406 2.223 . S
Cd407 O410 2.297 . S
Cd407 O411 2.439 . S
Cd407 O417 2.240 . S
Cd408 O409 2.240 . S
Cd408 O416 2.223 . S
Cd408 O418 2.297 . S
Cd408 O419 2.439 . S
O409 Cd408 2.240 . S
O409 C414 1.279 . S
O410 Cd407 2.297 . S
O410 C412 1.247 . S
O411 Cd407 2.439 . S
O411 C412 1.208 . S
C412 O410 1.247 . S
C412 O411 1.208 . S
C413 O418 1.247 . S
C413 O419 1.208 . S
C414 O406 1.315 . S
C414 O409 1.279 . S
C415 O416 1.315 . S
C415 O417 1.279 . S
O416 Cd408 2.223 . S
O416 C415 1.315 . S
O417 Cd407 2.240 . S
O417 C415 1.279 . S
O418 Cd408 2.297 . S
O418 C413 1.247 . S
O419 Cd408 2.439 . S
O419 C413 1.208 . S
O420 Cd421 2.223 . S
O420 C428 1.315 . S
Cd421 O420 2.223 . S
Cd421 O424 2.297 . S
Cd421 O425 2.439 . S
Cd421 O431 2.240 . S
Cd422 O423 2.240 . S
Cd422 O430 2.223 . S
Cd422 O432 2.297 . S
Cd422 O433 2.439 . S
O423 Cd422 2.240 . S
O423 C428 1.279 . S
O424 Cd421 2.297 . S
O424 C426 1.247 . S
O425 Cd421 2.439 . S
O425 C426 1.208 . S
C426 O424 1.247 . S
C426 O425 1.208 . S
C427 O432 1.247 . S
C427 O433 1.208 . S
C428 O420 1.315 . S
C428 O423 1.279 . S
C429 O430 1.315 . S
C429 O431 1.279 . S
O430 Cd422 2.223 . S
O430 C429 1.315 . S
O431 Cd421 2.240 . S
O431 C429 1.279 . S
O432 Cd422 2.297 . S
O432 C427 1.247 . S
O433 Cd422 2.439 . S
O433 C427 1.208 . S
O434 Cd435 2.223 . S
O434 C442 1.315 . S
Cd435 O434 2.223 . S
Cd435 O438 2.297 . S
Cd435 O439 2.439 . S
Cd435 O445 2.240 . S
Cd436 O437 2.240 . S
Cd436 O444 2.223 . S
Cd436 O446 2.297 . S
Cd436 O447 2.439 . S
O437 Cd436 2.240 . S
O437 C442 1.279 . S
O438 Cd435 2.297 . S
O438 C440 1.247 . S
O439 Cd435 2.439 . S
O439 C440 1.208 . S
C440 O438 1.247 . S
C440 O439 1.208 . S
C441 O446 1.247 . S
C441 O447 1.208 . S
C442 O434 1.315 . S
C442 O437 1.279 . S
C443 O444 1.315 . S
C443 O445 1.279 . S
O444 Cd436 2.223 . S
O444 C443 1.315 . S
O445 Cd435 2.240 . S
O445 C443 1.279 . S
O446 Cd436 2.297 . S
O446 C441 1.247 . S
O447 Cd436 2.439 . S
O447 C441 1.208 . S
H448 C466 0.951 . S
H449 C468 0.951 . S
H450 C470 0.950 . S
H451 C471 0.950 . S
H452 C473 0.950 . S
H453 C476 0.950 . S
H454 C477 0.950 . S
H455 C479 0.950 . S
H456 C480 0.950 . S
H457 C481 0.951 . S
H458 C483 0.951 . S
H459 C485 0.950 . S
H460 C486 0.950 . S
H461 C488 0.950 . S
H462 C491 0.950 . S
H463 C492 0.950 . S
H464 C494 0.950 . S
H465 C495 0.950 . S
C466 H448 0.951 . S
C466 C467 1.366 . S
C466 C468 1.388 . S
C467 C466 1.366 . S
C467 C471 1.385 . S
C468 H449 0.951 . S
C468 C466 1.388 . S
C468 C469 1.366 . S
C469 C468 1.366 . S
C469 C470 1.414 . S
C469 C472 1.499 . S
C470 H450 0.950 . S
C470 C469 1.414 . S
C470 C471 1.374 . S
C471 H451 0.950 . S
C471 C467 1.385 . S
C471 C470 1.374 . S
C472 C469 1.499 . S
C472 C473 1.373 . S
C472 C474 1.384 1_545 S
C473 H452 0.950 . S
C473 C472 1.373 . S
C473 C489 1.381 . S
C474 C472 1.384 1_565 S
C474 C475 1.524 . S
C474 C488 1.381 . S
C475 C474 1.524 . S
C475 C476 1.355 1_565 S
C475 C480 1.406 . S
C476 H453 0.950 . S
C476 C475 1.355 1_545 S
C476 C477 1.334 . S
C477 H454 0.950 . S
C477 C476 1.334 . S
C477 C478 1.318 . S
C478 C477 1.318 . S
C478 C479 1.492 1_545 S
C478 H497 0.916 . S
C479 H455 0.950 . S
C479 C478 1.492 1_565 S
C479 C480 1.415 . S
C480 H456 0.950 . S
C480 C475 1.406 . S
C480 C479 1.415 . S
C481 H457 0.951 . S
C481 C482 1.366 . S
C481 C483 1.388 . S
C482 C481 1.366 . S
C482 C486 1.385 . S
C483 H458 0.951 . S
C483 C481 1.388 . S
C483 C484 1.366 . S
C484 C483 1.366 . S
C484 C485 1.414 . S
C484 C487 1.499 . S
C485 H459 0.950 . S
C485 C484 1.414 . S
C485 C486 1.374 . S
C486 H460 0.950 . S
C486 C482 1.385 . S
C486 C485 1.374 . S
C487 C484 1.499 . S
C487 C488 1.373 . S
C487 C489 1.384 1_565 S
C488 H461 0.950 . S
C488 C474 1.381 . S
C488 C487 1.373 . S
C489 C473 1.381 . S
C489 C487 1.384 1_545 S
C489 C490 1.524 . S
C490 C489 1.524 . S
C490 C491 1.355 1_545 S
C490 C495 1.406 . S
C491 H462 0.950 . S
C491 C490 1.355 1_565 S
C491 C492 1.334 . S
C492 H463 0.950 . S
C492 C491 1.334 . S
C492 C493 1.318 . S
C493 C492 1.318 . S
C493 C494 1.492 1_565 S
C493 H496 0.999 . S
C494 H464 0.950 . S
C494 C493 1.492 1_545 S
C494 C495 1.415 . S
C495 H465 0.950 . S
C495 C490 1.406 . S
C495 C494 1.415 . S
H496 C493 0.999 . S
H497 C478 0.916 . S
H498 C516 0.951 . S
H499 C518 0.951 . S
H500 C520 0.950 . S
H501 C521 0.950 . S
H502 C523 0.950 . S
H503 C526 0.950 . S
H504 C527 0.950 . S
H505 C529 0.950 . S
H506 C530 0.950 . S
H507 C531 0.951 . S
H508 C533 0.951 . S
H509 C535 0.950 . S
H510 C536 0.950 . S
H511 C538 0.950 . S
H512 C541 0.950 . S
H513 C542 0.950 . S
H514 C544 0.950 . S
H515 C545 0.950 . S
C516 H498 0.951 . S
C516 C517 1.366 . S
C516 C518 1.388 . S
C517 C516 1.366 . S
C517 C521 1.385 . S
C518 H499 0.951 . S
C518 C516 1.388 . S
C518 C519 1.366 . S
C519 C518 1.366 . S
C519 C520 1.414 . S
C519 C522 1.499 . S
C520 H500 0.950 . S
C520 C519 1.414 . S
C520 C521 1.374 . S
C521 H501 0.950 . S
C521 C517 1.385 . S
C521 C520 1.374 . S
C522 C519 1.499 . S
C522 C523 1.373 . S
C522 C524 1.389 . S
C523 H502 0.950 . S
C523 C522 1.373 . S
C523 C539 1.377 . S
C524 C522 1.389 . S
C524 C525 1.524 . S
C524 C538 1.377 . S
C525 C524 1.524 . S
C525 C526 1.397 . S
C525 C530 1.363 . S
C526 H503 0.950 . S
C526 C525 1.397 . S
C526 C527 1.334 . S
C527 H504 0.950 . S
C527 C526 1.334 . S
C527 C528 1.287 . S
C528 C527 1.287 . S
C528 C529 1.524 . S
C528 H547 0.913 . S
C529 H505 0.950 . S
C529 C528 1.524 . S
C529 C530 1.415 . S
C530 H506 0.950 . S
C530 C525 1.363 . S
C530 C529 1.415 . S
C531 H507 0.951 . S
C531 C532 1.366 . S
C531 C533 1.388 . S
C532 C531 1.366 . S
C532 C536 1.385 . S
C533 H508 0.951 . S
C533 C531 1.388 . S
C533 C534 1.366 . S
C534 C533 1.366 . S
C534 C535 1.414 . S
C534 C537 1.499 . S
C535 H509 0.950 . S
C535 C534 1.414 . S
C535 C536 1.374 . S
C536 H510 0.950 . S
C536 C532 1.385 . S
C536 C535 1.374 . S
C537 C534 1.499 . S
C537 C538 1.373 . S
C537 C539 1.389 . S
C538 H511 0.950 . S
C538 C524 1.377 . S
C538 C537 1.373 . S
C539 C523 1.377 . S
C539 C537 1.389 . S
C539 C540 1.524 . S
C540 C539 1.524 . S
C540 C541 1.397 . S
C540 C545 1.363 . S
C541 H512 0.950 . S
C541 C540 1.397 . S
C541 C542 1.334 . S
C542 H513 0.950 . S
C542 C541 1.334 . S
C542 C543 1.287 . S
C543 C542 1.287 . S
C543 C544 1.524 . S
C543 H546 0.999 . S
C544 H514 0.950 . S
C544 C543 1.524 . S
C544 C545 1.415 . S
C545 H515 0.950 . S
C545 C540 1.363 . S
C545 C544 1.415 . S
H546 C543 0.999 . S
H547 C528 0.913 . S
H548 C566 0.951 . S
H549 C568 0.951 . S
H550 C570 0.950 . S
H551 C571 0.950 . S
H552 C573 0.950 . S
H553 C576 0.946 1_565 S
H554 C577 0.946 1_565 S
H555 C579 0.950 . S
H556 C580 0.950 . S
H557 C581 0.951 . S
H558 C583 0.951 . S
H559 C585 0.950 . S
H560 C586 0.950 . S
H561 C588 0.950 . S
H562 C591 0.946 1_545 S
H563 C592 0.946 1_545 S
H564 C594 0.950 . S
H565 C595 0.950 . S
C566 H548 0.951 . S
C566 C567 1.366 . S
C566 C568 1.388 . S
C567 C566 1.366 . S
C567 C571 1.385 . S
C568 H549 0.951 . S
C568 C566 1.388 . S
C568 C569 1.366 . S
C569 C568 1.366 . S
C569 C570 1.414 . S
C569 C572 1.499 . S
C570 H550 0.950 . S
C570 C569 1.414 . S
C570 C571 1.374 . S
C571 H551 0.950 . S
C571 C567 1.385 . S
C571 C570 1.374 . S
C572 C569 1.499 . S
C572 C573 1.373 . S
C572 C574 1.389 . S
C573 H552 0.950 . S
C573 C572 1.373 . S
C573 C589 1.377 1_545 S
C574 C572 1.389 . S
C574 C575 1.524 . S
C574 C588 1.377 1_545 S
C575 C574 1.524 . S
C575 C576 1.401 . S
C575 C580 1.363 . S
C576 H553 0.946 1_545 S
C576 C575 1.401 . S
C576 C577 1.334 . S
C577 H554 0.946 1_545 S
C577 C576 1.334 . S
C577 C578 1.288 . S
C578 C577 1.288 . S
C578 C579 1.524 . S
C578 H597 0.913 . S
C579 H555 0.950 . S
C579 C578 1.524 . S
C579 C580 1.415 . S
C580 H556 0.950 . S
C580 C575 1.363 . S
C580 C579 1.415 . S
C581 H557 0.951 . S
C581 C582 1.366 . S
C581 C583 1.388 . S
C582 C581 1.366 . S
C582 C586 1.385 . S
C583 H558 0.951 . S
C583 C581 1.388 . S
C583 C584 1.366 . S
C584 C583 1.366 . S
C584 C585 1.414 . S
C584 C587 1.499 . S
C585 H559 0.950 . S
C585 C584 1.414 . S
C585 C586 1.374 . S
C586 H560 0.950 . S
C586 C582 1.385 . S
C586 C585 1.374 . S
C587 C584 1.499 . S
C587 C588 1.373 . S
C587 C589 1.389 . S
C588 H561 0.950 . S
C588 C574 1.377 1_565 S
C588 C587 1.373 . S
C589 C573 1.377 1_565 S
C589 C587 1.389 . S
C589 C590 1.524 . S
C590 C589 1.524 . S
C590 C591 1.401 . S
C590 C595 1.363 . S
C591 H562 0.946 1_565 S
C591 C590 1.401 . S
C591 C592 1.334 . S
C592 H563 0.946 1_565 S
C592 C591 1.334 . S
C592 C593 1.288 . S
C593 C592 1.288 . S
C593 C594 1.524 . S
C593 H596 0.999 . S
C594 H564 0.950 . S
C594 C593 1.524 . S
C594 C595 1.415 . S
C595 H565 0.950 . S
C595 C590 1.363 . S
C595 C594 1.415 . S
H596 C593 0.999 . S
H597 C578 0.913 . S
H598 C616 0.951 . S
H599 C618 0.951 . S
H600 C620 0.950 . S
H601 C621 0.950 . S
H602 C623 0.950 . S
H603 C626 0.950 . S
H604 C627 0.950 . S
H605 C629 0.950 . S
H606 C630 0.950 . S
H607 C631 0.951 . S
H608 C633 0.951 . S
H609 C635 0.950 . S
H610 C636 0.950 . S
H611 C638 0.950 . S
H612 C641 0.950 . S
H613 C642 0.950 . S
H614 C644 0.950 . S
H615 C645 0.950 . S
C616 H598 0.951 . S
C616 C617 1.366 . S
C616 C618 1.388 . S
C617 C616 1.366 . S
C617 C621 1.385 . S
C618 H599 0.951 . S
C618 C616 1.388 . S
C618 C619 1.366 . S
C619 C618 1.366 . S
C619 C620 1.414 . S
C619 C622 1.499 . S
C620 H600 0.950 . S
C620 C619 1.414 . S
C620 C621 1.374 . S
C621 H601 0.950 . S
C621 C617 1.385 . S
C621 C620 1.374 . S
C622 C619 1.499 . S
C622 C623 1.373 . S
C622 C624 1.389 . S
C623 H602 0.950 . S
C623 C622 1.373 . S
C623 C639 1.377 1_556 S
C624 C622 1.389 . S
C624 C625 1.524 . S
C624 C638 1.377 1_556 S
C625 C624 1.524 . S
C625 C626 1.397 . S
C625 C630 1.363 . S
C626 H603 0.950 . S
C626 C625 1.397 . S
C626 C627 1.334 . S
C627 H604 0.950 . S
C627 C626 1.334 . S
C627 C628 1.287 . S
C628 C627 1.287 . S
C628 C629 1.524 . S
C628 H647 0.913 . S
C629 H605 0.950 . S
C629 C628 1.524 . S
C629 C630 1.415 . S
C630 H606 0.950 . S
C630 C625 1.363 . S
C630 C629 1.415 . S
C631 H607 0.951 . S
C631 C632 1.366 . S
C631 C633 1.388 . S
C632 C631 1.366 . S
C632 C636 1.385 . S
C633 H608 0.951 . S
C633 C631 1.388 . S
C633 C634 1.366 . S
C634 C633 1.366 . S
C634 C635 1.414 . S
C634 C637 1.499 . S
C635 H609 0.950 . S
C635 C634 1.414 . S
C635 C636 1.374 . S
C636 H610 0.950 . S
C636 C632 1.385 . S
C636 C635 1.374 . S
C637 C634 1.499 . S
C637 C638 1.373 . S
C637 C639 1.389 . S
C638 H611 0.950 . S
C638 C624 1.377 1_554 S
C638 C637 1.373 . S
C639 C623 1.377 1_554 S
C639 C637 1.389 . S
C639 C640 1.524 . S
C640 C639 1.524 . S
C640 C641 1.397 . S
C640 C645 1.363 . S
C641 H612 0.950 . S
C641 C640 1.397 . S
C641 C642 1.334 . S
C642 H613 0.950 . S
C642 C641 1.334 . S
C642 C643 1.287 . S
C643 C642 1.287 . S
C643 C644 1.524 . S
C643 H646 0.999 . S
C644 H614 0.950 . S
C644 C643 1.524 . S
C644 C645 1.415 . S
C645 H615 0.950 . S
C645 C640 1.363 . S
C645 C644 1.415 . S
H646 C643 0.999 . S
H647 C628 0.913 . S
H648 C666 0.951 . S
H649 C668 0.951 . S
H650 C670 0.950 . S
H651 C671 0.950 . S
H652 C673 0.950 . S
H653 C676 0.950 . S
H654 C677 0.950 . S
H655 C679 0.950 . S
H656 C680 0.950 . S
H657 C681 0.951 . S
H658 C683 0.951 . S
H659 C685 0.950 . S
H660 C686 0.950 . S
H661 C688 0.950 . S
H662 C691 0.950 . S
H663 C692 0.950 . S
H664 C694 0.950 . S
H665 C695 0.950 . S
C666 H648 0.951 . S
C666 C667 1.366 . S
C666 C668 1.388 . S
C667 C666 1.366 . S
C667 C671 1.385 . S
C668 H649 0.951 . S
C668 C666 1.388 . S
C668 C669 1.366 . S
C669 C668 1.366 . S
C669 C670 1.414 . S
C669 C672 1.499 . S
C670 H650 0.950 . S
C670 C669 1.414 . S
C670 C671 1.374 . S
C671 H651 0.950 . S
C671 C667 1.385 . S
C671 C670 1.374 . S
C672 C669 1.499 . S
C672 C673 1.373 1_565 S
C672 C674 1.389 . S
C673 H652 0.950 . S
C673 C672 1.373 1_545 S
C673 C689 1.377 . S
C674 C672 1.389 . S
C674 C675 1.524 . S
C674 C688 1.377 . S
C675 C674 1.524 . S
C675 C676 1.397 . S
C675 C680 1.363 . S
C676 H653 0.950 . S
C676 C675 1.397 . S
C676 C677 1.334 . S
C677 H654 0.950 . S
C677 C676 1.334 . S
C677 C678 1.287 . S
C678 C677 1.287 . S
C678 C679 1.524 . S
C678 H697 0.913 . S
C679 H655 0.950 . S
C679 C678 1.524 . S
C679 C680 1.415 . S
C680 H656 0.950 . S
C680 C675 1.363 . S
C680 C679 1.415 . S
C681 H657 0.951 . S
C681 C682 1.366 . S
C681 C683 1.388 . S
C682 C681 1.366 . S
C682 C686 1.385 . S
C683 H658 0.951 . S
C683 C681 1.388 . S
C683 C684 1.366 . S
C684 C683 1.366 . S
C684 C685 1.414 . S
C684 C687 1.499 . S
C685 H659 0.950 . S
C685 C684 1.414 . S
C685 C686 1.374 . S
C686 H660 0.950 . S
C686 C682 1.385 . S
C686 C685 1.374 . S
C687 C684 1.499 . S
C687 C688 1.373 1_545 S
C687 C689 1.389 . S
C688 H661 0.950 . S
C688 C674 1.377 . S
C688 C687 1.373 1_565 S
C689 C673 1.377 . S
C689 C687 1.389 . S
C689 C690 1.524 . S
C690 C689 1.524 . S
C690 C691 1.397 . S
C690 C695 1.363 . S
C691 H662 0.950 . S
C691 C690 1.397 . S
C691 C692 1.334 . S
C692 H663 0.950 . S
C692 C691 1.334 . S
C692 C693 1.287 . S
C693 C692 1.287 . S
C693 C694 1.524 . S
C693 H696 0.999 . S
C694 H664 0.950 . S
C694 C693 1.524 . S
C694 C695 1.415 . S
C695 H665 0.950 . S
C695 C690 1.363 . S
C695 C694 1.415 . S
H696 C693 0.999 . S
H697 C678 0.913 . S
H698 C716 0.951 . S
H699 C718 0.951 . S
H700 C720 0.950 . S
H701 C721 0.950 . S
H702 C723 0.950 . S
H703 C726 0.950 . S
H704 C727 0.950 . S
H705 C729 0.950 . S
H706 C730 0.950 . S
H707 C731 0.951 . S
H708 C733 0.951 . S
H709 C735 0.950 . S
H710 C736 0.950 . S
H711 C738 0.950 . S
H712 C741 0.950 . S
H713 C742 0.950 . S
H714 C744 0.950 . S
H715 C745 0.950 . S
C716 H698 0.951 . S
C716 C717 1.366 . S
C716 C718 1.388 . S
C717 C716 1.366 . S
C717 C721 1.385 . S
C718 H699 0.951 . S
C718 C716 1.388 . S
C718 C719 1.366 . S
C719 C718 1.366 . S
C719 C720 1.414 . S
C719 C722 1.499 . S
C720 H700 0.950 . S
C720 C719 1.414 . S
C720 C721 1.374 . S
C721 H701 0.950 . S
C721 C717 1.385 . S
C721 C720 1.374 . S
C722 C719 1.499 . S
C722 C723 1.373 . S
C722 C724 1.389 . S
C723 H702 0.950 . S
C723 C722 1.373 . S
C723 C739 1.377 . S
C724 C722 1.389 . S
C724 C725 1.524 . S
C724 C738 1.377 . S
C725 C724 1.524 . S
C725 C726 1.397 . S
C725 C730 1.363 . S
C726 H703 0.950 . S
C726 C725 1.397 . S
C726 C727 1.334 . S
C727 H704 0.950 . S
C727 C726 1.334 . S
C727 C728 1.287 . S
C728 C727 1.287 . S
C728 C729 1.524 . S
C728 H747 0.913 . S
C729 H705 0.950 . S
C729 C728 1.524 . S
C729 C730 1.415 . S
C730 H706 0.950 . S
C730 C725 1.363 . S
C730 C729 1.415 . S
C731 H707 0.951 . S
C731 C732 1.366 . S
C731 C733 1.388 . S
C732 C731 1.366 . S
C732 C736 1.385 . S
C733 H708 0.951 . S
C733 C731 1.388 . S
C733 C734 1.366 . S
C734 C733 1.366 . S
C734 C735 1.414 . S
C734 C737 1.499 . S
C735 H709 0.950 . S
C735 C734 1.414 . S
C735 C736 1.374 . S
C736 H710 0.950 . S
C736 C732 1.385 . S
C736 C735 1.374 . S
C737 C734 1.499 . S
C737 C738 1.373 . S
C737 C739 1.389 . S
C738 H711 0.950 . S
C738 C724 1.377 . S
C738 C737 1.373 . S
C739 C723 1.377 . S
C739 C737 1.389 . S
C739 C740 1.524 . S
C740 C739 1.524 . S
C740 C741 1.397 . S
C740 C745 1.363 . S
C741 H712 0.950 . S
C741 C740 1.397 . S
C741 C742 1.334 . S
C742 H713 0.950 . S
C742 C741 1.334 . S
C742 C743 1.287 . S
C743 C742 1.287 . S
C743 C744 1.524 . S
C743 H746 0.999 . S
C744 H714 0.950 . S
C744 C743 1.524 . S
C744 C745 1.415 . S
C745 H715 0.950 . S
C745 C740 1.363 . S
C745 C744 1.415 . S
H746 C743 0.999 . S
H747 C728 0.913 . S
H748 C766 0.951 . S
H749 C768 0.951 . S
H750 C770 0.950 . S
H751 C771 0.950 . S
H752 C773 0.950 . S
H753 C776 0.950 . S
H754 C777 0.950 . S
H755 C779 0.950 . S
H756 C780 0.950 . S
H757 C781 0.951 . S
H758 C783 0.951 . S
H759 C785 0.950 . S
H760 C786 0.950 . S
H761 C788 0.950 . S
H762 C791 0.950 . S
H763 C792 0.950 . S
H764 C794 0.950 . S
H765 C795 0.950 . S
C766 H748 0.951 . S
C766 C767 1.366 . S
C766 C768 1.388 . S
C767 C766 1.366 . S
C767 C771 1.385 . S
C768 H749 0.951 . S
C768 C766 1.388 . S
C768 C769 1.366 . S
C769 C768 1.366 . S
C769 C770 1.414 . S
C769 C772 1.499 . S
C770 H750 0.950 . S
C770 C769 1.414 . S
C770 C771 1.374 . S
C771 H751 0.950 . S
C771 C767 1.385 . S
C771 C770 1.374 . S
C772 C769 1.499 . S
C772 C773 1.373 1_565 S
C772 C774 1.389 . S
C773 H752 0.950 . S
C773 C772 1.373 1_545 S
C773 C789 1.377 . S
C774 C772 1.389 . S
C774 C775 1.524 . S
C774 C788 1.377 . S
C775 C774 1.524 . S
C775 C776 1.397 . S
C775 C780 1.363 . S
C776 H753 0.950 . S
C776 C775 1.397 . S
C776 C777 1.334 . S
C777 H754 0.950 . S
C777 C776 1.334 . S
C777 C778 1.287 . S
C778 C777 1.287 . S
C778 C779 1.524 . S
C778 H797 0.913 . S
C779 H755 0.950 . S
C779 C778 1.524 . S
C779 C780 1.415 . S
C780 H756 0.950 . S
C780 C775 1.363 . S
C780 C779 1.415 . S
C781 H757 0.951 . S
C781 C782 1.366 . S
C781 C783 1.388 . S
C782 C781 1.366 . S
C782 C786 1.385 . S
C783 H758 0.951 . S
C783 C781 1.388 . S
C783 C784 1.366 . S
C784 C783 1.366 . S
C784 C785 1.414 . S
C784 C787 1.499 . S
C785 H759 0.950 . S
C785 C784 1.414 . S
C785 C786 1.374 . S
C786 H760 0.950 . S
C786 C782 1.385 . S
C786 C785 1.374 . S
C787 C784 1.499 . S
C787 C788 1.373 1_545 S
C787 C789 1.389 . S
C788 H761 0.950 . S
C788 C774 1.377 . S
C788 C787 1.373 1_565 S
C789 C773 1.377 . S
C789 C787 1.389 . S
C789 C790 1.524 . S
C790 C789 1.524 . S
C790 C791 1.397 . S
C790 C795 1.363 . S
C791 H762 0.950 . S
C791 C790 1.397 . S
C791 C792 1.334 . S
C792 H763 0.950 . S
C792 C791 1.334 . S
C792 C793 1.287 . S
C793 C792 1.287 . S
C793 C794 1.524 . S
C793 H796 0.999 . S
C794 H764 0.950 . S
C794 C793 1.524 . S
C794 C795 1.415 . S
C795 H765 0.950 . S
C795 C790 1.363 . S
C795 C794 1.415 . S
H796 C793 0.999 . S
H797 C778 0.913 . S
H798 C816 0.951 . S
H799 C818 0.951 . S
H800 C820 0.950 . S
H801 C821 0.950 . S
H802 C823 0.950 . S
H803 C826 0.950 . S
H804 C827 0.950 . S
H805 C829 0.950 1_554 S
H806 C830 0.950 . S
H807 C831 0.951 . S
H808 C833 0.951 . S
H809 C835 0.950 . S
H810 C836 0.950 . S
H811 C838 0.950 . S
H812 C841 0.950 . S
H813 C842 0.950 . S
H814 C844 0.950 1_556 S
H815 C845 0.950 . S
C816 H798 0.951 . S
C816 C817 1.366 . S
C816 C818 1.388 . S
C817 C816 1.366 . S
C817 C821 1.385 . S
C818 H799 0.951 . S
C818 C816 1.388 . S
C818 C819 1.366 . S
C819 C818 1.366 . S
C819 C820 1.414 . S
C819 C822 1.499 . S
C820 H800 0.950 . S
C820 C819 1.414 . S
C820 C821 1.374 . S
C821 H801 0.950 . S
C821 C817 1.385 . S
C821 C820 1.374 . S
C822 C819 1.499 . S
C822 C823 1.373 . S
C822 C824 1.389 . S
C823 H802 0.950 . S
C823 C822 1.373 . S
C823 C839 1.377 1_556 S
C824 C822 1.389 . S
C824 C825 1.524 . S
C824 C838 1.377 1_556 S
C825 C824 1.524 . S
C825 C826 1.397 . S
C825 C830 1.363 1_556 S
C826 H803 0.950 . S
C826 C825 1.397 . S
C826 C827 1.334 . S
C827 H804 0.950 . S
C827 C826 1.334 . S
C827 C828 1.287 . S
C828 C827 1.287 . S
C828 C829 1.524 . S
C828 H847 0.913 . S
C829 H805 0.950 1_556 S
C829 C828 1.524 . S
C829 C830 1.415 1_556 S
C830 H806 0.950 . S
C830 C825 1.363 1_554 S
C830 C829 1.415 1_554 S
C831 H807 0.951 . S
C831 C832 1.366 . S
C831 C833 1.388 . S
C832 C831 1.366 . S
C832 C836 1.385 . S
C833 H808 0.951 . S
C833 C831 1.388 . S
C833 C834 1.366 . S
C834 C833 1.366 . S
C834 C835 1.414 . S
C834 C837 1.499 . S
C835 H809 0.950 . S
C835 C834 1.414 . S
C835 C836 1.374 . S
C836 H810 0.950 . S
C836 C832 1.385 . S
C836 C835 1.374 . S
C837 C834 1.499 . S
C837 C838 1.373 . S
C837 C839 1.389 . S
C838 H811 0.950 . S
C838 C824 1.377 1_554 S
C838 C837 1.373 . S
C839 C823 1.377 1_554 S
C839 C837 1.389 . S
C839 C840 1.524 . S
C840 C839 1.524 . S
C840 C841 1.397 . S
C840 C845 1.363 1_554 S
C841 H812 0.950 . S
C841 C840 1.397 . S
C841 C842 1.334 . S
C842 H813 0.950 . S
C842 C841 1.334 . S
C842 C843 1.287 . S
C843 C842 1.287 . S
C843 C844 1.524 . S
C843 H846 0.999 . S
C844 H814 0.950 1_554 S
C844 C843 1.524 . S
C844 C845 1.415 1_554 S
C845 H815 0.950 . S
C845 C840 1.363 1_556 S
C845 C844 1.415 1_556 S
H846 C843 0.999 . S
H847 C828 0.913 . S
H848 C866 0.951 . S
H849 C868 0.951 . S
H850 C870 0.950 . S
H851 C871 0.950 . S
H852 C873 0.950 . S
H853 C876 0.950 . S
H854 C877 0.950 . S
H855 C879 0.950 . S
H856 C880 0.950 . S
H857 C881 0.951 . S
H858 C883 0.951 . S
H859 C885 0.950 . S
H860 C886 0.950 . S
H861 C888 0.950 . S
H862 C891 0.950 . S
H863 C892 0.950 . S
H864 C894 0.950 . S
H865 C895 0.950 . S
C866 H848 0.951 . S
C866 C867 1.366 . S
C866 C868 1.388 . S
C867 C866 1.366 . S
C867 C871 1.385 . S
C868 H849 0.951 . S
C868 C866 1.388 . S
C868 C869 1.366 . S
C869 C868 1.366 . S
C869 C870 1.414 . S
C869 C872 1.499 . S
C870 H850 0.950 . S
C870 C869 1.414 . S
C870 C871 1.374 . S
C871 H851 0.950 . S
C871 C867 1.385 . S
C871 C870 1.374 . S
C872 C869 1.499 . S
C872 C873 1.373 . S
C872 C874 1.389 . S
C873 H852 0.950 . S
C873 C872 1.373 . S
C873 C889 1.377 . S
C874 C872 1.389 . S
C874 C875 1.524 . S
C874 C888 1.377 . S
C875 C874 1.524 . S
C875 C876 1.397 . S
C875 C880 1.363 . S
C876 H853 0.950 . S
C876 C875 1.397 . S
C876 C877 1.334 . S
C877 H854 0.950 . S
C877 C876 1.334 . S
C877 C878 1.287 . S
C878 C877 1.287 . S
C878 C879 1.524 . S
C878 H897 0.913 . S
C879 H855 0.950 . S
C879 C878 1.524 . S
C879 C880 1.415 . S
C880 H856 0.950 . S
C880 C875 1.363 . S
C880 C879 1.415 . S
C881 H857 0.951 . S
C881 C882 1.366 . S
C881 C883 1.388 . S
C882 C881 1.366 . S
C882 C886 1.385 . S
C883 H858 0.951 . S
C883 C881 1.388 . S
C883 C884 1.366 . S
C884 C883 1.366 . S
C884 C885 1.414 . S
C884 C887 1.499 . S
C885 H859 0.950 . S
C885 C884 1.414 . S
C885 C886 1.374 . S
C886 H860 0.950 . S
C886 C882 1.385 . S
C886 C885 1.374 . S
C887 C884 1.499 . S
C887 C888 1.373 . S
C887 C889 1.389 . S
C888 H861 0.950 . S
C888 C874 1.377 . S
C888 C887 1.373 . S
C889 C873 1.377 . S
C889 C887 1.389 . S
C889 C890 1.524 . S
C890 C889 1.524 . S
C890 C891 1.397 . S
C890 C895 1.363 . S
C891 H862 0.950 . S
C891 C890 1.397 . S
C891 C892 1.334 . S
C892 H863 0.950 . S
C892 C891 1.334 . S
C892 C893 1.287 . S
C893 C892 1.287 . S
C893 C894 1.524 . S
C893 H896 0.999 . S
C894 H864 0.950 . S
C894 C893 1.524 . S
C894 C895 1.415 . S
C895 H865 0.950 . S
C895 C890 1.363 . S
C895 C894 1.415 . S
H896 C893 0.999 . S
H897 C878 0.913 . S
H898 C916 0.951 . S
H899 C918 0.951 . S
H900 C920 0.950 . S
H901 C921 0.950 . S
H902 C923 0.950 . S
H903 C926 0.950 . S
H904 C927 0.950 . S
H905 C929 0.950 . S
H906 C930 0.950 . S
H907 C931 0.951 . S
H908 C933 0.951 . S
H909 C935 0.950 . S
H910 C936 0.950 . S
H911 C938 0.950 . S
H912 C941 0.950 . S
H913 C942 0.950 . S
H914 C944 0.950 . S
H915 C945 0.950 . S
C916 H898 0.951 . S
C916 C917 1.366 . S
C916 C918 1.388 . S
C917 C916 1.366 . S
C917 C921 1.385 . S
C918 H899 0.951 . S
C918 C916 1.388 . S
C918 C919 1.366 . S
C919 C918 1.366 . S
C919 C920 1.414 . S
C919 C922 1.499 . S
C920 H900 0.950 . S
C920 C919 1.414 . S
C920 C921 1.374 . S
C921 H901 0.950 . S
C921 C917 1.385 . S
C921 C920 1.374 . S
C922 C919 1.499 . S
C922 C923 1.373 . S
C922 C924 1.389 . S
C923 H902 0.950 . S
C923 C922 1.373 . S
C923 C939 1.377 1_556 S
C924 C922 1.389 . S
C924 C925 1.524 . S
C924 C938 1.377 1_556 S
C925 C924 1.524 . S
C925 C926 1.397 . S
C925 C930 1.363 1_556 S
C926 H903 0.950 . S
C926 C925 1.397 . S
C926 C927 1.334 . S
C927 H904 0.950 . S
C927 C926 1.334 . S
C927 C928 1.287 . S
C928 C927 1.287 . S
C928 C929 1.524 1_556 S
C928 H947 0.913 . S
C929 H905 0.950 . S
C929 C928 1.524 1_554 S
C929 C930 1.415 . S
C930 H906 0.950 . S
C930 C925 1.363 1_554 S
C930 C929 1.415 . S
C931 H907 0.951 . S
C931 C932 1.366 . S
C931 C933 1.388 . S
C932 C931 1.366 . S
C932 C936 1.385 . S
C933 H908 0.951 . S
C933 C931 1.388 . S
C933 C934 1.366 . S
C934 C933 1.366 . S
C934 C935 1.414 . S
C934 C937 1.499 . S
C935 H909 0.950 . S
C935 C934 1.414 . S
C935 C936 1.374 . S
C936 H910 0.950 . S
C936 C932 1.385 . S
C936 C935 1.374 . S
C937 C934 1.499 . S
C937 C938 1.373 . S
C937 C939 1.389 . S
C938 H911 0.950 . S
C938 C924 1.377 1_554 S
C938 C937 1.373 . S
C939 C923 1.377 1_554 S
C939 C937 1.389 . S
C939 C940 1.524 . S
C940 C939 1.524 . S
C940 C941 1.397 . S
C940 C945 1.363 1_554 S
C941 H912 0.950 . S
C941 C940 1.397 . S
C941 C942 1.334 . S
C942 H913 0.950 . S
C942 C941 1.334 . S
C942 C943 1.287 . S
C943 C942 1.287 . S
C943 C944 1.524 1_554 S
C943 H946 0.999 . S
C944 H914 0.950 . S
C944 C943 1.524 1_556 S
C944 C945 1.415 . S
C945 H915 0.950 . S
C945 C940 1.363 1_556 S
C945 C944 1.415 . S
H946 C943 0.999 . S
H947 C928 0.913 . S
H948 C966 0.951 . S
H949 C968 0.951 . S
H950 C970 0.950 . S
H951 C971 0.950 . S
H952 C973 0.950 . S
H953 C976 0.950 . S
H954 C977 0.950 . S
H955 C979 0.950 . S
H956 C980 0.950 . S
H957 C981 0.951 . S
H958 C983 0.951 . S
H959 C985 0.950 . S
H960 C986 0.950 . S
H961 C988 0.950 . S
H962 C991 0.950 . S
H963 C992 0.950 . S
H964 C994 0.950 . S
H965 C995 0.950 . S
C966 H948 0.951 . S
C966 C967 1.366 . S
C966 C968 1.388 . S
C967 C966 1.366 . S
C967 C971 1.385 . S
C968 H949 0.951 . S
C968 C966 1.388 . S
C968 C969 1.366 . S
C969 C968 1.366 . S
C969 C970 1.414 . S
C969 C972 1.499 . S
C970 H950 0.950 . S
C970 C969 1.414 . S
C970 C971 1.374 . S
C971 H951 0.950 . S
C971 C967 1.385 . S
C971 C970 1.374 . S
C972 C969 1.499 . S
C972 C973 1.373 . S
C972 C974 1.389 . S
C973 H952 0.950 . S
C973 C972 1.373 . S
C973 C989 1.377 . S
C974 C972 1.389 . S
C974 C975 1.524 . S
C974 C988 1.377 . S
C975 C974 1.524 . S
C975 C976 1.397 . S
C975 C980 1.363 . S
C976 H953 0.950 . S
C976 C975 1.397 . S
C976 C977 1.334 . S
C977 H954 0.950 . S
C977 C976 1.334 . S
C977 C978 1.287 . S
C978 C977 1.287 . S
C978 C979 1.524 . S
C978 H997 0.913 . S
C979 H955 0.950 . S
C979 C978 1.524 . S
C979 C980 1.415 . S
C980 H956 0.950 . S
C980 C975 1.363 . S
C980 C979 1.415 . S
C981 H957 0.951 . S
C981 C982 1.366 . S
C981 C983 1.388 . S
C982 C981 1.366 . S
C982 C986 1.385 . S
C983 H958 0.951 . S
C983 C981 1.388 . S
C983 C984 1.366 . S
C984 C983 1.366 . S
C984 C985 1.414 . S
C984 C987 1.499 . S
C985 H959 0.950 . S
C985 C984 1.414 . S
C985 C986 1.374 . S
C986 H960 0.950 . S
C986 C982 1.385 . S
C986 C985 1.374 . S
C987 C984 1.499 . S
C987 C988 1.373 . S
C987 C989 1.389 . S
C988 H961 0.950 . S
C988 C974 1.377 . S
C988 C987 1.373 . S
C989 C973 1.377 . S
C989 C987 1.389 . S
C989 C990 1.524 . S
C990 C989 1.524 . S
C990 C991 1.397 . S
C990 C995 1.363 . S
C991 H962 0.950 . S
C991 C990 1.397 . S
C991 C992 1.334 . S
C992 H963 0.950 . S
C992 C991 1.334 . S
C992 C993 1.287 . S
C993 C992 1.287 . S
C993 C994 1.524 . S
C993 H996 0.999 . S
C994 H964 0.950 . S
C994 C993 1.524 . S
C994 C995 1.415 . S
C995 H965 0.950 . S
C995 C990 1.363 . S
C995 C994 1.415 . S
H996 C993 0.999 . S
H997 C978 0.913 . S
H998 C1016 0.951 . S
H999 C1018 0.951 . S
H1000 C1020 0.950 . S
H1001 C1021 0.950 . S
H1002 C1023 0.950 . S
H1003 C1026 0.950 . S
H1004 C1027 0.950 . S
H1005 C1029 0.950 . S
H1006 C1030 0.950 . S
H1007 C1031 0.951 . S
H1008 C1033 0.951 . S
H1009 C1035 0.950 . S
H1010 C1036 0.950 . S
H1011 C1038 0.950 . S
H1012 C1041 0.950 . S
H1013 C1042 0.950 . S
H1014 C1044 0.950 . S
H1015 C1045 0.950 . S
C1016 H998 0.951 . S
C1016 C1017 1.366 . S
C1016 C1018 1.388 . S
C1017 C1016 1.366 . S
C1017 C1021 1.385 . S
C1018 H999 0.951 . S
C1018 C1016 1.388 . S
C1018 C1019 1.366 . S
C1019 C1018 1.366 . S
C1019 C1020 1.414 . S
C1019 C1022 1.499 . S
C1020 H1000 0.950 . S
C1020 C1019 1.414 . S
C1020 C1021 1.374 . S
C1021 H1001 0.950 . S
C1021 C1017 1.385 . S
C1021 C1020 1.374 . S
C1022 C1019 1.499 . S
C1022 C1023 1.373 . S
C1022 C1024 1.389 . S
C1023 H1002 0.950 . S
C1023 C1022 1.373 . S
C1023 C1039 1.377 . S
C1024 C1022 1.389 . S
C1024 C1025 1.524 . S
C1024 C1038 1.377 . S
C1025 C1024 1.524 . S
C1025 C1026 1.397 . S
C1025 C1030 1.363 . S
C1026 H1003 0.950 . S
C1026 C1025 1.397 . S
C1026 C1027 1.334 . S
C1027 H1004 0.950 . S
C1027 C1026 1.334 . S
C1027 C1028 1.287 . S
C1028 C1027 1.287 . S
C1028 C1029 1.524 . S
C1028 H1047 0.913 . S
C1029 H1005 0.950 . S
C1029 C1028 1.524 . S
C1029 C1030 1.415 . S
C1030 H1006 0.950 . S
C1030 C1025 1.363 . S
C1030 C1029 1.415 . S
C1031 H1007 0.951 . S
C1031 C1032 1.366 . S
C1031 C1033 1.388 . S
C1032 C1031 1.366 . S
C1032 C1036 1.385 . S
C1033 H1008 0.951 . S
C1033 C1031 1.388 . S
C1033 C1034 1.366 . S
C1034 C1033 1.366 . S
C1034 C1035 1.414 . S
C1034 C1037 1.499 . S
C1035 H1009 0.950 . S
C1035 C1034 1.414 . S
C1035 C1036 1.374 . S
C1036 H1010 0.950 . S
C1036 C1032 1.385 . S
C1036 C1035 1.374 . S
C1037 C1034 1.499 . S
C1037 C1038 1.373 . S
C1037 C1039 1.389 . S
C1038 H1011 0.950 . S
C1038 C1024 1.377 . S
C1038 C1037 1.373 . S
C1039 C1023 1.377 . S
C1039 C1037 1.389 . S
C1039 C1040 1.524 . S
C1040 C1039 1.524 . S
C1040 C1041 1.397 . S
C1040 C1045 1.363 . S
C1041 H1012 0.950 . S
C1041 C1040 1.397 . S
C1041 C1042 1.334 . S
C1042 H1013 0.950 . S
C1042 C1041 1.334 . S
C1042 C1043 1.287 . S
C1043 C1042 1.287 . S
C1043 C1044 1.524 . S
C1043 H1046 0.999 . S
C1044 H1014 0.950 . S
C1044 C1043 1.524 . S
C1044 C1045 1.415 . S
C1045 H1015 0.950 . S
C1045 C1040 1.363 . S
C1045 C1044 1.415 . S
H1046 C1043 0.999 . S
H1047 C1028 0.913 . S
H1048 C1066 0.951 . S
H1049 C1068 0.951 . S
H1050 C1070 0.950 . S
H1051 C1071 0.950 . S
H1052 C1073 0.950 . S
H1053 C1076 0.950 . S
H1054 C1077 0.950 . S
H1055 C1079 0.950 . S
H1056 C1080 0.950 . S
H1057 C1081 0.951 . S
H1058 C1083 0.951 . S
H1059 C1085 0.950 . S
H1060 C1086 0.950 . S
H1061 C1088 0.950 . S
H1062 C1091 0.950 . S
H1063 C1092 0.950 . S
H1064 C1094 0.950 . S
H1065 C1095 0.950 . S
C1066 H1048 0.951 . S
C1066 C1067 1.366 . S
C1066 C1068 1.388 . S
C1067 C1066 1.366 . S
C1067 C1071 1.385 . S
C1068 H1049 0.951 . S
C1068 C1066 1.388 . S
C1068 C1069 1.366 . S
C1069 C1068 1.366 . S
C1069 C1070 1.414 . S
C1069 C1072 1.499 . S
C1070 H1050 0.950 . S
C1070 C1069 1.414 . S
C1070 C1071 1.374 . S
C1071 H1051 0.950 . S
C1071 C1067 1.385 . S
C1071 C1070 1.374 . S
C1072 C1069 1.499 . S
C1072 C1073 1.373 . S
C1072 C1074 1.389 . S
C1073 H1052 0.950 . S
C1073 C1072 1.373 . S
C1073 C1089 1.377 . S
C1074 C1072 1.389 . S
C1074 C1075 1.524 . S
C1074 C1088 1.377 . S
C1075 C1074 1.524 . S
C1075 C1076 1.397 . S
C1075 C1080 1.363 . S
C1076 H1053 0.950 . S
C1076 C1075 1.397 . S
C1076 C1077 1.334 . S
C1077 H1054 0.950 . S
C1077 C1076 1.334 . S
C1077 C1078 1.287 . S
C1078 C1077 1.287 . S
C1078 C1079 1.524 . S
C1078 H1097 0.913 . S
C1079 H1055 0.950 . S
C1079 C1078 1.524 . S
C1079 C1080 1.415 . S
C1080 H1056 0.950 . S
C1080 C1075 1.363 . S
C1080 C1079 1.415 . S
C1081 H1057 0.951 . S
C1081 C1082 1.366 . S
C1081 C1083 1.388 . S
C1082 C1081 1.366 . S
C1082 C1086 1.385 . S
C1083 H1058 0.951 . S
C1083 C1081 1.388 . S
C1083 C1084 1.366 . S
C1084 C1083 1.366 . S
C1084 C1085 1.414 . S
C1084 C1087 1.499 . S
C1085 H1059 0.950 . S
C1085 C1084 1.414 . S
C1085 C1086 1.374 . S
C1086 H1060 0.950 . S
C1086 C1082 1.385 . S
C1086 C1085 1.374 . S
C1087 C1084 1.499 . S
C1087 C1088 1.373 . S
C1087 C1089 1.389 . S
C1088 H1061 0.950 . S
C1088 C1074 1.377 . S
C1088 C1087 1.373 . S
C1089 C1073 1.377 . S
C1089 C1087 1.389 . S
C1089 C1090 1.524 . S
C1090 C1089 1.524 . S
C1090 C1091 1.397 . S
C1090 C1095 1.363 . S
C1091 H1062 0.950 . S
C1091 C1090 1.397 . S
C1091 C1092 1.334 . S
C1092 H1063 0.950 . S
C1092 C1091 1.334 . S
C1092 C1093 1.287 . S
C1093 C1092 1.287 . S
C1093 C1094 1.524 . S
C1093 H1096 0.999 . S
C1094 H1064 0.950 . S
C1094 C1093 1.524 . S
C1094 C1095 1.415 . S
C1095 H1065 0.950 . S
C1095 C1090 1.363 . S
C1095 C1094 1.415 . S
H1096 C1093 0.999 . S
H1097 C1078 0.913 . S
H1098 C1116 0.951 . S
H1099 C1118 0.951 . S
H1100 C1120 0.950 . S
H1101 C1121 0.950 . S
H1102 C1123 0.950 . S
H1103 C1126 0.950 . S
H1104 C1127 0.950 . S
H1105 C1129 0.950 . S
H1106 C1130 0.950 . S
H1107 C1131 0.951 . S
H1108 C1133 0.951 . S
H1109 C1135 0.950 . S
H1110 C1136 0.950 . S
H1111 C1138 0.950 . S
H1112 C1141 0.950 . S
H1113 C1142 0.950 . S
H1114 C1144 0.950 . S
H1115 C1145 0.950 . S
C1116 H1098 0.951 . S
C1116 C1117 1.366 . S
C1116 C1118 1.388 . S
C1117 C1116 1.366 . S
C1117 C1121 1.385 . S
C1118 H1099 0.951 . S
C1118 C1116 1.388 . S
C1118 C1119 1.366 . S
C1119 C1118 1.366 . S
C1119 C1120 1.414 . S
C1119 C1122 1.499 . S
C1120 H1100 0.950 . S
C1120 C1119 1.414 . S
C1120 C1121 1.374 . S
C1121 H1101 0.950 . S
C1121 C1117 1.385 . S
C1121 C1120 1.374 . S
C1122 C1119 1.499 . S
C1122 C1123 1.373 1_554 S
C1122 C1124 1.389 . S
C1123 H1102 0.950 . S
C1123 C1122 1.373 1_556 S
C1123 C1139 1.377 . S
C1124 C1122 1.389 . S
C1124 C1125 1.524 . S
C1124 C1138 1.377 . S
C1125 C1124 1.524 . S
C1125 C1126 1.397 . S
C1125 C1130 1.363 . S
C1126 H1103 0.950 . S
C1126 C1125 1.397 . S
C1126 C1127 1.334 . S
C1127 H1104 0.950 . S
C1127 C1126 1.334 . S
C1127 C1128 1.287 . S
C1128 C1127 1.287 . S
C1128 C1129 1.524 . S
C1128 H1147 0.913 . S
C1129 H1105 0.950 . S
C1129 C1128 1.524 . S
C1129 C1130 1.415 . S
C1130 H1106 0.950 . S
C1130 C1125 1.363 . S
C1130 C1129 1.415 . S
C1131 H1107 0.951 . S
C1131 C1132 1.366 . S
C1131 C1133 1.388 . S
C1132 C1131 1.366 . S
C1132 C1136 1.385 . S
C1133 H1108 0.951 . S
C1133 C1131 1.388 . S
C1133 C1134 1.366 . S
C1134 C1133 1.366 . S
C1134 C1135 1.414 . S
C1134 C1137 1.499 . S
C1135 H1109 0.950 . S
C1135 C1134 1.414 . S
C1135 C1136 1.374 . S
C1136 H1110 0.950 . S
C1136 C1132 1.385 . S
C1136 C1135 1.374 . S
C1137 C1134 1.499 . S
C1137 C1138 1.373 1_556 S
C1137 C1139 1.389 . S
C1138 H1111 0.950 . S
C1138 C1124 1.377 . S
C1138 C1137 1.373 1_554 S
C1139 C1123 1.377 . S
C1139 C1137 1.389 . S
C1139 C1140 1.524 . S
C1140 C1139 1.524 . S
C1140 C1141 1.397 . S
C1140 C1145 1.363 . S
C1141 H1112 0.950 . S
C1141 C1140 1.397 . S
C1141 C1142 1.334 . S
C1142 H1113 0.950 . S
C1142 C1141 1.334 . S
C1142 C1143 1.287 . S
C1143 C1142 1.287 . S
C1143 C1144 1.524 . S
C1143 H1146 0.999 . S
C1144 H1114 0.950 . S
C1144 C1143 1.524 . S
C1144 C1145 1.415 . S
C1145 H1115 0.950 . S
C1145 C1140 1.363 . S
C1145 C1144 1.415 . S
H1146 C1143 0.999 . S
H1147 C1128 0.913 . S
H1148 C1166 0.951 . S
H1149 C1168 0.951 . S
H1150 C1170 0.950 . S
H1151 C1171 0.950 . S
H1152 C1173 0.950 . S
H1153 C1176 0.950 . S
H1154 C1177 0.950 . S
H1155 C1179 0.950 . S
H1156 C1180 0.950 . S
H1157 C1181 0.951 . S
H1158 C1183 0.951 . S
H1159 C1185 0.950 . S
H1160 C1186 0.950 . S
H1161 C1188 0.950 . S
H1162 C1191 0.950 . S
H1163 C1192 0.950 . S
H1164 C1194 0.950 . S
H1165 C1195 0.950 . S
C1166 H1148 0.951 . S
C1166 C1167 1.366 . S
C1166 C1168 1.388 . S
C1167 C1166 1.366 . S
C1167 C1171 1.385 . S
C1168 H1149 0.951 . S
C1168 C1166 1.388 . S
C1168 C1169 1.366 . S
C1169 C1168 1.366 . S
C1169 C1170 1.414 . S
C1169 C1172 1.499 . S
C1170 H1150 0.950 . S
C1170 C1169 1.414 . S
C1170 C1171 1.374 . S
C1171 H1151 0.950 . S
C1171 C1167 1.385 . S
C1171 C1170 1.374 . S
C1172 C1169 1.499 . S
C1172 C1173 1.373 . S
C1172 C1174 1.389 . S
C1173 H1152 0.950 . S
C1173 C1172 1.373 . S
C1173 C1189 1.377 . S
C1174 C1172 1.389 . S
C1174 C1175 1.524 . S
C1174 C1188 1.377 . S
C1175 C1174 1.524 . S
C1175 C1176 1.397 . S
C1175 C1180 1.363 . S
C1176 H1153 0.950 . S
C1176 C1175 1.397 . S
C1176 C1177 1.334 . S
C1177 H1154 0.950 . S
C1177 C1176 1.334 . S
C1177 C1178 1.287 . S
C1178 C1177 1.287 . S
C1178 C1179 1.524 . S
C1178 H1197 0.913 . S
C1179 H1155 0.950 . S
C1179 C1178 1.524 . S
C1179 C1180 1.415 . S
C1180 H1156 0.950 . S
C1180 C1175 1.363 . S
C1180 C1179 1.415 . S
C1181 H1157 0.951 . S
C1181 C1182 1.366 . S
C1181 C1183 1.388 . S
C1182 C1181 1.366 . S
C1182 C1186 1.385 . S
C1183 H1158 0.951 . S
C1183 C1181 1.388 . S
C1183 C1184 1.366 . S
C1184 C1183 1.366 . S
C1184 C1185 1.414 . S
C1184 C1187 1.499 . S
C1185 H1159 0.950 . S
C1185 C1184 1.414 . S
C1185 C1186 1.374 . S
C1186 H1160 0.950 . S
C1186 C1182 1.385 . S
C1186 C1185 1.374 . S
C1187 C1184 1.499 . S
C1187 C1188 1.373 . S
C1187 C1189 1.389 . S
C1188 H1161 0.950 . S
C1188 C1174 1.377 . S
C1188 C1187 1.373 . S
C1189 C1173 1.377 . S
C1189 C1187 1.389 . S
C1189 C1190 1.524 . S
C1190 C1189 1.524 . S
C1190 C1191 1.397 . S
C1190 C1195 1.363 . S
C1191 H1162 0.950 . S
C1191 C1190 1.397 . S
C1191 C1192 1.334 . S
C1192 H1163 0.950 . S
C1192 C1191 1.334 . S
C1192 C1193 1.287 . S
C1193 C1192 1.287 . S
C1193 C1194 1.524 . S
C1193 H1196 0.999 . S
C1194 H1164 0.950 . S
C1194 C1193 1.524 . S
C1194 C1195 1.415 . S
C1195 H1165 0.950 . S
C1195 C1190 1.363 . S
C1195 C1194 1.415 . S
H1196 C1193 0.999 . S
H1197 C1178 0.913 . S
H1198 C1216 0.951 . S
H1199 C1218 0.951 . S
H1200 C1220 0.950 . S
H1201 C1221 0.950 . S
H1202 C1223 0.950 . S
H1203 C1226 0.950 . S
H1204 C1227 0.950 . S
H1205 C1229 0.950 . S
H1206 C1230 0.950 . S
H1207 C1231 0.951 . S
H1208 C1233 0.951 . S
H1209 C1235 0.950 . S
H1210 C1236 0.950 . S
H1211 C1238 0.950 . S
H1212 C1241 0.950 . S
H1213 C1242 0.950 . S
H1214 C1244 0.950 . S
H1215 C1245 0.950 . S
C1216 H1198 0.951 . S
C1216 C1217 1.366 . S
C1216 C1218 1.388 . S
C1217 C1216 1.366 . S
C1217 C1221 1.385 . S
C1218 H1199 0.951 . S
C1218 C1216 1.388 . S
C1218 C1219 1.366 . S
C1219 C1218 1.366 . S
C1219 C1220 1.414 . S
C1219 C1222 1.499 . S
C1220 H1200 0.950 . S
C1220 C1219 1.414 . S
C1220 C1221 1.374 . S
C1221 H1201 0.950 . S
C1221 C1217 1.385 . S
C1221 C1220 1.374 . S
C1222 C1219 1.499 . S
C1222 C1223 1.373 . S
C1222 C1224 1.389 . S
C1223 H1202 0.950 . S
C1223 C1222 1.373 . S
C1223 C1239 1.377 . S
C1224 C1222 1.389 . S
C1224 C1225 1.524 . S
C1224 C1238 1.377 . S
C1225 C1224 1.524 . S
C1225 C1226 1.397 . S
C1225 C1230 1.363 . S
C1226 H1203 0.950 . S
C1226 C1225 1.397 . S
C1226 C1227 1.334 . S
C1227 H1204 0.950 . S
C1227 C1226 1.334 . S
C1227 C1228 1.287 . S
C1228 C1227 1.287 . S
C1228 C1229 1.524 . S
C1228 H1247 0.913 . S
C1229 H1205 0.950 . S
C1229 C1228 1.524 . S
C1229 C1230 1.415 . S
C1230 H1206 0.950 . S
C1230 C1225 1.363 . S
C1230 C1229 1.415 . S
C1231 H1207 0.951 . S
C1231 C1232 1.366 . S
C1231 C1233 1.388 . S
C1232 C1231 1.366 . S
C1232 C1236 1.385 . S
C1233 H1208 0.951 . S
C1233 C1231 1.388 . S
C1233 C1234 1.366 . S
C1234 C1233 1.366 . S
C1234 C1235 1.414 . S
C1234 C1237 1.499 . S
C1235 H1209 0.950 . S
C1235 C1234 1.414 . S
C1235 C1236 1.374 . S
C1236 H1210 0.950 . S
C1236 C1232 1.385 . S
C1236 C1235 1.374 . S
C1237 C1234 1.499 . S
C1237 C1238 1.373 . S
C1237 C1239 1.389 . S
C1238 H1211 0.950 . S
C1238 C1224 1.377 . S
C1238 C1237 1.373 . S
C1239 C1223 1.377 . S
C1239 C1237 1.389 . S
C1239 C1240 1.524 . S
C1240 C1239 1.524 . S
C1240 C1241 1.397 . S
C1240 C1245 1.363 . S
C1241 H1212 0.950 . S
C1241 C1240 1.397 . S
C1241 C1242 1.334 . S
C1242 H1213 0.950 . S
C1242 C1241 1.334 . S
C1242 C1243 1.287 . S
C1243 C1242 1.287 . S
C1243 C1244 1.524 . S
C1243 H1246 0.999 . S
C1244 H1214 0.950 . S
C1244 C1243 1.524 . S
C1244 C1245 1.415 . S
C1245 H1215 0.950 . S
C1245 C1240 1.363 . S
C1245 C1244 1.415 . S
H1246 C1243 0.999 . S
H1247 C1228 0.913 . S
H1248 C1266 0.951 . S
H1249 C1268 0.951 . S
H1250 C1270 0.950 . S
H1251 C1271 0.950 . S
H1252 C1273 0.950 . S
H1253 C1276 0.950 . S
H1254 C1277 0.950 . S
H1255 C1279 0.950 . S
H1256 C1280 0.950 . S
H1257 C1281 0.951 . S
H1258 C1283 0.951 . S
H1259 C1285 0.950 . S
H1260 C1286 0.950 . S
H1261 C1288 0.950 . S
H1262 C1291 0.950 . S
H1263 C1292 0.950 . S
H1264 C1294 0.950 . S
H1265 C1295 0.950 . S
C1266 H1248 0.951 . S
C1266 C1267 1.366 . S
C1266 C1268 1.388 . S
C1267 C1266 1.366 . S
C1267 C1271 1.385 . S
C1268 H1249 0.951 . S
C1268 C1266 1.388 . S
C1268 C1269 1.366 . S
C1269 C1268 1.366 . S
C1269 C1270 1.414 . S
C1269 C1272 1.499 . S
C1270 H1250 0.950 . S
C1270 C1269 1.414 . S
C1270 C1271 1.374 . S
C1271 H1251 0.950 . S
C1271 C1267 1.385 . S
C1271 C1270 1.374 . S
C1272 C1269 1.499 . S
C1272 C1273 1.373 . S
C1272 C1274 1.389 . S
C1273 H1252 0.950 . S
C1273 C1272 1.373 . S
C1273 C1289 1.377 . S
C1274 C1272 1.389 . S
C1274 C1275 1.524 . S
C1274 C1288 1.377 . S
C1275 C1274 1.524 . S
C1275 C1276 1.397 . S
C1275 C1280 1.363 . S
C1276 H1253 0.950 . S
C1276 C1275 1.397 . S
C1276 C1277 1.334 . S
C1277 H1254 0.950 . S
C1277 C1276 1.334 . S
C1277 C1278 1.287 . S
C1278 C1277 1.287 . S
C1278 C1279 1.524 . S
C1278 H1297 0.913 . S
C1279 H1255 0.950 . S
C1279 C1278 1.524 . S
C1279 C1280 1.415 . S
C1280 H1256 0.950 . S
C1280 C1275 1.363 . S
C1280 C1279 1.415 . S
C1281 H1257 0.951 . S
C1281 C1282 1.366 . S
C1281 C1283 1.388 . S
C1282 C1281 1.366 . S
C1282 C1286 1.385 . S
C1283 H1258 0.951 . S
C1283 C1281 1.388 . S
C1283 C1284 1.366 . S
C1284 C1283 1.366 . S
C1284 C1285 1.414 . S
C1284 C1287 1.499 . S
C1285 H1259 0.950 . S
C1285 C1284 1.414 . S
C1285 C1286 1.374 . S
C1286 H1260 0.950 . S
C1286 C1282 1.385 . S
C1286 C1285 1.374 . S
C1287 C1284 1.499 . S
C1287 C1288 1.373 . S
C1287 C1289 1.389 . S
C1288 H1261 0.950 . S
C1288 C1274 1.377 . S
C1288 C1287 1.373 . S
C1289 C1273 1.377 . S
C1289 C1287 1.389 . S
C1289 C1290 1.524 . S
C1290 C1289 1.524 . S
C1290 C1291 1.397 . S
C1290 C1295 1.363 . S
C1291 H1262 0.950 . S
C1291 C1290 1.397 . S
C1291 C1292 1.334 . S
C1292 H1263 0.950 . S
C1292 C1291 1.334 . S
C1292 C1293 1.287 . S
C1293 C1292 1.287 . S
C1293 C1294 1.524 . S
C1293 H1296 0.999 . S
C1294 H1264 0.950 . S
C1294 C1293 1.524 . S
C1294 C1295 1.415 . S
C1295 H1265 0.950 . S
C1295 C1290 1.363 . S
C1295 C1294 1.415 . S
H1296 C1293 0.999 . S
H1297 C1278 0.913 . S
H1298 C1316 0.951 . S
H1299 C1318 0.951 . S
H1300 C1320 0.950 . S
H1301 C1321 0.950 . S
H1302 C1323 0.950 . S
H1303 C1326 0.950 . S
H1304 C1327 0.950 . S
H1305 C1329 0.951 . S
H1306 C1330 0.950 . S
H1307 C1331 0.951 . S
H1308 C1333 0.951 . S
H1309 C1335 0.950 . S
H1310 C1336 0.950 . S
H1311 C1338 0.950 . S
H1312 C1341 0.950 . S
H1313 C1342 0.950 . S
H1314 C1344 0.950 . S
H1315 C1345 0.950 . S
C1316 H1298 0.951 . S
C1316 C1317 1.366 . S
C1316 C1318 1.388 . S
C1317 C1316 1.366 . S
C1317 C1321 1.385 . S
C1318 H1299 0.951 . S
C1318 C1316 1.388 . S
C1318 C1319 1.366 . S
C1319 C1318 1.366 . S
C1319 C1320 1.414 . S
C1319 C1322 1.499 1_655 S
C1320 H1300 0.950 . S
C1320 C1319 1.414 . S
C1320 C1321 1.374 . S
C1321 H1301 0.950 . S
C1321 C1317 1.385 . S
C1321 C1320 1.374 . S
C1322 C1319 1.499 1_455 S
C1322 C1323 1.373 . S
C1322 C1324 1.389 . S
C1323 H1302 0.950 . S
C1323 C1322 1.373 . S
C1323 C1339 1.377 . S
C1324 C1322 1.389 . S
C1324 C1325 1.524 . S
C1324 C1338 1.377 . S
C1325 C1324 1.524 . S
C1325 C1326 1.397 1_455 S
C1325 C1330 1.363 . S
C1326 H1303 0.950 . S
C1326 C1325 1.397 1_655 S
C1326 C1327 1.334 . S
C1327 H1304 0.950 . S
C1327 C1326 1.334 . S
C1327 C1328 1.287 . S
C1328 C1327 1.287 . S
C1328 C1329 1.515 1_655 S
C1328 H1347 0.913 . S
C1329 H1305 0.951 . S
C1329 C1328 1.515 1_455 S
C1329 C1330 1.422 . S
C1330 H1306 0.950 . S
C1330 C1325 1.363 . S
C1330 C1329 1.422 . S
C1331 H1307 0.951 . S
C1331 C1332 1.366 . S
C1331 C1333 1.388 . S
C1332 C1331 1.366 . S
C1332 C1336 1.385 . S
C1333 H1308 0.951 . S
C1333 C1331 1.388 . S
C1333 C1334 1.366 . S
C1334 C1333 1.366 . S
C1334 C1335 1.414 . S
C1334 C1337 1.499 . S
C1335 H1309 0.950 . S
C1335 C1334 1.414 . S
C1335 C1336 1.374 . S
C1336 H1310 0.950 . S
C1336 C1332 1.385 . S
C1336 C1335 1.374 . S
C1337 C1334 1.499 . S
C1337 C1338 1.373 . S
C1337 C1339 1.389 . S
C1338 H1311 0.950 . S
C1338 C1324 1.377 . S
C1338 C1337 1.373 . S
C1339 C1323 1.377 . S
C1339 C1337 1.389 . S
C1339 C1340 1.524 . S
C1340 C1339 1.524 . S
C1340 C1341 1.397 . S
C1340 C1345 1.363 . S
C1341 H1312 0.950 . S
C1341 C1340 1.397 . S
C1341 C1342 1.334 . S
C1342 H1313 0.950 . S
C1342 C1341 1.334 . S
C1342 C1343 1.287 . S
C1343 C1342 1.287 . S
C1343 C1344 1.524 . S
C1343 H1346 0.999 . S
C1344 H1314 0.950 . S
C1344 C1343 1.524 . S
C1344 C1345 1.415 . S
C1345 H1315 0.950 . S
C1345 C1340 1.363 . S
C1345 C1344 1.415 . S
H1346 C1343 0.999 . S
H1347 C1328 0.913 . S
H1348 C1366 0.951 . S
H1349 C1368 0.951 . S
H1350 C1370 0.950 . S
H1351 C1371 0.950 . S
H1352 C1373 0.950 . S
H1353 C1376 0.950 . S
H1354 C1377 0.950 . S
H1355 C1379 0.950 . S
H1356 C1380 0.950 . S
H1357 C1381 0.951 . S
H1358 C1383 0.951 . S
H1359 C1385 0.950 . S
H1360 C1386 0.950 . S
H1361 C1388 0.950 . S
H1362 C1391 0.950 . S
H1363 C1392 0.950 . S
H1364 C1394 0.950 . S
H1365 C1395 0.950 . S
C1366 H1348 0.951 . S
C1366 C1367 1.366 . S
C1366 C1368 1.388 . S
C1367 C1366 1.366 . S
C1367 C1371 1.385 . S
C1368 H1349 0.951 . S
C1368 C1366 1.388 . S
C1368 C1369 1.366 . S
C1369 C1368 1.366 . S
C1369 C1370 1.414 . S
C1369 C1372 1.499 . S
C1370 H1350 0.950 . S
C1370 C1369 1.414 . S
C1370 C1371 1.374 . S
C1371 H1351 0.950 . S
C1371 C1367 1.385 . S
C1371 C1370 1.374 . S
C1372 C1369 1.499 . S
C1372 C1373 1.373 . S
C1372 C1374 1.389 . S
C1373 H1352 0.950 . S
C1373 C1372 1.373 . S
C1373 C1389 1.377 . S
C1374 C1372 1.389 . S
C1374 C1375 1.524 . S
C1374 C1388 1.377 . S
C1375 C1374 1.524 . S
C1375 C1376 1.397 . S
C1375 C1380 1.363 . S
C1376 H1353 0.950 . S
C1376 C1375 1.397 . S
C1376 C1377 1.334 . S
C1377 H1354 0.950 . S
C1377 C1376 1.334 . S
C1377 C1378 1.287 . S
C1378 C1377 1.287 . S
C1378 C1379 1.524 . S
C1378 H1397 0.913 . S
C1379 H1355 0.950 . S
C1379 C1378 1.524 . S
C1379 C1380 1.415 . S
C1380 H1356 0.950 . S
C1380 C1375 1.363 . S
C1380 C1379 1.415 . S
C1381 H1357 0.951 . S
C1381 C1382 1.366 . S
C1381 C1383 1.388 . S
C1382 C1381 1.366 . S
C1382 C1386 1.385 . S
C1383 H1358 0.951 . S
C1383 C1381 1.388 . S
C1383 C1384 1.366 . S
C1384 C1383 1.366 . S
C1384 C1385 1.414 . S
C1384 C1387 1.499 . S
C1385 H1359 0.950 . S
C1385 C1384 1.414 . S
C1385 C1386 1.374 . S
C1386 H1360 0.950 . S
C1386 C1382 1.385 . S
C1386 C1385 1.374 . S
C1387 C1384 1.499 . S
C1387 C1388 1.373 . S
C1387 C1389 1.389 . S
C1388 H1361 0.950 . S
C1388 C1374 1.377 . S
C1388 C1387 1.373 . S
C1389 C1373 1.377 . S
C1389 C1387 1.389 . S
C1389 C1390 1.524 . S
C1390 C1389 1.524 . S
C1390 C1391 1.397 . S
C1390 C1395 1.363 . S
C1391 H1362 0.950 . S
C1391 C1390 1.397 . S
C1391 C1392 1.334 . S
C1392 H1363 0.950 . S
C1392 C1391 1.334 . S
C1392 C1393 1.287 . S
C1393 C1392 1.287 . S
C1393 C1394 1.524 . S
C1393 H1396 0.999 . S
C1394 H1364 0.950 . S
C1394 C1393 1.524 . S
C1394 C1395 1.415 . S
C1395 H1365 0.950 . S
C1395 C1390 1.363 . S
C1395 C1394 1.415 . S
H1396 C1393 0.999 . S
H1397 C1378 0.913 . S
H1398 C1416 0.951 . S
H1399 C1418 0.951 . S
H1400 C1420 0.950 . S
H1401 C1421 0.950 . S
H1402 C1423 0.950 . S
H1403 C1426 0.950 . S
H1404 C1427 0.950 . S
H1405 C1429 0.950 . S
H1406 C1430 0.950 . S
H1407 C1431 0.951 . S
H1408 C1433 0.951 . S
H1409 C1435 0.950 . S
H1410 C1436 0.950 . S
H1411 C1438 0.950 . S
H1412 C1441 0.950 . S
H1413 C1442 0.950 . S
H1414 C1444 0.950 . S
H1415 C1445 0.950 . S
C1416 H1398 0.951 . S
C1416 C1417 1.366 . S
C1416 C1418 1.388 . S
C1417 C1416 1.366 . S
C1417 C1421 1.385 . S
C1418 H1399 0.951 . S
C1418 C1416 1.388 . S
C1418 C1419 1.366 . S
C1419 C1418 1.366 . S
C1419 C1420 1.414 . S
C1419 C1422 1.499 . S
C1420 H1400 0.950 . S
C1420 C1419 1.414 . S
C1420 C1421 1.374 . S
C1421 H1401 0.950 . S
C1421 C1417 1.385 . S
C1421 C1420 1.374 . S
C1422 C1419 1.499 . S
C1422 C1423 1.373 . S
C1422 C1424 1.389 . S
C1423 H1402 0.950 . S
C1423 C1422 1.373 . S
C1423 C1439 1.377 . S
C1424 C1422 1.389 . S
C1424 C1425 1.524 . S
C1424 C1438 1.377 . S
C1425 C1424 1.524 . S
C1425 C1426 1.397 . S
C1425 C1430 1.363 . S
C1426 H1403 0.950 . S
C1426 C1425 1.397 . S
C1426 C1427 1.334 . S
C1427 H1404 0.950 . S
C1427 C1426 1.334 . S
C1427 C1428 1.287 . S
C1428 C1427 1.287 . S
C1428 C1429 1.524 . S
C1428 H1447 0.913 . S
C1429 H1405 0.950 . S
C1429 C1428 1.524 . S
C1429 C1430 1.415 . S
C1430 H1406 0.950 . S
C1430 C1425 1.363 . S
C1430 C1429 1.415 . S
C1431 H1407 0.951 . S
C1431 C1432 1.366 . S
C1431 C1433 1.388 . S
C1432 C1431 1.366 . S
C1432 C1436 1.385 . S
C1433 H1408 0.951 . S
C1433 C1431 1.388 . S
C1433 C1434 1.366 . S
C1434 C1433 1.366 . S
C1434 C1435 1.414 . S
C1434 C1437 1.499 . S
C1435 H1409 0.950 . S
C1435 C1434 1.414 . S
C1435 C1436 1.374 . S
C1436 H1410 0.950 . S
C1436 C1432 1.385 . S
C1436 C1435 1.374 . S
C1437 C1434 1.499 . S
C1437 C1438 1.373 . S
C1437 C1439 1.389 . S
C1438 H1411 0.950 . S
C1438 C1424 1.377 . S
C1438 C1437 1.373 . S
C1439 C1423 1.377 . S
C1439 C1437 1.389 . S
C1439 C1440 1.524 . S
C1440 C1439 1.524 . S
C1440 C1441 1.397 . S
C1440 C1445 1.363 . S
C1441 H1412 0.950 . S
C1441 C1440 1.397 . S
C1441 C1442 1.334 . S
C1442 H1413 0.950 . S
C1442 C1441 1.334 . S
C1442 C1443 1.287 . S
C1443 C1442 1.287 . S
C1443 C1444 1.524 . S
C1443 H1446 0.999 . S
C1444 H1414 0.950 . S
C1444 C1443 1.524 . S
C1444 C1445 1.415 . S
C1445 H1415 0.950 . S
C1445 C1440 1.363 . S
C1445 C1444 1.415 . S
H1446 C1443 0.999 . S
H1447 C1428 0.913 . S
H1448 C1466 0.951 . S
H1449 C1468 0.951 . S
H1450 C1470 0.950 . S
H1451 C1471 0.950 . S
H1452 C1473 0.950 . S
H1453 C1476 0.950 . S
H1454 C1477 0.950 . S
H1455 C1479 0.950 . S
H1456 C1480 0.950 . S
H1457 C1481 0.951 . S
H1458 C1483 0.951 . S
H1459 C1485 0.950 . S
H1460 C1486 0.950 . S
H1461 C1488 0.950 . S
H1462 C1491 0.950 . S
H1463 C1492 0.950 . S
H1464 C1494 0.950 . S
H1465 C1495 0.950 . S
C1466 H1448 0.951 . S
C1466 C1467 1.366 . S
C1466 C1468 1.388 . S
C1467 C1466 1.366 . S
C1467 C1471 1.385 . S
C1468 H1449 0.951 . S
C1468 C1466 1.388 . S
C1468 C1469 1.366 . S
C1469 C1468 1.366 . S
C1469 C1470 1.414 . S
C1469 C1472 1.499 . S
C1470 H1450 0.950 . S
C1470 C1469 1.414 . S
C1470 C1471 1.374 . S
C1471 H1451 0.950 . S
C1471 C1467 1.385 . S
C1471 C1470 1.374 . S
C1472 C1469 1.499 . S
C1472 C1473 1.373 . S
C1472 C1474 1.389 . S
C1473 H1452 0.950 . S
C1473 C1472 1.373 . S
C1473 C1489 1.377 . S
C1474 C1472 1.389 . S
C1474 C1475 1.524 . S
C1474 C1488 1.377 . S
C1475 C1474 1.524 . S
C1475 C1476 1.397 . S
C1475 C1480 1.363 . S
C1476 H1453 0.950 . S
C1476 C1475 1.397 . S
C1476 C1477 1.334 . S
C1477 H1454 0.950 . S
C1477 C1476 1.334 . S
C1477 C1478 1.287 . S
C1478 C1477 1.287 . S
C1478 C1479 1.524 . S
C1478 H1497 0.913 . S
C1479 H1455 0.950 . S
C1479 C1478 1.524 . S
C1479 C1480 1.415 . S
C1480 H1456 0.950 . S
C1480 C1475 1.363 . S
C1480 C1479 1.415 . S
C1481 H1457 0.951 . S
C1481 C1482 1.366 . S
C1481 C1483 1.388 . S
C1482 C1481 1.366 . S
C1482 C1486 1.385 . S
C1483 H1458 0.951 . S
C1483 C1481 1.388 . S
C1483 C1484 1.366 . S
C1484 C1483 1.366 . S
C1484 C1485 1.414 . S
C1484 C1487 1.499 . S
C1485 H1459 0.950 . S
C1485 C1484 1.414 . S
C1485 C1486 1.374 . S
C1486 H1460 0.950 . S
C1486 C1482 1.385 . S
C1486 C1485 1.374 . S
C1487 C1484 1.499 . S
C1487 C1488 1.373 . S
C1487 C1489 1.389 . S
C1488 H1461 0.950 . S
C1488 C1474 1.377 . S
C1488 C1487 1.373 . S
C1489 C1473 1.377 . S
C1489 C1487 1.389 . S
C1489 C1490 1.524 . S
C1490 C1489 1.524 . S
C1490 C1491 1.397 . S
C1490 C1495 1.363 . S
C1491 H1462 0.950 . S
C1491 C1490 1.397 . S
C1491 C1492 1.334 . S
C1492 H1463 0.950 . S
C1492 C1491 1.334 . S
C1492 C1493 1.287 . S
C1493 C1492 1.287 . S
C1493 C1494 1.524 . S
C1493 H1496 0.999 . S
C1494 H1464 0.950 . S
C1494 C1493 1.524 . S
C1494 C1495 1.415 . S
C1495 H1465 0.950 . S
C1495 C1490 1.363 . S
C1495 C1494 1.415 . S
H1496 C1493 0.999 . S
H1497 C1478 0.913 . S
H1498 C1516 0.951 . S
H1499 C1518 0.951 . S
H1500 C1520 0.950 . S
H1501 C1521 0.950 . S
H1502 C1523 0.950 . S
H1503 C1526 0.950 . S
H1504 C1527 0.950 . S
H1505 C1529 0.950 . S
H1506 C1530 0.950 . S
H1507 C1531 0.951 . S
H1508 C1533 0.951 . S
H1509 C1535 0.950 . S
H1510 C1536 0.950 . S
H1511 C1538 0.950 . S
H1512 C1541 0.950 . S
H1513 C1542 0.950 . S
H1514 C1544 0.950 . S
H1515 C1545 0.950 . S
C1516 H1498 0.951 . S
C1516 C1517 1.366 . S
C1516 C1518 1.388 . S
C1517 C1516 1.366 . S
C1517 C1521 1.385 . S
C1518 H1499 0.951 . S
C1518 C1516 1.388 . S
C1518 C1519 1.366 . S
C1519 C1518 1.366 . S
C1519 C1520 1.414 . S
C1519 C1522 1.499 . S
C1520 H1500 0.950 . S
C1520 C1519 1.414 . S
C1520 C1521 1.374 . S
C1521 H1501 0.950 . S
C1521 C1517 1.385 . S
C1521 C1520 1.374 . S
C1522 C1519 1.499 . S
C1522 C1523 1.373 . S
C1522 C1524 1.389 . S
C1523 H1502 0.950 . S
C1523 C1522 1.373 . S
C1523 C1539 1.377 . S
C1524 C1522 1.389 . S
C1524 C1525 1.524 . S
C1524 C1538 1.377 . S
C1525 C1524 1.524 . S
C1525 C1526 1.397 . S
C1525 C1530 1.363 . S
C1526 H1503 0.950 . S
C1526 C1525 1.397 . S
C1526 C1527 1.334 . S
C1527 H1504 0.950 . S
C1527 C1526 1.334 . S
C1527 C1528 1.287 . S
C1528 C1527 1.287 . S
C1528 C1529 1.524 . S
C1528 H1547 0.913 . S
C1529 H1505 0.950 . S
C1529 C1528 1.524 . S
C1529 C1530 1.415 . S
C1530 H1506 0.950 . S
C1530 C1525 1.363 . S
C1530 C1529 1.415 . S
C1531 H1507 0.951 . S
C1531 C1532 1.366 . S
C1531 C1533 1.388 . S
C1532 C1531 1.366 . S
C1532 C1536 1.385 . S
C1533 H1508 0.951 . S
C1533 C1531 1.388 . S
C1533 C1534 1.366 . S
C1534 C1533 1.366 . S
C1534 C1535 1.414 . S
C1534 C1537 1.499 . S
C1535 H1509 0.950 . S
C1535 C1534 1.414 . S
C1535 C1536 1.374 . S
C1536 H1510 0.950 . S
C1536 C1532 1.385 . S
C1536 C1535 1.374 . S
C1537 C1534 1.499 . S
C1537 C1538 1.373 . S
C1537 C1539 1.389 . S
C1538 H1511 0.950 . S
C1538 C1524 1.377 . S
C1538 C1537 1.373 . S
C1539 C1523 1.377 . S
C1539 C1537 1.389 . S
C1539 C1540 1.524 . S
C1540 C1539 1.524 . S
C1540 C1541 1.397 . S
C1540 C1545 1.363 . S
C1541 H1512 0.950 . S
C1541 C1540 1.397 . S
C1541 C1542 1.334 . S
C1542 H1513 0.950 . S
C1542 C1541 1.334 . S
C1542 C1543 1.287 . S
C1543 C1542 1.287 . S
C1543 C1544 1.524 . S
C1543 H1546 0.999 . S
C1544 H1514 0.950 . S
C1544 C1543 1.524 . S
C1544 C1545 1.415 . S
C1545 H1515 0.950 . S
C1545 C1540 1.363 . S
C1545 C1544 1.415 . S
H1546 C1543 0.999 . S
H1547 C1528 0.913 . S
H1548 C1566 0.951 . S
H1549 C1568 0.951 . S
H1550 C1570 0.950 . S
H1551 C1571 0.950 . S
H1552 C1573 0.950 . S
H1553 C1576 0.950 . S
H1554 C1577 0.950 . S
H1555 C1579 0.950 . S
H1556 C1580 0.950 . S
H1557 C1581 0.951 . S
H1558 C1583 0.951 . S
H1559 C1585 0.950 . S
H1560 C1586 0.950 . S
H1561 C1588 0.950 . S
H1562 C1591 0.950 . S
H1563 C1592 0.950 . S
H1564 C1594 0.950 . S
H1565 C1595 0.950 . S
C1566 H1548 0.951 . S
C1566 C1567 1.366 . S
C1566 C1568 1.388 . S
C1567 C1566 1.366 . S
C1567 C1571 1.385 . S
C1568 H1549 0.951 . S
C1568 C1566 1.388 . S
C1568 C1569 1.366 . S
C1569 C1568 1.366 . S
C1569 C1570 1.414 . S
C1569 C1572 1.499 . S
C1570 H1550 0.950 . S
C1570 C1569 1.414 . S
C1570 C1571 1.374 . S
C1571 H1551 0.950 . S
C1571 C1567 1.385 . S
C1571 C1570 1.374 . S
C1572 C1569 1.499 . S
C1572 C1573 1.373 . S
C1572 C1574 1.389 . S
C1573 H1552 0.950 . S
C1573 C1572 1.373 . S
C1573 C1589 1.377 . S
C1574 C1572 1.389 . S
C1574 C1575 1.524 . S
C1574 C1588 1.377 . S
C1575 C1574 1.524 . S
C1575 C1576 1.397 . S
C1575 C1580 1.363 . S
C1576 H1553 0.950 . S
C1576 C1575 1.397 . S
C1576 C1577 1.334 . S
C1577 H1554 0.950 . S
C1577 C1576 1.334 . S
C1577 C1578 1.287 . S
C1578 C1577 1.287 . S
C1578 C1579 1.524 . S
C1578 H1597 0.913 . S
C1579 H1555 0.950 . S
C1579 C1578 1.524 . S
C1579 C1580 1.415 . S
C1580 H1556 0.950 . S
C1580 C1575 1.363 . S
C1580 C1579 1.415 . S
C1581 H1557 0.951 . S
C1581 C1582 1.366 . S
C1581 C1583 1.388 . S
C1582 C1581 1.366 . S
C1582 C1586 1.385 . S
C1583 H1558 0.951 . S
C1583 C1581 1.388 . S
C1583 C1584 1.366 . S
C1584 C1583 1.366 . S
C1584 C1585 1.414 . S
C1584 C1587 1.499 . S
C1585 H1559 0.950 . S
C1585 C1584 1.414 . S
C1585 C1586 1.374 . S
C1586 H1560 0.950 . S
C1586 C1582 1.385 . S
C1586 C1585 1.374 . S
C1587 C1584 1.499 . S
C1587 C1588 1.373 . S
C1587 C1589 1.389 . S
C1588 H1561 0.950 . S
C1588 C1574 1.377 . S
C1588 C1587 1.373 . S
C1589 C1573 1.377 . S
C1589 C1587 1.389 . S
C1589 C1590 1.524 . S
C1590 C1589 1.524 . S
C1590 C1591 1.397 . S
C1590 C1595 1.363 . S
C1591 H1562 0.950 . S
C1591 C1590 1.397 . S
C1591 C1592 1.334 . S
C1592 H1563 0.950 . S
C1592 C1591 1.334 . S
C1592 C1593 1.287 . S
C1593 C1592 1.287 . S
C1593 C1594 1.524 . S
C1593 H1596 0.999 . S
C1594 H1564 0.950 . S
C1594 C1593 1.524 . S
C1594 C1595 1.415 . S
C1595 H1565 0.950 . S
C1595 C1590 1.363 . S
C1595 C1594 1.415 . S
H1596 C1593 0.999 . S
H1597 C1578 0.913 . S
H1598 C1616 0.951 . S
H1599 C1618 0.951 . S
H1600 C1620 0.950 . S
H1601 C1621 0.950 . S
H1602 C1623 0.950 . S
H1603 C1626 0.950 . S
H1604 C1627 0.950 . S
H1605 C1629 0.950 . S
H1606 C1630 0.950 . S
H1607 C1631 0.951 . S
H1608 C1633 0.951 . S
H1609 C1635 0.950 . S
H1610 C1636 0.950 . S
H1611 C1638 0.950 . S
H1612 C1641 0.950 . S
H1613 C1642 0.950 . S
H1614 C1644 0.950 . S
H1615 C1645 0.926 1_455 S
C1616 H1598 0.951 . S
C1616 C1617 1.366 . S
C1616 C1618 1.388 . S
C1617 C1616 1.366 . S
C1617 C1621 1.385 . S
C1618 H1599 0.951 . S
C1618 C1616 1.388 . S
C1618 C1619 1.366 . S
C1619 C1618 1.366 . S
C1619 C1620 1.414 . S
C1619 C1622 1.499 . S
C1620 H1600 0.950 . S
C1620 C1619 1.414 . S
C1620 C1621 1.374 . S
C1621 H1601 0.950 . S
C1621 C1617 1.385 . S
C1621 C1620 1.374 . S
C1622 C1619 1.499 . S
C1622 C1623 1.373 . S
C1622 C1624 1.389 . S
C1623 H1602 0.950 . S
C1623 C1622 1.373 . S
C1623 C1639 1.377 . S
C1624 C1622 1.389 . S
C1624 C1625 1.524 . S
C1624 C1638 1.377 . S
C1625 C1624 1.524 . S
C1625 C1626 1.397 . S
C1625 C1630 1.363 . S
C1626 H1603 0.950 . S
C1626 C1625 1.397 . S
C1626 C1627 1.334 . S
C1627 H1604 0.950 . S
C1627 C1626 1.334 . S
C1627 C1628 1.287 . S
C1628 C1627 1.287 . S
C1628 C1629 1.524 . S
C1628 H1647 0.913 . S
C1629 H1605 0.950 . S
C1629 C1628 1.524 . S
C1629 C1630 1.415 . S
C1630 H1606 0.950 . S
C1630 C1625 1.363 . S
C1630 C1629 1.415 . S
C1631 H1607 0.951 . S
C1631 C1632 1.366 . S
C1631 C1633 1.388 . S
C1632 C1631 1.366 . S
C1632 C1636 1.385 . S
C1633 H1608 0.951 . S
C1633 C1631 1.388 . S
C1633 C1634 1.366 . S
C1634 C1633 1.366 . S
C1634 C1635 1.414 . S
C1634 C1637 1.499 1_655 S
C1635 H1609 0.950 . S
C1635 C1634 1.414 . S
C1635 C1636 1.374 . S
C1636 H1610 0.950 . S
C1636 C1632 1.385 . S
C1636 C1635 1.374 . S
C1637 C1634 1.499 1_455 S
C1637 C1638 1.373 . S
C1637 C1639 1.389 . S
C1638 H1611 0.950 . S
C1638 C1624 1.377 . S
C1638 C1637 1.373 . S
C1639 C1623 1.377 . S
C1639 C1637 1.389 . S
C1639 C1640 1.524 1_455 S
C1640 C1639 1.524 1_655 S
C1640 C1641 1.397 . S
C1640 C1645 1.367 . S
C1641 H1612 0.950 . S
C1641 C1640 1.397 . S
C1641 C1642 1.334 . S
C1642 H1613 0.950 . S
C1642 C1641 1.334 . S
C1642 C1643 1.287 . S
C1643 C1642 1.287 . S
C1643 C1644 1.524 . S
C1643 H1646 0.999 . S
C1644 H1614 0.950 . S
C1644 C1643 1.524 . S
C1644 C1645 1.436 . S
C1645 H1615 0.926 1_655 S
C1645 C1640 1.367 . S
C1645 C1644 1.436 . S
H1646 C1643 0.999 . S
H1647 C1628 0.913 . S
H1648 C1666 0.951 . S
H1649 C1668 0.951 . S
H1650 C1670 0.950 . S
H1651 C1671 0.950 . S
H1652 C1673 0.950 . S
H1653 C1676 0.950 . S
H1654 C1677 0.950 . S
H1655 C1679 0.950 . S
H1656 C1680 0.950 . S
H1657 C1681 0.951 . S
H1658 C1683 0.951 . S
H1659 C1685 0.950 . S
H1660 C1686 0.950 . S
H1661 C1688 0.950 . S
H1662 C1691 0.950 . S
H1663 C1692 0.950 . S
H1664 C1694 0.950 . S
H1665 C1695 0.950 . S
C1666 H1648 0.951 . S
C1666 C1667 1.366 . S
C1666 C1668 1.388 . S
C1667 C1666 1.366 . S
C1667 C1671 1.385 . S
C1668 H1649 0.951 . S
C1668 C1666 1.388 . S
C1668 C1669 1.366 . S
C1669 C1668 1.366 . S
C1669 C1670 1.414 . S
C1669 C1672 1.499 . S
C1670 H1650 0.950 . S
C1670 C1669 1.414 . S
C1670 C1671 1.374 . S
C1671 H1651 0.950 . S
C1671 C1667 1.385 . S
C1671 C1670 1.374 . S
C1672 C1669 1.499 . S
C1672 C1673 1.373 . S
C1672 C1674 1.389 . S
C1673 H1652 0.950 . S
C1673 C1672 1.373 . S
C1673 C1689 1.377 . S
C1674 C1672 1.389 . S
C1674 C1675 1.524 . S
C1674 C1688 1.377 . S
C1675 C1674 1.524 . S
C1675 C1676 1.397 . S
C1675 C1680 1.363 . S
C1676 H1653 0.950 . S
C1676 C1675 1.397 . S
C1676 C1677 1.334 . S
C1677 H1654 0.950 . S
C1677 C1676 1.334 . S
C1677 C1678 1.287 . S
C1678 C1677 1.287 . S
C1678 C1679 1.524 . S
C1678 H1697 0.913 . S
C1679 H1655 0.950 . S
C1679 C1678 1.524 . S
C1679 C1680 1.415 . S
C1680 H1656 0.950 . S
C1680 C1675 1.363 . S
C1680 C1679 1.415 . S
C1681 H1657 0.951 . S
C1681 C1682 1.366 . S
C1681 C1683 1.388 . S
C1682 C1681 1.366 . S
C1682 C1686 1.385 . S
C1683 H1658 0.951 . S
C1683 C1681 1.388 . S
C1683 C1684 1.366 . S
C1684 C1683 1.366 . S
C1684 C1685 1.414 . S
C1684 C1687 1.499 . S
C1685 H1659 0.950 . S
C1685 C1684 1.414 . S
C1685 C1686 1.374 . S
C1686 H1660 0.950 . S
C1686 C1682 1.385 . S
C1686 C1685 1.374 . S
C1687 C1684 1.499 . S
C1687 C1688 1.373 . S
C1687 C1689 1.389 . S
C1688 H1661 0.950 . S
C1688 C1674 1.377 . S
C1688 C1687 1.373 . S
C1689 C1673 1.377 . S
C1689 C1687 1.389 . S
C1689 C1690 1.524 . S
C1690 C1689 1.524 . S
C1690 C1691 1.397 . S
C1690 C1695 1.363 . S
C1691 H1662 0.950 . S
C1691 C1690 1.397 . S
C1691 C1692 1.334 . S
C1692 H1663 0.950 . S
C1692 C1691 1.334 . S
C1692 C1693 1.287 . S
C1693 C1692 1.287 . S
C1693 C1694 1.524 . S
C1693 H1696 0.999 . S
C1694 H1664 0.950 . S
C1694 C1693 1.524 . S
C1694 C1695 1.415 . S
C1695 H1665 0.950 . S
C1695 C1690 1.363 . S
C1695 C1694 1.415 . S
H1696 C1693 0.999 . S
H1697 C1678 0.913 . S
H1698 C1716 0.951 . S
H1699 C1718 0.951 . S
H1700 C1720 0.950 . S
H1701 C1721 0.950 . S
H1702 C1723 0.950 . S
H1703 C1726 0.950 . S
H1704 C1727 0.950 . S
H1705 C1729 0.950 . S
H1706 C1730 0.950 . S
H1707 C1731 0.951 . S
H1708 C1733 0.951 . S
H1709 C1735 0.950 . S
H1710 C1736 0.950 . S
H1711 C1738 0.950 . S
H1712 C1741 0.950 . S
H1713 C1742 0.950 . S
H1714 C1744 0.950 . S
H1715 C1745 0.917 1_655 S
C1716 H1698 0.951 . S
C1716 C1717 1.366 . S
C1716 C1718 1.388 . S
C1717 C1716 1.366 . S
C1717 C1721 1.385 . S
C1718 H1699 0.951 . S
C1718 C1716 1.388 . S
C1718 C1719 1.366 . S
C1719 C1718 1.366 . S
C1719 C1720 1.414 . S
C1719 C1722 1.499 . S
C1720 H1700 0.950 . S
C1720 C1719 1.414 . S
C1720 C1721 1.374 . S
C1721 H1701 0.950 . S
C1721 C1717 1.385 . S
C1721 C1720 1.374 . S
C1722 C1719 1.499 . S
C1722 C1723 1.373 . S
C1722 C1724 1.389 . S
C1723 H1702 0.950 . S
C1723 C1722 1.373 . S
C1723 C1739 1.377 . S
C1724 C1722 1.389 . S
C1724 C1725 1.524 . S
C1724 C1738 1.377 . S
C1725 C1724 1.524 . S
C1725 C1726 1.397 . S
C1725 C1730 1.363 . S
C1726 H1703 0.950 . S
C1726 C1725 1.397 . S
C1726 C1727 1.334 . S
C1727 H1704 0.950 . S
C1727 C1726 1.334 . S
C1727 C1728 1.287 . S
C1728 C1727 1.287 . S
C1728 C1729 1.524 . S
C1728 H1747 0.913 . S
C1729 H1705 0.950 . S
C1729 C1728 1.524 . S
C1729 C1730 1.415 . S
C1730 H1706 0.950 . S
C1730 C1725 1.363 . S
C1730 C1729 1.415 . S
C1731 H1707 0.951 . S
C1731 C1732 1.366 . S
C1731 C1733 1.388 . S
C1732 C1731 1.366 . S
C1732 C1736 1.385 . S
C1733 H1708 0.951 . S
C1733 C1731 1.388 . S
C1733 C1734 1.366 . S
C1734 C1733 1.366 . S
C1734 C1735 1.414 . S
C1734 C1737 1.499 1_455 S
C1735 H1709 0.950 . S
C1735 C1734 1.414 . S
C1735 C1736 1.374 . S
C1736 H1710 0.950 . S
C1736 C1732 1.385 . S
C1736 C1735 1.374 . S
C1737 C1734 1.499 1_655 S
C1737 C1738 1.373 . S
C1737 C1739 1.389 . S
C1738 H1711 0.950 . S
C1738 C1724 1.377 . S
C1738 C1737 1.373 . S
C1739 C1723 1.377 . S
C1739 C1737 1.389 . S
C1739 C1740 1.524 1_655 S
C1740 C1739 1.524 1_455 S
C1740 C1741 1.397 . S
C1740 C1745 1.368 . S
C1741 H1712 0.950 . S
C1741 C1740 1.397 . S
C1741 C1742 1.334 . S
C1742 H1713 0.950 . S
C1742 C1741 1.334 . S
C1742 C1743 1.287 . S
C1743 C1742 1.287 . S
C1743 C1744 1.524 . S
C1743 H1746 0.999 . S
C1744 H1714 0.950 . S
C1744 C1743 1.524 . S
C1744 C1745 1.445 . S
C1745 H1715 0.917 1_455 S
C1745 C1740 1.368 . S
C1745 C1744 1.445 . S
H1746 C1743 0.999 . S
H1747 C1728 0.913 . S
H1748 C1766 0.951 . S
H1749 C1768 0.951 . S
H1750 C1770 0.950 . S
H1751 C1771 0.950 . S
H1752 C1773 0.950 . S
H1753 C1776 0.950 . S
H1754 C1777 0.950 . S
H1755 C1779 0.950 . S
H1756 C1780 0.950 . S
H1757 C1781 0.951 . S
H1758 C1783 0.951 . S
H1759 C1785 0.950 . S
H1760 C1786 0.950 . S
H1761 C1788 0.950 . S
H1762 C1791 0.950 . S
H1763 C1792 0.950 . S
H1764 C1794 0.950 . S
H1765 C1795 0.950 . S
C1766 H1748 0.951 . S
C1766 C1767 1.366 . S
C1766 C1768 1.388 . S
C1767 C1766 1.366 . S
C1767 C1771 1.385 . S
C1768 H1749 0.951 . S
C1768 C1766 1.388 . S
C1768 C1769 1.366 . S
C1769 C1768 1.366 . S
C1769 C1770 1.414 . S
C1769 C1772 1.499 . S
C1770 H1750 0.950 . S
C1770 C1769 1.414 . S
C1770 C1771 1.374 . S
C1771 H1751 0.950 . S
C1771 C1767 1.385 . S
C1771 C1770 1.374 . S
C1772 C1769 1.499 . S
C1772 C1773 1.373 . S
C1772 C1774 1.389 . S
C1773 H1752 0.950 . S
C1773 C1772 1.373 . S
C1773 C1789 1.377 . S
C1774 C1772 1.389 . S
C1774 C1775 1.524 . S
C1774 C1788 1.377 . S
C1775 C1774 1.524 . S
C1775 C1776 1.397 . S
C1775 C1780 1.363 . S
C1776 H1753 0.950 . S
C1776 C1775 1.397 . S
C1776 C1777 1.334 . S
C1777 H1754 0.950 . S
C1777 C1776 1.334 . S
C1777 C1778 1.287 . S
C1778 C1777 1.287 . S
C1778 C1779 1.524 . S
C1778 H1797 0.913 . S
C1779 H1755 0.950 . S
C1779 C1778 1.524 . S
C1779 C1780 1.415 . S
C1780 H1756 0.950 . S
C1780 C1775 1.363 . S
C1780 C1779 1.415 . S
C1781 H1757 0.951 . S
C1781 C1782 1.366 . S
C1781 C1783 1.388 . S
C1782 C1781 1.366 . S
C1782 C1786 1.385 . S
C1783 H1758 0.951 . S
C1783 C1781 1.388 . S
C1783 C1784 1.366 . S
C1784 C1783 1.366 . S
C1784 C1785 1.414 . S
C1784 C1787 1.499 . S
C1785 H1759 0.950 . S
C1785 C1784 1.414 . S
C1785 C1786 1.374 . S
C1786 H1760 0.950 . S
C1786 C1782 1.385 . S
C1786 C1785 1.374 . S
C1787 C1784 1.499 . S
C1787 C1788 1.373 . S
C1787 C1789 1.389 . S
C1788 H1761 0.950 . S
C1788 C1774 1.377 . S
C1788 C1787 1.373 . S
C1789 C1773 1.377 . S
C1789 C1787 1.389 . S
C1789 C1790 1.524 . S
C1790 C1789 1.524 . S
C1790 C1791 1.397 . S
C1790 C1795 1.363 . S
C1791 H1762 0.950 . S
C1791 C1790 1.397 . S
C1791 C1792 1.334 . S
C1792 H1763 0.950 . S
C1792 C1791 1.334 . S
C1792 C1793 1.287 . S
C1793 C1792 1.287 . S
C1793 C1794 1.524 . S
C1793 H1796 0.999 . S
C1794 H1764 0.950 . S
C1794 C1793 1.524 . S
C1794 C1795 1.415 . S
C1795 H1765 0.950 . S
C1795 C1790 1.363 . S
C1795 C1794 1.415 . S
H1796 C1793 0.999 . S
H1797 C1778 0.913 . S
H1798 C1816 0.951 . S
H1799 C1818 0.951 . S
H1800 C1820 0.950 . S
H1801 C1821 0.950 . S
H1802 C1823 0.950 . S
H1803 C1826 0.950 . S
H1804 C1827 0.950 . S
H1805 C1829 0.950 . S
H1806 C1830 0.950 . S
H1807 C1831 0.951 . S
H1808 C1833 0.951 . S
H1809 C1835 0.950 . S
H1810 C1836 0.950 . S
H1811 C1838 0.950 . S
H1812 C1841 0.950 . S
H1813 C1842 0.950 . S
H1814 C1844 0.950 . S
H1815 C1845 0.950 . S
C1816 H1798 0.951 . S
C1816 C1817 1.366 . S
C1816 C1818 1.388 . S
C1817 C1816 1.366 . S
C1817 C1821 1.385 . S
C1818 H1799 0.951 . S
C1818 C1816 1.388 . S
C1818 C1819 1.366 . S
C1819 C1818 1.366 . S
C1819 C1820 1.414 . S
C1819 C1822 1.499 . S
C1820 H1800 0.950 . S
C1820 C1819 1.414 . S
C1820 C1821 1.374 . S
C1821 H1801 0.950 . S
C1821 C1817 1.385 . S
C1821 C1820 1.374 . S
C1822 C1819 1.499 . S
C1822 C1823 1.373 . S
C1822 C1824 1.389 . S
C1823 H1802 0.950 . S
C1823 C1822 1.373 . S
C1823 C1839 1.377 . S
C1824 C1822 1.389 . S
C1824 C1825 1.524 . S
C1824 C1838 1.377 . S
C1825 C1824 1.524 . S
C1825 C1826 1.397 . S
C1825 C1830 1.363 . S
C1826 H1803 0.950 . S
C1826 C1825 1.397 . S
C1826 C1827 1.334 . S
C1827 H1804 0.950 . S
C1827 C1826 1.334 . S
C1827 C1828 1.287 . S
C1828 C1827 1.287 . S
C1828 C1829 1.524 . S
C1828 H1847 0.913 . S
C1829 H1805 0.950 . S
C1829 C1828 1.524 . S
C1829 C1830 1.415 . S
C1830 H1806 0.950 . S
C1830 C1825 1.363 . S
C1830 C1829 1.415 . S
C1831 H1807 0.951 . S
C1831 C1832 1.366 . S
C1831 C1833 1.388 . S
C1832 C1831 1.366 . S
C1832 C1836 1.385 . S
C1833 H1808 0.951 . S
C1833 C1831 1.388 . S
C1833 C1834 1.366 . S
C1834 C1833 1.366 . S
C1834 C1835 1.414 . S
C1834 C1837 1.499 . S
C1835 H1809 0.950 . S
C1835 C1834 1.414 . S
C1835 C1836 1.374 . S
C1836 H1810 0.950 . S
C1836 C1832 1.385 . S
C1836 C1835 1.374 . S
C1837 C1834 1.499 . S
C1837 C1838 1.373 . S
C1837 C1839 1.389 . S
C1838 H1811 0.950 . S
C1838 C1824 1.377 . S
C1838 C1837 1.373 . S
C1839 C1823 1.377 . S
C1839 C1837 1.389 . S
C1839 C1840 1.524 . S
C1840 C1839 1.524 . S
C1840 C1841 1.397 . S
C1840 C1845 1.363 . S
C1841 H1812 0.950 . S
C1841 C1840 1.397 . S
C1841 C1842 1.334 . S
C1842 H1813 0.950 . S
C1842 C1841 1.334 . S
C1842 C1843 1.287 . S
C1843 C1842 1.287 . S
C1843 C1844 1.524 . S
C1843 H1846 0.999 . S
C1844 H1814 0.950 . S
C1844 C1843 1.524 . S
C1844 C1845 1.415 . S
C1845 H1815 0.950 . S
C1845 C1840 1.363 . S
C1845 C1844 1.415 . S
H1846 C1843 0.999 . S
H1847 C1828 0.913 . S
H1848 C1866 0.951 . S
H1849 C1868 0.951 . S
H1850 C1870 0.950 . S
H1851 C1871 0.950 . S
H1852 C1873 0.950 . S
H1853 C1876 0.950 . S
H1854 C1877 0.950 . S
H1855 C1879 0.950 . S
H1856 C1880 0.950 . S
H1857 C1881 0.951 . S
H1858 C1883 0.951 . S
H1859 C1885 0.950 . S
H1860 C1886 0.950 . S
H1861 C1888 0.950 . S
H1862 C1891 0.950 . S
H1863 C1892 0.950 . S
H1864 C1894 0.950 . S
H1865 C1895 0.950 . S
C1866 H1848 0.951 . S
C1866 C1867 1.366 . S
C1866 C1868 1.388 . S
C1867 C1866 1.366 . S
C1867 C1871 1.385 . S
C1868 H1849 0.951 . S
C1868 C1866 1.388 . S
C1868 C1869 1.366 . S
C1869 C1868 1.366 . S
C1869 C1870 1.414 . S
C1869 C1872 1.499 . S
C1870 H1850 0.950 . S
C1870 C1869 1.414 . S
C1870 C1871 1.374 . S
C1871 H1851 0.950 . S
C1871 C1867 1.385 . S
C1871 C1870 1.374 . S
C1872 C1869 1.499 . S
C1872 C1873 1.373 . S
C1872 C1874 1.389 . S
C1873 H1852 0.950 . S
C1873 C1872 1.373 . S
C1873 C1889 1.377 . S
C1874 C1872 1.389 . S
C1874 C1875 1.524 . S
C1874 C1888 1.377 . S
C1875 C1874 1.524 . S
C1875 C1876 1.397 . S
C1875 C1880 1.363 . S
C1876 H1853 0.950 . S
C1876 C1875 1.397 . S
C1876 C1877 1.334 . S
C1877 H1854 0.950 . S
C1877 C1876 1.334 . S
C1877 C1878 1.287 . S
C1878 C1877 1.287 . S
C1878 C1879 1.524 . S
C1878 H1897 0.913 . S
C1879 H1855 0.950 . S
C1879 C1878 1.524 . S
C1879 C1880 1.415 . S
C1880 H1856 0.950 . S
C1880 C1875 1.363 . S
C1880 C1879 1.415 . S
C1881 H1857 0.951 . S
C1881 C1882 1.366 . S
C1881 C1883 1.388 . S
C1882 C1881 1.366 . S
C1882 C1886 1.385 . S
C1883 H1858 0.951 . S
C1883 C1881 1.388 . S
C1883 C1884 1.366 . S
C1884 C1883 1.366 . S
C1884 C1885 1.414 . S
C1884 C1887 1.499 . S
C1885 H1859 0.950 . S
C1885 C1884 1.414 . S
C1885 C1886 1.374 . S
C1886 H1860 0.950 . S
C1886 C1882 1.385 . S
C1886 C1885 1.374 . S
C1887 C1884 1.499 . S
C1887 C1888 1.373 . S
C1887 C1889 1.389 . S
C1888 H1861 0.950 . S
C1888 C1874 1.377 . S
C1888 C1887 1.373 . S
C1889 C1873 1.377 . S
C1889 C1887 1.389 . S
C1889 C1890 1.524 . S
C1890 C1889 1.524 . S
C1890 C1891 1.397 . S
C1890 C1895 1.363 . S
C1891 H1862 0.950 . S
C1891 C1890 1.397 . S
C1891 C1892 1.334 . S
C1892 H1863 0.950 . S
C1892 C1891 1.334 . S
C1892 C1893 1.287 . S
C1893 C1892 1.287 . S
C1893 C1894 1.524 . S
C1893 H1896 0.999 . S
C1894 H1864 0.950 . S
C1894 C1893 1.524 . S
C1894 C1895 1.415 . S
C1895 H1865 0.950 . S
C1895 C1890 1.363 . S
C1895 C1894 1.415 . S
H1896 C1893 0.999 . S
H1897 C1878 0.913 . S
H1898 C1916 0.951 . S
H1899 C1918 0.951 . S
H1900 C1920 0.950 . S
H1901 C1921 0.950 . S
H1902 C1923 0.950 . S
H1903 C1926 0.950 . S
H1904 C1927 0.950 . S
H1905 C1929 0.950 . S
H1906 C1930 0.950 . S
H1907 C1931 0.951 . S
H1908 C1933 0.951 . S
H1909 C1935 0.950 . S
H1910 C1936 0.950 . S
H1911 C1938 0.950 . S
H1912 C1941 0.950 . S
H1913 C1942 0.950 . S
H1914 C1944 0.950 . S
H1915 C1945 0.950 . S
C1916 H1898 0.951 . S
C1916 C1917 1.366 . S
C1916 C1918 1.388 . S
C1917 C1916 1.366 . S
C1917 C1921 1.385 . S
C1918 H1899 0.951 . S
C1918 C1916 1.388 . S
C1918 C1919 1.366 . S
C1919 C1918 1.366 . S
C1919 C1920 1.414 . S
C1919 C1922 1.499 . S
C1920 H1900 0.950 . S
C1920 C1919 1.414 . S
C1920 C1921 1.374 . S
C1921 H1901 0.950 . S
C1921 C1917 1.385 . S
C1921 C1920 1.374 . S
C1922 C1919 1.499 . S
C1922 C1923 1.373 . S
C1922 C1924 1.389 . S
C1923 H1902 0.950 . S
C1923 C1922 1.373 . S
C1923 C1939 1.377 . S
C1924 C1922 1.389 . S
C1924 C1925 1.524 . S
C1924 C1938 1.377 . S
C1925 C1924 1.524 . S
C1925 C1926 1.397 . S
C1925 C1930 1.363 . S
C1926 H1903 0.950 . S
C1926 C1925 1.397 . S
C1926 C1927 1.334 . S
C1927 H1904 0.950 . S
C1927 C1926 1.334 . S
C1927 C1928 1.287 . S
C1928 C1927 1.287 . S
C1928 C1929 1.524 . S
C1928 H1947 0.913 . S
C1929 H1905 0.950 . S
C1929 C1928 1.524 . S
C1929 C1930 1.415 . S
C1930 H1906 0.950 . S
C1930 C1925 1.363 . S
C1930 C1929 1.415 . S
C1931 H1907 0.951 . S
C1931 C1932 1.366 . S
C1931 C1933 1.388 . S
C1932 C1931 1.366 . S
C1932 C1936 1.385 . S
C1933 H1908 0.951 . S
C1933 C1931 1.388 . S
C1933 C1934 1.366 . S
C1934 C1933 1.366 . S
C1934 C1935 1.414 . S
C1934 C1937 1.499 . S
C1935 H1909 0.950 . S
C1935 C1934 1.414 . S
C1935 C1936 1.374 . S
C1936 H1910 0.950 . S
C1936 C1932 1.385 . S
C1936 C1935 1.374 . S
C1937 C1934 1.499 . S
C1937 C1938 1.373 . S
C1937 C1939 1.389 . S
C1938 H1911 0.950 . S
C1938 C1924 1.377 . S
C1938 C1937 1.373 . S
C1939 C1923 1.377 . S
C1939 C1937 1.389 . S
C1939 C1940 1.524 . S
C1940 C1939 1.524 . S
C1940 C1941 1.397 . S
C1940 C1945 1.363 . S
C1941 H1912 0.950 . S
C1941 C1940 1.397 . S
C1941 C1942 1.334 . S
C1942 H1913 0.950 . S
C1942 C1941 1.334 . S
C1942 C1943 1.287 . S
C1943 C1942 1.287 . S
C1943 C1944 1.524 . S
C1943 H1946 0.999 . S
C1944 H1914 0.950 . S
C1944 C1943 1.524 . S
C1944 C1945 1.415 . S
C1945 H1915 0.950 . S
C1945 C1940 1.363 . S
C1945 C1944 1.415 . S
H1946 C1943 0.999 . S
H1947 C1928 0.913 . S
H1948 C1966 0.951 . S
H1949 C1968 0.951 . S
H1950 C1970 0.950 . S
H1951 C1971 0.950 . S
H1952 C1973 0.950 . S
H1953 C1976 0.950 . S
H1954 C1977 0.950 . S
H1955 C1979 0.950 . S
H1956 C1980 0.950 . S
H1957 C1981 0.951 . S
H1958 C1983 0.951 . S
H1959 C1985 0.950 . S
H1960 C1986 0.950 . S
H1961 C1988 0.950 . S
H1962 C1991 0.950 . S
H1963 C1992 0.950 . S
H1964 C1994 0.950 . S
H1965 C1995 0.950 . S
C1966 H1948 0.951 . S
C1966 C1967 1.366 . S
C1966 C1968 1.388 . S
C1967 C1966 1.366 . S
C1967 C1971 1.385 . S
C1968 H1949 0.951 . S
C1968 C1966 1.388 . S
C1968 C1969 1.366 . S
C1969 C1968 1.366 . S
C1969 C1970 1.414 . S
C1969 C1972 1.499 . S
C1970 H1950 0.950 . S
C1970 C1969 1.414 . S
C1970 C1971 1.374 . S
C1971 H1951 0.950 . S
C1971 C1967 1.385 . S
C1971 C1970 1.374 . S
C1972 C1969 1.499 . S
C1972 C1973 1.373 . S
C1972 C1974 1.389 . S
C1973 H1952 0.950 . S
C1973 C1972 1.373 . S
C1973 C1989 1.377 . S
C1974 C1972 1.389 . S
C1974 C1975 1.524 . S
C1974 C1988 1.377 . S
C1975 C1974 1.524 . S
C1975 C1976 1.397 . S
C1975 C1980 1.363 . S
C1976 H1953 0.950 . S
C1976 C1975 1.397 . S
C1976 C1977 1.334 . S
C1977 H1954 0.950 . S
C1977 C1976 1.334 . S
C1977 C1978 1.287 . S
C1978 C1977 1.287 . S
C1978 C1979 1.524 . S
C1978 H1997 0.913 . S
C1979 H1955 0.950 . S
C1979 C1978 1.524 . S
C1979 C1980 1.415 . S
C1980 H1956 0.950 . S
C1980 C1975 1.363 . S
C1980 C1979 1.415 . S
C1981 H1957 0.951 . S
C1981 C1982 1.366 . S
C1981 C1983 1.388 . S
C1982 C1981 1.366 . S
C1982 C1986 1.385 . S
C1983 H1958 0.951 . S
C1983 C1981 1.388 . S
C1983 C1984 1.366 . S
C1984 C1983 1.366 . S
C1984 C1985 1.414 . S
C1984 C1987 1.499 . S
C1985 H1959 0.950 . S
C1985 C1984 1.414 . S
C1985 C1986 1.374 . S
C1986 H1960 0.950 . S
C1986 C1982 1.385 . S
C1986 C1985 1.374 . S
C1987 C1984 1.499 . S
C1987 C1988 1.373 . S
C1987 C1989 1.389 . S
C1988 H1961 0.950 . S
C1988 C1974 1.377 . S
C1988 C1987 1.373 . S
C1989 C1973 1.377 . S
C1989 C1987 1.389 . S
C1989 C1990 1.524 . S
C1990 C1989 1.524 . S
C1990 C1991 1.397 . S
C1990 C1995 1.363 . S
C1991 H1962 0.950 . S
C1991 C1990 1.397 . S
C1991 C1992 1.334 . S
C1992 H1963 0.950 . S
C1992 C1991 1.334 . S
C1992 C1993 1.287 . S
C1993 C1992 1.287 . S
C1993 C1994 1.524 . S
C1993 H1996 0.999 . S
C1994 H1964 0.950 . S
C1994 C1993 1.524 . S
C1994 C1995 1.415 . S
C1995 H1965 0.950 . S
C1995 C1990 1.363 . S
C1995 C1994 1.415 . S
H1996 C1993 0.999 . S
H1997 C1978 0.913 . S
H1998 C2016 0.951 . S
H1999 C2018 0.951 . S
H2000 C2020 0.950 . S
H2001 C2021 0.950 . S
H2002 C2023 0.950 . S
H2003 C2026 0.950 . S
H2004 C2027 0.950 . S
H2005 C2029 0.950 . S
H2006 C2030 0.950 . S
H2007 C2031 0.951 . S
H2008 C2033 0.951 . S
H2009 C2035 0.950 . S
H2010 C2036 0.950 . S
H2011 C2038 0.923 1_455 S
H2012 C2041 0.950 . S
H2013 C2042 0.950 . S
H2014 C2044 0.950 . S
H2015 C2045 0.950 . S
C2016 H1998 0.951 . S
C2016 C2017 1.366 . S
C2016 C2018 1.388 . S
C2017 C2016 1.366 . S
C2017 C2021 1.385 . S
C2018 H1999 0.951 . S
C2018 C2016 1.388 . S
C2018 C2019 1.366 . S
C2019 C2018 1.366 . S
C2019 C2020 1.414 . S
C2019 C2022 1.499 . S
C2020 H2000 0.950 . S
C2020 C2019 1.414 . S
C2020 C2021 1.374 . S
C2021 H2001 0.950 . S
C2021 C2017 1.385 . S
C2021 C2020 1.374 . S
C2022 C2019 1.499 . S
C2022 C2023 1.373 . S
C2022 C2024 1.389 . S
C2023 H2002 0.950 . S
C2023 C2022 1.373 . S
C2023 C2039 1.377 . S
C2024 C2022 1.389 . S
C2024 C2025 1.524 . S
C2024 C2038 1.377 . S
C2025 C2024 1.524 . S
C2025 C2026 1.397 . S
C2025 C2030 1.363 . S
C2026 H2003 0.950 . S
C2026 C2025 1.397 . S
C2026 C2027 1.334 . S
C2027 H2004 0.950 . S
C2027 C2026 1.334 . S
C2027 C2028 1.287 . S
C2028 C2027 1.287 . S
C2028 C2029 1.524 . S
C2028 H2047 0.913 . S
C2029 H2005 0.950 . S
C2029 C2028 1.524 . S
C2029 C2030 1.415 . S
C2030 H2006 0.950 . S
C2030 C2025 1.363 . S
C2030 C2029 1.415 . S
C2031 H2007 0.951 . S
C2031 C2032 1.366 . S
C2031 C2033 1.388 . S
C2032 C2031 1.366 . S
C2032 C2036 1.385 . S
C2033 H2008 0.951 . S
C2033 C2031 1.388 . S
C2033 C2034 1.366 . S
C2034 C2033 1.366 . S
C2034 C2035 1.414 . S
C2034 C2037 1.499 1_455 S
C2035 H2009 0.950 . S
C2035 C2034 1.414 . S
C2035 C2036 1.374 . S
C2036 H2010 0.950 . S
C2036 C2032 1.385 . S
C2036 C2035 1.374 . S
C2037 C2034 1.499 1_655 S
C2037 C2038 1.373 . S
C2037 C2039 1.389 . S
C2038 H2011 0.923 1_655 S
C2038 C2024 1.377 . S
C2038 C2037 1.373 . S
C2039 C2023 1.377 . S
C2039 C2037 1.389 . S
C2039 C2040 1.524 . S
C2040 C2039 1.524 . S
C2040 C2041 1.397 1_655 S
C2040 C2045 1.363 . S
C2041 H2012 0.950 . S
C2041 C2040 1.397 1_455 S
C2041 C2042 1.334 . S
C2042 H2013 0.950 . S
C2042 C2041 1.334 . S
C2042 C2043 1.292 . S
C2043 C2042 1.292 . S
C2043 C2044 1.516 1_455 S
C2043 H2046 1.003 . S
C2044 H2014 0.950 . S
C2044 C2043 1.516 1_655 S
C2044 C2045 1.415 . S
C2045 H2015 0.950 . S
C2045 C2040 1.363 . S
C2045 C2044 1.415 . S
H2046 C2043 1.003 . S
H2047 C2028 0.913 . S
H2048 C2066 0.951 . S
H2049 C2068 0.951 . S
H2050 C2070 0.950 . S
H2051 C2071 0.950 . S
H2052 C2073 0.950 . S
H2053 C2076 0.950 . S
H2054 C2077 0.950 . S
H2055 C2079 0.950 . S
H2056 C2080 0.950 . S
H2057 C2081 0.951 . S
H2058 C2083 0.951 . S
H2059 C2085 0.950 . S
H2060 C2086 0.950 . S
H2061 C2088 0.950 . S
H2062 C2091 0.950 . S
H2063 C2092 0.950 . S
H2064 C2094 0.950 . S
H2065 C2095 0.950 . S
C2066 H2048 0.951 . S
C2066 C2067 1.366 . S
C2066 C2068 1.388 . S
C2067 C2066 1.366 . S
C2067 C2071 1.385 . S
C2068 H2049 0.951 . S
C2068 C2066 1.388 . S
C2068 C2069 1.366 . S
C2069 C2068 1.366 . S
C2069 C2070 1.414 . S
C2069 C2072 1.499 . S
C2070 H2050 0.950 . S
C2070 C2069 1.414 . S
C2070 C2071 1.374 . S
C2071 H2051 0.950 . S
C2071 C2067 1.385 . S
C2071 C2070 1.374 . S
C2072 C2069 1.499 . S
C2072 C2073 1.373 . S
C2072 C2074 1.389 . S
C2073 H2052 0.950 . S
C2073 C2072 1.373 . S
C2073 C2089 1.377 . S
C2074 C2072 1.389 . S
C2074 C2075 1.524 . S
C2074 C2088 1.377 . S
C2075 C2074 1.524 . S
C2075 C2076 1.397 . S
C2075 C2080 1.363 . S
C2076 H2053 0.950 . S
C2076 C2075 1.397 . S
C2076 C2077 1.334 . S
C2077 H2054 0.950 . S
C2077 C2076 1.334 . S
C2077 C2078 1.287 . S
C2078 C2077 1.287 . S
C2078 C2079 1.524 . S
C2078 H2097 0.913 . S
C2079 H2055 0.950 . S
C2079 C2078 1.524 . S
C2079 C2080 1.415 . S
C2080 H2056 0.950 . S
C2080 C2075 1.363 . S
C2080 C2079 1.415 . S
C2081 H2057 0.951 . S
C2081 C2082 1.366 . S
C2081 C2083 1.388 . S
C2082 C2081 1.366 . S
C2082 C2086 1.385 . S
C2083 H2058 0.951 . S
C2083 C2081 1.388 . S
C2083 C2084 1.366 . S
C2084 C2083 1.366 . S
C2084 C2085 1.414 . S
C2084 C2087 1.499 . S
C2085 H2059 0.950 . S
C2085 C2084 1.414 . S
C2085 C2086 1.374 . S
C2086 H2060 0.950 . S
C2086 C2082 1.385 . S
C2086 C2085 1.374 . S
C2087 C2084 1.499 . S
C2087 C2088 1.373 . S
C2087 C2089 1.389 . S
C2088 H2061 0.950 . S
C2088 C2074 1.377 . S
C2088 C2087 1.373 . S
C2089 C2073 1.377 . S
C2089 C2087 1.389 . S
C2089 C2090 1.524 . S
C2090 C2089 1.524 . S
C2090 C2091 1.397 . S
C2090 C2095 1.363 . S
C2091 H2062 0.950 . S
C2091 C2090 1.397 . S
C2091 C2092 1.334 . S
C2092 H2063 0.950 . S
C2092 C2091 1.334 . S
C2092 C2093 1.287 . S
C2093 C2092 1.287 . S
C2093 C2094 1.524 . S
C2093 H2096 0.999 1_556 S
C2094 H2064 0.950 . S
C2094 C2093 1.524 . S
C2094 C2095 1.415 . S
C2095 H2065 0.950 . S
C2095 C2090 1.363 . S
C2095 C2094 1.415 . S
H2096 C2093 0.999 1_554 S
H2097 C2078 0.913 . S
H2098 C2116 0.951 . S
H2099 C2118 0.951 . S
H2100 C2120 0.950 . S
H2101 C2121 0.950 . S
H2102 C2123 0.950 . S
H2103 C2126 0.950 . S
H2104 C2127 0.950 . S
H2105 C2129 0.950 . S
H2106 C2130 0.950 . S
H2107 C2131 0.951 . S
H2108 C2133 0.951 . S
H2109 C2135 0.950 . S
H2110 C2136 0.950 . S
H2111 C2138 0.950 . S
H2112 C2141 0.950 . S
H2113 C2142 0.950 . S
H2114 C2144 0.950 . S
H2115 C2145 0.950 . S
C2116 H2098 0.951 . S
C2116 C2117 1.366 . S
C2116 C2118 1.388 . S
C2117 C2116 1.366 . S
C2117 C2121 1.385 . S
C2118 H2099 0.951 . S
C2118 C2116 1.388 . S
C2118 C2119 1.366 . S
C2119 C2118 1.366 . S
C2119 C2120 1.414 . S
C2119 C2122 1.499 . S
C2120 H2100 0.950 . S
C2120 C2119 1.414 . S
C2120 C2121 1.374 . S
C2121 H2101 0.950 . S
C2121 C2117 1.385 . S
C2121 C2120 1.374 . S
C2122 C2119 1.499 . S
C2122 C2123 1.373 . S
C2122 C2124 1.389 . S
C2123 H2102 0.950 . S
C2123 C2122 1.373 . S
C2123 C2139 1.377 . S
C2124 C2122 1.389 . S
C2124 C2125 1.524 . S
C2124 C2138 1.377 . S
C2125 C2124 1.524 . S
C2125 C2126 1.397 . S
C2125 C2130 1.363 . S
C2126 H2103 0.950 . S
C2126 C2125 1.397 . S
C2126 C2127 1.334 . S
C2127 H2104 0.950 . S
C2127 C2126 1.334 . S
C2127 C2128 1.287 . S
C2128 C2127 1.287 . S
C2128 C2129 1.524 . S
C2128 H2147 0.913 . S
C2129 H2105 0.950 . S
C2129 C2128 1.524 . S
C2129 C2130 1.415 . S
C2130 H2106 0.950 . S
C2130 C2125 1.363 . S
C2130 C2129 1.415 . S
C2131 H2107 0.951 . S
C2131 C2132 1.366 . S
C2131 C2133 1.388 . S
C2132 C2131 1.366 . S
C2132 C2136 1.385 . S
C2133 H2108 0.951 . S
C2133 C2131 1.388 . S
C2133 C2134 1.366 . S
C2134 C2133 1.366 . S
C2134 C2135 1.414 . S
C2134 C2137 1.499 . S
C2135 H2109 0.950 . S
C2135 C2134 1.414 . S
C2135 C2136 1.374 . S
C2136 H2110 0.950 . S
C2136 C2132 1.385 . S
C2136 C2135 1.374 . S
C2137 C2134 1.499 . S
C2137 C2138 1.373 . S
C2137 C2139 1.389 . S
C2138 H2111 0.950 . S
C2138 C2124 1.377 . S
C2138 C2137 1.373 . S
C2139 C2123 1.377 . S
C2139 C2137 1.389 . S
C2139 C2140 1.524 . S
C2140 C2139 1.524 . S
C2140 C2141 1.397 . S
C2140 C2145 1.363 . S
C2141 H2112 0.950 . S
C2141 C2140 1.397 . S
C2141 C2142 1.334 . S
C2142 H2113 0.950 . S
C2142 C2141 1.334 . S
C2142 C2143 1.287 . S
C2143 C2142 1.287 . S
C2143 C2144 1.524 . S
C2143 H2146 0.999 . S
C2144 H2114 0.950 . S
C2144 C2143 1.524 . S
C2144 C2145 1.415 . S
C2145 H2115 0.950 . S
C2145 C2140 1.363 . S
C2145 C2144 1.415 . S
H2146 C2143 0.999 . S
H2147 C2128 0.913 . S
H2148 C2166 0.951 . S
H2149 C2168 0.951 . S
H2150 C2170 0.950 . S
H2151 C2171 0.950 . S
H2152 C2173 0.950 . S
H2153 C2176 0.950 . S
H2154 C2177 0.950 . S
H2155 C2179 0.950 . S
H2156 C2180 0.950 . S
H2157 C2181 0.951 . S
H2158 C2183 0.951 . S
H2159 C2185 0.950 . S
H2160 C2186 0.950 . S
H2161 C2188 0.950 . S
H2162 C2191 0.950 . S
H2163 C2192 0.950 . S
H2164 C2194 0.950 . S
H2165 C2195 0.950 . S
C2166 H2148 0.951 . S
C2166 C2167 1.366 . S
C2166 C2168 1.388 . S
C2167 C2166 1.366 . S
C2167 C2171 1.385 . S
C2168 H2149 0.951 . S
C2168 C2166 1.388 . S
C2168 C2169 1.366 . S
C2169 C2168 1.366 . S
C2169 C2170 1.414 . S
C2169 C2172 1.499 . S
C2170 H2150 0.950 . S
C2170 C2169 1.414 . S
C2170 C2171 1.374 . S
C2171 H2151 0.950 . S
C2171 C2167 1.385 . S
C2171 C2170 1.374 . S
C2172 C2169 1.499 . S
C2172 C2173 1.373 . S
C2172 C2174 1.389 . S
C2173 H2152 0.950 . S
C2173 C2172 1.373 . S
C2173 C2189 1.377 . S
C2174 C2172 1.389 . S
C2174 C2175 1.524 . S
C2174 C2188 1.377 . S
C2175 C2174 1.524 . S
C2175 C2176 1.397 . S
C2175 C2180 1.363 . S
C2176 H2153 0.950 . S
C2176 C2175 1.397 . S
C2176 C2177 1.334 . S
C2177 H2154 0.950 . S
C2177 C2176 1.334 . S
C2177 C2178 1.287 . S
C2178 C2177 1.287 . S
C2178 C2179 1.524 . S
C2178 H2197 0.913 . S
C2179 H2155 0.950 . S
C2179 C2178 1.524 . S
C2179 C2180 1.415 . S
C2180 H2156 0.950 . S
C2180 C2175 1.363 . S
C2180 C2179 1.415 . S
C2181 H2157 0.951 . S
C2181 C2182 1.366 . S
C2181 C2183 1.388 . S
C2182 C2181 1.366 . S
C2182 C2186 1.385 . S
C2183 H2158 0.951 . S
C2183 C2181 1.388 . S
C2183 C2184 1.366 . S
C2184 C2183 1.366 . S
C2184 C2185 1.414 . S
C2184 C2187 1.499 . S
C2185 H2159 0.950 . S
C2185 C2184 1.414 . S
C2185 C2186 1.374 . S
C2186 H2160 0.950 . S
C2186 C2182 1.385 . S
C2186 C2185 1.374 . S
C2187 C2184 1.499 . S
C2187 C2188 1.373 . S
C2187 C2189 1.389 . S
C2188 H2161 0.950 . S
C2188 C2174 1.377 . S
C2188 C2187 1.373 . S
C2189 C2173 1.377 . S
C2189 C2187 1.389 . S
C2189 C2190 1.524 . S
C2190 C2189 1.524 . S
C2190 C2191 1.397 . S
C2190 C2195 1.363 . S
C2191 H2162 0.950 . S
C2191 C2190 1.397 . S
C2191 C2192 1.334 . S
C2192 H2163 0.950 . S
C2192 C2191 1.334 . S
C2192 C2193 1.287 . S
C2193 C2192 1.287 . S
C2193 C2194 1.524 . S
C2193 H2196 0.999 . S
C2194 H2164 0.950 . S
C2194 C2193 1.524 . S
C2194 C2195 1.415 . S
C2195 H2165 0.950 . S
C2195 C2190 1.363 . S
C2195 C2194 1.415 . S
H2196 C2193 0.999 . S
H2197 C2178 0.913 . S
H2198 C2216 0.951 . S
H2199 C2218 0.951 . S
H2200 C2220 0.950 . S
H2201 C2221 0.950 . S
H2202 C2223 0.950 . S
H2203 C2226 0.950 . S
H2204 C2227 0.950 . S
H2205 C2229 0.950 . S
H2206 C2230 0.950 . S
H2207 C2231 0.951 . S
H2208 C2233 0.951 . S
H2209 C2235 0.950 . S
H2210 C2236 0.950 . S
H2211 C2238 0.950 . S
H2212 C2241 0.950 . S
H2213 C2242 0.950 . S
H2214 C2244 0.950 . S
H2215 C2245 0.950 . S
C2216 H2198 0.951 . S
C2216 C2217 1.366 . S
C2216 C2218 1.388 . S
C2217 C2216 1.366 . S
C2217 C2221 1.385 . S
C2218 H2199 0.951 . S
C2218 C2216 1.388 . S
C2218 C2219 1.366 . S
C2219 C2218 1.366 . S
C2219 C2220 1.414 . S
C2219 C2222 1.499 . S
C2220 H2200 0.950 . S
C2220 C2219 1.414 . S
C2220 C2221 1.374 . S
C2221 H2201 0.950 . S
C2221 C2217 1.385 . S
C2221 C2220 1.374 . S
C2222 C2219 1.499 . S
C2222 C2223 1.373 . S
C2222 C2224 1.389 . S
C2223 H2202 0.950 . S
C2223 C2222 1.373 . S
C2223 C2239 1.377 . S
C2224 C2222 1.389 . S
C2224 C2225 1.524 . S
C2224 C2238 1.377 . S
C2225 C2224 1.524 . S
C2225 C2226 1.397 . S
C2225 C2230 1.363 . S
C2226 H2203 0.950 . S
C2226 C2225 1.397 . S
C2226 C2227 1.334 . S
C2227 H2204 0.950 . S
C2227 C2226 1.334 . S
C2227 C2228 1.287 . S
C2228 C2227 1.287 . S
C2228 C2229 1.524 . S
C2228 H2247 0.913 . S
C2229 H2205 0.950 . S
C2229 C2228 1.524 . S
C2229 C2230 1.415 . S
C2230 H2206 0.950 . S
C2230 C2225 1.363 . S
C2230 C2229 1.415 . S
C2231 H2207 0.951 . S
C2231 C2232 1.366 . S
C2231 C2233 1.388 . S
C2232 C2231 1.366 . S
C2232 C2236 1.385 . S
C2233 H2208 0.951 . S
C2233 C2231 1.388 . S
C2233 C2234 1.366 . S
C2234 C2233 1.366 . S
C2234 C2235 1.414 . S
C2234 C2237 1.499 1_455 S
C2235 H2209 0.950 . S
C2235 C2234 1.414 . S
C2235 C2236 1.374 . S
C2236 H2210 0.950 . S
C2236 C2232 1.385 . S
C2236 C2235 1.374 . S
C2237 C2234 1.499 1_655 S
C2237 C2238 1.373 . S
C2237 C2239 1.389 . S
C2238 H2211 0.950 . S
C2238 C2224 1.377 . S
C2238 C2237 1.373 . S
C2239 C2223 1.377 . S
C2239 C2237 1.389 . S
C2239 C2240 1.523 . S
C2240 C2239 1.523 . S
C2240 C2241 1.399 1_655 S
C2240 C2245 1.362 . S
C2241 H2212 0.950 . S
C2241 C2240 1.399 1_455 S
C2241 C2242 1.334 . S
C2242 H2213 0.950 . S
C2242 C2241 1.334 . S
C2242 C2243 1.287 . S
C2243 C2242 1.287 . S
C2243 C2244 1.524 . S
C2243 H2246 0.999 . S
C2244 H2214 0.950 . S
C2244 C2243 1.524 . S
C2244 C2245 1.415 1_455 S
C2245 H2215 0.950 . S
C2245 C2240 1.362 . S
C2245 C2244 1.415 1_655 S
H2246 C2243 0.999 . S
H2247 C2228 0.913 . S
H2248 C2266 0.951 . S
H2249 C2268 0.951 . S
H2250 C2270 0.950 . S
H2251 C2271 0.950 . S
H2252 C2273 0.950 . S
H2253 C2276 0.950 . S
H2254 C2277 0.950 . S
H2255 C2279 0.950 . S
H2256 C2280 0.950 . S
H2257 C2281 0.951 . S
H2258 C2283 0.951 . S
H2259 C2285 0.950 . S
H2260 C2286 0.950 . S
H2261 C2288 0.950 . S
H2262 C2291 0.950 . S
H2263 C2292 0.950 . S
H2264 C2294 0.950 . S
H2265 C2295 0.950 . S
C2266 H2248 0.951 . S
C2266 C2267 1.366 . S
C2266 C2268 1.388 . S
C2267 C2266 1.366 . S
C2267 C2271 1.385 . S
C2268 H2249 0.951 . S
C2268 C2266 1.388 . S
C2268 C2269 1.366 . S
C2269 C2268 1.366 . S
C2269 C2270 1.414 . S
C2269 C2272 1.499 . S
C2270 H2250 0.950 . S
C2270 C2269 1.414 . S
C2270 C2271 1.374 . S
C2271 H2251 0.950 . S
C2271 C2267 1.385 . S
C2271 C2270 1.374 . S
C2272 C2269 1.499 . S
C2272 C2273 1.373 . S
C2272 C2274 1.389 . S
C2273 H2252 0.950 . S
C2273 C2272 1.373 . S
C2273 C2289 1.377 . S
C2274 C2272 1.389 . S
C2274 C2275 1.524 . S
C2274 C2288 1.377 . S
C2275 C2274 1.524 . S
C2275 C2276 1.397 . S
C2275 C2280 1.363 . S
C2276 H2253 0.950 . S
C2276 C2275 1.397 . S
C2276 C2277 1.334 . S
C2277 H2254 0.950 . S
C2277 C2276 1.334 . S
C2277 C2278 1.287 . S
C2278 C2277 1.287 . S
C2278 C2279 1.524 . S
C2278 H2297 0.913 . S
C2279 H2255 0.950 . S
C2279 C2278 1.524 . S
C2279 C2280 1.415 . S
C2280 H2256 0.950 . S
C2280 C2275 1.363 . S
C2280 C2279 1.415 . S
C2281 H2257 0.951 . S
C2281 C2282 1.366 . S
C2281 C2283 1.388 . S
C2282 C2281 1.366 . S
C2282 C2286 1.385 . S
C2283 H2258 0.951 . S
C2283 C2281 1.388 . S
C2283 C2284 1.366 . S
C2284 C2283 1.366 . S
C2284 C2285 1.414 . S
C2284 C2287 1.499 . S
C2285 H2259 0.950 . S
C2285 C2284 1.414 . S
C2285 C2286 1.374 . S
C2286 H2260 0.950 . S
C2286 C2282 1.385 . S
C2286 C2285 1.374 . S
C2287 C2284 1.499 . S
C2287 C2288 1.373 . S
C2287 C2289 1.389 . S
C2288 H2261 0.950 . S
C2288 C2274 1.377 . S
C2288 C2287 1.373 . S
C2289 C2273 1.377 . S
C2289 C2287 1.389 . S
C2289 C2290 1.524 . S
C2290 C2289 1.524 . S
C2290 C2291 1.397 . S
C2290 C2295 1.363 . S
C2291 H2262 0.950 . S
C2291 C2290 1.397 . S
C2291 C2292 1.334 . S
C2292 H2263 0.950 . S
C2292 C2291 1.334 . S
C2292 C2293 1.287 . S
C2293 C2292 1.287 . S
C2293 C2294 1.524 . S
C2293 H2296 0.999 . S
C2294 H2264 0.950 . S
C2294 C2293 1.524 . S
C2294 C2295 1.415 . S
C2295 H2265 0.950 . S
C2295 C2290 1.363 . S
C2295 C2294 1.415 . S
H2296 C2293 0.999 . S
H2297 C2278 0.913 . S
H2298 C2316 0.951 . S
H2299 C2318 0.951 . S
H2300 C2320 0.950 . S
H2301 C2321 0.950 . S
H2302 C2323 0.956 . S
H2303 C2326 0.950 . S
H2304 C2327 0.950 . S
H2305 C2329 0.950 . S
H2306 C2330 0.950 . S
H2307 C2331 0.951 . S
H2308 C2333 0.951 . S
H2309 C2335 0.950 . S
H2310 C2336 0.950 . S
H2311 C2338 0.950 . S
H2312 C2341 0.950 . S
H2313 C2342 0.950 . S
H2314 C2344 0.950 . S
H2315 C2345 0.950 . S
C2316 H2298 0.951 . S
C2316 C2317 1.366 . S
C2316 C2318 1.388 . S
C2317 C2316 1.366 . S
C2317 C2321 1.385 . S
C2318 H2299 0.951 . S
C2318 C2316 1.388 . S
C2318 C2319 1.366 . S
C2319 C2318 1.366 . S
C2319 C2320 1.414 . S
C2319 C2322 1.499 1_455 S
C2320 H2300 0.950 . S
C2320 C2319 1.414 . S
C2320 C2321 1.374 . S
C2321 H2301 0.950 . S
C2321 C2317 1.385 . S
C2321 C2320 1.374 . S
C2322 C2319 1.499 1_655 S
C2322 C2323 1.373 . S
C2322 C2324 1.389 . S
C2323 H2302 0.956 . S
C2323 C2322 1.373 . S
C2323 C2339 1.377 . S
C2324 C2322 1.389 . S
C2324 C2325 1.524 . S
C2324 C2338 1.377 . S
C2325 C2324 1.524 . S
C2325 C2326 1.397 1_655 S
C2325 C2330 1.363 . S
C2326 H2303 0.950 . S
C2326 C2325 1.397 1_455 S
C2326 C2327 1.334 . S
C2327 H2304 0.950 . S
C2327 C2326 1.334 . S
C2327 C2328 1.287 . S
C2328 C2327 1.287 . S
C2328 C2329 1.524 1_455 S
C2328 H2347 0.913 1_556 S
C2329 H2305 0.950 . S
C2329 C2328 1.524 1_655 S
C2329 C2330 1.415 . S
C2330 H2306 0.950 . S
C2330 C2325 1.363 . S
C2330 C2329 1.415 . S
C2331 H2307 0.951 . S
C2331 C2332 1.366 . S
C2331 C2333 1.388 . S
C2332 C2331 1.366 . S
C2332 C2336 1.385 . S
C2333 H2308 0.951 . S
C2333 C2331 1.388 . S
C2333 C2334 1.366 . S
C2334 C2333 1.366 . S
C2334 C2335 1.414 . S
C2334 C2337 1.499 . S
C2335 H2309 0.950 . S
C2335 C2334 1.414 . S
C2335 C2336 1.374 . S
C2336 H2310 0.950 . S
C2336 C2332 1.385 . S
C2336 C2335 1.374 . S
C2337 C2334 1.499 . S
C2337 C2338 1.373 . S
C2337 C2339 1.389 . S
C2338 H2311 0.950 . S
C2338 C2324 1.377 . S
C2338 C2337 1.373 . S
C2339 C2323 1.377 . S
C2339 C2337 1.389 . S
C2339 C2340 1.524 . S
C2340 C2339 1.524 . S
C2340 C2341 1.397 . S
C2340 C2345 1.363 . S
C2341 H2312 0.950 . S
C2341 C2340 1.397 . S
C2341 C2342 1.334 . S
C2342 H2313 0.950 . S
C2342 C2341 1.334 . S
C2342 C2343 1.287 . S
C2343 C2342 1.287 . S
C2343 C2344 1.524 . S
C2343 H2346 0.999 . S
C2344 H2314 0.950 . S
C2344 C2343 1.524 . S
C2344 C2345 1.415 . S
C2345 H2315 0.950 . S
C2345 C2340 1.363 . S
C2345 C2344 1.415 . S
H2346 C2343 0.999 . S
H2347 C2328 0.913 1_554 S
H2348 C2366 0.951 . S
H2349 C2368 0.951 . S
H2350 C2370 0.950 . S
H2351 C2371 0.950 . S
H2352 C2373 0.950 . S
H2353 C2376 0.950 . S
H2354 C2377 0.950 . S
H2355 C2379 0.950 . S
H2356 C2380 0.950 . S
H2357 C2381 0.951 . S
H2358 C2383 0.951 . S
H2359 C2385 0.950 . S
H2360 C2386 0.950 . S
H2361 C2388 0.950 . S
H2362 C2391 0.950 . S
H2363 C2392 0.950 . S
H2364 C2394 0.950 1_556 S
H2365 C2395 0.950 . S
C2366 H2348 0.951 . S
C2366 C2367 1.366 . S
C2366 C2368 1.388 . S
C2367 C2366 1.366 . S
C2367 C2371 1.385 . S
C2368 H2349 0.951 . S
C2368 C2366 1.388 . S
C2368 C2369 1.366 . S
C2369 C2368 1.366 . S
C2369 C2370 1.414 . S
C2369 C2372 1.499 . S
C2370 H2350 0.950 . S
C2370 C2369 1.414 . S
C2370 C2371 1.374 . S
C2371 H2351 0.950 . S
C2371 C2367 1.385 . S
C2371 C2370 1.374 . S
C2372 C2369 1.499 . S
C2372 C2373 1.373 . S
C2372 C2374 1.389 . S
C2373 H2352 0.950 . S
C2373 C2372 1.373 . S
C2373 C2389 1.377 . S
C2374 C2372 1.389 . S
C2374 C2375 1.524 . S
C2374 C2388 1.377 . S
C2375 C2374 1.524 . S
C2375 C2376 1.397 . S
C2375 C2380 1.363 . S
C2376 H2353 0.950 . S
C2376 C2375 1.397 . S
C2376 C2377 1.334 . S
C2377 H2354 0.950 . S
C2377 C2376 1.334 . S
C2377 C2378 1.287 . S
C2378 C2377 1.287 . S
C2378 C2379 1.524 . S
C2378 H2397 0.913 . S
C2379 H2355 0.950 . S
C2379 C2378 1.524 . S
C2379 C2380 1.415 . S
C2380 H2356 0.950 . S
C2380 C2375 1.363 . S
C2380 C2379 1.415 . S
C2381 H2357 0.951 . S
C2381 C2382 1.366 . S
C2381 C2383 1.388 . S
C2382 C2381 1.366 . S
C2382 C2386 1.385 . S
C2383 H2358 0.951 . S
C2383 C2381 1.388 . S
C2383 C2384 1.366 . S
C2384 C2383 1.366 . S
C2384 C2385 1.414 . S
C2384 C2387 1.499 . S
C2385 H2359 0.950 . S
C2385 C2384 1.414 . S
C2385 C2386 1.374 . S
C2386 H2360 0.950 . S
C2386 C2382 1.385 . S
C2386 C2385 1.374 . S
C2387 C2384 1.499 . S
C2387 C2388 1.373 . S
C2387 C2389 1.389 . S
C2388 H2361 0.950 . S
C2388 C2374 1.377 . S
C2388 C2387 1.373 . S
C2389 C2373 1.377 . S
C2389 C2387 1.389 . S
C2389 C2390 1.524 . S
C2390 C2389 1.524 . S
C2390 C2391 1.397 . S
C2390 C2395 1.363 . S
C2391 H2362 0.950 . S
C2391 C2390 1.397 . S
C2391 C2392 1.334 . S
C2392 H2363 0.950 . S
C2392 C2391 1.334 . S
C2392 C2393 1.278 1_554 S
C2393 C2392 1.278 1_556 S
C2393 C2394 1.523 1_556 S
C2393 H2396 1.011 . S
C2394 H2364 0.950 1_554 S
C2394 C2393 1.523 1_554 S
C2394 C2395 1.415 . S
C2395 H2365 0.950 . S
C2395 C2390 1.363 . S
C2395 C2394 1.415 . S
H2396 C2393 1.011 . S
H2397 C2378 0.913 . S
H2398 C2416 0.951 . S
H2399 C2418 0.951 . S
H2400 C2420 0.950 . S
H2401 C2421 0.950 . S
H2402 C2423 0.950 . S
H2403 C2426 0.950 . S
H2404 C2427 0.950 . S
H2405 C2429 0.950 . S
H2406 C2430 0.950 . S
H2407 C2431 0.951 . S
H2408 C2433 0.951 . S
H2409 C2435 0.950 . S
H2410 C2436 0.950 . S
H2411 C2438 0.950 . S
H2412 C2441 0.950 . S
H2413 C2442 0.950 . S
H2414 C2444 0.950 . S
H2415 C2445 0.950 . S
C2416 H2398 0.951 . S
C2416 C2417 1.366 . S
C2416 C2418 1.388 . S
C2417 C2416 1.366 . S
C2417 C2421 1.385 . S
C2418 H2399 0.951 . S
C2418 C2416 1.388 . S
C2418 C2419 1.366 . S
C2419 C2418 1.366 . S
C2419 C2420 1.414 . S
C2419 C2422 1.499 . S
C2420 H2400 0.950 . S
C2420 C2419 1.414 . S
C2420 C2421 1.374 . S
C2421 H2401 0.950 . S
C2421 C2417 1.385 . S
C2421 C2420 1.374 . S
C2422 C2419 1.499 . S
C2422 C2423 1.373 . S
C2422 C2424 1.389 . S
C2423 H2402 0.950 . S
C2423 C2422 1.373 . S
C2423 C2439 1.377 . S
C2424 C2422 1.389 . S
C2424 C2425 1.524 . S
C2424 C2438 1.377 . S
C2425 C2424 1.524 . S
C2425 C2426 1.397 . S
C2425 C2430 1.363 . S
C2426 H2403 0.950 . S
C2426 C2425 1.397 . S
C2426 C2427 1.334 . S
C2427 H2404 0.950 . S
C2427 C2426 1.334 . S
C2427 C2428 1.287 . S
C2428 C2427 1.287 . S
C2428 C2429 1.524 . S
C2428 H2447 0.913 . S
C2429 H2405 0.950 . S
C2429 C2428 1.524 . S
C2429 C2430 1.415 . S
C2430 H2406 0.950 . S
C2430 C2425 1.363 . S
C2430 C2429 1.415 . S
C2431 H2407 0.951 . S
C2431 C2432 1.366 . S
C2431 C2433 1.388 . S
C2432 C2431 1.366 . S
C2432 C2436 1.385 . S
C2433 H2408 0.951 . S
C2433 C2431 1.388 . S
C2433 C2434 1.366 . S
C2434 C2433 1.366 . S
C2434 C2435 1.414 . S
C2434 C2437 1.499 . S
C2435 H2409 0.950 . S
C2435 C2434 1.414 . S
C2435 C2436 1.374 . S
C2436 H2410 0.950 . S
C2436 C2432 1.385 . S
C2436 C2435 1.374 . S
C2437 C2434 1.499 . S
C2437 C2438 1.373 . S
C2437 C2439 1.389 . S
C2438 H2411 0.950 . S
C2438 C2424 1.377 . S
C2438 C2437 1.373 . S
C2439 C2423 1.377 . S
C2439 C2437 1.389 . S
C2439 C2440 1.524 . S
C2440 C2439 1.524 . S
C2440 C2441 1.397 . S
C2440 C2445 1.363 . S
C2441 H2412 0.950 . S
C2441 C2440 1.397 . S
C2441 C2442 1.334 . S
C2442 H2413 0.950 . S
C2442 C2441 1.334 . S
C2442 C2443 1.287 . S
C2443 C2442 1.287 . S
C2443 C2444 1.524 . S
C2443 H2446 0.999 . S
C2444 H2414 0.950 . S
C2444 C2443 1.524 . S
C2444 C2445 1.415 . S
C2445 H2415 0.950 . S
C2445 C2440 1.363 . S
C2445 C2444 1.415 . S
H2446 C2443 0.999 . S
H2447 C2428 0.913 . S
H2448 C2466 0.951 . S
H2449 C2468 0.951 . S
H2450 C2470 0.950 . S
H2451 C2471 0.950 . S
H2452 C2473 0.950 . S
H2453 C2476 0.950 . S
H2454 C2477 0.950 . S
H2455 C2479 0.950 . S
H2456 C2480 0.950 . S
H2457 C2481 0.951 . S
H2458 C2483 0.951 . S
H2459 C2485 0.950 . S
H2460 C2486 0.950 . S
H2461 C2488 0.950 . S
H2462 C2491 0.950 . S
H2463 C2492 0.950 . S
H2464 C2494 0.950 1_556 S
H2465 C2495 0.950 . S
C2466 H2448 0.951 . S
C2466 C2467 1.366 . S
C2466 C2468 1.388 . S
C2467 C2466 1.366 . S
C2467 C2471 1.385 . S
C2468 H2449 0.951 . S
C2468 C2466 1.388 . S
C2468 C2469 1.366 . S
C2469 C2468 1.366 . S
C2469 C2470 1.414 . S
C2469 C2472 1.499 . S
C2470 H2450 0.950 . S
C2470 C2469 1.414 . S
C2470 C2471 1.374 . S
C2471 H2451 0.950 . S
C2471 C2467 1.385 . S
C2471 C2470 1.374 . S
C2472 C2469 1.499 . S
C2472 C2473 1.373 . S
C2472 C2474 1.389 . S
C2473 H2452 0.950 . S
C2473 C2472 1.373 . S
C2473 C2489 1.377 . S
C2474 C2472 1.389 . S
C2474 C2475 1.524 . S
C2474 C2488 1.377 . S
C2475 C2474 1.524 . S
C2475 C2476 1.397 . S
C2475 C2480 1.363 . S
C2476 H2453 0.950 . S
C2476 C2475 1.397 . S
C2476 C2477 1.334 . S
C2477 H2454 0.950 . S
C2477 C2476 1.334 . S
C2477 C2478 1.287 . S
C2478 C2477 1.287 . S
C2478 C2479 1.524 . S
C2478 H2497 0.913 . S
C2479 H2455 0.950 . S
C2479 C2478 1.524 . S
C2479 C2480 1.415 . S
C2480 H2456 0.950 . S
C2480 C2475 1.363 . S
C2480 C2479 1.415 . S
C2481 H2457 0.951 . S
C2481 C2482 1.366 . S
C2481 C2483 1.388 . S
C2482 C2481 1.366 . S
C2482 C2486 1.385 . S
C2483 H2458 0.951 . S
C2483 C2481 1.388 . S
C2483 C2484 1.366 . S
C2484 C2483 1.366 . S
C2484 C2485 1.414 . S
C2484 C2487 1.499 . S
C2485 H2459 0.950 . S
C2485 C2484 1.414 . S
C2485 C2486 1.374 . S
C2486 H2460 0.950 . S
C2486 C2482 1.385 . S
C2486 C2485 1.374 . S
C2487 C2484 1.499 . S
C2487 C2488 1.373 . S
C2487 C2489 1.389 . S
C2488 H2461 0.950 . S
C2488 C2474 1.377 . S
C2488 C2487 1.373 . S
C2489 C2473 1.377 . S
C2489 C2487 1.389 . S
C2489 C2490 1.524 . S
C2490 C2489 1.524 . S
C2490 C2491 1.397 . S
C2490 C2495 1.363 . S
C2491 H2462 0.950 . S
C2491 C2490 1.397 . S
C2491 C2492 1.334 . S
C2492 H2463 0.950 . S
C2492 C2491 1.334 . S
C2492 C2493 1.287 . S
C2493 C2492 1.287 . S
C2493 C2494 1.524 . S
C2493 H2496 0.999 1_554 S
C2494 H2464 0.950 1_554 S
C2494 C2493 1.524 . S
C2494 C2495 1.415 . S
C2495 H2465 0.950 . S
C2495 C2490 1.363 . S
C2495 C2494 1.415 . S
H2496 C2493 0.999 1_556 S
H2497 C2478 0.913 . S
H2498 C2516 0.951 . S
H2499 C2518 0.951 . S
H2500 C2520 0.950 . S
H2501 C2521 0.950 . S
H2502 C2523 0.950 . S
H2503 C2526 0.950 . S
H2504 C2527 0.950 . S
H2505 C2529 0.950 . S
H2506 C2530 0.950 . S
H2507 C2531 0.951 . S
H2508 C2533 0.951 . S
H2509 C2535 0.950 . S
H2510 C2536 0.950 . S
H2511 C2538 0.950 . S
H2512 C2541 0.950 . S
H2513 C2542 0.950 . S
H2514 C2544 0.950 . S
H2515 C2545 0.950 . S
C2516 H2498 0.951 . S
C2516 C2517 1.366 . S
C2516 C2518 1.388 . S
C2517 C2516 1.366 . S
C2517 C2521 1.385 . S
C2518 H2499 0.951 . S
C2518 C2516 1.388 . S
C2518 C2519 1.366 . S
C2519 C2518 1.366 . S
C2519 C2520 1.414 . S
C2519 C2522 1.499 . S
C2520 H2500 0.950 . S
C2520 C2519 1.414 . S
C2520 C2521 1.374 . S
C2521 H2501 0.950 . S
C2521 C2517 1.385 . S
C2521 C2520 1.374 . S
C2522 C2519 1.499 . S
C2522 C2523 1.373 . S
C2522 C2524 1.389 . S
C2523 H2502 0.950 . S
C2523 C2522 1.373 . S
C2523 C2539 1.377 . S
C2524 C2522 1.389 . S
C2524 C2525 1.524 . S
C2524 C2538 1.377 . S
C2525 C2524 1.524 . S
C2525 C2526 1.397 . S
C2525 C2530 1.363 . S
C2526 H2503 0.950 . S
C2526 C2525 1.397 . S
C2526 C2527 1.334 . S
C2527 H2504 0.950 . S
C2527 C2526 1.334 . S
C2527 C2528 1.287 . S
C2528 C2527 1.287 . S
C2528 C2529 1.524 . S
C2528 H2547 0.913 . S
C2529 H2505 0.950 . S
C2529 C2528 1.524 . S
C2529 C2530 1.415 . S
C2530 H2506 0.950 . S
C2530 C2525 1.363 . S
C2530 C2529 1.415 . S
C2531 H2507 0.951 . S
C2531 C2532 1.366 . S
C2531 C2533 1.388 . S
C2532 C2531 1.366 . S
C2532 C2536 1.385 . S
C2533 H2508 0.951 . S
C2533 C2531 1.388 . S
C2533 C2534 1.366 . S
C2534 C2533 1.366 . S
C2534 C2535 1.414 . S
C2534 C2537 1.499 . S
C2535 H2509 0.950 . S
C2535 C2534 1.414 . S
C2535 C2536 1.374 . S
C2536 H2510 0.950 . S
C2536 C2532 1.385 . S
C2536 C2535 1.374 . S
C2537 C2534 1.499 . S
C2537 C2538 1.373 . S
C2537 C2539 1.389 . S
C2538 H2511 0.950 . S
C2538 C2524 1.377 . S
C2538 C2537 1.373 . S
C2539 C2523 1.377 . S
C2539 C2537 1.389 . S
C2539 C2540 1.524 . S
C2540 C2539 1.524 . S
C2540 C2541 1.397 . S
C2540 C2545 1.363 . S
C2541 H2512 0.950 . S
C2541 C2540 1.397 . S
C2541 C2542 1.334 . S
C2542 H2513 0.950 . S
C2542 C2541 1.334 . S
C2542 C2543 1.287 . S
C2543 C2542 1.287 . S
C2543 C2544 1.524 . S
C2543 H2546 0.999 . S
C2544 H2514 0.950 . S
C2544 C2543 1.524 . S
C2544 C2545 1.415 . S
C2545 H2515 0.950 . S
C2545 C2540 1.363 . S
C2545 C2544 1.415 . S
H2546 C2543 0.999 . S
H2547 C2528 0.913 . S
H2548 C2566 0.951 . S
H2549 C2568 0.951 . S
H2550 C2570 0.950 . S
H2551 C2571 0.950 . S
H2552 C2573 0.950 . S
H2553 C2576 0.950 . S
H2554 C2577 0.950 . S
H2555 C2579 0.950 . S
H2556 C2580 0.950 . S
H2557 C2581 0.951 . S
H2558 C2583 0.951 . S
H2559 C2585 0.950 . S
H2560 C2586 0.950 . S
H2561 C2588 0.950 . S
H2562 C2591 0.950 . S
H2563 C2592 0.950 . S
H2564 C2594 0.950 . S
H2565 C2595 0.950 . S
C2566 H2548 0.951 . S
C2566 C2567 1.366 . S
C2566 C2568 1.388 . S
C2567 C2566 1.366 . S
C2567 C2571 1.385 . S
C2568 H2549 0.951 . S
C2568 C2566 1.388 . S
C2568 C2569 1.366 . S
C2569 C2568 1.366 . S
C2569 C2570 1.414 . S
C2569 C2572 1.499 . S
C2570 H2550 0.950 . S
C2570 C2569 1.414 . S
C2570 C2571 1.374 . S
C2571 H2551 0.950 . S
C2571 C2567 1.385 . S
C2571 C2570 1.374 . S
C2572 C2569 1.499 . S
C2572 C2573 1.373 . S
C2572 C2574 1.389 . S
C2573 H2552 0.950 . S
C2573 C2572 1.373 . S
C2573 C2589 1.377 . S
C2574 C2572 1.389 . S
C2574 C2575 1.524 . S
C2574 C2588 1.377 . S
C2575 C2574 1.524 . S
C2575 C2576 1.397 . S
C2575 C2580 1.363 . S
C2576 H2553 0.950 . S
C2576 C2575 1.397 . S
C2576 C2577 1.334 . S
C2577 H2554 0.950 . S
C2577 C2576 1.334 . S
C2577 C2578 1.287 . S
C2578 C2577 1.287 . S
C2578 C2579 1.524 . S
C2578 H2597 0.913 . S
C2579 H2555 0.950 . S
C2579 C2578 1.524 . S
C2579 C2580 1.415 . S
C2580 H2556 0.950 . S
C2580 C2575 1.363 . S
C2580 C2579 1.415 . S
C2581 H2557 0.951 . S
C2581 C2582 1.366 . S
C2581 C2583 1.388 . S
C2582 C2581 1.366 . S
C2582 C2586 1.385 . S
C2583 H2558 0.951 . S
C2583 C2581 1.388 . S
C2583 C2584 1.366 . S
C2584 C2583 1.366 . S
C2584 C2585 1.414 . S
C2584 C2587 1.499 . S
C2585 H2559 0.950 . S
C2585 C2584 1.414 . S
C2585 C2586 1.374 . S
C2586 H2560 0.950 . S
C2586 C2582 1.385 . S
C2586 C2585 1.374 . S
C2587 C2584 1.499 . S
C2587 C2588 1.373 . S
C2587 C2589 1.389 . S
C2588 H2561 0.950 . S
C2588 C2574 1.377 . S
C2588 C2587 1.373 . S
C2589 C2573 1.377 . S
C2589 C2587 1.389 . S
C2589 C2590 1.524 . S
C2590 C2589 1.524 . S
C2590 C2591 1.397 . S
C2590 C2595 1.363 . S
C2591 H2562 0.950 . S
C2591 C2590 1.397 . S
C2591 C2592 1.334 . S
C2592 H2563 0.950 . S
C2592 C2591 1.334 . S
C2592 C2593 1.287 . S
C2593 C2592 1.287 . S
C2593 C2594 1.524 . S
C2593 H2596 0.999 . S
C2594 H2564 0.950 . S
C2594 C2593 1.524 . S
C2594 C2595 1.415 . S
C2595 H2565 0.950 . S
C2595 C2590 1.363 . S
C2595 C2594 1.415 . S
H2596 C2593 0.999 . S
H2597 C2578 0.913 . S
H2598 C2616 0.951 . S
H2599 C2618 0.951 . S
H2600 C2620 0.950 . S
H2601 C2621 0.950 . S
H2602 C2623 0.950 . S
H2603 C2626 0.950 . S
H2604 C2627 0.950 . S
H2605 C2629 0.950 . S
H2606 C2630 0.950 . S
H2607 C2631 0.951 . S
H2608 C2633 0.951 . S
H2609 C2635 0.950 . S
H2610 C2636 0.950 . S
H2611 C2638 0.935 1_655 S
H2612 C2641 0.950 . S
H2613 C2642 0.950 . S
H2614 C2644 0.950 . S
H2615 C2645 0.950 . S
C2616 H2598 0.951 . S
C2616 C2617 1.366 . S
C2616 C2618 1.388 . S
C2617 C2616 1.366 . S
C2617 C2621 1.385 . S
C2618 H2599 0.951 . S
C2618 C2616 1.388 . S
C2618 C2619 1.366 . S
C2619 C2618 1.366 . S
C2619 C2620 1.414 . S
C2619 C2622 1.499 . S
C2620 H2600 0.950 . S
C2620 C2619 1.414 . S
C2620 C2621 1.374 . S
C2621 H2601 0.950 . S
C2621 C2617 1.385 . S
C2621 C2620 1.374 . S
C2622 C2619 1.499 . S
C2622 C2623 1.373 . S
C2622 C2624 1.389 . S
C2623 H2602 0.950 . S
C2623 C2622 1.373 . S
C2623 C2639 1.377 . S
C2624 C2622 1.389 . S
C2624 C2625 1.524 . S
C2624 C2638 1.377 . S
C2625 C2624 1.524 . S
C2625 C2626 1.397 . S
C2625 C2630 1.363 . S
C2626 H2603 0.950 . S
C2626 C2625 1.397 . S
C2626 C2627 1.334 . S
C2627 H2604 0.950 . S
C2627 C2626 1.334 . S
C2627 C2628 1.287 . S
C2628 C2627 1.287 . S
C2628 C2629 1.524 . S
C2628 H2647 0.913 . S
C2629 H2605 0.950 . S
C2629 C2628 1.524 . S
C2629 C2630 1.415 . S
C2630 H2606 0.950 . S
C2630 C2625 1.363 . S
C2630 C2629 1.415 . S
C2631 H2607 0.951 . S
C2631 C2632 1.366 . S
C2631 C2633 1.388 . S
C2632 C2631 1.366 . S
C2632 C2636 1.385 . S
C2633 H2608 0.951 . S
C2633 C2631 1.388 . S
C2633 C2634 1.366 . S
C2634 C2633 1.366 . S
C2634 C2635 1.414 . S
C2634 C2637 1.499 1_655 S
C2635 H2609 0.950 . S
C2635 C2634 1.414 . S
C2635 C2636 1.374 . S
C2636 H2610 0.950 . S
C2636 C2632 1.385 . S
C2636 C2635 1.374 . S
C2637 C2634 1.499 1_455 S
C2637 C2638 1.373 . S
C2637 C2639 1.389 . S
C2638 H2611 0.935 1_455 S
C2638 C2624 1.377 . S
C2638 C2637 1.373 . S
C2639 C2623 1.377 . S
C2639 C2637 1.389 . S
C2639 C2640 1.524 . S
C2640 C2639 1.524 . S
C2640 C2641 1.397 1_455 S
C2640 C2645 1.363 . S
C2641 H2612 0.950 . S
C2641 C2640 1.397 1_655 S
C2641 C2642 1.334 . S
C2642 H2613 0.950 . S
C2642 C2641 1.334 . S
C2642 C2643 1.287 . S
C2643 C2642 1.287 . S
C2643 C2644 1.524 1_655 S
C2643 H2646 0.999 . S
C2644 H2614 0.950 . S
C2644 C2643 1.524 1_455 S
C2644 C2645 1.415 . S
C2645 H2615 0.950 . S
C2645 C2640 1.363 . S
C2645 C2644 1.415 . S
H2646 C2643 0.999 . S
H2647 C2628 0.913 . S
H2648 C2666 0.951 . S
H2649 C2668 0.951 . S
H2650 C2670 0.950 . S
H2651 C2671 0.950 . S
H2652 C2673 0.950 . S
H2653 C2676 0.950 . S
H2654 C2677 0.950 . S
H2655 C2679 0.950 . S
H2656 C2680 0.950 . S
H2657 C2681 0.951 . S
H2658 C2683 0.951 . S
H2659 C2685 0.950 . S
H2660 C2686 0.950 . S
H2661 C2688 0.950 . S
H2662 C2691 0.950 . S
H2663 C2692 0.950 . S
H2664 C2694 0.950 . S
H2665 C2695 0.950 . S
C2666 H2648 0.951 . S
C2666 C2667 1.366 . S
C2666 C2668 1.388 . S
C2667 C2666 1.366 . S
C2667 C2671 1.385 . S
C2668 H2649 0.951 . S
C2668 C2666 1.388 . S
C2668 C2669 1.366 . S
C2669 C2668 1.366 . S
C2669 C2670 1.414 . S
C2669 C2672 1.499 . S
C2670 H2650 0.950 . S
C2670 C2669 1.414 . S
C2670 C2671 1.374 . S
C2671 H2651 0.950 . S
C2671 C2667 1.385 . S
C2671 C2670 1.374 . S
C2672 C2669 1.499 . S
C2672 C2673 1.373 . S
C2672 C2674 1.389 . S
C2673 H2652 0.950 . S
C2673 C2672 1.373 . S
C2673 C2689 1.377 . S
C2674 C2672 1.389 . S
C2674 C2675 1.524 . S
C2674 C2688 1.377 . S
C2675 C2674 1.524 . S
C2675 C2676 1.397 . S
C2675 C2680 1.363 . S
C2676 H2653 0.950 . S
C2676 C2675 1.397 . S
C2676 C2677 1.334 . S
C2677 H2654 0.950 . S
C2677 C2676 1.334 . S
C2677 C2678 1.287 . S
C2678 C2677 1.287 . S
C2678 C2679 1.524 . S
C2678 H2697 0.913 . S
C2679 H2655 0.950 . S
C2679 C2678 1.524 . S
C2679 C2680 1.415 . S
C2680 H2656 0.950 . S
C2680 C2675 1.363 . S
C2680 C2679 1.415 . S
C2681 H2657 0.951 . S
C2681 C2682 1.366 . S
C2681 C2683 1.388 . S
C2682 C2681 1.366 . S
C2682 C2686 1.385 . S
C2683 H2658 0.951 . S
C2683 C2681 1.388 . S
C2683 C2684 1.366 . S
C2684 C2683 1.366 . S
C2684 C2685 1.414 . S
C2684 C2687 1.499 . S
C2685 H2659 0.950 . S
C2685 C2684 1.414 . S
C2685 C2686 1.374 . S
C2686 H2660 0.950 . S
C2686 C2682 1.385 . S
C2686 C2685 1.374 . S
C2687 C2684 1.499 . S
C2687 C2688 1.373 . S
C2687 C2689 1.389 . S
C2688 H2661 0.950 . S
C2688 C2674 1.377 . S
C2688 C2687 1.373 . S
C2689 C2673 1.377 . S
C2689 C2687 1.389 . S
C2689 C2690 1.524 . S
C2690 C2689 1.524 . S
C2690 C2691 1.397 . S
C2690 C2695 1.363 . S
C2691 H2662 0.950 . S
C2691 C2690 1.397 . S
C2691 C2692 1.334 . S
C2692 H2663 0.950 . S
C2692 C2691 1.334 . S
C2692 C2693 1.287 . S
C2693 C2692 1.287 . S
C2693 C2694 1.524 . S
C2693 H2696 0.999 . S
C2694 H2664 0.950 . S
C2694 C2693 1.524 . S
C2694 C2695 1.415 . S
C2695 H2665 0.950 . S
C2695 C2690 1.363 . S
C2695 C2694 1.415 . S
H2696 C2693 0.999 . S
H2697 C2678 0.913 . S
H2698 C2716 0.951 . S
H2699 C2718 0.951 . S
H2700 C2720 0.950 . S
H2701 C2721 0.950 . S
H2702 C2723 0.960 . S
H2703 C2726 0.950 . S
H2704 C2727 0.950 . S
H2705 C2729 0.950 . S
H2706 C2730 0.950 . S
H2707 C2731 0.951 . S
H2708 C2733 0.951 . S
H2709 C2735 0.950 . S
H2710 C2736 0.950 . S
H2711 C2738 0.950 . S
H2712 C2741 0.950 . S
H2713 C2742 0.950 . S
H2714 C2744 0.950 . S
H2715 C2745 0.950 . S
C2716 H2698 0.951 . S
C2716 C2717 1.366 . S
C2716 C2718 1.388 . S
C2717 C2716 1.366 . S
C2717 C2721 1.385 . S
C2718 H2699 0.951 . S
C2718 C2716 1.388 . S
C2718 C2719 1.366 . S
C2719 C2718 1.366 . S
C2719 C2720 1.414 . S
C2719 C2722 1.499 1_655 S
C2720 H2700 0.950 . S
C2720 C2719 1.414 . S
C2720 C2721 1.374 . S
C2721 H2701 0.950 . S
C2721 C2717 1.385 . S
C2721 C2720 1.374 . S
C2722 C2719 1.499 1_455 S
C2722 C2723 1.373 . S
C2722 C2724 1.389 . S
C2723 H2702 0.960 . S
C2723 C2722 1.373 . S
C2723 C2739 1.377 . S
C2724 C2722 1.389 . S
C2724 C2725 1.524 . S
C2724 C2738 1.377 . S
C2725 C2724 1.524 . S
C2725 C2726 1.397 1_455 S
C2725 C2730 1.363 . S
C2726 H2703 0.950 . S
C2726 C2725 1.397 1_655 S
C2726 C2727 1.334 . S
C2727 H2704 0.950 . S
C2727 C2726 1.334 . S
C2727 C2728 1.287 . S
C2728 C2727 1.287 . S
C2728 C2729 1.524 1_655 S
C2728 H2747 0.913 . S
C2729 H2705 0.950 . S
C2729 C2728 1.524 1_455 S
C2729 C2730 1.415 . S
C2730 H2706 0.950 . S
C2730 C2725 1.363 . S
C2730 C2729 1.415 . S
C2731 H2707 0.951 . S
C2731 C2732 1.366 . S
C2731 C2733 1.388 . S
C2732 C2731 1.366 . S
C2732 C2736 1.385 . S
C2733 H2708 0.951 . S
C2733 C2731 1.388 . S
C2733 C2734 1.366 . S
C2734 C2733 1.366 . S
C2734 C2735 1.414 . S
C2734 C2737 1.499 . S
C2735 H2709 0.950 . S
C2735 C2734 1.414 . S
C2735 C2736 1.374 . S
C2736 H2710 0.950 . S
C2736 C2732 1.385 . S
C2736 C2735 1.374 . S
C2737 C2734 1.499 . S
C2737 C2738 1.373 . S
C2737 C2739 1.389 . S
C2738 H2711 0.950 . S
C2738 C2724 1.377 . S
C2738 C2737 1.373 . S
C2739 C2723 1.377 . S
C2739 C2737 1.389 . S
C2739 C2740 1.524 . S
C2740 C2739 1.524 . S
C2740 C2741 1.397 . S
C2740 C2745 1.363 . S
C2741 H2712 0.950 . S
C2741 C2740 1.397 . S
C2741 C2742 1.334 . S
C2742 H2713 0.950 . S
C2742 C2741 1.334 . S
C2742 C2743 1.287 . S
C2743 C2742 1.287 . S
C2743 C2744 1.524 . S
C2743 H2746 0.999 . S
C2744 H2714 0.950 . S
C2744 C2743 1.524 . S
C2744 C2745 1.415 . S
C2745 H2715 0.950 . S
C2745 C2740 1.363 . S
C2745 C2744 1.415 . S
H2746 C2743 0.999 . S
H2747 C2728 0.913 . S
H2748 C2766 0.951 . S
H2749 C2768 0.951 . S
H2750 C2770 0.950 . S
H2751 C2771 0.950 . S
H2752 C2773 0.950 . S
H2753 C2776 0.950 . S
H2754 C2777 0.950 . S
H2755 C2779 0.950 . S
H2756 C2780 0.950 . S
H2757 C2781 0.951 . S
H2758 C2783 0.951 . S
H2759 C2785 0.950 . S
H2760 C2786 0.950 . S
H2761 C2788 0.950 . S
H2762 C2791 0.950 . S
H2763 C2792 0.950 . S
H2764 C2794 0.950 . S
H2765 C2795 0.950 . S
C2766 H2748 0.951 . S
C2766 C2767 1.366 . S
C2766 C2768 1.388 . S
C2767 C2766 1.366 . S
C2767 C2771 1.385 . S
C2768 H2749 0.951 . S
C2768 C2766 1.388 . S
C2768 C2769 1.366 . S
C2769 C2768 1.366 . S
C2769 C2770 1.414 . S
C2769 C2772 1.499 . S
C2770 H2750 0.950 . S
C2770 C2769 1.414 . S
C2770 C2771 1.374 . S
C2771 H2751 0.950 . S
C2771 C2767 1.385 . S
C2771 C2770 1.374 . S
C2772 C2769 1.499 . S
C2772 C2773 1.373 . S
C2772 C2774 1.389 . S
C2773 H2752 0.950 . S
C2773 C2772 1.373 . S
C2773 C2789 1.377 . S
C2774 C2772 1.389 . S
C2774 C2775 1.524 . S
C2774 C2788 1.377 . S
C2775 C2774 1.524 . S
C2775 C2776 1.397 . S
C2775 C2780 1.363 . S
C2776 H2753 0.950 . S
C2776 C2775 1.397 . S
C2776 C2777 1.334 . S
C2777 H2754 0.950 . S
C2777 C2776 1.334 . S
C2777 C2778 1.287 . S
C2778 C2777 1.287 . S
C2778 C2779 1.524 . S
C2778 H2797 0.913 . S
C2779 H2755 0.950 . S
C2779 C2778 1.524 . S
C2779 C2780 1.415 . S
C2780 H2756 0.950 . S
C2780 C2775 1.363 . S
C2780 C2779 1.415 . S
C2781 H2757 0.951 . S
C2781 C2782 1.366 . S
C2781 C2783 1.388 . S
C2782 C2781 1.366 . S
C2782 C2786 1.385 . S
C2783 H2758 0.951 . S
C2783 C2781 1.388 . S
C2783 C2784 1.366 . S
C2784 C2783 1.366 . S
C2784 C2785 1.414 . S
C2784 C2787 1.499 . S
C2785 H2759 0.950 . S
C2785 C2784 1.414 . S
C2785 C2786 1.374 . S
C2786 H2760 0.950 . S
C2786 C2782 1.385 . S
C2786 C2785 1.374 . S
C2787 C2784 1.499 . S
C2787 C2788 1.373 . S
C2787 C2789 1.389 . S
C2788 H2761 0.950 . S
C2788 C2774 1.377 . S
C2788 C2787 1.373 . S
C2789 C2773 1.377 . S
C2789 C2787 1.389 . S
C2789 C2790 1.524 . S
C2790 C2789 1.524 . S
C2790 C2791 1.397 . S
C2790 C2795 1.363 . S
C2791 H2762 0.950 . S
C2791 C2790 1.397 . S
C2791 C2792 1.334 . S
C2792 H2763 0.950 . S
C2792 C2791 1.334 . S
C2792 C2793 1.287 . S
C2793 C2792 1.287 . S
C2793 C2794 1.524 . S
C2793 H2796 0.999 . S
C2794 H2764 0.950 . S
C2794 C2793 1.524 . S
C2794 C2795 1.415 . S
C2795 H2765 0.950 . S
C2795 C2790 1.363 . S
C2795 C2794 1.415 . S
H2796 C2793 0.999 . S
H2797 C2778 0.913 . S
H2798 C2816 0.951 . S
H2799 C2818 0.951 . S
H2800 C2820 0.950 . S
H2801 C2821 0.950 . S
H2802 C2823 0.950 . S
H2803 C2826 0.950 . S
H2804 C2827 0.950 . S
H2805 C2829 0.950 . S
H2806 C2830 0.950 . S
H2807 C2831 0.951 . S
H2808 C2833 0.951 . S
H2809 C2835 0.950 . S
H2810 C2836 0.950 . S
H2811 C2838 0.950 . S
H2812 C2841 0.950 . S
H2813 C2842 0.950 . S
H2814 C2844 0.950 . S
H2815 C2845 0.950 . S
C2816 H2798 0.951 . S
C2816 C2817 1.366 . S
C2816 C2818 1.388 . S
C2817 C2816 1.366 . S
C2817 C2821 1.385 . S
C2818 H2799 0.951 . S
C2818 C2816 1.388 . S
C2818 C2819 1.366 . S
C2819 C2818 1.366 . S
C2819 C2820 1.414 . S
C2819 C2822 1.499 . S
C2820 H2800 0.950 . S
C2820 C2819 1.414 . S
C2820 C2821 1.374 . S
C2821 H2801 0.950 . S
C2821 C2817 1.385 . S
C2821 C2820 1.374 . S
C2822 C2819 1.499 . S
C2822 C2823 1.373 . S
C2822 C2824 1.389 . S
C2823 H2802 0.950 . S
C2823 C2822 1.373 . S
C2823 C2839 1.377 . S
C2824 C2822 1.389 . S
C2824 C2825 1.524 . S
C2824 C2838 1.377 . S
C2825 C2824 1.524 . S
C2825 C2826 1.397 . S
C2825 C2830 1.363 . S
C2826 H2803 0.950 . S
C2826 C2825 1.397 . S
C2826 C2827 1.334 . S
C2827 H2804 0.950 . S
C2827 C2826 1.334 . S
C2827 C2828 1.287 . S
C2828 C2827 1.287 . S
C2828 C2829 1.524 . S
C2828 H2847 0.913 . S
C2829 H2805 0.950 . S
C2829 C2828 1.524 . S
C2829 C2830 1.415 . S
C2830 H2806 0.950 . S
C2830 C2825 1.363 . S
C2830 C2829 1.415 . S
C2831 H2807 0.951 . S
C2831 C2832 1.366 . S
C2831 C2833 1.388 . S
C2832 C2831 1.366 . S
C2832 C2836 1.385 . S
C2833 H2808 0.951 . S
C2833 C2831 1.388 . S
C2833 C2834 1.366 . S
C2834 C2833 1.366 . S
C2834 C2835 1.414 . S
C2834 C2837 1.499 . S
C2835 H2809 0.950 . S
C2835 C2834 1.414 . S
C2835 C2836 1.374 . S
C2836 H2810 0.950 . S
C2836 C2832 1.385 . S
C2836 C2835 1.374 . S
C2837 C2834 1.499 . S
C2837 C2838 1.373 . S
C2837 C2839 1.389 . S
C2838 H2811 0.950 . S
C2838 C2824 1.377 . S
C2838 C2837 1.373 . S
C2839 C2823 1.377 . S
C2839 C2837 1.389 . S
C2839 C2840 1.524 . S
C2840 C2839 1.524 . S
C2840 C2841 1.397 . S
C2840 C2845 1.363 . S
C2841 H2812 0.950 . S
C2841 C2840 1.397 . S
C2841 C2842 1.334 . S
C2842 H2813 0.950 . S
C2842 C2841 1.334 . S
C2842 C2843 1.287 . S
C2843 C2842 1.287 . S
C2843 C2844 1.524 . S
C2843 H2846 0.999 . S
C2844 H2814 0.950 . S
C2844 C2843 1.524 . S
C2844 C2845 1.415 . S
C2845 H2815 0.950 . S
C2845 C2840 1.363 . S
C2845 C2844 1.415 . S
H2846 C2843 0.999 . S
H2847 C2828 0.913 . S
H2848 C2866 0.951 . S
H2849 C2868 0.951 . S
H2850 C2870 0.950 . S
H2851 C2871 0.950 . S
H2852 C2873 0.950 . S
H2853 C2876 0.950 . S
H2854 C2877 0.950 . S
H2855 C2879 0.950 . S
H2856 C2880 0.950 . S
H2857 C2881 0.951 . S
H2858 C2883 0.951 . S
H2859 C2885 0.950 . S
H2860 C2886 0.950 . S
H2861 C2888 0.950 . S
H2862 C2891 0.950 . S
H2863 C2892 0.950 . S
H2864 C2894 0.950 . S
H2865 C2895 0.950 . S
C2866 H2848 0.951 . S
C2866 C2867 1.366 . S
C2866 C2868 1.388 . S
C2867 C2866 1.366 . S
C2867 C2871 1.385 . S
C2868 H2849 0.951 . S
C2868 C2866 1.388 . S
C2868 C2869 1.366 . S
C2869 C2868 1.366 . S
C2869 C2870 1.414 . S
C2869 C2872 1.499 . S
C2870 H2850 0.950 . S
C2870 C2869 1.414 . S
C2870 C2871 1.374 . S
C2871 H2851 0.950 . S
C2871 C2867 1.385 . S
C2871 C2870 1.374 . S
C2872 C2869 1.499 . S
C2872 C2873 1.373 . S
C2872 C2874 1.389 . S
C2873 H2852 0.950 . S
C2873 C2872 1.373 . S
C2873 C2889 1.377 . S
C2874 C2872 1.389 . S
C2874 C2875 1.524 . S
C2874 C2888 1.377 . S
C2875 C2874 1.524 . S
C2875 C2876 1.397 . S
C2875 C2880 1.363 . S
C2876 H2853 0.950 . S
C2876 C2875 1.397 . S
C2876 C2877 1.334 . S
C2877 H2854 0.950 . S
C2877 C2876 1.334 . S
C2877 C2878 1.287 . S
C2878 C2877 1.287 . S
C2878 C2879 1.524 . S
C2878 H2897 0.913 . S
C2879 H2855 0.950 . S
C2879 C2878 1.524 . S
C2879 C2880 1.415 . S
C2880 H2856 0.950 . S
C2880 C2875 1.363 . S
C2880 C2879 1.415 . S
C2881 H2857 0.951 . S
C2881 C2882 1.366 . S
C2881 C2883 1.388 . S
C2882 C2881 1.366 . S
C2882 C2886 1.385 . S
C2883 H2858 0.951 . S
C2883 C2881 1.388 . S
C2883 C2884 1.366 . S
C2884 C2883 1.366 . S
C2884 C2885 1.414 . S
C2884 C2887 1.499 . S
C2885 H2859 0.950 . S
C2885 C2884 1.414 . S
C2885 C2886 1.374 . S
C2886 H2860 0.950 . S
C2886 C2882 1.385 . S
C2886 C2885 1.374 . S
C2887 C2884 1.499 . S
C2887 C2888 1.373 . S
C2887 C2889 1.389 . S
C2888 H2861 0.950 . S
C2888 C2874 1.377 . S
C2888 C2887 1.373 . S
C2889 C2873 1.377 . S
C2889 C2887 1.389 . S
C2889 C2890 1.524 . S
C2890 C2889 1.524 . S
C2890 C2891 1.397 . S
C2890 C2895 1.363 . S
C2891 H2862 0.950 . S
C2891 C2890 1.397 . S
C2891 C2892 1.334 . S
C2892 H2863 0.950 . S
C2892 C2891 1.334 . S
C2892 C2893 1.287 . S
C2893 C2892 1.287 . S
C2893 C2894 1.524 . S
C2893 H2896 0.999 . S
C2894 H2864 0.950 . S
C2894 C2893 1.524 . S
C2894 C2895 1.415 . S
C2895 H2865 0.950 . S
C2895 C2890 1.363 . S
C2895 C2894 1.415 . S
H2896 C2893 0.999 . S
H2897 C2878 0.913 . S
H2898 C2916 0.951 . S
H2899 C2918 0.951 . S
H2900 C2920 0.950 . S
H2901 C2921 0.950 . S
H2902 C2923 0.950 . S
H2903 C2926 0.950 . S
H2904 C2927 0.950 . S
H2905 C2929 0.950 . S
H2906 C2930 0.950 . S
H2907 C2931 0.951 . S
H2908 C2933 0.951 . S
H2909 C2935 0.950 . S
H2910 C2936 0.950 1_554 S
H2911 C2938 0.950 . S
H2912 C2941 0.950 . S
H2913 C2942 0.950 . S
H2914 C2944 0.950 . S
H2915 C2945 0.950 . S
C2916 H2898 0.951 . S
C2916 C2917 1.366 . S
C2916 C2918 1.388 . S
C2917 C2916 1.366 . S
C2917 C2921 1.385 . S
C2918 H2899 0.951 . S
C2918 C2916 1.388 . S
C2918 C2919 1.366 . S
C2919 C2918 1.366 . S
C2919 C2920 1.414 . S
C2919 C2922 1.499 . S
C2920 H2900 0.950 . S
C2920 C2919 1.414 . S
C2920 C2921 1.374 . S
C2921 H2901 0.950 . S
C2921 C2917 1.385 . S
C2921 C2920 1.374 . S
C2922 C2919 1.499 . S
C2922 C2923 1.373 . S
C2922 C2924 1.389 . S
C2923 H2902 0.950 . S
C2923 C2922 1.373 . S
C2923 C2939 1.377 . S
C2924 C2922 1.389 . S
C2924 C2925 1.524 . S
C2924 C2938 1.377 . S
C2925 C2924 1.524 . S
C2925 C2926 1.397 . S
C2925 C2930 1.363 . S
C2926 H2903 0.950 . S
C2926 C2925 1.397 . S
C2926 C2927 1.334 . S
C2927 H2904 0.950 . S
C2927 C2926 1.334 . S
C2927 C2928 1.287 . S
C2928 C2927 1.287 . S
C2928 C2929 1.524 . S
C2928 H2947 0.913 . S
C2929 H2905 0.950 . S
C2929 C2928 1.524 . S
C2929 C2930 1.415 . S
C2930 H2906 0.950 . S
C2930 C2925 1.363 . S
C2930 C2929 1.415 . S
C2931 H2907 0.951 . S
C2931 C2932 1.366 1_556 S
C2931 C2933 1.388 . S
C2932 C2931 1.366 1_554 S
C2932 C2936 1.385 1_554 S
C2933 H2908 0.951 . S
C2933 C2931 1.388 . S
C2933 C2934 1.366 . S
C2934 C2933 1.366 . S
C2934 C2935 1.414 . S
C2934 C2937 1.499 . S
C2935 H2909 0.950 . S
C2935 C2934 1.414 . S
C2935 C2936 1.374 . S
C2936 H2910 0.950 1_556 S
C2936 C2932 1.385 1_556 S
C2936 C2935 1.374 . S
C2937 C2934 1.499 . S
C2937 C2938 1.373 . S
C2937 C2939 1.389 . S
C2938 H2911 0.950 . S
C2938 C2924 1.377 . S
C2938 C2937 1.373 . S
C2939 C2923 1.377 . S
C2939 C2937 1.389 . S
C2939 C2940 1.524 . S
C2940 C2939 1.524 . S
C2940 C2941 1.397 . S
C2940 C2945 1.363 . S
C2941 H2912 0.950 . S
C2941 C2940 1.397 . S
C2941 C2942 1.334 . S
C2942 H2913 0.950 . S
C2942 C2941 1.334 . S
C2942 C2943 1.287 . S
C2943 C2942 1.287 . S
C2943 C2944 1.524 . S
C2943 H2946 0.999 . S
C2944 H2914 0.950 . S
C2944 C2943 1.524 . S
C2944 C2945 1.415 . S
C2945 H2915 0.950 . S
C2945 C2940 1.363 . S
C2945 C2944 1.415 . S
H2946 C2943 0.999 . S
H2947 C2928 0.913 . S
H2948 C2966 0.951 . S
H2949 C2968 0.951 . S
H2950 C2970 0.950 . S
H2951 C2971 0.950 1_556 S
H2952 C2973 0.950 . S
H2953 C2976 0.950 . S
H2954 C2977 0.950 . S
H2955 C2979 0.950 . S
H2956 C2980 0.950 . S
H2957 C2981 0.951 . S
H2958 C2983 0.951 . S
H2959 C2985 0.950 . S
H2960 C2986 0.950 . S
H2961 C2988 0.950 . S
H2962 C2991 0.950 . S
H2963 C2992 0.950 . S
H2964 C2994 0.950 . S
H2965 C2995 0.950 . S
C2966 H2948 0.951 . S
C2966 C2967 1.366 1_554 S
C2966 C2968 1.388 . S
C2967 C2966 1.366 1_556 S
C2967 C2971 1.385 1_556 S
C2968 H2949 0.951 . S
C2968 C2966 1.388 . S
C2968 C2969 1.366 . S
C2969 C2968 1.366 . S
C2969 C2970 1.414 . S
C2969 C2972 1.499 . S
C2970 H2950 0.950 . S
C2970 C2969 1.414 . S
C2970 C2971 1.374 . S
C2971 H2951 0.950 1_554 S
C2971 C2967 1.385 1_554 S
C2971 C2970 1.374 . S
C2972 C2969 1.499 . S
C2972 C2973 1.373 . S
C2972 C2974 1.389 . S
C2973 H2952 0.950 . S
C2973 C2972 1.373 . S
C2973 C2989 1.377 . S
C2974 C2972 1.389 . S
C2974 C2975 1.524 . S
C2974 C2988 1.377 . S
C2975 C2974 1.524 . S
C2975 C2976 1.397 . S
C2975 C2980 1.363 . S
C2976 H2953 0.950 . S
C2976 C2975 1.397 . S
C2976 C2977 1.334 . S
C2977 H2954 0.950 . S
C2977 C2976 1.334 . S
C2977 C2978 1.287 . S
C2978 C2977 1.287 . S
C2978 C2979 1.524 . S
C2978 H2997 0.913 . S
C2979 H2955 0.950 . S
C2979 C2978 1.524 . S
C2979 C2980 1.415 . S
C2980 H2956 0.950 . S
C2980 C2975 1.363 . S
C2980 C2979 1.415 . S
C2981 H2957 0.951 . S
C2981 C2982 1.366 . S
C2981 C2983 1.388 . S
C2982 C2981 1.366 . S
C2982 C2986 1.385 . S
C2983 H2958 0.951 . S
C2983 C2981 1.388 . S
C2983 C2984 1.366 . S
C2984 C2983 1.366 . S
C2984 C2985 1.414 . S
C2984 C2987 1.499 . S
C2985 H2959 0.950 . S
C2985 C2984 1.414 . S
C2985 C2986 1.374 . S
C2986 H2960 0.950 . S
C2986 C2982 1.385 . S
C2986 C2985 1.374 . S
C2987 C2984 1.499 . S
C2987 C2988 1.373 . S
C2987 C2989 1.389 . S
C2988 H2961 0.950 . S
C2988 C2974 1.377 . S
C2988 C2987 1.373 . S
C2989 C2973 1.377 . S
C2989 C2987 1.389 . S
C2989 C2990 1.524 . S
C2990 C2989 1.524 . S
C2990 C2991 1.397 . S
C2990 C2995 1.363 . S
C2991 H2962 0.950 . S
C2991 C2990 1.397 . S
C2991 C2992 1.334 . S
C2992 H2963 0.950 . S
C2992 C2991 1.334 . S
C2992 C2993 1.287 . S
C2993 C2992 1.287 . S
C2993 C2994 1.524 . S
C2993 H2996 0.999 . S
C2994 H2964 0.950 . S
C2994 C2993 1.524 . S
C2994 C2995 1.415 . S
C2995 H2965 0.950 . S
C2995 C2990 1.363 . S
C2995 C2994 1.415 . S
H2996 C2993 0.999 . S
H2997 C2978 0.913 . S
H2998 C3016 0.951 . S
H2999 C3018 0.951 . S
H3000 C3020 0.950 . S
H3001 C3021 0.950 . S
H3002 C3023 0.950 . S
H3003 C3026 0.950 . S
H3004 C3027 0.950 . S
H3005 C3029 0.950 . S
H3006 C3030 0.950 . S
H3007 C3031 0.951 . S
H3008 C3033 0.951 . S
H3009 C3035 0.950 . S
H3010 C3036 0.950 . S
H3011 C3038 0.950 . S
H3012 C3041 0.950 . S
H3013 C3042 0.950 . S
H3014 C3044 0.950 . S
H3015 C3045 0.950 . S
C3016 H2998 0.951 . S
C3016 C3017 1.366 . S
C3016 C3018 1.388 . S
C3017 C3016 1.366 . S
C3017 C3021 1.385 . S
C3018 H2999 0.951 . S
C3018 C3016 1.388 . S
C3018 C3019 1.366 . S
C3019 C3018 1.366 . S
C3019 C3020 1.414 . S
C3019 C3022 1.499 . S
C3020 H3000 0.950 . S
C3020 C3019 1.414 . S
C3020 C3021 1.374 . S
C3021 H3001 0.950 . S
C3021 C3017 1.385 . S
C3021 C3020 1.374 . S
C3022 C3019 1.499 . S
C3022 C3023 1.373 . S
C3022 C3024 1.389 . S
C3023 H3002 0.950 . S
C3023 C3022 1.373 . S
C3023 C3039 1.377 . S
C3024 C3022 1.389 . S
C3024 C3025 1.524 . S
C3024 C3038 1.377 . S
C3025 C3024 1.524 . S
C3025 C3026 1.397 . S
C3025 C3030 1.363 . S
C3026 H3003 0.950 . S
C3026 C3025 1.397 . S
C3026 C3027 1.334 . S
C3027 H3004 0.950 . S
C3027 C3026 1.334 . S
C3027 C3028 1.287 . S
C3028 C3027 1.287 . S
C3028 C3029 1.524 . S
C3028 H3047 0.913 . S
C3029 H3005 0.950 . S
C3029 C3028 1.524 . S
C3029 C3030 1.415 . S
C3030 H3006 0.950 . S
C3030 C3025 1.363 . S
C3030 C3029 1.415 . S
C3031 H3007 0.951 . S
C3031 C3032 1.366 . S
C3031 C3033 1.388 . S
C3032 C3031 1.366 . S
C3032 C3036 1.385 . S
C3033 H3008 0.951 . S
C3033 C3031 1.388 . S
C3033 C3034 1.366 . S
C3034 C3033 1.366 . S
C3034 C3035 1.414 . S
C3034 C3037 1.499 . S
C3035 H3009 0.950 . S
C3035 C3034 1.414 . S
C3035 C3036 1.374 . S
C3036 H3010 0.950 . S
C3036 C3032 1.385 . S
C3036 C3035 1.374 . S
C3037 C3034 1.499 . S
C3037 C3038 1.373 . S
C3037 C3039 1.389 . S
C3038 H3011 0.950 . S
C3038 C3024 1.377 . S
C3038 C3037 1.373 . S
C3039 C3023 1.377 . S
C3039 C3037 1.389 . S
C3039 C3040 1.524 . S
C3040 C3039 1.524 . S
C3040 C3041 1.397 . S
C3040 C3045 1.363 . S
C3041 H3012 0.950 . S
C3041 C3040 1.397 . S
C3041 C3042 1.334 . S
C3042 H3013 0.950 . S
C3042 C3041 1.334 . S
C3042 C3043 1.287 . S
C3043 C3042 1.287 . S
C3043 C3044 1.524 . S
C3043 H3046 0.999 . S
C3044 H3014 0.950 . S
C3044 C3043 1.524 . S
C3044 C3045 1.415 . S
C3045 H3015 0.950 . S
C3045 C3040 1.363 . S
C3045 C3044 1.415 . S
H3046 C3043 0.999 . S
H3047 C3028 0.913 . S
H3048 C3066 0.951 . S
H3049 C3068 0.951 . S
H3050 C3070 0.950 . S
H3051 C3071 0.950 . S
H3052 C3073 0.950 . S
H3053 C3076 0.950 . S
H3054 C3077 0.950 . S
H3055 C3079 0.950 . S
H3056 C3080 0.950 . S
H3057 C3081 0.951 . S
H3058 C3083 0.951 . S
H3059 C3085 0.950 . S
H3060 C3086 0.950 . S
H3061 C3088 0.950 . S
H3062 C3091 0.950 . S
H3063 C3092 0.950 . S
H3064 C3094 0.950 . S
H3065 C3095 0.950 . S
C3066 H3048 0.951 . S
C3066 C3067 1.366 . S
C3066 C3068 1.388 . S
C3067 C3066 1.366 . S
C3067 C3071 1.385 . S
C3068 H3049 0.951 . S
C3068 C3066 1.388 . S
C3068 C3069 1.366 . S
C3069 C3068 1.366 . S
C3069 C3070 1.414 . S
C3069 C3072 1.499 . S
C3070 H3050 0.950 . S
C3070 C3069 1.414 . S
C3070 C3071 1.374 . S
C3071 H3051 0.950 . S
C3071 C3067 1.385 . S
C3071 C3070 1.374 . S
C3072 C3069 1.499 . S
C3072 C3073 1.373 . S
C3072 C3074 1.389 . S
C3073 H3052 0.950 . S
C3073 C3072 1.373 . S
C3073 C3089 1.377 . S
C3074 C3072 1.389 . S
C3074 C3075 1.524 . S
C3074 C3088 1.377 . S
C3075 C3074 1.524 . S
C3075 C3076 1.397 . S
C3075 C3080 1.363 . S
C3076 H3053 0.950 . S
C3076 C3075 1.397 . S
C3076 C3077 1.334 . S
C3077 H3054 0.950 . S
C3077 C3076 1.334 . S
C3077 C3078 1.287 . S
C3078 C3077 1.287 . S
C3078 C3079 1.524 . S
C3078 H3097 0.913 . S
C3079 H3055 0.950 . S
C3079 C3078 1.524 . S
C3079 C3080 1.415 . S
C3080 H3056 0.950 . S
C3080 C3075 1.363 . S
C3080 C3079 1.415 . S
C3081 H3057 0.951 . S
C3081 C3082 1.366 . S
C3081 C3083 1.388 . S
C3082 C3081 1.366 . S
C3082 C3086 1.385 . S
C3083 H3058 0.951 . S
C3083 C3081 1.388 . S
C3083 C3084 1.366 . S
C3084 C3083 1.366 . S
C3084 C3085 1.414 . S
C3084 C3087 1.499 . S
C3085 H3059 0.950 . S
C3085 C3084 1.414 . S
C3085 C3086 1.374 . S
C3086 H3060 0.950 . S
C3086 C3082 1.385 . S
C3086 C3085 1.374 . S
C3087 C3084 1.499 . S
C3087 C3088 1.373 . S
C3087 C3089 1.389 . S
C3088 H3061 0.950 . S
C3088 C3074 1.377 . S
C3088 C3087 1.373 . S
C3089 C3073 1.377 . S
C3089 C3087 1.389 . S
C3089 C3090 1.524 . S
C3090 C3089 1.524 . S
C3090 C3091 1.397 . S
C3090 C3095 1.363 . S
C3091 H3062 0.950 . S
C3091 C3090 1.397 . S
C3091 C3092 1.334 . S
C3092 H3063 0.950 . S
C3092 C3091 1.334 . S
C3092 C3093 1.287 . S
C3093 C3092 1.287 . S
C3093 C3094 1.524 . S
C3093 H3096 0.999 . S
C3094 H3064 0.950 . S
C3094 C3093 1.524 . S
C3094 C3095 1.415 . S
C3095 H3065 0.950 . S
C3095 C3090 1.363 . S
C3095 C3094 1.415 . S
H3096 C3093 0.999 . S
H3097 C3078 0.913 . S
H3098 C3116 0.951 1_556 S
H3099 C3118 0.951 . S
H3100 C3120 0.950 . S
H3101 C3121 0.950 . S
H3102 C3123 0.950 . S
H3103 C3126 0.950 . S
H3104 C3127 0.950 . S
H3105 C3129 0.950 . S
H3106 C3130 0.950 . S
H3107 C3131 0.951 . S
H3108 C3133 0.951 . S
H3109 C3135 0.950 . S
H3110 C3136 0.950 . S
H3111 C3138 0.950 . S
H3112 C3141 0.950 . S
H3113 C3142 0.950 . S
H3114 C3144 0.950 . S
H3115 C3145 0.950 . S
C3116 H3098 0.951 1_554 S
C3116 C3117 1.366 1_554 S
C3116 C3118 1.388 . S
C3117 C3116 1.366 1_556 S
C3117 C3121 1.385 1_556 S
C3118 H3099 0.951 . S
C3118 C3116 1.388 . S
C3118 C3119 1.366 . S
C3119 C3118 1.366 . S
C3119 C3120 1.414 . S
C3119 C3122 1.499 . S
C3120 H3100 0.950 . S
C3120 C3119 1.414 . S
C3120 C3121 1.374 . S
C3121 H3101 0.950 . S
C3121 C3117 1.385 1_554 S
C3121 C3120 1.374 . S
C3122 C3119 1.499 . S
C3122 C3123 1.373 . S
C3122 C3124 1.389 . S
C3123 H3102 0.950 . S
C3123 C3122 1.373 . S
C3123 C3139 1.377 . S
C3124 C3122 1.389 . S
C3124 C3125 1.524 . S
C3124 C3138 1.377 . S
C3125 C3124 1.524 . S
C3125 C3126 1.397 . S
C3125 C3130 1.363 . S
C3126 H3103 0.950 . S
C3126 C3125 1.397 . S
C3126 C3127 1.334 . S
C3127 H3104 0.950 . S
C3127 C3126 1.334 . S
C3127 C3128 1.287 . S
C3128 C3127 1.287 . S
C3128 C3129 1.524 . S
C3128 H3147 0.913 . S
C3129 H3105 0.950 . S
C3129 C3128 1.524 . S
C3129 C3130 1.415 . S
C3130 H3106 0.950 . S
C3130 C3125 1.363 . S
C3130 C3129 1.415 . S
C3131 H3107 0.951 . S
C3131 C3132 1.366 . S
C3131 C3133 1.388 . S
C3132 C3131 1.366 . S
C3132 C3136 1.385 . S
C3133 H3108 0.951 . S
C3133 C3131 1.388 . S
C3133 C3134 1.366 . S
C3134 C3133 1.366 . S
C3134 C3135 1.414 . S
C3134 C3137 1.499 . S
C3135 H3109 0.950 . S
C3135 C3134 1.414 . S
C3135 C3136 1.374 . S
C3136 H3110 0.950 . S
C3136 C3132 1.385 . S
C3136 C3135 1.374 . S
C3137 C3134 1.499 . S
C3137 C3138 1.373 . S
C3137 C3139 1.389 . S
C3138 H3111 0.950 . S
C3138 C3124 1.377 . S
C3138 C3137 1.373 . S
C3139 C3123 1.377 . S
C3139 C3137 1.389 . S
C3139 C3140 1.524 . S
C3140 C3139 1.524 . S
C3140 C3141 1.397 . S
C3140 C3145 1.363 . S
C3141 H3112 0.950 . S
C3141 C3140 1.397 . S
C3141 C3142 1.334 . S
C3142 H3113 0.950 . S
C3142 C3141 1.334 . S
C3142 C3143 1.287 . S
C3143 C3142 1.287 . S
C3143 C3144 1.524 . S
C3143 H3146 0.999 . S
C3144 H3114 0.950 . S
C3144 C3143 1.524 . S
C3144 C3145 1.415 . S
C3145 H3115 0.950 . S
C3145 C3140 1.363 . S
C3145 C3144 1.415 . S
H3146 C3143 0.999 . S
H3147 C3128 0.913 . S
H3148 C3166 0.951 . S
H3149 C3168 0.951 . S
H3150 C3170 0.950 . S
H3151 C3171 0.950 . S
H3152 C3173 0.950 . S
H3153 C3176 0.950 . S
H3154 C3177 0.950 . S
H3155 C3179 0.950 . S
H3156 C3180 0.950 . S
H3157 C3181 0.951 . S
H3158 C3183 0.951 . S
H3159 C3185 0.950 . S
H3160 C3186 0.950 1_554 S
H3161 C3188 0.950 . S
H3162 C3191 0.950 . S
H3163 C3192 0.950 . S
H3164 C3194 0.950 . S
H3165 C3195 0.950 . S
C3166 H3148 0.951 . S
C3166 C3167 1.366 . S
C3166 C3168 1.388 . S
C3167 C3166 1.366 . S
C3167 C3171 1.385 . S
C3168 H3149 0.951 . S
C3168 C3166 1.388 . S
C3168 C3169 1.366 . S
C3169 C3168 1.366 . S
C3169 C3170 1.414 . S
C3169 C3172 1.499 . S
C3170 H3150 0.950 . S
C3170 C3169 1.414 . S
C3170 C3171 1.374 . S
C3171 H3151 0.950 . S
C3171 C3167 1.385 . S
C3171 C3170 1.374 . S
C3172 C3169 1.499 . S
C3172 C3173 1.373 . S
C3172 C3174 1.389 . S
C3173 H3152 0.950 . S
C3173 C3172 1.373 . S
C3173 C3189 1.377 . S
C3174 C3172 1.389 . S
C3174 C3175 1.524 . S
C3174 C3188 1.377 . S
C3175 C3174 1.524 . S
C3175 C3176 1.397 . S
C3175 C3180 1.363 . S
C3176 H3153 0.950 . S
C3176 C3175 1.397 . S
C3176 C3177 1.334 . S
C3177 H3154 0.950 . S
C3177 C3176 1.334 . S
C3177 C3178 1.287 . S
C3178 C3177 1.287 . S
C3178 C3179 1.524 . S
C3178 H3197 0.913 . S
C3179 H3155 0.950 . S
C3179 C3178 1.524 . S
C3179 C3180 1.415 . S
C3180 H3156 0.950 . S
C3180 C3175 1.363 . S
C3180 C3179 1.415 . S
C3181 H3157 0.951 . S
C3181 C3182 1.366 1_556 S
C3181 C3183 1.388 . S
C3182 C3181 1.366 1_554 S
C3182 C3186 1.385 1_554 S
C3183 H3158 0.951 . S
C3183 C3181 1.388 . S
C3183 C3184 1.366 . S
C3184 C3183 1.366 . S
C3184 C3185 1.414 . S
C3184 C3187 1.499 . S
C3185 H3159 0.950 . S
C3185 C3184 1.414 . S
C3185 C3186 1.374 . S
C3186 H3160 0.950 1_556 S
C3186 C3182 1.385 1_556 S
C3186 C3185 1.374 . S
C3187 C3184 1.499 . S
C3187 C3188 1.373 . S
C3187 C3189 1.389 . S
C3188 H3161 0.950 . S
C3188 C3174 1.377 . S
C3188 C3187 1.373 . S
C3189 C3173 1.377 . S
C3189 C3187 1.389 . S
C3189 C3190 1.524 . S
C3190 C3189 1.524 . S
C3190 C3191 1.397 . S
C3190 C3195 1.363 . S
C3191 H3162 0.950 . S
C3191 C3190 1.397 . S
C3191 C3192 1.334 . S
C3192 H3163 0.950 . S
C3192 C3191 1.334 . S
C3192 C3193 1.287 . S
C3193 C3192 1.287 . S
C3193 C3194 1.524 . S
C3193 H3196 0.999 . S
C3194 H3164 0.950 . S
C3194 C3193 1.524 . S
C3194 C3195 1.415 . S
C3195 H3165 0.950 . S
C3195 C3190 1.363 . S
C3195 C3194 1.415 . S
H3196 C3193 0.999 . S
H3197 C3178 0.913 . S
H3198 C3216 0.951 . S
H3199 C3218 0.951 . S
H3200 C3220 0.950 . S
H3201 C3221 0.950 . S
H3202 C3223 0.950 . S
H3203 C3226 0.950 . S
H3204 C3227 0.950 . S
H3205 C3229 0.950 . S
H3206 C3230 0.950 . S
H3207 C3231 0.951 . S
H3208 C3233 0.951 . S
H3209 C3235 0.950 . S
H3210 C3236 0.950 . S
H3211 C3238 0.950 . S
H3212 C3241 0.950 . S
H3213 C3242 0.950 . S
H3214 C3244 0.950 . S
H3215 C3245 0.950 . S
C3216 H3198 0.951 . S
C3216 C3217 1.366 . S
C3216 C3218 1.388 . S
C3217 C3216 1.366 . S
C3217 C3221 1.385 . S
C3218 H3199 0.951 . S
C3218 C3216 1.388 . S
C3218 C3219 1.366 . S
C3219 C3218 1.366 . S
C3219 C3220 1.414 . S
C3219 C3222 1.499 . S
C3220 H3200 0.950 . S
C3220 C3219 1.414 . S
C3220 C3221 1.374 . S
C3221 H3201 0.950 . S
C3221 C3217 1.385 . S
C3221 C3220 1.374 . S
C3222 C3219 1.499 . S
C3222 C3223 1.373 . S
C3222 C3224 1.389 . S
C3223 H3202 0.950 . S
C3223 C3222 1.373 . S
C3223 C3239 1.377 . S
C3224 C3222 1.389 . S
C3224 C3225 1.524 . S
C3224 C3238 1.377 . S
C3225 C3224 1.524 . S
C3225 C3226 1.397 . S
C3225 C3230 1.363 . S
C3226 H3203 0.950 . S
C3226 C3225 1.397 . S
C3226 C3227 1.334 . S
C3227 H3204 0.950 . S
C3227 C3226 1.334 . S
C3227 C3228 1.287 . S
C3228 C3227 1.287 . S
C3228 C3229 1.524 . S
C3228 H3247 0.913 . S
C3229 H3205 0.950 . S
C3229 C3228 1.524 . S
C3229 C3230 1.415 . S
C3230 H3206 0.950 . S
C3230 C3225 1.363 . S
C3230 C3229 1.415 . S
C3231 H3207 0.951 . S
C3231 C3232 1.366 . S
C3231 C3233 1.388 . S
C3232 C3231 1.366 . S
C3232 C3236 1.385 . S
C3233 H3208 0.951 . S
C3233 C3231 1.388 . S
C3233 C3234 1.366 . S
C3234 C3233 1.366 . S
C3234 C3235 1.414 . S
C3234 C3237 1.499 . S
C3235 H3209 0.950 . S
C3235 C3234 1.414 . S
C3235 C3236 1.374 . S
C3236 H3210 0.950 . S
C3236 C3232 1.385 . S
C3236 C3235 1.374 . S
C3237 C3234 1.499 . S
C3237 C3238 1.373 . S
C3237 C3239 1.389 . S
C3238 H3211 0.950 . S
C3238 C3224 1.377 . S
C3238 C3237 1.373 . S
C3239 C3223 1.377 . S
C3239 C3237 1.389 . S
C3239 C3240 1.524 . S
C3240 C3239 1.524 . S
C3240 C3241 1.397 . S
C3240 C3245 1.363 . S
C3241 H3212 0.950 . S
C3241 C3240 1.397 . S
C3241 C3242 1.334 . S
C3242 H3213 0.950 . S
C3242 C3241 1.334 . S
C3242 C3243 1.287 . S
C3243 C3242 1.287 . S
C3243 C3244 1.524 . S
C3243 H3246 0.999 . S
C3244 H3214 0.950 . S
C3244 C3243 1.524 . S
C3244 C3245 1.415 . S
C3245 H3215 0.950 . S
C3245 C3240 1.363 . S
C3245 C3244 1.415 . S
H3246 C3243 0.999 . S
H3247 C3228 0.913 . S
H3248 C3266 0.951 . S
H3249 C3268 0.951 . S
H3250 C3270 0.950 . S
H3251 C3271 0.950 1_556 S
H3252 C3273 0.950 . S
H3253 C3276 0.950 . S
H3254 C3277 0.950 . S
H3255 C3279 0.950 . S
H3256 C3280 0.950 . S
H3257 C3281 0.951 . S
H3258 C3283 0.951 . S
H3259 C3285 0.950 . S
H3260 C3286 0.950 . S
H3261 C3288 0.950 . S
H3262 C3291 0.950 . S
H3263 C3292 0.950 . S
H3264 C3294 0.950 . S
H3265 C3295 0.950 . S
C3266 H3248 0.951 . S
C3266 C3267 1.366 1_554 S
C3266 C3268 1.388 . S
C3267 C3266 1.366 1_556 S
C3267 C3271 1.385 1_556 S
C3268 H3249 0.951 . S
C3268 C3266 1.388 . S
C3268 C3269 1.366 . S
C3269 C3268 1.366 . S
C3269 C3270 1.414 . S
C3269 C3272 1.499 . S
C3270 H3250 0.950 . S
C3270 C3269 1.414 . S
C3270 C3271 1.374 . S
C3271 H3251 0.950 1_554 S
C3271 C3267 1.385 1_554 S
C3271 C3270 1.374 . S
C3272 C3269 1.499 . S
C3272 C3273 1.373 . S
C3272 C3274 1.389 . S
C3273 H3252 0.950 . S
C3273 C3272 1.373 . S
C3273 C3289 1.377 . S
C3274 C3272 1.389 . S
C3274 C3275 1.524 . S
C3274 C3288 1.377 . S
C3275 C3274 1.524 . S
C3275 C3276 1.397 . S
C3275 C3280 1.363 . S
C3276 H3253 0.950 . S
C3276 C3275 1.397 . S
C3276 C3277 1.334 . S
C3277 H3254 0.950 . S
C3277 C3276 1.334 . S
C3277 C3278 1.287 . S
C3278 C3277 1.287 . S
C3278 C3279 1.524 . S
C3278 H3297 0.913 . S
C3279 H3255 0.950 . S
C3279 C3278 1.524 . S
C3279 C3280 1.415 . S
C3280 H3256 0.950 . S
C3280 C3275 1.363 . S
C3280 C3279 1.415 . S
C3281 H3257 0.951 . S
C3281 C3282 1.366 . S
C3281 C3283 1.388 . S
C3282 C3281 1.366 . S
C3282 C3286 1.385 . S
C3283 H3258 0.951 . S
C3283 C3281 1.388 . S
C3283 C3284 1.366 . S
C3284 C3283 1.366 . S
C3284 C3285 1.414 . S
C3284 C3287 1.499 . S
C3285 H3259 0.950 . S
C3285 C3284 1.414 . S
C3285 C3286 1.374 . S
C3286 H3260 0.950 . S
C3286 C3282 1.385 . S
C3286 C3285 1.374 . S
C3287 C3284 1.499 . S
C3287 C3288 1.373 . S
C3287 C3289 1.389 . S
C3288 H3261 0.950 . S
C3288 C3274 1.377 . S
C3288 C3287 1.373 . S
C3289 C3273 1.377 . S
C3289 C3287 1.389 . S
C3289 C3290 1.524 . S
C3290 C3289 1.524 . S
C3290 C3291 1.397 . S
C3290 C3295 1.363 . S
C3291 H3262 0.950 . S
C3291 C3290 1.397 . S
C3291 C3292 1.334 . S
C3292 H3263 0.950 . S
C3292 C3291 1.334 . S
C3292 C3293 1.287 . S
C3293 C3292 1.287 . S
C3293 C3294 1.524 . S
C3293 H3296 0.999 . S
C3294 H3264 0.950 . S
C3294 C3293 1.524 . S
C3294 C3295 1.415 . S
C3295 H3265 0.950 . S
C3295 C3290 1.363 . S
C3295 C3294 1.415 . S
H3296 C3293 0.999 . S
H3297 C3278 0.913 . S
H3298 C3316 0.951 . S
H3299 C3318 0.951 . S
H3300 C3320 0.950 . S
H3301 C3321 0.950 . S
H3302 C3323 0.950 . S
H3303 C3326 0.950 . S
H3304 C3327 0.950 . S
H3305 C3329 0.950 . S
H3306 C3330 0.950 . S
H3307 C3331 0.951 . S
H3308 C3333 0.951 . S
H3309 C3335 0.950 . S
H3310 C3336 0.950 . S
H3311 C3338 0.950 . S
H3312 C3341 0.950 . S
H3313 C3342 0.950 . S
H3314 C3344 0.950 . S
H3315 C3345 0.950 . S
C3316 H3298 0.951 . S
C3316 C3317 1.366 . S
C3316 C3318 1.388 . S
C3317 C3316 1.366 . S
C3317 C3321 1.385 . S
C3318 H3299 0.951 . S
C3318 C3316 1.388 . S
C3318 C3319 1.366 . S
C3319 C3318 1.366 . S
C3319 C3320 1.414 . S
C3319 C3322 1.499 . S
C3320 H3300 0.950 . S
C3320 C3319 1.414 . S
C3320 C3321 1.374 . S
C3321 H3301 0.950 . S
C3321 C3317 1.385 . S
C3321 C3320 1.374 . S
C3322 C3319 1.499 . S
C3322 C3323 1.373 . S
C3322 C3324 1.389 . S
C3323 H3302 0.950 . S
C3323 C3322 1.373 . S
C3323 C3339 1.377 . S
C3324 C3322 1.389 . S
C3324 C3325 1.524 . S
C3324 C3338 1.377 . S
C3325 C3324 1.524 . S
C3325 C3326 1.397 . S
C3325 C3330 1.363 . S
C3326 H3303 0.950 . S
C3326 C3325 1.397 . S
C3326 C3327 1.334 . S
C3327 H3304 0.950 . S
C3327 C3326 1.334 . S
C3327 C3328 1.287 . S
C3328 C3327 1.287 . S
C3328 C3329 1.524 . S
C3328 H3347 0.913 . S
C3329 H3305 0.950 . S
C3329 C3328 1.524 . S
C3329 C3330 1.415 . S
C3330 H3306 0.950 . S
C3330 C3325 1.363 . S
C3330 C3329 1.415 . S
C3331 H3307 0.951 . S
C3331 C3332 1.366 . S
C3331 C3333 1.388 . S
C3332 C3331 1.366 . S
C3332 C3336 1.385 . S
C3333 H3308 0.951 . S
C3333 C3331 1.388 . S
C3333 C3334 1.366 . S
C3334 C3333 1.366 . S
C3334 C3335 1.414 . S
C3334 C3337 1.499 . S
C3335 H3309 0.950 . S
C3335 C3334 1.414 . S
C3335 C3336 1.374 . S
C3336 H3310 0.950 . S
C3336 C3332 1.385 . S
C3336 C3335 1.374 . S
C3337 C3334 1.499 . S
C3337 C3338 1.373 . S
C3337 C3339 1.389 . S
C3338 H3311 0.950 . S
C3338 C3324 1.377 . S
C3338 C3337 1.373 . S
C3339 C3323 1.377 . S
C3339 C3337 1.389 . S
C3339 C3340 1.524 . S
C3340 C3339 1.524 . S
C3340 C3341 1.397 . S
C3340 C3345 1.363 . S
C3341 H3312 0.950 . S
C3341 C3340 1.397 . S
C3341 C3342 1.334 . S
C3342 H3313 0.950 . S
C3342 C3341 1.334 . S
C3342 C3343 1.287 . S
C3343 C3342 1.287 . S
C3343 C3344 1.524 . S
C3343 H3346 0.999 . S
C3344 H3314 0.950 . S
C3344 C3343 1.524 . S
C3344 C3345 1.415 . S
C3345 H3315 0.950 . S
C3345 C3340 1.363 . S
C3345 C3344 1.415 . S
H3346 C3343 0.999 . S
H3347 C3328 0.913 . S
H3348 C3366 0.951 . S
H3349 C3368 0.951 . S
H3350 C3370 0.950 . S
H3351 C3371 0.950 . S
H3352 C3373 0.950 . S
H3353 C3376 0.950 . S
H3354 C3377 0.950 . S
H3355 C3379 0.950 . S
H3356 C3380 0.950 . S
H3357 C3381 0.951 . S
H3358 C3383 0.951 . S
H3359 C3385 0.950 . S
H3360 C3386 0.950 . S
H3361 C3388 0.950 . S
H3362 C3391 0.950 . S
H3363 C3392 0.950 . S
H3364 C3394 0.950 . S
H3365 C3395 0.950 . S
C3366 H3348 0.951 . S
C3366 C3367 1.366 . S
C3366 C3368 1.388 . S
C3367 C3366 1.366 . S
C3367 C3371 1.385 . S
C3368 H3349 0.951 . S
C3368 C3366 1.388 . S
C3368 C3369 1.366 . S
C3369 C3368 1.366 . S
C3369 C3370 1.414 . S
C3369 C3372 1.499 . S
C3370 H3350 0.950 . S
C3370 C3369 1.414 . S
C3370 C3371 1.374 . S
C3371 H3351 0.950 . S
C3371 C3367 1.385 . S
C3371 C3370 1.374 . S
C3372 C3369 1.499 . S
C3372 C3373 1.373 . S
C3372 C3374 1.389 . S
C3373 H3352 0.950 . S
C3373 C3372 1.373 . S
C3373 C3389 1.377 . S
C3374 C3372 1.389 . S
C3374 C3375 1.524 . S
C3374 C3388 1.377 . S
C3375 C3374 1.524 . S
C3375 C3376 1.397 . S
C3375 C3380 1.363 . S
C3376 H3353 0.950 . S
C3376 C3375 1.397 . S
C3376 C3377 1.334 . S
C3377 H3354 0.950 . S
C3377 C3376 1.334 . S
C3377 C3378 1.287 . S
C3378 C3377 1.287 . S
C3378 C3379 1.524 . S
C3378 H3397 0.913 . S
C3379 H3355 0.950 . S
C3379 C3378 1.524 . S
C3379 C3380 1.415 . S
C3380 H3356 0.950 . S
C3380 C3375 1.363 . S
C3380 C3379 1.415 . S
C3381 H3357 0.951 . S
C3381 C3382 1.366 . S
C3381 C3383 1.388 . S
C3382 C3381 1.366 . S
C3382 C3386 1.385 . S
C3383 H3358 0.951 . S
C3383 C3381 1.388 . S
C3383 C3384 1.366 . S
C3384 C3383 1.366 . S
C3384 C3385 1.414 . S
C3384 C3387 1.499 . S
C3385 H3359 0.950 . S
C3385 C3384 1.414 . S
C3385 C3386 1.374 . S
C3386 H3360 0.950 . S
C3386 C3382 1.385 . S
C3386 C3385 1.374 . S
C3387 C3384 1.499 . S
C3387 C3388 1.373 . S
C3387 C3389 1.389 . S
C3388 H3361 0.950 . S
C3388 C3374 1.377 . S
C3388 C3387 1.373 . S
C3389 C3373 1.377 . S
C3389 C3387 1.389 . S
C3389 C3390 1.524 . S
C3390 C3389 1.524 . S
C3390 C3391 1.397 . S
C3390 C3395 1.363 . S
C3391 H3362 0.950 . S
C3391 C3390 1.397 . S
C3391 C3392 1.334 . S
C3392 H3363 0.950 . S
C3392 C3391 1.334 . S
C3392 C3393 1.287 . S
C3393 C3392 1.287 . S
C3393 C3394 1.524 . S
C3393 H3396 0.999 . S
C3394 H3364 0.950 . S
C3394 C3393 1.524 . S
C3394 C3395 1.415 . S
C3395 H3365 0.950 . S
C3395 C3390 1.363 . S
C3395 C3394 1.415 . S
H3396 C3393 0.999 . S
H3397 C3378 0.913 . S
H3398 C3416 0.951 1_554 S
H3399 C3418 0.951 . S
H3400 C3420 0.950 . S
H3401 C3421 0.950 . S
H3402 C3423 0.950 . S
H3403 C3426 0.950 . S
H3404 C3427 0.950 . S
H3405 C3429 0.950 . S
H3406 C3430 0.950 . S
H3407 C3431 0.951 . S
H3408 C3433 0.951 . S
H3409 C3435 0.950 . S
H3410 C3436 0.950 . S
H3411 C3438 0.950 . S
H3412 C3441 0.950 . S
H3413 C3442 0.950 . S
H3414 C3444 0.950 . S
H3415 C3445 0.950 . S
C3416 H3398 0.951 1_556 S
C3416 C3417 1.366 1_556 S
C3416 C3418 1.388 . S
C3417 C3416 1.366 1_554 S
C3417 C3421 1.385 1_554 S
C3418 H3399 0.951 . S
C3418 C3416 1.388 . S
C3418 C3419 1.366 . S
C3419 C3418 1.366 . S
C3419 C3420 1.414 . S
C3419 C3422 1.499 . S
C3420 H3400 0.950 . S
C3420 C3419 1.414 . S
C3420 C3421 1.374 . S
C3421 H3401 0.950 . S
C3421 C3417 1.385 1_556 S
C3421 C3420 1.374 . S
C3422 C3419 1.499 . S
C3422 C3423 1.373 . S
C3422 C3424 1.389 . S
C3423 H3402 0.950 . S
C3423 C3422 1.373 . S
C3423 C3439 1.377 . S
C3424 C3422 1.389 . S
C3424 C3425 1.524 . S
C3424 C3438 1.377 . S
C3425 C3424 1.524 . S
C3425 C3426 1.397 . S
C3425 C3430 1.363 . S
C3426 H3403 0.950 . S
C3426 C3425 1.397 . S
C3426 C3427 1.334 . S
C3427 H3404 0.950 . S
C3427 C3426 1.334 . S
C3427 C3428 1.287 . S
C3428 C3427 1.287 . S
C3428 C3429 1.524 . S
C3428 H3447 0.913 . S
C3429 H3405 0.950 . S
C3429 C3428 1.524 . S
C3429 C3430 1.415 . S
C3430 H3406 0.950 . S
C3430 C3425 1.363 . S
C3430 C3429 1.415 . S
C3431 H3407 0.951 . S
C3431 C3432 1.366 . S
C3431 C3433 1.388 . S
C3432 C3431 1.366 . S
C3432 C3436 1.385 . S
C3433 H3408 0.951 . S
C3433 C3431 1.388 . S
C3433 C3434 1.366 . S
C3434 C3433 1.366 . S
C3434 C3435 1.414 . S
C3434 C3437 1.499 . S
C3435 H3409 0.950 . S
C3435 C3434 1.414 . S
C3435 C3436 1.374 . S
C3436 H3410 0.950 . S
C3436 C3432 1.385 . S
C3436 C3435 1.374 . S
C3437 C3434 1.499 . S
C3437 C3438 1.373 . S
C3437 C3439 1.389 . S
C3438 H3411 0.950 . S
C3438 C3424 1.377 . S
C3438 C3437 1.373 . S
C3439 C3423 1.377 . S
C3439 C3437 1.389 . S
C3439 C3440 1.524 . S
C3440 C3439 1.524 . S
C3440 C3441 1.397 . S
C3440 C3445 1.363 . S
C3441 H3412 0.950 . S
C3441 C3440 1.397 . S
C3441 C3442 1.334 . S
C3442 H3413 0.950 . S
C3442 C3441 1.334 . S
C3442 C3443 1.287 . S
C3443 C3442 1.287 . S
C3443 C3444 1.524 . S
C3443 H3446 0.999 . S
C3444 H3414 0.950 . S
C3444 C3443 1.524 . S
C3444 C3445 1.415 . S
C3445 H3415 0.950 . S
C3445 C3440 1.363 . S
C3445 C3444 1.415 . S
H3446 C3443 0.999 . S
H3447 C3428 0.913 . S
H3448 C3466 0.951 . S
H3449 C3468 0.951 . S
H3450 C3470 0.950 . S
H3451 C3471 0.950 . S
H3452 C3473 0.950 . S
H3453 C3476 0.950 . S
H3454 C3477 0.950 . S
H3455 C3479 0.950 . S
H3456 C3480 0.950 . S
H3457 C3481 0.951 . S
H3458 C3483 0.951 . S
H3459 C3485 0.950 . S
H3460 C3486 0.950 1_554 S
H3461 C3488 0.950 . S
H3462 C3491 0.950 . S
H3463 C3492 0.950 . S
H3464 C3494 0.950 . S
H3465 C3495 0.950 . S
C3466 H3448 0.951 . S
C3466 C3467 1.366 . S
C3466 C3468 1.388 . S
C3467 C3466 1.366 . S
C3467 C3471 1.385 . S
C3468 H3449 0.951 . S
C3468 C3466 1.388 . S
C3468 C3469 1.366 . S
C3469 C3468 1.366 . S
C3469 C3470 1.414 . S
C3469 C3472 1.499 . S
C3470 H3450 0.950 . S
C3470 C3469 1.414 . S
C3470 C3471 1.374 . S
C3471 H3451 0.950 . S
C3471 C3467 1.385 . S
C3471 C3470 1.374 . S
C3472 C3469 1.499 . S
C3472 C3473 1.373 . S
C3472 C3474 1.389 . S
C3473 H3452 0.950 . S
C3473 C3472 1.373 . S
C3473 C3489 1.377 . S
C3474 C3472 1.389 . S
C3474 C3475 1.524 . S
C3474 C3488 1.377 . S
C3475 C3474 1.524 . S
C3475 C3476 1.397 . S
C3475 C3480 1.363 . S
C3476 H3453 0.950 . S
C3476 C3475 1.397 . S
C3476 C3477 1.334 . S
C3477 H3454 0.950 . S
C3477 C3476 1.334 . S
C3477 C3478 1.287 . S
C3478 C3477 1.287 . S
C3478 C3479 1.524 . S
C3478 H3497 0.913 . S
C3479 H3455 0.950 . S
C3479 C3478 1.524 . S
C3479 C3480 1.415 . S
C3480 H3456 0.950 . S
C3480 C3475 1.363 . S
C3480 C3479 1.415 . S
C3481 H3457 0.951 . S
C3481 C3482 1.366 1_556 S
C3481 C3483 1.388 . S
C3482 C3481 1.366 1_554 S
C3482 C3486 1.385 1_554 S
C3483 H3458 0.951 . S
C3483 C3481 1.388 . S
C3483 C3484 1.366 . S
C3484 C3483 1.366 . S
C3484 C3485 1.414 . S
C3484 C3487 1.499 . S
C3485 H3459 0.950 . S
C3485 C3484 1.414 . S
C3485 C3486 1.374 . S
C3486 H3460 0.950 1_556 S
C3486 C3482 1.385 1_556 S
C3486 C3485 1.374 . S
C3487 C3484 1.499 . S
C3487 C3488 1.373 . S
C3487 C3489 1.389 . S
C3488 H3461 0.950 . S
C3488 C3474 1.377 . S
C3488 C3487 1.373 . S
C3489 C3473 1.377 . S
C3489 C3487 1.389 . S
C3489 C3490 1.524 . S
C3490 C3489 1.524 . S
C3490 C3491 1.397 . S
C3490 C3495 1.363 . S
C3491 H3462 0.950 . S
C3491 C3490 1.397 . S
C3491 C3492 1.334 . S
C3492 H3463 0.950 . S
C3492 C3491 1.334 . S
C3492 C3493 1.287 . S
C3493 C3492 1.287 . S
C3493 C3494 1.524 . S
C3493 H3496 0.999 . S
C3494 H3464 0.950 . S
C3494 C3493 1.524 . S
C3494 C3495 1.415 . S
C3495 H3465 0.950 . S
C3495 C3490 1.363 . S
C3495 C3494 1.415 . S
H3496 C3493 0.999 . S
H3497 C3478 0.913 . S
H3498 C3516 0.951 . S
H3499 C3518 0.951 . S
H3500 C3520 0.950 . S
H3501 C3521 0.950 . S
H3502 C3523 0.950 . S
H3503 C3526 0.950 . S
H3504 C3527 0.950 . S
H3505 C3529 0.950 . S
H3506 C3530 0.950 . S
H3507 C3531 0.951 . S
H3508 C3533 0.951 . S
H3509 C3535 0.950 . S
H3510 C3536 0.950 . S
H3511 C3538 0.950 . S
H3512 C3541 0.950 . S
H3513 C3542 0.950 . S
H3514 C3544 0.950 . S
H3515 C3545 0.950 . S
C3516 H3498 0.951 . S
C3516 C3517 1.366 . S
C3516 C3518 1.388 . S
C3517 C3516 1.366 . S
C3517 C3521 1.385 . S
C3518 H3499 0.951 . S
C3518 C3516 1.388 . S
C3518 C3519 1.366 . S
C3519 C3518 1.366 . S
C3519 C3520 1.414 . S
C3519 C3522 1.499 . S
C3520 H3500 0.950 . S
C3520 C3519 1.414 . S
C3520 C3521 1.374 . S
C3521 H3501 0.950 . S
C3521 C3517 1.385 . S
C3521 C3520 1.374 . S
C3522 C3519 1.499 . S
C3522 C3523 1.373 . S
C3522 C3524 1.389 . S
C3523 H3502 0.950 . S
C3523 C3522 1.373 . S
C3523 C3539 1.377 . S
C3524 C3522 1.389 . S
C3524 C3525 1.524 . S
C3524 C3538 1.377 . S
C3525 C3524 1.524 . S
C3525 C3526 1.397 . S
C3525 C3530 1.363 . S
C3526 H3503 0.950 . S
C3526 C3525 1.397 . S
C3526 C3527 1.334 . S
C3527 H3504 0.950 . S
C3527 C3526 1.334 . S
C3527 C3528 1.287 . S
C3528 C3527 1.287 . S
C3528 C3529 1.524 . S
C3528 H3547 0.913 . S
C3529 H3505 0.950 . S
C3529 C3528 1.524 . S
C3529 C3530 1.415 . S
C3530 H3506 0.950 . S
C3530 C3525 1.363 . S
C3530 C3529 1.415 . S
C3531 H3507 0.951 . S
C3531 C3532 1.366 . S
C3531 C3533 1.388 . S
C3532 C3531 1.366 . S
C3532 C3536 1.385 . S
C3533 H3508 0.951 . S
C3533 C3531 1.388 . S
C3533 C3534 1.366 . S
C3534 C3533 1.366 . S
C3534 C3535 1.414 . S
C3534 C3537 1.499 . S
C3535 H3509 0.950 . S
C3535 C3534 1.414 . S
C3535 C3536 1.374 . S
C3536 H3510 0.950 . S
C3536 C3532 1.385 . S
C3536 C3535 1.374 . S
C3537 C3534 1.499 . S
C3537 C3538 1.373 . S
C3537 C3539 1.389 . S
C3538 H3511 0.950 . S
C3538 C3524 1.377 . S
C3538 C3537 1.373 . S
C3539 C3523 1.377 . S
C3539 C3537 1.389 . S
C3539 C3540 1.524 . S
C3540 C3539 1.524 . S
C3540 C3541 1.397 . S
C3540 C3545 1.363 . S
C3541 H3512 0.950 . S
C3541 C3540 1.397 . S
C3541 C3542 1.334 . S
C3542 H3513 0.950 . S
C3542 C3541 1.334 . S
C3542 C3543 1.287 . S
C3543 C3542 1.287 . S
C3543 C3544 1.524 . S
C3543 H3546 0.999 . S
C3544 H3514 0.950 . S
C3544 C3543 1.524 . S
C3544 C3545 1.415 . S
C3545 H3515 0.950 . S
C3545 C3540 1.363 . S
C3545 C3544 1.415 . S
H3546 C3543 0.999 . S
H3547 C3528 0.913 . S
H3548 C3566 0.951 . S
H3549 C3568 0.951 . S
H3550 C3570 0.950 . S
H3551 C3571 0.950 . S
H3552 C3573 0.950 . S
H3553 C3576 0.950 . S
H3554 C3577 0.950 . S
H3555 C3579 0.950 . S
H3556 C3580 0.950 . S
H3557 C3581 0.951 . S
H3558 C3583 0.951 . S
H3559 C3585 0.950 . S
H3560 C3586 0.950 . S
H3561 C3588 0.950 . S
H3562 C3591 0.950 . S
H3563 C3592 0.950 . S
H3564 C3594 0.950 . S
H3565 C3595 0.950 . S
C3566 H3548 0.951 . S
C3566 C3567 1.366 . S
C3566 C3568 1.388 . S
C3567 C3566 1.366 . S
C3567 C3571 1.385 . S
C3568 H3549 0.951 . S
C3568 C3566 1.388 . S
C3568 C3569 1.366 . S
C3569 C3568 1.366 . S
C3569 C3570 1.414 . S
C3569 C3572 1.499 . S
C3570 H3550 0.950 . S
C3570 C3569 1.414 . S
C3570 C3571 1.374 . S
C3571 H3551 0.950 . S
C3571 C3567 1.385 . S
C3571 C3570 1.374 . S
C3572 C3569 1.499 . S
C3572 C3573 1.373 . S
C3572 C3574 1.389 . S
C3573 H3552 0.950 . S
C3573 C3572 1.373 . S
C3573 C3589 1.377 . S
C3574 C3572 1.389 . S
C3574 C3575 1.524 . S
C3574 C3588 1.377 . S
C3575 C3574 1.524 . S
C3575 C3576 1.397 . S
C3575 C3580 1.363 . S
C3576 H3553 0.950 . S
C3576 C3575 1.397 . S
C3576 C3577 1.334 . S
C3577 H3554 0.950 . S
C3577 C3576 1.334 . S
C3577 C3578 1.287 . S
C3578 C3577 1.287 . S
C3578 C3579 1.524 . S
C3578 H3597 0.913 . S
C3579 H3555 0.950 . S
C3579 C3578 1.524 . S
C3579 C3580 1.415 . S
C3580 H3556 0.950 . S
C3580 C3575 1.363 . S
C3580 C3579 1.415 . S
C3581 H3557 0.951 . S
C3581 C3582 1.366 . S
C3581 C3583 1.388 . S
C3582 C3581 1.366 . S
C3582 C3586 1.385 . S
C3583 H3558 0.951 . S
C3583 C3581 1.388 . S
C3583 C3584 1.366 . S
C3584 C3583 1.366 . S
C3584 C3585 1.414 . S
C3584 C3587 1.499 . S
C3585 H3559 0.950 . S
C3585 C3584 1.414 . S
C3585 C3586 1.374 . S
C3586 H3560 0.950 . S
C3586 C3582 1.385 . S
C3586 C3585 1.374 . S
C3587 C3584 1.499 . S
C3587 C3588 1.373 . S
C3587 C3589 1.389 . S
C3588 H3561 0.950 . S
C3588 C3574 1.377 . S
C3588 C3587 1.373 . S
C3589 C3573 1.377 . S
C3589 C3587 1.389 . S
C3589 C3590 1.524 . S
C3590 C3589 1.524 . S
C3590 C3591 1.397 . S
C3590 C3595 1.363 . S
C3591 H3562 0.950 . S
C3591 C3590 1.397 . S
C3591 C3592 1.334 . S
C3592 H3563 0.950 . S
C3592 C3591 1.334 . S
C3592 C3593 1.287 . S
C3593 C3592 1.287 . S
C3593 C3594 1.524 . S
C3593 H3596 0.999 . S
C3594 H3564 0.950 . S
C3594 C3593 1.524 . S
C3594 C3595 1.415 . S
C3595 H3565 0.950 . S
C3595 C3590 1.363 . S
C3595 C3594 1.415 . S
H3596 C3593 0.999 . S
H3597 C3578 0.913 . S
H3598 C3616 0.951 . S
H3599 C3618 0.951 . S
H3600 C3620 0.950 . S
H3601 C3621 0.950 . S
H3602 C3623 0.950 . S
H3603 C3626 0.950 . S
H3604 C3627 0.950 . S
H3605 C3629 0.950 . S
H3606 C3630 0.950 . S
H3607 C3631 0.951 . S
H3608 C3633 0.951 . S
H3609 C3635 0.950 . S
H3610 C3636 0.950 . S
H3611 C3638 0.950 . S
H3612 C3641 0.950 . S
H3613 C3642 0.950 . S
H3614 C3644 0.950 . S
H3615 C3645 0.950 . S
C3616 H3598 0.951 . S
C3616 C3617 1.366 . S
C3616 C3618 1.388 . S
C3617 C3616 1.366 . S
C3617 C3621 1.385 . S
C3618 H3599 0.951 . S
C3618 C3616 1.388 . S
C3618 C3619 1.366 . S
C3619 C3618 1.366 . S
C3619 C3620 1.414 . S
C3619 C3622 1.499 . S
C3620 H3600 0.950 . S
C3620 C3619 1.414 . S
C3620 C3621 1.374 . S
C3621 H3601 0.950 . S
C3621 C3617 1.385 . S
C3621 C3620 1.374 . S
C3622 C3619 1.499 . S
C3622 C3623 1.373 . S
C3622 C3624 1.389 . S
C3623 H3602 0.950 . S
C3623 C3622 1.373 . S
C3623 C3639 1.377 . S
C3624 C3622 1.389 . S
C3624 C3625 1.524 . S
C3624 C3638 1.377 . S
C3625 C3624 1.524 . S
C3625 C3626 1.397 . S
C3625 C3630 1.363 . S
C3626 H3603 0.950 . S
C3626 C3625 1.397 . S
C3626 C3627 1.334 . S
C3627 H3604 0.950 . S
C3627 C3626 1.334 . S
C3627 C3628 1.287 . S
C3628 C3627 1.287 . S
C3628 C3629 1.524 . S
C3628 H3647 0.913 . S
C3629 H3605 0.950 . S
C3629 C3628 1.524 . S
C3629 C3630 1.415 . S
C3630 H3606 0.950 . S
C3630 C3625 1.363 . S
C3630 C3629 1.415 . S
C3631 H3607 0.951 . S
C3631 C3632 1.366 1_554 S
C3631 C3633 1.388 . S
C3632 C3631 1.366 1_556 S
C3632 C3636 1.385 1_556 S
C3633 H3608 0.951 . S
C3633 C3631 1.388 . S
C3633 C3634 1.366 . S
C3634 C3633 1.366 . S
C3634 C3635 1.414 . S
C3634 C3637 1.499 . S
C3635 H3609 0.950 . S
C3635 C3634 1.414 . S
C3635 C3636 1.374 . S
C3636 H3610 0.950 . S
C3636 C3632 1.385 1_554 S
C3636 C3635 1.374 . S
C3637 C3634 1.499 . S
C3637 C3638 1.373 . S
C3637 C3639 1.389 . S
C3638 H3611 0.950 . S
C3638 C3624 1.377 . S
C3638 C3637 1.373 . S
C3639 C3623 1.377 . S
C3639 C3637 1.389 . S
C3639 C3640 1.524 . S
C3640 C3639 1.524 . S
C3640 C3641 1.397 . S
C3640 C3645 1.363 . S
C3641 H3612 0.950 . S
C3641 C3640 1.397 . S
C3641 C3642 1.334 . S
C3642 H3613 0.950 . S
C3642 C3641 1.334 . S
C3642 C3643 1.287 . S
C3643 C3642 1.287 . S
C3643 C3644 1.524 . S
C3643 H3646 0.999 . S
C3644 H3614 0.950 . S
C3644 C3643 1.524 . S
C3644 C3645 1.415 . S
C3645 H3615 0.950 . S
C3645 C3640 1.363 . S
C3645 C3644 1.415 . S
H3646 C3643 0.999 . S
H3647 C3628 0.913 . S
C467 C6 1.540 . S
C482 C62 1.540 . S
C517 C20 1.540 . S
C532 C76 1.540 . S
C567 C90 1.540 . S
C582 C34 1.540 . S
C617 C104 1.540 . S
C632 C48 1.541 . S
C667 C118 1.541 . S
C682 C174 1.541 . S
C717 C132 1.540 . S
C732 C188 1.540 . S
C767 C202 1.541 . S
C782 C146 1.541 . S
C817 C160 1.540 . S
C832 C216 1.540 . S
C867 C286 1.541 . S
C882 C230 1.541 . S
C917 C300 1.541 . S
C932 C244 1.540 . S
C967 C258 1.541 . S
C982 C314 1.541 . S
C1017 C328 1.541 . S
C1032 C272 1.541 . S
C1067 C342 1.540 . S
C1082 C398 1.540 . S
C1117 C412 1.540 . S
C1132 C356 1.540 . S
C1167 C426 1.541 . S
C1182 C370 1.541 . S
C1217 C384 1.540 . S
C1232 C440 1.540 . S
C1267 C9 1.646 . S
C1282 C386 1.682 . S
C1317 C120 1.682 . S
C1332 C23 1.646 . S
C1367 C37 1.647 . S
C1382 C358 1.682 . S
C1417 C51 1.646 . S
C1432 C148 1.682 . S
C1467 C414 1.682 . S
C1482 C65 1.647 . S
C1517 C204 1.682 . S
C1532 C79 1.646 . S
C1567 C93 1.647 . S
C1582 C442 1.682 . S
C1617 C107 1.647 . S
C1632 C176 1.682 . S
C1667 C274 1.682 . S
C1682 C121 1.646 . S
C1717 C135 1.646 . S
C1732 C8 1.682 . S
C1767 C246 1.682 . S
C1782 C149 1.647 . S
C1817 C163 1.646 . S
C1832 C36 1.682 . S
C1867 C302 1.682 . S
C1882 C177 1.647 . S
C1917 C191 1.646 . S
C1932 C92 1.682 . S
C1967 C330 1.682 . S
C1982 C205 1.647 . S
C2017 C219 1.647 . S
C2032 C64 1.682 . S
C2067 C162 1.682 . S
C2082 C233 1.647 . S
C2117 C344 1.682 . S
C2132 C247 1.646 . S
C2167 C134 1.682 . S
C2182 C261 1.647 . S
C2217 C275 1.647 . S
C2232 C372 1.682 . S
C2267 C190 1.682 . S
C2282 C289 1.647 . S
C2317 C428 1.682 . S
C2332 C303 1.647 . S
C2367 C218 1.682 . S
C2382 C317 1.647 . S
C2417 C331 1.647 . S
C2432 C400 1.682 . S
C2467 C345 1.646 . S
C2482 C50 1.682 . S
C2517 C359 1.646 . S
C2532 C232 1.682 . S
C2567 C373 1.646 . S
C2582 C22 1.682 . S
C2617 C387 1.647 . S
C2632 C260 1.682 . S
C2667 C401 1.647 . S
C2682 C78 1.682 . S
C2717 C316 1.682 . S
C2732 C415 1.646 . S
C2767 C106 1.682 . S
C2782 C429 1.646 . S
C2817 C443 1.647 . S
C2832 C288 1.682 . S
C2867 C7 0.909 . S
C2882 C105 0.910 . S
C2917 C21 0.910 . S
C2932 C63 0.908 . S
C2967 C35 0.910 . S
C2982 C77 0.908 . S
C3017 C91 0.908 . S
C3032 C49 0.909 . S
C3067 C217 0.908 . S
C3082 C119 0.910 . S
C3117 C175 0.909 . S
C3132 C133 0.908 . S
C3167 C189 0.909 . S
C3182 C147 0.910 . S
C3217 C203 0.908 . S
C3232 C161 0.910 . S
C3267 C231 0.909 . S
C3282 C329 0.909 . S
C3317 C287 0.910 . S
C3332 C245 0.909 . S
C3367 C301 0.909 . S
C3382 C259 0.909 . S
C3417 C315 0.908 . S
C3432 C273 0.909 . S
C3467 C441 0.908 . S
C3482 C343 0.910 . S
C3517 C357 0.908 . S
C3532 C399 0.910 . S
C3567 C371 0.910 . S
C3582 C413 0.909 . S
C3617 C385 0.910 . S
C3632 C427 0.909 . S
