# Generated by pormake.
# Topology ukt, (4)-cn, num edge types: 1
# Building blocks:
#     Node 0, Type 0, BuildingBlock: KUFVIS_clean_sbu_0, # of connection points: 4
#     Node 1, Type 0, BuildingBlock: KUFVIS_clean_sbu_0, # of connection points: 4
#     Node 2, Type 0, BuildingBlock: KUFVIS_clean_sbu_0, # of connection points: 4
#     Node 3, Type 0, BuildingBlock: KUFVIS_clean_sbu_0, # of connection points: 4
#     Node 4, Type 0, BuildingBlock: KUFVIS_clean_sbu_0, # of connection points: 4
#     Node 5, Type 0, BuildingBlock: KUFVIS_clean_sbu_0, # of connection points: 4
#     Node 6, Type 0, BuildingBlock: KUFVIS_clean_sbu_0, # of connection points: 4
#     Node 7, Type 0, BuildingBlock: KUFVIS_clean_sbu_0, # of connection points: 4
#     Node 8, Type 0, BuildingBlock: KUFVIS_clean_sbu_0, # of connection points: 4
#     Node 9, Type 0, BuildingBlock: KUFVIS_clean_sbu_0, # of connection points: 4
#     Node 10, Type 0, BuildingBlock: KUFVIS_clean_sbu_0, # of connection points: 4
#     Node 11, Type 0, BuildingBlock: KUFVIS_clean_sbu_0, # of connection points: 4
#     Node 12, Type 0, BuildingBlock: KUFVIS_clean_sbu_0, # of connection points: 4
#     Node 13, Type 0, BuildingBlock: KUFVIS_clean_sbu_0, # of connection points: 4
#     Node 14, Type 0, BuildingBlock: KUFVIS_clean_sbu_0, # of connection points: 4
#     Node 15, Type 0, BuildingBlock: KUFVIS_clean_sbu_0, # of connection points: 4
#     Edge 16, Type (0, 0), BuildingBlock: EZIPEK_clean_linker_0, # of connection points: 2
#     Edge 17, Type (0, 0), BuildingBlock: EZIPEK_clean_linker_0, # of connection points: 2
#     Edge 18, Type (0, 0), BuildingBlock: EZIPEK_clean_linker_0, # of connection points: 2
#     Edge 19, Type (0, 0), BuildingBlock: EZIPEK_clean_linker_0, # of connection points: 2
#     Edge 20, Type (0, 0), BuildingBlock: EZIPEK_clean_linker_0, # of connection points: 2
#     Edge 21, Type (0, 0), BuildingBlock: EZIPEK_clean_linker_0, # of connection points: 2
#     Edge 22, Type (0, 0), BuildingBlock: EZIPEK_clean_linker_0, # of connection points: 2
#     Edge 23, Type (0, 0), BuildingBlock: EZIPEK_clean_linker_0, # of connection points: 2
#     Edge 24, Type (0, 0), BuildingBlock: EZIPEK_clean_linker_0, # of connection points: 2
#     Edge 25, Type (0, 0), BuildingBlock: EZIPEK_clean_linker_0, # of connection points: 2
#     Edge 26, Type (0, 0), BuildingBlock: EZIPEK_clean_linker_0, # of connection points: 2
#     Edge 27, Type (0, 0), BuildingBlock: EZIPEK_clean_linker_0, # of connection points: 2
#     Edge 28, Type (0, 0), BuildingBlock: EZIPEK_clean_linker_0, # of connection points: 2
#     Edge 29, Type (0, 0), BuildingBlock: EZIPEK_clean_linker_0, # of connection points: 2
#     Edge 30, Type (0, 0), BuildingBlock: EZIPEK_clean_linker_0, # of connection points: 2
#     Edge 31, Type (0, 0), BuildingBlock: EZIPEK_clean_linker_0, # of connection points: 2
#     Edge 32, Type (0, 0), BuildingBlock: EZIPEK_clean_linker_0, # of connection points: 2
#     Edge 33, Type (0, 0), BuildingBlock: EZIPEK_clean_linker_0, # of connection points: 2
#     Edge 34, Type (0, 0), BuildingBlock: EZIPEK_clean_linker_0, # of connection points: 2
#     Edge 35, Type (0, 0), BuildingBlock: EZIPEK_clean_linker_0, # of connection points: 2
#     Edge 36, Type (0, 0), BuildingBlock: EZIPEK_clean_linker_0, # of connection points: 2
#     Edge 37, Type (0, 0), BuildingBlock: EZIPEK_clean_linker_0, # of connection points: 2
#     Edge 38, Type (0, 0), BuildingBlock: EZIPEK_clean_linker_0, # of connection points: 2
#     Edge 39, Type (0, 0), BuildingBlock: EZIPEK_clean_linker_0, # of connection points: 2
#     Edge 40, Type (0, 0), BuildingBlock: EZIPEK_clean_linker_0, # of connection points: 2
#     Edge 41, Type (0, 0), BuildingBlock: EZIPEK_clean_linker_0, # of connection points: 2
#     Edge 42, Type (0, 0), BuildingBlock: EZIPEK_clean_linker_0, # of connection points: 2
#     Edge 43, Type (0, 0), BuildingBlock: EZIPEK_clean_linker_0, # of connection points: 2
#     Edge 44, Type (0, 0), BuildingBlock: EZIPEK_clean_linker_0, # of connection points: 2
#     Edge 45, Type (0, 0), BuildingBlock: EZIPEK_clean_linker_0, # of connection points: 2
#     Edge 46, Type (0, 0), BuildingBlock: EZIPEK_clean_linker_0, # of connection points: 2
#     Edge 47, Type (0, 0), BuildingBlock: EZIPEK_clean_linker_0, # of connection points: 2
# Relax obj value: 0.281
# Max RMSD: 0.185
# Mean RMSD: 0.185
data_MOF--net-ukt--node1-KUFVIS_clean_sbu_0--edge1-EZIPEK_clean_linker_0
_symmetry_space_group_name_H-M    P1
_symmetry_Int_Tables_number       1
_symmetry_cell_setting            triclinic
loop_
_symmetry_equiv_pos_as_xyz
'x, y, z'
_cell_length_a     31.52185
_cell_length_b     31.271613
_cell_length_c     25.854617
_cell_angle_alpha  90.253257
_cell_angle_beta   89.605229
_cell_angle_gamma 90.203311
loop_
_atom_site_label
_atom_site_type_symbol
_atom_site_fract_x
_atom_site_fract_y
_atom_site_fract_z
_atom_type_partial_charge
Mn0 Mn 0.53079 0.13823 0.07918 0.0
Mn1 Mn 0.60569 0.20315 0.13181 0.0
C2 C 0.60211 0.12813 0.06022 0.0
C3 C 0.49452 0.07402 0.06679 0.0
C4 C 0.55722 0.22527 0.03605 0.0
O5 O 0.49678 0.16607 0.13936 0.0
O6 O 0.5485 0.21176 0.16378 0.0
C7 C 0.60723 0.17643 0.2405 0.0
N8 N 0.62797 0.18047 0.19439 0.0
C9 C 0.69571 0.18011 0.2369 0.0
C10 C 0.67482 0.1775 0.28458 0.0
C11 C 0.63058 0.17479 0.28633 0.0
C12 C 0.67092 0.18167 0.19213 0.0
H13 H 0.57309 0.17707 0.24271 0.0
C14 C 0.51047 0.19739 0.16703 0.0
O15 O 0.48059 0.10937 0.04721 0.0
O16 O 0.52298 0.07784 0.10265 0.0
N17 N 0.6625 0.20005 0.10571 0.0
C18 C 0.67746 0.21613 0.06012 0.0
C19 C 0.7212 0.22161 0.05279 0.0
C20 C 0.74915 0.21198 0.09275 0.0
C21 C 0.73314 0.19764 0.14021 0.0
C22 C 0.68921 0.19129 0.14493 0.0
H23 H 0.6561 0.22606 0.03007 0.0
O24 O 0.57227 0.11479 0.03031 0.0
O25 O 0.59012 0.14681 0.10332 0.0
O26 O 0.52988 0.19508 0.0375 0.0
O27 O 0.58669 0.22928 0.06888 0.0
C28 C 0.75867 0.19357 0.18431 0.0
C29 C 0.73991 0.18545 0.23272 0.0
H30 H 0.69229 0.17994 0.32022 0.0
H31 H 0.61464 0.17401 0.32314 0.0
H32 H 0.73329 0.23554 0.01756 0.0
H33 H 0.78257 0.21861 0.08768 0.0
H34 H 0.79245 0.19937 0.18211 0.0
H35 H 0.75959 0.1854 0.26687 0.0
Mn36 Mn 0.35241 0.52114 0.05086 0.0
Mn37 Mn 0.32036 0.60424 0.12387 0.0
C38 C 0.37672 0.58957 0.0318 0.0
C39 C 0.40675 0.47486 0.02283 0.0
C40 C 0.2697 0.57306 0.03304 0.0
O41 O 0.32425 0.48953 0.11409 0.0
O42 O 0.29669 0.5493 0.14887 0.0
C43 C 0.36876 0.57668 0.21599 0.0
N44 N 0.36077 0.60637 0.17897 0.0
C45 C 0.414 0.65348 0.21381 0.0
C46 C 0.42295 0.62323 0.25199 0.0
C47 C 0.40009 0.58467 0.25317 0.0
C48 C 0.38239 0.64359 0.17776 0.0
H49 H 0.35128 0.54724 0.21739 0.0
C50 C 0.29957 0.50869 0.14675 0.0
O51 O 0.36772 0.46879 0.00819 0.0
O52 O 0.41132 0.49978 0.06245 0.0
N53 N 0.33999 0.66003 0.10732 0.0
C54 C 0.32291 0.68804 0.07338 0.0
C55 C 0.34013 0.72916 0.06963 0.0
C56 C 0.37411 0.74133 0.10149 0.0
C57 C 0.38969 0.71266 0.13793 0.0
C58 C 0.37091 0.67225 0.14033 0.0
H59 H 0.29689 0.67864 0.04891 0.0
O60 O 0.37841 0.55898 -0.0013 0.0
O61 O 0.36283 0.57892 0.07794 0.0
O62 O 0.29147 0.53858 0.02602 0.0
O63 O 0.27979 0.60224 0.06604 0.0
C64 C 0.42257 0.72296 0.17259 0.0
C65 C 0.4347 0.69335 0.2106 0.0
H66 H 0.44697 0.62945 0.28086 0.0
H67 H 0.40648 0.56121 0.28274 0.0
H68 H 0.32769 0.75088 0.04157 0.0
H69 H 0.38846 0.77261 0.09794 0.0
H70 H 0.43803 0.75392 0.17107 0.0
H71 H 0.45937 0.70189 0.23775 0.0
Mn72 Mn 0.93581 0.3678 0.08995 0.0
Mn73 Mn 0.85485 0.33781 0.1674 0.0
C74 C 0.8665 0.38607 0.06757 0.0
C75 C 0.98145 0.42138 0.05914 0.0
C76 C 0.89071 0.28013 0.08477 0.0
O77 O 0.96823 0.34431 0.15404 0.0
O78 O 0.91025 0.31944 0.19499 0.0
C79 C 0.8802 0.40263 0.24526 0.0
N80 N 0.85141 0.38744 0.21072 0.0
C81 C 0.81059 0.4523 0.2164 0.0
C82 C 0.83981 0.46862 0.25215 0.0
C83 C 0.8746 0.44354 0.2669 0.0
C84 C 0.81786 0.41136 0.19633 0.0
H85 H 0.90743 0.38386 0.2556 0.0
C86 C 0.95039 0.32112 0.18915 0.0
O87 O -0.01168 0.38135 0.04785 0.0
O88 O 0.95452 0.42853 0.09611 0.0
N89 N 0.7984 0.3521 0.14807 0.0
C90 C 0.76655 0.32506 0.13412 0.0
C91 C 0.72604 0.34176 0.12428 0.0
C92 C 0.71891 0.38593 0.13003 0.0
C93 C 0.75068 0.41173 0.15188 0.0
C94 C 0.78944 0.39238 0.16321 0.0
H95 H 0.77269 0.29135 0.12958 0.0
O96 O 0.89677 0.38749 0.03423 0.0
O97 O 0.87798 0.37541 0.11432 0.0
O98 O 0.92195 0.30505 0.07401 0.0
O99 O 0.86072 0.28934 0.11764 0.0
C100 C 0.74395 0.4542 0.16846 0.0
C101 C 0.77401 0.47454 0.2007 0.0
H102 H 0.8356 0.50014 0.26892 0.0
H103 H 0.89729 0.4559 0.29448 0.0
H104 H 0.70074 0.32086 0.11141 0.0
H105 H 0.68797 0.39892 0.12136 0.0
H106 H 0.71467 0.47049 0.15942 0.0
H107 H 0.76774 0.5065 0.21505 0.0
Mn108 Mn 0.11323 0.9534 0.10033 0.0
Mn109 Mn 0.14744 0.86341 0.15478 0.0
C110 C 0.08643 0.88829 0.07033 0.0
C111 C 0.05993 0.00436 0.08998 0.0
C112 C 0.19602 0.90459 0.06844 0.0
O113 O 0.14419 0.97797 0.16383 0.0
O114 O 0.17283 0.91563 0.18742 0.0
C115 C 0.10284 0.88019 0.25427 0.0
N116 N 0.10917 0.85499 0.21183 0.0
C117 C 0.05908 0.80288 0.24343 0.0
C118 C 0.05184 0.82845 0.28726 0.0
C119 C 0.07381 0.86733 0.29265 0.0
C120 C 0.08799 0.81772 0.20617 0.0
H121 H 0.12001 0.9097 0.2591 0.0
C122 C 0.17002 0.95633 0.19105 0.0
O123 O 0.09788 0.01039 0.0711 0.0
O124 O 0.05675 0.97386 0.12338 0.0
N125 N 0.12678 0.81013 0.12985 0.0
C126 C 0.14175 0.78689 0.08925 0.0
C127 C 0.12442 0.74653 0.07946 0.0
C128 C 0.0927 0.72984 0.1121 0.0
C129 C 0.07937 0.75346 0.1553 0.0
C130 C 0.09766 0.79375 0.163 0.0
H131 H 0.16626 0.79946 0.06422 0.0
O132 O 0.08288 0.92314 0.04479 0.0
O133 O 0.10324 0.89295 0.1165 0.0
O134 O 0.17319 0.93888 0.06783 0.0
O135 O 0.18607 0.87158 0.09537 0.0
C136 C 0.04965 0.73808 0.19174 0.0
C137 C 0.03948 0.76282 0.2358 0.0
H138 H 0.02985 0.81835 0.31722 0.0
H139 H 0.06864 0.88717 0.32651 0.0
H140 H 0.1353 0.72882 0.04654 0.0
H141 H 0.07926 0.69858 0.1044 0.0
H142 H 0.03502 0.70696 0.18668 0.0
H143 H 0.01708 0.75043 0.26399 0.0
Mn144 Mn 0.52537 0.34468 0.42763 0.0
Mn145 Mn 0.59955 0.29567 0.35447 0.0
C146 C 0.59754 0.35774 0.44574 0.0
C147 C 0.49193 0.40938 0.45324 0.0
C148 C 0.5566 0.25172 0.4456 0.0
O149 O 0.48804 0.32276 0.36707 0.0
O150 O 0.54203 0.29011 0.32663 0.0
C151 C 0.5904 0.35907 0.27088 0.0
N152 N 0.61565 0.3357 0.30249 0.0
C153 C 0.67843 0.37005 0.26969 0.0
C154 C 0.65313 0.39504 0.2373 0.0
C155 C 0.60892 0.38931 0.23764 0.0
C156 C 0.65805 0.34144 0.30294 0.0
H157 H 0.55638 0.3553 0.27189 0.0
C158 C 0.5029 0.2991 0.33064 0.0
O159 O 0.47947 0.37256 0.47123 0.0
O160 O 0.51526 0.40695 0.41218 0.0
N161 N 0.65783 0.29463 0.37248 0.0
C162 C 0.67683 0.26176 0.39741 0.0
C163 C 0.72082 0.25646 0.39359 0.0
C164 C 0.74522 0.28488 0.36415 0.0
C165 C 0.72485 0.31684 0.33609 0.0
C166 C 0.68051 0.31871 0.33891 0.0
H167 H 0.6581 0.23754 0.41655 0.0
O168 O 0.56704 0.36385 0.47761 0.0
O169 O 0.58504 0.34425 0.40019 0.0
O170 O 0.53015 0.2819 0.45616 0.0
O171 O 0.58427 0.25478 0.40926 0.0
C172 C 0.74635 0.34488 0.30255 0.0
C173 C 0.72295 0.37307 0.27157 0.0
H174 H 0.66712 0.41889 0.21231 0.0
H175 H 0.58917 0.40842 0.21273 0.0
H176 H 0.7354 0.22912 0.41089 0.0
H177 H 0.77896 0.27959 0.36017 0.0
H178 H 0.7807 0.34556 0.30091 0.0
H179 H 0.73951 0.3969 0.24975 0.0
Mn180 Mn 0.13118 0.52061 0.40579 0.0
Mn181 Mn 0.18275 0.60673 0.36153 0.0
C182 C 0.11371 0.58806 0.44046 0.0
C183 C 0.06969 0.47711 0.41411 0.0
C184 C 0.21945 0.55245 0.44387 0.0
O185 O 0.15784 0.4957 0.33823 0.0
O186 O 0.19883 0.55306 0.32334 0.0
C187 C 0.14475 0.6081 0.25742 0.0
N188 N 0.15504 0.62861 0.30205 0.0
C189 C 0.15023 0.69741 0.26155 0.0
C190 C 0.14219 0.67683 0.21445 0.0
C191 C 0.13718 0.63222 0.21289 0.0
C192 C 0.15605 0.67174 0.30477 0.0
H193 H 0.14354 0.57376 0.25564 0.0
C194 C 0.18799 0.51442 0.31341 0.0
O195 O 0.10639 0.46505 0.43134 0.0
O196 O 0.07123 0.51016 0.3842 0.0
N197 N 0.17292 0.66162 0.39032 0.0
C198 C 0.1778 0.67513 0.43943 0.0
C199 C 0.176 0.71857 0.45077 0.0
C200 C 0.17132 0.74847 0.41062 0.0
C201 C 0.16556 0.73356 0.35988 0.0
C202 C 0.16507 0.68933 0.35201 0.0
H203 H 0.17957 0.6523 0.46986 0.0
O204 O 0.1066 0.55269 0.46392 0.0
O205 O 0.13039 0.58365 0.39364 0.0
O206 O 0.19237 0.52173 0.43936 0.0
O207 O 0.21455 0.58835 0.42171 0.0
C208 C 0.16044 0.76037 0.31675 0.0
C209 C 0.154 0.74214 0.2673 0.0
H210 H 0.14036 0.69478 0.17928 0.0
H211 H 0.12868 0.61646 0.17725 0.0
H212 H 0.17728 0.72756 0.49078 0.0
H213 H 0.17081 0.78237 0.41919 0.0
H214 H 0.16189 0.79482 0.32101 0.0
H215 H 0.1521 0.76274 0.23409 0.0
Mn216 Mn 0.93902 0.11228 0.39377 0.0
Mn217 Mn 0.85355 0.15282 0.3345 0.0
C218 C 0.87147 0.08951 0.4191 0.0
C219 C -0.01247 0.05564 0.40868 0.0
C220 C 0.89252 0.19673 0.4245 0.0
O221 O 0.96786 0.14501 0.33262 0.0
O222 O 0.90799 0.17732 0.30791 0.0
C223 C 0.87497 0.10908 0.23581 0.0
N224 N 0.84689 0.11682 0.27497 0.0
C225 C 0.79425 0.07208 0.23477 0.0
C226 C 0.82262 0.06374 0.19398 0.0
C227 C 0.86322 0.08229 0.19457 0.0
C228 C 0.80799 0.09874 0.27504 0.0
H229 H 0.90601 0.12334 0.23594 0.0
C230 C 0.94834 0.17382 0.30663 0.0
O231 O -0.00665 0.09379 0.42771 0.0
O232 O 0.95864 0.0536 0.37337 0.0
N233 N 0.79799 0.1341 0.35354 0.0
C234 C 0.77314 0.14875 0.39296 0.0
C235 C 0.7312 0.13402 0.39751 0.0
C236 C 0.71507 0.10521 0.36058 0.0
C237 C 0.74042 0.09257 0.31871 0.0
C238 C 0.78195 0.10825 0.31636 0.0
H239 H 0.78575 0.17073 0.42119 0.0
O240 O 0.90452 0.0831 0.44664 0.0
O241 O 0.87909 0.10598 0.3732 0.0
O242 O 0.92563 0.17259 0.42581 0.0
O243 O 0.86013 0.18898 0.39607 0.0
C244 C 0.72583 0.06557 0.27881 0.0
C245 C 0.75281 0.05517 0.23694 0.0
H246 H 0.81361 0.04319 0.16204 0.0
H247 H 0.88532 0.07615 0.1632 0.0
H248 H 0.71156 0.14479 0.42937 0.0
H249 H 0.68309 0.09311 0.36403 0.0
H250 H 0.6938 0.0529 0.27975 0.0
H251 H 0.74129 0.03439 0.20646 0.0
Mn252 Mn 0.35139 0.94276 0.42812 0.0
Mn253 Mn 0.2952 0.86231 0.37231 0.0
C254 C 0.36783 0.87134 0.44933 0.0
C255 C 0.41106 0.98804 0.43725 0.0
C256 C 0.26471 0.911 0.4668 0.0
O257 O 0.31985 0.97494 0.36944 0.0
O258 O 0.28407 0.91784 0.34011 0.0
C259 C 0.33987 0.86631 0.27198 0.0
N260 N 0.32488 0.8427 0.31227 0.0
C261 C 0.33734 0.77702 0.26629 0.0
C262 C 0.35178 0.80077 0.22378 0.0
C263 C 0.35401 0.84551 0.227 0.0
C264 C 0.32485 0.79957 0.31047 0.0
H265 H 0.34042 0.90073 0.27402 0.0
C266 C 0.29261 0.95752 0.33921 0.0
O267 O 0.37515 -0.00404 0.45999 0.0
O268 O 0.40964 0.95763 0.40287 0.0
N269 N 0.29947 0.80425 0.39689 0.0
C270 C 0.28219 0.78644 0.4421 0.0
C271 C 0.27904 0.74171 0.4427 0.0
C272 C 0.29138 0.71585 0.40062 0.0
C273 C 0.30771 0.73431 0.3555 0.0
C274 C 0.31123 0.77861 0.35409 0.0
H275 H 0.29185 0.81312 0.42096 0.0
O276 O 0.37957 0.90388 0.47632 0.0
O277 O 0.34845 0.8813 0.40602 0.0
O278 O 0.29536 0.93767 0.4698 0.0
O279 O 0.26253 0.88134 0.43275 0.0
C280 C 0.31926 0.71062 0.31114 0.0
C281 C 0.33401 0.73204 0.26651 0.0
H282 H 0.36111 0.78526 0.18842 0.0
H283 H 0.3656 0.86392 0.19444 0.0
H284 H 0.26489 0.72734 0.47638 0.0
H285 H 0.2871 0.68155 0.40307 0.0
H286 H 0.31656 0.67607 0.31075 0.0
H287 H 0.34199 0.71367 0.23246 0.0
Mn288 Mn 0.42905 0.85211 0.93995 0.0
Mn289 Mn 0.34522 0.80889 0.88077 0.0
C290 C 0.3599 0.86713 0.9706 0.0
C291 C 0.47166 0.91074 0.96032 0.0
C292 C 0.39758 0.75921 0.95494 0.0
O293 O 0.4574 0.83032 0.87144 0.0
O294 O 0.39875 0.79712 0.84306 0.0
C295 C 0.35384 0.87425 0.79989 0.0
N296 N 0.32859 0.85143 0.83262 0.0
C297 C 0.26877 0.89606 0.81458 0.0
C298 C 0.29434 0.92041 0.78115 0.0
C299 C 0.33693 0.90914 0.77328 0.0
C300 C 0.28775 0.86223 0.84077 0.0
H301 H 0.38703 0.86705 0.79605 0.0
C302 C 0.43852 0.80434 0.84036 0.0
O303 O 0.48342 0.87223 0.9724 0.0
O304 O 0.44058 0.91381 0.92816 0.0
N305 N 0.29038 0.81577 0.91043 0.0
C306 C 0.27306 0.79505 0.95152 0.0
C307 C 0.23017 0.80118 0.96363 0.0
C308 C 0.20542 0.8275 0.93236 0.0
C309 C 0.22424 0.8498 0.89123 0.0
C310 C 0.26697 0.84186 0.88063 0.0
H311 H 0.29177 0.77359 0.97418 0.0
O312 O 0.39275 0.87106 -0.00044 0.0
O313 O 0.36841 0.85437 0.9235 0.0
O314 O 0.42573 0.78837 0.96119 0.0
O315 O 0.36241 0.76574 0.93151 0.0
C316 C 0.20311 0.88088 0.86177 0.0
C317 C 0.22595 0.90541 0.82532 0.0
H318 H 0.28212 0.94854 0.76234 0.0
H319 H 0.35695 0.928 0.74791 0.0
H320 H 0.216 0.7849 0.99626 0.0
H321 H 0.17222 0.83014 0.94067 0.0
H322 H 0.17016 0.88823 0.86888 0.0
H323 H 0.21052 0.93195 0.80668 0.0
Mn324 Mn 0.63201 0.43315 0.89543 0.0
Mn325 Mn 0.69465 0.3536 0.85028 0.0
C326 C 0.61708 0.36387 0.91874 0.0
C327 C 0.5683 0.47131 0.90578 0.0
C328 C 0.71513 0.40122 0.9469 0.0
O329 O 0.66356 0.46402 0.83594 0.0
O330 O 0.71093 0.41128 0.82543 0.0
C331 C 0.67629 0.36323 0.73944 0.0
N332 N 0.67763 0.33742 0.78178 0.0
C333 C 0.69141 0.27588 0.72788 0.0
C334 C 0.69231 0.3023 0.68436 0.0
C335 C 0.68357 0.34594 0.69004 0.0
C336 C 0.68316 0.2948 0.77619 0.0
H337 H 0.67174 0.39716 0.74332 0.0
C338 C 0.69814 0.44923 0.81662 0.0
O339 O 0.6036 0.48563 0.92502 0.0
O340 O 0.57276 0.44262 0.8697 0.0
N341 N 0.68512 0.29415 0.86809 0.0
C342 C 0.6879 0.27326 0.91601 0.0
C343 C 0.69213 0.2285 0.91332 0.0
C344 C 0.69659 0.20621 0.86635 0.0
C345 C 0.69379 0.22759 0.81937 0.0
C346 C 0.68574 0.27128 0.82081 0.0
H347 H 0.68664 0.30146 0.89456 0.0
O348 O 0.60505 0.39689 0.9444 0.0
O349 O 0.6373 0.37131 0.87469 0.0
O350 O 0.68785 0.43111 0.93967 0.0
O351 O 0.71723 0.3682 0.918 0.0
C352 C 0.70134 0.20761 0.77127 0.0
C353 C 0.70121 0.23202 0.72564 0.0
H354 H 0.70015 0.28955 0.64649 0.0
H355 H 0.68449 0.36657 0.65673 0.0
H356 H 0.69327 0.21055 0.9487 0.0
H357 H 0.70269 0.17223 0.8669 0.0
H358 H 0.70876 0.17384 0.76912 0.0
H359 H 0.70914 0.21686 0.68911 0.0
Mn360 Mn 0.03997 0.64098 0.91882 0.0
Mn361 Mn 0.11838 0.70133 0.87013 0.0
C362 C 0.11001 0.62968 0.9444 0.0
C363 C 0.0034 0.5769 0.93562 0.0
C364 C 0.06327 0.73256 0.95533 0.0
O365 O 0.01084 0.66342 0.85273 0.0
O366 O 0.06208 0.71211 0.83619 0.0
C367 C 0.12087 0.67077 0.76175 0.0
N368 N 0.1409 0.67692 0.80777 0.0
C369 C 0.20934 0.67396 0.76609 0.0
C370 C 0.18932 0.66865 0.7183 0.0
C371 C 0.14496 0.66593 0.71627 0.0
C372 C 0.18375 0.67746 0.8103 0.0
H373 H 0.08681 0.67123 0.7593 0.0
C374 C 0.02511 0.6961 0.8279 0.0
O375 O -0.01211 0.61357 0.94996 0.0
O376 O 0.03417 0.57857 0.90216 0.0
N377 N 0.17423 0.69472 0.89695 0.0
C378 C 0.18862 0.70303 0.94538 0.0
C379 C 0.23215 0.70079 0.95545 0.0
C380 C 0.2608 0.69468 0.9144 0.0
C381 C 0.24536 0.68749 0.86442 0.0
C382 C 0.20135 0.68578 0.85788 0.0
H383 H 0.16688 0.71078 0.97597 0.0
O384 O 0.07783 0.62187 0.9739 0.0
O385 O 0.10094 0.646 0.89911 0.0
O386 O 0.03542 0.70295 0.95029 0.0
O387 O 0.09931 0.7304 0.93315 0.0
C388 C 0.2717 0.68397 0.82049 0.0
C389 C 0.25358 0.67848 0.77125 0.0
H390 H 0.20761 0.66745 0.68284 0.0
H391 H 0.12939 0.66187 0.67945 0.0
H392 H 0.24364 0.70657 0.99415 0.0
H393 H 0.29445 0.69702 0.92155 0.0
H394 H 0.30578 0.68693 0.82384 0.0
H395 H 0.27389 0.67873 0.73751 0.0
Mn396 Mn 0.85141 0.05047 0.94784 0.0
Mn397 Mn 0.81359 0.13402 0.88229 0.0
C398 C 0.86783 0.11936 0.97551 0.0
C399 C 0.90885 0.00582 0.96636 0.0
C400 C 0.76421 0.09226 0.96807 0.0
O401 O 0.82688 0.01961 0.88334 0.0
O402 O 0.7966 0.07835 0.85158 0.0
C403 C 0.87277 0.11544 0.79566 0.0
N404 N 0.85674 0.14349 0.83101 0.0
C405 C 0.90466 0.19867 0.80217 0.0
C406 C 0.92112 0.17052 0.76484 0.0
C407 C 0.9052 0.12861 0.76175 0.0
C408 C 0.87281 0.18336 0.8354 0.0
H409 H 0.86119 0.08322 0.79386 0.0
C410 C 0.80135 0.0379 0.85219 0.0
O411 O 0.8707 -0.00317 0.98268 0.0
O412 O 0.91109 0.03548 0.93183 0.0
N413 N 0.82504 0.19128 0.90366 0.0
C414 C 0.79837 0.21642 0.9317 0.0
C415 C 0.80363 0.26094 0.93068 0.0
C416 C 0.83822 0.27918 0.90445 0.0
C417 C 0.86471 0.25287 0.87469 0.0
C418 C 0.85509 0.20911 0.87283 0.0
H419 H 0.7716 0.20251 0.95159 0.0
O420 O 0.87329 0.08671 0.00463 0.0
O421 O 0.85622 0.11064 0.92806 0.0
O422 O 0.78949 0.06034 0.97354 0.0
O423 O 0.77136 0.12389 0.9374 0.0
C424 C 0.89746 0.2689 0.84271 0.0
C425 C 0.91791 0.24157 0.80696 0.0
H426 H 0.9458 0.18078 0.73826 0.0
H427 H 0.91787 0.1065 0.73331 0.0
H428 H 0.78007 0.28123 0.94816 0.0
H429 H 0.84246 0.31357 0.90471 0.0
H430 H 0.90593 0.30249 0.84384 0.0
H431 H 0.94242 0.25434 0.7818 0.0
Mn432 Mn 0.43659 0.62332 0.58501 0.0
Mn433 Mn 0.34638 0.66609 0.62907 0.0
C434 C 0.37188 0.59582 0.55381 0.0
C435 C 0.48192 0.56341 0.58495 0.0
C436 C 0.40009 0.70721 0.54243 0.0
O437 O 0.45779 0.66097 0.64827 0.0
O438 O 0.39369 0.68418 0.67323 0.0
C439 C 0.34346 0.61721 0.72723 0.0
N440 N 0.32508 0.62883 0.68185 0.0
C441 C 0.26403 0.58479 0.69936 0.0
C442 C 0.28193 0.57281 0.74662 0.0
C443 C 0.32186 0.58911 0.7606 0.0
C444 C 0.28676 0.61344 0.66821 0.0
H445 H 0.37429 0.62935 0.73798 0.0
C446 C 0.43378 0.68439 0.67761 0.0
O447 O 0.49288 0.59897 0.56231 0.0
O448 O 0.4504 0.56722 0.61668 0.0
N449 N 0.29704 0.65192 0.59261 0.0
C450 C 0.28703 0.66378 0.54413 0.0
C451 C 0.25078 0.64691 0.52181 0.0
C452 C 0.22317 0.62093 0.55102 0.0
C453 C 0.23356 0.61017 0.60186 0.0
C454 C 0.27166 0.62616 0.62106 0.0
H455 H 0.30874 0.68262 0.52123 0.0
O456 O 0.40718 0.58975 0.52996 0.0
O457 O 0.37547 0.6177 0.59704 0.0
O458 O 0.42983 0.67921 0.54216 0.0
O459 O 0.36783 0.70536 0.57331 0.0
C460 C 0.20979 0.58146 0.63255 0.0
C461 C 0.22488 0.569 0.68146 0.0
H462 H 0.26545 0.55096 0.77228 0.0
H463 H 0.33598 0.57997 0.79695 0.0
H464 H 0.2469 0.6514 0.48102 0.0
H465 H 0.19638 0.60632 0.53255 0.0
H466 H 0.18076 0.56742 0.6183 0.0
H467 H 0.2066 0.54658 0.70445 0.0
Mn468 Mn 0.85027 0.42732 0.55301 0.0
Mn469 Mn 0.78969 0.34895 0.60583 0.0
C470 C 0.85884 0.35717 0.52725 0.0
C471 C 0.91483 0.46505 0.53858 0.0
C472 C 0.75958 0.40298 0.51915 0.0
O473 O 0.82837 0.45793 0.61877 0.0
O474 O 0.782 0.4059 0.64133 0.0
C475 C 0.82033 0.3441 0.71279 0.0
N476 N 0.8156 0.32499 0.66572 0.0
C477 C 0.82161 0.25514 0.70388 0.0
C478 C 0.82485 0.27431 0.75248 0.0
C479 C 0.82526 0.31895 0.75704 0.0
C480 C 0.81623 0.28183 0.6611 0.0
H481 H 0.81776 0.37812 0.71713 0.0
C482 C 0.79775 0.44364 0.64685 0.0
O483 O 0.87863 0.4788 0.52174 0.0
O484 O 0.91186 0.43342 0.57067 0.0
N485 N 0.79341 0.29261 0.57697 0.0
C486 C 0.77931 0.27835 0.53025 0.0
C487 C 0.78018 0.23448 0.51918 0.0
C488 C 0.79117 0.20533 0.55758 0.0
C489 C 0.80352 0.22039 0.60613 0.0
C490 C 0.80557 0.26478 0.61378 0.0
H491 H 0.76795 0.30032 0.50141 0.0
O492 O 0.86897 0.38896 0.49794 0.0
O493 O 0.84363 0.36653 0.57327 0.0
O494 O 0.78932 0.43102 0.52109 0.0
O495 O 0.75953 0.36915 0.54593 0.0
C496 C 0.81169 0.19305 0.64791 0.0
C497 C 0.81999 0.21046 0.69706 0.0
H498 H 0.82475 0.25475 0.78654 0.0
H499 H 0.82731 0.33388 0.7948 0.0
H500 H 0.77057 0.22282 0.48202 0.0
H501 H 0.7883 0.17146 0.5499 0.0
H502 H 0.80987 0.15866 0.64316 0.0
H503 H 0.824 0.18921 0.72962 0.0
Mn504 Mn 0.04093 0.83982 0.5623 0.0
Mn505 Mn 0.11282 0.79706 0.64379 0.0
C506 C 0.11267 0.85642 0.55191 0.0
C507 C 0.0006 0.89987 0.53355 0.0
C508 C 0.07848 0.74844 0.5508 0.0
O509 O 0.00154 0.81726 0.62227 0.0
O510 O 0.0545 0.78752 0.66672 0.0
C511 C 0.09075 0.86515 0.71881 0.0
N512 N 0.12079 0.84326 0.69148 0.0
C513 C 0.17241 0.8987 0.70656 0.0
C514 C 0.14195 0.92188 0.73466 0.0
C515 C 0.10108 0.90471 0.74141 0.0
C516 C 0.16019 0.85955 0.68508 0.0
H517 H 0.05881 0.85321 0.72193 0.0
C518 C 0.01538 0.79448 0.65994 0.0
O519 O -0.00626 0.86129 0.51649 0.0
O520 O 0.02597 0.90165 0.57258 0.0
N521 N 0.17235 0.80105 0.63179 0.0
C522 C 0.19866 0.76819 0.61848 0.0
C523 C 0.24287 0.77414 0.62091 0.0
C524 C 0.25938 0.81342 0.6386 0.0
C525 C 0.23144 0.84524 0.65612 0.0
C526 C 0.18811 0.83585 0.65595 0.0
H527 H 0.18573 0.73787 0.60575 0.0
O528 O 0.08646 0.86038 0.51431 0.0
O529 O 0.09664 0.84184 0.59488 0.0
O530 O 0.05092 0.77697 0.53903 0.0
O531 O 0.10461 0.75244 0.58898 0.0
C532 C 0.24454 0.88526 0.6755 0.0
C533 C 0.21438 0.9129 0.69854 0.0
H534 H 0.14965 0.95268 0.75151 0.0
H535 H 0.07731 0.92237 0.76297 0.0
H536 H 0.26407 0.74876 0.60888 0.0
H537 H 0.2934 0.81847 0.63937 0.0
H538 H 0.27752 0.89489 0.67317 0.0
H539 H 0.22398 0.94425 0.71186 0.0
Mn540 Mn 0.63756 0.02785 0.58513 0.0
Mn541 Mn 0.67537 0.12539 0.62548 0.0
C542 C 0.6147 0.09818 0.54743 0.0
C543 C 0.56619 0.00903 0.55469 0.0
C544 C 0.72034 0.0684 0.54508 0.0
O545 O 0.66869 0.01501 0.65548 0.0
O546 O 0.69296 0.08028 0.67267 0.0
C547 C 0.62455 0.13028 0.72224 0.0
N548 N 0.63734 0.14795 0.67659 0.0
C549 C 0.59954 0.2128 0.69537 0.0
C550 C 0.58607 0.19545 0.74263 0.0
C551 C 0.5985 0.15391 0.75603 0.0
C552 C 0.62485 0.18743 0.6629 0.0
H553 H 0.63433 0.09852 0.73302 0.0
C554 C 0.69147 0.04078 0.68255 0.0
O555 O 0.59738 0.02007 0.52448 0.0
O556 O 0.57494 0.01199 0.6036 0.0
N557 N 0.66302 0.17515 0.58685 0.0
C558 C 0.6825 0.18846 0.54274 0.0
C559 C 0.67635 0.23032 0.52608 0.0
C560 C 0.64999 0.25789 0.55412 0.0
C561 C 0.63091 0.244 0.60018 0.0
C562 C 0.63923 0.20221 0.61587 0.0
H563 H 0.70388 0.16783 0.5216 0.0
O564 O 0.61572 0.06303 0.52217 0.0
O565 O 0.62809 0.09305 0.59383 0.0
O566 O 0.69554 0.03633 0.54962 0.0
O567 O 0.7157 0.1032 0.57138 0.0
C568 C 0.60561 0.27027 0.63232 0.0
C569 C 0.58966 0.25457 0.67966 0.0
H570 H 0.56638 0.21378 0.76898 0.0
H571 H 0.58839 0.14031 0.79253 0.0
H572 H 0.69356 0.24206 0.49321 0.0
H573 H 0.64649 0.28993 0.54046 0.0
H574 H 0.59839 0.30268 0.62159 0.0
H575 H 0.57048 0.27517 0.7041 0.0
C576 C 0.56585 0.30039 0.02054 0.0
C577 C 0.55607 0.26073 -0.00186 0.0
C578 C 0.5845 0.28818 0.91556 0.0
C579 C 0.60385 0.32273 0.94303 0.0
N580 N 0.62138 0.35191 0.02811 0.0
N581 N 0.55352 0.21677 0.92153 0.0
C582 C 0.59758 0.32528 -0.00231 0.0
C583 C 0.56446 0.25446 0.94451 0.0
N584 N 0.54788 0.31198 0.06659 0.0
N585 N 0.58372 0.28809 0.86286 0.0
H586 H 0.53625 0.19333 0.94119 0.0
H587 H 0.563 0.20845 0.88414 0.0
H588 H 0.59806 0.31185 0.84069 0.0
H589 H 0.56651 0.26582 0.84144 0.0
H590 H 0.55263 0.34197 0.08347 0.0
H591 H 0.52529 0.29262 0.08457 0.0
H592 H 0.61943 0.35161 0.06842 0.0
H593 H 0.64561 0.37133 0.01377 0.0
C594 C 0.16036 0.61683 0.01724 0.0
C595 C 0.15281 0.61503 0.96301 0.0
C596 C 0.22186 0.57822 0.95235 0.0
C597 C 0.22771 0.57935 0.007 0.0
N598 N 0.19348 0.58352 0.09018 0.0
N599 N 0.17258 0.58346 0.88069 0.0
C600 C 0.19401 0.59345 0.03881 0.0
C601 C 0.18258 0.5929 0.93078 0.0
N602 N 0.13651 0.6425 0.04872 0.0
N603 N 0.25326 0.56288 0.92094 0.0
H604 H 0.14394 0.59186 0.86387 0.0
H605 H 0.1911 0.56401 0.85688 0.0
H606 H 0.27919 0.54615 0.93498 0.0
H607 H 0.25393 0.5676 0.88108 0.0
H608 H 0.14383 0.64789 0.08748 0.0
H609 H 0.11277 0.66235 0.03501 0.0
H610 H 0.16665 0.58768 0.11324 0.0
H611 H 0.21745 0.56615 0.10786 0.0
C612 C 0.90189 0.19277 0.98025 0.0
C613 C 0.87278 0.16226 -7e-05 0.0
C614 C 0.87047 0.20292 0.08105 0.0
C615 C 0.88829 0.23875 0.05602 0.0
N616 N 0.91912 0.26797 0.97692 0.0
N617 N 0.82626 0.14116 0.07033 0.0
C618 C 0.90393 0.23383 0.00422 0.0
C619 C 0.85606 0.16833 0.05073 0.0
N620 N 0.9283 0.18235 0.94011 0.0
N621 N 0.86962 0.20051 0.13379 0.0
H622 H 0.81253 0.1175 0.04784 0.0
H623 H 0.8122 0.14511 0.10663 0.0
H624 H 0.88342 0.22366 0.15755 0.0
H625 H 0.86065 0.1728 0.1533 0.0
H626 H 0.953 0.2021 0.92771 0.0
H627 H 0.92766 0.15243 0.9221 0.0
H628 H 0.93251 0.26519 0.94021 0.0
H629 H 0.91368 0.29962 0.98744 0.0
C630 C 0.28989 0.90938 0.96973 0.0
C631 C 0.31702 0.87865 0.99299 0.0
C632 C 0.27187 0.88185 0.07067 0.0
C633 C 0.23933 0.90283 0.04304 0.0
N634 N 0.21891 0.93962 0.96505 0.0
N635 N 0.33051 0.83337 0.0663 0.0
C636 C 0.24881 0.91791 0.99223 0.0
C637 C 0.30699 0.86446 0.0437 0.0
N638 N 0.30396 0.93166 0.92766 0.0
N639 N 0.27036 0.88023 0.12349 0.0
H640 H 0.35554 0.81844 0.0472 0.0
H641 H 0.32205 0.81922 0.10133 0.0
H642 H 0.24683 0.89535 0.14528 0.0
H643 H 0.2953 0.86896 0.14577 0.0
H644 H 0.2877 0.95739 0.91196 0.0
H645 H 0.33372 0.92657 0.91094 0.0
H646 H 0.22318 0.94927 0.92691 0.0
H647 H 0.18884 0.94639 0.97955 0.0
C648 C 0.55134 0.20386 0.52842 0.0
C649 C 0.55699 0.20943 0.4741 0.0
C650 C 0.59693 0.14299 0.46971 0.0
C651 C 0.594 0.13724 0.52406 0.0
N652 N 0.55117 0.15296 0.5997 0.0
N653 N 0.5597 0.1688 0.39523 0.0
C654 C 0.56565 0.16472 0.55201 0.0
C655 C 0.57126 0.17374 0.44556 0.0
N656 N 0.53267 0.23509 0.55752 0.0
N657 N 0.62568 0.12104 0.44046 0.0
H658 H 0.54066 0.19103 0.3765 0.0
H659 H 0.56499 0.14033 0.375 0.0
H660 H 0.64918 0.10173 0.45605 0.0
H661 H 0.62916 0.12695 0.40105 0.0
H662 H 0.53001 0.23363 0.5976 0.0
H663 H 0.52043 0.26297 0.54191 0.0
H664 H 0.52746 0.1694 0.61966 0.0
H665 H 0.56041 0.12472 0.61749 0.0
C666 C 0.32764 0.58946 0.47416 0.0
C667 C 0.33233 0.57972 0.52748 0.0
C668 C 0.26726 0.53505 0.52225 0.0
C669 C 0.26191 0.54799 0.46999 0.0
N670 N 0.29825 0.56861 0.39183 0.0
N671 N 0.31454 0.53153 0.59682 0.0
C672 C 0.29637 0.56832 0.44462 0.0
C673 C 0.30477 0.54844 0.54984 0.0
N674 N 0.35096 0.62155 0.45234 0.0
N675 N 0.23616 0.51174 0.54592 0.0
H676 H 0.34119 0.54124 0.61758 0.0
H677 H 0.29788 0.50634 0.61365 0.0
H678 H 0.20933 0.50105 0.52638 0.0
H679 H 0.2364 0.50385 0.58497 0.0
H680 H 0.34666 0.63228 0.41465 0.0
H681 H 0.3708 0.64093 0.47419 0.0
H682 H 0.32446 0.57983 0.37108 0.0
H683 H 0.27545 0.55331 0.36928 0.0
C684 C 0.85645 0.30808 0.4524 0.0
C685 C 0.86588 0.31374 0.50556 0.0
C686 C 0.89995 0.24305 0.50634 0.0
C687 C 0.89145 0.23861 0.45248 0.0
N688 N 0.87754 0.2749 0.37211 0.0
N689 N 0.90535 0.29098 0.58022 0.0
C690 C 0.87483 0.27381 0.42489 0.0
C691 C 0.88995 0.28239 0.53199 0.0
N692 N 0.82902 0.3352 0.4283 0.0
N693 N 0.91759 0.21024 0.53318 0.0
H694 H 0.8991 0.31928 0.60017 0.0
H695 H 0.92689 0.27142 0.59912 0.0
H696 H 0.93174 0.18402 0.51536 0.0
H697 H 0.91765 0.20887 0.57343 0.0
H698 H 0.82098 0.33294 0.38948 0.0
H699 H 0.81108 0.35785 0.44834 0.0
H700 H 0.86988 0.30168 0.35029 0.0
H701 H 0.89239 0.251 0.35055 0.0
C702 C 0.16247 0.91937 0.54293 0.0
C703 C 0.15585 0.87428 0.54574 0.0
C704 C 0.22994 0.86375 0.5271 0.0
C705 C 0.23434 0.90604 0.51022 0.0
N706 N 0.2049 0.97655 0.50435 0.0
N707 N 0.18262 0.80519 0.52147 0.0
C708 C 0.20087 0.93514 0.51973 0.0
C709 C 0.18935 0.84693 0.53276 0.0
N710 N 0.13199 0.94656 0.56093 0.0
N711 N 0.26383 0.8374 0.53059 0.0
H712 H 0.15247 0.79149 0.52107 0.0
H713 H 0.20799 0.78567 0.51089 0.0
H714 H 0.29498 0.84797 0.52578 0.0
H715 H 0.29498 0.84797 0.52578 0.0
H716 H 0.13609 0.9796 0.56268 0.0
H717 H 0.10403 0.93545 0.57812 0.0
H718 H 0.17992 -0.00174 0.50501 0.0
H719 H 0.23341 0.98843 0.48941 0.0
C720 C 0.38605 0.68223 0.9394 0.0
C721 C 0.4061 0.71374 0.96973 0.0
C722 C 0.42084 0.65793 0.0339 0.0
C723 C 0.38731 0.6331 0.01237 0.0
N724 N 0.33894 0.62226 0.94076 0.0
N725 N 0.45595 0.72737 0.03889 0.0
C726 C 0.37062 0.6452 0.96358 0.0
C727 C 0.42844 0.70029 0.01454 0.0
N728 N 0.38244 0.6876 0.88723 0.0
N729 N 0.44572 0.6407 0.07144 0.0
H730 H 0.46509 0.7568 0.02401 0.0
H731 H 0.46975 0.72081 0.07439 0.0
H732 H 0.44051 0.6101 0.08615 0.0
H733 H 0.47288 0.65542 0.08577 0.0
H734 H 0.37208 0.66337 0.86248 0.0
H735 H 0.39517 0.71417 0.86838 0.0
H736 H 0.32535 0.63029 0.90553 0.0
H737 H 0.32339 0.59753 0.95943 0.0
C738 C 0.77052 0.43886 0.00524 0.0
C739 C 0.74641 0.4019 0.99072 0.0
C740 C 0.79981 0.35664 0.0314 0.0
C741 C 0.82255 0.39241 0.0483 0.0
N742 N 0.82578 0.46844 0.06077 0.0
N743 N 0.73351 0.32653 0.00921 0.0
C744 C 0.80653 0.43391 0.03844 0.0
C745 C 0.75929 0.36146 0.01019 0.0
N746 N 0.76142 0.47799 0.98503 0.0
N747 N 0.81687 0.31743 0.0386 0.0
H748 H 0.70179 0.32722 -0.00164 0.0
H749 H 0.70179 0.32722 -0.00164 0.0
H750 H 0.80096 0.28867 0.03187 0.0
H751 H 0.80096 0.28867 0.03187 0.0
H752 H 0.78122 0.50448 0.98927 0.0
H753 H 0.73563 0.48381 0.96133 0.0
H754 H 0.81337 0.49924 0.05951 0.0
H755 H 0.85209 0.46531 0.08477 0.0
C756 C 0.0363 0.77942 0.03174 0.0
C757 C 0.05422 0.77478 0.98144 0.0
C758 C 0.08687 0.84549 0.9883 0.0
C759 C 0.07523 0.84783 0.04168 0.0
N760 N 0.02193 0.82769 0.10434 0.0
N761 N 0.07408 0.81267 0.90445 0.0
C762 C 0.0444 0.81813 0.06051 0.0
C763 C 0.07157 0.81141 0.95725 0.0
N764 N 0.01256 0.74707 0.05231 0.0
N765 N 0.11333 0.87556 0.96731 0.0
H766 H 0.06213 0.78803 0.88144 0.0
H767 H 0.08343 0.83926 0.88317 0.0
H768 H 0.13325 0.89471 0.98951 0.0
H769 H 0.11915 0.87892 0.92805 0.0
H770 H 0.00139 0.74698 0.09028 0.0
H771 H 0.0049 0.71953 0.03162 0.0
H772 H -0.00346 0.80944 0.11784 0.0
H773 H 0.0272 0.85566 0.12553 0.0
C774 C 0.65327 0.12652 0.98788 0.0
C775 C 0.64626 0.1214 0.04175 0.0
C776 C 0.71658 0.08824 0.04883 0.0
C777 C 0.72207 0.09262 0.99431 0.0
N778 N 0.68752 0.09794 0.91188 0.0
N779 N 0.66737 0.08823 0.12166 0.0
C780 C 0.68762 0.10585 0.96389 0.0
C781 C 0.67691 0.09984 0.07203 0.0
N782 N 0.62741 0.15218 0.95959 0.0
N783 N 0.74859 0.07275 0.07847 0.0
H784 H 0.63885 0.096 0.13987 0.0
H785 H 0.68648 0.06843 0.14376 0.0
H786 H 0.77524 0.05779 0.06296 0.0
H787 H 0.74896 0.07565 0.11859 0.0
H788 H 0.63183 0.15812 0.92032 0.0
H789 H 0.60459 0.17139 0.97706 0.0
H790 H 0.6611 0.10314 0.88871 0.0
H791 H 0.71224 0.08195 0.89313 0.0
C792 C 0.39841 0.75113 0.45759 0.0
C793 C 0.40506 0.74764 0.5116 0.0
C794 C 0.38947 0.82264 0.52301 0.0
C795 C 0.37992 0.82749 0.46911 0.0
N796 N 0.40013 0.80015 0.38487 0.0
N797 N 0.43944 0.7873 0.57801 0.0
C798 C 0.39136 0.79274 0.43572 0.0
C799 C 0.4106 0.78557 0.53927 0.0
N800 N 0.40185 0.71583 0.42704 0.0
N801 N 0.37815 0.85203 0.55984 0.0
H802 H 0.45727 0.7605 0.58806 0.0
H803 H 0.44782 0.81606 0.59599 0.0
H804 H 0.35838 0.878 0.55351 0.0
H805 H 0.38436 0.84713 0.59896 0.0
H806 H 0.3936 0.71554 0.38808 0.0
H807 H 0.41437 0.68744 0.44118 0.0
H808 H 0.41209 0.77674 0.36 0.0
H809 H 0.39941 0.83071 0.369 0.0
C810 C 0.7099 0.40806 0.4424 0.0
C811 C 0.71763 0.41156 0.49587 0.0
C812 C 0.64777 0.38325 0.51535 0.0
C813 C 0.63985 0.37636 0.46123 0.0
N814 N 0.65379 0.41076 0.37921 0.0
N815 N 0.6864 0.42451 0.57875 0.0
C816 C 0.6681 0.39688 0.42567 0.0
C817 C 0.68325 0.40771 0.53027 0.0
N818 N 0.7417 0.41633 0.40803 0.0
N819 N 0.62322 0.3652 0.55333 0.0
H820 H 0.71425 0.43924 0.59078 0.0
H821 H 0.66065 0.4274 0.60404 0.0
H822 H 0.60018 0.34199 0.5471 0.0
H823 H 0.62976 0.36851 0.59254 0.0
H824 H 0.73783 0.41322 0.36826 0.0
H825 H 0.77181 0.42596 0.42011 0.0
H826 H 0.67222 0.42986 0.35483 0.0
H827 H 0.62217 0.40759 0.36831 0.0
C828 C 0.08247 0.66416 0.43994 0.0
C829 C 0.09914 0.62874 0.46755 0.0
C830 C 0.08366 0.66856 0.5485 0.0
C831 C 0.07939 0.70703 0.52069 0.0
N832 N 0.07234 0.73954 0.43529 0.0
N833 N 0.11712 0.60025 0.55292 0.0
C834 C 0.0773 0.7044 0.46548 0.0
C835 C 0.09951 0.63148 0.52316 0.0
N836 N 0.07272 0.66035 0.38881 0.0
N837 N 0.07131 0.66689 0.59926 0.0
H838 H 0.13331 0.57374 0.53897 0.0
H839 H 0.12073 0.60359 0.59274 0.0
H840 H 0.05888 0.69316 0.61906 0.0
H841 H 0.06839 0.63833 0.61964 0.0
H842 H 0.06129 0.68598 0.36729 0.0
H843 H 0.07365 0.63125 0.36905 0.0
H844 H 0.0712 0.77088 0.44908 0.0
H845 H 0.0712 0.77088 0.44908 0.0
C846 C 0.75922 0.05004 0.45854 0.0
C847 C 0.75882 0.06481 0.51076 0.0
C848 C 0.82787 0.0967 0.4992 0.0
C849 C 0.82979 0.08356 0.44643 0.0
N850 N 0.80392 0.03236 0.38386 0.0
N851 N 0.80667 0.0686 0.58094 0.0
C852 C 0.79749 0.0552 0.42825 0.0
C853 C 0.79706 0.07887 0.53158 0.0
N854 N 0.72386 0.03169 0.43783 0.0
N855 N 0.85634 0.12471 0.51968 0.0
H856 H 0.78831 0.04546 0.59958 0.0
H857 H 0.83596 0.07564 0.59761 0.0
H858 H 0.87822 0.1408 0.49704 0.0
H859 H 0.85509 0.13468 0.55825 0.0
H860 H 0.72201 0.02187 0.39938 0.0
H861 H 0.69551 0.02842 0.45833 0.0
H862 H 0.78327 0.00853 0.37113 0.0
H863 H 0.83146 0.03561 0.3616 0.0
C864 C 0.49976 0.98568 0.96236 0.0
C865 C 0.48468 0.94985 0.99015 0.0
C866 C 0.47519 -0.00466 0.06814 0.0
C867 C 0.48852 0.03174 0.03956 0.0
N868 N 0.50987 0.0621 0.95677 0.0
N869 N 0.46403 0.91845 0.07194 0.0
C870 C 0.49986 0.02706 0.98599 0.0
C871 C 0.47434 0.95402 0.04385 0.0
N872 N 0.51628 0.97946 0.91381 0.0
N873 N 0.46058 0.00095 0.11769 0.0
H874 H 0.46166 0.88793 0.0562 0.0
H875 H 0.46063 0.91808 0.11195 0.0
H876 H 0.45983 0.03071 0.13604 0.0
H877 H 0.44606 0.97727 0.13973 0.0
H878 H 0.53273 0.00267 0.89299 0.0
H879 H 0.51738 0.94942 0.8961 0.0
H880 H 0.51172 0.06159 0.91658 0.0
H881 H 0.51391 0.09278 0.97127 0.0
C882 C 0.44797 0.48227 0.93648 0.0
C883 C 0.44531 0.46662 0.98847 0.0
C884 C 0.52359 0.46055 0.98877 0.0
C885 C 0.52639 0.47379 0.93564 0.0
N886 N 0.48928 0.49074 0.85729 0.0
N887 N 0.47998 0.43001 0.05739 0.0
C888 C 0.4879 0.48231 0.90911 0.0
C889 C 0.48304 0.45255 0.01231 0.0
N890 N 0.41308 0.49947 0.91352 0.0
N891 N 0.55926 0.4561 0.01805 0.0
H892 H 0.45085 0.42297 0.0749 0.0
H893 H 0.50546 0.41416 0.07403 0.0
H894 H 0.59007 0.45999 0.00465 0.0
H895 H 0.55827 0.45209 0.05802 0.0
H896 H 0.41463 0.51751 0.87978 0.0
H897 H 0.38264 0.498 0.92894 0.0
H898 H 0.46244 0.49108 0.83401 0.0
H899 H 0.51757 0.49514 0.83681 0.0
C900 C 0.98601 0.49751 0.94176 0.0
C901 C -0.00341 0.53661 0.96689 0.0
C902 C 0.00974 0.49589 0.04734 0.0
C903 C -0.0061 0.45801 0.02425 0.0
N904 N 0.96197 0.42417 0.94937 0.0
N905 N 0.01416 0.57296 0.04745 0.0
C906 C 0.98116 0.45902 0.97124 0.0
C907 C 0.00708 0.5358 0.02075 0.0
N908 N 0.98031 0.497 0.88939 0.0
N909 N 0.02886 0.49338 0.09455 0.0
H910 H 0.01459 0.60314 0.031 0.0
H911 H 0.01628 0.57434 0.0876 0.0
H912 H 0.032 0.46455 0.11435 0.0
H913 H 0.04565 0.51853 0.11135 0.0
H914 H 0.97843 0.46894 0.86764 0.0
H915 H 0.97986 0.52469 0.86707 0.0
H916 H 0.94632 0.42513 0.91405 0.0
H917 H 0.95916 0.39465 0.96735 0.0
C918 C 0.02261 0.02101 0.00592 0.0
C919 C 0.0204 0.01544 0.06031 0.0
C920 C 0.94585 -0.00791 0.05193 0.0
C921 C 0.94832 -0.0031 -0.0027 0.0
N922 N -0.00641 0.00176 0.92236 0.0
N923 N 0.97555 0.01101 0.13545 0.0
C924 C -0.01181 0.00715 0.97443 0.0
C925 C 0.98051 0.00569 0.08332 0.0
N926 N 0.0561 0.0425 0.98454 0.0
N927 N 0.91206 0.97135 0.07374 0.0
H928 H 0.94639 0.0085 0.15443 0.0
H929 H -5e-05 0.02307 0.1585 0.0
H930 H 0.88963 0.95503 0.05175 0.0
H931 H 0.90987 0.96441 0.11303 0.0
H932 H 0.058 0.05023 0.94544 0.0
H933 H 0.07852 0.0584 0.00707 0.0
H934 H 0.9697 0.989 0.89908 0.0
H935 H 0.02284 0.00484 0.90373 0.0
C936 C 0.4605 0.48655 0.5628 0.0
C937 C 0.49132 0.52004 0.56003 0.0
C938 C 0.52747 0.47774 0.49157 0.0
C939 C 0.49111 0.44977 0.48675 0.0
N940 N 0.41901 0.43563 0.51375 0.0
N941 N 0.55692 0.54494 0.52275 0.0
C942 C 0.45648 0.45674 0.52113 0.0
C943 C 0.5254 0.51491 0.52439 0.0
N944 N 0.43658 0.4811 0.60648 0.0
N945 N 0.56537 0.468 0.46836 0.0
H946 H 0.56112 0.56767 0.55192 0.0
H947 H 0.57847 0.54747 0.49213 0.0
H948 H 0.57075 0.44217 0.44418 0.0
H949 H 0.59363 0.48374 0.47702 0.0
H950 H 0.44325 0.49703 0.64098 0.0
H951 H 0.41533 0.45573 0.611 0.0
H952 H 0.39176 0.44249 0.53531 0.0
H953 H 0.41384 0.41527 0.48234 0.0
C954 C 0.02805 0.44551 0.49043 0.0
C955 C 0.02813 0.46592 0.44137 0.0
C956 C 0.95678 0.49445 0.46126 0.0
C957 C 0.95656 0.47415 0.51044 0.0
N958 N -0.00022 0.4447 0.57786 0.0
N959 N 0.98458 0.49417 0.37366 0.0
C960 C -0.00556 0.45361 0.52668 0.0
C961 C -0.00994 0.4858 0.42495 0.0
N962 N 0.05823 0.41571 0.50111 0.0
N963 N 0.92733 0.525 0.45053 0.0
H964 H 0.00651 0.48438 0.34563 0.0
H965 H 0.95607 0.5051 0.3585 0.0
H966 H 0.90682 0.5372 0.47868 0.0
H967 H 0.92792 0.54305 0.41676 0.0
H968 H 0.05789 0.39728 0.53457 0.0
H969 H 0.07951 0.40467 0.4731 0.0
H970 H 0.97817 0.45474 0.6061 0.0
H971 H 0.02808 0.43321 0.59297 0.0
C972 C 0.00193 0.98109 0.52381 0.0
C973 C -0.00875 0.94034 0.50249 0.0
C974 C -0.0107 0.97436 0.41602 0.0
C975 C -0.00032 0.01498 0.43762 0.0
N976 N 0.03366 0.05065 0.50912 0.0
N977 N 0.9593 0.90389 0.42987 0.0
C978 C 0.01109 0.01659 0.49072 0.0
C979 C 0.98083 0.93842 0.4489 0.0
N980 N 0.00018 0.98696 0.57615 0.0
N981 N -0.00986 0.96943 0.36352 0.0
H982 H 0.94644 0.88032 0.45362 0.0
H983 H 0.94809 0.90211 0.39212 0.0
H984 H -0.00022 -0.00595 0.33892 0.0
H985 H -0.01288 0.9399 0.34509 0.0
H986 H 0.00396 0.01674 0.5938 0.0
H987 H -0.01129 0.96344 0.60115 0.0
H988 H 0.04577 0.05196 0.5465 0.0
H989 H 0.04621 0.07407 0.48484 0.0
C990 C 0.48975 0.03172 0.53834 0.0
C991 C 0.52343 0.00206 0.53067 0.0
C992 C 0.49006 0.9787 0.4495 0.0
C993 C 0.45272 0.00199 0.4615 0.0
N994 N 0.42049 0.05804 0.51243 0.0
N995 N 0.55129 0.94198 0.48293 0.0
C996 C 0.45359 0.03066 0.50469 0.0
C997 C 0.52194 0.97383 0.48758 0.0
N998 N 0.49327 0.0623 0.57597 0.0
N999 N 0.49675 0.96383 0.40042 0.0
H1000 H 0.57463 0.93684 0.51065 0.0
H1001 H 0.54948 0.91816 0.45468 0.0
H1002 H 0.47722 0.97234 0.36975 0.0
H1003 H 0.52488 0.94916 0.38871 0.0
H1004 H 0.473 0.08831 0.57982 0.0
H1005 H 0.51774 0.06259 0.60276 0.0
H1006 H 0.41522 0.07488 0.54666 0.0
H1007 H 0.39858 0.06456 0.4835 0.0
C1008 C 0.47217 0.23096 0.29995 0.0
C1009 C 0.47593 0.27569 0.29248 0.0
C1010 C 0.47326 0.26307 0.19874 0.0
C1011 C 0.48306 0.21939 0.2067 0.0
N1012 N 0.48591 0.15988 0.26496 0.0
N1013 N 0.47332 0.33519 0.23474 0.0
C1014 C 0.47939 0.20248 0.25734 0.0
C1015 C 0.47306 0.292 0.24169 0.0
N1016 N 0.46388 0.21622 0.34852 0.0
N1017 N 0.46485 0.27652 0.14986 0.0
H1018 H 0.47189 0.3563 0.26614 0.0
H1019 H 0.47627 0.34968 0.19869 0.0
H1020 H 0.46428 0.25505 0.11878 0.0
H1021 H 0.45492 0.30738 0.14116 0.0
H1022 H 0.45811 0.18418 0.35692 0.0
H1023 H 0.45952 0.23726 0.37961 0.0
H1024 H 0.48864 0.1461 0.30137 0.0
H1025 H 0.49 0.13859 0.23413 0.0
C1026 C 0.25634 0.48171 0.27924 0.0
C1027 C 0.21308 0.49237 0.2706 0.0
C1028 C 0.22663 0.48673 0.17639 0.0
C1029 C 0.27103 0.48595 0.18522 0.0
N1030 N 0.32768 0.47109 0.24325 0.0
N1031 N 0.15511 0.49693 0.2112 0.0
C1032 C 0.28558 0.47904 0.23631 0.0
C1033 C 0.1975 0.49142 0.2191 0.0
N1034 N 0.2691 0.47463 0.32883 0.0
N1035 N 0.21283 0.48332 0.12662 0.0
H1036 H 0.13335 0.49773 0.24178 0.0
H1037 H 0.14149 0.50127 0.17508 0.0
H1038 H 0.23409 0.47958 0.09576 0.0
H1039 H 0.1811 0.48145 0.11606 0.0
H1040 H 0.29976 0.46643 0.33935 0.0
H1041 H 0.24775 0.47527 0.35989 0.0
H1042 H 0.34221 0.46808 0.27901 0.0
H1043 H 0.34832 0.46727 0.21179 0.0
C1044 C 0.97894 0.24603 0.19363 0.0
C1045 C 0.97356 0.28648 0.21837 0.0
C1046 C 0.97588 0.24961 0.30285 0.0
C1047 C 0.97123 0.2093 0.27782 0.0
N1048 N 0.97551 0.16807 0.19985 0.0
N1049 N 0.97268 0.32744 0.29673 0.0
C1050 C 0.97572 0.20726 0.22322 0.0
C1051 C 0.9747 0.28835 0.27322 0.0
N1052 N 0.98629 0.24497 0.14156 0.0
N1053 N 0.98081 0.25051 0.35525 0.0
H1054 H 0.9751 0.35569 0.27552 0.0
H1055 H 0.96806 0.33194 0.33627 0.0
H1056 H 0.98262 0.22247 0.37683 0.0
H1057 H 0.98654 0.27819 0.37658 0.0
H1058 H -0.00799 0.21721 0.12041 0.0
H1059 H -0.00977 0.27287 0.1201 0.0
H1060 H 0.97351 0.16324 0.16011 0.0
H1061 H 0.97708 0.13993 0.22133 0.0
C1062 C 0.22275 0.98906 0.31709 0.0
C1063 C 0.26568 0.98218 0.30241 0.0
C1064 C 0.24424 0.98088 0.21102 0.0
C1065 C 0.20105 0.97783 0.22671 0.0
N1066 N 0.14802 0.98837 0.29237 0.0
N1067 N 0.31879 0.97923 0.23602 0.0
C1068 C 0.18994 0.98573 0.27912 0.0
C1069 C 0.27687 0.98164 0.24926 0.0
N1070 N 0.21384 -0.00314 0.368 0.0
N1071 N 0.25363 0.9825 0.15942 0.0
H1072 H 0.34256 0.98174 0.26384 0.0
H1073 H 0.33002 0.97416 0.19858 0.0
H1074 H 0.22995 0.9828 0.13141 0.0
H1075 H 0.28406 0.98651 0.14439 0.0
H1076 H 0.18368 0.00264 0.38288 0.0
H1077 H 0.238 -9e-05 0.39521 0.0
H1078 H 0.13666 -0.0089 0.33007 0.0
H1079 H 0.12417 0.98807 0.26456 0.0
C1080 C 0.47315 0.73704 0.8045 0.0
C1081 C 0.46051 0.78033 0.79723 0.0
C1082 C 0.43633 0.76169 0.71085 0.0
C1083 C 0.45025 0.71813 0.71547 0.0
N1084 N 0.48889 0.66713 0.76628 0.0
N1085 N 0.44846 0.83542 0.73571 0.0
C1086 C 0.47181 0.70693 0.76184 0.0
C1087 C 0.44951 0.79297 0.74725 0.0
N1088 N 0.48386 0.72424 0.85302 0.0
N1089 N 0.4067 0.7733 0.67546 0.0
H1090 H 0.45803 0.85856 0.76253 0.0
H1091 H 0.44239 0.84655 0.69849 0.0
H1092 H 0.3948 0.75329 0.64696 0.0
H1093 H 0.39174 0.80301 0.67679 0.0
H1094 H 0.48849 0.69241 0.86316 0.0
H1095 H 0.48621 0.74599 0.88365 0.0
H1096 H 0.50752 0.65794 0.79739 0.0
H1097 H 0.48691 0.64436 0.73679 0.0
C1098 C 0.73848 0.48655 0.68612 0.0
C1099 C 0.77973 0.46951 0.69088 0.0
C1100 C 0.77012 0.47017 0.78517 0.0
C1101 C 0.72544 0.4731 0.77843 0.0
N1102 N 0.66734 0.49047 0.72205 0.0
N1103 N 0.83906 0.45547 0.74559 0.0
C1104 C 0.70974 0.48458 0.72902 0.0
C1105 C 0.79721 0.46561 0.74089 0.0
N1106 N 0.72744 0.5053 0.64076 0.0
N1107 N 0.78584 0.46994 0.83423 0.0
H1108 H 0.85923 0.45374 0.71345 0.0
H1109 H 0.85341 0.44774 0.78043 0.0
H1110 H 0.76596 0.47336 0.86647 0.0
H1111 H 0.81803 0.46987 0.84283 0.0
H1112 H 0.69896 0.5215 0.63559 0.0
H1113 H 0.74895 0.50737 0.60991 0.0
H1114 H 0.65365 0.49329 0.68566 0.0
H1115 H 0.64576 0.49126 0.75271 0.0
C1116 C 0.98502 0.78907 0.74899 0.0
C1117 C -0.01194 0.77139 0.6986 0.0
C1118 C -0.00476 0.69943 0.73643 0.0
C1119 C -0.00041 0.71804 0.78642 0.0
N1120 N 0.98351 0.7773 0.84231 0.0
N1121 N 0.97827 0.70984 0.64519 0.0
C1122 C -0.01097 0.76191 0.79326 0.0
C1123 C 0.98636 0.72633 0.69303 0.0
N1124 N 0.98109 0.83232 0.75382 0.0
N1125 N 0.00255 0.65675 0.7299 0.0
H1126 H 0.97279 0.72983 0.61365 0.0
H1127 H 0.97387 0.67739 0.63777 0.0
H1128 H 0.00793 0.63639 0.761 0.0
H1129 H 0.00472 0.64185 0.69392 0.0
H1130 H 0.98298 0.84886 0.78873 0.0
H1131 H 0.97685 0.85164 0.7214 0.0
H1132 H 0.97387 0.80831 0.85094 0.0
H1133 H 0.98572 0.75747 0.87459 0.0
C1134 C 0.76544 0.03654 0.72291 0.0
C1135 C 0.72107 0.02622 0.72533 0.0
C1136 C 0.73332 0.00603 0.81672 0.0
C1137 C 0.77754 0.01428 0.81075 0.0
N1138 N 0.83525 0.01537 0.75062 0.0
N1139 N 0.66455 -0.00566 0.77573 0.0
C1140 C 0.79312 0.02035 0.76068 0.0
C1141 C 0.70567 0.00774 0.77235 0.0
N1142 N 0.78135 0.06648 0.68992 0.0
N1143 N 0.71771 -0.00127 0.86518 0.0
H1144 H 0.64339 -0.00279 0.74513 0.0
H1145 H 0.65236 0.97798 0.80756 0.0
H1146 H 0.7378 -0.00379 0.89699 0.0
H1147 H 0.68545 -0.00294 0.87391 0.0
H1148 H 0.8127 0.07721 0.69229 0.0
H1149 H 0.76338 0.08419 0.66441 0.0
H1150 H 0.84793 0.0188 0.71344 0.0
H1151 H 0.85598 0.00448 0.77903 0.0
loop_
_geom_bond_atom_site_label_1
_geom_bond_atom_site_label_2
_geom_bond_distance
_geom_bond_site_symmetry_2
_ccdc_geom_bond_type
Mn0 O5 2.095 . S
Mn0 O15 2.162 . S
Mn0 O16 2.297 . S
Mn0 O24 2.385 1_554 S
Mn0 O25 2.209 . S
Mn0 O26 2.095 . S
Mn1 O6 2.121 . S
Mn1 N8 2.257 . S
Mn1 N17 2.282 . S
Mn1 O25 2.215 . S
Mn1 O27 2.117 . S
C2 O24 1.234 1_554 S
C2 O25 1.283 . S
C3 O15 1.281 . S
C3 O16 1.236 . S
C4 O26 1.241 . S
C4 O27 1.264 . S
O5 Mn0 2.095 . S
O5 C14 1.250 . S
O6 Mn1 2.121 . S
O6 C14 1.258 . S
C7 N8 1.326 . S
C7 C11 1.460 . S
C7 H13 0.929 . S
N8 Mn1 2.257 . S
N8 C7 1.326 . S
N8 C12 1.362 . S
C9 C10 1.258 . S
C9 C12 1.431 . S
C9 C29 1.449 . S
C10 C9 1.258 . S
C10 C11 1.477 . S
C10 H30 0.931 . S
C11 C7 1.460 . S
C11 C10 1.477 . S
C11 H31 0.930 . S
C12 N8 1.362 . S
C12 C9 1.431 . S
C12 C22 1.476 . S
H13 C7 0.929 . S
C14 O5 1.250 . S
C14 O6 1.258 . S
O15 Mn0 2.162 . S
O15 C3 1.281 . S
O16 Mn0 2.297 . S
O16 C3 1.236 . S
N17 Mn1 2.282 . S
N17 C18 1.328 1_554 S
N17 C22 1.318 . S
C18 N17 1.328 1_556 S
C18 C19 1.457 . S
C18 H23 0.929 . S
C19 C18 1.457 . S
C19 C20 1.291 . S
C19 H32 0.931 . S
C20 C19 1.291 . S
C20 C21 1.373 1_556 S
C20 H33 0.929 . S
C21 C20 1.373 1_554 S
C21 C22 1.396 . S
C21 C28 1.403 . S
C22 C12 1.476 . S
C22 N17 1.318 . S
C22 C21 1.396 . S
H23 C18 0.929 . S
O24 Mn0 2.385 1_556 S
O24 C2 1.234 1_556 S
O25 Mn0 2.209 . S
O25 Mn1 2.215 . S
O25 C2 1.283 . S
O26 Mn0 2.095 . S
O26 C4 1.241 . S
O27 Mn1 2.117 . S
O27 C4 1.264 . S
C28 C21 1.403 . S
C28 C29 1.399 . S
C28 H34 0.929 . S
C29 C9 1.449 . S
C29 C28 1.399 . S
C29 H35 0.930 . S
H30 C10 0.931 . S
H31 C11 0.930 . S
H32 C19 0.931 . S
H33 C20 0.929 . S
H34 C28 0.929 . S
H35 C29 0.930 . S
Mn36 O41 2.095 . S
Mn36 O51 2.162 . S
Mn36 O52 2.297 . S
Mn36 O60 2.385 1_554 S
Mn36 O61 2.209 . S
Mn36 O62 2.095 . S
Mn37 O42 2.121 . S
Mn37 N44 2.257 . S
Mn37 N53 2.282 . S
Mn37 O61 2.215 . S
Mn37 O63 2.117 . S
C38 O60 1.234 1_554 S
C38 O61 1.283 . S
C39 O51 1.281 . S
C39 O52 1.236 . S
C40 O62 1.241 . S
C40 O63 1.264 . S
O41 Mn36 2.095 . S
O41 C50 1.250 . S
O42 Mn37 2.121 . S
O42 C50 1.258 . S
C43 N44 1.326 . S
C43 C47 1.460 . S
C43 H49 0.929 . S
N44 Mn37 2.257 . S
N44 C43 1.326 . S
N44 C48 1.362 . S
C45 C46 1.258 . S
C45 C48 1.431 . S
C45 C65 1.449 . S
C46 C45 1.258 . S
C46 C47 1.477 . S
C46 H66 0.931 . S
C47 C43 1.460 . S
C47 C46 1.477 . S
C47 H67 0.930 . S
C48 N44 1.362 . S
C48 C45 1.431 . S
C48 C58 1.476 . S
H49 C43 0.929 . S
C50 O41 1.250 . S
C50 O42 1.258 . S
O51 Mn36 2.162 . S
O51 C39 1.281 . S
O52 Mn36 2.297 . S
O52 C39 1.236 . S
N53 Mn37 2.282 . S
N53 C54 1.328 1_554 S
N53 C58 1.318 . S
C54 N53 1.328 1_556 S
C54 C55 1.457 . S
C54 H59 0.929 . S
C55 C54 1.457 . S
C55 C56 1.291 . S
C55 H68 0.931 . S
C56 C55 1.291 . S
C56 C57 1.373 1_556 S
C56 H69 0.929 . S
C57 C56 1.373 1_554 S
C57 C58 1.396 . S
C57 C64 1.403 . S
C58 C48 1.476 . S
C58 N53 1.318 . S
C58 C57 1.396 . S
H59 C54 0.929 . S
O60 Mn36 2.385 1_556 S
O60 C38 1.234 1_556 S
O61 Mn36 2.209 . S
O61 Mn37 2.215 . S
O61 C38 1.283 . S
O62 Mn36 2.095 . S
O62 C40 1.241 . S
O63 Mn37 2.117 . S
O63 C40 1.264 . S
C64 C57 1.403 . S
C64 C65 1.399 . S
C64 H70 0.929 . S
C65 C45 1.449 . S
C65 C64 1.399 . S
C65 H71 0.930 . S
H66 C46 0.931 . S
H67 C47 0.930 . S
H68 C55 0.931 . S
H69 C56 0.929 . S
H70 C64 0.929 . S
H71 C65 0.930 . S
Mn72 O77 2.095 . S
Mn72 O87 2.162 1_655 S
Mn72 O88 2.297 . S
Mn72 O96 2.385 1_554 S
Mn72 O97 2.209 . S
Mn72 O98 2.095 . S
Mn73 O78 2.121 . S
Mn73 N80 2.257 . S
Mn73 N89 2.282 . S
Mn73 O97 2.215 . S
Mn73 O99 2.117 . S
C74 O96 1.234 1_554 S
C74 O97 1.283 . S
C75 O87 1.281 . S
C75 O88 1.236 1_455 S
C76 O98 1.241 . S
C76 O99 1.264 . S
O77 Mn72 2.095 . S
O77 C86 1.250 . S
O78 Mn73 2.121 . S
O78 C86 1.258 . S
C79 N80 1.326 . S
C79 C83 1.460 . S
C79 H85 0.929 . S
N80 Mn73 2.257 . S
N80 C79 1.326 . S
N80 C84 1.362 . S
C81 C82 1.258 . S
C81 C84 1.431 . S
C81 C101 1.449 . S
C82 C81 1.258 . S
C82 C83 1.477 . S
C82 H102 0.931 . S
C83 C79 1.460 . S
C83 C82 1.477 . S
C83 H103 0.930 . S
C84 N80 1.362 . S
C84 C81 1.431 . S
C84 C94 1.476 . S
H85 C79 0.929 . S
C86 O77 1.250 . S
C86 O78 1.258 . S
O87 Mn72 2.162 1_455 S
O87 C75 1.281 . S
O88 Mn72 2.297 . S
O88 C75 1.236 1_655 S
N89 Mn73 2.282 . S
N89 C90 1.328 1_554 S
N89 C94 1.318 . S
C90 N89 1.328 1_556 S
C90 C91 1.457 . S
C90 H95 0.929 . S
C91 C90 1.457 . S
C91 C92 1.291 . S
C91 H104 0.931 . S
C92 C91 1.291 . S
C92 C93 1.373 1_556 S
C92 H105 0.929 . S
C93 C92 1.373 1_554 S
C93 C94 1.396 . S
C93 C100 1.403 . S
C94 C84 1.476 . S
C94 N89 1.318 . S
C94 C93 1.396 . S
H95 C90 0.929 . S
O96 Mn72 2.385 1_556 S
O96 C74 1.234 1_556 S
O97 Mn72 2.209 . S
O97 Mn73 2.215 . S
O97 C74 1.283 . S
O98 Mn72 2.095 . S
O98 C76 1.241 . S
O99 Mn73 2.117 . S
O99 C76 1.264 . S
C100 C93 1.403 . S
C100 C101 1.399 . S
C100 H106 0.929 . S
C101 C81 1.449 . S
C101 C100 1.399 . S
C101 H107 0.930 . S
H102 C82 0.931 . S
H103 C83 0.930 . S
H104 C91 0.931 . S
H105 C92 0.929 . S
H106 C100 0.929 . S
H107 C101 0.930 . S
Mn108 O113 2.095 . S
Mn108 O123 2.162 1_565 S
Mn108 O124 2.297 . S
Mn108 O132 2.385 1_554 S
Mn108 O133 2.209 . S
Mn108 O134 2.095 . S
Mn109 O114 2.121 . S
Mn109 N116 2.257 . S
Mn109 N125 2.282 . S
Mn109 O133 2.215 . S
Mn109 O135 2.117 . S
C110 O132 1.234 1_554 S
C110 O133 1.283 . S
C111 O123 1.281 . S
C111 O124 1.236 1_545 S
C112 O134 1.241 . S
C112 O135 1.264 . S
O113 Mn108 2.095 . S
O113 C122 1.250 . S
O114 Mn109 2.121 . S
O114 C122 1.258 . S
C115 N116 1.326 . S
C115 C119 1.460 . S
C115 H121 0.929 . S
N116 Mn109 2.257 . S
N116 C115 1.326 . S
N116 C120 1.362 . S
C117 C118 1.258 . S
C117 C120 1.431 . S
C117 C137 1.449 . S
C118 C117 1.258 . S
C118 C119 1.477 . S
C118 H138 0.931 . S
C119 C115 1.460 . S
C119 C118 1.477 . S
C119 H139 0.930 . S
C120 N116 1.362 . S
C120 C117 1.431 . S
C120 C130 1.476 . S
H121 C115 0.929 . S
C122 O113 1.250 . S
C122 O114 1.258 . S
O123 Mn108 2.162 1_545 S
O123 C111 1.281 . S
O124 Mn108 2.297 . S
O124 C111 1.236 1_565 S
N125 Mn109 2.282 . S
N125 C126 1.328 1_554 S
N125 C130 1.318 . S
C126 N125 1.328 1_556 S
C126 C127 1.457 . S
C126 H131 0.929 . S
C127 C126 1.457 . S
C127 C128 1.291 . S
C127 H140 0.931 . S
C128 C127 1.291 . S
C128 C129 1.373 1_556 S
C128 H141 0.929 . S
C129 C128 1.373 1_554 S
C129 C130 1.396 . S
C129 C136 1.403 . S
C130 C120 1.476 . S
C130 N125 1.318 . S
C130 C129 1.396 . S
H131 C126 0.929 . S
O132 Mn108 2.385 1_556 S
O132 C110 1.234 1_556 S
O133 Mn108 2.209 . S
O133 Mn109 2.215 . S
O133 C110 1.283 . S
O134 Mn108 2.095 . S
O134 C112 1.241 . S
O135 Mn109 2.117 . S
O135 C112 1.264 . S
C136 C129 1.403 . S
C136 C137 1.399 . S
C136 H142 0.929 . S
C137 C117 1.449 . S
C137 C136 1.399 . S
C137 H143 0.930 . S
H138 C118 0.931 . S
H139 C119 0.930 . S
H140 C127 0.931 . S
H141 C128 0.929 . S
H142 C136 0.929 . S
H143 C137 0.930 . S
Mn144 O149 2.095 . S
Mn144 O159 2.162 . S
Mn144 O160 2.297 . S
Mn144 O168 2.385 . S
Mn144 O169 2.209 . S
Mn144 O170 2.094 . S
Mn145 O150 2.121 . S
Mn145 N152 2.257 . S
Mn145 N161 2.282 . S
Mn145 O169 2.215 . S
Mn145 O171 2.117 . S
C146 O168 1.234 . S
C146 O169 1.283 . S
C147 O159 1.281 . S
C147 O160 1.236 . S
C148 O170 1.240 . S
C148 O171 1.264 . S
O149 Mn144 2.095 . S
O149 C158 1.250 . S
O150 Mn145 2.121 . S
O150 C158 1.258 . S
C151 N152 1.326 . S
C151 C155 1.460 . S
C151 H157 0.929 . S
N152 Mn145 2.257 . S
N152 C151 1.326 . S
N152 C156 1.362 . S
C153 C154 1.258 . S
C153 C156 1.431 . S
C153 C173 1.449 . S
C154 C153 1.258 . S
C154 C155 1.477 . S
C154 H174 0.931 . S
C155 C151 1.460 . S
C155 C154 1.477 . S
C155 H175 0.930 . S
C156 N152 1.362 . S
C156 C153 1.431 . S
C156 C166 1.476 . S
H157 C151 0.929 . S
C158 O149 1.250 . S
C158 O150 1.258 . S
O159 Mn144 2.162 . S
O159 C147 1.281 . S
O160 Mn144 2.297 . S
O160 C147 1.236 . S
N161 Mn145 2.282 . S
N161 C162 1.328 . S
N161 C166 1.318 . S
C162 N161 1.328 . S
C162 C163 1.457 . S
C162 H167 0.929 . S
C163 C162 1.457 . S
C163 C164 1.291 . S
C163 H176 0.931 . S
C164 C163 1.291 . S
C164 C165 1.373 . S
C164 H177 0.929 . S
C165 C164 1.373 . S
C165 C166 1.396 . S
C165 C172 1.403 . S
C166 C156 1.476 . S
C166 N161 1.318 . S
C166 C165 1.396 . S
H167 C162 0.929 . S
O168 Mn144 2.385 . S
O168 C146 1.234 . S
O169 Mn144 2.209 . S
O169 Mn145 2.215 . S
O169 C146 1.283 . S
O170 Mn144 2.094 . S
O170 C148 1.240 . S
O171 Mn145 2.117 . S
O171 C148 1.264 . S
C172 C165 1.403 . S
C172 C173 1.399 . S
C172 H178 0.929 . S
C173 C153 1.449 . S
C173 C172 1.399 . S
C173 H179 0.930 . S
H174 C154 0.931 . S
H175 C155 0.930 . S
H176 C163 0.931 . S
H177 C164 0.929 . S
H178 C172 0.929 . S
H179 C173 0.930 . S
Mn180 O185 2.095 . S
Mn180 O195 2.162 . S
Mn180 O196 2.297 . S
Mn180 O204 2.385 . S
Mn180 O205 2.209 . S
Mn180 O206 2.094 . S
Mn181 O186 2.121 . S
Mn181 N188 2.257 . S
Mn181 N197 2.282 . S
Mn181 O205 2.215 . S
Mn181 O207 2.117 . S
C182 O204 1.234 . S
C182 O205 1.283 . S
C183 O195 1.281 . S
C183 O196 1.236 . S
C184 O206 1.240 . S
C184 O207 1.264 . S
O185 Mn180 2.095 . S
O185 C194 1.250 . S
O186 Mn181 2.121 . S
O186 C194 1.258 . S
C187 N188 1.326 . S
C187 C191 1.460 . S
C187 H193 0.929 . S
N188 Mn181 2.257 . S
N188 C187 1.326 . S
N188 C192 1.362 . S
C189 C190 1.258 . S
C189 C192 1.431 . S
C189 C209 1.449 . S
C190 C189 1.258 . S
C190 C191 1.477 . S
C190 H210 0.931 . S
C191 C187 1.460 . S
C191 C190 1.477 . S
C191 H211 0.930 . S
C192 N188 1.362 . S
C192 C189 1.431 . S
C192 C202 1.476 . S
H193 C187 0.929 . S
C194 O185 1.250 . S
C194 O186 1.258 . S
O195 Mn180 2.162 . S
O195 C183 1.281 . S
O196 Mn180 2.297 . S
O196 C183 1.236 . S
N197 Mn181 2.282 . S
N197 C198 1.328 . S
N197 C202 1.318 . S
C198 N197 1.328 . S
C198 C199 1.457 . S
C198 H203 0.929 . S
C199 C198 1.457 . S
C199 C200 1.291 . S
C199 H212 0.931 . S
C200 C199 1.291 . S
C200 C201 1.373 . S
C200 H213 0.929 . S
C201 C200 1.373 . S
C201 C202 1.396 . S
C201 C208 1.403 . S
C202 C192 1.476 . S
C202 N197 1.318 . S
C202 C201 1.396 . S
H203 C198 0.929 . S
O204 Mn180 2.385 . S
O204 C182 1.234 . S
O205 Mn180 2.209 . S
O205 Mn181 2.215 . S
O205 C182 1.283 . S
O206 Mn180 2.094 . S
O206 C184 1.240 . S
O207 Mn181 2.117 . S
O207 C184 1.264 . S
C208 C201 1.403 . S
C208 C209 1.399 . S
C208 H214 0.929 . S
C209 C189 1.449 . S
C209 C208 1.399 . S
C209 H215 0.930 . S
H210 C190 0.931 . S
H211 C191 0.930 . S
H212 C199 0.931 . S
H213 C200 0.929 . S
H214 C208 0.929 . S
H215 C209 0.930 . S
Mn216 O221 2.095 . S
Mn216 O231 2.162 1_655 S
Mn216 O232 2.297 . S
Mn216 O240 2.385 . S
Mn216 O241 2.209 . S
Mn216 O242 2.094 . S
Mn217 O222 2.121 . S
Mn217 N224 2.257 . S
Mn217 N233 2.282 . S
Mn217 O241 2.215 . S
Mn217 O243 2.117 . S
C218 O240 1.234 . S
C218 O241 1.283 . S
C219 O231 1.281 . S
C219 O232 1.236 1_455 S
C220 O242 1.240 . S
C220 O243 1.264 . S
O221 Mn216 2.095 . S
O221 C230 1.250 . S
O222 Mn217 2.121 . S
O222 C230 1.258 . S
C223 N224 1.326 . S
C223 C227 1.460 . S
C223 H229 0.929 . S
N224 Mn217 2.257 . S
N224 C223 1.326 . S
N224 C228 1.362 . S
C225 C226 1.258 . S
C225 C228 1.431 . S
C225 C245 1.449 . S
C226 C225 1.258 . S
C226 C227 1.477 . S
C226 H246 0.931 . S
C227 C223 1.460 . S
C227 C226 1.477 . S
C227 H247 0.930 . S
C228 N224 1.362 . S
C228 C225 1.431 . S
C228 C238 1.476 . S
H229 C223 0.929 . S
C230 O221 1.250 . S
C230 O222 1.258 . S
O231 Mn216 2.162 1_455 S
O231 C219 1.281 . S
O232 Mn216 2.297 . S
O232 C219 1.236 1_655 S
N233 Mn217 2.282 . S
N233 C234 1.328 . S
N233 C238 1.318 . S
C234 N233 1.328 . S
C234 C235 1.457 . S
C234 H239 0.929 . S
C235 C234 1.457 . S
C235 C236 1.291 . S
C235 H248 0.931 . S
C236 C235 1.291 . S
C236 C237 1.373 . S
C236 H249 0.929 . S
C237 C236 1.373 . S
C237 C238 1.396 . S
C237 C244 1.403 . S
C238 C228 1.476 . S
C238 N233 1.318 . S
C238 C237 1.396 . S
H239 C234 0.929 . S
O240 Mn216 2.385 . S
O240 C218 1.234 . S
O241 Mn216 2.209 . S
O241 Mn217 2.215 . S
O241 C218 1.283 . S
O242 Mn216 2.094 . S
O242 C220 1.240 . S
O243 Mn217 2.117 . S
O243 C220 1.264 . S
C244 C237 1.403 . S
C244 C245 1.399 . S
C244 H250 0.929 . S
C245 C225 1.449 . S
C245 C244 1.399 . S
C245 H251 0.930 . S
H246 C226 0.931 . S
H247 C227 0.930 . S
H248 C235 0.931 . S
H249 C236 0.929 . S
H250 C244 0.929 . S
H251 C245 0.930 . S
Mn252 O257 2.095 . S
Mn252 O267 2.162 1_565 S
Mn252 O268 2.297 . S
Mn252 O276 2.385 . S
Mn252 O277 2.209 . S
Mn252 O278 2.094 . S
Mn253 O258 2.121 . S
Mn253 N260 2.257 . S
Mn253 N269 2.282 . S
Mn253 O277 2.215 . S
Mn253 O279 2.117 . S
C254 O276 1.234 . S
C254 O277 1.283 . S
C255 O267 1.281 . S
C255 O268 1.236 1_545 S
C256 O278 1.240 . S
C256 O279 1.264 . S
O257 Mn252 2.095 . S
O257 C266 1.250 . S
O258 Mn253 2.121 . S
O258 C266 1.258 . S
C259 N260 1.326 . S
C259 C263 1.460 . S
C259 H265 0.929 . S
N260 Mn253 2.257 . S
N260 C259 1.326 . S
N260 C264 1.362 . S
C261 C262 1.258 . S
C261 C264 1.431 . S
C261 C281 1.449 . S
C262 C261 1.258 . S
C262 C263 1.477 . S
C262 H282 0.931 . S
C263 C259 1.460 . S
C263 C262 1.477 . S
C263 H283 0.930 . S
C264 N260 1.362 . S
C264 C261 1.431 . S
C264 C274 1.476 . S
H265 C259 0.929 . S
C266 O257 1.250 . S
C266 O258 1.258 . S
O267 Mn252 2.162 1_545 S
O267 C255 1.281 . S
O268 Mn252 2.297 . S
O268 C255 1.236 1_565 S
N269 Mn253 2.282 . S
N269 C270 1.328 . S
N269 C274 1.318 . S
C270 N269 1.328 . S
C270 C271 1.457 . S
C270 H275 0.929 . S
C271 C270 1.457 . S
C271 C272 1.291 . S
C271 H284 0.931 . S
C272 C271 1.291 . S
C272 C273 1.373 . S
C272 H285 0.929 . S
C273 C272 1.373 . S
C273 C274 1.396 . S
C273 C280 1.403 . S
C274 C264 1.476 . S
C274 N269 1.318 . S
C274 C273 1.396 . S
H275 C270 0.929 . S
O276 Mn252 2.385 . S
O276 C254 1.234 . S
O277 Mn252 2.209 . S
O277 Mn253 2.215 . S
O277 C254 1.283 . S
O278 Mn252 2.094 . S
O278 C256 1.240 . S
O279 Mn253 2.117 . S
O279 C256 1.264 . S
C280 C273 1.403 . S
C280 C281 1.399 . S
C280 H286 0.929 . S
C281 C261 1.449 . S
C281 C280 1.399 . S
C281 H287 0.930 . S
H282 C262 0.931 . S
H283 C263 0.930 . S
H284 C271 0.931 . S
H285 C272 0.929 . S
H286 C280 0.929 . S
H287 C281 0.930 . S
Mn288 O293 2.095 . S
Mn288 O303 2.162 . S
Mn288 O304 2.297 . S
Mn288 O312 2.385 1_556 S
Mn288 O313 2.209 . S
Mn288 O314 2.095 . S
Mn289 O294 2.121 . S
Mn289 N296 2.257 . S
Mn289 N305 2.282 . S
Mn289 O313 2.215 . S
Mn289 O315 2.117 . S
C290 O312 1.234 1_556 S
C290 O313 1.283 . S
C291 O303 1.281 . S
C291 O304 1.236 . S
C292 O314 1.241 . S
C292 O315 1.264 . S
O293 Mn288 2.095 . S
O293 C302 1.250 . S
O294 Mn289 2.121 . S
O294 C302 1.258 . S
C295 N296 1.326 . S
C295 C299 1.460 . S
C295 H301 0.929 . S
N296 Mn289 2.257 . S
N296 C295 1.326 . S
N296 C300 1.362 . S
C297 C298 1.258 . S
C297 C300 1.431 . S
C297 C317 1.449 . S
C298 C297 1.258 . S
C298 C299 1.477 . S
C298 H318 0.931 . S
C299 C295 1.460 . S
C299 C298 1.477 . S
C299 H319 0.930 . S
C300 N296 1.362 . S
C300 C297 1.431 . S
C300 C310 1.476 . S
H301 C295 0.929 . S
C302 O293 1.250 . S
C302 O294 1.258 . S
O303 Mn288 2.162 . S
O303 C291 1.281 . S
O304 Mn288 2.297 . S
O304 C291 1.236 . S
N305 Mn289 2.282 . S
N305 C306 1.328 1_556 S
N305 C310 1.318 . S
C306 N305 1.328 1_554 S
C306 C307 1.457 . S
C306 H311 0.929 . S
C307 C306 1.457 . S
C307 C308 1.291 . S
C307 H320 0.931 . S
C308 C307 1.291 . S
C308 C309 1.373 1_554 S
C308 H321 0.929 . S
C309 C308 1.373 1_556 S
C309 C310 1.396 . S
C309 C316 1.403 . S
C310 C300 1.476 . S
C310 N305 1.318 . S
C310 C309 1.396 . S
H311 C306 0.929 . S
O312 Mn288 2.385 1_554 S
O312 C290 1.234 1_554 S
O313 Mn288 2.209 . S
O313 Mn289 2.215 . S
O313 C290 1.283 . S
O314 Mn288 2.095 . S
O314 C292 1.241 . S
O315 Mn289 2.117 . S
O315 C292 1.264 . S
C316 C309 1.403 . S
C316 C317 1.399 . S
C316 H322 0.929 . S
C317 C297 1.449 . S
C317 C316 1.399 . S
C317 H323 0.930 . S
H318 C298 0.931 . S
H319 C299 0.930 . S
H320 C307 0.931 . S
H321 C308 0.929 . S
H322 C316 0.929 . S
H323 C317 0.930 . S
Mn324 O329 2.095 . S
Mn324 O339 2.162 . S
Mn324 O340 2.297 . S
Mn324 O348 2.385 1_556 S
Mn324 O349 2.209 . S
Mn324 O350 2.095 . S
Mn325 O330 2.121 . S
Mn325 N332 2.257 . S
Mn325 N341 2.282 . S
Mn325 O349 2.215 . S
Mn325 O351 2.117 . S
C326 O348 1.234 1_556 S
C326 O349 1.283 . S
C327 O339 1.281 . S
C327 O340 1.236 . S
C328 O350 1.241 . S
C328 O351 1.264 . S
O329 Mn324 2.095 . S
O329 C338 1.250 . S
O330 Mn325 2.121 . S
O330 C338 1.258 . S
C331 N332 1.326 . S
C331 C335 1.460 . S
C331 H337 0.929 . S
N332 Mn325 2.257 . S
N332 C331 1.326 . S
N332 C336 1.362 . S
C333 C334 1.258 . S
C333 C336 1.431 . S
C333 C353 1.449 . S
C334 C333 1.258 . S
C334 C335 1.477 . S
C334 H354 0.931 . S
C335 C331 1.460 . S
C335 C334 1.477 . S
C335 H355 0.930 . S
C336 N332 1.362 . S
C336 C333 1.431 . S
C336 C346 1.476 . S
H337 C331 0.929 . S
C338 O329 1.250 . S
C338 O330 1.258 . S
O339 Mn324 2.162 . S
O339 C327 1.281 . S
O340 Mn324 2.297 . S
O340 C327 1.236 . S
N341 Mn325 2.282 . S
N341 C342 1.328 1_556 S
N341 C346 1.318 . S
C342 N341 1.328 1_554 S
C342 C343 1.457 . S
C342 H347 0.929 . S
C343 C342 1.457 . S
C343 C344 1.291 . S
C343 H356 0.931 . S
C344 C343 1.291 . S
C344 C345 1.373 1_554 S
C344 H357 0.929 . S
C345 C344 1.373 1_556 S
C345 C346 1.396 . S
C345 C352 1.403 . S
C346 C336 1.476 . S
C346 N341 1.318 . S
C346 C345 1.396 . S
H347 C342 0.929 . S
O348 Mn324 2.385 1_554 S
O348 C326 1.234 1_554 S
O349 Mn324 2.209 . S
O349 Mn325 2.215 . S
O349 C326 1.283 . S
O350 Mn324 2.095 . S
O350 C328 1.241 . S
O351 Mn325 2.117 . S
O351 C328 1.264 . S
C352 C345 1.403 . S
C352 C353 1.399 . S
C352 H358 0.929 . S
C353 C333 1.449 . S
C353 C352 1.399 . S
C353 H359 0.930 . S
H354 C334 0.931 . S
H355 C335 0.930 . S
H356 C343 0.931 . S
H357 C344 0.929 . S
H358 C352 0.929 . S
H359 C353 0.930 . S
Mn360 O365 2.095 . S
Mn360 O375 2.162 1_455 S
Mn360 O376 2.297 . S
Mn360 O384 2.385 1_556 S
Mn360 O385 2.209 . S
Mn360 O386 2.095 . S
Mn361 O366 2.121 . S
Mn361 N368 2.257 . S
Mn361 N377 2.282 . S
Mn361 O385 2.215 . S
Mn361 O387 2.117 . S
C362 O384 1.234 1_556 S
C362 O385 1.283 . S
C363 O375 1.281 . S
C363 O376 1.236 1_655 S
C364 O386 1.241 . S
C364 O387 1.264 . S
O365 Mn360 2.095 . S
O365 C374 1.250 . S
O366 Mn361 2.121 . S
O366 C374 1.258 . S
C367 N368 1.326 . S
C367 C371 1.460 . S
C367 H373 0.929 . S
N368 Mn361 2.257 . S
N368 C367 1.326 . S
N368 C372 1.362 . S
C369 C370 1.258 . S
C369 C372 1.431 . S
C369 C389 1.449 . S
C370 C369 1.258 . S
C370 C371 1.477 . S
C370 H390 0.931 . S
C371 C367 1.460 . S
C371 C370 1.477 . S
C371 H391 0.930 . S
C372 N368 1.362 . S
C372 C369 1.431 . S
C372 C382 1.476 . S
H373 C367 0.929 . S
C374 O365 1.250 . S
C374 O366 1.258 . S
O375 Mn360 2.162 1_655 S
O375 C363 1.281 . S
O376 Mn360 2.297 . S
O376 C363 1.236 1_455 S
N377 Mn361 2.282 . S
N377 C378 1.328 1_556 S
N377 C382 1.318 . S
C378 N377 1.328 1_554 S
C378 C379 1.457 . S
C378 H383 0.929 . S
C379 C378 1.457 . S
C379 C380 1.291 . S
C379 H392 0.931 . S
C380 C379 1.291 . S
C380 C381 1.373 1_554 S
C380 H393 0.929 . S
C381 C380 1.373 1_556 S
C381 C382 1.396 . S
C381 C388 1.403 . S
C382 C372 1.476 . S
C382 N377 1.318 . S
C382 C381 1.396 . S
H383 C378 0.929 . S
O384 Mn360 2.385 1_554 S
O384 C362 1.234 1_554 S
O385 Mn360 2.209 . S
O385 Mn361 2.215 . S
O385 C362 1.283 . S
O386 Mn360 2.095 . S
O386 C364 1.241 . S
O387 Mn361 2.117 . S
O387 C364 1.264 . S
C388 C381 1.403 . S
C388 C389 1.399 . S
C388 H394 0.929 . S
C389 C369 1.449 . S
C389 C388 1.399 . S
C389 H395 0.930 . S
H390 C370 0.931 . S
H391 C371 0.930 . S
H392 C379 0.931 . S
H393 C380 0.929 . S
H394 C388 0.929 . S
H395 C389 0.930 . S
Mn396 O401 2.095 . S
Mn396 O411 2.162 1_545 S
Mn396 O412 2.297 . S
Mn396 O420 2.385 1_556 S
Mn396 O421 2.209 . S
Mn396 O422 2.095 . S
Mn397 O402 2.121 . S
Mn397 N404 2.257 . S
Mn397 N413 2.282 . S
Mn397 O421 2.215 . S
Mn397 O423 2.117 . S
C398 O420 1.234 1_556 S
C398 O421 1.283 . S
C399 O411 1.281 . S
C399 O412 1.236 1_565 S
C400 O422 1.241 . S
C400 O423 1.264 . S
O401 Mn396 2.095 . S
O401 C410 1.250 . S
O402 Mn397 2.121 . S
O402 C410 1.258 . S
C403 N404 1.326 . S
C403 C407 1.460 . S
C403 H409 0.929 . S
N404 Mn397 2.257 . S
N404 C403 1.326 . S
N404 C408 1.362 . S
C405 C406 1.258 . S
C405 C408 1.431 . S
C405 C425 1.449 . S
C406 C405 1.258 . S
C406 C407 1.477 . S
C406 H426 0.931 . S
C407 C403 1.460 . S
C407 C406 1.477 . S
C407 H427 0.930 . S
C408 N404 1.362 . S
C408 C405 1.431 . S
C408 C418 1.476 . S
H409 C403 0.929 . S
C410 O401 1.250 . S
C410 O402 1.258 . S
O411 Mn396 2.162 1_565 S
O411 C399 1.281 . S
O412 Mn396 2.297 . S
O412 C399 1.236 1_545 S
N413 Mn397 2.282 . S
N413 C414 1.328 1_556 S
N413 C418 1.318 . S
C414 N413 1.328 1_554 S
C414 C415 1.457 . S
C414 H419 0.929 . S
C415 C414 1.457 . S
C415 C416 1.291 . S
C415 H428 0.931 . S
C416 C415 1.291 . S
C416 C417 1.373 1_554 S
C416 H429 0.929 . S
C417 C416 1.373 1_556 S
C417 C418 1.396 . S
C417 C424 1.403 . S
C418 C408 1.476 . S
C418 N413 1.318 . S
C418 C417 1.396 . S
H419 C414 0.929 . S
O420 Mn396 2.385 1_554 S
O420 C398 1.234 1_554 S
O421 Mn396 2.209 . S
O421 Mn397 2.215 . S
O421 C398 1.283 . S
O422 Mn396 2.095 . S
O422 C400 1.241 . S
O423 Mn397 2.117 . S
O423 C400 1.264 . S
C424 C417 1.403 . S
C424 C425 1.399 . S
C424 H430 0.929 . S
C425 C405 1.449 . S
C425 C424 1.399 . S
C425 H431 0.930 . S
H426 C406 0.931 . S
H427 C407 0.930 . S
H428 C415 0.931 . S
H429 C416 0.929 . S
H430 C424 0.929 . S
H431 C425 0.930 . S
Mn432 O437 2.095 . S
Mn432 O447 2.162 . S
Mn432 O448 2.297 . S
Mn432 O456 2.385 . S
Mn432 O457 2.209 . S
Mn432 O458 2.094 . S
Mn433 O438 2.121 . S
Mn433 N440 2.257 . S
Mn433 N449 2.282 . S
Mn433 O457 2.215 . S
Mn433 O459 2.117 . S
C434 O456 1.234 . S
C434 O457 1.283 . S
C435 O447 1.281 . S
C435 O448 1.236 . S
C436 O458 1.240 . S
C436 O459 1.264 . S
O437 Mn432 2.095 . S
O437 C446 1.250 . S
O438 Mn433 2.121 . S
O438 C446 1.258 . S
C439 N440 1.326 . S
C439 C443 1.460 . S
C439 H445 0.929 . S
N440 Mn433 2.257 . S
N440 C439 1.326 . S
N440 C444 1.362 . S
C441 C442 1.258 . S
C441 C444 1.431 . S
C441 C461 1.449 . S
C442 C441 1.258 . S
C442 C443 1.477 . S
C442 H462 0.931 . S
C443 C439 1.460 . S
C443 C442 1.477 . S
C443 H463 0.930 . S
C444 N440 1.362 . S
C444 C441 1.431 . S
C444 C454 1.476 . S
H445 C439 0.929 . S
C446 O437 1.250 . S
C446 O438 1.258 . S
O447 Mn432 2.162 . S
O447 C435 1.281 . S
O448 Mn432 2.297 . S
O448 C435 1.236 . S
N449 Mn433 2.282 . S
N449 C450 1.328 . S
N449 C454 1.318 . S
C450 N449 1.328 . S
C450 C451 1.457 . S
C450 H455 0.929 . S
C451 C450 1.457 . S
C451 C452 1.291 . S
C451 H464 0.931 . S
C452 C451 1.291 . S
C452 C453 1.373 . S
C452 H465 0.929 . S
C453 C452 1.373 . S
C453 C454 1.396 . S
C453 C460 1.403 . S
C454 C444 1.476 . S
C454 N449 1.318 . S
C454 C453 1.396 . S
H455 C450 0.929 . S
O456 Mn432 2.385 . S
O456 C434 1.234 . S
O457 Mn432 2.209 . S
O457 Mn433 2.215 . S
O457 C434 1.283 . S
O458 Mn432 2.094 . S
O458 C436 1.240 . S
O459 Mn433 2.117 . S
O459 C436 1.264 . S
C460 C453 1.403 . S
C460 C461 1.399 . S
C460 H466 0.929 . S
C461 C441 1.449 . S
C461 C460 1.399 . S
C461 H467 0.930 . S
H462 C442 0.931 . S
H463 C443 0.930 . S
H464 C451 0.931 . S
H465 C452 0.929 . S
H466 C460 0.929 . S
H467 C461 0.930 . S
Mn468 O473 2.095 . S
Mn468 O483 2.162 . S
Mn468 O484 2.297 . S
Mn468 O492 2.385 . S
Mn468 O493 2.209 . S
Mn468 O494 2.094 . S
Mn469 O474 2.121 . S
Mn469 N476 2.257 . S
Mn469 N485 2.282 . S
Mn469 O493 2.215 . S
Mn469 O495 2.117 . S
C470 O492 1.234 . S
C470 O493 1.283 . S
C471 O483 1.281 . S
C471 O484 1.236 . S
C472 O494 1.240 . S
C472 O495 1.264 . S
O473 Mn468 2.095 . S
O473 C482 1.250 . S
O474 Mn469 2.121 . S
O474 C482 1.258 . S
C475 N476 1.326 . S
C475 C479 1.460 . S
C475 H481 0.929 . S
N476 Mn469 2.257 . S
N476 C475 1.326 . S
N476 C480 1.362 . S
C477 C478 1.258 . S
C477 C480 1.431 . S
C477 C497 1.449 . S
C478 C477 1.258 . S
C478 C479 1.477 . S
C478 H498 0.931 . S
C479 C475 1.460 . S
C479 C478 1.477 . S
C479 H499 0.930 . S
C480 N476 1.362 . S
C480 C477 1.431 . S
C480 C490 1.476 . S
H481 C475 0.929 . S
C482 O473 1.250 . S
C482 O474 1.258 . S
O483 Mn468 2.162 . S
O483 C471 1.281 . S
O484 Mn468 2.297 . S
O484 C471 1.236 . S
N485 Mn469 2.282 . S
N485 C486 1.328 . S
N485 C490 1.318 . S
C486 N485 1.328 . S
C486 C487 1.457 . S
C486 H491 0.929 . S
C487 C486 1.457 . S
C487 C488 1.291 . S
C487 H500 0.931 . S
C488 C487 1.291 . S
C488 C489 1.373 . S
C488 H501 0.929 . S
C489 C488 1.373 . S
C489 C490 1.396 . S
C489 C496 1.403 . S
C490 C480 1.476 . S
C490 N485 1.318 . S
C490 C489 1.396 . S
H491 C486 0.929 . S
O492 Mn468 2.385 . S
O492 C470 1.234 . S
O493 Mn468 2.209 . S
O493 Mn469 2.215 . S
O493 C470 1.283 . S
O494 Mn468 2.094 . S
O494 C472 1.240 . S
O495 Mn469 2.117 . S
O495 C472 1.264 . S
C496 C489 1.403 . S
C496 C497 1.399 . S
C496 H502 0.929 . S
C497 C477 1.449 . S
C497 C496 1.399 . S
C497 H503 0.930 . S
H498 C478 0.931 . S
H499 C479 0.930 . S
H500 C487 0.931 . S
H501 C488 0.929 . S
H502 C496 0.929 . S
H503 C497 0.930 . S
Mn504 O509 2.095 . S
Mn504 O519 2.162 1_455 S
Mn504 O520 2.297 . S
Mn504 O528 2.385 . S
Mn504 O529 2.209 . S
Mn504 O530 2.094 . S
Mn505 O510 2.121 . S
Mn505 N512 2.257 . S
Mn505 N521 2.282 . S
Mn505 O529 2.215 . S
Mn505 O531 2.117 . S
C506 O528 1.234 . S
C506 O529 1.283 . S
C507 O519 1.281 . S
C507 O520 1.236 1_655 S
C508 O530 1.240 . S
C508 O531 1.264 . S
O509 Mn504 2.095 . S
O509 C518 1.250 . S
O510 Mn505 2.121 . S
O510 C518 1.258 . S
C511 N512 1.326 . S
C511 C515 1.460 . S
C511 H517 0.929 . S
N512 Mn505 2.257 . S
N512 C511 1.326 . S
N512 C516 1.362 . S
C513 C514 1.258 . S
C513 C516 1.431 . S
C513 C533 1.449 . S
C514 C513 1.258 . S
C514 C515 1.477 . S
C514 H534 0.931 . S
C515 C511 1.460 . S
C515 C514 1.477 . S
C515 H535 0.930 . S
C516 N512 1.362 . S
C516 C513 1.431 . S
C516 C526 1.476 . S
H517 C511 0.929 . S
C518 O509 1.250 . S
C518 O510 1.258 . S
O519 Mn504 2.162 1_655 S
O519 C507 1.281 . S
O520 Mn504 2.297 . S
O520 C507 1.236 1_455 S
N521 Mn505 2.282 . S
N521 C522 1.328 . S
N521 C526 1.318 . S
C522 N521 1.328 . S
C522 C523 1.457 . S
C522 H527 0.929 . S
C523 C522 1.457 . S
C523 C524 1.291 . S
C523 H536 0.931 . S
C524 C523 1.291 . S
C524 C525 1.373 . S
C524 H537 0.929 . S
C525 C524 1.373 . S
C525 C526 1.396 . S
C525 C532 1.403 . S
C526 C516 1.476 . S
C526 N521 1.318 . S
C526 C525 1.396 . S
H527 C522 0.929 . S
O528 Mn504 2.385 . S
O528 C506 1.234 . S
O529 Mn504 2.209 . S
O529 Mn505 2.215 . S
O529 C506 1.283 . S
O530 Mn504 2.094 . S
O530 C508 1.240 . S
O531 Mn505 2.117 . S
O531 C508 1.264 . S
C532 C525 1.403 . S
C532 C533 1.399 . S
C532 H538 0.929 . S
C533 C513 1.449 . S
C533 C532 1.399 . S
C533 H539 0.930 . S
H534 C514 0.931 . S
H535 C515 0.930 . S
H536 C523 0.931 . S
H537 C524 0.929 . S
H538 C532 0.929 . S
H539 C533 0.930 . S
Mn540 O545 2.095 . S
Mn540 O555 2.162 1_545 S
Mn540 O556 2.297 . S
Mn540 O564 2.385 . S
Mn540 O565 2.209 . S
Mn540 O566 2.094 . S
Mn541 O546 2.121 . S
Mn541 N548 2.257 . S
Mn541 N557 2.282 . S
Mn541 O565 2.215 . S
Mn541 O567 2.117 . S
C542 O564 1.234 . S
C542 O565 1.283 . S
C543 O555 1.281 . S
C543 O556 1.236 1_565 S
C544 O566 1.240 . S
C544 O567 1.264 . S
O545 Mn540 2.095 . S
O545 C554 1.250 . S
O546 Mn541 2.121 . S
O546 C554 1.258 . S
C547 N548 1.326 . S
C547 C551 1.460 . S
C547 H553 0.929 . S
N548 Mn541 2.257 . S
N548 C547 1.326 . S
N548 C552 1.362 . S
C549 C550 1.258 . S
C549 C552 1.431 . S
C549 C569 1.449 . S
C550 C549 1.258 . S
C550 C551 1.477 . S
C550 H570 0.931 . S
C551 C547 1.460 . S
C551 C550 1.477 . S
C551 H571 0.930 . S
C552 N548 1.362 . S
C552 C549 1.431 . S
C552 C562 1.476 . S
H553 C547 0.929 . S
C554 O545 1.250 . S
C554 O546 1.258 . S
O555 Mn540 2.162 1_565 S
O555 C543 1.281 . S
O556 Mn540 2.297 . S
O556 C543 1.236 1_545 S
N557 Mn541 2.282 . S
N557 C558 1.328 . S
N557 C562 1.318 . S
C558 N557 1.328 . S
C558 C559 1.457 . S
C558 H563 0.929 . S
C559 C558 1.457 . S
C559 C560 1.291 . S
C559 H572 0.931 . S
C560 C559 1.291 . S
C560 C561 1.373 . S
C560 H573 0.929 . S
C561 C560 1.373 . S
C561 C562 1.396 . S
C561 C568 1.403 . S
C562 C552 1.476 . S
C562 N557 1.318 . S
C562 C561 1.396 . S
H563 C558 0.929 . S
O564 Mn540 2.385 . S
O564 C542 1.234 . S
O565 Mn540 2.209 . S
O565 Mn541 2.215 . S
O565 C542 1.283 . S
O566 Mn540 2.094 . S
O566 C544 1.240 . S
O567 Mn541 2.117 . S
O567 C544 1.264 . S
C568 C561 1.403 . S
C568 C569 1.399 . S
C568 H574 0.929 . S
C569 C549 1.449 . S
C569 C568 1.399 . S
C569 H575 0.930 . S
H570 C550 0.931 . S
H571 C551 0.930 . S
H572 C559 0.931 . S
H573 C560 0.929 . S
H574 C568 0.929 . S
H575 C569 0.930 . S
C576 C577 1.363 1_554 S
C576 C582 1.379 . S
C576 N584 1.356 . S
C577 C576 1.363 1_556 S
C577 C583 1.363 . S
C578 C579 1.363 . S
C578 C583 1.379 . S
C578 N585 1.356 . S
C579 C578 1.363 . S
C579 C582 1.363 1_556 S
N580 C582 1.356 . S
N580 H592 0.984 . S
N580 H593 0.985 . S
N581 C583 1.356 . S
N581 H586 0.984 . S
N581 H587 0.985 . S
C582 C576 1.379 . S
C582 C579 1.363 1_554 S
C582 N580 1.356 . S
C583 C577 1.363 . S
C583 C578 1.379 . S
C583 N581 1.356 . S
N584 C576 1.356 . S
N584 H590 0.984 . S
N584 H591 0.984 . S
N585 C578 1.356 . S
N585 H588 0.984 . S
N585 H589 0.985 . S
H586 N581 0.984 . S
H587 N581 0.985 . S
H588 N585 0.984 . S
H589 N585 0.985 . S
H590 N584 0.984 . S
H591 N584 0.984 . S
H592 N580 0.984 . S
H593 N580 0.985 . S
C594 C595 1.363 1_554 S
C594 C600 1.379 . S
C594 N602 1.356 . S
C595 C594 1.363 1_556 S
C595 C601 1.363 . S
C596 C597 1.363 . S
C596 C601 1.379 . S
C596 N603 1.356 . S
C597 C596 1.363 . S
C597 C600 1.363 1_556 S
N598 C600 1.356 . S
N598 H610 0.984 . S
N598 H611 0.985 . S
N599 C601 1.356 . S
N599 H604 0.984 . S
N599 H605 0.985 . S
C600 C594 1.379 . S
C600 C597 1.363 1_554 S
C600 N598 1.356 . S
C601 C595 1.363 . S
C601 C596 1.379 . S
C601 N599 1.356 . S
N602 C594 1.356 . S
N602 H608 0.984 . S
N602 H609 0.984 . S
N603 C596 1.356 . S
N603 H606 0.984 . S
N603 H607 0.985 . S
H604 N599 0.984 . S
H605 N599 0.985 . S
H606 N603 0.984 . S
H607 N603 0.985 . S
H608 N602 0.984 . S
H609 N602 0.984 . S
H610 N598 0.984 . S
H611 N598 0.985 . S
C612 C613 1.363 . S
C612 C618 1.379 . S
C612 N620 1.356 . S
C613 C612 1.363 . S
C613 C619 1.363 1_556 S
C614 C615 1.363 1_554 S
C614 C619 1.379 . S
C614 N621 1.356 . S
C615 C614 1.363 1_556 S
C615 C618 1.363 . S
N616 C618 1.356 . S
N616 H628 0.984 . S
N616 H629 0.985 . S
N617 C619 1.356 . S
N617 H622 0.984 . S
N617 H623 0.985 . S
C618 C612 1.379 . S
C618 C615 1.363 . S
C618 N616 1.356 . S
C619 C613 1.363 1_554 S
C619 C614 1.379 . S
C619 N617 1.356 . S
N620 C612 1.356 . S
N620 H626 0.984 . S
N620 H627 0.984 . S
N621 C614 1.356 . S
N621 H624 0.984 . S
N621 H625 0.985 . S
H622 N617 0.984 . S
H623 N617 0.985 . S
H624 N621 0.984 . S
H625 N621 0.985 . S
H626 N620 0.984 . S
H627 N620 0.984 . S
H628 N616 0.984 . S
H629 N616 0.985 . S
C630 C631 1.363 . S
C630 C636 1.379 . S
C630 N638 1.356 . S
C631 C630 1.363 . S
C631 C637 1.363 1_556 S
C632 C633 1.363 1_554 S
C632 C637 1.379 . S
C632 N639 1.356 . S
C633 C632 1.363 1_556 S
C633 C636 1.363 . S
N634 C636 1.356 . S
N634 H646 0.984 . S
N634 H647 0.985 . S
N635 C637 1.356 . S
N635 H640 0.984 . S
N635 H641 0.985 . S
C636 C630 1.379 . S
C636 C633 1.363 . S
C636 N634 1.356 . S
C637 C631 1.363 1_554 S
C637 C632 1.379 . S
C637 N635 1.356 . S
N638 C630 1.356 . S
N638 H644 0.984 . S
N638 H645 0.984 . S
N639 C632 1.356 . S
N639 H642 0.984 . S
N639 H643 0.985 . S
H640 N635 0.984 . S
H641 N635 0.985 . S
H642 N639 0.984 . S
H643 N639 0.985 . S
H644 N638 0.984 . S
H645 N638 0.984 . S
H646 N634 0.984 . S
H647 N634 0.985 . S
C648 C649 1.363 . S
C648 C654 1.379 . S
C648 N656 1.356 . S
C649 C648 1.363 . S
C649 C655 1.363 . S
C650 C651 1.363 . S
C650 C655 1.379 . S
C650 N657 1.356 . S
C651 C650 1.363 . S
C651 C654 1.363 . S
N652 C654 1.356 . S
N652 H664 0.984 . S
N652 H665 0.985 . S
N653 C655 1.356 . S
N653 H658 0.984 . S
N653 H659 0.985 . S
C654 C648 1.379 . S
C654 C651 1.363 . S
C654 N652 1.356 . S
C655 C649 1.363 . S
C655 C650 1.379 . S
C655 N653 1.356 . S
N656 C648 1.356 . S
N656 H662 0.984 . S
N656 H663 0.984 . S
N657 C650 1.356 . S
N657 H660 0.984 . S
N657 H661 0.985 . S
H658 N653 0.984 . S
H659 N653 0.985 . S
H660 N657 0.984 . S
H661 N657 0.985 . S
H662 N656 0.984 . S
H663 N656 0.984 . S
H664 N652 0.984 . S
H665 N652 0.985 . S
C666 C667 1.363 . S
C666 C672 1.379 . S
C666 N674 1.356 . S
C667 C666 1.363 . S
C667 C673 1.363 . S
C668 C669 1.363 . S
C668 C673 1.379 . S
C668 N675 1.356 . S
C669 C668 1.363 . S
C669 C672 1.363 . S
N670 C672 1.356 . S
N670 H682 0.984 . S
N670 H683 0.985 . S
N671 C673 1.356 . S
N671 H676 0.984 . S
N671 H677 0.985 . S
C672 C666 1.379 . S
C672 C669 1.363 . S
C672 N670 1.356 . S
C673 C667 1.363 . S
C673 C668 1.379 . S
C673 N671 1.356 . S
N674 C666 1.356 . S
N674 H680 0.984 . S
N674 H681 0.984 . S
N675 C668 1.356 . S
N675 H678 0.984 . S
N675 H679 0.985 . S
H676 N671 0.984 . S
H677 N671 0.985 . S
H678 N675 0.984 . S
H679 N675 0.985 . S
H680 N674 0.984 . S
H681 N674 0.984 . S
H682 N670 0.984 . S
H683 N670 0.985 . S
C684 C685 1.363 . S
C684 C690 1.379 . S
C684 N692 1.356 . S
C685 C684 1.363 . S
C685 C691 1.363 . S
C686 C687 1.363 . S
C686 C691 1.379 . S
C686 N693 1.356 . S
C687 C686 1.363 . S
C687 C690 1.363 . S
N688 C690 1.356 . S
N688 H700 0.984 . S
N688 H701 0.985 . S
N689 C691 1.356 . S
N689 H694 0.984 . S
N689 H695 0.985 . S
C690 C684 1.379 . S
C690 C687 1.363 . S
C690 N688 1.356 . S
C691 C685 1.363 . S
C691 C686 1.379 . S
C691 N689 1.356 . S
N692 C684 1.356 . S
N692 H698 0.984 . S
N692 H699 0.984 . S
N693 C686 1.356 . S
N693 H696 0.984 . S
N693 H697 0.985 . S
H694 N689 0.984 . S
H695 N689 0.985 . S
H696 N693 0.984 . S
H697 N693 0.985 . S
H698 N692 0.984 . S
H699 N692 0.984 . S
H700 N688 0.984 . S
H701 N688 0.985 . S
C702 C703 1.363 . S
C702 C708 1.379 . S
C702 N710 1.356 . S
C703 C702 1.363 . S
C703 C709 1.363 . S
C704 C705 1.363 . S
C704 C709 1.379 . S
C704 N711 1.356 . S
C705 C704 1.363 . S
C705 C708 1.363 . S
N706 C708 1.356 . S
N706 H718 0.984 1_565 S
N706 H719 0.985 1_565 S
N707 C709 1.356 . S
N707 H712 0.984 . S
N707 H713 0.985 . S
C708 C702 1.379 . S
C708 C705 1.363 . S
C708 N706 1.356 . S
C709 C703 1.363 . S
C709 C704 1.379 . S
C709 N707 1.356 . S
N710 C702 1.356 . S
N710 H716 0.984 . S
N710 H717 0.984 . S
N711 C704 1.356 . S
N711 H714 0.984 . S
N711 H715 0.985 . S
H712 N707 0.984 . S
H713 N707 0.985 . S
H714 N711 0.984 . S
H715 N711 0.985 . S
H716 N710 0.984 . S
H717 N710 0.984 . S
H718 N706 0.984 1_545 S
H719 N706 0.985 1_545 S
C720 C721 1.363 1_556 S
C720 C726 1.379 . S
C720 N728 1.356 . S
C721 C720 1.363 1_554 S
C721 C727 1.363 . S
C722 C723 1.363 . S
C722 C727 1.379 . S
C722 N729 1.356 . S
C723 C722 1.363 . S
C723 C726 1.363 1_554 S
N724 C726 1.356 . S
N724 H736 0.984 . S
N724 H737 0.985 . S
N725 C727 1.356 . S
N725 H730 0.984 . S
N725 H731 0.985 . S
C726 C720 1.379 . S
C726 C723 1.363 1_556 S
C726 N724 1.356 . S
C727 C721 1.363 . S
C727 C722 1.379 . S
C727 N725 1.356 . S
N728 C720 1.356 . S
N728 H734 0.984 . S
N728 H735 0.984 . S
N729 C722 1.356 . S
N729 H732 0.984 . S
N729 H733 0.985 . S
H730 N725 0.984 . S
H731 N725 0.985 . S
H732 N729 0.984 . S
H733 N729 0.985 . S
H734 N728 0.984 . S
H735 N728 0.984 . S
H736 N724 0.984 . S
H737 N724 0.985 . S
C738 C739 1.363 . S
C738 C744 1.379 . S
C738 N746 1.356 . S
C739 C738 1.363 . S
C739 C745 1.363 . S
C740 C741 1.363 . S
C740 C745 1.379 . S
C740 N747 1.356 . S
C741 C740 1.363 . S
C741 C744 1.363 . S
N742 C744 1.356 . S
N742 H754 0.984 . S
N742 H755 0.985 . S
N743 C745 1.356 1_556 S
N743 H748 0.984 . S
N743 H749 0.985 . S
C744 C738 1.379 . S
C744 C741 1.363 . S
C744 N742 1.356 . S
C745 C739 1.363 . S
C745 C740 1.379 . S
C745 N743 1.356 1_554 S
N746 C738 1.356 . S
N746 H752 0.984 . S
N746 H753 0.984 . S
N747 C740 1.356 . S
N747 H750 0.984 . S
N747 H751 0.985 . S
H748 N743 0.984 . S
H749 N743 0.985 . S
H750 N747 0.984 . S
H751 N747 0.985 . S
H752 N746 0.984 . S
H753 N746 0.984 . S
H754 N742 0.984 . S
H755 N742 0.985 . S
C756 C757 1.363 . S
C756 C762 1.379 . S
C756 N764 1.356 . S
C757 C756 1.363 . S
C757 C763 1.363 1_554 S
C758 C759 1.363 1_556 S
C758 C763 1.379 . S
C758 N765 1.356 . S
C759 C758 1.363 1_554 S
C759 C762 1.363 . S
N760 C762 1.356 . S
N760 H772 0.984 . S
N760 H773 0.985 . S
N761 C763 1.356 . S
N761 H766 0.984 . S
N761 H767 0.985 . S
C762 C756 1.379 . S
C762 C759 1.363 . S
C762 N760 1.356 . S
C763 C757 1.363 1_556 S
C763 C758 1.379 . S
C763 N761 1.356 . S
N764 C756 1.356 . S
N764 H770 0.984 . S
N764 H771 0.984 . S
N765 C758 1.356 . S
N765 H768 0.984 . S
N765 H769 0.985 . S
H766 N761 0.984 . S
H767 N761 0.985 . S
H768 N765 0.984 . S
H769 N765 0.985 . S
H770 N764 0.984 . S
H771 N764 0.984 . S
H772 N760 0.984 . S
H773 N760 0.985 . S
C774 C775 1.363 1_556 S
C774 C780 1.379 . S
C774 N782 1.356 . S
C775 C774 1.363 1_554 S
C775 C781 1.363 . S
C776 C777 1.363 . S
C776 C781 1.379 . S
C776 N783 1.356 . S
C777 C776 1.363 . S
C777 C780 1.363 1_554 S
N778 C780 1.356 . S
N778 H790 0.984 . S
N778 H791 0.985 . S
N779 C781 1.356 . S
N779 H784 0.984 . S
N779 H785 0.985 . S
C780 C774 1.379 . S
C780 C777 1.363 1_556 S
C780 N778 1.356 . S
C781 C775 1.363 . S
C781 C776 1.379 . S
C781 N779 1.356 . S
N782 C774 1.356 . S
N782 H788 0.984 . S
N782 H789 0.984 . S
N783 C776 1.356 . S
N783 H786 0.984 . S
N783 H787 0.985 . S
H784 N779 0.984 . S
H785 N779 0.985 . S
H786 N783 0.984 . S
H787 N783 0.985 . S
H788 N782 0.984 . S
H789 N782 0.984 . S
H790 N778 0.984 . S
H791 N778 0.985 . S
C792 C793 1.363 . S
C792 C798 1.379 . S
C792 N800 1.356 . S
C793 C792 1.363 . S
C793 C799 1.363 . S
C794 C795 1.363 . S
C794 C799 1.379 . S
C794 N801 1.356 . S
C795 C794 1.363 . S
C795 C798 1.363 . S
N796 C798 1.356 . S
N796 H808 0.984 . S
N796 H809 0.985 . S
N797 C799 1.356 . S
N797 H802 0.984 . S
N797 H803 0.985 . S
C798 C792 1.379 . S
C798 C795 1.363 . S
C798 N796 1.356 . S
C799 C793 1.363 . S
C799 C794 1.379 . S
C799 N797 1.356 . S
N800 C792 1.356 . S
N800 H806 0.984 . S
N800 H807 0.984 . S
N801 C794 1.356 . S
N801 H804 0.984 . S
N801 H805 0.985 . S
H802 N797 0.984 . S
H803 N797 0.985 . S
H804 N801 0.984 . S
H805 N801 0.985 . S
H806 N800 0.984 . S
H807 N800 0.984 . S
H808 N796 0.984 . S
H809 N796 0.985 . S
C810 C811 1.363 . S
C810 C816 1.379 . S
C810 N818 1.356 . S
C811 C810 1.363 . S
C811 C817 1.363 . S
C812 C813 1.363 . S
C812 C817 1.379 . S
C812 N819 1.356 . S
C813 C812 1.363 . S
C813 C816 1.363 . S
N814 C816 1.356 . S
N814 H826 0.984 . S
N814 H827 0.985 . S
N815 C817 1.356 . S
N815 H820 0.984 . S
N815 H821 0.985 . S
C816 C810 1.379 . S
C816 C813 1.363 . S
C816 N814 1.356 . S
C817 C811 1.363 . S
C817 C812 1.379 . S
C817 N815 1.356 . S
N818 C810 1.356 . S
N818 H824 0.984 . S
N818 H825 0.984 . S
N819 C812 1.356 . S
N819 H822 0.984 . S
N819 H823 0.985 . S
H820 N815 0.984 . S
H821 N815 0.985 . S
H822 N819 0.984 . S
H823 N819 0.985 . S
H824 N818 0.984 . S
H825 N818 0.984 . S
H826 N814 0.984 . S
H827 N814 0.985 . S
C828 C829 1.363 . S
C828 C834 1.379 . S
C828 N836 1.356 . S
C829 C828 1.363 . S
C829 C835 1.363 . S
C830 C831 1.363 . S
C830 C835 1.379 . S
C830 N837 1.356 . S
C831 C830 1.363 . S
C831 C834 1.363 . S
N832 C834 1.356 . S
N832 H844 0.984 . S
N832 H845 0.985 . S
N833 C835 1.356 . S
N833 H838 0.984 . S
N833 H839 0.985 . S
C834 C828 1.379 . S
C834 C831 1.363 . S
C834 N832 1.356 . S
C835 C829 1.363 . S
C835 C830 1.379 . S
C835 N833 1.356 . S
N836 C828 1.356 . S
N836 H842 0.984 . S
N836 H843 0.984 . S
N837 C830 1.356 . S
N837 H840 0.988 . S
N837 H841 0.984 . S
H838 N833 0.984 . S
H839 N833 0.985 . S
H840 N837 0.988 . S
H841 N837 0.984 . S
H842 N836 0.984 . S
H843 N836 0.984 . S
H844 N832 0.984 . S
H845 N832 0.985 . S
C846 C847 1.363 . S
C846 C852 1.379 . S
C846 N854 1.356 . S
C847 C846 1.363 . S
C847 C853 1.363 . S
C848 C849 1.363 . S
C848 C853 1.379 . S
C848 N855 1.356 . S
C849 C848 1.363 . S
C849 C852 1.363 . S
N850 C852 1.356 . S
N850 H862 0.984 . S
N850 H863 0.985 . S
N851 C853 1.356 . S
N851 H856 0.984 . S
N851 H857 0.985 . S
C852 C846 1.379 . S
C852 C849 1.363 . S
C852 N850 1.356 . S
C853 C847 1.363 . S
C853 C848 1.379 . S
C853 N851 1.356 . S
N854 C846 1.356 . S
N854 H860 0.984 . S
N854 H861 0.984 . S
N855 C848 1.356 . S
N855 H858 0.984 . S
N855 H859 0.985 . S
H856 N851 0.984 . S
H857 N851 0.985 . S
H858 N855 0.984 . S
H859 N855 0.985 . S
H860 N854 0.984 . S
H861 N854 0.984 . S
H862 N850 0.984 . S
H863 N850 0.985 . S
C864 C865 1.363 . S
C864 C870 1.379 1_565 S
C864 N872 1.356 . S
C865 C864 1.363 . S
C865 C871 1.363 1_556 S
C866 C867 1.363 . S
C866 C871 1.379 1_545 S
C866 N873 1.356 . S
C867 C866 1.363 . S
C867 C870 1.363 1_554 S
N868 C870 1.356 . S
N868 H880 0.984 . S
N868 H881 0.985 . S
N869 C871 1.356 . S
N869 H874 0.984 . S
N869 H875 0.985 . S
C870 C864 1.379 1_545 S
C870 C867 1.363 1_556 S
C870 N868 1.356 . S
C871 C865 1.363 1_554 S
C871 C866 1.379 1_565 S
C871 N869 1.356 . S
N872 C864 1.356 . S
N872 H878 0.984 . S
N872 H879 0.984 . S
N873 C866 1.356 . S
N873 H876 0.984 . S
N873 H877 0.985 . S
H874 N869 0.984 . S
H875 N869 0.985 . S
H876 N873 0.984 . S
H877 N873 0.985 . S
H878 N872 0.984 . S
H879 N872 0.984 . S
H880 N868 0.984 . S
H881 N868 0.985 . S
C882 C883 1.363 1_556 S
C882 C888 1.379 . S
C882 N890 1.356 . S
C883 C882 1.363 1_554 S
C883 C889 1.363 . S
C884 C885 1.363 1_554 S
C884 C889 1.379 . S
C884 N891 1.356 . S
C885 C884 1.363 1_556 S
C885 C888 1.363 . S
N886 C888 1.356 . S
N886 H898 0.984 . S
N886 H899 0.985 . S
N887 C889 1.356 . S
N887 H892 0.984 . S
N887 H893 0.985 . S
C888 C882 1.379 . S
C888 C885 1.363 . S
C888 N886 1.356 . S
C889 C883 1.363 . S
C889 C884 1.379 . S
C889 N887 1.356 . S
N890 C882 1.356 . S
N890 H896 0.984 . S
N890 H897 0.984 . S
N891 C884 1.356 . S
N891 H894 0.984 . S
N891 H895 0.985 . S
H892 N887 0.984 . S
H893 N887 0.985 . S
H894 N891 0.984 . S
H895 N891 0.985 . S
H896 N890 0.984 . S
H897 N890 0.984 . S
H898 N886 0.984 . S
H899 N886 0.985 . S
C900 C901 1.363 . S
C900 C906 1.379 . S
C900 N908 1.356 . S
C901 C900 1.363 . S
C901 C907 1.363 1_656 S
C902 C903 1.363 . S
C902 C907 1.379 . S
C902 N909 1.356 . S
C903 C902 1.363 . S
C903 C906 1.363 1_454 S
N904 C906 1.356 . S
N904 H916 0.984 . S
N904 H917 0.985 . S
N905 C907 1.356 . S
N905 H910 0.984 . S
N905 H911 0.985 . S
C906 C900 1.379 . S
C906 C903 1.363 1_656 S
C906 N904 1.356 . S
C907 C901 1.363 1_454 S
C907 C902 1.379 . S
C907 N905 1.356 . S
N908 C900 1.356 . S
N908 H914 0.984 . S
N908 H915 0.984 . S
N909 C902 1.356 . S
N909 H912 0.984 . S
N909 H913 0.985 . S
H910 N905 0.984 . S
H911 N905 0.985 . S
H912 N909 0.984 . S
H913 N909 0.985 . S
H914 N908 0.984 . S
H915 N908 0.984 . S
H916 N904 0.984 . S
H917 N904 0.985 . S
C918 C919 1.363 . S
C918 C924 1.379 1_454 S
C918 N926 1.356 . S
C919 C918 1.363 . S
C919 C925 1.363 1_545 S
C920 C921 1.363 . S
C920 C925 1.379 1_656 S
C920 N927 1.356 . S
C921 C920 1.363 . S
C921 C924 1.363 1_565 S
N922 C924 1.356 . S
N922 H934 0.984 . S
N922 H935 0.985 . S
N923 C925 1.356 . S
N923 H928 0.984 . S
N923 H929 0.985 . S
C924 C918 1.379 1_656 S
C924 C921 1.363 1_545 S
C924 N922 1.356 . S
C925 C919 1.363 1_565 S
C925 C920 1.379 1_454 S
C925 N923 1.356 . S
N926 C918 1.356 . S
N926 H932 0.984 . S
N926 H933 0.984 . S
N927 C920 1.356 . S
N927 H930 0.984 . S
N927 H931 0.985 . S
H928 N923 0.984 . S
H929 N923 0.985 . S
H930 N927 0.984 . S
H931 N927 0.985 . S
H932 N926 0.984 . S
H933 N926 0.984 . S
H934 N922 0.984 . S
H935 N922 0.985 . S
C936 C937 1.363 . S
C936 C942 1.379 . S
C936 N944 1.356 . S
C937 C936 1.363 . S
C937 C943 1.363 . S
C938 C939 1.363 . S
C938 C943 1.379 . S
C938 N945 1.356 . S
C939 C938 1.363 . S
C939 C942 1.363 . S
N940 C942 1.356 . S
N940 H952 0.984 . S
N940 H953 0.985 . S
N941 C943 1.356 . S
N941 H946 0.984 . S
N941 H947 0.985 . S
C942 C936 1.379 . S
C942 C939 1.363 . S
C942 N940 1.356 . S
C943 C937 1.363 . S
C943 C938 1.379 . S
C943 N941 1.356 . S
N944 C936 1.356 . S
N944 H950 0.984 . S
N944 H951 0.984 . S
N945 C938 1.356 . S
N945 H948 0.984 . S
N945 H949 0.985 . S
H946 N941 0.984 . S
H947 N941 0.985 . S
H948 N945 0.984 . S
H949 N945 0.985 . S
H950 N944 0.984 . S
H951 N944 0.984 . S
H952 N940 0.984 . S
H953 N940 0.985 . S
C954 C955 1.363 . S
C954 C960 1.379 1_455 S
C954 N962 1.356 . S
C955 C954 1.363 . S
C955 C961 1.363 . S
C956 C957 1.363 . S
C956 C961 1.379 1_655 S
C956 N963 1.356 . S
C957 C956 1.363 . S
C957 C960 1.363 . S
N958 C960 1.356 . S
N958 H970 0.984 . S
N958 H971 0.985 . S
N959 C961 1.356 . S
N959 H964 0.984 . S
N959 H965 0.985 . S
C960 C954 1.379 1_655 S
C960 C957 1.363 . S
C960 N958 1.356 . S
C961 C955 1.363 . S
C961 C956 1.379 1_455 S
C961 N959 1.356 . S
N962 C954 1.356 . S
N962 H968 0.984 . S
N962 H969 0.984 . S
N963 C956 1.356 . S
N963 H966 0.984 . S
N963 H967 0.985 . S
H964 N959 0.984 . S
H965 N959 0.985 . S
H966 N963 0.984 . S
H967 N963 0.985 . S
H968 N962 0.984 . S
H969 N962 0.984 . S
H970 N958 0.984 . S
H971 N958 0.985 . S
C972 C973 1.363 1_455 S
C972 C978 1.379 1_565 S
C972 N980 1.356 . S
C973 C972 1.363 1_655 S
C973 C979 1.363 . S
C974 C975 1.363 1_655 S
C974 C979 1.379 1_545 S
C974 N981 1.356 . S
C975 C974 1.363 1_455 S
C975 C978 1.363 . S
N976 C978 1.356 . S
N976 H988 0.984 . S
N976 H989 0.985 . S
N977 C979 1.356 . S
N977 H982 0.984 . S
N977 H983 0.985 . S
C978 C972 1.379 1_545 S
C978 C975 1.363 . S
C978 N976 1.356 . S
C979 C973 1.363 . S
C979 C974 1.379 1_565 S
C979 N977 1.356 . S
N980 C972 1.356 . S
N980 H986 0.984 . S
N980 H987 0.984 1_455 S
N981 C974 1.356 . S
N981 H984 0.984 1_655 S
N981 H985 0.985 . S
H982 N977 0.984 . S
H983 N977 0.985 . S
H984 N981 0.984 1_455 S
H985 N981 0.985 . S
H986 N980 0.984 . S
H987 N980 0.984 1_655 S
H988 N976 0.984 . S
H989 N976 0.985 . S
C990 C991 1.363 1_545 S
C990 C996 1.379 . S
C990 N998 1.356 . S
C991 C990 1.363 1_565 S
C991 C997 1.363 . S
C992 C993 1.363 1_565 S
C992 C997 1.379 . S
C992 N999 1.356 . S
C993 C992 1.363 1_545 S
C993 C996 1.363 . S
N994 C996 1.356 . S
N994 H1006 0.984 . S
N994 H1007 0.985 . S
N995 C997 1.356 . S
N995 H1000 0.984 . S
N995 H1001 0.985 . S
C996 C990 1.379 . S
C996 C993 1.363 . S
C996 N994 1.356 . S
C997 C991 1.363 . S
C997 C992 1.379 . S
C997 N995 1.356 . S
N998 C990 1.356 . S
N998 H1004 0.984 . S
N998 H1005 0.984 . S
N999 C992 1.356 . S
N999 H1002 0.984 . S
N999 H1003 0.985 . S
H1000 N995 0.984 . S
H1001 N995 0.985 . S
H1002 N999 0.984 . S
H1003 N999 0.985 . S
H1004 N998 0.984 . S
H1005 N998 0.984 . S
H1006 N994 0.984 . S
H1007 N994 0.985 . S
C1008 C1009 1.363 . S
C1008 C1014 1.379 . S
C1008 N1016 1.356 . S
C1009 C1008 1.363 . S
C1009 C1015 1.363 . S
C1010 C1011 1.363 . S
C1010 C1015 1.379 . S
C1010 N1017 1.356 . S
C1011 C1010 1.363 . S
C1011 C1014 1.363 . S
N1012 C1014 1.356 . S
N1012 H1024 0.984 . S
N1012 H1025 0.985 . S
N1013 C1015 1.356 . S
N1013 H1018 0.984 . S
N1013 H1019 0.985 . S
C1014 C1008 1.379 . S
C1014 C1011 1.363 . S
C1014 N1012 1.356 . S
C1015 C1009 1.363 . S
C1015 C1010 1.379 . S
C1015 N1013 1.356 . S
N1016 C1008 1.356 . S
N1016 H1022 0.984 . S
N1016 H1023 0.984 . S
N1017 C1010 1.356 . S
N1017 H1020 0.984 . S
N1017 H1021 0.985 . S
H1018 N1013 0.984 . S
H1019 N1013 0.985 . S
H1020 N1017 0.984 . S
H1021 N1017 0.985 . S
H1022 N1016 0.984 . S
H1023 N1016 0.984 . S
H1024 N1012 0.984 . S
H1025 N1012 0.985 . S
C1026 C1027 1.363 . S
C1026 C1032 1.379 . S
C1026 N1034 1.356 . S
C1027 C1026 1.363 . S
C1027 C1033 1.363 . S
C1028 C1029 1.363 . S
C1028 C1033 1.379 . S
C1028 N1035 1.356 . S
C1029 C1028 1.363 . S
C1029 C1032 1.363 . S
N1030 C1032 1.356 . S
N1030 H1042 0.984 . S
N1030 H1043 0.985 . S
N1031 C1033 1.356 . S
N1031 H1036 0.984 . S
N1031 H1037 0.985 . S
C1032 C1026 1.379 . S
C1032 C1029 1.363 . S
C1032 N1030 1.356 . S
C1033 C1027 1.363 . S
C1033 C1028 1.379 . S
C1033 N1031 1.356 . S
N1034 C1026 1.356 . S
N1034 H1040 0.984 . S
N1034 H1041 0.984 . S
N1035 C1028 1.356 . S
N1035 H1038 0.984 . S
N1035 H1039 0.985 . S
H1036 N1031 0.984 . S
H1037 N1031 0.985 . S
H1038 N1035 0.984 . S
H1039 N1035 0.985 . S
H1040 N1034 0.984 . S
H1041 N1034 0.984 . S
H1042 N1030 0.984 . S
H1043 N1030 0.985 . S
C1044 C1045 1.363 . S
C1044 C1050 1.379 . S
C1044 N1052 1.356 . S
C1045 C1044 1.363 . S
C1045 C1051 1.363 . S
C1046 C1047 1.363 . S
C1046 C1051 1.379 . S
C1046 N1053 1.356 1_655 S
C1047 C1046 1.363 . S
C1047 C1050 1.363 . S
N1048 C1050 1.356 . S
N1048 H1060 0.984 . S
N1048 H1061 0.985 . S
N1049 C1051 1.356 1_455 S
N1049 H1054 0.984 . S
N1049 H1055 0.985 . S
C1050 C1044 1.379 . S
C1050 C1047 1.363 . S
C1050 N1048 1.356 . S
C1051 C1045 1.363 . S
C1051 C1046 1.379 . S
C1051 N1049 1.356 1_655 S
N1052 C1044 1.356 . S
N1052 H1058 0.984 . S
N1052 H1059 0.984 . S
N1053 C1046 1.356 1_455 S
N1053 H1056 0.984 . S
N1053 H1057 0.985 . S
H1054 N1049 0.984 . S
H1055 N1049 0.985 . S
H1056 N1053 0.984 . S
H1057 N1053 0.985 . S
H1058 N1052 0.984 . S
H1059 N1052 0.984 . S
H1060 N1048 0.984 . S
H1061 N1048 0.985 . S
C1062 C1063 1.363 1_545 S
C1062 C1068 1.379 . S
C1062 N1070 1.356 . S
C1063 C1062 1.363 1_565 S
C1063 C1069 1.363 . S
C1064 C1065 1.363 . S
C1064 C1069 1.379 . S
C1064 N1071 1.356 . S
C1065 C1064 1.363 . S
C1065 C1068 1.363 1_565 S
N1066 C1068 1.356 . S
N1066 H1078 0.984 . S
N1066 H1079 0.985 . S
N1067 C1069 1.356 . S
N1067 H1072 0.984 . S
N1067 H1073 0.985 . S
C1068 C1062 1.379 . S
C1068 C1065 1.363 1_545 S
C1068 N1066 1.356 . S
C1069 C1063 1.363 . S
C1069 C1064 1.379 . S
C1069 N1067 1.356 . S
N1070 C1062 1.356 . S
N1070 H1076 0.984 . S
N1070 H1077 0.984 . S
N1071 C1064 1.356 . S
N1071 H1074 0.984 . S
N1071 H1075 0.985 . S
H1072 N1067 0.984 . S
H1073 N1067 0.985 . S
H1074 N1071 0.984 . S
H1075 N1071 0.985 . S
H1076 N1070 0.984 . S
H1077 N1070 0.984 . S
H1078 N1066 0.984 . S
H1079 N1066 0.985 . S
C1080 C1081 1.363 . S
C1080 C1086 1.379 . S
C1080 N1088 1.356 . S
C1081 C1080 1.363 . S
C1081 C1087 1.363 . S
C1082 C1083 1.363 . S
C1082 C1087 1.379 . S
C1082 N1089 1.356 . S
C1083 C1082 1.363 . S
C1083 C1086 1.363 . S
N1084 C1086 1.356 . S
N1084 H1096 0.984 . S
N1084 H1097 0.985 . S
N1085 C1087 1.356 . S
N1085 H1090 0.984 . S
N1085 H1091 0.985 . S
C1086 C1080 1.379 . S
C1086 C1083 1.363 . S
C1086 N1084 1.356 . S
C1087 C1081 1.363 . S
C1087 C1082 1.379 . S
C1087 N1085 1.356 . S
N1088 C1080 1.356 . S
N1088 H1094 0.984 . S
N1088 H1095 0.984 . S
N1089 C1082 1.356 . S
N1089 H1092 0.984 . S
N1089 H1093 0.985 . S
H1090 N1085 0.984 . S
H1091 N1085 0.985 . S
H1092 N1089 0.984 . S
H1093 N1089 0.985 . S
H1094 N1088 0.984 . S
H1095 N1088 0.984 . S
H1096 N1084 0.984 . S
H1097 N1084 0.985 . S
C1098 C1099 1.363 . S
C1098 C1104 1.379 . S
C1098 N1106 1.356 . S
C1099 C1098 1.363 . S
C1099 C1105 1.363 . S
C1100 C1101 1.363 . S
C1100 C1105 1.379 . S
C1100 N1107 1.356 . S
C1101 C1100 1.363 . S
C1101 C1104 1.363 . S
N1102 C1104 1.356 . S
N1102 H1114 0.984 . S
N1102 H1115 0.985 . S
N1103 C1105 1.356 . S
N1103 H1108 0.984 . S
N1103 H1109 0.985 . S
C1104 C1098 1.379 . S
C1104 C1101 1.363 . S
C1104 N1102 1.356 . S
C1105 C1099 1.363 . S
C1105 C1100 1.379 . S
C1105 N1103 1.356 . S
N1106 C1098 1.356 . S
N1106 H1112 0.984 . S
N1106 H1113 0.984 . S
N1107 C1100 1.356 . S
N1107 H1110 0.984 . S
N1107 H1111 0.985 . S
H1108 N1103 0.984 . S
H1109 N1103 0.985 . S
H1110 N1107 0.984 . S
H1111 N1107 0.985 . S
H1112 N1106 0.984 . S
H1113 N1106 0.984 . S
H1114 N1102 0.984 . S
H1115 N1102 0.985 . S
C1116 C1117 1.363 . S
C1116 C1122 1.379 . S
C1116 N1124 1.356 . S
C1117 C1116 1.363 . S
C1117 C1123 1.363 1_455 S
C1118 C1119 1.363 1_655 S
C1118 C1123 1.379 . S
C1118 N1125 1.356 . S
C1119 C1118 1.363 1_455 S
C1119 C1122 1.363 . S
N1120 C1122 1.356 . S
N1120 H1132 0.984 . S
N1120 H1133 0.985 . S
N1121 C1123 1.356 . S
N1121 H1126 0.984 . S
N1121 H1127 0.985 . S
C1122 C1116 1.379 . S
C1122 C1119 1.363 . S
C1122 N1120 1.356 . S
C1123 C1117 1.363 1_655 S
C1123 C1118 1.379 . S
C1123 N1121 1.356 . S
N1124 C1116 1.356 . S
N1124 H1130 0.984 . S
N1124 H1131 0.984 . S
N1125 C1118 1.356 . S
N1125 H1128 0.984 . S
N1125 H1129 0.985 . S
H1126 N1121 0.984 . S
H1127 N1121 0.985 . S
H1128 N1125 0.984 . S
H1129 N1125 0.985 . S
H1130 N1124 0.984 . S
H1131 N1124 0.984 . S
H1132 N1120 0.984 . S
H1133 N1120 0.985 . S
C1134 C1135 1.363 . S
C1134 C1140 1.379 . S
C1134 N1142 1.356 . S
C1135 C1134 1.363 . S
C1135 C1141 1.363 1_545 S
C1136 C1137 1.363 1_565 S
C1136 C1141 1.379 . S
C1136 N1143 1.356 . S
C1137 C1136 1.363 1_545 S
C1137 C1140 1.363 . S
N1138 C1140 1.356 . S
N1138 H1150 0.984 . S
N1138 H1151 0.985 . S
N1139 C1141 1.356 . S
N1139 H1144 0.984 . S
N1139 H1145 0.985 . S
C1140 C1134 1.379 . S
C1140 C1137 1.363 . S
C1140 N1138 1.356 . S
C1141 C1135 1.363 1_565 S
C1141 C1136 1.379 . S
C1141 N1139 1.356 . S
N1142 C1134 1.356 . S
N1142 H1148 0.984 . S
N1142 H1149 0.984 . S
N1143 C1136 1.356 . S
N1143 H1146 0.984 . S
N1143 H1147 0.985 . S
H1144 N1139 0.984 . S
H1145 N1139 0.985 . S
H1146 N1143 0.984 . S
H1147 N1143 0.985 . S
H1148 N1142 0.984 . S
H1149 N1142 0.984 . S
H1150 N1138 0.984 . S
H1151 N1138 0.985 . S
C577 C4 0.994 1_556 S
C579 C326 1.073 . S
C595 C362 1.073 . S
C597 C40 0.993 1_556 S
C613 C398 1.073 . S
C615 C76 0.994 1_556 S
C631 C290 1.073 . S
C633 C112 0.993 1_556 S
C649 C148 0.993 . S
C651 C542 1.073 . S
C667 C434 1.073 . S
C669 C184 0.994 . S
C685 C470 1.073 . S
C687 C220 0.993 . S
C703 C506 1.073 . S
C705 C256 0.993 . S
C721 C292 0.994 1_554 S
C723 C38 1.073 . S
C739 C328 0.993 1_554 S
C741 C74 1.073 . S
C757 C364 0.994 1_554 S
C759 C110 1.073 . S
C775 C2 1.073 . S
C777 C400 0.993 1_554 S
C793 C436 0.993 . S
C795 C254 1.073 . S
C811 C472 0.994 . S
C813 C146 1.073 . S
C829 C182 1.073 . S
C831 C508 0.993 . S
C847 C544 0.993 . S
C849 C218 1.073 . S
C865 C291 1.886 . S
C867 C3 1.886 . S
C883 C39 1.886 . S
C885 C327 1.886 . S
C901 C363 1.886 . S
C903 C75 1.886 . S
C919 C111 1.886 . S
C921 C399 1.886 . S
C937 C435 1.886 . S
C939 C147 1.886 . S
C955 C183 1.886 . S
C957 C471 1.886 . S
C973 C507 1.886 . S
C975 C219 1.886 . S
C991 C543 1.886 . S
C993 C255 1.886 . S
C1009 C158 1.531 . S
C1011 C14 1.531 . S
C1027 C194 1.531 . S
C1029 C50 1.531 . S
C1045 C86 1.532 . S
C1047 C230 1.532 . S
C1063 C266 1.532 . S
C1065 C122 1.532 . S
C1081 C302 1.531 . S
C1083 C446 1.531 . S
C1099 C482 1.531 . S
C1101 C338 1.531 . S
C1117 C518 1.532 . S
C1119 C374 1.532 . S
C1135 C554 1.532 . S
C1137 C410 1.532 . S
