# Generated by pormake.
# Topology wfe, (8)-cn, num edge types: 1
# Building blocks:
#     Node 0, Type 0, BuildingBlock: TAGTUT_clean_sbu_1, # of connection points: 8
#     Node 1, Type 0, BuildingBlock: TAGTUT_clean_sbu_1, # of connection points: 8
#     Node 2, Type 0, BuildingBlock: TAGTUT_clean_sbu_1, # of connection points: 8
#     Node 3, Type 0, BuildingBlock: TAGTUT_clean_sbu_1, # of connection points: 8
#     Node 4, Type 0, BuildingBlock: TAGTUT_clean_sbu_1, # of connection points: 8
#     Node 5, Type 0, BuildingBlock: TAGTUT_clean_sbu_1, # of connection points: 8
#     Node 6, Type 0, BuildingBlock: TAGTUT_clean_sbu_1, # of connection points: 8
#     Node 7, Type 0, BuildingBlock: TAGTUT_clean_sbu_1, # of connection points: 8
#     Edge 8, Type (0, 0), BuildingBlock: XUDNAN_clean_linker_2, # of connection points: 2
#     Edge 9, Type (0, 0), BuildingBlock: XUDNAN_clean_linker_2, # of connection points: 2
#     Edge 10, Type (0, 0), BuildingBlock: XUDNAN_clean_linker_2, # of connection points: 2
#     Edge 11, Type (0, 0), BuildingBlock: XUDNAN_clean_linker_2, # of connection points: 2
#     Edge 12, Type (0, 0), BuildingBlock: XUDNAN_clean_linker_2, # of connection points: 2
#     Edge 13, Type (0, 0), BuildingBlock: XUDNAN_clean_linker_2, # of connection points: 2
#     Edge 14, Type (0, 0), BuildingBlock: XUDNAN_clean_linker_2, # of connection points: 2
#     Edge 15, Type (0, 0), BuildingBlock: XUDNAN_clean_linker_2, # of connection points: 2
#     Edge 16, Type (0, 0), BuildingBlock: XUDNAN_clean_linker_2, # of connection points: 2
#     Edge 17, Type (0, 0), BuildingBlock: XUDNAN_clean_linker_2, # of connection points: 2
#     Edge 18, Type (0, 0), BuildingBlock: XUDNAN_clean_linker_2, # of connection points: 2
#     Edge 19, Type (0, 0), BuildingBlock: XUDNAN_clean_linker_2, # of connection points: 2
#     Edge 20, Type (0, 0), BuildingBlock: XUDNAN_clean_linker_2, # of connection points: 2
#     Edge 21, Type (0, 0), BuildingBlock: XUDNAN_clean_linker_2, # of connection points: 2
#     Edge 22, Type (0, 0), BuildingBlock: XUDNAN_clean_linker_2, # of connection points: 2
#     Edge 23, Type (0, 0), BuildingBlock: XUDNAN_clean_linker_2, # of connection points: 2
#     Edge 24, Type (0, 0), BuildingBlock: XUDNAN_clean_linker_2, # of connection points: 2
#     Edge 25, Type (0, 0), BuildingBlock: XUDNAN_clean_linker_2, # of connection points: 2
#     Edge 26, Type (0, 0), BuildingBlock: XUDNAN_clean_linker_2, # of connection points: 2
#     Edge 27, Type (0, 0), BuildingBlock: XUDNAN_clean_linker_2, # of connection points: 2
#     Edge 28, Type (0, 0), BuildingBlock: XUDNAN_clean_linker_2, # of connection points: 2
#     Edge 29, Type (0, 0), BuildingBlock: XUDNAN_clean_linker_2, # of connection points: 2
#     Edge 30, Type (0, 0), BuildingBlock: XUDNAN_clean_linker_2, # of connection points: 2
#     Edge 31, Type (0, 0), BuildingBlock: XUDNAN_clean_linker_2, # of connection points: 2
#     Edge 32, Type (0, 0), BuildingBlock: XUDNAN_clean_linker_2, # of connection points: 2
#     Edge 33, Type (0, 0), BuildingBlock: XUDNAN_clean_linker_2, # of connection points: 2
#     Edge 34, Type (0, 0), BuildingBlock: XUDNAN_clean_linker_2, # of connection points: 2
#     Edge 35, Type (0, 0), BuildingBlock: XUDNAN_clean_linker_2, # of connection points: 2
#     Edge 36, Type (0, 0), BuildingBlock: XUDNAN_clean_linker_2, # of connection points: 2
#     Edge 37, Type (0, 0), BuildingBlock: XUDNAN_clean_linker_2, # of connection points: 2
#     Edge 38, Type (0, 0), BuildingBlock: XUDNAN_clean_linker_2, # of connection points: 2
#     Edge 39, Type (0, 0), BuildingBlock: XUDNAN_clean_linker_2, # of connection points: 2
# Relax obj value: 0.277
# Max RMSD: 0.306
# Mean RMSD: 0.306
data_MOF--net-wfe--node1-TAGTUT_clean_sbu_1--edge1-XUDNAN_clean_linker_2
_symmetry_space_group_name_H-M    P1
_symmetry_Int_Tables_number       1
_symmetry_cell_setting            triclinic
loop_
_symmetry_equiv_pos_as_xyz
'x, y, z'
_cell_length_a     37.628709
_cell_length_b     37.45696
_cell_length_c     24.532154
_cell_angle_alpha  89.763169
_cell_angle_beta   89.871847
_cell_angle_gamma 90.336633
loop_
_atom_site_label
_atom_site_type_symbol
_atom_site_fract_x
_atom_site_fract_y
_atom_site_fract_z
_atom_type_partial_charge
C0 C 0.49727 0.38893 0.10565 0.0
C1 C 0.4569 0.32926 0.23069 0.0
C2 C 0.60326 0.32197 0.30149 0.0
Mg3 Mg 0.49455 0.30673 0.12377 0.0
O4 O 0.53718 0.31688 0.16054 0.0
Mg5 Mg 0.54278 0.35622 0.21483 0.0
Mg6 Mg 0.56195 0.27891 0.19933 0.0
O7 O 0.58721 0.23945 0.2364 0.0
Mg8 Mg 0.63468 0.24993 0.25132 0.0
Mg9 Mg 0.58055 0.20036 0.17949 0.0
C10 C 0.53675 0.23882 0.07903 0.0
C11 C 0.50291 0.21822 0.23255 0.0
O12 O 0.51548 0.39252 0.14965 0.0
O13 O 0.48835 0.35832 0.08666 0.0
O14 O 0.48574 0.34483 0.24617 0.0
O15 O 0.45564 0.3086 0.1891 0.0
O16 O 0.51044 0.26013 0.07116 0.0
O17 O 0.55592 0.24214 0.12227 0.0
C18 C 0.61486 0.33953 0.15096 0.0
O19 O 0.61001 0.3061 0.16041 0.0
O20 O 0.59581 0.36342 0.17388 0.0
O21 O 0.60546 0.16368 0.24434 0.0
O22 O 0.64509 0.19903 0.2879 0.0
O23 O 0.63531 0.20777 0.13993 0.0
C24 C 0.62979 0.16881 0.28009 0.0
O25 O 0.66166 0.25537 0.17572 0.0
O26 O 0.62823 0.29897 0.29692 0.0
C27 C 0.65894 0.23214 0.13843 0.0
O28 O 0.57299 0.31755 0.27579 0.0
O29 O 0.5103 0.2518 0.23351 0.0
O30 O 0.52527 0.19513 0.21549 0.0
C31 C 0.62425 0.00547 0.598 0.0
C32 C 0.68108 0.9605 0.72892 0.0
C33 C 0.67287 0.10783 0.80271 0.0
Mg34 Mg 0.7047 1.00352 0.6232 0.0
O35 O 0.69405 0.04053 0.67122 0.0
Mg36 Mg 0.65 0.04475 0.71556 0.0
Mg37 Mg 0.72697 0.06864 0.7155 0.0
O38 O 0.76004 0.09966 0.75718 0.0
Mg39 Mg 0.74346 0.14679 0.75699 0.0
Mg40 Mg 0.80469 0.09419 0.71119 0.0
C41 C 0.7752 0.0511 0.60036 0.0
C42 C 0.7871 0.01748 0.76987 0.0
O43 O 0.61926 0.01834 0.64564 0.0
O44 O 0.65539 1.00037 0.57834 0.0
O45 O 0.66353 0.98745 0.74732 0.0
O46 O 0.69923 0.96144 0.68432 0.0
O47 O 0.753 0.02788 0.58144 0.0
O48 O 0.77133 0.063 0.6491 0.0
C49 C 0.66911 0.11464 0.6499 0.0
O50 O 0.70055 0.1136 0.66974 0.0
O51 O 0.64334 0.09747 0.67203 0.0
O52 O 0.82998 0.12786 0.78066 0.0
O53 O 0.78675 0.16655 0.80418 0.0
O54 O 0.79845 0.14311 0.65608 0.0
C55 C 0.8181 0.15389 0.80942 0.0
O56 O 0.74571 0.16664 0.67466 0.0
O57 O 0.69232 0.13586 0.79612 0.0
C58 C 0.77241 0.16292 0.64331 0.0
O59 O 0.68196 0.07714 0.78197 0.0
O60 O 0.75395 0.02033 0.7581 0.0
O61 O 0.80946 0.04244 0.75878 0.0
C62 C 0.96829 0.12412 0.09905 0.0
C63 C 0.03759 0.17286 0.21063 0.0
C64 C 0.91793 0.19323 0.3417 0.0
Mg65 Mg 0.98704 0.20392 0.1205 0.0
O66 O 0.95202 0.19779 0.17439 0.0
Mg67 Mg 0.94951 0.15589 0.22539 0.0
Mg68 Mg 0.94142 0.23662 0.2255 0.0
O69 O 0.93098 0.27668 0.2754 0.0
Mg70 Mg 0.89278 0.27328 0.32364 0.0
Mg71 Mg 0.92895 0.31685 0.21919 0.0
C72 C 0.94516 0.27772 0.10049 0.0
C73 C 0.01056 0.29014 0.23267 0.0
O74 O 0.95863 0.12005 0.14901 0.0
O75 O 0.97799 0.15439 0.07939 0.0
O76 O 0.01002 0.15909 0.23362 0.0
O77 O 0.03536 0.19347 0.16859 0.0
O78 O 0.96512 0.25352 0.07927 0.0
O79 O 0.93716 0.27576 0.15159 0.0
C80 C 0.87618 0.18787 0.19116 0.0
O81 O 0.88466 0.21773 0.21315 0.0
O82 O 0.89073 0.15881 0.20702 0.0
O83 O 0.92379 0.35549 0.29247 0.0
O84 O 0.90257 0.32225 0.36251 0.0
O85 O 0.86857 0.31096 0.20786 0.0
C86 C 0.91484 0.35142 0.34256 0.0
O87 O 0.84777 0.27534 0.27374 0.0
O88 O 0.90057 0.22058 0.35791 0.0
C89 C 0.84392 0.29169 0.22871 0.0
O90 O 0.93898 0.19495 0.2992 0.0
O91 O 1.00041 0.25716 0.23523 0.0
O92 O 0.98845 0.31582 0.22729 0.0
C93 C 0.89143 0.4927 0.63243 0.0
C94 C 0.81648 0.5511 0.72303 0.0
C95 C 0.80605 0.40679 0.82259 0.0
Mg96 Mg 0.80963 0.49929 0.62143 0.0
O97 O 0.80958 0.46637 0.6797 0.0
Mg98 Mg 0.84347 0.46547 0.74204 0.0
Mg99 Mg 0.76961 0.44116 0.71273 0.0
O100 O 0.72931 0.41301 0.74299 0.0
Mg101 Mg 0.74306 0.36591 0.75728 0.0
Mg102 Mg 0.6951 0.41729 0.67842 0.0
C103 C 0.74066 0.45517 0.5806 0.0
C104 C 0.70425 0.49574 0.73433 0.0
O105 O 0.88618 0.48499 0.68269 0.0
O106 O 0.86574 0.49619 0.59846 0.0
O107 O 0.8277 0.52535 0.75366 0.0
O108 O 0.8068 0.54637 0.67321 0.0
O109 O 0.76583 0.4769 0.56641 0.0
O110 O 0.73892 0.44406 0.63007 0.0
C111 C 0.83693 0.38969 0.68846 0.0
O112 O 0.80321 0.39427 0.68487 0.0
O113 O 0.85629 0.40937 0.71881 0.0
O114 O 0.6565 0.38854 0.73645 0.0
O115 O 0.69094 0.35107 0.78525 0.0
O116 O 0.71016 0.36615 0.63441 0.0
C117 C 0.66071 0.36505 0.77415 0.0
O118 O 0.75592 0.3434 0.67963 0.0
O119 O 0.7876 0.37848 0.81261 0.0
C120 C 0.73766 0.34663 0.6363 0.0
O121 O 0.80044 0.43668 0.7964 0.0
O122 O 0.73791 0.49105 0.73829 0.0
O123 O 0.68352 0.47154 0.71537 0.0
C124 C 0.42693 0.86043 0.70188 0.0
C125 C 0.34773 0.80668 0.80565 0.0
C126 C 0.44677 0.7769 0.94267 0.0
Mg127 Mg 0.39924 0.78432 0.71499 0.0
O128 O 0.43359 0.78254 0.76886 0.0
Mg129 Mg 0.43426 0.8215 0.82549 0.0
Mg130 Mg 0.4398 0.74043 0.81651 0.0
O131 O 0.44649 0.69898 0.86512 0.0
Mg132 Mg 0.4803 0.69892 0.92171 0.0
Mg133 Mg 0.44321 0.66052 0.80875 0.0
C134 C 0.41604 0.70272 0.69627 0.0
C135 C 0.36769 0.69434 0.83842 0.0
O136 O 0.43208 0.863 0.75348 0.0
O137 O 0.41617 0.83191 0.67863 0.0
O138 O 0.37333 0.81934 0.83389 0.0
O139 O 0.35255 0.79351 0.75854 0.0
O140 O 0.40157 0.73159 0.67944 0.0
O141 O 0.43609 0.70231 0.73957 0.0
C142 C 0.51309 0.78824 0.81076 0.0
O143 O 0.50004 0.75635 0.8078 0.0
O144 O 0.49371 0.81597 0.81716 0.0
O145 O 0.44723 0.62124 0.88074 0.0
O146 O 0.46739 0.64708 0.95736 0.0
O147 O 0.50441 0.66109 0.80341 0.0
C148 C 0.4553 0.61991 0.93147 0.0
O149 O 0.52868 0.69041 0.87428 0.0
O150 O 0.46301 0.74973 0.96327 0.0
C151 C 0.53161 0.67285 0.82958 0.0
O152 O 0.43913 0.77751 0.89148 0.0
O153 O 0.38114 0.72578 0.83216 0.0
O154 O 0.38438 0.66625 0.82353 0.0
C155 C 0.17457 0.85226 0.25267 0.0
C156 C 0.24166 0.84101 0.40618 0.0
C157 C 0.23974 0.94655 0.45801 0.0
Mg158 Mg 0.25355 0.85873 0.28599 0.0
O159 O 0.23602 0.90495 0.29542 0.0
Mg160 Mg 0.19781 0.90794 0.35358 0.0
Mg161 Mg 0.27287 0.93572 0.32878 0.0
O162 O 0.31025 0.96344 0.36299 0.0
Mg163 Mg 0.31058 0.99276 0.42485 0.0
Mg164 Mg 0.3485 0.96031 0.30636 0.0
C165 C 0.31535 0.90294 0.22394 0.0
C166 C 0.34056 0.88628 0.36238 0.0
O167 O 0.16588 0.87607 0.28809 0.0
O168 O 0.20593 0.83923 0.24979 0.0
O169 O 0.21266 0.85811 0.4022 0.0
O170 O 0.26296 0.83829 0.3661 0.0
O171 O 0.29888 0.87355 0.23467 0.0
O172 O 0.3076 0.93267 0.24852 0.0
C173 C 0.20618 0.9866 0.29622 0.0
O174 O 0.24013 0.98359 0.29691 0.0
O175 O 0.18567 0.9614 0.31309 0.0
O176 O 0.38917 0.97638 0.3699 0.0
O177 O 0.36504 0.9845 0.4526 0.0
O178 O 0.3357 0.02057 0.29522 0.0
C179 C 0.39209 0.9807 0.42133 0.0
O180 O 0.31382 0.04168 0.37507 0.0
O181 O 0.2649 0.9676 0.47426 0.0
C182 C 0.32539 0.04651 0.32593 0.0
O183 O 0.23792 0.93771 0.40752 0.0
O184 O 0.30696 0.89127 0.36584 0.0
O185 O 0.35931 0.90364 0.32808 0.0
C186 C 0.11239 0.65433 0.76059 0.0
C187 C 0.14572 0.70567 0.90273 0.0
C188 C 0.03902 0.73788 0.96551 0.0
Mg189 Mg 0.12569 0.73429 0.7941 0.0
O190 O 0.077 0.72807 0.80109 0.0
Mg191 Mg 0.06579 0.6896 0.85871 0.0
Mg192 Mg 0.05819 0.77133 0.83819 0.0
O193 O 0.04087 0.81313 0.87727 0.0
Mg194 Mg 0.00305 0.81155 0.92741 0.0
Mg195 Mg 0.04607 0.84825 0.8165 0.0
C196 C 0.10202 0.80766 0.73592 0.0
C197 C 0.11916 0.82948 0.87312 0.0
O198 O 0.08516 0.65109 0.79205 0.0
O199 O 0.13185 0.68256 0.75803 0.0
O200 O 0.12069 0.68353 0.89589 0.0
O201 O 0.14651 0.73462 0.87547 0.0
O202 O 0.12583 0.78395 0.74573 0.0
O203 O 0.07057 0.80552 0.75868 0.0
C204 C 0.99051 0.71876 0.81125 0.0
O205 O 0.00202 0.75111 0.80968 0.0
O206 O 0.01028 0.69296 0.82622 0.0
O207 O 0.02663 0.88959 0.87772 0.0
O208 O 0.00479 0.86668 0.95572 0.0
O209 O 0.98617 0.83952 0.79776 0.0
C210 C 0.01329 0.89344 0.92539 0.0
O211 O 0.95926 0.81264 0.86971 0.0
O212 O 0.02047 0.76502 0.98052 0.0
C213 C 0.95816 0.8281 0.82287 0.0
O214 O 0.05018 0.73581 0.91607 0.0
O215 O 0.11051 0.79606 0.8717 0.0
O216 O 0.1019 0.85301 0.84621 0.0
C217 C 0.31417 0.64919 0.21473 0.0
C218 C 0.27409 0.66555 0.38825 0.0
C219 C 0.27475 0.5571 0.44146 0.0
Mg220 Mg 0.24262 0.64795 0.27708 0.0
O221 O 0.25799 0.60049 0.28118 0.0
Mg222 Mg 0.30381 0.5957 0.32386 0.0
Mg223 Mg 0.22559 0.57099 0.32716 0.0
O224 O 0.1931 0.54438 0.37485 0.0
Mg225 Mg 0.20458 0.50803 0.4239 0.0
Mg226 Mg 0.14888 0.54705 0.3307 0.0
C227 C 0.17052 0.60795 0.24072 0.0
C228 C 0.16756 0.61869 0.39024 0.0
O229 O 0.32644 0.62491 0.24685 0.0
O230 O 0.28423 0.66441 0.22266 0.0
O231 O 0.30052 0.6467 0.37428 0.0
O232 O 0.24684 0.66864 0.35804 0.0
O233 O 0.18991 0.63621 0.2447 0.0
O234 O 0.18034 0.57749 0.26158 0.0
C235 C 0.28397 0.51742 0.27392 0.0
O236 O 0.25114 0.52097 0.2872 0.0
O237 O 0.30665 0.54244 0.28171 0.0
O238 O 0.11862 0.52307 0.40387 0.0
O239 O 0.15578 0.50663 0.47077 0.0
O240 O 0.16213 0.48901 0.3038 0.0
C241 C 0.12435 0.51159 0.4523 0.0
O242 O 0.1995 0.46437 0.36538 0.0
O243 O 0.25271 0.53429 0.46232 0.0
C244 C 0.18022 0.46236 0.32211 0.0
O245 O 0.27112 0.56735 0.39168 0.0
O246 O 0.1995 0.61717 0.37184 0.0
O247 O 0.14218 0.60165 0.36726 0.0
H248 H 0.58482 0.14882 0.35916 0.0
H249 H 0.69088 0.13287 0.29586 0.0
H250 H 0.70928 0.10727 0.38394 0.0
H251 H 0.6082 0.18478 0.47153 0.0
H252 H 0.57616 0.1661 0.51853 0.0
H253 H 0.56564 0.16913 0.44734 0.0
H254 H 0.55325 0.10113 0.44254 0.0
H255 H 0.56213 0.09791 0.5146 0.0
H256 H 0.58608 0.07023 0.46739 0.0
H257 H 0.72028 0.10093 0.47951 0.0
H258 H 0.72348 0.10488 0.57859 0.0
H259 H 0.61063 0.12862 0.58553 0.0
C260 C 0.61107 0.13738 0.3631 0.0
C261 C 0.63631 0.14146 0.32096 0.0
C262 C 0.67116 0.12867 0.32754 0.0
C263 C 0.68176 0.11432 0.37747 0.0
C264 C 0.6571 0.11337 0.42 0.0
C265 C 0.62214 0.12368 0.41327 0.0
C266 C 0.60313 0.12642 0.46785 0.0
C267 C 0.58739 0.16383 0.47677 0.0
C268 C 0.57446 0.09718 0.47341 0.0
C269 C 0.63376 0.11946 0.50614 0.0
C270 C 0.66416 0.11098 0.47742 0.0
C271 C 0.69663 0.10642 0.50279 0.0
C272 C 0.69812 0.10945 0.5592 0.0
C273 C 0.66739 0.11801 0.59007 0.0
C274 C 0.63467 0.12278 0.563 0.0
H275 H 0.83906 0.11155 0.89253 0.0
H276 H 0.83376 0.22167 0.83864 0.0
H277 H 0.84773 0.2413 0.93239 0.0
H278 H 0.79456 0.12799 1.01469 0.0
H279 H 0.8185 0.09606 0.05546 0.0
H280 H 0.81362 0.08909 0.98328 0.0
H281 H 0.88182 0.08493 0.9723 0.0
H282 H 0.88753 0.09179 0.04447 0.0
H283 H 0.90936 0.12108 0.99621 0.0
H284 H 0.86436 0.2503 0.02754 0.0
H285 H 0.87331 0.24742 0.1261 0.0
H286 H 0.86073 0.13197 0.12208 0.0
C287 C 0.8433 0.13977 0.89973 0.0
C288 C 0.83734 0.16518 0.85807 0.0
C289 C 0.84011 0.20198 0.86954 0.0
C290 C 0.84812 0.21344 0.92223 0.0
C291 C 0.8534 0.18796 0.96256 0.0
C292 C 0.85072 0.15186 0.95238 0.0
C293 C 0.85249 0.13047 1.00491 0.0
C294 C 0.81772 0.10968 1.01516 0.0
C295 C 0.88472 0.10553 1.00449 0.0
C296 C 0.85712 0.16035 0.04581 0.0
C297 C 0.85797 0.19319 0.02013 0.0
C298 C 0.86335 0.22478 0.04836 0.0
C299 C 0.8682 0.22279 0.10463 0.0
C300 C 0.86673 0.18952 0.13259 0.0
C301 C 0.86104 0.1579 0.1024 0.0
H302 H 0.86562 0.39733 0.37441 0.0
H303 H 0.97367 0.36402 0.40194 0.0
H304 H 0.96616 0.37299 0.50067 0.0
H305 H 0.85677 0.45846 0.50239 0.0
H306 H 0.81181 0.44264 0.51098 0.0
H307 H 0.8299 0.44851 0.44356 0.0
H308 H 0.81316 0.38336 0.42221 0.0
H309 H 0.79644 0.37601 0.49 0.0
H310 H 0.83085 0.34774 0.46329 0.0
H311 H 0.94095 0.36651 0.5952 0.0
H312 H 0.9044 0.36268 0.67928 0.0
H313 H 0.81162 0.39389 0.58604 0.0
C314 C 0.8885 0.39516 0.40095 0.0
C315 C 0.91998 0.37997 0.38152 0.0
C316 C 0.94942 0.37615 0.41668 0.0
C317 C 0.94509 0.38041 0.47296 0.0
C318 C 0.91154 0.38956 0.49217 0.0
C319 C 0.88409 0.39837 0.45704 0.0
C320 C 0.84917 0.40129 0.48688 0.0
C321 C 0.83617 0.44007 0.48593 0.0
C322 C 0.82077 0.37555 0.46425 0.0
C323 C 0.86067 0.39013 0.54307 0.0
C324 C 0.89671 0.38403 0.5459 0.0
C325 C 0.91277 0.37202 0.59372 0.0
C326 C 0.89172 0.36896 0.64085 0.0
C327 C 0.85507 0.37734 0.63913 0.0
C328 C 0.83935 0.38647 0.58888 0.0
H329 H 0.63072 0.29509 0.06639 0.0
H330 H 0.62893 0.40697 0.11247 0.0
H331 H 0.62695 0.42387 1.01534 0.0
H332 H 0.69119 0.31128 0.94805 0.0
H333 H 0.67083 0.2761 0.90872 0.0
H334 H 0.67266 0.27253 0.98134 0.0
H335 H 0.60499 0.26388 0.98657 0.0
H336 H 0.60192 0.26742 0.91358 0.0
H337 H 0.57607 0.29655 0.95639 0.0
H338 H 0.61681 0.42786 0.91451 0.0
H339 H 0.62627 0.42169 0.81589 0.0
H340 H 0.64123 0.3078 0.8362 0.0
C341 C 0.63223 0.32325 0.05658 0.0
C342 C 0.63006 0.34964 0.09752 0.0
C343 C 0.63063 0.38618 0.08202 0.0
C344 C 0.62883 0.39605 0.02697 0.0
C345 C 0.62785 0.36909 0.98811 0.0
C346 C 0.63185 0.33363 1.00201 0.0
C347 C 0.63284 0.31008 0.9521 0.0
C348 C 0.66905 0.29149 0.94722 0.0
C349 C 0.60209 0.2829 0.95214 0.0
C350 C 0.62815 0.33781 0.90797 0.0
C351 C 0.62412 0.37154 0.92974 0.0
C352 C 0.62045 0.40166 0.89698 0.0
C353 C 0.62508 0.39772 0.84074 0.0
C354 C 0.63492 0.36424 0.81887 0.0
C355 C 0.6334 0.33353 0.85208 0.0
H356 H 0.37453 0.90422 0.67593 0.0
H357 H 0.48445 0.88043 0.64227 0.0
H358 H 0.47366 0.88772 0.54392 0.0
H359 H 0.34399 0.84847 0.591 0.0
H360 H 0.30564 0.87155 0.56521 0.0
H361 H 0.32233 0.88179 0.63191 0.0
H362 H 0.32939 0.94745 0.60849 0.0
H363 H 0.31233 0.94028 0.54089 0.0
H364 H 0.35507 0.96144 0.55032 0.0
H365 H 0.44682 0.87451 0.45344 0.0
H366 H 0.40944 0.86441 0.37221 0.0
H367 H 0.31572 0.89168 0.46651 0.0
C368 C 0.3969 0.90389 0.64803 0.0
C369 C 0.43 0.89119 0.66586 0.0
C370 C 0.45882 0.89013 0.62889 0.0
C371 C 0.45264 0.89328 0.57279 0.0
C372 C 0.41778 0.89852 0.55556 0.0
C373 C 0.39052 0.90524 0.5921 0.0
C374 C 0.3546 0.90364 0.56458 0.0
C375 C 0.33026 0.87465 0.58972 0.0
C376 C 0.33679 0.9404 0.56601 0.0
C377 C 0.36579 0.89339 0.50769 0.0
C378 C 0.40223 0.89041 0.50326 0.0
C379 C 0.41832 0.87791 0.4559 0.0
C380 C 0.39681 0.87131 0.41044 0.0
C381 C 0.35966 0.87722 0.41284 0.0
C382 C 0.34397 0.88668 0.46307 0.0
H383 H 0.17735 0.79863 0.17724 0.0
H384 H 0.12646 0.8998 0.21234 0.0
H385 H 0.11393 0.90787 0.1146 0.0
H386 H 0.22061 0.82704 0.06321 0.0
H387 H 0.21539 0.78884 0.02013 0.0
H388 H 0.21673 0.78319 0.09321 0.0
H389 H 0.16024 0.75045 0.09257 0.0
H390 H 0.14858 0.75549 0.02214 0.0
H391 H 0.11889 0.77155 0.07317 0.0
H392 H 0.11796 0.91049 1.01238 0.0
H393 H 0.11571 0.89702 0.915 0.0
H394 H 0.16096 0.79247 0.94602 0.0
C395 C 0.16212 0.82172 0.1648 0.0
C396 C 0.15317 0.84873 0.20257 0.0
C397 C 0.13344 0.87862 0.18444 0.0
C398 C 0.12688 0.88385 0.12876 0.0
C399 C 0.13958 0.85858 0.09218 0.0
C400 C 0.15534 0.82738 0.1095 0.0
C401 C 0.16659 0.80467 0.0616 0.0
C402 C 0.20723 0.80061 0.05956 0.0
C403 C 0.14743 0.76839 0.06258 0.0
C404 C 0.15401 0.82748 1.01479 0.0
C405 C 0.13983 0.85912 0.03329 0.0
C406 C 0.12804 0.88531 0.99761 0.0
C407 C 0.12745 0.87742 0.94196 0.0
C408 C 0.13695 0.84288 0.92284 0.0
C409 C 0.15284 0.8187 0.95939 0.0
H410 H 0.07049 0.64199 0.67472 0.0
H411 H 0.17097 0.61411 0.74822 0.0
H412 H 0.19366 0.59503 0.65881 0.0
H413 H 0.07329 0.57348 0.55492 0.0
H414 H 0.05435 0.60622 0.50986 0.0
H415 H 0.0415 0.60493 0.58073 0.0
H416 H 0.05916 0.67154 0.58885 0.0
H417 H 0.07375 0.67295 0.51913 0.0
H418 H 0.10404 0.68523 0.5728 0.0
H419 H 0.21062 0.59597 0.56363 0.0
H420 H 0.21875 0.60491 0.46549 0.0
H421 H 0.10794 0.63512 0.45003 0.0
C422 C 0.09616 0.62913 0.67228 0.0
C423 C 0.11875 0.62822 0.718 0.0
C424 C 0.1531 0.61366 0.71364 0.0
C425 C 0.16624 0.60315 0.66293 0.0
C426 C 0.14453 0.60756 0.61746 0.0
C427 C 0.10981 0.61924 0.62157 0.0
C428 C 0.09444 0.62756 0.56577 0.0
C429 C 0.06409 0.6015 0.55199 0.0
C430 C 0.08215 0.66663 0.56146 0.0
C431 C 0.12667 0.62105 0.53034 0.0
C432 C 0.15497 0.60912 0.56105 0.0
C433 C 0.18848 0.60427 0.53872 0.0
C434 C 0.1929 0.61014 0.48299 0.0
C435 C 0.16409 0.62137 0.44997 0.0
C436 C 0.13056 0.62707 0.47428 0.0
H437 H 0.34136 0.70548 0.15472 0.0
H438 H 0.31009 0.59414 0.1462 0.0
H439 H 0.30902 0.59776 0.04573 0.0
H440 H 0.29482 0.74145 0.04222 0.0
H441 H 0.33215 0.76923 0.02202 0.0
H442 H 0.32682 0.7553 0.09176 0.0
H443 H 0.39227 0.7292 0.08413 0.0
H444 H 0.39347 0.74265 1.01359 0.0
H445 H 0.40129 0.69684 0.03199 0.0
H446 H 0.3076 0.61437 0.94715 0.0
H447 H 0.32444 0.63658 0.85608 0.0
H448 H 0.35911 0.73663 0.92758 0.0
C449 C 0.33541 0.68169 0.13144 0.0
C450 C 0.32615 0.64947 0.15783 0.0
C451 C 0.31806 0.61886 0.12641 0.0
C452 C 0.31662 0.62086 0.06945 0.0
C453 C 0.32409 0.6535 0.04457 0.0
C454 C 0.33506 0.68281 0.07428 0.0
C455 C 0.3455 0.71336 0.03701 0.0
C456 C 0.3235 0.74683 0.04882 0.0
C457 C 0.38553 0.72097 0.04203 0.0
C458 C 0.33675 0.69744 0.98184 0.0
C459 C 0.3242 0.66288 0.98729 0.0
C460 C 0.31732 0.64145 0.94226 0.0
C461 C 0.32646 0.65451 0.89049 0.0
C462 C 0.34262 0.68858 0.88423 0.0
C463 C 0.34571 0.71101 0.93035 0.0
H464 H 0.51797 0.45897 0.12089 0.0
H465 H 0.4467 0.39194 0.02622 0.0
H466 H 0.42374 0.44514 0.97947 0.0
H467 H 0.457 0.53506 0.13403 0.0
H468 H 0.49205 0.56781 0.12709 0.0
H469 H 0.50126 0.52481 0.15699 0.0
H470 H 0.55119 0.51439 0.08596 0.0
H471 H 0.54246 0.55742 0.05617 0.0
H472 H 0.5411 0.51798 1.01434 0.0
H473 H 0.41096 0.50398 0.93892 0.0
H474 H 0.41168 0.56522 0.9024 0.0
H475 H 0.4911 0.59539 0.02212 0.0
C476 C 0.49737 0.45552 0.09059 0.0
C477 C 0.48425 0.42119 0.07718 0.0
C478 C 0.45742 0.41784 0.03702 0.0
C479 C 0.44392 0.44796 1.01052 0.0
C480 C 0.45743 0.48131 0.0246 0.0
C481 C 0.48363 0.48536 0.06345 0.0
C482 C 0.49497 0.52415 0.06827 0.0
C483 C 0.48577 0.53882 0.12497 0.0
C484 C 0.53478 0.52874 0.05539 0.0
C485 C 0.47196 0.54096 0.02456 0.0
C486 C 0.45007 0.51574 1.00072 0.0
C487 C 0.42773 0.52408 0.9575 0.0
C488 C 0.42844 0.55893 0.93695 0.0
C489 C 0.45148 0.58505 0.95938 0.0
C490 C 0.47286 0.57612 1.00469 0.0
H491 H 0.55514 0.02395 0.61839 0.0
H492 H 0.62172 0.96714 0.50308 0.0
H493 H 0.56849 0.95175 0.44926 0.0
H494 H 0.48017 0.96403 0.61469 0.0
H495 H 0.44709 0.99855 0.61754 0.0
H496 H 0.48983 0.00531 0.64907 0.0
H497 H 0.50094 0.0627 0.59276 0.0
H498 H 0.45777 0.05751 0.56218 0.0
H499 H 0.49674 0.06137 0.51962 0.0
H500 H 0.50934 0.94394 0.40721 0.0
H501 H 0.44767 0.94639 0.37545 0.0
H502 H 0.41837 0.0081 0.51805 0.0
C503 C 0.55858 0.00802 0.58205 0.0
C504 C 0.59263 0.99652 0.56509 0.0
C505 C 0.59595 0.97621 0.51687 0.0
C506 C 0.56587 0.96719 0.48622 0.0
C507 C 0.53277 0.97876 0.50436 0.0
C508 C 0.52891 0.99891 0.55089 0.0
C509 C 0.49045 0.00931 0.55996 0.0
C510 C 0.47602 0.99335 0.61349 0.0
C511 C 0.48624 0.05014 0.55853 0.0
C512 C 0.47327 0.992 0.51091 0.0
C513 C 0.49829 0.97441 0.47969 0.0
C514 C 0.48951 0.95757 0.43126 0.0
C515 C 0.45438 0.95937 0.41348 0.0
C516 C 0.42827 0.97786 0.44401 0.0
C517 C 0.43772 0.99374 0.49402 0.0
H518 H 0.96234 0.0529 0.12746 0.0
H519 H 0.98118 0.12393 0.98965 0.0
H520 H 0.99096 0.07218 0.93067 0.0
H521 H 0.02968 0.99222 0.09562 0.0
H522 H 0.00561 0.95262 0.11611 0.0
H523 H 0.99569 0.99482 0.14735 0.0
H524 H 0.92952 0.98825 0.11966 0.0
H525 H 0.93918 0.94578 0.08884 0.0
H526 H 0.91836 0.98046 0.04925 0.0
H527 H 0.00363 0.01477 0.88829 0.0
H528 H 0.01731 0.95334 0.86274 0.0
H529 H 0.99132 0.91736 0.02697 0.0
C530 C 0.96782 0.05753 0.08465 0.0
C531 C 0.97075 0.09257 0.06321 0.0
C532 C 0.97872 0.09744 1.00717 0.0
C533 C 0.98421 0.0682 0.97317 0.0
C534 C 0.98188 0.03418 0.99576 0.0
C535 C 0.97374 0.0285 0.05002 0.0
C536 C 0.97521 0.98904 0.06422 0.0
C537 C 0.00321 0.98177 0.10844 0.0
C538 C 0.93837 0.97506 0.08151 0.0
C539 C 0.98635 0.9737 1.00971 0.0
C540 C 0.98968 1.00037 0.97093 0.0
C541 C 1.00089 0.99355 0.91809 0.0
C542 C 0.00886 0.95844 0.90419 0.0
C543 C 0.00559 0.93034 0.94294 0.0
C544 C 0.99402 0.93817 0.99644 0.0
H545 H 0.9177 0.50121 0.52744 0.0
H546 H 0.95043 0.49003 0.69653 0.0
H547 H 0.01292 0.49149 0.66837 0.0
H548 H 0.98759 0.44697 0.46972 0.0
H549 H 0.99292 0.47506 0.41046 0.0
H550 H 0.95042 0.47215 0.44425 0.0
H551 H 0.9508 0.54139 0.45499 0.0
H552 H 0.99351 0.54387 0.42187 0.0
H553 H 0.98774 0.5627 0.48877 0.0
H554 H 0.07201 0.49323 0.62309 0.0
H555 H 0.12426 0.49935 0.56268 0.0
H556 H 0.054 0.51079 0.42339 0.0
C557 C 0.93799 0.49928 0.55852 0.0
C558 C 0.92891 0.49547 0.61417 0.0
C559 C 0.95644 0.49288 0.65353 0.0
C560 C 0.99218 0.4936 0.63806 0.0
C561 C 1.00021 0.49704 0.58305 0.0
C562 C 0.97404 0.50011 0.54383 0.0
C563 C 0.99023 0.50421 0.48758 0.0
C564 C 0.97964 0.47274 0.45083 0.0
C565 C 0.97995 0.54019 0.4618 0.0
C566 C 0.02943 0.50318 0.50163 0.0
C567 C 0.03457 0.49866 0.55687 0.0
C568 C 0.06842 0.49677 0.57966 0.0
C569 C 0.09793 0.50015 0.54502 0.0
C570 C 0.09331 0.5056 0.48833 0.0
C571 C 0.05851 0.5068 0.46656 0.0
H572 H 0.68994 0.28649 0.08442 0.0
H573 H 0.69309 0.1726 0.10709 0.0
H574 H 0.75494 0.17255 0.07876 0.0
H575 H 0.79559 0.27506 0.99277 0.0
H576 H 0.80311 0.32075 1.01204 0.0
H577 H 0.76296 0.3084 0.97653 0.0
H578 H 0.72464 0.33631 0.05438 0.0
H579 H 0.76577 0.34984 0.08502 0.0
H580 H 0.73425 0.32417 0.12429 0.0
H581 H 0.78425 0.19496 0.16063 0.0
H582 H 0.81307 0.2264 0.23458 0.0
H583 H 0.81295 0.32431 0.13986 0.0
C584 C 0.70301 0.26145 0.07753 0.0
C585 C 0.68742 0.22993 0.09827 0.0
C586 C 0.70458 0.1971 0.09131 0.0
C587 C 0.73977 0.19686 0.07434 0.0
C588 C 0.75705 0.22973 0.06848 0.0
C589 C 0.73829 0.26106 0.05866 0.0
C590 C 0.76345 0.29304 0.06275 0.0
C591 C 0.7824 0.29965 1.00781 0.0
C592 C 0.74591 0.32783 0.08295 0.0
C593 C 0.78906 0.27758 0.10321 0.0
C594 C 0.78438 0.24082 0.10637 0.0
C595 C 0.79157 0.22271 0.15493 0.0
C596 C 0.80697 0.24123 0.19781 0.0
C597 C 0.81712 0.27737 0.19147 0.0
C598 C 0.8074 0.29602 0.14401 0.0
H599 H 0.80332 0.32384 0.61181 0.0
H600 H 0.69641 0.32712 0.54969 0.0
H601 H 0.71081 0.27988 0.48503 0.0
H602 H 0.83465 0.26843 0.4585 0.0
H603 H 0.86936 0.24809 0.49803 0.0
H604 H 0.86294 0.2957 0.50057 0.0
H605 H 0.85748 0.29432 0.60392 0.0
H606 H 0.86605 0.24747 0.60234 0.0
H607 H 0.82685 0.26363 0.63664 0.0
H608 H 0.71655 0.21865 0.5003 0.0
H609 H 0.71825 0.17509 0.57321 0.0
H610 H 0.82877 0.19773 0.60146 0.0
C611 C 0.78406 0.31606 0.58152 0.0
C612 C 0.74867 0.3274 0.58701 0.0
C613 C 0.72349 0.31756 0.54751 0.0
C614 C 0.73183 0.29118 0.50969 0.0
C615 C 0.76541 0.27528 0.51188 0.0
C616 C 0.7928 0.29046 0.5422 0.0
C617 C 0.82347 0.26461 0.54678 0.0
C618 C 0.84902 0.2695 0.49805 0.0
C619 C 0.84455 0.26765 0.60076 0.0
C620 C 0.80269 0.23015 0.54059 0.0
C621 C 0.77059 0.23671 0.51361 0.0
C622 C 0.74179 0.21322 0.51962 0.0
C623 C 0.74274 0.18804 0.56144 0.0
C624 C 0.77386 0.18298 0.59187 0.0
C625 C 0.80505 0.20138 0.57726 0.0
H626 H 0.29318 0.76915 0.76178 0.0
H627 H 0.32787 0.81861 0.91272 0.0
H628 H 0.28428 0.78126 0.96328 0.0
H629 H 0.20165 0.7575 0.80306 0.0
H630 H 0.19822 0.71714 0.76356 0.0
H631 H 0.22849 0.75179 0.74288 0.0
H632 H 0.27819 0.70457 0.74289 0.0
H633 H 0.24859 0.67044 0.76857 0.0
H634 H 0.28876 0.68107 0.80455 0.0
H635 H 0.24012 0.73557 0.99723 0.0
H636 H 0.18071 0.70727 1.00273 0.0
H637 H 0.18957 0.67461 0.83529 0.0
C638 C 0.29194 0.77235 0.80562 0.0
C639 C 0.31475 0.79602 0.83346 0.0
C640 C 0.31097 0.80026 0.89051 0.0
C641 C 0.28734 0.77831 0.91979 0.0
C642 C 0.26944 0.75146 0.89161 0.0
C643 C 0.27066 0.7493 0.83555 0.0
C644 C 0.24652 0.72066 0.81368 0.0
C645 C 0.21695 0.73777 0.77887 0.0
C646 C 0.26675 0.69253 0.78056 0.0
C647 C 0.23235 0.70566 0.86672 0.0
C648 C 0.24551 0.72414 0.91136 0.0
C649 C 0.22951 0.72153 0.96255 0.0
C650 C 0.19609 0.70505 0.9657 0.0
C651 C 0.18032 0.69172 0.91793 0.0
C652 C 0.20157 0.68534 0.87195 0.0
H653 H 0.30654 0.82251 0.44185 0.0
H654 H 0.19599 0.8204 0.48747 0.0
H655 H 0.20782 0.77277 0.55293 0.0
H656 H 0.33247 0.76516 0.41432 0.0
H657 H 0.36912 0.74622 0.45163 0.0
H658 H 0.361 0.79317 0.4553 0.0
H659 H 0.3599 0.78764 0.55895 0.0
H660 H 0.36603 0.74002 0.5552 0.0
H661 H 0.32914 0.75792 0.59271 0.0
H662 H 0.21488 0.71222 0.53509 0.0
H663 H 0.2187 0.67336 0.45676 0.0
H664 H 0.32962 0.69825 0.43705 0.0
C665 C 0.28566 0.81312 0.46864 0.0
C666 C 0.25033 0.82298 0.45782 0.0
C667 C 0.22314 0.81177 0.49338 0.0
C668 C 0.22996 0.78504 0.53157 0.0
C669 C 0.26379 0.7696 0.53277 0.0
C670 C 0.29264 0.78628 0.50721 0.0
C671 C 0.32338 0.76043 0.50309 0.0
C672 C 0.3478 0.76659 0.45295 0.0
C673 C 0.34584 0.76157 0.55561 0.0
C674 C 0.30206 0.72611 0.50159 0.0
C675 C 0.26909 0.73121 0.52698 0.0
C676 C 0.24058 0.7082 0.51627 0.0
C677 C 0.24271 0.68591 0.47124 0.0
C678 C 0.27447 0.68316 0.44154 0.0
C679 C 0.30527 0.70037 0.46035 0.0
H680 H 0.60178 0.20908 0.06064 0.0
H681 H 0.49624 0.2105 0.99344 0.0
H682 H 0.5164 0.17058 0.91866 0.0
H683 H 0.64907 0.20979 0.93325 0.0
H684 H 0.68408 0.18427 0.96452 0.0
H685 H 0.65601 0.21241 1.0052 0.0
H686 H 0.64154 0.15215 0.06507 0.0
H687 H 0.66983 0.12848 1.01814 0.0
H688 H 0.62442 0.11441 0.02863 0.0
H689 H 0.5532 0.13208 0.84454 0.0
H690 H 0.59959 0.10506 0.785 0.0
H691 H 0.67871 0.1275 0.90774 0.0
C692 C 0.58236 0.19947 0.03244 0.0
C693 C 0.54704 0.21197 0.03547 0.0
C694 C 0.52336 0.20102 0.99349 0.0
C695 C 0.5347 0.17819 0.95059 0.0
C696 C 0.57 0.16621 0.94959 0.0
C697 C 0.59327 0.17678 0.98995 0.0
C698 C 0.63037 0.16292 0.97913 0.0
C699 C 0.65651 0.19411 0.97004 0.0
C700 C 0.64234 0.13805 0.02546 0.0
C701 C 0.6249 0.14242 0.92681 0.0
C702 C 0.59003 0.14452 0.90947 0.0
C703 C 0.58025 0.12988 0.85896 0.0
C704 C 0.60675 0.11402 0.82545 0.0
C705 C 0.64276 0.1126 0.8424 0.0
C706 C 0.65129 0.12654 0.89437 0.0
H707 H 0.77236 0.07174 0.49189 0.0
H708 H 0.84475 0.06584 0.62827 0.0
H709 H 0.89219 0.0935 0.57141 0.0
H710 H 0.83302 0.05996 0.37951 0.0
H711 H 0.8136 0.09431 0.33759 0.0
H712 H 0.78657 0.07064 0.38671 0.0
H713 H 0.76849 0.13036 0.43117 0.0
H714 H 0.79499 0.15431 0.38197 0.0
H715 H 0.80248 0.16087 0.45379 0.0
H716 H 0.93225 0.12403 0.49783 0.0
H717 H 0.95658 0.16206 0.42344 0.0
H718 H 0.85647 0.15388 0.33814 0.0
C719 C 0.79824 0.07601 0.50967 0.0
C720 C 0.80474 0.06582 0.56465 0.0
C721 C 0.83901 0.07273 0.5863 0.0
C722 C 0.86623 0.08849 0.55407 0.0
C723 C 0.85884 0.09841 0.50016 0.0
C724 C 0.82527 0.09319 0.47869 0.0
C725 C 0.82277 0.11015 0.42216 0.0
C726 C 0.81344 0.08208 0.37894 0.0
C727 C 0.79559 0.14072 0.4223 0.0
C728 C 0.86046 0.12455 0.41411 0.0
C729 C 0.88103 0.11728 0.45938 0.0
C730 C 0.9163 0.12939 0.4621 0.0
C731 C 0.93029 0.15053 0.41897 0.0
C732 C 0.90931 0.15975 0.37315 0.0
C733 C 0.87401 0.14588 0.37089 0.0
H734 H 0.86321 0.3614 0.82336 0.0
H735 H 0.80852 0.43855 0.92326 0.0
H736 H 0.84194 0.41733 1.00411 0.0
H737 H 0.86009 0.29569 0.90597 0.0
H738 H 0.9033 0.2746 0.90171 0.0
H739 H 0.88625 0.29991 0.84507 0.0
H740 H 0.93602 0.34528 0.84076 0.0
H741 H 0.95902 0.31875 0.8909 0.0
H742 H 0.95219 0.36573 0.90234 0.0
H743 H 0.87624 0.38159 0.07686 0.0
H744 H 0.90919 0.33832 0.13253 0.0
H745 H 0.94201 0.28299 0.98621 0.0
C746 C 0.8597 0.37519 0.86169 0.0
C747 C 0.83387 0.40266 0.8662 0.0
C748 C 0.8289 0.41856 0.91793 0.0
C749 C 0.84766 0.40631 0.96436 0.0
C750 C 0.8721 0.37844 0.95874 0.0
C751 C 0.87899 0.36389 0.90818 0.0
C752 C 0.90454 0.33253 0.91357 0.0
C753 C 0.88763 0.29853 0.89027 0.0
C754 C 0.94005 0.34109 0.8852 0.0
C755 C 0.9094 0.33013 0.97534 0.0
C756 C 0.89103 0.35741 1.00046 0.0
C757 C 0.89093 0.36047 0.05719 0.0
C758 C 0.90981 0.33536 0.08888 0.0
C759 C 0.92869 0.30669 0.06481 0.0
C760 C 0.9285 0.30458 1.00667 0.0
H761 H 0.74894 0.43094 0.47328 0.0
H762 H 0.66864 0.4484 0.59683 0.0
H763 H 0.62296 0.42246 0.53606 0.0
H764 H 0.69333 0.44854 0.35339 0.0
H765 H 0.71268 0.41325 0.31361 0.0
H766 H 0.73866 0.43531 0.36527 0.0
H767 H 0.75108 0.37446 0.41205 0.0
H768 H 0.72608 0.35252 0.35949 0.0
H769 H 0.71436 0.34571 0.43002 0.0
H770 H 0.58498 0.3907 0.46009 0.0
H771 H 0.56231 0.35368 0.3834 0.0
H772 H 0.66703 0.35674 0.31008 0.0
C773 C 0.72163 0.43005 0.48716 0.0
C774 C 0.71269 0.44242 0.54027 0.0
C775 C 0.67656 0.43938 0.55678 0.0
C776 C 0.6502 0.4247 0.52216 0.0
C777 C 0.65985 0.41253 0.47038 0.0
C778 C 0.6949 0.41489 0.45318 0.0
C779 C 0.69885 0.39777 0.39717 0.0
C780 C 0.71164 0.42537 0.35485 0.0
C781 C 0.72409 0.3657 0.39986 0.0
C782 C 0.66084 0.38556 0.38541 0.0
C783 C 0.63848 0.3944 0.42783 0.0
C784 C 0.60246 0.38409 0.42658 0.0
C785 C 0.58948 0.36334 0.38225 0.0
C786 C 0.61235 0.35264 0.33939 0.0
C787 C 0.64833 0.36493 0.34118 0.0
H788 H 0.44741 0.78082 0.05638 0.0
H789 H 0.41529 0.84046 0.9131 0.0
H790 H 0.38614 0.8847 0.97134 0.0
H791 H 0.37075 0.78981 0.13086 0.0
H792 H 0.39061 0.79656 0.19669 0.0
H793 H 0.41437 0.77233 0.14544 0.0
H794 H 0.46751 0.81535 0.15273 0.0
H795 H 0.44441 0.83975 0.20507 0.0
H796 H 0.46071 0.86271 0.14525 0.0
H797 H 0.35451 0.92012 0.04552 0.0
H798 H 0.32047 0.93927 0.12692 0.0
H799 H 0.37137 0.85683 0.22238 0.0
C800 C 0.43511 0.80367 0.03715 0.0
C801 C 0.43403 0.8067 0.97927 0.0
C802 C 0.41683 0.83695 0.95663 0.0
C803 C 0.40015 0.86257 0.98973 0.0
C804 C 0.4009 0.85828 0.04622 0.0
C805 C 0.41817 0.82964 0.06986 0.0
C806 C 0.41301 0.83005 0.13154 0.0
C807 C 0.39614 0.79508 0.15226 0.0
C808 C 0.44852 0.8374 0.16034 0.0
C809 C 0.38791 0.86154 0.13819 0.0
C810 C 0.38236 0.87839 0.08878 0.0
C811 C 0.35915 0.90738 0.0845 0.0
C812 C 0.34013 0.91845 0.13118 0.0
C813 C 0.34377 0.90022 0.18147 0.0
C814 C 0.36871 0.87195 0.18491 0.0
H815 H 0.16715 0.84146 0.72656 0.0
H816 H 0.06318 0.83771 0.65138 0.0
H817 H 0.08623 0.87473 0.57461 0.0
H818 H 0.18821 0.93589 0.68313 0.0
H819 H 0.23471 0.92605 0.67434 0.0
H820 H 0.20889 0.90219 0.72481 0.0
H821 H 0.22837 0.84311 0.6818 0.0
H822 H 0.25294 0.86601 0.62907 0.0
H823 H 0.21857 0.83449 0.61138 0.0
H824 H 0.12372 0.90661 0.49948 0.0
H825 H 0.16868 0.93521 0.43969 0.0
H826 H 0.24818 0.92179 0.56547 0.0
C827 C 0.14885 0.84926 0.69471 0.0
C828 C 0.11292 0.83672 0.69586 0.0
C829 C 0.09037 0.84731 0.6526 0.0
C830 C 0.10349 0.86815 0.60836 0.0
C831 C 0.13925 0.87914 0.60792 0.0
C832 C 0.16135 0.87079 0.65092 0.0
C833 C 0.19877 0.88565 0.64071 0.0
C834 C 0.2082 0.91414 0.68328 0.0
C835 C 0.22632 0.85553 0.64072 0.0
C836 C 0.1949 0.90242 0.58413 0.0
C837 C 0.16028 0.89841 0.56602 0.0
C838 C 0.15062 0.91027 0.51401 0.0
C839 C 0.17654 0.92653 0.48002 0.0
C840 C 0.21217 0.93157 0.49751 0.0
C841 C 0.22116 0.91935 0.55085 0.0
H842 H 0.12201 0.66185 0.24319 0.0
H843 H 0.14995 0.56672 0.15374 0.0
H844 H 0.11196 0.58667 0.07717 0.0
H845 H 0.0258 0.66897 0.18124 0.0
H846 H 0.02912 0.71697 0.18368 0.0
H847 H 0.05013 0.69015 0.23551 0.0
H848 H 0.10693 0.72362 0.2155 0.0
H849 H 0.09078 0.74776 0.15727 0.0
H850 H 0.12868 0.71844 0.15111 0.0
H851 H 0.07858 0.62194 1.00472 0.0
H852 H 0.05243 0.66721 0.94444 0.0
H853 H 0.04862 0.74203 0.0785 0.0
C854 C 0.11847 0.6442 0.20875 0.0
C855 C 0.13846 0.61216 0.20522 0.0
C856 C 0.13419 0.59062 0.15842 0.0
C857 C 0.11282 0.60204 0.11439 0.0
C858 C 0.09507 0.63475 0.11806 0.0
C859 C 0.09669 0.65496 0.16496 0.0
C860 C 0.07782 0.69057 0.15687 0.0
C861 C 0.04369 0.69172 0.19137 0.0
C862 C 0.10247 0.72206 0.17081 0.0
C863 C 0.06872 0.68901 0.09632 0.0
C864 C 0.07751 0.6559 0.07553 0.0
C865 C 0.07165 0.64784 0.02084 0.0
C866 C 0.05711 0.67413 0.98643 0.0
C867 C 0.04909 0.70886 1.00561 0.0
C868 C 0.05429 0.7159 0.06206 0.0
H869 H 0.35368 0.66422 0.69974 0.0
H870 H 0.45381 0.67238 0.61356 0.0
H871 H 0.4297 0.63398 0.54018 0.0
H872 H 0.33271 0.56935 0.66073 0.0
H873 H 0.2859 0.57854 0.65455 0.0
H874 H 0.31258 0.60323 0.70249 0.0
H875 H 0.29155 0.66197 0.6582 0.0
H876 H 0.26573 0.63783 0.60866 0.0
H877 H 0.29909 0.66942 0.58653 0.0
H878 H 0.39059 0.60233 0.4684 0.0
H879 H 0.34396 0.57292 0.41275 0.0
H880 H 0.27058 0.58016 0.54831 0.0
C881 C 0.37117 0.65629 0.66687 0.0
C882 C 0.40644 0.67014 0.66398 0.0
C883 C 0.42749 0.66091 0.61827 0.0
C884 C 0.41369 0.6395 0.57582 0.0
C885 C 0.37857 0.62709 0.57925 0.0
C886 C 0.35787 0.63444 0.62444 0.0
C887 C 0.32052 0.61902 0.61729 0.0
C888 C 0.31246 0.59085 0.66139 0.0
C889 C 0.29256 0.64883 0.61771 0.0
C890 C 0.32329 0.60204 0.56101 0.0
C891 C 0.35681 0.60755 0.53928 0.0
C892 C 0.36463 0.59712 0.48585 0.0
C893 C 0.3379 0.58039 0.45433 0.0
C894 C 0.30369 0.57324 0.47624 0.0
C895 C 0.29663 0.58424 0.53062 0.0
H896 H 0.46772 0.16468 0.18306 0.0
H897 H 0.45741 0.24089 0.31436 0.0
H898 H 0.40124 0.21094 0.34356 0.0
H899 H 0.37015 0.15384 0.15487 0.0
H900 H 0.37582 0.10711 0.14016 0.0
H901 H 0.4111 0.13843 0.12508 0.0
H902 H 0.45467 0.10094 0.18344 0.0
H903 H 0.41974 0.06959 0.19827 0.0
H904 H 0.44338 0.09078 0.25329 0.0
H905 H 0.35258 0.16496 0.36729 0.0
H906 H 0.31815 0.10954 0.38312 0.0
H907 H 0.35912 0.06646 0.23175 0.0
C908 C 0.45324 0.1756 0.21732 0.0
C909 C 0.46695 0.20484 0.24685 0.0
C910 C 0.44724 0.21852 0.29118 0.0
C911 C 0.41532 0.20169 0.30785 0.0
C912 C 0.40315 0.17197 0.27869 0.0
C913 C 0.42138 0.15958 0.23368 0.0
C914 C 0.40511 0.12556 0.21176 0.0
C915 C 0.38962 0.13161 0.15457 0.0
C916 C 0.43233 0.09494 0.21176 0.0
C917 C 0.37597 0.11929 0.25326 0.0
C918 C 0.37472 0.14652 0.29117 0.0
C919 C 0.3528 0.14402 0.33704 0.0
C920 C 0.33314 0.11235 0.3456 0.0
C921 C 0.3357 0.08338 0.30867 0.0
C922 C 0.35596 0.08805 0.26053 0.0
H923 H 0.85145 0.00743 0.81666 0.0
H924 H 0.75743 0.94976 0.76415 0.0
H925 H 0.78949 0.89257 0.7761 0.0
H926 H 0.91109 0.95972 0.74395 0.0
H927 H 0.94598 0.96068 0.7942 0.0
H928 H 0.91368 0.99578 0.79229 0.0
H929 H 0.89768 0.9839 0.89337 0.0
H930 H 0.93006 0.94875 0.89618 0.0
H931 H 0.8846 0.93962 0.9148 0.0
H932 H 0.83607 0.84118 0.78611 0.0
H933 H 0.89038 0.80344 0.79487 0.0
H934 H 0.95237 0.89813 0.831 0.0
C935 C 0.83711 0.98278 0.80911 0.0
C936 C 0.80189 0.98312 0.78951 0.0
C937 C 0.78428 0.95018 0.77984 0.0
C938 C 0.80241 0.91756 0.78618 0.0
C939 C 0.83798 0.91844 0.8025 0.0
C940 C 0.85482 0.95041 0.81452 0.0
C941 C 0.89373 0.94527 0.82671 0.0
C942 C 0.91748 0.96662 0.78689 0.0
C943 C 0.90198 0.95496 0.88629 0.0
C944 C 0.89675 0.90567 0.81739 0.0
C945 C 0.86442 0.8901 0.80482 0.0
C946 C 0.86147 0.85328 0.79567 0.0
C947 C 0.89233 0.83208 0.80013 0.0
C948 C 0.92552 0.84823 0.81155 0.0
C949 C 0.92745 0.88533 0.82025 0.0
H950 H 0.14379 0.44706 0.22873 0.0
H951 H 0.19671 0.39652 0.36526 0.0
H952 H 0.16737 0.33943 0.34286 0.0
H953 H 0.06486 0.41328 0.25175 0.0
H954 H 0.05124 0.40678 0.18207 0.0
H955 H 0.08415 0.43988 0.19772 0.0
H956 H 0.12829 0.41052 0.13046 0.0
H957 H 0.09518 0.37728 0.11402 0.0
H958 H 0.13848 0.36375 0.13731 0.0
H959 H 0.12044 0.2927 0.32058 0.0
H960 H 0.06321 0.26258 0.29893 0.0
H961 H 0.04213 0.3434 0.17679 0.0
C962 C 0.15056 0.42363 0.25242 0.0
C963 C 0.17251 0.42649 0.29884 0.0
C964 C 0.18022 0.39516 0.3292 0.0
C965 C 0.16357 0.36247 0.31679 0.0
C966 C 0.13988 0.36124 0.27314 0.0
C967 C 0.13411 0.39095 0.2406 0.0
C968 C 0.10374 0.3847 0.20144 0.0
C969 C 0.07429 0.41279 0.20877 0.0
C970 C 0.11724 0.38401 0.1423 0.0
C971 C 0.09152 0.348 0.21973 0.0
C972 C 0.11311 0.33427 0.26012 0.0
C973 C 0.10401 0.30271 0.28783 0.0
C974 C 0.07152 0.28565 0.27527 0.0
C975 C 0.04846 0.30064 0.23608 0.0
C976 C 0.05953 0.33118 0.20655 0.0
H977 H 0.54658 0.63213 0.74087 0.0
H978 H 0.59649 0.6825 0.88032 0.0
H979 H 0.6512 0.64806 0.86282 0.0
H980 H 0.57348 0.54946 0.77039 0.0
H981 H 0.58013 0.53473 0.70128 0.0
H982 H 0.54897 0.56961 0.71531 0.0
H983 H 0.58168 0.61196 0.64782 0.0
H984 H 0.61271 0.57688 0.63259 0.0
H985 H 0.62874 0.61973 0.65535 0.0
H986 H 0.69699 0.60027 0.83837 0.0
H987 H 0.72785 0.54488 0.80995 0.0
H988 H 0.64474 0.52473 0.69171 0.0
C989 C 0.56937 0.63708 0.7667 0.0
C990 C 0.56711 0.66014 0.81196 0.0
C991 C 0.59755 0.66522 0.84508 0.0
C992 C 0.62879 0.64569 0.83548 0.0
C993 C 0.6292 0.62142 0.79244 0.0
C994 C 0.60027 0.61748 0.75824 0.0
C995 C 0.60493 0.58647 0.71975 0.0
C996 C 0.57513 0.55844 0.72719 0.0
C997 C 0.60716 0.59955 0.66035 0.0
C998 C 0.64025 0.57247 0.73909 0.0
C999 C 0.65448 0.59332 0.78006 0.0
C1000 C 0.68624 0.58408 0.80585 0.0
C1001 C 0.70352 0.55257 0.78964 0.0
C1002 C 0.68841 0.53039 0.74915 0.0
C1003 C 0.65677 0.54099 0.72317 0.0
H1004 H 0.65633 0.90422 0.67323 0.0
H1005 H 0.68164 0.93932 0.83638 0.0
H1006 H 0.6529 0.88483 0.87414 0.0
H1007 H 0.57243 0.88378 0.70322 0.0
H1008 H 0.56766 0.84645 0.65763 0.0
H1009 H 0.59996 0.88056 0.64321 0.0
H1010 H 0.64953 0.8328 0.64 0.0
H1011 H 0.61714 0.79839 0.65471 0.0
H1012 H 0.65579 0.80329 0.69737 0.0
H1013 H 0.61172 0.83417 0.89443 0.0
H1014 H 0.55649 0.79828 0.89652 0.0
H1015 H 0.55335 0.79888 0.72047 0.0
C1016 C 0.65756 0.89929 0.71674 0.0
C1017 C 0.67232 0.9251 0.75197 0.0
C1018 C 0.67138 0.91923 0.80885 0.0
C1019 C 0.65517 0.88831 0.83046 0.0
C1020 C 0.63947 0.86394 0.79462 0.0
C1021 C 0.64034 0.86933 0.73881 0.0
C1022 C 0.61507 0.84414 0.7097 0.0
C1023 C 0.58715 0.86498 0.67658 0.0
C1024 C 0.63562 0.8181 0.6733 0.0
C1025 C 0.59844 0.82488 0.7579 0.0
C1026 C 0.61387 0.83567 0.8064 0.0
C1027 C 0.60017 0.82479 0.85672 0.0
C1028 C 0.56896 0.80411 0.8576 0.0
C1029 C 0.55157 0.79486 0.80859 0.0
C1030 C 0.56724 0.80417 0.75824 0.0
H1031 H 0.14325 0.01229 0.33196 0.0
H1032 H 0.23194 0.03872 0.22588 0.0
H1033 H 0.20196 0.09523 0.19962 0.0
H1034 H 0.07532 0.04338 0.2482 0.0
H1035 H 0.04872 0.05984 0.30375 0.0
H1036 H 0.07867 0.02338 0.31494 0.0
H1037 H 0.10888 0.05896 0.3929 0.0
H1038 H 0.07925 0.09581 0.38128 0.0
H1039 H 0.12666 0.1029 0.37919 0.0
H1040 H 0.15715 0.14582 0.17766 0.0
H1041 H 0.10409 0.18375 0.16376 0.0
H1042 H 0.04959 0.12548 0.29271 0.0
C1043 C 0.15654 0.02994 0.30326 0.0
C1044 C 0.18968 0.02091 0.28034 0.0
C1045 C 0.2064 0.04508 0.24368 0.0
C1046 C 0.18961 0.07724 0.22874 0.0
C1047 C 0.15664 0.08516 0.25201 0.0
C1048 C 0.14066 0.06219 0.28905 0.0
C1049 C 0.10493 0.0757 0.30747 0.0
C1050 C 0.07518 0.049 0.29268 0.0
C1051 C 0.10496 0.08383 0.36885 0.0
C1052 C 0.10256 0.1095 0.27399 0.0
C1053 C 0.13244 0.11476 0.24203 0.0
C1054 C 0.134 0.14231 0.20343 0.0
C1055 C 0.10377 0.16393 0.196 0.0
C1056 C 0.07253 0.15791 0.22724 0.0
C1057 C 0.07296 0.13135 0.26837 0.0
H1058 H 0.9508 0.67261 0.86897 0.0
H1059 H 0.94642 0.74258 0.72837 0.0
H1060 H 0.88889 0.71471 0.70172 0.0
H1061 H 0.92784 0.59843 0.80623 0.0
H1062 H 0.90216 0.5787 0.8608 0.0
H1063 H 0.93629 0.61059 0.87609 0.0
H1064 H 0.89051 0.64966 0.92732 0.0
H1065 H 0.856 0.61764 0.91205 0.0
H1066 H 0.85066 0.66383 0.89302 0.0
H1067 H 0.83993 0.66985 0.68047 0.0
H1068 H 0.80782 0.61341 0.66447 0.0
H1069 H 0.84471 0.573 0.82018 0.0
C1070 C 0.93702 0.68298 0.83361 0.0
C1071 C 0.95287 0.70965 0.80061 0.0
C1072 C 0.93444 0.72244 0.75445 0.0
C1073 C 0.90177 0.70671 0.73919 0.0
C1074 C 0.88777 0.67891 0.77128 0.0
C1075 C 0.90473 0.66767 0.81817 0.0
C1076 C 0.88785 0.63415 0.84151 0.0
C1077 C 0.91514 0.60371 0.84635 0.0
C1078 C 0.8702 0.64179 0.89675 0.0
C1079 C 0.86029 0.62645 0.79833 0.0
C1080 C 0.85978 0.65307 0.75898 0.0
C1081 C 0.83959 0.64936 0.71171 0.0
C1082 C 0.82127 0.61704 0.70304 0.0
C1083 C 0.82379 0.58841 0.74097 0.0
C1084 C 0.8418 0.59431 0.79061 0.0
H1085 H 0.4495 0.39907 0.21773 0.0
H1086 H 0.39001 0.30434 0.26416 0.0
H1087 H 0.33511 0.34129 0.272 0.0
H1088 H 0.40763 0.46213 0.30129 0.0
H1089 H 0.40954 0.49667 0.24994 0.0
H1090 H 0.44237 0.46205 0.25053 0.0
H1091 H 0.42673 0.44733 0.15052 0.0
H1092 H 0.39303 0.48118 0.14978 0.0
H1093 H 0.38171 0.43575 0.13266 0.0
H1094 H 0.28764 0.39251 0.28007 0.0
H1095 H 0.25498 0.44967 0.28789 0.0
H1096 H 0.34693 0.50626 0.22392 0.0
C1097 C 0.42511 0.38605 0.2308 0.0
C1098 C 0.42413 0.34921 0.24263 0.0
C1099 C 0.39137 0.33283 0.25663 0.0
C1100 C 0.36015 0.35356 0.26057 0.0
C1101 C 0.36222 0.39009 0.24815 0.0
C1102 C 0.39406 0.4058 0.23292 0.0
C1103 C 0.39019 0.44495 0.22007 0.0
C1104 C 0.4138 0.46777 0.25773 0.0
C1105 C 0.39836 0.45273 0.15967 0.0
C1106 C 0.35129 0.44964 0.2325 0.0
C1107 C 0.33523 0.41795 0.24854 0.0
C1108 C 0.29995 0.41721 0.26663 0.0
C1109 C 0.28143 0.44979 0.27054 0.0
C1110 C 0.29833 0.48249 0.25641 0.0
C1111 C 0.33308 0.4818 0.23482 0.0
loop_
_geom_bond_atom_site_label_1
_geom_bond_atom_site_label_2
_geom_bond_distance
_geom_bond_site_symmetry_2
_ccdc_geom_bond_type
C0 O12 1.241 . S
C0 O13 1.280 . S
C1 O14 1.277 . S
C1 O15 1.245 . S
C2 O26 1.247 . S
C2 O28 1.289 . S
Mg3 O4 1.926 . S
Mg3 O13 1.984 . S
Mg3 O15 1.988 . S
Mg3 O16 2.061 . S
O4 Mg3 1.926 . S
O4 Mg5 1.986 . S
O4 Mg6 1.917 . S
Mg5 O4 1.986 . S
Mg5 O12 2.042 . S
Mg5 O14 2.041 . S
Mg5 O20 2.038 . S
Mg5 O28 2.238 . S
Mg6 O4 1.917 . S
Mg6 O7 1.917 . S
Mg6 O17 2.106 . S
Mg6 O19 2.079 . S
Mg6 O28 2.106 . S
Mg6 O29 2.079 . S
O7 Mg6 1.917 . S
O7 Mg8 1.926 . S
O7 Mg9 1.986 . S
Mg8 O7 1.926 . S
Mg8 O22 1.984 . S
Mg8 O25 1.988 . S
Mg8 O26 2.061 . S
Mg9 O7 1.986 . S
Mg9 O17 2.238 . S
Mg9 O21 2.042 . S
Mg9 O23 2.041 . S
Mg9 O30 2.038 . S
C10 O16 1.247 . S
C10 O17 1.289 . S
C11 O29 1.245 . S
C11 O30 1.274 . S
O12 C0 1.241 . S
O12 Mg5 2.042 . S
O13 C0 1.280 . S
O13 Mg3 1.984 . S
O14 C1 1.277 . S
O14 Mg5 2.041 . S
O15 C1 1.245 . S
O15 Mg3 1.988 . S
O16 Mg3 2.061 . S
O16 C10 1.247 . S
O17 Mg6 2.106 . S
O17 Mg9 2.238 . S
O17 C10 1.289 . S
C18 O19 1.245 . S
C18 O20 1.274 . S
O19 Mg6 2.079 . S
O19 C18 1.245 . S
O20 Mg5 2.038 . S
O20 C18 1.274 . S
O21 Mg9 2.042 . S
O21 C24 1.241 . S
O22 Mg8 1.984 . S
O22 C24 1.280 . S
O23 Mg9 2.041 . S
O23 C27 1.277 . S
C24 O21 1.241 . S
C24 O22 1.280 . S
O25 Mg8 1.988 . S
O25 C27 1.245 . S
O26 C2 1.247 . S
O26 Mg8 2.061 . S
C27 O23 1.277 . S
C27 O25 1.245 . S
O28 C2 1.289 . S
O28 Mg5 2.238 . S
O28 Mg6 2.106 . S
O29 Mg6 2.079 . S
O29 C11 1.245 . S
O30 Mg9 2.038 . S
O30 C11 1.274 . S
C31 O43 1.241 . S
C31 O44 1.280 1_545 S
C32 O45 1.277 . S
C32 O46 1.245 . S
C33 O57 1.247 . S
C33 O59 1.289 . S
Mg34 O35 1.926 1_565 S
Mg34 O44 1.984 . S
Mg34 O46 1.988 . S
Mg34 O47 2.061 1_565 S
O35 Mg34 1.926 1_545 S
O35 Mg36 1.986 . S
O35 Mg37 1.917 . S
Mg36 O35 1.986 . S
Mg36 O43 2.042 . S
Mg36 O45 2.041 1_545 S
Mg36 O51 2.038 . S
Mg36 O59 2.238 . S
Mg37 O35 1.917 . S
Mg37 O38 1.917 . S
Mg37 O48 2.106 . S
Mg37 O50 2.079 . S
Mg37 O59 2.106 . S
Mg37 O60 2.079 . S
O38 Mg37 1.917 . S
O38 Mg39 1.926 . S
O38 Mg40 1.986 . S
Mg39 O38 1.926 . S
Mg39 O53 1.984 . S
Mg39 O56 1.988 . S
Mg39 O57 2.061 . S
Mg40 O38 1.986 . S
Mg40 O48 2.238 . S
Mg40 O52 2.042 . S
Mg40 O54 2.041 . S
Mg40 O61 2.038 . S
C41 O47 1.247 . S
C41 O48 1.289 . S
C42 O60 1.245 . S
C42 O61 1.274 . S
O43 C31 1.241 . S
O43 Mg36 2.042 . S
O44 C31 1.280 1_565 S
O44 Mg34 1.984 . S
O45 C32 1.277 . S
O45 Mg36 2.041 1_565 S
O46 C32 1.245 . S
O46 Mg34 1.988 . S
O47 Mg34 2.061 1_545 S
O47 C41 1.247 . S
O48 Mg37 2.106 . S
O48 Mg40 2.238 . S
O48 C41 1.289 . S
C49 O50 1.245 . S
C49 O51 1.274 . S
O50 Mg37 2.079 . S
O50 C49 1.245 . S
O51 Mg36 2.038 . S
O51 C49 1.274 . S
O52 Mg40 2.042 . S
O52 C55 1.241 . S
O53 Mg39 1.984 . S
O53 C55 1.280 . S
O54 Mg40 2.041 . S
O54 C58 1.277 . S
C55 O52 1.241 . S
C55 O53 1.280 . S
O56 Mg39 1.988 . S
O56 C58 1.245 . S
O57 C33 1.247 . S
O57 Mg39 2.061 . S
C58 O54 1.277 . S
C58 O56 1.245 . S
O59 C33 1.289 . S
O59 Mg36 2.238 . S
O59 Mg37 2.106 . S
O60 Mg37 2.079 . S
O60 C42 1.245 . S
O61 Mg40 2.038 . S
O61 C42 1.274 . S
C62 O74 1.241 . S
C62 O75 1.280 1_655 S
C63 O76 1.277 . S
C63 O77 1.245 . S
C64 O88 1.247 . S
C64 O90 1.289 . S
Mg65 O66 1.926 1_455 S
Mg65 O75 1.984 . S
Mg65 O77 1.988 . S
Mg65 O78 2.061 1_455 S
O66 Mg65 1.926 1_655 S
O66 Mg67 1.986 . S
O66 Mg68 1.917 . S
Mg67 O66 1.986 . S
Mg67 O74 2.042 . S
Mg67 O76 2.041 1_655 S
Mg67 O82 2.038 . S
Mg67 O90 2.238 . S
Mg68 O66 1.917 . S
Mg68 O69 1.917 . S
Mg68 O79 2.106 . S
Mg68 O81 2.079 . S
Mg68 O90 2.106 . S
Mg68 O91 2.079 . S
O69 Mg68 1.917 . S
O69 Mg70 1.926 . S
O69 Mg71 1.986 . S
Mg70 O69 1.926 . S
Mg70 O84 1.984 . S
Mg70 O87 1.988 . S
Mg70 O88 2.061 . S
Mg71 O69 1.986 . S
Mg71 O79 2.238 . S
Mg71 O83 2.042 . S
Mg71 O85 2.041 . S
Mg71 O92 2.038 . S
C72 O78 1.247 . S
C72 O79 1.289 . S
C73 O91 1.245 . S
C73 O92 1.274 . S
O74 C62 1.241 . S
O74 Mg67 2.042 . S
O75 C62 1.280 1_455 S
O75 Mg65 1.984 . S
O76 C63 1.277 . S
O76 Mg67 2.041 1_455 S
O77 C63 1.245 . S
O77 Mg65 1.988 . S
O78 Mg65 2.061 1_655 S
O78 C72 1.247 . S
O79 Mg68 2.106 . S
O79 Mg71 2.238 . S
O79 C72 1.289 . S
C80 O81 1.245 . S
C80 O82 1.274 . S
O81 Mg68 2.079 . S
O81 C80 1.245 . S
O82 Mg67 2.038 . S
O82 C80 1.274 . S
O83 Mg71 2.042 . S
O83 C86 1.241 . S
O84 Mg70 1.984 . S
O84 C86 1.280 . S
O85 Mg71 2.041 . S
O85 C89 1.277 . S
C86 O83 1.241 . S
C86 O84 1.280 . S
O87 Mg70 1.988 . S
O87 C89 1.245 . S
O88 C64 1.247 . S
O88 Mg70 2.061 . S
C89 O85 1.277 . S
C89 O87 1.245 . S
O90 C64 1.289 . S
O90 Mg67 2.238 . S
O90 Mg68 2.106 . S
O91 Mg68 2.079 . S
O91 C73 1.245 . S
O92 Mg71 2.038 . S
O92 C73 1.274 . S
C93 O105 1.241 . S
C93 O106 1.280 . S
C94 O107 1.277 . S
C94 O108 1.245 . S
C95 O119 1.247 . S
C95 O121 1.289 . S
Mg96 O97 1.926 . S
Mg96 O106 1.984 . S
Mg96 O108 1.988 . S
Mg96 O109 2.061 . S
O97 Mg96 1.926 . S
O97 Mg98 1.986 . S
O97 Mg99 1.917 . S
Mg98 O97 1.986 . S
Mg98 O105 2.042 . S
Mg98 O107 2.041 . S
Mg98 O113 2.038 . S
Mg98 O121 2.238 . S
Mg99 O97 1.917 . S
Mg99 O100 1.917 . S
Mg99 O110 2.106 . S
Mg99 O112 2.079 . S
Mg99 O121 2.106 . S
Mg99 O122 2.079 . S
O100 Mg99 1.917 . S
O100 Mg101 1.926 . S
O100 Mg102 1.986 . S
Mg101 O100 1.926 . S
Mg101 O115 1.984 . S
Mg101 O118 1.988 . S
Mg101 O119 2.061 . S
Mg102 O100 1.986 . S
Mg102 O110 2.238 . S
Mg102 O114 2.042 . S
Mg102 O116 2.041 . S
Mg102 O123 2.038 . S
C103 O109 1.247 . S
C103 O110 1.289 . S
C104 O122 1.245 . S
C104 O123 1.274 . S
O105 C93 1.241 . S
O105 Mg98 2.042 . S
O106 C93 1.280 . S
O106 Mg96 1.984 . S
O107 C94 1.277 . S
O107 Mg98 2.041 . S
O108 C94 1.245 . S
O108 Mg96 1.988 . S
O109 Mg96 2.061 . S
O109 C103 1.247 . S
O110 Mg99 2.106 . S
O110 Mg102 2.238 . S
O110 C103 1.289 . S
C111 O112 1.245 . S
C111 O113 1.274 . S
O112 Mg99 2.079 . S
O112 C111 1.245 . S
O113 Mg98 2.038 . S
O113 C111 1.274 . S
O114 Mg102 2.042 . S
O114 C117 1.241 . S
O115 Mg101 1.984 . S
O115 C117 1.280 . S
O116 Mg102 2.041 . S
O116 C120 1.277 . S
C117 O114 1.241 . S
C117 O115 1.280 . S
O118 Mg101 1.988 . S
O118 C120 1.245 . S
O119 C95 1.247 . S
O119 Mg101 2.061 . S
C120 O116 1.277 . S
C120 O118 1.245 . S
O121 C95 1.289 . S
O121 Mg98 2.238 . S
O121 Mg99 2.106 . S
O122 Mg99 2.079 . S
O122 C104 1.245 . S
O123 Mg102 2.038 . S
O123 C104 1.274 . S
C124 O136 1.241 . S
C124 O137 1.280 . S
C125 O138 1.277 . S
C125 O139 1.245 . S
C126 O150 1.247 . S
C126 O152 1.289 . S
Mg127 O128 1.926 . S
Mg127 O137 1.984 . S
Mg127 O139 1.988 . S
Mg127 O140 2.061 . S
O128 Mg127 1.926 . S
O128 Mg129 1.986 . S
O128 Mg130 1.917 . S
Mg129 O128 1.986 . S
Mg129 O136 2.042 . S
Mg129 O138 2.041 . S
Mg129 O144 2.038 . S
Mg129 O152 2.238 . S
Mg130 O128 1.917 . S
Mg130 O131 1.917 . S
Mg130 O141 2.106 . S
Mg130 O143 2.079 . S
Mg130 O152 2.106 . S
Mg130 O153 2.079 . S
O131 Mg130 1.917 . S
O131 Mg132 1.926 . S
O131 Mg133 1.986 . S
Mg132 O131 1.926 . S
Mg132 O146 1.984 . S
Mg132 O149 1.988 . S
Mg132 O150 2.061 . S
Mg133 O131 1.986 . S
Mg133 O141 2.238 . S
Mg133 O145 2.042 . S
Mg133 O147 2.041 . S
Mg133 O154 2.038 . S
C134 O140 1.247 . S
C134 O141 1.289 . S
C135 O153 1.245 . S
C135 O154 1.274 . S
O136 C124 1.241 . S
O136 Mg129 2.042 . S
O137 C124 1.280 . S
O137 Mg127 1.984 . S
O138 C125 1.277 . S
O138 Mg129 2.041 . S
O139 C125 1.245 . S
O139 Mg127 1.988 . S
O140 Mg127 2.061 . S
O140 C134 1.247 . S
O141 Mg130 2.106 . S
O141 Mg133 2.238 . S
O141 C134 1.289 . S
C142 O143 1.245 . S
C142 O144 1.274 . S
O143 Mg130 2.079 . S
O143 C142 1.245 . S
O144 Mg129 2.038 . S
O144 C142 1.274 . S
O145 Mg133 2.042 . S
O145 C148 1.241 . S
O146 Mg132 1.984 . S
O146 C148 1.280 . S
O147 Mg133 2.041 . S
O147 C151 1.277 . S
C148 O145 1.241 . S
C148 O146 1.280 . S
O149 Mg132 1.988 . S
O149 C151 1.245 . S
O150 C126 1.247 . S
O150 Mg132 2.061 . S
C151 O147 1.277 . S
C151 O149 1.245 . S
O152 C126 1.289 . S
O152 Mg129 2.238 . S
O152 Mg130 2.106 . S
O153 Mg130 2.079 . S
O153 C135 1.245 . S
O154 Mg133 2.038 . S
O154 C135 1.274 . S
C155 O167 1.241 . S
C155 O168 1.280 . S
C156 O169 1.277 . S
C156 O170 1.245 . S
C157 O181 1.247 . S
C157 O183 1.289 . S
Mg158 O159 1.926 . S
Mg158 O168 1.984 . S
Mg158 O170 1.988 . S
Mg158 O171 2.061 . S
O159 Mg158 1.926 . S
O159 Mg160 1.986 . S
O159 Mg161 1.917 . S
Mg160 O159 1.986 . S
Mg160 O167 2.042 . S
Mg160 O169 2.041 . S
Mg160 O175 2.038 . S
Mg160 O183 2.238 . S
Mg161 O159 1.917 . S
Mg161 O162 1.917 . S
Mg161 O172 2.106 . S
Mg161 O174 2.079 . S
Mg161 O183 2.106 . S
Mg161 O184 2.079 . S
O162 Mg161 1.917 . S
O162 Mg163 1.926 1_565 S
O162 Mg164 1.986 . S
Mg163 O162 1.926 1_545 S
Mg163 O177 1.984 . S
Mg163 O180 1.988 . S
Mg163 O181 2.061 1_545 S
Mg164 O162 1.986 . S
Mg164 O172 2.238 . S
Mg164 O176 2.042 . S
Mg164 O178 2.041 1_565 S
Mg164 O185 2.038 . S
C165 O171 1.247 . S
C165 O172 1.289 . S
C166 O184 1.245 . S
C166 O185 1.274 . S
O167 C155 1.241 . S
O167 Mg160 2.042 . S
O168 C155 1.280 . S
O168 Mg158 1.984 . S
O169 C156 1.277 . S
O169 Mg160 2.041 . S
O170 C156 1.245 . S
O170 Mg158 1.988 . S
O171 Mg158 2.061 . S
O171 C165 1.247 . S
O172 Mg161 2.106 . S
O172 Mg164 2.238 . S
O172 C165 1.289 . S
C173 O174 1.245 . S
C173 O175 1.274 . S
O174 Mg161 2.079 . S
O174 C173 1.245 . S
O175 Mg160 2.038 . S
O175 C173 1.274 . S
O176 Mg164 2.042 . S
O176 C179 1.241 . S
O177 Mg163 1.984 . S
O177 C179 1.280 1_545 S
O178 Mg164 2.041 1_545 S
O178 C182 1.277 . S
C179 O176 1.241 . S
C179 O177 1.280 1_565 S
O180 Mg163 1.988 . S
O180 C182 1.245 . S
O181 C157 1.247 . S
O181 Mg163 2.061 1_565 S
C182 O178 1.277 . S
C182 O180 1.245 . S
O183 C157 1.289 . S
O183 Mg160 2.238 . S
O183 Mg161 2.106 . S
O184 Mg161 2.079 . S
O184 C166 1.245 . S
O185 Mg164 2.038 . S
O185 C166 1.274 . S
C186 O198 1.241 . S
C186 O199 1.280 . S
C187 O200 1.277 . S
C187 O201 1.245 . S
C188 O212 1.247 . S
C188 O214 1.289 . S
Mg189 O190 1.926 . S
Mg189 O199 1.984 . S
Mg189 O201 1.988 . S
Mg189 O202 2.061 . S
O190 Mg189 1.926 . S
O190 Mg191 1.986 . S
O190 Mg192 1.917 . S
Mg191 O190 1.986 . S
Mg191 O198 2.042 . S
Mg191 O200 2.041 . S
Mg191 O206 2.038 . S
Mg191 O214 2.238 . S
Mg192 O190 1.917 . S
Mg192 O193 1.917 . S
Mg192 O203 2.106 . S
Mg192 O205 2.079 . S
Mg192 O214 2.106 . S
Mg192 O215 2.079 . S
O193 Mg192 1.917 . S
O193 Mg194 1.926 1_455 S
O193 Mg195 1.986 . S
Mg194 O193 1.926 1_655 S
Mg194 O208 1.984 . S
Mg194 O211 1.988 . S
Mg194 O212 2.061 1_655 S
Mg195 O193 1.986 . S
Mg195 O203 2.238 . S
Mg195 O207 2.042 . S
Mg195 O209 2.041 1_455 S
Mg195 O216 2.038 . S
C196 O202 1.247 . S
C196 O203 1.289 . S
C197 O215 1.245 . S
C197 O216 1.274 . S
O198 C186 1.241 . S
O198 Mg191 2.042 . S
O199 C186 1.280 . S
O199 Mg189 1.984 . S
O200 C187 1.277 . S
O200 Mg191 2.041 . S
O201 C187 1.245 . S
O201 Mg189 1.988 . S
O202 Mg189 2.061 . S
O202 C196 1.247 . S
O203 Mg192 2.106 . S
O203 Mg195 2.238 . S
O203 C196 1.289 . S
C204 O205 1.245 . S
C204 O206 1.274 . S
O205 Mg192 2.079 . S
O205 C204 1.245 . S
O206 Mg191 2.038 . S
O206 C204 1.274 . S
O207 Mg195 2.042 . S
O207 C210 1.241 . S
O208 Mg194 1.984 . S
O208 C210 1.280 1_655 S
O209 Mg195 2.041 1_655 S
O209 C213 1.277 . S
C210 O207 1.241 . S
C210 O208 1.280 1_455 S
O211 Mg194 1.988 . S
O211 C213 1.245 . S
O212 C188 1.247 . S
O212 Mg194 2.061 1_455 S
C213 O209 1.277 . S
C213 O211 1.245 . S
O214 C188 1.289 . S
O214 Mg191 2.238 . S
O214 Mg192 2.106 . S
O215 Mg192 2.079 . S
O215 C197 1.245 . S
O216 Mg195 2.038 . S
O216 C197 1.274 . S
C217 O229 1.241 . S
C217 O230 1.280 . S
C218 O231 1.277 . S
C218 O232 1.245 . S
C219 O243 1.247 . S
C219 O245 1.289 . S
Mg220 O221 1.926 . S
Mg220 O230 1.984 . S
Mg220 O232 1.988 . S
Mg220 O233 2.061 . S
O221 Mg220 1.926 . S
O221 Mg222 1.986 . S
O221 Mg223 1.917 . S
Mg222 O221 1.986 . S
Mg222 O229 2.042 . S
Mg222 O231 2.041 . S
Mg222 O237 2.038 . S
Mg222 O245 2.238 . S
Mg223 O221 1.917 . S
Mg223 O224 1.917 . S
Mg223 O234 2.106 . S
Mg223 O236 2.079 . S
Mg223 O245 2.106 . S
Mg223 O246 2.079 . S
O224 Mg223 1.917 . S
O224 Mg225 1.926 . S
O224 Mg226 1.986 . S
Mg225 O224 1.926 . S
Mg225 O239 1.984 . S
Mg225 O242 1.988 . S
Mg225 O243 2.061 . S
Mg226 O224 1.986 . S
Mg226 O234 2.238 . S
Mg226 O238 2.042 . S
Mg226 O240 2.041 . S
Mg226 O247 2.038 . S
C227 O233 1.247 . S
C227 O234 1.289 . S
C228 O246 1.245 . S
C228 O247 1.274 . S
O229 C217 1.241 . S
O229 Mg222 2.042 . S
O230 C217 1.280 . S
O230 Mg220 1.984 . S
O231 C218 1.277 . S
O231 Mg222 2.041 . S
O232 C218 1.245 . S
O232 Mg220 1.988 . S
O233 Mg220 2.061 . S
O233 C227 1.247 . S
O234 Mg223 2.106 . S
O234 Mg226 2.238 . S
O234 C227 1.289 . S
C235 O236 1.245 . S
C235 O237 1.274 . S
O236 Mg223 2.079 . S
O236 C235 1.245 . S
O237 Mg222 2.038 . S
O237 C235 1.274 . S
O238 Mg226 2.042 . S
O238 C241 1.241 . S
O239 Mg225 1.984 . S
O239 C241 1.280 . S
O240 Mg226 2.041 . S
O240 C244 1.277 . S
C241 O238 1.241 . S
C241 O239 1.280 . S
O242 Mg225 1.988 . S
O242 C244 1.245 . S
O243 C219 1.247 . S
O243 Mg225 2.061 . S
C244 O240 1.277 . S
C244 O242 1.245 . S
O245 C219 1.289 . S
O245 Mg222 2.238 . S
O245 Mg223 2.106 . S
O246 Mg223 2.079 . S
O246 C228 1.245 . S
O247 Mg226 2.038 . S
O247 C228 1.274 . S
H248 C260 0.930 . S
H249 C262 0.930 . S
H250 C263 0.930 . S
H251 C267 0.959 . S
H252 C267 0.959 . S
H253 C267 0.961 . S
H254 C268 0.960 . S
H255 C268 0.961 . S
H256 C268 0.959 . S
H257 C271 0.929 . S
H258 C272 0.931 . S
H259 C274 0.930 . S
C260 H248 0.930 . S
C260 C261 1.399 . S
C260 C265 1.399 . S
C261 C260 1.399 . S
C261 C262 1.376 . S
C262 H249 0.930 . S
C262 C261 1.376 . S
C262 C263 1.388 . S
C263 H250 0.930 . S
C263 C262 1.388 . S
C263 C264 1.390 . S
C264 C263 1.390 . S
C264 C265 1.394 . S
C264 C270 1.465 . S
C265 C260 1.399 . S
C265 C264 1.394 . S
C265 C266 1.516 . S
C266 C265 1.516 . S
C266 C267 1.502 . S
C266 C268 1.561 . S
C266 C269 1.526 . S
C267 H251 0.959 . S
C267 H252 0.959 . S
C267 H253 0.961 . S
C267 C266 1.502 . S
C268 H254 0.960 . S
C268 H255 0.961 . S
C268 H256 0.959 . S
C268 C266 1.561 . S
C269 C266 1.526 . S
C269 C270 1.396 . S
C269 C274 1.390 . S
C270 C264 1.465 . S
C270 C269 1.396 . S
C270 C271 1.399 . S
C271 H257 0.929 . S
C271 C270 1.399 . S
C271 C272 1.385 . S
C272 H258 0.931 . S
C272 C271 1.385 . S
C272 C273 1.389 . S
C273 C272 1.389 . S
C273 C274 1.387 . S
C274 H259 0.930 . S
C274 C269 1.390 . S
C274 C273 1.387 . S
H275 C287 0.930 . S
H276 C289 0.930 . S
H277 C290 0.930 . S
H278 C294 0.959 . S
H279 C294 0.959 . S
H280 C294 0.961 1_556 S
H281 C295 0.960 . S
H282 C295 0.961 1_554 S
H283 C295 0.959 . S
H284 C298 0.929 . S
H285 C299 0.931 . S
H286 C301 0.930 . S
C287 H275 0.930 . S
C287 C288 1.399 . S
C287 C292 1.399 . S
C288 C287 1.399 . S
C288 C289 1.376 . S
C289 H276 0.930 . S
C289 C288 1.376 . S
C289 C290 1.388 . S
C290 H277 0.930 . S
C290 C289 1.388 . S
C290 C291 1.390 . S
C291 C290 1.390 . S
C291 C292 1.394 . S
C291 C297 1.465 . S
C292 C287 1.399 . S
C292 C291 1.394 . S
C292 C293 1.516 . S
C293 C292 1.516 . S
C293 C294 1.502 1_556 S
C293 C295 1.561 . S
C293 C296 1.526 1_556 S
C294 H278 0.959 . S
C294 H279 0.959 . S
C294 H280 0.961 1_554 S
C294 C293 1.502 1_554 S
C295 H281 0.960 . S
C295 H282 0.961 1_556 S
C295 H283 0.959 . S
C295 C293 1.561 . S
C296 C293 1.526 1_554 S
C296 C297 1.396 1_554 S
C296 C301 1.390 . S
C297 C291 1.465 . S
C297 C296 1.396 1_556 S
C297 C298 1.399 . S
C298 H284 0.929 . S
C298 C297 1.399 . S
C298 C299 1.385 1_556 S
C299 H285 0.931 . S
C299 C298 1.385 1_554 S
C299 C300 1.389 . S
C300 C299 1.389 . S
C300 C301 1.387 . S
C301 H286 0.930 . S
C301 C296 1.390 . S
C301 C300 1.387 . S
H302 C314 0.930 . S
H303 C316 0.930 . S
H304 C317 0.930 . S
H305 C321 0.959 . S
H306 C321 0.959 . S
H307 C321 0.961 . S
H308 C322 0.960 . S
H309 C322 0.961 . S
H310 C322 0.959 . S
H311 C325 0.929 . S
H312 C326 0.931 . S
H313 C328 0.930 . S
C314 H302 0.930 . S
C314 C315 1.399 . S
C314 C319 1.399 . S
C315 C314 1.399 . S
C315 C316 1.376 . S
C316 H303 0.930 . S
C316 C315 1.376 . S
C316 C317 1.388 . S
C317 H304 0.930 . S
C317 C316 1.388 . S
C317 C318 1.390 . S
C318 C317 1.390 . S
C318 C319 1.394 . S
C318 C324 1.465 . S
C319 C314 1.399 . S
C319 C318 1.394 . S
C319 C320 1.516 . S
C320 C319 1.516 . S
C320 C321 1.502 . S
C320 C322 1.561 . S
C320 C323 1.526 . S
C321 H305 0.959 . S
C321 H306 0.959 . S
C321 H307 0.961 . S
C321 C320 1.502 . S
C322 H308 0.960 . S
C322 H309 0.961 . S
C322 H310 0.959 . S
C322 C320 1.561 . S
C323 C320 1.526 . S
C323 C324 1.396 . S
C323 C328 1.390 . S
C324 C318 1.465 . S
C324 C323 1.396 . S
C324 C325 1.399 . S
C325 H311 0.929 . S
C325 C324 1.399 . S
C325 C326 1.385 . S
C326 H312 0.931 . S
C326 C325 1.385 . S
C326 C327 1.389 . S
C327 C326 1.389 . S
C327 C328 1.387 . S
C328 H313 0.930 . S
C328 C323 1.390 . S
C328 C327 1.387 . S
H329 C341 0.930 . S
H330 C343 0.930 . S
H331 C344 0.930 . S
H332 C348 0.959 . S
H333 C348 0.959 . S
H334 C348 0.961 . S
H335 C349 0.960 . S
H336 C349 0.961 . S
H337 C349 0.959 . S
H338 C352 0.929 . S
H339 C353 0.931 . S
H340 C355 0.930 . S
C341 H329 0.930 . S
C341 C342 1.399 . S
C341 C346 1.399 1_554 S
C342 C341 1.399 . S
C342 C343 1.376 . S
C343 H330 0.930 . S
C343 C342 1.376 . S
C343 C344 1.388 . S
C344 H331 0.930 . S
C344 C343 1.388 . S
C344 C345 1.390 1_554 S
C345 C344 1.390 1_556 S
C345 C346 1.394 . S
C345 C351 1.465 . S
C346 C341 1.399 1_556 S
C346 C345 1.394 . S
C346 C347 1.516 . S
C347 C346 1.516 . S
C347 C348 1.502 . S
C347 C349 1.561 . S
C347 C350 1.526 . S
C348 H332 0.959 . S
C348 H333 0.959 . S
C348 H334 0.961 . S
C348 C347 1.502 . S
C349 H335 0.960 . S
C349 H336 0.961 . S
C349 H337 0.959 . S
C349 C347 1.561 . S
C350 C347 1.526 . S
C350 C351 1.396 . S
C350 C355 1.390 . S
C351 C345 1.465 . S
C351 C350 1.396 . S
C351 C352 1.399 . S
C352 H338 0.929 . S
C352 C351 1.399 . S
C352 C353 1.385 . S
C353 H339 0.931 . S
C353 C352 1.385 . S
C353 C354 1.389 . S
C354 C353 1.389 . S
C354 C355 1.387 . S
C355 H340 0.930 . S
C355 C350 1.390 . S
C355 C354 1.387 . S
H356 C368 0.930 . S
H357 C370 0.930 . S
H358 C371 0.930 . S
H359 C375 0.959 . S
H360 C375 0.959 . S
H361 C375 0.961 . S
H362 C376 0.960 . S
H363 C376 0.961 . S
H364 C376 0.959 . S
H365 C379 0.929 . S
H366 C380 0.931 . S
H367 C382 0.930 . S
C368 H356 0.930 . S
C368 C369 1.399 . S
C368 C373 1.399 . S
C369 C368 1.399 . S
C369 C370 1.376 . S
C370 H357 0.930 . S
C370 C369 1.376 . S
C370 C371 1.388 . S
C371 H358 0.930 . S
C371 C370 1.388 . S
C371 C372 1.390 . S
C372 C371 1.390 . S
C372 C373 1.394 . S
C372 C378 1.465 . S
C373 C368 1.399 . S
C373 C372 1.394 . S
C373 C374 1.516 . S
C374 C373 1.516 . S
C374 C375 1.502 . S
C374 C376 1.561 . S
C374 C377 1.526 . S
C375 H359 0.959 . S
C375 H360 0.959 . S
C375 H361 0.961 . S
C375 C374 1.502 . S
C376 H362 0.960 . S
C376 H363 0.961 . S
C376 H364 0.959 . S
C376 C374 1.561 . S
C377 C374 1.526 . S
C377 C378 1.396 . S
C377 C382 1.390 . S
C378 C372 1.465 . S
C378 C377 1.396 . S
C378 C379 1.399 . S
C379 H365 0.929 . S
C379 C378 1.399 . S
C379 C380 1.385 . S
C380 H366 0.931 . S
C380 C379 1.385 . S
C380 C381 1.389 . S
C381 C380 1.389 . S
C381 C382 1.387 . S
C382 H367 0.930 . S
C382 C377 1.390 . S
C382 C381 1.387 . S
H383 C395 0.930 . S
H384 C397 0.930 . S
H385 C398 0.930 . S
H386 C402 0.959 . S
H387 C402 0.959 . S
H388 C402 0.961 . S
H389 C403 0.960 . S
H390 C403 0.961 . S
H391 C403 0.959 . S
H392 C406 0.929 . S
H393 C407 0.931 . S
H394 C409 0.930 . S
C395 H383 0.930 . S
C395 C396 1.399 . S
C395 C400 1.399 . S
C396 C395 1.399 . S
C396 C397 1.376 . S
C397 H384 0.930 . S
C397 C396 1.376 . S
C397 C398 1.388 . S
C398 H385 0.930 . S
C398 C397 1.388 . S
C398 C399 1.390 . S
C399 C398 1.390 . S
C399 C400 1.394 . S
C399 C405 1.465 . S
C400 C395 1.399 . S
C400 C399 1.394 . S
C400 C401 1.516 . S
C401 C400 1.516 . S
C401 C402 1.502 . S
C401 C403 1.561 . S
C401 C404 1.526 . S
C402 H386 0.959 . S
C402 H387 0.959 . S
C402 H388 0.961 . S
C402 C401 1.502 . S
C403 H389 0.960 . S
C403 H390 0.961 . S
C403 H391 0.959 . S
C403 C401 1.561 . S
C404 C401 1.526 . S
C404 C405 1.396 . S
C404 C409 1.390 1_554 S
C405 C399 1.465 . S
C405 C404 1.396 . S
C405 C406 1.399 1_554 S
C406 H392 0.929 . S
C406 C405 1.399 1_556 S
C406 C407 1.385 . S
C407 H393 0.931 . S
C407 C406 1.385 . S
C407 C408 1.389 . S
C408 C407 1.389 . S
C408 C409 1.387 . S
C409 H394 0.930 . S
C409 C404 1.390 1_556 S
C409 C408 1.387 . S
H410 C422 0.930 . S
H411 C424 0.930 . S
H412 C425 0.930 . S
H413 C429 0.959 . S
H414 C429 0.959 . S
H415 C429 0.961 . S
H416 C430 0.960 . S
H417 C430 0.961 . S
H418 C430 0.959 . S
H419 C433 0.929 . S
H420 C434 0.931 . S
H421 C436 0.930 . S
C422 H410 0.930 . S
C422 C423 1.399 . S
C422 C427 1.399 . S
C423 C422 1.399 . S
C423 C424 1.376 . S
C424 H411 0.930 . S
C424 C423 1.376 . S
C424 C425 1.388 . S
C425 H412 0.930 . S
C425 C424 1.388 . S
C425 C426 1.390 . S
C426 C425 1.390 . S
C426 C427 1.394 . S
C426 C432 1.465 . S
C427 C422 1.399 . S
C427 C426 1.394 . S
C427 C428 1.516 . S
C428 C427 1.516 . S
C428 C429 1.502 . S
C428 C430 1.561 . S
C428 C431 1.526 . S
C429 H413 0.959 . S
C429 H414 0.959 . S
C429 H415 0.961 . S
C429 C428 1.502 . S
C430 H416 0.960 . S
C430 H417 0.961 . S
C430 H418 0.959 . S
C430 C428 1.561 . S
C431 C428 1.526 . S
C431 C432 1.396 . S
C431 C436 1.390 . S
C432 C426 1.465 . S
C432 C431 1.396 . S
C432 C433 1.399 . S
C433 H419 0.929 . S
C433 C432 1.399 . S
C433 C434 1.385 . S
C434 H420 0.931 . S
C434 C433 1.385 . S
C434 C435 1.389 . S
C435 C434 1.389 . S
C435 C436 1.387 . S
C436 H421 0.930 . S
C436 C431 1.390 . S
C436 C435 1.387 . S
H437 C449 0.930 . S
H438 C451 0.930 . S
H439 C452 0.930 . S
H440 C456 0.959 . S
H441 C456 0.959 . S
H442 C456 0.961 . S
H443 C457 0.960 . S
H444 C457 0.961 . S
H445 C457 0.959 . S
H446 C460 0.929 . S
H447 C461 0.931 . S
H448 C463 0.930 . S
C449 H437 0.930 . S
C449 C450 1.399 . S
C449 C454 1.399 . S
C450 C449 1.399 . S
C450 C451 1.376 . S
C451 H438 0.930 . S
C451 C450 1.376 . S
C451 C452 1.388 . S
C452 H439 0.930 . S
C452 C451 1.388 . S
C452 C453 1.390 . S
C453 C452 1.390 . S
C453 C454 1.394 . S
C453 C459 1.465 . S
C454 C449 1.399 . S
C454 C453 1.394 . S
C454 C455 1.516 . S
C455 C454 1.516 . S
C455 C456 1.502 . S
C455 C457 1.561 . S
C455 C458 1.526 . S
C456 H440 0.959 . S
C456 H441 0.959 . S
C456 H442 0.961 . S
C456 C455 1.502 . S
C457 H443 0.960 . S
C457 H444 0.961 . S
C457 H445 0.959 . S
C457 C455 1.561 . S
C458 C455 1.526 . S
C458 C459 1.396 . S
C458 C463 1.390 1_554 S
C459 C453 1.465 . S
C459 C458 1.396 . S
C459 C460 1.399 1_554 S
C460 H446 0.929 . S
C460 C459 1.399 1_556 S
C460 C461 1.385 . S
C461 H447 0.931 . S
C461 C460 1.385 . S
C461 C462 1.389 . S
C462 C461 1.389 . S
C462 C463 1.387 . S
C463 H448 0.930 . S
C463 C458 1.390 1_556 S
C463 C462 1.387 . S
H464 C476 0.930 . S
H465 C478 0.930 . S
H466 C479 0.930 . S
H467 C483 0.959 . S
H468 C483 0.959 . S
H469 C483 0.961 . S
H470 C484 0.960 . S
H471 C484 0.961 . S
H472 C484 0.959 . S
H473 C487 0.929 . S
H474 C488 0.931 . S
H475 C490 0.930 . S
C476 H464 0.930 . S
C476 C477 1.399 . S
C476 C481 1.399 . S
C477 C476 1.399 . S
C477 C478 1.376 1_554 S
C478 H465 0.930 . S
C478 C477 1.376 1_556 S
C478 C479 1.388 . S
C479 H466 0.930 . S
C479 C478 1.388 . S
C479 C480 1.390 . S
C480 C479 1.390 . S
C480 C481 1.394 1_556 S
C480 C486 1.465 . S
C481 C476 1.399 . S
C481 C480 1.394 1_554 S
C481 C482 1.516 . S
C482 C481 1.516 . S
C482 C483 1.502 . S
C482 C484 1.561 . S
C482 C485 1.526 . S
C483 H467 0.959 . S
C483 H468 0.959 . S
C483 H469 0.961 . S
C483 C482 1.502 . S
C484 H470 0.960 . S
C484 H471 0.961 . S
C484 H472 0.959 . S
C484 C482 1.561 . S
C485 C482 1.526 . S
C485 C486 1.396 1_554 S
C485 C490 1.390 . S
C486 C480 1.465 . S
C486 C485 1.396 1_556 S
C486 C487 1.399 . S
C487 H473 0.929 . S
C487 C486 1.399 . S
C487 C488 1.385 . S
C488 H474 0.931 . S
C488 C487 1.385 . S
C488 C489 1.389 . S
C489 C488 1.389 . S
C489 C490 1.387 1_556 S
C490 H475 0.930 . S
C490 C485 1.390 . S
C490 C489 1.387 1_554 S
H491 C503 0.930 . S
H492 C505 0.930 . S
H493 C506 0.930 . S
H494 C510 0.959 . S
H495 C510 0.959 . S
H496 C510 0.961 . S
H497 C511 0.960 . S
H498 C511 0.961 . S
H499 C511 0.959 . S
H500 C514 0.929 . S
H501 C515 0.931 . S
H502 C517 0.930 . S
C503 H491 0.930 . S
C503 C504 1.399 . S
C503 C508 1.399 . S
C504 C503 1.399 . S
C504 C505 1.376 1_545 S
C505 H492 0.930 . S
C505 C504 1.376 1_565 S
C505 C506 1.388 . S
C506 H493 0.930 . S
C506 C505 1.388 . S
C506 C507 1.390 . S
C507 C506 1.390 . S
C507 C508 1.394 1_565 S
C507 C513 1.465 . S
C508 C503 1.399 . S
C508 C507 1.394 1_545 S
C508 C509 1.516 . S
C509 C508 1.516 . S
C509 C510 1.502 . S
C509 C511 1.561 . S
C509 C512 1.526 . S
C510 H494 0.959 . S
C510 H495 0.959 . S
C510 H496 0.961 . S
C510 C509 1.502 . S
C511 H497 0.960 . S
C511 H498 0.961 . S
C511 H499 0.959 . S
C511 C509 1.561 . S
C512 C509 1.526 . S
C512 C513 1.396 1_545 S
C512 C517 1.390 . S
C513 C507 1.465 . S
C513 C512 1.396 1_565 S
C513 C514 1.399 . S
C514 H500 0.929 . S
C514 C513 1.399 . S
C514 C515 1.385 . S
C515 H501 0.931 . S
C515 C514 1.385 . S
C515 C516 1.389 . S
C516 C515 1.389 . S
C516 C517 1.387 1_565 S
C517 H502 0.930 . S
C517 C512 1.390 . S
C517 C516 1.387 1_545 S
H518 C530 0.930 . S
H519 C532 0.930 . S
H520 C533 0.930 . S
H521 C537 0.959 . S
H522 C537 0.959 . S
H523 C537 0.961 1_545 S
H524 C538 0.961 1_545 S
H525 C538 0.963 . S
H526 C538 0.953 1_655 S
H527 C541 0.929 . S
H528 C542 0.931 . S
H529 C544 0.930 . S
C530 H518 0.930 . S
C530 C531 1.399 1_455 S
C530 C535 1.399 . S
C531 C530 1.399 1_655 S
C531 C532 1.376 1_554 S
C532 H519 0.930 . S
C532 C531 1.376 1_556 S
C532 C533 1.388 . S
C533 H520 0.930 . S
C533 C532 1.388 . S
C533 C534 1.390 . S
C534 C533 1.390 . S
C534 C535 1.394 1_656 S
C534 C540 1.465 1_545 S
C535 C530 1.399 . S
C535 C534 1.394 1_454 S
C535 C536 1.516 1_545 S
C536 C535 1.516 1_565 S
C536 C537 1.502 . S
C536 C538 1.564 . S
C536 C539 1.526 . S
C537 H521 0.959 . S
C537 H522 0.959 . S
C537 H523 0.961 1_565 S
C537 C536 1.502 . S
C538 H524 0.961 1_565 S
C538 H525 0.963 . S
C538 H526 0.953 1_455 S
C538 C536 1.564 . S
C539 C536 1.526 . S
C539 C540 1.396 1_454 S
C539 C544 1.390 . S
C540 C534 1.465 1_565 S
C540 C539 1.396 1_656 S
C540 C541 1.399 . S
C541 H527 0.929 . S
C541 C540 1.399 . S
C541 C542 1.385 . S
C542 H528 0.931 . S
C542 C541 1.385 . S
C542 C543 1.389 1_655 S
C543 C542 1.389 1_455 S
C543 C544 1.387 1_556 S
C544 H529 0.930 . S
C544 C539 1.390 . S
C544 C543 1.387 1_554 S
H545 C557 0.930 . S
H546 C559 0.930 . S
H547 C560 0.930 . S
H548 C564 0.959 . S
H549 C564 0.959 1_455 S
H550 C564 0.961 . S
H551 C565 0.960 1_655 S
H552 C565 0.961 . S
H553 C565 0.959 . S
H554 C568 0.929 . S
H555 C569 0.931 . S
H556 C571 0.930 . S
C557 H545 0.930 . S
C557 C558 1.399 . S
C557 C562 1.399 . S
C558 C557 1.399 . S
C558 C559 1.376 . S
C559 H546 0.930 . S
C559 C558 1.376 . S
C559 C560 1.388 . S
C560 H547 0.930 . S
C560 C559 1.388 . S
C560 C561 1.390 . S
C561 C560 1.390 . S
C561 C562 1.394 . S
C561 C567 1.465 1_655 S
C562 C557 1.399 . S
C562 C561 1.394 . S
C562 C563 1.515 . S
C563 C562 1.515 . S
C563 C564 1.502 . S
C563 C565 1.561 1_655 S
C563 C566 1.527 1_655 S
C564 H548 0.959 . S
C564 H549 0.959 1_655 S
C564 H550 0.961 . S
C564 C563 1.502 . S
C565 H551 0.960 1_455 S
C565 H552 0.961 . S
C565 H553 0.959 . S
C565 C563 1.561 1_455 S
C566 C563 1.527 1_455 S
C566 C567 1.396 . S
C566 C571 1.390 . S
C567 C561 1.465 1_455 S
C567 C566 1.396 . S
C567 C568 1.399 . S
C568 H554 0.929 . S
C568 C567 1.399 . S
C568 C569 1.385 . S
C569 H555 0.931 . S
C569 C568 1.385 . S
C569 C570 1.389 . S
C570 C569 1.389 . S
C570 C571 1.387 . S
C571 H556 0.930 . S
C571 C566 1.390 . S
C571 C570 1.387 . S
H572 C584 0.930 . S
H573 C586 0.930 . S
H574 C587 0.930 . S
H575 C591 0.959 . S
H576 C591 0.959 . S
H577 C591 0.961 . S
H578 C592 0.960 . S
H579 C592 0.961 . S
H580 C592 0.959 . S
H581 C595 0.929 . S
H582 C596 0.931 . S
H583 C598 0.930 . S
C584 H572 0.930 . S
C584 C585 1.399 . S
C584 C589 1.399 . S
C585 C584 1.399 . S
C585 C586 1.376 . S
C586 H573 0.930 . S
C586 C585 1.376 . S
C586 C587 1.388 . S
C587 H574 0.930 . S
C587 C586 1.388 . S
C587 C588 1.390 . S
C588 C587 1.390 . S
C588 C589 1.394 . S
C588 C594 1.465 . S
C589 C584 1.399 . S
C589 C588 1.394 . S
C589 C590 1.516 . S
C590 C589 1.516 . S
C590 C591 1.502 . S
C590 C592 1.561 . S
C590 C593 1.526 . S
C591 H575 0.959 . S
C591 H576 0.959 . S
C591 H577 0.961 . S
C591 C590 1.502 . S
C592 H578 0.960 . S
C592 H579 0.961 . S
C592 H580 0.959 . S
C592 C590 1.561 . S
C593 C590 1.526 . S
C593 C594 1.396 . S
C593 C598 1.390 . S
C594 C588 1.465 . S
C594 C593 1.396 . S
C594 C595 1.399 . S
C595 H581 0.929 . S
C595 C594 1.399 . S
C595 C596 1.385 . S
C596 H582 0.931 . S
C596 C595 1.385 . S
C596 C597 1.389 . S
C597 C596 1.389 . S
C597 C598 1.387 . S
C598 H583 0.930 . S
C598 C593 1.390 . S
C598 C597 1.387 . S
H599 C611 0.930 . S
H600 C613 0.930 . S
H601 C614 0.930 . S
H602 C618 0.959 . S
H603 C618 0.959 . S
H604 C618 0.961 . S
H605 C619 0.960 . S
H606 C619 0.961 . S
H607 C619 0.959 . S
H608 C622 0.929 . S
H609 C623 0.931 . S
H610 C625 0.930 . S
C611 H599 0.930 . S
C611 C612 1.399 . S
C611 C616 1.399 . S
C612 C611 1.399 . S
C612 C613 1.376 . S
C613 H600 0.930 . S
C613 C612 1.376 . S
C613 C614 1.388 . S
C614 H601 0.930 . S
C614 C613 1.388 . S
C614 C615 1.390 . S
C615 C614 1.390 . S
C615 C616 1.394 . S
C615 C621 1.465 . S
C616 C611 1.399 . S
C616 C615 1.394 . S
C616 C617 1.516 . S
C617 C616 1.516 . S
C617 C618 1.502 . S
C617 C619 1.561 . S
C617 C620 1.526 . S
C618 H602 0.959 . S
C618 H603 0.959 . S
C618 H604 0.961 . S
C618 C617 1.502 . S
C619 H605 0.960 . S
C619 H606 0.961 . S
C619 H607 0.959 . S
C619 C617 1.561 . S
C620 C617 1.526 . S
C620 C621 1.396 . S
C620 C625 1.390 . S
C621 C615 1.465 . S
C621 C620 1.396 . S
C621 C622 1.399 . S
C622 H608 0.929 . S
C622 C621 1.399 . S
C622 C623 1.385 . S
C623 H609 0.931 . S
C623 C622 1.385 . S
C623 C624 1.389 . S
C624 C623 1.389 . S
C624 C625 1.387 . S
C625 H610 0.930 . S
C625 C620 1.390 . S
C625 C624 1.387 . S
H626 C638 0.930 . S
H627 C640 0.930 . S
H628 C641 0.930 . S
H629 C645 0.959 . S
H630 C645 0.959 . S
H631 C645 0.961 . S
H632 C646 0.960 . S
H633 C646 0.961 . S
H634 C646 0.959 . S
H635 C649 0.929 . S
H636 C650 0.931 . S
H637 C652 0.930 . S
C638 H626 0.930 . S
C638 C639 1.399 . S
C638 C643 1.399 . S
C639 C638 1.399 . S
C639 C640 1.376 . S
C640 H627 0.930 . S
C640 C639 1.376 . S
C640 C641 1.388 . S
C641 H628 0.930 . S
C641 C640 1.388 . S
C641 C642 1.390 . S
C642 C641 1.390 . S
C642 C643 1.394 . S
C642 C648 1.465 . S
C643 C638 1.399 . S
C643 C642 1.394 . S
C643 C644 1.516 . S
C644 C643 1.516 . S
C644 C645 1.502 . S
C644 C646 1.561 . S
C644 C647 1.526 . S
C645 H629 0.959 . S
C645 H630 0.959 . S
C645 H631 0.961 . S
C645 C644 1.502 . S
C646 H632 0.960 . S
C646 H633 0.961 . S
C646 H634 0.959 . S
C646 C644 1.561 . S
C647 C644 1.526 . S
C647 C648 1.396 . S
C647 C652 1.390 . S
C648 C642 1.465 . S
C648 C647 1.396 . S
C648 C649 1.399 . S
C649 H635 0.929 . S
C649 C648 1.399 . S
C649 C650 1.385 . S
C650 H636 0.931 . S
C650 C649 1.385 . S
C650 C651 1.389 . S
C651 C650 1.389 . S
C651 C652 1.387 . S
C652 H637 0.930 . S
C652 C647 1.390 . S
C652 C651 1.387 . S
H653 C665 0.930 . S
H654 C667 0.930 . S
H655 C668 0.930 . S
H656 C672 0.959 . S
H657 C672 0.959 . S
H658 C672 0.961 . S
H659 C673 0.960 . S
H660 C673 0.961 . S
H661 C673 0.959 . S
H662 C676 0.929 . S
H663 C677 0.931 . S
H664 C679 0.930 . S
C665 H653 0.930 . S
C665 C666 1.399 . S
C665 C670 1.399 . S
C666 C665 1.399 . S
C666 C667 1.376 . S
C667 H654 0.930 . S
C667 C666 1.376 . S
C667 C668 1.388 . S
C668 H655 0.930 . S
C668 C667 1.388 . S
C668 C669 1.390 . S
C669 C668 1.390 . S
C669 C670 1.394 . S
C669 C675 1.465 . S
C670 C665 1.399 . S
C670 C669 1.394 . S
C670 C671 1.516 . S
C671 C670 1.516 . S
C671 C672 1.502 . S
C671 C673 1.561 . S
C671 C674 1.526 . S
C672 H656 0.959 . S
C672 H657 0.959 . S
C672 H658 0.961 . S
C672 C671 1.502 . S
C673 H659 0.960 . S
C673 H660 0.961 . S
C673 H661 0.959 . S
C673 C671 1.561 . S
C674 C671 1.526 . S
C674 C675 1.396 . S
C674 C679 1.390 . S
C675 C669 1.465 . S
C675 C674 1.396 . S
C675 C676 1.399 . S
C676 H662 0.929 . S
C676 C675 1.399 . S
C676 C677 1.385 . S
C677 H663 0.931 . S
C677 C676 1.385 . S
C677 C678 1.389 . S
C678 C677 1.389 . S
C678 C679 1.387 . S
C679 H664 0.930 . S
C679 C674 1.390 . S
C679 C678 1.387 . S
H680 C692 0.930 . S
H681 C694 0.930 . S
H682 C695 0.930 . S
H683 C699 0.959 . S
H684 C699 0.957 1_556 S
H685 C699 0.961 . S
H686 C700 0.960 . S
H687 C700 0.961 . S
H688 C700 0.959 . S
H689 C703 0.929 . S
H690 C704 0.931 . S
H691 C706 0.930 . S
C692 H680 0.930 . S
C692 C693 1.399 . S
C692 C697 1.399 1_554 S
C693 C692 1.399 . S
C693 C694 1.376 1_554 S
C694 H681 0.930 . S
C694 C693 1.376 1_556 S
C694 C695 1.388 . S
C695 H682 0.930 . S
C695 C694 1.388 . S
C695 C696 1.390 . S
C696 C695 1.390 . S
C696 C697 1.394 . S
C696 C702 1.465 . S
C697 C692 1.399 1_556 S
C697 C696 1.394 . S
C697 C698 1.516 . S
C698 C697 1.516 . S
C698 C699 1.502 1_556 S
C698 C700 1.561 . S
C698 C701 1.526 . S
C699 H683 0.959 . S
C699 H684 0.957 1_554 S
C699 H685 0.961 . S
C699 C698 1.502 1_554 S
C700 H686 0.960 . S
C700 H687 0.961 . S
C700 H688 0.959 . S
C700 C698 1.561 . S
C701 C698 1.526 . S
C701 C702 1.396 . S
C701 C706 1.390 . S
C702 C696 1.465 . S
C702 C701 1.396 . S
C702 C703 1.399 . S
C703 H689 0.929 . S
C703 C702 1.399 . S
C703 C704 1.385 . S
C704 H690 0.931 . S
C704 C703 1.385 . S
C704 C705 1.389 . S
C705 C704 1.389 . S
C705 C706 1.387 . S
C706 H691 0.930 . S
C706 C701 1.390 . S
C706 C705 1.387 . S
H707 C719 0.930 . S
H708 C721 0.930 . S
H709 C722 0.930 . S
H710 C726 0.959 . S
H711 C726 0.959 . S
H712 C726 0.961 . S
H713 C727 0.960 . S
H714 C727 0.961 . S
H715 C727 0.959 . S
H716 C730 0.929 . S
H717 C731 0.931 . S
H718 C733 0.930 . S
C719 H707 0.930 . S
C719 C720 1.399 . S
C719 C724 1.399 . S
C720 C719 1.399 . S
C720 C721 1.376 . S
C721 H708 0.930 . S
C721 C720 1.376 . S
C721 C722 1.388 . S
C722 H709 0.930 . S
C722 C721 1.388 . S
C722 C723 1.390 . S
C723 C722 1.390 . S
C723 C724 1.394 . S
C723 C729 1.465 . S
C724 C719 1.399 . S
C724 C723 1.394 . S
C724 C725 1.516 . S
C725 C724 1.516 . S
C725 C726 1.502 . S
C725 C727 1.561 . S
C725 C728 1.526 . S
C726 H710 0.959 . S
C726 H711 0.959 . S
C726 H712 0.961 . S
C726 C725 1.502 . S
C727 H713 0.960 . S
C727 H714 0.961 . S
C727 H715 0.959 . S
C727 C725 1.561 . S
C728 C725 1.526 . S
C728 C729 1.396 . S
C728 C733 1.390 . S
C729 C723 1.465 . S
C729 C728 1.396 . S
C729 C730 1.399 . S
C730 H716 0.929 . S
C730 C729 1.399 . S
C730 C731 1.385 . S
C731 H717 0.931 . S
C731 C730 1.385 . S
C731 C732 1.389 . S
C732 C731 1.389 . S
C732 C733 1.387 . S
C733 H718 0.930 . S
C733 C728 1.390 . S
C733 C732 1.387 . S
H734 C746 0.930 . S
H735 C748 0.930 . S
H736 C749 0.930 . S
H737 C753 0.959 . S
H738 C753 0.959 . S
H739 C753 0.961 . S
H740 C754 0.960 . S
H741 C754 0.961 . S
H742 C754 0.959 . S
H743 C757 0.929 . S
H744 C758 0.931 . S
H745 C760 0.930 . S
C746 H734 0.930 . S
C746 C747 1.399 . S
C746 C751 1.399 . S
C747 C746 1.399 . S
C747 C748 1.376 . S
C748 H735 0.930 . S
C748 C747 1.376 . S
C748 C749 1.388 . S
C749 H736 0.930 . S
C749 C748 1.388 . S
C749 C750 1.390 . S
C750 C749 1.390 . S
C750 C751 1.394 . S
C750 C756 1.465 . S
C751 C746 1.399 . S
C751 C750 1.394 . S
C751 C752 1.516 . S
C752 C751 1.516 . S
C752 C753 1.502 . S
C752 C754 1.561 . S
C752 C755 1.526 . S
C753 H737 0.959 . S
C753 H738 0.959 . S
C753 H739 0.961 . S
C753 C752 1.502 . S
C754 H740 0.960 . S
C754 H741 0.961 . S
C754 H742 0.959 . S
C754 C752 1.561 . S
C755 C752 1.526 . S
C755 C756 1.396 . S
C755 C760 1.390 . S
C756 C750 1.465 . S
C756 C755 1.396 . S
C756 C757 1.399 1_556 S
C757 H743 0.929 . S
C757 C756 1.399 1_554 S
C757 C758 1.385 . S
C758 H744 0.931 . S
C758 C757 1.385 . S
C758 C759 1.389 . S
C759 C758 1.389 . S
C759 C760 1.387 1_554 S
C760 H745 0.930 . S
C760 C755 1.390 . S
C760 C759 1.387 1_556 S
H761 C773 0.930 . S
H762 C775 0.930 . S
H763 C776 0.930 . S
H764 C780 0.959 . S
H765 C780 0.959 . S
H766 C780 0.961 . S
H767 C781 0.960 . S
H768 C781 0.961 . S
H769 C781 0.959 . S
H770 C784 0.929 . S
H771 C785 0.931 . S
H772 C787 0.930 . S
C773 H761 0.930 . S
C773 C774 1.399 . S
C773 C778 1.399 . S
C774 C773 1.399 . S
C774 C775 1.376 . S
C775 H762 0.930 . S
C775 C774 1.376 . S
C775 C776 1.388 . S
C776 H763 0.930 . S
C776 C775 1.388 . S
C776 C777 1.390 . S
C777 C776 1.390 . S
C777 C778 1.394 . S
C777 C783 1.465 . S
C778 C773 1.399 . S
C778 C777 1.394 . S
C778 C779 1.516 . S
C779 C778 1.516 . S
C779 C780 1.502 . S
C779 C781 1.561 . S
C779 C782 1.526 . S
C780 H764 0.959 . S
C780 H765 0.959 . S
C780 H766 0.961 . S
C780 C779 1.502 . S
C781 H767 0.960 . S
C781 H768 0.961 . S
C781 H769 0.959 . S
C781 C779 1.561 . S
C782 C779 1.526 . S
C782 C783 1.396 . S
C782 C787 1.390 . S
C783 C777 1.465 . S
C783 C782 1.396 . S
C783 C784 1.399 . S
C784 H770 0.929 . S
C784 C783 1.399 . S
C784 C785 1.385 . S
C785 H771 0.931 . S
C785 C784 1.385 . S
C785 C786 1.389 . S
C786 C785 1.389 . S
C786 C787 1.387 . S
C787 H772 0.930 . S
C787 C782 1.390 . S
C787 C786 1.387 . S
H788 C800 0.930 . S
H789 C802 0.930 . S
H790 C803 0.930 . S
H791 C807 0.959 . S
H792 C807 0.959 . S
H793 C807 0.961 . S
H794 C808 0.960 . S
H795 C808 0.961 . S
H796 C808 0.959 . S
H797 C811 0.929 . S
H798 C812 0.931 . S
H799 C814 0.930 . S
C800 H788 0.930 . S
C800 C801 1.399 1_554 S
C800 C805 1.399 . S
C801 C800 1.399 1_556 S
C801 C802 1.376 . S
C802 H789 0.930 . S
C802 C801 1.376 . S
C802 C803 1.388 1_556 S
C803 H790 0.930 . S
C803 C802 1.388 1_554 S
C803 C804 1.390 . S
C804 C803 1.390 . S
C804 C805 1.394 . S
C804 C810 1.465 . S
C805 C800 1.399 . S
C805 C804 1.394 . S
C805 C806 1.516 . S
C806 C805 1.516 . S
C806 C807 1.502 . S
C806 C808 1.561 . S
C806 C809 1.526 . S
C807 H791 0.959 . S
C807 H792 0.959 . S
C807 H793 0.961 . S
C807 C806 1.502 . S
C808 H794 0.960 . S
C808 H795 0.961 . S
C808 H796 0.959 . S
C808 C806 1.561 . S
C809 C806 1.526 . S
C809 C810 1.396 . S
C809 C814 1.390 . S
C810 C804 1.465 . S
C810 C809 1.396 . S
C810 C811 1.399 . S
C811 H797 0.929 . S
C811 C810 1.399 . S
C811 C812 1.385 . S
C812 H798 0.931 . S
C812 C811 1.385 . S
C812 C813 1.389 . S
C813 C812 1.389 . S
C813 C814 1.387 . S
C814 H799 0.930 . S
C814 C809 1.390 . S
C814 C813 1.387 . S
H815 C827 0.930 . S
H816 C829 0.930 . S
H817 C830 0.930 . S
H818 C834 0.959 . S
H819 C834 0.959 . S
H820 C834 0.961 . S
H821 C835 0.960 . S
H822 C835 0.961 . S
H823 C835 0.959 . S
H824 C838 0.929 . S
H825 C839 0.931 . S
H826 C841 0.930 . S
C827 H815 0.930 . S
C827 C828 1.399 . S
C827 C832 1.399 . S
C828 C827 1.399 . S
C828 C829 1.376 . S
C829 H816 0.930 . S
C829 C828 1.376 . S
C829 C830 1.388 . S
C830 H817 0.930 . S
C830 C829 1.388 . S
C830 C831 1.390 . S
C831 C830 1.390 . S
C831 C832 1.394 . S
C831 C837 1.465 . S
C832 C827 1.399 . S
C832 C831 1.394 . S
C832 C833 1.516 . S
C833 C832 1.516 . S
C833 C834 1.502 . S
C833 C835 1.561 . S
C833 C836 1.526 . S
C834 H818 0.959 . S
C834 H819 0.959 . S
C834 H820 0.961 . S
C834 C833 1.502 . S
C835 H821 0.960 . S
C835 H822 0.961 . S
C835 H823 0.959 . S
C835 C833 1.561 . S
C836 C833 1.526 . S
C836 C837 1.396 . S
C836 C841 1.390 . S
C837 C831 1.465 . S
C837 C836 1.396 . S
C837 C838 1.399 . S
C838 H824 0.929 . S
C838 C837 1.399 . S
C838 C839 1.385 . S
C839 H825 0.931 . S
C839 C838 1.385 . S
C839 C840 1.389 . S
C840 C839 1.389 . S
C840 C841 1.387 . S
C841 H826 0.930 . S
C841 C836 1.390 . S
C841 C840 1.387 . S
H842 C854 0.930 . S
H843 C856 0.930 . S
H844 C857 0.930 . S
H845 C861 0.959 . S
H846 C861 0.959 . S
H847 C861 0.961 . S
H848 C862 0.960 . S
H849 C862 0.961 . S
H850 C862 0.959 . S
H851 C865 0.929 . S
H852 C866 0.931 . S
H853 C868 0.930 . S
C854 H842 0.930 . S
C854 C855 1.399 . S
C854 C859 1.399 . S
C855 C854 1.399 . S
C855 C856 1.376 . S
C856 H843 0.930 . S
C856 C855 1.376 . S
C856 C857 1.388 . S
C857 H844 0.930 . S
C857 C856 1.388 . S
C857 C858 1.390 . S
C858 C857 1.390 . S
C858 C859 1.394 . S
C858 C864 1.465 . S
C859 C854 1.399 . S
C859 C858 1.394 . S
C859 C860 1.516 . S
C860 C859 1.516 . S
C860 C861 1.502 . S
C860 C862 1.561 . S
C860 C863 1.526 . S
C861 H845 0.959 . S
C861 H846 0.959 . S
C861 H847 0.961 . S
C861 C860 1.502 . S
C862 H848 0.960 . S
C862 H849 0.961 . S
C862 H850 0.959 . S
C862 C860 1.561 . S
C863 C860 1.526 . S
C863 C864 1.396 . S
C863 C868 1.390 . S
C864 C858 1.465 . S
C864 C863 1.396 . S
C864 C865 1.399 1_554 S
C865 H851 0.929 . S
C865 C864 1.399 1_556 S
C865 C866 1.385 . S
C866 H852 0.931 . S
C866 C865 1.385 . S
C866 C867 1.389 . S
C867 C866 1.389 . S
C867 C868 1.387 1_556 S
C868 H853 0.930 . S
C868 C863 1.390 . S
C868 C867 1.387 1_554 S
H869 C881 0.930 . S
H870 C883 0.930 . S
H871 C884 0.930 . S
H872 C888 0.959 . S
H873 C888 0.959 . S
H874 C888 0.961 . S
H875 C889 0.960 . S
H876 C889 0.961 . S
H877 C889 0.959 . S
H878 C892 0.929 . S
H879 C893 0.931 . S
H880 C895 0.930 . S
C881 H869 0.930 . S
C881 C882 1.399 . S
C881 C886 1.399 . S
C882 C881 1.399 . S
C882 C883 1.376 . S
C883 H870 0.930 . S
C883 C882 1.376 . S
C883 C884 1.388 . S
C884 H871 0.930 . S
C884 C883 1.388 . S
C884 C885 1.390 . S
C885 C884 1.390 . S
C885 C886 1.394 . S
C885 C891 1.465 . S
C886 C881 1.399 . S
C886 C885 1.394 . S
C886 C887 1.516 . S
C887 C886 1.516 . S
C887 C888 1.502 . S
C887 C889 1.561 . S
C887 C890 1.526 . S
C888 H872 0.959 . S
C888 H873 0.959 . S
C888 H874 0.961 . S
C888 C887 1.502 . S
C889 H875 0.960 . S
C889 H876 0.961 . S
C889 H877 0.959 . S
C889 C887 1.561 . S
C890 C887 1.526 . S
C890 C891 1.396 . S
C890 C895 1.390 . S
C891 C885 1.465 . S
C891 C890 1.396 . S
C891 C892 1.399 . S
C892 H878 0.929 . S
C892 C891 1.399 . S
C892 C893 1.385 . S
C893 H879 0.931 . S
C893 C892 1.385 . S
C893 C894 1.389 . S
C894 C893 1.389 . S
C894 C895 1.387 . S
C895 H880 0.930 . S
C895 C890 1.390 . S
C895 C894 1.387 . S
H896 C908 0.930 . S
H897 C910 0.930 . S
H898 C911 0.930 . S
H899 C915 0.959 . S
H900 C915 0.959 . S
H901 C915 0.961 . S
H902 C916 0.960 . S
H903 C916 0.961 . S
H904 C916 0.959 . S
H905 C919 0.929 . S
H906 C920 0.931 . S
H907 C922 0.930 . S
C908 H896 0.930 . S
C908 C909 1.399 . S
C908 C913 1.399 . S
C909 C908 1.399 . S
C909 C910 1.376 . S
C910 H897 0.930 . S
C910 C909 1.376 . S
C910 C911 1.388 . S
C911 H898 0.930 . S
C911 C910 1.388 . S
C911 C912 1.390 . S
C912 C911 1.390 . S
C912 C913 1.394 . S
C912 C918 1.465 . S
C913 C908 1.399 . S
C913 C912 1.394 . S
C913 C914 1.516 . S
C914 C913 1.516 . S
C914 C915 1.502 . S
C914 C916 1.561 . S
C914 C917 1.526 . S
C915 H899 0.959 . S
C915 H900 0.959 . S
C915 H901 0.961 . S
C915 C914 1.502 . S
C916 H902 0.960 . S
C916 H903 0.961 . S
C916 H904 0.959 . S
C916 C914 1.561 . S
C917 C914 1.526 . S
C917 C918 1.396 . S
C917 C922 1.390 . S
C918 C912 1.465 . S
C918 C917 1.396 . S
C918 C919 1.399 . S
C919 H905 0.929 . S
C919 C918 1.399 . S
C919 C920 1.385 . S
C920 H906 0.931 . S
C920 C919 1.385 . S
C920 C921 1.389 . S
C921 C920 1.389 . S
C921 C922 1.387 . S
C922 H907 0.930 . S
C922 C917 1.390 . S
C922 C921 1.387 . S
H923 C935 0.930 . S
H924 C937 0.930 . S
H925 C938 0.930 . S
H926 C942 0.959 . S
H927 C942 0.959 . S
H928 C942 0.988 . S
H929 C943 0.960 . S
H930 C943 0.961 . S
H931 C943 0.959 . S
H932 C946 0.929 . S
H933 C947 0.931 . S
H934 C949 0.930 . S
C935 H923 0.930 . S
C935 C936 1.399 . S
C935 C940 1.399 . S
C936 C935 1.399 . S
C936 C937 1.376 . S
C937 H924 0.930 . S
C937 C936 1.376 . S
C937 C938 1.388 . S
C938 H925 0.930 . S
C938 C937 1.388 . S
C938 C939 1.390 . S
C939 C938 1.390 . S
C939 C940 1.394 . S
C939 C945 1.465 . S
C940 C935 1.399 . S
C940 C939 1.394 . S
C940 C941 1.516 . S
C941 C940 1.516 . S
C941 C942 1.502 . S
C941 C943 1.561 . S
C941 C944 1.526 . S
C942 H926 0.959 . S
C942 H927 0.959 . S
C942 H928 0.988 . S
C942 C941 1.502 . S
C943 H929 0.960 . S
C943 H930 0.961 . S
C943 H931 0.959 . S
C943 C941 1.561 . S
C944 C941 1.526 . S
C944 C945 1.396 . S
C944 C949 1.390 . S
C945 C939 1.465 . S
C945 C944 1.396 . S
C945 C946 1.399 . S
C946 H932 0.929 . S
C946 C945 1.399 . S
C946 C947 1.385 . S
C947 H933 0.931 . S
C947 C946 1.385 . S
C947 C948 1.389 . S
C948 C947 1.389 . S
C948 C949 1.387 . S
C949 H934 0.930 . S
C949 C944 1.390 . S
C949 C948 1.387 . S
H950 C962 0.930 . S
H951 C964 0.930 . S
H952 C965 0.930 . S
H953 C969 0.959 . S
H954 C969 0.959 . S
H955 C969 0.961 . S
H956 C970 0.960 . S
H957 C970 0.961 . S
H958 C970 0.959 . S
H959 C973 0.929 . S
H960 C974 0.931 . S
H961 C976 0.930 . S
C962 H950 0.930 . S
C962 C963 1.399 . S
C962 C967 1.399 . S
C963 C962 1.399 . S
C963 C964 1.376 . S
C964 H951 0.930 . S
C964 C963 1.376 . S
C964 C965 1.388 . S
C965 H952 0.930 . S
C965 C964 1.388 . S
C965 C966 1.390 . S
C966 C965 1.390 . S
C966 C967 1.394 . S
C966 C972 1.465 . S
C967 C962 1.399 . S
C967 C966 1.394 . S
C967 C968 1.516 . S
C968 C967 1.516 . S
C968 C969 1.502 . S
C968 C970 1.561 . S
C968 C971 1.526 . S
C969 H953 0.959 . S
C969 H954 0.959 . S
C969 H955 0.961 . S
C969 C968 1.502 . S
C970 H956 0.960 . S
C970 H957 0.961 . S
C970 H958 0.959 . S
C970 C968 1.561 . S
C971 C968 1.526 . S
C971 C972 1.396 . S
C971 C976 1.390 . S
C972 C966 1.465 . S
C972 C971 1.396 . S
C972 C973 1.399 . S
C973 H959 0.929 . S
C973 C972 1.399 . S
C973 C974 1.385 . S
C974 H960 0.931 . S
C974 C973 1.385 . S
C974 C975 1.389 . S
C975 C974 1.389 . S
C975 C976 1.387 . S
C976 H961 0.930 . S
C976 C971 1.390 . S
C976 C975 1.387 . S
H977 C989 0.930 . S
H978 C991 0.930 . S
H979 C992 0.930 . S
H980 C996 0.959 . S
H981 C996 0.959 . S
H982 C996 0.961 . S
H983 C997 0.960 . S
H984 C997 0.961 . S
H985 C997 0.959 . S
H986 C1000 0.929 . S
H987 C1001 0.931 . S
H988 C1003 0.930 . S
C989 H977 0.930 . S
C989 C990 1.399 . S
C989 C994 1.399 . S
C990 C989 1.399 . S
C990 C991 1.376 . S
C991 H978 0.930 . S
C991 C990 1.376 . S
C991 C992 1.388 . S
C992 H979 0.930 . S
C992 C991 1.388 . S
C992 C993 1.390 . S
C993 C992 1.390 . S
C993 C994 1.394 . S
C993 C999 1.465 . S
C994 C989 1.399 . S
C994 C993 1.394 . S
C994 C995 1.516 . S
C995 C994 1.516 . S
C995 C996 1.502 . S
C995 C997 1.561 . S
C995 C998 1.526 . S
C996 H980 0.959 . S
C996 H981 0.959 . S
C996 H982 0.961 . S
C996 C995 1.502 . S
C997 H983 0.960 . S
C997 H984 0.961 . S
C997 H985 0.959 . S
C997 C995 1.561 . S
C998 C995 1.526 . S
C998 C999 1.396 . S
C998 C1003 1.390 . S
C999 C993 1.465 . S
C999 C998 1.396 . S
C999 C1000 1.399 . S
C1000 H986 0.929 . S
C1000 C999 1.399 . S
C1000 C1001 1.385 . S
C1001 H987 0.931 . S
C1001 C1000 1.385 . S
C1001 C1002 1.389 . S
C1002 C1001 1.389 . S
C1002 C1003 1.387 . S
C1003 H988 0.930 . S
C1003 C998 1.390 . S
C1003 C1002 1.387 . S
H1004 C1016 0.930 . S
H1005 C1018 0.930 . S
H1006 C1019 0.930 . S
H1007 C1023 0.959 . S
H1008 C1023 0.959 . S
H1009 C1023 0.961 . S
H1010 C1024 0.960 . S
H1011 C1024 0.961 . S
H1012 C1024 0.959 . S
H1013 C1027 0.929 . S
H1014 C1028 0.931 . S
H1015 C1030 0.930 . S
C1016 H1004 0.930 . S
C1016 C1017 1.399 . S
C1016 C1021 1.399 . S
C1017 C1016 1.399 . S
C1017 C1018 1.376 . S
C1018 H1005 0.930 . S
C1018 C1017 1.376 . S
C1018 C1019 1.388 . S
C1019 H1006 0.930 . S
C1019 C1018 1.388 . S
C1019 C1020 1.390 . S
C1020 C1019 1.390 . S
C1020 C1021 1.394 . S
C1020 C1026 1.465 . S
C1021 C1016 1.399 . S
C1021 C1020 1.394 . S
C1021 C1022 1.516 . S
C1022 C1021 1.516 . S
C1022 C1023 1.502 . S
C1022 C1024 1.561 . S
C1022 C1025 1.526 . S
C1023 H1007 0.959 . S
C1023 H1008 0.959 . S
C1023 H1009 0.961 . S
C1023 C1022 1.502 . S
C1024 H1010 0.960 . S
C1024 H1011 0.961 . S
C1024 H1012 0.959 . S
C1024 C1022 1.561 . S
C1025 C1022 1.526 . S
C1025 C1026 1.396 . S
C1025 C1030 1.390 . S
C1026 C1020 1.465 . S
C1026 C1025 1.396 . S
C1026 C1027 1.399 . S
C1027 H1013 0.929 . S
C1027 C1026 1.399 . S
C1027 C1028 1.385 . S
C1028 H1014 0.931 . S
C1028 C1027 1.385 . S
C1028 C1029 1.389 . S
C1029 C1028 1.389 . S
C1029 C1030 1.387 . S
C1030 H1015 0.930 . S
C1030 C1025 1.390 . S
C1030 C1029 1.387 . S
H1031 C1043 0.930 . S
H1032 C1045 0.930 1_565 S
H1033 C1046 0.930 . S
H1034 C1050 0.959 . S
H1035 C1050 0.959 . S
H1036 C1050 0.961 . S
H1037 C1051 0.960 . S
H1038 C1051 0.961 . S
H1039 C1051 0.959 . S
H1040 C1054 0.929 . S
H1041 C1055 0.931 . S
H1042 C1057 0.930 . S
C1043 H1031 0.930 . S
C1043 C1044 1.399 . S
C1043 C1048 1.399 . S
C1044 C1043 1.399 . S
C1044 C1045 1.376 . S
C1045 H1032 0.930 1_545 S
C1045 C1044 1.376 . S
C1045 C1046 1.388 . S
C1046 H1033 0.930 . S
C1046 C1045 1.388 . S
C1046 C1047 1.390 . S
C1047 C1046 1.390 . S
C1047 C1048 1.394 . S
C1047 C1053 1.465 . S
C1048 C1043 1.399 . S
C1048 C1047 1.394 . S
C1048 C1049 1.516 . S
C1049 C1048 1.516 . S
C1049 C1050 1.502 . S
C1049 C1051 1.561 . S
C1049 C1052 1.526 . S
C1050 H1034 0.959 . S
C1050 H1035 0.959 . S
C1050 H1036 0.961 . S
C1050 C1049 1.502 . S
C1051 H1037 0.960 . S
C1051 H1038 0.961 . S
C1051 H1039 0.959 . S
C1051 C1049 1.561 . S
C1052 C1049 1.526 . S
C1052 C1053 1.396 . S
C1052 C1057 1.390 . S
C1053 C1047 1.465 . S
C1053 C1052 1.396 . S
C1053 C1054 1.399 . S
C1054 H1040 0.929 . S
C1054 C1053 1.399 . S
C1054 C1055 1.385 . S
C1055 H1041 0.931 . S
C1055 C1054 1.385 . S
C1055 C1056 1.389 . S
C1056 C1055 1.389 . S
C1056 C1057 1.387 . S
C1057 H1042 0.930 . S
C1057 C1052 1.390 . S
C1057 C1056 1.387 . S
H1058 C1070 0.930 . S
H1059 C1072 0.930 . S
H1060 C1073 0.930 . S
H1061 C1077 0.959 . S
H1062 C1077 0.959 . S
H1063 C1077 0.961 . S
H1064 C1078 0.960 . S
H1065 C1078 0.961 . S
H1066 C1078 0.959 . S
H1067 C1081 0.929 . S
H1068 C1082 0.931 . S
H1069 C1084 0.930 . S
C1070 H1058 0.930 . S
C1070 C1071 1.399 . S
C1070 C1075 1.399 . S
C1071 C1070 1.399 . S
C1071 C1072 1.376 . S
C1072 H1059 0.930 . S
C1072 C1071 1.376 . S
C1072 C1073 1.388 . S
C1073 H1060 0.930 . S
C1073 C1072 1.388 . S
C1073 C1074 1.390 . S
C1074 C1073 1.390 . S
C1074 C1075 1.394 . S
C1074 C1080 1.465 . S
C1075 C1070 1.399 . S
C1075 C1074 1.394 . S
C1075 C1076 1.516 . S
C1076 C1075 1.516 . S
C1076 C1077 1.502 . S
C1076 C1078 1.561 . S
C1076 C1079 1.526 . S
C1077 H1061 0.959 . S
C1077 H1062 0.959 . S
C1077 H1063 0.961 . S
C1077 C1076 1.502 . S
C1078 H1064 0.960 . S
C1078 H1065 0.961 . S
C1078 H1066 0.959 . S
C1078 C1076 1.561 . S
C1079 C1076 1.526 . S
C1079 C1080 1.396 . S
C1079 C1084 1.390 . S
C1080 C1074 1.465 . S
C1080 C1079 1.396 . S
C1080 C1081 1.399 . S
C1081 H1067 0.929 . S
C1081 C1080 1.399 . S
C1081 C1082 1.385 . S
C1082 H1068 0.931 . S
C1082 C1081 1.385 . S
C1082 C1083 1.389 . S
C1083 C1082 1.389 . S
C1083 C1084 1.387 . S
C1084 H1069 0.930 . S
C1084 C1079 1.390 . S
C1084 C1083 1.387 . S
H1085 C1097 0.930 . S
H1086 C1099 0.930 . S
H1087 C1100 0.930 . S
H1088 C1104 0.959 . S
H1089 C1104 0.959 . S
H1090 C1104 0.961 . S
H1091 C1105 0.960 . S
H1092 C1105 0.961 . S
H1093 C1105 0.959 . S
H1094 C1108 0.929 . S
H1095 C1109 0.931 . S
H1096 C1111 0.930 . S
C1097 H1085 0.930 . S
C1097 C1098 1.399 . S
C1097 C1102 1.399 . S
C1098 C1097 1.399 . S
C1098 C1099 1.376 . S
C1099 H1086 0.930 . S
C1099 C1098 1.376 . S
C1099 C1100 1.388 . S
C1100 H1087 0.930 . S
C1100 C1099 1.388 . S
C1100 C1101 1.390 . S
C1101 C1100 1.390 . S
C1101 C1102 1.394 . S
C1101 C1107 1.465 . S
C1102 C1097 1.399 . S
C1102 C1101 1.394 . S
C1102 C1103 1.516 . S
C1103 C1102 1.516 . S
C1103 C1104 1.502 . S
C1103 C1105 1.561 . S
C1103 C1106 1.526 . S
C1104 H1088 0.959 . S
C1104 H1089 0.959 . S
C1104 H1090 0.961 . S
C1104 C1103 1.502 . S
C1105 H1091 0.960 . S
C1105 H1092 0.961 . S
C1105 H1093 0.959 . S
C1105 C1103 1.561 . S
C1106 C1103 1.526 . S
C1106 C1107 1.396 . S
C1106 C1111 1.390 . S
C1107 C1101 1.465 . S
C1107 C1106 1.396 . S
C1107 C1108 1.399 . S
C1108 H1094 0.929 . S
C1108 C1107 1.399 . S
C1108 C1109 1.385 . S
C1109 H1095 0.931 . S
C1109 C1108 1.385 . S
C1109 C1110 1.389 . S
C1110 C1109 1.389 . S
C1110 C1111 1.387 . S
C1111 H1096 0.930 . S
C1111 C1106 1.390 . S
C1111 C1110 1.387 . S
C261 C24 1.360 . S
C273 C49 1.268 . S
C288 C55 1.340 . S
C300 C80 1.274 . S
C315 C86 1.334 . S
C327 C111 1.342 . S
C342 C18 1.292 . S
C354 C117 1.364 . S
C369 C124 1.352 . S
C381 C166 1.343 . S
C396 C155 1.363 . S
C408 C197 1.288 . S
C423 C186 1.325 . S
C435 C228 1.271 . S
C450 C217 1.364 . S
C462 C135 1.291 . S
C477 C0 1.367 . S
C489 C148 1.269 . S
C504 C31 1.345 . S
C516 C179 1.323 . S
C531 C62 1.368 . S
C543 C210 1.269 . S
C558 C93 1.320 . S
C570 C241 1.310 . S
C585 C27 0.408 . S
C597 C89 0.453 . S
C612 C120 0.687 . S
C624 C58 0.651 . S
C639 C125 0.615 . S
C651 C187 0.686 . S
C666 C156 0.551 . S
C678 C218 0.415 . S
C693 C10 2.442 . S
C705 C33 2.091 . S
C720 C41 2.429 . S
C732 C64 2.151 . S
C747 C95 2.177 . S
C759 C72 2.424 . S
C774 C103 2.436 . S
C786 C2 2.116 . S
C801 C126 2.427 . S
C813 C165 2.176 . S
C828 C196 2.111 . S
C840 C157 2.431 . S
C855 C227 2.129 . S
C867 C188 2.428 . S
C882 C134 2.097 . S
C894 C219 2.435 . S
C909 C11 1.536 . S
C921 C182 1.510 . S
C936 C42 1.538 1_565 S
C948 C213 1.586 . S
C963 C244 1.531 . S
C975 C73 1.559 1_455 S
C990 C151 1.544 . S
C1002 C104 1.563 . S
C1017 C32 1.582 . S
C1029 C142 1.519 . S
C1044 C173 1.467 1_545 S
C1056 C63 1.555 . S
C1071 C204 1.563 1_655 S
C1083 C94 1.538 . S
C1098 C1 1.588 . S
C1110 C235 1.503 . S
