# Generated by pormake.
# Topology ume, (4)-cn, num edge types: 1
# Building blocks:
#     Node 0, Type 0, BuildingBlock: ICAMEG_clean_sbu_1, # of connection points: 4
#     Node 1, Type 0, BuildingBlock: ICAMEG_clean_sbu_1, # of connection points: 4
#     Node 2, Type 0, BuildingBlock: ICAMEG_clean_sbu_1, # of connection points: 4
#     Node 3, Type 0, BuildingBlock: ICAMEG_clean_sbu_1, # of connection points: 4
#     Node 4, Type 0, BuildingBlock: ICAMEG_clean_sbu_1, # of connection points: 4
#     Node 5, Type 0, BuildingBlock: ICAMEG_clean_sbu_1, # of connection points: 4
#     Node 6, Type 0, BuildingBlock: ICAMEG_clean_sbu_1, # of connection points: 4
#     Node 7, Type 0, BuildingBlock: ICAMEG_clean_sbu_1, # of connection points: 4
#     Node 8, Type 0, BuildingBlock: ICAMEG_clean_sbu_1, # of connection points: 4
#     Node 9, Type 0, BuildingBlock: ICAMEG_clean_sbu_1, # of connection points: 4
#     Node 10, Type 0, BuildingBlock: ICAMEG_clean_sbu_1, # of connection points: 4
#     Node 11, Type 0, BuildingBlock: ICAMEG_clean_sbu_1, # of connection points: 4
#     Node 12, Type 0, BuildingBlock: ICAMEG_clean_sbu_1, # of connection points: 4
#     Node 13, Type 0, BuildingBlock: ICAMEG_clean_sbu_1, # of connection points: 4
#     Node 14, Type 0, BuildingBlock: ICAMEG_clean_sbu_1, # of connection points: 4
#     Node 15, Type 0, BuildingBlock: ICAMEG_clean_sbu_1, # of connection points: 4
#     Edge 16, Type (0, 0), BuildingBlock: OJICUG_clean_linker_0, # of connection points: 2
#     Edge 17, Type (0, 0), BuildingBlock: OJICUG_clean_linker_0, # of connection points: 2
#     Edge 18, Type (0, 0), BuildingBlock: OJICUG_clean_linker_0, # of connection points: 2
#     Edge 19, Type (0, 0), BuildingBlock: OJICUG_clean_linker_0, # of connection points: 2
#     Edge 20, Type (0, 0), BuildingBlock: OJICUG_clean_linker_0, # of connection points: 2
#     Edge 21, Type (0, 0), BuildingBlock: OJICUG_clean_linker_0, # of connection points: 2
#     Edge 22, Type (0, 0), BuildingBlock: OJICUG_clean_linker_0, # of connection points: 2
#     Edge 23, Type (0, 0), BuildingBlock: OJICUG_clean_linker_0, # of connection points: 2
#     Edge 24, Type (0, 0), BuildingBlock: OJICUG_clean_linker_0, # of connection points: 2
#     Edge 25, Type (0, 0), BuildingBlock: OJICUG_clean_linker_0, # of connection points: 2
#     Edge 26, Type (0, 0), BuildingBlock: OJICUG_clean_linker_0, # of connection points: 2
#     Edge 27, Type (0, 0), BuildingBlock: OJICUG_clean_linker_0, # of connection points: 2
#     Edge 28, Type (0, 0), BuildingBlock: OJICUG_clean_linker_0, # of connection points: 2
#     Edge 29, Type (0, 0), BuildingBlock: OJICUG_clean_linker_0, # of connection points: 2
#     Edge 30, Type (0, 0), BuildingBlock: OJICUG_clean_linker_0, # of connection points: 2
#     Edge 31, Type (0, 0), BuildingBlock: OJICUG_clean_linker_0, # of connection points: 2
#     Edge 32, Type (0, 0), BuildingBlock: OJICUG_clean_linker_0, # of connection points: 2
#     Edge 33, Type (0, 0), BuildingBlock: OJICUG_clean_linker_0, # of connection points: 2
#     Edge 34, Type (0, 0), BuildingBlock: OJICUG_clean_linker_0, # of connection points: 2
#     Edge 35, Type (0, 0), BuildingBlock: OJICUG_clean_linker_0, # of connection points: 2
#     Edge 36, Type (0, 0), BuildingBlock: OJICUG_clean_linker_0, # of connection points: 2
#     Edge 37, Type (0, 0), BuildingBlock: OJICUG_clean_linker_0, # of connection points: 2
#     Edge 38, Type (0, 0), BuildingBlock: OJICUG_clean_linker_0, # of connection points: 2
#     Edge 39, Type (0, 0), BuildingBlock: OJICUG_clean_linker_0, # of connection points: 2
#     Edge 40, Type (0, 0), BuildingBlock: OJICUG_clean_linker_0, # of connection points: 2
#     Edge 41, Type (0, 0), BuildingBlock: OJICUG_clean_linker_0, # of connection points: 2
#     Edge 42, Type (0, 0), BuildingBlock: OJICUG_clean_linker_0, # of connection points: 2
#     Edge 43, Type (0, 0), BuildingBlock: OJICUG_clean_linker_0, # of connection points: 2
#     Edge 44, Type (0, 0), BuildingBlock: OJICUG_clean_linker_0, # of connection points: 2
#     Edge 45, Type (0, 0), BuildingBlock: OJICUG_clean_linker_0, # of connection points: 2
#     Edge 46, Type (0, 0), BuildingBlock: OJICUG_clean_linker_0, # of connection points: 2
#     Edge 47, Type (0, 0), BuildingBlock: OJICUG_clean_linker_0, # of connection points: 2
# Relax obj value: 0.077
# Max RMSD: 0.094
# Mean RMSD: 0.094
data_MOF--net-ume--node1-ICAMEG_clean_sbu_1--edge1-OJICUG_clean_linker_0
_symmetry_space_group_name_H-M    P1
_symmetry_Int_Tables_number       1
_symmetry_cell_setting            triclinic
loop_
_symmetry_equiv_pos_as_xyz
'x, y, z'
_cell_length_a     22.171697
_cell_length_b     22.171887
_cell_length_c     87.879178
_cell_angle_alpha  90.004348
_cell_angle_beta   89.999678
_cell_angle_gamma 89.968135
loop_
_atom_site_label
_atom_site_type_symbol
_atom_site_fract_x
_atom_site_fract_y
_atom_site_fract_z
_atom_type_partial_charge
Co0 Co 0.2815 0.12363 0.32246 0.0
Co1 Co 0.24982 9e-05 0.30059 0.0
O2 O 0.23218 0.0531 0.31779 0.0
C3 C 0.27028 0.0606 0.35209 0.0
O4 O 0.28467 0.01056 0.34497 0.0
C5 C 0.12178 0.02986 0.29687 0.0
O6 O 0.13743 0.08683 0.29789 0.0
O7 O 0.24916 0.06971 0.28651 0.0
O8 O 0.29764 0.13957 0.30024 0.0
H9 H 0.34969 0.94458 0.25125 0.0
H10 H 0.15827 0.11481 0.33528 0.0
O11 O 0.26687 0.11008 0.34475 0.0
H12 H 0.15902 0.30207 0.30501 0.0
H13 H 0.3341 0.31257 0.35134 0.0
H14 H 0.39868 0.17052 0.31134 0.0
H15 H 0.25078 0.23964 0.30703 0.0
H16 H 0.271 0.22484 0.34467 0.0
O17 O 0.16163 0.98872 0.29748 0.0
H18 H 0.33531 0.00417 0.27466 0.0
H19 H 0.19664 0.88512 0.28911 0.0
H20 H 0.46292 0.2579 0.31755 0.0
H21 H 0.06561 0.17615 0.33367 0.0
H22 H 0.4307 0.32968 0.33769 0.0
H23 H 0.0656 0.27044 0.31841 0.0
O24 O 0.35427 0.07173 0.32347 0.0
H25 H 0.17048 0.87178 0.34325 0.0
H26 H 0.33332 0.89648 0.30554 0.0
H27 H 0.33656 0.81069 0.32338 0.0
H28 H 0.25468 0.79789 0.3424 0.0
H29 H 0.16931 0.95723 0.32528 0.0
H30 H 0.20929 0.82443 0.26579 0.0
H31 H 0.2853 0.85494 0.24651 0.0
O32 O 0.33876 0.0101 0.30351 0.0
C33 C 0.27793 0.11915 0.28758 0.0
C34 C 0.31608 0.93114 0.25951 0.0
C35 C 0.23723 0.86373 0.26767 0.0
N36 N 0.26525 0.9481 0.28326 0.0
C37 C 0.30805 0.96442 0.27285 0.0
C38 C 0.23042 0.89815 0.28087 0.0
C39 C 0.2799 0.88087 0.25686 0.0
C40 C 0.15875 0.1561 0.32875 0.0
N41 N 0.20992 0.17376 0.32132 0.0
C42 C 0.1061 0.19051 0.32782 0.0
C43 C 0.10609 0.24335 0.31923 0.0
C44 C 0.15848 0.2611 0.3117 0.0
C45 C 0.21026 0.22549 0.31286 0.0
C46 C 0.34855 0.2817 0.34252 0.0
C47 C 0.38417 0.20177 0.32004 0.0
C48 C 0.31307 0.2319 0.33871 0.0
N49 N 0.33089 0.19294 0.32753 0.0
C50 C 0.42082 0.25107 0.32354 0.0
C51 C 0.40274 0.29128 0.33485 0.0
C52 C 0.3724 0.033 0.31377 0.0
C53 C 0.20634 0.87678 0.33499 0.0
C54 C 0.29762 0.89132 0.31381 0.0
C55 C 0.29963 0.84257 0.32386 0.0
C56 C 0.25364 0.8354 0.33452 0.0
N57 N 0.25109 0.93173 0.31435 0.0
C58 C 0.20579 0.92494 0.32475 0.0
Co59 Co 0.86827 0.78132 0.57245 0.0
Co60 Co 0.9918 0.74945 0.55058 0.0
O61 O 0.93877 0.73189 0.56777 0.0
C62 C 0.93132 0.77 0.60207 0.0
O63 O 0.98136 0.7843 0.59495 0.0
C64 C 0.96189 0.62147 0.54685 0.0
O65 O 0.90494 0.63725 0.54786 0.0
O66 O 0.92219 0.74897 0.53649 0.0
O67 O 0.85233 0.79751 0.55023 0.0
H68 H 0.04745 0.84924 0.50124 0.0
H69 H 0.87703 0.65807 0.58526 0.0
O70 O 0.88183 0.76666 0.59474 0.0
H71 H 0.68976 0.65915 0.55499 0.0
H72 H 0.67938 0.83423 0.60133 0.0
H73 H 0.82145 0.89859 0.56133 0.0
H74 H 0.75223 0.75081 0.55701 0.0
H75 H 0.76707 0.77098 0.59465 0.0
O76 O 0.00307 0.66124 0.54746 0.0
H77 H 0.98783 0.83498 0.52465 0.0
H78 H 0.10672 0.69604 0.5391 0.0
H79 H 0.73411 0.96297 0.56755 0.0
H80 H 0.81563 0.56552 0.58364 0.0
H81 H 0.66233 0.93086 0.58768 0.0
H82 H 0.72134 0.56567 0.56838 0.0
O83 O 0.92021 0.854 0.57346 0.0
H84 H 0.12001 0.66973 0.59323 0.0
H85 H 0.09549 0.83271 0.55554 0.0
H86 H 0.18128 0.83572 0.57339 0.0
H87 H 0.19398 0.75376 0.5924 0.0
H88 H 0.03456 0.66879 0.57525 0.0
H89 H 0.16744 0.70857 0.51578 0.0
H90 H 0.13702 0.78466 0.4965 0.0
O91 O 0.98188 0.8384 0.5535 0.0
C92 C 0.87275 0.7778 0.53756 0.0
C93 C 0.06085 0.8156 0.50951 0.0
C94 C 0.12817 0.7366 0.51766 0.0
N95 N 0.04382 0.76479 0.53325 0.0
C96 C 0.02755 0.80764 0.52284 0.0
C97 C 0.09374 0.72985 0.53086 0.0
C98 C 0.11108 0.77931 0.50685 0.0
C99 C 0.83573 0.65863 0.57872 0.0
N100 N 0.81809 0.70983 0.5713 0.0
C101 C 0.80129 0.60603 0.5778 0.0
C102 C 0.74844 0.60612 0.56921 0.0
C103 C 0.73072 0.65854 0.56168 0.0
C104 C 0.76636 0.71026 0.56284 0.0
C105 C 0.71025 0.84863 0.59251 0.0
C106 C 0.79019 0.88413 0.57003 0.0
C107 C 0.76003 0.81307 0.5887 0.0
N108 N 0.79899 0.83083 0.57751 0.0
C109 C 0.74092 0.92086 0.57354 0.0
C110 C 0.7007 0.90284 0.58485 0.0
C111 C 0.95898 0.87207 0.56377 0.0
C112 C 0.11504 0.70562 0.58498 0.0
C113 C 0.10061 0.79698 0.56381 0.0
C114 C 0.14936 0.79885 0.57386 0.0
C115 C 0.15648 0.75283 0.58452 0.0
N116 N 0.06015 0.75053 0.56434 0.0
C117 C 0.06689 0.7052 0.57473 0.0
Co118 Co 0.21029 0.36866 0.82246 0.0
Co119 Co 0.24205 0.49206 0.80055 0.0
O120 O 0.25966 0.43913 0.81777 0.0
C121 C 0.2216 0.43176 0.85208 0.0
O122 O 0.20726 0.48181 0.84496 0.0
C123 C 0.37008 0.46218 0.79684 0.0
O124 O 0.3544 0.40523 0.79787 0.0
O125 O 0.24265 0.42236 0.78649 0.0
O126 O 0.19409 0.35264 0.80025 0.0
H127 H 0.14225 0.54735 0.75119 0.0
H128 H 0.33355 0.37741 0.83526 0.0
O129 O 0.22496 0.38227 0.84475 0.0
H130 H 0.33256 0.19002 0.80503 0.0
H131 H 0.15753 0.17989 0.85138 0.0
H132 H 0.09303 0.32186 0.81136 0.0
H133 H 0.24087 0.25255 0.80705 0.0
H134 H 0.22072 0.26752 0.84468 0.0
O135 O 0.33025 0.50334 0.79744 0.0
H136 H 0.15655 0.48791 0.77462 0.0
H137 H 0.29532 0.60692 0.78904 0.0
H138 H 0.0287 0.23458 0.8176 0.0
H139 H 0.42614 0.31597 0.83365 0.0
H140 H 0.06088 0.16285 0.83775 0.0
H141 H 0.42604 0.22161 0.81842 0.0
O142 O 0.13758 0.42064 0.82347 0.0
H143 H 0.32152 0.62054 0.84317 0.0
H144 H 0.15865 0.59576 0.80547 0.0
H145 H 0.1555 0.68167 0.82328 0.0
H146 H 0.2374 0.69451 0.8423 0.0
H147 H 0.3226 0.53498 0.82523 0.0
H148 H 0.28274 0.66748 0.76569 0.0
H149 H 0.20672 0.6369 0.74642 0.0
O150 O 0.15311 0.48213 0.80348 0.0
C151 C 0.21382 0.37296 0.78758 0.0
C152 C 0.17586 0.56082 0.75945 0.0
C153 C 0.25476 0.62821 0.76758 0.0
N154 N 0.22666 0.54396 0.7832 0.0
C155 C 0.18385 0.52762 0.7728 0.0
C156 C 0.26154 0.59387 0.7808 0.0
C157 C 0.21209 0.61104 0.75678 0.0
C158 C 0.33301 0.33609 0.82874 0.0
N159 N 0.28181 0.31845 0.82132 0.0
C160 C 0.38563 0.30162 0.82781 0.0
C161 C 0.38557 0.24874 0.81924 0.0
C162 C 0.33315 0.23102 0.81172 0.0
C163 C 0.28141 0.26668 0.81287 0.0
C164 C 0.1431 0.21074 0.84256 0.0
C165 C 0.10752 0.29063 0.82007 0.0
C166 C 0.17863 0.26048 0.83874 0.0
N167 N 0.16083 0.29942 0.82754 0.0
C168 C 0.07083 0.24139 0.82359 0.0
C169 C 0.08888 0.2012 0.8349 0.0
C170 C 0.11947 0.45934 0.81376 0.0
C171 C 0.28565 0.61552 0.83491 0.0
C172 C 0.19436 0.60094 0.81374 0.0
C173 C 0.1924 0.64975 0.82377 0.0
C174 C 0.23839 0.65695 0.83443 0.0
N175 N 0.24085 0.56049 0.81429 0.0
C176 C 0.28615 0.5673 0.82469 0.0
Co177 Co 0.62326 0.70974 0.0725 0.0
Co178 Co 0.49975 0.74159 0.05063 0.0
O179 O 0.55273 0.75914 0.06783 0.0
C180 C 0.56019 0.72098 0.10213 0.0
O181 O 0.51015 0.70666 0.09501 0.0
C182 C 0.52956 0.86958 0.04692 0.0
O183 O 0.58651 0.85385 0.04794 0.0
O184 O 0.56939 0.74218 0.03655 0.0
O185 O 0.63924 0.69361 0.05028 0.0
H186 H 0.44436 0.6419 1.00126 0.0
H187 H 0.6144 0.83296 0.08533 0.0
O188 O 0.60967 0.72435 0.0948 0.0
H189 H 0.80173 0.83205 0.05508 0.0
H190 H 0.81215 0.65688 0.10139 0.0
H191 H 0.67016 0.59252 0.06137 0.0
H192 H 0.7393 0.74036 0.05709 0.0
H193 H 0.72443 0.72009 0.09472 0.0
O194 O 0.4884 0.82979 0.04752 0.0
H195 H 0.50387 0.65613 0.02468 0.0
H196 H 0.38481 0.79492 0.03914 0.0
H197 H 0.75753 0.52817 0.06759 0.0
H198 H 0.67575 0.92555 0.08374 0.0
H199 H 0.82927 0.56028 0.08773 0.0
H200 H 0.77007 0.92549 0.06849 0.0
O201 O 0.57136 0.63702 0.0735 0.0
H202 H 0.37136 0.82102 0.09328 0.0
H203 H 0.39612 0.65821 0.05555 0.0
H204 H 0.31029 0.65505 0.07339 0.0
H205 H 0.29747 0.73692 0.09242 0.0
H206 H 0.45685 0.82212 0.07532 0.0
H207 H 0.32418 0.78241 0.0158 0.0
H208 H 0.35474 0.70642 0.99651 0.0
O209 O 0.50975 0.65263 0.05353 0.0
C210 C 0.61884 0.71337 0.03762 0.0
C211 C 0.43089 0.6755 0.00953 0.0
C212 C 0.36348 0.75441 0.01769 0.0
N213 N 0.44779 0.72625 0.03329 0.0
C214 C 0.46413 0.68345 0.02287 0.0
C215 C 0.39785 0.76115 0.0309 0.0
C216 C 0.38064 0.71176 1.00687 0.0
C217 C 0.65571 0.83244 0.0788 0.0
N218 N 0.67339 0.78127 0.07138 0.0
C219 C 0.69012 0.88506 0.07789 0.0
C220 C 0.74298 0.88502 0.06931 0.0
C221 C 0.76075 0.83262 0.06177 0.0
C222 C 0.72514 0.78088 0.06292 0.0
C223 C 0.78129 0.64248 0.09257 0.0
C224 C 0.7014 0.60698 0.07008 0.0
C225 C 0.7315 0.67803 0.08876 0.0
N226 N 0.69256 0.66026 0.07757 0.0
C227 C 0.75069 0.57028 0.07358 0.0
C228 C 0.79088 0.58829 0.0849 0.0
C229 C 0.53264 0.61895 0.0638 0.0
C230 C 0.37638 0.78517 0.08502 0.0
C231 C 0.39095 0.69391 0.06383 0.0
C232 C 0.34218 0.69195 0.07388 0.0
C233 C 0.33499 0.73792 0.08454 0.0
N234 N 0.43136 0.74039 0.06438 0.0
C235 C 0.42456 0.78567 0.07478 0.0
Co236 Co 0.28064 0.36814 0.94657 0.0
Co237 Co 0.24874 0.49141 0.96853 0.0
O238 O 0.23118 0.43856 0.95129 0.0
C239 C 0.2692 0.43146 0.91698 0.0
O240 O 0.28348 0.48146 0.92413 0.0
C241 C 0.12078 0.46141 0.97223 0.0
O242 O 0.13657 0.40448 0.97118 0.0
O243 O 0.24832 0.42165 0.98257 0.0
O244 O 0.2969 0.35198 0.96877 0.0
H245 H 0.34855 0.54654 0.0179 0.0
H246 H 0.15735 0.37693 0.93378 0.0
O247 O 0.26592 0.3819 0.92429 0.0
H248 H 0.15866 0.18935 0.96392 0.0
H249 H 0.33364 0.17959 0.91755 0.0
H250 H 0.39798 0.3213 0.95763 0.0
H251 H 0.25026 0.25192 0.96193 0.0
H252 H 0.27033 0.26715 0.9243 0.0
O253 O 0.16054 0.50261 0.97166 0.0
H254 H 0.33432 0.4872 0.99444 0.0
H255 H 0.19529 0.60618 0.98009 0.0
H256 H 0.46243 0.23409 0.95134 0.0
H257 H 0.06485 0.31545 0.93537 0.0
H258 H 0.43033 0.16249 0.93117 0.0
H259 H 0.06512 0.221 0.95057 0.0
O260 O 0.35328 0.42015 0.94558 0.0
H261 H 0.16889 0.62005 0.92597 0.0
H262 H 0.33194 0.59521 0.96363 0.0
H263 H 0.33486 0.68121 0.94585 0.0
H264 H 0.25287 0.69408 0.92685 0.0
H265 H 0.16803 0.53439 0.94388 0.0
H266 H 0.2078 0.66662 1.00346 0.0
H267 H 0.28392 0.63601 0.02271 0.0
O268 O 0.3377 0.48158 0.96558 0.0
C269 C 0.27719 0.37225 0.98145 0.0
C270 C 0.3149 0.56002 0.00964 0.0
C271 C 0.23585 0.62738 1.00154 0.0
N272 N 0.26408 0.54324 0.98589 0.0
C273 C 0.30695 0.52688 0.99628 0.0
C274 C 0.22911 0.59311 0.98831 0.0
C275 C 0.27858 0.61019 0.01234 0.0
C276 C 0.15796 0.33557 0.94029 0.0
N277 N 0.20919 0.3179 0.94769 0.0
C278 C 0.10539 0.30108 0.9412 0.0
C279 C 0.10554 0.24814 0.94975 0.0
C280 C 0.158 0.23039 0.95726 0.0
C281 C 0.20969 0.26608 0.95611 0.0
C282 C 0.34804 0.21038 0.92639 0.0
C283 C 0.38352 0.29012 0.94891 0.0
C284 C 0.31243 0.26009 0.93024 0.0
N285 N 0.33019 0.29895 0.94145 0.0
C286 C 0.42029 0.24092 0.94537 0.0
C287 C 0.40228 0.20081 0.93404 0.0
C288 C 0.37135 0.45884 0.95528 0.0
C289 C 0.2048 0.61502 0.93422 0.0
C290 C 0.29619 0.60041 0.95537 0.0
C291 C 0.29802 0.64927 0.94535 0.0
C292 C 0.25198 0.65649 0.93471 0.0
N293 N 0.24977 0.55991 0.95481 0.0
C294 C 0.20442 0.56674 0.94443 0.0
Co295 Co 0.62366 0.78033 0.19661 0.0
Co296 Co 0.50037 0.74859 0.21856 0.0
O297 O 0.55325 0.73093 0.20134 0.0
C298 C 0.5604 0.76882 0.16702 0.0
O299 O 0.51039 0.78316 0.17416 0.0
C300 C 0.53035 0.62059 0.22228 0.0
O301 O 0.58729 0.63631 0.22124 0.0
O302 O 0.57012 0.74812 0.23261 0.0
O303 O 0.63976 0.79666 0.21882 0.0
H304 H 0.44514 0.84862 0.26791 0.0
H305 H 0.61494 0.657 0.18385 0.0
O306 O 0.60994 0.76553 0.17433 0.0
H307 H 0.80247 0.6583 0.21402 0.0
H308 H 0.81225 0.83309 0.16761 0.0
H309 H 0.67042 0.89768 0.20766 0.0
H310 H 0.73986 0.74993 0.212 0.0
H311 H 0.7247 0.76987 0.17436 0.0
O312 O 0.48916 0.6604 0.2217 0.0
H313 H 0.50454 0.83423 0.24447 0.0
H314 H 0.38559 0.69529 0.23012 0.0
H315 H 0.75763 0.96204 0.20137 0.0
H316 H 0.67647 0.56447 0.18547 0.0
H317 H 0.82928 0.92982 0.18121 0.0
H318 H 0.77089 0.56472 0.20068 0.0
O319 O 0.57162 0.853 0.1956 0.0
H320 H 0.37178 0.6688 0.176 0.0
H321 H 0.39658 0.8319 0.21365 0.0
H322 H 0.3106 0.83488 0.19586 0.0
H323 H 0.29776 0.75287 0.17687 0.0
H324 H 0.45742 0.66788 0.19392 0.0
H325 H 0.32508 0.70796 0.25348 0.0
H326 H 0.35565 0.78411 0.27272 0.0
O327 O 0.51021 0.83754 0.21561 0.0
C328 C 0.61949 0.77699 0.2315 0.0
C329 C 0.43168 0.81495 0.25966 0.0
C330 C 0.36433 0.73596 0.25156 0.0
N331 N 0.44851 0.76403 0.23592 0.0
C332 C 0.46485 0.80691 0.2463 0.0
C333 C 0.39864 0.72913 0.23834 0.0
C334 C 0.38149 0.7787 0.26235 0.0
C335 C 0.65629 0.65761 0.19036 0.0
N336 N 0.67393 0.70885 0.19776 0.0
C337 C 0.69081 0.60502 0.19129 0.0
C338 C 0.74372 0.60516 0.19985 0.0
C339 C 0.76144 0.65764 0.20735 0.0
C340 C 0.72573 0.70935 0.20619 0.0
C341 C 0.78143 0.84754 0.17644 0.0
C342 C 0.70163 0.88317 0.19895 0.0
C343 C 0.73173 0.81199 0.18029 0.0
N344 N 0.69283 0.82982 0.19149 0.0
C345 C 0.75082 0.91988 0.1954 0.0
C346 C 0.79097 0.9018 0.18408 0.0
C347 C 0.53294 0.87113 0.20531 0.0
C348 C 0.37681 0.70471 0.18425 0.0
C349 C 0.3914 0.79614 0.20539 0.0
C350 C 0.34255 0.798 0.19537 0.0
C351 C 0.33534 0.75194 0.18473 0.0
N352 N 0.43189 0.74967 0.20484 0.0
C353 C 0.42507 0.70431 0.19446 0.0
Co354 Co 0.21109 0.1239 0.44659 0.0
Co355 Co 0.24291 0.00042 0.46848 0.0
O356 O 0.2605 0.05341 0.45128 0.0
C357 C 0.22248 0.06075 0.41698 0.0
O358 O 0.20815 0.01074 0.42411 0.0
C359 C 0.37088 0.03032 0.47221 0.0
O360 O 0.35512 0.08727 0.47119 0.0
O361 O 0.24338 0.07007 0.48256 0.0
O362 O 0.19486 0.1399 0.46881 0.0
H363 H 0.14303 0.94491 0.51781 0.0
H364 H 0.33436 0.1151 0.43379 0.0
O365 O 0.22579 0.11027 0.4243 0.0
H366 H 0.33322 0.30245 0.46403 0.0
H367 H 0.15824 0.3127 0.41767 0.0
H368 H 0.0938 0.17075 0.45769 0.0
H369 H 0.24157 0.23997 0.46201 0.0
H370 H 0.22147 0.22503 0.42437 0.0
O371 O 0.33111 0.98915 0.47161 0.0
H372 H 0.15733 0.00446 0.4944 0.0
H373 H 0.29629 0.88553 0.47998 0.0
H374 H 0.02943 0.25808 0.45145 0.0
H375 H 0.42691 0.1765 0.43541 0.0
H376 H 0.06158 0.3298 0.43131 0.0
H377 H 0.42673 0.27083 0.45066 0.0
O378 O 0.1384 0.07195 0.44558 0.0
H379 H 0.32267 0.8721 0.42585 0.0
H380 H 0.15964 0.89673 0.46352 0.0
H381 H 0.15664 0.8109 0.44568 0.0
H382 H 0.23863 0.79814 0.42668 0.0
H383 H 0.3236 0.95759 0.44382 0.0
H384 H 0.28371 0.82486 0.50331 0.0
H385 H 0.20759 0.85534 0.52257 0.0
O386 O 0.15396 0.01035 0.46555 0.0
C387 C 0.21454 0.1195 0.48147 0.0
C388 C 0.17668 0.93148 0.50955 0.0
C389 C 0.25569 0.86414 0.50141 0.0
N390 N 0.22754 0.94845 0.48581 0.0
C391 C 0.18467 0.96474 0.49621 0.0
C392 C 0.26247 0.89853 0.48821 0.0
C393 C 0.21296 0.88125 0.51222 0.0
C394 C 0.33379 0.15641 0.44032 0.0
N395 N 0.28258 0.17407 0.44773 0.0
C396 C 0.38639 0.19085 0.44125 0.0
C397 C 0.38629 0.24372 0.44983 0.0
C398 C 0.33385 0.26146 0.45735 0.0
C399 C 0.28213 0.22582 0.45619 0.0
C400 C 0.14382 0.28186 0.42649 0.0
C401 C 0.10828 0.20198 0.44898 0.0
C402 C 0.17937 0.23209 0.43032 0.0
N403 N 0.16159 0.19316 0.44151 0.0
C404 C 0.07156 0.25125 0.44546 0.0
C405 C 0.08959 0.29143 0.43415 0.0
C406 C 0.12031 0.03321 0.45527 0.0
C407 C 0.28677 0.87709 0.4341 0.0
C408 C 0.19539 0.89158 0.45526 0.0
C409 C 0.19352 0.84281 0.44521 0.0
C410 C 0.23955 0.83566 0.43456 0.0
N411 N 0.24184 0.93204 0.45473 0.0
C412 C 0.28719 0.92527 0.44434 0.0
Co413 Co 0.86792 0.71116 0.69657 0.0
Co414 Co 0.9913 0.74289 0.7185 0.0
O415 O 0.9384 0.76051 0.70128 0.0
C416 C 0.93115 0.72243 0.66697 0.0
O417 O 0.98115 0.70807 0.67411 0.0
C418 C 0.96142 0.87091 0.72221 0.0
O419 O 0.90447 0.85522 0.72117 0.0
O420 O 0.92159 0.74348 0.73255 0.0
O421 O 0.85184 0.69498 0.71879 0.0
H422 H 0.04653 0.64304 0.76786 0.0
H423 H 0.87676 0.83441 0.68377 0.0
O424 O 0.88161 0.72582 0.67429 0.0
H425 H 0.68929 0.83352 0.71396 0.0
H426 H 0.67921 0.65847 0.66761 0.0
H427 H 0.82104 0.59394 0.70767 0.0
H428 H 0.75179 0.7418 0.71196 0.0
H429 H 0.76685 0.72163 0.67433 0.0
O430 O 0.00258 0.83108 0.72162 0.0
H431 H 0.98712 0.65736 0.74442 0.0
H432 H 0.10615 0.79614 0.73003 0.0
H433 H 0.73374 0.52965 0.70141 0.0
H434 H 0.81536 0.92703 0.68536 0.0
H435 H 0.66208 0.56185 0.68125 0.0
H436 H 0.72096 0.92697 0.70059 0.0
O437 O 0.91987 0.63843 0.69558 0.0
H438 H 0.11984 0.82238 0.6759 0.0
H439 H 0.09501 0.65948 0.71359 0.0
H440 H 0.18094 0.65634 0.69578 0.0
H441 H 0.1938 0.73825 0.67677 0.0
H442 H 0.03426 0.82346 0.69383 0.0
H443 H 0.16668 0.78354 0.75338 0.0
H444 H 0.13608 0.70751 0.77264 0.0
O445 O 0.98138 0.65394 0.71557 0.0
C446 C 0.87217 0.71469 0.73146 0.0
C447 C 0.06001 0.67666 0.7596 0.0
C448 C 0.12741 0.75557 0.75148 0.0
N449 N 0.04319 0.72748 0.73585 0.0
C450 C 0.02683 0.68466 0.74625 0.0
C451 C 0.09309 0.76235 0.73826 0.0
C452 C 0.11023 0.71289 0.76228 0.0
C453 C 0.83543 0.83389 0.69029 0.0
N454 N 0.81774 0.78271 0.6977 0.0
C455 C 0.80098 0.88653 0.6912 0.0
C456 C 0.74807 0.8865 0.69977 0.0
C457 C 0.73031 0.83409 0.70729 0.0
C458 C 0.76595 0.78233 0.70614 0.0
C459 C 0.71003 0.64403 0.67645 0.0
C460 C 0.78983 0.60844 0.69895 0.0
C461 C 0.75978 0.67955 0.68028 0.0
N462 N 0.79868 0.66174 0.69148 0.0
C463 C 0.74059 0.57176 0.69543 0.0
C464 C 0.70044 0.58983 0.6841 0.0
C465 C 0.95857 0.62031 0.70528 0.0
C466 C 0.11481 0.78651 0.68415 0.0
C467 C 0.1002 0.6952 0.70532 0.0
C468 C 0.14902 0.69324 0.69529 0.0
C469 C 0.15624 0.73925 0.68463 0.0
N470 N 0.05975 0.74169 0.70477 0.0
C471 C 0.06658 0.787 0.69437 0.0
Co472 Co 0.7805 0.62368 0.82244 0.0
Co473 Co 0.7488 0.50034 0.8005 0.0
O474 O 0.73115 0.55321 0.81773 0.0
C475 C 0.76916 0.5604 0.85204 0.0
O476 O 0.78352 0.5104 0.84489 0.0
C477 C 0.62077 0.53022 0.7968 0.0
O478 O 0.63646 0.58717 0.79784 0.0
O479 O 0.74821 0.57009 0.78646 0.0
O480 O 0.79672 0.6398 0.80023 0.0
H481 H 0.84872 0.44524 0.75113 0.0
H482 H 0.65722 0.61483 0.83523 0.0
O483 O 0.7658 0.60994 0.84473 0.0
H484 H 0.6582 0.80235 0.80507 0.0
H485 H 0.83316 0.81232 0.85144 0.0
H486 H 0.89775 0.67056 0.81137 0.0
H487 H 0.74991 0.73984 0.80707 0.0
H488 H 0.77001 0.7247 0.8447 0.0
O489 O 0.66061 0.48906 0.79738 0.0
H490 H 0.83436 0.50461 0.77458 0.0
H491 H 0.69558 0.38552 0.78895 0.0
H492 H 0.96204 0.75784 0.81765 0.0
H493 H 0.56462 0.67625 0.83364 0.0
H494 H 0.92981 0.82946 0.83781 0.0
H495 H 0.56471 0.77068 0.81843 0.0
O496 O 0.85322 0.57171 0.82344 0.0
H497 H 0.66929 0.37169 0.84308 0.0
H498 H 0.83222 0.39664 0.8054 0.0
H499 H 0.83536 0.31067 0.82319 0.0
H500 H 0.75343 0.29775 0.84219 0.0
H501 H 0.66822 0.45732 0.82515 0.0
H502 H 0.70822 0.32504 0.76558 0.0
H503 H 0.78428 0.35569 0.74633 0.0
O504 O 0.83775 0.51027 0.80344 0.0
C505 C 0.77701 0.6195 0.78756 0.0
C506 C 0.81509 0.43174 0.75939 0.0
C507 C 0.73618 0.36431 0.76749 0.0
N508 N 0.76424 0.44851 0.78314 0.0
C509 C 0.80707 0.46489 0.77275 0.0
C510 C 0.72937 0.3986 0.78072 0.0
C511 C 0.77888 0.38153 0.7567 0.0
C512 C 0.65776 0.65618 0.82872 0.0
N513 N 0.70896 0.67387 0.82132 0.0
C514 C 0.60513 0.69064 0.82781 0.0
C515 C 0.60519 0.74356 0.81925 0.0
C516 C 0.65761 0.76133 0.81174 0.0
C517 C 0.70936 0.72567 0.81289 0.0
C518 C 0.84761 0.78152 0.8426 0.0
C519 C 0.88324 0.70175 0.82009 0.0
C520 C 0.8121 0.73178 0.83876 0.0
N521 N 0.82992 0.6929 0.82756 0.0
C522 C 0.91991 0.75099 0.82362 0.0
C523 C 0.90183 0.79112 0.83495 0.0
C524 C 0.87136 0.53304 0.81373 0.0
C525 C 0.70517 0.37675 0.83482 0.0
C526 C 0.7965 0.39142 0.81366 0.0
C527 C 0.79845 0.34257 0.82368 0.0
C528 C 0.75244 0.33533 0.83433 0.0
N529 N 0.75 0.43186 0.81422 0.0
C530 C 0.70468 0.42501 0.82461 0.0
Co531 Co 0.36826 0.28022 0.07242 0.0
Co532 Co 0.49156 0.24833 0.05047 0.0
O533 O 0.43868 0.23076 0.0677 0.0
C534 C 0.43153 0.26875 0.10201 0.0
O535 O 0.48154 0.28302 0.09487 0.0
C536 C 0.46159 0.12036 0.04676 0.0
O537 O 0.40465 0.13614 0.04781 0.0
O538 O 0.42182 0.2479 0.03642 0.0
O539 O 0.35214 0.2965 0.05021 0.0
H540 H 0.54676 0.34818 1.00112 0.0
H541 H 0.37701 0.15692 0.0852 0.0
O542 O 0.38198 0.26547 0.0947 0.0
H543 H 0.18949 0.15828 0.05503 0.0
H544 H 0.17966 0.3332 0.10141 0.0
H545 H 0.32145 0.39757 0.06135 0.0
H546 H 0.25207 0.24986 0.05704 0.0
H547 H 0.26722 0.26989 0.09467 0.0
O548 O 0.50277 0.16012 0.04734 0.0
H549 H 0.48739 0.33392 0.02456 0.0
H550 H 0.60635 0.19489 0.03892 0.0
H551 H 0.23423 0.46202 0.06764 0.0
H552 H 0.31552 0.06443 0.08359 0.0
H553 H 0.16259 0.42991 0.0878 0.0
H554 H 0.2211 0.06472 0.06838 0.0
O555 O 0.42027 0.35284 0.07342 0.0
H556 H 0.62015 0.16848 0.09304 0.0
H557 H 0.59535 0.33153 0.05538 0.0
H558 H 0.68133 0.33446 0.07317 0.0
H559 H 0.69417 0.25247 0.09217 0.0
H560 H 0.53451 0.16762 0.07512 0.0
H561 H 0.66683 0.20742 0.01556 0.0
H562 H 0.63625 0.28355 0.99631 0.0
O563 O 0.48171 0.33729 0.05342 0.0
C564 C 0.37243 0.27679 0.03753 0.0
C565 C 0.56023 0.31452 1.00937 0.0
C566 C 0.62759 0.23547 0.01747 0.0
N567 N 0.54342 0.26368 0.03312 0.0
C568 C 0.52707 0.30655 0.02273 0.0
C569 C 0.59329 0.22872 0.0307 0.0
C570 C 0.61041 0.2782 1.00667 0.0
C571 C 0.33566 0.15754 0.07869 0.0
N572 N 0.31801 0.20878 0.07129 0.0
C573 C 0.30117 0.10497 0.07776 0.0
C574 C 0.24825 0.10514 0.06921 0.0
C575 C 0.23051 0.1576 0.0617 0.0
C576 C 0.26621 0.20929 0.06285 0.0
C577 C 0.21047 0.34761 0.09258 0.0
C578 C 0.29026 0.38311 0.07007 0.0
C579 C 0.26018 0.312 0.08874 0.0
N580 N 0.29907 0.32977 0.07753 0.0
C581 C 0.24105 0.41988 0.07361 0.0
C582 C 0.20091 0.40186 0.08494 0.0
C583 C 0.45897 0.37092 0.06372 0.0
C584 C 0.61512 0.20439 0.08479 0.0
C585 C 0.60053 0.29578 0.06364 0.0
C586 C 0.64938 0.29761 0.07367 0.0
C587 C 0.65659 0.25157 0.08431 0.0
N588 N 0.56005 0.24936 0.0642 0.0
C589 C 0.56686 0.20401 0.07458 0.0
Co590 Co 0.71127 0.86858 0.32244 0.0
Co591 Co 0.74307 0.99175 0.30046 0.0
O592 O 0.76069 0.93897 0.3177 0.0
C593 C 0.72272 0.93193 0.35203 0.0
O594 O 0.70841 0.98194 0.34489 0.0
C595 C 0.87109 0.9618 0.29677 0.0
O596 O 0.8554 0.90486 0.29783 0.0
O597 O 0.74361 0.92192 0.28644 0.0
O598 O 0.69499 0.85238 0.30024 0.0
H599 H 0.64323 0.0466 0.25107 0.0
H600 H 0.83458 0.87734 0.33522 0.0
O601 O 0.72602 0.88238 0.34472 0.0
H602 H 0.83332 0.68968 0.30509 0.0
H603 H 0.65841 0.68013 0.35148 0.0
H604 H 0.59393 0.82181 0.31139 0.0
H605 H 0.74169 0.75231 0.30709 0.0
H606 H 0.72168 0.76762 0.34472 0.0
O607 O 0.83126 0.00297 0.29733 0.0
H608 H 0.65751 0.9874 0.27454 0.0
H609 H 0.79638 0.10647 0.28887 0.0
H610 H 0.52953 0.73465 0.3177 0.0
H611 H 0.9271 0.81579 0.33362 0.0
H612 H 0.5617 0.66307 0.33788 0.0
H613 H 0.92686 0.7213 0.31844 0.0
O614 O 0.63862 0.92065 0.32344 0.0
H615 H 0.82267 0.12062 0.34299 0.0
H616 H 0.65973 0.09556 0.30531 0.0
H617 H 0.65667 0.18166 0.32307 0.0
H618 H 0.7386 0.19463 0.34207 0.0
H619 H 0.82367 0.03486 0.3251 0.0
H620 H 0.78381 0.16678 0.26548 0.0
H621 H 0.70775 0.13605 0.24623 0.0
O622 O 0.65411 0.98191 0.3034 0.0
C623 C 0.71473 0.87256 0.28756 0.0
C624 C 0.67686 0.06013 0.25932 0.0
C625 C 0.75581 0.12755 0.2674 0.0
N626 N 0.72767 0.0435 0.28308 0.0
C627 C 0.68484 0.02707 0.27269 0.0
C628 C 0.76258 0.09336 0.28064 0.0
C629 C 0.71312 0.11029 0.25661 0.0
C630 C 0.83398 0.83596 0.32871 0.0
N631 N 0.78275 0.8183 0.32132 0.0
C632 C 0.88657 0.80143 0.3278 0.0
C633 C 0.88643 0.74847 0.31926 0.0
C634 C 0.83397 0.73073 0.31175 0.0
C635 C 0.78226 0.76646 0.3129 0.0
C636 C 0.64398 0.71091 0.34264 0.0
C637 C 0.60842 0.79064 0.32012 0.0
C638 C 0.67956 0.76058 0.33878 0.0
N639 N 0.66176 0.79944 0.32757 0.0
C640 C 0.57168 0.74147 0.32367 0.0
C641 C 0.58973 0.70136 0.335 0.0
C642 C 0.6205 0.95927 0.31372 0.0
C643 C 0.78679 0.11553 0.33474 0.0
C644 C 0.69546 0.1008 0.31358 0.0
C645 C 0.69355 0.14972 0.32358 0.0
C646 C 0.73956 0.157 0.33423 0.0
N647 N 0.74192 0.06032 0.31416 0.0
C648 C 0.78724 0.0672 0.32454 0.0
Co649 Co 0.12325 0.21086 0.57248 0.0
Co650 Co -8e-05 0.24271 0.55053 0.0
O651 O 0.05278 0.26028 0.56776 0.0
C652 C 0.05996 0.22223 0.60207 0.0
O653 O 0.00996 0.20793 0.59493 0.0
C654 C 0.02982 0.37069 0.54684 0.0
O655 O 0.08677 0.35493 0.54788 0.0
O656 O 0.06967 0.24323 0.53649 0.0
O657 O 0.13939 0.19465 0.55027 0.0
H658 H 0.94488 0.14295 0.50115 0.0
H659 H 0.11437 0.33413 0.58528 0.0
O660 O 0.1095 0.22555 0.59476 0.0
H661 H 0.30192 0.333 0.55512 0.0
H662 H 0.31188 0.15797 0.60147 0.0
H663 H 0.17015 0.09358 0.56139 0.0
H664 H 0.23942 0.24136 0.55711 0.0
H665 H 0.22426 0.22122 0.59474 0.0
O666 O 0.98865 0.33091 0.54741 0.0
H667 H 0.0042 0.15718 0.52461 0.0
H668 H 0.88511 0.29608 0.53898 0.0
H669 H 0.25743 0.02919 0.56766 0.0
H670 H 0.17579 0.42667 0.58369 0.0
H671 H 0.32903 0.06131 0.58784 0.0
H672 H 0.27022 0.4265 0.56849 0.0
O673 O 0.07129 0.13819 0.57347 0.0
H674 H 0.87124 0.32233 0.59311 0.0
H675 H 0.8962 0.15941 0.55542 0.0
H676 H 0.81022 0.15636 0.57321 0.0
H677 H 0.79729 0.23829 0.59222 0.0
H678 H 0.95689 0.32332 0.57519 0.0
H679 H 0.82467 0.28357 0.51561 0.0
H680 H 0.85535 0.20751 0.49635 0.0
O681 O 0.00984 0.15375 0.55346 0.0
C682 C 0.1191 0.2144 0.53759 0.0
C683 C 0.93137 0.17657 0.50941 0.0
C684 C 0.86394 0.25555 0.51752 0.0
N685 N 0.9481 0.22735 0.53317 0.0
C686 C 0.96449 0.18452 0.52277 0.0
C687 C 0.8982 0.26228 0.53075 0.0
C688 C 0.88116 0.21286 0.50672 0.0
C689 C 0.15573 0.33356 0.57877 0.0
N690 N 0.17343 0.28235 0.57136 0.0
C691 C 0.19018 0.38616 0.57786 0.0
C692 C 0.24311 0.38606 0.5693 0.0
C693 C 0.26089 0.33362 0.56179 0.0
C694 C 0.22524 0.28191 0.56293 0.0
C695 C 0.28108 0.14356 0.59263 0.0
C696 C 0.20133 0.10805 0.57011 0.0
C697 C 0.23135 0.17913 0.58879 0.0
N698 N 0.19248 0.16136 0.57758 0.0
C699 C 0.25057 0.07131 0.57365 0.0
C700 C 0.29069 0.08934 0.58498 0.0
C701 C 0.03261 0.12011 0.56376 0.0
C702 C 0.8763 0.28646 0.58486 0.0
C703 C 0.89098 0.19513 0.56369 0.0
C704 C 0.84213 0.19323 0.57371 0.0
C705 C 0.83488 0.23924 0.58436 0.0
N706 N 0.93143 0.24158 0.56425 0.0
C707 C 0.92457 0.2869 0.57464 0.0
Co708 Co 0.78155 0.8689 0.44654 0.0
Co709 Co 0.74965 0.99227 0.46847 0.0
O710 O 0.73211 0.93937 0.45124 0.0
C711 C 0.77024 0.93208 0.41693 0.0
O712 O 0.78452 0.98212 0.42406 0.0
C713 C 0.62167 0.96237 0.47217 0.0
O714 O 0.63742 0.90543 0.47112 0.0
O715 O 0.74911 0.92255 0.48252 0.0
O716 O 0.79773 0.85281 0.46876 0.0
H717 H 0.84932 0.04741 0.51786 0.0
H718 H 0.65831 0.87772 0.43373 0.0
O719 O 0.76691 0.88257 0.42426 0.0
H720 H 0.6594 0.69025 0.46392 0.0
H721 H 0.83452 0.6802 0.41759 0.0
H722 H 0.89883 0.82204 0.45765 0.0
H723 H 0.75105 0.75276 0.46193 0.0
H724 H 0.77124 0.76782 0.4243 0.0
O725 O 0.66144 0.00355 0.47158 0.0
H726 H 0.83514 0.98805 0.4944 0.0
H727 H 0.69626 0.10711 0.48 0.0
H728 H 0.96325 0.73476 0.45139 0.0
H729 H 0.56576 0.8163 0.43532 0.0
H730 H 0.93116 0.6631 0.43123 0.0
H731 H 0.56592 0.72191 0.45054 0.0
O732 O 0.85422 0.92086 0.44555 0.0
H733 H 0.67009 0.12086 0.42587 0.0
H734 H 0.83295 0.09599 0.46358 0.0
H735 H 0.83602 0.18194 0.44578 0.0
H736 H 0.75413 0.19482 0.42676 0.0
H737 H 0.66908 0.03524 0.4438 0.0
H738 H 0.70872 0.16758 0.50337 0.0
H739 H 0.78474 0.13695 0.52264 0.0
O740 O 0.83862 0.98235 0.46555 0.0
C741 C 0.77795 0.87313 0.48142 0.0
C742 C 0.81571 0.06091 0.50959 0.0
C743 C 0.73675 0.12832 0.50147 0.0
N744 N 0.76498 0.04413 0.48583 0.0
C745 C 0.80779 0.02776 0.49623 0.0
C746 C 0.73004 0.09403 0.48824 0.0
C747 C 0.77942 0.11112 0.51227 0.0
C748 C 0.65887 0.83639 0.44025 0.0
N749 N 0.71007 0.81871 0.44766 0.0
C750 C 0.60627 0.80193 0.44116 0.0
C751 C 0.60636 0.74903 0.44972 0.0
C752 C 0.65879 0.73127 0.45724 0.0
C753 C 0.7105 0.76692 0.4561 0.0
C754 C 0.84891 0.71102 0.42642 0.0
C755 C 0.88438 0.79084 0.44893 0.0
C756 C 0.81333 0.76076 0.43025 0.0
N757 N 0.83107 0.79966 0.44145 0.0
C758 C 0.92113 0.7416 0.4454 0.0
C759 C 0.90313 0.70144 0.43408 0.0
C760 C 0.87228 0.95956 0.45526 0.0
C761 C 0.70595 0.11581 0.43413 0.0
C762 C 0.79724 0.10119 0.45531 0.0
C763 C 0.79916 0.15002 0.44528 0.0
C764 C 0.75317 0.15724 0.43462 0.0
N765 N 0.7508 0.06073 0.45474 0.0
C766 C 0.7055 0.06756 0.44434 0.0
Co767 Co 0.12293 0.28136 0.69658 0.0
Co768 Co -0.00045 0.24963 0.7185 0.0
O769 O 0.05246 0.23199 0.70128 0.0
C770 C 0.05978 0.26998 0.66697 0.0
O771 O 0.00973 0.28433 0.67409 0.0
C772 C 0.02943 0.12161 0.72221 0.0
O773 O 0.08638 0.13729 0.72117 0.0
O774 O 0.06927 0.24904 0.73256 0.0
O775 O 0.13897 0.2976 0.71879 0.0
H776 H 0.94433 0.34952 0.76786 0.0
H777 H 0.11416 0.15808 0.68379 0.0
O778 O 0.10928 0.26665 0.6743 0.0
H779 H 0.30159 0.15913 0.714 0.0
H780 H 0.31165 0.33408 0.66763 0.0
H781 H 0.16973 0.39864 0.70766 0.0
H782 H 0.23905 0.25082 0.71198 0.0
H783 H 0.22404 0.27089 0.67435 0.0
O784 O 0.98827 0.16144 0.72162 0.0
H785 H 0.00375 0.33517 0.74443 0.0
H786 H 0.8847 0.19639 0.73003 0.0
H787 H 0.257 0.46296 0.70141 0.0
H788 H 0.17561 0.0655 0.6854 0.0
H789 H 0.32871 0.43075 0.68126 0.0
H790 H 0.26998 0.06563 0.70063 0.0
O791 O 0.07094 0.35407 0.69557 0.0
H792 H 0.87099 0.17012 0.6759 0.0
H793 H 0.89584 0.33304 0.71359 0.0
H794 H 0.80991 0.33617 0.69579 0.0
H795 H 0.79704 0.25424 0.67678 0.0
H796 H 0.95659 0.16905 0.69384 0.0
H797 H 0.82418 0.20901 0.75339 0.0
H798 H 0.85478 0.28507 0.77265 0.0
O799 O 0.00948 0.33858 0.71557 0.0
C800 C 0.11867 0.27787 0.73146 0.0
C801 C 0.93085 0.31589 0.75961 0.0
C802 C 0.86345 0.23698 0.75149 0.0
N803 N 0.94767 0.26505 0.73586 0.0
C804 C 0.96403 0.30788 0.74625 0.0
C805 C 0.89776 0.23018 0.73826 0.0
C806 C 0.88063 0.27967 0.76229 0.0
C807 C 0.15549 0.15863 0.69031 0.0
N808 N 0.17314 0.20984 0.69772 0.0
C809 C 0.18996 0.10601 0.69123 0.0
C810 C 0.24285 0.10609 0.6998 0.0
C811 C 0.26058 0.15853 0.70732 0.0
C812 C 0.22492 0.21026 0.70616 0.0
C813 C 0.28081 0.34852 0.67646 0.0
C814 C 0.20095 0.38413 0.69895 0.0
C815 C 0.23108 0.31299 0.68029 0.0
N816 N 0.19215 0.33081 0.69148 0.0
C817 C 0.25019 0.42083 0.69543 0.0
C818 C 0.29037 0.40276 0.68411 0.0
C819 C 0.03225 0.3722 0.70528 0.0
C820 C 0.87603 0.20599 0.68416 0.0
C821 C 0.89065 0.29732 0.70532 0.0
C822 C 0.84182 0.29926 0.6953 0.0
C823 C 0.8346 0.25326 0.68464 0.0
N824 N 0.9311 0.25082 0.70477 0.0
C825 C 0.92427 0.20551 0.69438 0.0
Co826 Co 0.71021 0.62309 0.94657 0.0
Co827 Co 0.74201 0.49949 0.96842 0.0
O828 O 0.75958 0.55254 0.95123 0.0
C829 C 0.72145 0.5601 0.91693 0.0
O830 O 0.70712 0.51004 0.92404 0.0
C831 C 0.86999 0.52931 0.97215 0.0
O832 O 0.85424 0.58627 0.97114 0.0
O833 O 0.74256 0.56908 0.98252 0.0
O834 O 0.69407 0.63901 0.96879 0.0
H835 H 0.64223 0.44387 0.01775 0.0
H836 H 0.83343 0.61424 0.93374 0.0
O837 O 0.72482 0.60957 0.92427 0.0
H838 H 0.83257 0.80146 0.96404 0.0
H839 H 0.65743 0.81209 0.91772 0.0
H840 H 0.593 0.67 0.9577 0.0
H841 H 0.74086 0.73907 0.96201 0.0
H842 H 0.72061 0.72433 0.92437 0.0
O843 O 0.83021 0.48815 0.97153 0.0
H844 H 0.6565 0.50349 0.99435 0.0
H845 H 0.79533 0.38451 0.97987 0.0
H846 H 0.52869 0.75742 0.9515 0.0
H847 H 0.92605 0.67554 0.93536 0.0
H848 H 0.56084 0.82921 0.93138 0.0
H849 H 0.92601 0.76981 0.95063 0.0
O850 O 0.63747 0.57122 0.94556 0.0
H851 H 0.82155 0.37129 0.92574 0.0
H852 H 0.65865 0.39588 0.96345 0.0
H853 H 0.65553 0.31013 0.94559 0.0
H854 H 0.73745 0.29739 0.92657 0.0
H855 H 0.8226 0.45671 0.94373 0.0
H856 H 0.78278 0.32377 1.00319 0.0
H857 H 0.70675 0.35424 0.02248 0.0
O858 O 0.65306 0.50949 0.9655 0.0
C859 C 0.71379 0.61855 0.98145 0.0
C860 C 0.67585 0.43045 1.00949 0.0
C861 C 0.75478 0.36308 1.00132 0.0
N862 N 0.72664 0.44746 0.98574 0.0
C863 C 0.68382 0.46375 0.99615 0.0
C864 C 0.76154 0.39751 0.98812 0.0
C865 C 0.7121 0.38018 0.01213 0.0
C866 C 0.83292 0.65552 0.94028 0.0
N867 N 0.78175 0.6732 0.94771 0.0
C868 C 0.88556 0.68991 0.94121 0.0
C869 C 0.88553 0.74274 0.9498 0.0
C870 C 0.83314 0.7605 0.95734 0.0
C871 C 0.78138 0.72492 0.95618 0.0
C872 C 0.64301 0.78121 0.92653 0.0
C873 C 0.60748 0.70126 0.949 0.0
C874 C 0.67854 0.7314 0.93033 0.0
N875 N 0.66076 0.69242 0.94151 0.0
C876 C 0.57079 0.75058 0.94551 0.0
C877 C 0.58883 0.7908 0.93421 0.0
C878 C 0.61939 0.53245 0.95524 0.0
C879 C 0.78568 0.37627 0.93399 0.0
C880 C 0.69436 0.39074 0.95517 0.0
C881 C 0.69243 0.34202 0.94511 0.0
C882 C 0.73843 0.33487 0.93445 0.0
N883 N 0.74084 0.43117 0.95464 0.0
C884 C 0.78616 0.42441 0.94425 0.0
Co885 Co 0.36867 0.21015 0.19654 0.0
Co886 Co 0.49216 0.24185 0.21843 0.0
O887 O 0.43921 0.25946 0.20121 0.0
C888 C 0.43177 0.22126 0.16691 0.0
O889 O 0.48181 0.20689 0.17404 0.0
C890 C 0.46236 0.36989 0.22213 0.0
O891 O 0.4054 0.35423 0.2211 0.0
O892 O 0.42249 0.24254 0.2325 0.0
O893 O 0.35265 0.19407 0.21876 0.0
H894 H 0.54744 0.14214 0.2678 0.0
H895 H 0.37757 0.33334 0.18371 0.0
O896 O 0.38228 0.22471 0.17425 0.0
H897 H 0.19021 0.33272 0.21394 0.0
H898 H 0.1798 0.15752 0.16764 0.0
H899 H 0.32173 0.093 0.20767 0.0
H900 H 0.25261 0.24094 0.21195 0.0
H901 H 0.26752 0.22062 0.17432 0.0
O902 O 0.50351 0.33005 0.22153 0.0
H903 H 0.48798 0.15642 0.24437 0.0
H904 H 0.60708 0.29505 0.22993 0.0
H905 H 0.23435 0.02876 0.20145 0.0
H906 H 0.31625 0.42602 0.18529 0.0
H907 H 0.16264 0.06095 0.1813 0.0
H908 H 0.22191 0.4261 0.20054 0.0
O909 O 0.42056 0.13736 0.19555 0.0
H910 H 0.62062 0.3211 0.17578 0.0
H911 H 0.59579 0.15835 0.21352 0.0
H912 H 0.68165 0.15508 0.19569 0.0
H913 H 0.69451 0.23692 0.17666 0.0
H914 H 0.53509 0.32231 0.19374 0.0
H915 H 0.66766 0.28249 0.25327 0.0
H916 H 0.63705 0.20655 0.27256 0.0
O917 O 0.48215 0.15291 0.21552 0.0
C918 C 0.37303 0.21381 0.23142 0.0
C919 C 0.56093 0.17571 0.25954 0.0
C920 C 0.62836 0.25454 0.25138 0.0
N921 N 0.54408 0.22646 0.23577 0.0
C922 C 0.52772 0.18369 0.24618 0.0
C923 C 0.59402 0.2613 0.23817 0.0
C924 C 0.61117 0.21191 0.2622 0.0
C925 C 0.33626 0.33288 0.19023 0.0
N926 N 0.31855 0.28174 0.19766 0.0
C927 C 0.30186 0.38555 0.19114 0.0
C928 C 0.24899 0.3856 0.19972 0.0
C929 C 0.2312 0.33323 0.20726 0.0
C930 C 0.2668 0.28144 0.20611 0.0
C931 C 0.21064 0.14308 0.17647 0.0
C932 C 0.29051 0.1075 0.19896 0.0
C933 C 0.26044 0.17856 0.18028 0.0
N934 N 0.29936 0.16076 0.19147 0.0
C935 C 0.24121 0.07085 0.19545 0.0
C936 C 0.20103 0.08891 0.18414 0.0
C937 C 0.45927 0.11925 0.20525 0.0
C938 C 0.61558 0.28526 0.18405 0.0
C939 C 0.60098 0.19403 0.20524 0.0
C940 C 0.64976 0.19201 0.1952 0.0
C941 C 0.65698 0.23796 0.18453 0.0
N942 N 0.56056 0.24056 0.20468 0.0
C943 C 0.56739 0.28583 0.19428 0.0
C944 C 0.98044 0.93473 0.29581 0.0
C945 C 0.93521 0.97899 0.2959 0.0
H946 H 0.07494 0.91613 0.29596 0.0
C947 C 0.9518 0.04024 0.29571 0.0
H948 H 0.9691 0.88722 0.29595 0.0
C949 C 0.01245 0.05689 0.29576 0.0
C950 C 0.05768 0.01263 0.29595 0.0
H951 H 0.91795 0.0755 0.29578 0.0
H952 H 0.02379 0.10441 0.29587 0.0
C953 C 0.0411 0.95138 0.29581 0.0
C954 C 0.04031 0.54066 0.5458 0.0
C955 C 0.97907 0.55734 0.54595 0.0
H956 H 0.10444 0.46856 0.54595 0.0
C957 C 0.93479 0.51219 0.54579 0.0
H958 H 0.07559 0.57444 0.54591 0.0
C959 C 0.95141 0.45151 0.54576 0.0
C960 C 0.01265 0.43482 0.54594 0.0
H961 H 0.88728 0.5236 0.54591 0.0
H962 H 0.91613 0.41772 0.54585 0.0
C963 C 0.05693 0.47998 0.54581 0.0
C964 C 0.54007 0.45177 0.79574 0.0
C965 C 0.55666 0.51301 0.79591 0.0
H966 H 0.46807 0.38761 0.7959 0.0
C967 C 0.51144 0.55728 0.79578 0.0
H968 H 0.57391 0.41651 0.79584 0.0
C969 C 0.45078 0.54063 0.79577 0.0
C970 C 0.43419 0.47939 0.79594 0.0
H971 H 0.52278 0.60479 0.79592 0.0
H972 H 0.41694 0.5759 0.79589 0.0
C973 C 0.47941 0.43512 0.79578 0.0
C974 C 0.43448 0.01105 0.04581 0.0
C975 C 0.47876 0.05622 0.0459 0.0
H976 H 0.41584 0.91658 0.04597 0.0
C977 C 0.54 0.03954 0.04573 0.0
H978 H 0.38697 0.02247 0.04595 0.0
C979 C 0.55663 0.97886 0.04579 0.0
C980 C 0.51235 0.9337 0.04599 0.0
H981 H 0.57527 0.07333 0.0458 0.0
H982 H 0.60414 0.96746 0.04591 0.0
C983 C 0.45111 0.95037 0.04583 0.0
C984 C 0.03994 0.5398 0.9733 0.0
C985 C 0.05664 0.47856 0.97311 0.0
H986 H 0.96784 0.60392 0.97314 0.0
C987 C 0.01149 0.43427 0.97321 0.0
H988 H 0.07373 0.57508 0.97323 0.0
C989 C 0.9508 0.45089 0.9732 0.0
C990 C 0.93412 0.51213 0.97306 0.0
H991 H 0.02291 0.38677 0.97306 0.0
H992 H 0.91702 0.41561 0.97306 0.0
C993 C 0.97926 0.55641 0.97325 0.0
C994 C 0.4353 0.47921 0.22325 0.0
C995 C 0.47957 0.43399 0.22306 0.0
H996 H 0.41666 0.5737 0.22324 0.0
C997 C 0.54081 0.45059 0.22322 0.0
H998 H 0.38778 0.46786 0.22313 0.0
C999 C 0.55745 0.51125 0.22324 0.0
C1000 C 0.51317 0.55647 0.22315 0.0
H1001 H 0.57608 0.41676 0.22308 0.0
H1002 H 0.60496 0.52261 0.22311 0.0
C1003 C 0.45193 0.53986 0.22332 0.0
C1004 C 0.48018 0.05742 0.47324 0.0
C1005 C 0.43502 0.01314 0.4731 0.0
H1006 H 0.57465 0.07607 0.47315 0.0
C1007 C 0.4517 0.9519 0.47325 0.0
H1008 H 0.46876 0.10493 0.47312 0.0
C1009 C 0.51238 0.93528 0.47321 0.0
C1010 C 0.55754 0.97956 0.47307 0.0
H1011 H 0.41791 0.91663 0.47314 0.0
H1012 H 0.52379 0.88776 0.47307 0.0
C1013 C 0.54086 0.0408 0.47325 0.0
C1014 C 0.95099 0.0409 0.72327 0.0
C1015 C 0.01223 0.0575 0.72311 0.0
H1016 H 0.88683 0.96889 0.72312 0.0
C1017 C 0.0565 0.01228 0.72325 0.0
H1018 H 0.91572 0.07474 0.72316 0.0
C1019 C 0.03986 0.95162 0.72327 0.0
C1020 C 0.97862 0.93502 0.7231 0.0
H1021 H 0.10401 0.02363 0.72312 0.0
H1022 H 0.07513 0.91778 0.72317 0.0
C1023 C 0.93435 0.98024 0.72325 0.0
C1024 C 0.52657 0.98746 0.30014 0.0
C1025 C 0.55696 0.9776 0.31392 0.0
H1026 H 0.44359 0.01188 0.28937 0.0
C1027 C 0.52651 0.98648 0.32775 0.0
H1028 H 0.54921 0.9807 0.28935 0.0
C1029 C 0.46653 0.00592 0.32776 0.0
C1030 C 0.43599 0.01484 0.31396 0.0
H1031 H 0.54939 0.97944 0.3385 0.0
H1032 H 0.4437 0.0129 0.33852 0.0
C1033 C 0.4663 0.00509 0.30016 0.0
C1034 C 0.98698 0.96594 0.55017 0.0
C1035 C 0.97718 0.93563 0.56396 0.0
H1036 H 0.01136 0.04886 0.53938 0.0
C1037 C 0.98605 0.96613 0.57778 0.0
H1038 H 0.98023 0.94325 0.53938 0.0
C1039 C 0.00547 0.0261 0.57777 0.0
C1040 C 0.01437 0.05656 0.56396 0.0
H1041 H 0.97903 0.9433 0.58853 0.0
H1042 H 0.01246 0.04896 0.58853 0.0
C1043 C 0.00458 0.0262 0.55017 0.0
C1044 C 0.02557 0.48735 0.80016 0.0
C1045 C 0.05589 0.47757 0.81395 0.0
H1046 H 0.94264 0.51174 0.78936 0.0
C1047 C 0.02538 0.48647 0.82776 0.0
H1048 H 0.04827 0.48058 0.78937 0.0
C1049 C 0.96539 0.50591 0.82776 0.0
C1050 C 0.93492 0.51479 0.81393 0.0
H1051 H 0.04821 0.47947 0.83852 0.0
H1052 H 0.94252 0.51292 0.83851 0.0
C1053 C 0.96529 0.50498 0.80015 0.0
C1054 C 0.50475 0.5251 0.05018 0.0
C1055 C 0.51447 0.55539 0.06398 0.0
H1056 H 0.48041 0.44221 0.03936 0.0
C1057 C 0.50553 0.52485 0.07778 0.0
H1058 H 0.51156 0.54781 0.03939 0.0
C1059 C 0.48611 0.46489 0.07776 0.0
C1060 C 0.47727 0.43445 0.06393 0.0
H1061 H 0.51248 0.54766 0.08854 0.0
H1062 H 0.47905 0.44201 0.08851 0.0
C1063 C 0.48714 0.46484 0.05016 0.0
C1064 C 0.46533 0.48599 0.94125 0.0
C1065 C 0.43488 0.47712 0.95508 0.0
H1066 H 0.54813 0.51238 0.93048 0.0
C1067 C 0.46525 0.48695 0.96886 0.0
H1068 H 0.44246 0.47896 0.9305 0.0
C1069 C 0.52551 0.50455 0.96885 0.0
C1070 C 0.55582 0.5143 0.95505 0.0
H1071 H 0.4426 0.4802 0.97966 0.0
H1072 H 0.54821 0.51132 0.97964 0.0
C1073 C 0.5253 0.50541 0.94124 0.0
C1074 C 0.50484 0.96509 0.21888 0.0
C1075 C 0.51465 0.93469 0.2051 0.0
H1076 H 0.48046 0.04809 0.22965 0.0
C1077 C 0.50577 0.96513 0.19127 0.0
H1078 H 0.5116 0.94245 0.22967 0.0
C1079 C 0.48634 0.02512 0.19126 0.0
C1080 C 0.47745 0.05567 0.20507 0.0
H1081 H 0.51279 0.94224 0.18052 0.0
H1082 H 0.47935 0.04793 0.1805 0.0
C1083 C 0.48723 0.02537 0.21886 0.0
C1084 C 0.96632 0.98668 0.44125 0.0
C1085 C 0.93583 0.97781 0.45507 0.0
H1086 H 0.04914 0.0131 0.4305 0.0
C1087 C 0.96615 0.98762 0.46886 0.0
H1088 H 0.94348 0.97966 0.4305 0.0
C1089 C 0.02641 0.00523 0.46886 0.0
C1090 C 0.05676 0.01501 0.45507 0.0
H1091 H 0.94347 0.98087 0.47965 0.0
H1092 H 0.04908 0.01201 0.47965 0.0
C1093 C 0.02628 0.00611 0.44125 0.0
C1094 C 0.00423 0.46612 0.71887 0.0
C1095 C 0.01401 0.43576 0.70508 0.0
H1096 H 0.97986 0.54908 0.72967 0.0
C1097 C 0.00511 0.46625 0.69127 0.0
H1098 H 0.01101 0.44345 0.72966 0.0
C1099 C 0.98568 0.52624 0.69127 0.0
C1100 C 0.97681 0.55674 0.70509 0.0
H1101 H 0.01211 0.4434 0.68051 0.0
H1102 H 0.97867 0.54909 0.68051 0.0
C1103 C 0.98662 0.5264 0.71887 0.0
C1104 C 0.25199 0.11466 0.3767 0.0
C1105 C 0.2581 0.0601 0.36869 0.0
H1106 H 0.23639 0.15764 0.39813 0.0
C1107 C 0.25236 0.00549 0.37671 0.0
H1108 H 0.25625 0.15757 0.37091 0.0
C1109 C 0.24051 0.00553 0.39238 0.0
C1110 C 0.23468 0.06017 0.40038 0.0
H1111 H 0.25666 0.96266 0.37087 0.0
H1112 H 0.23628 0.96273 0.39822 0.0
C1113 C 0.24071 0.1147 0.39235 0.0
C1114 C 0.98643 0.75208 0.62669 0.0
C1115 C 0.93182 0.75786 0.61868 0.0
H1116 H 0.02918 0.73602 0.64821 0.0
C1117 C 0.87726 0.75185 0.62669 0.0
H1118 H 0.02925 0.7563 0.62086 0.0
C1119 C 0.87721 0.74064 0.64234 0.0
C1120 C 0.93174 0.73457 0.65037 0.0
H1121 H 0.83434 0.75615 0.6209 0.0
H1122 H 0.83427 0.73639 0.64811 0.0
C1123 C 0.98639 0.74029 0.64237 0.0
C1124 C 0.23981 0.37766 0.87669 0.0
C1125 C 0.23374 0.43224 0.86869 0.0
H1126 H 0.25534 0.33463 0.89811 0.0
C1127 C 0.23945 0.48683 0.87671 0.0
H1128 H 0.23557 0.33476 0.87089 0.0
C1129 C 0.25125 0.48676 0.89239 0.0
C1130 C 0.25704 0.43209 0.90038 0.0
H1131 H 0.23518 0.52967 0.87089 0.0
H1132 H 0.25547 0.52954 0.89824 0.0
C1133 C 0.25104 0.37759 0.89234 0.0
C1134 C 0.61426 0.73923 0.12674 0.0
C1135 C 0.55969 0.73316 0.11874 0.0
H1136 H 0.65726 0.75481 0.14816 0.0
C1137 C 0.50509 0.73893 0.12676 0.0
H1138 H 0.65717 0.73494 0.12095 0.0
C1139 C 0.50514 0.75078 0.14243 0.0
C1140 C 0.55979 0.75658 0.15042 0.0
H1141 H 0.46226 0.73466 0.12093 0.0
H1142 H 0.46235 0.75505 0.14828 0.0
C1143 C 0.61431 0.75051 0.14239 0.0
C1144 C 0.75121 0.50511 0.87663 0.0
C1145 C 0.75697 0.55977 0.86864 0.0
H1146 H 0.73513 0.4622 0.89813 0.0
C1147 C 0.7509 0.61428 0.87668 0.0
H1148 H 0.75547 0.46232 0.87077 0.0
C1149 C 0.73965 0.6142 0.89232 0.0
C1150 C 0.7336 0.55963 0.90033 0.0
H1151 H 0.75518 0.65723 0.87091 0.0
H1152 H 0.73536 0.65711 0.89812 0.0
C1153 C 0.73938 0.50503 0.8923 0.0
C1154 C 0.37769 0.23943 0.1423 0.0
C1155 C 0.43226 0.23335 0.15031 0.0
H1156 H 0.33468 0.25495 0.12088 0.0
C1157 C 0.48686 0.23902 0.14228 0.0
H1158 H 0.33478 0.23523 0.1481 0.0
C1159 C 0.4868 0.25079 0.12661 0.0
C1160 C 0.43214 0.2566 0.11861 0.0
H1161 H 0.52969 0.23473 0.14811 0.0
H1162 H 0.52959 0.25498 0.12076 0.0
C1163 C 0.37763 0.25063 0.12665 0.0
C1164 C 0.7406 0.98718 0.37664 0.0
C1165 C 0.73486 0.93253 0.36863 0.0
H1166 H 0.75661 0.03004 0.39814 0.0
C1167 C 0.7409 0.87801 0.37666 0.0
H1168 H 0.73636 0.02998 0.37079 0.0
C1169 C 0.75211 0.87805 0.39231 0.0
C1170 C 0.75812 0.93261 0.40033 0.0
H1171 H 0.73664 0.83507 0.37089 0.0
H1172 H 0.75637 0.83513 0.3981 0.0
C1173 C 0.75238 0.98722 0.39231 0.0
C1174 C 0.00466 0.25204 0.64234 0.0
C1175 C 0.05927 0.2578 0.65036 0.0
H1176 H 0.96191 0.23596 0.62083 0.0
C1177 C 0.11383 0.25172 0.64235 0.0
H1178 H 0.96183 0.25632 0.64818 0.0
C1179 C 0.11388 0.24045 0.62671 0.0
C1180 C 0.05936 0.23441 0.61868 0.0
H1181 H 0.15675 0.25599 0.64814 0.0
H1182 H 0.15682 0.23615 0.62093 0.0
C1183 C 0.00471 0.24021 0.62668 0.0
C1184 C 0.33848 0.19657 0.27343 0.0
C1185 C 0.29506 0.15038 0.27329 0.0
H1186 H 0.39698 0.25303 0.26036 0.0
C1187 C 0.27259 0.13034 0.25919 0.0
H1188 H 0.35668 0.21332 0.28406 0.0
C1189 C 0.29546 0.15343 0.24556 0.0
C1190 C 0.34171 0.19679 0.24571 0.0
H1191 H 0.23884 0.09509 0.25864 0.0
H1192 H 0.27875 0.13519 0.23494 0.0
C1193 C 0.36169 0.21932 0.2598 0.0
C1194 C 0.83849 0.79554 0.49555 0.0
C1195 C 0.79505 0.84176 0.4957 0.0
H1196 H 0.89692 0.7389 0.50861 0.0
C1197 C 0.77247 0.86166 0.50981 0.0
H1198 H 0.85676 0.77889 0.48492 0.0
C1199 C 0.79526 0.83839 0.52343 0.0
C1200 C 0.84152 0.795 0.52328 0.0
H1201 H 0.7387 0.89692 0.51037 0.0
H1202 H 0.77846 0.85653 0.53406 0.0
C1203 C 0.86161 0.77261 0.50917 0.0
C1204 C 0.13007 0.27256 0.75985 0.0
C1205 C 0.15 0.29503 0.74574 0.0
H1206 H 0.13514 0.27871 0.7841 0.0
C1207 C 0.1962 0.33844 0.74557 0.0
H1208 H 0.09482 0.23882 0.76042 0.0
C1209 C 0.21908 0.36164 0.75919 0.0
C1210 C 0.19666 0.34165 0.7733 0.0
H1211 H 0.21286 0.35663 0.73494 0.0
H1212 H 0.25279 0.39692 0.75862 0.0
C1213 C 0.15329 0.29542 0.77346 0.0
C1214 C 0.71917 0.6297 0.00984 0.0
C1215 C 0.69668 0.64979 0.99574 0.0
H1216 H 0.71306 0.63457 0.03409 0.0
C1217 C 0.6533 0.69606 0.99561 0.0
H1218 H 0.75289 0.5944 0.01039 0.0
C1219 C 0.63013 0.71886 1.00924 0.0
C1220 C 0.65013 0.69629 0.02333 0.0
H1221 H 0.6351 0.71285 0.98498 0.0
H1222 H 0.59487 0.75263 1.00869 0.0
C1223 C 0.69634 0.65285 0.02347 0.0
C1224 C 0.36103 0.27165 1.00914 0.0
C1225 C 0.34108 0.29404 0.02326 0.0
H1226 H 0.35596 0.27795 0.98489 0.0
C1227 C 0.29486 0.33747 0.02344 0.0
H1228 H 0.3963 0.2379 1.00856 0.0
C1229 C 0.27196 0.36076 0.00984 0.0
C1230 C 0.29439 0.34085 0.99572 0.0
H1231 H 0.27817 0.35561 0.03409 0.0
H1232 H 0.23822 0.39605 0.01042 0.0
C1233 C 0.33779 0.29461 0.99554 0.0
C1234 C 0.65413 0.79494 0.27349 0.0
C1235 C 0.69753 0.84114 0.2733 0.0
H1236 H 0.59562 0.73824 0.26048 0.0
C1237 C 0.71996 0.86096 0.25918 0.0
H1238 H 0.63597 0.77834 0.28414 0.0
C1239 C 0.69706 0.83764 0.24557 0.0
C1240 C 0.65084 0.79426 0.24576 0.0
H1241 H 0.75369 0.89621 0.25858 0.0
H1242 H 0.71374 0.85572 0.23493 0.0
C1243 C 0.63089 0.77195 0.25989 0.0
C1244 C 0.21968 0.1307 0.50987 0.0
C1245 C 0.19731 0.15076 0.49576 0.0
H1246 H 0.21336 0.1356 0.53412 0.0
C1247 C 0.15391 0.19702 0.4956 0.0
H1248 H 0.2534 0.0954 0.51044 0.0
C1249 C 0.13062 0.21983 0.50921 0.0
C1250 C 0.1505 0.19728 0.52332 0.0
H1251 H 0.1358 0.21379 0.48496 0.0
H1252 H 0.09536 0.25359 0.50864 0.0
C1253 C 0.19673 0.15385 0.52349 0.0
C1254 C 0.86081 0.71993 0.75985 0.0
C1255 C 0.84083 0.69753 0.74573 0.0
H1256 H 0.85579 0.71369 0.7841 0.0
C1257 C 0.79458 0.65418 0.74556 0.0
H1258 H 0.8961 0.75362 0.76042 0.0
C1259 C 0.7717 0.63096 0.75918 0.0
C1260 C 0.79417 0.65086 0.77329 0.0
H1261 H 0.77787 0.63605 0.73493 0.0
H1262 H 0.73795 0.59572 0.7586 0.0
C1263 C 0.83759 0.69705 0.77346 0.0
loop_
_geom_bond_atom_site_label_1
_geom_bond_atom_site_label_2
_geom_bond_distance
_geom_bond_site_symmetry_2
_ccdc_geom_bond_type
Co0 O2 2.143 . S
Co0 O8 2.074 . S
Co0 O11 2.093 . S
Co0 O24 2.097 . S
Co0 N41 2.151 . S
Co0 N49 2.214 . S
Co1 O2 2.160 . S
Co1 O7 2.058 . S
Co1 O17 2.057 . S
Co1 O32 2.037 . S
Co1 N36 2.145 1_545 S
Co1 N57 2.257 1_545 S
O2 Co0 2.143 . S
O2 Co1 2.160 . S
C3 O4 1.278 . S
C3 O11 1.224 . S
O4 C3 1.278 . S
C5 O6 1.245 . S
C5 O17 1.232 . S
O6 C5 1.245 . S
O7 Co1 2.058 . S
O7 C33 1.269 . S
O8 Co0 2.074 . S
O8 C33 1.257 . S
H9 C34 0.930 . S
H10 C40 0.930 . S
O11 Co0 2.093 . S
O11 C3 1.224 . S
H12 C44 0.929 . S
H13 C46 0.930 . S
H14 C47 0.930 . S
H15 C45 0.929 . S
H16 C48 0.928 . S
O17 Co1 2.057 . S
O17 C5 1.232 . S
H18 C37 0.929 . S
H19 C38 0.929 . S
H20 C50 0.931 . S
H21 C42 0.929 . S
H22 C51 0.930 . S
H23 C43 0.931 . S
O24 Co0 2.097 . S
O24 C52 1.214 . S
H25 C53 0.929 . S
H26 C54 0.929 . S
H27 C55 0.930 . S
H28 C56 0.929 . S
H29 C58 0.930 . S
H30 C35 0.930 . S
H31 C39 0.930 . S
O32 Co1 2.037 . S
O32 C52 1.234 . S
C33 O7 1.269 . S
C33 O8 1.257 . S
C34 H9 0.930 . S
C34 C37 1.388 . S
C34 C39 1.418 . S
C35 H30 0.930 . S
C35 C38 1.404 . S
C35 C39 1.353 . S
N36 Co1 2.145 1_565 S
N36 C37 1.397 . S
N36 C38 1.334 . S
C37 H18 0.929 . S
C37 C34 1.388 . S
C37 N36 1.397 . S
C38 H19 0.929 . S
C38 C35 1.404 . S
C38 N36 1.334 . S
C39 H31 0.930 . S
C39 C34 1.418 . S
C39 C35 1.353 . S
C40 H10 0.930 . S
C40 N41 1.330 . S
C40 C42 1.446 . S
N41 Co0 2.151 . S
N41 C40 1.330 . S
N41 C45 1.418 . S
C42 H21 0.929 . S
C42 C40 1.446 . S
C42 C43 1.332 . S
C43 H23 0.931 . S
C43 C42 1.332 . S
C43 C44 1.267 . S
C44 H12 0.929 . S
C44 C43 1.267 . S
C44 C45 1.251 . S
C45 H15 0.929 . S
C45 N41 1.418 . S
C45 C44 1.251 . S
C46 H13 0.930 . S
C46 C48 1.406 . S
C46 C51 1.261 . S
C47 H14 0.930 . S
C47 N49 1.325 . S
C47 C50 1.357 . S
C48 H16 0.928 . S
C48 C46 1.406 . S
C48 N49 1.261 . S
N49 Co0 2.214 . S
N49 C47 1.325 . S
N49 C48 1.261 . S
C50 H20 0.931 . S
C50 C47 1.357 . S
C50 C51 1.312 . S
C51 H22 0.930 . S
C51 C46 1.261 . S
C51 C50 1.312 . S
C52 O24 1.214 . S
C52 O32 1.234 . S
C53 H25 0.929 . S
C53 C56 1.391 . S
C53 C58 1.391 . S
C54 H26 0.929 . S
C54 C55 1.390 . S
C54 N57 1.391 . S
C55 H27 0.930 . S
C55 C54 1.390 . S
C55 C56 1.392 . S
C56 H28 0.929 . S
C56 C53 1.391 . S
C56 C55 1.392 . S
N57 Co1 2.257 1_565 S
N57 C54 1.391 . S
N57 C58 1.388 . S
C58 H29 0.930 . S
C58 C53 1.391 . S
C58 N57 1.388 . S
Co59 O61 2.143 . S
Co59 O67 2.074 . S
Co59 O70 2.093 . S
Co59 O83 2.097 . S
Co59 N100 2.151 . S
Co59 N108 2.214 . S
Co60 O61 2.160 . S
Co60 O66 2.058 . S
Co60 O76 2.057 . S
Co60 O91 2.037 . S
Co60 N95 2.145 1_655 S
Co60 N116 2.257 1_655 S
O61 Co59 2.143 . S
O61 Co60 2.160 . S
C62 O63 1.278 . S
C62 O70 1.224 . S
O63 C62 1.278 . S
C64 O65 1.245 . S
C64 O76 1.232 . S
O65 C64 1.245 . S
O66 Co60 2.058 . S
O66 C92 1.269 . S
O67 Co59 2.074 . S
O67 C92 1.257 . S
H68 C93 0.930 . S
H69 C99 0.930 . S
O70 Co59 2.093 . S
O70 C62 1.224 . S
H71 C103 0.929 . S
H72 C105 0.930 . S
H73 C106 0.930 . S
H74 C104 0.929 . S
H75 C107 0.928 . S
O76 Co60 2.057 . S
O76 C64 1.232 . S
H77 C96 0.929 . S
H78 C97 0.929 . S
H79 C109 0.931 1_545 S
H80 C101 0.929 . S
H81 C110 0.930 1_545 S
H82 C102 0.931 . S
O83 Co59 2.097 . S
O83 C111 1.214 . S
H84 C112 0.929 . S
H85 C113 0.929 . S
H86 C114 0.930 . S
H87 C115 0.929 . S
H88 C117 0.930 . S
H89 C94 0.930 . S
H90 C98 0.930 . S
O91 Co60 2.037 . S
O91 C111 1.234 . S
C92 O66 1.269 . S
C92 O67 1.257 . S
C93 H68 0.930 . S
C93 C96 1.388 . S
C93 C98 1.418 . S
C94 H89 0.930 . S
C94 C97 1.404 . S
C94 C98 1.353 . S
N95 Co60 2.145 1_455 S
N95 C96 1.397 . S
N95 C97 1.334 . S
C96 H77 0.929 . S
C96 C93 1.388 . S
C96 N95 1.397 . S
C97 H78 0.929 . S
C97 C94 1.404 . S
C97 N95 1.334 . S
C98 H90 0.930 . S
C98 C93 1.418 . S
C98 C94 1.353 . S
C99 H69 0.930 . S
C99 N100 1.330 . S
C99 C101 1.446 . S
N100 Co59 2.151 . S
N100 C99 1.330 . S
N100 C104 1.418 . S
C101 H80 0.929 . S
C101 C99 1.446 . S
C101 C102 1.332 . S
C102 H82 0.931 . S
C102 C101 1.332 . S
C102 C103 1.267 . S
C103 H71 0.929 . S
C103 C102 1.267 . S
C103 C104 1.251 . S
C104 H74 0.929 . S
C104 N100 1.418 . S
C104 C103 1.251 . S
C105 H72 0.930 . S
C105 C107 1.406 . S
C105 C110 1.261 . S
C106 H73 0.930 . S
C106 N108 1.325 . S
C106 C109 1.357 . S
C107 H75 0.928 . S
C107 C105 1.406 . S
C107 N108 1.261 . S
N108 Co59 2.214 . S
N108 C106 1.325 . S
N108 C107 1.261 . S
C109 H79 0.931 1_565 S
C109 C106 1.357 . S
C109 C110 1.312 . S
C110 H81 0.930 1_565 S
C110 C105 1.261 . S
C110 C109 1.312 . S
C111 O83 1.214 . S
C111 O91 1.234 . S
C112 H84 0.929 . S
C112 C115 1.391 . S
C112 C117 1.391 . S
C113 H85 0.929 . S
C113 C114 1.390 . S
C113 N116 1.391 . S
C114 H86 0.930 . S
C114 C113 1.390 . S
C114 C115 1.392 . S
C115 H87 0.929 . S
C115 C112 1.391 . S
C115 C114 1.392 . S
N116 Co60 2.257 1_455 S
N116 C113 1.391 . S
N116 C117 1.388 . S
C117 H88 0.930 . S
C117 C112 1.391 . S
C117 N116 1.388 . S
Co118 O120 2.143 . S
Co118 O126 2.074 . S
Co118 O129 2.093 . S
Co118 O142 2.097 . S
Co118 N159 2.151 . S
Co118 N167 2.214 . S
Co119 O120 2.160 . S
Co119 O125 2.058 . S
Co119 O135 2.057 . S
Co119 O150 2.037 . S
Co119 N154 2.145 . S
Co119 N175 2.257 . S
O120 Co118 2.143 . S
O120 Co119 2.160 . S
C121 O122 1.278 . S
C121 O129 1.224 . S
O122 C121 1.278 . S
C123 O124 1.245 . S
C123 O135 1.232 . S
O124 C123 1.245 . S
O125 Co119 2.058 . S
O125 C151 1.269 . S
O126 Co118 2.074 . S
O126 C151 1.257 . S
H127 C152 0.930 . S
H128 C158 0.930 . S
O129 Co118 2.093 . S
O129 C121 1.224 . S
H130 C162 0.929 . S
H131 C164 0.930 . S
H132 C165 0.930 . S
H133 C163 0.929 . S
H134 C166 0.928 . S
O135 Co119 2.057 . S
O135 C123 1.232 . S
H136 C155 0.929 . S
H137 C156 0.929 . S
H138 C168 0.931 1_655 S
H139 C160 0.929 . S
H140 C169 0.930 1_655 S
H141 C161 0.931 . S
O142 Co118 2.097 . S
O142 C170 1.214 . S
H143 C171 0.929 . S
H144 C172 0.929 . S
H145 C173 0.930 . S
H146 C174 0.929 . S
H147 C176 0.930 . S
H148 C153 0.930 . S
H149 C157 0.930 . S
O150 Co119 2.037 . S
O150 C170 1.234 . S
C151 O125 1.269 . S
C151 O126 1.257 . S
C152 H127 0.930 . S
C152 C155 1.388 . S
C152 C157 1.418 . S
C153 H148 0.930 . S
C153 C156 1.404 . S
C153 C157 1.353 . S
N154 Co119 2.145 . S
N154 C155 1.397 . S
N154 C156 1.334 . S
C155 H136 0.929 . S
C155 C152 1.388 . S
C155 N154 1.397 . S
C156 H137 0.929 . S
C156 C153 1.404 . S
C156 N154 1.334 . S
C157 H149 0.930 . S
C157 C152 1.418 . S
C157 C153 1.353 . S
C158 H128 0.930 . S
C158 N159 1.330 . S
C158 C160 1.446 . S
N159 Co118 2.151 . S
N159 C158 1.330 . S
N159 C163 1.418 . S
C160 H139 0.929 . S
C160 C158 1.446 . S
C160 C161 1.332 . S
C161 H141 0.931 . S
C161 C160 1.332 . S
C161 C162 1.267 . S
C162 H130 0.929 . S
C162 C161 1.267 . S
C162 C163 1.251 . S
C163 H133 0.929 . S
C163 N159 1.418 . S
C163 C162 1.251 . S
C164 H131 0.930 . S
C164 C166 1.406 . S
C164 C169 1.261 . S
C165 H132 0.930 . S
C165 N167 1.325 . S
C165 C168 1.357 . S
C166 H134 0.928 . S
C166 C164 1.406 . S
C166 N167 1.261 . S
N167 Co118 2.214 . S
N167 C165 1.325 . S
N167 C166 1.261 . S
C168 H138 0.931 1_455 S
C168 C165 1.357 . S
C168 C169 1.312 . S
C169 H140 0.930 1_455 S
C169 C164 1.261 . S
C169 C168 1.312 . S
C170 O142 1.214 . S
C170 O150 1.234 . S
C171 H143 0.929 . S
C171 C174 1.391 . S
C171 C176 1.391 . S
C172 H144 0.929 . S
C172 C173 1.390 . S
C172 N175 1.391 . S
C173 H145 0.930 . S
C173 C172 1.390 . S
C173 C174 1.392 . S
C174 H146 0.929 . S
C174 C171 1.391 . S
C174 C173 1.392 . S
N175 Co119 2.257 . S
N175 C172 1.391 . S
N175 C176 1.388 . S
C176 H147 0.930 . S
C176 C171 1.391 . S
C176 N175 1.388 . S
Co177 O179 2.143 . S
Co177 O185 2.074 . S
Co177 O188 2.093 . S
Co177 O201 2.097 . S
Co177 N218 2.151 . S
Co177 N226 2.214 . S
Co178 O179 2.160 . S
Co178 O184 2.058 . S
Co178 O194 2.057 . S
Co178 O209 2.037 . S
Co178 N213 2.145 . S
Co178 N234 2.257 . S
O179 Co177 2.143 . S
O179 Co178 2.160 . S
C180 O181 1.278 . S
C180 O188 1.224 . S
O181 C180 1.278 . S
C182 O183 1.245 . S
C182 O194 1.232 . S
O183 C182 1.245 . S
O184 Co178 2.058 . S
O184 C210 1.269 . S
O185 Co177 2.074 . S
O185 C210 1.257 . S
H186 C211 0.930 . S
H187 C217 0.930 . S
O188 Co177 2.093 . S
O188 C180 1.224 . S
H189 C221 0.929 . S
H190 C223 0.930 . S
H191 C224 0.930 . S
H192 C222 0.929 . S
H193 C225 0.928 . S
O194 Co178 2.057 . S
O194 C182 1.232 . S
H195 C214 0.929 . S
H196 C215 0.929 . S
H197 C227 0.931 . S
H198 C219 0.929 . S
H199 C228 0.930 . S
H200 C220 0.931 . S
O201 Co177 2.097 . S
O201 C229 1.214 . S
H202 C230 0.929 . S
H203 C231 0.929 . S
H204 C232 0.930 . S
H205 C233 0.929 . S
H206 C235 0.930 . S
H207 C212 0.930 . S
H208 C216 0.963 . S
O209 Co178 2.037 . S
O209 C229 1.234 . S
C210 O184 1.269 . S
C210 O185 1.257 . S
C211 H186 0.930 . S
C211 C214 1.388 . S
C211 C216 1.418 . S
C212 H207 0.930 . S
C212 C215 1.404 . S
C212 C216 1.353 . S
N213 Co178 2.145 . S
N213 C214 1.397 . S
N213 C215 1.334 . S
C214 H195 0.929 . S
C214 C211 1.388 . S
C214 N213 1.397 . S
C215 H196 0.929 . S
C215 C212 1.404 . S
C215 N213 1.334 . S
C216 H208 0.963 . S
C216 C211 1.418 . S
C216 C212 1.353 . S
C217 H187 0.930 . S
C217 N218 1.330 . S
C217 C219 1.446 . S
N218 Co177 2.151 . S
N218 C217 1.330 . S
N218 C222 1.418 . S
C219 H198 0.929 . S
C219 C217 1.446 . S
C219 C220 1.332 . S
C220 H200 0.931 . S
C220 C219 1.332 . S
C220 C221 1.267 . S
C221 H189 0.929 . S
C221 C220 1.267 . S
C221 C222 1.251 . S
C222 H192 0.929 . S
C222 N218 1.418 . S
C222 C221 1.251 . S
C223 H190 0.930 . S
C223 C225 1.406 . S
C223 C228 1.261 . S
C224 H191 0.930 . S
C224 N226 1.325 . S
C224 C227 1.357 . S
C225 H193 0.928 . S
C225 C223 1.406 . S
C225 N226 1.261 . S
N226 Co177 2.214 . S
N226 C224 1.325 . S
N226 C225 1.261 . S
C227 H197 0.931 . S
C227 C224 1.357 . S
C227 C228 1.312 . S
C228 H199 0.930 . S
C228 C223 1.261 . S
C228 C227 1.312 . S
C229 O201 1.214 . S
C229 O209 1.234 . S
C230 H202 0.929 . S
C230 C233 1.391 . S
C230 C235 1.391 . S
C231 H203 0.929 . S
C231 C232 1.390 . S
C231 N234 1.391 . S
C232 H204 0.930 . S
C232 C231 1.390 . S
C232 C233 1.392 . S
C233 H205 0.929 . S
C233 C230 1.391 . S
C233 C232 1.392 . S
N234 Co178 2.257 . S
N234 C231 1.391 . S
N234 C235 1.388 . S
C235 H206 0.930 . S
C235 C230 1.391 . S
C235 N234 1.388 . S
Co236 O238 2.143 . S
Co236 O244 2.074 . S
Co236 O247 2.093 . S
Co236 O260 2.097 . S
Co236 N277 2.151 . S
Co236 N285 2.214 . S
Co237 O238 2.160 . S
Co237 O243 2.058 . S
Co237 O253 2.057 . S
Co237 O268 2.037 . S
Co237 N272 2.145 . S
Co237 N293 2.257 . S
O238 Co236 2.143 . S
O238 Co237 2.160 . S
C239 O240 1.278 . S
C239 O247 1.224 . S
O240 C239 1.278 . S
C241 O242 1.245 . S
C241 O253 1.232 . S
O242 C241 1.245 . S
O243 Co237 2.058 . S
O243 C269 1.269 . S
O244 Co236 2.074 . S
O244 C269 1.257 . S
H245 C270 0.930 . S
H246 C276 0.930 . S
O247 Co236 2.093 . S
O247 C239 1.224 . S
H248 C280 0.929 . S
H249 C282 0.930 . S
H250 C283 0.930 . S
H251 C281 0.929 . S
H252 C284 0.928 . S
O253 Co237 2.057 . S
O253 C241 1.232 . S
H254 C273 0.929 . S
H255 C274 0.929 . S
H256 C286 0.931 . S
H257 C278 0.929 . S
H258 C287 0.930 . S
H259 C279 0.931 . S
O260 Co236 2.097 . S
O260 C288 1.214 . S
H261 C289 0.929 . S
H262 C290 0.929 . S
H263 C291 0.930 . S
H264 C292 0.929 . S
H265 C294 0.930 . S
H266 C271 0.930 . S
H267 C275 0.963 . S
O268 Co237 2.037 . S
O268 C288 1.234 . S
C269 O243 1.269 . S
C269 O244 1.257 . S
C270 H245 0.930 . S
C270 C273 1.388 . S
C270 C275 1.418 . S
C271 H266 0.930 . S
C271 C274 1.404 . S
C271 C275 1.353 . S
N272 Co237 2.145 . S
N272 C273 1.397 . S
N272 C274 1.334 . S
C273 H254 0.929 . S
C273 C270 1.388 . S
C273 N272 1.397 . S
C274 H255 0.929 . S
C274 C271 1.404 . S
C274 N272 1.334 . S
C275 H267 0.963 . S
C275 C270 1.418 . S
C275 C271 1.353 . S
C276 H246 0.930 . S
C276 N277 1.330 . S
C276 C278 1.446 . S
N277 Co236 2.151 . S
N277 C276 1.330 . S
N277 C281 1.418 . S
C278 H257 0.929 . S
C278 C276 1.446 . S
C278 C279 1.332 . S
C279 H259 0.931 . S
C279 C278 1.332 . S
C279 C280 1.267 . S
C280 H248 0.929 . S
C280 C279 1.267 . S
C280 C281 1.251 . S
C281 H251 0.929 . S
C281 N277 1.418 . S
C281 C280 1.251 . S
C282 H249 0.930 . S
C282 C284 1.406 . S
C282 C287 1.261 . S
C283 H250 0.930 . S
C283 N285 1.325 . S
C283 C286 1.357 . S
C284 H252 0.928 . S
C284 C282 1.406 . S
C284 N285 1.261 . S
N285 Co236 2.214 . S
N285 C283 1.325 . S
N285 C284 1.261 . S
C286 H256 0.931 . S
C286 C283 1.357 . S
C286 C287 1.312 . S
C287 H258 0.930 . S
C287 C282 1.261 . S
C287 C286 1.312 . S
C288 O260 1.214 . S
C288 O268 1.234 . S
C289 H261 0.929 . S
C289 C292 1.391 . S
C289 C294 1.391 . S
C290 H262 0.929 . S
C290 C291 1.390 . S
C290 N293 1.391 . S
C291 H263 0.930 . S
C291 C290 1.390 . S
C291 C292 1.392 . S
C292 H264 0.929 . S
C292 C289 1.391 . S
C292 C291 1.392 . S
N293 Co237 2.257 . S
N293 C290 1.391 . S
N293 C294 1.388 . S
C294 H265 0.930 . S
C294 C289 1.391 . S
C294 N293 1.388 . S
Co295 O297 2.143 . S
Co295 O303 2.074 . S
Co295 O306 2.093 . S
Co295 O319 2.097 . S
Co295 N336 2.151 . S
Co295 N344 2.214 . S
Co296 O297 2.160 . S
Co296 O302 2.058 . S
Co296 O312 2.057 . S
Co296 O327 2.037 . S
Co296 N331 2.145 . S
Co296 N352 2.257 . S
O297 Co295 2.143 . S
O297 Co296 2.160 . S
C298 O299 1.278 . S
C298 O306 1.224 . S
O299 C298 1.278 . S
C300 O301 1.245 . S
C300 O312 1.232 . S
O301 C300 1.245 . S
O302 Co296 2.058 . S
O302 C328 1.269 . S
O303 Co295 2.074 . S
O303 C328 1.257 . S
H304 C329 0.930 . S
H305 C335 0.930 . S
O306 Co295 2.093 . S
O306 C298 1.224 . S
H307 C339 0.929 . S
H308 C341 0.930 . S
H309 C342 0.930 . S
H310 C340 0.929 . S
H311 C343 0.928 . S
O312 Co296 2.057 . S
O312 C300 1.232 . S
H313 C332 0.929 . S
H314 C333 0.929 . S
H315 C345 0.931 1_545 S
H316 C337 0.929 . S
H317 C346 0.930 1_545 S
H318 C338 0.931 . S
O319 Co295 2.097 . S
O319 C347 1.214 . S
H320 C348 0.929 . S
H321 C349 0.929 . S
H322 C350 0.930 . S
H323 C351 0.929 . S
H324 C353 0.930 . S
H325 C330 0.930 . S
H326 C334 0.930 . S
O327 Co296 2.037 . S
O327 C347 1.234 . S
C328 O302 1.269 . S
C328 O303 1.257 . S
C329 H304 0.930 . S
C329 C332 1.388 . S
C329 C334 1.418 . S
C330 H325 0.930 . S
C330 C333 1.404 . S
C330 C334 1.353 . S
N331 Co296 2.145 . S
N331 C332 1.397 . S
N331 C333 1.334 . S
C332 H313 0.929 . S
C332 C329 1.388 . S
C332 N331 1.397 . S
C333 H314 0.929 . S
C333 C330 1.404 . S
C333 N331 1.334 . S
C334 H326 0.930 . S
C334 C329 1.418 . S
C334 C330 1.353 . S
C335 H305 0.930 . S
C335 N336 1.330 . S
C335 C337 1.446 . S
N336 Co295 2.151 . S
N336 C335 1.330 . S
N336 C340 1.418 . S
C337 H316 0.929 . S
C337 C335 1.446 . S
C337 C338 1.332 . S
C338 H318 0.931 . S
C338 C337 1.332 . S
C338 C339 1.267 . S
C339 H307 0.929 . S
C339 C338 1.267 . S
C339 C340 1.251 . S
C340 H310 0.929 . S
C340 N336 1.418 . S
C340 C339 1.251 . S
C341 H308 0.930 . S
C341 C343 1.406 . S
C341 C346 1.261 . S
C342 H309 0.930 . S
C342 N344 1.325 . S
C342 C345 1.357 . S
C343 H311 0.928 . S
C343 C341 1.406 . S
C343 N344 1.261 . S
N344 Co295 2.214 . S
N344 C342 1.325 . S
N344 C343 1.261 . S
C345 H315 0.931 1_565 S
C345 C342 1.357 . S
C345 C346 1.312 . S
C346 H317 0.930 1_565 S
C346 C341 1.261 . S
C346 C345 1.312 . S
C347 O319 1.214 . S
C347 O327 1.234 . S
C348 H320 0.929 . S
C348 C351 1.391 . S
C348 C353 1.391 . S
C349 H321 0.929 . S
C349 C350 1.390 . S
C349 N352 1.391 . S
C350 H322 0.930 . S
C350 C349 1.390 . S
C350 C351 1.392 . S
C351 H323 0.929 . S
C351 C348 1.391 . S
C351 C350 1.392 . S
N352 Co296 2.257 . S
N352 C349 1.391 . S
N352 C353 1.388 . S
C353 H324 0.930 . S
C353 C348 1.391 . S
C353 N352 1.388 . S
Co354 O356 2.143 . S
Co354 O362 2.074 . S
Co354 O365 2.093 . S
Co354 O378 2.097 . S
Co354 N395 2.151 . S
Co354 N403 2.214 . S
Co355 O356 2.160 . S
Co355 O361 2.058 . S
Co355 O371 2.057 . S
Co355 O386 2.037 . S
Co355 N390 2.145 1_545 S
Co355 N411 2.257 1_545 S
O356 Co354 2.143 . S
O356 Co355 2.160 . S
C357 O358 1.278 . S
C357 O365 1.224 . S
O358 C357 1.278 . S
C359 O360 1.245 . S
C359 O371 1.232 . S
O360 C359 1.245 . S
O361 Co355 2.058 . S
O361 C387 1.269 . S
O362 Co354 2.074 . S
O362 C387 1.257 . S
H363 C388 0.930 . S
H364 C394 0.930 . S
O365 Co354 2.093 . S
O365 C357 1.224 . S
H366 C398 0.929 . S
H367 C400 0.930 . S
H368 C401 0.930 . S
H369 C399 0.929 . S
H370 C402 0.928 . S
O371 Co355 2.057 . S
O371 C359 1.232 . S
H372 C391 0.929 . S
H373 C392 0.929 . S
H374 C404 0.931 1_655 S
H375 C396 0.929 . S
H376 C405 0.930 1_655 S
H377 C397 0.931 . S
O378 Co354 2.097 . S
O378 C406 1.214 . S
H379 C407 0.929 . S
H380 C408 0.929 . S
H381 C409 0.930 . S
H382 C410 0.929 . S
H383 C412 0.930 . S
H384 C389 0.930 . S
H385 C393 0.930 . S
O386 Co355 2.037 . S
O386 C406 1.234 . S
C387 O361 1.269 . S
C387 O362 1.257 . S
C388 H363 0.930 . S
C388 C391 1.388 . S
C388 C393 1.418 . S
C389 H384 0.930 . S
C389 C392 1.404 . S
C389 C393 1.353 . S
N390 Co355 2.145 1_565 S
N390 C391 1.397 . S
N390 C392 1.334 . S
C391 H372 0.929 . S
C391 C388 1.388 . S
C391 N390 1.397 . S
C392 H373 0.929 . S
C392 C389 1.404 . S
C392 N390 1.334 . S
C393 H385 0.930 . S
C393 C388 1.418 . S
C393 C389 1.353 . S
C394 H364 0.930 . S
C394 N395 1.330 . S
C394 C396 1.446 . S
N395 Co354 2.151 . S
N395 C394 1.330 . S
N395 C399 1.418 . S
C396 H375 0.929 . S
C396 C394 1.446 . S
C396 C397 1.332 . S
C397 H377 0.931 . S
C397 C396 1.332 . S
C397 C398 1.267 . S
C398 H366 0.929 . S
C398 C397 1.267 . S
C398 C399 1.251 . S
C399 H369 0.929 . S
C399 N395 1.418 . S
C399 C398 1.251 . S
C400 H367 0.930 . S
C400 C402 1.406 . S
C400 C405 1.261 . S
C401 H368 0.930 . S
C401 N403 1.325 . S
C401 C404 1.357 . S
C402 H370 0.928 . S
C402 C400 1.406 . S
C402 N403 1.261 . S
N403 Co354 2.214 . S
N403 C401 1.325 . S
N403 C402 1.261 . S
C404 H374 0.931 1_455 S
C404 C401 1.357 . S
C404 C405 1.312 . S
C405 H376 0.930 1_455 S
C405 C400 1.261 . S
C405 C404 1.312 . S
C406 O378 1.214 . S
C406 O386 1.234 . S
C407 H379 0.929 . S
C407 C410 1.391 . S
C407 C412 1.391 . S
C408 H380 0.929 . S
C408 C409 1.390 . S
C408 N411 1.391 . S
C409 H381 0.930 . S
C409 C408 1.390 . S
C409 C410 1.392 . S
C410 H382 0.929 . S
C410 C407 1.391 . S
C410 C409 1.392 . S
N411 Co355 2.257 1_565 S
N411 C408 1.391 . S
N411 C412 1.388 . S
C412 H383 0.930 . S
C412 C407 1.391 . S
C412 N411 1.388 . S
Co413 O415 2.143 . S
Co413 O421 2.074 . S
Co413 O424 2.093 . S
Co413 O437 2.097 . S
Co413 N454 2.151 . S
Co413 N462 2.214 . S
Co414 O415 2.160 . S
Co414 O420 2.058 . S
Co414 O430 2.057 . S
Co414 O445 2.037 . S
Co414 N449 2.145 1_655 S
Co414 N470 2.257 1_655 S
O415 Co413 2.143 . S
O415 Co414 2.160 . S
C416 O417 1.278 . S
C416 O424 1.224 . S
O417 C416 1.278 . S
C418 O419 1.245 . S
C418 O430 1.232 . S
O419 C418 1.245 . S
O420 Co414 2.058 . S
O420 C446 1.269 . S
O421 Co413 2.074 . S
O421 C446 1.257 . S
H422 C447 0.930 . S
H423 C453 0.930 . S
O424 Co413 2.093 . S
O424 C416 1.224 . S
H425 C457 0.929 . S
H426 C459 0.930 . S
H427 C460 0.930 . S
H428 C458 0.929 . S
H429 C461 0.928 . S
O430 Co414 2.057 . S
O430 C418 1.232 . S
H431 C450 0.929 . S
H432 C451 0.929 . S
H433 C463 0.931 . S
H434 C455 0.929 . S
H435 C464 0.930 . S
H436 C456 0.931 . S
O437 Co413 2.097 . S
O437 C465 1.214 . S
H438 C466 0.929 . S
H439 C467 0.929 . S
H440 C468 0.930 . S
H441 C469 0.929 . S
H442 C471 0.930 . S
H443 C448 0.930 . S
H444 C452 0.930 . S
O445 Co414 2.037 . S
O445 C465 1.234 . S
C446 O420 1.269 . S
C446 O421 1.257 . S
C447 H422 0.930 . S
C447 C450 1.388 . S
C447 C452 1.418 . S
C448 H443 0.930 . S
C448 C451 1.404 . S
C448 C452 1.353 . S
N449 Co414 2.145 1_455 S
N449 C450 1.397 . S
N449 C451 1.334 . S
C450 H431 0.929 . S
C450 C447 1.388 . S
C450 N449 1.397 . S
C451 H432 0.929 . S
C451 C448 1.404 . S
C451 N449 1.334 . S
C452 H444 0.930 . S
C452 C447 1.418 . S
C452 C448 1.353 . S
C453 H423 0.930 . S
C453 N454 1.330 . S
C453 C455 1.446 . S
N454 Co413 2.151 . S
N454 C453 1.330 . S
N454 C458 1.418 . S
C455 H434 0.929 . S
C455 C453 1.446 . S
C455 C456 1.332 . S
C456 H436 0.931 . S
C456 C455 1.332 . S
C456 C457 1.267 . S
C457 H425 0.929 . S
C457 C456 1.267 . S
C457 C458 1.251 . S
C458 H428 0.929 . S
C458 N454 1.418 . S
C458 C457 1.251 . S
C459 H426 0.930 . S
C459 C461 1.406 . S
C459 C464 1.261 . S
C460 H427 0.930 . S
C460 N462 1.325 . S
C460 C463 1.357 . S
C461 H429 0.928 . S
C461 C459 1.406 . S
C461 N462 1.261 . S
N462 Co413 2.214 . S
N462 C460 1.325 . S
N462 C461 1.261 . S
C463 H433 0.931 . S
C463 C460 1.357 . S
C463 C464 1.312 . S
C464 H435 0.930 . S
C464 C459 1.261 . S
C464 C463 1.312 . S
C465 O437 1.214 . S
C465 O445 1.234 . S
C466 H438 0.929 . S
C466 C469 1.391 . S
C466 C471 1.391 . S
C467 H439 0.929 . S
C467 C468 1.390 . S
C467 N470 1.391 . S
C468 H440 0.930 . S
C468 C467 1.390 . S
C468 C469 1.392 . S
C469 H441 0.929 . S
C469 C466 1.391 . S
C469 C468 1.392 . S
N470 Co414 2.257 1_455 S
N470 C467 1.391 . S
N470 C471 1.388 . S
C471 H442 0.930 . S
C471 C466 1.391 . S
C471 N470 1.388 . S
Co472 O474 2.143 . S
Co472 O480 2.074 . S
Co472 O483 2.093 . S
Co472 O496 2.097 . S
Co472 N513 2.151 . S
Co472 N521 2.214 . S
Co473 O474 2.160 . S
Co473 O479 2.058 . S
Co473 O489 2.057 . S
Co473 O504 2.037 . S
Co473 N508 2.145 . S
Co473 N529 2.257 . S
O474 Co472 2.143 . S
O474 Co473 2.160 . S
C475 O476 1.278 . S
C475 O483 1.224 . S
O476 C475 1.278 . S
C477 O478 1.245 . S
C477 O489 1.232 . S
O478 C477 1.245 . S
O479 Co473 2.058 . S
O479 C505 1.269 . S
O480 Co472 2.074 . S
O480 C505 1.257 . S
H481 C506 0.930 . S
H482 C512 0.930 . S
O483 Co472 2.093 . S
O483 C475 1.224 . S
H484 C516 0.929 . S
H485 C518 0.930 . S
H486 C519 0.930 . S
H487 C517 0.929 . S
H488 C520 0.928 . S
O489 Co473 2.057 . S
O489 C477 1.232 . S
H490 C509 0.929 . S
H491 C510 0.929 . S
H492 C522 0.931 1_455 S
H493 C514 0.929 . S
H494 C523 0.930 1_455 S
H495 C515 0.931 . S
O496 Co472 2.097 . S
O496 C524 1.214 . S
H497 C525 0.929 . S
H498 C526 0.929 . S
H499 C527 0.930 . S
H500 C528 0.929 . S
H501 C530 0.930 . S
H502 C507 0.930 . S
H503 C511 0.930 . S
O504 Co473 2.037 . S
O504 C524 1.234 . S
C505 O479 1.269 . S
C505 O480 1.257 . S
C506 H481 0.930 . S
C506 C509 1.388 . S
C506 C511 1.418 . S
C507 H502 0.930 . S
C507 C510 1.404 . S
C507 C511 1.353 . S
N508 Co473 2.145 . S
N508 C509 1.397 . S
N508 C510 1.334 . S
C509 H490 0.929 . S
C509 C506 1.388 . S
C509 N508 1.397 . S
C510 H491 0.929 . S
C510 C507 1.404 . S
C510 N508 1.334 . S
C511 H503 0.930 . S
C511 C506 1.418 . S
C511 C507 1.353 . S
C512 H482 0.930 . S
C512 N513 1.330 . S
C512 C514 1.446 . S
N513 Co472 2.151 . S
N513 C512 1.330 . S
N513 C517 1.418 . S
C514 H493 0.929 . S
C514 C512 1.446 . S
C514 C515 1.332 . S
C515 H495 0.931 . S
C515 C514 1.332 . S
C515 C516 1.267 . S
C516 H484 0.929 . S
C516 C515 1.267 . S
C516 C517 1.251 . S
C517 H487 0.929 . S
C517 N513 1.418 . S
C517 C516 1.251 . S
C518 H485 0.930 . S
C518 C520 1.406 . S
C518 C523 1.261 . S
C519 H486 0.930 . S
C519 N521 1.325 . S
C519 C522 1.357 . S
C520 H488 0.928 . S
C520 C518 1.406 . S
C520 N521 1.261 . S
N521 Co472 2.214 . S
N521 C519 1.325 . S
N521 C520 1.261 . S
C522 H492 0.931 1_655 S
C522 C519 1.357 . S
C522 C523 1.312 . S
C523 H494 0.930 1_655 S
C523 C518 1.261 . S
C523 C522 1.312 . S
C524 O496 1.214 . S
C524 O504 1.234 . S
C525 H497 0.929 . S
C525 C528 1.391 . S
C525 C530 1.391 . S
C526 H498 0.929 . S
C526 C527 1.390 . S
C526 N529 1.391 . S
C527 H499 0.930 . S
C527 C526 1.390 . S
C527 C528 1.392 . S
C528 H500 0.929 . S
C528 C525 1.391 . S
C528 C527 1.392 . S
N529 Co473 2.257 . S
N529 C526 1.391 . S
N529 C530 1.388 . S
C530 H501 0.930 . S
C530 C525 1.391 . S
C530 N529 1.388 . S
Co531 O533 2.143 . S
Co531 O539 2.074 . S
Co531 O542 2.093 . S
Co531 O555 2.097 . S
Co531 N572 2.151 . S
Co531 N580 2.214 . S
Co532 O533 2.160 . S
Co532 O538 2.058 . S
Co532 O548 2.057 . S
Co532 O563 2.037 . S
Co532 N567 2.145 . S
Co532 N588 2.257 . S
O533 Co531 2.143 . S
O533 Co532 2.160 . S
C534 O535 1.278 . S
C534 O542 1.224 . S
O535 C534 1.278 . S
C536 O537 1.245 . S
C536 O548 1.232 . S
O537 C536 1.245 . S
O538 Co532 2.058 . S
O538 C564 1.269 . S
O539 Co531 2.074 . S
O539 C564 1.257 . S
H540 C565 0.930 . S
H541 C571 0.930 . S
O542 Co531 2.093 . S
O542 C534 1.224 . S
H543 C575 0.929 . S
H544 C577 0.930 . S
H545 C578 0.930 . S
H546 C576 0.929 . S
H547 C579 0.928 . S
O548 Co532 2.057 . S
O548 C536 1.232 . S
H549 C568 0.929 . S
H550 C569 0.929 . S
H551 C581 0.931 . S
H552 C573 0.929 . S
H553 C582 0.930 . S
H554 C574 0.931 . S
O555 Co531 2.097 . S
O555 C583 1.214 . S
H556 C584 0.929 . S
H557 C585 0.929 . S
H558 C586 0.930 . S
H559 C587 0.929 . S
H560 C589 0.930 . S
H561 C566 0.930 . S
H562 C570 0.963 . S
O563 Co532 2.037 . S
O563 C583 1.234 . S
C564 O538 1.269 . S
C564 O539 1.257 . S
C565 H540 0.930 . S
C565 C568 1.388 . S
C565 C570 1.418 . S
C566 H561 0.930 . S
C566 C569 1.404 . S
C566 C570 1.353 . S
N567 Co532 2.145 . S
N567 C568 1.397 . S
N567 C569 1.334 . S
C568 H549 0.929 . S
C568 C565 1.388 . S
C568 N567 1.397 . S
C569 H550 0.929 . S
C569 C566 1.404 . S
C569 N567 1.334 . S
C570 H562 0.963 . S
C570 C565 1.418 . S
C570 C566 1.353 . S
C571 H541 0.930 . S
C571 N572 1.330 . S
C571 C573 1.446 . S
N572 Co531 2.151 . S
N572 C571 1.330 . S
N572 C576 1.418 . S
C573 H552 0.929 . S
C573 C571 1.446 . S
C573 C574 1.332 . S
C574 H554 0.931 . S
C574 C573 1.332 . S
C574 C575 1.267 . S
C575 H543 0.929 . S
C575 C574 1.267 . S
C575 C576 1.251 . S
C576 H546 0.929 . S
C576 N572 1.418 . S
C576 C575 1.251 . S
C577 H544 0.930 . S
C577 C579 1.406 . S
C577 C582 1.261 . S
C578 H545 0.930 . S
C578 N580 1.325 . S
C578 C581 1.357 . S
C579 H547 0.928 . S
C579 C577 1.406 . S
C579 N580 1.261 . S
N580 Co531 2.214 . S
N580 C578 1.325 . S
N580 C579 1.261 . S
C581 H551 0.931 . S
C581 C578 1.357 . S
C581 C582 1.312 . S
C582 H553 0.930 . S
C582 C577 1.261 . S
C582 C581 1.312 . S
C583 O555 1.214 . S
C583 O563 1.234 . S
C584 H556 0.929 . S
C584 C587 1.391 . S
C584 C589 1.391 . S
C585 H557 0.929 . S
C585 C586 1.390 . S
C585 N588 1.391 . S
C586 H558 0.930 . S
C586 C585 1.390 . S
C586 C587 1.392 . S
C587 H559 0.929 . S
C587 C584 1.391 . S
C587 C586 1.392 . S
N588 Co532 2.257 . S
N588 C585 1.391 . S
N588 C589 1.388 . S
C589 H560 0.930 . S
C589 C584 1.391 . S
C589 N588 1.388 . S
Co590 O592 2.143 . S
Co590 O598 2.074 . S
Co590 O601 2.093 . S
Co590 O614 2.097 . S
Co590 N631 2.151 . S
Co590 N639 2.214 . S
Co591 O592 2.160 . S
Co591 O597 2.058 . S
Co591 O607 2.057 . S
Co591 O622 2.037 . S
Co591 N626 2.145 1_565 S
Co591 N647 2.257 1_565 S
O592 Co590 2.143 . S
O592 Co591 2.160 . S
C593 O594 1.278 . S
C593 O601 1.224 . S
O594 C593 1.278 . S
C595 O596 1.245 . S
C595 O607 1.232 . S
O596 C595 1.245 . S
O597 Co591 2.058 . S
O597 C623 1.269 . S
O598 Co590 2.074 . S
O598 C623 1.257 . S
H599 C624 0.930 . S
H600 C630 0.930 . S
O601 Co590 2.093 . S
O601 C593 1.224 . S
H602 C634 0.929 . S
H603 C636 0.930 . S
H604 C637 0.930 . S
H605 C635 0.929 . S
H606 C638 0.928 . S
O607 Co591 2.057 . S
O607 C595 1.232 . S
H608 C627 0.929 . S
H609 C628 0.929 . S
H610 C640 0.931 . S
H611 C632 0.929 . S
H612 C641 0.930 . S
H613 C633 0.931 . S
O614 Co590 2.097 . S
O614 C642 1.214 . S
H615 C643 0.929 . S
H616 C644 0.929 . S
H617 C645 0.930 . S
H618 C646 0.929 . S
H619 C648 0.930 . S
H620 C625 0.930 . S
H621 C629 0.930 . S
O622 Co591 2.037 . S
O622 C642 1.234 . S
C623 O597 1.269 . S
C623 O598 1.257 . S
C624 H599 0.930 . S
C624 C627 1.388 . S
C624 C629 1.418 . S
C625 H620 0.930 . S
C625 C628 1.404 . S
C625 C629 1.353 . S
N626 Co591 2.145 1_545 S
N626 C627 1.397 . S
N626 C628 1.334 . S
C627 H608 0.929 . S
C627 C624 1.388 . S
C627 N626 1.397 . S
C628 H609 0.929 . S
C628 C625 1.404 . S
C628 N626 1.334 . S
C629 H621 0.930 . S
C629 C624 1.418 . S
C629 C625 1.353 . S
C630 H600 0.930 . S
C630 N631 1.330 . S
C630 C632 1.446 . S
N631 Co590 2.151 . S
N631 C630 1.330 . S
N631 C635 1.418 . S
C632 H611 0.929 . S
C632 C630 1.446 . S
C632 C633 1.332 . S
C633 H613 0.931 . S
C633 C632 1.332 . S
C633 C634 1.267 . S
C634 H602 0.929 . S
C634 C633 1.267 . S
C634 C635 1.251 . S
C635 H605 0.929 . S
C635 N631 1.418 . S
C635 C634 1.251 . S
C636 H603 0.930 . S
C636 C638 1.406 . S
C636 C641 1.261 . S
C637 H604 0.930 . S
C637 N639 1.325 . S
C637 C640 1.357 . S
C638 H606 0.928 . S
C638 C636 1.406 . S
C638 N639 1.261 . S
N639 Co590 2.214 . S
N639 C637 1.325 . S
N639 C638 1.261 . S
C640 H610 0.931 . S
C640 C637 1.357 . S
C640 C641 1.312 . S
C641 H612 0.930 . S
C641 C636 1.261 . S
C641 C640 1.312 . S
C642 O614 1.214 . S
C642 O622 1.234 . S
C643 H615 0.929 . S
C643 C646 1.391 . S
C643 C648 1.391 . S
C644 H616 0.929 . S
C644 C645 1.390 . S
C644 N647 1.391 . S
C645 H617 0.930 . S
C645 C644 1.390 . S
C645 C646 1.392 . S
C646 H618 0.929 . S
C646 C643 1.391 . S
C646 C645 1.392 . S
N647 Co591 2.257 1_545 S
N647 C644 1.391 . S
N647 C648 1.388 . S
C648 H619 0.930 . S
C648 C643 1.391 . S
C648 N647 1.388 . S
Co649 O651 2.143 . S
Co649 O657 2.074 . S
Co649 O660 2.093 . S
Co649 O673 2.097 . S
Co649 N690 2.151 . S
Co649 N698 2.214 . S
Co650 O651 2.160 . S
Co650 O656 2.058 . S
Co650 O666 2.057 . S
Co650 O681 2.037 . S
Co650 N685 2.145 1_455 S
Co650 N706 2.257 1_455 S
O651 Co649 2.143 . S
O651 Co650 2.160 . S
C652 O653 1.278 . S
C652 O660 1.224 . S
O653 C652 1.278 . S
C654 O655 1.245 . S
C654 O666 1.232 . S
O655 C654 1.245 . S
O656 Co650 2.058 . S
O656 C682 1.269 . S
O657 Co649 2.074 . S
O657 C682 1.257 . S
H658 C683 0.930 . S
H659 C689 0.930 . S
O660 Co649 2.093 . S
O660 C652 1.224 . S
H661 C693 0.929 . S
H662 C695 0.930 . S
H663 C696 0.930 . S
H664 C694 0.929 . S
H665 C697 0.928 . S
O666 Co650 2.057 . S
O666 C654 1.232 . S
H667 C686 0.929 . S
H668 C687 0.929 . S
H669 C699 0.931 1_565 S
H670 C691 0.929 . S
H671 C700 0.930 1_565 S
H672 C692 0.931 . S
O673 Co649 2.097 . S
O673 C701 1.214 . S
H674 C702 0.929 . S
H675 C703 0.929 . S
H676 C704 0.930 . S
H677 C705 0.929 . S
H678 C707 0.930 . S
H679 C684 0.930 . S
H680 C688 0.930 . S
O681 Co650 2.037 . S
O681 C701 1.234 . S
C682 O656 1.269 . S
C682 O657 1.257 . S
C683 H658 0.930 . S
C683 C686 1.388 . S
C683 C688 1.418 . S
C684 H679 0.930 . S
C684 C687 1.404 . S
C684 C688 1.353 . S
N685 Co650 2.145 1_655 S
N685 C686 1.397 . S
N685 C687 1.334 . S
C686 H667 0.929 . S
C686 C683 1.388 . S
C686 N685 1.397 . S
C687 H668 0.929 . S
C687 C684 1.404 . S
C687 N685 1.334 . S
C688 H680 0.930 . S
C688 C683 1.418 . S
C688 C684 1.353 . S
C689 H659 0.930 . S
C689 N690 1.330 . S
C689 C691 1.446 . S
N690 Co649 2.151 . S
N690 C689 1.330 . S
N690 C694 1.418 . S
C691 H670 0.929 . S
C691 C689 1.446 . S
C691 C692 1.332 . S
C692 H672 0.931 . S
C692 C691 1.332 . S
C692 C693 1.267 . S
C693 H661 0.929 . S
C693 C692 1.267 . S
C693 C694 1.251 . S
C694 H664 0.929 . S
C694 N690 1.418 . S
C694 C693 1.251 . S
C695 H662 0.930 . S
C695 C697 1.406 . S
C695 C700 1.261 . S
C696 H663 0.930 . S
C696 N698 1.325 . S
C696 C699 1.357 . S
C697 H665 0.928 . S
C697 C695 1.406 . S
C697 N698 1.261 . S
N698 Co649 2.214 . S
N698 C696 1.325 . S
N698 C697 1.261 . S
C699 H669 0.931 1_545 S
C699 C696 1.357 . S
C699 C700 1.312 . S
C700 H671 0.930 1_545 S
C700 C695 1.261 . S
C700 C699 1.312 . S
C701 O673 1.214 . S
C701 O681 1.234 . S
C702 H674 0.929 . S
C702 C705 1.391 . S
C702 C707 1.391 . S
C703 H675 0.929 . S
C703 C704 1.390 . S
C703 N706 1.391 . S
C704 H676 0.930 . S
C704 C703 1.390 . S
C704 C705 1.392 . S
C705 H677 0.929 . S
C705 C702 1.391 . S
C705 C704 1.392 . S
N706 Co650 2.257 1_655 S
N706 C703 1.391 . S
N706 C707 1.388 . S
C707 H678 0.930 . S
C707 C702 1.391 . S
C707 N706 1.388 . S
Co708 O710 2.143 . S
Co708 O716 2.074 . S
Co708 O719 2.093 . S
Co708 O732 2.097 . S
Co708 N749 2.151 . S
Co708 N757 2.214 . S
Co709 O710 2.160 . S
Co709 O715 2.058 . S
Co709 O725 2.057 . S
Co709 O740 2.037 . S
Co709 N744 2.145 1_565 S
Co709 N765 2.257 1_565 S
O710 Co708 2.143 . S
O710 Co709 2.160 . S
C711 O712 1.278 . S
C711 O719 1.224 . S
O712 C711 1.278 . S
C713 O714 1.245 . S
C713 O725 1.232 . S
O714 C713 1.245 . S
O715 Co709 2.058 . S
O715 C741 1.269 . S
O716 Co708 2.074 . S
O716 C741 1.257 . S
H717 C742 0.930 . S
H718 C748 0.930 . S
O719 Co708 2.093 . S
O719 C711 1.224 . S
H720 C752 0.929 . S
H721 C754 0.930 . S
H722 C755 0.930 . S
H723 C753 0.929 . S
H724 C756 0.928 . S
O725 Co709 2.057 . S
O725 C713 1.232 . S
H726 C745 0.929 . S
H727 C746 0.929 . S
H728 C758 0.931 1_455 S
H729 C750 0.929 . S
H730 C759 0.930 1_455 S
H731 C751 0.931 . S
O732 Co708 2.097 . S
O732 C760 1.214 . S
H733 C761 0.929 . S
H734 C762 0.929 . S
H735 C763 0.930 . S
H736 C764 0.929 . S
H737 C766 0.930 . S
H738 C743 0.930 . S
H739 C747 0.930 . S
O740 Co709 2.037 . S
O740 C760 1.234 . S
C741 O715 1.269 . S
C741 O716 1.257 . S
C742 H717 0.930 . S
C742 C745 1.388 . S
C742 C747 1.418 . S
C743 H738 0.930 . S
C743 C746 1.404 . S
C743 C747 1.353 . S
N744 Co709 2.145 1_545 S
N744 C745 1.397 . S
N744 C746 1.334 . S
C745 H726 0.929 . S
C745 C742 1.388 . S
C745 N744 1.397 . S
C746 H727 0.929 . S
C746 C743 1.404 . S
C746 N744 1.334 . S
C747 H739 0.930 . S
C747 C742 1.418 . S
C747 C743 1.353 . S
C748 H718 0.930 . S
C748 N749 1.330 . S
C748 C750 1.446 . S
N749 Co708 2.151 . S
N749 C748 1.330 . S
N749 C753 1.418 . S
C750 H729 0.929 . S
C750 C748 1.446 . S
C750 C751 1.332 . S
C751 H731 0.931 . S
C751 C750 1.332 . S
C751 C752 1.267 . S
C752 H720 0.929 . S
C752 C751 1.267 . S
C752 C753 1.251 . S
C753 H723 0.929 . S
C753 N749 1.418 . S
C753 C752 1.251 . S
C754 H721 0.930 . S
C754 C756 1.406 . S
C754 C759 1.261 . S
C755 H722 0.930 . S
C755 N757 1.325 . S
C755 C758 1.357 . S
C756 H724 0.928 . S
C756 C754 1.406 . S
C756 N757 1.261 . S
N757 Co708 2.214 . S
N757 C755 1.325 . S
N757 C756 1.261 . S
C758 H728 0.931 1_655 S
C758 C755 1.357 . S
C758 C759 1.312 . S
C759 H730 0.930 1_655 S
C759 C754 1.261 . S
C759 C758 1.312 . S
C760 O732 1.214 . S
C760 O740 1.234 . S
C761 H733 0.929 . S
C761 C764 1.391 . S
C761 C766 1.391 . S
C762 H734 0.929 . S
C762 C763 1.390 . S
C762 N765 1.391 . S
C763 H735 0.930 . S
C763 C762 1.390 . S
C763 C764 1.392 . S
C764 H736 0.929 . S
C764 C761 1.391 . S
C764 C763 1.392 . S
N765 Co709 2.257 1_545 S
N765 C762 1.391 . S
N765 C766 1.388 . S
C766 H737 0.930 . S
C766 C761 1.391 . S
C766 N765 1.388 . S
Co767 O769 2.143 . S
Co767 O775 2.074 . S
Co767 O778 2.093 . S
Co767 O791 2.097 . S
Co767 N808 2.151 . S
Co767 N816 2.214 . S
Co768 O769 2.160 . S
Co768 O774 2.058 . S
Co768 O784 2.057 . S
Co768 O799 2.037 . S
Co768 N803 2.145 1_455 S
Co768 N824 2.257 1_455 S
O769 Co767 2.143 . S
O769 Co768 2.160 . S
C770 O771 1.278 . S
C770 O778 1.224 . S
O771 C770 1.278 . S
C772 O773 1.245 . S
C772 O784 1.232 . S
O773 C772 1.245 . S
O774 Co768 2.058 . S
O774 C800 1.269 . S
O775 Co767 2.074 . S
O775 C800 1.257 . S
H776 C801 0.930 . S
H777 C807 0.930 . S
O778 Co767 2.093 . S
O778 C770 1.224 . S
H779 C811 0.929 . S
H780 C813 0.930 . S
H781 C814 0.930 . S
H782 C812 0.929 . S
H783 C815 0.928 . S
O784 Co768 2.057 . S
O784 C772 1.232 . S
H785 C804 0.929 . S
H786 C805 0.929 . S
H787 C817 0.931 . S
H788 C809 0.929 . S
H789 C818 0.930 . S
H790 C810 0.931 . S
O791 Co767 2.097 . S
O791 C819 1.214 . S
H792 C820 0.929 . S
H793 C821 0.929 . S
H794 C822 0.930 . S
H795 C823 0.929 . S
H796 C825 0.930 . S
H797 C802 0.930 . S
H798 C806 0.930 . S
O799 Co768 2.037 . S
O799 C819 1.234 . S
C800 O774 1.269 . S
C800 O775 1.257 . S
C801 H776 0.930 . S
C801 C804 1.388 . S
C801 C806 1.418 . S
C802 H797 0.930 . S
C802 C805 1.404 . S
C802 C806 1.353 . S
N803 Co768 2.145 1_655 S
N803 C804 1.397 . S
N803 C805 1.334 . S
C804 H785 0.929 . S
C804 C801 1.388 . S
C804 N803 1.397 . S
C805 H786 0.929 . S
C805 C802 1.404 . S
C805 N803 1.334 . S
C806 H798 0.930 . S
C806 C801 1.418 . S
C806 C802 1.353 . S
C807 H777 0.930 . S
C807 N808 1.330 . S
C807 C809 1.446 . S
N808 Co767 2.151 . S
N808 C807 1.330 . S
N808 C812 1.418 . S
C809 H788 0.929 . S
C809 C807 1.446 . S
C809 C810 1.332 . S
C810 H790 0.931 . S
C810 C809 1.332 . S
C810 C811 1.267 . S
C811 H779 0.929 . S
C811 C810 1.267 . S
C811 C812 1.251 . S
C812 H782 0.929 . S
C812 N808 1.418 . S
C812 C811 1.251 . S
C813 H780 0.930 . S
C813 C815 1.406 . S
C813 C818 1.261 . S
C814 H781 0.930 . S
C814 N816 1.325 . S
C814 C817 1.357 . S
C815 H783 0.928 . S
C815 C813 1.406 . S
C815 N816 1.261 . S
N816 Co767 2.214 . S
N816 C814 1.325 . S
N816 C815 1.261 . S
C817 H787 0.931 . S
C817 C814 1.357 . S
C817 C818 1.312 . S
C818 H789 0.930 . S
C818 C813 1.261 . S
C818 C817 1.312 . S
C819 O791 1.214 . S
C819 O799 1.234 . S
C820 H792 0.929 . S
C820 C823 1.391 . S
C820 C825 1.391 . S
C821 H793 0.929 . S
C821 C822 1.390 . S
C821 N824 1.391 . S
C822 H794 0.930 . S
C822 C821 1.390 . S
C822 C823 1.392 . S
C823 H795 0.929 . S
C823 C820 1.391 . S
C823 C822 1.392 . S
N824 Co768 2.257 1_655 S
N824 C821 1.391 . S
N824 C825 1.388 . S
C825 H796 0.930 . S
C825 C820 1.391 . S
C825 N824 1.388 . S
Co826 O828 2.143 . S
Co826 O834 2.074 . S
Co826 O837 2.093 . S
Co826 O850 2.097 . S
Co826 N867 2.151 . S
Co826 N875 2.214 . S
Co827 O828 2.160 . S
Co827 O833 2.058 . S
Co827 O843 2.057 . S
Co827 O858 2.037 . S
Co827 N862 2.145 . S
Co827 N883 2.257 . S
O828 Co826 2.143 . S
O828 Co827 2.160 . S
C829 O830 1.278 . S
C829 O837 1.224 . S
O830 C829 1.278 . S
C831 O832 1.245 . S
C831 O843 1.232 . S
O832 C831 1.245 . S
O833 Co827 2.058 . S
O833 C859 1.269 . S
O834 Co826 2.074 . S
O834 C859 1.257 . S
H835 C860 0.930 . S
H836 C866 0.930 . S
O837 Co826 2.093 . S
O837 C829 1.224 . S
H838 C870 0.929 . S
H839 C872 0.930 . S
H840 C873 0.930 . S
H841 C871 0.929 . S
H842 C874 0.928 . S
O843 Co827 2.057 . S
O843 C831 1.232 . S
H844 C863 0.929 . S
H845 C864 0.929 . S
H846 C876 0.931 . S
H847 C868 0.929 . S
H848 C877 0.930 . S
H849 C869 0.931 . S
O850 Co826 2.097 . S
O850 C878 1.214 . S
H851 C879 0.929 . S
H852 C880 0.929 . S
H853 C881 0.930 . S
H854 C882 0.929 . S
H855 C884 0.930 . S
H856 C861 0.930 . S
H857 C865 0.963 . S
O858 Co827 2.037 . S
O858 C878 1.234 . S
C859 O833 1.269 . S
C859 O834 1.257 . S
C860 H835 0.930 . S
C860 C863 1.388 . S
C860 C865 1.418 . S
C861 H856 0.930 . S
C861 C864 1.404 . S
C861 C865 1.353 . S
N862 Co827 2.145 . S
N862 C863 1.397 . S
N862 C864 1.334 . S
C863 H844 0.929 . S
C863 C860 1.388 . S
C863 N862 1.397 . S
C864 H845 0.929 . S
C864 C861 1.404 . S
C864 N862 1.334 . S
C865 H857 0.963 . S
C865 C860 1.418 . S
C865 C861 1.353 . S
C866 H836 0.930 . S
C866 N867 1.330 . S
C866 C868 1.446 . S
N867 Co826 2.151 . S
N867 C866 1.330 . S
N867 C871 1.418 . S
C868 H847 0.929 . S
C868 C866 1.446 . S
C868 C869 1.332 . S
C869 H849 0.931 . S
C869 C868 1.332 . S
C869 C870 1.267 . S
C870 H838 0.929 . S
C870 C869 1.267 . S
C870 C871 1.251 . S
C871 H841 0.929 . S
C871 N867 1.418 . S
C871 C870 1.251 . S
C872 H839 0.930 . S
C872 C874 1.406 . S
C872 C877 1.261 . S
C873 H840 0.930 . S
C873 N875 1.325 . S
C873 C876 1.357 . S
C874 H842 0.928 . S
C874 C872 1.406 . S
C874 N875 1.261 . S
N875 Co826 2.214 . S
N875 C873 1.325 . S
N875 C874 1.261 . S
C876 H846 0.931 . S
C876 C873 1.357 . S
C876 C877 1.312 . S
C877 H848 0.930 . S
C877 C872 1.261 . S
C877 C876 1.312 . S
C878 O850 1.214 . S
C878 O858 1.234 . S
C879 H851 0.929 . S
C879 C882 1.391 . S
C879 C884 1.391 . S
C880 H852 0.929 . S
C880 C881 1.390 . S
C880 N883 1.391 . S
C881 H853 0.930 . S
C881 C880 1.390 . S
C881 C882 1.392 . S
C882 H854 0.929 . S
C882 C879 1.391 . S
C882 C881 1.392 . S
N883 Co827 2.257 . S
N883 C880 1.391 . S
N883 C884 1.388 . S
C884 H855 0.930 . S
C884 C879 1.391 . S
C884 N883 1.388 . S
Co885 O887 2.143 . S
Co885 O893 2.074 . S
Co885 O896 2.093 . S
Co885 O909 2.097 . S
Co885 N926 2.151 . S
Co885 N934 2.214 . S
Co886 O887 2.160 . S
Co886 O892 2.058 . S
Co886 O902 2.057 . S
Co886 O917 2.037 . S
Co886 N921 2.145 . S
Co886 N942 2.257 . S
O887 Co885 2.143 . S
O887 Co886 2.160 . S
C888 O889 1.278 . S
C888 O896 1.224 . S
O889 C888 1.278 . S
C890 O891 1.245 . S
C890 O902 1.232 . S
O891 C890 1.245 . S
O892 Co886 2.058 . S
O892 C918 1.269 . S
O893 Co885 2.074 . S
O893 C918 1.257 . S
H894 C919 0.930 . S
H895 C925 0.930 . S
O896 Co885 2.093 . S
O896 C888 1.224 . S
H897 C929 0.929 . S
H898 C931 0.930 . S
H899 C932 0.930 . S
H900 C930 0.929 . S
H901 C933 0.928 . S
O902 Co886 2.057 . S
O902 C890 1.232 . S
H903 C922 0.929 . S
H904 C923 0.929 . S
H905 C935 0.931 1_565 S
H906 C927 0.929 . S
H907 C936 0.930 1_565 S
H908 C928 0.931 . S
O909 Co885 2.097 . S
O909 C937 1.214 . S
H910 C938 0.929 . S
H911 C939 0.929 . S
H912 C940 0.930 . S
H913 C941 0.929 . S
H914 C943 0.930 . S
H915 C920 0.930 . S
H916 C924 0.930 . S
O917 Co886 2.037 . S
O917 C937 1.234 . S
C918 O892 1.269 . S
C918 O893 1.257 . S
C919 H894 0.930 . S
C919 C922 1.388 . S
C919 C924 1.418 . S
C920 H915 0.930 . S
C920 C923 1.404 . S
C920 C924 1.353 . S
N921 Co886 2.145 . S
N921 C922 1.397 . S
N921 C923 1.334 . S
C922 H903 0.929 . S
C922 C919 1.388 . S
C922 N921 1.397 . S
C923 H904 0.929 . S
C923 C920 1.404 . S
C923 N921 1.334 . S
C924 H916 0.930 . S
C924 C919 1.418 . S
C924 C920 1.353 . S
C925 H895 0.930 . S
C925 N926 1.330 . S
C925 C927 1.446 . S
N926 Co885 2.151 . S
N926 C925 1.330 . S
N926 C930 1.418 . S
C927 H906 0.929 . S
C927 C925 1.446 . S
C927 C928 1.332 . S
C928 H908 0.931 . S
C928 C927 1.332 . S
C928 C929 1.267 . S
C929 H897 0.929 . S
C929 C928 1.267 . S
C929 C930 1.251 . S
C930 H900 0.929 . S
C930 N926 1.418 . S
C930 C929 1.251 . S
C931 H898 0.930 . S
C931 C933 1.406 . S
C931 C936 1.261 . S
C932 H899 0.930 . S
C932 N934 1.325 . S
C932 C935 1.357 . S
C933 H901 0.928 . S
C933 C931 1.406 . S
C933 N934 1.261 . S
N934 Co885 2.214 . S
N934 C932 1.325 . S
N934 C933 1.261 . S
C935 H905 0.931 1_545 S
C935 C932 1.357 . S
C935 C936 1.312 . S
C936 H907 0.930 1_545 S
C936 C931 1.261 . S
C936 C935 1.312 . S
C937 O909 1.214 . S
C937 O917 1.234 . S
C938 H910 0.929 . S
C938 C941 1.391 . S
C938 C943 1.391 . S
C939 H911 0.929 . S
C939 C940 1.390 . S
C939 N942 1.391 . S
C940 H912 0.930 . S
C940 C939 1.390 . S
C940 C941 1.392 . S
C941 H913 0.929 . S
C941 C938 1.391 . S
C941 C940 1.392 . S
N942 Co886 2.257 . S
N942 C939 1.391 . S
N942 C943 1.388 . S
C943 H914 0.930 . S
C943 C938 1.391 . S
C943 N942 1.388 . S
C944 C945 1.387 . S
C944 H948 0.950 . S
C944 C953 1.390 1_665 S
C945 C944 1.387 . S
C945 C947 1.387 . S
H946 C953 0.950 . S
C947 C945 1.387 . S
C947 C949 1.390 1_665 S
C947 H951 0.950 . S
H948 C944 0.950 . S
C949 C947 1.390 1_445 S
C949 C950 1.387 . S
C949 H952 0.950 . S
C950 C949 1.387 . S
C950 C953 1.387 . S
H951 C947 0.950 . S
H952 C949 0.950 . S
C953 C944 1.390 1_445 S
C953 H946 0.950 . S
C953 C950 1.387 . S
C954 C955 1.387 . S
C954 H958 0.950 . S
C954 C963 1.390 1_655 S
C955 C954 1.387 . S
C955 C957 1.387 . S
H956 C963 0.950 . S
C957 C955 1.387 . S
C957 C959 1.390 1_655 S
C957 H961 0.950 . S
H958 C954 0.950 . S
C959 C957 1.390 1_455 S
C959 C960 1.387 . S
C959 H962 0.950 . S
C960 C959 1.387 . S
C960 C963 1.387 . S
H961 C957 0.950 . S
H962 C959 0.950 . S
C963 C954 1.390 1_455 S
C963 H956 0.950 . S
C963 C960 1.387 . S
C964 C965 1.387 . S
C964 H968 0.950 . S
C964 C973 1.390 . S
C965 C964 1.387 . S
C965 C967 1.387 . S
H966 C973 0.950 . S
C967 C965 1.387 . S
C967 C969 1.390 . S
C967 H971 0.950 . S
H968 C964 0.950 . S
C969 C967 1.390 . S
C969 C970 1.387 . S
C969 H972 0.950 . S
C970 C969 1.387 . S
C970 C973 1.387 . S
H971 C967 0.950 . S
H972 C969 0.950 . S
C973 C964 1.390 . S
C973 H966 0.950 . S
C973 C970 1.387 . S
C974 C975 1.387 . S
C974 H978 0.950 . S
C974 C983 1.390 1_545 S
C975 C974 1.387 . S
C975 C977 1.387 . S
H976 C983 0.950 . S
C977 C975 1.387 . S
C977 C979 1.390 1_545 S
C977 H981 0.950 . S
H978 C974 0.950 . S
C979 C977 1.390 1_565 S
C979 C980 1.387 . S
C979 H982 0.950 . S
C980 C979 1.387 . S
C980 C983 1.387 . S
H981 C977 0.950 . S
H982 C979 0.950 . S
C983 C974 1.390 1_565 S
C983 H976 0.950 . S
C983 C980 1.387 . S
C984 C985 1.387 . S
C984 H988 0.950 . S
C984 C993 1.390 1_455 S
C985 C984 1.387 . S
C985 C987 1.387 . S
H986 C993 0.950 . S
C987 C985 1.387 . S
C987 C989 1.390 1_455 S
C987 H991 0.950 . S
H988 C984 0.950 . S
C989 C987 1.390 1_655 S
C989 C990 1.387 . S
C989 H992 0.950 . S
C990 C989 1.387 . S
C990 C993 1.387 . S
H991 C987 0.950 . S
H992 C989 0.950 . S
C993 C984 1.390 1_655 S
C993 H986 0.950 . S
C993 C990 1.387 . S
C994 C995 1.387 . S
C994 H998 0.950 . S
C994 C1003 1.390 . S
C995 C994 1.387 . S
C995 C997 1.387 . S
H996 C1003 0.950 . S
C997 C995 1.387 . S
C997 C999 1.390 . S
C997 H1001 0.950 . S
H998 C994 0.950 . S
C999 C997 1.390 . S
C999 C1000 1.387 . S
C999 H1002 0.950 . S
C1000 C999 1.387 . S
C1000 C1003 1.387 . S
H1001 C997 0.950 . S
H1002 C999 0.950 . S
C1003 C994 1.390 . S
C1003 H996 0.950 . S
C1003 C1000 1.387 . S
C1004 C1005 1.387 . S
C1004 H1008 0.950 . S
C1004 C1013 1.390 1_545 S
C1005 C1004 1.387 . S
C1005 C1007 1.387 . S
H1006 C1013 0.950 . S
C1007 C1005 1.387 . S
C1007 C1009 1.390 1_545 S
C1007 H1011 0.950 . S
H1008 C1004 0.950 . S
C1009 C1007 1.390 1_565 S
C1009 C1010 1.387 . S
C1009 H1012 0.950 . S
C1010 C1009 1.387 . S
C1010 C1013 1.387 . S
H1011 C1007 0.950 . S
H1012 C1009 0.950 . S
C1013 C1004 1.390 1_565 S
C1013 H1006 0.950 . S
C1013 C1010 1.387 . S
C1014 C1015 1.387 . S
C1014 H1018 0.950 . S
C1014 C1023 1.390 1_445 S
C1015 C1014 1.387 . S
C1015 C1017 1.387 . S
H1016 C1023 0.950 . S
C1017 C1015 1.387 . S
C1017 C1019 1.390 1_445 S
C1017 H1021 0.950 . S
H1018 C1014 0.950 . S
C1019 C1017 1.390 1_665 S
C1019 C1020 1.387 . S
C1019 H1022 0.950 . S
C1020 C1019 1.387 . S
C1020 C1023 1.387 . S
H1021 C1017 0.950 . S
H1022 C1019 0.950 . S
C1023 C1014 1.390 1_665 S
C1023 H1016 0.950 . S
C1023 C1020 1.387 . S
C1024 C1025 1.387 . S
C1024 H1028 0.950 . S
C1024 C1033 1.390 1_565 S
C1025 C1024 1.387 . S
C1025 C1027 1.387 . S
H1026 C1033 0.950 . S
C1027 C1025 1.387 . S
C1027 C1029 1.390 1_565 S
C1027 H1031 0.950 . S
H1028 C1024 0.950 . S
C1029 C1027 1.390 1_545 S
C1029 C1030 1.387 . S
C1029 H1032 0.950 . S
C1030 C1029 1.387 . S
C1030 C1033 1.387 . S
H1031 C1027 0.950 . S
H1032 C1029 0.950 . S
C1033 C1024 1.390 1_545 S
C1033 H1026 0.950 . S
C1033 C1030 1.387 . S
C1034 C1035 1.387 . S
C1034 H1038 0.950 . S
C1034 C1043 1.390 1_665 S
C1035 C1034 1.387 . S
C1035 C1037 1.387 . S
H1036 C1043 0.950 . S
C1037 C1035 1.387 . S
C1037 C1039 1.390 1_665 S
C1037 H1041 0.950 . S
H1038 C1034 0.950 . S
C1039 C1037 1.390 1_445 S
C1039 C1040 1.387 . S
C1039 H1042 0.950 . S
C1040 C1039 1.387 . S
C1040 C1043 1.387 . S
H1041 C1037 0.950 . S
H1042 C1039 0.950 . S
C1043 C1034 1.390 1_445 S
C1043 H1036 0.950 . S
C1043 C1040 1.387 . S
C1044 C1045 1.387 . S
C1044 H1048 0.950 . S
C1044 C1053 1.390 1_455 S
C1045 C1044 1.387 . S
C1045 C1047 1.387 . S
H1046 C1053 0.950 . S
C1047 C1045 1.387 . S
C1047 C1049 1.390 1_455 S
C1047 H1051 0.950 . S
H1048 C1044 0.950 . S
C1049 C1047 1.390 1_655 S
C1049 C1050 1.387 . S
C1049 H1052 0.950 . S
C1050 C1049 1.387 . S
C1050 C1053 1.387 . S
H1051 C1047 0.950 . S
H1052 C1049 0.950 . S
C1053 C1044 1.390 1_655 S
C1053 H1046 0.950 . S
C1053 C1050 1.387 . S
C1054 C1055 1.387 . S
C1054 H1058 0.950 . S
C1054 C1063 1.390 . S
C1055 C1054 1.387 . S
C1055 C1057 1.387 . S
H1056 C1063 0.950 . S
C1057 C1055 1.387 . S
C1057 C1059 1.390 . S
C1057 H1061 0.950 . S
H1058 C1054 0.950 . S
C1059 C1057 1.390 . S
C1059 C1060 1.387 . S
C1059 H1062 0.950 . S
C1060 C1059 1.387 . S
C1060 C1063 1.387 . S
H1061 C1057 0.950 . S
H1062 C1059 0.950 . S
C1063 C1054 1.390 . S
C1063 H1056 0.950 . S
C1063 C1060 1.387 . S
C1064 C1065 1.387 . S
C1064 H1068 0.950 . S
C1064 C1073 1.390 . S
C1065 C1064 1.387 . S
C1065 C1067 1.387 . S
H1066 C1073 0.950 . S
C1067 C1065 1.387 . S
C1067 C1069 1.390 . S
C1067 H1071 0.950 . S
H1068 C1064 0.950 . S
C1069 C1067 1.390 . S
C1069 C1070 1.387 . S
C1069 H1072 0.950 . S
C1070 C1069 1.387 . S
C1070 C1073 1.387 . S
H1071 C1067 0.950 . S
H1072 C1069 0.950 . S
C1073 C1064 1.390 . S
C1073 H1066 0.950 . S
C1073 C1070 1.387 . S
C1074 C1075 1.387 . S
C1074 H1078 0.950 . S
C1074 C1083 1.390 1_565 S
C1075 C1074 1.387 . S
C1075 C1077 1.387 . S
H1076 C1083 0.950 . S
C1077 C1075 1.387 . S
C1077 C1079 1.390 1_565 S
C1077 H1081 0.950 . S
H1078 C1074 0.950 . S
C1079 C1077 1.390 1_545 S
C1079 C1080 1.387 . S
C1079 H1082 0.950 . S
C1080 C1079 1.387 . S
C1080 C1083 1.387 . S
H1081 C1077 0.950 . S
H1082 C1079 0.950 . S
C1083 C1074 1.390 1_545 S
C1083 H1076 0.950 . S
C1083 C1080 1.387 . S
C1084 C1085 1.387 . S
C1084 H1088 0.950 . S
C1084 C1093 1.390 1_665 S
C1085 C1084 1.387 . S
C1085 C1087 1.387 . S
H1086 C1093 0.950 . S
C1087 C1085 1.387 . S
C1087 C1089 1.390 1_665 S
C1087 H1091 0.950 . S
H1088 C1084 0.950 . S
C1089 C1087 1.390 1_445 S
C1089 C1090 1.387 . S
C1089 H1092 0.950 . S
C1090 C1089 1.387 . S
C1090 C1093 1.387 . S
H1091 C1087 0.950 . S
H1092 C1089 0.950 . S
C1093 C1084 1.390 1_445 S
C1093 H1086 0.950 . S
C1093 C1090 1.387 . S
C1094 C1095 1.387 . S
C1094 H1098 0.950 . S
C1094 C1103 1.390 1_455 S
C1095 C1094 1.387 . S
C1095 C1097 1.387 . S
H1096 C1103 0.950 . S
C1097 C1095 1.387 . S
C1097 C1099 1.390 1_455 S
C1097 H1101 0.950 . S
H1098 C1094 0.950 . S
C1099 C1097 1.390 1_655 S
C1099 C1100 1.387 . S
C1099 H1102 0.950 . S
C1100 C1099 1.387 . S
C1100 C1103 1.387 . S
H1101 C1097 0.950 . S
H1102 C1099 0.950 . S
C1103 C1094 1.390 1_655 S
C1103 H1096 0.950 . S
C1103 C1100 1.387 . S
C1104 C1105 1.387 . S
C1104 H1108 0.950 . S
C1104 C1113 1.390 . S
C1105 C1104 1.387 . S
C1105 C1107 1.387 . S
H1106 C1113 0.950 . S
C1107 C1105 1.387 . S
C1107 C1109 1.390 . S
C1107 H1111 0.950 . S
H1108 C1104 0.950 . S
C1109 C1107 1.390 . S
C1109 C1110 1.387 . S
C1109 H1112 0.950 . S
C1110 C1109 1.387 . S
C1110 C1113 1.387 . S
H1111 C1107 0.950 . S
H1112 C1109 0.950 . S
C1113 C1104 1.390 . S
C1113 H1106 0.950 . S
C1113 C1110 1.387 . S
C1114 C1115 1.387 . S
C1114 H1118 0.950 . S
C1114 C1123 1.390 . S
C1115 C1114 1.387 . S
C1115 C1117 1.387 . S
H1116 C1123 0.950 . S
C1117 C1115 1.387 . S
C1117 C1119 1.390 . S
C1117 H1121 0.950 . S
H1118 C1114 0.950 . S
C1119 C1117 1.390 . S
C1119 C1120 1.387 . S
C1119 H1122 0.950 . S
C1120 C1119 1.387 . S
C1120 C1123 1.387 . S
H1121 C1117 0.950 . S
H1122 C1119 0.950 . S
C1123 C1114 1.390 . S
C1123 H1116 0.950 . S
C1123 C1120 1.387 . S
C1124 C1125 1.387 . S
C1124 H1128 0.950 . S
C1124 C1133 1.390 . S
C1125 C1124 1.387 . S
C1125 C1127 1.387 . S
H1126 C1133 0.950 . S
C1127 C1125 1.387 . S
C1127 C1129 1.390 . S
C1127 H1131 0.950 . S
H1128 C1124 0.950 . S
C1129 C1127 1.390 . S
C1129 C1130 1.387 . S
C1129 H1132 0.950 . S
C1130 C1129 1.387 . S
C1130 C1133 1.387 . S
H1131 C1127 0.950 . S
H1132 C1129 0.950 . S
C1133 C1124 1.390 . S
C1133 H1126 0.950 . S
C1133 C1130 1.387 . S
C1134 C1135 1.387 . S
C1134 H1138 0.950 . S
C1134 C1143 1.390 . S
C1135 C1134 1.387 . S
C1135 C1137 1.387 . S
H1136 C1143 0.950 . S
C1137 C1135 1.387 . S
C1137 C1139 1.390 . S
C1137 H1141 0.950 . S
H1138 C1134 0.950 . S
C1139 C1137 1.390 . S
C1139 C1140 1.387 . S
C1139 H1142 0.950 . S
C1140 C1139 1.387 . S
C1140 C1143 1.387 . S
H1141 C1137 0.950 . S
H1142 C1139 0.950 . S
C1143 C1134 1.390 . S
C1143 H1136 0.950 . S
C1143 C1140 1.387 . S
C1144 C1145 1.387 . S
C1144 H1148 0.950 . S
C1144 C1153 1.390 . S
C1145 C1144 1.387 . S
C1145 C1147 1.387 . S
H1146 C1153 0.950 . S
C1147 C1145 1.387 . S
C1147 C1149 1.390 . S
C1147 H1151 0.950 . S
H1148 C1144 0.950 . S
C1149 C1147 1.390 . S
C1149 C1150 1.387 . S
C1149 H1152 0.950 . S
C1150 C1149 1.387 . S
C1150 C1153 1.387 . S
H1151 C1147 0.950 . S
H1152 C1149 0.950 . S
C1153 C1144 1.390 . S
C1153 H1146 0.950 . S
C1153 C1150 1.387 . S
C1154 C1155 1.387 . S
C1154 H1158 0.950 . S
C1154 C1163 1.390 . S
C1155 C1154 1.387 . S
C1155 C1157 1.387 . S
H1156 C1163 0.950 . S
C1157 C1155 1.387 . S
C1157 C1159 1.390 . S
C1157 H1161 0.950 . S
H1158 C1154 0.950 . S
C1159 C1157 1.390 . S
C1159 C1160 1.387 . S
C1159 H1162 0.950 . S
C1160 C1159 1.387 . S
C1160 C1163 1.387 . S
H1161 C1157 0.950 . S
H1162 C1159 0.950 . S
C1163 C1154 1.390 . S
C1163 H1156 0.950 . S
C1163 C1160 1.387 . S
C1164 C1165 1.387 . S
C1164 H1168 0.950 . S
C1164 C1173 1.390 . S
C1165 C1164 1.387 . S
C1165 C1167 1.387 . S
H1166 C1173 0.950 . S
C1167 C1165 1.387 . S
C1167 C1169 1.390 . S
C1167 H1171 0.950 . S
H1168 C1164 0.950 . S
C1169 C1167 1.390 . S
C1169 C1170 1.387 . S
C1169 H1172 0.950 . S
C1170 C1169 1.387 . S
C1170 C1173 1.387 . S
H1171 C1167 0.950 . S
H1172 C1169 0.950 . S
C1173 C1164 1.390 . S
C1173 H1166 0.950 . S
C1173 C1170 1.387 . S
C1174 C1175 1.387 . S
C1174 H1178 0.950 . S
C1174 C1183 1.390 . S
C1175 C1174 1.387 . S
C1175 C1177 1.387 . S
H1176 C1183 0.950 . S
C1177 C1175 1.387 . S
C1177 C1179 1.390 . S
C1177 H1181 0.950 . S
H1178 C1174 0.950 . S
C1179 C1177 1.390 . S
C1179 C1180 1.387 . S
C1179 H1182 0.950 . S
C1180 C1179 1.387 . S
C1180 C1183 1.387 . S
H1181 C1177 0.950 . S
H1182 C1179 0.950 . S
C1183 C1174 1.390 . S
C1183 H1176 0.950 . S
C1183 C1180 1.387 . S
C1184 C1185 1.387 . S
C1184 H1188 0.950 . S
C1184 C1193 1.390 . S
C1185 C1184 1.387 . S
C1185 C1187 1.387 . S
H1186 C1193 0.950 . S
C1187 C1185 1.387 . S
C1187 C1189 1.390 . S
C1187 H1191 0.950 . S
H1188 C1184 0.950 . S
C1189 C1187 1.390 . S
C1189 C1190 1.387 . S
C1189 H1192 0.950 . S
C1190 C1189 1.387 . S
C1190 C1193 1.387 . S
H1191 C1187 0.950 . S
H1192 C1189 0.950 . S
C1193 C1184 1.390 . S
C1193 H1186 0.950 . S
C1193 C1190 1.387 . S
C1194 C1195 1.387 . S
C1194 H1198 0.950 . S
C1194 C1203 1.390 . S
C1195 C1194 1.387 . S
C1195 C1197 1.387 . S
H1196 C1203 0.950 . S
C1197 C1195 1.387 . S
C1197 C1199 1.390 . S
C1197 H1201 0.950 . S
H1198 C1194 0.950 . S
C1199 C1197 1.390 . S
C1199 C1200 1.387 . S
C1199 H1202 0.950 . S
C1200 C1199 1.387 . S
C1200 C1203 1.387 . S
H1201 C1197 0.950 . S
H1202 C1199 0.950 . S
C1203 C1194 1.390 . S
C1203 H1196 0.950 . S
C1203 C1200 1.387 . S
C1204 C1205 1.387 . S
C1204 H1208 0.950 . S
C1204 C1213 1.390 . S
C1205 C1204 1.387 . S
C1205 C1207 1.387 . S
H1206 C1213 0.950 . S
C1207 C1205 1.387 . S
C1207 C1209 1.390 . S
C1207 H1211 0.950 . S
H1208 C1204 0.950 . S
C1209 C1207 1.390 . S
C1209 C1210 1.387 . S
C1209 H1212 0.950 . S
C1210 C1209 1.387 . S
C1210 C1213 1.387 . S
H1211 C1207 0.950 . S
H1212 C1209 0.950 . S
C1213 C1204 1.390 . S
C1213 H1206 0.950 . S
C1213 C1210 1.387 . S
C1214 C1215 1.387 . S
C1214 H1218 0.950 . S
C1214 C1223 1.390 1_556 S
C1215 C1214 1.387 . S
C1215 C1217 1.387 . S
H1216 C1223 0.950 . S
C1217 C1215 1.387 . S
C1217 C1219 1.390 1_556 S
C1217 H1221 0.950 . S
H1218 C1214 0.950 . S
C1219 C1217 1.390 1_554 S
C1219 C1220 1.387 . S
C1219 H1222 0.950 . S
C1220 C1219 1.387 . S
C1220 C1223 1.387 . S
H1221 C1217 0.950 . S
H1222 C1219 0.950 . S
C1223 C1214 1.390 1_554 S
C1223 H1216 0.950 . S
C1223 C1220 1.387 . S
C1224 C1225 1.387 . S
C1224 H1228 0.950 . S
C1224 C1233 1.390 1_554 S
C1225 C1224 1.387 . S
C1225 C1227 1.387 . S
H1226 C1233 0.950 . S
C1227 C1225 1.387 . S
C1227 C1229 1.390 1_554 S
C1227 H1231 0.950 . S
H1228 C1224 0.950 . S
C1229 C1227 1.390 1_556 S
C1229 C1230 1.387 . S
C1229 H1232 0.950 . S
C1230 C1229 1.387 . S
C1230 C1233 1.387 . S
H1231 C1227 0.950 . S
H1232 C1229 0.950 . S
C1233 C1224 1.390 1_556 S
C1233 H1226 0.950 . S
C1233 C1230 1.387 . S
C1234 C1235 1.387 . S
C1234 H1238 0.950 . S
C1234 C1243 1.390 . S
C1235 C1234 1.387 . S
C1235 C1237 1.387 . S
H1236 C1243 0.950 . S
C1237 C1235 1.387 . S
C1237 C1239 1.390 . S
C1237 H1241 0.950 . S
H1238 C1234 0.950 . S
C1239 C1237 1.390 . S
C1239 C1240 1.387 . S
C1239 H1242 0.950 . S
C1240 C1239 1.387 . S
C1240 C1243 1.387 . S
H1241 C1237 0.950 . S
H1242 C1239 0.950 . S
C1243 C1234 1.390 . S
C1243 H1236 0.950 . S
C1243 C1240 1.387 . S
C1244 C1245 1.387 . S
C1244 H1248 0.950 . S
C1244 C1253 1.390 . S
C1245 C1244 1.387 . S
C1245 C1247 1.387 . S
H1246 C1253 0.950 . S
C1247 C1245 1.387 . S
C1247 C1249 1.390 . S
C1247 H1251 0.950 . S
H1248 C1244 0.950 . S
C1249 C1247 1.390 . S
C1249 C1250 1.387 . S
C1249 H1252 0.950 . S
C1250 C1249 1.387 . S
C1250 C1253 1.387 . S
H1251 C1247 0.950 . S
H1252 C1249 0.950 . S
C1253 C1244 1.390 . S
C1253 H1246 0.950 . S
C1253 C1250 1.387 . S
C1254 C1255 1.387 . S
C1254 H1258 0.950 . S
C1254 C1263 1.390 . S
C1255 C1254 1.387 . S
C1255 C1257 1.387 . S
H1256 C1263 0.950 . S
C1257 C1255 1.387 . S
C1257 C1259 1.390 . S
C1257 H1261 0.950 . S
H1258 C1254 0.950 . S
C1259 C1257 1.390 . S
C1259 C1260 1.387 . S
C1259 H1262 0.950 . S
C1260 C1259 1.387 . S
C1260 C1263 1.387 . S
H1261 C1257 0.950 . S
H1262 C1259 0.950 . S
C1263 C1254 1.390 . S
C1263 H1256 0.950 . S
C1263 C1260 1.387 . S
C945 C595 1.472 . S
C950 C5 1.472 . S
C955 C64 1.471 . S
C960 C654 1.471 . S
C965 C477 1.473 . S
C970 C123 1.473 . S
C975 C536 1.471 . S
C980 C182 1.471 . S
C985 C241 1.472 . S
C990 C831 1.472 . S
C995 C890 1.473 . S
C1000 C300 1.473 . S
C1005 C359 1.473 . S
C1010 C713 1.473 . S
C1015 C772 1.473 . S
C1020 C418 1.473 . S
C1025 C642 1.667 . S
C1030 C52 1.667 . S
C1035 C111 1.666 . S
C1040 C701 1.666 . S
C1045 C170 1.666 . S
C1050 C524 1.666 . S
C1055 C229 1.667 . S
C1060 C583 1.667 . S
C1065 C288 1.668 . S
C1070 C878 1.668 . S
C1075 C347 1.666 . S
C1080 C937 1.666 . S
C1085 C760 1.668 . S
C1090 C406 1.668 . S
C1095 C819 1.667 . S
C1100 C465 1.667 . S
C1105 C3 1.466 . S
C1110 C357 1.466 . S
C1115 C62 1.467 . S
C1120 C416 1.467 . S
C1125 C121 1.466 . S
C1130 C239 1.466 . S
C1135 C180 1.466 . S
C1140 C298 1.466 . S
C1145 C475 1.467 . S
C1150 C829 1.466 . S
C1155 C888 1.466 . S
C1160 C534 1.466 . S
C1165 C593 1.467 . S
C1170 C711 1.467 . S
C1175 C770 1.467 . S
C1180 C652 1.467 . S
C1185 C33 1.339 . S
C1190 C918 1.338 . S
C1195 C741 1.339 . S
C1200 C92 1.337 . S
C1205 C800 1.338 . S
C1210 C151 1.339 . S
C1215 C859 1.338 . S
C1220 C210 1.339 . S
C1225 C564 1.337 . S
C1230 C269 1.339 . S
C1235 C623 1.339 . S
C1240 C328 1.338 . S
C1245 C387 1.337 . S
C1250 C682 1.338 . S
C1255 C446 1.338 . S
C1260 C505 1.339 . S
