# Generated by pormake.
# Topology dft, (4)-cn, num edge types: 1
# Building blocks:
#     Node 0, Type 0, BuildingBlock: ICAMEG_clean_sbu_1, # of connection points: 4
#     Node 1, Type 0, BuildingBlock: ICAMEG_clean_sbu_1, # of connection points: 4
#     Node 2, Type 0, BuildingBlock: ICAMEG_clean_sbu_1, # of connection points: 4
#     Node 3, Type 0, BuildingBlock: ICAMEG_clean_sbu_1, # of connection points: 4
#     Node 4, Type 0, BuildingBlock: ICAMEG_clean_sbu_1, # of connection points: 4
#     Node 5, Type 0, BuildingBlock: ICAMEG_clean_sbu_1, # of connection points: 4
#     Node 6, Type 0, BuildingBlock: ICAMEG_clean_sbu_1, # of connection points: 4
#     Node 7, Type 0, BuildingBlock: ICAMEG_clean_sbu_1, # of connection points: 4
#     Edge 8, Type (0, 0), BuildingBlock: XUDNAN_clean_linker_2, # of connection points: 2
#     Edge 9, Type (0, 0), BuildingBlock: XUDNAN_clean_linker_2, # of connection points: 2
#     Edge 10, Type (0, 0), BuildingBlock: XUDNAN_clean_linker_2, # of connection points: 2
#     Edge 11, Type (0, 0), BuildingBlock: XUDNAN_clean_linker_2, # of connection points: 2
#     Edge 12, Type (0, 0), BuildingBlock: XUDNAN_clean_linker_2, # of connection points: 2
#     Edge 13, Type (0, 0), BuildingBlock: XUDNAN_clean_linker_2, # of connection points: 2
#     Edge 14, Type (0, 0), BuildingBlock: XUDNAN_clean_linker_2, # of connection points: 2
#     Edge 15, Type (0, 0), BuildingBlock: XUDNAN_clean_linker_2, # of connection points: 2
#     Edge 16, Type (0, 0), BuildingBlock: XUDNAN_clean_linker_2, # of connection points: 2
#     Edge 17, Type (0, 0), BuildingBlock: XUDNAN_clean_linker_2, # of connection points: 2
#     Edge 18, Type (0, 0), BuildingBlock: XUDNAN_clean_linker_2, # of connection points: 2
#     Edge 19, Type (0, 0), BuildingBlock: XUDNAN_clean_linker_2, # of connection points: 2
#     Edge 20, Type (0, 0), BuildingBlock: XUDNAN_clean_linker_2, # of connection points: 2
#     Edge 21, Type (0, 0), BuildingBlock: XUDNAN_clean_linker_2, # of connection points: 2
#     Edge 22, Type (0, 0), BuildingBlock: XUDNAN_clean_linker_2, # of connection points: 2
#     Edge 23, Type (0, 0), BuildingBlock: XUDNAN_clean_linker_2, # of connection points: 2
# Relax obj value: 0.222
# Max RMSD: 0.220
# Mean RMSD: 0.220
data_MOF--net-dft--node1-ICAMEG_clean_sbu_1--edge1-XUDNAN_clean_linker_2
_symmetry_space_group_name_H-M    P1
_symmetry_Int_Tables_number       1
_symmetry_cell_setting            triclinic
loop_
_symmetry_equiv_pos_as_xyz
'x, y, z'
_cell_length_a     34.502836
_cell_length_b     34.367684
_cell_length_c     47.064456
_cell_angle_alpha  90.145041
_cell_angle_beta   90.106641
_cell_angle_gamma 89.96585
loop_
_atom_site_label
_atom_site_type_symbol
_atom_site_fract_x
_atom_site_fract_y
_atom_site_fract_z
_atom_type_partial_charge
Co0 Co 0.28435 0.08753 0.15596 0.0
Co1 Co 0.3424 0.06083 0.21097 0.0
O2 O 0.33548 0.07147 0.17025 0.0
C3 C 0.32323 0.04467 0.10758 0.0
O4 O 0.35124 0.03263 0.12426 0.0
C5 C 0.41979 0.09152 0.19008 0.0
O6 O 0.40569 0.09897 0.16479 0.0
O7 O 0.32577 0.11511 0.21937 0.0
O8 O 0.27207 0.11396 0.19286 0.0
H9 H 0.30116 0.0645 0.31328 0.0
H10 H 0.35582 0.11028 0.12393 0.0
O11 O 0.29431 0.063 0.11778 0.0
H12 H 0.28666 0.23296 0.14288 0.0
H13 H 0.18865 0.13644 0.08326 0.0
H14 H 0.20547 0.08772 0.18097 0.0
H15 H 0.25979 0.17062 0.1592 0.0
H16 H 0.25341 0.11834 0.10099 0.0
O17 O 0.39806 0.0784 0.20976 0.0
H18 H 0.29406 0.07588 0.26184 0.0
H19 H 0.40517 0.0266 0.247 0.0
H20 H 0.14029 0.10614 0.16423 0.0
H21 H 0.38334 0.17177 0.10686 0.0
H22 H 0.13153 0.13067 0.11503 0.0
H23 H 0.34881 0.23387 0.11634 0.0
O24 O 0.26246 0.03788 0.17054 0.0
H25 H 0.41617 0.95662 0.15817 0.0
H26 H 0.32179 0.98299 0.23429 0.0
H27 H 0.34036 0.91536 0.22369 0.0
H28 H 0.38804 0.90174 0.18546 0.0
H29 H 0.39641 0.02364 0.16916 0.0
H30 H 0.41366 0.01517 0.29833 0.0
H31 H 0.36132 0.03394 0.33184 0.0
O32 O 0.2874 0.04187 0.21433 0.0
C33 C 0.2931 0.12936 0.21215 0.0
C34 C 0.32414 0.05611 0.29888 0.0
C35 C 0.3873 0.02847 0.2905 0.0
N36 N 0.34904 0.05171 0.25138 0.0
C37 C 0.32025 0.06241 0.26972 0.0
C38 C 0.38238 0.03516 0.26145 0.0
C39 C 0.35791 0.03899 0.30929 0.0
C40 C 0.34026 0.13685 0.12793 0.0
N41 N 0.30596 0.13645 0.14239 0.0
C42 C 0.35615 0.17176 0.1183 0.0
C43 C 0.33681 0.20659 0.12365 0.0
C44 C 0.30197 0.2061 0.13854 0.0
C45 C 0.28694 0.17062 0.14781 0.0
C46 C 0.19208 0.12582 0.10475 0.0
C47 C 0.20198 0.09854 0.15959 0.0
C48 C 0.22869 0.11534 0.11489 0.0
N49 N 0.23331 0.1021 0.14208 0.0
C50 C 0.16496 0.10886 0.1502 0.0
C51 C 0.16006 0.12259 0.12259 0.0
C52 C 0.26311 0.02771 0.19661 0.0
C53 C 0.39548 0.96217 0.17495 0.0
C54 C 0.34242 0.97745 0.21751 0.0
C55 C 0.3529 0.93901 0.21167 0.0
C56 C 0.37965 0.93139 0.19024 0.0
N57 N 0.35816 0.00761 0.20251 0.0
C58 C 0.38428 1.00024 0.18139 0.0
Co59 Co 0.04595 0.27996 0.64769 0.0
Co60 Co 0.05491 0.34335 0.70266 0.0
O61 O 0.05815 0.33269 0.66167 0.0
C62 C 0.09829 0.31561 0.60384 0.0
O63 O 0.10617 0.34556 0.6202 0.0
C64 C 0.03772 0.42167 0.67448 0.0
O65 O 0.04052 0.4075 0.64866 0.0
O66 O 0.99896 0.32883 0.70136 0.0
O67 O 0.00802 0.27204 0.67922 0.0
H68 H 0.01312 0.31308 0.80244 0.0
H69 H 0.03288 0.35186 0.61237 0.0
O70 O 0.08217 0.28553 0.61429 0.0
H71 H 0.91049 0.27886 0.60739 0.0
H72 H 0.01945 0.17637 0.57403 0.0
H73 H 0.03525 0.20381 0.67627 0.0
H74 H 0.96502 0.25414 0.63576 0.0
H75 H 0.03308 0.24298 0.59071 0.0
O76 O 0.04102 0.39955 0.69609 0.0
H77 H 0.01995 0.3009 0.75107 0.0
H78 H 0.07948 0.40818 0.74118 0.0
H79 H 0.02099 0.13694 0.6605 0.0
H80 H 0.97959 0.3771 0.58333 0.0
H81 H 0.01304 0.12281 0.60903 0.0
H82 H 0.91761 0.34058 0.58057 0.0
O83 O 0.08872 0.25874 0.67209 0.0
H84 H 0.17736 0.40678 0.66704 0.0
H85 H 0.12079 0.32278 0.74083 0.0
H86 H 0.19056 0.33753 0.74219 0.0
H87 H 0.21933 0.38001 0.7052 0.0
H88 H 0.10802 0.39086 0.66624 0.0
H89 H 0.07292 0.42168 0.79241 0.0
H90 H 0.0397 0.37386 0.82345 0.0
O91 O 0.0692 0.28824 0.71194 0.0
C92 C 0.98696 0.2953 0.69366 0.0
C93 C 0.02773 0.3341 0.78915 0.0
C94 C 0.06124 0.39508 0.78352 0.0
N95 N 0.05027 0.35366 0.74312 0.0
C96 C 0.03177 0.32732 0.76004 0.0
C97 C 0.06475 0.38731 0.75449 0.0
C98 C 0.04262 0.36822 0.80092 0.0
C99 C 0.00675 0.33508 0.61085 0.0
N100 N 0.0032 0.30052 0.62489 0.0
C101 C 0.97628 0.34985 0.59454 0.0
C102 C 0.94151 0.32942 0.59306 0.0
C103 C 0.93752 0.2948 0.60806 0.0
C104 C 0.96869 0.28088 0.62406 0.0
C105 C 0.02296 0.18214 0.5965 0.0
C106 C 0.03179 0.198 0.65384 0.0
C107 C 0.03096 0.21979 0.60608 0.0
N108 N 0.03505 0.2274 0.63448 0.0
C109 C 0.02375 0.16002 0.64503 0.0
C110 C 0.01931 0.15211 0.61616 0.0
C111 C 0.08805 0.2615 0.69917 0.0
C112 C 0.16513 0.38846 0.68341 0.0
C113 C 0.13294 0.34132 0.72461 0.0
C114 C 0.17255 0.34957 0.72553 0.0
C115 C 0.18867 0.37338 0.70478 0.0
N116 N 0.10985 0.35647 0.70369 0.0
C117 C 0.12564 0.37953 0.68316 0.0
Co118 Co 0.83848 0.02533 0.15936 0.0
Co119 Co 0.78254 0.0703 0.20921 0.0
O120 O 0.79059 0.05278 0.16985 0.0
C121 C 0.83289 0.08198 0.11107 0.0
O122 O 0.83171 0.11124 0.12906 0.0
C123 C 0.70167 0.05037 0.18724 0.0
O124 O 0.71439 0.03869 0.16238 0.0
O125 O 0.78877 0.01575 0.2226 0.0
O126 O 0.84218 1.00072 0.19777 0.0
H127 H 0.81447 0.07642 0.3134 0.0
H128 H 0.76894 0.01669 0.12283 0.0
O129 O 0.8356 0.04729 0.12008 0.0
H130 H 0.80346 0.88334 0.1519 0.0
H131 H 0.92678 0.95045 0.09383 0.0
H132 H 0.91358 0.01137 0.1883 0.0
H133 H 0.84263 0.93926 0.16785 0.0
H134 H 0.86601 0.98321 0.1075 0.0
O135 O 0.72505 0.06216 0.20639 0.0
H136 H 0.82339 0.05569 0.26369 0.0
H137 H 0.72407 0.12027 0.23875 0.0
H138 H 0.97472 0.97854 0.17559 0.0
H139 H 0.72915 0.96154 0.10615 0.0
H140 H 0.98162 0.94781 0.12804 0.0
H141 H 0.74629 0.89428 0.12076 0.0
O142 O 0.86976 0.07074 0.17317 0.0
H143 H 0.73534 0.17552 0.14324 0.0
H144 H 0.81392 0.14688 0.22822 0.0
H145 H 0.809 0.21437 0.21119 0.0
H146 H 0.7693 0.22915 0.16847 0.0
H147 H 0.74143 0.10846 0.16074 0.0
H148 H 0.71371 0.14125 0.28829 0.0
H149 H 0.75925 0.11952 0.326 0.0
O150 O 0.83931 0.0797 0.21457 0.0
C151 C 0.81787 0.99399 0.21751 0.0
C152 C 0.79445 0.08614 0.29716 0.0
C153 C 0.73789 0.12248 0.28307 0.0
N154 N 0.77444 0.08685 0.24827 0.0
C155 C 0.79941 0.07453 0.26895 0.0
C156 C 0.74382 0.11035 0.25507 0.0
C157 C 0.76346 0.1103 0.30421 0.0
C158 C 0.7766 0.9875 0.12925 0.0
N159 N 0.80792 0.98127 0.14644 0.0
C160 C 0.75395 0.95639 0.11975 0.0
C161 C 0.76358 0.91867 0.12795 0.0
C162 C 0.79564 0.91251 0.14543 0.0
C163 C 0.81761 0.94432 0.1545 0.0
C164 C 0.92411 0.96371 0.11462 0.0
C165 C 0.91627 0.99791 0.16762 0.0
C166 C 0.8898 0.98243 0.12246 0.0
N167 N 0.88615 0.99906 0.14874 0.0
C168 C 0.951 0.97943 0.16052 0.0
C169 C 0.95487 0.96222 0.13383 0.0
C170 C 0.86818 0.08509 0.19822 0.0
C171 C 0.75241 0.16951 0.16204 0.0
C172 C 0.79644 0.15297 0.20968 0.0
C173 C 0.7938 0.19131 0.20012 0.0
C174 C 0.77155 0.19958 0.17616 0.0
N175 N 0.77721 0.12362 0.19592 0.0
C176 C 0.75572 0.13151 0.17222 0.0
Co177 Co 0.08301 0.84349 0.64871 0.0
Co178 Co 0.05064 0.78542 0.70256 0.0
O179 O 0.06213 0.79337 0.66205 0.0
C180 C 0.03619 0.81085 0.59985 0.0
O181 O 0.0209 0.78409 0.61616 0.0
C182 C 0.07609 0.70571 0.68068 0.0
O183 O 0.08629 0.7196 0.65589 0.0
O184 O 0.10567 0.79777 0.71204 0.0
O185 O 0.1115 0.85108 0.68523 0.0
H186 H 0.05575 0.82209 0.80594 0.0
H187 H 0.09661 0.77021 0.61524 0.0
O188 O 0.05659 0.83802 0.61066 0.0
H189 H 0.22615 0.82569 0.63209 0.0
H190 H 0.14007 0.93647 0.57742 0.0
H191 H 0.09346 0.92097 0.67572 0.0
H192 H 0.16804 0.85862 0.65046 0.0
H193 H 0.11527 0.87325 0.59389 0.0
O194 O 0.06371 0.72833 0.7002 0.0
H195 H 0.06872 0.8303 0.75483 0.0
H196 H 0.0104 0.72424 0.73666 0.0
H197 H 0.11866 0.98451 0.66022 0.0
H198 H 0.15373 0.73684 0.59603 0.0
H199 H 0.14215 0.99262 0.61073 0.0
H200 H 0.21928 0.76444 0.60442 0.0
O201 O 0.03705 0.87112 0.66503 0.0
H202 H 0.94326 0.72108 0.64693 0.0
H203 H 0.97412 0.81088 0.72551 0.0
H204 H 0.9059 0.79773 0.71362 0.0
H205 H 0.89001 0.75234 0.67413 0.0
H206 H 0.01098 0.73558 0.65924 0.0
H207 H 0.99732 0.71463 0.78764 0.0
H208 H 0.01983 0.7639 0.82266 0.0
O209 O 0.03622 0.84156 0.70734 0.0
C210 C 0.1232 0.82908 0.70525 0.0
C211 C 0.04575 0.80043 0.79089 0.0
C212 C 0.013 0.74011 0.78062 0.0
N213 N 0.04024 0.77786 0.74272 0.0
C214 C 0.05295 0.80495 0.76189 0.0
C215 C 0.02066 0.74563 0.75178 0.0
C216 C 0.02562 0.76777 0.80025 0.0
C217 C 0.12468 0.78295 0.61869 0.0
N218 N 0.12853 0.81685 0.63366 0.0
C219 C 0.15713 0.76366 0.60788 0.0
C220 C 0.19388 0.7791 0.61265 0.0
C221 C 0.19775 0.81343 0.62817 0.0
C222 C 0.16464 0.83191 0.6386 0.0
C223 C 0.1299 0.93332 0.59903 0.0
C224 C 0.10373 0.92416 0.65418 0.0
C225 C 0.1156 0.89761 0.60846 0.0
N226 N 0.10289 0.89332 0.63579 0.0
C227 C 0.11793 0.96027 0.64551 0.0
C228 C 0.13108 0.9648 0.61774 0.0
C229 C 0.027 0.86982 0.69116 0.0
C230 C 0.94978 0.74084 0.66424 0.0
C231 C 0.9676 0.79141 0.70814 0.0
C232 C 0.92882 0.78391 0.70159 0.0
C233 C 0.91993 0.75843 0.67947 0.0
N234 N 0.99682 0.774 0.69316 0.0
C235 C 0.98822 0.74905 0.67141 0.0
Co236 Co 0.2846 0.0435 0.86094 0.0
Co237 Co 0.343 0.07062 0.80482 0.0
O238 O 0.3343 0.06273 0.84583 0.0
C239 C 0.31463 0.10105 0.90421 0.0
O240 O 0.34035 0.11451 0.8863 0.0
C241 C 0.42038 0.04286 0.82859 0.0
O242 O 0.4059 0.03715 0.85395 0.0
O243 O 0.32823 0.01555 0.79715 0.0
O244 O 0.27862 0.00776 0.8276 0.0
H245 H 0.30683 0.06241 0.70143 0.0
H246 H 0.35701 0.03845 0.89606 0.0
O247 O 0.28887 0.07708 0.89587 0.0
H248 H 0.30429 0.9054 0.89348 0.0
H249 H 0.19151 0.99948 0.93684 0.0
H250 H 0.2082 0.02687 0.83478 0.0
H251 H 0.27085 0.95866 0.86852 0.0
H252 H 0.25459 0.02133 0.91838 0.0
O253 O 0.39896 0.0545 0.80819 0.0
H254 H 0.29708 0.05369 0.75286 0.0
H255 H 0.40729 0.10362 0.76981 0.0
H256 H 0.1447 0.00459 0.85233 0.0
H257 H 0.39088 0.98641 0.92171 0.0
H258 H 0.13603 0.99076 0.90371 0.0
H259 H 0.36469 0.91912 0.9205 0.0
O260 O 0.25628 0.08579 0.84056 0.0
H261 H 0.41319 0.17976 0.85506 0.0
H262 H 0.32041 0.14644 0.77912 0.0
H263 H 0.33689 0.21508 0.78777 0.0
H264 H 0.3838 0.2322 0.82589 0.0
H265 H 0.3953 0.11167 0.8461 0.0
H266 H 0.41841 0.11259 0.71853 0.0
H267 H 0.36792 0.09206 0.68393 0.0
O268 O 0.28797 0.0872 0.79912 0.0
C269 C 0.29934 0.99651 0.80672 0.0
C270 C 0.32911 0.07139 0.71628 0.0
C271 C 0.39173 0.09952 0.72588 0.0
N272 N 0.35162 0.07783 0.76437 0.0
C273 C 0.32376 0.06645 0.74544 0.0
C274 C 0.38533 0.09416 0.75491 0.0
C275 C 0.36338 0.08803 0.70648 0.0
C276 C 0.34504 0.00956 0.89555 0.0
N277 N 0.31178 1.0019 0.88077 0.0
C278 C 0.36454 0.98003 0.91007 0.0
C279 C 0.34987 0.9423 0.90936 0.0
C280 C 0.31603 0.93458 0.89419 0.0
C281 C 0.29732 0.96488 0.87996 0.0
C282 C 0.19492 0.00538 0.9144 0.0
C283 C 0.20474 0.02068 0.85714 0.0
C284 C 0.23055 0.01794 0.90382 0.0
N285 N 0.23517 0.02525 0.87546 0.0
C286 C 0.16868 0.00818 0.86697 0.0
C287 C 0.16382 1.00047 0.8958 0.0
C288 C 0.25888 0.09577 0.81452 0.0
C289 C 0.39281 0.17268 0.83832 0.0
C290 C 0.34053 0.1535 0.79595 0.0
C291 C 0.34992 0.19251 0.80065 0.0
C292 C 0.37626 0.20209 0.82199 0.0
N293 N 0.3569 0.12469 0.81202 0.0
C294 C 0.38272 0.13398 0.833 0.0
Co295 Co 0.07691 0.28002 0.35706 0.0
Co296 Co 0.05352 0.35374 0.31186 0.0
O297 O 0.05906 0.33371 0.35077 0.0
C298 C 0.02129 0.29949 0.40382 0.0
O299 O 0.00278 0.32382 0.38723 0.0
C300 C 0.07877 0.42243 0.34784 0.0
O301 O 0.09071 0.39934 0.36817 0.0
O302 O 0.10959 0.34325 0.3054 0.0
O303 O 0.1097 0.28212 0.32204 0.0
H304 H 0.07506 0.35055 0.20627 0.0
H305 H 0.0877 0.33926 0.40304 0.0
O306 O 0.04638 0.27636 0.39339 0.0
H307 H 0.21787 0.286 0.38485 0.0
H308 H 0.12154 0.16531 0.41516 0.0
H309 H 0.08837 0.21186 0.31912 0.0
H310 H 0.16162 0.26262 0.35746 0.0
H311 H 0.10124 0.23326 0.40762 0.0
O312 O 0.06554 0.40842 0.32468 0.0
H313 H 0.07954 0.32592 0.25531 0.0
H314 H 0.01845 0.42481 0.28581 0.0
H315 H 0.10892 0.14381 0.32571 0.0
H316 H 0.14286 0.36269 0.43139 0.0
H317 H 0.12563 0.12008 0.37402 0.0
H318 H 0.20869 0.33617 0.42233 0.0
O319 O 0.03224 0.26041 0.33397 0.0
H320 H 0.93859 0.40494 0.36615 0.0
H321 H 0.981 0.33531 0.27994 0.0
H322 H 0.91137 0.34674 0.28783 0.0
H323 H 0.88971 0.38197 0.33113 0.0
H324 H 0.00781 0.39225 0.35773 0.0
H325 H 0.01368 0.45076 0.23717 0.0
H326 H 0.04195 0.41346 0.19695 0.0
O327 O 0.04043 0.30036 0.29697 0.0
C328 C 0.12521 0.30981 0.30813 0.0
C329 C 0.06253 0.36703 0.2236 0.0
C330 C 0.02813 0.42328 0.24095 0.0
N331 N 0.04913 0.37371 0.27342 0.0
C332 C 0.06491 0.35315 0.25142 0.0
C333 C 0.03103 0.40847 0.26848 0.0
C334 C 0.04398 0.40234 0.21839 0.0
C335 C 0.11594 0.32702 0.39921 0.0
N336 N 0.12106 0.29918 0.3788 0.0
C337 C 0.14724 0.34066 0.41523 0.0
C338 C 0.18415 0.32583 0.41011 0.0
C339 C 0.18932 0.29771 0.38909 0.0
C340 C 0.1573 0.28468 0.37357 0.0
C341 C 0.11428 0.17529 0.39401 0.0
C342 C 0.09567 0.20186 0.34021 0.0
C343 C 0.10259 0.21372 0.38961 0.0
N344 N 0.09356 0.22661 0.36293 0.0
C345 C 0.10725 0.16324 0.34381 0.0
C346 C 0.1166 0.14994 0.37092 0.0
C347 C 0.02765 0.26878 0.30773 0.0
C348 C 0.94765 0.38966 0.34716 0.0
C349 C 0.97189 0.35035 0.29898 0.0
C350 C 0.93237 0.35689 0.30326 0.0
C351 C 0.92025 0.3767 0.32753 0.0
N352 N 0.99866 0.36318 0.31832 0.0
C353 C 0.98692 0.38258 0.34217 0.0
Co354 Co 0.84447 0.10899 0.84383 0.0
Co355 Co 0.78297 0.05401 0.80342 0.0
O356 O 0.79657 0.0777 0.84041 0.0
C357 C 0.83599 0.06952 0.90152 0.0
O358 O 0.8152 0.04077 0.89126 0.0
C359 C 0.70391 0.07385 0.82949 0.0
O360 O 0.71813 0.089 0.85291 0.0
O361 O 0.78312 0.1065 0.78561 0.0
O362 O 0.83962 0.1269 0.80365 0.0
H363 H 0.79683 0.03553 0.69793 0.0
H364 H 0.77903 0.12054 0.88399 0.0
O365 O 0.85095 0.09471 0.88501 0.0
H366 H 0.80472 0.25012 0.84358 0.0
H367 H 0.93985 0.19971 0.8914 0.0
H368 H 0.91224 0.12085 0.80615 0.0
H369 H 0.84353 0.19342 0.82881 0.0
H370 H 0.87917 0.16236 0.8876 0.0
O371 O 0.72602 0.05995 0.81036 0.0
H372 H 0.8134 0.06286 0.74487 0.0
H373 H 0.7236 0.99691 0.7832 0.0
H374 H 0.97297 0.15821 0.80883 0.0
H375 H 0.7397 0.17648 0.89951 0.0
H376 H 0.98722 0.19796 0.85174 0.0
H377 H 0.75242 0.24191 0.87928 0.0
O378 O 0.87594 0.06319 0.83099 0.0
H379 H 0.75016 0.95607 0.87908 0.0
H380 H 0.81759 0.97726 0.78819 0.0
H381 H 0.81936 0.91244 0.8103 0.0
H382 H 0.78526 0.90138 0.85601 0.0
H383 H 0.74977 0.02057 0.85651 0.0
H384 H 0.70584 0.96913 0.73663 0.0
H385 H 0.74265 0.98832 0.69358 0.0
O386 O 0.83892 0.04692 0.79368 0.0
C387 C 0.81144 0.13016 0.78636 0.0
C388 C 0.78062 0.02688 0.71654 0.0
C389 C 0.72953 0.98965 0.73825 0.0
N390 N 0.76964 0.03144 0.7668 0.0
C391 C 0.78992 0.04223 0.7432 0.0
C392 C 0.73967 0.00557 0.76457 0.0
C393 C 0.7502 1.00042 0.71411 0.0
C394 C 0.78492 0.14887 0.87517 0.0
N395 N 0.81376 0.15362 0.85564 0.0
C396 C 0.76247 0.18047 0.884 0.0
C397 C 0.7696 0.21716 0.87263 0.0
C398 C 0.79893 0.22179 0.85262 0.0
C399 C 0.82078 0.18952 0.8443 0.0
C400 C 0.93405 0.18236 0.87264 0.0
C401 C 0.9181 0.13802 0.8249 0.0
C402 C 0.89981 0.16088 0.87047 0.0
N403 N 0.89212 0.13907 0.8468 0.0
C404 C 0.95261 0.15914 0.8263 0.0
C405 C 0.9606 0.18143 0.85037 0.0
C406 C 0.87095 0.04611 0.80712 0.0
C407 C 0.76491 0.96044 0.85907 0.0
C408 C 0.80276 0.97283 0.80813 0.0
C409 C 0.80381 0.93597 0.82052 0.0
C410 C 0.78467 0.92979 0.84615 0.0
N411 N 0.78313 1.00276 0.82085 0.0
C412 C 0.76454 0.99693 0.84606 0.0
Co413 Co 0.05566 0.83944 0.35734 0.0
Co414 Co 0.05813 0.76759 0.30763 0.0
O415 O 0.06309 0.78433 0.34745 0.0
C416 C 0.11188 0.80639 0.3997 0.0
O417 O 0.12092 0.77768 0.38256 0.0
C418 C 0.02435 0.70275 0.34241 0.0
O419 O 0.01165 0.72784 0.36124 0.0
O420 O 0.00372 0.78719 0.30749 0.0
O421 O 0.01706 0.84577 0.32587 0.0
H422 H 0.01754 0.78413 0.20578 0.0
H423 H 0.04182 0.77692 0.40045 0.0
O424 O 0.09265 0.83534 0.39038 0.0
H425 H 0.92248 0.85547 0.39961 0.0
H426 H 0.04037 0.95453 0.42305 0.0
H427 H 0.04979 0.91172 0.32323 0.0
H428 H 0.97637 0.87124 0.36747 0.0
H429 H 0.04795 0.88505 0.41133 0.0
O430 O 0.04064 0.71449 0.31978 0.0
H431 H 0.02617 0.80435 0.25568 0.0
H432 H 0.07649 0.69482 0.27542 0.0
H433 H 0.04165 0.98143 0.33401 0.0
H434 H 0.98935 0.76102 0.43358 0.0
H435 H 0.03693 1.00329 0.38424 0.0
H436 H 0.9289 0.8003 0.43329 0.0
O437 O 0.09868 0.85345 0.33089 0.0
H438 H 0.17182 0.69429 0.34786 0.0
H439 H 0.12638 0.77733 0.26928 0.0
H440 H 0.1941 0.75459 0.26982 0.0
H441 H 0.21723 0.71262 0.30926 0.0
H442 H 0.1045 0.71815 0.34673 0.0
H443 H 0.06809 0.67332 0.22579 0.0
H444 H 0.03859 0.71818 0.19053 0.0
O445 O 0.07692 0.81942 0.29359 0.0
C446 C 0.99452 0.82253 0.31258 0.0
C447 C 0.03053 0.76435 0.22092 0.0
C448 C 0.05886 0.70215 0.23216 0.0
N449 N 0.05203 0.75093 0.26844 0.0
C450 C 0.03556 0.77567 0.24921 0.0
C451 C 0.06344 0.71447 0.26026 0.0
C452 C 0.04231 0.72734 0.21239 0.0
C453 C 0.01631 0.79494 0.40064 0.0
N454 N 0.01298 0.82576 0.38251 0.0
C455 C 0.98633 0.78543 0.41925 0.0
C456 C 0.9524 0.80739 0.41902 0.0
C457 C 0.94878 0.8383 0.40012 0.0
C458 C 0.97944 0.84703 0.38189 0.0
C459 C 0.04245 0.94539 0.40108 0.0
C460 C 0.04768 0.92092 0.34514 0.0
C461 C 0.04698 0.90607 0.3943 0.0
N462 N 0.04934 0.89423 0.36659 0.0
C463 C 0.04311 0.96048 0.35111 0.0
C464 C 0.04048 0.97272 0.3793 0.0
C465 C 0.09769 0.84659 0.3042 0.0
C466 C 0.1621 0.71257 0.33056 0.0
C467 C 0.13626 0.75943 0.2867 0.0
C468 C 0.17463 0.74647 0.2868 0.0
C469 C 0.18757 0.72289 0.30891 0.0
N470 N 0.11143 0.74924 0.30805 0.0
C471 C 0.12394 0.72609 0.32976 0.0
H472 H 0.26872 0.05021 0.06547 0.0
H473 H 0.39288 0.04961 0.08026 0.0
H474 H 0.40382 0.0693 0.03046 0.0
H475 H 0.27374 0.01132 0.99263 0.0
H476 H 0.2334 0.04047 0.98083 0.0
H477 H 0.23611 0.02489 0.01729 0.0
H478 H 0.23025 0.09685 0.03352 0.0
H479 H 0.22862 0.11267 0.99707 0.0
H480 H 0.26483 0.13204 0.02086 0.0
H481 H 0.40082 0.09429 0.98007 0.0
H482 H 0.38506 0.10975 0.93015 0.0
H483 H 0.26305 0.09117 0.94769 0.0
C484 C 0.29824 0.05338 0.05803 0.0
C485 C 0.32997 0.04819 0.07668 0.0
C486 C 0.36816 0.05287 0.06625 0.0
C487 C 0.37464 0.06454 0.03809 0.0
C488 C 0.34264 0.07084 0.02056 0.0
C489 C 0.30524 0.06436 0.02988 0.0
C490 C 0.27595 0.07226 0.00658 0.0
C491 C 0.25349 0.03502 0.99888 0.0
C492 C 0.24828 0.10543 0.01502 0.0
C493 C 0.30269 0.0845 0.98274 0.0
C494 C 0.34099 0.0841 0.99136 0.0
C495 C 0.37094 0.09448 0.97303 0.0
C496 C 0.36165 0.10373 0.94479 0.0
C497 C 0.3228 0.10191 0.93507 0.0
C498 C 0.29297 0.09313 0.95457 0.0
H499 H 0.09619 0.26012 0.56172 0.0
H500 H 0.08643 0.38449 0.5762 0.0
H501 H 0.06135 0.39295 0.5275 0.0
H502 H 0.12674 0.26834 0.48626 0.0
H503 H 0.10057 0.22505 0.47624 0.0
H504 H 0.12006 0.22968 0.51162 0.0
H505 H 0.05164 0.21671 0.532 0.0
H506 H 0.0315 0.21348 0.49675 0.0
H507 H 0.01191 0.24785 0.52191 0.0
H508 H 0.03029 0.38688 0.47913 0.0
H509 H 0.00942 0.36907 0.43062 0.0
H510 H 0.04293 0.24929 0.44629 0.0
C511 C 0.0898 0.28926 0.55436 0.0
C512 C 0.09335 0.32163 0.57282 0.0
C513 C 0.08448 0.35928 0.56242 0.0
C514 C 0.06968 0.36433 0.53487 0.0
C515 C 0.06472 0.33158 0.51773 0.0
C516 C 0.07573 0.29495 0.52671 0.0
C517 C 0.06803 0.26468 0.50388 0.0
C518 C 0.10611 0.24583 0.49391 0.0
C519 C 0.03904 0.23387 0.51426 0.0
C520 C 0.05042 0.28993 0.48084 0.0
C521 C 0.0482 0.32833 0.48945 0.0
C522 C 0.03226 0.35696 0.47205 0.0
C523 C 0.01994 0.34644 0.44464 0.0
C524 C 0.0243 0.30773 0.43468 0.0
C525 C 0.03895 0.27905 0.45336 0.0
H526 H 0.82588 0.01858 0.94679 0.0
H527 H 0.84634 0.14005 0.9267 0.0
H528 H 0.84648 0.15639 0.97739 0.0
H529 H 0.76208 0.03617 0.00653 0.0
H530 H 0.78091 0.99665 0.02755 0.0
H531 H 0.78217 0.99381 0.98933 0.0
H532 H 0.85633 0.98213 0.99101 0.0
H533 H 0.85524 0.98478 0.02923 0.0
H534 H 0.88692 0.0164 0.00949 0.0
H535 H 0.8435 0.16063 0.03035 0.0
H536 H 0.84106 0.15106 0.08239 0.0
H537 H 0.82365 0.02719 0.06905 0.0
C538 C 0.83051 0.04854 0.95312 0.0
C539 C 0.8368 0.07785 0.93257 0.0
C540 C 0.84252 0.11678 0.94182 0.0
C541 C 0.84224 0.12654 0.9707 0.0
C542 C 0.83622 0.09713 0.99038 0.0
C543 C 0.83067 0.05886 0.9821 0.0
C544 C 0.82554 0.03293 0.00789 0.0
C545 C 0.78528 0.01376 0.00781 0.0
C546 C 0.85794 1.00225 0.00949 0.0
C547 C 0.82919 0.06264 0.03171 0.0
C548 C 0.83501 0.09955 0.02112 0.0
C549 C 0.83903 0.13182 0.03896 0.0
C550 C 0.83751 0.12615 0.06849 0.0
C551 C 0.83234 0.08846 0.07989 0.0
C552 C 0.82786 0.05643 0.06109 0.0
H553 H 0.10477 0.86055 0.44229 0.0
H554 H 0.11137 0.73614 0.42699 0.0
H555 H 0.08964 0.72393 0.47607 0.0
H556 H 0.13748 0.85691 0.51756 0.0
H557 H 0.10526 0.89579 0.52773 0.0
H558 H 0.12481 0.89416 0.49228 0.0
H559 H 0.05499 0.89676 0.47201 0.0
H560 H 0.03505 0.89707 0.50734 0.0
H561 H 0.02045 0.86009 0.48228 0.0
H562 H 0.05935 0.72539 0.52486 0.0
H563 H 0.03591 0.74006 0.57325 0.0
H564 H 0.05146 0.86343 0.55754 0.0
C565 C 0.10281 0.83073 0.44954 0.0
C566 C 0.1099 0.79932 0.43075 0.0
C567 C 0.10668 0.76072 0.44102 0.0
C568 C 0.09382 0.75347 0.46879 0.0
C569 C 0.08501 0.78511 0.48621 0.0
C570 C 0.0905 0.82298 0.47729 0.0
C571 C 0.07867 0.8518 0.50013 0.0
C572 C 0.11364 0.87609 0.51001 0.0
C573 C 0.04531 0.87797 0.48982 0.0
C574 C 0.06522 0.82424 0.52317 0.0
C575 C 0.06859 0.78592 0.51457 0.0
C576 C 0.057 0.75528 0.53194 0.0
C577 C 0.0432 0.76394 0.55929 0.0
C578 C 0.04165 0.8029 0.56916 0.0
C579 C 0.05212 0.83338 0.55055 0.0
H580 H 0.47746 0.08507 0.14999 0.0
H581 H 0.4577 0.09421 0.24085 0.0
H582 H 0.52747 0.08412 0.2496 0.0
H583 H 0.54631 0.00885 0.15389 0.0
H584 H 0.57647 0.02646 0.12546 0.0
H585 H 0.52545 0.0376 0.12575 0.0
H586 H 0.54067 0.1113 0.12317 0.0
H587 H 0.59173 0.10038 0.12241 0.0
H588 H 0.57269 0.13279 0.14913 0.0
H589 H 0.59816 0.07058 0.24889 0.0
H590 H 0.66681 0.05703 0.2388 0.0
H591 H 0.6416 0.05444 0.14835 0.0
C592 C 0.48798 0.08586 0.17168 0.0
C593 C 0.46219 0.09083 0.19476 0.0
C594 C 0.47695 0.09069 0.22286 0.0
C595 C 0.51651 0.08488 0.22805 0.0
C596 C 0.54096 0.07902 0.20493 0.0
C597 C 0.52744 0.07968 0.17728 0.0
C598 C 0.55987 0.07112 0.1564 0.0
C599 C 0.55151 0.03378 0.13938 0.0
C600 C 0.56664 0.10598 0.13661 0.0
C601 C 0.59364 0.06545 0.17667 0.0
C602 C 0.58195 0.07026 0.20454 0.0
C603 C 0.60771 0.06683 0.22716 0.0
C604 C 0.64666 0.05903 0.22118 0.0
C605 C 0.65962 0.05453 0.19278 0.0
C606 C 0.63254 0.05729 0.17027 0.0
H607 H 0.05345 0.48082 0.63627 0.0
H608 H 0.02313 0.45919 0.72438 0.0
H609 H 0.03161 0.52866 0.73523 0.0
H610 H 0.12684 0.55093 0.64995 0.0
H611 H 0.11501 0.5819 0.62032 0.0
H612 H 0.10476 0.53056 0.61852 0.0
H613 H 0.03258 0.54513 0.60769 0.0
H614 H 0.04273 0.59652 0.60901 0.0
H615 H 0.00554 0.57624 0.63136 0.0
H616 H 0.04668 0.59903 0.73764 0.0
H617 H 0.06132 0.6683 0.73053 0.0
H618 H 0.08108 0.64649 0.64072 0.0
C619 C 0.04788 0.49083 0.65771 0.0
C620 C 0.03763 0.46436 0.67947 0.0
C621 C 0.0311 0.4787 0.70733 0.0
C622 C 0.03593 0.51818 0.71376 0.0
C623 C 0.04714 0.54323 0.69211 0.0
C624 C 0.05255 0.5304 0.66456 0.0
C625 C 0.06487 0.56377 0.64546 0.0
C626 C 0.10527 0.55633 0.63282 0.0
C627 C 0.03462 0.57083 0.622 0.0
C628 C 0.06571 0.59716 0.66668 0.0
C629 C 0.05554 0.58443 0.69346 0.0
C630 C 0.05439 0.60946 0.71672 0.0
C631 C 0.06287 0.64883 0.71244 0.0
C632 C 0.07224 0.66308 0.68504 0.0
C633 C 0.07424 0.6366 0.66195 0.0
H634 H 0.64446 0.07358 0.86927 0.0
H635 H 0.66769 0.06562 0.77874 0.0
H636 H 0.59857 0.05439 0.76945 0.0
H637 H 0.5721 0.99817 0.87079 0.0
H638 H 0.54145 0.02224 0.89636 0.0
H639 H 0.59294 0.03103 0.89654 0.0
H640 H 0.58087 0.10513 0.8917 0.0
H641 H 0.52936 0.09658 0.89187 0.0
H642 H 0.55119 0.12287 0.86293 0.0
H643 H 0.52801 0.04369 0.76921 0.0
H644 H 0.45809 0.03664 0.77813 0.0
H645 H 0.4785 0.04965 0.86875 0.0
C646 C 0.63483 0.06994 0.84752 0.0
C647 C 0.66157 0.0705 0.82475 0.0
C648 C 0.64788 0.06515 0.79657 0.0
C649 C 0.60862 0.0587 0.79102 0.0
C650 C 0.58317 0.05748 0.81384 0.0
C651 C 0.59545 0.0631 0.84153 0.0
C652 C 0.56158 0.05991 0.86198 0.0
C653 C 0.56738 0.02581 0.88264 0.0
C654 C 0.55539 0.09842 0.87806 0.0
C655 C 0.52857 0.05186 0.84137 0.0
C656 C 0.54189 0.05056 0.81373 0.0
C657 C 0.51714 0.04452 0.79076 0.0
C658 C 0.47747 0.04046 0.79605 0.0
C659 C 0.46283 0.0423 0.82412 0.0
C660 C 0.48889 0.04748 0.84711 0.0
H661 H 0.07058 0.48034 0.30849 0.0
H662 H 0.07412 0.45967 0.39937 0.0
H663 H 0.05722 0.52867 0.40808 0.0
H664 H 0.11302 0.57722 0.31135 0.0
H665 H 0.08337 0.59506 0.28263 0.0
H666 H 0.0964 0.54435 0.28402 0.0
H667 H 0.02366 0.52574 0.2817 0.0
H668 H 0.01041 0.57642 0.28076 0.0
H669 H 0.99074 0.54518 0.30784 0.0
H670 H 0.03628 0.59972 0.40653 0.0
H671 H 0.02184 0.66849 0.39503 0.0
H672 H 0.03421 0.6423 0.30526 0.0
C673 C 0.06822 0.4904 0.33025 0.0
C674 C 0.07369 0.46461 0.35327 0.0
C675 C 0.07041 0.47896 0.38141 0.0
C676 C 0.06049 0.51803 0.38656 0.0
C677 C 0.05439 0.54245 0.36334 0.0
C678 C 0.05886 0.52931 0.33576 0.0
C679 C 0.05155 0.5615 0.31451 0.0
C680 C 0.08827 0.57004 0.29711 0.0
C681 C 0.01703 0.5516 0.29506 0.0
C682 C 0.04196 0.59481 0.3344 0.0
C683 C 0.04333 0.58324 0.36248 0.0
C684 C 0.0353 0.60911 0.38461 0.0
C685 C 0.02679 0.64804 0.37787 0.0
C686 C 0.02681 0.66076 0.34927 0.0
C687 C 0.03392 0.63349 0.32734 0.0
H688 H 0.12346 0.26953 0.25945 0.0
H689 H 0.20134 0.32134 0.32084 0.0
H690 H 0.25628 0.28455 0.29991 0.0
H691 H 0.15878 0.17911 0.26387 0.0
H692 H 0.15346 0.16587 0.22697 0.0
H693 H 0.12249 0.20241 0.24217 0.0
H694 H 0.14374 0.25218 0.204 0.0
H695 H 0.17404 0.21541 0.18804 0.0
H696 H 0.1946 0.26149 0.19851 0.0
H697 H 0.29981 0.23311 0.27716 0.0
H698 H 0.32864 0.1763 0.25234 0.0
H699 H 0.22044 0.15935 0.20671 0.0
C700 C 0.15253 0.27484 0.26729 0.0
C701 C 0.15879 0.29922 0.29088 0.0
C702 C 0.19658 0.3038 0.302 0.0
C703 C 0.22775 0.28277 0.2904 0.0
C704 C 0.22036 0.25756 0.26772 0.0
C705 C 0.18369 0.25416 0.25596 0.0
C706 C 0.18198 0.22216 0.23396 0.0
C707 C 0.15245 0.19054 0.24226 0.0
C708 C 0.17308 0.23882 0.20437 0.0
C709 C 0.22303 0.20716 0.23574 0.0
C710 C 0.24499 0.22791 0.2551 0.0
C711 C 0.28307 0.21719 0.26152 0.0
C712 C 0.29913 0.18475 0.24749 0.0
C713 C 0.27698 0.16344 0.22743 0.0
C714 C 0.23851 0.17512 0.22163 0.0
H715 H 0.95918 0.22204 0.68632 0.0
H716 H 0.93042 0.33297 0.72525 0.0
H717 H 0.87032 0.30376 0.74463 0.0
H718 H 0.8592 0.18821 0.67086 0.0
H719 H 0.8716 0.13885 0.68004 0.0
H720 H 0.90767 0.17046 0.66479 0.0
H721 H 0.9535 0.15836 0.70787 0.0
H722 H 0.91804 0.12583 0.72217 0.0
H723 H 0.93525 0.16609 0.74333 0.0
H724 H 0.81847 0.25974 0.7649 0.0
H725 H 0.78612 0.20476 0.78898 0.0
H726 H 0.85138 0.12343 0.73777 0.0
C727 C 0.93997 0.24074 0.69834 0.0
C728 C 0.94947 0.27998 0.70407 0.0
C729 C 0.92365 0.3029 0.72041 0.0
C730 C 0.88932 0.28661 0.73129 0.0
C731 C 0.88125 0.24752 0.72546 0.0
C732 C 0.90616 0.22494 0.70946 0.0
C733 C 0.89453 0.18258 0.70944 0.0
C734 C 0.88253 0.16925 0.6795 0.0
C735 C 0.92725 0.15676 0.72145 0.0
C736 C 0.86004 0.18423 0.72911 0.0
C737 C 0.85195 0.22207 0.73745 0.0
C738 C 0.82398 0.2302 0.75799 0.0
C739 C 0.80553 0.19886 0.77143 0.0
C740 C 0.81575 0.16013 0.7646 0.0
C741 C 0.84193 0.15282 0.74236 0.0
H742 H 0.97102 0.89795 0.31613 0.0
H743 H 0.93696 0.786 0.28119 0.0
H744 H 0.87941 0.81715 0.2592 0.0
H745 H 0.87353 0.93732 0.32927 0.0
H746 H 0.88803 0.98551 0.31864 0.0
H747 H 0.92275 0.95321 0.33487 0.0
H748 H 0.96857 0.96134 0.29168 0.0
H749 H 0.93431 0.99392 0.27558 0.0
H750 H 0.95042 0.95139 0.25645 0.0
H751 H 0.82977 0.86267 0.23674 0.0
H752 H 0.79663 0.91805 0.2133 0.0
H753 H 0.86545 0.99884 0.26266 0.0
C754 C 0.95121 0.87952 0.30438 0.0
C755 C 0.95847 0.83935 0.30058 0.0
C756 C 0.93192 0.81677 0.28456 0.0
C757 C 0.89907 0.8342 0.27213 0.0
C758 C 0.89319 0.8741 0.27611 0.0
C759 C 0.91875 0.89636 0.29184 0.0
C760 C 0.90887 0.93916 0.2906 0.0
C761 C 0.89762 0.9547 0.32011 0.0
C762 C 0.94252 0.96281 0.2778 0.0
C763 C 0.87429 0.93792 0.27093 0.0
C764 C 0.86506 0.90013 0.26319 0.0
C765 C 0.83621 0.89223 0.24317 0.0
C766 C 0.81739 0.92374 0.23009 0.0
C767 C 0.82778 0.9624 0.237 0.0
C768 C 0.85585 0.96949 0.25807 0.0
H769 H 0.16617 0.89401 0.6952 0.0
H770 H 0.15571 0.79713 0.75375 0.0
H771 H 0.20884 0.82518 0.78285 0.0
H772 H 0.27219 0.90707 0.70064 0.0
H773 H 0.26772 0.95925 0.69852 0.0
H774 H 0.23312 0.92849 0.68055 0.0
H775 H 0.17693 0.96305 0.70699 0.0
H776 H 0.2112 0.99389 0.72492 0.0
H777 H 0.17756 0.96518 0.74528 0.0
H778 H 0.2575 0.86834 0.80818 0.0
H779 H 0.29467 0.92334 0.82837 0.0
H780 H 0.27213 0.99093 0.75269 0.0
C781 C 0.17543 0.87791 0.71373 0.0
C782 C 0.15684 0.84307 0.72203 0.0
C783 C 0.16968 0.82367 0.74682 0.0
C784 C 0.19992 0.83932 0.76339 0.0
C785 C 0.21717 0.87407 0.75464 0.0
C786 C 0.20534 0.89297 0.73029 0.0
C787 C 0.22551 0.9317 0.72668 0.0
C788 C 0.25117 0.9316 0.70001 0.0
C789 C 0.19605 0.96541 0.72595 0.0
C790 C 0.24972 0.93254 0.75344 0.0
C791 C 0.24504 0.8988 0.7691 0.0
C792 C 0.26182 0.89452 0.79586 0.0
C793 C 0.2827 0.92594 0.80722 0.0
C794 C 0.28644 0.96111 0.79192 0.0
C795 C 0.27077 0.96395 0.76439 0.0
H796 H 0.90739 0.97594 0.81446 0.0
H797 H 0.90452 0.07867 0.76157 0.0
H798 H 0.94665 0.04615 0.72631 0.0
H799 H 0.00957 0.94597 0.79708 0.0
H800 H 0.99689 0.89509 0.79721 0.0
H801 H 0.97141 0.92872 0.81993 0.0
H802 H 0.90635 0.90609 0.7978 0.0
H803 H 0.93166 0.87308 0.77458 0.0
H804 H 0.89953 0.90922 0.7599 0.0
H805 H 0.98223 0.99903 0.69389 0.0
H806 H 0.01367 0.94341 0.66943 0.0
H807 H 0.99408 0.87211 0.74409 0.0
C808 C 0.91731 0.99208 0.79613 0.0
C809 C 0.90407 0.03027 0.79112 0.0
C810 C 0.91565 0.04987 0.76612 0.0
C811 C 0.93923 0.03147 0.74587 0.0
C812 C 0.95095 0.9933 0.7509 0.0
C813 C 0.94096 0.97403 0.77566 0.0
C814 C 0.95518 0.93231 0.77501 0.0
C815 C 0.98504 0.92511 0.79871 0.0
C816 C 0.92115 0.9035 0.77693 0.0
C817 C 0.97397 0.93099 0.74592 0.0
C818 C 0.97124 0.96634 0.73225 0.0
C819 C 0.98501 0.97133 0.70458 0.0
C820 C 0.00259 0.9395 0.69075 0.0
C821 C 0.00638 0.90318 0.70464 0.0
C822 C 0.99173 0.89926 0.73263 0.0
H823 H 0.25019 0.00704 0.25215 0.0
H824 H 0.20953 0.98543 0.16612 0.0
H825 H 0.16235 0.93778 0.18469 0.0
H826 H 0.24395 0.90946 0.27678 0.0
H827 H 0.22764 0.9226 0.31188 0.0
H828 H 0.25746 0.95573 0.29196 0.0
H829 H 0.20553 0.0096 0.29757 0.0
H830 H 0.17548 0.97672 0.31755 0.0
H831 H 0.15643 1.00022 0.28631 0.0
H832 H 0.1217 0.89091 0.21225 0.0
H833 H 0.08823 0.84939 0.24669 0.0
H834 H 0.15403 0.90228 0.31548 0.0
C835 C 0.23133 0.99246 0.23712 0.0
C836 C 0.23373 0.99999 0.20756 0.0
C837 C 0.20831 0.98023 0.18879 0.0
C838 C 0.18143 0.9531 0.19915 0.0
C839 C 0.18015 0.94623 0.22835 0.0
C840 C 0.20423 0.96551 0.24709 0.0
C841 C 0.19711 0.95264 0.27748 0.0
C842 C 0.23372 0.934 0.29027 0.0
C843 C 0.18278 0.98683 0.2958 0.0
C844 C 0.16539 0.92275 0.27291 0.0
C845 C 0.15618 0.91955 0.24437 0.0
C846 C 0.12851 0.89333 0.23464 0.0
C847 C 0.1097 0.86974 0.2545 0.0
C848 C 0.11835 0.87245 0.28397 0.0
C849 C 0.14655 0.89957 0.29321 0.0
H850 H 0.15651 0.2203 0.69137 0.0
H851 H 0.05966 0.23531 0.74906 0.0
H852 H 0.09115 0.19222 0.78376 0.0
H853 H 0.17705 0.11693 0.70995 0.0
H854 H 0.22878 0.12347 0.70763 0.0
H855 H 0.19689 0.15233 0.6858 0.0
H856 H 0.22825 0.21515 0.7059 0.0
H857 H 0.25988 0.1865 0.72799 0.0
H858 H 0.22917 0.22304 0.74378 0.0
H859 H 0.13513 0.15225 0.81422 0.0
H860 H 0.18809 0.11559 0.83736 0.0
H861 H 0.25659 0.12571 0.76034 0.0
C862 C 0.1416 0.21361 0.71098 0.0
C863 C 0.10559 0.23111 0.71745 0.0
C864 C 0.08733 0.22237 0.74366 0.0
C865 C 0.10493 0.19783 0.76355 0.0
C866 C 0.14092 0.182 0.75703 0.0
C867 C 0.159 0.18916 0.73132 0.0
C868 C 0.19864 0.17002 0.73052 0.0
C869 C 0.20043 0.13883 0.70708 0.0
C870 C 0.23088 0.2005 0.72684 0.0
C871 C 0.20008 0.15177 0.75987 0.0
C872 C 0.16643 0.15887 0.77476 0.0
C873 C 0.16155 0.14615 0.80268 0.0
C874 C 0.19187 0.12548 0.81571 0.0
C875 C 0.2267 0.11774 0.80086 0.0
C876 C 0.23049 0.13102 0.77246 0.0
H877 H 0.97288 0.21175 0.31837 0.0
H878 H 0.04456 0.26039 0.25165 0.0
H879 H 0.0157 0.21506 0.21702 0.0
H880 H 0.9735 0.11057 0.29229 0.0
H881 H 0.92348 0.10242 0.3015 0.0
H882 H 0.95225 0.13631 0.32182 0.0
H883 H 0.90162 0.19055 0.31223 0.0
H884 H 0.87278 0.15675 0.29199 0.0
H885 H 0.8883 0.20177 0.2761 0.0
H886 H 0.97651 0.16644 0.18865 0.0
H887 H 0.92773 0.1207 0.16901 0.0
H888 H 0.88096 0.10481 0.25377 0.0
C889 C 0.98283 0.21241 0.29657 0.0
C890 C 0.01097 0.23968 0.28778 0.0
C891 C 0.02282 0.24001 0.25891 0.0
C892 C 0.00678 0.21416 0.23904 0.0
C893 C 0.97867 0.18807 0.2482 0.0
C894 C 0.96667 0.18704 0.27626 0.0
C895 C 0.93418 0.15786 0.28009 0.0
C896 C 0.94661 0.12483 0.30011 0.0
C897 C 0.89703 0.17795 0.29072 0.0
C898 C 0.92948 0.14328 0.24983 0.0
C899 C 0.95569 0.16062 0.23177 0.0
C900 C 0.95597 0.15246 0.20265 0.0
C901 C 0.92825 0.12637 0.19166 0.0
C902 C 0.90041 0.10914 0.20972 0.0
C903 C 0.90171 0.11743 0.23925 0.0
loop_
_geom_bond_atom_site_label_1
_geom_bond_atom_site_label_2
_geom_bond_distance
_geom_bond_site_symmetry_2
_ccdc_geom_bond_type
Co0 O2 2.143 . S
Co0 O8 2.074 . S
Co0 O11 2.093 . S
Co0 O24 2.097 . S
Co0 N41 2.151 . S
Co0 N49 2.214 . S
Co1 O2 2.160 . S
Co1 O7 2.058 . S
Co1 O17 2.057 . S
Co1 O32 2.037 . S
Co1 N36 2.145 . S
Co1 N57 2.257 . S
O2 Co0 2.143 . S
O2 Co1 2.160 . S
C3 O4 1.278 . S
C3 O11 1.224 . S
O4 C3 1.278 . S
C5 O6 1.245 . S
C5 O17 1.232 . S
O6 C5 1.245 . S
O7 Co1 2.058 . S
O7 C33 1.269 . S
O8 Co0 2.074 . S
O8 C33 1.257 . S
H9 C34 0.930 . S
H10 C40 0.930 . S
O11 Co0 2.093 . S
O11 C3 1.224 . S
H12 C44 0.929 . S
H13 C46 0.930 . S
H14 C47 0.930 . S
H15 C45 0.929 . S
H16 C48 0.928 . S
O17 Co1 2.057 . S
O17 C5 1.232 . S
H18 C37 0.929 . S
H19 C38 0.929 . S
H20 C50 0.931 . S
H21 C42 0.929 . S
H22 C51 0.930 . S
H23 C43 0.931 . S
O24 Co0 2.097 . S
O24 C52 1.214 . S
H25 C53 0.929 . S
H26 C54 0.929 . S
H27 C55 0.930 . S
H28 C56 0.929 . S
H29 C58 0.930 . S
H30 C35 0.930 . S
H31 C39 0.931 . S
O32 Co1 2.037 . S
O32 C52 1.234 . S
C33 O7 1.269 . S
C33 O8 1.257 . S
C34 H9 0.930 . S
C34 C37 1.388 . S
C34 C39 1.418 . S
C35 H30 0.930 . S
C35 C38 1.404 . S
C35 C39 1.353 . S
N36 Co1 2.145 . S
N36 C37 1.397 . S
N36 C38 1.334 . S
C37 H18 0.929 . S
C37 C34 1.388 . S
C37 N36 1.397 . S
C38 H19 0.929 . S
C38 C35 1.404 . S
C38 N36 1.334 . S
C39 H31 0.931 . S
C39 C34 1.418 . S
C39 C35 1.353 . S
C40 H10 0.930 . S
C40 N41 1.330 . S
C40 C42 1.446 . S
N41 Co0 2.151 . S
N41 C40 1.330 . S
N41 C45 1.418 . S
C42 H21 0.929 . S
C42 C40 1.446 . S
C42 C43 1.332 . S
C43 H23 0.931 . S
C43 C42 1.332 . S
C43 C44 1.267 . S
C44 H12 0.929 . S
C44 C43 1.267 . S
C44 C45 1.251 . S
C45 H15 0.929 . S
C45 N41 1.418 . S
C45 C44 1.251 . S
C46 H13 0.930 . S
C46 C48 1.406 . S
C46 C51 1.261 . S
C47 H14 0.930 . S
C47 N49 1.325 . S
C47 C50 1.357 . S
C48 H16 0.928 . S
C48 C46 1.406 . S
C48 N49 1.261 . S
N49 Co0 2.214 . S
N49 C47 1.325 . S
N49 C48 1.261 . S
C50 H20 0.931 . S
C50 C47 1.357 . S
C50 C51 1.312 . S
C51 H22 0.930 . S
C51 C46 1.261 . S
C51 C50 1.312 . S
C52 O24 1.214 . S
C52 O32 1.234 . S
C53 H25 0.929 . S
C53 C56 1.391 . S
C53 C58 1.391 1_565 S
C54 H26 0.929 . S
C54 C55 1.390 . S
C54 N57 1.391 1_565 S
C55 H27 0.930 . S
C55 C54 1.390 . S
C55 C56 1.392 . S
C56 H28 0.929 . S
C56 C53 1.391 . S
C56 C55 1.392 . S
N57 Co1 2.257 . S
N57 C54 1.391 1_545 S
N57 C58 1.388 . S
C58 H29 0.930 . S
C58 C53 1.391 1_545 S
C58 N57 1.388 . S
Co59 O61 2.143 . S
Co59 O67 2.074 1_455 S
Co59 O70 2.093 . S
Co59 O83 2.097 . S
Co59 N100 2.151 1_455 S
Co59 N108 2.214 . S
Co60 O61 2.160 . S
Co60 O66 2.058 . S
Co60 O76 2.057 . S
Co60 O91 2.037 . S
Co60 N95 2.145 . S
Co60 N116 2.257 . S
O61 Co59 2.143 . S
O61 Co60 2.160 . S
C62 O63 1.278 . S
C62 O70 1.224 . S
O63 C62 1.278 . S
C64 O65 1.245 . S
C64 O76 1.232 . S
O65 C64 1.245 . S
O66 Co60 2.058 . S
O66 C92 1.269 1_455 S
O67 Co59 2.074 1_655 S
O67 C92 1.257 . S
H68 C93 0.930 . S
H69 C99 0.930 . S
O70 Co59 2.093 . S
O70 C62 1.224 . S
H71 C103 0.929 . S
H72 C105 0.930 . S
H73 C106 0.930 . S
H74 C104 0.929 . S
H75 C107 0.928 . S
O76 Co60 2.057 . S
O76 C64 1.232 . S
H77 C96 0.929 . S
H78 C97 0.929 . S
H79 C109 0.931 1_455 S
H80 C101 0.929 . S
H81 C110 0.930 . S
H82 C102 0.931 . S
O83 Co59 2.097 . S
O83 C111 1.214 . S
H84 C112 0.929 . S
H85 C113 0.929 . S
H86 C114 0.930 . S
H87 C115 0.929 . S
H88 C117 0.930 . S
H89 C94 0.930 . S
H90 C98 0.930 . S
O91 Co60 2.037 . S
O91 C111 1.234 . S
C92 O66 1.269 1_655 S
C92 O67 1.257 . S
C93 H68 0.930 . S
C93 C96 1.388 . S
C93 C98 1.418 . S
C94 H89 0.930 . S
C94 C97 1.404 . S
C94 C98 1.353 . S
N95 Co60 2.145 . S
N95 C96 1.397 . S
N95 C97 1.334 . S
C96 H77 0.929 . S
C96 C93 1.388 . S
C96 N95 1.397 . S
C97 H78 0.929 . S
C97 C94 1.404 . S
C97 N95 1.334 . S
C98 H90 0.930 . S
C98 C93 1.418 . S
C98 C94 1.353 . S
C99 H69 0.930 . S
C99 N100 1.330 . S
C99 C101 1.446 . S
N100 Co59 2.151 1_655 S
N100 C99 1.330 . S
N100 C104 1.418 . S
C101 H80 0.929 . S
C101 C99 1.446 . S
C101 C102 1.332 . S
C102 H82 0.931 . S
C102 C101 1.332 . S
C102 C103 1.267 . S
C103 H71 0.929 . S
C103 C102 1.267 . S
C103 C104 1.251 . S
C104 H74 0.929 . S
C104 N100 1.418 . S
C104 C103 1.251 . S
C105 H72 0.930 . S
C105 C107 1.406 . S
C105 C110 1.261 . S
C106 H73 0.930 . S
C106 N108 1.325 . S
C106 C109 1.357 1_455 S
C107 H75 0.928 . S
C107 C105 1.406 . S
C107 N108 1.261 1_655 S
N108 Co59 2.214 . S
N108 C106 1.325 . S
N108 C107 1.261 1_455 S
C109 H79 0.931 1_655 S
C109 C106 1.357 1_655 S
C109 C110 1.312 . S
C110 H81 0.930 . S
C110 C105 1.261 . S
C110 C109 1.312 . S
C111 O83 1.214 . S
C111 O91 1.234 . S
C112 H84 0.929 . S
C112 C115 1.391 . S
C112 C117 1.391 . S
C113 H85 0.929 . S
C113 C114 1.390 . S
C113 N116 1.391 . S
C114 H86 0.930 . S
C114 C113 1.390 . S
C114 C115 1.392 . S
C115 H87 0.929 . S
C115 C112 1.391 . S
C115 C114 1.392 . S
N116 Co60 2.257 . S
N116 C113 1.391 . S
N116 C117 1.388 . S
C117 H88 0.930 . S
C117 C112 1.391 . S
C117 N116 1.388 . S
Co118 O120 2.143 . S
Co118 O126 2.074 1_545 S
Co118 O129 2.093 . S
Co118 O142 2.097 . S
Co118 N159 2.151 1_545 S
Co118 N167 2.214 . S
Co119 O120 2.160 . S
Co119 O125 2.058 . S
Co119 O135 2.057 . S
Co119 O150 2.037 . S
Co119 N154 2.145 . S
Co119 N175 2.257 . S
O120 Co118 2.143 . S
O120 Co119 2.160 . S
C121 O122 1.278 . S
C121 O129 1.224 . S
O122 C121 1.278 . S
C123 O124 1.245 . S
C123 O135 1.232 . S
O124 C123 1.245 . S
O125 Co119 2.058 . S
O125 C151 1.269 1_545 S
O126 Co118 2.074 1_565 S
O126 C151 1.257 . S
H127 C152 0.930 . S
H128 C158 0.930 . S
O129 Co118 2.093 . S
O129 C121 1.224 . S
H130 C162 0.929 . S
H131 C164 0.930 . S
H132 C165 0.930 . S
H133 C163 0.929 . S
H134 C166 0.928 . S
O135 Co119 2.057 . S
O135 C123 1.232 . S
H136 C155 0.929 . S
H137 C156 0.929 . S
H138 C168 0.931 1_545 S
H139 C160 0.929 . S
H140 C169 0.930 1_455 S
H141 C161 0.931 . S
O142 Co118 2.097 . S
O142 C170 1.214 . S
H143 C171 0.929 . S
H144 C172 0.929 . S
H145 C173 0.930 . S
H146 C174 0.929 . S
H147 C176 0.930 . S
H148 C153 0.930 . S
H149 C157 0.930 . S
O150 Co119 2.037 . S
O150 C170 1.234 . S
C151 O125 1.269 1_565 S
C151 O126 1.257 . S
C152 H127 0.930 . S
C152 C155 1.388 . S
C152 C157 1.418 . S
C153 H148 0.930 . S
C153 C156 1.404 . S
C153 C157 1.353 . S
N154 Co119 2.145 . S
N154 C155 1.397 . S
N154 C156 1.334 . S
C155 H136 0.929 . S
C155 C152 1.388 . S
C155 N154 1.397 . S
C156 H137 0.929 . S
C156 C153 1.404 . S
C156 N154 1.334 . S
C157 H149 0.930 . S
C157 C152 1.418 . S
C157 C153 1.353 . S
C158 H128 0.930 . S
C158 N159 1.330 . S
C158 C160 1.446 . S
N159 Co118 2.151 1_565 S
N159 C158 1.330 . S
N159 C163 1.418 . S
C160 H139 0.929 . S
C160 C158 1.446 . S
C160 C161 1.332 . S
C161 H141 0.931 . S
C161 C160 1.332 . S
C161 C162 1.267 . S
C162 H130 0.929 . S
C162 C161 1.267 . S
C162 C163 1.251 . S
C163 H133 0.929 . S
C163 N159 1.418 . S
C163 C162 1.251 . S
C164 H131 0.930 . S
C164 C166 1.406 . S
C164 C169 1.261 . S
C165 H132 0.930 . S
C165 N167 1.325 . S
C165 C168 1.357 1_545 S
C166 H134 0.928 . S
C166 C164 1.406 . S
C166 N167 1.261 1_565 S
N167 Co118 2.214 . S
N167 C165 1.325 . S
N167 C166 1.261 1_545 S
C168 H138 0.931 1_565 S
C168 C165 1.357 1_565 S
C168 C169 1.312 . S
C169 H140 0.930 1_655 S
C169 C164 1.261 . S
C169 C168 1.312 . S
C170 O142 1.214 . S
C170 O150 1.234 . S
C171 H143 0.929 . S
C171 C174 1.391 . S
C171 C176 1.391 . S
C172 H144 0.929 . S
C172 C173 1.390 . S
C172 N175 1.391 . S
C173 H145 0.930 . S
C173 C172 1.390 . S
C173 C174 1.392 . S
C174 H146 0.929 . S
C174 C171 1.391 . S
C174 C173 1.392 . S
N175 Co119 2.257 . S
N175 C172 1.391 . S
N175 C176 1.388 . S
C176 H147 0.930 . S
C176 C171 1.391 . S
C176 N175 1.388 . S
Co177 O179 2.143 . S
Co177 O185 2.074 . S
Co177 O188 2.093 . S
Co177 O201 2.097 . S
Co177 N218 2.151 . S
Co177 N226 2.214 . S
Co178 O179 2.160 . S
Co178 O184 2.058 . S
Co178 O194 2.057 . S
Co178 O209 2.037 . S
Co178 N213 2.145 . S
Co178 N234 2.257 . S
O179 Co177 2.143 . S
O179 Co178 2.160 . S
C180 O181 1.278 . S
C180 O188 1.224 . S
O181 C180 1.278 . S
C182 O183 1.245 . S
C182 O194 1.232 . S
O183 C182 1.245 . S
O184 Co178 2.058 . S
O184 C210 1.269 . S
O185 Co177 2.074 . S
O185 C210 1.257 . S
H186 C211 0.930 . S
H187 C217 0.930 . S
O188 Co177 2.093 . S
O188 C180 1.224 . S
H189 C221 0.929 . S
H190 C223 0.930 . S
H191 C224 0.930 . S
H192 C222 0.929 . S
H193 C225 0.928 . S
O194 Co178 2.057 . S
O194 C182 1.232 . S
H195 C214 0.929 . S
H196 C215 0.929 . S
H197 C227 0.931 . S
H198 C219 0.929 . S
H199 C228 0.930 1_545 S
H200 C220 0.931 . S
O201 Co177 2.097 . S
O201 C229 1.214 . S
H202 C230 0.929 . S
H203 C231 0.929 . S
H204 C232 0.930 . S
H205 C233 0.929 . S
H206 C235 0.930 . S
H207 C212 0.930 . S
H208 C216 0.931 . S
O209 Co178 2.037 . S
O209 C229 1.234 . S
C210 O184 1.269 . S
C210 O185 1.257 . S
C211 H186 0.930 . S
C211 C214 1.388 . S
C211 C216 1.418 . S
C212 H207 0.930 . S
C212 C215 1.404 . S
C212 C216 1.353 . S
N213 Co178 2.145 . S
N213 C214 1.397 . S
N213 C215 1.334 . S
C214 H195 0.929 . S
C214 C211 1.388 . S
C214 N213 1.397 . S
C215 H196 0.929 . S
C215 C212 1.404 . S
C215 N213 1.334 . S
C216 H208 0.931 . S
C216 C211 1.418 . S
C216 C212 1.353 . S
C217 H187 0.930 . S
C217 N218 1.330 . S
C217 C219 1.446 . S
N218 Co177 2.151 . S
N218 C217 1.330 . S
N218 C222 1.418 . S
C219 H198 0.929 . S
C219 C217 1.446 . S
C219 C220 1.332 . S
C220 H200 0.931 . S
C220 C219 1.332 . S
C220 C221 1.267 . S
C221 H189 0.929 . S
C221 C220 1.267 . S
C221 C222 1.251 . S
C222 H192 0.929 . S
C222 N218 1.418 . S
C222 C221 1.251 . S
C223 H190 0.930 . S
C223 C225 1.406 . S
C223 C228 1.261 . S
C224 H191 0.930 . S
C224 N226 1.325 . S
C224 C227 1.357 . S
C225 H193 0.928 . S
C225 C223 1.406 . S
C225 N226 1.261 . S
N226 Co177 2.214 . S
N226 C224 1.325 . S
N226 C225 1.261 . S
C227 H197 0.931 . S
C227 C224 1.357 . S
C227 C228 1.312 . S
C228 H199 0.930 1_565 S
C228 C223 1.261 . S
C228 C227 1.312 . S
C229 O201 1.214 . S
C229 O209 1.234 . S
C230 H202 0.929 . S
C230 C233 1.391 . S
C230 C235 1.391 1_655 S
C231 H203 0.929 . S
C231 C232 1.390 . S
C231 N234 1.391 1_655 S
C232 H204 0.930 . S
C232 C231 1.390 . S
C232 C233 1.392 . S
C233 H205 0.929 . S
C233 C230 1.391 . S
C233 C232 1.392 . S
N234 Co178 2.257 . S
N234 C231 1.391 1_455 S
N234 C235 1.388 . S
C235 H206 0.930 . S
C235 C230 1.391 1_455 S
C235 N234 1.388 . S
Co236 O238 2.143 . S
Co236 O244 2.074 1_545 S
Co236 O247 2.093 . S
Co236 O260 2.097 . S
Co236 N277 2.151 1_545 S
Co236 N285 2.214 . S
Co237 O238 2.160 . S
Co237 O243 2.058 . S
Co237 O253 2.057 . S
Co237 O268 2.037 . S
Co237 N272 2.145 . S
Co237 N293 2.257 . S
O238 Co236 2.143 . S
O238 Co237 2.160 . S
C239 O240 1.278 . S
C239 O247 1.224 . S
O240 C239 1.278 . S
C241 O242 1.245 . S
C241 O253 1.232 . S
O242 C241 1.245 . S
O243 Co237 2.058 . S
O243 C269 1.269 1_545 S
O244 Co236 2.074 1_565 S
O244 C269 1.257 . S
H245 C270 0.930 . S
H246 C276 0.930 . S
O247 Co236 2.093 . S
O247 C239 1.224 . S
H248 C280 0.929 . S
H249 C282 0.930 . S
H250 C283 0.930 . S
H251 C281 0.929 . S
H252 C284 0.928 . S
O253 Co237 2.057 . S
O253 C241 1.232 . S
H254 C273 0.929 . S
H255 C274 0.929 . S
H256 C286 0.931 1_545 S
H257 C278 0.929 . S
H258 C287 0.930 . S
H259 C279 0.931 . S
O260 Co236 2.097 . S
O260 C288 1.214 . S
H261 C289 0.929 . S
H262 C290 0.929 . S
H263 C291 0.930 . S
H264 C292 0.929 . S
H265 C294 0.930 . S
H266 C271 0.930 . S
H267 C275 0.930 . S
O268 Co237 2.037 . S
O268 C288 1.234 . S
C269 O243 1.269 1_565 S
C269 O244 1.257 . S
C270 H245 0.930 . S
C270 C273 1.388 . S
C270 C275 1.418 . S
C271 H266 0.930 . S
C271 C274 1.404 . S
C271 C275 1.353 . S
N272 Co237 2.145 . S
N272 C273 1.397 . S
N272 C274 1.334 . S
C273 H254 0.929 . S
C273 C270 1.388 . S
C273 N272 1.397 . S
C274 H255 0.929 . S
C274 C271 1.404 . S
C274 N272 1.334 . S
C275 H267 0.930 . S
C275 C270 1.418 . S
C275 C271 1.353 . S
C276 H246 0.930 . S
C276 N277 1.330 . S
C276 C278 1.446 . S
N277 Co236 2.151 1_565 S
N277 C276 1.330 . S
N277 C281 1.418 . S
C278 H257 0.929 . S
C278 C276 1.446 . S
C278 C279 1.332 . S
C279 H259 0.931 . S
C279 C278 1.332 . S
C279 C280 1.267 . S
C280 H248 0.929 . S
C280 C279 1.267 . S
C280 C281 1.251 . S
C281 H251 0.929 . S
C281 N277 1.418 . S
C281 C280 1.251 . S
C282 H249 0.930 . S
C282 C284 1.406 . S
C282 C287 1.261 . S
C283 H250 0.930 . S
C283 N285 1.325 . S
C283 C286 1.357 1_545 S
C284 H252 0.928 . S
C284 C282 1.406 . S
C284 N285 1.261 1_565 S
N285 Co236 2.214 . S
N285 C283 1.325 . S
N285 C284 1.261 1_545 S
C286 H256 0.931 1_565 S
C286 C283 1.357 1_565 S
C286 C287 1.312 . S
C287 H258 0.930 . S
C287 C282 1.261 . S
C287 C286 1.312 . S
C288 O260 1.214 . S
C288 O268 1.234 . S
C289 H261 0.929 . S
C289 C292 1.391 . S
C289 C294 1.391 . S
C290 H262 0.929 . S
C290 C291 1.390 . S
C290 N293 1.391 . S
C291 H263 0.930 . S
C291 C290 1.390 . S
C291 C292 1.392 . S
C292 H264 0.929 . S
C292 C289 1.391 . S
C292 C291 1.392 . S
N293 Co237 2.257 . S
N293 C290 1.391 . S
N293 C294 1.388 . S
C294 H265 0.930 . S
C294 C289 1.391 . S
C294 N293 1.388 . S
Co295 O297 2.143 . S
Co295 O303 2.074 . S
Co295 O306 2.093 . S
Co295 O319 2.097 . S
Co295 N336 2.151 . S
Co295 N344 2.214 . S
Co296 O297 2.160 . S
Co296 O302 2.058 . S
Co296 O312 2.057 . S
Co296 O327 2.037 . S
Co296 N331 2.145 . S
Co296 N352 2.257 . S
O297 Co295 2.143 . S
O297 Co296 2.160 . S
C298 O299 1.278 . S
C298 O306 1.224 . S
O299 C298 1.278 . S
C300 O301 1.245 . S
C300 O312 1.232 . S
O301 C300 1.245 . S
O302 Co296 2.058 . S
O302 C328 1.269 . S
O303 Co295 2.074 . S
O303 C328 1.257 . S
H304 C329 0.930 . S
H305 C335 0.930 . S
O306 Co295 2.093 . S
O306 C298 1.224 . S
H307 C339 0.929 . S
H308 C341 0.930 . S
H309 C342 0.930 . S
H310 C340 0.929 . S
H311 C343 0.928 . S
O312 Co296 2.057 . S
O312 C300 1.232 . S
H313 C332 0.929 . S
H314 C333 0.929 . S
H315 C345 0.931 . S
H316 C337 0.929 . S
H317 C346 0.930 . S
H318 C338 0.931 . S
O319 Co295 2.097 . S
O319 C347 1.214 . S
H320 C348 0.929 . S
H321 C349 0.929 . S
H322 C350 0.930 . S
H323 C351 0.929 . S
H324 C353 0.930 . S
H325 C330 0.930 . S
H326 C334 0.931 . S
O327 Co296 2.037 . S
O327 C347 1.234 . S
C328 O302 1.269 . S
C328 O303 1.257 . S
C329 H304 0.930 . S
C329 C332 1.388 . S
C329 C334 1.418 . S
C330 H325 0.930 . S
C330 C333 1.404 . S
C330 C334 1.353 . S
N331 Co296 2.145 . S
N331 C332 1.397 . S
N331 C333 1.334 . S
C332 H313 0.929 . S
C332 C329 1.388 . S
C332 N331 1.397 . S
C333 H314 0.929 . S
C333 C330 1.404 . S
C333 N331 1.334 . S
C334 H326 0.931 . S
C334 C329 1.418 . S
C334 C330 1.353 . S
C335 H305 0.930 . S
C335 N336 1.330 . S
C335 C337 1.446 . S
N336 Co295 2.151 . S
N336 C335 1.330 . S
N336 C340 1.418 . S
C337 H316 0.929 . S
C337 C335 1.446 . S
C337 C338 1.332 . S
C338 H318 0.931 . S
C338 C337 1.332 . S
C338 C339 1.267 . S
C339 H307 0.929 . S
C339 C338 1.267 . S
C339 C340 1.251 . S
C340 H310 0.929 . S
C340 N336 1.418 . S
C340 C339 1.251 . S
C341 H308 0.930 . S
C341 C343 1.406 . S
C341 C346 1.261 . S
C342 H309 0.930 . S
C342 N344 1.325 . S
C342 C345 1.357 . S
C343 H311 0.928 . S
C343 C341 1.406 . S
C343 N344 1.261 . S
N344 Co295 2.214 . S
N344 C342 1.325 . S
N344 C343 1.261 . S
C345 H315 0.931 . S
C345 C342 1.357 . S
C345 C346 1.312 . S
C346 H317 0.930 . S
C346 C341 1.261 . S
C346 C345 1.312 . S
C347 O319 1.214 . S
C347 O327 1.234 . S
C348 H320 0.929 . S
C348 C351 1.391 . S
C348 C353 1.391 1_655 S
C349 H321 0.929 . S
C349 C350 1.390 . S
C349 N352 1.391 1_655 S
C350 H322 0.930 . S
C350 C349 1.390 . S
C350 C351 1.392 . S
C351 H323 0.929 . S
C351 C348 1.391 . S
C351 C350 1.392 . S
N352 Co296 2.257 . S
N352 C349 1.391 1_455 S
N352 C353 1.388 . S
C353 H324 0.930 . S
C353 C348 1.391 1_455 S
C353 N352 1.388 . S
Co354 O356 2.143 . S
Co354 O362 2.074 . S
Co354 O365 2.093 . S
Co354 O378 2.097 . S
Co354 N395 2.151 . S
Co354 N403 2.214 . S
Co355 O356 2.160 . S
Co355 O361 2.058 . S
Co355 O371 2.057 . S
Co355 O386 2.037 . S
Co355 N390 2.145 . S
Co355 N411 2.257 . S
O356 Co354 2.143 . S
O356 Co355 2.160 . S
C357 O358 1.278 . S
C357 O365 1.224 . S
O358 C357 1.278 . S
C359 O360 1.245 . S
C359 O371 1.232 . S
O360 C359 1.245 . S
O361 Co355 2.058 . S
O361 C387 1.269 . S
O362 Co354 2.074 . S
O362 C387 1.257 . S
H363 C388 0.930 . S
H364 C394 0.930 . S
O365 Co354 2.093 . S
O365 C357 1.224 . S
H366 C398 0.929 . S
H367 C400 0.930 . S
H368 C401 0.930 . S
H369 C399 0.929 . S
H370 C402 0.928 . S
O371 Co355 2.057 . S
O371 C359 1.232 . S
H372 C391 0.929 . S
H373 C392 0.929 . S
H374 C404 0.931 . S
H375 C396 0.929 . S
H376 C405 0.930 1_455 S
H377 C397 0.931 . S
O378 Co354 2.097 . S
O378 C406 1.214 . S
H379 C407 0.929 . S
H380 C408 0.929 . S
H381 C409 0.930 . S
H382 C410 0.929 . S
H383 C412 0.930 . S
H384 C389 0.930 . S
H385 C393 0.931 . S
O386 Co355 2.037 . S
O386 C406 1.234 . S
C387 O361 1.269 . S
C387 O362 1.257 . S
C388 H363 0.930 . S
C388 C391 1.388 . S
C388 C393 1.418 . S
C389 H384 0.930 . S
C389 C392 1.404 . S
C389 C393 1.353 . S
N390 Co355 2.145 . S
N390 C391 1.397 . S
N390 C392 1.334 . S
C391 H372 0.929 . S
C391 C388 1.388 . S
C391 N390 1.397 . S
C392 H373 0.929 . S
C392 C389 1.404 . S
C392 N390 1.334 . S
C393 H385 0.931 . S
C393 C388 1.418 . S
C393 C389 1.353 . S
C394 H364 0.930 . S
C394 N395 1.330 . S
C394 C396 1.446 . S
N395 Co354 2.151 . S
N395 C394 1.330 . S
N395 C399 1.418 . S
C396 H375 0.929 . S
C396 C394 1.446 . S
C396 C397 1.332 . S
C397 H377 0.931 . S
C397 C396 1.332 . S
C397 C398 1.267 . S
C398 H366 0.929 . S
C398 C397 1.267 . S
C398 C399 1.251 . S
C399 H369 0.929 . S
C399 N395 1.418 . S
C399 C398 1.251 . S
C400 H367 0.930 . S
C400 C402 1.406 . S
C400 C405 1.261 . S
C401 H368 0.930 . S
C401 N403 1.325 . S
C401 C404 1.357 . S
C402 H370 0.928 . S
C402 C400 1.406 . S
C402 N403 1.261 . S
N403 Co354 2.214 . S
N403 C401 1.325 . S
N403 C402 1.261 . S
C404 H374 0.931 . S
C404 C401 1.357 . S
C404 C405 1.312 . S
C405 H376 0.930 1_655 S
C405 C400 1.261 . S
C405 C404 1.312 . S
C406 O378 1.214 . S
C406 O386 1.234 . S
C407 H379 0.929 . S
C407 C410 1.391 . S
C407 C412 1.391 1_565 S
C408 H380 0.929 . S
C408 C409 1.390 . S
C408 N411 1.391 1_565 S
C409 H381 0.930 . S
C409 C408 1.390 . S
C409 C410 1.392 . S
C410 H382 0.929 . S
C410 C407 1.391 . S
C410 C409 1.392 . S
N411 Co355 2.257 . S
N411 C408 1.391 1_545 S
N411 C412 1.388 . S
C412 H383 0.930 . S
C412 C407 1.391 1_545 S
C412 N411 1.388 . S
Co413 O415 2.143 . S
Co413 O421 2.074 1_455 S
Co413 O424 2.093 . S
Co413 O437 2.097 . S
Co413 N454 2.151 1_455 S
Co413 N462 2.214 . S
Co414 O415 2.160 . S
Co414 O420 2.058 . S
Co414 O430 2.057 . S
Co414 O445 2.037 . S
Co414 N449 2.145 . S
Co414 N470 2.257 . S
O415 Co413 2.143 . S
O415 Co414 2.160 . S
C416 O417 1.278 . S
C416 O424 1.224 . S
O417 C416 1.278 . S
C418 O419 1.245 . S
C418 O430 1.232 . S
O419 C418 1.245 . S
O420 Co414 2.058 . S
O420 C446 1.269 1_455 S
O421 Co413 2.074 1_655 S
O421 C446 1.257 . S
H422 C447 0.930 . S
H423 C453 0.930 . S
O424 Co413 2.093 . S
O424 C416 1.224 . S
H425 C457 0.929 . S
H426 C459 0.930 . S
H427 C460 0.930 . S
H428 C458 0.929 . S
H429 C461 0.928 . S
O430 Co414 2.057 . S
O430 C418 1.232 . S
H431 C450 0.929 . S
H432 C451 0.929 . S
H433 C463 0.931 1_455 S
H434 C455 0.929 . S
H435 C464 0.930 1_545 S
H436 C456 0.931 . S
O437 Co413 2.097 . S
O437 C465 1.214 . S
H438 C466 0.929 . S
H439 C467 0.929 . S
H440 C468 0.930 . S
H441 C469 0.929 . S
H442 C471 0.930 . S
H443 C448 0.930 . S
H444 C452 0.930 . S
O445 Co414 2.037 . S
O445 C465 1.234 . S
C446 O420 1.269 1_655 S
C446 O421 1.257 . S
C447 H422 0.930 . S
C447 C450 1.388 . S
C447 C452 1.418 . S
C448 H443 0.930 . S
C448 C451 1.404 . S
C448 C452 1.353 . S
N449 Co414 2.145 . S
N449 C450 1.397 . S
N449 C451 1.334 . S
C450 H431 0.929 . S
C450 C447 1.388 . S
C450 N449 1.397 . S
C451 H432 0.929 . S
C451 C448 1.404 . S
C451 N449 1.334 . S
C452 H444 0.930 . S
C452 C447 1.418 . S
C452 C448 1.353 . S
C453 H423 0.930 . S
C453 N454 1.330 . S
C453 C455 1.446 . S
N454 Co413 2.151 1_655 S
N454 C453 1.330 . S
N454 C458 1.418 . S
C455 H434 0.929 . S
C455 C453 1.446 . S
C455 C456 1.332 . S
C456 H436 0.931 . S
C456 C455 1.332 . S
C456 C457 1.267 . S
C457 H425 0.929 . S
C457 C456 1.267 . S
C457 C458 1.251 . S
C458 H428 0.929 . S
C458 N454 1.418 . S
C458 C457 1.251 . S
C459 H426 0.930 . S
C459 C461 1.406 . S
C459 C464 1.261 . S
C460 H427 0.930 . S
C460 N462 1.325 . S
C460 C463 1.357 1_455 S
C461 H429 0.928 . S
C461 C459 1.406 . S
C461 N462 1.261 1_655 S
N462 Co413 2.214 . S
N462 C460 1.325 . S
N462 C461 1.261 1_455 S
C463 H433 0.931 1_655 S
C463 C460 1.357 1_655 S
C463 C464 1.312 . S
C464 H435 0.930 1_565 S
C464 C459 1.261 . S
C464 C463 1.312 . S
C465 O437 1.214 . S
C465 O445 1.234 . S
C466 H438 0.929 . S
C466 C469 1.391 . S
C466 C471 1.391 . S
C467 H439 0.929 . S
C467 C468 1.390 . S
C467 N470 1.391 . S
C468 H440 0.930 . S
C468 C467 1.390 . S
C468 C469 1.392 . S
C469 H441 0.929 . S
C469 C466 1.391 . S
C469 C468 1.392 . S
N470 Co414 2.257 . S
N470 C467 1.391 . S
N470 C471 1.388 . S
C471 H442 0.930 . S
C471 C466 1.391 . S
C471 N470 1.388 . S
H472 C484 0.930 . S
H473 C486 0.925 1_565 S
H474 C487 0.930 1_565 S
H475 C491 0.956 1_556 S
H476 C491 0.932 1_556 S
H477 C491 0.992 . S
H478 C492 0.960 . S
H479 C492 0.961 1_556 S
H480 C492 0.958 1_556 S
H481 C495 0.929 1_565 S
H482 C496 0.931 . S
H483 C498 0.930 . S
C484 H472 0.930 . S
C484 C485 1.399 . S
C484 C489 1.399 . S
C485 C484 1.399 . S
C485 C486 1.376 . S
C486 H473 0.925 1_545 S
C486 C485 1.376 . S
C486 C487 1.388 . S
C487 H474 0.930 1_545 S
C487 C486 1.388 . S
C487 C488 1.390 . S
C488 C487 1.390 . S
C488 C489 1.394 . S
C488 C494 1.465 1_554 S
C489 C484 1.399 . S
C489 C488 1.394 . S
C489 C490 1.547 . S
C490 C489 1.547 . S
C490 C491 1.502 . S
C490 C492 1.563 . S
C490 C493 1.494 1_554 S
C491 H475 0.956 1_554 S
C491 H476 0.932 1_554 S
C491 H477 0.992 . S
C491 C490 1.502 . S
C492 H478 0.960 . S
C492 H479 0.961 1_554 S
C492 H480 0.958 1_554 S
C492 C490 1.563 . S
C493 C490 1.494 1_556 S
C493 C494 1.396 . S
C493 C498 1.390 . S
C494 C488 1.465 1_556 S
C494 C493 1.396 . S
C494 C495 1.399 . S
C495 H481 0.929 1_545 S
C495 C494 1.399 . S
C495 C496 1.385 . S
C496 H482 0.931 . S
C496 C495 1.385 . S
C496 C497 1.389 . S
C497 C496 1.389 . S
C497 C498 1.387 . S
C498 H483 0.930 . S
C498 C493 1.390 . S
C498 C497 1.387 . S
H499 C511 0.930 . S
H500 C513 0.930 . S
H501 C514 0.930 . S
H502 C518 0.959 . S
H503 C518 0.959 . S
H504 C518 0.961 . S
H505 C519 0.960 . S
H506 C519 0.961 . S
H507 C519 0.959 . S
H508 C522 0.929 . S
H509 C523 0.931 . S
H510 C525 0.930 . S
C511 H499 0.930 . S
C511 C512 1.399 . S
C511 C516 1.399 . S
C512 C511 1.399 . S
C512 C513 1.376 . S
C513 H500 0.930 . S
C513 C512 1.376 . S
C513 C514 1.388 . S
C514 H501 0.930 . S
C514 C513 1.388 . S
C514 C515 1.390 . S
C515 C514 1.390 . S
C515 C516 1.394 . S
C515 C521 1.465 . S
C516 C511 1.399 . S
C516 C515 1.394 . S
C516 C517 1.516 . S
C517 C516 1.516 . S
C517 C518 1.502 . S
C517 C519 1.561 . S
C517 C520 1.526 . S
C518 H502 0.959 . S
C518 H503 0.959 . S
C518 H504 0.961 . S
C518 C517 1.502 . S
C519 H505 0.960 . S
C519 H506 0.961 . S
C519 H507 0.959 . S
C519 C517 1.561 . S
C520 C517 1.526 . S
C520 C521 1.396 . S
C520 C525 1.390 . S
C521 C515 1.465 . S
C521 C520 1.396 . S
C521 C522 1.399 . S
C522 H508 0.929 . S
C522 C521 1.399 . S
C522 C523 1.385 . S
C523 H509 0.931 . S
C523 C522 1.385 . S
C523 C524 1.389 . S
C524 C523 1.389 . S
C524 C525 1.387 . S
C525 H510 0.930 . S
C525 C520 1.390 . S
C525 C524 1.387 . S
H526 C538 0.930 . S
H527 C540 0.930 . S
H528 C541 0.930 . S
H529 C545 0.959 . S
H530 C545 0.959 1_565 S
H531 C545 0.961 1_566 S
H532 C546 0.960 1_556 S
H533 C546 0.961 . S
H534 C546 0.959 . S
H535 C549 0.929 . S
H536 C550 0.931 . S
H537 C552 0.930 . S
C538 H526 0.930 . S
C538 C539 1.399 . S
C538 C543 1.399 . S
C539 C538 1.399 . S
C539 C540 1.376 . S
C540 H527 0.930 . S
C540 C539 1.376 . S
C540 C541 1.388 . S
C541 H528 0.930 . S
C541 C540 1.388 . S
C541 C542 1.390 . S
C542 C541 1.390 . S
C542 C543 1.394 . S
C542 C548 1.465 1_556 S
C543 C538 1.399 . S
C543 C542 1.394 . S
C543 C544 1.516 1_556 S
C544 C543 1.516 1_554 S
C544 C545 1.502 . S
C544 C546 1.561 1_545 S
C544 C547 1.526 . S
C545 H529 0.959 . S
C545 H530 0.959 1_545 S
C545 H531 0.961 1_544 S
C545 C544 1.502 . S
C546 H532 0.960 1_554 S
C546 H533 0.961 . S
C546 H534 0.959 . S
C546 C544 1.561 1_565 S
C547 C544 1.526 . S
C547 C548 1.396 . S
C547 C552 1.390 . S
C548 C542 1.465 1_554 S
C548 C547 1.396 . S
C548 C549 1.399 . S
C549 H535 0.929 . S
C549 C548 1.399 . S
C549 C550 1.385 . S
C550 H536 0.931 . S
C550 C549 1.385 . S
C550 C551 1.389 . S
C551 C550 1.389 . S
C551 C552 1.387 . S
C552 H537 0.930 . S
C552 C547 1.390 . S
C552 C551 1.387 . S
H553 C565 0.930 . S
H554 C567 0.930 . S
H555 C568 0.930 . S
H556 C572 0.959 . S
H557 C572 0.959 . S
H558 C572 0.961 . S
H559 C573 0.960 . S
H560 C573 0.961 . S
H561 C573 0.959 . S
H562 C576 0.929 . S
H563 C577 0.931 . S
H564 C579 0.930 . S
C565 H553 0.930 . S
C565 C566 1.399 . S
C565 C570 1.399 . S
C566 C565 1.399 . S
C566 C567 1.376 . S
C567 H554 0.930 . S
C567 C566 1.376 . S
C567 C568 1.388 . S
C568 H555 0.930 . S
C568 C567 1.388 . S
C568 C569 1.390 . S
C569 C568 1.390 . S
C569 C570 1.394 . S
C569 C575 1.465 . S
C570 C565 1.399 . S
C570 C569 1.394 . S
C570 C571 1.516 . S
C571 C570 1.516 . S
C571 C572 1.502 . S
C571 C573 1.561 . S
C571 C574 1.526 . S
C572 H556 0.959 . S
C572 H557 0.959 . S
C572 H558 0.961 . S
C572 C571 1.502 . S
C573 H559 0.960 . S
C573 H560 0.961 . S
C573 H561 0.959 . S
C573 C571 1.561 . S
C574 C571 1.526 . S
C574 C575 1.396 . S
C574 C579 1.390 . S
C575 C569 1.465 . S
C575 C574 1.396 . S
C575 C576 1.399 . S
C576 H562 0.929 . S
C576 C575 1.399 . S
C576 C577 1.385 . S
C577 H563 0.931 . S
C577 C576 1.385 . S
C577 C578 1.389 . S
C578 C577 1.389 . S
C578 C579 1.387 . S
C579 H564 0.930 . S
C579 C574 1.390 . S
C579 C578 1.387 . S
H580 C592 0.930 . S
H581 C594 0.930 . S
H582 C595 0.930 . S
H583 C599 0.959 . S
H584 C599 0.958 . S
H585 C599 0.961 1_545 S
H586 C600 0.960 . S
H587 C600 0.961 . S
H588 C600 0.959 . S
H589 C603 0.929 . S
H590 C604 0.931 . S
H591 C606 0.930 . S
C592 H580 0.930 . S
C592 C593 1.399 . S
C592 C597 1.399 . S
C593 C592 1.399 . S
C593 C594 1.376 . S
C594 H581 0.930 . S
C594 C593 1.376 . S
C594 C595 1.388 . S
C595 H582 0.930 . S
C595 C594 1.388 . S
C595 C596 1.390 . S
C596 C595 1.390 . S
C596 C597 1.394 . S
C596 C602 1.465 . S
C597 C592 1.399 . S
C597 C596 1.394 . S
C597 C598 1.516 . S
C598 C597 1.516 . S
C598 C599 1.503 1_545 S
C598 C600 1.561 . S
C598 C601 1.526 . S
C599 H583 0.959 . S
C599 H584 0.958 . S
C599 H585 0.961 1_565 S
C599 C598 1.503 1_565 S
C600 H586 0.960 . S
C600 H587 0.961 . S
C600 H588 0.959 . S
C600 C598 1.561 . S
C601 C598 1.526 . S
C601 C602 1.396 . S
C601 C606 1.390 . S
C602 C596 1.465 . S
C602 C601 1.396 . S
C602 C603 1.399 . S
C603 H589 0.929 . S
C603 C602 1.399 . S
C603 C604 1.385 . S
C604 H590 0.931 . S
C604 C603 1.385 . S
C604 C605 1.389 . S
C605 C604 1.389 . S
C605 C606 1.387 . S
C606 H591 0.930 . S
C606 C601 1.390 . S
C606 C605 1.387 . S
H607 C619 0.930 . S
H608 C621 0.930 1_655 S
H609 C622 0.930 . S
H610 C626 0.959 . S
H611 C626 0.959 . S
H612 C626 0.961 . S
H613 C627 0.960 . S
H614 C627 0.961 . S
H615 C627 0.959 . S
H616 C630 0.929 . S
H617 C631 0.931 . S
H618 C633 0.930 . S
C619 H607 0.930 . S
C619 C620 1.399 . S
C619 C624 1.399 . S
C620 C619 1.399 . S
C620 C621 1.376 . S
C621 H608 0.930 1_455 S
C621 C620 1.376 . S
C621 C622 1.388 . S
C622 H609 0.930 . S
C622 C621 1.388 . S
C622 C623 1.390 . S
C623 C622 1.390 . S
C623 C624 1.394 . S
C623 C629 1.465 . S
C624 C619 1.399 . S
C624 C623 1.394 . S
C624 C625 1.516 . S
C625 C624 1.516 . S
C625 C626 1.502 . S
C625 C627 1.561 . S
C625 C628 1.526 . S
C626 H610 0.959 . S
C626 H611 0.959 . S
C626 H612 0.961 . S
C626 C625 1.502 . S
C627 H613 0.960 . S
C627 H614 0.961 . S
C627 H615 0.959 . S
C627 C625 1.561 . S
C628 C625 1.526 . S
C628 C629 1.396 . S
C628 C633 1.390 . S
C629 C623 1.465 . S
C629 C628 1.396 . S
C629 C630 1.399 . S
C630 H616 0.929 . S
C630 C629 1.399 . S
C630 C631 1.385 . S
C631 H617 0.931 . S
C631 C630 1.385 . S
C631 C632 1.389 . S
C632 C631 1.389 . S
C632 C633 1.387 . S
C633 H618 0.930 . S
C633 C628 1.390 . S
C633 C632 1.387 . S
H634 C646 0.930 . S
H635 C648 0.930 . S
H636 C649 0.930 . S
H637 C653 0.959 . S
H638 C653 0.959 . S
H639 C653 0.961 . S
H640 C654 0.960 . S
H641 C654 0.961 . S
H642 C654 0.959 . S
H643 C657 0.929 . S
H644 C658 0.931 . S
H645 C660 0.930 . S
C646 H634 0.930 . S
C646 C647 1.399 . S
C646 C651 1.399 . S
C647 C646 1.399 . S
C647 C648 1.376 . S
C648 H635 0.930 . S
C648 C647 1.376 . S
C648 C649 1.388 . S
C649 H636 0.930 . S
C649 C648 1.388 . S
C649 C650 1.390 . S
C650 C649 1.390 . S
C650 C651 1.394 . S
C650 C656 1.465 . S
C651 C646 1.399 . S
C651 C650 1.394 . S
C651 C652 1.516 . S
C652 C651 1.516 . S
C652 C653 1.502 . S
C652 C654 1.561 . S
C652 C655 1.526 . S
C653 H637 0.959 . S
C653 H638 0.959 . S
C653 H639 0.961 . S
C653 C652 1.502 . S
C654 H640 0.960 . S
C654 H641 0.961 . S
C654 H642 0.959 . S
C654 C652 1.561 . S
C655 C652 1.526 . S
C655 C656 1.396 . S
C655 C660 1.390 . S
C656 C650 1.465 . S
C656 C655 1.396 . S
C656 C657 1.399 . S
C657 H643 0.929 . S
C657 C656 1.399 . S
C657 C658 1.385 . S
C658 H644 0.931 . S
C658 C657 1.385 . S
C658 C659 1.389 . S
C659 C658 1.389 . S
C659 C660 1.387 . S
C660 H645 0.930 . S
C660 C655 1.390 . S
C660 C659 1.387 . S
H661 C673 0.930 . S
H662 C675 0.930 . S
H663 C676 0.930 . S
H664 C680 0.959 . S
H665 C680 0.959 . S
H666 C680 0.961 . S
H667 C681 0.960 . S
H668 C681 0.961 1_655 S
H669 C681 0.959 1_655 S
H670 C684 0.929 . S
H671 C685 0.931 . S
H672 C687 0.930 . S
C673 H661 0.930 . S
C673 C674 1.399 . S
C673 C678 1.399 . S
C674 C673 1.399 . S
C674 C675 1.376 . S
C675 H662 0.930 . S
C675 C674 1.376 . S
C675 C676 1.388 . S
C676 H663 0.930 . S
C676 C675 1.388 . S
C676 C677 1.390 . S
C677 C676 1.390 . S
C677 C678 1.394 . S
C677 C683 1.465 . S
C678 C673 1.399 . S
C678 C677 1.394 . S
C678 C679 1.516 . S
C679 C678 1.516 . S
C679 C680 1.502 . S
C679 C681 1.561 . S
C679 C682 1.526 . S
C680 H664 0.959 . S
C680 H665 0.959 . S
C680 H666 0.961 . S
C680 C679 1.502 . S
C681 H667 0.960 . S
C681 H668 0.961 1_455 S
C681 H669 0.959 1_455 S
C681 C679 1.561 . S
C682 C679 1.526 . S
C682 C683 1.396 . S
C682 C687 1.390 . S
C683 C677 1.465 . S
C683 C682 1.396 . S
C683 C684 1.399 . S
C684 H670 0.929 . S
C684 C683 1.399 . S
C684 C685 1.385 . S
C685 H671 0.931 . S
C685 C684 1.385 . S
C685 C686 1.389 . S
C686 C685 1.389 . S
C686 C687 1.387 . S
C687 H672 0.930 . S
C687 C682 1.390 . S
C687 C686 1.387 . S
H688 C700 0.930 . S
H689 C702 0.930 . S
H690 C703 0.930 . S
H691 C707 0.959 . S
H692 C707 0.959 . S
H693 C707 0.961 . S
H694 C708 0.960 . S
H695 C708 0.961 . S
H696 C708 0.959 . S
H697 C711 0.929 . S
H698 C712 0.931 . S
H699 C714 0.930 . S
C700 H688 0.930 . S
C700 C701 1.399 . S
C700 C705 1.399 . S
C701 C700 1.399 . S
C701 C702 1.376 . S
C702 H689 0.930 . S
C702 C701 1.376 . S
C702 C703 1.388 . S
C703 H690 0.930 . S
C703 C702 1.388 . S
C703 C704 1.390 . S
C704 C703 1.390 . S
C704 C705 1.394 . S
C704 C710 1.465 . S
C705 C700 1.399 . S
C705 C704 1.394 . S
C705 C706 1.516 . S
C706 C705 1.516 . S
C706 C707 1.502 . S
C706 C708 1.561 . S
C706 C709 1.526 . S
C707 H691 0.959 . S
C707 H692 0.959 . S
C707 H693 0.961 . S
C707 C706 1.502 . S
C708 H694 0.960 . S
C708 H695 0.961 . S
C708 H696 0.959 . S
C708 C706 1.561 . S
C709 C706 1.526 . S
C709 C710 1.396 . S
C709 C714 1.390 . S
C710 C704 1.465 . S
C710 C709 1.396 . S
C710 C711 1.399 . S
C711 H697 0.929 . S
C711 C710 1.399 . S
C711 C712 1.385 . S
C712 H698 0.931 . S
C712 C711 1.385 . S
C712 C713 1.389 . S
C713 C712 1.389 . S
C713 C714 1.387 . S
C714 H699 0.930 . S
C714 C709 1.390 . S
C714 C713 1.387 . S
H715 C727 0.930 . S
H716 C729 0.930 1_455 S
H717 C730 0.930 . S
H718 C734 0.959 . S
H719 C734 0.959 . S
H720 C734 0.961 . S
H721 C735 0.960 . S
H722 C735 0.961 . S
H723 C735 0.959 . S
H724 C738 0.929 . S
H725 C739 0.931 . S
H726 C741 0.930 . S
C727 H715 0.930 . S
C727 C728 1.399 . S
C727 C732 1.399 . S
C728 C727 1.399 . S
C728 C729 1.376 . S
C729 H716 0.930 1_655 S
C729 C728 1.376 . S
C729 C730 1.388 . S
C730 H717 0.930 . S
C730 C729 1.388 . S
C730 C731 1.390 . S
C731 C730 1.390 . S
C731 C732 1.394 . S
C731 C737 1.465 . S
C732 C727 1.399 . S
C732 C731 1.394 . S
C732 C733 1.516 . S
C733 C732 1.516 . S
C733 C734 1.502 . S
C733 C735 1.561 . S
C733 C736 1.526 . S
C734 H718 0.959 . S
C734 H719 0.959 . S
C734 H720 0.961 . S
C734 C733 1.502 . S
C735 H721 0.960 . S
C735 H722 0.961 . S
C735 H723 0.959 . S
C735 C733 1.561 . S
C736 C733 1.526 . S
C736 C737 1.396 . S
C736 C741 1.390 . S
C737 C731 1.465 . S
C737 C736 1.396 . S
C737 C738 1.399 . S
C738 H724 0.929 . S
C738 C737 1.399 . S
C738 C739 1.385 . S
C739 H725 0.931 . S
C739 C738 1.385 . S
C739 C740 1.389 . S
C740 C739 1.389 . S
C740 C741 1.387 . S
C741 H726 0.930 . S
C741 C736 1.390 . S
C741 C740 1.387 . S
H742 C754 0.930 . S
H743 C756 0.930 . S
H744 C757 0.930 . S
H745 C761 0.959 . S
H746 C761 0.959 . S
H747 C761 0.961 . S
H748 C762 0.960 . S
H749 C762 0.961 . S
H750 C762 0.959 . S
H751 C765 0.929 . S
H752 C766 0.931 . S
H753 C768 0.930 . S
C754 H742 0.930 . S
C754 C755 1.399 . S
C754 C759 1.399 . S
C755 C754 1.399 . S
C755 C756 1.376 . S
C756 H743 0.930 . S
C756 C755 1.376 . S
C756 C757 1.388 . S
C757 H744 0.930 . S
C757 C756 1.388 . S
C757 C758 1.390 . S
C758 C757 1.390 . S
C758 C759 1.394 . S
C758 C764 1.465 . S
C759 C754 1.399 . S
C759 C758 1.394 . S
C759 C760 1.516 . S
C760 C759 1.516 . S
C760 C761 1.502 . S
C760 C762 1.561 . S
C760 C763 1.526 . S
C761 H745 0.959 . S
C761 H746 0.959 . S
C761 H747 0.961 . S
C761 C760 1.502 . S
C762 H748 0.960 . S
C762 H749 0.961 . S
C762 H750 0.959 . S
C762 C760 1.561 . S
C763 C760 1.526 . S
C763 C764 1.396 . S
C763 C768 1.390 . S
C764 C758 1.465 . S
C764 C763 1.396 . S
C764 C765 1.399 . S
C765 H751 0.929 . S
C765 C764 1.399 . S
C765 C766 1.385 . S
C766 H752 0.931 . S
C766 C765 1.385 . S
C766 C767 1.389 . S
C767 C766 1.389 . S
C767 C768 1.387 . S
C768 H753 0.930 . S
C768 C763 1.390 . S
C768 C767 1.387 . S
H769 C781 0.930 . S
H770 C783 0.930 . S
H771 C784 0.930 . S
H772 C788 0.959 . S
H773 C788 0.959 . S
H774 C788 0.961 . S
H775 C789 0.960 . S
H776 C789 0.961 . S
H777 C789 0.959 . S
H778 C792 0.929 . S
H779 C793 0.931 . S
H780 C795 0.930 . S
C781 H769 0.930 . S
C781 C782 1.399 . S
C781 C786 1.399 . S
C782 C781 1.399 . S
C782 C783 1.376 . S
C783 H770 0.930 . S
C783 C782 1.376 . S
C783 C784 1.388 . S
C784 H771 0.930 . S
C784 C783 1.388 . S
C784 C785 1.390 . S
C785 C784 1.390 . S
C785 C786 1.394 . S
C785 C791 1.465 . S
C786 C781 1.399 . S
C786 C785 1.394 . S
C786 C787 1.516 . S
C787 C786 1.516 . S
C787 C788 1.502 . S
C787 C789 1.561 . S
C787 C790 1.526 . S
C788 H772 0.959 . S
C788 H773 0.959 . S
C788 H774 0.961 . S
C788 C787 1.502 . S
C789 H775 0.960 . S
C789 H776 0.961 . S
C789 H777 0.959 . S
C789 C787 1.561 . S
C790 C787 1.526 . S
C790 C791 1.396 . S
C790 C795 1.390 . S
C791 C785 1.465 . S
C791 C790 1.396 . S
C791 C792 1.399 . S
C792 H778 0.929 . S
C792 C791 1.399 . S
C792 C793 1.385 . S
C793 H779 0.931 . S
C793 C792 1.385 . S
C793 C794 1.389 . S
C794 C793 1.389 . S
C794 C795 1.387 . S
C795 H780 0.930 . S
C795 C790 1.390 . S
C795 C794 1.387 . S
H796 C808 0.930 . S
H797 C810 0.930 . S
H798 C811 0.930 . S
H799 C815 0.959 . S
H800 C815 0.959 . S
H801 C815 0.961 1_655 S
H802 C816 0.960 . S
H803 C816 0.961 . S
H804 C816 0.959 . S
H805 C819 0.929 . S
H806 C820 0.931 . S
H807 C822 0.930 . S
C808 H796 0.930 . S
C808 C809 1.399 1_565 S
C808 C813 1.399 . S
C809 C808 1.399 1_545 S
C809 C810 1.376 . S
C810 H797 0.930 . S
C810 C809 1.376 . S
C810 C811 1.388 1_545 S
C811 H798 0.930 . S
C811 C810 1.388 1_565 S
C811 C812 1.390 . S
C812 C811 1.390 . S
C812 C813 1.394 . S
C812 C818 1.465 . S
C813 C808 1.399 . S
C813 C812 1.394 . S
C813 C814 1.516 . S
C814 C813 1.516 . S
C814 C815 1.502 1_655 S
C814 C816 1.561 . S
C814 C817 1.526 . S
C815 H799 0.959 . S
C815 H800 0.959 . S
C815 H801 0.961 1_455 S
C815 C814 1.502 1_455 S
C816 H802 0.960 . S
C816 H803 0.961 . S
C816 H804 0.959 . S
C816 C814 1.561 . S
C817 C814 1.526 . S
C817 C818 1.396 . S
C817 C822 1.390 1_655 S
C818 C812 1.465 . S
C818 C817 1.396 . S
C818 C819 1.399 . S
C819 H805 0.929 . S
C819 C818 1.399 . S
C819 C820 1.385 . S
C820 H806 0.931 . S
C820 C819 1.385 . S
C820 C821 1.389 1_655 S
C821 C820 1.389 1_455 S
C821 C822 1.387 . S
C822 H807 0.930 . S
C822 C817 1.390 1_455 S
C822 C821 1.387 . S
H823 C835 0.930 1_545 S
H824 C837 0.930 . S
H825 C838 0.930 . S
H826 C842 0.959 . S
H827 C842 0.959 . S
H828 C842 0.961 . S
H829 C843 0.960 1_545 S
H830 C843 0.961 . S
H831 C843 0.959 1_545 S
H832 C846 0.929 . S
H833 C847 0.931 . S
H834 C849 0.930 . S
C835 H823 0.930 1_565 S
C835 C836 1.399 1_565 S
C835 C840 1.399 . S
C836 C835 1.399 1_545 S
C836 C837 1.376 1_545 S
C837 H824 0.930 . S
C837 C836 1.376 1_565 S
C837 C838 1.388 . S
C838 H825 0.930 . S
C838 C837 1.388 . S
C838 C839 1.390 . S
C839 C838 1.390 . S
C839 C840 1.394 . S
C839 C845 1.465 . S
C840 C835 1.399 . S
C840 C839 1.394 . S
C840 C841 1.516 . S
C841 C840 1.516 . S
C841 C842 1.502 . S
C841 C843 1.561 . S
C841 C844 1.526 . S
C842 H826 0.959 . S
C842 H827 0.959 . S
C842 H828 0.961 . S
C842 C841 1.502 . S
C843 H829 0.960 1_565 S
C843 H830 0.961 . S
C843 H831 0.959 1_565 S
C843 C841 1.561 . S
C844 C841 1.526 . S
C844 C845 1.396 . S
C844 C849 1.390 . S
C845 C839 1.465 . S
C845 C844 1.396 . S
C845 C846 1.399 . S
C846 H832 0.929 . S
C846 C845 1.399 . S
C846 C847 1.385 . S
C847 H833 0.931 . S
C847 C846 1.385 . S
C847 C848 1.389 . S
C848 C847 1.389 . S
C848 C849 1.387 . S
C849 H834 0.930 . S
C849 C844 1.390 . S
C849 C848 1.387 . S
H850 C862 0.930 . S
H851 C864 0.930 . S
H852 C865 0.930 . S
H853 C869 0.959 . S
H854 C869 0.959 . S
H855 C869 0.961 . S
H856 C870 0.960 . S
H857 C870 0.961 . S
H858 C870 0.959 . S
H859 C873 0.929 . S
H860 C874 0.931 . S
H861 C876 0.930 . S
C862 H850 0.930 . S
C862 C863 1.399 . S
C862 C867 1.399 . S
C863 C862 1.399 . S
C863 C864 1.376 . S
C864 H851 0.930 . S
C864 C863 1.376 . S
C864 C865 1.388 . S
C865 H852 0.930 . S
C865 C864 1.388 . S
C865 C866 1.390 . S
C866 C865 1.390 . S
C866 C867 1.394 . S
C866 C872 1.465 . S
C867 C862 1.399 . S
C867 C866 1.394 . S
C867 C868 1.516 . S
C868 C867 1.516 . S
C868 C869 1.502 . S
C868 C870 1.561 . S
C868 C871 1.526 . S
C869 H853 0.959 . S
C869 H854 0.959 . S
C869 H855 0.961 . S
C869 C868 1.502 . S
C870 H856 0.960 . S
C870 H857 0.961 . S
C870 H858 0.959 . S
C870 C868 1.561 . S
C871 C868 1.526 . S
C871 C872 1.396 . S
C871 C876 1.390 . S
C872 C866 1.465 . S
C872 C871 1.396 . S
C872 C873 1.399 . S
C873 H859 0.929 . S
C873 C872 1.399 . S
C873 C874 1.385 . S
C874 H860 0.931 . S
C874 C873 1.385 . S
C874 C875 1.389 . S
C875 C874 1.389 . S
C875 C876 1.387 . S
C876 H861 0.930 . S
C876 C871 1.390 . S
C876 C875 1.387 . S
H877 C889 0.930 . S
H878 C891 0.930 . S
H879 C892 0.930 . S
H880 C896 0.959 . S
H881 C896 0.959 1_655 S
H882 C896 0.961 . S
H883 C897 0.960 . S
H884 C897 0.961 . S
H885 C897 0.959 . S
H886 C900 0.929 . S
H887 C901 0.931 . S
H888 C903 0.930 . S
C889 H877 0.930 . S
C889 C890 1.399 . S
C889 C894 1.399 1_455 S
C890 C889 1.399 . S
C890 C891 1.376 1_455 S
C891 H878 0.930 . S
C891 C890 1.376 1_655 S
C891 C892 1.388 . S
C892 H879 0.930 . S
C892 C891 1.388 . S
C892 C893 1.390 . S
C893 C892 1.390 . S
C893 C894 1.394 . S
C893 C899 1.465 . S
C894 C889 1.399 1_655 S
C894 C893 1.394 . S
C894 C895 1.516 . S
C895 C894 1.516 . S
C895 C896 1.502 1_655 S
C895 C897 1.561 . S
C895 C898 1.526 . S
C896 H880 0.959 . S
C896 H881 0.959 1_455 S
C896 H882 0.961 . S
C896 C895 1.502 1_455 S
C897 H883 0.960 . S
C897 H884 0.961 . S
C897 H885 0.959 . S
C897 C895 1.561 . S
C898 C895 1.526 . S
C898 C899 1.396 . S
C898 C903 1.390 . S
C899 C893 1.465 . S
C899 C898 1.396 . S
C899 C900 1.399 . S
C900 H886 0.929 . S
C900 C899 1.399 . S
C900 C901 1.385 . S
C901 H887 0.931 . S
C901 C900 1.385 . S
C901 C902 1.389 . S
C902 C901 1.389 . S
C902 C903 1.387 . S
C903 H888 0.930 . S
C903 C898 1.390 . S
C903 C902 1.387 . S
C485 C3 1.568 . S
C497 C239 1.552 . S
C512 C62 1.557 . S
C524 C298 1.568 . S
C539 C357 1.543 . S
C551 C121 1.557 . S
C566 C416 1.556 . S
C578 C180 1.568 . S
C593 C5 1.601 . S
C605 C123 1.559 . S
C620 C64 1.598 . S
C632 C182 1.563 . S
C647 C359 1.593 . S
C659 C241 1.572 . S
C674 C300 1.561 . S
C686 C418 1.565 . S
C701 C328 0.924 . S
C713 C33 0.987 . S
C728 C92 0.945 . S
C740 C387 0.900 . S
C755 C446 0.966 . S
C767 C151 0.905 . S
C782 C210 0.951 . S
C794 C269 0.900 . S
C809 C406 1.726 . S
C821 C229 1.749 . S
C836 C52 1.754 . S
C848 C465 1.732 . S
C863 C111 1.727 . S
C875 C288 1.746 . S
C890 C347 1.735 . S
C902 C170 1.736 . S
