# Generated by pormake.
# Topology uog, (4)-cn, num edge types: 1
# Building blocks:
#     Node 0, Type 0, BuildingBlock: GALJAG_clean_sbu_0, # of connection points: 4
#     Node 1, Type 0, BuildingBlock: GALJAG_clean_sbu_0, # of connection points: 4
#     Node 2, Type 0, BuildingBlock: GALJAG_clean_sbu_0, # of connection points: 4
#     Node 3, Type 0, BuildingBlock: GALJAG_clean_sbu_0, # of connection points: 4
#     Node 4, Type 0, BuildingBlock: GALJAG_clean_sbu_0, # of connection points: 4
#     Node 5, Type 0, BuildingBlock: GALJAG_clean_sbu_0, # of connection points: 4
#     Edge 6, Type (0, 0), BuildingBlock: XUDNAN_clean_linker_2, # of connection points: 2
#     Edge 7, Type (0, 0), BuildingBlock: XUDNAN_clean_linker_2, # of connection points: 2
#     Edge 8, Type (0, 0), BuildingBlock: XUDNAN_clean_linker_2, # of connection points: 2
#     Edge 9, Type (0, 0), BuildingBlock: XUDNAN_clean_linker_2, # of connection points: 2
#     Edge 10, Type (0, 0), BuildingBlock: XUDNAN_clean_linker_2, # of connection points: 2
#     Edge 11, Type (0, 0), BuildingBlock: XUDNAN_clean_linker_2, # of connection points: 2
#     Edge 12, Type (0, 0), BuildingBlock: XUDNAN_clean_linker_2, # of connection points: 2
#     Edge 13, Type (0, 0), BuildingBlock: XUDNAN_clean_linker_2, # of connection points: 2
#     Edge 14, Type (0, 0), BuildingBlock: XUDNAN_clean_linker_2, # of connection points: 2
#     Edge 15, Type (0, 0), BuildingBlock: XUDNAN_clean_linker_2, # of connection points: 2
#     Edge 16, Type (0, 0), BuildingBlock: XUDNAN_clean_linker_2, # of connection points: 2
#     Edge 17, Type (0, 0), BuildingBlock: XUDNAN_clean_linker_2, # of connection points: 2
# Relax obj value: 0.035
# Max RMSD: 0.144
# Mean RMSD: 0.144
data_MOF--net-uog--node1-GALJAG_clean_sbu_0--edge1-XUDNAN_clean_linker_2
_symmetry_space_group_name_H-M    P1
_symmetry_Int_Tables_number       1
_symmetry_cell_setting            triclinic
loop_
_symmetry_equiv_pos_as_xyz
'x, y, z'
_cell_length_a     28.957261
_cell_length_b     28.841359
_cell_length_c     42.536321
_cell_angle_alpha  90.094397
_cell_angle_beta   89.998071
_cell_angle_gamma 120.08526
loop_
_atom_site_label
_atom_site_type_symbol
_atom_site_fract_x
_atom_site_fract_y
_atom_site_fract_z
_atom_type_partial_charge
In0 In 0.5804 0.29275 0.17335 0.0
O1 O 0.5444 0.32842 0.20647 0.0
O2 O 0.52557 0.32603 0.15838 0.0
C3 C 0.52304 0.18573 0.18401 0.0
C4 C 0.66352 0.32221 0.21291 0.0
C5 C 0.62686 0.32029 0.11612 0.0
O6 O 0.52445 0.20551 0.15733 0.0
O7 O 0.54495 0.22005 0.20551 0.0
O8 O 0.63695 0.35451 0.13744 0.0
O9 O 0.59465 0.27268 0.12394 0.0
C10 C 0.52293 0.34208 0.18555 0.0
O11 O 0.64295 0.27908 0.19752 0.0
O12 O 0.64571 0.35277 0.20587 0.0
In13 In 0.30953 0.57934 0.48811 0.0
O14 O 0.33686 0.63856 0.52911 0.0
O15 O 0.31801 0.55766 0.53751 0.0
C16 C 0.3071 0.61933 0.43206 0.0
C17 C 0.20379 0.52944 0.49558 0.0
C18 C 0.39334 0.56704 0.47592 0.0
O19 O 0.32448 0.64901 0.45632 0.0
O20 O 0.29202 0.57038 0.43639 0.0
O21 O 0.34653 0.52688 0.47851 0.0
O22 O 0.39684 0.61232 0.47903 0.0
C23 C 0.33325 0.60372 0.54873 0.0
O24 O 0.22747 0.50316 0.4902 0.0
O25 O 0.23371 0.57965 0.49747 0.0
In26 In 0.6972 0.29927 0.83055 0.0
O27 O 0.68338 0.34748 0.86797 0.0
O28 O 0.69994 0.28618 0.88257 0.0
C29 C 0.67654 0.3278 0.77464 0.0
C30 C 0.6131 0.1989 0.8325 0.0
C31 C 0.80454 0.35051 0.82578 0.0
O32 O 0.67291 0.34895 0.79997 0.0
O33 O 0.6905 0.29311 0.77788 0.0
O34 O 0.77592 0.30208 0.81726 0.0
O35 O 0.77926 0.37165 0.83705 0.0
C36 C 0.68999 0.32259 0.89048 0.0
O37 O 0.66066 0.20764 0.83152 0.0
O38 O 0.60893 0.24045 0.83257 0.0
In39 In 0.42459 0.71545 0.16236 0.0
O40 O 0.48688 0.69302 0.17811 0.0
O41 O 0.40979 0.6304 0.16417 0.0
C42 C 0.46889 0.82279 0.16248 0.0
C43 C 0.36591 0.70136 0.21397 0.0
C44 C 0.40761 0.69996 0.1005 0.0
O45 O 0.49408 0.8 0.17206 0.0
O46 O 0.42309 0.79162 0.15134 0.0
O47 O 0.37037 0.69139 0.11949 0.0
O48 O 0.45303 0.71665 0.11283 0.0
C49 C 0.45576 0.64322 0.17402 0.0
O50 O 0.34418 0.67591 0.18891 0.0
O51 O 0.41564 0.73182 0.21273 0.0
In52 In 0.73241 0.42662 0.49257 0.0
O53 O 0.82318 0.47926 0.49671 0.0
O54 O 0.78673 0.39439 0.50315 0.0
C55 C 0.67476 0.47317 0.48045 0.0
C56 C 0.69937 0.40644 0.55196 0.0
C57 C 0.72411 0.38853 0.43456 0.0
O58 O 0.72522 0.50058 0.48369 0.0
O59 O 0.65444 0.42289 0.48296 0.0
O60 O 0.70031 0.35728 0.45749 0.0
O61 O 0.75082 0.43788 0.44124 0.0
C62 C 0.8293 0.43925 0.50198 0.0
O63 O 0.68496 0.36869 0.53205 0.0
O64 O 0.73049 0.45316 0.54176 0.0
In65 In 0.28367 0.70848 0.82302 0.0
O66 O 0.28771 0.79032 0.82801 0.0
O67 O 0.35988 0.78884 0.82293 0.0
C68 C 0.1764 0.64075 0.818 0.0
C69 C 0.31388 0.68946 0.87877 0.0
C70 C 0.31499 0.68333 0.76926 0.0
O71 O 0.20278 0.67622 0.79779 0.0
O72 O 0.20325 0.64125 0.84135 0.0
O73 O 0.31261 0.65998 0.79488 0.0
O74 O 0.30206 0.71895 0.77113 0.0
C75 C 0.33815 0.8169 0.82635 0.0
O76 O 0.32986 0.6801 0.85308 0.0
O77 O 0.2823 0.70752 0.8761 0.0
H78 H 0.4709 0.10007 0.14312 0.0
H79 H 0.55038 0.14553 0.23379 0.0
H80 H 0.54844 0.05936 0.23675 0.0
H81 H 0.38305 0.95674 0.16382 0.0
H82 H 0.38605 0.93422 0.12471 0.0
H83 H 0.39172 0.99878 0.13043 0.0
H84 H 0.48139 0.04306 0.10017 0.0
H85 H 0.47665 0.97882 0.09502 0.0
H86 H 0.53473 0.0329 0.11355 0.0
H87 H 0.54794 0.97333 0.22713 0.0
H88 H 0.53107 0.88375 0.21097 0.0
H89 H 0.44473 0.88924 0.12908 0.0
C90 C 0.48663 0.09125 0.16393 0.0
C91 C 0.51071 0.12962 0.18824 0.0
C92 C 0.53127 0.11672 0.21498 0.0
C93 C 0.53087 0.06801 0.21677 0.0
C94 C 0.50876 0.03195 0.19193 0.0
C95 C 0.48547 0.04209 0.16647 0.0
C96 C 0.46334 0.99568 0.14335 0.0
C97 C 0.40242 0.96982 0.14042 0.0
C98 C 0.49067 0.01372 0.11112 0.0
C99 C 0.4787 0.9585 0.15956 0.0
C100 C 0.50575 0.98071 0.18727 0.0
C101 C 0.52611 0.95513 0.20571 0.0
C102 C 0.5169 0.90457 0.19618 0.0
C103 C 0.48673 0.87973 0.16881 0.0
C104 C 0.46794 0.9074 0.15013 0.0
H105 H 0.40085 0.47561 0.47628 0.0
H106 H 0.4949 0.64838 0.46602 0.0
H107 H 0.57699 0.64285 0.46282 0.0
H108 H 0.49094 0.46242 0.52561 0.0
H109 H 0.47983 0.40027 0.50874 0.0
H110 H 0.42781 0.41706 0.50743 0.0
H111 H 0.42251 0.40606 0.44682 0.0
H112 H 0.47442 0.38897 0.44797 0.0
H113 H 0.48206 0.44346 0.42361 0.0
H114 H 0.64967 0.61955 0.46485 0.0
H115 H 0.70717 0.57924 0.47083 0.0
H116 H 0.56592 0.42195 0.47923 0.0
C117 C 0.43862 0.51212 0.47281 0.0
C118 C 0.44146 0.56238 0.47131 0.0
C119 C 0.49173 0.60938 0.46718 0.0
C120 C 0.53864 0.60669 0.46529 0.0
C121 C 0.53466 0.55667 0.46742 0.0
C122 C 0.48594 0.51017 0.47089 0.0
C123 C 0.49302 0.46181 0.47405 0.0
C124 C 0.47164 0.43377 0.50585 0.0
C125 C 0.46643 0.42277 0.44646 0.0
C126 C 0.55327 0.48855 0.47242 0.0
C127 C 0.57658 0.54325 0.46843 0.0
C128 C 0.63188 0.57666 0.46762 0.0
C129 C 0.66421 0.55349 0.47109 0.0
C130 C 0.64104 0.49754 0.47532 0.0
C131 C 0.58485 0.46483 0.47572 0.0
H132 H 0.88136 0.41641 0.86711 0.0
H133 H 0.85642 0.3607 0.77065 0.0
H134 H 0.94928 0.43033 0.75771 0.0
H135 H 0.95956 0.55297 0.8534 0.0
H136 H 0.00513 0.56726 0.88567 0.0
H137 H 0.93819 0.51118 0.88793 0.0
H138 H 0.9745 0.44676 0.89819 0.0
H139 H 0.04162 0.50284 0.89672 0.0
H140 H 0.02221 0.44589 0.87133 0.0
H141 H 0.0404 0.5144 0.75419 0.0
H142 H 0.12966 0.59429 0.76231 0.0
H143 H 0.09852 0.5888 0.8623 0.0
C144 C 0.89613 0.41803 0.8435 0.0
C145 C 0.8623 0.38315 0.81986 0.0
C146 C 0.88231 0.38656 0.78912 0.0
C147 C 0.93471 0.4263 0.78155 0.0
C148 C 0.96672 0.46126 0.80523 0.0
C149 C 0.94876 0.4563 0.83583 0.0
C150 C 0.99134 0.4983 0.85701 0.0
C151 C 0.9724 0.53456 0.87186 0.0
C152 C 0.00844 0.47187 0.8823 0.0
C153 C 0.03555 0.52876 0.8334 0.0
C154 C 0.02028 0.5073 0.80356 0.0
C155 C 0.05314 0.53084 0.77755 0.0
C156 C 0.10347 0.57649 0.78232 0.0
C157 C 0.12082 0.59742 0.8129 0.0
C158 C 0.08626 0.57331 0.8387 0.0
H159 H 0.14652 0.58069 0.49573 0.0
H160 H 0.12925 0.42258 0.50198 0.0
H161 H 0.03124 0.3827 0.50694 0.0
H162 H 0.04242 0.55932 0.55049 0.0
H163 H 0.02093 0.59793 0.52789 0.0
H164 H 0.08951 0.61384 0.52625 0.0
H165 H 0.08313 0.60365 0.4656 0.0
H166 H 0.01464 0.58789 0.46704 0.0
H167 H 0.03155 0.5422 0.44838 0.0
H168 H 0.93553 0.36072 0.51065 0.0
H169 H 0.84857 0.35682 0.50989 0.0
H170 H 0.92885 0.52972 0.49963 0.0
C171 C 0.12222 0.53766 0.49838 0.0
C172 C 0.14536 0.5046 0.4987 0.0
C173 C 0.1122 0.44851 0.50176 0.0
C174 C 0.05665 0.42563 0.50468 0.0
C175 C 0.03518 0.45951 0.50428 0.0
C176 C 0.06696 0.51428 0.50101 0.0
C177 C 0.03403 0.54173 0.49994 0.0
C178 C 0.04753 0.58049 0.52781 0.0
C179 C 0.04127 0.57055 0.46836 0.0
C180 C 0.97849 0.49379 0.503 0.0
C181 C 0.9801 0.44681 0.50575 0.0
C182 C 0.93383 0.39723 0.50855 0.0
C183 C 0.88463 0.39551 0.50812 0.0
C184 C 0.88196 0.44303 0.5047 0.0
C185 C 0.92964 0.49281 0.50239 0.0
H186 H 0.44659 0.8789 0.82296 0.0
H187 H 0.30271 0.88856 0.83435 0.0
H188 H 0.35784 0.98749 0.83784 0.0
H189 H 0.52888 0.98505 0.87661 0.0
H190 H 0.58828 0.00923 0.85305 0.0
H191 H 0.53751 0.93952 0.85152 0.0
H192 H 0.53081 0.9459 0.7911 0.0
H193 H 0.58161 0.01561 0.79242 0.0
H194 H 0.5177 0.99588 0.77487 0.0
H195 H 0.42887 0.08515 0.83959 0.0
H196 H 0.50982 0.17442 0.83938 0.0
H197 H 0.60774 0.10085 0.82715 0.0
C198 C 0.42656 0.90175 0.8262 0.0
C199 C 0.37027 0.87607 0.82838 0.0
C200 C 0.34571 0.90743 0.83261 0.0
C201 C 0.37672 0.96357 0.83463 0.0
C202 C 0.43214 0.98755 0.83241 0.0
C203 C 0.45682 0.95761 0.82828 0.0
C204 C 0.51698 0.99304 0.82641 0.0
C205 C 0.54452 0.98099 0.85352 0.0
C206 C 0.53799 0.98726 0.79429 0.0
C207 C 0.52248 0.04782 0.83012 0.0
C208 C 0.47303 0.0437 0.83354 0.0
C209 C 0.46773 0.08879 0.83699 0.0
C210 C 0.51404 0.13936 0.83682 0.0
C211 C 0.56518 0.14466 0.83328 0.0
C212 C 0.56929 0.09811 0.83002 0.0
H213 H 0.4329 0.55439 0.13939 0.0
H214 H 0.51137 0.63974 0.22478 0.0
H215 H 0.52938 0.56697 0.23911 0.0
H216 H 0.3733 0.41966 0.16879 0.0
H217 H 0.38695 0.39295 0.13393 0.0
H218 H 0.37758 0.45004 0.13109 0.0
H219 H 0.46966 0.50486 0.10403 0.0
H220 H 0.47891 0.4477 0.10635 0.0
H221 H 0.52819 0.51097 0.12294 0.0
H222 H 0.53493 0.48311 0.24508 0.0
H223 H 0.54384 0.40317 0.23813 0.0
H224 H 0.46994 0.37611 0.14606 0.0
C225 C 0.45392 0.55759 0.16108 0.0
C226 C 0.47051 0.60225 0.1812 0.0
C227 C 0.49858 0.60581 0.20911 0.0
C228 C 0.50851 0.5645 0.21751 0.0
C229 C 0.49106 0.52058 0.19736 0.0
C230 C 0.4656 0.51752 0.16932 0.0
C231 C 0.45479 0.46807 0.15072 0.0
C232 C 0.39457 0.43046 0.14585 0.0
C233 C 0.48468 0.48385 0.11915 0.0
C234 C 0.47784 0.44354 0.17278 0.0
C235 C 0.49746 0.47395 0.19983 0.0
C236 C 0.52007 0.45925 0.22391 0.0
C237 C 0.52457 0.41343 0.2198 0.0
C238 C 0.50756 0.38326 0.19155 0.0
C239 C 0.48303 0.39814 0.16798 0.0
H240 H 0.66723 0.25569 0.94025 0.0
H241 H 0.70413 0.41645 0.91544 0.0
H242 H 0.69937 0.43634 0.9717 0.0
H243 H 0.57025 0.23514 -0.00202 0.0
H244 H 0.58735 0.19606 0.02341 0.0
H245 H 0.598 0.19663 0.98171 0.0
H246 H 0.69765 0.22738 0.99163 0.0
H247 H 0.68735 0.22728 0.0334 0.0
H248 H 0.73808 0.28709 0.01443 0.0
H249 H 0.69016 0.43786 0.031 0.0
H250 H 0.66699 0.41778 0.08732 0.0
H251 H 0.63091 0.25429 0.07184 0.0
C252 C 0.6748 0.29525 0.94671 0.0
C253 C 0.68652 0.33479 0.92372 0.0
C254 C 0.69513 0.38572 0.93286 0.0
C255 C 0.69284 0.39741 0.9647 0.0
C256 C 0.68128 0.35746 0.98687 0.0
C257 C 0.6717 0.30718 0.97818 0.0
C258 C 0.65622 0.26996 0.0061 0.0
C259 C 0.5996 0.22162 0.00205 0.0
C260 C 0.69729 0.25189 0.01171 0.0
C261 C 0.65826 0.30699 0.03192 0.0
C262 C 0.67369 0.35758 0.02054 0.0
C263 C 0.67803 0.39839 0.04015 0.0
C264 C 0.66506 0.38674 0.07207 0.0
C265 C 0.64716 0.33453 0.08376 0.0
C266 C 0.64449 0.29455 0.06347 0.0
H267 H 0.30514 0.6095 0.24663 0.0
H268 H 0.37003 0.78111 0.24899 0.0
H269 H 0.34718 0.77621 0.30524 0.0
H270 H 0.19807 0.57274 0.31059 0.0
H271 H 0.211 0.52206 0.32585 0.0
H272 H 0.21779 0.53662 0.28434 0.0
H273 H 0.31452 0.5538 0.28638 0.0
H274 H 0.30861 0.54052 0.32784 0.0
H275 H 0.36173 0.6034 0.31322 0.0
H276 H 0.33614 0.75631 0.36232 0.0
H277 H 0.33344 0.72172 0.41586 0.0
H278 H 0.27784 0.56314 0.37708 0.0
C279 C 0.31137 0.64529 0.25869 0.0
C280 C 0.33767 0.6954 0.24359 0.0
C281 C 0.34852 0.74225 0.26024 0.0
C282 C 0.33581 0.73982 0.29216 0.0
C283 C 0.31252 0.6902 0.30705 0.0
C284 C 0.29968 0.64355 0.2908 0.0
C285 C 0.28289 0.59698 0.31316 0.0
C286 C 0.22392 0.5546 0.30819 0.0
C287 C 0.31912 0.57229 0.30995 0.0
C288 C 0.29119 0.62535 0.34441 0.0
C289 C 0.30724 0.67883 0.3404 0.0
C290 C 0.32227 0.71418 0.36581 0.0
C291 C 0.32099 0.69433 0.3961 0.0
C292 C 0.30525 0.63981 0.40058 0.0
C293 C 0.28941 0.60492 0.37441 0.0
H294 H 0.66613 0.27558 0.71952 0.0
H295 H 0.668 0.4154 0.75884 0.0
H296 H 0.66301 0.44557 0.70512 0.0
H297 H 0.7492 0.33854 0.65688 0.0
H298 H 0.71472 0.28441 0.62922 0.0
H299 H 0.7111 0.27038 0.67059 0.0
H300 H 0.6078 0.22137 0.66812 0.0
H301 H 0.61106 0.23508 0.6266 0.0
H302 H 0.57526 0.25568 0.65242 0.0
H303 H 0.67143 0.46664 0.64759 0.0
H304 H 0.68821 0.47529 0.59038 0.0
H305 H 0.67644 0.31945 0.58845 0.0
C306 C 0.66438 0.31202 0.71687 0.0
C307 C 0.66747 0.34329 0.74324 0.0
C308 C 0.66538 0.3908 0.7389 0.0
C309 C 0.66249 0.40814 0.70851 0.0
C310 C 0.66079 0.37693 0.68294 0.0
C311 C 0.66095 0.32948 0.68685 0.0
C312 C 0.66242 0.30511 0.65556 0.0
C313 C 0.71233 0.29931 0.65292 0.0
C314 C 0.61106 0.25111 0.65037 0.0
C315 C 0.66528 0.34737 0.63336 0.0
C316 C 0.66392 0.38829 0.64963 0.0
C317 C 0.67127 0.43431 0.63455 0.0
C318 C 0.68099 0.43895 0.60213 0.0
C319 C 0.68287 0.39768 0.58514 0.0
C320 C 0.67378 0.35087 0.60084 0.0
H321 H 0.27189 0.68983 0.9361 0.0
H322 H 0.39814 0.67438 0.89129 0.0
H323 H 0.43356 0.67073 0.94361 0.0
H324 H 0.34821 0.77437 -0.00229 0.0
H325 H 0.29642 0.74403 0.02694 0.0
H326 H 0.27901 0.74172 0.98613 0.0
H327 H 0.22181 0.63815 0.98873 0.0
H328 H 0.2388 0.64014 0.02965 0.0
H329 H 0.25168 0.60004 0.00239 0.0
H330 H 0.45981 0.67761 0.00056 0.0
H331 H 0.4716 0.68812 0.05817 0.0
H332 H 0.32559 0.69469 0.06571 0.0
C333 C 0.3066 0.68498 0.9373 0.0
C334 C 0.33241 0.68243 0.90974 0.0
C335 C 0.3777 0.67614 0.91219 0.0
C336 C 0.3981 0.67412 0.94176 0.0
C337 C 0.37219 0.67766 0.96852 0.0
C338 C 0.32701 0.68224 0.96655 0.0
C339 C 0.30734 0.68652 -0.00119 0.0
C340 C 0.3078 0.73983 0.00261 0.0
C341 C 0.2516 0.63833 0.00527 0.0
C342 C 0.34924 0.68493 0.01926 0.0
C343 C 0.38634 0.67987 0.00134 0.0
C344 C 0.43057 0.68074 0.01486 0.0
C345 C 0.43704 0.68694 0.04754 0.0
C346 C 0.39925 0.69175 0.0663 0.0
C347 C 0.35461 0.69025 0.05195 0.0
H348 H 0.73915 0.44627 0.38159 0.0
H349 H 0.70252 0.28914 0.41422 0.0
H350 H 0.70032 0.26037 0.35895 0.0
H351 H 0.64944 0.39953 0.31903 0.0
H352 H 0.69057 0.4547 0.29336 0.0
H353 H 0.6967 0.46402 0.33523 0.0
H354 H 0.79801 0.49744 0.33097 0.0
H355 H 0.79181 0.48713 0.28901 0.0
H356 H 0.81986 0.45539 0.31256 0.0
H357 H 0.69676 0.24773 0.30012 0.0
H358 H 0.6762 0.24637 0.24375 0.0
H359 H 0.71141 0.41102 0.25024 0.0
C360 C 0.73154 0.40605 0.37711 0.0
C361 C 0.72158 0.36998 0.402 0.0
C362 C 0.71035 0.31729 0.39534 0.0
C363 C 0.70963 0.30091 0.36411 0.0
C364 C 0.71992 0.33771 0.34002 0.0
C365 C 0.72983 0.38894 0.34624 0.0
C366 C 0.73294 0.41874 0.31637 0.0
C367 C 0.68984 0.43516 0.31598 0.0
C368 C 0.789 0.46757 0.31198 0.0
C369 C 0.72174 0.3758 0.29225 0.0
C370 C 0.71587 0.32987 0.30625 0.0
C371 C 0.70182 0.28363 0.28889 0.0
C372 C 0.69061 0.2834 0.25679 0.0
C373 C 0.69243 0.32873 0.24263 0.0
C374 C 0.71051 0.37613 0.26033 0.0
H375 H 0.32196 0.72957 0.71236 0.0
H376 H 0.33831 0.60373 0.75752 0.0
H377 H 0.35428 0.57546 0.7056 0.0
H378 H 0.24965 0.65494 0.64762 0.0
H379 H 0.28041 0.70915 0.61979 0.0
H380 H 0.27661 0.72326 0.6606 0.0
H381 H 0.37919 0.78629 0.66217 0.0
H382 H 0.38332 0.77245 0.62125 0.0
H383 H 0.42235 0.76127 0.65007 0.0
H384 H 0.35865 0.55522 0.64874 0.0
H385 H 0.35205 0.54461 0.59107 0.0
H386 H 0.33441 0.68488 0.58304 0.0
C387 C 0.32989 0.69667 0.71143 0.0
C388 C 0.32911 0.66886 0.73892 0.0
C389 C 0.33902 0.62568 0.73672 0.0
C390 C 0.34822 0.60946 0.70737 0.0
C391 C 0.34779 0.63722 0.68064 0.0
C392 C 0.3392 0.68013 0.68244 0.0
C393 C 0.33713 0.70095 0.65011 0.0
C394 C 0.28272 0.69679 0.6442 0.0
C395 C 0.38326 0.75866 0.64565 0.0
C396 C 0.3444 0.66208 0.62971 0.0
C397 C 0.35091 0.62591 0.6478 0.0
C398 C 0.35447 0.58381 0.63435 0.0
C399 C 0.35053 0.57805 0.6016 0.0
C400 C 0.34318 0.61423 0.58269 0.0
C401 C 0.34108 0.65732 0.59692 0.0
loop_
_geom_bond_atom_site_label_1
_geom_bond_atom_site_label_2
_geom_bond_distance
_geom_bond_site_symmetry_2
_ccdc_geom_bond_type
In0 O1 2.294 . S
In0 O2 2.326 . S
In0 O6 2.266 . S
In0 O7 2.326 . S
In0 O8 2.266 . S
In0 O9 2.326 . S
In0 O11 2.294 . S
In0 O12 2.326 . S
O1 In0 2.294 . S
O1 C10 1.240 . S
O2 In0 2.326 . S
O2 C10 1.252 . S
C3 O6 1.252 . S
C3 O7 1.260 . S
C4 O11 1.240 . S
C4 O12 1.252 . S
C5 O8 1.252 . S
C5 O9 1.260 . S
O6 In0 2.266 . S
O6 C3 1.252 . S
O7 In0 2.326 . S
O7 C3 1.260 . S
O8 In0 2.266 . S
O8 C5 1.252 . S
O9 In0 2.326 . S
O9 C5 1.260 . S
C10 O1 1.240 . S
C10 O2 1.252 . S
O11 In0 2.294 . S
O11 C4 1.240 . S
O12 In0 2.326 . S
O12 C4 1.252 . S
In13 O14 2.294 . S
In13 O15 2.326 . S
In13 O19 2.266 . S
In13 O20 2.326 . S
In13 O21 2.266 . S
In13 O22 2.326 . S
In13 O24 2.294 . S
In13 O25 2.326 . S
O14 In13 2.294 . S
O14 C23 1.240 . S
O15 In13 2.326 . S
O15 C23 1.252 . S
C16 O19 1.252 . S
C16 O20 1.260 . S
C17 O24 1.240 . S
C17 O25 1.252 . S
C18 O21 1.252 . S
C18 O22 1.260 . S
O19 In13 2.266 . S
O19 C16 1.252 . S
O20 In13 2.326 . S
O20 C16 1.260 . S
O21 In13 2.266 . S
O21 C18 1.252 . S
O22 In13 2.326 . S
O22 C18 1.260 . S
C23 O14 1.240 . S
C23 O15 1.252 . S
O24 In13 2.294 . S
O24 C17 1.240 . S
O25 In13 2.326 . S
O25 C17 1.252 . S
In26 O27 2.294 . S
In26 O28 2.326 . S
In26 O32 2.266 . S
In26 O33 2.326 . S
In26 O34 2.266 . S
In26 O35 2.326 . S
In26 O37 2.294 . S
In26 O38 2.326 . S
O27 In26 2.294 . S
O27 C36 1.240 . S
O28 In26 2.326 . S
O28 C36 1.252 . S
C29 O32 1.252 . S
C29 O33 1.260 . S
C30 O37 1.240 . S
C30 O38 1.252 . S
C31 O34 1.252 . S
C31 O35 1.260 . S
O32 In26 2.266 . S
O32 C29 1.252 . S
O33 In26 2.326 . S
O33 C29 1.260 . S
O34 In26 2.266 . S
O34 C31 1.252 . S
O35 In26 2.326 . S
O35 C31 1.260 . S
C36 O27 1.240 . S
C36 O28 1.252 . S
O37 In26 2.294 . S
O37 C30 1.240 . S
O38 In26 2.326 . S
O38 C30 1.252 . S
In39 O40 2.294 . S
In39 O41 2.326 . S
In39 O45 2.266 . S
In39 O46 2.326 . S
In39 O47 2.266 . S
In39 O48 2.326 . S
In39 O50 2.294 . S
In39 O51 2.326 . S
O40 In39 2.294 . S
O40 C49 1.240 . S
O41 In39 2.326 . S
O41 C49 1.252 . S
C42 O45 1.252 . S
C42 O46 1.260 . S
C43 O50 1.240 . S
C43 O51 1.252 . S
C44 O47 1.252 . S
C44 O48 1.260 . S
O45 In39 2.266 . S
O45 C42 1.252 . S
O46 In39 2.326 . S
O46 C42 1.260 . S
O47 In39 2.266 . S
O47 C44 1.252 . S
O48 In39 2.326 . S
O48 C44 1.260 . S
C49 O40 1.240 . S
C49 O41 1.252 . S
O50 In39 2.294 . S
O50 C43 1.240 . S
O51 In39 2.326 . S
O51 C43 1.252 . S
In52 O53 2.294 . S
In52 O54 2.326 . S
In52 O58 2.266 . S
In52 O59 2.326 . S
In52 O60 2.266 . S
In52 O61 2.326 . S
In52 O63 2.294 . S
In52 O64 2.326 . S
O53 In52 2.294 . S
O53 C62 1.240 . S
O54 In52 2.326 . S
O54 C62 1.252 . S
C55 O58 1.252 . S
C55 O59 1.260 . S
C56 O63 1.240 . S
C56 O64 1.252 . S
C57 O60 1.252 . S
C57 O61 1.260 . S
O58 In52 2.266 . S
O58 C55 1.252 . S
O59 In52 2.326 . S
O59 C55 1.260 . S
O60 In52 2.266 . S
O60 C57 1.252 . S
O61 In52 2.326 . S
O61 C57 1.260 . S
C62 O53 1.240 . S
C62 O54 1.252 . S
O63 In52 2.294 . S
O63 C56 1.240 . S
O64 In52 2.326 . S
O64 C56 1.252 . S
In65 O66 2.294 . S
In65 O67 2.326 . S
In65 O71 2.266 . S
In65 O72 2.326 . S
In65 O73 2.266 . S
In65 O74 2.326 . S
In65 O76 2.294 . S
In65 O77 2.326 . S
O66 In65 2.294 . S
O66 C75 1.240 . S
O67 In65 2.326 . S
O67 C75 1.252 . S
C68 O71 1.252 . S
C68 O72 1.260 . S
C69 O76 1.240 . S
C69 O77 1.252 . S
C70 O73 1.252 . S
C70 O74 1.260 . S
O71 In65 2.266 . S
O71 C68 1.252 . S
O72 In65 2.326 . S
O72 C68 1.260 . S
O73 In65 2.266 . S
O73 C70 1.252 . S
O74 In65 2.326 . S
O74 C70 1.260 . S
C75 O66 1.240 . S
C75 O67 1.252 . S
O76 In65 2.294 . S
O76 C69 1.240 . S
O77 In65 2.326 . S
O77 C69 1.252 . S
H78 C90 0.930 . S
H79 C92 0.930 . S
H80 C93 0.930 . S
H81 C97 0.959 . S
H82 C97 0.959 . S
H83 C97 0.961 1_545 S
H84 C98 0.960 . S
H85 C98 0.961 1_565 S
H86 C98 0.959 . S
H87 C101 0.929 . S
H88 C102 0.931 . S
H89 C104 0.930 . S
C90 H78 0.930 . S
C90 C91 1.399 . S
C90 C95 1.399 . S
C91 C90 1.399 . S
C91 C92 1.376 . S
C92 H79 0.930 . S
C92 C91 1.376 . S
C92 C93 1.388 . S
C93 H80 0.930 . S
C93 C92 1.388 . S
C93 C94 1.390 . S
C94 C93 1.390 . S
C94 C95 1.394 . S
C94 C100 1.465 1_545 S
C95 C90 1.399 . S
C95 C94 1.394 . S
C95 C96 1.516 1_545 S
C96 C95 1.516 1_565 S
C96 C97 1.502 . S
C96 C98 1.561 1_565 S
C96 C99 1.526 . S
C97 H81 0.959 . S
C97 H82 0.959 . S
C97 H83 0.961 1_565 S
C97 C96 1.502 . S
C98 H84 0.960 . S
C98 H85 0.961 1_545 S
C98 H86 0.959 . S
C98 C96 1.561 1_545 S
C99 C96 1.526 . S
C99 C100 1.396 . S
C99 C104 1.390 . S
C100 C94 1.465 1_565 S
C100 C99 1.396 . S
C100 C101 1.399 . S
C101 H87 0.929 . S
C101 C100 1.399 . S
C101 C102 1.385 . S
C102 H88 0.931 . S
C102 C101 1.385 . S
C102 C103 1.389 . S
C103 C102 1.389 . S
C103 C104 1.387 . S
C104 H89 0.930 . S
C104 C99 1.390 . S
C104 C103 1.387 . S
H105 C117 0.930 . S
H106 C119 0.930 . S
H107 C120 0.930 . S
H108 C124 0.959 . S
H109 C124 0.959 . S
H110 C124 0.961 . S
H111 C125 0.960 . S
H112 C125 0.961 . S
H113 C125 0.959 . S
H114 C128 0.929 . S
H115 C129 0.931 . S
H116 C131 0.930 . S
C117 H105 0.930 . S
C117 C118 1.399 . S
C117 C122 1.399 . S
C118 C117 1.399 . S
C118 C119 1.376 . S
C119 H106 0.930 . S
C119 C118 1.376 . S
C119 C120 1.388 . S
C120 H107 0.930 . S
C120 C119 1.388 . S
C120 C121 1.390 . S
C121 C120 1.390 . S
C121 C122 1.394 . S
C121 C127 1.465 . S
C122 C117 1.399 . S
C122 C121 1.394 . S
C122 C123 1.516 . S
C123 C122 1.516 . S
C123 C124 1.502 . S
C123 C125 1.561 . S
C123 C126 1.526 . S
C124 H108 0.959 . S
C124 H109 0.959 . S
C124 H110 0.961 . S
C124 C123 1.502 . S
C125 H111 0.960 . S
C125 H112 0.961 . S
C125 H113 0.959 . S
C125 C123 1.561 . S
C126 C123 1.526 . S
C126 C127 1.396 . S
C126 C131 1.390 . S
C127 C121 1.465 . S
C127 C126 1.396 . S
C127 C128 1.399 . S
C128 H114 0.929 . S
C128 C127 1.399 . S
C128 C129 1.385 . S
C129 H115 0.931 . S
C129 C128 1.385 . S
C129 C130 1.389 . S
C130 C129 1.389 . S
C130 C131 1.387 . S
C131 H116 0.930 . S
C131 C126 1.390 . S
C131 C130 1.387 . S
H132 C144 0.930 . S
H133 C146 0.930 . S
H134 C147 0.930 . S
H135 C151 0.959 . S
H136 C151 0.959 . S
H137 C151 0.961 . S
H138 C152 0.960 1_655 S
H139 C152 0.961 . S
H140 C152 0.959 . S
H141 C155 0.929 . S
H142 C156 0.931 . S
H143 C158 0.930 . S
C144 H132 0.930 . S
C144 C145 1.399 . S
C144 C149 1.399 . S
C145 C144 1.399 . S
C145 C146 1.376 . S
C146 H133 0.930 . S
C146 C145 1.376 . S
C146 C147 1.388 . S
C147 H134 0.930 . S
C147 C146 1.388 . S
C147 C148 1.390 . S
C148 C147 1.390 . S
C148 C149 1.394 . S
C148 C154 1.465 1_655 S
C149 C144 1.399 . S
C149 C148 1.394 . S
C149 C150 1.516 . S
C150 C149 1.516 . S
C150 C151 1.502 . S
C150 C152 1.561 1_655 S
C150 C153 1.526 1_655 S
C151 H135 0.959 . S
C151 H136 0.959 . S
C151 H137 0.961 . S
C151 C150 1.502 . S
C152 H138 0.960 1_455 S
C152 H139 0.961 . S
C152 H140 0.959 . S
C152 C150 1.561 1_455 S
C153 C150 1.526 1_455 S
C153 C154 1.396 . S
C153 C158 1.390 . S
C154 C148 1.465 1_455 S
C154 C153 1.396 . S
C154 C155 1.399 . S
C155 H141 0.929 . S
C155 C154 1.399 . S
C155 C156 1.385 . S
C156 H142 0.931 . S
C156 C155 1.385 . S
C156 C157 1.389 . S
C157 C156 1.389 . S
C157 C158 1.387 . S
C158 H143 0.930 . S
C158 C153 1.390 . S
C158 C157 1.387 . S
H159 C171 0.930 . S
H160 C173 0.930 . S
H161 C174 0.930 . S
H162 C178 0.959 . S
H163 C178 0.959 1_655 S
H164 C178 0.961 . S
H165 C179 0.960 1_455 S
H166 C179 0.961 . S
H167 C179 0.959 . S
H168 C182 0.929 . S
H169 C183 0.931 . S
H170 C185 0.930 . S
C171 H159 0.930 . S
C171 C172 1.399 . S
C171 C176 1.399 . S
C172 C171 1.399 . S
C172 C173 1.376 . S
C173 H160 0.930 . S
C173 C172 1.376 . S
C173 C174 1.388 . S
C174 H161 0.930 . S
C174 C173 1.388 . S
C174 C175 1.390 . S
C175 C174 1.390 . S
C175 C176 1.394 . S
C175 C181 1.465 1_455 S
C176 C171 1.399 . S
C176 C175 1.394 . S
C176 C177 1.533 . S
C177 C176 1.533 . S
C177 C178 1.500 . S
C177 C179 1.563 1_455 S
C177 C180 1.509 1_455 S
C178 H162 0.959 . S
C178 H163 0.959 1_455 S
C178 H164 0.961 . S
C178 C177 1.500 . S
C179 H165 0.960 1_655 S
C179 H166 0.961 . S
C179 H167 0.959 . S
C179 C177 1.563 1_655 S
C180 C177 1.509 1_655 S
C180 C181 1.396 . S
C180 C185 1.390 . S
C181 C175 1.465 1_655 S
C181 C180 1.396 . S
C181 C182 1.399 . S
C182 H168 0.929 . S
C182 C181 1.399 . S
C182 C183 1.385 . S
C183 H169 0.931 . S
C183 C182 1.385 . S
C183 C184 1.389 . S
C184 C183 1.389 . S
C184 C185 1.387 . S
C185 H170 0.930 . S
C185 C180 1.390 . S
C185 C184 1.387 . S
H186 C198 0.930 . S
H187 C200 0.930 . S
H188 C201 0.930 . S
H189 C205 0.959 . S
H190 C205 0.959 . S
H191 C205 0.961 . S
H192 C206 0.960 1_565 S
H193 C206 0.961 . S
H194 C206 0.959 . S
H195 C209 0.929 . S
H196 C210 0.931 . S
H197 C212 0.930 . S
C198 H186 0.930 . S
C198 C199 1.399 . S
C198 C203 1.399 . S
C199 C198 1.399 . S
C199 C200 1.376 . S
C200 H187 0.930 . S
C200 C199 1.376 . S
C200 C201 1.388 . S
C201 H188 0.930 . S
C201 C200 1.388 . S
C201 C202 1.390 . S
C202 C201 1.390 . S
C202 C203 1.394 . S
C202 C208 1.465 1_565 S
C203 C198 1.399 . S
C203 C202 1.394 . S
C203 C204 1.516 . S
C204 C203 1.516 . S
C204 C205 1.502 . S
C204 C206 1.561 1_565 S
C204 C207 1.526 1_565 S
C205 H189 0.959 . S
C205 H190 0.959 . S
C205 H191 0.961 . S
C205 C204 1.502 . S
C206 H192 0.960 1_545 S
C206 H193 0.961 . S
C206 H194 0.959 . S
C206 C204 1.561 1_545 S
C207 C204 1.526 1_545 S
C207 C208 1.396 . S
C207 C212 1.390 . S
C208 C202 1.465 1_545 S
C208 C207 1.396 . S
C208 C209 1.399 . S
C209 H195 0.929 . S
C209 C208 1.399 . S
C209 C210 1.385 . S
C210 H196 0.931 . S
C210 C209 1.385 . S
C210 C211 1.389 . S
C211 C210 1.389 . S
C211 C212 1.387 . S
C212 H197 0.930 . S
C212 C207 1.390 . S
C212 C211 1.387 . S
H213 C225 0.930 . S
H214 C227 0.930 . S
H215 C228 0.930 . S
H216 C232 0.959 . S
H217 C232 0.959 . S
H218 C232 0.961 . S
H219 C233 0.960 . S
H220 C233 0.961 . S
H221 C233 0.959 . S
H222 C236 0.929 . S
H223 C237 0.931 . S
H224 C239 0.930 . S
C225 H213 0.930 . S
C225 C226 1.399 . S
C225 C230 1.399 . S
C226 C225 1.399 . S
C226 C227 1.376 . S
C227 H214 0.930 . S
C227 C226 1.376 . S
C227 C228 1.388 . S
C228 H215 0.930 . S
C228 C227 1.388 . S
C228 C229 1.390 . S
C229 C228 1.390 . S
C229 C230 1.394 . S
C229 C235 1.465 . S
C230 C225 1.399 . S
C230 C229 1.394 . S
C230 C231 1.516 . S
C231 C230 1.516 . S
C231 C232 1.502 . S
C231 C233 1.561 . S
C231 C234 1.526 . S
C232 H216 0.959 . S
C232 H217 0.959 . S
C232 H218 0.961 . S
C232 C231 1.502 . S
C233 H219 0.960 . S
C233 H220 0.961 . S
C233 H221 0.959 . S
C233 C231 1.561 . S
C234 C231 1.526 . S
C234 C235 1.396 . S
C234 C239 1.390 . S
C235 C229 1.465 . S
C235 C234 1.396 . S
C235 C236 1.399 . S
C236 H222 0.929 . S
C236 C235 1.399 . S
C236 C237 1.385 . S
C237 H223 0.931 . S
C237 C236 1.385 . S
C237 C238 1.389 . S
C238 C237 1.389 . S
C238 C239 1.387 . S
C239 H224 0.930 . S
C239 C234 1.390 . S
C239 C238 1.387 . S
H240 C252 0.930 . S
H241 C254 0.930 . S
H242 C255 0.930 . S
H243 C259 0.959 . S
H244 C259 0.962 1_554 S
H245 C259 0.958 . S
H246 C260 0.960 1_556 S
H247 C260 0.961 . S
H248 C260 0.959 . S
H249 C263 0.929 . S
H250 C264 0.931 . S
H251 C266 0.930 . S
C252 H240 0.930 . S
C252 C253 1.399 . S
C252 C257 1.399 . S
C253 C252 1.399 . S
C253 C254 1.376 . S
C254 H241 0.930 . S
C254 C253 1.376 . S
C254 C255 1.388 . S
C255 H242 0.930 . S
C255 C254 1.388 . S
C255 C256 1.390 . S
C256 C255 1.390 . S
C256 C257 1.394 . S
C256 C262 1.465 1_556 S
C257 C252 1.399 . S
C257 C256 1.394 . S
C257 C258 1.516 1_556 S
C258 C257 1.516 1_554 S
C258 C259 1.502 1_554 S
C258 C260 1.561 . S
C258 C261 1.526 . S
C259 H243 0.959 . S
C259 H244 0.962 1_556 S
C259 H245 0.958 . S
C259 C258 1.502 1_556 S
C260 H246 0.960 1_554 S
C260 H247 0.961 . S
C260 H248 0.959 . S
C260 C258 1.561 . S
C261 C258 1.526 . S
C261 C262 1.396 . S
C261 C266 1.390 . S
C262 C256 1.465 1_554 S
C262 C261 1.396 . S
C262 C263 1.399 . S
C263 H249 0.929 . S
C263 C262 1.399 . S
C263 C264 1.385 . S
C264 H250 0.931 . S
C264 C263 1.385 . S
C264 C265 1.389 . S
C265 C264 1.389 . S
C265 C266 1.387 . S
C266 H251 0.930 . S
C266 C261 1.390 . S
C266 C265 1.387 . S
H267 C279 0.930 . S
H268 C281 0.930 . S
H269 C282 0.930 . S
H270 C286 0.959 . S
H271 C286 0.959 . S
H272 C286 0.961 . S
H273 C287 0.960 . S
H274 C287 0.961 . S
H275 C287 0.959 . S
H276 C290 0.929 . S
H277 C291 0.931 . S
H278 C293 0.930 . S
C279 H267 0.930 . S
C279 C280 1.399 . S
C279 C284 1.399 . S
C280 C279 1.399 . S
C280 C281 1.376 . S
C281 H268 0.930 . S
C281 C280 1.376 . S
C281 C282 1.388 . S
C282 H269 0.930 . S
C282 C281 1.388 . S
C282 C283 1.390 . S
C283 C282 1.390 . S
C283 C284 1.394 . S
C283 C289 1.465 . S
C284 C279 1.399 . S
C284 C283 1.394 . S
C284 C285 1.516 . S
C285 C284 1.516 . S
C285 C286 1.502 . S
C285 C287 1.561 . S
C285 C288 1.526 . S
C286 H270 0.959 . S
C286 H271 0.959 . S
C286 H272 0.961 . S
C286 C285 1.502 . S
C287 H273 0.960 . S
C287 H274 0.961 . S
C287 H275 0.959 . S
C287 C285 1.561 . S
C288 C285 1.526 . S
C288 C289 1.396 . S
C288 C293 1.390 . S
C289 C283 1.465 . S
C289 C288 1.396 . S
C289 C290 1.399 . S
C290 H276 0.929 . S
C290 C289 1.399 . S
C290 C291 1.385 . S
C291 H277 0.931 . S
C291 C290 1.385 . S
C291 C292 1.389 . S
C292 C291 1.389 . S
C292 C293 1.387 . S
C293 H278 0.930 . S
C293 C288 1.390 . S
C293 C292 1.387 . S
H294 C306 0.930 . S
H295 C308 0.930 . S
H296 C309 0.930 . S
H297 C313 0.959 . S
H298 C313 0.959 . S
H299 C313 0.961 . S
H300 C314 0.960 . S
H301 C314 0.961 . S
H302 C314 0.959 . S
H303 C317 0.929 . S
H304 C318 0.931 . S
H305 C320 0.930 . S
C306 H294 0.930 . S
C306 C307 1.399 . S
C306 C311 1.399 . S
C307 C306 1.399 . S
C307 C308 1.376 . S
C308 H295 0.930 . S
C308 C307 1.376 . S
C308 C309 1.388 . S
C309 H296 0.930 . S
C309 C308 1.388 . S
C309 C310 1.390 . S
C310 C309 1.390 . S
C310 C311 1.394 . S
C310 C316 1.465 . S
C311 C306 1.399 . S
C311 C310 1.394 . S
C311 C312 1.516 . S
C312 C311 1.516 . S
C312 C313 1.502 . S
C312 C314 1.561 . S
C312 C315 1.526 . S
C313 H297 0.959 . S
C313 H298 0.959 . S
C313 H299 0.961 . S
C313 C312 1.502 . S
C314 H300 0.960 . S
C314 H301 0.961 . S
C314 H302 0.959 . S
C314 C312 1.561 . S
C315 C312 1.526 . S
C315 C316 1.396 . S
C315 C320 1.390 . S
C316 C310 1.465 . S
C316 C315 1.396 . S
C316 C317 1.399 . S
C317 H303 0.929 . S
C317 C316 1.399 . S
C317 C318 1.385 . S
C318 H304 0.931 . S
C318 C317 1.385 . S
C318 C319 1.389 . S
C319 C318 1.389 . S
C319 C320 1.387 . S
C320 H305 0.930 . S
C320 C315 1.390 . S
C320 C319 1.387 . S
H321 C333 0.930 . S
H322 C335 0.930 . S
H323 C336 0.930 . S
H324 C340 0.959 . S
H325 C340 0.959 . S
H326 C340 0.961 1_556 S
H327 C341 0.960 . S
H328 C341 0.961 1_554 S
H329 C341 0.959 . S
H330 C344 0.929 . S
H331 C345 0.931 . S
H332 C347 0.930 . S
C333 H321 0.930 . S
C333 C334 1.399 . S
C333 C338 1.399 . S
C334 C333 1.399 . S
C334 C335 1.376 . S
C335 H322 0.930 . S
C335 C334 1.376 . S
C335 C336 1.388 . S
C336 H323 0.930 . S
C336 C335 1.388 . S
C336 C337 1.390 . S
C337 C336 1.390 . S
C337 C338 1.394 . S
C337 C343 1.465 1_556 S
C338 C333 1.399 . S
C338 C337 1.394 . S
C338 C339 1.507 1_556 S
C339 C338 1.507 1_554 S
C339 C340 1.504 . S
C339 C341 1.559 1_554 S
C339 C342 1.535 . S
C340 H324 0.959 . S
C340 H325 0.959 . S
C340 H326 0.961 1_554 S
C340 C339 1.504 . S
C341 H327 0.960 . S
C341 H328 0.961 1_556 S
C341 H329 0.959 . S
C341 C339 1.559 1_556 S
C342 C339 1.535 . S
C342 C343 1.396 . S
C342 C347 1.390 . S
C343 C337 1.465 1_554 S
C343 C342 1.396 . S
C343 C344 1.399 . S
C344 H330 0.929 . S
C344 C343 1.399 . S
C344 C345 1.385 . S
C345 H331 0.931 . S
C345 C344 1.385 . S
C345 C346 1.389 . S
C346 C345 1.389 . S
C346 C347 1.387 . S
C347 H332 0.930 . S
C347 C342 1.390 . S
C347 C346 1.387 . S
H348 C360 0.930 . S
H349 C362 0.930 . S
H350 C363 0.930 . S
H351 C367 0.959 . S
H352 C367 0.959 . S
H353 C367 0.961 . S
H354 C368 0.960 . S
H355 C368 0.961 . S
H356 C368 0.959 . S
H357 C371 0.929 . S
H358 C372 0.931 . S
H359 C374 0.930 . S
C360 H348 0.930 . S
C360 C361 1.399 . S
C360 C365 1.399 . S
C361 C360 1.399 . S
C361 C362 1.376 . S
C362 H349 0.930 . S
C362 C361 1.376 . S
C362 C363 1.388 . S
C363 H350 0.930 . S
C363 C362 1.388 . S
C363 C364 1.390 . S
C364 C363 1.390 . S
C364 C365 1.394 . S
C364 C370 1.465 . S
C365 C360 1.399 . S
C365 C364 1.394 . S
C365 C366 1.516 . S
C366 C365 1.516 . S
C366 C367 1.502 . S
C366 C368 1.561 . S
C366 C369 1.526 . S
C367 H351 0.959 . S
C367 H352 0.959 . S
C367 H353 0.961 . S
C367 C366 1.502 . S
C368 H354 0.960 . S
C368 H355 0.961 . S
C368 H356 0.959 . S
C368 C366 1.561 . S
C369 C366 1.526 . S
C369 C370 1.396 . S
C369 C374 1.390 . S
C370 C364 1.465 . S
C370 C369 1.396 . S
C370 C371 1.399 . S
C371 H357 0.929 . S
C371 C370 1.399 . S
C371 C372 1.385 . S
C372 H358 0.931 . S
C372 C371 1.385 . S
C372 C373 1.389 . S
C373 C372 1.389 . S
C373 C374 1.387 . S
C374 H359 0.930 . S
C374 C369 1.390 . S
C374 C373 1.387 . S
H375 C387 0.930 . S
H376 C389 0.930 . S
H377 C390 0.930 . S
H378 C394 0.959 . S
H379 C394 0.959 . S
H380 C394 0.961 . S
H381 C395 0.960 . S
H382 C395 0.961 . S
H383 C395 0.959 . S
H384 C398 0.929 . S
H385 C399 0.931 . S
H386 C401 0.930 . S
C387 H375 0.930 . S
C387 C388 1.399 . S
C387 C392 1.399 . S
C388 C387 1.399 . S
C388 C389 1.376 . S
C389 H376 0.930 . S
C389 C388 1.376 . S
C389 C390 1.388 . S
C390 H377 0.930 . S
C390 C389 1.388 . S
C390 C391 1.390 . S
C391 C390 1.390 . S
C391 C392 1.394 . S
C391 C397 1.465 . S
C392 C387 1.399 . S
C392 C391 1.394 . S
C392 C393 1.516 . S
C393 C392 1.516 . S
C393 C394 1.502 . S
C393 C395 1.561 . S
C393 C396 1.526 . S
C394 H378 0.959 . S
C394 H379 0.959 . S
C394 H380 0.961 . S
C394 C393 1.502 . S
C395 H381 0.960 . S
C395 H382 0.961 . S
C395 H383 0.959 . S
C395 C393 1.561 . S
C396 C393 1.526 . S
C396 C397 1.396 . S
C396 C401 1.390 . S
C397 C391 1.465 . S
C397 C396 1.396 . S
C397 C398 1.399 . S
C398 H384 0.929 . S
C398 C397 1.399 . S
C398 C399 1.385 . S
C399 H385 0.931 . S
C399 C398 1.385 . S
C399 C400 1.389 . S
C400 C399 1.389 . S
C400 C401 1.387 . S
C401 H386 0.930 . S
C401 C396 1.390 . S
C401 C400 1.387 . S
C91 C3 1.395 . S
C103 C42 1.418 . S
C118 C18 1.390 . S
C130 C55 1.424 . S
C145 C31 1.430 . S
C157 C68 1.400 . S
C172 C17 1.404 . S
C184 C62 1.383 . S
C199 C75 1.408 . S
C211 C30 1.378 . S
C226 C49 1.411 . S
C238 C10 1.375 . S
C253 C36 1.345 . S
C265 C5 1.340 . S
C280 C43 1.321 . S
C292 C16 1.356 . S
C307 C29 1.356 . S
C319 C56 1.322 . S
C334 C69 1.339 . S
C346 C44 1.327 . S
C361 C57 1.338 . S
C373 C4 1.346 . S
C388 C70 1.356 . S
C400 C23 1.324 . S
