# Generated by pormake.
# Topology gsi, (4)-cn, num edge types: 1
# Building blocks:
#     Node 0, Type 0, BuildingBlock: NAHDIM_clean_sbu_0, # of connection points: 4
#     Node 1, Type 0, BuildingBlock: NAHDIM_clean_sbu_0, # of connection points: 4
#     Node 2, Type 0, BuildingBlock: NAHDIM_clean_sbu_0, # of connection points: 4
#     Node 3, Type 0, BuildingBlock: NAHDIM_clean_sbu_0, # of connection points: 4
#     Node 4, Type 0, BuildingBlock: NAHDIM_clean_sbu_0, # of connection points: 4
#     Node 5, Type 0, BuildingBlock: NAHDIM_clean_sbu_0, # of connection points: 4
#     Node 6, Type 0, BuildingBlock: NAHDIM_clean_sbu_0, # of connection points: 4
#     Node 7, Type 0, BuildingBlock: NAHDIM_clean_sbu_0, # of connection points: 4
#     Node 8, Type 0, BuildingBlock: NAHDIM_clean_sbu_0, # of connection points: 4
#     Node 9, Type 0, BuildingBlock: NAHDIM_clean_sbu_0, # of connection points: 4
#     Node 10, Type 0, BuildingBlock: NAHDIM_clean_sbu_0, # of connection points: 4
#     Node 11, Type 0, BuildingBlock: NAHDIM_clean_sbu_0, # of connection points: 4
#     Node 12, Type 0, BuildingBlock: NAHDIM_clean_sbu_0, # of connection points: 4
#     Node 13, Type 0, BuildingBlock: NAHDIM_clean_sbu_0, # of connection points: 4
#     Node 14, Type 0, BuildingBlock: NAHDIM_clean_sbu_0, # of connection points: 4
#     Node 15, Type 0, BuildingBlock: NAHDIM_clean_sbu_0, # of connection points: 4
#     Edge 16, Type (0, 0), BuildingBlock: ZUJKAS_clean_linker_0, # of connection points: 2
#     Edge 17, Type (0, 0), BuildingBlock: ZUJKAS_clean_linker_0, # of connection points: 2
#     Edge 18, Type (0, 0), BuildingBlock: ZUJKAS_clean_linker_0, # of connection points: 2
#     Edge 19, Type (0, 0), BuildingBlock: ZUJKAS_clean_linker_0, # of connection points: 2
#     Edge 20, Type (0, 0), BuildingBlock: ZUJKAS_clean_linker_0, # of connection points: 2
#     Edge 21, Type (0, 0), BuildingBlock: ZUJKAS_clean_linker_0, # of connection points: 2
#     Edge 22, Type (0, 0), BuildingBlock: ZUJKAS_clean_linker_0, # of connection points: 2
#     Edge 23, Type (0, 0), BuildingBlock: ZUJKAS_clean_linker_0, # of connection points: 2
#     Edge 24, Type (0, 0), BuildingBlock: ZUJKAS_clean_linker_0, # of connection points: 2
#     Edge 25, Type (0, 0), BuildingBlock: ZUJKAS_clean_linker_0, # of connection points: 2
#     Edge 26, Type (0, 0), BuildingBlock: ZUJKAS_clean_linker_0, # of connection points: 2
#     Edge 27, Type (0, 0), BuildingBlock: ZUJKAS_clean_linker_0, # of connection points: 2
#     Edge 28, Type (0, 0), BuildingBlock: ZUJKAS_clean_linker_0, # of connection points: 2
#     Edge 29, Type (0, 0), BuildingBlock: ZUJKAS_clean_linker_0, # of connection points: 2
#     Edge 30, Type (0, 0), BuildingBlock: ZUJKAS_clean_linker_0, # of connection points: 2
#     Edge 31, Type (0, 0), BuildingBlock: ZUJKAS_clean_linker_0, # of connection points: 2
#     Edge 32, Type (0, 0), BuildingBlock: ZUJKAS_clean_linker_0, # of connection points: 2
#     Edge 33, Type (0, 0), BuildingBlock: ZUJKAS_clean_linker_0, # of connection points: 2
#     Edge 34, Type (0, 0), BuildingBlock: ZUJKAS_clean_linker_0, # of connection points: 2
#     Edge 35, Type (0, 0), BuildingBlock: ZUJKAS_clean_linker_0, # of connection points: 2
#     Edge 36, Type (0, 0), BuildingBlock: ZUJKAS_clean_linker_0, # of connection points: 2
#     Edge 37, Type (0, 0), BuildingBlock: ZUJKAS_clean_linker_0, # of connection points: 2
#     Edge 38, Type (0, 0), BuildingBlock: ZUJKAS_clean_linker_0, # of connection points: 2
#     Edge 39, Type (0, 0), BuildingBlock: ZUJKAS_clean_linker_0, # of connection points: 2
#     Edge 40, Type (0, 0), BuildingBlock: ZUJKAS_clean_linker_0, # of connection points: 2
#     Edge 41, Type (0, 0), BuildingBlock: ZUJKAS_clean_linker_0, # of connection points: 2
#     Edge 42, Type (0, 0), BuildingBlock: ZUJKAS_clean_linker_0, # of connection points: 2
#     Edge 43, Type (0, 0), BuildingBlock: ZUJKAS_clean_linker_0, # of connection points: 2
#     Edge 44, Type (0, 0), BuildingBlock: ZUJKAS_clean_linker_0, # of connection points: 2
#     Edge 45, Type (0, 0), BuildingBlock: ZUJKAS_clean_linker_0, # of connection points: 2
#     Edge 46, Type (0, 0), BuildingBlock: ZUJKAS_clean_linker_0, # of connection points: 2
#     Edge 47, Type (0, 0), BuildingBlock: ZUJKAS_clean_linker_0, # of connection points: 2
# Relax obj value: 0.054
# Max RMSD: 0.059
# Mean RMSD: 0.054
data_MOF--net-gsi--node1-NAHDIM_clean_sbu_0--edge1-ZUJKAS_clean_linker_0
_symmetry_space_group_name_H-M    P1
_symmetry_Int_Tables_number       1
_symmetry_cell_setting            triclinic
loop_
_symmetry_equiv_pos_as_xyz
'x, y, z'
_cell_length_a     54.030018
_cell_length_b     55.238748
_cell_length_c     55.678137
_cell_angle_alpha  90.001314
_cell_angle_beta   90.006763
_cell_angle_gamma 95.162644
loop_
_atom_site_label
_atom_site_type_symbol
_atom_site_fract_x
_atom_site_fract_y
_atom_site_fract_z
_atom_type_partial_charge
C0 C 0.11219 0.18664 0.13335 0.0
O1 O 0.13432 0.19825 0.13051 0.0
O2 O 0.16026 0.14519 0.11284 0.0
Zn3 Zn 0.14235 0.14843 0.14453 0.0
O4 O 0.16394 0.17067 0.16633 0.0
C5 C 0.14792 0.09815 0.1578 0.0
O6 O 0.16651 0.10058 0.14255 0.0
O7 O 0.11061 0.16425 0.13903 0.0
C8 C 0.17731 0.16299 0.18298 0.0
O9 O 0.17726 0.13949 0.18656 0.0
C10 C 0.18385 0.14561 0.11238 0.0
O11 O 0.19623 0.14764 0.13269 0.0
O12 O 0.1347 0.11582 0.16094 0.0
C13 C 0.89159 0.31383 0.13709 0.0
O14 O 0.87 0.30114 0.13968 0.0
O15 O 0.84365 0.35945 0.11228 0.0
Zn16 Zn 0.86102 0.35328 0.1435 0.0
O17 O 0.8377 0.33153 0.16394 0.0
C18 C 0.84977 0.39577 0.16808 0.0
O19 O 0.82733 0.38654 0.16216 0.0
O20 O 0.89253 0.33692 0.13776 0.0
C21 C 0.84023 0.33056 0.1866 0.0
O22 O 0.85862 0.34387 0.19691 0.0
C23 C 0.82959 0.34236 0.10282 0.0
O24 O 0.8275 0.32091 0.11319 0.0
O25 O 0.86833 0.38485 0.1614 0.0
C26 C 0.13603 0.89103 0.31513 0.0
O27 O 0.12041 0.87177 0.31139 0.0
O28 O 0.12222 0.84113 0.35518 0.0
Zn29 Zn 0.15591 0.85887 0.3491 0.0
O30 O 0.17491 0.83718 0.32847 0.0
C31 C 0.16632 0.86238 0.40076 0.0
O32 O 0.14235 0.85655 0.4033 0.0
O33 O 0.1528 0.89009 0.33104 0.0
C34 C 0.19816 0.84169 0.32536 0.0
O35 O 0.20961 0.86113 0.33537 0.0
C36 C 0.1212 0.81898 0.36161 0.0
O37 O 0.14206 0.80901 0.36533 0.0
O38 O 0.17544 0.86491 0.37978 0.0
C39 C 0.86662 0.60206 0.3264 0.0
O40 O 0.88791 0.61364 0.33277 0.0
O41 O 0.87887 0.65985 0.35517 0.0
Zn42 Zn 0.84479 0.64263 0.34969 0.0
O43 O 0.82518 0.66414 0.3293 0.0
C44 C 0.82384 0.65653 0.39353 0.0
O45 O 0.83274 0.67781 0.38517 0.0
O46 O 0.84645 0.61079 0.33217 0.0
C47 C 0.80157 0.66219 0.32969 0.0
O48 O 0.78982 0.64568 0.34354 0.0
C49 C 0.88961 0.67208 0.3382 0.0
O50 O 0.87856 0.67253 0.3172 0.0
O51 O 0.82713 0.63758 0.38142 0.0
C52 C 0.38986 0.8183 0.62742 0.0
O53 O 0.37032 0.81045 0.61467 0.0
O54 O 0.33906 0.85707 0.61424 0.0
Zn55 Zn 0.35673 0.8525 0.64583 0.0
O56 O 0.33436 0.8311 0.66739 0.0
C57 C 0.35326 0.90339 0.6575 0.0
O58 O 0.3377 0.90236 0.63931 0.0
O59 O 0.38853 0.83641 0.64131 0.0
C60 C 0.3145 0.83868 0.67557 0.0
O61 O 0.30885 0.86054 0.66969 0.0
C62 C 0.32242 0.84099 0.60694 0.0
O63 O 0.31762 0.82109 0.61965 0.0
O64 O 0.36402 0.8846 0.66299 0.0
C65 C 0.85333 0.89902 0.8257 0.0
O66 O 0.83133 0.88751 0.82955 0.0
O67 O 0.84898 0.86179 0.8823 0.0
Zn68 Zn 0.86643 0.85758 0.85071 0.0
O69 O 0.84352 0.83582 0.82966 0.0
C70 C 0.90851 0.8375 0.87507 0.0
O71 O 0.89905 0.84566 0.8949 0.0
O72 O 0.87244 0.88988 0.83378 0.0
C73 C 0.84784 0.81424 0.82426 0.0
O74 O 0.86783 0.80539 0.83277 0.0
C75 C 0.83998 0.84296 0.8935 0.0
O76 O 0.84312 0.82143 0.88457 0.0
O77 O 0.89839 0.84156 0.85503 0.0
C78 C 0.14653 0.60315 0.82634 0.0
O79 O 0.16818 0.61593 0.82798 0.0
O80 O 0.15148 0.63921 0.88508 0.0
Zn81 Zn 0.13345 0.64333 0.85369 0.0
O82 O 0.15548 0.66568 0.8324 0.0
C83 C 0.0934 0.66605 0.87846 0.0
O84 O 0.10591 0.66211 0.89809 0.0
O85 O 0.12782 0.611 0.83665 0.0
C86 C 0.15155 0.68771 0.82864 0.0
O87 O 0.13255 0.69664 0.83905 0.0
C88 C 0.16288 0.65777 0.89493 0.0
O89 O 0.16195 0.67914 0.88478 0.0
O90 O 0.10106 0.65858 0.85842 0.0
C91 C 0.80897 0.15886 0.60672 0.0
O92 O 0.81215 0.17996 0.61772 0.0
O93 O 0.87278 0.16377 0.63913 0.0
Zn94 Zn 0.83897 0.14631 0.64606 0.0
O95 O 0.82008 0.167 0.66801 0.0
C96 C 0.8623 0.10974 0.67344 0.0
O97 O 0.88182 0.1257 0.67234 0.0
O98 O 0.81922 0.14094 0.61537 0.0
C99 C 0.82717 0.17154 0.68942 0.0
O100 O 0.84717 0.16234 0.69748 0.0
C101 C 0.87606 0.18686 0.63981 0.0
O102 O 0.85704 0.19933 0.64443 0.0
O103 O 0.84233 0.11439 0.663 0.0
C104 C 0.18943 0.342 0.61062 0.0
O105 O 0.18976 0.32192 0.62321 0.0
O106 O 0.12211 0.33685 0.64131 0.0
Zn107 Zn 0.15636 0.3531 0.64862 0.0
O108 O 0.17427 0.33144 0.67052 0.0
C109 C 0.13585 0.38779 0.68004 0.0
O110 O 0.11824 0.36999 0.68268 0.0
O111 O 0.17625 0.35849 0.61792 0.0
C112 C 0.16316 0.31849 0.68679 0.0
O113 O 0.13916 0.31939 0.68987 0.0
C114 C 0.11945 0.31463 0.63503 0.0
O115 O 0.13927 0.30272 0.63263 0.0
O116 O 0.15383 0.38494 0.66588 0.0
C117 C 0.64708 0.10293 0.32445 0.0
O118 O 0.66919 0.11415 0.32841 0.0
O119 O 0.65053 0.13907 0.38236 0.0
Zn120 Zn 0.63459 0.14421 0.35012 0.0
O121 O 0.65907 0.16528 0.33015 0.0
C122 C 0.59132 0.16379 0.37262 0.0
O123 O 0.59844 0.15313 0.39221 0.0
O124 O 0.62811 0.11217 0.33273 0.0
C125 C 0.65867 0.18819 0.32851 0.0
O126 O 0.6416 0.19896 0.34018 0.0
C127 C 0.65773 0.15743 0.39516 0.0
O128 O 0.65365 0.17921 0.3875 0.0
O129 O 0.60329 0.16152 0.35321 0.0
C130 C 0.60232 0.68188 0.65292 0.0
O131 O 0.61601 0.68652 0.67216 0.0
O132 O 0.65733 0.64456 0.61216 0.0
Zn133 Zn 0.64017 0.64977 0.64366 0.0
O134 O 0.66354 0.67163 0.66392 0.0
C135 C 0.64487 0.59982 0.65712 0.0
O136 O 0.66108 0.60113 0.63948 0.0
O137 O 0.60868 0.66617 0.63797 0.0
C138 C 0.68518 0.66578 0.66879 0.0
O139 O 0.69222 0.64529 0.66032 0.0
C140 C 0.66789 0.66308 0.60158 0.0
O141 O 0.66624 0.68468 0.61102 0.0
O142 O 0.63302 0.61816 0.66169 0.0
C143 C 0.64379 0.39095 0.81087 0.0
O144 O 0.6375 0.36928 0.80185 0.0
O145 O 0.62364 0.34353 0.85609 0.0
Zn146 Zn 0.65718 0.36164 0.85001 0.0
O147 O 0.67706 0.34058 0.82915 0.0
C148 C 0.66776 0.3647 0.90176 0.0
O149 O 0.64448 0.35603 0.90443 0.0
O150 O 0.65271 0.39257 0.832 0.0
C151 C 0.69416 0.32881 0.83781 0.0
O152 O 0.69911 0.33044 0.86088 0.0
C153 C 0.62202 0.32122 0.86206 0.0
O154 O 0.6425 0.31047 0.86519 0.0
O155 O 0.67624 0.36905 0.88076 0.0
C156 C 0.35938 0.1133 0.81067 0.0
O157 O 0.36635 0.13484 0.8017 0.0
O158 O 0.38026 0.1618 0.85375 0.0
Zn159 Zn 0.34648 0.14366 0.84862 0.0
O160 O 0.32594 0.16345 0.82729 0.0
C161 C 0.31917 0.15623 0.8898 0.0
O162 O 0.32125 0.17723 0.87857 0.0
O163 O 0.35025 0.11195 0.83172 0.0
C164 C 0.30265 0.15829 0.82515 0.0
O165 O 0.29193 0.13954 0.83685 0.0
C166 C 0.38315 0.18481 0.85166 0.0
O167 O 0.36386 0.19665 0.84629 0.0
O168 O 0.32893 0.13834 0.88048 0.0
C169 C 0.35305 0.40024 0.329 0.0
O170 O 0.33079 0.3893 0.33286 0.0
O171 O 0.34816 0.36358 0.38663 0.0
Zn172 Zn 0.36497 0.35879 0.35478 0.0
O173 O 0.3409 0.3377 0.33452 0.0
C174 C 0.40456 0.33381 0.37805 0.0
O175 O 0.39359 0.33891 0.39824 0.0
O176 O 0.37182 0.39079 0.33744 0.0
C177 C 0.34824 0.32456 0.3177 0.0
O178 O 0.37216 0.32477 0.31333 0.0
C179 C 0.33684 0.34496 0.39645 0.0
O180 O 0.3376 0.32369 0.38604 0.0
O181 O 0.39616 0.34126 0.3583 0.0
C182 C 0.31515 0.65924 0.10604 0.0
O183 O 0.3202 0.68084 0.11563 0.0
O184 O 0.37632 0.66375 0.14073 0.0
Zn185 Zn 0.34224 0.64661 0.14734 0.0
O186 O 0.32317 0.66794 0.16845 0.0
C187 C 0.36473 0.6104 0.1759 0.0
O188 O 0.38417 0.62649 0.17536 0.0
O189 O 0.32307 0.64091 0.11635 0.0
C190 C 0.33044 0.67353 0.1896 0.0
O191 O 0.35057 0.66481 0.19796 0.0
C192 C 0.37988 0.68683 0.14142 0.0
O193 O 0.36101 0.69955 0.14592 0.0
O194 O 0.34508 0.61487 0.16479 0.0
C195 C 0.69198 0.84184 0.10764 0.0
O196 O 0.69166 0.8218 0.12037 0.0
O197 O 0.62592 0.83711 0.13915 0.0
Zn198 Zn 0.65996 0.85417 0.1459 0.0
O199 O 0.67827 0.83339 0.16829 0.0
C200 C 0.63778 0.89021 0.17463 0.0
O201 O 0.61901 0.87337 0.17541 0.0
O202 O 0.67959 0.85893 0.11497 0.0
C203 C 0.66762 0.82302 0.18638 0.0
O204 O 0.64422 0.82617 0.19073 0.0
C205 C 0.62337 0.81431 0.13538 0.0
O206 O 0.6432 0.80219 0.13518 0.0
O207 O 0.65699 0.88631 0.16253 0.0
H208 H 0.21126 0.1525 0.21695 0.0
H209 H 0.23898 0.18115 0.24 0.0
H210 H 0.20784 0.2412 0.20515 0.0
H211 H 0.18034 0.21268 0.18163 0.0
H212 H 0.25864 0.24649 0.20596 0.0
H213 H 0.22178 0.22282 0.29668 0.0
H214 H 0.23074 0.19704 0.28028 0.0
H215 H 0.20547 0.21319 0.26954 0.0
C216 C 0.21017 0.1718 0.21428 0.0
C217 C 0.19354 0.18031 0.19751 0.0
C218 C 0.22594 0.18815 0.22758 0.0
C219 C 0.22518 0.21329 0.22457 0.0
C220 C 0.20862 0.22185 0.20783 0.0
H221 H 0.29756 0.32277 0.31966 0.0
H222 H 0.26749 0.29682 0.29625 0.0
C223 C 0.19291 0.20552 0.19444 0.0
C224 C 0.24229 0.23064 0.23824 0.0
H225 H 0.26036 0.24739 0.29504 0.0
C226 C 0.25893 0.24681 0.22544 0.0
C227 C 0.24238 0.23124 0.26364 0.0
C228 C 0.22397 0.21532 0.27837 0.0
C229 C 0.27607 0.26322 0.23736 0.0
C230 C 0.2769 0.26306 0.26276 0.0
C231 C 0.25987 0.24728 0.27556 0.0
C232 C 0.29525 0.27914 0.27644 0.0
C233 C 0.29288 0.28076 0.22265 0.0
C234 C 0.32083 0.27766 0.2732 0.0
C235 C 0.33808 0.29256 0.28645 0.0
C236 C 0.33003 0.30902 0.3034 0.0
C237 C 0.30438 0.31031 0.30674 0.0
C238 C 0.28716 0.29549 0.29339 0.0
H239 H 0.2852 0.28334 0.20441 0.0
H240 H 0.29583 0.29876 0.23159 0.0
H241 H 0.31122 0.27343 0.22055 0.0
H242 H 0.32747 0.26476 0.26062 0.0
H243 H 0.35769 0.29099 0.28359 0.0
H244 H 0.8365 0.32857 0.23555 0.0
H245 H 0.80597 0.30368 0.25947 0.0
H246 H 0.77308 0.2724 0.19468 0.0
H247 H 0.80316 0.2976 0.17058 0.0
H248 H 0.73837 0.28659 0.22569 0.0
H249 H 0.80368 0.23148 0.27355 0.0
H250 H 0.81108 0.26363 0.27695 0.0
H251 H 0.81282 0.24994 0.24775 0.0
C252 C 0.82287 0.31628 0.22638 0.0
C253 C 0.82229 0.31501 0.20117 0.0
C254 C 0.80553 0.30197 0.2401 0.0
C255 C 0.78752 0.28591 0.22886 0.0
C256 C 0.7869 0.28461 0.2037 0.0
H257 H 0.69363 0.17123 0.29895 0.0
H258 H 0.72434 0.19502 0.27429 0.0
C259 C 0.80412 0.29901 0.18997 0.0
C260 C 0.76875 0.27106 0.24326 0.0
H261 H 0.76197 0.2285 0.28778 0.0
C262 C 0.74351 0.2738 0.2392 0.0
C263 C 0.7755 0.25418 0.26065 0.0
C264 C 0.80223 0.24941 0.26486 0.0
C265 C 0.72482 0.26037 0.2523 0.0
C266 C 0.73161 0.24416 0.27032 0.0
C267 C 0.75683 0.24114 0.27413 0.0
C268 C 0.71283 0.2299 0.28521 0.0
C269 C 0.698 0.26333 0.2464 0.0
C270 C 0.69635 0.24164 0.29971 0.0
C271 C 0.67866 0.2281 0.31371 0.0
C272 C 0.67734 0.20256 0.31366 0.0
C273 C 0.69412 0.19087 0.29937 0.0
C274 C 0.7117 0.20443 0.28528 0.0
H275 H 0.69597 0.27096 0.22811 0.0
H276 H 0.68646 0.2457 0.24758 0.0
H277 H 0.69065 0.27608 0.25944 0.0
H278 H 0.69729 0.2613 0.30035 0.0
H279 H 0.66615 0.23766 0.32468 0.0
H280 H 0.28979 0.69658 0.17657 0.0
H281 H 0.26831 0.72552 0.20022 0.0
H282 H 0.3192 0.71827 0.25891 0.0
H283 H 0.34074 0.68909 0.23547 0.0
H284 H 0.26863 0.71573 0.27264 0.0
H285 H 0.29514 0.79615 0.21532 0.0
H286 H 0.28092 0.77027 0.19934 0.0
H287 H 0.31058 0.76854 0.21356 0.0
C288 C 0.29644 0.7011 0.19451 0.0
C289 C 0.31705 0.69059 0.20411 0.0
C290 C 0.28422 0.71776 0.20793 0.0
C291 C 0.29243 0.72429 0.23113 0.0
C292 C 0.3127 0.71355 0.24095 0.0
H293 H 0.24795 0.84573 0.31542 0.0
H294 H 0.27126 0.81705 0.29316 0.0
C295 C 0.32497 0.6969 0.22753 0.0
C296 C 0.27961 0.74208 0.24528 0.0
H297 H 0.26471 0.80084 0.24539 0.0
C298 C 0.26784 0.73437 0.26677 0.0
C299 C 0.27891 0.76644 0.23768 0.0
C300 C 0.29224 0.77598 0.21533 0.0
C301 C 0.25487 0.75028 0.28062 0.0
C302 C 0.25342 0.77439 0.27256 0.0
C303 C 0.26567 0.78226 0.25137 0.0
C304 C 0.23922 0.79174 0.28588 0.0
C305 C 0.24305 0.74122 0.30387 0.0
C306 C 0.21344 0.78716 0.28879 0.0
C307 C 0.20007 0.80348 0.30146 0.0
C308 C 0.21224 0.82477 0.31136 0.0
C309 C 0.23803 0.82948 0.30807 0.0
C310 C 0.25138 0.81314 0.29537 0.0
H311 H 0.2511 0.72464 0.31045 0.0
H312 H 0.24532 0.75542 0.31802 0.0
H313 H 0.22286 0.7366 0.30094 0.0
H314 H 0.20365 0.77098 0.28118 0.0
H315 H 0.18021 0.79935 0.30356 0.0
H316 H 0.75145 0.66596 0.32967 0.0
H317 H 0.72837 0.69321 0.30532 0.0
H318 H 0.79669 0.72261 0.27219 0.0
H319 H 0.81996 0.69548 0.2964 0.0
H320 H 0.73688 0.74635 0.30334 0.0
H321 H 0.74901 0.70153 0.21522 0.0
H322 H 0.75318 0.68639 0.24351 0.0
H323 H 0.77689 0.70846 0.23247 0.0
C324 C 0.76157 0.67815 0.31714 0.0
C325 C 0.78753 0.6785 0.3149 0.0
C326 C 0.74836 0.69372 0.30329 0.0
C327 C 0.76083 0.70968 0.28682 0.0
C328 C 0.78672 0.71016 0.28459 0.0
H329 H 0.71676 0.81505 0.18407 0.0
H330 H 0.73908 0.78808 0.20932 0.0
C331 C 0.79997 0.69471 0.29851 0.0
C332 C 0.74684 0.72619 0.27227 0.0
H333 H 0.73061 0.7388 0.21471 0.0
C334 C 0.73537 0.74469 0.28397 0.0
C335 C 0.74507 0.72394 0.24704 0.0
C336 C 0.7565 0.70391 0.23374 0.0
C337 C 0.72253 0.7614 0.271 0.0
C338 C 0.72067 0.75912 0.24573 0.0
C339 C 0.73208 0.74051 0.23407 0.0
C340 C 0.70709 0.7759 0.23096 0.0
C341 C 0.71166 0.7817 0.2844 0.0
C342 C 0.68166 0.77786 0.23465 0.0
C343 C 0.66887 0.79338 0.22035 0.0
C344 C 0.68124 0.80701 0.20191 0.0
C345 C 0.70669 0.80485 0.19815 0.0
C346 C 0.71947 0.78943 0.21254 0.0
H347 H 0.72048 0.78485 0.30229 0.0
H348 H 0.7139 0.79893 0.27403 0.0
H349 H 0.69151 0.7768 0.28727 0.0
H350 H 0.67161 0.76714 0.24839 0.0
H351 H 0.64923 0.79446 0.22357 0.0
H352 H 0.27203 0.85019 0.69782 0.0
H353 H 0.24478 0.82435 0.72418 0.0
H354 H 0.29178 0.76592 0.71508 0.0
H355 H 0.31936 0.79171 0.689 0.0
H356 H 0.21862 0.77987 0.71388 0.0
H357 H 0.28589 0.7708 0.78803 0.0
H358 H 0.29093 0.79342 0.76471 0.0
H359 H 0.29691 0.76244 0.75904 0.0
C360 C 0.27664 0.83188 0.70149 0.0
C361 C 0.29794 0.82305 0.69142 0.0
C362 C 0.26104 0.81715 0.71654 0.0
C363 C 0.2665 0.79338 0.72186 0.0
C364 C 0.28755 0.7844 0.71162 0.0
H365 H 0.19301 0.67525 0.80512 0.0
H366 H 0.22048 0.70089 0.77875 0.0
C367 C 0.30321 0.79913 0.69661 0.0
C368 C 0.24978 0.7778 0.73766 0.0
H369 H 0.24782 0.74584 0.79021 0.0
C370 C 0.22494 0.77251 0.73063 0.0
C371 C 0.25815 0.76823 0.75947 0.0
C372 C 0.28436 0.77415 0.76843 0.0
C373 C 0.2083 0.75755 0.74465 0.0
C374 C 0.21668 0.74796 0.76643 0.0
C375 C 0.24152 0.75321 0.77346 0.0
C376 C 0.19991 0.73253 0.78227 0.0
C377 C 0.18202 0.75175 0.73585 0.0
C378 C 0.17944 0.74197 0.79316 0.0
C379 C 0.16372 0.7274 0.80824 0.0
C380 C 0.16826 0.70315 0.81275 0.0
C381 C 0.18895 0.69383 0.80196 0.0
C382 C 0.20468 0.70843 0.78691 0.0
H383 H 0.18026 0.75554 0.71635 0.0
H384 H 0.17559 0.73238 0.7392 0.0
H385 H 0.1695 0.76315 0.7457 0.0
H386 H 0.17573 0.76068 0.79013 0.0
H387 H 0.14803 0.73518 0.81635 0.0
H388 H 0.67703 0.71011 0.6876 0.0
H389 H 0.70493 0.7362 0.71315 0.0
H390 H 0.75906 0.68345 0.71057 0.0
H391 H 0.73151 0.65742 0.6847 0.0
H392 H 0.7236 0.72587 0.75781 0.0
H393 H 0.80022 0.74623 0.69253 0.0
H394 H 0.76979 0.73312 0.68363 0.0
H395 H 0.79178 0.71433 0.69663 0.0
C396 C 0.69494 0.70411 0.69234 0.0
C397 C 0.70211 0.68173 0.68403 0.0
C398 C 0.71083 0.71904 0.70695 0.0
C399 C 0.7342 0.71192 0.71344 0.0
C400 C 0.74134 0.68953 0.70533 0.0
H401 H 0.85326 0.76876 0.80688 0.0
H402 H 0.82505 0.74425 0.78025 0.0
C403 C 0.7255 0.67461 0.69066 0.0
C404 C 0.75074 0.72755 0.72939 0.0
H405 H 0.80857 0.75779 0.73312 0.0
C406 C 0.74211 0.733 0.75237 0.0
C407 C 0.77487 0.73681 0.7222 0.0
C408 C 0.78467 0.73255 0.69732 0.0
C409 C 0.75721 0.74705 0.76859 0.0
C410 C 0.78141 0.75605 0.76149 0.0
C411 C 0.79 0.75074 0.73848 0.0
C412 C 0.79821 0.77093 0.77776 0.0
C413 C 0.74739 0.75169 0.79338 0.0
C414 C 0.79249 0.7941 0.78497 0.0
C415 C 0.80858 0.80819 0.80015 0.0
C416 C 0.83068 0.79932 0.80834 0.0
C417 C 0.83636 0.7761 0.80098 0.0
C418 C 0.8203 0.76208 0.78574 0.0
H419 H 0.73068 0.73927 0.79775 0.0
H420 H 0.76185 0.74951 0.8072 0.0
H421 H 0.74219 0.77065 0.79438 0.0
H422 H 0.77569 0.80137 0.77869 0.0
H423 H 0.8037 0.82603 0.80541 0.0
H424 H 0.73284 0.30282 0.85042 0.0
H425 H 0.75565 0.27663 0.82476 0.0
H426 H 0.7095 0.29248 0.76459 0.0
H427 H 0.68682 0.31905 0.79 0.0
H428 H 0.7375 0.23553 0.79967 0.0
H429 H 0.77952 0.30632 0.73752 0.0
H430 H 0.76548 0.31364 0.76571 0.0
H431 H 0.74633 0.30557 0.74002 0.0
C432 C 0.72761 0.30086 0.83169 0.0
C433 C 0.70808 0.31312 0.82222 0.0
C434 C 0.74066 0.28587 0.81707 0.0
C435 C 0.7345 0.2829 0.79271 0.0
C436 C 0.7149 0.29494 0.78322 0.0
H437 H 0.78698 0.19568 0.67722 0.0
H438 H 0.76432 0.2222 0.7027 0.0
C439 C 0.70187 0.31001 0.79781 0.0
C440 C 0.74816 0.26664 0.77745 0.0
H441 H 0.78401 0.26526 0.72706 0.0
C442 C 0.74778 0.24203 0.78385 0.0
C443 C 0.76151 0.27521 0.75683 0.0
C444 C 0.76349 0.30167 0.74968 0.0
C445 C 0.76009 0.22565 0.76996 0.0
C446 C 0.77337 0.23421 0.74932 0.0
C447 C 0.77375 0.2588 0.74289 0.0
C448 C 0.78702 0.21792 0.73414 0.0
C449 C 0.75839 0.19922 0.77718 0.0
C450 C 0.80743 0.20694 0.74337 0.0
C451 C 0.82045 0.19179 0.72888 0.0
C452 C 0.81331 0.18742 0.70487 0.0
C453 C 0.79291 0.19858 0.69566 0.0
C454 C 0.77995 0.21377 0.71016 0.0
H455 H 0.74293 0.1946 0.79 0.0
H456 H 0.75568 0.18725 0.7612 0.0
H457 H 0.77599 0.1953 0.78603 0.0
H458 H 0.81341 0.21027 0.76174 0.0
H459 H 0.83614 0.18357 0.73648 0.0
H460 H 0.1445 0.28471 0.71955 0.0
H461 H 0.16766 0.2572 0.74354 0.0
H462 H 0.23619 0.28748 0.71147 0.0
H463 H 0.2133 0.31502 0.6874 0.0
H464 H 0.20112 0.22237 0.72476 0.0
H465 H 0.24772 0.2919 0.78585 0.0
H466 H 0.22017 0.29707 0.7689 0.0
H467 H 0.24989 0.29873 0.7543 0.0
C468 C 0.16451 0.28561 0.71767 0.0
C469 C 0.17707 0.30212 0.70163 0.0
C470 C 0.17768 0.26985 0.73135 0.0
C471 C 0.2036 0.27054 0.7294 0.0
C472 C 0.2162 0.28694 0.71342 0.0
H473 H 0.31952 0.19601 0.796 0.0
H474 H 0.29483 0.22225 0.77229 0.0
C475 C 0.20307 0.30259 0.69964 0.0
C476 C 0.21751 0.25376 0.74372 0.0
H477 H 0.2608 0.25223 0.78815 0.0
C478 C 0.21408 0.2288 0.73873 0.0
C479 C 0.23443 0.26234 0.7618 0.0
C480 C 0.23823 0.28895 0.76825 0.0
C481 C 0.22762 0.21215 0.75103 0.0
C482 C 0.24458 0.22073 0.76915 0.0
C483 C 0.24783 0.24571 0.77423 0.0
C484 C 0.25934 0.20417 0.78297 0.0
C485 C 0.22418 0.18568 0.744 0.0
C486 C 0.24757 0.18537 0.79694 0.0
C487 C 0.26164 0.17021 0.81039 0.0
C488 C 0.28773 0.17381 0.81035 0.0
C489 C 0.29946 0.19274 0.79641 0.0
C490 C 0.28538 0.20777 0.78287 0.0
H491 H 0.21599 0.18319 0.72576 0.0
H492 H 0.24213 0.17735 0.7444 0.0
H493 H 0.21134 0.17574 0.75691 0.0
H494 H 0.22749 0.18262 0.79772 0.0
H495 H 0.25204 0.15593 0.82109 0.0
H496 H 0.10061 0.90019 0.28209 0.0
H497 H 0.10011 0.93545 0.25562 0.0
H498 H 0.16882 0.96645 0.2869 0.0
H499 H 0.16919 0.93151 0.31383 0.0
H500 H 0.13543 1.00022 0.28078 0.0
H501 H 0.14403 0.94732 0.19694 0.0
H502 H 0.11778 0.93675 0.21506 0.0
H503 H 0.14874 0.9347 0.22629 0.0
C504 C 0.11559 0.91453 0.2834 0.0
C505 C 0.13505 0.91295 0.29996 0.0
C506 C 0.11535 0.93461 0.26815 0.0
C507 C 0.13469 0.95333 0.26894 0.0
C508 C 0.15378 0.95213 0.28589 0.0
H509 H 0.17737 0.0606 0.16061 0.0
H510 H 0.17292 0.02575 0.18771 0.0
C511 C 0.15396 0.93213 0.30126 0.0
C512 C 0.13518 0.97414 0.25204 0.0
H513 H 0.13697 0.98879 0.19244 0.0
C514 C 0.13575 0.99775 0.26146 0.0
C515 C 0.13595 0.97087 0.22684 0.0
C516 C 0.13684 0.94608 0.21563 0.0
C517 C 0.13702 0.0182 0.24638 0.0
C518 C 0.13713 0.0149 0.22116 0.0
C519 C 0.1366 0.99128 0.21175 0.0
C520 C 0.13903 0.03573 0.20422 0.0
C521 C 0.13899 0.04316 0.25764 0.0
C522 C 0.12116 0.05267 0.20412 0.0
C523 C 0.12374 0.07277 0.18874 0.0
C524 C 0.14409 0.07609 0.17295 0.0
C525 C 0.16148 0.05862 0.17254 0.0
C526 C 0.15898 0.03867 0.18803 0.0
H527 H 0.1452 0.04269 0.27664 0.0
H528 H 0.15218 0.05596 0.24754 0.0
H529 H 0.12047 0.05035 0.25734 0.0
H530 H 0.10527 0.05044 0.21603 0.0
H531 H 0.10992 0.08579 0.18937 0.0
H532 H 0.81368 0.42195 0.18645 0.0
H533 H 0.81885 0.4568 0.21355 0.0
H534 H 0.89829 0.45362 0.21251 0.0
H535 H 0.89335 0.41878 0.18517 0.0
H536 H 0.84134 0.45781 0.25953 0.0
H537 H 0.88958 0.52555 0.19762 0.0
H538 H 0.87293 0.49778 0.18705 0.0
H539 H 0.90322 0.49716 0.2002 0.0
C540 C 0.83229 0.42875 0.19179 0.0
C541 C 0.85312 0.41761 0.18358 0.0
C542 C 0.83519 0.44865 0.20733 0.0
C543 C 0.85894 0.45792 0.21485 0.0
C544 C 0.87981 0.44698 0.2066 0.0
H545 H 0.90616 0.57922 0.30973 0.0
H546 H 0.90508 0.54332 0.28385 0.0
C547 C 0.87694 0.42702 0.19105 0.0
C548 C 0.86165 0.4785 0.23199 0.0
H549 H 0.88482 0.53777 0.23791 0.0
C550 C 0.85085 0.4753 0.25483 0.0
C551 C 0.87419 0.50122 0.22582 0.0
C552 C 0.88551 0.50583 0.20129 0.0
C553 C 0.85224 0.49424 0.2717 0.0
C554 C 0.86437 0.51712 0.26539 0.0
C555 C 0.87553 0.5202 0.24269 0.0
C556 C 0.86497 0.53832 0.28177 0.0
C557 C 0.84097 0.4895 0.29624 0.0
C558 C 0.84277 0.54747 0.28907 0.0
C559 C 0.8433 0.56793 0.30388 0.0
C560 C 0.86607 0.57976 0.31155 0.0
C561 C 0.8883 0.57051 0.30422 0.0
C562 C 0.88774 0.55002 0.2894 0.0
H563 H 0.8389 0.46978 0.30053 0.0
H564 H 0.85245 0.49917 0.31042 0.0
H565 H 0.8222 0.49617 0.29666 0.0
H566 H 0.825 0.53903 0.28297 0.0
H567 H 0.82584 0.57464 0.30904 0.0
H568 H 0.29282 0.18983 0.91172 0.0
H569 H 0.27005 0.18578 0.94955 0.0
H570 H 0.29143 0.11289 0.95791 0.0
H571 H 0.31395 0.11659 0.91968 0.0
H572 H 0.24186 0.11637 0.96811 0.0
H573 H 0.30083 0.18803 0.01616 0.0
H574 H 0.28838 0.19855 0.98858 0.0
H575 H 0.30987 0.17549 0.98789 0.0
C576 C 0.29278 0.17293 0.9216 0.0
C577 C 0.30537 0.15359 0.91276 0.0
C578 C 0.27983 0.17071 0.9433 0.0
C579 C 0.27944 0.14922 0.95677 0.0
C580 C 0.29164 0.1297 0.94785 0.0
H581 H 0.2331 0.14023 0.10608 0.0
H582 H 0.25589 0.13904 0.06831 0.0
C583 C 0.30453 0.13186 0.92604 0.0
C584 C 0.26606 0.14713 0.98003 0.0
H585 H 0.26261 0.17401 0.03497 0.0
C586 C 0.24648 0.12885 0.98281 0.0
C587 C 0.27236 0.16321 0.9993 0.0
C588 C 0.29417 0.18227 0.99798 0.0
C589 C 0.23261 0.1266 0.00417 0.0
C590 C 0.2382 0.14339 0.02302 0.0
C591 C 0.25815 0.1613 0.02041 0.0
C592 C 0.22382 0.14269 0.04576 0.0
C593 C 0.21236 0.10606 0.00643 0.0
C594 C 0.19817 0.14516 0.04567 0.0
C595 C 0.18501 0.14567 0.06728 0.0
C596 C 0.19736 0.14407 0.08938 0.0
C597 C 0.22302 0.14155 0.08939 0.0
C598 C 0.2361 0.14087 0.0678 0.0
H599 H 0.21522 0.09105 0.99373 0.0
H600 H 0.21142 0.09863 0.02497 0.0
H601 H 0.19419 0.11294 0.00216 0.0
H602 H 0.1884 0.1472 0.02891 0.0
H603 H 0.16529 0.1478 0.06668 0.0
H604 H 0.79851 0.30945 0.07822 0.0
H605 H 0.77283 0.3168 0.04336 0.0
H606 H 0.80116 0.39231 0.04332 0.0
H607 H 0.82685 0.3852 0.07846 0.0
H608 H 0.74896 0.38469 0.03925 0.0
H609 H 0.79607 0.32868 0.97378 0.0
H610 H 0.78681 0.31277 0.0009 0.0
H611 H 0.80995 0.33827 0.00213 0.0
C612 C 0.79945 0.32761 0.07074 0.0
C613 C 0.81482 0.34673 0.08108 0.0
C614 C 0.78482 0.33174 0.05073 0.0
C615 C 0.78535 0.35502 0.04058 0.0
C616 C 0.8006 0.37418 0.05084 0.0
H617 H 0.71721 0.38051 0.90208 0.0
H618 H 0.74597 0.38102 0.93598 0.0
C619 C 0.8153 0.37006 0.07087 0.0
C620 C 0.76937 0.35937 0.01967 0.0
H621 H 0.75665 0.34105 0.96211 0.0
C622 C 0.75075 0.37534 0.0223 0.0
C623 C 0.77196 0.34737 0.99751 0.0
C624 C 0.79242 0.33099 0.99325 0.0
C625 C 0.7341 0.379 0.00354 0.0
C626 C 0.73597 0.36611 0.98176 0.0
C627 C 0.75511 0.35076 0.9789 0.0
C628 C 0.71804 0.36781 0.96181 0.0
C629 C 0.71472 0.39668 0.00718 0.0
C630 C 0.69274 0.36035 0.96511 0.0
C631 C 0.6762 0.36008 0.94577 0.0
C632 C 0.68472 0.36709 0.92271 0.0
C633 C 0.71 0.37502 0.91959 0.0
C634 C 0.72649 0.3753 0.93894 0.0
H635 H 0.7201 0.40991 0.02171 0.0
H636 H 0.71161 0.40686 0.99041 0.0
H637 H 0.69689 0.3865 0.01238 0.0
H638 H 0.6859 0.35403 0.98251 0.0
H639 H 0.6569 0.35375 0.94878 0.0
H640 H 0.32408 0.88172 0.57854 0.0
H641 H 0.29884 0.88815 0.5429 0.0
H642 H 0.26265 0.81571 0.55013 0.0
H643 H 0.2878 0.80903 0.58554 0.0
H644 H 0.27874 0.82802 0.50292 0.0
H645 H 0.22364 0.89801 0.54327 0.0
H646 H 0.25684 0.90392 0.54536 0.0
H647 H 0.24144 0.87854 0.56117 0.0
C648 C 0.31079 0.86714 0.57251 0.0
C649 C 0.3079 0.84488 0.58493 0.0
C650 C 0.29629 0.87091 0.55224 0.0
C651 C 0.27867 0.85251 0.5441 0.0
C652 C 0.27607 0.83017 0.5562 0.0
H653 H 0.15381 0.85376 0.44784 0.0
H654 H 0.18192 0.85288 0.48223 0.0
C655 C 0.29047 0.8264 0.57646 0.0
C656 C 0.26299 0.85628 0.52283 0.0
H657 H 0.21638 0.88871 0.50229 0.0
C658 C 0.26518 0.84136 0.5027 0.0
C659 C 0.24514 0.87351 0.52279 0.0
C660 C 0.24137 0.88933 0.54434 0.0
C661 C 0.24994 0.84315 0.48248 0.0
C662 C 0.23228 0.86058 0.48229 0.0
C663 C 0.23009 0.87552 0.50243 0.0
C664 C 0.21527 0.86284 0.46169 0.0
C665 C 0.2524 0.82588 0.46178 0.0
C666 C 0.22467 0.86934 0.43888 0.0
C667 C 0.20869 0.86979 0.41918 0.0
C668 C 0.18296 0.8639 0.42197 0.0
C669 C 0.17351 0.85832 0.44504 0.0
C670 C 0.18954 0.85783 0.46473 0.0
H671 H 0.26258 0.8101 0.46702 0.0
H672 H 0.23385 0.81902 0.45475 0.0
H673 H 0.26288 0.83563 0.44701 0.0
H674 H 0.24443 0.87374 0.43625 0.0
H675 H 0.21657 0.87436 0.4017 0.0
H676 H 0.6937 0.699 0.57577 0.0
H677 H 0.72015 0.69457 0.54077 0.0
H678 H 0.70346 0.61679 0.54316 0.0
H679 H 0.67672 0.62103 0.57816 0.0
H680 H 0.76239 0.66749 0.53864 0.0
H681 H 0.68981 0.63447 0.47254 0.0
H682 H 0.68247 0.64908 0.50033 0.0
H683 H 0.68987 0.61804 0.50042 0.0
C684 C 0.69545 0.68094 0.56878 0.0
C685 C 0.68303 0.66037 0.57973 0.0
C686 C 0.71063 0.67846 0.54879 0.0
C687 C 0.71357 0.65539 0.53926 0.0
C688 C 0.70112 0.63479 0.55002 0.0
H689 H 0.80044 0.61584 0.41469 0.0
H690 H 0.77479 0.61391 0.45108 0.0
C691 C 0.68592 0.63725 0.57007 0.0
C692 C 0.73037 0.65303 0.51854 0.0
H693 H 0.73147 0.63695 0.45936 0.0
C694 C 0.75567 0.66076 0.52131 0.0
C695 C 0.72153 0.64406 0.49604 0.0
C696 C 0.69441 0.63608 0.49196 0.0
C697 C 0.77238 0.65996 0.50211 0.0
C698 C 0.76343 0.65164 0.47942 0.0
C699 C 0.73825 0.64333 0.47679 0.0
C700 C 0.77965 0.65259 0.45791 0.0
C701 C 0.79948 0.66792 0.50632 0.0
C702 C 0.79071 0.675 0.44964 0.0
C703 C 0.80536 0.67617 0.42895 0.0
C704 C 0.80911 0.65496 0.41599 0.0
C705 C 0.79801 0.6325 0.42432 0.0
C706 C 0.78332 0.63136 0.44506 0.0
H707 H 0.80446 0.66679 0.52563 0.0
H708 H 0.81162 0.65667 0.49579 0.0
H709 H 0.80335 0.68713 0.50059 0.0
H710 H 0.78769 0.69167 0.459 0.0
H711 H 0.81349 0.69378 0.42297 0.0
H712 H 0.93931 0.33419 0.13055 0.0
H713 H 0.97711 0.31307 0.12699 0.0
H714 H 0.9336 0.2441 0.13437 0.0
H715 H 0.89578 0.26494 0.13751 0.0
H716 H 0.99648 0.28305 0.1602 0.0
H717 H 0.97529 0.23274 0.07544 0.0
H718 H 0.95819 0.25763 0.08505 0.0
H719 H 0.95127 0.22778 0.09761 0.0
C720 C 0.93776 0.31452 0.13119 0.0
C721 C 0.9145 0.30126 0.13422 0.0
C722 C 0.95938 0.30248 0.12917 0.0
C723 C 0.95812 0.277 0.13002 0.0
C724 C 0.93495 0.26374 0.13308 0.0
H725 H 0.06358 0.16833 0.13812 0.0
H726 H 0.02656 0.19083 0.13665 0.0
C727 C 0.91335 0.27573 0.13503 0.0
C728 C 0.98114 0.26428 0.12894 0.0
H729 H 0.00925 0.22052 0.09854 0.0
C730 C 0.99939 0.26955 0.14659 0.0
C731 C 0.98485 0.24661 0.11119 0.0
C732 C 0.96648 0.24099 0.09111 0.0
C733 C 0.02097 0.25719 0.14734 0.0
C734 C 0.02452 0.23933 0.12978 0.0
C735 C 0.0064 0.23418 0.11201 0.0
C736 C 0.04689 0.22567 0.12973 0.0
C737 C 0.03949 0.26288 0.16729 0.0
C738 C 0.0705 0.23775 0.12584 0.0
C739 C 0.09166 0.22498 0.12663 0.0
C740 C 0.0896 0.19984 0.13127 0.0
C741 C 0.06583 0.18768 0.13459 0.0
C742 C 0.04466 0.20049 0.13374 0.0
H743 H 0.03144 0.27293 0.18225 0.0
H744 H 0.04626 0.24595 0.17456 0.0
H745 H 0.05573 0.27435 0.16011 0.0
H746 H 0.07256 0.25712 0.12232 0.0
H747 H 0.10966 0.23489 0.12387 0.0
H748 H 0.91732 0.69973 0.30559 0.0
H749 H 0.95696 0.72371 0.31225 0.0
H750 H 0.95669 0.70037 0.38615 0.0
H751 H 0.91683 0.67646 0.37975 0.0
H752 H 0.96811 0.75078 0.38002 0.0
H753 H 0.02528 0.69762 0.32051 0.0
H754 H 0.99815 0.70753 0.30622 0.0
H755 H 0.9947 0.68623 0.33067 0.0
C756 C 0.92572 0.69957 0.32324 0.0
C757 C 0.91395 0.68609 0.34212 0.0
C758 C 0.94844 0.71321 0.32698 0.0
C759 C 0.9599 0.71354 0.3496 0.0
C760 C 0.94818 0.70024 0.36853 0.0
H761 H 0.11294 0.77124 0.37453 0.0
H762 H 0.07354 0.74576 0.37397 0.0
C763 C 0.92544 0.68655 0.36481 0.0
C764 C 0.98386 0.72823 0.35356 0.0
H765 H 0.04399 0.73579 0.33421 0.0
C766 C 0.98477 0.74744 0.37015 0.0
C767 C 0.00561 0.72362 0.34087 0.0
C768 C 0.00605 0.70249 0.32373 0.0
C769 C 0.00673 0.76259 0.37389 0.0
C770 C 0.02819 0.75857 0.36046 0.0
C771 C 0.02744 0.73896 0.34435 0.0
C772 C 0.05162 0.77458 0.36256 0.0
C773 C 0.00681 0.78263 0.39231 0.0
C774 C 0.05235 0.79929 0.35642 0.0
C775 C 0.07484 0.81394 0.35677 0.0
C776 C 0.09706 0.80408 0.36308 0.0
C777 C 0.09618 0.77942 0.3696 0.0
C778 C 0.07369 0.76481 0.36927 0.0
H779 H 0.99145 0.77914 0.40547 0.0
H780 H 0.02472 0.78476 0.40219 0.0
H781 H 0.00427 0.80003 0.38307 0.0
H782 H 0.03562 0.80709 0.35073 0.0
H783 H 0.07489 0.83282 0.35152 0.0
H784 H 0.56765 0.67466 0.61701 0.0
H785 H 0.53181 0.69791 0.60956 0.0
H786 H 0.55156 0.74292 0.6711 0.0
H787 H 0.58727 0.71989 0.67874 0.0
H788 H 0.49158 0.70576 0.64341 0.0
H789 H 0.54482 0.79143 0.61427 0.0
H790 H 0.55794 0.76248 0.61425 0.0
H791 H 0.55513 0.77878 0.64188 0.0
C792 C 0.56438 0.68952 0.62894 0.0
C793 C 0.58036 0.69546 0.64843 0.0
C794 C 0.54391 0.70276 0.62465 0.0
C795 C 0.5393 0.7223 0.63959 0.0
C796 C 0.55506 0.72813 0.65915 0.0
H797 H 0.43151 0.82651 0.65526 0.0
H798 H 0.46751 0.80273 0.65658 0.0
C799 C 0.57539 0.71484 0.66355 0.0
C800 C 0.51768 0.73636 0.6352 0.0
H801 H 0.50181 0.79329 0.62198 0.0
C802 C 0.49373 0.72483 0.63849 0.0
C803 C 0.52066 0.76123 0.62887 0.0
C804 C 0.546 0.77424 0.62439 0.0
C805 C 0.47261 0.73777 0.63643 0.0
C806 C 0.47558 0.76276 0.63036 0.0
C807 C 0.49957 0.77415 0.62664 0.0
C808 C 0.45412 0.77763 0.62865 0.0
C809 C 0.44741 0.72478 0.64169 0.0
C810 C 0.4349 0.77176 0.61211 0.0
C811 C 0.41422 0.78526 0.61139 0.0
C812 C 0.4125 0.80504 0.62703 0.0
C813 C 0.4322 0.81137 0.643 0.0
C814 C 0.4528 0.79779 0.64378 0.0
H815 H 0.4489 0.70767 0.65186 0.0
H816 H 0.43576 0.73656 0.65216 0.0
H817 H 0.43777 0.72005 0.6245 0.0
H818 H 0.43582 0.75664 0.59987 0.0
H819 H 0.39948 0.78001 0.59874 0.0
H820 H 0.90227 0.09362 0.69677 0.0
H821 H 0.90282 0.05805 0.72291 0.0
H822 H 0.82469 0.04003 0.70979 0.0
H823 H 0.82389 0.07556 0.68367 0.0
H824 H 0.83975 0.04154 0.75976 0.0
H825 H 0.8972 0.9849 0.70357 0.0
H826 H 0.90954 0.01583 0.70855 0.0
H827 H 0.88159 0.00972 0.69134 0.0
C828 C 0.88524 0.08198 0.69925 0.0
C829 C 0.86304 0.08743 0.68809 0.0
C830 C 0.88563 0.06161 0.71413 0.0
C831 C 0.86385 0.04633 0.71809 0.0
C832 C 0.84172 0.05158 0.70686 0.0
H833 H 0.81615 0.92104 0.80382 0.0
H834 H 0.81979 0.95739 0.77878 0.0
C835 C 0.84132 0.07187 0.6919 0.0
C836 C 0.86383 0.02543 0.73475 0.0
H837 H 0.88594 0.96992 0.74215 0.0
C838 C 0.84983 0.02586 0.75594 0.0
C839 C 0.87721 0.00517 0.72978 0.0
C840 C 0.89213 0.00364 0.70701 0.0
C841 C 0.84883 0.00651 0.77234 0.0
C842 C 0.86171 0.98594 0.76712 0.0
C843 C 0.87607 0.9857 0.74611 0.0
C844 C 0.85967 0.96407 0.78271 0.0
C845 C 0.83423 0.00845 0.79527 0.0
C846 C 0.88098 0.95535 0.79279 0.0
C847 C 0.879 0.93435 0.80701 0.0
C848 C 0.85565 0.92166 0.81128 0.0
C849 C 0.83439 0.93045 0.80108 0.0
C850 C 0.83641 0.95135 0.78685 0.0
H851 H 0.83209 0.0277 0.79996 0.0
H852 H 0.81536 0.99907 0.79285 0.0
H853 H 0.8433 0.99979 0.81053 0.0
H854 H 0.89914 0.96481 0.78968 0.0
H855 H 0.89574 0.92802 0.81452 0.0
H856 H 0.18189 0.58478 0.79848 0.0
H857 H 0.17783 0.54809 0.77389 0.0
H858 H 0.10191 0.53308 0.79731 0.0
H859 H 0.10562 0.57021 0.82162 0.0
H860 H 0.16754 0.50093 0.78718 0.0
H861 H 0.09469 0.52824 0.72493 0.0
H862 H 0.11153 0.54951 0.74493 0.0
H863 H 0.08637 0.52907 0.75611 0.0
C864 C 0.16427 0.57374 0.7984 0.0
C865 C 0.14403 0.5805 0.81194 0.0
C866 C 0.162 0.55275 0.78431 0.0
C867 C 0.13946 0.53803 0.78344 0.0
C868 C 0.1193 0.54447 0.79725 0.0
H869 H 0.09919 0.40055 0.71018 0.0
H870 H 0.09958 0.43685 0.73548 0.0
C871 C 0.12151 0.5656 0.81127 0.0
C872 C 0.13745 0.51573 0.76843 0.0
H873 H 0.10619 0.48801 0.72107 0.0
C874 C 0.15414 0.49814 0.77271 0.0
C875 C 0.11994 0.51209 0.74956 0.0
C876 C 0.10224 0.5308 0.7434 0.0
C877 C 0.15378 0.47701 0.75868 0.0
C878 C 0.13643 0.47348 0.73973 0.0
C879 C 0.11948 0.49084 0.73563 0.0
C880 C 0.13588 0.452 0.72378 0.0
C881 C 0.17183 0.45848 0.76435 0.0
C882 C 0.15596 0.44879 0.7085 0.0
C883 C 0.15578 0.42815 0.69395 0.0
C884 C 0.13548 0.41032 0.69444 0.0
C885 C 0.11515 0.41388 0.70943 0.0
C886 C 0.11531 0.4346 0.72388 0.0
H887 H 0.18002 0.46121 0.78257 0.0
H888 H 0.16257 0.43974 0.76314 0.0
H889 H 0.18721 0.46016 0.75108 0.0
H890 H 0.17185 0.46222 0.70793 0.0
H891 H 0.1717 0.42602 0.68258 0.0
H892 H 0.70182 0.88236 0.0794 0.0
H893 H 0.7263 0.88564 0.04219 0.0
H894 H 0.73952 0.81006 0.04791 0.0
H895 H 0.7153 0.80657 0.08494 0.0
H896 H 0.77867 0.87296 0.0361 0.0
H897 H 0.71003 0.81888 0.97881 0.0
H898 H 0.70154 0.83304 0.00652 0.0
H899 H 0.71655 0.80532 0.00722 0.0
C900 C 0.70988 0.86643 0.07268 0.0
C901 C 0.70655 0.84418 0.0851 0.0
C902 C 0.72388 0.86836 0.05148 0.0
C903 C 0.73446 0.84803 0.04225 0.0
C904 C 0.73124 0.82588 0.05463 0.0
H905 H 0.82142 0.80637 0.92312 0.0
H906 H 0.79632 0.80962 0.95924 0.0
C907 C 0.71745 0.82397 0.07584 0.0
C908 C 0.74922 0.84977 0.01983 0.0
H909 H 0.75062 0.82727 0.96284 0.0
C910 C 0.7725 0.86324 0.01995 0.0
C911 C 0.74105 0.83698 0.9989 0.0
C912 C 0.71584 0.82287 0.99765 0.0
C913 C 0.78833 0.86345 0.9999 0.0
C914 C 0.78035 0.85024 0.97909 0.0
C915 C 0.75676 0.8373 0.97883 0.0
C916 C 0.79644 0.84877 0.95764 0.0
C917 C 0.81381 0.87697 0.00154 0.0
C918 C 0.80486 0.86972 0.9447 0.0
C919 C 0.81939 0.86795 0.92407 0.0
C920 C 0.82551 0.84514 0.91587 0.0
C921 C 0.81706 0.82422 0.92892 0.0
C922 C 0.80267 0.82603 0.94956 0.0
H923 H 0.81931 0.88102 0.02045 0.0
H924 H 0.82804 0.86638 0.99314 0.0
H925 H 0.81375 0.89451 0.99183 0.0
H926 H 0.79985 0.88741 0.9503 0.0
H927 H 0.82546 0.88439 0.91433 0.0
H928 H 0.17231 0.61608 0.91874 0.0
H929 H 0.19673 0.61278 0.95556 0.0
H930 H 0.21038 0.69083 0.9584 0.0
H931 H 0.18607 0.69435 0.92181 0.0
H932 H 0.24795 0.6313 0.96339 0.0
H933 H 0.18303 0.67152 0.02595 0.0
H934 H 0.17359 0.65992 0.9967 0.0
H935 H 0.19034 0.6894 0.99953 0.0
C936 C 0.18039 0.63254 0.92729 0.0
C937 C 0.17716 0.65549 0.91739 0.0
C938 C 0.19436 0.63061 0.94827 0.0
C939 C 0.20506 0.65157 0.95982 0.0
C940 C 0.20192 0.67446 0.94996 0.0
H941 H 0.29804 0.69524 0.07887 0.0
H942 H 0.27146 0.69102 0.04344 0.0
C943 C 0.18809 0.67641 0.92898 0.0
C944 C 0.22013 0.64974 0.98186 0.0
H945 H 0.22399 0.66777 0.04045 0.0
C946 C 0.24264 0.63898 0.98035 0.0
C947 C 0.21305 0.65976 0.0039 0.0
C948 C 0.18858 0.67061 0.00678 0.0
C949 C 0.25886 0.63899 1.00009 0.0
C950 C 0.25209 0.64964 0.02197 0.0
C951 C 0.2292 0.65971 0.02363 0.0
C952 C 0.26893 0.65171 0.04304 0.0
C953 C 0.28353 0.62853 0.99707 0.0
C954 C 0.27635 0.63097 0.05463 0.0
C955 C 0.29171 0.63332 0.07491 0.0
C956 C 0.2997 0.65646 0.08406 0.0
C957 C 0.29224 0.67715 0.07234 0.0
C958 C 0.277 0.67478 0.05208 0.0
H959 H 0.28822 0.62607 0.97784 0.0
H960 H 0.29869 0.64045 0.0056 0.0
H961 H 0.28271 0.61049 0.00593 0.0
H962 H 0.26996 0.61298 0.04822 0.0
H963 H 0.29701 0.61703 0.08361 0.0
H964 H 0.67346 0.19283 0.42727 0.0
H965 H 0.69782 0.18864 0.46375 0.0
H966 H 0.69744 0.11159 0.45117 0.0
H967 H 0.67313 0.11559 0.41444 0.0
H968 H 0.68604 0.15852 0.50492 0.0
H969 H 0.77215 0.13561 0.45845 0.0
H970 H 0.74738 0.14895 0.44291 0.0
H971 H 0.74396 0.11736 0.45094 0.0
C972 C 0.67849 0.17496 0.43224 0.0
C973 C 0.67146 0.15456 0.41786 0.0
C974 C 0.6924 0.17261 0.45311 0.0
C975 C 0.69969 0.14988 0.45996 0.0
C976 C 0.69231 0.12936 0.44597 0.0
H977 H 0.79686 0.11761 0.5801 0.0
H978 H 0.76929 0.11328 0.54506 0.0
C979 C 0.67831 0.13167 0.42507 0.0
C980 C 0.71508 0.14791 0.48177 0.0
H981 H 0.77334 0.13757 0.50069 0.0
C982 C 0.70508 0.15381 0.50404 0.0
C983 C 0.73985 0.14161 0.48054 0.0
C984 C 0.75165 0.13567 0.45695 0.0
C985 C 0.71932 0.1539 0.52512 0.0
C986 C 0.74437 0.14845 0.52378 0.0
C987 C 0.75414 0.1418 0.50163 0.0
C988 C 0.76109 0.1509 0.54492 0.0
C989 C 0.7074 0.15986 0.54865 0.0
C990 C 0.76598 0.17357 0.55612 0.0
C991 C 0.78166 0.17611 0.57605 0.0
C992 C 0.79294 0.15605 0.58513 0.0
C993 C 0.7884 0.13341 0.5736 0.0
C994 C 0.77266 0.13089 0.5536 0.0
H995 H 0.68684 0.15638 0.54784 0.0
H996 H 0.7144 0.14907 0.56361 0.0
H997 H 0.71193 0.17943 0.55271 0.0
H998 H 0.75771 0.18938 0.54936 0.0
H999 H 0.78486 0.19384 0.58436 0.0
H1000 H 0.21444 0.30796 0.58784 0.0
H1001 H 0.23894 0.31272 0.551 0.0
H1002 H 0.22279 0.38754 0.54585 0.0
H1003 H 0.19795 0.38297 0.5828 0.0
H1004 H 0.21853 0.33286 0.5031 0.0
H1005 H 0.30296 0.38354 0.54225 0.0
H1006 H 0.28228 0.36347 0.5603 0.0
H1007 H 0.27261 0.39201 0.55044 0.0
C1008 C 0.21608 0.32548 0.57896 0.0
C1009 C 0.20425 0.34511 0.58828 0.0
C1010 C 0.23008 0.32813 0.5579 0.0
C1011 C 0.23273 0.35049 0.54589 0.0
C1012 C 0.22103 0.37018 0.55504 0.0
H1013 H 0.32598 0.38657 0.41962 0.0
H1014 H 0.29986 0.38966 0.45531 0.0
C1015 C 0.20682 0.36751 0.57607 0.0
C1016 C 0.24741 0.35281 0.52348 0.0
H1017 H 0.30459 0.3727 0.50144 0.0
C1018 C 0.23728 0.34173 0.50262 0.0
C1019 C 0.27171 0.36457 0.523 0.0
C1020 C 0.28325 0.37658 0.54514 0.0
C1021 C 0.25104 0.34174 0.48126 0.0
C1022 C 0.27583 0.35253 0.481 0.0
C1023 C 0.28566 0.36431 0.50171 0.0
C1024 C 0.29212 0.3508 0.45974 0.0
C1025 C 0.23883 0.33024 0.45915 0.0
C1026 C 0.29693 0.32795 0.45078 0.0
C1027 C 0.31169 0.32612 0.4304 0.0
C1028 C 0.32224 0.34713 0.41872 0.0
C1029 C 0.31807 0.37004 0.42817 0.0
C1030 C 0.30314 0.37184 0.44854 0.0
H1031 H 0.21826 0.32991 0.46012 0.0
H1032 H 0.24533 0.34008 0.44261 0.0
H1033 H 0.24358 0.31116 0.45772 0.0
H1034 H 0.28919 0.31146 0.45954 0.0
H1035 H 0.31474 0.3082 0.42377 0.0
H1036 H 0.07391 0.68727 0.91778 0.0
H1037 H 0.04158 0.71558 0.91842 0.0
H1038 H 0.03364 0.70887 0.84159 0.0
H1039 H 0.06567 0.68037 0.84077 0.0
H1040 H 0.04313 0.76012 0.8948 0.0
H1041 H 0.9618 0.69918 0.86483 0.0
H1042 H 0.99014 0.68782 0.87542 0.0
H1043 H 0.98818 0.69911 0.84525 0.0
C1044 C 0.06505 0.69153 0.90105 0.0
C1045 C 0.07234 0.68147 0.87923 0.0
C1046 C 0.04662 0.70777 0.90146 0.0
C1047 C 0.03502 0.71412 0.8801 0.0
C1048 C 0.04199 0.70385 0.85835 0.0
H1049 H 0.92996 0.81503 0.83768 0.0
H1050 H 0.96147 0.78601 0.83971 0.0
C1051 C 0.06039 0.68762 0.85791 0.0
C1052 C 0.0166 0.73248 0.88036 0.0
H1053 H 0.95696 0.74161 0.86506 0.0
C1054 C 0.02421 0.75604 0.8885 0.0
C1055 C 0.99198 0.72711 0.87206 0.0
C1056 C 0.98241 0.70188 0.8641 0.0
C1057 C 0.00803 0.77457 0.88799 0.0
C1058 C 0.98351 0.76926 0.87943 0.0
C1059 C 0.97582 0.74564 0.87151 0.0
C1060 C 0.9655 0.78796 0.87833 0.0
C1061 C 0.01751 0.79982 0.89598 0.0
C1062 C 0.9574 0.79877 0.89939 0.0
C1063 C 0.93939 0.81543 0.89831 0.0
C1064 C 0.92907 0.82148 0.87614 0.0
C1065 C 0.93755 0.81087 0.85505 0.0
C1066 C 0.95551 0.79421 0.85617 0.0
H1067 H 0.03814 0.80222 0.89658 0.0
H1068 H 0.01082 0.81375 0.8838 0.0
H1069 H 0.01044 0.8031 0.91429 0.0
H1070 H 0.96457 0.7939 0.91672 0.0
H1071 H 0.93319 0.82315 0.91489 0.0
H1072 H 0.10768 0.26682 0.62393 0.0
H1073 H 0.06633 0.24502 0.62155 0.0
H1074 H 0.03312 0.31121 0.63783 0.0
H1075 H 0.07442 0.33327 0.64008 0.0
H1076 H 0.0313 0.24073 0.65912 0.0
H1077 H 0.99371 0.28437 0.57876 0.0
H1078 H 0.02651 0.28636 0.58561 0.0
H1079 H 0.00641 0.3052 0.6013 0.0
C1080 C 0.09159 0.27684 0.62675 0.0
C1081 C 0.09436 0.30181 0.63217 0.0
C1082 C 0.06798 0.26432 0.6254 0.0
C1083 C 0.04668 0.27655 0.62924 0.0
C1084 C 0.04932 0.30153 0.63436 0.0
H1085 H 0.88942 0.23564 0.64277 0.0
H1086 H 0.93108 0.25654 0.63947 0.0
C1087 C 0.07294 0.31408 0.63577 0.0
C1088 C 0.02181 0.26286 0.62927 0.0
H1089 H 0.96505 0.25885 0.60188 0.0
C1090 C 0.01685 0.24453 0.6465 0.0
C1091 C 0.00303 0.26797 0.61283 0.0
C1092 C 0.00765 0.2869 0.59343 0.0
C1093 C 0.99337 0.23154 0.64814 0.0
C1094 C 0.97452 0.23669 0.63175 0.0
C1095 C 0.97955 0.25491 0.61439 0.0
C1096 C 0.94924 0.22385 0.63281 0.0
C1097 C 0.98873 0.21295 0.66788 0.0
C1098 C 0.94556 0.19856 0.62971 0.0
C1099 C 0.92175 0.1865 0.6317 0.0
C1100 C 0.90116 0.19958 0.63661 0.0
C1101 C 0.90486 0.22499 0.63905 0.0
C1102 C 0.92866 0.237 0.63713 0.0
H1103 H 0.00285 0.21552 0.68238 0.0
H1104 H 0.97002 0.21386 0.6759 0.0
H1105 H 0.98966 0.19449 0.66028 0.0
H1106 H 0.96113 0.18813 0.62586 0.0
H1107 H 0.91952 0.16694 0.62956 0.0
H1108 H 0.57249 0.18888 0.33548 0.0
H1109 H 0.54072 0.21766 0.33739 0.0
H1110 H 0.53212 0.20432 0.41335 0.0
H1111 H 0.56404 0.17559 0.4117 0.0
H1112 H 0.49056 0.2103 0.3532 0.0
H1113 H 0.54624 0.27892 0.40866 0.0
H1114 H 0.55992 0.25463 0.39327 0.0
H1115 H 0.54305 0.24864 0.42075 0.0
C1116 C 0.5638 0.19196 0.3526 0.0
C1117 C 0.57092 0.18 0.37347 0.0
C1118 C 0.54565 0.20844 0.35364 0.0
C1119 C 0.53438 0.2134 0.37557 0.0
C1120 C 0.54095 0.20107 0.39633 0.0
H1121 H 0.42413 0.31116 0.41647 0.0
H1122 H 0.45556 0.28192 0.41583 0.0
C1123 C 0.55908 0.18454 0.39531 0.0
C1124 C 0.51573 0.23148 0.37662 0.0
H1125 H 0.50467 0.28647 0.40045 0.0
C1126 C 0.49363 0.22698 0.36348 0.0
C1127 C 0.51981 0.25319 0.39009 0.0
C1128 C 0.54361 0.25934 0.40386 0.0
C1129 C 0.47533 0.24348 0.36369 0.0
C1130 C 0.47949 0.26531 0.37699 0.0
C1131 C 0.50154 0.26974 0.39024 0.0
C1132 C 0.46117 0.28377 0.37737 0.0
C1133 C 0.45148 0.23714 0.35006 0.0
C1134 C 0.45437 0.29499 0.35605 0.0
C1135 C 0.43638 0.31166 0.35633 0.0
C1136 C 0.42499 0.31761 0.37801 0.0
C1137 C 0.43248 0.30696 0.39946 0.0
C1138 C 0.45043 0.29023 0.39914 0.0
H1139 H 0.44839 0.21733 0.34639 0.0
H1140 H 0.43524 0.24285 0.36013 0.0
H1141 H 0.45244 0.24676 0.33254 0.0
H1142 H 0.46287 0.29072 0.33913 0.0
H1143 H 0.43119 0.31964 0.3395 0.0
H1144 H 0.61572 0.59237 0.69721 0.0
H1145 H 0.61369 0.55751 0.72452 0.0
H1146 H 0.66534 0.52312 0.67966 0.0
H1147 H 0.66775 0.55793 0.65244 0.0
H1148 H 0.60015 0.50795 0.7166 0.0
H1149 H 0.69833 0.5242 0.74606 0.0
H1150 H 0.6826 0.54664 0.7299 0.0
H1151 H 0.69467 0.52188 0.71406 0.0
C1152 C 0.62657 0.57735 0.69308 0.0
C1153 C 0.64206 0.57803 0.67273 0.0
C1154 C 0.62538 0.55745 0.70872 0.0
C1155 C 0.63972 0.53796 0.70434 0.0
C1156 C 0.65454 0.53822 0.68364 0.0
H1157 H 0.62781 0.39334 0.76444 0.0
H1158 H 0.62547 0.42959 0.73975 0.0
C1159 C 0.65577 0.55809 0.66802 0.0
C1160 C 0.63936 0.51742 0.72149 0.0
H1161 H 0.67676 0.48655 0.7576 0.0
C1162 C 0.61685 0.50332 0.72569 0.0
C1163 C 0.66109 0.51169 0.73363 0.0
C1164 C 0.6855 0.52702 0.73091 0.0
C1165 C 0.61565 0.48318 0.74118 0.0
C1166 C 0.63763 0.4768 0.75245 0.0
C1167 C 0.65998 0.49133 0.74877 0.0
C1168 C 0.63803 0.4549 0.7678 0.0
C1169 C 0.59083 0.46907 0.7455 0.0
C1170 C 0.64634 0.45703 0.79166 0.0
C1171 C 0.64792 0.4363 0.8058 0.0
C1172 C 0.64133 0.41302 0.79627 0.0
C1173 C 0.6329 0.41098 0.77239 0.0
C1174 C 0.63138 0.43171 0.75827 0.0
H1175 H 0.57518 0.48015 0.7414 0.0
H1176 H 0.58907 0.4529 0.73359 0.0
H1177 H 0.58907 0.46272 0.7644 0.0
H1178 H 0.65171 0.47476 0.79932 0.0
H1179 H 0.65451 0.43852 0.82411 0.0
H1180 H 0.37665 0.11062 0.76475 0.0
H1181 H 0.37721 0.07451 0.73951 0.0
H1182 H 0.34675 0.02979 0.79774 0.0
H1183 H 0.34576 0.06592 0.82311 0.0
H1184 H 0.40078 0.03204 0.74562 0.0
H1185 H 0.29811 0.01288 0.74247 0.0
H1186 H 0.31307 0.04136 0.75323 0.0
H1187 H 0.31104 0.01493 0.7722 0.0
C1188 C 0.3701 0.09311 0.77226 0.0
C1189 C 0.36097 0.09118 0.7959 0.0
C1190 C 0.37049 0.07249 0.75779 0.0
C1191 C 0.36168 0.04955 0.76663 0.0
C1192 C 0.35319 0.04741 0.79043 0.0
H1193 H 0.38064 0.91018 0.69875 0.0
H1194 H 0.38373 0.94576 0.72506 0.0
C1195 C 0.35276 0.06806 0.80493 0.0
C1196 C 0.36112 0.02798 0.75073 0.0
H1197 H 0.32186 0.98394 0.72429 0.0
C1198 C 0.38355 0.02148 0.74095 0.0
C1199 C 0.33856 0.01448 0.74442 0.0
C1200 C 0.31378 0.02133 0.75342 0.0
C1201 C 0.38404 0.0017 0.72515 0.0
C1202 C 0.36153 0.98789 0.71927 0.0
C1203 C 0.33911 0.99449 0.72894 0.0
C1204 C 0.36067 0.96671 0.70283 0.0
C1205 C 0.40855 0.99612 0.71448 0.0
C1206 C 0.34644 0.96655 0.68174 0.0
C1207 C 0.34449 0.94619 0.66673 0.0
C1208 C 0.35666 0.92552 0.6726 0.0
C1209 C 0.37116 0.92585 0.69361 0.0
C1210 C 0.37305 0.94622 0.70864 0.0
H1211 H 0.42276 0.01191 0.71581 0.0
H1212 H 0.4156 0.98073 0.7244 0.0
H1213 H 0.40637 0.9908 0.69531 0.0
H1214 H 0.33668 0.98216 0.67696 0.0
H1215 H 0.33315 0.94654 0.65072 0.0
H1216 H 0.39568 0.23348 0.84605 0.0
H1217 H 0.43674 0.25548 0.85016 0.0
H1218 H 0.46776 0.18874 0.86886 0.0
H1219 H 0.42676 0.16644 0.8644 0.0
H1220 H 0.4683 0.26006 0.88979 0.0
H1221 H 0.5123 0.21496 0.81368 0.0
H1222 H 0.47909 0.21268 0.81816 0.0
H1223 H 0.49821 0.19457 0.83591 0.0
C1224 C 0.41121 0.22343 0.851 0.0
C1225 C 0.40796 0.19816 0.85474 0.0
C1226 C 0.43467 0.23606 0.85338 0.0
C1227 C 0.45534 0.22369 0.85947 0.0
C1228 C 0.45212 0.19855 0.86366 0.0
H1229 H 0.61228 0.27325 0.87378 0.0
H1230 H 0.57182 0.24957 0.87517 0.0
C1231 C 0.42866 0.18586 0.86122 0.0
C1232 C 0.48021 0.23725 0.86146 0.0
H1233 H 0.53846 0.2422 0.83715 0.0
C1234 C 0.48366 0.25617 0.8783 0.0
C1235 C 0.5002 0.23209 0.84644 0.0
C1236 C 0.49732 0.21262 0.82737 0.0
C1237 C 0.50662 0.27002 0.88062 0.0
C1238 C 0.52652 0.26504 0.86543 0.0
C1239 C 0.52316 0.24593 0.8488 0.0
C1240 C 0.55081 0.2798 0.86599 0.0
C1241 C 0.50948 0.28968 0.89949 0.0
C1242 C 0.5524 0.30465 0.86034 0.0
C1243 C 0.57548 0.31826 0.85956 0.0
C1244 C 0.59744 0.3072 0.86423 0.0
C1245 C 0.59574 0.28234 0.87011 0.0
C1246 C 0.57264 0.26876 0.8709 0.0
H1247 H 0.49512 0.28679 0.91374 0.0
H1248 H 0.52814 0.29052 0.90797 0.0
H1249 H 0.50735 0.30752 0.89093 0.0
H1250 H 0.53582 0.31342 0.85601 0.0
H1251 H 0.57614 0.33733 0.85485 0.0
H1252 H 0.4042 0.59446 0.2002 0.0
H1253 H 0.40464 0.55811 0.22524 0.0
H1254 H 0.32695 0.53967 0.21011 0.0
H1255 H 0.32643 0.57566 0.18469 0.0
H1256 H 0.37777 0.54636 0.26583 0.0
H1257 H 0.35608 0.47615 0.19606 0.0
H1258 H 0.36539 0.50748 0.18875 0.0
H1259 H 0.33376 0.49828 0.19712 0.0
C1260 C 0.38725 0.58255 0.202 0.0
C1261 C 0.3653 0.58791 0.19033 0.0
C1262 C 0.38754 0.5618 0.21635 0.0
C1263 C 0.36594 0.54597 0.21925 0.0
C1264 C 0.34399 0.5513 0.20767 0.0
H1265 H 0.31675 0.42226 0.3057 0.0
H1266 H 0.32155 0.45791 0.27961 0.0
C1267 C 0.3437 0.57198 0.19324 0.0
C1268 C 0.36604 0.52444 0.23519 0.0
H1269 H 0.35238 0.46288 0.23686 0.0
C1270 C 0.37249 0.52807 0.25945 0.0
C1271 C 0.35921 0.50058 0.22682 0.0
C1272 C 0.35346 0.49531 0.20072 0.0
C1273 C 0.37146 0.50858 0.27574 0.0
C1274 C 0.36399 0.48486 0.26746 0.0
C1275 C 0.35799 0.48115 0.24314 0.0
C1276 C 0.36142 0.4637 0.28389 0.0
C1277 C 0.37758 0.51355 0.30181 0.0
C1278 C 0.38231 0.45515 0.29492 0.0
C1279 C 0.37966 0.43468 0.30986 0.0
C1280 C 0.35605 0.42246 0.31398 0.0
C1281 C 0.33519 0.43125 0.30299 0.0
C1282 C 0.33788 0.4516 0.28802 0.0
H1283 H 0.37863 0.53327 0.30609 0.0
H1284 H 0.36345 0.50376 0.31362 0.0
H1285 H 0.39585 0.50687 0.30602 0.0
H1286 H 0.40068 0.46409 0.2917 0.0
H1287 H 0.3961 0.42832 0.31798 0.0
H1288 H 0.68377 0.08174 0.30094 0.0
H1289 H 0.67976 0.04563 0.27554 0.0
H1290 H 0.60092 0.03681 0.28938 0.0
H1291 H 0.60468 0.07339 0.3145 0.0
H1292 H 0.66362 0.99891 0.28669 0.0
H1293 H 0.60307 0.03404 0.21655 0.0
H1294 H 0.61888 0.05351 0.23881 0.0
H1295 H 0.5909 0.03504 0.2465 0.0
C1296 C 0.66553 0.07219 0.29859 0.0
C1297 C 0.64451 0.08054 0.30967 0.0
C1298 C 0.66329 0.05152 0.28404 0.0
C1299 C 0.64 0.03873 0.28023 0.0
C1300 C 0.61899 0.04672 0.29161 0.0
H1301 H 0.59879 0.90534 0.20026 0.0
H1302 H 0.5987 0.94131 0.22596 0.0
C1303 C 0.6212 0.06753 0.3061 0.0
C1304 C 0.63802 0.01681 0.26469 0.0
H1305 H 0.61142 0.99279 0.21324 0.0
C1306 C 0.65222 0.99759 0.27062 0.0
C1307 C 0.62311 0.01512 0.24372 0.0
C1308 C 0.60828 0.03559 0.23583 0.0
C1309 C 0.65192 0.97674 0.25621 0.0
C1310 C 0.63721 0.97515 0.23518 0.0
C1311 C 0.62269 0.99414 0.22939 0.0
C1312 C 0.63701 0.95401 0.21882 0.0
C1313 C 0.66721 0.95644 0.26364 0.0
C1314 C 0.65846 0.94958 0.20594 0.0
C1315 C 0.65857 0.92913 0.19116 0.0
C1316 C 0.63721 0.91272 0.18903 0.0
C1317 C 0.61558 0.91755 0.20156 0.0
C1318 C 0.61546 0.93809 0.21624 0.0
H1319 H 0.67312 0.95811 0.28273 0.0
H1320 H 0.65659 0.93847 0.261 0.0
H1321 H 0.68415 0.95699 0.25231 0.0
H1322 H 0.67518 0.96186 0.20748 0.0
H1323 H 0.67552 0.926 0.18173 0.0
H1324 H 0.61189 0.76574 0.12789 0.0
H1325 H 0.57063 0.74376 0.12581 0.0
H1326 H 0.537 0.81096 0.13559 0.0
H1327 H 0.57822 0.8332 0.13746 0.0
H1328 H 0.53464 0.74177 0.16185 0.0
H1329 H 0.4992 0.78011 0.07773 0.0
H1330 H 0.53176 0.78296 0.08562 0.0
H1331 H 0.51091 0.8025 0.09926 0.0
C1332 C 0.59574 0.77592 0.12935 0.0
C1333 C 0.59836 0.80125 0.1328 0.0
C1334 C 0.57218 0.7633 0.12817 0.0
C1335 C 0.55078 0.77576 0.13025 0.0
C1336 C 0.55328 0.80106 0.13346 0.0
H1337 H 0.39339 0.73564 0.14269 0.0
H1338 H 0.43515 0.75627 0.13928 0.0
C1339 C 0.57686 0.81373 0.13465 0.0
C1340 C 0.5259 0.76206 0.13042 0.0
H1341 H 0.46982 0.7563 0.10174 0.0
C1342 C 0.52051 0.74479 0.1486 0.0
C1343 C 0.50754 0.76611 0.11315 0.0
C1344 C 0.51263 0.78377 0.09269 0.0
C1345 C 0.49701 0.73185 0.15034 0.0
C1346 C 0.47858 0.73601 0.13316 0.0
C1347 C 0.48402 0.75315 0.11486 0.0
C1348 C 0.45327 0.72327 0.13433 0.0
C1349 C 0.49188 0.71441 0.17099 0.0
C1350 C 0.44957 0.69788 0.13227 0.0
C1351 C 0.42569 0.68597 0.13428 0.0
C1352 C 0.40509 0.69931 0.13825 0.0
C1353 C 0.40884 0.7248 0.13972 0.0
C1354 C 0.43269 0.73665 0.13774 0.0
H1355 H 0.50581 0.71762 0.18559 0.0
H1356 H 0.47308 0.71597 0.17858 0.0
H1357 H 0.49265 0.69553 0.16443 0.0
H1358 H 0.46517 0.68726 0.12919 0.0
H1359 H 0.42343 0.66634 0.13292 0.0
loop_
_geom_bond_atom_site_label_1
_geom_bond_atom_site_label_2
_geom_bond_distance
_geom_bond_site_symmetry_2
_ccdc_geom_bond_type
C0 O1 1.160 . S
C0 O7 1.185 . S
O1 C0 1.160 . S
O2 Zn3 1.899 . S
O2 C10 1.284 . S
Zn3 O2 1.899 . S
Zn3 O4 2.032 . S
Zn3 O7 2.086 . S
Zn3 O12 1.977 . S
O4 Zn3 2.032 . S
O4 C8 1.278 . S
C5 O6 1.203 . S
C5 O12 1.267 . S
O6 C5 1.203 . S
O7 C0 1.185 . S
O7 Zn3 2.086 . S
C8 O4 1.278 . S
C8 O9 1.211 . S
O9 C8 1.211 . S
C10 O2 1.284 . S
C10 O11 1.273 . S
O11 C10 1.273 . S
O12 Zn3 1.977 . S
O12 C5 1.267 . S
C13 O14 1.160 . S
C13 O20 1.185 . S
O14 C13 1.160 . S
O15 Zn16 1.899 . S
O15 C23 1.284 . S
Zn16 O15 1.899 . S
Zn16 O17 2.032 . S
Zn16 O20 2.086 . S
Zn16 O25 1.977 . S
O17 Zn16 2.032 . S
O17 C21 1.278 . S
C18 O19 1.203 . S
C18 O25 1.267 . S
O19 C18 1.203 . S
O20 C13 1.185 . S
O20 Zn16 2.086 . S
C21 O17 1.278 . S
C21 O22 1.211 . S
O22 C21 1.211 . S
C23 O15 1.284 . S
C23 O24 1.273 . S
O24 C23 1.273 . S
O25 Zn16 1.977 . S
O25 C18 1.267 . S
C26 O27 1.160 . S
C26 O33 1.185 . S
O27 C26 1.160 . S
O28 Zn29 1.899 . S
O28 C36 1.284 . S
Zn29 O28 1.899 . S
Zn29 O30 2.032 . S
Zn29 O33 2.086 . S
Zn29 O38 1.977 . S
O30 Zn29 2.032 . S
O30 C34 1.278 . S
C31 O32 1.203 . S
C31 O38 1.267 . S
O32 C31 1.203 . S
O33 C26 1.185 . S
O33 Zn29 2.086 . S
C34 O30 1.278 . S
C34 O35 1.211 . S
O35 C34 1.211 . S
C36 O28 1.284 . S
C36 O37 1.273 . S
O37 C36 1.273 . S
O38 Zn29 1.977 . S
O38 C31 1.267 . S
C39 O40 1.160 . S
C39 O46 1.185 . S
O40 C39 1.160 . S
O41 Zn42 1.899 . S
O41 C49 1.284 . S
Zn42 O41 1.899 . S
Zn42 O43 2.032 . S
Zn42 O46 2.086 . S
Zn42 O51 1.977 . S
O43 Zn42 2.032 . S
O43 C47 1.278 . S
C44 O45 1.203 . S
C44 O51 1.267 . S
O45 C44 1.203 . S
O46 C39 1.185 . S
O46 Zn42 2.086 . S
C47 O43 1.278 . S
C47 O48 1.211 . S
O48 C47 1.211 . S
C49 O41 1.284 . S
C49 O50 1.273 . S
O50 C49 1.273 . S
O51 Zn42 1.977 . S
O51 C44 1.267 . S
C52 O53 1.160 . S
C52 O59 1.185 . S
O53 C52 1.160 . S
O54 Zn55 1.899 . S
O54 C62 1.284 . S
Zn55 O54 1.899 . S
Zn55 O56 2.032 . S
Zn55 O59 2.086 . S
Zn55 O64 1.977 . S
O56 Zn55 2.032 . S
O56 C60 1.278 . S
C57 O58 1.203 . S
C57 O64 1.267 . S
O58 C57 1.203 . S
O59 C52 1.185 . S
O59 Zn55 2.086 . S
C60 O56 1.278 . S
C60 O61 1.211 . S
O61 C60 1.211 . S
C62 O54 1.284 . S
C62 O63 1.273 . S
O63 C62 1.273 . S
O64 Zn55 1.977 . S
O64 C57 1.267 . S
C65 O66 1.160 . S
C65 O72 1.185 . S
O66 C65 1.160 . S
O67 Zn68 1.899 . S
O67 C75 1.284 . S
Zn68 O67 1.899 . S
Zn68 O69 2.032 . S
Zn68 O72 2.086 . S
Zn68 O77 1.977 . S
O69 Zn68 2.032 . S
O69 C73 1.278 . S
C70 O71 1.203 . S
C70 O77 1.267 . S
O71 C70 1.203 . S
O72 C65 1.185 . S
O72 Zn68 2.086 . S
C73 O69 1.278 . S
C73 O74 1.211 . S
O74 C73 1.211 . S
C75 O67 1.284 . S
C75 O76 1.273 . S
O76 C75 1.273 . S
O77 Zn68 1.977 . S
O77 C70 1.267 . S
C78 O79 1.160 . S
C78 O85 1.185 . S
O79 C78 1.160 . S
O80 Zn81 1.899 . S
O80 C88 1.284 . S
Zn81 O80 1.899 . S
Zn81 O82 2.032 . S
Zn81 O85 2.086 . S
Zn81 O90 1.977 . S
O82 Zn81 2.032 . S
O82 C86 1.278 . S
C83 O84 1.203 . S
C83 O90 1.267 . S
O84 C83 1.203 . S
O85 C78 1.185 . S
O85 Zn81 2.086 . S
C86 O82 1.278 . S
C86 O87 1.211 . S
O87 C86 1.211 . S
C88 O80 1.284 . S
C88 O89 1.273 . S
O89 C88 1.273 . S
O90 Zn81 1.977 . S
O90 C83 1.267 . S
C91 O92 1.160 . S
C91 O98 1.185 . S
O92 C91 1.160 . S
O93 Zn94 1.899 . S
O93 C101 1.284 . S
Zn94 O93 1.899 . S
Zn94 O95 2.032 . S
Zn94 O98 2.086 . S
Zn94 O103 1.977 . S
O95 Zn94 2.032 . S
O95 C99 1.278 . S
C96 O97 1.203 . S
C96 O103 1.267 . S
O97 C96 1.203 . S
O98 C91 1.185 . S
O98 Zn94 2.086 . S
C99 O95 1.278 . S
C99 O100 1.211 . S
O100 C99 1.211 . S
C101 O93 1.284 . S
C101 O102 1.273 . S
O102 C101 1.273 . S
O103 Zn94 1.977 . S
O103 C96 1.267 . S
C104 O105 1.160 . S
C104 O111 1.185 . S
O105 C104 1.160 . S
O106 Zn107 1.899 . S
O106 C114 1.284 . S
Zn107 O106 1.899 . S
Zn107 O108 2.032 . S
Zn107 O111 2.086 . S
Zn107 O116 1.977 . S
O108 Zn107 2.032 . S
O108 C112 1.278 . S
C109 O110 1.203 . S
C109 O116 1.267 . S
O110 C109 1.203 . S
O111 C104 1.185 . S
O111 Zn107 2.086 . S
C112 O108 1.278 . S
C112 O113 1.211 . S
O113 C112 1.211 . S
C114 O106 1.284 . S
C114 O115 1.273 . S
O115 C114 1.273 . S
O116 Zn107 1.977 . S
O116 C109 1.267 . S
C117 O118 1.160 . S
C117 O124 1.185 . S
O118 C117 1.160 . S
O119 Zn120 1.899 . S
O119 C127 1.284 . S
Zn120 O119 1.899 . S
Zn120 O121 2.032 . S
Zn120 O124 2.086 . S
Zn120 O129 1.977 . S
O121 Zn120 2.032 . S
O121 C125 1.278 . S
C122 O123 1.203 . S
C122 O129 1.267 . S
O123 C122 1.203 . S
O124 C117 1.185 . S
O124 Zn120 2.086 . S
C125 O121 1.278 . S
C125 O126 1.211 . S
O126 C125 1.211 . S
C127 O119 1.284 . S
C127 O128 1.273 . S
O128 C127 1.273 . S
O129 Zn120 1.977 . S
O129 C122 1.267 . S
C130 O131 1.160 . S
C130 O137 1.185 . S
O131 C130 1.160 . S
O132 Zn133 1.899 . S
O132 C140 1.284 . S
Zn133 O132 1.899 . S
Zn133 O134 2.032 . S
Zn133 O137 2.086 . S
Zn133 O142 1.977 . S
O134 Zn133 2.032 . S
O134 C138 1.278 . S
C135 O136 1.203 . S
C135 O142 1.267 . S
O136 C135 1.203 . S
O137 C130 1.185 . S
O137 Zn133 2.086 . S
C138 O134 1.278 . S
C138 O139 1.211 . S
O139 C138 1.211 . S
C140 O132 1.284 . S
C140 O141 1.273 . S
O141 C140 1.273 . S
O142 Zn133 1.977 . S
O142 C135 1.267 . S
C143 O144 1.160 . S
C143 O150 1.185 . S
O144 C143 1.160 . S
O145 Zn146 1.899 . S
O145 C153 1.284 . S
Zn146 O145 1.899 . S
Zn146 O147 2.032 . S
Zn146 O150 2.086 . S
Zn146 O155 1.977 . S
O147 Zn146 2.032 . S
O147 C151 1.278 . S
C148 O149 1.203 . S
C148 O155 1.267 . S
O149 C148 1.203 . S
O150 C143 1.185 . S
O150 Zn146 2.086 . S
C151 O147 1.278 . S
C151 O152 1.211 . S
O152 C151 1.211 . S
C153 O145 1.284 . S
C153 O154 1.273 . S
O154 C153 1.273 . S
O155 Zn146 1.977 . S
O155 C148 1.267 . S
C156 O157 1.160 . S
C156 O163 1.185 . S
O157 C156 1.160 . S
O158 Zn159 1.899 . S
O158 C166 1.284 . S
Zn159 O158 1.899 . S
Zn159 O160 2.032 . S
Zn159 O163 2.086 . S
Zn159 O168 1.977 . S
O160 Zn159 2.032 . S
O160 C164 1.278 . S
C161 O162 1.203 . S
C161 O168 1.267 . S
O162 C161 1.203 . S
O163 C156 1.185 . S
O163 Zn159 2.086 . S
C164 O160 1.278 . S
C164 O165 1.211 . S
O165 C164 1.211 . S
C166 O158 1.284 . S
C166 O167 1.273 . S
O167 C166 1.273 . S
O168 Zn159 1.977 . S
O168 C161 1.267 . S
C169 O170 1.160 . S
C169 O176 1.185 . S
O170 C169 1.160 . S
O171 Zn172 1.899 . S
O171 C179 1.284 . S
Zn172 O171 1.899 . S
Zn172 O173 2.032 . S
Zn172 O176 2.086 . S
Zn172 O181 1.977 . S
O173 Zn172 2.032 . S
O173 C177 1.278 . S
C174 O175 1.203 . S
C174 O181 1.267 . S
O175 C174 1.203 . S
O176 C169 1.185 . S
O176 Zn172 2.086 . S
C177 O173 1.278 . S
C177 O178 1.211 . S
O178 C177 1.211 . S
C179 O171 1.284 . S
C179 O180 1.273 . S
O180 C179 1.273 . S
O181 Zn172 1.977 . S
O181 C174 1.267 . S
C182 O183 1.160 . S
C182 O189 1.185 . S
O183 C182 1.160 . S
O184 Zn185 1.899 . S
O184 C192 1.284 . S
Zn185 O184 1.899 . S
Zn185 O186 2.032 . S
Zn185 O189 2.086 . S
Zn185 O194 1.977 . S
O186 Zn185 2.032 . S
O186 C190 1.278 . S
C187 O188 1.203 . S
C187 O194 1.267 . S
O188 C187 1.203 . S
O189 C182 1.185 . S
O189 Zn185 2.086 . S
C190 O186 1.278 . S
C190 O191 1.211 . S
O191 C190 1.211 . S
C192 O184 1.284 . S
C192 O193 1.273 . S
O193 C192 1.273 . S
O194 Zn185 1.977 . S
O194 C187 1.267 . S
C195 O196 1.160 . S
C195 O202 1.185 . S
O196 C195 1.160 . S
O197 Zn198 1.899 . S
O197 C205 1.284 . S
Zn198 O197 1.899 . S
Zn198 O199 2.032 . S
Zn198 O202 2.086 . S
Zn198 O207 1.977 . S
O199 Zn198 2.032 . S
O199 C203 1.278 . S
C200 O201 1.203 . S
C200 O207 1.267 . S
O201 C200 1.203 . S
O202 C195 1.185 . S
O202 Zn198 2.086 . S
C203 O199 1.278 . S
C203 O204 1.211 . S
O204 C203 1.211 . S
C205 O197 1.284 . S
C205 O206 1.273 . S
O206 C205 1.273 . S
O207 Zn198 1.977 . S
O207 C200 1.267 . S
H208 C216 0.929 . S
H209 C218 0.930 . S
H210 C220 0.930 . S
H211 C223 0.929 . S
H212 C226 0.930 . S
H213 C228 0.960 . S
H214 C228 0.960 . S
H215 C228 0.960 . S
C216 H208 0.929 . S
C216 C217 1.377 . S
C216 C218 1.384 . S
C217 C216 1.377 . S
C217 C223 1.390 . S
C218 H209 0.930 . S
C218 C216 1.384 . S
C218 C219 1.372 . S
C219 C218 1.372 . S
C219 C220 1.400 . S
C219 C224 1.490 . S
C220 H210 0.930 . S
C220 C219 1.400 . S
C220 C223 1.386 . S
H221 C237 0.930 . S
H222 C238 0.931 . S
C223 H211 0.929 . S
C223 C217 1.390 . S
C223 C220 1.386 . S
C224 C219 1.490 . S
C224 C226 1.395 . S
C224 C227 1.403 . S
H225 C231 0.930 . S
C226 H212 0.930 . S
C226 C224 1.395 . S
C226 C229 1.403 . S
C227 C224 1.403 . S
C227 C228 1.524 . S
C227 C231 1.400 . S
C228 H213 0.960 . S
C228 H214 0.960 . S
C228 H215 0.960 . S
C228 C227 1.524 . S
C229 C226 1.403 . S
C229 C230 1.392 . S
C229 C233 1.495 . S
C230 C229 1.392 . S
C230 C231 1.385 . S
C230 C232 1.478 . S
C231 H225 0.930 . S
C231 C227 1.400 . S
C231 C230 1.385 . S
C232 C230 1.478 . S
C232 C234 1.381 . S
C232 C238 1.383 . S
C233 C229 1.495 . S
C233 H239 0.959 . S
C233 H240 0.961 . S
C233 H241 0.960 . S
C234 C232 1.381 . S
C234 C235 1.394 . S
C234 H242 0.930 . S
C235 C234 1.394 . S
C235 C236 1.383 . S
C235 H243 0.929 . S
C236 C235 1.383 . S
C236 C237 1.377 . S
C237 H221 0.930 . S
C237 C236 1.377 . S
C237 C238 1.379 . S
C238 H222 0.931 . S
C238 C232 1.383 . S
C238 C237 1.379 . S
H239 C233 0.959 . S
H240 C233 0.961 . S
H241 C233 0.960 . S
H242 C234 0.930 . S
H243 C235 0.929 . S
H244 C252 0.929 . S
H245 C254 0.930 . S
H246 C256 0.930 . S
H247 C259 0.929 . S
H248 C262 0.930 . S
H249 C264 0.960 . S
H250 C264 0.960 . S
H251 C264 0.960 . S
C252 H244 0.929 . S
C252 C253 1.377 . S
C252 C254 1.384 . S
C253 C252 1.377 . S
C253 C259 1.390 . S
C254 H245 0.930 . S
C254 C252 1.384 . S
C254 C255 1.372 . S
C255 C254 1.372 . S
C255 C256 1.400 . S
C255 C260 1.490 . S
C256 H246 0.930 . S
C256 C255 1.400 . S
C256 C259 1.386 . S
H257 C273 0.930 . S
H258 C274 0.931 . S
C259 H247 0.929 . S
C259 C253 1.390 . S
C259 C256 1.386 . S
C260 C255 1.490 . S
C260 C262 1.395 . S
C260 C263 1.403 . S
H261 C267 0.930 . S
C262 H248 0.930 . S
C262 C260 1.395 . S
C262 C265 1.403 . S
C263 C260 1.403 . S
C263 C264 1.524 . S
C263 C267 1.400 . S
C264 H249 0.960 . S
C264 H250 0.960 . S
C264 H251 0.960 . S
C264 C263 1.524 . S
C265 C262 1.403 . S
C265 C266 1.392 . S
C265 C269 1.495 . S
C266 C265 1.392 . S
C266 C267 1.385 . S
C266 C268 1.478 . S
C267 H261 0.930 . S
C267 C263 1.400 . S
C267 C266 1.385 . S
C268 C266 1.478 . S
C268 C270 1.381 . S
C268 C274 1.383 . S
C269 C265 1.495 . S
C269 H275 0.959 . S
C269 H276 0.961 . S
C269 H277 0.960 . S
C270 C268 1.381 . S
C270 C271 1.394 . S
C270 H278 0.930 . S
C271 C270 1.394 . S
C271 C272 1.383 . S
C271 H279 0.929 . S
C272 C271 1.383 . S
C272 C273 1.377 . S
C273 H257 0.930 . S
C273 C272 1.377 . S
C273 C274 1.379 . S
C274 H258 0.931 . S
C274 C268 1.383 . S
C274 C273 1.379 . S
H275 C269 0.959 . S
H276 C269 0.961 . S
H277 C269 0.960 . S
H278 C270 0.930 . S
H279 C271 0.929 . S
H280 C288 0.929 . S
H281 C290 0.930 . S
H282 C292 0.930 . S
H283 C295 0.929 . S
H284 C298 0.930 . S
H285 C300 0.960 . S
H286 C300 0.960 . S
H287 C300 0.960 . S
C288 H280 0.929 . S
C288 C289 1.377 . S
C288 C290 1.384 . S
C289 C288 1.377 . S
C289 C295 1.390 . S
C290 H281 0.930 . S
C290 C288 1.384 . S
C290 C291 1.372 . S
C291 C290 1.372 . S
C291 C292 1.400 . S
C291 C296 1.490 . S
C292 H282 0.930 . S
C292 C291 1.400 . S
C292 C295 1.386 . S
H293 C309 0.930 . S
H294 C310 0.931 . S
C295 H283 0.929 . S
C295 C289 1.390 . S
C295 C292 1.386 . S
C296 C291 1.490 . S
C296 C298 1.395 . S
C296 C299 1.403 . S
H297 C303 0.930 . S
C298 H284 0.930 . S
C298 C296 1.395 . S
C298 C301 1.403 . S
C299 C296 1.403 . S
C299 C300 1.524 . S
C299 C303 1.400 . S
C300 H285 0.960 . S
C300 H286 0.960 . S
C300 H287 0.960 . S
C300 C299 1.524 . S
C301 C298 1.403 . S
C301 C302 1.392 . S
C301 C305 1.495 . S
C302 C301 1.392 . S
C302 C303 1.385 . S
C302 C304 1.478 . S
C303 H297 0.930 . S
C303 C299 1.400 . S
C303 C302 1.385 . S
C304 C302 1.478 . S
C304 C306 1.381 . S
C304 C310 1.383 . S
C305 C301 1.495 . S
C305 H311 0.959 . S
C305 H312 0.961 . S
C305 H313 0.960 . S
C306 C304 1.381 . S
C306 C307 1.394 . S
C306 H314 0.930 . S
C307 C306 1.394 . S
C307 C308 1.383 . S
C307 H315 0.929 . S
C308 C307 1.383 . S
C308 C309 1.377 . S
C309 H293 0.930 . S
C309 C308 1.377 . S
C309 C310 1.379 . S
C310 H294 0.931 . S
C310 C304 1.383 . S
C310 C309 1.379 . S
H311 C305 0.959 . S
H312 C305 0.961 . S
H313 C305 0.960 . S
H314 C306 0.930 . S
H315 C307 0.929 . S
H316 C324 0.929 . S
H317 C326 0.930 . S
H318 C328 0.930 . S
H319 C331 0.929 . S
H320 C334 0.930 . S
H321 C336 0.960 . S
H322 C336 0.960 . S
H323 C336 0.960 . S
C324 H316 0.929 . S
C324 C325 1.377 . S
C324 C326 1.384 . S
C325 C324 1.377 . S
C325 C331 1.390 . S
C326 H317 0.930 . S
C326 C324 1.384 . S
C326 C327 1.372 . S
C327 C326 1.372 . S
C327 C328 1.400 . S
C327 C332 1.490 . S
C328 H318 0.930 . S
C328 C327 1.400 . S
C328 C331 1.386 . S
H329 C345 0.930 . S
H330 C346 0.931 . S
C331 H319 0.929 . S
C331 C325 1.390 . S
C331 C328 1.386 . S
C332 C327 1.490 . S
C332 C334 1.395 . S
C332 C335 1.403 . S
H333 C339 0.930 . S
C334 H320 0.930 . S
C334 C332 1.395 . S
C334 C337 1.403 . S
C335 C332 1.403 . S
C335 C336 1.524 . S
C335 C339 1.400 . S
C336 H321 0.960 . S
C336 H322 0.960 . S
C336 H323 0.960 . S
C336 C335 1.524 . S
C337 C334 1.403 . S
C337 C338 1.392 . S
C337 C341 1.495 . S
C338 C337 1.392 . S
C338 C339 1.385 . S
C338 C340 1.478 . S
C339 H333 0.930 . S
C339 C335 1.400 . S
C339 C338 1.385 . S
C340 C338 1.478 . S
C340 C342 1.381 . S
C340 C346 1.383 . S
C341 C337 1.495 . S
C341 H347 0.959 . S
C341 H348 0.961 . S
C341 H349 0.960 . S
C342 C340 1.381 . S
C342 C343 1.394 . S
C342 H350 0.930 . S
C343 C342 1.394 . S
C343 C344 1.383 . S
C343 H351 0.929 . S
C344 C343 1.383 . S
C344 C345 1.377 . S
C345 H329 0.930 . S
C345 C344 1.377 . S
C345 C346 1.379 . S
C346 H330 0.931 . S
C346 C340 1.383 . S
C346 C345 1.379 . S
H347 C341 0.959 . S
H348 C341 0.961 . S
H349 C341 0.960 . S
H350 C342 0.930 . S
H351 C343 0.929 . S
H352 C360 0.929 . S
H353 C362 0.930 . S
H354 C364 0.930 . S
H355 C367 0.929 . S
H356 C370 0.930 . S
H357 C372 0.960 . S
H358 C372 0.960 . S
H359 C372 0.960 . S
C360 H352 0.929 . S
C360 C361 1.377 . S
C360 C362 1.384 . S
C361 C360 1.377 . S
C361 C367 1.390 . S
C362 H353 0.930 . S
C362 C360 1.384 . S
C362 C363 1.372 . S
C363 C362 1.372 . S
C363 C364 1.400 . S
C363 C368 1.490 . S
C364 H354 0.930 . S
C364 C363 1.400 . S
C364 C367 1.386 . S
H365 C381 0.930 . S
H366 C382 0.931 . S
C367 H355 0.929 . S
C367 C361 1.390 . S
C367 C364 1.386 . S
C368 C363 1.490 . S
C368 C370 1.395 . S
C368 C371 1.403 . S
H369 C375 0.930 . S
C370 H356 0.930 . S
C370 C368 1.395 . S
C370 C373 1.403 . S
C371 C368 1.403 . S
C371 C372 1.524 . S
C371 C375 1.400 . S
C372 H357 0.960 . S
C372 H358 0.960 . S
C372 H359 0.960 . S
C372 C371 1.524 . S
C373 C370 1.403 . S
C373 C374 1.392 . S
C373 C377 1.495 . S
C374 C373 1.392 . S
C374 C375 1.385 . S
C374 C376 1.478 . S
C375 H369 0.930 . S
C375 C371 1.400 . S
C375 C374 1.385 . S
C376 C374 1.478 . S
C376 C378 1.381 . S
C376 C382 1.383 . S
C377 C373 1.495 . S
C377 H383 0.959 . S
C377 H384 0.961 . S
C377 H385 0.960 . S
C378 C376 1.381 . S
C378 C379 1.394 . S
C378 H386 0.930 . S
C379 C378 1.394 . S
C379 C380 1.383 . S
C379 H387 0.929 . S
C380 C379 1.383 . S
C380 C381 1.377 . S
C381 H365 0.930 . S
C381 C380 1.377 . S
C381 C382 1.379 . S
C382 H366 0.931 . S
C382 C376 1.383 . S
C382 C381 1.379 . S
H383 C377 0.959 . S
H384 C377 0.961 . S
H385 C377 0.960 . S
H386 C378 0.930 . S
H387 C379 0.929 . S
H388 C396 0.929 . S
H389 C398 0.930 . S
H390 C400 0.930 . S
H391 C403 0.929 . S
H392 C406 0.930 . S
H393 C408 0.960 . S
H394 C408 0.960 . S
H395 C408 0.960 . S
C396 H388 0.929 . S
C396 C397 1.377 . S
C396 C398 1.384 . S
C397 C396 1.377 . S
C397 C403 1.390 . S
C398 H389 0.930 . S
C398 C396 1.384 . S
C398 C399 1.372 . S
C399 C398 1.372 . S
C399 C400 1.400 . S
C399 C404 1.490 . S
C400 H390 0.930 . S
C400 C399 1.400 . S
C400 C403 1.386 . S
H401 C417 0.930 . S
H402 C418 0.931 . S
C403 H391 0.929 . S
C403 C397 1.390 . S
C403 C400 1.386 . S
C404 C399 1.490 . S
C404 C406 1.395 . S
C404 C407 1.403 . S
H405 C411 0.930 . S
C406 H392 0.930 . S
C406 C404 1.395 . S
C406 C409 1.403 . S
C407 C404 1.403 . S
C407 C408 1.524 . S
C407 C411 1.400 . S
C408 H393 0.960 . S
C408 H394 0.960 . S
C408 H395 0.960 . S
C408 C407 1.524 . S
C409 C406 1.403 . S
C409 C410 1.392 . S
C409 C413 1.495 . S
C410 C409 1.392 . S
C410 C411 1.385 . S
C410 C412 1.478 . S
C411 H405 0.930 . S
C411 C407 1.400 . S
C411 C410 1.385 . S
C412 C410 1.478 . S
C412 C414 1.381 . S
C412 C418 1.383 . S
C413 C409 1.495 . S
C413 H419 0.959 . S
C413 H420 0.961 . S
C413 H421 0.960 . S
C414 C412 1.381 . S
C414 C415 1.394 . S
C414 H422 0.930 . S
C415 C414 1.394 . S
C415 C416 1.383 . S
C415 H423 0.929 . S
C416 C415 1.383 . S
C416 C417 1.377 . S
C417 H401 0.930 . S
C417 C416 1.377 . S
C417 C418 1.379 . S
C418 H402 0.931 . S
C418 C412 1.383 . S
C418 C417 1.379 . S
H419 C413 0.959 . S
H420 C413 0.961 . S
H421 C413 0.960 . S
H422 C414 0.930 . S
H423 C415 0.929 . S
H424 C432 0.929 . S
H425 C434 0.930 . S
H426 C436 0.930 . S
H427 C439 0.929 . S
H428 C442 0.930 . S
H429 C444 0.960 . S
H430 C444 0.960 . S
H431 C444 0.960 . S
C432 H424 0.929 . S
C432 C433 1.377 . S
C432 C434 1.384 . S
C433 C432 1.377 . S
C433 C439 1.390 . S
C434 H425 0.930 . S
C434 C432 1.384 . S
C434 C435 1.372 . S
C435 C434 1.372 . S
C435 C436 1.400 . S
C435 C440 1.490 . S
C436 H426 0.930 . S
C436 C435 1.400 . S
C436 C439 1.386 . S
H437 C453 0.930 . S
H438 C454 0.931 . S
C439 H427 0.929 . S
C439 C433 1.390 . S
C439 C436 1.386 . S
C440 C435 1.490 . S
C440 C442 1.395 . S
C440 C443 1.403 . S
H441 C447 0.930 . S
C442 H428 0.930 . S
C442 C440 1.395 . S
C442 C445 1.403 . S
C443 C440 1.403 . S
C443 C444 1.524 . S
C443 C447 1.400 . S
C444 H429 0.960 . S
C444 H430 0.960 . S
C444 H431 0.960 . S
C444 C443 1.524 . S
C445 C442 1.403 . S
C445 C446 1.392 . S
C445 C449 1.495 . S
C446 C445 1.392 . S
C446 C447 1.385 . S
C446 C448 1.478 . S
C447 H441 0.930 . S
C447 C443 1.400 . S
C447 C446 1.385 . S
C448 C446 1.478 . S
C448 C450 1.381 . S
C448 C454 1.383 . S
C449 C445 1.495 . S
C449 H455 0.959 . S
C449 H456 0.961 . S
C449 H457 0.960 . S
C450 C448 1.381 . S
C450 C451 1.394 . S
C450 H458 0.930 . S
C451 C450 1.394 . S
C451 C452 1.383 . S
C451 H459 0.929 . S
C452 C451 1.383 . S
C452 C453 1.377 . S
C453 H437 0.930 . S
C453 C452 1.377 . S
C453 C454 1.379 . S
C454 H438 0.931 . S
C454 C448 1.383 . S
C454 C453 1.379 . S
H455 C449 0.959 . S
H456 C449 0.961 . S
H457 C449 0.960 . S
H458 C450 0.930 . S
H459 C451 0.929 . S
H460 C468 0.929 . S
H461 C470 0.930 . S
H462 C472 0.930 . S
H463 C475 0.929 . S
H464 C478 0.930 . S
H465 C480 0.960 . S
H466 C480 0.960 . S
H467 C480 0.960 . S
C468 H460 0.929 . S
C468 C469 1.377 . S
C468 C470 1.384 . S
C469 C468 1.377 . S
C469 C475 1.390 . S
C470 H461 0.930 . S
C470 C468 1.384 . S
C470 C471 1.372 . S
C471 C470 1.372 . S
C471 C472 1.400 . S
C471 C476 1.490 . S
C472 H462 0.930 . S
C472 C471 1.400 . S
C472 C475 1.386 . S
H473 C489 0.930 . S
H474 C490 0.931 . S
C475 H463 0.929 . S
C475 C469 1.390 . S
C475 C472 1.386 . S
C476 C471 1.490 . S
C476 C478 1.395 . S
C476 C479 1.403 . S
H477 C483 0.930 . S
C478 H464 0.930 . S
C478 C476 1.395 . S
C478 C481 1.403 . S
C479 C476 1.403 . S
C479 C480 1.524 . S
C479 C483 1.400 . S
C480 H465 0.960 . S
C480 H466 0.960 . S
C480 H467 0.960 . S
C480 C479 1.524 . S
C481 C478 1.403 . S
C481 C482 1.392 . S
C481 C485 1.495 . S
C482 C481 1.392 . S
C482 C483 1.385 . S
C482 C484 1.478 . S
C483 H477 0.930 . S
C483 C479 1.400 . S
C483 C482 1.385 . S
C484 C482 1.478 . S
C484 C486 1.381 . S
C484 C490 1.383 . S
C485 C481 1.495 . S
C485 H491 0.959 . S
C485 H492 0.961 . S
C485 H493 0.960 . S
C486 C484 1.381 . S
C486 C487 1.394 . S
C486 H494 0.930 . S
C487 C486 1.394 . S
C487 C488 1.383 . S
C487 H495 0.929 . S
C488 C487 1.383 . S
C488 C489 1.377 . S
C489 H473 0.930 . S
C489 C488 1.377 . S
C489 C490 1.379 . S
C490 H474 0.931 . S
C490 C484 1.383 . S
C490 C489 1.379 . S
H491 C485 0.959 . S
H492 C485 0.961 . S
H493 C485 0.960 . S
H494 C486 0.930 . S
H495 C487 0.929 . S
H496 C504 0.929 . S
H497 C506 0.930 . S
H498 C508 0.930 . S
H499 C511 0.929 . S
H500 C514 0.930 . S
H501 C516 0.960 . S
H502 C516 0.960 . S
H503 C516 0.960 . S
C504 H496 0.929 . S
C504 C505 1.377 . S
C504 C506 1.384 . S
C505 C504 1.377 . S
C505 C511 1.390 . S
C506 H497 0.930 . S
C506 C504 1.384 . S
C506 C507 1.372 . S
C507 C506 1.372 . S
C507 C508 1.400 . S
C507 C512 1.490 . S
C508 H498 0.930 . S
C508 C507 1.400 . S
C508 C511 1.386 . S
H509 C525 0.930 . S
H510 C526 0.931 . S
C511 H499 0.929 . S
C511 C505 1.390 . S
C511 C508 1.386 . S
C512 C507 1.490 . S
C512 C514 1.395 . S
C512 C515 1.403 . S
H513 C519 0.930 . S
C514 H500 0.930 . S
C514 C512 1.395 . S
C514 C517 1.403 1_565 S
C515 C512 1.403 . S
C515 C516 1.524 . S
C515 C519 1.400 1_565 S
C516 H501 0.960 . S
C516 H502 0.960 . S
C516 H503 0.960 . S
C516 C515 1.524 . S
C517 C514 1.403 1_545 S
C517 C518 1.392 . S
C517 C521 1.495 . S
C518 C517 1.392 . S
C518 C519 1.385 . S
C518 C520 1.478 . S
C519 H513 0.930 . S
C519 C515 1.400 1_545 S
C519 C518 1.385 . S
C520 C518 1.478 . S
C520 C522 1.381 . S
C520 C526 1.383 . S
C521 C517 1.495 . S
C521 H527 0.959 . S
C521 H528 0.961 . S
C521 H529 0.960 . S
C522 C520 1.381 . S
C522 C523 1.394 . S
C522 H530 0.930 . S
C523 C522 1.394 . S
C523 C524 1.383 . S
C523 H531 0.929 . S
C524 C523 1.383 . S
C524 C525 1.377 . S
C525 H509 0.930 . S
C525 C524 1.377 . S
C525 C526 1.379 . S
C526 H510 0.931 . S
C526 C520 1.383 . S
C526 C525 1.379 . S
H527 C521 0.959 . S
H528 C521 0.961 . S
H529 C521 0.960 . S
H530 C522 0.930 . S
H531 C523 0.929 . S
H532 C540 0.929 . S
H533 C542 0.930 . S
H534 C544 0.930 . S
H535 C547 0.929 . S
H536 C550 0.930 . S
H537 C552 0.960 . S
H538 C552 0.960 . S
H539 C552 0.960 . S
C540 H532 0.929 . S
C540 C541 1.377 . S
C540 C542 1.384 . S
C541 C540 1.377 . S
C541 C547 1.390 . S
C542 H533 0.930 . S
C542 C540 1.384 . S
C542 C543 1.372 . S
C543 C542 1.372 . S
C543 C544 1.400 . S
C543 C548 1.490 . S
C544 H534 0.930 . S
C544 C543 1.400 . S
C544 C547 1.386 . S
H545 C561 0.930 . S
H546 C562 0.931 . S
C547 H535 0.929 . S
C547 C541 1.390 . S
C547 C544 1.386 . S
C548 C543 1.490 . S
C548 C550 1.395 . S
C548 C551 1.403 . S
H549 C555 0.930 . S
C550 H536 0.930 . S
C550 C548 1.395 . S
C550 C553 1.403 . S
C551 C548 1.403 . S
C551 C552 1.524 . S
C551 C555 1.400 . S
C552 H537 0.960 . S
C552 H538 0.960 . S
C552 H539 0.960 . S
C552 C551 1.524 . S
C553 C550 1.403 . S
C553 C554 1.392 . S
C553 C557 1.495 . S
C554 C553 1.392 . S
C554 C555 1.385 . S
C554 C556 1.478 . S
C555 H549 0.930 . S
C555 C551 1.400 . S
C555 C554 1.385 . S
C556 C554 1.478 . S
C556 C558 1.381 . S
C556 C562 1.383 . S
C557 C553 1.495 . S
C557 H563 0.959 . S
C557 H564 0.961 . S
C557 H565 0.960 . S
C558 C556 1.381 . S
C558 C559 1.394 . S
C558 H566 0.930 . S
C559 C558 1.394 . S
C559 C560 1.383 . S
C559 H567 0.929 . S
C560 C559 1.383 . S
C560 C561 1.377 . S
C561 H545 0.930 . S
C561 C560 1.377 . S
C561 C562 1.379 . S
C562 H546 0.931 . S
C562 C556 1.383 . S
C562 C561 1.379 . S
H563 C557 0.959 . S
H564 C557 0.961 . S
H565 C557 0.960 . S
H566 C558 0.930 . S
H567 C559 0.929 . S
H568 C576 0.929 . S
H569 C578 0.930 . S
H570 C580 0.930 . S
H571 C583 0.929 . S
H572 C586 0.930 . S
H573 C588 0.960 . S
H574 C588 0.960 . S
H575 C588 0.981 . S
C576 H568 0.929 . S
C576 C577 1.377 . S
C576 C578 1.384 . S
C577 C576 1.377 . S
C577 C583 1.390 . S
C578 H569 0.930 . S
C578 C576 1.384 . S
C578 C579 1.372 . S
C579 C578 1.372 . S
C579 C580 1.400 . S
C579 C584 1.490 . S
C580 H570 0.930 . S
C580 C579 1.400 . S
C580 C583 1.386 . S
H581 C597 0.930 . S
H582 C598 0.931 . S
C583 H571 0.929 . S
C583 C577 1.390 . S
C583 C580 1.386 . S
C584 C579 1.490 . S
C584 C586 1.395 . S
C584 C587 1.403 1_556 S
H585 C591 0.930 . S
C586 H572 0.930 . S
C586 C584 1.395 . S
C586 C589 1.403 . S
C587 C584 1.403 1_554 S
C587 C588 1.524 . S
C587 C591 1.400 . S
C588 H573 0.960 . S
C588 H574 0.960 . S
C588 H575 0.981 . S
C588 C587 1.524 . S
C589 C586 1.403 . S
C589 C590 1.392 1_556 S
C589 C593 1.495 . S
C590 C589 1.392 1_554 S
C590 C591 1.385 . S
C590 C592 1.478 . S
C591 H585 0.930 . S
C591 C587 1.400 . S
C591 C590 1.385 . S
C592 C590 1.478 . S
C592 C594 1.381 . S
C592 C598 1.383 . S
C593 C589 1.495 . S
C593 H599 0.959 . S
C593 H600 0.969 . S
C593 H601 0.965 . S
C594 C592 1.381 . S
C594 C595 1.394 . S
C594 H602 0.930 . S
C595 C594 1.394 . S
C595 C596 1.383 . S
C595 H603 0.929 . S
C596 C595 1.383 . S
C596 C597 1.377 . S
C597 H581 0.930 . S
C597 C596 1.377 . S
C597 C598 1.379 . S
C598 H582 0.931 . S
C598 C592 1.383 . S
C598 C597 1.379 . S
H599 C593 0.959 . S
H600 C593 0.969 . S
H601 C593 0.965 . S
H602 C594 0.930 . S
H603 C595 0.929 . S
H604 C612 0.929 . S
H605 C614 0.930 . S
H606 C616 0.930 . S
H607 C619 0.929 . S
H608 C622 0.930 . S
H609 C624 0.960 . S
H610 C624 0.960 1_554 S
H611 C624 0.960 1_554 S
C612 H604 0.929 . S
C612 C613 1.377 . S
C612 C614 1.384 . S
C613 C612 1.377 . S
C613 C619 1.390 . S
C614 H605 0.930 . S
C614 C612 1.384 . S
C614 C615 1.372 . S
C615 C614 1.372 . S
C615 C616 1.400 . S
C615 C620 1.490 . S
C616 H606 0.930 . S
C616 C615 1.400 . S
C616 C619 1.386 . S
H617 C633 0.930 . S
H618 C634 0.931 . S
C619 H607 0.929 . S
C619 C613 1.390 . S
C619 C616 1.386 . S
C620 C615 1.490 . S
C620 C622 1.395 . S
C620 C623 1.426 . S
H621 C627 0.930 . S
C622 H608 0.930 . S
C622 C620 1.395 . S
C622 C625 1.403 . S
C623 C620 1.426 . S
C623 C624 1.520 1_554 S
C623 C627 1.380 1_554 S
C624 H609 0.960 . S
C624 H610 0.960 1_556 S
C624 H611 0.960 1_556 S
C624 C623 1.520 1_556 S
C625 C622 1.403 . S
C625 C626 1.392 1_554 S
C625 C629 1.495 . S
C626 C625 1.392 1_556 S
C626 C627 1.385 . S
C626 C628 1.478 . S
C627 H621 0.930 . S
C627 C623 1.380 1_556 S
C627 C626 1.385 . S
C628 C626 1.478 . S
C628 C630 1.381 . S
C628 C634 1.383 . S
C629 C625 1.495 . S
C629 H635 0.959 . S
C629 H636 0.938 1_554 S
C629 H637 0.960 . S
C630 C628 1.381 . S
C630 C631 1.394 . S
C630 H638 0.930 . S
C631 C630 1.394 . S
C631 C632 1.383 . S
C631 H639 0.929 . S
C632 C631 1.383 . S
C632 C633 1.377 . S
C633 H617 0.930 . S
C633 C632 1.377 . S
C633 C634 1.379 . S
C634 H618 0.931 . S
C634 C628 1.383 . S
C634 C633 1.379 . S
H635 C629 0.959 . S
H636 C629 0.938 1_556 S
H637 C629 0.960 . S
H638 C630 0.930 . S
H639 C631 0.929 . S
H640 C648 0.929 . S
H641 C650 0.930 . S
H642 C652 0.930 . S
H643 C655 0.929 . S
H644 C658 0.930 . S
H645 C660 0.960 . S
H646 C660 0.960 . S
H647 C660 0.960 . S
C648 H640 0.929 . S
C648 C649 1.377 . S
C648 C650 1.384 . S
C649 C648 1.377 . S
C649 C655 1.390 . S
C650 H641 0.930 . S
C650 C648 1.384 . S
C650 C651 1.372 . S
C651 C650 1.372 . S
C651 C652 1.400 . S
C651 C656 1.490 . S
C652 H642 0.930 . S
C652 C651 1.400 . S
C652 C655 1.386 . S
H653 C669 0.930 . S
H654 C670 0.931 . S
C655 H643 0.929 . S
C655 C649 1.390 . S
C655 C652 1.386 . S
C656 C651 1.490 . S
C656 C658 1.395 . S
C656 C659 1.403 . S
H657 C663 0.930 . S
C658 H644 0.930 . S
C658 C656 1.395 . S
C658 C661 1.403 . S
C659 C656 1.403 . S
C659 C660 1.524 . S
C659 C663 1.400 . S
C660 H645 0.960 . S
C660 H646 0.960 . S
C660 H647 0.960 . S
C660 C659 1.524 . S
C661 C658 1.403 . S
C661 C662 1.392 . S
C661 C665 1.495 . S
C662 C661 1.392 . S
C662 C663 1.385 . S
C662 C664 1.478 . S
C663 H657 0.930 . S
C663 C659 1.400 . S
C663 C662 1.385 . S
C664 C662 1.478 . S
C664 C666 1.381 . S
C664 C670 1.383 . S
C665 C661 1.495 . S
C665 H671 0.959 . S
C665 H672 0.961 . S
C665 H673 0.960 . S
C666 C664 1.381 . S
C666 C667 1.394 . S
C666 H674 0.930 . S
C667 C666 1.394 . S
C667 C668 1.383 . S
C667 H675 0.929 . S
C668 C667 1.383 . S
C668 C669 1.377 . S
C669 H653 0.930 . S
C669 C668 1.377 . S
C669 C670 1.379 . S
C670 H654 0.931 . S
C670 C664 1.383 . S
C670 C669 1.379 . S
H671 C665 0.959 . S
H672 C665 0.961 . S
H673 C665 0.960 . S
H674 C666 0.930 . S
H675 C667 0.929 . S
H676 C684 0.929 . S
H677 C686 0.930 . S
H678 C688 0.930 . S
H679 C691 0.929 . S
H680 C694 0.930 . S
H681 C696 0.960 . S
H682 C696 0.960 . S
H683 C696 0.960 . S
C684 H676 0.929 . S
C684 C685 1.377 . S
C684 C686 1.384 . S
C685 C684 1.377 . S
C685 C691 1.390 . S
C686 H677 0.930 . S
C686 C684 1.384 . S
C686 C687 1.372 . S
C687 C686 1.372 . S
C687 C688 1.400 . S
C687 C692 1.490 . S
C688 H678 0.930 . S
C688 C687 1.400 . S
C688 C691 1.386 . S
H689 C705 0.930 . S
H690 C706 0.931 . S
C691 H679 0.929 . S
C691 C685 1.390 . S
C691 C688 1.386 . S
C692 C687 1.490 . S
C692 C694 1.395 . S
C692 C695 1.403 . S
H693 C699 0.930 . S
C694 H680 0.930 . S
C694 C692 1.395 . S
C694 C697 1.403 . S
C695 C692 1.403 . S
C695 C696 1.524 . S
C695 C699 1.400 . S
C696 H681 0.960 . S
C696 H682 0.960 . S
C696 H683 0.960 . S
C696 C695 1.524 . S
C697 C694 1.403 . S
C697 C698 1.392 . S
C697 C701 1.495 . S
C698 C697 1.392 . S
C698 C699 1.385 . S
C698 C700 1.478 . S
C699 H693 0.930 . S
C699 C695 1.400 . S
C699 C698 1.385 . S
C700 C698 1.478 . S
C700 C702 1.381 . S
C700 C706 1.383 . S
C701 C697 1.495 . S
C701 H707 0.959 . S
C701 H708 0.961 . S
C701 H709 0.960 . S
C702 C700 1.381 . S
C702 C703 1.394 . S
C702 H710 0.930 . S
C703 C702 1.394 . S
C703 C704 1.383 . S
C703 H711 0.929 . S
C704 C703 1.383 . S
C704 C705 1.377 . S
C705 H689 0.930 . S
C705 C704 1.377 . S
C705 C706 1.379 . S
C706 H690 0.931 . S
C706 C700 1.383 . S
C706 C705 1.379 . S
H707 C701 0.959 . S
H708 C701 0.961 . S
H709 C701 0.960 . S
H710 C702 0.930 . S
H711 C703 0.929 . S
H712 C720 0.929 . S
H713 C722 0.930 . S
H714 C724 0.930 . S
H715 C727 0.929 . S
H716 C730 0.936 . S
H717 C732 0.960 . S
H718 C732 0.960 . S
H719 C732 0.960 . S
C720 H712 0.929 . S
C720 C721 1.377 . S
C720 C722 1.384 . S
C721 C720 1.377 . S
C721 C727 1.390 . S
C722 H713 0.930 . S
C722 C720 1.384 . S
C722 C723 1.372 . S
C723 C722 1.372 . S
C723 C724 1.400 . S
C723 C728 1.490 . S
C724 H714 0.930 . S
C724 C723 1.400 . S
C724 C727 1.386 . S
H725 C741 0.930 . S
H726 C742 0.931 . S
C727 H715 0.929 . S
C727 C721 1.390 . S
C727 C724 1.386 . S
C728 C723 1.490 . S
C728 C730 1.395 1_655 S
C728 C731 1.403 . S
H729 C735 0.930 . S
C730 H716 0.936 . S
C730 C728 1.395 1_455 S
C730 C733 1.403 . S
C731 C728 1.403 . S
C731 C732 1.524 . S
C731 C735 1.400 1_655 S
C732 H717 0.960 . S
C732 H718 0.960 . S
C732 H719 0.960 . S
C732 C731 1.524 . S
C733 C730 1.403 . S
C733 C734 1.392 . S
C733 C737 1.495 . S
C734 C733 1.392 . S
C734 C735 1.385 . S
C734 C736 1.478 . S
C735 H729 0.930 . S
C735 C731 1.400 1_455 S
C735 C734 1.385 . S
C736 C734 1.478 . S
C736 C738 1.381 . S
C736 C742 1.383 . S
C737 C733 1.495 . S
C737 H743 0.959 . S
C737 H744 0.961 . S
C737 H745 0.960 . S
C738 C736 1.381 . S
C738 C739 1.394 . S
C738 H746 0.930 . S
C739 C738 1.394 . S
C739 C740 1.383 . S
C739 H747 0.929 . S
C740 C739 1.383 . S
C740 C741 1.377 . S
C741 H725 0.930 . S
C741 C740 1.377 . S
C741 C742 1.379 . S
C742 H726 0.931 . S
C742 C736 1.383 . S
C742 C741 1.379 . S
H743 C737 0.959 . S
H744 C737 0.961 . S
H745 C737 0.960 . S
H746 C738 0.930 . S
H747 C739 0.929 . S
H748 C756 0.929 . S
H749 C758 0.930 . S
H750 C760 0.930 . S
H751 C763 0.929 . S
H752 C766 0.930 . S
H753 C768 0.960 . S
H754 C768 0.960 1_655 S
H755 C768 0.960 1_655 S
C756 H748 0.929 . S
C756 C757 1.377 . S
C756 C758 1.384 . S
C757 C756 1.377 . S
C757 C763 1.390 . S
C758 H749 0.930 . S
C758 C756 1.384 . S
C758 C759 1.372 . S
C759 C758 1.372 . S
C759 C760 1.400 . S
C759 C764 1.490 . S
C760 H750 0.930 . S
C760 C759 1.400 . S
C760 C763 1.386 . S
H761 C777 0.930 . S
H762 C778 0.931 . S
C763 H751 0.929 . S
C763 C757 1.390 . S
C763 C760 1.386 . S
C764 C759 1.490 . S
C764 C766 1.395 . S
C764 C767 1.367 1_655 S
H765 C771 0.930 . S
C766 H752 0.930 . S
C766 C764 1.395 . S
C766 C769 1.403 . S
C767 C764 1.367 1_455 S
C767 C768 1.533 . S
C767 C771 1.428 . S
C768 H753 0.960 . S
C768 H754 0.960 1_455 S
C768 H755 0.960 1_455 S
C768 C767 1.533 . S
C769 C766 1.403 . S
C769 C770 1.392 1_655 S
C769 C773 1.495 . S
C770 C769 1.392 1_455 S
C770 C771 1.385 . S
C770 C772 1.478 . S
C771 H765 0.930 . S
C771 C767 1.428 . S
C771 C770 1.385 . S
C772 C770 1.478 . S
C772 C774 1.381 . S
C772 C778 1.383 . S
C773 C769 1.495 . S
C773 H779 0.959 . S
C773 H780 0.961 1_655 S
C773 H781 0.960 1_655 S
C774 C772 1.381 . S
C774 C775 1.394 . S
C774 H782 0.930 . S
C775 C774 1.394 . S
C775 C776 1.383 . S
C775 H783 0.929 . S
C776 C775 1.383 . S
C776 C777 1.377 . S
C777 H761 0.930 . S
C777 C776 1.377 . S
C777 C778 1.379 . S
C778 H762 0.931 . S
C778 C772 1.383 . S
C778 C777 1.379 . S
H779 C773 0.959 . S
H780 C773 0.961 1_455 S
H781 C773 0.960 1_455 S
H782 C774 0.930 . S
H783 C775 0.929 . S
H784 C792 0.929 . S
H785 C794 0.930 . S
H786 C796 0.930 . S
H787 C799 0.929 . S
H788 C802 0.930 . S
H789 C804 0.960 . S
H790 C804 0.960 . S
H791 C804 0.960 . S
C792 H784 0.929 . S
C792 C793 1.377 . S
C792 C794 1.384 . S
C793 C792 1.377 . S
C793 C799 1.390 . S
C794 H785 0.930 . S
C794 C792 1.384 . S
C794 C795 1.372 . S
C795 C794 1.372 . S
C795 C796 1.400 . S
C795 C800 1.490 . S
C796 H786 0.930 . S
C796 C795 1.400 . S
C796 C799 1.386 . S
H797 C813 0.930 . S
H798 C814 0.931 . S
C799 H787 0.929 . S
C799 C793 1.390 . S
C799 C796 1.386 . S
C800 C795 1.490 . S
C800 C802 1.395 . S
C800 C803 1.403 . S
H801 C807 0.930 . S
C802 H788 0.930 . S
C802 C800 1.395 . S
C802 C805 1.403 . S
C803 C800 1.403 . S
C803 C804 1.524 . S
C803 C807 1.400 . S
C804 H789 0.960 . S
C804 H790 0.960 . S
C804 H791 0.960 . S
C804 C803 1.524 . S
C805 C802 1.403 . S
C805 C806 1.392 . S
C805 C809 1.495 . S
C806 C805 1.392 . S
C806 C807 1.385 . S
C806 C808 1.478 . S
C807 H801 0.930 . S
C807 C803 1.400 . S
C807 C806 1.385 . S
C808 C806 1.478 . S
C808 C810 1.381 . S
C808 C814 1.383 . S
C809 C805 1.495 . S
C809 H815 0.959 . S
C809 H816 0.961 . S
C809 H817 0.960 . S
C810 C808 1.381 . S
C810 C811 1.394 . S
C810 H818 0.930 . S
C811 C810 1.394 . S
C811 C812 1.383 . S
C811 H819 0.929 . S
C812 C811 1.383 . S
C812 C813 1.377 . S
C813 H797 0.930 . S
C813 C812 1.377 . S
C813 C814 1.379 . S
C814 H798 0.931 . S
C814 C808 1.383 . S
C814 C813 1.379 . S
H815 C809 0.959 . S
H816 C809 0.961 . S
H817 C809 0.960 . S
H818 C810 0.930 . S
H819 C811 0.929 . S
H820 C828 0.929 . S
H821 C830 0.930 . S
H822 C832 0.930 . S
H823 C835 0.929 . S
H824 C838 0.930 . S
H825 C840 0.960 . S
H826 C840 0.960 . S
H827 C840 0.960 . S
C828 H820 0.929 . S
C828 C829 1.377 . S
C828 C830 1.384 . S
C829 C828 1.377 . S
C829 C835 1.390 . S
C830 H821 0.930 . S
C830 C828 1.384 . S
C830 C831 1.372 . S
C831 C830 1.372 . S
C831 C832 1.400 . S
C831 C836 1.490 . S
C832 H822 0.930 . S
C832 C831 1.400 . S
C832 C835 1.386 . S
H833 C849 0.930 . S
H834 C850 0.931 . S
C835 H823 0.929 . S
C835 C829 1.390 . S
C835 C832 1.386 . S
C836 C831 1.490 . S
C836 C838 1.395 . S
C836 C839 1.403 . S
H837 C843 0.930 . S
C838 H824 0.930 . S
C838 C836 1.395 . S
C838 C841 1.403 . S
C839 C836 1.403 . S
C839 C840 1.524 . S
C839 C843 1.400 1_545 S
C840 H825 0.960 . S
C840 H826 0.960 . S
C840 H827 0.960 . S
C840 C839 1.524 . S
C841 C838 1.403 . S
C841 C842 1.392 1_545 S
C841 C845 1.495 . S
C842 C841 1.392 1_565 S
C842 C843 1.385 . S
C842 C844 1.478 . S
C843 H837 0.930 . S
C843 C839 1.400 1_565 S
C843 C842 1.385 . S
C844 C842 1.478 . S
C844 C846 1.381 . S
C844 C850 1.383 . S
C845 C841 1.495 . S
C845 H851 0.959 . S
C845 H852 0.961 1_545 S
C845 H853 0.960 . S
C846 C844 1.381 . S
C846 C847 1.394 . S
C846 H854 0.930 . S
C847 C846 1.394 . S
C847 C848 1.383 . S
C847 H855 0.929 . S
C848 C847 1.383 . S
C848 C849 1.377 . S
C849 H833 0.930 . S
C849 C848 1.377 . S
C849 C850 1.379 . S
C850 H834 0.931 . S
C850 C844 1.383 . S
C850 C849 1.379 . S
H851 C845 0.959 . S
H852 C845 0.961 1_565 S
H853 C845 0.960 . S
H854 C846 0.930 . S
H855 C847 0.929 . S
H856 C864 0.929 . S
H857 C866 0.930 . S
H858 C868 0.930 . S
H859 C871 0.929 . S
H860 C874 0.930 . S
H861 C876 0.960 . S
H862 C876 0.960 . S
H863 C876 0.960 . S
C864 H856 0.929 . S
C864 C865 1.377 . S
C864 C866 1.384 . S
C865 C864 1.377 . S
C865 C871 1.390 . S
C866 H857 0.930 . S
C866 C864 1.384 . S
C866 C867 1.372 . S
C867 C866 1.372 . S
C867 C868 1.400 . S
C867 C872 1.490 . S
C868 H858 0.930 . S
C868 C867 1.400 . S
C868 C871 1.386 . S
H869 C885 0.930 . S
H870 C886 0.931 . S
C871 H859 0.929 . S
C871 C865 1.390 . S
C871 C868 1.386 . S
C872 C867 1.490 . S
C872 C874 1.395 . S
C872 C875 1.403 . S
H873 C879 0.930 . S
C874 H860 0.930 . S
C874 C872 1.395 . S
C874 C877 1.403 . S
C875 C872 1.403 . S
C875 C876 1.524 . S
C875 C879 1.400 . S
C876 H861 0.960 . S
C876 H862 0.960 . S
C876 H863 0.960 . S
C876 C875 1.524 . S
C877 C874 1.403 . S
C877 C878 1.392 . S
C877 C881 1.495 . S
C878 C877 1.392 . S
C878 C879 1.385 . S
C878 C880 1.478 . S
C879 H873 0.930 . S
C879 C875 1.400 . S
C879 C878 1.385 . S
C880 C878 1.478 . S
C880 C882 1.381 . S
C880 C886 1.383 . S
C881 C877 1.495 . S
C881 H887 0.959 . S
C881 H888 0.961 . S
C881 H889 0.960 . S
C882 C880 1.381 . S
C882 C883 1.394 . S
C882 H890 0.930 . S
C883 C882 1.394 . S
C883 C884 1.383 . S
C883 H891 0.929 . S
C884 C883 1.383 . S
C884 C885 1.377 . S
C885 H869 0.930 . S
C885 C884 1.377 . S
C885 C886 1.379 . S
C886 H870 0.931 . S
C886 C880 1.383 . S
C886 C885 1.379 . S
H887 C881 0.959 . S
H888 C881 0.961 . S
H889 C881 0.960 . S
H890 C882 0.930 . S
H891 C883 0.929 . S
H892 C900 0.929 . S
H893 C902 0.930 . S
H894 C904 0.930 . S
H895 C907 0.929 . S
H896 C910 0.930 . S
H897 C912 0.960 . S
H898 C912 0.960 . S
H899 C912 0.960 . S
C900 H892 0.929 . S
C900 C901 1.377 . S
C900 C902 1.384 . S
C901 C900 1.377 . S
C901 C907 1.390 . S
C902 H893 0.930 . S
C902 C900 1.384 . S
C902 C903 1.372 . S
C903 C902 1.372 . S
C903 C904 1.400 . S
C903 C908 1.490 . S
C904 H894 0.930 . S
C904 C903 1.400 . S
C904 C907 1.386 . S
H905 C921 0.930 . S
H906 C922 0.931 . S
C907 H895 0.929 . S
C907 C901 1.390 . S
C907 C904 1.386 . S
C908 C903 1.490 . S
C908 C910 1.395 . S
C908 C911 1.403 1_554 S
H909 C915 0.930 . S
C910 H896 0.930 . S
C910 C908 1.395 . S
C910 C913 1.403 . S
C911 C908 1.403 1_556 S
C911 C912 1.524 . S
C911 C915 1.400 . S
C912 H897 0.960 . S
C912 H898 0.960 . S
C912 H899 0.960 . S
C912 C911 1.524 . S
C913 C910 1.403 . S
C913 C914 1.392 1_554 S
C913 C917 1.495 . S
C914 C913 1.392 1_556 S
C914 C915 1.385 . S
C914 C916 1.478 . S
C915 H909 0.930 . S
C915 C911 1.400 . S
C915 C914 1.385 . S
C916 C914 1.478 . S
C916 C918 1.381 . S
C916 C922 1.383 . S
C917 C913 1.495 . S
C917 H923 0.959 . S
C917 H924 0.961 . S
C917 H925 0.960 . S
C918 C916 1.381 . S
C918 C919 1.394 . S
C918 H926 0.930 . S
C919 C918 1.394 . S
C919 C920 1.383 . S
C919 H927 0.929 . S
C920 C919 1.383 . S
C920 C921 1.377 . S
C921 H905 0.930 . S
C921 C920 1.377 . S
C921 C922 1.379 . S
C922 H906 0.931 . S
C922 C916 1.383 . S
C922 C921 1.379 . S
H923 C917 0.959 . S
H924 C917 0.961 . S
H925 C917 0.960 . S
H926 C918 0.930 . S
H927 C919 0.929 . S
H928 C936 0.929 . S
H929 C938 0.930 . S
H930 C940 0.930 . S
H931 C943 0.929 . S
H932 C946 0.930 . S
H933 C948 0.960 . S
H934 C948 0.960 . S
H935 C948 0.960 1_556 S
C936 H928 0.929 . S
C936 C937 1.377 . S
C936 C938 1.384 . S
C937 C936 1.377 . S
C937 C943 1.390 . S
C938 H929 0.930 . S
C938 C936 1.384 . S
C938 C939 1.372 . S
C939 C938 1.372 . S
C939 C940 1.400 . S
C939 C944 1.490 . S
C940 H930 0.930 . S
C940 C939 1.400 . S
C940 C943 1.386 . S
H941 C957 0.930 . S
H942 C958 0.931 . S
C943 H931 0.929 . S
C943 C937 1.390 . S
C943 C940 1.386 . S
C944 C939 1.490 . S
C944 C946 1.395 . S
C944 C947 1.368 1_556 S
H945 C951 0.930 . S
C946 H932 0.930 . S
C946 C944 1.395 . S
C946 C949 1.403 . S
C947 C944 1.368 1_554 S
C947 C948 1.531 . S
C947 C951 1.429 . S
C948 H933 0.960 . S
C948 H934 0.960 . S
C948 H935 0.960 1_554 S
C948 C947 1.531 . S
C949 C946 1.403 . S
C949 C950 1.392 1_556 S
C949 C953 1.495 . S
C950 C949 1.392 1_554 S
C950 C951 1.385 . S
C950 C952 1.478 . S
C951 H945 0.930 . S
C951 C947 1.429 . S
C951 C950 1.385 . S
C952 C950 1.478 . S
C952 C954 1.381 . S
C952 C958 1.383 . S
C953 C949 1.495 . S
C953 H959 0.959 . S
C953 H960 0.961 . S
C953 H961 0.960 . S
C954 C952 1.381 . S
C954 C955 1.394 . S
C954 H962 0.930 . S
C955 C954 1.394 . S
C955 C956 1.383 . S
C955 H963 0.929 . S
C956 C955 1.383 . S
C956 C957 1.377 . S
C957 H941 0.930 . S
C957 C956 1.377 . S
C957 C958 1.379 . S
C958 H942 0.931 . S
C958 C952 1.383 . S
C958 C957 1.379 . S
H959 C953 0.959 . S
H960 C953 0.961 . S
H961 C953 0.960 . S
H962 C954 0.930 . S
H963 C955 0.929 . S
H964 C972 0.929 . S
H965 C974 0.930 . S
H966 C976 0.930 . S
H967 C979 0.929 . S
H968 C982 0.930 . S
H969 C984 0.960 . S
H970 C984 0.960 . S
H971 C984 0.960 . S
C972 H964 0.929 . S
C972 C973 1.377 . S
C972 C974 1.384 . S
C973 C972 1.377 . S
C973 C979 1.390 . S
C974 H965 0.930 . S
C974 C972 1.384 . S
C974 C975 1.372 . S
C975 C974 1.372 . S
C975 C976 1.400 . S
C975 C980 1.490 . S
C976 H966 0.930 . S
C976 C975 1.400 . S
C976 C979 1.386 . S
H977 C993 0.930 . S
H978 C994 0.931 . S
C979 H967 0.929 . S
C979 C973 1.390 . S
C979 C976 1.386 . S
C980 C975 1.490 . S
C980 C982 1.395 . S
C980 C983 1.403 . S
H981 C987 0.930 . S
C982 H968 0.930 . S
C982 C980 1.395 . S
C982 C985 1.403 . S
C983 C980 1.403 . S
C983 C984 1.524 . S
C983 C987 1.400 . S
C984 H969 0.960 . S
C984 H970 0.960 . S
C984 H971 0.960 . S
C984 C983 1.524 . S
C985 C982 1.403 . S
C985 C986 1.392 . S
C985 C989 1.495 . S
C986 C985 1.392 . S
C986 C987 1.385 . S
C986 C988 1.478 . S
C987 H981 0.930 . S
C987 C983 1.400 . S
C987 C986 1.385 . S
C988 C986 1.478 . S
C988 C990 1.381 . S
C988 C994 1.383 . S
C989 C985 1.495 . S
C989 H995 0.959 . S
C989 H996 0.961 . S
C989 H997 0.960 . S
C990 C988 1.381 . S
C990 C991 1.394 . S
C990 H998 0.930 . S
C991 C990 1.394 . S
C991 C992 1.383 . S
C991 H999 0.929 . S
C992 C991 1.383 . S
C992 C993 1.377 . S
C993 H977 0.930 . S
C993 C992 1.377 . S
C993 C994 1.379 . S
C994 H978 0.931 . S
C994 C988 1.383 . S
C994 C993 1.379 . S
H995 C989 0.959 . S
H996 C989 0.961 . S
H997 C989 0.960 . S
H998 C990 0.930 . S
H999 C991 0.929 . S
H1000 C1008 0.929 . S
H1001 C1010 0.930 . S
H1002 C1012 0.930 . S
H1003 C1015 0.929 . S
H1004 C1018 0.930 . S
H1005 C1020 0.960 . S
H1006 C1020 0.960 . S
H1007 C1020 0.960 . S
C1008 H1000 0.929 . S
C1008 C1009 1.377 . S
C1008 C1010 1.384 . S
C1009 C1008 1.377 . S
C1009 C1015 1.390 . S
C1010 H1001 0.930 . S
C1010 C1008 1.384 . S
C1010 C1011 1.372 . S
C1011 C1010 1.372 . S
C1011 C1012 1.400 . S
C1011 C1016 1.490 . S
C1012 H1002 0.930 . S
C1012 C1011 1.400 . S
C1012 C1015 1.386 . S
H1013 C1029 0.930 . S
H1014 C1030 0.931 . S
C1015 H1003 0.929 . S
C1015 C1009 1.390 . S
C1015 C1012 1.386 . S
C1016 C1011 1.490 . S
C1016 C1018 1.395 . S
C1016 C1019 1.403 . S
H1017 C1023 0.930 . S
C1018 H1004 0.930 . S
C1018 C1016 1.395 . S
C1018 C1021 1.403 . S
C1019 C1016 1.403 . S
C1019 C1020 1.524 . S
C1019 C1023 1.400 . S
C1020 H1005 0.960 . S
C1020 H1006 0.960 . S
C1020 H1007 0.960 . S
C1020 C1019 1.524 . S
C1021 C1018 1.403 . S
C1021 C1022 1.392 . S
C1021 C1025 1.495 . S
C1022 C1021 1.392 . S
C1022 C1023 1.385 . S
C1022 C1024 1.478 . S
C1023 H1017 0.930 . S
C1023 C1019 1.400 . S
C1023 C1022 1.385 . S
C1024 C1022 1.478 . S
C1024 C1026 1.381 . S
C1024 C1030 1.383 . S
C1025 C1021 1.495 . S
C1025 H1031 0.959 . S
C1025 H1032 0.961 . S
C1025 H1033 0.960 . S
C1026 C1024 1.381 . S
C1026 C1027 1.394 . S
C1026 H1034 0.930 . S
C1027 C1026 1.394 . S
C1027 C1028 1.383 . S
C1027 H1035 0.929 . S
C1028 C1027 1.383 . S
C1028 C1029 1.377 . S
C1029 H1013 0.930 . S
C1029 C1028 1.377 . S
C1029 C1030 1.379 . S
C1030 H1014 0.931 . S
C1030 C1024 1.383 . S
C1030 C1029 1.379 . S
H1031 C1025 0.959 . S
H1032 C1025 0.961 . S
H1033 C1025 0.960 . S
H1034 C1026 0.930 . S
H1035 C1027 0.929 . S
H1036 C1044 0.929 . S
H1037 C1046 0.930 . S
H1038 C1048 0.930 . S
H1039 C1051 0.929 . S
H1040 C1054 0.930 . S
H1041 C1056 0.960 . S
H1042 C1056 0.960 . S
H1043 C1056 0.960 . S
C1044 H1036 0.929 . S
C1044 C1045 1.377 . S
C1044 C1046 1.384 . S
C1045 C1044 1.377 . S
C1045 C1051 1.390 . S
C1046 H1037 0.930 . S
C1046 C1044 1.384 . S
C1046 C1047 1.372 . S
C1047 C1046 1.372 . S
C1047 C1048 1.400 . S
C1047 C1052 1.490 . S
C1048 H1038 0.930 . S
C1048 C1047 1.400 . S
C1048 C1051 1.386 . S
H1049 C1065 0.930 . S
H1050 C1066 0.931 . S
C1051 H1039 0.929 . S
C1051 C1045 1.390 . S
C1051 C1048 1.386 . S
C1052 C1047 1.490 . S
C1052 C1054 1.395 . S
C1052 C1055 1.403 1_455 S
H1053 C1059 0.930 . S
C1054 H1040 0.930 . S
C1054 C1052 1.395 . S
C1054 C1057 1.403 . S
C1055 C1052 1.403 1_655 S
C1055 C1056 1.524 . S
C1055 C1059 1.400 . S
C1056 H1041 0.960 . S
C1056 H1042 0.960 . S
C1056 H1043 0.960 . S
C1056 C1055 1.524 . S
C1057 C1054 1.403 . S
C1057 C1058 1.392 1_455 S
C1057 C1061 1.495 . S
C1058 C1057 1.392 1_655 S
C1058 C1059 1.385 . S
C1058 C1060 1.478 . S
C1059 H1053 0.930 . S
C1059 C1055 1.400 . S
C1059 C1058 1.385 . S
C1060 C1058 1.478 . S
C1060 C1062 1.381 . S
C1060 C1066 1.383 . S
C1061 C1057 1.495 . S
C1061 H1067 0.959 . S
C1061 H1068 0.961 . S
C1061 H1069 0.960 . S
C1062 C1060 1.381 . S
C1062 C1063 1.394 . S
C1062 H1070 0.930 . S
C1063 C1062 1.394 . S
C1063 C1064 1.383 . S
C1063 H1071 0.929 . S
C1064 C1063 1.383 . S
C1064 C1065 1.377 . S
C1065 H1049 0.930 . S
C1065 C1064 1.377 . S
C1065 C1066 1.379 . S
C1066 H1050 0.931 . S
C1066 C1060 1.383 . S
C1066 C1065 1.379 . S
H1067 C1061 0.959 . S
H1068 C1061 0.961 . S
H1069 C1061 0.960 . S
H1070 C1062 0.930 . S
H1071 C1063 0.929 . S
H1072 C1080 0.929 . S
H1073 C1082 0.930 . S
H1074 C1084 0.930 . S
H1075 C1087 0.929 . S
H1076 C1090 0.930 . S
H1077 C1092 0.960 1_655 S
H1078 C1092 0.960 . S
H1079 C1092 0.960 . S
C1080 H1072 0.929 . S
C1080 C1081 1.377 . S
C1080 C1082 1.384 . S
C1081 C1080 1.377 . S
C1081 C1087 1.390 . S
C1082 H1073 0.930 . S
C1082 C1080 1.384 . S
C1082 C1083 1.372 . S
C1083 C1082 1.372 . S
C1083 C1084 1.400 . S
C1083 C1088 1.490 . S
C1084 H1074 0.930 . S
C1084 C1083 1.400 . S
C1084 C1087 1.386 . S
H1085 C1101 0.930 . S
H1086 C1102 0.931 . S
C1087 H1075 0.929 . S
C1087 C1081 1.390 . S
C1087 C1084 1.386 . S
C1088 C1083 1.490 . S
C1088 C1090 1.395 . S
C1088 C1091 1.403 . S
H1089 C1095 0.930 . S
C1090 H1076 0.930 . S
C1090 C1088 1.395 . S
C1090 C1093 1.403 1_455 S
C1091 C1088 1.403 . S
C1091 C1092 1.524 . S
C1091 C1095 1.400 1_455 S
C1092 H1077 0.960 1_455 S
C1092 H1078 0.960 . S
C1092 H1079 0.960 . S
C1092 C1091 1.524 . S
C1093 C1090 1.403 1_655 S
C1093 C1094 1.392 . S
C1093 C1097 1.495 . S
C1094 C1093 1.392 . S
C1094 C1095 1.385 . S
C1094 C1096 1.478 . S
C1095 H1089 0.930 . S
C1095 C1091 1.400 1_655 S
C1095 C1094 1.385 . S
C1096 C1094 1.478 . S
C1096 C1098 1.381 . S
C1096 C1102 1.383 . S
C1097 C1093 1.495 . S
C1097 H1103 0.959 1_655 S
C1097 H1104 0.961 . S
C1097 H1105 0.960 . S
C1098 C1096 1.381 . S
C1098 C1099 1.394 . S
C1098 H1106 0.930 . S
C1099 C1098 1.394 . S
C1099 C1100 1.383 . S
C1099 H1107 0.929 . S
C1100 C1099 1.383 . S
C1100 C1101 1.377 . S
C1101 H1085 0.930 . S
C1101 C1100 1.377 . S
C1101 C1102 1.379 . S
C1102 H1086 0.931 . S
C1102 C1096 1.383 . S
C1102 C1101 1.379 . S
H1103 C1097 0.959 1_455 S
H1104 C1097 0.961 . S
H1105 C1097 0.960 . S
H1106 C1098 0.930 . S
H1107 C1099 0.929 . S
H1108 C1116 0.929 . S
H1109 C1118 0.930 . S
H1110 C1120 0.930 . S
H1111 C1123 0.929 . S
H1112 C1126 0.930 . S
H1113 C1128 0.960 . S
H1114 C1128 0.960 . S
H1115 C1128 0.960 . S
C1116 H1108 0.929 . S
C1116 C1117 1.377 . S
C1116 C1118 1.384 . S
C1117 C1116 1.377 . S
C1117 C1123 1.390 . S
C1118 H1109 0.930 . S
C1118 C1116 1.384 . S
C1118 C1119 1.372 . S
C1119 C1118 1.372 . S
C1119 C1120 1.400 . S
C1119 C1124 1.490 . S
C1120 H1110 0.930 . S
C1120 C1119 1.400 . S
C1120 C1123 1.386 . S
H1121 C1137 0.930 . S
H1122 C1138 0.931 . S
C1123 H1111 0.929 . S
C1123 C1117 1.390 . S
C1123 C1120 1.386 . S
C1124 C1119 1.490 . S
C1124 C1126 1.395 . S
C1124 C1127 1.403 . S
H1125 C1131 0.930 . S
C1126 H1112 0.930 . S
C1126 C1124 1.395 . S
C1126 C1129 1.403 . S
C1127 C1124 1.403 . S
C1127 C1128 1.524 . S
C1127 C1131 1.400 . S
C1128 H1113 0.960 . S
C1128 H1114 0.960 . S
C1128 H1115 0.960 . S
C1128 C1127 1.524 . S
C1129 C1126 1.403 . S
C1129 C1130 1.392 . S
C1129 C1133 1.495 . S
C1130 C1129 1.392 . S
C1130 C1131 1.385 . S
C1130 C1132 1.478 . S
C1131 H1125 0.930 . S
C1131 C1127 1.400 . S
C1131 C1130 1.385 . S
C1132 C1130 1.478 . S
C1132 C1134 1.381 . S
C1132 C1138 1.383 . S
C1133 C1129 1.495 . S
C1133 H1139 0.959 . S
C1133 H1140 0.961 . S
C1133 H1141 0.960 . S
C1134 C1132 1.381 . S
C1134 C1135 1.394 . S
C1134 H1142 0.930 . S
C1135 C1134 1.394 . S
C1135 C1136 1.383 . S
C1135 H1143 0.929 . S
C1136 C1135 1.383 . S
C1136 C1137 1.377 . S
C1137 H1121 0.930 . S
C1137 C1136 1.377 . S
C1137 C1138 1.379 . S
C1138 H1122 0.931 . S
C1138 C1132 1.383 . S
C1138 C1137 1.379 . S
H1139 C1133 0.959 . S
H1140 C1133 0.961 . S
H1141 C1133 0.960 . S
H1142 C1134 0.930 . S
H1143 C1135 0.929 . S
H1144 C1152 0.929 . S
H1145 C1154 0.930 . S
H1146 C1156 0.930 . S
H1147 C1159 0.929 . S
H1148 C1162 0.930 . S
H1149 C1164 0.960 . S
H1150 C1164 0.960 . S
H1151 C1164 0.960 . S
C1152 H1144 0.929 . S
C1152 C1153 1.377 . S
C1152 C1154 1.384 . S
C1153 C1152 1.377 . S
C1153 C1159 1.390 . S
C1154 H1145 0.930 . S
C1154 C1152 1.384 . S
C1154 C1155 1.372 . S
C1155 C1154 1.372 . S
C1155 C1156 1.400 . S
C1155 C1160 1.490 . S
C1156 H1146 0.930 . S
C1156 C1155 1.400 . S
C1156 C1159 1.386 . S
H1157 C1173 0.930 . S
H1158 C1174 0.931 . S
C1159 H1147 0.929 . S
C1159 C1153 1.390 . S
C1159 C1156 1.386 . S
C1160 C1155 1.490 . S
C1160 C1162 1.395 . S
C1160 C1163 1.403 . S
H1161 C1167 0.930 . S
C1162 H1148 0.930 . S
C1162 C1160 1.395 . S
C1162 C1165 1.403 . S
C1163 C1160 1.403 . S
C1163 C1164 1.524 . S
C1163 C1167 1.400 . S
C1164 H1149 0.960 . S
C1164 H1150 0.960 . S
C1164 H1151 0.960 . S
C1164 C1163 1.524 . S
C1165 C1162 1.403 . S
C1165 C1166 1.392 . S
C1165 C1169 1.495 . S
C1166 C1165 1.392 . S
C1166 C1167 1.385 . S
C1166 C1168 1.478 . S
C1167 H1161 0.930 . S
C1167 C1163 1.400 . S
C1167 C1166 1.385 . S
C1168 C1166 1.478 . S
C1168 C1170 1.381 . S
C1168 C1174 1.383 . S
C1169 C1165 1.495 . S
C1169 H1175 0.959 . S
C1169 H1176 0.961 . S
C1169 H1177 0.960 . S
C1170 C1168 1.381 . S
C1170 C1171 1.394 . S
C1170 H1178 0.930 . S
C1171 C1170 1.394 . S
C1171 C1172 1.383 . S
C1171 H1179 0.929 . S
C1172 C1171 1.383 . S
C1172 C1173 1.377 . S
C1173 H1157 0.930 . S
C1173 C1172 1.377 . S
C1173 C1174 1.379 . S
C1174 H1158 0.931 . S
C1174 C1168 1.383 . S
C1174 C1173 1.379 . S
H1175 C1169 0.959 . S
H1176 C1169 0.961 . S
H1177 C1169 0.960 . S
H1178 C1170 0.930 . S
H1179 C1171 0.929 . S
H1180 C1188 0.929 . S
H1181 C1190 0.930 . S
H1182 C1192 0.930 . S
H1183 C1195 0.929 . S
H1184 C1198 0.930 . S
H1185 C1200 0.960 1_565 S
H1186 C1200 0.960 . S
H1187 C1200 0.960 . S
C1188 H1180 0.929 . S
C1188 C1189 1.377 . S
C1188 C1190 1.384 . S
C1189 C1188 1.377 . S
C1189 C1195 1.390 . S
C1190 H1181 0.930 . S
C1190 C1188 1.384 . S
C1190 C1191 1.372 . S
C1191 C1190 1.372 . S
C1191 C1192 1.400 . S
C1191 C1196 1.490 . S
C1192 H1182 0.930 . S
C1192 C1191 1.400 . S
C1192 C1195 1.386 . S
H1193 C1209 0.930 . S
H1194 C1210 0.931 . S
C1195 H1183 0.929 . S
C1195 C1189 1.390 . S
C1195 C1192 1.386 . S
C1196 C1191 1.490 . S
C1196 C1198 1.395 . S
C1196 C1199 1.403 . S
H1197 C1203 0.930 . S
C1198 H1184 0.930 . S
C1198 C1196 1.395 . S
C1198 C1201 1.403 1_545 S
C1199 C1196 1.403 . S
C1199 C1200 1.524 . S
C1199 C1203 1.400 1_545 S
C1200 H1185 0.960 1_545 S
C1200 H1186 0.960 . S
C1200 H1187 0.960 . S
C1200 C1199 1.524 . S
C1201 C1198 1.403 1_565 S
C1201 C1202 1.392 . S
C1201 C1205 1.495 . S
C1202 C1201 1.392 . S
C1202 C1203 1.385 . S
C1202 C1204 1.478 . S
C1203 H1197 0.930 . S
C1203 C1199 1.400 1_565 S
C1203 C1202 1.385 . S
C1204 C1202 1.478 . S
C1204 C1206 1.381 . S
C1204 C1210 1.383 . S
C1205 C1201 1.495 . S
C1205 H1211 0.959 . S
C1205 H1212 0.961 . S
C1205 H1213 0.960 . S
C1206 C1204 1.381 . S
C1206 C1207 1.394 . S
C1206 H1214 0.930 . S
C1207 C1206 1.394 . S
C1207 C1208 1.383 . S
C1207 H1215 0.929 . S
C1208 C1207 1.383 . S
C1208 C1209 1.377 . S
C1209 H1193 0.930 . S
C1209 C1208 1.377 . S
C1209 C1210 1.379 . S
C1210 H1194 0.931 . S
C1210 C1204 1.383 . S
C1210 C1209 1.379 . S
H1211 C1205 0.959 . S
H1212 C1205 0.961 . S
H1213 C1205 0.960 . S
H1214 C1206 0.930 . S
H1215 C1207 0.929 . S
H1216 C1224 0.929 . S
H1217 C1226 0.930 . S
H1218 C1228 0.930 . S
H1219 C1231 0.929 . S
H1220 C1234 0.930 . S
H1221 C1236 0.960 . S
H1222 C1236 0.960 . S
H1223 C1236 0.960 . S
C1224 H1216 0.929 . S
C1224 C1225 1.377 . S
C1224 C1226 1.384 . S
C1225 C1224 1.377 . S
C1225 C1231 1.390 . S
C1226 H1217 0.930 . S
C1226 C1224 1.384 . S
C1226 C1227 1.372 . S
C1227 C1226 1.372 . S
C1227 C1228 1.400 . S
C1227 C1232 1.490 . S
C1228 H1218 0.930 . S
C1228 C1227 1.400 . S
C1228 C1231 1.386 . S
H1229 C1245 0.930 . S
H1230 C1246 0.931 . S
C1231 H1219 0.929 . S
C1231 C1225 1.390 . S
C1231 C1228 1.386 . S
C1232 C1227 1.490 . S
C1232 C1234 1.395 . S
C1232 C1235 1.403 . S
H1233 C1239 0.930 . S
C1234 H1220 0.930 . S
C1234 C1232 1.395 . S
C1234 C1237 1.403 . S
C1235 C1232 1.403 . S
C1235 C1236 1.524 . S
C1235 C1239 1.400 . S
C1236 H1221 0.960 . S
C1236 H1222 0.960 . S
C1236 H1223 0.960 . S
C1236 C1235 1.524 . S
C1237 C1234 1.403 . S
C1237 C1238 1.392 . S
C1237 C1241 1.495 . S
C1238 C1237 1.392 . S
C1238 C1239 1.385 . S
C1238 C1240 1.478 . S
C1239 H1233 0.930 . S
C1239 C1235 1.400 . S
C1239 C1238 1.385 . S
C1240 C1238 1.478 . S
C1240 C1242 1.381 . S
C1240 C1246 1.383 . S
C1241 C1237 1.495 . S
C1241 H1247 0.959 . S
C1241 H1248 0.961 . S
C1241 H1249 0.960 . S
C1242 C1240 1.381 . S
C1242 C1243 1.394 . S
C1242 H1250 0.930 . S
C1243 C1242 1.394 . S
C1243 C1244 1.383 . S
C1243 H1251 0.929 . S
C1244 C1243 1.383 . S
C1244 C1245 1.377 . S
C1245 H1229 0.930 . S
C1245 C1244 1.377 . S
C1245 C1246 1.379 . S
C1246 H1230 0.931 . S
C1246 C1240 1.383 . S
C1246 C1245 1.379 . S
H1247 C1241 0.959 . S
H1248 C1241 0.961 . S
H1249 C1241 0.960 . S
H1250 C1242 0.930 . S
H1251 C1243 0.929 . S
H1252 C1260 0.929 . S
H1253 C1262 0.930 . S
H1254 C1264 0.930 . S
H1255 C1267 0.929 . S
H1256 C1270 0.930 . S
H1257 C1272 0.960 . S
H1258 C1272 0.960 . S
H1259 C1272 0.960 . S
C1260 H1252 0.929 . S
C1260 C1261 1.377 . S
C1260 C1262 1.384 . S
C1261 C1260 1.377 . S
C1261 C1267 1.390 . S
C1262 H1253 0.930 . S
C1262 C1260 1.384 . S
C1262 C1263 1.372 . S
C1263 C1262 1.372 . S
C1263 C1264 1.400 . S
C1263 C1268 1.490 . S
C1264 H1254 0.930 . S
C1264 C1263 1.400 . S
C1264 C1267 1.386 . S
H1265 C1281 0.930 . S
H1266 C1282 0.931 . S
C1267 H1255 0.929 . S
C1267 C1261 1.390 . S
C1267 C1264 1.386 . S
C1268 C1263 1.490 . S
C1268 C1270 1.395 . S
C1268 C1271 1.403 . S
H1269 C1275 0.930 . S
C1270 H1256 0.930 . S
C1270 C1268 1.395 . S
C1270 C1273 1.403 . S
C1271 C1268 1.403 . S
C1271 C1272 1.524 . S
C1271 C1275 1.400 . S
C1272 H1257 0.960 . S
C1272 H1258 0.960 . S
C1272 H1259 0.960 . S
C1272 C1271 1.524 . S
C1273 C1270 1.403 . S
C1273 C1274 1.392 . S
C1273 C1277 1.495 . S
C1274 C1273 1.392 . S
C1274 C1275 1.385 . S
C1274 C1276 1.478 . S
C1275 H1269 0.930 . S
C1275 C1271 1.400 . S
C1275 C1274 1.385 . S
C1276 C1274 1.478 . S
C1276 C1278 1.381 . S
C1276 C1282 1.383 . S
C1277 C1273 1.495 . S
C1277 H1283 0.959 . S
C1277 H1284 0.961 . S
C1277 H1285 0.960 . S
C1278 C1276 1.381 . S
C1278 C1279 1.394 . S
C1278 H1286 0.930 . S
C1279 C1278 1.394 . S
C1279 C1280 1.383 . S
C1279 H1287 0.929 . S
C1280 C1279 1.383 . S
C1280 C1281 1.377 . S
C1281 H1265 0.930 . S
C1281 C1280 1.377 . S
C1281 C1282 1.379 . S
C1282 H1266 0.931 . S
C1282 C1276 1.383 . S
C1282 C1281 1.379 . S
H1283 C1277 0.959 . S
H1284 C1277 0.961 . S
H1285 C1277 0.960 . S
H1286 C1278 0.930 . S
H1287 C1279 0.929 . S
H1288 C1296 0.929 . S
H1289 C1298 0.930 . S
H1290 C1300 0.930 . S
H1291 C1303 0.929 . S
H1292 C1306 0.930 1_545 S
H1293 C1308 0.960 . S
H1294 C1308 0.960 . S
H1295 C1308 0.960 . S
C1296 H1288 0.929 . S
C1296 C1297 1.377 . S
C1296 C1298 1.384 . S
C1297 C1296 1.377 . S
C1297 C1303 1.390 . S
C1298 H1289 0.930 . S
C1298 C1296 1.384 . S
C1298 C1299 1.372 . S
C1299 C1298 1.372 . S
C1299 C1300 1.400 . S
C1299 C1304 1.490 . S
C1300 H1290 0.930 . S
C1300 C1299 1.400 . S
C1300 C1303 1.386 . S
H1301 C1317 0.930 . S
H1302 C1318 0.931 . S
C1303 H1291 0.929 . S
C1303 C1297 1.390 . S
C1303 C1300 1.386 . S
C1304 C1299 1.490 . S
C1304 C1306 1.395 1_545 S
C1304 C1307 1.403 . S
H1305 C1311 0.930 . S
C1306 H1292 0.930 1_565 S
C1306 C1304 1.395 1_565 S
C1306 C1309 1.403 . S
C1307 C1304 1.403 . S
C1307 C1308 1.524 . S
C1307 C1311 1.400 1_545 S
C1308 H1293 0.960 . S
C1308 H1294 0.960 . S
C1308 H1295 0.960 . S
C1308 C1307 1.524 . S
C1309 C1306 1.403 . S
C1309 C1310 1.392 . S
C1309 C1313 1.495 . S
C1310 C1309 1.392 . S
C1310 C1311 1.385 . S
C1310 C1312 1.478 . S
C1311 H1305 0.930 . S
C1311 C1307 1.400 1_565 S
C1311 C1310 1.385 . S
C1312 C1310 1.478 . S
C1312 C1314 1.381 . S
C1312 C1318 1.383 . S
C1313 C1309 1.495 . S
C1313 H1319 0.959 . S
C1313 H1320 0.961 . S
C1313 H1321 0.960 . S
C1314 C1312 1.381 . S
C1314 C1315 1.394 . S
C1314 H1322 0.930 . S
C1315 C1314 1.394 . S
C1315 C1316 1.383 . S
C1315 H1323 0.929 . S
C1316 C1315 1.383 . S
C1316 C1317 1.377 . S
C1317 H1301 0.930 . S
C1317 C1316 1.377 . S
C1317 C1318 1.379 . S
C1318 H1302 0.931 . S
C1318 C1312 1.383 . S
C1318 C1317 1.379 . S
H1319 C1313 0.959 . S
H1320 C1313 0.961 . S
H1321 C1313 0.960 . S
H1322 C1314 0.930 . S
H1323 C1315 0.929 . S
H1324 C1332 0.929 . S
H1325 C1334 0.930 . S
H1326 C1336 0.930 . S
H1327 C1339 0.929 . S
H1328 C1342 0.930 . S
H1329 C1344 0.960 . S
H1330 C1344 0.960 . S
H1331 C1344 0.960 . S
C1332 H1324 0.929 . S
C1332 C1333 1.377 . S
C1332 C1334 1.384 . S
C1333 C1332 1.377 . S
C1333 C1339 1.390 . S
C1334 H1325 0.930 . S
C1334 C1332 1.384 . S
C1334 C1335 1.372 . S
C1335 C1334 1.372 . S
C1335 C1336 1.400 . S
C1335 C1340 1.490 . S
C1336 H1326 0.930 . S
C1336 C1335 1.400 . S
C1336 C1339 1.386 . S
H1337 C1353 0.930 . S
H1338 C1354 0.931 . S
C1339 H1327 0.929 . S
C1339 C1333 1.390 . S
C1339 C1336 1.386 . S
C1340 C1335 1.490 . S
C1340 C1342 1.395 . S
C1340 C1343 1.403 . S
H1341 C1347 0.930 . S
C1342 H1328 0.930 . S
C1342 C1340 1.395 . S
C1342 C1345 1.403 . S
C1343 C1340 1.403 . S
C1343 C1344 1.524 . S
C1343 C1347 1.400 . S
C1344 H1329 0.960 . S
C1344 H1330 0.960 . S
C1344 H1331 0.960 . S
C1344 C1343 1.524 . S
C1345 C1342 1.403 . S
C1345 C1346 1.392 . S
C1345 C1349 1.495 . S
C1346 C1345 1.392 . S
C1346 C1347 1.385 . S
C1346 C1348 1.478 . S
C1347 H1341 0.930 . S
C1347 C1343 1.400 . S
C1347 C1346 1.385 . S
C1348 C1346 1.478 . S
C1348 C1350 1.381 . S
C1348 C1354 1.383 . S
C1349 C1345 1.495 . S
C1349 H1355 0.959 . S
C1349 H1356 0.961 . S
C1349 H1357 0.960 . S
C1350 C1348 1.381 . S
C1350 C1351 1.394 . S
C1350 H1358 0.930 . S
C1351 C1350 1.394 . S
C1351 C1352 1.383 . S
C1351 H1359 0.929 . S
C1352 C1351 1.383 . S
C1352 C1353 1.377 . S
C1353 H1337 0.930 . S
C1353 C1352 1.377 . S
C1353 C1354 1.379 . S
C1354 H1338 0.931 . S
C1354 C1348 1.383 . S
C1354 C1353 1.379 . S
H1355 C1349 0.959 . S
H1356 C1349 0.961 . S
H1357 C1349 0.960 . S
H1358 C1350 0.930 . S
H1359 C1351 0.929 . S
C217 C8 0.881 . S
C236 C177 0.894 . S
C253 C21 0.883 . S
C272 C125 0.863 . S
C289 C190 0.934 . S
C308 C34 0.903 . S
C325 C47 0.932 . S
C344 C203 0.897 . S
C361 C60 0.883 . S
C380 C86 0.862 . S
C397 C138 0.895 . S
C416 C73 0.894 . S
C433 C151 0.927 . S
C452 C99 0.900 . S
C469 C112 0.923 . S
C488 C164 0.952 . S
C505 C26 1.559 . S
C524 C5 1.575 . S
C541 C18 1.563 . S
C560 C39 1.572 . S
C577 C161 1.588 . S
C596 C10 1.588 . S
C613 C23 1.571 . S
C632 C148 1.594 . S
C649 C62 1.576 . S
C668 C31 1.583 . S
C685 C140 1.574 . S
C704 C44 1.582 . S
C721 C13 1.557 . S
C740 C0 1.561 . S
C757 C49 1.501 . S
C776 C36 1.519 . S
C793 C130 1.556 . S
C812 C52 1.553 . S
C829 C96 1.627 . S
C848 C65 1.623 . S
C865 C78 1.644 . S
C884 C109 1.640 . S
C901 C195 1.559 . S
C920 C75 1.543 . S
C937 C88 1.532 . S
C956 C182 1.545 . S
C973 C127 1.525 . S
C992 C91 1.567 . S
C1009 C104 1.560 . S
C1028 C179 1.506 . S
C1045 C83 1.616 . S
C1064 C70 1.635 . S
C1081 C114 1.430 . S
C1100 C101 1.427 . S
C1117 C122 1.614 . S
C1136 C174 1.613 . S
C1153 C135 1.564 . S
C1172 C143 1.540 . S
C1189 C156 1.561 . S
C1208 C57 1.577 . S
C1225 C166 1.501 . S
C1244 C153 1.519 . S
C1261 C187 1.629 . S
C1280 C169 1.629 . S
C1297 C117 1.643 . S
C1316 C200 1.627 . S
C1333 C205 1.431 . S
C1352 C192 1.431 . S
