# Generated by pormake.
# Topology soq, (7)-cn, num edge types: 1
# Building blocks:
#     Node 0, Type 0, BuildingBlock: NUHQUE_clean_sbu_2, # of connection points: 7
#     Node 1, Type 0, BuildingBlock: NUHQUE_clean_sbu_2, # of connection points: 7
#     Node 2, Type 0, BuildingBlock: NUHQUE_clean_sbu_2, # of connection points: 7
#     Node 3, Type 0, BuildingBlock: NUHQUE_clean_sbu_2, # of connection points: 7
#     Node 4, Type 0, BuildingBlock: NUHQUE_clean_sbu_2, # of connection points: 7
#     Node 5, Type 0, BuildingBlock: NUHQUE_clean_sbu_2, # of connection points: 7
#     Node 6, Type 0, BuildingBlock: NUHQUE_clean_sbu_2, # of connection points: 7
#     Node 7, Type 0, BuildingBlock: NUHQUE_clean_sbu_2, # of connection points: 7
#     Node 8, Type 0, BuildingBlock: NUHQUE_clean_sbu_2, # of connection points: 7
#     Node 9, Type 0, BuildingBlock: NUHQUE_clean_sbu_2, # of connection points: 7
#     Node 10, Type 0, BuildingBlock: NUHQUE_clean_sbu_2, # of connection points: 7
#     Node 11, Type 0, BuildingBlock: NUHQUE_clean_sbu_2, # of connection points: 7
#     Node 12, Type 0, BuildingBlock: NUHQUE_clean_sbu_2, # of connection points: 7
#     Node 13, Type 0, BuildingBlock: NUHQUE_clean_sbu_2, # of connection points: 7
#     Node 14, Type 0, BuildingBlock: NUHQUE_clean_sbu_2, # of connection points: 7
#     Node 15, Type 0, BuildingBlock: NUHQUE_clean_sbu_2, # of connection points: 7
#     Node 16, Type 0, BuildingBlock: NUHQUE_clean_sbu_2, # of connection points: 7
#     Node 17, Type 0, BuildingBlock: NUHQUE_clean_sbu_2, # of connection points: 7
#     Node 18, Type 0, BuildingBlock: NUHQUE_clean_sbu_2, # of connection points: 7
#     Node 19, Type 0, BuildingBlock: NUHQUE_clean_sbu_2, # of connection points: 7
#     Node 20, Type 0, BuildingBlock: NUHQUE_clean_sbu_2, # of connection points: 7
#     Node 21, Type 0, BuildingBlock: NUHQUE_clean_sbu_2, # of connection points: 7
#     Node 22, Type 0, BuildingBlock: NUHQUE_clean_sbu_2, # of connection points: 7
#     Node 23, Type 0, BuildingBlock: NUHQUE_clean_sbu_2, # of connection points: 7
#     Node 24, Type 0, BuildingBlock: NUHQUE_clean_sbu_2, # of connection points: 7
#     Node 25, Type 0, BuildingBlock: NUHQUE_clean_sbu_2, # of connection points: 7
#     Node 26, Type 0, BuildingBlock: NUHQUE_clean_sbu_2, # of connection points: 7
#     Node 27, Type 0, BuildingBlock: NUHQUE_clean_sbu_2, # of connection points: 7
#     Node 28, Type 0, BuildingBlock: NUHQUE_clean_sbu_2, # of connection points: 7
#     Node 29, Type 0, BuildingBlock: NUHQUE_clean_sbu_2, # of connection points: 7
#     Node 30, Type 0, BuildingBlock: NUHQUE_clean_sbu_2, # of connection points: 7
#     Node 31, Type 0, BuildingBlock: NUHQUE_clean_sbu_2, # of connection points: 7
#     Edge 32, Type (0, 0), BuildingBlock: KIFKEQ_clean_linker_1, # of connection points: 2
#     Edge 33, Type (0, 0), BuildingBlock: KIFKEQ_clean_linker_1, # of connection points: 2
#     Edge 34, Type (0, 0), BuildingBlock: KIFKEQ_clean_linker_1, # of connection points: 2
#     Edge 35, Type (0, 0), BuildingBlock: KIFKEQ_clean_linker_1, # of connection points: 2
#     Edge 36, Type (0, 0), BuildingBlock: KIFKEQ_clean_linker_1, # of connection points: 2
#     Edge 37, Type (0, 0), BuildingBlock: KIFKEQ_clean_linker_1, # of connection points: 2
#     Edge 38, Type (0, 0), BuildingBlock: KIFKEQ_clean_linker_1, # of connection points: 2
#     Edge 39, Type (0, 0), BuildingBlock: KIFKEQ_clean_linker_1, # of connection points: 2
#     Edge 40, Type (0, 0), BuildingBlock: KIFKEQ_clean_linker_1, # of connection points: 2
#     Edge 41, Type (0, 0), BuildingBlock: KIFKEQ_clean_linker_1, # of connection points: 2
#     Edge 42, Type (0, 0), BuildingBlock: KIFKEQ_clean_linker_1, # of connection points: 2
#     Edge 43, Type (0, 0), BuildingBlock: KIFKEQ_clean_linker_1, # of connection points: 2
#     Edge 44, Type (0, 0), BuildingBlock: KIFKEQ_clean_linker_1, # of connection points: 2
#     Edge 45, Type (0, 0), BuildingBlock: KIFKEQ_clean_linker_1, # of connection points: 2
#     Edge 46, Type (0, 0), BuildingBlock: KIFKEQ_clean_linker_1, # of connection points: 2
#     Edge 47, Type (0, 0), BuildingBlock: KIFKEQ_clean_linker_1, # of connection points: 2
#     Edge 48, Type (0, 0), BuildingBlock: KIFKEQ_clean_linker_1, # of connection points: 2
#     Edge 49, Type (0, 0), BuildingBlock: KIFKEQ_clean_linker_1, # of connection points: 2
#     Edge 50, Type (0, 0), BuildingBlock: KIFKEQ_clean_linker_1, # of connection points: 2
#     Edge 51, Type (0, 0), BuildingBlock: KIFKEQ_clean_linker_1, # of connection points: 2
#     Edge 52, Type (0, 0), BuildingBlock: KIFKEQ_clean_linker_1, # of connection points: 2
#     Edge 53, Type (0, 0), BuildingBlock: KIFKEQ_clean_linker_1, # of connection points: 2
#     Edge 54, Type (0, 0), BuildingBlock: KIFKEQ_clean_linker_1, # of connection points: 2
#     Edge 55, Type (0, 0), BuildingBlock: KIFKEQ_clean_linker_1, # of connection points: 2
#     Edge 56, Type (0, 0), BuildingBlock: KIFKEQ_clean_linker_1, # of connection points: 2
#     Edge 57, Type (0, 0), BuildingBlock: KIFKEQ_clean_linker_1, # of connection points: 2
#     Edge 58, Type (0, 0), BuildingBlock: KIFKEQ_clean_linker_1, # of connection points: 2
#     Edge 59, Type (0, 0), BuildingBlock: KIFKEQ_clean_linker_1, # of connection points: 2
#     Edge 60, Type (0, 0), BuildingBlock: KIFKEQ_clean_linker_1, # of connection points: 2
#     Edge 61, Type (0, 0), BuildingBlock: KIFKEQ_clean_linker_1, # of connection points: 2
#     Edge 62, Type (0, 0), BuildingBlock: KIFKEQ_clean_linker_1, # of connection points: 2
#     Edge 63, Type (0, 0), BuildingBlock: KIFKEQ_clean_linker_1, # of connection points: 2
#     Edge 64, Type (0, 0), BuildingBlock: KIFKEQ_clean_linker_1, # of connection points: 2
#     Edge 65, Type (0, 0), BuildingBlock: KIFKEQ_clean_linker_1, # of connection points: 2
#     Edge 66, Type (0, 0), BuildingBlock: KIFKEQ_clean_linker_1, # of connection points: 2
#     Edge 67, Type (0, 0), BuildingBlock: KIFKEQ_clean_linker_1, # of connection points: 2
#     Edge 68, Type (0, 0), BuildingBlock: KIFKEQ_clean_linker_1, # of connection points: 2
#     Edge 69, Type (0, 0), BuildingBlock: KIFKEQ_clean_linker_1, # of connection points: 2
#     Edge 70, Type (0, 0), BuildingBlock: KIFKEQ_clean_linker_1, # of connection points: 2
#     Edge 71, Type (0, 0), BuildingBlock: KIFKEQ_clean_linker_1, # of connection points: 2
#     Edge 72, Type (0, 0), BuildingBlock: KIFKEQ_clean_linker_1, # of connection points: 2
#     Edge 73, Type (0, 0), BuildingBlock: KIFKEQ_clean_linker_1, # of connection points: 2
#     Edge 74, Type (0, 0), BuildingBlock: KIFKEQ_clean_linker_1, # of connection points: 2
#     Edge 75, Type (0, 0), BuildingBlock: KIFKEQ_clean_linker_1, # of connection points: 2
#     Edge 76, Type (0, 0), BuildingBlock: KIFKEQ_clean_linker_1, # of connection points: 2
#     Edge 77, Type (0, 0), BuildingBlock: KIFKEQ_clean_linker_1, # of connection points: 2
#     Edge 78, Type (0, 0), BuildingBlock: KIFKEQ_clean_linker_1, # of connection points: 2
#     Edge 79, Type (0, 0), BuildingBlock: KIFKEQ_clean_linker_1, # of connection points: 2
#     Edge 80, Type (0, 0), BuildingBlock: KIFKEQ_clean_linker_1, # of connection points: 2
#     Edge 81, Type (0, 0), BuildingBlock: KIFKEQ_clean_linker_1, # of connection points: 2
#     Edge 82, Type (0, 0), BuildingBlock: KIFKEQ_clean_linker_1, # of connection points: 2
#     Edge 83, Type (0, 0), BuildingBlock: KIFKEQ_clean_linker_1, # of connection points: 2
#     Edge 84, Type (0, 0), BuildingBlock: KIFKEQ_clean_linker_1, # of connection points: 2
#     Edge 85, Type (0, 0), BuildingBlock: KIFKEQ_clean_linker_1, # of connection points: 2
#     Edge 86, Type (0, 0), BuildingBlock: KIFKEQ_clean_linker_1, # of connection points: 2
#     Edge 87, Type (0, 0), BuildingBlock: KIFKEQ_clean_linker_1, # of connection points: 2
#     Edge 88, Type (0, 0), BuildingBlock: KIFKEQ_clean_linker_1, # of connection points: 2
#     Edge 89, Type (0, 0), BuildingBlock: KIFKEQ_clean_linker_1, # of connection points: 2
#     Edge 90, Type (0, 0), BuildingBlock: KIFKEQ_clean_linker_1, # of connection points: 2
#     Edge 91, Type (0, 0), BuildingBlock: KIFKEQ_clean_linker_1, # of connection points: 2
#     Edge 92, Type (0, 0), BuildingBlock: KIFKEQ_clean_linker_1, # of connection points: 2
#     Edge 93, Type (0, 0), BuildingBlock: KIFKEQ_clean_linker_1, # of connection points: 2
#     Edge 94, Type (0, 0), BuildingBlock: KIFKEQ_clean_linker_1, # of connection points: 2
#     Edge 95, Type (0, 0), BuildingBlock: KIFKEQ_clean_linker_1, # of connection points: 2
#     Edge 96, Type (0, 0), BuildingBlock: KIFKEQ_clean_linker_1, # of connection points: 2
#     Edge 97, Type (0, 0), BuildingBlock: KIFKEQ_clean_linker_1, # of connection points: 2
#     Edge 98, Type (0, 0), BuildingBlock: KIFKEQ_clean_linker_1, # of connection points: 2
#     Edge 99, Type (0, 0), BuildingBlock: KIFKEQ_clean_linker_1, # of connection points: 2
#     Edge 100, Type (0, 0), BuildingBlock: KIFKEQ_clean_linker_1, # of connection points: 2
#     Edge 101, Type (0, 0), BuildingBlock: KIFKEQ_clean_linker_1, # of connection points: 2
#     Edge 102, Type (0, 0), BuildingBlock: KIFKEQ_clean_linker_1, # of connection points: 2
#     Edge 103, Type (0, 0), BuildingBlock: KIFKEQ_clean_linker_1, # of connection points: 2
#     Edge 104, Type (0, 0), BuildingBlock: KIFKEQ_clean_linker_1, # of connection points: 2
#     Edge 105, Type (0, 0), BuildingBlock: KIFKEQ_clean_linker_1, # of connection points: 2
#     Edge 106, Type (0, 0), BuildingBlock: KIFKEQ_clean_linker_1, # of connection points: 2
#     Edge 107, Type (0, 0), BuildingBlock: KIFKEQ_clean_linker_1, # of connection points: 2
#     Edge 108, Type (0, 0), BuildingBlock: KIFKEQ_clean_linker_1, # of connection points: 2
#     Edge 109, Type (0, 0), BuildingBlock: KIFKEQ_clean_linker_1, # of connection points: 2
#     Edge 110, Type (0, 0), BuildingBlock: KIFKEQ_clean_linker_1, # of connection points: 2
#     Edge 111, Type (0, 0), BuildingBlock: KIFKEQ_clean_linker_1, # of connection points: 2
#     Edge 112, Type (0, 0), BuildingBlock: KIFKEQ_clean_linker_1, # of connection points: 2
#     Edge 113, Type (0, 0), BuildingBlock: KIFKEQ_clean_linker_1, # of connection points: 2
#     Edge 114, Type (0, 0), BuildingBlock: KIFKEQ_clean_linker_1, # of connection points: 2
#     Edge 115, Type (0, 0), BuildingBlock: KIFKEQ_clean_linker_1, # of connection points: 2
#     Edge 116, Type (0, 0), BuildingBlock: KIFKEQ_clean_linker_1, # of connection points: 2
#     Edge 117, Type (0, 0), BuildingBlock: KIFKEQ_clean_linker_1, # of connection points: 2
#     Edge 118, Type (0, 0), BuildingBlock: KIFKEQ_clean_linker_1, # of connection points: 2
#     Edge 119, Type (0, 0), BuildingBlock: KIFKEQ_clean_linker_1, # of connection points: 2
#     Edge 120, Type (0, 0), BuildingBlock: KIFKEQ_clean_linker_1, # of connection points: 2
#     Edge 121, Type (0, 0), BuildingBlock: KIFKEQ_clean_linker_1, # of connection points: 2
#     Edge 122, Type (0, 0), BuildingBlock: KIFKEQ_clean_linker_1, # of connection points: 2
#     Edge 123, Type (0, 0), BuildingBlock: KIFKEQ_clean_linker_1, # of connection points: 2
#     Edge 124, Type (0, 0), BuildingBlock: KIFKEQ_clean_linker_1, # of connection points: 2
#     Edge 125, Type (0, 0), BuildingBlock: KIFKEQ_clean_linker_1, # of connection points: 2
#     Edge 126, Type (0, 0), BuildingBlock: KIFKEQ_clean_linker_1, # of connection points: 2
#     Edge 127, Type (0, 0), BuildingBlock: KIFKEQ_clean_linker_1, # of connection points: 2
#     Edge 128, Type (0, 0), BuildingBlock: KIFKEQ_clean_linker_1, # of connection points: 2
#     Edge 129, Type (0, 0), BuildingBlock: KIFKEQ_clean_linker_1, # of connection points: 2
#     Edge 130, Type (0, 0), BuildingBlock: KIFKEQ_clean_linker_1, # of connection points: 2
#     Edge 131, Type (0, 0), BuildingBlock: KIFKEQ_clean_linker_1, # of connection points: 2
#     Edge 132, Type (0, 0), BuildingBlock: KIFKEQ_clean_linker_1, # of connection points: 2
#     Edge 133, Type (0, 0), BuildingBlock: KIFKEQ_clean_linker_1, # of connection points: 2
#     Edge 134, Type (0, 0), BuildingBlock: KIFKEQ_clean_linker_1, # of connection points: 2
#     Edge 135, Type (0, 0), BuildingBlock: KIFKEQ_clean_linker_1, # of connection points: 2
#     Edge 136, Type (0, 0), BuildingBlock: KIFKEQ_clean_linker_1, # of connection points: 2
#     Edge 137, Type (0, 0), BuildingBlock: KIFKEQ_clean_linker_1, # of connection points: 2
#     Edge 138, Type (0, 0), BuildingBlock: KIFKEQ_clean_linker_1, # of connection points: 2
#     Edge 139, Type (0, 0), BuildingBlock: KIFKEQ_clean_linker_1, # of connection points: 2
#     Edge 140, Type (0, 0), BuildingBlock: KIFKEQ_clean_linker_1, # of connection points: 2
#     Edge 141, Type (0, 0), BuildingBlock: KIFKEQ_clean_linker_1, # of connection points: 2
#     Edge 142, Type (0, 0), BuildingBlock: KIFKEQ_clean_linker_1, # of connection points: 2
#     Edge 143, Type (0, 0), BuildingBlock: KIFKEQ_clean_linker_1, # of connection points: 2
# Relax obj value: 0.236
# Max RMSD: 0.238
# Mean RMSD: 0.238
data_MOF--net-soq--node1-NUHQUE_clean_sbu_2--edge1-KIFKEQ_clean_linker_1
_symmetry_space_group_name_H-M    P1
_symmetry_Int_Tables_number       1
_symmetry_cell_setting            triclinic
loop_
_symmetry_equiv_pos_as_xyz
'x, y, z'
_cell_length_a     69.773215
_cell_length_b     42.294539
_cell_length_c     55.88913
_cell_angle_alpha  90.01471
_cell_angle_beta   90.067866
_cell_angle_gamma 90.013009
loop_
_atom_site_label
_atom_site_type_symbol
_atom_site_fract_x
_atom_site_fract_y
_atom_site_fract_z
_atom_type_partial_charge
O0 O 0.09523 0.31241 0.99053 0.0
Tb1 Tb 0.08683 0.2852 0.0221 0.0
Eu2 Eu 0.05258 0.27114 0.06509 0.0
C3 C 0.08377 0.33491 0.98264 0.0
O4 O 0.06893 0.34281 0.99581 0.0
C5 C 0.0482 0.25329 1.01026 0.0
O6 O 0.04289 0.23123 0.08804 0.0
C7 C 0.03045 0.31968 0.07137 0.0
C8 C 0.04839 0.2024 0.08292 0.0
O9 O 0.05948 0.19753 0.0643 0.0
C10 C 0.09327 0.30271 0.07557 0.0
C11 C 0.02965 0.35215 0.0815 0.0
C12 C 0.03282 0.37773 0.066 0.0
C13 C 0.02904 0.40883 0.0732 0.0
C14 C 0.02299 0.41449 0.09668 0.0
C15 C 0.02015 0.38962 0.11275 0.0
C16 C 0.02332 0.35825 0.10514 0.0
O17 O 0.05848 0.27879 1.00628 0.0
O18 O 0.04632 0.24244 0.03209 0.0
O19 O 0.10937 0.25239 1.01089 0.0
O20 O 0.08888 0.23719 0.03659 0.0
C21 C 0.10389 0.22886 0.02429 0.0
O22 O 0.08176 0.2791 0.08071 0.0
O23 O 0.09459 0.3138 0.05349 0.0
O24 O 0.03093 0.29562 0.08626 0.0
O25 O 0.04098 0.31536 0.05203 0.0
H26 H 0.03744 0.37334 0.0478 0.0
H27 H 0.01945 0.43833 0.10231 0.0
H28 H 0.02025 0.33889 0.11724 0.0
O29 O 0.17245 0.92828 0.98792 0.0
Tb30 Tb 0.18048 0.95506 0.02003 0.0
Eu31 Eu 0.21507 0.96821 0.06451 0.0
C32 C 0.1842 0.90643 0.97962 0.0
O33 O 0.19926 0.89891 0.99255 0.0
C34 C 0.2189 0.98786 1.0099 0.0
O35 O 0.22509 0.01067 0.08443 0.0
C36 C 0.23877 0.92183 0.07111 0.0
C37 C 0.2226 0.01352 0.10754 0.0
O38 O 0.21414 0.99072 0.11951 0.0
C39 C 0.1741 0.93564 0.07356 0.0
C40 C 0.24011 0.88888 0.0801 0.0
C41 C 0.24189 0.86473 0.06308 0.0
C42 C 0.24409 0.83335 0.07015 0.0
C43 C 0.24455 0.82567 0.09439 0.0
C44 C 0.24337 0.8492 0.11202 0.0
C45 C 0.24125 0.88111 0.10479 0.0
O46 O 0.2091 0.96202 1.00537 0.0
O47 O 0.22035 0.99823 0.03192 0.0
O48 O 0.15812 0.98816 1.00865 0.0
O49 O 0.17803 0.00258 0.03535 0.0
C50 C 0.16326 0.01125 0.02271 0.0
O51 O 0.18616 0.95789 0.08013 0.0
O52 O 0.17246 0.92609 0.05107 0.0
O53 O 0.23644 0.94473 0.08675 0.0
O54 O 0.22919 0.92626 0.05097 0.0
H55 H 0.24182 0.87032 0.04413 0.0
H56 H 0.24693 0.80123 0.09948 0.0
H57 H 0.24061 0.89956 0.1182 0.0
O58 O 0.09547 0.9376 0.30251 0.0
Tb59 Tb 0.08617 0.96079 0.26952 0.0
Eu60 Eu 0.04869 0.96641 0.22735 0.0
C61 C 0.08786 0.91053 0.30933 0.0
O62 O 0.07591 0.89605 0.29481 0.0
C63 C 0.04697 0.99115 0.28139 0.0
O64 O 0.041 0.00398 0.20113 0.0
C65 C 0.02474 0.91988 0.22356 0.0
C66 C 0.04664 0.03304 0.20518 0.0
O67 O 0.05665 0.03932 0.22451 0.0
C68 C 0.09024 0.93622 0.2166 0.0
C69 C 0.02068 0.88896 0.2121 0.0
C70 C 0.01874 0.86276 0.22725 0.0
C71 C 0.01206 0.83388 0.21847 0.0
C72 C 0.00766 0.8307 0.19424 0.0
C73 C 0.00979 0.85621 0.17851 0.0
C74 C 0.01633 0.88557 0.18741 0.0
O75 O 0.05846 0.96756 0.28686 0.0
O76 O 0.04347 0.99825 0.25897 0.0
O77 O 0.11061 0.99214 0.27569 0.0
O78 O 0.08667 0.00949 0.25609 0.0
C79 C 0.10353 0.01658 0.2646 0.0
O80 O 0.07665 0.95556 0.20953 0.0
O81 O 0.09328 0.92952 0.23942 0.0
O82 O 0.02364 0.94556 0.2104 0.0
O83 O 0.0383 0.92093 0.24004 0.0
H84 H 0.02148 0.86524 0.24628 0.0
H85 H 1.00235 0.80821 0.18761 0.0
H86 H 0.01735 0.90565 0.17545 0.0
O87 O 0.17817 0.31158 0.30004 0.0
Tb88 Tb 0.18668 0.28546 0.26781 0.0
Eu89 Eu 0.2218 0.26964 0.22571 0.0
C90 C 0.19069 0.33044 0.31054 0.0
O91 O 0.20702 0.33617 0.2997 0.0
C92 C 0.22456 0.25087 0.28059 0.0
O93 O 0.23215 0.22798 0.20513 0.0
C94 C 0.24457 0.31747 0.21965 0.0
C95 C 0.22943 0.22604 0.182 0.0
O96 O 0.22113 0.24957 0.17066 0.0
C97 C 0.18205 0.30256 0.21397 0.0
C98 C 0.24545 0.3498 0.20931 0.0
C99 C 0.24674 0.37531 0.22527 0.0
C100 C 0.2483 0.40628 0.21686 0.0
C101 C 0.24861 0.41205 0.19229 0.0
C102 C 0.24786 0.38714 0.17573 0.0
C103 C 0.24639 0.35576 0.18433 0.0
O104 O 0.21448 0.27657 0.28477 0.0
O105 O 0.22654 0.24023 0.25872 0.0
O106 O 0.16157 0.25558 0.27444 0.0
O107 O 0.18522 0.2364 0.2554 0.0
C108 C 0.16822 0.23043 0.26383 0.0
O109 O 0.193 0.2781 0.20933 0.0
O110 O 0.18094 0.31437 0.23587 0.0
O111 O 0.24391 0.29332 0.20486 0.0
O112 O 0.23393 0.3136 0.23897 0.0
H113 H 0.24668 0.37109 0.24442 0.0
H114 H 0.2504 0.43617 0.18607 0.0
H115 H 0.24604 0.33632 0.17171 0.0
O116 O 0.92104 0.69056 0.04954 0.0
Tb117 Tb 0.93062 0.71467 1.01704 0.0
Eu118 Eu 0.96703 0.72407 0.97456 0.0
C119 C 0.92943 0.66446 0.05708 0.0
O120 O 0.94235 0.65096 0.04337 0.0
C121 C 0.96938 0.74461 0.02876 0.0
O122 O 0.97471 0.76197 0.94858 0.0
C123 C 0.99102 0.67756 0.9708 0.0
C124 C 0.9741 0.75639 0.92551 0.0
O125 O 0.96906 0.72821 0.91783 0.0
C126 C 0.92535 0.69259 0.96376 0.0
C127 C 0.99442 0.64673 0.95895 0.0
C128 C 0.99736 0.62065 0.97395 0.0
C129 C 1.00183 0.5911 0.96443 0.0
C130 C 1.00328 0.58715 0.93975 0.0
C131 C 1.0011 0.61289 0.92429 0.0
C132 C 0.99659 0.64296 0.93384 0.0
O133 O 0.95917 0.71897 0.03237 0.0
O134 O 0.97175 0.7551 1.00689 0.0
O135 O 0.90853 0.74849 0.02765 0.0
O136 O 0.92913 0.76239 1.00169 0.0
C137 C 0.91418 0.77145 1.01386 0.0
O138 O 0.93896 0.71217 0.95695 0.0
O139 O 0.92227 0.68523 0.98647 0.0
O140 O 0.99226 0.70337 0.95786 0.0
O141 O 0.9775 0.67867 0.98727 0.0
H142 H 0.99659 0.62345 0.99323 0.0
H143 H 0.00722 0.56418 0.93261 0.0
H144 H 0.99526 0.6631 0.92199 0.0
O145 O 0.84051 0.06691 0.0471 0.0
Tb146 Tb 0.83169 0.04028 1.0152 0.0
Eu147 Eu 0.79639 0.02645 0.97212 0.0
C148 C 0.82805 0.08451 0.05885 0.0
O149 O 0.81077 0.0883 0.05 0.0
C150 C 0.79425 0.00407 0.02604 0.0
O151 O 0.78812 0.98899 0.94598 0.0
C152 C 0.77328 0.07431 0.96889 0.0
C153 C 0.7903 0.9938 0.92296 0.0
O154 O 0.79674 0.02125 0.91544 0.0
C155 C 0.83685 0.06016 0.96175 0.0
C156 C 0.77145 0.10619 0.95798 0.0
C157 C 0.77198 0.13232 0.9734 0.0
C158 C 0.76924 0.16291 0.96467 0.0
C159 C 0.76606 0.16779 0.94031 0.0
C160 C 0.76474 0.14217 0.92456 0.0
C161 C 0.76745 0.11115 0.93336 0.0
O162 O 0.80356 0.03046 0.0305 0.0
O163 O 0.79195 0.99452 1.00389 0.0
O164 O 0.85516 0.00915 0.02613 0.0
O165 O 0.83562 0.99315 0.99955 0.0
C166 C 0.85075 0.98575 1.01203 0.0
O167 O 0.825 0.03728 0.95582 0.0
O168 O 0.83853 0.07007 0.98414 0.0
O169 O 0.77214 0.04953 0.95479 0.0
O170 O 0.78595 0.07105 0.98628 0.0
H171 H 0.77405 0.12888 0.99247 0.0
H172 H 0.7634 0.19158 0.93381 0.0
H173 H 0.76604 0.09124 0.92128 0.0
O174 O 0.92296 0.06492 0.73806 0.0
Tb175 Tb 0.93158 0.0409 0.77102 0.0
Eu176 Eu 0.96535 0.0212 0.81498 0.0
C177 C 0.9324 0.08984 0.73018 0.0
O178 O 0.94588 0.10214 0.74372 0.0
C179 C 0.96996 0.00758 0.75905 0.0
O180 O 0.97392 0.97647 0.83329 0.0
C181 C 0.98881 0.06714 0.82438 0.0
C182 C 0.96416 0.95087 0.82809 0.0
O183 O 0.94954 0.95301 0.81338 0.0
C184 C 0.92631 0.05672 0.82476 0.0
C185 C 0.9899 0.09977 0.83424 0.0
C186 C 0.98696 0.12554 0.81875 0.0
C187 C 0.99094 0.15658 0.82606 0.0
C188 C 0.99714 0.16192 0.84956 0.0
C189 C 0.99978 0.13687 0.86555 0.0
C190 C 0.99625 0.10566 0.85789 0.0
O191 O 0.9599 0.03346 0.75506 0.0
O192 O 0.97114 0.99546 0.7806 0.0
O193 O 0.90565 0.01178 0.76758 0.0
O194 O 0.93143 0.99063 0.77987 0.0
C195 C 0.91353 0.98554 0.77477 0.0
O196 O 0.93588 0.03062 0.82895 0.0
O197 O 0.92629 0.06958 0.80318 0.0
O198 O 0.98578 0.0436 0.8393 0.0
O199 O 0.98017 0.06347 0.80353 0.0
H200 H 0.98224 0.12137 0.80055 0.0
H201 H 1.00087 0.18564 0.85528 0.0
H202 H 0.99914 0.08616 0.86994 0.0
O203 O 0.84327 0.69242 0.73478 0.0
Tb204 Tb 0.83428 0.71325 0.76884 0.0
Eu205 Eu 0.79802 0.72579 0.81372 0.0
C206 C 0.83669 0.66479 0.72753 0.0
O207 O 0.82601 0.64811 0.74219 0.0
C208 C 0.79468 0.74207 0.75788 0.0
O209 O 0.79102 0.77096 0.8324 0.0
C210 C 0.77284 0.68244 0.82324 0.0
C211 C 0.80367 0.79385 0.83162 0.0
O212 O 0.82026 0.78867 0.82127 0.0
C213 C 0.83897 0.69203 0.8223 0.0
C214 C 0.77017 0.65039 0.83369 0.0
C215 C 0.77078 0.62417 0.81826 0.0
C216 C 0.76559 0.59416 0.82633 0.0
C217 C 0.76017 0.58975 0.85007 0.0
C218 C 0.75966 0.61519 0.86603 0.0
C219 C 0.76462 0.64573 0.85788 0.0
O220 O 0.80553 0.71718 0.75383 0.0
O221 O 0.79229 0.75279 0.77972 0.0
O222 O 0.85941 0.74422 0.76691 0.0
O223 O 0.83273 0.76347 0.77802 0.0
C224 C 0.85066 0.76979 0.77387 0.0
O225 O 0.82686 0.714 0.82916 0.0
O226 O 0.84063 0.68297 0.79972 0.0
O227 O 0.77637 0.70625 0.83775 0.0
O228 O 0.78214 0.68431 0.80273 0.0
H229 H 0.7743 0.6272 0.7995 0.0
H230 H 0.75595 0.56635 0.85607 0.0
H231 H 0.76352 0.66566 0.86998 0.0
O232 O 0.0939 0.80366 0.48682 0.0
Tb233 Tb 0.0845 0.78067 0.51983 0.0
Eu234 Eu 0.04757 0.77988 0.56498 0.0
C235 C 0.08666 0.83099 0.47998 0.0
O236 O 0.07491 0.84593 0.49445 0.0
C237 C 0.04438 0.75403 0.51193 0.0
O238 O 0.04384 0.7393 0.58988 0.0
C239 C 0.02069 0.8214 0.57106 0.0
C240 C 0.05901 0.72285 0.59585 0.0
O241 O 0.0758 0.73091 0.58718 0.0
C242 C 0.09143 0.80965 0.57193 0.0
C243 C 0.01751 0.85397 0.58013 0.0
C244 C 0.01418 0.87776 0.56315 0.0
C245 C 0.01125 0.90895 0.57027 0.0
C246 C 0.01131 0.91672 0.59448 0.0
C247 C 0.01397 0.89348 0.61204 0.0
C248 C 0.01697 0.86178 0.60483 0.0
O249 O 0.05526 0.7783 0.50645 0.0
O250 O 0.04197 0.74629 0.53443 0.0
O251 O 0.10432 0.74405 0.50767 0.0
O252 O 0.08505 0.73342 0.53599 0.0
C253 C 0.09868 0.72226 0.5225 0.0
O254 O 0.07525 0.79811 0.58033 0.0
O255 O 0.09625 0.80951 0.54899 0.0
O256 O 0.02425 0.79884 0.58663 0.0
O257 O 0.03073 0.81881 0.55115 0.0
H258 H 0.01403 0.87212 0.54421 0.0
H259 H 0.00855 0.94102 0.59967 0.0
H260 H 0.01895 0.84362 0.61826 0.0
O261 O 0.17317 0.42432 0.49261 0.0
Tb262 Tb 0.18009 0.45318 0.5241 0.0
Eu263 Eu 0.21364 0.47445 0.56765 0.0
C264 C 0.18675 0.40676 0.48296 0.0
O265 O 0.20303 0.40357 0.49453 0.0
C266 C 0.21701 0.49126 0.51213 0.0
O267 O 0.22149 0.51917 0.58648 0.0
C268 C 0.23859 0.43048 0.57638 0.0
C269 C 0.21216 0.54497 0.58069 0.0
O270 O 0.19803 0.54318 0.56524 0.0
C271 C 0.17492 0.43697 0.57806 0.0
C272 C 0.24121 0.39854 0.58702 0.0
C273 C 0.2416 0.37231 0.57157 0.0
C274 C 0.24666 0.3424 0.58009 0.0
C275 C 0.25077 0.33818 0.60428 0.0
C276 C 0.25049 0.36368 0.62014 0.0
C277 C 0.24578 0.3941 0.61156 0.0
O278 O 0.20774 0.46475 0.50793 0.0
O279 O 0.21857 0.50229 0.53394 0.0
O280 O 0.15547 0.48194 0.51307 0.0
O281 O 0.17523 0.50063 0.53837 0.0
C282 C 0.15962 0.50631 0.52637 0.0
O283 O 0.18474 0.4628 0.58261 0.0
O284 O 0.17443 0.42465 0.55626 0.0
O285 O 0.23563 0.4545 0.59089 0.0
O286 O 0.22884 0.43241 0.55615 0.0
H287 H 0.23904 0.37535 0.55256 0.0
H288 H 0.25487 0.31491 0.61072 0.0
H289 H 0.24628 0.41408 0.62367 0.0
O290 O 0.0913 0.42941 0.80114 0.0
Tb291 Tb 0.0825 0.45658 0.76969 0.0
Eu292 Eu 0.04758 0.47181 0.72591 0.0
C293 C 0.0793 0.4088 0.81055 0.0
O294 O 0.0633 0.40262 0.79903 0.0
C295 C 0.04426 0.4914 0.78111 0.0
O296 O 0.04217 0.51457 0.70346 0.0
C297 C 0.02277 0.42733 0.71789 0.0
C298 C 0.0508 0.54087 0.7097 0.0
O299 O 0.06132 0.54121 0.72915 0.0
C300 C 0.08745 0.43583 0.71655 0.0
C301 C 0.02044 0.39517 0.70761 0.0
C302 C 0.01703 0.37027 0.72365 0.0
C303 C 0.01435 0.33945 0.71539 0.0
C304 C 0.01492 0.33322 0.69091 0.0
C305 C 0.01766 0.35759 0.67425 0.0
C306 C 0.02032 0.38887 0.68265 0.0
O307 O 0.05465 0.46622 0.78598 0.0
O308 O 0.04171 0.50077 0.75896 0.0
O309 O 0.10591 0.48806 0.78052 0.0
O310 O 0.08665 0.50311 0.75337 0.0
C311 C 0.10162 0.511 0.76593 0.0
O312 O 0.07641 0.45979 0.71078 0.0
O313 O 0.08895 0.42598 0.73895 0.0
O314 O 0.02525 0.45139 0.7033 0.0
O315 O 0.0329 0.4295 0.73779 0.0
H316 H 0.01643 0.37481 0.74274 0.0
H317 H 0.01231 0.30926 0.68475 0.0
H318 H 0.02227 0.40791 0.66993 0.0
O319 O 0.17498 0.80778 0.79882 0.0
Tb320 Tb 0.18336 0.78082 0.76695 0.0
Eu321 Eu 0.21985 0.77203 0.72403 0.0
C322 C 0.1869 0.82883 0.80793 0.0
O323 O 0.2026 0.83551 0.79597 0.0
C324 C 0.22171 0.74702 0.77751 0.0
O325 O 0.22868 0.73562 0.69745 0.0
C326 C 0.24271 0.82024 0.7216 0.0
C327 C 0.22745 0.74133 0.67443 0.0
O328 O 0.2214 0.7691 0.66707 0.0
C329 C 0.17834 0.80256 0.71338 0.0
C330 C 0.24515 0.85191 0.71068 0.0
C331 C 0.24875 0.87706 0.72635 0.0
C332 C 0.2517 0.90757 0.71764 0.0
C333 C 0.25103 0.91325 0.69308 0.0
C334 C 0.24795 0.88857 0.67676 0.0
C335 C 0.24511 0.85755 0.68562 0.0
O336 O 0.21155 0.7723 0.78264 0.0
O337 O 0.22459 0.73901 0.75512 0.0
O338 O 0.1604 0.7488 0.77808 0.0
O339 O 0.1802 0.73336 0.75163 0.0
C340 C 0.16522 0.72542 0.76416 0.0
O341 O 0.19154 0.78226 0.70671 0.0
O342 O 0.1756 0.81046 0.73607 0.0
O343 O 0.2444 0.79532 0.70774 0.0
O344 O 0.22944 0.81725 0.73827 0.0
H345 H 0.24933 0.8729 0.7455 0.0
H346 H 0.25378 0.93701 0.68659 0.0
H347 H 0.24287 0.83822 0.6732 0.0
O348 O 0.92486 0.19217 0.55122 0.0
Tb349 Tb 0.93374 0.21514 0.51797 0.0
Eu350 Eu 0.96661 0.22597 0.47321 0.0
C351 C 0.93206 0.16489 0.55822 0.0
O352 O 0.94346 0.14935 0.54368 0.0
C353 C 0.97263 0.2467 0.52688 0.0
O354 O 0.97376 0.26182 0.44542 0.0
C355 C 0.98876 0.17721 0.46828 0.0
C356 C 0.97139 0.25528 0.42266 0.0
O357 O 0.96482 0.22738 0.41634 0.0
C358 C 0.92547 0.19362 0.46555 0.0
C359 C 0.98998 0.14669 0.45523 0.0
C360 C 0.98812 0.11879 0.46862 0.0
C361 C 0.99115 0.08929 0.45803 0.0
C362 C 0.99528 0.08735 0.43368 0.0
C363 C 0.99741 0.11462 0.41986 0.0
C364 C 0.9949 0.14455 0.43062 0.0
O365 O 0.96274 0.22108 0.53189 0.0
O366 O 0.97304 0.25733 0.50485 0.0
O367 O 0.91178 0.2489 0.52908 0.0
O368 O 0.93118 0.26212 0.50154 0.0
C369 C 0.91665 0.27134 0.51438 0.0
O370 O 0.93748 0.21544 0.45817 0.0
O371 O 0.92449 0.18482 0.48825 0.0
O372 O 0.99101 0.2034 0.45598 0.0
O373 O 0.9757 0.17948 0.48526 0.0
H374 H 0.98546 0.12008 0.48772 0.0
H375 H 0.99786 0.06436 0.42565 0.0
H376 H 0.99717 0.16573 0.42011 0.0
O377 O 0.84385 0.56585 0.54716 0.0
Tb378 Tb 0.83439 0.54017 0.51523 0.0
Eu379 Eu 0.79865 0.52683 0.47347 0.0
C380 C 0.83429 0.59046 0.55536 0.0
O381 O 0.82009 0.60187 0.54254 0.0
C382 C 0.79649 0.50663 0.52799 0.0
O383 O 0.7898 0.48876 0.44814 0.0
C384 C 0.77604 0.57518 0.46954 0.0
C385 C 0.79056 0.49337 0.42496 0.0
O386 O 0.79614 0.52096 0.4167 0.0
C387 C 0.83919 0.5588 0.46153 0.0
C388 C 0.77357 0.60602 0.45724 0.0
C389 C 0.77418 0.63337 0.47142 0.0
C390 C 0.76947 0.66284 0.4618 0.0
C391 C 0.76467 0.6654 0.43765 0.0
C392 C 0.76409 0.63868 0.42294 0.0
C393 C 0.76846 0.60873 0.43272 0.0
O394 O 0.80659 0.53235 0.53207 0.0
O395 O 0.79402 0.49649 0.50602 0.0
O396 O 0.85806 0.50895 0.5251 0.0
O397 O 0.83702 0.49222 0.50061 0.0
C398 C 0.85271 0.48504 0.51204 0.0
O399 O 0.82708 0.53607 0.45618 0.0
O400 O 0.84113 0.56928 0.48375 0.0
O401 O 0.77386 0.54921 0.45695 0.0
O402 O 0.78962 0.57317 0.48594 0.0
H403 H 0.77729 0.63153 0.4904 0.0
H404 H 0.76081 0.68833 0.43037 0.0
H405 H 0.76735 0.58786 0.42156 0.0
O406 O 0.9222 0.56145 0.23595 0.0
Tb407 Tb 0.9319 0.53858 0.26893 0.0
Eu408 Eu 0.96692 0.52034 0.31284 0.0
C409 C 0.9297 0.58838 0.22864 0.0
O410 O 0.94179 0.60325 0.24274 0.0
C411 C 0.97126 0.50863 0.25614 0.0
O412 O 0.97445 0.47398 0.3294 0.0
C413 C 0.99039 0.56486 0.32569 0.0
C414 C 0.96198 0.45093 0.32736 0.0
O415 O 0.94542 0.45664 0.31708 0.0
C416 C 0.92743 0.55488 0.3227 0.0
C417 C 0.99061 0.59646 0.33746 0.0
C418 C 0.98905 0.62355 0.32303 0.0
C419 C 0.99031 0.65397 0.33286 0.0
C420 C 0.99257 0.65726 0.35762 0.0
C421 C 0.99524 0.63085 0.3723 0.0
C422 C 0.99432 0.60028 0.36223 0.0
O423 O 0.96012 0.53336 0.2524 0.0
O424 O 0.97356 0.49683 0.27769 0.0
O425 O 0.90639 0.50831 0.26732 0.0
O426 O 0.93318 0.488 0.27676 0.0
C427 C 0.91511 0.48225 0.27324 0.0
O428 O 0.93731 0.52907 0.32677 0.0
O429 O 0.92685 0.56743 0.30104 0.0
O430 O 0.98695 0.53987 0.33905 0.0
O431 O 0.98237 0.56321 0.30432 0.0
H432 H 0.98785 0.62092 0.3038 0.0
H433 H 0.9934 0.68067 0.36548 0.0
H434 H 0.99683 0.57983 0.37348 0.0
O435 O 0.84151 0.18533 0.23839 0.0
Tb436 Tb 0.83405 0.21109 0.27114 0.0
Eu437 Eu 0.7978 0.22595 0.31514 0.0
C438 C 0.82943 0.16407 0.22992 0.0
O439 O 0.81437 0.15671 0.24288 0.0
C440 C 0.79574 0.24484 0.25978 0.0
O441 O 0.78998 0.27011 0.33474 0.0
C442 C 0.77285 0.18135 0.32188 0.0
C443 C 0.80129 0.29458 0.33185 0.0
O444 O 0.81681 0.29133 0.31884 0.0
C445 C 0.83833 0.19205 0.32525 0.0
C446 C 0.77003 0.14891 0.33157 0.0
C447 C 0.7706 0.1233 0.31553 0.0
C448 C 0.76532 0.093 0.32292 0.0
C449 C 0.75976 0.08775 0.34652 0.0
C450 C 0.75925 0.11255 0.36305 0.0
C451 C 0.76442 0.14333 0.35562 0.0
O452 O 0.80573 0.21906 0.25551 0.0
O453 O 0.79328 0.25486 0.28177 0.0
O454 O 0.85975 0.24041 0.26643 0.0
O455 O 0.83441 0.2612 0.28046 0.0
C456 C 0.85208 0.26647 0.27435 0.0
O457 O 0.82628 0.2144 0.33157 0.0
O458 O 0.83993 0.18205 0.3029 0.0
O459 O 0.7753 0.20484 0.33703 0.0
O460 O 0.78313 0.18418 0.30216 0.0
H461 H 0.77424 0.12706 0.29688 0.0
H462 H 0.75551 0.06414 0.35199 0.0
H463 H 0.76339 0.16276 0.36819 0.0
O464 O 0.59654 0.31094 0.48624 0.0
Tb465 Tb 0.58754 0.29111 0.52059 0.0
Eu466 Eu 0.55198 0.27832 0.56412 0.0
C467 C 0.59005 0.33856 0.47888 0.0
O468 O 0.57968 0.35566 0.49362 0.0
C469 C 0.54835 0.25988 0.50881 0.0
O470 O 0.54801 0.23493 0.58622 0.0
C471 C 0.52782 0.32292 0.57431 0.0
C472 C 0.5635 0.21831 0.59055 0.0
O473 O 0.57991 0.22746 0.58144 0.0
C474 C 0.59132 0.31527 0.57292 0.0
C475 C 0.52775 0.35487 0.58553 0.0
C476 C 0.53433 0.381 0.57229 0.0
C477 C 0.53217 0.412 0.58084 0.0
C478 C 0.52434 0.41663 0.60366 0.0
C479 C 0.51829 0.39106 0.61761 0.0
C480 C 0.51972 0.3601 0.60843 0.0
O481 O 0.55932 0.28456 0.50423 0.0
O482 O 0.5456 0.25025 0.53089 0.0
O483 O 0.6125 0.2595 0.51952 0.0
O484 O 0.58588 0.24175 0.53218 0.0
C485 C 0.60367 0.23465 0.52779 0.0
O486 O 0.58091 0.29067 0.57857 0.0
O487 O 0.5932 0.32404 0.55035 0.0
O488 O 0.53054 0.29832 0.58832 0.0
O489 O 0.53648 0.32026 0.55342 0.0
H490 H 0.54065 0.37732 0.55484 0.0
H491 H 0.52207 0.44038 0.61038 0.0
H492 H 0.51431 0.34041 0.61883 0.0
O493 O 0.67057 0.93435 0.49119 0.0
Tb494 Tb 0.67944 0.95927 0.52369 0.0
Eu495 Eu 0.71663 0.97441 0.56426 0.0
C496 C 0.68158 0.91144 0.483 0.0
O497 O 0.69634 0.90263 0.49602 0.0
C498 C 0.717 0.99327 0.50927 0.0
O499 O 0.72013 0.01798 0.58625 0.0
C500 C 0.74402 0.93379 0.5703 0.0
C501 C 0.70432 0.03284 0.59207 0.0
O502 O 0.6878 0.02173 0.58457 0.0
C503 C 0.67758 0.93585 0.57694 0.0
C504 C 0.74773 0.90202 0.58063 0.0
C505 C 0.74933 0.87648 0.56471 0.0
C506 C 0.75312 0.84603 0.57306 0.0
C507 C 0.75562 0.84078 0.59748 0.0
C508 C 0.75489 0.86589 0.61374 0.0
C509 C 0.75081 0.8967 0.60541 0.0
O510 O 0.70683 0.96744 0.50569 0.0
O511 O 0.71974 0.00397 0.53104 0.0
O512 O 0.65414 0.98994 0.52049 0.0
O513 O 0.67989 0.0087 0.53511 0.0
C514 C 0.66227 0.01515 0.52932 0.0
O515 O 0.69002 0.95777 0.58277 0.0
O516 O 0.67442 0.92782 0.5544 0.0
O517 O 0.74123 0.95773 0.58494 0.0
O518 O 0.73295 0.93459 0.55115 0.0
H519 H 0.74766 0.8802 0.54561 0.0
H520 H 0.75896 0.81714 0.60379 0.0
H521 H 0.75041 0.9162 0.61796 0.0
O522 O 0.59347 0.93577 0.80057 0.0
Tb523 Tb 0.58509 0.95909 0.7671 0.0
Eu524 Eu 0.54792 0.96881 0.72325 0.0
C525 C 0.5825 0.91312 0.8093 0.0
O526 O 0.56794 0.90331 0.79634 0.0
C527 C 0.546 0.99056 0.77801 0.0
O528 O 0.54651 0.01283 0.70146 0.0
C529 C 0.52018 0.93039 0.71264 0.0
C530 C 0.56267 0.02572 0.69457 0.0
O531 O 0.57901 0.01259 0.70067 0.0
C532 C 0.58888 0.93136 0.71477 0.0
C533 C 0.51772 0.89902 0.70086 0.0
C534 C 0.51879 0.87172 0.7151 0.0
C535 C 0.51654 0.84153 0.70519 0.0
C536 C 0.51315 0.83862 0.68062 0.0
C537 C 0.51103 0.86533 0.66612 0.0
C538 C 0.51335 0.89573 0.67619 0.0
O539 O 0.5568 0.96591 0.78291 0.0
O540 O 0.543 -0.00076 0.75577 0.0
O541 O 0.60912 0.99147 0.77343 0.0
O542 O 0.58546 0.00728 0.75264 0.0
C543 C 0.60206 0.01525 0.76149 0.0
O544 O 0.57499 0.94975 0.70718 0.0
O545 O 0.5926 0.92681 0.73775 0.0
O546 O 0.52481 0.95461 0.69907 0.0
O547 O 0.52913 0.93046 0.73348 0.0
H548 H 0.52082 0.87401 0.73424 0.0
H549 H 0.51151 0.81536 0.67271 0.0
H550 H 0.51156 0.91645 0.66502 0.0
O551 O 0.66819 0.31169 0.79989 0.0
Tb552 Tb 0.67814 0.28982 0.76668 0.0
Eu553 Eu 0.71706 0.28218 0.72603 0.0
C554 C 0.67541 0.33881 0.80726 0.0
O555 O 0.68729 0.35405 0.79314 0.0
C556 C 0.71707 0.26025 0.78059 0.0
O557 O 0.71966 0.23916 0.70325 0.0
C558 C 0.74504 0.3215 0.7191 0.0
C559 C 0.70378 0.22589 0.69576 0.0
O560 O 0.68721 0.23803 0.702 0.0
C561 C 0.67618 0.31835 0.7143 0.0
C562 C 0.74875 0.35281 0.70789 0.0
C563 C 0.74994 0.37928 0.72299 0.0
C564 C 0.75365 0.4095 0.71384 0.0
C565 C 0.7564 0.41317 0.68921 0.0
C566 C 0.75615 0.38711 0.67381 0.0
C567 C 0.7522 0.35675 0.68307 0.0
O568 O 0.70571 0.28446 0.78474 0.0
O569 O 0.72069 0.25132 0.75858 0.0
O570 O 0.65395 0.25741 0.77136 0.0
O571 O 0.67878 0.24112 0.75312 0.0
C572 C 0.66174 0.23328 0.76061 0.0
O573 O 0.69089 0.30109 0.70766 0.0
O574 O 0.67122 0.32205 0.737 0.0
O575 O 0.74183 0.29713 0.70501 0.0
O576 O 0.7342 0.32156 0.73845 0.0
H577 H 0.74842 0.37619 0.74214 0.0
H578 H 0.7591 0.43647 0.68185 0.0
H579 H 0.75213 0.33653 0.67117 0.0
O580 O 0.41812 0.68812 0.55087 0.0
Tb581 Tb 0.42723 0.71179 0.51811 0.0
Eu582 Eu 0.46503 0.71149 0.47315 0.0
C583 C 0.42625 0.66169 0.5581 0.0
O584 O 0.43882 0.64783 0.5441 0.0
C585 C 0.46685 0.73964 0.52547 0.0
O586 O 0.46586 0.75113 0.44684 0.0
C587 C 0.49425 0.67409 0.46863 0.0
C588 C 0.44978 0.76589 0.44209 0.0
O589 O 0.43391 0.75636 0.45243 0.0
C590 C 0.42142 0.67976 0.46641 0.0
C591 C 0.50053 0.64245 0.46036 0.0
C592 C 0.5088 0.62235 0.47747 0.0
C593 C 0.5153 0.59213 0.47123 0.0
C594 C 0.51346 0.58206 0.44747 0.0
C595 C 0.50566 0.60179 0.4298 0.0
C596 C 0.49929 0.63232 0.43625 0.0
O597 O 0.45656 0.71473 0.53095 0.0
O598 O 0.46932 0.74694 0.5029 0.0
O599 O 0.40702 0.74727 0.53109 0.0
O600 O 0.42582 0.75938 0.50263 0.0
C601 C 0.41214 0.76961 0.51644 0.0
O602 O 0.43838 0.68853 0.45842 0.0
O603 O 0.41548 0.68345 0.48876 0.0
O604 O 0.48971 0.69555 0.45255 0.0
O605 O 0.48338 0.67494 0.48792 0.0
H606 H 0.51037 0.6305 0.49577 0.0
H607 H 0.51818 0.55852 0.44257 0.0
H608 H 0.49331 0.64778 0.42271 0.0
O609 O 0.33579 0.06442 0.54963 0.0
Tb610 Tb 0.32781 0.0365 0.51814 0.0
Eu611 Eu 0.29478 0.02125 0.47462 0.0
C612 C 0.323 0.08311 0.55971 0.0
O613 O 0.30642 0.08708 0.54896 0.0
C614 C 0.29059 -0.0007 0.52819 0.0
O615 O 0.28553 0.98587 0.44738 0.0
C616 C 0.27268 0.07045 0.47252 0.0
C617 C 0.28955 0.99079 0.42477 0.0
O618 O 0.29871 0.01664 0.41854 0.0
C619 C 0.33466 0.05563 0.46498 0.0
C620 C 0.27152 0.10274 0.46229 0.0
C621 C 0.27006 0.12791 0.47849 0.0
C622 C 0.26839 0.15897 0.47035 0.0
C623 C 0.26815 0.16515 0.44585 0.0
C624 C 0.26913 0.14056 0.42906 0.0
C625 C 0.27072 0.10904 0.43735 0.0
O626 O 0.29955 0.02592 0.53303 0.0
O627 O 0.28998 0.98884 0.5061 0.0
O628 O 0.35134 0.00605 0.52993 0.0
O629 O 0.33267 0.98968 0.50248 0.0
C630 C 0.34758 0.9827 0.51549 0.0
O631 O 0.32351 0.03204 0.45874 0.0
O632 O 0.33533 0.06613 0.48727 0.0
O633 O 0.27101 0.04628 0.45791 0.0
O634 O 0.2853 0.06591 0.48978 0.0
H635 H 0.2701 0.12334 0.4976 0.0
H636 H 0.26622 0.18934 0.43986 0.0
H637 H 0.27129 0.08981 0.42457 0.0
O638 O 0.42074 0.05834 0.23822 0.0
Tb639 Tb 0.42779 0.0341 0.27175 0.0
Eu640 Eu 0.4637 0.024 0.31808 0.0
C641 C 0.43293 0.07854 0.22867 0.0
O642 O 0.44853 0.08605 0.24053 0.0
C643 C 0.46688 0.00311 0.26385 0.0
O644 O 0.46567 0.98092 0.341 0.0
C645 C 0.49108 0.06425 0.32603 0.0
C646 C 0.45009 0.96379 0.34309 0.0
O647 O 0.43435 0.97323 0.33236 0.0
C648 C 0.42159 0.05926 0.32482 0.0
C649 C 0.4946 0.09649 0.33585 0.0
C650 C 0.49426 0.12235 0.32002 0.0
C651 C 0.49936 0.15277 0.32767 0.0
C652 C 0.5046 0.15743 0.35155 0.0
C653 C 0.50494 0.13235 0.36781 0.0
C654 C 0.49998 0.10168 0.36002 0.0
O655 O 0.45735 0.02933 0.25987 0.0
O656 O 0.46881 0.99284 0.28586 0.0
O657 O 0.40468 0.00163 0.26172 0.0
O658 O 0.42717 0.98493 0.28402 0.0
C659 C 0.41129 0.97721 0.27326 0.0
O660 O 0.43609 0.04272 0.33323 0.0
O661 O 0.41802 0.06333 0.30174 0.0
O662 O 0.48688 0.04127 0.34101 0.0
O663 O 0.48149 0.06253 0.3057 0.0
H664 H 0.49032 0.11876 0.30146 0.0
H665 H 0.50913 0.18067 0.35754 0.0
H666 H 0.50076 0.08209 0.37246 0.0
O667 O 0.33794 0.67963 0.23835 0.0
Tb668 Tb 0.33025 0.70631 0.27059 0.0
Eu669 Eu 0.2964 0.72404 0.31533 0.0
C670 C 0.32545 0.6595 0.22926 0.0
O671 O 0.30975 0.6534 0.24135 0.0
C672 C 0.29139 0.73896 0.25936 0.0
O673 O 0.2889 0.76788 0.33581 0.0
C674 C 0.27256 0.67842 0.32428 0.0
C675 C 0.29427 0.79533 0.32714 0.0
O676 O 0.30434 0.79622 0.30736 0.0
C677 C 0.33611 0.6887 0.32431 0.0
C678 C 0.2705 0.64638 0.33498 0.0
C679 C 0.27079 0.62008 0.31956 0.0
C680 C 0.26602 0.58996 0.32795 0.0
C681 C 0.26152 0.58565 0.35203 0.0
C682 C 0.26118 0.6112 0.36787 0.0
C683 C 0.26565 0.64177 0.35939 0.0
O684 O 0.30182 0.7137 0.25499 0.0
O685 O 0.28989 0.75025 0.28112 0.0
O686 O 0.35529 0.7362 0.26326 0.0
O687 O 0.33145 0.75592 0.28158 0.0
C688 C 0.34844 0.76177 0.27306 0.0
O689 O 0.32561 0.71333 0.32996 0.0
O690 O 0.33665 0.67742 0.30225 0.0
O691 O 0.27484 0.7028 0.33862 0.0
O692 O 0.2824 0.68073 0.3042 0.0
H693 H 0.27359 0.6232 0.30063 0.0
H694 H 0.25765 0.56223 0.35836 0.0
H695 H 0.26465 0.66176 0.37145 0.0
O696 O 0.59332 0.81726 0.99047 0.0
Tb697 Tb 0.5843 0.79201 0.02283 0.0
Eu698 Eu 0.54733 0.77886 0.0647 0.0
C699 C 0.58241 0.84016 0.982 0.0
O700 O 0.56764 0.84931 0.99483 0.0
C701 C 0.54595 0.76056 1.00934 0.0
O702 O 0.5384 0.7353 0.08415 0.0
C703 C 0.52243 0.82352 0.07144 0.0
C704 C 0.54084 0.73244 0.10729 0.0
O705 O 0.54847 0.75587 0.11946 0.0
C706 C 0.58777 0.81217 0.07658 0.0
C707 C 0.51911 0.85507 0.08243 0.0
C708 C 0.51838 0.88139 0.06716 0.0
C709 C 0.51244 0.91087 0.07565 0.0
C710 C 0.50755 0.91453 0.09967 0.0
C711 C 0.50841 0.88895 0.11551 0.0
C712 C 0.51421 0.85901 0.10691 0.0
O713 O 0.55641 0.78598 1.0058 0.0
O714 O 0.54303 0.75012 0.03112 0.0
O715 O 0.60863 0.76022 1.01688 0.0
O716 O 0.58419 0.74304 0.03552 0.0
C717 C 0.60113 0.73571 0.02748 0.0
O718 O 0.5754 0.79004 0.08246 0.0
O719 O 0.59025 0.82156 0.05421 0.0
O720 O 0.52395 0.79885 0.08562 0.0
O721 O 0.5337 0.8221 0.05248 0.0
H722 H 0.52145 0.8787 0.04825 0.0
H723 H 0.50279 0.93747 0.10604 0.0
H724 H 0.5142 0.83893 0.11894 0.0
O725 O 0.66798 0.4404 0.98661 0.0
Tb726 Tb 0.67696 0.46163 0.02052 0.0
Eu727 Eu 0.71298 0.47344 0.0643 0.0
C728 C 0.67514 0.4132 0.97935 0.0
O729 O 0.68655 0.39752 0.99381 0.0
C730 C 0.71543 0.49355 1.00949 0.0
O731 O 0.71423 0.51759 0.08617 0.0
C732 C 0.74156 0.43582 0.07287 0.0
C733 C 0.69805 0.5304 0.09319 0.0
O734 O 0.68176 0.51678 0.08751 0.0
C735 C 0.6728 0.43383 0.07253 0.0
C736 C 0.7461 0.40418 0.08311 0.0
C737 C 0.74688 0.37813 0.0675 0.0
C738 C 0.75289 0.34835 0.0755 0.0
C739 C 0.75807 0.34457 0.0995 0.0
C740 C 0.75723 0.36983 0.1156 0.0
C741 C 0.75122 0.39984 0.10746 0.0
O742 O 0.70534 0.46793 1.00503 0.0
O743 O 0.7173 0.50373 0.03155 0.0
O744 O 0.65308 0.49426 1.01457 0.0
O745 O 0.67679 0.50954 0.03549 0.0
C746 C 0.66024 0.51778 0.02669 0.0
O747 O 0.68625 0.45299 0.08036 0.0
O748 O 0.66942 0.42902 0.04951 0.0
O749 O 0.73661 0.45876 0.08753 0.0
O750 O 0.73195 0.43619 0.05251 0.0
H751 H 0.74297 0.38105 0.04887 0.0
H752 H 0.76322 0.32184 0.10576 0.0
H753 H 0.751 0.4196 0.11979 0.0
O754 O 0.59202 0.43376 0.29739 0.0
Tb755 Tb 0.58176 0.4579 0.26519 0.0
Eu756 Eu 0.54612 0.47361 0.22387 0.0
C757 C 0.58308 0.40879 0.30606 0.0
O758 O 0.56898 0.3963 0.29365 0.0
C759 C 0.54321 0.48885 0.27948 0.0
O760 O 0.53522 0.51575 0.20414 0.0
C761 C 0.52408 0.42495 0.21724 0.0
C762 C 0.53814 0.51854 0.18109 0.0
O763 O 0.54675 0.49556 0.1695 0.0
C764 C 0.58575 0.44149 0.21146 0.0
C765 C 0.52356 0.39224 0.20758 0.0
C766 C 0.52246 0.36737 0.22412 0.0
C767 C 0.52096 0.3361 0.21642 0.0
C768 C 0.52059 0.32929 0.19202 0.0
C769 C 0.52108 0.35351 0.17489 0.0
C770 C 0.52247 0.38527 0.18276 0.0
O771 O 0.55405 0.46374 0.28292 0.0
O772 O 0.54098 0.50062 0.25794 0.0
O773 O 0.60676 0.48845 0.27044 0.0
O774 O 0.58186 0.50761 0.254 0.0
C775 C 0.59923 0.51383 0.26117 0.0
O776 O 0.57516 0.46664 0.20778 0.0
O777 O 0.58705 0.42905 0.23312 0.0
O778 O 0.52497 0.4487 0.2021 0.0
O779 O 0.53418 0.42955 0.23692 0.0
H780 H 0.52242 0.37232 0.24317 0.0
H781 H 0.51873 0.30491 0.18642 0.0
H782 H 0.52254 0.40422 0.16972 0.0
O783 O 0.67015 0.81011 0.30384 0.0
Tb784 Tb 0.67805 0.78614 0.27056 0.0
Eu785 Eu 0.71535 0.78071 0.22556 0.0
C786 C 0.68088 0.83357 0.31174 0.0
O787 O 0.69503 0.84355 0.2982 0.0
C788 C 0.71752 0.75661 0.27942 0.0
O789 O 0.71573 0.73835 0.20176 0.0
C790 C 0.74402 0.81819 0.21713 0.0
C791 C 0.69937 0.72611 0.19478 0.0
O792 O 0.68323 0.73912 0.20176 0.0
C793 C 0.6731 0.81633 0.21861 0.0
C794 C 0.74814 0.84958 0.2062 0.0
C795 C 0.74989 0.87589 0.22143 0.0
C796 C 0.75423 0.90596 0.21238 0.0
C797 C 0.75704 0.90961 0.18776 0.0
C798 C 0.75616 0.88372 0.17224 0.0
C799 C 0.75156 0.85356 0.18138 0.0
O800 O 0.7071 0.78159 0.28438 0.0
O801 O 0.72011 0.74817 0.25707 0.0
O802 O 0.65519 0.75271 0.2794 0.0
O803 O 0.67756 0.73793 0.25611 0.0
C804 C 0.66175 0.72931 0.26665 0.0
O805 O 0.68872 0.80285 0.21024 0.0
O806 O 0.66817 0.81666 0.24146 0.0
O807 O 0.73933 0.7947 0.20284 0.0
O808 O 0.73423 0.8183 0.23733 0.0
H809 H 0.74829 0.8728 0.24057 0.0
H810 H 0.76018 0.93281 0.18047 0.0
H811 H 0.75104 0.83346 0.16938 0.0
O812 O 0.42703 0.17825 0.04867 0.0
Tb813 Tb 0.43505 0.20686 1.01763 0.0
Eu814 Eu 0.46786 0.22514 0.97318 0.0
C815 C 0.43991 0.15929 0.05829 0.0
O816 O 0.45635 0.15549 0.04722 0.0
C817 C 0.47285 0.24286 0.02809 0.0
O818 O 0.47283 0.26779 0.9506 0.0
C819 C 0.49254 0.18063 0.96457 0.0
C820 C 0.46402 0.29391 0.95681 0.0
O821 O 0.45358 0.29411 0.97632 0.0
C822 C 0.42864 0.18762 0.96443 0.0
C823 C 0.49401 0.1486 0.95367 0.0
C824 C 0.49359 0.12223 0.96895 0.0
C825 C 0.49583 0.09146 0.96004 0.0
C826 C 0.49818 0.08709 0.93539 0.0
C827 C 0.49962 0.11289 0.91987 0.0
C828 C 0.49755 0.14383 0.92896 0.0
O829 O 0.46345 0.21656 0.0326 0.0
O830 O 0.47367 0.25404 1.00625 0.0
O831 O 0.41205 0.23819 0.03008 0.0
O832 O 0.42996 0.25342 1.00168 0.0
C833 C 0.41556 0.26119 1.01522 0.0
O834 O 0.43889 0.21255 0.95879 0.0
O835 O 0.42798 0.17695 0.98667 0.0
O836 O 0.4901 0.20504 0.95029 0.0
O837 O 0.48275 0.18286 0.9847 0.0
H838 H 0.49234 0.12583 0.98808 0.0
H839 H 0.49973 0.06341 0.9282 0.0
H840 H 0.49902 0.16384 0.91701 0.0
O841 O 0.33889 0.5568 0.04922 0.0
Tb842 Tb 0.33129 0.52945 1.01724 0.0
Eu843 Eu 0.29754 0.51662 0.97324 0.0
C844 C 0.32591 0.57531 0.05912 0.0
O845 O 0.30954 0.57966 0.04798 0.0
C846 C 0.2932 0.49467 0.02674 0.0
O847 O 0.28968 0.4827 0.94444 0.0
C848 C 0.27551 0.56571 0.96978 0.0
C849 C 0.29159 0.49062 0.92188 0.0
O850 O 0.29829 0.5187 0.9163 0.0
C851 C 0.33791 0.54989 0.96409 0.0
C852 C 0.27336 0.59589 0.9565 0.0
C853 C 0.27328 0.62381 0.97002 0.0
C854 C 0.26909 0.65285 0.95934 0.0
C855 C 0.26563 0.6544 0.93479 0.0
C856 C 0.26565 0.62708 0.92073 0.0
C857 C 0.26942 0.59752 0.93157 0.0
O858 O 0.30262 0.52083 0.03149 0.0
O859 O 0.29224 0.48433 1.00467 0.0
O860 O 0.35416 0.4976 0.02914 0.0
O861 O 0.33509 0.48211 1.00189 0.0
C862 C 0.34981 0.47425 1.01494 0.0
O863 O 0.32635 0.52699 0.95746 0.0
O864 O 0.33917 0.55929 0.98663 0.0
O865 O 0.27226 0.53923 0.95818 0.0
O866 O 0.28967 0.56376 0.98539 0.0
H867 H 0.27542 0.62272 0.98925 0.0
H868 H 0.26218 0.67702 0.92668 0.0
H869 H 0.26881 0.57618 0.92088 0.0
O870 O 0.41833 0.55892 0.73653 0.0
Tb871 Tb 0.42771 0.53752 0.77008 0.0
Eu872 Eu 0.46544 0.53355 0.81317 0.0
C873 C 0.42496 0.58662 0.72965 0.0
O874 O 0.43593 0.60272 0.74439 0.0
C875 C 0.46728 0.51035 0.75923 0.0
O876 O 0.46949 0.49189 0.8369 0.0
C877 C 0.49282 0.5742 0.81938 0.0
C878 C 0.45439 0.47513 0.84263 0.0
O879 O 0.43752 0.48339 0.83429 0.0
C880 C 0.42279 0.56535 0.82244 0.0
C881 C 0.49736 0.6059 0.82934 0.0
C882 C 0.49878 0.63121 0.81322 0.0
C883 C 0.50526 0.66076 0.82078 0.0
C884 C 0.51027 0.66555 0.84464 0.0
C885 C 0.50875 0.64101 0.86133 0.0
C886 C 0.50223 0.61097 0.85372 0.0
O887 O 0.45629 0.53484 0.75471 0.0
O888 O 0.47005 0.50146 0.78145 0.0
O889 O 0.40493 0.50342 0.76272 0.0
O890 O 0.42879 0.48898 0.78378 0.0
C891 C 0.41257 0.47997 0.77442 0.0
O892 O 0.43829 0.55099 0.83027 0.0
O893 O 0.41819 0.56782 0.79953 0.0
O894 O 0.48965 0.55072 0.83428 0.0
O895 O 0.48188 0.57331 0.80008 0.0
H896 H 0.49555 0.62775 0.79441 0.0
H897 H 0.51532 0.68866 0.85027 0.0
H898 H 0.50154 0.5917 0.86646 0.0
O899 O 0.34381 0.1818 0.74042 0.0
Tb900 Tb 0.33562 0.20667 0.77323 0.0
Eu901 Eu 0.30154 0.22415 0.81701 0.0
C902 C 0.33183 0.16154 0.73049 0.0
O903 O 0.31585 0.15451 0.74169 0.0
C904 C 0.29733 0.24096 0.7614 0.0
O905 O 0.29364 0.26949 0.83461 0.0
C906 C 0.27744 0.17941 0.8268 0.0
C907 C 0.30681 0.29153 0.83546 0.0
O908 O 0.32427 0.28475 0.82841 0.0
C909 C 0.34078 0.18843 0.82664 0.0
C910 C 0.27635 0.14674 0.83654 0.0
C911 C 0.27961 0.12107 0.82109 0.0
C912 C 0.27571 0.08997 0.82826 0.0
C913 C 0.2694 0.08444 0.85165 0.0
C914 C 0.26651 0.10941 0.86766 0.0
C915 C 0.26986 0.14071 0.86009 0.0
O916 O 0.3077 0.21568 0.75674 0.0
O917 O 0.29549 0.25146 0.78335 0.0
O918 O 0.36071 0.23702 0.76745 0.0
O919 O 0.33635 0.25578 0.78528 0.0
C920 C 0.35348 0.26213 0.77753 0.0
O921 O 0.33081 0.21392 0.83145 0.0
O922 O 0.34135 0.17684 0.80467 0.0
O923 O 0.28114 0.20268 0.84176 0.0
O924 O 0.28562 0.18297 0.80566 0.0
H925 H 0.2845 0.12532 0.80299 0.0
H926 H 0.26576 0.06065 0.85727 0.0
H927 H 0.26678 0.16013 0.87214 0.0
H928 H 0.0324 0.5873 0.9939 0.0
H929 H 0.98257 0.53604 0.96978 0.0
H930 H 0.04204 0.54226 0.01844 0.0
H931 H 0.99134 0.49157 0.99534 0.0
H932 H 0.0175 0.40648 0.02644 0.0
H933 H 0.01333 0.45023 0.9991 0.0
H934 H 0.03402 0.51478 0.05335 0.0
H935 H 0.04002 0.47048 0.07994 0.0
C936 C 0.02341 0.56641 0.99426 0.0
C937 C 1.00677 0.56481 0.98028 0.0
C938 C 0.02885 0.5407 1.00829 0.0
C939 C 0.01752 0.51321 1.00881 0.0
C940 C 1.00067 0.51203 0.99493 0.0
C941 C 0.99547 0.53751 0.98056 0.0
C942 C 0.02184 0.4298 0.03231 0.0
C943 C 0.02898 0.43494 0.05552 0.0
C944 C 0.01905 0.45505 1.01675 0.0
C945 C 0.02289 0.48613 0.0242 0.0
C946 C 0.03093 0.49115 0.04696 0.0
C947 C 0.03413 0.46578 0.06236 0.0
H948 H 0.23719 0.68889 0.96097 0.0
H949 H 0.29388 0.67946 0.99125 0.0
H950 H 0.23099 0.73426 0.98697 0.0
H951 H 0.28774 0.72536 1.01711 0.0
H952 H 0.27244 0.83077 0.03714 0.0
H953 H 0.2791 0.7875 1.00909 0.0
H954 H 0.22949 0.73721 0.0352 0.0
H955 H 0.22306 0.78018 0.06354 0.0
C956 C 0.24837 0.69688 0.97301 0.0
C957 C 0.26602 0.68102 0.9742 0.0
C958 C 0.2448 0.72258 0.98788 0.0
C959 C 0.25893 0.73303 1.00385 0.0
C960 C 0.27674 0.71764 1.00473 0.0
C961 C 0.2802 0.6915 0.99012 0.0
C962 C 0.26292 0.81053 0.03664 0.0
C963 C 0.24723 0.80854 0.05223 0.0
C964 C 0.26679 0.78586 0.02082 0.0
C965 C 0.25478 0.7593 0.02018 0.0
C966 C 0.23884 0.75766 0.03542 0.0
C967 C 0.2352 0.78203 0.05154 0.0
H968 H 0.97079 0.66544 0.29097 0.0
H969 H 0.01312 0.706 0.33858 0.0
H970 H 0.97611 0.70842 0.26287 0.0
H971 H 0.01699 0.75028 0.31175 0.0
H972 H 0.03764 0.80478 0.2476 0.0
H973 H 0.0315 0.76138 0.27526 0.0
H974 H 0.97158 0.76228 0.255 0.0
H975 H 0.9782 0.80443 0.22637 0.0
C976 C 0.98103 0.6837 0.29561 0.0
C977 C 0.99156 0.68208 0.31703 0.0
C978 C 0.9839 0.7086 0.27963 0.0
C979 C 0.99713 0.73273 0.28492 0.0
C980 C 1.00703 0.73177 0.3068 0.0
C981 C 1.00446 0.7066 0.3225 0.0
C982 C 0.02323 0.79544 0.24911 0.0
C983 C 0.00839 0.80759 0.23499 0.0
C984 C 0.01962 0.77083 0.26505 0.0
C985 C 1.00098 0.75845 0.26754 0.0
C986 C 0.98614 0.77084 0.25331 0.0
C987 C 0.98986 0.79503 0.23702 0.0
H988 H 0.22655 0.45933 0.21956 0.0
H989 H 0.27543 0.41292 0.25138 0.0
H990 H 0.23119 0.50461 0.24633 0.0
H991 H 0.28027 0.45845 0.27792 0.0
H992 H 0.29267 0.56532 0.29751 0.0
H993 H 0.28847 0.52001 0.2704 0.0
H994 H 0.22976 0.51053 0.29366 0.0
H995 H 0.23403 0.55526 0.32088 0.0
C996 C 0.23823 0.45892 0.23234 0.0
C997 C 0.25058 0.4328 0.23366 0.0
C998 C 0.24088 0.48466 0.24757 0.0
C999 C 0.25612 0.48485 0.26398 0.0
C1000 C 0.26852 0.45879 0.26523 0.0
C1001 C 0.26566 0.43278 0.25029 0.0
C1002 C 0.27892 0.55345 0.2967 0.0
C1003 C 0.26369 0.5634 0.31121 0.0
C1004 C 0.27655 0.52762 0.28139 0.0
C1005 C 0.25881 0.512 0.2801 0.0
C1006 C 0.24352 0.52236 0.29434 0.0
C1007 C 0.24599 0.54772 0.30991 0.0
H1008 H 0.76519 0.34902 0.02892 0.0
H1009 H 0.74432 0.28632 0.08419 0.0
H1010 H 0.76855 0.30436 1.00195 0.0
H1011 H 0.74944 0.24142 0.05808 0.0
H1012 H 0.74227 0.17027 0.99865 0.0
H1013 H 0.73741 0.21572 0.02467 0.0
H1014 H 0.78781 0.26019 0.99451 0.0
H1015 H 0.79174 0.21524 0.96743 0.0
C1016 C 0.76127 0.32574 0.03532 0.0
C1017 C 0.75447 0.3213 0.05875 0.0
C1018 C 0.76355 0.30001 0.01998 0.0
C1019 C 0.75942 0.26918 0.02785 0.0
C1020 C 0.75254 0.26481 0.05125 0.0
C1021 C 0.74988 0.29057 0.06639 0.0
C1022 C 0.7523 0.18981 0.9978 0.0
C1023 C 0.76741 0.1895 0.98135 0.0
C1024 C 0.74962 0.21577 1.01273 0.0
C1025 C 0.76226 0.24166 1.01179 0.0
C1026 C 0.77759 0.24097 0.99543 0.0
C1027 C 0.78001 0.21521 0.98012 0.0
H1028 H 0.98015 0.21825 0.83347 0.0
H1029 H 1.00193 0.15504 0.77906 0.0
H1030 H 0.98545 0.26292 0.80697 0.0
H1031 H 1.00549 0.19918 0.7519 0.0
H1032 H 0.03445 0.28527 0.72111 0.0
H1033 H 0.02696 0.2411 0.74745 0.0
H1034 H 0.9765 0.29067 0.77237 0.0
H1035 H 0.9848 0.33552 0.74683 0.0
C1036 C 0.98577 0.21379 0.81573 0.0
C1037 C 0.99086 0.18304 0.80859 0.0
C1038 C 0.98857 0.2394 0.80039 0.0
C1039 C 0.9962 0.23476 0.77739 0.0
C1040 C 1.00009 0.20376 0.76972 0.0
C1041 C 0.99765 0.17827 0.78519 0.0
C1042 C 0.02187 0.28663 0.73241 0.0
C1043 C 0.01022 0.31358 0.73217 0.0
C1044 C 0.01741 0.26127 0.74729 0.0
C1045 C 1.00096 0.2621 0.76185 0.0
C1046 C 0.98938 0.28934 0.76163 0.0
C1047 C 0.99407 0.31497 0.74703 0.0
H1048 H 0.79441 0.56538 0.80205 0.0
H1049 H 0.73325 0.56423 0.81287 0.0
H1050 H 0.7917 0.52015 0.775 0.0
H1051 H 0.73014 0.52042 0.78481 0.0
H1052 H 0.73234 0.42239 0.75378 0.0
H1053 H 0.73596 0.4664 0.78125 0.0
H1054 H 0.78126 0.50452 0.73702 0.0
H1055 H 0.77886 0.45898 0.71084 0.0
C1056 C 0.78039 0.5555 0.79832 0.0
C1057 C 0.76405 0.56778 0.80944 0.0
C1058 C 0.77876 0.52984 0.78276 0.0
C1059 C 0.76068 0.51654 0.77774 0.0
C1060 C 0.74432 0.52951 0.78866 0.0
C1061 C 0.74602 0.5547 0.80455 0.0
C1062 C 0.74329 0.43988 0.75012 0.0
C1063 C 0.75531 0.43707 0.7301 0.0
C1064 C 0.74516 0.46545 0.76568 0.0
C1065 C 0.75885 0.48916 0.76132 0.0
C1066 C 0.77075 0.48651 0.74115 0.0
C1067 C 0.76912 0.46063 0.72586 0.0
H1068 H 0.98247 0.91227 0.53761 0.0
H1069 H 0.03261 0.96141 0.56352 0.0
H1070 H 0.97632 0.9555 0.5092 0.0
H1071 H 0.02671 0.00416 0.53491 0.0
H1072 H 0.02127 0.04948 0.45998 0.0
H1073 H 0.02553 0.00402 0.48637 0.0
H1074 H 0.96929 0.01975 0.5162 0.0
H1075 H 0.96506 0.06581 0.48984 0.0
C1076 C 0.9922 0.93222 0.53698 0.0
C1077 C 0.00801 0.93381 0.55247 0.0
C1078 C 0.98864 0.95684 0.52098 0.0
C1079 C 1.00108 0.98284 0.52007 0.0
C1080 C 0.01702 0.98415 0.53535 0.0
C1081 C 0.02037 0.95989 0.55162 0.0
C1082 C 0.00972 0.04294 0.47196 0.0
C1083 C 0.9928 0.06083 0.47294 0.0
C1084 C 0.01221 0.01716 0.48704 0.0
C1085 C 0.99771 0.00867 0.50311 0.0
C1086 C 0.98055 0.02596 0.50373 0.0
C1087 C 0.97818 0.05219 0.48885 0.0
H1088 H 0.28972 0.21239 0.47367 0.0
H1089 H 0.24097 0.16454 0.50448 0.0
H1090 H 0.28417 0.25766 0.50013 0.0
H1091 H 0.23525 0.21003 0.53076 0.0
H1092 H 0.2209 0.31631 0.54913 0.0
H1093 H 0.22624 0.27085 0.52251 0.0
H1094 H 0.2848 0.26458 0.54719 0.0
H1095 H 0.27939 0.30949 0.57388 0.0
C1096 C 0.2779 0.21163 0.48622 0.0
C1097 C 0.26582 0.18517 0.4873 0.0
C1098 C 0.27473 0.23737 0.50126 0.0
C1099 C 0.25925 0.23716 0.51725 0.0
C1100 C 0.24718 0.21067 0.51837 0.0
C1101 C 0.25055 0.18468 0.50361 0.0
C1102 C 0.23486 0.30512 0.54871 0.0
C1103 C 0.24973 0.316 0.56346 0.0
C1104 C 0.23788 0.2792 0.5337 0.0
C1105 C 0.2559 0.26443 0.53299 0.0
C1106 C 0.27083 0.27575 0.54744 0.0
C1107 C 0.26772 0.30123 0.56269 0.0
H1108 H 0.28657 0.02829 0.83548 0.0
H1109 H 0.26501 0.09191 0.78116 0.0
H1110 H 0.28134 0.98383 0.80873 0.0
H1111 H 0.26158 0.04802 0.75376 0.0
H1112 H 0.23205 0.96222 0.72304 0.0
H1113 H 0.2399 0.0064 0.74924 0.0
H1114 H 0.29023 0.95623 0.77403 0.0
H1115 H 0.28156 0.91138 0.74865 0.0
C1116 C 0.28103 0.03289 0.81771 0.0
C1117 C 0.27596 0.06368 0.81066 0.0
C1118 C 0.27828 0.00741 0.80223 0.0
C1119 C 0.27073 0.01226 0.77919 0.0
C1120 C 0.26691 0.0433 0.77161 0.0
C1121 C 0.26928 0.06864 0.78722 0.0
C1122 C 0.2447 0.96076 0.73426 0.0
C1123 C 0.25618 0.93364 0.73407 0.0
C1124 C 0.24936 0.98611 0.74905 0.0
C1125 C 0.26586 0.98507 0.76357 0.0
C1126 C 0.27732 0.95771 0.76332 0.0
C1127 C 0.27242 0.93209 0.74882 0.0
H1128 H 0.73271 0.79152 0.57173 0.0
H1129 H 0.7788 0.84159 0.53688 0.0
H1130 H 0.73701 0.74705 0.54405 0.0
H1131 H 0.78339 0.7968 0.50953 0.0
H1132 H 0.7967 0.6886 0.49083 0.0
H1133 H 0.79287 0.73423 0.51768 0.0
H1134 H 0.7339 0.74358 0.49531 0.0
H1135 H 0.73782 0.69857 0.46821 0.0
C1136 C 0.74373 0.79286 0.55813 0.0
C1137 C 0.75538 0.81973 0.55617 0.0
C1138 C 0.74616 0.76762 0.54239 0.0
C1139 C 0.76054 0.76877 0.52488 0.0
C1140 C 0.7723 0.79554 0.52304 0.0
C1141 C 0.7696 0.82105 0.53847 0.0
C1142 C 0.78301 0.70064 0.49165 0.0
C1143 C 0.76757 0.69048 0.47753 0.0
C1144 C 0.78085 0.7266 0.50684 0.0
C1145 C 0.7631 0.74209 0.50839 0.0
C1146 C 0.74767 0.7318 0.49435 0.0
C1147 C 0.74993 0.70631 0.47886 0.0
H1148 H 0.73291 0.91995 0.25212 0.0
H1149 H 0.78027 0.95433 0.20958 0.0
H1150 H 0.73642 0.96482 0.27884 0.0
H1151 H 0.78264 0.00065 0.23502 0.0
H1152 H 0.79454 0.06411 0.29941 0.0
H1153 H 0.79231 0.01817 0.27294 0.0
H1154 H 0.73057 0.01912 0.28058 0.0
H1155 H 0.73316 0.06371 0.30802 0.0
C1156 C 0.74405 0.93709 0.24842 0.0
C1157 C 0.75626 0.93352 0.22864 0.0
C1158 C 0.74586 0.96316 0.26353 0.0
C1159 C 0.75971 0.98659 0.25899 0.0
C1160 C 0.77195 0.98295 0.23924 0.0
C1161 C 0.77036 0.9566 0.22438 0.0
C1162 C 0.78058 0.05434 0.29523 0.0
C1163 C 0.76403 0.067 0.30561 0.0
C1164 C 0.77923 0.02821 0.28004 0.0
C1165 C 0.76125 0.01475 0.27472 0.0
C1166 C 0.74467 0.02829 0.28472 0.0
C1167 C 0.74609 0.05397 0.30022 0.0
H1168 H 0.54537 0.55089 0.46635 0.0
H1169 H 0.5034 0.58389 0.51753 0.0
H1170 H 0.55455 0.50867 0.49385 0.0
H1171 H 0.51346 0.54272 0.54536 0.0
H1172 H 0.54573 0.47106 0.59331 0.0
H1173 H 0.54605 0.51845 0.56824 0.0
H1174 H 0.52855 0.46272 0.5074 0.0
H1175 H 0.52676 0.416 0.53236 0.0
C1176 C 0.53832 0.54951 0.48356 0.0
C1177 C 0.52334 0.57037 0.48951 0.0
C1178 C 0.54376 0.5256 0.49934 0.0
C1179 C 0.53468 0.52267 0.52157 0.0
C1180 C 0.5208 0.54489 0.52836 0.0
C1181 C 0.51507 0.56844 0.5124 0.0
C1182 C 0.54196 0.46882 0.57459 0.0
C1183 C 0.536 0.43959 0.56502 0.0
C1184 C 0.54235 0.4959 0.56027 0.0
C1185 C 0.53738 0.49396 0.53602 0.0
C1186 C 0.5327 0.46458 0.52605 0.0
C1187 C 0.53181 0.43774 0.54041 0.0
H1188 H 0.53816 0.69013 0.80812 0.0
H1189 H 0.47731 0.68855 0.79464 0.0
H1190 H 0.54209 0.7321 0.77854 0.0
H1191 H 0.4808 0.73183 0.76616 0.0
H1192 H 0.49346 0.78946 0.70158 0.0
H1193 H 0.49206 0.74429 0.72811 0.0
H1194 H 0.53638 0.78585 0.77226 0.0
H1195 H 0.5391 0.82959 0.74436 0.0
C1196 C 0.52564 0.69917 0.7989 0.0
C1197 C 0.50747 0.68645 0.80342 0.0
C1198 C 0.52782 0.72325 0.78211 0.0
C1199 C 0.51177 0.73539 0.76993 0.0
C1200 C 0.49354 0.72262 0.77476 0.0
C1201 C 0.49145 0.6981 0.79119 0.0
C1202 C 0.5033 0.7886 0.71656 0.0
C1203 C 0.5164 0.81322 0.72082 0.0
C1204 C 0.50223 0.76292 0.73207 0.0
C1205 C 0.51392 0.76158 0.75253 0.0
C1206 C 0.52727 0.7859 0.75657 0.0
C1207 C 0.52863 0.81128 0.74076 0.0
H1208 H 0.48935 0.21453 0.33523 0.0
H1209 H 0.51227 0.15159 0.28142 0.0
H1210 H 0.49521 0.25933 0.30916 0.0
H1211 H 0.51651 0.19605 0.2545 0.0
H1212 H 0.54291 0.28375 0.22242 0.0
H1213 H 0.53693 0.23945 0.24939 0.0
H1214 H 0.48545 0.28576 0.27464 0.0
H1215 H 0.49223 0.33065 0.24862 0.0
C1216 C 0.49544 0.2102 0.31772 0.0
C1217 C 0.50053 0.17948 0.31054 0.0
C1218 C 0.49856 0.23589 0.30261 0.0
C1219 C 0.5065 0.2314 0.27976 0.0
C1220 C 0.51079 0.2005 0.27218 0.0
C1221 C 0.508 0.17486 0.28747 0.0
C1222 C 0.53049 0.2844 0.23403 0.0
C1223 C 0.51809 0.31043 0.23376 0.0
C1224 C 0.5269 0.25897 0.24924 0.0
C1225 C 0.5106 0.25886 0.26407 0.0
C1226 C 0.49829 0.28521 0.26379 0.0
C1227 C 0.50211 0.31088 0.24891 0.0
H1228 H 0.47953 0.94205 0.06583 0.0
H1229 H 0.53962 0.93874 0.0481 0.0
H1230 H 0.47479 0.9849 0.03726 0.0
H1231 H 0.53537 0.98295 0.02054 0.0
H1232 H 0.51949 0.04012 0.95625 0.0
H1233 H 0.52258 0.99601 0.98348 0.0
H1234 H 0.48041 0.0384 0.03023 0.0
H1235 H 0.4759 0.08108 1.00169 0.0
C1236 C 0.49175 0.95095 0.05595 0.0
C1237 C 0.50991 0.93738 0.05897 0.0
C1238 C 0.48911 0.97558 0.03972 0.0
C1239 C 0.50469 0.98748 0.02655 0.0
C1240 C 0.52295 0.97399 0.02996 0.0
C1241 C 0.52548 0.9489 0.04584 0.0
C1242 C 0.51046 0.0397 0.97199 0.0
C1243 C 0.49732 0.06415 0.97663 0.0
C1244 C 0.51256 0.01464 0.98793 0.0
C1245 C 0.5019 0.0137 1.00923 0.0
C1246 C 0.4887 0.03808 1.01387 0.0
C1247 C 0.48631 0.06286 0.99766 0.0
H1248 H 0.02557 0.20033 1.0121 0.0
H1249 H 0.05258 0.2644 0.96225 0.0
H1250 H 0.0145 0.1677 0.97879 0.0
H1251 H 0.04133 0.23197 0.92901 0.0
H1252 H 0.0363 0.15338 0.87562 0.0
H1253 H 0.04785 0.18011 0.91162 0.0
H1254 H 0.99228 0.16791 0.94435 0.0
H1255 H 0.9809 0.14074 0.9082 0.0
C1256 C 0.029 0.20766 0.99404 0.0
C1257 C 0.04 0.23506 0.9899 0.0
C1258 C 0.02262 0.18892 0.97493 0.0
C1259 C 0.0272 0.19695 0.95121 0.0
C1260 C 0.03786 0.2247 0.94707 0.0
C1261 C 0.04415 0.24352 0.96615 0.0
C1262 C 0.02681 0.15549 0.89087 0.0
C1263 C 0.00784 0.14459 0.88937 0.0
C1264 C 0.03329 0.17126 0.91133 0.0
C1265 C 0.0209 0.1767 0.93074 0.0
C1266 C 1.00222 0.16405 0.92978 0.0
C1267 C 0.99573 0.14827 0.9092 0.0
H1268 H 0.21415 0.97888 0.96168 0.0
H1269 H 0.24124 0.04104 1.01291 0.0
H1270 H 0.22506 0.01285 0.92919 0.0
H1271 H 0.252 0.07519 0.98036 0.0
H1272 H 0.2855 0.10422 0.91015 0.0
H1273 H 0.27417 0.07602 0.9458 0.0
H1274 H 0.21838 0.06562 0.91311 0.0
H1275 H 0.22989 0.09344 0.8776 0.0
C1276 C 0.22252 -0.00032 0.96603 0.0
C1277 C 0.2268 0.00715 0.98996 0.0
C1278 C 0.22861 0.01938 0.9474 0.0
C1279 C 0.23922 0.04702 0.95216 0.0
C1280 C 0.2439 0.05409 0.97604 0.0
C1281 C 0.2377 0.03448 0.99471 0.0
C1282 C 0.27064 0.09692 0.91109 0.0
C1283 C 0.25845 0.10142 0.89139 0.0
C1284 C 0.26416 0.08054 0.93137 0.0
C1285 C 0.24544 0.06806 0.93216 0.0
C1286 C 0.23298 0.07434 0.91294 0.0
C1287 C 0.23943 0.09075 0.89277 0.0
H1288 H 0.03419 0.11521 0.40469 0.0
H1289 H 0.97633 0.09902 0.38073 0.0
H1290 H 0.04646 0.08734 0.36949 0.0
H1291 H 0.98844 0.07119 0.34544 0.0
H1292 H 0.01916 0.03649 0.2771 0.0
H1293 H 0.00758 0.073 0.3077 0.0
H1294 H 0.04532 0.02977 0.35946 0.0
H1295 H 0.05695 0.99323 0.32889 0.0
C1296 C 0.02415 0.10704 0.39124 0.0
C1297 C 1.00434 0.1099 0.3951 0.0
C1298 C 0.03112 0.09049 0.37135 0.0
C1299 C 0.01842 0.07654 0.35485 0.0
C1300 C 0.99863 0.08172 0.35772 0.0
C1301 C 0.99166 0.098 0.37776 0.0
C1302 C 0.02493 0.03461 0.29504 0.0
C1303 C 0.03895 0.01175 0.30053 0.0
C1304 C 0.01829 0.05561 0.31257 0.0
C1305 C 0.02565 0.05459 0.33597 0.0
C1306 C 0.03958 0.0316 0.3415 0.0
C1307 C 0.04608 0.01036 0.32404 0.0
H1308 H 0.24428 0.11591 0.39566 0.0
H1309 H 0.28851 0.18623 0.40479 0.0
H1310 H 0.23489 0.14089 0.35769 0.0
H1311 H 0.27877 0.21157 0.36749 0.0
H1312 H 0.23268 0.27163 0.32599 0.0
H1313 H 0.24595 0.24096 0.35928 0.0
H1314 H 0.24818 0.15801 0.31446 0.0
H1315 H 0.23535 0.18875 0.28094 0.0
C1316 C 0.25239 0.136 0.3892 0.0
C1317 C 0.26702 0.14925 0.40333 0.0
C1318 C 0.24691 0.15049 0.3676 0.0
C1319 C 0.25584 0.1786 0.35996 0.0
C1320 C 0.2714 0.19031 0.37317 0.0
C1321 C 0.27705 0.17564 0.39443 0.0
C1322 C 0.23614 0.24694 0.32317 0.0
C1323 C 0.23309 0.23274 0.30075 0.0
C1324 C 0.24377 0.22939 0.3422 0.0
C1325 C 0.24815 0.1971 0.33942 0.0
C1326 C 0.24493 0.18281 0.31711 0.0
C1327 C 0.23769 0.20051 0.29791 0.0
H1328 H 0.0326 0.84984 0.13901 0.0
H1329 H 0.97373 0.84786 0.16216 0.0
H1330 H 0.02325 0.82496 0.10099 0.0
H1331 H 0.96432 0.82326 0.1244 0.0
H1332 H 0.961 0.73607 0.07608 0.0
H1333 H 0.97075 0.76864 0.1099 0.0
H1334 H 1.00347 0.82855 0.06262 0.0
H1335 H 0.99367 0.79584 0.02851 0.0
C1336 C 0.01758 0.84529 0.13551 0.0
C1337 C 1.00384 0.85107 0.15333 0.0
C1338 C 0.01223 0.83081 0.11387 0.0
C1339 C 0.99308 0.82156 0.10987 0.0
C1340 C 0.97922 0.82952 0.12709 0.0
C1341 C 0.98454 0.84404 0.14855 0.0
C1342 C 0.97037 0.75604 0.07281 0.0
C1343 C 0.97653 0.76329 0.04951 0.0
C1344 C 0.97581 0.77494 0.09222 0.0
C1345 C 0.98769 0.80148 0.08894 0.0
C1346 C 0.9943 0.8083 0.06575 0.0
C1347 C 0.98866 0.78956 0.04622 0.0
H1348 H 0.80386 0.00874 0.07329 0.0
H1349 H 0.76949 0.95352 0.02438 0.0
H1350 H 0.7946 0.97384 0.10599 0.0
H1351 H 0.76012 0.91856 0.05735 0.0
H1352 H 0.7323 0.89427 0.13426 0.0
H1353 H 0.74111 0.92127 0.09692 0.0
H1354 H 0.80072 0.91701 0.11742 0.0
H1355 H 0.79185 0.89005 0.15447 0.0
C1356 C 0.79418 0.98933 0.06952 0.0
C1357 C 0.7874 0.98404 0.04618 0.0
C1358 C 0.78904 0.96909 0.08825 0.0
C1359 C 0.77679 0.94317 0.08422 0.0
C1360 C 0.76958 0.93828 0.06102 0.0
C1361 C 0.77496 0.95833 0.04215 0.0
C1362 C 0.74732 0.89786 0.13017 0.0
C1363 C 0.76144 0.88957 0.14696 0.0
C1364 C 0.75237 0.91359 0.10895 0.0
C1365 C 0.77159 0.92175 0.10442 0.0
C1366 C 0.78577 0.91148 0.12054 0.0
C1367 C 0.78075 0.89558 0.14155 0.0
H1368 H 0.97794 0.0283 0.71345 0.0
H1369 H 0.98126 0.94587 0.75893 0.0
H1370 H 0.99126 0.99739 0.68029 0.0
H1371 H 0.99424 0.91511 0.72577 0.0
H1372 H 0.99082 0.8691 0.64717 0.0
H1373 H 0.98164 0.89577 0.68449 0.0
H1374 H 0.02317 0.96906 0.6705 0.0
H1375 H 0.0326 0.94216 0.63372 0.0
C1376 C 0.98158 0.00371 0.71641 0.0
C1377 C 0.97865 0.9897 0.73889 0.0
C1378 C 0.98927 0.98602 0.69748 0.0
C1379 C 0.99385 0.95381 0.70048 0.0
C1380 C 0.99082 0.9398 0.7229 0.0
C1381 C 0.98349 0.95758 0.74192 0.0
C1382 C 0.99847 0.89021 0.65259 0.0
C1383 C 0.01233 0.90363 0.63746 0.0
C1384 C 0.9931 0.90567 0.6738 0.0
C1385 C 1.00139 0.93491 0.68008 0.0
C1386 C 0.01625 0.94695 0.66587 0.0
C1387 C 0.02177 0.93137 0.64494 0.0
H1388 H 0.80522 0.7391 0.71069 0.0
H1389 H 0.76753 0.78876 0.75911 0.0
H1390 H 0.79534 0.77421 0.67826 0.0
H1391 H 0.75761 0.82378 0.72656 0.0
H1392 H 0.73084 0.85059 0.65036 0.0
H1393 H 0.73982 0.82154 0.68671 0.0
H1394 H 0.79956 0.83194 0.66829 0.0
H1395 H 0.79049 0.86099 0.63218 0.0
C1396 C 0.79466 0.75723 0.71438 0.0
C1397 C 0.78717 0.76105 0.73753 0.0
C1398 C 0.78916 0.77761 0.69584 0.0
C1399 C 0.77587 0.80207 0.69991 0.0
C1400 C 0.76788 0.80522 0.72285 0.0
C1401 C 0.77358 0.78511 0.74148 0.0
C1402 C 0.74588 0.84786 0.65474 0.0
C1403 C 0.76 0.8586 0.63883 0.0
C1404 C 0.75103 0.83094 0.67537 0.0
C1405 C 0.7704 0.82398 0.68015 0.0
C1406 C 0.78452 0.83649 0.66492 0.0
C1407 C 0.77937 0.85362 0.6445 0.0
H1408 H 0.01589 0.70973 0.51578 0.0
H1409 H 0.05513 0.75097 0.46487 0.0
H1410 H 1.00389 0.6739 0.48476 0.0
H1411 H 0.04328 0.71492 0.43403 0.0
H1412 H 0.03138 0.62791 0.38978 0.0
H1413 H 0.0434 0.65562 0.42526 0.0
H1414 H 0.98538 0.67909 0.44522 0.0
H1415 H 0.97348 0.65171 0.4095 0.0
C1416 C 0.02193 0.71121 0.49797 0.0
C1417 C 0.03641 0.73336 0.4928 0.0
C1418 C 0.01506 0.69065 0.48023 0.0
C1419 C 0.02276 0.69132 0.45701 0.0
C1420 C 0.03724 0.71346 0.45184 0.0
C1421 C 0.04389 0.73438 0.46946 0.0
C1422 C 0.02119 0.6378 0.40234 0.0
C1423 C 1.00149 0.6371 0.39721 0.0
C1424 C 0.02807 0.65415 0.42241 0.0
C1425 C 0.01536 0.6699 0.43789 0.0
C1426 C 0.99554 0.66709 0.43372 0.0
C1427 C 0.98869 0.65115 0.41343 0.0
H1428 H 0.21054 0.48338 0.46409 0.0
H1429 H 0.24086 0.5427 0.51444 0.0
H1430 H 0.221 0.51754 0.4314 0.0
H1431 H 0.25134 0.57678 0.48165 0.0
H1432 H 0.28264 0.60329 0.40833 0.0
H1433 H 0.27238 0.57543 0.44469 0.0
H1434 H 0.21438 0.57285 0.41775 0.0
H1435 H 0.22471 0.60062 0.38165 0.0
C1436 C 0.21957 0.50351 0.46819 0.0
C1437 C 0.22483 0.51023 0.49194 0.0
C1438 C 0.22541 0.5233 0.44947 0.0
C1439 C 0.23682 0.55015 0.45395 0.0
C1440 C 0.24257 0.55633 0.47759 0.0
C1441 C 0.23654 0.53675 0.49637 0.0
C1442 C 0.26758 0.59796 0.41077 0.0
C1443 C 0.25438 0.60461 0.39246 0.0
C1444 C 0.26172 0.58171 0.43142 0.0
C1445 C 0.24262 0.5714 0.43391 0.0
C1446 C 0.22925 0.57994 0.41621 0.0
C1447 C 0.23507 0.59635 0.39575 0.0
H1448 H 0.97707 0.59392 0.88851 0.0
H1449 H 0.03618 0.61487 0.90416 0.0
H1450 H 0.98685 0.56612 0.85191 0.0
H1451 H 0.04605 0.58679 0.86793 0.0
H1452 H 0.05489 0.49142 0.82826 0.0
H1453 H 0.04391 0.52678 0.85998 0.0
H1454 H 1.00462 0.57121 0.81073 0.0
H1455 H 0.01581 0.53613 0.77875 0.0
C1456 C 0.99206 0.59386 0.88349 0.0
C1457 C 1.00584 0.60719 0.89882 0.0
C1458 C 0.9977 0.57762 0.86273 0.0
C1459 C 0.01725 0.57383 0.85726 0.0
C1460 C 0.0309 0.58899 0.87181 0.0
C1461 C 0.02525 0.60556 0.89231 0.0
C1462 C 0.0438 0.50851 0.82418 0.0
C1463 C 0.03623 0.51084 0.80093 0.0
C1464 C 0.03765 0.52902 0.84231 0.0
C1465 C 0.02355 0.55205 0.83778 0.0
C1466 C 0.01552 0.55377 0.81475 0.0
C1467 C 0.02194 0.53364 0.79646 0.0
H1468 H 0.21141 0.74739 0.82473 0.0
H1469 H 0.24843 0.69944 0.77458 0.0
H1470 H 0.22191 0.71156 0.85635 0.0
H1471 H 0.25906 0.66369 0.80643 0.0
H1472 H 0.28841 0.64057 0.88253 0.0
H1473 H 0.27787 0.66708 0.84576 0.0
H1474 H 0.21891 0.65361 0.8667 0.0
H1475 H 0.22955 0.62698 0.90324 0.0
C1476 C 0.22189 0.72935 0.82046 0.0
C1477 C 0.2291 0.72642 0.79708 0.0
C1478 C 0.22775 0.70856 0.83855 0.0
C1479 C 0.24117 0.68449 0.83387 0.0
C1480 C 0.2487 0.68192 0.81062 0.0
C1481 C 0.2426 0.70244 0.79239 0.0
C1482 C 0.27322 0.64185 0.87859 0.0
C1483 C 0.25978 0.63107 0.89543 0.0
C1484 C 0.26716 0.65737 0.8577 0.0
C1485 C 0.24755 0.66294 0.8535 0.0
C1486 C 0.23412 0.65008 0.86955 0.0
C1487 C 0.24018 0.63428 0.89025 0.0
H1488 H 0.98382 0.3088 0.52627 0.0
H1489 H 0.98227 0.22635 0.5718 0.0
H1490 H 0.99745 0.33985 0.55919 0.0
H1491 H 0.9962 0.25724 0.60444 0.0
H1492 H 0.03715 0.31126 0.65096 0.0
H1493 H 0.02807 0.28606 0.61332 0.0
H1494 H 0.98533 0.35813 0.60166 0.0
H1495 H 0.99421 0.38314 0.63979 0.0
C1496 C 0.9866 0.29718 0.54319 0.0
C1497 C 0.98201 0.26501 0.54637 0.0
C1498 C 0.99431 0.31505 0.56205 0.0
C1499 C 0.99799 0.30098 0.58435 0.0
C1500 C 0.99373 0.26869 0.58737 0.0
C1501 C 0.98568 0.251 0.5687 0.0
C1502 C 0.02617 0.32226 0.64004 0.0
C1503 C 0.01629 0.34907 0.64843 0.0
C1504 C 0.02087 0.30765 0.6186 0.0
C1505 C 1.00573 0.31973 0.60479 0.0
C1506 C 0.99703 0.34825 0.61197 0.0
C1507 C 1.00222 0.36274 0.63369 0.0
H1508 H 0.77026 0.4583 0.52673 0.0
H1509 H 0.80654 0.51075 0.57525 0.0
H1510 H 0.76031 0.42386 0.55966 0.0
H1511 H 0.79669 0.47623 0.60801 0.0
H1512 H 0.79194 0.39156 0.656 0.0
H1513 H 0.80132 0.41893 0.61929 0.0
H1514 H 0.74179 0.42733 0.59917 0.0
H1515 H 0.73249 0.4 0.63615 0.0
C1516 C 0.77603 0.46263 0.54443 0.0
C1517 C 0.7892 0.48737 0.54832 0.0
C1518 C 0.77032 0.44287 0.56328 0.0
C1519 C 0.77788 0.44703 0.58638 0.0
C1520 C 0.79083 0.47204 0.59033 0.0
C1521 C 0.79633 0.49206 0.57159 0.0
C1522 C 0.78094 0.39809 0.64321 0.0
C1523 C 0.76153 0.39307 0.6486 0.0
C1524 C 0.78627 0.41425 0.62241 0.0
C1525 C 0.77229 0.42576 0.6065 0.0
C1526 C 0.7529 0.41868 0.61102 0.0
C1527 C 0.74756 0.40274 0.63203 0.0
H1528 H 0.99684 0.45968 0.25766 0.0
H1529 H 0.96451 0.51707 0.20802 0.0
H1530 H 0.00801 0.42685 0.22475 0.0
H1531 H 0.976 0.48439 0.17495 0.0
H1532 H 0.98326 0.40282 0.12371 0.0
H1533 H 0.97172 0.43116 0.15902 0.0
H1534 H 0.02858 0.42727 0.18957 0.0
H1535 H 0.03991 0.39853 0.15423 0.0
C1536 C 0.99227 0.46559 0.23969 0.0
C1537 C 0.97974 0.49114 0.23557 0.0
C1538 C 0.99874 0.4467 0.22077 0.0
C1539 C 0.99278 0.45267 0.19717 0.0
C1540 C 0.9806 0.47869 0.19295 0.0
C1541 C 0.97419 0.49772 0.21189 0.0
C1542 C 0.99306 0.40703 0.13843 0.0
C1543 C 0.01234 0.39786 0.13657 0.0
C1544 C 0.98658 0.42381 0.15844 0.0
C1545 C 0.99927 0.43199 0.17703 0.0
C1546 C 0.01836 0.42124 0.1757 0.0
C1547 C 0.02485 0.40451 0.1556 0.0
H1548 H 0.77197 0.29638 0.26184 0.0
H1549 H 0.80427 0.23926 0.21206 0.0
H1550 H 0.76305 0.33216 0.22936 0.0
H1551 H 0.7953 0.27501 0.17966 0.0
H1552 H 0.79331 0.35886 0.13112 0.0
H1553 H 0.80236 0.33018 0.16735 0.0
H1554 H 0.74363 0.33336 0.19147 0.0
H1555 H 0.73467 0.36225 0.15505 0.0
C1556 C 0.77705 0.29126 0.24394 0.0
C1557 C 0.78885 0.26484 0.2396 0.0
C1558 C 0.77191 0.31183 0.22533 0.0
C1559 C 0.77864 0.30673 0.20196 0.0
C1560 C 0.79015 0.27999 0.19755 0.0
C1561 C 0.79513 0.25926 0.21609 0.0
C1562 C 0.78252 0.35456 0.14467 0.0
C1563 C 0.76336 0.36322 0.14051 0.0
C1564 C 0.78761 0.33762 0.1652 0.0
C1565 C 0.77365 0.32887 0.18208 0.0
C1566 C 0.75473 0.33973 0.17884 0.0
C1567 C 0.74961 0.35659 0.15814 0.0
H1568 H 0.54146 0.14139 0.38245 0.0
H1569 H 0.48303 0.14398 0.40712 0.0
H1570 H 0.55167 0.17125 0.41769 0.0
H1571 H 0.49309 0.17409 0.44246 0.0
H1572 H 0.5223 0.21159 0.51157 0.0
H1573 H 0.51219 0.17557 0.47987 0.0
H1574 H 0.54698 0.227 0.42926 0.0
H1575 H 0.55724 0.26295 0.461 0.0
C1576 C 0.53094 0.14725 0.39599 0.0
C1577 C 0.51154 0.1398 0.39237 0.0
C1578 C 0.5367 0.16491 0.41592 0.0
C1579 C 0.52316 0.17562 0.4327 0.0
C1580 C 0.50391 0.16617 0.42995 0.0
C1581 C 0.49815 0.1486 0.40988 0.0
C1582 C 0.52769 0.21544 0.49364 0.0
C1583 C 0.54059 0.24028 0.48888 0.0
C1584 C 0.52187 0.19472 0.47545 0.0
C1585 C 0.52894 0.19808 0.45206 0.0
C1586 C 0.54153 0.22333 0.44719 0.0
C1587 C 0.54723 0.24422 0.46533 0.0
H1588 H 0.73977 0.04607 0.5103 0.0
H1589 H 0.71013 0.98376 0.46142 0.0
H1590 H 0.74939 0.07956 0.47684 0.0
H1591 H 0.71994 0.01709 0.42798 0.0
H1592 H 0.72308 0.09689 0.3755 0.0
H1593 H 0.713 0.06951 0.41183 0.0
H1594 H 0.76999 0.08023 0.44098 0.0
H1595 H 0.77992 0.10806 0.4045 0.0
C1596 C 0.73542 0.03932 0.4924 0.0
C1597 C 0.72413 0.01214 0.48861 0.0
C1598 C 0.74099 0.05856 0.4732 0.0
C1599 C 0.73529 0.05129 0.44971 0.0
C1600 C 0.72429 0.02379 0.44588 0.0
C1601 C 0.71882 0.00444 0.46506 0.0
C1602 C 0.73323 0.09436 0.39007 0.0
C1603 C 0.75218 0.10499 0.38739 0.0
C1604 C 0.72758 0.07818 0.4107 0.0
C1605 C 0.74077 0.07206 0.42917 0.0
C1606 C 0.75944 0.08457 0.42715 0.0
C1607 C 0.76511 0.10077 0.40639 0.0
H1608 H 0.47704 0.09303 0.88303 0.0
H1609 H 0.53561 0.11332 0.90204 0.0
H1610 H 0.48799 0.06514 0.84706 0.0
H1611 H 0.54667 0.08517 0.86632 0.0
H1612 H 0.55677 0.99111 0.82517 0.0
H1613 H 0.54544 0.02626 0.85685 0.0
H1614 H 0.50613 0.07013 0.8073 0.0
H1615 H 0.51757 0.0352 0.77546 0.0
C1616 C 0.49221 0.09267 0.87891 0.0
C1617 C 0.50547 0.10596 0.89495 0.0
C1618 C 0.4985 0.07644 0.85848 0.0
C1619 C 0.51821 0.07257 0.85402 0.0
C1620 C 0.53141 0.08744 0.8694 0.0
C1621 C 0.52509 0.10403 0.88961 0.0
C1622 C 0.54562 0.00809 0.82102 0.0
C1623 C 0.53806 0.01023 0.79775 0.0
C1624 C 0.53927 0.02848 0.83913 0.0
C1625 C 0.52502 0.05123 0.83453 0.0
C1626 C 0.51713 0.0529 0.81141 0.0
C1627 C 0.5237 0.03284 0.79319 0.0
H1628 H 0.72837 0.1428 0.90779 0.0
H1629 H 0.78674 0.16108 0.88699 0.0
H1630 H 0.71689 0.17001 0.87183 0.0
H1631 H 0.77539 0.18816 0.85084 0.0
H1632 H 0.7457 0.21594 0.77927 0.0
H1633 H 0.75727 0.18247 0.81187 0.0
H1634 H 0.71757 0.22752 0.86023 0.0
H1635 H 0.70603 0.26113 0.8277 0.0
C1636 C 0.73873 0.15153 0.89497 0.0
C1637 C 0.75843 0.14919 0.89981 0.0
C1638 C 0.73219 0.1676 0.87461 0.0
C1639 C 0.74522 0.18161 0.8586 0.0
C1640 C 0.76498 0.1775 0.86271 0.0
C1641 C 0.77151 0.16174 0.88326 0.0
C1642 C 0.73949 0.21886 0.79688 0.0
C1643 C 0.72494 0.24135 0.80084 0.0
C1644 C 0.74615 0.19965 0.81557 0.0
C1645 C 0.73823 0.20206 0.83861 0.0
C1646 C 0.72378 0.22469 0.84261 0.0
C1647 C 0.71729 0.24421 0.824 0.0
H1648 H 0.49295 0.78791 0.52163 0.0
H1649 H 0.45609 0.7411 0.57255 0.0
H1650 H 0.50336 0.82483 0.55283 0.0
H1651 H 0.46638 0.77806 0.60356 0.0
H1652 H 0.47463 0.86371 0.64954 0.0
H1653 H 0.46361 0.83593 0.61363 0.0
H1654 H 0.52234 0.82242 0.59172 0.0
H1655 H 0.53325 0.85006 0.62782 0.0
C1656 C 0.48708 0.78546 0.53946 0.0
C1657 C 0.47374 0.76142 0.54459 0.0
C1658 C 0.49306 0.80664 0.55733 0.0
C1659 C 0.48557 0.80463 0.58064 0.0
C1660 C 0.47221 0.78062 0.58571 0.0
C1661 C 0.46645 0.75919 0.56797 0.0
C1662 C 0.48511 0.85606 0.63647 0.0
C1663 C 0.50477 0.85967 0.64114 0.0
C1664 C 0.47884 0.83965 0.61613 0.0
C1665 C 0.4921 0.82656 0.59997 0.0
C1666 C 0.51175 0.83233 0.60372 0.0
C1667 C 0.51802 0.84845 0.62424 0.0
H1668 H 0.27144 0.86307 0.64233 0.0
H1669 H 0.22785 0.93389 0.65318 0.0
H1670 H 0.27986 0.88777 0.60393 0.0
H1671 H 0.2364 0.95873 0.61526 0.0
H1672 H 0.28079 0.01959 0.57301 0.0
H1673 H 0.26757 0.98851 0.60591 0.0
H1674 H 0.26771 0.90521 0.56133 0.0
H1675 H 0.28067 0.93649 0.52811 0.0
C1676 C 0.26318 0.88313 0.6361 0.0
C1677 C 0.24904 0.8966 0.65082 0.0
C1678 C 0.2681 0.89746 0.61422 0.0
C1679 C 0.25906 0.92562 0.60683 0.0
C1680 C 0.24387 0.93744 0.62066 0.0
C1681 C 0.23885 0.92301 0.64226 0.0
C1682 C 0.27785 0.99473 0.5701 0.0
C1683 C 0.2817 0.98063 0.54785 0.0
C1684 C 0.2702 0.97692 0.58894 0.0
C1685 C 0.2665 0.94438 0.5862 0.0
C1686 C 0.27041 0.93018 0.564 0.0
C1687 C 0.27773 0.94818 0.54495 0.0
H1688 H 0.53025 0.89431 0.15602 0.0
H1689 H 0.47214 0.89961 0.1302 0.0
H1690 H 0.5204 0.91969 0.19361 0.0
H1691 H 0.46219 0.92463 0.16756 0.0
H1692 H 0.45887 0.01118 0.2164 0.0
H1693 H 0.46869 0.97828 0.18285 0.0
H1694 H 0.50007 0.91751 0.23101 0.0
H1695 H 0.49028 0.95074 0.26481 0.0
C1696 C 0.51525 0.89972 0.15883 0.0
C1697 C 0.50189 0.89466 0.14039 0.0
C1698 C 0.50961 0.91449 0.18024 0.0
C1699 C 0.49056 0.92475 0.18342 0.0
C1700 C 0.47703 0.91761 0.16554 0.0
C1701 C 0.48264 0.90282 0.14429 0.0
C1702 C 0.46798 0.99098 0.2199 0.0
C1703 C 0.47382 0.98374 0.24335 0.0
C1704 C 0.47345 0.97185 0.20065 0.0
C1705 C 0.485 0.94497 0.20423 0.0
C1706 C 0.49119 0.93802 0.22762 0.0
C1707 C 0.48555 0.95706 0.24698 0.0
H1708 H 0.22589 0.80029 0.13504 0.0
H1709 H 0.26746 0.87448 0.14606 0.0
H1710 H 0.23634 0.77461 0.17189 0.0
H1711 H 0.27756 0.84908 0.18354 0.0
H1712 H 0.27914 0.80033 0.25915 0.0
H1713 H 0.26543 0.83028 0.22585 0.0
H1714 H 0.26908 0.74752 0.18094 0.0
H1715 H 0.28316 0.7176 0.21409 0.0
C1716 C 0.23696 0.81154 0.14567 0.0
C1717 C 0.24601 0.83925 0.13744 0.0
C1718 C 0.24301 0.79669 0.16669 0.0
C1719 C 0.25803 0.80946 0.18033 0.0
C1720 C 0.26599 0.83863 0.17331 0.0
C1721 C 0.26009 0.85334 0.15197 0.0
C1722 C 0.2769 0.78839 0.24223 0.0
C1723 C 0.28215 0.75644 0.23934 0.0
C1724 C 0.26916 0.80567 0.22313 0.0
C1725 C 0.2661 0.79125 0.20083 0.0
C1726 C 0.27109 0.7592 0.19801 0.0
C1727 C 0.2792 0.74207 0.21697 0.0
H1728 H 0.48612 0.6461 0.9011 0.0
H1729 H 0.54446 0.655 0.8768 0.0
H1730 H 0.49458 0.67373 0.93831 0.0
H1731 H 0.55303 0.68223 0.91381 0.0
H1732 H 0.55404 0.76939 0.96184 0.0
H1733 H 0.54522 0.73562 0.92826 0.0
H1734 H 0.51396 0.67424 0.97603 0.0
H1735 H 0.5227 0.70818 1.00975 0.0
C1736 C 0.5009 0.65282 0.90418 0.0
C1737 C 0.51469 0.64816 0.88624 0.0
C1738 C 0.50573 0.6689 0.92536 0.0
C1739 C 0.52441 0.68081 0.92883 0.0
C1740 C 0.53843 0.67404 0.91152 0.0
C1741 C 0.53362 0.65798 0.8905 0.0
C1742 C 0.54516 0.74887 0.96523 0.0
C1743 C 0.53912 0.74157 0.98857 0.0
C1744 C 0.54025 0.72928 0.94597 0.0
C1745 C 0.52909 0.70191 0.94947 0.0
C1746 C 0.52256 0.6951 0.97269 0.0
C1747 C 0.52759 0.71459 0.99202 0.0
H1748 H 0.70817 0.48718 0.9615 0.0
H1749 H 0.73935 0.54488 1.01209 0.0
H1750 H 0.71847 0.52183 0.92908 0.0
H1751 H 0.74959 0.57964 0.97959 0.0
H1752 H 0.78069 0.60754 0.90682 0.0
H1753 H 0.77022 0.57955 0.94299 0.0
H1754 H 0.71246 0.57642 0.91523 0.0
H1755 H 0.72305 0.60414 0.87923 0.0
C1756 C 0.71733 0.50711 0.96572 0.0
C1757 C 0.72292 0.51316 0.98945 0.0
C1758 C 0.72307 0.52722 0.94715 0.0
C1759 C 0.73468 0.5538 0.95176 0.0
C1760 C 0.74068 0.5594 0.9754 0.0
C1761 C 0.73478 0.53944 0.99403 0.0
C1762 C 0.76563 0.60203 0.90902 0.0
C1763 C 0.75259 0.60847 0.89049 0.0
C1764 C 0.75964 0.58572 0.92958 0.0
C1765 C 0.74056 0.57521 0.93181 0.0
C1766 C 0.72732 0.58361 0.91391 0.0
C1767 C 0.73328 0.6 0.89349 0.0
H1768 H 0.52078 0.62884 0.3894 0.0
H1769 H 0.49049 0.54625 0.41423 0.0
H1770 H 0.52757 0.60189 0.35144 0.0
H1771 H 0.49733 0.5193 0.37658 0.0
H1772 H 0.54071 0.46897 0.32616 0.0
H1773 H 0.52823 0.49834 0.3604 0.0
H1774 H 0.51395 0.5766 0.31414 0.0
H1775 H 0.52634 0.54727 0.27986 0.0
C1776 C 0.51502 0.60537 0.38642 0.0
C1777 C 0.50521 0.58959 0.40481 0.0
C1778 C 0.51902 0.58982 0.36477 0.0
C1779 C 0.51333 0.55817 0.36121 0.0
C1780 C 0.50227 0.54338 0.37895 0.0
C1781 C 0.4982 0.55893 0.40042 0.0
C1782 C 0.53475 0.49229 0.32322 0.0
C1783 C 0.53451 0.50564 0.3002 0.0
C1784 C 0.5275 0.50911 0.34284 0.0
C1785 C 0.52005 0.53984 0.34 0.0
C1786 C 0.51968 0.55309 0.31697 0.0
C1787 C 0.52669 0.53612 0.2973 0.0
H1788 H 0.78554 0.64997 0.38315 0.0
H1789 H 0.72732 0.64226 0.408 0.0
H1790 H 0.77426 0.67603 0.34653 0.0
H1791 H 0.71593 0.66825 0.37156 0.0
H1792 H 0.70859 0.75942 0.32704 0.0
H1793 H 0.7195 0.72465 0.35907 0.0
H1794 H 0.75423 0.67275 0.3087 0.0
H1795 H 0.74323 0.70756 0.27647 0.0
C1796 C 0.77027 0.65254 0.38021 0.0
C1797 C 0.75726 0.64351 0.39811 0.0
C1798 C 0.7638 0.66775 0.35938 0.0
C1799 C 0.74421 0.6747 0.35629 0.0
C1800 C 0.73113 0.66368 0.37353 0.0
C1801 C 0.73759 0.64829 0.3942 0.0
C1802 C 0.7186 0.7407 0.32274 0.0
C1803 C 0.72504 0.73639 0.29913 0.0
C1804 C 0.72472 0.72052 0.34109 0.0
C1805 C 0.73759 0.69565 0.33642 0.0
C1806 C 0.74432 0.69165 0.3129 0.0
C1807 C 0.738 0.71162 0.29444 0.0
H1808 H 0.53963 0.307 0.15041 0.0
H1809 H 0.49571 0.37797 0.14203 0.0
H1810 H 0.52917 0.28155 0.11346 0.0
H1811 H 0.48555 0.35284 0.10447 0.0
H1812 H 0.48332 0.30517 0.0283 0.0
H1813 H 0.4971 0.33573 0.06133 0.0
H1814 H 0.49695 0.25217 0.10559 0.0
H1815 H 0.48282 0.22167 0.07278 0.0
C1816 C 0.52805 0.31767 0.14031 0.0
C1817 C 0.51835 0.34432 0.14933 0.0
C1818 C 0.52199 0.30294 0.11924 0.0
C1819 C 0.5063 0.31481 0.10634 0.0
C1820 C 0.49766 0.3431 0.11411 0.0
C1821 C 0.50358 0.35767 0.13549 0.0
C1822 C 0.48634 0.29323 0.04503 0.0
C1823 C 0.48205 0.26088 0.04786 0.0
C1824 C 0.49413 0.31083 0.06396 0.0
C1825 C 0.49819 0.29634 0.08599 0.0
C1826 C 0.49415 0.26392 0.08872 0.0
C1827 C 0.486 0.24647 0.06997 0.0
H1828 H 0.22842 0.43208 0.1507 0.0
H1829 H 0.2728 0.36185 0.14275 0.0
H1830 H 0.23785 0.45612 0.11283 0.0
H1831 H 0.28199 0.38563 0.10429 0.0
H1832 H 0.2828 0.4321 0.02715 0.0
H1833 H 0.26955 0.40164 0.06067 0.0
H1834 H 0.26992 0.4857 0.10441 0.0
H1835 H 0.28348 0.51593 0.07127 0.0
C1836 C 0.23987 0.42124 0.14051 0.0
C1837 C 0.25002 0.39526 0.14989 0.0
C1838 C 0.24533 0.43514 0.11888 0.0
C1839 C 0.26088 0.42314 0.10583 0.0
C1840 C 0.26995 0.39542 0.11402 0.0
C1841 C 0.26461 0.38165 0.13593 0.0
C1842 C 0.27991 0.44411 0.04388 0.0
C1843 C 0.28412 0.47651 0.0465 0.0
C1844 C 0.27244 0.42661 0.06308 0.0
C1845 C 0.2686 0.4413 0.08511 0.0
C1846 C 0.27253 0.47378 0.08757 0.0
C1847 C 0.28036 0.49109 0.0686 0.0
H1848 H 0.46057 0.51684 0.71109 0.0
H1849 H 0.49097 0.4588 0.76217 0.0
H1850 H 0.47189 0.48305 0.67868 0.0
H1851 H 0.50207 0.42478 0.72975 0.0
H1852 H 0.53645 0.3989 0.66015 0.0
H1853 H 0.52378 0.42597 0.69547 0.0
H1854 H 0.46793 0.43 0.66214 0.0
H1855 H 0.48085 0.40322 0.6268 0.0
C1856 C 0.4697 0.49693 0.71543 0.0
C1857 C 0.4749 0.49069 0.73929 0.0
C1858 C 0.47602 0.4773 0.69684 0.0
C1859 C 0.48778 0.45095 0.70157 0.0
C1860 C 0.49313 0.44492 0.72541 0.0
C1861 C 0.48673 0.46446 0.74402 0.0
C1862 C 0.52132 0.40452 0.66087 0.0
C1863 C 0.5095 0.39839 0.64106 0.0
C1864 C 0.51405 0.42024 0.681 0.0
C1865 C 0.49486 0.43056 0.68158 0.0
C1866 C 0.48284 0.42286 0.66217 0.0
C1867 C 0.4901 0.40702 0.64211 0.0
H1868 H 0.27004 0.28728 0.76437 0.0
H1869 H 0.30618 0.23857 0.71366 0.0
H1870 H 0.25872 0.32232 0.73261 0.0
H1871 H 0.29478 0.27355 0.68191 0.0
H1872 H 0.28702 0.3594 0.63568 0.0
H1873 H 0.298 0.33069 0.67111 0.0
H1874 H 0.23936 0.32061 0.69452 0.0
H1875 H 0.22849 0.34938 0.65888 0.0
C1876 C 0.27544 0.28381 0.7464 0.0
C1877 C 0.28898 0.25995 0.74156 0.0
C1878 C 0.26893 0.30394 0.72821 0.0
C1879 C 0.276 0.30102 0.70479 0.0
C1880 C 0.28928 0.27679 0.69985 0.0
C1881 C 0.29563 0.25643 0.71799 0.0
C1882 C 0.27659 0.35224 0.64896 0.0
C1883 C 0.25696 0.35721 0.64488 0.0
C1884 C 0.28282 0.33525 0.669 0.0
C1885 C 0.26953 0.32286 0.68542 0.0
C1886 C 0.24997 0.3299 0.68225 0.0
C1887 C 0.24373 0.34669 0.66203 0.0
H1888 H 0.1111 0.41383 0.83987 0.0
H1889 H 0.05388 0.37491 0.83718 0.0
H1890 H 0.11406 0.39635 0.88169 0.0
H1891 H 0.0568 0.35809 0.87863 0.0
H1892 H 0.05865 0.37341 0.9593 0.0
H1893 H 0.05933 0.3903 0.91773 0.0
H1894 H 0.11352 0.34306 0.90782 0.0
H1895 H 0.11279 0.32551 0.94976 0.0
C1896 C 0.09925 0.40135 0.84806 0.0
C1897 C 0.08222 0.39592 0.83512 0.0
C1898 C 0.10097 0.39131 0.87197 0.0
C1899 C 0.08558 0.37616 0.88351 0.0
C1900 C 0.06882 0.37006 0.87035 0.0
C1901 C 0.0672 0.3796 0.84649 0.0
C1902 C 0.07085 0.36676 0.94845 0.0
C1903 C 0.08562 0.3479 0.95795 0.0
C1904 C 0.07116 0.37636 0.92453 0.0
C1905 C 0.08637 0.36775 0.90942 0.0
C1906 C 0.10162 0.35006 0.91906 0.0
C1907 C 0.10117 0.34 0.94305 0.0
H1908 H 0.15568 0.82324 0.83821 0.0
H1909 H 0.21228 0.86418 0.83362 0.0
H1910 H 0.15316 0.84182 0.87984 0.0
H1911 H 0.20981 0.88208 0.87484 0.0
H1912 H 0.20965 0.86913 0.95579 0.0
H1913 H 0.20852 0.85134 0.91445 0.0
H1914 H 0.15332 0.89565 0.90543 0.0
H1915 H 0.1545 0.91414 0.94718 0.0
C1916 C 0.16749 0.83637 0.84594 0.0
C1917 C 0.18422 0.84205 0.83249 0.0
C1918 C 0.16602 0.84707 0.86975 0.0
C1919 C 0.18137 0.86315 0.88072 0.0
C1920 C 0.19783 0.86943 0.86705 0.0
C1921 C 0.19918 0.85924 0.8433 0.0
C1922 C 0.19714 0.875 0.94519 0.0
C1923 C 0.1822 0.89328 0.95493 0.0
C1924 C 0.19656 0.86486 0.92138 0.0
C1925 C 0.18092 0.8723 0.90656 0.0
C1926 C 0.16556 0.8895 0.91642 0.0
C1927 C 0.16626 0.90013 0.94031 0.0
H1928 H 0.07866 0.89006 0.46261 0.0
H1929 H 0.10198 0.79976 0.4414 0.0
H1930 H 0.0814 0.90892 0.42147 0.0
H1931 H 0.10465 0.81866 0.40015 0.0
H1932 H 0.07922 0.85167 0.32653 0.0
H1933 H 0.08134 0.83279 0.36772 0.0
H1934 H 0.10518 0.92249 0.38947 0.0
H1935 H 0.10313 0.94142 0.34816 0.0
C1936 C 0.08456 0.87432 0.44923 0.0
C1937 C 0.09006 0.84335 0.45537 0.0
C1938 C 0.08622 0.88521 0.42563 0.0
C1939 C 0.09319 0.8653 0.40744 0.0
C1940 C 0.09907 0.83453 0.41367 0.0
C1941 C 0.09765 0.82377 0.43736 0.0
C1942 C 0.08513 0.86728 0.34002 0.0
C1943 C 0.09098 0.89811 0.33398 0.0
C1944 C 0.08643 0.85638 0.36365 0.0
C1945 C 0.09338 0.87613 0.38197 0.0
C1946 C 0.09961 0.90675 0.37585 0.0
C1947 C 0.09855 0.91752 0.35212 0.0
H1948 H 0.2153 0.40741 0.45059 0.0
H1949 H 0.15568 0.38266 0.45799 0.0
H1950 H 0.21487 0.39045 0.40936 0.0
H1951 H 0.15541 0.36293 0.41664 0.0
H1952 H 0.15816 0.3515 0.33397 0.0
H1953 H 0.15598 0.3707 0.37536 0.0
H1954 H 0.21583 0.34758 0.38578 0.0
H1955 H 0.21811 0.3312 0.34448 0.0
C1956 C 0.20211 0.39767 0.44344 0.0
C1957 C 0.18561 0.39593 0.45769 0.0
C1958 C 0.20187 0.38756 0.41966 0.0
C1959 C 0.18525 0.37426 0.40939 0.0
C1960 C 0.16852 0.37303 0.42363 0.0
C1961 C 0.16865 0.38413 0.44743 0.0
C1962 C 0.17079 0.35083 0.34524 0.0
C1963 C 0.18839 0.34048 0.33586 0.0
C1964 C 0.16957 0.36163 0.36906 0.0
C1965 C 0.18583 0.36155 0.38419 0.0
C1966 C 0.20312 0.34958 0.37479 0.0
C1967 C 0.20444 0.33979 0.35099 0.0
H1968 H 0.93726 0.64729 0.2107 0.0
H1969 H 0.91491 0.556 0.19024 0.0
H1970 H 0.93468 0.66522 0.16927 0.0
H1971 H 0.91248 0.57392 0.14869 0.0
H1972 H 0.93883 0.60639 0.07521 0.0
H1973 H 0.93639 0.58824 0.11659 0.0
H1974 H 0.91069 0.67717 0.13661 0.0
H1975 H 0.91298 0.69531 0.0951 0.0
C1976 C 0.93159 0.63113 0.19742 0.0
C1977 C 0.9263 0.60017 0.20386 0.0
C1978 C 0.93004 0.64148 0.17365 0.0
C1979 C 0.92342 0.621 0.1556 0.0
C1980 C 0.91777 0.59023 0.16211 0.0
C1981 C 0.91904 0.58003 0.18597 0.0
C1982 C 0.93242 0.62196 0.08835 0.0
C1983 C 0.9261 0.65233 0.08177 0.0
C1984 C 0.93096 0.61148 0.11209 0.0
C1985 C 0.9234 0.63126 0.12998 0.0
C1986 C 0.91671 0.66142 0.12332 0.0
C1987 C 0.91791 0.67173 0.09948 0.0
H1988 H 0.8121 0.05819 0.09783 0.0
H1989 H 0.85125 0.13167 0.07654 0.0
H1990 H 0.81458 0.07505 0.1393 0.0
H1991 H 0.85301 0.15027 0.11813 0.0
H1992 H 0.86065 0.16534 0.19937 0.0
H1993 H 0.8625 0.14426 0.15854 0.0
H1994 H 0.80335 0.11452 0.16355 0.0
H1995 H 0.80194 0.13384 0.20416 0.0
C1996 C 0.82132 0.07799 0.10216 0.0
C1997 C 0.83151 0.09357 0.08407 0.0
C1998 C 0.82259 0.08803 0.12595 0.0
C1999 C 0.83369 0.11461 0.13233 0.0
C2000 C 0.8444 0.12964 0.11415 0.0
C2001 C 0.84338 0.11911 0.09027 0.0
C2002 C 0.84815 0.15397 0.19173 0.0
C2003 C 0.83123 0.151 0.20522 0.0
C2004 C 0.84914 0.14206 0.16821 0.0
C2005 C 0.83315 0.12721 0.15752 0.0
C2006 C 0.81622 0.12476 0.17111 0.0
C2007 C 0.81535 0.13614 0.19456 0.0
H2008 H 0.93784 0.10521 0.57591 0.0
H2009 H 0.91993 0.19878 0.59718 0.0
H2010 H 0.93566 0.08758 0.6175 0.0
H2011 H 0.918 0.1812 0.63881 0.0
H2012 H 0.94475 0.1459 0.71124 0.0
H2013 H 0.94246 0.16387 0.66981 0.0
H2014 H 0.9116 0.07891 0.65119 0.0
H2015 H 0.91372 0.06096 0.69279 0.0
C2016 C 0.93327 0.12196 0.58941 0.0
C2017 C 0.92906 0.15343 0.58315 0.0
C2018 C 0.93195 0.1118 0.61325 0.0
C2019 C 0.92672 0.133 0.63152 0.0
C2020 C 0.92219 0.16433 0.62521 0.0
C2021 C 0.92318 0.17434 0.6013 0.0
C2022 C 0.93726 0.13118 0.69841 0.0
C2023 C 0.9294 0.10197 0.70541 0.0
C2024 C 0.93589 0.14157 0.67465 0.0
C2025 C 0.92688 0.12282 0.65714 0.0
C2026 C 0.91875 0.09382 0.66419 0.0
C2027 C 0.91986 0.08364 0.68808 0.0
H2028 H 0.83163 0.60522 0.70943 0.0
H2029 H 0.84778 0.6998 0.68853 0.0
H2030 H 0.83347 0.5882 0.66772 0.0
H2031 H 0.84945 0.68276 0.64669 0.0
H2032 H 0.82227 0.64669 0.57445 0.0
H2033 H 0.82525 0.6649 0.61578 0.0
H2034 H 0.85679 0.58038 0.63365 0.0
H2035 H 0.85397 0.56222 0.59219 0.0
C2036 C 0.83577 0.62234 0.69597 0.0
C2037 C 0.83957 0.6539 0.7024 0.0
C2038 C 0.8369 0.61252 0.67204 0.0
C2039 C 0.84157 0.6341 0.6538 0.0
C2040 C 0.84569 0.66557 0.66026 0.0
C2041 C 0.84486 0.67528 0.68428 0.0
C2042 C 0.83007 0.63215 0.58709 0.0
C2043 C 0.83788 0.60296 0.57993 0.0
C2044 C 0.83184 0.64267 0.6108 0.0
C2045 C 0.8412 0.62407 0.62811 0.0
C2046 C 0.84936 0.59518 0.62084 0.0
C2047 C 0.84786 0.58488 0.59701 0.0
H2048 H 0.58509 0.39784 0.46032 0.0
H2049 H 0.59992 0.30249 0.43993 0.0
H2050 H 0.58582 0.41388 0.41835 0.0
H2051 H 0.60052 0.31855 0.39783 0.0
H2052 H 0.57151 0.35312 0.32647 0.0
H2053 H 0.57566 0.33591 0.36786 0.0
H2054 H 0.60788 0.42067 0.38312 0.0
H2055 H 0.60383 0.43788 0.34161 0.0
C2056 C 0.58872 0.38035 0.44691 0.0
C2057 C 0.59245 0.34886 0.45355 0.0
C2058 C 0.58922 0.3896 0.42282 0.0
C2059 C 0.59318 0.36751 0.40466 0.0
C2060 C 0.59729 0.33612 0.41134 0.0
C2061 C 0.59708 0.32697 0.43549 0.0
C2062 C 0.57969 0.36794 0.33854 0.0
C2063 C 0.58731 0.39693 0.33064 0.0
C2064 C 0.58214 0.35798 0.36229 0.0
C2065 C 0.59206 0.37693 0.37889 0.0
C2066 C 0.60003 0.40562 0.37087 0.0
C2067 C 0.59781 0.41538 0.34701 0.0
H2068 H 0.70677 0.87458 0.45846 0.0
H2069 H 0.65125 0.9189 0.45156 0.0
H2070 H 0.7048 0.85648 0.41722 0.0
H2071 H 0.6492 0.89996 0.40996 0.0
H2072 H 0.65127 0.82451 0.34385 0.0
H2073 H 0.64952 0.84328 0.38549 0.0
H2074 H 0.70425 0.88935 0.37715 0.0
H2075 H 0.7059 0.8714 0.33584 0.0
C2076 C 0.694 0.88019 0.44827 0.0
C2077 C 0.67919 0.89837 0.4584 0.0
C2078 C 0.69294 0.86986 0.42455 0.0
C2079 C 0.67691 0.87695 0.41031 0.0
C2080 C 0.66171 0.8941 0.42056 0.0
C2081 C 0.66292 0.90499 0.44433 0.0
C2082 C 0.66281 0.83893 0.35086 0.0
C2083 C 0.67874 0.84634 0.33646 0.0
C2084 C 0.66177 0.84973 0.37465 0.0
C2085 C 0.67682 0.86759 0.3846 0.0
C2086 C 0.69251 0.87542 0.37005 0.0
C2087 C 0.69339 0.86518 0.3463 0.0
H2088 H 0.55767 0.8777 0.95721 0.0
H2089 H 0.61244 0.83099 0.95038 0.0
H2090 H 0.55956 0.89473 0.91572 0.0
H2091 H 0.61443 0.84886 0.90851 0.0
H2092 H 0.61268 0.92216 0.84083 0.0
H2093 H 0.61467 0.90477 0.88283 0.0
H2094 H 0.55919 0.86067 0.87625 0.0
H2095 H 0.55729 0.87721 0.83464 0.0
C2096 C 0.57027 0.87135 0.94699 0.0
C2097 C 0.58487 0.85278 0.95724 0.0
C2098 C 0.57129 0.88107 0.92312 0.0
C2099 C 0.58707 0.873 0.90879 0.0
C2100 C 0.60211 0.85551 0.91916 0.0
C2101 C 0.60094 0.84523 0.94309 0.0
C2102 C 0.60102 0.90846 0.8483 0.0
C2103 C 0.58481 0.90119 0.83428 0.0
C2104 C 0.60219 0.89845 0.87231 0.0
C2105 C 0.58701 0.88155 0.88287 0.0
C2106 C 0.57104 0.87387 0.8687 0.0
C2107 C 0.57002 0.88331 0.84476 0.0
H2108 H 0.68317 0.35467 0.96103 0.0
H2109 H 0.66031 0.44577 0.94104 0.0
H2110 H 0.68077 0.33708 0.91955 0.0
H2111 H 0.65793 0.42812 0.89943 0.0
H2112 H 0.68356 0.39729 0.82557 0.0
H2113 H 0.6811 0.41496 0.86701 0.0
H2114 H 0.65757 0.32434 0.88696 0.0
H2115 H 0.66002 0.3066 0.84538 0.0
C2116 C 0.67743 0.37087 0.94784 0.0
C2117 C 0.67196 0.40169 0.95443 0.0
C2118 C 0.67596 0.3607 0.92403 0.0
C2119 C 0.6692 0.38118 0.90607 0.0
C2120 C 0.66335 0.41181 0.91274 0.0
C2121 C 0.6646 0.42186 0.93664 0.0
C2122 C 0.67764 0.38121 0.83871 0.0
C2123 C 0.67201 0.35048 0.83208 0.0
C2124 C 0.67614 0.39143 0.8625 0.0
C2125 C 0.66919 0.37107 0.8804 0.0
C2126 C 0.66315 0.34055 0.87368 0.0
C2127 C 0.66443 0.33045 0.8498 0.0
H2128 H 0.41176 0.55311 0.69096 0.0
H2129 H 0.43171 0.6458 0.71179 0.0
H2130 H 0.40979 0.57066 0.64931 0.0
H2131 H 0.42966 0.66329 0.67024 0.0
H2132 H 0.40884 0.6919 0.59567 0.0
H2133 H 0.4062 0.67377 0.63708 0.0
H2134 H 0.43377 0.58603 0.61787 0.0
H2135 H 0.43649 0.60413 0.57652 0.0
C2136 C 0.41548 0.57734 0.68673 0.0
C2137 C 0.42192 0.59803 0.70475 0.0
C2138 C 0.41447 0.58732 0.66283 0.0
C2139 C 0.41961 0.61836 0.65642 0.0
C2140 C 0.42543 0.63932 0.67457 0.0
C2141 C 0.42669 0.62923 0.6984 0.0
C2142 C 0.41413 0.66858 0.60019 0.0
C2143 C 0.42292 0.64951 0.58273 0.0
C2144 C 0.41273 0.65828 0.62398 0.0
C2145 C 0.41983 0.62849 0.63082 0.0
C2146 C 0.42801 0.60899 0.61318 0.0
C2147 C 0.42964 0.61944 0.58948 0.0
H2148 H 0.3113 0.18586 0.69417 0.0
H2149 H 0.35562 0.11794 0.70942 0.0
H2150 H 0.31111 0.16985 0.65238 0.0
H2151 H 0.35481 0.10012 0.6676 0.0
H2152 H 0.35656 0.0873 0.58585 0.0
H2153 H 0.36066 0.10857 0.62634 0.0
H2154 H 0.29997 0.12881 0.62928 0.0
H2155 H 0.2962 0.10926 0.58892 0.0
C2156 C 0.3211 0.16752 0.68842 0.0
C2157 C 0.33352 0.15322 0.70489 0.0
C2158 C 0.32085 0.15795 0.66447 0.0
C2159 C 0.33268 0.13313 0.6564 0.0
C2160 C 0.34558 0.11943 0.67292 0.0
C2161 C 0.34603 0.1295 0.69692 0.0
C2162 C 0.34418 0.09665 0.59514 0.0
C2163 C 0.32609 0.09683 0.58398 0.0
C2164 C 0.34648 0.10865 0.61847 0.0
C2165 C 0.3307 0.12079 0.63129 0.0
C2166 C 0.31264 0.12064 0.61999 0.0
C2167 C 0.31042 0.10914 0.59671 0.0
H2168 H 0.40632 0.14803 0.08305 0.0
H2169 H 0.46782 0.14061 0.08889 0.0
H2170 H 0.403 0.12597 0.1234 0.0
H2171 H 0.46477 0.1209 0.12921 0.0
H2172 H 0.45762 0.0625 0.19386 0.0
H2173 H 0.45756 0.07867 0.15223 0.0
H2174 H 0.40604 0.13326 0.16458 0.0
H2175 H 0.40548 0.11446 0.20612 0.0
C2176 C 0.41911 0.14178 0.09298 0.0
C2177 C 0.43731 0.14566 0.0826 0.0
C2178 C 0.41725 0.12935 0.11623 0.0
C2179 C 0.43359 0.12109 0.12982 0.0
C2180 C 0.45174 0.12571 0.11934 0.0
C2181 C 0.45354 0.13736 0.09609 0.0
C2182 C 0.44614 0.07758 0.18752 0.0
C2183 C 0.43158 0.08727 0.20312 0.0
C2184 C 0.4462 0.08732 0.16364 0.0
C2185 C 0.43206 0.1081 0.1548 0.0
C2186 C 0.41714 0.11715 0.17045 0.0
C2187 C 0.41681 0.10656 0.19432 0.0
H2188 H 0.3579 0.64153 0.20434 0.0
H2189 H 0.29667 0.65167 0.19761 0.0
H2190 H 0.35936 0.61977 0.16366 0.0
H2191 H 0.29806 0.63267 0.15691 0.0
H2192 H 0.29923 0.57045 0.09359 0.0
H2193 H 0.30056 0.58885 0.13452 0.0
H2194 H 0.35768 0.62535 0.12231 0.0
H2195 H 0.35667 0.60414 0.08142 0.0
C2196 C 0.34481 0.63939 0.19405 0.0
C2197 C 0.32713 0.64771 0.20432 0.0
C2198 C 0.3456 0.6271 0.17063 0.0
C2199 C 0.32877 0.62362 0.15676 0.0
C2200 C 0.31129 0.63345 0.16699 0.0
C2201 C 0.31047 0.64474 0.19044 0.0
C2202 C 0.31211 0.58231 0.09969 0.0
C2203 C 0.32775 0.58619 0.08425 0.0
C2204 C 0.31285 0.59329 0.12323 0.0
C2205 C 0.32903 0.60964 0.13196 0.0
C2206 C 0.34495 0.61288 0.11653 0.0
C2207 C 0.34439 0.6009 0.093 0.0
H2208 H 0.10006 0.18305 0.05836 0.0
H2209 H 0.12773 0.20314 0.99103 0.0
H2210 H 0.11452 0.13014 0.05856 0.0
H2211 H 0.14171 0.14995 0.99091 0.0
H2212 H 0.13983 0.038 0.98935 0.0
H2213 H 0.12567 0.09106 0.99004 0.0
H2214 H 0.15167 0.10848 0.05886 0.0
H2215 H 0.16635 0.05574 0.05786 0.0
C2216 C 0.1092 0.17612 0.04361 0.0
C2217 C 0.11282 0.19715 0.02469 0.0
C2218 C 0.11749 0.14594 0.04377 0.0
C2219 C 0.12917 0.13601 0.02472 0.0
C2220 C 0.13268 0.15701 1.00574 0.0
C2221 C 0.12476 0.18742 1.00587 0.0
C2222 C 0.14249 0.05317 1.00462 0.0
C2223 C 0.15418 0.04283 0.02355 0.0
C2224 C 0.13446 0.0835 1.00496 0.0
C2225 C 0.13759 0.10379 0.0245 0.0
C2226 C 0.14898 0.09322 0.04364 0.0
C2227 C 0.1574 0.06315 0.04303 0.0
H2228 H 0.08829 0.07196 0.24798 0.0
H2229 H 0.13999 0.03181 0.27758 0.0
H2230 H 0.10368 0.12401 0.24658 0.0
H2231 H 0.15539 0.08367 0.27616 0.0
H2232 H 0.18275 0.17474 0.24739 0.0
H2233 H 0.16698 0.1231 0.24624 0.0
H2234 H 0.1157 0.16461 0.2759 0.0
H2235 H 0.13153 0.21627 0.27708 0.0
C2236 C 0.10296 0.07425 0.25407 0.0
C2237 C 0.11295 0.04786 0.26288 0.0
C2238 C 0.11174 0.10406 0.25339 0.0
C2239 C 0.13077 0.10799 0.26125 0.0
C2240 C 0.1408 0.08141 0.26974 0.0
C2241 C 0.13195 0.05173 0.27066 0.0
C2242 C 0.16808 0.17283 0.25358 0.0
C2243 C 0.15837 0.19948 0.26238 0.0
C2244 C 0.15908 0.14324 0.25302 0.0
C2245 C 0.14009 0.13971 0.26103 0.0
C2246 C 0.13027 0.16657 0.26941 0.0
C2247 C 0.13936 0.19611 0.2702 0.0
H2248 H 0.91789 0.81633 0.97892 0.0
H2249 H 0.89027 0.79784 0.04655 0.0
H2250 H 0.90267 0.86873 0.97751 0.0
H2251 H 0.8756 0.85042 0.04547 0.0
H2252 H 0.87517 0.96164 0.04529 0.0
H2253 H 0.89076 0.90974 0.04517 0.0
H2254 H 0.86495 0.88879 0.9768 0.0
H2255 H 0.84883 0.94045 0.97723 0.0
C2256 C 0.90863 0.82353 0.99348 0.0
C2257 C 0.90522 0.80309 1.01283 0.0
C2258 C 0.89991 0.85338 0.99264 0.0
C2259 C 0.88802 0.86355 1.01142 0.0
C2260 C 0.88478 0.84318 0.03084 0.0
C2261 C 0.89311 0.81311 0.0314 0.0
C2262 C 0.87287 0.94599 0.03021 0.0
C2263 C 0.86078 0.95498 1.01129 0.0
C2264 C 0.88174 0.91631 0.03018 0.0
C2265 C 0.87904 0.89535 1.01097 0.0
C2266 C 0.86731 0.90462 0.99176 0.0
C2267 C 0.85807 0.93405 0.99205 0.0
H2268 H 0.87587 0.97269 0.78352 0.0
H2269 H 0.93009 0.92829 0.76842 0.0
H2270 H 0.86062 0.921 0.786 0.0
H2271 H 0.91485 0.87679 0.76838 0.0
H2272 H 0.88768 0.78373 0.7847 0.0
H2273 H 0.90246 0.83562 0.78754 0.0
H2274 H 0.84837 0.87872 0.76765 0.0
H2275 H 0.83347 0.82679 0.76741 0.0
C2276 C 0.88443 0.95173 0.78039 0.0
C2277 C 0.90411 0.95435 0.77584 0.0
C2278 C 0.87569 0.92193 0.78156 0.0
C2279 C 0.8863 0.89403 0.77731 0.0
C2280 C 0.90606 0.89714 0.77246 0.0
C2281 C 0.91488 0.92683 0.77218 0.0
C2282 C 0.87902 0.80447 0.78118 0.0
C2283 C 0.8595 0.80137 0.77578 0.0
C2284 C 0.88751 0.83441 0.7825 0.0
C2285 C 0.87686 0.86204 0.77749 0.0
C2286 C 0.85718 0.85855 0.77214 0.0
C2287 C 0.84857 0.82865 0.77172 0.0
H2288 H 0.09473 0.67879 0.5584 0.0
H2289 H 0.12025 0.69264 0.48886 0.0
H2290 H 0.10845 0.62535 0.56008 0.0
H2291 H 0.13352 0.63913 0.4903 0.0
H2292 H 0.13528 0.52938 0.49243 0.0
H2293 H 0.11951 0.58119 0.49184 0.0
H2294 H 0.14407 0.60294 0.56081 0.0
H2295 H 0.16005 0.55136 0.56124 0.0
C2296 C 0.10317 0.67033 0.54345 0.0
C2297 C 0.10649 0.68981 0.52352 0.0
C2298 C 0.11104 0.63986 0.54444 0.0
C2299 C 0.12198 0.62812 0.52527 0.0
C2300 C 0.12501 0.64749 0.50522 0.0
C2301 C 0.1175 0.67813 0.50446 0.0
C2302 C 0.13718 0.54517 0.50752 0.0
C2303 C 0.149 0.53653 0.52679 0.0
C2304 C 0.12824 0.57481 0.50713 0.0
C2305 C 0.13062 0.59606 0.52626 0.0
C2306 C 0.14194 0.58696 0.54589 0.0
C2307 C 0.15118 0.55758 0.54605 0.0
H2308 H 0.16809 0.67969 0.7298 0.0
H2309 H 0.14092 0.70069 0.79729 0.0
H2310 H 0.15263 0.62752 0.72942 0.0
H2311 H 0.12594 0.6483 0.79722 0.0
H2312 H 0.12503 0.53724 0.79949 0.0
H2313 H 0.14022 0.58948 0.79855 0.0
H2314 H 0.11595 0.60652 0.72869 0.0
H2315 H 0.10041 0.55448 0.72983 0.0
C2316 C 0.15883 0.67313 0.74453 0.0
C2317 C 0.15567 0.69419 0.76356 0.0
C2318 C 0.14996 0.64337 0.74427 0.0
C2319 C 0.13815 0.6339 0.76333 0.0
C2320 C 0.13506 0.65497 0.78238 0.0
C2321 C 0.14357 0.68495 0.78237 0.0
C2322 C 0.123 0.55211 0.78392 0.0
C2323 C 0.1115 0.54191 0.76478 0.0
C2324 C 0.1316 0.58202 0.78343 0.0
C2325 C 0.12922 0.60201 0.76357 0.0
C2326 C 0.11807 0.59151 0.74417 0.0
C2327 C 0.10912 0.56185 0.74488 0.0
H2328 H 0.87868 0.46213 0.54386 0.0
H2329 H 0.84881 0.43823 0.47863 0.0
H2330 H 0.89418 0.41019 0.54373 0.0
H2331 H 0.86485 0.38648 0.47815 0.0
H2332 H 0.91869 0.31483 0.47825 0.0
H2333 H 0.90308 0.36692 0.47661 0.0
H2334 H 0.87863 0.3507 0.5464 0.0
H2335 H 0.89367 0.29844 0.54775 0.0
C2336 C 0.87557 0.44586 0.52939 0.0
C2337 C 0.86253 0.45411 0.51128 0.0
C2338 C 0.88439 0.41617 0.52937 0.0
C2339 C 0.88069 0.39445 0.51093 0.0
C2340 C 0.86798 0.40293 0.49249 0.0
C2341 C 0.85878 0.4324 0.49283 0.0
C2342 C 0.90991 0.32242 0.49316 0.0
C2343 C 0.90736 0.30268 0.51312 0.0
C2344 C 0.90096 0.35207 0.49218 0.0
C2345 C 0.88972 0.36273 0.51141 0.0
C2346 C 0.88729 0.34304 0.53141 0.0
C2347 C 0.89585 0.31317 0.53213 0.0
H2348 H 0.88998 0.27934 0.28138 0.0
H2349 H 0.83525 0.32378 0.26947 0.0
H2350 H 0.90523 0.33101 0.28369 0.0
H2351 H 0.85042 0.37535 0.26917 0.0
H2352 H 0.87822 0.46833 0.28501 0.0
H2353 H 0.86342 0.41644 0.28778 0.0
H2354 H 0.91689 0.37352 0.26534 0.0
H2355 H 0.93186 0.42534 0.26516 0.0
C2356 C 0.8813 0.30032 0.27888 0.0
C2357 C 0.86149 0.29769 0.27527 0.0
C2358 C 0.89004 0.33013 0.27994 0.0
C2359 C 0.87927 0.35807 0.27649 0.0
C2360 C 0.85936 0.35497 0.2726 0.0
C2361 C 0.85057 0.32524 0.27246 0.0
C2362 C 0.88674 0.44762 0.28089 0.0
C2363 C 0.90612 0.45074 0.27483 0.0
C2364 C 0.87823 0.41768 0.28218 0.0
C2365 C 0.8887 0.39009 0.27651 0.0
C2366 C 0.90822 0.39362 0.27039 0.0
C2367 C 0.91686 0.42349 0.27 0.0
H2368 H 0.62473 0.03025 0.53719 0.0
H2369 H 0.68024 0.07156 0.52468 0.0
H2370 H 0.61061 0.08274 0.5398 0.0
H2371 H 0.66619 0.12394 0.5246 0.0
H2372 H 0.64051 0.21896 0.53889 0.0
H2373 H 0.65428 0.16635 0.54217 0.0
H2374 H 0.59945 0.12586 0.52222 0.0
H2375 H 0.58558 0.17844 0.52165 0.0
C2376 C 0.63384 0.05073 0.53467 0.0
C2377 C 0.65354 0.04694 0.53079 0.0
C2378 C 0.62574 0.08105 0.53587 0.0
C2379 C 0.63703 0.10842 0.53226 0.0
C2380 C 0.65684 0.10413 0.52817 0.0
C2381 C 0.66499 0.07389 0.52791 0.0
C2382 C 0.63147 0.19861 0.53549 0.0
C2383 C 0.61203 0.20268 0.53003 0.0
C2384 C 0.63938 0.16822 0.53705 0.0
C2385 C 0.62824 0.14103 0.53219 0.0
C2386 C 0.60866 0.14555 0.52669 0.0
C2387 C 0.60062 0.17589 0.52608 0.0
H2388 H 0.62513 0.21616 0.77165 0.0
H2389 H 0.67843 0.17862 0.74477 0.0
H2390 H 0.61086 0.16339 0.76995 0.0
H2391 H 0.6642 0.12564 0.74326 0.0
H2392 H 0.63793 0.03298 0.77571 0.0
H2393 H 0.65243 0.08559 0.7735 0.0
H2394 H 0.60106 0.1216 0.7401 0.0
H2395 H 0.58663 0.06886 0.74215 0.0
C2396 C 0.63376 0.19663 0.76525 0.0
C2397 C 0.65291 0.2015 0.75841 0.0
C2398 C 0.62556 0.16642 0.76417 0.0
C2399 C 0.63639 0.14025 0.75652 0.0
C2400 C 0.65552 0.14523 0.74944 0.0
C2401 C 0.66364 0.17557 0.75021 0.0
C2402 C 0.6298 0.0521 0.76775 0.0
C2403 C 0.61112 0.04684 0.75919 0.0
C2404 C 0.63814 0.0822 0.76638 0.0
C2405 C 0.6279 0.10784 0.75667 0.0
C2406 C 0.60927 0.10244 0.74787 0.0
C2407 C 0.60103 0.07222 0.74897 0.0
H2408 H 0.39031 0.7974 0.55065 0.0
H2409 H 0.41469 0.81366 0.48077 0.0
H2410 H 0.37573 0.84998 0.54978 0.0
H2411 H 0.39961 0.86616 0.47965 0.0
H2412 H 0.34622 0.93741 0.48073 0.0
H2413 H 0.36305 0.88646 0.48019 0.0
H2414 H 0.38909 0.90864 0.54822 0.0
H2415 H 0.37267 0.95982 0.5485 0.0
C2416 C 0.39251 0.81224 0.53509 0.0
C2417 C 0.4036 0.80154 0.51578 0.0
C2418 C 0.38424 0.84233 0.53465 0.0
C2419 C 0.38656 0.86208 0.51466 0.0
C2420 C 0.39756 0.85132 0.49522 0.0
C2421 C 0.40621 0.82141 0.4959 0.0
C2422 C 0.35566 0.93144 0.49545 0.0
C2423 C 0.35814 0.95246 0.51468 0.0
C2424 C 0.36533 0.90242 0.49508 0.0
C2425 C 0.37732 0.89366 0.51418 0.0
C2426 C 0.37986 0.91479 0.53333 0.0
C2427 C 0.37052 0.94405 0.53346 0.0
H2428 H 0.42535 0.92314 0.2935 0.0
H2429 H 0.37702 0.95979 0.25402 0.0
H2430 H 0.4105 0.87063 0.29387 0.0
H2431 H 0.36219 0.90746 0.25435 0.0
H2432 H 0.33236 0.81884 0.28307 0.0
H2433 H 0.34779 0.87055 0.2839 0.0
H2434 H 0.40168 0.82726 0.26476 0.0
H2435 H 0.38613 0.77524 0.26416 0.0
C2436 C 0.41156 0.91995 0.28491 0.0
C2437 C 0.40232 0.94552 0.27373 0.0
C2438 C 0.40311 0.88987 0.28501 0.0
C2439 C 0.38516 0.88486 0.27415 0.0
C2440 C 0.37593 0.91058 0.26309 0.0
C2441 C 0.38445 0.94053 0.2628 0.0
C2442 C 0.34752 0.82028 0.27929 0.0
C2443 C 0.35805 0.79297 0.27373 0.0
C2444 C 0.35634 0.84997 0.27954 0.0
C2445 C 0.37597 0.85306 0.27437 0.0
C2446 C 0.38658 0.82564 0.26903 0.0
C2447 C 0.37767 0.79591 0.26855 0.0
H2448 H 0.58457 0.68102 0.04287 0.0
H2449 H 0.63779 0.71899 1.01605 0.0
H2450 H 0.59887 0.62823 0.04438 0.0
H2451 H 0.65216 0.66619 1.01769 0.0
H2452 H 0.67597 0.57115 0.04609 0.0
H2453 H 0.66184 0.62417 0.04779 0.0
H2454 H 0.61049 0.58869 1.01396 0.0
H2455 H 0.62465 0.53588 1.01214 0.0
C2456 C 0.59936 0.67809 0.03743 0.0
C2457 C 0.61007 0.70407 0.02928 0.0
C2458 C 0.60752 0.64785 0.03819 0.0
C2459 C 0.62664 0.64301 0.03112 0.0
C2460 C 0.63745 0.66919 0.02345 0.0
C2461 C 0.62921 0.69937 0.02239 0.0
C2462 C 0.66164 0.57471 0.03912 0.0
C2463 C 0.65141 0.54945 0.02891 0.0
C2464 C 0.65359 0.60506 0.03999 0.0
C2465 C 0.63506 0.61064 0.03097 0.0
C2466 C 0.62472 0.58513 0.02125 0.0
C2467 C 0.63285 0.55492 0.02011 0.0
H2468 H 0.67601 0.6764 0.24493 0.0
H2469 H 0.62689 0.71121 0.28371 0.0
H2470 H 0.66101 0.62408 0.24226 0.0
H2471 H 0.61185 0.65912 0.28091 0.0
H2472 H 0.58302 0.57042 0.24932 0.0
H2473 H 0.59819 0.62264 0.24948 0.0
H2474 H 0.6518 0.58017 0.27089 0.0
H2475 H 0.63657 0.52801 0.27088 0.0
C2476 C 0.662 0.67286 0.25283 0.0
C2477 C 0.65263 0.69781 0.26459 0.0
C2478 C 0.65345 0.64292 0.25138 0.0
C2479 C 0.63523 0.63746 0.26135 0.0
C2480 C 0.6258 0.66262 0.27283 0.0
C2481 C 0.63445 0.6924 0.27455 0.0
C2482 C 0.59807 0.57227 0.25394 0.0
C2483 C 0.60862 0.54519 0.26014 0.0
C2484 C 0.60673 0.60216 0.25415 0.0
C2485 C 0.62619 0.60556 0.26025 0.0
C2486 C 0.63683 0.57832 0.26593 0.0
C2487 C 0.6281 0.54849 0.26603 0.0
H2488 H 0.34732 0.42848 0.98057 0.0
H2489 H 0.37433 0.4499 0.04815 0.0
H2490 H 0.36324 0.37674 0.98008 0.0
H2491 H 0.38986 0.39794 0.04794 0.0
H2492 H 0.39334 0.28737 0.05007 0.0
H2493 H 0.37761 0.33919 0.0497 0.0
H2494 H 0.39895 0.356 0.97838 0.0
H2495 H 0.41492 0.30438 0.97891 0.0
C2496 C 0.35665 0.4221 0.9953 0.0
C2497 C 0.35962 0.44319 1.01438 0.0
C2498 C 0.36578 0.39257 0.99498 0.0
C2499 C 0.37774 0.38329 1.014 0.0
C2500 C 0.38062 0.40438 0.03312 0.0
C2501 C 0.37181 0.43414 0.03319 0.0
C2502 C 0.39462 0.30212 0.03431 0.0
C2503 C 0.40542 0.29193 1.01457 0.0
C2504 C 0.38572 0.33181 0.03415 0.0
C2505 C 0.38709 0.35165 1.01404 0.0
C2506 C 0.39758 0.34117 0.99409 0.0
C2507 C 0.40681 0.31172 0.99444 0.0
H2508 H 0.39067 0.27745 0.76732 0.0
H2509 H 0.33695 0.31785 0.79028 0.0
H2510 H 0.40534 0.33013 0.76796 0.0
H2511 H 0.35157 0.37024 0.79119 0.0
H2512 H 0.37768 0.46068 0.75849 0.0
H2513 H 0.36381 0.40778 0.76056 0.0
H2514 H 0.41464 0.37391 0.7965 0.0
H2515 H 0.42855 0.42712 0.79443 0.0
C2516 C 0.38206 0.29755 0.77268 0.0
C2517 C 0.3627 0.29357 0.77882 0.0
C2518 C 0.39047 0.32765 0.77318 0.0
C2519 C 0.3796 0.35437 0.77957 0.0
C2520 C 0.36028 0.3502 0.78597 0.0
C2521 C 0.35194 0.32014 0.78564 0.0
C2522 C 0.38586 0.44197 0.76691 0.0
C2523 C 0.40418 0.44797 0.77628 0.0
C2524 C 0.37788 0.4117 0.7682 0.0
C2525 C 0.38811 0.38664 0.77872 0.0
C2526 C 0.40648 0.39267 0.78811 0.0
C2527 C 0.41439 0.42311 0.78703 0.0
H2528 H 0.03155 0.02582 0.16053 0.0
H2529 H 0.05322 0.09613 0.20987 0.0
H2530 H 0.0279 0.06649 0.12988 0.0
H2531 H 0.04958 0.13659 0.17921 0.0
H2532 H 0.02866 0.2061 0.12481 0.0
H2533 H 0.02428 0.16429 0.15427 0.0
H2534 H 0.05313 0.09836 0.10754 0.0
H2535 H 0.0575 0.14006 0.07794 0.0
C2536 C 0.03531 0.04999 0.16491 0.0
C2537 C 0.04283 0.05785 0.18747 0.0
C2538 C 0.03325 0.07315 0.14738 0.0
C2539 C 0.03848 0.10449 0.15228 0.0
C2540 C 0.04525 0.11258 0.17513 0.0
C2541 C 0.04747 0.08941 0.19259 0.0
C2542 C 0.03383 0.18258 0.12065 0.0
C2543 C 0.04367 0.17637 0.09925 0.0
C2544 C 0.03133 0.15875 0.13752 0.0
C2545 C 0.03849 0.12834 0.13315 0.0
C2546 C 0.04736 0.12165 0.1112 0.0
C2547 C 0.04997 0.14553 0.09436 0.0
H2548 H 0.24052 0.06383 0.08715 0.0
H2549 H 0.21664 0.03091 0.15407 0.0
H2550 H 0.24622 0.11554 0.10481 0.0
H2551 H 0.22224 0.08293 0.17163 0.0
H2552 H 0.24584 0.17347 0.20116 0.0
H2553 H 0.24795 0.1212 0.18315 0.0
H2554 H 0.22362 0.15789 0.11768 0.0
H2555 H 0.22162 0.21036 0.13557 0.0
C2556 C 0.23664 0.06752 0.10571 0.0
C2557 C 0.22791 0.04344 0.11919 0.0
C2558 C 0.23989 0.09715 0.11574 0.0
C2559 C 0.23454 0.10321 0.13946 0.0
C2560 C 0.22664 0.07873 0.15332 0.0
C2561 C 0.22334 0.04904 0.14325 0.0
C2562 C 0.2412 0.17053 0.18279 0.0
C2563 C 0.23331 0.19589 0.16983 0.0
C2564 C 0.24236 0.14058 0.17256 0.0
C2565 C 0.23576 0.13553 0.14918 0.0
C2566 C 0.22892 0.16124 0.13573 0.0
C2567 C 0.2277 0.19123 0.14599 0.0
H2568 H 0.98509 0.81633 0.93624 0.0
H2569 H 0.97053 0.75545 0.87675 0.0
H2570 H 0.98619 0.86139 0.90955 0.0
H2571 H 0.97215 0.80077 0.84974 0.0
H2572 H 0.94461 0.89545 0.82408 0.0
H2573 H 0.9511 0.84613 0.8448 0.0
H2574 H 1.00185 0.88736 0.87646 0.0
H2575 H 0.99503 0.93718 0.85623 0.0
C2576 C 0.98247 0.81246 0.91736 0.0
C2577 C 0.97739 0.78248 0.90863 0.0
C2578 C 0.9833 0.83828 0.902 0.0
C2579 C 0.97914 0.83464 0.87757 0.0
C2580 C 0.97516 0.8043 0.86857 0.0
C2581 C 0.9743 0.77838 0.88399 0.0
C2582 C 0.95725 0.89392 0.83529 0.0
C2583 C 0.96913 0.92029 0.83892 0.0
C2584 C 0.96109 0.86553 0.84695 0.0
C2585 C 0.97694 0.86294 0.86234 0.0
C2586 C 0.98938 0.88886 0.86497 0.0
C2587 C 0.98547 0.91734 0.85341 0.0
H2588 H 0.77054 0.81249 0.85326 0.0
H2589 H 0.82677 0.84578 0.83272 0.0
H2590 H 0.76379 0.86357 0.87162 0.0
H2591 H 0.82017 0.89649 0.85154 0.0
H2592 H 0.80004 0.99141 0.8756 0.0
H2593 H 0.80041 0.94458 0.85002 0.0
H2594 H 0.77607 0.88934 0.9075 0.0
H2595 H 0.77533 0.93596 0.93278 0.0
C2596 C 0.78143 0.83072 0.85262 0.0
C2597 C 0.79928 0.82504 0.84187 0.0
C2598 C 0.77755 0.85993 0.86312 0.0
C2599 C 0.79146 0.88393 0.86306 0.0
C2600 C 0.80907 0.87858 0.85158 0.0
C2601 C 0.81293 0.8494 0.84106 0.0
C2602 C 0.79441 0.96939 0.88257 0.0
C2603 C 0.7879 0.96719 0.90627 0.0
C2604 C 0.79473 0.9426 0.86798 0.0
C2605 C 0.78845 0.9133 0.87686 0.0
C2606 C 0.78086 0.91163 0.90008 0.0
C2607 C 0.78058 0.93832 0.91463 0.0
H2608 H 0.08788 0.68821 0.61557 0.0
H2609 H 0.02613 0.69703 0.61334 0.0
H2610 H 0.08488 0.64445 0.64372 0.0
H2611 H 0.02323 0.65327 0.64153 0.0
H2612 H 0.02913 0.54959 0.66956 0.0
H2613 H 0.03063 0.59415 0.6418 0.0
H2614 H 0.07319 0.639 0.68658 0.0
H2615 H 0.07179 0.59467 0.71427 0.0
C2616 C 0.07369 0.6808 0.62107 0.0
C2617 C 0.05724 0.69606 0.61238 0.0
C2618 C 0.07199 0.65592 0.63724 0.0
C2619 C 0.05383 0.64576 0.64479 0.0
C2620 C 0.03737 0.66066 0.63584 0.0
C2621 C 0.03906 0.68573 0.61982 0.0
C2622 C 0.03868 0.56909 0.67354 0.0
C2623 C 0.0504 0.56864 0.69397 0.0
C2624 C 0.03948 0.59455 0.65774 0.0
C2625 C 0.05213 0.61971 0.66206 0.0
C2626 C 0.06351 0.6196 0.68276 0.0
C2627 C 0.0626 0.59434 0.69864 0.0
H2628 H 0.22117 0.74133 0.62607 0.0
H2629 H 0.24035 0.68231 0.68455 0.0
H2630 H 0.2213 0.69536 0.5996 0.0
H2631 H 0.23989 0.63661 0.65852 0.0
H2632 H 0.24443 0.55894 0.60604 0.0
H2633 H 0.2527 0.60924 0.62466 0.0
H2634 H 0.20017 0.65005 0.59753 0.0
H2635 H 0.19227 0.60018 0.57826 0.0
C2636 C 0.22568 0.71869 0.63316 0.0
C2637 C 0.23043 0.71526 0.65744 0.0
C2638 C 0.22566 0.69239 0.61807 0.0
C2639 C 0.23037 0.66233 0.62706 0.0
C2640 C 0.23635 0.65945 0.65095 0.0
C2641 C 0.23644 0.68565 0.66596 0.0
C2642 C 0.23475 0.57877 0.60391 0.0
C2643 C 0.21759 0.57561 0.59103 0.0
C2644 C 0.23949 0.60754 0.61453 0.0
C2645 C 0.22704 0.63354 0.61266 0.0
C2646 C 0.21022 0.63062 0.599 0.0
C2647 C 0.20557 0.60195 0.58819 0.0
H2648 H 0.96144 0.25476 0.37527 0.0
H2649 H 0.98808 0.3124 0.42989 0.0
H2650 H 0.96256 0.29947 0.34759 0.0
H2651 H 0.9888 0.35687 0.40262 0.0
H2652 H 0.99537 0.43058 0.34753 0.0
H2653 H 1.00148 0.37935 0.366 0.0
H2654 H 0.94428 0.34895 0.34709 0.0
H2655 H 0.93834 0.3997 0.32808 0.0
C2656 C 0.96779 0.27677 0.38123 0.0
C2657 C 0.9744 0.28031 0.40482 0.0
C2658 C 0.96836 0.30234 0.36544 0.0
C2659 C 0.97563 0.33168 0.37301 0.0
C2660 C 0.9833 0.3345 0.39615 0.0
C2661 C 0.9827 0.30907 0.41188 0.0
C2662 C 0.98419 0.4128 0.34709 0.0
C2663 C 0.96626 0.41929 0.3368 0.0
C2664 C 0.9877 0.38351 0.35763 0.0
C2665 C 0.97331 0.36029 0.35815 0.0
C2666 C 0.95573 0.36624 0.34674 0.0
C2667 C 0.95225 0.39547 0.33611 0.0
H2668 H 0.77821 0.43447 0.43679 0.0
H2669 H 0.79565 0.49158 0.37644 0.0
H2670 H 0.77769 0.38793 0.41146 0.0
H2671 H 0.79467 0.44482 0.35083 0.0
H2672 H 0.82221 0.34875 0.32936 0.0
H2673 H 0.81572 0.39878 0.34908 0.0
H2674 H 0.76312 0.36049 0.37786 0.0
H2675 H 0.76987 0.30996 0.35854 0.0
C2676 C 0.78158 0.43721 0.41798 0.0
C2677 C 0.7873 0.46656 0.40867 0.0
C2678 C 0.78111 0.41054 0.40341 0.0
C2679 C 0.78631 0.4127 0.37921 0.0
C2680 C 0.79088 0.44243 0.36953 0.0
C2681 C 0.79136 0.46918 0.38415 0.0
C2682 C 0.8092 0.35102 0.33978 0.0
C2683 C 0.79668 0.32533 0.34272 0.0
C2684 C 0.80537 0.37983 0.35085 0.0
C2685 C 0.7889 0.38354 0.36501 0.0
C2686 C 0.77602 0.35816 0.36724 0.0
C2687 C 0.77989 0.32928 0.3562 0.0
H2688 H 0.59305 0.19307 0.6153 0.0
H2689 H 0.53262 0.18134 0.60081 0.0
H2690 H 0.59247 0.14719 0.64131 0.0
H2691 H 0.53218 0.1341 0.62586 0.0
H2692 H 0.5342 0.06922 0.69066 0.0
H2693 H 0.53416 0.11671 0.66598 0.0
H2694 H 0.59037 0.09205 0.63914 0.0
H2695 H 0.59077 0.04572 0.66481 0.0
C2696 C 0.57968 0.18037 0.61751 0.0
C2697 C 0.56288 0.19053 0.60609 0.0
C2698 C 0.57936 0.15397 0.63228 0.0
C2699 C 0.56232 0.13681 0.6355 0.0
C2700 C 0.54548 0.14707 0.62403 0.0
C2701 C 0.54573 0.17395 0.60959 0.0
C2702 C 0.54653 0.07413 0.67949 0.0
C2703 C 0.56252 0.05407 0.67962 0.0
C2704 C 0.54647 0.10115 0.66525 0.0
C2705 C 0.56227 0.10818 0.65061 0.0
C2706 C 0.57815 0.08773 0.6506 0.0
C2707 C 0.57835 0.0611 0.66518 0.0
H2708 H 0.73462 0.07202 0.60025 0.0
H2709 H 0.67509 0.05681 0.61812 0.0
H2710 H 0.73488 0.11973 0.62482 0.0
H2711 H 0.67554 0.10329 0.64355 0.0
H2712 H 0.67567 0.20481 0.66635 0.0
H2713 H 0.67647 0.15871 0.64047 0.0
H2714 H 0.73381 0.13729 0.66521 0.0
H2715 H 0.7333 0.18453 0.69022 0.0
C2716 C 0.72168 0.07876 0.60964 0.0
C2717 C 0.70482 0.06101 0.60726 0.0
C2718 C 0.72183 0.10592 0.62379 0.0
C2719 C 0.7052 0.11536 0.63603 0.0
C2720 C 0.68846 0.09711 0.6339 0.0
C2721 C 0.68823 0.07037 0.61947 0.0
C2722 C 0.68844 0.19024 0.6662 0.0
C2723 C 0.7044 0.19803 0.68025 0.0
C2724 C 0.68888 0.16375 0.6515 0.0
C2725 C 0.70515 0.14419 0.65094 0.0
C2726 C 0.72117 0.15213 0.66499 0.0
C2727 C 0.72085 0.17901 0.6794 0.0
H2728 H 0.42202 0.91919 0.34484 0.0
H2729 H 0.47841 0.94155 0.37221 0.0
H2730 H 0.42206 0.87016 0.36762 0.0
H2731 H 0.47823 0.89285 0.3955 0.0
H2732 H 0.47931 0.78868 0.41527 0.0
H2733 H 0.47939 0.83586 0.39026 0.0
H2734 H 0.42029 0.85362 0.4091 0.0
H2735 H 0.42003 0.80604 0.43355 0.0
C2736 C 0.43437 0.91371 0.35585 0.0
C2737 C 0.45019 0.93421 0.35686 0.0
C2738 C 0.43436 0.8857 0.36895 0.0
C2739 C 0.45012 0.87774 0.38339 0.0
C2740 C 0.46598 0.89817 0.38427 0.0
C2741 C 0.46604 0.92613 0.37106 0.0
C2742 C 0.46631 0.80259 0.41396 0.0
C2743 C 0.44967 0.79374 0.42636 0.0
C2744 C 0.4664 0.82968 0.39976 0.0
C2745 C 0.44987 0.84846 0.3978 0.0
C2746 C 0.43317 0.83938 0.41002 0.0
C2747 C 0.43305 0.81221 0.42411 0.0
H2748 H 0.28414 0.80271 0.37381 0.0
H2749 H 0.29383 0.85447 0.3083 0.0
H2750 H 0.2796 0.85223 0.39518 0.0
H2751 H 0.28831 0.90403 0.32931 0.0
H2752 H 0.30762 0.98151 0.38228 0.0
H2753 H 0.3055 0.93509 0.35682 0.0
H2754 H 0.26061 0.89739 0.40193 0.0
H2755 H 0.26351 0.94324 0.42807 0.0
C2756 C 0.2849 0.8247 0.36392 0.0
C2757 C 0.28958 0.82489 0.33955 0.0
C2758 C 0.28213 0.85311 0.37608 0.0
C2759 C 0.28368 0.88218 0.36397 0.0
C2760 C 0.28741 0.88213 0.33928 0.0
C2761 C 0.29051 0.85375 0.32723 0.0
C2762 C 0.29709 0.96353 0.38649 0.0
C2763 C 0.28593 0.96563 0.40727 0.0
C2764 C 0.29578 0.93696 0.37183 0.0
C2765 C 0.28303 0.91228 0.3775 0.0
C2766 C 0.27091 0.91558 0.39741 0.0
C2767 C 0.27248 0.94189 0.41229 0.0
H2768 H 0.52441 0.68078 0.08673 0.0
H2769 H 0.54729 0.71532 0.15378 0.0
H2770 H 0.51997 0.62872 0.10436 0.0
H2771 H 0.54305 0.66297 0.1713 0.0
H2772 H 0.52166 0.57075 0.20086 0.0
H2773 H 0.51878 0.62309 0.18307 0.0
H2774 H 0.54289 0.58755 0.11717 0.0
H2775 H 0.54558 0.53505 0.1348 0.0
C2776 C 0.52836 0.67734 0.1053 0.0
C2777 C 0.5364 0.70204 0.11884 0.0
C2778 C 0.52585 0.6475 0.11533 0.0
C2779 C 0.5313 0.64179 0.13909 0.0
C2780 C 0.53856 0.66682 0.15297 0.0
C2781 C 0.54109 0.69673 0.14292 0.0
C2782 C 0.5261 0.57397 0.18245 0.0
C2783 C 0.53405 0.54889 0.16927 0.0
C2784 C 0.52451 0.60397 0.17235 0.0
C2785 C 0.53077 0.60939 0.14887 0.0
C2786 C 0.53781 0.58396 0.13528 0.0
C2787 C 0.53943 0.55394 0.1454 0.0
H2788 H 0.66884 0.55434 0.11975 0.0
H2789 H 0.72739 0.5722 0.09853 0.0
H2790 H 0.66919 0.60184 0.14427 0.0
H2791 H 0.7275 0.62058 0.12213 0.0
H2792 H 0.72851 0.68471 0.18716 0.0
H2793 H 0.728 0.63742 0.16242 0.0
H2794 H 0.66938 0.65762 0.14222 0.0
H2795 H 0.66968 0.70409 0.16793 0.0
C2796 C 0.68172 0.56865 0.12015 0.0
C2797 C 0.69813 0.55957 0.1074 0.0
C2798 C 0.68189 0.59598 0.13406 0.0
C2799 C 0.69838 0.61501 0.13519 0.0
C2800 C 0.71469 0.60612 0.12204 0.0
C2801 C 0.7146 0.57852 0.10842 0.0
C2802 C 0.71554 0.679 0.17741 0.0
C2803 C 0.69913 0.69795 0.17944 0.0
C2804 C 0.71527 0.65203 0.1631 0.0
C2805 C 0.69867 0.64377 0.15027 0.0
C2806 C 0.6823 0.663 0.15218 0.0
C2807 C 0.68249 0.68971 0.16679 0.0
H2808 H 0.42571 0.43985 0.86206 0.0
H2809 H 0.48742 0.44954 0.85988 0.0
H2810 H 0.42897 0.39617 0.89024 0.0
H2811 H 0.49057 0.40592 0.88812 0.0
H2812 H 0.48553 0.30273 0.91668 0.0
H2813 H 0.48358 0.34689 0.88865 0.0
H2814 H 0.44069 0.39119 0.93312 0.0
H2815 H 0.44251 0.34718 0.9611 0.0
C2816 C 0.43994 0.43262 0.86755 0.0
C2817 C 0.45631 0.44813 0.8589 0.0
C2818 C 0.44178 0.4078 0.88374 0.0
C2819 C 0.46001 0.39798 0.89135 0.0
C2820 C 0.47638 0.41306 0.88238 0.0
C2821 C 0.47455 0.43804 0.86633 0.0
C2822 C 0.47581 0.32203 0.92055 0.0
C2823 C 0.46412 0.32152 0.94097 0.0
C2824 C 0.47474 0.34725 0.90457 0.0
C2825 C 0.46188 0.37213 0.90874 0.0
C2826 C 0.45052 0.37198 0.92942 0.0
C2827 C 0.45168 0.34693 0.94547 0.0
H2828 H 0.27155 0.31409 0.84751 0.0
H2829 H 0.33086 0.34195 0.83964 0.0
H2830 H 0.2637 0.36692 0.86188 0.0
H2831 H 0.32309 0.39438 0.85458 0.0
H2832 H 0.30524 0.48994 0.87603 0.0
H2833 H 0.30556 0.44443 0.84901 0.0
H2834 H 0.27183 0.39132 0.89991 0.0
H2835 H 0.27122 0.43658 0.92645 0.0
C2836 C 0.28289 0.33152 0.84878 0.0
C2837 C 0.30189 0.32377 0.84299 0.0
C2838 C 0.27837 0.36175 0.85688 0.0
C2839 C 0.29279 0.38466 0.85944 0.0
C2840 C 0.31162 0.37734 0.8525 0.0
C2841 C 0.31612 0.34716 0.84429 0.0
C2842 C 0.29746 0.4688 0.88105 0.0
C2843 C 0.28855 0.46642 0.90348 0.0
C2844 C 0.29772 0.44278 0.86568 0.0
C2845 C 0.28895 0.41427 0.87253 0.0
C2846 C 0.27862 0.413 0.89404 0.0
C2847 C 0.27844 0.43885 0.90938 0.0
H2848 H 0.12896 0.33129 0.07322 0.0
H2849 H 0.08564 0.30018 0.123 0.0
H2850 H 0.15079 0.34149 0.10686 0.0
H2851 H 0.10727 0.3095 0.15618 0.0
H2852 H 0.14705 0.33335 0.21562 0.0
H2853 H 0.12551 0.34358 0.18173 0.0
H2854 H 0.16843 0.30756 0.13319 0.0
H2855 H 0.18981 0.29824 0.16663 0.0
C2856 C 0.12397 0.32723 0.0913 0.0
C2857 C 0.10567 0.31448 0.09536 0.0
C2858 C 0.1365 0.33282 0.11061 0.0
C2859 C 0.13093 0.32601 0.13437 0.0
C2860 C 0.11213 0.31535 0.13833 0.0
C2861 C 0.09974 0.30965 0.11916 0.0
C2862 C 0.152 0.32843 0.19764 0.0
C2863 C 0.17003 0.31454 0.1939 0.0
C2864 C 0.13962 0.33403 0.17819 0.0
C2865 C 0.14508 0.32605 0.15459 0.0
C2866 C 0.16367 0.31429 0.1509 0.0
C2867 C 0.17591 0.30861 0.17023 0.0
H2868 H 0.18487 0.9106 0.11597 0.0
H2869 H 0.13494 0.93534 0.07468 0.0
H2870 H 0.16494 0.90159 0.15108 0.0
H2871 H 0.11491 0.92856 0.11004 0.0
H2872 H 0.07974 0.90993 0.17439 0.0
H2873 H 0.09977 0.90055 0.13945 0.0
H2874 H 0.14952 0.92996 0.18008 0.0
H2875 H 0.12943 0.93713 0.21532 0.0
C2876 C 0.16949 0.9135 0.11437 0.0
C2877 C 0.16139 0.92328 0.09257 0.0
C2878 C 0.15804 0.90887 0.13463 0.0
C2879 C 0.13818 0.91486 0.13388 0.0
C2880 C 0.13001 0.92318 0.11156 0.0
C2881 C 0.14148 0.92708 0.09112 0.0
C2882 C 0.09509 0.91339 0.17596 0.0
C2883 C 0.10307 0.92402 0.19761 0.0
C2884 C 0.10659 0.90851 0.15577 0.0
C2885 C 0.12639 0.91504 0.15644 0.0
C2886 C 0.13446 0.92417 0.17862 0.0
C2887 C 0.12296 0.92833 0.199 0.0
H2888 H 0.82928 0.6661 0.86487 0.0
H2889 H 0.87807 0.69331 0.82252 0.0
H2890 H 0.84998 0.65738 0.89937 0.0
H2891 H 0.89883 0.68699 0.85727 0.0
H2892 H 0.93554 0.66902 0.92053 0.0
H2893 H 0.91506 0.65978 0.88594 0.0
H2894 H 0.86554 0.68513 0.9284 0.0
H2895 H 0.88613 0.692 0.96327 0.0
C2896 C 0.84458 0.66963 0.8629 0.0
C2897 C 0.85213 0.67996 0.84097 0.0
C2898 C 0.85648 0.66519 0.88283 0.0
C2899 C 0.87623 0.67199 0.88162 0.0
C2900 C 0.88385 0.68095 0.85917 0.0
C2901 C 0.87196 0.6846 0.83906 0.0
C2902 C 0.92017 0.67167 0.92254 0.0
C2903 C 0.9124 0.68102 0.94462 0.0
C2904 C 0.90839 0.66686 0.90257 0.0
C2905 C 0.88848 0.67224 0.90386 0.0
C2906 C 0.88067 0.68022 0.92642 0.0
C2907 C 0.89247 0.68423 0.94659 0.0
H2908 H 0.87327 0.08574 0.9651 0.0
H2909 H 0.82915 0.0612 0.91422 0.0
H2910 H 0.89556 0.09535 0.93195 0.0
H2911 H 0.85123 0.06984 0.88145 0.0
H2912 H 0.89256 0.09118 0.82302 0.0
H2913 H 0.87106 0.10253 0.85674 0.0
H2914 H 0.91202 0.06054 0.9053 0.0
H2915 H 0.93333 0.05006 0.87207 0.0
C2916 C 0.8682 0.08307 0.94688 0.0
C2917 C 0.84952 0.07224 0.94236 0.0
C2918 C 0.881 0.08829 0.92784 0.0
C2919 C 0.87534 0.08298 0.90388 0.0
C2920 C 0.8562 0.07445 0.89948 0.0
C2921 C 0.84352 0.06915 0.9184 0.0
C2922 C 0.8971 0.08519 0.84099 0.0
C2923 C 0.91453 0.06933 0.84479 0.0
C2924 C 0.88474 0.09142 0.86033 0.0
C2925 C 0.88964 0.08216 0.88387 0.0
C2926 C 0.9077 0.06834 0.88764 0.0
C2927 C 0.9199 0.06201 0.86843 0.0
H2928 H 0.1303 0.80083 0.57263 0.0
H2929 H 0.08386 0.84029 0.61373 0.0
H2930 H 0.1514 0.80544 0.60721 0.0
H2931 H 0.10506 0.84662 0.64804 0.0
H2932 H 0.13911 0.80815 0.71298 0.0
H2933 H 0.11878 0.81641 0.67792 0.0
H2934 H 0.16925 0.83304 0.6348 0.0
H2935 H 0.18933 0.82292 0.66959 0.0
C2936 C 0.12481 0.81169 0.58878 0.0
C2937 C 0.10542 0.82019 0.59039 0.0
C2938 C 0.13692 0.81433 0.6088 0.0
C2939 C 0.13002 0.82604 0.63087 0.0
C2940 C 0.1109 0.83665 0.63177 0.0
C2941 C 0.09876 0.83347 0.61192 0.0
C2942 C 0.14575 0.81433 0.69611 0.0
C2943 C 0.16578 0.81485 0.69404 0.0
C2944 C 0.13411 0.81909 0.67586 0.0
C2945 C 0.14224 0.825 0.6531 0.0
C2946 C 0.16232 0.82765 0.65163 0.0
C2947 C 0.17389 0.82227 0.67171 0.0
H2948 H 0.12344 0.40835 0.71926 0.0
H2949 H 0.07904 0.4347 0.6693 0.0
H2950 H 0.14511 0.3977 0.68564 0.0
H2951 H 0.10053 0.42512 0.63608 0.0
H2952 H 0.14062 0.40391 0.57661 0.0
H2953 H 0.11948 0.39261 0.61066 0.0
H2954 H 0.16191 0.43133 0.65884 0.0
H2955 H 0.18289 0.44161 0.62528 0.0
C2956 C 0.11817 0.41117 0.70115 0.0
C2957 C 0.09961 0.42282 0.69701 0.0
C2958 C 0.13062 0.40538 0.68183 0.0
C2959 C 0.12474 0.41097 0.65797 0.0
C2960 C 0.10567 0.42026 0.65399 0.0
C2961 C 0.09334 0.42609 0.67318 0.0
C2962 C 0.14556 0.40914 0.59455 0.0
C2963 C 0.16331 0.42407 0.59816 0.0
C2964 C 0.1334 0.40296 0.61411 0.0
C2965 C 0.1388 0.4114 0.63766 0.0
C2966 C 0.15718 0.42417 0.64119 0.0
C2967 C 0.1692 0.43041 0.62179 0.0
H2968 H 0.87746 0.18969 0.32525 0.0
H2969 H 0.82804 0.16978 0.36881 0.0
H2970 H 0.89819 0.18318 0.36003 0.0
H2971 H 0.84862 0.16088 0.40338 0.0
H2972 H 0.88637 0.19587 0.46575 0.0
H2973 H 0.86532 0.18866 0.43136 0.0
H2974 H 0.9136 0.15608 0.38949 0.0
H2975 H 0.93461 0.16567 0.42358 0.0
C2976 C 0.87114 0.18258 0.34211 0.0
C2977 C 0.85119 0.1801 0.34432 0.0
C2978 C 0.88302 0.17881 0.36223 0.0
C2979 C 0.87524 0.17185 0.385 0.0
C2980 C 0.85528 0.16715 0.38657 0.0
C2981 C 0.84343 0.17173 0.36661 0.0
C2982 C 0.89229 0.18631 0.44936 0.0
C2983 C 0.91205 0.18106 0.44737 0.0
C2984 C 0.88023 0.18214 0.42946 0.0
C2985 C 0.88761 0.17209 0.40714 0.0
C2986 C 0.90729 0.16472 0.40591 0.0
C2987 C 0.91935 0.16965 0.42562 0.0
H2988 H 0.87556 0.58488 0.46383 0.0
H2989 H 0.83115 0.55783 0.41407 0.0
H2990 H 0.89745 0.59394 0.43017 0.0
H2991 H 0.85283 0.56602 0.38082 0.0
H2992 H 0.89321 0.5881 0.32141 0.0
H2993 H 0.87198 0.59908 0.35544 0.0
H2994 H 0.91398 0.55899 0.4035 0.0
H2995 H 0.93504 0.54883 0.36993 0.0
C2996 C 0.87034 0.58151 0.44575 0.0
C2997 C 0.85168 0.57021 0.44171 0.0
C2998 C 0.88291 0.58643 0.42642 0.0
C2999 C 0.87704 0.58038 0.40263 0.0
C3000 C 0.85794 0.57123 0.3987 0.0
C3001 C 0.8455 0.5662 0.41791 0.0
C3002 C 0.89804 0.58243 0.33932 0.0
C3003 C 0.9157 0.56721 0.34289 0.0
C3004 C 0.88583 0.58845 0.35885 0.0
C3005 C 0.89111 0.57963 0.38235 0.0
C3006 C 0.90937 0.56643 0.38588 0.0
C3007 C 0.92143 0.56028 0.36648 0.0
H3008 H 0.63935 0.34328 0.71568 0.0
H3009 H 0.68572 0.3221 0.66714 0.0
H3010 H 0.61856 0.35449 0.68144 0.0
H3011 H 0.66499 0.33109 0.6334 0.0
H3012 H 0.62638 0.34669 0.57189 0.0
H3013 H 0.64667 0.359 0.60654 0.0
H3014 H 0.60194 0.32556 0.65372 0.0
H3015 H 0.58172 0.31534 0.61964 0.0
C3016 C 0.64521 0.34141 0.6978 0.0
C3017 C 0.66416 0.33116 0.69436 0.0
C3018 C 0.63322 0.34746 0.67803 0.0
C3019 C 0.6398 0.34306 0.6543 0.0
C3020 C 0.65918 0.33506 0.65109 0.0
C3021 C 0.67113 0.32946 0.67071 0.0
C3022 C 0.62076 0.34298 0.58972 0.0
C3023 C 0.60256 0.3295 0.59291 0.0
C3024 C 0.63247 0.3496 0.60969 0.0
C3025 C 0.62627 0.34268 0.63326 0.0
C3026 C 0.60744 0.33155 0.63621 0.0
C3027 C 0.5958 0.32527 0.61643 0.0
H3028 H 0.68527 0.94029 0.62447 0.0
H3029 H 0.64332 0.9023 0.5754 0.0
H3030 H 0.66435 0.92967 0.65771 0.0
H3031 H 0.62244 0.88972 0.6093 0.0
H3032 H 0.58048 0.92485 0.66752 0.0
H3033 H 0.60237 0.91688 0.63476 0.0
H3034 H 0.64823 0.89901 0.68508 0.0
H3035 H 0.62619 0.9091 0.71826 0.0
C3036 C 0.67166 0.92896 0.62075 0.0
C3037 C 0.66586 0.92284 0.59702 0.0
C3038 C 0.65964 0.92242 0.64009 0.0
C3039 C 0.6414 0.90912 0.63652 0.0
C3040 C 0.63615 0.90072 0.61288 0.0
C3041 C 0.64821 0.9076 0.59335 0.0
C3042 C 0.59519 0.91885 0.67176 0.0
C3043 C 0.60162 0.9184 0.69568 0.0
C3044 C 0.60782 0.91386 0.65275 0.0
C3045 C 0.62735 0.90784 0.65693 0.0
C3046 C 0.63344 0.90452 0.68097 0.0
C3047 C 0.62075 0.90988 0.70012 0.0
H3048 H 0.42909 0.64765 0.42502 0.0
H3049 H 0.3827 0.68939 0.46497 0.0
H3050 H 0.40805 0.64106 0.39057 0.0
H3051 H 0.36188 0.68456 0.4303 0.0
H3052 H 0.32424 0.66904 0.36781 0.0
H3053 H 0.34385 0.65762 0.40283 0.0
H3054 H 0.39494 0.67092 0.36018 0.0
H3055 H 0.37502 0.68022 0.32491 0.0
C3056 C 0.41426 0.65493 0.42657 0.0
C3057 C 0.40758 0.66898 0.44782 0.0
C3058 C 0.40221 0.65157 0.40663 0.0
C3059 C 0.38319 0.66276 0.40716 0.0
C3060 C 0.37626 0.67518 0.42898 0.0
C3061 C 0.38824 0.67798 0.44906 0.0
C3062 C 0.33969 0.66852 0.36587 0.0
C3063 C 0.34813 0.67525 0.34365 0.0
C3064 C 0.351 0.66245 0.38606 0.0
C3065 C 0.37115 0.66391 0.38479 0.0
C3066 C 0.37955 0.66913 0.3621 0.0
C3067 C 0.36815 0.67449 0.34174 0.0
H3068 H 0.37374 0.06033 0.46512 0.0
H3069 H 0.32386 0.07767 0.42162 0.0
H3070 H 0.39426 0.06824 0.43034 0.0
H3071 H 0.34418 0.08784 0.38705 0.0
H3072 H 0.38254 0.05454 0.3248 0.0
H3073 H 0.36142 0.06066 0.35915 0.0
H3074 H 0.40893 0.09675 0.40086 0.0
H3075 H 0.43009 0.08845 0.36681 0.0
C3076 C 0.36725 0.06719 0.44828 0.0
C3077 C 0.34726 0.06857 0.44608 0.0
C3078 C 0.379 0.07175 0.42817 0.0
C3079 C 0.37104 0.07835 0.40542 0.0
C3080 C 0.35099 0.08192 0.40386 0.0
C3081 C 0.33929 0.07661 0.42381 0.0
C3082 C 0.38828 0.06461 0.34113 0.0
C3083 C 0.40794 0.07107 0.34309 0.0
C3084 C 0.37617 0.06815 0.36101 0.0
C3085 C 0.38335 0.07883 0.38327 0.0
C3086 C 0.40282 0.08756 0.38447 0.0
C3087 C 0.41496 0.0833 0.36478 0.0
H3088 H 0.6268 0.81851 0.07745 0.0
H3089 H 0.57617 0.83183 0.12031 0.0
H3090 H 0.64682 0.82674 0.11271 0.0
H3091 H 0.59594 0.84239 0.15533 0.0
H3092 H 0.63422 0.80972 0.2177 0.0
H3093 H 0.61342 0.81553 0.18307 0.0
H3094 H 0.66057 0.85542 0.1429 0.0
H3095 H 0.68153 0.84748 0.17725 0.0
C3096 C 0.62001 0.82444 0.09428 0.0
C3097 C 0.59998 0.82452 0.09617 0.0
C3098 C 0.63147 0.82924 0.11465 0.0
C3099 C 0.62315 0.83486 0.13733 0.0
C3100 C 0.60303 0.83718 0.13858 0.0
C3101 C 0.59163 0.83159 0.11839 0.0
C3102 C 0.63996 0.82058 0.20168 0.0
C3103 C 0.6595 0.82815 0.20023 0.0
C3104 C 0.62801 0.82394 0.18162 0.0
C3105 C 0.63521 0.83558 0.15969 0.0
C3106 C 0.65449 0.84547 0.15902 0.0
C3107 C 0.6665 0.84141 0.1789 0.0
H3108 H 0.63481 0.4159 0.06887 0.0
H3109 H 0.68162 0.42291 0.11913 0.0
H3110 H 0.6126 0.40737 0.10215 0.0
H3111 H 0.65963 0.41585 0.15215 0.0
H3112 H 0.6174 0.40168 0.21107 0.0
H3113 H 0.63753 0.38848 0.17649 0.0
H3114 H 0.59962 0.44208 0.13066 0.0
H3115 H 0.57952 0.45405 0.16455 0.0
C3116 C 0.64044 0.41481 0.08692 0.0
C3117 C 0.65995 0.42059 0.0913 0.0
C3118 C 0.62768 0.41034 0.1061 0.0
C3119 C 0.63416 0.41164 0.13007 0.0
C3120 C 0.65396 0.41457 0.13413 0.0
C3121 C 0.66663 0.4189 0.11506 0.0
C3122 C 0.61323 0.41004 0.1935 0.0
C3123 C 0.59701 0.42938 0.19074 0.0
C3124 C 0.62482 0.40267 0.17364 0.0
C3125 C 0.62039 0.41438 0.15059 0.0
C3126 C 0.60353 0.43217 0.14785 0.0
C3127 C 0.59205 0.43946 0.16753 0.0
H3128 H 0.39305 0.15881 0.96731 0.0
H3129 H 0.43688 0.18687 0.91723 0.0
H3130 H 0.37131 0.14775 0.93374 0.0
H3131 H 0.41535 0.17685 0.88408 0.0
H3132 H 0.37519 0.15577 0.82472 0.0
H3133 H 0.39652 0.14415 0.85858 0.0
H3134 H 0.35411 0.18146 0.90729 0.0
H3135 H 0.33295 0.19205 0.87391 0.0
C3136 C 0.39819 0.16188 0.94918 0.0
C3137 C 0.41658 0.17415 0.94497 0.0
C3138 C 0.3857 0.15586 0.92989 0.0
C3139 C 0.3914 0.16183 0.90604 0.0
C3140 C 0.41035 0.17168 0.90199 0.0
C3141 C 0.42271 0.17776 0.92113 0.0
C3142 C 0.37029 0.16061 0.84273 0.0
C3143 C 0.3525 0.17528 0.84656 0.0
C3144 C 0.38256 0.15424 0.86218 0.0
C3145 C 0.37722 0.16222 0.88582 0.0
C3146 C 0.3588 0.17466 0.88956 0.0
C3147 C 0.34667 0.18109 0.87026 0.0
H3148 H 0.32609 0.57285 0.92146 0.0
H3149 H 0.37694 0.55652 0.96343 0.0
H3150 H 0.34566 0.58596 0.88681 0.0
H3151 H 0.39677 0.56748 0.92847 0.0
H3152 H 0.43107 0.59377 0.86488 0.0
H3153 H 0.41019 0.5989 0.89954 0.0
H3154 H 0.36316 0.56099 0.85792 0.0
H3155 H 0.38392 0.55793 0.82304 0.0
C3156 C 0.34155 0.57253 0.92328 0.0
C3157 C 0.35003 0.56388 0.94513 0.0
C3158 C 0.35283 0.5796 0.90329 0.0
C3159 C 0.37296 0.57729 0.90436 0.0
C3160 C 0.38141 0.57004 0.92672 0.0
C3161 C 0.37006 0.56369 0.94691 0.0
C3162 C 0.41608 0.58755 0.86301 0.0
C3163 C 0.4091 0.57563 0.84119 0.0
C3164 C 0.40412 0.58998 0.88304 0.0
C3165 C 0.38491 0.57977 0.88202 0.0
C3166 C 0.37771 0.56954 0.85966 0.0
C3167 C 0.38962 0.56779 0.83947 0.0
loop_
_geom_bond_atom_site_label_1
_geom_bond_atom_site_label_2
_geom_bond_distance
_geom_bond_site_symmetry_2
_ccdc_geom_bond_type
O0 Tb1 2.292 . S
O0 C3 1.255 . S
Tb1 O0 2.292 . S
Tb1 O17 2.326 . S
Tb1 O19 2.500 . S
Tb1 O20 2.473 . S
Tb1 O23 2.324 1_556 S
Eu2 O6 2.292 . S
Eu2 C7 2.852 . S
Eu2 O18 2.324 1_554 S
Eu2 O22 2.326 . S
Eu2 O24 2.500 . S
Eu2 O25 2.473 . S
C3 O0 1.255 . S
C3 O4 1.247 . S
O4 C3 1.247 . S
C5 O17 1.242 . S
C5 O18 1.258 . S
O6 Eu2 2.292 . S
O6 C8 1.255 . S
C7 Eu2 2.852 . S
C7 C11 1.503 . S
C7 O24 1.273 . S
C7 O25 1.257 . S
C8 O6 1.255 . S
C8 O9 1.247 . S
O9 C8 1.247 . S
C10 O22 1.242 . S
C10 O23 1.258 . S
C11 C7 1.503 . S
C11 C12 1.379 . S
C11 C16 1.392 . S
C12 C11 1.379 . S
C12 C13 1.404 . S
C12 H26 0.929 . S
C13 C12 1.404 . S
C13 C14 1.389 . S
C14 C13 1.389 . S
C14 C15 1.399 . S
C14 H27 0.931 . S
C15 C14 1.399 . S
C15 C16 1.390 . S
C16 C11 1.392 . S
C16 C15 1.390 . S
C16 H28 0.929 . S
O17 Tb1 2.326 . S
O17 C5 1.242 . S
O18 Eu2 2.324 1_556 S
O18 C5 1.258 . S
O19 Tb1 2.500 . S
O19 C21 1.273 . S
O20 Tb1 2.473 . S
O20 C21 1.257 . S
C21 O19 1.273 . S
C21 O20 1.257 . S
O22 Eu2 2.326 . S
O22 C10 1.242 . S
O23 Tb1 2.324 1_554 S
O23 C10 1.258 . S
O24 Eu2 2.500 . S
O24 C7 1.273 . S
O25 Eu2 2.473 . S
O25 C7 1.257 . S
H26 C12 0.929 . S
H27 C14 0.931 . S
H28 C16 0.929 . S
O29 Tb30 2.292 . S
O29 C32 1.255 . S
Tb30 O29 2.292 . S
Tb30 O46 2.326 . S
Tb30 O48 2.500 1_565 S
Tb30 O49 2.473 1_565 S
Tb30 O52 2.324 1_556 S
Eu31 O35 2.292 1_565 S
Eu31 C36 2.852 . S
Eu31 O47 2.324 1_554 S
Eu31 O51 2.326 . S
Eu31 O53 2.500 . S
Eu31 O54 2.473 . S
C32 O29 1.255 . S
C32 O33 1.247 . S
O33 C32 1.247 . S
C34 O46 1.242 . S
C34 O47 1.258 . S
O35 Eu31 2.292 1_545 S
O35 C37 1.255 . S
C36 Eu31 2.852 . S
C36 C40 1.503 . S
C36 O53 1.273 . S
C36 O54 1.257 . S
C37 O35 1.255 . S
C37 O38 1.247 . S
O38 C37 1.247 . S
C39 O51 1.242 . S
C39 O52 1.258 . S
C40 C36 1.503 . S
C40 C41 1.379 . S
C40 C45 1.392 . S
C41 C40 1.379 . S
C41 C42 1.404 . S
C41 H55 0.929 . S
C42 C41 1.404 . S
C42 C43 1.389 . S
C43 C42 1.389 . S
C43 C44 1.399 . S
C43 H56 0.931 . S
C44 C43 1.399 . S
C44 C45 1.390 . S
C45 C40 1.392 . S
C45 C44 1.390 . S
C45 H57 0.929 . S
O46 Tb30 2.326 . S
O46 C34 1.242 . S
O47 Eu31 2.324 1_556 S
O47 C34 1.258 . S
O48 Tb30 2.500 1_545 S
O48 C50 1.273 . S
O49 Tb30 2.473 1_545 S
O49 C50 1.257 . S
C50 O48 1.273 . S
C50 O49 1.257 . S
O51 Eu31 2.326 . S
O51 C39 1.242 . S
O52 Tb30 2.324 1_554 S
O52 C39 1.258 . S
O53 Eu31 2.500 . S
O53 C36 1.273 . S
O54 Eu31 2.473 . S
O54 C36 1.257 . S
H55 C41 0.929 . S
H56 C43 0.931 . S
H57 C45 0.929 . S
O58 Tb59 2.292 . S
O58 C61 1.255 . S
Tb59 O58 2.292 . S
Tb59 O75 2.326 . S
Tb59 O77 2.500 1_565 S
Tb59 O78 2.473 1_565 S
Tb59 O81 2.324 . S
Eu60 O64 2.292 1_565 S
Eu60 C65 2.852 . S
Eu60 O76 2.324 . S
Eu60 O80 2.326 . S
Eu60 O82 2.500 . S
Eu60 O83 2.473 . S
C61 O58 1.255 . S
C61 O62 1.247 . S
O62 C61 1.247 . S
C63 O75 1.242 . S
C63 O76 1.258 . S
O64 Eu60 2.292 1_545 S
O64 C66 1.255 . S
C65 Eu60 2.852 . S
C65 C69 1.503 . S
C65 O82 1.273 . S
C65 O83 1.257 . S
C66 O64 1.255 . S
C66 O67 1.247 . S
O67 C66 1.247 . S
C68 O80 1.242 . S
C68 O81 1.258 . S
C69 C65 1.503 . S
C69 C70 1.379 . S
C69 C74 1.392 . S
C70 C69 1.379 . S
C70 C71 1.404 . S
C70 H84 0.929 . S
C71 C70 1.404 . S
C71 C72 1.389 . S
C72 C71 1.389 . S
C72 C73 1.399 . S
C72 H85 0.931 . S
C73 C72 1.399 . S
C73 C74 1.390 . S
C74 C69 1.392 . S
C74 C73 1.390 . S
C74 H86 0.929 . S
O75 Tb59 2.326 . S
O75 C63 1.242 . S
O76 Eu60 2.324 . S
O76 C63 1.258 . S
O77 Tb59 2.500 1_545 S
O77 C79 1.273 . S
O78 Tb59 2.473 1_545 S
O78 C79 1.257 . S
C79 O77 1.273 . S
C79 O78 1.257 . S
O80 Eu60 2.326 . S
O80 C68 1.242 . S
O81 Tb59 2.324 . S
O81 C68 1.258 . S
O82 Eu60 2.500 . S
O82 C65 1.273 . S
O83 Eu60 2.473 . S
O83 C65 1.257 . S
H84 C70 0.929 . S
H85 C72 0.931 . S
H86 C74 0.929 . S
O87 Tb88 2.292 . S
O87 C90 1.255 . S
Tb88 O87 2.292 . S
Tb88 O104 2.326 . S
Tb88 O106 2.500 . S
Tb88 O107 2.473 . S
Tb88 O110 2.324 . S
Eu89 O93 2.292 . S
Eu89 C94 2.852 . S
Eu89 O105 2.324 . S
Eu89 O109 2.326 . S
Eu89 O111 2.500 . S
Eu89 O112 2.473 . S
C90 O87 1.255 . S
C90 O91 1.247 . S
O91 C90 1.247 . S
C92 O104 1.242 . S
C92 O105 1.258 . S
O93 Eu89 2.292 . S
O93 C95 1.255 . S
C94 Eu89 2.852 . S
C94 C98 1.503 . S
C94 O111 1.273 . S
C94 O112 1.257 . S
C95 O93 1.255 . S
C95 O96 1.247 . S
O96 C95 1.247 . S
C97 O109 1.242 . S
C97 O110 1.258 . S
C98 C94 1.503 . S
C98 C99 1.379 . S
C98 C103 1.392 . S
C99 C98 1.379 . S
C99 C100 1.404 . S
C99 H113 0.929 . S
C100 C99 1.404 . S
C100 C101 1.389 . S
C101 C100 1.389 . S
C101 C102 1.399 . S
C101 H114 0.931 . S
C102 C101 1.399 . S
C102 C103 1.390 . S
C103 C98 1.392 . S
C103 C102 1.390 . S
C103 H115 0.929 . S
O104 Tb88 2.326 . S
O104 C92 1.242 . S
O105 Eu89 2.324 . S
O105 C92 1.258 . S
O106 Tb88 2.500 . S
O106 C108 1.273 . S
O107 Tb88 2.473 . S
O107 C108 1.257 . S
C108 O106 1.273 . S
C108 O107 1.257 . S
O109 Eu89 2.326 . S
O109 C97 1.242 . S
O110 Tb88 2.324 . S
O110 C97 1.258 . S
O111 Eu89 2.500 . S
O111 C94 1.273 . S
O112 Eu89 2.473 . S
O112 C94 1.257 . S
H113 C99 0.929 . S
H114 C101 0.931 . S
H115 C103 0.929 . S
O116 Tb117 2.292 . S
O116 C119 1.255 . S
Tb117 O116 2.292 . S
Tb117 O133 2.326 . S
Tb117 O135 2.500 . S
Tb117 O136 2.473 . S
Tb117 O139 2.324 1_554 S
Eu118 O122 2.292 . S
Eu118 C123 2.852 . S
Eu118 O134 2.324 1_556 S
Eu118 O138 2.326 . S
Eu118 O140 2.500 . S
Eu118 O141 2.473 . S
C119 O116 1.255 . S
C119 O120 1.247 . S
O120 C119 1.247 . S
C121 O133 1.242 . S
C121 O134 1.258 . S
O122 Eu118 2.292 . S
O122 C124 1.255 . S
C123 Eu118 2.852 . S
C123 C127 1.503 . S
C123 O140 1.273 . S
C123 O141 1.257 . S
C124 O122 1.255 . S
C124 O125 1.247 . S
O125 C124 1.247 . S
C126 O138 1.242 . S
C126 O139 1.258 . S
C127 C123 1.503 . S
C127 C128 1.379 . S
C127 C132 1.392 . S
C128 C127 1.379 . S
C128 C129 1.404 . S
C128 H142 0.929 . S
C129 C128 1.404 . S
C129 C130 1.389 . S
C130 C129 1.389 . S
C130 C131 1.399 . S
C130 H143 0.931 . S
C131 C130 1.399 . S
C131 C132 1.390 . S
C132 C127 1.392 . S
C132 C131 1.390 . S
C132 H144 0.929 . S
O133 Tb117 2.326 . S
O133 C121 1.242 . S
O134 Eu118 2.324 1_554 S
O134 C121 1.258 . S
O135 Tb117 2.500 . S
O135 C137 1.273 . S
O136 Tb117 2.473 . S
O136 C137 1.257 . S
C137 O135 1.273 . S
C137 O136 1.257 . S
O138 Eu118 2.326 . S
O138 C126 1.242 . S
O139 Tb117 2.324 1_556 S
O139 C126 1.258 . S
O140 Eu118 2.500 . S
O140 C123 1.273 . S
O141 Eu118 2.473 . S
O141 C123 1.257 . S
H142 C128 0.929 . S
H143 C130 0.931 . S
H144 C132 0.929 . S
O145 Tb146 2.292 . S
O145 C148 1.255 . S
Tb146 O145 2.292 . S
Tb146 O162 2.326 . S
Tb146 O164 2.500 1_545 S
Tb146 O165 2.473 1_545 S
Tb146 O168 2.324 1_554 S
Eu147 O151 2.292 1_545 S
Eu147 C152 2.852 . S
Eu147 O163 2.324 1_556 S
Eu147 O167 2.326 . S
Eu147 O169 2.500 . S
Eu147 O170 2.473 . S
C148 O145 1.255 . S
C148 O149 1.247 . S
O149 C148 1.247 . S
C150 O162 1.242 . S
C150 O163 1.258 . S
O151 Eu147 2.292 1_565 S
O151 C153 1.255 . S
C152 Eu147 2.852 . S
C152 C156 1.503 . S
C152 O169 1.273 . S
C152 O170 1.257 . S
C153 O151 1.255 . S
C153 O154 1.247 . S
O154 C153 1.247 . S
C155 O167 1.242 . S
C155 O168 1.258 . S
C156 C152 1.503 . S
C156 C157 1.379 . S
C156 C161 1.392 . S
C157 C156 1.379 . S
C157 C158 1.404 . S
C157 H171 0.929 . S
C158 C157 1.404 . S
C158 C159 1.389 . S
C159 C158 1.389 . S
C159 C160 1.399 . S
C159 H172 0.931 . S
C160 C159 1.399 . S
C160 C161 1.390 . S
C161 C156 1.392 . S
C161 C160 1.390 . S
C161 H173 0.929 . S
O162 Tb146 2.326 . S
O162 C150 1.242 . S
O163 Eu147 2.324 1_554 S
O163 C150 1.258 . S
O164 Tb146 2.500 1_565 S
O164 C166 1.273 . S
O165 Tb146 2.473 1_565 S
O165 C166 1.257 . S
C166 O164 1.273 . S
C166 O165 1.257 . S
O167 Eu147 2.326 . S
O167 C155 1.242 . S
O168 Tb146 2.324 1_556 S
O168 C155 1.258 . S
O169 Eu147 2.500 . S
O169 C152 1.273 . S
O170 Eu147 2.473 . S
O170 C152 1.257 . S
H171 C157 0.929 . S
H172 C159 0.931 . S
H173 C161 0.929 . S
O174 Tb175 2.292 . S
O174 C177 1.255 . S
Tb175 O174 2.292 . S
Tb175 O191 2.326 . S
Tb175 O193 2.500 1_545 S
Tb175 O194 2.473 1_545 S
Tb175 O197 2.324 . S
Eu176 O180 2.292 1_545 S
Eu176 C181 2.852 . S
Eu176 O192 2.324 . S
Eu176 O196 2.326 . S
Eu176 O198 2.500 . S
Eu176 O199 2.473 . S
C177 O174 1.255 . S
C177 O178 1.247 . S
O178 C177 1.247 . S
C179 O191 1.242 . S
C179 O192 1.258 . S
O180 Eu176 2.292 1_565 S
O180 C182 1.255 . S
C181 Eu176 2.852 . S
C181 C185 1.503 . S
C181 O198 1.273 . S
C181 O199 1.257 . S
C182 O180 1.255 . S
C182 O183 1.247 . S
O183 C182 1.247 . S
C184 O196 1.242 . S
C184 O197 1.258 . S
C185 C181 1.503 . S
C185 C186 1.379 . S
C185 C190 1.392 . S
C186 C185 1.379 . S
C186 C187 1.404 . S
C186 H200 0.929 . S
C187 C186 1.404 . S
C187 C188 1.389 . S
C188 C187 1.389 . S
C188 C189 1.399 . S
C188 H201 0.931 . S
C189 C188 1.399 . S
C189 C190 1.390 . S
C190 C185 1.392 . S
C190 C189 1.390 . S
C190 H202 0.929 . S
O191 Tb175 2.326 . S
O191 C179 1.242 . S
O192 Eu176 2.324 . S
O192 C179 1.258 . S
O193 Tb175 2.500 1_565 S
O193 C195 1.273 . S
O194 Tb175 2.473 1_565 S
O194 C195 1.257 . S
C195 O193 1.273 . S
C195 O194 1.257 . S
O196 Eu176 2.326 . S
O196 C184 1.242 . S
O197 Tb175 2.324 . S
O197 C184 1.258 . S
O198 Eu176 2.500 . S
O198 C181 1.273 . S
O199 Eu176 2.473 . S
O199 C181 1.257 . S
H200 C186 0.929 . S
H201 C188 0.931 . S
H202 C190 0.929 . S
O203 Tb204 2.292 . S
O203 C206 1.255 . S
Tb204 O203 2.292 . S
Tb204 O220 2.326 . S
Tb204 O222 2.500 . S
Tb204 O223 2.473 . S
Tb204 O226 2.324 . S
Eu205 O209 2.292 . S
Eu205 C210 2.852 . S
Eu205 O221 2.324 . S
Eu205 O225 2.326 . S
Eu205 O227 2.500 . S
Eu205 O228 2.473 . S
C206 O203 1.255 . S
C206 O207 1.247 . S
O207 C206 1.247 . S
C208 O220 1.242 . S
C208 O221 1.258 . S
O209 Eu205 2.292 . S
O209 C211 1.255 . S
C210 Eu205 2.852 . S
C210 C214 1.503 . S
C210 O227 1.273 . S
C210 O228 1.257 . S
C211 O209 1.255 . S
C211 O212 1.247 . S
O212 C211 1.247 . S
C213 O225 1.242 . S
C213 O226 1.258 . S
C214 C210 1.503 . S
C214 C215 1.379 . S
C214 C219 1.392 . S
C215 C214 1.379 . S
C215 C216 1.404 . S
C215 H229 0.929 . S
C216 C215 1.404 . S
C216 C217 1.389 . S
C217 C216 1.389 . S
C217 C218 1.399 . S
C217 H230 0.931 . S
C218 C217 1.399 . S
C218 C219 1.390 . S
C219 C214 1.392 . S
C219 C218 1.390 . S
C219 H231 0.929 . S
O220 Tb204 2.326 . S
O220 C208 1.242 . S
O221 Eu205 2.324 . S
O221 C208 1.258 . S
O222 Tb204 2.500 . S
O222 C224 1.273 . S
O223 Tb204 2.473 . S
O223 C224 1.257 . S
C224 O222 1.273 . S
C224 O223 1.257 . S
O225 Eu205 2.326 . S
O225 C213 1.242 . S
O226 Tb204 2.324 . S
O226 C213 1.258 . S
O227 Eu205 2.500 . S
O227 C210 1.273 . S
O228 Eu205 2.473 . S
O228 C210 1.257 . S
H229 C215 0.929 . S
H230 C217 0.931 . S
H231 C219 0.929 . S
O232 Tb233 2.292 . S
O232 C235 1.255 . S
Tb233 O232 2.292 . S
Tb233 O249 2.326 . S
Tb233 O251 2.500 . S
Tb233 O252 2.473 . S
Tb233 O255 2.324 . S
Eu234 O238 2.292 . S
Eu234 C239 2.852 . S
Eu234 O250 2.324 . S
Eu234 O254 2.326 . S
Eu234 O256 2.500 . S
Eu234 O257 2.473 . S
C235 O232 1.255 . S
C235 O236 1.247 . S
O236 C235 1.247 . S
C237 O249 1.242 . S
C237 O250 1.258 . S
O238 Eu234 2.292 . S
O238 C240 1.255 . S
C239 Eu234 2.852 . S
C239 C243 1.503 . S
C239 O256 1.273 . S
C239 O257 1.257 . S
C240 O238 1.255 . S
C240 O241 1.247 . S
O241 C240 1.247 . S
C242 O254 1.242 . S
C242 O255 1.258 . S
C243 C239 1.503 . S
C243 C244 1.379 . S
C243 C248 1.392 . S
C244 C243 1.379 . S
C244 C245 1.404 . S
C244 H258 0.929 . S
C245 C244 1.404 . S
C245 C246 1.389 . S
C246 C245 1.389 . S
C246 C247 1.399 . S
C246 H259 0.931 . S
C247 C246 1.399 . S
C247 C248 1.390 . S
C248 C243 1.392 . S
C248 C247 1.390 . S
C248 H260 0.929 . S
O249 Tb233 2.326 . S
O249 C237 1.242 . S
O250 Eu234 2.324 . S
O250 C237 1.258 . S
O251 Tb233 2.500 . S
O251 C253 1.273 . S
O252 Tb233 2.473 . S
O252 C253 1.257 . S
C253 O251 1.273 . S
C253 O252 1.257 . S
O254 Eu234 2.326 . S
O254 C242 1.242 . S
O255 Tb233 2.324 . S
O255 C242 1.258 . S
O256 Eu234 2.500 . S
O256 C239 1.273 . S
O257 Eu234 2.473 . S
O257 C239 1.257 . S
H258 C244 0.929 . S
H259 C246 0.931 . S
H260 C248 0.929 . S
O261 Tb262 2.292 . S
O261 C264 1.255 . S
Tb262 O261 2.292 . S
Tb262 O278 2.326 . S
Tb262 O280 2.500 . S
Tb262 O281 2.473 . S
Tb262 O284 2.324 . S
Eu263 O267 2.292 . S
Eu263 C268 2.852 . S
Eu263 O279 2.324 . S
Eu263 O283 2.326 . S
Eu263 O285 2.500 . S
Eu263 O286 2.473 . S
C264 O261 1.255 . S
C264 O265 1.247 . S
O265 C264 1.247 . S
C266 O278 1.242 . S
C266 O279 1.258 . S
O267 Eu263 2.292 . S
O267 C269 1.255 . S
C268 Eu263 2.852 . S
C268 C272 1.503 . S
C268 O285 1.273 . S
C268 O286 1.257 . S
C269 O267 1.255 . S
C269 O270 1.247 . S
O270 C269 1.247 . S
C271 O283 1.242 . S
C271 O284 1.258 . S
C272 C268 1.503 . S
C272 C273 1.379 . S
C272 C277 1.392 . S
C273 C272 1.379 . S
C273 C274 1.404 . S
C273 H287 0.929 . S
C274 C273 1.404 . S
C274 C275 1.389 . S
C275 C274 1.389 . S
C275 C276 1.399 . S
C275 H288 0.931 . S
C276 C275 1.399 . S
C276 C277 1.390 . S
C277 C272 1.392 . S
C277 C276 1.390 . S
C277 H289 0.929 . S
O278 Tb262 2.326 . S
O278 C266 1.242 . S
O279 Eu263 2.324 . S
O279 C266 1.258 . S
O280 Tb262 2.500 . S
O280 C282 1.273 . S
O281 Tb262 2.473 . S
O281 C282 1.257 . S
C282 O280 1.273 . S
C282 O281 1.257 . S
O283 Eu263 2.326 . S
O283 C271 1.242 . S
O284 Tb262 2.324 . S
O284 C271 1.258 . S
O285 Eu263 2.500 . S
O285 C268 1.273 . S
O286 Eu263 2.473 . S
O286 C268 1.257 . S
H287 C273 0.929 . S
H288 C275 0.931 . S
H289 C277 0.929 . S
O290 Tb291 2.292 . S
O290 C293 1.255 . S
Tb291 O290 2.292 . S
Tb291 O307 2.326 . S
Tb291 O309 2.500 . S
Tb291 O310 2.473 . S
Tb291 O313 2.324 . S
Eu292 O296 2.292 . S
Eu292 C297 2.852 . S
Eu292 O308 2.324 . S
Eu292 O312 2.326 . S
Eu292 O314 2.500 . S
Eu292 O315 2.473 . S
C293 O290 1.255 . S
C293 O294 1.247 . S
O294 C293 1.247 . S
C295 O307 1.242 . S
C295 O308 1.258 . S
O296 Eu292 2.292 . S
O296 C298 1.255 . S
C297 Eu292 2.852 . S
C297 C301 1.503 . S
C297 O314 1.273 . S
C297 O315 1.257 . S
C298 O296 1.255 . S
C298 O299 1.247 . S
O299 C298 1.247 . S
C300 O312 1.242 . S
C300 O313 1.258 . S
C301 C297 1.503 . S
C301 C302 1.379 . S
C301 C306 1.392 . S
C302 C301 1.379 . S
C302 C303 1.404 . S
C302 H316 0.929 . S
C303 C302 1.404 . S
C303 C304 1.389 . S
C304 C303 1.389 . S
C304 C305 1.399 . S
C304 H317 0.931 . S
C305 C304 1.399 . S
C305 C306 1.390 . S
C306 C301 1.392 . S
C306 C305 1.390 . S
C306 H318 0.929 . S
O307 Tb291 2.326 . S
O307 C295 1.242 . S
O308 Eu292 2.324 . S
O308 C295 1.258 . S
O309 Tb291 2.500 . S
O309 C311 1.273 . S
O310 Tb291 2.473 . S
O310 C311 1.257 . S
C311 O309 1.273 . S
C311 O310 1.257 . S
O312 Eu292 2.326 . S
O312 C300 1.242 . S
O313 Tb291 2.324 . S
O313 C300 1.258 . S
O314 Eu292 2.500 . S
O314 C297 1.273 . S
O315 Eu292 2.473 . S
O315 C297 1.257 . S
H316 C302 0.929 . S
H317 C304 0.931 . S
H318 C306 0.929 . S
O319 Tb320 2.292 . S
O319 C322 1.255 . S
Tb320 O319 2.292 . S
Tb320 O336 2.326 . S
Tb320 O338 2.500 . S
Tb320 O339 2.473 . S
Tb320 O342 2.324 . S
Eu321 O325 2.292 . S
Eu321 C326 2.852 . S
Eu321 O337 2.324 . S
Eu321 O341 2.326 . S
Eu321 O343 2.500 . S
Eu321 O344 2.473 . S
C322 O319 1.255 . S
C322 O323 1.247 . S
O323 C322 1.247 . S
C324 O336 1.242 . S
C324 O337 1.258 . S
O325 Eu321 2.292 . S
O325 C327 1.255 . S
C326 Eu321 2.852 . S
C326 C330 1.503 . S
C326 O343 1.273 . S
C326 O344 1.257 . S
C327 O325 1.255 . S
C327 O328 1.247 . S
O328 C327 1.247 . S
C329 O341 1.242 . S
C329 O342 1.258 . S
C330 C326 1.503 . S
C330 C331 1.379 . S
C330 C335 1.392 . S
C331 C330 1.379 . S
C331 C332 1.404 . S
C331 H345 0.929 . S
C332 C331 1.404 . S
C332 C333 1.389 . S
C333 C332 1.389 . S
C333 C334 1.399 . S
C333 H346 0.931 . S
C334 C333 1.399 . S
C334 C335 1.390 . S
C335 C330 1.392 . S
C335 C334 1.390 . S
C335 H347 0.929 . S
O336 Tb320 2.326 . S
O336 C324 1.242 . S
O337 Eu321 2.324 . S
O337 C324 1.258 . S
O338 Tb320 2.500 . S
O338 C340 1.273 . S
O339 Tb320 2.473 . S
O339 C340 1.257 . S
C340 O338 1.273 . S
C340 O339 1.257 . S
O341 Eu321 2.326 . S
O341 C329 1.242 . S
O342 Tb320 2.324 . S
O342 C329 1.258 . S
O343 Eu321 2.500 . S
O343 C326 1.273 . S
O344 Eu321 2.473 . S
O344 C326 1.257 . S
H345 C331 0.929 . S
H346 C333 0.931 . S
H347 C335 0.929 . S
O348 Tb349 2.292 . S
O348 C351 1.255 . S
Tb349 O348 2.292 . S
Tb349 O365 2.326 . S
Tb349 O367 2.500 . S
Tb349 O368 2.473 . S
Tb349 O371 2.324 . S
Eu350 O354 2.292 . S
Eu350 C355 2.852 . S
Eu350 O366 2.324 . S
Eu350 O370 2.326 . S
Eu350 O372 2.500 . S
Eu350 O373 2.473 . S
C351 O348 1.255 . S
C351 O352 1.247 . S
O352 C351 1.247 . S
C353 O365 1.242 . S
C353 O366 1.258 . S
O354 Eu350 2.292 . S
O354 C356 1.255 . S
C355 Eu350 2.852 . S
C355 C359 1.503 . S
C355 O372 1.273 . S
C355 O373 1.257 . S
C356 O354 1.255 . S
C356 O357 1.247 . S
O357 C356 1.247 . S
C358 O370 1.242 . S
C358 O371 1.258 . S
C359 C355 1.503 . S
C359 C360 1.379 . S
C359 C364 1.392 . S
C360 C359 1.379 . S
C360 C361 1.404 . S
C360 H374 0.929 . S
C361 C360 1.404 . S
C361 C362 1.389 . S
C362 C361 1.389 . S
C362 C363 1.399 . S
C362 H375 0.931 . S
C363 C362 1.399 . S
C363 C364 1.390 . S
C364 C359 1.392 . S
C364 C363 1.390 . S
C364 H376 0.929 . S
O365 Tb349 2.326 . S
O365 C353 1.242 . S
O366 Eu350 2.324 . S
O366 C353 1.258 . S
O367 Tb349 2.500 . S
O367 C369 1.273 . S
O368 Tb349 2.473 . S
O368 C369 1.257 . S
C369 O367 1.273 . S
C369 O368 1.257 . S
O370 Eu350 2.326 . S
O370 C358 1.242 . S
O371 Tb349 2.324 . S
O371 C358 1.258 . S
O372 Eu350 2.500 . S
O372 C355 1.273 . S
O373 Eu350 2.473 . S
O373 C355 1.257 . S
H374 C360 0.929 . S
H375 C362 0.931 . S
H376 C364 0.929 . S
O377 Tb378 2.292 . S
O377 C380 1.255 . S
Tb378 O377 2.292 . S
Tb378 O394 2.326 . S
Tb378 O396 2.500 . S
Tb378 O397 2.473 . S
Tb378 O400 2.324 . S
Eu379 O383 2.292 . S
Eu379 C384 2.852 . S
Eu379 O395 2.324 . S
Eu379 O399 2.326 . S
Eu379 O401 2.500 . S
Eu379 O402 2.473 . S
C380 O377 1.255 . S
C380 O381 1.247 . S
O381 C380 1.247 . S
C382 O394 1.242 . S
C382 O395 1.258 . S
O383 Eu379 2.292 . S
O383 C385 1.255 . S
C384 Eu379 2.852 . S
C384 C388 1.503 . S
C384 O401 1.273 . S
C384 O402 1.257 . S
C385 O383 1.255 . S
C385 O386 1.247 . S
O386 C385 1.247 . S
C387 O399 1.242 . S
C387 O400 1.258 . S
C388 C384 1.503 . S
C388 C389 1.379 . S
C388 C393 1.392 . S
C389 C388 1.379 . S
C389 C390 1.404 . S
C389 H403 0.929 . S
C390 C389 1.404 . S
C390 C391 1.389 . S
C391 C390 1.389 . S
C391 C392 1.399 . S
C391 H404 0.931 . S
C392 C391 1.399 . S
C392 C393 1.390 . S
C393 C388 1.392 . S
C393 C392 1.390 . S
C393 H405 0.929 . S
O394 Tb378 2.326 . S
O394 C382 1.242 . S
O395 Eu379 2.324 . S
O395 C382 1.258 . S
O396 Tb378 2.500 . S
O396 C398 1.273 . S
O397 Tb378 2.473 . S
O397 C398 1.257 . S
C398 O396 1.273 . S
C398 O397 1.257 . S
O399 Eu379 2.326 . S
O399 C387 1.242 . S
O400 Tb378 2.324 . S
O400 C387 1.258 . S
O401 Eu379 2.500 . S
O401 C384 1.273 . S
O402 Eu379 2.473 . S
O402 C384 1.257 . S
H403 C389 0.929 . S
H404 C391 0.931 . S
H405 C393 0.929 . S
O406 Tb407 2.292 . S
O406 C409 1.255 . S
Tb407 O406 2.292 . S
Tb407 O423 2.326 . S
Tb407 O425 2.500 . S
Tb407 O426 2.473 . S
Tb407 O429 2.324 . S
Eu408 O412 2.292 . S
Eu408 C413 2.852 . S
Eu408 O424 2.324 . S
Eu408 O428 2.326 . S
Eu408 O430 2.500 . S
Eu408 O431 2.473 . S
C409 O406 1.255 . S
C409 O410 1.247 . S
O410 C409 1.247 . S
C411 O423 1.242 . S
C411 O424 1.258 . S
O412 Eu408 2.292 . S
O412 C414 1.255 . S
C413 Eu408 2.852 . S
C413 C417 1.503 . S
C413 O430 1.273 . S
C413 O431 1.257 . S
C414 O412 1.255 . S
C414 O415 1.247 . S
O415 C414 1.247 . S
C416 O428 1.242 . S
C416 O429 1.258 . S
C417 C413 1.503 . S
C417 C418 1.379 . S
C417 C422 1.392 . S
C418 C417 1.379 . S
C418 C419 1.404 . S
C418 H432 0.929 . S
C419 C418 1.404 . S
C419 C420 1.389 . S
C420 C419 1.389 . S
C420 C421 1.399 . S
C420 H433 0.931 . S
C421 C420 1.399 . S
C421 C422 1.390 . S
C422 C417 1.392 . S
C422 C421 1.390 . S
C422 H434 0.929 . S
O423 Tb407 2.326 . S
O423 C411 1.242 . S
O424 Eu408 2.324 . S
O424 C411 1.258 . S
O425 Tb407 2.500 . S
O425 C427 1.273 . S
O426 Tb407 2.473 . S
O426 C427 1.257 . S
C427 O425 1.273 . S
C427 O426 1.257 . S
O428 Eu408 2.326 . S
O428 C416 1.242 . S
O429 Tb407 2.324 . S
O429 C416 1.258 . S
O430 Eu408 2.500 . S
O430 C413 1.273 . S
O431 Eu408 2.473 . S
O431 C413 1.257 . S
H432 C418 0.929 . S
H433 C420 0.931 . S
H434 C422 0.929 . S
O435 Tb436 2.292 . S
O435 C438 1.255 . S
Tb436 O435 2.292 . S
Tb436 O452 2.326 . S
Tb436 O454 2.500 . S
Tb436 O455 2.473 . S
Tb436 O458 2.324 . S
Eu437 O441 2.292 . S
Eu437 C442 2.852 . S
Eu437 O453 2.324 . S
Eu437 O457 2.326 . S
Eu437 O459 2.500 . S
Eu437 O460 2.473 . S
C438 O435 1.255 . S
C438 O439 1.247 . S
O439 C438 1.247 . S
C440 O452 1.242 . S
C440 O453 1.258 . S
O441 Eu437 2.292 . S
O441 C443 1.255 . S
C442 Eu437 2.852 . S
C442 C446 1.503 . S
C442 O459 1.273 . S
C442 O460 1.257 . S
C443 O441 1.255 . S
C443 O444 1.247 . S
O444 C443 1.247 . S
C445 O457 1.242 . S
C445 O458 1.258 . S
C446 C442 1.503 . S
C446 C447 1.379 . S
C446 C451 1.392 . S
C447 C446 1.379 . S
C447 C448 1.404 . S
C447 H461 0.929 . S
C448 C447 1.404 . S
C448 C449 1.389 . S
C449 C448 1.389 . S
C449 C450 1.399 . S
C449 H462 0.931 . S
C450 C449 1.399 . S
C450 C451 1.390 . S
C451 C446 1.392 . S
C451 C450 1.390 . S
C451 H463 0.929 . S
O452 Tb436 2.326 . S
O452 C440 1.242 . S
O453 Eu437 2.324 . S
O453 C440 1.258 . S
O454 Tb436 2.500 . S
O454 C456 1.273 . S
O455 Tb436 2.473 . S
O455 C456 1.257 . S
C456 O454 1.273 . S
C456 O455 1.257 . S
O457 Eu437 2.326 . S
O457 C445 1.242 . S
O458 Tb436 2.324 . S
O458 C445 1.258 . S
O459 Eu437 2.500 . S
O459 C442 1.273 . S
O460 Eu437 2.473 . S
O460 C442 1.257 . S
H461 C447 0.929 . S
H462 C449 0.931 . S
H463 C451 0.929 . S
O464 Tb465 2.292 . S
O464 C467 1.255 . S
Tb465 O464 2.292 . S
Tb465 O481 2.326 . S
Tb465 O483 2.500 . S
Tb465 O484 2.473 . S
Tb465 O487 2.324 . S
Eu466 O470 2.292 . S
Eu466 C471 2.852 . S
Eu466 O482 2.324 . S
Eu466 O486 2.326 . S
Eu466 O488 2.500 . S
Eu466 O489 2.473 . S
C467 O464 1.255 . S
C467 O468 1.247 . S
O468 C467 1.247 . S
C469 O481 1.242 . S
C469 O482 1.258 . S
O470 Eu466 2.292 . S
O470 C472 1.255 . S
C471 Eu466 2.852 . S
C471 C475 1.503 . S
C471 O488 1.273 . S
C471 O489 1.257 . S
C472 O470 1.255 . S
C472 O473 1.247 . S
O473 C472 1.247 . S
C474 O486 1.242 . S
C474 O487 1.258 . S
C475 C471 1.503 . S
C475 C476 1.379 . S
C475 C480 1.392 . S
C476 C475 1.379 . S
C476 C477 1.404 . S
C476 H490 0.929 . S
C477 C476 1.404 . S
C477 C478 1.389 . S
C478 C477 1.389 . S
C478 C479 1.399 . S
C478 H491 0.931 . S
C479 C478 1.399 . S
C479 C480 1.390 . S
C480 C475 1.392 . S
C480 C479 1.390 . S
C480 H492 0.929 . S
O481 Tb465 2.326 . S
O481 C469 1.242 . S
O482 Eu466 2.324 . S
O482 C469 1.258 . S
O483 Tb465 2.500 . S
O483 C485 1.273 . S
O484 Tb465 2.473 . S
O484 C485 1.257 . S
C485 O483 1.273 . S
C485 O484 1.257 . S
O486 Eu466 2.326 . S
O486 C474 1.242 . S
O487 Tb465 2.324 . S
O487 C474 1.258 . S
O488 Eu466 2.500 . S
O488 C471 1.273 . S
O489 Eu466 2.473 . S
O489 C471 1.257 . S
H490 C476 0.929 . S
H491 C478 0.931 . S
H492 C480 0.929 . S
O493 Tb494 2.292 . S
O493 C496 1.255 . S
Tb494 O493 2.292 . S
Tb494 O510 2.326 . S
Tb494 O512 2.500 1_565 S
Tb494 O513 2.473 1_565 S
Tb494 O516 2.324 . S
Eu495 O499 2.292 1_565 S
Eu495 C500 2.852 . S
Eu495 O511 2.324 . S
Eu495 O515 2.326 . S
Eu495 O517 2.500 . S
Eu495 O518 2.473 . S
C496 O493 1.255 . S
C496 O497 1.247 . S
O497 C496 1.247 . S
C498 O510 1.242 . S
C498 O511 1.258 . S
O499 Eu495 2.292 1_545 S
O499 C501 1.255 . S
C500 Eu495 2.852 . S
C500 C504 1.503 . S
C500 O517 1.273 . S
C500 O518 1.257 . S
C501 O499 1.255 . S
C501 O502 1.247 . S
O502 C501 1.247 . S
C503 O515 1.242 . S
C503 O516 1.258 . S
C504 C500 1.503 . S
C504 C505 1.379 . S
C504 C509 1.392 . S
C505 C504 1.379 . S
C505 C506 1.404 . S
C505 H519 0.929 . S
C506 C505 1.404 . S
C506 C507 1.389 . S
C507 C506 1.389 . S
C507 C508 1.399 . S
C507 H520 0.931 . S
C508 C507 1.399 . S
C508 C509 1.390 . S
C509 C504 1.392 . S
C509 C508 1.390 . S
C509 H521 0.929 . S
O510 Tb494 2.326 . S
O510 C498 1.242 . S
O511 Eu495 2.324 . S
O511 C498 1.258 . S
O512 Tb494 2.500 1_545 S
O512 C514 1.273 . S
O513 Tb494 2.473 1_545 S
O513 C514 1.257 . S
C514 O512 1.273 . S
C514 O513 1.257 . S
O515 Eu495 2.326 . S
O515 C503 1.242 . S
O516 Tb494 2.324 . S
O516 C503 1.258 . S
O517 Eu495 2.500 . S
O517 C500 1.273 . S
O518 Eu495 2.473 . S
O518 C500 1.257 . S
H519 C505 0.929 . S
H520 C507 0.931 . S
H521 C509 0.929 . S
O522 Tb523 2.292 . S
O522 C525 1.255 . S
Tb523 O522 2.292 . S
Tb523 O539 2.326 . S
Tb523 O541 2.500 1_565 S
Tb523 O542 2.473 1_565 S
Tb523 O545 2.324 . S
Eu524 O528 2.292 1_565 S
Eu524 C529 2.852 . S
Eu524 O540 2.324 . S
Eu524 O544 2.326 . S
Eu524 O546 2.500 . S
Eu524 O547 2.473 . S
C525 O522 1.255 . S
C525 O526 1.247 . S
O526 C525 1.247 . S
C527 O539 1.242 . S
C527 O540 1.258 . S
O528 Eu524 2.292 1_545 S
O528 C530 1.255 . S
C529 Eu524 2.852 . S
C529 C533 1.503 . S
C529 O546 1.273 . S
C529 O547 1.257 . S
C530 O528 1.255 . S
C530 O531 1.247 . S
O531 C530 1.247 . S
C532 O544 1.242 . S
C532 O545 1.258 . S
C533 C529 1.503 . S
C533 C534 1.379 . S
C533 C538 1.392 . S
C534 C533 1.379 . S
C534 C535 1.404 . S
C534 H548 0.929 . S
C535 C534 1.404 . S
C535 C536 1.389 . S
C536 C535 1.389 . S
C536 C537 1.399 . S
C536 H549 0.931 . S
C537 C536 1.399 . S
C537 C538 1.390 . S
C538 C533 1.392 . S
C538 C537 1.390 . S
C538 H550 0.929 . S
O539 Tb523 2.326 . S
O539 C527 1.242 . S
O540 Eu524 2.324 . S
O540 C527 1.258 . S
O541 Tb523 2.500 1_545 S
O541 C543 1.273 . S
O542 Tb523 2.473 1_545 S
O542 C543 1.257 . S
C543 O541 1.273 . S
C543 O542 1.257 . S
O544 Eu524 2.326 . S
O544 C532 1.242 . S
O545 Tb523 2.324 . S
O545 C532 1.258 . S
O546 Eu524 2.500 . S
O546 C529 1.273 . S
O547 Eu524 2.473 . S
O547 C529 1.257 . S
H548 C534 0.929 . S
H549 C536 0.931 . S
H550 C538 0.929 . S
O551 Tb552 2.292 . S
O551 C554 1.255 . S
Tb552 O551 2.292 . S
Tb552 O568 2.326 . S
Tb552 O570 2.500 . S
Tb552 O571 2.473 . S
Tb552 O574 2.324 . S
Eu553 O557 2.292 . S
Eu553 C558 2.852 . S
Eu553 O569 2.324 . S
Eu553 O573 2.326 . S
Eu553 O575 2.500 . S
Eu553 O576 2.473 . S
C554 O551 1.255 . S
C554 O555 1.247 . S
O555 C554 1.247 . S
C556 O568 1.242 . S
C556 O569 1.258 . S
O557 Eu553 2.292 . S
O557 C559 1.255 . S
C558 Eu553 2.852 . S
C558 C562 1.503 . S
C558 O575 1.273 . S
C558 O576 1.257 . S
C559 O557 1.255 . S
C559 O560 1.247 . S
O560 C559 1.247 . S
C561 O573 1.242 . S
C561 O574 1.258 . S
C562 C558 1.503 . S
C562 C563 1.379 . S
C562 C567 1.392 . S
C563 C562 1.379 . S
C563 C564 1.404 . S
C563 H577 0.929 . S
C564 C563 1.404 . S
C564 C565 1.389 . S
C565 C564 1.389 . S
C565 C566 1.399 . S
C565 H578 0.931 . S
C566 C565 1.399 . S
C566 C567 1.390 . S
C567 C562 1.392 . S
C567 C566 1.390 . S
C567 H579 0.929 . S
O568 Tb552 2.326 . S
O568 C556 1.242 . S
O569 Eu553 2.324 . S
O569 C556 1.258 . S
O570 Tb552 2.500 . S
O570 C572 1.273 . S
O571 Tb552 2.473 . S
O571 C572 1.257 . S
C572 O570 1.273 . S
C572 O571 1.257 . S
O573 Eu553 2.326 . S
O573 C561 1.242 . S
O574 Tb552 2.324 . S
O574 C561 1.258 . S
O575 Eu553 2.500 . S
O575 C558 1.273 . S
O576 Eu553 2.473 . S
O576 C558 1.257 . S
H577 C563 0.929 . S
H578 C565 0.931 . S
H579 C567 0.929 . S
O580 Tb581 2.292 . S
O580 C583 1.255 . S
Tb581 O580 2.292 . S
Tb581 O597 2.326 . S
Tb581 O599 2.500 . S
Tb581 O600 2.473 . S
Tb581 O603 2.324 . S
Eu582 O586 2.292 . S
Eu582 C587 2.852 . S
Eu582 O598 2.324 . S
Eu582 O602 2.326 . S
Eu582 O604 2.500 . S
Eu582 O605 2.473 . S
C583 O580 1.255 . S
C583 O584 1.247 . S
O584 C583 1.247 . S
C585 O597 1.242 . S
C585 O598 1.258 . S
O586 Eu582 2.292 . S
O586 C588 1.255 . S
C587 Eu582 2.852 . S
C587 C591 1.503 . S
C587 O604 1.273 . S
C587 O605 1.257 . S
C588 O586 1.255 . S
C588 O589 1.247 . S
O589 C588 1.247 . S
C590 O602 1.242 . S
C590 O603 1.258 . S
C591 C587 1.503 . S
C591 C592 1.379 . S
C591 C596 1.392 . S
C592 C591 1.379 . S
C592 C593 1.404 . S
C592 H606 0.929 . S
C593 C592 1.404 . S
C593 C594 1.389 . S
C594 C593 1.389 . S
C594 C595 1.399 . S
C594 H607 0.931 . S
C595 C594 1.399 . S
C595 C596 1.390 . S
C596 C591 1.392 . S
C596 C595 1.390 . S
C596 H608 0.929 . S
O597 Tb581 2.326 . S
O597 C585 1.242 . S
O598 Eu582 2.324 . S
O598 C585 1.258 . S
O599 Tb581 2.500 . S
O599 C601 1.273 . S
O600 Tb581 2.473 . S
O600 C601 1.257 . S
C601 O599 1.273 . S
C601 O600 1.257 . S
O602 Eu582 2.326 . S
O602 C590 1.242 . S
O603 Tb581 2.324 . S
O603 C590 1.258 . S
O604 Eu582 2.500 . S
O604 C587 1.273 . S
O605 Eu582 2.473 . S
O605 C587 1.257 . S
H606 C592 0.929 . S
H607 C594 0.931 . S
H608 C596 0.929 . S
O609 Tb610 2.292 . S
O609 C612 1.255 . S
Tb610 O609 2.292 . S
Tb610 O626 2.326 . S
Tb610 O628 2.500 1_545 S
Tb610 O629 2.473 1_545 S
Tb610 O632 2.324 . S
Eu611 O615 2.292 1_545 S
Eu611 C616 2.852 . S
Eu611 O627 2.324 . S
Eu611 O631 2.326 . S
Eu611 O633 2.500 . S
Eu611 O634 2.473 . S
C612 O609 1.255 . S
C612 O613 1.247 . S
O613 C612 1.247 . S
C614 O626 1.242 . S
C614 O627 1.258 . S
O615 Eu611 2.292 1_565 S
O615 C617 1.255 . S
C616 Eu611 2.852 . S
C616 C620 1.503 . S
C616 O633 1.273 . S
C616 O634 1.257 . S
C617 O615 1.255 . S
C617 O618 1.247 . S
O618 C617 1.247 . S
C619 O631 1.242 . S
C619 O632 1.258 . S
C620 C616 1.503 . S
C620 C621 1.379 . S
C620 C625 1.392 . S
C621 C620 1.379 . S
C621 C622 1.404 . S
C621 H635 0.929 . S
C622 C621 1.404 . S
C622 C623 1.389 . S
C623 C622 1.389 . S
C623 C624 1.399 . S
C623 H636 0.931 . S
C624 C623 1.399 . S
C624 C625 1.390 . S
C625 C620 1.392 . S
C625 C624 1.390 . S
C625 H637 0.929 . S
O626 Tb610 2.326 . S
O626 C614 1.242 . S
O627 Eu611 2.324 . S
O627 C614 1.258 . S
O628 Tb610 2.500 1_565 S
O628 C630 1.273 . S
O629 Tb610 2.473 1_565 S
O629 C630 1.257 . S
C630 O628 1.273 . S
C630 O629 1.257 . S
O631 Eu611 2.326 . S
O631 C619 1.242 . S
O632 Tb610 2.324 . S
O632 C619 1.258 . S
O633 Eu611 2.500 . S
O633 C616 1.273 . S
O634 Eu611 2.473 . S
O634 C616 1.257 . S
H635 C621 0.929 . S
H636 C623 0.931 . S
H637 C625 0.929 . S
O638 Tb639 2.292 . S
O638 C641 1.255 . S
Tb639 O638 2.292 . S
Tb639 O655 2.326 . S
Tb639 O657 2.500 1_545 S
Tb639 O658 2.473 1_545 S
Tb639 O661 2.324 . S
Eu640 O644 2.292 1_545 S
Eu640 C645 2.852 . S
Eu640 O656 2.324 . S
Eu640 O660 2.326 . S
Eu640 O662 2.500 . S
Eu640 O663 2.473 . S
C641 O638 1.255 . S
C641 O642 1.247 . S
O642 C641 1.247 . S
C643 O655 1.242 . S
C643 O656 1.258 . S
O644 Eu640 2.292 1_565 S
O644 C646 1.255 . S
C645 Eu640 2.852 . S
C645 C649 1.503 . S
C645 O662 1.273 . S
C645 O663 1.257 . S
C646 O644 1.255 . S
C646 O647 1.247 . S
O647 C646 1.247 . S
C648 O660 1.242 . S
C648 O661 1.258 . S
C649 C645 1.503 . S
C649 C650 1.379 . S
C649 C654 1.392 . S
C650 C649 1.379 . S
C650 C651 1.404 . S
C650 H664 0.929 . S
C651 C650 1.404 . S
C651 C652 1.389 . S
C652 C651 1.389 . S
C652 C653 1.399 . S
C652 H665 0.931 . S
C653 C652 1.399 . S
C653 C654 1.390 . S
C654 C649 1.392 . S
C654 C653 1.390 . S
C654 H666 0.929 . S
O655 Tb639 2.326 . S
O655 C643 1.242 . S
O656 Eu640 2.324 . S
O656 C643 1.258 . S
O657 Tb639 2.500 1_565 S
O657 C659 1.273 . S
O658 Tb639 2.473 1_565 S
O658 C659 1.257 . S
C659 O657 1.273 . S
C659 O658 1.257 . S
O660 Eu640 2.326 . S
O660 C648 1.242 . S
O661 Tb639 2.324 . S
O661 C648 1.258 . S
O662 Eu640 2.500 . S
O662 C645 1.273 . S
O663 Eu640 2.473 . S
O663 C645 1.257 . S
H664 C650 0.929 . S
H665 C652 0.931 . S
H666 C654 0.929 . S
O667 Tb668 2.292 . S
O667 C670 1.255 . S
Tb668 O667 2.292 . S
Tb668 O684 2.326 . S
Tb668 O686 2.500 . S
Tb668 O687 2.473 . S
Tb668 O690 2.324 . S
Eu669 O673 2.292 . S
Eu669 C674 2.852 . S
Eu669 O685 2.324 . S
Eu669 O689 2.326 . S
Eu669 O691 2.500 . S
Eu669 O692 2.473 . S
C670 O667 1.255 . S
C670 O671 1.247 . S
O671 C670 1.247 . S
C672 O684 1.242 . S
C672 O685 1.258 . S
O673 Eu669 2.292 . S
O673 C675 1.255 . S
C674 Eu669 2.852 . S
C674 C678 1.503 . S
C674 O691 1.273 . S
C674 O692 1.257 . S
C675 O673 1.255 . S
C675 O676 1.247 . S
O676 C675 1.247 . S
C677 O689 1.242 . S
C677 O690 1.258 . S
C678 C674 1.503 . S
C678 C679 1.379 . S
C678 C683 1.392 . S
C679 C678 1.379 . S
C679 C680 1.404 . S
C679 H693 0.929 . S
C680 C679 1.404 . S
C680 C681 1.389 . S
C681 C680 1.389 . S
C681 C682 1.399 . S
C681 H694 0.931 . S
C682 C681 1.399 . S
C682 C683 1.390 . S
C683 C678 1.392 . S
C683 C682 1.390 . S
C683 H695 0.929 . S
O684 Tb668 2.326 . S
O684 C672 1.242 . S
O685 Eu669 2.324 . S
O685 C672 1.258 . S
O686 Tb668 2.500 . S
O686 C688 1.273 . S
O687 Tb668 2.473 . S
O687 C688 1.257 . S
C688 O686 1.273 . S
C688 O687 1.257 . S
O689 Eu669 2.326 . S
O689 C677 1.242 . S
O690 Tb668 2.324 . S
O690 C677 1.258 . S
O691 Eu669 2.500 . S
O691 C674 1.273 . S
O692 Eu669 2.473 . S
O692 C674 1.257 . S
H693 C679 0.929 . S
H694 C681 0.931 . S
H695 C683 0.929 . S
O696 Tb697 2.292 . S
O696 C699 1.255 . S
Tb697 O696 2.292 . S
Tb697 O713 2.326 . S
Tb697 O715 2.500 . S
Tb697 O716 2.473 . S
Tb697 O719 2.324 1_556 S
Eu698 O702 2.292 . S
Eu698 C703 2.852 . S
Eu698 O714 2.324 1_554 S
Eu698 O718 2.326 . S
Eu698 O720 2.500 . S
Eu698 O721 2.473 . S
C699 O696 1.255 . S
C699 O700 1.247 . S
O700 C699 1.247 . S
C701 O713 1.242 . S
C701 O714 1.258 . S
O702 Eu698 2.292 . S
O702 C704 1.255 . S
C703 Eu698 2.852 . S
C703 C707 1.503 . S
C703 O720 1.273 . S
C703 O721 1.257 . S
C704 O702 1.255 . S
C704 O705 1.247 . S
O705 C704 1.247 . S
C706 O718 1.242 . S
C706 O719 1.258 . S
C707 C703 1.503 . S
C707 C708 1.379 . S
C707 C712 1.392 . S
C708 C707 1.379 . S
C708 C709 1.404 . S
C708 H722 0.929 . S
C709 C708 1.404 . S
C709 C710 1.389 . S
C710 C709 1.389 . S
C710 C711 1.399 . S
C710 H723 0.931 . S
C711 C710 1.399 . S
C711 C712 1.390 . S
C712 C707 1.392 . S
C712 C711 1.390 . S
C712 H724 0.929 . S
O713 Tb697 2.326 . S
O713 C701 1.242 . S
O714 Eu698 2.324 1_556 S
O714 C701 1.258 . S
O715 Tb697 2.500 . S
O715 C717 1.273 . S
O716 Tb697 2.473 . S
O716 C717 1.257 . S
C717 O715 1.273 . S
C717 O716 1.257 . S
O718 Eu698 2.326 . S
O718 C706 1.242 . S
O719 Tb697 2.324 1_554 S
O719 C706 1.258 . S
O720 Eu698 2.500 . S
O720 C703 1.273 . S
O721 Eu698 2.473 . S
O721 C703 1.257 . S
H722 C708 0.929 . S
H723 C710 0.931 . S
H724 C712 0.929 . S
O725 Tb726 2.292 . S
O725 C728 1.255 . S
Tb726 O725 2.292 . S
Tb726 O742 2.326 . S
Tb726 O744 2.500 . S
Tb726 O745 2.473 . S
Tb726 O748 2.324 1_556 S
Eu727 O731 2.292 . S
Eu727 C732 2.852 . S
Eu727 O743 2.324 1_554 S
Eu727 O747 2.326 . S
Eu727 O749 2.500 . S
Eu727 O750 2.473 . S
C728 O725 1.255 . S
C728 O729 1.247 . S
O729 C728 1.247 . S
C730 O742 1.242 . S
C730 O743 1.258 . S
O731 Eu727 2.292 . S
O731 C733 1.255 . S
C732 Eu727 2.852 . S
C732 C736 1.503 . S
C732 O749 1.273 . S
C732 O750 1.257 . S
C733 O731 1.255 . S
C733 O734 1.247 . S
O734 C733 1.247 . S
C735 O747 1.242 . S
C735 O748 1.258 . S
C736 C732 1.503 . S
C736 C737 1.379 . S
C736 C741 1.392 . S
C737 C736 1.379 . S
C737 C738 1.404 . S
C737 H751 0.929 . S
C738 C737 1.404 . S
C738 C739 1.389 . S
C739 C738 1.389 . S
C739 C740 1.399 . S
C739 H752 0.931 . S
C740 C739 1.399 . S
C740 C741 1.390 . S
C741 C736 1.392 . S
C741 C740 1.390 . S
C741 H753 0.929 . S
O742 Tb726 2.326 . S
O742 C730 1.242 . S
O743 Eu727 2.324 1_556 S
O743 C730 1.258 . S
O744 Tb726 2.500 . S
O744 C746 1.273 . S
O745 Tb726 2.473 . S
O745 C746 1.257 . S
C746 O744 1.273 . S
C746 O745 1.257 . S
O747 Eu727 2.326 . S
O747 C735 1.242 . S
O748 Tb726 2.324 1_554 S
O748 C735 1.258 . S
O749 Eu727 2.500 . S
O749 C732 1.273 . S
O750 Eu727 2.473 . S
O750 C732 1.257 . S
H751 C737 0.929 . S
H752 C739 0.931 . S
H753 C741 0.929 . S
O754 Tb755 2.292 . S
O754 C757 1.255 . S
Tb755 O754 2.292 . S
Tb755 O771 2.326 . S
Tb755 O773 2.500 . S
Tb755 O774 2.473 . S
Tb755 O777 2.324 . S
Eu756 O760 2.292 . S
Eu756 C761 2.852 . S
Eu756 O772 2.324 . S
Eu756 O776 2.326 . S
Eu756 O778 2.500 . S
Eu756 O779 2.473 . S
C757 O754 1.255 . S
C757 O758 1.247 . S
O758 C757 1.247 . S
C759 O771 1.242 . S
C759 O772 1.258 . S
O760 Eu756 2.292 . S
O760 C762 1.255 . S
C761 Eu756 2.852 . S
C761 C765 1.503 . S
C761 O778 1.273 . S
C761 O779 1.257 . S
C762 O760 1.255 . S
C762 O763 1.247 . S
O763 C762 1.247 . S
C764 O776 1.242 . S
C764 O777 1.258 . S
C765 C761 1.503 . S
C765 C766 1.379 . S
C765 C770 1.392 . S
C766 C765 1.379 . S
C766 C767 1.404 . S
C766 H780 0.929 . S
C767 C766 1.404 . S
C767 C768 1.389 . S
C768 C767 1.389 . S
C768 C769 1.399 . S
C768 H781 0.931 . S
C769 C768 1.399 . S
C769 C770 1.390 . S
C770 C765 1.392 . S
C770 C769 1.390 . S
C770 H782 0.929 . S
O771 Tb755 2.326 . S
O771 C759 1.242 . S
O772 Eu756 2.324 . S
O772 C759 1.258 . S
O773 Tb755 2.500 . S
O773 C775 1.273 . S
O774 Tb755 2.473 . S
O774 C775 1.257 . S
C775 O773 1.273 . S
C775 O774 1.257 . S
O776 Eu756 2.326 . S
O776 C764 1.242 . S
O777 Tb755 2.324 . S
O777 C764 1.258 . S
O778 Eu756 2.500 . S
O778 C761 1.273 . S
O779 Eu756 2.473 . S
O779 C761 1.257 . S
H780 C766 0.929 . S
H781 C768 0.931 . S
H782 C770 0.929 . S
O783 Tb784 2.292 . S
O783 C786 1.255 . S
Tb784 O783 2.292 . S
Tb784 O800 2.326 . S
Tb784 O802 2.500 . S
Tb784 O803 2.473 . S
Tb784 O806 2.324 . S
Eu785 O789 2.292 . S
Eu785 C790 2.852 . S
Eu785 O801 2.324 . S
Eu785 O805 2.326 . S
Eu785 O807 2.500 . S
Eu785 O808 2.473 . S
C786 O783 1.255 . S
C786 O787 1.247 . S
O787 C786 1.247 . S
C788 O800 1.242 . S
C788 O801 1.258 . S
O789 Eu785 2.292 . S
O789 C791 1.255 . S
C790 Eu785 2.852 . S
C790 C794 1.503 . S
C790 O807 1.273 . S
C790 O808 1.257 . S
C791 O789 1.255 . S
C791 O792 1.247 . S
O792 C791 1.247 . S
C793 O805 1.242 . S
C793 O806 1.258 . S
C794 C790 1.503 . S
C794 C795 1.379 . S
C794 C799 1.392 . S
C795 C794 1.379 . S
C795 C796 1.404 . S
C795 H809 0.929 . S
C796 C795 1.404 . S
C796 C797 1.389 . S
C797 C796 1.389 . S
C797 C798 1.399 . S
C797 H810 0.931 . S
C798 C797 1.399 . S
C798 C799 1.390 . S
C799 C794 1.392 . S
C799 C798 1.390 . S
C799 H811 0.929 . S
O800 Tb784 2.326 . S
O800 C788 1.242 . S
O801 Eu785 2.324 . S
O801 C788 1.258 . S
O802 Tb784 2.500 . S
O802 C804 1.273 . S
O803 Tb784 2.473 . S
O803 C804 1.257 . S
C804 O802 1.273 . S
C804 O803 1.257 . S
O805 Eu785 2.326 . S
O805 C793 1.242 . S
O806 Tb784 2.324 . S
O806 C793 1.258 . S
O807 Eu785 2.500 . S
O807 C790 1.273 . S
O808 Eu785 2.473 . S
O808 C790 1.257 . S
H809 C795 0.929 . S
H810 C797 0.931 . S
H811 C799 0.929 . S
O812 Tb813 2.292 . S
O812 C815 1.255 . S
Tb813 O812 2.292 . S
Tb813 O829 2.326 . S
Tb813 O831 2.500 . S
Tb813 O832 2.473 . S
Tb813 O835 2.324 1_554 S
Eu814 O818 2.292 . S
Eu814 C819 2.852 . S
Eu814 O830 2.324 1_556 S
Eu814 O834 2.326 . S
Eu814 O836 2.500 . S
Eu814 O837 2.473 . S
C815 O812 1.255 . S
C815 O816 1.247 . S
O816 C815 1.247 . S
C817 O829 1.242 . S
C817 O830 1.258 . S
O818 Eu814 2.292 . S
O818 C820 1.255 . S
C819 Eu814 2.852 . S
C819 C823 1.503 . S
C819 O836 1.273 . S
C819 O837 1.257 . S
C820 O818 1.255 . S
C820 O821 1.247 . S
O821 C820 1.247 . S
C822 O834 1.242 . S
C822 O835 1.258 . S
C823 C819 1.503 . S
C823 C824 1.379 . S
C823 C828 1.392 . S
C824 C823 1.379 . S
C824 C825 1.404 . S
C824 H838 0.929 . S
C825 C824 1.404 . S
C825 C826 1.389 . S
C826 C825 1.389 . S
C826 C827 1.399 . S
C826 H839 0.931 . S
C827 C826 1.399 . S
C827 C828 1.390 . S
C828 C823 1.392 . S
C828 C827 1.390 . S
C828 H840 0.929 . S
O829 Tb813 2.326 . S
O829 C817 1.242 . S
O830 Eu814 2.324 1_554 S
O830 C817 1.258 . S
O831 Tb813 2.500 . S
O831 C833 1.273 . S
O832 Tb813 2.473 . S
O832 C833 1.257 . S
C833 O831 1.273 . S
C833 O832 1.257 . S
O834 Eu814 2.326 . S
O834 C822 1.242 . S
O835 Tb813 2.324 1_556 S
O835 C822 1.258 . S
O836 Eu814 2.500 . S
O836 C819 1.273 . S
O837 Eu814 2.473 . S
O837 C819 1.257 . S
H838 C824 0.929 . S
H839 C826 0.931 . S
H840 C828 0.929 . S
O841 Tb842 2.292 . S
O841 C844 1.255 . S
Tb842 O841 2.292 . S
Tb842 O858 2.326 . S
Tb842 O860 2.500 . S
Tb842 O861 2.473 . S
Tb842 O864 2.324 1_554 S
Eu843 O847 2.292 . S
Eu843 C848 2.852 . S
Eu843 O859 2.324 1_556 S
Eu843 O863 2.326 . S
Eu843 O865 2.500 . S
Eu843 O866 2.473 . S
C844 O841 1.255 . S
C844 O845 1.247 . S
O845 C844 1.247 . S
C846 O858 1.242 . S
C846 O859 1.258 . S
O847 Eu843 2.292 . S
O847 C849 1.255 . S
C848 Eu843 2.852 . S
C848 C852 1.503 . S
C848 O865 1.273 . S
C848 O866 1.257 . S
C849 O847 1.255 . S
C849 O850 1.247 . S
O850 C849 1.247 . S
C851 O863 1.242 . S
C851 O864 1.258 . S
C852 C848 1.503 . S
C852 C853 1.379 . S
C852 C857 1.392 . S
C853 C852 1.379 . S
C853 C854 1.404 . S
C853 H867 0.929 . S
C854 C853 1.404 . S
C854 C855 1.389 . S
C855 C854 1.389 . S
C855 C856 1.399 . S
C855 H868 0.931 . S
C856 C855 1.399 . S
C856 C857 1.390 . S
C857 C852 1.392 . S
C857 C856 1.390 . S
C857 H869 0.929 . S
O858 Tb842 2.326 . S
O858 C846 1.242 . S
O859 Eu843 2.324 1_554 S
O859 C846 1.258 . S
O860 Tb842 2.500 . S
O860 C862 1.273 . S
O861 Tb842 2.473 . S
O861 C862 1.257 . S
C862 O860 1.273 . S
C862 O861 1.257 . S
O863 Eu843 2.326 . S
O863 C851 1.242 . S
O864 Tb842 2.324 1_556 S
O864 C851 1.258 . S
O865 Eu843 2.500 . S
O865 C848 1.273 . S
O866 Eu843 2.473 . S
O866 C848 1.257 . S
H867 C853 0.929 . S
H868 C855 0.931 . S
H869 C857 0.929 . S
O870 Tb871 2.292 . S
O870 C873 1.255 . S
Tb871 O870 2.292 . S
Tb871 O887 2.326 . S
Tb871 O889 2.500 . S
Tb871 O890 2.473 . S
Tb871 O893 2.324 . S
Eu872 O876 2.292 . S
Eu872 C877 2.852 . S
Eu872 O888 2.324 . S
Eu872 O892 2.326 . S
Eu872 O894 2.500 . S
Eu872 O895 2.473 . S
C873 O870 1.255 . S
C873 O874 1.247 . S
O874 C873 1.247 . S
C875 O887 1.242 . S
C875 O888 1.258 . S
O876 Eu872 2.292 . S
O876 C878 1.255 . S
C877 Eu872 2.852 . S
C877 C881 1.503 . S
C877 O894 1.273 . S
C877 O895 1.257 . S
C878 O876 1.255 . S
C878 O879 1.247 . S
O879 C878 1.247 . S
C880 O892 1.242 . S
C880 O893 1.258 . S
C881 C877 1.503 . S
C881 C882 1.379 . S
C881 C886 1.392 . S
C882 C881 1.379 . S
C882 C883 1.404 . S
C882 H896 0.929 . S
C883 C882 1.404 . S
C883 C884 1.389 . S
C884 C883 1.389 . S
C884 C885 1.399 . S
C884 H897 0.931 . S
C885 C884 1.399 . S
C885 C886 1.390 . S
C886 C881 1.392 . S
C886 C885 1.390 . S
C886 H898 0.929 . S
O887 Tb871 2.326 . S
O887 C875 1.242 . S
O888 Eu872 2.324 . S
O888 C875 1.258 . S
O889 Tb871 2.500 . S
O889 C891 1.273 . S
O890 Tb871 2.473 . S
O890 C891 1.257 . S
C891 O889 1.273 . S
C891 O890 1.257 . S
O892 Eu872 2.326 . S
O892 C880 1.242 . S
O893 Tb871 2.324 . S
O893 C880 1.258 . S
O894 Eu872 2.500 . S
O894 C877 1.273 . S
O895 Eu872 2.473 . S
O895 C877 1.257 . S
H896 C882 0.929 . S
H897 C884 0.931 . S
H898 C886 0.929 . S
O899 Tb900 2.292 . S
O899 C902 1.255 . S
Tb900 O899 2.292 . S
Tb900 O916 2.326 . S
Tb900 O918 2.500 . S
Tb900 O919 2.473 . S
Tb900 O922 2.324 . S
Eu901 O905 2.292 . S
Eu901 C906 2.852 . S
Eu901 O917 2.324 . S
Eu901 O921 2.326 . S
Eu901 O923 2.500 . S
Eu901 O924 2.473 . S
C902 O899 1.255 . S
C902 O903 1.247 . S
O903 C902 1.247 . S
C904 O916 1.242 . S
C904 O917 1.258 . S
O905 Eu901 2.292 . S
O905 C907 1.255 . S
C906 Eu901 2.852 . S
C906 C910 1.503 . S
C906 O923 1.273 . S
C906 O924 1.257 . S
C907 O905 1.255 . S
C907 O908 1.247 . S
O908 C907 1.247 . S
C909 O921 1.242 . S
C909 O922 1.258 . S
C910 C906 1.503 . S
C910 C911 1.379 . S
C910 C915 1.392 . S
C911 C910 1.379 . S
C911 C912 1.404 . S
C911 H925 0.929 . S
C912 C911 1.404 . S
C912 C913 1.389 . S
C913 C912 1.389 . S
C913 C914 1.399 . S
C913 H926 0.931 . S
C914 C913 1.399 . S
C914 C915 1.390 . S
C915 C910 1.392 . S
C915 C914 1.390 . S
C915 H927 0.929 . S
O916 Tb900 2.326 . S
O916 C904 1.242 . S
O917 Eu901 2.324 . S
O917 C904 1.258 . S
O918 Tb900 2.500 . S
O918 C920 1.273 . S
O919 Tb900 2.473 . S
O919 C920 1.257 . S
C920 O918 1.273 . S
C920 O919 1.257 . S
O921 Eu901 2.326 . S
O921 C909 1.242 . S
O922 Tb900 2.324 . S
O922 C909 1.258 . S
O923 Eu901 2.500 . S
O923 C906 1.273 . S
O924 Eu901 2.473 . S
O924 C906 1.257 . S
H925 C911 0.929 . S
H926 C913 0.931 . S
H927 C915 0.929 . S
H928 C936 0.950 1_554 S
H929 C941 0.950 . S
H930 C938 0.987 . S
H931 C940 0.950 . S
H932 C942 0.950 1_556 S
H933 C944 0.987 . S
H934 C946 0.950 . S
H935 C947 0.950 . S
C936 H928 0.950 1_556 S
C936 C937 1.386 . S
C936 C938 1.370 1_656 S
C937 C936 1.386 . S
C937 C941 1.393 . S
C938 H930 0.987 . S
C938 C936 1.370 1_454 S
C938 C939 1.387 1_454 S
C939 C938 1.387 1_656 S
C939 C940 1.398 . S
C939 C945 1.491 1_656 S
C940 H931 0.950 . S
C940 C939 1.398 . S
C940 C941 1.391 . S
C941 H929 0.950 . S
C941 C937 1.393 . S
C941 C940 1.391 . S
C942 H932 0.950 1_554 S
C942 C943 1.386 . S
C942 C944 1.370 1_454 S
C943 C942 1.386 . S
C943 C947 1.393 . S
C944 H933 0.987 . S
C944 C942 1.370 1_656 S
C944 C945 1.387 1_656 S
C945 C939 1.491 1_454 S
C945 C944 1.387 1_454 S
C945 C946 1.398 . S
C946 H934 0.950 . S
C946 C945 1.398 . S
C946 C947 1.391 . S
C947 H935 0.950 . S
C947 C943 1.393 . S
C947 C946 1.391 . S
H948 C956 0.950 1_554 S
H949 C961 0.950 . S
H950 C958 0.950 . S
H951 C960 0.950 . S
H952 C962 0.950 1_556 S
H953 C964 0.950 . S
H954 C966 0.950 . S
H955 C967 0.950 . S
C956 H948 0.950 1_556 S
C956 C957 1.386 . S
C956 C958 1.391 1_556 S
C957 C956 1.386 . S
C957 C961 1.393 . S
C958 H950 0.950 . S
C958 C956 1.391 1_554 S
C958 C959 1.400 1_554 S
C959 C958 1.400 1_556 S
C959 C960 1.398 . S
C959 C965 1.491 1_556 S
C960 H951 0.950 . S
C960 C959 1.398 . S
C960 C961 1.391 . S
C961 H949 0.950 . S
C961 C957 1.393 . S
C961 C960 1.391 . S
C962 H952 0.950 1_554 S
C962 C963 1.386 . S
C962 C964 1.391 1_554 S
C963 C962 1.386 . S
C963 C967 1.393 . S
C964 H953 0.950 . S
C964 C962 1.391 1_556 S
C964 C965 1.400 1_556 S
C965 C959 1.491 1_554 S
C965 C964 1.400 1_554 S
C965 C966 1.398 . S
C966 H954 0.950 . S
C966 C965 1.398 . S
C966 C967 1.391 . S
C967 H955 0.950 . S
C967 C963 1.393 . S
C967 C966 1.391 . S
H968 C976 0.950 . S
H969 C981 0.950 . S
H970 C978 0.950 . S
H971 C980 0.979 . S
H972 C982 0.950 . S
H973 C984 0.950 . S
H974 C986 0.979 . S
H975 C987 0.950 . S
C976 H968 0.950 . S
C976 C977 1.386 . S
C976 C978 1.391 . S
C977 C976 1.386 . S
C977 C981 1.393 . S
C978 H970 0.950 . S
C978 C976 1.391 . S
C978 C979 1.400 . S
C979 C978 1.400 . S
C979 C980 1.388 1_655 S
C979 C985 1.491 1_655 S
C980 H971 0.979 . S
C980 C979 1.388 1_455 S
C980 C981 1.374 1_455 S
C981 H969 0.950 . S
C981 C977 1.393 . S
C981 C980 1.374 1_655 S
C982 H972 0.950 . S
C982 C983 1.386 . S
C982 C984 1.391 . S
C983 C982 1.386 . S
C983 C987 1.393 . S
C984 H973 0.950 . S
C984 C982 1.391 . S
C984 C985 1.400 . S
C985 C979 1.491 1_455 S
C985 C984 1.400 . S
C985 C986 1.388 1_455 S
C986 H974 0.979 . S
C986 C985 1.388 1_655 S
C986 C987 1.374 1_655 S
C987 H975 0.950 . S
C987 C983 1.393 . S
C987 C986 1.374 1_455 S
H988 C996 0.950 . S
H989 C1001 0.950 . S
H990 C998 0.950 . S
H991 C1000 0.950 . S
H992 C1002 0.950 . S
H993 C1004 0.950 . S
H994 C1006 0.950 . S
H995 C1007 0.950 . S
C996 H988 0.950 . S
C996 C997 1.386 . S
C996 C998 1.391 . S
C997 C996 1.386 . S
C997 C1001 1.393 . S
C998 H990 0.950 . S
C998 C996 1.391 . S
C998 C999 1.400 . S
C999 C998 1.400 . S
C999 C1000 1.398 . S
C999 C1005 1.491 . S
C1000 H991 0.950 . S
C1000 C999 1.398 . S
C1000 C1001 1.391 . S
C1001 H989 0.950 . S
C1001 C997 1.393 . S
C1001 C1000 1.391 . S
C1002 H992 0.950 . S
C1002 C1003 1.386 . S
C1002 C1004 1.391 . S
C1003 C1002 1.386 . S
C1003 C1007 1.393 . S
C1004 H993 0.950 . S
C1004 C1002 1.391 . S
C1004 C1005 1.400 . S
C1005 C999 1.491 . S
C1005 C1004 1.400 . S
C1005 C1006 1.398 . S
C1006 H994 0.950 . S
C1006 C1005 1.398 . S
C1006 C1007 1.391 . S
C1007 H995 0.950 . S
C1007 C1003 1.393 . S
C1007 C1006 1.391 . S
H1008 C1016 0.950 . S
H1009 C1021 0.950 . S
H1010 C1018 0.950 1_556 S
H1011 C1020 0.950 . S
H1012 C1022 0.950 . S
H1013 C1024 0.950 1_554 S
H1014 C1026 0.950 . S
H1015 C1027 0.950 . S
C1016 H1008 0.950 . S
C1016 C1017 1.386 . S
C1016 C1018 1.391 . S
C1017 C1016 1.386 . S
C1017 C1021 1.393 . S
C1018 H1010 0.950 1_554 S
C1018 C1016 1.391 . S
C1018 C1019 1.400 . S
C1019 C1018 1.400 . S
C1019 C1020 1.398 . S
C1019 C1025 1.491 1_554 S
C1020 H1011 0.950 . S
C1020 C1019 1.398 . S
C1020 C1021 1.391 . S
C1021 H1009 0.950 . S
C1021 C1017 1.393 . S
C1021 C1020 1.391 . S
C1022 H1012 0.950 . S
C1022 C1023 1.386 . S
C1022 C1024 1.391 . S
C1023 C1022 1.386 . S
C1023 C1027 1.393 . S
C1024 H1013 0.950 1_556 S
C1024 C1022 1.391 . S
C1024 C1025 1.400 . S
C1025 C1019 1.491 1_556 S
C1025 C1024 1.400 . S
C1025 C1026 1.398 . S
C1026 H1014 0.950 . S
C1026 C1025 1.398 . S
C1026 C1027 1.391 . S
C1027 H1015 0.950 . S
C1027 C1023 1.393 . S
C1027 C1026 1.391 . S
H1028 C1036 0.950 . S
H1029 C1041 0.950 . S
H1030 C1038 0.950 . S
H1031 C1040 0.950 1_455 S
H1032 C1042 0.950 . S
H1033 C1044 0.950 . S
H1034 C1046 0.950 1_655 S
H1035 C1047 0.950 . S
C1036 H1028 0.950 . S
C1036 C1037 1.386 . S
C1036 C1038 1.391 . S
C1037 C1036 1.386 . S
C1037 C1041 1.393 . S
C1038 H1030 0.950 . S
C1038 C1036 1.391 . S
C1038 C1039 1.400 . S
C1039 C1038 1.400 . S
C1039 C1040 1.398 . S
C1039 C1045 1.491 1_655 S
C1040 H1031 0.950 1_655 S
C1040 C1039 1.398 . S
C1040 C1041 1.391 . S
C1041 H1029 0.950 . S
C1041 C1037 1.393 . S
C1041 C1040 1.391 . S
C1042 H1032 0.950 . S
C1042 C1043 1.386 . S
C1042 C1044 1.391 . S
C1043 C1042 1.386 . S
C1043 C1047 1.393 . S
C1044 H1033 0.950 . S
C1044 C1042 1.391 . S
C1044 C1045 1.400 . S
C1045 C1039 1.491 1_455 S
C1045 C1044 1.400 . S
C1045 C1046 1.398 . S
C1046 H1034 0.950 1_455 S
C1046 C1045 1.398 . S
C1046 C1047 1.391 . S
C1047 H1035 0.950 . S
C1047 C1043 1.393 . S
C1047 C1046 1.391 . S
H1048 C1056 0.950 . S
H1049 C1061 0.950 . S
H1050 C1058 0.950 . S
H1051 C1060 0.950 . S
H1052 C1062 0.950 . S
H1053 C1064 0.950 . S
H1054 C1066 0.950 . S
H1055 C1067 0.950 . S
C1056 H1048 0.950 . S
C1056 C1057 1.386 . S
C1056 C1058 1.391 . S
C1057 C1056 1.386 . S
C1057 C1061 1.393 . S
C1058 H1050 0.950 . S
C1058 C1056 1.391 . S
C1058 C1059 1.400 . S
C1059 C1058 1.400 . S
C1059 C1060 1.398 . S
C1059 C1065 1.491 . S
C1060 H1051 0.950 . S
C1060 C1059 1.398 . S
C1060 C1061 1.391 . S
C1061 H1049 0.950 . S
C1061 C1057 1.393 . S
C1061 C1060 1.391 . S
C1062 H1052 0.950 . S
C1062 C1063 1.386 . S
C1062 C1064 1.391 . S
C1063 C1062 1.386 . S
C1063 C1067 1.393 . S
C1064 H1053 0.950 . S
C1064 C1062 1.391 . S
C1064 C1065 1.400 . S
C1065 C1059 1.491 . S
C1065 C1064 1.400 . S
C1065 C1066 1.398 . S
C1066 H1054 0.950 . S
C1066 C1065 1.398 . S
C1066 C1067 1.391 . S
C1067 H1055 0.950 . S
C1067 C1063 1.393 . S
C1067 C1066 1.391 . S
H1068 C1076 0.950 1_655 S
H1069 C1081 0.950 . S
H1070 C1078 0.950 . S
H1071 C1080 0.950 . S
H1072 C1082 0.950 1_455 S
H1073 C1084 0.950 . S
H1074 C1086 0.950 . S
H1075 C1087 0.950 . S
C1076 H1068 0.950 1_455 S
C1076 C1077 1.386 . S
C1076 C1078 1.391 1_455 S
C1077 C1076 1.386 . S
C1077 C1081 1.393 . S
C1078 H1070 0.950 . S
C1078 C1076 1.391 1_655 S
C1078 C1079 1.400 1_655 S
C1079 C1078 1.400 1_455 S
C1079 C1080 1.398 . S
C1079 C1085 1.491 1_465 S
C1080 H1071 0.950 . S
C1080 C1079 1.398 . S
C1080 C1081 1.391 . S
C1081 H1069 0.950 . S
C1081 C1077 1.393 . S
C1081 C1080 1.391 . S
C1082 H1072 0.950 1_655 S
C1082 C1083 1.386 . S
C1082 C1084 1.391 1_655 S
C1083 C1082 1.386 . S
C1083 C1087 1.393 . S
C1084 H1073 0.950 . S
C1084 C1082 1.391 1_455 S
C1084 C1085 1.400 1_455 S
C1085 C1079 1.491 1_645 S
C1085 C1084 1.400 1_655 S
C1085 C1086 1.398 . S
C1086 H1074 0.950 . S
C1086 C1085 1.398 . S
C1086 C1087 1.391 . S
C1087 H1075 0.950 . S
C1087 C1083 1.393 . S
C1087 C1086 1.391 . S
H1088 C1096 0.950 . S
H1089 C1101 0.950 . S
H1090 C1098 0.950 . S
H1091 C1100 0.950 . S
H1092 C1102 0.950 . S
H1093 C1104 0.950 . S
H1094 C1106 0.950 . S
H1095 C1107 0.950 . S
C1096 H1088 0.950 . S
C1096 C1097 1.386 . S
C1096 C1098 1.391 . S
C1097 C1096 1.386 . S
C1097 C1101 1.393 . S
C1098 H1090 0.950 . S
C1098 C1096 1.391 . S
C1098 C1099 1.400 . S
C1099 C1098 1.400 . S
C1099 C1100 1.398 . S
C1099 C1105 1.491 . S
C1100 H1091 0.950 . S
C1100 C1099 1.398 . S
C1100 C1101 1.391 . S
C1101 H1089 0.950 . S
C1101 C1097 1.393 . S
C1101 C1100 1.391 . S
C1102 H1092 0.950 . S
C1102 C1103 1.386 . S
C1102 C1104 1.391 . S
C1103 C1102 1.386 . S
C1103 C1107 1.393 . S
C1104 H1093 0.950 . S
C1104 C1102 1.391 . S
C1104 C1105 1.400 . S
C1105 C1099 1.491 . S
C1105 C1104 1.400 . S
C1105 C1106 1.398 . S
C1106 H1094 0.950 . S
C1106 C1105 1.398 . S
C1106 C1107 1.391 . S
C1107 H1095 0.950 . S
C1107 C1103 1.393 . S
C1107 C1106 1.391 . S
H1108 C1116 0.950 . S
H1109 C1121 0.950 . S
H1110 C1118 0.950 1_565 S
H1111 C1120 0.950 . S
H1112 C1122 0.950 . S
H1113 C1124 0.950 1_545 S
H1114 C1126 0.950 . S
H1115 C1127 0.950 . S
C1116 H1108 0.950 . S
C1116 C1117 1.386 . S
C1116 C1118 1.391 . S
C1117 C1116 1.386 . S
C1117 C1121 1.393 . S
C1118 H1110 0.950 1_545 S
C1118 C1116 1.391 . S
C1118 C1119 1.400 . S
C1119 C1118 1.400 . S
C1119 C1120 1.398 . S
C1119 C1125 1.491 1_545 S
C1120 H1111 0.950 . S
C1120 C1119 1.398 . S
C1120 C1121 1.391 . S
C1121 H1109 0.950 . S
C1121 C1117 1.393 . S
C1121 C1120 1.391 . S
C1122 H1112 0.950 . S
C1122 C1123 1.386 . S
C1122 C1124 1.391 . S
C1123 C1122 1.386 . S
C1123 C1127 1.393 . S
C1124 H1113 0.950 1_565 S
C1124 C1122 1.391 . S
C1124 C1125 1.400 . S
C1125 C1119 1.491 1_565 S
C1125 C1124 1.400 . S
C1125 C1126 1.398 . S
C1126 H1114 0.950 . S
C1126 C1125 1.398 . S
C1126 C1127 1.391 . S
C1127 H1115 0.950 . S
C1127 C1123 1.393 . S
C1127 C1126 1.391 . S
H1128 C1136 0.950 . S
H1129 C1141 0.950 . S
H1130 C1138 0.950 . S
H1131 C1140 0.950 . S
H1132 C1142 0.950 . S
H1133 C1144 0.950 . S
H1134 C1146 0.950 . S
H1135 C1147 0.950 . S
C1136 H1128 0.950 . S
C1136 C1137 1.386 . S
C1136 C1138 1.391 . S
C1137 C1136 1.386 . S
C1137 C1141 1.393 . S
C1138 H1130 0.950 . S
C1138 C1136 1.391 . S
C1138 C1139 1.400 . S
C1139 C1138 1.400 . S
C1139 C1140 1.398 . S
C1139 C1145 1.491 . S
C1140 H1131 0.950 . S
C1140 C1139 1.398 . S
C1140 C1141 1.391 . S
C1141 H1129 0.950 . S
C1141 C1137 1.393 . S
C1141 C1140 1.391 . S
C1142 H1132 0.950 . S
C1142 C1143 1.386 . S
C1142 C1144 1.391 . S
C1143 C1142 1.386 . S
C1143 C1147 1.393 . S
C1144 H1133 0.950 . S
C1144 C1142 1.391 . S
C1144 C1145 1.400 . S
C1145 C1139 1.491 . S
C1145 C1144 1.400 . S
C1145 C1146 1.398 . S
C1146 H1134 0.950 . S
C1146 C1145 1.398 . S
C1146 C1147 1.391 . S
C1147 H1135 0.950 . S
C1147 C1143 1.393 . S
C1147 C1146 1.391 . S
H1148 C1156 0.950 . S
H1149 C1161 0.950 . S
H1150 C1158 0.950 . S
H1151 C1160 0.950 . S
H1152 C1162 0.950 . S
H1153 C1164 0.950 . S
H1154 C1166 0.950 . S
H1155 C1167 0.950 . S
C1156 H1148 0.950 . S
C1156 C1157 1.386 . S
C1156 C1158 1.391 . S
C1157 C1156 1.386 . S
C1157 C1161 1.393 . S
C1158 H1150 0.950 . S
C1158 C1156 1.391 . S
C1158 C1159 1.400 . S
C1159 C1158 1.400 . S
C1159 C1160 1.398 . S
C1159 C1165 1.491 1_565 S
C1160 H1151 0.950 . S
C1160 C1159 1.398 . S
C1160 C1161 1.391 . S
C1161 H1149 0.950 . S
C1161 C1157 1.393 . S
C1161 C1160 1.391 . S
C1162 H1152 0.950 . S
C1162 C1163 1.386 . S
C1162 C1164 1.391 . S
C1163 C1162 1.386 . S
C1163 C1167 1.393 . S
C1164 H1153 0.950 . S
C1164 C1162 1.391 . S
C1164 C1165 1.400 . S
C1165 C1159 1.491 1_545 S
C1165 C1164 1.400 . S
C1165 C1166 1.398 . S
C1166 H1154 0.950 . S
C1166 C1165 1.398 . S
C1166 C1167 1.391 . S
C1167 H1155 0.950 . S
C1167 C1163 1.393 . S
C1167 C1166 1.391 . S
H1168 C1176 0.950 . S
H1169 C1181 0.950 . S
H1170 C1178 0.950 . S
H1171 C1180 0.950 . S
H1172 C1182 0.950 . S
H1173 C1184 0.950 . S
H1174 C1186 0.950 . S
H1175 C1187 0.950 . S
C1176 H1168 0.950 . S
C1176 C1177 1.386 . S
C1176 C1178 1.391 . S
C1177 C1176 1.386 . S
C1177 C1181 1.393 . S
C1178 H1170 0.950 . S
C1178 C1176 1.391 . S
C1178 C1179 1.400 . S
C1179 C1178 1.400 . S
C1179 C1180 1.398 . S
C1179 C1185 1.491 . S
C1180 H1171 0.950 . S
C1180 C1179 1.398 . S
C1180 C1181 1.391 . S
C1181 H1169 0.950 . S
C1181 C1177 1.393 . S
C1181 C1180 1.391 . S
C1182 H1172 0.950 . S
C1182 C1183 1.386 . S
C1182 C1184 1.391 . S
C1183 C1182 1.386 . S
C1183 C1187 1.393 . S
C1184 H1173 0.950 . S
C1184 C1182 1.391 . S
C1184 C1185 1.400 . S
C1185 C1179 1.491 . S
C1185 C1184 1.400 . S
C1185 C1186 1.398 . S
C1186 H1174 0.950 . S
C1186 C1185 1.398 . S
C1186 C1187 1.391 . S
C1187 H1175 0.950 . S
C1187 C1183 1.393 . S
C1187 C1186 1.391 . S
H1188 C1196 0.950 . S
H1189 C1201 0.950 . S
H1190 C1198 0.950 . S
H1191 C1200 0.950 . S
H1192 C1202 0.950 . S
H1193 C1204 0.950 . S
H1194 C1206 0.950 . S
H1195 C1207 0.950 . S
C1196 H1188 0.950 . S
C1196 C1197 1.386 . S
C1196 C1198 1.391 . S
C1197 C1196 1.386 . S
C1197 C1201 1.393 . S
C1198 H1190 0.950 . S
C1198 C1196 1.391 . S
C1198 C1199 1.400 . S
C1199 C1198 1.400 . S
C1199 C1200 1.398 . S
C1199 C1205 1.491 . S
C1200 H1191 0.950 . S
C1200 C1199 1.398 . S
C1200 C1201 1.391 . S
C1201 H1189 0.950 . S
C1201 C1197 1.393 . S
C1201 C1200 1.391 . S
C1202 H1192 0.950 . S
C1202 C1203 1.386 . S
C1202 C1204 1.391 . S
C1203 C1202 1.386 . S
C1203 C1207 1.393 . S
C1204 H1193 0.950 . S
C1204 C1202 1.391 . S
C1204 C1205 1.400 . S
C1205 C1199 1.491 . S
C1205 C1204 1.400 . S
C1205 C1206 1.398 . S
C1206 H1194 0.950 . S
C1206 C1205 1.398 . S
C1206 C1207 1.391 . S
C1207 H1195 0.950 . S
C1207 C1203 1.393 . S
C1207 C1206 1.391 . S
H1208 C1216 0.950 . S
H1209 C1221 0.950 . S
H1210 C1218 0.950 . S
H1211 C1220 0.950 . S
H1212 C1222 0.950 . S
H1213 C1224 0.950 . S
H1214 C1226 0.950 . S
H1215 C1227 0.950 . S
C1216 H1208 0.950 . S
C1216 C1217 1.386 . S
C1216 C1218 1.391 . S
C1217 C1216 1.386 . S
C1217 C1221 1.393 . S
C1218 H1210 0.950 . S
C1218 C1216 1.391 . S
C1218 C1219 1.400 . S
C1219 C1218 1.400 . S
C1219 C1220 1.398 . S
C1219 C1225 1.491 . S
C1220 H1211 0.950 . S
C1220 C1219 1.398 . S
C1220 C1221 1.391 . S
C1221 H1209 0.950 . S
C1221 C1217 1.393 . S
C1221 C1220 1.391 . S
C1222 H1212 0.950 . S
C1222 C1223 1.386 . S
C1222 C1224 1.391 . S
C1223 C1222 1.386 . S
C1223 C1227 1.393 . S
C1224 H1213 0.950 . S
C1224 C1222 1.391 . S
C1224 C1225 1.400 . S
C1225 C1219 1.491 . S
C1225 C1224 1.400 . S
C1225 C1226 1.398 . S
C1226 H1214 0.950 . S
C1226 C1225 1.398 . S
C1226 C1227 1.391 . S
C1227 H1215 0.950 . S
C1227 C1223 1.393 . S
C1227 C1226 1.391 . S
H1228 C1236 0.950 . S
H1229 C1241 0.950 . S
H1230 C1238 0.950 . S
H1231 C1240 0.950 . S
H1232 C1242 0.950 . S
H1233 C1244 0.950 . S
H1234 C1246 0.950 . S
H1235 C1247 0.950 . S
C1236 H1228 0.950 . S
C1236 C1237 1.386 . S
C1236 C1238 1.391 . S
C1237 C1236 1.386 . S
C1237 C1241 1.393 1_554 S
C1238 H1230 0.950 . S
C1238 C1236 1.391 . S
C1238 C1239 1.400 . S
C1239 C1238 1.400 . S
C1239 C1240 1.398 1_554 S
C1239 C1245 1.491 1_564 S
C1240 H1231 0.950 . S
C1240 C1239 1.398 1_556 S
C1240 C1241 1.391 . S
C1241 H1229 0.950 . S
C1241 C1237 1.393 1_556 S
C1241 C1240 1.391 . S
C1242 H1232 0.950 . S
C1242 C1243 1.386 . S
C1242 C1244 1.391 . S
C1243 C1242 1.386 . S
C1243 C1247 1.393 1_556 S
C1244 H1233 0.950 . S
C1244 C1242 1.391 . S
C1244 C1245 1.400 . S
C1245 C1239 1.491 1_546 S
C1245 C1244 1.400 . S
C1245 C1246 1.398 1_556 S
C1246 H1234 0.950 . S
C1246 C1245 1.398 1_554 S
C1246 C1247 1.391 . S
C1247 H1235 0.950 . S
C1247 C1243 1.393 1_554 S
C1247 C1246 1.391 . S
H1248 C1256 0.950 . S
H1249 C1261 0.950 . S
H1250 C1258 0.950 . S
H1251 C1260 0.950 . S
H1252 C1262 0.950 . S
H1253 C1264 0.950 . S
H1254 C1266 0.950 . S
H1255 C1267 0.950 . S
C1256 H1248 0.950 . S
C1256 C1257 1.386 . S
C1256 C1258 1.391 . S
C1257 C1256 1.386 . S
C1257 C1261 1.393 . S
C1258 H1250 0.950 . S
C1258 C1256 1.391 . S
C1258 C1259 1.400 . S
C1259 C1258 1.400 . S
C1259 C1260 1.398 . S
C1259 C1265 1.491 . S
C1260 H1251 0.950 . S
C1260 C1259 1.398 . S
C1260 C1261 1.391 . S
C1261 H1249 0.950 . S
C1261 C1257 1.393 . S
C1261 C1260 1.391 . S
C1262 H1252 0.950 . S
C1262 C1263 1.386 1_455 S
C1262 C1264 1.391 . S
C1263 C1262 1.386 1_655 S
C1263 C1267 1.393 . S
C1264 H1253 0.950 . S
C1264 C1262 1.391 . S
C1264 C1265 1.400 . S
C1265 C1259 1.491 . S
C1265 C1264 1.400 . S
C1265 C1266 1.398 1_455 S
C1266 H1254 0.950 . S
C1266 C1265 1.398 1_655 S
C1266 C1267 1.391 . S
C1267 H1255 0.950 . S
C1267 C1263 1.393 . S
C1267 C1266 1.391 . S
H1268 C1276 0.950 . S
H1269 C1281 0.950 1_565 S
H1270 C1278 0.950 . S
H1271 C1280 0.950 . S
H1272 C1282 0.950 . S
H1273 C1284 0.950 . S
H1274 C1286 0.950 . S
H1275 C1287 0.950 . S
C1276 H1268 0.950 . S
C1276 C1277 1.386 . S
C1276 C1278 1.391 . S
C1277 C1276 1.386 . S
C1277 C1281 1.393 . S
C1278 H1270 0.950 . S
C1278 C1276 1.391 . S
C1278 C1279 1.400 . S
C1279 C1278 1.400 . S
C1279 C1280 1.398 . S
C1279 C1285 1.491 . S
C1280 H1271 0.950 . S
C1280 C1279 1.398 . S
C1280 C1281 1.391 . S
C1281 H1269 0.950 1_545 S
C1281 C1277 1.393 . S
C1281 C1280 1.391 . S
C1282 H1272 0.950 . S
C1282 C1283 1.386 . S
C1282 C1284 1.391 . S
C1283 C1282 1.386 . S
C1283 C1287 1.393 . S
C1284 H1273 0.950 . S
C1284 C1282 1.391 . S
C1284 C1285 1.400 . S
C1285 C1279 1.491 . S
C1285 C1284 1.400 . S
C1285 C1286 1.398 . S
C1286 H1274 0.950 . S
C1286 C1285 1.398 . S
C1286 C1287 1.391 . S
C1287 H1275 0.950 . S
C1287 C1283 1.393 . S
C1287 C1286 1.391 . S
H1288 C1296 0.950 . S
H1289 C1301 0.950 . S
H1290 C1298 0.950 . S
H1291 C1300 0.950 . S
H1292 C1302 0.933 1_565 S
H1293 C1304 0.950 1_655 S
H1294 C1306 0.950 . S
H1295 C1307 0.950 . S
C1296 H1288 0.950 . S
C1296 C1297 1.386 1_455 S
C1296 C1298 1.391 . S
C1297 C1296 1.386 1_655 S
C1297 C1301 1.393 . S
C1298 H1290 0.950 . S
C1298 C1296 1.391 . S
C1298 C1299 1.400 . S
C1299 C1298 1.400 . S
C1299 C1300 1.398 1_455 S
C1299 C1305 1.491 . S
C1300 H1291 0.950 . S
C1300 C1299 1.398 1_655 S
C1300 C1301 1.391 . S
C1301 H1289 0.950 . S
C1301 C1297 1.393 . S
C1301 C1300 1.391 . S
C1302 H1292 0.933 1_545 S
C1302 C1303 1.386 . S
C1302 C1304 1.391 . S
C1303 C1302 1.386 . S
C1303 C1307 1.393 . S
C1304 H1293 0.950 1_455 S
C1304 C1302 1.391 . S
C1304 C1305 1.400 . S
C1305 C1299 1.491 . S
C1305 C1304 1.400 . S
C1305 C1306 1.398 . S
C1306 H1294 0.950 . S
C1306 C1305 1.398 . S
C1306 C1307 1.391 . S
C1307 H1295 0.950 . S
C1307 C1303 1.393 . S
C1307 C1306 1.391 . S
H1308 C1316 0.950 . S
H1309 C1321 0.950 . S
H1310 C1318 0.950 . S
H1311 C1320 0.950 . S
H1312 C1322 0.950 . S
H1313 C1324 0.950 . S
H1314 C1326 0.950 . S
H1315 C1327 0.950 . S
C1316 H1308 0.950 . S
C1316 C1317 1.386 . S
C1316 C1318 1.391 . S
C1317 C1316 1.386 . S
C1317 C1321 1.393 . S
C1318 H1310 0.950 . S
C1318 C1316 1.391 . S
C1318 C1319 1.400 . S
C1319 C1318 1.400 . S
C1319 C1320 1.398 . S
C1319 C1325 1.491 . S
C1320 H1311 0.950 . S
C1320 C1319 1.398 . S
C1320 C1321 1.391 . S
C1321 H1309 0.950 . S
C1321 C1317 1.393 . S
C1321 C1320 1.391 . S
C1322 H1312 0.950 . S
C1322 C1323 1.386 . S
C1322 C1324 1.391 . S
C1323 C1322 1.386 . S
C1323 C1327 1.393 . S
C1324 H1313 0.950 . S
C1324 C1322 1.391 . S
C1324 C1325 1.400 . S
C1325 C1319 1.491 . S
C1325 C1324 1.400 . S
C1325 C1326 1.398 . S
C1326 H1314 0.950 . S
C1326 C1325 1.398 . S
C1326 C1327 1.391 . S
C1327 H1315 0.950 . S
C1327 C1323 1.393 . S
C1327 C1326 1.391 . S
H1328 C1336 0.950 . S
H1329 C1341 0.950 . S
H1330 C1338 0.950 . S
H1331 C1340 0.950 . S
H1332 C1342 0.950 . S
H1333 C1344 0.950 . S
H1334 C1346 0.950 . S
H1335 C1347 0.950 . S
C1336 H1328 0.950 . S
C1336 C1337 1.386 . S
C1336 C1338 1.391 . S
C1337 C1336 1.386 . S
C1337 C1341 1.393 1_455 S
C1338 H1330 0.950 . S
C1338 C1336 1.391 . S
C1338 C1339 1.400 1_455 S
C1339 C1338 1.400 1_655 S
C1339 C1340 1.398 . S
C1339 C1345 1.491 . S
C1340 H1331 0.950 . S
C1340 C1339 1.398 . S
C1340 C1341 1.391 . S
C1341 H1329 0.950 . S
C1341 C1337 1.393 1_655 S
C1341 C1340 1.391 . S
C1342 H1332 0.950 . S
C1342 C1343 1.386 . S
C1342 C1344 1.391 . S
C1343 C1342 1.386 . S
C1343 C1347 1.393 . S
C1344 H1333 0.950 . S
C1344 C1342 1.391 . S
C1344 C1345 1.400 . S
C1345 C1339 1.491 . S
C1345 C1344 1.400 . S
C1345 C1346 1.398 . S
C1346 H1334 0.950 . S
C1346 C1345 1.398 . S
C1346 C1347 1.391 . S
C1347 H1335 0.950 . S
C1347 C1343 1.393 . S
C1347 C1346 1.391 . S
H1348 C1356 0.950 . S
H1349 C1361 0.950 . S
H1350 C1358 0.950 1_545 S
H1351 C1360 0.950 . S
H1352 C1362 0.950 . S
H1353 C1364 0.950 . S
H1354 C1366 0.950 . S
H1355 C1367 0.950 . S
C1356 H1348 0.950 . S
C1356 C1357 1.386 1_545 S
C1356 C1358 1.391 1_545 S
C1357 C1356 1.386 1_565 S
C1357 C1361 1.393 . S
C1358 H1350 0.950 1_565 S
C1358 C1356 1.391 1_565 S
C1358 C1359 1.400 . S
C1359 C1358 1.400 . S
C1359 C1360 1.398 . S
C1359 C1365 1.491 . S
C1360 H1351 0.950 . S
C1360 C1359 1.398 . S
C1360 C1361 1.391 . S
C1361 H1349 0.950 . S
C1361 C1357 1.393 . S
C1361 C1360 1.391 . S
C1362 H1352 0.950 . S
C1362 C1363 1.386 . S
C1362 C1364 1.391 . S
C1363 C1362 1.386 . S
C1363 C1367 1.393 . S
C1364 H1353 0.950 . S
C1364 C1362 1.391 . S
C1364 C1365 1.400 . S
C1365 C1359 1.491 . S
C1365 C1364 1.400 . S
C1365 C1366 1.398 . S
C1366 H1354 0.950 . S
C1366 C1365 1.398 . S
C1366 C1367 1.391 . S
C1367 H1355 0.950 . S
C1367 C1363 1.393 . S
C1367 C1366 1.391 . S
H1368 C1376 0.920 1_545 S
H1369 C1381 0.950 . S
H1370 C1378 0.950 1_455 S
H1371 C1380 0.950 . S
H1372 C1382 0.950 . S
H1373 C1384 0.950 . S
H1374 C1386 0.950 . S
H1375 C1387 0.950 . S
C1376 H1368 0.920 1_565 S
C1376 C1377 1.400 . S
C1376 C1378 1.407 . S
C1377 C1376 1.400 . S
C1377 C1381 1.393 . S
C1378 H1370 0.950 1_655 S
C1378 C1376 1.407 . S
C1378 C1379 1.400 . S
C1379 C1378 1.400 . S
C1379 C1380 1.398 . S
C1379 C1385 1.491 . S
C1380 H1371 0.950 . S
C1380 C1379 1.398 . S
C1380 C1381 1.391 . S
C1381 H1369 0.950 . S
C1381 C1377 1.393 . S
C1381 C1380 1.391 . S
C1382 H1372 0.950 . S
C1382 C1383 1.386 1_655 S
C1382 C1384 1.391 . S
C1383 C1382 1.386 1_455 S
C1383 C1387 1.393 . S
C1384 H1373 0.950 . S
C1384 C1382 1.391 . S
C1384 C1385 1.400 . S
C1385 C1379 1.491 . S
C1385 C1384 1.400 . S
C1385 C1386 1.398 1_655 S
C1386 H1374 0.950 . S
C1386 C1385 1.398 1_455 S
C1386 C1387 1.391 . S
C1387 H1375 0.950 . S
C1387 C1383 1.393 . S
C1387 C1386 1.391 . S
H1388 C1396 0.950 . S
H1389 C1401 0.950 . S
H1390 C1398 0.950 . S
H1391 C1400 0.950 . S
H1392 C1402 0.950 . S
H1393 C1404 0.950 . S
H1394 C1406 0.950 . S
H1395 C1407 0.950 . S
C1396 H1388 0.950 . S
C1396 C1397 1.386 . S
C1396 C1398 1.391 . S
C1397 C1396 1.386 . S
C1397 C1401 1.393 . S
C1398 H1390 0.950 . S
C1398 C1396 1.391 . S
C1398 C1399 1.400 . S
C1399 C1398 1.400 . S
C1399 C1400 1.398 . S
C1399 C1405 1.491 . S
C1400 H1391 0.950 . S
C1400 C1399 1.398 . S
C1400 C1401 1.391 . S
C1401 H1389 0.950 . S
C1401 C1397 1.393 . S
C1401 C1400 1.391 . S
C1402 H1392 0.950 . S
C1402 C1403 1.386 . S
C1402 C1404 1.391 . S
C1403 C1402 1.386 . S
C1403 C1407 1.393 . S
C1404 H1393 0.950 . S
C1404 C1402 1.391 . S
C1404 C1405 1.400 . S
C1405 C1399 1.491 . S
C1405 C1404 1.400 . S
C1405 C1406 1.398 . S
C1406 H1394 0.950 . S
C1406 C1405 1.398 . S
C1406 C1407 1.391 . S
C1407 H1395 0.950 . S
C1407 C1403 1.393 . S
C1407 C1406 1.391 . S
H1408 C1416 0.950 . S
H1409 C1421 0.950 . S
H1410 C1418 0.950 . S
H1411 C1420 0.950 . S
H1412 C1422 0.950 . S
H1413 C1424 0.950 . S
H1414 C1426 0.950 . S
H1415 C1427 0.950 . S
C1416 H1408 0.950 . S
C1416 C1417 1.386 . S
C1416 C1418 1.391 . S
C1417 C1416 1.386 . S
C1417 C1421 1.393 . S
C1418 H1410 0.950 . S
C1418 C1416 1.391 . S
C1418 C1419 1.400 . S
C1419 C1418 1.400 . S
C1419 C1420 1.398 . S
C1419 C1425 1.491 . S
C1420 H1411 0.950 . S
C1420 C1419 1.398 . S
C1420 C1421 1.391 . S
C1421 H1409 0.950 . S
C1421 C1417 1.393 . S
C1421 C1420 1.391 . S
C1422 H1412 0.950 . S
C1422 C1423 1.386 . S
C1422 C1424 1.391 1_655 S
C1423 C1422 1.386 . S
C1423 C1427 1.393 . S
C1424 H1413 0.950 . S
C1424 C1422 1.391 1_455 S
C1424 C1425 1.400 . S
C1425 C1419 1.491 . S
C1425 C1424 1.400 . S
C1425 C1426 1.398 . S
C1426 H1414 0.950 . S
C1426 C1425 1.398 . S
C1426 C1427 1.391 1_455 S
C1427 H1415 0.950 . S
C1427 C1423 1.393 . S
C1427 C1426 1.391 1_655 S
H1428 C1436 0.950 . S
H1429 C1441 0.950 . S
H1430 C1438 0.950 . S
H1431 C1440 0.950 . S
H1432 C1442 0.950 . S
H1433 C1444 0.950 . S
H1434 C1446 0.950 . S
H1435 C1447 0.950 . S
C1436 H1428 0.950 . S
C1436 C1437 1.386 . S
C1436 C1438 1.391 . S
C1437 C1436 1.386 . S
C1437 C1441 1.393 . S
C1438 H1430 0.950 . S
C1438 C1436 1.391 . S
C1438 C1439 1.400 . S
C1439 C1438 1.400 . S
C1439 C1440 1.398 . S
C1439 C1445 1.491 . S
C1440 H1431 0.950 . S
C1440 C1439 1.398 . S
C1440 C1441 1.391 . S
C1441 H1429 0.950 . S
C1441 C1437 1.393 . S
C1441 C1440 1.391 . S
C1442 H1432 0.950 . S
C1442 C1443 1.386 . S
C1442 C1444 1.391 . S
C1443 C1442 1.386 . S
C1443 C1447 1.393 . S
C1444 H1433 0.950 . S
C1444 C1442 1.391 . S
C1444 C1445 1.400 . S
C1445 C1439 1.491 . S
C1445 C1444 1.400 . S
C1445 C1446 1.398 . S
C1446 H1434 0.950 . S
C1446 C1445 1.398 . S
C1446 C1447 1.391 . S
C1447 H1435 0.950 . S
C1447 C1443 1.393 . S
C1447 C1446 1.391 . S
H1448 C1456 0.950 . S
H1449 C1461 0.948 1_655 S
H1450 C1458 0.950 . S
H1451 C1460 0.950 . S
H1452 C1462 0.950 . S
H1453 C1464 0.950 . S
H1454 C1466 0.950 . S
H1455 C1467 0.950 . S
C1456 H1448 0.950 . S
C1456 C1457 1.386 . S
C1456 C1458 1.391 1_655 S
C1457 C1456 1.386 . S
C1457 C1461 1.385 1_655 S
C1458 H1450 0.950 . S
C1458 C1456 1.391 1_455 S
C1458 C1459 1.400 . S
C1459 C1458 1.400 . S
C1459 C1460 1.398 . S
C1459 C1465 1.491 . S
C1460 H1451 0.950 . S
C1460 C1459 1.398 . S
C1460 C1461 1.400 . S
C1461 H1449 0.948 1_455 S
C1461 C1457 1.385 1_455 S
C1461 C1460 1.400 . S
C1462 H1452 0.950 . S
C1462 C1463 1.386 . S
C1462 C1464 1.391 . S
C1463 C1462 1.386 . S
C1463 C1467 1.393 . S
C1464 H1453 0.950 . S
C1464 C1462 1.391 . S
C1464 C1465 1.400 . S
C1465 C1459 1.491 . S
C1465 C1464 1.400 . S
C1465 C1466 1.398 . S
C1466 H1454 0.950 . S
C1466 C1465 1.398 . S
C1466 C1467 1.391 . S
C1467 H1455 0.950 . S
C1467 C1463 1.393 . S
C1467 C1466 1.391 . S
H1468 C1476 0.950 . S
H1469 C1481 0.950 . S
H1470 C1478 0.950 . S
H1471 C1480 0.950 . S
H1472 C1482 0.950 . S
H1473 C1484 0.950 . S
H1474 C1486 0.950 . S
H1475 C1487 0.950 . S
C1476 H1468 0.950 . S
C1476 C1477 1.386 . S
C1476 C1478 1.391 . S
C1477 C1476 1.386 . S
C1477 C1481 1.393 . S
C1478 H1470 0.950 . S
C1478 C1476 1.391 . S
C1478 C1479 1.400 . S
C1479 C1478 1.400 . S
C1479 C1480 1.398 . S
C1479 C1485 1.491 . S
C1480 H1471 0.950 . S
C1480 C1479 1.398 . S
C1480 C1481 1.391 . S
C1481 H1469 0.950 . S
C1481 C1477 1.393 . S
C1481 C1480 1.391 . S
C1482 H1472 0.950 . S
C1482 C1483 1.386 . S
C1482 C1484 1.391 . S
C1483 C1482 1.386 . S
C1483 C1487 1.393 . S
C1484 H1473 0.950 . S
C1484 C1482 1.391 . S
C1484 C1485 1.400 . S
C1485 C1479 1.491 . S
C1485 C1484 1.400 . S
C1485 C1486 1.398 . S
C1486 H1474 0.950 . S
C1486 C1485 1.398 . S
C1486 C1487 1.391 . S
C1487 H1475 0.950 . S
C1487 C1483 1.393 . S
C1487 C1486 1.391 . S
H1488 C1496 0.950 . S
H1489 C1501 0.950 . S
H1490 C1498 0.950 . S
H1491 C1500 0.950 . S
H1492 C1502 0.950 . S
H1493 C1504 0.950 . S
H1494 C1506 0.950 . S
H1495 C1507 0.950 . S
C1496 H1488 0.950 . S
C1496 C1497 1.386 . S
C1496 C1498 1.391 . S
C1497 C1496 1.386 . S
C1497 C1501 1.393 . S
C1498 H1490 0.950 . S
C1498 C1496 1.391 . S
C1498 C1499 1.400 . S
C1499 C1498 1.400 . S
C1499 C1500 1.398 . S
C1499 C1505 1.491 . S
C1500 H1491 0.950 . S
C1500 C1499 1.398 . S
C1500 C1501 1.391 . S
C1501 H1489 0.950 . S
C1501 C1497 1.393 . S
C1501 C1500 1.391 . S
C1502 H1492 0.950 . S
C1502 C1503 1.386 . S
C1502 C1504 1.391 1_455 S
C1503 C1502 1.386 . S
C1503 C1507 1.393 . S
C1504 H1493 0.950 . S
C1504 C1502 1.391 1_655 S
C1504 C1505 1.400 . S
C1505 C1499 1.491 . S
C1505 C1504 1.400 . S
C1505 C1506 1.398 . S
C1506 H1494 0.950 . S
C1506 C1505 1.398 . S
C1506 C1507 1.391 1_655 S
C1507 H1495 0.950 . S
C1507 C1503 1.393 . S
C1507 C1506 1.391 1_455 S
H1508 C1516 0.950 . S
H1509 C1521 0.950 . S
H1510 C1518 0.950 . S
H1511 C1520 0.950 . S
H1512 C1522 0.950 . S
H1513 C1524 0.950 . S
H1514 C1526 0.950 . S
H1515 C1527 0.950 . S
C1516 H1508 0.950 . S
C1516 C1517 1.386 . S
C1516 C1518 1.391 . S
C1517 C1516 1.386 . S
C1517 C1521 1.393 . S
C1518 H1510 0.950 . S
C1518 C1516 1.391 . S
C1518 C1519 1.400 . S
C1519 C1518 1.400 . S
C1519 C1520 1.398 . S
C1519 C1525 1.491 . S
C1520 H1511 0.950 . S
C1520 C1519 1.398 . S
C1520 C1521 1.391 . S
C1521 H1509 0.950 . S
C1521 C1517 1.393 . S
C1521 C1520 1.391 . S
C1522 H1512 0.950 . S
C1522 C1523 1.386 . S
C1522 C1524 1.391 . S
C1523 C1522 1.386 . S
C1523 C1527 1.393 . S
C1524 H1513 0.950 . S
C1524 C1522 1.391 . S
C1524 C1525 1.400 . S
C1525 C1519 1.491 . S
C1525 C1524 1.400 . S
C1525 C1526 1.398 . S
C1526 H1514 0.950 . S
C1526 C1525 1.398 . S
C1526 C1527 1.391 . S
C1527 H1515 0.950 . S
C1527 C1523 1.393 . S
C1527 C1526 1.391 . S
H1528 C1536 0.950 . S
H1529 C1541 0.950 . S
H1530 C1538 0.950 1_455 S
H1531 C1540 0.950 . S
H1532 C1542 0.950 . S
H1533 C1544 0.950 . S
H1534 C1546 0.950 . S
H1535 C1547 0.950 . S
C1536 H1528 0.950 . S
C1536 C1537 1.386 . S
C1536 C1538 1.391 . S
C1537 C1536 1.386 . S
C1537 C1541 1.393 . S
C1538 H1530 0.950 1_655 S
C1538 C1536 1.391 . S
C1538 C1539 1.400 . S
C1539 C1538 1.400 . S
C1539 C1540 1.398 . S
C1539 C1545 1.491 . S
C1540 H1531 0.950 . S
C1540 C1539 1.398 . S
C1540 C1541 1.391 . S
C1541 H1529 0.950 . S
C1541 C1537 1.393 . S
C1541 C1540 1.391 . S
C1542 H1532 0.950 . S
C1542 C1543 1.386 1_655 S
C1542 C1544 1.391 . S
C1543 C1542 1.386 1_455 S
C1543 C1547 1.393 . S
C1544 H1533 0.950 . S
C1544 C1542 1.391 . S
C1544 C1545 1.400 . S
C1545 C1539 1.491 . S
C1545 C1544 1.400 . S
C1545 C1546 1.398 1_655 S
C1546 H1534 0.950 . S
C1546 C1545 1.398 1_455 S
C1546 C1547 1.391 . S
C1547 H1535 0.950 . S
C1547 C1543 1.393 . S
C1547 C1546 1.391 . S
H1548 C1556 0.950 . S
H1549 C1561 0.950 . S
H1550 C1558 0.950 . S
H1551 C1560 0.950 . S
H1552 C1562 0.950 . S
H1553 C1564 0.950 . S
H1554 C1566 0.950 . S
H1555 C1567 0.950 . S
C1556 H1548 0.950 . S
C1556 C1557 1.386 . S
C1556 C1558 1.391 . S
C1557 C1556 1.386 . S
C1557 C1561 1.393 . S
C1558 H1550 0.950 . S
C1558 C1556 1.391 . S
C1558 C1559 1.400 . S
C1559 C1558 1.400 . S
C1559 C1560 1.398 . S
C1559 C1565 1.491 . S
C1560 H1551 0.950 . S
C1560 C1559 1.398 . S
C1560 C1561 1.391 . S
C1561 H1549 0.950 . S
C1561 C1557 1.393 . S
C1561 C1560 1.391 . S
C1562 H1552 0.950 . S
C1562 C1563 1.386 . S
C1562 C1564 1.391 . S
C1563 C1562 1.386 . S
C1563 C1567 1.393 . S
C1564 H1553 0.950 . S
C1564 C1562 1.391 . S
C1564 C1565 1.400 . S
C1565 C1559 1.491 . S
C1565 C1564 1.400 . S
C1565 C1566 1.398 . S
C1566 H1554 0.950 . S
C1566 C1565 1.398 . S
C1566 C1567 1.391 . S
C1567 H1555 0.950 . S
C1567 C1563 1.393 . S
C1567 C1566 1.391 . S
H1568 C1576 0.950 . S
H1569 C1581 0.950 . S
H1570 C1578 0.950 . S
H1571 C1580 0.950 . S
H1572 C1582 0.950 . S
H1573 C1584 0.950 . S
H1574 C1586 0.950 . S
H1575 C1587 0.950 . S
C1576 H1568 0.950 . S
C1576 C1577 1.386 . S
C1576 C1578 1.391 . S
C1577 C1576 1.386 . S
C1577 C1581 1.393 . S
C1578 H1570 0.950 . S
C1578 C1576 1.391 . S
C1578 C1579 1.400 . S
C1579 C1578 1.400 . S
C1579 C1580 1.398 . S
C1579 C1585 1.491 . S
C1580 H1571 0.950 . S
C1580 C1579 1.398 . S
C1580 C1581 1.391 . S
C1581 H1569 0.950 . S
C1581 C1577 1.393 . S
C1581 C1580 1.391 . S
C1582 H1572 0.950 . S
C1582 C1583 1.386 . S
C1582 C1584 1.391 . S
C1583 C1582 1.386 . S
C1583 C1587 1.393 . S
C1584 H1573 0.950 . S
C1584 C1582 1.391 . S
C1584 C1585 1.400 . S
C1585 C1579 1.491 . S
C1585 C1584 1.400 . S
C1585 C1586 1.398 . S
C1586 H1574 0.950 . S
C1586 C1585 1.398 . S
C1586 C1587 1.391 . S
C1587 H1575 0.950 . S
C1587 C1583 1.393 . S
C1587 C1586 1.391 . S
H1588 C1596 0.950 . S
H1589 C1601 0.950 . S
H1590 C1598 0.950 . S
H1591 C1600 0.950 . S
H1592 C1602 0.950 . S
H1593 C1604 0.950 . S
H1594 C1606 0.950 . S
H1595 C1607 0.950 . S
C1596 H1588 0.950 . S
C1596 C1597 1.386 . S
C1596 C1598 1.391 . S
C1597 C1596 1.386 . S
C1597 C1601 1.393 . S
C1598 H1590 0.950 . S
C1598 C1596 1.391 . S
C1598 C1599 1.400 . S
C1599 C1598 1.400 . S
C1599 C1600 1.398 . S
C1599 C1605 1.491 . S
C1600 H1591 0.950 . S
C1600 C1599 1.398 . S
C1600 C1601 1.391 . S
C1601 H1589 0.950 . S
C1601 C1597 1.393 . S
C1601 C1600 1.391 . S
C1602 H1592 0.950 . S
C1602 C1603 1.386 . S
C1602 C1604 1.391 . S
C1603 C1602 1.386 . S
C1603 C1607 1.393 . S
C1604 H1593 0.950 . S
C1604 C1602 1.391 . S
C1604 C1605 1.400 . S
C1605 C1599 1.491 . S
C1605 C1604 1.400 . S
C1605 C1606 1.398 . S
C1606 H1594 0.950 . S
C1606 C1605 1.398 . S
C1606 C1607 1.391 . S
C1607 H1595 0.950 . S
C1607 C1603 1.393 . S
C1607 C1606 1.391 . S
H1608 C1616 0.950 . S
H1609 C1621 0.950 . S
H1610 C1618 0.950 . S
H1611 C1620 0.950 . S
H1612 C1622 0.950 . S
H1613 C1624 0.950 . S
H1614 C1626 0.950 . S
H1615 C1627 0.950 . S
C1616 H1608 0.950 . S
C1616 C1617 1.386 . S
C1616 C1618 1.391 . S
C1617 C1616 1.386 . S
C1617 C1621 1.393 . S
C1618 H1610 0.950 . S
C1618 C1616 1.391 . S
C1618 C1619 1.400 . S
C1619 C1618 1.400 . S
C1619 C1620 1.398 . S
C1619 C1625 1.491 . S
C1620 H1611 0.950 . S
C1620 C1619 1.398 . S
C1620 C1621 1.391 . S
C1621 H1609 0.950 . S
C1621 C1617 1.393 . S
C1621 C1620 1.391 . S
C1622 H1612 0.950 . S
C1622 C1623 1.386 . S
C1622 C1624 1.391 . S
C1623 C1622 1.386 . S
C1623 C1627 1.393 . S
C1624 H1613 0.950 . S
C1624 C1622 1.391 . S
C1624 C1625 1.400 . S
C1625 C1619 1.491 . S
C1625 C1624 1.400 . S
C1625 C1626 1.398 . S
C1626 H1614 0.950 . S
C1626 C1625 1.398 . S
C1626 C1627 1.391 . S
C1627 H1615 0.950 . S
C1627 C1623 1.393 . S
C1627 C1626 1.391 . S
H1628 C1636 0.950 . S
H1629 C1641 0.950 . S
H1630 C1638 0.950 . S
H1631 C1640 0.950 . S
H1632 C1642 0.950 . S
H1633 C1644 0.950 . S
H1634 C1646 0.950 . S
H1635 C1647 0.950 . S
C1636 H1628 0.950 . S
C1636 C1637 1.386 . S
C1636 C1638 1.391 . S
C1637 C1636 1.386 . S
C1637 C1641 1.393 . S
C1638 H1630 0.950 . S
C1638 C1636 1.391 . S
C1638 C1639 1.400 . S
C1639 C1638 1.400 . S
C1639 C1640 1.398 . S
C1639 C1645 1.491 . S
C1640 H1631 0.950 . S
C1640 C1639 1.398 . S
C1640 C1641 1.391 . S
C1641 H1629 0.950 . S
C1641 C1637 1.393 . S
C1641 C1640 1.391 . S
C1642 H1632 0.950 . S
C1642 C1643 1.386 . S
C1642 C1644 1.391 . S
C1643 C1642 1.386 . S
C1643 C1647 1.393 . S
C1644 H1633 0.950 . S
C1644 C1642 1.391 . S
C1644 C1645 1.400 . S
C1645 C1639 1.491 . S
C1645 C1644 1.400 . S
C1645 C1646 1.398 . S
C1646 H1634 0.950 . S
C1646 C1645 1.398 . S
C1646 C1647 1.391 . S
C1647 H1635 0.950 . S
C1647 C1643 1.393 . S
C1647 C1646 1.391 . S
H1648 C1656 0.950 . S
H1649 C1661 0.950 . S
H1650 C1658 0.950 . S
H1651 C1660 0.950 . S
H1652 C1662 0.950 . S
H1653 C1664 0.950 . S
H1654 C1666 0.950 . S
H1655 C1667 0.950 . S
C1656 H1648 0.950 . S
C1656 C1657 1.386 . S
C1656 C1658 1.391 . S
C1657 C1656 1.386 . S
C1657 C1661 1.393 . S
C1658 H1650 0.950 . S
C1658 C1656 1.391 . S
C1658 C1659 1.400 . S
C1659 C1658 1.400 . S
C1659 C1660 1.398 . S
C1659 C1665 1.491 . S
C1660 H1651 0.950 . S
C1660 C1659 1.398 . S
C1660 C1661 1.391 . S
C1661 H1649 0.950 . S
C1661 C1657 1.393 . S
C1661 C1660 1.391 . S
C1662 H1652 0.950 . S
C1662 C1663 1.386 . S
C1662 C1664 1.391 . S
C1663 C1662 1.386 . S
C1663 C1667 1.393 . S
C1664 H1653 0.950 . S
C1664 C1662 1.391 . S
C1664 C1665 1.400 . S
C1665 C1659 1.491 . S
C1665 C1664 1.400 . S
C1665 C1666 1.398 . S
C1666 H1654 0.950 . S
C1666 C1665 1.398 . S
C1666 C1667 1.391 . S
C1667 H1655 0.950 . S
C1667 C1663 1.393 . S
C1667 C1666 1.391 . S
H1668 C1676 0.950 . S
H1669 C1681 0.950 . S
H1670 C1678 0.950 . S
H1671 C1680 0.950 . S
H1672 C1682 0.950 . S
H1673 C1684 0.950 1_545 S
H1674 C1686 0.950 . S
H1675 C1687 0.950 . S
C1676 H1668 0.950 . S
C1676 C1677 1.386 . S
C1676 C1678 1.391 . S
C1677 C1676 1.386 . S
C1677 C1681 1.393 . S
C1678 H1670 0.950 . S
C1678 C1676 1.391 . S
C1678 C1679 1.400 . S
C1679 C1678 1.400 . S
C1679 C1680 1.398 . S
C1679 C1685 1.491 . S
C1680 H1671 0.950 . S
C1680 C1679 1.398 . S
C1680 C1681 1.391 . S
C1681 H1669 0.950 . S
C1681 C1677 1.393 . S
C1681 C1680 1.391 . S
C1682 H1672 0.950 . S
C1682 C1683 1.386 1_545 S
C1682 C1684 1.391 1_545 S
C1683 C1682 1.386 1_565 S
C1683 C1687 1.393 . S
C1684 H1673 0.950 1_565 S
C1684 C1682 1.391 1_565 S
C1684 C1685 1.400 . S
C1685 C1679 1.491 . S
C1685 C1684 1.400 . S
C1685 C1686 1.398 . S
C1686 H1674 0.950 . S
C1686 C1685 1.398 . S
C1686 C1687 1.391 . S
C1687 H1675 0.950 . S
C1687 C1683 1.393 . S
C1687 C1686 1.391 . S
H1688 C1696 0.950 . S
H1689 C1701 0.950 . S
H1690 C1698 0.950 . S
H1691 C1700 0.950 . S
H1692 C1702 0.950 1_545 S
H1693 C1704 0.950 . S
H1694 C1706 0.950 . S
H1695 C1707 0.950 . S
C1696 H1688 0.950 . S
C1696 C1697 1.386 . S
C1696 C1698 1.391 . S
C1697 C1696 1.386 . S
C1697 C1701 1.393 . S
C1698 H1690 0.950 . S
C1698 C1696 1.391 . S
C1698 C1699 1.400 . S
C1699 C1698 1.400 . S
C1699 C1700 1.398 . S
C1699 C1705 1.491 . S
C1700 H1691 0.950 . S
C1700 C1699 1.398 . S
C1700 C1701 1.391 . S
C1701 H1689 0.950 . S
C1701 C1697 1.393 . S
C1701 C1700 1.391 . S
C1702 H1692 0.950 1_565 S
C1702 C1703 1.386 . S
C1702 C1704 1.391 . S
C1703 C1702 1.386 . S
C1703 C1707 1.393 . S
C1704 H1693 0.950 . S
C1704 C1702 1.391 . S
C1704 C1705 1.400 . S
C1705 C1699 1.491 . S
C1705 C1704 1.400 . S
C1705 C1706 1.398 . S
C1706 H1694 0.950 . S
C1706 C1705 1.398 . S
C1706 C1707 1.391 . S
C1707 H1695 0.950 . S
C1707 C1703 1.393 . S
C1707 C1706 1.391 . S
H1708 C1716 0.950 . S
H1709 C1721 0.950 . S
H1710 C1718 0.950 . S
H1711 C1720 0.950 . S
H1712 C1722 0.950 . S
H1713 C1724 0.950 . S
H1714 C1726 0.950 . S
H1715 C1727 0.950 . S
C1716 H1708 0.950 . S
C1716 C1717 1.386 . S
C1716 C1718 1.391 . S
C1717 C1716 1.386 . S
C1717 C1721 1.393 . S
C1718 H1710 0.950 . S
C1718 C1716 1.391 . S
C1718 C1719 1.400 . S
C1719 C1718 1.400 . S
C1719 C1720 1.398 . S
C1719 C1725 1.491 . S
C1720 H1711 0.950 . S
C1720 C1719 1.398 . S
C1720 C1721 1.391 . S
C1721 H1709 0.950 . S
C1721 C1717 1.393 . S
C1721 C1720 1.391 . S
C1722 H1712 0.950 . S
C1722 C1723 1.386 . S
C1722 C1724 1.391 . S
C1723 C1722 1.386 . S
C1723 C1727 1.393 . S
C1724 H1713 0.950 . S
C1724 C1722 1.391 . S
C1724 C1725 1.400 . S
C1725 C1719 1.491 . S
C1725 C1724 1.400 . S
C1725 C1726 1.398 . S
C1726 H1714 0.950 . S
C1726 C1725 1.398 . S
C1726 C1727 1.391 . S
C1727 H1715 0.950 . S
C1727 C1723 1.393 . S
C1727 C1726 1.391 . S
H1728 C1736 0.950 . S
H1729 C1741 0.950 . S
H1730 C1738 0.950 . S
H1731 C1740 0.950 . S
H1732 C1742 0.950 . S
H1733 C1744 0.950 . S
H1734 C1746 0.950 . S
H1735 C1747 0.950 . S
C1736 H1728 0.950 . S
C1736 C1737 1.386 . S
C1736 C1738 1.391 . S
C1737 C1736 1.386 . S
C1737 C1741 1.393 . S
C1738 H1730 0.950 . S
C1738 C1736 1.391 . S
C1738 C1739 1.400 . S
C1739 C1738 1.400 . S
C1739 C1740 1.398 . S
C1739 C1745 1.491 . S
C1740 H1731 0.950 . S
C1740 C1739 1.398 . S
C1740 C1741 1.391 . S
C1741 H1729 0.950 . S
C1741 C1737 1.393 . S
C1741 C1740 1.391 . S
C1742 H1732 0.950 . S
C1742 C1743 1.386 . S
C1742 C1744 1.391 . S
C1743 C1742 1.386 . S
C1743 C1747 1.393 . S
C1744 H1733 0.950 . S
C1744 C1742 1.391 . S
C1744 C1745 1.400 . S
C1745 C1739 1.491 . S
C1745 C1744 1.400 . S
C1745 C1746 1.398 . S
C1746 H1734 0.950 . S
C1746 C1745 1.398 . S
C1746 C1747 1.391 . S
C1747 H1735 0.950 . S
C1747 C1743 1.393 . S
C1747 C1746 1.391 . S
H1748 C1756 0.950 . S
H1749 C1761 0.950 . S
H1750 C1758 0.950 . S
H1751 C1760 0.950 . S
H1752 C1762 0.950 . S
H1753 C1764 0.950 . S
H1754 C1766 0.950 . S
H1755 C1767 0.950 . S
C1756 H1748 0.950 . S
C1756 C1757 1.386 . S
C1756 C1758 1.391 . S
C1757 C1756 1.386 . S
C1757 C1761 1.393 . S
C1758 H1750 0.950 . S
C1758 C1756 1.391 . S
C1758 C1759 1.400 . S
C1759 C1758 1.400 . S
C1759 C1760 1.398 . S
C1759 C1765 1.491 . S
C1760 H1751 0.950 . S
C1760 C1759 1.398 . S
C1760 C1761 1.391 . S
C1761 H1749 0.950 . S
C1761 C1757 1.393 . S
C1761 C1760 1.391 . S
C1762 H1752 0.950 . S
C1762 C1763 1.386 . S
C1762 C1764 1.391 . S
C1763 C1762 1.386 . S
C1763 C1767 1.393 . S
C1764 H1753 0.950 . S
C1764 C1762 1.391 . S
C1764 C1765 1.400 . S
C1765 C1759 1.491 . S
C1765 C1764 1.400 . S
C1765 C1766 1.398 . S
C1766 H1754 0.950 . S
C1766 C1765 1.398 . S
C1766 C1767 1.391 . S
C1767 H1755 0.950 . S
C1767 C1763 1.393 . S
C1767 C1766 1.391 . S
H1768 C1776 0.950 . S
H1769 C1781 0.950 . S
H1770 C1778 0.950 . S
H1771 C1780 0.950 . S
H1772 C1782 0.950 . S
H1773 C1784 0.950 . S
H1774 C1786 0.950 . S
H1775 C1787 0.950 . S
C1776 H1768 0.950 . S
C1776 C1777 1.386 . S
C1776 C1778 1.391 . S
C1777 C1776 1.386 . S
C1777 C1781 1.393 . S
C1778 H1770 0.950 . S
C1778 C1776 1.391 . S
C1778 C1779 1.400 . S
C1779 C1778 1.400 . S
C1779 C1780 1.398 . S
C1779 C1785 1.491 . S
C1780 H1771 0.950 . S
C1780 C1779 1.398 . S
C1780 C1781 1.391 . S
C1781 H1769 0.950 . S
C1781 C1777 1.393 . S
C1781 C1780 1.391 . S
C1782 H1772 0.950 . S
C1782 C1783 1.386 . S
C1782 C1784 1.391 . S
C1783 C1782 1.386 . S
C1783 C1787 1.393 . S
C1784 H1773 0.950 . S
C1784 C1782 1.391 . S
C1784 C1785 1.400 . S
C1785 C1779 1.491 . S
C1785 C1784 1.400 . S
C1785 C1786 1.398 . S
C1786 H1774 0.950 . S
C1786 C1785 1.398 . S
C1786 C1787 1.391 . S
C1787 H1775 0.950 . S
C1787 C1783 1.393 . S
C1787 C1786 1.391 . S
H1788 C1796 0.950 . S
H1789 C1801 0.950 . S
H1790 C1798 0.950 . S
H1791 C1800 0.950 . S
H1792 C1802 0.950 . S
H1793 C1804 0.950 . S
H1794 C1806 0.950 . S
H1795 C1807 0.950 . S
C1796 H1788 0.950 . S
C1796 C1797 1.386 . S
C1796 C1798 1.391 . S
C1797 C1796 1.386 . S
C1797 C1801 1.393 . S
C1798 H1790 0.950 . S
C1798 C1796 1.391 . S
C1798 C1799 1.400 . S
C1799 C1798 1.400 . S
C1799 C1800 1.398 . S
C1799 C1805 1.491 . S
C1800 H1791 0.950 . S
C1800 C1799 1.398 . S
C1800 C1801 1.391 . S
C1801 H1789 0.950 . S
C1801 C1797 1.393 . S
C1801 C1800 1.391 . S
C1802 H1792 0.950 . S
C1802 C1803 1.386 . S
C1802 C1804 1.391 . S
C1803 C1802 1.386 . S
C1803 C1807 1.393 . S
C1804 H1793 0.950 . S
C1804 C1802 1.391 . S
C1804 C1805 1.400 . S
C1805 C1799 1.491 . S
C1805 C1804 1.400 . S
C1805 C1806 1.398 . S
C1806 H1794 0.950 . S
C1806 C1805 1.398 . S
C1806 C1807 1.391 . S
C1807 H1795 0.950 . S
C1807 C1803 1.393 . S
C1807 C1806 1.391 . S
H1808 C1816 0.950 . S
H1809 C1821 0.950 . S
H1810 C1818 0.950 . S
H1811 C1820 0.950 . S
H1812 C1822 0.950 . S
H1813 C1824 0.950 . S
H1814 C1826 0.950 . S
H1815 C1827 0.950 . S
C1816 H1808 0.950 . S
C1816 C1817 1.386 . S
C1816 C1818 1.391 . S
C1817 C1816 1.386 . S
C1817 C1821 1.393 . S
C1818 H1810 0.950 . S
C1818 C1816 1.391 . S
C1818 C1819 1.400 . S
C1819 C1818 1.400 . S
C1819 C1820 1.398 . S
C1819 C1825 1.491 . S
C1820 H1811 0.950 . S
C1820 C1819 1.398 . S
C1820 C1821 1.391 . S
C1821 H1809 0.950 . S
C1821 C1817 1.393 . S
C1821 C1820 1.391 . S
C1822 H1812 0.950 . S
C1822 C1823 1.386 . S
C1822 C1824 1.391 . S
C1823 C1822 1.386 . S
C1823 C1827 1.393 . S
C1824 H1813 0.950 . S
C1824 C1822 1.391 . S
C1824 C1825 1.400 . S
C1825 C1819 1.491 . S
C1825 C1824 1.400 . S
C1825 C1826 1.398 . S
C1826 H1814 0.950 . S
C1826 C1825 1.398 . S
C1826 C1827 1.391 . S
C1827 H1815 0.950 . S
C1827 C1823 1.393 . S
C1827 C1826 1.391 . S
H1828 C1836 0.950 . S
H1829 C1841 0.950 . S
H1830 C1838 0.950 . S
H1831 C1840 0.950 . S
H1832 C1842 0.950 . S
H1833 C1844 0.950 . S
H1834 C1846 0.950 . S
H1835 C1847 0.950 . S
C1836 H1828 0.950 . S
C1836 C1837 1.386 . S
C1836 C1838 1.391 . S
C1837 C1836 1.386 . S
C1837 C1841 1.393 . S
C1838 H1830 0.950 . S
C1838 C1836 1.391 . S
C1838 C1839 1.400 . S
C1839 C1838 1.400 . S
C1839 C1840 1.398 . S
C1839 C1845 1.491 . S
C1840 H1831 0.950 . S
C1840 C1839 1.398 . S
C1840 C1841 1.391 . S
C1841 H1829 0.950 . S
C1841 C1837 1.393 . S
C1841 C1840 1.391 . S
C1842 H1832 0.950 . S
C1842 C1843 1.386 . S
C1842 C1844 1.391 . S
C1843 C1842 1.386 . S
C1843 C1847 1.393 . S
C1844 H1833 0.950 . S
C1844 C1842 1.391 . S
C1844 C1845 1.400 . S
C1845 C1839 1.491 . S
C1845 C1844 1.400 . S
C1845 C1846 1.398 . S
C1846 H1834 0.950 . S
C1846 C1845 1.398 . S
C1846 C1847 1.391 . S
C1847 H1835 0.950 . S
C1847 C1843 1.393 . S
C1847 C1846 1.391 . S
H1848 C1856 0.950 . S
H1849 C1861 0.950 . S
H1850 C1858 0.950 . S
H1851 C1860 0.950 . S
H1852 C1862 0.950 . S
H1853 C1864 0.950 . S
H1854 C1866 0.950 . S
H1855 C1867 0.950 . S
C1856 H1848 0.950 . S
C1856 C1857 1.386 . S
C1856 C1858 1.391 . S
C1857 C1856 1.386 . S
C1857 C1861 1.393 . S
C1858 H1850 0.950 . S
C1858 C1856 1.391 . S
C1858 C1859 1.400 . S
C1859 C1858 1.400 . S
C1859 C1860 1.398 . S
C1859 C1865 1.491 . S
C1860 H1851 0.950 . S
C1860 C1859 1.398 . S
C1860 C1861 1.391 . S
C1861 H1849 0.950 . S
C1861 C1857 1.393 . S
C1861 C1860 1.391 . S
C1862 H1852 0.950 . S
C1862 C1863 1.386 . S
C1862 C1864 1.391 . S
C1863 C1862 1.386 . S
C1863 C1867 1.393 . S
C1864 H1853 0.950 . S
C1864 C1862 1.391 . S
C1864 C1865 1.400 . S
C1865 C1859 1.491 . S
C1865 C1864 1.400 . S
C1865 C1866 1.398 . S
C1866 H1854 0.950 . S
C1866 C1865 1.398 . S
C1866 C1867 1.391 . S
C1867 H1855 0.950 . S
C1867 C1863 1.393 . S
C1867 C1866 1.391 . S
H1868 C1876 0.950 . S
H1869 C1881 0.950 . S
H1870 C1878 0.950 . S
H1871 C1880 0.950 . S
H1872 C1882 0.950 . S
H1873 C1884 0.950 . S
H1874 C1886 0.950 . S
H1875 C1887 0.950 . S
C1876 H1868 0.950 . S
C1876 C1877 1.386 . S
C1876 C1878 1.391 . S
C1877 C1876 1.386 . S
C1877 C1881 1.393 . S
C1878 H1870 0.950 . S
C1878 C1876 1.391 . S
C1878 C1879 1.400 . S
C1879 C1878 1.400 . S
C1879 C1880 1.398 . S
C1879 C1885 1.491 . S
C1880 H1871 0.950 . S
C1880 C1879 1.398 . S
C1880 C1881 1.391 . S
C1881 H1869 0.950 . S
C1881 C1877 1.393 . S
C1881 C1880 1.391 . S
C1882 H1872 0.950 . S
C1882 C1883 1.386 . S
C1882 C1884 1.391 . S
C1883 C1882 1.386 . S
C1883 C1887 1.393 . S
C1884 H1873 0.950 . S
C1884 C1882 1.391 . S
C1884 C1885 1.400 . S
C1885 C1879 1.491 . S
C1885 C1884 1.400 . S
C1885 C1886 1.398 . S
C1886 H1874 0.950 . S
C1886 C1885 1.398 . S
C1886 C1887 1.391 . S
C1887 H1875 0.950 . S
C1887 C1883 1.393 . S
C1887 C1886 1.391 . S
H1888 C1896 0.950 . S
H1889 C1901 0.950 . S
H1890 C1898 0.950 . S
H1891 C1900 0.950 . S
H1892 C1902 0.950 . S
H1893 C1904 0.950 . S
H1894 C1906 0.950 . S
H1895 C1907 0.950 . S
C1896 H1888 0.950 . S
C1896 C1897 1.386 . S
C1896 C1898 1.391 . S
C1897 C1896 1.386 . S
C1897 C1901 1.393 . S
C1898 H1890 0.950 . S
C1898 C1896 1.391 . S
C1898 C1899 1.400 . S
C1899 C1898 1.400 . S
C1899 C1900 1.398 . S
C1899 C1905 1.491 . S
C1900 H1891 0.950 . S
C1900 C1899 1.398 . S
C1900 C1901 1.391 . S
C1901 H1889 0.950 . S
C1901 C1897 1.393 . S
C1901 C1900 1.391 . S
C1902 H1892 0.950 . S
C1902 C1903 1.386 . S
C1902 C1904 1.391 . S
C1903 C1902 1.386 . S
C1903 C1907 1.393 . S
C1904 H1893 0.950 . S
C1904 C1902 1.391 . S
C1904 C1905 1.400 . S
C1905 C1899 1.491 . S
C1905 C1904 1.400 . S
C1905 C1906 1.398 . S
C1906 H1894 0.950 . S
C1906 C1905 1.398 . S
C1906 C1907 1.391 . S
C1907 H1895 0.950 . S
C1907 C1903 1.393 . S
C1907 C1906 1.391 . S
H1908 C1916 0.950 . S
H1909 C1921 0.950 . S
H1910 C1918 0.950 . S
H1911 C1920 0.950 . S
H1912 C1922 0.950 . S
H1913 C1924 0.950 . S
H1914 C1926 0.950 . S
H1915 C1927 0.950 . S
C1916 H1908 0.950 . S
C1916 C1917 1.386 . S
C1916 C1918 1.391 . S
C1917 C1916 1.386 . S
C1917 C1921 1.393 . S
C1918 H1910 0.950 . S
C1918 C1916 1.391 . S
C1918 C1919 1.400 . S
C1919 C1918 1.400 . S
C1919 C1920 1.398 . S
C1919 C1925 1.491 . S
C1920 H1911 0.950 . S
C1920 C1919 1.398 . S
C1920 C1921 1.391 . S
C1921 H1909 0.950 . S
C1921 C1917 1.393 . S
C1921 C1920 1.391 . S
C1922 H1912 0.950 . S
C1922 C1923 1.386 . S
C1922 C1924 1.391 . S
C1923 C1922 1.386 . S
C1923 C1927 1.393 . S
C1924 H1913 0.950 . S
C1924 C1922 1.391 . S
C1924 C1925 1.400 . S
C1925 C1919 1.491 . S
C1925 C1924 1.400 . S
C1925 C1926 1.398 . S
C1926 H1914 0.950 . S
C1926 C1925 1.398 . S
C1926 C1927 1.391 . S
C1927 H1915 0.950 . S
C1927 C1923 1.393 . S
C1927 C1926 1.391 . S
H1928 C1936 0.950 . S
H1929 C1941 0.950 . S
H1930 C1938 0.950 . S
H1931 C1940 0.950 . S
H1932 C1942 0.950 . S
H1933 C1944 0.950 . S
H1934 C1946 0.950 . S
H1935 C1947 0.950 . S
C1936 H1928 0.950 . S
C1936 C1937 1.386 . S
C1936 C1938 1.391 . S
C1937 C1936 1.386 . S
C1937 C1941 1.393 . S
C1938 H1930 0.950 . S
C1938 C1936 1.391 . S
C1938 C1939 1.400 . S
C1939 C1938 1.400 . S
C1939 C1940 1.398 . S
C1939 C1945 1.491 . S
C1940 H1931 0.950 . S
C1940 C1939 1.398 . S
C1940 C1941 1.391 . S
C1941 H1929 0.950 . S
C1941 C1937 1.393 . S
C1941 C1940 1.391 . S
C1942 H1932 0.950 . S
C1942 C1943 1.386 . S
C1942 C1944 1.391 . S
C1943 C1942 1.386 . S
C1943 C1947 1.393 . S
C1944 H1933 0.950 . S
C1944 C1942 1.391 . S
C1944 C1945 1.400 . S
C1945 C1939 1.491 . S
C1945 C1944 1.400 . S
C1945 C1946 1.398 . S
C1946 H1934 0.950 . S
C1946 C1945 1.398 . S
C1946 C1947 1.391 . S
C1947 H1935 0.950 . S
C1947 C1943 1.393 . S
C1947 C1946 1.391 . S
H1948 C1956 0.950 . S
H1949 C1961 0.950 . S
H1950 C1958 0.950 . S
H1951 C1960 0.950 . S
H1952 C1962 0.950 . S
H1953 C1964 0.950 . S
H1954 C1966 0.950 . S
H1955 C1967 0.950 . S
C1956 H1948 0.950 . S
C1956 C1957 1.386 . S
C1956 C1958 1.391 . S
C1957 C1956 1.386 . S
C1957 C1961 1.393 . S
C1958 H1950 0.950 . S
C1958 C1956 1.391 . S
C1958 C1959 1.400 . S
C1959 C1958 1.400 . S
C1959 C1960 1.398 . S
C1959 C1965 1.491 . S
C1960 H1951 0.950 . S
C1960 C1959 1.398 . S
C1960 C1961 1.391 . S
C1961 H1949 0.950 . S
C1961 C1957 1.393 . S
C1961 C1960 1.391 . S
C1962 H1952 0.950 . S
C1962 C1963 1.386 . S
C1962 C1964 1.391 . S
C1963 C1962 1.386 . S
C1963 C1967 1.393 . S
C1964 H1953 0.950 . S
C1964 C1962 1.391 . S
C1964 C1965 1.400 . S
C1965 C1959 1.491 . S
C1965 C1964 1.400 . S
C1965 C1966 1.398 . S
C1966 H1954 0.950 . S
C1966 C1965 1.398 . S
C1966 C1967 1.391 . S
C1967 H1955 0.950 . S
C1967 C1963 1.393 . S
C1967 C1966 1.391 . S
H1968 C1976 0.950 . S
H1969 C1981 0.950 . S
H1970 C1978 0.950 . S
H1971 C1980 0.950 . S
H1972 C1982 0.950 . S
H1973 C1984 0.950 . S
H1974 C1986 0.950 . S
H1975 C1987 0.950 . S
C1976 H1968 0.950 . S
C1976 C1977 1.386 . S
C1976 C1978 1.391 . S
C1977 C1976 1.386 . S
C1977 C1981 1.393 . S
C1978 H1970 0.950 . S
C1978 C1976 1.391 . S
C1978 C1979 1.400 . S
C1979 C1978 1.400 . S
C1979 C1980 1.398 . S
C1979 C1985 1.491 . S
C1980 H1971 0.950 . S
C1980 C1979 1.398 . S
C1980 C1981 1.391 . S
C1981 H1969 0.950 . S
C1981 C1977 1.393 . S
C1981 C1980 1.391 . S
C1982 H1972 0.950 . S
C1982 C1983 1.386 . S
C1982 C1984 1.391 . S
C1983 C1982 1.386 . S
C1983 C1987 1.393 . S
C1984 H1973 0.950 . S
C1984 C1982 1.391 . S
C1984 C1985 1.400 . S
C1985 C1979 1.491 . S
C1985 C1984 1.400 . S
C1985 C1986 1.398 . S
C1986 H1974 0.950 . S
C1986 C1985 1.398 . S
C1986 C1987 1.391 . S
C1987 H1975 0.950 . S
C1987 C1983 1.393 . S
C1987 C1986 1.391 . S
H1988 C1996 0.950 . S
H1989 C2001 0.950 . S
H1990 C1998 0.950 . S
H1991 C2000 0.950 . S
H1992 C2002 0.950 . S
H1993 C2004 0.950 . S
H1994 C2006 0.950 . S
H1995 C2007 0.950 . S
C1996 H1988 0.950 . S
C1996 C1997 1.386 . S
C1996 C1998 1.391 . S
C1997 C1996 1.386 . S
C1997 C2001 1.393 . S
C1998 H1990 0.950 . S
C1998 C1996 1.391 . S
C1998 C1999 1.400 . S
C1999 C1998 1.400 . S
C1999 C2000 1.398 . S
C1999 C2005 1.491 . S
C2000 H1991 0.950 . S
C2000 C1999 1.398 . S
C2000 C2001 1.391 . S
C2001 H1989 0.950 . S
C2001 C1997 1.393 . S
C2001 C2000 1.391 . S
C2002 H1992 0.950 . S
C2002 C2003 1.386 . S
C2002 C2004 1.391 . S
C2003 C2002 1.386 . S
C2003 C2007 1.393 . S
C2004 H1993 0.950 . S
C2004 C2002 1.391 . S
C2004 C2005 1.400 . S
C2005 C1999 1.491 . S
C2005 C2004 1.400 . S
C2005 C2006 1.398 . S
C2006 H1994 0.950 . S
C2006 C2005 1.398 . S
C2006 C2007 1.391 . S
C2007 H1995 0.950 . S
C2007 C2003 1.393 . S
C2007 C2006 1.391 . S
H2008 C2016 0.950 . S
H2009 C2021 0.950 . S
H2010 C2018 0.950 . S
H2011 C2020 0.950 . S
H2012 C2022 0.950 . S
H2013 C2024 0.950 . S
H2014 C2026 0.950 . S
H2015 C2027 0.950 . S
C2016 H2008 0.950 . S
C2016 C2017 1.386 . S
C2016 C2018 1.391 . S
C2017 C2016 1.386 . S
C2017 C2021 1.393 . S
C2018 H2010 0.950 . S
C2018 C2016 1.391 . S
C2018 C2019 1.400 . S
C2019 C2018 1.400 . S
C2019 C2020 1.398 . S
C2019 C2025 1.491 . S
C2020 H2011 0.950 . S
C2020 C2019 1.398 . S
C2020 C2021 1.391 . S
C2021 H2009 0.950 . S
C2021 C2017 1.393 . S
C2021 C2020 1.391 . S
C2022 H2012 0.950 . S
C2022 C2023 1.386 . S
C2022 C2024 1.391 . S
C2023 C2022 1.386 . S
C2023 C2027 1.393 . S
C2024 H2013 0.950 . S
C2024 C2022 1.391 . S
C2024 C2025 1.400 . S
C2025 C2019 1.491 . S
C2025 C2024 1.400 . S
C2025 C2026 1.398 . S
C2026 H2014 0.950 . S
C2026 C2025 1.398 . S
C2026 C2027 1.391 . S
C2027 H2015 0.950 . S
C2027 C2023 1.393 . S
C2027 C2026 1.391 . S
H2028 C2036 0.950 . S
H2029 C2041 0.950 . S
H2030 C2038 0.950 . S
H2031 C2040 0.950 . S
H2032 C2042 0.950 . S
H2033 C2044 0.950 . S
H2034 C2046 0.950 . S
H2035 C2047 0.950 . S
C2036 H2028 0.950 . S
C2036 C2037 1.386 . S
C2036 C2038 1.391 . S
C2037 C2036 1.386 . S
C2037 C2041 1.393 . S
C2038 H2030 0.950 . S
C2038 C2036 1.391 . S
C2038 C2039 1.400 . S
C2039 C2038 1.400 . S
C2039 C2040 1.398 . S
C2039 C2045 1.491 . S
C2040 H2031 0.950 . S
C2040 C2039 1.398 . S
C2040 C2041 1.391 . S
C2041 H2029 0.950 . S
C2041 C2037 1.393 . S
C2041 C2040 1.391 . S
C2042 H2032 0.950 . S
C2042 C2043 1.386 . S
C2042 C2044 1.391 . S
C2043 C2042 1.386 . S
C2043 C2047 1.393 . S
C2044 H2033 0.950 . S
C2044 C2042 1.391 . S
C2044 C2045 1.400 . S
C2045 C2039 1.491 . S
C2045 C2044 1.400 . S
C2045 C2046 1.398 . S
C2046 H2034 0.950 . S
C2046 C2045 1.398 . S
C2046 C2047 1.391 . S
C2047 H2035 0.950 . S
C2047 C2043 1.393 . S
C2047 C2046 1.391 . S
H2048 C2056 0.950 . S
H2049 C2061 0.950 . S
H2050 C2058 0.950 . S
H2051 C2060 0.950 . S
H2052 C2062 0.950 . S
H2053 C2064 0.950 . S
H2054 C2066 0.950 . S
H2055 C2067 0.950 . S
C2056 H2048 0.950 . S
C2056 C2057 1.386 . S
C2056 C2058 1.391 . S
C2057 C2056 1.386 . S
C2057 C2061 1.393 . S
C2058 H2050 0.950 . S
C2058 C2056 1.391 . S
C2058 C2059 1.400 . S
C2059 C2058 1.400 . S
C2059 C2060 1.398 . S
C2059 C2065 1.491 . S
C2060 H2051 0.950 . S
C2060 C2059 1.398 . S
C2060 C2061 1.391 . S
C2061 H2049 0.950 . S
C2061 C2057 1.393 . S
C2061 C2060 1.391 . S
C2062 H2052 0.950 . S
C2062 C2063 1.386 . S
C2062 C2064 1.391 . S
C2063 C2062 1.386 . S
C2063 C2067 1.393 . S
C2064 H2053 0.950 . S
C2064 C2062 1.391 . S
C2064 C2065 1.400 . S
C2065 C2059 1.491 . S
C2065 C2064 1.400 . S
C2065 C2066 1.398 . S
C2066 H2054 0.950 . S
C2066 C2065 1.398 . S
C2066 C2067 1.391 . S
C2067 H2055 0.950 . S
C2067 C2063 1.393 . S
C2067 C2066 1.391 . S
H2068 C2076 0.950 . S
H2069 C2081 0.950 . S
H2070 C2078 0.950 . S
H2071 C2080 0.950 . S
H2072 C2082 0.950 . S
H2073 C2084 0.950 . S
H2074 C2086 0.950 . S
H2075 C2087 0.950 . S
C2076 H2068 0.950 . S
C2076 C2077 1.386 . S
C2076 C2078 1.391 . S
C2077 C2076 1.386 . S
C2077 C2081 1.393 . S
C2078 H2070 0.950 . S
C2078 C2076 1.391 . S
C2078 C2079 1.400 . S
C2079 C2078 1.400 . S
C2079 C2080 1.398 . S
C2079 C2085 1.491 . S
C2080 H2071 0.950 . S
C2080 C2079 1.398 . S
C2080 C2081 1.391 . S
C2081 H2069 0.950 . S
C2081 C2077 1.393 . S
C2081 C2080 1.391 . S
C2082 H2072 0.950 . S
C2082 C2083 1.386 . S
C2082 C2084 1.391 . S
C2083 C2082 1.386 . S
C2083 C2087 1.393 . S
C2084 H2073 0.950 . S
C2084 C2082 1.391 . S
C2084 C2085 1.400 . S
C2085 C2079 1.491 . S
C2085 C2084 1.400 . S
C2085 C2086 1.398 . S
C2086 H2074 0.950 . S
C2086 C2085 1.398 . S
C2086 C2087 1.391 . S
C2087 H2075 0.950 . S
C2087 C2083 1.393 . S
C2087 C2086 1.391 . S
H2088 C2096 0.950 . S
H2089 C2101 0.950 . S
H2090 C2098 0.950 . S
H2091 C2100 0.950 . S
H2092 C2102 0.950 . S
H2093 C2104 0.950 . S
H2094 C2106 0.950 . S
H2095 C2107 0.950 . S
C2096 H2088 0.950 . S
C2096 C2097 1.386 . S
C2096 C2098 1.391 . S
C2097 C2096 1.386 . S
C2097 C2101 1.393 . S
C2098 H2090 0.950 . S
C2098 C2096 1.391 . S
C2098 C2099 1.400 . S
C2099 C2098 1.400 . S
C2099 C2100 1.398 . S
C2099 C2105 1.491 . S
C2100 H2091 0.950 . S
C2100 C2099 1.398 . S
C2100 C2101 1.391 . S
C2101 H2089 0.950 . S
C2101 C2097 1.393 . S
C2101 C2100 1.391 . S
C2102 H2092 0.950 . S
C2102 C2103 1.386 . S
C2102 C2104 1.391 . S
C2103 C2102 1.386 . S
C2103 C2107 1.393 . S
C2104 H2093 0.950 . S
C2104 C2102 1.391 . S
C2104 C2105 1.400 . S
C2105 C2099 1.491 . S
C2105 C2104 1.400 . S
C2105 C2106 1.398 . S
C2106 H2094 0.950 . S
C2106 C2105 1.398 . S
C2106 C2107 1.391 . S
C2107 H2095 0.950 . S
C2107 C2103 1.393 . S
C2107 C2106 1.391 . S
H2108 C2116 0.950 . S
H2109 C2121 0.950 . S
H2110 C2118 0.950 . S
H2111 C2120 0.950 . S
H2112 C2122 0.950 . S
H2113 C2124 0.950 . S
H2114 C2126 0.950 . S
H2115 C2127 0.950 . S
C2116 H2108 0.950 . S
C2116 C2117 1.386 . S
C2116 C2118 1.391 . S
C2117 C2116 1.386 . S
C2117 C2121 1.393 . S
C2118 H2110 0.950 . S
C2118 C2116 1.391 . S
C2118 C2119 1.400 . S
C2119 C2118 1.400 . S
C2119 C2120 1.398 . S
C2119 C2125 1.491 . S
C2120 H2111 0.950 . S
C2120 C2119 1.398 . S
C2120 C2121 1.391 . S
C2121 H2109 0.950 . S
C2121 C2117 1.393 . S
C2121 C2120 1.391 . S
C2122 H2112 0.950 . S
C2122 C2123 1.386 . S
C2122 C2124 1.391 . S
C2123 C2122 1.386 . S
C2123 C2127 1.393 . S
C2124 H2113 0.950 . S
C2124 C2122 1.391 . S
C2124 C2125 1.400 . S
C2125 C2119 1.491 . S
C2125 C2124 1.400 . S
C2125 C2126 1.398 . S
C2126 H2114 0.950 . S
C2126 C2125 1.398 . S
C2126 C2127 1.391 . S
C2127 H2115 0.950 . S
C2127 C2123 1.393 . S
C2127 C2126 1.391 . S
H2128 C2136 0.950 . S
H2129 C2141 0.950 . S
H2130 C2138 0.950 . S
H2131 C2140 0.950 . S
H2132 C2142 0.950 . S
H2133 C2144 0.950 . S
H2134 C2146 0.950 . S
H2135 C2147 0.950 . S
C2136 H2128 0.950 . S
C2136 C2137 1.386 . S
C2136 C2138 1.391 . S
C2137 C2136 1.386 . S
C2137 C2141 1.393 . S
C2138 H2130 0.950 . S
C2138 C2136 1.391 . S
C2138 C2139 1.400 . S
C2139 C2138 1.400 . S
C2139 C2140 1.398 . S
C2139 C2145 1.491 . S
C2140 H2131 0.950 . S
C2140 C2139 1.398 . S
C2140 C2141 1.391 . S
C2141 H2129 0.950 . S
C2141 C2137 1.393 . S
C2141 C2140 1.391 . S
C2142 H2132 0.950 . S
C2142 C2143 1.386 . S
C2142 C2144 1.391 . S
C2143 C2142 1.386 . S
C2143 C2147 1.393 . S
C2144 H2133 0.950 . S
C2144 C2142 1.391 . S
C2144 C2145 1.400 . S
C2145 C2139 1.491 . S
C2145 C2144 1.400 . S
C2145 C2146 1.398 . S
C2146 H2134 0.950 . S
C2146 C2145 1.398 . S
C2146 C2147 1.391 . S
C2147 H2135 0.950 . S
C2147 C2143 1.393 . S
C2147 C2146 1.391 . S
H2148 C2156 0.950 . S
H2149 C2161 0.950 . S
H2150 C2158 0.950 . S
H2151 C2160 0.950 . S
H2152 C2162 0.950 . S
H2153 C2164 0.950 . S
H2154 C2166 0.950 . S
H2155 C2167 0.950 . S
C2156 H2148 0.950 . S
C2156 C2157 1.386 . S
C2156 C2158 1.391 . S
C2157 C2156 1.386 . S
C2157 C2161 1.393 . S
C2158 H2150 0.950 . S
C2158 C2156 1.391 . S
C2158 C2159 1.400 . S
C2159 C2158 1.400 . S
C2159 C2160 1.398 . S
C2159 C2165 1.491 . S
C2160 H2151 0.950 . S
C2160 C2159 1.398 . S
C2160 C2161 1.391 . S
C2161 H2149 0.950 . S
C2161 C2157 1.393 . S
C2161 C2160 1.391 . S
C2162 H2152 0.950 . S
C2162 C2163 1.386 . S
C2162 C2164 1.391 . S
C2163 C2162 1.386 . S
C2163 C2167 1.393 . S
C2164 H2153 0.950 . S
C2164 C2162 1.391 . S
C2164 C2165 1.400 . S
C2165 C2159 1.491 . S
C2165 C2164 1.400 . S
C2165 C2166 1.398 . S
C2166 H2154 0.950 . S
C2166 C2165 1.398 . S
C2166 C2167 1.391 . S
C2167 H2155 0.950 . S
C2167 C2163 1.393 . S
C2167 C2166 1.391 . S
H2168 C2176 0.950 . S
H2169 C2181 0.950 . S
H2170 C2178 0.950 . S
H2171 C2180 0.950 . S
H2172 C2182 0.950 . S
H2173 C2184 0.950 . S
H2174 C2186 0.950 . S
H2175 C2187 0.950 . S
C2176 H2168 0.950 . S
C2176 C2177 1.386 . S
C2176 C2178 1.391 . S
C2177 C2176 1.386 . S
C2177 C2181 1.393 . S
C2178 H2170 0.950 . S
C2178 C2176 1.391 . S
C2178 C2179 1.400 . S
C2179 C2178 1.400 . S
C2179 C2180 1.398 . S
C2179 C2185 1.491 . S
C2180 H2171 0.950 . S
C2180 C2179 1.398 . S
C2180 C2181 1.391 . S
C2181 H2169 0.950 . S
C2181 C2177 1.393 . S
C2181 C2180 1.391 . S
C2182 H2172 0.950 . S
C2182 C2183 1.386 . S
C2182 C2184 1.391 . S
C2183 C2182 1.386 . S
C2183 C2187 1.393 . S
C2184 H2173 0.950 . S
C2184 C2182 1.391 . S
C2184 C2185 1.400 . S
C2185 C2179 1.491 . S
C2185 C2184 1.400 . S
C2185 C2186 1.398 . S
C2186 H2174 0.950 . S
C2186 C2185 1.398 . S
C2186 C2187 1.391 . S
C2187 H2175 0.950 . S
C2187 C2183 1.393 . S
C2187 C2186 1.391 . S
H2188 C2196 0.950 . S
H2189 C2201 0.950 . S
H2190 C2198 0.950 . S
H2191 C2200 0.950 . S
H2192 C2202 0.950 . S
H2193 C2204 0.950 . S
H2194 C2206 0.950 . S
H2195 C2207 0.950 . S
C2196 H2188 0.950 . S
C2196 C2197 1.386 . S
C2196 C2198 1.391 . S
C2197 C2196 1.386 . S
C2197 C2201 1.393 . S
C2198 H2190 0.950 . S
C2198 C2196 1.391 . S
C2198 C2199 1.400 . S
C2199 C2198 1.400 . S
C2199 C2200 1.398 . S
C2199 C2205 1.491 . S
C2200 H2191 0.950 . S
C2200 C2199 1.398 . S
C2200 C2201 1.391 . S
C2201 H2189 0.950 . S
C2201 C2197 1.393 . S
C2201 C2200 1.391 . S
C2202 H2192 0.950 . S
C2202 C2203 1.386 . S
C2202 C2204 1.391 . S
C2203 C2202 1.386 . S
C2203 C2207 1.393 . S
C2204 H2193 0.950 . S
C2204 C2202 1.391 . S
C2204 C2205 1.400 . S
C2205 C2199 1.491 . S
C2205 C2204 1.400 . S
C2205 C2206 1.398 . S
C2206 H2194 0.950 . S
C2206 C2205 1.398 . S
C2206 C2207 1.391 . S
C2207 H2195 0.950 . S
C2207 C2203 1.393 . S
C2207 C2206 1.391 . S
H2208 C2216 0.940 1_554 S
H2209 C2221 0.950 . S
H2210 C2218 0.921 1_554 S
H2211 C2220 0.950 . S
H2212 C2222 0.950 . S
H2213 C2224 0.950 . S
H2214 C2226 0.950 1_554 S
H2215 C2227 0.950 1_554 S
C2216 H2208 0.940 1_556 S
C2216 C2217 1.386 . S
C2216 C2218 1.391 . S
C2217 C2216 1.386 . S
C2217 C2221 1.393 . S
C2218 H2210 0.921 1_556 S
C2218 C2216 1.391 . S
C2218 C2219 1.400 . S
C2219 C2218 1.400 . S
C2219 C2220 1.398 . S
C2219 C2225 1.491 . S
C2220 H2211 0.950 . S
C2220 C2219 1.398 . S
C2220 C2221 1.391 . S
C2221 H2209 0.950 . S
C2221 C2217 1.393 . S
C2221 C2220 1.391 . S
C2222 H2212 0.950 . S
C2222 C2223 1.386 . S
C2222 C2224 1.391 . S
C2223 C2222 1.386 . S
C2223 C2227 1.393 . S
C2224 H2213 0.950 . S
C2224 C2222 1.391 . S
C2224 C2225 1.400 . S
C2225 C2219 1.491 . S
C2225 C2224 1.400 . S
C2225 C2226 1.398 . S
C2226 H2214 0.950 1_556 S
C2226 C2225 1.398 . S
C2226 C2227 1.391 . S
C2227 H2215 0.950 1_556 S
C2227 C2223 1.393 . S
C2227 C2226 1.391 . S
H2228 C2236 0.950 . S
H2229 C2241 0.950 . S
H2230 C2238 0.950 . S
H2231 C2240 0.950 . S
H2232 C2242 0.950 . S
H2233 C2244 0.950 . S
H2234 C2246 0.950 . S
H2235 C2247 0.950 . S
C2236 H2228 0.950 . S
C2236 C2237 1.386 . S
C2236 C2238 1.391 . S
C2237 C2236 1.386 . S
C2237 C2241 1.393 . S
C2238 H2230 0.950 . S
C2238 C2236 1.391 . S
C2238 C2239 1.400 . S
C2239 C2238 1.400 . S
C2239 C2240 1.398 . S
C2239 C2245 1.491 . S
C2240 H2231 0.950 . S
C2240 C2239 1.398 . S
C2240 C2241 1.391 . S
C2241 H2229 0.950 . S
C2241 C2237 1.393 . S
C2241 C2240 1.391 . S
C2242 H2232 0.950 . S
C2242 C2243 1.386 . S
C2242 C2244 1.391 . S
C2243 C2242 1.386 . S
C2243 C2247 1.393 . S
C2244 H2233 0.950 . S
C2244 C2242 1.391 . S
C2244 C2245 1.400 . S
C2245 C2239 1.491 . S
C2245 C2244 1.400 . S
C2245 C2246 1.398 . S
C2246 H2234 0.950 . S
C2246 C2245 1.398 . S
C2246 C2247 1.391 . S
C2247 H2235 0.950 . S
C2247 C2243 1.393 . S
C2247 C2246 1.391 . S
H2248 C2256 0.940 1_556 S
H2249 C2261 0.950 . S
H2250 C2258 0.921 1_556 S
H2251 C2260 0.950 . S
H2252 C2262 0.950 . S
H2253 C2264 0.950 . S
H2254 C2266 0.950 1_556 S
H2255 C2267 0.950 1_556 S
C2256 H2248 0.940 1_554 S
C2256 C2257 1.386 . S
C2256 C2258 1.391 . S
C2257 C2256 1.386 . S
C2257 C2261 1.393 . S
C2258 H2250 0.921 1_554 S
C2258 C2256 1.391 . S
C2258 C2259 1.400 . S
C2259 C2258 1.400 . S
C2259 C2260 1.398 . S
C2259 C2265 1.491 . S
C2260 H2251 0.950 . S
C2260 C2259 1.398 . S
C2260 C2261 1.391 . S
C2261 H2249 0.950 . S
C2261 C2257 1.393 . S
C2261 C2260 1.391 . S
C2262 H2252 0.950 . S
C2262 C2263 1.386 . S
C2262 C2264 1.391 . S
C2263 C2262 1.386 . S
C2263 C2267 1.393 . S
C2264 H2253 0.950 . S
C2264 C2262 1.391 . S
C2264 C2265 1.400 . S
C2265 C2259 1.491 . S
C2265 C2264 1.400 . S
C2265 C2266 1.398 . S
C2266 H2254 0.950 1_554 S
C2266 C2265 1.398 . S
C2266 C2267 1.391 . S
C2267 H2255 0.950 1_554 S
C2267 C2263 1.393 . S
C2267 C2266 1.391 . S
H2268 C2276 0.950 . S
H2269 C2281 0.950 . S
H2270 C2278 0.950 . S
H2271 C2280 0.950 . S
H2272 C2282 0.950 . S
H2273 C2284 0.950 . S
H2274 C2286 0.950 . S
H2275 C2287 0.950 . S
C2276 H2268 0.950 . S
C2276 C2277 1.386 . S
C2276 C2278 1.391 . S
C2277 C2276 1.386 . S
C2277 C2281 1.393 . S
C2278 H2270 0.950 . S
C2278 C2276 1.391 . S
C2278 C2279 1.400 . S
C2279 C2278 1.400 . S
C2279 C2280 1.398 . S
C2279 C2285 1.491 . S
C2280 H2271 0.950 . S
C2280 C2279 1.398 . S
C2280 C2281 1.391 . S
C2281 H2269 0.950 . S
C2281 C2277 1.393 . S
C2281 C2280 1.391 . S
C2282 H2272 0.950 . S
C2282 C2283 1.386 . S
C2282 C2284 1.391 . S
C2283 C2282 1.386 . S
C2283 C2287 1.393 . S
C2284 H2273 0.950 . S
C2284 C2282 1.391 . S
C2284 C2285 1.400 . S
C2285 C2279 1.491 . S
C2285 C2284 1.400 . S
C2285 C2286 1.398 . S
C2286 H2274 0.950 . S
C2286 C2285 1.398 . S
C2286 C2287 1.391 . S
C2287 H2275 0.950 . S
C2287 C2283 1.393 . S
C2287 C2286 1.391 . S
H2288 C2296 0.950 . S
H2289 C2301 0.950 . S
H2290 C2298 0.950 . S
H2291 C2300 0.950 . S
H2292 C2302 0.950 . S
H2293 C2304 0.950 . S
H2294 C2306 0.950 . S
H2295 C2307 0.950 . S
C2296 H2288 0.950 . S
C2296 C2297 1.386 . S
C2296 C2298 1.391 . S
C2297 C2296 1.386 . S
C2297 C2301 1.393 . S
C2298 H2290 0.950 . S
C2298 C2296 1.391 . S
C2298 C2299 1.400 . S
C2299 C2298 1.400 . S
C2299 C2300 1.398 . S
C2299 C2305 1.491 . S
C2300 H2291 0.950 . S
C2300 C2299 1.398 . S
C2300 C2301 1.391 . S
C2301 H2289 0.950 . S
C2301 C2297 1.393 . S
C2301 C2300 1.391 . S
C2302 H2292 0.950 . S
C2302 C2303 1.386 . S
C2302 C2304 1.391 . S
C2303 C2302 1.386 . S
C2303 C2307 1.393 . S
C2304 H2293 0.950 . S
C2304 C2302 1.391 . S
C2304 C2305 1.400 . S
C2305 C2299 1.491 . S
C2305 C2304 1.400 . S
C2305 C2306 1.398 . S
C2306 H2294 0.950 . S
C2306 C2305 1.398 . S
C2306 C2307 1.391 . S
C2307 H2295 0.950 . S
C2307 C2303 1.393 . S
C2307 C2306 1.391 . S
H2308 C2316 0.950 . S
H2309 C2321 0.950 . S
H2310 C2318 0.950 . S
H2311 C2320 0.950 . S
H2312 C2322 0.950 . S
H2313 C2324 0.950 . S
H2314 C2326 0.950 . S
H2315 C2327 0.950 . S
C2316 H2308 0.950 . S
C2316 C2317 1.386 . S
C2316 C2318 1.391 . S
C2317 C2316 1.386 . S
C2317 C2321 1.393 . S
C2318 H2310 0.950 . S
C2318 C2316 1.391 . S
C2318 C2319 1.400 . S
C2319 C2318 1.400 . S
C2319 C2320 1.398 . S
C2319 C2325 1.491 . S
C2320 H2311 0.950 . S
C2320 C2319 1.398 . S
C2320 C2321 1.391 . S
C2321 H2309 0.950 . S
C2321 C2317 1.393 . S
C2321 C2320 1.391 . S
C2322 H2312 0.950 . S
C2322 C2323 1.386 . S
C2322 C2324 1.391 . S
C2323 C2322 1.386 . S
C2323 C2327 1.393 . S
C2324 H2313 0.950 . S
C2324 C2322 1.391 . S
C2324 C2325 1.400 . S
C2325 C2319 1.491 . S
C2325 C2324 1.400 . S
C2325 C2326 1.398 . S
C2326 H2314 0.950 . S
C2326 C2325 1.398 . S
C2326 C2327 1.391 . S
C2327 H2315 0.950 . S
C2327 C2323 1.393 . S
C2327 C2326 1.391 . S
H2328 C2336 0.950 . S
H2329 C2341 0.950 . S
H2330 C2338 0.950 . S
H2331 C2340 0.950 . S
H2332 C2342 0.950 . S
H2333 C2344 0.950 . S
H2334 C2346 0.950 . S
H2335 C2347 0.950 . S
C2336 H2328 0.950 . S
C2336 C2337 1.386 . S
C2336 C2338 1.391 . S
C2337 C2336 1.386 . S
C2337 C2341 1.393 . S
C2338 H2330 0.950 . S
C2338 C2336 1.391 . S
C2338 C2339 1.400 . S
C2339 C2338 1.400 . S
C2339 C2340 1.398 . S
C2339 C2345 1.491 . S
C2340 H2331 0.950 . S
C2340 C2339 1.398 . S
C2340 C2341 1.391 . S
C2341 H2329 0.950 . S
C2341 C2337 1.393 . S
C2341 C2340 1.391 . S
C2342 H2332 0.950 . S
C2342 C2343 1.386 . S
C2342 C2344 1.391 . S
C2343 C2342 1.386 . S
C2343 C2347 1.393 . S
C2344 H2333 0.950 . S
C2344 C2342 1.391 . S
C2344 C2345 1.400 . S
C2345 C2339 1.491 . S
C2345 C2344 1.400 . S
C2345 C2346 1.398 . S
C2346 H2334 0.950 . S
C2346 C2345 1.398 . S
C2346 C2347 1.391 . S
C2347 H2335 0.950 . S
C2347 C2343 1.393 . S
C2347 C2346 1.391 . S
H2348 C2356 0.950 . S
H2349 C2361 0.950 . S
H2350 C2358 0.950 . S
H2351 C2360 0.950 . S
H2352 C2362 0.950 . S
H2353 C2364 0.950 . S
H2354 C2366 0.950 . S
H2355 C2367 0.950 . S
C2356 H2348 0.950 . S
C2356 C2357 1.386 . S
C2356 C2358 1.391 . S
C2357 C2356 1.386 . S
C2357 C2361 1.393 . S
C2358 H2350 0.950 . S
C2358 C2356 1.391 . S
C2358 C2359 1.400 . S
C2359 C2358 1.400 . S
C2359 C2360 1.398 . S
C2359 C2365 1.491 . S
C2360 H2351 0.950 . S
C2360 C2359 1.398 . S
C2360 C2361 1.391 . S
C2361 H2349 0.950 . S
C2361 C2357 1.393 . S
C2361 C2360 1.391 . S
C2362 H2352 0.950 . S
C2362 C2363 1.386 . S
C2362 C2364 1.391 . S
C2363 C2362 1.386 . S
C2363 C2367 1.393 . S
C2364 H2353 0.950 . S
C2364 C2362 1.391 . S
C2364 C2365 1.400 . S
C2365 C2359 1.491 . S
C2365 C2364 1.400 . S
C2365 C2366 1.398 . S
C2366 H2354 0.950 . S
C2366 C2365 1.398 . S
C2366 C2367 1.391 . S
C2367 H2355 0.950 . S
C2367 C2363 1.393 . S
C2367 C2366 1.391 . S
H2368 C2376 0.950 . S
H2369 C2381 0.950 . S
H2370 C2378 0.950 . S
H2371 C2380 0.950 . S
H2372 C2382 0.950 . S
H2373 C2384 0.950 . S
H2374 C2386 0.950 . S
H2375 C2387 0.950 . S
C2376 H2368 0.950 . S
C2376 C2377 1.386 . S
C2376 C2378 1.391 . S
C2377 C2376 1.386 . S
C2377 C2381 1.393 . S
C2378 H2370 0.950 . S
C2378 C2376 1.391 . S
C2378 C2379 1.400 . S
C2379 C2378 1.400 . S
C2379 C2380 1.398 . S
C2379 C2385 1.491 . S
C2380 H2371 0.950 . S
C2380 C2379 1.398 . S
C2380 C2381 1.391 . S
C2381 H2369 0.950 . S
C2381 C2377 1.393 . S
C2381 C2380 1.391 . S
C2382 H2372 0.950 . S
C2382 C2383 1.386 . S
C2382 C2384 1.391 . S
C2383 C2382 1.386 . S
C2383 C2387 1.393 . S
C2384 H2373 0.950 . S
C2384 C2382 1.391 . S
C2384 C2385 1.400 . S
C2385 C2379 1.491 . S
C2385 C2384 1.400 . S
C2385 C2386 1.398 . S
C2386 H2374 0.950 . S
C2386 C2385 1.398 . S
C2386 C2387 1.391 . S
C2387 H2375 0.950 . S
C2387 C2383 1.393 . S
C2387 C2386 1.391 . S
H2388 C2396 0.950 . S
H2389 C2401 0.950 . S
H2390 C2398 0.950 . S
H2391 C2400 0.950 . S
H2392 C2402 0.950 . S
H2393 C2404 0.950 . S
H2394 C2406 0.950 . S
H2395 C2407 0.950 . S
C2396 H2388 0.950 . S
C2396 C2397 1.386 . S
C2396 C2398 1.391 . S
C2397 C2396 1.386 . S
C2397 C2401 1.393 . S
C2398 H2390 0.950 . S
C2398 C2396 1.391 . S
C2398 C2399 1.400 . S
C2399 C2398 1.400 . S
C2399 C2400 1.398 . S
C2399 C2405 1.491 . S
C2400 H2391 0.950 . S
C2400 C2399 1.398 . S
C2400 C2401 1.391 . S
C2401 H2389 0.950 . S
C2401 C2397 1.393 . S
C2401 C2400 1.391 . S
C2402 H2392 0.950 . S
C2402 C2403 1.386 . S
C2402 C2404 1.391 . S
C2403 C2402 1.386 . S
C2403 C2407 1.393 . S
C2404 H2393 0.950 . S
C2404 C2402 1.391 . S
C2404 C2405 1.400 . S
C2405 C2399 1.491 . S
C2405 C2404 1.400 . S
C2405 C2406 1.398 . S
C2406 H2394 0.950 . S
C2406 C2405 1.398 . S
C2406 C2407 1.391 . S
C2407 H2395 0.950 . S
C2407 C2403 1.393 . S
C2407 C2406 1.391 . S
H2408 C2416 0.950 . S
H2409 C2421 0.950 . S
H2410 C2418 0.950 . S
H2411 C2420 0.950 . S
H2412 C2422 0.950 . S
H2413 C2424 0.950 . S
H2414 C2426 0.950 . S
H2415 C2427 0.950 . S
C2416 H2408 0.950 . S
C2416 C2417 1.386 . S
C2416 C2418 1.391 . S
C2417 C2416 1.386 . S
C2417 C2421 1.393 . S
C2418 H2410 0.950 . S
C2418 C2416 1.391 . S
C2418 C2419 1.400 . S
C2419 C2418 1.400 . S
C2419 C2420 1.398 . S
C2419 C2425 1.491 . S
C2420 H2411 0.950 . S
C2420 C2419 1.398 . S
C2420 C2421 1.391 . S
C2421 H2409 0.950 . S
C2421 C2417 1.393 . S
C2421 C2420 1.391 . S
C2422 H2412 0.950 . S
C2422 C2423 1.386 . S
C2422 C2424 1.391 . S
C2423 C2422 1.386 . S
C2423 C2427 1.393 . S
C2424 H2413 0.950 . S
C2424 C2422 1.391 . S
C2424 C2425 1.400 . S
C2425 C2419 1.491 . S
C2425 C2424 1.400 . S
C2425 C2426 1.398 . S
C2426 H2414 0.950 . S
C2426 C2425 1.398 . S
C2426 C2427 1.391 . S
C2427 H2415 0.950 . S
C2427 C2423 1.393 . S
C2427 C2426 1.391 . S
H2428 C2436 0.950 . S
H2429 C2441 0.950 . S
H2430 C2438 0.950 . S
H2431 C2440 0.950 . S
H2432 C2442 0.950 . S
H2433 C2444 0.950 . S
H2434 C2446 0.950 . S
H2435 C2447 0.950 . S
C2436 H2428 0.950 . S
C2436 C2437 1.386 . S
C2436 C2438 1.391 . S
C2437 C2436 1.386 . S
C2437 C2441 1.393 . S
C2438 H2430 0.950 . S
C2438 C2436 1.391 . S
C2438 C2439 1.400 . S
C2439 C2438 1.400 . S
C2439 C2440 1.398 . S
C2439 C2445 1.491 . S
C2440 H2431 0.950 . S
C2440 C2439 1.398 . S
C2440 C2441 1.391 . S
C2441 H2429 0.950 . S
C2441 C2437 1.393 . S
C2441 C2440 1.391 . S
C2442 H2432 0.950 . S
C2442 C2443 1.386 . S
C2442 C2444 1.391 . S
C2443 C2442 1.386 . S
C2443 C2447 1.393 . S
C2444 H2433 0.950 . S
C2444 C2442 1.391 . S
C2444 C2445 1.400 . S
C2445 C2439 1.491 . S
C2445 C2444 1.400 . S
C2445 C2446 1.398 . S
C2446 H2434 0.950 . S
C2446 C2445 1.398 . S
C2446 C2447 1.391 . S
C2447 H2435 0.950 . S
C2447 C2443 1.393 . S
C2447 C2446 1.391 . S
H2448 C2456 0.950 . S
H2449 C2461 0.950 . S
H2450 C2458 0.950 . S
H2451 C2460 0.950 . S
H2452 C2462 0.950 . S
H2453 C2464 0.950 . S
H2454 C2466 0.950 . S
H2455 C2467 0.950 . S
C2456 H2448 0.950 . S
C2456 C2457 1.386 . S
C2456 C2458 1.391 . S
C2457 C2456 1.386 . S
C2457 C2461 1.393 . S
C2458 H2450 0.950 . S
C2458 C2456 1.391 . S
C2458 C2459 1.400 . S
C2459 C2458 1.400 . S
C2459 C2460 1.398 . S
C2459 C2465 1.491 . S
C2460 H2451 0.950 . S
C2460 C2459 1.398 . S
C2460 C2461 1.391 . S
C2461 H2449 0.950 . S
C2461 C2457 1.393 . S
C2461 C2460 1.391 . S
C2462 H2452 0.950 . S
C2462 C2463 1.386 . S
C2462 C2464 1.391 . S
C2463 C2462 1.386 . S
C2463 C2467 1.393 . S
C2464 H2453 0.950 . S
C2464 C2462 1.391 . S
C2464 C2465 1.400 . S
C2465 C2459 1.491 . S
C2465 C2464 1.400 . S
C2465 C2466 1.398 . S
C2466 H2454 0.950 . S
C2466 C2465 1.398 . S
C2466 C2467 1.391 . S
C2467 H2455 0.950 . S
C2467 C2463 1.393 . S
C2467 C2466 1.391 . S
H2468 C2476 0.950 . S
H2469 C2481 0.950 . S
H2470 C2478 0.950 . S
H2471 C2480 0.950 . S
H2472 C2482 0.950 . S
H2473 C2484 0.950 . S
H2474 C2486 0.950 . S
H2475 C2487 0.950 . S
C2476 H2468 0.950 . S
C2476 C2477 1.386 . S
C2476 C2478 1.391 . S
C2477 C2476 1.386 . S
C2477 C2481 1.393 . S
C2478 H2470 0.950 . S
C2478 C2476 1.391 . S
C2478 C2479 1.400 . S
C2479 C2478 1.400 . S
C2479 C2480 1.398 . S
C2479 C2485 1.491 . S
C2480 H2471 0.950 . S
C2480 C2479 1.398 . S
C2480 C2481 1.391 . S
C2481 H2469 0.950 . S
C2481 C2477 1.393 . S
C2481 C2480 1.391 . S
C2482 H2472 0.950 . S
C2482 C2483 1.386 . S
C2482 C2484 1.391 . S
C2483 C2482 1.386 . S
C2483 C2487 1.393 . S
C2484 H2473 0.950 . S
C2484 C2482 1.391 . S
C2484 C2485 1.400 . S
C2485 C2479 1.491 . S
C2485 C2484 1.400 . S
C2485 C2486 1.398 . S
C2486 H2474 0.950 . S
C2486 C2485 1.398 . S
C2486 C2487 1.391 . S
C2487 H2475 0.950 . S
C2487 C2483 1.393 . S
C2487 C2486 1.391 . S
H2488 C2496 0.950 1_556 S
H2489 C2501 0.950 . S
H2490 C2498 0.950 1_556 S
H2491 C2500 0.950 . S
H2492 C2502 0.950 . S
H2493 C2504 0.950 . S
H2494 C2506 0.950 1_556 S
H2495 C2507 0.950 1_556 S
C2496 H2488 0.950 1_554 S
C2496 C2497 1.386 . S
C2496 C2498 1.391 . S
C2497 C2496 1.386 . S
C2497 C2501 1.393 . S
C2498 H2490 0.950 1_554 S
C2498 C2496 1.391 . S
C2498 C2499 1.400 . S
C2499 C2498 1.400 . S
C2499 C2500 1.398 . S
C2499 C2505 1.491 . S
C2500 H2491 0.950 . S
C2500 C2499 1.398 . S
C2500 C2501 1.391 . S
C2501 H2489 0.950 . S
C2501 C2497 1.393 . S
C2501 C2500 1.391 . S
C2502 H2492 0.950 . S
C2502 C2503 1.386 . S
C2502 C2504 1.391 . S
C2503 C2502 1.386 . S
C2503 C2507 1.393 . S
C2504 H2493 0.950 . S
C2504 C2502 1.391 . S
C2504 C2505 1.400 . S
C2505 C2499 1.491 . S
C2505 C2504 1.400 . S
C2505 C2506 1.398 . S
C2506 H2494 0.950 1_554 S
C2506 C2505 1.398 . S
C2506 C2507 1.391 . S
C2507 H2495 0.950 1_554 S
C2507 C2503 1.393 . S
C2507 C2506 1.391 . S
H2508 C2516 0.950 . S
H2509 C2521 0.950 . S
H2510 C2518 0.950 . S
H2511 C2520 0.950 . S
H2512 C2522 0.950 . S
H2513 C2524 0.950 . S
H2514 C2526 0.950 . S
H2515 C2527 0.950 . S
C2516 H2508 0.950 . S
C2516 C2517 1.386 . S
C2516 C2518 1.391 . S
C2517 C2516 1.386 . S
C2517 C2521 1.393 . S
C2518 H2510 0.950 . S
C2518 C2516 1.391 . S
C2518 C2519 1.400 . S
C2519 C2518 1.400 . S
C2519 C2520 1.398 . S
C2519 C2525 1.491 . S
C2520 H2511 0.950 . S
C2520 C2519 1.398 . S
C2520 C2521 1.391 . S
C2521 H2509 0.950 . S
C2521 C2517 1.393 . S
C2521 C2520 1.391 . S
C2522 H2512 0.950 . S
C2522 C2523 1.386 . S
C2522 C2524 1.391 . S
C2523 C2522 1.386 . S
C2523 C2527 1.393 . S
C2524 H2513 0.950 . S
C2524 C2522 1.391 . S
C2524 C2525 1.400 . S
C2525 C2519 1.491 . S
C2525 C2524 1.400 . S
C2525 C2526 1.398 . S
C2526 H2514 0.950 . S
C2526 C2525 1.398 . S
C2526 C2527 1.391 . S
C2527 H2515 0.950 . S
C2527 C2523 1.393 . S
C2527 C2526 1.391 . S
H2528 C2536 0.950 . S
H2529 C2541 0.950 . S
H2530 C2538 0.950 . S
H2531 C2540 0.950 . S
H2532 C2542 0.950 . S
H2533 C2544 0.950 . S
H2534 C2546 0.950 . S
H2535 C2547 0.950 . S
C2536 H2528 0.950 . S
C2536 C2537 1.386 . S
C2536 C2538 1.391 . S
C2537 C2536 1.386 . S
C2537 C2541 1.393 . S
C2538 H2530 0.950 . S
C2538 C2536 1.391 . S
C2538 C2539 1.400 . S
C2539 C2538 1.400 . S
C2539 C2540 1.398 . S
C2539 C2545 1.491 . S
C2540 H2531 0.950 . S
C2540 C2539 1.398 . S
C2540 C2541 1.391 . S
C2541 H2529 0.950 . S
C2541 C2537 1.393 . S
C2541 C2540 1.391 . S
C2542 H2532 0.950 . S
C2542 C2543 1.386 . S
C2542 C2544 1.391 . S
C2543 C2542 1.386 . S
C2543 C2547 1.393 . S
C2544 H2533 0.950 . S
C2544 C2542 1.391 . S
C2544 C2545 1.400 . S
C2545 C2539 1.491 . S
C2545 C2544 1.400 . S
C2545 C2546 1.398 . S
C2546 H2534 0.950 . S
C2546 C2545 1.398 . S
C2546 C2547 1.391 . S
C2547 H2535 0.950 . S
C2547 C2543 1.393 . S
C2547 C2546 1.391 . S
H2548 C2556 0.950 . S
H2549 C2561 0.950 . S
H2550 C2558 0.950 . S
H2551 C2560 0.950 . S
H2552 C2562 0.950 . S
H2553 C2564 0.950 . S
H2554 C2566 0.950 . S
H2555 C2567 0.950 . S
C2556 H2548 0.950 . S
C2556 C2557 1.386 . S
C2556 C2558 1.391 . S
C2557 C2556 1.386 . S
C2557 C2561 1.393 . S
C2558 H2550 0.950 . S
C2558 C2556 1.391 . S
C2558 C2559 1.400 . S
C2559 C2558 1.400 . S
C2559 C2560 1.398 . S
C2559 C2565 1.491 . S
C2560 H2551 0.950 . S
C2560 C2559 1.398 . S
C2560 C2561 1.391 . S
C2561 H2549 0.950 . S
C2561 C2557 1.393 . S
C2561 C2560 1.391 . S
C2562 H2552 0.950 . S
C2562 C2563 1.386 . S
C2562 C2564 1.391 . S
C2563 C2562 1.386 . S
C2563 C2567 1.393 . S
C2564 H2553 0.950 . S
C2564 C2562 1.391 . S
C2564 C2565 1.400 . S
C2565 C2559 1.491 . S
C2565 C2564 1.400 . S
C2565 C2566 1.398 . S
C2566 H2554 0.950 . S
C2566 C2565 1.398 . S
C2566 C2567 1.391 . S
C2567 H2555 0.950 . S
C2567 C2563 1.393 . S
C2567 C2566 1.391 . S
H2568 C2576 0.950 . S
H2569 C2581 0.950 . S
H2570 C2578 0.950 . S
H2571 C2580 0.950 . S
H2572 C2582 0.950 . S
H2573 C2584 0.950 . S
H2574 C2586 0.950 . S
H2575 C2587 0.950 . S
C2576 H2568 0.950 . S
C2576 C2577 1.386 . S
C2576 C2578 1.391 . S
C2577 C2576 1.386 . S
C2577 C2581 1.393 . S
C2578 H2570 0.950 . S
C2578 C2576 1.391 . S
C2578 C2579 1.400 . S
C2579 C2578 1.400 . S
C2579 C2580 1.398 . S
C2579 C2585 1.491 . S
C2580 H2571 0.950 . S
C2580 C2579 1.398 . S
C2580 C2581 1.391 . S
C2581 H2569 0.950 . S
C2581 C2577 1.393 . S
C2581 C2580 1.391 . S
C2582 H2572 0.950 . S
C2582 C2583 1.386 . S
C2582 C2584 1.391 . S
C2583 C2582 1.386 . S
C2583 C2587 1.393 . S
C2584 H2573 0.950 . S
C2584 C2582 1.391 . S
C2584 C2585 1.400 . S
C2585 C2579 1.491 . S
C2585 C2584 1.400 . S
C2585 C2586 1.398 . S
C2586 H2574 0.950 . S
C2586 C2585 1.398 . S
C2586 C2587 1.391 . S
C2587 H2575 0.950 . S
C2587 C2583 1.393 . S
C2587 C2586 1.391 . S
H2588 C2596 0.950 . S
H2589 C2601 0.950 . S
H2590 C2598 0.950 . S
H2591 C2600 0.950 . S
H2592 C2602 0.950 . S
H2593 C2604 0.950 . S
H2594 C2606 0.950 . S
H2595 C2607 0.950 . S
C2596 H2588 0.950 . S
C2596 C2597 1.386 . S
C2596 C2598 1.391 . S
C2597 C2596 1.386 . S
C2597 C2601 1.393 . S
C2598 H2590 0.950 . S
C2598 C2596 1.391 . S
C2598 C2599 1.400 . S
C2599 C2598 1.400 . S
C2599 C2600 1.398 . S
C2599 C2605 1.491 . S
C2600 H2591 0.950 . S
C2600 C2599 1.398 . S
C2600 C2601 1.391 . S
C2601 H2589 0.950 . S
C2601 C2597 1.393 . S
C2601 C2600 1.391 . S
C2602 H2592 0.950 . S
C2602 C2603 1.386 . S
C2602 C2604 1.391 . S
C2603 C2602 1.386 . S
C2603 C2607 1.393 . S
C2604 H2593 0.950 . S
C2604 C2602 1.391 . S
C2604 C2605 1.400 . S
C2605 C2599 1.491 . S
C2605 C2604 1.400 . S
C2605 C2606 1.398 . S
C2606 H2594 0.950 . S
C2606 C2605 1.398 . S
C2606 C2607 1.391 . S
C2607 H2595 0.950 . S
C2607 C2603 1.393 . S
C2607 C2606 1.391 . S
H2608 C2616 0.950 . S
H2609 C2621 0.950 . S
H2610 C2618 0.950 . S
H2611 C2620 0.950 . S
H2612 C2622 0.950 . S
H2613 C2624 0.950 . S
H2614 C2626 0.950 . S
H2615 C2627 0.950 . S
C2616 H2608 0.950 . S
C2616 C2617 1.386 . S
C2616 C2618 1.391 . S
C2617 C2616 1.386 . S
C2617 C2621 1.393 . S
C2618 H2610 0.950 . S
C2618 C2616 1.391 . S
C2618 C2619 1.400 . S
C2619 C2618 1.400 . S
C2619 C2620 1.398 . S
C2619 C2625 1.491 . S
C2620 H2611 0.950 . S
C2620 C2619 1.398 . S
C2620 C2621 1.391 . S
C2621 H2609 0.950 . S
C2621 C2617 1.393 . S
C2621 C2620 1.391 . S
C2622 H2612 0.950 . S
C2622 C2623 1.386 . S
C2622 C2624 1.391 . S
C2623 C2622 1.386 . S
C2623 C2627 1.393 . S
C2624 H2613 0.950 . S
C2624 C2622 1.391 . S
C2624 C2625 1.400 . S
C2625 C2619 1.491 . S
C2625 C2624 1.400 . S
C2625 C2626 1.398 . S
C2626 H2614 0.950 . S
C2626 C2625 1.398 . S
C2626 C2627 1.391 . S
C2627 H2615 0.950 . S
C2627 C2623 1.393 . S
C2627 C2626 1.391 . S
H2628 C2636 0.950 . S
H2629 C2641 0.950 . S
H2630 C2638 0.950 . S
H2631 C2640 0.950 . S
H2632 C2642 0.950 . S
H2633 C2644 0.950 . S
H2634 C2646 0.950 . S
H2635 C2647 0.950 . S
C2636 H2628 0.950 . S
C2636 C2637 1.386 . S
C2636 C2638 1.391 . S
C2637 C2636 1.386 . S
C2637 C2641 1.393 . S
C2638 H2630 0.950 . S
C2638 C2636 1.391 . S
C2638 C2639 1.400 . S
C2639 C2638 1.400 . S
C2639 C2640 1.398 . S
C2639 C2645 1.491 . S
C2640 H2631 0.950 . S
C2640 C2639 1.398 . S
C2640 C2641 1.391 . S
C2641 H2629 0.950 . S
C2641 C2637 1.393 . S
C2641 C2640 1.391 . S
C2642 H2632 0.950 . S
C2642 C2643 1.386 . S
C2642 C2644 1.391 . S
C2643 C2642 1.386 . S
C2643 C2647 1.393 . S
C2644 H2633 0.950 . S
C2644 C2642 1.391 . S
C2644 C2645 1.400 . S
C2645 C2639 1.491 . S
C2645 C2644 1.400 . S
C2645 C2646 1.398 . S
C2646 H2634 0.950 . S
C2646 C2645 1.398 . S
C2646 C2647 1.391 . S
C2647 H2635 0.950 . S
C2647 C2643 1.393 . S
C2647 C2646 1.391 . S
H2648 C2656 0.950 . S
H2649 C2661 0.950 . S
H2650 C2658 0.950 . S
H2651 C2660 0.950 . S
H2652 C2662 0.950 . S
H2653 C2664 0.950 . S
H2654 C2666 0.950 . S
H2655 C2667 0.950 . S
C2656 H2648 0.950 . S
C2656 C2657 1.386 . S
C2656 C2658 1.391 . S
C2657 C2656 1.386 . S
C2657 C2661 1.393 . S
C2658 H2650 0.950 . S
C2658 C2656 1.391 . S
C2658 C2659 1.400 . S
C2659 C2658 1.400 . S
C2659 C2660 1.398 . S
C2659 C2665 1.491 . S
C2660 H2651 0.950 . S
C2660 C2659 1.398 . S
C2660 C2661 1.391 . S
C2661 H2649 0.950 . S
C2661 C2657 1.393 . S
C2661 C2660 1.391 . S
C2662 H2652 0.950 . S
C2662 C2663 1.386 . S
C2662 C2664 1.391 . S
C2663 C2662 1.386 . S
C2663 C2667 1.393 . S
C2664 H2653 0.950 . S
C2664 C2662 1.391 . S
C2664 C2665 1.400 . S
C2665 C2659 1.491 . S
C2665 C2664 1.400 . S
C2665 C2666 1.398 . S
C2666 H2654 0.950 . S
C2666 C2665 1.398 . S
C2666 C2667 1.391 . S
C2667 H2655 0.950 . S
C2667 C2663 1.393 . S
C2667 C2666 1.391 . S
H2668 C2676 0.950 . S
H2669 C2681 0.950 . S
H2670 C2678 0.950 . S
H2671 C2680 0.950 . S
H2672 C2682 0.950 . S
H2673 C2684 0.950 . S
H2674 C2686 0.950 . S
H2675 C2687 0.950 . S
C2676 H2668 0.950 . S
C2676 C2677 1.386 . S
C2676 C2678 1.391 . S
C2677 C2676 1.386 . S
C2677 C2681 1.393 . S
C2678 H2670 0.950 . S
C2678 C2676 1.391 . S
C2678 C2679 1.400 . S
C2679 C2678 1.400 . S
C2679 C2680 1.398 . S
C2679 C2685 1.491 . S
C2680 H2671 0.950 . S
C2680 C2679 1.398 . S
C2680 C2681 1.391 . S
C2681 H2669 0.950 . S
C2681 C2677 1.393 . S
C2681 C2680 1.391 . S
C2682 H2672 0.950 . S
C2682 C2683 1.386 . S
C2682 C2684 1.391 . S
C2683 C2682 1.386 . S
C2683 C2687 1.393 . S
C2684 H2673 0.950 . S
C2684 C2682 1.391 . S
C2684 C2685 1.400 . S
C2685 C2679 1.491 . S
C2685 C2684 1.400 . S
C2685 C2686 1.398 . S
C2686 H2674 0.950 . S
C2686 C2685 1.398 . S
C2686 C2687 1.391 . S
C2687 H2675 0.950 . S
C2687 C2683 1.393 . S
C2687 C2686 1.391 . S
H2688 C2696 0.950 . S
H2689 C2701 0.950 . S
H2690 C2698 0.950 . S
H2691 C2700 0.950 . S
H2692 C2702 0.950 . S
H2693 C2704 0.950 . S
H2694 C2706 0.950 . S
H2695 C2707 0.950 . S
C2696 H2688 0.950 . S
C2696 C2697 1.386 . S
C2696 C2698 1.391 . S
C2697 C2696 1.386 . S
C2697 C2701 1.393 . S
C2698 H2690 0.950 . S
C2698 C2696 1.391 . S
C2698 C2699 1.400 . S
C2699 C2698 1.400 . S
C2699 C2700 1.398 . S
C2699 C2705 1.491 . S
C2700 H2691 0.950 . S
C2700 C2699 1.398 . S
C2700 C2701 1.391 . S
C2701 H2689 0.950 . S
C2701 C2697 1.393 . S
C2701 C2700 1.391 . S
C2702 H2692 0.950 . S
C2702 C2703 1.386 . S
C2702 C2704 1.391 . S
C2703 C2702 1.386 . S
C2703 C2707 1.393 . S
C2704 H2693 0.950 . S
C2704 C2702 1.391 . S
C2704 C2705 1.400 . S
C2705 C2699 1.491 . S
C2705 C2704 1.400 . S
C2705 C2706 1.398 . S
C2706 H2694 0.950 . S
C2706 C2705 1.398 . S
C2706 C2707 1.391 . S
C2707 H2695 0.950 . S
C2707 C2703 1.393 . S
C2707 C2706 1.391 . S
H2708 C2716 0.950 . S
H2709 C2721 0.950 . S
H2710 C2718 0.950 . S
H2711 C2720 0.950 . S
H2712 C2722 0.950 . S
H2713 C2724 0.950 . S
H2714 C2726 0.950 . S
H2715 C2727 0.950 . S
C2716 H2708 0.950 . S
C2716 C2717 1.386 . S
C2716 C2718 1.391 . S
C2717 C2716 1.386 . S
C2717 C2721 1.393 . S
C2718 H2710 0.950 . S
C2718 C2716 1.391 . S
C2718 C2719 1.400 . S
C2719 C2718 1.400 . S
C2719 C2720 1.398 . S
C2719 C2725 1.491 . S
C2720 H2711 0.950 . S
C2720 C2719 1.398 . S
C2720 C2721 1.391 . S
C2721 H2709 0.950 . S
C2721 C2717 1.393 . S
C2721 C2720 1.391 . S
C2722 H2712 0.950 . S
C2722 C2723 1.386 . S
C2722 C2724 1.391 . S
C2723 C2722 1.386 . S
C2723 C2727 1.393 . S
C2724 H2713 0.950 . S
C2724 C2722 1.391 . S
C2724 C2725 1.400 . S
C2725 C2719 1.491 . S
C2725 C2724 1.400 . S
C2725 C2726 1.398 . S
C2726 H2714 0.950 . S
C2726 C2725 1.398 . S
C2726 C2727 1.391 . S
C2727 H2715 0.950 . S
C2727 C2723 1.393 . S
C2727 C2726 1.391 . S
H2728 C2736 0.950 . S
H2729 C2741 0.950 . S
H2730 C2738 0.950 . S
H2731 C2740 0.950 . S
H2732 C2742 0.950 . S
H2733 C2744 0.950 . S
H2734 C2746 0.950 . S
H2735 C2747 0.950 . S
C2736 H2728 0.950 . S
C2736 C2737 1.386 . S
C2736 C2738 1.391 . S
C2737 C2736 1.386 . S
C2737 C2741 1.393 . S
C2738 H2730 0.950 . S
C2738 C2736 1.391 . S
C2738 C2739 1.400 . S
C2739 C2738 1.400 . S
C2739 C2740 1.398 . S
C2739 C2745 1.491 . S
C2740 H2731 0.950 . S
C2740 C2739 1.398 . S
C2740 C2741 1.391 . S
C2741 H2729 0.950 . S
C2741 C2737 1.393 . S
C2741 C2740 1.391 . S
C2742 H2732 0.950 . S
C2742 C2743 1.386 . S
C2742 C2744 1.391 . S
C2743 C2742 1.386 . S
C2743 C2747 1.393 . S
C2744 H2733 0.950 . S
C2744 C2742 1.391 . S
C2744 C2745 1.400 . S
C2745 C2739 1.491 . S
C2745 C2744 1.400 . S
C2745 C2746 1.398 . S
C2746 H2734 0.950 . S
C2746 C2745 1.398 . S
C2746 C2747 1.391 . S
C2747 H2735 0.950 . S
C2747 C2743 1.393 . S
C2747 C2746 1.391 . S
H2748 C2756 0.950 . S
H2749 C2761 0.950 . S
H2750 C2758 0.950 . S
H2751 C2760 0.950 . S
H2752 C2762 0.950 . S
H2753 C2764 0.950 . S
H2754 C2766 0.950 . S
H2755 C2767 0.950 . S
C2756 H2748 0.950 . S
C2756 C2757 1.386 . S
C2756 C2758 1.391 . S
C2757 C2756 1.386 . S
C2757 C2761 1.393 . S
C2758 H2750 0.950 . S
C2758 C2756 1.391 . S
C2758 C2759 1.400 . S
C2759 C2758 1.400 . S
C2759 C2760 1.398 . S
C2759 C2765 1.491 . S
C2760 H2751 0.950 . S
C2760 C2759 1.398 . S
C2760 C2761 1.391 . S
C2761 H2749 0.950 . S
C2761 C2757 1.393 . S
C2761 C2760 1.391 . S
C2762 H2752 0.950 . S
C2762 C2763 1.386 . S
C2762 C2764 1.391 . S
C2763 C2762 1.386 . S
C2763 C2767 1.393 . S
C2764 H2753 0.950 . S
C2764 C2762 1.391 . S
C2764 C2765 1.400 . S
C2765 C2759 1.491 . S
C2765 C2764 1.400 . S
C2765 C2766 1.398 . S
C2766 H2754 0.950 . S
C2766 C2765 1.398 . S
C2766 C2767 1.391 . S
C2767 H2755 0.950 . S
C2767 C2763 1.393 . S
C2767 C2766 1.391 . S
H2768 C2776 0.950 . S
H2769 C2781 0.950 . S
H2770 C2778 0.950 . S
H2771 C2780 0.950 . S
H2772 C2782 0.950 . S
H2773 C2784 0.950 . S
H2774 C2786 0.950 . S
H2775 C2787 0.950 . S
C2776 H2768 0.950 . S
C2776 C2777 1.386 . S
C2776 C2778 1.391 . S
C2777 C2776 1.386 . S
C2777 C2781 1.393 . S
C2778 H2770 0.950 . S
C2778 C2776 1.391 . S
C2778 C2779 1.400 . S
C2779 C2778 1.400 . S
C2779 C2780 1.398 . S
C2779 C2785 1.491 . S
C2780 H2771 0.950 . S
C2780 C2779 1.398 . S
C2780 C2781 1.391 . S
C2781 H2769 0.950 . S
C2781 C2777 1.393 . S
C2781 C2780 1.391 . S
C2782 H2772 0.950 . S
C2782 C2783 1.386 . S
C2782 C2784 1.391 . S
C2783 C2782 1.386 . S
C2783 C2787 1.393 . S
C2784 H2773 0.950 . S
C2784 C2782 1.391 . S
C2784 C2785 1.400 . S
C2785 C2779 1.491 . S
C2785 C2784 1.400 . S
C2785 C2786 1.398 . S
C2786 H2774 0.950 . S
C2786 C2785 1.398 . S
C2786 C2787 1.391 . S
C2787 H2775 0.950 . S
C2787 C2783 1.393 . S
C2787 C2786 1.391 . S
H2788 C2796 0.950 . S
H2789 C2801 0.950 . S
H2790 C2798 0.950 . S
H2791 C2800 0.950 . S
H2792 C2802 0.950 . S
H2793 C2804 0.950 . S
H2794 C2806 0.950 . S
H2795 C2807 0.950 . S
C2796 H2788 0.950 . S
C2796 C2797 1.386 . S
C2796 C2798 1.391 . S
C2797 C2796 1.386 . S
C2797 C2801 1.393 . S
C2798 H2790 0.950 . S
C2798 C2796 1.391 . S
C2798 C2799 1.400 . S
C2799 C2798 1.400 . S
C2799 C2800 1.398 . S
C2799 C2805 1.491 . S
C2800 H2791 0.950 . S
C2800 C2799 1.398 . S
C2800 C2801 1.391 . S
C2801 H2789 0.950 . S
C2801 C2797 1.393 . S
C2801 C2800 1.391 . S
C2802 H2792 0.950 . S
C2802 C2803 1.386 . S
C2802 C2804 1.391 . S
C2803 C2802 1.386 . S
C2803 C2807 1.393 . S
C2804 H2793 0.950 . S
C2804 C2802 1.391 . S
C2804 C2805 1.400 . S
C2805 C2799 1.491 . S
C2805 C2804 1.400 . S
C2805 C2806 1.398 . S
C2806 H2794 0.950 . S
C2806 C2805 1.398 . S
C2806 C2807 1.391 . S
C2807 H2795 0.950 . S
C2807 C2803 1.393 . S
C2807 C2806 1.391 . S
H2808 C2816 0.950 . S
H2809 C2821 0.950 . S
H2810 C2818 0.950 . S
H2811 C2820 0.950 . S
H2812 C2822 0.950 . S
H2813 C2824 0.950 . S
H2814 C2826 0.950 . S
H2815 C2827 0.950 . S
C2816 H2808 0.950 . S
C2816 C2817 1.386 . S
C2816 C2818 1.391 . S
C2817 C2816 1.386 . S
C2817 C2821 1.393 . S
C2818 H2810 0.950 . S
C2818 C2816 1.391 . S
C2818 C2819 1.400 . S
C2819 C2818 1.400 . S
C2819 C2820 1.398 . S
C2819 C2825 1.491 . S
C2820 H2811 0.950 . S
C2820 C2819 1.398 . S
C2820 C2821 1.391 . S
C2821 H2809 0.950 . S
C2821 C2817 1.393 . S
C2821 C2820 1.391 . S
C2822 H2812 0.950 . S
C2822 C2823 1.386 . S
C2822 C2824 1.391 . S
C2823 C2822 1.386 . S
C2823 C2827 1.393 . S
C2824 H2813 0.950 . S
C2824 C2822 1.391 . S
C2824 C2825 1.400 . S
C2825 C2819 1.491 . S
C2825 C2824 1.400 . S
C2825 C2826 1.398 . S
C2826 H2814 0.950 . S
C2826 C2825 1.398 . S
C2826 C2827 1.391 . S
C2827 H2815 0.950 . S
C2827 C2823 1.393 . S
C2827 C2826 1.391 . S
H2828 C2836 0.950 . S
H2829 C2841 0.950 . S
H2830 C2838 0.950 . S
H2831 C2840 0.950 . S
H2832 C2842 0.950 . S
H2833 C2844 0.950 . S
H2834 C2846 0.950 . S
H2835 C2847 0.950 . S
C2836 H2828 0.950 . S
C2836 C2837 1.386 . S
C2836 C2838 1.391 . S
C2837 C2836 1.386 . S
C2837 C2841 1.393 . S
C2838 H2830 0.950 . S
C2838 C2836 1.391 . S
C2838 C2839 1.400 . S
C2839 C2838 1.400 . S
C2839 C2840 1.398 . S
C2839 C2845 1.491 . S
C2840 H2831 0.950 . S
C2840 C2839 1.398 . S
C2840 C2841 1.391 . S
C2841 H2829 0.950 . S
C2841 C2837 1.393 . S
C2841 C2840 1.391 . S
C2842 H2832 0.950 . S
C2842 C2843 1.386 . S
C2842 C2844 1.391 . S
C2843 C2842 1.386 . S
C2843 C2847 1.393 . S
C2844 H2833 0.950 . S
C2844 C2842 1.391 . S
C2844 C2845 1.400 . S
C2845 C2839 1.491 . S
C2845 C2844 1.400 . S
C2845 C2846 1.398 . S
C2846 H2834 0.950 . S
C2846 C2845 1.398 . S
C2846 C2847 1.391 . S
C2847 H2835 0.950 . S
C2847 C2843 1.393 . S
C2847 C2846 1.391 . S
H2848 C2856 0.950 . S
H2849 C2861 0.950 . S
H2850 C2858 0.950 . S
H2851 C2860 0.950 . S
H2852 C2862 0.950 . S
H2853 C2864 0.950 . S
H2854 C2866 0.950 . S
H2855 C2867 0.950 . S
C2856 H2848 0.950 . S
C2856 C2857 1.386 . S
C2856 C2858 1.391 . S
C2857 C2856 1.386 . S
C2857 C2861 1.393 . S
C2858 H2850 0.950 . S
C2858 C2856 1.391 . S
C2858 C2859 1.400 . S
C2859 C2858 1.400 . S
C2859 C2860 1.398 . S
C2859 C2865 1.491 . S
C2860 H2851 0.950 . S
C2860 C2859 1.398 . S
C2860 C2861 1.391 . S
C2861 H2849 0.950 . S
C2861 C2857 1.393 . S
C2861 C2860 1.391 . S
C2862 H2852 0.950 . S
C2862 C2863 1.386 . S
C2862 C2864 1.391 . S
C2863 C2862 1.386 . S
C2863 C2867 1.393 . S
C2864 H2853 0.950 . S
C2864 C2862 1.391 . S
C2864 C2865 1.400 . S
C2865 C2859 1.491 . S
C2865 C2864 1.400 . S
C2865 C2866 1.398 . S
C2866 H2854 0.950 . S
C2866 C2865 1.398 . S
C2866 C2867 1.391 . S
C2867 H2855 0.950 . S
C2867 C2863 1.393 . S
C2867 C2866 1.391 . S
H2868 C2876 0.950 . S
H2869 C2881 0.950 . S
H2870 C2878 0.950 . S
H2871 C2880 0.950 . S
H2872 C2882 0.950 . S
H2873 C2884 0.950 . S
H2874 C2886 0.950 . S
H2875 C2887 0.950 . S
C2876 H2868 0.950 . S
C2876 C2877 1.386 . S
C2876 C2878 1.391 . S
C2877 C2876 1.386 . S
C2877 C2881 1.393 . S
C2878 H2870 0.950 . S
C2878 C2876 1.391 . S
C2878 C2879 1.400 . S
C2879 C2878 1.400 . S
C2879 C2880 1.398 . S
C2879 C2885 1.491 . S
C2880 H2871 0.950 . S
C2880 C2879 1.398 . S
C2880 C2881 1.391 . S
C2881 H2869 0.950 . S
C2881 C2877 1.393 . S
C2881 C2880 1.391 . S
C2882 H2872 0.950 . S
C2882 C2883 1.386 . S
C2882 C2884 1.391 . S
C2883 C2882 1.386 . S
C2883 C2887 1.393 . S
C2884 H2873 0.950 . S
C2884 C2882 1.391 . S
C2884 C2885 1.400 . S
C2885 C2879 1.491 . S
C2885 C2884 1.400 . S
C2885 C2886 1.398 . S
C2886 H2874 0.950 . S
C2886 C2885 1.398 . S
C2886 C2887 1.391 . S
C2887 H2875 0.950 . S
C2887 C2883 1.393 . S
C2887 C2886 1.391 . S
H2888 C2896 0.950 . S
H2889 C2901 0.950 . S
H2890 C2898 0.950 . S
H2891 C2900 0.950 . S
H2892 C2902 0.950 . S
H2893 C2904 0.950 . S
H2894 C2906 0.950 . S
H2895 C2907 0.950 . S
C2896 H2888 0.950 . S
C2896 C2897 1.386 . S
C2896 C2898 1.391 . S
C2897 C2896 1.386 . S
C2897 C2901 1.393 . S
C2898 H2890 0.950 . S
C2898 C2896 1.391 . S
C2898 C2899 1.400 . S
C2899 C2898 1.400 . S
C2899 C2900 1.398 . S
C2899 C2905 1.491 . S
C2900 H2891 0.950 . S
C2900 C2899 1.398 . S
C2900 C2901 1.391 . S
C2901 H2889 0.950 . S
C2901 C2897 1.393 . S
C2901 C2900 1.391 . S
C2902 H2892 0.950 . S
C2902 C2903 1.386 . S
C2902 C2904 1.391 . S
C2903 C2902 1.386 . S
C2903 C2907 1.393 . S
C2904 H2893 0.950 . S
C2904 C2902 1.391 . S
C2904 C2905 1.400 . S
C2905 C2899 1.491 . S
C2905 C2904 1.400 . S
C2905 C2906 1.398 . S
C2906 H2894 0.950 . S
C2906 C2905 1.398 . S
C2906 C2907 1.391 . S
C2907 H2895 0.950 . S
C2907 C2903 1.393 . S
C2907 C2906 1.391 . S
H2908 C2916 0.950 . S
H2909 C2921 0.950 . S
H2910 C2918 0.950 . S
H2911 C2920 0.950 . S
H2912 C2922 0.950 . S
H2913 C2924 0.950 . S
H2914 C2926 0.950 . S
H2915 C2927 0.950 . S
C2916 H2908 0.950 . S
C2916 C2917 1.386 . S
C2916 C2918 1.391 . S
C2917 C2916 1.386 . S
C2917 C2921 1.393 . S
C2918 H2910 0.950 . S
C2918 C2916 1.391 . S
C2918 C2919 1.400 . S
C2919 C2918 1.400 . S
C2919 C2920 1.398 . S
C2919 C2925 1.491 . S
C2920 H2911 0.950 . S
C2920 C2919 1.398 . S
C2920 C2921 1.391 . S
C2921 H2909 0.950 . S
C2921 C2917 1.393 . S
C2921 C2920 1.391 . S
C2922 H2912 0.950 . S
C2922 C2923 1.386 . S
C2922 C2924 1.391 . S
C2923 C2922 1.386 . S
C2923 C2927 1.393 . S
C2924 H2913 0.950 . S
C2924 C2922 1.391 . S
C2924 C2925 1.400 . S
C2925 C2919 1.491 . S
C2925 C2924 1.400 . S
C2925 C2926 1.398 . S
C2926 H2914 0.950 . S
C2926 C2925 1.398 . S
C2926 C2927 1.391 . S
C2927 H2915 0.950 . S
C2927 C2923 1.393 . S
C2927 C2926 1.391 . S
H2928 C2936 0.950 . S
H2929 C2941 0.950 . S
H2930 C2938 0.950 . S
H2931 C2940 0.950 . S
H2932 C2942 0.950 . S
H2933 C2944 0.950 . S
H2934 C2946 0.950 . S
H2935 C2947 0.950 . S
C2936 H2928 0.950 . S
C2936 C2937 1.386 . S
C2936 C2938 1.391 . S
C2937 C2936 1.386 . S
C2937 C2941 1.393 . S
C2938 H2930 0.950 . S
C2938 C2936 1.391 . S
C2938 C2939 1.400 . S
C2939 C2938 1.400 . S
C2939 C2940 1.398 . S
C2939 C2945 1.491 . S
C2940 H2931 0.950 . S
C2940 C2939 1.398 . S
C2940 C2941 1.391 . S
C2941 H2929 0.950 . S
C2941 C2937 1.393 . S
C2941 C2940 1.391 . S
C2942 H2932 0.950 . S
C2942 C2943 1.386 . S
C2942 C2944 1.391 . S
C2943 C2942 1.386 . S
C2943 C2947 1.393 . S
C2944 H2933 0.950 . S
C2944 C2942 1.391 . S
C2944 C2945 1.400 . S
C2945 C2939 1.491 . S
C2945 C2944 1.400 . S
C2945 C2946 1.398 . S
C2946 H2934 0.950 . S
C2946 C2945 1.398 . S
C2946 C2947 1.391 . S
C2947 H2935 0.950 . S
C2947 C2943 1.393 . S
C2947 C2946 1.391 . S
H2948 C2956 0.950 . S
H2949 C2961 0.950 . S
H2950 C2958 0.950 . S
H2951 C2960 0.950 . S
H2952 C2962 0.950 . S
H2953 C2964 0.950 . S
H2954 C2966 0.950 . S
H2955 C2967 0.950 . S
C2956 H2948 0.950 . S
C2956 C2957 1.386 . S
C2956 C2958 1.391 . S
C2957 C2956 1.386 . S
C2957 C2961 1.393 . S
C2958 H2950 0.950 . S
C2958 C2956 1.391 . S
C2958 C2959 1.400 . S
C2959 C2958 1.400 . S
C2959 C2960 1.398 . S
C2959 C2965 1.491 . S
C2960 H2951 0.950 . S
C2960 C2959 1.398 . S
C2960 C2961 1.391 . S
C2961 H2949 0.950 . S
C2961 C2957 1.393 . S
C2961 C2960 1.391 . S
C2962 H2952 0.950 . S
C2962 C2963 1.386 . S
C2962 C2964 1.391 . S
C2963 C2962 1.386 . S
C2963 C2967 1.393 . S
C2964 H2953 0.950 . S
C2964 C2962 1.391 . S
C2964 C2965 1.400 . S
C2965 C2959 1.491 . S
C2965 C2964 1.400 . S
C2965 C2966 1.398 . S
C2966 H2954 0.950 . S
C2966 C2965 1.398 . S
C2966 C2967 1.391 . S
C2967 H2955 0.950 . S
C2967 C2963 1.393 . S
C2967 C2966 1.391 . S
H2968 C2976 0.950 . S
H2969 C2981 0.950 . S
H2970 C2978 0.950 . S
H2971 C2980 0.950 . S
H2972 C2982 0.950 . S
H2973 C2984 0.950 . S
H2974 C2986 0.950 . S
H2975 C2987 0.950 . S
C2976 H2968 0.950 . S
C2976 C2977 1.386 . S
C2976 C2978 1.391 . S
C2977 C2976 1.386 . S
C2977 C2981 1.393 . S
C2978 H2970 0.950 . S
C2978 C2976 1.391 . S
C2978 C2979 1.400 . S
C2979 C2978 1.400 . S
C2979 C2980 1.398 . S
C2979 C2985 1.491 . S
C2980 H2971 0.950 . S
C2980 C2979 1.398 . S
C2980 C2981 1.391 . S
C2981 H2969 0.950 . S
C2981 C2977 1.393 . S
C2981 C2980 1.391 . S
C2982 H2972 0.950 . S
C2982 C2983 1.386 . S
C2982 C2984 1.391 . S
C2983 C2982 1.386 . S
C2983 C2987 1.393 . S
C2984 H2973 0.950 . S
C2984 C2982 1.391 . S
C2984 C2985 1.400 . S
C2985 C2979 1.491 . S
C2985 C2984 1.400 . S
C2985 C2986 1.398 . S
C2986 H2974 0.950 . S
C2986 C2985 1.398 . S
C2986 C2987 1.391 . S
C2987 H2975 0.950 . S
C2987 C2983 1.393 . S
C2987 C2986 1.391 . S
H2988 C2996 0.950 . S
H2989 C3001 0.950 . S
H2990 C2998 0.950 . S
H2991 C3000 0.950 . S
H2992 C3002 0.950 . S
H2993 C3004 0.950 . S
H2994 C3006 0.950 . S
H2995 C3007 0.950 . S
C2996 H2988 0.950 . S
C2996 C2997 1.386 . S
C2996 C2998 1.391 . S
C2997 C2996 1.386 . S
C2997 C3001 1.393 . S
C2998 H2990 0.950 . S
C2998 C2996 1.391 . S
C2998 C2999 1.400 . S
C2999 C2998 1.400 . S
C2999 C3000 1.398 . S
C2999 C3005 1.491 . S
C3000 H2991 0.950 . S
C3000 C2999 1.398 . S
C3000 C3001 1.391 . S
C3001 H2989 0.950 . S
C3001 C2997 1.393 . S
C3001 C3000 1.391 . S
C3002 H2992 0.950 . S
C3002 C3003 1.386 . S
C3002 C3004 1.391 . S
C3003 C3002 1.386 . S
C3003 C3007 1.393 . S
C3004 H2993 0.950 . S
C3004 C3002 1.391 . S
C3004 C3005 1.400 . S
C3005 C2999 1.491 . S
C3005 C3004 1.400 . S
C3005 C3006 1.398 . S
C3006 H2994 0.950 . S
C3006 C3005 1.398 . S
C3006 C3007 1.391 . S
C3007 H2995 0.950 . S
C3007 C3003 1.393 . S
C3007 C3006 1.391 . S
H3008 C3016 0.950 . S
H3009 C3021 0.950 . S
H3010 C3018 0.950 . S
H3011 C3020 0.950 . S
H3012 C3022 0.950 . S
H3013 C3024 0.950 . S
H3014 C3026 0.950 . S
H3015 C3027 0.950 . S
C3016 H3008 0.950 . S
C3016 C3017 1.386 . S
C3016 C3018 1.391 . S
C3017 C3016 1.386 . S
C3017 C3021 1.393 . S
C3018 H3010 0.950 . S
C3018 C3016 1.391 . S
C3018 C3019 1.400 . S
C3019 C3018 1.400 . S
C3019 C3020 1.398 . S
C3019 C3025 1.491 . S
C3020 H3011 0.950 . S
C3020 C3019 1.398 . S
C3020 C3021 1.391 . S
C3021 H3009 0.950 . S
C3021 C3017 1.393 . S
C3021 C3020 1.391 . S
C3022 H3012 0.950 . S
C3022 C3023 1.386 . S
C3022 C3024 1.391 . S
C3023 C3022 1.386 . S
C3023 C3027 1.393 . S
C3024 H3013 0.950 . S
C3024 C3022 1.391 . S
C3024 C3025 1.400 . S
C3025 C3019 1.491 . S
C3025 C3024 1.400 . S
C3025 C3026 1.398 . S
C3026 H3014 0.950 . S
C3026 C3025 1.398 . S
C3026 C3027 1.391 . S
C3027 H3015 0.950 . S
C3027 C3023 1.393 . S
C3027 C3026 1.391 . S
H3028 C3036 0.950 . S
H3029 C3041 0.950 . S
H3030 C3038 0.950 . S
H3031 C3040 0.950 . S
H3032 C3042 0.950 . S
H3033 C3044 0.950 . S
H3034 C3046 0.950 . S
H3035 C3047 0.950 . S
C3036 H3028 0.950 . S
C3036 C3037 1.386 . S
C3036 C3038 1.391 . S
C3037 C3036 1.386 . S
C3037 C3041 1.393 . S
C3038 H3030 0.950 . S
C3038 C3036 1.391 . S
C3038 C3039 1.400 . S
C3039 C3038 1.400 . S
C3039 C3040 1.398 . S
C3039 C3045 1.491 . S
C3040 H3031 0.950 . S
C3040 C3039 1.398 . S
C3040 C3041 1.391 . S
C3041 H3029 0.950 . S
C3041 C3037 1.393 . S
C3041 C3040 1.391 . S
C3042 H3032 0.950 . S
C3042 C3043 1.386 . S
C3042 C3044 1.391 . S
C3043 C3042 1.386 . S
C3043 C3047 1.393 . S
C3044 H3033 0.950 . S
C3044 C3042 1.391 . S
C3044 C3045 1.400 . S
C3045 C3039 1.491 . S
C3045 C3044 1.400 . S
C3045 C3046 1.398 . S
C3046 H3034 0.950 . S
C3046 C3045 1.398 . S
C3046 C3047 1.391 . S
C3047 H3035 0.950 . S
C3047 C3043 1.393 . S
C3047 C3046 1.391 . S
H3048 C3056 0.950 . S
H3049 C3061 0.950 . S
H3050 C3058 0.950 . S
H3051 C3060 0.950 . S
H3052 C3062 0.950 . S
H3053 C3064 0.950 . S
H3054 C3066 0.950 . S
H3055 C3067 0.950 . S
C3056 H3048 0.950 . S
C3056 C3057 1.386 . S
C3056 C3058 1.391 . S
C3057 C3056 1.386 . S
C3057 C3061 1.393 . S
C3058 H3050 0.950 . S
C3058 C3056 1.391 . S
C3058 C3059 1.400 . S
C3059 C3058 1.400 . S
C3059 C3060 1.398 . S
C3059 C3065 1.491 . S
C3060 H3051 0.950 . S
C3060 C3059 1.398 . S
C3060 C3061 1.391 . S
C3061 H3049 0.950 . S
C3061 C3057 1.393 . S
C3061 C3060 1.391 . S
C3062 H3052 0.950 . S
C3062 C3063 1.386 . S
C3062 C3064 1.391 . S
C3063 C3062 1.386 . S
C3063 C3067 1.393 . S
C3064 H3053 0.950 . S
C3064 C3062 1.391 . S
C3064 C3065 1.400 . S
C3065 C3059 1.491 . S
C3065 C3064 1.400 . S
C3065 C3066 1.398 . S
C3066 H3054 0.950 . S
C3066 C3065 1.398 . S
C3066 C3067 1.391 . S
C3067 H3055 0.950 . S
C3067 C3063 1.393 . S
C3067 C3066 1.391 . S
H3068 C3076 0.950 . S
H3069 C3081 0.950 . S
H3070 C3078 0.950 . S
H3071 C3080 0.950 . S
H3072 C3082 0.950 . S
H3073 C3084 0.950 . S
H3074 C3086 0.950 . S
H3075 C3087 0.950 . S
C3076 H3068 0.950 . S
C3076 C3077 1.386 . S
C3076 C3078 1.391 . S
C3077 C3076 1.386 . S
C3077 C3081 1.393 . S
C3078 H3070 0.950 . S
C3078 C3076 1.391 . S
C3078 C3079 1.400 . S
C3079 C3078 1.400 . S
C3079 C3080 1.398 . S
C3079 C3085 1.491 . S
C3080 H3071 0.950 . S
C3080 C3079 1.398 . S
C3080 C3081 1.391 . S
C3081 H3069 0.950 . S
C3081 C3077 1.393 . S
C3081 C3080 1.391 . S
C3082 H3072 0.950 . S
C3082 C3083 1.386 . S
C3082 C3084 1.391 . S
C3083 C3082 1.386 . S
C3083 C3087 1.393 . S
C3084 H3073 0.950 . S
C3084 C3082 1.391 . S
C3084 C3085 1.400 . S
C3085 C3079 1.491 . S
C3085 C3084 1.400 . S
C3085 C3086 1.398 . S
C3086 H3074 0.950 . S
C3086 C3085 1.398 . S
C3086 C3087 1.391 . S
C3087 H3075 0.950 . S
C3087 C3083 1.393 . S
C3087 C3086 1.391 . S
H3088 C3096 0.950 . S
H3089 C3101 0.950 . S
H3090 C3098 0.950 . S
H3091 C3100 0.950 . S
H3092 C3102 0.950 . S
H3093 C3104 0.950 . S
H3094 C3106 0.950 . S
H3095 C3107 0.950 . S
C3096 H3088 0.950 . S
C3096 C3097 1.386 . S
C3096 C3098 1.391 . S
C3097 C3096 1.386 . S
C3097 C3101 1.393 . S
C3098 H3090 0.950 . S
C3098 C3096 1.391 . S
C3098 C3099 1.400 . S
C3099 C3098 1.400 . S
C3099 C3100 1.398 . S
C3099 C3105 1.491 . S
C3100 H3091 0.950 . S
C3100 C3099 1.398 . S
C3100 C3101 1.391 . S
C3101 H3089 0.950 . S
C3101 C3097 1.393 . S
C3101 C3100 1.391 . S
C3102 H3092 0.950 . S
C3102 C3103 1.386 . S
C3102 C3104 1.391 . S
C3103 C3102 1.386 . S
C3103 C3107 1.393 . S
C3104 H3093 0.950 . S
C3104 C3102 1.391 . S
C3104 C3105 1.400 . S
C3105 C3099 1.491 . S
C3105 C3104 1.400 . S
C3105 C3106 1.398 . S
C3106 H3094 0.950 . S
C3106 C3105 1.398 . S
C3106 C3107 1.391 . S
C3107 H3095 0.950 . S
C3107 C3103 1.393 . S
C3107 C3106 1.391 . S
H3108 C3116 0.950 . S
H3109 C3121 0.950 . S
H3110 C3118 0.950 . S
H3111 C3120 0.950 . S
H3112 C3122 0.950 . S
H3113 C3124 0.950 . S
H3114 C3126 0.950 . S
H3115 C3127 0.950 . S
C3116 H3108 0.950 . S
C3116 C3117 1.386 . S
C3116 C3118 1.391 . S
C3117 C3116 1.386 . S
C3117 C3121 1.393 . S
C3118 H3110 0.950 . S
C3118 C3116 1.391 . S
C3118 C3119 1.400 . S
C3119 C3118 1.400 . S
C3119 C3120 1.398 . S
C3119 C3125 1.491 . S
C3120 H3111 0.950 . S
C3120 C3119 1.398 . S
C3120 C3121 1.391 . S
C3121 H3109 0.950 . S
C3121 C3117 1.393 . S
C3121 C3120 1.391 . S
C3122 H3112 0.950 . S
C3122 C3123 1.386 . S
C3122 C3124 1.391 . S
C3123 C3122 1.386 . S
C3123 C3127 1.393 . S
C3124 H3113 0.950 . S
C3124 C3122 1.391 . S
C3124 C3125 1.400 . S
C3125 C3119 1.491 . S
C3125 C3124 1.400 . S
C3125 C3126 1.398 . S
C3126 H3114 0.950 . S
C3126 C3125 1.398 . S
C3126 C3127 1.391 . S
C3127 H3115 0.950 . S
C3127 C3123 1.393 . S
C3127 C3126 1.391 . S
H3128 C3136 0.950 . S
H3129 C3141 0.950 . S
H3130 C3138 0.950 . S
H3131 C3140 0.950 . S
H3132 C3142 0.950 . S
H3133 C3144 0.950 . S
H3134 C3146 0.950 . S
H3135 C3147 0.950 . S
C3136 H3128 0.950 . S
C3136 C3137 1.386 . S
C3136 C3138 1.391 . S
C3137 C3136 1.386 . S
C3137 C3141 1.393 . S
C3138 H3130 0.950 . S
C3138 C3136 1.391 . S
C3138 C3139 1.400 . S
C3139 C3138 1.400 . S
C3139 C3140 1.398 . S
C3139 C3145 1.491 . S
C3140 H3131 0.950 . S
C3140 C3139 1.398 . S
C3140 C3141 1.391 . S
C3141 H3129 0.950 . S
C3141 C3137 1.393 . S
C3141 C3140 1.391 . S
C3142 H3132 0.950 . S
C3142 C3143 1.386 . S
C3142 C3144 1.391 . S
C3143 C3142 1.386 . S
C3143 C3147 1.393 . S
C3144 H3133 0.950 . S
C3144 C3142 1.391 . S
C3144 C3145 1.400 . S
C3145 C3139 1.491 . S
C3145 C3144 1.400 . S
C3145 C3146 1.398 . S
C3146 H3134 0.950 . S
C3146 C3145 1.398 . S
C3146 C3147 1.391 . S
C3147 H3135 0.950 . S
C3147 C3143 1.393 . S
C3147 C3146 1.391 . S
H3148 C3156 0.950 . S
H3149 C3161 0.950 . S
H3150 C3158 0.950 . S
H3151 C3160 0.950 . S
H3152 C3162 0.950 . S
H3153 C3164 0.950 . S
H3154 C3166 0.950 . S
H3155 C3167 0.950 . S
C3156 H3148 0.950 . S
C3156 C3157 1.386 . S
C3156 C3158 1.391 . S
C3157 C3156 1.386 . S
C3157 C3161 1.393 . S
C3158 H3150 0.950 . S
C3158 C3156 1.391 . S
C3158 C3159 1.400 . S
C3159 C3158 1.400 . S
C3159 C3160 1.398 . S
C3159 C3165 1.491 . S
C3160 H3151 0.950 . S
C3160 C3159 1.398 . S
C3160 C3161 1.391 . S
C3161 H3149 0.950 . S
C3161 C3157 1.393 . S
C3161 C3160 1.391 . S
C3162 H3152 0.950 . S
C3162 C3163 1.386 . S
C3162 C3164 1.391 . S
C3163 C3162 1.386 . S
C3163 C3167 1.393 . S
C3164 H3153 0.950 . S
C3164 C3162 1.391 . S
C3164 C3165 1.400 . S
C3165 C3159 1.491 . S
C3165 C3164 1.400 . S
C3165 C3166 1.398 . S
C3166 H3154 0.950 . S
C3166 C3165 1.398 . S
C3166 C3167 1.391 . S
C3167 H3155 0.950 . S
C3167 C3163 1.393 . S
C3167 C3166 1.391 . S
C937 C129 1.089 . S
C943 C13 1.089 . S
C957 C854 1.088 . S
C963 C42 1.088 . S
C977 C419 1.066 . S
C983 C71 1.066 . S
C997 C100 1.073 . S
C1003 C680 1.073 . S
C1017 C738 1.047 . S
C1023 C158 1.047 . S
C1037 C187 1.047 . S
C1043 C303 1.047 . S
C1057 C216 1.069 . S
C1063 C564 1.069 . S
C1077 C245 1.060 . S
C1083 C361 1.060 . S
C1097 C622 1.050 . S
C1103 C274 1.050 . S
C1117 C912 1.044 . S
C1123 C332 1.044 . S
C1137 C506 1.073 . S
C1143 C390 1.073 . S
C1157 C796 1.061 . S
C1163 C448 1.061 . S
C1177 C593 1.055 . S
C1183 C477 1.055 . S
C1197 C883 1.072 . S
C1203 C535 1.072 . S
C1217 C651 1.044 . S
C1223 C767 1.044 . S
C1237 C709 1.078 . S
C1243 C825 1.078 . S
C1257 C5 1.939 . S
C1263 C189 1.929 . S
C1277 C34 1.932 1_545 S
C1283 C914 1.925 . S
C1297 C363 1.927 . S
C1303 C63 1.932 1_545 S
C1317 C624 1.925 . S
C1323 C92 1.932 . S
C1337 C73 1.932 . S
C1343 C121 1.935 . S
C1357 C150 1.934 1_565 S
C1363 C798 1.925 . S
C1377 C179 1.932 1_565 S
C1383 C247 1.926 . S
C1397 C208 1.938 . S
C1403 C508 1.927 . S
C1417 C237 1.936 . S
C1423 C421 1.925 . S
C1437 C266 1.933 . S
C1443 C682 1.929 . S
C1457 C131 1.925 . S
C1463 C295 1.935 . S
C1477 C324 1.935 . S
C1483 C856 1.932 . S
C1497 C353 1.939 . S
C1503 C305 1.936 . S
C1517 C382 1.933 . S
C1523 C566 1.929 . S
C1537 C411 1.932 . S
C1543 C15 1.927 . S
C1557 C440 1.936 . S
C1563 C740 1.933 . S
C1577 C653 1.929 . S
C1583 C469 1.933 . S
C1597 C498 1.942 1_545 S
C1603 C450 1.934 . S
C1617 C827 1.930 . S
C1623 C527 1.940 1_545 S
C1637 C160 1.936 . S
C1643 C556 1.938 . S
C1657 C585 1.938 . S
C1663 C537 1.935 . S
C1677 C334 1.936 . S
C1683 C614 1.941 1_565 S
C1697 C711 1.933 . S
C1703 C643 1.935 1_565 S
C1717 C44 1.925 . S
C1723 C672 1.933 . S
C1737 C885 1.927 . S
C1743 C701 1.938 . S
C1757 C730 1.932 . S
C1763 C218 1.928 . S
C1777 C595 1.926 . S
C1783 C759 1.932 . S
C1797 C392 1.925 . S
C1803 C788 1.935 . S
C1817 C769 1.925 . S
C1823 C817 1.932 . S
C1837 C102 1.925 . S
C1843 C846 1.935 . S
C1857 C875 1.935 . S
C1863 C479 1.925 . S
C1877 C904 1.938 . S
C1883 C276 1.935 . S
C1897 C293 0.688 . S
C1903 C3 0.674 . S
C1917 C322 0.664 . S
C1923 C32 0.680 . S
C1937 C235 0.699 . S
C1943 C61 0.691 . S
C1957 C264 0.649 . S
C1963 C90 0.643 . S
C1977 C409 0.688 . S
C1983 C119 0.698 . S
C1997 C148 0.700 . S
C2003 C438 0.694 . S
C2017 C351 0.643 . S
C2023 C177 0.651 . S
C2037 C206 0.697 . S
C2043 C380 0.701 . S
C2057 C467 0.698 . S
C2063 C757 0.700 . S
C2077 C496 0.651 . S
C2083 C786 0.665 . S
C2097 C699 0.676 . S
C2103 C525 0.661 . S
C2117 C728 0.700 . S
C2123 C554 0.693 . S
C2137 C873 0.693 . S
C2143 C583 0.679 . S
C2157 C902 0.700 . S
C2163 C612 0.694 . S
C2177 C815 0.643 . S
C2183 C641 0.644 . S
C2197 C670 0.643 . S
C2203 C844 0.646 . S
C2217 C21 1.124 . S
C2223 C50 1.116 . S
C2237 C79 1.120 . S
C2243 C108 1.110 . S
C2257 C137 1.113 . S
C2263 C166 1.106 . S
C2277 C195 1.113 . S
C2283 C224 1.106 . S
C2297 C253 1.119 . S
C2303 C282 1.124 . S
C2317 C340 1.124 . S
C2323 C311 1.116 . S
C2337 C398 1.116 . S
C2343 C369 1.124 . S
C2357 C456 1.113 . S
C2363 C427 1.106 . S
C2377 C514 1.115 . S
C2383 C485 1.124 . S
C2397 C572 1.112 . S
C2403 C543 1.122 . S
C2417 C601 1.124 . S
C2423 C630 1.122 . S
C2437 C659 1.111 . S
C2443 C688 1.121 . S
C2457 C717 1.115 . S
C2463 C746 1.106 . S
C2477 C804 1.115 . S
C2483 C775 1.106 . S
C2497 C862 1.108 . S
C2503 C833 1.106 . S
C2517 C920 1.122 . S
C2523 C891 1.112 . S
C2537 C66 1.404 . S
C2543 C8 1.398 . S
C2557 C37 1.394 . S
C2563 C95 1.401 . S
C2577 C124 1.411 . S
C2583 C182 1.408 . S
C2597 C211 1.398 . S
C2603 C153 1.405 . S
C2617 C240 1.399 . S
C2623 C298 1.392 . S
C2637 C327 1.409 . S
C2643 C269 1.405 . S
C2657 C356 1.366 . S
C2663 C414 1.365 . S
C2677 C385 1.405 . S
C2683 C443 1.399 . S
C2697 C472 1.406 . S
C2703 C530 1.410 . S
C2717 C501 1.366 . S
C2723 C559 1.365 . S
C2737 C646 1.369 . S
C2743 C588 1.375 . S
C2757 C675 1.388 . S
C2763 C617 1.395 . S
C2777 C704 1.388 . S
C2783 C762 1.396 . S
C2797 C733 1.411 . S
C2803 C791 1.408 . S
C2817 C878 1.369 . S
C2823 C820 1.375 . S
C2837 C907 1.404 . S
C2843 C849 1.409 . S
C2857 C10 2.213 . S
C2863 C97 2.207 . S
C2877 C39 2.207 . S
C2883 C68 2.213 . S
C2897 C213 2.213 . S
C2903 C126 2.207 . S
C2917 C155 2.207 . S
C2923 C184 2.213 . S
C2937 C242 2.213 . S
C2943 C329 2.208 . S
C2957 C300 2.208 . S
C2963 C271 2.203 . S
C2977 C445 2.203 . S
C2983 C358 2.208 . S
C2997 C387 2.209 . S
C3003 C416 2.213 . S
C3017 C561 2.212 . S
C3023 C474 2.205 . S
C3037 C503 2.203 . S
C3043 C532 2.209 . S
C3057 C590 2.207 . S
C3063 C677 2.203 . S
C3077 C619 2.205 . S
C3083 C648 2.212 . S
C3097 C706 2.212 . S
C3103 C793 2.205 . S
C3117 C735 2.213 . S
C3123 C764 2.208 . S
C3137 C822 2.207 . S
C3143 C909 2.213 . S
C3157 C851 2.211 . S
C3163 C880 2.204 . S
