# Generated by pormake.
# Topology ecf, (8)-cn, num edge types: 1
# Building blocks:
#     Node 0, Type 0, BuildingBlock: TAGTUT_clean_sbu_1, # of connection points: 8
#     Node 1, Type 0, BuildingBlock: TAGTUT_clean_sbu_1, # of connection points: 8
#     Node 2, Type 0, BuildingBlock: TAGTUT_clean_sbu_1, # of connection points: 8
#     Node 3, Type 0, BuildingBlock: TAGTUT_clean_sbu_1, # of connection points: 8
#     Node 4, Type 0, BuildingBlock: TAGTUT_clean_sbu_1, # of connection points: 8
#     Node 5, Type 0, BuildingBlock: TAGTUT_clean_sbu_1, # of connection points: 8
#     Edge 6, Type (0, 0), BuildingBlock: ZUJKAS_clean_linker_0, # of connection points: 2
#     Edge 7, Type (0, 0), BuildingBlock: ZUJKAS_clean_linker_0, # of connection points: 2
#     Edge 8, Type (0, 0), BuildingBlock: ZUJKAS_clean_linker_0, # of connection points: 2
#     Edge 9, Type (0, 0), BuildingBlock: ZUJKAS_clean_linker_0, # of connection points: 2
#     Edge 10, Type (0, 0), BuildingBlock: ZUJKAS_clean_linker_0, # of connection points: 2
#     Edge 11, Type (0, 0), BuildingBlock: ZUJKAS_clean_linker_0, # of connection points: 2
#     Edge 12, Type (0, 0), BuildingBlock: ZUJKAS_clean_linker_0, # of connection points: 2
#     Edge 13, Type (0, 0), BuildingBlock: ZUJKAS_clean_linker_0, # of connection points: 2
#     Edge 14, Type (0, 0), BuildingBlock: ZUJKAS_clean_linker_0, # of connection points: 2
#     Edge 15, Type (0, 0), BuildingBlock: ZUJKAS_clean_linker_0, # of connection points: 2
#     Edge 16, Type (0, 0), BuildingBlock: ZUJKAS_clean_linker_0, # of connection points: 2
#     Edge 17, Type (0, 0), BuildingBlock: ZUJKAS_clean_linker_0, # of connection points: 2
#     Edge 18, Type (0, 0), BuildingBlock: ZUJKAS_clean_linker_0, # of connection points: 2
#     Edge 19, Type (0, 0), BuildingBlock: ZUJKAS_clean_linker_0, # of connection points: 2
#     Edge 20, Type (0, 0), BuildingBlock: ZUJKAS_clean_linker_0, # of connection points: 2
#     Edge 21, Type (0, 0), BuildingBlock: ZUJKAS_clean_linker_0, # of connection points: 2
#     Edge 22, Type (0, 0), BuildingBlock: ZUJKAS_clean_linker_0, # of connection points: 2
#     Edge 23, Type (0, 0), BuildingBlock: ZUJKAS_clean_linker_0, # of connection points: 2
#     Edge 24, Type (0, 0), BuildingBlock: ZUJKAS_clean_linker_0, # of connection points: 2
#     Edge 25, Type (0, 0), BuildingBlock: ZUJKAS_clean_linker_0, # of connection points: 2
#     Edge 26, Type (0, 0), BuildingBlock: ZUJKAS_clean_linker_0, # of connection points: 2
#     Edge 27, Type (0, 0), BuildingBlock: ZUJKAS_clean_linker_0, # of connection points: 2
#     Edge 28, Type (0, 0), BuildingBlock: ZUJKAS_clean_linker_0, # of connection points: 2
#     Edge 29, Type (0, 0), BuildingBlock: ZUJKAS_clean_linker_0, # of connection points: 2
# Relax obj value: 0.205
# Max RMSD: 0.205
# Mean RMSD: 0.189
data_MOF--net-ecf--node1-TAGTUT_clean_sbu_1--edge1-ZUJKAS_clean_linker_0
_symmetry_space_group_name_H-M    P1
_symmetry_Int_Tables_number       1
_symmetry_cell_setting            triclinic
loop_
_symmetry_equiv_pos_as_xyz
'x, y, z'
_cell_length_a     42.145233
_cell_length_b     42.338415
_cell_length_c     34.921678
_cell_angle_alpha  95.824168
_cell_angle_beta   91.745385
_cell_angle_gamma 119.75515
loop_
_atom_site_label
_atom_site_type_symbol
_atom_site_fract_x
_atom_site_fract_y
_atom_site_fract_z
_atom_type_partial_charge
C0 C 0.0926 0.20687 0.19025 0.0
C1 C 0.1517 0.31528 0.16038 0.0
C2 C 0.27456 0.31662 0.19207 0.0
Mg3 Mg 0.13214 0.28453 0.23742 0.0
O4 O 0.17099 0.27512 0.23831 0.0
Mg5 Mg 0.18439 0.2615 0.18677 0.0
Mg6 Mg 0.21948 0.31798 0.25895 0.0
O7 O 0.26767 0.36138 0.27875 0.0
Mg8 Mg 0.31196 0.36147 0.27572 0.0
Mg9 Mg 0.25527 0.37536 0.33032 0.0
C10 C 0.16535 0.31932 0.32492 0.0
C11 C 0.21309 0.39155 0.26264 0.0
O12 O 0.12296 0.21262 0.17695 0.0
O13 O 0.09025 0.23027 0.21445 0.0
O14 O 0.16691 0.29581 0.154 0.0
O15 O 0.13862 0.31732 0.19236 0.0
O16 O 0.13856 0.30648 0.29835 0.0
O17 O 0.19678 0.32279 0.31774 0.0
C18 C 0.2218 0.24309 0.25778 0.0
O19 O 0.23201 0.27481 0.27642 0.0
O20 O 0.20387 0.23215 0.22414 0.0
O21 O 0.31314 0.42861 0.33521 0.0
O22 O 0.34837 0.41904 0.29383 0.0
O23 O 0.2794 0.34446 0.36112 0.0
C24 C 0.34308 0.44005 0.31861 0.0
O25 O 0.31323 0.33186 0.32095 0.0
O26 O 0.30346 0.33534 0.21601 0.0
C27 C 0.29934 0.33002 0.35317 0.0
O28 O 0.24297 0.31134 0.20126 0.0
O29 O 0.20494 0.36095 0.24249 0.0
O30 O 0.23137 0.40228 0.29589 0.0
C31 C 0.8976 0.3318 0.68746 0.0
C32 C 0.95913 0.27577 0.65292 0.0
C33 C 0.83675 0.15369 0.68483 0.0
Mg34 Mg 0.94529 0.30695 0.73093 0.0
O35 O 0.8995 0.26434 0.7296 0.0
Mg36 Mg 0.87079 0.24084 0.67791 0.0
Mg37 Mg 0.89514 0.21994 0.74963 0.0
O38 O 0.89093 0.1758 0.76997 0.0
Mg39 Mg 0.84542 0.13379 0.7691 0.0
Mg40 Mg 0.92152 0.1983 0.82064 0.0
C41 C 0.95377 0.28613 0.81531 0.0
C42 C 0.97336 0.2229 0.74896 0.0
O43 O 0.8771 0.29837 0.67134 0.0
O44 O 0.92489 0.34123 0.7123 0.0
O45 O 0.92412 0.25581 0.64537 0.0
O46 O 0.97329 0.29607 0.68536 0.0
O47 O 0.96457 0.30955 0.79096 0.0
O48 O 0.92595 0.25351 0.8071 0.0
C49 C 0.81523 0.21406 0.74671 0.0
O50 O 0.8389 0.20991 0.76635 0.0
O51 O 0.82118 0.22544 0.71346 0.0
O52 O 0.9138 0.13998 0.8268 0.0
O53 O 0.86579 0.09913 0.78439 0.0
O54 O 0.87088 0.18091 0.85645 0.0
C55 C 0.8922 0.10714 0.8097 0.0
O56 O 0.81967 0.14088 0.81892 0.0
O57 O 0.8252 0.13095 0.70982 0.0
C58 C 0.836 0.15917 0.8518 0.0
O59 O 0.86504 0.18599 0.69257 0.0
O60 O 0.95003 0.22848 0.73095 0.0
O61 O 0.9688 0.21255 0.78264 0.0
C62 C 0.55075 0.89923 0.19328 0.0
C63 C 0.66213 0.94734 0.15551 0.0
C64 C 0.65256 0.81987 0.18056 0.0
Mg65 Mg 0.62991 0.94024 0.23445 0.0
O66 O 0.62148 0.89242 0.23201 0.0
Mg67 Mg 0.60545 0.8618 0.1799 0.0
Mg68 Mg 0.66072 0.88217 0.24982 0.0
O69 O 0.69907 0.8711 0.26746 0.0
Mg70 Mg 0.68684 0.82202 0.26438 0.0
Mg71 Mg 0.71693 0.90211 0.31914 0.0
C72 C 0.67118 0.94673 0.3166 0.0
C73 C 0.74142 0.95455 0.25049 0.0
O74 O 0.55782 0.87522 0.17642 0.0
O75 O 0.5742 0.92633 0.21776 0.0
O76 O 0.64261 0.91226 0.14755 0.0
O77 O 0.66303 0.96379 0.18856 0.0
O78 O 0.65709 0.95906 0.29318 0.0
O79 O 0.67008 0.91584 0.30829 0.0
C80 C 0.58111 0.80765 0.24732 0.0
O81 O 0.61257 0.82913 0.26633 0.0
O82 O 0.57239 0.81428 0.21473 0.0
O83 O 0.76195 0.88446 0.32274 0.0
O84 O 0.74121 0.83339 0.27954 0.0
O85 O 0.68257 0.85333 0.3529 0.0
C86 C 0.76573 0.85848 0.30486 0.0
O87 O 0.65862 0.7999 0.31423 0.0
O88 O 0.66316 0.80444 0.20379 0.0
C89 C 0.66393 0.81816 0.34762 0.0
O90 O 0.65265 0.84975 0.19158 0.0
O91 O 0.70941 0.93439 0.2322 0.0
O92 O 0.74991 0.94787 0.28311 0.0
C93 C 0.9007 0.7697 0.68786 0.0
C94 C 0.83417 0.65688 0.63944 0.0
C95 C 0.71904 0.66472 0.67413 0.0
Mg96 Mg 0.86416 0.69551 0.72125 0.0
O97 O 0.82818 0.70905 0.72503 0.0
Mg98 Mg 0.80906 0.71774 0.67608 0.0
Mg99 Mg 0.78156 0.6713 0.74146 0.0
O100 O 0.73492 0.63272 0.75718 0.0
Mg101 Mg 0.69325 0.63772 0.75503 0.0
Mg102 Mg 0.75439 0.62836 0.80833 0.0
C103 C 0.84308 0.67662 0.80612 0.0
C104 C 0.7834 0.59474 0.7386 0.0
O105 O 0.86941 0.76474 0.67502 0.0
O106 O 0.90445 0.74671 0.70587 0.0
O107 O 0.82081 0.67804 0.63743 0.0
O108 O 0.84963 0.65601 0.67097 0.0
O109 O 0.86581 0.68273 0.78024 0.0
O110 O 0.8121 0.67503 0.79891 0.0
C111 C 0.78352 0.74957 0.75009 0.0
O112 O 0.77503 0.72032 0.76524 0.0
O113 O 0.79628 0.75443 0.71701 0.0
O114 O 0.69533 0.57975 0.81079 0.0
O115 O 0.65576 0.58531 0.77117 0.0
O116 O 0.73963 0.66939 0.84124 0.0
C117 C 0.6629 0.5677 0.79448 0.0
O118 O 0.70391 0.67927 0.8013 0.0
O119 O 0.69315 0.65149 0.69654 0.0
C120 C 0.72207 0.68594 0.83384 0.0
O121 O 0.75133 0.67038 0.68425 0.0
O122 O 0.78957 0.62185 0.72018 0.0
O123 O 0.7703 0.59164 0.77163 0.0
C124 C 0.0963 0.89783 0.24373 0.0
C125 C 0.1525 0.85767 0.16729 0.0
C126 C 0.04074 0.72579 0.17141 0.0
Mg127 Mg 0.14733 0.86532 0.25436 0.0
O128 O 0.10065 0.82377 0.24891 0.0
Mg129 Mg 0.06833 0.8129 0.20001 0.0
Mg130 Mg 0.09813 0.7763 0.2506 0.0
O131 O 0.09548 0.72848 0.25111 0.0
Mg132 Mg 0.04991 0.68541 0.23917 0.0
Mg133 Mg 0.12168 0.73883 0.30369 0.0
C134 C 0.15693 0.82792 0.32518 0.0
C135 C 0.17946 0.78578 0.24355 0.0
O136 O 0.07344 0.86988 0.21958 0.0
O137 O 0.12568 0.90116 0.25984 0.0
O138 O 0.11743 0.83978 0.16392 0.0
O139 O 0.17098 0.86827 0.20027 0.0
O140 O 0.16897 0.85579 0.30663 0.0
O141 O 0.12801 0.79694 0.31221 0.0
C142 C 0.01754 0.76605 0.26421 0.0
O143 O 0.04229 0.75873 0.27474 0.0
O144 O 0.02123 0.78523 0.23687 0.0
O145 O 0.11515 0.68078 0.289 0.0
O146 O 0.06875 0.64725 0.24239 0.0
O147 O 0.06702 0.71352 0.33319 0.0
C148 C 0.09516 0.65126 0.26533 0.0
O149 O 0.01984 0.68363 0.28742 0.0
O150 O 0.0314 0.69568 0.18523 0.0
C151 C 0.03245 0.69534 0.32273 0.0
O152 O 0.06629 0.75686 0.1892 0.0
O153 O 0.15622 0.79421 0.22989 0.0
O154 O 0.17218 0.76552 0.2707 0.0
C155 C 0.24071 0.13814 0.69189 0.0
C156 C 0.34926 0.1748 0.66522 0.0
C157 C 0.33215 0.04681 0.69058 0.0
Mg158 Mg 0.31501 0.1698 0.74192 0.0
O159 O 0.298 0.11946 0.7396 0.0
Mg160 Mg 0.28651 0.09125 0.68619 0.0
Mg161 Mg 0.33559 0.10886 0.7603 0.0
O162 O 0.37432 0.09946 0.78018 0.0
Mg163 Mg 0.36915 0.05252 0.77478 0.0
Mg164 Mg 0.38643 0.12786 0.8332 0.0
C165 C 0.33771 0.1689 0.82989 0.0
C166 C 0.41355 0.1857 0.77143 0.0
O167 O 0.24296 0.11014 0.67732 0.0
O168 O 0.26483 0.16308 0.71762 0.0
O169 O 0.32687 0.14035 0.65731 0.0
O170 O 0.35216 0.19214 0.69836 0.0
O171 O 0.33117 0.18528 0.80426 0.0
O172 O 0.33797 0.13873 0.82059 0.0
C173 C 0.25642 0.03539 0.75057 0.0
O174 O 0.2866 0.05486 0.77227 0.0
O175 O 0.25023 0.04397 0.71809 0.0
O176 O 0.43586 0.11732 0.83813 0.0
O177 O 0.42489 0.06948 0.79412 0.0
O178 O 0.34873 0.07534 0.85974 0.0
C179 C 0.44588 0.09594 0.82052 0.0
O180 O 0.33487 0.02527 0.81848 0.0
O181 O 0.34597 0.03438 0.71418 0.0
C182 C 0.33202 0.04045 0.85064 0.0
O183 O 0.33118 0.07655 0.70066 0.0
O184 O 0.38389 0.16453 0.74937 0.0
O185 O 0.42044 0.17747 0.80367 0.0
H186 H 0.14361 0.37084 0.23472 0.0
H187 H 0.11927 0.41154 0.22465 0.0
H188 H 0.2275 0.50565 0.2542 0.0
H189 H 0.2521 0.46499 0.26339 0.0
H190 H 0.15378 0.48468 0.30263 0.0
H191 H 0.15052 0.5021 0.14666 0.0
H192 H 0.14084 0.45877 0.16159 0.0
H193 H 0.18673 0.49702 0.16892 0.0
C194 C 0.16247 0.40002 0.23689 0.0
C195 C 0.19979 0.41484 0.24887 0.0
C196 C 0.1485 0.42323 0.23165 0.0
C197 C 0.17177 0.46138 0.23843 0.0
C198 C 0.20935 0.47618 0.24844 0.0
H199 H 0.15463 0.65247 0.30076 0.0
H200 H 0.17058 0.60421 0.29385 0.0
C201 C 0.22329 0.45304 0.25372 0.0
C202 C 0.15633 0.48581 0.24129 0.0
H203 H 0.13433 0.53747 0.18974 0.0
C204 C 0.14922 0.4961 0.27799 0.0
C205 C 0.15024 0.50007 0.20892 0.0
C206 C 0.15735 0.48907 0.16912 0.0
C207 C 0.13677 0.52118 0.28339 0.0
C208 C 0.13215 0.53681 0.25129 0.0
C209 C 0.13819 0.52557 0.2143 0.0
C210 C 0.12213 0.56569 0.25579 0.0
C211 C 0.12866 0.53066 0.32336 0.0
C212 C 0.08994 0.56013 0.23613 0.0
C213 C 0.08083 0.58772 0.23979 0.0
C214 C 0.10389 0.62141 0.26311 0.0
C215 C 0.13609 0.62676 0.28288 0.0
C216 C 0.14522 0.5992 0.27905 0.0
H217 H 0.12325 0.50891 0.34179 0.0
H218 H 0.15278 0.55655 0.33748 0.0
H219 H 0.10459 0.53474 0.3221 0.0
H220 H 0.07186 0.53444 0.21796 0.0
H221 H 0.05583 0.58268 0.22412 0.0
H222 H 0.47351 0.04993 0.8074 0.0
H223 H 0.5381 0.06727 0.80653 0.0
H224 H 0.57007 0.18021 0.84404 0.0
H225 H 0.50573 0.16277 0.84661 0.0
H226 H 0.58068 0.10823 0.75939 0.0
H227 H 0.64682 0.17426 0.9065 0.0
H228 H 0.59758 0.14751 0.89624 0.0
H229 H 0.62228 0.19503 0.88857 0.0
C230 C 0.49438 0.07828 0.81657 0.0
C231 C 0.48452 0.10497 0.82705 0.0
C232 C 0.5313 0.08819 0.81599 0.0
C233 C 0.55913 0.12505 0.82545 0.0
C234 C 0.54934 0.15147 0.83761 0.0
H235 H 0.76066 0.22416 0.71673 0.0
H236 H 0.69965 0.20269 0.73838 0.0
C237 C 0.51242 0.14146 0.83888 0.0
C238 C 0.59761 0.13645 0.81766 0.0
H239 H 0.6871 0.18986 0.8551 0.0
C240 C 0.60386 0.12565 0.7806 0.0
C241 C 0.62801 0.15885 0.84532 0.0
C242 C 0.6233 0.16922 0.88649 0.0
C243 C 0.63946 0.13749 0.77003 0.0
C244 C 0.66989 0.16197 0.79678 0.0
C245 C 0.66378 0.17171 0.83434 0.0
C246 C 0.70813 0.17784 0.78595 0.0
C247 C 0.644 0.12336 0.7303 0.0
C248 C 0.73395 0.17286 0.8068 0.0
C249 C 0.76921 0.18576 0.79489 0.0
C250 C 0.77924 0.20366 0.76175 0.0
C251 C 0.75377 0.20998 0.74199 0.0
C252 C 0.71873 0.1975 0.75419 0.0
H253 H 0.61932 0.09675 0.71864 0.0
H254 H 0.64778 0.14338 0.71019 0.0
H255 H 0.66826 0.11959 0.73072 0.0
H256 H 0.72654 0.15814 0.83168 0.0
H257 H 0.78825 0.18091 0.81115 0.0
H258 H 0.33202 0.49727 0.34166 0.0
H259 H 0.37376 0.56228 0.33733 0.0
H260 H 0.45785 0.5379 0.30422 0.0
H261 H 0.41587 0.47272 0.30712 0.0
H262 H 0.44164 0.61672 0.36835 0.0
H263 H 0.44354 0.58078 0.21161 0.0
H264 H 0.41271 0.54793 0.24094 0.0
H265 H 0.45972 0.55851 0.24122 0.0
C266 C 0.35965 0.50584 0.33421 0.0
C267 C 0.37049 0.47978 0.32417 0.0
C268 C 0.38346 0.54302 0.33167 0.0
C269 C 0.41856 0.55479 0.31936 0.0
C270 C 0.4305 0.52927 0.31262 0.0
H271 H 0.59009 0.78151 0.31318 0.0
H272 H 0.55034 0.72134 0.33264 0.0
C273 C 0.40656 0.49206 0.31455 0.0
C274 C 0.44151 0.59301 0.31077 0.0
H275 H 0.48417 0.64248 0.23827 0.0
C276 C 0.45091 0.62243 0.33991 0.0
C277 C 0.45288 0.60044 0.27338 0.0
C278 C 0.4414 0.57028 0.23988 0.0
C279 C 0.47187 0.65909 0.33282 0.0
C280 C 0.48449 0.66644 0.29583 0.0
C281 C 0.47473 0.63694 0.26669 0.0
C282 C 0.50762 0.7043 0.28615 0.0
C283 C 0.47944 0.68942 0.36475 0.0
C284 C 0.49731 0.71484 0.25324 0.0
C285 C 0.52066 0.74881 0.24131 0.0
C286 C 0.55485 0.77319 0.26216 0.0
C287 C 0.56438 0.76324 0.29605 0.0
C288 C 0.54129 0.72896 0.30761 0.0
H289 H 0.45865 0.6796 0.38606 0.0
H290 H 0.50668 0.69925 0.38039 0.0
H291 H 0.47968 0.71298 0.35311 0.0
H292 H 0.47144 0.69635 0.2362 0.0
H293 H 0.51218 0.75555 0.21523 0.0
H294 H 0.84222 0.32403 0.63658 0.0
H295 H 0.82244 0.36873 0.62923 0.0
H296 H 0.90953 0.44714 0.71452 0.0
H297 H 0.93002 0.4033 0.72127 0.0
H298 H 0.79626 0.39581 0.68213 0.0
H299 H 0.91816 0.5127 0.63597 0.0
H300 H 0.91354 0.46785 0.63467 0.0
H301 H 0.9304 0.49964 0.67878 0.0
C302 C 0.85764 0.35105 0.65321 0.0
C303 C 0.88776 0.35994 0.67954 0.0
C304 C 0.84626 0.37661 0.64897 0.0
C305 C 0.86479 0.41163 0.67085 0.0
C306 C 0.89535 0.4208 0.69644 0.0
H307 H 0.78623 0.54295 0.7764 0.0
H308 H 0.80326 0.49801 0.75282 0.0
C309 C 0.90687 0.39543 0.70052 0.0
C310 C 0.85009 0.43717 0.67026 0.0
H311 H 0.87622 0.5275 0.66909 0.0
C312 C 0.8136 0.42443 0.67848 0.0
C313 C 0.87228 0.47444 0.66475 0.0
C314 C 0.91063 0.48931 0.65261 0.0
C315 C 0.79959 0.44834 0.68397 0.0
C316 C 0.82289 0.48624 0.68214 0.0
C317 C 0.85852 0.49857 0.67119 0.0
C318 C 0.81196 0.51372 0.69534 0.0
C319 C 0.76009 0.43281 0.69254 0.0
C320 C 0.81213 0.53844 0.67121 0.0
C321 C 0.80244 0.56462 0.68478 0.0
C322 C 0.79284 0.56675 0.72284 0.0
C323 C 0.79302 0.54202 0.74679 0.0
C324 C 0.80263 0.51605 0.73329 0.0
H325 H 0.74311 0.40356 0.6797 0.0
H326 H 0.75866 0.43407 0.7243 0.0
H327 H 0.74804 0.44855 0.68132 0.0
H328 H 0.81952 0.53733 0.64187 0.0
H329 H 0.80229 0.58296 0.66545 0.0
H330 H 0.23308 0.77155 0.26587 0.0
H331 H 0.29538 0.79857 0.24757 0.0
H332 H 0.27358 0.86077 0.17114 0.0
H333 H 0.21001 0.83296 0.18899 0.0
H334 H 0.31563 0.8282 0.14028 0.0
H335 H 0.37385 0.90602 0.28599 0.0
H336 H 0.34242 0.85824 0.28772 0.0
H337 H 0.326 0.88625 0.2693 0.0
C338 C 0.24118 0.79086 0.24503 0.0
C339 C 0.21652 0.8006 0.22942 0.0
C340 C 0.27702 0.80641 0.23472 0.0
C341 C 0.28941 0.83233 0.20875 0.0
C342 C 0.26466 0.84112 0.19165 0.0
H343 H 0.52857 0.94944 0.2106 0.0
H344 H 0.46581 0.93842 0.20727 0.0
C345 C 0.22843 0.82536 0.20196 0.0
C346 C 0.32853 0.85023 0.20062 0.0
H347 H 0.41481 0.89581 0.24719 0.0
C348 C 0.33745 0.84359 0.16341 0.0
C349 C 0.35704 0.87095 0.2306 0.0
C350 C 0.34942 0.88115 0.27055 0.0
C351 C 0.37404 0.85516 0.15605 0.0
C352 C 0.40222 0.8731 0.18693 0.0
C353 C 0.39336 0.8817 0.22351 0.0
C354 C 0.44059 0.88121 0.18305 0.0
C355 C 0.38199 0.84776 0.11534 0.0
C356 C 0.44761 0.85296 0.16992 0.0
C357 C 0.48357 0.85932 0.17135 0.0
C358 C 0.5133 0.89389 0.18672 0.0
C359 C 0.50634 0.92244 0.19875 0.0
C360 C 0.47042 0.91618 0.19683 0.0
H361 H 0.36153 0.84697 0.09384 0.0
H362 H 0.40986 0.86891 0.10943 0.0
H363 H 0.38011 0.82053 0.11115 0.0
H364 H 0.42518 0.82546 0.16022 0.0
H365 H 0.48785 0.8366 0.16217 0.0
H366 H 0.48775 0.22002 0.77599 0.0
H367 H 0.52982 0.28609 0.77687 0.0
H368 H 0.43783 0.30124 0.75171 0.0
H369 H 0.39583 0.23574 0.75239 0.0
H370 H 0.51244 0.34338 0.71094 0.0
H371 H 0.51895 0.35507 0.8718 0.0
H372 H 0.52402 0.31904 0.84591 0.0
H373 H 0.48081 0.31754 0.84124 0.0
C374 C 0.47674 0.23736 0.76937 0.0
C375 C 0.43871 0.22275 0.7627 0.0
C376 C 0.50065 0.27491 0.76999 0.0
C377 C 0.4867 0.29816 0.76424 0.0
C378 C 0.44894 0.28342 0.7556 0.0
H379 H 0.58982 0.53433 0.7702 0.0
H380 H 0.54488 0.46891 0.76525 0.0
C381 C 0.42502 0.24591 0.75518 0.0
C382 C 0.51096 0.33816 0.77154 0.0
H383 H 0.55534 0.4092 0.84461 0.0
C384 C 0.52185 0.35794 0.74006 0.0
C385 C 0.52286 0.35663 0.80967 0.0
C386 C 0.51103 0.33619 0.84427 0.0
C387 C 0.54525 0.3961 0.74577 0.0
C388 C 0.5571 0.4147 0.78399 0.0
C389 C 0.54597 0.39479 0.81543 0.0
C390 C 0.58234 0.45468 0.79178 0.0
C391 C 0.55788 0.416 0.7109 0.0
C392 C 0.61739 0.46844 0.81063 0.0
C393 C 0.64301 0.50584 0.81399 0.0
C394 C 0.63392 0.52998 0.79839 0.0
C395 C 0.59785 0.51639 0.78205 0.0
C396 C 0.57221 0.47901 0.77893 0.0
H397 H 0.5535 0.39688 0.68441 0.0
H398 H 0.54203 0.42992 0.70571 0.0
H399 H 0.58745 0.43721 0.71568 0.0
H400 H 0.62549 0.45001 0.82112 0.0
H401 H 0.67048 0.5154 0.82688 0.0
H402 H 0.21043 0.23455 0.33287 0.0
H403 H 0.18553 0.17563 0.35793 0.0
H404 H 0.20943 0.1296 0.25453 0.0
H405 H 0.23281 0.18781 0.22861 0.0
H406 H 0.12319 0.11534 0.29461 0.0
H407 H 0.22471 0.08179 0.3549 0.0
H408 H 0.23201 0.12798 0.35997 0.0
H409 H 0.23815 0.10807 0.31494 0.0
C410 C 0.21209 0.2124 0.31637 0.0
C411 C 0.2229 0.21526 0.27857 0.0
C412 C 0.19776 0.17881 0.33071 0.0
C413 C 0.19552 0.14852 0.30785 0.0
C414 C 0.2112 0.15294 0.27254 0.0
H415 H 0.0906 0.94536 0.20094 0.0
H416 H 0.10189 0.00619 0.22781 0.0
C417 C 0.22457 0.18611 0.25777 0.0
C418 C 0.16954 0.11107 0.31508 0.0
H419 H 0.16741 0.03114 0.32506 0.0
C420 C 0.1324 0.0969 0.30264 0.0
C421 C 0.18183 0.08749 0.32561 0.0
C422 C 0.22133 0.10202 0.33993 0.0
C423 C 0.10794 0.05897 0.29651 0.0
C424 C 0.12119 0.03515 0.30326 0.0
C425 C 0.15736 0.0496 0.31973 0.0
C426 C 0.10091 0.99595 0.28745 0.0
C427 C 0.06892 0.04463 0.28044 0.0
C428 C 0.09462 0.96967 0.31199 0.0
C429 C 0.08827 0.93518 0.29665 0.0
C430 C 0.0882 0.92673 0.2567 0.0
C431 C 0.09008 0.95132 0.23175 0.0
C432 C 0.09648 0.98597 0.24715 0.0
H433 H 0.06001 0.06498 0.28806 0.0
H434 H 0.06701 0.03925 0.24844 0.0
H435 H 0.04984 0.01853 0.29131 0.0
H436 H 0.09817 0.977 0.3431 0.0
H437 H 0.08701 0.91641 0.31629 0.0
H438 H 0.03633 0.22921 0.78046 0.0
H439 H 0.07681 0.21211 0.74745 0.0
H440 H 0.01725 0.19587 0.63781 0.0
H441 H 0.97672 0.21356 0.67068 0.0
H442 H 0.04187 0.13864 0.70382 0.0
H443 H 0.12857 0.24884 0.61639 0.0
H444 H 0.10903 0.25858 0.65817 0.0
H445 H 0.07991 0.23193 0.61513 0.0
C446 C 0.03246 0.22306 0.74922 0.0
C447 C 0.00312 0.22232 0.72824 0.0
C448 C 0.05553 0.21319 0.7304 0.0
C449 C 0.04966 0.2023 0.69032 0.0
C450 C 0.02225 0.2043 0.66876 0.0
H451 H 0.1761 0.08871 0.6469 0.0
H452 H 0.12429 0.09796 0.63054 0.0
C453 C -0.00077 0.21454 0.68761 0.0
C454 C 0.06973 0.18499 0.67281 0.0
H455 H 0.14497 0.20413 0.62459 0.0
C456 C 0.0639 0.15234 0.68565 0.0
C457 C 0.09782 0.20273 0.64859 0.0
C458 C 0.10449 0.2375 0.63362 0.0
C459 C 0.08793 0.13901 0.67844 0.0
C460 C 0.11821 0.15863 0.65717 0.0
C461 C 0.12171 0.18917 0.64088 0.0
C462 C 0.15056 0.15366 0.66001 0.0
C463 C 0.08275 0.10621 0.69693 0.0
C464 C 0.18282 0.18224 0.68055 0.0
C465 C 0.21209 0.17714 0.68974 0.0
C466 C 0.20997 0.14319 0.67871 0.0
C467 C 0.17839 0.11501 0.65624 0.0
C468 C 0.14882 0.12024 0.6469 0.0
H469 H 0.05962 0.0963 0.71549 0.0
H470 H 0.077 0.08336 0.67407 0.0
H471 H 0.10813 0.11319 0.7149 0.0
H472 H 0.18481 0.20821 0.69108 0.0
H473 H 0.23615 0.1998 0.70644 0.0
H474 H 0.06179 0.14146 0.21811 0.0
H475 H 0.99659 0.09437 0.2082 0.0
H476 H 0.97911 0.15237 0.1228 0.0
H477 H 0.04428 0.19955 0.13302 0.0
H478 H 0.93703 0.14368 0.1829 0.0
H479 H 0.92343 0.01002 0.1276 0.0
H480 H 0.95776 0.03363 0.16782 0.0
H481 H 0.96403 0.05333 0.1234 0.0
C482 C 0.0443 0.14305 0.19591 0.0
C483 C 0.05791 0.17351 0.17573 0.0
C484 C 0.00706 0.11622 0.19026 0.0
C485 C 0.98298 0.11965 0.16446 0.0
C486 C 0.99721 0.14897 0.14252 0.0
H487 H 0.7473 0.96068 0.17317 0.0
H488 H 0.80238 0.00298 0.14371 0.0
C489 C 0.03442 0.17572 0.14815 0.0
C490 C 0.9427 0.0965 0.16551 0.0
H491 H 0.8741 0.00767 0.16355 0.0
C492 C 0.92307 0.11393 0.17773 0.0
C493 C 0.92432 0.05774 0.15843 0.0
C494 C 0.9434 0.03758 0.14319 0.0
C495 C 0.88636 0.09362 0.1858 0.0
C496 C 0.86896 0.05496 0.18178 0.0
C497 C 0.88763 0.0374 0.16682 0.0
C498 C 0.83382 0.03277 0.1983 0.0
C499 C 0.86692 0.11366 0.20022 0.0
C500 C 0.83312 0.03618 0.23857 0.0
C501 C 0.80206 0.01207 0.25538 0.0
C502 C 0.77096 0.9841 0.23223 0.0
C503 C 0.77081 0.98208 0.19173 0.0
C504 C 0.80226 0.00603 0.17487 0.0
H505 H 0.8797 0.14162 0.1915 0.0
H506 H 0.83744 0.09817 0.18913 0.0
H507 H 0.86866 0.11653 0.23228 0.0
H508 H 0.8573 0.05643 0.25714 0.0
H509 H 0.80296 0.01441 0.28663 0.0
H510 H 0.88334 0.08494 0.88074 0.0
H511 H 0.86757 0.02328 0.89481 0.0
H512 H 0.8876 -0.00308 0.77878 0.0
H513 H 0.90228 0.05785 0.76448 0.0
H514 H 0.80607 0.96053 0.84566 0.0
H515 H 0.93284 0.95157 0.849 0.0
H516 H 0.93329 0.99445 0.86047 0.0
H517 H 0.92876 0.97523 0.81091 0.0
C518 C 0.88593 0.06645 0.85893 0.0
C519 C 0.89453 0.07607 0.82174 0.0
C520 C 0.87666 0.03124 0.86687 0.0
C521 C 0.87676 0.00573 0.83793 0.0
C522 C 0.888 0.01643 0.8017 0.0
H523 H 0.77249 0.80167 0.72341 0.0
H524 H 0.78949 0.86166 0.75831 0.0
C525 C 0.89647 0.0512 0.79355 0.0
C526 C 0.85971 0.96641 0.8426 0.0
H527 H 0.87586 0.89494 0.82864 0.0
C528 C 0.82141 0.94619 0.84324 0.0
C529 C 0.87976 0.94781 0.83963 0.0
C530 C 0.92101 0.96839 0.84032 0.0
C531 C 0.80237 0.90764 0.83722 0.0
C532 C 0.82219 0.88913 0.83058 0.0
C533 C 0.86071 0.90928 0.83367 0.0
C534 C 0.80381 0.85022 0.81318 0.0
C535 C 0.76106 0.88693 0.83545 0.0
C536 C 0.80489 0.82348 0.83296 0.0
C537 C 0.79449 0.7888 0.81314 0.0
C538 C 0.78397 0.781 0.77314 0.0
C539 C 0.78055 0.807 0.75419 0.0
C540 C 0.79019 0.84124 0.77411 0.0
H541 H 0.75055 0.90377 0.85058 0.0
H542 H 0.74955 0.87951 0.80475 0.0
H543 H 0.75106 0.86113 0.84849 0.0
H544 H 0.81555 0.83007 0.86308 0.0
H545 H 0.7976 0.7693 0.82839 0.0
H546 H 0.80459 0.87673 0.37605 0.0
H547 H 0.84779 0.85666 0.3956 0.0
H548 H 0.83984 0.80927 0.27797 0.0
H549 H 0.79705 0.82887 0.25843 0.0
H550 H 0.82261 0.76035 0.34225 0.0
H551 H 0.95734 0.89094 0.36403 0.0
H552 H 0.91685 0.88862 0.38268 0.0
H553 H 0.92077 0.88661 0.33165 0.0
C554 C 0.81295 0.86295 0.35428 0.0
C555 C 0.79746 0.85429 0.31573 0.0
C556 C 0.8373 0.85124 0.36553 0.0
C557 C 0.84653 0.83113 0.33824 0.0
C558 C 0.8327 0.82443 0.29949 0.0
H559 H 0.94725 0.74042 0.23698 0.0
H560 H 0.90158 0.74717 0.27227 0.0
C561 C 0.80843 0.83584 0.28834 0.0
C562 C 0.86926 0.81523 0.34913 0.0
H563 H 0.95837 0.83566 0.35327 0.0
C564 C 0.85234 0.77682 0.34604 0.0
C565 C 0.90788 0.83676 0.35465 0.0
C566 C 0.92708 0.87807 0.35856 0.0
C567 C 0.87318 0.75929 0.34413 0.0
C568 C 0.91172 0.78075 0.34483 0.0
C569 C 0.92874 0.8192 0.35263 0.0
C570 C 0.93361 0.76521 0.32788 0.0
C571 C 0.85366 0.71794 0.33827 0.0
C572 C 0.96604 0.77126 0.34775 0.0
C573 C 0.99206 0.76681 0.32749 0.0
C574 C 0.98618 0.75723 0.28712 0.0
C575 C 0.95227 0.74773 0.2681 0.0
C576 C 0.9261 0.75147 0.28836 0.0
H577 H 0.82811 0.70629 0.35322 0.0
H578 H 0.84576 0.70785 0.30695 0.0
H579 H 0.87145 0.70765 0.34905 0.0
H580 H 0.97241 0.78207 0.37819 0.0
H581 H 0.0182 0.77452 0.34269 0.0
H582 H 0.2195 0.96606 0.71463 0.0
H583 H 0.15555 0.92219 0.72225 0.0
H584 H 0.15839 0.99265 0.82221 0.0
H585 H 0.22308 0.03633 0.81524 0.0
H586 H 0.10753 0.88868 0.79247 0.0
H587 H 0.09494 0.99461 0.72088 0.0
H588 H 0.13611 0.9916 0.71889 0.0
H589 H 0.12595 0.00761 0.76376 0.0
C590 C 0.20704 0.97106 0.7395 0.0
C591 C 0.22571 0.00423 0.76435 0.0
C592 C 0.1706 0.94617 0.74377 0.0
C593 C 0.15246 0.95468 0.77244 0.0
C594 C 0.17223 0.98583 0.80002 0.0
H595 H 0.91278 0.83599 0.72006 0.0
H596 H 0.97373 0.88752 0.74505 0.0
C597 C 0.20906 0.01052 0.79615 0.0
C598 C 0.11222 0.93507 0.76759 0.0
H599 H 0.0431 0.93545 0.71449 0.0
C600 C 0.09308 0.89916 0.7765 0.0
C601 C 0.09371 0.94912 0.74678 0.0
C602 C 0.11351 0.98784 0.73687 0.0
C603 C 0.05618 0.87593 0.76276 0.0
C604 C 0.03873 0.88886 0.73864 0.0
C605 C 0.05694 0.92567 0.73249 0.0
C606 C 0.00306 0.86333 0.71675 0.0
C607 C 0.03668 0.83722 0.77267 0.0
C608 C -2e-05 0.83458 0.6902 0.0
C609 C 0.96551 0.8054 0.67604 0.0
C610 C 0.93388 0.80512 0.68773 0.0
C611 C 0.93698 0.83609 0.71027 0.0
C612 C 0.97163 0.8652 0.72493 0.0
H613 H 0.0493 0.83524 0.80007 0.0
H614 H 0.00713 0.82733 0.77548 0.0
H615 H 0.03882 0.81873 0.7493 0.0
H616 H 0.02417 0.83328 0.68296 0.0
H617 H 0.96355 0.78154 0.65895 0.0
H618 H 0.33813 0.32543 0.16509 0.0
H619 H 0.34683 0.29718 0.10544 0.0
H620 H 0.23015 0.23916 0.07341 0.0
H621 H 0.22119 0.26864 0.13293 0.0
H622 H 0.32441 0.22777 0.07941 0.0
H623 H 0.26754 0.28247 0.97613 0.0
H624 H 0.27646 0.29877 0.0272 0.0
H625 H 0.23584 0.25604 0.00895 0.0
C626 C 0.31408 0.30684 0.14547 0.0
C627 C 0.27878 0.29937 0.15436 0.0
C628 C 0.31922 0.29051 0.1112 0.0
C629 C 0.28931 0.26609 0.08449 0.0
C630 C 0.25389 0.25837 0.09308 0.0
H631 H 0.31407 0.12967 0.89133 0.0
H632 H 0.3022 0.15101 0.95432 0.0
C633 C 0.24871 0.27506 0.12746 0.0
C634 C 0.29587 0.24899 0.04812 0.0
H635 H 0.28602 0.24135 0.94946 0.0
C636 C 0.3159 0.23067 0.05098 0.0
C637 C 0.28522 0.253 0.01088 0.0
C638 C 0.26538 0.27391 0.00542 0.0
C639 C 0.32595 0.21685 0.01799 0.0
C640 C 0.31499 0.22056 0.98075 0.0
C641 C 0.29447 0.23836 0.97788 0.0
C642 C 0.32557 0.2077 0.94432 0.0
C643 C 0.34942 0.19967 0.02352 0.0
C644 C 0.34305 0.23225 0.91757 0.0
C645 C 0.34949 0.22001 0.88147 0.0
C646 C 0.33886 0.18286 0.8711 0.0
C647 C 0.32323 0.15858 0.89862 0.0
C648 C 0.31633 0.1708 0.93471 0.0
H649 H 0.36394 0.2082 0.05305 0.0
H650 H 0.33166 0.16935 0.01952 0.0
H651 H 0.37014 0.20713 0.00215 0.0
H652 H 0.35073 0.26085 0.92415 0.0
H653 H 0.3615 0.23944 0.86097 0.0
H654 H 0.94129 0.24274 0.57699 0.0
H655 H 0.9832 0.25118 0.52673 0.0
H656 H 0.07582 0.32111 0.61011 0.0
H657 H 0.03439 0.313 0.66034 0.0
H658 H 0.07744 0.35261 0.54329 0.0
H659 H 0.05398 0.21174 0.50658 0.0
H660 H 0.0126 0.21418 0.50558 0.0
H661 H 0.04039 0.22612 0.55053 0.0
C662 C 0.97058 0.25951 0.58481 0.0
C663 C 0.98426 0.27738 0.62283 0.0
C664 C 0.99459 0.26421 0.556 0.0
C665 C 0.03281 0.28672 0.56455 0.0
C666 C 0.04652 0.30368 0.60267 0.0
H667 H 0.18921 0.30561 0.39228 0.0
H668 H 0.16184 0.3007 0.45431 0.0
C669 C 0.02264 0.29895 0.63144 0.0
C670 C 0.05833 0.29467 0.5334 0.0
H671 H 0.08621 0.25435 0.4626 0.0
C672 C 0.07955 0.33112 0.52589 0.0
C673 C 0.06172 0.26686 0.511 0.0
C674 C 0.04126 0.22756 0.51897 0.0
C675 C 0.10279 0.34026 0.49577 0.0
C676 C 0.10476 0.3122 0.47206 0.0
C677 C 0.08469 0.27593 0.48054 0.0
C678 C 0.12502 0.31945 0.43658 0.0
C679 C 0.12495 0.37996 0.48949 0.0
C680 C 0.1142 0.33245 0.40625 0.0
C681 C 0.12976 0.33528 0.37103 0.0
C682 C 0.15668 0.32529 0.3651 0.0
C683 C 0.16904 0.31415 0.39612 0.0
C684 C 0.15308 0.31092 0.43143 0.0
H685 H 0.12936 0.39873 0.51631 0.0
H686 H 0.15208 0.38645 0.47961 0.0
H687 H 0.10985 0.38544 0.46696 0.0
H688 H 0.09232 0.3387 0.40908 0.0
H689 H 0.11936 0.34362 0.34765 0.0
H690 H 0.70749 0.02186 0.1634 0.0
H691 H 0.73611 0.06013 0.11299 0.0
H692 H 0.69214 0.96357 0.02842 0.0
H693 H 0.66316 0.92469 0.07887 0.0
H694 H 0.76842 0.01861 0.02348 0.0
H695 H 0.67649 0.07765 0.02868 0.0
H696 H 0.69882 0.08033 0.07457 0.0
H697 H 0.66594 0.03625 0.04887 0.0
C698 C 0.70388 0.00855 0.13415 0.0
C699 C 0.68249 0.97006 0.12522 0.0
C700 C 0.72021 0.03061 0.1053 0.0
C701 C 0.71562 0.01481 0.0668 0.0
C702 C 0.69572 0.97637 0.05791 0.0
H703 H 0.76173 0.11504 0.8549 0.0
H704 H 0.73174 0.08208 0.90865 0.0
C705 C 0.6792 0.95418 0.08681 0.0
C706 C 0.73134 0.03859 0.03592 0.0
H707 H 0.7266 0.10424 0.99039 0.0
C708 C 0.75925 0.03727 0.01619 0.0
C709 C 0.7191 0.06272 0.02618 0.0
C710 C 0.68822 0.06426 0.04538 0.0
C711 C 0.77573 0.05993 0.98753 0.0
C712 C 0.76418 0.08477 0.97854 0.0
C713 C 0.73575 0.08555 0.99768 0.0
C714 C 0.78082 0.10928 0.94848 0.0
C715 C 0.80512 0.05683 0.96668 0.0
C716 C 0.81783 0.13711 0.95377 0.0
C717 C 0.83503 0.15632 0.92324 0.0
C718 C 0.8156 0.14784 0.88662 0.0
C719 C 0.77767 0.12218 0.88254 0.0
C720 C 0.76046 0.10315 0.91321 0.0
H721 H 0.80571 0.03156 0.97141 0.0
H722 H 0.80085 0.05675 0.93512 0.0
H723 H 0.83233 0.08089 0.97749 0.0
H724 H 0.8339 0.14274 0.981 0.0
H725 H 0.86421 0.17586 0.92764 0.0
H726 H 0.76725 0.70696 0.62327 0.0
H727 H 0.7529 0.73042 0.56805 0.0
H728 H 0.63792 0.66994 0.58532 0.0
H729 H 0.65204 0.64773 0.64122 0.0
H730 H 0.71181 0.69956 0.50025 0.0
H731 H 0.65225 0.77091 0.58641 0.0
H732 H 0.67705 0.75187 0.60848 0.0
H733 H 0.62952 0.72281 0.59041 0.0
C734 C 0.73898 0.6988 0.61562 0.0
C735 C 0.71106 0.6762 0.63768 0.0
C736 C 0.73074 0.71216 0.5838 0.0
C737 C 0.69438 0.70294 0.57316 0.0
C738 C 0.66631 0.67864 0.5937 0.0
H739 H 0.62872 0.74358 0.35035 0.0
H740 H 0.63183 0.71336 0.40536 0.0
C741 C 0.67453 0.66571 0.62564 0.0
C742 C 0.68564 0.7187 0.5408 0.0
H743 H 0.64294 0.76607 0.51806 0.0
C744 C 0.69682 0.71416 0.50417 0.0
C745 C 0.66651 0.73829 0.54593 0.0
C746 C 0.65598 0.74663 0.58501 0.0
C747 C 0.68919 0.72831 0.47258 0.0
C748 C 0.6688 0.74664 0.47737 0.0
C749 C 0.6579 0.75144 0.51409 0.0
C750 C 0.66107 0.76355 0.44547 0.0
C751 C 0.70419 0.72453 0.43476 0.0
C752 C 0.67357 0.80136 0.45041 0.0
C753 C 0.67108 0.81862 0.41928 0.0
C754 C 0.65625 0.7985 0.38227 0.0
C755 C 0.64072 0.76008 0.37824 0.0
C756 C 0.64295 0.74278 0.40959 0.0
H757 H 0.72688 0.71858 0.4387 0.0
H758 H 0.682 0.70144 0.4148 0.0
H759 H 0.71454 0.74992 0.4209 0.0
H760 H 0.68717 0.81799 0.47789 0.0
H761 H 0.68317 0.84818 0.42375 0.0
H762 H 0.82356 0.69654 0.87497 0.0
H763 H 0.85488 0.70786 0.9396 0.0
H764 H 0.92265 0.6667 0.89207 0.0
H765 H 0.89241 0.65645 0.82762 0.0
H766 H 0.8659 0.66831 0.98833 0.0
H767 H -2e-05 0.76713 0.94198 0.0
H768 H 0.95752 0.74931 0.91199 0.0
H769 H 0.98056 0.72313 0.9131 0.0
C770 C 0.84468 0.68929 0.87846 0.0
C771 C 0.85577 0.67597 0.84607 0.0
C772 C 0.86277 0.69602 0.91539 0.0
C773 C 0.8921 0.68939 0.92059 0.0
C774 C 0.90113 0.6734 0.8887 0.0
H775 H 0.98742 0.66393 0.12702 0.0
H776 H 0.95158 0.65862 0.06859 0.0
C777 C 0.88348 0.66713 0.85186 0.0
C778 C 0.91381 0.69963 0.95895 0.0
H779 H 0.00175 0.74522 0.00226 0.0
C780 C 0.89556 0.68541 0.99142 0.0
C781 C 0.95252 0.72285 0.96351 0.0
C782 C 0.97374 0.74182 0.93087 0.0
C783 C 0.91501 0.69224 0.02765 0.0
C784 C 0.95394 0.71307 0.03141 0.0
C785 C 0.97203 0.72878 0.99943 0.0
C786 C 0.97636 0.71711 0.06751 0.0
C787 C 0.89348 0.67714 0.06155 0.0
C788 C 0.00377 0.75184 0.08582 0.0
C789 C 0.02511 0.75507 0.11935 0.0
C790 C 0.01944 0.7236 0.13526 0.0
C791 C 0.99243 0.68895 0.11623 0.0
C792 C 0.97148 0.68578 0.08278 0.0
H793 H 0.86572 0.67395 0.05779 0.0
H794 H 0.88981 0.64956 0.06363 0.0
H795 H 0.90784 0.69515 0.08913 0.0
H796 H 0.00854 0.77649 0.07431 0.0
H797 H 0.04588 0.78214 0.13269 0.0
H798 H 0.29227 0.05633 0.63228 0.0
H799 H 0.25938 0.01442 0.57303 0.0
H800 H 0.30095 0.94412 0.60139 0.0
H801 H 0.33212 0.98451 0.66119 0.0
H802 H 0.28017 0.99255 0.51099 0.0
H803 H 0.19508 0.86908 0.57996 0.0
H804 H 0.22163 0.9141 0.60743 0.0
H805 H 0.2429 0.88728 0.59368 0.0
C806 C 0.294 0.03174 0.62636 0.0
C807 C 0.31424 0.02363 0.65245 0.0
C808 C 0.27526 0.00776 0.59219 0.0
C809 C 0.27653 0.97524 0.58311 0.0
C810 C 0.29811 0.96806 0.60823 0.0
H811 H 0.22931 0.86028 0.34933 0.0
H812 H 0.25798 0.89296 0.41382 0.0
C813 C 0.31637 0.99164 0.64245 0.0
C814 C 0.25656 0.94943 0.54688 0.0
H815 H 0.19934 0.85866 0.51193 0.0
C816 C 0.26231 0.96333 0.51133 0.0
C817 C 0.23251 0.91124 0.54701 0.0
C818 C 0.22233 0.89463 0.58412 0.0
C819 C 0.24571 0.94023 0.47611 0.0
C820 C 0.22364 0.90172 0.47606 0.0
C821 C 0.21691 0.88794 0.51168 0.0
C822 C 0.20666 0.87573 0.43934 0.0
C823 C 0.25143 0.95764 0.4394 0.0
C824 C 0.16839 0.85205 0.43299 0.0
C825 C 0.15201 0.83211 0.39634 0.0
C826 C 0.17361 0.83573 0.36539 0.0
C827 C 0.21202 0.85676 0.37273 0.0
C828 C 0.22837 0.87607 0.40943 0.0
H829 H 0.25884 0.9869 0.44535 0.0
H830 H 0.27434 0.95677 0.42548 0.0
H831 H 0.22641 0.94291 0.4187 0.0
H832 H 0.15096 0.85086 0.45562 0.0
H833 H 0.12233 0.81671 0.39136 0.0
H834 H 0.68872 0.72664 0.82758 0.0
H835 H 0.67477 0.7589 0.88026 0.0
H836 H 0.7358 0.73488 0.96225 0.0
H837 H 0.74978 0.70218 0.90979 0.0
H838 H 0.63498 0.71763 0.94202 0.0
H839 H 0.76586 0.84542 0.9952 0.0
H840 H 0.75723 0.8217 0.94664 0.0
H841 H 0.76921 0.80461 0.98635 0.0
C842 C 0.69978 0.7287 0.85672 0.0
C843 C 0.71977 0.71118 0.86461 0.0
C844 C 0.69182 0.74725 0.8867 0.0
C845 C 0.70421 0.7491 0.92493 0.0
C846 C 0.72629 0.73392 0.93275 0.0
H847 H 0.63814 0.75251 0.14671 0.0
H848 H 0.64342 0.7361 0.07908 0.0
C849 C 0.73412 0.71514 0.90277 0.0
C850 C 0.69027 0.76257 0.957 0.0
H851 H 0.71803 0.82559 0.03762 0.0
C852 C 0.65293 0.74162 0.96262 0.0
C853 C 0.71377 0.79399 0.9834 0.0
C854 C 0.75372 0.818 0.97757 0.0
C855 C 0.63888 0.75013 0.99542 0.0
C856 C 0.66287 0.78021 0.02306 0.0
C857 C 0.69974 0.80244 0.01628 0.0
C858 C 0.65158 0.78687 0.06115 0.0
C859 C 0.5988 0.72636 1.00087 0.0
C860 C 0.65323 0.82031 0.07297 0.0
C861 C 0.64999 0.82967 0.11155 0.0
C862 C 0.64581 0.80598 0.13893 0.0
C863 C 0.64148 0.77136 0.12633 0.0
C864 C 0.64435 0.76189 0.08768 0.0
H865 H 0.58234 0.71099 0.97299 0.0
H866 H 0.59575 0.70609 0.02039 0.0
H867 H 0.58749 0.74313 0.01432 0.0
H868 H 0.65897 0.83994 0.05282 0.0
H869 H 0.65366 0.85662 0.12033 0.0
H870 H 0.95959 0.67269 0.31122 0.0
H871 H 0.91468 0.65414 0.35905 0.0
H872 H -0.0001 0.67915 0.44818 0.0
H873 H 0.04527 0.69789 0.40056 0.0
H874 H 0.92742 0.60324 0.43874 0.0
H875 H 0.91223 0.72744 0.45094 0.0
H876 H 0.91257 0.70615 0.40373 0.0
H877 H 0.95362 0.72898 0.43611 0.0
C878 C 0.96886 0.6743 0.34101 0.0
C879 C 0.00596 0.68656 0.35215 0.0
C880 C 0.94315 0.66372 0.3682 0.0
C881 C 0.95412 0.66512 0.40685 0.0
C882 C 0.99109 0.67776 0.41828 0.0
H883 H 0.88195 0.63193 0.62684 0.0
H884 H 0.9027 0.62312 0.56462 0.0
C885 C 0.01693 0.68865 0.39115 0.0
C886 C 0.92704 0.65358 0.43559 0.0
H887 H 0.87982 0.68324 0.49143 0.0
C888 C 0.91661 0.62043 0.45012 0.0
C889 C 0.91269 0.67587 0.4496 0.0
C890 C 0.92326 0.7117 0.43456 0.0
C891 C 0.8928 0.60942 0.47945 0.0
C892 C 0.88007 0.63276 0.49516 0.0
C893 C 0.8894 0.6652 0.47929 0.0
C894 C 0.86099 0.62698 0.53093 0.0
C895 C 0.88181 0.5731 0.49338 0.0
C896 C 0.82969 0.63057 0.53278 0.0
C897 C 0.81825 0.63645 0.56853 0.0
C898 C 0.83787 0.63866 0.60293 0.0
C899 C 0.86633 0.63051 0.60086 0.0
C900 C 0.87812 0.62521 0.56513 0.0
H901 H 0.88093 0.55303 0.46964 0.0
H902 H 0.90256 0.57713 0.51659 0.0
H903 H 0.85456 0.56126 0.50499 0.0
H904 H 0.81593 0.63179 0.50672 0.0
H905 H 0.79588 0.64216 0.56923 0.0
H906 H 0.32159 0.97334 0.86134 0.0
H907 H 0.29118 0.93753 0.91303 0.0
H908 H 0.26232 0.01859 0.95515 0.0
H909 H 0.29459 0.0555 0.90477 0.0
H910 H 0.28952 0.0026 0.01203 0.0
H911 H 0.18627 0.87155 0.92583 0.0
H912 H 0.23205 0.88432 0.91492 0.0
H913 H 0.21309 0.91268 0.90417 0.0
C914 C 0.30829 0.9832 0.88135 0.0
C915 C 0.31036 0.0171 0.87917 0.0
C916 C 0.29072 0.96261 0.91072 0.0
C917 C 0.2739 0.97502 0.93762 0.0
C918 C 0.2751 0.00845 0.93472 0.0
H919 H 0.12201 0.85374 0.09588 0.0
H920 H 0.15364 0.88042 0.04048 0.0
C921 C 0.29345 0.02948 0.90595 0.0
C922 C 0.25717 0.95456 0.97033 0.0
H923 H 0.19501 0.87044 0.99333 0.0
C924 C 0.26867 0.97373 0.00791 0.0
C925 C 0.22986 0.91694 0.96492 0.0
C926 C 0.21432 0.89529 0.92525 0.0
C927 C 0.25328 0.95661 0.0402 0.0
C928 C 0.22685 0.91869 0.03493 0.0
C929 C 0.21568 0.89936 0.99738 0.0
C930 C 0.20808 0.89938 0.06757 0.0
C931 C 0.26443 0.97985 0.07929 0.0
C932 C 0.22804 0.90005 0.1009 0.0
C933 C 0.21004 0.88561 0.13321 0.0
C934 C 0.17165 0.86917 0.13218 0.0
C935 C 0.15161 0.86628 0.09777 0.0
C936 C 0.16967 0.88147 0.06593 0.0
H937 H 0.27674 0.00951 0.07664 0.0
H938 H 0.24058 0.97172 0.09665 0.0
H939 H 0.28535 0.97629 0.09528 0.0
H940 H 0.25762 0.91266 0.10236 0.0
H941 H 0.22627 0.88815 0.15918 0.0
H942 H 0.35591 0.14799 0.59334 0.0
H943 H 0.36131 0.17689 0.53506 0.0
H944 H 0.38257 0.27671 0.60471 0.0
H945 H 0.37798 0.24836 0.66314 0.0
H946 H 0.30866 0.19468 0.52157 0.0
H947 H 0.4458 0.31633 0.51653 0.0
H948 H 0.43822 0.28093 0.54601 0.0
H949 H 0.428 0.31626 0.56258 0.0
C950 C 0.36328 0.17661 0.59639 0.0
C951 C 0.36564 0.19561 0.63278 0.0
C952 C 0.36631 0.19306 0.56301 0.0
C953 C 0.37194 0.22878 0.56553 0.0
C954 C 0.3786 0.24925 0.60207 0.0
H955 H 0.27248 0.31604 0.42388 0.0
H956 H 0.29073 0.28986 0.47368 0.0
C957 C 0.37584 0.23289 0.63554 0.0
C958 C 0.36343 0.24163 0.53089 0.0
H959 H 0.39545 0.31385 0.47895 0.0
C960 C 0.32788 0.22047 0.51188 0.0
C961 C 0.38845 0.27528 0.51837 0.0
C962 C 0.42737 0.29835 0.53671 0.0
C963 C 0.31627 0.23262 0.48148 0.0
C964 C 0.3407 0.26702 0.4702 0.0
C965 C 0.37668 0.28765 0.48816 0.0
C966 C 0.32916 0.28211 0.43995 0.0
C967 C 0.27789 0.20873 0.46181 0.0
C968 C 0.34477 0.28628 0.40471 0.0
C969 C 0.33433 0.30101 0.37621 0.0
C970 C 0.30836 0.31223 0.38265 0.0
C971 C 0.29253 0.3077 0.418 0.0
C972 C 0.30288 0.29273 0.44643 0.0
H973 H 0.26543 0.17997 0.46815 0.0
H974 H 0.26031 0.21987 0.47221 0.0
H975 H 0.2779 0.20864 0.42999 0.0
H976 H 0.36505 0.27815 0.39928 0.0
H977 H 0.34715 0.30413 0.34937 0.0
H978 H 0.10513 0.34262 0.15661 0.0
H979 H 0.07822 0.34968 0.09756 0.0
H980 H 0.15325 0.3306 0.03137 0.0
H981 H 0.17971 0.32236 0.09012 0.0
H982 H 0.09816 0.3882 0.03316 0.0
H983 H 0.0523 0.24013 0.99566 0.0
H984 H 0.07364 0.26507 0.0428 0.0
H985 H 0.10121 0.26959 0.00315 0.0
C986 C 0.11665 0.3409 0.12969 0.0
C987 C 0.14371 0.33068 0.12778 0.0
C988 C 0.10125 0.34504 0.09597 0.0
C989 C 0.113 0.33944 0.06011 0.0
C990 C 0.14322 0.33404 0.05879 0.0
H991 H 0.02342 0.34346 0.83483 0.0
H992 H 0.0616 0.35867 0.89522 0.0
C993 C 0.15835 0.32943 0.09239 0.0
C994 C 0.09023 0.3336 0.02424 0.0
H995 H 0.0359 0.26772 0.94969 0.0
C996 C 0.08461 0.36196 0.01474 0.0
C997 C 0.07183 0.29894 1.001 0.0
C998 C 0.07467 0.26654 0.01126 0.0
C999 C 0.06133 0.35668 0.98213 0.0
C1000 C 0.04392 0.32236 0.95824 0.0
C1001 C 0.04941 0.29402 0.96799 0.0
C1002 C 0.01988 0.3149 0.92279 0.0
C1003 C 0.05492 0.38753 0.97414 0.0
C1004 C 0.98397 0.28474 0.91795 0.0
C1005 C 0.96223 0.27553 0.88317 0.0
C1006 C 0.97604 0.29641 0.85268 0.0
C1007 C 0.01183 0.32697 0.85788 0.0
C1008 C 0.03364 0.33593 0.8925 0.0
H1009 H 0.06113 0.40727 1.00064 0.0
H1010 H 0.07329 0.40278 0.95241 0.0
H1011 H 0.0261 0.37686 0.96246 0.0
H1012 H 0.97292 0.26803 0.94096 0.0
H1013 H 0.93471 0.25202 0.88016 0.0
H1014 H 0.76871 0.09526 0.66281 0.0
H1015 H 0.74243 0.06608 0.59717 0.0
H1016 H 0.83531 0.1529 0.55189 0.0
H1017 H 0.8624 0.18221 0.61793 0.0
H1018 H 0.72361 0.08863 0.53232 0.0
H1019 H 0.83693 0.05878 0.51058 0.0
H1020 H 0.82934 0.07466 0.55746 0.0
H1021 H 0.8506 0.10632 0.52325 0.0
C1022 C 0.7834 0.1085 0.63894 0.0
C1023 C 0.81793 0.14069 0.64548 0.0
C1024 C 0.76827 0.09181 0.60147 0.0
C1025 C 0.78739 0.10695 0.56991 0.0
C1026 C 0.82059 0.14051 0.57609 0.0
H1027 H 0.69473 0.01942 0.33358 0.0
H1028 H 0.72461 0.05889 0.39432 0.0
C1029 C 0.83581 0.15735 0.61374 0.0
C1030 C 0.77327 0.08599 0.531 0.0
H1031 H 0.79051 0.0371 0.4592 0.0
C1032 C 0.73831 0.07759 0.51612 0.0
C1033 C 0.79233 0.07105 0.51056 0.0
C1034 C 0.82925 0.07781 0.52628 0.0
C1035 C 0.72172 0.05446 0.48124 0.0
C1036 C 0.74101 0.04 0.4605 0.0
C1037 C 0.776 0.04843 0.47528 0.0
C1038 C 0.72525 0.01635 0.42315 0.0
C1039 C 0.68332 0.0449 0.4674 0.0
C1040 C 0.71709 0.97967 0.41893 0.0
C1041 C 0.7001 0.95686 0.38398 0.0
C1042 C 0.69111 0.97059 0.35299 0.0
C1043 C 0.70064 0.00775 0.35711 0.0
C1044 C 0.7177 0.03042 0.39179 0.0
H1045 H 0.66903 0.05042 0.49113 0.0
H1046 H 0.68473 0.06185 0.44456 0.0
H1047 H 0.66665 0.01555 0.45488 0.0
H1048 H 0.72306 0.96853 0.44293 0.0
H1049 H 0.69322 0.92842 0.38158 0.0
loop_
_geom_bond_atom_site_label_1
_geom_bond_atom_site_label_2
_geom_bond_distance
_geom_bond_site_symmetry_2
_ccdc_geom_bond_type
C0 O12 1.241 . S
C0 O13 1.280 . S
C1 O14 1.277 . S
C1 O15 1.245 . S
C2 O26 1.247 . S
C2 O28 1.289 . S
Mg3 O4 1.926 . S
Mg3 O13 1.984 . S
Mg3 O15 1.988 . S
Mg3 O16 2.061 . S
O4 Mg3 1.926 . S
O4 Mg5 1.986 . S
O4 Mg6 1.917 . S
Mg5 O4 1.986 . S
Mg5 O12 2.042 . S
Mg5 O14 2.041 . S
Mg5 O20 2.038 . S
Mg5 O28 2.238 . S
Mg6 O4 1.917 . S
Mg6 O7 1.917 . S
Mg6 O17 2.106 . S
Mg6 O19 2.079 . S
Mg6 O28 2.106 . S
Mg6 O29 2.079 . S
O7 Mg6 1.917 . S
O7 Mg8 1.926 . S
O7 Mg9 1.986 . S
Mg8 O7 1.926 . S
Mg8 O22 1.984 . S
Mg8 O25 1.988 . S
Mg8 O26 2.061 . S
Mg9 O7 1.986 . S
Mg9 O17 2.238 . S
Mg9 O21 2.042 . S
Mg9 O23 2.041 . S
Mg9 O30 2.038 . S
C10 O16 1.247 . S
C10 O17 1.289 . S
C11 O29 1.245 . S
C11 O30 1.274 . S
O12 C0 1.241 . S
O12 Mg5 2.042 . S
O13 C0 1.280 . S
O13 Mg3 1.984 . S
O14 C1 1.277 . S
O14 Mg5 2.041 . S
O15 C1 1.245 . S
O15 Mg3 1.988 . S
O16 Mg3 2.061 . S
O16 C10 1.247 . S
O17 Mg6 2.106 . S
O17 Mg9 2.238 . S
O17 C10 1.289 . S
C18 O19 1.245 . S
C18 O20 1.274 . S
O19 Mg6 2.079 . S
O19 C18 1.245 . S
O20 Mg5 2.038 . S
O20 C18 1.274 . S
O21 Mg9 2.042 . S
O21 C24 1.241 . S
O22 Mg8 1.984 . S
O22 C24 1.280 . S
O23 Mg9 2.041 . S
O23 C27 1.277 . S
C24 O21 1.241 . S
C24 O22 1.280 . S
O25 Mg8 1.988 . S
O25 C27 1.245 . S
O26 C2 1.247 . S
O26 Mg8 2.061 . S
C27 O23 1.277 . S
C27 O25 1.245 . S
O28 C2 1.289 . S
O28 Mg5 2.238 . S
O28 Mg6 2.106 . S
O29 Mg6 2.079 . S
O29 C11 1.245 . S
O30 Mg9 2.038 . S
O30 C11 1.274 . S
C31 O43 1.241 . S
C31 O44 1.280 . S
C32 O45 1.277 . S
C32 O46 1.245 . S
C33 O57 1.247 . S
C33 O59 1.289 . S
Mg34 O35 1.926 . S
Mg34 O44 1.984 . S
Mg34 O46 1.988 . S
Mg34 O47 2.061 . S
O35 Mg34 1.926 . S
O35 Mg36 1.986 . S
O35 Mg37 1.917 . S
Mg36 O35 1.986 . S
Mg36 O43 2.042 . S
Mg36 O45 2.041 . S
Mg36 O51 2.038 . S
Mg36 O59 2.238 . S
Mg37 O35 1.917 . S
Mg37 O38 1.917 . S
Mg37 O48 2.106 . S
Mg37 O50 2.079 . S
Mg37 O59 2.106 . S
Mg37 O60 2.079 . S
O38 Mg37 1.917 . S
O38 Mg39 1.926 . S
O38 Mg40 1.986 . S
Mg39 O38 1.926 . S
Mg39 O53 1.984 . S
Mg39 O56 1.988 . S
Mg39 O57 2.061 . S
Mg40 O38 1.986 . S
Mg40 O48 2.238 . S
Mg40 O52 2.042 . S
Mg40 O54 2.041 . S
Mg40 O61 2.038 . S
C41 O47 1.247 . S
C41 O48 1.289 . S
C42 O60 1.245 . S
C42 O61 1.274 . S
O43 C31 1.241 . S
O43 Mg36 2.042 . S
O44 C31 1.280 . S
O44 Mg34 1.984 . S
O45 C32 1.277 . S
O45 Mg36 2.041 . S
O46 C32 1.245 . S
O46 Mg34 1.988 . S
O47 Mg34 2.061 . S
O47 C41 1.247 . S
O48 Mg37 2.106 . S
O48 Mg40 2.238 . S
O48 C41 1.289 . S
C49 O50 1.245 . S
C49 O51 1.274 . S
O50 Mg37 2.079 . S
O50 C49 1.245 . S
O51 Mg36 2.038 . S
O51 C49 1.274 . S
O52 Mg40 2.042 . S
O52 C55 1.241 . S
O53 Mg39 1.984 . S
O53 C55 1.280 . S
O54 Mg40 2.041 . S
O54 C58 1.277 . S
C55 O52 1.241 . S
C55 O53 1.280 . S
O56 Mg39 1.988 . S
O56 C58 1.245 . S
O57 C33 1.247 . S
O57 Mg39 2.061 . S
C58 O54 1.277 . S
C58 O56 1.245 . S
O59 C33 1.289 . S
O59 Mg36 2.238 . S
O59 Mg37 2.106 . S
O60 Mg37 2.079 . S
O60 C42 1.245 . S
O61 Mg40 2.038 . S
O61 C42 1.274 . S
C62 O74 1.241 . S
C62 O75 1.280 . S
C63 O76 1.277 . S
C63 O77 1.245 . S
C64 O88 1.247 . S
C64 O90 1.289 . S
Mg65 O66 1.926 . S
Mg65 O75 1.984 . S
Mg65 O77 1.988 . S
Mg65 O78 2.061 . S
O66 Mg65 1.926 . S
O66 Mg67 1.986 . S
O66 Mg68 1.917 . S
Mg67 O66 1.986 . S
Mg67 O74 2.042 . S
Mg67 O76 2.041 . S
Mg67 O82 2.038 . S
Mg67 O90 2.238 . S
Mg68 O66 1.917 . S
Mg68 O69 1.917 . S
Mg68 O79 2.106 . S
Mg68 O81 2.079 . S
Mg68 O90 2.106 . S
Mg68 O91 2.079 . S
O69 Mg68 1.917 . S
O69 Mg70 1.926 . S
O69 Mg71 1.986 . S
Mg70 O69 1.926 . S
Mg70 O84 1.984 . S
Mg70 O87 1.988 . S
Mg70 O88 2.061 . S
Mg71 O69 1.986 . S
Mg71 O79 2.238 . S
Mg71 O83 2.042 . S
Mg71 O85 2.041 . S
Mg71 O92 2.038 . S
C72 O78 1.247 . S
C72 O79 1.289 . S
C73 O91 1.245 . S
C73 O92 1.274 . S
O74 C62 1.241 . S
O74 Mg67 2.042 . S
O75 C62 1.280 . S
O75 Mg65 1.984 . S
O76 C63 1.277 . S
O76 Mg67 2.041 . S
O77 C63 1.245 . S
O77 Mg65 1.988 . S
O78 Mg65 2.061 . S
O78 C72 1.247 . S
O79 Mg68 2.106 . S
O79 Mg71 2.238 . S
O79 C72 1.289 . S
C80 O81 1.245 . S
C80 O82 1.274 . S
O81 Mg68 2.079 . S
O81 C80 1.245 . S
O82 Mg67 2.038 . S
O82 C80 1.274 . S
O83 Mg71 2.042 . S
O83 C86 1.241 . S
O84 Mg70 1.984 . S
O84 C86 1.280 . S
O85 Mg71 2.041 . S
O85 C89 1.277 . S
C86 O83 1.241 . S
C86 O84 1.280 . S
O87 Mg70 1.988 . S
O87 C89 1.245 . S
O88 C64 1.247 . S
O88 Mg70 2.061 . S
C89 O85 1.277 . S
C89 O87 1.245 . S
O90 C64 1.289 . S
O90 Mg67 2.238 . S
O90 Mg68 2.106 . S
O91 Mg68 2.079 . S
O91 C73 1.245 . S
O92 Mg71 2.038 . S
O92 C73 1.274 . S
C93 O105 1.241 . S
C93 O106 1.280 . S
C94 O107 1.277 . S
C94 O108 1.245 . S
C95 O119 1.247 . S
C95 O121 1.289 . S
Mg96 O97 1.926 . S
Mg96 O106 1.984 . S
Mg96 O108 1.988 . S
Mg96 O109 2.061 . S
O97 Mg96 1.926 . S
O97 Mg98 1.986 . S
O97 Mg99 1.917 . S
Mg98 O97 1.986 . S
Mg98 O105 2.042 . S
Mg98 O107 2.041 . S
Mg98 O113 2.038 . S
Mg98 O121 2.238 . S
Mg99 O97 1.917 . S
Mg99 O100 1.917 . S
Mg99 O110 2.106 . S
Mg99 O112 2.079 . S
Mg99 O121 2.106 . S
Mg99 O122 2.079 . S
O100 Mg99 1.917 . S
O100 Mg101 1.926 . S
O100 Mg102 1.986 . S
Mg101 O100 1.926 . S
Mg101 O115 1.984 . S
Mg101 O118 1.988 . S
Mg101 O119 2.061 . S
Mg102 O100 1.986 . S
Mg102 O110 2.238 . S
Mg102 O114 2.042 . S
Mg102 O116 2.041 . S
Mg102 O123 2.038 . S
C103 O109 1.247 . S
C103 O110 1.289 . S
C104 O122 1.245 . S
C104 O123 1.274 . S
O105 C93 1.241 . S
O105 Mg98 2.042 . S
O106 C93 1.280 . S
O106 Mg96 1.984 . S
O107 C94 1.277 . S
O107 Mg98 2.041 . S
O108 C94 1.245 . S
O108 Mg96 1.988 . S
O109 Mg96 2.061 . S
O109 C103 1.247 . S
O110 Mg99 2.106 . S
O110 Mg102 2.238 . S
O110 C103 1.289 . S
C111 O112 1.245 . S
C111 O113 1.274 . S
O112 Mg99 2.079 . S
O112 C111 1.245 . S
O113 Mg98 2.038 . S
O113 C111 1.274 . S
O114 Mg102 2.042 . S
O114 C117 1.241 . S
O115 Mg101 1.984 . S
O115 C117 1.280 . S
O116 Mg102 2.041 . S
O116 C120 1.277 . S
C117 O114 1.241 . S
C117 O115 1.280 . S
O118 Mg101 1.988 . S
O118 C120 1.245 . S
O119 C95 1.247 . S
O119 Mg101 2.061 . S
C120 O116 1.277 . S
C120 O118 1.245 . S
O121 C95 1.289 . S
O121 Mg98 2.238 . S
O121 Mg99 2.106 . S
O122 Mg99 2.079 . S
O122 C104 1.245 . S
O123 Mg102 2.038 . S
O123 C104 1.274 . S
C124 O136 1.241 . S
C124 O137 1.280 . S
C125 O138 1.277 . S
C125 O139 1.245 . S
C126 O150 1.247 . S
C126 O152 1.289 . S
Mg127 O128 1.926 . S
Mg127 O137 1.984 . S
Mg127 O139 1.988 . S
Mg127 O140 2.061 . S
O128 Mg127 1.926 . S
O128 Mg129 1.986 . S
O128 Mg130 1.917 . S
Mg129 O128 1.986 . S
Mg129 O136 2.042 . S
Mg129 O138 2.041 . S
Mg129 O144 2.038 . S
Mg129 O152 2.238 . S
Mg130 O128 1.917 . S
Mg130 O131 1.917 . S
Mg130 O141 2.106 . S
Mg130 O143 2.079 . S
Mg130 O152 2.106 . S
Mg130 O153 2.079 . S
O131 Mg130 1.917 . S
O131 Mg132 1.926 . S
O131 Mg133 1.986 . S
Mg132 O131 1.926 . S
Mg132 O146 1.984 . S
Mg132 O149 1.988 . S
Mg132 O150 2.061 . S
Mg133 O131 1.986 . S
Mg133 O141 2.238 . S
Mg133 O145 2.042 . S
Mg133 O147 2.041 . S
Mg133 O154 2.038 . S
C134 O140 1.247 . S
C134 O141 1.289 . S
C135 O153 1.245 . S
C135 O154 1.274 . S
O136 C124 1.241 . S
O136 Mg129 2.042 . S
O137 C124 1.280 . S
O137 Mg127 1.984 . S
O138 C125 1.277 . S
O138 Mg129 2.041 . S
O139 C125 1.245 . S
O139 Mg127 1.988 . S
O140 Mg127 2.061 . S
O140 C134 1.247 . S
O141 Mg130 2.106 . S
O141 Mg133 2.238 . S
O141 C134 1.289 . S
C142 O143 1.245 . S
C142 O144 1.274 . S
O143 Mg130 2.079 . S
O143 C142 1.245 . S
O144 Mg129 2.038 . S
O144 C142 1.274 . S
O145 Mg133 2.042 . S
O145 C148 1.241 . S
O146 Mg132 1.984 . S
O146 C148 1.280 . S
O147 Mg133 2.041 . S
O147 C151 1.277 . S
C148 O145 1.241 . S
C148 O146 1.280 . S
O149 Mg132 1.988 . S
O149 C151 1.245 . S
O150 C126 1.247 . S
O150 Mg132 2.061 . S
C151 O147 1.277 . S
C151 O149 1.245 . S
O152 C126 1.289 . S
O152 Mg129 2.238 . S
O152 Mg130 2.106 . S
O153 Mg130 2.079 . S
O153 C135 1.245 . S
O154 Mg133 2.038 . S
O154 C135 1.274 . S
C155 O167 1.241 . S
C155 O168 1.280 . S
C156 O169 1.277 . S
C156 O170 1.245 . S
C157 O181 1.247 . S
C157 O183 1.289 . S
Mg158 O159 1.926 . S
Mg158 O168 1.984 . S
Mg158 O170 1.988 . S
Mg158 O171 2.061 . S
O159 Mg158 1.926 . S
O159 Mg160 1.986 . S
O159 Mg161 1.917 . S
Mg160 O159 1.986 . S
Mg160 O167 2.042 . S
Mg160 O169 2.041 . S
Mg160 O175 2.038 . S
Mg160 O183 2.238 . S
Mg161 O159 1.917 . S
Mg161 O162 1.917 . S
Mg161 O172 2.106 . S
Mg161 O174 2.079 . S
Mg161 O183 2.106 . S
Mg161 O184 2.079 . S
O162 Mg161 1.917 . S
O162 Mg163 1.926 . S
O162 Mg164 1.986 . S
Mg163 O162 1.926 . S
Mg163 O177 1.984 . S
Mg163 O180 1.988 . S
Mg163 O181 2.061 . S
Mg164 O162 1.986 . S
Mg164 O172 2.238 . S
Mg164 O176 2.042 . S
Mg164 O178 2.041 . S
Mg164 O185 2.038 . S
C165 O171 1.247 . S
C165 O172 1.289 . S
C166 O184 1.245 . S
C166 O185 1.274 . S
O167 C155 1.241 . S
O167 Mg160 2.042 . S
O168 C155 1.280 . S
O168 Mg158 1.984 . S
O169 C156 1.277 . S
O169 Mg160 2.041 . S
O170 C156 1.245 . S
O170 Mg158 1.988 . S
O171 Mg158 2.061 . S
O171 C165 1.247 . S
O172 Mg161 2.106 . S
O172 Mg164 2.238 . S
O172 C165 1.289 . S
C173 O174 1.245 . S
C173 O175 1.274 . S
O174 Mg161 2.079 . S
O174 C173 1.245 . S
O175 Mg160 2.038 . S
O175 C173 1.274 . S
O176 Mg164 2.042 . S
O176 C179 1.241 . S
O177 Mg163 1.984 . S
O177 C179 1.280 . S
O178 Mg164 2.041 . S
O178 C182 1.277 . S
C179 O176 1.241 . S
C179 O177 1.280 . S
O180 Mg163 1.988 . S
O180 C182 1.245 . S
O181 C157 1.247 . S
O181 Mg163 2.061 . S
C182 O178 1.277 . S
C182 O180 1.245 . S
O183 C157 1.289 . S
O183 Mg160 2.238 . S
O183 Mg161 2.106 . S
O184 Mg161 2.079 . S
O184 C166 1.245 . S
O185 Mg164 2.038 . S
O185 C166 1.274 . S
H186 C194 0.929 . S
H187 C196 0.930 . S
H188 C198 0.930 . S
H189 C201 0.929 . S
H190 C204 0.930 . S
H191 C206 0.960 . S
H192 C206 0.960 . S
H193 C206 0.960 . S
C194 H186 0.929 . S
C194 C195 1.377 . S
C194 C196 1.384 . S
C195 C194 1.377 . S
C195 C201 1.390 . S
C196 H187 0.930 . S
C196 C194 1.384 . S
C196 C197 1.372 . S
C197 C196 1.372 . S
C197 C198 1.400 . S
C197 C202 1.490 . S
C198 H188 0.930 . S
C198 C197 1.400 . S
C198 C201 1.386 . S
H199 C215 0.930 . S
H200 C216 0.931 . S
C201 H189 0.929 . S
C201 C195 1.390 . S
C201 C198 1.386 . S
C202 C197 1.490 . S
C202 C204 1.395 . S
C202 C205 1.403 . S
H203 C209 0.930 . S
C204 H190 0.930 . S
C204 C202 1.395 . S
C204 C207 1.403 . S
C205 C202 1.403 . S
C205 C206 1.524 . S
C205 C209 1.400 . S
C206 H191 0.960 . S
C206 H192 0.960 . S
C206 H193 0.960 . S
C206 C205 1.524 . S
C207 C204 1.403 . S
C207 C208 1.392 . S
C207 C211 1.495 . S
C208 C207 1.392 . S
C208 C209 1.385 . S
C208 C210 1.478 . S
C209 H203 0.930 . S
C209 C205 1.400 . S
C209 C208 1.385 . S
C210 C208 1.478 . S
C210 C212 1.381 . S
C210 C216 1.383 . S
C211 C207 1.495 . S
C211 H217 0.959 . S
C211 H218 0.961 . S
C211 H219 0.960 . S
C212 C210 1.381 . S
C212 C213 1.394 . S
C212 H220 0.930 . S
C213 C212 1.394 . S
C213 C214 1.383 . S
C213 H221 0.929 . S
C214 C213 1.383 . S
C214 C215 1.377 . S
C215 H199 0.930 . S
C215 C214 1.377 . S
C215 C216 1.379 . S
C216 H200 0.931 . S
C216 C210 1.383 . S
C216 C215 1.379 . S
H217 C211 0.959 . S
H218 C211 0.961 . S
H219 C211 0.960 . S
H220 C212 0.930 . S
H221 C213 0.929 . S
H222 C230 0.929 . S
H223 C232 0.930 . S
H224 C234 0.930 . S
H225 C237 0.929 . S
H226 C240 0.930 . S
H227 C242 0.960 . S
H228 C242 0.960 . S
H229 C242 0.960 . S
C230 H222 0.929 . S
C230 C231 1.377 . S
C230 C232 1.384 . S
C231 C230 1.377 . S
C231 C237 1.390 . S
C232 H223 0.930 . S
C232 C230 1.384 . S
C232 C233 1.372 . S
C233 C232 1.372 . S
C233 C234 1.400 . S
C233 C238 1.490 . S
C234 H224 0.930 . S
C234 C233 1.400 . S
C234 C237 1.386 . S
H235 C251 0.930 . S
H236 C252 0.931 . S
C237 H225 0.929 . S
C237 C231 1.390 . S
C237 C234 1.386 . S
C238 C233 1.490 . S
C238 C240 1.395 . S
C238 C241 1.403 . S
H239 C245 0.930 . S
C240 H226 0.930 . S
C240 C238 1.395 . S
C240 C243 1.403 . S
C241 C238 1.403 . S
C241 C242 1.524 . S
C241 C245 1.400 . S
C242 H227 0.960 . S
C242 H228 0.960 . S
C242 H229 0.960 . S
C242 C241 1.524 . S
C243 C240 1.403 . S
C243 C244 1.392 . S
C243 C247 1.495 . S
C244 C243 1.392 . S
C244 C245 1.385 . S
C244 C246 1.478 . S
C245 H239 0.930 . S
C245 C241 1.400 . S
C245 C244 1.385 . S
C246 C244 1.478 . S
C246 C248 1.381 . S
C246 C252 1.383 . S
C247 C243 1.495 . S
C247 H253 0.959 . S
C247 H254 0.961 . S
C247 H255 0.960 . S
C248 C246 1.381 . S
C248 C249 1.394 . S
C248 H256 0.930 . S
C249 C248 1.394 . S
C249 C250 1.383 . S
C249 H257 0.929 . S
C250 C249 1.383 . S
C250 C251 1.377 . S
C251 H235 0.930 . S
C251 C250 1.377 . S
C251 C252 1.379 . S
C252 H236 0.931 . S
C252 C246 1.383 . S
C252 C251 1.379 . S
H253 C247 0.959 . S
H254 C247 0.961 . S
H255 C247 0.960 . S
H256 C248 0.930 . S
H257 C249 0.929 . S
H258 C266 0.929 . S
H259 C268 0.930 . S
H260 C270 0.930 . S
H261 C273 0.929 . S
H262 C276 0.930 . S
H263 C278 0.960 . S
H264 C278 0.960 . S
H265 C278 0.960 . S
C266 H258 0.929 . S
C266 C267 1.377 . S
C266 C268 1.384 . S
C267 C266 1.377 . S
C267 C273 1.390 . S
C268 H259 0.930 . S
C268 C266 1.384 . S
C268 C269 1.372 . S
C269 C268 1.372 . S
C269 C270 1.400 . S
C269 C274 1.490 . S
C270 H260 0.930 . S
C270 C269 1.400 . S
C270 C273 1.386 . S
H271 C287 0.930 . S
H272 C288 0.931 . S
C273 H261 0.929 . S
C273 C267 1.390 . S
C273 C270 1.386 . S
C274 C269 1.490 . S
C274 C276 1.395 . S
C274 C277 1.403 . S
H275 C281 0.930 . S
C276 H262 0.930 . S
C276 C274 1.395 . S
C276 C279 1.403 . S
C277 C274 1.403 . S
C277 C278 1.524 . S
C277 C281 1.400 . S
C278 H263 0.960 . S
C278 H264 0.960 . S
C278 H265 0.960 . S
C278 C277 1.524 . S
C279 C276 1.403 . S
C279 C280 1.392 . S
C279 C283 1.495 . S
C280 C279 1.392 . S
C280 C281 1.385 . S
C280 C282 1.478 . S
C281 H275 0.930 . S
C281 C277 1.400 . S
C281 C280 1.385 . S
C282 C280 1.478 . S
C282 C284 1.381 . S
C282 C288 1.383 . S
C283 C279 1.495 . S
C283 H289 0.959 . S
C283 H290 0.961 . S
C283 H291 0.960 . S
C284 C282 1.381 . S
C284 C285 1.394 . S
C284 H292 0.930 . S
C285 C284 1.394 . S
C285 C286 1.383 . S
C285 H293 0.929 . S
C286 C285 1.383 . S
C286 C287 1.377 . S
C287 H271 0.930 . S
C287 C286 1.377 . S
C287 C288 1.379 . S
C288 H272 0.931 . S
C288 C282 1.383 . S
C288 C287 1.379 . S
H289 C283 0.959 . S
H290 C283 0.961 . S
H291 C283 0.960 . S
H292 C284 0.930 . S
H293 C285 0.929 . S
H294 C302 0.929 . S
H295 C304 0.930 . S
H296 C306 0.930 . S
H297 C309 0.929 . S
H298 C312 0.930 . S
H299 C314 0.960 . S
H300 C314 0.960 . S
H301 C314 0.960 . S
C302 H294 0.929 . S
C302 C303 1.377 . S
C302 C304 1.384 . S
C303 C302 1.377 . S
C303 C309 1.390 . S
C304 H295 0.930 . S
C304 C302 1.384 . S
C304 C305 1.372 . S
C305 C304 1.372 . S
C305 C306 1.400 . S
C305 C310 1.490 . S
C306 H296 0.930 . S
C306 C305 1.400 . S
C306 C309 1.386 . S
H307 C323 0.930 . S
H308 C324 0.931 . S
C309 H297 0.929 . S
C309 C303 1.390 . S
C309 C306 1.386 . S
C310 C305 1.490 . S
C310 C312 1.395 . S
C310 C313 1.403 . S
H311 C317 0.930 . S
C312 H298 0.930 . S
C312 C310 1.395 . S
C312 C315 1.403 . S
C313 C310 1.403 . S
C313 C314 1.524 . S
C313 C317 1.400 . S
C314 H299 0.960 . S
C314 H300 0.960 . S
C314 H301 0.960 . S
C314 C313 1.524 . S
C315 C312 1.403 . S
C315 C316 1.392 . S
C315 C319 1.495 . S
C316 C315 1.392 . S
C316 C317 1.385 . S
C316 C318 1.478 . S
C317 H311 0.930 . S
C317 C313 1.400 . S
C317 C316 1.385 . S
C318 C316 1.478 . S
C318 C320 1.381 . S
C318 C324 1.383 . S
C319 C315 1.495 . S
C319 H325 0.959 . S
C319 H326 0.961 . S
C319 H327 0.960 . S
C320 C318 1.381 . S
C320 C321 1.394 . S
C320 H328 0.930 . S
C321 C320 1.394 . S
C321 C322 1.383 . S
C321 H329 0.929 . S
C322 C321 1.383 . S
C322 C323 1.377 . S
C323 H307 0.930 . S
C323 C322 1.377 . S
C323 C324 1.379 . S
C324 H308 0.931 . S
C324 C318 1.383 . S
C324 C323 1.379 . S
H325 C319 0.959 . S
H326 C319 0.961 . S
H327 C319 0.960 . S
H328 C320 0.930 . S
H329 C321 0.929 . S
H330 C338 0.929 . S
H331 C340 0.930 . S
H332 C342 0.930 . S
H333 C345 0.929 . S
H334 C348 0.930 . S
H335 C350 0.960 . S
H336 C350 0.960 . S
H337 C350 0.960 . S
C338 H330 0.929 . S
C338 C339 1.377 . S
C338 C340 1.384 . S
C339 C338 1.377 . S
C339 C345 1.390 . S
C340 H331 0.930 . S
C340 C338 1.384 . S
C340 C341 1.372 . S
C341 C340 1.372 . S
C341 C342 1.400 . S
C341 C346 1.490 . S
C342 H332 0.930 . S
C342 C341 1.400 . S
C342 C345 1.386 . S
H343 C359 0.930 . S
H344 C360 0.931 . S
C345 H333 0.929 . S
C345 C339 1.390 . S
C345 C342 1.386 . S
C346 C341 1.490 . S
C346 C348 1.395 . S
C346 C349 1.403 . S
H347 C353 0.930 . S
C348 H334 0.930 . S
C348 C346 1.395 . S
C348 C351 1.403 . S
C349 C346 1.403 . S
C349 C350 1.524 . S
C349 C353 1.400 . S
C350 H335 0.960 . S
C350 H336 0.960 . S
C350 H337 0.960 . S
C350 C349 1.524 . S
C351 C348 1.403 . S
C351 C352 1.392 . S
C351 C355 1.495 . S
C352 C351 1.392 . S
C352 C353 1.385 . S
C352 C354 1.478 . S
C353 H347 0.930 . S
C353 C349 1.400 . S
C353 C352 1.385 . S
C354 C352 1.478 . S
C354 C356 1.381 . S
C354 C360 1.383 . S
C355 C351 1.495 . S
C355 H361 0.959 . S
C355 H362 0.961 . S
C355 H363 0.960 . S
C356 C354 1.381 . S
C356 C357 1.394 . S
C356 H364 0.930 . S
C357 C356 1.394 . S
C357 C358 1.383 . S
C357 H365 0.929 . S
C358 C357 1.383 . S
C358 C359 1.377 . S
C359 H343 0.930 . S
C359 C358 1.377 . S
C359 C360 1.379 . S
C360 H344 0.931 . S
C360 C354 1.383 . S
C360 C359 1.379 . S
H361 C355 0.959 . S
H362 C355 0.961 . S
H363 C355 0.960 . S
H364 C356 0.930 . S
H365 C357 0.929 . S
H366 C374 0.929 . S
H367 C376 0.930 . S
H368 C378 0.930 . S
H369 C381 0.929 . S
H370 C384 0.930 . S
H371 C386 0.960 . S
H372 C386 0.960 . S
H373 C386 0.960 . S
C374 H366 0.929 . S
C374 C375 1.377 . S
C374 C376 1.384 . S
C375 C374 1.377 . S
C375 C381 1.390 . S
C376 H367 0.930 . S
C376 C374 1.384 . S
C376 C377 1.372 . S
C377 C376 1.372 . S
C377 C378 1.400 . S
C377 C382 1.490 . S
C378 H368 0.930 . S
C378 C377 1.400 . S
C378 C381 1.386 . S
H379 C395 0.930 . S
H380 C396 0.931 . S
C381 H369 0.929 . S
C381 C375 1.390 . S
C381 C378 1.386 . S
C382 C377 1.490 . S
C382 C384 1.395 . S
C382 C385 1.403 . S
H383 C389 0.930 . S
C384 H370 0.930 . S
C384 C382 1.395 . S
C384 C387 1.403 . S
C385 C382 1.403 . S
C385 C386 1.524 . S
C385 C389 1.400 . S
C386 H371 0.960 . S
C386 H372 0.960 . S
C386 H373 0.960 . S
C386 C385 1.524 . S
C387 C384 1.403 . S
C387 C388 1.392 . S
C387 C391 1.495 . S
C388 C387 1.392 . S
C388 C389 1.385 . S
C388 C390 1.478 . S
C389 H383 0.930 . S
C389 C385 1.400 . S
C389 C388 1.385 . S
C390 C388 1.478 . S
C390 C392 1.381 . S
C390 C396 1.383 . S
C391 C387 1.495 . S
C391 H397 0.959 . S
C391 H398 0.961 . S
C391 H399 0.960 . S
C392 C390 1.381 . S
C392 C393 1.394 . S
C392 H400 0.930 . S
C393 C392 1.394 . S
C393 C394 1.383 . S
C393 H401 0.929 . S
C394 C393 1.383 . S
C394 C395 1.377 . S
C395 H379 0.930 . S
C395 C394 1.377 . S
C395 C396 1.379 . S
C396 H380 0.931 . S
C396 C390 1.383 . S
C396 C395 1.379 . S
H397 C391 0.959 . S
H398 C391 0.961 . S
H399 C391 0.960 . S
H400 C392 0.930 . S
H401 C393 0.929 . S
H402 C410 0.929 . S
H403 C412 0.930 . S
H404 C414 0.930 . S
H405 C417 0.929 . S
H406 C420 0.930 . S
H407 C422 0.960 . S
H408 C422 0.960 . S
H409 C422 0.960 . S
C410 H402 0.929 . S
C410 C411 1.377 . S
C410 C412 1.384 . S
C411 C410 1.377 . S
C411 C417 1.390 . S
C412 H403 0.930 . S
C412 C410 1.384 . S
C412 C413 1.372 . S
C413 C412 1.372 . S
C413 C414 1.400 . S
C413 C418 1.490 . S
C414 H404 0.930 . S
C414 C413 1.400 . S
C414 C417 1.386 . S
H415 C431 0.930 . S
H416 C432 0.931 . S
C417 H405 0.929 . S
C417 C411 1.390 . S
C417 C414 1.386 . S
C418 C413 1.490 . S
C418 C420 1.395 . S
C418 C421 1.403 . S
H419 C425 0.930 . S
C420 H406 0.930 . S
C420 C418 1.395 . S
C420 C423 1.403 . S
C421 C418 1.403 . S
C421 C422 1.524 . S
C421 C425 1.400 . S
C422 H407 0.960 . S
C422 H408 0.960 . S
C422 H409 0.960 . S
C422 C421 1.524 . S
C423 C420 1.403 . S
C423 C424 1.392 . S
C423 C427 1.495 . S
C424 C423 1.392 . S
C424 C425 1.385 . S
C424 C426 1.478 . S
C425 H419 0.930 . S
C425 C421 1.400 . S
C425 C424 1.385 . S
C426 C424 1.478 . S
C426 C428 1.381 . S
C426 C432 1.383 . S
C427 C423 1.495 . S
C427 H433 0.959 . S
C427 H434 0.961 . S
C427 H435 0.960 . S
C428 C426 1.381 . S
C428 C429 1.394 1_545 S
C428 H436 0.930 . S
C429 C428 1.394 1_565 S
C429 C430 1.383 . S
C429 H437 0.929 . S
C430 C429 1.383 . S
C430 C431 1.377 1_565 S
C431 H415 0.930 . S
C431 C430 1.377 1_545 S
C431 C432 1.379 . S
C432 H416 0.931 . S
C432 C426 1.383 . S
C432 C431 1.379 . S
H433 C427 0.959 . S
H434 C427 0.961 . S
H435 C427 0.960 . S
H436 C428 0.930 . S
H437 C429 0.929 . S
H438 C446 0.929 . S
H439 C448 0.930 . S
H440 C450 0.930 . S
H441 C453 0.929 . S
H442 C456 0.930 1_655 S
H443 C458 0.960 . S
H444 C458 0.960 . S
H445 C458 0.960 . S
C446 H438 0.929 . S
C446 C447 1.377 . S
C446 C448 1.384 . S
C447 C446 1.377 . S
C447 C453 1.390 . S
C448 H439 0.930 . S
C448 C446 1.384 . S
C448 C449 1.372 . S
C449 C448 1.372 . S
C449 C450 1.400 . S
C449 C454 1.490 1_655 S
C450 H440 0.930 . S
C450 C449 1.400 . S
C450 C453 1.386 . S
H451 C467 0.930 . S
H452 C468 0.931 . S
C453 H441 0.929 . S
C453 C447 1.390 . S
C453 C450 1.386 . S
C454 C449 1.490 1_455 S
C454 C456 1.395 . S
C454 C457 1.403 . S
H455 C461 0.930 . S
C456 H442 0.930 1_455 S
C456 C454 1.395 . S
C456 C459 1.403 . S
C457 C454 1.403 . S
C457 C458 1.524 . S
C457 C461 1.400 . S
C458 H443 0.960 . S
C458 H444 0.960 . S
C458 H445 0.960 . S
C458 C457 1.524 . S
C459 C456 1.403 . S
C459 C460 1.392 . S
C459 C463 1.495 . S
C460 C459 1.392 . S
C460 C461 1.385 . S
C460 C462 1.478 . S
C461 H455 0.930 . S
C461 C457 1.400 . S
C461 C460 1.385 . S
C462 C460 1.478 . S
C462 C464 1.381 . S
C462 C468 1.383 . S
C463 C459 1.495 . S
C463 H469 0.959 . S
C463 H470 0.961 . S
C463 H471 0.960 . S
C464 C462 1.381 . S
C464 C465 1.394 . S
C464 H472 0.930 . S
C465 C464 1.394 . S
C465 C466 1.383 . S
C465 H473 0.929 . S
C466 C465 1.383 . S
C466 C467 1.377 . S
C467 H451 0.930 . S
C467 C466 1.377 . S
C467 C468 1.379 . S
C468 H452 0.931 . S
C468 C462 1.383 . S
C468 C467 1.379 . S
H469 C463 0.959 . S
H470 C463 0.961 . S
H471 C463 0.960 . S
H472 C464 0.930 . S
H473 C465 0.929 . S
H474 C482 0.929 . S
H475 C484 0.930 . S
H476 C486 0.930 . S
H477 C489 0.929 . S
H478 C492 0.930 . S
H479 C494 0.960 . S
H480 C494 0.960 . S
H481 C494 0.960 . S
C482 H474 0.929 . S
C482 C483 1.377 . S
C482 C484 1.384 1_455 S
C483 C482 1.377 . S
C483 C489 1.390 1_455 S
C484 H475 0.930 . S
C484 C482 1.384 1_655 S
C484 C485 1.372 . S
C485 C484 1.372 . S
C485 C486 1.400 . S
C485 C490 1.490 . S
C486 H476 0.930 . S
C486 C485 1.400 . S
C486 C489 1.386 . S
H487 C503 0.930 . S
H488 C504 0.931 . S
C489 H477 0.929 . S
C489 C483 1.390 1_655 S
C489 C486 1.386 . S
C490 C485 1.490 . S
C490 C492 1.395 . S
C490 C493 1.403 . S
H491 C497 0.930 . S
C492 H478 0.930 . S
C492 C490 1.395 . S
C492 C495 1.403 . S
C493 C490 1.403 . S
C493 C494 1.524 . S
C493 C497 1.400 . S
C494 H479 0.960 . S
C494 H480 0.960 . S
C494 H481 0.960 . S
C494 C493 1.524 . S
C495 C492 1.403 . S
C495 C496 1.392 . S
C495 C499 1.495 . S
C496 C495 1.392 . S
C496 C497 1.385 . S
C496 C498 1.478 1_545 S
C497 H491 0.930 . S
C497 C493 1.400 . S
C497 C496 1.385 . S
C498 C496 1.478 1_565 S
C498 C500 1.381 . S
C498 C504 1.383 . S
C499 C495 1.495 . S
C499 H505 0.959 . S
C499 H506 0.961 . S
C499 H507 0.960 1_545 S
C500 C498 1.381 . S
C500 C501 1.394 . S
C500 H508 0.930 . S
C501 C500 1.394 . S
C501 C502 1.383 . S
C501 H509 0.929 . S
C502 C501 1.383 . S
C502 C503 1.377 . S
C503 H487 0.930 . S
C503 C502 1.377 . S
C503 C504 1.379 . S
C504 H488 0.931 . S
C504 C498 1.383 . S
C504 C503 1.379 . S
H505 C499 0.959 . S
H506 C499 0.961 . S
H507 C499 0.960 1_565 S
H508 C500 0.930 . S
H509 C501 0.929 . S
H510 C518 0.929 . S
H511 C520 0.930 . S
H512 C522 0.930 . S
H513 C525 0.929 . S
H514 C528 0.930 . S
H515 C530 0.960 . S
H516 C530 0.960 . S
H517 C530 0.960 . S
C518 H510 0.929 . S
C518 C519 1.377 1_565 S
C518 C520 1.384 . S
C519 C518 1.377 1_545 S
C519 C525 1.390 . S
C520 H511 0.930 . S
C520 C518 1.384 . S
C520 C521 1.372 . S
C521 C520 1.372 . S
C521 C522 1.400 . S
C521 C526 1.490 . S
C522 H512 0.930 . S
C522 C521 1.400 . S
C522 C525 1.386 1_565 S
H523 C539 0.930 . S
H524 C540 0.931 . S
C525 H513 0.929 . S
C525 C519 1.390 . S
C525 C522 1.386 1_545 S
C526 C521 1.490 . S
C526 C528 1.395 . S
C526 C529 1.403 . S
H527 C533 0.930 . S
C528 H514 0.930 . S
C528 C526 1.395 . S
C528 C531 1.403 . S
C529 C526 1.403 . S
C529 C530 1.524 . S
C529 C533 1.400 . S
C530 H515 0.960 . S
C530 H516 0.960 . S
C530 H517 0.960 . S
C530 C529 1.524 . S
C531 C528 1.403 . S
C531 C532 1.392 . S
C531 C535 1.495 . S
C532 C531 1.392 . S
C532 C533 1.385 . S
C532 C534 1.478 . S
C533 H527 0.930 . S
C533 C529 1.400 . S
C533 C532 1.385 . S
C534 C532 1.478 . S
C534 C536 1.381 . S
C534 C540 1.383 . S
C535 C531 1.495 . S
C535 H541 0.959 . S
C535 H542 0.961 . S
C535 H543 0.960 . S
C536 C534 1.381 . S
C536 C537 1.394 . S
C536 H544 0.930 . S
C537 C536 1.394 . S
C537 C538 1.383 . S
C537 H545 0.929 . S
C538 C537 1.383 . S
C538 C539 1.377 . S
C539 H523 0.930 . S
C539 C538 1.377 . S
C539 C540 1.379 . S
C540 H524 0.931 . S
C540 C534 1.383 . S
C540 C539 1.379 . S
H541 C535 0.959 . S
H542 C535 0.961 . S
H543 C535 0.960 . S
H544 C536 0.930 . S
H545 C537 0.929 . S
H546 C554 0.929 . S
H547 C556 0.930 . S
H548 C558 0.930 . S
H549 C561 0.929 . S
H550 C564 0.930 . S
H551 C566 0.960 . S
H552 C566 0.960 . S
H553 C566 0.960 . S
C554 H546 0.929 . S
C554 C555 1.377 . S
C554 C556 1.384 . S
C555 C554 1.377 . S
C555 C561 1.390 . S
C556 H547 0.930 . S
C556 C554 1.384 . S
C556 C557 1.372 . S
C557 C556 1.372 . S
C557 C558 1.400 . S
C557 C562 1.490 . S
C558 H548 0.930 . S
C558 C557 1.400 . S
C558 C561 1.386 . S
H559 C575 0.930 . S
H560 C576 0.931 . S
C561 H549 0.929 . S
C561 C555 1.390 . S
C561 C558 1.386 . S
C562 C557 1.490 . S
C562 C564 1.395 . S
C562 C565 1.403 . S
H563 C569 0.930 1_455 S
C564 H550 0.930 . S
C564 C562 1.395 . S
C564 C567 1.403 . S
C565 C562 1.403 . S
C565 C566 1.524 . S
C565 C569 1.400 . S
C566 H551 0.960 . S
C566 H552 0.960 . S
C566 H553 0.960 . S
C566 C565 1.524 . S
C567 C564 1.403 . S
C567 C568 1.392 . S
C567 C571 1.495 . S
C568 C567 1.392 . S
C568 C569 1.385 . S
C568 C570 1.478 1_655 S
C569 H563 0.930 1_655 S
C569 C565 1.400 . S
C569 C568 1.385 . S
C570 C568 1.478 1_455 S
C570 C572 1.381 . S
C570 C576 1.383 . S
C571 C567 1.495 . S
C571 H577 0.959 . S
C571 H578 0.961 . S
C571 H579 0.960 . S
C572 C570 1.381 . S
C572 C573 1.394 . S
C572 H580 0.930 . S
C573 C572 1.394 . S
C573 C574 1.383 . S
C573 H581 0.929 . S
C574 C573 1.383 . S
C574 C575 1.377 . S
C575 H559 0.930 . S
C575 C574 1.377 . S
C575 C576 1.379 . S
C576 H560 0.931 . S
C576 C570 1.383 . S
C576 C575 1.379 . S
H577 C571 0.959 . S
H578 C571 0.961 . S
H579 C571 0.960 . S
H580 C572 0.930 . S
H581 C573 0.929 . S
H582 C590 0.929 . S
H583 C592 0.930 . S
H584 C594 0.930 . S
H585 C597 0.929 . S
H586 C600 0.930 . S
H587 C602 0.960 1_565 S
H588 C602 0.960 . S
H589 C602 0.960 . S
C590 H582 0.929 . S
C590 C591 1.377 . S
C590 C592 1.384 . S
C591 C590 1.377 . S
C591 C597 1.390 . S
C592 H583 0.930 . S
C592 C590 1.384 . S
C592 C593 1.372 . S
C593 C592 1.372 . S
C593 C594 1.400 . S
C593 C598 1.490 1_545 S
C594 H584 0.930 . S
C594 C593 1.400 . S
C594 C597 1.386 . S
H595 C611 0.930 . S
H596 C612 0.931 . S
C597 H585 0.929 . S
C597 C591 1.390 . S
C597 C594 1.386 . S
C598 C593 1.490 1_565 S
C598 C600 1.395 . S
C598 C601 1.403 . S
H599 C605 0.930 . S
C600 H586 0.930 . S
C600 C598 1.395 . S
C600 C603 1.403 . S
C601 C598 1.403 . S
C601 C602 1.524 1_565 S
C601 C605 1.400 . S
C602 H587 0.960 1_545 S
C602 H588 0.960 . S
C602 H589 0.960 . S
C602 C601 1.524 1_545 S
C603 C600 1.403 . S
C603 C604 1.392 . S
C603 C607 1.495 . S
C604 C603 1.392 . S
C604 C605 1.385 . S
C604 C606 1.478 . S
C605 H599 0.930 . S
C605 C601 1.400 . S
C605 C604 1.385 . S
C606 C604 1.478 . S
C606 C608 1.381 . S
C606 C612 1.383 . S
C607 C603 1.495 . S
C607 H613 0.959 . S
C607 H614 0.961 . S
C607 H615 0.960 . S
C608 C606 1.381 . S
C608 C609 1.394 . S
C608 H616 0.930 . S
C609 C608 1.394 . S
C609 C610 1.383 1_455 S
C609 H617 0.929 . S
C610 C609 1.383 1_655 S
C610 C611 1.377 . S
C611 H595 0.930 . S
C611 C610 1.377 . S
C611 C612 1.379 1_655 S
C612 H596 0.931 . S
C612 C606 1.383 . S
C612 C611 1.379 1_455 S
H613 C607 0.959 . S
H614 C607 0.961 . S
H615 C607 0.960 . S
H616 C608 0.930 . S
H617 C609 0.929 . S
H618 C626 0.929 . S
H619 C628 0.930 . S
H620 C630 0.930 . S
H621 C633 0.929 . S
H622 C636 0.930 . S
H623 C638 0.960 . S
H624 C638 0.960 . S
H625 C638 0.960 1_554 S
C626 H618 0.929 . S
C626 C627 1.377 . S
C626 C628 1.384 . S
C627 C626 1.377 . S
C627 C633 1.390 . S
C628 H619 0.930 . S
C628 C626 1.384 . S
C628 C629 1.372 . S
C629 C628 1.372 . S
C629 C630 1.400 . S
C629 C634 1.490 . S
C630 H620 0.930 . S
C630 C629 1.400 . S
C630 C633 1.386 . S
H631 C647 0.930 . S
H632 C648 0.931 . S
C633 H621 0.929 . S
C633 C627 1.390 . S
C633 C630 1.386 . S
C634 C629 1.490 . S
C634 C636 1.395 . S
C634 C637 1.403 . S
H635 C641 0.930 . S
C636 H622 0.930 . S
C636 C634 1.395 . S
C636 C639 1.403 . S
C637 C634 1.403 . S
C637 C638 1.524 1_554 S
C637 C641 1.400 1_554 S
C638 H623 0.960 . S
C638 H624 0.960 . S
C638 H625 0.960 1_556 S
C638 C637 1.524 1_556 S
C639 C636 1.403 . S
C639 C640 1.392 1_554 S
C639 C643 1.495 . S
C640 C639 1.392 1_556 S
C640 C641 1.385 . S
C640 C642 1.478 . S
C641 H635 0.930 . S
C641 C637 1.400 1_556 S
C641 C640 1.385 . S
C642 C640 1.478 . S
C642 C644 1.381 . S
C642 C648 1.383 . S
C643 C639 1.495 . S
C643 H649 0.959 . S
C643 H650 0.961 . S
C643 H651 0.960 1_554 S
C644 C642 1.381 . S
C644 C645 1.394 . S
C644 H652 0.930 . S
C645 C644 1.394 . S
C645 C646 1.383 . S
C645 H653 0.929 . S
C646 C645 1.383 . S
C646 C647 1.377 . S
C647 H631 0.930 . S
C647 C646 1.377 . S
C647 C648 1.379 . S
C648 H632 0.931 . S
C648 C642 1.383 . S
C648 C647 1.379 . S
H649 C643 0.959 . S
H650 C643 0.961 . S
H651 C643 0.960 1_556 S
H652 C644 0.930 . S
H653 C645 0.929 . S
H654 C662 0.929 . S
H655 C664 0.930 . S
H656 C666 0.930 . S
H657 C669 0.929 . S
H658 C672 0.930 . S
H659 C674 0.960 . S
H660 C674 0.960 . S
H661 C674 0.960 . S
C662 H654 0.929 . S
C662 C663 1.377 . S
C662 C664 1.384 . S
C663 C662 1.377 . S
C663 C669 1.390 . S
C664 H655 0.930 . S
C664 C662 1.384 . S
C664 C665 1.372 . S
C665 C664 1.372 . S
C665 C666 1.400 . S
C665 C670 1.490 . S
C666 H656 0.930 . S
C666 C665 1.400 . S
C666 C669 1.386 . S
H667 C683 0.930 . S
H668 C684 0.931 . S
C669 H657 0.929 . S
C669 C663 1.390 . S
C669 C666 1.386 . S
C670 C665 1.490 . S
C670 C672 1.395 1_655 S
C670 C673 1.403 . S
H671 C677 0.930 . S
C672 H658 0.930 . S
C672 C670 1.395 1_455 S
C672 C675 1.403 . S
C673 C670 1.403 . S
C673 C674 1.524 . S
C673 C677 1.400 . S
C674 H659 0.960 . S
C674 H660 0.960 . S
C674 H661 0.960 . S
C674 C673 1.524 . S
C675 C672 1.403 . S
C675 C676 1.392 . S
C675 C679 1.495 . S
C676 C675 1.392 . S
C676 C677 1.385 1_455 S
C676 C678 1.478 . S
C677 H671 0.930 . S
C677 C673 1.400 . S
C677 C676 1.385 1_655 S
C678 C676 1.478 . S
C678 C680 1.381 . S
C678 C684 1.383 . S
C679 C675 1.495 . S
C679 H685 0.959 . S
C679 H686 0.961 . S
C679 H687 0.960 . S
C680 C678 1.381 . S
C680 C681 1.394 . S
C680 H688 0.930 . S
C681 C680 1.394 . S
C681 C682 1.383 . S
C681 H689 0.929 . S
C682 C681 1.383 . S
C682 C683 1.377 . S
C683 H667 0.930 . S
C683 C682 1.377 . S
C683 C684 1.379 . S
C684 H668 0.931 . S
C684 C678 1.383 . S
C684 C683 1.379 . S
H685 C679 0.959 . S
H686 C679 0.961 . S
H687 C679 0.960 . S
H688 C680 0.930 . S
H689 C681 0.929 . S
H690 C698 0.929 . S
H691 C700 0.930 . S
H692 C702 0.930 . S
H693 C705 0.929 . S
H694 C708 0.930 . S
H695 C710 0.960 . S
H696 C710 0.960 1_554 S
H697 C710 0.960 . S
C698 H690 0.929 . S
C698 C699 1.377 . S
C698 C700 1.384 . S
C699 C698 1.377 . S
C699 C705 1.390 . S
C700 H691 0.930 . S
C700 C698 1.384 . S
C700 C701 1.372 . S
C701 C700 1.372 . S
C701 C702 1.400 . S
C701 C706 1.490 . S
C702 H692 0.930 . S
C702 C701 1.400 . S
C702 C705 1.386 . S
H703 C719 0.930 . S
H704 C720 0.931 1_565 S
C705 H693 0.929 . S
C705 C699 1.390 . S
C705 C702 1.386 . S
C706 C701 1.490 . S
C706 C708 1.395 . S
C706 C709 1.403 1_554 S
H707 C713 0.930 . S
C708 H694 0.930 . S
C708 C706 1.395 . S
C708 C711 1.403 1_564 S
C709 C706 1.403 1_556 S
C709 C710 1.524 . S
C709 C713 1.400 . S
C710 H695 0.960 . S
C710 H696 0.960 1_556 S
C710 H697 0.960 . S
C710 C709 1.524 . S
C711 C708 1.403 1_546 S
C711 C712 1.392 . S
C711 C715 1.495 . S
C712 C711 1.392 . S
C712 C713 1.385 1_545 S
C712 C714 1.478 . S
C713 H707 0.930 . S
C713 C709 1.400 . S
C713 C712 1.385 1_565 S
C714 C712 1.478 . S
C714 C716 1.381 . S
C714 C720 1.383 . S
C715 C711 1.495 . S
C715 H721 0.959 1_556 S
C715 H722 0.961 . S
C715 H723 0.960 . S
C716 C714 1.381 . S
C716 C717 1.394 . S
C716 H724 0.930 . S
C717 C716 1.394 . S
C717 C718 1.383 . S
C717 H725 0.929 . S
C718 C717 1.383 . S
C718 C719 1.377 . S
C719 H703 0.930 . S
C719 C718 1.377 . S
C719 C720 1.379 . S
C720 H704 0.931 1_545 S
C720 C714 1.383 . S
C720 C719 1.379 . S
H721 C715 0.959 1_554 S
H722 C715 0.961 . S
H723 C715 0.960 . S
H724 C716 0.930 . S
H725 C717 0.929 . S
H726 C734 0.929 . S
H727 C736 0.930 . S
H728 C738 0.930 . S
H729 C741 0.929 . S
H730 C744 0.930 . S
H731 C746 0.960 . S
H732 C746 0.960 . S
H733 C746 0.960 . S
C734 H726 0.929 . S
C734 C735 1.377 . S
C734 C736 1.384 . S
C735 C734 1.377 . S
C735 C741 1.390 . S
C736 H727 0.930 . S
C736 C734 1.384 . S
C736 C737 1.372 . S
C737 C736 1.372 . S
C737 C738 1.400 . S
C737 C742 1.490 . S
C738 H728 0.930 . S
C738 C737 1.400 . S
C738 C741 1.386 . S
H739 C755 0.930 . S
H740 C756 0.931 . S
C741 H729 0.929 . S
C741 C735 1.390 . S
C741 C738 1.386 . S
C742 C737 1.490 . S
C742 C744 1.395 . S
C742 C745 1.403 . S
H743 C749 0.930 . S
C744 H730 0.930 . S
C744 C742 1.395 . S
C744 C747 1.403 . S
C745 C742 1.403 . S
C745 C746 1.524 . S
C745 C749 1.400 . S
C746 H731 0.960 . S
C746 H732 0.960 . S
C746 H733 0.960 . S
C746 C745 1.524 . S
C747 C744 1.403 . S
C747 C748 1.392 . S
C747 C751 1.495 . S
C748 C747 1.392 . S
C748 C749 1.385 . S
C748 C750 1.478 . S
C749 H743 0.930 . S
C749 C745 1.400 . S
C749 C748 1.385 . S
C750 C748 1.478 . S
C750 C752 1.381 . S
C750 C756 1.383 . S
C751 C747 1.495 . S
C751 H757 0.959 . S
C751 H758 0.961 . S
C751 H759 0.960 . S
C752 C750 1.381 . S
C752 C753 1.394 . S
C752 H760 0.930 . S
C753 C752 1.394 . S
C753 C754 1.383 . S
C753 H761 0.929 . S
C754 C753 1.383 . S
C754 C755 1.377 . S
C755 H739 0.930 . S
C755 C754 1.377 . S
C755 C756 1.379 . S
C756 H740 0.931 . S
C756 C750 1.383 . S
C756 C755 1.379 . S
H757 C751 0.959 . S
H758 C751 0.961 . S
H759 C751 0.960 . S
H760 C752 0.930 . S
H761 C753 0.929 . S
H762 C770 0.929 . S
H763 C772 0.930 . S
H764 C774 0.930 . S
H765 C777 0.929 . S
H766 C780 0.930 . S
H767 C782 0.960 . S
H768 C782 0.960 . S
H769 C782 0.960 . S
C770 H762 0.929 . S
C770 C771 1.377 . S
C770 C772 1.384 . S
C771 C770 1.377 . S
C771 C777 1.390 . S
C772 H763 0.930 . S
C772 C770 1.384 . S
C772 C773 1.372 . S
C773 C772 1.372 . S
C773 C774 1.400 . S
C773 C778 1.490 . S
C774 H764 0.930 . S
C774 C773 1.400 . S
C774 C777 1.386 . S
H775 C791 0.930 . S
H776 C792 0.931 . S
C777 H765 0.929 . S
C777 C771 1.390 . S
C777 C774 1.386 . S
C778 C773 1.490 . S
C778 C780 1.395 1_556 S
C778 C781 1.403 1_655 S
H779 C785 0.930 . S
C780 H766 0.930 . S
C780 C778 1.395 1_554 S
C780 C783 1.403 1_655 S
C781 C778 1.403 1_455 S
C781 C782 1.524 . S
C781 C785 1.400 1_556 S
C782 H767 0.960 . S
C782 H768 0.960 . S
C782 H769 0.960 . S
C782 C781 1.524 . S
C783 C780 1.403 1_455 S
C783 C784 1.392 . S
C783 C787 1.495 1_455 S
C784 C783 1.392 . S
C784 C785 1.385 . S
C784 C786 1.478 . S
C785 H779 0.930 . S
C785 C781 1.400 1_554 S
C785 C784 1.385 . S
C786 C784 1.478 . S
C786 C788 1.381 . S
C786 C792 1.383 . S
C787 C783 1.495 1_655 S
C787 H793 0.959 . S
C787 H794 0.961 . S
C787 H795 0.960 1_655 S
C788 C786 1.381 . S
C788 C789 1.394 . S
C788 H796 0.930 . S
C789 C788 1.394 . S
C789 C790 1.383 . S
C789 H797 0.929 . S
C790 C789 1.383 . S
C790 C791 1.377 . S
C791 H775 0.930 . S
C791 C790 1.377 . S
C791 C792 1.379 . S
C792 H776 0.931 . S
C792 C786 1.383 . S
C792 C791 1.379 . S
H793 C787 0.959 . S
H794 C787 0.961 . S
H795 C787 0.960 1_455 S
H796 C788 0.930 . S
H797 C789 0.929 . S
H798 C806 0.929 . S
H799 C808 0.930 . S
H800 C810 0.930 . S
H801 C813 0.929 . S
H802 C816 0.930 . S
H803 C818 0.960 1_565 S
H804 C818 0.960 . S
H805 C818 0.960 . S
C806 H798 0.929 . S
C806 C807 1.377 . S
C806 C808 1.384 . S
C807 C806 1.377 . S
C807 C813 1.390 . S
C808 H799 0.930 . S
C808 C806 1.384 . S
C808 C809 1.372 . S
C809 C808 1.372 . S
C809 C810 1.400 . S
C809 C814 1.490 . S
C810 H800 0.930 . S
C810 C809 1.400 . S
C810 C813 1.386 . S
H811 C827 0.930 . S
H812 C828 0.931 . S
C813 H801 0.929 . S
C813 C807 1.390 . S
C813 C810 1.386 . S
C814 C809 1.490 . S
C814 C816 1.395 . S
C814 C817 1.403 . S
H815 C821 0.930 . S
C816 H802 0.930 . S
C816 C814 1.395 . S
C816 C819 1.403 . S
C817 C814 1.403 . S
C817 C818 1.524 . S
C817 C821 1.400 1_545 S
C818 H803 0.960 1_545 S
C818 H804 0.960 . S
C818 H805 0.960 . S
C818 C817 1.524 . S
C819 C816 1.403 . S
C819 C820 1.392 1_545 S
C819 C823 1.495 . S
C820 C819 1.392 1_565 S
C820 C821 1.385 . S
C820 C822 1.478 . S
C821 H815 0.930 . S
C821 C817 1.400 1_565 S
C821 C820 1.385 . S
C822 C820 1.478 . S
C822 C824 1.381 . S
C822 C828 1.383 . S
C823 C819 1.495 . S
C823 H829 0.959 . S
C823 H830 0.961 . S
C823 H831 0.960 . S
C824 C822 1.381 . S
C824 C825 1.394 . S
C824 H832 0.930 . S
C825 C824 1.394 . S
C825 C826 1.383 . S
C825 H833 0.929 . S
C826 C825 1.383 . S
C826 C827 1.377 . S
C827 H811 0.930 . S
C827 C826 1.377 . S
C827 C828 1.379 . S
C828 H812 0.931 . S
C828 C822 1.383 . S
C828 C827 1.379 . S
H829 C823 0.959 . S
H830 C823 0.961 . S
H831 C823 0.960 . S
H832 C824 0.930 . S
H833 C825 0.929 . S
H834 C842 0.929 . S
H835 C844 0.930 . S
H836 C846 0.930 . S
H837 C849 0.929 . S
H838 C852 0.930 . S
H839 C854 0.960 . S
H840 C854 0.960 . S
H841 C854 0.960 . S
C842 H834 0.929 . S
C842 C843 1.377 . S
C842 C844 1.384 . S
C843 C842 1.377 . S
C843 C849 1.390 . S
C844 H835 0.930 . S
C844 C842 1.384 . S
C844 C845 1.372 . S
C845 C844 1.372 . S
C845 C846 1.400 . S
C845 C850 1.490 . S
C846 H836 0.930 . S
C846 C845 1.400 . S
C846 C849 1.386 . S
H847 C863 0.930 . S
H848 C864 0.931 . S
C849 H837 0.929 . S
C849 C843 1.390 . S
C849 C846 1.386 . S
C850 C845 1.490 . S
C850 C852 1.395 . S
C850 C853 1.403 1_556 S
H851 C857 0.930 . S
C852 H838 0.930 . S
C852 C850 1.395 . S
C852 C855 1.403 . S
C853 C850 1.403 1_554 S
C853 C854 1.524 . S
C853 C857 1.400 . S
C854 H839 0.960 . S
C854 H840 0.960 . S
C854 H841 0.960 . S
C854 C853 1.524 . S
C855 C852 1.403 . S
C855 C856 1.393 1_556 S
C855 C859 1.495 . S
C856 C855 1.393 1_554 S
C856 C857 1.385 . S
C856 C858 1.478 . S
C857 H851 0.930 . S
C857 C853 1.400 . S
C857 C856 1.385 . S
C858 C856 1.478 . S
C858 C860 1.381 . S
C858 C864 1.383 . S
C859 C855 1.495 . S
C859 H865 0.959 . S
C859 H866 0.961 1_556 S
C859 H867 0.960 1_556 S
C860 C858 1.381 . S
C860 C861 1.394 . S
C860 H868 0.930 . S
C861 C860 1.394 . S
C861 C862 1.383 . S
C861 H869 0.929 . S
C862 C861 1.383 . S
C862 C863 1.377 . S
C863 H847 0.930 . S
C863 C862 1.377 . S
C863 C864 1.379 . S
C864 H848 0.931 . S
C864 C858 1.383 . S
C864 C863 1.379 . S
H865 C859 0.959 . S
H866 C859 0.961 1_554 S
H867 C859 0.960 1_554 S
H868 C860 0.930 . S
H869 C861 0.929 . S
H870 C878 0.929 . S
H871 C880 0.930 . S
H872 C882 0.930 . S
H873 C885 0.929 . S
H874 C888 0.930 . S
H875 C890 0.960 . S
H876 C890 0.960 . S
H877 C890 0.960 . S
C878 H870 0.929 . S
C878 C879 1.377 . S
C878 C880 1.384 . S
C879 C878 1.377 . S
C879 C885 1.390 . S
C880 H871 0.930 . S
C880 C878 1.384 . S
C880 C881 1.372 . S
C881 C880 1.372 . S
C881 C882 1.400 . S
C881 C886 1.490 . S
C882 H872 0.930 . S
C882 C881 1.400 . S
C882 C885 1.386 . S
H883 C899 0.930 . S
H884 C900 0.931 1_455 S
C885 H873 0.929 . S
C885 C879 1.390 . S
C885 C882 1.386 . S
C886 C881 1.490 . S
C886 C888 1.395 . S
C886 C889 1.403 . S
H887 C893 0.930 . S
C888 H874 0.930 . S
C888 C886 1.395 . S
C888 C891 1.403 . S
C889 C886 1.403 . S
C889 C890 1.524 . S
C889 C893 1.400 . S
C890 H875 0.960 . S
C890 H876 0.960 . S
C890 H877 0.960 . S
C890 C889 1.524 . S
C891 C888 1.403 . S
C891 C892 1.392 1_455 S
C891 C895 1.495 1_455 S
C892 C891 1.392 1_655 S
C892 C893 1.385 1_655 S
C892 C894 1.478 . S
C893 H887 0.930 . S
C893 C889 1.400 . S
C893 C892 1.385 1_455 S
C894 C892 1.478 . S
C894 C896 1.381 . S
C894 C900 1.383 . S
C895 C891 1.495 1_655 S
C895 H901 0.959 1_655 S
C895 H902 0.961 1_655 S
C895 H903 0.960 . S
C896 C894 1.381 . S
C896 C897 1.394 . S
C896 H904 0.930 . S
C897 C896 1.394 . S
C897 C898 1.383 . S
C897 H905 0.929 . S
C898 C897 1.383 . S
C898 C899 1.377 . S
C899 H883 0.930 . S
C899 C898 1.377 . S
C899 C900 1.379 . S
C900 H884 0.931 1_655 S
C900 C894 1.383 . S
C900 C899 1.379 . S
H901 C895 0.959 1_455 S
H902 C895 0.961 1_455 S
H903 C895 0.960 . S
H904 C896 0.930 . S
H905 C897 0.929 . S
H906 C914 0.929 . S
H907 C916 0.930 . S
H908 C918 0.930 . S
H909 C921 0.929 . S
H910 C924 0.930 . S
H911 C926 0.960 . S
H912 C926 0.960 . S
H913 C926 0.960 . S
C914 H906 0.929 . S
C914 C915 1.377 . S
C914 C916 1.384 . S
C915 C914 1.377 . S
C915 C921 1.390 . S
C916 H907 0.930 . S
C916 C914 1.384 . S
C916 C917 1.372 . S
C917 C916 1.372 . S
C917 C918 1.400 . S
C917 C922 1.490 . S
C918 H908 0.930 . S
C918 C917 1.400 . S
C918 C921 1.386 . S
H919 C935 0.930 . S
H920 C936 0.931 . S
C921 H909 0.929 . S
C921 C915 1.390 . S
C921 C918 1.386 . S
C922 C917 1.490 . S
C922 C924 1.395 1_556 S
C922 C925 1.403 . S
H923 C929 0.930 . S
C924 H910 0.930 . S
C924 C922 1.395 1_554 S
C924 C927 1.403 . S
C925 C922 1.403 . S
C925 C926 1.524 1_545 S
C925 C929 1.400 1_546 S
C926 H911 0.960 . S
C926 H912 0.960 . S
C926 H913 0.960 . S
C926 C925 1.524 1_565 S
C927 C924 1.403 . S
C927 C928 1.392 . S
C927 C931 1.495 . S
C928 C927 1.392 . S
C928 C929 1.385 1_545 S
C928 C930 1.478 1_545 S
C929 H923 0.930 . S
C929 C925 1.400 1_564 S
C929 C928 1.385 1_565 S
C930 C928 1.478 1_565 S
C930 C932 1.381 . S
C930 C936 1.383 . S
C931 C927 1.495 . S
C931 H937 0.959 . S
C931 H938 0.961 . S
C931 H939 0.960 . S
C932 C930 1.381 . S
C932 C933 1.394 . S
C932 H940 0.930 . S
C933 C932 1.394 . S
C933 C934 1.383 . S
C933 H941 0.929 . S
C934 C933 1.383 . S
C934 C935 1.377 . S
C935 H919 0.930 . S
C935 C934 1.377 . S
C935 C936 1.379 . S
C936 H920 0.931 . S
C936 C930 1.383 . S
C936 C935 1.379 . S
H937 C931 0.959 . S
H938 C931 0.961 . S
H939 C931 0.960 . S
H940 C932 0.930 . S
H941 C933 0.929 . S
H942 C950 0.929 . S
H943 C952 0.930 . S
H944 C954 0.930 . S
H945 C957 0.929 . S
H946 C960 0.930 . S
H947 C962 0.960 . S
H948 C962 0.960 . S
H949 C962 0.960 . S
C950 H942 0.929 . S
C950 C951 1.377 . S
C950 C952 1.384 . S
C951 C950 1.377 . S
C951 C957 1.390 . S
C952 H943 0.930 . S
C952 C950 1.384 . S
C952 C953 1.372 . S
C953 C952 1.372 . S
C953 C954 1.400 . S
C953 C958 1.490 . S
C954 H944 0.930 . S
C954 C953 1.400 . S
C954 C957 1.386 . S
H955 C971 0.930 . S
H956 C972 0.931 . S
C957 H945 0.929 . S
C957 C951 1.390 . S
C957 C954 1.386 . S
C958 C953 1.490 . S
C958 C960 1.395 . S
C958 C961 1.403 . S
H959 C965 0.930 . S
C960 H946 0.930 . S
C960 C958 1.395 . S
C960 C963 1.403 . S
C961 C958 1.403 . S
C961 C962 1.524 . S
C961 C965 1.400 . S
C962 H947 0.960 . S
C962 H948 0.960 . S
C962 H949 0.960 . S
C962 C961 1.524 . S
C963 C960 1.403 . S
C963 C964 1.392 . S
C963 C967 1.495 . S
C964 C963 1.392 . S
C964 C965 1.385 . S
C964 C966 1.478 . S
C965 H959 0.930 . S
C965 C961 1.400 . S
C965 C964 1.385 . S
C966 C964 1.478 . S
C966 C968 1.381 . S
C966 C972 1.383 . S
C967 C963 1.495 . S
C967 H973 0.959 . S
C967 H974 0.961 . S
C967 H975 0.960 . S
C968 C966 1.381 . S
C968 C969 1.394 . S
C968 H976 0.930 . S
C969 C968 1.394 . S
C969 C970 1.383 . S
C969 H977 0.929 . S
C970 C969 1.383 . S
C970 C971 1.377 . S
C971 H955 0.930 . S
C971 C970 1.377 . S
C971 C972 1.379 . S
C972 H956 0.931 . S
C972 C966 1.383 . S
C972 C971 1.379 . S
H973 C967 0.959 . S
H974 C967 0.961 . S
H975 C967 0.960 . S
H976 C968 0.930 . S
H977 C969 0.929 . S
H978 C986 0.929 . S
H979 C988 0.930 1_655 S
H980 C990 0.930 . S
H981 C993 0.929 . S
H982 C996 0.930 . S
H983 C998 0.960 . S
H984 C998 0.960 . S
H985 C998 0.960 . S
C986 H978 0.929 . S
C986 C987 1.377 . S
C986 C988 1.384 . S
C987 C986 1.377 . S
C987 C993 1.390 . S
C988 H979 0.930 1_455 S
C988 C986 1.384 . S
C988 C989 1.372 . S
C989 C988 1.372 . S
C989 C990 1.400 . S
C989 C994 1.490 1_455 S
C990 H980 0.930 . S
C990 C989 1.400 . S
C990 C993 1.386 . S
H991 C1007 0.930 . S
H992 C1008 0.931 . S
C993 H981 0.929 . S
C993 C987 1.390 . S
C993 C990 1.386 . S
C994 C989 1.490 1_655 S
C994 C996 1.395 . S
C994 C997 1.403 1_554 S
H995 C1001 0.930 . S
C996 H982 0.930 . S
C996 C994 1.395 . S
C996 C999 1.403 1_554 S
C997 C994 1.403 1_556 S
C997 C998 1.524 1_655 S
C997 C1001 1.400 . S
C998 H983 0.960 . S
C998 H984 0.960 . S
C998 H985 0.960 . S
C998 C997 1.524 1_455 S
C999 C996 1.403 1_556 S
C999 C1000 1.392 . S
C999 C1003 1.495 . S
C1000 C999 1.392 . S
C1000 C1001 1.385 . S
C1000 C1002 1.478 . S
C1001 H995 0.930 . S
C1001 C997 1.400 . S
C1001 C1000 1.385 . S
C1002 C1000 1.478 . S
C1002 C1004 1.381 . S
C1002 C1008 1.383 . S
C1003 C999 1.495 . S
C1003 H1009 0.959 1_556 S
C1003 H1010 0.961 . S
C1003 H1011 0.960 . S
C1004 C1002 1.381 . S
C1004 C1005 1.394 . S
C1004 H1012 0.930 . S
C1005 C1004 1.394 . S
C1005 C1006 1.383 . S
C1005 H1013 0.929 . S
C1006 C1005 1.383 . S
C1006 C1007 1.377 . S
C1007 H991 0.930 . S
C1007 C1006 1.377 . S
C1007 C1008 1.379 . S
C1008 H992 0.931 . S
C1008 C1002 1.383 . S
C1008 C1007 1.379 . S
H1009 C1003 0.959 1_554 S
H1010 C1003 0.961 . S
H1011 C1003 0.960 . S
H1012 C1004 0.930 . S
H1013 C1005 0.929 . S
H1014 C1022 0.929 . S
H1015 C1024 0.930 1_565 S
H1016 C1026 0.930 . S
H1017 C1029 0.929 . S
H1018 C1032 0.930 . S
H1019 C1034 0.960 . S
H1020 C1034 0.960 . S
H1021 C1034 0.960 . S
C1022 H1014 0.929 . S
C1022 C1023 1.377 . S
C1022 C1024 1.384 . S
C1023 C1022 1.377 . S
C1023 C1029 1.390 . S
C1024 H1015 0.930 1_545 S
C1024 C1022 1.384 . S
C1024 C1025 1.372 . S
C1025 C1024 1.372 . S
C1025 C1026 1.400 . S
C1025 C1030 1.490 . S
C1026 H1016 0.930 . S
C1026 C1025 1.400 . S
C1026 C1029 1.386 . S
H1027 C1043 0.930 . S
H1028 C1044 0.931 . S
C1029 H1017 0.929 . S
C1029 C1023 1.390 . S
C1029 C1026 1.386 . S
C1030 C1025 1.490 . S
C1030 C1032 1.395 1_545 S
C1030 C1033 1.403 . S
H1031 C1037 0.930 . S
C1032 H1018 0.930 . S
C1032 C1030 1.395 1_565 S
C1032 C1035 1.403 . S
C1033 C1030 1.403 . S
C1033 C1034 1.524 . S
C1033 C1037 1.400 1_545 S
C1034 H1019 0.960 . S
C1034 H1020 0.960 . S
C1034 H1021 0.960 . S
C1034 C1033 1.524 . S
C1035 C1032 1.403 . S
C1035 C1036 1.392 . S
C1035 C1039 1.495 . S
C1036 C1035 1.392 . S
C1036 C1037 1.385 . S
C1036 C1038 1.478 . S
C1037 H1031 0.930 . S
C1037 C1033 1.400 1_565 S
C1037 C1036 1.385 . S
C1038 C1036 1.478 . S
C1038 C1040 1.381 . S
C1038 C1044 1.383 . S
C1039 C1035 1.495 . S
C1039 H1045 0.959 . S
C1039 H1046 0.961 . S
C1039 H1047 0.960 . S
C1040 C1038 1.381 . S
C1040 C1041 1.394 . S
C1040 H1048 0.930 . S
C1041 C1040 1.394 . S
C1041 C1042 1.383 . S
C1041 H1049 0.929 . S
C1042 C1041 1.383 . S
C1042 C1043 1.377 . S
C1043 H1027 0.930 . S
C1043 C1042 1.377 . S
C1043 C1044 1.379 . S
C1044 H1028 0.931 . S
C1044 C1038 1.383 . S
C1044 C1043 1.379 . S
H1045 C1039 0.959 . S
H1046 C1039 0.961 . S
H1047 C1039 0.960 . S
H1048 C1040 0.930 . S
H1049 C1041 0.929 . S
C195 C11 1.245 . S
C214 C148 1.312 . S
C231 C179 1.315 . S
C250 C49 1.305 . S
C267 C24 1.336 . S
C286 C80 1.320 . S
C303 C31 1.300 . S
C322 C104 1.244 . S
C339 C135 1.275 . S
C358 C62 1.319 . S
C375 C166 1.254 . S
C394 C117 1.243 . S
C411 C18 0.876 . S
C430 C124 0.884 . S
C447 C42 0.846 . S
C466 C155 0.889 . S
C483 C0 0.912 . S
C502 C73 0.867 . S
C519 C55 0.866 . S
C538 C111 0.829 . S
C555 C86 0.869 . S
C574 C142 0.868 . S
C591 C173 0.848 . S
C610 C93 0.869 . S
C627 C2 1.802 . S
C646 C165 1.856 . S
C663 C32 1.904 . S
C682 C10 1.858 . S
C699 C63 1.748 . S
C718 C58 1.639 . S
C735 C95 1.672 . S
C754 C89 1.664 . S
C771 C103 1.680 . S
C790 C126 1.592 . S
C807 C157 1.533 . S
C826 C134 1.572 . S
C843 C120 1.352 . S
C862 C64 1.335 . S
C879 C151 1.451 . S
C898 C94 1.384 . S
C915 C182 1.531 . S
C934 C125 1.427 . S
C951 C156 1.260 . S
C970 C27 1.313 . S
C987 C1 1.157 . S
C1006 C41 1.201 . S
C1023 C33 1.372 . S
C1042 C72 1.362 . S
