# Generated by pormake.
# Topology msp, (4)-cn, num edge types: 1
# Building blocks:
#     Node 0, Type 0, BuildingBlock: NAWXER_clean_sbu_0, # of connection points: 4
#     Node 1, Type 0, BuildingBlock: NAWXER_clean_sbu_0, # of connection points: 4
#     Node 2, Type 0, BuildingBlock: NAWXER_clean_sbu_0, # of connection points: 4
#     Node 3, Type 0, BuildingBlock: NAWXER_clean_sbu_0, # of connection points: 4
#     Node 4, Type 0, BuildingBlock: NAWXER_clean_sbu_0, # of connection points: 4
#     Node 5, Type 0, BuildingBlock: NAWXER_clean_sbu_0, # of connection points: 4
#     Node 6, Type 0, BuildingBlock: NAWXER_clean_sbu_0, # of connection points: 4
#     Node 7, Type 0, BuildingBlock: NAWXER_clean_sbu_0, # of connection points: 4
#     Edge 8, Type (0, 0), BuildingBlock: CIFDUS_clean_linker_0, # of connection points: 2
#     Edge 9, Type (0, 0), BuildingBlock: CIFDUS_clean_linker_0, # of connection points: 2
#     Edge 10, Type (0, 0), BuildingBlock: CIFDUS_clean_linker_0, # of connection points: 2
#     Edge 11, Type (0, 0), BuildingBlock: CIFDUS_clean_linker_0, # of connection points: 2
#     Edge 12, Type (0, 0), BuildingBlock: CIFDUS_clean_linker_0, # of connection points: 2
#     Edge 13, Type (0, 0), BuildingBlock: CIFDUS_clean_linker_0, # of connection points: 2
#     Edge 14, Type (0, 0), BuildingBlock: CIFDUS_clean_linker_0, # of connection points: 2
#     Edge 15, Type (0, 0), BuildingBlock: CIFDUS_clean_linker_0, # of connection points: 2
#     Edge 16, Type (0, 0), BuildingBlock: CIFDUS_clean_linker_0, # of connection points: 2
#     Edge 17, Type (0, 0), BuildingBlock: CIFDUS_clean_linker_0, # of connection points: 2
#     Edge 18, Type (0, 0), BuildingBlock: CIFDUS_clean_linker_0, # of connection points: 2
#     Edge 19, Type (0, 0), BuildingBlock: CIFDUS_clean_linker_0, # of connection points: 2
#     Edge 20, Type (0, 0), BuildingBlock: CIFDUS_clean_linker_0, # of connection points: 2
#     Edge 21, Type (0, 0), BuildingBlock: CIFDUS_clean_linker_0, # of connection points: 2
#     Edge 22, Type (0, 0), BuildingBlock: CIFDUS_clean_linker_0, # of connection points: 2
#     Edge 23, Type (0, 0), BuildingBlock: CIFDUS_clean_linker_0, # of connection points: 2
# Relax obj value: 0.113
# Max RMSD: 0.238
# Mean RMSD: 0.238
data_MOF--net-msp--node1-NAWXER_clean_sbu_0--edge1-CIFDUS_clean_linker_0
_symmetry_space_group_name_H-M    P1
_symmetry_Int_Tables_number       1
_symmetry_cell_setting            triclinic
loop_
_symmetry_equiv_pos_as_xyz
'x, y, z'
_cell_length_a     19.958361
_cell_length_b     16.970445
_cell_length_c     38.419335
_cell_angle_alpha  89.825996
_cell_angle_beta   100.27935
_cell_angle_gamma 90.027581
loop_
_atom_site_label
_atom_site_type_symbol
_atom_site_fract_x
_atom_site_fract_y
_atom_site_fract_z
_atom_type_partial_charge
C0 C 0.12628 0.19362 0.41543 0.0
C1 C 0.91465 0.21637 0.33091 0.0
O2 O 0.11794 0.26187 0.40073 0.0
Zn3 Zn 0.04322 0.32288 0.36201 0.0
O4 O 0.08236 0.13979 0.40626 0.0
Zn5 Zn 0.02308 0.20512 0.37289 0.0
O6 O 0.08565 0.22212 0.33255 0.0
O7 O 0.09478 0.35066 0.3264 0.0
O8 O 0.93962 0.15812 0.34951 0.0
O9 O 0.94785 0.28142 0.33303 0.0
O10 O 0.02024 0.40797 0.3906 0.0
O11 O 0.9943 0.29109 0.40963 0.0
C12 C 0.10935 0.28149 0.3178 0.0
C13 C 0.99823 0.36621 0.41362 0.0
C14 C 0.38287 0.34472 0.69087 0.0
C15 C 0.50575 0.43775 0.60016 0.0
O16 O 0.41323 0.28797 0.67802 0.0
Zn17 Zn 0.48235 0.2756 0.64105 0.0
O18 O 0.39284 0.41493 0.68158 0.0
Zn19 Zn 0.45344 0.39242 0.64917 0.0
O20 O 0.39054 0.32841 0.60726 0.0
O21 O 0.43106 0.20728 0.60564 0.0
O22 O 0.47703 0.47847 0.62104 0.0
O23 O 0.51405 0.36337 0.60562 0.0
O24 O 0.56548 0.23504 0.66837 0.0
O25 O 0.54783 0.35848 0.68165 0.0
C26 C 0.38861 0.26026 0.59279 0.0
C27 C 0.58465 0.29611 0.68637 0.0
C28 C 0.89653 0.67856 0.69407 0.0
C29 C 0.99806 0.59707 0.59473 0.0
O30 O 0.90118 0.61067 0.68106 0.0
Zn31 Zn 0.95727 0.63835 0.64777 0.0
O32 O 0.92863 0.73657 0.683 0.0
Zn33 Zn 0.99428 0.75153 0.64351 0.0
O34 O 0.94744 0.83372 0.61462 0.0
O35 O 0.89253 0.7201 0.61261 0.0
O36 O 0.01198 0.6698 0.60208 0.0
O37 O 0.96992 0.55612 0.61573 0.0
O38 O 0.05609 0.65706 0.67991 0.0
O39 O 0.08191 0.77974 0.66954 0.0
C40 C 0.89572 0.79207 0.6024 0.0
C41 C 0.09757 0.71529 0.68561 0.0
C42 C 0.42402 0.80663 0.3336 0.0
C43 C 0.61818 0.82251 0.42984 0.0
O44 O 0.44349 0.86354 0.35428 0.0
Zn45 Zn 0.52563 0.81796 0.38011 0.0
O46 O 0.46018 0.74364 0.33576 0.0
Zn47 Zn 0.55365 0.70284 0.36769 0.0
O48 O 0.52739 0.61145 0.39234 0.0
O49 O 0.49067 0.72389 0.41082 0.0
O50 O 0.61562 0.7576 0.41272 0.0
O51 O 0.57682 0.87794 0.41892 0.0
O52 O 0.59512 0.81335 0.3433 0.0
O53 O 0.6162 0.68797 0.33532 0.0
C54 C 0.49745 0.64883 0.41382 0.0
C55 C 0.62609 0.75992 0.32867 0.0
C56 C 0.64616 0.80957 0.8243 0.0
C57 C 0.52275 0.88137 0.9176 0.0
O58 O 0.61484 0.74999 0.83445 0.0
Zn59 Zn 0.54502 0.72869 0.87049 0.0
O60 O 0.63692 0.87725 0.83653 0.0
Zn61 Zn 0.57572 0.84641 0.86745 0.0
O62 O 0.63823 0.77239 0.90632 0.0
O63 O 0.59512 0.65172 0.9019 0.0
O64 O 0.55189 0.92615 0.89832 0.0
O65 O 0.51452 0.80807 0.90959 0.0
O66 O 0.46183 0.69379 0.84131 0.0
O67 O 0.48178 0.81924 0.8328 0.0
C68 C 0.6395 0.70043 0.91674 0.0
C69 C 0.44417 0.75808 0.82543 0.0
C70 C 0.89619 0.81564 0.19957 0.0
C71 C 0.99286 0.92704 0.1026 0.0
O72 O 0.92468 0.76237 0.18348 0.0
Zn73 Zn 0.98386 0.7591 0.14109 0.0
O74 O 0.90225 0.8876 0.19148 0.0
Zn75 Zn 0.95427 0.87178 0.15466 0.0
O76 O 0.88178 0.80649 0.11648 0.0
O77 O 0.92798 0.69119 0.10793 0.0
O78 O 0.97065 0.96314 0.12712 0.0
O79 O 1.00149 0.85213 0.10499 0.0
O80 O 0.07213 0.71967 0.16235 0.0
O81 O 0.05269 0.83675 0.18279 0.0
C82 C 0.87845 0.73923 0.10101 0.0
C83 C 0.09161 0.77655 0.18298 0.0
C84 C 0.498 0.08551 0.10213 0.0
C85 C 0.38146 0.15754 0.19845 0.0
O86 O 0.4763 0.04 0.12399 0.0
Zn87 Zn 0.44871 0.12085 0.15391 0.0
O88 O 0.49843 0.16019 0.10727 0.0
Zn89 Zn 0.46496 0.24106 0.14391 0.0
O90 O 0.54618 0.29176 0.16809 0.0
O91 O 0.54151 0.16723 0.18369 0.0
O92 O 0.40376 0.21813 0.18397 0.0
O93 O 0.39749 0.08903 0.18952 0.0
O94 O 0.37148 0.17925 0.11611 0.0
O95 O 0.40259 0.30321 0.11068 0.0
C96 C 0.57241 0.23384 0.18657 0.0
C97 C 0.36029 0.24755 0.10183 0.0
C98 C 0.93179 0.22468 0.82282 0.0
C99 C 0.12868 0.27318 0.9138 0.0
O100 O 0.94893 0.28534 0.8414 0.0
Zn101 Zn 0.03397 0.24852 0.86774 0.0
O102 O 0.97084 0.16411 0.82689 0.0
Zn103 Zn 0.0666 0.1347 0.85956 0.0
O104 O 0.04548 0.04609 0.88652 0.0
O105 O 0.0087 0.15856 0.90476 0.0
O106 O 0.12915 0.20329 0.90108 0.0
O107 O 0.08276 0.32202 0.90075 0.0
O108 O 0.10209 0.24011 0.82974 0.0
O109 O 0.12658 0.11412 0.82691 0.0
C110 C 0.01801 0.08382 0.90877 0.0
C111 C 0.13388 0.18443 0.81699 0.0
H112 H 0.03925 0.51075 0.4399 0.0
H113 H 0.93422 0.30036 0.46373 0.0
H114 H 0.92777 0.35187 0.52231 0.0
H115 H 0.95404 0.45491 0.5672 0.0
H116 H 0.05978 0.66519 0.54389 0.0
H117 H 0.06486 0.61468 0.48488 0.0
C118 C 0.01403 0.47661 0.45769 0.0
C119 C 0.98677 0.40195 0.44726 0.0
C120 C 0.01172 0.50591 0.49168 0.0
C121 C 0.95529 0.3581 0.47094 0.0
C122 C 0.95195 0.38732 0.50456 0.0
C123 C 0.97879 0.48956 0.54939 0.0
C124 C 0.00693 0.56362 0.56017 0.0
C125 C 0.9807 0.46068 0.51535 0.0
C126 C 0.03811 0.60783 0.53647 0.0
C127 C 0.04066 0.57918 0.5026 0.0
H128 H 0.55734 0.51742 0.44639 0.0
H129 H 0.4101 0.69847 0.45604 0.0
H130 H 0.40403 0.65304 0.51574 0.0
H131 H 0.4431 0.56494 0.56594 0.0
H132 H 0.58936 0.38272 0.55657 0.0
H133 H 0.59453 0.42678 0.49639 0.0
C134 C 0.52271 0.54573 0.46123 0.0
C135 C 0.48361 0.61073 0.44656 0.0
C136 C 0.52078 0.52056 0.496 0.0
C137 C 0.44023 0.64786 0.46654 0.0
C138 C 0.43727 0.62245 0.50085 0.0
C139 C 0.47707 0.53571 0.551 0.0
C140 C 0.51674 0.4715 0.566 0.0
C141 C 0.47826 0.55987 0.51609 0.0
C142 C 0.55902 0.43299 0.54584 0.0
C143 C 0.56148 0.45767 0.51129 0.0
H144 H 0.46213 0.94349 0.07123 0.0
H145 H 0.56667 0.16039 0.05642 0.0
H146 H 0.57994 0.11837 0.99735 0.0
H147 H 0.56002 0.02161 0.94941 0.0
H148 H 0.45538 0.8045 0.96377 0.0
H149 H 0.443 0.84573 0.02318 0.0
C150 C 0.48874 0.98103 0.0553 0.0
C151 C 0.51377 0.0548 0.0684 0.0
C152 C 0.49504 0.95718 0.02097 0.0
C153 C 0.54716 0.1032 0.04711 0.0
C154 C 0.5544 0.07944 0.0132 0.0
C155 C 0.53371 0.98361 0.96531 0.0
C156 C 0.50806 0.91034 0.95189 0.0
C157 C 0.52779 0.00704 0.99968 0.0
C158 C 0.47507 0.86152 0.97321 0.0
C159 C 0.46841 0.88479 1.00733 0.0
H160 H 1.00236 0.86211 0.03916 0.0
H161 H 0.99817 0.0864 0.09135 0.0
H162 H 1.00098 0.15486 0.03547 0.0
H163 H 1.00401 0.15085 0.97157 0.0
H164 H 0.00873 0.92585 0.91997 0.0
H165 H 1.0046 0.85803 0.97565 0.0
C166 C 1.00276 0.92601 0.03847 0.0
C167 C 1.00063 0.96898 0.06956 0.0
C168 C 1.00313 0.96493 1.00616 0.0
C169 C 1.00013 0.05179 0.06791 0.0
C170 C 1.00133 0.091 0.0359 0.0
C171 C 1.00316 0.08698 0.97239 0.0
C172 C 0.00626 0.04356 0.9415 0.0
C173 C 1.00226 0.04817 1.00477 0.0
C174 C 0.00609 0.96079 0.94324 0.0
C175 C 1.00417 0.92189 0.97515 0.0
H176 H 0.63275 0.12883 0.23599 0.0
H177 H 0.65854 0.3605 0.19354 0.0
H178 H 0.76603 0.37606 0.2347 0.0
H179 H 0.85335 0.32338 0.28242 0.0
H180 H 0.82656 0.09198 0.32497 0.0
H181 H 0.71818 0.07796 0.28461 0.0
C182 C 0.66188 0.18272 0.23565 0.0
C183 C 0.63766 0.24321 0.21156 0.0
C184 C 0.72347 0.19153 0.25951 0.0
C185 C 0.67594 0.31287 0.21174 0.0
C186 C 0.73748 0.32187 0.23529 0.0
C187 C 0.82389 0.26978 0.28285 0.0
C188 C 0.84835 0.20877 0.30665 0.0
C189 C 0.76183 0.2615 0.25924 0.0
C190 C 0.80932 0.13977 0.30683 0.0
C191 C 0.74739 0.13144 0.28364 0.0
H192 H 0.67024 0.17214 0.70564 0.0
H193 H 0.64277 0.41877 0.72673 0.0
H194 H 0.74716 0.41803 0.77078 0.0
H195 H 0.84594 0.34769 0.80346 0.0
H196 H 0.87423 0.10126 0.78245 0.0
H197 H 0.7696 0.10167 0.73835 0.0
C198 C 0.68707 0.22578 0.71983 0.0
C199 C 0.64854 0.29537 0.71284 0.0
C200 C 0.74719 0.22498 0.74524 0.0
C201 C 0.67122 0.36429 0.73155 0.0
C202 C 0.73098 0.36398 0.75679 0.0
C203 C 0.82925 0.29394 0.78932 0.0
C204 C 0.86795 0.22454 0.79633 0.0
C205 C 0.76925 0.29466 0.7639 0.0
C206 C 0.84555 0.15557 0.7776 0.0
C207 C 0.78568 0.15574 0.75235 0.0
H208 H 0.18695 0.83255 0.70866 0.0
H209 H 0.15266 0.58368 0.72125 0.0
H210 H 0.25697 0.57492 0.76549 0.0
H211 H 0.35695 0.63844 0.80121 0.0
H212 H 0.38985 0.8877 0.78859 0.0
H213 H 0.28673 0.89562 0.74384 0.0
C214 C 0.2023 0.7762 0.72093 0.0
C215 C 0.16192 0.70888 0.71158 0.0
C216 C 0.26193 0.7717 0.7465 0.0
C217 C 0.18264 0.63649 0.72793 0.0
C218 C 0.24228 0.63142 0.75327 0.0
C219 C 0.34159 0.69454 0.7887 0.0
C220 C 0.3812 0.76239 0.79836 0.0
C221 C 0.28212 0.69875 0.76289 0.0
C222 C 0.36048 0.83451 0.78175 0.0
C223 C 0.30147 0.83914 0.75611 0.0
H224 H 0.37656 0.70596 0.2796 0.0
H225 H 0.32659 0.92102 0.32904 0.0
H226 H 0.21963 0.9301 0.28702 0.0
H227 H 0.14112 0.87907 0.23572 0.0
H228 H 0.19029 0.66361 0.18637 0.0
H229 H 0.29733 0.65404 0.22834 0.0
C230 C 0.34249 0.75511 0.28109 0.0
C231 C 0.35981 0.81271 0.30747 0.0
C232 C 0.28135 0.7608 0.25652 0.0
C233 C 0.31492 0.87601 0.30894 0.0
C234 C 0.25381 0.88157 0.28482 0.0
C235 C 0.17533 0.83015 0.23401 0.0
C236 C 0.15758 0.77228 0.20783 0.0
C237 C 0.23667 0.82463 0.25839 0.0
C238 C 0.20253 0.7091 0.2062 0.0
C239 C 0.26383 0.7035 0.23023 0.0
H240 H 0.31847 0.29243 0.21258 0.0
H241 H 0.33526 0.04532 0.23985 0.0
H242 H 0.25136 0.0618 0.27847 0.0
H243 H 0.17186 0.14537 0.30379 0.0
H244 H 0.1556 0.39239 0.27628 0.0
H245 H 0.23978 0.37614 0.238 0.0
C246 C 0.30412 0.24207 0.22708 0.0
C247 C 0.33338 0.16782 0.22336 0.0
C248 C 0.25512 0.25149 0.24881 0.0
C249 C 0.31365 0.10319 0.24219 0.0
C250 C 0.2654 0.11237 0.26415 0.0
C251 C 0.1863 0.19554 0.28921 0.0
C252 C 0.15714 0.26991 0.29284 0.0
C253 C 0.23538 0.18605 0.26745 0.0
C254 C 0.17704 0.33441 0.27397 0.0
C255 C 0.22537 0.32527 0.25212 0.0
H256 H 0.3458 0.2015 0.71319 0.0
H257 H 0.31139 0.45088 0.72348 0.0
H258 H 0.23034 0.42336 0.76265 0.0
H259 H 0.16943 0.32853 0.79425 0.0
H260 H 0.20437 0.07929 0.78374 0.0
H261 H 0.28468 0.10698 0.74436 0.0
C262 C 0.32079 0.24996 0.72405 0.0
C263 C 0.33495 0.32813 0.7154 0.0
C264 C 0.27406 0.23381 0.74649 0.0
C265 C 0.30172 0.39008 0.72969 0.0
C266 C 0.25522 0.37444 0.75209 0.0
C267 C 0.19437 0.28023 0.78324 0.0
C268 C 0.18068 0.20194 0.79199 0.0
C269 C 0.24093 0.29652 0.76066 0.0
C270 C 0.21376 0.14015 0.77752 0.0
C271 C 0.25988 0.15589 0.75499 0.0
H272 H 0.68666 0.67173 0.79887 0.0
H273 H 0.7153 0.92351 0.79447 0.0
H274 H 0.7971 0.90535 0.75485 0.0
H275 H 0.85984 0.81777 0.7209 0.0
H276 H 0.8303 0.56607 0.72573 0.0
H277 H 0.75003 0.58462 0.76584 0.0
C278 C 0.71057 0.72275 0.78919 0.0
C279 C 0.69456 0.79884 0.79957 0.0
C280 C 0.7578 0.71192 0.76658 0.0
C281 C 0.72649 0.86419 0.78688 0.0
C282 C 0.77342 0.85389 0.76425 0.0
C283 C 0.83623 0.76697 0.73094 0.0
C284 C 0.85124 0.69069 0.72025 0.0
C285 C 0.78951 0.77798 0.75392 0.0
C286 C 0.81982 0.62553 0.73342 0.0
C287 C 0.7737 0.636 0.75636 0.0
H288 H 0.81521 0.91108 0.23099 0.0
H289 H 0.87756 0.66852 0.22566 0.0
H290 H 0.79948 0.62969 0.26491 0.0
H291 H 0.71151 0.66425 0.29979 0.0
H292 H 0.64898 0.90704 0.30436 0.0
H293 H 0.72853 0.94544 0.26597 0.0
C294 C 0.81222 0.84975 0.2386 0.0
C295 C 0.85242 0.79292 0.22539 0.0
C296 C 0.76667 0.82763 0.26086 0.0
C297 C 0.84737 0.71364 0.23543 0.0
C298 C 0.80255 0.69129 0.25783 0.0
C299 C 0.71522 0.72561 0.29241 0.0
C300 C 0.67407 0.78253 0.30496 0.0
C301 C 0.76153 0.7477 0.27048 0.0
C302 C 0.67991 0.86185 0.29519 0.0
C303 C 0.72556 0.88407 0.2733 0.0
H304 H 0.31511 0.13216 0.56324 0.0
H305 H 0.37309 0.37053 0.54241 0.0
H306 H 0.30527 0.36534 0.48347 0.0
H307 H 0.22319 0.29912 0.43995 0.0
H308 H 0.15341 0.06558 0.46027 0.0
H309 H 0.23329 0.06185 0.51679 0.0
C310 C 0.31271 0.18246 0.54559 0.0
C311 C 0.34771 0.25207 0.55724 0.0
C312 C 0.27186 0.17994 0.51167 0.0
C313 C 0.34507 0.31697 0.53425 0.0
C314 C 0.30678 0.31397 0.50044 0.0
C315 C 0.22567 0.24679 0.45643 0.0
C316 C 0.1819 0.18315 0.44608 0.0
C317 C 0.26897 0.24656 0.4892 0.0
C318 C 0.18655 0.1156 0.4677 0.0
C319 C 0.23181 0.1137 0.50013 0.0
H320 H 0.77193 0.72913 0.57964 0.0
H321 H 0.90095 0.92268 0.5606 0.0
H322 H 0.82128 0.95687 0.5065 0.0
H323 H 0.72179 0.91996 0.46051 0.0
H324 H 0.59848 0.7215 0.47998 0.0
H325 H 0.66848 0.70128 0.53796 0.0
C326 C 0.78226 0.77951 0.56395 0.0
C327 C 0.84264 0.82245 0.57376 0.0
C328 C 0.73734 0.79752 0.53269 0.0
C329 C 0.85479 0.88836 0.55347 0.0
C330 C 0.80948 0.90766 0.52242 0.0
C331 C 0.70993 0.87356 0.47791 0.0
C332 C 0.65588 0.82176 0.46621 0.0
C333 C 0.75165 0.86099 0.51112 0.0
C334 C 0.64052 0.76144 0.4886 0.0
C335 C 0.68044 0.74981 0.52168 0.0
H336 H 0.87235 0.63619 0.04615 0.0
H337 H 0.75394 0.8074 0.09202 0.0
H338 H 0.66521 0.80245 0.03962 0.0
H339 H 0.62897 0.76383 0.97816 0.0
H340 H 0.7462 0.59621 0.93024 0.0
H341 H 0.82794 0.58451 0.9862 0.0
C342 C 0.82636 0.67087 0.04496 0.0
C343 C 0.82004 0.72291 0.07266 0.0
C344 C 0.77603 0.66909 0.0143 0.0
C345 C 0.76031 0.76767 0.07082 0.0
C346 C 0.70963 0.76505 0.04087 0.0
C347 C 0.6719 0.72368 0.98032 0.0
C348 C 0.68259 0.68132 0.95059 0.0
C349 C 0.71823 0.71831 0.01205 0.0
C350 C 0.73759 0.6291 0.95316 0.0
C351 C 0.78419 0.62286 0.98498 0.0
H352 H 0.34416 0.35735 0.04886 0.0
H353 H 0.2477 0.15611 0.08827 0.0
H354 H 0.1653 0.14964 0.03347 0.0
H355 H 0.12972 0.19035 0.97219 0.0
H356 H 0.22134 0.3925 0.93158 0.0
H357 H 0.29749 0.40951 0.98904 0.0
C358 C 0.30409 0.3134 0.04571 0.0
C359 C 0.30263 0.2565 0.07229 0.0
C360 C 0.2573 0.30912 0.01376 0.0
C361 C 0.25043 0.19985 0.06796 0.0
C362 C 0.20348 0.19581 0.03661 0.0
C363 C 0.16614 0.23844 0.97613 0.0
C364 C 0.17159 0.28918 0.94801 0.0
C365 C 0.20816 0.24817 0.00896 0.0
C366 C 0.21743 0.35241 0.95312 0.0
C367 C 0.26061 0.36201 0.98584 0.0
loop_
_geom_bond_atom_site_label_1
_geom_bond_atom_site_label_2
_geom_bond_distance
_geom_bond_site_symmetry_2
_ccdc_geom_bond_type
C0 O2 1.247 . S
C0 O4 1.258 . S
C1 O8 1.247 . S
C1 O9 1.258 . S
O2 C0 1.247 . S
O2 Zn3 2.028 . S
Zn3 O2 2.028 . S
Zn3 O7 2.035 . S
Zn3 O9 2.035 1_455 S
Zn3 O10 2.028 . S
O4 C0 1.258 . S
O4 Zn5 2.035 . S
Zn5 O4 2.035 . S
Zn5 O6 2.028 . S
Zn5 O8 2.028 1_455 S
Zn5 O11 2.035 1_455 S
O6 Zn5 2.028 . S
O6 C12 1.247 . S
O7 Zn3 2.035 . S
O7 C12 1.258 . S
O8 C1 1.247 . S
O8 Zn5 2.028 1_655 S
O9 C1 1.258 . S
O9 Zn3 2.035 1_655 S
O10 Zn3 2.028 . S
O10 C13 1.247 1_455 S
O11 Zn5 2.035 1_655 S
O11 C13 1.258 . S
C12 O6 1.247 . S
C12 O7 1.258 . S
C13 O10 1.247 1_655 S
C13 O11 1.258 . S
C14 O16 1.247 . S
C14 O18 1.258 . S
C15 O22 1.247 . S
C15 O23 1.258 . S
O16 C14 1.247 . S
O16 Zn17 2.028 . S
Zn17 O16 2.028 . S
Zn17 O21 2.035 . S
Zn17 O23 2.035 . S
Zn17 O24 2.028 . S
O18 C14 1.258 . S
O18 Zn19 2.035 . S
Zn19 O18 2.035 . S
Zn19 O20 2.028 . S
Zn19 O22 2.028 . S
Zn19 O25 2.035 . S
O20 Zn19 2.028 . S
O20 C26 1.247 . S
O21 Zn17 2.035 . S
O21 C26 1.258 . S
O22 C15 1.247 . S
O22 Zn19 2.028 . S
O23 C15 1.258 . S
O23 Zn17 2.035 . S
O24 Zn17 2.028 . S
O24 C27 1.247 . S
O25 Zn19 2.035 . S
O25 C27 1.258 . S
C26 O20 1.247 . S
C26 O21 1.258 . S
C27 O24 1.247 . S
C27 O25 1.258 . S
C28 O30 1.247 . S
C28 O32 1.258 . S
C29 O36 1.247 . S
C29 O37 1.258 1_455 S
O30 C28 1.247 . S
O30 Zn31 2.028 . S
Zn31 O30 2.028 . S
Zn31 O35 2.035 . S
Zn31 O37 2.035 . S
Zn31 O38 2.028 1_655 S
O32 C28 1.258 . S
O32 Zn33 2.035 . S
Zn33 O32 2.035 . S
Zn33 O34 2.028 . S
Zn33 O36 2.028 1_655 S
Zn33 O39 2.035 1_655 S
O34 Zn33 2.028 . S
O34 C40 1.247 . S
O35 Zn31 2.035 . S
O35 C40 1.258 . S
O36 C29 1.247 . S
O36 Zn33 2.028 1_455 S
O37 C29 1.258 1_655 S
O37 Zn31 2.035 . S
O38 Zn31 2.028 1_455 S
O38 C41 1.247 . S
O39 Zn33 2.035 1_455 S
O39 C41 1.258 . S
C40 O34 1.247 . S
C40 O35 1.258 . S
C41 O38 1.247 . S
C41 O39 1.258 . S
C42 O44 1.247 . S
C42 O46 1.258 . S
C43 O50 1.247 . S
C43 O51 1.258 . S
O44 C42 1.247 . S
O44 Zn45 2.028 . S
Zn45 O44 2.028 . S
Zn45 O49 2.035 . S
Zn45 O51 2.035 . S
Zn45 O52 2.028 . S
O46 C42 1.258 . S
O46 Zn47 2.035 . S
Zn47 O46 2.035 . S
Zn47 O48 2.028 . S
Zn47 O50 2.028 . S
Zn47 O53 2.035 . S
O48 Zn47 2.028 . S
O48 C54 1.247 . S
O49 Zn45 2.035 . S
O49 C54 1.258 . S
O50 C43 1.247 . S
O50 Zn47 2.028 . S
O51 C43 1.258 . S
O51 Zn45 2.035 . S
O52 Zn45 2.028 . S
O52 C55 1.247 . S
O53 Zn47 2.035 . S
O53 C55 1.258 . S
C54 O48 1.247 . S
C54 O49 1.258 . S
C55 O52 1.247 . S
C55 O53 1.258 . S
C56 O58 1.247 . S
C56 O60 1.258 . S
C57 O64 1.247 . S
C57 O65 1.258 . S
O58 C56 1.247 . S
O58 Zn59 2.028 . S
Zn59 O58 2.028 . S
Zn59 O63 2.035 . S
Zn59 O65 2.035 . S
Zn59 O66 2.028 . S
O60 C56 1.258 . S
O60 Zn61 2.035 . S
Zn61 O60 2.035 . S
Zn61 O62 2.028 . S
Zn61 O64 2.028 . S
Zn61 O67 2.035 . S
O62 Zn61 2.028 . S
O62 C68 1.247 . S
O63 Zn59 2.035 . S
O63 C68 1.258 . S
O64 C57 1.247 . S
O64 Zn61 2.028 . S
O65 C57 1.258 . S
O65 Zn59 2.035 . S
O66 Zn59 2.028 . S
O66 C69 1.247 . S
O67 Zn61 2.035 . S
O67 C69 1.258 . S
C68 O62 1.247 . S
C68 O63 1.258 . S
C69 O66 1.247 . S
C69 O67 1.258 . S
C70 O72 1.247 . S
C70 O74 1.258 . S
C71 O78 1.247 1_455 S
C71 O79 1.258 . S
O72 C70 1.247 . S
O72 Zn73 2.028 . S
Zn73 O72 2.028 . S
Zn73 O77 2.035 . S
Zn73 O79 2.035 1_655 S
Zn73 O80 2.028 1_655 S
O74 C70 1.258 . S
O74 Zn75 2.035 . S
Zn75 O74 2.035 . S
Zn75 O76 2.028 . S
Zn75 O78 2.028 . S
Zn75 O81 2.035 1_655 S
O76 Zn75 2.028 . S
O76 C82 1.247 . S
O77 Zn73 2.035 . S
O77 C82 1.258 . S
O78 C71 1.247 1_655 S
O78 Zn75 2.028 . S
O79 C71 1.258 . S
O79 Zn73 2.035 1_455 S
O80 Zn73 2.028 1_455 S
O80 C83 1.247 . S
O81 Zn75 2.035 1_455 S
O81 C83 1.258 . S
C82 O76 1.247 . S
C82 O77 1.258 . S
C83 O80 1.247 . S
C83 O81 1.258 . S
C84 O86 1.247 . S
C84 O88 1.258 . S
C85 O92 1.247 . S
C85 O93 1.258 . S
O86 C84 1.247 . S
O86 Zn87 2.028 . S
Zn87 O86 2.028 . S
Zn87 O91 2.035 . S
Zn87 O93 2.035 . S
Zn87 O94 2.028 . S
O88 C84 1.258 . S
O88 Zn89 2.035 . S
Zn89 O88 2.035 . S
Zn89 O90 2.028 . S
Zn89 O92 2.028 . S
Zn89 O95 2.035 . S
O90 Zn89 2.028 . S
O90 C96 1.247 . S
O91 Zn87 2.035 . S
O91 C96 1.258 . S
O92 C85 1.247 . S
O92 Zn89 2.028 . S
O93 C85 1.258 . S
O93 Zn87 2.035 . S
O94 Zn87 2.028 . S
O94 C97 1.247 . S
O95 Zn89 2.035 . S
O95 C97 1.258 . S
C96 O90 1.247 . S
C96 O91 1.258 . S
C97 O94 1.247 . S
C97 O95 1.258 . S
C98 O100 1.247 . S
C98 O102 1.258 . S
C99 O106 1.247 . S
C99 O107 1.258 . S
O100 C98 1.247 . S
O100 Zn101 2.028 1_655 S
Zn101 O100 2.028 1_455 S
Zn101 O105 2.035 1_455 S
Zn101 O107 2.035 . S
Zn101 O108 2.028 . S
O102 C98 1.258 . S
O102 Zn103 2.035 1_655 S
Zn103 O102 2.035 1_455 S
Zn103 O104 2.028 . S
Zn103 O106 2.028 . S
Zn103 O109 2.035 . S
O104 Zn103 2.028 . S
O104 C110 1.247 1_455 S
O105 Zn101 2.035 1_655 S
O105 C110 1.258 . S
O106 C99 1.247 . S
O106 Zn103 2.028 . S
O107 C99 1.258 . S
O107 Zn101 2.035 . S
O108 Zn101 2.028 . S
O108 C111 1.247 . S
O109 Zn103 2.035 . S
O109 C111 1.258 . S
C110 O104 1.247 1_655 S
C110 O105 1.258 . S
C111 O108 1.247 . S
C111 O109 1.258 . S
H112 C118 0.930 . S
H113 C121 0.930 . S
H114 C122 0.930 . S
H115 C123 0.930 . S
H116 C126 0.930 . S
H117 C127 0.930 . S
C118 H112 0.930 . S
C118 C119 1.355 1_455 S
C118 C120 1.415 . S
C119 C118 1.355 1_655 S
C119 C121 1.419 . S
C120 C118 1.415 . S
C120 C125 1.425 1_455 S
C120 C127 1.409 . S
C121 H113 0.930 . S
C121 C119 1.419 . S
C121 C122 1.362 . S
C122 H114 0.930 . S
C122 C121 1.362 . S
C122 C125 1.409 . S
C123 H115 0.930 . S
C123 C124 1.355 1_655 S
C123 C125 1.415 . S
C124 C123 1.355 1_455 S
C124 C126 1.419 . S
C125 C120 1.425 1_655 S
C125 C122 1.409 . S
C125 C123 1.415 . S
C126 H116 0.930 . S
C126 C124 1.419 . S
C126 C127 1.362 . S
C127 H117 0.930 . S
C127 C120 1.409 . S
C127 C126 1.362 . S
H128 C134 0.930 . S
H129 C137 0.930 . S
H130 C138 0.930 . S
H131 C139 0.930 . S
H132 C142 0.930 . S
H133 C143 0.930 . S
C134 H128 0.930 . S
C134 C135 1.355 . S
C134 C136 1.415 . S
C135 C134 1.355 . S
C135 C137 1.419 . S
C136 C134 1.415 . S
C136 C141 1.425 . S
C136 C143 1.409 . S
C137 H129 0.930 . S
C137 C135 1.419 . S
C137 C138 1.362 . S
C138 H130 0.930 . S
C138 C137 1.362 . S
C138 C141 1.409 . S
C139 H131 0.930 . S
C139 C140 1.355 . S
C139 C141 1.415 . S
C140 C139 1.355 . S
C140 C142 1.419 . S
C141 C136 1.425 . S
C141 C138 1.409 . S
C141 C139 1.415 . S
C142 H132 0.930 . S
C142 C140 1.419 . S
C142 C143 1.362 . S
C143 H133 0.930 . S
C143 C136 1.409 . S
C143 C142 1.362 . S
H144 C150 0.930 . S
H145 C153 0.930 . S
H146 C154 0.930 . S
H147 C155 0.930 . S
H148 C158 0.930 . S
H149 C159 0.930 . S
C150 H144 0.930 . S
C150 C151 1.355 . S
C150 C152 1.415 1_545 S
C151 C150 1.355 . S
C151 C153 1.419 . S
C152 C150 1.415 1_565 S
C152 C157 1.425 1_564 S
C152 C159 1.409 . S
C153 H145 0.930 . S
C153 C151 1.419 . S
C153 C154 1.362 1_554 S
C154 H146 0.930 . S
C154 C153 1.362 1_556 S
C154 C157 1.409 . S
C155 H147 0.930 . S
C155 C156 1.355 . S
C155 C157 1.415 1_565 S
C156 C155 1.355 . S
C156 C158 1.419 . S
C157 C152 1.425 1_546 S
C157 C154 1.409 . S
C157 C155 1.415 1_545 S
C158 H148 0.930 . S
C158 C156 1.419 . S
C158 C159 1.362 1_556 S
C159 H149 0.930 . S
C159 C152 1.409 . S
C159 C158 1.362 1_554 S
H160 C166 0.930 . S
H161 C169 0.930 . S
H162 C170 0.930 . S
H163 C171 0.930 . S
H164 C174 0.930 . S
H165 C175 0.930 . S
C166 H160 0.930 . S
C166 C167 1.355 1_655 S
C166 C168 1.415 1_554 S
C167 C166 1.355 1_455 S
C167 C169 1.419 . S
C168 C166 1.415 1_556 S
C168 C173 1.425 1_666 S
C168 C175 1.409 . S
C169 H161 0.930 . S
C169 C167 1.419 . S
C169 C170 1.362 1_565 S
C170 H162 0.930 . S
C170 C169 1.362 1_545 S
C170 C173 1.409 . S
C171 H163 0.930 . S
C171 C172 1.355 1_455 S
C171 C173 1.415 1_556 S
C172 C171 1.355 1_655 S
C172 C174 1.419 . S
C173 C168 1.425 1_444 S
C173 C170 1.409 . S
C173 C171 1.415 1_554 S
C174 H164 0.930 . S
C174 C172 1.419 . S
C174 C175 1.362 1_545 S
C175 H165 0.930 . S
C175 C168 1.409 . S
C175 C174 1.362 1_565 S
H176 C182 0.930 . S
H177 C185 0.930 . S
H178 C186 0.930 . S
H179 C187 0.930 . S
H180 C190 0.930 . S
H181 C191 0.930 . S
C182 H176 0.930 . S
C182 C183 1.355 . S
C182 C184 1.415 . S
C183 C182 1.355 . S
C183 C185 1.419 . S
C184 C182 1.415 . S
C184 C189 1.425 . S
C184 C191 1.409 . S
C185 H177 0.930 . S
C185 C183 1.419 . S
C185 C186 1.362 . S
C186 H178 0.930 . S
C186 C185 1.362 . S
C186 C189 1.409 . S
C187 H179 0.930 . S
C187 C188 1.355 . S
C187 C189 1.415 . S
C188 C187 1.355 . S
C188 C190 1.419 . S
C189 C184 1.425 . S
C189 C186 1.409 . S
C189 C187 1.415 . S
C190 H180 0.930 . S
C190 C188 1.419 . S
C190 C191 1.362 . S
C191 H181 0.930 . S
C191 C184 1.409 . S
C191 C190 1.362 . S
H192 C198 0.930 . S
H193 C201 0.930 . S
H194 C202 0.930 . S
H195 C203 0.930 . S
H196 C206 0.930 . S
H197 C207 0.930 . S
C198 H192 0.930 . S
C198 C199 1.355 . S
C198 C200 1.415 . S
C199 C198 1.355 . S
C199 C201 1.419 . S
C200 C198 1.415 . S
C200 C205 1.425 . S
C200 C207 1.409 . S
C201 H193 0.930 . S
C201 C199 1.419 . S
C201 C202 1.362 . S
C202 H194 0.930 . S
C202 C201 1.362 . S
C202 C205 1.409 . S
C203 H195 0.930 . S
C203 C204 1.355 . S
C203 C205 1.415 . S
C204 C203 1.355 . S
C204 C206 1.419 . S
C205 C200 1.425 . S
C205 C202 1.409 . S
C205 C203 1.415 . S
C206 H196 0.930 . S
C206 C204 1.419 . S
C206 C207 1.362 . S
C207 H197 0.930 . S
C207 C200 1.409 . S
C207 C206 1.362 . S
H208 C214 0.930 . S
H209 C217 0.930 . S
H210 C218 0.930 . S
H211 C219 0.930 . S
H212 C222 0.930 . S
H213 C223 0.930 . S
C214 H208 0.930 . S
C214 C215 1.355 . S
C214 C216 1.415 . S
C215 C214 1.355 . S
C215 C217 1.419 . S
C216 C214 1.415 . S
C216 C221 1.425 . S
C216 C223 1.409 . S
C217 H209 0.930 . S
C217 C215 1.419 . S
C217 C218 1.362 . S
C218 H210 0.930 . S
C218 C217 1.362 . S
C218 C221 1.409 . S
C219 H211 0.930 . S
C219 C220 1.355 . S
C219 C221 1.415 . S
C220 C219 1.355 . S
C220 C222 1.419 . S
C221 C216 1.425 . S
C221 C218 1.409 . S
C221 C219 1.415 . S
C222 H212 0.930 . S
C222 C220 1.419 . S
C222 C223 1.362 . S
C223 H213 0.930 . S
C223 C216 1.409 . S
C223 C222 1.362 . S
H224 C230 0.930 . S
H225 C233 0.930 . S
H226 C234 0.930 . S
H227 C235 0.930 . S
H228 C238 0.930 . S
H229 C239 0.930 . S
C230 H224 0.930 . S
C230 C231 1.355 . S
C230 C232 1.415 . S
C231 C230 1.355 . S
C231 C233 1.419 . S
C232 C230 1.415 . S
C232 C237 1.425 . S
C232 C239 1.409 . S
C233 H225 0.930 . S
C233 C231 1.419 . S
C233 C234 1.362 . S
C234 H226 0.930 . S
C234 C233 1.362 . S
C234 C237 1.409 . S
C235 H227 0.930 . S
C235 C236 1.355 . S
C235 C237 1.415 . S
C236 C235 1.355 . S
C236 C238 1.419 . S
C237 C232 1.425 . S
C237 C234 1.409 . S
C237 C235 1.415 . S
C238 H228 0.930 . S
C238 C236 1.419 . S
C238 C239 1.362 . S
C239 H229 0.930 . S
C239 C232 1.409 . S
C239 C238 1.362 . S
H240 C246 0.930 . S
H241 C249 0.930 . S
H242 C250 0.930 . S
H243 C251 0.930 . S
H244 C254 0.930 . S
H245 C255 0.930 . S
C246 H240 0.930 . S
C246 C247 1.355 . S
C246 C248 1.415 . S
C247 C246 1.355 . S
C247 C249 1.419 . S
C248 C246 1.415 . S
C248 C253 1.425 . S
C248 C255 1.409 . S
C249 H241 0.930 . S
C249 C247 1.419 . S
C249 C250 1.362 . S
C250 H242 0.930 . S
C250 C249 1.362 . S
C250 C253 1.409 . S
C251 H243 0.930 . S
C251 C252 1.355 . S
C251 C253 1.415 . S
C252 C251 1.355 . S
C252 C254 1.419 . S
C253 C248 1.425 . S
C253 C250 1.409 . S
C253 C251 1.415 . S
C254 H244 0.930 . S
C254 C252 1.419 . S
C254 C255 1.362 . S
C255 H245 0.930 . S
C255 C248 1.409 . S
C255 C254 1.362 . S
H256 C262 0.930 . S
H257 C265 0.930 . S
H258 C266 0.930 . S
H259 C267 0.930 . S
H260 C270 0.930 . S
H261 C271 0.930 . S
C262 H256 0.930 . S
C262 C263 1.355 . S
C262 C264 1.415 . S
C263 C262 1.355 . S
C263 C265 1.419 . S
C264 C262 1.415 . S
C264 C269 1.425 . S
C264 C271 1.409 . S
C265 H257 0.930 . S
C265 C263 1.419 . S
C265 C266 1.362 . S
C266 H258 0.930 . S
C266 C265 1.362 . S
C266 C269 1.409 . S
C267 H259 0.930 . S
C267 C268 1.355 . S
C267 C269 1.415 . S
C268 C267 1.355 . S
C268 C270 1.419 . S
C269 C264 1.425 . S
C269 C266 1.409 . S
C269 C267 1.415 . S
C270 H260 0.930 . S
C270 C268 1.419 . S
C270 C271 1.362 . S
C271 H261 0.930 . S
C271 C264 1.409 . S
C271 C270 1.362 . S
H272 C278 0.930 . S
H273 C281 0.930 . S
H274 C282 0.930 . S
H275 C283 0.930 . S
H276 C286 0.930 . S
H277 C287 0.930 . S
C278 H272 0.930 . S
C278 C279 1.355 . S
C278 C280 1.415 . S
C279 C278 1.355 . S
C279 C281 1.419 . S
C280 C278 1.415 . S
C280 C285 1.425 . S
C280 C287 1.409 . S
C281 H273 0.930 . S
C281 C279 1.419 . S
C281 C282 1.362 . S
C282 H274 0.930 . S
C282 C281 1.362 . S
C282 C285 1.409 . S
C283 H275 0.930 . S
C283 C284 1.355 . S
C283 C285 1.415 . S
C284 C283 1.355 . S
C284 C286 1.419 . S
C285 C280 1.425 . S
C285 C282 1.409 . S
C285 C283 1.415 . S
C286 H276 0.930 . S
C286 C284 1.419 . S
C286 C287 1.362 . S
C287 H277 0.930 . S
C287 C280 1.409 . S
C287 C286 1.362 . S
H288 C294 0.930 . S
H289 C297 0.930 . S
H290 C298 0.930 . S
H291 C299 0.930 . S
H292 C302 0.930 . S
H293 C303 0.930 . S
C294 H288 0.930 . S
C294 C295 1.355 . S
C294 C296 1.415 . S
C295 C294 1.355 . S
C295 C297 1.419 . S
C296 C294 1.415 . S
C296 C301 1.425 . S
C296 C303 1.409 . S
C297 H289 0.930 . S
C297 C295 1.419 . S
C297 C298 1.362 . S
C298 H290 0.930 . S
C298 C297 1.362 . S
C298 C301 1.409 . S
C299 H291 0.930 . S
C299 C300 1.355 . S
C299 C301 1.415 . S
C300 C299 1.355 . S
C300 C302 1.419 . S
C301 C296 1.425 . S
C301 C298 1.409 . S
C301 C299 1.415 . S
C302 H292 0.930 . S
C302 C300 1.419 . S
C302 C303 1.362 . S
C303 H293 0.930 . S
C303 C296 1.409 . S
C303 C302 1.362 . S
H304 C310 0.930 . S
H305 C313 0.930 . S
H306 C314 0.930 . S
H307 C315 0.930 . S
H308 C318 0.930 . S
H309 C319 0.930 . S
C310 H304 0.930 . S
C310 C311 1.355 . S
C310 C312 1.415 . S
C311 C310 1.355 . S
C311 C313 1.419 . S
C312 C310 1.415 . S
C312 C317 1.425 . S
C312 C319 1.409 . S
C313 H305 0.930 . S
C313 C311 1.419 . S
C313 C314 1.362 . S
C314 H306 0.930 . S
C314 C313 1.362 . S
C314 C317 1.409 . S
C315 H307 0.930 . S
C315 C316 1.355 . S
C315 C317 1.415 . S
C316 C315 1.355 . S
C316 C318 1.419 . S
C317 C312 1.425 . S
C317 C314 1.409 . S
C317 C315 1.415 . S
C318 H308 0.930 . S
C318 C316 1.419 . S
C318 C319 1.362 . S
C319 H309 0.930 . S
C319 C312 1.409 . S
C319 C318 1.362 . S
H320 C326 0.930 . S
H321 C329 0.930 . S
H322 C330 0.930 . S
H323 C331 0.930 . S
H324 C334 0.930 . S
H325 C335 0.930 . S
C326 H320 0.930 . S
C326 C327 1.355 . S
C326 C328 1.415 . S
C327 C326 1.355 . S
C327 C329 1.419 . S
C328 C326 1.415 . S
C328 C333 1.425 . S
C328 C335 1.409 . S
C329 H321 0.930 . S
C329 C327 1.419 . S
C329 C330 1.362 . S
C330 H322 0.930 . S
C330 C329 1.362 . S
C330 C333 1.409 . S
C331 H323 0.930 . S
C331 C332 1.355 . S
C331 C333 1.415 . S
C332 C331 1.355 . S
C332 C334 1.419 . S
C333 C328 1.425 . S
C333 C330 1.409 . S
C333 C331 1.415 . S
C334 H324 0.930 . S
C334 C332 1.419 . S
C334 C335 1.362 . S
C335 H325 0.930 . S
C335 C328 1.409 . S
C335 C334 1.362 . S
H336 C342 0.930 . S
H337 C345 0.930 . S
H338 C346 0.930 . S
H339 C347 0.930 . S
H340 C350 0.930 . S
H341 C351 0.930 . S
C342 H336 0.930 . S
C342 C343 1.355 . S
C342 C344 1.415 . S
C343 C342 1.355 . S
C343 C345 1.419 . S
C344 C342 1.415 . S
C344 C349 1.425 1_554 S
C344 C351 1.409 1_554 S
C345 H337 0.930 . S
C345 C343 1.419 . S
C345 C346 1.362 . S
C346 H338 0.930 . S
C346 C345 1.362 . S
C346 C349 1.409 1_554 S
C347 H339 0.930 . S
C347 C348 1.355 . S
C347 C349 1.415 . S
C348 C347 1.355 . S
C348 C350 1.419 . S
C349 C344 1.425 1_556 S
C349 C346 1.409 1_556 S
C349 C347 1.415 . S
C350 H340 0.930 . S
C350 C348 1.419 . S
C350 C351 1.362 . S
C351 H341 0.930 . S
C351 C344 1.409 1_556 S
C351 C350 1.362 . S
H352 C358 0.930 . S
H353 C361 0.930 . S
H354 C362 0.930 . S
H355 C363 0.930 . S
H356 C366 0.930 . S
H357 C367 0.930 . S
C358 H352 0.930 . S
C358 C359 1.355 . S
C358 C360 1.436 . S
C359 C358 1.355 . S
C359 C361 1.419 . S
C360 C358 1.436 . S
C360 C365 1.434 1_554 S
C360 C367 1.384 1_554 S
C361 H353 0.930 . S
C361 C359 1.419 . S
C361 C362 1.362 . S
C362 H354 0.930 . S
C362 C361 1.362 . S
C362 C365 1.385 1_554 S
C363 H355 0.930 . S
C363 C364 1.355 . S
C363 C365 1.435 . S
C364 C363 1.355 . S
C364 C366 1.419 . S
C365 C360 1.434 1_556 S
C365 C362 1.385 1_556 S
C365 C363 1.435 . S
C366 H356 0.930 . S
C366 C364 1.419 . S
C366 C367 1.362 . S
C367 H357 0.930 . S
C367 C360 1.384 1_556 S
C367 C366 1.362 . S
C119 C13 1.874 . S
C124 C29 1.877 . S
C135 C54 1.868 . S
C140 C15 1.868 . S
C151 C84 1.874 . S
C156 C57 1.874 . S
C167 C71 1.858 . S
C172 C110 1.858 . S
C183 C96 1.876 . S
C188 C1 1.876 . S
C199 C27 1.887 . S
C204 C98 1.887 . S
C215 C41 1.881 . S
C220 C69 1.880 . S
C231 C42 1.898 . S
C236 C83 1.898 . S
C247 C85 2.033 . S
C252 C12 2.033 . S
C263 C14 2.057 . S
C268 C111 2.057 . S
C279 C56 2.047 . S
C284 C28 2.043 . S
C295 C70 2.051 . S
C300 C55 2.051 . S
C311 C26 0.729 . S
C316 C0 0.729 . S
C327 C40 0.729 . S
C332 C43 0.731 . S
C343 C82 0.771 . S
C348 C68 0.768 . S
C359 C97 0.814 . S
C364 C99 0.814 . S
