# Generated by pormake.
# Topology uki, (4)-cn, num edge types: 1
# Building blocks:
#     Node 0, Type 0, BuildingBlock: NAWXER_clean_sbu_0, # of connection points: 4
#     Node 1, Type 0, BuildingBlock: NAWXER_clean_sbu_0, # of connection points: 4
#     Node 2, Type 0, BuildingBlock: NAWXER_clean_sbu_0, # of connection points: 4
#     Node 3, Type 0, BuildingBlock: NAWXER_clean_sbu_0, # of connection points: 4
#     Node 4, Type 0, BuildingBlock: NAWXER_clean_sbu_0, # of connection points: 4
#     Node 5, Type 0, BuildingBlock: NAWXER_clean_sbu_0, # of connection points: 4
#     Node 6, Type 0, BuildingBlock: NAWXER_clean_sbu_0, # of connection points: 4
#     Node 7, Type 0, BuildingBlock: NAWXER_clean_sbu_0, # of connection points: 4
#     Node 8, Type 0, BuildingBlock: NAWXER_clean_sbu_0, # of connection points: 4
#     Node 9, Type 0, BuildingBlock: NAWXER_clean_sbu_0, # of connection points: 4
#     Node 10, Type 0, BuildingBlock: NAWXER_clean_sbu_0, # of connection points: 4
#     Node 11, Type 0, BuildingBlock: NAWXER_clean_sbu_0, # of connection points: 4
#     Node 12, Type 0, BuildingBlock: NAWXER_clean_sbu_0, # of connection points: 4
#     Node 13, Type 0, BuildingBlock: NAWXER_clean_sbu_0, # of connection points: 4
#     Node 14, Type 0, BuildingBlock: NAWXER_clean_sbu_0, # of connection points: 4
#     Node 15, Type 0, BuildingBlock: NAWXER_clean_sbu_0, # of connection points: 4
#     Edge 16, Type (0, 0), BuildingBlock: ZUJKAS_clean_linker_0, # of connection points: 2
#     Edge 17, Type (0, 0), BuildingBlock: ZUJKAS_clean_linker_0, # of connection points: 2
#     Edge 18, Type (0, 0), BuildingBlock: ZUJKAS_clean_linker_0, # of connection points: 2
#     Edge 19, Type (0, 0), BuildingBlock: ZUJKAS_clean_linker_0, # of connection points: 2
#     Edge 20, Type (0, 0), BuildingBlock: ZUJKAS_clean_linker_0, # of connection points: 2
#     Edge 21, Type (0, 0), BuildingBlock: ZUJKAS_clean_linker_0, # of connection points: 2
#     Edge 22, Type (0, 0), BuildingBlock: ZUJKAS_clean_linker_0, # of connection points: 2
#     Edge 23, Type (0, 0), BuildingBlock: ZUJKAS_clean_linker_0, # of connection points: 2
#     Edge 24, Type (0, 0), BuildingBlock: ZUJKAS_clean_linker_0, # of connection points: 2
#     Edge 25, Type (0, 0), BuildingBlock: ZUJKAS_clean_linker_0, # of connection points: 2
#     Edge 26, Type (0, 0), BuildingBlock: ZUJKAS_clean_linker_0, # of connection points: 2
#     Edge 27, Type (0, 0), BuildingBlock: ZUJKAS_clean_linker_0, # of connection points: 2
#     Edge 28, Type (0, 0), BuildingBlock: ZUJKAS_clean_linker_0, # of connection points: 2
#     Edge 29, Type (0, 0), BuildingBlock: ZUJKAS_clean_linker_0, # of connection points: 2
#     Edge 30, Type (0, 0), BuildingBlock: ZUJKAS_clean_linker_0, # of connection points: 2
#     Edge 31, Type (0, 0), BuildingBlock: ZUJKAS_clean_linker_0, # of connection points: 2
#     Edge 32, Type (0, 0), BuildingBlock: ZUJKAS_clean_linker_0, # of connection points: 2
#     Edge 33, Type (0, 0), BuildingBlock: ZUJKAS_clean_linker_0, # of connection points: 2
#     Edge 34, Type (0, 0), BuildingBlock: ZUJKAS_clean_linker_0, # of connection points: 2
#     Edge 35, Type (0, 0), BuildingBlock: ZUJKAS_clean_linker_0, # of connection points: 2
#     Edge 36, Type (0, 0), BuildingBlock: ZUJKAS_clean_linker_0, # of connection points: 2
#     Edge 37, Type (0, 0), BuildingBlock: ZUJKAS_clean_linker_0, # of connection points: 2
#     Edge 38, Type (0, 0), BuildingBlock: ZUJKAS_clean_linker_0, # of connection points: 2
#     Edge 39, Type (0, 0), BuildingBlock: ZUJKAS_clean_linker_0, # of connection points: 2
#     Edge 40, Type (0, 0), BuildingBlock: ZUJKAS_clean_linker_0, # of connection points: 2
#     Edge 41, Type (0, 0), BuildingBlock: ZUJKAS_clean_linker_0, # of connection points: 2
#     Edge 42, Type (0, 0), BuildingBlock: ZUJKAS_clean_linker_0, # of connection points: 2
#     Edge 43, Type (0, 0), BuildingBlock: ZUJKAS_clean_linker_0, # of connection points: 2
#     Edge 44, Type (0, 0), BuildingBlock: ZUJKAS_clean_linker_0, # of connection points: 2
#     Edge 45, Type (0, 0), BuildingBlock: ZUJKAS_clean_linker_0, # of connection points: 2
#     Edge 46, Type (0, 0), BuildingBlock: ZUJKAS_clean_linker_0, # of connection points: 2
#     Edge 47, Type (0, 0), BuildingBlock: ZUJKAS_clean_linker_0, # of connection points: 2
# Relax obj value: 0.074
# Max RMSD: 0.234
# Mean RMSD: 0.234
data_MOF--net-uki--node1-NAWXER_clean_sbu_0--edge1-ZUJKAS_clean_linker_0
_symmetry_space_group_name_H-M    P1
_symmetry_Int_Tables_number       1
_symmetry_cell_setting            triclinic
loop_
_symmetry_equiv_pos_as_xyz
'x, y, z'
_cell_length_a     41.139232
_cell_length_b     41.173137
_cell_length_c     95.400012
_cell_angle_alpha  89.997319
_cell_angle_beta   90.00372
_cell_angle_gamma 90.019338
loop_
_atom_site_label
_atom_site_type_symbol
_atom_site_fract_x
_atom_site_fract_y
_atom_site_fract_z
_atom_type_partial_charge
C0 C 0.12827 0.22395 0.32477 0.0
C1 C 0.03685 0.24621 0.2939 0.0
O2 O 0.10155 0.23804 0.32739 0.0
Zn3 Zn 0.08231 0.23408 0.30914 0.0
O4 O 0.1333 0.21253 0.31244 0.0
Zn5 Zn 0.10671 0.21021 0.29294 0.0
O6 O 0.13487 0.23264 0.2802 0.0
O7 O 0.11245 0.26483 0.29594 0.0
O8 O 0.05931 0.23027 0.28754 0.0
O9 O 0.04045 0.25348 0.30674 0.0
O10 O 0.07103 0.18292 0.30715 0.0
O11 O 0.10126 0.16451 0.28982 0.0
C12 C 0.13104 0.26091 0.28526 0.0
C13 C 0.08018 0.15936 0.29927 0.0
C14 C 0.26011 0.8735 0.71991 0.0
C15 C 0.15853 0.92392 0.70563 0.0
O16 O 0.26422 0.89269 0.70944 0.0
Zn17 Zn 0.23357 0.92248 0.69612 0.0
O18 O 0.2317 0.86878 0.72468 0.0
Zn19 Zn 0.20944 0.89768 0.71216 0.0
O20 O 0.21185 0.87172 0.69252 0.0
O21 O 0.23833 0.90342 0.67786 0.0
O22 O 0.16376 0.90342 0.7153 0.0
O23 O 0.18215 0.93289 0.69773 0.0
O24 O 0.25255 0.96446 0.69874 0.0
O25 O 0.22957 0.94482 0.71785 0.0
C26 C 0.22378 0.87685 0.68029 0.0
C27 C 0.24543 0.96753 0.71162 0.0
C28 C 0.8746 0.74439 0.28535 0.0
C29 C 0.92464 0.84644 0.29915 0.0
O30 O 0.86958 0.7727 0.28055 0.0
Zn31 Zn 0.89847 0.79532 0.29295 0.0
O32 O 0.89403 0.74053 0.29576 0.0
Zn33 Zn 0.92382 0.77164 0.30892 0.0
O34 O 0.90515 0.76725 0.32729 0.0
O35 O 0.87282 0.79289 0.31263 0.0
O36 O 0.93434 0.82295 0.30695 0.0
O37 O 0.90338 0.84107 0.2898 0.0
O38 O 0.94594 0.77563 0.28717 0.0
O39 O 0.96581 0.7529 0.30629 0.0
C40 C 0.87833 0.78136 0.32489 0.0
C41 C 0.96882 0.76001 0.2934 0.0
C42 C 0.78181 0.12766 0.68038 0.0
C43 C 0.75921 0.03636 0.71125 0.0
O44 O 0.79354 0.13249 0.69268 0.0
Zn45 Zn 0.7957 0.10581 0.71221 0.0
O46 O 0.76729 0.10116 0.67777 0.0
Zn47 Zn 0.77155 0.08179 0.69596 0.0
O48 O 0.7411 0.11202 0.70922 0.0
O49 O 0.77353 0.13406 0.72498 0.0
O50 O 0.75203 0.0399 0.6984 0.0
O51 O 0.77529 0.05874 0.71758 0.0
O52 O 0.84128 0.09972 0.71539 0.0
O53 O 0.82289 0.0709 0.69762 0.0
C54 C 0.7452 0.13048 0.71993 0.0
C55 C 0.84648 0.07947 0.70562 0.0
C56 C 0.03647 0.25897 0.96125 0.0
C57 C 0.12639 0.28024 0.92942 0.0
O58 O 0.03925 0.25174 0.94836 0.0
Zn59 Zn 0.08117 0.27057 0.94556 0.0
O60 O 0.05942 0.27475 0.96737 0.0
Zn61 Zn 0.10675 0.29449 0.9614 0.0
O62 O 0.10185 0.34023 0.96447 0.0
O63 O 0.07065 0.32192 0.94744 0.0
O64 O 0.13205 0.29196 0.94164 0.0
O65 O 0.09961 0.26595 0.92714 0.0
O66 O 0.11116 0.23966 0.95873 0.0
O67 O 0.13587 0.27208 0.97376 0.0
C68 C 0.08047 0.3455 0.95516 0.0
C69 C 0.13076 0.24369 0.96907 0.0
C70 C 0.28212 0.87731 0.07496 0.0
C71 C 0.25785 0.96783 0.04395 0.0
O72 O 0.2946 0.87289 0.06277 0.0
Zn73 Zn 0.29569 0.89918 0.04311 0.0
O74 O 0.26613 0.90304 0.07739 0.0
Zn75 Zn 0.27066 0.92259 0.05926 0.0
O76 O 0.24113 0.89175 0.04604 0.0
O77 O 0.27399 0.87029 0.03034 0.0
O78 O 0.24992 0.96383 0.0567 0.0
O79 O 0.27489 0.94606 0.03771 0.0
O80 O 0.34101 0.90604 0.03994 0.0
O81 O 0.32209 0.93449 0.05774 0.0
C82 C 0.24558 0.87332 0.03536 0.0
C83 C 0.34586 0.92629 0.04975 0.0
C84 C 0.87933 0.72372 0.92965 0.0
C85 C 0.96933 0.74582 0.96132 0.0
O86 O 0.90597 0.73823 0.92731 0.0
Zn87 Zn 0.92455 0.73387 0.94571 0.0
O88 O 0.87389 0.71195 0.94188 0.0
Zn89 Zn 0.89941 0.70963 0.9616 0.0
O90 O 0.87016 0.73172 0.974 0.0
O91 O 0.89417 0.7644 0.95887 0.0
O92 O 0.94663 0.72977 0.96748 0.0
O93 O 0.96626 0.75319 0.94846 0.0
O94 O 0.93574 0.68265 0.9476 0.0
O95 O 0.90483 0.66393 0.96465 0.0
C96 C 0.87473 0.76014 0.96924 0.0
C97 C 0.92626 0.65894 0.95534 0.0
C98 C 0.72469 0.12653 0.07485 0.0
C99 C 0.74751 0.0357 0.04381 0.0
O100 O 0.71217 0.13111 0.06268 0.0
Zn101 Zn 0.71056 0.10485 0.04302 0.0
O102 O 0.74035 0.10059 0.07726 0.0
Zn103 Zn 0.73547 0.08114 0.05913 0.0
O104 O 0.76519 0.11178 0.04592 0.0
O105 O 0.7325 0.13354 0.03023 0.0
O106 O 0.75572 0.03967 0.05652 0.0
O107 O 0.73066 0.05768 0.0376 0.0
O108 O 0.66511 0.09853 0.03994 0.0
O109 O 0.68391 0.06982 0.05769 0.0
C110 C 0.76088 0.1303 0.03526 0.0
C111 C 0.66014 0.07829 0.04974 0.0
C112 C 0.53771 0.74634 0.79364 0.0
C113 C 0.62908 0.7226 0.82427 0.0
O114 O 0.5418 0.75397 0.80641 0.0
Zn115 Zn 0.5832 0.73344 0.80877 0.0
O116 O 0.55956 0.72967 0.78726 0.0
Zn117 Zn 0.60678 0.70919 0.79246 0.0
O118 O 0.6004 0.66379 0.78922 0.0
O119 O 0.57151 0.68221 0.80698 0.0
O120 O 0.63374 0.71094 0.81195 0.0
O121 O 0.60269 0.73727 0.82693 0.0
O122 O 0.61375 0.7636 0.79558 0.0
O123 O 0.63507 0.73128 0.77962 0.0
C124 C 0.57995 0.65866 0.79893 0.0
C125 C 0.63198 0.75951 0.7848 0.0
C126 C 0.72395 0.3763 0.18052 0.0
C127 C 0.74748 0.46713 0.21143 0.0
O128 O 0.71129 0.37185 0.19267 0.0
Zn129 Zn 0.70969 0.39836 0.21227 0.0
O130 O 0.73971 0.40217 0.1781 0.0
Zn131 Zn 0.73483 0.42181 0.19618 0.0
O132 O 0.7643 0.39127 0.20956 0.0
O133 O 0.73123 0.36963 0.22514 0.0
O134 O 0.7555 0.46306 0.1987 0.0
O135 O 0.7304 0.44537 0.21768 0.0
O136 O 0.66433 0.40511 0.21532 0.0
O137 O 0.68343 0.43374 0.19761 0.0
C138 C 0.75972 0.37285 0.22024 0.0
C139 C 0.65959 0.42548 0.20556 0.0
C140 C 0.37665 0.28144 0.82409 0.0
C141 C 0.46828 0.25855 0.7934 0.0
O142 O 0.40326 0.26722 0.82682 0.0
Zn143 Zn 0.42273 0.27117 0.80864 0.0
O144 O 0.37188 0.29288 0.81174 0.0
Zn145 Zn 0.39874 0.29482 0.79224 0.0
O146 O 0.37053 0.27231 0.77954 0.0
O147 O 0.3924 0.24042 0.79555 0.0
O148 O 0.44588 0.27442 0.78699 0.0
O149 O 0.46468 0.25167 0.80628 0.0
O150 O 0.4335 0.32245 0.80679 0.0
O151 O 0.40474 0.34033 0.78891 0.0
C152 C 0.37396 0.24419 0.7848 0.0
C153 C 0.42491 0.34582 0.79869 0.0
C154 C 0.28264 0.62809 0.18045 0.0
C155 C 0.25901 0.53756 0.21159 0.0
O156 O 0.29493 0.63276 0.19266 0.0
Zn157 Zn 0.29605 0.60673 0.21237 0.0
O158 O 0.26694 0.60218 0.17803 0.0
Zn159 Zn 0.27154 0.58281 0.1962 0.0
O160 O 0.24144 0.61336 0.20935 0.0
O161 O 0.27401 0.63565 0.22497 0.0
O162 O 0.25179 0.54107 0.19874 0.0
O163 O 0.27529 0.55988 0.21786 0.0
O164 O 0.34146 0.60018 0.21566 0.0
O165 O 0.32298 0.57167 0.1978 0.0
C166 C 0.24565 0.63209 0.21996 0.0
C167 C 0.34659 0.58004 0.20584 0.0
C168 C 0.5379 0.75953 0.46176 0.0
C169 C 0.6288 0.78158 0.43056 0.0
O170 O 0.5412 0.7523 0.4489 0.0
Zn171 Zn 0.58305 0.77167 0.44632 0.0
O172 O 0.56048 0.77551 0.46802 0.0
Zn173 Zn 0.60776 0.79553 0.46245 0.0
O174 O 0.60251 0.84124 0.46553 0.0
O175 O 0.57212 0.82291 0.44822 0.0
O176 O 0.63399 0.7931 0.44286 0.0
O177 O 0.60203 0.76748 0.42802 0.0
O178 O 0.61343 0.74098 0.4594 0.0
O179 O 0.63614 0.77309 0.4751 0.0
C180 C 0.58149 0.84647 0.45607 0.0
C181 C 0.63221 0.74485 0.47003 0.0
C182 C 0.78232 0.37787 0.57511 0.0
C183 C 0.75892 0.46806 0.54375 0.0
O184 O 0.79373 0.3726 0.56279 0.0
Zn185 Zn 0.79533 0.39857 0.54307 0.0
O186 O 0.76788 0.40446 0.57761 0.0
Zn187 Zn 0.77166 0.42317 0.55928 0.0
O188 O 0.74084 0.39242 0.5464 0.0
O189 O 0.77278 0.36984 0.53061 0.0
O190 O 0.75209 0.46496 0.55666 0.0
O191 O 0.77481 0.44545 0.53749 0.0
O192 O 0.84081 0.40456 0.53961 0.0
O193 O 0.82296 0.434 0.55729 0.0
C194 C 0.74462 0.37358 0.53579 0.0
C195 C 0.84631 0.42514 0.54922 0.0
C196 C 0.4256 0.15905 0.45598 0.0
C197 C 0.37361 0.26026 0.46965 0.0
O198 O 0.40417 0.16404 0.4653 0.0
Zn199 Zn 0.39856 0.20972 0.46218 0.0
O200 O 0.43497 0.18271 0.4482 0.0
Zn201 Zn 0.42361 0.23381 0.4462 0.0
O202 O 0.46523 0.25354 0.44903 0.0
O203 O 0.4455 0.23013 0.46802 0.0
O204 O 0.39268 0.26426 0.45913 0.0
O205 O 0.36965 0.23198 0.47468 0.0
O206 O 0.37292 0.21193 0.44245 0.0
O207 O 0.40516 0.2378 0.42779 0.0
C208 C 0.46816 0.2463 0.46191 0.0
C209 C 0.37843 0.22348 0.43018 0.0
C210 C 0.2611 0.63138 0.53525 0.0
C211 C 0.15961 0.5799 0.54896 0.0
O212 O 0.26504 0.61263 0.54588 0.0
Zn213 Zn 0.23435 0.58201 0.55889 0.0
O214 O 0.23286 0.63509 0.53014 0.0
Zn215 Zn 0.2105 0.60647 0.5427 0.0
O216 O 0.2123 0.6326 0.56236 0.0
O217 O 0.2383 0.60086 0.57718 0.0
O218 O 0.165 0.60044 0.53932 0.0
O219 O 0.18303 0.5711 0.557 0.0
O220 O 0.25392 0.54019 0.5563 0.0
O221 O 0.231 0.55955 0.53714 0.0
C222 C 0.22382 0.62743 0.57467 0.0
C223 C 0.24696 0.537 0.54341 0.0
H224 H 0.12587 0.32496 0.29264 0.0
H225 H 0.14956 0.37191 0.28069 0.0
H226 H 0.19514 0.3083 0.25067 0.0
H227 H 0.17185 0.26114 0.26259 0.0
H228 H 0.2363 0.35826 0.26086 0.0
H229 H 0.11736 0.40589 0.24245 0.0
H230 H 0.12002 0.39891 0.261 0.0
H231 H 0.12228 0.36515 0.24911 0.0
C232 C 0.14105 0.3209 0.28353 0.0
C233 C 0.14678 0.28928 0.27852 0.0
C234 C 0.15443 0.34779 0.27668 0.0
C235 C 0.17367 0.34357 0.26468 0.0
C236 C 0.18022 0.31205 0.25988 0.0
H237 H 0.22331 0.48643 0.20164 0.0
H238 H 0.20408 0.43903 0.21466 0.0
C239 C 0.16683 0.28514 0.26671 0.0
C240 C 0.18664 0.37202 0.25698 0.0
H241 H 0.16354 0.43875 0.23821 0.0
C242 C 0.22045 0.37589 0.25591 0.0
C243 C 0.16584 0.39471 0.25038 0.0
C244 C 0.12935 0.39094 0.25065 0.0
C245 C 0.23404 0.40211 0.24853 0.0
C246 C 0.21322 0.42519 0.2422 0.0
C247 C 0.17943 0.42112 0.24316 0.0
C248 C 0.22594 0.45349 0.23432 0.0
C249 C 0.27053 0.40456 0.24733 0.0
C250 C 0.2445 0.47742 0.24108 0.0
C251 C 0.25557 0.50456 0.23367 0.0
C252 C 0.24813 0.50835 0.21936 0.0
C253 C 0.22956 0.48427 0.21263 0.0
C254 C 0.21849 0.45717 0.22005 0.0
H255 H 0.28261 0.3811 0.24977 0.0
H256 H 0.2778 0.41229 0.23663 0.0
H257 H 0.27954 0.423 0.25487 0.0
H258 H 0.25001 0.47535 0.25214 0.0
H259 H 0.26968 0.52272 0.23919 0.0
H260 H 0.51053 0.71989 0.77013 0.0
H261 H 0.46259 0.73901 0.75739 0.0
H262 H 0.45202 0.8179 0.78683 0.0
H263 H 0.49883 0.79785 0.8 0.0
H264 H 0.39551 0.79392 0.78144 0.0
H265 H 0.458 0.81266 0.7307 0.0
H266 H 0.46073 0.77136 0.73651 0.0
H267 H 0.4798 0.80315 0.74656 0.0
C268 C 0.49793 0.7413 0.77387 0.0
C269 C 0.50848 0.75747 0.78602 0.0
C270 C 0.47069 0.75239 0.76651 0.0
C271 C 0.4541 0.78041 0.77092 0.0
C272 C 0.46444 0.79631 0.78317 0.0
H273 H 0.32301 0.89421 0.71948 0.0
H274 H 0.36932 0.87102 0.73202 0.0
C275 C 0.49122 0.78484 0.79069 0.0
C276 C 0.42564 0.79299 0.76298 0.0
H277 H 0.40032 0.81657 0.73044 0.0
C278 C 0.39663 0.79901 0.77029 0.0
C279 C 0.42718 0.80016 0.74847 0.0
C280 C 0.4582 0.79684 0.74014 0.0
C281 C 0.3692 0.81195 0.76356 0.0
C282 C 0.37028 0.81775 0.74892 0.0
C283 C 0.3993 0.81176 0.74161 0.0
C284 C 0.34207 0.83118 0.74108 0.0
C285 C 0.33983 0.82029 0.77234 0.0
C286 C 0.31138 0.81624 0.74176 0.0
C287 C 0.28472 0.8299 0.73483 0.0
C288 C 0.28845 0.85818 0.72675 0.0
C289 C 0.31941 0.87235 0.72561 0.0
C290 C 0.3459 0.8591 0.73278 0.0
H291 H 0.34649 0.82408 0.78351 0.0
H292 H 0.32763 0.84259 0.76845 0.0
H293 H 0.32223 0.79989 0.77191 0.0
H294 H 0.30798 0.79408 0.74768 0.0
H295 H 0.26121 0.81822 0.73575 0.0
H296 H 0.79933 0.50579 0.20528 0.0
H297 H 0.81945 0.55234 0.21858 0.0
H298 H 0.74014 0.54179 0.24784 0.0
H299 H 0.72091 0.4941 0.23496 0.0
H300 H 0.79545 0.6088 0.22393 0.0
H301 H 0.8136 0.54626 0.27469 0.0
H302 H 0.80422 0.52451 0.25881 0.0
H303 H 0.77233 0.54359 0.26879 0.0
C304 C 0.78624 0.51334 0.21458 0.0
C305 C 0.75869 0.49617 0.21915 0.0
C306 C 0.79776 0.53997 0.22218 0.0
C307 C 0.78175 0.55026 0.23441 0.0
C308 C 0.75359 0.53373 0.23873 0.0
H309 H 0.81919 0.74293 0.26959 0.0
H310 H 0.79514 0.69606 0.25772 0.0
C311 C 0.74244 0.50664 0.23129 0.0
C312 C 0.79431 0.57866 0.24239 0.0
H313 H 0.81769 0.6039 0.27497 0.0
C314 C 0.80045 0.60765 0.23509 0.0
C315 C 0.80136 0.5771 0.25691 0.0
C316 C 0.79788 0.54609 0.26522 0.0
C317 C 0.81337 0.63504 0.24185 0.0
C318 C 0.81904 0.63394 0.25649 0.0
C319 C 0.81296 0.60493 0.26379 0.0
C320 C 0.83236 0.66216 0.26436 0.0
C321 C 0.82182 0.66439 0.23309 0.0
C322 C 0.86031 0.65846 0.27267 0.0
C323 C 0.87353 0.68503 0.2798 0.0
C324 C 0.85929 0.71592 0.27861 0.0
C325 C 0.83094 0.71949 0.27054 0.0
C326 C 0.81733 0.69276 0.26366 0.0
H327 H 0.82572 0.65776 0.22193 0.0
H328 H 0.80141 0.68198 0.23348 0.0
H329 H 0.84411 0.67658 0.23702 0.0
H330 H 0.87228 0.6351 0.27345 0.0
H331 H 0.89543 0.68154 0.28592 0.0
H332 H 0.51938 0.22312 0.80357 0.0
H333 H 0.56706 0.2039 0.79071 0.0
H334 H 0.5312 0.24942 0.75306 0.0
H335 H 0.48357 0.26905 0.76584 0.0
H336 H 0.56757 0.1632 0.76716 0.0
H337 H 0.62555 0.28211 0.75568 0.0
H338 H 0.59422 0.27732 0.76878 0.0
H339 H 0.58366 0.27909 0.75052 0.0
C340 C 0.52171 0.22928 0.79258 0.0
C341 C 0.49768 0.24771 0.78575 0.0
C342 C 0.54896 0.21823 0.78525 0.0
C343 C 0.55284 0.22556 0.77098 0.0
C344 C 0.52897 0.244 0.76413 0.0
H345 H 0.68103 0.12565 0.71261 0.0
H346 H 0.63423 0.14938 0.72466 0.0
C347 C 0.50167 0.25505 0.77144 0.0
C348 C 0.58125 0.21282 0.76318 0.0
H349 H 0.64835 0.23582 0.74457 0.0
C350 C 0.58527 0.17905 0.76223 0.0
C351 C 0.60443 0.2336 0.75688 0.0
C352 C 0.60203 0.27006 0.75809 0.0
C353 C 0.61169 0.16545 0.75501 0.0
C354 C 0.63444 0.18621 0.74843 0.0
C355 C 0.63066 0.21999 0.74951 0.0
C356 C 0.66281 0.17322 0.74068 0.0
C357 C 0.61538 0.12898 0.75472 0.0
C358 C 0.69442 0.17961 0.74545 0.0
C359 C 0.72124 0.16621 0.73856 0.0
C360 C 0.71693 0.14629 0.72672 0.0
C361 C 0.68523 0.14073 0.72174 0.0
C362 C 0.65842 0.15412 0.72864 0.0
H363 H 0.60042 0.11701 0.76293 0.0
H364 H 0.60733 0.1197 0.74437 0.0
H365 H 0.64117 0.12187 0.75624 0.0
H366 H 0.6983 0.19443 0.75468 0.0
H367 H 0.74531 0.17109 0.74265 0.0
H368 H 0.20611 0.00666 0.05011 0.0
H369 H 0.18589 0.053 0.0367 0.0
H370 H 0.26493 0.04197 0.00734 0.0
H371 H 0.28426 0.99452 0.02033 0.0
H372 H 0.20978 0.10943 0.03104 0.0
H373 H 0.19118 0.04565 0.98061 0.0
H374 H 0.20071 0.0243 0.99658 0.0
H375 H 0.23251 0.04313 0.98644 0.0
C376 C 0.21912 0.01407 0.04077 0.0
C377 C 0.24661 0.99682 0.0362 0.0
C378 C 0.20754 0.04057 0.03311 0.0
C379 C 0.22343 0.05065 0.02081 0.0
C380 C 0.25156 0.03407 0.0165 0.0
H381 H 0.18626 0.24247 0.98478 0.0
H382 H 0.21019 0.19583 0.99685 0.0
C383 C 0.26277 0.00711 0.02401 0.0
C384 C 0.21078 0.07884 0.01273 0.0
H385 H 0.18727 0.1033 0.98005 0.0
C386 C 0.20472 0.10802 0.0199 0.0
C387 C 0.20363 0.07693 0.99822 0.0
C388 C 0.20701 0.04572 0.99005 0.0
C389 C 0.19182 0.13526 0.01302 0.0
C390 C 0.18609 0.13381 0.99839 0.0
C391 C 0.19205 0.10461 0.99122 0.0
C392 C 0.17283 0.16187 0.9904 0.0
C393 C 0.18349 0.16484 0.02165 0.0
C394 C 0.14485 0.15804 0.98211 0.0
C395 C 0.1317 0.18445 0.97487 0.0
C396 C 0.14605 0.21533 0.9759 0.0
C397 C 0.17444 0.21903 0.98394 0.0
C398 C 0.18797 0.19244 0.99094 0.0
H399 H 0.17961 0.15849 0.03285 0.0
H400 H 0.20395 0.18237 0.02116 0.0
H401 H 0.16123 0.17699 0.01768 0.0
H402 H 0.13279 0.13469 0.98145 0.0
H403 H 0.10976 0.18088 0.96878 0.0
H404 H 0.24597 0.83374 0.01227 0.0
H405 H 0.19907 0.80992 1.00029 0.0
H406 H 0.13503 0.8518 0.03115 0.0
H407 H 0.18165 0.87598 0.04314 0.0
H408 H 0.14976 0.76697 0.01019 0.0
H409 H 0.09997 0.88625 0.99342 0.0
H410 H 0.14096 0.88151 0.99986 0.0
H411 H 0.10741 0.88253 0.01191 0.0
C412 C 0.22194 0.83778 0.01656 0.0
C413 C 0.21756 0.85699 0.02861 0.0
C414 C 0.19518 0.82411 0.0097 0.0
C415 C 0.16359 0.82953 0.01472 0.0
C416 C 0.15919 0.84782 0.02698 0.0
H417 H 0.98436 0.73375 0.98882 0.0
H418 H 0.03193 0.75278 1.00188 0.0
C419 C 0.1859 0.86149 0.03385 0.0
C420 C 0.1352 0.81662 0.00695 0.0
H421 H 0.06756 0.83995 0.98884 0.0
C422 C 0.13176 0.78286 0.00551 0.0
C423 C 0.11202 0.83749 1.00073 0.0
C424 C 0.11529 0.87397 1.00142 0.0
C425 C 0.10544 0.76939 0.99814 0.0
C426 C 0.08189 0.79027 0.99218 0.0
C427 C 0.08555 0.82402 0.99351 0.0
C428 C 0.0536 0.77773 0.98424 0.0
C429 C 0.10336 0.733 0.99653 0.0
C430 C 0.04981 0.78583 0.97006 0.0
C431 C 0.02266 0.77512 0.96258 0.0
C432 C 0.99858 0.75626 0.96918 0.0
C433 C 1.00249 0.74812 0.98341 0.0
C434 C 0.02974 0.75882 0.99087 0.0
H435 H 0.12693 0.72099 0.99888 0.0
H436 H 0.08489 0.72338 0.00392 0.0
H437 H 0.09579 0.72634 0.98573 0.0
H438 H 0.0679 0.80052 0.96477 0.0
H439 H 0.02042 0.7819 0.95165 0.0
H440 H 0.81918 0.76023 0.98491 0.0
H441 H 0.79345 0.80661 0.99647 0.0
H442 H 0.86952 0.86936 0.98104 0.0
H443 H 0.89431 0.82342 0.96887 0.0
H444 H 0.81331 0.84284 0.0166 0.0
H445 H 0.79336 0.92318 0.97105 0.0
H446 H 0.80558 0.88139 0.96908 0.0
H447 H 0.8354 0.91247 0.97257 0.0
C448 C 0.83016 0.78402 0.98384 0.0
C449 C 0.8586 0.78827 0.9759 0.0
C450 C 0.81546 0.81052 0.99047 0.0
C451 C 0.82913 0.84171 0.98943 0.0
C452 C 0.8578 0.84585 0.98162 0.0
H453 H 0.79839 0.99566 0.04989 0.0
H454 H 0.81683 0.94832 0.03669 0.0
C455 C 0.87212 0.8195 0.97475 0.0
C456 C 0.81441 0.86947 0.99715 0.0
H457 H 0.7906 0.9485 0.99368 0.0
C458 C 0.80801 0.86582 0.01153 0.0
C459 C 0.80686 0.89935 0.99055 0.0
C460 C 0.81032 0.90421 0.97494 0.0
C461 C 0.79508 0.89133 0.01954 0.0
C462 C 0.78963 0.92188 0.01313 0.0
C463 C 0.79521 0.92529 0.99868 0.0
C464 C 0.77837 0.95068 0.0212 0.0
C465 C 0.78688 0.88493 0.03471 0.0
C466 C 0.75137 0.9687 0.01662 0.0
C467 C 0.74133 0.99635 0.02395 0.0
C468 C 0.75787 0.00631 0.0361 0.0
C469 C 0.78486 0.98829 0.04068 0.0
C470 C 0.79527 0.96104 0.03319 0.0
H471 H 0.78167 0.85879 0.03655 0.0
H472 H 0.808 0.8916 0.04135 0.0
H473 H 0.76549 0.8993 0.03815 0.0
H474 H 0.73801 0.96134 0.00736 0.0
H475 H 0.72045 0.00977 0.02017 0.0
H476 H 0.82484 0.1265 0.04287 0.0
H477 H 0.87152 0.15151 0.03125 0.0
H478 H 0.80762 0.19566 1.00092 0.0
H479 H 0.76068 0.171 0.01253 0.0
H480 H 0.89059 0.14156 0.00351 0.0
H481 H 0.86515 0.27183 0.01373 0.0
H482 H 0.84558 0.23947 0.02333 0.0
H483 H 0.83188 0.2499 0.00602 0.0
C484 C 0.82062 0.14179 0.03381 0.0
C485 C 0.78898 0.14678 0.02864 0.0
C486 C 0.84735 0.15603 0.02718 0.0
C487 C 0.84299 0.17573 0.01533 0.0
C488 C 0.81146 0.18104 0.01021 0.0
H489 H 0.98481 0.22352 0.95167 0.0
H490 H 0.93809 0.20403 0.96506 0.0
C491 C 0.78468 0.16676 0.01682 0.0
C492 C 0.8716 0.18921 0.0079 0.0
H493 H 0.90729 0.26008 0.99739 0.0
C494 C 0.89433 0.16747 1.00222 0.0
C495 C 0.87657 0.22303 0.00636 0.0
C496 C 0.85369 0.24748 0.01278 0.0
C497 C 0.92158 0.17861 0.9948 0.0
C498 C 0.92597 0.21238 0.99286 0.0
C499 C 0.90365 0.23418 0.99879 0.0
C500 C 0.95362 0.22542 0.98466 0.0
C501 C 0.94562 0.15416 0.9892 0.0
C502 C 0.97737 0.24469 0.99117 0.0
C503 C 0.00413 0.25597 0.98354 0.0
C504 C 0.00746 0.24835 0.96923 0.0
C505 C 0.98313 0.22971 0.96268 0.0
C506 C 0.95646 0.21841 0.97033 0.0
H507 H 0.94308 0.1302 0.99445 0.0
H508 H 0.9413 0.15062 0.97782 0.0
H509 H 0.97096 0.16289 0.9906 0.0
H510 H 0.97549 0.25048 1.00222 0.0
H511 H 0.02235 0.27035 0.98889 0.0
H512 H 0.67207 0.75961 0.76188 0.0
H513 H 0.69616 0.80664 0.75017 0.0
H514 H 0.65263 0.87019 0.78079 0.0
H515 H 0.62816 0.82338 0.79252 0.0
H516 H 0.64188 0.88936 0.75306 0.0
H517 H 0.77254 0.86418 0.76269 0.0
H518 H 0.7505 0.83091 0.75506 0.0
H519 H 0.74044 0.84451 0.77242 0.0
C520 C 0.66785 0.78355 0.76622 0.0
C521 C 0.6482 0.78771 0.77815 0.0
C522 C 0.68179 0.81039 0.75954 0.0
C523 C 0.67649 0.84185 0.76471 0.0
C524 C 0.65713 0.84608 0.77668 0.0
H525 H 0.77092 0.02094 0.7387 0.0
H526 H 0.75096 0.97376 0.75172 0.0
C527 C 0.64321 0.81927 0.78337 0.0
C528 C 0.68971 0.87048 0.75723 0.0
H529 H 0.7603 0.90634 0.74646 0.0
C530 C 0.66777 0.89315 0.75166 0.0
C531 C 0.7235 0.8755 0.75554 0.0
C532 C 0.74819 0.85268 0.76184 0.0
C533 C 0.67869 0.92046 0.74422 0.0
C534 C 0.71243 0.92494 0.74215 0.0
C535 C 0.73443 0.90262 0.74795 0.0
C536 C 0.72531 0.95287 0.7341 0.0
C537 C 0.65404 0.9445 0.73879 0.0
C538 C 0.71796 0.9564 0.71982 0.0
C539 C 0.72931 0.9833 0.71234 0.0
C540 C 0.74834 0.00714 0.71901 0.0
C541 C 0.75623 0.00312 0.73325 0.0
C542 C 0.7449 0.97616 0.74071 0.0
H543 H 0.63016 0.9418 0.7441 0.0
H544 H 0.66272 0.96982 0.74024 0.0
H545 H 0.6503 0.94038 0.7274 0.0
H546 H 0.70333 0.93838 0.71447 0.0
H547 H 0.72291 0.98554 0.70137 0.0
H548 H 0.98464 0.27957 0.30426 0.0
H549 H 0.93657 0.29803 0.29149 0.0
H550 H 0.97417 0.25563 0.25348 0.0
H551 H 0.02221 0.23669 0.26619 0.0
H552 H 0.93505 0.34 0.26869 0.0
H553 H 0.8809 0.22053 0.25509 0.0
H554 H 0.91204 0.22505 0.26829 0.0
H555 H 0.9227 0.22515 0.25003 0.0
C556 C 0.98262 0.27393 0.2932 0.0
C557 C 0.00727 0.25658 0.28625 0.0
C558 C 0.95513 0.28453 0.28593 0.0
C559 C 0.95162 0.27785 0.27159 0.0
C560 C 0.97609 0.26048 0.26461 0.0
H561 H 0.82409 0.37817 0.21346 0.0
H562 H 0.87048 0.35428 0.22571 0.0
C563 C 0.00363 0.24984 0.27188 0.0
C564 C 0.923 0.29036 0.26384 0.0
H565 H 0.85721 0.26705 0.24444 0.0
C566 C 0.91799 0.32406 0.26341 0.0
C567 C 0.90063 0.26946 0.25709 0.0
C568 C 0.90406 0.23301 0.25772 0.0
C569 C 0.89142 0.33748 0.25625 0.0
C570 C 0.86954 0.31665 0.24918 0.0
C571 C 0.87424 0.28293 0.24976 0.0
C572 C 0.84136 0.32956 0.24129 0.0
C573 C 0.88667 0.37383 0.25647 0.0
C574 C 0.8096 0.32277 0.24576 0.0
C575 C 0.78298 0.33634 0.23878 0.0
C576 C 0.78769 0.35677 0.22713 0.0
C577 C 0.81957 0.36268 0.22243 0.0
C578 C 0.84614 0.34917 0.22945 0.0
H579 H 0.90106 0.38556 0.26493 0.0
H580 H 0.89468 0.38416 0.2463 0.0
H581 H 0.86063 0.38005 0.25796 0.0
H582 H 0.80545 0.30755 0.25485 0.0
H583 H 0.75876 0.33119 0.24263 0.0
H584 H 0.28175 0.01853 0.70199 0.0
H585 H 0.3015 0.06527 0.71529 0.0
H586 H 0.2538 0.02914 0.75239 0.0
H587 H 0.23369 0.98231 0.73915 0.0
H588 H 0.24479 0.09703 0.74729 0.0
H589 H 0.37464 0.06055 0.74503 0.0
H590 H 0.35461 0.06214 0.7283 0.0
H591 H 0.34186 0.0328 0.74112 0.0
C592 C 0.27535 0.02051 0.71296 0.0
C593 C 0.25628 0.99656 0.71952 0.0
C594 C 0.28681 0.04717 0.72056 0.0
C595 C 0.2795 0.05037 0.73486 0.0
C596 C 0.25983 0.02698 0.74137 0.0
H597 H 0.37798 0.1805 0.7928 0.0
H598 H 0.35321 0.13339 0.78141 0.0
C599 C 0.2484 1.00024 0.73379 0.0
C600 C 0.29253 0.07807 0.74301 0.0
H601 H 0.36334 0.11325 0.75384 0.0
C602 C 0.27069 0.10056 0.74878 0.0
C603 C 0.3263 0.0823 0.74509 0.0
C604 C 0.35077 0.05805 0.73968 0.0
C605 C 0.28181 0.12768 0.75632 0.0
C606 C 0.31564 0.13252 0.75797 0.0
C607 C 0.33742 0.1096 0.75247 0.0
C608 C 0.32908 0.16132 0.76527 0.0
C609 C 0.25728 0.15075 0.76257 0.0
C610 C 0.32377 0.19264 0.75994 0.0
C611 C 0.33789 0.21964 0.76642 0.0
C612 C 0.35774 0.21578 0.77831 0.0
C613 C 0.36278 0.18436 0.78368 0.0
C614 C 0.34868 0.15739 0.77718 0.0
H615 H 0.23292 0.1393 0.76355 0.0
H616 H 0.26521 0.15924 0.77307 0.0
H617 H 0.25487 0.17229 0.75566 0.0
H618 H 0.30925 0.19615 0.75059 0.0
H619 H 0.33361 0.24346 0.76197 0.0
H620 H 0.02121 0.72648 0.30345 0.0
H621 H 0.06876 0.70776 0.29042 0.0
H622 H 0.03033 0.75049 0.25263 0.0
H623 H 0.98272 0.76967 0.26561 0.0
H624 H 0.06898 0.66578 0.26744 0.0
H625 H 0.12421 0.78494 0.25402 0.0
H626 H 0.09351 0.78047 0.26742 0.0
H627 H 0.08217 0.78068 0.24923 0.0
C628 C 0.02292 0.73215 0.29239 0.0
C629 C 0.99816 0.74965 0.28558 0.0
C630 C 0.05012 0.72139 0.28496 0.0
C631 C 0.05324 0.72805 0.27061 0.0
C632 C 0.02868 0.74561 0.26377 0.0
H633 H 0.18148 0.62677 0.21279 0.0
H634 H 0.13471 0.6509 0.22469 0.0
C635 C 1.00141 0.7564 0.27119 0.0
C636 C 0.08156 0.71536 0.26273 0.0
H637 H 0.14779 0.73829 0.24353 0.0
C638 C 0.08623 0.68162 0.26221 0.0
C639 C 0.10416 0.73612 0.25605 0.0
C640 C 0.10105 0.77259 0.25677 0.0
C641 C 0.11276 0.66802 0.25507 0.0
C642 C 0.13495 0.68874 0.24812 0.0
C643 C 0.13052 0.7225 0.24876 0.0
C644 C 0.16334 0.67569 0.24042 0.0
C645 C 0.11717 0.63163 0.25525 0.0
C646 C 0.19496 0.68244 0.24508 0.0
C647 C 0.22179 0.66876 0.23829 0.0
C648 C 0.21744 0.64823 0.22665 0.0
C649 C 0.18571 0.64233 0.22176 0.0
C650 C 0.15893 0.65598 0.22858 0.0
H651 H 0.10247 0.61993 0.26361 0.0
H652 H 0.10931 0.62148 0.24502 0.0
H653 H 0.14311 0.62516 0.25684 0.0
H654 H 0.19885 0.69773 0.25417 0.0
H655 H 0.24588 0.6739 0.24229 0.0
H656 H 0.72319 0.51934 0.55353 0.0
H657 H 0.70353 0.56623 0.54029 0.0
H658 H 0.74977 0.52943 0.50297 0.0
H659 H 0.76981 0.48252 0.51614 0.0
H660 H 0.75988 0.59678 0.50776 0.0
H661 H 0.62945 0.56285 0.51114 0.0
H662 H 0.65009 0.56458 0.52772 0.0
H663 H 0.66181 0.53461 0.515 0.0
C664 C 0.72925 0.5212 0.54251 0.0
C665 C 0.74793 0.49706 0.53588 0.0
C666 C 0.71786 0.54794 0.53495 0.0
C667 C 0.7248 0.55101 0.52061 0.0
C668 C 0.74402 0.52739 0.51402 0.0
H669 H 0.62685 0.68094 0.46252 0.0
H670 H 0.65107 0.63386 0.47415 0.0
C671 C 0.7554 0.50059 0.52157 0.0
C672 C 0.71195 0.57885 0.51249 0.0
H673 H 0.64143 0.61508 0.50197 0.0
C674 C 0.734 0.60077 0.50644 0.0
C675 C 0.67819 0.58369 0.51064 0.0
C676 C 0.65345 0.56006 0.51635 0.0
C677 C 0.72312 0.62786 0.49882 0.0
C678 C 0.68933 0.63328 0.49738 0.0
C679 C 0.66732 0.61098 0.50318 0.0
C680 C 0.67618 0.66202 0.48994 0.0
C681 C 0.74784 0.65024 0.49225 0.0
C682 C 0.68225 0.69345 0.49499 0.0
C683 C 0.66845 0.72043 0.48837 0.0
C684 C 0.64818 0.71644 0.47662 0.0
C685 C 0.64239 0.6849 0.47152 0.0
C686 C 0.65617 0.65795 0.47816 0.0
H687 H 0.77196 0.63835 0.49121 0.0
H688 H 0.73972 0.65843 0.48173 0.0
H689 H 0.75085 0.67202 0.49898 0.0
H690 H 0.69712 0.69708 0.50422 0.0
H691 H 0.6733 0.74435 0.49261 0.0
H692 H 0.68073 0.37868 0.54347 0.0
H693 H 0.63354 0.35422 0.53199 0.0
H694 H 0.69658 0.3082 0.50184 0.0
H695 H 0.74395 0.33225 0.51331 0.0
H696 H 0.61445 0.36372 0.50423 0.0
H697 H 0.638 0.23335 0.51494 0.0
H698 H 0.65818 0.2656 0.52437 0.0
H699 H 0.67164 0.25445 0.50711 0.0
C700 C 0.68463 0.36308 0.53449 0.0
C701 C 0.71615 0.35738 0.52933 0.0
C702 C 0.65762 0.34916 0.52793 0.0
C703 C 0.6616 0.32909 0.51617 0.0
C704 C 0.69301 0.3231 0.51107 0.0
H705 H 0.51957 0.28226 0.45239 0.0
H706 H 0.56621 0.30187 0.46582 0.0
C707 C 0.72005 0.33703 0.5176 0.0
C708 C 0.63279 0.31589 0.50878 0.0
H709 H 0.59646 0.24534 0.49832 0.0
C710 C 0.61041 0.33784 0.503 0.0
C711 C 0.62744 0.28212 0.50732 0.0
C712 C 0.6499 0.25746 0.51387 0.0
C713 C 0.58314 0.32693 0.49552 0.0
C714 C 0.57841 0.29319 0.49362 0.0
C715 C 0.60037 0.2712 0.49968 0.0
C716 C 0.55072 0.28032 0.4854 0.0
C717 C 0.55946 0.35161 0.48982 0.0
C718 C 0.52703 0.26093 0.49187 0.0
C719 C 0.50037 0.24955 0.48421 0.0
C720 C 0.49704 0.25722 0.46991 0.0
C721 C 0.52126 0.27605 0.46339 0.0
C722 C 0.54787 0.28743 0.47107 0.0
H723 H 0.56208 0.37552 0.4951 0.0
H724 H 0.56412 0.35516 0.47846 0.0
H725 H 0.53401 0.34311 0.49108 0.0
H726 H 0.52892 0.25504 0.50291 0.0
H727 H 0.48223 0.23502 0.48954 0.0
H728 H 0.28259 0.48567 0.55322 0.0
H729 H 0.30217 0.43871 0.54 0.0
H730 H 0.25605 0.47552 0.50266 0.0
H731 H 0.23607 0.52249 0.5158 0.0
H732 H 0.24582 0.40827 0.50742 0.0
H733 H 0.37632 0.44186 0.51093 0.0
H734 H 0.35563 0.44011 0.52749 0.0
H735 H 0.34402 0.47016 0.51478 0.0
C736 C 0.27653 0.4838 0.5422 0.0
C737 C 0.25791 0.50796 0.53555 0.0
C738 C 0.28789 0.45701 0.53466 0.0
C739 C 0.28096 0.45393 0.52032 0.0
C740 C 0.26179 0.47757 0.51371 0.0
H741 H 0.37898 0.32421 0.46222 0.0
H742 H 0.3547 0.3712 0.47388 0.0
C743 C 0.25044 0.5044 0.52124 0.0
C744 C 0.29377 0.42606 0.51221 0.0
H745 H 0.36425 0.3897 0.50171 0.0
C746 C 0.2717 0.40422 0.50612 0.0
C747 C 0.32753 0.42114 0.51038 0.0
C748 C 0.35231 0.44468 0.51612 0.0
C749 C 0.28254 0.37714 0.49848 0.0
C750 C 0.31632 0.37164 0.49706 0.0
C751 C 0.33836 0.39385 0.50291 0.0
C752 C 0.32943 0.34294 0.48959 0.0
C753 C 0.25778 0.35486 0.49187 0.0
C754 C 0.32327 0.31147 0.49457 0.0
C755 C 0.33709 0.28453 0.48793 0.0
C756 C 0.35749 0.2886 0.47622 0.0
C757 C 0.36334 0.32018 0.47119 0.0
C758 C 0.34953 0.34708 0.47784 0.0
H759 H 0.2337 0.36682 0.49082 0.0
H760 H 0.26593 0.34672 0.48134 0.0
H761 H 0.2547 0.33304 0.49857 0.0
H762 H 0.30832 0.30777 0.50378 0.0
H763 H 0.33219 0.26058 0.49212 0.0
H764 H 0.48638 0.72438 0.45184 0.0
H765 H 0.43895 0.70534 0.4649 0.0
H766 H 0.47585 0.75076 0.50239 0.0
H767 H 0.52329 0.77023 0.48939 0.0
H768 H 0.43898 0.66461 0.48841 0.0
H769 H 0.38147 0.78356 0.50022 0.0
H770 H 0.41249 0.77879 0.48698 0.0
H771 H 0.42348 0.78038 0.50519 0.0
C772 C 0.48434 0.73057 0.46284 0.0
C773 C 0.50862 0.74892 0.46956 0.0
C774 C 0.45722 0.71962 0.47029 0.0
C775 C 0.45372 0.72695 0.48457 0.0
C776 C 0.47781 0.74534 0.49132 0.0
H777 H 0.32515 0.62648 0.54276 0.0
H778 H 0.37214 0.65044 0.53092 0.0
C779 C 0.50498 0.7563 0.48388 0.0
C780 C 0.42546 0.71423 0.49248 0.0
H781 H 0.35854 0.7372 0.5112 0.0
C782 C 0.42137 0.68046 0.49339 0.0
C783 C 0.4024 0.735 0.49885 0.0
C784 C 0.40489 0.77146 0.49769 0.0
C785 C 0.39495 0.66685 0.5006 0.0
C786 C 0.37227 0.6876 0.50724 0.0
C787 C 0.37617 0.72138 0.50622 0.0
C788 C 0.3438 0.67459 0.51491 0.0
C789 C 0.39114 0.63039 0.50082 0.0
C790 C 0.31226 0.68109 0.51008 0.0
C791 C 0.28534 0.66755 0.51685 0.0
C792 C 0.28947 0.64739 0.52863 0.0
C793 C 0.3211 0.64174 0.53368 0.0
C794 C 0.348 0.65528 0.52689 0.0
H795 H 0.40612 0.61845 0.49261 0.0
H796 H 0.39908 0.62097 0.51117 0.0
H797 H 0.36533 0.62336 0.49926 0.0
H798 H 0.30852 0.69606 0.50089 0.0
H799 H 0.26133 0.6725 0.51271 0.0
H800 H 0.31834 0.19505 0.43182 0.0
H801 H 0.27646 0.19287 0.41365 0.0
H802 H 0.3399 0.24383 0.38517 0.0
H803 H 0.38182 0.24646 0.4033 0.0
H804 H 0.27749 0.26981 0.38647 0.0
H805 H 0.27355 0.13641 0.3782 0.0
H806 H 0.26885 0.14879 0.39614 0.0
H807 H 0.30659 0.15633 0.38723 0.0
C808 C 0.32351 0.20559 0.42166 0.0
C809 C 0.35349 0.22089 0.41902 0.0
C810 C 0.29959 0.20416 0.41126 0.0
C811 C 0.30523 0.21782 0.398 0.0
C812 C 0.33512 0.233 0.39531 0.0
H813 H 0.18886 0.19692 0.32246 0.0
H814 H 0.2317 0.19532 0.34025 0.0
C815 C 0.35906 0.23444 0.40569 0.0
C816 C 0.27948 0.21758 0.38713 0.0
H817 H 0.23196 0.16748 0.36726 0.0
C818 C 0.26759 0.24745 0.38223 0.0
C819 C 0.26687 0.18837 0.38152 0.0
C820 C 0.27977 0.15563 0.38592 0.0
C821 C 0.24306 0.24891 0.37203 0.0
C822 C 0.22974 0.2197 0.36673 0.0
C823 C 0.242 0.18982 0.37145 0.0
C824 C 0.20332 0.21975 0.35616 0.0
C825 C 0.23195 0.28172 0.36685 0.0
C826 C 0.17297 0.23347 0.3593 0.0
C827 C 0.14846 0.23448 0.34917 0.0
C828 C 0.15377 0.2216 0.3357 0.0
C829 C 0.18398 0.20715 0.3327 0.0
C830 C 0.20848 0.20617 0.34286 0.0
H831 H 0.24995 0.30105 0.36928 0.0
H832 H 0.2277 0.28134 0.35536 0.0
H833 H 0.20873 0.28819 0.37207 0.0
H834 H 0.16828 0.24352 0.3696 0.0
H835 H 0.12544 0.24559 0.35187 0.0
H836 H 0.24534 0.62398 0.60176 0.0
H837 H 0.24245 0.66604 0.61978 0.0
H838 H 0.19399 0.72996 0.59072 0.0
H839 H 0.19638 0.68788 0.57264 0.0
H840 H 0.2696 0.72755 0.61875 0.0
H841 H 0.13577 0.73457 0.62551 0.0
H842 H 0.15543 0.70116 0.61666 0.0
H843 H 0.14931 0.7391 0.60772 0.0
C844 C 0.23381 0.64687 0.59921 0.0
C845 C 0.22102 0.65252 0.58575 0.0
C846 C 0.23222 0.67089 0.60953 0.0
C847 C 0.21766 0.70097 0.60665 0.0
C848 C 0.20476 0.70669 0.59325 0.0
H849 H 0.24691 0.87968 0.65342 0.0
H850 H 0.24478 0.83723 0.63552 0.0
C851 C 0.20632 0.68266 0.58291 0.0
C852 C 0.21735 0.72679 0.61749 0.0
H853 H 0.16716 0.77536 0.63683 0.0
C854 C 0.24721 0.73796 0.62273 0.0
C855 C 0.18809 0.74007 0.62276 0.0
C856 C 0.15529 0.72796 0.61799 0.0
C857 C 0.24863 0.76237 0.63298 0.0
C858 C 0.21942 0.77632 0.63796 0.0
C859 C 0.18952 0.76483 0.63288 0.0
C860 C 0.21946 0.80255 0.6486 0.0
C861 C 0.2814 0.77263 0.63856 0.0
C862 C 0.20506 0.79747 0.66175 0.0
C863 C 0.2061 0.82174 0.672 0.0
C864 C 0.22141 0.85163 0.66925 0.0
C865 C 0.23511 0.85689 0.65592 0.0
C866 C 0.23406 0.83261 0.6457 0.0
H867 H 0.30047 0.75427 0.63629 0.0
H868 H 0.2887 0.79578 0.63351 0.0
H869 H 0.28041 0.77666 0.65006 0.0
H870 H 0.19354 0.77448 0.66417 0.0
H871 H 0.19521 0.81691 0.68213 0.0
H872 H 0.6266 0.75763 0.40382 0.0
H873 H 0.66939 0.75952 0.38605 0.0
H874 H 0.73126 0.81217 0.41458 0.0
H875 H 0.68852 0.81067 0.43242 0.0
H876 H 0.73006 0.8377 0.38691 0.0
H877 H 0.75342 0.70487 0.38754 0.0
H878 H 0.71168 0.71589 0.38471 0.0
H879 H 0.73078 0.72522 0.40117 0.0
C880 C 0.64926 0.7697 0.40633 0.0
C881 C 0.6542 0.78383 0.41959 0.0
C882 C 0.67374 0.7706 0.39617 0.0
C883 C 0.70364 0.78555 0.39908 0.0
C884 C 0.7084 0.80037 0.41217 0.0
H885 H 0.88262 0.76051 0.35207 0.0
H886 H 0.8408 0.76329 0.37024 0.0
C887 C 0.68395 0.79944 0.42235 0.0
C888 C 0.73002 0.78555 0.38851 0.0
H889 H 0.77974 0.73535 0.36976 0.0
C890 C 0.74101 0.81536 0.38317 0.0
C891 C 0.74453 0.75638 0.38381 0.0
C892 C 0.73477 0.72376 0.38967 0.0
C893 C 0.76578 0.81674 0.37305 0.0
C894 C 0.77957 0.78749 0.36802 0.0
C895 C 0.76895 0.75773 0.37355 0.0
C896 C 0.80521 0.78712 0.35709 0.0
C897 C 0.77728 0.8495 0.36797 0.0
C898 C 0.79902 0.79947 0.34364 0.0
C899 C 0.82291 0.79799 0.33323 0.0
C900 C 0.85337 0.78389 0.33605 0.0
C901 C 0.85947 0.77157 0.34955 0.0
C902 C 0.83559 0.77311 0.35995 0.0
H903 H 0.77057 0.86919 0.37539 0.0
H904 H 0.80406 0.84972 0.3665 0.0
H905 H 0.76574 0.85492 0.35772 0.0
H906 H 0.77552 0.80977 0.34112 0.0
H907 H 0.81732 0.80753 0.32293 0.0
H908 H 0.80956 0.18794 0.68264 0.0
H909 H 0.81142 0.23072 0.66483 0.0
H910 H 0.76225 0.16778 0.63558 0.0
H911 H 0.75991 0.12502 0.65332 0.0
H912 H 0.8389 0.23078 0.6377 0.0
H913 H 0.70534 0.24981 0.63612 0.0
H914 H 0.72513 0.22743 0.64998 0.0
H915 H 0.7178 0.20853 0.63329 0.0
C916 C 0.79918 0.18315 0.67241 0.0
C917 C 0.78436 0.15312 0.66945 0.0
C918 C 0.80031 0.20762 0.66224 0.0
C919 C 0.78653 0.20258 0.64897 0.0
C920 C 0.77247 0.17238 0.64585 0.0
H921 H 0.81063 0.31778 0.57326 0.0
H922 H 0.81306 0.27577 0.59137 0.0
C923 C 0.7713 0.14792 0.656 0.0
C924 C 0.78663 0.22898 0.6384 0.0
H925 H 0.73652 0.27706 0.61883 0.0
C926 C 0.81655 0.24099 0.63358 0.0
C927 C 0.75741 0.2425 0.6332 0.0
C928 C 0.72457 0.23167 0.63848 0.0
C929 C 0.81803 0.26583 0.6235 0.0
C930 C 0.78879 0.27866 0.61799 0.0
C931 C 0.7589 0.26699 0.62298 0.0
C932 C 0.78854 0.30448 0.60716 0.0
C933 C 0.85082 0.27847 0.61899 0.0
C934 C 0.77354 0.33438 0.60995 0.0
C935 C 0.77196 0.35837 0.59961 0.0
C936 C 0.78518 0.35286 0.58622 0.0
C937 C 0.80034 0.3229 0.58347 0.0
C938 C 0.80192 0.2989 0.59384 0.0
H939 H 0.87015 0.27205 0.62663 0.0
H940 H 0.85735 0.26757 0.60873 0.0
H941 H 0.85032 0.30528 0.61772 0.0
H942 H 0.76294 0.33911 0.62014 0.0
H943 H 0.76006 0.38112 0.60209 0.0
H944 H 0.18669 0.30818 0.93097 0.0
H945 H 0.22818 0.31064 0.91265 0.0
H946 H 0.1639 0.26073 0.88417 0.0
H947 H 0.12236 0.25778 0.90247 0.0
H948 H 0.22595 0.23457 0.88489 0.0
H949 H 0.23086 0.36821 0.87766 0.0
H950 H 0.23606 0.35525 0.8955 0.0
H951 H 0.19798 0.34822 0.88676 0.0
C952 C 0.18125 0.29791 0.92078 0.0
C953 C 0.15115 0.28282 0.91819 0.0
C954 C 0.20495 0.29953 0.9103 0.0
C955 C 0.19895 0.28628 0.89699 0.0
C956 C 0.16895 0.27126 0.89435 0.0
H957 H 0.31638 0.30917 0.82168 0.0
H958 H 0.2731 0.31051 0.83929 0.0
C959 C 0.14523 0.26962 0.90483 0.0
C960 C 0.22447 0.28678 0.88601 0.0
H961 H 0.2725 0.33734 0.86658 0.0
C962 C 0.23604 0.25703 0.88085 0.0
C963 C 0.23734 0.31612 0.88064 0.0
C964 C 0.22475 0.34879 0.88531 0.0
C965 C 0.26057 0.25581 0.87064 0.0
C966 C 0.27422 0.28513 0.86562 0.0
C967 C 0.26222 0.3149 0.87056 0.0
C968 C 0.30088 0.2853 0.85516 0.0
C969 C 0.27138 0.22315 0.86518 0.0
C970 C 0.33105 0.27125 0.85836 0.0
C971 C 0.35581 0.27042 0.84834 0.0
C972 C 0.35093 0.28378 0.83493 0.0
C973 C 0.32092 0.29857 0.83188 0.0
C974 C 0.29616 0.29939 0.84193 0.0
H975 H 0.25314 0.20391 0.86739 0.0
H976 H 0.27577 0.22406 0.8537 0.0
H977 H 0.29447 0.21617 0.87039 0.0
H978 H 0.33539 0.26079 0.86861 0.0
H979 H 0.37867 0.25902 0.85108 0.0
H980 H 0.2453 0.63576 0.15706 0.0
H981 H 0.24961 0.678 0.13922 0.0
H982 H 0.33265 0.71846 0.16065 0.0
H983 H 0.32743 0.67706 0.17894 0.0
H984 H 0.29437 0.76499 0.1531 0.0
H985 H 0.31026 0.68523 0.1071 0.0
H986 H 0.27337 0.6756 0.11616 0.0
H987 H 0.31196 0.66992 0.12479 0.0
C988 C 0.26464 0.6535 0.15792 0.0
C989 C 0.28613 0.653 0.16937 0.0
C990 C 0.26725 0.67753 0.14763 0.0
C991 C 0.29197 0.70102 0.14836 0.0
C992 C 0.3135 0.70051 0.1598 0.0
H993 H 0.32718 0.8286 0.07645 0.0
H994 H 0.33257 0.78714 0.0947 0.0
C995 C 0.31051 0.67683 0.17024 0.0
C996 C 0.29433 0.727 0.13756 0.0
H997 H 0.2945 0.7403 0.10223 0.0
C998 C 0.29479 0.75954 0.14198 0.0
C999 C 0.29558 0.72005 0.12303 0.0
C1000 C 0.29814 0.68579 0.11751 0.0
C1001 C 0.2954 0.78524 0.1323 0.0
C1002 C 0.29422 0.77828 0.11777 0.0
C1003 C 0.29487 0.74574 0.11335 0.0
C1004 C 0.29173 0.80426 0.10698 0.0
C1005 C 0.29778 0.81951 0.13783 0.0
C1006 C 0.26686 0.82757 0.1077 0.0
C1007 C 0.26415 0.85162 0.09743 0.0
C1008 C 0.2857 0.85235 0.086 0.0
C1009 C 0.31022 0.82867 0.08513 0.0
C1010 C 0.3133 0.80496 0.09556 0.0
H1011 H 0.30987 0.82014 0.14824 0.0
H1012 H 0.31153 0.83546 0.13055 0.0
H1013 H 0.27295 0.82956 0.13916 0.0
H1014 H 0.24919 0.82694 0.1161 0.0
H1015 H 0.2447 0.86924 0.09829 0.0
H1016 H 0.8827 0.7466 0.90273 0.0
H1017 H 0.84059 0.74421 0.88467 0.0
H1018 H 0.77732 0.69312 0.91316 0.0
H1019 H 0.81939 0.69505 0.93127 0.0
H1020 H 0.77874 0.66656 0.88586 0.0
H1021 H 0.75746 0.79976 0.8851 0.0
H1022 H 0.79904 0.78794 0.88244 0.0
H1023 H 0.77968 0.77984 0.89896 0.0
C1024 C 0.85987 0.73477 0.90517 0.0
C1025 C 0.85435 0.7212 0.91849 0.0
C1026 C 0.83578 0.73357 0.89484 0.0
C1027 C 0.80567 0.71893 0.89766 0.0
C1028 C 0.80035 0.70466 0.91081 0.0
H1029 H 0.62646 0.7441 0.85136 0.0
H1030 H 0.66913 0.74139 0.86913 0.0
C1031 C 0.82442 0.70584 0.92115 0.0
C1032 C 0.77959 0.71878 0.88693 0.0
H1033 H 0.73058 0.7687 0.8677 0.0
C1034 C 0.76815 0.68886 0.88188 0.0
C1035 C 0.76557 0.74792 0.88191 0.0
C1036 C 0.7758 0.78071 0.88745 0.0
C1037 C 0.74331 0.68731 0.87179 0.0
C1038 C 0.72989 0.71649 0.86651 0.0
C1039 C 0.74109 0.74638 0.87169 0.0
C1040 C 0.70374 0.71668 0.85581 0.0
C1041 C 0.73122 0.65449 0.86707 0.0
C1042 C 0.70906 0.70373 0.84239 0.0
C1043 C 0.68466 0.70517 0.83219 0.0
C1044 C 0.65456 0.71981 0.8352 0.0
C1045 C 0.64932 0.73263 0.84868 0.0
C1046 C 0.67369 0.73114 0.85886 0.0
H1047 H 0.73812 0.635 0.87455 0.0
H1048 H 0.70437 0.65452 0.86587 0.0
H1049 H 0.74211 0.64858 0.85674 0.0
H1050 H 0.7323 0.69302 0.83973 0.0
H1051 H 0.68957 0.69523 0.82189 0.0
H1052 H 0.67989 0.17543 0.07667 0.0
H1053 H 0.67598 0.21744 0.09474 0.0
H1054 H 0.75997 0.17725 0.11556 0.0
H1055 H 0.76297 0.13435 0.09794 0.0
H1056 H 0.71666 0.19294 0.13413 0.0
H1057 H 0.7302 0.29698 0.09778 0.0
H1058 H 0.69565 0.27224 0.09364 0.0
H1059 H 0.736 0.25557 0.09221 0.0
C1060 C 0.69749 0.17558 0.08511 0.0
C1061 C 0.72183 0.1517 0.08585 0.0
C1062 C 0.69539 0.19976 0.09539 0.0
C1063 C 0.71815 0.20106 0.10636 0.0
C1064 C 0.74218 0.1769 0.10719 0.0
H1065 H 0.76249 0.36835 0.15754 0.0
H1066 H 0.75973 0.32536 0.13996 0.0
C1067 C 0.7439 0.15238 0.09709 0.0
C1068 C 0.71695 0.22727 0.11709 0.0
H1069 H 0.71666 0.30964 0.12132 0.0
C1070 C 0.71675 0.21847 0.13132 0.0
C1071 C 0.71752 0.26063 0.11346 0.0
C1072 C 0.7202 0.27195 0.09845 0.0
C1073 C 0.71732 0.24196 0.142 0.0
C1074 C 0.71676 0.27532 0.13836 0.0
C1075 C 0.71675 0.28411 0.12413 0.0
C1076 C 0.71782 0.30154 0.14909 0.0
C1077 C 0.71979 0.23064 0.15701 0.0
C1078 C 0.69494 0.30285 0.16002 0.0
C1079 C 0.69689 0.3271 0.17027 0.0
C1080 C 0.72122 0.35103 0.16956 0.0
C1081 C 0.74342 0.3503 0.15836 0.0
C1082 C 0.74185 0.32572 0.1483 0.0
H1083 H 0.72977 0.20562 0.15772 0.0
H1084 H 0.7355 0.24704 0.16329 0.0
H1085 H 0.69517 0.23035 0.16176 0.0
H1086 H 0.67553 0.28515 0.16063 0.0
H1087 H 0.6792 0.32728 0.17868 0.0
H1088 H 0.97953 0.86349 0.31355 0.0
H1089 H 0.00511 0.917 0.31474 0.0
H1090 H 0.92776 0.95711 0.28959 0.0
H1091 H 0.90262 0.90345 0.28796 0.0
H1092 H 0.98484 0.97622 0.28009 0.0
H1093 H 0.98224 0.99555 0.3375 0.0
H1094 H 1.00248 0.95857 0.33277 0.0
H1095 H 0.95981 0.96332 0.32909 0.0
C1096 C 0.96777 0.88378 0.3084 0.0
C1097 C 0.939 0.87923 0.30068 0.0
C1098 C 0.98233 0.91443 0.30917 0.0
C1099 C 0.96809 0.94125 0.30247 0.0
C1100 C 0.93914 0.93681 0.2949 0.0
H1101 H 0.02527 0.14315 0.31383 0.0
H1102 H 0.99817 0.09029 0.31465 0.0
C1103 C 0.92478 0.90612 0.29398 0.0
C1104 C 0.98425 0.97354 0.30264 0.0
H1105 H 0.01576 0.0317 0.32427 0.0
C1106 C 0.99141 0.98843 0.28976 0.0
C1107 C 0.99246 0.98971 0.31525 0.0
C1108 C 0.98355 0.97613 0.32943 0.0
C1109 C 0.0069 0.01876 0.28912 0.0
C1110 C 0.01647 0.03422 0.30172 0.0
C1111 C 0.00885 0.01962 0.31461 0.0
C1112 C 0.03383 0.06586 0.30172 0.0
C1113 C 0.01216 0.03418 0.27494 0.0
C1114 C 0.06331 0.06955 0.29448 0.0
C1115 C 0.07865 0.09981 0.29385 0.0
C1116 C 0.06512 0.12687 0.3007 0.0
C1117 C 0.03631 0.12281 0.30844 0.0
C1118 C 0.02079 0.0926 0.30892 0.0
H1119 H 0.99512 0.02428 0.26698 0.0
H1120 H 0.00897 0.06093 0.27543 0.0
H1121 H 0.03726 0.02895 0.27134 0.0
H1122 H 0.07436 0.04906 0.28919 0.0
H1123 H 0.10101 0.10204 0.28794 0.0
H1124 H 0.8995 0.08668 0.72261 0.0
H1125 H 0.95244 0.06047 0.72037 0.0
H1126 H 0.92075 0.01333 0.68238 0.0
H1127 H 0.86732 0.03889 0.68472 0.0
H1128 H 0.95029 0.97128 0.69987 0.0
H1129 H 0.02671 0.08114 0.69426 0.0
H1130 H 1.00194 0.08247 0.70971 0.0
H1131 H 0.983 0.08231 0.6927 0.0
C1132 C 0.90384 0.07099 0.7137 0.0
C1133 C 0.87918 0.06497 0.70382 0.0
C1134 C 0.93423 0.05617 0.71238 0.0
C1135 C 0.94078 0.03538 0.70107 0.0
C1136 C 0.91629 0.02944 0.69115 0.0
H1137 H 0.13766 0.96463 0.68479 0.0
H1138 H 0.08417 0.99003 0.68245 0.0
C1139 C 0.88578 0.0441 0.6925 0.0
C1140 C 0.97263 0.01861 0.70002 0.0
H1141 H 0.05457 0.03179 0.69997 0.0
C1142 C 0.97309 0.98452 0.69975 0.0
C1143 C 1.00238 0.03587 0.69963 0.0
C1144 C 0.00354 0.07246 0.69894 0.0
C1145 C 1.00249 0.9672 0.69958 0.0
C1146 C 0.03223 0.98445 0.70003 0.0
C1147 C 0.03177 0.01855 0.6998 0.0
C1148 C 0.06409 0.96769 0.70107 0.0
C1149 C 1.00133 0.93061 0.69884 0.0
C1150 C 0.07064 0.94677 0.71234 0.0
C1151 C 0.10107 0.93203 0.71365 0.0
C1152 C 0.12578 0.93827 0.70382 0.0
C1153 C 0.11917 0.95925 0.69254 0.0
C1154 C 0.08862 0.97383 0.69119 0.0
H1155 H 0.97819 0.92197 0.69413 0.0
H1156 H 0.0219 0.92082 0.69261 0.0
H1157 H 1.00288 0.92052 0.70961 0.0
H1158 H 0.0524 0.94233 0.7203 0.0
H1159 H 0.10542 0.91625 0.72254 0.0
H1160 H 0.02533 0.36253 0.94093 0.0
H1161 H 0.99992 0.41612 0.93971 0.0
H1162 H 0.07802 0.45629 0.96443 0.0
H1163 H 0.10298 0.40258 0.96609 0.0
H1164 H 0.02122 0.47553 0.97418 0.0
H1165 H 0.02243 0.4945 0.91673 0.0
H1166 H 1.0022 0.45761 0.92163 0.0
H1167 H 0.04499 0.46228 0.92507 0.0
C1168 C 0.03728 0.38285 0.94598 0.0
C1169 C 0.0662 0.37831 0.95359 0.0
C1170 C 0.02282 0.41354 0.94519 0.0
C1171 C 0.03732 0.44041 0.95178 0.0
C1172 C 0.06643 0.43597 0.95922 0.0
H1173 H 0.98106 0.64265 0.94069 0.0
H1174 H 0.00788 0.58966 0.93974 0.0
C1175 C 0.08068 0.40524 0.96015 0.0
C1176 C 0.02126 0.47273 0.95164 0.0
H1177 H 0.98957 0.53096 0.93009 0.0
C1178 C 0.01449 0.48772 0.96453 0.0
C1179 C 0.01282 0.48887 0.93904 0.0
C1180 C 0.02128 0.47515 0.92484 0.0
C1181 C 0.99919 0.51812 0.96521 0.0
C1182 C 0.98942 0.53358 0.95264 0.0
C1183 C 0.99664 0.51888 0.93973 0.0
C1184 C 0.97222 0.56529 0.9527 0.0
C1185 C 0.99431 0.53363 0.97939 0.0
C1186 C 0.94283 0.56904 0.96 0.0
C1187 C 0.92764 0.59936 0.96069 0.0
C1188 C 0.94124 0.62642 0.95387 0.0
C1189 C 0.96997 0.62231 0.94608 0.0
C1190 C 0.98533 0.59203 0.94552 0.0
H1191 H 0.01141 0.52363 0.98731 0.0
H1192 H 0.99771 0.56036 0.97888 0.0
H1193 H 0.96923 0.52861 0.98308 0.0
H1194 H 0.93175 0.54856 0.96528 0.0
H1195 H 0.90534 0.60162 0.96664 0.0
H1196 H 0.36675 0.96638 0.07089 0.0
H1197 H 0.42019 0.99202 0.07328 0.0
H1198 H 0.45168 0.94598 0.03502 0.0
H1199 H 0.39881 0.91966 0.03273 0.0
H1200 H 0.49775 0.94253 0.05521 0.0
H1201 H 0.45193 0.06895 0.05064 0.0
H1202 H 0.43404 0.04605 0.06467 0.0
H1203 H 0.42693 0.03407 0.04681 0.0
C1204 C 0.38508 0.96166 0.063 0.0
C1205 C 0.37843 0.9411 0.05158 0.0
C1206 C 0.41555 0.9765 0.06434 0.0
C1207 C 0.43975 0.97139 0.05419 0.0
C1208 C 0.43335 0.95037 0.04295 0.0
H1209 H 0.60722 0.08513 0.03272 0.0
H1210 H 0.55425 0.059 0.03501 0.0
C1211 C 0.40306 0.93537 0.04165 0.0
C1212 C 0.47177 0.98791 0.05513 0.0
H1213 H 0.50803 0.06255 0.05512 0.0
C1214 C 0.50003 0.96878 0.05525 0.0
C1215 C 0.47468 0.02217 0.05502 0.0
C1216 C 0.44533 0.04407 0.05415 0.0
C1217 C 0.5311 0.98291 0.05508 0.0
C1218 C 0.534 0.01717 0.05515 0.0
C1219 C 0.50575 0.03631 0.0552 0.0
C1220 C 0.56604 0.03367 0.05423 0.0
C1221 C 0.56044 0.96099 0.05428 0.0
C1222 C 0.59019 0.02857 0.0644 0.0
C1223 C 0.62071 0.04329 0.06306 0.0
C1224 C 0.62747 0.06373 0.0516 0.0
C1225 C 0.60288 0.06951 0.04167 0.0
C1226 C 0.57253 0.05462 0.04297 0.0
H1227 H 0.55386 0.9361 0.05079 0.0
H1228 H 0.57891 0.97094 0.04696 0.0
H1229 H 0.57165 0.95906 0.06482 0.0
H1230 H 0.58548 0.01312 0.07336 0.0
H1231 H 0.63902 0.03855 0.07096 0.0
H1232 H 0.41815 0.39817 0.78132 0.0
H1233 H 0.44471 0.45104 0.78324 0.0
H1234 H 0.49039 0.42091 0.8218 0.0
H1235 H 0.46455 0.36757 0.81978 0.0
H1236 H 0.4418 0.49809 0.8031 0.0
H1237 H 0.56772 0.45066 0.79888 0.0
H1238 H 0.53251 0.42595 0.79522 0.0
H1239 H 0.54473 0.43341 0.81304 0.0
C1240 C 0.4338 0.40276 0.79023 0.0
C1241 C 0.43944 0.37853 0.80033 0.0
C1242 C 0.44895 0.43303 0.79132 0.0
C1243 C 0.47 0.43975 0.80253 0.0
C1244 C 0.47488 0.416 0.81288 0.0
H1245 H 0.53928 0.63747 0.81978 0.0
H1246 H 0.51299 0.5843 0.82174 0.0
C1247 C 0.45991 0.38559 0.81175 0.0
C1248 C 0.48689 0.47157 0.80324 0.0
H1249 H 0.56205 0.50682 0.80346 0.0
C1250 C 0.4681 0.50003 0.80322 0.0
C1251 C 0.52121 0.47403 0.80321 0.0
C1252 C 0.54278 0.44443 0.80246 0.0
C1253 C 0.48265 0.53089 0.80308 0.0
C1254 C 0.51697 0.53335 0.80331 0.0
C1255 C 0.53576 0.50489 0.80342 0.0
C1256 C 0.53392 0.56515 0.80263 0.0
C1257 C 0.46112 0.5605 0.80218 0.0
C1258 C 0.55537 0.57163 0.79154 0.0
C1259 C 0.57076 0.60178 0.7905 0.0
C1260 C 0.56498 0.62613 0.80053 0.0
C1261 C 0.54404 0.61934 0.81182 0.0
C1262 C 0.52882 0.58904 0.8129 0.0
H1263 H 0.43627 0.55426 0.7985 0.0
H1264 H 0.45891 0.57159 0.81274 0.0
H1265 H 0.47159 0.57892 0.79498 0.0
H1266 H 0.55978 0.55352 0.78352 0.0
H1267 H 0.58675 0.60615 0.78168 0.0
H1268 H 0.63899 0.46621 0.18459 0.0
H1269 H 0.5858 0.49243 0.18237 0.0
H1270 H 0.55399 0.44563 0.22042 0.0
H1271 H 0.60658 0.41874 0.22253 0.0
H1272 H 0.50781 0.44323 0.20029 0.0
H1273 H 0.555 0.56904 0.20544 0.0
H1274 H 0.5726 0.54638 0.19127 0.0
H1275 H 0.57965 0.53381 0.20907 0.0
C1276 C 0.62062 0.46143 0.19246 0.0
C1277 C 0.62711 0.4405 0.20378 0.0
C1278 C 0.59031 0.47661 0.19123 0.0
C1279 C 0.56611 0.47147 0.20137 0.0
C1280 C 0.57232 0.45006 0.2125 0.0
H1281 H 0.39929 0.58638 0.22306 0.0
H1282 H 0.45214 0.55995 0.22086 0.0
C1283 C 0.60246 0.43472 0.21369 0.0
C1284 C 0.53427 0.48834 0.20055 0.0
H1285 H 0.49882 0.56335 0.20089 0.0
C1286 C 0.50582 0.4695 0.20036 0.0
C1287 C 0.53174 0.52262 0.20083 0.0
C1288 C 0.56132 0.5442 0.2018 0.0
C1289 C 0.47491 0.48394 0.2006 0.0
C1290 C 0.47237 0.51823 0.20066 0.0
C1291 C 0.50082 0.53708 0.20071 0.0
C1292 C 0.44049 0.53501 0.20153 0.0
C1293 C 0.44533 0.4623 0.20131 0.0
C1294 C 0.41651 0.53027 0.19126 0.0
C1295 C 0.38608 0.54515 0.19255 0.0
C1296 C 0.37924 0.56542 0.20405 0.0
C1297 C 0.40369 0.5709 0.21408 0.0
C1298 C 0.43397 0.55582 0.21284 0.0
H1299 H 0.45163 0.43731 0.20477 0.0
H1300 H 0.42689 0.47234 0.20862 0.0
H1301 H 0.4342 0.46057 0.19075 0.0
H1302 H 0.42126 0.51494 0.18227 0.0
H1303 H 0.36789 0.54066 0.18458 0.0
H1304 H 0.40479 0.10167 0.46729 0.0
H1305 H 0.4314 0.0487 0.46597 0.0
H1306 H 0.50757 0.09006 0.44053 0.0
H1307 H 0.48055 0.14293 0.44142 0.0
H1308 H 0.48968 0.03138 0.43086 0.0
H1309 H 0.51088 0.02401 0.48811 0.0
H1310 H 0.46872 0.02876 0.4838 0.0
H1311 H 0.49707 0.06068 0.47967 0.0
C1312 C 0.42715 0.09948 0.46137 0.0
C1313 C 0.4407 0.12658 0.45456 0.0
C1314 C 0.44245 0.06922 0.4607 0.0
C1315 C 0.47191 0.06557 0.45344 0.0
C1316 C 0.48498 0.09235 0.44628 0.0
H1317 H 0.60342 0.90365 0.4671 0.0
H1318 H 0.57813 0.95719 0.4654 0.0
C1319 C 0.4695 0.12256 0.4468 0.0
C1320 C 0.48924 0.03393 0.4534 0.0
H1321 H 0.52112 0.97601 0.47499 0.0
C1322 C 0.4967 0.01931 0.4405 0.0
C1323 C 0.49894 0.01849 0.46599 0.0
C1324 C 0.49381 0.03393 0.48017 0.0
C1325 C 0.5131 0.98941 0.43984 0.0
C1326 C 0.52148 0.97329 0.45244 0.0
C1327 C 0.51444 0.98819 0.46533 0.0
C1328 C 0.53777 0.94108 0.4526 0.0
C1329 C 0.52184 0.97581 0.42564 0.0
C1330 C 0.52358 0.91415 0.44594 0.0
C1331 C 0.53824 0.88356 0.44675 0.0
C1332 C 0.56704 0.87918 0.45446 0.0
C1333 C 0.58122 0.90618 0.4611 0.0
C1334 C 0.56678 0.93681 0.46014 0.0
H1335 H 0.52299 0.9952 0.41756 0.0
H1336 H 0.54561 0.96307 0.42593 0.0
H1337 H 0.50291 0.95818 0.42236 0.0
H1338 H 0.50076 0.91659 0.44039 0.0
H1339 H 0.52653 0.86318 0.44164 0.0
H1340 H 0.8682 0.46549 0.57002 0.0
H1341 H 0.92154 0.4915 0.57178 0.0
H1342 H 0.95135 0.44477 0.53342 0.0
H1343 H 0.8985 0.41804 0.53176 0.0
H1344 H 0.99859 0.44242 0.55315 0.0
H1345 H 0.95115 0.56815 0.54847 0.0
H1346 H 0.93401 0.54558 0.56277 0.0
H1347 H 0.92636 0.5329 0.54504 0.0
C1348 C 0.88614 0.46067 0.56197 0.0
C1349 C 0.87901 0.43983 0.5507 0.0
C1350 C 0.91655 0.47573 0.56295 0.0
C1351 C 0.94021 0.4706 0.55258 0.0
C1352 C 0.93341 0.44922 0.5415 0.0
H1353 H 0.10727 0.58692 0.53158 0.0
H1354 H 0.05445 0.56018 0.53332 0.0
C1355 C 0.90315 0.43396 0.54057 0.0
C1356 C 0.97207 0.48749 0.55316 0.0
H1357 H 0.00738 0.56258 0.55312 0.0
C1358 C 1.00054 0.4687 0.55317 0.0
C1359 C 0.97455 0.52178 0.553 0.0
C1360 C 0.94493 0.54333 0.55218 0.0
C1361 C 0.03142 0.48322 0.55298 0.0
C1362 C 0.0339 0.51751 0.55312 0.0
C1363 C 0.00543 0.5363 0.55316 0.0
C1364 C 0.06576 0.5344 0.55248 0.0
C1365 C 0.06104 0.46167 0.55213 0.0
C1366 C 0.0895 0.5293 0.56282 0.0
C1367 C 0.1199 0.54438 0.56179 0.0
C1368 C 0.12693 0.56519 0.5505 0.0
C1369 C 0.1027 0.57102 0.5404 0.0
C1370 C 0.07246 0.55576 0.54139 0.0
H1371 H 0.05479 0.43684 0.54845 0.0
H1372 H 0.07956 0.47208 0.54496 0.0
H1373 H 0.07203 0.45945 0.56271 0.0
H1374 H 0.08459 0.51355 0.57167 0.0
H1375 H 0.13791 0.53959 0.56981 0.0
loop_
_geom_bond_atom_site_label_1
_geom_bond_atom_site_label_2
_geom_bond_distance
_geom_bond_site_symmetry_2
_ccdc_geom_bond_type
C0 O2 1.247 . S
C0 O4 1.258 . S
C1 O8 1.247 . S
C1 O9 1.258 . S
O2 C0 1.247 . S
O2 Zn3 2.028 . S
Zn3 O2 2.028 . S
Zn3 O7 2.035 . S
Zn3 O9 2.035 . S
Zn3 O10 2.028 . S
O4 C0 1.258 . S
O4 Zn5 2.035 . S
Zn5 O4 2.035 . S
Zn5 O6 2.028 . S
Zn5 O8 2.028 . S
Zn5 O11 2.035 . S
O6 Zn5 2.028 . S
O6 C12 1.247 . S
O7 Zn3 2.035 . S
O7 C12 1.258 . S
O8 C1 1.247 . S
O8 Zn5 2.028 . S
O9 C1 1.258 . S
O9 Zn3 2.035 . S
O10 Zn3 2.028 . S
O10 C13 1.247 . S
O11 Zn5 2.035 . S
O11 C13 1.258 . S
C12 O6 1.247 . S
C12 O7 1.258 . S
C13 O10 1.247 . S
C13 O11 1.258 . S
C14 O16 1.247 . S
C14 O18 1.258 . S
C15 O22 1.247 . S
C15 O23 1.258 . S
O16 C14 1.247 . S
O16 Zn17 2.028 . S
Zn17 O16 2.028 . S
Zn17 O21 2.035 . S
Zn17 O23 2.035 . S
Zn17 O24 2.028 . S
O18 C14 1.258 . S
O18 Zn19 2.035 . S
Zn19 O18 2.035 . S
Zn19 O20 2.028 . S
Zn19 O22 2.028 . S
Zn19 O25 2.035 . S
O20 Zn19 2.028 . S
O20 C26 1.247 . S
O21 Zn17 2.035 . S
O21 C26 1.258 . S
O22 C15 1.247 . S
O22 Zn19 2.028 . S
O23 C15 1.258 . S
O23 Zn17 2.035 . S
O24 Zn17 2.028 . S
O24 C27 1.247 . S
O25 Zn19 2.035 . S
O25 C27 1.258 . S
C26 O20 1.247 . S
C26 O21 1.258 . S
C27 O24 1.247 . S
C27 O25 1.258 . S
C28 O30 1.247 . S
C28 O32 1.258 . S
C29 O36 1.247 . S
C29 O37 1.258 . S
O30 C28 1.247 . S
O30 Zn31 2.028 . S
Zn31 O30 2.028 . S
Zn31 O35 2.035 . S
Zn31 O37 2.035 . S
Zn31 O38 2.028 . S
O32 C28 1.258 . S
O32 Zn33 2.035 . S
Zn33 O32 2.035 . S
Zn33 O34 2.028 . S
Zn33 O36 2.028 . S
Zn33 O39 2.035 . S
O34 Zn33 2.028 . S
O34 C40 1.247 . S
O35 Zn31 2.035 . S
O35 C40 1.258 . S
O36 C29 1.247 . S
O36 Zn33 2.028 . S
O37 C29 1.258 . S
O37 Zn31 2.035 . S
O38 Zn31 2.028 . S
O38 C41 1.247 . S
O39 Zn33 2.035 . S
O39 C41 1.258 . S
C40 O34 1.247 . S
C40 O35 1.258 . S
C41 O38 1.247 . S
C41 O39 1.258 . S
C42 O44 1.247 . S
C42 O46 1.258 . S
C43 O50 1.247 . S
C43 O51 1.258 . S
O44 C42 1.247 . S
O44 Zn45 2.028 . S
Zn45 O44 2.028 . S
Zn45 O49 2.035 . S
Zn45 O51 2.035 . S
Zn45 O52 2.028 . S
O46 C42 1.258 . S
O46 Zn47 2.035 . S
Zn47 O46 2.035 . S
Zn47 O48 2.028 . S
Zn47 O50 2.028 . S
Zn47 O53 2.035 . S
O48 Zn47 2.028 . S
O48 C54 1.247 . S
O49 Zn45 2.035 . S
O49 C54 1.258 . S
O50 C43 1.247 . S
O50 Zn47 2.028 . S
O51 C43 1.258 . S
O51 Zn45 2.035 . S
O52 Zn45 2.028 . S
O52 C55 1.247 . S
O53 Zn47 2.035 . S
O53 C55 1.258 . S
C54 O48 1.247 . S
C54 O49 1.258 . S
C55 O52 1.247 . S
C55 O53 1.258 . S
C56 O58 1.247 . S
C56 O60 1.258 . S
C57 O64 1.247 . S
C57 O65 1.258 . S
O58 C56 1.247 . S
O58 Zn59 2.028 . S
Zn59 O58 2.028 . S
Zn59 O63 2.035 . S
Zn59 O65 2.035 . S
Zn59 O66 2.028 . S
O60 C56 1.258 . S
O60 Zn61 2.035 . S
Zn61 O60 2.035 . S
Zn61 O62 2.028 . S
Zn61 O64 2.028 . S
Zn61 O67 2.035 . S
O62 Zn61 2.028 . S
O62 C68 1.247 . S
O63 Zn59 2.035 . S
O63 C68 1.258 . S
O64 C57 1.247 . S
O64 Zn61 2.028 . S
O65 C57 1.258 . S
O65 Zn59 2.035 . S
O66 Zn59 2.028 . S
O66 C69 1.247 . S
O67 Zn61 2.035 . S
O67 C69 1.258 . S
C68 O62 1.247 . S
C68 O63 1.258 . S
C69 O66 1.247 . S
C69 O67 1.258 . S
C70 O72 1.247 . S
C70 O74 1.258 . S
C71 O78 1.247 . S
C71 O79 1.258 . S
O72 C70 1.247 . S
O72 Zn73 2.028 . S
Zn73 O72 2.028 . S
Zn73 O77 2.035 . S
Zn73 O79 2.035 . S
Zn73 O80 2.028 . S
O74 C70 1.258 . S
O74 Zn75 2.035 . S
Zn75 O74 2.035 . S
Zn75 O76 2.028 . S
Zn75 O78 2.028 . S
Zn75 O81 2.035 . S
O76 Zn75 2.028 . S
O76 C82 1.247 . S
O77 Zn73 2.035 . S
O77 C82 1.258 . S
O78 C71 1.247 . S
O78 Zn75 2.028 . S
O79 C71 1.258 . S
O79 Zn73 2.035 . S
O80 Zn73 2.028 . S
O80 C83 1.247 . S
O81 Zn75 2.035 . S
O81 C83 1.258 . S
C82 O76 1.247 . S
C82 O77 1.258 . S
C83 O80 1.247 . S
C83 O81 1.258 . S
C84 O86 1.247 . S
C84 O88 1.258 . S
C85 O92 1.247 . S
C85 O93 1.258 . S
O86 C84 1.247 . S
O86 Zn87 2.028 . S
Zn87 O86 2.028 . S
Zn87 O91 2.035 . S
Zn87 O93 2.035 . S
Zn87 O94 2.028 . S
O88 C84 1.258 . S
O88 Zn89 2.035 . S
Zn89 O88 2.035 . S
Zn89 O90 2.028 . S
Zn89 O92 2.028 . S
Zn89 O95 2.035 . S
O90 Zn89 2.028 . S
O90 C96 1.247 . S
O91 Zn87 2.035 . S
O91 C96 1.258 . S
O92 C85 1.247 . S
O92 Zn89 2.028 . S
O93 C85 1.258 . S
O93 Zn87 2.035 . S
O94 Zn87 2.028 . S
O94 C97 1.247 . S
O95 Zn89 2.035 . S
O95 C97 1.258 . S
C96 O90 1.247 . S
C96 O91 1.258 . S
C97 O94 1.247 . S
C97 O95 1.258 . S
C98 O100 1.247 . S
C98 O102 1.258 . S
C99 O106 1.247 . S
C99 O107 1.258 . S
O100 C98 1.247 . S
O100 Zn101 2.028 . S
Zn101 O100 2.028 . S
Zn101 O105 2.035 . S
Zn101 O107 2.035 . S
Zn101 O108 2.028 . S
O102 C98 1.258 . S
O102 Zn103 2.035 . S
Zn103 O102 2.035 . S
Zn103 O104 2.028 . S
Zn103 O106 2.028 . S
Zn103 O109 2.035 . S
O104 Zn103 2.028 . S
O104 C110 1.247 . S
O105 Zn101 2.035 . S
O105 C110 1.258 . S
O106 C99 1.247 . S
O106 Zn103 2.028 . S
O107 C99 1.258 . S
O107 Zn101 2.035 . S
O108 Zn101 2.028 . S
O108 C111 1.247 . S
O109 Zn103 2.035 . S
O109 C111 1.258 . S
C110 O104 1.247 . S
C110 O105 1.258 . S
C111 O108 1.247 . S
C111 O109 1.258 . S
C112 O114 1.247 . S
C112 O116 1.258 . S
C113 O120 1.247 . S
C113 O121 1.258 . S
O114 C112 1.247 . S
O114 Zn115 2.028 . S
Zn115 O114 2.028 . S
Zn115 O119 2.035 . S
Zn115 O121 2.035 . S
Zn115 O122 2.028 . S
O116 C112 1.258 . S
O116 Zn117 2.035 . S
Zn117 O116 2.035 . S
Zn117 O118 2.028 . S
Zn117 O120 2.028 . S
Zn117 O123 2.035 . S
O118 Zn117 2.028 . S
O118 C124 1.247 . S
O119 Zn115 2.035 . S
O119 C124 1.258 . S
O120 C113 1.247 . S
O120 Zn117 2.028 . S
O121 C113 1.258 . S
O121 Zn115 2.035 . S
O122 Zn115 2.028 . S
O122 C125 1.247 . S
O123 Zn117 2.035 . S
O123 C125 1.258 . S
C124 O118 1.247 . S
C124 O119 1.258 . S
C125 O122 1.247 . S
C125 O123 1.258 . S
C126 O128 1.247 . S
C126 O130 1.258 . S
C127 O134 1.247 . S
C127 O135 1.258 . S
O128 C126 1.247 . S
O128 Zn129 2.028 . S
Zn129 O128 2.028 . S
Zn129 O133 2.035 . S
Zn129 O135 2.035 . S
Zn129 O136 2.028 . S
O130 C126 1.258 . S
O130 Zn131 2.035 . S
Zn131 O130 2.035 . S
Zn131 O132 2.028 . S
Zn131 O134 2.028 . S
Zn131 O137 2.035 . S
O132 Zn131 2.028 . S
O132 C138 1.247 . S
O133 Zn129 2.035 . S
O133 C138 1.258 . S
O134 C127 1.247 . S
O134 Zn131 2.028 . S
O135 C127 1.258 . S
O135 Zn129 2.035 . S
O136 Zn129 2.028 . S
O136 C139 1.247 . S
O137 Zn131 2.035 . S
O137 C139 1.258 . S
C138 O132 1.247 . S
C138 O133 1.258 . S
C139 O136 1.247 . S
C139 O137 1.258 . S
C140 O142 1.247 . S
C140 O144 1.258 . S
C141 O148 1.247 . S
C141 O149 1.258 . S
O142 C140 1.247 . S
O142 Zn143 2.028 . S
Zn143 O142 2.028 . S
Zn143 O147 2.035 . S
Zn143 O149 2.035 . S
Zn143 O150 2.028 . S
O144 C140 1.258 . S
O144 Zn145 2.035 . S
Zn145 O144 2.035 . S
Zn145 O146 2.028 . S
Zn145 O148 2.028 . S
Zn145 O151 2.035 . S
O146 Zn145 2.028 . S
O146 C152 1.247 . S
O147 Zn143 2.035 . S
O147 C152 1.258 . S
O148 C141 1.247 . S
O148 Zn145 2.028 . S
O149 C141 1.258 . S
O149 Zn143 2.035 . S
O150 Zn143 2.028 . S
O150 C153 1.247 . S
O151 Zn145 2.035 . S
O151 C153 1.258 . S
C152 O146 1.247 . S
C152 O147 1.258 . S
C153 O150 1.247 . S
C153 O151 1.258 . S
C154 O156 1.247 . S
C154 O158 1.258 . S
C155 O162 1.247 . S
C155 O163 1.258 . S
O156 C154 1.247 . S
O156 Zn157 2.028 . S
Zn157 O156 2.028 . S
Zn157 O161 2.035 . S
Zn157 O163 2.035 . S
Zn157 O164 2.028 . S
O158 C154 1.258 . S
O158 Zn159 2.035 . S
Zn159 O158 2.035 . S
Zn159 O160 2.028 . S
Zn159 O162 2.028 . S
Zn159 O165 2.035 . S
O160 Zn159 2.028 . S
O160 C166 1.247 . S
O161 Zn157 2.035 . S
O161 C166 1.258 . S
O162 C155 1.247 . S
O162 Zn159 2.028 . S
O163 C155 1.258 . S
O163 Zn157 2.035 . S
O164 Zn157 2.028 . S
O164 C167 1.247 . S
O165 Zn159 2.035 . S
O165 C167 1.258 . S
C166 O160 1.247 . S
C166 O161 1.258 . S
C167 O164 1.247 . S
C167 O165 1.258 . S
C168 O170 1.247 . S
C168 O172 1.258 . S
C169 O176 1.247 . S
C169 O177 1.258 . S
O170 C168 1.247 . S
O170 Zn171 2.028 . S
Zn171 O170 2.028 . S
Zn171 O175 2.035 . S
Zn171 O177 2.035 . S
Zn171 O178 2.028 . S
O172 C168 1.258 . S
O172 Zn173 2.035 . S
Zn173 O172 2.035 . S
Zn173 O174 2.028 . S
Zn173 O176 2.028 . S
Zn173 O179 2.035 . S
O174 Zn173 2.028 . S
O174 C180 1.247 . S
O175 Zn171 2.035 . S
O175 C180 1.258 . S
O176 C169 1.247 . S
O176 Zn173 2.028 . S
O177 C169 1.258 . S
O177 Zn171 2.035 . S
O178 Zn171 2.028 . S
O178 C181 1.247 . S
O179 Zn173 2.035 . S
O179 C181 1.258 . S
C180 O174 1.247 . S
C180 O175 1.258 . S
C181 O178 1.247 . S
C181 O179 1.258 . S
C182 O184 1.247 . S
C182 O186 1.258 . S
C183 O190 1.247 . S
C183 O191 1.258 . S
O184 C182 1.247 . S
O184 Zn185 2.028 . S
Zn185 O184 2.028 . S
Zn185 O189 2.035 . S
Zn185 O191 2.035 . S
Zn185 O192 2.028 . S
O186 C182 1.258 . S
O186 Zn187 2.035 . S
Zn187 O186 2.035 . S
Zn187 O188 2.028 . S
Zn187 O190 2.028 . S
Zn187 O193 2.035 . S
O188 Zn187 2.028 . S
O188 C194 1.247 . S
O189 Zn185 2.035 . S
O189 C194 1.258 . S
O190 C183 1.247 . S
O190 Zn187 2.028 . S
O191 C183 1.258 . S
O191 Zn185 2.035 . S
O192 Zn185 2.028 . S
O192 C195 1.247 . S
O193 Zn187 2.035 . S
O193 C195 1.258 . S
C194 O188 1.247 . S
C194 O189 1.258 . S
C195 O192 1.247 . S
C195 O193 1.258 . S
C196 O198 1.247 . S
C196 O200 1.258 . S
C197 O204 1.247 . S
C197 O205 1.258 . S
O198 C196 1.247 . S
O198 Zn199 2.028 . S
Zn199 O198 2.028 . S
Zn199 O203 2.035 . S
Zn199 O205 2.035 . S
Zn199 O206 2.028 . S
O200 C196 1.258 . S
O200 Zn201 2.035 . S
Zn201 O200 2.035 . S
Zn201 O202 2.028 . S
Zn201 O204 2.028 . S
Zn201 O207 2.035 . S
O202 Zn201 2.028 . S
O202 C208 1.247 . S
O203 Zn199 2.035 . S
O203 C208 1.258 . S
O204 C197 1.247 . S
O204 Zn201 2.028 . S
O205 C197 1.258 . S
O205 Zn199 2.035 . S
O206 Zn199 2.028 . S
O206 C209 1.247 . S
O207 Zn201 2.035 . S
O207 C209 1.258 . S
C208 O202 1.247 . S
C208 O203 1.258 . S
C209 O206 1.247 . S
C209 O207 1.258 . S
C210 O212 1.247 . S
C210 O214 1.258 . S
C211 O218 1.247 . S
C211 O219 1.258 . S
O212 C210 1.247 . S
O212 Zn213 2.028 . S
Zn213 O212 2.028 . S
Zn213 O217 2.035 . S
Zn213 O219 2.035 . S
Zn213 O220 2.028 . S
O214 C210 1.258 . S
O214 Zn215 2.035 . S
Zn215 O214 2.035 . S
Zn215 O216 2.028 . S
Zn215 O218 2.028 . S
Zn215 O221 2.035 . S
O216 Zn215 2.028 . S
O216 C222 1.247 . S
O217 Zn213 2.035 . S
O217 C222 1.258 . S
O218 C211 1.247 . S
O218 Zn215 2.028 . S
O219 C211 1.258 . S
O219 Zn213 2.035 . S
O220 Zn213 2.028 . S
O220 C223 1.247 . S
O221 Zn215 2.035 . S
O221 C223 1.258 . S
C222 O216 1.247 . S
C222 O217 1.258 . S
C223 O220 1.247 . S
C223 O221 1.258 . S
H224 C232 0.929 . S
H225 C234 0.930 . S
H226 C236 0.930 . S
H227 C239 0.929 . S
H228 C242 0.930 . S
H229 C244 0.960 . S
H230 C244 0.960 . S
H231 C244 0.960 . S
C232 H224 0.929 . S
C232 C233 1.377 . S
C232 C234 1.384 . S
C233 C232 1.377 . S
C233 C239 1.390 . S
C234 H225 0.930 . S
C234 C232 1.384 . S
C234 C235 1.372 . S
C235 C234 1.372 . S
C235 C236 1.400 . S
C235 C240 1.490 . S
C236 H226 0.930 . S
C236 C235 1.400 . S
C236 C239 1.386 . S
H237 C253 0.930 . S
H238 C254 0.931 . S
C239 H227 0.929 . S
C239 C233 1.390 . S
C239 C236 1.386 . S
C240 C235 1.490 . S
C240 C242 1.395 . S
C240 C243 1.403 . S
H241 C247 0.930 . S
C242 H228 0.930 . S
C242 C240 1.395 . S
C242 C245 1.403 . S
C243 C240 1.403 . S
C243 C244 1.524 . S
C243 C247 1.400 . S
C244 H229 0.960 . S
C244 H230 0.960 . S
C244 H231 0.960 . S
C244 C243 1.524 . S
C245 C242 1.403 . S
C245 C246 1.392 . S
C245 C249 1.495 . S
C246 C245 1.392 . S
C246 C247 1.385 . S
C246 C248 1.478 . S
C247 H241 0.930 . S
C247 C243 1.400 . S
C247 C246 1.385 . S
C248 C246 1.478 . S
C248 C250 1.381 . S
C248 C254 1.383 . S
C249 C245 1.495 . S
C249 H255 0.959 . S
C249 H256 0.961 . S
C249 H257 0.960 . S
C250 C248 1.381 . S
C250 C251 1.394 . S
C250 H258 0.930 . S
C251 C250 1.394 . S
C251 C252 1.383 . S
C251 H259 0.929 . S
C252 C251 1.383 . S
C252 C253 1.377 . S
C253 H237 0.930 . S
C253 C252 1.377 . S
C253 C254 1.379 . S
C254 H238 0.931 . S
C254 C248 1.383 . S
C254 C253 1.379 . S
H255 C249 0.959 . S
H256 C249 0.961 . S
H257 C249 0.960 . S
H258 C250 0.930 . S
H259 C251 0.929 . S
H260 C268 0.929 . S
H261 C270 0.930 . S
H262 C272 0.930 . S
H263 C275 0.929 . S
H264 C278 0.930 . S
H265 C280 0.960 . S
H266 C280 0.960 . S
H267 C280 0.960 . S
C268 H260 0.929 . S
C268 C269 1.377 . S
C268 C270 1.384 . S
C269 C268 1.377 . S
C269 C275 1.390 . S
C270 H261 0.930 . S
C270 C268 1.384 . S
C270 C271 1.372 . S
C271 C270 1.372 . S
C271 C272 1.400 . S
C271 C276 1.490 . S
C272 H262 0.930 . S
C272 C271 1.400 . S
C272 C275 1.386 . S
H273 C289 0.930 . S
H274 C290 0.931 . S
C275 H263 0.929 . S
C275 C269 1.390 . S
C275 C272 1.386 . S
C276 C271 1.490 . S
C276 C278 1.395 . S
C276 C279 1.403 . S
H277 C283 0.930 . S
C278 H264 0.930 . S
C278 C276 1.395 . S
C278 C281 1.403 . S
C279 C276 1.403 . S
C279 C280 1.524 . S
C279 C283 1.400 . S
C280 H265 0.960 . S
C280 H266 0.960 . S
C280 H267 0.960 . S
C280 C279 1.524 . S
C281 C278 1.403 . S
C281 C282 1.392 . S
C281 C285 1.495 . S
C282 C281 1.392 . S
C282 C283 1.385 . S
C282 C284 1.478 . S
C283 H277 0.930 . S
C283 C279 1.400 . S
C283 C282 1.385 . S
C284 C282 1.478 . S
C284 C286 1.381 . S
C284 C290 1.383 . S
C285 C281 1.495 . S
C285 H291 0.959 . S
C285 H292 0.961 . S
C285 H293 0.960 . S
C286 C284 1.381 . S
C286 C287 1.394 . S
C286 H294 0.930 . S
C287 C286 1.394 . S
C287 C288 1.383 . S
C287 H295 0.929 . S
C288 C287 1.383 . S
C288 C289 1.377 . S
C289 H273 0.930 . S
C289 C288 1.377 . S
C289 C290 1.379 . S
C290 H274 0.931 . S
C290 C284 1.383 . S
C290 C289 1.379 . S
H291 C285 0.959 . S
H292 C285 0.961 . S
H293 C285 0.960 . S
H294 C286 0.930 . S
H295 C287 0.929 . S
H296 C304 0.929 . S
H297 C306 0.930 . S
H298 C308 0.930 . S
H299 C311 0.929 . S
H300 C314 0.930 . S
H301 C316 0.960 . S
H302 C316 0.960 . S
H303 C316 0.960 . S
C304 H296 0.929 . S
C304 C305 1.377 . S
C304 C306 1.384 . S
C305 C304 1.377 . S
C305 C311 1.390 . S
C306 H297 0.930 . S
C306 C304 1.384 . S
C306 C307 1.372 . S
C307 C306 1.372 . S
C307 C308 1.400 . S
C307 C312 1.490 . S
C308 H298 0.930 . S
C308 C307 1.400 . S
C308 C311 1.386 . S
H309 C325 0.930 . S
H310 C326 0.931 . S
C311 H299 0.929 . S
C311 C305 1.390 . S
C311 C308 1.386 . S
C312 C307 1.490 . S
C312 C314 1.395 . S
C312 C315 1.403 . S
H313 C319 0.930 . S
C314 H300 0.930 . S
C314 C312 1.395 . S
C314 C317 1.403 . S
C315 C312 1.403 . S
C315 C316 1.524 . S
C315 C319 1.400 . S
C316 H301 0.960 . S
C316 H302 0.960 . S
C316 H303 0.960 . S
C316 C315 1.524 . S
C317 C314 1.403 . S
C317 C318 1.392 . S
C317 C321 1.495 . S
C318 C317 1.392 . S
C318 C319 1.385 . S
C318 C320 1.478 . S
C319 H313 0.930 . S
C319 C315 1.400 . S
C319 C318 1.385 . S
C320 C318 1.478 . S
C320 C322 1.381 . S
C320 C326 1.383 . S
C321 C317 1.495 . S
C321 H327 0.959 . S
C321 H328 0.961 . S
C321 H329 0.960 . S
C322 C320 1.381 . S
C322 C323 1.394 . S
C322 H330 0.930 . S
C323 C322 1.394 . S
C323 C324 1.383 . S
C323 H331 0.929 . S
C324 C323 1.383 . S
C324 C325 1.377 . S
C325 H309 0.930 . S
C325 C324 1.377 . S
C325 C326 1.379 . S
C326 H310 0.931 . S
C326 C320 1.383 . S
C326 C325 1.379 . S
H327 C321 0.959 . S
H328 C321 0.961 . S
H329 C321 0.960 . S
H330 C322 0.930 . S
H331 C323 0.929 . S
H332 C340 0.929 . S
H333 C342 0.930 . S
H334 C344 0.930 . S
H335 C347 0.929 . S
H336 C350 0.930 . S
H337 C352 0.960 . S
H338 C352 0.960 . S
H339 C352 0.960 . S
C340 H332 0.929 . S
C340 C341 1.377 . S
C340 C342 1.384 . S
C341 C340 1.377 . S
C341 C347 1.390 . S
C342 H333 0.930 . S
C342 C340 1.384 . S
C342 C343 1.372 . S
C343 C342 1.372 . S
C343 C344 1.400 . S
C343 C348 1.490 . S
C344 H334 0.930 . S
C344 C343 1.400 . S
C344 C347 1.386 . S
H345 C361 0.930 . S
H346 C362 0.931 . S
C347 H335 0.929 . S
C347 C341 1.390 . S
C347 C344 1.386 . S
C348 C343 1.490 . S
C348 C350 1.395 . S
C348 C351 1.403 . S
H349 C355 0.930 . S
C350 H336 0.930 . S
C350 C348 1.395 . S
C350 C353 1.403 . S
C351 C348 1.403 . S
C351 C352 1.524 . S
C351 C355 1.400 . S
C352 H337 0.960 . S
C352 H338 0.960 . S
C352 H339 0.960 . S
C352 C351 1.524 . S
C353 C350 1.403 . S
C353 C354 1.392 . S
C353 C357 1.495 . S
C354 C353 1.392 . S
C354 C355 1.385 . S
C354 C356 1.478 . S
C355 H349 0.930 . S
C355 C351 1.400 . S
C355 C354 1.385 . S
C356 C354 1.478 . S
C356 C358 1.381 . S
C356 C362 1.383 . S
C357 C353 1.495 . S
C357 H363 0.959 . S
C357 H364 0.961 . S
C357 H365 0.960 . S
C358 C356 1.381 . S
C358 C359 1.394 . S
C358 H366 0.930 . S
C359 C358 1.394 . S
C359 C360 1.383 . S
C359 H367 0.929 . S
C360 C359 1.383 . S
C360 C361 1.377 . S
C361 H345 0.930 . S
C361 C360 1.377 . S
C361 C362 1.379 . S
C362 H346 0.931 . S
C362 C356 1.383 . S
C362 C361 1.379 . S
H363 C357 0.959 . S
H364 C357 0.961 . S
H365 C357 0.960 . S
H366 C358 0.930 . S
H367 C359 0.929 . S
H368 C376 0.929 . S
H369 C378 0.930 . S
H370 C380 0.930 . S
H371 C383 0.929 . S
H372 C386 0.930 . S
H373 C388 0.960 . S
H374 C388 0.960 . S
H375 C388 0.960 . S
C376 H368 0.929 . S
C376 C377 1.377 . S
C376 C378 1.384 1_565 S
C377 C376 1.377 . S
C377 C383 1.390 1_565 S
C378 H369 0.930 . S
C378 C376 1.384 1_545 S
C378 C379 1.372 . S
C379 C378 1.372 . S
C379 C380 1.400 . S
C379 C384 1.490 . S
C380 H370 0.930 . S
C380 C379 1.400 . S
C380 C383 1.386 . S
H381 C397 0.930 . S
H382 C398 0.931 . S
C383 H371 0.929 . S
C383 C377 1.390 1_545 S
C383 C380 1.386 . S
C384 C379 1.490 . S
C384 C386 1.395 . S
C384 C387 1.403 1_554 S
H385 C391 0.930 . S
C386 H372 0.930 . S
C386 C384 1.395 . S
C386 C389 1.403 . S
C387 C384 1.403 1_556 S
C387 C388 1.524 . S
C387 C391 1.400 . S
C388 H373 0.960 . S
C388 H374 0.960 . S
C388 H375 0.960 . S
C388 C387 1.524 . S
C389 C386 1.403 . S
C389 C390 1.392 1_554 S
C389 C393 1.495 . S
C390 C389 1.392 1_556 S
C390 C391 1.385 . S
C390 C392 1.478 . S
C391 H385 0.930 . S
C391 C387 1.400 . S
C391 C390 1.385 . S
C392 C390 1.478 . S
C392 C394 1.381 . S
C392 C398 1.383 . S
C393 C389 1.495 . S
C393 H399 0.959 . S
C393 H400 0.961 . S
C393 H401 0.960 . S
C394 C392 1.381 . S
C394 C395 1.394 . S
C394 H402 0.930 . S
C395 C394 1.394 . S
C395 C396 1.383 . S
C395 H403 0.929 . S
C396 C395 1.383 . S
C396 C397 1.377 . S
C397 H381 0.930 . S
C397 C396 1.377 . S
C397 C398 1.379 . S
C398 H382 0.931 . S
C398 C392 1.383 . S
C398 C397 1.379 . S
H399 C393 0.959 . S
H400 C393 0.961 . S
H401 C393 0.960 . S
H402 C394 0.930 . S
H403 C395 0.929 . S
H404 C412 0.929 . S
H405 C414 0.930 . S
H406 C416 0.930 . S
H407 C419 0.929 . S
H408 C422 0.915 1_556 S
H409 C424 0.960 . S
H410 C424 0.960 . S
H411 C424 0.960 . S
C412 H404 0.929 . S
C412 C413 1.377 . S
C412 C414 1.384 . S
C413 C412 1.377 . S
C413 C419 1.390 . S
C414 H405 0.930 . S
C414 C412 1.384 . S
C414 C415 1.372 . S
C415 C414 1.372 . S
C415 C416 1.400 . S
C415 C420 1.490 . S
C416 H406 0.930 . S
C416 C415 1.400 . S
C416 C419 1.386 . S
H417 C433 0.928 1_655 S
H418 C434 0.931 1_554 S
C419 H407 0.929 . S
C419 C413 1.390 . S
C419 C416 1.386 . S
C420 C415 1.490 . S
C420 C422 1.456 . S
C420 C423 1.403 . S
H421 C427 0.930 . S
C422 H408 0.915 1_554 S
C422 C420 1.456 . S
C422 C425 1.362 1_554 S
C423 C420 1.403 . S
C423 C424 1.524 . S
C423 C427 1.400 . S
C424 H409 0.960 . S
C424 H410 0.960 . S
C424 H411 0.960 . S
C424 C423 1.524 . S
C425 C422 1.362 1_556 S
C425 C426 1.392 . S
C425 C429 1.495 . S
C426 C425 1.392 . S
C426 C427 1.385 1_556 S
C426 C428 1.478 . S
C427 H421 0.930 . S
C427 C423 1.400 . S
C427 C426 1.385 1_554 S
C428 C426 1.478 . S
C428 C430 1.381 . S
C428 C434 1.383 . S
C429 C425 1.495 . S
C429 H435 0.959 . S
C429 H436 0.961 . S
C429 H437 0.960 . S
C430 C428 1.381 . S
C430 C431 1.394 . S
C430 H438 0.930 . S
C431 C430 1.394 . S
C431 C432 1.383 1_455 S
C431 H439 0.929 . S
C432 C431 1.383 1_655 S
C432 C433 1.376 1_655 S
C433 H417 0.928 1_455 S
C433 C432 1.376 1_455 S
C433 C434 1.381 . S
C434 H418 0.931 1_556 S
C434 C428 1.383 . S
C434 C433 1.381 . S
H435 C429 0.959 . S
H436 C429 0.961 . S
H437 C429 0.960 . S
H438 C430 0.930 . S
H439 C431 0.929 . S
H440 C448 0.929 . S
H441 C450 0.930 . S
H442 C452 0.930 . S
H443 C455 0.929 . S
H444 C458 0.928 . S
H445 C460 0.960 . S
H446 C460 0.960 . S
H447 C460 0.960 . S
C448 H440 0.929 . S
C448 C449 1.377 . S
C448 C450 1.384 . S
C449 C448 1.377 . S
C449 C455 1.390 . S
C450 H441 0.930 . S
C450 C448 1.384 . S
C450 C451 1.372 . S
C451 C450 1.372 . S
C451 C452 1.400 . S
C451 C456 1.490 . S
C452 H442 0.930 . S
C452 C451 1.400 . S
C452 C455 1.386 . S
H453 C469 0.930 . S
H454 C470 0.931 . S
C455 H443 0.929 . S
C455 C449 1.390 . S
C455 C452 1.386 . S
C456 C451 1.490 . S
C456 C458 1.401 1_556 S
C456 C459 1.403 . S
H457 C463 0.930 . S
C458 H444 0.928 . S
C458 C456 1.401 1_554 S
C458 C461 1.399 . S
C459 C456 1.403 . S
C459 C460 1.524 . S
C459 C463 1.400 . S
C460 H445 0.960 . S
C460 H446 0.960 . S
C460 H447 0.960 . S
C460 C459 1.524 . S
C461 C458 1.399 . S
C461 C462 1.392 . S
C461 C465 1.495 . S
C462 C461 1.392 . S
C462 C463 1.385 1_554 S
C462 C464 1.478 . S
C463 H457 0.930 . S
C463 C459 1.400 . S
C463 C462 1.385 1_556 S
C464 C462 1.478 . S
C464 C466 1.381 . S
C464 C470 1.383 . S
C465 C461 1.495 . S
C465 H471 0.959 . S
C465 H472 0.961 . S
C465 H473 0.960 . S
C466 C464 1.381 . S
C466 C467 1.394 . S
C466 H474 0.930 . S
C467 C466 1.394 . S
C467 C468 1.383 1_565 S
C467 H475 0.929 . S
C468 C467 1.383 1_545 S
C468 C469 1.377 . S
C469 H453 0.930 . S
C469 C468 1.377 . S
C469 C470 1.379 1_545 S
C470 H454 0.931 . S
C470 C464 1.383 . S
C470 C469 1.379 1_565 S
H471 C465 0.959 . S
H472 C465 0.961 . S
H473 C465 0.960 . S
H474 C466 0.930 . S
H475 C467 0.929 . S
H476 C484 0.929 . S
H477 C486 0.930 . S
H478 C488 0.930 . S
H479 C491 0.929 . S
H480 C494 0.930 . S
H481 C496 0.960 . S
H482 C496 0.960 . S
H483 C496 0.960 . S
C484 H476 0.929 . S
C484 C485 1.377 . S
C484 C486 1.384 . S
C485 C484 1.377 . S
C485 C491 1.390 . S
C486 H477 0.930 . S
C486 C484 1.384 . S
C486 C487 1.372 . S
C487 C486 1.372 . S
C487 C488 1.400 . S
C487 C492 1.490 . S
C488 H478 0.930 . S
C488 C487 1.400 . S
C488 C491 1.386 . S
H489 C505 0.930 . S
H490 C506 0.931 . S
C491 H479 0.929 . S
C491 C485 1.390 . S
C491 C488 1.386 . S
C492 C487 1.490 . S
C492 C494 1.395 . S
C492 C495 1.403 . S
H493 C499 0.930 . S
C494 H480 0.930 . S
C494 C492 1.395 . S
C494 C497 1.403 1_554 S
C495 C492 1.403 . S
C495 C496 1.524 . S
C495 C499 1.400 . S
C496 H481 0.960 . S
C496 H482 0.960 . S
C496 H483 0.960 . S
C496 C495 1.524 . S
C497 C494 1.403 1_556 S
C497 C498 1.392 . S
C497 C501 1.495 . S
C498 C497 1.392 . S
C498 C499 1.385 1_556 S
C498 C500 1.478 . S
C499 H493 0.930 . S
C499 C495 1.400 . S
C499 C498 1.385 1_554 S
C500 C498 1.478 . S
C500 C502 1.381 . S
C500 C506 1.383 . S
C501 C497 1.495 . S
C501 H507 0.959 . S
C501 H508 0.961 . S
C501 H509 0.960 . S
C502 C500 1.381 . S
C502 C503 1.394 1_655 S
C502 H510 0.891 1_556 S
C503 C502 1.394 1_455 S
C503 C504 1.383 . S
C503 H511 0.929 . S
C504 C503 1.383 . S
C504 C505 1.377 1_455 S
C505 H489 0.930 . S
C505 C504 1.377 1_655 S
C505 C506 1.379 . S
C506 H490 0.931 . S
C506 C500 1.383 . S
C506 C505 1.379 . S
H507 C501 0.959 . S
H508 C501 0.961 . S
H509 C501 0.960 . S
H510 C502 0.891 1_554 S
H511 C503 0.929 . S
H512 C520 0.929 . S
H513 C522 0.930 . S
H514 C524 0.930 . S
H515 C527 0.929 . S
H516 C530 0.930 . S
H517 C532 0.960 . S
H518 C532 0.960 . S
H519 C532 0.960 . S
C520 H512 0.929 . S
C520 C521 1.377 . S
C520 C522 1.384 . S
C521 C520 1.377 . S
C521 C527 1.390 . S
C522 H513 0.930 . S
C522 C520 1.384 . S
C522 C523 1.372 . S
C523 C522 1.372 . S
C523 C524 1.400 . S
C523 C528 1.490 . S
C524 H514 0.930 . S
C524 C523 1.400 . S
C524 C527 1.386 . S
H525 C541 0.944 . S
H526 C542 0.931 . S
C527 H515 0.929 . S
C527 C521 1.390 . S
C527 C524 1.386 . S
C528 C523 1.490 . S
C528 C530 1.395 . S
C528 C531 1.403 . S
H529 C535 0.930 . S
C530 H516 0.930 . S
C530 C528 1.395 . S
C530 C533 1.403 . S
C531 C528 1.403 . S
C531 C532 1.524 . S
C531 C535 1.400 . S
C532 H517 0.960 . S
C532 H518 0.960 . S
C532 H519 0.960 . S
C532 C531 1.524 . S
C533 C530 1.403 . S
C533 C534 1.392 . S
C533 C537 1.495 . S
C534 C533 1.392 . S
C534 C535 1.385 . S
C534 C536 1.478 . S
C535 H529 0.930 . S
C535 C531 1.400 . S
C535 C534 1.385 . S
C536 C534 1.478 . S
C536 C538 1.381 . S
C536 C542 1.383 . S
C537 C533 1.495 . S
C537 H543 0.959 . S
C537 H544 0.961 . S
C537 H545 0.960 . S
C538 C536 1.381 . S
C538 C539 1.394 . S
C538 H546 0.930 . S
C539 C538 1.394 . S
C539 C540 1.383 1_565 S
C539 H547 0.929 1_565 S
C540 C539 1.383 1_545 S
C540 C541 1.388 . S
C541 H525 0.944 . S
C541 C540 1.388 . S
C541 C542 1.355 1_545 S
C542 H526 0.931 . S
C542 C536 1.383 . S
C542 C541 1.355 1_565 S
H543 C537 0.959 . S
H544 C537 0.961 . S
H545 C537 0.960 . S
H546 C538 0.930 . S
H547 C539 0.929 1_545 S
H548 C556 0.929 . S
H549 C558 0.930 . S
H550 C560 0.930 . S
H551 C563 0.929 . S
H552 C566 0.930 . S
H553 C568 0.960 . S
H554 C568 0.960 . S
H555 C568 0.960 . S
C556 H548 0.929 . S
C556 C557 1.377 1_655 S
C556 C558 1.384 . S
C557 C556 1.377 1_455 S
C557 C563 1.390 . S
C558 H549 0.930 . S
C558 C556 1.384 . S
C558 C559 1.372 . S
C559 C558 1.372 . S
C559 C560 1.400 . S
C559 C564 1.490 . S
C560 H550 0.930 . S
C560 C559 1.400 . S
C560 C563 1.386 1_655 S
H561 C577 0.930 . S
H562 C578 0.931 . S
C563 H551 0.929 . S
C563 C557 1.390 . S
C563 C560 1.386 1_455 S
C564 C559 1.490 . S
C564 C566 1.395 . S
C564 C567 1.403 . S
H565 C571 0.930 . S
C566 H552 0.930 . S
C566 C564 1.395 . S
C566 C569 1.403 . S
C567 C564 1.403 . S
C567 C568 1.524 . S
C567 C571 1.400 . S
C568 H553 0.960 . S
C568 H554 0.960 . S
C568 H555 0.960 . S
C568 C567 1.524 . S
C569 C566 1.403 . S
C569 C570 1.392 . S
C569 C573 1.495 . S
C570 C569 1.392 . S
C570 C571 1.385 . S
C570 C572 1.478 . S
C571 H565 0.930 . S
C571 C567 1.400 . S
C571 C570 1.385 . S
C572 C570 1.478 . S
C572 C574 1.381 . S
C572 C578 1.383 . S
C573 C569 1.495 . S
C573 H579 0.959 . S
C573 H580 0.961 . S
C573 H581 0.960 . S
C574 C572 1.381 . S
C574 C575 1.394 . S
C574 H582 0.930 . S
C575 C574 1.394 . S
C575 C576 1.383 . S
C575 H583 0.929 . S
C576 C575 1.383 . S
C576 C577 1.377 . S
C577 H561 0.930 . S
C577 C576 1.377 . S
C577 C578 1.379 . S
C578 H562 0.931 . S
C578 C572 1.383 . S
C578 C577 1.379 . S
H579 C573 0.959 . S
H580 C573 0.961 . S
H581 C573 0.960 . S
H582 C574 0.930 . S
H583 C575 0.929 . S
H584 C592 0.929 . S
H585 C594 0.930 . S
H586 C596 0.930 . S
H587 C599 0.929 . S
H588 C602 0.930 . S
H589 C604 0.960 . S
H590 C604 0.960 . S
H591 C604 0.960 . S
C592 H584 0.929 . S
C592 C593 1.377 1_545 S
C592 C594 1.384 . S
C593 C592 1.377 1_565 S
C593 C599 1.390 . S
C594 H585 0.930 . S
C594 C592 1.384 . S
C594 C595 1.372 . S
C595 C594 1.372 . S
C595 C596 1.400 . S
C595 C600 1.490 . S
C596 H586 0.930 . S
C596 C595 1.400 . S
C596 C599 1.386 1_545 S
H597 C613 0.930 . S
H598 C614 0.931 . S
C599 H587 0.929 . S
C599 C593 1.390 . S
C599 C596 1.386 1_565 S
C600 C595 1.490 . S
C600 C602 1.395 . S
C600 C603 1.403 . S
H601 C607 0.930 . S
C602 H588 0.930 . S
C602 C600 1.395 . S
C602 C605 1.403 . S
C603 C600 1.403 . S
C603 C604 1.524 . S
C603 C607 1.400 . S
C604 H589 0.960 . S
C604 H590 0.960 . S
C604 H591 0.960 . S
C604 C603 1.524 . S
C605 C602 1.403 . S
C605 C606 1.392 . S
C605 C609 1.495 . S
C606 C605 1.392 . S
C606 C607 1.385 . S
C606 C608 1.478 . S
C607 H601 0.930 . S
C607 C603 1.400 . S
C607 C606 1.385 . S
C608 C606 1.478 . S
C608 C610 1.381 . S
C608 C614 1.383 . S
C609 C605 1.495 . S
C609 H615 0.959 . S
C609 H616 0.961 . S
C609 H617 0.960 . S
C610 C608 1.381 . S
C610 C611 1.394 . S
C610 H618 0.930 . S
C611 C610 1.394 . S
C611 C612 1.383 . S
C611 H619 0.929 . S
C612 C611 1.383 . S
C612 C613 1.377 . S
C613 H597 0.930 . S
C613 C612 1.377 . S
C613 C614 1.379 . S
C614 H598 0.931 . S
C614 C608 1.383 . S
C614 C613 1.379 . S
H615 C609 0.959 . S
H616 C609 0.961 . S
H617 C609 0.960 . S
H618 C610 0.930 . S
H619 C611 0.929 . S
H620 C628 0.929 . S
H621 C630 0.930 . S
H622 C632 0.930 . S
H623 C635 0.929 . S
H624 C638 0.930 . S
H625 C640 0.960 . S
H626 C640 0.960 . S
H627 C640 0.960 . S
C628 H620 0.929 . S
C628 C629 1.377 1_455 S
C628 C630 1.384 . S
C629 C628 1.377 1_655 S
C629 C635 1.390 . S
C630 H621 0.930 . S
C630 C628 1.384 . S
C630 C631 1.372 . S
C631 C630 1.372 . S
C631 C632 1.400 . S
C631 C636 1.490 . S
C632 H622 0.930 . S
C632 C631 1.400 . S
C632 C635 1.386 1_455 S
H633 C649 0.930 . S
H634 C650 0.931 . S
C635 H623 0.929 . S
C635 C629 1.390 . S
C635 C632 1.386 1_655 S
C636 C631 1.490 . S
C636 C638 1.395 . S
C636 C639 1.403 . S
H637 C643 0.930 . S
C638 H624 0.930 . S
C638 C636 1.395 . S
C638 C641 1.403 . S
C639 C636 1.403 . S
C639 C640 1.524 . S
C639 C643 1.400 . S
C640 H625 0.960 . S
C640 H626 0.960 . S
C640 H627 0.960 . S
C640 C639 1.524 . S
C641 C638 1.403 . S
C641 C642 1.392 . S
C641 C645 1.495 . S
C642 C641 1.392 . S
C642 C643 1.385 . S
C642 C644 1.478 . S
C643 H637 0.930 . S
C643 C639 1.400 . S
C643 C642 1.385 . S
C644 C642 1.478 . S
C644 C646 1.381 . S
C644 C650 1.383 . S
C645 C641 1.495 . S
C645 H651 0.959 . S
C645 H652 0.961 . S
C645 H653 0.960 . S
C646 C644 1.381 . S
C646 C647 1.394 . S
C646 H654 0.930 . S
C647 C646 1.394 . S
C647 C648 1.383 . S
C647 H655 0.929 . S
C648 C647 1.383 . S
C648 C649 1.377 . S
C649 H633 0.930 . S
C649 C648 1.377 . S
C649 C650 1.379 . S
C650 H634 0.931 . S
C650 C644 1.383 . S
C650 C649 1.379 . S
H651 C645 0.959 . S
H652 C645 0.961 . S
H653 C645 0.960 . S
H654 C646 0.930 . S
H655 C647 0.929 . S
H656 C664 0.929 . S
H657 C666 0.930 . S
H658 C668 0.930 . S
H659 C671 0.929 . S
H660 C674 0.930 . S
H661 C676 0.960 . S
H662 C676 0.960 . S
H663 C676 0.960 . S
C664 H656 0.929 . S
C664 C665 1.377 . S
C664 C666 1.384 . S
C665 C664 1.377 . S
C665 C671 1.390 . S
C666 H657 0.930 . S
C666 C664 1.384 . S
C666 C667 1.372 . S
C667 C666 1.372 . S
C667 C668 1.400 . S
C667 C672 1.490 . S
C668 H658 0.930 . S
C668 C667 1.400 . S
C668 C671 1.386 . S
H669 C685 0.930 . S
H670 C686 0.931 . S
C671 H659 0.929 . S
C671 C665 1.390 . S
C671 C668 1.386 . S
C672 C667 1.490 . S
C672 C674 1.395 . S
C672 C675 1.403 . S
H673 C679 0.930 . S
C674 H660 0.930 . S
C674 C672 1.395 . S
C674 C677 1.403 . S
C675 C672 1.403 . S
C675 C676 1.524 . S
C675 C679 1.400 . S
C676 H661 0.960 . S
C676 H662 0.960 . S
C676 H663 0.960 . S
C676 C675 1.524 . S
C677 C674 1.403 . S
C677 C678 1.392 . S
C677 C681 1.495 . S
C678 C677 1.392 . S
C678 C679 1.385 . S
C678 C680 1.478 . S
C679 H673 0.930 . S
C679 C675 1.400 . S
C679 C678 1.385 . S
C680 C678 1.478 . S
C680 C682 1.381 . S
C680 C686 1.383 . S
C681 C677 1.495 . S
C681 H687 0.959 . S
C681 H688 0.961 . S
C681 H689 0.960 . S
C682 C680 1.381 . S
C682 C683 1.394 . S
C682 H690 0.930 . S
C683 C682 1.394 . S
C683 C684 1.383 . S
C683 H691 0.929 . S
C684 C683 1.383 . S
C684 C685 1.377 . S
C685 H669 0.930 . S
C685 C684 1.377 . S
C685 C686 1.379 . S
C686 H670 0.931 . S
C686 C680 1.383 . S
C686 C685 1.379 . S
H687 C681 0.959 . S
H688 C681 0.961 . S
H689 C681 0.960 . S
H690 C682 0.930 . S
H691 C683 0.929 . S
H692 C700 0.929 . S
H693 C702 0.930 . S
H694 C704 0.930 . S
H695 C707 0.929 . S
H696 C710 0.930 . S
H697 C712 0.960 . S
H698 C712 0.960 . S
H699 C712 0.960 . S
C700 H692 0.929 . S
C700 C701 1.377 . S
C700 C702 1.384 . S
C701 C700 1.377 . S
C701 C707 1.390 . S
C702 H693 0.930 . S
C702 C700 1.384 . S
C702 C703 1.372 . S
C703 C702 1.372 . S
C703 C704 1.400 . S
C703 C708 1.490 . S
C704 H694 0.930 . S
C704 C703 1.400 . S
C704 C707 1.386 . S
H705 C721 0.930 . S
H706 C722 0.931 . S
C707 H695 0.929 . S
C707 C701 1.390 . S
C707 C704 1.386 . S
C708 C703 1.490 . S
C708 C710 1.395 . S
C708 C711 1.403 . S
H709 C715 0.930 . S
C710 H696 0.930 . S
C710 C708 1.395 . S
C710 C713 1.403 . S
C711 C708 1.403 . S
C711 C712 1.524 . S
C711 C715 1.400 . S
C712 H697 0.960 . S
C712 H698 0.960 . S
C712 H699 0.960 . S
C712 C711 1.524 . S
C713 C710 1.403 . S
C713 C714 1.392 . S
C713 C717 1.495 . S
C714 C713 1.392 . S
C714 C715 1.385 . S
C714 C716 1.478 . S
C715 H709 0.930 . S
C715 C711 1.400 . S
C715 C714 1.385 . S
C716 C714 1.478 . S
C716 C718 1.381 . S
C716 C722 1.383 . S
C717 C713 1.495 . S
C717 H723 0.959 . S
C717 H724 0.961 . S
C717 H725 0.960 . S
C718 C716 1.381 . S
C718 C719 1.394 . S
C718 H726 0.930 . S
C719 C718 1.394 . S
C719 C720 1.383 . S
C719 H727 0.929 . S
C720 C719 1.383 . S
C720 C721 1.377 . S
C721 H705 0.930 . S
C721 C720 1.377 . S
C721 C722 1.379 . S
C722 H706 0.931 . S
C722 C716 1.383 . S
C722 C721 1.379 . S
H723 C717 0.959 . S
H724 C717 0.961 . S
H725 C717 0.960 . S
H726 C718 0.930 . S
H727 C719 0.929 . S
H728 C736 0.929 . S
H729 C738 0.930 . S
H730 C740 0.930 . S
H731 C743 0.929 . S
H732 C746 0.930 . S
H733 C748 0.960 . S
H734 C748 0.960 . S
H735 C748 0.960 . S
C736 H728 0.929 . S
C736 C737 1.377 . S
C736 C738 1.384 . S
C737 C736 1.377 . S
C737 C743 1.390 . S
C738 H729 0.930 . S
C738 C736 1.384 . S
C738 C739 1.372 . S
C739 C738 1.372 . S
C739 C740 1.400 . S
C739 C744 1.490 . S
C740 H730 0.930 . S
C740 C739 1.400 . S
C740 C743 1.386 . S
H741 C757 0.930 . S
H742 C758 0.931 . S
C743 H731 0.929 . S
C743 C737 1.390 . S
C743 C740 1.386 . S
C744 C739 1.490 . S
C744 C746 1.395 . S
C744 C747 1.403 . S
H745 C751 0.930 . S
C746 H732 0.930 . S
C746 C744 1.395 . S
C746 C749 1.403 . S
C747 C744 1.403 . S
C747 C748 1.524 . S
C747 C751 1.400 . S
C748 H733 0.960 . S
C748 H734 0.960 . S
C748 H735 0.960 . S
C748 C747 1.524 . S
C749 C746 1.403 . S
C749 C750 1.392 . S
C749 C753 1.495 . S
C750 C749 1.392 . S
C750 C751 1.385 . S
C750 C752 1.478 . S
C751 H745 0.930 . S
C751 C747 1.400 . S
C751 C750 1.385 . S
C752 C750 1.478 . S
C752 C754 1.381 . S
C752 C758 1.383 . S
C753 C749 1.495 . S
C753 H759 0.959 . S
C753 H760 0.961 . S
C753 H761 0.960 . S
C754 C752 1.381 . S
C754 C755 1.394 . S
C754 H762 0.930 . S
C755 C754 1.394 . S
C755 C756 1.383 . S
C755 H763 0.929 . S
C756 C755 1.383 . S
C756 C757 1.377 . S
C757 H741 0.930 . S
C757 C756 1.377 . S
C757 C758 1.379 . S
C758 H742 0.931 . S
C758 C752 1.383 . S
C758 C757 1.379 . S
H759 C753 0.959 . S
H760 C753 0.961 . S
H761 C753 0.960 . S
H762 C754 0.930 . S
H763 C755 0.929 . S
H764 C772 0.929 . S
H765 C774 0.930 . S
H766 C776 0.930 . S
H767 C779 0.929 . S
H768 C782 0.930 . S
H769 C784 0.960 . S
H770 C784 0.960 . S
H771 C784 0.960 . S
C772 H764 0.929 . S
C772 C773 1.377 . S
C772 C774 1.384 . S
C773 C772 1.377 . S
C773 C779 1.390 . S
C774 H765 0.930 . S
C774 C772 1.384 . S
C774 C775 1.372 . S
C775 C774 1.372 . S
C775 C776 1.400 . S
C775 C780 1.490 . S
C776 H766 0.930 . S
C776 C775 1.400 . S
C776 C779 1.386 . S
H777 C793 0.930 . S
H778 C794 0.931 . S
C779 H767 0.929 . S
C779 C773 1.390 . S
C779 C776 1.386 . S
C780 C775 1.490 . S
C780 C782 1.395 . S
C780 C783 1.403 . S
H781 C787 0.930 . S
C782 H768 0.930 . S
C782 C780 1.395 . S
C782 C785 1.403 . S
C783 C780 1.403 . S
C783 C784 1.524 . S
C783 C787 1.400 . S
C784 H769 0.960 . S
C784 H770 0.960 . S
C784 H771 0.960 . S
C784 C783 1.524 . S
C785 C782 1.403 . S
C785 C786 1.392 . S
C785 C789 1.495 . S
C786 C785 1.392 . S
C786 C787 1.385 . S
C786 C788 1.478 . S
C787 H781 0.930 . S
C787 C783 1.400 . S
C787 C786 1.385 . S
C788 C786 1.478 . S
C788 C790 1.381 . S
C788 C794 1.383 . S
C789 C785 1.495 . S
C789 H795 0.959 . S
C789 H796 0.961 . S
C789 H797 0.960 . S
C790 C788 1.381 . S
C790 C791 1.394 . S
C790 H798 0.930 . S
C791 C790 1.394 . S
C791 C792 1.383 . S
C791 H799 0.929 . S
C792 C791 1.383 . S
C792 C793 1.377 . S
C793 H777 0.930 . S
C793 C792 1.377 . S
C793 C794 1.379 . S
C794 H778 0.931 . S
C794 C788 1.383 . S
C794 C793 1.379 . S
H795 C789 0.959 . S
H796 C789 0.961 . S
H797 C789 0.960 . S
H798 C790 0.930 . S
H799 C791 0.929 . S
H800 C808 0.929 . S
H801 C810 0.930 . S
H802 C812 0.930 . S
H803 C815 0.929 . S
H804 C818 0.930 . S
H805 C820 0.960 . S
H806 C820 0.960 . S
H807 C820 0.960 . S
C808 H800 0.929 . S
C808 C809 1.377 . S
C808 C810 1.384 . S
C809 C808 1.377 . S
C809 C815 1.390 . S
C810 H801 0.930 . S
C810 C808 1.384 . S
C810 C811 1.372 . S
C811 C810 1.372 . S
C811 C812 1.400 . S
C811 C816 1.490 . S
C812 H802 0.930 . S
C812 C811 1.400 . S
C812 C815 1.386 . S
H813 C829 0.930 . S
H814 C830 0.931 . S
C815 H803 0.929 . S
C815 C809 1.390 . S
C815 C812 1.386 . S
C816 C811 1.490 . S
C816 C818 1.395 . S
C816 C819 1.403 . S
H817 C823 0.930 . S
C818 H804 0.930 . S
C818 C816 1.395 . S
C818 C821 1.403 . S
C819 C816 1.403 . S
C819 C820 1.524 . S
C819 C823 1.400 . S
C820 H805 0.960 . S
C820 H806 0.960 . S
C820 H807 0.960 . S
C820 C819 1.524 . S
C821 C818 1.403 . S
C821 C822 1.392 . S
C821 C825 1.495 . S
C822 C821 1.392 . S
C822 C823 1.385 . S
C822 C824 1.478 . S
C823 H817 0.930 . S
C823 C819 1.400 . S
C823 C822 1.385 . S
C824 C822 1.478 . S
C824 C826 1.381 . S
C824 C830 1.383 . S
C825 C821 1.495 . S
C825 H831 0.959 . S
C825 H832 0.961 . S
C825 H833 0.960 . S
C826 C824 1.381 . S
C826 C827 1.394 . S
C826 H834 0.930 . S
C827 C826 1.394 . S
C827 C828 1.383 . S
C827 H835 0.929 . S
C828 C827 1.383 . S
C828 C829 1.377 . S
C829 H813 0.930 . S
C829 C828 1.377 . S
C829 C830 1.379 . S
C830 H814 0.931 . S
C830 C824 1.383 . S
C830 C829 1.379 . S
H831 C825 0.959 . S
H832 C825 0.961 . S
H833 C825 0.960 . S
H834 C826 0.930 . S
H835 C827 0.929 . S
H836 C844 0.929 . S
H837 C846 0.930 . S
H838 C848 0.930 . S
H839 C851 0.929 . S
H840 C854 0.930 . S
H841 C856 0.960 . S
H842 C856 0.960 . S
H843 C856 0.960 . S
C844 H836 0.929 . S
C844 C845 1.377 . S
C844 C846 1.384 . S
C845 C844 1.377 . S
C845 C851 1.390 . S
C846 H837 0.930 . S
C846 C844 1.384 . S
C846 C847 1.372 . S
C847 C846 1.372 . S
C847 C848 1.400 . S
C847 C852 1.490 . S
C848 H838 0.930 . S
C848 C847 1.400 . S
C848 C851 1.386 . S
H849 C865 0.930 . S
H850 C866 0.931 . S
C851 H839 0.929 . S
C851 C845 1.390 . S
C851 C848 1.386 . S
C852 C847 1.490 . S
C852 C854 1.395 . S
C852 C855 1.403 . S
H853 C859 0.930 . S
C854 H840 0.930 . S
C854 C852 1.395 . S
C854 C857 1.403 . S
C855 C852 1.403 . S
C855 C856 1.524 . S
C855 C859 1.400 . S
C856 H841 0.960 . S
C856 H842 0.960 . S
C856 H843 0.960 . S
C856 C855 1.524 . S
C857 C854 1.403 . S
C857 C858 1.392 . S
C857 C861 1.495 . S
C858 C857 1.392 . S
C858 C859 1.385 . S
C858 C860 1.478 . S
C859 H853 0.930 . S
C859 C855 1.400 . S
C859 C858 1.385 . S
C860 C858 1.478 . S
C860 C862 1.381 . S
C860 C866 1.383 . S
C861 C857 1.495 . S
C861 H867 0.959 . S
C861 H868 0.961 . S
C861 H869 0.960 . S
C862 C860 1.381 . S
C862 C863 1.394 . S
C862 H870 0.930 . S
C863 C862 1.394 . S
C863 C864 1.383 . S
C863 H871 0.929 . S
C864 C863 1.383 . S
C864 C865 1.377 . S
C865 H849 0.930 . S
C865 C864 1.377 . S
C865 C866 1.379 . S
C866 H850 0.931 . S
C866 C860 1.383 . S
C866 C865 1.379 . S
H867 C861 0.959 . S
H868 C861 0.961 . S
H869 C861 0.960 . S
H870 C862 0.930 . S
H871 C863 0.929 . S
H872 C880 0.929 . S
H873 C882 0.930 . S
H874 C884 0.930 . S
H875 C887 0.929 . S
H876 C890 0.930 . S
H877 C892 0.960 . S
H878 C892 0.960 . S
H879 C892 0.960 . S
C880 H872 0.929 . S
C880 C881 1.377 . S
C880 C882 1.384 . S
C881 C880 1.377 . S
C881 C887 1.390 . S
C882 H873 0.930 . S
C882 C880 1.384 . S
C882 C883 1.372 . S
C883 C882 1.372 . S
C883 C884 1.400 . S
C883 C888 1.490 . S
C884 H874 0.930 . S
C884 C883 1.400 . S
C884 C887 1.386 . S
H885 C901 0.930 . S
H886 C902 0.931 . S
C887 H875 0.929 . S
C887 C881 1.390 . S
C887 C884 1.386 . S
C888 C883 1.490 . S
C888 C890 1.395 . S
C888 C891 1.403 . S
H889 C895 0.930 . S
C890 H876 0.930 . S
C890 C888 1.395 . S
C890 C893 1.403 . S
C891 C888 1.403 . S
C891 C892 1.524 . S
C891 C895 1.400 . S
C892 H877 0.960 . S
C892 H878 0.960 . S
C892 H879 0.960 . S
C892 C891 1.524 . S
C893 C890 1.403 . S
C893 C894 1.392 . S
C893 C897 1.495 . S
C894 C893 1.392 . S
C894 C895 1.385 . S
C894 C896 1.478 . S
C895 H889 0.930 . S
C895 C891 1.400 . S
C895 C894 1.385 . S
C896 C894 1.478 . S
C896 C898 1.381 . S
C896 C902 1.383 . S
C897 C893 1.495 . S
C897 H903 0.959 . S
C897 H904 0.961 . S
C897 H905 0.960 . S
C898 C896 1.381 . S
C898 C899 1.394 . S
C898 H906 0.930 . S
C899 C898 1.394 . S
C899 C900 1.383 . S
C899 H907 0.929 . S
C900 C899 1.383 . S
C900 C901 1.377 . S
C901 H885 0.930 . S
C901 C900 1.377 . S
C901 C902 1.379 . S
C902 H886 0.931 . S
C902 C896 1.383 . S
C902 C901 1.379 . S
H903 C897 0.959 . S
H904 C897 0.961 . S
H905 C897 0.960 . S
H906 C898 0.930 . S
H907 C899 0.929 . S
H908 C916 0.929 . S
H909 C918 0.930 . S
H910 C920 0.930 . S
H911 C923 0.929 . S
H912 C926 0.930 . S
H913 C928 0.960 . S
H914 C928 0.960 . S
H915 C928 0.960 . S
C916 H908 0.929 . S
C916 C917 1.377 . S
C916 C918 1.384 . S
C917 C916 1.377 . S
C917 C923 1.390 . S
C918 H909 0.930 . S
C918 C916 1.384 . S
C918 C919 1.372 . S
C919 C918 1.372 . S
C919 C920 1.400 . S
C919 C924 1.490 . S
C920 H910 0.930 . S
C920 C919 1.400 . S
C920 C923 1.386 . S
H921 C937 0.930 . S
H922 C938 0.931 . S
C923 H911 0.929 . S
C923 C917 1.390 . S
C923 C920 1.386 . S
C924 C919 1.490 . S
C924 C926 1.395 . S
C924 C927 1.403 . S
H925 C931 0.930 . S
C926 H912 0.930 . S
C926 C924 1.395 . S
C926 C929 1.403 . S
C927 C924 1.403 . S
C927 C928 1.524 . S
C927 C931 1.400 . S
C928 H913 0.960 . S
C928 H914 0.960 . S
C928 H915 0.960 . S
C928 C927 1.524 . S
C929 C926 1.403 . S
C929 C930 1.392 . S
C929 C933 1.495 . S
C930 C929 1.392 . S
C930 C931 1.385 . S
C930 C932 1.478 . S
C931 H925 0.930 . S
C931 C927 1.400 . S
C931 C930 1.385 . S
C932 C930 1.478 . S
C932 C934 1.381 . S
C932 C938 1.383 . S
C933 C929 1.495 . S
C933 H939 0.959 . S
C933 H940 0.961 . S
C933 H941 0.960 . S
C934 C932 1.381 . S
C934 C935 1.394 . S
C934 H942 0.930 . S
C935 C934 1.394 . S
C935 C936 1.383 . S
C935 H943 0.929 . S
C936 C935 1.383 . S
C936 C937 1.377 . S
C937 H921 0.930 . S
C937 C936 1.377 . S
C937 C938 1.379 . S
C938 H922 0.931 . S
C938 C932 1.383 . S
C938 C937 1.379 . S
H939 C933 0.959 . S
H940 C933 0.961 . S
H941 C933 0.960 . S
H942 C934 0.930 . S
H943 C935 0.929 . S
H944 C952 0.929 . S
H945 C954 0.930 . S
H946 C956 0.930 . S
H947 C959 0.929 . S
H948 C962 0.930 . S
H949 C964 0.960 . S
H950 C964 0.960 . S
H951 C964 0.960 . S
C952 H944 0.929 . S
C952 C953 1.377 . S
C952 C954 1.384 . S
C953 C952 1.377 . S
C953 C959 1.390 . S
C954 H945 0.930 . S
C954 C952 1.384 . S
C954 C955 1.372 . S
C955 C954 1.372 . S
C955 C956 1.400 . S
C955 C960 1.490 . S
C956 H946 0.930 . S
C956 C955 1.400 . S
C956 C959 1.386 . S
H957 C973 0.930 . S
H958 C974 0.931 . S
C959 H947 0.929 . S
C959 C953 1.390 . S
C959 C956 1.386 . S
C960 C955 1.490 . S
C960 C962 1.395 . S
C960 C963 1.403 . S
H961 C967 0.930 . S
C962 H948 0.930 . S
C962 C960 1.395 . S
C962 C965 1.403 . S
C963 C960 1.403 . S
C963 C964 1.524 . S
C963 C967 1.400 . S
C964 H949 0.960 . S
C964 H950 0.960 . S
C964 H951 0.960 . S
C964 C963 1.524 . S
C965 C962 1.403 . S
C965 C966 1.392 . S
C965 C969 1.495 . S
C966 C965 1.392 . S
C966 C967 1.385 . S
C966 C968 1.478 . S
C967 H961 0.930 . S
C967 C963 1.400 . S
C967 C966 1.385 . S
C968 C966 1.478 . S
C968 C970 1.381 . S
C968 C974 1.383 . S
C969 C965 1.495 . S
C969 H975 0.959 . S
C969 H976 0.961 . S
C969 H977 0.960 . S
C970 C968 1.381 . S
C970 C971 1.394 . S
C970 H978 0.930 . S
C971 C970 1.394 . S
C971 C972 1.383 . S
C971 H979 0.929 . S
C972 C971 1.383 . S
C972 C973 1.377 . S
C973 H957 0.930 . S
C973 C972 1.377 . S
C973 C974 1.379 . S
C974 H958 0.931 . S
C974 C968 1.383 . S
C974 C973 1.379 . S
H975 C969 0.959 . S
H976 C969 0.961 . S
H977 C969 0.960 . S
H978 C970 0.930 . S
H979 C971 0.929 . S
H980 C988 0.929 . S
H981 C990 0.930 . S
H982 C992 0.930 . S
H983 C995 0.929 . S
H984 C998 0.930 . S
H985 C1000 0.960 . S
H986 C1000 0.960 . S
H987 C1000 0.960 . S
C988 H980 0.929 . S
C988 C989 1.377 . S
C988 C990 1.384 . S
C989 C988 1.377 . S
C989 C995 1.390 . S
C990 H981 0.930 . S
C990 C988 1.384 . S
C990 C991 1.372 . S
C991 C990 1.372 . S
C991 C992 1.400 . S
C991 C996 1.490 . S
C992 H982 0.930 . S
C992 C991 1.400 . S
C992 C995 1.386 . S
H993 C1009 0.930 . S
H994 C1010 0.931 . S
C995 H983 0.929 . S
C995 C989 1.390 . S
C995 C992 1.386 . S
C996 C991 1.490 . S
C996 C998 1.395 . S
C996 C999 1.403 . S
H997 C1003 0.930 . S
C998 H984 0.930 . S
C998 C996 1.395 . S
C998 C1001 1.403 . S
C999 C996 1.403 . S
C999 C1000 1.524 . S
C999 C1003 1.400 . S
C1000 H985 0.960 . S
C1000 H986 0.960 . S
C1000 H987 0.960 . S
C1000 C999 1.524 . S
C1001 C998 1.403 . S
C1001 C1002 1.392 . S
C1001 C1005 1.495 . S
C1002 C1001 1.392 . S
C1002 C1003 1.385 . S
C1002 C1004 1.478 . S
C1003 H997 0.930 . S
C1003 C999 1.400 . S
C1003 C1002 1.385 . S
C1004 C1002 1.478 . S
C1004 C1006 1.381 . S
C1004 C1010 1.383 . S
C1005 C1001 1.495 . S
C1005 H1011 0.959 . S
C1005 H1012 0.961 . S
C1005 H1013 0.960 . S
C1006 C1004 1.381 . S
C1006 C1007 1.394 . S
C1006 H1014 0.930 . S
C1007 C1006 1.394 . S
C1007 C1008 1.383 . S
C1007 H1015 0.929 . S
C1008 C1007 1.383 . S
C1008 C1009 1.377 . S
C1009 H993 0.930 . S
C1009 C1008 1.377 . S
C1009 C1010 1.379 . S
C1010 H994 0.931 . S
C1010 C1004 1.383 . S
C1010 C1009 1.379 . S
H1011 C1005 0.959 . S
H1012 C1005 0.961 . S
H1013 C1005 0.960 . S
H1014 C1006 0.930 . S
H1015 C1007 0.929 . S
H1016 C1024 0.929 . S
H1017 C1026 0.930 . S
H1018 C1028 0.930 . S
H1019 C1031 0.929 . S
H1020 C1034 0.930 . S
H1021 C1036 0.960 . S
H1022 C1036 0.960 . S
H1023 C1036 0.960 . S
C1024 H1016 0.929 . S
C1024 C1025 1.377 . S
C1024 C1026 1.384 . S
C1025 C1024 1.377 . S
C1025 C1031 1.390 . S
C1026 H1017 0.930 . S
C1026 C1024 1.384 . S
C1026 C1027 1.372 . S
C1027 C1026 1.372 . S
C1027 C1028 1.400 . S
C1027 C1032 1.490 . S
C1028 H1018 0.930 . S
C1028 C1027 1.400 . S
C1028 C1031 1.386 . S
H1029 C1045 0.930 . S
H1030 C1046 0.931 . S
C1031 H1019 0.929 . S
C1031 C1025 1.390 . S
C1031 C1028 1.386 . S
C1032 C1027 1.490 . S
C1032 C1034 1.395 . S
C1032 C1035 1.403 . S
H1033 C1039 0.930 . S
C1034 H1020 0.930 . S
C1034 C1032 1.395 . S
C1034 C1037 1.403 . S
C1035 C1032 1.403 . S
C1035 C1036 1.524 . S
C1035 C1039 1.400 . S
C1036 H1021 0.960 . S
C1036 H1022 0.960 . S
C1036 H1023 0.960 . S
C1036 C1035 1.524 . S
C1037 C1034 1.403 . S
C1037 C1038 1.392 . S
C1037 C1041 1.495 . S
C1038 C1037 1.392 . S
C1038 C1039 1.385 . S
C1038 C1040 1.478 . S
C1039 H1033 0.930 . S
C1039 C1035 1.400 . S
C1039 C1038 1.385 . S
C1040 C1038 1.478 . S
C1040 C1042 1.381 . S
C1040 C1046 1.383 . S
C1041 C1037 1.495 . S
C1041 H1047 0.959 . S
C1041 H1048 0.961 . S
C1041 H1049 0.960 . S
C1042 C1040 1.381 . S
C1042 C1043 1.394 . S
C1042 H1050 0.930 . S
C1043 C1042 1.394 . S
C1043 C1044 1.383 . S
C1043 H1051 0.929 . S
C1044 C1043 1.383 . S
C1044 C1045 1.377 . S
C1045 H1029 0.930 . S
C1045 C1044 1.377 . S
C1045 C1046 1.379 . S
C1046 H1030 0.931 . S
C1046 C1040 1.383 . S
C1046 C1045 1.379 . S
H1047 C1041 0.959 . S
H1048 C1041 0.961 . S
H1049 C1041 0.960 . S
H1050 C1042 0.930 . S
H1051 C1043 0.929 . S
H1052 C1060 0.929 . S
H1053 C1062 0.930 . S
H1054 C1064 0.930 . S
H1055 C1067 0.929 . S
H1056 C1070 0.930 . S
H1057 C1072 0.960 . S
H1058 C1072 0.960 . S
H1059 C1072 0.960 . S
C1060 H1052 0.929 . S
C1060 C1061 1.377 . S
C1060 C1062 1.384 . S
C1061 C1060 1.377 . S
C1061 C1067 1.390 . S
C1062 H1053 0.930 . S
C1062 C1060 1.384 . S
C1062 C1063 1.372 . S
C1063 C1062 1.372 . S
C1063 C1064 1.400 . S
C1063 C1068 1.490 . S
C1064 H1054 0.930 . S
C1064 C1063 1.400 . S
C1064 C1067 1.386 . S
H1065 C1081 0.930 . S
H1066 C1082 0.931 . S
C1067 H1055 0.929 . S
C1067 C1061 1.390 . S
C1067 C1064 1.386 . S
C1068 C1063 1.490 . S
C1068 C1070 1.395 . S
C1068 C1071 1.403 . S
H1069 C1075 0.930 . S
C1070 H1056 0.930 . S
C1070 C1068 1.395 . S
C1070 C1073 1.403 . S
C1071 C1068 1.403 . S
C1071 C1072 1.524 . S
C1071 C1075 1.400 . S
C1072 H1057 0.960 . S
C1072 H1058 0.960 . S
C1072 H1059 0.960 . S
C1072 C1071 1.524 . S
C1073 C1070 1.403 . S
C1073 C1074 1.392 . S
C1073 C1077 1.495 . S
C1074 C1073 1.392 . S
C1074 C1075 1.385 . S
C1074 C1076 1.478 . S
C1075 H1069 0.930 . S
C1075 C1071 1.400 . S
C1075 C1074 1.385 . S
C1076 C1074 1.478 . S
C1076 C1078 1.381 . S
C1076 C1082 1.383 . S
C1077 C1073 1.495 . S
C1077 H1083 0.959 . S
C1077 H1084 0.961 . S
C1077 H1085 0.960 . S
C1078 C1076 1.381 . S
C1078 C1079 1.394 . S
C1078 H1086 0.930 . S
C1079 C1078 1.394 . S
C1079 C1080 1.383 . S
C1079 H1087 0.929 . S
C1080 C1079 1.383 . S
C1080 C1081 1.377 . S
C1081 H1065 0.930 . S
C1081 C1080 1.377 . S
C1081 C1082 1.379 . S
C1082 H1066 0.931 . S
C1082 C1076 1.383 . S
C1082 C1081 1.379 . S
H1083 C1077 0.959 . S
H1084 C1077 0.961 . S
H1085 C1077 0.960 . S
H1086 C1078 0.930 . S
H1087 C1079 0.929 . S
H1088 C1096 0.929 . S
H1089 C1098 0.930 1_455 S
H1090 C1100 0.930 . S
H1091 C1103 0.929 . S
H1092 C1106 0.930 . S
H1093 C1108 0.960 1_545 S
H1094 C1108 0.960 . S
H1095 C1108 0.960 . S
C1096 H1088 0.929 . S
C1096 C1097 1.377 . S
C1096 C1098 1.384 . S
C1097 C1096 1.377 . S
C1097 C1103 1.390 . S
C1098 H1089 0.930 1_655 S
C1098 C1096 1.384 . S
C1098 C1099 1.372 . S
C1099 C1098 1.372 . S
C1099 C1100 1.400 . S
C1099 C1104 1.490 . S
C1100 H1090 0.930 . S
C1100 C1099 1.400 . S
C1100 C1103 1.386 . S
H1101 C1117 0.930 . S
H1102 C1118 0.931 1_655 S
C1103 H1091 0.929 . S
C1103 C1097 1.390 . S
C1103 C1100 1.386 . S
C1104 C1099 1.490 . S
C1104 C1106 1.395 1_655 S
C1104 C1107 1.403 . S
H1105 C1111 0.930 . S
C1106 H1092 0.930 . S
C1106 C1104 1.395 1_455 S
C1106 C1109 1.403 1_565 S
C1107 C1104 1.403 . S
C1107 C1108 1.524 . S
C1107 C1111 1.400 1_565 S
C1108 H1093 0.960 1_565 S
C1108 H1094 0.960 . S
C1108 H1095 0.960 . S
C1108 C1107 1.524 . S
C1109 C1106 1.403 1_545 S
C1109 C1110 1.392 . S
C1109 C1113 1.495 . S
C1110 C1109 1.392 . S
C1110 C1111 1.385 1_455 S
C1110 C1112 1.478 . S
C1111 H1105 0.930 . S
C1111 C1107 1.400 1_545 S
C1111 C1110 1.385 1_655 S
C1112 C1110 1.478 . S
C1112 C1114 1.381 . S
C1112 C1118 1.383 . S
C1113 C1109 1.495 . S
C1113 H1119 0.959 1_545 S
C1113 H1120 0.961 . S
C1113 H1121 0.960 . S
C1114 C1112 1.381 . S
C1114 C1115 1.394 . S
C1114 H1122 0.930 . S
C1115 C1114 1.394 . S
C1115 C1116 1.383 . S
C1115 H1123 0.929 . S
C1116 C1115 1.383 . S
C1116 C1117 1.377 . S
C1117 H1101 0.930 . S
C1117 C1116 1.377 . S
C1117 C1118 1.379 . S
C1118 H1102 0.931 1_455 S
C1118 C1112 1.383 . S
C1118 C1117 1.379 . S
H1119 C1113 0.959 1_565 S
H1120 C1113 0.961 . S
H1121 C1113 0.960 . S
H1122 C1114 0.930 . S
H1123 C1115 0.929 . S
H1124 C1132 0.929 . S
H1125 C1134 0.930 . S
H1126 C1136 0.930 . S
H1127 C1139 0.929 . S
H1128 C1142 0.930 . S
H1129 C1144 0.960 1_455 S
H1130 C1144 0.960 . S
H1131 C1144 0.960 . S
C1132 H1124 0.929 . S
C1132 C1133 1.377 . S
C1132 C1134 1.384 . S
C1133 C1132 1.377 . S
C1133 C1139 1.390 . S
C1134 H1125 0.930 . S
C1134 C1132 1.384 . S
C1134 C1135 1.372 . S
C1135 C1134 1.372 . S
C1135 C1136 1.400 . S
C1135 C1140 1.490 . S
C1136 H1126 0.930 . S
C1136 C1135 1.400 . S
C1136 C1139 1.386 . S
H1137 C1153 0.930 . S
H1138 C1154 0.931 . S
C1139 H1127 0.929 . S
C1139 C1133 1.390 . S
C1139 C1136 1.386 . S
C1140 C1135 1.490 . S
C1140 C1142 1.395 1_545 S
C1140 C1143 1.403 . S
H1141 C1147 0.930 . S
C1142 H1128 0.930 . S
C1142 C1140 1.395 1_565 S
C1142 C1145 1.403 1_655 S
C1143 C1140 1.403 . S
C1143 C1144 1.524 . S
C1143 C1147 1.400 1_655 S
C1144 H1129 0.960 1_655 S
C1144 H1130 0.960 . S
C1144 H1131 0.960 . S
C1144 C1143 1.524 . S
C1145 C1142 1.403 1_455 S
C1145 C1146 1.392 . S
C1145 C1149 1.495 . S
C1146 C1145 1.392 . S
C1146 C1147 1.385 1_565 S
C1146 C1148 1.478 . S
C1147 H1141 0.930 . S
C1147 C1143 1.400 1_455 S
C1147 C1146 1.385 1_545 S
C1148 C1146 1.478 . S
C1148 C1150 1.381 . S
C1148 C1154 1.383 . S
C1149 C1145 1.495 . S
C1149 H1155 0.959 1_455 S
C1149 H1156 0.961 . S
C1149 H1157 0.960 . S
C1150 C1148 1.381 . S
C1150 C1151 1.394 . S
C1150 H1158 0.930 . S
C1151 C1150 1.394 . S
C1151 C1152 1.383 . S
C1151 H1159 0.929 . S
C1152 C1151 1.383 . S
C1152 C1153 1.377 . S
C1153 H1137 0.930 . S
C1153 C1152 1.377 . S
C1153 C1154 1.379 . S
C1154 H1138 0.931 . S
C1154 C1148 1.383 . S
C1154 C1153 1.379 . S
H1155 C1149 0.959 1_655 S
H1156 C1149 0.961 . S
H1157 C1149 0.960 . S
H1158 C1150 0.930 . S
H1159 C1151 0.929 . S
H1160 C1168 0.929 . S
H1161 C1170 0.930 1_655 S
H1162 C1172 0.930 . S
H1163 C1175 0.929 . S
H1164 C1178 0.930 . S
H1165 C1180 0.960 . S
H1166 C1180 0.960 . S
H1167 C1180 0.960 1_455 S
C1168 H1160 0.929 . S
C1168 C1169 1.377 . S
C1168 C1170 1.384 . S
C1169 C1168 1.377 . S
C1169 C1175 1.390 . S
C1170 H1161 0.930 1_455 S
C1170 C1168 1.384 . S
C1170 C1171 1.372 . S
C1171 C1170 1.372 . S
C1171 C1172 1.400 . S
C1171 C1176 1.490 . S
C1172 H1162 0.930 . S
C1172 C1171 1.400 . S
C1172 C1175 1.386 . S
H1173 C1189 0.930 . S
H1174 C1190 0.931 1_455 S
C1175 H1163 0.929 . S
C1175 C1169 1.390 . S
C1175 C1172 1.386 . S
C1176 C1171 1.490 . S
C1176 C1178 1.395 . S
C1176 C1179 1.403 1_455 S
H1177 C1183 0.930 . S
C1178 H1164 0.930 . S
C1178 C1176 1.395 . S
C1178 C1181 1.400 1_455 S
C1179 C1176 1.403 1_655 S
C1179 C1180 1.524 . S
C1179 C1183 1.400 . S
C1180 H1165 0.960 . S
C1180 H1166 0.960 . S
C1180 H1167 0.960 1_655 S
C1180 C1179 1.524 . S
C1181 C1178 1.400 1_655 S
C1181 C1182 1.396 . S
C1181 C1185 1.494 1_655 S
C1182 C1181 1.396 . S
C1182 C1183 1.385 . S
C1182 C1184 1.478 . S
C1183 H1177 0.930 . S
C1183 C1179 1.400 . S
C1183 C1182 1.385 . S
C1184 C1182 1.478 . S
C1184 C1186 1.381 . S
C1184 C1190 1.383 . S
C1185 C1181 1.494 1_455 S
C1185 H1191 0.972 . S
C1185 H1192 0.983 . S
C1185 H1193 0.927 1_455 S
C1186 C1184 1.381 . S
C1186 C1187 1.394 . S
C1186 H1194 0.930 . S
C1187 C1186 1.394 . S
C1187 C1188 1.383 . S
C1187 H1195 0.929 . S
C1188 C1187 1.383 . S
C1188 C1189 1.377 . S
C1189 H1173 0.930 . S
C1189 C1188 1.377 . S
C1189 C1190 1.379 . S
C1190 H1174 0.931 1_655 S
C1190 C1184 1.383 . S
C1190 C1189 1.379 . S
H1191 C1185 0.972 . S
H1192 C1185 0.983 . S
H1193 C1185 0.927 1_655 S
H1194 C1186 0.930 . S
H1195 C1187 0.929 . S
H1196 C1204 0.929 . S
H1197 C1206 0.930 1_545 S
H1198 C1208 0.930 . S
H1199 C1211 0.929 . S
H1200 C1214 0.930 . S
H1201 C1216 0.960 . S
H1202 C1216 0.960 . S
H1203 C1216 0.960 1_565 S
C1204 H1196 0.929 . S
C1204 C1205 1.377 . S
C1204 C1206 1.384 . S
C1205 C1204 1.377 . S
C1205 C1211 1.390 . S
C1206 H1197 0.930 1_565 S
C1206 C1204 1.384 . S
C1206 C1207 1.372 . S
C1207 C1206 1.372 . S
C1207 C1208 1.400 . S
C1207 C1212 1.490 . S
C1208 H1198 0.930 . S
C1208 C1207 1.400 . S
C1208 C1211 1.386 . S
H1209 C1225 0.930 . S
H1210 C1226 0.931 1_565 S
C1211 H1199 0.929 . S
C1211 C1205 1.390 . S
C1211 C1208 1.386 . S
C1212 C1207 1.490 . S
C1212 C1214 1.395 . S
C1212 C1215 1.403 1_565 S
H1213 C1219 0.930 . S
C1214 H1200 0.930 . S
C1214 C1212 1.395 . S
C1214 C1217 1.403 . S
C1215 C1212 1.403 1_545 S
C1215 C1216 1.524 . S
C1215 C1219 1.400 . S
C1216 H1201 0.960 . S
C1216 H1202 0.960 . S
C1216 H1203 0.960 1_545 S
C1216 C1215 1.524 . S
C1217 C1214 1.403 . S
C1217 C1218 1.392 1_565 S
C1217 C1221 1.495 . S
C1218 C1217 1.392 1_545 S
C1218 C1219 1.385 . S
C1218 C1220 1.478 . S
C1219 H1213 0.930 . S
C1219 C1215 1.400 . S
C1219 C1218 1.385 . S
C1220 C1218 1.478 . S
C1220 C1222 1.381 . S
C1220 C1226 1.383 . S
C1221 C1217 1.495 . S
C1221 H1227 0.959 . S
C1221 H1228 0.961 . S
C1221 H1229 0.960 1_565 S
C1222 C1220 1.381 . S
C1222 C1223 1.394 . S
C1222 H1230 0.930 . S
C1223 C1222 1.394 . S
C1223 C1224 1.383 . S
C1223 H1231 0.929 . S
C1224 C1223 1.383 . S
C1224 C1225 1.377 . S
C1225 H1209 0.930 . S
C1225 C1224 1.377 . S
C1225 C1226 1.379 . S
C1226 H1210 0.931 1_545 S
C1226 C1220 1.383 . S
C1226 C1225 1.379 . S
H1227 C1221 0.959 . S
H1228 C1221 0.961 . S
H1229 C1221 0.960 1_545 S
H1230 C1222 0.930 . S
H1231 C1223 0.929 . S
H1232 C1240 0.929 . S
H1233 C1242 0.930 . S
H1234 C1244 0.930 . S
H1235 C1247 0.929 . S
H1236 C1250 0.930 . S
H1237 C1252 0.960 . S
H1238 C1252 0.960 . S
H1239 C1252 0.960 . S
C1240 H1232 0.929 . S
C1240 C1241 1.377 . S
C1240 C1242 1.384 . S
C1241 C1240 1.377 . S
C1241 C1247 1.390 . S
C1242 H1233 0.930 . S
C1242 C1240 1.384 . S
C1242 C1243 1.372 . S
C1243 C1242 1.372 . S
C1243 C1244 1.400 . S
C1243 C1248 1.490 . S
C1244 H1234 0.930 . S
C1244 C1243 1.400 . S
C1244 C1247 1.386 . S
H1245 C1261 0.930 . S
H1246 C1262 0.931 . S
C1247 H1235 0.929 . S
C1247 C1241 1.390 . S
C1247 C1244 1.386 . S
C1248 C1243 1.490 . S
C1248 C1250 1.395 . S
C1248 C1251 1.403 . S
H1249 C1255 0.930 . S
C1250 H1236 0.930 . S
C1250 C1248 1.395 . S
C1250 C1253 1.403 . S
C1251 C1248 1.403 . S
C1251 C1252 1.524 . S
C1251 C1255 1.400 . S
C1252 H1237 0.960 . S
C1252 H1238 0.960 . S
C1252 H1239 0.960 . S
C1252 C1251 1.524 . S
C1253 C1250 1.403 . S
C1253 C1254 1.392 . S
C1253 C1257 1.495 . S
C1254 C1253 1.392 . S
C1254 C1255 1.385 . S
C1254 C1256 1.478 . S
C1255 H1249 0.930 . S
C1255 C1251 1.400 . S
C1255 C1254 1.385 . S
C1256 C1254 1.478 . S
C1256 C1258 1.381 . S
C1256 C1262 1.383 . S
C1257 C1253 1.495 . S
C1257 H1263 0.959 . S
C1257 H1264 0.961 . S
C1257 H1265 0.960 . S
C1258 C1256 1.381 . S
C1258 C1259 1.394 . S
C1258 H1266 0.930 . S
C1259 C1258 1.394 . S
C1259 C1260 1.383 . S
C1259 H1267 0.929 . S
C1260 C1259 1.383 . S
C1260 C1261 1.377 . S
C1261 H1245 0.930 . S
C1261 C1260 1.377 . S
C1261 C1262 1.379 . S
C1262 H1246 0.931 . S
C1262 C1256 1.383 . S
C1262 C1261 1.379 . S
H1263 C1257 0.959 . S
H1264 C1257 0.961 . S
H1265 C1257 0.960 . S
H1266 C1258 0.930 . S
H1267 C1259 0.929 . S
H1268 C1276 0.929 . S
H1269 C1278 0.930 . S
H1270 C1280 0.930 . S
H1271 C1283 0.929 . S
H1272 C1286 0.930 . S
H1273 C1288 0.960 . S
H1274 C1288 0.960 . S
H1275 C1288 0.960 . S
C1276 H1268 0.929 . S
C1276 C1277 1.377 . S
C1276 C1278 1.384 . S
C1277 C1276 1.377 . S
C1277 C1283 1.390 . S
C1278 H1269 0.930 . S
C1278 C1276 1.384 . S
C1278 C1279 1.372 . S
C1279 C1278 1.372 . S
C1279 C1280 1.400 . S
C1279 C1284 1.490 . S
C1280 H1270 0.930 . S
C1280 C1279 1.400 . S
C1280 C1283 1.386 . S
H1281 C1297 0.930 . S
H1282 C1298 0.931 . S
C1283 H1271 0.929 . S
C1283 C1277 1.390 . S
C1283 C1280 1.386 . S
C1284 C1279 1.490 . S
C1284 C1286 1.395 . S
C1284 C1287 1.403 . S
H1285 C1291 0.930 . S
C1286 H1272 0.930 . S
C1286 C1284 1.395 . S
C1286 C1289 1.403 . S
C1287 C1284 1.403 . S
C1287 C1288 1.524 . S
C1287 C1291 1.400 . S
C1288 H1273 0.960 . S
C1288 H1274 0.960 . S
C1288 H1275 0.960 . S
C1288 C1287 1.524 . S
C1289 C1286 1.403 . S
C1289 C1290 1.392 . S
C1289 C1293 1.495 . S
C1290 C1289 1.392 . S
C1290 C1291 1.385 . S
C1290 C1292 1.478 . S
C1291 H1285 0.930 . S
C1291 C1287 1.400 . S
C1291 C1290 1.385 . S
C1292 C1290 1.478 . S
C1292 C1294 1.381 . S
C1292 C1298 1.383 . S
C1293 C1289 1.495 . S
C1293 H1299 0.959 . S
C1293 H1300 0.961 . S
C1293 H1301 0.960 . S
C1294 C1292 1.381 . S
C1294 C1295 1.394 . S
C1294 H1302 0.930 . S
C1295 C1294 1.394 . S
C1295 C1296 1.383 . S
C1295 H1303 0.929 . S
C1296 C1295 1.383 . S
C1296 C1297 1.377 . S
C1297 H1281 0.930 . S
C1297 C1296 1.377 . S
C1297 C1298 1.379 . S
C1298 H1282 0.931 . S
C1298 C1292 1.383 . S
C1298 C1297 1.379 . S
H1299 C1293 0.959 . S
H1300 C1293 0.961 . S
H1301 C1293 0.960 . S
H1302 C1294 0.930 . S
H1303 C1295 0.929 . S
H1304 C1312 0.929 . S
H1305 C1314 0.930 . S
H1306 C1316 0.930 . S
H1307 C1319 0.929 . S
H1308 C1322 0.930 . S
H1309 C1324 0.960 . S
H1310 C1324 0.960 . S
H1311 C1324 0.960 . S
C1312 H1304 0.929 . S
C1312 C1313 1.377 . S
C1312 C1314 1.384 . S
C1313 C1312 1.377 . S
C1313 C1319 1.390 . S
C1314 H1305 0.930 . S
C1314 C1312 1.384 . S
C1314 C1315 1.372 . S
C1315 C1314 1.372 . S
C1315 C1316 1.400 . S
C1315 C1320 1.490 . S
C1316 H1306 0.930 . S
C1316 C1315 1.400 . S
C1316 C1319 1.386 . S
H1317 C1333 0.930 . S
H1318 C1334 0.931 . S
C1319 H1307 0.929 . S
C1319 C1313 1.390 . S
C1319 C1316 1.386 . S
C1320 C1315 1.490 . S
C1320 C1322 1.395 . S
C1320 C1323 1.403 . S
H1321 C1327 0.930 . S
C1322 H1308 0.930 . S
C1322 C1320 1.395 . S
C1322 C1325 1.403 1_545 S
C1323 C1320 1.403 . S
C1323 C1324 1.524 . S
C1323 C1327 1.400 1_545 S
C1324 H1309 0.960 . S
C1324 H1310 0.960 . S
C1324 H1311 0.960 . S
C1324 C1323 1.524 . S
C1325 C1322 1.403 1_565 S
C1325 C1326 1.392 . S
C1325 C1329 1.495 . S
C1326 C1325 1.392 . S
C1326 C1327 1.385 . S
C1326 C1328 1.478 . S
C1327 H1321 0.930 . S
C1327 C1323 1.400 1_565 S
C1327 C1326 1.385 . S
C1328 C1326 1.478 . S
C1328 C1330 1.381 . S
C1328 C1334 1.383 . S
C1329 C1325 1.495 . S
C1329 H1335 0.959 . S
C1329 H1336 0.961 . S
C1329 H1337 0.960 . S
C1330 C1328 1.381 . S
C1330 C1331 1.394 . S
C1330 H1338 0.930 . S
C1331 C1330 1.394 . S
C1331 C1332 1.383 . S
C1331 H1339 0.929 . S
C1332 C1331 1.383 . S
C1332 C1333 1.377 . S
C1333 H1317 0.930 . S
C1333 C1332 1.377 . S
C1333 C1334 1.379 . S
C1334 H1318 0.931 . S
C1334 C1328 1.383 . S
C1334 C1333 1.379 . S
H1335 C1329 0.959 . S
H1336 C1329 0.961 . S
H1337 C1329 0.960 . S
H1338 C1330 0.930 . S
H1339 C1331 0.929 . S
H1340 C1348 0.929 . S
H1341 C1350 0.930 . S
H1342 C1352 0.930 . S
H1343 C1355 0.929 . S
H1344 C1358 0.930 . S
H1345 C1360 0.960 . S
H1346 C1360 0.960 . S
H1347 C1360 0.960 . S
C1348 H1340 0.929 . S
C1348 C1349 1.377 . S
C1348 C1350 1.384 . S
C1349 C1348 1.377 . S
C1349 C1355 1.390 . S
C1350 H1341 0.930 . S
C1350 C1348 1.384 . S
C1350 C1351 1.372 . S
C1351 C1350 1.372 . S
C1351 C1352 1.400 . S
C1351 C1356 1.490 . S
C1352 H1342 0.930 . S
C1352 C1351 1.400 . S
C1352 C1355 1.386 . S
H1353 C1369 0.930 . S
H1354 C1370 0.931 . S
C1355 H1343 0.929 . S
C1355 C1349 1.390 . S
C1355 C1352 1.386 . S
C1356 C1351 1.490 . S
C1356 C1358 1.395 . S
C1356 C1359 1.403 . S
H1357 C1363 0.930 . S
C1358 H1344 0.930 . S
C1358 C1356 1.395 . S
C1358 C1361 1.403 1_655 S
C1359 C1356 1.403 . S
C1359 C1360 1.524 . S
C1359 C1363 1.400 1_655 S
C1360 H1345 0.960 . S
C1360 H1346 0.960 . S
C1360 H1347 0.960 . S
C1360 C1359 1.524 . S
C1361 C1358 1.403 1_455 S
C1361 C1362 1.392 . S
C1361 C1365 1.495 . S
C1362 C1361 1.392 . S
C1362 C1363 1.385 . S
C1362 C1364 1.478 . S
C1363 H1357 0.930 . S
C1363 C1359 1.400 1_455 S
C1363 C1362 1.385 . S
C1364 C1362 1.478 . S
C1364 C1366 1.381 . S
C1364 C1370 1.383 . S
C1365 C1361 1.495 . S
C1365 H1371 0.959 . S
C1365 H1372 0.961 . S
C1365 H1373 0.960 . S
C1366 C1364 1.381 . S
C1366 C1367 1.394 . S
C1366 H1374 0.930 . S
C1367 C1366 1.394 . S
C1367 C1368 1.383 . S
C1367 H1375 0.929 . S
C1368 C1367 1.383 . S
C1368 C1369 1.377 . S
C1369 H1353 0.930 . S
C1369 C1368 1.377 . S
C1369 C1370 1.379 . S
C1370 H1354 0.931 . S
C1370 C1364 1.383 . S
C1370 C1369 1.379 . S
H1371 C1365 0.959 . S
H1372 C1365 0.961 . S
H1373 C1365 0.960 . S
H1374 C1366 0.930 . S
H1375 C1367 0.929 . S
C233 C12 1.608 . S
C252 C155 1.613 . S
C269 C112 1.615 . S
C288 C14 1.594 . S
C305 C127 1.614 . S
C324 C28 1.598 . S
C341 C141 1.613 . S
C360 C54 1.615 . S
C377 C71 1.613 . S
C396 C69 1.597 . S
C413 C82 1.609 . S
C432 C85 1.608 . S
C449 C96 1.606 . S
C468 C99 1.603 . S
C485 C110 1.609 . S
C504 C56 1.602 . S
C521 C125 1.605 . S
C540 C43 1.608 . S
C557 C1 1.616 . S
C576 C138 1.595 . S
C593 C27 1.611 . S
C612 C152 1.590 . S
C629 C41 1.615 . S
C648 C166 1.600 . S
C665 C183 1.611 . S
C684 C181 1.597 . S
C701 C194 1.610 . S
C720 C208 1.600 . S
C737 C223 1.612 . S
C756 C197 1.605 . S
C773 C168 1.611 . S
C792 C210 1.615 . S
C809 C209 1.857 . S
C828 C0 1.837 . S
C845 C222 1.856 . S
C864 C26 1.839 . S
C881 C169 1.852 . S
C900 C40 1.855 . S
C917 C42 1.851 . S
C936 C182 1.852 . S
C953 C57 1.855 . S
C972 C140 1.840 . S
C989 C154 1.851 . S
C1008 C70 1.848 . S
C1025 C84 1.850 . S
C1044 C113 1.863 . S
C1061 C98 1.857 . S
C1080 C126 1.855 . S
C1097 C29 1.681 . S
C1116 C13 1.667 . S
C1133 C55 1.674 . S
C1152 C15 1.666 . S
C1169 C68 1.677 . S
C1188 C97 1.659 . S
C1205 C83 1.676 . S
C1224 C111 1.686 . S
C1241 C153 1.674 . S
C1260 C124 1.676 . S
C1277 C139 1.677 . S
C1296 C167 1.684 . S
C1313 C196 1.673 . S
C1332 C180 1.684 . S
C1349 C195 1.679 . S
C1368 C211 1.669 . S
