# Generated by pormake.
# Topology lta, (4)-cn, num edge types: 1
# Building blocks:
#     Node 0, Type 0, BuildingBlock: ICAMEG_clean_sbu_1, # of connection points: 4
#     Node 1, Type 0, BuildingBlock: ICAMEG_clean_sbu_1, # of connection points: 4
#     Node 2, Type 0, BuildingBlock: ICAMEG_clean_sbu_1, # of connection points: 4
#     Node 3, Type 0, BuildingBlock: ICAMEG_clean_sbu_1, # of connection points: 4
#     Node 4, Type 0, BuildingBlock: ICAMEG_clean_sbu_1, # of connection points: 4
#     Node 5, Type 0, BuildingBlock: ICAMEG_clean_sbu_1, # of connection points: 4
#     Node 6, Type 0, BuildingBlock: ICAMEG_clean_sbu_1, # of connection points: 4
#     Node 7, Type 0, BuildingBlock: ICAMEG_clean_sbu_1, # of connection points: 4
#     Node 8, Type 0, BuildingBlock: ICAMEG_clean_sbu_1, # of connection points: 4
#     Node 9, Type 0, BuildingBlock: ICAMEG_clean_sbu_1, # of connection points: 4
#     Node 10, Type 0, BuildingBlock: ICAMEG_clean_sbu_1, # of connection points: 4
#     Node 11, Type 0, BuildingBlock: ICAMEG_clean_sbu_1, # of connection points: 4
#     Node 12, Type 0, BuildingBlock: ICAMEG_clean_sbu_1, # of connection points: 4
#     Node 13, Type 0, BuildingBlock: ICAMEG_clean_sbu_1, # of connection points: 4
#     Node 14, Type 0, BuildingBlock: ICAMEG_clean_sbu_1, # of connection points: 4
#     Node 15, Type 0, BuildingBlock: ICAMEG_clean_sbu_1, # of connection points: 4
#     Node 16, Type 0, BuildingBlock: ICAMEG_clean_sbu_1, # of connection points: 4
#     Node 17, Type 0, BuildingBlock: ICAMEG_clean_sbu_1, # of connection points: 4
#     Node 18, Type 0, BuildingBlock: ICAMEG_clean_sbu_1, # of connection points: 4
#     Node 19, Type 0, BuildingBlock: ICAMEG_clean_sbu_1, # of connection points: 4
#     Node 20, Type 0, BuildingBlock: ICAMEG_clean_sbu_1, # of connection points: 4
#     Node 21, Type 0, BuildingBlock: ICAMEG_clean_sbu_1, # of connection points: 4
#     Node 22, Type 0, BuildingBlock: ICAMEG_clean_sbu_1, # of connection points: 4
#     Node 23, Type 0, BuildingBlock: ICAMEG_clean_sbu_1, # of connection points: 4
#     Edge 24, Type (0, 0), BuildingBlock: EZIPEK_clean_linker_0, # of connection points: 2
#     Edge 25, Type (0, 0), BuildingBlock: EZIPEK_clean_linker_0, # of connection points: 2
#     Edge 26, Type (0, 0), BuildingBlock: EZIPEK_clean_linker_0, # of connection points: 2
#     Edge 27, Type (0, 0), BuildingBlock: EZIPEK_clean_linker_0, # of connection points: 2
#     Edge 28, Type (0, 0), BuildingBlock: EZIPEK_clean_linker_0, # of connection points: 2
#     Edge 29, Type (0, 0), BuildingBlock: EZIPEK_clean_linker_0, # of connection points: 2
#     Edge 30, Type (0, 0), BuildingBlock: EZIPEK_clean_linker_0, # of connection points: 2
#     Edge 31, Type (0, 0), BuildingBlock: EZIPEK_clean_linker_0, # of connection points: 2
#     Edge 32, Type (0, 0), BuildingBlock: EZIPEK_clean_linker_0, # of connection points: 2
#     Edge 33, Type (0, 0), BuildingBlock: EZIPEK_clean_linker_0, # of connection points: 2
#     Edge 34, Type (0, 0), BuildingBlock: EZIPEK_clean_linker_0, # of connection points: 2
#     Edge 35, Type (0, 0), BuildingBlock: EZIPEK_clean_linker_0, # of connection points: 2
#     Edge 36, Type (0, 0), BuildingBlock: EZIPEK_clean_linker_0, # of connection points: 2
#     Edge 37, Type (0, 0), BuildingBlock: EZIPEK_clean_linker_0, # of connection points: 2
#     Edge 38, Type (0, 0), BuildingBlock: EZIPEK_clean_linker_0, # of connection points: 2
#     Edge 39, Type (0, 0), BuildingBlock: EZIPEK_clean_linker_0, # of connection points: 2
#     Edge 40, Type (0, 0), BuildingBlock: EZIPEK_clean_linker_0, # of connection points: 2
#     Edge 41, Type (0, 0), BuildingBlock: EZIPEK_clean_linker_0, # of connection points: 2
#     Edge 42, Type (0, 0), BuildingBlock: EZIPEK_clean_linker_0, # of connection points: 2
#     Edge 43, Type (0, 0), BuildingBlock: EZIPEK_clean_linker_0, # of connection points: 2
#     Edge 44, Type (0, 0), BuildingBlock: EZIPEK_clean_linker_0, # of connection points: 2
#     Edge 45, Type (0, 0), BuildingBlock: EZIPEK_clean_linker_0, # of connection points: 2
#     Edge 46, Type (0, 0), BuildingBlock: EZIPEK_clean_linker_0, # of connection points: 2
#     Edge 47, Type (0, 0), BuildingBlock: EZIPEK_clean_linker_0, # of connection points: 2
#     Edge 48, Type (0, 0), BuildingBlock: EZIPEK_clean_linker_0, # of connection points: 2
#     Edge 49, Type (0, 0), BuildingBlock: EZIPEK_clean_linker_0, # of connection points: 2
#     Edge 50, Type (0, 0), BuildingBlock: EZIPEK_clean_linker_0, # of connection points: 2
#     Edge 51, Type (0, 0), BuildingBlock: EZIPEK_clean_linker_0, # of connection points: 2
#     Edge 52, Type (0, 0), BuildingBlock: EZIPEK_clean_linker_0, # of connection points: 2
#     Edge 53, Type (0, 0), BuildingBlock: EZIPEK_clean_linker_0, # of connection points: 2
#     Edge 54, Type (0, 0), BuildingBlock: EZIPEK_clean_linker_0, # of connection points: 2
#     Edge 55, Type (0, 0), BuildingBlock: EZIPEK_clean_linker_0, # of connection points: 2
#     Edge 56, Type (0, 0), BuildingBlock: EZIPEK_clean_linker_0, # of connection points: 2
#     Edge 57, Type (0, 0), BuildingBlock: EZIPEK_clean_linker_0, # of connection points: 2
#     Edge 58, Type (0, 0), BuildingBlock: EZIPEK_clean_linker_0, # of connection points: 2
#     Edge 59, Type (0, 0), BuildingBlock: EZIPEK_clean_linker_0, # of connection points: 2
#     Edge 60, Type (0, 0), BuildingBlock: EZIPEK_clean_linker_0, # of connection points: 2
#     Edge 61, Type (0, 0), BuildingBlock: EZIPEK_clean_linker_0, # of connection points: 2
#     Edge 62, Type (0, 0), BuildingBlock: EZIPEK_clean_linker_0, # of connection points: 2
#     Edge 63, Type (0, 0), BuildingBlock: EZIPEK_clean_linker_0, # of connection points: 2
#     Edge 64, Type (0, 0), BuildingBlock: EZIPEK_clean_linker_0, # of connection points: 2
#     Edge 65, Type (0, 0), BuildingBlock: EZIPEK_clean_linker_0, # of connection points: 2
#     Edge 66, Type (0, 0), BuildingBlock: EZIPEK_clean_linker_0, # of connection points: 2
#     Edge 67, Type (0, 0), BuildingBlock: EZIPEK_clean_linker_0, # of connection points: 2
#     Edge 68, Type (0, 0), BuildingBlock: EZIPEK_clean_linker_0, # of connection points: 2
#     Edge 69, Type (0, 0), BuildingBlock: EZIPEK_clean_linker_0, # of connection points: 2
#     Edge 70, Type (0, 0), BuildingBlock: EZIPEK_clean_linker_0, # of connection points: 2
#     Edge 71, Type (0, 0), BuildingBlock: EZIPEK_clean_linker_0, # of connection points: 2
# Relax obj value: 0.362
# Max RMSD: 0.251
# Mean RMSD: 0.251
data_MOF--net-lta--node1-ICAMEG_clean_sbu_1--edge1-EZIPEK_clean_linker_0
_symmetry_space_group_name_H-M    P1
_symmetry_Int_Tables_number       1
_symmetry_cell_setting            triclinic
loop_
_symmetry_equiv_pos_as_xyz
'x, y, z'
_cell_length_a     44.573735
_cell_length_b     44.61371
_cell_length_c     44.617339
_cell_angle_alpha  90.032327
_cell_angle_beta   90.095361
_cell_angle_gamma 89.984303
loop_
_atom_site_label
_atom_site_type_symbol
_atom_site_fract_x
_atom_site_fract_y
_atom_site_fract_z
_atom_type_partial_charge
Co0 Co 0.11261 0.36401 0.48176 0.0
Co1 Co 0.11676 0.29553 0.51464 0.0
O2 O 0.1299 0.3237 0.4833 0.0
C3 C 0.11175 0.35082 0.41524 0.0
O4 O 0.09978 0.3242 0.41879 0.0
C5 C 0.18213 0.27897 0.50078 0.0
O6 O 0.18433 0.30053 0.48094 0.0
O7 O 0.12907 0.32508 0.54667 0.0
O8 O 0.10658 0.36442 0.52619 0.0
H9 H 0.06224 0.2687 0.60946 0.0
H10 H 0.17143 0.35298 0.45332 0.0
O11 O 0.11852 0.36706 0.43757 0.0
H12 H 0.19075 0.4311 0.52909 0.0
H13 H 0.11202 0.47472 0.45967 0.0
H14 H 0.055 0.39066 0.50261 0.0
H15 H 0.13978 0.41119 0.52131 0.0
H16 H 0.1304 0.42289 0.4544 0.0
O17 O 0.158 0.27568 0.51606 0.0
H18 H 0.0789 0.30208 0.56887 0.0
H19 H 0.12659 0.2304 0.52843 0.0
H20 H 0.03515 0.44177 0.50709 0.0
H21 H 0.22275 0.3726 0.4597 0.0
H22 H 0.06502 0.48444 0.48814 0.0
H23 H 0.23272 0.4119 0.49791 0.0
O24 O 0.07191 0.34578 0.47639 0.0
H25 H 0.12099 0.24558 0.41317 0.0
H26 H 0.06367 0.2556 0.50694 0.0
H27 H 0.0446 0.22286 0.46692 0.0
H28 H 0.07333 0.21754 0.41959 0.0
H29 H 0.13943 0.27786 0.45375 0.0
H30 H 0.11092 0.19633 0.56881 0.0
H31 H 0.07833 0.21539 0.60971 0.0
O32 O 0.07511 0.31267 0.51403 0.0
C33 C 0.11765 0.35126 0.54907 0.0
C34 C 0.07644 0.2601 0.59177 0.0
C35 C 0.10382 0.21953 0.56902 0.0
N36 N 0.10389 0.2683 0.54619 0.0
C37 C 0.0859 0.2789 0.56862 0.0
C38 C 0.11286 0.23901 0.54626 0.0
C39 C 0.0855 0.23022 0.59192 0.0
C40 C 0.17558 0.37005 0.46999 0.0
N41 N 0.15264 0.38057 0.48734 0.0
C42 C 0.2047 0.38108 0.47351 0.0
C43 C 0.21028 0.4031 0.49497 0.0
C44 C 0.18678 0.41381 0.51252 0.0
C45 C 0.15798 0.4022 0.50835 0.0
C46 C 0.09927 0.45634 0.46897 0.0
C47 C 0.06754 0.40885 0.49285 0.0
C48 C 0.10969 0.42694 0.46627 0.0
N49 N 0.09485 0.40386 0.47992 0.0
C50 C 0.05615 0.43785 0.49557 0.0
C51 C 0.07273 0.46179 0.4845 0.0
C52 C 0.05989 0.32735 0.49474 0.0
C53 C 0.10849 0.24733 0.43388 0.0
C54 C 0.07685 0.2529 0.48682 0.0
C55 C 0.06569 0.23452 0.46405 0.0
C56 C 0.08174 0.23164 0.43746 0.0
N57 N 0.10353 0.26774 0.48352 0.0
C58 C 0.1189 0.26559 0.45711 0.0
Co59 Co 0.64084 0.11428 0.49817 0.0
Co60 Co 0.71361 0.12653 0.51814 0.0
O61 O 0.67821 0.1368 0.49388 0.0
C62 C 0.64826 0.11586 0.43121 0.0
O63 O 0.67625 0.10703 0.43342 0.0
C64 C 0.7133 0.19415 0.51355 0.0
O65 O 0.68391 0.19477 0.5132 0.0
O66 O 0.68959 0.13498 0.55515 0.0
O67 O 0.6477 0.10946 0.54285 0.0
H68 H 0.76942 0.07562 0.60201 0.0
H69 H 0.63911 0.17469 0.47048 0.0
O70 O 0.63219 0.1197 0.45439 0.0
H71 H 0.56632 0.17841 0.55357 0.0
H72 H 0.5365 0.08597 0.46798 0.0
H73 H 0.62398 0.05802 0.52944 0.0
H74 H 0.59519 0.13238 0.54347 0.0
H75 H 0.57938 0.1199 0.47241 0.0
O76 O 0.72749 0.16952 0.51631 0.0
H77 H 0.7255 0.08708 0.57043 0.0
H78 H 0.77767 0.1462 0.51746 0.0
H79 H 0.5813 0.02304 0.52554 0.0
H80 H 0.61058 0.22122 0.47964 0.0
H81 H 0.53764 0.03625 0.49352 0.0
H82 H 0.5739 0.22327 0.52148 0.0
O83 O 0.66285 0.07662 0.48951 0.0
H84 H 0.74857 0.14741 0.41319 0.0
H85 H 0.75384 0.07683 0.49804 0.0
H86 H 0.78134 0.06543 0.45154 0.0
H87 H 0.77891 0.10091 0.40872 0.0
H88 H 0.72103 0.15764 0.45996 0.0
H89 H 0.82218 0.13559 0.54845 0.0
H90 H 0.81828 0.10003 0.59109 0.0
O91 O 0.70199 0.08269 0.52023 0.0
C92 C 0.66399 0.12373 0.56183 0.0
C93 C 0.77139 0.09129 0.5836 0.0
C94 C 0.80098 0.12494 0.55356 0.0
N95 N 0.74873 0.11759 0.54244 0.0
C96 C 0.7465 0.09792 0.56574 0.0
C97 C 0.7756 0.131 0.53619 0.0
C98 C 0.79879 0.10497 0.57745 0.0
C99 C 0.62317 0.17545 0.48869 0.0
N100 N 0.61895 0.15094 0.50649 0.0
C101 C 0.6071 0.20184 0.4938 0.0
C102 C 0.58652 0.20298 0.51727 0.0
C103 C 0.58225 0.17783 0.53528 0.0
C104 C 0.59877 0.15186 0.52953 0.0
C105 C 0.5555 0.07943 0.48147 0.0
C106 C 0.60466 0.06431 0.51624 0.0
C107 C 0.57984 0.09881 0.48433 0.0
N108 N 0.60432 0.09086 0.501 0.0
C109 C 0.58071 0.04425 0.51381 0.0
C110 C 0.55621 0.05168 0.49582 0.0
C111 C 0.68481 0.06612 0.50437 0.0
C112 C 0.74993 0.13184 0.43174 0.0
C113 C 0.7526 0.09237 0.47951 0.0
C114 C 0.76827 0.08581 0.45324 0.0
C115 C 0.7669 0.10573 0.42922 0.0
N116 N 0.73601 0.11806 0.48182 0.0
C117 C 0.73451 0.13762 0.45834 0.0
Co118 Co 0.89329 0.64741 0.50301 0.0
Co119 Co 0.8775 0.71971 0.52038 0.0
O120 O 0.86775 0.6829 0.4976 0.0
C121 C 0.86845 0.64215 0.43831 0.0
O122 O 0.85105 0.66573 0.44082 0.0
C123 C 0.80938 0.71886 0.51841 0.0
O124 O 0.80846 0.68972 0.52179 0.0
O125 O 0.86982 0.69658 0.55825 0.0
O126 O 0.89985 0.65806 0.54656 0.0
H127 H 0.92677 0.77847 0.60309 0.0
H128 H 0.82796 0.64505 0.48735 0.0
O129 O 0.88621 0.6345 0.45975 0.0
H130 H 0.84173 0.56919 0.5662 0.0
H131 H 0.93659 0.54529 0.47965 0.0
H132 H 0.94998 0.63849 0.53684 0.0
H133 H 0.8846 0.59917 0.54869 0.0
H134 H 0.89722 0.58394 0.48001 0.0
O135 O 0.83424 0.73286 0.51812 0.0
H136 H 0.91607 0.73353 0.57275 0.0
H137 H 0.8569 0.78349 0.51747 0.0
H138 H 0.9891 0.59987 0.53884 0.0
H139 H 0.78463 0.61583 0.50452 0.0
H140 H 0.98299 0.55309 0.5093 0.0
H141 H 0.79141 0.57717 0.54398 0.0
O142 O 0.9281 0.67174 0.49033 0.0
H143 H 0.85579 0.74934 0.41394 0.0
H144 H 0.92536 0.76164 0.49909 0.0
H145 H 0.93554 0.78805 0.45168 0.0
H146 H 0.90062 0.782 0.40866 0.0
H147 H 0.84658 0.72336 0.46181 0.0
H148 H 0.86669 0.82896 0.54725 0.0
H149 H 0.90193 0.82669 0.59038 0.0
O150 O 0.92189 0.70948 0.52242 0.0
C151 C 0.8832 0.67211 0.56518 0.0
C152 C 0.91132 0.77975 0.5844 0.0
C153 C 0.87759 0.80807 0.55308 0.0
N154 N 0.88578 0.75569 0.54353 0.0
C155 C 0.90517 0.75432 0.56719 0.0
C156 C 0.87201 0.78216 0.53639 0.0
C157 C 0.89738 0.80679 0.57726 0.0
C158 C 0.83134 0.62835 0.5044 0.0
N159 N 0.85925 0.62327 0.51603 0.0
C160 C 0.80659 0.61178 0.51407 0.0
C161 C 0.8104 0.59007 0.53615 0.0
C162 C 0.83873 0.58542 0.54847 0.0
C163 C 0.86297 0.60241 0.53823 0.0
C164 C 0.93967 0.56576 0.49224 0.0
C165 C 0.94651 0.61799 0.52466 0.0
C166 C 0.91736 0.58778 0.49237 0.0
N167 N 0.92111 0.61386 0.50789 0.0
C168 C 0.96901 0.59621 0.52566 0.0
C169 C 0.96564 0.57006 0.50903 0.0
C170 C 0.9386 0.69335 0.50563 0.0
C171 C 0.87114 0.75225 0.43253 0.0
C172 C 0.90999 0.75894 0.48053 0.0
C173 C 0.91588 0.77397 0.45372 0.0
C174 C 0.89629 0.77055 0.42959 0.0
N175 N 0.88521 0.74108 0.48327 0.0
C176 C 0.86597 0.73762 0.4597 0.0
Co177 Co 0.35753 0.88308 0.49733 0.0
Co178 Co 0.28626 0.86854 0.52066 0.0
O179 O 0.32031 0.85993 0.49392 0.0
C180 C 0.35239 0.86789 0.43064 0.0
O181 O 0.32624 0.85465 0.43317 0.0
C182 C 0.28791 0.801 0.51768 0.0
O183 O 0.31725 0.80091 0.52001 0.0
O184 O 0.3127 0.85978 0.55595 0.0
O185 O 0.35267 0.8867 0.54165 0.0
H186 H 0.23744 0.90856 0.614 0.0
H187 H 0.35762 0.82183 0.47019 0.0
O188 O 0.36508 0.88032 0.453 0.0
H189 H 0.43486 0.81925 0.54926 0.0
H190 H 0.4599 0.91467 0.46502 0.0
H191 H 0.37395 0.93885 0.52983 0.0
H192 H 0.4058 0.86525 0.53994 0.0
H193 H 0.41827 0.87954 0.46992 0.0
O194 O 0.27319 0.82543 0.51826 0.0
H195 H 0.27936 0.89929 0.57928 0.0
H196 H 0.22157 0.85117 0.52085 0.0
H197 H 0.41551 0.97507 0.52555 0.0
H198 H 0.38669 0.77562 0.47816 0.0
H199 H 0.45822 0.96392 0.49184 0.0
H200 H 0.42562 0.77404 0.51804 0.0
O201 O 0.33429 0.92041 0.49126 0.0
H202 H 0.24439 0.84908 0.41782 0.0
H203 H 0.24439 0.91833 0.50399 0.0
H204 H 0.21409 0.93043 0.45938 0.0
H205 H 0.21385 0.89563 0.4159 0.0
H206 H 0.27475 0.83811 0.46272 0.0
H207 H 0.17906 0.85954 0.55512 0.0
H208 H 0.18679 0.88864 0.60198 0.0
O209 O 0.29665 0.91268 0.52323 0.0
C210 C 0.33816 0.87192 0.56128 0.0
C211 C 0.23369 0.89617 0.59347 0.0
C212 C 0.20094 0.86863 0.56045 0.0
N213 N 0.25277 0.87566 0.54754 0.0
C214 C 0.25731 0.8911 0.57358 0.0
C215 C 0.2251 0.86403 0.54109 0.0
C216 C 0.2053 0.88493 0.58675 0.0
C217 C 0.37494 0.82164 0.48703 0.0
N218 N 0.38043 0.84655 0.50396 0.0
C219 C 0.39116 0.79526 0.4917 0.0
C220 C 0.41294 0.79436 0.51412 0.0
C221 C 0.41815 0.8197 0.53163 0.0
C222 C 0.40157 0.84571 0.52623 0.0
C223 C 0.44131 0.92041 0.47934 0.0
C224 C 0.393 0.93337 0.51593 0.0
C225 C 0.41765 0.90031 0.48241 0.0
N226 N 0.39352 0.90725 0.4999 0.0
C227 C 0.41631 0.9541 0.51336 0.0
C228 C 0.44031 0.9478 0.49441 0.0
C229 C 0.3128 0.9302 0.50734 0.0
C230 C 0.24427 0.86442 0.43663 0.0
C231 C 0.24464 0.90315 0.48509 0.0
C232 C 0.22731 0.91009 0.45993 0.0
C233 C 0.22717 0.89055 0.43555 0.0
N234 N 0.2614 0.87748 0.48597 0.0
C235 C 0.26136 0.85825 0.46216 0.0
Co236 Co 0.11466 0.64399 0.51525 0.0
Co237 Co 0.13092 0.7145 0.49066 0.0
O238 O 0.13796 0.6811 0.51867 0.0
C239 C 0.11496 0.65458 0.58244 0.0
O240 O 0.11025 0.68342 0.5792 0.0
C241 C 0.19837 0.71165 0.49683 0.0
O242 O 0.19793 0.68225 0.4971 0.0
O243 O 0.13989 0.68704 0.45612 0.0
O244 O 0.11246 0.64758 0.47059 0.0
H245 H 0.09319 0.76175 0.39552 0.0
H246 H 0.17268 0.64269 0.54758 0.0
O247 O 0.11685 0.63734 0.55981 0.0
H248 H 0.18268 0.56754 0.46718 0.0
H249 H 0.08837 0.53767 0.53972 0.0
H250 H 0.05888 0.62737 0.48266 0.0
H251 H 0.13594 0.59644 0.47288 0.0
H252 H 0.1188 0.58315 0.54193 0.0
O253 O 0.1743 0.72667 0.49367 0.0
H254 H 0.10082 0.72065 0.43164 0.0
H255 H 0.15031 0.77856 0.48875 0.0
H256 H 0.02631 0.58274 0.48137 0.0
H257 H 0.21958 0.61367 0.54326 0.0
H258 H 0.04062 0.53745 0.51051 0.0
H259 H 0.22483 0.57583 0.50273 0.0
O260 O 0.07705 0.66774 0.5195 0.0
H261 H 0.1489 0.75793 0.59308 0.0
H262 H 0.08217 0.75842 0.50482 0.0
H263 H 0.07002 0.79033 0.54823 0.0
H264 H 0.10357 0.79034 0.59274 0.0
H265 H 0.15989 0.72595 0.54938 0.0
H266 H 0.14365 0.82021 0.45307 0.0
H267 H 0.1147 0.81201 0.40616 0.0
O268 O 0.08662 0.70513 0.48747 0.0
C269 C 0.12776 0.66155 0.45093 0.0
C270 C 0.10555 0.76571 0.41605 0.0
C271 C 0.13391 0.79849 0.44832 0.0
N272 N 0.12513 0.74737 0.46272 0.0
C273 C 0.10968 0.74256 0.43672 0.0
C274 C 0.13757 0.77481 0.46846 0.0
C275 C 0.11768 0.79388 0.422 0.0
C276 C 0.17468 0.62603 0.53016 0.0
N277 N 0.15152 0.62119 0.51069 0.0
C278 C 0.20135 0.60977 0.52769 0.0
C279 C 0.20429 0.58858 0.50492 0.0
C280 C 0.18066 0.58393 0.48496 0.0
C281 C 0.15429 0.60051 0.48821 0.0
C282 C 0.08111 0.55734 0.52772 0.0
C283 C 0.06516 0.60782 0.4955 0.0
C284 C 0.09867 0.58311 0.52853 0.0
N285 N 0.09073 0.60787 0.51244 0.0
C286 C 0.04655 0.58265 0.4948 0.0
C287 C 0.05455 0.5573 0.51122 0.0
C288 C 0.06833 0.6895 0.50301 0.0
C289 C 0.13416 0.75822 0.57378 0.0
C290 C 0.09683 0.75815 0.52414 0.0
C291 C 0.08986 0.77635 0.54864 0.0
C292 C 0.1087 0.77636 0.57359 0.0
N293 N 0.12188 0.74044 0.52446 0.0
C294 C 0.14038 0.74027 0.5489 0.0
Co295 Co 0.35827 0.10968 0.51366 0.0
Co296 Co 0.28651 0.11983 0.48918 0.0
O297 O 0.31916 0.12998 0.51737 0.0
C298 C 0.35129 0.12162 0.58095 0.0
O299 O 0.32335 0.13045 0.57867 0.0
C300 C 0.27413 0.18534 0.50742 0.0
O301 O 0.29775 0.18658 0.52498 0.0
O302 O 0.31311 0.13339 0.45564 0.0
O303 O 0.35395 0.1072 0.46894 0.0
H304 H 0.24644 0.08008 0.39153 0.0
H305 H 0.35359 0.16958 0.54283 0.0
O306 O 0.36564 0.11197 0.55824 0.0
H307 H 0.43043 0.18112 0.46443 0.0
H308 H 0.46365 0.08608 0.54477 0.0
H309 H 0.37889 0.05569 0.48061 0.0
H310 H 0.40546 0.13252 0.47225 0.0
H311 H 0.41881 0.11755 0.54115 0.0
O312 O 0.26844 0.16161 0.4923 0.0
H313 H 0.28541 0.09177 0.42892 0.0
H314 H 0.22001 0.12942 0.48665 0.0
H315 H 0.42333 0.02289 0.48421 0.0
H316 H 0.37828 0.21848 0.53614 0.0
H317 H 0.46566 0.03736 0.51737 0.0
H318 H 0.41702 0.22454 0.49663 0.0
O319 O 0.33763 0.07043 0.5184 0.0
H320 H 0.24685 0.12148 0.59491 0.0
H321 H 0.24668 0.06687 0.49891 0.0
H322 H 0.21837 0.04661 0.5416 0.0
H323 H 0.21828 0.07393 0.59011 0.0
H324 H 0.27453 0.1411 0.55153 0.0
H325 H 0.18032 0.11877 0.44973 0.0
H326 H 0.19338 0.09363 0.4018 0.0
O327 O 0.30111 0.07728 0.48495 0.0
C328 C 0.33943 0.12326 0.4502 0.0
C329 C 0.2404 0.09081 0.41243 0.0
C330 C 0.20332 0.11258 0.44504 0.0
N331 N 0.25501 0.11068 0.46033 0.0
C332 C 0.26239 0.09728 0.43382 0.0
C333 C 0.22593 0.11866 0.46588 0.0
C334 C 0.21066 0.09848 0.41817 0.0
C335 C 0.37065 0.17187 0.52593 0.0
N336 N 0.37831 0.14803 0.50836 0.0
C337 C 0.38448 0.19969 0.5221 0.0
C338 C 0.40618 0.20309 0.49991 0.0
C339 C 0.41373 0.17874 0.48186 0.0
C340 C 0.39948 0.15126 0.48641 0.0
C341 C 0.44523 0.07901 0.53072 0.0
C342 C 0.39755 0.06249 0.49453 0.0
C343 C 0.41979 0.09701 0.52831 0.0
N344 N 0.3961 0.08837 0.51085 0.0
C345 C 0.42254 0.04369 0.49668 0.0
C346 C 0.4463 0.05183 0.51532 0.0
C347 C 0.3169 0.06011 0.50153 0.0
C348 C 0.24654 0.10944 0.57385 0.0
C349 C 0.24645 0.07925 0.51973 0.0
C350 C 0.23048 0.06751 0.54392 0.0
C351 C 0.23051 0.08279 0.57114 0.0
N352 N 0.26184 0.10569 0.52236 0.0
C353 C 0.2623 0.12045 0.54917 0.0
Co354 Co 0.88263 0.35665 0.51102 0.0
Co355 Co 0.87031 0.2844 0.49068 0.0
O356 O 0.86018 0.31931 0.51585 0.0
C357 C 0.86847 0.35372 0.57824 0.0
O358 O 0.85665 0.32683 0.57688 0.0
C359 C 0.80294 0.28379 0.49355 0.0
O360 O 0.8021 0.31285 0.48915 0.0
O361 O 0.86011 0.30846 0.45439 0.0
O362 O 0.8862 0.34978 0.46652 0.0
H363 H 0.91185 0.23272 0.39953 0.0
H364 H 0.82151 0.3571 0.53786 0.0
O365 O 0.87957 0.36619 0.55512 0.0
H366 H 0.81818 0.43117 0.456 0.0
H367 H 0.9161 0.45785 0.54358 0.0
H368 H 0.93785 0.37225 0.47749 0.0
H369 H 0.86446 0.4028 0.46643 0.0
H370 H 0.87911 0.41818 0.53672 0.0
O371 O 0.82779 0.26975 0.49427 0.0
H372 H 0.90172 0.27577 0.43262 0.0
H373 H 0.85532 0.21928 0.49345 0.0
H374 H 0.97567 0.41216 0.48323 0.0
H375 H 0.77487 0.38533 0.52864 0.0
H376 H 0.96587 0.45442 0.51799 0.0
H377 H 0.77297 0.42268 0.48738 0.0
O378 O 0.92013 0.33431 0.51882 0.0
H379 H 0.85431 0.24661 0.59555 0.0
H380 H 0.92217 0.24566 0.50842 0.0
H381 H 0.93629 0.21796 0.55407 0.0
H382 H 0.9022 0.21823 0.59806 0.0
H383 H 0.84134 0.27436 0.54955 0.0
H384 H 0.86483 0.1756 0.46097 0.0
H385 H 0.89344 0.18213 0.41369 0.0
O386 O 0.9139 0.29689 0.48668 0.0
C387 C 0.87184 0.3337 0.44756 0.0
C388 C 0.89956 0.22953 0.42018 0.0
C389 C 0.87318 0.19748 0.45466 0.0
N390 N 0.87861 0.24999 0.46532 0.0
C391 C 0.89384 0.25384 0.43907 0.0
C392 C 0.86792 0.22231 0.473 0.0
C393 C 0.8892 0.20116 0.42813 0.0
C394 C 0.82105 0.37367 0.52031 0.0
N395 N 0.84591 0.37875 0.50324 0.0
C396 C 0.79448 0.38943 0.51498 0.0
C397 C 0.79342 0.41034 0.49179 0.0
C398 C 0.81876 0.41512 0.47419 0.0
C399 C 0.84492 0.39899 0.48023 0.0
C400 C 0.92125 0.43941 0.52887 0.0
C401 C 0.9328 0.39139 0.49145 0.0
C402 C 0.90011 0.41686 0.52469 0.0
N403 N 0.90652 0.39262 0.50715 0.0
C404 C 0.95448 0.41369 0.49494 0.0
C405 C 0.94895 0.43739 0.5145 0.0
C406 C 0.93088 0.3131 0.5031 0.0
C407 C 0.86935 0.2463 0.57654 0.0
C408 C 0.90731 0.24613 0.52752 0.0
C409 C 0.91538 0.23027 0.55328 0.0
C410 C 0.89623 0.23041 0.57794 0.0
N411 N 0.88091 0.26172 0.52633 0.0
C412 C 0.86205 0.26191 0.55041 0.0
Co413 Co 0.64537 0.88748 0.51567 0.0
Co414 Co 0.71799 0.87602 0.49437 0.0
O415 O 0.68319 0.86537 0.51952 0.0
C416 C 0.65024 0.87237 0.58233 0.0
O417 O 0.67701 0.86041 0.58 0.0
C418 C 0.71892 0.80835 0.49908 0.0
O419 O 0.68954 0.80723 0.49931 0.0
O420 O 0.69332 0.86679 0.45784 0.0
O421 O 0.65138 0.89162 0.471 0.0
H422 H 0.7714 0.92744 0.40942 0.0
H423 H 0.64617 0.82605 0.54198 0.0
O424 O 0.637 0.88388 0.55982 0.0
H425 H 0.56859 0.82345 0.46319 0.0
H426 H 0.54268 0.91783 0.54817 0.0
H427 H 0.6279 0.94251 0.48266 0.0
H428 H 0.59778 0.86941 0.47239 0.0
H429 H 0.58441 0.88282 0.54268 0.0
O430 O 0.73265 0.83324 0.49639 0.0
H431 H 0.72838 0.91571 0.44192 0.0
H432 H 0.78228 0.85705 0.49385 0.0
H433 H 0.58598 0.97826 0.487 0.0
H434 H 0.61737 0.77966 0.53376 0.0
H435 H 0.54387 0.96707 0.52147 0.0
H436 H 0.5782 0.77813 0.4941 0.0
O437 O 0.66718 0.9252 0.52359 0.0
H438 H 0.75725 0.85633 0.59819 0.0
H439 H 0.75712 0.92705 0.51332 0.0
H440 H 0.78564 0.93947 0.55901 0.0
H441 H 0.78591 0.90395 0.60186 0.0
H442 H 0.72871 0.84506 0.5522 0.0
H443 H 0.82593 0.86797 0.46195 0.0
H444 H 0.82071 0.90341 0.41934 0.0
O445 O 0.70554 0.91968 0.49201 0.0
C446 C 0.66743 0.87771 0.45171 0.0
C447 C 0.77393 0.91178 0.42777 0.0
C448 C 0.80452 0.87841 0.45723 0.0
N449 N 0.75245 0.88528 0.46935 0.0
C450 C 0.74953 0.90495 0.44613 0.0
C451 C 0.7796 0.87216 0.47511 0.0
C452 C 0.80159 0.89832 0.43336 0.0
C453 C 0.62899 0.82572 0.52498 0.0
N454 N 0.62343 0.8506 0.50808 0.0
C455 C 0.61283 0.7993 0.52027 0.0
C456 C 0.59088 0.79845 0.498 0.0
C457 C 0.58546 0.82386 0.48068 0.0
C458 C 0.60211 0.84983 0.48599 0.0
C459 C 0.56108 0.92361 0.53363 0.0
C460 C 0.60896 0.93684 0.4966 0.0
C461 C 0.58482 0.90363 0.53026 0.0
N462 N 0.60883 0.9108 0.5127 0.0
C463 C 0.58546 0.95734 0.49926 0.0
C464 C 0.56176 0.95097 0.51855 0.0
C465 C 0.68829 0.93607 0.50796 0.0
C466 C 0.75733 0.872 0.57968 0.0
C467 C 0.75693 0.91153 0.53191 0.0
C468 C 0.77323 0.91866 0.5577 0.0
C469 C 0.77338 0.89872 0.58173 0.0
N470 N 0.74114 0.88531 0.5301 0.0
C471 C 0.74126 0.86566 0.55354 0.0
Co472 Co 0.49238 0.11718 0.36364 0.0
Co473 Co 0.51684 0.13004 0.29303 0.0
O474 O 0.49031 0.14065 0.32663 0.0
C475 C 0.42653 0.13625 0.35885 0.0
O476 O 0.43009 0.15084 0.33359 0.0
C477 C 0.51644 0.19848 0.28937 0.0
O478 O 0.51969 0.2024 0.31836 0.0
O479 O 0.55224 0.13861 0.31944 0.0
O480 O 0.53663 0.11118 0.35861 0.0
H481 H 0.61002 0.08761 0.24555 0.0
H482 H 0.47017 0.18033 0.36301 0.0
O483 O 0.44816 0.12224 0.37121 0.0
H484 H 0.54793 0.17721 0.44154 0.0
H485 H 0.46108 0.08733 0.46722 0.0
H486 H 0.52221 0.05987 0.37955 0.0
H487 H 0.53545 0.13188 0.4126 0.0
H488 H 0.46516 0.12149 0.42453 0.0
O489 O 0.51548 0.17231 0.27809 0.0
H490 H 0.57493 0.0977 0.28689 0.0
H491 H 0.51724 0.1451 0.22783 0.0
H492 H 0.51857 0.02468 0.42194 0.0
H493 H 0.4815 0.22605 0.39174 0.0
H494 H 0.48703 0.0377 0.46577 0.0
H495 H 0.5207 0.22473 0.43136 0.0
O496 O 0.48384 0.08052 0.34004 0.0
H497 H 0.41418 0.15032 0.25097 0.0
H498 H 0.49908 0.07948 0.25254 0.0
H499 H 0.45406 0.06738 0.22279 0.0
H500 H 0.4112 0.10296 0.22182 0.0
H501 H 0.45953 0.16139 0.2807 0.0
H502 H 0.55177 0.13573 0.18585 0.0
H503 H 0.59851 0.10663 0.19449 0.0
O504 O 0.51867 0.08643 0.30509 0.0
C505 C 0.55703 0.12539 0.34449 0.0
C506 C 0.5896 0.10008 0.24142 0.0
C507 C 0.5569 0.12704 0.20792 0.0
N508 N 0.54361 0.12122 0.25978 0.0
C509 C 0.56957 0.10576 0.26478 0.0
C510 C 0.53737 0.13218 0.23181 0.0
C511 C 0.58314 0.11078 0.21279 0.0
C512 C 0.48665 0.1793 0.38064 0.0
N513 N 0.50129 0.15312 0.38671 0.0
C514 C 0.49325 0.20539 0.39667 0.0
C515 C 0.51529 0.20466 0.41884 0.0
C516 C 0.53055 0.17801 0.42458 0.0
C517 C 0.52329 0.15238 0.40814 0.0
C518 C 0.47445 0.08088 0.44814 0.0
C519 C 0.50896 0.06603 0.39886 0.0
C520 C 0.47702 0.10035 0.42389 0.0
N521 N 0.49375 0.09263 0.39945 0.0
C522 C 0.50679 0.04588 0.42269 0.0
C523 C 0.48902 0.05322 0.44729 0.0
C524 C 0.50022 0.06984 0.31923 0.0
C525 C 0.4327 0.13463 0.25122 0.0
C526 C 0.48046 0.095 0.25244 0.0
C527 C 0.45506 0.08807 0.23544 0.0
C528 C 0.43103 0.10805 0.23488 0.0
N529 N 0.48191 0.12109 0.26849 0.0
C530 C 0.45846 0.1408 0.26798 0.0
Co531 Co 0.88371 0.47857 0.36333 0.0
Co532 Co 0.87602 0.51143 0.29475 0.0
O533 O 0.86487 0.47974 0.32357 0.0
C534 C 0.87408 0.41183 0.34993 0.0
O535 O 0.86649 0.4155 0.32174 0.0
C536 C 0.8086 0.50822 0.28954 0.0
O537 O 0.80595 0.50752 0.31881 0.0
O538 O 0.8648 0.54369 0.32452 0.0
O539 O 0.8873 0.52319 0.36391 0.0
H540 H 0.92678 0.60655 0.26211 0.0
H541 H 0.82501 0.4493 0.35265 0.0
O542 O 0.88119 0.4339 0.36647 0.0
H543 H 0.80665 0.52077 0.43475 0.0
H544 H 0.88944 0.456 0.47376 0.0
H545 H 0.94168 0.50134 0.38797 0.0
H546 H 0.85682 0.51609 0.41225 0.0
H547 H 0.86924 0.4503 0.42275 0.0
O548 O 0.83425 0.5108 0.27731 0.0
H549 H 0.91294 0.56675 0.29777 0.0
H550 H 0.86183 0.52288 0.2303 0.0
H551 H 0.9635 0.506 0.43822 0.0
H552 H 0.77468 0.45227 0.37511 0.0
H553 H 0.93604 0.48585 0.48185 0.0
H554 H 0.76517 0.48833 0.41648 0.0
O555 O 0.92376 0.47534 0.34381 0.0
H556 H 0.86214 0.41494 0.23816 0.0
H557 H 0.92948 0.50084 0.2558 0.0
H558 H 0.94503 0.46081 0.22108 0.0
H559 H 0.91121 0.41749 0.21196 0.0
H560 H 0.84771 0.45525 0.27309 0.0
H561 H 0.87485 0.56243 0.19404 0.0
H562 H 0.90764 0.6046 0.20983 0.0
O563 O 0.91848 0.51216 0.30996 0.0
C564 C 0.87639 0.54608 0.35066 0.0
C565 C 0.91249 0.58829 0.25495 0.0
C566 C 0.88329 0.56355 0.21677 0.0
N567 N 0.88655 0.5425 0.26619 0.0
C568 C 0.90463 0.56562 0.27503 0.0
C569 C 0.87588 0.54129 0.23747 0.0
C570 C 0.90171 0.58719 0.22563 0.0
C571 C 0.82127 0.46452 0.37101 0.0
N572 N 0.8441 0.4821 0.38141 0.0
C573 C 0.79261 0.46636 0.38347 0.0
C574 C 0.78726 0.48666 0.40659 0.0
C575 C 0.81049 0.5049 0.4168 0.0
C576 C 0.83884 0.50238 0.40378 0.0
C577 C 0.90119 0.46581 0.455 0.0
C578 C 0.93018 0.49104 0.40652 0.0
C579 C 0.88968 0.46294 0.42604 0.0
N580 N 0.90305 0.47734 0.40252 0.0
C581 C 0.9427 0.49388 0.43505 0.0
C582 C 0.92747 0.48213 0.45952 0.0
C583 C 0.93467 0.49408 0.32515 0.0
C584 C 0.87704 0.43373 0.24187 0.0
C585 C 0.91465 0.48203 0.25207 0.0
C586 C 0.92356 0.45945 0.23231 0.0
C587 C 0.90458 0.43516 0.22721 0.0
N588 N 0.8876 0.48046 0.26642 0.0
C589 C 0.86892 0.45669 0.26154 0.0
Co590 Co 0.50956 0.89011 0.36916 0.0
Co591 Co 0.48845 0.88269 0.29594 0.0
O592 O 0.51362 0.87016 0.33011 0.0
C593 C 0.57572 0.87237 0.36479 0.0
O594 O 0.57241 0.8599 0.33843 0.0
C595 C 0.50546 0.81677 0.28393 0.0
O596 O 0.52139 0.81505 0.30861 0.0
O597 O 0.45242 0.87076 0.31998 0.0
O598 O 0.46475 0.89495 0.36267 0.0
H599 H 0.40121 0.93605 0.24764 0.0
H600 H 0.53348 0.82761 0.36434 0.0
O601 O 0.55389 0.88538 0.37791 0.0
H602 H 0.45423 0.82298 0.44092 0.0
H603 H 0.53802 0.91077 0.47596 0.0
H604 H 0.47944 0.94591 0.38935 0.0
H605 H 0.46567 0.87047 0.41532 0.0
H606 H 0.53453 0.88015 0.43048 0.0
O607 O 0.49112 0.84086 0.27747 0.0
H608 H 0.43481 0.92174 0.28898 0.0
H609 H 0.48757 0.86982 0.23001 0.0
H610 H 0.48317 0.97799 0.43409 0.0
H611 H 0.52292 0.77964 0.3893 0.0
H612 H 0.5132 0.96092 0.47759 0.0
H613 H 0.48305 0.77707 0.42806 0.0
O614 O 0.51792 0.92911 0.34931 0.0
H615 H 0.59661 0.87715 0.26312 0.0
H616 H 0.50299 0.93561 0.25789 0.0
H617 H 0.54812 0.95441 0.2325 0.0
H618 H 0.59549 0.92519 0.23505 0.0
H619 H 0.55075 0.85887 0.2875 0.0
H620 H 0.45474 0.88311 0.1878 0.0
H621 H 0.41105 0.91658 0.19641 0.0
O622 O 0.48504 0.92489 0.31177 0.0
C623 C 0.44586 0.88079 0.34614 0.0
C624 C 0.41995 0.92117 0.2436 0.0
C625 C 0.44995 0.89147 0.21006 0.0
N626 N 0.46267 0.89413 0.26242 0.0
C627 C 0.43891 0.91283 0.26712 0.0
C628 C 0.46837 0.88368 0.23418 0.0
C629 C 0.4255 0.91029 0.21488 0.0
C630 C 0.51648 0.82686 0.38133 0.0
N631 N 0.50091 0.8521 0.38878 0.0
C632 C 0.51041 0.79954 0.39534 0.0
C633 C 0.48802 0.7981 0.41705 0.0
C634 C 0.4719 0.82384 0.42431 0.0
C635 C 0.47855 0.85071 0.40973 0.0
C636 C 0.52526 0.91889 0.45706 0.0
C637 C 0.49212 0.93811 0.4083 0.0
C638 C 0.52287 0.90139 0.43128 0.0
N639 N 0.50676 0.91125 0.40711 0.0
C640 C 0.49445 0.95651 0.4335 0.0
C641 C 0.51142 0.94691 0.45791 0.0
C642 C 0.50214 0.94059 0.32849 0.0
C643 C 0.57609 0.89005 0.26172 0.0
C644 C 0.52326 0.92235 0.2587 0.0
C645 C 0.54886 0.93329 0.24441 0.0
C646 C 0.57544 0.91697 0.24595 0.0
N647 N 0.52389 0.89569 0.27389 0.0
C648 C 0.55002 0.87985 0.27574 0.0
Co649 Co 0.11195 0.51035 0.35657 0.0
Co650 Co 0.12327 0.48819 0.28488 0.0
O651 O 0.13479 0.51364 0.31924 0.0
C652 C 0.13235 0.57626 0.35534 0.0
O653 O 0.14727 0.57379 0.33016 0.0
C654 C 0.19022 0.50267 0.27536 0.0
O655 O 0.19195 0.51885 0.29987 0.0
O656 O 0.13302 0.45228 0.3099 0.0
O657 O 0.10578 0.4662 0.34986 0.0
H658 H 0.07953 0.39536 0.23765 0.0
H659 H 0.17535 0.53217 0.3563 0.0
O660 O 0.11744 0.55432 0.36597 0.0
H661 H 0.17266 0.4515 0.43146 0.0
H662 H 0.08141 0.54203 0.45944 0.0
H663 H 0.05492 0.47983 0.37217 0.0
H664 H 0.127 0.46537 0.40349 0.0
H665 H 0.11683 0.53586 0.41816 0.0
O666 O 0.16573 0.48938 0.26829 0.0
H667 H 0.09136 0.42984 0.27899 0.0
H668 H 0.13408 0.4893 0.21863 0.0
H669 H 0.01863 0.48514 0.41345 0.0
H670 H 0.22135 0.51945 0.384 0.0
H671 H 0.03101 0.51773 0.45684 0.0
H672 H 0.22022 0.47876 0.42197 0.0
O673 O 0.07488 0.51998 0.33386 0.0
H674 H 0.13321 0.59617 0.25307 0.0
H675 H 0.07294 0.50416 0.24341 0.0
H676 H 0.05679 0.54988 0.21724 0.0
H677 H 0.087 0.59641 0.22191 0.0
H678 H 0.14877 0.54983 0.27841 0.0
H679 H 0.12313 0.45542 0.17654 0.0
H680 H 0.0954 0.40804 0.18585 0.0
O681 O 0.08007 0.48574 0.29837 0.0
C682 C 0.11993 0.4464 0.33475 0.0
C683 C 0.09152 0.41599 0.23325 0.0
C684 C 0.11598 0.44965 0.19898 0.0
N685 N 0.11313 0.46192 0.25139 0.0
C686 C 0.09827 0.43567 0.25666 0.0
C687 C 0.12227 0.46877 0.22298 0.0
C688 C 0.10044 0.42309 0.20421 0.0
C689 C 0.17441 0.51501 0.37315 0.0
N690 N 0.14817 0.50035 0.37885 0.0
C691 C 0.20066 0.50764 0.38863 0.0
C692 C 0.20004 0.48478 0.40987 0.0
C693 C 0.17334 0.46951 0.41524 0.0
C694 C 0.14753 0.47757 0.39937 0.0
C695 C 0.0752 0.52833 0.4405 0.0
C696 C 0.06095 0.4931 0.39152 0.0
C697 C 0.09541 0.52455 0.41705 0.0
N698 N 0.0878 0.50787 0.39253 0.0
C699 C 0.04016 0.49628 0.41468 0.0
C700 C 0.04711 0.51463 0.43898 0.0
C701 C 0.06367 0.50396 0.31303 0.0
C702 C 0.11995 0.57599 0.25066 0.0
C703 C 0.08656 0.52407 0.24528 0.0
C704 C 0.07715 0.55001 0.2305 0.0
C705 C 0.09404 0.57612 0.23319 0.0
N706 N 0.11235 0.52386 0.26199 0.0
C707 C 0.12862 0.54961 0.26513 0.0
Co708 Co 0.49436 0.89228 0.64517 0.0
Co709 Co 0.51531 0.88397 0.71831 0.0
O710 O 0.49084 0.8714 0.68365 0.0
C711 C 0.42867 0.87295 0.64963 0.0
O712 O 0.43261 0.86002 0.67565 0.0
C713 C 0.50587 0.81645 0.72521 0.0
O714 O 0.49856 0.81376 0.69689 0.0
O715 O 0.55187 0.87362 0.69443 0.0
O716 O 0.53902 0.89793 0.65193 0.0
H717 H 0.60036 0.93798 0.76945 0.0
H718 H 0.47133 0.8293 0.6476 0.0
O719 O 0.45006 0.88673 0.63652 0.0
H720 H 0.55146 0.82837 0.57181 0.0
H721 H 0.46545 0.9144 0.53896 0.0
H722 H 0.52392 0.94885 0.62604 0.0
H723 H 0.53912 0.87476 0.59901 0.0
H724 H 0.46928 0.88326 0.58392 0.0
O725 O 0.51371 0.84188 0.73582 0.0
H726 H 0.56819 0.92362 0.72689 0.0
H727 H 0.51495 0.8694 0.78375 0.0
H728 H 0.51997 0.98143 0.58161 0.0
H729 H 0.48264 0.78242 0.62085 0.0
H730 H 0.4896 0.96485 0.53798 0.0
H731 H 0.52302 0.78172 0.58253 0.0
O732 O 0.48505 0.93064 0.66579 0.0
H733 H 0.40767 0.87217 0.74995 0.0
H734 H 0.49771 0.93589 0.7568 0.0
H735 H 0.45116 0.95196 0.7817 0.0
H736 H 0.40561 0.92007 0.77831 0.0
H737 H 0.45499 0.85674 0.72592 0.0
H738 H 0.54649 0.88294 0.827 0.0
H739 H 0.58958 0.91752 0.82006 0.0
O740 O 0.51765 0.92668 0.70358 0.0
C741 C 0.55814 0.88391 0.66831 0.0
C742 C 0.58178 0.92273 0.77275 0.0
C743 C 0.55157 0.89184 0.80503 0.0
N744 N 0.54008 0.89528 0.75248 0.0
C745 C 0.5636 0.91443 0.74861 0.0
C746 C 0.5339 0.88407 0.78034 0.0
C747 C 0.57571 0.91127 0.80113 0.0
C748 C 0.48848 0.82936 0.63075 0.0
N749 N 0.5039 0.855 0.62454 0.0
C750 C 0.49502 0.80265 0.61576 0.0
C751 C 0.51769 0.80225 0.5943 0.0
C752 C 0.53361 0.82841 0.58825 0.0
C753 C 0.52648 0.85464 0.60376 0.0
C754 C 0.47811 0.92246 0.55795 0.0
C755 C 0.51121 0.94125 0.60695 0.0
C756 C 0.48069 0.90464 0.58346 0.0
N757 N 0.49672 0.9143 0.60775 0.0
C758 C 0.50877 0.95992 0.58195 0.0
C759 C 0.49171 0.95059 0.55746 0.0
C760 C 0.50041 0.94224 0.68685 0.0
C761 C 0.42735 0.88628 0.75164 0.0
C762 C 0.47817 0.92161 0.75553 0.0
C763 C 0.45179 0.93095 0.76957 0.0
C764 C 0.42623 0.91311 0.76758 0.0
N765 N 0.47919 0.89512 0.74009 0.0
C766 C 0.45413 0.87774 0.73785 0.0
Co767 Co 0.10714 0.5045 0.64964 0.0
Co768 Co 0.12624 0.52264 0.72053 0.0
O769 O 0.1339 0.49882 0.68404 0.0
C770 C 0.13006 0.43924 0.64416 0.0
O771 O 0.14809 0.44136 0.66733 0.0
C772 C 0.19408 0.52003 0.71692 0.0
O773 O 0.19358 0.52519 0.68802 0.0
O774 O 0.13395 0.55987 0.69627 0.0
O775 O 0.1014 0.54783 0.66017 0.0
H776 H 0.08727 0.61152 0.77782 0.0
H777 H 0.17168 0.48688 0.64443 0.0
O778 O 0.11286 0.46116 0.63672 0.0
H779 H 0.15824 0.56952 0.5727 0.0
H780 H 0.06128 0.484 0.54801 0.0
H781 H 0.04996 0.5382 0.64341 0.0
H782 H 0.11536 0.55101 0.60214 0.0
H783 H 0.10126 0.48273 0.58608 0.0
O784 O 0.1699 0.51922 0.73205 0.0
H785 H 0.09497 0.57995 0.73314 0.0
H786 H 0.14644 0.51836 0.78427 0.0
H787 H 0.01045 0.54209 0.6052 0.0
H788 H 0.21477 0.50444 0.61512 0.0
H789 H 0.01577 0.51453 0.55714 0.0
H790 H 0.20818 0.54604 0.57873 0.0
O791 O 0.07331 0.49265 0.67549 0.0
H792 H 0.14598 0.41618 0.75155 0.0
H793 H 0.07887 0.50317 0.76389 0.0
H794 H 0.06782 0.45628 0.79089 0.0
H795 H 0.10155 0.41236 0.78487 0.0
H796 H 0.15594 0.46346 0.72479 0.0
H797 H 0.13967 0.5494 0.82947 0.0
H798 H 0.10969 0.59626 0.82649 0.0
O799 O 0.0814 0.52559 0.71195 0.0
C800 C 0.11913 0.56652 0.67255 0.0
C801 C 0.1001 0.59099 0.7795 0.0
C802 C 0.12953 0.55616 0.80847 0.0
N803 N 0.12029 0.54688 0.75621 0.0
C804 C 0.10432 0.57291 0.75429 0.0
C805 C 0.13325 0.53865 0.78278 0.0
C806 C 0.11274 0.58245 0.80678 0.0
C807 C 0.16829 0.50456 0.62839 0.0
N808 N 0.14054 0.51696 0.62438 0.0
C809 C 0.19293 0.51455 0.61186 0.0
C810 C 0.18923 0.53786 0.59147 0.0
C811 C 0.16109 0.55088 0.58789 0.0
C812 C 0.13688 0.54012 0.60458 0.0
C813 C 0.05866 0.49592 0.56894 0.0
C814 C 0.05299 0.52665 0.62237 0.0
C815 C 0.08128 0.49507 0.59063 0.0
N816 N 0.07819 0.50985 0.61719 0.0
C817 C 0.03027 0.52875 0.60088 0.0
C818 C 0.03314 0.51314 0.57404 0.0
C819 C 0.06372 0.50836 0.69727 0.0
C820 C 0.13117 0.43518 0.75445 0.0
C821 C 0.09365 0.48416 0.76109 0.0
C822 C 0.08729 0.45768 0.77649 0.0
C823 C 0.10622 0.43305 0.77311 0.0
N824 N 0.11822 0.48612 0.74287 0.0
C825 C 0.13679 0.46204 0.73941 0.0
Co826 Co 0.51059 0.11786 0.64678 0.0
Co827 Co 0.48614 0.13387 0.71713 0.0
O828 O 0.51356 0.14185 0.68349 0.0
C829 C 0.57738 0.13173 0.65344 0.0
O830 O 0.57447 0.14308 0.68039 0.0
C831 C 0.49218 0.20142 0.71561 0.0
O832 O 0.49185 0.20161 0.68622 0.0
O833 O 0.45137 0.14277 0.68996 0.0
O834 O 0.46608 0.11392 0.65147 0.0
H835 H 0.39122 0.09599 0.7648 0.0
H836 H 0.5381 0.17855 0.64504 0.0
O837 O 0.55503 0.12086 0.63936 0.0
H838 H 0.45869 0.18008 0.56809 0.0
H839 H 0.54111 0.08599 0.54376 0.0
H840 H 0.47882 0.06135 0.63137 0.0
H841 H 0.46762 0.13476 0.59833 0.0
H842 H 0.53793 0.12062 0.58602 0.0
O843 O 0.48906 0.17707 0.73013 0.0
H844 H 0.42688 0.10395 0.72347 0.0
H845 H 0.4852 0.15178 0.7816 0.0
H846 H 0.48162 0.02555 0.58934 0.0
H847 H 0.53054 0.22414 0.6148 0.0
H848 H 0.51393 0.03707 0.54557 0.0
H849 H 0.49048 0.22514 0.57602 0.0
O850 O 0.51694 0.08128 0.67106 0.0
H851 H 0.58856 0.15182 0.761 0.0
H852 H 0.50115 0.08413 0.75957 0.0
H853 H 0.54491 0.07147 0.7909 0.0
H854 H 0.58901 0.10549 0.79186 0.0
H855 H 0.54449 0.16328 0.72959 0.0
H856 H 0.45008 0.14457 0.82356 0.0
H857 H 0.40276 0.1163 0.81537 0.0
O858 O 0.48312 0.08969 0.70679 0.0
C859 C 0.44615 0.1291 0.66524 0.0
C860 C 0.41191 0.10807 0.76875 0.0
C861 C 0.44492 0.13534 0.80171 0.0
N862 N 0.45857 0.12746 0.75022 0.0
C863 C 0.43229 0.11249 0.74542 0.0
C864 C 0.46477 0.13928 0.77785 0.0
C865 C 0.41837 0.11951 0.79709 0.0
C866 C 0.52112 0.1786 0.62784 0.0
N867 N 0.50383 0.15379 0.62311 0.0
C868 C 0.51671 0.20458 0.61094 0.0
C869 C 0.49419 0.20515 0.58924 0.0
C870 C 0.47635 0.17989 0.58478 0.0
C871 C 0.4815 0.15429 0.60203 0.0
C872 C 0.52746 0.08011 0.56278 0.0
C873 C 0.49233 0.06685 0.61206 0.0
C874 C 0.52537 0.0999 0.58681 0.0
N875 N 0.50837 0.09294 0.61128 0.0
C876 C 0.49404 0.04637 0.58844 0.0
C877 C 0.51215 0.05288 0.56386 0.0
C878 C 0.5002 0.07189 0.69222 0.0
C879 C 0.56947 0.13682 0.76081 0.0
C880 C 0.52033 0.09895 0.75962 0.0
C881 C 0.54501 0.09171 0.77754 0.0
C882 C 0.56973 0.11082 0.77809 0.0
N883 N 0.52026 0.12449 0.74267 0.0
C884 C 0.54441 0.14329 0.74313 0.0
Co885 Co 0.8868 0.51167 0.64126 0.0
Co886 Co 0.87394 0.49114 0.71365 0.0
O887 O 0.86404 0.516 0.67859 0.0
C888 C 0.88388 0.57854 0.64914 0.0
O889 O 0.89058 0.57561 0.67761 0.0
C890 C 0.80611 0.49589 0.71355 0.0
O891 O 0.8052 0.49673 0.6842 0.0
O892 O 0.86541 0.45449 0.68899 0.0
O893 O 0.89197 0.46709 0.64809 0.0
H894 H 0.92375 0.40555 0.76765 0.0
H895 H 0.82609 0.53866 0.63966 0.0
O896 O 0.88133 0.55562 0.63232 0.0
H897 H 0.82269 0.45536 0.5671 0.0
H898 H 0.91101 0.53454 0.53405 0.0
H899 H 0.94371 0.48121 0.6249 0.0
H900 H 0.86878 0.46586 0.5958 0.0
H901 H 0.88024 0.53551 0.57939 0.0
O902 O 0.8309 0.49286 0.72745 0.0
H903 H 0.91249 0.43799 0.72438 0.0
H904 H 0.85443 0.49107 0.77772 0.0
H905 H 0.9761 0.48055 0.58025 0.0
H906 H 0.77953 0.52929 0.61115 0.0
H907 H 0.96034 0.50819 0.53451 0.0
H908 H 0.77764 0.4873 0.57458 0.0
O909 O 0.92449 0.52046 0.66361 0.0
H910 H 0.85296 0.59546 0.75064 0.0
H911 H 0.92348 0.51039 0.75464 0.0
H912 H 0.93477 0.55634 0.78316 0.0
H913 H 0.89932 0.59928 0.78138 0.0
H914 H 0.84287 0.54926 0.72202 0.0
H915 H 0.8648 0.45919 0.82158 0.0
H916 H 0.89976 0.41608 0.81676 0.0
O917 O 0.91786 0.48931 0.70232 0.0
C918 C 0.87705 0.44805 0.66354 0.0
C919 C 0.9084 0.42421 0.77003 0.0
C920 C 0.87532 0.45428 0.80028 0.0
N921 N 0.88267 0.4662 0.74829 0.0
C922 C 0.90193 0.44259 0.74553 0.0
C923 C 0.86941 0.47217 0.77527 0.0
C924 C 0.89494 0.43013 0.79757 0.0
C925 C 0.82544 0.52057 0.62364 0.0
N926 N 0.85012 0.50299 0.61937 0.0
C927 C 0.79901 0.51525 0.60763 0.0
C928 C 0.79797 0.49168 0.58714 0.0
C929 C 0.82322 0.47376 0.58292 0.0
C930 C 0.84923 0.47975 0.59936 0.0
C931 C 0.91887 0.52332 0.55397 0.0
C932 C 0.93664 0.49307 0.60507 0.0
C933 C 0.90121 0.52344 0.57967 0.0
N934 N 0.91018 0.50849 0.60483 0.0
C935 C 0.95521 0.49289 0.57992 0.0
C936 C 0.94637 0.50845 0.5543 0.0
C937 C 0.93456 0.50594 0.68605 0.0
C938 C 0.86852 0.57687 0.75171 0.0
C939 C 0.90796 0.52898 0.75365 0.0
C940 C 0.91445 0.55493 0.76992 0.0
C941 C 0.89456 0.57901 0.76891 0.0
N942 N 0.88237 0.52705 0.7368 0.0
C943 C 0.86281 0.55058 0.73569 0.0
Co944 Co 0.36599 0.49085 0.10663 0.0
Co945 Co 0.29522 0.51724 0.11774 0.0
O946 O 0.32707 0.4879 0.12725 0.0
C947 C 0.35756 0.42348 0.11702 0.0
O948 O 0.32972 0.42597 0.12605 0.0
C949 C 0.28315 0.49825 0.18298 0.0
O950 O 0.30614 0.47988 0.18355 0.0
O951 O 0.32289 0.54988 0.13143 0.0
O952 O 0.3629 0.53561 0.10471 0.0
H953 H 0.25822 0.61681 0.07992 0.0
H954 H 0.36165 0.46056 0.16586 0.0
O955 O 0.37234 0.44619 0.10812 0.0
H956 H 0.43995 0.53754 0.17826 0.0
H957 H 0.47113 0.45945 0.08214 0.0
H958 H 0.38655 0.52439 0.05309 0.0
H959 H 0.4142 0.53116 0.1298 0.0
H960 H 0.42605 0.46199 0.11332 0.0
O961 O 0.27766 0.51406 0.15965 0.0
H962 H 0.29592 0.57796 0.09068 0.0
H963 H 0.22875 0.52169 0.12732 0.0
H964 H 0.43127 0.52203 0.02069 0.0
H965 H 0.38717 0.46577 0.21458 0.0
H966 H 0.47355 0.48868 0.03452 0.0
H967 H 0.42663 0.50456 0.22107 0.0
O968 O 0.34462 0.48693 0.06769 0.0
H969 H 0.25235 0.41266 0.11832 0.0
H970 H 0.2544 0.50938 0.06513 0.0
H971 H 0.22435 0.46788 0.04471 0.0
H972 H 0.22312 0.41903 0.07133 0.0
H973 H 0.28177 0.45485 0.13814 0.0
H974 H 0.19032 0.56009 0.11765 0.0
H975 H 0.20491 0.60805 0.09348 0.0
O976 O 0.30945 0.52162 0.07513 0.0
C977 C 0.34909 0.55477 0.12081 0.0
C978 C 0.25152 0.59593 0.09028 0.0
C979 C 0.21345 0.56415 0.11152 0.0
N980 N 0.26459 0.54722 0.10921 0.0
C981 C 0.27279 0.57372 0.09626 0.0
C982 C 0.23536 0.54248 0.11711 0.0
C983 C 0.22164 0.59104 0.09795 0.0
C984 C 0.37901 0.47717 0.16834 0.0
N985 N 0.38663 0.49516 0.14482 0.0
C986 C 0.39331 0.48016 0.19606 0.0
C987 C 0.41542 0.50195 0.19969 0.0
C988 C 0.42292 0.52044 0.17569 0.0
C989 C 0.4082 0.51671 0.14829 0.0
C990 C 0.45275 0.47369 0.07538 0.0
C991 C 0.40516 0.51027 0.05959 0.0
C992 C 0.42716 0.47542 0.09318 0.0
N993 N 0.40358 0.49321 0.08497 0.0
C994 C 0.43032 0.50887 0.04104 0.0
C995 C 0.45407 0.49011 0.04883 0.0
C996 C 0.32429 0.50447 0.05774 0.0
C997 C 0.2525 0.4339 0.10661 0.0
C998 C 0.25368 0.48841 0.07723 0.0
C999 C 0.23672 0.46489 0.06539 0.0
C1000 C 0.23611 0.43748 0.08027 0.0
N1001 N 0.26937 0.48496 0.10342 0.0
C1002 C 0.26925 0.45792 0.11774 0.0
Co1003 Co 0.36286 0.51011 0.87944 0.0
Co1004 Co 0.29048 0.4877 0.86829 0.0
O1005 O 0.3249 0.51334 0.85742 0.0
C1006 C 0.35739 0.57676 0.86406 0.0
O1007 O 0.33097 0.5742 0.85135 0.0
C1008 C 0.28832 0.49353 0.80059 0.0
O1009 O 0.31767 0.49394 0.79873 0.0
O1010 O 0.31562 0.45153 0.85892 0.0
O1011 O 0.35737 0.46537 0.88386 0.0
H1012 H 0.23813 0.40235 0.92035 0.0
H1013 H 0.3614 0.53586 0.81783 0.0
O1014 O 0.37064 0.55432 0.87571 0.0
H1015 H 0.43961 0.45781 0.81543 0.0
H1016 H 0.46574 0.54361 0.90923 0.0
H1017 H 0.38072 0.47816 0.9349 0.0
H1018 H 0.41084 0.46729 0.86156 0.0
H1019 H 0.42372 0.5376 0.87437 0.0
O1020 O 0.27529 0.48988 0.8257 0.0
H1021 H 0.28067 0.4354 0.90846 0.0
H1022 H 0.22611 0.48608 0.84935 0.0
H1023 H 0.42246 0.48356 0.97077 0.0
H1024 H 0.38976 0.52737 0.77126 0.0
H1025 H 0.4646 0.51765 0.95887 0.0
H1026 H 0.42924 0.48806 0.76983 0.0
O1027 O 0.34102 0.51802 0.91701 0.0
H1028 H 0.2501 0.59127 0.84962 0.0
H1029 H 0.25077 0.50546 0.9192 0.0
H1030 H 0.22128 0.55045 0.93179 0.0
H1031 H 0.22078 0.59379 0.89687 0.0
H1032 H 0.27942 0.54588 0.83808 0.0
H1033 H 0.18293 0.45362 0.86042 0.0
H1034 H 0.18871 0.41136 0.89617 0.0
O1035 O 0.30336 0.48544 0.91185 0.0
C1036 C 0.34156 0.44578 0.87003 0.0
C1037 C 0.23537 0.42051 0.90452 0.0
C1038 C 0.20441 0.44927 0.87089 0.0
N1039 N 0.25635 0.46217 0.87769 0.0
C1040 C 0.25954 0.43917 0.89757 0.0
C1041 C 0.2291 0.46745 0.86453 0.0
C1042 C 0.20765 0.4256 0.89098 0.0
C1043 C 0.37876 0.51906 0.81754 0.0
N1044 N 0.38473 0.50253 0.84258 0.0
C1045 C 0.39465 0.51418 0.79103 0.0
C1046 C 0.41677 0.49211 0.79023 0.0
C1047 C 0.42262 0.47515 0.8158 0.0
C1048 C 0.40622 0.48064 0.84187 0.0
C1049 C 0.44727 0.52919 0.91524 0.0
C1050 C 0.39952 0.49217 0.92907 0.0
C1051 C 0.42345 0.52545 0.89534 0.0
N1052 N 0.39953 0.50781 0.90275 0.0
C1053 C 0.42294 0.49542 0.94961 0.0
C1054 C 0.44663 0.5146 0.94288 0.0
C1055 C 0.32026 0.50204 0.92798 0.0
C1056 C 0.25011 0.57254 0.86503 0.0
C1057 C 0.25076 0.52423 0.90389 0.0
C1058 C 0.23395 0.54963 0.91113 0.0
C1059 C 0.23368 0.57394 0.89154 0.0
N1060 N 0.2669 0.52305 0.87787 0.0
C1061 C 0.26666 0.54676 0.85856 0.0
Co1062 Co 0.49906 0.36459 0.88355 0.0
Co1063 Co 0.52101 0.29202 0.8724 0.0
O1064 O 0.49602 0.32672 0.86148 0.0
C1065 C 0.433 0.35852 0.86632 0.0
O1066 O 0.43661 0.33155 0.85525 0.0
C1067 C 0.51733 0.29125 0.80453 0.0
O1068 O 0.51787 0.3206 0.80339 0.0
O1069 O 0.55769 0.31686 0.86428 0.0
O1070 O 0.54385 0.35884 0.88887 0.0
H1071 H 0.60453 0.23779 0.92587 0.0
H1072 H 0.47429 0.36322 0.82142 0.0
O1073 O 0.45471 0.37262 0.87852 0.0
H1074 H 0.55357 0.44011 0.81995 0.0
H1075 H 0.46934 0.46997 0.9082 0.0
H1076 H 0.52841 0.38265 0.94062 0.0
H1077 H 0.54299 0.4117 0.86605 0.0
H1078 H 0.47327 0.42576 0.87609 0.0
O1079 O 0.51964 0.27752 0.82946 0.0
H1080 H 0.57234 0.28094 0.9137 0.0
H1081 H 0.52214 0.228 0.85273 0.0
H1082 H 0.52422 0.42623 0.97425 0.0
H1083 H 0.48372 0.39136 0.77492 0.0
H1084 H 0.49369 0.47006 0.95869 0.0
H1085 H 0.52368 0.43017 0.77395 0.0
O1086 O 0.49064 0.34282 0.92144 0.0
H1087 H 0.41785 0.25192 0.85028 0.0
H1088 H 0.50117 0.25305 0.92308 0.0
H1089 H 0.45539 0.2244 0.93456 0.0
H1090 H 0.41331 0.22363 0.898 0.0
H1091 H 0.46389 0.28065 0.83998 0.0
H1092 H 0.55373 0.18421 0.86406 0.0
H1093 H 0.59533 0.18887 0.90088 0.0
O1094 O 0.52243 0.30442 0.91604 0.0
C1095 C 0.5636 0.34265 0.87564 0.0
C1096 C 0.58667 0.23552 0.90956 0.0
C1097 C 0.55818 0.20547 0.87489 0.0
N1098 N 0.5459 0.25747 0.88199 0.0
C1099 C 0.56852 0.26004 0.90247 0.0
C1100 C 0.54049 0.23049 0.86839 0.0
C1101 C 0.58147 0.20808 0.89558 0.0
C1102 C 0.49125 0.38038 0.82137 0.0
N1103 N 0.50752 0.38617 0.84666 0.0
C1104 C 0.49672 0.39611 0.79488 0.0
C1105 C 0.51918 0.41783 0.79433 0.0
C1106 C 0.53593 0.42344 0.82012 0.0
C1107 C 0.52984 0.40721 0.84616 0.0
C1108 C 0.48211 0.45092 0.91585 0.0
C1109 C 0.51551 0.40177 0.93349 0.0
C1110 C 0.48477 0.42584 0.89744 0.0
N1111 N 0.50101 0.40148 0.9065 0.0
C1112 C 0.51288 0.42627 0.95278 0.0
C1113 C 0.49572 0.45087 0.94401 0.0
C1114 C 0.5059 0.32128 0.93225 0.0
C1115 C 0.43601 0.25208 0.86642 0.0
C1116 C 0.4829 0.25307 0.90712 0.0
C1117 C 0.45706 0.23667 0.91371 0.0
C1118 C 0.43347 0.23623 0.89319 0.0
N1119 N 0.48517 0.26874 0.88087 0.0
C1120 C 0.46218 0.26828 0.86063 0.0
Co1121 Co 0.65149 0.49548 0.88935 0.0
Co1122 Co 0.72235 0.51878 0.87317 0.0
O1123 O 0.68808 0.49216 0.86525 0.0
C1124 C 0.65659 0.42905 0.87314 0.0
O1125 O 0.68323 0.43202 0.86107 0.0
C1126 C 0.71907 0.51519 0.80569 0.0
O1127 O 0.68969 0.51639 0.80631 0.0
O1128 O 0.69567 0.55409 0.86509 0.0
O1129 O 0.65688 0.53983 0.89367 0.0
H1130 H 0.77226 0.61201 0.91237 0.0
H1131 H 0.64941 0.4693 0.82784 0.0
O1132 O 0.64346 0.4511 0.88569 0.0
H1133 H 0.57282 0.54893 0.82835 0.0
H1134 H 0.54887 0.46458 0.92121 0.0
H1135 H 0.6362 0.52739 0.94593 0.0
H1136 H 0.60325 0.53892 0.87335 0.0
H1137 H 0.5907 0.46842 0.88645 0.0
O1138 O 0.73439 0.51666 0.82974 0.0
H1139 H 0.73009 0.57731 0.90393 0.0
H1140 H 0.78661 0.51903 0.85438 0.0
H1141 H 0.59418 0.52432 0.98177 0.0
H1142 H 0.61896 0.47793 0.78257 0.0
H1143 H 0.55066 0.49139 0.97034 0.0
H1144 H 0.58036 0.51812 0.78257 0.0
O1145 O 0.67569 0.48865 0.92609 0.0
H1146 H 0.76403 0.41621 0.85214 0.0
H1147 H 0.76533 0.50188 0.92197 0.0
H1148 H 0.79597 0.4573 0.93316 0.0
H1149 H 0.79555 0.41406 0.89806 0.0
H1150 H 0.73333 0.46107 0.84213 0.0
H1151 H 0.82936 0.55324 0.86191 0.0
H1152 H 0.8224 0.60003 0.89131 0.0
O1153 O 0.71298 0.52093 0.91759 0.0
C1154 C 0.67071 0.55945 0.87817 0.0
C1155 C 0.77568 0.59151 0.89985 0.0
C1156 C 0.80771 0.55856 0.8715 0.0
N1157 N 0.75604 0.54563 0.87965 0.0
C1158 C 0.75191 0.57163 0.89525 0.0
C1159 C 0.78341 0.53922 0.86739 0.0
C1160 C 0.80379 0.58481 0.88797 0.0
C1161 C 0.63225 0.48626 0.8283 0.0
N1162 N 0.62772 0.50297 0.85351 0.0
C1163 C 0.61524 0.49132 0.80246 0.0
C1164 C 0.59365 0.51391 0.80245 0.0
C1165 C 0.58941 0.53119 0.82811 0.0
C1166 C 0.60677 0.52541 0.85354 0.0
C1167 C 0.56777 0.47834 0.92717 0.0
C1168 C 0.61686 0.51386 0.94039 0.0
C1169 C 0.5916 0.4808 0.90727 0.0
N1170 N 0.61605 0.49787 0.91427 0.0
C1171 C 0.59327 0.51199 0.96089 0.0
C1172 C 0.56883 0.49358 0.95444 0.0
C1173 C 0.69759 0.50458 0.93541 0.0
C1174 C 0.76443 0.4349 0.86761 0.0
C1175 C 0.76477 0.48309 0.90669 0.0
C1176 C 0.78231 0.45794 0.91309 0.0
C1177 C 0.78208 0.4337 0.89338 0.0
N1178 N 0.74743 0.48408 0.88138 0.0
C1179 C 0.74715 0.46041 0.86198 0.0
Co1180 Co 0.51602 0.64072 0.88664 0.0
Co1181 Co 0.49257 0.71285 0.87591 0.0
O1182 O 0.51971 0.67945 0.86599 0.0
C1183 C 0.58329 0.65048 0.88027 0.0
O1184 O 0.58062 0.67952 0.87678 0.0
C1185 C 0.49715 0.71686 0.80798 0.0
O1186 O 0.49686 0.68768 0.80421 0.0
O1187 O 0.45751 0.68695 0.86503 0.0
O1188 O 0.47129 0.64465 0.88854 0.0
H1189 H 0.39827 0.75883 0.91716 0.0
H1190 H 0.54738 0.64435 0.82818 0.0
O1191 O 0.56054 0.63393 0.8849 0.0
H1192 H 0.46796 0.56875 0.814 0.0
H1193 H 0.54628 0.5352 0.91078 0.0
H1194 H 0.48287 0.62062 0.94051 0.0
H1195 H 0.47429 0.59415 0.86266 0.0
H1196 H 0.54364 0.58019 0.87934 0.0
O1197 O 0.49518 0.72836 0.83399 0.0
H1198 H 0.4337 0.71779 0.90648 0.0
H1199 H 0.49188 0.77832 0.8618 0.0
H1200 H 0.48577 0.57629 0.97338 0.0
H1201 H 0.54228 0.61908 0.77926 0.0
H1202 H 0.51808 0.53345 0.95898 0.0
H1203 H 0.50227 0.58101 0.77192 0.0
O1204 O 0.52039 0.66144 0.92582 0.0
H1205 H 0.59482 0.75739 0.85957 0.0
H1206 H 0.50854 0.75168 0.92833 0.0
H1207 H 0.55265 0.78176 0.94252 0.0
H1208 H 0.59618 0.78488 0.90798 0.0
H1209 H 0.55051 0.72697 0.84653 0.0
H1210 H 0.45686 0.81992 0.87149 0.0
H1211 H 0.40976 0.81038 0.89958 0.0
O1212 O 0.48947 0.70026 0.91909 0.0
C1213 C 0.45191 0.66055 0.87469 0.0
C1214 C 0.4189 0.76336 0.90523 0.0
C1215 C 0.45176 0.79763 0.87957 0.0
N1216 N 0.46533 0.74574 0.88446 0.0
C1217 C 0.43919 0.74023 0.8994 0.0
C1218 C 0.47154 0.77396 0.87422 0.0
C1219 C 0.42532 0.79226 0.8953 0.0
C1220 C 0.53023 0.62754 0.82526 0.0
N1221 N 0.51145 0.62052 0.84835 0.0
C1222 C 0.52731 0.61342 0.79747 0.0
C1223 C 0.50482 0.5921 0.79335 0.0
C1224 C 0.48556 0.58521 0.81694 0.0
C1225 C 0.48922 0.59974 0.84443 0.0
C1226 C 0.53239 0.55379 0.91765 0.0
C1227 C 0.49667 0.60184 0.93387 0.0
C1228 C 0.53053 0.57928 0.89969 0.0
N1229 N 0.51316 0.60307 0.9081 0.0
C1230 C 0.4984 0.57692 0.95269 0.0
C1231 C 0.51663 0.55288 0.9446 0.0
C1232 C 0.50465 0.68297 0.9361 0.0
C1233 C 0.57598 0.75623 0.87481 0.0
C1234 C 0.52749 0.7526 0.91328 0.0
C1235 C 0.55236 0.76984 0.92139 0.0
C1236 C 0.57675 0.77161 0.90199 0.0
N1237 N 0.52696 0.73741 0.88664 0.0
C1238 C 0.55076 0.73915 0.86748 0.0
Co1239 Co 0.65307 0.51003 0.1127 0.0
Co1240 Co 0.72424 0.48511 0.12707 0.0
O1241 O 0.69087 0.51289 0.1352 0.0
C1242 C 0.66204 0.57704 0.12351 0.0
O1243 O 0.68989 0.57412 0.13253 0.0
C1244 C 0.72267 0.48951 0.1947 0.0
O1245 O 0.69325 0.48912 0.19464 0.0
O1246 O 0.697 0.45044 0.13599 0.0
O1247 O 0.65635 0.46545 0.11035 0.0
H1248 H 0.77071 0.3904 0.0874 0.0
H1249 H 0.65435 0.54065 0.17202 0.0
O1250 O 0.6469 0.55461 0.11443 0.0
H1251 H 0.57662 0.46263 0.18081 0.0
H1252 H 0.54897 0.54173 0.08457 0.0
H1253 H 0.63445 0.47709 0.05789 0.0
H1254 H 0.6048 0.46887 0.13378 0.0
H1255 H 0.5929 0.53883 0.11734 0.0
O1256 O 0.73736 0.48734 0.17034 0.0
H1257 H 0.72967 0.42627 0.09651 0.0
H1258 H 0.78888 0.48317 0.14471 0.0
H1259 H 0.59087 0.47982 0.02386 0.0
H1260 H 0.62617 0.53576 0.21918 0.0
H1261 H 0.54811 0.51309 0.03647 0.0
H1262 H 0.58701 0.49643 0.22387 0.0
O1263 O 0.67566 0.51415 0.0746 0.0
H1264 H 0.76929 0.58657 0.14648 0.0
H1265 H 0.76631 0.50052 0.07717 0.0
H1266 H 0.79784 0.54416 0.06498 0.0
H1267 H 0.79959 0.58758 0.09981 0.0
H1268 H 0.73759 0.54269 0.15748 0.0
H1269 H 0.83051 0.44774 0.13652 0.0
H1270 H 0.82162 0.40106 0.10746 0.0
O1271 O 0.71386 0.48271 0.08291 0.0
C1272 C 0.6711 0.44553 0.12459 0.0
C1273 C 0.77497 0.41084 0.09977 0.0
C1274 C 0.80851 0.44299 0.12738 0.0
N1275 N 0.75704 0.4573 0.12019 0.0
C1276 C 0.75185 0.43138 0.10474 0.0
C1277 C 0.78484 0.46301 0.13188 0.0
C1278 C 0.8035 0.4168 0.1111 0.0
C1279 C 0.63701 0.5239 0.17363 0.0
N1280 N 0.63096 0.50547 0.14993 0.0
C1281 C 0.62126 0.52104 0.20051 0.0
C1282 C 0.59935 0.49893 0.20315 0.0
C1283 C 0.59351 0.47996 0.17901 0.0
C1284 C 0.60963 0.48357 0.15245 0.0
C1285 C 0.56756 0.5276 0.07826 0.0
C1286 C 0.61564 0.49116 0.06384 0.0
C1287 C 0.5925 0.52563 0.09701 0.0
N1288 N 0.61633 0.50791 0.08949 0.0
C1289 C 0.59115 0.49282 0.04435 0.0
C1290 C 0.56715 0.51155 0.05144 0.0
C1291 C 0.6974 0.49812 0.06515 0.0
C1292 C 0.76876 0.56778 0.13113 0.0
C1293 C 0.76668 0.51941 0.09234 0.0
C1294 C 0.78472 0.54402 0.08537 0.0
C1295 C 0.78571 0.56835 0.10493 0.0
N1296 N 0.75002 0.51904 0.11806 0.0
C1297 C 0.75094 0.54281 0.13733 0.0
Co1298 Co 0.50335 0.64172 0.1134 0.0
Co1299 Co 0.52754 0.71286 0.12533 0.0
O1300 O 0.50026 0.67962 0.13559 0.0
C1301 C 0.43719 0.64603 0.13154 0.0
O1302 O 0.44062 0.67095 0.14671 0.0
C1303 C 0.50867 0.72416 0.19076 0.0
O1304 O 0.49107 0.7006 0.19112 0.0
O1305 O 0.56181 0.6862 0.13715 0.0
O1306 O 0.54786 0.6468 0.10904 0.0
H1307 H 0.62457 0.75494 0.08595 0.0
H1308 H 0.47991 0.64408 0.17626 0.0
O1309 O 0.45889 0.63417 0.11718 0.0
H1310 H 0.55714 0.56518 0.17659 0.0
H1311 H 0.47146 0.53794 0.08447 0.0
H1312 H 0.53457 0.62437 0.05729 0.0
H1313 H 0.54563 0.59295 0.13035 0.0
H1314 H 0.47609 0.58085 0.11849 0.0
O1315 O 0.52467 0.73001 0.16762 0.0
H1316 H 0.58779 0.71544 0.09693 0.0
H1317 H 0.52903 0.77941 0.13526 0.0
H1318 H 0.53011 0.58193 0.02211 0.0
H1319 H 0.4903 0.61666 0.22289 0.0
H1320 H 0.49754 0.5388 0.03503 0.0
H1321 H 0.52924 0.57681 0.22333 0.0
O1322 O 0.49622 0.66429 0.07581 0.0
H1323 H 0.4203 0.7492 0.12776 0.0
H1324 H 0.51656 0.75432 0.07395 0.0
H1325 H 0.47311 0.78221 0.05458 0.0
H1326 H 0.42446 0.77982 0.08149 0.0
H1327 H 0.46443 0.7222 0.14663 0.0
H1328 H 0.5653 0.81966 0.12534 0.0
H1329 H 0.61349 0.80762 0.10018 0.0
O1330 O 0.53117 0.69914 0.08242 0.0
C1331 C 0.56735 0.66092 0.12461 0.0
C1332 C 0.60358 0.76055 0.09676 0.0
C1333 C 0.57038 0.79682 0.11891 0.0
N1334 N 0.55585 0.74497 0.11635 0.0
C1335 C 0.58253 0.73821 0.10291 0.0
C1336 C 0.5499 0.77386 0.12465 0.0
C1337 C 0.59739 0.79007 0.10479 0.0
C1338 C 0.49628 0.62643 0.17596 0.0
N1339 N 0.51124 0.61957 0.1502 0.0
C1340 C 0.50234 0.6111 0.20259 0.0
C1341 C 0.52423 0.5888 0.20284 0.0
C1342 C 0.53984 0.58223 0.17664 0.0
C1343 C 0.5331 0.598 0.15045 0.0
C1344 C 0.4853 0.55675 0.07814 0.0
C1345 C 0.52093 0.60532 0.06341 0.0
C1346 C 0.48824 0.58108 0.09754 0.0
N1347 N 0.50543 0.60523 0.08982 0.0
C1348 C 0.51828 0.58148 0.04328 0.0
C1349 C 0.49995 0.55726 0.05055 0.0
C1350 C 0.51301 0.68495 0.06548 0.0
C1351 C 0.44145 0.75069 0.11597 0.0
C1352 C 0.49575 0.75362 0.08631 0.0
C1353 C 0.47109 0.7693 0.07501 0.0
C1354 C 0.44379 0.76785 0.09003 0.0
N1355 N 0.49356 0.73725 0.11219 0.0
C1356 C 0.4666 0.73528 0.12657 0.0
Co1357 Co 0.51633 0.35868 0.10931 0.0
Co1358 Co 0.49246 0.28774 0.12282 0.0
O1359 O 0.51931 0.32152 0.13246 0.0
C1360 C 0.5826 0.35426 0.12734 0.0
O1361 O 0.57917 0.3287 0.14135 0.0
C1362 C 0.50755 0.28137 0.18966 0.0
O1363 O 0.52073 0.30762 0.19033 0.0
O1364 O 0.45768 0.31423 0.13316 0.0
O1365 O 0.47185 0.35317 0.10454 0.0
H1366 H 0.39728 0.24163 0.08316 0.0
H1367 H 0.54101 0.35948 0.17163 0.0
O1368 O 0.56082 0.36665 0.11349 0.0
H1369 H 0.46111 0.43569 0.17061 0.0
H1370 H 0.54691 0.46238 0.07974 0.0
H1371 H 0.48514 0.37495 0.05264 0.0
H1372 H 0.47272 0.40668 0.12515 0.0
H1373 H 0.54314 0.41961 0.1137 0.0
O1374 O 0.49492 0.27198 0.16566 0.0
H1375 H 0.43298 0.28258 0.09293 0.0
H1376 H 0.49205 0.22218 0.13676 0.0
H1377 H 0.48846 0.41752 0.01758 0.0
H1378 H 0.5306 0.38825 0.21751 0.0
H1379 H 0.52085 0.4611 0.03024 0.0
H1380 H 0.49028 0.42671 0.21725 0.0
O1381 O 0.52385 0.33517 0.0723 0.0
H1382 H 0.59948 0.25225 0.13022 0.0
H1383 H 0.50533 0.24535 0.0726 0.0
H1384 H 0.54979 0.21757 0.05539 0.0
H1385 H 0.59739 0.22092 0.08423 0.0
H1386 H 0.55424 0.27911 0.14694 0.0
H1387 H 0.45693 0.18055 0.12767 0.0
H1388 H 0.4092 0.19007 0.10048 0.0
O1389 O 0.48906 0.30026 0.07929 0.0
C1390 C 0.45222 0.33921 0.12001 0.0
C1391 C 0.41813 0.23711 0.09479 0.0
C1392 C 0.45158 0.20286 0.11977 0.0
N1393 N 0.46502 0.25478 0.11466 0.0
C1394 C 0.43852 0.26025 0.10028 0.0
C1395 C 0.47142 0.22656 0.12482 0.0
C1396 C 0.42481 0.20822 0.10455 0.0
C1397 C 0.52393 0.37645 0.17112 0.0
N1398 N 0.50812 0.38172 0.14546 0.0
C1399 C 0.5179 0.39257 0.19727 0.0
C1400 C 0.49525 0.4141 0.19713 0.0
C1401 C 0.4789 0.41917 0.17099 0.0
C1402 C 0.48564 0.40264 0.14528 0.0
C1403 C 0.53347 0.44335 0.0733 0.0
C1404 C 0.49855 0.3942 0.05867 0.0
C1405 C 0.53101 0.41905 0.0927 0.0
N1406 N 0.51419 0.39462 0.08503 0.0
C1407 C 0.50059 0.41812 0.03859 0.0
C1408 C 0.51869 0.4426 0.04575 0.0
C1409 C 0.507 0.31441 0.06209 0.0
C1410 C 0.57886 0.25049 0.1175 0.0
C1411 C 0.52575 0.24658 0.08563 0.0
C1412 C 0.55095 0.23093 0.07562 0.0
C1413 C 0.57766 0.23289 0.09173 0.0
N1414 N 0.52692 0.26349 0.11123 0.0
C1415 C 0.5532 0.26587 0.12677 0.0
C1416 C 0.14489 0.40096 0.35737 0.0
C1417 C 0.11854 0.41519 0.34646 0.0
C1418 C 0.08719 0.37859 0.37321 0.0
C1419 C 0.11349 0.36562 0.38553 0.0
N1420 N 0.16667 0.35811 0.38324 0.0
N1421 N 0.06515 0.41347 0.33778 0.0
C1422 C 0.14213 0.37462 0.37522 0.0
C1423 C 0.08988 0.40238 0.35214 0.0
N1424 N 0.1723 0.41389 0.3528 0.0
N1425 N 0.05969 0.3698 0.3835 0.0
H1426 H 0.06614 0.43166 0.32321 0.0
H1427 H 0.04411 0.40338 0.33843 0.0
H1428 H 0.05682 0.35168 0.39794 0.0
H1429 H 0.03981 0.38112 0.37882 0.0
H1430 H 0.19188 0.40679 0.36338 0.0
H1431 H 0.17531 0.43301 0.33974 0.0
H1432 H 0.18811 0.36182 0.37482 0.0
H1433 H 0.16479 0.33876 0.39627 0.0
C1434 C 0.62154 0.09244 0.38774 0.0
C1435 C 0.63317 0.11851 0.40168 0.0
C1436 C 0.60035 0.1503 0.37094 0.0
C1437 C 0.58751 0.12415 0.35806 0.0
N1438 N 0.5905 0.07111 0.3484 0.0
N1439 N 0.64026 0.17182 0.4014 0.0
C1440 C 0.59994 0.09548 0.36441 0.0
C1441 C 0.62483 0.14734 0.39134 0.0
N1442 N 0.6296 0.06479 0.39825 0.0
N1443 N 0.58772 0.17769 0.36553 0.0
H1444 H 0.65835 0.16994 0.41619 0.0
H1445 H 0.63709 0.19339 0.3931 0.0
H1446 H 0.57023 0.18083 0.35034 0.0
H1447 H 0.59341 0.19706 0.37725 0.0
H1448 H 0.61908 0.04494 0.39194 0.0
H1449 H 0.64611 0.06175 0.41457 0.0
H1450 H 0.60043 0.05003 0.34978 0.0
H1451 H 0.57408 0.07256 0.33183 0.0
C1452 C 0.86624 0.58999 0.42024 0.0
C1453 C 0.86443 0.62038 0.41292 0.0
C1454 C 0.86592 0.60402 0.35975 0.0
C1455 C 0.87517 0.57467 0.36933 0.0
N1456 N 0.90387 0.55441 0.41079 0.0
N1457 N 0.86483 0.65723 0.37318 0.0
C1458 C 0.88088 0.57134 0.40032 0.0
C1459 C 0.86458 0.62792 0.38177 0.0
N1460 N 0.85511 0.57886 0.44622 0.0
N1461 N 0.85949 0.60968 0.33044 0.0
H1462 H 0.864 0.6748 0.38855 0.0
H1463 H 0.86792 0.6639 0.35103 0.0
H1464 H 0.86277 0.59417 0.3134 0.0
H1465 H 0.84985 0.62974 0.32334 0.0
H1466 H 0.8569 0.55611 0.45154 0.0
H1467 H 0.84222 0.59201 0.46048 0.0
H1468 H 0.92117 0.54803 0.39652 0.0
H1469 H 0.90803 0.55215 0.4337 0.0
C1470 C 0.37414 0.8969 0.3882 0.0
C1471 C 0.36876 0.86872 0.40169 0.0
C1472 C 0.40891 0.84614 0.37135 0.0
C1473 C 0.41564 0.87491 0.35946 0.0
N1474 N 0.39819 0.92463 0.34847 0.0
N1475 N 0.37526 0.81516 0.40113 0.0
C1476 C 0.39617 0.89935 0.3654 0.0
C1477 C 0.38408 0.84279 0.39134 0.0
N1478 N 0.3588 0.92157 0.39798 0.0
N1479 N 0.42727 0.82245 0.36489 0.0
H1480 H 0.35737 0.81218 0.41583 0.0
H1481 H 0.3838 0.79508 0.39292 0.0
H1482 H 0.44502 0.82393 0.34978 0.0
H1483 H 0.42597 0.80169 0.3754 0.0
H1484 H 0.36448 0.94346 0.39224 0.0
H1485 H 0.34096 0.92012 0.41303 0.0
H1486 H 0.38317 0.94246 0.34966 0.0
H1487 H 0.41315 0.9261 0.33081 0.0
C1488 C 0.09224 0.6111 0.65194 0.0
C1489 C 0.12006 0.59706 0.65874 0.0
C1490 C 0.14516 0.63146 0.62375 0.0
C1491 C 0.11679 0.64057 0.61264 0.0
N1492 N 0.06297 0.64012 0.61631 0.0
N1493 N 0.17364 0.59437 0.65152 0.0
C1494 C 0.09021 0.63118 0.62721 0.0
C1495 C 0.14687 0.60793 0.64535 0.0
N1496 N 0.06773 0.60478 0.66912 0.0
N1497 N 0.1704 0.64537 0.61345 0.0
H1498 H 0.17605 0.57798 0.66791 0.0
H1499 H 0.1932 0.59833 0.63943 0.0
H1500 H 0.16942 0.66301 0.59811 0.0
H1501 H 0.19175 0.64161 0.62216 0.0
H1502 H 0.04723 0.61578 0.66709 0.0
H1503 H 0.06893 0.59031 0.68741 0.0
H1504 H 0.04262 0.63116 0.62338 0.0
H1505 H 0.06081 0.65567 0.59898 0.0
C1506 C 0.37771 0.15293 0.61979 0.0
C1507 C 0.36809 0.12428 0.60969 0.0
C1508 C 0.40214 0.10036 0.64575 0.0
C1509 C 0.41559 0.12864 0.65169 0.0
N1510 N 0.41711 0.18204 0.6436 0.0
N1511 N 0.36968 0.07056 0.61365 0.0
C1512 C 0.40318 0.15511 0.63909 0.0
C1513 C 0.3796 0.09795 0.62324 0.0
N1514 N 0.36288 0.17808 0.6105 0.0
N1515 N 0.41121 0.0758 0.66165 0.0
H1516 H 0.35179 0.06815 0.59871 0.0
H1517 H 0.37972 0.05033 0.61951 0.0
H1518 H 0.42788 0.07696 0.67798 0.0
H1519 H 0.40077 0.05497 0.66054 0.0
H1520 H 0.36701 0.19936 0.61914 0.0
H1521 H 0.3444 0.17737 0.59621 0.0
H1522 H 0.41178 0.20144 0.63177 0.0
H1523 H 0.43543 0.18471 0.65788 0.0
C1524 C 0.89736 0.39914 0.64434 0.0
C1525 C 0.87224 0.41781 0.64974 0.0
C1526 C 0.84196 0.3856 0.61656 0.0
C1527 C 0.86861 0.37124 0.60665 0.0
N1528 N 0.92191 0.36371 0.61126 0.0
N1529 N 0.81969 0.42816 0.6423 0.0
C1530 C 0.89635 0.37765 0.62082 0.0
C1531 C 0.84405 0.41043 0.63672 0.0
N1532 N 0.92175 0.40124 0.66263 0.0
N1533 N 0.81477 0.37579 0.60634 0.0
H1534 H 0.82017 0.44576 0.65763 0.0
H1535 H 0.79947 0.42655 0.63073 0.0
H1536 H 0.81258 0.35788 0.5915 0.0
H1537 H 0.7943 0.38349 0.61448 0.0
H1538 H 0.94015 0.38689 0.66153 0.0
H1539 H 0.92162 0.41509 0.68136 0.0
H1540 H 0.94336 0.37018 0.61794 0.0
H1541 H 0.92169 0.34646 0.59546 0.0
C1542 C 0.59491 0.8497 0.64236 0.0
C1543 C 0.58824 0.87828 0.65477 0.0
C1544 C 0.62871 0.90099 0.62528 0.0
C1545 C 0.63405 0.87298 0.61136 0.0
N1546 N 0.62816 0.81936 0.61148 0.0
N1547 N 0.60569 0.9278 0.66639 0.0
C1548 C 0.61927 0.8468 0.62177 0.0
C1549 C 0.60737 0.90291 0.6488 0.0
N1550 N 0.5769 0.8258 0.64895 0.0
N1551 N 0.64338 0.92597 0.61531 0.0
H1552 H 0.59154 0.92859 0.68481 0.0
H1553 H 0.62044 0.94583 0.66498 0.0
H1554 H 0.66058 0.92502 0.59949 0.0
H1555 H 0.63765 0.94769 0.62168 0.0
H1556 H 0.57813 0.80516 0.63816 0.0
H1557 H 0.5595 0.82698 0.66449 0.0
H1558 H 0.62002 0.79911 0.61967 0.0
H1559 H 0.64574 0.81671 0.59633 0.0
C1560 C 0.36467 0.15786 0.41341 0.0
C1561 C 0.35417 0.12866 0.42066 0.0
C1562 C 0.38269 0.10803 0.37821 0.0
C1563 C 0.39723 0.13592 0.37466 0.0
N1564 N 0.40221 0.18798 0.38786 0.0
N1565 N 0.35342 0.07562 0.41017 0.0
C1566 C 0.38775 0.16122 0.39148 0.0
C1567 C 0.36291 0.10372 0.40276 0.0
N1568 N 0.35332 0.18223 0.42812 0.0
N1569 N 0.38809 0.08563 0.358 0.0
H1570 H 0.33811 0.07185 0.42724 0.0
H1571 H 0.3619 0.05606 0.40069 0.0
H1572 H 0.40241 0.08852 0.33972 0.0
H1573 H 0.3764 0.06544 0.35756 0.0
H1574 H 0.35788 0.20428 0.42205 0.0
H1575 H 0.33752 0.1806 0.44521 0.0
H1576 H 0.39963 0.20622 0.40217 0.0
H1577 H 0.41791 0.19159 0.37098 0.0
C1578 C 0.84372 0.35336 0.40241 0.0
C1579 C 0.8713 0.3446 0.41594 0.0
C1580 C 0.8992 0.36912 0.37521 0.0
C1581 C 0.87215 0.38227 0.36513 0.0
N1582 N 0.8184 0.38433 0.3651 0.0
N1583 N 0.92512 0.34015 0.41348 0.0
C1584 C 0.84423 0.37293 0.37707 0.0
C1585 C 0.899 0.35087 0.40142 0.0
N1586 N 0.81719 0.34371 0.41431 0.0
N1587 N 0.925 0.37473 0.35968 0.0
H1588 H 0.92546 0.32527 0.43148 0.0
H1589 H 0.94645 0.34607 0.40621 0.0
H1590 H 0.92509 0.38778 0.34024 0.0
H1591 H 0.94569 0.36507 0.36444 0.0
H1592 H 0.79628 0.34746 0.40467 0.0
H1593 H 0.81595 0.33023 0.43328 0.0
H1594 H 0.79721 0.38185 0.37446 0.0
H1595 H 0.81833 0.39673 0.3453 0.0
C1596 C 0.62209 0.89757 0.38415 0.0
C1597 C 0.60508 0.87101 0.38051 0.0
C1598 C 0.63759 0.84506 0.41674 0.0
C1599 C 0.65305 0.87236 0.42194 0.0
N1600 N 0.66861 0.91945 0.40161 0.0
N1601 N 0.60133 0.81744 0.38674 0.0
C1602 C 0.6479 0.8971 0.40282 0.0
C1603 C 0.61457 0.84396 0.39447 0.0
N1604 N 0.61325 0.92341 0.37025 0.0
N1605 N 0.64401 0.82068 0.4341 0.0
H1606 H 0.58449 0.81594 0.37062 0.0
H1607 H 0.60861 0.79661 0.39428 0.0
H1608 H 0.66176 0.82052 0.44932 0.0
H1609 H 0.63136 0.80109 0.4343 0.0
H1610 H 0.6226 0.94428 0.37497 0.0
H1611 H 0.59547 0.92418 0.35501 0.0
H1612 H 0.66757 0.93732 0.38663 0.0
H1613 H 0.68883 0.91764 0.41311 0.0
C1614 C 0.10364 0.63757 0.4056 0.0
C1615 C 0.13024 0.64674 0.42086 0.0
C1616 C 0.15994 0.61375 0.38795 0.0
C1617 C 0.13317 0.60445 0.37328 0.0
N1618 N 0.08132 0.61369 0.36202 0.0
N1619 N 0.18442 0.64837 0.42213 0.0
C1620 C 0.10563 0.61855 0.38012 0.0
C1621 C 0.15865 0.6367 0.41031 0.0
N1622 N 0.07621 0.64593 0.41629 0.0
N1623 N 0.18629 0.59924 0.3821 0.0
H1624 H 0.18468 0.66402 0.43941 0.0
H1625 H 0.20562 0.6444 0.41321 0.0
H1626 H 0.18855 0.58335 0.36517 0.0
H1627 H 0.2056 0.6017 0.39503 0.0
H1628 H 0.05603 0.63682 0.40883 0.0
H1629 H 0.07374 0.66062 0.43414 0.0
H1630 H 0.06121 0.62541 0.36396 0.0
H1631 H 0.08234 0.60003 0.34304 0.0
C1632 C 0.36405 0.84303 0.60204 0.0
C1633 C 0.35228 0.87062 0.59151 0.0
C1634 C 0.38338 0.89782 0.62812 0.0
C1635 C 0.3992 0.871 0.63413 0.0
N1636 N 0.40436 0.81748 0.62818 0.0
N1637 N 0.34864 0.92427 0.59575 0.0
C1638 C 0.38903 0.84329 0.62205 0.0
C1639 C 0.36098 0.89798 0.6054 0.0
N1640 N 0.35173 0.81666 0.59248 0.0
N1641 N 0.3898 0.92303 0.64435 0.0
H1642 H 0.33091 0.92472 0.58055 0.0
H1643 H 0.35649 0.94541 0.60176 0.0
H1644 H 0.40595 0.92329 0.66133 0.0
H1645 H 0.37754 0.94284 0.64298 0.0
H1646 H 0.35745 0.7958 0.6012 0.0
H1647 H 0.33362 0.81572 0.57777 0.0
H1648 H 0.40107 0.79741 0.61673 0.0
H1649 H 0.42146 0.8163 0.64403 0.0
C1650 C 0.13211 0.38252 0.63032 0.0
C1651 C 0.13257 0.4136 0.62251 0.0
C1652 C 0.11369 0.40094 0.57432 0.0
C1653 C 0.11925 0.36994 0.5776 0.0
N1654 N 0.13532 0.33097 0.61231 0.0
N1655 N 0.14074 0.44638 0.58037 0.0
C1656 C 0.12939 0.36038 0.60666 0.0
C1657 C 0.12943 0.42076 0.59219 0.0
N1658 N 0.13287 0.37413 0.65968 0.0
N1659 N 0.09061 0.41165 0.5576 0.0
H1660 H 0.1546 0.46041 0.59283 0.0
H1661 H 0.13804 0.45164 0.55771 0.0
H1662 H 0.08662 0.43462 0.55556 0.0
H1663 H 0.07323 0.39757 0.55094 0.0
H1664 H 0.12964 0.35208 0.66662 0.0
H1665 H 0.13465 0.38959 0.6771 0.0
H1666 H 0.14568 0.32381 0.63201 0.0
H1667 H 0.13069 0.31388 0.5972 0.0
C1668 C 0.62196 0.10503 0.63231 0.0
C1669 C 0.6066 0.13231 0.63754 0.0
C1670 C 0.63668 0.15697 0.59861 0.0
C1671 C 0.65058 0.12907 0.59208 0.0
N1672 N 0.66574 0.08115 0.61101 0.0
N1673 N 0.60507 0.18598 0.6323 0.0
C1674 C 0.64605 0.10445 0.61154 0.0
C1675 C 0.61607 0.15896 0.623 0.0
N1676 N 0.61299 0.07949 0.64661 0.0
N1677 N 0.64205 0.18112 0.5806 0.0
H1678 H 0.59034 0.18797 0.6503 0.0
H1679 H 0.61258 0.20652 0.62422 0.0
H1680 H 0.65789 0.18068 0.56348 0.0
H1681 H 0.63 0.20107 0.58163 0.0
H1682 H 0.62084 0.05823 0.64096 0.0
H1683 H 0.59656 0.07951 0.66325 0.0
H1684 H 0.66512 0.06328 0.626 0.0
H1685 H 0.68503 0.08208 0.59798 0.0
C1686 C 0.85343 0.61863 0.62382 0.0
C1687 C 0.88149 0.60871 0.63518 0.0
C1688 C 0.90547 0.65253 0.61265 0.0
C1689 C 0.87945 0.65787 0.59528 0.0
N1690 N 0.82696 0.64862 0.58678 0.0
N1691 N 0.93484 0.61642 0.64055 0.0
C1692 C 0.85267 0.6421 0.60208 0.0
C1693 C 0.90765 0.62602 0.63012 0.0
N1694 N 0.82767 0.60573 0.63415 0.0
N1695 N 0.92766 0.67346 0.61304 0.0
H1696 H 0.93738 0.59729 0.65373 0.0
H1697 H 0.95507 0.62638 0.63445 0.0
H1698 H 0.92483 0.69402 0.60236 0.0
H1699 H 0.9465 0.67212 0.62681 0.0
H1700 H 0.80625 0.61301 0.62838 0.0
H1701 H 0.82789 0.58957 0.65104 0.0
H1702 H 0.80752 0.63576 0.5879 0.0
H1703 H 0.82546 0.6667 0.57213 0.0
C1704 C 0.3842 0.38363 0.14658 0.0
C1705 C 0.37386 0.39442 0.11847 0.0
C1706 C 0.40752 0.35932 0.09273 0.0
C1707 C 0.42167 0.35272 0.12053 0.0
N1708 N 0.42443 0.35937 0.17413 0.0
N1709 N 0.37404 0.39193 0.06465 0.0
C1710 C 0.40982 0.36447 0.14764 0.0
C1711 C 0.38473 0.38166 0.0915 0.0
N1712 N 0.36995 0.39221 0.17227 0.0
N1713 N 0.41616 0.34427 0.06747 0.0
H1714 H 0.35599 0.40679 0.06315 0.0
H1715 H 0.38354 0.38672 0.04401 0.0
H1716 H 0.4331 0.32818 0.06763 0.0
H1717 H 0.40517 0.34588 0.04695 0.0
H1718 H 0.37463 0.38309 0.19323 0.0
H1719 H 0.35138 0.40639 0.17227 0.0
H1720 H 0.41944 0.37058 0.19397 0.0
H1721 H 0.44301 0.34531 0.176 0.0
C1722 C 0.40576 0.63678 0.89681 0.0
C1723 C 0.42147 0.64701 0.87099 0.0
C1724 C 0.38807 0.61689 0.83894 0.0
C1725 C 0.37356 0.60582 0.86495 0.0
N1726 N 0.362 0.6115 0.91711 0.0
N1727 N 0.42316 0.65232 0.81713 0.0
C1728 C 0.3802 0.61809 0.89337 0.0
C1729 C 0.41089 0.63918 0.8419 0.0
N1730 N 0.41622 0.6437 0.92474 0.0
N1731 N 0.38146 0.60463 0.81164 0.0
H1732 H 0.44059 0.66778 0.8182 0.0
H1733 H 0.41454 0.64977 0.79559 0.0
H1734 H 0.36388 0.58956 0.8085 0.0
H1735 H 0.39403 0.60834 0.79237 0.0
H1736 H 0.40832 0.6339 0.94437 0.0
H1737 H 0.43421 0.65808 0.92814 0.0
H1738 H 0.36385 0.62167 0.93804 0.0
H1739 H 0.34306 0.59789 0.91489 0.0
C1740 C 0.38688 0.3784 0.89133 0.0
C1741 C 0.4034 0.37375 0.86467 0.0
C1742 C 0.37122 0.40986 0.83816 0.0
C1743 C 0.35608 0.41594 0.86546 0.0
N1744 N 0.34127 0.39746 0.9136 0.0
N1745 N 0.40635 0.37824 0.81094 0.0
C1746 C 0.36139 0.39748 0.89071 0.0
C1747 C 0.39374 0.38708 0.83739 0.0
N1748 N 0.39599 0.36519 0.91744 0.0
N1749 N 0.36511 0.42692 0.81348 0.0
H1750 H 0.42263 0.36153 0.80975 0.0
H1751 H 0.39889 0.38535 0.79001 0.0
H1752 H 0.34792 0.44276 0.81311 0.0
H1753 H 0.3777 0.42637 0.79387 0.0
H1754 H 0.38716 0.37071 0.93833 0.0
H1755 H 0.41348 0.34965 0.91836 0.0
H1756 H 0.34235 0.38296 0.93185 0.0
H1757 H 0.32146 0.40963 0.91213 0.0
C1758 C 0.63354 0.38441 0.89809 0.0
C1759 C 0.63992 0.40022 0.87135 0.0
C1760 C 0.60156 0.37087 0.84461 0.0
C1761 C 0.59401 0.35637 0.87191 0.0
N1762 N 0.61071 0.34075 0.92055 0.0
N1763 N 0.63635 0.40289 0.8175 0.0
C1764 C 0.61249 0.36053 0.89743 0.0
C1765 C 0.62616 0.3914 0.84397 0.0
N1766 N 0.64705 0.39274 0.92432 0.0
N1767 N 0.5843 0.36612 0.81974 0.0
H1768 H 0.65437 0.41769 0.81633 0.0
H1769 H 0.62894 0.39573 0.79656 0.0
H1770 H 0.56704 0.35038 0.81921 0.0
H1771 H 0.58602 0.37861 0.80013 0.0
H1772 H 0.64047 0.38471 0.94522 0.0
H1773 H 0.66401 0.40885 0.92527 0.0
H1774 H 0.62515 0.34085 0.93892 0.0
H1775 H 0.59693 0.32204 0.91928 0.0
C1776 C 0.64946 0.60364 0.90508 0.0
C1777 C 0.65681 0.58982 0.87736 0.0
C1778 C 0.62458 0.62612 0.85122 0.0
C1779 C 0.613 0.63556 0.87923 0.0
N1780 N 0.61455 0.63457 0.93306 0.0
N1781 N 0.65117 0.58756 0.8236 0.0
C1782 C 0.6259 0.62507 0.90625 0.0
C1783 C 0.64493 0.60146 0.85016 0.0
N1784 N 0.665 0.59591 0.93029 0.0
N1785 N 0.61566 0.64046 0.82568 0.0
H1786 H 0.66635 0.56992 0.82177 0.0
H1787 H 0.64009 0.59234 0.80361 0.0
H1788 H 0.60087 0.65859 0.82606 0.0
H1789 H 0.62498 0.6364 0.80469 0.0
H1790 H 0.66274 0.60672 0.95084 0.0
H1791 H 0.68224 0.5802 0.9298 0.0
H1792 H 0.6201 0.62504 0.95363 0.0
H1793 H 0.59838 0.65141 0.93453 0.0
C1794 C 0.63562 0.61874 0.09737 0.0
C1795 C 0.64623 0.60633 0.1246 0.0
C1796 C 0.60973 0.63626 0.153 0.0
C1797 C 0.59793 0.64746 0.1256 0.0
N1798 N 0.60352 0.65482 0.07239 0.0
N1799 N 0.64953 0.60891 0.17837 0.0
C1800 C 0.61239 0.64059 0.09802 0.0
C1801 C 0.63549 0.61726 0.15246 0.0
N1802 N 0.64694 0.60843 0.07082 0.0
N1803 N 0.5949 0.64168 0.17926 0.0
H1804 H 0.66822 0.59488 0.17863 0.0
H1805 H 0.64455 0.61803 0.19926 0.0
H1806 H 0.57618 0.65559 0.1807 0.0
H1807 H 0.59989 0.63093 0.19935 0.0
H1808 H 0.63774 0.61324 0.04993 0.0
H1809 H 0.66534 0.59398 0.06984 0.0
H1810 H 0.61471 0.65321 0.05201 0.0
H1811 H 0.58595 0.67014 0.07203 0.0
C1812 C 0.37358 0.60109 0.09991 0.0
C1813 C 0.36442 0.58417 0.12537 0.0
C1814 C 0.3983 0.61395 0.15717 0.0
C1815 C 0.40806 0.62988 0.13139 0.0
N1816 N 0.39908 0.64514 0.08063 0.0
N1817 N 0.36328 0.57851 0.17916 0.0
C1818 C 0.39356 0.6256 0.10357 0.0
C1819 C 0.37492 0.59223 0.15438 0.0
N1820 N 0.36433 0.59278 0.07195 0.0
N1821 N 0.41274 0.61814 0.18388 0.0
H1822 H 0.34735 0.56148 0.17803 0.0
H1823 H 0.36773 0.58539 0.20101 0.0
H1824 H 0.42864 0.63491 0.18719 0.0
H1825 H 0.40996 0.60433 0.20246 0.0
H1826 H 0.37317 0.6015 0.05221 0.0
H1827 H 0.34899 0.57565 0.06852 0.0
H1828 H 0.3873 0.64507 0.06045 0.0
H1829 H 0.41351 0.66342 0.08301 0.0
C1830 C 0.64645 0.40452 0.15459 0.0
C1831 C 0.65661 0.41542 0.12647 0.0
C1832 C 0.62606 0.3772 0.10082 0.0
C1833 C 0.61177 0.37047 0.12828 0.0
N1834 N 0.6083 0.37699 0.18184 0.0
N1835 N 0.65682 0.41171 0.07256 0.0
C1836 C 0.62242 0.38337 0.15545 0.0
C1837 C 0.64695 0.40123 0.09954 0.0
N1838 N 0.65925 0.41482 0.18047 0.0
N1839 N 0.61959 0.36037 0.07601 0.0
H1840 H 0.67326 0.42815 0.07092 0.0
H1841 H 0.6478 0.40533 0.05199 0.0
H1842 H 0.60456 0.34244 0.07657 0.0
H1843 H 0.63103 0.3622 0.05578 0.0
H1844 H 0.65497 0.4057 0.2015 0.0
H1845 H 0.67625 0.43079 0.18085 0.0
H1846 H 0.61178 0.3889 0.20161 0.0
H1847 H 0.59192 0.36051 0.18383 0.0
C1848 C 0.01167 0.32942 0.52357 0.0
C1849 C 0.02667 0.32378 0.49606 0.0
C1850 C 0.98032 0.30173 0.47556 0.0
C1851 C 0.96462 0.3103 0.50203 0.0
N1852 N 0.96882 0.3188 0.55509 0.0
N1853 N 0.0252 0.30597 0.44506 0.0
C1854 C 0.98135 0.32035 0.52718 0.0
C1855 C 0.01089 0.31053 0.47175 0.0
N1856 N 0.02604 0.34469 0.54596 0.0
N1857 N 0.96744 0.28228 0.45575 0.0
H1858 H 0.04805 0.30967 0.44209 0.0
H1859 H 0.01411 0.30043 0.42527 0.0
H1860 H 0.94837 0.27007 0.46097 0.0
H1861 H 0.97805 0.27398 0.43673 0.0
H1862 H 0.01524 0.35267 0.56504 0.0
H1863 H 0.04818 0.35188 0.54426 0.0
H1864 H 0.98056 0.3231 0.57482 0.0
H1865 H 0.94775 0.30928 0.55876 0.0
C1866 C 0.68731 0.01734 0.53305 0.0
C1867 C 0.68868 0.03293 0.50533 0.0
C1868 C 0.68908 0.98482 0.47888 0.0
C1869 C 0.691 0.96935 0.50668 0.0
N1870 N 0.69909 0.97179 0.56009 0.0
N1871 N 0.69785 0.0312 0.45212 0.0
C1872 C 0.69249 0.98594 0.53373 0.0
C1873 C 0.69185 0.01656 0.4783 0.0
N1874 N 0.67882 0.03203 0.55844 0.0
N1875 N 0.68235 0.96957 0.45325 0.0
H1876 H 0.70065 0.05438 0.45101 0.0
H1877 H 0.70306 0.02006 0.43226 0.0
H1878 H 0.67782 0.94674 0.45327 0.0
H1879 H 0.67777 0.9801 0.43291 0.0
H1880 H 0.67468 0.0212 0.57871 0.0
H1881 H 0.67232 0.05439 0.55814 0.0
H1882 H 0.70305 0.98332 0.58003 0.0
H1883 H 0.70365 0.94888 0.56134 0.0
C1884 C 0.98657 0.70301 0.4778 0.0
C1885 C 0.97178 0.69806 0.50544 0.0
C1886 C 0.02059 0.69876 0.53118 0.0
C1887 C 0.03553 0.69743 0.5032 0.0
N1888 N 0.03235 0.70124 0.44911 0.0
N1889 N 0.97513 0.6892 0.55875 0.0
C1890 C 0.01847 0.70085 0.47629 0.0
C1891 C 0.98887 0.69584 0.5323 0.0
N1892 N 0.97011 0.71078 0.45308 0.0
N1893 N 0.03675 0.70391 0.55673 0.0
H1894 H 0.95211 0.68639 0.56049 0.0
H1895 H 0.98678 0.68365 0.57824 0.0
H1896 H 0.05982 0.70781 0.55643 0.0
H1897 H 0.02693 0.70791 0.57753 0.0
H1898 H 0.97952 0.71819 0.43308 0.0
H1899 H 0.94677 0.71248 0.45333 0.0
H1900 H 0.02117 0.69814 0.42883 0.0
H1901 H 0.05522 0.7042 0.44663 0.0
C1902 C 0.30711 0.01271 0.53087 0.0
C1903 C 0.30996 0.02704 0.5025 0.0
C1904 C 0.30607 0.97764 0.4777 0.0
C1905 C 0.30615 0.96328 0.50608 0.0
N1906 N 0.29426 0.96818 0.55879 0.0
N1907 N 0.30171 0.02304 0.44876 0.0
C1908 C 0.303 0.98103 0.53247 0.0
C1909 C 0.30623 0.00955 0.47585 0.0
N1910 N 0.30762 0.02951 0.55654 0.0
N1911 N 0.30555 0.96056 0.45221 0.0
H1912 H 0.30133 0.04591 0.44561 0.0
H1913 H 0.29523 0.01172 0.42942 0.0
H1914 H 0.3001 0.93781 0.45232 0.0
H1915 H 0.31117 0.96861 0.43106 0.0
H1916 H 0.31142 0.02051 0.57774 0.0
H1917 H 0.30485 0.05272 0.55674 0.0
H1918 H 0.2889 0.98019 0.57805 0.0
H1919 H 0.28844 0.94585 0.56075 0.0
C1920 C 0.52771 0.9888 0.31421 0.0
C1921 C 0.50172 0.9737 0.32455 0.0
C1922 C 0.47305 0.02064 0.32146 0.0
C1923 C 0.4997 0.03642 0.31442 0.0
N1924 N 0.54754 0.03244 0.28917 0.0
N1925 N 0.45056 0.97589 0.34181 0.0
C1926 C 0.5259 0.0198 0.30667 0.0
C1927 C 0.47453 0.98974 0.32884 0.0
N1928 N 0.55421 0.97357 0.31156 0.0
N1929 N 0.44599 0.03486 0.31891 0.0
H1930 H 0.45118 0.95356 0.34838 0.0
H1931 H 0.43134 0.98713 0.34883 0.0
H1932 H 0.4441 0.05671 0.31076 0.0
H1933 H 0.42541 0.02404 0.32102 0.0
H1934 H 0.57478 0.98409 0.30817 0.0
H1935 H 0.55614 0.95052 0.31483 0.0
H1936 H 0.56638 0.02104 0.28146 0.0
H1937 H 0.54413 0.05232 0.27765 0.0
C1938 C 0.98392 0.4727 0.30804 0.0
C1939 C 0.9677 0.49651 0.32144 0.0
C1940 C 0.01294 0.52805 0.32033 0.0
C1941 C 0.02993 0.50327 0.30984 0.0
N1942 N 0.02722 0.45876 0.27891 0.0
N1943 N 0.96704 0.54614 0.34298 0.0
C1944 C 0.01439 0.47724 0.29963 0.0
C1945 C 0.98224 0.5241 0.32806 0.0
N1946 N 0.97019 0.44576 0.30294 0.0
N1947 N 0.02555 0.55599 0.32027 0.0
H1948 H 0.94453 0.54427 0.34889 0.0
H1949 H 0.97728 0.56517 0.3518 0.0
H1950 H 0.04681 0.56007 0.31139 0.0
H1951 H 0.0138 0.57556 0.32509 0.0
H1952 H 0.98188 0.42639 0.29716 0.0
H1953 H 0.94741 0.44204 0.30658 0.0
H1954 H 0.01646 0.44034 0.26944 0.0
H1955 H 0.04611 0.46489 0.26686 0.0
C1956 C 0.47321 0.99035 0.69894 0.0
C1957 C 0.50014 0.97541 0.69085 0.0
C1958 C 0.52762 0.02297 0.69409 0.0
C1959 C 0.5003 0.03865 0.69835 0.0
N1960 N 0.44967 0.03541 0.7178 0.0
N1961 N 0.552 0.97828 0.67594 0.0
C1962 C 0.47364 0.02194 0.70438 0.0
C1963 C 0.52716 0.99188 0.68753 0.0
N1964 N 0.44711 0.97437 0.70116 0.0
N1965 N 0.55425 0.03768 0.69804 0.0
H1966 H 0.55204 0.95594 0.66933 0.0
H1967 H 0.57133 0.98983 0.66977 0.0
H1968 H 0.55531 0.05996 0.70514 0.0
H1969 H 0.57502 0.02696 0.69804 0.0
H1970 H 0.42595 0.98415 0.70244 0.0
H1971 H 0.44623 0.95105 0.69993 0.0
H1972 H 0.43037 0.0242 0.72451 0.0
H1973 H 0.45048 0.05684 0.72658 0.0
C1974 C 0.98457 0.47998 0.69011 0.0
C1975 C 0.96745 0.50668 0.69249 0.0
C1976 C 0.01304 0.53421 0.70769 0.0
C1977 C 0.03039 0.50772 0.70292 0.0
N1978 N 0.03046 0.45383 0.70272 0.0
N1979 N 0.96464 0.55937 0.7037 0.0
C1980 C 0.01535 0.48012 0.69822 0.0
C1981 C 0.98151 0.53385 0.70145 0.0
N1982 N 0.97201 0.45491 0.67786 0.0
N1983 N 0.02604 0.55899 0.72011 0.0
H1984 H 0.94134 0.55936 0.70195 0.0
H1985 H 0.97345 0.58082 0.706 0.0
H1986 H 0.0475 0.55895 0.72896 0.0
H1987 H 0.01472 0.57864 0.72542 0.0
H1988 H 0.98417 0.43573 0.67245 0.0
H1989 H 0.95005 0.45456 0.66999 0.0
H1990 H 0.02012 0.4329 0.70246 0.0
H1991 H 0.05262 0.45328 0.71035 0.0
C1992 C 0.32134 0.47558 0.97793 0.0
C1993 C 0.31675 0.50212 0.96108 0.0
C1994 C 0.31306 0.53107 0.0077 0.0
C1995 C 0.31749 0.50422 0.02472 0.0
N1996 N 0.31355 0.45024 0.02513 0.0
N1997 N 0.30088 0.55364 0.9597 0.0
C1998 C 0.31779 0.47625 0.00952 0.0
C1999 C 0.31038 0.5294 0.97593 0.0
N2000 N 0.33085 0.45005 0.96409 0.0
N2001 N 0.31236 0.55844 0.02126 0.0
H2002 H 0.299 0.55343 0.9364 0.0
H2003 H 0.29226 0.57306 0.96938 0.0
H2004 H 0.3095 0.56145 0.04399 0.0
H2005 H 0.3151 0.57854 0.0097 0.0
H2006 H 0.33762 0.43095 0.97571 0.0
H2007 H 0.33503 0.44919 0.9412 0.0
H2008 H 0.31104 0.42945 0.01476 0.0
H2009 H 0.30878 0.44991 0.04802 0.0
C2010 C 0.5332 0.3209 0.98172 0.0
C2011 C 0.50617 0.31677 0.96538 0.0
C2012 C 0.48058 0.302 0.01197 0.0
C2013 C 0.50711 0.30898 0.02865 0.0
N2014 N 0.56103 0.31109 0.02728 0.0
N2015 N 0.4534 0.3052 0.96474 0.0
C2016 C 0.53414 0.3143 0.01282 0.0
C2017 C 0.47964 0.30786 0.98048 0.0
N2018 N 0.55755 0.33325 0.96798 0.0
N2019 N 0.45742 0.28709 0.02524 0.0
H2020 H 0.45221 0.30687 0.94146 0.0
H2021 H 0.43243 0.30327 0.97476 0.0
H2022 H 0.45925 0.27709 0.04607 0.0
H2023 H 0.43822 0.27998 0.01405 0.0
H2024 H 0.57672 0.34015 0.97943 0.0
H2025 H 0.55721 0.33968 0.9456 0.0
H2026 H 0.58167 0.31189 0.0164 0.0
H2027 H 0.56256 0.30367 0.04941 0.0
C2028 C 0.70599 0.47458 0.98264 0.0
C2029 C 0.70543 0.50305 0.96831 0.0
C2030 C 0.70674 0.52762 0.01786 0.0
C2031 C 0.70462 0.49923 0.03218 0.0
N2032 N 0.71356 0.44581 0.02788 0.0
N2033 N 0.71814 0.55568 0.97309 0.0
C2034 C 0.70772 0.47271 0.01454 0.0
C2035 C 0.70965 0.52933 0.98607 0.0
N2036 N 0.70529 0.44909 0.9656 0.0
N2037 N 0.70652 0.55321 0.03478 0.0
H2038 H 0.72337 0.55773 0.95065 0.0
H2039 H 0.7241 0.57479 0.98507 0.0
H2040 H 0.70958 0.55321 0.05796 0.0
H2041 H 0.70248 0.57443 0.02593 0.0
H2042 H 0.70015 0.42798 0.9741 0.0
H2043 H 0.70924 0.44912 0.94255 0.0
H2044 H 0.71905 0.42638 0.01622 0.0
H2045 H 0.71635 0.44322 0.05071 0.0
C2046 C 0.53487 0.69247 0.98282 0.0
C2047 C 0.50624 0.68965 0.96903 0.0
C2048 C 0.48229 0.69249 0.01872 0.0
C2049 C 0.51103 0.69219 0.03258 0.0
N2050 N 0.56343 0.70592 0.02675 0.0
N2051 N 0.45263 0.69755 0.97367 0.0
C2052 C 0.53705 0.69631 0.01445 0.0
C2053 C 0.47989 0.69292 0.98687 0.0
N2054 N 0.5602 0.6923 0.96555 0.0
N2055 N 0.45709 0.69286 0.0362 0.0
H2056 H 0.44949 0.6987 0.95078 0.0
H2057 H 0.43324 0.7033 0.98528 0.0
H2058 H 0.45761 0.69816 0.05898 0.0
H2059 H 0.43573 0.68752 0.0284 0.0
H2060 H 0.58164 0.68881 0.97419 0.0
H2061 H 0.55984 0.69481 0.94232 0.0
H2062 H 0.58229 0.71165 0.01431 0.0
H2063 H 0.56569 0.71266 0.04879 0.0
C2064 C 0.23733 0.26377 0.50497 0.0
C2065 C 0.20646 0.25571 0.50285 0.0
C2066 C 0.22057 0.20328 0.51023 0.0
C2067 C 0.25147 0.21031 0.50749 0.0
N2068 N 0.28894 0.24804 0.49722 0.0
N2069 N 0.17121 0.21561 0.49311 0.0
C2070 C 0.25986 0.24086 0.50354 0.0
C2071 C 0.19878 0.22487 0.50254 0.0
N2072 N 0.24523 0.29302 0.50931 0.0
N2073 N 0.21161 0.17641 0.52158 0.0
H2074 H 0.1553 0.23031 0.48469 0.0
H2075 H 0.16577 0.19306 0.49014 0.0
H2076 H 0.22673 0.16085 0.52987 0.0
H2077 H 0.18922 0.17146 0.52622 0.0
H2078 H 0.26717 0.29972 0.5138 0.0
H2079 H 0.22951 0.3102 0.51143 0.0
H2080 H 0.29567 0.26959 0.49124 0.0
H2081 H 0.30583 0.23201 0.49514 0.0
C2082 C 0.74604 0.23542 0.53361 0.0
C2083 C 0.73097 0.22203 0.50897 0.0
C2084 C 0.75956 0.25349 0.474 0.0
C2085 C 0.77495 0.26647 0.49863 0.0
N2086 N 0.77736 0.27628 0.55156 0.0
N2087 N 0.71769 0.22318 0.45662 0.0
C2088 C 0.76636 0.2595 0.52839 0.0
C2089 C 0.7358 0.23279 0.47943 0.0
N2090 N 0.74151 0.22454 0.56187 0.0
N2091 N 0.76853 0.26002 0.44546 0.0
H2092 H 0.70011 0.20812 0.45991 0.0
H2093 H 0.71828 0.23202 0.43504 0.0
H2094 H 0.78499 0.27597 0.44077 0.0
H2095 H 0.76086 0.24866 0.42657 0.0
H2096 H 0.75442 0.23077 0.58032 0.0
H2097 H 0.72566 0.208 0.56662 0.0
H2098 H 0.77027 0.27404 0.57366 0.0
H2099 H 0.79152 0.29459 0.54813 0.0
C2100 C 0.76677 0.74995 0.53848 0.0
C2101 C 0.78138 0.7364 0.51371 0.0
C2102 C 0.75149 0.76695 0.47895 0.0
C2103 C 0.73707 0.78074 0.5037 0.0
N2104 N 0.7252 0.78033 0.55635 0.0
N2105 N 0.78208 0.72562 0.46091 0.0
C2106 C 0.74278 0.77049 0.53329 0.0
C2107 C 0.7719 0.74288 0.48406 0.0
N2108 N 0.77658 0.74397 0.56689 0.0
N2109 N 0.74628 0.77744 0.45064 0.0
H2110 H 0.79616 0.70724 0.46429 0.0
H2111 H 0.77432 0.72753 0.43898 0.0
H2112 H 0.73041 0.79401 0.446 0.0
H2113 H 0.75872 0.77089 0.43202 0.0
H2114 H 0.76948 0.75574 0.58573 0.0
H2115 H 0.79317 0.72809 0.57146 0.0
H2116 H 0.72645 0.77185 0.57804 0.0
H2117 H 0.70737 0.79515 0.55319 0.0
C2118 C 0.24151 0.74227 0.47748 0.0
C2119 C 0.22671 0.72849 0.502 0.0
C2120 C 0.25668 0.7584 0.53732 0.0
C2121 C 0.27094 0.7727 0.51279 0.0
N2122 N 0.28278 0.77345 0.46022 0.0
N2123 N 0.22488 0.71773 0.55482 0.0
C2124 C 0.2653 0.76294 0.48305 0.0
C2125 C 0.23598 0.73463 0.53183 0.0
N2126 N 0.23203 0.73637 0.44893 0.0
N2127 N 0.26209 0.76842 0.56578 0.0
H2128 H 0.20976 0.70021 0.55139 0.0
H2129 H 0.23246 0.71926 0.57684 0.0
H2130 H 0.27811 0.7848 0.57059 0.0
H2131 H 0.24985 0.76163 0.58442 0.0
H2132 H 0.23922 0.74826 0.43021 0.0
H2133 H 0.21574 0.72027 0.44409 0.0
H2134 H 0.28161 0.76551 0.43831 0.0
H2135 H 0.30045 0.78839 0.46378 0.0
C2136 C 0.53652 0.22099 0.24277 0.0
C2137 C 0.51722 0.22395 0.2677 0.0
C2138 C 0.49401 0.26781 0.24334 0.0
C2139 C 0.50984 0.26118 0.21643 0.0
N2140 N 0.54057 0.22556 0.18939 0.0
N2141 N 0.47519 0.24887 0.29085 0.0
C2142 C 0.52958 0.23616 0.21582 0.0
C2143 C 0.49547 0.24727 0.26801 0.0
N2144 N 0.56165 0.20354 0.24484 0.0
N2145 N 0.47719 0.29333 0.24516 0.0
H2146 H 0.47567 0.23443 0.3092 0.0
H2147 H 0.45673 0.26318 0.29063 0.0
H2148 H 0.47427 0.30789 0.2271 0.0
H2149 H 0.46772 0.30096 0.26509 0.0
H2150 H 0.57785 0.20256 0.22803 0.0
H2151 H 0.56788 0.19278 0.26468 0.0
H2152 H 0.55306 0.20587 0.18771 0.0
H2153 H 0.53353 0.2338 0.16891 0.0
C2154 C 0.77282 0.474 0.26254 0.0
C2155 C 0.78203 0.50363 0.26973 0.0
C2156 C 0.74557 0.52358 0.23337 0.0
C2157 C 0.73976 0.49401 0.2231 0.0
N2158 N 0.74818 0.44086 0.22689 0.0
N2159 N 0.77835 0.55683 0.26157 0.0
C2160 C 0.75328 0.46912 0.23762 0.0
C2161 C 0.76851 0.52851 0.25519 0.0
N2162 N 0.78271 0.45058 0.27965 0.0
N2163 N 0.72899 0.54688 0.22234 0.0
H2164 H 0.7941 0.56128 0.27834 0.0
H2165 H 0.7722 0.5757 0.24931 0.0
H2166 H 0.712 0.54392 0.20649 0.0
H2167 H 0.73015 0.56864 0.23067 0.0
H2168 H 0.77483 0.42873 0.27744 0.0
H2169 H 0.79708 0.45343 0.29792 0.0
H2170 H 0.76006 0.42204 0.23391 0.0
H2171 H 0.73296 0.43642 0.20965 0.0
C2172 C 0.50769 0.73855 0.24651 0.0
C2173 C 0.50697 0.74684 0.21566 0.0
C2174 C 0.51145 0.79924 0.23057 0.0
C2175 C 0.50712 0.79198 0.26114 0.0
N2176 N 0.49591 0.75348 0.29757 0.0
N2177 N 0.49562 0.78693 0.181 0.0
C2178 C 0.5038 0.7612 0.26905 0.0
C2179 C 0.50519 0.7777 0.20844 0.0
N2180 N 0.51309 0.70951 0.25445 0.0
N2181 N 0.52323 0.8261 0.22225 0.0
H2182 H 0.48748 0.77203 0.16515 0.0
H2183 H 0.4921 0.80948 0.17582 0.0
H2184 H 0.53102 0.8415 0.2378 0.0
H2185 H 0.52862 0.83112 0.20005 0.0
H2186 H 0.51657 0.70287 0.27657 0.0
H2187 H 0.51702 0.69262 0.23879 0.0
H2188 H 0.49053 0.7316 0.30372 0.0
H2189 H 0.49187 0.76927 0.31431 0.0
C2190 C 0.20852 0.50657 0.2223 0.0
C2191 C 0.21542 0.50285 0.25304 0.0
C2192 C 0.26884 0.49939 0.23877 0.0
C2193 C 0.26052 0.49804 0.20792 0.0
N2194 N 0.2198 0.48832 0.17337 0.0
N2195 N 0.25307 0.49068 0.29018 0.0
C2196 C 0.22961 0.49807 0.20057 0.0
C2197 C 0.24593 0.49786 0.26131 0.0
N2198 N 0.1825 0.51984 0.21344 0.0
N2199 N 0.29818 0.5032 0.24667 0.0
H2200 H 0.23701 0.48852 0.307 0.0
H2201 H 0.27455 0.48411 0.2967 0.0
H2202 H 0.31534 0.50537 0.23098 0.0
H2203 H 0.305 0.50709 0.26868 0.0
H2204 H 0.17782 0.52473 0.19103 0.0
H2205 H 0.16774 0.52934 0.22864 0.0
H2206 H 0.19706 0.48616 0.16818 0.0
H2207 H 0.23417 0.47876 0.15784 0.0
C2208 C 0.52076 0.73947 0.76122 0.0
C2209 C 0.4969 0.73815 0.78227 0.0
C2210 C 0.48168 0.78886 0.76847 0.0
C2211 C 0.50371 0.78972 0.74545 0.0
N2212 N 0.54184 0.76362 0.71721 0.0
N2213 N 0.44912 0.7575 0.79824 0.0
C2214 C 0.52227 0.76412 0.74072 0.0
C2215 C 0.47549 0.76148 0.78314 0.0
N2216 N 0.54291 0.71832 0.76193 0.0
N2217 N 0.46765 0.81434 0.77779 0.0
H2218 H 0.44358 0.73728 0.80862 0.0
H2219 H 0.43158 0.77294 0.79749 0.0
H2220 H 0.47376 0.83536 0.77027 0.0
H2221 H 0.45326 0.81502 0.79617 0.0
H2222 H 0.56265 0.72 0.74959 0.0
H2223 H 0.54251 0.7 0.7764 0.0
H2224 H 0.55342 0.74442 0.71066 0.0
H2225 H 0.54528 0.78196 0.70316 0.0
C2226 C 0.26432 0.53009 0.76502 0.0
C2227 C 0.26928 0.49991 0.77388 0.0
C2228 C 0.23135 0.48326 0.73748 0.0
C2229 C 0.22282 0.51351 0.73267 0.0
N2230 N 0.2305 0.56609 0.74186 0.0
N2231 N 0.25736 0.44747 0.76925 0.0
C2232 C 0.23938 0.53708 0.74616 0.0
C2233 C 0.25289 0.47636 0.7601 0.0
N2234 N 0.28345 0.55203 0.77464 0.0
N2235 N 0.21918 0.46125 0.71998 0.0
H2236 H 0.27401 0.44151 0.78461 0.0
H2237 H 0.24366 0.42969 0.76282 0.0
H2238 H 0.2042 0.46593 0.7026 0.0
H2239 H 0.22609 0.43897 0.7206 0.0
H2240 H 0.28269 0.57405 0.76699 0.0
H2241 H 0.30189 0.54762 0.78835 0.0
H2242 H 0.23916 0.58415 0.75385 0.0
H2243 H 0.21315 0.57195 0.72725 0.0
C2244 C 0.47478 0.24514 0.74681 0.0
C2245 C 0.49858 0.22926 0.73293 0.0
C2246 C 0.53526 0.25745 0.76299 0.0
C2247 C 0.51146 0.27321 0.77701 0.0
N2248 N 0.4594 0.28777 0.77705 0.0
N2249 N 0.55127 0.22554 0.72182 0.0
C2250 C 0.48145 0.26895 0.76712 0.0
C2251 C 0.52881 0.2372 0.73907 0.0
N2252 N 0.4458 0.23675 0.7413 0.0
N2253 N 0.56396 0.26119 0.77317 0.0
H2254 H 0.54712 0.21107 0.70391 0.0
H2255 H 0.57358 0.23225 0.72338 0.0
H2256 H 0.5696 0.27686 0.78961 0.0
H2257 H 0.58186 0.24777 0.76652 0.0
H2258 H 0.42752 0.24479 0.75338 0.0
H2259 H 0.44015 0.22042 0.72551 0.0
H2260 H 0.43755 0.28758 0.76877 0.0
H2261 H 0.4636 0.30549 0.79172 0.0
C2262 C 0.74164 0.48075 0.76751 0.0
C2263 C 0.73539 0.51043 0.77705 0.0
C2264 C 0.76831 0.53 0.73752 0.0
C2265 C 0.77846 0.50042 0.73162 0.0
N2266 N 0.7753 0.44733 0.7407 0.0
N2267 N 0.74248 0.56362 0.77177 0.0
C2268 C 0.76501 0.47565 0.74633 0.0
C2269 C 0.74838 0.53519 0.76196 0.0
N2270 N 0.72505 0.45754 0.77863 0.0
N2271 N 0.77777 0.55307 0.71975 0.0
H2272 H 0.72693 0.56817 0.78864 0.0
H2273 H 0.75395 0.58251 0.76431 0.0
H2274 H 0.79218 0.5499 0.70162 0.0
H2275 H 0.76935 0.57478 0.72117 0.0
H2276 H 0.72669 0.43558 0.7709 0.0
H2277 H 0.70754 0.46078 0.79379 0.0
H2278 H 0.76915 0.42864 0.75321 0.0
H2279 H 0.79126 0.44274 0.72423 0.0
loop_
_geom_bond_atom_site_label_1
_geom_bond_atom_site_label_2
_geom_bond_distance
_geom_bond_site_symmetry_2
_ccdc_geom_bond_type
Co0 O2 2.143 . S
Co0 O8 2.074 . S
Co0 O11 2.093 . S
Co0 O24 2.097 . S
Co0 N41 2.151 . S
Co0 N49 2.214 . S
Co1 O2 2.160 . S
Co1 O7 2.058 . S
Co1 O17 2.057 . S
Co1 O32 2.037 . S
Co1 N36 2.145 . S
Co1 N57 2.257 . S
O2 Co0 2.143 . S
O2 Co1 2.160 . S
C3 O4 1.278 . S
C3 O11 1.224 . S
O4 C3 1.278 . S
C5 O6 1.245 . S
C5 O17 1.232 . S
O6 C5 1.245 . S
O7 Co1 2.058 . S
O7 C33 1.269 . S
O8 Co0 2.074 . S
O8 C33 1.257 . S
H9 C34 0.930 . S
H10 C40 0.930 . S
O11 Co0 2.093 . S
O11 C3 1.224 . S
H12 C44 0.929 . S
H13 C46 0.930 . S
H14 C47 0.930 . S
H15 C45 0.929 . S
H16 C48 0.928 . S
O17 Co1 2.057 . S
O17 C5 1.232 . S
H18 C37 0.929 . S
H19 C38 0.929 . S
H20 C50 0.931 . S
H21 C42 0.929 . S
H22 C51 0.930 . S
H23 C43 0.931 . S
O24 Co0 2.097 . S
O24 C52 1.214 . S
H25 C53 0.929 . S
H26 C54 0.929 . S
H27 C55 0.930 . S
H28 C56 0.929 . S
H29 C58 0.930 . S
H30 C35 0.930 . S
H31 C39 0.930 . S
O32 Co1 2.037 . S
O32 C52 1.234 . S
C33 O7 1.269 . S
C33 O8 1.257 . S
C34 H9 0.930 . S
C34 C37 1.388 . S
C34 C39 1.418 . S
C35 H30 0.930 . S
C35 C38 1.404 . S
C35 C39 1.353 . S
N36 Co1 2.145 . S
N36 C37 1.397 . S
N36 C38 1.334 . S
C37 H18 0.929 . S
C37 C34 1.388 . S
C37 N36 1.397 . S
C38 H19 0.929 . S
C38 C35 1.404 . S
C38 N36 1.334 . S
C39 H31 0.930 . S
C39 C34 1.418 . S
C39 C35 1.353 . S
C40 H10 0.930 . S
C40 N41 1.330 . S
C40 C42 1.446 . S
N41 Co0 2.151 . S
N41 C40 1.330 . S
N41 C45 1.418 . S
C42 H21 0.929 . S
C42 C40 1.446 . S
C42 C43 1.332 . S
C43 H23 0.931 . S
C43 C42 1.332 . S
C43 C44 1.267 . S
C44 H12 0.929 . S
C44 C43 1.267 . S
C44 C45 1.251 . S
C45 H15 0.929 . S
C45 N41 1.418 . S
C45 C44 1.251 . S
C46 H13 0.930 . S
C46 C48 1.406 . S
C46 C51 1.261 . S
C47 H14 0.930 . S
C47 N49 1.325 . S
C47 C50 1.357 . S
C48 H16 0.928 . S
C48 C46 1.406 . S
C48 N49 1.261 . S
N49 Co0 2.214 . S
N49 C47 1.325 . S
N49 C48 1.261 . S
C50 H20 0.931 . S
C50 C47 1.357 . S
C50 C51 1.312 . S
C51 H22 0.930 . S
C51 C46 1.261 . S
C51 C50 1.312 . S
C52 O24 1.214 . S
C52 O32 1.234 . S
C53 H25 0.929 . S
C53 C56 1.391 . S
C53 C58 1.391 . S
C54 H26 0.929 . S
C54 C55 1.390 . S
C54 N57 1.391 . S
C55 H27 0.930 . S
C55 C54 1.390 . S
C55 C56 1.392 . S
C56 H28 0.929 . S
C56 C53 1.391 . S
C56 C55 1.392 . S
N57 Co1 2.257 . S
N57 C54 1.391 . S
N57 C58 1.388 . S
C58 H29 0.930 . S
C58 C53 1.391 . S
C58 N57 1.388 . S
Co59 O61 2.143 . S
Co59 O67 2.074 . S
Co59 O70 2.093 . S
Co59 O83 2.097 . S
Co59 N100 2.151 . S
Co59 N108 2.214 . S
Co60 O61 2.160 . S
Co60 O66 2.058 . S
Co60 O76 2.057 . S
Co60 O91 2.037 . S
Co60 N95 2.145 . S
Co60 N116 2.257 . S
O61 Co59 2.143 . S
O61 Co60 2.160 . S
C62 O63 1.278 . S
C62 O70 1.224 . S
O63 C62 1.278 . S
C64 O65 1.245 . S
C64 O76 1.232 . S
O65 C64 1.245 . S
O66 Co60 2.058 . S
O66 C92 1.269 . S
O67 Co59 2.074 . S
O67 C92 1.257 . S
H68 C93 0.930 . S
H69 C99 0.930 . S
O70 Co59 2.093 . S
O70 C62 1.224 . S
H71 C103 0.929 . S
H72 C105 0.930 . S
H73 C106 0.930 . S
H74 C104 0.929 . S
H75 C107 0.928 . S
O76 Co60 2.057 . S
O76 C64 1.232 . S
H77 C96 0.929 . S
H78 C97 0.929 . S
H79 C109 0.931 . S
H80 C101 0.929 . S
H81 C110 0.930 . S
H82 C102 0.931 . S
O83 Co59 2.097 . S
O83 C111 1.214 . S
H84 C112 0.929 . S
H85 C113 0.929 . S
H86 C114 0.930 . S
H87 C115 0.929 . S
H88 C117 0.930 . S
H89 C94 0.930 . S
H90 C98 0.930 . S
O91 Co60 2.037 . S
O91 C111 1.234 . S
C92 O66 1.269 . S
C92 O67 1.257 . S
C93 H68 0.930 . S
C93 C96 1.388 . S
C93 C98 1.418 . S
C94 H89 0.930 . S
C94 C97 1.404 . S
C94 C98 1.353 . S
N95 Co60 2.145 . S
N95 C96 1.397 . S
N95 C97 1.334 . S
C96 H77 0.929 . S
C96 C93 1.388 . S
C96 N95 1.397 . S
C97 H78 0.929 . S
C97 C94 1.404 . S
C97 N95 1.334 . S
C98 H90 0.930 . S
C98 C93 1.418 . S
C98 C94 1.353 . S
C99 H69 0.930 . S
C99 N100 1.330 . S
C99 C101 1.446 . S
N100 Co59 2.151 . S
N100 C99 1.330 . S
N100 C104 1.418 . S
C101 H80 0.929 . S
C101 C99 1.446 . S
C101 C102 1.332 . S
C102 H82 0.931 . S
C102 C101 1.332 . S
C102 C103 1.267 . S
C103 H71 0.929 . S
C103 C102 1.267 . S
C103 C104 1.251 . S
C104 H74 0.929 . S
C104 N100 1.418 . S
C104 C103 1.251 . S
C105 H72 0.930 . S
C105 C107 1.406 . S
C105 C110 1.261 . S
C106 H73 0.930 . S
C106 N108 1.325 . S
C106 C109 1.357 . S
C107 H75 0.928 . S
C107 C105 1.406 . S
C107 N108 1.261 . S
N108 Co59 2.214 . S
N108 C106 1.325 . S
N108 C107 1.261 . S
C109 H79 0.931 . S
C109 C106 1.357 . S
C109 C110 1.312 . S
C110 H81 0.930 . S
C110 C105 1.261 . S
C110 C109 1.312 . S
C111 O83 1.214 . S
C111 O91 1.234 . S
C112 H84 0.929 . S
C112 C115 1.391 . S
C112 C117 1.391 . S
C113 H85 0.929 . S
C113 C114 1.390 . S
C113 N116 1.391 . S
C114 H86 0.930 . S
C114 C113 1.390 . S
C114 C115 1.392 . S
C115 H87 0.929 . S
C115 C112 1.391 . S
C115 C114 1.392 . S
N116 Co60 2.257 . S
N116 C113 1.391 . S
N116 C117 1.388 . S
C117 H88 0.930 . S
C117 C112 1.391 . S
C117 N116 1.388 . S
Co118 O120 2.143 . S
Co118 O126 2.074 . S
Co118 O129 2.093 . S
Co118 O142 2.097 . S
Co118 N159 2.151 . S
Co118 N167 2.214 . S
Co119 O120 2.160 . S
Co119 O125 2.058 . S
Co119 O135 2.057 . S
Co119 O150 2.037 . S
Co119 N154 2.145 . S
Co119 N175 2.257 . S
O120 Co118 2.143 . S
O120 Co119 2.160 . S
C121 O122 1.278 . S
C121 O129 1.224 . S
O122 C121 1.278 . S
C123 O124 1.245 . S
C123 O135 1.232 . S
O124 C123 1.245 . S
O125 Co119 2.058 . S
O125 C151 1.269 . S
O126 Co118 2.074 . S
O126 C151 1.257 . S
H127 C152 0.930 . S
H128 C158 0.930 . S
O129 Co118 2.093 . S
O129 C121 1.224 . S
H130 C162 0.929 . S
H131 C164 0.930 . S
H132 C165 0.930 . S
H133 C163 0.929 . S
H134 C166 0.928 . S
O135 Co119 2.057 . S
O135 C123 1.232 . S
H136 C155 0.929 . S
H137 C156 0.929 . S
H138 C168 0.931 . S
H139 C160 0.929 . S
H140 C169 0.930 . S
H141 C161 0.931 . S
O142 Co118 2.097 . S
O142 C170 1.214 . S
H143 C171 0.929 . S
H144 C172 0.929 . S
H145 C173 0.930 . S
H146 C174 0.929 . S
H147 C176 0.930 . S
H148 C153 0.930 . S
H149 C157 0.930 . S
O150 Co119 2.037 . S
O150 C170 1.234 . S
C151 O125 1.269 . S
C151 O126 1.257 . S
C152 H127 0.930 . S
C152 C155 1.388 . S
C152 C157 1.418 . S
C153 H148 0.930 . S
C153 C156 1.404 . S
C153 C157 1.353 . S
N154 Co119 2.145 . S
N154 C155 1.397 . S
N154 C156 1.334 . S
C155 H136 0.929 . S
C155 C152 1.388 . S
C155 N154 1.397 . S
C156 H137 0.929 . S
C156 C153 1.404 . S
C156 N154 1.334 . S
C157 H149 0.930 . S
C157 C152 1.418 . S
C157 C153 1.353 . S
C158 H128 0.930 . S
C158 N159 1.330 . S
C158 C160 1.446 . S
N159 Co118 2.151 . S
N159 C158 1.330 . S
N159 C163 1.418 . S
C160 H139 0.929 . S
C160 C158 1.446 . S
C160 C161 1.332 . S
C161 H141 0.931 . S
C161 C160 1.332 . S
C161 C162 1.267 . S
C162 H130 0.929 . S
C162 C161 1.267 . S
C162 C163 1.251 . S
C163 H133 0.929 . S
C163 N159 1.418 . S
C163 C162 1.251 . S
C164 H131 0.930 . S
C164 C166 1.406 . S
C164 C169 1.261 . S
C165 H132 0.930 . S
C165 N167 1.325 . S
C165 C168 1.357 . S
C166 H134 0.928 . S
C166 C164 1.406 . S
C166 N167 1.261 . S
N167 Co118 2.214 . S
N167 C165 1.325 . S
N167 C166 1.261 . S
C168 H138 0.931 . S
C168 C165 1.357 . S
C168 C169 1.312 . S
C169 H140 0.930 . S
C169 C164 1.261 . S
C169 C168 1.312 . S
C170 O142 1.214 . S
C170 O150 1.234 . S
C171 H143 0.929 . S
C171 C174 1.391 . S
C171 C176 1.391 . S
C172 H144 0.929 . S
C172 C173 1.390 . S
C172 N175 1.391 . S
C173 H145 0.930 . S
C173 C172 1.390 . S
C173 C174 1.392 . S
C174 H146 0.929 . S
C174 C171 1.391 . S
C174 C173 1.392 . S
N175 Co119 2.257 . S
N175 C172 1.391 . S
N175 C176 1.388 . S
C176 H147 0.930 . S
C176 C171 1.391 . S
C176 N175 1.388 . S
Co177 O179 2.143 . S
Co177 O185 2.074 . S
Co177 O188 2.093 . S
Co177 O201 2.097 . S
Co177 N218 2.151 . S
Co177 N226 2.214 . S
Co178 O179 2.160 . S
Co178 O184 2.058 . S
Co178 O194 2.057 . S
Co178 O209 2.037 . S
Co178 N213 2.145 . S
Co178 N234 2.257 . S
O179 Co177 2.143 . S
O179 Co178 2.160 . S
C180 O181 1.278 . S
C180 O188 1.224 . S
O181 C180 1.278 . S
C182 O183 1.245 . S
C182 O194 1.232 . S
O183 C182 1.245 . S
O184 Co178 2.058 . S
O184 C210 1.269 . S
O185 Co177 2.074 . S
O185 C210 1.257 . S
H186 C211 0.930 . S
H187 C217 0.930 . S
O188 Co177 2.093 . S
O188 C180 1.224 . S
H189 C221 0.929 . S
H190 C223 0.930 . S
H191 C224 0.930 . S
H192 C222 0.929 . S
H193 C225 0.928 . S
O194 Co178 2.057 . S
O194 C182 1.232 . S
H195 C214 0.929 . S
H196 C215 0.929 . S
H197 C227 0.931 . S
H198 C219 0.929 . S
H199 C228 0.930 . S
H200 C220 0.931 . S
O201 Co177 2.097 . S
O201 C229 1.214 . S
H202 C230 0.929 . S
H203 C231 0.929 . S
H204 C232 0.930 . S
H205 C233 0.929 . S
H206 C235 0.930 . S
H207 C212 0.930 . S
H208 C216 0.930 . S
O209 Co178 2.037 . S
O209 C229 1.234 . S
C210 O184 1.269 . S
C210 O185 1.257 . S
C211 H186 0.930 . S
C211 C214 1.388 . S
C211 C216 1.418 . S
C212 H207 0.930 . S
C212 C215 1.404 . S
C212 C216 1.353 . S
N213 Co178 2.145 . S
N213 C214 1.397 . S
N213 C215 1.334 . S
C214 H195 0.929 . S
C214 C211 1.388 . S
C214 N213 1.397 . S
C215 H196 0.929 . S
C215 C212 1.404 . S
C215 N213 1.334 . S
C216 H208 0.930 . S
C216 C211 1.418 . S
C216 C212 1.353 . S
C217 H187 0.930 . S
C217 N218 1.330 . S
C217 C219 1.446 . S
N218 Co177 2.151 . S
N218 C217 1.330 . S
N218 C222 1.418 . S
C219 H198 0.929 . S
C219 C217 1.446 . S
C219 C220 1.332 . S
C220 H200 0.931 . S
C220 C219 1.332 . S
C220 C221 1.267 . S
C221 H189 0.929 . S
C221 C220 1.267 . S
C221 C222 1.251 . S
C222 H192 0.929 . S
C222 N218 1.418 . S
C222 C221 1.251 . S
C223 H190 0.930 . S
C223 C225 1.406 . S
C223 C228 1.261 . S
C224 H191 0.930 . S
C224 N226 1.325 . S
C224 C227 1.357 . S
C225 H193 0.928 . S
C225 C223 1.406 . S
C225 N226 1.261 . S
N226 Co177 2.214 . S
N226 C224 1.325 . S
N226 C225 1.261 . S
C227 H197 0.931 . S
C227 C224 1.357 . S
C227 C228 1.312 . S
C228 H199 0.930 . S
C228 C223 1.261 . S
C228 C227 1.312 . S
C229 O201 1.214 . S
C229 O209 1.234 . S
C230 H202 0.929 . S
C230 C233 1.391 . S
C230 C235 1.391 . S
C231 H203 0.929 . S
C231 C232 1.390 . S
C231 N234 1.391 . S
C232 H204 0.930 . S
C232 C231 1.390 . S
C232 C233 1.392 . S
C233 H205 0.929 . S
C233 C230 1.391 . S
C233 C232 1.392 . S
N234 Co178 2.257 . S
N234 C231 1.391 . S
N234 C235 1.388 . S
C235 H206 0.930 . S
C235 C230 1.391 . S
C235 N234 1.388 . S
Co236 O238 2.143 . S
Co236 O244 2.074 . S
Co236 O247 2.093 . S
Co236 O260 2.097 . S
Co236 N277 2.151 . S
Co236 N285 2.214 . S
Co237 O238 2.160 . S
Co237 O243 2.058 . S
Co237 O253 2.057 . S
Co237 O268 2.037 . S
Co237 N272 2.145 . S
Co237 N293 2.257 . S
O238 Co236 2.143 . S
O238 Co237 2.160 . S
C239 O240 1.278 . S
C239 O247 1.224 . S
O240 C239 1.278 . S
C241 O242 1.245 . S
C241 O253 1.232 . S
O242 C241 1.245 . S
O243 Co237 2.058 . S
O243 C269 1.269 . S
O244 Co236 2.074 . S
O244 C269 1.257 . S
H245 C270 0.930 . S
H246 C276 0.930 . S
O247 Co236 2.093 . S
O247 C239 1.224 . S
H248 C280 0.929 . S
H249 C282 0.930 . S
H250 C283 0.930 . S
H251 C281 0.929 . S
H252 C284 0.928 . S
O253 Co237 2.057 . S
O253 C241 1.232 . S
H254 C273 0.929 . S
H255 C274 0.929 . S
H256 C286 0.931 . S
H257 C278 0.929 . S
H258 C287 0.930 . S
H259 C279 0.931 . S
O260 Co236 2.097 . S
O260 C288 1.214 . S
H261 C289 0.929 . S
H262 C290 0.929 . S
H263 C291 0.930 . S
H264 C292 0.929 . S
H265 C294 0.930 . S
H266 C271 0.930 . S
H267 C275 0.930 . S
O268 Co237 2.037 . S
O268 C288 1.234 . S
C269 O243 1.269 . S
C269 O244 1.257 . S
C270 H245 0.930 . S
C270 C273 1.388 . S
C270 C275 1.418 . S
C271 H266 0.930 . S
C271 C274 1.404 . S
C271 C275 1.353 . S
N272 Co237 2.145 . S
N272 C273 1.397 . S
N272 C274 1.334 . S
C273 H254 0.929 . S
C273 C270 1.388 . S
C273 N272 1.397 . S
C274 H255 0.929 . S
C274 C271 1.404 . S
C274 N272 1.334 . S
C275 H267 0.930 . S
C275 C270 1.418 . S
C275 C271 1.353 . S
C276 H246 0.930 . S
C276 N277 1.330 . S
C276 C278 1.446 . S
N277 Co236 2.151 . S
N277 C276 1.330 . S
N277 C281 1.418 . S
C278 H257 0.929 . S
C278 C276 1.446 . S
C278 C279 1.332 . S
C279 H259 0.931 . S
C279 C278 1.332 . S
C279 C280 1.267 . S
C280 H248 0.929 . S
C280 C279 1.267 . S
C280 C281 1.251 . S
C281 H251 0.929 . S
C281 N277 1.418 . S
C281 C280 1.251 . S
C282 H249 0.930 . S
C282 C284 1.406 . S
C282 C287 1.261 . S
C283 H250 0.930 . S
C283 N285 1.325 . S
C283 C286 1.357 . S
C284 H252 0.928 . S
C284 C282 1.406 . S
C284 N285 1.261 . S
N285 Co236 2.214 . S
N285 C283 1.325 . S
N285 C284 1.261 . S
C286 H256 0.931 . S
C286 C283 1.357 . S
C286 C287 1.312 . S
C287 H258 0.930 . S
C287 C282 1.261 . S
C287 C286 1.312 . S
C288 O260 1.214 . S
C288 O268 1.234 . S
C289 H261 0.929 . S
C289 C292 1.391 . S
C289 C294 1.391 . S
C290 H262 0.929 . S
C290 C291 1.390 . S
C290 N293 1.391 . S
C291 H263 0.930 . S
C291 C290 1.390 . S
C291 C292 1.392 . S
C292 H264 0.929 . S
C292 C289 1.391 . S
C292 C291 1.392 . S
N293 Co237 2.257 . S
N293 C290 1.391 . S
N293 C294 1.388 . S
C294 H265 0.930 . S
C294 C289 1.391 . S
C294 N293 1.388 . S
Co295 O297 2.143 . S
Co295 O303 2.074 . S
Co295 O306 2.093 . S
Co295 O319 2.097 . S
Co295 N336 2.151 . S
Co295 N344 2.214 . S
Co296 O297 2.160 . S
Co296 O302 2.058 . S
Co296 O312 2.057 . S
Co296 O327 2.037 . S
Co296 N331 2.145 . S
Co296 N352 2.257 . S
O297 Co295 2.143 . S
O297 Co296 2.160 . S
C298 O299 1.278 . S
C298 O306 1.224 . S
O299 C298 1.278 . S
C300 O301 1.245 . S
C300 O312 1.232 . S
O301 C300 1.245 . S
O302 Co296 2.058 . S
O302 C328 1.269 . S
O303 Co295 2.074 . S
O303 C328 1.257 . S
H304 C329 0.930 . S
H305 C335 0.930 . S
O306 Co295 2.093 . S
O306 C298 1.224 . S
H307 C339 0.929 . S
H308 C341 0.930 . S
H309 C342 0.930 . S
H310 C340 0.929 . S
H311 C343 0.928 . S
O312 Co296 2.057 . S
O312 C300 1.232 . S
H313 C332 0.929 . S
H314 C333 0.929 . S
H315 C345 0.931 . S
H316 C337 0.929 . S
H317 C346 0.930 . S
H318 C338 0.931 . S
O319 Co295 2.097 . S
O319 C347 1.214 . S
H320 C348 0.929 . S
H321 C349 0.929 . S
H322 C350 0.930 . S
H323 C351 0.929 . S
H324 C353 0.930 . S
H325 C330 0.930 . S
H326 C334 0.930 . S
O327 Co296 2.037 . S
O327 C347 1.234 . S
C328 O302 1.269 . S
C328 O303 1.257 . S
C329 H304 0.930 . S
C329 C332 1.388 . S
C329 C334 1.418 . S
C330 H325 0.930 . S
C330 C333 1.404 . S
C330 C334 1.353 . S
N331 Co296 2.145 . S
N331 C332 1.397 . S
N331 C333 1.334 . S
C332 H313 0.929 . S
C332 C329 1.388 . S
C332 N331 1.397 . S
C333 H314 0.929 . S
C333 C330 1.404 . S
C333 N331 1.334 . S
C334 H326 0.930 . S
C334 C329 1.418 . S
C334 C330 1.353 . S
C335 H305 0.930 . S
C335 N336 1.330 . S
C335 C337 1.446 . S
N336 Co295 2.151 . S
N336 C335 1.330 . S
N336 C340 1.418 . S
C337 H316 0.929 . S
C337 C335 1.446 . S
C337 C338 1.332 . S
C338 H318 0.931 . S
C338 C337 1.332 . S
C338 C339 1.267 . S
C339 H307 0.929 . S
C339 C338 1.267 . S
C339 C340 1.251 . S
C340 H310 0.929 . S
C340 N336 1.418 . S
C340 C339 1.251 . S
C341 H308 0.930 . S
C341 C343 1.406 . S
C341 C346 1.261 . S
C342 H309 0.930 . S
C342 N344 1.325 . S
C342 C345 1.357 . S
C343 H311 0.928 . S
C343 C341 1.406 . S
C343 N344 1.261 . S
N344 Co295 2.214 . S
N344 C342 1.325 . S
N344 C343 1.261 . S
C345 H315 0.931 . S
C345 C342 1.357 . S
C345 C346 1.312 . S
C346 H317 0.930 . S
C346 C341 1.261 . S
C346 C345 1.312 . S
C347 O319 1.214 . S
C347 O327 1.234 . S
C348 H320 0.929 . S
C348 C351 1.391 . S
C348 C353 1.391 . S
C349 H321 0.929 . S
C349 C350 1.390 . S
C349 N352 1.391 . S
C350 H322 0.930 . S
C350 C349 1.390 . S
C350 C351 1.392 . S
C351 H323 0.929 . S
C351 C348 1.391 . S
C351 C350 1.392 . S
N352 Co296 2.257 . S
N352 C349 1.391 . S
N352 C353 1.388 . S
C353 H324 0.930 . S
C353 C348 1.391 . S
C353 N352 1.388 . S
Co354 O356 2.143 . S
Co354 O362 2.074 . S
Co354 O365 2.093 . S
Co354 O378 2.097 . S
Co354 N395 2.151 . S
Co354 N403 2.214 . S
Co355 O356 2.160 . S
Co355 O361 2.058 . S
Co355 O371 2.057 . S
Co355 O386 2.037 . S
Co355 N390 2.145 . S
Co355 N411 2.257 . S
O356 Co354 2.143 . S
O356 Co355 2.160 . S
C357 O358 1.278 . S
C357 O365 1.224 . S
O358 C357 1.278 . S
C359 O360 1.245 . S
C359 O371 1.232 . S
O360 C359 1.245 . S
O361 Co355 2.058 . S
O361 C387 1.269 . S
O362 Co354 2.074 . S
O362 C387 1.257 . S
H363 C388 0.930 . S
H364 C394 0.930 . S
O365 Co354 2.093 . S
O365 C357 1.224 . S
H366 C398 0.929 . S
H367 C400 0.930 . S
H368 C401 0.930 . S
H369 C399 0.929 . S
H370 C402 0.928 . S
O371 Co355 2.057 . S
O371 C359 1.232 . S
H372 C391 0.929 . S
H373 C392 0.929 . S
H374 C404 0.931 . S
H375 C396 0.929 . S
H376 C405 0.930 . S
H377 C397 0.931 . S
O378 Co354 2.097 . S
O378 C406 1.214 . S
H379 C407 0.929 . S
H380 C408 0.929 . S
H381 C409 0.930 . S
H382 C410 0.929 . S
H383 C412 0.930 . S
H384 C389 0.930 . S
H385 C393 0.930 . S
O386 Co355 2.037 . S
O386 C406 1.234 . S
C387 O361 1.269 . S
C387 O362 1.257 . S
C388 H363 0.930 . S
C388 C391 1.388 . S
C388 C393 1.418 . S
C389 H384 0.930 . S
C389 C392 1.404 . S
C389 C393 1.353 . S
N390 Co355 2.145 . S
N390 C391 1.397 . S
N390 C392 1.334 . S
C391 H372 0.929 . S
C391 C388 1.388 . S
C391 N390 1.397 . S
C392 H373 0.929 . S
C392 C389 1.404 . S
C392 N390 1.334 . S
C393 H385 0.930 . S
C393 C388 1.418 . S
C393 C389 1.353 . S
C394 H364 0.930 . S
C394 N395 1.330 . S
C394 C396 1.446 . S
N395 Co354 2.151 . S
N395 C394 1.330 . S
N395 C399 1.418 . S
C396 H375 0.929 . S
C396 C394 1.446 . S
C396 C397 1.332 . S
C397 H377 0.931 . S
C397 C396 1.332 . S
C397 C398 1.267 . S
C398 H366 0.929 . S
C398 C397 1.267 . S
C398 C399 1.251 . S
C399 H369 0.929 . S
C399 N395 1.418 . S
C399 C398 1.251 . S
C400 H367 0.930 . S
C400 C402 1.406 . S
C400 C405 1.261 . S
C401 H368 0.930 . S
C401 N403 1.325 . S
C401 C404 1.357 . S
C402 H370 0.928 . S
C402 C400 1.406 . S
C402 N403 1.261 . S
N403 Co354 2.214 . S
N403 C401 1.325 . S
N403 C402 1.261 . S
C404 H374 0.931 . S
C404 C401 1.357 . S
C404 C405 1.312 . S
C405 H376 0.930 . S
C405 C400 1.261 . S
C405 C404 1.312 . S
C406 O378 1.214 . S
C406 O386 1.234 . S
C407 H379 0.929 . S
C407 C410 1.391 . S
C407 C412 1.391 . S
C408 H380 0.929 . S
C408 C409 1.390 . S
C408 N411 1.391 . S
C409 H381 0.930 . S
C409 C408 1.390 . S
C409 C410 1.392 . S
C410 H382 0.929 . S
C410 C407 1.391 . S
C410 C409 1.392 . S
N411 Co355 2.257 . S
N411 C408 1.391 . S
N411 C412 1.388 . S
C412 H383 0.930 . S
C412 C407 1.391 . S
C412 N411 1.388 . S
Co413 O415 2.143 . S
Co413 O421 2.074 . S
Co413 O424 2.093 . S
Co413 O437 2.097 . S
Co413 N454 2.151 . S
Co413 N462 2.214 . S
Co414 O415 2.160 . S
Co414 O420 2.058 . S
Co414 O430 2.057 . S
Co414 O445 2.037 . S
Co414 N449 2.145 . S
Co414 N470 2.257 . S
O415 Co413 2.143 . S
O415 Co414 2.160 . S
C416 O417 1.278 . S
C416 O424 1.224 . S
O417 C416 1.278 . S
C418 O419 1.245 . S
C418 O430 1.232 . S
O419 C418 1.245 . S
O420 Co414 2.058 . S
O420 C446 1.269 . S
O421 Co413 2.074 . S
O421 C446 1.257 . S
H422 C447 0.930 . S
H423 C453 0.930 . S
O424 Co413 2.093 . S
O424 C416 1.224 . S
H425 C457 0.929 . S
H426 C459 0.930 . S
H427 C460 0.930 . S
H428 C458 0.929 . S
H429 C461 0.928 . S
O430 Co414 2.057 . S
O430 C418 1.232 . S
H431 C450 0.929 . S
H432 C451 0.929 . S
H433 C463 0.931 . S
H434 C455 0.929 . S
H435 C464 0.930 . S
H436 C456 0.931 . S
O437 Co413 2.097 . S
O437 C465 1.214 . S
H438 C466 0.929 . S
H439 C467 0.929 . S
H440 C468 0.930 . S
H441 C469 0.929 . S
H442 C471 0.930 . S
H443 C448 0.930 . S
H444 C452 0.930 . S
O445 Co414 2.037 . S
O445 C465 1.234 . S
C446 O420 1.269 . S
C446 O421 1.257 . S
C447 H422 0.930 . S
C447 C450 1.388 . S
C447 C452 1.418 . S
C448 H443 0.930 . S
C448 C451 1.404 . S
C448 C452 1.353 . S
N449 Co414 2.145 . S
N449 C450 1.397 . S
N449 C451 1.334 . S
C450 H431 0.929 . S
C450 C447 1.388 . S
C450 N449 1.397 . S
C451 H432 0.929 . S
C451 C448 1.404 . S
C451 N449 1.334 . S
C452 H444 0.930 . S
C452 C447 1.418 . S
C452 C448 1.353 . S
C453 H423 0.930 . S
C453 N454 1.330 . S
C453 C455 1.446 . S
N454 Co413 2.151 . S
N454 C453 1.330 . S
N454 C458 1.418 . S
C455 H434 0.929 . S
C455 C453 1.446 . S
C455 C456 1.332 . S
C456 H436 0.931 . S
C456 C455 1.332 . S
C456 C457 1.267 . S
C457 H425 0.929 . S
C457 C456 1.267 . S
C457 C458 1.251 . S
C458 H428 0.929 . S
C458 N454 1.418 . S
C458 C457 1.251 . S
C459 H426 0.930 . S
C459 C461 1.406 . S
C459 C464 1.261 . S
C460 H427 0.930 . S
C460 N462 1.325 . S
C460 C463 1.357 . S
C461 H429 0.928 . S
C461 C459 1.406 . S
C461 N462 1.261 . S
N462 Co413 2.214 . S
N462 C460 1.325 . S
N462 C461 1.261 . S
C463 H433 0.931 . S
C463 C460 1.357 . S
C463 C464 1.312 . S
C464 H435 0.930 . S
C464 C459 1.261 . S
C464 C463 1.312 . S
C465 O437 1.214 . S
C465 O445 1.234 . S
C466 H438 0.929 . S
C466 C469 1.391 . S
C466 C471 1.391 . S
C467 H439 0.929 . S
C467 C468 1.390 . S
C467 N470 1.391 . S
C468 H440 0.930 . S
C468 C467 1.390 . S
C468 C469 1.392 . S
C469 H441 0.929 . S
C469 C466 1.391 . S
C469 C468 1.392 . S
N470 Co414 2.257 . S
N470 C467 1.391 . S
N470 C471 1.388 . S
C471 H442 0.930 . S
C471 C466 1.391 . S
C471 N470 1.388 . S
Co472 O474 2.143 . S
Co472 O480 2.074 . S
Co472 O483 2.093 . S
Co472 O496 2.097 . S
Co472 N513 2.151 . S
Co472 N521 2.214 . S
Co473 O474 2.160 . S
Co473 O479 2.058 . S
Co473 O489 2.057 . S
Co473 O504 2.037 . S
Co473 N508 2.145 . S
Co473 N529 2.257 . S
O474 Co472 2.143 . S
O474 Co473 2.160 . S
C475 O476 1.278 . S
C475 O483 1.224 . S
O476 C475 1.278 . S
C477 O478 1.245 . S
C477 O489 1.232 . S
O478 C477 1.245 . S
O479 Co473 2.058 . S
O479 C505 1.269 . S
O480 Co472 2.074 . S
O480 C505 1.257 . S
H481 C506 0.930 . S
H482 C512 0.930 . S
O483 Co472 2.093 . S
O483 C475 1.224 . S
H484 C516 0.929 . S
H485 C518 0.930 . S
H486 C519 0.930 . S
H487 C517 0.929 . S
H488 C520 0.928 . S
O489 Co473 2.057 . S
O489 C477 1.232 . S
H490 C509 0.929 . S
H491 C510 0.929 . S
H492 C522 0.931 . S
H493 C514 0.929 . S
H494 C523 0.930 . S
H495 C515 0.931 . S
O496 Co472 2.097 . S
O496 C524 1.214 . S
H497 C525 0.929 . S
H498 C526 0.929 . S
H499 C527 0.930 . S
H500 C528 0.929 . S
H501 C530 0.930 . S
H502 C507 0.930 . S
H503 C511 0.930 . S
O504 Co473 2.037 . S
O504 C524 1.234 . S
C505 O479 1.269 . S
C505 O480 1.257 . S
C506 H481 0.930 . S
C506 C509 1.388 . S
C506 C511 1.418 . S
C507 H502 0.930 . S
C507 C510 1.404 . S
C507 C511 1.353 . S
N508 Co473 2.145 . S
N508 C509 1.397 . S
N508 C510 1.334 . S
C509 H490 0.929 . S
C509 C506 1.388 . S
C509 N508 1.397 . S
C510 H491 0.929 . S
C510 C507 1.404 . S
C510 N508 1.334 . S
C511 H503 0.930 . S
C511 C506 1.418 . S
C511 C507 1.353 . S
C512 H482 0.930 . S
C512 N513 1.330 . S
C512 C514 1.446 . S
N513 Co472 2.151 . S
N513 C512 1.330 . S
N513 C517 1.418 . S
C514 H493 0.929 . S
C514 C512 1.446 . S
C514 C515 1.332 . S
C515 H495 0.931 . S
C515 C514 1.332 . S
C515 C516 1.267 . S
C516 H484 0.929 . S
C516 C515 1.267 . S
C516 C517 1.251 . S
C517 H487 0.929 . S
C517 N513 1.418 . S
C517 C516 1.251 . S
C518 H485 0.930 . S
C518 C520 1.406 . S
C518 C523 1.261 . S
C519 H486 0.930 . S
C519 N521 1.325 . S
C519 C522 1.357 . S
C520 H488 0.928 . S
C520 C518 1.406 . S
C520 N521 1.261 . S
N521 Co472 2.214 . S
N521 C519 1.325 . S
N521 C520 1.261 . S
C522 H492 0.931 . S
C522 C519 1.357 . S
C522 C523 1.312 . S
C523 H494 0.930 . S
C523 C518 1.261 . S
C523 C522 1.312 . S
C524 O496 1.214 . S
C524 O504 1.234 . S
C525 H497 0.929 . S
C525 C528 1.391 . S
C525 C530 1.391 . S
C526 H498 0.929 . S
C526 C527 1.390 . S
C526 N529 1.391 . S
C527 H499 0.930 . S
C527 C526 1.390 . S
C527 C528 1.392 . S
C528 H500 0.929 . S
C528 C525 1.391 . S
C528 C527 1.392 . S
N529 Co473 2.257 . S
N529 C526 1.391 . S
N529 C530 1.388 . S
C530 H501 0.930 . S
C530 C525 1.391 . S
C530 N529 1.388 . S
Co531 O533 2.143 . S
Co531 O539 2.074 . S
Co531 O542 2.093 . S
Co531 O555 2.097 . S
Co531 N572 2.151 . S
Co531 N580 2.214 . S
Co532 O533 2.160 . S
Co532 O538 2.058 . S
Co532 O548 2.057 . S
Co532 O563 2.037 . S
Co532 N567 2.145 . S
Co532 N588 2.257 . S
O533 Co531 2.143 . S
O533 Co532 2.160 . S
C534 O535 1.278 . S
C534 O542 1.224 . S
O535 C534 1.278 . S
C536 O537 1.245 . S
C536 O548 1.232 . S
O537 C536 1.245 . S
O538 Co532 2.058 . S
O538 C564 1.269 . S
O539 Co531 2.074 . S
O539 C564 1.257 . S
H540 C565 0.930 . S
H541 C571 0.930 . S
O542 Co531 2.093 . S
O542 C534 1.224 . S
H543 C575 0.929 . S
H544 C577 0.930 . S
H545 C578 0.930 . S
H546 C576 0.929 . S
H547 C579 0.928 . S
O548 Co532 2.057 . S
O548 C536 1.232 . S
H549 C568 0.929 . S
H550 C569 0.929 . S
H551 C581 0.931 . S
H552 C573 0.929 . S
H553 C582 0.930 . S
H554 C574 0.931 . S
O555 Co531 2.097 . S
O555 C583 1.214 . S
H556 C584 0.929 . S
H557 C585 0.929 . S
H558 C586 0.930 . S
H559 C587 0.929 . S
H560 C589 0.930 . S
H561 C566 0.930 . S
H562 C570 0.930 . S
O563 Co532 2.037 . S
O563 C583 1.234 . S
C564 O538 1.269 . S
C564 O539 1.257 . S
C565 H540 0.930 . S
C565 C568 1.388 . S
C565 C570 1.418 . S
C566 H561 0.930 . S
C566 C569 1.404 . S
C566 C570 1.353 . S
N567 Co532 2.145 . S
N567 C568 1.397 . S
N567 C569 1.334 . S
C568 H549 0.929 . S
C568 C565 1.388 . S
C568 N567 1.397 . S
C569 H550 0.929 . S
C569 C566 1.404 . S
C569 N567 1.334 . S
C570 H562 0.930 . S
C570 C565 1.418 . S
C570 C566 1.353 . S
C571 H541 0.930 . S
C571 N572 1.330 . S
C571 C573 1.446 . S
N572 Co531 2.151 . S
N572 C571 1.330 . S
N572 C576 1.418 . S
C573 H552 0.929 . S
C573 C571 1.446 . S
C573 C574 1.332 . S
C574 H554 0.931 . S
C574 C573 1.332 . S
C574 C575 1.267 . S
C575 H543 0.929 . S
C575 C574 1.267 . S
C575 C576 1.251 . S
C576 H546 0.929 . S
C576 N572 1.418 . S
C576 C575 1.251 . S
C577 H544 0.930 . S
C577 C579 1.406 . S
C577 C582 1.261 . S
C578 H545 0.930 . S
C578 N580 1.325 . S
C578 C581 1.357 . S
C579 H547 0.928 . S
C579 C577 1.406 . S
C579 N580 1.261 . S
N580 Co531 2.214 . S
N580 C578 1.325 . S
N580 C579 1.261 . S
C581 H551 0.931 . S
C581 C578 1.357 . S
C581 C582 1.312 . S
C582 H553 0.930 . S
C582 C577 1.261 . S
C582 C581 1.312 . S
C583 O555 1.214 . S
C583 O563 1.234 . S
C584 H556 0.929 . S
C584 C587 1.391 . S
C584 C589 1.391 . S
C585 H557 0.929 . S
C585 C586 1.390 . S
C585 N588 1.391 . S
C586 H558 0.930 . S
C586 C585 1.390 . S
C586 C587 1.392 . S
C587 H559 0.929 . S
C587 C584 1.391 . S
C587 C586 1.392 . S
N588 Co532 2.257 . S
N588 C585 1.391 . S
N588 C589 1.388 . S
C589 H560 0.930 . S
C589 C584 1.391 . S
C589 N588 1.388 . S
Co590 O592 2.143 . S
Co590 O598 2.074 . S
Co590 O601 2.093 . S
Co590 O614 2.097 . S
Co590 N631 2.151 . S
Co590 N639 2.214 . S
Co591 O592 2.160 . S
Co591 O597 2.058 . S
Co591 O607 2.057 . S
Co591 O622 2.037 . S
Co591 N626 2.145 . S
Co591 N647 2.257 . S
O592 Co590 2.143 . S
O592 Co591 2.160 . S
C593 O594 1.278 . S
C593 O601 1.224 . S
O594 C593 1.278 . S
C595 O596 1.245 . S
C595 O607 1.232 . S
O596 C595 1.245 . S
O597 Co591 2.058 . S
O597 C623 1.269 . S
O598 Co590 2.074 . S
O598 C623 1.257 . S
H599 C624 0.930 . S
H600 C630 0.930 . S
O601 Co590 2.093 . S
O601 C593 1.224 . S
H602 C634 0.929 . S
H603 C636 0.930 . S
H604 C637 0.930 . S
H605 C635 0.929 . S
H606 C638 0.928 . S
O607 Co591 2.057 . S
O607 C595 1.232 . S
H608 C627 0.929 . S
H609 C628 0.929 . S
H610 C640 0.931 . S
H611 C632 0.929 . S
H612 C641 0.930 . S
H613 C633 0.931 . S
O614 Co590 2.097 . S
O614 C642 1.214 . S
H615 C643 0.929 . S
H616 C644 0.929 . S
H617 C645 0.930 . S
H618 C646 0.929 . S
H619 C648 0.930 . S
H620 C625 0.930 . S
H621 C629 0.930 . S
O622 Co591 2.037 . S
O622 C642 1.234 . S
C623 O597 1.269 . S
C623 O598 1.257 . S
C624 H599 0.930 . S
C624 C627 1.388 . S
C624 C629 1.418 . S
C625 H620 0.930 . S
C625 C628 1.404 . S
C625 C629 1.353 . S
N626 Co591 2.145 . S
N626 C627 1.397 . S
N626 C628 1.334 . S
C627 H608 0.929 . S
C627 C624 1.388 . S
C627 N626 1.397 . S
C628 H609 0.929 . S
C628 C625 1.404 . S
C628 N626 1.334 . S
C629 H621 0.930 . S
C629 C624 1.418 . S
C629 C625 1.353 . S
C630 H600 0.930 . S
C630 N631 1.330 . S
C630 C632 1.446 . S
N631 Co590 2.151 . S
N631 C630 1.330 . S
N631 C635 1.418 . S
C632 H611 0.929 . S
C632 C630 1.446 . S
C632 C633 1.332 . S
C633 H613 0.931 . S
C633 C632 1.332 . S
C633 C634 1.267 . S
C634 H602 0.929 . S
C634 C633 1.267 . S
C634 C635 1.251 . S
C635 H605 0.929 . S
C635 N631 1.418 . S
C635 C634 1.251 . S
C636 H603 0.930 . S
C636 C638 1.406 . S
C636 C641 1.261 . S
C637 H604 0.930 . S
C637 N639 1.325 . S
C637 C640 1.357 . S
C638 H606 0.928 . S
C638 C636 1.406 . S
C638 N639 1.261 . S
N639 Co590 2.214 . S
N639 C637 1.325 . S
N639 C638 1.261 . S
C640 H610 0.931 . S
C640 C637 1.357 . S
C640 C641 1.312 . S
C641 H612 0.930 . S
C641 C636 1.261 . S
C641 C640 1.312 . S
C642 O614 1.214 . S
C642 O622 1.234 . S
C643 H615 0.929 . S
C643 C646 1.391 . S
C643 C648 1.391 . S
C644 H616 0.929 . S
C644 C645 1.390 . S
C644 N647 1.391 . S
C645 H617 0.930 . S
C645 C644 1.390 . S
C645 C646 1.392 . S
C646 H618 0.929 . S
C646 C643 1.391 . S
C646 C645 1.392 . S
N647 Co591 2.257 . S
N647 C644 1.391 . S
N647 C648 1.388 . S
C648 H619 0.930 . S
C648 C643 1.391 . S
C648 N647 1.388 . S
Co649 O651 2.143 . S
Co649 O657 2.074 . S
Co649 O660 2.093 . S
Co649 O673 2.097 . S
Co649 N690 2.151 . S
Co649 N698 2.214 . S
Co650 O651 2.160 . S
Co650 O656 2.058 . S
Co650 O666 2.057 . S
Co650 O681 2.037 . S
Co650 N685 2.145 . S
Co650 N706 2.257 . S
O651 Co649 2.143 . S
O651 Co650 2.160 . S
C652 O653 1.278 . S
C652 O660 1.224 . S
O653 C652 1.278 . S
C654 O655 1.245 . S
C654 O666 1.232 . S
O655 C654 1.245 . S
O656 Co650 2.058 . S
O656 C682 1.269 . S
O657 Co649 2.074 . S
O657 C682 1.257 . S
H658 C683 0.930 . S
H659 C689 0.930 . S
O660 Co649 2.093 . S
O660 C652 1.224 . S
H661 C693 0.929 . S
H662 C695 0.930 . S
H663 C696 0.930 . S
H664 C694 0.929 . S
H665 C697 0.928 . S
O666 Co650 2.057 . S
O666 C654 1.232 . S
H667 C686 0.929 . S
H668 C687 0.929 . S
H669 C699 0.931 . S
H670 C691 0.929 . S
H671 C700 0.930 . S
H672 C692 0.931 . S
O673 Co649 2.097 . S
O673 C701 1.214 . S
H674 C702 0.929 . S
H675 C703 0.929 . S
H676 C704 0.930 . S
H677 C705 0.929 . S
H678 C707 0.930 . S
H679 C684 0.930 . S
H680 C688 0.930 . S
O681 Co650 2.037 . S
O681 C701 1.234 . S
C682 O656 1.269 . S
C682 O657 1.257 . S
C683 H658 0.930 . S
C683 C686 1.388 . S
C683 C688 1.418 . S
C684 H679 0.930 . S
C684 C687 1.404 . S
C684 C688 1.353 . S
N685 Co650 2.145 . S
N685 C686 1.397 . S
N685 C687 1.334 . S
C686 H667 0.929 . S
C686 C683 1.388 . S
C686 N685 1.397 . S
C687 H668 0.929 . S
C687 C684 1.404 . S
C687 N685 1.334 . S
C688 H680 0.930 . S
C688 C683 1.418 . S
C688 C684 1.353 . S
C689 H659 0.930 . S
C689 N690 1.330 . S
C689 C691 1.446 . S
N690 Co649 2.151 . S
N690 C689 1.330 . S
N690 C694 1.418 . S
C691 H670 0.929 . S
C691 C689 1.446 . S
C691 C692 1.332 . S
C692 H672 0.931 . S
C692 C691 1.332 . S
C692 C693 1.267 . S
C693 H661 0.929 . S
C693 C692 1.267 . S
C693 C694 1.251 . S
C694 H664 0.929 . S
C694 N690 1.418 . S
C694 C693 1.251 . S
C695 H662 0.930 . S
C695 C697 1.406 . S
C695 C700 1.261 . S
C696 H663 0.930 . S
C696 N698 1.325 . S
C696 C699 1.357 . S
C697 H665 0.928 . S
C697 C695 1.406 . S
C697 N698 1.261 . S
N698 Co649 2.214 . S
N698 C696 1.325 . S
N698 C697 1.261 . S
C699 H669 0.931 . S
C699 C696 1.357 . S
C699 C700 1.312 . S
C700 H671 0.930 . S
C700 C695 1.261 . S
C700 C699 1.312 . S
C701 O673 1.214 . S
C701 O681 1.234 . S
C702 H674 0.929 . S
C702 C705 1.391 . S
C702 C707 1.391 . S
C703 H675 0.929 . S
C703 C704 1.390 . S
C703 N706 1.391 . S
C704 H676 0.930 . S
C704 C703 1.390 . S
C704 C705 1.392 . S
C705 H677 0.929 . S
C705 C702 1.391 . S
C705 C704 1.392 . S
N706 Co650 2.257 . S
N706 C703 1.391 . S
N706 C707 1.388 . S
C707 H678 0.930 . S
C707 C702 1.391 . S
C707 N706 1.388 . S
Co708 O710 2.143 . S
Co708 O716 2.074 . S
Co708 O719 2.093 . S
Co708 O732 2.097 . S
Co708 N749 2.151 . S
Co708 N757 2.214 . S
Co709 O710 2.160 . S
Co709 O715 2.058 . S
Co709 O725 2.057 . S
Co709 O740 2.037 . S
Co709 N744 2.145 . S
Co709 N765 2.257 . S
O710 Co708 2.143 . S
O710 Co709 2.160 . S
C711 O712 1.278 . S
C711 O719 1.224 . S
O712 C711 1.278 . S
C713 O714 1.245 . S
C713 O725 1.232 . S
O714 C713 1.245 . S
O715 Co709 2.058 . S
O715 C741 1.269 . S
O716 Co708 2.074 . S
O716 C741 1.257 . S
H717 C742 0.930 . S
H718 C748 0.930 . S
O719 Co708 2.093 . S
O719 C711 1.224 . S
H720 C752 0.929 . S
H721 C754 0.930 . S
H722 C755 0.930 . S
H723 C753 0.929 . S
H724 C756 0.928 . S
O725 Co709 2.057 . S
O725 C713 1.232 . S
H726 C745 0.929 . S
H727 C746 0.929 . S
H728 C758 0.931 . S
H729 C750 0.929 . S
H730 C759 0.930 . S
H731 C751 0.931 . S
O732 Co708 2.097 . S
O732 C760 1.214 . S
H733 C761 0.929 . S
H734 C762 0.929 . S
H735 C763 0.930 . S
H736 C764 0.929 . S
H737 C766 0.930 . S
H738 C743 0.930 . S
H739 C747 0.930 . S
O740 Co709 2.037 . S
O740 C760 1.234 . S
C741 O715 1.269 . S
C741 O716 1.257 . S
C742 H717 0.930 . S
C742 C745 1.388 . S
C742 C747 1.418 . S
C743 H738 0.930 . S
C743 C746 1.404 . S
C743 C747 1.353 . S
N744 Co709 2.145 . S
N744 C745 1.397 . S
N744 C746 1.334 . S
C745 H726 0.929 . S
C745 C742 1.388 . S
C745 N744 1.397 . S
C746 H727 0.929 . S
C746 C743 1.404 . S
C746 N744 1.334 . S
C747 H739 0.930 . S
C747 C742 1.418 . S
C747 C743 1.353 . S
C748 H718 0.930 . S
C748 N749 1.330 . S
C748 C750 1.446 . S
N749 Co708 2.151 . S
N749 C748 1.330 . S
N749 C753 1.418 . S
C750 H729 0.929 . S
C750 C748 1.446 . S
C750 C751 1.332 . S
C751 H731 0.931 . S
C751 C750 1.332 . S
C751 C752 1.267 . S
C752 H720 0.929 . S
C752 C751 1.267 . S
C752 C753 1.251 . S
C753 H723 0.929 . S
C753 N749 1.418 . S
C753 C752 1.251 . S
C754 H721 0.930 . S
C754 C756 1.406 . S
C754 C759 1.261 . S
C755 H722 0.930 . S
C755 N757 1.325 . S
C755 C758 1.357 . S
C756 H724 0.928 . S
C756 C754 1.406 . S
C756 N757 1.261 . S
N757 Co708 2.214 . S
N757 C755 1.325 . S
N757 C756 1.261 . S
C758 H728 0.931 . S
C758 C755 1.357 . S
C758 C759 1.312 . S
C759 H730 0.930 . S
C759 C754 1.261 . S
C759 C758 1.312 . S
C760 O732 1.214 . S
C760 O740 1.234 . S
C761 H733 0.929 . S
C761 C764 1.391 . S
C761 C766 1.391 . S
C762 H734 0.929 . S
C762 C763 1.390 . S
C762 N765 1.391 . S
C763 H735 0.930 . S
C763 C762 1.390 . S
C763 C764 1.392 . S
C764 H736 0.929 . S
C764 C761 1.391 . S
C764 C763 1.392 . S
N765 Co709 2.257 . S
N765 C762 1.391 . S
N765 C766 1.388 . S
C766 H737 0.930 . S
C766 C761 1.391 . S
C766 N765 1.388 . S
Co767 O769 2.143 . S
Co767 O775 2.074 . S
Co767 O778 2.093 . S
Co767 O791 2.097 . S
Co767 N808 2.151 . S
Co767 N816 2.214 . S
Co768 O769 2.160 . S
Co768 O774 2.058 . S
Co768 O784 2.057 . S
Co768 O799 2.037 . S
Co768 N803 2.145 . S
Co768 N824 2.257 . S
O769 Co767 2.143 . S
O769 Co768 2.160 . S
C770 O771 1.278 . S
C770 O778 1.224 . S
O771 C770 1.278 . S
C772 O773 1.245 . S
C772 O784 1.232 . S
O773 C772 1.245 . S
O774 Co768 2.058 . S
O774 C800 1.269 . S
O775 Co767 2.074 . S
O775 C800 1.257 . S
H776 C801 0.930 . S
H777 C807 0.930 . S
O778 Co767 2.093 . S
O778 C770 1.224 . S
H779 C811 0.929 . S
H780 C813 0.930 . S
H781 C814 0.930 . S
H782 C812 0.929 . S
H783 C815 0.928 . S
O784 Co768 2.057 . S
O784 C772 1.232 . S
H785 C804 0.929 . S
H786 C805 0.929 . S
H787 C817 0.931 . S
H788 C809 0.929 . S
H789 C818 0.930 . S
H790 C810 0.931 . S
O791 Co767 2.097 . S
O791 C819 1.214 . S
H792 C820 0.929 . S
H793 C821 0.929 . S
H794 C822 0.930 . S
H795 C823 0.929 . S
H796 C825 0.930 . S
H797 C802 0.930 . S
H798 C806 0.930 . S
O799 Co768 2.037 . S
O799 C819 1.234 . S
C800 O774 1.269 . S
C800 O775 1.257 . S
C801 H776 0.930 . S
C801 C804 1.388 . S
C801 C806 1.418 . S
C802 H797 0.930 . S
C802 C805 1.404 . S
C802 C806 1.353 . S
N803 Co768 2.145 . S
N803 C804 1.397 . S
N803 C805 1.334 . S
C804 H785 0.929 . S
C804 C801 1.388 . S
C804 N803 1.397 . S
C805 H786 0.929 . S
C805 C802 1.404 . S
C805 N803 1.334 . S
C806 H798 0.930 . S
C806 C801 1.418 . S
C806 C802 1.353 . S
C807 H777 0.930 . S
C807 N808 1.330 . S
C807 C809 1.446 . S
N808 Co767 2.151 . S
N808 C807 1.330 . S
N808 C812 1.418 . S
C809 H788 0.929 . S
C809 C807 1.446 . S
C809 C810 1.332 . S
C810 H790 0.931 . S
C810 C809 1.332 . S
C810 C811 1.267 . S
C811 H779 0.929 . S
C811 C810 1.267 . S
C811 C812 1.251 . S
C812 H782 0.929 . S
C812 N808 1.418 . S
C812 C811 1.251 . S
C813 H780 0.930 . S
C813 C815 1.406 . S
C813 C818 1.261 . S
C814 H781 0.930 . S
C814 N816 1.325 . S
C814 C817 1.357 . S
C815 H783 0.928 . S
C815 C813 1.406 . S
C815 N816 1.261 . S
N816 Co767 2.214 . S
N816 C814 1.325 . S
N816 C815 1.261 . S
C817 H787 0.931 . S
C817 C814 1.357 . S
C817 C818 1.312 . S
C818 H789 0.930 . S
C818 C813 1.261 . S
C818 C817 1.312 . S
C819 O791 1.214 . S
C819 O799 1.234 . S
C820 H792 0.929 . S
C820 C823 1.391 . S
C820 C825 1.391 . S
C821 H793 0.929 . S
C821 C822 1.390 . S
C821 N824 1.391 . S
C822 H794 0.930 . S
C822 C821 1.390 . S
C822 C823 1.392 . S
C823 H795 0.929 . S
C823 C820 1.391 . S
C823 C822 1.392 . S
N824 Co768 2.257 . S
N824 C821 1.391 . S
N824 C825 1.388 . S
C825 H796 0.930 . S
C825 C820 1.391 . S
C825 N824 1.388 . S
Co826 O828 2.143 . S
Co826 O834 2.074 . S
Co826 O837 2.093 . S
Co826 O850 2.097 . S
Co826 N867 2.151 . S
Co826 N875 2.214 . S
Co827 O828 2.160 . S
Co827 O833 2.058 . S
Co827 O843 2.057 . S
Co827 O858 2.037 . S
Co827 N862 2.145 . S
Co827 N883 2.257 . S
O828 Co826 2.143 . S
O828 Co827 2.160 . S
C829 O830 1.278 . S
C829 O837 1.224 . S
O830 C829 1.278 . S
C831 O832 1.245 . S
C831 O843 1.232 . S
O832 C831 1.245 . S
O833 Co827 2.058 . S
O833 C859 1.269 . S
O834 Co826 2.074 . S
O834 C859 1.257 . S
H835 C860 0.930 . S
H836 C866 0.930 . S
O837 Co826 2.093 . S
O837 C829 1.224 . S
H838 C870 0.929 . S
H839 C872 0.930 . S
H840 C873 0.930 . S
H841 C871 0.929 . S
H842 C874 0.928 . S
O843 Co827 2.057 . S
O843 C831 1.232 . S
H844 C863 0.929 . S
H845 C864 0.929 . S
H846 C876 0.931 . S
H847 C868 0.929 . S
H848 C877 0.930 . S
H849 C869 0.931 . S
O850 Co826 2.097 . S
O850 C878 1.214 . S
H851 C879 0.929 . S
H852 C880 0.929 . S
H853 C881 0.930 . S
H854 C882 0.929 . S
H855 C884 0.930 . S
H856 C861 0.930 . S
H857 C865 0.930 . S
O858 Co827 2.037 . S
O858 C878 1.234 . S
C859 O833 1.269 . S
C859 O834 1.257 . S
C860 H835 0.930 . S
C860 C863 1.388 . S
C860 C865 1.418 . S
C861 H856 0.930 . S
C861 C864 1.404 . S
C861 C865 1.353 . S
N862 Co827 2.145 . S
N862 C863 1.397 . S
N862 C864 1.334 . S
C863 H844 0.929 . S
C863 C860 1.388 . S
C863 N862 1.397 . S
C864 H845 0.929 . S
C864 C861 1.404 . S
C864 N862 1.334 . S
C865 H857 0.930 . S
C865 C860 1.418 . S
C865 C861 1.353 . S
C866 H836 0.930 . S
C866 N867 1.330 . S
C866 C868 1.446 . S
N867 Co826 2.151 . S
N867 C866 1.330 . S
N867 C871 1.418 . S
C868 H847 0.929 . S
C868 C866 1.446 . S
C868 C869 1.332 . S
C869 H849 0.931 . S
C869 C868 1.332 . S
C869 C870 1.267 . S
C870 H838 0.929 . S
C870 C869 1.267 . S
C870 C871 1.251 . S
C871 H841 0.929 . S
C871 N867 1.418 . S
C871 C870 1.251 . S
C872 H839 0.930 . S
C872 C874 1.406 . S
C872 C877 1.261 . S
C873 H840 0.930 . S
C873 N875 1.325 . S
C873 C876 1.357 . S
C874 H842 0.928 . S
C874 C872 1.406 . S
C874 N875 1.261 . S
N875 Co826 2.214 . S
N875 C873 1.325 . S
N875 C874 1.261 . S
C876 H846 0.931 . S
C876 C873 1.357 . S
C876 C877 1.312 . S
C877 H848 0.930 . S
C877 C872 1.261 . S
C877 C876 1.312 . S
C878 O850 1.214 . S
C878 O858 1.234 . S
C879 H851 0.929 . S
C879 C882 1.391 . S
C879 C884 1.391 . S
C880 H852 0.929 . S
C880 C881 1.390 . S
C880 N883 1.391 . S
C881 H853 0.930 . S
C881 C880 1.390 . S
C881 C882 1.392 . S
C882 H854 0.929 . S
C882 C879 1.391 . S
C882 C881 1.392 . S
N883 Co827 2.257 . S
N883 C880 1.391 . S
N883 C884 1.388 . S
C884 H855 0.930 . S
C884 C879 1.391 . S
C884 N883 1.388 . S
Co885 O887 2.143 . S
Co885 O893 2.074 . S
Co885 O896 2.093 . S
Co885 O909 2.097 . S
Co885 N926 2.151 . S
Co885 N934 2.214 . S
Co886 O887 2.160 . S
Co886 O892 2.058 . S
Co886 O902 2.057 . S
Co886 O917 2.037 . S
Co886 N921 2.145 . S
Co886 N942 2.257 . S
O887 Co885 2.143 . S
O887 Co886 2.160 . S
C888 O889 1.278 . S
C888 O896 1.224 . S
O889 C888 1.278 . S
C890 O891 1.245 . S
C890 O902 1.232 . S
O891 C890 1.245 . S
O892 Co886 2.058 . S
O892 C918 1.269 . S
O893 Co885 2.074 . S
O893 C918 1.257 . S
H894 C919 0.930 . S
H895 C925 0.930 . S
O896 Co885 2.093 . S
O896 C888 1.224 . S
H897 C929 0.929 . S
H898 C931 0.930 . S
H899 C932 0.930 . S
H900 C930 0.929 . S
H901 C933 0.928 . S
O902 Co886 2.057 . S
O902 C890 1.232 . S
H903 C922 0.929 . S
H904 C923 0.929 . S
H905 C935 0.931 . S
H906 C927 0.929 . S
H907 C936 0.930 . S
H908 C928 0.931 . S
O909 Co885 2.097 . S
O909 C937 1.214 . S
H910 C938 0.929 . S
H911 C939 0.929 . S
H912 C940 0.930 . S
H913 C941 0.929 . S
H914 C943 0.930 . S
H915 C920 0.930 . S
H916 C924 0.930 . S
O917 Co886 2.037 . S
O917 C937 1.234 . S
C918 O892 1.269 . S
C918 O893 1.257 . S
C919 H894 0.930 . S
C919 C922 1.388 . S
C919 C924 1.418 . S
C920 H915 0.930 . S
C920 C923 1.404 . S
C920 C924 1.353 . S
N921 Co886 2.145 . S
N921 C922 1.397 . S
N921 C923 1.334 . S
C922 H903 0.929 . S
C922 C919 1.388 . S
C922 N921 1.397 . S
C923 H904 0.929 . S
C923 C920 1.404 . S
C923 N921 1.334 . S
C924 H916 0.930 . S
C924 C919 1.418 . S
C924 C920 1.353 . S
C925 H895 0.930 . S
C925 N926 1.330 . S
C925 C927 1.446 . S
N926 Co885 2.151 . S
N926 C925 1.330 . S
N926 C930 1.418 . S
C927 H906 0.929 . S
C927 C925 1.446 . S
C927 C928 1.332 . S
C928 H908 0.931 . S
C928 C927 1.332 . S
C928 C929 1.267 . S
C929 H897 0.929 . S
C929 C928 1.267 . S
C929 C930 1.251 . S
C930 H900 0.929 . S
C930 N926 1.418 . S
C930 C929 1.251 . S
C931 H898 0.930 . S
C931 C933 1.406 . S
C931 C936 1.261 . S
C932 H899 0.930 . S
C932 N934 1.325 . S
C932 C935 1.357 . S
C933 H901 0.928 . S
C933 C931 1.406 . S
C933 N934 1.261 . S
N934 Co885 2.214 . S
N934 C932 1.325 . S
N934 C933 1.261 . S
C935 H905 0.931 . S
C935 C932 1.357 . S
C935 C936 1.312 . S
C936 H907 0.930 . S
C936 C931 1.261 . S
C936 C935 1.312 . S
C937 O909 1.214 . S
C937 O917 1.234 . S
C938 H910 0.929 . S
C938 C941 1.391 . S
C938 C943 1.391 . S
C939 H911 0.929 . S
C939 C940 1.390 . S
C939 N942 1.391 . S
C940 H912 0.930 . S
C940 C939 1.390 . S
C940 C941 1.392 . S
C941 H913 0.929 . S
C941 C938 1.391 . S
C941 C940 1.392 . S
N942 Co886 2.257 . S
N942 C939 1.391 . S
N942 C943 1.388 . S
C943 H914 0.930 . S
C943 C938 1.391 . S
C943 N942 1.388 . S
Co944 O946 2.143 . S
Co944 O952 2.074 . S
Co944 O955 2.093 . S
Co944 O968 2.097 . S
Co944 N985 2.151 . S
Co944 N993 2.214 . S
Co945 O946 2.160 . S
Co945 O951 2.058 . S
Co945 O961 2.057 . S
Co945 O976 2.037 . S
Co945 N980 2.145 . S
Co945 N1001 2.257 . S
O946 Co944 2.143 . S
O946 Co945 2.160 . S
C947 O948 1.278 . S
C947 O955 1.224 . S
O948 C947 1.278 . S
C949 O950 1.245 . S
C949 O961 1.232 . S
O950 C949 1.245 . S
O951 Co945 2.058 . S
O951 C977 1.269 . S
O952 Co944 2.074 . S
O952 C977 1.257 . S
H953 C978 0.930 . S
H954 C984 0.930 . S
O955 Co944 2.093 . S
O955 C947 1.224 . S
H956 C988 0.929 . S
H957 C990 0.930 . S
H958 C991 0.930 . S
H959 C989 0.929 . S
H960 C992 0.928 . S
O961 Co945 2.057 . S
O961 C949 1.232 . S
H962 C981 0.929 . S
H963 C982 0.929 . S
H964 C994 0.931 . S
H965 C986 0.929 . S
H966 C995 0.930 . S
H967 C987 0.931 . S
O968 Co944 2.097 . S
O968 C996 1.214 . S
H969 C997 0.929 . S
H970 C998 0.929 . S
H971 C999 0.930 . S
H972 C1000 0.929 . S
H973 C1002 0.930 . S
H974 C979 0.930 . S
H975 C983 0.930 . S
O976 Co945 2.037 . S
O976 C996 1.234 . S
C977 O951 1.269 . S
C977 O952 1.257 . S
C978 H953 0.930 . S
C978 C981 1.388 . S
C978 C983 1.418 . S
C979 H974 0.930 . S
C979 C982 1.404 . S
C979 C983 1.353 . S
N980 Co945 2.145 . S
N980 C981 1.397 . S
N980 C982 1.334 . S
C981 H962 0.929 . S
C981 C978 1.388 . S
C981 N980 1.397 . S
C982 H963 0.929 . S
C982 C979 1.404 . S
C982 N980 1.334 . S
C983 H975 0.930 . S
C983 C978 1.418 . S
C983 C979 1.353 . S
C984 H954 0.930 . S
C984 N985 1.330 . S
C984 C986 1.446 . S
N985 Co944 2.151 . S
N985 C984 1.330 . S
N985 C989 1.418 . S
C986 H965 0.929 . S
C986 C984 1.446 . S
C986 C987 1.332 . S
C987 H967 0.931 . S
C987 C986 1.332 . S
C987 C988 1.267 . S
C988 H956 0.929 . S
C988 C987 1.267 . S
C988 C989 1.251 . S
C989 H959 0.929 . S
C989 N985 1.418 . S
C989 C988 1.251 . S
C990 H957 0.930 . S
C990 C992 1.406 . S
C990 C995 1.261 . S
C991 H958 0.930 . S
C991 N993 1.325 . S
C991 C994 1.357 . S
C992 H960 0.928 . S
C992 C990 1.406 . S
C992 N993 1.261 . S
N993 Co944 2.214 . S
N993 C991 1.325 . S
N993 C992 1.261 . S
C994 H964 0.931 . S
C994 C991 1.357 . S
C994 C995 1.312 . S
C995 H966 0.930 . S
C995 C990 1.261 . S
C995 C994 1.312 . S
C996 O968 1.214 . S
C996 O976 1.234 . S
C997 H969 0.929 . S
C997 C1000 1.391 . S
C997 C1002 1.391 . S
C998 H970 0.929 . S
C998 C999 1.390 . S
C998 N1001 1.391 . S
C999 H971 0.930 . S
C999 C998 1.390 . S
C999 C1000 1.392 . S
C1000 H972 0.929 . S
C1000 C997 1.391 . S
C1000 C999 1.392 . S
N1001 Co945 2.257 . S
N1001 C998 1.391 . S
N1001 C1002 1.388 . S
C1002 H973 0.930 . S
C1002 C997 1.391 . S
C1002 N1001 1.388 . S
Co1003 O1005 2.143 . S
Co1003 O1011 2.074 . S
Co1003 O1014 2.093 . S
Co1003 O1027 2.097 . S
Co1003 N1044 2.151 . S
Co1003 N1052 2.214 . S
Co1004 O1005 2.160 . S
Co1004 O1010 2.058 . S
Co1004 O1020 2.057 . S
Co1004 O1035 2.037 . S
Co1004 N1039 2.145 . S
Co1004 N1060 2.257 . S
O1005 Co1003 2.143 . S
O1005 Co1004 2.160 . S
C1006 O1007 1.278 . S
C1006 O1014 1.224 . S
O1007 C1006 1.278 . S
C1008 O1009 1.245 . S
C1008 O1020 1.232 . S
O1009 C1008 1.245 . S
O1010 Co1004 2.058 . S
O1010 C1036 1.269 . S
O1011 Co1003 2.074 . S
O1011 C1036 1.257 . S
H1012 C1037 0.930 . S
H1013 C1043 0.930 . S
O1014 Co1003 2.093 . S
O1014 C1006 1.224 . S
H1015 C1047 0.929 . S
H1016 C1049 0.930 . S
H1017 C1050 0.930 . S
H1018 C1048 0.929 . S
H1019 C1051 0.928 . S
O1020 Co1004 2.057 . S
O1020 C1008 1.232 . S
H1021 C1040 0.929 . S
H1022 C1041 0.929 . S
H1023 C1053 0.931 . S
H1024 C1045 0.929 . S
H1025 C1054 0.930 . S
H1026 C1046 0.931 . S
O1027 Co1003 2.097 . S
O1027 C1055 1.214 . S
H1028 C1056 0.929 . S
H1029 C1057 0.929 . S
H1030 C1058 0.930 . S
H1031 C1059 0.929 . S
H1032 C1061 0.930 . S
H1033 C1038 0.930 . S
H1034 C1042 0.930 . S
O1035 Co1004 2.037 . S
O1035 C1055 1.234 . S
C1036 O1010 1.269 . S
C1036 O1011 1.257 . S
C1037 H1012 0.930 . S
C1037 C1040 1.388 . S
C1037 C1042 1.418 . S
C1038 H1033 0.930 . S
C1038 C1041 1.404 . S
C1038 C1042 1.353 . S
N1039 Co1004 2.145 . S
N1039 C1040 1.397 . S
N1039 C1041 1.334 . S
C1040 H1021 0.929 . S
C1040 C1037 1.388 . S
C1040 N1039 1.397 . S
C1041 H1022 0.929 . S
C1041 C1038 1.404 . S
C1041 N1039 1.334 . S
C1042 H1034 0.930 . S
C1042 C1037 1.418 . S
C1042 C1038 1.353 . S
C1043 H1013 0.930 . S
C1043 N1044 1.330 . S
C1043 C1045 1.446 . S
N1044 Co1003 2.151 . S
N1044 C1043 1.330 . S
N1044 C1048 1.418 . S
C1045 H1024 0.929 . S
C1045 C1043 1.446 . S
C1045 C1046 1.332 . S
C1046 H1026 0.931 . S
C1046 C1045 1.332 . S
C1046 C1047 1.267 . S
C1047 H1015 0.929 . S
C1047 C1046 1.267 . S
C1047 C1048 1.251 . S
C1048 H1018 0.929 . S
C1048 N1044 1.418 . S
C1048 C1047 1.251 . S
C1049 H1016 0.930 . S
C1049 C1051 1.406 . S
C1049 C1054 1.261 . S
C1050 H1017 0.930 . S
C1050 N1052 1.325 . S
C1050 C1053 1.357 . S
C1051 H1019 0.928 . S
C1051 C1049 1.406 . S
C1051 N1052 1.261 . S
N1052 Co1003 2.214 . S
N1052 C1050 1.325 . S
N1052 C1051 1.261 . S
C1053 H1023 0.931 . S
C1053 C1050 1.357 . S
C1053 C1054 1.312 . S
C1054 H1025 0.930 . S
C1054 C1049 1.261 . S
C1054 C1053 1.312 . S
C1055 O1027 1.214 . S
C1055 O1035 1.234 . S
C1056 H1028 0.929 . S
C1056 C1059 1.391 . S
C1056 C1061 1.391 . S
C1057 H1029 0.929 . S
C1057 C1058 1.390 . S
C1057 N1060 1.391 . S
C1058 H1030 0.930 . S
C1058 C1057 1.390 . S
C1058 C1059 1.392 . S
C1059 H1031 0.929 . S
C1059 C1056 1.391 . S
C1059 C1058 1.392 . S
N1060 Co1004 2.257 . S
N1060 C1057 1.391 . S
N1060 C1061 1.388 . S
C1061 H1032 0.930 . S
C1061 C1056 1.391 . S
C1061 N1060 1.388 . S
Co1062 O1064 2.143 . S
Co1062 O1070 2.074 . S
Co1062 O1073 2.093 . S
Co1062 O1086 2.097 . S
Co1062 N1103 2.151 . S
Co1062 N1111 2.214 . S
Co1063 O1064 2.160 . S
Co1063 O1069 2.058 . S
Co1063 O1079 2.057 . S
Co1063 O1094 2.037 . S
Co1063 N1098 2.145 . S
Co1063 N1119 2.257 . S
O1064 Co1062 2.143 . S
O1064 Co1063 2.160 . S
C1065 O1066 1.278 . S
C1065 O1073 1.224 . S
O1066 C1065 1.278 . S
C1067 O1068 1.245 . S
C1067 O1079 1.232 . S
O1068 C1067 1.245 . S
O1069 Co1063 2.058 . S
O1069 C1095 1.269 . S
O1070 Co1062 2.074 . S
O1070 C1095 1.257 . S
H1071 C1096 0.930 . S
H1072 C1102 0.930 . S
O1073 Co1062 2.093 . S
O1073 C1065 1.224 . S
H1074 C1106 0.929 . S
H1075 C1108 0.930 . S
H1076 C1109 0.930 . S
H1077 C1107 0.929 . S
H1078 C1110 0.928 . S
O1079 Co1063 2.057 . S
O1079 C1067 1.232 . S
H1080 C1099 0.929 . S
H1081 C1100 0.929 . S
H1082 C1112 0.931 . S
H1083 C1104 0.929 . S
H1084 C1113 0.930 . S
H1085 C1105 0.931 . S
O1086 Co1062 2.097 . S
O1086 C1114 1.214 . S
H1087 C1115 0.929 . S
H1088 C1116 0.929 . S
H1089 C1117 0.930 . S
H1090 C1118 0.929 . S
H1091 C1120 0.930 . S
H1092 C1097 0.930 . S
H1093 C1101 0.930 . S
O1094 Co1063 2.037 . S
O1094 C1114 1.234 . S
C1095 O1069 1.269 . S
C1095 O1070 1.257 . S
C1096 H1071 0.930 . S
C1096 C1099 1.388 . S
C1096 C1101 1.418 . S
C1097 H1092 0.930 . S
C1097 C1100 1.404 . S
C1097 C1101 1.353 . S
N1098 Co1063 2.145 . S
N1098 C1099 1.397 . S
N1098 C1100 1.334 . S
C1099 H1080 0.929 . S
C1099 C1096 1.388 . S
C1099 N1098 1.397 . S
C1100 H1081 0.929 . S
C1100 C1097 1.404 . S
C1100 N1098 1.334 . S
C1101 H1093 0.930 . S
C1101 C1096 1.418 . S
C1101 C1097 1.353 . S
C1102 H1072 0.930 . S
C1102 N1103 1.330 . S
C1102 C1104 1.446 . S
N1103 Co1062 2.151 . S
N1103 C1102 1.330 . S
N1103 C1107 1.418 . S
C1104 H1083 0.929 . S
C1104 C1102 1.446 . S
C1104 C1105 1.332 . S
C1105 H1085 0.931 . S
C1105 C1104 1.332 . S
C1105 C1106 1.267 . S
C1106 H1074 0.929 . S
C1106 C1105 1.267 . S
C1106 C1107 1.251 . S
C1107 H1077 0.929 . S
C1107 N1103 1.418 . S
C1107 C1106 1.251 . S
C1108 H1075 0.930 . S
C1108 C1110 1.406 . S
C1108 C1113 1.261 . S
C1109 H1076 0.930 . S
C1109 N1111 1.325 . S
C1109 C1112 1.357 . S
C1110 H1078 0.928 . S
C1110 C1108 1.406 . S
C1110 N1111 1.261 . S
N1111 Co1062 2.214 . S
N1111 C1109 1.325 . S
N1111 C1110 1.261 . S
C1112 H1082 0.931 . S
C1112 C1109 1.357 . S
C1112 C1113 1.312 . S
C1113 H1084 0.930 . S
C1113 C1108 1.261 . S
C1113 C1112 1.312 . S
C1114 O1086 1.214 . S
C1114 O1094 1.234 . S
C1115 H1087 0.929 . S
C1115 C1118 1.391 . S
C1115 C1120 1.391 . S
C1116 H1088 0.929 . S
C1116 C1117 1.390 . S
C1116 N1119 1.391 . S
C1117 H1089 0.930 . S
C1117 C1116 1.390 . S
C1117 C1118 1.392 . S
C1118 H1090 0.929 . S
C1118 C1115 1.391 . S
C1118 C1117 1.392 . S
N1119 Co1063 2.257 . S
N1119 C1116 1.391 . S
N1119 C1120 1.388 . S
C1120 H1091 0.930 . S
C1120 C1115 1.391 . S
C1120 N1119 1.388 . S
Co1121 O1123 2.143 . S
Co1121 O1129 2.074 . S
Co1121 O1132 2.093 . S
Co1121 O1145 2.097 . S
Co1121 N1162 2.151 . S
Co1121 N1170 2.214 . S
Co1122 O1123 2.160 . S
Co1122 O1128 2.058 . S
Co1122 O1138 2.057 . S
Co1122 O1153 2.037 . S
Co1122 N1157 2.145 . S
Co1122 N1178 2.257 . S
O1123 Co1121 2.143 . S
O1123 Co1122 2.160 . S
C1124 O1125 1.278 . S
C1124 O1132 1.224 . S
O1125 C1124 1.278 . S
C1126 O1127 1.245 . S
C1126 O1138 1.232 . S
O1127 C1126 1.245 . S
O1128 Co1122 2.058 . S
O1128 C1154 1.269 . S
O1129 Co1121 2.074 . S
O1129 C1154 1.257 . S
H1130 C1155 0.930 . S
H1131 C1161 0.930 . S
O1132 Co1121 2.093 . S
O1132 C1124 1.224 . S
H1133 C1165 0.929 . S
H1134 C1167 0.930 . S
H1135 C1168 0.930 . S
H1136 C1166 0.929 . S
H1137 C1169 0.928 . S
O1138 Co1122 2.057 . S
O1138 C1126 1.232 . S
H1139 C1158 0.929 . S
H1140 C1159 0.929 . S
H1141 C1171 0.931 . S
H1142 C1163 0.929 . S
H1143 C1172 0.930 . S
H1144 C1164 0.931 . S
O1145 Co1121 2.097 . S
O1145 C1173 1.214 . S
H1146 C1174 0.929 . S
H1147 C1175 0.929 . S
H1148 C1176 0.930 . S
H1149 C1177 0.929 . S
H1150 C1179 0.930 . S
H1151 C1156 0.930 . S
H1152 C1160 0.930 . S
O1153 Co1122 2.037 . S
O1153 C1173 1.234 . S
C1154 O1128 1.269 . S
C1154 O1129 1.257 . S
C1155 H1130 0.930 . S
C1155 C1158 1.388 . S
C1155 C1160 1.418 . S
C1156 H1151 0.930 . S
C1156 C1159 1.404 . S
C1156 C1160 1.353 . S
N1157 Co1122 2.145 . S
N1157 C1158 1.397 . S
N1157 C1159 1.334 . S
C1158 H1139 0.929 . S
C1158 C1155 1.388 . S
C1158 N1157 1.397 . S
C1159 H1140 0.929 . S
C1159 C1156 1.404 . S
C1159 N1157 1.334 . S
C1160 H1152 0.930 . S
C1160 C1155 1.418 . S
C1160 C1156 1.353 . S
C1161 H1131 0.930 . S
C1161 N1162 1.330 . S
C1161 C1163 1.446 . S
N1162 Co1121 2.151 . S
N1162 C1161 1.330 . S
N1162 C1166 1.418 . S
C1163 H1142 0.929 . S
C1163 C1161 1.446 . S
C1163 C1164 1.332 . S
C1164 H1144 0.931 . S
C1164 C1163 1.332 . S
C1164 C1165 1.267 . S
C1165 H1133 0.929 . S
C1165 C1164 1.267 . S
C1165 C1166 1.251 . S
C1166 H1136 0.929 . S
C1166 N1162 1.418 . S
C1166 C1165 1.251 . S
C1167 H1134 0.930 . S
C1167 C1169 1.406 . S
C1167 C1172 1.261 . S
C1168 H1135 0.930 . S
C1168 N1170 1.325 . S
C1168 C1171 1.357 . S
C1169 H1137 0.928 . S
C1169 C1167 1.406 . S
C1169 N1170 1.261 . S
N1170 Co1121 2.214 . S
N1170 C1168 1.325 . S
N1170 C1169 1.261 . S
C1171 H1141 0.931 . S
C1171 C1168 1.357 . S
C1171 C1172 1.312 . S
C1172 H1143 0.930 . S
C1172 C1167 1.261 . S
C1172 C1171 1.312 . S
C1173 O1145 1.214 . S
C1173 O1153 1.234 . S
C1174 H1146 0.929 . S
C1174 C1177 1.391 . S
C1174 C1179 1.391 . S
C1175 H1147 0.929 . S
C1175 C1176 1.390 . S
C1175 N1178 1.391 . S
C1176 H1148 0.930 . S
C1176 C1175 1.390 . S
C1176 C1177 1.392 . S
C1177 H1149 0.929 . S
C1177 C1174 1.391 . S
C1177 C1176 1.392 . S
N1178 Co1122 2.257 . S
N1178 C1175 1.391 . S
N1178 C1179 1.388 . S
C1179 H1150 0.930 . S
C1179 C1174 1.391 . S
C1179 N1178 1.388 . S
Co1180 O1182 2.143 . S
Co1180 O1188 2.074 . S
Co1180 O1191 2.093 . S
Co1180 O1204 2.097 . S
Co1180 N1221 2.151 . S
Co1180 N1229 2.214 . S
Co1181 O1182 2.160 . S
Co1181 O1187 2.058 . S
Co1181 O1197 2.057 . S
Co1181 O1212 2.037 . S
Co1181 N1216 2.145 . S
Co1181 N1237 2.257 . S
O1182 Co1180 2.143 . S
O1182 Co1181 2.160 . S
C1183 O1184 1.278 . S
C1183 O1191 1.224 . S
O1184 C1183 1.278 . S
C1185 O1186 1.245 . S
C1185 O1197 1.232 . S
O1186 C1185 1.245 . S
O1187 Co1181 2.058 . S
O1187 C1213 1.269 . S
O1188 Co1180 2.074 . S
O1188 C1213 1.257 . S
H1189 C1214 0.930 . S
H1190 C1220 0.930 . S
O1191 Co1180 2.093 . S
O1191 C1183 1.224 . S
H1192 C1224 0.929 . S
H1193 C1226 0.930 . S
H1194 C1227 0.930 . S
H1195 C1225 0.929 . S
H1196 C1228 0.928 . S
O1197 Co1181 2.057 . S
O1197 C1185 1.232 . S
H1198 C1217 0.929 . S
H1199 C1218 0.929 . S
H1200 C1230 0.931 . S
H1201 C1222 0.929 . S
H1202 C1231 0.930 . S
H1203 C1223 0.931 . S
O1204 Co1180 2.097 . S
O1204 C1232 1.214 . S
H1205 C1233 0.929 . S
H1206 C1234 0.929 . S
H1207 C1235 0.930 . S
H1208 C1236 0.929 . S
H1209 C1238 0.930 . S
H1210 C1215 0.930 . S
H1211 C1219 0.930 . S
O1212 Co1181 2.037 . S
O1212 C1232 1.234 . S
C1213 O1187 1.269 . S
C1213 O1188 1.257 . S
C1214 H1189 0.930 . S
C1214 C1217 1.388 . S
C1214 C1219 1.418 . S
C1215 H1210 0.930 . S
C1215 C1218 1.404 . S
C1215 C1219 1.353 . S
N1216 Co1181 2.145 . S
N1216 C1217 1.397 . S
N1216 C1218 1.334 . S
C1217 H1198 0.929 . S
C1217 C1214 1.388 . S
C1217 N1216 1.397 . S
C1218 H1199 0.929 . S
C1218 C1215 1.404 . S
C1218 N1216 1.334 . S
C1219 H1211 0.930 . S
C1219 C1214 1.418 . S
C1219 C1215 1.353 . S
C1220 H1190 0.930 . S
C1220 N1221 1.330 . S
C1220 C1222 1.446 . S
N1221 Co1180 2.151 . S
N1221 C1220 1.330 . S
N1221 C1225 1.418 . S
C1222 H1201 0.929 . S
C1222 C1220 1.446 . S
C1222 C1223 1.332 . S
C1223 H1203 0.931 . S
C1223 C1222 1.332 . S
C1223 C1224 1.267 . S
C1224 H1192 0.929 . S
C1224 C1223 1.267 . S
C1224 C1225 1.251 . S
C1225 H1195 0.929 . S
C1225 N1221 1.418 . S
C1225 C1224 1.251 . S
C1226 H1193 0.930 . S
C1226 C1228 1.406 . S
C1226 C1231 1.261 . S
C1227 H1194 0.930 . S
C1227 N1229 1.325 . S
C1227 C1230 1.357 . S
C1228 H1196 0.928 . S
C1228 C1226 1.406 . S
C1228 N1229 1.261 . S
N1229 Co1180 2.214 . S
N1229 C1227 1.325 . S
N1229 C1228 1.261 . S
C1230 H1200 0.931 . S
C1230 C1227 1.357 . S
C1230 C1231 1.312 . S
C1231 H1202 0.930 . S
C1231 C1226 1.261 . S
C1231 C1230 1.312 . S
C1232 O1204 1.214 . S
C1232 O1212 1.234 . S
C1233 H1205 0.929 . S
C1233 C1236 1.391 . S
C1233 C1238 1.391 . S
C1234 H1206 0.929 . S
C1234 C1235 1.390 . S
C1234 N1237 1.391 . S
C1235 H1207 0.930 . S
C1235 C1234 1.390 . S
C1235 C1236 1.392 . S
C1236 H1208 0.929 . S
C1236 C1233 1.391 . S
C1236 C1235 1.392 . S
N1237 Co1181 2.257 . S
N1237 C1234 1.391 . S
N1237 C1238 1.388 . S
C1238 H1209 0.930 . S
C1238 C1233 1.391 . S
C1238 N1237 1.388 . S
Co1239 O1241 2.143 . S
Co1239 O1247 2.074 . S
Co1239 O1250 2.093 . S
Co1239 O1263 2.097 . S
Co1239 N1280 2.151 . S
Co1239 N1288 2.214 . S
Co1240 O1241 2.160 . S
Co1240 O1246 2.058 . S
Co1240 O1256 2.057 . S
Co1240 O1271 2.037 . S
Co1240 N1275 2.145 . S
Co1240 N1296 2.257 . S
O1241 Co1239 2.143 . S
O1241 Co1240 2.160 . S
C1242 O1243 1.278 . S
C1242 O1250 1.224 . S
O1243 C1242 1.278 . S
C1244 O1245 1.245 . S
C1244 O1256 1.232 . S
O1245 C1244 1.245 . S
O1246 Co1240 2.058 . S
O1246 C1272 1.269 . S
O1247 Co1239 2.074 . S
O1247 C1272 1.257 . S
H1248 C1273 0.930 . S
H1249 C1279 0.930 . S
O1250 Co1239 2.093 . S
O1250 C1242 1.224 . S
H1251 C1283 0.929 . S
H1252 C1285 0.930 . S
H1253 C1286 0.930 . S
H1254 C1284 0.929 . S
H1255 C1287 0.928 . S
O1256 Co1240 2.057 . S
O1256 C1244 1.232 . S
H1257 C1276 0.929 . S
H1258 C1277 0.929 . S
H1259 C1289 0.931 . S
H1260 C1281 0.929 . S
H1261 C1290 0.930 . S
H1262 C1282 0.931 . S
O1263 Co1239 2.097 . S
O1263 C1291 1.214 . S
H1264 C1292 0.929 . S
H1265 C1293 0.929 . S
H1266 C1294 0.930 . S
H1267 C1295 0.929 . S
H1268 C1297 0.930 . S
H1269 C1274 0.930 . S
H1270 C1278 0.930 . S
O1271 Co1240 2.037 . S
O1271 C1291 1.234 . S
C1272 O1246 1.269 . S
C1272 O1247 1.257 . S
C1273 H1248 0.930 . S
C1273 C1276 1.388 . S
C1273 C1278 1.418 . S
C1274 H1269 0.930 . S
C1274 C1277 1.404 . S
C1274 C1278 1.353 . S
N1275 Co1240 2.145 . S
N1275 C1276 1.397 . S
N1275 C1277 1.334 . S
C1276 H1257 0.929 . S
C1276 C1273 1.388 . S
C1276 N1275 1.397 . S
C1277 H1258 0.929 . S
C1277 C1274 1.404 . S
C1277 N1275 1.334 . S
C1278 H1270 0.930 . S
C1278 C1273 1.418 . S
C1278 C1274 1.353 . S
C1279 H1249 0.930 . S
C1279 N1280 1.330 . S
C1279 C1281 1.446 . S
N1280 Co1239 2.151 . S
N1280 C1279 1.330 . S
N1280 C1284 1.418 . S
C1281 H1260 0.929 . S
C1281 C1279 1.446 . S
C1281 C1282 1.332 . S
C1282 H1262 0.931 . S
C1282 C1281 1.332 . S
C1282 C1283 1.267 . S
C1283 H1251 0.929 . S
C1283 C1282 1.267 . S
C1283 C1284 1.251 . S
C1284 H1254 0.929 . S
C1284 N1280 1.418 . S
C1284 C1283 1.251 . S
C1285 H1252 0.930 . S
C1285 C1287 1.406 . S
C1285 C1290 1.261 . S
C1286 H1253 0.930 . S
C1286 N1288 1.325 . S
C1286 C1289 1.357 . S
C1287 H1255 0.928 . S
C1287 C1285 1.406 . S
C1287 N1288 1.261 . S
N1288 Co1239 2.214 . S
N1288 C1286 1.325 . S
N1288 C1287 1.261 . S
C1289 H1259 0.931 . S
C1289 C1286 1.357 . S
C1289 C1290 1.312 . S
C1290 H1261 0.930 . S
C1290 C1285 1.261 . S
C1290 C1289 1.312 . S
C1291 O1263 1.214 . S
C1291 O1271 1.234 . S
C1292 H1264 0.929 . S
C1292 C1295 1.391 . S
C1292 C1297 1.391 . S
C1293 H1265 0.929 . S
C1293 C1294 1.390 . S
C1293 N1296 1.391 . S
C1294 H1266 0.930 . S
C1294 C1293 1.390 . S
C1294 C1295 1.392 . S
C1295 H1267 0.929 . S
C1295 C1292 1.391 . S
C1295 C1294 1.392 . S
N1296 Co1240 2.257 . S
N1296 C1293 1.391 . S
N1296 C1297 1.388 . S
C1297 H1268 0.930 . S
C1297 C1292 1.391 . S
C1297 N1296 1.388 . S
Co1298 O1300 2.143 . S
Co1298 O1306 2.074 . S
Co1298 O1309 2.093 . S
Co1298 O1322 2.097 . S
Co1298 N1339 2.151 . S
Co1298 N1347 2.214 . S
Co1299 O1300 2.160 . S
Co1299 O1305 2.058 . S
Co1299 O1315 2.057 . S
Co1299 O1330 2.037 . S
Co1299 N1334 2.145 . S
Co1299 N1355 2.257 . S
O1300 Co1298 2.143 . S
O1300 Co1299 2.160 . S
C1301 O1302 1.278 . S
C1301 O1309 1.224 . S
O1302 C1301 1.278 . S
C1303 O1304 1.245 . S
C1303 O1315 1.232 . S
O1304 C1303 1.245 . S
O1305 Co1299 2.058 . S
O1305 C1331 1.269 . S
O1306 Co1298 2.074 . S
O1306 C1331 1.257 . S
H1307 C1332 0.930 . S
H1308 C1338 0.930 . S
O1309 Co1298 2.093 . S
O1309 C1301 1.224 . S
H1310 C1342 0.929 . S
H1311 C1344 0.930 . S
H1312 C1345 0.930 . S
H1313 C1343 0.929 . S
H1314 C1346 0.928 . S
O1315 Co1299 2.057 . S
O1315 C1303 1.232 . S
H1316 C1335 0.929 . S
H1317 C1336 0.929 . S
H1318 C1348 0.931 . S
H1319 C1340 0.929 . S
H1320 C1349 0.930 . S
H1321 C1341 0.931 . S
O1322 Co1298 2.097 . S
O1322 C1350 1.214 . S
H1323 C1351 0.929 . S
H1324 C1352 0.929 . S
H1325 C1353 0.930 . S
H1326 C1354 0.929 . S
H1327 C1356 0.930 . S
H1328 C1333 0.930 . S
H1329 C1337 0.930 . S
O1330 Co1299 2.037 . S
O1330 C1350 1.234 . S
C1331 O1305 1.269 . S
C1331 O1306 1.257 . S
C1332 H1307 0.930 . S
C1332 C1335 1.388 . S
C1332 C1337 1.418 . S
C1333 H1328 0.930 . S
C1333 C1336 1.404 . S
C1333 C1337 1.353 . S
N1334 Co1299 2.145 . S
N1334 C1335 1.397 . S
N1334 C1336 1.334 . S
C1335 H1316 0.929 . S
C1335 C1332 1.388 . S
C1335 N1334 1.397 . S
C1336 H1317 0.929 . S
C1336 C1333 1.404 . S
C1336 N1334 1.334 . S
C1337 H1329 0.930 . S
C1337 C1332 1.418 . S
C1337 C1333 1.353 . S
C1338 H1308 0.930 . S
C1338 N1339 1.330 . S
C1338 C1340 1.446 . S
N1339 Co1298 2.151 . S
N1339 C1338 1.330 . S
N1339 C1343 1.418 . S
C1340 H1319 0.929 . S
C1340 C1338 1.446 . S
C1340 C1341 1.332 . S
C1341 H1321 0.931 . S
C1341 C1340 1.332 . S
C1341 C1342 1.267 . S
C1342 H1310 0.929 . S
C1342 C1341 1.267 . S
C1342 C1343 1.251 . S
C1343 H1313 0.929 . S
C1343 N1339 1.418 . S
C1343 C1342 1.251 . S
C1344 H1311 0.930 . S
C1344 C1346 1.406 . S
C1344 C1349 1.261 . S
C1345 H1312 0.930 . S
C1345 N1347 1.325 . S
C1345 C1348 1.357 . S
C1346 H1314 0.928 . S
C1346 C1344 1.406 . S
C1346 N1347 1.261 . S
N1347 Co1298 2.214 . S
N1347 C1345 1.325 . S
N1347 C1346 1.261 . S
C1348 H1318 0.931 . S
C1348 C1345 1.357 . S
C1348 C1349 1.312 . S
C1349 H1320 0.930 . S
C1349 C1344 1.261 . S
C1349 C1348 1.312 . S
C1350 O1322 1.214 . S
C1350 O1330 1.234 . S
C1351 H1323 0.929 . S
C1351 C1354 1.391 . S
C1351 C1356 1.391 . S
C1352 H1324 0.929 . S
C1352 C1353 1.390 . S
C1352 N1355 1.391 . S
C1353 H1325 0.930 . S
C1353 C1352 1.390 . S
C1353 C1354 1.392 . S
C1354 H1326 0.929 . S
C1354 C1351 1.391 . S
C1354 C1353 1.392 . S
N1355 Co1299 2.257 . S
N1355 C1352 1.391 . S
N1355 C1356 1.388 . S
C1356 H1327 0.930 . S
C1356 C1351 1.391 . S
C1356 N1355 1.388 . S
Co1357 O1359 2.143 . S
Co1357 O1365 2.074 . S
Co1357 O1368 2.093 . S
Co1357 O1381 2.097 . S
Co1357 N1398 2.151 . S
Co1357 N1406 2.214 . S
Co1358 O1359 2.160 . S
Co1358 O1364 2.058 . S
Co1358 O1374 2.057 . S
Co1358 O1389 2.037 . S
Co1358 N1393 2.145 . S
Co1358 N1414 2.257 . S
O1359 Co1357 2.143 . S
O1359 Co1358 2.160 . S
C1360 O1361 1.278 . S
C1360 O1368 1.224 . S
O1361 C1360 1.278 . S
C1362 O1363 1.245 . S
C1362 O1374 1.232 . S
O1363 C1362 1.245 . S
O1364 Co1358 2.058 . S
O1364 C1390 1.269 . S
O1365 Co1357 2.074 . S
O1365 C1390 1.257 . S
H1366 C1391 0.930 . S
H1367 C1397 0.930 . S
O1368 Co1357 2.093 . S
O1368 C1360 1.224 . S
H1369 C1401 0.929 . S
H1370 C1403 0.930 . S
H1371 C1404 0.930 . S
H1372 C1402 0.929 . S
H1373 C1405 0.928 . S
O1374 Co1358 2.057 . S
O1374 C1362 1.232 . S
H1375 C1394 0.929 . S
H1376 C1395 0.929 . S
H1377 C1407 0.931 . S
H1378 C1399 0.929 . S
H1379 C1408 0.930 . S
H1380 C1400 0.931 . S
O1381 Co1357 2.097 . S
O1381 C1409 1.214 . S
H1382 C1410 0.929 . S
H1383 C1411 0.929 . S
H1384 C1412 0.930 . S
H1385 C1413 0.929 . S
H1386 C1415 0.930 . S
H1387 C1392 0.930 . S
H1388 C1396 0.930 . S
O1389 Co1358 2.037 . S
O1389 C1409 1.234 . S
C1390 O1364 1.269 . S
C1390 O1365 1.257 . S
C1391 H1366 0.930 . S
C1391 C1394 1.388 . S
C1391 C1396 1.418 . S
C1392 H1387 0.930 . S
C1392 C1395 1.404 . S
C1392 C1396 1.353 . S
N1393 Co1358 2.145 . S
N1393 C1394 1.397 . S
N1393 C1395 1.334 . S
C1394 H1375 0.929 . S
C1394 C1391 1.388 . S
C1394 N1393 1.397 . S
C1395 H1376 0.929 . S
C1395 C1392 1.404 . S
C1395 N1393 1.334 . S
C1396 H1388 0.930 . S
C1396 C1391 1.418 . S
C1396 C1392 1.353 . S
C1397 H1367 0.930 . S
C1397 N1398 1.330 . S
C1397 C1399 1.446 . S
N1398 Co1357 2.151 . S
N1398 C1397 1.330 . S
N1398 C1402 1.418 . S
C1399 H1378 0.929 . S
C1399 C1397 1.446 . S
C1399 C1400 1.332 . S
C1400 H1380 0.931 . S
C1400 C1399 1.332 . S
C1400 C1401 1.267 . S
C1401 H1369 0.929 . S
C1401 C1400 1.267 . S
C1401 C1402 1.251 . S
C1402 H1372 0.929 . S
C1402 N1398 1.418 . S
C1402 C1401 1.251 . S
C1403 H1370 0.930 . S
C1403 C1405 1.406 . S
C1403 C1408 1.261 . S
C1404 H1371 0.930 . S
C1404 N1406 1.325 . S
C1404 C1407 1.357 . S
C1405 H1373 0.928 . S
C1405 C1403 1.406 . S
C1405 N1406 1.261 . S
N1406 Co1357 2.214 . S
N1406 C1404 1.325 . S
N1406 C1405 1.261 . S
C1407 H1377 0.931 . S
C1407 C1404 1.357 . S
C1407 C1408 1.312 . S
C1408 H1379 0.930 . S
C1408 C1403 1.261 . S
C1408 C1407 1.312 . S
C1409 O1381 1.214 . S
C1409 O1389 1.234 . S
C1410 H1382 0.929 . S
C1410 C1413 1.391 . S
C1410 C1415 1.391 . S
C1411 H1383 0.929 . S
C1411 C1412 1.390 . S
C1411 N1414 1.391 . S
C1412 H1384 0.930 . S
C1412 C1411 1.390 . S
C1412 C1413 1.392 . S
C1413 H1385 0.929 . S
C1413 C1410 1.391 . S
C1413 C1412 1.392 . S
N1414 Co1358 2.257 . S
N1414 C1411 1.391 . S
N1414 C1415 1.388 . S
C1415 H1386 0.930 . S
C1415 C1410 1.391 . S
C1415 N1414 1.388 . S
C1416 C1417 1.363 . S
C1416 C1422 1.379 . S
C1416 N1424 1.356 . S
C1417 C1416 1.363 . S
C1417 C1423 1.363 . S
C1418 C1419 1.363 . S
C1418 C1423 1.379 . S
C1418 N1425 1.356 . S
C1419 C1418 1.363 . S
C1419 C1422 1.363 . S
N1420 C1422 1.356 . S
N1420 H1432 0.984 . S
N1420 H1433 0.985 . S
N1421 C1423 1.356 . S
N1421 H1426 0.984 . S
N1421 H1427 0.985 . S
C1422 C1416 1.379 . S
C1422 C1419 1.363 . S
C1422 N1420 1.356 . S
C1423 C1417 1.363 . S
C1423 C1418 1.379 . S
C1423 N1421 1.356 . S
N1424 C1416 1.356 . S
N1424 H1430 0.984 . S
N1424 H1431 0.984 . S
N1425 C1418 1.356 . S
N1425 H1428 0.984 . S
N1425 H1429 0.985 . S
H1426 N1421 0.984 . S
H1427 N1421 0.985 . S
H1428 N1425 0.984 . S
H1429 N1425 0.985 . S
H1430 N1424 0.984 . S
H1431 N1424 0.984 . S
H1432 N1420 0.984 . S
H1433 N1420 0.985 . S
C1434 C1435 1.363 . S
C1434 C1440 1.379 . S
C1434 N1442 1.356 . S
C1435 C1434 1.363 . S
C1435 C1441 1.363 . S
C1436 C1437 1.363 . S
C1436 C1441 1.379 . S
C1436 N1443 1.356 . S
C1437 C1436 1.363 . S
C1437 C1440 1.363 . S
N1438 C1440 1.356 . S
N1438 H1450 0.984 . S
N1438 H1451 0.985 . S
N1439 C1441 1.356 . S
N1439 H1444 0.984 . S
N1439 H1445 0.985 . S
C1440 C1434 1.379 . S
C1440 C1437 1.363 . S
C1440 N1438 1.356 . S
C1441 C1435 1.363 . S
C1441 C1436 1.379 . S
C1441 N1439 1.356 . S
N1442 C1434 1.356 . S
N1442 H1448 0.984 . S
N1442 H1449 0.984 . S
N1443 C1436 1.356 . S
N1443 H1446 0.984 . S
N1443 H1447 0.985 . S
H1444 N1439 0.984 . S
H1445 N1439 0.985 . S
H1446 N1443 0.984 . S
H1447 N1443 0.985 . S
H1448 N1442 0.984 . S
H1449 N1442 0.984 . S
H1450 N1438 0.984 . S
H1451 N1438 0.985 . S
C1452 C1453 1.363 . S
C1452 C1458 1.379 . S
C1452 N1460 1.356 . S
C1453 C1452 1.363 . S
C1453 C1459 1.363 . S
C1454 C1455 1.363 . S
C1454 C1459 1.379 . S
C1454 N1461 1.356 . S
C1455 C1454 1.363 . S
C1455 C1458 1.363 . S
N1456 C1458 1.356 . S
N1456 H1468 0.984 . S
N1456 H1469 0.985 . S
N1457 C1459 1.356 . S
N1457 H1462 0.984 . S
N1457 H1463 0.985 . S
C1458 C1452 1.379 . S
C1458 C1455 1.363 . S
C1458 N1456 1.356 . S
C1459 C1453 1.363 . S
C1459 C1454 1.379 . S
C1459 N1457 1.356 . S
N1460 C1452 1.356 . S
N1460 H1466 0.984 . S
N1460 H1467 0.984 . S
N1461 C1454 1.356 . S
N1461 H1464 0.984 . S
N1461 H1465 0.985 . S
H1462 N1457 0.984 . S
H1463 N1457 0.985 . S
H1464 N1461 0.984 . S
H1465 N1461 0.985 . S
H1466 N1460 0.984 . S
H1467 N1460 0.984 . S
H1468 N1456 0.984 . S
H1469 N1456 0.985 . S
C1470 C1471 1.363 . S
C1470 C1476 1.379 . S
C1470 N1478 1.356 . S
C1471 C1470 1.363 . S
C1471 C1477 1.363 . S
C1472 C1473 1.363 . S
C1472 C1477 1.379 . S
C1472 N1479 1.356 . S
C1473 C1472 1.363 . S
C1473 C1476 1.363 . S
N1474 C1476 1.356 . S
N1474 H1486 0.984 . S
N1474 H1487 0.985 . S
N1475 C1477 1.356 . S
N1475 H1480 0.984 . S
N1475 H1481 0.985 . S
C1476 C1470 1.379 . S
C1476 C1473 1.363 . S
C1476 N1474 1.356 . S
C1477 C1471 1.363 . S
C1477 C1472 1.379 . S
C1477 N1475 1.356 . S
N1478 C1470 1.356 . S
N1478 H1484 0.984 . S
N1478 H1485 0.984 . S
N1479 C1472 1.356 . S
N1479 H1482 0.984 . S
N1479 H1483 0.985 . S
H1480 N1475 0.984 . S
H1481 N1475 0.985 . S
H1482 N1479 0.984 . S
H1483 N1479 0.985 . S
H1484 N1478 0.984 . S
H1485 N1478 0.984 . S
H1486 N1474 0.984 . S
H1487 N1474 0.985 . S
C1488 C1489 1.363 . S
C1488 C1494 1.379 . S
C1488 N1496 1.356 . S
C1489 C1488 1.363 . S
C1489 C1495 1.363 . S
C1490 C1491 1.363 . S
C1490 C1495 1.379 . S
C1490 N1497 1.356 . S
C1491 C1490 1.363 . S
C1491 C1494 1.363 . S
N1492 C1494 1.356 . S
N1492 H1504 0.984 . S
N1492 H1505 0.985 . S
N1493 C1495 1.356 . S
N1493 H1498 0.984 . S
N1493 H1499 0.985 . S
C1494 C1488 1.379 . S
C1494 C1491 1.363 . S
C1494 N1492 1.356 . S
C1495 C1489 1.363 . S
C1495 C1490 1.379 . S
C1495 N1493 1.356 . S
N1496 C1488 1.356 . S
N1496 H1502 0.984 . S
N1496 H1503 0.984 . S
N1497 C1490 1.356 . S
N1497 H1500 0.984 . S
N1497 H1501 0.985 . S
H1498 N1493 0.984 . S
H1499 N1493 0.985 . S
H1500 N1497 0.984 . S
H1501 N1497 0.985 . S
H1502 N1496 0.984 . S
H1503 N1496 0.984 . S
H1504 N1492 0.984 . S
H1505 N1492 0.985 . S
C1506 C1507 1.363 . S
C1506 C1512 1.379 . S
C1506 N1514 1.356 . S
C1507 C1506 1.363 . S
C1507 C1513 1.363 . S
C1508 C1509 1.363 . S
C1508 C1513 1.379 . S
C1508 N1515 1.356 . S
C1509 C1508 1.363 . S
C1509 C1512 1.363 . S
N1510 C1512 1.356 . S
N1510 H1522 0.984 . S
N1510 H1523 0.985 . S
N1511 C1513 1.356 . S
N1511 H1516 0.984 . S
N1511 H1517 0.985 . S
C1512 C1506 1.379 . S
C1512 C1509 1.363 . S
C1512 N1510 1.356 . S
C1513 C1507 1.363 . S
C1513 C1508 1.379 . S
C1513 N1511 1.356 . S
N1514 C1506 1.356 . S
N1514 H1520 0.984 . S
N1514 H1521 0.984 . S
N1515 C1508 1.356 . S
N1515 H1518 0.984 . S
N1515 H1519 0.985 . S
H1516 N1511 0.984 . S
H1517 N1511 0.985 . S
H1518 N1515 0.984 . S
H1519 N1515 0.985 . S
H1520 N1514 0.984 . S
H1521 N1514 0.984 . S
H1522 N1510 0.984 . S
H1523 N1510 0.985 . S
C1524 C1525 1.363 . S
C1524 C1530 1.379 . S
C1524 N1532 1.356 . S
C1525 C1524 1.363 . S
C1525 C1531 1.363 . S
C1526 C1527 1.363 . S
C1526 C1531 1.379 . S
C1526 N1533 1.356 . S
C1527 C1526 1.363 . S
C1527 C1530 1.363 . S
N1528 C1530 1.356 . S
N1528 H1540 0.984 . S
N1528 H1541 0.985 . S
N1529 C1531 1.356 . S
N1529 H1534 0.984 . S
N1529 H1535 0.985 . S
C1530 C1524 1.379 . S
C1530 C1527 1.363 . S
C1530 N1528 1.356 . S
C1531 C1525 1.363 . S
C1531 C1526 1.379 . S
C1531 N1529 1.356 . S
N1532 C1524 1.356 . S
N1532 H1538 0.984 . S
N1532 H1539 0.984 . S
N1533 C1526 1.356 . S
N1533 H1536 0.984 . S
N1533 H1537 0.985 . S
H1534 N1529 0.984 . S
H1535 N1529 0.985 . S
H1536 N1533 0.984 . S
H1537 N1533 0.985 . S
H1538 N1532 0.984 . S
H1539 N1532 0.984 . S
H1540 N1528 0.984 . S
H1541 N1528 0.985 . S
C1542 C1543 1.363 . S
C1542 C1548 1.379 . S
C1542 N1550 1.356 . S
C1543 C1542 1.363 . S
C1543 C1549 1.363 . S
C1544 C1545 1.363 . S
C1544 C1549 1.379 . S
C1544 N1551 1.356 . S
C1545 C1544 1.363 . S
C1545 C1548 1.363 . S
N1546 C1548 1.356 . S
N1546 H1558 0.984 . S
N1546 H1559 0.985 . S
N1547 C1549 1.356 . S
N1547 H1552 0.984 . S
N1547 H1553 0.985 . S
C1548 C1542 1.379 . S
C1548 C1545 1.363 . S
C1548 N1546 1.356 . S
C1549 C1543 1.363 . S
C1549 C1544 1.379 . S
C1549 N1547 1.356 . S
N1550 C1542 1.356 . S
N1550 H1556 0.984 . S
N1550 H1557 0.984 . S
N1551 C1544 1.356 . S
N1551 H1554 0.984 . S
N1551 H1555 0.985 . S
H1552 N1547 0.984 . S
H1553 N1547 0.985 . S
H1554 N1551 0.984 . S
H1555 N1551 0.985 . S
H1556 N1550 0.984 . S
H1557 N1550 0.984 . S
H1558 N1546 0.984 . S
H1559 N1546 0.985 . S
C1560 C1561 1.363 . S
C1560 C1566 1.379 . S
C1560 N1568 1.356 . S
C1561 C1560 1.363 . S
C1561 C1567 1.363 . S
C1562 C1563 1.363 . S
C1562 C1567 1.379 . S
C1562 N1569 1.356 . S
C1563 C1562 1.363 . S
C1563 C1566 1.363 . S
N1564 C1566 1.356 . S
N1564 H1576 0.984 . S
N1564 H1577 0.985 . S
N1565 C1567 1.356 . S
N1565 H1570 0.984 . S
N1565 H1571 0.985 . S
C1566 C1560 1.379 . S
C1566 C1563 1.363 . S
C1566 N1564 1.356 . S
C1567 C1561 1.363 . S
C1567 C1562 1.379 . S
C1567 N1565 1.356 . S
N1568 C1560 1.356 . S
N1568 H1574 0.984 . S
N1568 H1575 0.984 . S
N1569 C1562 1.356 . S
N1569 H1572 0.984 . S
N1569 H1573 0.985 . S
H1570 N1565 0.984 . S
H1571 N1565 0.985 . S
H1572 N1569 0.984 . S
H1573 N1569 0.985 . S
H1574 N1568 0.984 . S
H1575 N1568 0.984 . S
H1576 N1564 0.984 . S
H1577 N1564 0.985 . S
C1578 C1579 1.363 . S
C1578 C1584 1.379 . S
C1578 N1586 1.356 . S
C1579 C1578 1.363 . S
C1579 C1585 1.363 . S
C1580 C1581 1.363 . S
C1580 C1585 1.379 . S
C1580 N1587 1.356 . S
C1581 C1580 1.363 . S
C1581 C1584 1.363 . S
N1582 C1584 1.356 . S
N1582 H1594 0.984 . S
N1582 H1595 0.985 . S
N1583 C1585 1.356 . S
N1583 H1588 0.984 . S
N1583 H1589 0.985 . S
C1584 C1578 1.379 . S
C1584 C1581 1.363 . S
C1584 N1582 1.356 . S
C1585 C1579 1.363 . S
C1585 C1580 1.379 . S
C1585 N1583 1.356 . S
N1586 C1578 1.356 . S
N1586 H1592 0.984 . S
N1586 H1593 0.984 . S
N1587 C1580 1.356 . S
N1587 H1590 0.984 . S
N1587 H1591 0.985 . S
H1588 N1583 0.984 . S
H1589 N1583 0.985 . S
H1590 N1587 0.984 . S
H1591 N1587 0.985 . S
H1592 N1586 0.984 . S
H1593 N1586 0.984 . S
H1594 N1582 0.984 . S
H1595 N1582 0.985 . S
C1596 C1597 1.363 . S
C1596 C1602 1.379 . S
C1596 N1604 1.356 . S
C1597 C1596 1.363 . S
C1597 C1603 1.363 . S
C1598 C1599 1.363 . S
C1598 C1603 1.379 . S
C1598 N1605 1.356 . S
C1599 C1598 1.363 . S
C1599 C1602 1.363 . S
N1600 C1602 1.356 . S
N1600 H1612 0.984 . S
N1600 H1613 0.985 . S
N1601 C1603 1.356 . S
N1601 H1606 0.984 . S
N1601 H1607 0.985 . S
C1602 C1596 1.379 . S
C1602 C1599 1.363 . S
C1602 N1600 1.356 . S
C1603 C1597 1.363 . S
C1603 C1598 1.379 . S
C1603 N1601 1.356 . S
N1604 C1596 1.356 . S
N1604 H1610 0.984 . S
N1604 H1611 0.984 . S
N1605 C1598 1.356 . S
N1605 H1608 0.984 . S
N1605 H1609 0.985 . S
H1606 N1601 0.984 . S
H1607 N1601 0.985 . S
H1608 N1605 0.984 . S
H1609 N1605 0.985 . S
H1610 N1604 0.984 . S
H1611 N1604 0.984 . S
H1612 N1600 0.984 . S
H1613 N1600 0.985 . S
C1614 C1615 1.363 . S
C1614 C1620 1.379 . S
C1614 N1622 1.356 . S
C1615 C1614 1.363 . S
C1615 C1621 1.363 . S
C1616 C1617 1.363 . S
C1616 C1621 1.379 . S
C1616 N1623 1.356 . S
C1617 C1616 1.363 . S
C1617 C1620 1.363 . S
N1618 C1620 1.356 . S
N1618 H1630 0.984 . S
N1618 H1631 0.985 . S
N1619 C1621 1.356 . S
N1619 H1624 0.984 . S
N1619 H1625 0.985 . S
C1620 C1614 1.379 . S
C1620 C1617 1.363 . S
C1620 N1618 1.356 . S
C1621 C1615 1.363 . S
C1621 C1616 1.379 . S
C1621 N1619 1.356 . S
N1622 C1614 1.356 . S
N1622 H1628 0.984 . S
N1622 H1629 0.984 . S
N1623 C1616 1.356 . S
N1623 H1626 0.984 . S
N1623 H1627 0.985 . S
H1624 N1619 0.984 . S
H1625 N1619 0.985 . S
H1626 N1623 0.984 . S
H1627 N1623 0.985 . S
H1628 N1622 0.984 . S
H1629 N1622 0.984 . S
H1630 N1618 0.984 . S
H1631 N1618 0.985 . S
C1632 C1633 1.363 . S
C1632 C1638 1.379 . S
C1632 N1640 1.356 . S
C1633 C1632 1.363 . S
C1633 C1639 1.363 . S
C1634 C1635 1.363 . S
C1634 C1639 1.379 . S
C1634 N1641 1.356 . S
C1635 C1634 1.363 . S
C1635 C1638 1.363 . S
N1636 C1638 1.356 . S
N1636 H1648 0.984 . S
N1636 H1649 0.985 . S
N1637 C1639 1.356 . S
N1637 H1642 0.984 . S
N1637 H1643 0.985 . S
C1638 C1632 1.379 . S
C1638 C1635 1.363 . S
C1638 N1636 1.356 . S
C1639 C1633 1.363 . S
C1639 C1634 1.379 . S
C1639 N1637 1.356 . S
N1640 C1632 1.356 . S
N1640 H1646 0.984 . S
N1640 H1647 0.984 . S
N1641 C1634 1.356 . S
N1641 H1644 0.984 . S
N1641 H1645 0.985 . S
H1642 N1637 0.984 . S
H1643 N1637 0.985 . S
H1644 N1641 0.984 . S
H1645 N1641 0.985 . S
H1646 N1640 0.984 . S
H1647 N1640 0.984 . S
H1648 N1636 0.984 . S
H1649 N1636 0.985 . S
C1650 C1651 1.363 . S
C1650 C1656 1.379 . S
C1650 N1658 1.356 . S
C1651 C1650 1.363 . S
C1651 C1657 1.363 . S
C1652 C1653 1.363 . S
C1652 C1657 1.379 . S
C1652 N1659 1.356 . S
C1653 C1652 1.363 . S
C1653 C1656 1.363 . S
N1654 C1656 1.356 . S
N1654 H1666 0.984 . S
N1654 H1667 0.985 . S
N1655 C1657 1.356 . S
N1655 H1660 0.984 . S
N1655 H1661 0.985 . S
C1656 C1650 1.379 . S
C1656 C1653 1.363 . S
C1656 N1654 1.356 . S
C1657 C1651 1.363 . S
C1657 C1652 1.379 . S
C1657 N1655 1.356 . S
N1658 C1650 1.356 . S
N1658 H1664 0.984 . S
N1658 H1665 0.984 . S
N1659 C1652 1.356 . S
N1659 H1662 0.984 . S
N1659 H1663 0.985 . S
H1660 N1655 0.984 . S
H1661 N1655 0.985 . S
H1662 N1659 0.984 . S
H1663 N1659 0.985 . S
H1664 N1658 0.984 . S
H1665 N1658 0.984 . S
H1666 N1654 0.984 . S
H1667 N1654 0.985 . S
C1668 C1669 1.363 . S
C1668 C1674 1.379 . S
C1668 N1676 1.356 . S
C1669 C1668 1.363 . S
C1669 C1675 1.363 . S
C1670 C1671 1.363 . S
C1670 C1675 1.379 . S
C1670 N1677 1.356 . S
C1671 C1670 1.363 . S
C1671 C1674 1.363 . S
N1672 C1674 1.356 . S
N1672 H1684 0.984 . S
N1672 H1685 0.985 . S
N1673 C1675 1.356 . S
N1673 H1678 0.984 . S
N1673 H1679 0.985 . S
C1674 C1668 1.379 . S
C1674 C1671 1.363 . S
C1674 N1672 1.356 . S
C1675 C1669 1.363 . S
C1675 C1670 1.379 . S
C1675 N1673 1.356 . S
N1676 C1668 1.356 . S
N1676 H1682 0.984 . S
N1676 H1683 0.984 . S
N1677 C1670 1.356 . S
N1677 H1680 0.984 . S
N1677 H1681 0.985 . S
H1678 N1673 0.984 . S
H1679 N1673 0.985 . S
H1680 N1677 0.984 . S
H1681 N1677 0.985 . S
H1682 N1676 0.984 . S
H1683 N1676 0.984 . S
H1684 N1672 0.984 . S
H1685 N1672 0.985 . S
C1686 C1687 1.363 . S
C1686 C1692 1.379 . S
C1686 N1694 1.356 . S
C1687 C1686 1.363 . S
C1687 C1693 1.363 . S
C1688 C1689 1.363 . S
C1688 C1693 1.379 . S
C1688 N1695 1.356 . S
C1689 C1688 1.363 . S
C1689 C1692 1.363 . S
N1690 C1692 1.356 . S
N1690 H1702 0.984 . S
N1690 H1703 0.985 . S
N1691 C1693 1.356 . S
N1691 H1696 0.984 . S
N1691 H1697 0.985 . S
C1692 C1686 1.379 . S
C1692 C1689 1.363 . S
C1692 N1690 1.356 . S
C1693 C1687 1.363 . S
C1693 C1688 1.379 . S
C1693 N1691 1.356 . S
N1694 C1686 1.356 . S
N1694 H1700 0.984 . S
N1694 H1701 0.984 . S
N1695 C1688 1.356 . S
N1695 H1698 0.984 . S
N1695 H1699 0.985 . S
H1696 N1691 0.984 . S
H1697 N1691 0.985 . S
H1698 N1695 0.984 . S
H1699 N1695 0.985 . S
H1700 N1694 0.984 . S
H1701 N1694 0.984 . S
H1702 N1690 0.984 . S
H1703 N1690 0.985 . S
C1704 C1705 1.363 . S
C1704 C1710 1.379 . S
C1704 N1712 1.356 . S
C1705 C1704 1.363 . S
C1705 C1711 1.363 . S
C1706 C1707 1.363 . S
C1706 C1711 1.379 . S
C1706 N1713 1.356 . S
C1707 C1706 1.363 . S
C1707 C1710 1.363 . S
N1708 C1710 1.356 . S
N1708 H1720 0.984 . S
N1708 H1721 0.985 . S
N1709 C1711 1.356 . S
N1709 H1714 0.984 . S
N1709 H1715 0.985 . S
C1710 C1704 1.379 . S
C1710 C1707 1.363 . S
C1710 N1708 1.356 . S
C1711 C1705 1.363 . S
C1711 C1706 1.379 . S
C1711 N1709 1.356 . S
N1712 C1704 1.356 . S
N1712 H1718 0.984 . S
N1712 H1719 0.984 . S
N1713 C1706 1.356 . S
N1713 H1716 0.984 . S
N1713 H1717 0.985 . S
H1714 N1709 0.984 . S
H1715 N1709 0.985 . S
H1716 N1713 0.984 . S
H1717 N1713 0.985 . S
H1718 N1712 0.984 . S
H1719 N1712 0.984 . S
H1720 N1708 0.984 . S
H1721 N1708 0.985 . S
C1722 C1723 1.363 . S
C1722 C1728 1.379 . S
C1722 N1730 1.356 . S
C1723 C1722 1.363 . S
C1723 C1729 1.363 . S
C1724 C1725 1.363 . S
C1724 C1729 1.379 . S
C1724 N1731 1.356 . S
C1725 C1724 1.363 . S
C1725 C1728 1.363 . S
N1726 C1728 1.356 . S
N1726 H1738 0.984 . S
N1726 H1739 0.985 . S
N1727 C1729 1.356 . S
N1727 H1732 0.984 . S
N1727 H1733 0.985 . S
C1728 C1722 1.379 . S
C1728 C1725 1.363 . S
C1728 N1726 1.356 . S
C1729 C1723 1.363 . S
C1729 C1724 1.379 . S
C1729 N1727 1.356 . S
N1730 C1722 1.356 . S
N1730 H1736 0.984 . S
N1730 H1737 0.984 . S
N1731 C1724 1.356 . S
N1731 H1734 0.984 . S
N1731 H1735 0.985 . S
H1732 N1727 0.984 . S
H1733 N1727 0.985 . S
H1734 N1731 0.984 . S
H1735 N1731 0.985 . S
H1736 N1730 0.984 . S
H1737 N1730 0.984 . S
H1738 N1726 0.984 . S
H1739 N1726 0.985 . S
C1740 C1741 1.363 . S
C1740 C1746 1.379 . S
C1740 N1748 1.356 . S
C1741 C1740 1.363 . S
C1741 C1747 1.363 . S
C1742 C1743 1.363 . S
C1742 C1747 1.379 . S
C1742 N1749 1.356 . S
C1743 C1742 1.363 . S
C1743 C1746 1.363 . S
N1744 C1746 1.356 . S
N1744 H1756 0.984 . S
N1744 H1757 0.985 . S
N1745 C1747 1.356 . S
N1745 H1750 0.984 . S
N1745 H1751 0.985 . S
C1746 C1740 1.379 . S
C1746 C1743 1.363 . S
C1746 N1744 1.356 . S
C1747 C1741 1.363 . S
C1747 C1742 1.379 . S
C1747 N1745 1.356 . S
N1748 C1740 1.356 . S
N1748 H1754 0.984 . S
N1748 H1755 0.984 . S
N1749 C1742 1.356 . S
N1749 H1752 0.984 . S
N1749 H1753 0.985 . S
H1750 N1745 0.984 . S
H1751 N1745 0.985 . S
H1752 N1749 0.984 . S
H1753 N1749 0.985 . S
H1754 N1748 0.984 . S
H1755 N1748 0.984 . S
H1756 N1744 0.984 . S
H1757 N1744 0.985 . S
C1758 C1759 1.363 . S
C1758 C1764 1.379 . S
C1758 N1766 1.356 . S
C1759 C1758 1.363 . S
C1759 C1765 1.363 . S
C1760 C1761 1.363 . S
C1760 C1765 1.379 . S
C1760 N1767 1.356 . S
C1761 C1760 1.363 . S
C1761 C1764 1.363 . S
N1762 C1764 1.356 . S
N1762 H1774 0.984 . S
N1762 H1775 0.985 . S
N1763 C1765 1.356 . S
N1763 H1768 0.984 . S
N1763 H1769 0.985 . S
C1764 C1758 1.379 . S
C1764 C1761 1.363 . S
C1764 N1762 1.356 . S
C1765 C1759 1.363 . S
C1765 C1760 1.379 . S
C1765 N1763 1.356 . S
N1766 C1758 1.356 . S
N1766 H1772 0.984 . S
N1766 H1773 0.984 . S
N1767 C1760 1.356 . S
N1767 H1770 0.984 . S
N1767 H1771 0.985 . S
H1768 N1763 0.984 . S
H1769 N1763 0.985 . S
H1770 N1767 0.984 . S
H1771 N1767 0.985 . S
H1772 N1766 0.984 . S
H1773 N1766 0.984 . S
H1774 N1762 0.984 . S
H1775 N1762 0.985 . S
C1776 C1777 1.363 . S
C1776 C1782 1.379 . S
C1776 N1784 1.356 . S
C1777 C1776 1.363 . S
C1777 C1783 1.363 . S
C1778 C1779 1.363 . S
C1778 C1783 1.379 . S
C1778 N1785 1.356 . S
C1779 C1778 1.363 . S
C1779 C1782 1.363 . S
N1780 C1782 1.356 . S
N1780 H1792 0.984 . S
N1780 H1793 0.985 . S
N1781 C1783 1.356 . S
N1781 H1786 0.984 . S
N1781 H1787 0.985 . S
C1782 C1776 1.379 . S
C1782 C1779 1.363 . S
C1782 N1780 1.356 . S
C1783 C1777 1.363 . S
C1783 C1778 1.379 . S
C1783 N1781 1.356 . S
N1784 C1776 1.356 . S
N1784 H1790 0.984 . S
N1784 H1791 0.984 . S
N1785 C1778 1.356 . S
N1785 H1788 0.984 . S
N1785 H1789 0.985 . S
H1786 N1781 0.984 . S
H1787 N1781 0.985 . S
H1788 N1785 0.984 . S
H1789 N1785 0.985 . S
H1790 N1784 0.984 . S
H1791 N1784 0.984 . S
H1792 N1780 0.984 . S
H1793 N1780 0.985 . S
C1794 C1795 1.363 . S
C1794 C1800 1.379 . S
C1794 N1802 1.356 . S
C1795 C1794 1.363 . S
C1795 C1801 1.363 . S
C1796 C1797 1.363 . S
C1796 C1801 1.379 . S
C1796 N1803 1.356 . S
C1797 C1796 1.363 . S
C1797 C1800 1.363 . S
N1798 C1800 1.356 . S
N1798 H1810 0.984 . S
N1798 H1811 0.985 . S
N1799 C1801 1.356 . S
N1799 H1804 0.984 . S
N1799 H1805 0.985 . S
C1800 C1794 1.379 . S
C1800 C1797 1.363 . S
C1800 N1798 1.356 . S
C1801 C1795 1.363 . S
C1801 C1796 1.379 . S
C1801 N1799 1.356 . S
N1802 C1794 1.356 . S
N1802 H1808 0.984 . S
N1802 H1809 0.984 . S
N1803 C1796 1.356 . S
N1803 H1806 0.984 . S
N1803 H1807 0.985 . S
H1804 N1799 0.984 . S
H1805 N1799 0.985 . S
H1806 N1803 0.984 . S
H1807 N1803 0.985 . S
H1808 N1802 0.984 . S
H1809 N1802 0.984 . S
H1810 N1798 0.984 . S
H1811 N1798 0.985 . S
C1812 C1813 1.363 . S
C1812 C1818 1.379 . S
C1812 N1820 1.356 . S
C1813 C1812 1.363 . S
C1813 C1819 1.363 . S
C1814 C1815 1.363 . S
C1814 C1819 1.379 . S
C1814 N1821 1.356 . S
C1815 C1814 1.363 . S
C1815 C1818 1.363 . S
N1816 C1818 1.356 . S
N1816 H1828 0.984 . S
N1816 H1829 0.985 . S
N1817 C1819 1.356 . S
N1817 H1822 0.984 . S
N1817 H1823 0.985 . S
C1818 C1812 1.379 . S
C1818 C1815 1.363 . S
C1818 N1816 1.356 . S
C1819 C1813 1.363 . S
C1819 C1814 1.379 . S
C1819 N1817 1.356 . S
N1820 C1812 1.356 . S
N1820 H1826 0.984 . S
N1820 H1827 0.984 . S
N1821 C1814 1.356 . S
N1821 H1824 0.984 . S
N1821 H1825 0.985 . S
H1822 N1817 0.984 . S
H1823 N1817 0.985 . S
H1824 N1821 0.984 . S
H1825 N1821 0.985 . S
H1826 N1820 0.984 . S
H1827 N1820 0.984 . S
H1828 N1816 0.984 . S
H1829 N1816 0.985 . S
C1830 C1831 1.363 . S
C1830 C1836 1.379 . S
C1830 N1838 1.356 . S
C1831 C1830 1.363 . S
C1831 C1837 1.363 . S
C1832 C1833 1.363 . S
C1832 C1837 1.379 . S
C1832 N1839 1.356 . S
C1833 C1832 1.363 . S
C1833 C1836 1.363 . S
N1834 C1836 1.356 . S
N1834 H1846 0.984 . S
N1834 H1847 0.985 . S
N1835 C1837 1.356 . S
N1835 H1840 0.984 . S
N1835 H1841 0.985 . S
C1836 C1830 1.379 . S
C1836 C1833 1.363 . S
C1836 N1834 1.356 . S
C1837 C1831 1.363 . S
C1837 C1832 1.379 . S
C1837 N1835 1.356 . S
N1838 C1830 1.356 . S
N1838 H1844 0.984 . S
N1838 H1845 0.984 . S
N1839 C1832 1.356 . S
N1839 H1842 0.984 . S
N1839 H1843 0.985 . S
H1840 N1835 0.984 . S
H1841 N1835 0.985 . S
H1842 N1839 0.984 . S
H1843 N1839 0.985 . S
H1844 N1838 0.984 . S
H1845 N1838 0.984 . S
H1846 N1834 0.984 . S
H1847 N1834 0.985 . S
C1848 C1849 1.363 . S
C1848 C1854 1.379 1_455 S
C1848 N1856 1.356 . S
C1849 C1848 1.363 . S
C1849 C1855 1.363 . S
C1850 C1851 1.363 . S
C1850 C1855 1.379 1_655 S
C1850 N1857 1.356 . S
C1851 C1850 1.363 . S
C1851 C1854 1.363 . S
N1852 C1854 1.356 . S
N1852 H1864 0.984 . S
N1852 H1865 0.985 . S
N1853 C1855 1.356 . S
N1853 H1858 0.984 . S
N1853 H1859 0.985 . S
C1854 C1848 1.379 1_655 S
C1854 C1851 1.363 . S
C1854 N1852 1.356 . S
C1855 C1849 1.363 . S
C1855 C1850 1.379 1_455 S
C1855 N1853 1.356 . S
N1856 C1848 1.356 . S
N1856 H1862 0.984 . S
N1856 H1863 0.984 . S
N1857 C1850 1.356 . S
N1857 H1860 0.984 . S
N1857 H1861 0.985 . S
H1858 N1853 0.984 . S
H1859 N1853 0.985 . S
H1860 N1857 0.984 . S
H1861 N1857 0.985 . S
H1862 N1856 0.984 . S
H1863 N1856 0.984 . S
H1864 N1852 0.984 . S
H1865 N1852 0.985 . S
C1866 C1867 1.363 . S
C1866 C1872 1.379 1_545 S
C1866 N1874 1.356 . S
C1867 C1866 1.363 . S
C1867 C1873 1.363 . S
C1868 C1869 1.363 . S
C1868 C1873 1.379 1_565 S
C1868 N1875 1.356 . S
C1869 C1868 1.363 . S
C1869 C1872 1.363 . S
N1870 C1872 1.356 . S
N1870 H1882 0.984 . S
N1870 H1883 0.985 . S
N1871 C1873 1.356 . S
N1871 H1876 0.984 . S
N1871 H1877 0.985 . S
C1872 C1866 1.379 1_565 S
C1872 C1869 1.363 . S
C1872 N1870 1.356 . S
C1873 C1867 1.363 . S
C1873 C1868 1.379 1_545 S
C1873 N1871 1.356 . S
N1874 C1866 1.356 . S
N1874 H1880 0.984 . S
N1874 H1881 0.984 . S
N1875 C1868 1.356 . S
N1875 H1878 0.984 . S
N1875 H1879 0.985 . S
H1876 N1871 0.984 . S
H1877 N1871 0.985 . S
H1878 N1875 0.984 . S
H1879 N1875 0.985 . S
H1880 N1874 0.984 . S
H1881 N1874 0.984 . S
H1882 N1870 0.984 . S
H1883 N1870 0.985 . S
C1884 C1885 1.363 . S
C1884 C1890 1.379 1_655 S
C1884 N1892 1.356 . S
C1885 C1884 1.363 . S
C1885 C1891 1.363 . S
C1886 C1887 1.363 . S
C1886 C1891 1.379 1_455 S
C1886 N1893 1.356 . S
C1887 C1886 1.363 . S
C1887 C1890 1.363 . S
N1888 C1890 1.356 . S
N1888 H1900 0.984 . S
N1888 H1901 0.985 . S
N1889 C1891 1.356 . S
N1889 H1894 0.984 . S
N1889 H1895 0.985 . S
C1890 C1884 1.379 1_455 S
C1890 C1887 1.363 . S
C1890 N1888 1.356 . S
C1891 C1885 1.363 . S
C1891 C1886 1.379 1_655 S
C1891 N1889 1.356 . S
N1892 C1884 1.356 . S
N1892 H1898 0.984 . S
N1892 H1899 0.984 . S
N1893 C1886 1.356 . S
N1893 H1896 0.984 . S
N1893 H1897 0.985 . S
H1894 N1889 0.984 . S
H1895 N1889 0.985 . S
H1896 N1893 0.984 . S
H1897 N1893 0.985 . S
H1898 N1892 0.984 . S
H1899 N1892 0.984 . S
H1900 N1888 0.984 . S
H1901 N1888 0.985 . S
C1902 C1903 1.363 . S
C1902 C1908 1.379 1_545 S
C1902 N1910 1.356 . S
C1903 C1902 1.363 . S
C1903 C1909 1.363 . S
C1904 C1905 1.363 . S
C1904 C1909 1.379 1_565 S
C1904 N1911 1.356 . S
C1905 C1904 1.363 . S
C1905 C1908 1.363 . S
N1906 C1908 1.356 . S
N1906 H1918 0.984 . S
N1906 H1919 0.985 . S
N1907 C1909 1.356 . S
N1907 H1912 0.984 . S
N1907 H1913 0.985 . S
C1908 C1902 1.379 1_565 S
C1908 C1905 1.363 . S
C1908 N1906 1.356 . S
C1909 C1903 1.363 . S
C1909 C1904 1.379 1_545 S
C1909 N1907 1.356 . S
N1910 C1902 1.356 . S
N1910 H1916 0.984 . S
N1910 H1917 0.984 . S
N1911 C1904 1.356 . S
N1911 H1914 0.984 . S
N1911 H1915 0.985 . S
H1912 N1907 0.984 . S
H1913 N1907 0.985 . S
H1914 N1911 0.984 . S
H1915 N1911 0.985 . S
H1916 N1910 0.984 . S
H1917 N1910 0.984 . S
H1918 N1906 0.984 . S
H1919 N1906 0.985 . S
C1920 C1921 1.363 . S
C1920 C1926 1.379 1_565 S
C1920 N1928 1.356 . S
C1921 C1920 1.363 . S
C1921 C1927 1.363 . S
C1922 C1923 1.363 . S
C1922 C1927 1.379 1_545 S
C1922 N1929 1.356 . S
C1923 C1922 1.363 . S
C1923 C1926 1.363 . S
N1924 C1926 1.356 . S
N1924 H1936 0.984 . S
N1924 H1937 0.985 . S
N1925 C1927 1.356 . S
N1925 H1930 0.984 . S
N1925 H1931 0.985 . S
C1926 C1920 1.379 1_545 S
C1926 C1923 1.363 . S
C1926 N1924 1.356 . S
C1927 C1921 1.363 . S
C1927 C1922 1.379 1_565 S
C1927 N1925 1.356 . S
N1928 C1920 1.356 . S
N1928 H1934 0.984 . S
N1928 H1935 0.984 . S
N1929 C1922 1.356 . S
N1929 H1932 0.984 . S
N1929 H1933 0.985 . S
H1930 N1925 0.984 . S
H1931 N1925 0.985 . S
H1932 N1929 0.984 . S
H1933 N1929 0.985 . S
H1934 N1928 0.984 . S
H1935 N1928 0.984 . S
H1936 N1924 0.984 . S
H1937 N1924 0.985 . S
C1938 C1939 1.363 . S
C1938 C1944 1.379 1_655 S
C1938 N1946 1.356 . S
C1939 C1938 1.363 . S
C1939 C1945 1.363 . S
C1940 C1941 1.363 . S
C1940 C1945 1.379 1_455 S
C1940 N1947 1.356 . S
C1941 C1940 1.363 . S
C1941 C1944 1.363 . S
N1942 C1944 1.356 . S
N1942 H1954 0.984 . S
N1942 H1955 0.985 . S
N1943 C1945 1.356 . S
N1943 H1948 0.984 . S
N1943 H1949 0.985 . S
C1944 C1938 1.379 1_455 S
C1944 C1941 1.363 . S
C1944 N1942 1.356 . S
C1945 C1939 1.363 . S
C1945 C1940 1.379 1_655 S
C1945 N1943 1.356 . S
N1946 C1938 1.356 . S
N1946 H1952 0.984 . S
N1946 H1953 0.984 . S
N1947 C1940 1.356 . S
N1947 H1950 0.984 . S
N1947 H1951 0.985 . S
H1948 N1943 0.984 . S
H1949 N1943 0.985 . S
H1950 N1947 0.984 . S
H1951 N1947 0.985 . S
H1952 N1946 0.984 . S
H1953 N1946 0.984 . S
H1954 N1942 0.984 . S
H1955 N1942 0.985 . S
C1956 C1957 1.363 . S
C1956 C1962 1.379 1_565 S
C1956 N1964 1.356 . S
C1957 C1956 1.363 . S
C1957 C1963 1.363 . S
C1958 C1959 1.363 . S
C1958 C1963 1.379 1_545 S
C1958 N1965 1.356 . S
C1959 C1958 1.363 . S
C1959 C1962 1.363 . S
N1960 C1962 1.356 . S
N1960 H1972 0.984 . S
N1960 H1973 0.985 . S
N1961 C1963 1.356 . S
N1961 H1966 0.984 . S
N1961 H1967 0.985 . S
C1962 C1956 1.379 1_545 S
C1962 C1959 1.363 . S
C1962 N1960 1.356 . S
C1963 C1957 1.363 . S
C1963 C1958 1.379 1_565 S
C1963 N1961 1.356 . S
N1964 C1956 1.356 . S
N1964 H1970 0.984 . S
N1964 H1971 0.984 . S
N1965 C1958 1.356 . S
N1965 H1968 0.984 . S
N1965 H1969 0.985 . S
H1966 N1961 0.984 . S
H1967 N1961 0.985 . S
H1968 N1965 0.984 . S
H1969 N1965 0.985 . S
H1970 N1964 0.984 . S
H1971 N1964 0.984 . S
H1972 N1960 0.984 . S
H1973 N1960 0.985 . S
C1974 C1975 1.363 . S
C1974 C1980 1.379 1_655 S
C1974 N1982 1.356 . S
C1975 C1974 1.363 . S
C1975 C1981 1.363 . S
C1976 C1977 1.363 . S
C1976 C1981 1.379 1_455 S
C1976 N1983 1.356 . S
C1977 C1976 1.363 . S
C1977 C1980 1.363 . S
N1978 C1980 1.356 . S
N1978 H1990 0.984 . S
N1978 H1991 0.985 . S
N1979 C1981 1.356 . S
N1979 H1984 0.984 . S
N1979 H1985 0.985 . S
C1980 C1974 1.379 1_455 S
C1980 C1977 1.363 . S
C1980 N1978 1.356 . S
C1981 C1975 1.363 . S
C1981 C1976 1.379 1_655 S
C1981 N1979 1.356 . S
N1982 C1974 1.356 . S
N1982 H1988 0.984 . S
N1982 H1989 0.984 . S
N1983 C1976 1.356 . S
N1983 H1986 0.984 . S
N1983 H1987 0.985 . S
H1984 N1979 0.984 . S
H1985 N1979 0.985 . S
H1986 N1983 0.984 . S
H1987 N1983 0.985 . S
H1988 N1982 0.984 . S
H1989 N1982 0.984 . S
H1990 N1978 0.984 . S
H1991 N1978 0.985 . S
C1992 C1993 1.363 . S
C1992 C1998 1.379 1_556 S
C1992 N2000 1.356 . S
C1993 C1992 1.363 . S
C1993 C1999 1.363 . S
C1994 C1995 1.363 . S
C1994 C1999 1.379 1_554 S
C1994 N2001 1.356 . S
C1995 C1994 1.363 . S
C1995 C1998 1.363 . S
N1996 C1998 1.356 . S
N1996 H2008 0.984 . S
N1996 H2009 0.985 . S
N1997 C1999 1.356 . S
N1997 H2002 0.984 . S
N1997 H2003 0.985 . S
C1998 C1992 1.379 1_554 S
C1998 C1995 1.363 . S
C1998 N1996 1.356 . S
C1999 C1993 1.363 . S
C1999 C1994 1.379 1_556 S
C1999 N1997 1.356 . S
N2000 C1992 1.356 . S
N2000 H2006 0.984 . S
N2000 H2007 0.984 . S
N2001 C1994 1.356 . S
N2001 H2004 0.984 . S
N2001 H2005 0.985 . S
H2002 N1997 0.984 . S
H2003 N1997 0.985 . S
H2004 N2001 0.984 . S
H2005 N2001 0.985 . S
H2006 N2000 0.984 . S
H2007 N2000 0.984 . S
H2008 N1996 0.984 . S
H2009 N1996 0.985 . S
C2010 C2011 1.363 . S
C2010 C2016 1.379 1_556 S
C2010 N2018 1.356 . S
C2011 C2010 1.363 . S
C2011 C2017 1.363 . S
C2012 C2013 1.363 . S
C2012 C2017 1.379 1_554 S
C2012 N2019 1.356 . S
C2013 C2012 1.363 . S
C2013 C2016 1.363 . S
N2014 C2016 1.356 . S
N2014 H2026 0.984 . S
N2014 H2027 0.985 . S
N2015 C2017 1.356 . S
N2015 H2020 0.984 . S
N2015 H2021 0.985 . S
C2016 C2010 1.379 1_554 S
C2016 C2013 1.363 . S
C2016 N2014 1.356 . S
C2017 C2011 1.363 . S
C2017 C2012 1.379 1_556 S
C2017 N2015 1.356 . S
N2018 C2010 1.356 . S
N2018 H2024 0.984 . S
N2018 H2025 0.984 . S
N2019 C2012 1.356 . S
N2019 H2022 0.984 . S
N2019 H2023 0.985 . S
H2020 N2015 0.984 . S
H2021 N2015 0.985 . S
H2022 N2019 0.984 . S
H2023 N2019 0.985 . S
H2024 N2018 0.984 . S
H2025 N2018 0.984 . S
H2026 N2014 0.984 . S
H2027 N2014 0.985 . S
C2028 C2029 1.363 . S
C2028 C2034 1.379 1_556 S
C2028 N2036 1.356 . S
C2029 C2028 1.363 . S
C2029 C2035 1.363 . S
C2030 C2031 1.363 . S
C2030 C2035 1.379 1_554 S
C2030 N2037 1.356 . S
C2031 C2030 1.363 . S
C2031 C2034 1.363 . S
N2032 C2034 1.356 . S
N2032 H2044 0.984 . S
N2032 H2045 0.985 . S
N2033 C2035 1.356 . S
N2033 H2038 0.984 . S
N2033 H2039 0.985 . S
C2034 C2028 1.379 1_554 S
C2034 C2031 1.363 . S
C2034 N2032 1.356 . S
C2035 C2029 1.363 . S
C2035 C2030 1.379 1_556 S
C2035 N2033 1.356 . S
N2036 C2028 1.356 . S
N2036 H2042 0.984 . S
N2036 H2043 0.984 . S
N2037 C2030 1.356 . S
N2037 H2040 0.984 . S
N2037 H2041 0.985 . S
H2038 N2033 0.984 . S
H2039 N2033 0.985 . S
H2040 N2037 0.984 . S
H2041 N2037 0.985 . S
H2042 N2036 0.984 . S
H2043 N2036 0.984 . S
H2044 N2032 0.984 . S
H2045 N2032 0.985 . S
C2046 C2047 1.363 . S
C2046 C2052 1.379 1_556 S
C2046 N2054 1.356 . S
C2047 C2046 1.363 . S
C2047 C2053 1.363 . S
C2048 C2049 1.363 . S
C2048 C2053 1.379 1_554 S
C2048 N2055 1.356 . S
C2049 C2048 1.363 . S
C2049 C2052 1.363 . S
N2050 C2052 1.356 . S
N2050 H2062 0.984 . S
N2050 H2063 0.985 . S
N2051 C2053 1.356 . S
N2051 H2056 0.984 . S
N2051 H2057 0.985 . S
C2052 C2046 1.379 1_554 S
C2052 C2049 1.363 . S
C2052 N2050 1.356 . S
C2053 C2047 1.363 . S
C2053 C2048 1.379 1_556 S
C2053 N2051 1.356 . S
N2054 C2046 1.356 . S
N2054 H2060 0.984 . S
N2054 H2061 0.984 . S
N2055 C2048 1.356 . S
N2055 H2058 0.984 . S
N2055 H2059 0.985 . S
H2056 N2051 0.984 . S
H2057 N2051 0.985 . S
H2058 N2055 0.984 . S
H2059 N2055 0.985 . S
H2060 N2054 0.984 . S
H2061 N2054 0.984 . S
H2062 N2050 0.984 . S
H2063 N2050 0.985 . S
C2064 C2065 1.363 . S
C2064 C2070 1.379 . S
C2064 N2072 1.356 . S
C2065 C2064 1.363 . S
C2065 C2071 1.363 . S
C2066 C2067 1.363 . S
C2066 C2071 1.379 . S
C2066 N2073 1.356 . S
C2067 C2066 1.363 . S
C2067 C2070 1.363 . S
N2068 C2070 1.356 . S
N2068 H2080 0.984 . S
N2068 H2081 0.985 . S
N2069 C2071 1.356 . S
N2069 H2074 0.984 . S
N2069 H2075 0.985 . S
C2070 C2064 1.379 . S
C2070 C2067 1.363 . S
C2070 N2068 1.356 . S
C2071 C2065 1.363 . S
C2071 C2066 1.379 . S
C2071 N2069 1.356 . S
N2072 C2064 1.356 . S
N2072 H2078 0.984 . S
N2072 H2079 0.984 . S
N2073 C2066 1.356 . S
N2073 H2076 0.984 . S
N2073 H2077 0.985 . S
H2074 N2069 0.984 . S
H2075 N2069 0.985 . S
H2076 N2073 0.984 . S
H2077 N2073 0.985 . S
H2078 N2072 0.984 . S
H2079 N2072 0.984 . S
H2080 N2068 0.984 . S
H2081 N2068 0.985 . S
C2082 C2083 1.363 . S
C2082 C2088 1.379 . S
C2082 N2090 1.356 . S
C2083 C2082 1.363 . S
C2083 C2089 1.363 . S
C2084 C2085 1.363 . S
C2084 C2089 1.379 . S
C2084 N2091 1.356 . S
C2085 C2084 1.363 . S
C2085 C2088 1.363 . S
N2086 C2088 1.356 . S
N2086 H2098 0.984 . S
N2086 H2099 0.985 . S
N2087 C2089 1.356 . S
N2087 H2092 0.984 . S
N2087 H2093 0.985 . S
C2088 C2082 1.379 . S
C2088 C2085 1.363 . S
C2088 N2086 1.356 . S
C2089 C2083 1.363 . S
C2089 C2084 1.379 . S
C2089 N2087 1.356 . S
N2090 C2082 1.356 . S
N2090 H2096 0.984 . S
N2090 H2097 0.984 . S
N2091 C2084 1.356 . S
N2091 H2094 0.984 . S
N2091 H2095 0.985 . S
H2092 N2087 0.984 . S
H2093 N2087 0.985 . S
H2094 N2091 0.984 . S
H2095 N2091 0.985 . S
H2096 N2090 0.984 . S
H2097 N2090 0.984 . S
H2098 N2086 0.984 . S
H2099 N2086 0.985 . S
C2100 C2101 1.363 . S
C2100 C2106 1.379 . S
C2100 N2108 1.356 . S
C2101 C2100 1.363 . S
C2101 C2107 1.363 . S
C2102 C2103 1.363 . S
C2102 C2107 1.379 . S
C2102 N2109 1.356 . S
C2103 C2102 1.363 . S
C2103 C2106 1.363 . S
N2104 C2106 1.356 . S
N2104 H2116 0.984 . S
N2104 H2117 0.985 . S
N2105 C2107 1.356 . S
N2105 H2110 0.984 . S
N2105 H2111 0.985 . S
C2106 C2100 1.379 . S
C2106 C2103 1.363 . S
C2106 N2104 1.356 . S
C2107 C2101 1.363 . S
C2107 C2102 1.379 . S
C2107 N2105 1.356 . S
N2108 C2100 1.356 . S
N2108 H2114 0.984 . S
N2108 H2115 0.984 . S
N2109 C2102 1.356 . S
N2109 H2112 0.984 . S
N2109 H2113 0.985 . S
H2110 N2105 0.984 . S
H2111 N2105 0.985 . S
H2112 N2109 0.984 . S
H2113 N2109 0.985 . S
H2114 N2108 0.984 . S
H2115 N2108 0.984 . S
H2116 N2104 0.984 . S
H2117 N2104 0.985 . S
C2118 C2119 1.363 . S
C2118 C2124 1.379 . S
C2118 N2126 1.356 . S
C2119 C2118 1.363 . S
C2119 C2125 1.363 . S
C2120 C2121 1.363 . S
C2120 C2125 1.379 . S
C2120 N2127 1.356 . S
C2121 C2120 1.363 . S
C2121 C2124 1.363 . S
N2122 C2124 1.356 . S
N2122 H2134 0.984 . S
N2122 H2135 0.985 . S
N2123 C2125 1.356 . S
N2123 H2128 0.984 . S
N2123 H2129 0.985 . S
C2124 C2118 1.379 . S
C2124 C2121 1.363 . S
C2124 N2122 1.356 . S
C2125 C2119 1.363 . S
C2125 C2120 1.379 . S
C2125 N2123 1.356 . S
N2126 C2118 1.356 . S
N2126 H2132 0.984 . S
N2126 H2133 0.984 . S
N2127 C2120 1.356 . S
N2127 H2130 0.984 . S
N2127 H2131 0.985 . S
H2128 N2123 0.984 . S
H2129 N2123 0.985 . S
H2130 N2127 0.984 . S
H2131 N2127 0.985 . S
H2132 N2126 0.984 . S
H2133 N2126 0.984 . S
H2134 N2122 0.984 . S
H2135 N2122 0.985 . S
C2136 C2137 1.363 . S
C2136 C2142 1.379 . S
C2136 N2144 1.356 . S
C2137 C2136 1.363 . S
C2137 C2143 1.363 . S
C2138 C2139 1.363 . S
C2138 C2143 1.379 . S
C2138 N2145 1.356 . S
C2139 C2138 1.363 . S
C2139 C2142 1.363 . S
N2140 C2142 1.356 . S
N2140 H2152 0.984 . S
N2140 H2153 0.985 . S
N2141 C2143 1.356 . S
N2141 H2146 0.984 . S
N2141 H2147 0.985 . S
C2142 C2136 1.379 . S
C2142 C2139 1.363 . S
C2142 N2140 1.356 . S
C2143 C2137 1.363 . S
C2143 C2138 1.379 . S
C2143 N2141 1.356 . S
N2144 C2136 1.356 . S
N2144 H2150 0.984 . S
N2144 H2151 0.984 . S
N2145 C2138 1.356 . S
N2145 H2148 0.984 . S
N2145 H2149 0.985 . S
H2146 N2141 0.984 . S
H2147 N2141 0.985 . S
H2148 N2145 0.984 . S
H2149 N2145 0.985 . S
H2150 N2144 0.984 . S
H2151 N2144 0.984 . S
H2152 N2140 0.984 . S
H2153 N2140 0.985 . S
C2154 C2155 1.363 . S
C2154 C2160 1.379 . S
C2154 N2162 1.356 . S
C2155 C2154 1.363 . S
C2155 C2161 1.363 . S
C2156 C2157 1.363 . S
C2156 C2161 1.379 . S
C2156 N2163 1.356 . S
C2157 C2156 1.363 . S
C2157 C2160 1.363 . S
N2158 C2160 1.356 . S
N2158 H2170 0.984 . S
N2158 H2171 0.985 . S
N2159 C2161 1.356 . S
N2159 H2164 0.984 . S
N2159 H2165 0.985 . S
C2160 C2154 1.379 . S
C2160 C2157 1.363 . S
C2160 N2158 1.356 . S
C2161 C2155 1.363 . S
C2161 C2156 1.379 . S
C2161 N2159 1.356 . S
N2162 C2154 1.356 . S
N2162 H2168 0.984 . S
N2162 H2169 0.984 . S
N2163 C2156 1.356 . S
N2163 H2166 0.984 . S
N2163 H2167 0.985 . S
H2164 N2159 0.984 . S
H2165 N2159 0.985 . S
H2166 N2163 0.984 . S
H2167 N2163 0.985 . S
H2168 N2162 0.984 . S
H2169 N2162 0.984 . S
H2170 N2158 0.984 . S
H2171 N2158 0.985 . S
C2172 C2173 1.363 . S
C2172 C2178 1.379 . S
C2172 N2180 1.356 . S
C2173 C2172 1.363 . S
C2173 C2179 1.363 . S
C2174 C2175 1.363 . S
C2174 C2179 1.379 . S
C2174 N2181 1.356 . S
C2175 C2174 1.363 . S
C2175 C2178 1.363 . S
N2176 C2178 1.356 . S
N2176 H2188 0.984 . S
N2176 H2189 0.985 . S
N2177 C2179 1.356 . S
N2177 H2182 0.984 . S
N2177 H2183 0.985 . S
C2178 C2172 1.379 . S
C2178 C2175 1.363 . S
C2178 N2176 1.356 . S
C2179 C2173 1.363 . S
C2179 C2174 1.379 . S
C2179 N2177 1.356 . S
N2180 C2172 1.356 . S
N2180 H2186 0.984 . S
N2180 H2187 0.984 . S
N2181 C2174 1.356 . S
N2181 H2184 0.984 . S
N2181 H2185 0.985 . S
H2182 N2177 0.984 . S
H2183 N2177 0.985 . S
H2184 N2181 0.984 . S
H2185 N2181 0.985 . S
H2186 N2180 0.984 . S
H2187 N2180 0.984 . S
H2188 N2176 0.984 . S
H2189 N2176 0.985 . S
C2190 C2191 1.363 . S
C2190 C2196 1.379 . S
C2190 N2198 1.356 . S
C2191 C2190 1.363 . S
C2191 C2197 1.363 . S
C2192 C2193 1.363 . S
C2192 C2197 1.379 . S
C2192 N2199 1.356 . S
C2193 C2192 1.363 . S
C2193 C2196 1.363 . S
N2194 C2196 1.356 . S
N2194 H2206 0.984 . S
N2194 H2207 0.985 . S
N2195 C2197 1.356 . S
N2195 H2200 0.984 . S
N2195 H2201 0.985 . S
C2196 C2190 1.379 . S
C2196 C2193 1.363 . S
C2196 N2194 1.356 . S
C2197 C2191 1.363 . S
C2197 C2192 1.379 . S
C2197 N2195 1.356 . S
N2198 C2190 1.356 . S
N2198 H2204 0.984 . S
N2198 H2205 0.984 . S
N2199 C2192 1.356 . S
N2199 H2202 0.984 . S
N2199 H2203 0.985 . S
H2200 N2195 0.984 . S
H2201 N2195 0.985 . S
H2202 N2199 0.984 . S
H2203 N2199 0.985 . S
H2204 N2198 0.984 . S
H2205 N2198 0.984 . S
H2206 N2194 0.984 . S
H2207 N2194 0.985 . S
C2208 C2209 1.363 . S
C2208 C2214 1.379 . S
C2208 N2216 1.356 . S
C2209 C2208 1.363 . S
C2209 C2215 1.363 . S
C2210 C2211 1.363 . S
C2210 C2215 1.379 . S
C2210 N2217 1.356 . S
C2211 C2210 1.363 . S
C2211 C2214 1.363 . S
N2212 C2214 1.356 . S
N2212 H2224 0.984 . S
N2212 H2225 0.985 . S
N2213 C2215 1.356 . S
N2213 H2218 0.984 . S
N2213 H2219 0.985 . S
C2214 C2208 1.379 . S
C2214 C2211 1.363 . S
C2214 N2212 1.356 . S
C2215 C2209 1.363 . S
C2215 C2210 1.379 . S
C2215 N2213 1.356 . S
N2216 C2208 1.356 . S
N2216 H2222 0.984 . S
N2216 H2223 0.984 . S
N2217 C2210 1.356 . S
N2217 H2220 0.984 . S
N2217 H2221 0.985 . S
H2218 N2213 0.984 . S
H2219 N2213 0.985 . S
H2220 N2217 0.984 . S
H2221 N2217 0.985 . S
H2222 N2216 0.984 . S
H2223 N2216 0.984 . S
H2224 N2212 0.984 . S
H2225 N2212 0.985 . S
C2226 C2227 1.363 . S
C2226 C2232 1.379 . S
C2226 N2234 1.356 . S
C2227 C2226 1.363 . S
C2227 C2233 1.363 . S
C2228 C2229 1.363 . S
C2228 C2233 1.379 . S
C2228 N2235 1.356 . S
C2229 C2228 1.363 . S
C2229 C2232 1.363 . S
N2230 C2232 1.356 . S
N2230 H2242 0.984 . S
N2230 H2243 0.985 . S
N2231 C2233 1.356 . S
N2231 H2236 0.984 . S
N2231 H2237 0.985 . S
C2232 C2226 1.379 . S
C2232 C2229 1.363 . S
C2232 N2230 1.356 . S
C2233 C2227 1.363 . S
C2233 C2228 1.379 . S
C2233 N2231 1.356 . S
N2234 C2226 1.356 . S
N2234 H2240 0.984 . S
N2234 H2241 0.984 . S
N2235 C2228 1.356 . S
N2235 H2238 0.984 . S
N2235 H2239 0.985 . S
H2236 N2231 0.984 . S
H2237 N2231 0.985 . S
H2238 N2235 0.984 . S
H2239 N2235 0.985 . S
H2240 N2234 0.984 . S
H2241 N2234 0.984 . S
H2242 N2230 0.984 . S
H2243 N2230 0.985 . S
C2244 C2245 1.363 . S
C2244 C2250 1.379 . S
C2244 N2252 1.356 . S
C2245 C2244 1.363 . S
C2245 C2251 1.363 . S
C2246 C2247 1.363 . S
C2246 C2251 1.379 . S
C2246 N2253 1.356 . S
C2247 C2246 1.363 . S
C2247 C2250 1.363 . S
N2248 C2250 1.356 . S
N2248 H2260 0.984 . S
N2248 H2261 0.985 . S
N2249 C2251 1.356 . S
N2249 H2254 0.984 . S
N2249 H2255 0.985 . S
C2250 C2244 1.379 . S
C2250 C2247 1.363 . S
C2250 N2248 1.356 . S
C2251 C2245 1.363 . S
C2251 C2246 1.379 . S
C2251 N2249 1.356 . S
N2252 C2244 1.356 . S
N2252 H2258 0.984 . S
N2252 H2259 0.984 . S
N2253 C2246 1.356 . S
N2253 H2256 0.984 . S
N2253 H2257 0.985 . S
H2254 N2249 0.984 . S
H2255 N2249 0.985 . S
H2256 N2253 0.984 . S
H2257 N2253 0.985 . S
H2258 N2252 0.984 . S
H2259 N2252 0.984 . S
H2260 N2248 0.984 . S
H2261 N2248 0.985 . S
C2262 C2263 1.363 . S
C2262 C2268 1.379 . S
C2262 N2270 1.356 . S
C2263 C2262 1.363 . S
C2263 C2269 1.363 . S
C2264 C2265 1.363 . S
C2264 C2269 1.379 . S
C2264 N2271 1.356 . S
C2265 C2264 1.363 . S
C2265 C2268 1.363 . S
N2266 C2268 1.356 . S
N2266 H2278 0.984 . S
N2266 H2279 0.985 . S
N2267 C2269 1.356 . S
N2267 H2272 0.984 . S
N2267 H2273 0.985 . S
C2268 C2262 1.379 . S
C2268 C2265 1.363 . S
C2268 N2266 1.356 . S
C2269 C2263 1.363 . S
C2269 C2264 1.379 . S
C2269 N2267 1.356 . S
N2270 C2262 1.356 . S
N2270 H2276 0.984 . S
N2270 H2277 0.984 . S
N2271 C2264 1.356 . S
N2271 H2274 0.984 . S
N2271 H2275 0.985 . S
H2272 N2267 0.984 . S
H2273 N2267 0.985 . S
H2274 N2271 0.984 . S
H2275 N2271 0.985 . S
H2276 N2270 0.984 . S
H2277 N2270 0.984 . S
H2278 N2266 0.984 . S
H2279 N2266 0.985 . S
C1417 C682 1.649 . S
C1419 C3 1.565 . S
C1435 C62 1.565 . S
C1437 C505 1.649 . S
C1453 C121 1.565 . S
C1455 C564 1.649 . S
C1471 C180 1.565 . S
C1473 C623 1.649 . S
C1489 C800 1.649 . S
C1491 C239 1.565 . S
C1507 C298 1.565 . S
C1509 C859 1.649 . S
C1525 C918 1.649 . S
C1527 C357 1.565 . S
C1543 C741 1.649 . S
C1545 C416 1.565 . S
C1561 C328 1.649 . S
C1563 C475 1.565 . S
C1579 C387 1.649 . S
C1581 C534 1.565 . S
C1597 C593 1.565 . S
C1599 C446 1.649 . S
C1615 C269 1.649 . S
C1617 C652 1.565 . S
C1633 C210 1.649 . S
C1635 C711 1.565 . S
C1651 C770 1.565 . S
C1653 C33 1.649 . S
C1669 C829 1.565 . S
C1671 C92 1.649 . S
C1687 C888 1.565 . S
C1689 C151 1.649 . S
C1705 C947 1.565 . S
C1707 C1390 1.649 . S
C1723 C1213 1.649 . S
C1725 C1006 1.565 . S
C1741 C1065 1.565 . S
C1743 C1036 1.649 . S
C1759 C1124 1.565 . S
C1761 C1095 1.649 . S
C1777 C1154 1.649 . S
C1779 C1183 1.565 . S
C1795 C1242 1.565 . S
C1797 C1331 1.649 . S
C1813 C977 1.649 . S
C1815 C1301 1.565 . S
C1831 C1272 1.649 . S
C1833 C1360 1.565 . S
C1849 C52 1.615 . S
C1851 C406 1.615 . S
C1867 C111 1.615 . S
C1869 C465 1.615 . S
C1885 C170 1.615 . S
C1887 C288 1.615 . S
C1903 C347 1.615 . S
C1905 C229 1.615 . S
C1921 C642 1.615 . S
C1923 C524 1.615 . S
C1939 C583 1.615 . S
C1941 C701 1.615 . S
C1957 C760 1.615 . S
C1959 C878 1.615 . S
C1975 C937 1.615 . S
C1977 C819 1.615 . S
C1993 C1055 1.615 . S
C1995 C996 1.615 . S
C2011 C1114 1.615 . S
C2013 C1409 1.615 . S
C2029 C1173 1.615 . S
C2031 C1291 1.615 . S
C2047 C1232 1.615 . S
C2049 C1350 1.615 . S
C2065 C5 1.240 . S
C2067 C300 1.240 . S
C2083 C64 1.240 . S
C2085 C359 1.240 . S
C2101 C123 1.240 . S
C2103 C418 1.240 . S
C2119 C241 1.240 . S
C2121 C182 1.240 . S
C2137 C477 1.240 . S
C2139 C1362 1.240 . S
C2155 C536 1.240 . S
C2157 C1244 1.240 . S
C2173 C1303 1.240 . S
C2175 C595 1.240 . S
C2191 C654 1.240 . S
C2193 C949 1.240 . S
C2209 C1185 1.240 . S
C2211 C713 1.240 . S
C2227 C1008 1.240 . S
C2229 C772 1.240 . S
C2245 C831 1.240 . S
C2247 C1067 1.240 . S
C2263 C1126 1.240 . S
C2265 C890 1.240 . S
