# Generated by pormake.
# Topology lcy-e, (6)-cn, num edge types: 1
# Building blocks:
#     Node 0, Type 0, BuildingBlock: KUMJIN_clean_sbu_0, # of connection points: 6
#     Node 1, Type 0, BuildingBlock: KUMJIN_clean_sbu_0, # of connection points: 6
#     Node 2, Type 0, BuildingBlock: KUMJIN_clean_sbu_0, # of connection points: 6
#     Node 3, Type 0, BuildingBlock: KUMJIN_clean_sbu_0, # of connection points: 6
#     Node 4, Type 0, BuildingBlock: KUMJIN_clean_sbu_0, # of connection points: 6
#     Node 5, Type 0, BuildingBlock: KUMJIN_clean_sbu_0, # of connection points: 6
#     Node 6, Type 0, BuildingBlock: KUMJIN_clean_sbu_0, # of connection points: 6
#     Node 7, Type 0, BuildingBlock: KUMJIN_clean_sbu_0, # of connection points: 6
#     Node 8, Type 0, BuildingBlock: KUMJIN_clean_sbu_0, # of connection points: 6
#     Node 9, Type 0, BuildingBlock: KUMJIN_clean_sbu_0, # of connection points: 6
#     Node 10, Type 0, BuildingBlock: KUMJIN_clean_sbu_0, # of connection points: 6
#     Node 11, Type 0, BuildingBlock: KUMJIN_clean_sbu_0, # of connection points: 6
#     Edge 12, Type (0, 0), None
#     Edge 13, Type (0, 0), None
#     Edge 14, Type (0, 0), None
#     Edge 15, Type (0, 0), None
#     Edge 16, Type (0, 0), None
#     Edge 17, Type (0, 0), None
#     Edge 18, Type (0, 0), None
#     Edge 19, Type (0, 0), None
#     Edge 20, Type (0, 0), None
#     Edge 21, Type (0, 0), None
#     Edge 22, Type (0, 0), None
#     Edge 23, Type (0, 0), None
#     Edge 24, Type (0, 0), None
#     Edge 25, Type (0, 0), None
#     Edge 26, Type (0, 0), None
#     Edge 27, Type (0, 0), None
#     Edge 28, Type (0, 0), None
#     Edge 29, Type (0, 0), None
#     Edge 30, Type (0, 0), None
#     Edge 31, Type (0, 0), None
#     Edge 32, Type (0, 0), None
#     Edge 33, Type (0, 0), None
#     Edge 34, Type (0, 0), None
#     Edge 35, Type (0, 0), None
#     Edge 36, Type (0, 0), None
#     Edge 37, Type (0, 0), None
#     Edge 38, Type (0, 0), None
#     Edge 39, Type (0, 0), None
#     Edge 40, Type (0, 0), None
#     Edge 41, Type (0, 0), None
#     Edge 42, Type (0, 0), None
#     Edge 43, Type (0, 0), None
#     Edge 44, Type (0, 0), None
#     Edge 45, Type (0, 0), None
#     Edge 46, Type (0, 0), None
#     Edge 47, Type (0, 0), None
# Relax obj value: 0.090
# Max RMSD: 0.313
# Mean RMSD: 0.309
data_MOF--net-lcy-e--node1-KUMJIN_clean_sbu_0--edge1-none
_symmetry_space_group_name_H-M    P1
_symmetry_Int_Tables_number       1
_symmetry_cell_setting            triclinic
loop_
_symmetry_equiv_pos_as_xyz
'x, y, z'
_cell_length_a     24.063735
_cell_length_b     24.015332
_cell_length_c     24.365444
_cell_angle_alpha  89.310658
_cell_angle_beta   90.446265
_cell_angle_gamma 91.471658
loop_
_atom_site_label
_atom_site_type_symbol
_atom_site_fract_x
_atom_site_fract_y
_atom_site_fract_z
_atom_type_partial_charge
Eu0 Eu 0.15229 0.21724 0.57689 0.0
C1 C 0.01666 0.35269 0.38908 0.0
C2 C 0.99984 0.2841 0.31866 0.0
C3 C 0.95656 0.37418 0.31119 0.0
C4 C 0.02659 0.30113 0.36774 0.0
C5 C 0.98098 0.38966 0.36145 0.0
C6 C 0.96572 0.3213 0.28996 0.0
C7 C 0.99244 0.45218 0.43756 0.0
N8 N 0.04185 0.36662 0.43714 0.0
C9 C 0.03003 0.41552 0.46191 0.0
C10 C 0.96973 0.44041 0.386 0.0
Eu11 Eu 0.12034 0.31417 0.46229 0.0
N12 N 0.06229 0.26768 0.39513 0.0
C13 C 0.07118 0.21524 0.37579 0.0
C14 C 1.00829 0.23036 0.29974 0.0
C15 C 0.04354 0.19554 0.32892 0.0
H16 H 0.05074 0.42732 0.49954 0.0
H17 H 0.05071 0.15389 0.31451 0.0
H18 H 0.94551 0.30921 0.25187 0.0
H19 H 0.98211 0.4903 0.45776 0.0
H20 H 0.0999 0.1878 0.39556 0.0
H21 H 0.20674 0.35932 0.75171 0.0
H22 H 0.98798 0.21544 0.26268 0.0
H23 H 0.19074 0.10047 0.52268 0.0
H24 H 0.15489 0.32046 0.668 0.0
H25 H 0.25751 0.02606 0.54137 0.0
H26 H 0.92931 0.40212 0.28928 0.0
H27 H 0.29936 0.2916 0.74774 0.0
H28 H 0.39179 0.18369 0.72924 0.0
H29 H 0.94187 0.4696 0.36668 0.0
H30 H 0.38088 0.09915 0.67583 0.0
N31 N 0.2108 0.24673 0.64741 0.0
C32 C 0.18859 0.29667 0.68059 0.0
C33 C 0.31882 0.27307 0.74341 0.0
C34 C 0.31888 0.22142 0.69648 0.0
C35 C 0.22507 0.32431 0.73166 0.0
C36 C 0.26518 0.21169 0.6519 0.0
H37 H 0.33053 0.03931 0.61171 0.0
N38 N 0.22817 0.15672 0.57943 0.0
C39 C 0.26126 0.06511 0.56296 0.0
C40 C 0.26791 0.1651 0.61915 0.0
C41 C 0.22429 0.10755 0.55174 0.0
C42 C 0.30218 0.07274 0.60317 0.0
C43 C 0.30736 0.12353 0.63093 0.0
O44 O 0.10062 0.14183 0.59027 0.0
O45 O 0.09277 0.24585 0.51426 0.0
O46 O 0.07717 0.34161 0.54741 0.0
O47 O 0.09455 0.27424 0.61618 0.0
O48 O 0.0969 0.16191 0.52029 0.0
O49 O 0.12973 0.18679 0.6604 0.0
O50 O 0.13735 0.3785 0.39948 0.0
O51 O 0.16868 0.31109 0.54229 0.0
O52 O 0.22325 0.2145 0.51636 0.0
O53 O 0.17148 0.23757 0.43958 0.0
O54 O 0.16115 0.38735 0.49651 0.0
O55 O 0.19815 0.31659 0.41522 0.0
C56 C 0.06964 0.20207 0.4982 0.0
C57 C 0.11167 0.08727 0.67022 0.0
C58 C 0.07791 0.99474 0.70355 0.0
C59 C 0.06797 0.05191 0.69107 0.0
C60 C 0.12863 0.97304 0.68747 0.0
C61 C 0.16437 0.06506 0.66594 0.0
C62 C 0.172 1.00809 0.67023 0.0
C63 C 0.07513 0.3221 0.60045 0.0
C64 C 0.10171 0.14275 0.64355 0.0
C65 C 0.35092 0.13159 0.6694 0.0
C66 C 0.35785 0.18013 0.69998 0.0
C67 C 0.18313 0.36508 0.53936 0.0
C68 C 0.18933 0.34925 0.32236 0.0
C69 C 0.21 0.39228 0.28704 0.0
C70 C 0.21045 0.38575 0.22903 0.0
C71 C 0.19309 0.33416 0.20753 0.0
C72 C 0.1728 0.2983 0.29901 0.0
C73 C 0.17488 0.29083 0.24229 0.0
C74 C 0.21591 0.21502 0.4628 0.0
C75 C 0.18361 0.35747 0.38296 0.0
H76 H 0.02693 0.06833 0.69673 0.0
H77 H 0.13577 0.929 0.69053 0.0
H78 H 0.19927 0.09153 0.65702 0.0
H79 H 0.21214 0.99117 0.66136 0.0
H80 H 0.22572 0.43063 0.30468 0.0
H81 H 0.19323 0.32727 0.16368 0.0
H82 H 0.15858 0.26398 0.32468 0.0
H83 H 0.16178 0.25123 0.22507 0.0
Eu84 Eu 0.95968 0.86596 0.74103 0.0
C85 C 0.14839 0.02007 0.82905 0.0
C86 C 0.23458 0.99984 0.78355 0.0
C87 C 0.22132 0.0921 0.81902 0.0
C88 C 0.18078 0.98321 0.80174 0.0
C89 C 0.17006 0.074 0.84074 0.0
C90 C 0.25346 0.05509 0.79006 0.0
C91 C 0.09411 0.08489 0.90226 0.0
N92 N 0.09878 1.0014 0.84973 0.0
C93 C 0.07189 0.03311 0.88637 0.0
C94 C 0.14205 0.10644 0.87781 0.0
Eu95 Eu 0.07236 0.90629 0.83505 0.0
N96 N 0.16166 0.92992 0.79668 0.0
C97 C 0.19746 0.89014 0.77939 0.0
C98 C 0.26869 0.96005 0.761 0.0
C99 C 0.25032 0.90473 0.7598 0.0
H100 H 0.0348 0.01728 0.90549 0.0
H101 H 0.2774 0.87296 0.74507 0.0
H102 H 0.29397 0.0688 0.77526 0.0
H103 H 0.07398 0.10904 0.93286 0.0
H104 H 0.18664 0.84633 0.78166 0.0
H105 H 0.75175 0.82579 0.83453 0.0
H106 H 0.31 0.97122 0.7465 0.0
H107 H 0.0207 0.78949 0.64549 0.0
H108 H 0.84729 0.85992 0.8361 0.0
H109 H 0.99475 0.72154 0.57537 0.0
H110 H 0.23776 0.1337 0.82684 0.0
H111 H 0.71556 0.7708 0.75719 0.0
H112 H 0.73249 0.7268 0.66703 0.0
H113 H 0.15819 0.14719 0.88953 0.0
H114 H 0.798 0.69953 0.59644 0.0
N115 N 0.86992 0.8227 0.75989 0.0
C116 C 0.83438 0.83517 0.8017 0.0
C117 C 0.75881 0.78455 0.75779 0.0
C118 C 0.79477 0.77089 0.71571 0.0
C119 C 0.77911 0.81572 0.80149 0.0
C120 C 0.85126 0.78851 0.71916 0.0
H121 H 0.89616 0.69551 0.56329 0.0
N122 N 0.94287 0.78717 0.68512 0.0
C123 C 0.96471 0.73363 0.60557 0.0
C124 C 0.88871 0.77039 0.6808 0.0
C125 C 0.98037 0.77006 0.64738 0.0
C126 C 0.90894 0.71874 0.59903 0.0
C127 C 0.87016 0.7365 0.63698 0.0
O128 O 0.98002 0.88822 0.65668 0.0
O129 O 0.04527 0.90823 0.74943 0.0
O130 O 0.98819 0.96341 0.83682 0.0
O131 O 0.9138 0.91356 0.79648 0.0
O132 O 0.98337 0.95691 0.71799 0.0
O133 O 0.89858 0.90815 0.68837 0.0
O134 O 0.12924 0.90945 0.90664 0.0
O135 O 0.98877 0.86288 0.83438 0.0
O136 O 0.01622 0.79196 0.75179 0.0
O137 O 0.0922 0.84804 0.7645 0.0
O138 O 0.03075 0.87127 0.90952 0.0
O139 O 0.11492 0.83145 0.86267 0.0
C140 C 0.03561 0.95543 0.72837 0.0
C141 C 0.90788 0.90003 0.59071 0.0
C142 C 0.84551 0.92437 0.51494 0.0
C143 C 0.86633 0.9345 0.56829 0.0
C144 C 0.86232 0.87658 0.48763 0.0
C145 C 0.93032 0.85907 0.55738 0.0
C146 C 0.90554 0.84517 0.5078 0.0
C147 C 0.93296 0.95689 0.82125 0.0
C148 C 0.93184 0.91024 0.64595 0.0
C149 C 0.81342 0.72291 0.63128 0.0
C150 C 0.77593 0.73924 0.67101 0.0
C151 C 0.9849 0.85469 0.88789 0.0
C152 C 0.17109 0.82589 0.945 0.0
C153 C 0.22993 0.82187 0.94791 0.0
C154 C 0.25547 0.78636 0.9871 0.0
C155 C 0.22081 0.75603 0.02351 0.0
C156 C 0.1382 0.79414 0.98135 0.0
C157 C 0.16308 0.76013 0.02081 0.0
C158 C 0.0706 0.79868 0.75178 0.0
C159 C 0.14433 0.85791 0.89999 0.0
H160 H 0.85235 0.97 0.59097 0.0
H161 H 0.84226 0.86331 0.45041 0.0
H162 H 0.9677 0.8383 0.56876 0.0
H163 H 0.92077 0.81085 0.48428 0.0
H164 H 0.25538 0.84304 0.9172 0.0
H165 H 0.23784 0.72631 0.05225 0.0
H166 H 0.09326 0.79558 0.97921 0.0
H167 H 0.13746 0.73586 0.04891 0.0
Eu168 Eu 0.41344 0.71256 0.96771 0.0
C169 C 0.28927 0.89007 0.0806 0.0
C170 C 0.30334 0.95965 1.00912 0.0
C171 C 0.24243 0.97836 0.08538 0.0
C172 C 0.31611 0.90775 0.03336 0.0
C173 C 0.25256 0.9253 0.10753 0.0
C174 C 0.26657 0.99489 0.0355 0.0
C175 C 0.23769 0.85228 0.1753 0.0
N176 N 0.30071 0.83911 0.1015 0.0
C177 C 0.27475 0.81962 0.14688 0.0
C178 C 0.22698 0.90582 0.15588 0.0
Eu179 Eu 0.38642 0.80423 0.07563 0.0
N180 N 0.356 0.87514 0.01239 0.0
C181 C 0.38383 0.89268 0.96618 0.0
C182 C 0.32949 0.97559 0.96023 0.0
C183 C 0.36961 0.94163 0.93844 0.0
H184 H 0.28723 0.78111 0.16257 0.0
H185 H 0.39133 0.95426 0.9014 0.0
H186 H 0.25712 0.03531 0.01806 0.0
H187 H 0.21859 0.8367 0.21271 0.0
H188 H 0.41757 0.86996 0.95049 0.0
H189 H 0.58283 0.56769 0.98586 0.0
H190 H 0.32012 1.01463 0.93984 0.0
H191 H 0.38862 0.80908 0.87031 0.0
H192 H 0.49644 0.61343 0.0152 0.0
H193 H 0.43474 0.8494 0.78763 0.0
H194 H 0.21444 1.0061 0.10551 0.0
H195 H 0.63299 0.60132 0.90431 0.0
H196 H 0.64336 0.67199 0.82847 0.0
H197 H 0.19803 0.93121 0.17766 0.0
H198 H 0.60512 0.75077 0.77633 0.0
N199 N 0.50067 0.67409 0.95157 0.0
C200 C 0.5197 0.6297 0.98061 0.0
C201 C 0.59633 0.62262 0.91749 0.0
C202 C 0.57728 0.66892 0.88855 0.0
C203 C 0.56776 0.60331 0.96379 0.0
C204 C 0.52828 0.69386 0.90631 0.0
H205 H 0.52716 0.81665 0.76057 0.0
N206 N 0.4568 0.75847 0.89192 0.0
C207 C 0.45555 0.81855 0.81254 0.0
C208 C 0.50633 0.73777 0.8761 0.0
C209 C 0.42974 0.79607 0.85933 0.0
C210 C 0.50782 0.80008 0.79747 0.0
C211 C 0.53337 0.75846 0.82866 0.0
O212 O 0.3547 0.69813 0.89976 0.0
O213 O 0.36005 0.78412 0.99226 0.0
O214 O 0.33565 0.71355 0.07868 0.0
O215 O 0.3926 0.65207 0.03202 0.0
O216 O 0.31924 0.71646 0.95932 0.0
O217 O 0.41011 0.63275 0.92229 0.0
O218 O 0.39099 0.84849 0.1545 0.0
O219 O 0.43832 0.72974 0.06465 0.0
O220 O 0.4691 0.78977 0.96113 0.0
O221 O 0.47822 0.81317 0.05079 0.0
O222 O 0.40488 0.74696 0.14561 0.0
O223 O 0.43827 0.87969 0.08441 0.0
C224 C 0.31246 0.76533 0.97777 0.0
C225 C 0.37551 0.63721 0.82752 0.0
C226 C 0.33419 0.60616 0.73906 0.0
C227 C 0.32919 0.6169 0.79603 0.0
C228 C 0.38317 0.62391 0.71257 0.0
C229 C 0.42535 0.64869 0.79981 0.0
C230 C 0.42851 0.64439 0.74285 0.0
C231 C 0.3484 0.6607 0.06122 0.0
C232 C 0.37104 0.64867 0.88796 0.0
C233 C 0.58357 0.73527 0.81253 0.0
C234 C 0.60523 0.69031 0.84213 0.0
C235 C 0.43646 0.71442 0.11817 0.0
C236 C 0.46377 0.91818 0.17109 0.0
C237 C 0.46533 0.97741 0.17344 0.0
C238 C 0.50409 1.00591 0.20788 0.0
C239 C 0.54273 0.97416 0.23741 0.0
C240 C 0.50229 0.88807 0.20195 0.0
C241 C 0.54174 0.91608 0.23447 0.0
C242 C 0.49742 0.81423 1.00038 0.0
C243 C 0.42311 0.88884 0.13476 0.0
H244 H 0.28932 0.60997 0.81502 0.0
H245 H 0.38828 0.61725 0.66906 0.0
H246 H 0.46235 0.65991 0.82197 0.0
H247 H 0.46725 0.65459 0.72234 0.0
H248 H 0.43594 1.00108 0.14933 0.0
H249 H 0.5743 0.99421 0.26264 0.0
H250 H 0.5023 0.84299 0.20034 0.0
H251 H 0.57207 0.89277 0.25744 0.0
Eu252 Eu 0.58162 0.15952 0.22281 0.0
C253 C 0.40359 0.02554 0.28359 0.0
C254 C 0.33616 0.05715 0.21665 0.0
C255 C 0.33285 0.96103 0.24832 0.0
C256 C 0.38312 0.06794 0.25031 0.0
C257 C 0.38038 0.97112 0.28052 0.0
C258 C 0.30997 1.00455 0.21791 0.0
C259 C 0.45212 0.94024 0.34262 0.0
N260 N 0.4478 0.0366 0.31691 0.0
C261 C 0.47163 0.99521 0.34692 0.0
C262 C 0.40641 0.92812 0.30893 0.0
Eu263 Eu 0.47971 0.12985 0.31994 0.0
N264 N 0.40974 0.11878 0.24957 0.0
C265 C 0.3911 0.15954 0.21458 0.0
C266 C 0.3168 0.09924 0.18211 0.0
C267 C 0.3449 0.15039 0.18059 0.0
H268 H 0.50651 1.00429 0.37314 0.0
H269 H 0.33095 0.1831 0.1532 0.0
H270 H 0.2723 0.99752 0.19481 0.0
H271 H 0.47283 0.90739 0.36475 0.0
H272 H 0.41097 0.19948 0.21075 0.0
H273 H 0.74362 0.31772 0.24802 0.0
H274 H 0.28092 0.0923 0.15566 0.0
H275 H 0.46723 0.16184 0.135 0.0
H276 H 0.68048 0.23971 0.27736 0.0
H277 H 0.44016 0.20977 0.05016 0.0
H278 H 0.31346 0.91986 0.2469 0.0
H279 H 0.72972 0.36255 0.15718 0.0
H280 H 0.67539 0.36515 0.06785 0.0
H281 H 0.39223 0.88543 0.30379 0.0
H282 H 0.59026 0.34071 0.01636 0.0
N283 N 0.63065 0.2438 0.20574 0.0
C284 C 0.67294 0.26145 0.23916 0.0
C285 C 0.70073 0.33033 0.17098 0.0
C286 C 0.65527 0.31372 0.13825 0.0
C287 C 0.7089 0.30488 0.22221 0.0
C288 C 0.62005 0.27026 0.15734 0.0
H289 H 0.50132 0.28386 1.01045 0.0
N290 N 0.54307 0.20879 0.14565 0.0
C291 C 0.47859 0.22166 0.0708 0.0
C292 C 0.57523 0.2518 0.12585 0.0
C293 C 0.49439 0.19439 0.1193 0.0
C294 C 0.51305 0.26354 0.04856 0.0
C295 C 0.56188 0.27928 0.07628 0.0
O296 O 0.60921 0.09618 0.1654 0.0
O297 O 0.52481 0.09286 0.25418 0.0
O298 O 0.56537 0.07855 0.32903 0.0
O299 O 0.63462 0.13588 0.29085 0.0
O300 O 0.52795 0.09723 0.17233 0.0
O301 O 0.6694 0.14858 0.20493 0.0
O302 O 0.42876 0.09894 0.38864 0.0
O303 O 0.55481 0.18748 0.31425 0.0
O304 O 0.53511 0.23628 0.22684 0.0
O305 O 0.46304 0.21958 0.28712 0.0
O306 O 0.53834 0.14432 0.38794 0.0
O307 O 0.42433 0.18501 0.36443 0.0
C308 C 0.50708 0.0683 0.21195 0.0
C309 C 0.68295 0.12587 0.11098 0.0
C310 C 0.69645 0.10259 0.01489 0.0
C311 C 0.69043 0.08511 0.07023 0.0
C312 C 0.68411 0.15815 1.00104 0.0
C313 C 0.68869 0.18186 0.09588 0.0
C314 C 0.68361 0.19812 0.04144 0.0
C315 C 0.6201 0.09114 0.31778 0.0
C316 C 0.66083 0.11236 0.16617 0.0
C317 C 0.59807 0.32105 0.05584 0.0
C318 C 0.64562 0.33665 0.086 0.0
C319 C 0.5692 0.18166 0.36672 0.0
C320 C 0.34023 0.14212 0.39786 0.0
C321 C 0.30917 0.18258 0.42587 0.0
C322 C 0.25027 0.17743 0.42933 0.0
C323 C 0.22304 0.13305 0.40257 0.0
C324 C 0.31105 0.09723 0.37367 0.0
C325 C 0.2532 0.09331 0.37521 0.0
C326 C 0.49135 0.25253 0.25252 0.0
C327 C 0.40259 0.14541 0.39493 0.0
H328 H 0.69408 0.04164 0.0817 0.0
H329 H 0.68521 0.173 0.95894 0.0
H330 H 0.69691 0.21266 0.12638 0.0
H331 H 0.68394 0.24177 0.03012 0.0
H332 H 0.33066 0.2173 0.44543 0.0
H333 H 0.17828 0.12779 0.40462 0.0
H334 H 0.33279 0.06444 0.35404 0.0
H335 H 0.23162 0.05849 0.35597 0.0
Eu336 Eu 0.61615 0.19349 0.55766 0.0
C337 C 0.78582 0.33391 0.44965 0.0
C338 C 0.80534 0.40796 0.51444 0.0
C339 C 0.87971 0.37018 0.46138 0.0
C340 C 0.76821 0.36845 0.49096 0.0
C341 C 0.84176 0.33511 0.43394 0.0
C342 C 0.86143 0.40854 0.49944 0.0
C343 C 0.81802 0.26973 0.36253 0.0
N344 N 0.74812 0.30013 0.42401 0.0
C345 C 0.76251 0.2709 0.37879 0.0
C346 C 0.85801 0.30062 0.39149 0.0
Eu347 Eu 0.65738 0.30072 0.45898 0.0
N348 N 0.71467 0.36413 0.50754 0.0
C349 C 0.69417 0.40126 0.54361 0.0
C350 C 0.78529 0.44431 0.55357 0.0
C351 C 0.7293 0.44129 0.56796 0.0
H352 H 0.7314 0.24661 0.35696 0.0
H353 H 0.7131 0.47009 0.5973 0.0
H354 H 0.89121 0.43733 0.51798 0.0
H355 H 0.8302 0.24484 0.32819 0.0
H356 H 0.65062 0.40097 0.55274 0.0
H357 H 0.52445 0.94302 0.47259 0.0
H358 H 0.81267 0.47484 0.57252 0.0
H359 H 0.53115 0.26091 0.65332 0.0
H360 H 0.63654 0.05542 0.53927 0.0
H361 H 0.43409 0.29074 0.65272 0.0
H362 H 0.92333 0.36645 0.45451 0.0
H363 H 0.4186 0.98711 0.47932 0.0
H364 H 0.35946 0.07387 0.49936 0.0
H365 H 0.90111 0.29793 0.38056 0.0
H366 H 0.34164 0.16703 0.53149 0.0
N367 N 0.56051 0.11014 0.55176 0.0
C368 C 0.5913 0.05633 0.53444 0.0
C369 C 0.4538 1.01024 0.49617 0.0
C370 C 0.44464 0.07451 0.52425 0.0
C371 C 0.51911 0.98342 0.4918 0.0
C372 C 0.49607 0.11924 0.54957 0.0
H373 H 0.36625 0.24722 0.58854 0.0
N374 N 0.51972 0.20639 0.58476 0.0
C375 C 0.44698 0.25866 0.62507 0.0
C376 C 0.48031 0.17115 0.56352 0.0
C377 C 0.50228 0.24223 0.62427 0.0
C378 C 0.40873 0.23346 0.58941 0.0
C379 C 0.42396 0.18559 0.56167 0.0
O380 O 0.60176 0.16687 0.6429 0.0
O381 O 0.66811 0.27358 0.54612 0.0
O382 O 0.70158 0.21087 0.45137 0.0
O383 O 0.64418 0.14108 0.48797 0.0
O384 O 0.70951 0.20522 0.57363 0.0
O385 O 0.67846 0.14555 0.60605 0.0
O386 O 0.67804 0.37198 0.40568 0.0
O387 O 0.60566 0.22217 0.46069 0.0
O388 O 0.59738 0.28078 0.58651 0.0
O389 O 0.58173 0.32938 0.50717 0.0
O390 O 0.62246 0.26437 0.38332 0.0
O391 O 0.59335 0.36061 0.43194 0.0
C392 C 0.71514 0.25804 0.56407 0.0
C393 C 0.67898 0.15734 0.70563 0.0
C394 C 0.73754 0.13192 0.78714 0.0
C395 C 0.71555 0.11964 0.73346 0.0
C396 C 0.72365 0.18249 0.81098 0.0
C397 C 0.66567 0.2065 0.73279 0.0
C398 C 0.68827 0.21915 0.78418 0.0
C399 C 0.68848 0.15562 0.46037 0.0
C400 C 0.65002 0.14463 0.65137 0.0
C401 C 0.38338 0.15196 0.53564 0.0
C402 C 0.3929 0.09771 0.51853 0.0
C403 C 0.59639 0.22289 0.40609 0.0
C404 C 0.61086 0.42284 0.35393 0.0
C405 C 0.58218 0.47457 0.35407 0.0
C406 C 0.56719 0.50178 0.30361 0.0
C407 C 0.57939 0.47469 0.25508 0.0
C408 C 0.62823 0.40232 0.30364 0.0
C409 C 0.61405 0.42907 0.2549 0.0
C410 C 0.57239 0.32116 0.55969 0.0
C411 C 0.62857 0.39305 0.40534 0.0
H412 H 0.72559 0.08077 0.71427 0.0
H413 H 0.73986 0.19346 0.85118 0.0
H414 H 0.6367 0.23523 0.71462 0.0
H415 H 0.67754 0.25754 0.80386 0.0
H416 H 0.57179 0.49324 0.39278 0.0
H417 H 0.56406 0.49077 0.21663 0.0
H418 H 0.65265 0.36519 0.30205 0.0
H419 H 0.62805 0.41275 0.21638 0.0
Eu420 Eu 0.96715 0.42519 0.68602 0.0
C421 C 0.03858 0.28654 0.86212 0.0
C422 C 0.99264 0.31489 0.94548 0.0
C423 C 1.01187 0.21764 0.9317 0.0
C424 C 1.01549 0.32785 0.89348 0.0
C425 C 0.03291 0.23057 0.87934 0.0
C426 C 0.99284 0.25984 0.9652 0.0
C427 C 0.07176 0.20351 0.79307 0.0
N428 N 0.06147 0.30016 0.81263 0.0
C429 C 0.08212 0.25955 0.78037 0.0
C430 C 0.04466 0.18931 0.84163 0.0
Eu431 Eu 0.06475 0.39681 0.79174 0.0
N432 N 1.0111 0.37955 0.8712 0.0
C433 C 0.98625 0.42085 0.89962 0.0
C434 C 0.96811 0.35719 0.97513 0.0
C435 C 0.96469 0.41037 0.95194 0.0
H436 H 0.10524 0.26936 0.7441 0.0
H437 H 0.94525 0.44328 0.97422 0.0
H438 H 0.9753 0.24895 1.00487 0.0
H439 H 0.08414 0.17136 0.7653 0.0
H440 H 0.98376 0.46228 0.8825 0.0
H441 H 0.02408 0.57168 0.5203 0.0
H442 H 0.95036 0.34884 0.01522 0.0
H443 H 0.86356 0.43687 0.77768 0.0
H444 H 0.04023 0.49513 0.58681 0.0
H445 H 0.77351 0.48293 0.78399 0.0
H446 H 1.00793 0.17498 0.94587 0.0
H447 H 0.93328 0.61486 0.51416 0.0
H448 H 0.83571 0.6204 0.54964 0.0
H449 H 0.03135 0.14672 0.84872 0.0
H450 H 0.76915 0.60006 0.62368 0.0
N451 N 0.9623 0.50305 0.62549 0.0
C452 C 1.00194 0.517 0.58788 0.0
C453 C 0.94106 0.58423 0.54612 0.0
C454 C 0.90063 0.57002 0.58488 0.0
C455 C 0.99255 0.55924 0.54911 0.0
C456 C 0.91362 0.5309 0.62623 0.0
H457 H 0.74608 0.54994 0.71131 0.0
N458 N 0.88895 0.48009 0.70612 0.0
C459 C 0.80192 0.4937 0.7511 0.0
C460 C 0.87564 0.51872 0.66739 0.0
C461 C 0.85321 0.46804 0.74808 0.0
C462 C 0.78669 0.53155 0.71021 0.0
C463 C 0.82379 0.54482 0.66795 0.0
O464 O 0.93576 0.3421 0.65832 0.0
O465 O 0.97453 0.3958 0.77492 0.0
O466 O 0.06556 0.34509 0.70276 0.0
O467 O 0.03611 0.40491 0.63382 0.0
O468 O 0.93583 0.3423 0.72127 0.0
O469 O 0.90366 0.41441 0.62066 0.0
O470 O 0.14091 0.37982 0.84134 0.0
O471 O 0.06452 0.43785 0.71033 0.0
O472 O 0.962 0.49718 0.74269 0.0
O473 O 0.03913 0.4879 0.79948 0.0
O474 O 0.14196 0.42819 0.75317 0.0
O475 O 0.08976 0.45002 0.85938 0.0
C476 C 0.94889 0.34929 0.77135 0.0
C477 C 0.83822 0.3382 0.63515 0.0
C478 C 0.74981 0.29229 0.60351 0.0
C479 C 0.80716 0.30624 0.59575 0.0
C480 C 0.72469 0.30929 0.65189 0.0
C481 C 0.81163 0.35003 0.68446 0.0
C482 C 0.75553 0.33668 0.69244 0.0
C483 C 0.05696 0.35743 0.64747 0.0
C484 C 0.89702 0.36077 0.62615 0.0
C485 C 0.80962 0.5813 0.62509 0.0
C486 C 0.84766 0.59315 0.58318 0.0
C487 C 0.11937 0.44693 0.7092 0.0
C488 C 0.17752 0.45263 0.90324 0.0
C489 C 0.18004 0.45842 0.96177 0.0
C490 C 0.21958 0.49565 0.98706 0.0
C491 C 0.25557 0.52632 0.95257 0.0
C492 C 0.21376 0.4852 0.8711 0.0
C493 C 0.25297 0.52056 0.89591 0.0
C494 C 0.99679 0.51631 0.78008 0.0
C495 C 0.13146 0.42045 0.87571 0.0
H496 H 0.82593 0.29398 0.55838 0.0
H497 H 0.68121 0.29997 0.65896 0.0
H498 H 0.83436 0.36924 0.71738 0.0
H499 H 0.73583 0.34751 0.73052 0.0
H500 H 0.14936 0.43674 0.98698 0.0
H501 H 0.28486 0.55675 0.96888 0.0
H502 H 0.21225 0.48291 0.82673 0.0
H503 H 0.28244 0.54326 0.87123 0.0
Eu504 Eu 0.90094 0.83776 0.06934 0.0
C505 C 0.80689 0.64121 0.91828 0.0
C506 C 0.79745 0.57192 0.991 0.0
C507 C 0.75619 0.55366 0.90178 0.0
C508 C 0.81631 0.62491 0.97234 0.0
C509 C 0.7772 0.60523 0.88248 0.0
C510 C 0.76713 0.53661 0.95569 0.0
C511 C 0.80234 0.66691 0.80811 0.0
N512 N 0.82967 0.69061 0.89997 0.0
C513 C 0.83088 0.70163 0.84515 0.0
C514 C 0.7729 0.62024 0.82732 0.0
Eu515 Eu 0.89132 0.73777 0.96129 0.0
N516 N 0.8439 0.66093 1.00657 0.0
C517 C 0.85047 0.64653 0.06079 0.0
C518 C 0.80994 0.55569 0.0446 0.0
C519 C 0.8345 0.59377 0.08031 0.0
H520 H 0.85732 0.73462 0.82976 0.0
H521 H 0.84207 0.58221 0.12275 0.0
H522 H 0.75187 0.49609 0.96974 0.0
H523 H 0.80511 0.67414 0.76451 0.0
H524 H 0.86778 0.67488 0.09001 0.0
H525 H 1.00034 0.08502 0.98541 0.0
H526 H 0.80131 0.51375 0.05846 0.0
H527 H 0.96786 0.77616 0.18543 0.0
H528 H 0.88018 0.97982 0.05062 0.0
H529 H 0.0641 0.75377 0.20836 0.0
H530 H 0.73323 0.52576 0.87474 0.0
H531 H 0.10389 0.03632 1.00229 0.0
H532 H 0.15623 0.94587 0.02656 0.0
H533 H 0.75019 0.59402 0.79874 0.0
H534 H 0.17028 0.85872 0.07677 0.0
N535 N 0.95371 0.92311 0.07329 0.0
C536 C 0.9255 0.97753 0.05069 0.0
C537 C 0.06644 1.01521 0.01648 0.0
C538 C 0.0711 0.95198 0.04833 0.0
C539 C 1.00313 0.04517 1.00696 0.0
C540 C 0.01766 0.91157 0.07471 0.0
H541 H 0.14064 0.79303 0.15176 0.0
N542 N 0.98936 0.83069 0.11851 0.0
C543 C 0.05552 0.78385 0.17616 0.0
C544 C 0.03138 0.86255 0.09805 0.0
C545 C 1.00071 0.79775 0.16354 0.0
C546 C 0.09861 0.80632 0.14432 0.0
C547 C 0.08711 0.84871 0.10631 0.0
O548 O 0.8609 0.81318 0.1459 0.0
O549 O 0.854 0.76243 0.0395 0.0
O550 O 0.83525 0.82285 0.94464 0.0
O551 O 0.87561 0.8928 0.99987 0.0
O552 O 0.80612 0.82944 0.06196 0.0
O553 O 0.8592 0.89905 0.12187 0.0
O554 O 0.97268 0.72652 0.9211 0.0
O555 O 0.94107 0.81572 0.97841 0.0
O556 O 0.92976 0.75366 0.09724 0.0
O557 O 0.96256 0.71594 0.01941 0.0
O558 O 0.90293 0.80046 0.89708 0.0
O559 O 0.91963 0.65609 0.93486 0.0
C560 C 0.80421 0.7781 0.04712 0.0
C561 C 0.84412 0.87531 0.2182 0.0
C562 C 0.8048 0.91711 0.30123 0.0
C563 C 0.80269 0.9078 0.24357 0.0
C564 C 0.84657 0.89136 0.33183 0.0
C565 C 0.88431 0.8503 0.25165 0.0
C566 C 0.88507 0.8576 0.30785 0.0
C567 C 0.84314 0.87864 0.95916 0.0
C568 C 0.84332 0.86209 0.15845 0.0
C569 C 0.12981 0.87672 0.07751 0.0
C570 C 0.12217 0.92684 0.04906 0.0
C571 C 0.93873 0.83094 0.92451 0.0
C572 C 0.97472 0.6528 0.85632 0.0
C573 C 0.98788 0.59627 0.84755 0.0
C574 C 0.99085 0.57576 0.79348 0.0
C575 C 0.98174 0.61219 0.74922 0.0
C576 C 0.96566 0.68777 0.81093 0.0
C577 C 0.96896 0.66716 0.75805 0.0
C578 C 0.96223 0.71891 0.07284 0.0
C579 C 0.96489 0.67383 0.91216 0.0
H580 H 0.7706 0.92673 0.21875 0.0
H581 H 0.8515 0.89994 0.37438 0.0
H582 H 0.91552 0.82484 0.23458 0.0
H583 H 0.91704 0.83868 0.33281 0.0
H584 H 0.99311 0.56821 0.88225 0.0
H585 H 0.98352 0.59784 0.70727 0.0
H586 H 0.95456 0.73071 0.81637 0.0
H587 H 0.96071 0.69316 0.72331 0.0
Eu588 Eu 0.45577 0.63792 0.29437 0.0
C589 C 0.63516 0.52151 0.13069 0.0
C590 C 0.7188 0.51343 0.18543 0.0
C591 C 0.7114 0.46658 0.09835 0.0
C592 C 0.66576 0.53585 0.17627 0.0
C593 C 0.65697 0.48517 0.09196 0.0
C594 C 0.74193 0.47978 0.14563 0.0
C595 C 0.56683 0.48032 0.04944 0.0
N596 N 0.58245 0.53988 0.12638 0.0
C597 C 0.54764 0.51921 0.08677 0.0
C598 C 0.62246 0.46635 0.04965 0.0
Eu599 Eu 0.55856 0.61419 0.18443 0.0
N600 N 0.6413 0.56762 0.21409 0.0
C601 C 0.66811 0.57712 0.26312 0.0
C602 C 0.74639 0.52424 0.23486 0.0
C603 C 0.72044 0.55559 0.27426 0.0
H604 H 0.50557 0.53329 0.0831 0.0
H605 H 0.74073 0.56339 0.31332 0.0
H606 H 0.78305 0.46313 0.15128 0.0
H607 H 0.53992 0.46202 0.01923 0.0
H608 H 0.64964 0.60019 0.29492 0.0
H609 H 0.17912 0.68369 0.28103 0.0
H610 H 0.78698 0.50751 0.24348 0.0
H611 H 0.52455 0.68897 0.39957 0.0
H612 H 0.32134 0.59897 0.2591 0.0
H613 H 0.53102 0.77135 0.45874 0.0
H614 H 0.73 0.4408 0.06772 0.0
H615 H 0.20541 0.78313 0.33244 0.0
H616 H 0.27909 0.84628 0.3787 0.0
H617 H 0.63753 0.43901 0.01837 0.0
H618 H 0.36685 0.8666 0.42321 0.0
N619 N 0.36677 0.67671 0.29696 0.0
C620 C 0.31576 0.64064 0.27499 0.0
C621 C 0.2385 0.7555 0.32224 0.0
C622 C 0.30564 0.77289 0.33861 0.0
C623 C 0.22254 0.69401 0.29098 0.0
C624 C 0.36404 0.7348 0.3263 0.0
H625 H 0.45838 0.84124 0.4533 0.0
N626 N 0.45699 0.71851 0.35195 0.0
C627 C 0.49824 0.76756 0.42823 0.0
C628 C 0.41214 0.75239 0.35299 0.0
C629 C 0.49565 0.72202 0.39349 0.0
C630 C 0.45696 0.80675 0.42496 0.0
C631 C 0.4113 0.79794 0.3898 0.0
O632 O 0.4649 0.59922 0.37595 0.0
O633 O 0.51603 0.5784 0.25729 0.0
O634 O 0.47404 0.55895 0.17561 0.0
O635 O 0.40564 0.60441 0.22429 0.0
O636 O 0.52089 0.58474 0.34044 0.0
O637 O 0.39021 0.58201 0.33104 0.0
O638 O 0.57771 0.67197 0.11647 0.0
O639 O 0.48506 0.6668 0.20236 0.0
O640 O 0.51381 0.7131 0.288 0.0
O641 O 0.58587 0.66048 0.26159 0.0
O642 O 0.50104 0.64137 0.11913 0.0
O643 O 0.63303 0.67121 0.18513 0.0
C644 C 0.53837 0.55713 0.2995 0.0
C645 C 0.38429 0.58602 0.43077 0.0
C646 C 0.33696 0.55558 0.51716 0.0
C647 C 0.35719 0.54327 0.46341 0.0
C648 C 0.3498 0.60838 0.5383 0.0
C649 C 0.38838 0.63966 0.45261 0.0
C650 C 0.37296 0.65044 0.50591 0.0
C651 C 0.41965 0.56746 0.18866 0.0
C652 C 0.41539 0.57604 0.3782 0.0
C653 C 0.36464 0.83142 0.3957 0.0
C654 C 0.31382 0.82003 0.37012 0.0
C655 C 0.46914 0.67049 0.14943 0.0
C656 C 0.67236 0.69331 0.09612 0.0
C657 C 0.71628 0.73508 0.09612 0.0
C658 C 0.75256 0.74122 0.04983 0.0
C659 C 0.73902 0.7108 1.00362 0.0
C660 C 0.6697 0.65597 0.05243 0.0
C661 C 0.70157 0.66564 1.00608 0.0
C662 C 0.56741 0.70482 0.28609 0.0
C663 C 0.62487 0.69098 0.13595 0.0
H664 H 0.35248 0.50145 0.44763 0.0
H665 H 0.34253 0.61737 0.58075 0.0
H666 H 0.40623 0.67332 0.42951 0.0
H667 H 0.38034 0.69153 0.5227 0.0
H668 H 0.72173 0.76231 0.13095 0.0
H669 H 0.75832 0.72213 0.96531 0.0
H670 H 0.63968 0.62171 0.05221 0.0
H671 H 0.69545 0.63972 0.97064 0.0
Eu672 Eu 0.22456 0.5594 0.15183 0.0
C673 C 0.37678 0.40437 0.99866 0.0
C674 C 0.32819 0.31619 0.98529 0.0
C675 C 0.41682 0.33455 0.94055 0.0
C676 C 0.3314 0.36992 1.00784 0.0
C677 C 0.41833 0.38869 0.96195 0.0
C678 C 0.37225 0.29787 0.95314 0.0
C679 C 0.45449 0.48315 0.96511 0.0
N680 N 0.37678 0.45552 0.02148 0.0
C681 C 0.41446 0.49554 1.00417 0.0
C682 C 0.45803 0.42885 0.94567 0.0
Eu683 Eu 0.31697 0.46239 0.09931 0.0
N684 N 0.28905 0.3909 0.03675 0.0
C685 C 0.23983 0.36137 0.04068 0.0
C686 C 0.2796 0.28401 0.99334 0.0
C687 C 0.23451 0.30754 0.01944 0.0
H688 H 0.41509 0.53697 0.02068 0.0
H689 H 0.1958 0.284 0.02379 0.0
H690 H 0.37074 0.25671 0.93538 0.0
H691 H 0.48372 0.51507 0.95112 0.0
H692 H 0.20465 0.37807 0.0614 0.0
H693 H 0.32013 0.76349 0.2407 0.0
H694 H 0.27528 0.24246 0.97672 0.0
H695 H 0.10885 0.48165 0.18818 0.0
H696 H 0.26404 0.6972 0.16292 0.0
H697 H 0.06578 0.44603 0.27369 0.0
H698 H 0.44892 0.32126 0.91304 0.0
H699 H 0.30177 0.68591 0.39131 0.0
H700 H 0.25854 0.58477 0.42409 0.0
H701 H 0.48999 0.41912 0.91647 0.0
H702 H 0.19428 0.50518 0.41217 0.0
N703 N 0.23601 0.62646 0.22205 0.0
C704 C 0.2645 0.68422 0.20521 0.0
C705 C 0.28681 0.67517 0.35022 0.0
C706 C 0.24946 0.6146 0.34174 0.0
C707 C 0.29786 0.72522 0.25291 0.0
C708 C 0.22563 0.59561 0.27897 0.0
H709 H 0.10934 0.46864 0.36277 0.0
N710 N 0.17078 0.53101 0.2297 0.0
C711 C 0.10128 0.47456 0.27547 0.0
C712 C 0.18946 0.55039 0.27884 0.0
C713 C 0.12495 0.49588 0.22723 0.0
C714 C 0.12636 0.48716 0.3258 0.0
C715 C 0.17248 0.52402 0.32801 0.0
O716 O 0.13879 0.55401 0.12156 0.0
O717 O 0.23246 0.49001 0.08925 0.0
O718 O 0.32613 0.55685 0.05994 0.0
O719 O 0.2919 0.61536 0.12616 0.0
O720 O 0.21038 0.56516 0.05848 0.0
O721 O 0.17754 0.63517 0.13577 0.0
O722 O 0.34136 0.43518 0.18298 0.0
O723 O 0.31971 0.5291 0.16321 0.0
O724 O 0.23275 0.48334 0.2083 0.0
O725 O 0.23931 0.42343 0.13897 0.0
O726 O 0.39253 0.51108 0.11531 0.0
O727 O 0.352 0.38085 0.11607 0.0
C728 C 0.21588 0.51391 0.04585 0.0
C729 C 0.07816 0.62935 0.13338 0.0
C730 C 0.99348 0.67902 0.10827 0.0
C731 C 0.04637 0.65947 0.09436 0.0
C732 C 0.97175 0.66456 0.16022 0.0
C733 C 0.05645 0.61864 0.18571 0.0
C734 C 1.00313 0.63514 0.19857 0.0
C735 C 0.3187 0.6089 0.08106 0.0
C736 C 0.13304 0.60794 0.11867 0.0
C737 C 0.20221 0.53256 0.37737 0.0
C738 C 0.23961 0.57746 0.38448 0.0
C739 C 0.37397 0.54017 0.15493 0.0
C740 C 0.41405 0.37277 0.18821 0.0
C741 C 0.42185 0.3253 0.22216 0.0
C742 C 0.47622 0.30998 0.23629 0.0
C743 C 0.52085 0.34454 0.21831 0.0
C744 C 0.4598 0.40264 0.16695 0.0
C745 C 0.51285 0.38797 0.18132 0.0
C746 C 0.22814 0.43226 0.19077 0.0
C747 C 0.35927 0.38747 0.16807 0.0
H748 H 0.06326 0.66885 0.05414 0.0
H749 H 0.93096 0.67789 0.17216 0.0
H750 H 0.08053 0.59739 0.21668 0.0
H751 H 0.98634 0.62593 0.23886 0.0
H752 H 0.38665 0.29873 0.23364 0.0
H753 H 0.56305 0.33387 0.2283 0.0
H754 H 0.4548 0.43594 0.13736 0.0
H755 H 0.54785 0.40933 0.1622 0.0
Eu756 Eu 0.8451 0.08205 0.9136 0.0
C757 C 0.66858 0.97692 0.77062 0.0
C758 C 0.5825 0.02198 0.7909 0.0
C759 C 0.58154 0.93813 0.73672 0.0
C760 C 0.6399 1.0156 0.79948 0.0
C761 C 0.6399 0.93822 0.73782 0.0
C762 C 0.55302 0.98215 0.75984 0.0
C763 C 0.72879 0.90312 0.71182 0.0
N764 N 0.72326 0.97092 0.78227 0.0
C765 C 0.75471 0.93832 0.74988 0.0
C766 C 0.67095 0.89865 0.71094 0.0
Eu767 Eu 0.74018 0.98763 0.8764 0.0
N768 N 0.66736 0.04273 0.84 0.0
C769 C 0.64148 0.0835 0.86798 0.0
C770 C 0.55603 0.06453 0.81833 0.0
C771 C 0.58637 0.09676 0.85589 0.0
H772 H 0.79888 0.93553 0.75534 0.0
H773 H 0.56636 0.12929 0.87821 0.0
H774 H 0.50814 0.98309 0.75629 0.0
H775 H 0.75317 0.87581 0.6872 0.0
H776 H 0.66231 0.10505 0.90038 0.0
H777 H 1.00588 0.92011 0.97858 0.0
H778 H 0.51213 0.07162 0.81213 0.0
H779 H 0.78453 0.19216 0.97087 0.0
H780 H 0.92438 0.96393 0.92426 0.0
H781 H 0.79382 0.25306 0.04929 0.0
H782 H 0.55804 0.90403 0.71897 0.0
H783 H 0.0279 1.00051 0.1239 0.0
H784 H 0.98843 0.09515 0.16451 0.0
H785 H 0.6512 0.86415 0.69046 0.0
H786 H 0.9306 0.17619 0.16205 0.0
N787 N 0.90862 0.04111 0.9783 0.0
C788 C 0.93972 0.98884 0.9565 0.0
C789 C 1.00122 1.00812 0.08816 0.0
C790 C 0.95697 0.06256 0.0888 0.0
C791 C 0.98906 0.95764 0.99288 0.0
C792 C 0.91354 0.07493 0.03413 0.0
H793 H 0.86102 0.2334 0.12221 0.0
N794 N 0.84257 0.13257 0.99942 0.0
C795 C 0.81774 0.21555 0.04782 0.0
C796 C 0.88041 0.12068 0.0399 0.0
C797 C 0.81141 0.17935 1.00399 0.0
C798 C 0.85631 0.2046 0.08845 0.0
C799 C 0.88811 0.15689 0.08573 0.0
O800 O 0.88384 0.13519 0.84814 0.0
O801 O 0.76257 0.0756 0.86796 0.0
O802 O 0.83192 0.97436 0.83545 0.0
O803 O 0.90232 0.03584 0.86593 0.0
O804 O 0.82754 0.10455 0.82281 0.0
O805 O 0.8941 0.158 0.93172 0.0
O806 O 0.68436 0.91571 0.86444 0.0
O807 O 0.82099 0.98162 0.92333 0.0
O808 O 0.76076 0.10378 0.94187 0.0
O809 O 0.72373 0.01985 0.96326 0.0
O810 O 0.77119 0.90802 0.90172 0.0
O811 O 0.67194 0.96856 0.93439 0.0
C812 C 0.77484 0.09436 0.82053 0.0
C813 C 0.89094 0.23386 0.86664 0.0
C814 C 0.91704 0.31957 0.81524 0.0
C815 C 0.91659 0.26051 0.82074 0.0
C816 C 0.88649 0.35053 0.85222 0.0
C817 C 0.862 0.26742 0.90295 0.0
C818 C 0.85824 0.32446 0.89496 0.0
C819 C 0.88645 0.99314 0.83778 0.0
C820 C 0.90106 0.17383 0.88117 0.0
C821 C 0.92666 0.14714 0.12841 0.0
C822 C 0.95989 0.10085 0.13046 0.0
C823 C 0.81203 0.92609 0.931 0.0
C824 C 0.63208 0.8756 0.93859 0.0
C825 C 0.57865 0.87447 0.96367 0.0
C826 C 0.55734 0.82467 0.98889 0.0
C827 C 0.58963 0.77721 0.98793 0.0
C828 C 0.66084 0.8259 0.93566 0.0
C829 C 0.63812 0.77715 0.95758 0.0
C830 C 0.7303 0.0727 0.97459 0.0
C831 C 0.65371 0.92507 0.90736 0.0
H832 H 0.93994 0.23616 0.79221 0.0
H833 H 0.88665 0.39533 0.85044 0.0
H834 H 0.84495 0.25118 0.93977 0.0
H835 H 0.83632 0.34912 0.92433 0.0
H836 H 0.55296 0.91082 0.96108 0.0
H837 H 0.57403 0.7382 1.0052 0.0
H838 H 0.69943 0.82365 0.91358 0.0
H839 H 0.6559 0.73846 0.94694 0.0
Eu840 Eu 0.69569 0.96209 0.42276 0.0
C841 C 0.83268 0.05981 0.25722 0.0
C842 C 0.90722 0.99691 0.2424 0.0
C843 C 0.85418 0.03269 0.16512 0.0
C844 C 0.8711 0.02369 0.27757 0.0
C845 C 0.82729 0.06841 0.20062 0.0
C846 C 0.89603 0.99843 0.18618 0.0
C847 C 0.78362 0.15503 0.22019 0.0
N848 N 0.80636 0.09196 0.29322 0.0
C849 C 0.78566 0.14173 0.27622 0.0
C850 C 0.79982 0.11559 0.18213 0.0
Eu851 Eu 0.80636 0.0586 0.38481 0.0
N852 N 0.87617 0.0186 0.3323 0.0
C853 C 0.92196 0.99481 0.35523 0.0
C854 C 0.95306 0.96984 0.26495 0.0
C855 C 0.9614 0.9703 0.32181 0.0
H856 H 0.76869 0.16971 0.30568 0.0
H857 H 0.99716 0.95053 0.33992 0.0
H858 H 0.92102 0.97464 0.15937 0.0
H859 H 0.76715 0.19426 0.2063 0.0
H860 H 0.92781 0.99413 0.39924 0.0
H861 H 0.4986 0.10683 0.45566 0.0
H862 H 0.98238 0.94931 0.23896 0.0
H863 H 0.75419 0.85483 0.4865 0.0
H864 H 0.55382 0.05982 0.45058 0.0
H865 H 0.73492 0.78758 0.56021 0.0
H866 H 0.84669 0.03534 0.12145 0.0
H867 H 0.48555 0.02998 0.60305 0.0
H868 H 0.51492 0.93126 0.64021 0.0
H869 H 0.79445 0.12364 0.1388 0.0
H870 H 0.56883 0.84676 0.64 0.0
N871 N 0.61553 0.99001 0.4699 0.0
C872 C 0.58419 0.03801 0.43965 0.0
C873 C 0.51575 0.02413 0.57036 0.0
C874 C 0.56193 0.97181 0.57736 0.0
C875 C 0.52862 0.07102 0.47206 0.0
C876 C 0.60864 0.95905 0.52719 0.0
H877 H 0.65224 0.79711 0.61737 0.0
N878 N 0.68759 0.90744 0.5051 0.0
C879 C 0.70893 0.82336 0.55487 0.0
C880 C 0.64266 0.91477 0.5377 0.0
C881 C 0.72048 0.86246 0.51372 0.0
C882 C 0.66199 0.82888 0.58671 0.0
C883 C 0.62852 0.87528 0.57943 0.0
O884 O 0.71204 0.87797 0.39801 0.0
O885 O 0.77791 0.97216 0.3791 0.0
O886 O 0.71982 0.07778 0.33916 0.0
O887 O 0.64983 1.01327 0.36521 0.0
O888 O 0.7133 0.94468 0.33149 0.0
O889 O 0.62581 0.90495 0.39801 0.0
O890 O 0.87934 0.11441 0.37872 0.0
O891 O 0.72628 0.05753 0.43207 0.0
O892 O 0.75814 0.96652 0.49318 0.0
O893 O 0.83121 0.98259 0.43609 0.0
O894 O 0.77288 0.13358 0.4206 0.0
O895 O 0.85636 0.07836 0.45771 0.0
C896 C 0.76616 0.9536 0.33198 0.0
C897 C 0.64412 0.80602 0.38253 0.0
C898 C 0.60318 0.72838 0.33041 0.0
C899 C 0.61003 0.78616 0.33903 0.0
C900 C 0.6286 0.69114 0.36723 0.0
C901 C 0.66988 0.76738 0.41746 0.0
C902 C 0.66139 0.71052 0.41041 0.0
C903 C 0.66631 0.0583 0.33991 0.0
C904 C 0.66038 0.86573 0.38555 0.0
C905 C 0.58111 0.8805 0.61234 0.0
C906 C 0.55074 0.92903 0.61384 0.0
C907 C 0.7283 0.11204 0.44144 0.0
C908 C 0.92215 0.15392 0.45765 0.0
C909 C 0.98065 0.15376 0.46418 0.0
C910 C 1.00871 0.19948 0.48843 0.0
C911 C 0.97742 0.2442 0.50619 0.0
C912 C 0.89206 0.19839 0.47721 0.0
C913 C 0.92013 0.243 0.50152 0.0
C914 C 0.81165 0.96488 0.48388 0.0
C915 C 0.89336 0.10762 0.43016 0.0
H916 H 0.59058 0.81519 0.31111 0.0
H917 H 0.6208 0.6468 0.36454 0.0
H918 H 0.6981 0.78054 0.44934 0.0
H919 H 0.68079 0.68128 0.43826 0.0
H920 H 1.00405 0.11887 0.44986 0.0
H921 H 0.99671 0.28015 0.52511 0.0
H922 H 0.84722 0.19892 0.47333 0.0
H923 H 0.89826 0.27757 0.51666 0.0
Eu924 Eu 0.30411 0.45128 0.65292 0.0
C925 C 0.18083 0.6208 0.49551 0.0
C926 C 0.23034 0.70961 0.49886 0.0
C927 C 0.1643 0.69205 0.42539 0.0
C928 C 0.21843 0.65588 0.52125 0.0
C929 C 0.152 0.63937 0.44813 0.0
C930 C 0.20399 0.72684 0.4504 0.0
C931 C 0.10001 0.55296 0.44913 0.0
N932 N 0.1685 0.57062 0.51935 0.0
C933 C 0.12837 0.53672 0.49683 0.0
C934 C 0.11096 0.60481 0.42527 0.0
Eu935 Eu 0.20174 0.55332 0.60991 0.0
N936 N 0.2357 0.64148 0.57249 0.0
C937 C 0.26083 0.68199 0.60451 0.0
C938 C 0.26355 0.74697 0.52871 0.0
C939 C 0.27792 0.73343 0.58236 0.0
H940 H 0.11637 0.49807 0.51676 0.0
H941 H 0.29942 0.76384 0.6078 0.0
H942 H 0.2116 0.76837 0.4339 0.0
H943 H 0.06922 0.52613 0.4307 0.0
H944 H 0.26629 0.67696 0.64815 0.0
H945 H 0.21268 0.19589 0.73624 0.0
H946 H 0.27418 0.78807 0.51252 0.0
H947 H 0.41213 0.51911 0.72343 0.0
H948 H 0.2874 0.30714 0.62318 0.0
H949 H 0.43671 0.53528 0.82042 0.0
H950 H 0.14253 0.70663 0.3891 0.0
H951 H 0.22365 0.24377 0.84282 0.0
H952 H 0.25357 0.3351 0.90106 0.0
H953 H 0.08821 0.61724 0.38876 0.0
H954 H 0.30727 0.42067 0.91839 0.0
N955 N 0.30536 0.36389 0.69988 0.0
C956 C 0.2842 0.30863 0.6679 0.0
C957 C 0.24117 0.26581 0.80778 0.0
C958 C 0.27469 0.33167 0.81694 0.0
C959 C 0.23451 0.23593 0.74151 0.0
C960 C 0.30426 0.37496 0.76489 0.0
H961 H 0.37772 0.49161 0.89222 0.0
N962 N 0.34906 0.45799 0.74165 0.0
C963 C 0.40505 0.5045 0.80967 0.0
C964 C 0.329 0.42299 0.78115 0.0
C965 C 0.39205 0.49408 0.75474 0.0
C966 C 0.37331 0.47823 0.85044 0.0
C967 C 0.33677 0.43429 0.83688 0.0
O968 O 0.38899 0.48034 0.63355 0.0
O969 O 0.28842 0.52855 0.60149 0.0
O970 O 0.1991 0.46403 0.56334 0.0
O971 O 0.23776 0.39453 0.61896 0.0
O972 O 0.31851 0.46312 0.55937 0.0
O973 O 0.36441 0.39432 0.6179 0.0
O974 O 0.12073 0.59175 0.61883 0.0
O975 O 0.21067 0.48282 0.66969 0.0
O976 O 0.29226 0.51629 0.71955 0.0
O977 O 0.27799 0.58523 0.65835 0.0
O978 O 0.13471 0.49051 0.62359 0.0
O979 O 0.17888 0.59838 0.68499 0.0
C980 C 0.30712 0.51503 0.55531 0.0
C981 C 0.46303 0.41528 0.62277 0.0
C982 C 0.54514 0.36432 0.59303 0.0
C983 C 0.48948 0.38072 0.58432 0.0
C984 C 0.57406 0.3843 0.63933 0.0
C985 C 0.49407 0.43475 0.66794 0.0
C986 C 0.54899 0.41962 0.67594 0.0
C987 C 0.20738 0.40899 0.57684 0.0
C988 C 0.40422 0.43232 0.61445 0.0
C989 C 0.30772 0.40397 0.87781 0.0
C990 C 0.27668 0.35491 0.86827 0.0
C991 C 0.15807 0.46552 0.66417 0.0
C992 C 0.12309 0.67745 0.66621 0.0
C993 C 0.10392 0.70609 0.71291 0.0
C994 C 0.10209 0.76531 0.71191 0.0
C995 C 0.12428 0.79449 0.66639 0.0
C996 C 0.13391 0.70868 0.61832 0.0
C997 C 0.13777 0.76638 0.61915 0.0
C998 C 0.2937 0.56977 0.70792 0.0
C999 C 0.13203 0.61596 0.6652 0.0
H1000 H 0.46626 0.36486 0.54931 0.0
H1001 H 0.6164 0.37233 0.64746 0.0
H1002 H 0.47645 0.46184 0.69737 0.0
H1003 H 0.57213 0.43489 0.71119 0.0
H1004 H 0.09012 0.68289 0.74886 0.0
H1005 H 0.12432 0.83942 0.66443 0.0
H1006 H 0.13958 0.68846 0.57989 0.0
H1007 H 0.14907 0.7895 0.58231 0.0
loop_
_geom_bond_atom_site_label_1
_geom_bond_atom_site_label_2
_geom_bond_distance
_geom_bond_site_symmetry_2
_ccdc_geom_bond_type
Eu0 N31 2.657 . S
Eu0 N38 2.609 . S
Eu0 O44 2.558 . S
Eu0 O45 2.612 . S
Eu0 O47 2.339 . S
Eu0 O48 2.563 . S
Eu0 O49 2.419 . S
Eu0 O51 2.380 . S
Eu0 O52 2.432 . S
Eu0 C64 2.848 . S
C1 C4 1.429 1_655 S
C1 C5 1.411 . S
C1 N8 1.377 . S
C2 C4 1.420 1_655 S
C2 C6 1.423 . S
C2 C14 1.392 1_655 S
C3 C5 1.420 . S
C3 C6 1.351 . S
C3 H26 0.931 . S
C4 C1 1.429 1_455 S
C4 C2 1.420 1_455 S
C4 N12 1.362 . S
C5 C1 1.411 . S
C5 C3 1.420 . S
C5 C10 1.395 . S
C6 C2 1.423 . S
C6 C3 1.351 . S
C6 H18 0.930 . S
C7 C9 1.400 . S
C7 C10 1.386 . S
C7 H19 0.930 . S
N8 C1 1.377 . S
N8 C9 1.321 . S
N8 Eu11 2.609 1_655 S
C9 C7 1.400 . S
C9 N8 1.321 . S
C9 H16 0.930 . S
C10 C5 1.395 . S
C10 C7 1.386 . S
C10 H29 0.930 . S
Eu11 N8 2.609 1_455 S
Eu11 N12 2.657 . S
Eu11 O45 2.380 . S
Eu11 O46 2.432 . S
Eu11 O50 2.558 . S
Eu11 O51 2.612 . S
Eu11 O53 2.339 . S
Eu11 O54 2.563 . S
Eu11 O55 2.419 . S
Eu11 C75 2.848 . S
N12 C4 1.362 . S
N12 Eu11 2.657 . S
N12 C13 1.334 . S
C13 N12 1.334 . S
C13 C15 1.413 . S
C13 H20 0.929 . S
C14 C2 1.392 1_455 S
C14 C15 1.367 . S
C14 H22 0.930 1_455 S
C15 C13 1.413 . S
C15 C14 1.367 . S
C15 H17 0.930 . S
H16 C9 0.930 . S
H17 C15 0.930 . S
H18 C6 0.930 . S
H19 C7 0.930 . S
H20 C13 0.929 . S
H21 C35 0.930 . S
H22 C14 0.930 1_655 S
H23 C41 0.930 . S
H24 C32 0.929 . S
H25 C39 0.930 . S
H26 C3 0.931 . S
H27 C33 0.930 . S
H28 C66 0.930 . S
H29 C10 0.930 . S
H30 C65 0.931 . S
N31 Eu0 2.657 . S
N31 C32 1.334 . S
N31 C36 1.362 . S
C32 H24 0.929 . S
C32 N31 1.334 . S
C32 C35 1.413 . S
C33 H27 0.930 . S
C33 C34 1.392 . S
C33 C35 1.367 . S
C34 C33 1.392 . S
C34 C36 1.420 . S
C34 C66 1.423 . S
C35 H21 0.930 . S
C35 C32 1.413 . S
C35 C33 1.367 . S
C36 N31 1.362 . S
C36 C34 1.420 . S
C36 C40 1.429 . S
H37 C42 0.930 . S
N38 Eu0 2.609 . S
N38 C40 1.377 . S
N38 C41 1.321 . S
C39 H25 0.930 . S
C39 C41 1.400 . S
C39 C42 1.386 . S
C40 C36 1.429 . S
C40 N38 1.377 . S
C40 C43 1.411 . S
C41 H23 0.930 . S
C41 N38 1.321 . S
C41 C39 1.400 . S
C42 H37 0.930 . S
C42 C39 1.386 . S
C42 C43 1.395 . S
C43 C40 1.411 . S
C43 C42 1.395 . S
C43 C65 1.420 . S
O44 Eu0 2.558 . S
O44 C64 1.257 . S
O45 Eu0 2.612 . S
O45 Eu11 2.380 . S
O45 C56 1.276 . S
O46 Eu11 2.432 . S
O46 C63 1.264 . S
O47 Eu0 2.339 . S
O47 C63 1.254 . S
O48 Eu0 2.563 . S
O48 C56 1.235 . S
O49 Eu0 2.419 . S
O49 C64 1.249 . S
O50 Eu11 2.558 . S
O50 C75 1.257 . S
O51 Eu0 2.380 . S
O51 Eu11 2.612 . S
O51 C67 1.276 . S
O52 Eu0 2.432 . S
O52 C74 1.264 . S
O53 Eu11 2.339 . S
O53 C74 1.254 . S
O54 Eu11 2.563 . S
O54 C67 1.235 . S
O55 Eu11 2.419 . S
O55 C75 1.249 . S
C56 O45 1.276 . S
C56 O48 1.235 . S
C57 C59 1.393 . S
C57 C61 1.395 . S
C57 C64 1.492 . S
C58 C59 1.392 . S
C58 C60 1.386 1_545 S
C59 C57 1.393 . S
C59 C58 1.392 . S
C59 H76 0.930 . S
C60 C58 1.386 1_565 S
C60 C62 1.395 . S
C60 H77 0.930 . S
C61 C57 1.395 . S
C61 C62 1.379 1_545 S
C61 H78 0.930 . S
C62 C60 1.395 . S
C62 C61 1.379 1_565 S
C62 H79 0.930 . S
C63 O46 1.264 . S
C63 O47 1.254 . S
C64 Eu0 2.848 . S
C64 O44 1.257 . S
C64 O49 1.249 . S
C64 C57 1.492 . S
C65 H30 0.931 . S
C65 C43 1.420 . S
C65 C66 1.351 . S
C66 H28 0.930 . S
C66 C34 1.423 . S
C66 C65 1.351 . S
C67 O51 1.276 . S
C67 O54 1.235 . S
C68 C69 1.393 . S
C68 C72 1.395 . S
C68 C75 1.492 . S
C69 C68 1.393 . S
C69 C70 1.392 . S
C69 H80 0.930 . S
C70 C69 1.392 . S
C70 C71 1.386 . S
C71 C70 1.386 . S
C71 C73 1.395 . S
C71 H81 0.930 . S
C72 C68 1.395 . S
C72 C73 1.379 . S
C72 H82 0.930 . S
C73 C71 1.395 . S
C73 C72 1.379 . S
C73 H83 0.930 . S
C74 O52 1.264 . S
C74 O53 1.254 . S
C75 Eu11 2.848 . S
C75 O50 1.257 . S
C75 O55 1.249 . S
C75 C68 1.492 . S
H76 C59 0.930 . S
H77 C60 0.930 . S
H78 C61 0.930 . S
H79 C62 0.930 . S
H80 C69 0.930 . S
H81 C71 0.930 . S
H82 C72 0.930 . S
H83 C73 0.930 . S
Eu84 N115 2.657 . S
Eu84 N122 2.609 . S
Eu84 O128 2.558 . S
Eu84 O129 2.612 1_655 S
Eu84 O131 2.339 . S
Eu84 O132 2.563 . S
Eu84 O133 2.419 . S
Eu84 O135 2.380 . S
Eu84 O136 2.432 1_655 S
Eu84 C148 2.848 . S
C85 C88 1.429 1_545 S
C85 C89 1.411 . S
C85 N92 1.369 1_545 S
C86 C88 1.420 1_545 S
C86 C90 1.423 . S
C86 C98 1.392 1_545 S
C87 C89 1.420 . S
C87 C90 1.351 . S
C87 H110 0.931 . S
C88 C85 1.429 1_565 S
C88 C86 1.420 1_565 S
C88 N96 1.362 . S
C89 C85 1.411 . S
C89 C87 1.420 . S
C89 C94 1.395 . S
C90 C86 1.423 . S
C90 C87 1.351 . S
C90 H102 0.930 . S
C91 C93 1.400 . S
C91 C94 1.386 . S
C91 H103 0.930 . S
N92 C85 1.369 1_565 S
N92 C93 1.312 1_565 S
N92 Eu95 2.626 . S
C93 C91 1.400 . S
C93 N92 1.312 1_545 S
C93 H100 0.930 . S
C94 C89 1.395 . S
C94 C91 1.386 . S
C94 H113 0.930 . S
Eu95 N92 2.626 . S
Eu95 N96 2.657 . S
Eu95 O129 2.380 . S
Eu95 O130 2.432 1_455 S
Eu95 O134 2.558 . S
Eu95 O135 2.612 1_455 S
Eu95 O137 2.339 . S
Eu95 O138 2.563 . S
Eu95 O139 2.419 . S
Eu95 C159 2.848 . S
N96 C88 1.362 . S
N96 Eu95 2.657 . S
N96 C97 1.334 . S
C97 N96 1.334 . S
C97 C99 1.413 . S
C97 H104 0.929 . S
C98 C86 1.392 1_565 S
C98 C99 1.367 . S
C98 H106 0.930 1_565 S
C99 C97 1.413 . S
C99 C98 1.367 . S
C99 H101 0.930 . S
H100 C93 0.930 . S
H101 C99 0.930 . S
H102 C90 0.930 . S
H103 C91 0.930 . S
H104 C97 0.929 . S
H105 C119 0.930 . S
H106 C98 0.930 1_545 S
H107 C125 0.930 . S
H108 C116 0.929 . S
H109 C123 0.930 . S
H110 C87 0.931 . S
H111 C117 0.930 . S
H112 C150 0.930 . S
H113 C94 0.930 . S
H114 C149 0.931 . S
N115 Eu84 2.657 . S
N115 C116 1.334 . S
N115 C120 1.362 . S
C116 H108 0.929 . S
C116 N115 1.334 . S
C116 C119 1.413 . S
C117 H111 0.930 . S
C117 C118 1.392 . S
C117 C119 1.367 . S
C118 C117 1.392 . S
C118 C120 1.420 . S
C118 C150 1.423 . S
C119 H105 0.930 . S
C119 C116 1.413 . S
C119 C117 1.367 . S
C120 N115 1.362 . S
C120 C118 1.420 . S
C120 C124 1.429 . S
H121 C126 0.930 . S
N122 Eu84 2.609 . S
N122 C124 1.377 . S
N122 C125 1.321 . S
C123 H109 0.930 . S
C123 C125 1.400 . S
C123 C126 1.386 . S
C124 C120 1.429 . S
C124 N122 1.377 . S
C124 C127 1.411 . S
C125 H107 0.930 . S
C125 N122 1.321 . S
C125 C123 1.400 . S
C126 H121 0.930 . S
C126 C123 1.386 . S
C126 C127 1.395 . S
C127 C124 1.411 . S
C127 C126 1.395 . S
C127 C149 1.420 . S
O128 Eu84 2.558 . S
O128 C148 1.257 . S
O129 Eu84 2.612 1_455 S
O129 Eu95 2.380 . S
O129 C140 1.276 . S
O130 Eu95 2.432 1_655 S
O130 C147 1.264 . S
O131 Eu84 2.339 . S
O131 C147 1.254 . S
O132 Eu84 2.563 . S
O132 C140 1.235 1_655 S
O133 Eu84 2.419 . S
O133 C148 1.249 . S
O134 Eu95 2.558 . S
O134 C159 1.257 . S
O135 Eu84 2.380 . S
O135 Eu95 2.612 1_655 S
O135 C151 1.276 . S
O136 Eu84 2.432 1_455 S
O136 C158 1.264 . S
O137 Eu95 2.339 . S
O137 C158 1.254 . S
O138 Eu95 2.563 . S
O138 C151 1.235 1_455 S
O139 Eu95 2.419 . S
O139 C159 1.249 . S
C140 O129 1.276 . S
C140 O132 1.235 1_455 S
C141 C143 1.393 . S
C141 C145 1.395 . S
C141 C148 1.492 . S
C142 C143 1.392 . S
C142 C144 1.386 . S
C143 C141 1.393 . S
C143 C142 1.392 . S
C143 H160 0.930 . S
C144 C142 1.386 . S
C144 C146 1.395 . S
C144 H161 0.930 . S
C145 C141 1.395 . S
C145 C146 1.379 . S
C145 H162 0.930 . S
C146 C144 1.395 . S
C146 C145 1.379 . S
C146 H163 0.930 . S
C147 O130 1.264 . S
C147 O131 1.254 . S
C148 Eu84 2.848 . S
C148 O128 1.257 . S
C148 O133 1.249 . S
C148 C141 1.492 . S
C149 H114 0.931 . S
C149 C127 1.420 . S
C149 C150 1.351 . S
C150 H112 0.930 . S
C150 C118 1.423 . S
C150 C149 1.351 . S
C151 O135 1.276 . S
C151 O138 1.235 1_655 S
C152 C153 1.393 . S
C152 C156 1.395 . S
C152 C159 1.492 . S
C153 C152 1.393 . S
C153 C154 1.390 1_556 S
C153 H164 0.930 . S
C154 C153 1.390 1_554 S
C154 C155 1.388 . S
C155 C154 1.388 . S
C155 C157 1.395 . S
C155 H165 0.930 . S
C156 C152 1.395 . S
C156 C157 1.379 1_556 S
C156 H166 0.930 . S
C157 C155 1.395 . S
C157 C156 1.379 1_554 S
C157 H167 0.930 . S
C158 O136 1.264 . S
C158 O137 1.254 . S
C159 Eu95 2.848 . S
C159 O134 1.257 . S
C159 O139 1.249 . S
C159 C152 1.492 . S
H160 C143 0.930 . S
H161 C144 0.930 . S
H162 C145 0.930 . S
H163 C146 0.930 . S
H164 C153 0.930 . S
H165 C155 0.930 . S
H166 C156 0.930 . S
H167 C157 0.930 . S
Eu168 N199 2.657 . S
Eu168 N206 2.609 . S
Eu168 O212 2.558 . S
Eu168 O213 2.612 . S
Eu168 O215 2.339 1_556 S
Eu168 O216 2.563 . S
Eu168 O217 2.419 . S
Eu168 O219 2.380 1_556 S
Eu168 O220 2.432 . S
Eu168 C232 2.848 . S
C169 C172 1.429 . S
C169 C173 1.411 . S
C169 N176 1.377 . S
C170 C172 1.420 1_556 S
C170 C174 1.423 1_556 S
C170 C182 1.392 . S
C171 C173 1.420 . S
C171 C174 1.351 . S
C171 H194 0.931 . S
C172 C169 1.429 . S
C172 C170 1.420 1_554 S
C172 N180 1.362 . S
C173 C169 1.411 . S
C173 C171 1.420 . S
C173 C178 1.395 . S
C174 C170 1.423 1_554 S
C174 C171 1.351 . S
C174 H186 0.930 1_554 S
C175 C177 1.400 . S
C175 C178 1.386 . S
C175 H187 0.930 . S
N176 C169 1.377 . S
N176 C177 1.321 . S
N176 Eu179 2.609 . S
C177 C175 1.400 . S
C177 N176 1.321 . S
C177 H184 0.930 . S
C178 C173 1.395 . S
C178 C175 1.386 . S
C178 H197 0.930 . S
Eu179 N176 2.609 . S
Eu179 N180 2.657 . S
Eu179 O213 2.380 1_554 S
Eu179 O214 2.432 . S
Eu179 O218 2.558 . S
Eu179 O219 2.612 . S
Eu179 O221 2.339 1_554 S
Eu179 O222 2.563 . S
Eu179 O223 2.419 . S
Eu179 C243 2.848 . S
N180 C172 1.362 . S
N180 Eu179 2.657 . S
N180 C181 1.334 1_554 S
C181 N180 1.334 1_556 S
C181 C183 1.413 . S
C181 H188 0.929 . S
C182 C170 1.392 . S
C182 C183 1.367 . S
C182 H190 0.930 . S
C183 C181 1.413 . S
C183 C182 1.367 . S
C183 H185 0.930 . S
H184 C177 0.930 . S
H185 C183 0.930 . S
H186 C174 0.930 1_556 S
H187 C175 0.930 . S
H188 C181 0.929 . S
H189 C203 0.930 . S
H190 C182 0.930 . S
H191 C209 0.930 . S
H192 C200 0.929 . S
H193 C207 0.930 . S
H194 C171 0.931 . S
H195 C201 0.930 . S
H196 C234 0.930 1_554 S
H197 C178 0.930 . S
H198 C233 0.931 . S
N199 Eu168 2.657 . S
N199 C200 1.334 1_556 S
N199 C204 1.362 . S
C200 H192 0.929 . S
C200 N199 1.334 1_554 S
C200 C203 1.413 . S
C201 H195 0.930 . S
C201 C202 1.392 . S
C201 C203 1.367 . S
C202 C201 1.392 . S
C202 C204 1.420 1_554 S
C202 C234 1.423 1_554 S
C203 H189 0.930 . S
C203 C200 1.413 . S
C203 C201 1.367 . S
C204 N199 1.362 . S
C204 C202 1.420 1_556 S
C204 C208 1.429 . S
H205 C210 0.930 . S
N206 Eu168 2.609 . S
N206 C208 1.377 . S
N206 C209 1.321 . S
C207 H193 0.930 . S
C207 C209 1.400 . S
C207 C210 1.386 . S
C208 C204 1.429 . S
C208 N206 1.377 . S
C208 C211 1.411 . S
C209 H191 0.930 . S
C209 N206 1.321 . S
C209 C207 1.400 . S
C210 H205 0.930 . S
C210 C207 1.386 . S
C210 C211 1.395 . S
C211 C208 1.411 . S
C211 C210 1.395 . S
C211 C233 1.420 . S
O212 Eu168 2.558 . S
O212 C232 1.257 . S
O213 Eu168 2.612 . S
O213 Eu179 2.380 1_556 S
O213 C224 1.276 . S
O214 Eu179 2.432 . S
O214 C231 1.264 . S
O215 Eu168 2.339 1_554 S
O215 C231 1.254 . S
O216 Eu168 2.563 . S
O216 C224 1.235 . S
O217 Eu168 2.419 . S
O217 C232 1.249 . S
O218 Eu179 2.558 . S
O218 C243 1.257 . S
O219 Eu168 2.380 1_554 S
O219 Eu179 2.612 . S
O219 C235 1.276 . S
O220 Eu168 2.432 . S
O220 C242 1.264 . S
O221 Eu179 2.339 1_556 S
O221 C242 1.254 . S
O222 Eu179 2.563 . S
O222 C235 1.235 . S
O223 Eu179 2.419 . S
O223 C243 1.249 . S
C224 O213 1.276 . S
C224 O216 1.235 . S
C225 C227 1.393 . S
C225 C229 1.395 . S
C225 C232 1.492 . S
C226 C227 1.392 . S
C226 C228 1.386 . S
C227 C225 1.393 . S
C227 C226 1.392 . S
C227 H244 0.930 . S
C228 C226 1.386 . S
C228 C230 1.395 . S
C228 H245 0.930 . S
C229 C225 1.395 . S
C229 C230 1.379 . S
C229 H246 0.930 . S
C230 C228 1.395 . S
C230 C229 1.379 . S
C230 H247 0.930 . S
C231 O214 1.264 . S
C231 O215 1.254 . S
C232 Eu168 2.848 . S
C232 O212 1.257 . S
C232 O217 1.249 . S
C232 C225 1.492 . S
C233 H198 0.931 . S
C233 C211 1.420 . S
C233 C234 1.351 . S
C234 H196 0.930 1_556 S
C234 C202 1.423 1_556 S
C234 C233 1.351 . S
C235 O219 1.276 . S
C235 O222 1.235 . S
C236 C237 1.393 . S
C236 C240 1.395 . S
C236 C243 1.492 . S
C237 C236 1.393 . S
C237 C238 1.392 . S
C237 H248 0.930 . S
C238 C237 1.392 . S
C238 C239 1.386 . S
C239 C238 1.386 . S
C239 C241 1.395 . S
C239 H249 0.930 . S
C240 C236 1.395 . S
C240 C241 1.379 . S
C240 H250 0.930 . S
C241 C239 1.395 . S
C241 C240 1.379 . S
C241 H251 0.930 . S
C242 O220 1.264 . S
C242 O221 1.254 . S
C243 Eu179 2.848 . S
C243 O218 1.257 . S
C243 O223 1.249 . S
C243 C236 1.492 . S
H244 C227 0.930 . S
H245 C228 0.930 . S
H246 C229 0.930 . S
H247 C230 0.930 . S
H248 C237 0.930 . S
H249 C239 0.930 . S
H250 C240 0.930 . S
H251 C241 0.930 . S
Eu252 N283 2.657 . S
Eu252 N290 2.609 . S
Eu252 O296 2.558 . S
Eu252 O297 2.612 . S
Eu252 O299 2.339 . S
Eu252 O300 2.563 . S
Eu252 O301 2.419 . S
Eu252 O303 2.380 . S
Eu252 O304 2.432 . S
Eu252 C316 2.848 . S
C253 C256 1.429 1_565 S
C253 C257 1.411 . S
C253 N260 1.377 . S
C254 C256 1.420 1_565 S
C254 C258 1.423 . S
C254 C266 1.392 1_565 S
C255 C257 1.420 . S
C255 C258 1.351 . S
C255 H278 0.931 . S
C256 C253 1.429 1_545 S
C256 C254 1.420 1_545 S
C256 N264 1.362 . S
C257 C253 1.411 . S
C257 C255 1.420 . S
C257 C262 1.395 . S
C258 C254 1.423 . S
C258 C255 1.351 . S
C258 H270 0.930 . S
C259 C261 1.400 . S
C259 C262 1.386 . S
C259 H271 0.930 . S
N260 C253 1.377 . S
N260 C261 1.321 . S
N260 Eu263 2.609 1_565 S
C261 C259 1.400 . S
C261 N260 1.321 . S
C261 H268 0.930 . S
C262 C257 1.395 . S
C262 C259 1.386 . S
C262 H281 0.930 . S
Eu263 N260 2.609 1_545 S
Eu263 N264 2.657 . S
Eu263 O297 2.380 . S
Eu263 O298 2.432 . S
Eu263 O302 2.558 . S
Eu263 O303 2.612 . S
Eu263 O305 2.339 . S
Eu263 O306 2.563 . S
Eu263 O307 2.419 . S
Eu263 C327 2.848 . S
N264 C256 1.362 . S
N264 Eu263 2.657 . S
N264 C265 1.334 . S
C265 N264 1.334 . S
C265 C267 1.413 . S
C265 H272 0.929 . S
C266 C254 1.392 1_545 S
C266 C267 1.367 . S
C266 H274 0.930 1_545 S
C267 C265 1.413 . S
C267 C266 1.367 . S
C267 H269 0.930 . S
H268 C261 0.930 . S
H269 C267 0.930 . S
H270 C258 0.930 . S
H271 C259 0.930 . S
H272 C265 0.929 . S
H273 C287 0.930 . S
H274 C266 0.930 1_565 S
H275 C293 0.930 . S
H276 C284 0.929 . S
H277 C291 0.930 . S
H278 C255 0.931 . S
H279 C285 0.930 . S
H280 C318 0.930 . S
H281 C262 0.930 . S
H282 C317 0.931 . S
N283 Eu252 2.657 . S
N283 C284 1.334 . S
N283 C288 1.362 . S
C284 H276 0.929 . S
C284 N283 1.334 . S
C284 C287 1.413 . S
C285 H279 0.930 . S
C285 C286 1.392 . S
C285 C287 1.367 . S
C286 C285 1.392 . S
C286 C288 1.420 . S
C286 C318 1.423 . S
C287 H273 0.930 . S
C287 C284 1.413 . S
C287 C285 1.367 . S
C288 N283 1.362 . S
C288 C286 1.420 . S
C288 C292 1.429 . S
H289 C294 0.930 . S
N290 Eu252 2.609 . S
N290 C292 1.377 . S
N290 C293 1.321 . S
C291 H277 0.930 . S
C291 C293 1.400 . S
C291 C294 1.386 . S
C292 C288 1.429 . S
C292 N290 1.377 . S
C292 C295 1.411 . S
C293 H275 0.930 . S
C293 N290 1.321 . S
C293 C291 1.400 . S
C294 H289 0.930 . S
C294 C291 1.386 . S
C294 C295 1.395 . S
C295 C292 1.411 . S
C295 C294 1.395 . S
C295 C317 1.420 . S
O296 Eu252 2.558 . S
O296 C316 1.257 . S
O297 Eu252 2.612 . S
O297 Eu263 2.380 . S
O297 C308 1.276 . S
O298 Eu263 2.432 . S
O298 C315 1.264 . S
O299 Eu252 2.339 . S
O299 C315 1.254 . S
O300 Eu252 2.563 . S
O300 C308 1.235 . S
O301 Eu252 2.419 . S
O301 C316 1.249 . S
O302 Eu263 2.558 . S
O302 C327 1.257 . S
O303 Eu252 2.380 . S
O303 Eu263 2.612 . S
O303 C319 1.276 . S
O304 Eu252 2.432 . S
O304 C326 1.264 . S
O305 Eu263 2.339 . S
O305 C326 1.254 . S
O306 Eu263 2.563 . S
O306 C319 1.235 . S
O307 Eu263 2.419 . S
O307 C327 1.249 . S
C308 O297 1.276 . S
C308 O300 1.235 . S
C309 C311 1.393 . S
C309 C313 1.395 . S
C309 C316 1.492 . S
C310 C311 1.392 . S
C310 C312 1.386 1_554 S
C311 C309 1.393 . S
C311 C310 1.392 . S
C311 H328 0.930 . S
C312 C310 1.386 1_556 S
C312 C314 1.395 . S
C312 H329 0.930 . S
C313 C309 1.395 . S
C313 C314 1.379 1_554 S
C313 H330 0.930 . S
C314 C312 1.395 . S
C314 C313 1.379 1_556 S
C314 H331 0.930 . S
C315 O298 1.264 . S
C315 O299 1.254 . S
C316 Eu252 2.848 . S
C316 O296 1.257 . S
C316 O301 1.249 . S
C316 C309 1.492 . S
C317 H282 0.931 . S
C317 C295 1.420 . S
C317 C318 1.351 . S
C318 H280 0.930 . S
C318 C286 1.423 . S
C318 C317 1.351 . S
C319 O303 1.276 . S
C319 O306 1.235 . S
C320 C321 1.393 . S
C320 C324 1.395 . S
C320 C327 1.492 . S
C321 C320 1.393 . S
C321 C322 1.392 . S
C321 H332 0.930 . S
C322 C321 1.392 . S
C322 C323 1.386 . S
C323 C322 1.386 . S
C323 C325 1.395 . S
C323 H333 0.930 . S
C324 C320 1.395 . S
C324 C325 1.379 . S
C324 H334 0.930 . S
C325 C323 1.395 . S
C325 C324 1.379 . S
C325 H335 0.930 . S
C326 O304 1.264 . S
C326 O305 1.254 . S
C327 Eu263 2.848 . S
C327 O302 1.257 . S
C327 O307 1.249 . S
C327 C320 1.492 . S
H328 C311 0.930 . S
H329 C312 0.930 . S
H330 C313 0.930 . S
H331 C314 0.930 . S
H332 C321 0.930 . S
H333 C323 0.930 . S
H334 C324 0.930 . S
H335 C325 0.930 . S
Eu336 N367 2.657 . S
Eu336 N374 2.609 . S
Eu336 O380 2.558 . S
Eu336 O381 2.612 . S
Eu336 O383 2.339 . S
Eu336 O384 2.563 . S
Eu336 O385 2.419 . S
Eu336 O387 2.380 . S
Eu336 O388 2.432 . S
Eu336 C400 2.848 . S
C337 C340 1.429 . S
C337 C341 1.411 . S
C337 N344 1.377 . S
C338 C340 1.420 . S
C338 C342 1.423 . S
C338 C350 1.392 . S
C339 C341 1.420 . S
C339 C342 1.351 . S
C339 H362 0.931 . S
C340 C337 1.429 . S
C340 C338 1.420 . S
C340 N348 1.362 . S
C341 C337 1.411 . S
C341 C339 1.420 . S
C341 C346 1.395 . S
C342 C338 1.423 . S
C342 C339 1.351 . S
C342 H354 0.930 . S
C343 C345 1.400 . S
C343 C346 1.386 . S
C343 H355 0.930 . S
N344 C337 1.377 . S
N344 C345 1.321 . S
N344 Eu347 2.609 . S
C345 C343 1.400 . S
C345 N344 1.321 . S
C345 H352 0.930 . S
C346 C341 1.395 . S
C346 C343 1.386 . S
C346 H365 0.930 . S
Eu347 N344 2.609 . S
Eu347 N348 2.657 . S
Eu347 O381 2.380 . S
Eu347 O382 2.432 . S
Eu347 O386 2.558 . S
Eu347 O387 2.612 . S
Eu347 O389 2.339 . S
Eu347 O390 2.563 . S
Eu347 O391 2.419 . S
Eu347 C411 2.848 . S
N348 C340 1.362 . S
N348 Eu347 2.657 . S
N348 C349 1.334 . S
C349 N348 1.334 . S
C349 C351 1.413 . S
C349 H356 0.929 . S
C350 C338 1.392 . S
C350 C351 1.367 . S
C350 H358 0.930 . S
C351 C349 1.413 . S
C351 C350 1.367 . S
C351 H353 0.930 . S
H352 C345 0.930 . S
H353 C351 0.930 . S
H354 C342 0.930 . S
H355 C343 0.930 . S
H356 C349 0.929 . S
H357 C371 0.930 . S
H358 C350 0.930 . S
H359 C377 0.930 . S
H360 C368 0.929 . S
H361 C375 0.930 . S
H362 C339 0.931 . S
H363 C369 0.930 1_565 S
H364 C402 0.930 1_565 S
H365 C346 0.930 . S
H366 C401 0.931 . S
N367 Eu336 2.657 . S
N367 C368 1.334 . S
N367 C372 1.362 . S
C368 H360 0.929 . S
C368 N367 1.334 . S
C368 C371 1.413 . S
C369 H363 0.930 1_545 S
C369 C370 1.392 . S
C369 C371 1.367 . S
C370 C369 1.392 . S
C370 C372 1.420 . S
C370 C402 1.423 . S
C371 H357 0.930 . S
C371 C368 1.413 . S
C371 C369 1.367 . S
C372 N367 1.362 . S
C372 C370 1.420 . S
C372 C376 1.429 . S
H373 C378 0.930 . S
N374 Eu336 2.609 . S
N374 C376 1.377 . S
N374 C377 1.321 . S
C375 H361 0.930 . S
C375 C377 1.400 . S
C375 C378 1.386 . S
C376 C372 1.429 . S
C376 N374 1.377 . S
C376 C379 1.411 . S
C377 H359 0.930 . S
C377 N374 1.321 . S
C377 C375 1.400 . S
C378 H373 0.930 . S
C378 C375 1.386 . S
C378 C379 1.395 . S
C379 C376 1.411 . S
C379 C378 1.395 . S
C379 C401 1.420 . S
O380 Eu336 2.558 . S
O380 C400 1.257 . S
O381 Eu336 2.612 . S
O381 Eu347 2.380 . S
O381 C392 1.276 . S
O382 Eu347 2.432 . S
O382 C399 1.264 . S
O383 Eu336 2.339 . S
O383 C399 1.254 . S
O384 Eu336 2.563 . S
O384 C392 1.235 . S
O385 Eu336 2.419 . S
O385 C400 1.249 . S
O386 Eu347 2.558 . S
O386 C411 1.257 . S
O387 Eu336 2.380 . S
O387 Eu347 2.612 . S
O387 C403 1.276 . S
O388 Eu336 2.432 . S
O388 C410 1.264 . S
O389 Eu347 2.339 . S
O389 C410 1.254 . S
O390 Eu347 2.563 . S
O390 C403 1.235 . S
O391 Eu347 2.419 . S
O391 C411 1.249 . S
C392 O381 1.276 . S
C392 O384 1.235 . S
C393 C395 1.393 . S
C393 C397 1.395 . S
C393 C400 1.492 . S
C394 C395 1.392 . S
C394 C396 1.386 . S
C395 C393 1.393 . S
C395 C394 1.392 . S
C395 H412 0.930 . S
C396 C394 1.386 . S
C396 C398 1.395 . S
C396 H413 0.932 . S
C397 C393 1.395 . S
C397 C398 1.379 . S
C397 H414 0.930 . S
C398 C396 1.395 . S
C398 C397 1.379 . S
C398 H415 0.930 . S
C399 O382 1.264 . S
C399 O383 1.254 . S
C400 Eu336 2.848 . S
C400 O380 1.257 . S
C400 O385 1.249 . S
C400 C393 1.492 . S
C401 H366 0.931 . S
C401 C379 1.420 . S
C401 C402 1.351 . S
C402 H364 0.930 1_545 S
C402 C370 1.423 . S
C402 C401 1.351 . S
C403 O387 1.276 . S
C403 O390 1.235 . S
C404 C405 1.393 . S
C404 C408 1.395 . S
C404 C411 1.492 . S
C405 C404 1.393 . S
C405 C406 1.392 . S
C405 H416 0.930 . S
C406 C405 1.392 . S
C406 C407 1.386 . S
C407 C406 1.386 . S
C407 C409 1.395 . S
C407 H417 0.930 . S
C408 C404 1.395 . S
C408 C409 1.379 . S
C408 H418 0.930 . S
C409 C407 1.395 . S
C409 C408 1.379 . S
C409 H419 0.930 . S
C410 O388 1.264 . S
C410 O389 1.254 . S
C411 Eu347 2.848 . S
C411 O386 1.257 . S
C411 O391 1.249 . S
C411 C404 1.492 . S
H412 C395 0.930 . S
H413 C396 0.932 . S
H414 C397 0.930 . S
H415 C398 0.930 . S
H416 C405 0.930 . S
H417 C407 0.930 . S
H418 C408 0.930 . S
H419 C409 0.930 . S
Eu420 N451 2.657 . S
Eu420 N458 2.609 . S
Eu420 O464 2.558 . S
Eu420 O465 2.612 . S
Eu420 O467 2.339 1_655 S
Eu420 O468 2.563 . S
Eu420 O469 2.419 . S
Eu420 O471 2.380 1_655 S
Eu420 O472 2.432 . S
Eu420 C484 2.848 . S
C421 C424 1.429 . S
C421 C425 1.411 . S
C421 N428 1.377 . S
C422 C424 1.420 1_655 S
C422 C426 1.423 1_655 S
C422 C434 1.392 . S
C423 C425 1.420 . S
C423 C426 1.351 . S
C423 H446 0.931 . S
C424 C421 1.429 . S
C424 C422 1.420 1_455 S
C424 N432 1.362 . S
C425 C421 1.411 . S
C425 C423 1.420 . S
C425 C430 1.395 . S
C426 C422 1.423 1_455 S
C426 C423 1.351 . S
C426 H438 0.930 1_455 S
C427 C429 1.400 . S
C427 C430 1.386 . S
C427 H439 0.930 . S
N428 C421 1.377 . S
N428 C429 1.321 . S
N428 Eu431 2.609 . S
C429 C427 1.400 . S
C429 N428 1.321 . S
C429 H436 0.930 . S
C430 C425 1.395 . S
C430 C427 1.386 . S
C430 H449 0.930 . S
Eu431 N428 2.609 . S
Eu431 N432 2.657 . S
Eu431 O465 2.380 1_455 S
Eu431 O466 2.432 . S
Eu431 O470 2.558 . S
Eu431 O471 2.612 . S
Eu431 O473 2.339 1_455 S
Eu431 O474 2.563 . S
Eu431 O475 2.419 . S
Eu431 C495 2.848 . S
N432 C424 1.362 . S
N432 Eu431 2.657 . S
N432 C433 1.334 1_455 S
C433 N432 1.334 1_655 S
C433 C435 1.413 . S
C433 H440 0.929 . S
C434 C422 1.392 . S
C434 C435 1.367 . S
C434 H442 0.930 . S
C435 C433 1.413 . S
C435 C434 1.367 . S
C435 H437 0.930 . S
H436 C429 0.930 . S
H437 C435 0.930 . S
H438 C426 0.930 1_655 S
H439 C427 0.930 . S
H440 C433 0.929 . S
H441 C455 0.930 . S
H442 C434 0.930 . S
H443 C461 0.930 . S
H444 C452 0.929 . S
H445 C459 0.930 . S
H446 C423 0.931 . S
H447 C453 0.930 . S
H448 C486 0.930 1_455 S
H449 C430 0.930 . S
H450 C485 0.931 . S
N451 Eu420 2.657 . S
N451 C452 1.334 1_655 S
N451 C456 1.362 . S
C452 H444 0.929 . S
C452 N451 1.334 1_455 S
C452 C455 1.413 . S
C453 H447 0.930 . S
C453 C454 1.392 . S
C453 C455 1.367 . S
C454 C453 1.392 . S
C454 C456 1.420 1_455 S
C454 C486 1.423 1_455 S
C455 H441 0.930 . S
C455 C452 1.413 . S
C455 C453 1.367 . S
C456 N451 1.362 . S
C456 C454 1.420 1_655 S
C456 C460 1.429 . S
H457 C462 0.930 . S
N458 Eu420 2.609 . S
N458 C460 1.377 . S
N458 C461 1.321 . S
C459 H445 0.930 . S
C459 C461 1.400 . S
C459 C462 1.386 . S
C460 C456 1.429 . S
C460 N458 1.377 . S
C460 C463 1.411 . S
C461 H443 0.930 . S
C461 N458 1.321 . S
C461 C459 1.400 . S
C462 H457 0.930 . S
C462 C459 1.386 . S
C462 C463 1.395 . S
C463 C460 1.411 . S
C463 C462 1.395 . S
C463 C485 1.420 . S
O464 Eu420 2.558 . S
O464 C484 1.257 . S
O465 Eu420 2.612 . S
O465 Eu431 2.380 1_655 S
O465 C476 1.276 . S
O466 Eu431 2.432 . S
O466 C483 1.264 . S
O467 Eu420 2.339 1_455 S
O467 C483 1.254 . S
O468 Eu420 2.563 . S
O468 C476 1.235 . S
O469 Eu420 2.419 . S
O469 C484 1.249 . S
O470 Eu431 2.558 . S
O470 C495 1.257 . S
O471 Eu420 2.380 1_455 S
O471 Eu431 2.612 . S
O471 C487 1.276 . S
O472 Eu420 2.432 . S
O472 C494 1.264 . S
O473 Eu431 2.339 1_655 S
O473 C494 1.254 . S
O474 Eu431 2.563 . S
O474 C487 1.235 . S
O475 Eu431 2.419 . S
O475 C495 1.249 . S
C476 O465 1.276 . S
C476 O468 1.235 . S
C477 C479 1.393 . S
C477 C481 1.395 . S
C477 C484 1.492 . S
C478 C479 1.392 . S
C478 C480 1.386 . S
C479 C477 1.393 . S
C479 C478 1.392 . S
C479 H496 0.930 . S
C480 C478 1.386 . S
C480 C482 1.395 . S
C480 H497 0.930 . S
C481 C477 1.395 . S
C481 C482 1.379 . S
C481 H498 0.930 . S
C482 C480 1.395 . S
C482 C481 1.379 . S
C482 H499 0.930 . S
C483 O466 1.264 . S
C483 O467 1.254 . S
C484 Eu420 2.848 . S
C484 O464 1.257 . S
C484 O469 1.249 . S
C484 C477 1.492 . S
C485 H450 0.931 . S
C485 C463 1.420 . S
C485 C486 1.351 . S
C486 H448 0.930 1_655 S
C486 C454 1.423 1_655 S
C486 C485 1.351 . S
C487 O471 1.276 . S
C487 O474 1.235 . S
C488 C489 1.393 . S
C488 C492 1.395 . S
C488 C495 1.492 . S
C489 C488 1.393 . S
C489 C490 1.392 . S
C489 H500 0.930 . S
C490 C489 1.392 . S
C490 C491 1.386 . S
C491 C490 1.386 . S
C491 C493 1.395 . S
C491 H501 0.930 . S
C492 C488 1.395 . S
C492 C493 1.379 . S
C492 H502 0.930 . S
C493 C491 1.395 . S
C493 C492 1.379 . S
C493 H503 0.930 . S
C494 O472 1.264 . S
C494 O473 1.254 . S
C495 Eu431 2.848 . S
C495 O470 1.257 . S
C495 O475 1.249 . S
C495 C488 1.492 . S
H496 C479 0.930 . S
H497 C480 0.930 . S
H498 C481 0.930 . S
H499 C482 0.930 . S
H500 C489 0.930 . S
H501 C491 0.930 . S
H502 C492 0.930 . S
H503 C493 0.930 . S
Eu504 N535 2.657 . S
Eu504 N542 2.610 . S
Eu504 O548 2.558 . S
Eu504 O549 2.612 . S
Eu504 O551 2.339 1_554 S
Eu504 O552 2.563 . S
Eu504 O553 2.419 . S
Eu504 O555 2.380 1_554 S
Eu504 O556 2.432 . S
Eu504 C568 2.848 . S
C505 C508 1.429 . S
C505 C509 1.411 . S
C505 N512 1.377 . S
C506 C508 1.420 1_554 S
C506 C510 1.423 1_554 S
C506 C518 1.392 . S
C507 C509 1.420 . S
C507 C510 1.351 . S
C507 H530 0.931 . S
C508 C505 1.429 . S
C508 C506 1.420 1_556 S
C508 N516 1.362 . S
C509 C505 1.411 . S
C509 C507 1.420 . S
C509 C514 1.395 . S
C510 C506 1.423 1_556 S
C510 C507 1.351 . S
C510 H522 0.930 1_556 S
C511 C513 1.400 . S
C511 C514 1.386 . S
C511 H523 0.930 . S
N512 C505 1.377 . S
N512 C513 1.321 . S
N512 Eu515 2.609 . S
C513 C511 1.400 . S
C513 N512 1.321 . S
C513 H520 0.930 . S
C514 C509 1.395 . S
C514 C511 1.386 . S
C514 H533 0.930 . S
Eu515 N512 2.609 . S
Eu515 N516 2.657 . S
Eu515 O549 2.380 1_556 S
Eu515 O550 2.432 . S
Eu515 O554 2.558 . S
Eu515 O555 2.612 . S
Eu515 O557 2.339 1_556 S
Eu515 O558 2.563 . S
Eu515 O559 2.419 . S
Eu515 C579 2.848 . S
N516 C508 1.362 . S
N516 Eu515 2.657 . S
N516 C517 1.334 1_556 S
C517 N516 1.334 1_554 S
C517 C519 1.413 . S
C517 H524 0.929 . S
C518 C506 1.392 . S
C518 C519 1.367 . S
C518 H526 0.930 . S
C519 C517 1.413 . S
C519 C518 1.367 . S
C519 H521 0.930 . S
H520 C513 0.930 . S
H521 C519 0.930 . S
H522 C510 0.930 1_554 S
H523 C511 0.930 . S
H524 C517 0.929 . S
H525 C539 0.930 . S
H526 C518 0.930 . S
H527 C545 0.930 . S
H528 C536 0.929 . S
H529 C543 0.930 . S
H530 C507 0.931 . S
H531 C537 0.930 1_445 S
H532 C570 0.916 1_546 S
H533 C514 0.930 . S
H534 C569 0.931 . S
N535 Eu504 2.657 . S
N535 C536 1.334 1_554 S
N535 C540 1.362 . S
C536 H528 0.929 . S
C536 N535 1.334 1_556 S
C536 C539 1.413 . S
C537 H531 0.930 1_665 S
C537 C538 1.392 1_655 S
C537 C539 1.367 . S
C538 C537 1.392 1_455 S
C538 C540 1.420 1_456 S
C538 C570 1.423 1_556 S
C539 H525 0.930 . S
C539 C536 1.413 . S
C539 C537 1.367 . S
C540 N535 1.362 . S
C540 C538 1.420 1_654 S
C540 C544 1.429 1_655 S
H541 C546 0.930 . S
N542 Eu504 2.610 . S
N542 C544 1.376 1_655 S
N542 C545 1.321 1_655 S
C543 H529 0.930 . S
C543 C545 1.400 . S
C543 C546 1.386 . S
C544 C540 1.429 1_455 S
C544 N542 1.376 1_455 S
C544 C547 1.411 . S
C545 H527 0.930 . S
C545 N542 1.321 1_455 S
C545 C543 1.400 . S
C546 H541 0.930 . S
C546 C543 1.386 . S
C546 C547 1.395 . S
C547 C544 1.411 . S
C547 C546 1.395 . S
C547 C569 1.420 . S
O548 Eu504 2.558 . S
O548 C568 1.257 . S
O549 Eu504 2.612 . S
O549 Eu515 2.380 1_554 S
O549 C560 1.276 . S
O550 Eu515 2.432 . S
O550 C567 1.264 . S
O551 Eu504 2.339 1_556 S
O551 C567 1.254 . S
O552 Eu504 2.563 . S
O552 C560 1.235 . S
O553 Eu504 2.419 . S
O553 C568 1.249 . S
O554 Eu515 2.558 . S
O554 C579 1.257 . S
O555 Eu504 2.380 1_556 S
O555 Eu515 2.612 . S
O555 C571 1.276 . S
O556 Eu504 2.432 . S
O556 C578 1.264 . S
O557 Eu515 2.339 1_554 S
O557 C578 1.254 . S
O558 Eu515 2.563 . S
O558 C571 1.235 . S
O559 Eu515 2.419 . S
O559 C579 1.249 . S
C560 O549 1.276 . S
C560 O552 1.235 . S
C561 C563 1.393 . S
C561 C565 1.395 . S
C561 C568 1.492 . S
C562 C563 1.392 . S
C562 C564 1.386 . S
C563 C561 1.393 . S
C563 C562 1.392 . S
C563 H580 0.930 . S
C564 C562 1.386 . S
C564 C566 1.395 . S
C564 H581 0.941 . S
C565 C561 1.395 . S
C565 C566 1.379 . S
C565 H582 0.930 . S
C566 C564 1.395 . S
C566 C565 1.379 . S
C566 H583 0.930 . S
C567 O550 1.264 . S
C567 O551 1.254 . S
C568 Eu504 2.848 . S
C568 O548 1.257 . S
C568 O553 1.249 . S
C568 C561 1.492 . S
C569 H534 0.931 . S
C569 C547 1.420 . S
C569 C570 1.351 . S
C570 H532 0.916 1_564 S
C570 C538 1.423 1_554 S
C570 C569 1.351 . S
C571 O555 1.276 . S
C571 O558 1.235 . S
C572 C573 1.393 . S
C572 C576 1.395 . S
C572 C579 1.492 . S
C573 C572 1.393 . S
C573 C574 1.392 . S
C573 H584 0.930 . S
C574 C573 1.392 . S
C574 C575 1.386 . S
C575 C574 1.386 . S
C575 C577 1.395 . S
C575 H585 0.930 . S
C576 C572 1.395 . S
C576 C577 1.379 . S
C576 H586 0.930 . S
C577 C575 1.395 . S
C577 C576 1.379 . S
C577 H587 0.930 . S
C578 O556 1.264 . S
C578 O557 1.254 . S
C579 Eu515 2.848 . S
C579 O554 1.257 . S
C579 O559 1.249 . S
C579 C572 1.492 . S
H580 C563 0.930 . S
H581 C564 0.941 . S
H582 C565 0.930 . S
H583 C566 0.930 . S
H584 C573 0.930 . S
H585 C575 0.930 . S
H586 C576 0.930 . S
H587 C577 0.930 . S
Eu588 N619 2.657 . S
Eu588 N626 2.609 . S
Eu588 O632 2.558 . S
Eu588 O633 2.612 . S
Eu588 O635 2.339 . S
Eu588 O636 2.563 . S
Eu588 O637 2.419 . S
Eu588 O639 2.380 . S
Eu588 O640 2.432 . S
Eu588 C652 2.848 . S
C589 C592 1.429 . S
C589 C593 1.411 . S
C589 N596 1.377 . S
C590 C592 1.420 . S
C590 C594 1.423 . S
C590 C602 1.392 . S
C591 C593 1.420 . S
C591 C594 1.351 . S
C591 H614 0.931 . S
C592 C589 1.429 . S
C592 C590 1.420 . S
C592 N600 1.362 . S
C593 C589 1.411 . S
C593 C591 1.420 . S
C593 C598 1.395 . S
C594 C590 1.423 . S
C594 C591 1.351 . S
C594 H606 0.930 . S
C595 C597 1.400 . S
C595 C598 1.386 . S
C595 H607 0.930 . S
N596 C589 1.377 . S
N596 C597 1.321 . S
N596 Eu599 2.609 . S
C597 C595 1.400 . S
C597 N596 1.321 . S
C597 H604 0.930 . S
C598 C593 1.395 . S
C598 C595 1.386 . S
C598 H617 0.930 . S
Eu599 N596 2.609 . S
Eu599 N600 2.657 . S
Eu599 O633 2.380 . S
Eu599 O634 2.432 . S
Eu599 O638 2.558 . S
Eu599 O639 2.612 . S
Eu599 O641 2.339 . S
Eu599 O642 2.563 . S
Eu599 O643 2.419 . S
Eu599 C663 2.848 . S
N600 C592 1.362 . S
N600 Eu599 2.657 . S
N600 C601 1.334 . S
C601 N600 1.334 . S
C601 C603 1.413 . S
C601 H608 0.929 . S
C602 C590 1.392 . S
C602 C603 1.367 . S
C602 H610 0.930 . S
C603 C601 1.413 . S
C603 C602 1.367 . S
C603 H605 0.930 . S
H604 C597 0.930 . S
H605 C603 0.930 . S
H606 C594 0.930 . S
H607 C595 0.930 . S
H608 C601 0.929 . S
H609 C623 0.930 . S
H610 C602 0.930 . S
H611 C629 0.930 . S
H612 C620 0.929 . S
H613 C627 0.930 . S
H614 C591 0.931 . S
H615 C621 0.930 . S
H616 C654 0.930 . S
H617 C598 0.930 . S
H618 C653 0.931 . S
N619 Eu588 2.657 . S
N619 C620 1.334 . S
N619 C624 1.362 . S
C620 H612 0.929 . S
C620 N619 1.334 . S
C620 C623 1.413 . S
C621 H615 0.930 . S
C621 C622 1.392 . S
C621 C623 1.367 . S
C622 C621 1.392 . S
C622 C624 1.420 . S
C622 C654 1.423 . S
C623 H609 0.930 . S
C623 C620 1.413 . S
C623 C621 1.367 . S
C624 N619 1.362 . S
C624 C622 1.420 . S
C624 C628 1.429 . S
H625 C630 0.930 . S
N626 Eu588 2.609 . S
N626 C628 1.377 . S
N626 C629 1.321 . S
C627 H613 0.930 . S
C627 C629 1.400 . S
C627 C630 1.386 . S
C628 C624 1.429 . S
C628 N626 1.377 . S
C628 C631 1.411 . S
C629 H611 0.930 . S
C629 N626 1.321 . S
C629 C627 1.400 . S
C630 H625 0.930 . S
C630 C627 1.386 . S
C630 C631 1.395 . S
C631 C628 1.411 . S
C631 C630 1.395 . S
C631 C653 1.420 . S
O632 Eu588 2.558 . S
O632 C652 1.257 . S
O633 Eu588 2.612 . S
O633 Eu599 2.380 . S
O633 C644 1.276 . S
O634 Eu599 2.432 . S
O634 C651 1.264 . S
O635 Eu588 2.339 . S
O635 C651 1.254 . S
O636 Eu588 2.563 . S
O636 C644 1.235 . S
O637 Eu588 2.419 . S
O637 C652 1.249 . S
O638 Eu599 2.558 . S
O638 C663 1.257 . S
O639 Eu588 2.380 . S
O639 Eu599 2.612 . S
O639 C655 1.276 . S
O640 Eu588 2.432 . S
O640 C662 1.264 . S
O641 Eu599 2.339 . S
O641 C662 1.254 . S
O642 Eu599 2.563 . S
O642 C655 1.235 . S
O643 Eu599 2.419 . S
O643 C663 1.249 . S
C644 O633 1.276 . S
C644 O636 1.235 . S
C645 C647 1.393 . S
C645 C649 1.395 . S
C645 C652 1.492 . S
C646 C647 1.392 . S
C646 C648 1.386 . S
C647 C645 1.393 . S
C647 C646 1.392 . S
C647 H664 0.930 . S
C648 C646 1.386 . S
C648 C650 1.395 . S
C648 H665 0.930 . S
C649 C645 1.395 . S
C649 C650 1.379 . S
C649 H666 0.930 . S
C650 C648 1.395 . S
C650 C649 1.379 . S
C650 H667 0.930 . S
C651 O634 1.264 . S
C651 O635 1.254 . S
C652 Eu588 2.848 . S
C652 O632 1.257 . S
C652 O637 1.249 . S
C652 C645 1.492 . S
C653 H618 0.931 . S
C653 C631 1.420 . S
C653 C654 1.351 . S
C654 H616 0.930 . S
C654 C622 1.423 . S
C654 C653 1.351 . S
C655 O639 1.276 . S
C655 O642 1.235 . S
C656 C657 1.393 . S
C656 C660 1.397 . S
C656 C663 1.492 . S
C657 C656 1.393 . S
C657 C658 1.390 1_554 S
C657 H668 0.930 . S
C658 C657 1.390 1_556 S
C658 C659 1.389 . S
C659 C658 1.389 . S
C659 C661 1.395 . S
C659 H669 0.930 . S
C660 C656 1.397 . S
C660 C661 1.376 1_554 S
C660 H670 0.930 1_554 S
C661 C659 1.395 . S
C661 C660 1.376 1_556 S
C661 H671 0.930 . S
C662 O640 1.264 . S
C662 O641 1.254 . S
C663 Eu599 2.848 . S
C663 O638 1.257 . S
C663 O643 1.249 . S
C663 C656 1.492 . S
H664 C647 0.930 . S
H665 C648 0.930 . S
H666 C649 0.930 . S
H667 C650 0.930 . S
H668 C657 0.930 . S
H669 C659 0.930 . S
H670 C660 0.930 1_556 S
H671 C661 0.930 . S
Eu672 N703 2.657 . S
Eu672 N710 2.609 . S
Eu672 O716 2.558 . S
Eu672 O717 2.612 . S
Eu672 O719 2.339 . S
Eu672 O720 2.563 . S
Eu672 O721 2.419 . S
Eu672 O723 2.380 . S
Eu672 O724 2.432 . S
Eu672 C736 2.848 . S
C673 C676 1.429 1_556 S
C673 C677 1.411 . S
C673 N680 1.377 . S
C674 C676 1.420 1_556 S
C674 C678 1.423 . S
C674 C686 1.392 1_556 S
C675 C677 1.420 . S
C675 C678 1.351 . S
C675 H698 0.931 . S
C676 C673 1.429 1_554 S
C676 C674 1.420 1_554 S
C676 N684 1.362 . S
C677 C673 1.411 . S
C677 C675 1.420 . S
C677 C682 1.395 . S
C678 C674 1.423 . S
C678 C675 1.351 . S
C678 H690 0.930 . S
C679 C681 1.400 . S
C679 C682 1.386 . S
C679 H691 0.930 . S
N680 C673 1.377 . S
N680 C681 1.321 . S
N680 Eu683 2.609 1_556 S
C681 C679 1.400 . S
C681 N680 1.321 . S
C681 H688 0.930 . S
C682 C677 1.395 . S
C682 C679 1.386 . S
C682 H701 0.930 . S
Eu683 N680 2.609 1_554 S
Eu683 N684 2.657 . S
Eu683 O717 2.380 . S
Eu683 O718 2.432 . S
Eu683 O722 2.558 . S
Eu683 O723 2.612 . S
Eu683 O725 2.339 . S
Eu683 O726 2.563 . S
Eu683 O727 2.419 . S
Eu683 C747 2.848 . S
N684 C676 1.362 . S
N684 Eu683 2.657 . S
N684 C685 1.334 . S
C685 N684 1.334 . S
C685 C687 1.413 . S
C685 H692 0.929 . S
C686 C674 1.392 1_554 S
C686 C687 1.367 . S
C686 H694 0.930 1_554 S
C687 C685 1.413 . S
C687 C686 1.367 . S
C687 H689 0.930 . S
H688 C681 0.930 . S
H689 C687 0.930 . S
H690 C678 0.930 . S
H691 C679 0.930 . S
H692 C685 0.929 . S
H693 C707 0.930 . S
H694 C686 0.930 1_556 S
H695 C713 0.930 . S
H696 C704 0.929 . S
H697 C711 0.930 . S
H698 C675 0.931 . S
H699 C705 0.930 . S
H700 C738 0.930 . S
H701 C682 0.930 . S
H702 C737 0.931 . S
N703 Eu672 2.657 . S
N703 C704 1.334 . S
N703 C708 1.362 . S
C704 H696 0.929 . S
C704 N703 1.334 . S
C704 C707 1.413 . S
C705 H699 0.930 . S
C705 C706 1.392 . S
C705 C707 1.367 . S
C706 C705 1.392 . S
C706 C708 1.420 . S
C706 C738 1.423 . S
C707 H693 0.930 . S
C707 C704 1.413 . S
C707 C705 1.367 . S
C708 N703 1.362 . S
C708 C706 1.420 . S
C708 C712 1.429 . S
H709 C714 0.930 . S
N710 Eu672 2.609 . S
N710 C712 1.377 . S
N710 C713 1.321 . S
C711 H697 0.930 . S
C711 C713 1.400 . S
C711 C714 1.386 . S
C712 C708 1.429 . S
C712 N710 1.377 . S
C712 C715 1.411 . S
C713 H695 0.930 . S
C713 N710 1.321 . S
C713 C711 1.400 . S
C714 H709 0.930 . S
C714 C711 1.386 . S
C714 C715 1.395 . S
C715 C712 1.411 . S
C715 C714 1.395 . S
C715 C737 1.420 . S
O716 Eu672 2.558 . S
O716 C736 1.257 . S
O717 Eu672 2.612 . S
O717 Eu683 2.380 . S
O717 C728 1.276 . S
O718 Eu683 2.432 . S
O718 C735 1.264 . S
O719 Eu672 2.339 . S
O719 C735 1.254 . S
O720 Eu672 2.563 . S
O720 C728 1.235 . S
O721 Eu672 2.419 . S
O721 C736 1.249 . S
O722 Eu683 2.558 . S
O722 C747 1.257 . S
O723 Eu672 2.380 . S
O723 Eu683 2.612 . S
O723 C739 1.276 . S
O724 Eu672 2.432 . S
O724 C746 1.264 . S
O725 Eu683 2.339 . S
O725 C746 1.254 . S
O726 Eu683 2.563 . S
O726 C739 1.235 . S
O727 Eu683 2.419 . S
O727 C747 1.249 . S
C728 O717 1.276 . S
C728 O720 1.235 . S
C729 C731 1.393 . S
C729 C733 1.395 . S
C729 C736 1.492 . S
C730 C731 1.392 . S
C730 C732 1.386 1_455 S
C731 C729 1.393 . S
C731 C730 1.392 . S
C731 H748 0.930 . S
C732 C730 1.386 1_655 S
C732 C734 1.395 . S
C732 H749 0.930 . S
C733 C729 1.395 . S
C733 C734 1.379 1_455 S
C733 H750 0.930 . S
C734 C732 1.395 . S
C734 C733 1.379 1_655 S
C734 H751 0.930 . S
C735 O718 1.264 . S
C735 O719 1.254 . S
C736 Eu672 2.848 . S
C736 O716 1.257 . S
C736 O721 1.249 . S
C736 C729 1.492 . S
C737 H702 0.931 . S
C737 C715 1.420 . S
C737 C738 1.351 . S
C738 H700 0.930 . S
C738 C706 1.423 . S
C738 C737 1.351 . S
C739 O723 1.276 . S
C739 O726 1.235 . S
C740 C741 1.393 . S
C740 C744 1.395 . S
C740 C747 1.492 . S
C741 C740 1.393 . S
C741 C742 1.392 . S
C741 H752 0.930 . S
C742 C741 1.392 . S
C742 C743 1.386 . S
C743 C742 1.386 . S
C743 C745 1.395 . S
C743 H753 0.930 . S
C744 C740 1.395 . S
C744 C745 1.379 . S
C744 H754 0.930 . S
C745 C743 1.395 . S
C745 C744 1.379 . S
C745 H755 0.930 . S
C746 O724 1.264 . S
C746 O725 1.254 . S
C747 Eu683 2.848 . S
C747 O722 1.257 . S
C747 O727 1.249 . S
C747 C740 1.492 . S
H748 C731 0.930 . S
H749 C732 0.930 . S
H750 C733 0.930 . S
H751 C734 0.930 . S
H752 C741 0.930 . S
H753 C743 0.930 . S
H754 C744 0.930 . S
H755 C745 0.930 . S
Eu756 N787 2.657 . S
Eu756 N794 2.625 . S
Eu756 O800 2.558 . S
Eu756 O801 2.612 . S
Eu756 O803 2.339 1_545 S
Eu756 O804 2.563 . S
Eu756 O805 2.419 . S
Eu756 O807 2.380 1_545 S
Eu756 O808 2.432 . S
Eu756 C820 2.848 . S
C757 C760 1.429 . S
C757 C761 1.411 . S
C757 N764 1.377 . S
C758 C760 1.420 1_545 S
C758 C762 1.423 1_545 S
C758 C770 1.392 . S
C759 C761 1.420 . S
C759 C762 1.351 . S
C759 H782 0.931 . S
C760 C757 1.429 . S
C760 C758 1.420 1_565 S
C760 N768 1.362 . S
C761 C757 1.411 . S
C761 C759 1.420 . S
C761 C766 1.395 . S
C762 C758 1.423 1_565 S
C762 C759 1.351 . S
C762 H774 0.930 1_565 S
C763 C765 1.400 . S
C763 C766 1.386 . S
C763 H775 0.930 . S
N764 C757 1.377 . S
N764 C765 1.321 . S
N764 Eu767 2.609 . S
C765 C763 1.400 . S
C765 N764 1.321 . S
C765 H772 0.930 . S
C766 C761 1.395 . S
C766 C763 1.386 . S
C766 H785 0.930 . S
Eu767 N764 2.609 . S
Eu767 N768 2.657 . S
Eu767 O801 2.380 1_565 S
Eu767 O802 2.432 . S
Eu767 O806 2.558 . S
Eu767 O807 2.612 . S
Eu767 O809 2.339 1_565 S
Eu767 O810 2.563 . S
Eu767 O811 2.419 . S
Eu767 C831 2.848 . S
N768 C760 1.362 . S
N768 Eu767 2.657 . S
N768 C769 1.334 1_565 S
C769 N768 1.334 1_545 S
C769 C771 1.413 . S
C769 H776 0.929 . S
C770 C758 1.392 . S
C770 C771 1.367 . S
C770 H778 0.930 . S
C771 C769 1.413 . S
C771 C770 1.367 . S
C771 H773 0.930 . S
H772 C765 0.930 . S
H773 C771 0.930 . S
H774 C762 0.930 1_545 S
H775 C763 0.930 . S
H776 C769 0.929 . S
H777 C791 0.930 . S
H778 C770 0.930 . S
H779 C797 0.930 . S
H780 C788 0.929 . S
H781 C795 0.930 . S
H782 C759 0.931 . S
H783 C789 0.930 1_454 S
H784 C822 0.930 1_465 S
H785 C766 0.930 . S
H786 C821 0.931 . S
N787 Eu756 2.657 . S
N787 C788 1.334 1_545 S
N787 C792 1.362 . S
C788 H780 0.929 . S
C788 N787 1.334 1_565 S
C788 C791 1.413 . S
C789 H783 0.930 1_656 S
C789 C790 1.392 1_556 S
C789 C791 1.367 . S
C790 C789 1.392 1_554 S
C790 C792 1.420 1_564 S
C790 C822 1.423 1_565 S
C791 H777 0.930 . S
C791 C788 1.413 . S
C791 C789 1.367 . S
C792 N787 1.362 . S
C792 C790 1.420 1_546 S
C792 C796 1.429 1_556 S
H793 C798 0.930 . S
N794 Eu756 2.625 . S
N794 C796 1.369 1_556 S
N794 C797 1.314 1_556 S
C795 H781 0.930 . S
C795 C797 1.400 . S
C795 C798 1.386 . S
C796 C792 1.429 1_554 S
C796 N794 1.369 1_554 S
C796 C799 1.411 . S
C797 H779 0.930 . S
C797 N794 1.314 1_554 S
C797 C795 1.400 . S
C798 H793 0.930 . S
C798 C795 1.386 . S
C798 C799 1.395 . S
C799 C796 1.411 . S
C799 C798 1.395 . S
C799 C821 1.420 . S
O800 Eu756 2.558 . S
O800 C820 1.257 . S
O801 Eu756 2.612 . S
O801 Eu767 2.380 1_545 S
O801 C812 1.276 . S
O802 Eu767 2.432 . S
O802 C819 1.264 . S
O803 Eu756 2.339 1_565 S
O803 C819 1.254 . S
O804 Eu756 2.563 . S
O804 C812 1.235 . S
O805 Eu756 2.419 . S
O805 C820 1.249 . S
O806 Eu767 2.558 . S
O806 C831 1.257 . S
O807 Eu756 2.380 1_565 S
O807 Eu767 2.612 . S
O807 C823 1.276 . S
O808 Eu756 2.432 . S
O808 C830 1.264 . S
O809 Eu767 2.339 1_545 S
O809 C830 1.254 . S
O810 Eu767 2.563 . S
O810 C823 1.235 . S
O811 Eu767 2.419 . S
O811 C831 1.249 . S
C812 O801 1.276 . S
C812 O804 1.235 . S
C813 C815 1.393 . S
C813 C817 1.395 . S
C813 C820 1.492 . S
C814 C815 1.392 . S
C814 C816 1.386 . S
C815 C813 1.393 . S
C815 C814 1.392 . S
C815 H832 0.930 . S
C816 C814 1.386 . S
C816 C818 1.395 . S
C816 H833 0.930 1_655 S
C817 C813 1.395 . S
C817 C818 1.379 . S
C817 H834 0.930 . S
C818 C816 1.395 . S
C818 C817 1.379 . S
C818 H835 0.930 . S
C819 O802 1.264 . S
C819 O803 1.254 . S
C820 Eu756 2.848 . S
C820 O800 1.257 . S
C820 O805 1.249 . S
C820 C813 1.492 . S
C821 H786 0.931 . S
C821 C799 1.420 . S
C821 C822 1.351 . S
C822 H784 0.930 1_645 S
C822 C790 1.423 1_545 S
C822 C821 1.351 . S
C823 O807 1.276 . S
C823 O810 1.235 . S
C824 C825 1.393 . S
C824 C828 1.395 . S
C824 C831 1.492 . S
C825 C824 1.393 . S
C825 C826 1.392 . S
C825 H836 0.930 . S
C826 C825 1.392 . S
C826 C827 1.386 . S
C827 C826 1.386 . S
C827 C829 1.395 . S
C827 H837 0.930 . S
C828 C824 1.395 . S
C828 C829 1.379 . S
C828 H838 0.930 . S
C829 C827 1.395 . S
C829 C828 1.379 . S
C829 H839 0.930 . S
C830 O808 1.264 . S
C830 O809 1.254 . S
C831 Eu767 2.848 . S
C831 O806 1.257 . S
C831 O811 1.249 . S
C831 C824 1.492 . S
H832 C815 0.930 . S
H833 C816 0.930 1_455 S
H834 C817 0.930 . S
H835 C818 0.930 . S
H836 C825 0.930 . S
H837 C827 0.930 . S
H838 C828 0.930 . S
H839 C829 0.930 . S
Eu840 N871 2.657 . S
Eu840 N878 2.609 . S
Eu840 O884 2.558 . S
Eu840 O885 2.612 . S
Eu840 O887 2.339 1_565 S
Eu840 O888 2.563 . S
Eu840 O889 2.419 . S
Eu840 O891 2.380 1_565 S
Eu840 O892 2.432 . S
Eu840 C904 2.848 . S
C841 C844 1.429 . S
C841 C845 1.411 . S
C841 N848 1.377 . S
C842 C844 1.420 1_565 S
C842 C846 1.423 1_565 S
C842 C854 1.392 . S
C843 C845 1.420 . S
C843 C846 1.351 . S
C843 H866 0.931 . S
C844 C841 1.429 . S
C844 C842 1.420 1_545 S
C844 N852 1.362 . S
C845 C841 1.411 . S
C845 C843 1.420 . S
C845 C850 1.395 . S
C846 C842 1.423 1_545 S
C846 C843 1.351 . S
C846 H858 0.930 1_545 S
C847 C849 1.400 . S
C847 C850 1.386 . S
C847 H859 0.930 . S
N848 C841 1.377 . S
N848 C849 1.321 . S
N848 Eu851 2.609 . S
C849 C847 1.400 . S
C849 N848 1.321 . S
C849 H856 0.930 . S
C850 C845 1.395 . S
C850 C847 1.386 . S
C850 H869 0.930 . S
Eu851 N848 2.609 . S
Eu851 N852 2.657 . S
Eu851 O885 2.380 1_545 S
Eu851 O886 2.432 . S
Eu851 O890 2.558 . S
Eu851 O891 2.612 . S
Eu851 O893 2.339 1_545 S
Eu851 O894 2.563 . S
Eu851 O895 2.419 . S
Eu851 C915 2.848 . S
N852 C844 1.362 . S
N852 Eu851 2.657 . S
N852 C853 1.334 1_545 S
C853 N852 1.334 1_565 S
C853 C855 1.413 . S
C853 H860 0.929 . S
C854 C842 1.392 . S
C854 C855 1.367 . S
C854 H862 0.930 . S
C855 C853 1.413 . S
C855 C854 1.367 . S
C855 H857 0.930 . S
H856 C849 0.930 . S
H857 C855 0.930 . S
H858 C846 0.930 1_565 S
H859 C847 0.930 . S
H860 C853 0.929 . S
H861 C875 0.930 . S
H862 C854 0.930 . S
H863 C881 0.930 . S
H864 C872 0.929 . S
H865 C879 0.930 . S
H866 C843 0.931 . S
H867 C873 0.930 . S
H868 C906 0.930 1_545 S
H869 C850 0.930 . S
H870 C905 0.931 . S
N871 Eu840 2.657 . S
N871 C872 1.334 1_565 S
N871 C876 1.362 . S
C872 H864 0.929 . S
C872 N871 1.334 1_545 S
C872 C875 1.413 . S
C873 H867 0.930 . S
C873 C874 1.392 . S
C873 C875 1.367 . S
C874 C873 1.392 . S
C874 C876 1.420 1_545 S
C874 C906 1.423 1_545 S
C875 H861 0.930 . S
C875 C872 1.413 . S
C875 C873 1.367 . S
C876 N871 1.362 . S
C876 C874 1.420 1_565 S
C876 C880 1.429 . S
H877 C882 0.930 . S
N878 Eu840 2.609 . S
N878 C880 1.377 . S
N878 C881 1.321 . S
C879 H865 0.930 . S
C879 C881 1.400 . S
C879 C882 1.386 . S
C880 C876 1.429 . S
C880 N878 1.377 . S
C880 C883 1.411 . S
C881 H863 0.930 . S
C881 N878 1.321 . S
C881 C879 1.400 . S
C882 H877 0.930 . S
C882 C879 1.386 . S
C882 C883 1.395 . S
C883 C880 1.411 . S
C883 C882 1.395 . S
C883 C905 1.420 . S
O884 Eu840 2.558 . S
O884 C904 1.257 . S
O885 Eu840 2.612 . S
O885 Eu851 2.380 1_565 S
O885 C896 1.276 . S
O886 Eu851 2.432 . S
O886 C903 1.264 . S
O887 Eu840 2.339 1_545 S
O887 C903 1.254 . S
O888 Eu840 2.563 . S
O888 C896 1.235 . S
O889 Eu840 2.419 . S
O889 C904 1.249 . S
O890 Eu851 2.558 . S
O890 C915 1.257 . S
O891 Eu840 2.380 1_545 S
O891 Eu851 2.612 . S
O891 C907 1.276 . S
O892 Eu840 2.432 . S
O892 C914 1.264 . S
O893 Eu851 2.339 1_565 S
O893 C914 1.254 . S
O894 Eu851 2.563 . S
O894 C907 1.235 . S
O895 Eu851 2.419 . S
O895 C915 1.249 . S
C896 O885 1.276 . S
C896 O888 1.235 . S
C897 C899 1.393 . S
C897 C901 1.395 . S
C897 C904 1.492 . S
C898 C899 1.392 . S
C898 C900 1.386 . S
C899 C897 1.393 . S
C899 C898 1.392 . S
C899 H916 0.930 . S
C900 C898 1.386 . S
C900 C902 1.395 . S
C900 H917 0.930 . S
C901 C897 1.395 . S
C901 C902 1.379 . S
C901 H918 0.930 . S
C902 C900 1.395 . S
C902 C901 1.379 . S
C902 H919 0.930 . S
C903 O886 1.264 . S
C903 O887 1.254 . S
C904 Eu840 2.848 . S
C904 O884 1.257 . S
C904 O889 1.249 . S
C904 C897 1.492 . S
C905 H870 0.931 . S
C905 C883 1.420 . S
C905 C906 1.351 . S
C906 H868 0.930 1_565 S
C906 C874 1.423 1_565 S
C906 C905 1.351 . S
C907 O891 1.276 . S
C907 O894 1.235 . S
C908 C909 1.393 . S
C908 C912 1.395 . S
C908 C915 1.492 . S
C909 C908 1.393 . S
C909 C910 1.392 . S
C909 H920 0.930 . S
C910 C909 1.392 . S
C910 C911 1.386 . S
C911 C910 1.386 . S
C911 C913 1.395 . S
C911 H921 0.930 . S
C912 C908 1.395 . S
C912 C913 1.379 . S
C912 H922 0.930 . S
C913 C911 1.395 . S
C913 C912 1.379 . S
C913 H923 0.930 . S
C914 O892 1.264 . S
C914 O893 1.254 . S
C915 Eu851 2.848 . S
C915 O890 1.257 . S
C915 O895 1.249 . S
C915 C908 1.492 . S
H916 C899 0.930 . S
H917 C900 0.930 . S
H918 C901 0.930 . S
H919 C902 0.930 . S
H920 C909 0.930 . S
H921 C911 0.930 . S
H922 C912 0.930 . S
H923 C913 0.930 . S
Eu924 N955 2.657 . S
Eu924 N962 2.609 . S
Eu924 O968 2.558 . S
Eu924 O969 2.612 . S
Eu924 O971 2.339 . S
Eu924 O972 2.563 . S
Eu924 O973 2.419 . S
Eu924 O975 2.380 . S
Eu924 O976 2.432 . S
Eu924 C988 2.848 . S
C925 C928 1.429 . S
C925 C929 1.411 . S
C925 N932 1.377 . S
C926 C928 1.420 . S
C926 C930 1.423 . S
C926 C938 1.392 . S
C927 C929 1.420 . S
C927 C930 1.351 . S
C927 H950 0.931 . S
C928 C925 1.429 . S
C928 C926 1.420 . S
C928 N936 1.362 . S
C929 C925 1.411 . S
C929 C927 1.420 . S
C929 C934 1.395 . S
C930 C926 1.423 . S
C930 C927 1.351 . S
C930 H942 0.930 . S
C931 C933 1.400 . S
C931 C934 1.386 . S
C931 H943 0.930 . S
N932 C925 1.377 . S
N932 C933 1.321 . S
N932 Eu935 2.609 . S
C933 C931 1.400 . S
C933 N932 1.321 . S
C933 H940 0.930 . S
C934 C929 1.395 . S
C934 C931 1.386 . S
C934 H953 0.930 . S
Eu935 N932 2.609 . S
Eu935 N936 2.657 . S
Eu935 O969 2.380 . S
Eu935 O970 2.432 . S
Eu935 O974 2.558 . S
Eu935 O975 2.612 . S
Eu935 O977 2.339 . S
Eu935 O978 2.563 . S
Eu935 O979 2.419 . S
Eu935 C999 2.848 . S
N936 C928 1.362 . S
N936 Eu935 2.657 . S
N936 C937 1.334 . S
C937 N936 1.334 . S
C937 C939 1.413 . S
C937 H944 0.929 . S
C938 C926 1.392 . S
C938 C939 1.367 . S
C938 H946 0.930 . S
C939 C937 1.413 . S
C939 C938 1.367 . S
C939 H941 0.930 . S
H940 C933 0.930 . S
H941 C939 0.930 . S
H942 C930 0.930 . S
H943 C931 0.930 . S
H944 C937 0.929 . S
H945 C959 0.930 . S
H946 C938 0.930 . S
H947 C965 0.930 . S
H948 C956 0.929 . S
H949 C963 0.930 . S
H950 C927 0.931 . S
H951 C957 0.930 . S
H952 C990 0.930 . S
H953 C934 0.930 . S
H954 C989 0.931 . S
N955 Eu924 2.657 . S
N955 C956 1.334 . S
N955 C960 1.362 . S
C956 H948 0.929 . S
C956 N955 1.334 . S
C956 C959 1.413 . S
C957 H951 0.930 . S
C957 C958 1.392 . S
C957 C959 1.367 . S
C958 C957 1.392 . S
C958 C960 1.420 . S
C958 C990 1.423 . S
C959 H945 0.930 . S
C959 C956 1.413 . S
C959 C957 1.367 . S
C960 N955 1.362 . S
C960 C958 1.420 . S
C960 C964 1.429 . S
H961 C966 0.930 . S
N962 Eu924 2.609 . S
N962 C964 1.377 . S
N962 C965 1.321 . S
C963 H949 0.930 . S
C963 C965 1.400 . S
C963 C966 1.386 . S
C964 C960 1.429 . S
C964 N962 1.377 . S
C964 C967 1.411 . S
C965 H947 0.930 . S
C965 N962 1.321 . S
C965 C963 1.400 . S
C966 H961 0.930 . S
C966 C963 1.386 . S
C966 C967 1.395 . S
C967 C964 1.411 . S
C967 C966 1.395 . S
C967 C989 1.420 . S
O968 Eu924 2.558 . S
O968 C988 1.257 . S
O969 Eu924 2.612 . S
O969 Eu935 2.380 . S
O969 C980 1.276 . S
O970 Eu935 2.432 . S
O970 C987 1.264 . S
O971 Eu924 2.339 . S
O971 C987 1.254 . S
O972 Eu924 2.563 . S
O972 C980 1.235 . S
O973 Eu924 2.419 . S
O973 C988 1.249 . S
O974 Eu935 2.558 . S
O974 C999 1.257 . S
O975 Eu924 2.380 . S
O975 Eu935 2.612 . S
O975 C991 1.276 . S
O976 Eu924 2.432 . S
O976 C998 1.264 . S
O977 Eu935 2.339 . S
O977 C998 1.254 . S
O978 Eu935 2.563 . S
O978 C991 1.235 . S
O979 Eu935 2.419 . S
O979 C999 1.249 . S
C980 O969 1.276 . S
C980 O972 1.235 . S
C981 C983 1.393 . S
C981 C985 1.395 . S
C981 C988 1.492 . S
C982 C983 1.392 . S
C982 C984 1.386 . S
C983 C981 1.393 . S
C983 C982 1.392 . S
C983 H1000 0.930 . S
C984 C982 1.386 . S
C984 C986 1.395 . S
C984 H1001 0.930 . S
C985 C981 1.395 . S
C985 C986 1.379 . S
C985 H1002 0.930 . S
C986 C984 1.395 . S
C986 C985 1.379 . S
C986 H1003 0.930 . S
C987 O970 1.264 . S
C987 O971 1.254 . S
C988 Eu924 2.848 . S
C988 O968 1.257 . S
C988 O973 1.249 . S
C988 C981 1.492 . S
C989 H954 0.931 . S
C989 C967 1.420 . S
C989 C990 1.351 . S
C990 H952 0.930 . S
C990 C958 1.423 . S
C990 C989 1.351 . S
C991 O975 1.276 . S
C991 O978 1.235 . S
C992 C993 1.393 . S
C992 C996 1.407 . S
C992 C999 1.492 . S
C993 C992 1.393 . S
C993 C994 1.409 . S
C993 H1004 0.930 . S
C994 C993 1.409 . S
C994 C995 1.370 1_455 S
C995 C994 1.370 1_655 S
C995 C997 1.395 . S
C995 H1005 0.930 . S
C996 C992 1.407 . S
C996 C997 1.367 1_455 S
C996 H1006 0.930 1_455 S
C997 C995 1.395 . S
C997 C996 1.367 1_655 S
C997 H1007 0.930 . S
C998 O976 1.264 . S
C998 O977 1.254 . S
C999 Eu935 2.848 . S
C999 O974 1.257 . S
C999 O979 1.249 . S
C999 C992 1.492 . S
H1000 C983 0.930 . S
H1001 C984 0.930 . S
H1002 C985 0.930 . S
H1003 C986 0.930 . S
H1004 C993 0.930 . S
H1005 C995 0.930 . S
H1006 C996 0.930 1_655 S
H1007 C997 0.930 . S
C67 C987 1.947 . S
C819 C147 2.428 . S
C231 C735 2.134 . S
C315 C903 2.170 . S
C399 C907 2.312 . S
C487 C991 2.210 . S
C823 C567 2.301 . S
C651 C739 1.959 . S
C319 C403 1.921 . S
C63 C483 2.192 . S
C151 C571 2.343 . S
C655 C235 2.218 . S
C70 C746 2.908 . S
C142 C914 1.971 . S
C998 C226 2.057 . S
C310 C830 2.221 1_554 S
C394 C812 2.651 . S
C728 C490 3.127 1_554 S
C896 C562 2.548 . S
C980 C646 2.571 . S
C74 C322 2.907 . S
C58 C140 2.468 1_545 S
C154 C224 3.333 1_554 S
C308 C238 3.097 1_545 S
C478 C392 2.443 . S
C494 C574 2.657 . S
C560 C658 3.376 1_554 S
C406 C644 3.284 . S
C742 C326 2.821 . S
C476 C814 2.580 . S
C730 C578 2.187 1_455 S
C898 C662 2.083 . S
C410 C982 2.256 . S
C994 C158 2.984 . S
C242 C826 2.635 . S
C910 C56 3.054 1_655 S
