# Generated by pormake.
# Topology fce, (5)-cn, num edge types: 1
# Building blocks:
#     Node 0, Type 0, BuildingBlock: BEQFEK_clean_sbu_0, # of connection points: 5
#     Node 1, Type 0, BuildingBlock: BEQFEK_clean_sbu_0, # of connection points: 5
#     Node 2, Type 0, BuildingBlock: BEQFEK_clean_sbu_0, # of connection points: 5
#     Node 3, Type 0, BuildingBlock: BEQFEK_clean_sbu_0, # of connection points: 5
#     Node 4, Type 0, BuildingBlock: BEQFEK_clean_sbu_0, # of connection points: 5
#     Node 5, Type 0, BuildingBlock: BEQFEK_clean_sbu_0, # of connection points: 5
#     Node 6, Type 0, BuildingBlock: BEQFEK_clean_sbu_0, # of connection points: 5
#     Node 7, Type 0, BuildingBlock: BEQFEK_clean_sbu_0, # of connection points: 5
#     Node 8, Type 0, BuildingBlock: BEQFEK_clean_sbu_0, # of connection points: 5
#     Node 9, Type 0, BuildingBlock: BEQFEK_clean_sbu_0, # of connection points: 5
#     Node 10, Type 0, BuildingBlock: BEQFEK_clean_sbu_0, # of connection points: 5
#     Node 11, Type 0, BuildingBlock: BEQFEK_clean_sbu_0, # of connection points: 5
#     Node 12, Type 0, BuildingBlock: BEQFEK_clean_sbu_0, # of connection points: 5
#     Node 13, Type 0, BuildingBlock: BEQFEK_clean_sbu_0, # of connection points: 5
#     Node 14, Type 0, BuildingBlock: BEQFEK_clean_sbu_0, # of connection points: 5
#     Node 15, Type 0, BuildingBlock: BEQFEK_clean_sbu_0, # of connection points: 5
#     Node 16, Type 0, BuildingBlock: BEQFEK_clean_sbu_0, # of connection points: 5
#     Node 17, Type 0, BuildingBlock: BEQFEK_clean_sbu_0, # of connection points: 5
#     Node 18, Type 0, BuildingBlock: BEQFEK_clean_sbu_0, # of connection points: 5
#     Node 19, Type 0, BuildingBlock: BEQFEK_clean_sbu_0, # of connection points: 5
#     Node 20, Type 0, BuildingBlock: BEQFEK_clean_sbu_0, # of connection points: 5
#     Node 21, Type 0, BuildingBlock: BEQFEK_clean_sbu_0, # of connection points: 5
#     Node 22, Type 0, BuildingBlock: BEQFEK_clean_sbu_0, # of connection points: 5
#     Node 23, Type 0, BuildingBlock: BEQFEK_clean_sbu_0, # of connection points: 5
#     Edge 24, Type (0, 0), BuildingBlock: EZIPEK_clean_linker_0, # of connection points: 2
#     Edge 25, Type (0, 0), BuildingBlock: EZIPEK_clean_linker_0, # of connection points: 2
#     Edge 26, Type (0, 0), BuildingBlock: EZIPEK_clean_linker_0, # of connection points: 2
#     Edge 27, Type (0, 0), BuildingBlock: EZIPEK_clean_linker_0, # of connection points: 2
#     Edge 28, Type (0, 0), BuildingBlock: EZIPEK_clean_linker_0, # of connection points: 2
#     Edge 29, Type (0, 0), BuildingBlock: EZIPEK_clean_linker_0, # of connection points: 2
#     Edge 30, Type (0, 0), BuildingBlock: EZIPEK_clean_linker_0, # of connection points: 2
#     Edge 31, Type (0, 0), BuildingBlock: EZIPEK_clean_linker_0, # of connection points: 2
#     Edge 32, Type (0, 0), BuildingBlock: EZIPEK_clean_linker_0, # of connection points: 2
#     Edge 33, Type (0, 0), BuildingBlock: EZIPEK_clean_linker_0, # of connection points: 2
#     Edge 34, Type (0, 0), BuildingBlock: EZIPEK_clean_linker_0, # of connection points: 2
#     Edge 35, Type (0, 0), BuildingBlock: EZIPEK_clean_linker_0, # of connection points: 2
#     Edge 36, Type (0, 0), BuildingBlock: EZIPEK_clean_linker_0, # of connection points: 2
#     Edge 37, Type (0, 0), BuildingBlock: EZIPEK_clean_linker_0, # of connection points: 2
#     Edge 38, Type (0, 0), BuildingBlock: EZIPEK_clean_linker_0, # of connection points: 2
#     Edge 39, Type (0, 0), BuildingBlock: EZIPEK_clean_linker_0, # of connection points: 2
#     Edge 40, Type (0, 0), BuildingBlock: EZIPEK_clean_linker_0, # of connection points: 2
#     Edge 41, Type (0, 0), BuildingBlock: EZIPEK_clean_linker_0, # of connection points: 2
#     Edge 42, Type (0, 0), BuildingBlock: EZIPEK_clean_linker_0, # of connection points: 2
#     Edge 43, Type (0, 0), BuildingBlock: EZIPEK_clean_linker_0, # of connection points: 2
#     Edge 44, Type (0, 0), BuildingBlock: EZIPEK_clean_linker_0, # of connection points: 2
#     Edge 45, Type (0, 0), BuildingBlock: EZIPEK_clean_linker_0, # of connection points: 2
#     Edge 46, Type (0, 0), BuildingBlock: EZIPEK_clean_linker_0, # of connection points: 2
#     Edge 47, Type (0, 0), BuildingBlock: EZIPEK_clean_linker_0, # of connection points: 2
#     Edge 48, Type (0, 0), BuildingBlock: EZIPEK_clean_linker_0, # of connection points: 2
#     Edge 49, Type (0, 0), BuildingBlock: EZIPEK_clean_linker_0, # of connection points: 2
#     Edge 50, Type (0, 0), BuildingBlock: EZIPEK_clean_linker_0, # of connection points: 2
#     Edge 51, Type (0, 0), BuildingBlock: EZIPEK_clean_linker_0, # of connection points: 2
#     Edge 52, Type (0, 0), BuildingBlock: EZIPEK_clean_linker_0, # of connection points: 2
#     Edge 53, Type (0, 0), BuildingBlock: EZIPEK_clean_linker_0, # of connection points: 2
#     Edge 54, Type (0, 0), BuildingBlock: EZIPEK_clean_linker_0, # of connection points: 2
#     Edge 55, Type (0, 0), BuildingBlock: EZIPEK_clean_linker_0, # of connection points: 2
#     Edge 56, Type (0, 0), BuildingBlock: EZIPEK_clean_linker_0, # of connection points: 2
#     Edge 57, Type (0, 0), BuildingBlock: EZIPEK_clean_linker_0, # of connection points: 2
#     Edge 58, Type (0, 0), BuildingBlock: EZIPEK_clean_linker_0, # of connection points: 2
#     Edge 59, Type (0, 0), BuildingBlock: EZIPEK_clean_linker_0, # of connection points: 2
#     Edge 60, Type (0, 0), BuildingBlock: EZIPEK_clean_linker_0, # of connection points: 2
#     Edge 61, Type (0, 0), BuildingBlock: EZIPEK_clean_linker_0, # of connection points: 2
#     Edge 62, Type (0, 0), BuildingBlock: EZIPEK_clean_linker_0, # of connection points: 2
#     Edge 63, Type (0, 0), BuildingBlock: EZIPEK_clean_linker_0, # of connection points: 2
#     Edge 64, Type (0, 0), BuildingBlock: EZIPEK_clean_linker_0, # of connection points: 2
#     Edge 65, Type (0, 0), BuildingBlock: EZIPEK_clean_linker_0, # of connection points: 2
#     Edge 66, Type (0, 0), BuildingBlock: EZIPEK_clean_linker_0, # of connection points: 2
#     Edge 67, Type (0, 0), BuildingBlock: EZIPEK_clean_linker_0, # of connection points: 2
#     Edge 68, Type (0, 0), BuildingBlock: EZIPEK_clean_linker_0, # of connection points: 2
#     Edge 69, Type (0, 0), BuildingBlock: EZIPEK_clean_linker_0, # of connection points: 2
#     Edge 70, Type (0, 0), BuildingBlock: EZIPEK_clean_linker_0, # of connection points: 2
#     Edge 71, Type (0, 0), BuildingBlock: EZIPEK_clean_linker_0, # of connection points: 2
#     Edge 72, Type (0, 0), BuildingBlock: EZIPEK_clean_linker_0, # of connection points: 2
#     Edge 73, Type (0, 0), BuildingBlock: EZIPEK_clean_linker_0, # of connection points: 2
#     Edge 74, Type (0, 0), BuildingBlock: EZIPEK_clean_linker_0, # of connection points: 2
#     Edge 75, Type (0, 0), BuildingBlock: EZIPEK_clean_linker_0, # of connection points: 2
#     Edge 76, Type (0, 0), BuildingBlock: EZIPEK_clean_linker_0, # of connection points: 2
#     Edge 77, Type (0, 0), BuildingBlock: EZIPEK_clean_linker_0, # of connection points: 2
#     Edge 78, Type (0, 0), BuildingBlock: EZIPEK_clean_linker_0, # of connection points: 2
#     Edge 79, Type (0, 0), BuildingBlock: EZIPEK_clean_linker_0, # of connection points: 2
#     Edge 80, Type (0, 0), BuildingBlock: EZIPEK_clean_linker_0, # of connection points: 2
#     Edge 81, Type (0, 0), BuildingBlock: EZIPEK_clean_linker_0, # of connection points: 2
#     Edge 82, Type (0, 0), BuildingBlock: EZIPEK_clean_linker_0, # of connection points: 2
#     Edge 83, Type (0, 0), BuildingBlock: EZIPEK_clean_linker_0, # of connection points: 2
# Relax obj value: 0.939
# Max RMSD: 0.237
# Mean RMSD: 0.237
data_MOF--net-fce--node1-BEQFEK_clean_sbu_0--edge1-EZIPEK_clean_linker_0
_symmetry_space_group_name_H-M    P1
_symmetry_Int_Tables_number       1
_symmetry_cell_setting            triclinic
loop_
_symmetry_equiv_pos_as_xyz
'x, y, z'
_cell_length_a     36.626588
_cell_length_b     36.627715
_cell_length_c     36.656901
_cell_angle_alpha  89.946513
_cell_angle_beta   90.06064
_cell_angle_gamma 89.994014
loop_
_atom_site_label
_atom_site_type_symbol
_atom_site_fract_x
_atom_site_fract_y
_atom_site_fract_z
_atom_type_partial_charge
Co0 Co 0.11223 0.41842 0.22042 0.0
Co1 Co 0.14961 0.38806 0.28951 0.0
C2 C 0.12936 0.46254 0.28901 0.0
O3 O 0.12353 0.45958 0.25495 0.0
O4 O 0.13221 0.43452 0.3091 0.0
C5 C 0.07156 0.47159 0.18241 0.0
O6 O 0.09224 0.49466 0.20028 0.0
C7 C 0.16282 0.36964 0.36612 0.0
C8 C 0.17956 0.31194 0.36201 0.0
C9 C 0.16759 0.33819 0.38643 0.0
N10 N 0.16923 0.36187 0.3307 0.0
N11 N 0.18064 0.32767 0.32873 0.0
C12 C 0.15035 0.40582 0.3805 0.0
H13 H 0.16761 0.42787 0.36903 0.0
H14 H 0.12161 0.41075 0.37235 0.0
H15 H 0.15206 0.40671 0.41072 0.0
C16 C 0.05746 0.35956 0.23825 0.0
N17 N 0.08957 0.37742 0.2428 0.0
N18 N 0.10758 0.3623 0.27 0.0
C19 C 0.08708 0.33459 0.28338 0.0
C20 C 0.05425 0.33282 0.26471 0.0
C21 C 0.02965 0.36687 0.20923 0.0
H22 H 0.03927 0.38712 0.18915 0.0
H23 H 0.00379 0.37603 0.22197 0.0
H24 H 0.02337 0.34101 0.19476 0.0
O25 O 0.15901 0.4021 0.2023 0.0
O26 O 0.18796 0.40796 0.25378 0.0
H27 H 0.11987 0.29259 0.30653 0.0
H28 H 0.07399 0.29364 0.32405 0.0
C29 C 0.09718 0.31081 0.31481 0.0
H30 H 0.10643 0.32794 0.33739 0.0
H31 H 0.18604 0.31409 0.3043 0.0
O32 O 0.08028 0.43803 0.1818 0.0
C33 C 0.18608 0.41494 0.21961 0.0
Co34 Co 0.58955 0.13093 0.2312 0.0
Co35 Co 0.60289 0.16675 0.3059 0.0
C36 C 0.54278 0.11701 0.2988 0.0
O37 O 0.54846 0.11783 0.26458 0.0
O38 O 0.56643 0.13014 0.32059 0.0
C39 C 0.5479 0.09848 0.17935 0.0
O40 O 0.52572 0.12369 0.19187 0.0
C41 C 0.60725 0.18115 0.38295 0.0
C42 C 0.66256 0.20427 0.38711 0.0
C43 C 0.63567 0.18658 0.40694 0.0
N44 N 0.61819 0.19127 0.34944 0.0
N45 N 0.65033 0.20738 0.35254 0.0
C46 C 0.57003 0.16737 0.3924 0.0
H47 H 0.54994 0.17541 0.37119 0.0
H48 H 0.5706 0.13739 0.39524 0.0
H49 H 0.56144 0.17863 0.41917 0.0
C50 C 0.65913 0.09342 0.25069 0.0
N51 N 0.63552 0.12174 0.25361 0.0
N52 N 0.64309 0.14021 0.28348 0.0
C53 C 0.67256 0.12448 0.29946 0.0
C54 C 0.68217 0.09316 0.28067 0.0
C55 C 0.65616 0.06301 0.22375 0.0
H56 H 0.64159 0.0719 0.19885 0.0
H57 H 0.64187 0.03964 0.23664 0.0
H58 H 0.68388 0.05337 0.21621 0.0
O59 O 0.58086 0.18239 0.21899 0.0
O60 O 0.57146 0.19961 0.27543 0.0
H61 H 0.70196 0.16205 0.33254 0.0
H62 H 0.70953 0.11535 0.34486 0.0
C63 C 0.68859 0.13508 0.33532 0.0
H64 H 0.66684 0.13664 0.35567 0.0
H65 H 0.66578 0.21648 0.33042 0.0
O66 O 0.5815 0.10072 0.18739 0.0
C67 C 0.56475 0.20328 0.2416 0.0
Co68 Co 0.87567 0.5624 0.22709 0.0
Co69 Co 0.83545 0.5959 0.29382 0.0
C70 C 0.84664 0.51796 0.29121 0.0
O71 O 0.85779 0.52136 0.25849 0.0
O72 O 0.84343 0.54559 0.31193 0.0
C73 C 0.93003 0.52232 0.20383 0.0
O74 O 0.92974 0.52136 0.23966 0.0
C75 C 0.82812 0.61819 0.36986 0.0
C76 C 0.80759 0.67458 0.3645 0.0
C77 C 0.82276 0.65022 0.38925 0.0
N78 N 0.81863 0.62398 0.33476 0.0
N79 N 0.80526 0.6574 0.33205 0.0
C80 C 0.84392 0.58328 0.38413 0.0
H81 H 0.82471 0.56057 0.37847 0.0
H82 H 0.86997 0.57739 0.36988 0.0
H83 H 0.84893 0.58472 0.41397 0.0
C84 C 0.93485 0.61369 0.25101 0.0
N85 N 0.90124 0.59852 0.25333 0.0
N86 N 0.88168 0.61667 0.27737 0.0
C87 C 0.90228 0.64457 0.29019 0.0
C88 C 0.93675 0.64288 0.27486 0.0
C89 C 0.96479 0.60125 0.22628 0.0
H90 H 0.95358 0.59569 0.19878 0.0
H91 H 0.97709 0.57586 0.23729 0.0
H92 H 0.98657 0.62222 0.22411 0.0
O93 O 0.83226 0.587 0.20934 0.0
O94 O 0.7962 0.58421 0.2557 0.0
H95 H 0.86451 0.68758 0.30058 0.0
H96 H 0.90989 0.69631 0.31774 0.0
C97 C 0.88876 0.67498 0.31362 0.0
H98 H 0.88067 0.6643 0.34028 0.0
H99 H 0.79721 0.66945 0.30752 0.0
O100 O 0.90618 0.54158 0.18793 0.0
C101 C 0.80292 0.57468 0.22285 0.0
Co102 Co 0.44463 0.92083 0.22782 0.0
Co103 Co 0.42187 0.88352 0.30027 0.0
C104 C 0.4794 0.93821 0.30103 0.0
O105 O 0.47813 0.93976 0.26637 0.0
O106 O 0.45517 0.92072 0.31845 0.0
C107 C 0.46229 0.98193 0.18787 0.0
O108 O 0.45611 0.99591 0.22025 0.0
C109 C 0.39491 0.8781 0.37425 0.0
C110 C 0.3806 0.81982 0.37982 0.0
C111 C 0.38076 0.8529 0.39815 0.0
N112 N 0.40283 0.8611 0.3428 0.0
N113 N 0.3948 0.82608 0.34644 0.0
C114 C 0.3987 0.91821 0.38107 0.0
H115 H 0.40086 0.93355 0.3552 0.0
H116 H 0.375 0.92858 0.39683 0.0
H117 H 0.42345 0.92296 0.39779 0.0
C118 C 0.36899 0.94994 0.23485 0.0
N119 N 0.39471 0.92442 0.24212 0.0
N120 N 0.38438 0.90544 0.27082 0.0
C121 C 0.35135 0.91772 0.28158 0.0
C122 C 0.34177 0.94808 0.26106 0.0
C123 C 0.37305 0.98022 0.20783 0.0
H124 H 0.38834 0.97067 0.18362 0.0
H125 H 0.38744 0.00346 0.22079 0.0
H126 H 0.34577 0.99014 0.19905 0.0
O127 O 0.46265 0.87056 0.21992 0.0
O128 O 0.45617 0.8492 0.27617 0.0
H129 H 0.33739 0.87547 0.31966 0.0
H130 H 0.30114 0.90734 0.30959 0.0
C131 C 0.33096 0.90449 0.31429 0.0
H132 H 0.33775 0.9215 0.33827 0.0
H133 H 0.39824 0.80668 0.32591 0.0
O134 O 0.45635 0.94825 0.18288 0.0
C135 C 0.47041 0.84736 0.24461 0.0
Co136 Co 0.11641 0.57552 0.77872 0.0
Co137 Co 0.15173 0.60663 0.70886 0.0
C138 C 0.12898 0.53363 0.70687 0.0
O139 O 0.12398 0.5362 0.74113 0.0
O140 O 0.13402 0.56172 0.68726 0.0
C141 C 0.07739 0.52061 0.81562 0.0
O142 O 0.09866 0.49854 0.79721 0.0
C143 C 0.17047 0.6274 0.63369 0.0
C144 C 0.17856 0.68675 0.63973 0.0
C145 C 0.17304 0.6596 0.61405 0.0
N146 N 0.17209 0.63532 0.66962 0.0
N147 N 0.17837 0.67073 0.67288 0.0
C148 C 0.16431 0.59015 0.61808 0.0
H149 H 0.18162 0.57008 0.6326 0.0
H150 H 0.13534 0.58214 0.62154 0.0
H151 H 0.17092 0.58957 0.58853 0.0
C152 C 0.06181 0.63526 0.76461 0.0
N153 N 0.09404 0.61797 0.75886 0.0
N154 N 0.10944 0.63145 0.72939 0.0
C155 C 0.0866 0.65679 0.71504 0.0
C156 C 0.05542 0.65956 0.73632 0.0
C157 C 0.03619 0.62835 0.79561 0.0
H158 H 0.0477 0.60895 0.81561 0.0
H159 H 0.00968 0.6183 0.78501 0.0
H160 H 0.03044 0.65458 0.80961 0.0
O161 O 0.16473 0.58728 0.79675 0.0
O162 O 0.18988 0.58334 0.743 0.0
H163 H 0.11036 0.69895 0.68299 0.0
H164 H 0.06598 0.68521 0.66735 0.0
C165 C 0.092 0.6752 0.67921 0.0
H166 H 0.10478 0.6558 0.66046 0.0
H167 H 0.17911 0.68451 0.69777 0.0
O168 O 0.08522 0.55436 0.81706 0.0
C169 C 0.19063 0.57554 0.77705 0.0
Co170 Co 0.43143 0.1177 0.77982 0.0
Co171 Co 0.39522 0.16168 0.71609 0.0
C172 C 0.47407 0.14699 0.71576 0.0
O173 O 0.4721 0.13379 0.74775 0.0
O174 O 0.44546 0.15387 0.69744 0.0
C175 C 0.46976 0.06076 0.79945 0.0
O176 O 0.46924 0.06285 0.7637 0.0
C177 C 0.3726 0.16012 0.64077 0.0
C178 C 0.32127 0.19157 0.63983 0.0
C179 C 0.34312 0.16878 0.61891 0.0
N180 N 0.368 0.17583 0.67367 0.0
N181 N 0.33746 0.19509 0.67277 0.0
C182 C 0.40371 0.13545 0.63105 0.0
H183 H 0.42913 0.15183 0.6293 0.0
H184 H 0.40731 0.11452 0.65263 0.0
H185 H 0.39937 0.12183 0.60439 0.0
C186 C 0.37716 0.06133 0.75459 0.0
N187 N 0.39336 0.09453 0.75403 0.0
N188 N 0.37384 0.11668 0.73355 0.0
C189 C 0.34375 0.09868 0.72217 0.0
C190 C 0.34559 0.06277 0.73383 0.0
C191 C 0.39063 0.02866 0.77506 0.0
H192 H 0.39794 0.03666 0.80323 0.0
H193 H 0.41511 0.01743 0.7613 0.0
H194 H 0.36952 0.00694 0.77616 0.0
O195 O 0.40882 0.16236 0.79846 0.0
O196 O 0.40663 0.20085 0.75384 0.0
H197 H 0.30628 0.14324 0.71741 0.0
H198 H 0.28659 0.09886 0.7079 0.0
C199 C 0.31126 0.1162 0.70477 0.0
H200 H 0.31609 0.12036 0.67554 0.0
H201 H 0.32668 0.20898 0.69515 0.0
O202 O 0.45216 0.08455 0.81727 0.0
C203 C 0.41978 0.19239 0.78508 0.0
Co204 Co 0.88068 0.43153 0.76607 0.0
Co205 Co 0.83798 0.39836 0.70033 0.0
C206 C 0.85841 0.47591 0.69874 0.0
O207 O 0.8682 0.47266 0.73197 0.0
O208 O 0.84956 0.44766 0.68041 0.0
C209 C 0.93701 0.46959 0.7918 0.0
O210 O 0.93836 0.4719 0.75605 0.0
C211 C 0.82158 0.37503 0.6259 0.0
C212 C 0.8055 0.31763 0.63387 0.0
C213 C 0.81595 0.34267 0.6075 0.0
N214 N 0.81727 0.36914 0.66187 0.0
N215 N 0.80616 0.33505 0.6663 0.0
C216 C 0.83303 0.4104 0.60945 0.0
H217 H 0.81469 0.43214 0.61969 0.0
H218 H 0.86145 0.41641 0.61792 0.0
H219 H 0.83162 0.40966 0.57921 0.0
C220 C 0.9361 0.37574 0.74511 0.0
N221 N 0.90341 0.39257 0.74181 0.0
N222 N 0.88334 0.37525 0.71749 0.0
C223 C 0.90303 0.34643 0.70516 0.0
C224 C 0.9371 0.3463 0.72161 0.0
C225 C 0.96636 0.38756 0.76976 0.0
H226 H 0.95519 0.39358 0.79712 0.0
H227 H 0.97931 0.41253 0.75861 0.0
H228 H 0.98757 0.36604 0.77224 0.0
O229 O 0.8353 0.41112 0.78386 0.0
O230 O 0.79987 0.41442 0.73717 0.0
H231 H 0.86781 0.30216 0.69197 0.0
H232 H 0.91198 0.29934 0.67059 0.0
C233 C 0.88985 0.31827 0.67893 0.0
H234 H 0.87872 0.33166 0.65469 0.0
H235 H 0.80201 0.32281 0.69167 0.0
O236 O 0.91179 0.45076 0.806 0.0
C237 C 0.80673 0.42441 0.76975 0.0
Co238 Co 0.56924 0.87334 0.77458 0.0
Co239 Co 0.60043 0.83258 0.70818 0.0
C240 C 0.52573 0.85336 0.70585 0.0
O241 O 0.52872 0.86151 0.73951 0.0
O242 O 0.55391 0.84852 0.68626 0.0
C243 C 0.5167 0.91627 0.81195 0.0
O244 O 0.49296 0.89621 0.79423 0.0
C245 C 0.63004 0.82561 0.6362 0.0
C246 C 0.67219 0.78281 0.64123 0.0
C247 C 0.65842 0.80916 0.61775 0.0
N248 N 0.62768 0.81078 0.66961 0.0
N249 N 0.65241 0.78458 0.67228 0.0
C250 C 0.60772 0.8575 0.62348 0.0
H251 H 0.60375 0.87722 0.64606 0.0
H252 H 0.62064 0.87159 0.59999 0.0
H253 H 0.58044 0.84752 0.61489 0.0
C254 C 0.62944 0.92634 0.75539 0.0
N255 N 0.61096 0.89444 0.75201 0.0
N256 N 0.62634 0.87485 0.72616 0.0
C257 C 0.65504 0.89386 0.71272 0.0
C258 C 0.65712 0.92743 0.72977 0.0
C259 C 0.62204 0.95578 0.78262 0.0
H260 H 0.6015 0.94745 0.80295 0.0
H261 H 0.61319 0.9809 0.7682 0.0
H262 H 0.64779 0.96274 0.79701 0.0
O263 O 0.58377 0.82681 0.79535 0.0
O264 O 0.5803 0.79599 0.74475 0.0
H265 H 0.70705 0.89518 0.68576 0.0
H266 H 0.66867 0.88892 0.65632 0.0
C267 C 0.68013 0.88144 0.68326 0.0
H268 H 0.68425 0.85162 0.68526 0.0
H269 H 0.65731 0.76954 0.69597 0.0
O270 O 0.55014 0.90715 0.81174 0.0
C271 C 0.57173 0.79911 0.77838 0.0
Co272 Co 0.23536 0.12319 0.42443 0.0
Co273 Co 0.30788 0.1567 0.39939 0.0
C274 C 0.30319 0.12978 0.47138 0.0
O275 O 0.26878 0.12774 0.46743 0.0
O276 O 0.32406 0.13158 0.44393 0.0
C277 C 0.18835 0.08513 0.47232 0.0
O278 O 0.20524 0.10417 0.49748 0.0
C279 C 0.38156 0.14853 0.37489 0.0
C280 C 0.39437 0.19869 0.34427 0.0
C281 C 0.40802 0.16448 0.35341 0.0
N282 N 0.35311 0.17153 0.37785 0.0
N283 N 0.3611 0.20184 0.35994 0.0
C284 C 0.38233 0.11054 0.39009 0.0
H285 H 0.35437 0.09936 0.39184 0.0
H286 H 0.39945 0.09222 0.37313 0.0
H287 H 0.39403 0.1113 0.41801 0.0
C288 C 0.25069 0.07336 0.36092 0.0
N289 N 0.25685 0.1031 0.38194 0.0
N290 N 0.28413 0.12181 0.36804 0.0
C291 C 0.29538 0.10486 0.3373 0.0
C292 C 0.27562 0.07294 0.33254 0.0
C293 C 0.22407 0.0435 0.36903 0.0
H294 H 0.20207 0.0529 0.3873 0.0
H295 H 0.23879 0.02028 0.38174 0.0
H296 H 0.21188 0.0333 0.34324 0.0
O297 O 0.22231 0.17328 0.4129 0.0
O298 O 0.27626 0.19668 0.42269 0.0
H299 H 0.32947 0.14718 0.31504 0.0
H300 H 0.31989 0.10978 0.28445 0.0
C301 C 0.32588 0.11723 0.31319 0.0
H302 H 0.35146 0.10301 0.32085 0.0
H303 H 0.34335 0.22396 0.35712 0.0
O304 O 0.19309 0.09322 0.43899 0.0
C305 C 0.24171 0.19791 0.42779 0.0
Co306 Co 0.87429 0.22576 0.42327 0.0
Co307 Co 0.82609 0.28461 0.38634 0.0
C308 C 0.84614 0.29374 0.46138 0.0
O309 O 0.85879 0.26138 0.46156 0.0
O310 O 0.83764 0.30987 0.43194 0.0
C311 C 0.93326 0.21079 0.46229 0.0
O312 O 0.93214 0.24645 0.45866 0.0
C313 C 0.81388 0.35607 0.35608 0.0
C314 C 0.77036 0.349 0.31506 0.0
C315 C 0.79443 0.3744 0.32952 0.0
N316 N 0.80228 0.32129 0.35747 0.0
N317 N 0.77583 0.31726 0.33319 0.0
C318 C 0.84471 0.37105 0.37845 0.0
H319 H 0.83407 0.37904 0.40562 0.0
H320 H 0.86606 0.34997 0.38247 0.0
H321 H 0.85705 0.39554 0.36559 0.0
C322 C 0.92727 0.24856 0.36523 0.0
N323 N 0.89429 0.24874 0.38179 0.0
N324 N 0.87183 0.27 0.3634 0.0
C325 C 0.89007 0.28343 0.33422 0.0
C326 C 0.92592 0.2712 0.335 0.0
C327 C 0.96015 0.22824 0.37842 0.0
H328 H 0.95199 0.20105 0.38878 0.0
H329 H 0.97337 0.24385 0.40071 0.0
H330 H 0.98041 0.22475 0.3562 0.0
O331 O 0.83072 0.20107 0.40669 0.0
O332 O 0.79247 0.24586 0.40877 0.0
H333 H 0.88948 0.30713 0.28063 0.0
H334 H 0.87914 0.33778 0.31719 0.0
C335 C 0.87492 0.30963 0.30707 0.0
H336 H 0.84546 0.30441 0.30278 0.0
H337 H 0.76257 0.29259 0.32794 0.0
O338 O 0.90885 0.19198 0.44674 0.0
C339 C 0.80154 0.214 0.41978 0.0
Co340 Co 0.77354 0.89983 0.44107 0.0
Co341 Co 0.70191 0.87033 0.40812 0.0
C342 C 0.70774 0.87945 0.48558 0.0
O343 O 0.74199 0.88468 0.4826 0.0
O344 O 0.6867 0.8834 0.45828 0.0
C345 C 0.82427 0.93297 0.49001 0.0
O346 O 0.80186 0.91977 0.51464 0.0
C347 C 0.63008 0.88717 0.38346 0.0
C348 C 0.617 0.84579 0.34181 0.0
C349 C 0.60459 0.87811 0.35727 0.0
N350 N 0.65691 0.86216 0.38314 0.0
N351 N 0.64869 0.837 0.35862 0.0
C352 C 0.63056 0.92122 0.40609 0.0
H353 H 0.65883 0.92884 0.41346 0.0
H354 H 0.61728 0.94422 0.39145 0.0
H355 H 0.61519 0.91619 0.43166 0.0
C356 C 0.75588 0.96221 0.39133 0.0
N357 N 0.75025 0.92856 0.4054 0.0
N358 N 0.72557 0.91153 0.38581 0.0
C359 C 0.71609 0.93329 0.35759 0.0
C360 C 0.73428 0.96631 0.36044 0.0
C361 C 0.77997 0.99052 0.40807 0.0
H362 H 0.80792 0.98727 0.39697 0.0
H363 H 0.78095 0.98698 0.43811 0.0
H364 H 0.77026 0.01841 0.40122 0.0
O365 O 0.78488 0.85376 0.41693 0.0
O366 O 0.7329 0.8256 0.4199 0.0
H367 H 0.68661 0.89388 0.32574 0.0
H368 H 0.6981 0.93559 0.30201 0.0
C369 C 0.68923 0.92386 0.3285 0.0
H370 H 0.66254 0.93637 0.33522 0.0
H371 H 0.6656 0.81508 0.35192 0.0
O372 O 0.81797 0.92569 0.45678 0.0
C373 C 0.76693 0.82606 0.42764 0.0
Co374 Co 0.1161 0.7672 0.42266 0.0
Co375 Co 0.16108 0.70438 0.38793 0.0
C376 C 0.14431 0.70321 0.46566 0.0
O377 O 0.13222 0.73566 0.464 0.0
O378 O 0.15172 0.68513 0.43713 0.0
C379 C 0.06011 0.78692 0.46153 0.0
O380 O 0.06099 0.75109 0.46033 0.0
C381 C 0.16314 0.62866 0.36575 0.0
C382 C 0.19222 0.63002 0.31314 0.0
C383 C 0.17103 0.60781 0.33536 0.0
N384 N 0.17738 0.66232 0.36113 0.0
N385 N 0.19544 0.66269 0.32992 0.0
C386 C 0.14032 0.61714 0.39764 0.0
H387 H 0.15719 0.61803 0.42277 0.0
H388 H 0.11703 0.63622 0.40087 0.0
H389 H 0.12976 0.58894 0.39437 0.0
C390 C 0.05981 0.73954 0.36907 0.0
N391 N 0.09324 0.74074 0.38478 0.0
N392 N 0.11583 0.72042 0.36569 0.0
C393 C 0.09775 0.70716 0.33642 0.0
C394 C 0.06146 0.71755 0.33836 0.0
C395 C 0.02652 0.75882 0.38268 0.0
H396 H 0.03363 0.78703 0.39084 0.0
H397 H 0.01546 0.74405 0.40667 0.0
H398 H 0.00499 0.75977 0.36136 0.0
O399 O 0.15971 0.78749 0.40045 0.0
O400 O 0.19837 0.74301 0.4031 0.0
H401 H 0.14194 0.70402 0.29842 0.0
H402 H 0.09772 0.69272 0.27938 0.0
C403 C 0.1155 0.69031 0.30382 0.0
H404 H 0.12079 0.66124 0.30859 0.0
H405 H 0.20783 0.68585 0.31889 0.0
O406 O 0.08378 0.80458 0.44366 0.0
C407 C 0.18981 0.77551 0.41253 0.0
Co408 Co 0.23819 0.90831 0.564 0.0
Co409 Co 0.28877 0.85045 0.60151 0.0
C410 C 0.30765 0.89092 0.53146 0.0
O411 O 0.28146 0.91357 0.53324 0.0
O412 O 0.31256 0.86665 0.55577 0.0
C413 C 0.17603 0.94351 0.52834 0.0
O414 O 0.16302 0.91118 0.52003 0.0
C415 C 0.3606 0.83952 0.63292 0.0
C416 C 0.35579 0.78934 0.66584 0.0
C417 C 0.37972 0.81715 0.65648 0.0
N418 N 0.32672 0.82608 0.62851 0.0
N419 N 0.32405 0.79581 0.64807 0.0
C420 C 0.37429 0.87377 0.6154 0.0
H421 H 0.35124 0.89203 0.60836 0.0
H422 H 0.39363 0.88833 0.63358 0.0
H423 H 0.38909 0.86642 0.59006 0.0
C424 C 0.24955 0.94693 0.63164 0.0
N425 N 0.25012 0.91547 0.61269 0.0
N426 N 0.27019 0.89119 0.62984 0.0
C427 C 0.28172 0.90647 0.66145 0.0
C428 C 0.27026 0.94263 0.66295 0.0
C429 C 0.23627 0.9824 0.61622 0.0
H430 H 0.25062 0.98807 0.59016 0.0
H431 H 0.24084 0.00538 0.63541 0.0
H432 H 0.20665 0.98026 0.61029 0.0
O433 O 0.21966 0.85975 0.55115 0.0
O434 O 0.25136 0.81652 0.57935 0.0
H435 H 0.33623 0.89723 0.6787 0.0
H436 H 0.3051 0.85957 0.68763 0.0
C437 C 0.30827 0.88962 0.68723 0.0
H438 H 0.30403 0.90049 0.71518 0.0
H439 H 0.30036 0.78011 0.65004 0.0
O440 O 0.20481 0.9463 0.54737 0.0
C441 C 0.22703 0.82613 0.55615 0.0
Co442 Co 0.11581 0.22643 0.57565 0.0
Co443 Co 0.1579 0.29285 0.60812 0.0
C444 C 0.13344 0.29509 0.53379 0.0
O445 O 0.12519 0.26155 0.53549 0.0
O446 O 0.13989 0.31342 0.56229 0.0
C447 C 0.07184 0.19115 0.52349 0.0
O448 O 0.09271 0.2089 0.50059 0.0
C449 C 0.16476 0.36946 0.62886 0.0
C450 C 0.191 0.36598 0.68289 0.0
C451 C 0.17206 0.38942 0.65995 0.0
N452 N 0.17654 0.33486 0.63392 0.0
N453 N 0.19339 0.3334 0.66583 0.0
C454 C 0.145 0.38329 0.59581 0.0
H455 H 0.16128 0.37722 0.57105 0.0
H456 H 0.11803 0.36969 0.59357 0.0
H457 H 0.14058 0.41324 0.59722 0.0
C458 C 0.06427 0.246 0.63659 0.0
N459 N 0.09637 0.24839 0.61838 0.0
N460 N 0.1173 0.27244 0.63492 0.0
C461 C 0.09924 0.28506 0.66452 0.0
C462 C 0.06453 0.27025 0.66549 0.0
C463 C 0.03248 0.22235 0.62672 0.0
H464 H 0.03992 0.20111 0.6068 0.0
H465 H 0.01008 0.23961 0.61588 0.0
H466 H 0.02178 0.20899 0.65172 0.0
O467 O 0.1641 0.2065 0.58671 0.0
O468 O 0.19511 0.25759 0.58612 0.0
H469 H 0.1411 0.29713 0.70311 0.0
H470 H 0.09609 0.31185 0.71691 0.0
C471 C 0.11499 0.30899 0.69341 0.0
H472 H 0.1205 0.33611 0.68226 0.0
H473 H 0.20386 0.30949 0.67728 0.0
O474 O 0.08064 0.19003 0.55698 0.0
C475 C 0.1918 0.22433 0.57581 0.0
Co476 Co 0.76478 0.1061 0.57178 0.0
Co477 Co 0.70678 0.15078 0.61231 0.0
C478 C 0.69245 0.12781 0.53991 0.0
O479 O 0.72582 0.11873 0.53543 0.0
O480 O 0.67884 0.13114 0.57147 0.0
C481 C 0.81695 0.07017 0.52299 0.0
O482 O 0.80518 0.0922 0.49731 0.0
C483 C 0.63636 0.16528 0.64529 0.0
C484 C 0.64686 0.2095 0.68477 0.0
C485 C 0.61993 0.18628 0.67183 0.0
N486 N 0.67156 0.17527 0.64237 0.0
N487 N 0.67762 0.20208 0.66579 0.0
C488 C 0.61881 0.13525 0.62374 0.0
H489 H 0.61387 0.14507 0.59552 0.0
H490 H 0.63718 0.11126 0.62246 0.0
H491 H 0.59222 0.12678 0.63543 0.0
C492 C 0.74619 0.05344 0.63009 0.0
N493 N 0.74636 0.08743 0.61594 0.0
N494 N 0.72685 0.10915 0.63666 0.0
C495 C 0.71462 0.08969 0.66551 0.0
C496 C 0.72576 0.05358 0.66196 0.0
C497 C 0.76082 0.02062 0.61071 0.0
H498 H 0.79103 0.02084 0.61255 0.0
H499 H 0.75325 0.02181 0.58141 0.0
H500 H 0.75054 0.99486 0.62292 0.0
O501 O 0.78999 0.15218 0.58045 0.0
O502 O 0.74043 0.18502 0.58399 0.0
H503 H 0.69219 0.13292 0.69784 0.0
H504 H 0.69121 0.08828 0.71914 0.0
C505 C 0.68802 0.10336 0.69304 0.0
H506 H 0.65996 0.09847 0.68292 0.0
H507 H 0.70298 0.21448 0.66967 0.0
O508 O 0.80147 0.07129 0.55391 0.0
C509 C 0.7729 0.18116 0.57198 0.0
Co510 Co 0.88077 0.76743 0.57851 0.0
Co511 Co 0.83045 0.70672 0.60663 0.0
C512 C 0.85949 0.70064 0.53427 0.0
O513 O 0.87141 0.73314 0.5368 0.0
O514 O 0.84742 0.68383 0.56191 0.0
C515 C 0.92484 0.80455 0.52852 0.0
O516 O 0.90057 0.79251 0.50513 0.0
C517 C 0.8187 0.63401 0.63081 0.0
C518 C 0.76892 0.63511 0.66456 0.0
C519 C 0.79727 0.6127 0.6531 0.0
N520 N 0.80453 0.66776 0.62937 0.0
N521 N 0.77428 0.66824 0.64906 0.0
C522 C 0.85423 0.62297 0.61365 0.0
H523 H 0.87319 0.64645 0.61213 0.0
H524 H 0.86766 0.6006 0.62908 0.0
H525 H 0.84884 0.61307 0.58556 0.0
C526 C 0.92669 0.74376 0.64225 0.0
N527 N 0.89572 0.74363 0.62205 0.0
N528 N 0.87253 0.72015 0.63622 0.0
C529 C 0.88834 0.70486 0.66607 0.0
C530 C 0.9235 0.71852 0.67016 0.0
C531 C 0.96022 0.76573 0.63448 0.0
H532 H 0.95439 0.78895 0.6162 0.0
H533 H 0.98123 0.74775 0.62222 0.0
H534 H 0.97177 0.77633 0.66039 0.0
O535 O 0.83535 0.79347 0.58705 0.0
O536 O 0.79928 0.74634 0.58225 0.0
H537 H 0.84131 0.67931 0.69007 0.0
H538 H 0.88168 0.67947 0.71842 0.0
C539 C 0.8714 0.67655 0.69006 0.0
H540 H 0.87934 0.64898 0.68055 0.0
H541 H 0.75828 0.69143 0.65326 0.0
O542 O 0.9188 0.80138 0.56242 0.0
C543 C 0.80602 0.7798 0.57476 0.0
Co544 Co 0.41968 0.22271 0.11623 0.0
Co545 Co 0.38621 0.28991 0.15417 0.0
C546 C 0.46034 0.29493 0.13588 0.0
O547 O 0.45825 0.26129 0.12703 0.0
O548 O 0.43202 0.31377 0.14241 0.0
C549 C 0.45457 0.2068 0.05513 0.0
O550 O 0.44741 0.24193 0.0541 0.0
C551 C 0.35472 0.36085 0.16849 0.0
C552 C 0.30265 0.34737 0.19571 0.0
C553 C 0.32208 0.37573 0.17995 0.0
N554 N 0.35435 0.32491 0.17576 0.0
N555 N 0.32347 0.3171 0.19277 0.0
C556 C 0.38489 0.38032 0.14881 0.0
H557 H 0.40945 0.38078 0.16655 0.0
H558 H 0.39223 0.36562 0.12351 0.0
H559 H 0.37736 0.40881 0.14179 0.0
C560 C 0.35966 0.23591 0.06323 0.0
N561 N 0.37716 0.24247 0.09497 0.0
N562 N 0.36444 0.27262 0.10947 0.0
C563 C 0.34003 0.28745 0.08597 0.0
C564 C 0.33655 0.265 0.0556 0.0
C565 C 0.36495 0.20254 0.04033 0.0
H566 H 0.3725 0.17904 0.05789 0.0
H567 H 0.38701 0.20717 0.02021 0.0
H568 H 0.33958 0.19617 0.02499 0.0
O569 O 0.40779 0.20089 0.16307 0.0
O570 O 0.40698 0.2535 0.19106 0.0
H571 H 0.30832 0.32434 0.1172 0.0
H572 H 0.30301 0.3305 0.06874 0.0
C573 C 0.32271 0.32402 0.09076 0.0
H574 H 0.344 0.34537 0.09082 0.0
H575 H 0.31555 0.29075 0.20016 0.0
O576 O 0.44312 0.18828 0.08198 0.0
C577 C 0.41776 0.22033 0.18985 0.0
Co578 Co 0.42595 0.77015 0.87821 0.0
Co579 Co 0.38968 0.70781 0.83353 0.0
C580 C 0.46686 0.70249 0.85037 0.0
O581 O 0.46536 0.7348 0.8632 0.0
O582 O 0.43806 0.68546 0.84111 0.0
C583 C 0.46504 0.78787 0.93526 0.0
O584 O 0.46157 0.75219 0.93467 0.0
C585 C 0.36033 0.63597 0.82349 0.0
C586 C 0.3142 0.64339 0.78533 0.0
C587 C 0.33151 0.61795 0.80738 0.0
N588 N 0.36003 0.67082 0.81225 0.0
N589 N 0.33274 0.67509 0.78895 0.0
C590 C 0.38632 0.62089 0.85128 0.0
H591 H 0.41241 0.614 0.83756 0.0
H592 H 0.39213 0.64162 0.87255 0.0
H593 H 0.37544 0.59578 0.86428 0.0
C594 C 0.37065 0.74784 0.93411 0.0
N595 N 0.38644 0.7462 0.9008 0.0
N596 N 0.36899 0.72216 0.88054 0.0
C597 C 0.3416 0.70787 0.90083 0.0
C598 C 0.34225 0.72302 0.93544 0.0
C599 C 0.38256 0.77203 0.9647 0.0
H600 H 0.39095 0.79893 0.95381 0.0
H601 H 0.40591 0.75929 0.97918 0.0
H602 H 0.36017 0.77594 0.9847 0.0
O603 O 0.40559 0.79183 0.83447 0.0
O604 O 0.40479 0.74667 0.79699 0.0
H605 H 0.29037 0.67952 0.90538 0.0
H606 H 0.3284 0.65197 0.89181 0.0
C607 C 0.31556 0.67914 0.88854 0.0
H608 H 0.30806 0.68378 0.85967 0.0
H609 H 0.32574 0.69995 0.77688 0.0
O610 O 0.44898 0.80638 0.9109 0.0
C611 C 0.4171 0.77824 0.80493 0.0
Co612 Co 0.23255 0.42246 0.87508 0.0
Co613 Co 0.30484 0.40088 0.83897 0.0
C614 C 0.29947 0.47282 0.85841 0.0
O615 O 0.2658 0.46593 0.86419 0.0
O616 O 0.32275 0.44731 0.85674 0.0
C617 C 0.20727 0.45977 0.93133 0.0
O618 O 0.24303 0.45938 0.9341 0.0
C619 C 0.37958 0.37422 0.82439 0.0
C620 C 0.36787 0.32391 0.7935 0.0
C621 C 0.39532 0.34216 0.81203 0.0
N622 N 0.34372 0.37386 0.81599 0.0
N623 N 0.33729 0.34423 0.79639 0.0
C624 C 0.39887 0.40335 0.84591 0.0
H625 H 0.38002 0.4207 0.86139 0.0
H626 H 0.41873 0.39105 0.86523 0.0
H627 H 0.41426 0.42109 0.82681 0.0
C628 C 0.25135 0.35819 0.92461 0.0
N629 N 0.25638 0.38092 0.89581 0.0
N630 N 0.28744 0.373 0.88013 0.0
C631 C 0.30487 0.34765 0.90028 0.0
C632 C 0.28122 0.33383 0.9272 0.0
C633 C 0.22196 0.3645 0.95232 0.0
H634 H 0.21389 0.39333 0.95267 0.0
H635 H 0.23126 0.35752 0.98023 0.0
H636 H 0.19728 0.34857 0.94501 0.0
O637 O 0.21562 0.40815 0.82727 0.0
O638 O 0.26756 0.42027 0.80161 0.0
H639 H 0.3574 0.32918 0.88208 0.0
H640 H 0.35619 0.34163 0.93003 0.0
C641 C 0.34573 0.34809 0.90244 0.0
H642 H 0.35533 0.37597 0.89659 0.0
H643 H 0.3114 0.3364 0.78744 0.0
O644 O 0.19247 0.44186 0.90574 0.0
C645 C 0.23293 0.42464 0.80229 0.0
Co646 Co 0.57922 0.22564 0.88107 0.0
Co647 Co 0.60748 0.29357 0.84073 0.0
C648 C 0.53546 0.29754 0.86812 0.0
O649 O 0.53897 0.26367 0.87583 0.0
O650 O 0.56311 0.31592 0.85829 0.0
C651 C 0.52882 0.18698 0.92233 0.0
O652 O 0.50675 0.1984 0.89662 0.0
C653 C 0.63674 0.36575 0.82409 0.0
C654 C 0.67687 0.35506 0.78057 0.0
C655 C 0.6631 0.38221 0.80295 0.0
N656 N 0.63475 0.33021 0.81511 0.0
N657 N 0.65846 0.32411 0.78858 0.0
C658 C 0.61587 0.38366 0.85428 0.0
H659 H 0.59245 0.39864 0.84227 0.0
H660 H 0.60582 0.36342 0.87424 0.0
H661 H 0.63307 0.40395 0.86875 0.0
C662 C 0.64341 0.23794 0.92719 0.0
N663 N 0.62341 0.24538 0.89728 0.0
N664 N 0.63494 0.27574 0.8822 0.0
C665 C 0.66162 0.28978 0.90372 0.0
C666 C 0.66755 0.26652 0.93326 0.0
C667 C 0.63783 0.20518 0.951 0.0
H668 H 0.63308 0.18072 0.9338 0.0
H669 H 0.61344 0.20924 0.96839 0.0
H670 H 0.66188 0.20051 0.96888 0.0
O671 O 0.58563 0.20413 0.83352 0.0
O672 O 0.58199 0.25723 0.80664 0.0
H673 H 0.68427 0.33105 0.86977 0.0
H674 H 0.70324 0.33017 0.91518 0.0
C675 C 0.67797 0.32678 0.89889 0.0
H676 H 0.65818 0.34769 0.90804 0.0
H677 H 0.66324 0.2985 0.77709 0.0
O678 O 0.56293 0.18997 0.91768 0.0
C679 C 0.57339 0.22339 0.80745 0.0
Co680 Co 0.77543 0.56816 0.87404 0.0
Co681 Co 0.70646 0.60153 0.83789 0.0
C682 C 0.70638 0.52572 0.85006 0.0
O683 O 0.74003 0.52929 0.85815 0.0
O684 O 0.68537 0.55332 0.84845 0.0
C685 C 0.81109 0.51186 0.91114 0.0
O686 O 0.79392 0.49199 0.88694 0.0
C687 C 0.63248 0.63008 0.82925 0.0
C688 C 0.63886 0.67595 0.79073 0.0
C689 C 0.61351 0.65812 0.81241 0.0
N690 N 0.66754 0.63114 0.81831 0.0
N691 N 0.67109 0.65843 0.79491 0.0
C692 C 0.61758 0.60312 0.85612 0.0
H693 H 0.63823 0.59684 0.87735 0.0
H694 H 0.59223 0.61333 0.86914 0.0
H695 H 0.61111 0.57738 0.84154 0.0
C696 C 0.75825 0.62155 0.93213 0.0
N697 N 0.7528 0.60649 0.89896 0.0
N698 N 0.72471 0.6222 0.88304 0.0
C699 C 0.71118 0.64744 0.90626 0.0
C700 C 0.73151 0.64743 0.93821 0.0
C701 C 0.7875 0.61066 0.95851 0.0
H702 H 0.81286 0.60342 0.94377 0.0
H703 H 0.77827 0.58684 0.97464 0.0
H704 H 0.79332 0.63324 0.97784 0.0
O705 O 0.79496 0.5884 0.82964 0.0
O706 O 0.74385 0.58477 0.79957 0.0
H707 H 0.67932 0.68014 0.87055 0.0
H708 H 0.67772 0.69436 0.91775 0.0
C709 C 0.67848 0.67047 0.89914 0.0
H710 H 0.65347 0.65412 0.90367 0.0
H711 H 0.69574 0.66591 0.78277 0.0
O712 O 0.81241 0.54614 0.9066 0.0
C713 C 0.77793 0.5772 0.80168 0.0
Co714 Co 0.57668 0.75064 0.11228 0.0
Co715 Co 0.61099 0.69317 0.16485 0.0
C716 C 0.53362 0.6881 0.13439 0.0
O717 O 0.53731 0.7138 0.11136 0.0
O718 O 0.55962 0.67882 0.15535 0.0
C719 C 0.52885 0.79534 0.0725 0.0
O720 O 0.50475 0.78352 0.0962 0.0
C721 C 0.63308 0.61905 0.16436 0.0
C722 C 0.66586 0.61103 0.2142 0.0
C723 C 0.65484 0.59406 0.18212 0.0
N724 N 0.63207 0.64988 0.18395 0.0
N725 N 0.65102 0.64482 0.21426 0.0
C726 C 0.61592 0.61459 0.12753 0.0
H727 H 0.60542 0.64092 0.11707 0.0
H728 H 0.63577 0.60281 0.10795 0.0
H729 H 0.59295 0.59504 0.12967 0.0
C730 C 0.64241 0.73226 0.06812 0.0
N731 N 0.62252 0.73084 0.09913 0.0
N732 N 0.63797 0.70773 0.1219 0.0
C733 C 0.66854 0.69438 0.10595 0.0
C734 C 0.67148 0.70841 0.07094 0.0
C735 C 0.63255 0.75283 0.03428 0.0
H736 H 0.61434 0.77605 0.04021 0.0
H737 H 0.61937 0.73388 0.01473 0.0
H738 H 0.65768 0.76328 0.02094 0.0
O739 O 0.57475 0.7691 0.16221 0.0
O740 O 0.60404 0.73262 0.2012 0.0
H741 H 0.72297 0.67444 0.11385 0.0
H742 H 0.68861 0.64003 0.11345 0.0
C743 C 0.69474 0.66807 0.12288 0.0
H744 H 0.69345 0.66956 0.15301 0.0
H745 H 0.65524 0.66486 0.23404 0.0
O746 O 0.5625 0.7894 0.07814 0.0
C747 C 0.58463 0.76079 0.19442 0.0
Co748 Co 0.22458 0.57007 0.11135 0.0
Co749 Co 0.29428 0.59228 0.15249 0.0
C750 C 0.28989 0.52067 0.1284 0.0
O751 O 0.25647 0.52704 0.12171 0.0
O752 O 0.31244 0.54667 0.13137 0.0
C753 C 0.18557 0.52056 0.06742 0.0
O754 O 0.19999 0.49643 0.08953 0.0
C755 C 0.36928 0.61348 0.15916 0.0
C756 C 0.37229 0.64395 0.21095 0.0
C757 C 0.3926 0.63385 0.18059 0.0
N758 N 0.3364 0.61226 0.17535 0.0
N759 N 0.33846 0.62991 0.20672 0.0
C760 C 0.37752 0.59739 0.12247 0.0
H761 H 0.35269 0.59668 0.10521 0.0
H762 H 0.39923 0.61303 0.10828 0.0
H763 H 0.38724 0.56894 0.12623 0.0
C764 C 0.24699 0.63341 0.06392 0.0
N765 N 0.2498 0.61213 0.09402 0.0
N766 N 0.27752 0.62362 0.11377 0.0
C767 C 0.29292 0.65252 0.09664 0.0
C768 C 0.27501 0.65874 0.06395 0.0
C769 C 0.21882 0.62993 0.03458 0.0
H770 H 0.19678 0.61091 0.04235 0.0
H771 H 0.23204 0.62091 0.00892 0.0
H772 H 0.20679 0.65719 0.02898 0.0
O773 O 0.20459 0.58043 0.15919 0.0
O774 O 0.25625 0.5715 0.1877 0.0
H775 H 0.3224 0.70292 0.10099 0.0
H776 H 0.35038 0.6632 0.09842 0.0
C777 C 0.32478 0.67412 0.11017 0.0
H778 H 0.32587 0.67351 0.14031 0.0
H779 H 0.31651 0.63358 0.22446 0.0
O780 O 0.18751 0.55423 0.07544 0.0
C781 C 0.22185 0.5657 0.18547 0.0
Co782 Co 0.77613 0.41256 0.11173 0.0
Co783 Co 0.70344 0.39222 0.14794 0.0
C784 C 0.70566 0.46071 0.11832 0.0
O785 O 0.73924 0.45297 0.11499 0.0
O786 O 0.68327 0.43528 0.12535 0.0
C787 C 0.78979 0.43569 0.04451 0.0
O788 O 0.7571 0.42095 0.04335 0.0
C789 C 0.62775 0.37321 0.16697 0.0
C790 C 0.63321 0.31353 0.17313 0.0
C791 C 0.60773 0.341 0.16813 0.0
N792 N 0.66361 0.36494 0.16916 0.0
N793 N 0.66646 0.32927 0.17404 0.0
C794 C 0.61294 0.41089 0.16145 0.0
H795 H 0.62993 0.43098 0.17646 0.0
H796 H 0.61374 0.41795 0.13209 0.0
H797 H 0.58417 0.41255 0.17081 0.0
C798 C 0.76318 0.34229 0.07137 0.0
N799 N 0.75662 0.3665 0.09849 0.0
N800 N 0.72364 0.36174 0.1108 0.0
C801 C 0.70621 0.33805 0.08909 0.0
C802 C 0.73107 0.32172 0.06468 0.0
C803 C 0.79792 0.34347 0.04988 0.0
H804 H 0.81476 0.36704 0.05812 0.0
H805 H 0.79222 0.34501 0.0202 0.0
H806 H 0.81488 0.31932 0.0563 0.0
O807 O 0.79477 0.4117 0.16104 0.0
O808 O 0.73933 0.41669 0.18404 0.0
H809 H 0.6505 0.32233 0.09866 0.0
H810 H 0.65871 0.3414 0.05372 0.0
C811 C 0.6661 0.3429 0.083 0.0
H812 H 0.65813 0.37042 0.09268 0.0
H813 H 0.69123 0.31518 0.17427 0.0
O814 O 0.8084 0.43304 0.07372 0.0
C815 C 0.77366 0.42383 0.18586 0.0
C816 C 0.97075 0.32254 0.32629 0.0
C817 C 0.9578 0.28758 0.31547 0.0
C818 C 0.00516 0.28443 0.26786 0.0
C819 C 0.01928 0.31837 0.28004 0.0
N820 N 0.01654 0.37012 0.3207 0.0
N821 N 0.96254 0.23425 0.27752 0.0
C822 C 0.00207 0.3377 0.30897 0.0
C823 C 0.97491 0.26831 0.28652 0.0
N824 N 0.95291 0.34136 0.35317 0.0
N825 N 0.02061 0.26797 0.23817 0.0
H826 H 0.93981 0.22232 0.28984 0.0
H827 H 0.97542 0.21691 0.25915 0.0
H828 H 0.04311 0.27888 0.22455 0.0
H829 H 0.01027 0.24475 0.22558 0.0
H830 H 0.95718 0.3688 0.35898 0.0
H831 H 0.93239 0.33001 0.36924 0.0
H832 H 0.00901 0.38325 0.34467 0.0
H833 H 0.03741 0.38382 0.3071 0.0
C834 C 0.6891 0.01628 0.35 0.0
C835 C 0.72343 0.00071 0.34148 0.0
C836 C 0.73194 0.04656 0.29311 0.0
C837 C 0.69592 0.05945 0.29928 0.0
N838 N 0.63723 0.05076 0.32844 0.0
N839 N 0.77659 0.99831 0.30305 0.0
C840 C 0.67359 0.04251 0.32616 0.0
C841 C 0.7447 0.01515 0.31252 0.0
N842 N 0.67175 0.00675 0.3816 0.0
N843 N 0.75407 0.06475 0.26927 0.0
H844 H 0.78709 0.9761 0.3175 0.0
H845 H 0.7915 0.00494 0.27981 0.0
H846 H 0.74503 0.08699 0.25389 0.0
H847 H 0.78179 0.05925 0.26629 0.0
H848 H 0.64808 0.01944 0.39088 0.0
H849 H 0.6831 0.98883 0.40059 0.0
H850 H 0.61904 0.03639 0.34489 0.0
H851 H 0.62425 0.06934 0.31127 0.0
C852 C 0.01258 0.7134 0.28985 0.0
C853 C 0.03025 0.69819 0.32079 0.0
C854 C 0.99001 0.64458 0.3179 0.0
C855 C 0.97026 0.66124 0.28898 0.0
N856 N 0.96027 0.71231 0.24887 0.0
N857 N 0.03325 0.65162 0.36742 0.0
C858 C 0.98094 0.69588 0.27525 0.0
C859 C 0.01837 0.66432 0.33557 0.0
N860 N 0.02652 0.74424 0.27414 0.0
N861 N 0.98196 0.60958 0.32823 0.0
H862 H 0.05458 0.66459 0.38106 0.0
H863 H 0.02276 0.62963 0.38205 0.0
H864 H 0.96042 0.59458 0.31726 0.0
H865 H 0.99827 0.59421 0.34572 0.0
H866 H 0.01739 0.7549 0.24944 0.0
H867 H 0.04911 0.75801 0.28471 0.0
H868 H 0.96398 0.73915 0.24032 0.0
H869 H 0.93779 0.69962 0.23682 0.0
C870 C 0.34182 0.9983 0.30745 0.0
C871 C 0.32425 0.98097 0.27756 0.0
C872 C 0.27426 0.02558 0.28195 0.0
C873 C 0.29011 0.03955 0.31442 0.0
N874 N 0.3329 0.03062 0.36383 0.0
N875 N 0.27198 0.97573 0.23807 0.0
C876 C 0.32202 0.02327 0.32893 0.0
C877 C 0.28984 0.99391 0.26525 0.0
N878 N 0.37788 0.99206 0.31481 0.0
N879 N 0.24489 0.04291 0.26686 0.0
H880 H 0.28327 0.95317 0.22486 0.0
H881 H 0.24528 0.98156 0.23023 0.0
H882 H 0.23257 0.0655 0.27906 0.0
H883 H 0.23423 0.03634 0.24136 0.0
H884 H 0.39242 0.00693 0.33423 0.0
H885 H 0.39439 0.97519 0.29904 0.0
H886 H 0.35427 0.01675 0.37658 0.0
H887 H 0.31798 0.04719 0.38144 0.0
C888 C 0.97027 0.6684 0.67724 0.0
C889 C 0.95473 0.70142 0.69038 0.0
C890 C 0.00434 0.70644 0.7356 0.0
C891 C 0.01887 0.6727 0.72332 0.0
N892 N 0.01068 0.61732 0.68861 0.0
N893 N 0.95303 0.74871 0.73583 0.0
C894 C 9e-05 0.6523 0.69621 0.0
C895 C 0.97057 0.71943 0.72084 0.0
N896 N 0.95804 0.6534 0.64532 0.0
N897 N 0.02346 0.72658 0.76048 0.0
H898 H 0.92853 0.75889 0.72539 0.0
H899 H 0.96108 0.76111 0.76007 0.0
H900 H 0.0476 0.7173 0.77245 0.0
H901 H 0.01667 0.7532 0.76769 0.0
H902 H 0.9712 0.63194 0.63216 0.0
H903 H 0.93673 0.66437 0.63001 0.0
H904 H 0.99548 0.59968 0.67229 0.0
H905 H 0.03281 0.60464 0.70125 0.0
C906 C 0.33942 0.01803 0.6825 0.0
C907 C 0.32664 0.03119 0.71663 0.0
C908 C 0.2763 0.98681 0.7154 0.0
C909 C 0.28995 0.97272 0.68205 0.0
N910 N 0.33668 0.9717 0.63553 0.0
N911 N 0.28617 0.02613 0.76801 0.0
C912 C 0.32212 0.98746 0.66608 0.0
C913 C 0.29598 0.01496 0.73382 0.0
N914 N 0.36769 0.03535 0.66527 0.0
N915 N 0.24402 0.97382 0.72888 0.0
H916 H 0.29955 0.04722 0.78171 0.0
H917 H 0.26646 0.01321 0.78383 0.0
H918 H 0.22955 0.95263 0.71651 0.0
H919 H 0.23036 0.98524 0.75097 0.0
H920 H 0.37478 0.03086 0.63816 0.0
H921 H 0.38312 0.05599 0.67727 0.0
H922 H 0.36263 0.97753 0.62558 0.0
H923 H 0.3239 0.95093 0.62097 0.0
C924 C 0.98228 0.29423 0.72544 0.0
C925 C 0.9703 0.32688 0.70832 0.0
C926 C 0.01791 0.32047 0.66177 0.0
C927 C 0.0317 0.28923 0.68034 0.0
N928 N 0.03005 0.24843 0.73176 0.0
N929 N 0.98025 0.37473 0.66411 0.0
C930 C 0.0147 0.27666 0.71277 0.0
C931 C 0.98917 0.34104 0.67763 0.0
N932 N 0.96219 0.2797 0.75329 0.0
N933 N 0.03141 0.3299 0.62825 0.0
H934 H 0.95881 0.39047 0.67417 0.0
H935 H 0.996 0.38855 0.64492 0.0
H936 H 0.05285 0.31629 0.61552 0.0
H937 H 0.01934 0.34939 0.61143 0.0
H938 H 0.96707 0.25408 0.76457 0.0
H939 H 0.93896 0.29245 0.76371 0.0
H940 H 0.02139 0.24021 0.75752 0.0
H941 H 0.05322 0.23459 0.72267 0.0
C942 C 0.70844 0.97335 0.72682 0.0
C943 C 0.67411 0.96092 0.7139 0.0
C944 C 0.67313 0.0098 0.66781 0.0
C945 C 0.7083 0.02124 0.67964 0.0
N946 N 0.76138 0.01242 0.71732 0.0
N947 N 0.62427 0.9652 0.67092 0.0
C948 C 0.72649 0.0026 0.70836 0.0
C949 C 0.65651 0.97872 0.68419 0.0
N950 N 0.72341 0.95745 0.7571 0.0
N951 N 0.6554 0.029 0.64107 0.0
H952 H 0.60962 0.94434 0.68354 0.0
H953 H 0.61252 0.9733 0.64637 0.0
H954 H 0.6677 0.04967 0.6259 0.0
H955 H 0.6279 0.02581 0.63476 0.0
H956 H 0.74657 0.96716 0.77035 0.0
H957 H 0.71118 0.93555 0.77061 0.0
H958 H 0.77785 0.99792 0.73536 0.0
H959 H 0.77495 0.03415 0.70487 0.0
C960 C 0.28074 0.28007 0.01697 0.0
C961 C 0.31918 0.27443 0.01982 0.0
C962 C 0.32343 0.28531 0.9544 0.0
C963 C 0.28984 0.30399 0.95515 0.0
N964 N 0.22985 0.28787 0.97512 0.0
N965 N 0.37795 0.27487 0.98886 0.0
C966 C 0.26579 0.29281 0.98319 0.0
C967 C 0.3408 0.27712 0.98773 0.0
N968 N 0.25873 0.27363 0.04629 0.0
N969 N 0.33698 0.27236 0.92238 0.0
H970 H 0.39267 0.2731 0.01311 0.0
H971 H 0.39399 0.27897 0.96568 0.0
H972 H 0.32226 0.27481 0.89806 0.0
H973 H 0.36037 0.25612 0.92126 0.0
H974 H 0.23131 0.28117 0.04694 0.0
H975 H 0.26849 0.26221 0.07049 0.0
H976 H 0.21104 0.27667 0.99324 0.0
H977 H 0.22044 0.29062 0.94836 0.0
C978 C 0.27988 0.71044 0.01843 0.0
C979 C 0.29161 0.67567 0.03086 0.0
C980 C 0.33875 0.67423 0.98335 0.0
C981 C 0.32505 0.70748 0.96889 0.0
N982 N 0.28024 0.75553 0.96964 0.0
N983 N 0.32737 0.6211 0.02081 0.0
C984 C 0.29493 0.72517 0.98562 0.0
C985 C 0.31966 0.6566 0.01207 0.0
N986 N 0.25493 0.72962 0.03841 0.0
N987 N 0.37079 0.66002 0.97048 0.0
H988 H 0.31433 0.60687 0.04169 0.0
H989 H 0.34436 0.60454 0.00518 0.0
H990 H 0.38585 0.67198 0.94953 0.0
H991 H 0.3843 0.63825 0.98283 0.0
H992 H 0.24792 0.75664 0.03308 0.0
H993 H 0.24292 0.71917 0.06201 0.0
H994 H 0.256 0.76764 0.97816 0.0
H995 H 0.29111 0.7673 0.9461 0.0
C996 C 0.72559 0.27867 0.96978 0.0
C997 C 0.68687 0.2749 0.96831 0.0
C998 C 0.6858 0.27879 0.03467 0.0
C999 C 0.72073 0.29475 0.03457 0.0
N1000 N 0.77806 0.27629 0.00987 0.0
N1001 N 0.62954 0.27647 0.00147 0.0
C1002 C 0.74275 0.28613 0.00408 0.0
C1003 C 0.66676 0.27567 0.00143 0.0
N1004 N 0.74595 0.27458 0.93891 0.0
N1005 N 0.67169 0.26495 0.06612 0.0
H1006 H 0.61421 0.27868 0.97762 0.0
H1007 H 0.6145 0.27944 0.02545 0.0
H1008 H 0.68675 0.26499 0.09034 0.0
H1009 H 0.64697 0.25079 0.06681 0.0
H1010 H 0.77367 0.28088 0.93784 0.0
H1011 H 0.73459 0.26671 0.91402 0.0
H1012 H 0.79536 0.26682 0.98943 0.0
H1013 H 0.78736 0.2716 0.03637 0.0
C1014 C 0.72091 0.70731 0.02311 0.0
C1015 C 0.68985 0.69077 0.03925 0.0
C1016 C 0.69137 0.64229 0.99316 0.0
C1017 C 0.71927 0.66135 0.97433 0.0
N1018 N 0.75971 0.7129 0.96957 0.0
N1019 N 0.6415 0.64588 0.03598 0.0
C1020 C 0.73401 0.69405 0.98892 0.0
C1021 C 0.67412 0.65901 0.02345 0.0
N1022 N 0.73795 0.73544 0.04069 0.0
N1023 N 0.6816 0.60789 0.98241 0.0
H1024 H 0.62729 0.65749 0.05761 0.0
H1025 H 0.62673 0.6255 0.02276 0.0
H1026 H 0.69318 0.59467 0.96006 0.0
H1027 H 0.66452 0.59106 0.9977 0.0
H1028 H 0.76267 0.74662 0.03227 0.0
H1029 H 0.72865 0.74583 0.0655 0.0
H1030 H 0.76882 0.73888 0.97658 0.0
H1031 H 0.77048 0.70333 0.94503 0.0
C1032 C 0.22925 0.5097 0.22627 0.0
C1033 C 0.20857 0.52893 0.19948 0.0
C1034 C 0.18295 0.47057 0.17858 0.0
C1035 C 0.20126 0.45141 0.2069 0.0
N1036 N 0.25158 0.45119 0.24887 0.0
N1037 N 0.15436 0.52749 0.16177 0.0
C1038 C 0.22722 0.47064 0.2284 0.0
C1039 C 0.18189 0.50932 0.17916 0.0
N1040 N 0.24908 0.52915 0.25111 0.0
N1041 N 0.16791 0.45177 0.15014 0.0
H1042 H 0.14822 0.55468 0.16752 0.0
H1043 H 0.13421 0.51458 0.14645 0.0
H1044 H 0.17425 0.42444 0.14523 0.0
H1045 H 0.15368 0.46404 0.12884 0.0
H1046 H 0.26321 0.51744 0.27278 0.0
H1047 H 0.24801 0.55761 0.25227 0.0
H1048 H 0.27326 0.46284 0.26305 0.0
H1049 H 0.25263 0.42273 0.24797 0.0
C1050 C 0.48481 0.20567 0.1827 0.0
C1051 C 0.45496 0.2135 0.20636 0.0
C1052 C 0.50013 0.22737 0.25477 0.0
C1053 C 0.52909 0.22034 0.22963 0.0
N1054 N 0.54608 0.22381 0.16659 0.0
N1055 N 0.4347 0.23502 0.26498 0.0
C1056 C 0.52022 0.21716 0.19248 0.0
C1057 C 0.46286 0.22543 0.24253 0.0
N1058 N 0.4805 0.18503 0.15211 0.0
N1059 N 0.50821 0.23666 0.28988 0.0
H1060 H 0.40743 0.23075 0.25788 0.0
H1061 H 0.43811 0.24776 0.2901 0.0
H1062 H 0.53409 0.24577 0.29749 0.0
H1063 H 0.48926 0.2365 0.31102 0.0
H1064 H 0.50211 0.1792 0.13457 0.0
H1065 H 0.45788 0.16836 0.14802 0.0
H1066 H 0.5401 0.22393 0.13877 0.0
H1067 H 0.57198 0.23354 0.17359 0.0
C1068 C 0.8155 0.47788 0.19054 0.0
C1069 C 0.78511 0.4588 0.20479 0.0
C1070 C 0.76243 0.51753 0.22953 0.0
C1071 C 0.79141 0.53641 0.21158 0.0
N1072 N 0.83197 0.53301 0.15951 0.0
N1073 N 0.73617 0.45908 0.24819 0.0
C1074 C 0.81402 0.51622 0.18747 0.0
C1075 C 0.76024 0.47835 0.2273 0.0
N1076 N 0.84642 0.45964 0.18077 0.0
N1077 N 0.73538 0.53726 0.24585 0.0
H1078 H 0.73674 0.4306 0.24921 0.0
H1079 H 0.71892 0.4708 0.26742 0.0
H1080 H 0.73433 0.56567 0.2443 0.0
H1081 H 0.71197 0.52579 0.2571 0.0
H1082 H 0.86969 0.47311 0.17139 0.0
H1083 H 0.85024 0.43209 0.18706 0.0
H1084 H 0.84692 0.5184 0.14019 0.0
H1085 H 0.82701 0.56012 0.15231 0.0
C1086 C 0.53787 0.84014 0.23263 0.0
C1087 C 0.5031 0.82375 0.23966 0.0
C1088 C 0.53091 0.76324 0.23532 0.0
C1089 C 0.56404 0.77951 0.22345 0.0
N1090 N 0.60305 0.83148 0.22177 0.0
N1091 N 0.46785 0.76941 0.25249 0.0
C1092 C 0.56873 0.8175 0.22601 0.0
C1093 C 0.5003 0.78535 0.24331 0.0
N1094 N 0.54118 0.87726 0.23122 0.0
N1095 N 0.52707 0.72634 0.23735 0.0
H1096 H 0.44403 0.78425 0.25724 0.0
H1097 H 0.46484 0.74116 0.25489 0.0
H1098 H 0.54818 0.7079 0.23235 0.0
H1099 H 0.54818 0.7079 0.23235 0.0
H1100 H 0.56409 0.89084 0.22144 0.0
H1101 H 0.52043 0.89493 0.23891 0.0
H1102 H 0.60989 0.85875 0.22568 0.0
H1103 H 0.62551 0.8145 0.21719 0.0
C1104 C 0.23946 0.48397 0.76579 0.0
C1105 C 0.21903 0.46201 0.79057 0.0
C1106 C 0.19149 0.51792 0.81525 0.0
C1107 C 0.20846 0.5397 0.78803 0.0
N1108 N 0.25734 0.54285 0.74372 0.0
N1109 N 0.16393 0.4594 0.82694 0.0
C1110 C 0.23481 0.52263 0.76519 0.0
C1111 C 0.19142 0.47936 0.81165 0.0
N1112 N 0.26264 0.46791 0.74154 0.0
N1113 N 0.17679 0.53374 0.84553 0.0
H1114 H 0.1585 0.4326 0.81904 0.0
H1115 H 0.14339 0.47088 0.84286 0.0
H1116 H 0.18144 0.56109 0.85199 0.0
H1117 H 0.1653 0.51868 0.86675 0.0
H1118 H 0.2784 0.483 0.72321 0.0
H1119 H 0.26404 0.43964 0.73825 0.0
H1120 H 0.25793 0.57135 0.74397 0.0
H1121 H 0.25793 0.57135 0.74397 0.0
C1122 C 0.52013 0.18032 0.80593 0.0
C1123 C 0.53661 0.21232 0.79198 0.0
C1124 C 0.47495 0.23475 0.77543 0.0
C1125 C 0.45892 0.20385 0.79293 0.0
N1126 N 0.46881 0.15863 0.84022 0.0
N1127 N 0.53009 0.26375 0.7518 0.0
C1128 C 0.4822 0.17996 0.81279 0.0
C1129 C 0.51403 0.23797 0.77339 0.0
N1130 N 0.54061 0.14983 0.812 0.0
N1131 N 0.45286 0.26225 0.76333 0.0
H1132 H 0.55808 0.26346 0.74647 0.0
H1133 H 0.51576 0.28224 0.73568 0.0
H1134 H 0.42476 0.26225 0.76792 0.0
H1135 H 0.4624 0.28686 0.75284 0.0
H1136 H 0.52917 0.1252 0.82054 0.0
H1137 H 0.56785 0.14819 0.80378 0.0
H1138 H 0.48543 0.14163 0.85591 0.0
H1139 H 0.44284 0.16251 0.85119 0.0
C1140 C 0.76709 0.52131 0.76145 0.0
C1141 C 0.79001 0.54085 0.78589 0.0
C1142 C 0.81884 0.48332 0.80442 0.0
C1143 C 0.79619 0.46317 0.7801 0.0
N1144 N 0.74129 0.46284 0.74377 0.0
N1145 N 0.849 0.54085 0.81517 0.0
C1146 C 0.76833 0.48222 0.76061 0.0
C1147 C 0.81953 0.52197 0.80243 0.0
N1148 N 0.74594 0.54037 0.73739 0.0
N1149 N 0.83782 0.46591 0.8314 0.0
H1150 H 0.85254 0.56864 0.80996 0.0
H1151 H 0.87202 0.52819 0.82606 0.0
H1152 H 0.83204 0.43916 0.83922 0.0
H1153 H 0.85437 0.47946 0.85014 0.0
H1154 H 0.73095 0.52823 0.71654 0.0
H1155 H 0.74724 0.56878 0.73546 0.0
H1156 H 0.7188 0.47482 0.73117 0.0
H1157 H 0.73883 0.43461 0.74659 0.0
C1158 C 0.4742 0.76616 0.76614 0.0
C1159 C 0.45635 0.78626 0.79429 0.0
C1160 C 0.51655 0.80218 0.81926 0.0
C1161 C 0.53442 0.78511 0.78956 0.0
N1162 N 0.52948 0.74072 0.74121 0.0
N1163 N 0.46336 0.8364 0.83671 0.0
C1164 C 0.51297 0.76397 0.76509 0.0
C1165 C 0.47834 0.8081 0.81773 0.0
N1166 N 0.45513 0.75063 0.73832 0.0
N1167 N 0.53595 0.81196 0.84948 0.0
H1168 H 0.43717 0.84619 0.83124 0.0
H1169 H 0.47868 0.85364 0.85333 0.0
H1170 H 0.5632 0.8043 0.85297 0.0
H1171 H 0.52379 0.82298 0.8727 0.0
H1172 H 0.42715 0.75424 0.73428 0.0
H1173 H 0.42715 0.75424 0.73428 0.0
H1174 H 0.51476 0.72505 0.72251 0.0
H1175 H 0.55734 0.73488 0.7426 0.0
C1176 C 0.19263 0.20194 0.47529 0.0
C1177 C 0.22724 0.21397 0.46314 0.0
C1178 C 0.24127 0.23145 0.52674 0.0
C1179 C 0.20851 0.21435 0.5392 0.0
N1180 N 0.16277 0.16897 0.5233 0.0
N1181 N 0.28042 0.25024 0.47721 0.0
C1182 C 0.18691 0.19538 0.51295 0.0
C1183 C 0.25038 0.23161 0.48885 0.0
N1184 N 0.16509 0.19686 0.45072 0.0
N1185 N 0.26545 0.24642 0.55061 0.0
H1186 H 0.28557 0.25497 0.44963 0.0
H1187 H 0.29822 0.26335 0.49519 0.0
H1188 H 0.26269 0.24497 0.57892 0.0
H1189 H 0.26269 0.24497 0.57892 0.0
H1190 H 0.13922 0.18765 0.45786 0.0
H1191 H 0.16723 0.20596 0.42379 0.0
H1192 H 0.14755 0.15398 0.50453 0.0
H1193 H 0.16289 0.15739 0.54925 0.0
C1194 C 0.81602 0.18765 0.51917 0.0
C1195 C 0.78369 0.19952 0.53645 0.0
C1196 C 0.76055 0.21963 0.47623 0.0
C1197 C 0.79149 0.2037 0.45877 0.0
N1198 N 0.8395 0.1585 0.46565 0.0
N1199 N 0.73281 0.24074 0.53284 0.0
C1200 C 0.81682 0.18387 0.48075 0.0
C1201 C 0.75796 0.2196 0.51535 0.0
N1202 N 0.84632 0.18034 0.5396 0.0
N1203 N 0.73247 0.23244 0.45529 0.0
H1204 H 0.73365 0.24479 0.56099 0.0
H1205 H 0.7144 0.25784 0.51958 0.0
H1206 H 0.7318 0.22905 0.42705 0.0
H1207 H 0.70822 0.24267 0.46582 0.0
H1208 H 0.8716 0.17428 0.52801 0.0
H1209 H 0.84698 0.18521 0.56766 0.0
H1210 H 0.85768 0.14297 0.4811 0.0
H1211 H 0.8358 0.14848 0.4393 0.0
C1212 C 0.8119 0.82152 0.51994 0.0
C1213 C 0.79037 0.796 0.53983 0.0
C1214 C 0.75562 0.78418 0.48302 0.0
C1215 C 0.77897 0.80815 0.46318 0.0
N1216 N 0.83949 0.83411 0.46151 0.0
N1217 N 0.73484 0.75984 0.53988 0.0
C1218 C 0.81034 0.82195 0.48127 0.0
C1219 C 0.76047 0.77926 0.52135 0.0
N1220 N 0.83267 0.84672 0.53784 0.0
N1221 N 0.72963 0.76436 0.46519 0.0
H1222 H 0.73405 0.75784 0.56828 0.0
H1223 H 0.73405 0.75784 0.56828 0.0
H1224 H 0.72817 0.76322 0.4368 0.0
H1225 H 0.71185 0.7467 0.47879 0.0
H1226 H 0.84902 0.8657 0.52444 0.0
H1227 H 0.82914 0.85223 0.56553 0.0
H1228 H 0.86345 0.84377 0.47335 0.0
H1229 H 0.84161 0.82956 0.43349 0.0
C1230 C 0.23915 0.77994 0.50585 0.0
C1231 C 0.21381 0.80117 0.52628 0.0
C1232 C 0.17881 0.81208 0.47052 0.0
C1233 C 0.20223 0.78896 0.44979 0.0
N1234 N 0.26102 0.75809 0.44851 0.0
N1235 N 0.15269 0.82424 0.52978 0.0
C1236 C 0.2338 0.77457 0.46763 0.0
C1237 C 0.18102 0.8119 0.50908 0.0
N1238 N 0.26876 0.7647 0.52254 0.0
N1239 N 0.15758 0.83771 0.45372 0.0
H1240 H 0.15414 0.82451 0.55825 0.0
H1241 H 0.12716 0.83039 0.51871 0.0
H1242 H 0.16064 0.84445 0.42625 0.0
H1243 H 0.14171 0.8564 0.46814 0.0
H1244 H 0.28846 0.74989 0.50825 0.0
H1245 H 0.27185 0.76401 0.55076 0.0
H1246 H 0.26173 0.75641 0.42011 0.0
H1247 H 0.26173 0.75641 0.42011 0.0
C1248 C 0.11301 0.31602 0.47224 0.0
C1249 C 0.14154 0.3111 0.49773 0.0
C1250 C 0.18707 0.32567 0.45072 0.0
C1251 C 0.15841 0.33188 0.42547 0.0
N1252 N 0.09376 0.34167 0.41482 0.0
N1253 N 0.20547 0.31714 0.51356 0.0
C1254 C 0.12127 0.32973 0.43697 0.0
C1255 C 0.17849 0.31792 0.48773 0.0
N1256 N 0.07797 0.3071 0.48157 0.0
N1257 N 0.22257 0.32659 0.43915 0.0
H1258 H 0.20103 0.31033 0.54071 0.0
H1259 H 0.23209 0.32589 0.50887 0.0
H1260 H 0.23019 0.33488 0.41302 0.0
H1261 H 0.24451 0.31744 0.45473 0.0
H1262 H 0.05677 0.30494 0.46274 0.0
H1263 H 0.07041 0.29966 0.50797 0.0
H1264 H 0.06674 0.34426 0.42324 0.0
H1265 H 0.09814 0.35286 0.38928 0.0
C1266 C 0.64942 0.13131 0.44574 0.0
C1267 C 0.64126 0.16929 0.44313 0.0
C1268 C 0.65748 0.17745 0.50739 0.0
C1269 C 0.67106 0.14082 0.50817 0.0
N1270 N 0.67975 0.08265 0.47886 0.0
N1271 N 0.63446 0.22811 0.47112 0.0
C1272 C 0.66669 0.11765 0.47763 0.0
C1273 C 0.64379 0.19202 0.47412 0.0
N1274 N 0.64 0.10794 0.41827 0.0
N1275 N 0.65824 0.19876 0.53803 0.0
H1276 H 0.62185 0.2389 0.44796 0.0
H1277 H 0.64036 0.24782 0.49067 0.0
H1278 H 0.67219 0.1922 0.5618 0.0
H1279 H 0.64381 0.22307 0.54066 0.0
H1280 H 0.64134 0.07966 0.4205 0.0
H1281 H 0.62732 0.11605 0.39435 0.0
H1282 H 0.68289 0.06618 0.45593 0.0
H1283 H 0.68918 0.07038 0.50277 0.0
C1284 C 0.87942 0.67823 0.47247 0.0
C1285 C 0.85132 0.68534 0.49778 0.0
C1286 C 0.8047 0.66747 0.45287 0.0
C1287 C 0.83293 0.65899 0.42769 0.0
N1288 N 0.89749 0.6497 0.41598 0.0
N1289 N 0.78895 0.68545 0.51521 0.0
C1290 C 0.8704 0.66241 0.43817 0.0
C1291 C 0.81426 0.67933 0.48862 0.0
N1292 N 0.91469 0.68704 0.48107 0.0
N1293 N 0.76897 0.66424 0.44234 0.0
H1294 H 0.761 0.68075 0.51284 0.0
H1295 H 0.761 0.68075 0.51284 0.0
H1296 H 0.76106 0.65223 0.4178 0.0
H1297 H 0.74688 0.67425 0.45701 0.0
H1298 H 0.93592 0.68735 0.46222 0.0
H1299 H 0.92247 0.6964 0.50679 0.0
H1300 H 0.92478 0.6479 0.42372 0.0
H1301 H 0.89269 0.63745 0.391 0.0
C1302 C 0.30542 0.87251 0.46594 0.0
C1303 C 0.32613 0.88544 0.49619 0.0
C1304 C 0.38287 0.87266 0.4634 0.0
C1305 C 0.36205 0.86187 0.43258 0.0
N1306 N 0.30389 0.85939 0.40147 0.0
N1307 N 0.38359 0.90445 0.52154 0.0
C1308 C 0.32345 0.86411 0.43293 0.0
C1309 C 0.36467 0.88743 0.49429 0.0
N1310 N 0.26872 0.8663 0.46907 0.0
N1311 N 0.41991 0.86806 0.46333 0.0
H1312 H 0.37058 0.91642 0.54385 0.0
H1313 H 0.4115 0.9097 0.52049 0.0
H1314 H 0.43403 0.85737 0.44105 0.0
H1315 H 0.43631 0.87209 0.48618 0.0
H1316 H 0.25346 0.85261 0.44939 0.0
H1317 H 0.2536 0.87216 0.49227 0.0
H1318 H 0.27626 0.86579 0.39913 0.0
H1319 H 0.31562 0.85196 0.37672 0.0
C1320 C 0.1886 0.68429 0.5142 0.0
C1321 C 0.15195 0.68714 0.50179 0.0
C1322 C 0.12992 0.66372 0.5602 0.0
C1323 C 0.16613 0.66568 0.57445 0.0
N1324 N 0.23 0.67887 0.56566 0.0
N1325 N 0.08745 0.68121 0.51252 0.0
C1326 C 0.19553 0.67613 0.55153 0.0
C1327 C 0.12256 0.6773 0.52469 0.0
N1328 N 0.21678 0.68905 0.49022 0.0
N1329 N 0.10259 0.64797 0.58 0.0
H1330 H 0.08106 0.68737 0.48548 0.0
H1331 H 0.06471 0.68017 0.52952 0.0
H1332 H 0.1065 0.63692 0.60565 0.0
H1333 H 0.07674 0.6423 0.56962 0.0
H1334 H 0.24395 0.68362 0.49653 0.0
H1335 H 0.21292 0.69591 0.46291 0.0
H1336 H 0.25178 0.69079 0.55187 0.0
H1337 H 0.23661 0.67078 0.59214 0.0
C1338 C 0.32459 0.12094 0.57264 0.0
C1339 C 0.33633 0.15715 0.58061 0.0
C1340 C 0.33438 0.17219 0.51546 0.0
C1341 C 0.318 0.13759 0.50821 0.0
N1342 N 0.29518 0.07983 0.52992 0.0
N1343 N 0.3511 0.21794 0.5602 0.0
C1344 C 0.31239 0.11224 0.53686 0.0
C1345 C 0.34101 0.18287 0.55213 0.0
N1346 N 0.32624 0.09445 0.59883 0.0
N1347 N 0.34382 0.19507 0.48749 0.0
H1348 H 0.35904 0.22632 0.58619 0.0
H1349 H 0.34965 0.23942 0.54163 0.0
H1350 H 0.33702 0.19079 0.46032 0.0
H1351 H 0.36058 0.21778 0.49083 0.0
H1352 H 0.3215 0.06689 0.59379 0.0
H1353 H 0.33632 0.09916 0.62484 0.0
H1354 H 0.28559 0.06247 0.55029 0.0
H1355 H 0.28868 0.07105 0.50365 0.0
C1356 C 0.86776 0.32043 0.51996 0.0
C1357 C 0.83837 0.3115 0.49663 0.0
C1358 C 0.7942 0.3264 0.54478 0.0
C1359 C 0.82371 0.33458 0.56851 0.0
N1360 N 0.88831 0.34709 0.57645 0.0
N1361 N 0.77368 0.31067 0.48375 0.0
C1362 C 0.86042 0.33392 0.55547 0.0
C1363 C 0.80155 0.31615 0.50805 0.0
N1364 N 0.90285 0.31558 0.50815 0.0
N1365 N 0.75916 0.32816 0.55767 0.0
H1366 H 0.77764 0.30139 0.45723 0.0
H1367 H 0.74648 0.31692 0.48885 0.0
H1368 H 0.75264 0.3379 0.58357 0.0
H1369 H 0.7363 0.31927 0.54343 0.0
H1370 H 0.92556 0.31564 0.52524 0.0
H1371 H 0.90929 0.30998 0.48102 0.0
H1372 H 0.91476 0.35127 0.56702 0.0
H1373 H 0.88486 0.35711 0.60259 0.0
C1374 C 0.66989 0.83062 0.5171 0.0
C1375 C 0.69385 0.8614 0.51927 0.0
C1376 C 0.70296 0.84847 0.58413 0.0
C1377 C 0.67436 0.82247 0.5831 0.0
N1378 N 0.62711 0.79181 0.54918 0.0
N1379 N 0.72649 0.90401 0.55757 0.0
C1380 C 0.6566 0.81464 0.54977 0.0
C1381 C 0.70857 0.87154 0.5536 0.0
N1382 N 0.66175 0.81464 0.48439 0.0
N1383 N 0.72513 0.85093 0.61395 0.0
H1384 H 0.72884 0.92293 0.53642 0.0
H1385 H 0.73506 0.91393 0.58281 0.0
H1386 H 0.72281 0.83337 0.63618 0.0
H1387 H 0.74828 0.86747 0.61465 0.0
H1388 H 0.64734 0.79019 0.48233 0.0
H1389 H 0.67296 0.82253 0.4596 0.0
H1390 H 0.61041 0.78878 0.52633 0.0
H1391 H 0.618 0.77773 0.5722 0.0
C1392 C 0.46855 0.13385 0.36387 0.0
C1393 C 0.44116 0.14591 0.33907 0.0
C1394 C 0.47478 0.11706 0.28875 0.0
C1395 C 0.50469 0.11191 0.31261 0.0
N1396 N 0.52092 0.0942 0.37311 0.0
N1397 N 0.41627 0.14598 0.27781 0.0
C1398 C 0.49856 0.11347 0.35044 0.0
C1399 C 0.4435 0.13633 0.30144 0.0
N1400 N 0.46724 0.14387 0.39974 0.0
N1401 N 0.47538 0.1009 0.25522 0.0
H1402 H 0.39187 0.15789 0.28616 0.0
H1403 H 0.41855 0.14385 0.24959 0.0
H1404 H 0.49614 0.08281 0.24789 0.0
H1405 H 0.45366 0.10136 0.2369 0.0
H1406 H 0.48843 0.13875 0.41803 0.0
H1407 H 0.44648 0.16007 0.41051 0.0
H1408 H 0.51612 0.09127 0.40097 0.0
H1409 H 0.54229 0.07833 0.36286 0.0
C1410 C 0.79737 0.47787 0.31928 0.0
C1411 C 0.8326 0.48167 0.303 0.0
C1412 C 0.8344 0.41577 0.29359 0.0
C1413 C 0.80307 0.41139 0.31554 0.0
N1414 N 0.7563 0.43829 0.35296 0.0
N1415 N 0.88835 0.45201 0.28441 0.0
C1416 C 0.78502 0.44247 0.32962 0.0
C1417 C 0.85216 0.44995 0.29282 0.0
N1418 N 0.77465 0.50724 0.32287 0.0
N1419 N 0.84693 0.38746 0.27301 0.0
H1420 H 0.90304 0.4763 0.28639 0.0
H1421 H 0.90436 0.42883 0.28034 0.0
H1422 H 0.83284 0.36278 0.27131 0.0
H1423 H 0.86847 0.39023 0.25462 0.0
H1424 H 0.74756 0.50482 0.3312 0.0
H1425 H 0.78105 0.53336 0.31376 0.0
H1426 H 0.74479 0.46 0.36728 0.0
H1427 H 0.74556 0.41276 0.35966 0.0
C1428 C 0.54484 0.90994 0.36888 0.0
C1429 C 0.57411 0.90178 0.34468 0.0
C1430 C 0.54727 0.94278 0.29916 0.0
C1431 C 0.515 0.94413 0.32004 0.0
N1432 N 0.49158 0.94796 0.38061 0.0
N1433 N 0.60545 0.9151 0.28778 0.0
C1434 C 0.51695 0.93426 0.35717 0.0
C1435 C 0.57621 0.91985 0.31033 0.0
N1436 N 0.54234 0.89264 0.40183 0.0
N1437 N 0.55083 0.96302 0.2683 0.0
H1438 H 0.62697 0.89753 0.29367 0.0
H1439 H 0.60754 0.9283 0.26261 0.0
H1440 H 0.53136 0.98211 0.25993 0.0
H1441 H 0.53136 0.98211 0.25993 0.0
H1442 H 0.5198 0.89497 0.41896 0.0
H1443 H 0.56152 0.8736 0.41083 0.0
H1444 H 0.49253 0.94416 0.40875 0.0
H1445 H 0.47162 0.96625 0.37151 0.0
C1446 C 0.11269 0.52724 0.30368 0.0
C1447 C 0.13893 0.49886 0.30413 0.0
C1448 C 0.18552 0.54144 0.32746 0.0
C1449 C 0.15911 0.56976 0.32719 0.0
N1450 N 0.09554 0.58766 0.32361 0.0
N1451 N 0.19978 0.47739 0.31855 0.0
C1452 C 0.1221 0.56214 0.31777 0.0
C1453 C 0.17515 0.50546 0.31692 0.0
N1454 N 0.07874 0.52092 0.28939 0.0
N1455 N 0.22066 0.54923 0.33769 0.0
H1456 H 0.19473 0.45142 0.30836 0.0
H1457 H 0.22517 0.47893 0.33112 0.0
H1458 H 0.22858 0.57446 0.34819 0.0
H1459 H 0.24254 0.53134 0.33538 0.0
H1460 H 0.06016 0.54152 0.28316 0.0
H1461 H 0.06969 0.49506 0.28169 0.0
H1462 H 0.06773 0.58252 0.32091 0.0
H1463 H 0.10063 0.61301 0.33503 0.0
C1464 C 0.44731 0.80447 0.6566 0.0
C1465 C 0.41706 0.8237 0.67092 0.0
C1466 C 0.45844 0.86588 0.70185 0.0
C1467 C 0.48882 0.84438 0.69119 0.0
N1468 N 0.50983 0.78639 0.66657 0.0
N1469 N 0.39419 0.8651 0.71642 0.0
C1470 C 0.48278 0.81178 0.67064 0.0
C1471 C 0.42273 0.85211 0.69642 0.0
N1472 N 0.44235 0.7794 0.62949 0.0
N1473 N 0.46349 0.90003 0.71592 0.0
H1474 H 0.36835 0.85326 0.71509 0.0
H1475 H 0.39738 0.88407 0.73737 0.0
H1476 H 0.48919 0.9121 0.71805 0.0
H1477 H 0.44191 0.91775 0.72143 0.0
H1478 H 0.464 0.76759 0.61532 0.0
H1479 H 0.41665 0.77252 0.61932 0.0
H1480 H 0.50531 0.76085 0.65491 0.0
H1481 H 0.53548 0.78852 0.67857 0.0
C1482 C 0.1122 0.46917 0.69072 0.0
C1483 C 0.13829 0.49746 0.69165 0.0
C1484 C 0.18625 0.45553 0.67042 0.0
C1485 C 0.15986 0.4272 0.66871 0.0
N1486 N 0.09596 0.40949 0.66833 0.0
N1487 N 0.19802 0.52034 0.68205 0.0
C1488 C 0.12231 0.43465 0.6763 0.0
C1489 C 0.17488 0.49121 0.68099 0.0
N1490 N 0.07786 0.47521 0.70405 0.0
N1491 N 0.22181 0.44808 0.6616 0.0
H1492 H 0.2253 0.52015 0.67413 0.0
H1493 H 0.2253 0.52015 0.67413 0.0
H1494 H 0.23039 0.42277 0.65182 0.0
H1495 H 0.24337 0.46632 0.66391 0.0
H1496 H 0.05902 0.45448 0.7089 0.0
H1497 H 0.06889 0.50085 0.71255 0.0
H1498 H 0.06808 0.41479 0.66982 0.0
H1499 H 0.1014 0.38454 0.65628 0.0
C1500 C 0.51725 0.19331 0.68717 0.0
C1501 C 0.51061 0.15773 0.70174 0.0
C1502 C 0.57622 0.14783 0.70642 0.0
C1503 C 0.58284 0.18033 0.6868 0.0
N1504 N 0.5594 0.23238 0.65416 0.0
N1505 N 0.5346 0.09759 0.71353 0.0
C1506 C 0.55325 0.20265 0.6758 0.0
C1507 C 0.54037 0.13395 0.70808 0.0
N1508 N 0.49009 0.21888 0.68588 0.0
N1509 N 0.60412 0.13033 0.72378 0.0
H1510 H 0.50869 0.08595 0.71164 0.0
H1511 H 0.55592 0.07876 0.71474 0.0
H1512 H 0.63028 0.1415 0.72503 0.0
H1513 H 0.60005 0.10757 0.74041 0.0
H1514 H 0.49467 0.24598 0.6786 0.0
H1515 H 0.4638 0.21448 0.6956 0.0
H1516 H 0.53848 0.24719 0.6418 0.0
H1517 H 0.58557 0.24074 0.64665 0.0
C1518 C 0.82876 0.5748 0.70009 0.0
C1519 C 0.80865 0.57646 0.66704 0.0
C1520 C 0.83401 0.51737 0.64894 0.0
C1521 C 0.84978 0.51333 0.68391 0.0
N1522 N 0.87981 0.54706 0.73122 0.0
N1523 N 0.7891 0.5479 0.61124 0.0
C1524 C 0.852 0.54447 0.70668 0.0
C1525 C 0.81024 0.54714 0.64194 0.0
N1526 N 0.82593 0.60226 0.72512 0.0
N1527 N 0.8461 0.49598 0.62111 0.0
H1528 H 0.77129 0.56942 0.60552 0.0
H1529 H 0.78682 0.52577 0.59353 0.0
H1530 H 0.86845 0.47867 0.62461 0.0
H1531 H 0.83804 0.4994 0.59405 0.0
H1532 H 0.83765 0.60104 0.75097 0.0
H1533 H 0.80917 0.62492 0.72145 0.0
H1534 H 0.88542 0.57065 0.74603 0.0
H1535 H 0.90084 0.52794 0.73182 0.0
C1536 C 0.28748 0.4181 0.13908 0.0
C1537 C 0.309 0.41285 0.17082 0.0
C1538 C 0.31598 0.47893 0.17684 0.0
C1539 C 0.2997 0.48369 0.1417 0.0
N1540 N 0.27576 0.45658 0.08671 0.0
N1541 N 0.34667 0.4378 0.21853 0.0
C1542 C 0.28704 0.45287 0.12208 0.0
C1543 C 0.32418 0.44316 0.18923 0.0
N1544 N 0.26692 0.39016 0.1255 0.0
N1545 N 0.32159 0.50796 0.1996 0.0
H1546 H 0.35119 0.41213 0.23007 0.0
H1547 H 0.36242 0.45853 0.22998 0.0
H1548 H 0.31526 0.5348 0.1931 0.0
H1549 H 0.32916 0.50499 0.22685 0.0
H1550 H 0.24836 0.39348 0.10419 0.0
H1551 H 0.26507 0.36487 0.13832 0.0
H1552 H 0.26944 0.43444 0.07003 0.0
H1553 H 0.27639 0.48149 0.07287 0.0
C1554 C 0.29784 0.57522 0.848 0.0
C1555 C 0.31938 0.58059 0.81647 0.0
C1556 C 0.32667 0.51455 0.81052 0.0
C1557 C 0.30955 0.50975 0.84523 0.0
N1558 N 0.28833 0.53728 0.90089 0.0
N1559 N 0.35853 0.55595 0.7699 0.0
C1560 C 0.29772 0.5406 0.86506 0.0
C1561 C 0.33516 0.55041 0.7984 0.0
N1562 N 0.2769 0.60294 0.86132 0.0
N1563 N 0.3332 0.48545 0.78813 0.0
H1564 H 0.36373 0.58176 0.75901 0.0
H1565 H 0.37445 0.53524 0.75866 0.0
H1566 H 0.32667 0.45862 0.7946 0.0
H1567 H 0.3419 0.4883 0.76123 0.0
H1568 H 0.25865 0.59944 0.88286 0.0
H1569 H 0.27474 0.628 0.84798 0.0
H1570 H 0.28396 0.55989 0.91758 0.0
H1571 H 0.28935 0.51241 0.91474 0.0
C1572 C 0.43339 0.29795 0.84964 0.0
C1573 C 0.43126 0.32784 0.82466 0.0
C1574 C 0.49391 0.3449 0.83973 0.0
C1575 C 0.49803 0.31264 0.86068 0.0
N1576 N 0.46966 0.26712 0.8966 0.0
N1577 N 0.46248 0.37396 0.7897 0.0
C1578 C 0.46689 0.29133 0.86852 0.0
C1579 C 0.46257 0.34934 0.81769 0.0
N1580 N 0.40425 0.2751 0.85424 0.0
N1581 N 0.51784 0.3731 0.84392 0.0
H1582 H 0.44006 0.37736 0.7724 0.0
H1583 H 0.48583 0.38807 0.78158 0.0
H1584 H 0.53675 0.37348 0.86518 0.0
H1585 H 0.51469 0.39822 0.83089 0.0
H1586 H 0.40591 0.24987 0.86716 0.0
H1587 H 0.37868 0.27957 0.84286 0.0
H1588 H 0.44804 0.25223 0.90757 0.0
H1589 H 0.44804 0.25223 0.90757 0.0
C1590 C 0.70576 0.45773 0.85625 0.0
C1591 C 0.69362 0.48932 0.83743 0.0
C1592 C 0.66282 0.44995 0.79276 0.0
C1593 C 0.67839 0.41895 0.80976 0.0
N1594 N 0.72363 0.39455 0.8508 0.0
N1595 N 0.66886 0.51456 0.78124 0.0
C1596 C 0.70298 0.4233 0.83916 0.0
C1597 C 0.67428 0.48535 0.80384 0.0
N1598 N 0.71806 0.4603 0.89129 0.0
N1599 N 0.63703 0.44566 0.76618 0.0
H1600 H 0.67888 0.54062 0.78646 0.0
H1601 H 0.65802 0.51202 0.75507 0.0
H1602 H 0.62947 0.4201 0.75614 0.0
H1603 H 0.62173 0.46732 0.75583 0.0
H1604 H 0.72459 0.43759 0.90719 0.0
H1605 H 0.71728 0.48475 0.90571 0.0
H1606 H 0.74396 0.39714 0.87055 0.0
H1607 H 0.72334 0.36937 0.83757 0.0
C1608 C 0.51024 0.67254 0.80656 0.0
C1609 C 0.50329 0.68674 0.8418 0.0
C1610 C 0.56859 0.68784 0.85434 0.0
C1611 C 0.57564 0.67022 0.82068 0.0
N1612 N 0.55281 0.64118 0.76631 0.0
N1613 N 0.52503 0.69614 0.90295 0.0
C1614 C 0.54629 0.66111 0.7971 0.0
C1615 C 0.53224 0.6909 0.86686 0.0
N1616 N 0.48213 0.67205 0.78222 0.0
N1617 N 0.59643 0.70326 0.87359 0.0
H1618 H 0.49845 0.69619 0.91315 0.0
H1619 H 0.54534 0.69559 0.92289 0.0
H1620 H 0.62275 0.70489 0.86308 0.0
H1621 H 0.59232 0.71853 0.89721 0.0
H1622 H 0.48466 0.66502 0.75479 0.0
H1623 H 0.48466 0.66502 0.75479 0.0
H1624 H 0.53221 0.63003 0.75022 0.0
H1625 H 0.57904 0.63357 0.75825 0.0
C1626 C 0.65594 0.50587 0.12903 0.0
C1627 C 0.69375 0.49951 0.12408 0.0
C1628 C 0.70627 0.55854 0.15379 0.0
C1629 C 0.66928 0.56027 0.16519 0.0
N1630 N 0.60966 0.53244 0.16755 0.0
N1631 N 0.75437 0.52821 0.12327 0.0
C1632 C 0.64431 0.53305 0.15382 0.0
C1633 C 0.71876 0.52791 0.13385 0.0
N1634 N 0.63118 0.48702 0.10857 0.0
N1635 N 0.72992 0.58651 0.16109 0.0
H1636 H 0.76661 0.50964 0.10567 0.0
H1637 H 0.76661 0.50964 0.10567 0.0
H1638 H 0.72259 0.61028 0.17471 0.0
H1639 H 0.75718 0.58626 0.15282 0.0
H1640 H 0.60326 0.49252 0.10902 0.0
H1641 H 0.63932 0.46914 0.08794 0.0
H1642 H 0.59149 0.5111 0.1626 0.0
H1643 H 0.60041 0.55144 0.18663 0.0
C1644 C 0.45763 0.62314 0.16137 0.0
C1645 C 0.42895 0.64794 0.16944 0.0
C1646 C 0.46949 0.69916 0.15569 0.0
C1647 C 0.49661 0.67436 0.14324 0.0
N1648 N 0.51361 0.61289 0.12767 0.0
N1649 N 0.40522 0.70952 0.16517 0.0
C1650 C 0.48983 0.6363 0.1442 0.0
C1651 C 0.43412 0.68595 0.16392 0.0
N1652 N 0.4545 0.58723 0.17098 0.0
N1653 N 0.47782 0.73501 0.16184 0.0
H1654 H 0.37851 0.7013 0.17029 0.0
H1655 H 0.40725 0.73682 0.15736 0.0
H1656 H 0.50387 0.74582 0.15841 0.0
H1657 H 0.45981 0.75314 0.17429 0.0
H1658 H 0.47591 0.56863 0.16882 0.0
H1659 H 0.4316 0.57682 0.18433 0.0
H1660 H 0.50866 0.58503 0.12481 0.0
H1661 H 0.53635 0.62216 0.1133 0.0
C1662 C 0.5203 0.32036 0.11539 0.0
C1663 C 0.49659 0.31067 0.14413 0.0
C1664 C 0.54489 0.32334 0.18898 0.0
C1665 C 0.5682 0.3348 0.16032 0.0
N1666 N 0.57473 0.35229 0.09701 0.0
N1667 N 0.48342 0.30929 0.20873 0.0
C1668 C 0.55489 0.33575 0.12374 0.0
C1669 C 0.50796 0.31425 0.18109 0.0
N1670 N 0.50993 0.3145 0.08002 0.0
N1671 N 0.55828 0.32036 0.2237 0.0
H1672 H 0.45636 0.30184 0.20436 0.0
H1673 H 0.48901 0.31528 0.23592 0.0
H1674 H 0.58435 0.32913 0.23108 0.0
H1675 H 0.54437 0.30733 0.24478 0.0
H1676 H 0.52777 0.31631 0.05799 0.0
H1677 H 0.48394 0.30535 0.0728 0.0
H1678 H 0.56506 0.35698 0.0707 0.0
H1679 H 0.59928 0.36511 0.10218 0.0
C1680 C 0.00852 0.46398 0.20568 0.0
C1681 C 0.03248 0.48025 0.18012 0.0
C1682 C 0.98279 0.51967 0.15886 0.0
C1683 C 0.9594 0.5024 0.18461 0.0
N1684 N 0.94615 0.44743 0.21773 0.0
N1685 N 0.04117 0.51796 0.12703 0.0
C1686 C 0.97101 0.47034 0.20222 0.0
C1687 C 0.01914 0.5062 0.15467 0.0
N1688 N 0.02144 0.4458 0.23558 0.0
N1689 N 0.97112 0.54946 0.13979 0.0
H1690 H 0.06788 0.50855 0.12387 0.0
H1691 H 0.03214 0.53462 0.10583 0.0
H1692 H 0.94401 0.55793 0.13951 0.0
H1693 H 0.98847 0.56604 0.12458 0.0
H1694 H 0.00437 0.4369 0.25656 0.0
H1695 H 0.04914 0.44277 0.24128 0.0
H1696 H 0.95354 0.42264 0.22968 0.0
H1697 H 0.91813 0.45189 0.21494 0.0
C1698 C 0.49878 0.06514 0.146 0.0
C1699 C 0.53182 0.06362 0.16626 0.0
C1700 C 0.52412 0.99757 0.17054 0.0
C1701 C 0.48673 0.00219 0.16344 0.0
N1702 N 0.43838 0.03873 0.13889 0.0
N1703 N 0.57268 0.02619 0.20338 0.0
C1704 C 0.47418 0.03533 0.14844 0.0
C1705 C 0.54472 0.02903 0.17893 0.0
N1706 N 0.49085 0.0951 0.12536 0.0
N1707 N 0.53826 0.96333 0.17416 0.0
H1708 H 0.58176 0.04802 0.21891 0.0
H1709 H 0.5825 0.00131 0.21302 0.0
H1710 H 0.52252 0.9401 0.16919 0.0
H1711 H 0.56606 0.95847 0.17798 0.0
H1712 H 0.46786 0.09689 0.10869 0.0
H1713 H 0.50963 0.11627 0.12207 0.0
H1714 H 0.42647 0.06352 0.13154 0.0
H1715 H 0.42063 0.01641 0.13973 0.0
C1716 C 0.02622 0.4823 0.84097 0.0
C1717 C 0.03856 0.51085 0.81785 0.0
C1718 C 0.97642 0.52216 0.79866 0.0
C1719 C 0.96562 0.48843 0.81317 0.0
N1720 N 0.97842 0.43784 0.85332 0.0
N1721 N 0.02537 0.54978 0.76587 0.0
C1722 C 0.98976 0.46908 0.83658 0.0
C1723 C 0.01368 0.52912 0.79459 0.0
N1724 N 0.04928 0.46789 0.86648 0.0
N1725 N 0.95093 0.54631 0.78655 0.0
H1726 H 0.05278 0.55297 0.75907 0.0
H1727 H 0.00736 0.56028 0.74645 0.0
H1728 H 0.92324 0.54144 0.79081 0.0
H1729 H 0.95766 0.57215 0.77661 0.0
H1730 H 0.04117 0.4489 0.88601 0.0
H1731 H 0.07607 0.47708 0.86966 0.0
H1732 H 0.99595 0.42004 0.86691 0.0
H1733 H 0.9512 0.42962 0.85324 0.0
C1734 C 0.48397 0.9682 0.8429 0.0
C1735 C 0.50857 0.95536 0.81596 0.0
C1736 C 0.51993 0.01757 0.79665 0.0
C1737 C 0.48909 0.02943 0.81617 0.0
N1738 N 0.44308 0.01684 0.86175 0.0
N1739 N 0.54173 0.96806 0.76016 0.0
C1740 C 0.47177 0.00521 0.84111 0.0
C1741 C 0.5248 0.98007 0.79111 0.0
N1742 N 0.47238 0.94516 0.86978 0.0
N1743 N 0.54321 0.04235 0.78154 0.0
H1744 H 0.54393 0.94056 0.7532 0.0
H1745 H 0.55044 0.98586 0.7397 0.0
H1746 H 0.53988 0.07036 0.78563 0.0
H1747 H 0.56732 0.03468 0.76849 0.0
H1748 H 0.45683 0.95361 0.89198 0.0
H1749 H 0.4809 0.91802 0.87127 0.0
H1750 H 0.42635 0.99925 0.87653 0.0
H1751 H 0.43559 0.04417 0.86369 0.0
C1752 C 0.19378 0.98232 0.47741 0.0
C1753 C 0.16806 0.97516 0.50508 0.0
C1754 C 0.14806 0.03886 0.503 0.0
C1755 C 0.17883 0.04704 0.48099 0.0
N1756 N 0.23605 0.02688 0.45452 0.0
N1757 N 0.11989 0.99534 0.54454 0.0
C1758 C 0.20283 0.01884 0.46954 0.0
C1759 C 0.14443 0.00299 0.51762 0.0
N1760 N 0.21103 0.95411 0.4602 0.0
N1761 N 0.1228 0.06532 0.51004 0.0
H1762 H 0.11603 0.96883 0.55431 0.0
H1763 H 0.10455 0.01518 0.55788 0.0
H1764 H 0.12517 0.09171 0.49962 0.0
H1765 H 0.09833 0.06039 0.52363 0.0
H1766 H 0.22822 0.95792 0.43786 0.0
H1767 H 0.20504 0.92685 0.46595 0.0
H1768 H 0.25602 0.00717 0.44981 0.0
H1769 H 0.24529 0.05339 0.44997 0.0
C1770 C 0.02061 0.16195 0.48913 0.0
C1771 C 0.03296 0.18869 0.51412 0.0
C1772 C 0.97213 0.21499 0.51626 0.0
C1773 C 0.9624 0.1947 0.48508 0.0
N1774 N 0.97654 0.14636 0.44231 0.0
N1775 N 0.02189 0.24608 0.54515 0.0
C1776 C 0.98598 0.16674 0.47201 0.0
C1777 C 0.00903 0.2164 0.52659 0.0
N1778 N 0.04219 0.13253 0.48152 0.0
N1779 N 0.94622 0.23408 0.53503 0.0
H1780 H 0.04926 0.24966 0.55203 0.0
H1781 H 0.00566 0.26874 0.55095 0.0
H1782 H 0.91859 0.23289 0.52804 0.0
H1783 H 0.95182 0.24757 0.55946 0.0
H1784 H 0.03355 0.11039 0.46594 0.0
H1785 H 0.06779 0.12897 0.49355 0.0
H1786 H 0.99473 0.12927 0.42874 0.0
H1787 H 0.95079 0.1472 0.43038 0.0
C1788 C 0.85034 0.02821 0.47869 0.0
C1789 C 0.84176 0.03877 0.51492 0.0
C1790 C 0.8506 0.97634 0.53599 0.0
C1791 C 0.84738 0.96512 0.49926 0.0
N1792 N 0.86974 0.9784 0.43918 0.0
N1793 N 0.85855 0.02754 0.5774 0.0
C1794 C 0.85593 0.99052 0.4715 0.0
C1795 C 0.85042 0.01427 0.54362 0.0
N1796 N 0.85275 0.05365 0.45167 0.0
N1797 N 0.85233 0.95085 0.56304 0.0
H1798 H 0.86055 0.05558 0.5822 0.0
H1799 H 0.86677 0.01121 0.59917 0.0
H1800 H 0.85556 0.92317 0.55715 0.0
H1801 H 0.85043 0.95709 0.59069 0.0
H1802 H 0.85408 0.04707 0.42407 0.0
H1803 H 0.85447 0.08144 0.45734 0.0
H1804 H 0.87836 0.99564 0.4183 0.0
H1805 H 0.87593 0.95085 0.4352 0.0
C1806 C 0.97259 0.83363 0.48915 0.0
C1807 C 0.96291 0.80785 0.51634 0.0
C1808 C 0.02548 0.78609 0.51797 0.0
C1809 C 0.03245 0.80432 0.48489 0.0
N1810 N 0.01345 0.84793 0.43912 0.0
N1811 N 0.97908 0.75259 0.54932 0.0
C1812 C 0.0066 0.82957 0.47078 0.0
C1813 C 0.98916 0.78256 0.52952 0.0
N1814 N 0.94928 0.86154 0.48087 0.0
N1815 N 0.05334 0.76991 0.53676 0.0
H1816 H 0.95206 0.74606 0.55531 0.0
H1817 H 0.99739 0.73183 0.55607 0.0
H1818 H 0.08048 0.77217 0.52828 0.0
H1819 H 0.04962 0.75777 0.56225 0.0
H1820 H 0.95604 0.88285 0.4633 0.0
H1821 H 0.9244 0.86502 0.49429 0.0
H1822 H 0.99368 0.86292 0.4252 0.0
H1823 H 0.03867 0.84725 0.42608 0.0
C1824 C 0.52533 0.21329 0.98497 0.0
C1825 C 0.5148 0.18563 0.95993 0.0
C1826 C 0.46845 0.16399 0.00298 0.0
C1827 C 0.47963 0.1917 0.02759 0.0
N1828 N 0.52743 0.23167 0.0481 0.0
N1829 N 0.48215 0.12991 0.94771 0.0
C1830 C 0.51137 0.21222 0.02066 0.0
C1831 C 0.48829 0.15922 0.96989 0.0
N1832 N 0.54547 0.24275 0.97404 0.0
N1833 N 0.43816 0.1436 0.01032 0.0
H1834 H 0.49641 0.12599 0.92339 0.0
H1835 H 0.46532 0.10811 0.95477 0.0
H1836 H 0.42456 0.14489 0.03521 0.0
H1837 H 0.4259 0.1263 0.99142 0.0
H1838 H 0.54953 0.26546 0.99069 0.0
H1839 H 0.55456 0.24676 0.94745 0.0
H1840 H 0.55241 0.24499 0.04501 0.0
H1841 H 0.51756 0.23102 0.07481 0.0
C1842 C 0.49074 0.82846 0.02579 0.0
C1843 C 0.51696 0.80127 0.03457 0.0
C1844 C 0.52073 0.78457 0.9707 0.0
C1845 C 0.48847 0.80403 0.96366 0.0
N1846 N 0.44392 0.84833 0.98309 0.0
N1847 N 0.54791 0.74583 0.01543 0.0
C1848 C 0.4741 0.82784 0.99056 0.0
C1849 C 0.53028 0.77762 0.00702 0.0
N1850 N 0.48175 0.85435 0.051 0.0
N1851 N 0.54041 0.77013 0.94269 0.0
H1852 H 0.55196 0.73664 0.04202 0.0
H1853 H 0.5545 0.7264 0.9957 0.0
H1854 H 0.53277 0.77393 0.91552 0.0
H1855 H 0.5657 0.75766 0.94679 0.0
H1856 H 0.46493 0.87656 0.04529 0.0
H1857 H 0.49356 0.85506 0.07691 0.0
H1858 H 0.42938 0.86258 0.00289 0.0
H1859 H 0.43306 0.85045 0.9569 0.0
C1860 C 0.16332 0.46391 0.98409 0.0
C1861 C 0.18647 0.48114 0.9583 0.0
C1862 C 0.20449 0.5265 0.00236 0.0
C1863 C 0.18144 0.51018 0.02882 0.0
N1864 N 0.13214 0.46886 0.04251 0.0
N1865 N 0.21386 0.53714 0.93832 0.0
C1866 C 0.15827 0.48077 0.0188 0.0
C1867 C 0.20081 0.51586 0.96584 0.0
N1868 N 0.148 0.43089 0.97631 0.0
N1869 N 0.23334 0.54801 0.01216 0.0
H1870 H 0.21271 0.52872 0.91116 0.0
H1871 H 0.22231 0.56401 0.94264 0.0
H1872 H 0.24092 0.55279 0.03912 0.0
H1873 H 0.25254 0.55727 0.99328 0.0
H1874 H 0.13465 0.4149 0.99564 0.0
H1875 H 0.14958 0.41911 0.9505 0.0
H1876 H 0.11272 0.44921 0.03578 0.0
H1877 H 0.128 0.48115 0.06785 0.0
C1878 C 0.83267 0.45439 0.99399 0.0
C1879 C 0.80049 0.46052 0.0147 0.0
C1880 C 0.77842 0.50444 0.96973 0.0
C1881 C 0.81036 0.49829 0.94879 0.0
N1882 N 0.87096 0.47383 0.94329 0.0
N1883 N 0.748 0.49849 0.02749 0.0
C1884 C 0.83865 0.47542 0.96183 0.0
C1885 C 0.77524 0.488 0.00429 0.0
N1886 N 0.85626 0.4272 0.00381 0.0
N1887 N 0.74981 0.52398 0.95564 0.0
H1888 H 0.74312 0.4858 0.05234 0.0
H1889 H 0.73214 0.52178 0.02353 0.0
H1890 H 0.75065 0.5374 0.93064 0.0
H1891 H 0.72399 0.52479 0.9675 0.0
H1892 H 0.87793 0.41854 0.98764 0.0
H1893 H 0.8531 0.4118 0.02749 0.0
H1894 H 0.89397 0.46014 0.95282 0.0
H1895 H 0.8756 0.48889 0.91954 0.0
loop_
_geom_bond_atom_site_label_1
_geom_bond_atom_site_label_2
_geom_bond_distance
_geom_bond_site_symmetry_2
_ccdc_geom_bond_type
Co0 O3 1.970 . S
Co0 N17 1.989 . S
Co0 O25 1.967 . S
Co0 O32 1.920 . S
Co1 O4 1.966 . S
Co1 N10 2.022 . S
Co1 N18 1.993 . S
Co1 O26 1.941 . S
C2 O3 1.258 . S
C2 O4 1.263 . S
O3 Co0 1.970 . S
O3 C2 1.258 . S
O4 Co1 1.966 . S
O4 C2 1.263 . S
C5 O6 1.235 . S
C5 O32 1.289 . S
O6 C5 1.235 . S
C7 C9 1.400 . S
C7 N10 1.351 . S
C7 C12 1.501 . S
C8 C9 1.387 . S
C8 N11 1.341 . S
C9 C7 1.400 . S
C9 C8 1.387 . S
N10 Co1 2.022 . S
N10 C7 1.351 . S
N10 N11 1.365 . S
N11 C8 1.341 . S
N11 N10 1.365 . S
N11 H31 0.862 . S
C12 C7 1.501 . S
C12 H13 0.961 . S
C12 H14 0.961 . S
C12 H15 0.960 . S
H13 C12 0.961 . S
H14 C12 0.961 . S
H15 C12 0.960 . S
C16 N17 1.342 . S
C16 C20 1.401 . S
C16 C21 1.499 . S
N17 Co0 1.989 . S
N17 C16 1.342 . S
N17 N18 1.388 . S
N18 Co1 1.993 . S
N18 N17 1.388 . S
N18 C19 1.346 . S
C19 N18 1.346 . S
C19 C20 1.396 . S
C19 C29 1.510 . S
C20 C16 1.401 . S
C20 C19 1.396 . S
C21 C16 1.499 . S
C21 H22 0.959 . S
C21 H23 0.960 . S
C21 H24 0.961 . S
H22 C21 0.959 . S
H23 C21 0.960 . S
H24 C21 0.961 . S
O25 Co0 1.967 . S
O25 C33 1.258 . S
O26 Co1 1.941 . S
O26 C33 1.266 . S
H27 C29 0.959 . S
H28 C29 0.961 . S
C29 C19 1.510 . S
C29 H27 0.959 . S
C29 H28 0.961 . S
C29 H30 0.960 . S
H30 C29 0.960 . S
H31 N11 0.862 . S
O32 Co0 1.920 . S
O32 C5 1.289 . S
C33 O25 1.258 . S
C33 O26 1.266 . S
Co34 O37 1.970 . S
Co34 N51 1.989 . S
Co34 O59 1.967 . S
Co34 O66 1.920 . S
Co35 O38 1.966 . S
Co35 N44 2.022 . S
Co35 N52 1.993 . S
Co35 O60 1.941 . S
C36 O37 1.258 . S
C36 O38 1.263 . S
O37 Co34 1.970 . S
O37 C36 1.258 . S
O38 Co35 1.966 . S
O38 C36 1.263 . S
C39 O40 1.235 . S
C39 O66 1.289 . S
O40 C39 1.235 . S
C41 C43 1.400 . S
C41 N44 1.351 . S
C41 C46 1.501 . S
C42 C43 1.387 . S
C42 N45 1.341 . S
C43 C41 1.400 . S
C43 C42 1.387 . S
N44 Co35 2.022 . S
N44 C41 1.351 . S
N44 N45 1.365 . S
N45 C42 1.341 . S
N45 N44 1.365 . S
N45 H65 0.862 . S
C46 C41 1.501 . S
C46 H47 0.961 . S
C46 H48 0.961 . S
C46 H49 0.960 . S
H47 C46 0.961 . S
H48 C46 0.961 . S
H49 C46 0.960 . S
C50 N51 1.342 . S
C50 C54 1.401 . S
C50 C55 1.499 . S
N51 Co34 1.989 . S
N51 C50 1.342 . S
N51 N52 1.388 . S
N52 Co35 1.993 . S
N52 N51 1.388 . S
N52 C53 1.346 . S
C53 N52 1.346 . S
C53 C54 1.396 . S
C53 C63 1.510 . S
C54 C50 1.401 . S
C54 C53 1.396 . S
C55 C50 1.499 . S
C55 H56 0.959 . S
C55 H57 0.960 . S
C55 H58 0.961 . S
H56 C55 0.959 . S
H57 C55 0.960 . S
H58 C55 0.961 . S
O59 Co34 1.967 . S
O59 C67 1.258 . S
O60 Co35 1.941 . S
O60 C67 1.266 . S
H61 C63 0.959 . S
H62 C63 0.961 . S
C63 C53 1.510 . S
C63 H61 0.959 . S
C63 H62 0.961 . S
C63 H64 0.960 . S
H64 C63 0.960 . S
H65 N45 0.862 . S
O66 Co34 1.920 . S
O66 C39 1.289 . S
C67 O59 1.258 . S
C67 O60 1.266 . S
Co68 O71 1.970 . S
Co68 N85 1.989 . S
Co68 O93 1.967 . S
Co68 O100 1.920 . S
Co69 O72 1.966 . S
Co69 N78 2.022 . S
Co69 N86 1.993 . S
Co69 O94 1.941 . S
C70 O71 1.258 . S
C70 O72 1.263 . S
O71 Co68 1.970 . S
O71 C70 1.258 . S
O72 Co69 1.966 . S
O72 C70 1.263 . S
C73 O74 1.235 . S
C73 O100 1.289 . S
O74 C73 1.235 . S
C75 C77 1.400 . S
C75 N78 1.351 . S
C75 C80 1.501 . S
C76 C77 1.387 . S
C76 N79 1.341 . S
C77 C75 1.400 . S
C77 C76 1.387 . S
N78 Co69 2.022 . S
N78 C75 1.351 . S
N78 N79 1.365 . S
N79 C76 1.341 . S
N79 N78 1.365 . S
N79 H99 0.862 . S
C80 C75 1.501 . S
C80 H81 0.961 . S
C80 H82 0.961 . S
C80 H83 0.960 . S
H81 C80 0.961 . S
H82 C80 0.961 . S
H83 C80 0.960 . S
C84 N85 1.342 . S
C84 C88 1.401 . S
C84 C89 1.499 . S
N85 Co68 1.989 . S
N85 C84 1.342 . S
N85 N86 1.388 . S
N86 Co69 1.993 . S
N86 N85 1.388 . S
N86 C87 1.346 . S
C87 N86 1.346 . S
C87 C88 1.396 . S
C87 C97 1.510 . S
C88 C84 1.401 . S
C88 C87 1.396 . S
C89 C84 1.499 . S
C89 H90 0.959 . S
C89 H91 0.960 . S
C89 H92 0.961 . S
H90 C89 0.959 . S
H91 C89 0.960 . S
H92 C89 0.961 . S
O93 Co68 1.967 . S
O93 C101 1.258 . S
O94 Co69 1.941 . S
O94 C101 1.266 . S
H95 C97 0.959 . S
H96 C97 0.961 . S
C97 C87 1.510 . S
C97 H95 0.959 . S
C97 H96 0.961 . S
C97 H98 0.960 . S
H98 C97 0.960 . S
H99 N79 0.862 . S
O100 Co68 1.920 . S
O100 C73 1.289 . S
C101 O93 1.258 . S
C101 O94 1.266 . S
Co102 O105 1.970 . S
Co102 N119 1.989 . S
Co102 O127 1.967 . S
Co102 O134 1.920 . S
Co103 O106 1.966 . S
Co103 N112 2.022 . S
Co103 N120 1.993 . S
Co103 O128 1.941 . S
C104 O105 1.258 . S
C104 O106 1.263 . S
O105 Co102 1.970 . S
O105 C104 1.258 . S
O106 Co103 1.966 . S
O106 C104 1.263 . S
C107 O108 1.235 . S
C107 O134 1.289 . S
O108 C107 1.235 . S
C109 C111 1.400 . S
C109 N112 1.351 . S
C109 C114 1.501 . S
C110 C111 1.387 . S
C110 N113 1.341 . S
C111 C109 1.400 . S
C111 C110 1.387 . S
N112 Co103 2.022 . S
N112 C109 1.351 . S
N112 N113 1.365 . S
N113 C110 1.341 . S
N113 N112 1.365 . S
N113 H133 0.862 . S
C114 C109 1.501 . S
C114 H115 0.961 . S
C114 H116 0.961 . S
C114 H117 0.960 . S
H115 C114 0.961 . S
H116 C114 0.961 . S
H117 C114 0.960 . S
C118 N119 1.342 . S
C118 C122 1.401 . S
C118 C123 1.499 . S
N119 Co102 1.989 . S
N119 C118 1.342 . S
N119 N120 1.388 . S
N120 Co103 1.993 . S
N120 N119 1.388 . S
N120 C121 1.346 . S
C121 N120 1.346 . S
C121 C122 1.396 . S
C121 C131 1.510 . S
C122 C118 1.401 . S
C122 C121 1.396 . S
C123 C118 1.499 . S
C123 H124 0.959 . S
C123 H125 0.960 . S
C123 H126 0.961 . S
H124 C123 0.959 . S
H125 C123 0.960 . S
H126 C123 0.961 . S
O127 Co102 1.967 . S
O127 C135 1.258 . S
O128 Co103 1.941 . S
O128 C135 1.266 . S
H129 C131 0.959 . S
H130 C131 0.961 . S
C131 C121 1.510 . S
C131 H129 0.959 . S
C131 H130 0.961 . S
C131 H132 0.960 . S
H132 C131 0.960 . S
H133 N113 0.862 . S
O134 Co102 1.920 . S
O134 C107 1.289 . S
C135 O127 1.258 . S
C135 O128 1.266 . S
Co136 O139 1.970 . S
Co136 N153 1.989 . S
Co136 O161 1.967 . S
Co136 O168 1.920 . S
Co137 O140 1.966 . S
Co137 N146 2.022 . S
Co137 N154 1.993 . S
Co137 O162 1.941 . S
C138 O139 1.258 . S
C138 O140 1.263 . S
O139 Co136 1.970 . S
O139 C138 1.258 . S
O140 Co137 1.966 . S
O140 C138 1.263 . S
C141 O142 1.235 . S
C141 O168 1.289 . S
O142 C141 1.235 . S
C143 C145 1.400 . S
C143 N146 1.351 . S
C143 C148 1.501 . S
C144 C145 1.387 . S
C144 N147 1.341 . S
C145 C143 1.400 . S
C145 C144 1.387 . S
N146 Co137 2.022 . S
N146 C143 1.351 . S
N146 N147 1.365 . S
N147 C144 1.341 . S
N147 N146 1.365 . S
N147 H167 0.862 . S
C148 C143 1.501 . S
C148 H149 0.961 . S
C148 H150 0.961 . S
C148 H151 0.960 . S
H149 C148 0.961 . S
H150 C148 0.961 . S
H151 C148 0.960 . S
C152 N153 1.342 . S
C152 C156 1.401 . S
C152 C157 1.499 . S
N153 Co136 1.989 . S
N153 C152 1.342 . S
N153 N154 1.388 . S
N154 Co137 1.993 . S
N154 N153 1.388 . S
N154 C155 1.346 . S
C155 N154 1.346 . S
C155 C156 1.396 . S
C155 C165 1.510 . S
C156 C152 1.401 . S
C156 C155 1.396 . S
C157 C152 1.499 . S
C157 H158 0.959 . S
C157 H159 0.960 . S
C157 H160 0.961 . S
H158 C157 0.959 . S
H159 C157 0.960 . S
H160 C157 0.961 . S
O161 Co136 1.967 . S
O161 C169 1.258 . S
O162 Co137 1.941 . S
O162 C169 1.266 . S
H163 C165 0.959 . S
H164 C165 0.961 . S
C165 C155 1.510 . S
C165 H163 0.959 . S
C165 H164 0.961 . S
C165 H166 0.960 . S
H166 C165 0.960 . S
H167 N147 0.862 . S
O168 Co136 1.920 . S
O168 C141 1.289 . S
C169 O161 1.258 . S
C169 O162 1.266 . S
Co170 O173 1.970 . S
Co170 N187 1.989 . S
Co170 O195 1.967 . S
Co170 O202 1.920 . S
Co171 O174 1.966 . S
Co171 N180 2.022 . S
Co171 N188 1.993 . S
Co171 O196 1.941 . S
C172 O173 1.258 . S
C172 O174 1.263 . S
O173 Co170 1.970 . S
O173 C172 1.258 . S
O174 Co171 1.966 . S
O174 C172 1.263 . S
C175 O176 1.235 . S
C175 O202 1.289 . S
O176 C175 1.235 . S
C177 C179 1.400 . S
C177 N180 1.351 . S
C177 C182 1.501 . S
C178 C179 1.387 . S
C178 N181 1.341 . S
C179 C177 1.400 . S
C179 C178 1.387 . S
N180 Co171 2.022 . S
N180 C177 1.351 . S
N180 N181 1.365 . S
N181 C178 1.341 . S
N181 N180 1.365 . S
N181 H201 0.862 . S
C182 C177 1.501 . S
C182 H183 0.961 . S
C182 H184 0.961 . S
C182 H185 0.960 . S
H183 C182 0.961 . S
H184 C182 0.961 . S
H185 C182 0.960 . S
C186 N187 1.342 . S
C186 C190 1.401 . S
C186 C191 1.499 . S
N187 Co170 1.989 . S
N187 C186 1.342 . S
N187 N188 1.388 . S
N188 Co171 1.993 . S
N188 N187 1.388 . S
N188 C189 1.346 . S
C189 N188 1.346 . S
C189 C190 1.396 . S
C189 C199 1.510 . S
C190 C186 1.401 . S
C190 C189 1.396 . S
C191 C186 1.499 . S
C191 H192 0.959 . S
C191 H193 0.960 . S
C191 H194 0.961 . S
H192 C191 0.959 . S
H193 C191 0.960 . S
H194 C191 0.961 . S
O195 Co170 1.967 . S
O195 C203 1.258 . S
O196 Co171 1.941 . S
O196 C203 1.266 . S
H197 C199 0.959 . S
H198 C199 0.961 . S
C199 C189 1.510 . S
C199 H197 0.959 . S
C199 H198 0.961 . S
C199 H200 0.960 . S
H200 C199 0.960 . S
H201 N181 0.862 . S
O202 Co170 1.920 . S
O202 C175 1.289 . S
C203 O195 1.258 . S
C203 O196 1.266 . S
Co204 O207 1.970 . S
Co204 N221 1.989 . S
Co204 O229 1.967 . S
Co204 O236 1.920 . S
Co205 O208 1.966 . S
Co205 N214 2.022 . S
Co205 N222 1.993 . S
Co205 O230 1.941 . S
C206 O207 1.258 . S
C206 O208 1.263 . S
O207 Co204 1.970 . S
O207 C206 1.258 . S
O208 Co205 1.966 . S
O208 C206 1.263 . S
C209 O210 1.235 . S
C209 O236 1.289 . S
O210 C209 1.235 . S
C211 C213 1.400 . S
C211 N214 1.351 . S
C211 C216 1.501 . S
C212 C213 1.387 . S
C212 N215 1.341 . S
C213 C211 1.400 . S
C213 C212 1.387 . S
N214 Co205 2.022 . S
N214 C211 1.351 . S
N214 N215 1.365 . S
N215 C212 1.341 . S
N215 N214 1.365 . S
N215 H235 0.862 . S
C216 C211 1.501 . S
C216 H217 0.961 . S
C216 H218 0.961 . S
C216 H219 0.960 . S
H217 C216 0.961 . S
H218 C216 0.961 . S
H219 C216 0.960 . S
C220 N221 1.342 . S
C220 C224 1.401 . S
C220 C225 1.499 . S
N221 Co204 1.989 . S
N221 C220 1.342 . S
N221 N222 1.388 . S
N222 Co205 1.993 . S
N222 N221 1.388 . S
N222 C223 1.346 . S
C223 N222 1.346 . S
C223 C224 1.396 . S
C223 C233 1.510 . S
C224 C220 1.401 . S
C224 C223 1.396 . S
C225 C220 1.499 . S
C225 H226 0.959 . S
C225 H227 0.960 . S
C225 H228 0.961 . S
H226 C225 0.959 . S
H227 C225 0.960 . S
H228 C225 0.961 . S
O229 Co204 1.967 . S
O229 C237 1.258 . S
O230 Co205 1.941 . S
O230 C237 1.266 . S
H231 C233 0.959 . S
H232 C233 0.961 . S
C233 C223 1.510 . S
C233 H231 0.959 . S
C233 H232 0.961 . S
C233 H234 0.960 . S
H234 C233 0.960 . S
H235 N215 0.862 . S
O236 Co204 1.920 . S
O236 C209 1.289 . S
C237 O229 1.258 . S
C237 O230 1.266 . S
Co238 O241 1.970 . S
Co238 N255 1.989 . S
Co238 O263 1.967 . S
Co238 O270 1.920 . S
Co239 O242 1.966 . S
Co239 N248 2.022 . S
Co239 N256 1.993 . S
Co239 O264 1.941 . S
C240 O241 1.258 . S
C240 O242 1.263 . S
O241 Co238 1.970 . S
O241 C240 1.258 . S
O242 Co239 1.966 . S
O242 C240 1.263 . S
C243 O244 1.235 . S
C243 O270 1.289 . S
O244 C243 1.235 . S
C245 C247 1.400 . S
C245 N248 1.351 . S
C245 C250 1.501 . S
C246 C247 1.387 . S
C246 N249 1.341 . S
C247 C245 1.400 . S
C247 C246 1.387 . S
N248 Co239 2.022 . S
N248 C245 1.351 . S
N248 N249 1.365 . S
N249 C246 1.341 . S
N249 N248 1.365 . S
N249 H269 0.862 . S
C250 C245 1.501 . S
C250 H251 0.961 . S
C250 H252 0.961 . S
C250 H253 0.960 . S
H251 C250 0.961 . S
H252 C250 0.961 . S
H253 C250 0.960 . S
C254 N255 1.342 . S
C254 C258 1.401 . S
C254 C259 1.499 . S
N255 Co238 1.989 . S
N255 C254 1.342 . S
N255 N256 1.388 . S
N256 Co239 1.993 . S
N256 N255 1.388 . S
N256 C257 1.346 . S
C257 N256 1.346 . S
C257 C258 1.396 . S
C257 C267 1.510 . S
C258 C254 1.401 . S
C258 C257 1.396 . S
C259 C254 1.499 . S
C259 H260 0.959 . S
C259 H261 0.960 . S
C259 H262 0.961 . S
H260 C259 0.959 . S
H261 C259 0.960 . S
H262 C259 0.961 . S
O263 Co238 1.967 . S
O263 C271 1.258 . S
O264 Co239 1.941 . S
O264 C271 1.266 . S
H265 C267 0.959 . S
H266 C267 0.961 . S
C267 C257 1.510 . S
C267 H265 0.959 . S
C267 H266 0.961 . S
C267 H268 0.960 . S
H268 C267 0.960 . S
H269 N249 0.862 . S
O270 Co238 1.920 . S
O270 C243 1.289 . S
C271 O263 1.258 . S
C271 O264 1.266 . S
Co272 O275 1.970 . S
Co272 N289 1.989 . S
Co272 O297 1.967 . S
Co272 O304 1.920 . S
Co273 O276 1.966 . S
Co273 N282 2.022 . S
Co273 N290 1.993 . S
Co273 O298 1.941 . S
C274 O275 1.258 . S
C274 O276 1.263 . S
O275 Co272 1.970 . S
O275 C274 1.258 . S
O276 Co273 1.966 . S
O276 C274 1.263 . S
C277 O278 1.235 . S
C277 O304 1.289 . S
O278 C277 1.235 . S
C279 C281 1.400 . S
C279 N282 1.351 . S
C279 C284 1.501 . S
C280 C281 1.387 . S
C280 N283 1.341 . S
C281 C279 1.400 . S
C281 C280 1.387 . S
N282 Co273 2.022 . S
N282 C279 1.351 . S
N282 N283 1.365 . S
N283 C280 1.341 . S
N283 N282 1.365 . S
N283 H303 0.862 . S
C284 C279 1.501 . S
C284 H285 0.961 . S
C284 H286 0.961 . S
C284 H287 0.960 . S
H285 C284 0.961 . S
H286 C284 0.961 . S
H287 C284 0.960 . S
C288 N289 1.342 . S
C288 C292 1.401 . S
C288 C293 1.499 . S
N289 Co272 1.989 . S
N289 C288 1.342 . S
N289 N290 1.388 . S
N290 Co273 1.993 . S
N290 N289 1.388 . S
N290 C291 1.346 . S
C291 N290 1.346 . S
C291 C292 1.396 . S
C291 C301 1.510 . S
C292 C288 1.401 . S
C292 C291 1.396 . S
C293 C288 1.499 . S
C293 H294 0.959 . S
C293 H295 0.960 . S
C293 H296 0.961 . S
H294 C293 0.959 . S
H295 C293 0.960 . S
H296 C293 0.961 . S
O297 Co272 1.967 . S
O297 C305 1.258 . S
O298 Co273 1.941 . S
O298 C305 1.266 . S
H299 C301 0.959 . S
H300 C301 0.961 . S
C301 C291 1.510 . S
C301 H299 0.959 . S
C301 H300 0.961 . S
C301 H302 0.960 . S
H302 C301 0.960 . S
H303 N283 0.862 . S
O304 Co272 1.920 . S
O304 C277 1.289 . S
C305 O297 1.258 . S
C305 O298 1.266 . S
Co306 O309 1.970 . S
Co306 N323 1.989 . S
Co306 O331 1.967 . S
Co306 O338 1.920 . S
Co307 O310 1.966 . S
Co307 N316 2.022 . S
Co307 N324 1.993 . S
Co307 O332 1.941 . S
C308 O309 1.258 . S
C308 O310 1.263 . S
O309 Co306 1.970 . S
O309 C308 1.258 . S
O310 Co307 1.966 . S
O310 C308 1.263 . S
C311 O312 1.235 . S
C311 O338 1.289 . S
O312 C311 1.235 . S
C313 C315 1.400 . S
C313 N316 1.351 . S
C313 C318 1.501 . S
C314 C315 1.387 . S
C314 N317 1.341 . S
C315 C313 1.400 . S
C315 C314 1.387 . S
N316 Co307 2.022 . S
N316 C313 1.351 . S
N316 N317 1.365 . S
N317 C314 1.341 . S
N317 N316 1.365 . S
N317 H337 0.862 . S
C318 C313 1.501 . S
C318 H319 0.961 . S
C318 H320 0.961 . S
C318 H321 0.960 . S
H319 C318 0.961 . S
H320 C318 0.961 . S
H321 C318 0.960 . S
C322 N323 1.342 . S
C322 C326 1.401 . S
C322 C327 1.499 . S
N323 Co306 1.989 . S
N323 C322 1.342 . S
N323 N324 1.388 . S
N324 Co307 1.993 . S
N324 N323 1.388 . S
N324 C325 1.346 . S
C325 N324 1.346 . S
C325 C326 1.396 . S
C325 C335 1.510 . S
C326 C322 1.401 . S
C326 C325 1.396 . S
C327 C322 1.499 . S
C327 H328 0.959 . S
C327 H329 0.960 . S
C327 H330 0.961 . S
H328 C327 0.959 . S
H329 C327 0.960 . S
H330 C327 0.961 . S
O331 Co306 1.967 . S
O331 C339 1.258 . S
O332 Co307 1.941 . S
O332 C339 1.266 . S
H333 C335 0.959 . S
H334 C335 0.961 . S
C335 C325 1.510 . S
C335 H333 0.959 . S
C335 H334 0.961 . S
C335 H336 0.960 . S
H336 C335 0.960 . S
H337 N317 0.862 . S
O338 Co306 1.920 . S
O338 C311 1.289 . S
C339 O331 1.258 . S
C339 O332 1.266 . S
Co340 O343 1.970 . S
Co340 N357 1.989 . S
Co340 O365 1.967 . S
Co340 O372 1.920 . S
Co341 O344 1.966 . S
Co341 N350 2.022 . S
Co341 N358 1.993 . S
Co341 O366 1.941 . S
C342 O343 1.258 . S
C342 O344 1.263 . S
O343 Co340 1.970 . S
O343 C342 1.258 . S
O344 Co341 1.966 . S
O344 C342 1.263 . S
C345 O346 1.235 . S
C345 O372 1.289 . S
O346 C345 1.235 . S
C347 C349 1.400 . S
C347 N350 1.351 . S
C347 C352 1.501 . S
C348 C349 1.387 . S
C348 N351 1.341 . S
C349 C347 1.400 . S
C349 C348 1.387 . S
N350 Co341 2.022 . S
N350 C347 1.351 . S
N350 N351 1.365 . S
N351 C348 1.341 . S
N351 N350 1.365 . S
N351 H371 0.862 . S
C352 C347 1.501 . S
C352 H353 0.961 . S
C352 H354 0.961 . S
C352 H355 0.960 . S
H353 C352 0.961 . S
H354 C352 0.961 . S
H355 C352 0.960 . S
C356 N357 1.342 . S
C356 C360 1.401 . S
C356 C361 1.499 . S
N357 Co340 1.989 . S
N357 C356 1.342 . S
N357 N358 1.388 . S
N358 Co341 1.993 . S
N358 N357 1.388 . S
N358 C359 1.346 . S
C359 N358 1.346 . S
C359 C360 1.396 . S
C359 C369 1.510 . S
C360 C356 1.401 . S
C360 C359 1.396 . S
C361 C356 1.499 . S
C361 H362 0.959 . S
C361 H363 0.960 . S
C361 H364 0.961 . S
H362 C361 0.959 . S
H363 C361 0.960 . S
H364 C361 0.961 . S
O365 Co340 1.967 . S
O365 C373 1.258 . S
O366 Co341 1.941 . S
O366 C373 1.266 . S
H367 C369 0.959 . S
H368 C369 0.961 . S
C369 C359 1.510 . S
C369 H367 0.959 . S
C369 H368 0.961 . S
C369 H370 0.960 . S
H370 C369 0.960 . S
H371 N351 0.862 . S
O372 Co340 1.920 . S
O372 C345 1.289 . S
C373 O365 1.258 . S
C373 O366 1.266 . S
Co374 O377 1.970 . S
Co374 N391 1.989 . S
Co374 O399 1.967 . S
Co374 O406 1.920 . S
Co375 O378 1.966 . S
Co375 N384 2.022 . S
Co375 N392 1.993 . S
Co375 O400 1.941 . S
C376 O377 1.258 . S
C376 O378 1.263 . S
O377 Co374 1.970 . S
O377 C376 1.258 . S
O378 Co375 1.966 . S
O378 C376 1.263 . S
C379 O380 1.235 . S
C379 O406 1.289 . S
O380 C379 1.235 . S
C381 C383 1.400 . S
C381 N384 1.351 . S
C381 C386 1.501 . S
C382 C383 1.387 . S
C382 N385 1.341 . S
C383 C381 1.400 . S
C383 C382 1.387 . S
N384 Co375 2.022 . S
N384 C381 1.351 . S
N384 N385 1.365 . S
N385 C382 1.341 . S
N385 N384 1.365 . S
N385 H405 0.862 . S
C386 C381 1.501 . S
C386 H387 0.961 . S
C386 H388 0.961 . S
C386 H389 0.960 . S
H387 C386 0.961 . S
H388 C386 0.961 . S
H389 C386 0.960 . S
C390 N391 1.342 . S
C390 C394 1.401 . S
C390 C395 1.499 . S
N391 Co374 1.989 . S
N391 C390 1.342 . S
N391 N392 1.388 . S
N392 Co375 1.993 . S
N392 N391 1.388 . S
N392 C393 1.346 . S
C393 N392 1.346 . S
C393 C394 1.396 . S
C393 C403 1.510 . S
C394 C390 1.401 . S
C394 C393 1.396 . S
C395 C390 1.499 . S
C395 H396 0.959 . S
C395 H397 0.960 . S
C395 H398 0.961 . S
H396 C395 0.959 . S
H397 C395 0.960 . S
H398 C395 0.961 . S
O399 Co374 1.967 . S
O399 C407 1.258 . S
O400 Co375 1.941 . S
O400 C407 1.266 . S
H401 C403 0.959 . S
H402 C403 0.961 . S
C403 C393 1.510 . S
C403 H401 0.959 . S
C403 H402 0.961 . S
C403 H404 0.960 . S
H404 C403 0.960 . S
H405 N385 0.862 . S
O406 Co374 1.920 . S
O406 C379 1.289 . S
C407 O399 1.258 . S
C407 O400 1.266 . S
Co408 O411 1.970 . S
Co408 N425 1.989 . S
Co408 O433 1.967 . S
Co408 O440 1.920 . S
Co409 O412 1.966 . S
Co409 N418 2.022 . S
Co409 N426 1.993 . S
Co409 O434 1.941 . S
C410 O411 1.258 . S
C410 O412 1.263 . S
O411 Co408 1.970 . S
O411 C410 1.258 . S
O412 Co409 1.966 . S
O412 C410 1.263 . S
C413 O414 1.235 . S
C413 O440 1.289 . S
O414 C413 1.235 . S
C415 C417 1.400 . S
C415 N418 1.351 . S
C415 C420 1.501 . S
C416 C417 1.387 . S
C416 N419 1.341 . S
C417 C415 1.400 . S
C417 C416 1.387 . S
N418 Co409 2.022 . S
N418 C415 1.351 . S
N418 N419 1.365 . S
N419 C416 1.341 . S
N419 N418 1.365 . S
N419 H439 0.862 . S
C420 C415 1.501 . S
C420 H421 0.961 . S
C420 H422 0.961 . S
C420 H423 0.960 . S
H421 C420 0.961 . S
H422 C420 0.961 . S
H423 C420 0.960 . S
C424 N425 1.342 . S
C424 C428 1.401 . S
C424 C429 1.499 . S
N425 Co408 1.989 . S
N425 C424 1.342 . S
N425 N426 1.388 . S
N426 Co409 1.993 . S
N426 N425 1.388 . S
N426 C427 1.346 . S
C427 N426 1.346 . S
C427 C428 1.396 . S
C427 C437 1.510 . S
C428 C424 1.401 . S
C428 C427 1.396 . S
C429 C424 1.499 . S
C429 H430 0.959 . S
C429 H431 0.960 . S
C429 H432 0.961 . S
H430 C429 0.959 . S
H431 C429 0.960 . S
H432 C429 0.961 . S
O433 Co408 1.967 . S
O433 C441 1.258 . S
O434 Co409 1.941 . S
O434 C441 1.266 . S
H435 C437 0.959 . S
H436 C437 0.961 . S
C437 C427 1.510 . S
C437 H435 0.959 . S
C437 H436 0.961 . S
C437 H438 0.960 . S
H438 C437 0.960 . S
H439 N419 0.862 . S
O440 Co408 1.920 . S
O440 C413 1.289 . S
C441 O433 1.258 . S
C441 O434 1.266 . S
Co442 O445 1.970 . S
Co442 N459 1.989 . S
Co442 O467 1.967 . S
Co442 O474 1.920 . S
Co443 O446 1.966 . S
Co443 N452 2.022 . S
Co443 N460 1.993 . S
Co443 O468 1.941 . S
C444 O445 1.258 . S
C444 O446 1.263 . S
O445 Co442 1.970 . S
O445 C444 1.258 . S
O446 Co443 1.966 . S
O446 C444 1.263 . S
C447 O448 1.235 . S
C447 O474 1.289 . S
O448 C447 1.235 . S
C449 C451 1.400 . S
C449 N452 1.351 . S
C449 C454 1.501 . S
C450 C451 1.387 . S
C450 N453 1.341 . S
C451 C449 1.400 . S
C451 C450 1.387 . S
N452 Co443 2.022 . S
N452 C449 1.351 . S
N452 N453 1.365 . S
N453 C450 1.341 . S
N453 N452 1.365 . S
N453 H473 0.862 . S
C454 C449 1.501 . S
C454 H455 0.961 . S
C454 H456 0.961 . S
C454 H457 0.960 . S
H455 C454 0.961 . S
H456 C454 0.961 . S
H457 C454 0.960 . S
C458 N459 1.342 . S
C458 C462 1.401 . S
C458 C463 1.499 . S
N459 Co442 1.989 . S
N459 C458 1.342 . S
N459 N460 1.388 . S
N460 Co443 1.993 . S
N460 N459 1.388 . S
N460 C461 1.346 . S
C461 N460 1.346 . S
C461 C462 1.396 . S
C461 C471 1.510 . S
C462 C458 1.401 . S
C462 C461 1.396 . S
C463 C458 1.499 . S
C463 H464 0.959 . S
C463 H465 0.960 . S
C463 H466 0.961 . S
H464 C463 0.959 . S
H465 C463 0.960 . S
H466 C463 0.961 . S
O467 Co442 1.967 . S
O467 C475 1.258 . S
O468 Co443 1.941 . S
O468 C475 1.266 . S
H469 C471 0.959 . S
H470 C471 0.961 . S
C471 C461 1.510 . S
C471 H469 0.959 . S
C471 H470 0.961 . S
C471 H472 0.960 . S
H472 C471 0.960 . S
H473 N453 0.862 . S
O474 Co442 1.920 . S
O474 C447 1.289 . S
C475 O467 1.258 . S
C475 O468 1.266 . S
Co476 O479 1.970 . S
Co476 N493 1.989 . S
Co476 O501 1.967 . S
Co476 O508 1.920 . S
Co477 O480 1.966 . S
Co477 N486 2.022 . S
Co477 N494 1.993 . S
Co477 O502 1.941 . S
C478 O479 1.258 . S
C478 O480 1.263 . S
O479 Co476 1.970 . S
O479 C478 1.258 . S
O480 Co477 1.966 . S
O480 C478 1.263 . S
C481 O482 1.235 . S
C481 O508 1.289 . S
O482 C481 1.235 . S
C483 C485 1.400 . S
C483 N486 1.351 . S
C483 C488 1.501 . S
C484 C485 1.387 . S
C484 N487 1.341 . S
C485 C483 1.400 . S
C485 C484 1.387 . S
N486 Co477 2.022 . S
N486 C483 1.351 . S
N486 N487 1.365 . S
N487 C484 1.341 . S
N487 N486 1.365 . S
N487 H507 0.862 . S
C488 C483 1.501 . S
C488 H489 0.961 . S
C488 H490 0.961 . S
C488 H491 0.960 . S
H489 C488 0.961 . S
H490 C488 0.961 . S
H491 C488 0.960 . S
C492 N493 1.342 . S
C492 C496 1.401 . S
C492 C497 1.499 . S
N493 Co476 1.989 . S
N493 C492 1.342 . S
N493 N494 1.388 . S
N494 Co477 1.993 . S
N494 N493 1.388 . S
N494 C495 1.346 . S
C495 N494 1.346 . S
C495 C496 1.396 . S
C495 C505 1.510 . S
C496 C492 1.401 . S
C496 C495 1.396 . S
C497 C492 1.499 . S
C497 H498 0.959 . S
C497 H499 0.960 . S
C497 H500 0.961 . S
H498 C497 0.959 . S
H499 C497 0.960 . S
H500 C497 0.961 . S
O501 Co476 1.967 . S
O501 C509 1.258 . S
O502 Co477 1.941 . S
O502 C509 1.266 . S
H503 C505 0.959 . S
H504 C505 0.961 . S
C505 C495 1.510 . S
C505 H503 0.959 . S
C505 H504 0.961 . S
C505 H506 0.960 . S
H506 C505 0.960 . S
H507 N487 0.862 . S
O508 Co476 1.920 . S
O508 C481 1.289 . S
C509 O501 1.258 . S
C509 O502 1.266 . S
Co510 O513 1.970 . S
Co510 N527 1.989 . S
Co510 O535 1.967 . S
Co510 O542 1.920 . S
Co511 O514 1.966 . S
Co511 N520 2.022 . S
Co511 N528 1.993 . S
Co511 O536 1.941 . S
C512 O513 1.258 . S
C512 O514 1.263 . S
O513 Co510 1.970 . S
O513 C512 1.258 . S
O514 Co511 1.966 . S
O514 C512 1.263 . S
C515 O516 1.235 . S
C515 O542 1.289 . S
O516 C515 1.235 . S
C517 C519 1.400 . S
C517 N520 1.351 . S
C517 C522 1.501 . S
C518 C519 1.387 . S
C518 N521 1.341 . S
C519 C517 1.400 . S
C519 C518 1.387 . S
N520 Co511 2.022 . S
N520 C517 1.351 . S
N520 N521 1.365 . S
N521 C518 1.341 . S
N521 N520 1.365 . S
N521 H541 0.862 . S
C522 C517 1.501 . S
C522 H523 0.961 . S
C522 H524 0.961 . S
C522 H525 0.960 . S
H523 C522 0.961 . S
H524 C522 0.961 . S
H525 C522 0.960 . S
C526 N527 1.342 . S
C526 C530 1.401 . S
C526 C531 1.499 . S
N527 Co510 1.989 . S
N527 C526 1.342 . S
N527 N528 1.388 . S
N528 Co511 1.993 . S
N528 N527 1.388 . S
N528 C529 1.346 . S
C529 N528 1.346 . S
C529 C530 1.396 . S
C529 C539 1.510 . S
C530 C526 1.401 . S
C530 C529 1.396 . S
C531 C526 1.499 . S
C531 H532 0.959 . S
C531 H533 0.960 . S
C531 H534 0.961 . S
H532 C531 0.959 . S
H533 C531 0.960 . S
H534 C531 0.961 . S
O535 Co510 1.967 . S
O535 C543 1.258 . S
O536 Co511 1.941 . S
O536 C543 1.266 . S
H537 C539 0.959 . S
H538 C539 0.961 . S
C539 C529 1.510 . S
C539 H537 0.959 . S
C539 H538 0.961 . S
C539 H540 0.960 . S
H540 C539 0.960 . S
H541 N521 0.862 . S
O542 Co510 1.920 . S
O542 C515 1.289 . S
C543 O535 1.258 . S
C543 O536 1.266 . S
Co544 O547 1.970 . S
Co544 N561 1.989 . S
Co544 O569 1.967 . S
Co544 O576 1.920 . S
Co545 O548 1.966 . S
Co545 N554 2.022 . S
Co545 N562 1.993 . S
Co545 O570 1.941 . S
C546 O547 1.258 . S
C546 O548 1.263 . S
O547 Co544 1.970 . S
O547 C546 1.258 . S
O548 Co545 1.966 . S
O548 C546 1.263 . S
C549 O550 1.235 . S
C549 O576 1.289 . S
O550 C549 1.235 . S
C551 C553 1.400 . S
C551 N554 1.351 . S
C551 C556 1.501 . S
C552 C553 1.387 . S
C552 N555 1.341 . S
C553 C551 1.400 . S
C553 C552 1.387 . S
N554 Co545 2.022 . S
N554 C551 1.351 . S
N554 N555 1.365 . S
N555 C552 1.341 . S
N555 N554 1.365 . S
N555 H575 0.862 . S
C556 C551 1.501 . S
C556 H557 0.961 . S
C556 H558 0.961 . S
C556 H559 0.960 . S
H557 C556 0.961 . S
H558 C556 0.961 . S
H559 C556 0.960 . S
C560 N561 1.342 . S
C560 C564 1.401 . S
C560 C565 1.499 . S
N561 Co544 1.989 . S
N561 C560 1.342 . S
N561 N562 1.388 . S
N562 Co545 1.993 . S
N562 N561 1.388 . S
N562 C563 1.346 . S
C563 N562 1.346 . S
C563 C564 1.396 . S
C563 C573 1.510 . S
C564 C560 1.401 . S
C564 C563 1.396 . S
C565 C560 1.499 . S
C565 H566 0.959 . S
C565 H567 0.960 . S
C565 H568 0.961 . S
H566 C565 0.959 . S
H567 C565 0.960 . S
H568 C565 0.961 . S
O569 Co544 1.967 . S
O569 C577 1.258 . S
O570 Co545 1.941 . S
O570 C577 1.266 . S
H571 C573 0.959 . S
H572 C573 0.961 . S
C573 C563 1.510 . S
C573 H571 0.959 . S
C573 H572 0.961 . S
C573 H574 0.960 . S
H574 C573 0.960 . S
H575 N555 0.862 . S
O576 Co544 1.920 . S
O576 C549 1.289 . S
C577 O569 1.258 . S
C577 O570 1.266 . S
Co578 O581 1.970 . S
Co578 N595 1.989 . S
Co578 O603 1.967 . S
Co578 O610 1.920 . S
Co579 O582 1.966 . S
Co579 N588 2.022 . S
Co579 N596 1.993 . S
Co579 O604 1.941 . S
C580 O581 1.258 . S
C580 O582 1.263 . S
O581 Co578 1.970 . S
O581 C580 1.258 . S
O582 Co579 1.966 . S
O582 C580 1.263 . S
C583 O584 1.235 . S
C583 O610 1.289 . S
O584 C583 1.235 . S
C585 C587 1.400 . S
C585 N588 1.351 . S
C585 C590 1.501 . S
C586 C587 1.387 . S
C586 N589 1.341 . S
C587 C585 1.400 . S
C587 C586 1.387 . S
N588 Co579 2.022 . S
N588 C585 1.351 . S
N588 N589 1.365 . S
N589 C586 1.341 . S
N589 N588 1.365 . S
N589 H609 0.862 . S
C590 C585 1.501 . S
C590 H591 0.961 . S
C590 H592 0.961 . S
C590 H593 0.960 . S
H591 C590 0.961 . S
H592 C590 0.961 . S
H593 C590 0.960 . S
C594 N595 1.342 . S
C594 C598 1.401 . S
C594 C599 1.499 . S
N595 Co578 1.989 . S
N595 C594 1.342 . S
N595 N596 1.388 . S
N596 Co579 1.993 . S
N596 N595 1.388 . S
N596 C597 1.346 . S
C597 N596 1.346 . S
C597 C598 1.396 . S
C597 C607 1.510 . S
C598 C594 1.401 . S
C598 C597 1.396 . S
C599 C594 1.499 . S
C599 H600 0.959 . S
C599 H601 0.960 . S
C599 H602 0.961 . S
H600 C599 0.959 . S
H601 C599 0.960 . S
H602 C599 0.961 . S
O603 Co578 1.967 . S
O603 C611 1.258 . S
O604 Co579 1.941 . S
O604 C611 1.266 . S
H605 C607 0.959 . S
H606 C607 0.961 . S
C607 C597 1.510 . S
C607 H605 0.959 . S
C607 H606 0.961 . S
C607 H608 0.960 . S
H608 C607 0.960 . S
H609 N589 0.862 . S
O610 Co578 1.920 . S
O610 C583 1.289 . S
C611 O603 1.258 . S
C611 O604 1.266 . S
Co612 O615 1.970 . S
Co612 N629 1.989 . S
Co612 O637 1.967 . S
Co612 O644 1.920 . S
Co613 O616 1.966 . S
Co613 N622 2.022 . S
Co613 N630 1.993 . S
Co613 O638 1.941 . S
C614 O615 1.258 . S
C614 O616 1.263 . S
O615 Co612 1.970 . S
O615 C614 1.258 . S
O616 Co613 1.966 . S
O616 C614 1.263 . S
C617 O618 1.235 . S
C617 O644 1.289 . S
O618 C617 1.235 . S
C619 C621 1.400 . S
C619 N622 1.351 . S
C619 C624 1.501 . S
C620 C621 1.387 . S
C620 N623 1.341 . S
C621 C619 1.400 . S
C621 C620 1.387 . S
N622 Co613 2.022 . S
N622 C619 1.351 . S
N622 N623 1.365 . S
N623 C620 1.341 . S
N623 N622 1.365 . S
N623 H643 0.862 . S
C624 C619 1.501 . S
C624 H625 0.961 . S
C624 H626 0.961 . S
C624 H627 0.960 . S
H625 C624 0.961 . S
H626 C624 0.961 . S
H627 C624 0.960 . S
C628 N629 1.342 . S
C628 C632 1.401 . S
C628 C633 1.499 . S
N629 Co612 1.989 . S
N629 C628 1.342 . S
N629 N630 1.388 . S
N630 Co613 1.993 . S
N630 N629 1.388 . S
N630 C631 1.346 . S
C631 N630 1.346 . S
C631 C632 1.396 . S
C631 C641 1.510 . S
C632 C628 1.401 . S
C632 C631 1.396 . S
C633 C628 1.499 . S
C633 H634 0.959 . S
C633 H635 0.960 . S
C633 H636 0.961 . S
H634 C633 0.959 . S
H635 C633 0.960 . S
H636 C633 0.961 . S
O637 Co612 1.967 . S
O637 C645 1.258 . S
O638 Co613 1.941 . S
O638 C645 1.266 . S
H639 C641 0.959 . S
H640 C641 0.961 . S
C641 C631 1.510 . S
C641 H639 0.959 . S
C641 H640 0.961 . S
C641 H642 0.960 . S
H642 C641 0.960 . S
H643 N623 0.862 . S
O644 Co612 1.920 . S
O644 C617 1.289 . S
C645 O637 1.258 . S
C645 O638 1.266 . S
Co646 O649 1.970 . S
Co646 N663 1.989 . S
Co646 O671 1.967 . S
Co646 O678 1.920 . S
Co647 O650 1.966 . S
Co647 N656 2.022 . S
Co647 N664 1.993 . S
Co647 O672 1.941 . S
C648 O649 1.258 . S
C648 O650 1.263 . S
O649 Co646 1.970 . S
O649 C648 1.258 . S
O650 Co647 1.966 . S
O650 C648 1.263 . S
C651 O652 1.235 . S
C651 O678 1.289 . S
O652 C651 1.235 . S
C653 C655 1.400 . S
C653 N656 1.351 . S
C653 C658 1.501 . S
C654 C655 1.387 . S
C654 N657 1.341 . S
C655 C653 1.400 . S
C655 C654 1.387 . S
N656 Co647 2.022 . S
N656 C653 1.351 . S
N656 N657 1.365 . S
N657 C654 1.341 . S
N657 N656 1.365 . S
N657 H677 0.862 . S
C658 C653 1.501 . S
C658 H659 0.961 . S
C658 H660 0.961 . S
C658 H661 0.960 . S
H659 C658 0.961 . S
H660 C658 0.961 . S
H661 C658 0.960 . S
C662 N663 1.342 . S
C662 C666 1.401 . S
C662 C667 1.499 . S
N663 Co646 1.989 . S
N663 C662 1.342 . S
N663 N664 1.388 . S
N664 Co647 1.993 . S
N664 N663 1.388 . S
N664 C665 1.346 . S
C665 N664 1.346 . S
C665 C666 1.396 . S
C665 C675 1.510 . S
C666 C662 1.401 . S
C666 C665 1.396 . S
C667 C662 1.499 . S
C667 H668 0.959 . S
C667 H669 0.960 . S
C667 H670 0.961 . S
H668 C667 0.959 . S
H669 C667 0.960 . S
H670 C667 0.961 . S
O671 Co646 1.967 . S
O671 C679 1.258 . S
O672 Co647 1.941 . S
O672 C679 1.266 . S
H673 C675 0.959 . S
H674 C675 0.961 . S
C675 C665 1.510 . S
C675 H673 0.959 . S
C675 H674 0.961 . S
C675 H676 0.960 . S
H676 C675 0.960 . S
H677 N657 0.862 . S
O678 Co646 1.920 . S
O678 C651 1.289 . S
C679 O671 1.258 . S
C679 O672 1.266 . S
Co680 O683 1.970 . S
Co680 N697 1.989 . S
Co680 O705 1.967 . S
Co680 O712 1.920 . S
Co681 O684 1.966 . S
Co681 N690 2.022 . S
Co681 N698 1.993 . S
Co681 O706 1.941 . S
C682 O683 1.258 . S
C682 O684 1.263 . S
O683 Co680 1.970 . S
O683 C682 1.258 . S
O684 Co681 1.966 . S
O684 C682 1.263 . S
C685 O686 1.235 . S
C685 O712 1.289 . S
O686 C685 1.235 . S
C687 C689 1.400 . S
C687 N690 1.351 . S
C687 C692 1.501 . S
C688 C689 1.387 . S
C688 N691 1.341 . S
C689 C687 1.400 . S
C689 C688 1.387 . S
N690 Co681 2.022 . S
N690 C687 1.351 . S
N690 N691 1.365 . S
N691 C688 1.341 . S
N691 N690 1.365 . S
N691 H711 0.862 . S
C692 C687 1.501 . S
C692 H693 0.961 . S
C692 H694 0.961 . S
C692 H695 0.960 . S
H693 C692 0.961 . S
H694 C692 0.961 . S
H695 C692 0.960 . S
C696 N697 1.342 . S
C696 C700 1.401 . S
C696 C701 1.499 . S
N697 Co680 1.989 . S
N697 C696 1.342 . S
N697 N698 1.388 . S
N698 Co681 1.993 . S
N698 N697 1.388 . S
N698 C699 1.346 . S
C699 N698 1.346 . S
C699 C700 1.396 . S
C699 C709 1.510 . S
C700 C696 1.401 . S
C700 C699 1.396 . S
C701 C696 1.499 . S
C701 H702 0.959 . S
C701 H703 0.960 . S
C701 H704 0.961 . S
H702 C701 0.959 . S
H703 C701 0.960 . S
H704 C701 0.961 . S
O705 Co680 1.967 . S
O705 C713 1.258 . S
O706 Co681 1.941 . S
O706 C713 1.266 . S
H707 C709 0.959 . S
H708 C709 0.961 . S
C709 C699 1.510 . S
C709 H707 0.959 . S
C709 H708 0.961 . S
C709 H710 0.960 . S
H710 C709 0.960 . S
H711 N691 0.862 . S
O712 Co680 1.920 . S
O712 C685 1.289 . S
C713 O705 1.258 . S
C713 O706 1.266 . S
Co714 O717 1.970 . S
Co714 N731 1.989 . S
Co714 O739 1.967 . S
Co714 O746 1.920 . S
Co715 O718 1.966 . S
Co715 N724 2.022 . S
Co715 N732 1.993 . S
Co715 O740 1.941 . S
C716 O717 1.258 . S
C716 O718 1.263 . S
O717 Co714 1.970 . S
O717 C716 1.258 . S
O718 Co715 1.966 . S
O718 C716 1.263 . S
C719 O720 1.235 . S
C719 O746 1.289 . S
O720 C719 1.235 . S
C721 C723 1.400 . S
C721 N724 1.351 . S
C721 C726 1.501 . S
C722 C723 1.387 . S
C722 N725 1.341 . S
C723 C721 1.400 . S
C723 C722 1.387 . S
N724 Co715 2.022 . S
N724 C721 1.351 . S
N724 N725 1.365 . S
N725 C722 1.341 . S
N725 N724 1.365 . S
N725 H745 0.862 . S
C726 C721 1.501 . S
C726 H727 0.961 . S
C726 H728 0.961 . S
C726 H729 0.960 . S
H727 C726 0.961 . S
H728 C726 0.961 . S
H729 C726 0.960 . S
C730 N731 1.342 . S
C730 C734 1.401 . S
C730 C735 1.499 . S
N731 Co714 1.989 . S
N731 C730 1.342 . S
N731 N732 1.388 . S
N732 Co715 1.993 . S
N732 N731 1.388 . S
N732 C733 1.346 . S
C733 N732 1.346 . S
C733 C734 1.396 . S
C733 C743 1.510 . S
C734 C730 1.401 . S
C734 C733 1.396 . S
C735 C730 1.499 . S
C735 H736 0.959 . S
C735 H737 0.960 . S
C735 H738 0.961 . S
H736 C735 0.959 . S
H737 C735 0.960 . S
H738 C735 0.961 . S
O739 Co714 1.967 . S
O739 C747 1.258 . S
O740 Co715 1.941 . S
O740 C747 1.266 . S
H741 C743 0.959 . S
H742 C743 0.961 . S
C743 C733 1.510 . S
C743 H741 0.959 . S
C743 H742 0.961 . S
C743 H744 0.960 . S
H744 C743 0.960 . S
H745 N725 0.862 . S
O746 Co714 1.920 . S
O746 C719 1.289 . S
C747 O739 1.258 . S
C747 O740 1.266 . S
Co748 O751 1.970 . S
Co748 N765 1.989 . S
Co748 O773 1.967 . S
Co748 O780 1.920 . S
Co749 O752 1.966 . S
Co749 N758 2.022 . S
Co749 N766 1.993 . S
Co749 O774 1.941 . S
C750 O751 1.258 . S
C750 O752 1.263 . S
O751 Co748 1.970 . S
O751 C750 1.258 . S
O752 Co749 1.966 . S
O752 C750 1.263 . S
C753 O754 1.235 . S
C753 O780 1.289 . S
O754 C753 1.235 . S
C755 C757 1.400 . S
C755 N758 1.351 . S
C755 C760 1.501 . S
C756 C757 1.387 . S
C756 N759 1.341 . S
C757 C755 1.400 . S
C757 C756 1.387 . S
N758 Co749 2.022 . S
N758 C755 1.351 . S
N758 N759 1.365 . S
N759 C756 1.341 . S
N759 N758 1.365 . S
N759 H779 0.862 . S
C760 C755 1.501 . S
C760 H761 0.961 . S
C760 H762 0.961 . S
C760 H763 0.960 . S
H761 C760 0.961 . S
H762 C760 0.961 . S
H763 C760 0.960 . S
C764 N765 1.342 . S
C764 C768 1.401 . S
C764 C769 1.499 . S
N765 Co748 1.989 . S
N765 C764 1.342 . S
N765 N766 1.388 . S
N766 Co749 1.993 . S
N766 N765 1.388 . S
N766 C767 1.346 . S
C767 N766 1.346 . S
C767 C768 1.396 . S
C767 C777 1.510 . S
C768 C764 1.401 . S
C768 C767 1.396 . S
C769 C764 1.499 . S
C769 H770 0.959 . S
C769 H771 0.960 . S
C769 H772 0.961 . S
H770 C769 0.959 . S
H771 C769 0.960 . S
H772 C769 0.961 . S
O773 Co748 1.967 . S
O773 C781 1.258 . S
O774 Co749 1.941 . S
O774 C781 1.266 . S
H775 C777 0.959 . S
H776 C777 0.961 . S
C777 C767 1.510 . S
C777 H775 0.959 . S
C777 H776 0.961 . S
C777 H778 0.960 . S
H778 C777 0.960 . S
H779 N759 0.862 . S
O780 Co748 1.920 . S
O780 C753 1.289 . S
C781 O773 1.258 . S
C781 O774 1.266 . S
Co782 O785 1.970 . S
Co782 N799 1.989 . S
Co782 O807 1.967 . S
Co782 O814 1.920 . S
Co783 O786 1.966 . S
Co783 N792 2.022 . S
Co783 N800 1.993 . S
Co783 O808 1.941 . S
C784 O785 1.258 . S
C784 O786 1.263 . S
O785 Co782 1.970 . S
O785 C784 1.258 . S
O786 Co783 1.966 . S
O786 C784 1.263 . S
C787 O788 1.235 . S
C787 O814 1.289 . S
O788 C787 1.235 . S
C789 C791 1.400 . S
C789 N792 1.351 . S
C789 C794 1.501 . S
C790 C791 1.387 . S
C790 N793 1.341 . S
C791 C789 1.400 . S
C791 C790 1.387 . S
N792 Co783 2.022 . S
N792 C789 1.351 . S
N792 N793 1.365 . S
N793 C790 1.341 . S
N793 N792 1.365 . S
N793 H813 0.862 . S
C794 C789 1.501 . S
C794 H795 0.961 . S
C794 H796 0.961 . S
C794 H797 0.960 . S
H795 C794 0.961 . S
H796 C794 0.961 . S
H797 C794 0.960 . S
C798 N799 1.342 . S
C798 C802 1.401 . S
C798 C803 1.499 . S
N799 Co782 1.989 . S
N799 C798 1.342 . S
N799 N800 1.388 . S
N800 Co783 1.993 . S
N800 N799 1.388 . S
N800 C801 1.346 . S
C801 N800 1.346 . S
C801 C802 1.396 . S
C801 C811 1.510 . S
C802 C798 1.401 . S
C802 C801 1.396 . S
C803 C798 1.499 . S
C803 H804 0.959 . S
C803 H805 0.960 . S
C803 H806 0.961 . S
H804 C803 0.959 . S
H805 C803 0.960 . S
H806 C803 0.961 . S
O807 Co782 1.967 . S
O807 C815 1.258 . S
O808 Co783 1.941 . S
O808 C815 1.266 . S
H809 C811 0.959 . S
H810 C811 0.961 . S
C811 C801 1.510 . S
C811 H809 0.959 . S
C811 H810 0.961 . S
C811 H812 0.960 . S
H812 C811 0.960 . S
H813 N793 0.862 . S
O814 Co782 1.920 . S
O814 C787 1.289 . S
C815 O807 1.258 . S
C815 O808 1.266 . S
C816 C817 1.363 . S
C816 C822 1.379 1_655 S
C816 N824 1.356 . S
C817 C816 1.363 . S
C817 C823 1.363 . S
C818 C819 1.363 . S
C818 C823 1.379 1_455 S
C818 N825 1.356 . S
C819 C818 1.363 . S
C819 C822 1.363 . S
N820 C822 1.356 . S
N820 H832 0.984 . S
N820 H833 0.985 . S
N821 C823 1.356 . S
N821 H826 0.984 . S
N821 H827 0.985 . S
C822 C816 1.379 1_455 S
C822 C819 1.363 . S
C822 N820 1.356 . S
C823 C817 1.363 . S
C823 C818 1.379 1_655 S
C823 N821 1.356 . S
N824 C816 1.356 . S
N824 H830 0.984 . S
N824 H831 0.984 . S
N825 C818 1.356 . S
N825 H828 0.984 . S
N825 H829 0.985 . S
H826 N821 0.984 . S
H827 N821 0.985 . S
H828 N825 0.984 . S
H829 N825 0.985 . S
H830 N824 0.984 . S
H831 N824 0.984 . S
H832 N820 0.984 . S
H833 N820 0.985 . S
C834 C835 1.363 . S
C834 C840 1.379 1_565 S
C834 N842 1.356 . S
C835 C834 1.363 . S
C835 C841 1.363 . S
C836 C837 1.363 . S
C836 C841 1.379 1_545 S
C836 N843 1.356 . S
C837 C836 1.363 . S
C837 C840 1.363 . S
N838 C840 1.356 . S
N838 H850 0.984 . S
N838 H851 0.985 . S
N839 C841 1.356 . S
N839 H844 0.984 . S
N839 H845 0.985 . S
C840 C834 1.379 1_545 S
C840 C837 1.363 . S
C840 N838 1.356 . S
C841 C835 1.363 . S
C841 C836 1.379 1_565 S
C841 N839 1.356 . S
N842 C834 1.356 . S
N842 H848 0.984 . S
N842 H849 0.984 . S
N843 C836 1.356 . S
N843 H846 0.984 . S
N843 H847 0.985 . S
H844 N839 0.984 . S
H845 N839 0.985 . S
H846 N843 0.984 . S
H847 N843 0.985 . S
H848 N842 0.984 . S
H849 N842 0.984 . S
H850 N838 0.984 . S
H851 N838 0.985 . S
C852 C853 1.363 . S
C852 C858 1.379 1_455 S
C852 N860 1.356 . S
C853 C852 1.363 . S
C853 C859 1.363 . S
C854 C855 1.363 . S
C854 C859 1.379 1_655 S
C854 N861 1.356 . S
C855 C854 1.363 . S
C855 C858 1.363 . S
N856 C858 1.356 . S
N856 H868 0.984 . S
N856 H869 0.985 . S
N857 C859 1.356 . S
N857 H862 0.984 . S
N857 H863 0.985 . S
C858 C852 1.379 1_655 S
C858 C855 1.363 . S
C858 N856 1.356 . S
C859 C853 1.363 . S
C859 C854 1.379 1_455 S
C859 N857 1.356 . S
N860 C852 1.356 . S
N860 H866 0.984 . S
N860 H867 0.984 . S
N861 C854 1.356 . S
N861 H864 0.984 . S
N861 H865 0.985 . S
H862 N857 0.984 . S
H863 N857 0.985 . S
H864 N861 0.984 . S
H865 N861 0.985 . S
H866 N860 0.984 . S
H867 N860 0.984 . S
H868 N856 0.984 . S
H869 N856 0.985 . S
C870 C871 1.363 . S
C870 C876 1.379 1_565 S
C870 N878 1.356 . S
C871 C870 1.363 . S
C871 C877 1.363 . S
C872 C873 1.363 . S
C872 C877 1.379 1_545 S
C872 N879 1.356 . S
C873 C872 1.363 . S
C873 C876 1.363 . S
N874 C876 1.356 . S
N874 H886 0.984 . S
N874 H887 0.985 . S
N875 C877 1.356 . S
N875 H880 0.984 . S
N875 H881 0.985 . S
C876 C870 1.379 1_545 S
C876 C873 1.363 . S
C876 N874 1.356 . S
C877 C871 1.363 . S
C877 C872 1.379 1_565 S
C877 N875 1.356 . S
N878 C870 1.356 . S
N878 H884 0.984 . S
N878 H885 0.984 . S
N879 C872 1.356 . S
N879 H882 0.984 . S
N879 H883 0.985 . S
H880 N875 0.984 . S
H881 N875 0.985 . S
H882 N879 0.984 . S
H883 N879 0.985 . S
H884 N878 0.984 . S
H885 N878 0.984 . S
H886 N874 0.984 . S
H887 N874 0.985 . S
C888 C889 1.363 . S
C888 C894 1.379 1_655 S
C888 N896 1.356 . S
C889 C888 1.363 . S
C889 C895 1.363 . S
C890 C891 1.363 . S
C890 C895 1.379 1_455 S
C890 N897 1.356 . S
C891 C890 1.363 . S
C891 C894 1.363 . S
N892 C894 1.356 . S
N892 H904 0.984 . S
N892 H905 0.985 . S
N893 C895 1.356 . S
N893 H898 0.984 . S
N893 H899 0.985 . S
C894 C888 1.379 1_455 S
C894 C891 1.363 . S
C894 N892 1.356 . S
C895 C889 1.363 . S
C895 C890 1.379 1_655 S
C895 N893 1.356 . S
N896 C888 1.356 . S
N896 H902 0.984 . S
N896 H903 0.984 . S
N897 C890 1.356 . S
N897 H900 0.984 . S
N897 H901 0.985 . S
H898 N893 0.984 . S
H899 N893 0.985 . S
H900 N897 0.984 . S
H901 N897 0.985 . S
H902 N896 0.984 . S
H903 N896 0.984 . S
H904 N892 0.984 . S
H905 N892 0.985 . S
C906 C907 1.363 . S
C906 C912 1.379 1_545 S
C906 N914 1.356 . S
C907 C906 1.363 . S
C907 C913 1.363 . S
C908 C909 1.363 . S
C908 C913 1.379 1_565 S
C908 N915 1.356 . S
C909 C908 1.363 . S
C909 C912 1.363 . S
N910 C912 1.356 . S
N910 H922 0.984 . S
N910 H923 0.985 . S
N911 C913 1.356 . S
N911 H916 0.984 . S
N911 H917 0.985 . S
C912 C906 1.379 1_565 S
C912 C909 1.363 . S
C912 N910 1.356 . S
C913 C907 1.363 . S
C913 C908 1.379 1_545 S
C913 N911 1.356 . S
N914 C906 1.356 . S
N914 H920 0.984 . S
N914 H921 0.984 . S
N915 C908 1.356 . S
N915 H918 0.984 . S
N915 H919 0.985 . S
H916 N911 0.984 . S
H917 N911 0.985 . S
H918 N915 0.984 . S
H919 N915 0.985 . S
H920 N914 0.984 . S
H921 N914 0.984 . S
H922 N910 0.984 . S
H923 N910 0.985 . S
C924 C925 1.363 . S
C924 C930 1.379 1_655 S
C924 N932 1.356 . S
C925 C924 1.363 . S
C925 C931 1.363 . S
C926 C927 1.363 . S
C926 C931 1.379 1_455 S
C926 N933 1.356 . S
C927 C926 1.363 . S
C927 C930 1.363 . S
N928 C930 1.356 . S
N928 H940 0.984 . S
N928 H941 0.985 . S
N929 C931 1.356 . S
N929 H934 0.984 . S
N929 H935 0.985 . S
C930 C924 1.379 1_455 S
C930 C927 1.363 . S
C930 N928 1.356 . S
C931 C925 1.363 . S
C931 C926 1.379 1_655 S
C931 N929 1.356 . S
N932 C924 1.356 . S
N932 H938 0.984 . S
N932 H939 0.984 . S
N933 C926 1.356 . S
N933 H936 0.984 . S
N933 H937 0.985 . S
H934 N929 0.984 . S
H935 N929 0.985 . S
H936 N933 0.984 . S
H937 N933 0.985 . S
H938 N932 0.984 . S
H939 N932 0.984 . S
H940 N928 0.984 . S
H941 N928 0.985 . S
C942 C943 1.363 . S
C942 C948 1.379 1_565 S
C942 N950 1.356 . S
C943 C942 1.363 . S
C943 C949 1.363 . S
C944 C945 1.363 . S
C944 C949 1.379 1_545 S
C944 N951 1.356 . S
C945 C944 1.363 . S
C945 C948 1.363 . S
N946 C948 1.356 . S
N946 H958 0.984 . S
N946 H959 0.985 . S
N947 C949 1.356 . S
N947 H952 0.984 . S
N947 H953 0.985 . S
C948 C942 1.379 1_545 S
C948 C945 1.363 . S
C948 N946 1.356 . S
C949 C943 1.363 . S
C949 C944 1.379 1_565 S
C949 N947 1.356 . S
N950 C942 1.356 . S
N950 H956 0.984 . S
N950 H957 0.984 . S
N951 C944 1.356 . S
N951 H954 0.984 . S
N951 H955 0.985 . S
H952 N947 0.984 . S
H953 N947 0.985 . S
H954 N951 0.984 . S
H955 N951 0.985 . S
H956 N950 0.984 . S
H957 N950 0.984 . S
H958 N946 0.984 . S
H959 N946 0.985 . S
C960 C961 1.363 . S
C960 C966 1.379 1_554 S
C960 N968 1.356 . S
C961 C960 1.363 . S
C961 C967 1.363 . S
C962 C963 1.363 . S
C962 C967 1.379 1_556 S
C962 N969 1.356 . S
C963 C962 1.363 . S
C963 C966 1.363 . S
N964 C966 1.356 . S
N964 H976 0.984 . S
N964 H977 0.985 . S
N965 C967 1.356 . S
N965 H970 0.984 . S
N965 H971 0.985 . S
C966 C960 1.379 1_556 S
C966 C963 1.363 . S
C966 N964 1.356 . S
C967 C961 1.363 . S
C967 C962 1.379 1_554 S
C967 N965 1.356 . S
N968 C960 1.356 . S
N968 H974 0.984 . S
N968 H975 0.984 . S
N969 C962 1.356 . S
N969 H972 0.984 . S
N969 H973 0.985 . S
H970 N965 0.984 . S
H971 N965 0.985 . S
H972 N969 0.984 . S
H973 N969 0.985 . S
H974 N968 0.984 . S
H975 N968 0.984 . S
H976 N964 0.984 . S
H977 N964 0.985 . S
C978 C979 1.363 . S
C978 C984 1.379 1_554 S
C978 N986 1.356 . S
C979 C978 1.363 . S
C979 C985 1.363 . S
C980 C981 1.363 . S
C980 C985 1.379 1_556 S
C980 N987 1.356 . S
C981 C980 1.363 . S
C981 C984 1.363 . S
N982 C984 1.356 . S
N982 H994 0.984 . S
N982 H995 0.985 . S
N983 C985 1.356 . S
N983 H988 0.984 . S
N983 H989 0.985 . S
C984 C978 1.379 1_556 S
C984 C981 1.363 . S
C984 N982 1.356 . S
C985 C979 1.363 . S
C985 C980 1.379 1_554 S
C985 N983 1.356 . S
N986 C978 1.356 . S
N986 H992 0.984 . S
N986 H993 0.984 . S
N987 C980 1.356 . S
N987 H990 0.984 . S
N987 H991 0.985 . S
H988 N983 0.984 . S
H989 N983 0.985 . S
H990 N987 0.984 . S
H991 N987 0.985 . S
H992 N986 0.984 . S
H993 N986 0.984 . S
H994 N982 0.984 . S
H995 N982 0.985 . S
C996 C997 1.363 . S
C996 C1002 1.379 1_556 S
C996 N1004 1.356 . S
C997 C996 1.363 . S
C997 C1003 1.363 . S
C998 C999 1.363 . S
C998 C1003 1.379 1_554 S
C998 N1005 1.356 . S
C999 C998 1.363 . S
C999 C1002 1.363 . S
N1000 C1002 1.356 . S
N1000 H1012 0.984 . S
N1000 H1013 0.985 . S
N1001 C1003 1.356 . S
N1001 H1006 0.984 . S
N1001 H1007 0.985 . S
C1002 C996 1.379 1_554 S
C1002 C999 1.363 . S
C1002 N1000 1.356 . S
C1003 C997 1.363 . S
C1003 C998 1.379 1_556 S
C1003 N1001 1.356 . S
N1004 C996 1.356 . S
N1004 H1010 0.984 . S
N1004 H1011 0.984 . S
N1005 C998 1.356 . S
N1005 H1008 0.984 . S
N1005 H1009 0.985 . S
H1006 N1001 0.984 . S
H1007 N1001 0.985 . S
H1008 N1005 0.984 . S
H1009 N1005 0.985 . S
H1010 N1004 0.984 . S
H1011 N1004 0.984 . S
H1012 N1000 0.984 . S
H1013 N1000 0.985 . S
C1014 C1015 1.363 . S
C1014 C1020 1.379 1_554 S
C1014 N1022 1.356 . S
C1015 C1014 1.363 . S
C1015 C1021 1.363 . S
C1016 C1017 1.363 . S
C1016 C1021 1.379 1_556 S
C1016 N1023 1.356 . S
C1017 C1016 1.363 . S
C1017 C1020 1.363 . S
N1018 C1020 1.356 . S
N1018 H1030 0.984 . S
N1018 H1031 0.985 . S
N1019 C1021 1.356 . S
N1019 H1024 0.984 . S
N1019 H1025 0.985 . S
C1020 C1014 1.379 1_556 S
C1020 C1017 1.363 . S
C1020 N1018 1.356 . S
C1021 C1015 1.363 . S
C1021 C1016 1.379 1_554 S
C1021 N1019 1.356 . S
N1022 C1014 1.356 . S
N1022 H1028 0.984 . S
N1022 H1029 0.984 . S
N1023 C1016 1.356 . S
N1023 H1026 0.984 . S
N1023 H1027 0.985 . S
H1024 N1019 0.984 . S
H1025 N1019 0.985 . S
H1026 N1023 0.984 . S
H1027 N1023 0.985 . S
H1028 N1022 0.984 . S
H1029 N1022 0.984 . S
H1030 N1018 0.984 . S
H1031 N1018 0.985 . S
C1032 C1033 1.363 . S
C1032 C1038 1.379 . S
C1032 N1040 1.356 . S
C1033 C1032 1.363 . S
C1033 C1039 1.363 . S
C1034 C1035 1.363 . S
C1034 C1039 1.379 . S
C1034 N1041 1.356 . S
C1035 C1034 1.363 . S
C1035 C1038 1.363 . S
N1036 C1038 1.356 . S
N1036 H1048 0.984 . S
N1036 H1049 0.985 . S
N1037 C1039 1.356 . S
N1037 H1042 0.984 . S
N1037 H1043 0.985 . S
C1038 C1032 1.379 . S
C1038 C1035 1.363 . S
C1038 N1036 1.356 . S
C1039 C1033 1.363 . S
C1039 C1034 1.379 . S
C1039 N1037 1.356 . S
N1040 C1032 1.356 . S
N1040 H1046 0.984 . S
N1040 H1047 0.984 . S
N1041 C1034 1.356 . S
N1041 H1044 0.984 . S
N1041 H1045 0.985 . S
H1042 N1037 0.984 . S
H1043 N1037 0.985 . S
H1044 N1041 0.984 . S
H1045 N1041 0.985 . S
H1046 N1040 0.984 . S
H1047 N1040 0.984 . S
H1048 N1036 0.984 . S
H1049 N1036 0.985 . S
C1050 C1051 1.363 . S
C1050 C1056 1.379 . S
C1050 N1058 1.356 . S
C1051 C1050 1.363 . S
C1051 C1057 1.363 . S
C1052 C1053 1.363 . S
C1052 C1057 1.379 . S
C1052 N1059 1.356 . S
C1053 C1052 1.363 . S
C1053 C1056 1.363 . S
N1054 C1056 1.356 . S
N1054 H1066 0.984 . S
N1054 H1067 0.985 . S
N1055 C1057 1.356 . S
N1055 H1060 0.984 . S
N1055 H1061 0.985 . S
C1056 C1050 1.379 . S
C1056 C1053 1.363 . S
C1056 N1054 1.356 . S
C1057 C1051 1.363 . S
C1057 C1052 1.379 . S
C1057 N1055 1.356 . S
N1058 C1050 1.356 . S
N1058 H1064 0.984 . S
N1058 H1065 0.984 . S
N1059 C1052 1.356 . S
N1059 H1062 0.984 . S
N1059 H1063 0.985 . S
H1060 N1055 0.984 . S
H1061 N1055 0.985 . S
H1062 N1059 0.984 . S
H1063 N1059 0.985 . S
H1064 N1058 0.984 . S
H1065 N1058 0.984 . S
H1066 N1054 0.984 . S
H1067 N1054 0.985 . S
C1068 C1069 1.363 . S
C1068 C1074 1.379 . S
C1068 N1076 1.356 . S
C1069 C1068 1.363 . S
C1069 C1075 1.363 . S
C1070 C1071 1.363 . S
C1070 C1075 1.379 . S
C1070 N1077 1.356 . S
C1071 C1070 1.363 . S
C1071 C1074 1.363 . S
N1072 C1074 1.356 . S
N1072 H1084 0.984 . S
N1072 H1085 0.985 . S
N1073 C1075 1.356 . S
N1073 H1078 0.984 . S
N1073 H1079 0.985 . S
C1074 C1068 1.379 . S
C1074 C1071 1.363 . S
C1074 N1072 1.356 . S
C1075 C1069 1.363 . S
C1075 C1070 1.379 . S
C1075 N1073 1.356 . S
N1076 C1068 1.356 . S
N1076 H1082 0.984 . S
N1076 H1083 0.984 . S
N1077 C1070 1.356 . S
N1077 H1080 0.984 . S
N1077 H1081 0.985 . S
H1078 N1073 0.984 . S
H1079 N1073 0.985 . S
H1080 N1077 0.984 . S
H1081 N1077 0.985 . S
H1082 N1076 0.984 . S
H1083 N1076 0.984 . S
H1084 N1072 0.984 . S
H1085 N1072 0.985 . S
C1086 C1087 1.363 . S
C1086 C1092 1.379 . S
C1086 N1094 1.356 . S
C1087 C1086 1.363 . S
C1087 C1093 1.363 . S
C1088 C1089 1.363 . S
C1088 C1093 1.379 . S
C1088 N1095 1.356 . S
C1089 C1088 1.363 . S
C1089 C1092 1.363 . S
N1090 C1092 1.356 . S
N1090 H1102 0.984 . S
N1090 H1103 0.985 . S
N1091 C1093 1.356 . S
N1091 H1096 0.984 . S
N1091 H1097 0.985 . S
C1092 C1086 1.379 . S
C1092 C1089 1.363 . S
C1092 N1090 1.356 . S
C1093 C1087 1.363 . S
C1093 C1088 1.379 . S
C1093 N1091 1.356 . S
N1094 C1086 1.356 . S
N1094 H1100 0.984 . S
N1094 H1101 0.984 . S
N1095 C1088 1.356 . S
N1095 H1098 0.984 . S
N1095 H1099 0.985 . S
H1096 N1091 0.984 . S
H1097 N1091 0.985 . S
H1098 N1095 0.984 . S
H1099 N1095 0.985 . S
H1100 N1094 0.984 . S
H1101 N1094 0.984 . S
H1102 N1090 0.984 . S
H1103 N1090 0.985 . S
C1104 C1105 1.363 . S
C1104 C1110 1.379 . S
C1104 N1112 1.356 . S
C1105 C1104 1.363 . S
C1105 C1111 1.363 . S
C1106 C1107 1.363 . S
C1106 C1111 1.379 . S
C1106 N1113 1.356 . S
C1107 C1106 1.363 . S
C1107 C1110 1.363 . S
N1108 C1110 1.356 . S
N1108 H1120 0.984 . S
N1108 H1121 0.985 . S
N1109 C1111 1.356 . S
N1109 H1114 0.984 . S
N1109 H1115 0.985 . S
C1110 C1104 1.379 . S
C1110 C1107 1.363 . S
C1110 N1108 1.356 . S
C1111 C1105 1.363 . S
C1111 C1106 1.379 . S
C1111 N1109 1.356 . S
N1112 C1104 1.356 . S
N1112 H1118 0.984 . S
N1112 H1119 0.984 . S
N1113 C1106 1.356 . S
N1113 H1116 0.984 . S
N1113 H1117 0.985 . S
H1114 N1109 0.984 . S
H1115 N1109 0.985 . S
H1116 N1113 0.984 . S
H1117 N1113 0.985 . S
H1118 N1112 0.984 . S
H1119 N1112 0.984 . S
H1120 N1108 0.984 . S
H1121 N1108 0.985 . S
C1122 C1123 1.363 . S
C1122 C1128 1.379 . S
C1122 N1130 1.356 . S
C1123 C1122 1.363 . S
C1123 C1129 1.363 . S
C1124 C1125 1.363 . S
C1124 C1129 1.379 . S
C1124 N1131 1.356 . S
C1125 C1124 1.363 . S
C1125 C1128 1.363 . S
N1126 C1128 1.356 . S
N1126 H1138 0.984 . S
N1126 H1139 0.985 . S
N1127 C1129 1.356 . S
N1127 H1132 0.984 . S
N1127 H1133 0.985 . S
C1128 C1122 1.379 . S
C1128 C1125 1.363 . S
C1128 N1126 1.356 . S
C1129 C1123 1.363 . S
C1129 C1124 1.379 . S
C1129 N1127 1.356 . S
N1130 C1122 1.356 . S
N1130 H1136 0.984 . S
N1130 H1137 0.984 . S
N1131 C1124 1.356 . S
N1131 H1134 0.984 . S
N1131 H1135 0.985 . S
H1132 N1127 0.984 . S
H1133 N1127 0.985 . S
H1134 N1131 0.984 . S
H1135 N1131 0.985 . S
H1136 N1130 0.984 . S
H1137 N1130 0.984 . S
H1138 N1126 0.984 . S
H1139 N1126 0.985 . S
C1140 C1141 1.363 . S
C1140 C1146 1.379 . S
C1140 N1148 1.356 . S
C1141 C1140 1.363 . S
C1141 C1147 1.363 . S
C1142 C1143 1.363 . S
C1142 C1147 1.379 . S
C1142 N1149 1.356 . S
C1143 C1142 1.363 . S
C1143 C1146 1.363 . S
N1144 C1146 1.356 . S
N1144 H1156 0.984 . S
N1144 H1157 0.985 . S
N1145 C1147 1.356 . S
N1145 H1150 0.984 . S
N1145 H1151 0.985 . S
C1146 C1140 1.379 . S
C1146 C1143 1.363 . S
C1146 N1144 1.356 . S
C1147 C1141 1.363 . S
C1147 C1142 1.379 . S
C1147 N1145 1.356 . S
N1148 C1140 1.356 . S
N1148 H1154 0.984 . S
N1148 H1155 0.984 . S
N1149 C1142 1.356 . S
N1149 H1152 0.984 . S
N1149 H1153 0.985 . S
H1150 N1145 0.984 . S
H1151 N1145 0.985 . S
H1152 N1149 0.984 . S
H1153 N1149 0.985 . S
H1154 N1148 0.984 . S
H1155 N1148 0.984 . S
H1156 N1144 0.984 . S
H1157 N1144 0.985 . S
C1158 C1159 1.363 . S
C1158 C1164 1.379 . S
C1158 N1166 1.356 . S
C1159 C1158 1.363 . S
C1159 C1165 1.363 . S
C1160 C1161 1.363 . S
C1160 C1165 1.379 . S
C1160 N1167 1.356 . S
C1161 C1160 1.363 . S
C1161 C1164 1.363 . S
N1162 C1164 1.356 . S
N1162 H1174 0.984 . S
N1162 H1175 0.985 . S
N1163 C1165 1.356 . S
N1163 H1168 0.984 . S
N1163 H1169 0.985 . S
C1164 C1158 1.379 . S
C1164 C1161 1.363 . S
C1164 N1162 1.356 . S
C1165 C1159 1.363 . S
C1165 C1160 1.379 . S
C1165 N1163 1.356 . S
N1166 C1158 1.356 . S
N1166 H1172 0.984 . S
N1166 H1173 0.984 . S
N1167 C1160 1.356 . S
N1167 H1170 0.984 . S
N1167 H1171 0.985 . S
H1168 N1163 0.984 . S
H1169 N1163 0.985 . S
H1170 N1167 0.984 . S
H1171 N1167 0.985 . S
H1172 N1166 0.984 . S
H1173 N1166 0.984 . S
H1174 N1162 0.984 . S
H1175 N1162 0.985 . S
C1176 C1177 1.363 . S
C1176 C1182 1.379 . S
C1176 N1184 1.356 . S
C1177 C1176 1.363 . S
C1177 C1183 1.363 . S
C1178 C1179 1.363 . S
C1178 C1183 1.379 . S
C1178 N1185 1.356 . S
C1179 C1178 1.363 . S
C1179 C1182 1.363 . S
N1180 C1182 1.356 . S
N1180 H1192 0.984 . S
N1180 H1193 0.985 . S
N1181 C1183 1.356 . S
N1181 H1186 0.984 . S
N1181 H1187 0.985 . S
C1182 C1176 1.379 . S
C1182 C1179 1.363 . S
C1182 N1180 1.356 . S
C1183 C1177 1.363 . S
C1183 C1178 1.379 . S
C1183 N1181 1.356 . S
N1184 C1176 1.356 . S
N1184 H1190 0.984 . S
N1184 H1191 0.984 . S
N1185 C1178 1.356 . S
N1185 H1188 0.984 . S
N1185 H1189 0.985 . S
H1186 N1181 0.984 . S
H1187 N1181 0.985 . S
H1188 N1185 0.984 . S
H1189 N1185 0.985 . S
H1190 N1184 0.984 . S
H1191 N1184 0.984 . S
H1192 N1180 0.984 . S
H1193 N1180 0.985 . S
C1194 C1195 1.363 . S
C1194 C1200 1.379 . S
C1194 N1202 1.356 . S
C1195 C1194 1.363 . S
C1195 C1201 1.363 . S
C1196 C1197 1.363 . S
C1196 C1201 1.379 . S
C1196 N1203 1.356 . S
C1197 C1196 1.363 . S
C1197 C1200 1.363 . S
N1198 C1200 1.356 . S
N1198 H1210 0.984 . S
N1198 H1211 0.985 . S
N1199 C1201 1.356 . S
N1199 H1204 0.984 . S
N1199 H1205 0.985 . S
C1200 C1194 1.379 . S
C1200 C1197 1.363 . S
C1200 N1198 1.356 . S
C1201 C1195 1.363 . S
C1201 C1196 1.379 . S
C1201 N1199 1.356 . S
N1202 C1194 1.356 . S
N1202 H1208 0.984 . S
N1202 H1209 0.984 . S
N1203 C1196 1.356 . S
N1203 H1206 0.984 . S
N1203 H1207 0.985 . S
H1204 N1199 0.984 . S
H1205 N1199 0.985 . S
H1206 N1203 0.984 . S
H1207 N1203 0.985 . S
H1208 N1202 0.984 . S
H1209 N1202 0.984 . S
H1210 N1198 0.984 . S
H1211 N1198 0.985 . S
C1212 C1213 1.363 . S
C1212 C1218 1.379 . S
C1212 N1220 1.356 . S
C1213 C1212 1.363 . S
C1213 C1219 1.363 . S
C1214 C1215 1.363 . S
C1214 C1219 1.379 . S
C1214 N1221 1.356 . S
C1215 C1214 1.363 . S
C1215 C1218 1.363 . S
N1216 C1218 1.356 . S
N1216 H1228 0.984 . S
N1216 H1229 0.985 . S
N1217 C1219 1.356 . S
N1217 H1222 0.984 . S
N1217 H1223 0.985 . S
C1218 C1212 1.379 . S
C1218 C1215 1.363 . S
C1218 N1216 1.356 . S
C1219 C1213 1.363 . S
C1219 C1214 1.379 . S
C1219 N1217 1.356 . S
N1220 C1212 1.356 . S
N1220 H1226 0.984 . S
N1220 H1227 0.984 . S
N1221 C1214 1.356 . S
N1221 H1224 0.984 . S
N1221 H1225 0.985 . S
H1222 N1217 0.984 . S
H1223 N1217 0.985 . S
H1224 N1221 0.984 . S
H1225 N1221 0.985 . S
H1226 N1220 0.984 . S
H1227 N1220 0.984 . S
H1228 N1216 0.984 . S
H1229 N1216 0.985 . S
C1230 C1231 1.363 . S
C1230 C1236 1.379 . S
C1230 N1238 1.356 . S
C1231 C1230 1.363 . S
C1231 C1237 1.363 . S
C1232 C1233 1.363 . S
C1232 C1237 1.379 . S
C1232 N1239 1.356 . S
C1233 C1232 1.363 . S
C1233 C1236 1.363 . S
N1234 C1236 1.356 . S
N1234 H1246 0.984 . S
N1234 H1247 0.985 . S
N1235 C1237 1.356 . S
N1235 H1240 0.984 . S
N1235 H1241 0.985 . S
C1236 C1230 1.379 . S
C1236 C1233 1.363 . S
C1236 N1234 1.356 . S
C1237 C1231 1.363 . S
C1237 C1232 1.379 . S
C1237 N1235 1.356 . S
N1238 C1230 1.356 . S
N1238 H1244 0.984 . S
N1238 H1245 0.984 . S
N1239 C1232 1.356 . S
N1239 H1242 0.984 . S
N1239 H1243 0.985 . S
H1240 N1235 0.984 . S
H1241 N1235 0.985 . S
H1242 N1239 0.984 . S
H1243 N1239 0.985 . S
H1244 N1238 0.984 . S
H1245 N1238 0.984 . S
H1246 N1234 0.984 . S
H1247 N1234 0.985 . S
C1248 C1249 1.363 . S
C1248 C1254 1.379 . S
C1248 N1256 1.356 . S
C1249 C1248 1.363 . S
C1249 C1255 1.363 . S
C1250 C1251 1.363 . S
C1250 C1255 1.379 . S
C1250 N1257 1.356 . S
C1251 C1250 1.363 . S
C1251 C1254 1.363 . S
N1252 C1254 1.356 . S
N1252 H1264 0.984 . S
N1252 H1265 0.985 . S
N1253 C1255 1.356 . S
N1253 H1258 0.984 . S
N1253 H1259 0.985 . S
C1254 C1248 1.379 . S
C1254 C1251 1.363 . S
C1254 N1252 1.356 . S
C1255 C1249 1.363 . S
C1255 C1250 1.379 . S
C1255 N1253 1.356 . S
N1256 C1248 1.356 . S
N1256 H1262 0.984 . S
N1256 H1263 0.984 . S
N1257 C1250 1.356 . S
N1257 H1260 0.984 . S
N1257 H1261 0.985 . S
H1258 N1253 0.984 . S
H1259 N1253 0.985 . S
H1260 N1257 0.984 . S
H1261 N1257 0.985 . S
H1262 N1256 0.984 . S
H1263 N1256 0.984 . S
H1264 N1252 0.984 . S
H1265 N1252 0.985 . S
C1266 C1267 1.363 . S
C1266 C1272 1.379 . S
C1266 N1274 1.356 . S
C1267 C1266 1.363 . S
C1267 C1273 1.363 . S
C1268 C1269 1.363 . S
C1268 C1273 1.379 . S
C1268 N1275 1.356 . S
C1269 C1268 1.363 . S
C1269 C1272 1.363 . S
N1270 C1272 1.356 . S
N1270 H1282 0.984 . S
N1270 H1283 0.985 . S
N1271 C1273 1.356 . S
N1271 H1276 0.984 . S
N1271 H1277 0.985 . S
C1272 C1266 1.379 . S
C1272 C1269 1.363 . S
C1272 N1270 1.356 . S
C1273 C1267 1.363 . S
C1273 C1268 1.379 . S
C1273 N1271 1.356 . S
N1274 C1266 1.356 . S
N1274 H1280 0.984 . S
N1274 H1281 0.984 . S
N1275 C1268 1.356 . S
N1275 H1278 0.984 . S
N1275 H1279 0.985 . S
H1276 N1271 0.984 . S
H1277 N1271 0.985 . S
H1278 N1275 0.984 . S
H1279 N1275 0.985 . S
H1280 N1274 0.984 . S
H1281 N1274 0.984 . S
H1282 N1270 0.984 . S
H1283 N1270 0.985 . S
C1284 C1285 1.363 . S
C1284 C1290 1.379 . S
C1284 N1292 1.356 . S
C1285 C1284 1.363 . S
C1285 C1291 1.363 . S
C1286 C1287 1.363 . S
C1286 C1291 1.379 . S
C1286 N1293 1.356 . S
C1287 C1286 1.363 . S
C1287 C1290 1.363 . S
N1288 C1290 1.356 . S
N1288 H1300 0.984 . S
N1288 H1301 0.985 . S
N1289 C1291 1.356 . S
N1289 H1294 0.984 . S
N1289 H1295 0.985 . S
C1290 C1284 1.379 . S
C1290 C1287 1.363 . S
C1290 N1288 1.356 . S
C1291 C1285 1.363 . S
C1291 C1286 1.379 . S
C1291 N1289 1.356 . S
N1292 C1284 1.356 . S
N1292 H1298 0.984 . S
N1292 H1299 0.984 . S
N1293 C1286 1.356 . S
N1293 H1296 0.984 . S
N1293 H1297 0.985 . S
H1294 N1289 0.984 . S
H1295 N1289 0.985 . S
H1296 N1293 0.984 . S
H1297 N1293 0.985 . S
H1298 N1292 0.984 . S
H1299 N1292 0.984 . S
H1300 N1288 0.984 . S
H1301 N1288 0.985 . S
C1302 C1303 1.363 . S
C1302 C1308 1.379 . S
C1302 N1310 1.356 . S
C1303 C1302 1.363 . S
C1303 C1309 1.363 . S
C1304 C1305 1.363 . S
C1304 C1309 1.379 . S
C1304 N1311 1.356 . S
C1305 C1304 1.363 . S
C1305 C1308 1.363 . S
N1306 C1308 1.356 . S
N1306 H1318 0.984 . S
N1306 H1319 0.985 . S
N1307 C1309 1.356 . S
N1307 H1312 0.984 . S
N1307 H1313 0.985 . S
C1308 C1302 1.379 . S
C1308 C1305 1.363 . S
C1308 N1306 1.356 . S
C1309 C1303 1.363 . S
C1309 C1304 1.379 . S
C1309 N1307 1.356 . S
N1310 C1302 1.356 . S
N1310 H1316 0.984 . S
N1310 H1317 0.984 . S
N1311 C1304 1.356 . S
N1311 H1314 0.984 . S
N1311 H1315 0.985 . S
H1312 N1307 0.984 . S
H1313 N1307 0.985 . S
H1314 N1311 0.984 . S
H1315 N1311 0.985 . S
H1316 N1310 0.984 . S
H1317 N1310 0.984 . S
H1318 N1306 0.984 . S
H1319 N1306 0.985 . S
C1320 C1321 1.363 . S
C1320 C1326 1.379 . S
C1320 N1328 1.356 . S
C1321 C1320 1.363 . S
C1321 C1327 1.363 . S
C1322 C1323 1.363 . S
C1322 C1327 1.379 . S
C1322 N1329 1.356 . S
C1323 C1322 1.363 . S
C1323 C1326 1.363 . S
N1324 C1326 1.356 . S
N1324 H1336 0.984 . S
N1324 H1337 0.985 . S
N1325 C1327 1.356 . S
N1325 H1330 0.984 . S
N1325 H1331 0.985 . S
C1326 C1320 1.379 . S
C1326 C1323 1.363 . S
C1326 N1324 1.356 . S
C1327 C1321 1.363 . S
C1327 C1322 1.379 . S
C1327 N1325 1.356 . S
N1328 C1320 1.356 . S
N1328 H1334 0.984 . S
N1328 H1335 0.984 . S
N1329 C1322 1.356 . S
N1329 H1332 0.984 . S
N1329 H1333 0.985 . S
H1330 N1325 0.984 . S
H1331 N1325 0.985 . S
H1332 N1329 0.984 . S
H1333 N1329 0.985 . S
H1334 N1328 0.984 . S
H1335 N1328 0.984 . S
H1336 N1324 0.984 . S
H1337 N1324 0.985 . S
C1338 C1339 1.363 . S
C1338 C1344 1.379 . S
C1338 N1346 1.356 . S
C1339 C1338 1.363 . S
C1339 C1345 1.363 . S
C1340 C1341 1.363 . S
C1340 C1345 1.379 . S
C1340 N1347 1.356 . S
C1341 C1340 1.363 . S
C1341 C1344 1.363 . S
N1342 C1344 1.356 . S
N1342 H1354 0.984 . S
N1342 H1355 0.985 . S
N1343 C1345 1.356 . S
N1343 H1348 0.984 . S
N1343 H1349 0.985 . S
C1344 C1338 1.379 . S
C1344 C1341 1.363 . S
C1344 N1342 1.356 . S
C1345 C1339 1.363 . S
C1345 C1340 1.379 . S
C1345 N1343 1.356 . S
N1346 C1338 1.356 . S
N1346 H1352 0.984 . S
N1346 H1353 0.984 . S
N1347 C1340 1.356 . S
N1347 H1350 0.984 . S
N1347 H1351 0.985 . S
H1348 N1343 0.984 . S
H1349 N1343 0.985 . S
H1350 N1347 0.984 . S
H1351 N1347 0.985 . S
H1352 N1346 0.984 . S
H1353 N1346 0.984 . S
H1354 N1342 0.984 . S
H1355 N1342 0.985 . S
C1356 C1357 1.363 . S
C1356 C1362 1.379 . S
C1356 N1364 1.356 . S
C1357 C1356 1.363 . S
C1357 C1363 1.363 . S
C1358 C1359 1.363 . S
C1358 C1363 1.379 . S
C1358 N1365 1.356 . S
C1359 C1358 1.363 . S
C1359 C1362 1.363 . S
N1360 C1362 1.356 . S
N1360 H1372 0.984 . S
N1360 H1373 0.985 . S
N1361 C1363 1.356 . S
N1361 H1366 0.984 . S
N1361 H1367 0.985 . S
C1362 C1356 1.379 . S
C1362 C1359 1.363 . S
C1362 N1360 1.356 . S
C1363 C1357 1.363 . S
C1363 C1358 1.379 . S
C1363 N1361 1.356 . S
N1364 C1356 1.356 . S
N1364 H1370 0.984 . S
N1364 H1371 0.984 . S
N1365 C1358 1.356 . S
N1365 H1368 0.984 . S
N1365 H1369 0.985 . S
H1366 N1361 0.984 . S
H1367 N1361 0.985 . S
H1368 N1365 0.984 . S
H1369 N1365 0.985 . S
H1370 N1364 0.984 . S
H1371 N1364 0.984 . S
H1372 N1360 0.984 . S
H1373 N1360 0.985 . S
C1374 C1375 1.363 . S
C1374 C1380 1.379 . S
C1374 N1382 1.356 . S
C1375 C1374 1.363 . S
C1375 C1381 1.363 . S
C1376 C1377 1.363 . S
C1376 C1381 1.379 . S
C1376 N1383 1.356 . S
C1377 C1376 1.363 . S
C1377 C1380 1.363 . S
N1378 C1380 1.356 . S
N1378 H1390 0.984 . S
N1378 H1391 0.985 . S
N1379 C1381 1.356 . S
N1379 H1384 0.984 . S
N1379 H1385 0.985 . S
C1380 C1374 1.379 . S
C1380 C1377 1.363 . S
C1380 N1378 1.356 . S
C1381 C1375 1.363 . S
C1381 C1376 1.379 . S
C1381 N1379 1.356 . S
N1382 C1374 1.356 . S
N1382 H1388 0.984 . S
N1382 H1389 0.984 . S
N1383 C1376 1.356 . S
N1383 H1386 0.984 . S
N1383 H1387 0.985 . S
H1384 N1379 0.984 . S
H1385 N1379 0.985 . S
H1386 N1383 0.984 . S
H1387 N1383 0.985 . S
H1388 N1382 0.984 . S
H1389 N1382 0.984 . S
H1390 N1378 0.984 . S
H1391 N1378 0.985 . S
C1392 C1393 1.363 . S
C1392 C1398 1.379 . S
C1392 N1400 1.356 . S
C1393 C1392 1.363 . S
C1393 C1399 1.363 . S
C1394 C1395 1.363 . S
C1394 C1399 1.379 . S
C1394 N1401 1.356 . S
C1395 C1394 1.363 . S
C1395 C1398 1.363 . S
N1396 C1398 1.356 . S
N1396 H1408 0.984 . S
N1396 H1409 0.985 . S
N1397 C1399 1.356 . S
N1397 H1402 0.984 . S
N1397 H1403 0.985 . S
C1398 C1392 1.379 . S
C1398 C1395 1.363 . S
C1398 N1396 1.356 . S
C1399 C1393 1.363 . S
C1399 C1394 1.379 . S
C1399 N1397 1.356 . S
N1400 C1392 1.356 . S
N1400 H1406 0.984 . S
N1400 H1407 0.984 . S
N1401 C1394 1.356 . S
N1401 H1404 0.984 . S
N1401 H1405 0.985 . S
H1402 N1397 0.984 . S
H1403 N1397 0.985 . S
H1404 N1401 0.984 . S
H1405 N1401 0.985 . S
H1406 N1400 0.984 . S
H1407 N1400 0.984 . S
H1408 N1396 0.984 . S
H1409 N1396 0.985 . S
C1410 C1411 1.363 . S
C1410 C1416 1.379 . S
C1410 N1418 1.356 . S
C1411 C1410 1.363 . S
C1411 C1417 1.363 . S
C1412 C1413 1.363 . S
C1412 C1417 1.379 . S
C1412 N1419 1.356 . S
C1413 C1412 1.363 . S
C1413 C1416 1.363 . S
N1414 C1416 1.356 . S
N1414 H1426 0.984 . S
N1414 H1427 0.985 . S
N1415 C1417 1.356 . S
N1415 H1420 0.984 . S
N1415 H1421 0.985 . S
C1416 C1410 1.379 . S
C1416 C1413 1.363 . S
C1416 N1414 1.356 . S
C1417 C1411 1.363 . S
C1417 C1412 1.379 . S
C1417 N1415 1.356 . S
N1418 C1410 1.356 . S
N1418 H1424 0.984 . S
N1418 H1425 0.984 . S
N1419 C1412 1.356 . S
N1419 H1422 0.984 . S
N1419 H1423 0.985 . S
H1420 N1415 0.984 . S
H1421 N1415 0.985 . S
H1422 N1419 0.984 . S
H1423 N1419 0.985 . S
H1424 N1418 0.984 . S
H1425 N1418 0.984 . S
H1426 N1414 0.984 . S
H1427 N1414 0.985 . S
C1428 C1429 1.363 . S
C1428 C1434 1.379 . S
C1428 N1436 1.356 . S
C1429 C1428 1.363 . S
C1429 C1435 1.363 . S
C1430 C1431 1.363 . S
C1430 C1435 1.379 . S
C1430 N1437 1.356 . S
C1431 C1430 1.363 . S
C1431 C1434 1.363 . S
N1432 C1434 1.356 . S
N1432 H1444 0.984 . S
N1432 H1445 0.985 . S
N1433 C1435 1.356 . S
N1433 H1438 0.984 . S
N1433 H1439 0.985 . S
C1434 C1428 1.379 . S
C1434 C1431 1.363 . S
C1434 N1432 1.356 . S
C1435 C1429 1.363 . S
C1435 C1430 1.379 . S
C1435 N1433 1.356 . S
N1436 C1428 1.356 . S
N1436 H1442 0.984 . S
N1436 H1443 0.984 . S
N1437 C1430 1.356 . S
N1437 H1440 0.984 . S
N1437 H1441 0.985 . S
H1438 N1433 0.984 . S
H1439 N1433 0.985 . S
H1440 N1437 0.984 . S
H1441 N1437 0.985 . S
H1442 N1436 0.984 . S
H1443 N1436 0.984 . S
H1444 N1432 0.984 . S
H1445 N1432 0.985 . S
C1446 C1447 1.363 . S
C1446 C1452 1.379 . S
C1446 N1454 1.356 . S
C1447 C1446 1.363 . S
C1447 C1453 1.363 . S
C1448 C1449 1.363 . S
C1448 C1453 1.379 . S
C1448 N1455 1.356 . S
C1449 C1448 1.363 . S
C1449 C1452 1.363 . S
N1450 C1452 1.356 . S
N1450 H1462 0.984 . S
N1450 H1463 0.985 . S
N1451 C1453 1.356 . S
N1451 H1456 0.984 . S
N1451 H1457 0.985 . S
C1452 C1446 1.379 . S
C1452 C1449 1.363 . S
C1452 N1450 1.356 . S
C1453 C1447 1.363 . S
C1453 C1448 1.379 . S
C1453 N1451 1.356 . S
N1454 C1446 1.356 . S
N1454 H1460 0.984 . S
N1454 H1461 0.984 . S
N1455 C1448 1.356 . S
N1455 H1458 0.984 . S
N1455 H1459 0.985 . S
H1456 N1451 0.984 . S
H1457 N1451 0.985 . S
H1458 N1455 0.984 . S
H1459 N1455 0.985 . S
H1460 N1454 0.984 . S
H1461 N1454 0.984 . S
H1462 N1450 0.984 . S
H1463 N1450 0.985 . S
C1464 C1465 1.363 . S
C1464 C1470 1.379 . S
C1464 N1472 1.356 . S
C1465 C1464 1.363 . S
C1465 C1471 1.363 . S
C1466 C1467 1.363 . S
C1466 C1471 1.379 . S
C1466 N1473 1.356 . S
C1467 C1466 1.363 . S
C1467 C1470 1.363 . S
N1468 C1470 1.356 . S
N1468 H1480 0.984 . S
N1468 H1481 0.985 . S
N1469 C1471 1.356 . S
N1469 H1474 0.984 . S
N1469 H1475 0.985 . S
C1470 C1464 1.379 . S
C1470 C1467 1.363 . S
C1470 N1468 1.356 . S
C1471 C1465 1.363 . S
C1471 C1466 1.379 . S
C1471 N1469 1.356 . S
N1472 C1464 1.356 . S
N1472 H1478 0.984 . S
N1472 H1479 0.984 . S
N1473 C1466 1.356 . S
N1473 H1476 0.984 . S
N1473 H1477 0.985 . S
H1474 N1469 0.984 . S
H1475 N1469 0.985 . S
H1476 N1473 0.984 . S
H1477 N1473 0.985 . S
H1478 N1472 0.984 . S
H1479 N1472 0.984 . S
H1480 N1468 0.984 . S
H1481 N1468 0.985 . S
C1482 C1483 1.363 . S
C1482 C1488 1.379 . S
C1482 N1490 1.356 . S
C1483 C1482 1.363 . S
C1483 C1489 1.363 . S
C1484 C1485 1.363 . S
C1484 C1489 1.379 . S
C1484 N1491 1.356 . S
C1485 C1484 1.363 . S
C1485 C1488 1.363 . S
N1486 C1488 1.356 . S
N1486 H1498 0.984 . S
N1486 H1499 0.985 . S
N1487 C1489 1.356 . S
N1487 H1492 0.984 . S
N1487 H1493 0.985 . S
C1488 C1482 1.379 . S
C1488 C1485 1.363 . S
C1488 N1486 1.356 . S
C1489 C1483 1.363 . S
C1489 C1484 1.379 . S
C1489 N1487 1.356 . S
N1490 C1482 1.356 . S
N1490 H1496 0.984 . S
N1490 H1497 0.984 . S
N1491 C1484 1.356 . S
N1491 H1494 0.984 . S
N1491 H1495 0.985 . S
H1492 N1487 0.984 . S
H1493 N1487 0.985 . S
H1494 N1491 0.984 . S
H1495 N1491 0.985 . S
H1496 N1490 0.984 . S
H1497 N1490 0.984 . S
H1498 N1486 0.984 . S
H1499 N1486 0.985 . S
C1500 C1501 1.363 . S
C1500 C1506 1.379 . S
C1500 N1508 1.356 . S
C1501 C1500 1.363 . S
C1501 C1507 1.363 . S
C1502 C1503 1.363 . S
C1502 C1507 1.379 . S
C1502 N1509 1.356 . S
C1503 C1502 1.363 . S
C1503 C1506 1.363 . S
N1504 C1506 1.356 . S
N1504 H1516 0.984 . S
N1504 H1517 0.985 . S
N1505 C1507 1.356 . S
N1505 H1510 0.984 . S
N1505 H1511 0.985 . S
C1506 C1500 1.379 . S
C1506 C1503 1.363 . S
C1506 N1504 1.356 . S
C1507 C1501 1.363 . S
C1507 C1502 1.379 . S
C1507 N1505 1.356 . S
N1508 C1500 1.356 . S
N1508 H1514 0.984 . S
N1508 H1515 0.984 . S
N1509 C1502 1.356 . S
N1509 H1512 0.984 . S
N1509 H1513 0.985 . S
H1510 N1505 0.984 . S
H1511 N1505 0.985 . S
H1512 N1509 0.984 . S
H1513 N1509 0.985 . S
H1514 N1508 0.984 . S
H1515 N1508 0.984 . S
H1516 N1504 0.984 . S
H1517 N1504 0.985 . S
C1518 C1519 1.363 . S
C1518 C1524 1.379 . S
C1518 N1526 1.356 . S
C1519 C1518 1.363 . S
C1519 C1525 1.363 . S
C1520 C1521 1.363 . S
C1520 C1525 1.379 . S
C1520 N1527 1.356 . S
C1521 C1520 1.363 . S
C1521 C1524 1.363 . S
N1522 C1524 1.356 . S
N1522 H1534 0.984 . S
N1522 H1535 0.985 . S
N1523 C1525 1.356 . S
N1523 H1528 0.984 . S
N1523 H1529 0.985 . S
C1524 C1518 1.379 . S
C1524 C1521 1.363 . S
C1524 N1522 1.356 . S
C1525 C1519 1.363 . S
C1525 C1520 1.379 . S
C1525 N1523 1.356 . S
N1526 C1518 1.356 . S
N1526 H1532 0.984 . S
N1526 H1533 0.984 . S
N1527 C1520 1.356 . S
N1527 H1530 0.984 . S
N1527 H1531 0.985 . S
H1528 N1523 0.984 . S
H1529 N1523 0.985 . S
H1530 N1527 0.984 . S
H1531 N1527 0.985 . S
H1532 N1526 0.984 . S
H1533 N1526 0.984 . S
H1534 N1522 0.984 . S
H1535 N1522 0.985 . S
C1536 C1537 1.363 . S
C1536 C1542 1.379 . S
C1536 N1544 1.356 . S
C1537 C1536 1.363 . S
C1537 C1543 1.363 . S
C1538 C1539 1.363 . S
C1538 C1543 1.379 . S
C1538 N1545 1.356 . S
C1539 C1538 1.363 . S
C1539 C1542 1.363 . S
N1540 C1542 1.356 . S
N1540 H1552 0.984 . S
N1540 H1553 0.985 . S
N1541 C1543 1.356 . S
N1541 H1546 0.984 . S
N1541 H1547 0.985 . S
C1542 C1536 1.379 . S
C1542 C1539 1.363 . S
C1542 N1540 1.356 . S
C1543 C1537 1.363 . S
C1543 C1538 1.379 . S
C1543 N1541 1.356 . S
N1544 C1536 1.356 . S
N1544 H1550 0.984 . S
N1544 H1551 0.984 . S
N1545 C1538 1.356 . S
N1545 H1548 0.984 . S
N1545 H1549 0.985 . S
H1546 N1541 0.984 . S
H1547 N1541 0.985 . S
H1548 N1545 0.984 . S
H1549 N1545 0.985 . S
H1550 N1544 0.984 . S
H1551 N1544 0.984 . S
H1552 N1540 0.984 . S
H1553 N1540 0.985 . S
C1554 C1555 1.363 . S
C1554 C1560 1.379 . S
C1554 N1562 1.356 . S
C1555 C1554 1.363 . S
C1555 C1561 1.363 . S
C1556 C1557 1.363 . S
C1556 C1561 1.379 . S
C1556 N1563 1.356 . S
C1557 C1556 1.363 . S
C1557 C1560 1.363 . S
N1558 C1560 1.356 . S
N1558 H1570 0.984 . S
N1558 H1571 0.985 . S
N1559 C1561 1.356 . S
N1559 H1564 0.984 . S
N1559 H1565 0.985 . S
C1560 C1554 1.379 . S
C1560 C1557 1.363 . S
C1560 N1558 1.356 . S
C1561 C1555 1.363 . S
C1561 C1556 1.379 . S
C1561 N1559 1.356 . S
N1562 C1554 1.356 . S
N1562 H1568 0.984 . S
N1562 H1569 0.984 . S
N1563 C1556 1.356 . S
N1563 H1566 0.984 . S
N1563 H1567 0.985 . S
H1564 N1559 0.984 . S
H1565 N1559 0.985 . S
H1566 N1563 0.984 . S
H1567 N1563 0.985 . S
H1568 N1562 0.984 . S
H1569 N1562 0.984 . S
H1570 N1558 0.984 . S
H1571 N1558 0.985 . S
C1572 C1573 1.363 . S
C1572 C1578 1.379 . S
C1572 N1580 1.356 . S
C1573 C1572 1.363 . S
C1573 C1579 1.363 . S
C1574 C1575 1.363 . S
C1574 C1579 1.379 . S
C1574 N1581 1.356 . S
C1575 C1574 1.363 . S
C1575 C1578 1.363 . S
N1576 C1578 1.356 . S
N1576 H1588 0.984 . S
N1576 H1589 0.985 . S
N1577 C1579 1.356 . S
N1577 H1582 0.984 . S
N1577 H1583 0.985 . S
C1578 C1572 1.379 . S
C1578 C1575 1.363 . S
C1578 N1576 1.356 . S
C1579 C1573 1.363 . S
C1579 C1574 1.379 . S
C1579 N1577 1.356 . S
N1580 C1572 1.356 . S
N1580 H1586 0.984 . S
N1580 H1587 0.984 . S
N1581 C1574 1.356 . S
N1581 H1584 0.984 . S
N1581 H1585 0.985 . S
H1582 N1577 0.984 . S
H1583 N1577 0.985 . S
H1584 N1581 0.984 . S
H1585 N1581 0.985 . S
H1586 N1580 0.984 . S
H1587 N1580 0.984 . S
H1588 N1576 0.984 . S
H1589 N1576 0.985 . S
C1590 C1591 1.363 . S
C1590 C1596 1.379 . S
C1590 N1598 1.356 . S
C1591 C1590 1.363 . S
C1591 C1597 1.363 . S
C1592 C1593 1.363 . S
C1592 C1597 1.379 . S
C1592 N1599 1.356 . S
C1593 C1592 1.363 . S
C1593 C1596 1.363 . S
N1594 C1596 1.356 . S
N1594 H1606 0.984 . S
N1594 H1607 0.985 . S
N1595 C1597 1.356 . S
N1595 H1600 0.984 . S
N1595 H1601 0.985 . S
C1596 C1590 1.379 . S
C1596 C1593 1.363 . S
C1596 N1594 1.356 . S
C1597 C1591 1.363 . S
C1597 C1592 1.379 . S
C1597 N1595 1.356 . S
N1598 C1590 1.356 . S
N1598 H1604 0.984 . S
N1598 H1605 0.984 . S
N1599 C1592 1.356 . S
N1599 H1602 0.984 . S
N1599 H1603 0.985 . S
H1600 N1595 0.984 . S
H1601 N1595 0.985 . S
H1602 N1599 0.984 . S
H1603 N1599 0.985 . S
H1604 N1598 0.984 . S
H1605 N1598 0.984 . S
H1606 N1594 0.984 . S
H1607 N1594 0.985 . S
C1608 C1609 1.363 . S
C1608 C1614 1.379 . S
C1608 N1616 1.356 . S
C1609 C1608 1.363 . S
C1609 C1615 1.363 . S
C1610 C1611 1.363 . S
C1610 C1615 1.379 . S
C1610 N1617 1.356 . S
C1611 C1610 1.363 . S
C1611 C1614 1.363 . S
N1612 C1614 1.356 . S
N1612 H1624 0.984 . S
N1612 H1625 0.985 . S
N1613 C1615 1.356 . S
N1613 H1618 0.984 . S
N1613 H1619 0.985 . S
C1614 C1608 1.379 . S
C1614 C1611 1.363 . S
C1614 N1612 1.356 . S
C1615 C1609 1.363 . S
C1615 C1610 1.379 . S
C1615 N1613 1.356 . S
N1616 C1608 1.356 . S
N1616 H1622 0.984 . S
N1616 H1623 0.984 . S
N1617 C1610 1.356 . S
N1617 H1620 0.984 . S
N1617 H1621 0.985 . S
H1618 N1613 0.984 . S
H1619 N1613 0.985 . S
H1620 N1617 0.984 . S
H1621 N1617 0.985 . S
H1622 N1616 0.984 . S
H1623 N1616 0.984 . S
H1624 N1612 0.984 . S
H1625 N1612 0.985 . S
C1626 C1627 1.363 . S
C1626 C1632 1.379 . S
C1626 N1634 1.356 . S
C1627 C1626 1.363 . S
C1627 C1633 1.363 . S
C1628 C1629 1.363 . S
C1628 C1633 1.379 . S
C1628 N1635 1.356 . S
C1629 C1628 1.363 . S
C1629 C1632 1.363 . S
N1630 C1632 1.356 . S
N1630 H1642 0.984 . S
N1630 H1643 0.985 . S
N1631 C1633 1.356 . S
N1631 H1636 0.984 . S
N1631 H1637 0.985 . S
C1632 C1626 1.379 . S
C1632 C1629 1.363 . S
C1632 N1630 1.356 . S
C1633 C1627 1.363 . S
C1633 C1628 1.379 . S
C1633 N1631 1.356 . S
N1634 C1626 1.356 . S
N1634 H1640 0.984 . S
N1634 H1641 0.984 . S
N1635 C1628 1.356 . S
N1635 H1638 0.984 . S
N1635 H1639 0.985 . S
H1636 N1631 0.984 . S
H1637 N1631 0.985 . S
H1638 N1635 0.984 . S
H1639 N1635 0.985 . S
H1640 N1634 0.984 . S
H1641 N1634 0.984 . S
H1642 N1630 0.984 . S
H1643 N1630 0.985 . S
C1644 C1645 1.363 . S
C1644 C1650 1.379 . S
C1644 N1652 1.356 . S
C1645 C1644 1.363 . S
C1645 C1651 1.363 . S
C1646 C1647 1.363 . S
C1646 C1651 1.379 . S
C1646 N1653 1.356 . S
C1647 C1646 1.363 . S
C1647 C1650 1.363 . S
N1648 C1650 1.356 . S
N1648 H1660 0.984 . S
N1648 H1661 0.985 . S
N1649 C1651 1.356 . S
N1649 H1654 0.984 . S
N1649 H1655 0.985 . S
C1650 C1644 1.379 . S
C1650 C1647 1.363 . S
C1650 N1648 1.356 . S
C1651 C1645 1.363 . S
C1651 C1646 1.379 . S
C1651 N1649 1.356 . S
N1652 C1644 1.356 . S
N1652 H1658 0.984 . S
N1652 H1659 0.984 . S
N1653 C1646 1.356 . S
N1653 H1656 0.984 . S
N1653 H1657 0.985 . S
H1654 N1649 0.984 . S
H1655 N1649 0.985 . S
H1656 N1653 0.984 . S
H1657 N1653 0.985 . S
H1658 N1652 0.984 . S
H1659 N1652 0.984 . S
H1660 N1648 0.984 . S
H1661 N1648 0.985 . S
C1662 C1663 1.363 . S
C1662 C1668 1.379 . S
C1662 N1670 1.356 . S
C1663 C1662 1.363 . S
C1663 C1669 1.363 . S
C1664 C1665 1.363 . S
C1664 C1669 1.379 . S
C1664 N1671 1.356 . S
C1665 C1664 1.363 . S
C1665 C1668 1.363 . S
N1666 C1668 1.356 . S
N1666 H1678 0.984 . S
N1666 H1679 0.985 . S
N1667 C1669 1.356 . S
N1667 H1672 0.984 . S
N1667 H1673 0.985 . S
C1668 C1662 1.379 . S
C1668 C1665 1.363 . S
C1668 N1666 1.356 . S
C1669 C1663 1.363 . S
C1669 C1664 1.379 . S
C1669 N1667 1.356 . S
N1670 C1662 1.356 . S
N1670 H1676 0.984 . S
N1670 H1677 0.984 . S
N1671 C1664 1.356 . S
N1671 H1674 0.984 . S
N1671 H1675 0.985 . S
H1672 N1667 0.984 . S
H1673 N1667 0.985 . S
H1674 N1671 0.984 . S
H1675 N1671 0.985 . S
H1676 N1670 0.984 . S
H1677 N1670 0.984 . S
H1678 N1666 0.984 . S
H1679 N1666 0.985 . S
C1680 C1681 1.363 . S
C1680 C1686 1.379 1_455 S
C1680 N1688 1.356 . S
C1681 C1680 1.363 . S
C1681 C1687 1.363 . S
C1682 C1683 1.363 . S
C1682 C1687 1.379 1_655 S
C1682 N1689 1.356 . S
C1683 C1682 1.363 . S
C1683 C1686 1.363 . S
N1684 C1686 1.356 . S
N1684 H1696 0.984 . S
N1684 H1697 0.985 . S
N1685 C1687 1.356 . S
N1685 H1690 0.984 . S
N1685 H1691 0.985 . S
C1686 C1680 1.379 1_655 S
C1686 C1683 1.363 . S
C1686 N1684 1.356 . S
C1687 C1681 1.363 . S
C1687 C1682 1.379 1_455 S
C1687 N1685 1.356 . S
N1688 C1680 1.356 . S
N1688 H1694 0.984 . S
N1688 H1695 0.984 . S
N1689 C1682 1.356 . S
N1689 H1692 0.984 . S
N1689 H1693 0.985 . S
H1690 N1685 0.984 . S
H1691 N1685 0.985 . S
H1692 N1689 0.984 . S
H1693 N1689 0.985 . S
H1694 N1688 0.984 . S
H1695 N1688 0.984 . S
H1696 N1684 0.984 . S
H1697 N1684 0.985 . S
C1698 C1699 1.363 . S
C1698 C1704 1.379 1_545 S
C1698 N1706 1.356 . S
C1699 C1698 1.363 . S
C1699 C1705 1.363 . S
C1700 C1701 1.363 . S
C1700 C1705 1.379 1_565 S
C1700 N1707 1.356 . S
C1701 C1700 1.363 . S
C1701 C1704 1.363 . S
N1702 C1704 1.356 . S
N1702 H1714 0.984 . S
N1702 H1715 0.985 . S
N1703 C1705 1.356 . S
N1703 H1708 0.984 . S
N1703 H1709 0.985 . S
C1704 C1698 1.379 1_565 S
C1704 C1701 1.363 . S
C1704 N1702 1.356 . S
C1705 C1699 1.363 . S
C1705 C1700 1.379 1_545 S
C1705 N1703 1.356 . S
N1706 C1698 1.356 . S
N1706 H1712 0.984 . S
N1706 H1713 0.984 . S
N1707 C1700 1.356 . S
N1707 H1710 0.984 . S
N1707 H1711 0.985 . S
H1708 N1703 0.984 . S
H1709 N1703 0.985 . S
H1710 N1707 0.984 . S
H1711 N1707 0.985 . S
H1712 N1706 0.984 . S
H1713 N1706 0.984 . S
H1714 N1702 0.984 . S
H1715 N1702 0.985 . S
C1716 C1717 1.363 . S
C1716 C1722 1.379 1_455 S
C1716 N1724 1.356 . S
C1717 C1716 1.363 . S
C1717 C1723 1.363 . S
C1718 C1719 1.363 . S
C1718 C1723 1.379 1_655 S
C1718 N1725 1.356 . S
C1719 C1718 1.363 . S
C1719 C1722 1.363 . S
N1720 C1722 1.356 . S
N1720 H1732 0.984 . S
N1720 H1733 0.985 . S
N1721 C1723 1.356 . S
N1721 H1726 0.984 . S
N1721 H1727 0.985 . S
C1722 C1716 1.379 1_655 S
C1722 C1719 1.363 . S
C1722 N1720 1.356 . S
C1723 C1717 1.363 . S
C1723 C1718 1.379 1_455 S
C1723 N1721 1.356 . S
N1724 C1716 1.356 . S
N1724 H1730 0.984 . S
N1724 H1731 0.984 . S
N1725 C1718 1.356 . S
N1725 H1728 0.984 . S
N1725 H1729 0.985 . S
H1726 N1721 0.984 . S
H1727 N1721 0.985 . S
H1728 N1725 0.984 . S
H1729 N1725 0.985 . S
H1730 N1724 0.984 . S
H1731 N1724 0.984 . S
H1732 N1720 0.984 . S
H1733 N1720 0.985 . S
C1734 C1735 1.363 . S
C1734 C1740 1.379 1_565 S
C1734 N1742 1.356 . S
C1735 C1734 1.363 . S
C1735 C1741 1.363 . S
C1736 C1737 1.363 . S
C1736 C1741 1.379 1_545 S
C1736 N1743 1.356 . S
C1737 C1736 1.363 . S
C1737 C1740 1.363 . S
N1738 C1740 1.356 . S
N1738 H1750 0.984 . S
N1738 H1751 0.985 . S
N1739 C1741 1.356 . S
N1739 H1744 0.984 . S
N1739 H1745 0.985 . S
C1740 C1734 1.379 1_545 S
C1740 C1737 1.363 . S
C1740 N1738 1.356 . S
C1741 C1735 1.363 . S
C1741 C1736 1.379 1_565 S
C1741 N1739 1.356 . S
N1742 C1734 1.356 . S
N1742 H1748 0.984 . S
N1742 H1749 0.984 . S
N1743 C1736 1.356 . S
N1743 H1746 0.984 . S
N1743 H1747 0.985 . S
H1744 N1739 0.984 . S
H1745 N1739 0.985 . S
H1746 N1743 0.984 . S
H1747 N1743 0.985 . S
H1748 N1742 0.984 . S
H1749 N1742 0.984 . S
H1750 N1738 0.984 . S
H1751 N1738 0.985 . S
C1752 C1753 1.363 . S
C1752 C1758 1.379 1_565 S
C1752 N1760 1.356 . S
C1753 C1752 1.363 . S
C1753 C1759 1.363 . S
C1754 C1755 1.363 . S
C1754 C1759 1.379 1_545 S
C1754 N1761 1.356 . S
C1755 C1754 1.363 . S
C1755 C1758 1.363 . S
N1756 C1758 1.356 . S
N1756 H1768 1.001 . S
N1756 H1769 0.985 . S
N1757 C1759 1.356 . S
N1757 H1762 0.984 . S
N1757 H1763 1.001 . S
C1758 C1752 1.379 1_545 S
C1758 C1755 1.363 . S
C1758 N1756 1.356 . S
C1759 C1753 1.363 . S
C1759 C1754 1.379 1_565 S
C1759 N1757 1.356 . S
N1760 C1752 1.356 . S
N1760 H1766 0.984 . S
N1760 H1767 0.984 . S
N1761 C1754 1.356 . S
N1761 H1764 0.984 . S
N1761 H1765 0.985 . S
H1762 N1757 0.984 . S
H1763 N1757 1.001 . S
H1764 N1761 0.984 . S
H1765 N1761 0.985 . S
H1766 N1760 0.984 . S
H1767 N1760 0.984 . S
H1768 N1756 1.001 . S
H1769 N1756 0.985 . S
C1770 C1771 1.363 . S
C1770 C1776 1.379 1_455 S
C1770 N1778 1.356 . S
C1771 C1770 1.363 . S
C1771 C1777 1.363 . S
C1772 C1773 1.363 . S
C1772 C1777 1.379 1_655 S
C1772 N1779 1.356 . S
C1773 C1772 1.363 . S
C1773 C1776 1.363 . S
N1774 C1776 1.356 . S
N1774 H1786 0.984 . S
N1774 H1787 0.985 . S
N1775 C1777 1.356 . S
N1775 H1780 0.984 . S
N1775 H1781 0.985 . S
C1776 C1770 1.379 1_655 S
C1776 C1773 1.363 . S
C1776 N1774 1.356 . S
C1777 C1771 1.363 . S
C1777 C1772 1.379 1_455 S
C1777 N1775 1.356 . S
N1778 C1770 1.356 . S
N1778 H1784 0.984 . S
N1778 H1785 0.984 . S
N1779 C1772 1.356 . S
N1779 H1782 0.984 . S
N1779 H1783 0.985 . S
H1780 N1775 0.984 . S
H1781 N1775 0.985 . S
H1782 N1779 0.984 . S
H1783 N1779 0.985 . S
H1784 N1778 0.984 . S
H1785 N1778 0.984 . S
H1786 N1774 0.984 . S
H1787 N1774 0.985 . S
C1788 C1789 1.363 . S
C1788 C1794 1.379 1_545 S
C1788 N1796 1.356 . S
C1789 C1788 1.363 . S
C1789 C1795 1.363 . S
C1790 C1791 1.363 . S
C1790 C1795 1.379 1_565 S
C1790 N1797 1.356 . S
C1791 C1790 1.363 . S
C1791 C1794 1.363 . S
N1792 C1794 1.356 . S
N1792 H1804 0.984 1_565 S
N1792 H1805 0.985 . S
N1793 C1795 1.356 . S
N1793 H1798 0.984 . S
N1793 H1799 0.985 1_545 S
C1794 C1788 1.379 1_565 S
C1794 C1791 1.363 . S
C1794 N1792 1.356 . S
C1795 C1789 1.363 . S
C1795 C1790 1.379 1_545 S
C1795 N1793 1.356 . S
N1796 C1788 1.356 . S
N1796 H1802 0.984 . S
N1796 H1803 0.984 . S
N1797 C1790 1.356 . S
N1797 H1800 0.984 . S
N1797 H1801 0.985 . S
H1798 N1793 0.984 . S
H1799 N1793 0.985 1_565 S
H1800 N1797 0.984 . S
H1801 N1797 0.985 . S
H1802 N1796 0.984 . S
H1803 N1796 0.984 . S
H1804 N1792 0.984 1_545 S
H1805 N1792 0.985 . S
C1806 C1807 1.363 . S
C1806 C1812 1.379 1_655 S
C1806 N1814 1.356 . S
C1807 C1806 1.363 . S
C1807 C1813 1.363 . S
C1808 C1809 1.363 . S
C1808 C1813 1.379 1_455 S
C1808 N1815 1.356 . S
C1809 C1808 1.363 . S
C1809 C1812 1.363 . S
N1810 C1812 1.356 . S
N1810 H1822 0.984 . S
N1810 H1823 0.985 . S
N1811 C1813 1.356 . S
N1811 H1816 0.984 . S
N1811 H1817 0.985 . S
C1812 C1806 1.379 1_455 S
C1812 C1809 1.363 . S
C1812 N1810 1.356 . S
C1813 C1807 1.363 . S
C1813 C1808 1.379 1_655 S
C1813 N1811 1.356 . S
N1814 C1806 1.356 . S
N1814 H1820 0.984 . S
N1814 H1821 0.984 . S
N1815 C1808 1.356 . S
N1815 H1818 0.984 . S
N1815 H1819 0.985 . S
H1816 N1811 0.984 . S
H1817 N1811 0.985 . S
H1818 N1815 0.984 . S
H1819 N1815 0.985 . S
H1820 N1814 0.984 . S
H1821 N1814 0.984 . S
H1822 N1810 0.984 . S
H1823 N1810 0.985 . S
C1824 C1825 1.363 . S
C1824 C1830 1.379 1_556 S
C1824 N1832 1.356 . S
C1825 C1824 1.363 . S
C1825 C1831 1.363 . S
C1826 C1827 1.363 . S
C1826 C1831 1.379 1_554 S
C1826 N1833 1.356 . S
C1827 C1826 1.363 . S
C1827 C1830 1.363 . S
N1828 C1830 1.356 . S
N1828 H1840 0.984 . S
N1828 H1841 0.985 . S
N1829 C1831 1.356 . S
N1829 H1834 0.984 . S
N1829 H1835 0.985 . S
C1830 C1824 1.379 1_554 S
C1830 C1827 1.363 . S
C1830 N1828 1.356 . S
C1831 C1825 1.363 . S
C1831 C1826 1.379 1_556 S
C1831 N1829 1.356 . S
N1832 C1824 1.356 . S
N1832 H1838 0.984 . S
N1832 H1839 0.984 . S
N1833 C1826 1.356 . S
N1833 H1836 0.984 . S
N1833 H1837 0.985 . S
H1834 N1829 0.984 . S
H1835 N1829 0.985 . S
H1836 N1833 0.984 . S
H1837 N1833 0.985 . S
H1838 N1832 0.984 . S
H1839 N1832 0.984 . S
H1840 N1828 0.984 . S
H1841 N1828 0.985 . S
C1842 C1843 1.363 . S
C1842 C1848 1.379 1_554 S
C1842 N1850 1.356 . S
C1843 C1842 1.363 . S
C1843 C1849 1.363 . S
C1844 C1845 1.363 . S
C1844 C1849 1.379 1_556 S
C1844 N1851 1.356 . S
C1845 C1844 1.363 . S
C1845 C1848 1.363 . S
N1846 C1848 1.356 . S
N1846 H1858 0.984 . S
N1846 H1859 0.985 . S
N1847 C1849 1.356 . S
N1847 H1852 0.984 . S
N1847 H1853 0.985 . S
C1848 C1842 1.379 1_556 S
C1848 C1845 1.363 . S
C1848 N1846 1.356 . S
C1849 C1843 1.363 . S
C1849 C1844 1.379 1_554 S
C1849 N1847 1.356 . S
N1850 C1842 1.356 . S
N1850 H1856 0.984 . S
N1850 H1857 0.984 . S
N1851 C1844 1.356 . S
N1851 H1854 0.984 . S
N1851 H1855 0.985 . S
H1852 N1847 0.984 . S
H1853 N1847 0.985 . S
H1854 N1851 0.984 . S
H1855 N1851 0.985 . S
H1856 N1850 0.984 . S
H1857 N1850 0.984 . S
H1858 N1846 0.984 . S
H1859 N1846 0.985 . S
C1860 C1861 1.363 . S
C1860 C1866 1.379 1_556 S
C1860 N1868 1.356 . S
C1861 C1860 1.363 . S
C1861 C1867 1.363 . S
C1862 C1863 1.363 . S
C1862 C1867 1.379 1_554 S
C1862 N1869 1.356 . S
C1863 C1862 1.363 . S
C1863 C1866 1.363 . S
N1864 C1866 1.356 . S
N1864 H1876 0.984 . S
N1864 H1877 0.985 . S
N1865 C1867 1.356 . S
N1865 H1870 0.984 . S
N1865 H1871 0.985 . S
C1866 C1860 1.379 1_554 S
C1866 C1863 1.363 . S
C1866 N1864 1.356 . S
C1867 C1861 1.363 . S
C1867 C1862 1.379 1_556 S
C1867 N1865 1.356 . S
N1868 C1860 1.356 . S
N1868 H1874 0.984 . S
N1868 H1875 0.984 . S
N1869 C1862 1.356 . S
N1869 H1872 0.984 . S
N1869 H1873 0.985 . S
H1870 N1865 0.984 . S
H1871 N1865 0.985 . S
H1872 N1869 0.984 . S
H1873 N1869 0.985 . S
H1874 N1868 0.984 . S
H1875 N1868 0.984 . S
H1876 N1864 0.984 . S
H1877 N1864 0.985 . S
C1878 C1879 1.363 . S
C1878 C1884 1.379 1_554 S
C1878 N1886 1.356 . S
C1879 C1878 1.363 . S
C1879 C1885 1.363 . S
C1880 C1881 1.363 . S
C1880 C1885 1.379 1_556 S
C1880 N1887 1.356 . S
C1881 C1880 1.363 . S
C1881 C1884 1.363 . S
N1882 C1884 1.356 . S
N1882 H1894 0.984 . S
N1882 H1895 0.985 . S
N1883 C1885 1.356 . S
N1883 H1888 0.984 . S
N1883 H1889 0.985 . S
C1884 C1878 1.379 1_556 S
C1884 C1881 1.363 . S
C1884 N1882 1.356 . S
C1885 C1879 1.363 . S
C1885 C1880 1.379 1_554 S
C1885 N1883 1.356 . S
N1886 C1878 1.356 . S
N1886 H1892 0.984 . S
N1886 H1893 0.984 . S
N1887 C1880 1.356 . S
N1887 H1890 0.984 . S
N1887 H1891 0.985 . S
H1888 N1883 0.984 . S
H1889 N1883 0.985 . S
H1890 N1887 0.984 . S
H1891 N1887 0.985 . S
H1892 N1886 0.984 . S
H1893 N1886 0.984 . S
H1894 N1882 0.984 . S
H1895 N1882 0.985 . S
C817 C326 1.860 . S
C819 C20 1.860 . S
C835 C360 1.860 . S
C837 C54 1.860 . S
C853 C394 1.860 . S
C855 C88 1.860 . S
C871 C122 1.860 . S
C873 C292 1.860 . S
C889 C530 1.860 . S
C891 C156 1.860 . S
C907 C190 1.860 . S
C909 C428 1.860 . S
C925 C224 1.860 . S
C927 C462 1.860 . S
C943 C258 1.860 . S
C945 C496 1.860 . S
C961 C564 1.860 . S
C963 C632 1.860 . S
C979 C768 1.860 . S
C981 C598 1.860 . S
C997 C666 1.860 . S
C999 C802 1.860 . S
C1015 C734 1.860 . S
C1017 C700 1.860 . S
C1033 C781 2.030 . S
C1035 C33 2.030 . S
C1051 C577 2.030 . S
C1053 C67 2.030 . S
C1069 C815 2.030 . S
C1071 C101 2.030 . S
C1087 C135 2.030 . S
C1089 C747 2.030 . S
C1105 C645 2.030 . S
C1107 C169 2.030 . S
C1123 C679 2.030 . S
C1125 C203 2.030 . S
C1141 C713 2.030 . S
C1143 C237 2.030 . S
C1159 C611 2.030 . S
C1161 C271 2.030 . S
C1177 C305 2.030 . S
C1179 C475 2.030 . S
C1195 C509 2.030 . S
C1197 C339 2.030 . S
C1213 C543 2.030 . S
C1215 C373 2.030 . S
C1231 C441 2.030 . S
C1233 C407 2.030 . S
C1249 C444 2.092 . S
C1251 C9 2.041 . S
C1267 C43 2.041 . S
C1269 C478 2.092 . S
C1285 C512 2.092 . S
C1287 C77 2.041 . S
C1303 C410 2.092 . S
C1305 C111 2.041 . S
C1321 C376 2.092 . S
C1323 C145 2.041 . S
C1339 C179 2.041 . S
C1341 C274 2.092 . S
C1357 C308 2.092 . S
C1359 C213 2.041 . S
C1375 C342 2.092 . S
C1377 C247 2.041 . S
C1393 C281 2.041 . S
C1395 C36 2.092 . S
C1411 C70 2.092 . S
C1413 C315 2.041 . S
C1429 C349 2.041 . S
C1431 C104 2.092 . S
C1447 C2 2.092 . S
C1449 C383 2.041 . S
C1465 C417 2.041 . S
C1467 C240 2.092 . S
C1483 C138 2.092 . S
C1485 C451 2.041 . S
C1501 C172 2.092 . S
C1503 C485 2.041 . S
C1519 C519 2.041 . S
C1521 C206 2.092 . S
C1537 C553 2.041 . S
C1539 C750 2.092 . S
C1555 C587 2.041 . S
C1557 C614 2.092 . S
C1573 C621 2.041 . S
C1575 C648 2.092 . S
C1591 C682 2.092 . S
C1593 C655 2.041 . S
C1609 C580 2.092 . S
C1611 C689 2.041 . S
C1627 C784 2.092 . S
C1629 C723 2.041 . S
C1645 C757 2.041 . S
C1647 C716 2.092 . S
C1663 C546 2.092 . S
C1665 C791 2.041 . S
C1681 C5 1.040 . S
C1683 C73 1.040 . S
C1699 C39 1.040 . S
C1701 C107 1.040 . S
C1717 C141 1.040 . S
C1719 C209 1.040 . S
C1735 C243 1.040 . S
C1737 C175 1.040 . S
C1753 C413 1.040 . S
C1755 C277 1.040 . S
C1771 C447 1.040 . S
C1773 C311 1.040 . S
C1789 C481 1.040 . S
C1791 C345 1.040 . S
C1807 C515 1.040 . S
C1809 C379 1.040 . S
C1825 C651 1.040 . S
C1827 C549 1.040 . S
C1843 C719 1.040 . S
C1845 C583 1.040 . S
C1861 C617 1.040 . S
C1863 C753 1.040 . S
C1879 C787 1.040 . S
C1881 C685 1.040 . S
