# Generated by pormake.
# Topology ana-e, (6)-cn, num edge types: 1
# Building blocks:
#     Node 0, Type 0, BuildingBlock: BETDEL_clean_sbu_0, # of connection points: 6
#     Node 1, Type 0, BuildingBlock: BETDEL_clean_sbu_0, # of connection points: 6
#     Node 2, Type 0, BuildingBlock: BETDEL_clean_sbu_0, # of connection points: 6
#     Node 3, Type 0, BuildingBlock: BETDEL_clean_sbu_0, # of connection points: 6
#     Node 4, Type 0, BuildingBlock: BETDEL_clean_sbu_0, # of connection points: 6
#     Node 5, Type 0, BuildingBlock: BETDEL_clean_sbu_0, # of connection points: 6
#     Node 6, Type 0, BuildingBlock: BETDEL_clean_sbu_0, # of connection points: 6
#     Node 7, Type 0, BuildingBlock: BETDEL_clean_sbu_0, # of connection points: 6
#     Node 8, Type 0, BuildingBlock: BETDEL_clean_sbu_0, # of connection points: 6
#     Node 9, Type 0, BuildingBlock: BETDEL_clean_sbu_0, # of connection points: 6
#     Node 10, Type 0, BuildingBlock: BETDEL_clean_sbu_0, # of connection points: 6
#     Node 11, Type 0, BuildingBlock: BETDEL_clean_sbu_0, # of connection points: 6
#     Node 12, Type 0, BuildingBlock: BETDEL_clean_sbu_0, # of connection points: 6
#     Node 13, Type 0, BuildingBlock: BETDEL_clean_sbu_0, # of connection points: 6
#     Node 14, Type 0, BuildingBlock: BETDEL_clean_sbu_0, # of connection points: 6
#     Node 15, Type 0, BuildingBlock: BETDEL_clean_sbu_0, # of connection points: 6
#     Node 16, Type 0, BuildingBlock: BETDEL_clean_sbu_0, # of connection points: 6
#     Node 17, Type 0, BuildingBlock: BETDEL_clean_sbu_0, # of connection points: 6
#     Node 18, Type 0, BuildingBlock: BETDEL_clean_sbu_0, # of connection points: 6
#     Node 19, Type 0, BuildingBlock: BETDEL_clean_sbu_0, # of connection points: 6
#     Node 20, Type 0, BuildingBlock: BETDEL_clean_sbu_0, # of connection points: 6
#     Node 21, Type 0, BuildingBlock: BETDEL_clean_sbu_0, # of connection points: 6
#     Node 22, Type 0, BuildingBlock: BETDEL_clean_sbu_0, # of connection points: 6
#     Node 23, Type 0, BuildingBlock: BETDEL_clean_sbu_0, # of connection points: 6
#     Node 24, Type 0, BuildingBlock: BETDEL_clean_sbu_0, # of connection points: 6
#     Node 25, Type 0, BuildingBlock: BETDEL_clean_sbu_0, # of connection points: 6
#     Node 26, Type 0, BuildingBlock: BETDEL_clean_sbu_0, # of connection points: 6
#     Node 27, Type 0, BuildingBlock: BETDEL_clean_sbu_0, # of connection points: 6
#     Node 28, Type 0, BuildingBlock: BETDEL_clean_sbu_0, # of connection points: 6
#     Node 29, Type 0, BuildingBlock: BETDEL_clean_sbu_0, # of connection points: 6
#     Node 30, Type 0, BuildingBlock: BETDEL_clean_sbu_0, # of connection points: 6
#     Node 31, Type 0, BuildingBlock: BETDEL_clean_sbu_0, # of connection points: 6
#     Node 32, Type 0, BuildingBlock: BETDEL_clean_sbu_0, # of connection points: 6
#     Node 33, Type 0, BuildingBlock: BETDEL_clean_sbu_0, # of connection points: 6
#     Node 34, Type 0, BuildingBlock: BETDEL_clean_sbu_0, # of connection points: 6
#     Node 35, Type 0, BuildingBlock: BETDEL_clean_sbu_0, # of connection points: 6
#     Node 36, Type 0, BuildingBlock: BETDEL_clean_sbu_0, # of connection points: 6
#     Node 37, Type 0, BuildingBlock: BETDEL_clean_sbu_0, # of connection points: 6
#     Node 38, Type 0, BuildingBlock: BETDEL_clean_sbu_0, # of connection points: 6
#     Node 39, Type 0, BuildingBlock: BETDEL_clean_sbu_0, # of connection points: 6
#     Node 40, Type 0, BuildingBlock: BETDEL_clean_sbu_0, # of connection points: 6
#     Node 41, Type 0, BuildingBlock: BETDEL_clean_sbu_0, # of connection points: 6
#     Node 42, Type 0, BuildingBlock: BETDEL_clean_sbu_0, # of connection points: 6
#     Node 43, Type 0, BuildingBlock: BETDEL_clean_sbu_0, # of connection points: 6
#     Node 44, Type 0, BuildingBlock: BETDEL_clean_sbu_0, # of connection points: 6
#     Node 45, Type 0, BuildingBlock: BETDEL_clean_sbu_0, # of connection points: 6
#     Node 46, Type 0, BuildingBlock: BETDEL_clean_sbu_0, # of connection points: 6
#     Node 47, Type 0, BuildingBlock: BETDEL_clean_sbu_0, # of connection points: 6
#     Node 48, Type 0, BuildingBlock: BETDEL_clean_sbu_0, # of connection points: 6
#     Node 49, Type 0, BuildingBlock: BETDEL_clean_sbu_0, # of connection points: 6
#     Node 50, Type 0, BuildingBlock: BETDEL_clean_sbu_0, # of connection points: 6
#     Node 51, Type 0, BuildingBlock: BETDEL_clean_sbu_0, # of connection points: 6
#     Node 52, Type 0, BuildingBlock: BETDEL_clean_sbu_0, # of connection points: 6
#     Node 53, Type 0, BuildingBlock: BETDEL_clean_sbu_0, # of connection points: 6
#     Node 54, Type 0, BuildingBlock: BETDEL_clean_sbu_0, # of connection points: 6
#     Node 55, Type 0, BuildingBlock: BETDEL_clean_sbu_0, # of connection points: 6
#     Node 56, Type 0, BuildingBlock: BETDEL_clean_sbu_0, # of connection points: 6
#     Node 57, Type 0, BuildingBlock: BETDEL_clean_sbu_0, # of connection points: 6
#     Node 58, Type 0, BuildingBlock: BETDEL_clean_sbu_0, # of connection points: 6
#     Node 59, Type 0, BuildingBlock: BETDEL_clean_sbu_0, # of connection points: 6
#     Node 60, Type 0, BuildingBlock: BETDEL_clean_sbu_0, # of connection points: 6
#     Node 61, Type 0, BuildingBlock: BETDEL_clean_sbu_0, # of connection points: 6
#     Node 62, Type 0, BuildingBlock: BETDEL_clean_sbu_0, # of connection points: 6
#     Node 63, Type 0, BuildingBlock: BETDEL_clean_sbu_0, # of connection points: 6
#     Node 64, Type 0, BuildingBlock: BETDEL_clean_sbu_0, # of connection points: 6
#     Node 65, Type 0, BuildingBlock: BETDEL_clean_sbu_0, # of connection points: 6
#     Node 66, Type 0, BuildingBlock: BETDEL_clean_sbu_0, # of connection points: 6
#     Node 67, Type 0, BuildingBlock: BETDEL_clean_sbu_0, # of connection points: 6
#     Node 68, Type 0, BuildingBlock: BETDEL_clean_sbu_0, # of connection points: 6
#     Node 69, Type 0, BuildingBlock: BETDEL_clean_sbu_0, # of connection points: 6
#     Node 70, Type 0, BuildingBlock: BETDEL_clean_sbu_0, # of connection points: 6
#     Node 71, Type 0, BuildingBlock: BETDEL_clean_sbu_0, # of connection points: 6
#     Node 72, Type 0, BuildingBlock: BETDEL_clean_sbu_0, # of connection points: 6
#     Node 73, Type 0, BuildingBlock: BETDEL_clean_sbu_0, # of connection points: 6
#     Node 74, Type 0, BuildingBlock: BETDEL_clean_sbu_0, # of connection points: 6
#     Node 75, Type 0, BuildingBlock: BETDEL_clean_sbu_0, # of connection points: 6
#     Node 76, Type 0, BuildingBlock: BETDEL_clean_sbu_0, # of connection points: 6
#     Node 77, Type 0, BuildingBlock: BETDEL_clean_sbu_0, # of connection points: 6
#     Node 78, Type 0, BuildingBlock: BETDEL_clean_sbu_0, # of connection points: 6
#     Node 79, Type 0, BuildingBlock: BETDEL_clean_sbu_0, # of connection points: 6
#     Node 80, Type 0, BuildingBlock: BETDEL_clean_sbu_0, # of connection points: 6
#     Node 81, Type 0, BuildingBlock: BETDEL_clean_sbu_0, # of connection points: 6
#     Node 82, Type 0, BuildingBlock: BETDEL_clean_sbu_0, # of connection points: 6
#     Node 83, Type 0, BuildingBlock: BETDEL_clean_sbu_0, # of connection points: 6
#     Node 84, Type 0, BuildingBlock: BETDEL_clean_sbu_0, # of connection points: 6
#     Node 85, Type 0, BuildingBlock: BETDEL_clean_sbu_0, # of connection points: 6
#     Node 86, Type 0, BuildingBlock: BETDEL_clean_sbu_0, # of connection points: 6
#     Node 87, Type 0, BuildingBlock: BETDEL_clean_sbu_0, # of connection points: 6
#     Node 88, Type 0, BuildingBlock: BETDEL_clean_sbu_0, # of connection points: 6
#     Node 89, Type 0, BuildingBlock: BETDEL_clean_sbu_0, # of connection points: 6
#     Node 90, Type 0, BuildingBlock: BETDEL_clean_sbu_0, # of connection points: 6
#     Node 91, Type 0, BuildingBlock: BETDEL_clean_sbu_0, # of connection points: 6
#     Node 92, Type 0, BuildingBlock: BETDEL_clean_sbu_0, # of connection points: 6
#     Node 93, Type 0, BuildingBlock: BETDEL_clean_sbu_0, # of connection points: 6
#     Node 94, Type 0, BuildingBlock: BETDEL_clean_sbu_0, # of connection points: 6
#     Node 95, Type 0, BuildingBlock: BETDEL_clean_sbu_0, # of connection points: 6
#     Edge 96, Type (0, 0), None
#     Edge 97, Type (0, 0), None
#     Edge 98, Type (0, 0), None
#     Edge 99, Type (0, 0), None
#     Edge 100, Type (0, 0), None
#     Edge 101, Type (0, 0), None
#     Edge 102, Type (0, 0), None
#     Edge 103, Type (0, 0), None
#     Edge 104, Type (0, 0), None
#     Edge 105, Type (0, 0), None
#     Edge 106, Type (0, 0), None
#     Edge 107, Type (0, 0), None
#     Edge 108, Type (0, 0), None
#     Edge 109, Type (0, 0), None
#     Edge 110, Type (0, 0), None
#     Edge 111, Type (0, 0), None
#     Edge 112, Type (0, 0), None
#     Edge 113, Type (0, 0), None
#     Edge 114, Type (0, 0), None
#     Edge 115, Type (0, 0), None
#     Edge 116, Type (0, 0), None
#     Edge 117, Type (0, 0), None
#     Edge 118, Type (0, 0), None
#     Edge 119, Type (0, 0), None
#     Edge 120, Type (0, 0), None
#     Edge 121, Type (0, 0), None
#     Edge 122, Type (0, 0), None
#     Edge 123, Type (0, 0), None
#     Edge 124, Type (0, 0), None
#     Edge 125, Type (0, 0), None
#     Edge 126, Type (0, 0), None
#     Edge 127, Type (0, 0), None
#     Edge 128, Type (0, 0), None
#     Edge 129, Type (0, 0), None
#     Edge 130, Type (0, 0), None
#     Edge 131, Type (0, 0), None
#     Edge 132, Type (0, 0), None
#     Edge 133, Type (0, 0), None
#     Edge 134, Type (0, 0), None
#     Edge 135, Type (0, 0), None
#     Edge 136, Type (0, 0), None
#     Edge 137, Type (0, 0), None
#     Edge 138, Type (0, 0), None
#     Edge 139, Type (0, 0), None
#     Edge 140, Type (0, 0), None
#     Edge 141, Type (0, 0), None
#     Edge 142, Type (0, 0), None
#     Edge 143, Type (0, 0), None
#     Edge 144, Type (0, 0), None
#     Edge 145, Type (0, 0), None
#     Edge 146, Type (0, 0), None
#     Edge 147, Type (0, 0), None
#     Edge 148, Type (0, 0), None
#     Edge 149, Type (0, 0), None
#     Edge 150, Type (0, 0), None
#     Edge 151, Type (0, 0), None
#     Edge 152, Type (0, 0), None
#     Edge 153, Type (0, 0), None
#     Edge 154, Type (0, 0), None
#     Edge 155, Type (0, 0), None
#     Edge 156, Type (0, 0), None
#     Edge 157, Type (0, 0), None
#     Edge 158, Type (0, 0), None
#     Edge 159, Type (0, 0), None
#     Edge 160, Type (0, 0), None
#     Edge 161, Type (0, 0), None
#     Edge 162, Type (0, 0), None
#     Edge 163, Type (0, 0), None
#     Edge 164, Type (0, 0), None
#     Edge 165, Type (0, 0), None
#     Edge 166, Type (0, 0), None
#     Edge 167, Type (0, 0), None
#     Edge 168, Type (0, 0), None
#     Edge 169, Type (0, 0), None
#     Edge 170, Type (0, 0), None
#     Edge 171, Type (0, 0), None
#     Edge 172, Type (0, 0), None
#     Edge 173, Type (0, 0), None
#     Edge 174, Type (0, 0), None
#     Edge 175, Type (0, 0), None
#     Edge 176, Type (0, 0), None
#     Edge 177, Type (0, 0), None
#     Edge 178, Type (0, 0), None
#     Edge 179, Type (0, 0), None
#     Edge 180, Type (0, 0), None
#     Edge 181, Type (0, 0), None
#     Edge 182, Type (0, 0), None
#     Edge 183, Type (0, 0), None
#     Edge 184, Type (0, 0), None
#     Edge 185, Type (0, 0), None
#     Edge 186, Type (0, 0), None
#     Edge 187, Type (0, 0), None
#     Edge 188, Type (0, 0), None
#     Edge 189, Type (0, 0), None
#     Edge 190, Type (0, 0), None
#     Edge 191, Type (0, 0), None
#     Edge 192, Type (0, 0), None
#     Edge 193, Type (0, 0), None
#     Edge 194, Type (0, 0), None
#     Edge 195, Type (0, 0), None
#     Edge 196, Type (0, 0), None
#     Edge 197, Type (0, 0), None
#     Edge 198, Type (0, 0), None
#     Edge 199, Type (0, 0), None
#     Edge 200, Type (0, 0), None
#     Edge 201, Type (0, 0), None
#     Edge 202, Type (0, 0), None
#     Edge 203, Type (0, 0), None
#     Edge 204, Type (0, 0), None
#     Edge 205, Type (0, 0), None
#     Edge 206, Type (0, 0), None
#     Edge 207, Type (0, 0), None
#     Edge 208, Type (0, 0), None
#     Edge 209, Type (0, 0), None
#     Edge 210, Type (0, 0), None
#     Edge 211, Type (0, 0), None
#     Edge 212, Type (0, 0), None
#     Edge 213, Type (0, 0), None
#     Edge 214, Type (0, 0), None
#     Edge 215, Type (0, 0), None
#     Edge 216, Type (0, 0), None
#     Edge 217, Type (0, 0), None
#     Edge 218, Type (0, 0), None
#     Edge 219, Type (0, 0), None
#     Edge 220, Type (0, 0), None
#     Edge 221, Type (0, 0), None
#     Edge 222, Type (0, 0), None
#     Edge 223, Type (0, 0), None
#     Edge 224, Type (0, 0), None
#     Edge 225, Type (0, 0), None
#     Edge 226, Type (0, 0), None
#     Edge 227, Type (0, 0), None
#     Edge 228, Type (0, 0), None
#     Edge 229, Type (0, 0), None
#     Edge 230, Type (0, 0), None
#     Edge 231, Type (0, 0), None
#     Edge 232, Type (0, 0), None
#     Edge 233, Type (0, 0), None
#     Edge 234, Type (0, 0), None
#     Edge 235, Type (0, 0), None
#     Edge 236, Type (0, 0), None
#     Edge 237, Type (0, 0), None
#     Edge 238, Type (0, 0), None
#     Edge 239, Type (0, 0), None
#     Edge 240, Type (0, 0), None
#     Edge 241, Type (0, 0), None
#     Edge 242, Type (0, 0), None
#     Edge 243, Type (0, 0), None
#     Edge 244, Type (0, 0), None
#     Edge 245, Type (0, 0), None
#     Edge 246, Type (0, 0), None
#     Edge 247, Type (0, 0), None
#     Edge 248, Type (0, 0), None
#     Edge 249, Type (0, 0), None
#     Edge 250, Type (0, 0), None
#     Edge 251, Type (0, 0), None
#     Edge 252, Type (0, 0), None
#     Edge 253, Type (0, 0), None
#     Edge 254, Type (0, 0), None
#     Edge 255, Type (0, 0), None
#     Edge 256, Type (0, 0), None
#     Edge 257, Type (0, 0), None
#     Edge 258, Type (0, 0), None
#     Edge 259, Type (0, 0), None
#     Edge 260, Type (0, 0), None
#     Edge 261, Type (0, 0), None
#     Edge 262, Type (0, 0), None
#     Edge 263, Type (0, 0), None
#     Edge 264, Type (0, 0), None
#     Edge 265, Type (0, 0), None
#     Edge 266, Type (0, 0), None
#     Edge 267, Type (0, 0), None
#     Edge 268, Type (0, 0), None
#     Edge 269, Type (0, 0), None
#     Edge 270, Type (0, 0), None
#     Edge 271, Type (0, 0), None
#     Edge 272, Type (0, 0), None
#     Edge 273, Type (0, 0), None
#     Edge 274, Type (0, 0), None
#     Edge 275, Type (0, 0), None
#     Edge 276, Type (0, 0), None
#     Edge 277, Type (0, 0), None
#     Edge 278, Type (0, 0), None
#     Edge 279, Type (0, 0), None
#     Edge 280, Type (0, 0), None
#     Edge 281, Type (0, 0), None
#     Edge 282, Type (0, 0), None
#     Edge 283, Type (0, 0), None
#     Edge 284, Type (0, 0), None
#     Edge 285, Type (0, 0), None
#     Edge 286, Type (0, 0), None
#     Edge 287, Type (0, 0), None
#     Edge 288, Type (0, 0), None
#     Edge 289, Type (0, 0), None
#     Edge 290, Type (0, 0), None
#     Edge 291, Type (0, 0), None
#     Edge 292, Type (0, 0), None
#     Edge 293, Type (0, 0), None
#     Edge 294, Type (0, 0), None
#     Edge 295, Type (0, 0), None
#     Edge 296, Type (0, 0), None
#     Edge 297, Type (0, 0), None
#     Edge 298, Type (0, 0), None
#     Edge 299, Type (0, 0), None
#     Edge 300, Type (0, 0), None
#     Edge 301, Type (0, 0), None
#     Edge 302, Type (0, 0), None
#     Edge 303, Type (0, 0), None
#     Edge 304, Type (0, 0), None
#     Edge 305, Type (0, 0), None
#     Edge 306, Type (0, 0), None
#     Edge 307, Type (0, 0), None
#     Edge 308, Type (0, 0), None
#     Edge 309, Type (0, 0), None
#     Edge 310, Type (0, 0), None
#     Edge 311, Type (0, 0), None
#     Edge 312, Type (0, 0), None
#     Edge 313, Type (0, 0), None
#     Edge 314, Type (0, 0), None
#     Edge 315, Type (0, 0), None
#     Edge 316, Type (0, 0), None
#     Edge 317, Type (0, 0), None
#     Edge 318, Type (0, 0), None
#     Edge 319, Type (0, 0), None
#     Edge 320, Type (0, 0), None
#     Edge 321, Type (0, 0), None
#     Edge 322, Type (0, 0), None
#     Edge 323, Type (0, 0), None
#     Edge 324, Type (0, 0), None
#     Edge 325, Type (0, 0), None
#     Edge 326, Type (0, 0), None
#     Edge 327, Type (0, 0), None
#     Edge 328, Type (0, 0), None
#     Edge 329, Type (0, 0), None
#     Edge 330, Type (0, 0), None
#     Edge 331, Type (0, 0), None
#     Edge 332, Type (0, 0), None
#     Edge 333, Type (0, 0), None
#     Edge 334, Type (0, 0), None
#     Edge 335, Type (0, 0), None
#     Edge 336, Type (0, 0), None
#     Edge 337, Type (0, 0), None
#     Edge 338, Type (0, 0), None
#     Edge 339, Type (0, 0), None
#     Edge 340, Type (0, 0), None
#     Edge 341, Type (0, 0), None
#     Edge 342, Type (0, 0), None
#     Edge 343, Type (0, 0), None
#     Edge 344, Type (0, 0), None
#     Edge 345, Type (0, 0), None
#     Edge 346, Type (0, 0), None
#     Edge 347, Type (0, 0), None
#     Edge 348, Type (0, 0), None
#     Edge 349, Type (0, 0), None
#     Edge 350, Type (0, 0), None
#     Edge 351, Type (0, 0), None
#     Edge 352, Type (0, 0), None
#     Edge 353, Type (0, 0), None
#     Edge 354, Type (0, 0), None
#     Edge 355, Type (0, 0), None
#     Edge 356, Type (0, 0), None
#     Edge 357, Type (0, 0), None
#     Edge 358, Type (0, 0), None
#     Edge 359, Type (0, 0), None
#     Edge 360, Type (0, 0), None
#     Edge 361, Type (0, 0), None
#     Edge 362, Type (0, 0), None
#     Edge 363, Type (0, 0), None
#     Edge 364, Type (0, 0), None
#     Edge 365, Type (0, 0), None
#     Edge 366, Type (0, 0), None
#     Edge 367, Type (0, 0), None
#     Edge 368, Type (0, 0), None
#     Edge 369, Type (0, 0), None
#     Edge 370, Type (0, 0), None
#     Edge 371, Type (0, 0), None
#     Edge 372, Type (0, 0), None
#     Edge 373, Type (0, 0), None
#     Edge 374, Type (0, 0), None
#     Edge 375, Type (0, 0), None
#     Edge 376, Type (0, 0), None
#     Edge 377, Type (0, 0), None
#     Edge 378, Type (0, 0), None
#     Edge 379, Type (0, 0), None
#     Edge 380, Type (0, 0), None
#     Edge 381, Type (0, 0), None
#     Edge 382, Type (0, 0), None
#     Edge 383, Type (0, 0), None
# Relax obj value: 0.457
# Max RMSD: 0.294
# Mean RMSD: 0.260
data_MOF--net-ana-e--node1-BETDEL_clean_sbu_0--edge1-none
_symmetry_space_group_name_H-M    P1
_symmetry_Int_Tables_number       1
_symmetry_cell_setting            triclinic
loop_
_symmetry_equiv_pos_as_xyz
'x, y, z'
_cell_length_a     36.639319
_cell_length_b     37.451195
_cell_length_c     38.924214
_cell_angle_alpha  90.630745
_cell_angle_beta   91.491836
_cell_angle_gamma 89.198326
loop_
_atom_site_label
_atom_site_type_symbol
_atom_site_fract_x
_atom_site_fract_y
_atom_site_fract_z
_atom_type_partial_charge
Dy0 Dy 0.03022 0.09013 0.36949 0.0
C1 C 0.90989 0.16888 0.40216 0.0
C2 C 0.09773 0.08436 0.34075 0.0
Dy3 Dy 0.97091 0.13123 0.40044 0.0
O4 O 0.07316 0.05946 0.33841 0.0
O5 O 0.08621 0.1099 0.3605 0.0
O6 O 0.99745 0.03991 0.3672 0.0
O7 O 0.9887 0.07685 0.40724 0.0
C8 C 0.97657 0.04908 0.39263 0.0
C9 C 0.02134 0.17004 0.37167 0.0
O10 O 0.99743 0.12295 0.45166 0.0
O11 O 0.05113 0.10436 0.42633 0.0
O12 O 0.93845 0.17576 0.42123 0.0
O13 O 0.91206 0.13694 0.38964 0.0
O14 O 0.0054 0.17967 0.39939 0.0
O15 O 0.00862 0.1419 0.35992 0.0
O16 O 0.99459 0.1075 0.32073 0.0
O17 O 0.94316 0.11287 0.35193 0.0
C18 C 0.03279 0.11582 0.45434 0.0
C19 C 0.95833 0.11301 0.32167 0.0
Dy20 Dy 0.19185 0.8037 0.63102 0.0
C21 C 0.08379 0.69488 0.65806 0.0
C22 C 0.20526 0.87165 0.60643 0.0
Dy23 Dy 0.13071 0.74761 0.65126 0.0
O24 O 0.20393 0.84238 0.58822 0.0
O25 O 0.20318 0.86237 0.63853 0.0
O26 O 0.23566 0.76087 0.62769 0.0
O27 O 0.18942 0.75238 0.65706 0.0
C28 C 0.21652 0.73705 0.64375 0.0
C29 C 0.11071 0.81342 0.63237 0.0
O30 O 0.13961 0.77055 0.70295 0.0
O31 O 0.17444 0.81927 0.6861 0.0
O32 O 0.07937 0.72047 0.63631 0.0
O33 O 0.11414 0.69736 0.67604 0.0
O34 O 0.09085 0.79425 0.6521 0.0
O35 O 0.13627 0.79484 0.62293 0.0
O36 O 0.16506 0.7847 0.58065 0.0
O37 O 0.14447 0.72989 0.59874 0.0
C38 C 0.15532 0.80149 0.70939 0.0
C39 C 0.15031 0.75297 0.5742 0.0
Dy40 Dy 0.50044 0.88949 0.83113 0.0
C41 C 0.46573 0.88349 0.96704 0.0
C42 C 0.53674 0.8798 0.77105 0.0
Dy43 Dy 0.49245 0.88277 0.90325 0.0
O44 O 0.51704 0.85654 0.78576 0.0
O45 O 0.53239 0.91029 0.78731 0.0
O46 O 0.44957 0.86146 0.81676 0.0
O47 O 0.48089 0.84571 0.86124 0.0
C48 C 0.45163 0.84152 0.84375 0.0
C49 C 0.55061 0.92321 0.89087 0.0
O50 O 0.53147 0.83681 0.90064 0.0
O51 O 0.54977 0.85718 0.84852 0.0
O52 O 0.47844 0.91074 0.95134 0.0
O53 O 0.46929 0.85473 0.94845 0.0
O54 O 0.54849 0.90099 0.91588 0.0
O55 O 0.51991 0.92537 0.87383 0.0
O56 O 0.44424 0.91812 0.83146 0.0
O57 O 0.43552 0.90326 0.88783 0.0
C58 C 0.55463 0.83616 0.87526 0.0
C59 C 0.42215 0.9155 0.85821 0.0
Dy60 Dy 0.35445 0.2306 0.11491 0.0
C61 C 0.47035 0.31727 0.15378 0.0
C62 C 0.32075 0.16763 0.09569 0.0
Dy63 Dy 0.41356 0.27388 0.14591 0.0
O64 O 0.34108 0.18648 0.07605 0.0
O65 O 0.31834 0.18385 0.1251 0.0
O66 O 0.30508 0.26676 0.12062 0.0
O67 O 0.35603 0.28307 0.13959 0.0
C68 C 0.32277 0.29163 0.13744 0.0
C69 C 0.43186 0.20574 0.13945 0.0
O70 O 0.38842 0.26254 0.1958 0.0
O71 O 0.35934 0.21346 0.17198 0.0
O72 O 0.47245 0.28371 0.14652 0.0
O73 O 0.43697 0.32675 0.16038 0.0
O74 O 0.4385 0.22493 0.16662 0.0
O75 O 0.41439 0.22348 0.11651 0.0
O76 O 0.36817 0.26164 0.06554 0.0
O77 O 0.41342 0.29504 0.09191 0.0
C78 C 0.37034 0.23259 0.19952 0.0
C79 C 0.39407 0.28649 0.06391 0.0
Dy80 Dy 0.03122 0.9065 0.14148 0.0
C81 C 0.91624 0.82698 0.09828 0.0
C82 C 0.09557 0.92897 0.17454 0.0
Dy83 Dy 0.98105 0.85275 0.11125 0.0
O84 O 0.07234 0.90626 0.18577 0.0
O85 O 0.08225 0.94003 0.14512 0.0
O86 O 0.99829 0.95806 0.13537 0.0
O87 O 0.97776 0.90966 0.11773 0.0
C88 C 0.97071 0.94267 0.11963 0.0
C89 C 0.0401 0.81439 0.13096 0.0
O90 O 0.99783 0.87085 0.06049 0.0
O91 O 0.04634 0.90325 0.08305 0.0
O92 O 0.94461 0.81885 0.08028 0.0
O93 O 0.92231 0.85421 0.11813 0.0
O94 O 0.01168 0.80126 0.11513 0.0
O95 O 0.03632 0.84824 0.13468 0.0
O96 O 0.99386 0.894 0.18801 0.0
O97 O 0.96496 0.84466 0.16536 0.0
C98 C 0.027 0.88988 0.0559 0.0
C99 C 0.97097 0.86647 0.19147 0.0
Dy100 Dy 0.39353 0.7707 0.42632 0.0
C101 C 0.3828 0.79324 0.27875 0.0
C102 C 0.40079 0.73198 0.48603 0.0
Dy103 Dy 0.38359 0.7781 0.34599 0.0
O104 O 0.427 0.74657 0.46957 0.0
O105 O 0.3699 0.74231 0.47133 0.0
O106 O 0.44114 0.80932 0.43298 0.0
O107 O 0.41881 0.79944 0.38509 0.0
C108 C 0.44259 0.81794 0.40068 0.0
C109 C 0.33726 0.72629 0.36588 0.0
O110 O 0.43356 0.74121 0.35117 0.0
O111 O 0.42126 0.72164 0.40554 0.0
O112 O 0.35874 0.80481 0.30023 0.0
O113 O 0.40885 0.77517 0.29414 0.0
O114 O 0.34062 0.73704 0.33481 0.0
O115 O 0.35854 0.74523 0.3852 0.0
O116 O 0.35967 0.8225 0.42763 0.0
O117 O 0.3626 0.83215 0.36832 0.0
C118 C 0.43921 0.71834 0.37685 0.0
C119 C 0.35492 0.84377 0.40028 0.0
Dy120 Dy 0.50328 0.11708 0.68122 0.0
C121 C 0.45047 0.12069 0.54181 0.0
C122 C 0.53622 0.13076 0.74344 0.0
Dy123 Dy 0.47703 0.1119 0.60684 0.0
O124 O 0.51892 0.15357 0.72443 0.0
O125 O 0.53572 0.09962 0.72775 0.0
O126 O 0.45542 0.14894 0.69601 0.0
O127 O 0.47875 0.15255 0.64619 0.0
C128 C 0.45372 0.1623 0.66549 0.0
C129 C 0.53403 0.06804 0.62067 0.0
O130 O 0.5156 0.157 0.60085 0.0
O131 O 0.54624 0.151 0.65324 0.0
O132 O 0.46578 0.14529 0.56045 0.0
O133 O 0.44791 0.09124 0.55904 0.0
O134 O 0.52663 0.08209 0.59117 0.0
O135 O 0.50841 0.07463 0.64149 0.0
O136 O 0.44633 0.09201 0.68897 0.0
O137 O 0.42396 0.09853 0.63279 0.0
C138 C 0.54291 0.16569 0.62199 0.0
C139 C 0.41838 0.09165 0.66575 0.0
Dy140 Dy 0.18653 0.22454 0.90271 0.0
C141 C 0.08149 0.3243 0.85433 0.0
C142 C 0.19029 0.15456 0.92308 0.0
Dy143 Dy 0.12772 0.2753 0.87155 0.0
O144 O 0.20825 0.18035 0.93912 0.0
O145 O 0.17351 0.16735 0.89617 0.0
O146 O 0.23195 0.25081 0.8737 0.0
O147 O 0.18377 0.278 0.88484 0.0
C148 C 0.21115 0.27886 0.86671 0.0
C149 C 0.10908 0.21302 0.89382 0.0
O150 O 0.1453 0.25591 0.82132 0.0
O151 O 0.17185 0.20529 0.845 0.0
O152 O 0.07588 0.30228 0.87888 0.0
O153 O 0.11239 0.32044 0.83913 0.0
O154 O 0.0939 0.22655 0.86638 0.0
O155 O 0.13057 0.23366 0.90788 0.0
O156 O 0.1705 0.26146 0.95064 0.0
O157 O 0.1338 0.30326 0.92123 0.0
C158 C 0.15778 0.2233 0.81743 0.0
C159 C 0.14898 0.29153 0.95019 0.0
Dy160 Dy 0.33488 0.0587 0.10071 0.0
C161 C 0.39514 0.94142 0.17247 0.0
C162 C 0.31456 0.12895 0.09165 0.0
Dy163 Dy 0.38015 1.0026 0.1413 0.0
O164 O 0.33059 0.10895 0.06885 0.0
O165 O 0.30662 0.10938 0.11768 0.0
O166 O 0.32873 0.02303 0.05499 0.0
O167 O 0.37595 0.01957 0.08835 0.0
C168 C 0.3583 1.00498 0.06382 0.0
C169 C 0.35072 0.05601 0.17589 0.0
O170 O 0.43036 0.03154 0.12946 0.0
O171 O 0.39417 0.07981 0.11155 0.0
O172 O 0.40081 0.97263 0.18603 0.0
O173 O 0.3871 0.94389 0.13994 0.0
O174 O 0.38205 0.04212 0.18473 0.0
O175 O 0.33654 0.0396 0.15137 0.0
O176 O 0.28811 0.0191 0.11309 0.0
O177 O 0.32676 0.97442 0.13467 0.0
C178 C 0.42695 0.0654 0.12085 0.0
C179 C 0.29361 0.98596 0.12589 0.0
Dy180 Dy 0.20588 0.10155 0.33098 0.0
C181 C 0.29394 0.14361 0.44393 0.0
C182 C 0.13294 0.0869 0.3233 0.0
Dy183 Dy 0.25449 0.1285 0.38865 0.0
O184 O 0.15881 0.06265 0.32463 0.0
O185 O 0.14786 0.11795 0.32121 0.0
O186 O 0.23539 0.11968 0.2838 0.0
O187 O 0.25536 0.13197 0.33365 0.0
C188 C 0.26047 0.13669 0.30215 0.0
C189 C 0.18831 0.10664 0.40378 0.0
O190 O 0.24192 0.18089 0.36753 0.0
O191 O 0.18686 0.15808 0.34947 0.0
O192 O 0.25936 0.14961 0.4411 0.0
O193 O 0.30784 0.13136 0.41566 0.0
O194 O 0.20258 0.13544 0.41621 0.0
O195 O 0.21024 0.09113 0.38464 0.0
O196 O 0.24222 0.05114 0.34072 0.0
O197 O 0.27747 0.07334 0.38647 0.0
C198 C 0.20732 0.18579 0.35965 0.0
C199 C 0.26782 0.0467 0.36585 0.0
Dy200 Dy 0.16018 0.97439 0.59499 0.0
C201 C 0.10973 0.07351 0.70053 0.0
C202 C 0.18787 0.90563 0.59436 0.0
Dy203 Dy 0.1259 0.0258 0.65087 0.0
O204 O 0.20382 0.93286 0.5805 0.0
O205 O 0.1561 0.91584 0.60503 0.0
O206 O 0.14659 1.00471 0.54675 0.0
O207 O 0.13058 0.0253 0.595 0.0
C208 C 0.13019 0.03133 0.56289 0.0
C209 C 0.15338 0.96237 0.66805 0.0
O210 O 0.07497 0.01055 0.62466 0.0
O211 O 0.09975 0.9581 0.60189 0.0
O212 O 0.10069 0.04021 0.7003 0.0
O213 O 0.12496 0.08122 0.67177 0.0
O214 O 0.12485 0.97572 0.68275 0.0
O215 O 0.16519 0.98385 0.6478 0.0
O216 O 0.20982 0.00752 0.61313 0.0
O217 O 0.18311 0.044 0.6548 0.0
C218 C 0.07106 0.97824 0.6117 0.0
C219 C 0.21202 0.03243 0.63817 0.0
Dy220 Dy 0.30543 0.89993 0.86064 0.0
C221 C 0.18593 0.86802 0.94825 0.0
C222 C 0.38046 0.91833 0.85521 0.0
Dy223 Dy 0.24523 0.87207 0.90924 0.0
O224 O 0.35923 0.90545 0.83052 0.0
O225 O 0.35983 0.92167 0.88181 0.0
O226 O 0.27285 0.89865 0.80997 0.0
O227 O 0.24893 0.88261 0.85506 0.0
C228 C 0.24285 0.88626 0.82303 0.0
C229 C 0.31393 0.87198 0.93379 0.0
O230 O 0.25286 0.82209 0.88038 0.0
O231 O 0.31071 0.83767 0.8621 0.0
O232 O 0.21869 0.85843 0.95783 0.0
O233 O 0.18511 0.87773 0.91632 0.0
O234 O 0.29052 0.84746 0.94053 0.0
O235 O 0.29872 0.89602 0.9158 0.0
O236 O 0.2706 0.95126 0.87169 0.0
O237 O 0.23858 0.9304 0.91801 0.0
C238 C 0.28483 0.81324 0.86772 0.0
C239 C 0.24645 0.95625 0.89704 0.0
Dy240 Dy 0.35205 0.9591 0.40065 0.0
C241 C 0.38796 0.07719 0.32114 0.0
C242 C 0.34518 0.88362 0.40442 0.0
Dy243 Dy 0.3839 0.01392 0.35234 0.0
O244 O 0.35343 0.90525 0.43031 0.0
O245 O 0.33758 0.90412 0.37843 0.0
O246 O 0.34273 0.9999 0.44283 0.0
O247 O 0.38494 0.00875 0.40839 0.0
C248 C 0.36554 0.02383 0.43162 0.0
C249 C 0.3647 0.95187 0.32456 0.0
O250 O 0.43857 0.99095 0.36527 0.0
O251 O 0.41282 0.94583 0.39684 0.0
O252 O 0.39837 0.04688 0.30792 0.0
O253 O 0.37895 0.07319 0.3528 0.0
O254 O 0.39148 0.97036 0.31321 0.0
O255 O 0.34796 0.96923 0.34694 0.0
O256 O 0.29896 0.99094 0.38694 0.0
O257 O 0.32506 0.02911 0.34798 0.0
C258 C 0.44124 0.96053 0.38197 0.0
C259 C 0.2965 0.01814 0.36452 0.0
Dy260 Dy 0.30314 0.11094 0.67363 0.0
C261 C 0.1942 0.15201 0.5663 0.0
C262 C 0.37855 0.09075 0.67648 0.0
Dy263 Dy 0.24504 0.14128 0.61732 0.0
O264 O 0.36235 0.11466 0.69598 0.0
O265 O 0.35259 0.07704 0.65732 0.0
O266 O 0.27093 0.11957 0.72172 0.0
O267 O 0.24894 0.13557 0.67353 0.0
C268 C 0.24261 0.13462 0.70561 0.0
C269 C 0.31211 0.1178 0.59979 0.0
O270 O 0.25209 0.19011 0.64711 0.0
O271 O 0.311 0.17043 0.65963 0.0
O272 O 0.22632 0.16623 0.56783 0.0
O273 O 0.18943 0.13345 0.59385 0.0
O274 O 0.29563 0.14471 0.58509 0.0
O275 O 0.29134 0.10571 0.6208 0.0
O276 O 0.26703 0.06189 0.66227 0.0
O277 O 0.22836 0.08582 0.61871 0.0
C278 C 0.28618 0.19696 0.65483 0.0
C279 C 0.24014 0.05926 0.63798 0.0
Dy280 Dy 0.16242 0.04724 0.92878 0.0
C281 C 0.1154 0.95531 0.81622 0.0
C282 C 0.17996 0.11854 0.93497 0.0
Dy283 Dy 0.13161 0.99725 0.87041 0.0
O284 O 0.20096 0.09246 0.94661 0.0
O285 O 0.14975 0.10511 0.92309 0.0
O286 O 0.14157 0.01834 0.97547 0.0
O287 O 0.12928 1.00014 0.92564 0.0
C288 C 0.1241 0.99407 0.95694 0.0
C289 C 0.15926 0.05951 0.85423 0.0
O290 O 0.07859 0.01658 0.88904 0.0
O291 O 0.10474 0.06821 0.91092 0.0
O292 O 0.10804 0.98903 0.8182 0.0
O293 O 0.12925 0.94393 0.84529 0.0
O294 O 0.13102 0.04626 0.83861 0.0
O295 O 0.17216 0.0384 0.8758 0.0
O296 O 0.21327 0.011 0.91761 0.0
O297 O 0.18749 0.97264 0.87617 0.0
C298 C 0.07563 0.05032 0.8986 0.0
C299 C 0.21601 0.98349 0.895 0.0
Dy300 Dy 0.20622 0.90584 0.16649 0.0
C301 C 0.30195 0.84971 0.06611 0.0
C302 C 0.13481 0.92085 0.17829 0.0
Dy303 Dy 0.25025 0.87247 0.10608 0.0
O304 O 0.16158 0.94182 0.18868 0.0
O305 O 0.14765 0.89258 0.16338 0.0
O306 O 0.23832 0.87499 0.20692 0.0
O307 O 0.26037 0.88436 0.15928 0.0
C308 C 0.26444 0.86606 0.18584 0.0
C309 C 0.18345 0.89483 0.09467 0.0
O310 O 0.22299 0.82144 0.11924 0.0
O311 O 0.18334 0.84886 0.15699 0.0
O312 O 0.27912 0.8751 0.05757 0.0
O313 O 0.29677 0.83644 0.09622 0.0
O314 O 0.19734 0.86882 0.07665 0.0
O315 O 0.20688 0.90962 0.11292 0.0
O316 O 0.23926 0.95571 0.15059 0.0
O317 O 0.27467 0.92761 0.10855 0.0
C318 C 0.19364 0.82047 0.13809 0.0
C319 C 0.26537 0.95668 0.12663 0.0
Dy320 Dy 0.12217 0.36156 0.05024 0.0
C321 C 0.17387 0.41572 0.92778 0.0
C322 C 0.11851 0.32482 0.11073 0.0
Dy323 Dy 0.15279 0.40634 0.99132 0.0
O324 O 0.09132 0.34213 0.09606 0.0
O325 O 0.14742 0.32837 0.09269 0.0
O326 O 0.07054 0.3542 0.01899 0.0
O327 O 0.10054 0.40153 0.01501 0.0
C328 C 0.07407 0.38422 1.00275 0.0
C329 C 0.20089 0.37565 0.03335 0.0
O330 O 0.14072 0.45407 0.02381 0.0
O331 O 0.13383 0.42005 0.07317 0.0
O332 O 0.1879 0.43238 0.95436 0.0
O333 O 0.14259 0.40263 0.9354 0.0
O334 O 0.20737 0.40576 0.01881 0.0
O335 O 0.17104 0.3644 0.02349 0.0
O336 O 0.13785 0.31508 0.01161 0.0
O337 O 0.14673 0.35259 0.96594 0.0
C338 C 0.13799 0.45222 0.05767 0.0
C339 C 0.14571 0.31987 0.97831 0.0
Dy340 Dy 0.62412 0.18778 1.00144 0.0
C341 C 0.64533 0.04244 0.95689 0.0
C342 C 0.63854 0.24593 0.0405 0.0
Dy343 Dy 0.63119 0.10916 0.98052 0.0
O344 O 0.65999 0.23226 0.01812 0.0
O345 O 0.60667 0.23054 0.03789 0.0
O346 O 0.66238 0.20251 0.96096 0.0
O347 O 0.66799 0.15306 0.98713 0.0
C348 C 0.67986 0.17245 0.96408 0.0
C349 C 0.57415 0.12207 0.01856 0.0
O350 O 0.67013 0.11157 0.02576 0.0
O351 O 0.64152 0.15992 0.05016 0.0
O352 O 0.6666 0.06012 0.97769 0.0
O353 O 0.61722 0.06165 0.94738 0.0
O354 O 0.59148 0.09183 0.01785 0.0
O355 O 0.58554 0.14356 0.99665 0.0
O356 O 0.59588 0.19289 0.95006 0.0
O357 O 0.61843 0.13735 0.93104 0.0
C358 C 0.66572 0.13364 0.05205 0.0
C359 C 0.60231 0.1689 0.92535 0.0
Dy360 Dy 0.13573 0.32952 0.21453 0.0
C361 C 0.17721 0.42099 0.32315 0.0
C362 C 0.12022 0.31408 0.14691 0.0
Dy363 Dy 0.16267 0.3773 0.2701 0.0
O364 O 0.09687 0.3258 0.1689 0.0
O365 O 0.15099 0.30691 0.16294 0.0
O366 O 0.12302 0.28416 0.24946 0.0
O367 O 0.16509 0.31928 0.26419 0.0
C368 C 0.14461 0.29479 0.27462 0.0
C369 C 0.1451 0.40984 0.21031 0.0
O370 O 0.21667 0.35929 0.25373 0.0
O371 O 0.1922 0.34971 0.19977 0.0
O372 O 0.19429 0.4207 0.29463 0.0
O373 O 0.15546 0.39399 0.3242 0.0
O374 O 0.17091 0.42018 0.23113 0.0
O375 O 0.12906 0.38518 0.22409 0.0
O376 O 0.08143 0.35257 0.23291 0.0
O377 O 0.104 0.37883 0.2831 0.0
C378 C 0.2205 0.35785 0.22041 0.0
C379 C 0.07646 0.37044 0.26224 0.0
Dy380 Dy 0.91618 0.8595 0.46728 0.0
C381 C 0.84837 0.92186 0.58605 0.0
C382 C 0.91347 0.84373 0.39508 0.0
Dy383 Dy 0.87398 0.89869 0.5256 0.0
O384 O 0.93623 0.82873 0.4177 0.0
O385 O 0.8942 0.86647 0.41248 0.0
O386 O 0.96944 0.86176 0.49986 0.0
O387 O 0.92902 0.89959 0.50829 0.0
C388 C 0.95821 0.88673 0.52131 0.0
C389 C 0.83318 0.8692 0.47519 0.0
O390 O 0.88825 0.94703 0.49776 0.0
O391 O 0.90124 0.91643 0.4474 0.0
O392 O 0.83608 0.93192 0.55609 0.0
O393 O 0.87861 0.90415 0.58212 0.0
O394 O 0.823 0.89735 0.49226 0.0
O395 O 0.86257 0.8571 0.48766 0.0
O396 O 0.9014 0.81164 0.50378 0.0
O397 O 0.88257 0.84607 0.5506 0.0
C398 C 0.89222 0.94651 0.46429 0.0
C399 C 0.89042 0.81458 0.53686 0.0
Dy400 Dy 0.89326 0.15012 0.21926 0.0
C401 C 0.83526 0.0765 0.32698 0.0
C402 C 0.9187 0.15076 0.15338 0.0
Dy403 Dy 0.84926 0.11202 0.27065 0.0
O404 O 0.93634 0.16494 0.17968 0.0
O405 O 0.88775 0.13918 0.1633 0.0
O406 O 0.89288 0.20192 0.24918 0.0
O407 O 0.84931 0.16654 0.25333 0.0
C408 C 0.86392 0.19389 0.26637 0.0
C409 C 0.88341 0.07101 0.22471 0.0
O410 O 0.80003 0.12788 0.24082 0.0
O411 O 0.83533 0.13795 0.19351 0.0
O412 O 0.8199 0.07004 0.29726 0.0
O413 O 0.85045 0.1074 0.32682 0.0
O414 O 0.85149 0.06395 0.23577 0.0
O415 O 0.89527 0.09808 0.23932 0.0
O416 O 0.93839 0.12827 0.25888 0.0
O417 O 0.89796 0.12612 0.30258 0.0
C418 C 0.80257 0.13182 0.20737 0.0
C419 C 0.93182 0.12336 0.29247 0.0
Dy420 Dy 0.43293 0.63288 0.55021 0.0
C421 C 0.36317 0.60244 0.42372 0.0
C422 C 0.43852 0.64339 0.62096 0.0
Dy423 Dy 0.39143 0.61086 0.48621 0.0
O424 O 0.44404 0.66773 0.59807 0.0
O425 O 0.43348 0.61339 0.60468 0.0
O426 O 0.48406 0.63975 0.51819 0.0
O427 O 0.44619 0.60243 0.50288 0.0
C428 C 0.47342 0.61878 0.49281 0.0
C429 C 0.34896 0.62776 0.53832 0.0
O430 O 0.3994 0.55647 0.50698 0.0
O431 O 0.4089 0.57805 0.56201 0.0
O432 O 0.36193 0.57866 0.44736 0.0
O433 O 0.38798 0.62548 0.43171 0.0
O434 O 0.33873 0.60683 0.51332 0.0
O435 O 0.37809 0.64243 0.53122 0.0
O436 O 0.41569 0.68798 0.53077 0.0
O437 O 0.3996 0.66913 0.47561 0.0
C438 C 0.39951 0.55173 0.54038 0.0
C439 C 0.40592 0.69504 0.49834 0.0
Dy440 Dy 0.12231 0.67151 0.32223 0.0
C441 C 0.16466 0.58969 0.20286 0.0
C442 C 0.09831 0.67677 0.38825 0.0
Dy443 Dy 0.15679 0.62919 0.26073 0.0
O444 O 0.11854 0.70034 0.37355 0.0
O445 O 0.0912 0.65148 0.36629 0.0
O446 O 0.10652 0.71752 0.28851 0.0
O447 O 0.15275 0.6845 0.27808 0.0
C448 C 0.13174 0.70865 0.26667 0.0
C449 C 0.13806 0.59344 0.3166 0.0
O450 O 0.20676 0.65491 0.2785 0.0
O451 O 0.18363 0.65832 0.33357 0.0
O452 O 0.18203 0.58399 0.2318 0.0
O453 O 0.14651 0.61965 0.20476 0.0
O454 O 0.16524 0.58399 0.29783 0.0
O455 O 0.12184 0.61865 0.30291 0.0
O456 O 0.07187 0.65181 0.29294 0.0
O457 O 0.10049 0.63674 0.24187 0.0
C458 C 0.21185 0.65642 0.31203 0.0
C459 C 0.07126 0.64044 0.26036 0.0
Dy460 Dy 0.38999 0.34116 0.78276 0.0
C461 C 0.32949 0.42117 0.66793 0.0
C462 C 0.40773 0.33983 0.85474 0.0
Dy463 Dy 0.3522 0.38707 0.72501 0.0
O464 O 0.423 0.31928 0.83121 0.0
O465 O 0.38343 0.35906 0.83834 0.0
O466 O 0.38535 0.29103 0.74887 0.0
O467 O 0.34846 0.33258 0.74058 0.0
C468 C 0.36047 0.30403 0.72724 0.0
C469 C 0.38538 0.42284 0.77601 0.0
O470 O 0.30207 0.37441 0.7529 0.0
O471 O 0.33232 0.35605 0.80283 0.0
O472 O 0.31706 0.427 0.69833 0.0
O473 O 0.34839 0.39164 0.66846 0.0
O474 O 0.35769 0.43575 0.75875 0.0
O475 O 0.39536 0.39377 0.76339 0.0
O476 O 0.43964 0.3557 0.7476 0.0
O477 O 0.40565 0.37654 0.7002 0.0
C478 C 0.30205 0.36749 0.78607 0.0
C479 C 0.43755 0.36772 0.7147 0.0
Dy480 Dy 0.03653 0.87978 0.61084 0.0
C481 C 0.91179 0.93238 0.66844 0.0
C482 C 0.0952 0.83869 0.60891 0.0
Dy483 Dy 0.97972 0.92504 0.6407 0.0
O484 O 0.06424 0.83053 0.59437 0.0
O485 O 0.09586 0.87201 0.61767 0.0
O486 O 0.99613 0.83537 0.61464 0.0
O487 O 0.99976 0.87392 0.65282 0.0
C488 C 0.98426 0.84636 0.64382 0.0
C489 C 0.03434 0.96319 0.6163 0.0
O490 O 0.01601 0.90741 0.68941 0.0
O491 O 0.0667 0.89867 0.65774 0.0
O492 O 0.93851 0.95441 0.67475 0.0
O493 O 0.9217 0.9091 0.64561 0.0
O494 O 0.01307 0.97456 0.64068 0.0
O495 O 0.0216 0.93515 0.60252 0.0
O496 O 0.01172 0.88752 0.55911 0.0
O497 O 0.95882 0.90919 0.58377 0.0
C498 C 0.05213 0.90045 0.68822 0.0
C499 C 0.97678 0.89607 0.55603 0.0
Dy500 Dy 0.88137 0.2628 0.35916 0.0
C501 C 0.80481 0.1391 0.40189 0.0
C502 C 0.92837 0.31563 0.35089 0.0
Dy503 Dy 0.81764 0.20744 0.37809 0.0
O504 O 0.93361 0.28978 0.37231 0.0
O505 O 0.89723 0.31327 0.33421 0.0
O506 O 0.92043 0.21499 0.36083 0.0
O507 O 0.87287 0.21579 0.38679 0.0
C508 C 0.89832 0.19639 0.37895 0.0
C509 C 0.79468 0.27448 0.36511 0.0
O510 O 0.84375 0.22627 0.42894 0.0
O511 O 0.8672 0.28039 0.41155 0.0
O512 O 0.80482 0.16828 0.42033 0.0
O513 O 0.80774 0.14865 0.36995 0.0
O514 O 0.77433 0.25072 0.38 0.0
O515 O 0.82235 0.25888 0.35293 0.0
O516 O 0.87257 0.24009 0.30737 0.0
O517 O 0.83537 0.19249 0.32297 0.0
C518 C 0.85972 0.25741 0.43578 0.0
C519 C 0.85558 0.20994 0.30027 0.0
Dy520 Dy 0.51836 0.12867 0.10596 0.0
C521 C 0.47415 0.13158 0.2381 0.0
C522 C 0.54519 0.12783 0.04225 0.0
Dy523 Dy 0.51034 0.12196 0.17795 0.0
O524 O 0.53247 0.1006 0.05796 0.0
O525 O 0.54154 0.15665 0.06072 0.0
O526 O 0.4624 0.11029 0.09318 0.0
O527 O 0.49089 0.08594 0.13532 0.0
C528 C 0.4603 0.08795 0.1181 0.0
C529 C 0.55908 0.16994 0.16535 0.0
O530 O 0.56654 0.09333 0.17769 0.0
O531 O 0.57532 0.10826 0.12137 0.0
O532 O 0.49378 0.15488 0.22334 0.0
O533 O 0.47848 0.10111 0.2218 0.0
O534 O 0.56121 0.14995 0.1923 0.0
O535 O 0.52977 0.1658 0.14792 0.0
O536 O 0.47934 0.17464 0.10848 0.0
O537 O 0.46095 0.15416 0.16052 0.0
C538 C 0.58866 0.09597 0.15098 0.0
C539 C 0.45614 0.17526 0.13382 0.0
Dy540 Dy 0.59731 0.7376 0.86368 0.0
C541 C 0.69014 0.84358 0.91459 0.0
C542 C 0.54044 0.69431 0.85604 0.0
Dy543 Dy 0.65654 0.78077 0.89459 0.0
O544 O 0.53844 0.72783 0.86352 0.0
O545 O 0.57374 0.68484 0.8491 0.0
O546 O 0.57236 0.78641 0.84266 0.0
O547 O 0.59657 0.78818 0.89274 0.0
C548 C 0.579 0.80574 0.86974 0.0
C549 C 0.68794 0.71953 0.8722 0.0
O550 O 0.64312 0.7496 0.94392 0.0
O551 O 0.59742 0.71661 0.91775 0.0
O552 O 0.66808 0.82551 0.9332 0.0
O553 O 0.6944 0.82659 0.88577 0.0
O554 O 0.70575 0.74436 0.88896 0.0
O555 O 0.65473 0.72826 0.87006 0.0
O556 O 0.62253 0.74883 0.8138 0.0
O557 O 0.65166 0.79795 0.83753 0.0
C558 C 0.61701 0.72497 0.94565 0.0
C559 C 0.64062 0.77877 0.81002 0.0
Dy560 Dy 0.02979 0.15856 0.89821 0.0
C561 C 0.91523 0.08224 0.83491 0.0
C562 C 0.09464 0.18404 0.91125 0.0
Dy563 Dy 0.97955 0.10476 0.868 0.0
O564 O 0.06628 0.19244 0.92916 0.0
O565 O 0.08856 0.15674 0.8915 0.0
O566 O 0.99923 0.21008 0.89407 0.0
O567 O 0.97457 0.16306 0.87466 0.0
C568 C 0.9708 0.19693 0.87825 0.0
C569 C 0.04007 0.06867 0.88999 0.0
O570 O 0.01693 0.11714 0.82146 0.0
O571 O 0.046 0.16642 0.84409 0.0
O572 O 0.93847 0.10495 0.82367 0.0
O573 O 0.92855 0.07122 0.86435 0.0
O574 O 0.01252 0.05322 0.87427 0.0
O575 O 0.03297 0.10167 0.89179 0.0
O576 O 0.01286 0.1406 0.94897 0.0
O577 O 0.96439 0.10813 0.9264 0.0
C578 C 0.03991 0.1446 0.81799 0.0
C579 C 0.9837 0.12155 0.95355 0.0
Dy580 Dy 0.62735 0.23312 0.66333 0.0
C581 C 0.60969 0.27902 0.52328 0.0
C582 C 0.62805 0.21795 0.73054 0.0
Dy583 Dy 0.6174 0.24036 0.58302 0.0
O584 O 0.65218 0.20644 0.70909 0.0
O585 O 0.60202 0.23602 0.71513 0.0
O586 O 0.67026 0.27427 0.67445 0.0
O587 O 0.65244 0.26589 0.62406 0.0
C588 C 0.67363 0.28497 0.64336 0.0
C589 C 0.56832 0.1932 0.60868 0.0
O590 O 0.65126 0.1885 0.58182 0.0
O591 O 0.64836 0.17902 0.64116 0.0
O592 O 0.58364 0.26445 0.53994 0.0
O593 O 0.64069 0.26869 0.53779 0.0
O594 O 0.56977 0.20181 0.57639 0.0
O595 O 0.59216 0.21163 0.62427 0.0
O596 O 0.5774 0.27 0.65815 0.0
O597 O 0.58977 0.28951 0.60379 0.0
C598 C 0.65604 0.16729 0.60923 0.0
C599 C 0.5718 0.29286 0.63247 0.0
Dy600 Dy 0.53393 0.89926 0.40253 0.0
C601 C 0.47461 0.8803 0.26577 0.0
C602 C 0.56057 0.89041 0.4675 0.0
Dy603 Dy 0.50753 0.89403 0.32797 0.0
O604 O 0.54513 0.86585 0.4489 0.0
O605 O 0.56323 0.91983 0.45024 0.0
O606 O 0.48463 0.92938 0.41834 0.0
O607 O 0.50249 0.93639 0.36778 0.0
C608 C 0.47707 0.94319 0.38876 0.0
C609 C 0.55712 0.84887 0.34397 0.0
O610 O 0.56446 0.91913 0.32024 0.0
O611 O 0.58692 0.91263 0.37642 0.0
O612 O 0.49202 0.85753 0.28473 0.0
O613 O 0.47501 0.91142 0.28148 0.0
O614 O 0.55546 0.86204 0.31337 0.0
O615 O 0.532 0.85873 0.36308 0.0
O616 O 0.49523 0.85425 0.40852 0.0
O617 O 0.46464 0.8601 0.35606 0.0
C618 C 0.59242 0.9195 0.34344 0.0
C619 C 0.46794 0.84551 0.38737 0.0
Dy620 Dy 0.88281 0.73577 0.13786 0.0
C621 C 0.82076 0.85675 0.08682 0.0
C622 C 0.92913 0.68692 0.15512 0.0
Dy623 Dy 0.82412 0.78666 0.10668 0.0
O624 O 0.93459 0.70882 0.13044 0.0
O625 O 0.89825 0.69072 0.17036 0.0
O626 O 0.91685 0.78432 0.14303 0.0
O627 O 0.8801 0.77745 0.10145 0.0
C628 C 0.90185 0.79784 0.11552 0.0
C629 C 0.79951 0.73233 0.14276 0.0
O630 O 0.84017 0.74982 0.0587 0.0
O631 O 0.87653 0.70781 0.0882 0.0
O632 O 0.80253 0.83124 0.07063 0.0
O633 O 0.83753 0.84367 0.11361 0.0
O634 O 0.77869 0.76037 0.13578 0.0
O635 O 0.82681 0.7333 0.12457 0.0
O636 O 0.86527 0.75512 0.18809 0.0
O637 O 0.83892 0.80582 0.1644 0.0
C638 C 0.86154 0.71964 0.05919 0.0
C639 C 0.85292 0.78777 0.19197 0.0
Dy640 Dy 0.63067 0.0087 0.86809 0.0
C641 C 0.69621 0.88232 0.91822 0.0
C642 C 0.61551 0.07024 0.83763 0.0
Dy643 Dy 0.67596 0.95249 0.90848 0.0
O644 O 0.6093 0.03917 0.82395 0.0
O645 O 0.62413 0.06742 0.87001 0.0
O646 O 0.62895 0.96965 0.82432 0.0
O647 O 0.67437 0.97176 0.85786 0.0
C648 C 0.66023 0.95567 0.83314 0.0
C649 C 0.65253 0.00624 0.9454 0.0
O650 O 0.72273 0.99214 0.89608 0.0
O651 O 0.68407 0.03685 0.87454 0.0
O652 O 0.67992 0.90251 0.94069 0.0
O653 O 0.70441 0.90166 0.89209 0.0
O654 O 0.68219 0.98828 0.95417 0.0
O655 O 0.63493 0.99151 0.92095 0.0
O656 O 0.5805 0.9797 0.87981 0.0
O657 O 0.61675 0.93134 0.89733 0.0
C658 C 0.71722 0.0253 0.88331 0.0
C659 C 0.58395 0.94578 0.88815 0.0
Dy660 Dy 0.75627 0.88209 0.6213 0.0
C661 C 0.87753 0.92822 0.68721 0.0
C662 C 0.71633 0.86662 0.56637 0.0
Dy663 Dy 0.80544 0.90932 0.67881 0.0
O664 O 0.75075 0.85975 0.56933 0.0
O665 O 0.70277 0.8797 0.59448 0.0
O666 O 0.80767 0.87528 0.59307 0.0
O667 O 0.80055 0.91943 0.62514 0.0
C668 C 0.82207 0.90398 0.60557 0.0
C669 C 0.75075 0.87407 0.70767 0.0
O670 O 0.76848 0.95939 0.66923 0.0
O671 O 0.73352 0.93736 0.62322 0.0
O672 O 0.85015 0.9507 0.68484 0.0
O673 O 0.86432 0.89641 0.68977 0.0
O674 O 0.77591 0.89096 0.72603 0.0
O675 O 0.756 0.87891 0.67624 0.0
O676 O 0.76943 0.83015 0.64323 0.0
O677 O 0.82497 0.8528 0.6601 0.0
C678 C 0.74305 0.96395 0.64397 0.0
C679 C 0.80419 0.82508 0.6504 0.0
Dy680 Dy 0.88536 0.98505 0.35837 0.0
C681 C 0.82244 0.10526 0.41414 0.0
C682 C 0.90164 0.937 0.30909 0.0
Dy683 Dy 0.85067 0.03665 0.41387 0.0
O684 O 0.91075 0.97027 0.30917 0.0
O685 O 0.88641 0.92949 0.33791 0.0
O686 O 0.88609 0.03466 0.32588 0.0
O687 O 0.84582 0.02684 0.36109 0.0
C688 C 0.8575 0.048 0.34047 0.0
C689 C 0.88066 0.97991 0.44632 0.0
O690 O 0.80113 1.00339 0.39571 0.0
O691 O 0.82813 0.96672 0.35435 0.0
O692 O 0.80686 0.07808 0.42846 0.0
O693 O 0.85409 0.09506 0.40322 0.0
O694 O 0.86414 0.00657 0.46228 0.0
O695 O 0.88044 0.98583 0.4142 0.0
O696 O 0.93647 1.00116 0.38375 0.0
O697 O 0.9111 0.05315 0.40702 0.0
C698 C 0.79908 0.97834 0.37078 0.0
C699 C 0.93999 0.03345 0.39687 0.0
Dy700 Dy 0.76554 0.13934 0.10017 0.0
C701 C 0.63034 0.09315 0.15404 0.0
C702 C 0.82522 0.14326 0.06164 0.0
Dy703 Dy 0.70536 0.11159 0.14872 0.0
O704 O 0.79268 0.15354 0.05203 0.0
O705 O 0.8256 0.13289 0.09335 0.0
O706 O 0.72048 0.16374 0.06853 0.0
O707 O 0.71206 0.11526 0.09352 0.0
C708 C 0.69708 0.13923 0.07526 0.0
C709 C 0.76783 0.12545 0.18643 0.0
O710 O 0.74032 0.06032 0.13784 0.0
O711 O 0.77191 0.08102 0.09122 0.0
O712 O 0.65153 0.10601 0.17877 0.0
O713 O 0.65101 0.08985 0.12747 0.0
O714 O 0.73781 0.11306 0.19946 0.0
O715 O 0.76182 0.12902 0.15439 0.0
O716 O 0.75782 0.1894 0.12888 0.0
O717 O 0.69997 0.17382 0.14705 0.0
C718 C 0.76433 0.05527 0.11239 0.0
C719 C 0.72582 0.19826 0.14141 0.0
Dy720 Dy 0.62696 0.99688 0.65701 0.0
C721 C 0.66578 0.1274 0.60526 0.0
C722 C 0.6229 0.93322 0.68747 0.0
Dy723 Dy 0.65903 0.05187 0.60899 0.0
O724 O 0.61178 0.96328 0.70074 0.0
O725 O 0.63256 0.93769 0.65606 0.0
O726 O 0.61963 0.03995 0.69662 0.0
O727 O 0.66304 0.04153 0.66269 0.0
C728 C 0.64635 0.05857 0.68533 0.0
C729 C 0.64545 0.98715 0.57792 0.0
O730 O 0.71203 0.01983 0.62283 0.0
O731 O 0.68576 0.98165 0.66169 0.0
O732 O 0.658 0.10572 0.57928 0.0
O733 O 0.673 0.10693 0.63135 0.0
O734 O 0.66841 0.011 0.56681 0.0
O735 O 0.62604 1.0024 0.60103 0.0
O736 O 0.57236 0.02011 0.64414 0.0
O737 O 0.59828 0.06522 0.61269 0.0
C738 C 0.71439 0.99256 0.64521 0.0
C739 C 0.5698 0.05058 0.62751 0.0
Dy740 Dy 0.76564 0.8696 0.39152 0.0
C741 C 0.63224 0.92042 0.33269 0.0
C742 C 0.81654 0.85884 0.44234 0.0
Dy743 Dy 0.7076 0.90011 0.33542 0.0
O744 O 0.78457 0.84432 0.44074 0.0
O745 O 0.8212 0.8776 0.41491 0.0
O746 O 0.71527 0.86618 0.42391 0.0
O747 O 0.7194 0.90538 0.38829 0.0
C748 C 0.69881 0.89323 0.40946 0.0
C749 C 0.76804 0.87631 0.30336 0.0
O750 O 0.74389 0.94907 0.34672 0.0
O751 O 0.78262 0.92494 0.39013 0.0
O752 O 0.64839 0.89662 0.31303 0.0
O753 O 0.65822 0.93398 0.35193 0.0
O754 O 0.73975 0.89142 0.28726 0.0
O755 O 0.76171 0.87542 0.33541 0.0
O756 O 0.75855 0.82088 0.36163 0.0
O757 O 0.69962 0.84064 0.3495 0.0
C758 C 0.7709 0.95156 0.37091 0.0
C759 C 0.72439 0.81406 0.35419 0.0
Dy760 Dy 0.87941 0.01474 0.13908 0.0
C761 C 0.83103 0.89297 0.07548 0.0
C762 C 0.89614 0.05743 0.1926 0.0
Dy763 Dy 0.84846 0.96425 0.08098 0.0
O764 O 0.90454 0.02393 0.19053 0.0
O765 O 0.88108 0.06826 0.16384 0.0
O766 O 0.87943 0.96644 0.17179 0.0
O767 O 0.83875 0.9736 0.13393 0.0
C768 C 0.85139 0.95295 0.15604 0.0
C769 C 0.8871 0.01716 0.05264 0.0
O770 O 0.7976 1.00047 0.0921 0.0
O771 O 0.82349 0.03929 0.13311 0.0
O772 O 0.81044 0.91877 0.06264 0.0
O773 O 0.86079 0.90658 0.08816 0.0
O774 O 0.8696 0.99285 0.03418 0.0
O775 O 0.88173 0.01125 0.08392 0.0
O776 O 0.93231 0.99487 0.12051 0.0
O777 O 0.90605 0.9432 0.09881 0.0
C778 C 0.79491 0.0282 0.11447 0.0
C779 C 0.93517 0.96107 0.1111 0.0
Dy780 Dy 0.76044 0.13887 0.9031 0.0
C781 C 0.87601 0.09042 0.83122 0.0
C782 C 0.70879 0.16171 0.9431 0.0
Dy783 Dy 0.80457 0.10544 0.84271 0.0
O784 O 0.73156 0.13627 0.95158 0.0
O785 O 0.71394 0.17497 0.91297 0.0
O786 O 0.81316 0.14233 0.93274 0.0
O787 O 0.80376 0.10159 0.89629 0.0
C788 C 0.82707 0.1163 0.91476 0.0
C789 C 0.74637 0.14542 0.82347 0.0
O790 O 0.77156 0.05556 0.85862 0.0
O791 O 0.73603 0.08371 0.90054 0.0
O792 O 0.84926 0.06972 0.82023 0.0
O793 O 0.86316 0.11844 0.84655 0.0
O794 O 0.77249 0.13654 0.80237 0.0
O795 O 0.75055 0.12698 0.84992 0.0
O796 O 0.78786 0.18984 0.88999 0.0
O797 O 0.82747 0.16241 0.85221 0.0
C798 C 0.74542 0.05461 0.88255 0.0
C799 C 0.8172 0.19079 0.87114 0.0
Dy800 Dy 0.85804 0.60487 0.0181 0.0
C801 C 0.89201 0.68601 0.89824 0.0
C802 C 0.83733 0.59551 0.08179 0.0
Dy803 Dy 0.88823 0.64971 0.95901 0.0
O804 O 0.82333 0.57866 0.05531 0.0
O805 O 0.86847 0.60878 0.07398 0.0
O806 O 0.80325 0.60528 0.9911 0.0
O807 O 0.83941 0.64679 0.98593 0.0
C808 C 0.80952 0.63534 0.9764 0.0
C809 C 0.93652 0.62714 0.00648 0.0
O810 O 0.8725 0.69619 0.99765 0.0
O811 O 0.86418 0.65863 0.04339 0.0
O812 O 0.9191 0.66864 0.91301 0.0
O813 O 0.86313 0.68285 0.9164 0.0
O814 O 0.9399 0.65721 0.99028 0.0
O815 O 0.9101 0.60983 0.99414 0.0
O816 O 0.87 0.55718 0.98548 0.0
O817 O 0.87651 0.59126 0.93611 0.0
C818 C 0.86492 0.69136 0.03101 0.0
C819 C 0.87251 0.55907 0.9516 0.0
Dy820 Dy 0.37964 0.90207 0.02862 0.0
C821 C 0.37167 0.76533 0.96879 0.0
C822 C 0.36547 0.96879 0.05226 0.0
Dy823 Dy 0.38659 0.82342 0.00776 0.0
O824 O 0.3445 0.95135 0.031 0.0
O825 O 0.39325 0.94935 0.06219 0.0
O826 O 0.41952 0.91947 0.99156 0.0
O827 O 0.42531 0.86755 0.01249 0.0
C828 C 0.43678 0.88921 0.99076 0.0
C829 C 0.33093 0.83897 0.0452 0.0
O830 O 0.41478 0.8183 0.05919 0.0
O831 O 0.39238 0.87394 0.07813 0.0
O832 O 0.3503 0.77928 0.99108 0.0
O833 O 0.40372 0.78039 0.97146 0.0
O834 O 0.34835 0.80887 0.04836 0.0
O835 O 0.34282 0.85818 0.02204 0.0
O836 O 0.34069 0.89961 0.98339 0.0
O837 O 0.36945 0.85133 0.959 0.0
C838 C 0.40842 0.84236 0.08386 0.0
C839 C 0.34523 0.8776 0.95708 0.0
Dy840 Dy 0.84644 0.63417 0.738 0.0
C841 C 0.89034 0.69635 0.86193 0.0
C842 C 0.83196 0.59264 0.68328 0.0
Dy843 Dy 0.8741 0.68121 0.79435 0.0
O844 O 0.81419 0.59243 0.71143 0.0
O845 O 0.85402 0.61943 0.68349 0.0
O846 O 0.83902 0.58996 0.77565 0.0
O847 O 0.88036 0.62557 0.7838 0.0
C848 C 0.86457 0.60024 0.79682 0.0
C849 C 0.86583 0.71578 0.73402 0.0
O850 O 0.92813 0.65882 0.77533 0.0
O851 O 0.90499 0.63333 0.7249 0.0
O852 O 0.91314 0.68359 0.83992 0.0
O853 O 0.85978 0.70456 0.84596 0.0
O854 O 0.88744 0.72631 0.7592 0.0
O855 O 0.84486 0.69191 0.74477 0.0
O856 O 0.79282 0.65191 0.75562 0.0
O857 O 0.81801 0.66073 0.80944 0.0
C858 C 0.93269 0.64166 0.7456 0.0
C859 C 0.7895 0.65286 0.78901 0.0
Dy860 Dy 0.13566 0.11223 0.48354 0.0
C861 C 0.09723 0.16745 0.61448 0.0
C862 C 0.16174 0.0889 0.42323 0.0
Dy863 Dy 0.09436 0.15177 0.54235 0.0
O864 O 0.17377 0.07886 0.45327 0.0
O865 O 0.13149 0.10668 0.4269 0.0
O866 O 0.18705 0.11363 0.51633 0.0
O867 O 0.14772 0.15401 0.52137 0.0
C868 C 0.17724 0.14183 0.53349 0.0
C869 C 0.05148 0.12477 0.48898 0.0
O870 O 0.10936 0.19925 0.50544 0.0
O871 O 0.12585 0.16434 0.45812 0.0
O872 O 0.07466 0.18273 0.59189 0.0
O873 O 0.1163 0.14454 0.59708 0.0
O874 O 0.04058 0.14975 0.51054 0.0
O875 O 0.08083 0.11185 0.50163 0.0
O876 O 0.12127 0.06402 0.51146 0.0
O877 O 0.10978 0.09485 0.56203 0.0
C878 C 0.11907 0.19597 0.47198 0.0
C879 C 0.11819 0.06466 0.54504 0.0
Dy880 Dy 0.16168 0.8997 0.73855 0.0
C881 C 0.09169 0.86123 0.856 0.0
C882 C 0.17585 0.9341 0.68172 0.0
Dy883 Dy 0.11735 0.86202 0.7902 0.0
O884 O 0.19126 0.94107 0.71132 0.0
O885 O 0.16068 0.90319 0.6823 0.0
O886 O 0.15986 0.94818 0.77289 0.0
O887 O 0.11591 0.91402 0.77008 0.0
C888 C 0.12809 0.94116 0.78434 0.0
C889 C 0.14647 0.81805 0.74297 0.0
O890 O 0.07228 0.8847 0.75088 0.0
O891 O 0.11244 0.88658 0.70695 0.0
O892 O 0.07432 0.84678 0.82967 0.0
O893 O 0.1225 0.8732 0.84614 0.0
O894 O 0.11742 0.8102 0.76009 0.0
O895 O 0.16114 0.8453 0.75613 0.0
O896 O 0.21071 0.88377 0.76864 0.0
O897 O 0.17532 0.87391 0.81596 0.0
C898 C 0.0787 0.88981 0.71728 0.0
C899 C 0.2081 0.87991 0.8021 0.0
Dy900 Dy 0.61903 0.40005 0.52334 0.0
C901 C 0.57242 0.36815 0.38841 0.0
C902 C 0.64692 0.40841 0.58598 0.0
Dy903 Dy 0.57789 0.3783 0.45917 0.0
O904 O 0.64784 0.43244 0.56255 0.0
O905 O 0.62238 0.38516 0.57779 0.0
O906 O 0.67209 0.40371 0.49692 0.0
O907 O 0.63264 0.36843 0.47832 0.0
C908 C 0.66205 0.3829 0.47177 0.0
C909 C 0.53719 0.39254 0.5165 0.0
O910 O 0.5951 0.32314 0.47852 0.0
O911 O 0.61042 0.34185 0.53389 0.0
O912 O 0.56654 0.34375 0.41116 0.0
O913 O 0.57773 0.39802 0.40482 0.0
O914 O 0.52666 0.37147 0.49116 0.0
O915 O 0.56445 0.40879 0.50637 0.0
O916 O 0.61174 0.45451 0.50248 0.0
O917 O 0.60212 0.43307 0.44743 0.0
C918 C 0.60444 0.31598 0.51104 0.0
C919 C 0.61162 0.45931 0.46909 0.0
Dy920 Dy 0.85383 0.38193 0.74898 0.0
C921 C 0.91255 0.33439 0.62126 0.0
C922 C 0.84586 0.42068 0.80727 0.0
Dy923 Dy 0.88827 0.34045 0.68713 0.0
O924 O 0.828 0.42631 0.77858 0.0
O925 O 0.86446 0.39102 0.80493 0.0
O926 O 0.84497 0.42772 0.71282 0.0
O927 O 0.88865 0.39339 0.70672 0.0
C928 C 0.87212 0.4189 0.69377 0.0
C929 C 0.87899 0.30282 0.74259 0.0
O930 O 0.93872 0.36022 0.71624 0.0
O931 O 0.91027 0.37452 0.76757 0.0
O932 O 0.89222 0.31103 0.63613 0.0
O933 O 0.91948 0.35998 0.64294 0.0
O934 O 0.9044 0.29439 0.72083 0.0
O935 O 0.85793 0.32686 0.73114 0.0
O936 O 0.80387 0.35643 0.73076 0.0
O937 O 0.82706 0.35374 0.67571 0.0
C938 C 0.93944 0.3712 0.74892 0.0
C939 C 0.79882 0.35536 0.69722 0.0
Dy940 Dy 0.65865 0.62427 0.28452 0.0
C941 C 0.60304 0.6714 0.15472 0.0
C942 C 0.68119 0.59081 0.34201 0.0
Dy943 Dy 0.62081 0.66997 0.22664 0.0
O944 O 0.69373 0.58463 0.3117 0.0
O945 O 0.66235 0.62036 0.34111 0.0
O946 O 0.65317 0.57535 0.25122 0.0
O947 O 0.61546 0.61734 0.24611 0.0
C948 C 0.62554 0.58814 0.23379 0.0
C949 C 0.65034 0.70719 0.28215 0.0
O950 O 0.57113 0.65549 0.26178 0.0
O951 O 0.60514 0.63477 0.30921 0.0
O952 O 0.58801 0.69216 0.17823 0.0
O953 O 0.62709 0.65189 0.17111 0.0
O954 O 0.6254 0.72014 0.26056 0.0
O955 O 0.66229 0.67866 0.26873 0.0
O956 O 0.70874 0.63667 0.25646 0.0
O957 O 0.67847 0.65509 0.20655 0.0
C958 C 0.57323 0.64352 0.2947 0.0
C959 C 0.70874 0.64359 0.22329 0.0
Dy960 Dy 0.52721 0.59103 0.87101 0.0
C961 C 0.40572 0.66807 0.9037 0.0
C962 C 0.59462 0.58523 0.84236 0.0
Dy963 Dy 0.46735 0.63133 0.90223 0.0
O964 O 0.57059 0.55981 0.84105 0.0
O965 O 0.58264 0.61144 0.861 0.0
O966 O 0.49498 0.5406 0.86826 0.0
O967 O 0.48578 0.57712 0.90857 0.0
C968 C 0.47397 0.54938 0.89369 0.0
C969 C 0.51691 0.6711 0.87363 0.0
O970 O 0.49477 0.62347 0.95334 0.0
O971 O 0.54838 0.60499 0.92775 0.0
O972 O 0.43394 0.67517 0.92315 0.0
O973 O 0.40846 0.63608 0.89136 0.0
O974 O 0.50081 0.68034 0.90138 0.0
O975 O 0.50487 0.64269 0.86176 0.0
O976 O 0.49158 0.60756 0.82201 0.0
O977 O 0.44004 0.61363 0.85312 0.0
C978 C 0.53019 0.61635 0.95586 0.0
C979 C 0.45533 0.61321 0.82286 0.0
Dy980 Dy 0.69637 0.30467 0.13109 0.0
C981 C 0.58532 0.1971 0.1592 0.0
C982 C 0.70938 0.37255 0.10568 0.0
Dy983 Dy 0.63217 0.25004 0.15052 0.0
O984 O 0.70709 0.34317 0.08772 0.0
O985 O 0.70855 0.36334 0.13792 0.0
O986 O 0.73926 0.26107 0.12894 0.0
O987 O 0.69137 0.25327 0.15651 0.0
C988 C 0.71878 0.23747 0.14393 0.0
C989 C 0.61591 0.31643 0.12969 0.0
O990 O 0.64108 0.27305 0.20214 0.0
O991 O 0.67846 0.32035 0.18618 0.0
O992 O 0.58003 0.22271 0.1375 0.0
O993 O 0.61635 0.19985 0.176 0.0
O994 O 0.59341 0.29819 0.14772 0.0
O995 O 0.64119 0.29658 0.12245 0.0
O996 O 0.67039 0.285 0.08044 0.0
O997 O 0.64662 0.23133 0.09864 0.0
C998 C 0.65816 0.30318 0.20907 0.0
C999 C 0.65431 0.25382 0.07409 0.0
Dy1000 Dy 1.00367 0.39061 0.33291 0.0
C1001 C 0.96782 0.38311 0.4687 0.0
C1002 C 0.04033 0.38213 0.27302 0.0
Dy1003 Dy 0.99547 0.38272 0.40521 0.0
O1004 O 0.02018 0.35866 0.28688 0.0
O1005 O 0.03633 0.41225 0.28997 0.0
O1006 O 0.95296 0.36267 0.31793 0.0
O1007 O 0.98407 0.34651 0.36245 0.0
C1008 C 0.95491 0.34247 0.34476 0.0
C1009 C 0.05367 0.42324 0.39316 0.0
O1010 O 0.03441 0.3367 0.40198 0.0
O1011 O 0.05267 0.35762 0.35 0.0
O1012 O 0.98061 0.41048 0.45322 0.0
O1013 O 0.97205 0.3544 0.45014 0.0
O1014 O 0.05156 0.40086 0.41806 0.0
O1015 O 0.02292 0.42561 0.37626 0.0
O1016 O 0.94737 0.41909 0.33356 0.0
O1017 O 0.93853 0.40309 0.38963 0.0
C1018 C 0.05748 0.33624 0.3765 0.0
C1019 C 0.9252 0.41582 0.36017 0.0
Dy1020 Dy 0.84881 0.72841 0.61413 0.0
C1021 C 0.95135 0.83436 0.65853 0.0
C1022 C 0.81753 0.66646 0.58952 0.0
Dy1023 Dy 0.91002 0.77788 0.64635 0.0
O1024 O 0.80757 0.68441 0.61652 0.0
O1025 O 0.84433 0.68293 0.57549 0.0
O1026 O 0.80027 0.76574 0.62277 0.0
O1027 O 0.85217 0.77986 0.63894 0.0
C1028 C 0.81945 0.79021 0.63882 0.0
C1029 C 0.94058 0.71521 0.62967 0.0
O1030 O 0.88567 0.7602 0.69502 0.0
O1031 O 0.85541 0.71106 0.67088 0.0
O1032 O 0.95342 0.80528 0.67638 0.0
O1033 O 0.92259 0.83424 0.63844 0.0
O1034 O 0.95833 0.7413 0.64379 0.0
O1035 O 0.90738 0.72426 0.62512 0.0
O1036 O 0.86389 0.76141 0.56605 0.0
O1037 O 0.91176 0.7936 0.59082 0.0
C1038 C 0.86777 0.72994 0.69824 0.0
C1039 C 0.89088 0.78526 0.5637 0.0
Dy1040 Dy 0.52905 0.40658 0.63912 0.0
C1041 C 0.41394 0.32668 0.5958 0.0
C1042 C 0.59337 0.42885 0.67225 0.0
Dy1043 Dy 0.47863 0.35283 0.60873 0.0
O1044 O 0.57007 0.4062 0.68345 0.0
O1045 O 0.5802 0.43997 0.64278 0.0
O1046 O 0.49593 0.45809 0.63317 0.0
O1047 O 0.47554 0.40975 0.6154 0.0
C1048 C 0.46832 0.44273 0.61745 0.0
C1049 C 0.5375 0.31439 0.62929 0.0
O1050 O 0.49609 0.37052 0.55794 0.0
O1051 O 0.54457 0.40283 0.58076 0.0
O1052 O 0.44243 0.31837 0.57804 0.0
O1053 O 0.41976 0.35446 0.61497 0.0
O1054 O 0.50912 0.30122 0.61343 0.0
O1055 O 0.53365 0.34827 0.63265 0.0
O1056 O 0.49198 0.39414 0.68592 0.0
O1057 O 0.4617 0.34574 0.66281 0.0
C1058 C 0.52549 0.38931 0.55348 0.0
C1059 C 0.4684 0.36713 0.68914 0.0
Dy1060 Dy 0.89147 0.27048 0.92547 0.0
C1061 C 0.88055 0.29427 0.77864 0.0
C1062 C 0.90004 0.23139 0.98452 0.0
Dy1063 Dy 0.88096 0.2786 0.84567 0.0
O1064 O 0.92588 0.24631 0.96791 0.0
O1065 O 0.86877 0.24162 0.97051 0.0
O1066 O 0.93915 0.3088 0.93254 0.0
O1067 O 0.91657 0.29984 0.88453 0.0
C1068 C 0.9405 0.31794 0.90041 0.0
C1069 C 0.83518 0.22605 0.86494 0.0
O1070 O 0.93091 0.2417 0.85012 0.0
O1071 O 0.91865 0.2214 0.90416 0.0
O1072 O 0.85607 0.30528 0.79995 0.0
O1073 O 0.9067 0.27641 0.79408 0.0
O1074 O 0.83816 0.23746 0.83404 0.0
O1075 O 0.85638 0.24485 0.8845 0.0
O1076 O 0.85756 0.32212 0.92778 0.0
O1077 O 0.85997 0.33239 0.86859 0.0
C1078 C 0.93651 0.21842 0.87542 0.0
C1079 C 0.85262 0.34371 0.90072 0.0
Dy1080 Dy 1.00488 0.61685 0.18055 0.0
C1081 C 0.95153 0.62118 0.04098 0.0
C1082 C 0.03853 0.62914 0.2426 0.0
Dy1083 Dy 0.97851 0.61253 0.106 0.0
O1084 O 0.02095 0.65241 0.22436 0.0
O1085 O 0.03787 0.59833 0.22635 0.0
O1086 O 0.95745 0.64905 0.19577 0.0
O1087 O 0.98052 0.65279 0.14581 0.0
C1088 C 0.95567 0.6626 0.16533 0.0
C1089 C 0.03532 0.56825 0.11967 0.0
O1090 O 0.01733 0.65755 0.10051 0.0
O1091 O 0.04793 0.65084 0.15287 0.0
O1092 O 0.96719 0.64576 0.05942 0.0
O1093 O 0.94898 0.59186 0.0584 0.0
O1094 O 0.02805 0.58256 0.09025 0.0
O1095 O 0.00965 0.57486 0.14041 0.0
O1096 O 0.94768 0.59221 0.18811 0.0
O1097 O 0.92535 0.59947 0.13199 0.0
C1098 C 0.04469 0.66586 0.12177 0.0
C1099 C 0.91971 0.59237 0.1649 0.0
Dy1100 Dy 0.68866 0.72491 0.4027 0.0
C1101 C 0.58317 0.82416 0.35437 0.0
C1102 C 0.69262 0.65493 0.42342 0.0
Dy1103 Dy 0.62886 0.77499 0.37216 0.0
O1104 O 0.711 0.68076 0.43897 0.0
O1105 O 0.67537 0.66767 0.39673 0.0
O1106 O 0.73329 0.7516 0.37296 0.0
O1107 O 0.68505 0.7784 0.38471 0.0
C1108 C 0.71218 0.77953 0.36624 0.0
C1109 C 0.61109 0.71284 0.39552 0.0
O1110 O 0.64571 0.75553 0.32178 0.0
O1111 O 0.67363 0.70544 0.34515 0.0
O1112 O 0.57714 0.80228 0.37895 0.0
O1113 O 0.61416 0.82002 0.33942 0.0
O1114 O 0.59518 0.726 0.36823 0.0
O1115 O 0.63282 0.73374 0.4088 0.0
O1116 O 0.67289 0.762 0.45059 0.0
O1117 O 0.63479 0.80308 0.42174 0.0
C1118 C 0.65883 0.72321 0.31776 0.0
C1119 C 0.65076 0.79166 0.45044 0.0
Dy1120 Dy 0.83136 0.5583 0.59673 0.0
C1121 C 0.89078 0.44463 0.67418 0.0
C1122 C 0.81101 0.62796 0.58514 0.0
Dy1123 Dy 0.87603 0.50419 0.64014 0.0
O1124 O 0.82938 0.60783 0.56412 0.0
O1125 O 0.80064 0.60867 0.61055 0.0
O1126 O 0.82662 0.52135 0.55195 0.0
O1127 O 0.87301 0.51923 0.58658 0.0
C1128 C 0.8561 0.50385 0.56208 0.0
C1129 C 0.84567 0.55892 0.67187 0.0
O1130 O 0.9263 0.53276 0.62797 0.0
O1131 O 0.89029 0.58026 0.60792 0.0
O1132 O 0.89386 0.47644 0.68716 0.0
O1133 O 0.88518 0.44566 0.64115 0.0
O1134 O 0.87698 0.54571 0.68176 0.0
O1135 O 0.83185 0.54127 0.64802 0.0
O1136 O 0.7848 0.5185 0.609 0.0
O1137 O 0.82341 0.475 0.63277 0.0
C1138 C 0.92298 0.56622 0.61801 0.0
C1139 C 0.79039 0.48587 0.62287 0.0
Dy1140 Dy 0.70323 0.60071 0.83303 0.0
C1141 C 0.79355 0.64442 0.94439 0.0
C1142 C 0.63018 0.5872 0.82561 0.0
Dy1143 Dy 0.75272 0.62858 0.89011 0.0
O1144 O 0.65559 0.56246 0.82686 0.0
O1145 O 0.64553 0.61802 0.82364 0.0
O1146 O 0.73212 0.61836 0.78543 0.0
O1147 O 0.75257 0.63123 0.83501 0.0
C1148 C 0.75732 0.63559 0.8034 0.0
C1149 C 0.68697 0.6064 0.90606 0.0
O1150 O 0.73916 0.68066 0.86873 0.0
O1151 O 0.68411 0.65721 0.85142 0.0
O1152 O 0.75893 0.65047 0.9422 0.0
O1153 O 0.80673 0.63177 0.91595 0.0
O1154 O 0.70136 0.63507 0.91868 0.0
O1155 O 0.70866 0.59099 0.88666 0.0
O1156 O 0.73958 0.55039 0.8433 0.0
O1157 O 0.77562 0.5734 0.88818 0.0
C1158 C 0.70444 0.68515 0.86115 0.0
C1159 C 0.76563 0.54642 0.86811 0.0
Dy1160 Dy 0.66246 0.4749 0.09482 0.0
C1161 C 0.6122 0.57234 0.20211 0.0
C1162 C 0.69137 0.40648 0.09404 0.0
Dy1163 Dy 0.62817 0.52525 0.15183 0.0
O1164 O 0.70639 0.43384 0.07944 0.0
O1165 O 0.65984 0.4164 0.10542 0.0
O1166 O 0.6476 0.50564 0.04713 0.0
O1167 O 0.63206 0.52542 0.09584 0.0
C1168 C 0.63096 0.53178 0.06377 0.0
C1169 C 0.65695 0.46202 0.16797 0.0
O1170 O 0.57697 0.50948 0.1264 0.0
O1171 O 0.60213 0.45817 0.10148 0.0
O1172 O 0.60378 0.53887 0.20187 0.0
O1173 O 0.62685 0.58051 0.17319 0.0
O1174 O 0.62855 0.47484 0.1833 0.0
O1175 O 0.66795 0.48389 0.14768 0.0
O1176 O 0.71174 0.50853 0.11257 0.0
O1177 O 0.68521 0.54398 0.15516 0.0
C1178 C 0.57336 0.47766 0.11224 0.0
C1179 C 0.71397 0.53302 0.13796 0.0
Dy1180 Dy 0.8082 0.40042 0.36116 0.0
C1181 C 0.68799 0.36786 0.44839 0.0
C1182 C 0.88348 0.41846 0.35717 0.0
Dy1183 Dy 0.74692 0.37193 0.40912 0.0
O1184 O 0.86221 0.40755 0.3316 0.0
O1185 O 0.8628 0.41997 0.38385 0.0
O1186 O 0.77563 0.39929 0.31039 0.0
O1187 O 0.75179 0.38322 0.35537 0.0
C1188 C 0.74557 0.38696 0.32343 0.0
C1189 C 0.81545 0.37121 0.43375 0.0
O1190 O 0.75531 0.32212 0.38025 0.0
O1191 O 0.81321 0.33814 0.3621 0.0
O1192 O 0.72122 0.36122 0.45872 0.0
O1193 O 0.68646 0.37436 0.41566 0.0
O1194 O 0.79193 0.34668 0.44017 0.0
O1195 O 0.80043 0.3956 0.41606 0.0
O1196 O 0.77391 0.45193 0.37253 0.0
O1197 O 0.73929 0.43026 0.41692 0.0
C1198 C 0.78741 0.31359 0.36768 0.0
C1199 C 0.74869 0.4565 0.39701 0.0
Dy1200 Dy 0.85031 0.459 0.90181 0.0
C1201 C 0.88415 0.57472 0.81798 0.0
C1202 C 0.84308 0.38354 0.90536 0.0
Dy1203 Dy 0.8816 0.51315 0.85233 0.0
O1204 O 0.85205 0.40498 0.93121 0.0
O1205 O 0.83503 0.40423 0.87965 0.0
O1206 O 0.84179 0.50026 0.94374 0.0
O1207 O 0.88338 0.50872 0.9085 0.0
C1208 C 0.86446 0.52403 0.93196 0.0
C1209 C 0.86157 0.45078 0.82578 0.0
O1210 O 0.93654 0.49059 0.86538 0.0
O1211 O 0.91112 0.44583 0.89773 0.0
O1212 O 0.89277 0.54363 0.80537 0.0
O1213 O 0.87811 0.57256 0.85054 0.0
O1214 O 0.88867 0.4686 0.81417 0.0
O1215 O 0.84527 0.46867 0.84806 0.0
O1216 O 0.79696 0.49054 0.88875 0.0
O1217 O 0.82296 0.52932 0.85031 0.0
C1218 C 0.93945 0.46046 0.8826 0.0
C1219 C 0.79443 0.51803 0.86669 0.0
Dy1220 Dy 0.8044 0.61194 0.17329 0.0
C1221 C 0.6934 0.65247 0.06684 0.0
C1222 C 0.87983 0.59164 0.17559 0.0
Dy1223 Dy 0.74528 0.64235 0.11721 0.0
O1224 O 0.86375 0.6153 0.19548 0.0
O1225 O 0.85377 0.57832 0.15628 0.0
O1226 O 0.77224 0.62034 0.22145 0.0
O1227 O 0.75005 0.63631 0.17338 0.0
C1228 C 0.74375 0.63522 0.20545 0.0
C1229 C 0.81227 0.61916 0.09925 0.0
O1230 O 0.75291 0.69118 0.14687 0.0
O1231 O 0.81191 0.67139 0.15937 0.0
O1232 O 0.72562 0.66653 0.06761 0.0
O1233 O 0.68911 0.63443 0.09481 0.0
O1234 O 0.79545 0.64575 0.08431 0.0
O1235 O 0.79184 0.60718 0.12059 0.0
O1236 O 0.76869 0.56277 0.16188 0.0
O1237 O 0.72942 0.58666 0.11869 0.0
C1238 C 0.78707 0.69788 0.15458 0.0
C1239 C 0.74167 0.56011 0.13775 0.0
Dy1240 Dy 0.66527 0.54735 0.4294 0.0
C1241 C 0.61871 0.45705 0.31511 0.0
C1242 C 0.68257 0.61883 0.43557 0.0
Dy1243 Dy 0.63457 0.49852 0.36984 0.0
O1244 O 0.70381 0.59277 0.44693 0.0
O1245 O 0.65224 0.60526 0.42412 0.0
O1246 O 0.64469 0.51691 0.47538 0.0
O1247 O 0.63287 0.49986 0.42506 0.0
C1248 C 0.62792 0.49268 0.45616 0.0
C1249 C 0.66209 0.56122 0.35519 0.0
O1250 O 0.58147 0.51702 0.38907 0.0
O1251 O 0.6072 0.56818 0.41253 0.0
O1252 O 0.61132 0.49076 0.31733 0.0
O1253 O 0.63284 0.44562 0.34402 0.0
O1254 O 0.63379 0.54835 0.3393 0.0
O1255 O 0.675 0.53959 0.37625 0.0
O1256 O 0.7161 0.51131 0.41794 0.0
O1257 O 0.69055 0.47407 0.3754 0.0
C1258 C 0.57822 0.5504 0.39973 0.0
C1259 C 0.7189 0.48432 0.39478 0.0
Dy1260 Dy 0.70397 0.40568 0.66445 0.0
C1261 C 0.80162 0.3486 0.56559 0.0
C1262 C 0.63259 0.42088 0.6764 0.0
Dy1263 Dy 0.74887 0.37145 0.6046 0.0
O1264 O 0.65932 0.4425 0.68532 0.0
O1265 O 0.64547 0.39188 0.66286 0.0
O1266 O 0.73619 0.37595 0.70557 0.0
O1267 O 0.75831 0.38445 0.65775 0.0
C1268 C 0.76246 0.36683 0.68474 0.0
C1269 C 0.68201 0.3933 0.59266 0.0
O1270 O 0.72143 0.32065 0.61836 0.0
O1271 O 0.68108 0.34873 0.65504 0.0
O1272 O 0.7785 0.37349 0.55637 0.0
O1273 O 0.79608 0.33579 0.59584 0.0
O1274 O 0.69612 0.36726 0.5748 0.0
O1275 O 0.70524 0.40831 0.6109 0.0
O1276 O 0.7364 0.4555 0.6477 0.0
O1277 O 0.77237 0.42704 0.60627 0.0
C1278 C 0.69169 0.32007 0.63672 0.0
C1279 C 0.76255 0.45633 0.62379 0.0
Dy1280 Dy 0.62248 0.86149 0.55007 0.0
C1281 C 0.67431 0.91683 0.42765 0.0
C1282 C 0.61815 0.82402 0.6101 0.0
Dy1283 Dy 0.65405 0.90676 0.49141 0.0
O1284 O 0.59107 0.84136 0.59527 0.0
O1285 O 0.64732 0.82803 0.59253 0.0
O1286 O 0.57122 0.85436 0.51827 0.0
O1287 O 0.60158 0.90154 0.51462 0.0
C1288 C 0.57523 0.88432 0.50204 0.0
C1289 C 0.70136 0.87598 0.53403 0.0
O1290 O 0.64161 0.95417 0.52427 0.0
O1291 O 0.63341 0.91994 0.57335 0.0
O1292 O 0.68891 0.93298 0.45428 0.0
O1293 O 0.64311 0.90372 0.43553 0.0
O1294 O 0.70837 0.90597 0.51945 0.0
O1295 O 0.6716 0.86486 0.52381 0.0
O1296 O 0.63848 0.81521 0.51143 0.0
O1297 O 0.64973 0.8527 0.4662 0.0
C1298 C 0.63798 0.95215 0.55803 0.0
C1299 C 0.64773 0.82 0.47849 0.0
Dy1300 Dy 0.12253 0.68683 0.50083 0.0
C1301 C 0.14758 0.54221 0.45716 0.0
C1302 C 0.13416 0.74494 0.54074 0.0
Dy1303 Dy 0.13196 0.60874 0.47982 0.0
O1304 O 0.15574 0.73332 0.51746 0.0
O1305 O 0.1033 0.72774 0.53842 0.0
O1306 O 0.16152 0.70266 0.46124 0.0
O1307 O 0.16776 0.65333 0.48739 0.0
C1308 C 0.17979 0.67308 0.4647 0.0
C1309 C 0.07367 0.61975 0.51653 0.0
O1310 O 0.16977 0.61162 0.52569 0.0
O1311 O 0.13984 0.65936 0.54973 0.0
O1312 O 0.1683 0.56036 0.47805 0.0
O1313 O 0.11946 0.56093 0.44682 0.0
O1314 O 0.09199 0.59009 0.51624 0.0
O1315 O 0.08501 0.64178 0.49507 0.0
O1316 O 0.09487 0.69139 0.44919 0.0
O1317 O 0.11976 0.63679 0.43026 0.0
C1318 C 0.16437 0.63343 0.55195 0.0
C1319 C 0.10262 0.6678 0.42449 0.0
Dy1320 Dy 0.63354 0.82779 0.71403 0.0
C1321 C 0.67235 0.92149 0.8214 0.0
C1322 C 0.61931 0.8126 0.64611 0.0
Dy1323 Dy 0.659 0.87627 0.76937 0.0
O1324 O 0.59542 0.82369 0.66787 0.0
O1325 O 0.6499 0.80568 0.66256 0.0
O1326 O 0.62077 0.78251 0.74908 0.0
O1327 O 0.66226 0.81817 0.76415 0.0
C1328 C 0.6419 0.79351 0.77445 0.0
C1329 C 0.64212 0.9079 0.70897 0.0
O1330 O 0.71355 0.85829 0.75458 0.0
O1331 O 0.6903 0.84824 0.70026 0.0
O1332 O 0.69001 0.92049 0.79321 0.0
O1333 O 0.65037 0.8947 0.82278 0.0
O1334 O 0.66785 0.91838 0.72977 0.0
O1335 O 0.62592 0.88344 0.72289 0.0
O1336 O 0.57869 0.85043 0.73152 0.0
O1337 O 0.60027 0.87684 0.78197 0.0
C1338 C 0.71816 0.85666 0.72137 0.0
C1339 C 0.5731 0.86823 0.76078 0.0
Dy1340 Dy 0.41779 0.35966 0.96606 0.0
C1341 C 0.35013 0.42238 0.0846 0.0
C1342 C 0.41433 0.34436 0.89385 0.0
Dy1343 Dy 0.37708 0.399 0.02465 0.0
O1344 O 0.43664 0.32852 0.9163 0.0
O1345 O 0.39588 0.36763 0.9114 0.0
O1346 O 0.47189 0.36143 0.99737 0.0
O1347 O 0.43204 0.39972 0.00666 0.0
C1348 C 0.46144 0.38649 0.01904 0.0
C1349 C 0.33512 0.36925 0.97485 0.0
O1350 O 0.39141 0.44732 0.99698 0.0
O1351 O 0.4012 0.41636 0.94629 0.0
O1352 O 0.33892 0.43272 0.05442 0.0
O1353 O 0.38028 0.40433 0.08133 0.0
O1354 O 0.3257 0.39775 0.99171 0.0
O1355 O 0.36453 0.35698 0.98713 0.0
O1356 O 0.40309 0.31219 1.00324 0.0
O1357 O 0.3876 0.34736 0.05059 0.0
C1358 C 0.39324 0.44664 0.96333 0.0
C1359 C 0.394 0.31562 0.03686 0.0
Dy1360 Dy 0.39082 0.64834 0.71909 0.0
C1361 C 0.33081 0.57682 0.82782 0.0
C1362 C 0.42162 0.64984 0.65487 0.0
Dy1363 Dy 0.34605 0.61091 0.7711 0.0
O1364 O 0.43384 0.66796 0.68157 0.0
O1365 O 0.3925 0.63344 0.66329 0.0
O1366 O 0.39018 0.70017 0.74917 0.0
O1367 O 0.34661 0.66501 0.75297 0.0
C1368 C 0.36104 0.69236 0.76616 0.0
C1369 C 0.38045 0.569 0.7261 0.0
O1370 O 0.29742 0.62677 0.74042 0.0
O1371 O 0.33281 0.63709 0.69307 0.0
O1372 O 0.31567 0.56994 0.79807 0.0
O1373 O 0.34578 0.60783 0.82732 0.0
O1374 O 0.34863 0.56202 0.73747 0.0
O1375 O 0.39219 0.59655 0.7401 0.0
O1376 O 0.43555 0.62748 0.75973 0.0
O1377 O 0.39476 0.62448 0.80322 0.0
C1378 C 0.30007 0.63079 0.70698 0.0
C1379 C 0.42874 0.62245 0.79329 0.0
Dy1380 Dy 0.93327 0.13254 0.04826 0.0
C1381 C 0.86152 0.10034 0.92238 0.0
C1382 C 0.93028 0.14276 0.11797 0.0
Dy1383 Dy 0.89059 0.10993 0.9844 0.0
O1384 O 0.95462 0.158 0.09902 0.0
O1385 O 0.91103 0.12113 0.09919 0.0
O1386 O 0.98386 0.13902 0.01579 0.0
O1387 O 0.94535 0.10176 1.00092 0.0
C1388 C 0.97254 0.1181 0.99058 0.0
C1389 C 0.84974 0.128 0.03706 0.0
O1390 O 0.89871 0.05567 0.00555 0.0
O1391 O 0.91589 0.07544 0.05996 0.0
O1392 O 0.85955 0.07753 0.94681 0.0
O1393 O 0.88695 0.12304 0.92952 0.0
O1394 O 0.83862 0.10647 0.01288 0.0
O1395 O 0.87874 0.14225 0.02888 0.0
O1396 O 0.91675 0.18761 0.02861 0.0
O1397 O 0.89802 0.16854 0.97404 0.0
C1398 C 0.90293 0.05022 0.03875 0.0
C1399 C 0.90569 0.1945 0.99649 0.0
Dy1400 Dy 0.62062 0.17301 0.82261 0.0
C1401 C 0.66128 0.08884 0.70415 0.0
C1402 C 0.59779 0.17788 0.88906 0.0
Dy1403 Dy 0.65404 0.12975 0.76117 0.0
O1404 O 0.61758 0.20168 0.87414 0.0
O1405 O 0.59032 0.1527 0.8671 0.0
O1406 O 0.60495 0.21894 0.78872 0.0
O1407 O 0.65072 0.1853 0.77805 0.0
C1408 C 0.6298 0.20956 0.76666 0.0
C1409 C 0.63499 0.09489 0.81753 0.0
O1410 O 0.7044 0.15536 0.7779 0.0
O1411 O 0.68202 0.15934 0.83322 0.0
O1412 O 0.6789 0.08375 0.73305 0.0
O1413 O 0.64295 0.11873 0.70553 0.0
O1414 O 0.66212 0.085 0.7989 0.0
O1415 O 0.61911 0.12011 0.80359 0.0
O1416 O 0.56985 0.15347 0.79365 0.0
O1417 O 0.59802 0.13876 0.74226 0.0
C1418 C 0.70995 0.15711 0.81136 0.0
C1419 C 0.56893 0.14245 0.76094 0.0
Dy1420 Dy 0.89083 0.84028 0.28364 0.0
C1421 C 0.83285 0.92296 0.1692 0.0
C1422 C 0.9074 0.83905 0.35589 0.0
Dy1423 Dy 0.85446 0.88723 0.22571 0.0
O1424 O 0.92336 0.81877 0.33253 0.0
O1425 O 0.88297 0.85785 0.33918 0.0
O1426 O 0.88584 0.79033 0.24951 0.0
O1427 O 0.84983 0.83257 0.2408 0.0
C1428 C 0.86156 0.80384 0.22755 0.0
C1429 C 0.88755 0.92176 0.2775 0.0
O1430 O 0.80371 0.87481 0.25271 0.0
O1431 O 0.83306 0.85586 0.30292 0.0
O1432 O 0.82045 0.92848 0.19965 0.0
O1433 O 0.85156 0.8933 0.16921 0.0
O1434 O 0.86024 0.93533 0.26019 0.0
O1435 O 0.89722 0.89279 0.2646 0.0
O1436 O 0.94112 0.85465 0.24924 0.0
O1437 O 0.90813 0.87626 0.20154 0.0
C1438 C 0.80315 0.86771 0.28583 0.0
C1439 C 0.93969 0.86704 0.21645 0.0
Dy1440 Dy 0.54326 0.38031 0.10742 0.0
C1441 C 0.41576 0.42598 0.16691 0.0
C1442 C 0.60496 0.34378 0.10594 0.0
Dy1443 Dy 0.48334 0.42061 0.13852 0.0
O1444 O 0.57682 0.33663 0.08639 0.0
O1445 O 0.60213 0.37569 0.11845 0.0
O1446 O 0.51016 0.33112 0.10853 0.0
O1447 O 0.50572 0.36902 0.14796 0.0
C1448 C 0.494 0.34041 0.13624 0.0
C1449 C 0.53665 0.46219 0.11572 0.0
O1450 O 0.51907 0.40416 0.18752 0.0
O1451 O 0.5706 0.39833 0.15638 0.0
O1452 O 0.4398 0.45139 0.16872 0.0
O1453 O 0.42785 0.40008 0.14793 0.0
O1454 O 0.51562 0.47109 0.14111 0.0
O1455 O 0.5247 0.43448 0.10091 0.0
O1456 O 0.51587 0.38799 0.05626 0.0
O1457 O 0.46226 0.40661 0.08175 0.0
C1458 C 0.55535 0.39868 0.18666 0.0
C1459 C 0.48046 0.39515 0.05368 0.0
Dy1460 Dy 0.37841 0.76161 0.85883 0.0
C1461 C 0.3013 0.63873 0.90301 0.0
C1462 C 0.42527 0.81452 0.85007 0.0
Dy1463 Dy 0.31412 0.70676 0.87797 0.0
O1464 O 0.43048 0.78902 0.87188 0.0
O1465 O 0.39424 0.81175 0.83325 0.0
O1466 O 0.41737 0.71366 0.86193 0.0
O1467 O 0.36928 0.71499 0.88684 0.0
C1468 C 0.39482 0.69535 0.87985 0.0
C1469 C 0.29175 0.77402 0.86501 0.0
O1470 O 0.33991 0.72639 0.9287 0.0
O1471 O 0.36367 0.78017 0.91071 0.0
O1472 O 0.30296 0.66808 0.92109 0.0
O1473 O 0.3026 0.64802 0.87083 0.0
O1474 O 0.27115 0.75039 0.87982 0.0
O1475 O 0.31928 0.75815 0.85276 0.0
O1476 O 0.36977 0.73853 0.80718 0.0
O1477 O 0.33221 0.69127 0.82291 0.0
C1478 C 0.3559 0.75761 0.93517 0.0
C1479 C 0.35264 0.70846 0.80014 0.0
Dy1480 Dy 0.01661 0.62687 0.60321 0.0
C1481 C 0.96857 0.63089 0.73398 0.0
C1482 C 0.04449 0.62481 0.54003 0.0
Dy1483 Dy 0.00566 0.62321 0.67437 0.0
O1484 O 0.03273 0.59756 0.55644 0.0
O1485 O 0.03936 0.65405 0.55744 0.0
O1486 O 0.95968 0.61049 0.59025 0.0
O1487 O 0.98671 0.58609 0.63287 0.0
C1488 C 0.95647 0.58862 0.61541 0.0
C1489 C 0.05681 0.66849 0.66328 0.0
O1490 O 0.06233 0.59432 0.67605 0.0
O1491 O 0.07302 0.60643 0.6195 0.0
O1492 O 0.98809 0.65488 0.72016 0.0
O1493 O 0.97273 0.60103 0.71675 0.0
O1494 O 0.05684 0.6492 0.69076 0.0
O1495 O 0.02834 0.66506 0.64447 0.0
O1496 O 0.98208 0.67557 0.60277 0.0
O1497 O 0.95964 0.6603 0.65486 0.0
C1498 C 0.08543 0.59549 0.64984 0.0
C1499 C 0.95778 0.68002 0.62674 0.0
Dy1500 Dy 0.10037 0.23778 0.36319 0.0
C1501 C 0.19357 0.34346 0.41494 0.0
C1502 C 0.04506 0.19279 0.35374 0.0
Dy1503 Dy 0.15959 0.28099 0.39453 0.0
O1504 O 0.04171 0.22664 0.35915 0.0
O1505 O 0.07908 0.18387 0.34974 0.0
O1506 O 0.0748 0.28676 0.34318 0.0
O1507 O 0.09952 0.28793 0.39308 0.0
C1508 C 0.08162 0.30573 0.37047 0.0
C1509 C 0.19101 0.22011 0.37109 0.0
O1510 O 0.14591 0.24933 0.44345 0.0
O1511 O 0.09919 0.21749 0.41746 0.0
O1512 O 0.17241 0.32476 0.4339 0.0
O1513 O 0.19662 0.32737 0.38552 0.0
O1514 O 0.20888 0.24469 0.38815 0.0
O1515 O 0.15784 0.22893 0.36931 0.0
O1516 O 0.12588 0.24962 0.31363 0.0
O1517 O 0.1543 0.29892 0.33773 0.0
C1518 C 0.11922 0.22531 0.44522 0.0
C1519 C 0.14357 0.27981 0.31009 0.0
Dy1520 Dy 0.53238 0.65844 0.40078 0.0
C1521 C 0.41721 0.58253 0.33709 0.0
C1522 C 0.59716 0.68411 0.41381 0.0
Dy1523 Dy 0.48158 0.60472 0.37017 0.0
O1524 O 0.56872 0.69269 0.43154 0.0
O1525 O 0.59126 0.65631 0.39469 0.0
O1526 O 0.5019 0.71008 0.39593 0.0
O1527 O 0.47748 0.66301 0.37673 0.0
C1528 C 0.47355 0.69688 0.38002 0.0
C1529 C 0.54234 0.56861 0.39194 0.0
O1530 O 0.51868 0.61722 0.3234 0.0
O1531 O 0.54928 0.66541 0.34668 0.0
O1532 O 0.44048 0.60523 0.32591 0.0
O1533 O 0.43044 0.57135 0.36651 0.0
O1534 O 0.51477 0.55321 0.37618 0.0
O1535 O 0.53501 0.60157 0.39393 0.0
O1536 O 0.51466 0.64069 0.45147 0.0
O1537 O 0.46606 0.60857 0.42853 0.0
C1538 C 0.54241 0.64413 0.32028 0.0
C1539 C 0.48518 0.622 0.45584 0.0
Dy1540 Dy 0.12983 0.73275 0.16361 0.0
C1541 C 0.11061 0.77979 0.02472 0.0
C1542 C 0.1302 0.71717 0.23064 0.0
Dy1543 Dy 0.11937 0.74076 0.08382 0.0
O1544 O 0.1546 0.70597 0.20931 0.0
O1545 O 0.10414 0.73516 0.21521 0.0
O1546 O 0.17266 0.77385 0.17522 0.0
O1547 O 0.15453 0.76634 0.12475 0.0
C1548 C 0.17569 0.7852 0.14431 0.0
C1549 C 0.07025 0.6934 0.10887 0.0
O1550 O 0.15325 0.68907 0.08164 0.0
O1551 O 0.15077 0.67891 0.14084 0.0
O1552 O 0.08483 0.76492 0.04147 0.0
O1553 O 0.14191 0.76953 0.03864 0.0
O1554 O 0.07162 0.70253 0.07674 0.0
O1555 O 0.09423 0.71142 0.12476 0.0
O1556 O 0.07988 0.76959 0.15913 0.0
O1557 O 0.09232 0.78992 0.10515 0.0
C1558 C 0.15816 0.66753 0.10874 0.0
C1559 C 0.07437 0.79289 0.13385 0.0
Dy1560 Dy 0.03212 0.39892 0.90328 0.0
C1561 C 0.9722 0.38246 0.76661 0.0
C1562 C 0.05903 0.39021 0.96829 0.0
Dy1563 Dy 0.00585 0.39452 0.82867 0.0
O1564 O 0.04319 0.36571 0.9499 0.0
O1565 O 0.0618 0.41948 0.95082 0.0
O1566 O 0.98277 0.42914 0.91906 0.0
O1567 O 1.00098 0.43654 0.86875 0.0
C1568 C 0.97543 0.44332 0.88959 0.0
C1569 C 0.05508 0.34878 0.84411 0.0
O1570 O 0.06314 0.41907 0.8212 0.0
O1571 O 0.08535 0.4119 0.87737 0.0
O1572 O 0.98981 0.35913 0.78476 0.0
O1573 O 0.97288 0.41322 0.78295 0.0
O1574 O 0.05334 0.36223 0.81362 0.0
O1575 O 0.03012 0.35866 0.86346 0.0
O1576 O 0.99328 0.35395 0.9088 0.0
O1577 O 0.96282 0.36046 0.85634 0.0
C1578 C 0.09107 0.41892 0.84445 0.0
C1579 C 0.96599 0.34554 0.8875 0.0
Dy1580 Dy 0.38172 0.23597 0.63746 0.0
C1581 C 0.31856 0.35627 0.58636 0.0
C1582 C 0.42756 0.18693 0.6552 0.0
Dy1583 Dy 0.32216 0.28621 0.60666 0.0
O1584 O 0.43341 0.20874 0.63052 0.0
O1585 O 0.39661 0.191 0.67024 0.0
O1586 O 0.41567 0.28474 0.64134 0.0
O1587 O 0.37803 0.27717 0.60062 0.0
C1588 C 0.40002 0.29783 0.61391 0.0
C1589 C 0.29844 0.23159 0.64309 0.0
O1590 O 0.33811 0.24913 0.5588 0.0
O1591 O 0.37548 0.2077 0.58802 0.0
O1592 O 0.29991 0.33068 0.5707 0.0
O1593 O 0.33583 0.34327 0.61292 0.0
O1594 O 0.27735 0.25951 0.63629 0.0
O1595 O 0.3256 0.23286 0.62472 0.0
O1596 O 0.36478 0.2555 0.68777 0.0
O1597 O 0.33723 0.30568 0.66423 0.0
C1598 C 0.35992 0.21923 0.55917 0.0
C1599 C 0.35187 0.28791 0.69169 0.0
Dy1600 Dy 0.1339 0.50801 0.3691 0.0
C1601 C 0.19988 0.38209 0.41931 0.0
C1602 C 0.11899 0.56845 0.33668 0.0
Dy1603 Dy 0.17931 0.45225 0.4103 0.0
O1604 O 0.11403 0.53698 0.32346 0.0
O1605 O 0.12637 0.56669 0.36939 0.0
O1606 O 0.1329 0.46834 0.32586 0.0
O1607 O 0.1781 0.47132 0.35963 0.0
C1608 C 0.1643 0.45484 0.33499 0.0
C1609 C 0.15511 0.50591 0.4465 0.0
O1610 O 0.22567 0.49245 0.39818 0.0
O1611 O 0.18652 0.53702 0.37708 0.0
O1612 O 0.1836 0.40195 0.44206 0.0
O1613 O 0.208 0.40179 0.39343 0.0
O1614 O 0.18475 0.48823 0.4559 0.0
O1615 O 0.13794 0.49092 0.42197 0.0
O1616 O 0.08371 0.47936 0.38127 0.0
O1617 O 0.11992 0.43119 0.39948 0.0
C1618 C 0.21976 0.52573 0.38581 0.0
C1619 C 0.08711 0.44559 0.39017 0.0
Dy1620 Dy 0.25747 0.38232 0.11963 0.0
C1621 C 0.38019 0.42354 0.18362 0.0
C1622 C 0.21648 0.36641 0.06547 0.0
Dy1623 Dy 0.30706 0.41026 0.17672 0.0
O1624 O 0.25098 0.35977 0.06782 0.0
O1625 O 0.20345 0.37962 0.09376 0.0
O1626 O 0.30851 0.37607 0.09065 0.0
O1627 O 0.30151 0.42005 0.12305 0.0
C1628 C 0.32291 0.40472 0.10328 0.0
C1629 C 0.25287 0.37508 0.20621 0.0
O1630 O 0.27088 0.46064 0.16631 0.0
O1631 O 0.23454 0.43752 0.12169 0.0
O1632 O 0.35482 0.44836 0.18344 0.0
O1633 O 0.36485 0.39268 0.18483 0.0
O1634 O 0.27805 0.39228 0.22426 0.0
O1635 O 0.25779 0.37962 0.17467 0.0
O1636 O 0.27135 0.33029 0.141 0.0
O1637 O 0.32635 0.3539 0.15825 0.0
C1638 C 0.2447 0.46456 0.14163 0.0
C1639 C 0.30611 0.32591 0.14851 0.0
Dy1640 Dy 0.38277 0.4858 0.8577 0.0
C1641 C 0.31932 0.60485 0.9148 0.0
C1642 C 0.39892 0.43842 0.80772 0.0
Dy1643 Dy 0.34821 0.53642 0.91442 0.0
O1644 O 0.40762 0.47181 0.80796 0.0
O1645 O 0.38398 0.43046 0.83656 0.0
O1646 O 0.38233 0.53585 0.82578 0.0
O1647 O 0.34287 0.52714 0.86156 0.0
C1648 C 0.35386 0.5487 0.84097 0.0
C1649 C 0.37977 0.47968 0.94572 0.0
O1650 O 0.299 0.50269 0.89668 0.0
O1651 O 0.32574 0.46704 0.85434 0.0
O1652 O 0.30438 0.57764 0.92972 0.0
O1653 O 0.35076 0.5948 0.9033 0.0
O1654 O 0.36307 0.50586 0.96226 0.0
O1655 O 0.37869 0.48597 0.91364 0.0
O1656 O 0.43386 0.5019 0.88315 0.0
O1657 O 0.40849 0.55326 0.90781 0.0
C1658 C 0.29689 0.47807 0.87139 0.0
C1659 C 0.43733 0.5338 0.89717 0.0
Dy1660 Dy 0.26363 0.63901 0.60038 0.0
C1661 C 0.12717 0.59275 0.65389 0.0
C1662 C 0.32323 0.64277 0.5619 0.0
Dy1663 Dy 0.20247 0.61117 0.64877 0.0
O1664 O 0.29034 0.65089 0.55149 0.0
O1665 O 0.32404 0.63472 0.59429 0.0
O1666 O 0.21874 0.6637 0.56878 0.0
O1667 O 0.21 0.6153 0.59379 0.0
C1668 C 0.19517 0.63934 0.57558 0.0
C1669 C 0.26522 0.62454 0.68624 0.0
O1670 O 0.23718 0.55976 0.63781 0.0
O1671 O 0.27021 0.58065 0.59205 0.0
O1672 O 0.14788 0.60728 0.67811 0.0
O1673 O 0.1485 0.5879 0.62793 0.0
O1674 O 0.23521 0.61224 0.69941 0.0
O1675 O 0.25895 0.62817 0.65429 0.0
O1676 O 0.25576 0.68917 0.62873 0.0
O1677 O 0.19782 0.67349 0.64692 0.0
C1678 C 0.26168 0.55478 0.61276 0.0
C1679 C 0.22374 0.69792 0.64126 0.0
Dy1680 Dy 0.1288 0.49789 0.15663 0.0
C1681 C 0.16766 0.62768 0.10425 0.0
C1682 C 0.12565 0.43528 0.18906 0.0
Dy1683 Dy 0.16035 0.55224 0.10765 0.0
O1684 O 0.11571 0.46583 0.20208 0.0
O1685 O 0.13344 0.43858 0.157 0.0
O1686 O 0.12205 0.54164 0.19561 0.0
O1687 O 0.16525 0.54232 0.16141 0.0
C1688 C 0.14899 0.55975 0.18407 0.0
C1689 C 0.14607 0.48728 0.07728 0.0
O1690 O 0.21356 0.52045 0.12078 0.0
O1691 O 0.18753 0.48207 0.15958 0.0
O1692 O 0.15918 0.60626 0.07825 0.0
O1693 O 0.17519 0.60699 0.13009 0.0
O1694 O 0.16896 0.51093 0.06568 0.0
O1695 O 0.12712 0.50279 0.10058 0.0
O1696 O 0.07401 0.52081 0.14373 0.0
O1697 O 0.0996 0.5656 0.11159 0.0
C1698 C 0.21605 0.49311 0.14302 0.0
C1699 C 0.07123 0.55103 0.12666 0.0
Dy1700 Dy 0.26565 0.3687 0.89208 0.0
C1701 C 0.13099 0.41959 0.83386 0.0
C1702 C 0.31765 0.35859 0.94233 0.0
Dy1703 Dy 0.20641 0.3992 0.83608 0.0
O1704 O 0.28557 0.34423 0.94147 0.0
O1705 O 0.32178 0.37685 0.91448 0.0
O1706 O 0.21571 0.36546 0.92524 0.0
O1707 O 0.21908 0.40393 0.88877 0.0
C1708 C 0.19884 0.39201 0.91029 0.0
C1709 C 0.26703 0.37587 0.80389 0.0
O1710 O 0.24213 0.44837 0.84752 0.0
O1711 O 0.28152 0.42439 0.89057 0.0
O1712 O 0.14706 0.39608 0.8138 0.0
O1713 O 0.15704 0.43271 0.8533 0.0
O1714 O 0.23854 0.39076 0.78789 0.0
O1715 O 0.26075 0.37484 0.83596 0.0
O1716 O 0.25784 0.3199 0.86241 0.0
O1717 O 0.19883 0.33979 0.85004 0.0
C1718 C 0.26921 0.45098 0.87159 0.0
C1719 C 0.22364 0.31326 0.8548 0.0
Dy1720 Dy 0.37621 0.51327 0.6396 0.0
C1721 C 0.32844 0.39261 0.57479 0.0
C1722 C 0.39248 0.55523 0.69382 0.0
Dy1723 Dy 0.34539 0.4641 0.58029 0.0
O1724 O 0.4009 0.52175 0.69145 0.0
O1725 O 0.37723 0.56625 0.66524 0.0
O1726 O 0.37657 0.464 0.67087 0.0
O1727 O 0.33566 0.47222 0.63342 0.0
C1728 C 0.3484 0.45097 0.65493 0.0
C1729 C 0.38306 0.51849 0.55335 0.0
O1730 O 0.29455 0.5001 0.59187 0.0
O1731 O 0.3202 0.53773 0.63405 0.0
O1732 O 0.30753 0.41833 0.56219 0.0
O1733 O 0.35827 0.40644 0.58709 0.0
O1734 O 0.36623 0.49424 0.5342 0.0
O1735 O 0.37792 0.5115 0.58444 0.0
O1736 O 0.42924 0.49441 0.62038 0.0
O1737 O 0.40344 0.44323 0.59702 0.0
C1738 C 0.29177 0.52724 0.61488 0.0
C1739 C 0.43243 0.46099 0.60979 0.0
Dy1740 Dy 0.26165 0.6401 0.4045 0.0
C1741 C 0.37799 0.59056 0.3331 0.0
C1742 C 0.20939 0.66291 0.44413 0.0
Dy1743 Dy 0.30657 0.60574 0.34469 0.0
O1744 O 0.23246 0.63784 0.45292 0.0
O1745 O 0.2146 0.67587 0.41388 0.0
O1746 O 0.31426 0.64397 0.43445 0.0
O1747 O 0.30512 0.60292 0.39827 0.0
C1748 C 0.32829 0.61781 0.41671 0.0
C1749 C 0.24823 0.64503 0.32452 0.0
O1750 O 0.27408 0.55592 0.36128 0.0
O1751 O 0.23777 0.58463 0.40229 0.0
O1752 O 0.35126 0.56925 0.32338 0.0
O1753 O 0.36511 0.61924 0.34724 0.0
O1754 O 0.27449 0.63588 0.30367 0.0
O1755 O 0.25241 0.62723 0.35137 0.0
O1756 O 0.28925 0.69079 0.39073 0.0
O1757 O 0.32965 0.66258 0.35417 0.0
C1758 C 0.24767 0.55524 0.38492 0.0
C1759 C 0.31907 0.69127 0.37247 0.0
Dy1760 Dy 0.3573 0.10414 0.51827 0.0
C1761 C 0.39248 0.18695 0.39934 0.0
C1762 C 0.33698 0.0942 0.582 0.0
Dy1763 Dy 0.38815 0.14952 0.45941 0.0
O1764 O 0.32271 0.07767 0.55545 0.0
O1765 O 0.36809 0.10753 0.57415 0.0
O1766 O 0.30273 0.10456 0.49086 0.0
O1767 O 0.33914 0.14599 0.48595 0.0
C1768 C 0.30935 0.13455 0.47613 0.0
C1769 C 0.43579 0.1268 0.50728 0.0
O1770 O 0.3719 0.19577 0.49801 0.0
O1771 O 0.36191 0.15819 0.54344 0.0
O1772 O 0.4196 0.16977 0.41428 0.0
O1773 O 0.36326 0.1828 0.41682 0.0
O1774 O 0.43949 0.15687 0.49117 0.0
O1775 O 0.40949 0.10955 0.49467 0.0
O1776 O 0.36971 0.05678 0.48531 0.0
O1777 O 0.37726 0.09108 0.43616 0.0
C1778 C 0.36326 0.19092 0.5311 0.0
C1779 C 0.37299 0.05884 0.4515 0.0
Dy1780 Dy 0.88018 0.40124 0.52869 0.0
C1781 C 0.87556 0.26462 0.4695 0.0
C1782 C 0.86428 0.46775 0.55127 0.0
Dy1783 Dy 0.88793 0.3229 0.50883 0.0
O1784 O 0.84395 0.44963 0.53004 0.0
O1785 O 0.89244 0.44915 0.56176 0.0
O1786 O 0.92032 0.41862 0.49185 0.0
O1787 O 0.92656 0.36707 0.5135 0.0
C1788 C 0.93801 0.38857 0.49161 0.0
C1789 C 0.83137 0.33812 0.54535 0.0
O1790 O 0.91559 0.31857 0.56054 0.0
O1791 O 0.89221 0.37406 0.57864 0.0
O1792 O 0.85389 0.27697 0.49238 0.0
O1793 O 0.90686 0.28101 0.47219 0.0
O1794 O 0.84913 0.30826 0.549 0.0
O1795 O 0.84343 0.35723 0.52217 0.0
O1796 O 0.84193 0.39886 0.4832 0.0
O1797 O 0.87027 0.34989 0.4597 0.0
C1798 C 0.9086 0.34281 0.58487 0.0
C1799 C 0.84649 0.37649 0.45726 0.0
Dy1800 Dy 0.35194 0.13511 0.23986 0.0
C1801 C 0.39141 0.19836 0.36333 0.0
C1802 C 0.33853 0.09023 0.1875 0.0
Dy1803 Dy 0.37742 0.18314 0.29538 0.0
O1804 O 0.32071 0.09125 0.21559 0.0
O1805 O 0.36065 0.11693 0.18636 0.0
O1806 O 0.34321 0.09245 0.27881 0.0
O1807 O 0.38511 0.12748 0.28633 0.0
C1808 C 0.36887 0.10272 0.29976 0.0
C1809 C 0.36905 0.21774 0.23506 0.0
O1810 O 0.43225 0.16058 0.27787 0.0
O1811 O 0.41065 0.13477 0.22716 0.0
O1812 O 0.41541 0.18733 0.34164 0.0
O1813 O 0.36087 0.20521 0.3468 0.0
O1814 O 0.39035 0.22849 0.2604 0.0
O1815 O 0.34859 0.19319 0.24539 0.0
O1816 O 0.29739 0.15271 0.25509 0.0
O1817 O 0.32089 0.16248 0.30934 0.0
C1818 C 0.43782 0.14312 0.24844 0.0
C1819 C 0.29296 0.15414 0.28833 0.0
Dy1820 Dy 0.63346 0.61234 0.98479 0.0
C1821 C 0.59649 0.667 0.11562 0.0
C1822 C 0.65984 0.58872 0.92481 0.0
Dy1823 Dy 0.59303 0.65182 0.04343 0.0
O1824 O 0.67128 0.57835 0.95491 0.0
O1825 O 0.62976 0.60685 0.92815 0.0
O1826 O 0.685 0.61339 0.01744 0.0
O1827 O 0.6463 0.65435 0.02233 0.0
C1828 C 0.67572 0.64186 0.03442 0.0
C1829 C 0.54926 0.62507 0.99047 0.0
O1830 O 0.60791 0.69925 0.00627 0.0
O1831 O 0.62335 0.66407 0.9589 0.0
O1832 O 0.5743 0.68302 0.09317 0.0
O1833 O 0.61483 0.64365 0.09807 0.0
O1834 O 0.53888 0.65019 0.01211 0.0
O1835 O 0.5786 0.61185 1.00293 0.0
O1836 O 0.61908 0.56411 0.01255 0.0
O1837 O 0.60964 0.59515 0.06325 0.0
C1838 C 0.61703 0.69581 0.97266 0.0
C1839 C 0.61744 0.56483 0.04621 0.0
Dy1840 Dy 0.66496 0.40063 0.2382 0.0
C1841 C 0.58925 0.36177 0.35447 0.0
C1842 C 0.68024 0.4341 0.18122 0.0
Dy1843 Dy 0.62004 0.3633 0.29026 0.0
O1844 O 0.69538 0.44134 0.21088 0.0
O1845 O 0.66538 0.40304 0.18193 0.0
O1846 O 0.66255 0.44975 0.27146 0.0
O1847 O 0.61886 0.41514 0.26931 0.0
C1848 C 0.63083 0.44274 0.28307 0.0
C1849 C 0.64971 0.31934 0.24303 0.0
O1850 O 0.57524 0.38425 0.24973 0.0
O1851 O 0.61598 0.38756 0.2062 0.0
O1852 O 0.57713 0.34351 0.32781 0.0
O1853 O 0.61827 0.37833 0.346 0.0
O1854 O 0.62057 0.31151 0.26001 0.0
O1855 O 0.66416 0.34659 0.25639 0.0
O1856 O 0.71349 0.38485 0.26913 0.0
O1857 O 0.67801 0.37438 0.31639 0.0
C1858 C 0.58201 0.38947 0.21619 0.0
C1859 C 0.71077 0.38073 0.30256 0.0
Dy1860 Dy 0.12001 0.90116 0.02512 0.0
C1861 C 0.07981 0.86918 0.89133 0.0
C1862 C 0.14887 0.91065 0.08727 0.0
Dy1863 Dy 0.07751 0.87882 0.96118 0.0
O1864 O 0.15064 0.93365 0.06298 0.0
O1865 O 0.1236 0.88783 0.07997 0.0
O1866 O 0.17223 0.90447 0.99714 0.0
O1867 O 0.13206 0.86892 0.98049 0.0
C1868 C 0.16123 0.88314 0.97275 0.0
C1869 C 0.03812 0.89336 0.01886 0.0
O1870 O 0.09424 0.82371 0.98062 0.0
O1871 O 0.11227 0.84261 0.03542 0.0
O1872 O 0.05656 0.85279 0.91056 0.0
O1873 O 0.09831 0.89158 0.90996 0.0
O1874 O 0.0268 0.87246 0.99363 0.0
O1875 O 0.06535 0.90956 0.00845 0.0
O1876 O 0.11232 0.95549 1.00397 0.0
O1877 O 0.09541 0.93576 0.94951 0.0
C1878 C 0.10494 0.8167 0.01282 0.0
C1879 C 0.10829 0.96096 0.97076 0.0
Dy1880 Dy 0.35679 0.88113 0.24846 0.0
C1881 C 0.4129 0.83345 0.12018 0.0
C1882 C 0.34971 0.92155 0.30583 0.0
Dy1883 Dy 0.39009 0.83826 0.18665 0.0
O1884 O 0.33172 0.92668 0.27711 0.0
O1885 O 0.36827 0.89183 0.30409 0.0
O1886 O 0.34877 0.92637 0.21134 0.0
O1887 O 0.39163 0.8911 0.20594 0.0
C1888 C 0.37574 0.91661 0.19248 0.0
C1889 C 0.38095 0.8015 0.24259 0.0
O1890 O 0.44089 0.85779 0.21554 0.0
O1891 O 0.41287 0.87192 0.26714 0.0
O1892 O 0.3932 0.80958 0.13511 0.0
O1893 O 0.42025 0.85867 0.14212 0.0
O1894 O 0.40582 0.79223 0.22051 0.0
O1895 O 0.36008 0.82576 0.23115 0.0
O1896 O 0.30635 0.8558 0.23145 0.0
O1897 O 0.32875 0.85207 0.17611 0.0
C1898 C 0.4419 0.86849 0.24834 0.0
C1899 C 0.30082 0.85426 0.19798 0.0
Dy1900 Dy 0.15646 0.12396 0.78371 0.0
C1901 C 0.10329 0.17201 0.65363 0.0
C1902 C 0.17808 0.08917 0.84076 0.0
Dy1903 Dy 0.11992 0.17063 0.72578 0.0
O1904 O 0.19048 0.08312 0.81038 0.0
O1905 O 0.15948 0.11889 0.84029 0.0
O1906 O 0.15075 0.07557 0.74969 0.0
O1907 O 0.11361 0.11804 0.74483 0.0
C1908 C 0.12342 0.08892 0.73224 0.0
C1909 C 0.14919 0.20722 0.78184 0.0
O1910 O 0.06965 0.15632 0.76017 0.0
O1911 O 0.10271 0.13473 0.80783 0.0
O1912 O 0.08754 0.19246 0.67697 0.0
O1913 O 0.1275 0.15292 0.6703 0.0
O1914 O 0.12479 0.22062 0.75994 0.0
O1915 O 0.16093 0.17855 0.76847 0.0
O1916 O 0.20709 0.13608 0.75636 0.0
O1917 O 0.17761 0.15514 0.70627 0.0
C1918 C 0.07113 0.14395 0.79296 0.0
C1919 C 0.20755 0.14321 0.72324 0.0
loop_
_geom_bond_atom_site_label_1
_geom_bond_atom_site_label_2
_geom_bond_distance
_geom_bond_site_symmetry_2
_ccdc_geom_bond_type
Dy0 O4 2.398 . S
Dy0 O5 2.491 . S
Dy0 O6 2.403 1_455 S
Dy0 O7 2.664 1_455 S
Dy0 O11 2.326 . S
Dy0 O15 2.310 . S
Dy0 O16 2.351 1_455 S
C1 O12 1.185 . S
C1 O13 1.355 . S
C2 O4 1.185 . S
C2 O5 1.355 . S
Dy3 O7 2.310 . S
Dy3 O10 2.351 1_655 S
Dy3 O12 2.398 . S
Dy3 O13 2.491 . S
Dy3 O14 2.403 1_655 S
Dy3 O15 2.664 1_655 S
Dy3 O17 2.326 . S
O4 Dy0 2.398 . S
O4 C2 1.185 . S
O5 Dy0 2.491 . S
O5 C2 1.355 . S
O6 Dy0 2.403 1_655 S
O6 C8 1.254 . S
O7 Dy0 2.664 1_655 S
O7 Dy3 2.310 . S
O7 C8 1.268 . S
C8 O6 1.254 . S
C8 O7 1.268 . S
C9 O14 1.254 . S
C9 O15 1.268 . S
O10 Dy3 2.351 1_455 S
O10 C18 1.249 . S
O11 Dy0 2.326 . S
O11 C18 1.267 . S
O12 C1 1.185 . S
O12 Dy3 2.398 . S
O13 C1 1.355 . S
O13 Dy3 2.491 . S
O14 Dy3 2.403 1_455 S
O14 C9 1.254 . S
O15 Dy0 2.310 . S
O15 Dy3 2.664 1_455 S
O15 C9 1.268 . S
O16 Dy0 2.351 1_655 S
O16 C19 1.249 . S
O17 Dy3 2.326 . S
O17 C19 1.267 . S
C18 O10 1.249 . S
C18 O11 1.267 . S
C19 O16 1.249 . S
C19 O17 1.267 . S
Dy20 O24 2.398 . S
Dy20 O25 2.491 . S
Dy20 O26 2.403 . S
Dy20 O27 2.664 . S
Dy20 O31 2.326 . S
Dy20 O35 2.310 . S
Dy20 O36 2.351 . S
C21 O32 1.185 . S
C21 O33 1.355 . S
C22 O24 1.185 . S
C22 O25 1.355 . S
Dy23 O27 2.310 . S
Dy23 O30 2.351 . S
Dy23 O32 2.398 . S
Dy23 O33 2.491 . S
Dy23 O34 2.403 . S
Dy23 O35 2.664 . S
Dy23 O37 2.326 . S
O24 Dy20 2.398 . S
O24 C22 1.185 . S
O25 Dy20 2.491 . S
O25 C22 1.355 . S
O26 Dy20 2.403 . S
O26 C28 1.254 . S
O27 Dy20 2.664 . S
O27 Dy23 2.310 . S
O27 C28 1.268 . S
C28 O26 1.254 . S
C28 O27 1.268 . S
C29 O34 1.254 . S
C29 O35 1.268 . S
O30 Dy23 2.351 . S
O30 C38 1.249 . S
O31 Dy20 2.326 . S
O31 C38 1.267 . S
O32 C21 1.185 . S
O32 Dy23 2.398 . S
O33 C21 1.355 . S
O33 Dy23 2.491 . S
O34 Dy23 2.403 . S
O34 C29 1.254 . S
O35 Dy20 2.310 . S
O35 Dy23 2.664 . S
O35 C29 1.268 . S
O36 Dy20 2.351 . S
O36 C39 1.249 . S
O37 Dy23 2.326 . S
O37 C39 1.267 . S
C38 O30 1.249 . S
C38 O31 1.267 . S
C39 O36 1.249 . S
C39 O37 1.267 . S
Dy40 O44 2.398 . S
Dy40 O45 2.491 . S
Dy40 O46 2.403 . S
Dy40 O47 2.664 . S
Dy40 O51 2.326 . S
Dy40 O55 2.310 . S
Dy40 O56 2.351 . S
C41 O52 1.185 . S
C41 O53 1.355 . S
C42 O44 1.185 . S
C42 O45 1.355 . S
Dy43 O47 2.310 . S
Dy43 O50 2.351 . S
Dy43 O52 2.398 . S
Dy43 O53 2.491 . S
Dy43 O54 2.403 . S
Dy43 O55 2.664 . S
Dy43 O57 2.326 . S
O44 Dy40 2.398 . S
O44 C42 1.185 . S
O45 Dy40 2.491 . S
O45 C42 1.355 . S
O46 Dy40 2.403 . S
O46 C48 1.254 . S
O47 Dy40 2.664 . S
O47 Dy43 2.310 . S
O47 C48 1.268 . S
C48 O46 1.254 . S
C48 O47 1.268 . S
C49 O54 1.254 . S
C49 O55 1.268 . S
O50 Dy43 2.351 . S
O50 C58 1.249 . S
O51 Dy40 2.326 . S
O51 C58 1.267 . S
O52 C41 1.185 . S
O52 Dy43 2.398 . S
O53 C41 1.355 . S
O53 Dy43 2.491 . S
O54 Dy43 2.403 . S
O54 C49 1.254 . S
O55 Dy40 2.310 . S
O55 Dy43 2.664 . S
O55 C49 1.268 . S
O56 Dy40 2.351 . S
O56 C59 1.249 . S
O57 Dy43 2.326 . S
O57 C59 1.267 . S
C58 O50 1.249 . S
C58 O51 1.267 . S
C59 O56 1.249 . S
C59 O57 1.267 . S
Dy60 O64 2.398 . S
Dy60 O65 2.491 . S
Dy60 O66 2.403 . S
Dy60 O67 2.664 . S
Dy60 O71 2.326 . S
Dy60 O75 2.310 . S
Dy60 O76 2.351 . S
C61 O72 1.185 . S
C61 O73 1.355 . S
C62 O64 1.185 . S
C62 O65 1.355 . S
Dy63 O67 2.310 . S
Dy63 O70 2.351 . S
Dy63 O72 2.398 . S
Dy63 O73 2.491 . S
Dy63 O74 2.403 . S
Dy63 O75 2.664 . S
Dy63 O77 2.326 . S
O64 Dy60 2.398 . S
O64 C62 1.185 . S
O65 Dy60 2.491 . S
O65 C62 1.355 . S
O66 Dy60 2.403 . S
O66 C68 1.254 . S
O67 Dy60 2.664 . S
O67 Dy63 2.310 . S
O67 C68 1.268 . S
C68 O66 1.254 . S
C68 O67 1.268 . S
C69 O74 1.254 . S
C69 O75 1.268 . S
O70 Dy63 2.351 . S
O70 C78 1.249 . S
O71 Dy60 2.326 . S
O71 C78 1.267 . S
O72 C61 1.185 . S
O72 Dy63 2.398 . S
O73 C61 1.355 . S
O73 Dy63 2.491 . S
O74 Dy63 2.403 . S
O74 C69 1.254 . S
O75 Dy60 2.310 . S
O75 Dy63 2.664 . S
O75 C69 1.268 . S
O76 Dy60 2.351 . S
O76 C79 1.249 . S
O77 Dy63 2.326 . S
O77 C79 1.267 . S
C78 O70 1.249 . S
C78 O71 1.267 . S
C79 O76 1.249 . S
C79 O77 1.267 . S
Dy80 O84 2.398 . S
Dy80 O85 2.491 . S
Dy80 O86 2.403 1_455 S
Dy80 O87 2.664 1_455 S
Dy80 O91 2.326 . S
Dy80 O95 2.310 . S
Dy80 O96 2.351 1_455 S
C81 O92 1.185 . S
C81 O93 1.355 . S
C82 O84 1.185 . S
C82 O85 1.355 . S
Dy83 O87 2.310 . S
Dy83 O90 2.351 1_655 S
Dy83 O92 2.398 . S
Dy83 O93 2.491 . S
Dy83 O94 2.403 1_655 S
Dy83 O95 2.664 1_655 S
Dy83 O97 2.326 . S
O84 Dy80 2.398 . S
O84 C82 1.185 . S
O85 Dy80 2.491 . S
O85 C82 1.355 . S
O86 Dy80 2.403 1_655 S
O86 C88 1.254 . S
O87 Dy80 2.664 1_655 S
O87 Dy83 2.310 . S
O87 C88 1.268 . S
C88 O86 1.254 . S
C88 O87 1.268 . S
C89 O94 1.254 . S
C89 O95 1.268 . S
O90 Dy83 2.351 1_455 S
O90 C98 1.249 . S
O91 Dy80 2.326 . S
O91 C98 1.267 . S
O92 C81 1.185 . S
O92 Dy83 2.398 . S
O93 C81 1.355 . S
O93 Dy83 2.491 . S
O94 Dy83 2.403 1_455 S
O94 C89 1.254 . S
O95 Dy80 2.310 . S
O95 Dy83 2.664 1_455 S
O95 C89 1.268 . S
O96 Dy80 2.351 1_655 S
O96 C99 1.249 . S
O97 Dy83 2.326 . S
O97 C99 1.267 . S
C98 O90 1.249 . S
C98 O91 1.267 . S
C99 O96 1.249 . S
C99 O97 1.267 . S
Dy100 O104 2.398 . S
Dy100 O105 2.491 . S
Dy100 O106 2.403 . S
Dy100 O107 2.664 . S
Dy100 O111 2.326 . S
Dy100 O115 2.310 . S
Dy100 O116 2.351 . S
C101 O112 1.185 . S
C101 O113 1.355 . S
C102 O104 1.185 . S
C102 O105 1.355 . S
Dy103 O107 2.310 . S
Dy103 O110 2.351 . S
Dy103 O112 2.398 . S
Dy103 O113 2.491 . S
Dy103 O114 2.403 . S
Dy103 O115 2.664 . S
Dy103 O117 2.326 . S
O104 Dy100 2.398 . S
O104 C102 1.185 . S
O105 Dy100 2.491 . S
O105 C102 1.355 . S
O106 Dy100 2.403 . S
O106 C108 1.254 . S
O107 Dy100 2.664 . S
O107 Dy103 2.310 . S
O107 C108 1.268 . S
C108 O106 1.254 . S
C108 O107 1.268 . S
C109 O114 1.254 . S
C109 O115 1.268 . S
O110 Dy103 2.351 . S
O110 C118 1.249 . S
O111 Dy100 2.326 . S
O111 C118 1.267 . S
O112 C101 1.185 . S
O112 Dy103 2.398 . S
O113 C101 1.355 . S
O113 Dy103 2.491 . S
O114 Dy103 2.403 . S
O114 C109 1.254 . S
O115 Dy100 2.310 . S
O115 Dy103 2.664 . S
O115 C109 1.268 . S
O116 Dy100 2.351 . S
O116 C119 1.249 . S
O117 Dy103 2.326 . S
O117 C119 1.267 . S
C118 O110 1.249 . S
C118 O111 1.267 . S
C119 O116 1.249 . S
C119 O117 1.267 . S
Dy120 O124 2.398 . S
Dy120 O125 2.491 . S
Dy120 O126 2.403 . S
Dy120 O127 2.664 . S
Dy120 O131 2.326 . S
Dy120 O135 2.310 . S
Dy120 O136 2.351 . S
C121 O132 1.185 . S
C121 O133 1.355 . S
C122 O124 1.185 . S
C122 O125 1.355 . S
Dy123 O127 2.310 . S
Dy123 O130 2.351 . S
Dy123 O132 2.398 . S
Dy123 O133 2.491 . S
Dy123 O134 2.403 . S
Dy123 O135 2.664 . S
Dy123 O137 2.326 . S
O124 Dy120 2.398 . S
O124 C122 1.185 . S
O125 Dy120 2.491 . S
O125 C122 1.355 . S
O126 Dy120 2.403 . S
O126 C128 1.254 . S
O127 Dy120 2.664 . S
O127 Dy123 2.310 . S
O127 C128 1.268 . S
C128 O126 1.254 . S
C128 O127 1.268 . S
C129 O134 1.254 . S
C129 O135 1.268 . S
O130 Dy123 2.351 . S
O130 C138 1.249 . S
O131 Dy120 2.326 . S
O131 C138 1.267 . S
O132 C121 1.185 . S
O132 Dy123 2.398 . S
O133 C121 1.355 . S
O133 Dy123 2.491 . S
O134 Dy123 2.403 . S
O134 C129 1.254 . S
O135 Dy120 2.310 . S
O135 Dy123 2.664 . S
O135 C129 1.268 . S
O136 Dy120 2.351 . S
O136 C139 1.249 . S
O137 Dy123 2.326 . S
O137 C139 1.267 . S
C138 O130 1.249 . S
C138 O131 1.267 . S
C139 O136 1.249 . S
C139 O137 1.267 . S
Dy140 O144 2.398 . S
Dy140 O145 2.491 . S
Dy140 O146 2.403 . S
Dy140 O147 2.664 . S
Dy140 O151 2.326 . S
Dy140 O155 2.310 . S
Dy140 O156 2.351 . S
C141 O152 1.185 . S
C141 O153 1.355 . S
C142 O144 1.185 . S
C142 O145 1.355 . S
Dy143 O147 2.310 . S
Dy143 O150 2.351 . S
Dy143 O152 2.398 . S
Dy143 O153 2.491 . S
Dy143 O154 2.403 . S
Dy143 O155 2.664 . S
Dy143 O157 2.326 . S
O144 Dy140 2.398 . S
O144 C142 1.185 . S
O145 Dy140 2.491 . S
O145 C142 1.355 . S
O146 Dy140 2.403 . S
O146 C148 1.254 . S
O147 Dy140 2.664 . S
O147 Dy143 2.310 . S
O147 C148 1.268 . S
C148 O146 1.254 . S
C148 O147 1.268 . S
C149 O154 1.254 . S
C149 O155 1.268 . S
O150 Dy143 2.351 . S
O150 C158 1.249 . S
O151 Dy140 2.326 . S
O151 C158 1.267 . S
O152 C141 1.185 . S
O152 Dy143 2.398 . S
O153 C141 1.355 . S
O153 Dy143 2.491 . S
O154 Dy143 2.403 . S
O154 C149 1.254 . S
O155 Dy140 2.310 . S
O155 Dy143 2.664 . S
O155 C149 1.268 . S
O156 Dy140 2.351 . S
O156 C159 1.249 . S
O157 Dy143 2.326 . S
O157 C159 1.267 . S
C158 O150 1.249 . S
C158 O151 1.267 . S
C159 O156 1.249 . S
C159 O157 1.267 . S
Dy160 O164 2.398 . S
Dy160 O165 2.491 . S
Dy160 O166 2.403 . S
Dy160 O167 2.664 1_545 S
Dy160 O171 2.326 . S
Dy160 O175 2.310 . S
Dy160 O176 2.351 . S
C161 O172 1.185 . S
C161 O173 1.355 . S
C162 O164 1.185 . S
C162 O165 1.355 . S
Dy163 O167 2.310 . S
Dy163 O170 2.351 1_565 S
Dy163 O172 2.398 . S
Dy163 O173 2.491 . S
Dy163 O174 2.403 1_565 S
Dy163 O175 2.664 1_565 S
Dy163 O177 2.326 . S
O164 Dy160 2.398 . S
O164 C162 1.185 . S
O165 Dy160 2.491 . S
O165 C162 1.355 . S
O166 Dy160 2.403 . S
O166 C168 1.254 1_545 S
O167 Dy160 2.664 1_565 S
O167 Dy163 2.310 . S
O167 C168 1.268 . S
C168 O166 1.254 1_565 S
C168 O167 1.268 . S
C169 O174 1.254 . S
C169 O175 1.268 . S
O170 Dy163 2.351 1_545 S
O170 C178 1.249 . S
O171 Dy160 2.326 . S
O171 C178 1.267 . S
O172 C161 1.185 . S
O172 Dy163 2.398 . S
O173 C161 1.355 . S
O173 Dy163 2.491 . S
O174 Dy163 2.403 1_545 S
O174 C169 1.254 . S
O175 Dy160 2.310 . S
O175 Dy163 2.664 1_545 S
O175 C169 1.268 . S
O176 Dy160 2.351 . S
O176 C179 1.249 1_545 S
O177 Dy163 2.326 . S
O177 C179 1.267 . S
C178 O170 1.249 . S
C178 O171 1.267 . S
C179 O176 1.249 1_565 S
C179 O177 1.267 . S
Dy180 O184 2.398 . S
Dy180 O185 2.491 . S
Dy180 O186 2.403 . S
Dy180 O187 2.664 . S
Dy180 O191 2.326 . S
Dy180 O195 2.310 . S
Dy180 O196 2.351 . S
C181 O192 1.185 . S
C181 O193 1.355 . S
C182 O184 1.185 . S
C182 O185 1.355 . S
Dy183 O187 2.310 . S
Dy183 O190 2.351 . S
Dy183 O192 2.398 . S
Dy183 O193 2.491 . S
Dy183 O194 2.403 . S
Dy183 O195 2.664 . S
Dy183 O197 2.326 . S
O184 Dy180 2.398 . S
O184 C182 1.185 . S
O185 Dy180 2.491 . S
O185 C182 1.355 . S
O186 Dy180 2.403 . S
O186 C188 1.254 . S
O187 Dy180 2.664 . S
O187 Dy183 2.310 . S
O187 C188 1.268 . S
C188 O186 1.254 . S
C188 O187 1.268 . S
C189 O194 1.254 . S
C189 O195 1.268 . S
O190 Dy183 2.351 . S
O190 C198 1.249 . S
O191 Dy180 2.326 . S
O191 C198 1.267 . S
O192 C181 1.185 . S
O192 Dy183 2.398 . S
O193 C181 1.355 . S
O193 Dy183 2.491 . S
O194 Dy183 2.403 . S
O194 C189 1.254 . S
O195 Dy180 2.310 . S
O195 Dy183 2.664 . S
O195 C189 1.268 . S
O196 Dy180 2.351 . S
O196 C199 1.249 . S
O197 Dy183 2.326 . S
O197 C199 1.267 . S
C198 O190 1.249 . S
C198 O191 1.267 . S
C199 O196 1.249 . S
C199 O197 1.267 . S
Dy200 O204 2.398 . S
Dy200 O205 2.491 . S
Dy200 O206 2.403 1_565 S
Dy200 O207 2.664 1_565 S
Dy200 O211 2.326 . S
Dy200 O215 2.310 . S
Dy200 O216 2.351 1_565 S
C201 O212 1.185 . S
C201 O213 1.355 . S
C202 O204 1.185 . S
C202 O205 1.355 . S
Dy203 O207 2.310 . S
Dy203 O210 2.351 1_545 S
Dy203 O212 2.398 . S
Dy203 O213 2.491 . S
Dy203 O214 2.403 1_545 S
Dy203 O215 2.664 1_545 S
Dy203 O217 2.326 . S
O204 Dy200 2.398 . S
O204 C202 1.185 . S
O205 Dy200 2.491 . S
O205 C202 1.355 . S
O206 Dy200 2.403 1_545 S
O206 C208 1.254 . S
O207 Dy200 2.664 1_545 S
O207 Dy203 2.310 . S
O207 C208 1.268 . S
C208 O206 1.254 . S
C208 O207 1.268 . S
C209 O214 1.254 . S
C209 O215 1.268 . S
O210 Dy203 2.351 1_565 S
O210 C218 1.249 . S
O211 Dy200 2.326 . S
O211 C218 1.267 . S
O212 C201 1.185 . S
O212 Dy203 2.398 . S
O213 C201 1.355 . S
O213 Dy203 2.491 . S
O214 Dy203 2.403 1_565 S
O214 C209 1.254 . S
O215 Dy200 2.310 . S
O215 Dy203 2.664 1_565 S
O215 C209 1.268 . S
O216 Dy200 2.351 1_545 S
O216 C219 1.249 . S
O217 Dy203 2.326 . S
O217 C219 1.267 . S
C218 O210 1.249 . S
C218 O211 1.267 . S
C219 O216 1.249 . S
C219 O217 1.267 . S
Dy220 O224 2.398 . S
Dy220 O225 2.491 . S
Dy220 O226 2.403 . S
Dy220 O227 2.664 . S
Dy220 O231 2.326 . S
Dy220 O235 2.310 . S
Dy220 O236 2.351 . S
C221 O232 1.185 . S
C221 O233 1.355 . S
C222 O224 1.185 . S
C222 O225 1.355 . S
Dy223 O227 2.310 . S
Dy223 O230 2.351 . S
Dy223 O232 2.398 . S
Dy223 O233 2.491 . S
Dy223 O234 2.403 . S
Dy223 O235 2.664 . S
Dy223 O237 2.326 . S
O224 Dy220 2.398 . S
O224 C222 1.185 . S
O225 Dy220 2.491 . S
O225 C222 1.355 . S
O226 Dy220 2.403 . S
O226 C228 1.254 . S
O227 Dy220 2.664 . S
O227 Dy223 2.310 . S
O227 C228 1.268 . S
C228 O226 1.254 . S
C228 O227 1.268 . S
C229 O234 1.254 . S
C229 O235 1.268 . S
O230 Dy223 2.351 . S
O230 C238 1.249 . S
O231 Dy220 2.326 . S
O231 C238 1.267 . S
O232 C221 1.185 . S
O232 Dy223 2.398 . S
O233 C221 1.355 . S
O233 Dy223 2.491 . S
O234 Dy223 2.403 . S
O234 C229 1.254 . S
O235 Dy220 2.310 . S
O235 Dy223 2.664 . S
O235 C229 1.268 . S
O236 Dy220 2.351 . S
O236 C239 1.249 . S
O237 Dy223 2.326 . S
O237 C239 1.267 . S
C238 O230 1.249 . S
C238 O231 1.267 . S
C239 O236 1.249 . S
C239 O237 1.267 . S
Dy240 O244 2.398 . S
Dy240 O245 2.491 . S
Dy240 O246 2.403 . S
Dy240 O247 2.664 1_565 S
Dy240 O251 2.326 . S
Dy240 O255 2.310 . S
Dy240 O256 2.351 . S
C241 O252 1.185 . S
C241 O253 1.355 . S
C242 O244 1.185 . S
C242 O245 1.355 . S
Dy243 O247 2.310 . S
Dy243 O250 2.351 1_545 S
Dy243 O252 2.398 . S
Dy243 O253 2.491 . S
Dy243 O254 2.403 1_545 S
Dy243 O255 2.664 1_545 S
Dy243 O257 2.326 . S
O244 Dy240 2.398 . S
O244 C242 1.185 . S
O245 Dy240 2.491 . S
O245 C242 1.355 . S
O246 Dy240 2.403 . S
O246 C248 1.254 1_565 S
O247 Dy240 2.664 1_545 S
O247 Dy243 2.310 . S
O247 C248 1.268 . S
C248 O246 1.254 1_545 S
C248 O247 1.268 . S
C249 O254 1.254 . S
C249 O255 1.268 . S
O250 Dy243 2.351 1_565 S
O250 C258 1.249 . S
O251 Dy240 2.326 . S
O251 C258 1.267 . S
O252 C241 1.185 . S
O252 Dy243 2.398 . S
O253 C241 1.355 . S
O253 Dy243 2.491 . S
O254 Dy243 2.403 1_565 S
O254 C249 1.254 . S
O255 Dy240 2.310 . S
O255 Dy243 2.664 1_565 S
O255 C249 1.268 . S
O256 Dy240 2.351 . S
O256 C259 1.249 1_565 S
O257 Dy243 2.326 . S
O257 C259 1.267 . S
C258 O250 1.249 . S
C258 O251 1.267 . S
C259 O256 1.249 1_545 S
C259 O257 1.267 . S
Dy260 O264 2.398 . S
Dy260 O265 2.491 . S
Dy260 O266 2.403 . S
Dy260 O267 2.664 . S
Dy260 O271 2.326 . S
Dy260 O275 2.310 . S
Dy260 O276 2.351 . S
C261 O272 1.185 . S
C261 O273 1.355 . S
C262 O264 1.185 . S
C262 O265 1.355 . S
Dy263 O267 2.310 . S
Dy263 O270 2.351 . S
Dy263 O272 2.398 . S
Dy263 O273 2.491 . S
Dy263 O274 2.403 . S
Dy263 O275 2.664 . S
Dy263 O277 2.326 . S
O264 Dy260 2.398 . S
O264 C262 1.185 . S
O265 Dy260 2.491 . S
O265 C262 1.355 . S
O266 Dy260 2.403 . S
O266 C268 1.254 . S
O267 Dy260 2.664 . S
O267 Dy263 2.310 . S
O267 C268 1.268 . S
C268 O266 1.254 . S
C268 O267 1.268 . S
C269 O274 1.254 . S
C269 O275 1.268 . S
O270 Dy263 2.351 . S
O270 C278 1.249 . S
O271 Dy260 2.326 . S
O271 C278 1.267 . S
O272 C261 1.185 . S
O272 Dy263 2.398 . S
O273 C261 1.355 . S
O273 Dy263 2.491 . S
O274 Dy263 2.403 . S
O274 C269 1.254 . S
O275 Dy260 2.310 . S
O275 Dy263 2.664 . S
O275 C269 1.268 . S
O276 Dy260 2.351 . S
O276 C279 1.249 . S
O277 Dy263 2.326 . S
O277 C279 1.267 . S
C278 O270 1.249 . S
C278 O271 1.267 . S
C279 O276 1.249 . S
C279 O277 1.267 . S
Dy280 O284 2.398 . S
Dy280 O285 2.491 . S
Dy280 O286 2.403 . S
Dy280 O287 2.664 1_545 S
Dy280 O291 2.326 . S
Dy280 O295 2.310 . S
Dy280 O296 2.351 1_545 S
C281 O292 1.185 . S
C281 O293 1.355 . S
C282 O284 1.185 . S
C282 O285 1.355 . S
Dy283 O287 2.310 . S
Dy283 O290 2.351 1_565 S
Dy283 O292 2.398 . S
Dy283 O293 2.491 . S
Dy283 O294 2.403 1_565 S
Dy283 O295 2.664 1_565 S
Dy283 O297 2.326 . S
O284 Dy280 2.398 . S
O284 C282 1.185 . S
O285 Dy280 2.491 . S
O285 C282 1.355 . S
O286 Dy280 2.403 . S
O286 C288 1.254 1_545 S
O287 Dy280 2.664 1_565 S
O287 Dy283 2.310 . S
O287 C288 1.268 . S
C288 O286 1.254 1_565 S
C288 O287 1.268 . S
C289 O294 1.254 . S
C289 O295 1.268 . S
O290 Dy283 2.351 1_545 S
O290 C298 1.249 . S
O291 Dy280 2.326 . S
O291 C298 1.267 . S
O292 C281 1.185 . S
O292 Dy283 2.398 . S
O293 C281 1.355 . S
O293 Dy283 2.491 . S
O294 Dy283 2.403 1_545 S
O294 C289 1.254 . S
O295 Dy280 2.310 . S
O295 Dy283 2.664 1_545 S
O295 C289 1.268 . S
O296 Dy280 2.351 1_565 S
O296 C299 1.249 . S
O297 Dy283 2.326 . S
O297 C299 1.267 . S
C298 O290 1.249 . S
C298 O291 1.267 . S
C299 O296 1.249 . S
C299 O297 1.267 . S
Dy300 O304 2.398 . S
Dy300 O305 2.491 . S
Dy300 O306 2.403 . S
Dy300 O307 2.664 . S
Dy300 O311 2.326 . S
Dy300 O315 2.310 . S
Dy300 O316 2.351 . S
C301 O312 1.185 . S
C301 O313 1.355 . S
C302 O304 1.185 . S
C302 O305 1.355 . S
Dy303 O307 2.310 . S
Dy303 O310 2.351 . S
Dy303 O312 2.398 . S
Dy303 O313 2.491 . S
Dy303 O314 2.403 . S
Dy303 O315 2.664 . S
Dy303 O317 2.326 . S
O304 Dy300 2.398 . S
O304 C302 1.185 . S
O305 Dy300 2.491 . S
O305 C302 1.355 . S
O306 Dy300 2.403 . S
O306 C308 1.254 . S
O307 Dy300 2.664 . S
O307 Dy303 2.310 . S
O307 C308 1.268 . S
C308 O306 1.254 . S
C308 O307 1.268 . S
C309 O314 1.254 . S
C309 O315 1.268 . S
O310 Dy303 2.351 . S
O310 C318 1.249 . S
O311 Dy300 2.326 . S
O311 C318 1.267 . S
O312 C301 1.185 . S
O312 Dy303 2.398 . S
O313 C301 1.355 . S
O313 Dy303 2.491 . S
O314 Dy303 2.403 . S
O314 C309 1.254 . S
O315 Dy300 2.310 . S
O315 Dy303 2.664 . S
O315 C309 1.268 . S
O316 Dy300 2.351 . S
O316 C319 1.249 . S
O317 Dy303 2.326 . S
O317 C319 1.267 . S
C318 O310 1.249 . S
C318 O311 1.267 . S
C319 O316 1.249 . S
C319 O317 1.267 . S
Dy320 O324 2.398 . S
Dy320 O325 2.491 . S
Dy320 O326 2.403 . S
Dy320 O327 2.664 1_554 S
Dy320 O331 2.326 . S
Dy320 O335 2.310 . S
Dy320 O336 2.351 . S
C321 O332 1.185 . S
C321 O333 1.355 . S
C322 O324 1.185 . S
C322 O325 1.355 . S
Dy323 O327 2.310 . S
Dy323 O330 2.351 1_556 S
Dy323 O332 2.398 . S
Dy323 O333 2.491 . S
Dy323 O334 2.403 1_556 S
Dy323 O335 2.664 1_556 S
Dy323 O337 2.326 . S
O324 Dy320 2.398 . S
O324 C322 1.185 . S
O325 Dy320 2.491 . S
O325 C322 1.355 . S
O326 Dy320 2.403 . S
O326 C328 1.254 1_554 S
O327 Dy320 2.664 1_556 S
O327 Dy323 2.310 . S
O327 C328 1.268 . S
C328 O326 1.254 1_556 S
C328 O327 1.268 . S
C329 O334 1.254 . S
C329 O335 1.268 . S
O330 Dy323 2.351 1_554 S
O330 C338 1.249 . S
O331 Dy320 2.326 . S
O331 C338 1.267 . S
O332 C321 1.185 . S
O332 Dy323 2.398 . S
O333 C321 1.355 . S
O333 Dy323 2.491 . S
O334 Dy323 2.403 1_554 S
O334 C329 1.254 . S
O335 Dy320 2.310 . S
O335 Dy323 2.664 1_554 S
O335 C329 1.268 . S
O336 Dy320 2.351 . S
O336 C339 1.249 1_554 S
O337 Dy323 2.326 . S
O337 C339 1.267 . S
C338 O330 1.249 . S
C338 O331 1.267 . S
C339 O336 1.249 1_556 S
C339 O337 1.267 . S
Dy340 O344 2.398 1_556 S
Dy340 O345 2.491 1_556 S
Dy340 O346 2.403 . S
Dy340 O347 2.664 . S
Dy340 O351 2.326 1_556 S
Dy340 O355 2.310 1_556 S
Dy340 O356 2.351 . S
C341 O352 1.185 . S
C341 O353 1.355 . S
C342 O344 1.185 . S
C342 O345 1.355 . S
Dy343 O347 2.310 . S
Dy343 O350 2.351 1_556 S
Dy343 O352 2.398 . S
Dy343 O353 2.491 . S
Dy343 O354 2.403 1_556 S
Dy343 O355 2.664 1_556 S
Dy343 O357 2.326 . S
O344 Dy340 2.398 1_554 S
O344 C342 1.185 . S
O345 Dy340 2.491 1_554 S
O345 C342 1.355 . S
O346 Dy340 2.403 . S
O346 C348 1.254 . S
O347 Dy340 2.664 . S
O347 Dy343 2.310 . S
O347 C348 1.268 . S
C348 O346 1.254 . S
C348 O347 1.268 . S
C349 O354 1.254 . S
C349 O355 1.268 . S
O350 Dy343 2.351 1_554 S
O350 C358 1.249 . S
O351 Dy340 2.326 1_554 S
O351 C358 1.267 . S
O352 C341 1.185 . S
O352 Dy343 2.398 . S
O353 C341 1.355 . S
O353 Dy343 2.491 . S
O354 Dy343 2.403 1_554 S
O354 C349 1.254 . S
O355 Dy340 2.310 1_554 S
O355 Dy343 2.664 1_554 S
O355 C349 1.268 . S
O356 Dy340 2.351 . S
O356 C359 1.249 . S
O357 Dy343 2.326 . S
O357 C359 1.267 . S
C358 O350 1.249 . S
C358 O351 1.267 . S
C359 O356 1.249 . S
C359 O357 1.267 . S
Dy360 O364 2.398 . S
Dy360 O365 2.491 . S
Dy360 O366 2.403 . S
Dy360 O367 2.664 . S
Dy360 O371 2.326 . S
Dy360 O375 2.310 . S
Dy360 O376 2.351 . S
C361 O372 1.185 . S
C361 O373 1.355 . S
C362 O364 1.185 . S
C362 O365 1.355 . S
Dy363 O367 2.310 . S
Dy363 O370 2.351 . S
Dy363 O372 2.398 . S
Dy363 O373 2.491 . S
Dy363 O374 2.403 . S
Dy363 O375 2.664 . S
Dy363 O377 2.326 . S
O364 Dy360 2.398 . S
O364 C362 1.185 . S
O365 Dy360 2.491 . S
O365 C362 1.355 . S
O366 Dy360 2.403 . S
O366 C368 1.254 . S
O367 Dy360 2.664 . S
O367 Dy363 2.310 . S
O367 C368 1.268 . S
C368 O366 1.254 . S
C368 O367 1.268 . S
C369 O374 1.254 . S
C369 O375 1.268 . S
O370 Dy363 2.351 . S
O370 C378 1.249 . S
O371 Dy360 2.326 . S
O371 C378 1.267 . S
O372 C361 1.185 . S
O372 Dy363 2.398 . S
O373 C361 1.355 . S
O373 Dy363 2.491 . S
O374 Dy363 2.403 . S
O374 C369 1.254 . S
O375 Dy360 2.310 . S
O375 Dy363 2.664 . S
O375 C369 1.268 . S
O376 Dy360 2.351 . S
O376 C379 1.249 . S
O377 Dy363 2.326 . S
O377 C379 1.267 . S
C378 O370 1.249 . S
C378 O371 1.267 . S
C379 O376 1.249 . S
C379 O377 1.267 . S
Dy380 O384 2.398 . S
Dy380 O385 2.491 . S
Dy380 O386 2.403 . S
Dy380 O387 2.664 . S
Dy380 O391 2.326 . S
Dy380 O395 2.310 . S
Dy380 O396 2.351 . S
C381 O392 1.185 . S
C381 O393 1.355 . S
C382 O384 1.185 . S
C382 O385 1.355 . S
Dy383 O387 2.310 . S
Dy383 O390 2.351 . S
Dy383 O392 2.398 . S
Dy383 O393 2.491 . S
Dy383 O394 2.403 . S
Dy383 O395 2.664 . S
Dy383 O397 2.326 . S
O384 Dy380 2.398 . S
O384 C382 1.185 . S
O385 Dy380 2.491 . S
O385 C382 1.355 . S
O386 Dy380 2.403 . S
O386 C388 1.254 . S
O387 Dy380 2.664 . S
O387 Dy383 2.310 . S
O387 C388 1.268 . S
C388 O386 1.254 . S
C388 O387 1.268 . S
C389 O394 1.254 . S
C389 O395 1.268 . S
O390 Dy383 2.351 . S
O390 C398 1.249 . S
O391 Dy380 2.326 . S
O391 C398 1.267 . S
O392 C381 1.185 . S
O392 Dy383 2.398 . S
O393 C381 1.355 . S
O393 Dy383 2.491 . S
O394 Dy383 2.403 . S
O394 C389 1.254 . S
O395 Dy380 2.310 . S
O395 Dy383 2.664 . S
O395 C389 1.268 . S
O396 Dy380 2.351 . S
O396 C399 1.249 . S
O397 Dy383 2.326 . S
O397 C399 1.267 . S
C398 O390 1.249 . S
C398 O391 1.267 . S
C399 O396 1.249 . S
C399 O397 1.267 . S
Dy400 O404 2.398 . S
Dy400 O405 2.491 . S
Dy400 O406 2.403 . S
Dy400 O407 2.664 . S
Dy400 O411 2.326 . S
Dy400 O415 2.310 . S
Dy400 O416 2.351 . S
C401 O412 1.185 . S
C401 O413 1.355 . S
C402 O404 1.185 . S
C402 O405 1.355 . S
Dy403 O407 2.310 . S
Dy403 O410 2.351 . S
Dy403 O412 2.398 . S
Dy403 O413 2.491 . S
Dy403 O414 2.403 . S
Dy403 O415 2.664 . S
Dy403 O417 2.326 . S
O404 Dy400 2.398 . S
O404 C402 1.185 . S
O405 Dy400 2.491 . S
O405 C402 1.355 . S
O406 Dy400 2.403 . S
O406 C408 1.254 . S
O407 Dy400 2.664 . S
O407 Dy403 2.310 . S
O407 C408 1.268 . S
C408 O406 1.254 . S
C408 O407 1.268 . S
C409 O414 1.254 . S
C409 O415 1.268 . S
O410 Dy403 2.351 . S
O410 C418 1.249 . S
O411 Dy400 2.326 . S
O411 C418 1.267 . S
O412 C401 1.185 . S
O412 Dy403 2.398 . S
O413 C401 1.355 . S
O413 Dy403 2.491 . S
O414 Dy403 2.403 . S
O414 C409 1.254 . S
O415 Dy400 2.310 . S
O415 Dy403 2.664 . S
O415 C409 1.268 . S
O416 Dy400 2.351 . S
O416 C419 1.249 . S
O417 Dy403 2.326 . S
O417 C419 1.267 . S
C418 O410 1.249 . S
C418 O411 1.267 . S
C419 O416 1.249 . S
C419 O417 1.267 . S
Dy420 O424 2.398 . S
Dy420 O425 2.491 . S
Dy420 O426 2.403 . S
Dy420 O427 2.664 . S
Dy420 O431 2.326 . S
Dy420 O435 2.310 . S
Dy420 O436 2.351 . S
C421 O432 1.185 . S
C421 O433 1.355 . S
C422 O424 1.185 . S
C422 O425 1.355 . S
Dy423 O427 2.310 . S
Dy423 O430 2.351 . S
Dy423 O432 2.398 . S
Dy423 O433 2.491 . S
Dy423 O434 2.403 . S
Dy423 O435 2.664 . S
Dy423 O437 2.326 . S
O424 Dy420 2.398 . S
O424 C422 1.185 . S
O425 Dy420 2.491 . S
O425 C422 1.355 . S
O426 Dy420 2.403 . S
O426 C428 1.254 . S
O427 Dy420 2.664 . S
O427 Dy423 2.310 . S
O427 C428 1.268 . S
C428 O426 1.254 . S
C428 O427 1.268 . S
C429 O434 1.254 . S
C429 O435 1.268 . S
O430 Dy423 2.351 . S
O430 C438 1.249 . S
O431 Dy420 2.326 . S
O431 C438 1.267 . S
O432 C421 1.185 . S
O432 Dy423 2.398 . S
O433 C421 1.355 . S
O433 Dy423 2.491 . S
O434 Dy423 2.403 . S
O434 C429 1.254 . S
O435 Dy420 2.310 . S
O435 Dy423 2.664 . S
O435 C429 1.268 . S
O436 Dy420 2.351 . S
O436 C439 1.249 . S
O437 Dy423 2.326 . S
O437 C439 1.267 . S
C438 O430 1.249 . S
C438 O431 1.267 . S
C439 O436 1.249 . S
C439 O437 1.267 . S
Dy440 O444 2.398 . S
Dy440 O445 2.491 . S
Dy440 O446 2.403 . S
Dy440 O447 2.664 . S
Dy440 O451 2.326 . S
Dy440 O455 2.310 . S
Dy440 O456 2.351 . S
C441 O452 1.185 . S
C441 O453 1.355 . S
C442 O444 1.185 . S
C442 O445 1.355 . S
Dy443 O447 2.310 . S
Dy443 O450 2.351 . S
Dy443 O452 2.398 . S
Dy443 O453 2.491 . S
Dy443 O454 2.403 . S
Dy443 O455 2.664 . S
Dy443 O457 2.326 . S
O444 Dy440 2.398 . S
O444 C442 1.185 . S
O445 Dy440 2.491 . S
O445 C442 1.355 . S
O446 Dy440 2.403 . S
O446 C448 1.254 . S
O447 Dy440 2.664 . S
O447 Dy443 2.310 . S
O447 C448 1.268 . S
C448 O446 1.254 . S
C448 O447 1.268 . S
C449 O454 1.254 . S
C449 O455 1.268 . S
O450 Dy443 2.351 . S
O450 C458 1.249 . S
O451 Dy440 2.326 . S
O451 C458 1.267 . S
O452 C441 1.185 . S
O452 Dy443 2.398 . S
O453 C441 1.355 . S
O453 Dy443 2.491 . S
O454 Dy443 2.403 . S
O454 C449 1.254 . S
O455 Dy440 2.310 . S
O455 Dy443 2.664 . S
O455 C449 1.268 . S
O456 Dy440 2.351 . S
O456 C459 1.249 . S
O457 Dy443 2.326 . S
O457 C459 1.267 . S
C458 O450 1.249 . S
C458 O451 1.267 . S
C459 O456 1.249 . S
C459 O457 1.267 . S
Dy460 O464 2.398 . S
Dy460 O465 2.491 . S
Dy460 O466 2.403 . S
Dy460 O467 2.664 . S
Dy460 O471 2.326 . S
Dy460 O475 2.310 . S
Dy460 O476 2.351 . S
C461 O472 1.185 . S
C461 O473 1.355 . S
C462 O464 1.185 . S
C462 O465 1.355 . S
Dy463 O467 2.310 . S
Dy463 O470 2.351 . S
Dy463 O472 2.398 . S
Dy463 O473 2.491 . S
Dy463 O474 2.403 . S
Dy463 O475 2.664 . S
Dy463 O477 2.326 . S
O464 Dy460 2.398 . S
O464 C462 1.185 . S
O465 Dy460 2.491 . S
O465 C462 1.355 . S
O466 Dy460 2.403 . S
O466 C468 1.254 . S
O467 Dy460 2.664 . S
O467 Dy463 2.310 . S
O467 C468 1.268 . S
C468 O466 1.254 . S
C468 O467 1.268 . S
C469 O474 1.254 . S
C469 O475 1.268 . S
O470 Dy463 2.351 . S
O470 C478 1.249 . S
O471 Dy460 2.326 . S
O471 C478 1.267 . S
O472 C461 1.185 . S
O472 Dy463 2.398 . S
O473 C461 1.355 . S
O473 Dy463 2.491 . S
O474 Dy463 2.403 . S
O474 C469 1.254 . S
O475 Dy460 2.310 . S
O475 Dy463 2.664 . S
O475 C469 1.268 . S
O476 Dy460 2.351 . S
O476 C479 1.249 . S
O477 Dy463 2.326 . S
O477 C479 1.267 . S
C478 O470 1.249 . S
C478 O471 1.267 . S
C479 O476 1.249 . S
C479 O477 1.267 . S
Dy480 O484 2.398 . S
Dy480 O485 2.491 . S
Dy480 O486 2.403 1_455 S
Dy480 O487 2.664 1_455 S
Dy480 O491 2.326 . S
Dy480 O495 2.310 . S
Dy480 O496 2.351 1_455 S
C481 O492 1.185 . S
C481 O493 1.355 . S
C482 O484 1.185 . S
C482 O485 1.355 . S
Dy483 O487 2.310 . S
Dy483 O490 2.351 1_655 S
Dy483 O492 2.398 . S
Dy483 O493 2.491 . S
Dy483 O494 2.403 1_655 S
Dy483 O495 2.664 1_655 S
Dy483 O497 2.326 . S
O484 Dy480 2.398 . S
O484 C482 1.185 . S
O485 Dy480 2.491 . S
O485 C482 1.355 . S
O486 Dy480 2.403 1_655 S
O486 C488 1.254 . S
O487 Dy480 2.664 1_655 S
O487 Dy483 2.310 . S
O487 C488 1.268 . S
C488 O486 1.254 . S
C488 O487 1.268 . S
C489 O494 1.254 . S
C489 O495 1.268 . S
O490 Dy483 2.351 1_455 S
O490 C498 1.249 . S
O491 Dy480 2.326 . S
O491 C498 1.267 . S
O492 C481 1.185 . S
O492 Dy483 2.398 . S
O493 C481 1.355 . S
O493 Dy483 2.491 . S
O494 Dy483 2.403 1_455 S
O494 C489 1.254 . S
O495 Dy480 2.310 . S
O495 Dy483 2.664 1_455 S
O495 C489 1.268 . S
O496 Dy480 2.351 1_655 S
O496 C499 1.249 . S
O497 Dy483 2.326 . S
O497 C499 1.267 . S
C498 O490 1.249 . S
C498 O491 1.267 . S
C499 O496 1.249 . S
C499 O497 1.267 . S
Dy500 O504 2.398 . S
Dy500 O505 2.491 . S
Dy500 O506 2.403 . S
Dy500 O507 2.664 . S
Dy500 O511 2.326 . S
Dy500 O515 2.310 . S
Dy500 O516 2.351 . S
C501 O512 1.185 . S
C501 O513 1.355 . S
C502 O504 1.185 . S
C502 O505 1.355 . S
Dy503 O507 2.310 . S
Dy503 O510 2.351 . S
Dy503 O512 2.398 . S
Dy503 O513 2.491 . S
Dy503 O514 2.403 . S
Dy503 O515 2.664 . S
Dy503 O517 2.326 . S
O504 Dy500 2.398 . S
O504 C502 1.185 . S
O505 Dy500 2.491 . S
O505 C502 1.355 . S
O506 Dy500 2.403 . S
O506 C508 1.254 . S
O507 Dy500 2.664 . S
O507 Dy503 2.310 . S
O507 C508 1.268 . S
C508 O506 1.254 . S
C508 O507 1.268 . S
C509 O514 1.254 . S
C509 O515 1.268 . S
O510 Dy503 2.351 . S
O510 C518 1.249 . S
O511 Dy500 2.326 . S
O511 C518 1.267 . S
O512 C501 1.185 . S
O512 Dy503 2.398 . S
O513 C501 1.355 . S
O513 Dy503 2.491 . S
O514 Dy503 2.403 . S
O514 C509 1.254 . S
O515 Dy500 2.310 . S
O515 Dy503 2.664 . S
O515 C509 1.268 . S
O516 Dy500 2.351 . S
O516 C519 1.249 . S
O517 Dy503 2.326 . S
O517 C519 1.267 . S
C518 O510 1.249 . S
C518 O511 1.267 . S
C519 O516 1.249 . S
C519 O517 1.267 . S
Dy520 O524 2.398 . S
Dy520 O525 2.491 . S
Dy520 O526 2.403 . S
Dy520 O527 2.664 . S
Dy520 O531 2.326 . S
Dy520 O535 2.310 . S
Dy520 O536 2.351 . S
C521 O532 1.185 . S
C521 O533 1.355 . S
C522 O524 1.185 . S
C522 O525 1.355 . S
Dy523 O527 2.310 . S
Dy523 O530 2.351 . S
Dy523 O532 2.398 . S
Dy523 O533 2.491 . S
Dy523 O534 2.403 . S
Dy523 O535 2.664 . S
Dy523 O537 2.326 . S
O524 Dy520 2.398 . S
O524 C522 1.185 . S
O525 Dy520 2.491 . S
O525 C522 1.355 . S
O526 Dy520 2.403 . S
O526 C528 1.254 . S
O527 Dy520 2.664 . S
O527 Dy523 2.310 . S
O527 C528 1.268 . S
C528 O526 1.254 . S
C528 O527 1.268 . S
C529 O534 1.254 . S
C529 O535 1.268 . S
O530 Dy523 2.351 . S
O530 C538 1.249 . S
O531 Dy520 2.326 . S
O531 C538 1.267 . S
O532 C521 1.185 . S
O532 Dy523 2.398 . S
O533 C521 1.355 . S
O533 Dy523 2.491 . S
O534 Dy523 2.403 . S
O534 C529 1.254 . S
O535 Dy520 2.310 . S
O535 Dy523 2.664 . S
O535 C529 1.268 . S
O536 Dy520 2.351 . S
O536 C539 1.249 . S
O537 Dy523 2.326 . S
O537 C539 1.267 . S
C538 O530 1.249 . S
C538 O531 1.267 . S
C539 O536 1.249 . S
C539 O537 1.267 . S
Dy540 O544 2.398 . S
Dy540 O545 2.491 . S
Dy540 O546 2.403 . S
Dy540 O547 2.664 . S
Dy540 O551 2.326 . S
Dy540 O555 2.310 . S
Dy540 O556 2.351 . S
C541 O552 1.185 . S
C541 O553 1.355 . S
C542 O544 1.185 . S
C542 O545 1.355 . S
Dy543 O547 2.310 . S
Dy543 O550 2.351 . S
Dy543 O552 2.398 . S
Dy543 O553 2.491 . S
Dy543 O554 2.403 . S
Dy543 O555 2.664 . S
Dy543 O557 2.326 . S
O544 Dy540 2.398 . S
O544 C542 1.185 . S
O545 Dy540 2.491 . S
O545 C542 1.355 . S
O546 Dy540 2.403 . S
O546 C548 1.254 . S
O547 Dy540 2.664 . S
O547 Dy543 2.310 . S
O547 C548 1.268 . S
C548 O546 1.254 . S
C548 O547 1.268 . S
C549 O554 1.254 . S
C549 O555 1.268 . S
O550 Dy543 2.351 . S
O550 C558 1.249 . S
O551 Dy540 2.326 . S
O551 C558 1.267 . S
O552 C541 1.185 . S
O552 Dy543 2.398 . S
O553 C541 1.355 . S
O553 Dy543 2.491 . S
O554 Dy543 2.403 . S
O554 C549 1.254 . S
O555 Dy540 2.310 . S
O555 Dy543 2.664 . S
O555 C549 1.268 . S
O556 Dy540 2.351 . S
O556 C559 1.249 . S
O557 Dy543 2.326 . S
O557 C559 1.267 . S
C558 O550 1.249 . S
C558 O551 1.267 . S
C559 O556 1.249 . S
C559 O557 1.267 . S
Dy560 O564 2.398 . S
Dy560 O565 2.491 . S
Dy560 O566 2.403 1_455 S
Dy560 O567 2.664 1_455 S
Dy560 O571 2.326 . S
Dy560 O575 2.310 . S
Dy560 O576 2.351 1_455 S
C561 O572 1.185 . S
C561 O573 1.355 . S
C562 O564 1.185 . S
C562 O565 1.355 . S
Dy563 O567 2.310 . S
Dy563 O570 2.351 1_655 S
Dy563 O572 2.398 . S
Dy563 O573 2.491 . S
Dy563 O574 2.403 1_655 S
Dy563 O575 2.664 1_655 S
Dy563 O577 2.326 . S
O564 Dy560 2.398 . S
O564 C562 1.185 . S
O565 Dy560 2.491 . S
O565 C562 1.355 . S
O566 Dy560 2.403 1_655 S
O566 C568 1.254 . S
O567 Dy560 2.664 1_655 S
O567 Dy563 2.310 . S
O567 C568 1.268 . S
C568 O566 1.254 . S
C568 O567 1.268 . S
C569 O574 1.254 . S
C569 O575 1.268 . S
O570 Dy563 2.351 1_455 S
O570 C578 1.249 . S
O571 Dy560 2.326 . S
O571 C578 1.267 . S
O572 C561 1.185 . S
O572 Dy563 2.398 . S
O573 C561 1.355 . S
O573 Dy563 2.491 . S
O574 Dy563 2.403 1_455 S
O574 C569 1.254 . S
O575 Dy560 2.310 . S
O575 Dy563 2.664 1_455 S
O575 C569 1.268 . S
O576 Dy560 2.351 1_655 S
O576 C579 1.249 . S
O577 Dy563 2.326 . S
O577 C579 1.267 . S
C578 O570 1.249 . S
C578 O571 1.267 . S
C579 O576 1.249 . S
C579 O577 1.267 . S
Dy580 O584 2.398 . S
Dy580 O585 2.491 . S
Dy580 O586 2.403 . S
Dy580 O587 2.664 . S
Dy580 O591 2.326 . S
Dy580 O595 2.310 . S
Dy580 O596 2.351 . S
C581 O592 1.185 . S
C581 O593 1.355 . S
C582 O584 1.185 . S
C582 O585 1.355 . S
Dy583 O587 2.310 . S
Dy583 O590 2.351 . S
Dy583 O592 2.398 . S
Dy583 O593 2.491 . S
Dy583 O594 2.403 . S
Dy583 O595 2.664 . S
Dy583 O597 2.326 . S
O584 Dy580 2.398 . S
O584 C582 1.185 . S
O585 Dy580 2.491 . S
O585 C582 1.355 . S
O586 Dy580 2.403 . S
O586 C588 1.254 . S
O587 Dy580 2.664 . S
O587 Dy583 2.310 . S
O587 C588 1.268 . S
C588 O586 1.254 . S
C588 O587 1.268 . S
C589 O594 1.254 . S
C589 O595 1.268 . S
O590 Dy583 2.351 . S
O590 C598 1.249 . S
O591 Dy580 2.326 . S
O591 C598 1.267 . S
O592 C581 1.185 . S
O592 Dy583 2.398 . S
O593 C581 1.355 . S
O593 Dy583 2.491 . S
O594 Dy583 2.403 . S
O594 C589 1.254 . S
O595 Dy580 2.310 . S
O595 Dy583 2.664 . S
O595 C589 1.268 . S
O596 Dy580 2.351 . S
O596 C599 1.249 . S
O597 Dy583 2.326 . S
O597 C599 1.267 . S
C598 O590 1.249 . S
C598 O591 1.267 . S
C599 O596 1.249 . S
C599 O597 1.267 . S
Dy600 O604 2.398 . S
Dy600 O605 2.491 . S
Dy600 O606 2.403 . S
Dy600 O607 2.664 . S
Dy600 O611 2.326 . S
Dy600 O615 2.310 . S
Dy600 O616 2.351 . S
C601 O612 1.185 . S
C601 O613 1.355 . S
C602 O604 1.185 . S
C602 O605 1.355 . S
Dy603 O607 2.310 . S
Dy603 O610 2.351 . S
Dy603 O612 2.398 . S
Dy603 O613 2.491 . S
Dy603 O614 2.403 . S
Dy603 O615 2.664 . S
Dy603 O617 2.326 . S
O604 Dy600 2.398 . S
O604 C602 1.185 . S
O605 Dy600 2.491 . S
O605 C602 1.355 . S
O606 Dy600 2.403 . S
O606 C608 1.254 . S
O607 Dy600 2.664 . S
O607 Dy603 2.310 . S
O607 C608 1.268 . S
C608 O606 1.254 . S
C608 O607 1.268 . S
C609 O614 1.254 . S
C609 O615 1.268 . S
O610 Dy603 2.351 . S
O610 C618 1.249 . S
O611 Dy600 2.326 . S
O611 C618 1.267 . S
O612 C601 1.185 . S
O612 Dy603 2.398 . S
O613 C601 1.355 . S
O613 Dy603 2.491 . S
O614 Dy603 2.403 . S
O614 C609 1.254 . S
O615 Dy600 2.310 . S
O615 Dy603 2.664 . S
O615 C609 1.268 . S
O616 Dy600 2.351 . S
O616 C619 1.249 . S
O617 Dy603 2.326 . S
O617 C619 1.267 . S
C618 O610 1.249 . S
C618 O611 1.267 . S
C619 O616 1.249 . S
C619 O617 1.267 . S
Dy620 O624 2.398 . S
Dy620 O625 2.491 . S
Dy620 O626 2.403 . S
Dy620 O627 2.664 . S
Dy620 O631 2.326 . S
Dy620 O635 2.310 . S
Dy620 O636 2.351 . S
C621 O632 1.185 . S
C621 O633 1.355 . S
C622 O624 1.185 . S
C622 O625 1.355 . S
Dy623 O627 2.310 . S
Dy623 O630 2.351 . S
Dy623 O632 2.398 . S
Dy623 O633 2.491 . S
Dy623 O634 2.403 . S
Dy623 O635 2.664 . S
Dy623 O637 2.326 . S
O624 Dy620 2.398 . S
O624 C622 1.185 . S
O625 Dy620 2.491 . S
O625 C622 1.355 . S
O626 Dy620 2.403 . S
O626 C628 1.254 . S
O627 Dy620 2.664 . S
O627 Dy623 2.310 . S
O627 C628 1.268 . S
C628 O626 1.254 . S
C628 O627 1.268 . S
C629 O634 1.254 . S
C629 O635 1.268 . S
O630 Dy623 2.351 . S
O630 C638 1.249 . S
O631 Dy620 2.326 . S
O631 C638 1.267 . S
O632 C621 1.185 . S
O632 Dy623 2.398 . S
O633 C621 1.355 . S
O633 Dy623 2.491 . S
O634 Dy623 2.403 . S
O634 C629 1.254 . S
O635 Dy620 2.310 . S
O635 Dy623 2.664 . S
O635 C629 1.268 . S
O636 Dy620 2.351 . S
O636 C639 1.249 . S
O637 Dy623 2.326 . S
O637 C639 1.267 . S
C638 O630 1.249 . S
C638 O631 1.267 . S
C639 O636 1.249 . S
C639 O637 1.267 . S
Dy640 O644 2.398 . S
Dy640 O645 2.491 . S
Dy640 O646 2.403 1_545 S
Dy640 O647 2.664 1_545 S
Dy640 O651 2.326 . S
Dy640 O655 2.310 . S
Dy640 O656 2.351 1_545 S
C641 O652 1.185 . S
C641 O653 1.355 . S
C642 O644 1.185 . S
C642 O645 1.355 . S
Dy643 O647 2.310 . S
Dy643 O650 2.351 . S
Dy643 O652 2.398 . S
Dy643 O653 2.491 . S
Dy643 O654 2.403 . S
Dy643 O655 2.664 1_565 S
Dy643 O657 2.326 . S
O644 Dy640 2.398 . S
O644 C642 1.185 . S
O645 Dy640 2.491 . S
O645 C642 1.355 . S
O646 Dy640 2.403 1_565 S
O646 C648 1.254 . S
O647 Dy640 2.664 1_565 S
O647 Dy643 2.310 . S
O647 C648 1.268 . S
C648 O646 1.254 . S
C648 O647 1.268 . S
C649 O654 1.254 1_545 S
C649 O655 1.268 . S
O650 Dy643 2.351 . S
O650 C658 1.249 1_565 S
O651 Dy640 2.326 . S
O651 C658 1.267 . S
O652 C641 1.185 . S
O652 Dy643 2.398 . S
O653 C641 1.355 . S
O653 Dy643 2.491 . S
O654 Dy643 2.403 . S
O654 C649 1.254 1_565 S
O655 Dy640 2.310 . S
O655 Dy643 2.664 1_545 S
O655 C649 1.268 . S
O656 Dy640 2.351 1_565 S
O656 C659 1.249 . S
O657 Dy643 2.326 . S
O657 C659 1.267 . S
C658 O650 1.249 1_545 S
C658 O651 1.267 . S
C659 O656 1.249 . S
C659 O657 1.267 . S
Dy660 O664 2.398 . S
Dy660 O665 2.491 . S
Dy660 O666 2.403 . S
Dy660 O667 2.664 . S
Dy660 O671 2.326 . S
Dy660 O675 2.310 . S
Dy660 O676 2.351 . S
C661 O672 1.185 . S
C661 O673 1.355 . S
C662 O664 1.185 . S
C662 O665 1.355 . S
Dy663 O667 2.310 . S
Dy663 O670 2.351 . S
Dy663 O672 2.398 . S
Dy663 O673 2.491 . S
Dy663 O674 2.403 . S
Dy663 O675 2.664 . S
Dy663 O677 2.326 . S
O664 Dy660 2.398 . S
O664 C662 1.185 . S
O665 Dy660 2.491 . S
O665 C662 1.355 . S
O666 Dy660 2.403 . S
O666 C668 1.254 . S
O667 Dy660 2.664 . S
O667 Dy663 2.310 . S
O667 C668 1.268 . S
C668 O666 1.254 . S
C668 O667 1.268 . S
C669 O674 1.254 . S
C669 O675 1.268 . S
O670 Dy663 2.351 . S
O670 C678 1.249 . S
O671 Dy660 2.326 . S
O671 C678 1.267 . S
O672 C661 1.185 . S
O672 Dy663 2.398 . S
O673 C661 1.355 . S
O673 Dy663 2.491 . S
O674 Dy663 2.403 . S
O674 C669 1.254 . S
O675 Dy660 2.310 . S
O675 Dy663 2.664 . S
O675 C669 1.268 . S
O676 Dy660 2.351 . S
O676 C679 1.249 . S
O677 Dy663 2.326 . S
O677 C679 1.267 . S
C678 O670 1.249 . S
C678 O671 1.267 . S
C679 O676 1.249 . S
C679 O677 1.267 . S
Dy680 O684 2.398 . S
Dy680 O685 2.491 . S
Dy680 O686 2.403 1_565 S
Dy680 O687 2.664 1_565 S
Dy680 O691 2.326 . S
Dy680 O695 2.310 . S
Dy680 O696 2.351 1_565 S
C681 O692 1.185 . S
C681 O693 1.355 . S
C682 O684 1.185 . S
C682 O685 1.355 . S
Dy683 O687 2.310 . S
Dy683 O690 2.351 1_545 S
Dy683 O692 2.398 . S
Dy683 O693 2.491 . S
Dy683 O694 2.403 1_545 S
Dy683 O695 2.664 1_545 S
Dy683 O697 2.326 . S
O684 Dy680 2.398 . S
O684 C682 1.185 . S
O685 Dy680 2.491 . S
O685 C682 1.355 . S
O686 Dy680 2.403 1_545 S
O686 C688 1.254 . S
O687 Dy680 2.664 1_545 S
O687 Dy683 2.310 . S
O687 C688 1.268 . S
C688 O686 1.254 . S
C688 O687 1.268 . S
C689 O694 1.254 . S
C689 O695 1.268 . S
O690 Dy683 2.351 1_565 S
O690 C698 1.249 . S
O691 Dy680 2.326 . S
O691 C698 1.267 . S
O692 C681 1.185 . S
O692 Dy683 2.398 . S
O693 C681 1.355 . S
O693 Dy683 2.491 . S
O694 Dy683 2.403 1_565 S
O694 C689 1.254 . S
O695 Dy680 2.310 . S
O695 Dy683 2.664 1_565 S
O695 C689 1.268 . S
O696 Dy680 2.351 1_545 S
O696 C699 1.249 . S
O697 Dy683 2.326 . S
O697 C699 1.267 . S
C698 O690 1.249 . S
C698 O691 1.267 . S
C699 O696 1.249 . S
C699 O697 1.267 . S
Dy700 O704 2.398 . S
Dy700 O705 2.491 . S
Dy700 O706 2.403 . S
Dy700 O707 2.664 . S
Dy700 O711 2.326 . S
Dy700 O715 2.310 . S
Dy700 O716 2.351 . S
C701 O712 1.185 . S
C701 O713 1.355 . S
C702 O704 1.185 . S
C702 O705 1.355 . S
Dy703 O707 2.310 . S
Dy703 O710 2.351 . S
Dy703 O712 2.398 . S
Dy703 O713 2.491 . S
Dy703 O714 2.403 . S
Dy703 O715 2.664 . S
Dy703 O717 2.326 . S
O704 Dy700 2.398 . S
O704 C702 1.185 . S
O705 Dy700 2.491 . S
O705 C702 1.355 . S
O706 Dy700 2.403 . S
O706 C708 1.254 . S
O707 Dy700 2.664 . S
O707 Dy703 2.310 . S
O707 C708 1.268 . S
C708 O706 1.254 . S
C708 O707 1.268 . S
C709 O714 1.254 . S
C709 O715 1.268 . S
O710 Dy703 2.351 . S
O710 C718 1.249 . S
O711 Dy700 2.326 . S
O711 C718 1.267 . S
O712 C701 1.185 . S
O712 Dy703 2.398 . S
O713 C701 1.355 . S
O713 Dy703 2.491 . S
O714 Dy703 2.403 . S
O714 C709 1.254 . S
O715 Dy700 2.310 . S
O715 Dy703 2.664 . S
O715 C709 1.268 . S
O716 Dy700 2.351 . S
O716 C719 1.249 . S
O717 Dy703 2.326 . S
O717 C719 1.267 . S
C718 O710 1.249 . S
C718 O711 1.267 . S
C719 O716 1.249 . S
C719 O717 1.267 . S
Dy720 O724 2.398 . S
Dy720 O725 2.491 . S
Dy720 O726 2.403 1_565 S
Dy720 O727 2.664 1_565 S
Dy720 O731 2.326 . S
Dy720 O735 2.310 . S
Dy720 O736 2.351 1_565 S
C721 O732 1.185 . S
C721 O733 1.355 . S
C722 O724 1.185 . S
C722 O725 1.355 . S
Dy723 O727 2.310 . S
Dy723 O730 2.351 . S
Dy723 O732 2.398 . S
Dy723 O733 2.491 . S
Dy723 O734 2.403 . S
Dy723 O735 2.664 1_545 S
Dy723 O737 2.326 . S
O724 Dy720 2.398 . S
O724 C722 1.185 . S
O725 Dy720 2.491 . S
O725 C722 1.355 . S
O726 Dy720 2.403 1_545 S
O726 C728 1.254 . S
O727 Dy720 2.664 1_545 S
O727 Dy723 2.310 . S
O727 C728 1.268 . S
C728 O726 1.254 . S
C728 O727 1.268 . S
C729 O734 1.254 1_565 S
C729 O735 1.268 . S
O730 Dy723 2.351 . S
O730 C738 1.249 1_545 S
O731 Dy720 2.326 . S
O731 C738 1.267 . S
O732 C721 1.185 . S
O732 Dy723 2.398 . S
O733 C721 1.355 . S
O733 Dy723 2.491 . S
O734 Dy723 2.403 . S
O734 C729 1.254 1_545 S
O735 Dy720 2.310 . S
O735 Dy723 2.664 1_565 S
O735 C729 1.268 . S
O736 Dy720 2.351 1_545 S
O736 C739 1.249 . S
O737 Dy723 2.326 . S
O737 C739 1.267 . S
C738 O730 1.249 1_565 S
C738 O731 1.267 . S
C739 O736 1.249 . S
C739 O737 1.267 . S
Dy740 O744 2.398 . S
Dy740 O745 2.491 . S
Dy740 O746 2.403 . S
Dy740 O747 2.664 . S
Dy740 O751 2.326 . S
Dy740 O755 2.310 . S
Dy740 O756 2.351 . S
C741 O752 1.185 . S
C741 O753 1.355 . S
C742 O744 1.185 . S
C742 O745 1.355 . S
Dy743 O747 2.310 . S
Dy743 O750 2.351 . S
Dy743 O752 2.398 . S
Dy743 O753 2.491 . S
Dy743 O754 2.403 . S
Dy743 O755 2.664 . S
Dy743 O757 2.326 . S
O744 Dy740 2.398 . S
O744 C742 1.185 . S
O745 Dy740 2.491 . S
O745 C742 1.355 . S
O746 Dy740 2.403 . S
O746 C748 1.254 . S
O747 Dy740 2.664 . S
O747 Dy743 2.310 . S
O747 C748 1.268 . S
C748 O746 1.254 . S
C748 O747 1.268 . S
C749 O754 1.254 . S
C749 O755 1.268 . S
O750 Dy743 2.351 . S
O750 C758 1.249 . S
O751 Dy740 2.326 . S
O751 C758 1.267 . S
O752 C741 1.185 . S
O752 Dy743 2.398 . S
O753 C741 1.355 . S
O753 Dy743 2.491 . S
O754 Dy743 2.403 . S
O754 C749 1.254 . S
O755 Dy740 2.310 . S
O755 Dy743 2.664 . S
O755 C749 1.268 . S
O756 Dy740 2.351 . S
O756 C759 1.249 . S
O757 Dy743 2.326 . S
O757 C759 1.267 . S
C758 O750 1.249 . S
C758 O751 1.267 . S
C759 O756 1.249 . S
C759 O757 1.267 . S
Dy760 O764 2.398 . S
Dy760 O765 2.491 . S
Dy760 O766 2.403 1_545 S
Dy760 O767 2.664 1_545 S
Dy760 O771 2.326 . S
Dy760 O775 2.310 . S
Dy760 O776 2.351 1_545 S
C761 O772 1.185 . S
C761 O773 1.355 . S
C762 O764 1.185 . S
C762 O765 1.355 . S
Dy763 O767 2.310 . S
Dy763 O770 2.351 1_565 S
Dy763 O772 2.398 . S
Dy763 O773 2.491 . S
Dy763 O774 2.403 . S
Dy763 O775 2.664 1_565 S
Dy763 O777 2.326 . S
O764 Dy760 2.398 . S
O764 C762 1.185 . S
O765 Dy760 2.491 . S
O765 C762 1.355 . S
O766 Dy760 2.403 1_565 S
O766 C768 1.254 . S
O767 Dy760 2.664 1_565 S
O767 Dy763 2.310 . S
O767 C768 1.268 . S
C768 O766 1.254 . S
C768 O767 1.268 . S
C769 O774 1.254 1_545 S
C769 O775 1.268 . S
O770 Dy763 2.351 1_545 S
O770 C778 1.249 . S
O771 Dy760 2.326 . S
O771 C778 1.267 . S
O772 C761 1.185 . S
O772 Dy763 2.398 . S
O773 C761 1.355 . S
O773 Dy763 2.491 . S
O774 Dy763 2.403 . S
O774 C769 1.254 1_565 S
O775 Dy760 2.310 . S
O775 Dy763 2.664 1_545 S
O775 C769 1.268 . S
O776 Dy760 2.351 1_565 S
O776 C779 1.249 . S
O777 Dy763 2.326 . S
O777 C779 1.267 . S
C778 O770 1.249 . S
C778 O771 1.267 . S
C779 O776 1.249 . S
C779 O777 1.267 . S
Dy780 O784 2.398 . S
Dy780 O785 2.491 . S
Dy780 O786 2.403 . S
Dy780 O787 2.664 . S
Dy780 O791 2.326 . S
Dy780 O795 2.310 . S
Dy780 O796 2.351 . S
C781 O792 1.185 . S
C781 O793 1.355 . S
C782 O784 1.185 . S
C782 O785 1.355 . S
Dy783 O787 2.310 . S
Dy783 O790 2.351 . S
Dy783 O792 2.398 . S
Dy783 O793 2.491 . S
Dy783 O794 2.403 . S
Dy783 O795 2.664 . S
Dy783 O797 2.326 . S
O784 Dy780 2.398 . S
O784 C782 1.185 . S
O785 Dy780 2.491 . S
O785 C782 1.355 . S
O786 Dy780 2.403 . S
O786 C788 1.254 . S
O787 Dy780 2.664 . S
O787 Dy783 2.310 . S
O787 C788 1.268 . S
C788 O786 1.254 . S
C788 O787 1.268 . S
C789 O794 1.254 . S
C789 O795 1.268 . S
O790 Dy783 2.351 . S
O790 C798 1.249 . S
O791 Dy780 2.326 . S
O791 C798 1.267 . S
O792 C781 1.185 . S
O792 Dy783 2.398 . S
O793 C781 1.355 . S
O793 Dy783 2.491 . S
O794 Dy783 2.403 . S
O794 C789 1.254 . S
O795 Dy780 2.310 . S
O795 Dy783 2.664 . S
O795 C789 1.268 . S
O796 Dy780 2.351 . S
O796 C799 1.249 . S
O797 Dy783 2.326 . S
O797 C799 1.267 . S
C798 O790 1.249 . S
C798 O791 1.267 . S
C799 O796 1.249 . S
C799 O797 1.267 . S
Dy800 O804 2.398 . S
Dy800 O805 2.491 . S
Dy800 O806 2.403 1_554 S
Dy800 O807 2.664 1_554 S
Dy800 O811 2.326 . S
Dy800 O815 2.310 . S
Dy800 O816 2.351 1_554 S
C801 O812 1.185 . S
C801 O813 1.355 . S
C802 O804 1.185 . S
C802 O805 1.355 . S
Dy803 O807 2.310 . S
Dy803 O810 2.351 . S
Dy803 O812 2.398 . S
Dy803 O813 2.491 . S
Dy803 O814 2.403 . S
Dy803 O815 2.664 1_556 S
Dy803 O817 2.326 . S
O804 Dy800 2.398 . S
O804 C802 1.185 . S
O805 Dy800 2.491 . S
O805 C802 1.355 . S
O806 Dy800 2.403 1_556 S
O806 C808 1.254 . S
O807 Dy800 2.664 1_556 S
O807 Dy803 2.310 . S
O807 C808 1.268 . S
C808 O806 1.254 . S
C808 O807 1.268 . S
C809 O814 1.254 1_554 S
C809 O815 1.268 . S
O810 Dy803 2.351 . S
O810 C818 1.249 1_556 S
O811 Dy800 2.326 . S
O811 C818 1.267 . S
O812 C801 1.185 . S
O812 Dy803 2.398 . S
O813 C801 1.355 . S
O813 Dy803 2.491 . S
O814 Dy803 2.403 . S
O814 C809 1.254 1_556 S
O815 Dy800 2.310 . S
O815 Dy803 2.664 1_554 S
O815 C809 1.268 . S
O816 Dy800 2.351 1_556 S
O816 C819 1.249 . S
O817 Dy803 2.326 . S
O817 C819 1.267 . S
C818 O810 1.249 1_554 S
C818 O811 1.267 . S
C819 O816 1.249 . S
C819 O817 1.267 . S
Dy820 O824 2.398 . S
Dy820 O825 2.491 . S
Dy820 O826 2.403 1_554 S
Dy820 O827 2.664 1_554 S
Dy820 O831 2.326 . S
Dy820 O835 2.310 . S
Dy820 O836 2.351 1_554 S
C821 O832 1.185 . S
C821 O833 1.355 . S
C822 O824 1.185 . S
C822 O825 1.355 . S
Dy823 O827 2.310 1_554 S
Dy823 O830 2.351 . S
Dy823 O832 2.398 1_554 S
Dy823 O833 2.491 1_554 S
Dy823 O834 2.403 . S
Dy823 O835 2.664 . S
Dy823 O837 2.326 1_554 S
O824 Dy820 2.398 . S
O824 C822 1.185 . S
O825 Dy820 2.491 . S
O825 C822 1.355 . S
O826 Dy820 2.403 1_556 S
O826 C828 1.254 . S
O827 Dy820 2.664 1_556 S
O827 Dy823 2.310 1_556 S
O827 C828 1.268 . S
C828 O826 1.254 . S
C828 O827 1.268 . S
C829 O834 1.254 . S
C829 O835 1.268 . S
O830 Dy823 2.351 . S
O830 C838 1.249 . S
O831 Dy820 2.326 . S
O831 C838 1.267 . S
O832 C821 1.185 . S
O832 Dy823 2.398 1_556 S
O833 C821 1.355 . S
O833 Dy823 2.491 1_556 S
O834 Dy823 2.403 . S
O834 C829 1.254 . S
O835 Dy820 2.310 . S
O835 Dy823 2.664 . S
O835 C829 1.268 . S
O836 Dy820 2.351 1_556 S
O836 C839 1.249 . S
O837 Dy823 2.326 1_556 S
O837 C839 1.267 . S
C838 O830 1.249 . S
C838 O831 1.267 . S
C839 O836 1.249 . S
C839 O837 1.267 . S
Dy840 O844 2.398 . S
Dy840 O845 2.491 . S
Dy840 O846 2.403 . S
Dy840 O847 2.664 . S
Dy840 O851 2.326 . S
Dy840 O855 2.310 . S
Dy840 O856 2.351 . S
C841 O852 1.185 . S
C841 O853 1.355 . S
C842 O844 1.185 . S
C842 O845 1.355 . S
Dy843 O847 2.310 . S
Dy843 O850 2.351 . S
Dy843 O852 2.398 . S
Dy843 O853 2.491 . S
Dy843 O854 2.403 . S
Dy843 O855 2.664 . S
Dy843 O857 2.326 . S
O844 Dy840 2.398 . S
O844 C842 1.185 . S
O845 Dy840 2.491 . S
O845 C842 1.355 . S
O846 Dy840 2.403 . S
O846 C848 1.254 . S
O847 Dy840 2.664 . S
O847 Dy843 2.310 . S
O847 C848 1.268 . S
C848 O846 1.254 . S
C848 O847 1.268 . S
C849 O854 1.254 . S
C849 O855 1.268 . S
O850 Dy843 2.351 . S
O850 C858 1.249 . S
O851 Dy840 2.326 . S
O851 C858 1.267 . S
O852 C841 1.185 . S
O852 Dy843 2.398 . S
O853 C841 1.355 . S
O853 Dy843 2.491 . S
O854 Dy843 2.403 . S
O854 C849 1.254 . S
O855 Dy840 2.310 . S
O855 Dy843 2.664 . S
O855 C849 1.268 . S
O856 Dy840 2.351 . S
O856 C859 1.249 . S
O857 Dy843 2.326 . S
O857 C859 1.267 . S
C858 O850 1.249 . S
C858 O851 1.267 . S
C859 O856 1.249 . S
C859 O857 1.267 . S
Dy860 O864 2.398 . S
Dy860 O865 2.491 . S
Dy860 O866 2.403 . S
Dy860 O867 2.664 . S
Dy860 O871 2.326 . S
Dy860 O875 2.310 . S
Dy860 O876 2.351 . S
C861 O872 1.185 . S
C861 O873 1.355 . S
C862 O864 1.185 . S
C862 O865 1.355 . S
Dy863 O867 2.310 . S
Dy863 O870 2.351 . S
Dy863 O872 2.398 . S
Dy863 O873 2.491 . S
Dy863 O874 2.403 . S
Dy863 O875 2.664 . S
Dy863 O877 2.326 . S
O864 Dy860 2.398 . S
O864 C862 1.185 . S
O865 Dy860 2.491 . S
O865 C862 1.355 . S
O866 Dy860 2.403 . S
O866 C868 1.254 . S
O867 Dy860 2.664 . S
O867 Dy863 2.310 . S
O867 C868 1.268 . S
C868 O866 1.254 . S
C868 O867 1.268 . S
C869 O874 1.254 . S
C869 O875 1.268 . S
O870 Dy863 2.351 . S
O870 C878 1.249 . S
O871 Dy860 2.326 . S
O871 C878 1.267 . S
O872 C861 1.185 . S
O872 Dy863 2.398 . S
O873 C861 1.355 . S
O873 Dy863 2.491 . S
O874 Dy863 2.403 . S
O874 C869 1.254 . S
O875 Dy860 2.310 . S
O875 Dy863 2.664 . S
O875 C869 1.268 . S
O876 Dy860 2.351 . S
O876 C879 1.249 . S
O877 Dy863 2.326 . S
O877 C879 1.267 . S
C878 O870 1.249 . S
C878 O871 1.267 . S
C879 O876 1.249 . S
C879 O877 1.267 . S
Dy880 O884 2.398 . S
Dy880 O885 2.491 . S
Dy880 O886 2.403 . S
Dy880 O887 2.664 . S
Dy880 O891 2.326 . S
Dy880 O895 2.310 . S
Dy880 O896 2.351 . S
C881 O892 1.185 . S
C881 O893 1.355 . S
C882 O884 1.185 . S
C882 O885 1.355 . S
Dy883 O887 2.310 . S
Dy883 O890 2.351 . S
Dy883 O892 2.398 . S
Dy883 O893 2.491 . S
Dy883 O894 2.403 . S
Dy883 O895 2.664 . S
Dy883 O897 2.326 . S
O884 Dy880 2.398 . S
O884 C882 1.185 . S
O885 Dy880 2.491 . S
O885 C882 1.355 . S
O886 Dy880 2.403 . S
O886 C888 1.254 . S
O887 Dy880 2.664 . S
O887 Dy883 2.310 . S
O887 C888 1.268 . S
C888 O886 1.254 . S
C888 O887 1.268 . S
C889 O894 1.254 . S
C889 O895 1.268 . S
O890 Dy883 2.351 . S
O890 C898 1.249 . S
O891 Dy880 2.326 . S
O891 C898 1.267 . S
O892 C881 1.185 . S
O892 Dy883 2.398 . S
O893 C881 1.355 . S
O893 Dy883 2.491 . S
O894 Dy883 2.403 . S
O894 C889 1.254 . S
O895 Dy880 2.310 . S
O895 Dy883 2.664 . S
O895 C889 1.268 . S
O896 Dy880 2.351 . S
O896 C899 1.249 . S
O897 Dy883 2.326 . S
O897 C899 1.267 . S
C898 O890 1.249 . S
C898 O891 1.267 . S
C899 O896 1.249 . S
C899 O897 1.267 . S
Dy900 O904 2.398 . S
Dy900 O905 2.491 . S
Dy900 O906 2.403 . S
Dy900 O907 2.664 . S
Dy900 O911 2.326 . S
Dy900 O915 2.310 . S
Dy900 O916 2.351 . S
C901 O912 1.185 . S
C901 O913 1.355 . S
C902 O904 1.185 . S
C902 O905 1.355 . S
Dy903 O907 2.310 . S
Dy903 O910 2.351 . S
Dy903 O912 2.398 . S
Dy903 O913 2.491 . S
Dy903 O914 2.403 . S
Dy903 O915 2.664 . S
Dy903 O917 2.326 . S
O904 Dy900 2.398 . S
O904 C902 1.185 . S
O905 Dy900 2.491 . S
O905 C902 1.355 . S
O906 Dy900 2.403 . S
O906 C908 1.254 . S
O907 Dy900 2.664 . S
O907 Dy903 2.310 . S
O907 C908 1.268 . S
C908 O906 1.254 . S
C908 O907 1.268 . S
C909 O914 1.254 . S
C909 O915 1.268 . S
O910 Dy903 2.351 . S
O910 C918 1.249 . S
O911 Dy900 2.326 . S
O911 C918 1.267 . S
O912 C901 1.185 . S
O912 Dy903 2.398 . S
O913 C901 1.355 . S
O913 Dy903 2.491 . S
O914 Dy903 2.403 . S
O914 C909 1.254 . S
O915 Dy900 2.310 . S
O915 Dy903 2.664 . S
O915 C909 1.268 . S
O916 Dy900 2.351 . S
O916 C919 1.249 . S
O917 Dy903 2.326 . S
O917 C919 1.267 . S
C918 O910 1.249 . S
C918 O911 1.267 . S
C919 O916 1.249 . S
C919 O917 1.267 . S
Dy920 O924 2.398 . S
Dy920 O925 2.491 . S
Dy920 O926 2.403 . S
Dy920 O927 2.664 . S
Dy920 O931 2.326 . S
Dy920 O935 2.310 . S
Dy920 O936 2.351 . S
C921 O932 1.185 . S
C921 O933 1.355 . S
C922 O924 1.185 . S
C922 O925 1.355 . S
Dy923 O927 2.310 . S
Dy923 O930 2.351 . S
Dy923 O932 2.398 . S
Dy923 O933 2.491 . S
Dy923 O934 2.403 . S
Dy923 O935 2.664 . S
Dy923 O937 2.326 . S
O924 Dy920 2.398 . S
O924 C922 1.185 . S
O925 Dy920 2.491 . S
O925 C922 1.355 . S
O926 Dy920 2.403 . S
O926 C928 1.254 . S
O927 Dy920 2.664 . S
O927 Dy923 2.310 . S
O927 C928 1.268 . S
C928 O926 1.254 . S
C928 O927 1.268 . S
C929 O934 1.254 . S
C929 O935 1.268 . S
O930 Dy923 2.351 . S
O930 C938 1.249 . S
O931 Dy920 2.326 . S
O931 C938 1.267 . S
O932 C921 1.185 . S
O932 Dy923 2.398 . S
O933 C921 1.355 . S
O933 Dy923 2.491 . S
O934 Dy923 2.403 . S
O934 C929 1.254 . S
O935 Dy920 2.310 . S
O935 Dy923 2.664 . S
O935 C929 1.268 . S
O936 Dy920 2.351 . S
O936 C939 1.249 . S
O937 Dy923 2.326 . S
O937 C939 1.267 . S
C938 O930 1.249 . S
C938 O931 1.267 . S
C939 O936 1.249 . S
C939 O937 1.267 . S
Dy940 O944 2.398 . S
Dy940 O945 2.491 . S
Dy940 O946 2.403 . S
Dy940 O947 2.664 . S
Dy940 O951 2.326 . S
Dy940 O955 2.310 . S
Dy940 O956 2.351 . S
C941 O952 1.185 . S
C941 O953 1.355 . S
C942 O944 1.185 . S
C942 O945 1.355 . S
Dy943 O947 2.310 . S
Dy943 O950 2.351 . S
Dy943 O952 2.398 . S
Dy943 O953 2.491 . S
Dy943 O954 2.403 . S
Dy943 O955 2.664 . S
Dy943 O957 2.326 . S
O944 Dy940 2.398 . S
O944 C942 1.185 . S
O945 Dy940 2.491 . S
O945 C942 1.355 . S
O946 Dy940 2.403 . S
O946 C948 1.254 . S
O947 Dy940 2.664 . S
O947 Dy943 2.310 . S
O947 C948 1.268 . S
C948 O946 1.254 . S
C948 O947 1.268 . S
C949 O954 1.254 . S
C949 O955 1.268 . S
O950 Dy943 2.351 . S
O950 C958 1.249 . S
O951 Dy940 2.326 . S
O951 C958 1.267 . S
O952 C941 1.185 . S
O952 Dy943 2.398 . S
O953 C941 1.355 . S
O953 Dy943 2.491 . S
O954 Dy943 2.403 . S
O954 C949 1.254 . S
O955 Dy940 2.310 . S
O955 Dy943 2.664 . S
O955 C949 1.268 . S
O956 Dy940 2.351 . S
O956 C959 1.249 . S
O957 Dy943 2.326 . S
O957 C959 1.267 . S
C958 O950 1.249 . S
C958 O951 1.267 . S
C959 O956 1.249 . S
C959 O957 1.267 . S
Dy960 O964 2.398 . S
Dy960 O965 2.491 . S
Dy960 O966 2.403 . S
Dy960 O967 2.664 . S
Dy960 O971 2.326 . S
Dy960 O975 2.310 . S
Dy960 O976 2.351 . S
C961 O972 1.185 . S
C961 O973 1.355 . S
C962 O964 1.185 . S
C962 O965 1.355 . S
Dy963 O967 2.310 . S
Dy963 O970 2.351 . S
Dy963 O972 2.398 . S
Dy963 O973 2.491 . S
Dy963 O974 2.403 . S
Dy963 O975 2.664 . S
Dy963 O977 2.326 . S
O964 Dy960 2.398 . S
O964 C962 1.185 . S
O965 Dy960 2.491 . S
O965 C962 1.355 . S
O966 Dy960 2.403 . S
O966 C968 1.254 . S
O967 Dy960 2.664 . S
O967 Dy963 2.310 . S
O967 C968 1.268 . S
C968 O966 1.254 . S
C968 O967 1.268 . S
C969 O974 1.254 . S
C969 O975 1.268 . S
O970 Dy963 2.351 . S
O970 C978 1.249 . S
O971 Dy960 2.326 . S
O971 C978 1.267 . S
O972 C961 1.185 . S
O972 Dy963 2.398 . S
O973 C961 1.355 . S
O973 Dy963 2.491 . S
O974 Dy963 2.403 . S
O974 C969 1.254 . S
O975 Dy960 2.310 . S
O975 Dy963 2.664 . S
O975 C969 1.268 . S
O976 Dy960 2.351 . S
O976 C979 1.249 . S
O977 Dy963 2.326 . S
O977 C979 1.267 . S
C978 O970 1.249 . S
C978 O971 1.267 . S
C979 O976 1.249 . S
C979 O977 1.267 . S
Dy980 O984 2.398 . S
Dy980 O985 2.491 . S
Dy980 O986 2.403 . S
Dy980 O987 2.664 . S
Dy980 O991 2.326 . S
Dy980 O995 2.310 . S
Dy980 O996 2.351 . S
C981 O992 1.185 . S
C981 O993 1.355 . S
C982 O984 1.185 . S
C982 O985 1.355 . S
Dy983 O987 2.310 . S
Dy983 O990 2.351 . S
Dy983 O992 2.398 . S
Dy983 O993 2.491 . S
Dy983 O994 2.403 . S
Dy983 O995 2.664 . S
Dy983 O997 2.326 . S
O984 Dy980 2.398 . S
O984 C982 1.185 . S
O985 Dy980 2.491 . S
O985 C982 1.355 . S
O986 Dy980 2.403 . S
O986 C988 1.254 . S
O987 Dy980 2.664 . S
O987 Dy983 2.310 . S
O987 C988 1.268 . S
C988 O986 1.254 . S
C988 O987 1.268 . S
C989 O994 1.254 . S
C989 O995 1.268 . S
O990 Dy983 2.351 . S
O990 C998 1.249 . S
O991 Dy980 2.326 . S
O991 C998 1.267 . S
O992 C981 1.185 . S
O992 Dy983 2.398 . S
O993 C981 1.355 . S
O993 Dy983 2.491 . S
O994 Dy983 2.403 . S
O994 C989 1.254 . S
O995 Dy980 2.310 . S
O995 Dy983 2.664 . S
O995 C989 1.268 . S
O996 Dy980 2.351 . S
O996 C999 1.249 . S
O997 Dy983 2.326 . S
O997 C999 1.267 . S
C998 O990 1.249 . S
C998 O991 1.267 . S
C999 O996 1.249 . S
C999 O997 1.267 . S
Dy1000 O1004 2.398 . S
Dy1000 O1005 2.491 . S
Dy1000 O1006 2.403 1_455 S
Dy1000 O1007 2.664 1_455 S
Dy1000 O1011 2.326 . S
Dy1000 O1015 2.310 . S
Dy1000 O1016 2.351 1_455 S
C1001 O1012 1.185 . S
C1001 O1013 1.355 . S
C1002 O1004 1.185 . S
C1002 O1005 1.355 . S
Dy1003 O1007 2.310 . S
Dy1003 O1010 2.351 1_655 S
Dy1003 O1012 2.398 . S
Dy1003 O1013 2.491 . S
Dy1003 O1014 2.403 1_655 S
Dy1003 O1015 2.664 1_655 S
Dy1003 O1017 2.326 . S
O1004 Dy1000 2.398 . S
O1004 C1002 1.185 . S
O1005 Dy1000 2.491 . S
O1005 C1002 1.355 . S
O1006 Dy1000 2.403 1_655 S
O1006 C1008 1.254 . S
O1007 Dy1000 2.664 1_655 S
O1007 Dy1003 2.310 . S
O1007 C1008 1.268 . S
C1008 O1006 1.254 . S
C1008 O1007 1.268 . S
C1009 O1014 1.254 . S
C1009 O1015 1.268 . S
O1010 Dy1003 2.351 1_455 S
O1010 C1018 1.249 . S
O1011 Dy1000 2.326 . S
O1011 C1018 1.267 . S
O1012 C1001 1.185 . S
O1012 Dy1003 2.398 . S
O1013 C1001 1.355 . S
O1013 Dy1003 2.491 . S
O1014 Dy1003 2.403 1_455 S
O1014 C1009 1.254 . S
O1015 Dy1000 2.310 . S
O1015 Dy1003 2.664 1_455 S
O1015 C1009 1.268 . S
O1016 Dy1000 2.351 1_655 S
O1016 C1019 1.249 . S
O1017 Dy1003 2.326 . S
O1017 C1019 1.267 . S
C1018 O1010 1.249 . S
C1018 O1011 1.267 . S
C1019 O1016 1.249 . S
C1019 O1017 1.267 . S
Dy1020 O1024 2.398 . S
Dy1020 O1025 2.491 . S
Dy1020 O1026 2.403 . S
Dy1020 O1027 2.664 . S
Dy1020 O1031 2.326 . S
Dy1020 O1035 2.310 . S
Dy1020 O1036 2.351 . S
C1021 O1032 1.185 . S
C1021 O1033 1.355 . S
C1022 O1024 1.185 . S
C1022 O1025 1.355 . S
Dy1023 O1027 2.310 . S
Dy1023 O1030 2.351 . S
Dy1023 O1032 2.398 . S
Dy1023 O1033 2.491 . S
Dy1023 O1034 2.403 . S
Dy1023 O1035 2.664 . S
Dy1023 O1037 2.326 . S
O1024 Dy1020 2.398 . S
O1024 C1022 1.185 . S
O1025 Dy1020 2.491 . S
O1025 C1022 1.355 . S
O1026 Dy1020 2.403 . S
O1026 C1028 1.254 . S
O1027 Dy1020 2.664 . S
O1027 Dy1023 2.310 . S
O1027 C1028 1.268 . S
C1028 O1026 1.254 . S
C1028 O1027 1.268 . S
C1029 O1034 1.254 . S
C1029 O1035 1.268 . S
O1030 Dy1023 2.351 . S
O1030 C1038 1.249 . S
O1031 Dy1020 2.326 . S
O1031 C1038 1.267 . S
O1032 C1021 1.185 . S
O1032 Dy1023 2.398 . S
O1033 C1021 1.355 . S
O1033 Dy1023 2.491 . S
O1034 Dy1023 2.403 . S
O1034 C1029 1.254 . S
O1035 Dy1020 2.310 . S
O1035 Dy1023 2.664 . S
O1035 C1029 1.268 . S
O1036 Dy1020 2.351 . S
O1036 C1039 1.249 . S
O1037 Dy1023 2.326 . S
O1037 C1039 1.267 . S
C1038 O1030 1.249 . S
C1038 O1031 1.267 . S
C1039 O1036 1.249 . S
C1039 O1037 1.267 . S
Dy1040 O1044 2.398 . S
Dy1040 O1045 2.491 . S
Dy1040 O1046 2.403 . S
Dy1040 O1047 2.664 . S
Dy1040 O1051 2.326 . S
Dy1040 O1055 2.310 . S
Dy1040 O1056 2.351 . S
C1041 O1052 1.185 . S
C1041 O1053 1.355 . S
C1042 O1044 1.185 . S
C1042 O1045 1.355 . S
Dy1043 O1047 2.310 . S
Dy1043 O1050 2.351 . S
Dy1043 O1052 2.398 . S
Dy1043 O1053 2.491 . S
Dy1043 O1054 2.403 . S
Dy1043 O1055 2.664 . S
Dy1043 O1057 2.326 . S
O1044 Dy1040 2.398 . S
O1044 C1042 1.185 . S
O1045 Dy1040 2.491 . S
O1045 C1042 1.355 . S
O1046 Dy1040 2.403 . S
O1046 C1048 1.254 . S
O1047 Dy1040 2.664 . S
O1047 Dy1043 2.310 . S
O1047 C1048 1.268 . S
C1048 O1046 1.254 . S
C1048 O1047 1.268 . S
C1049 O1054 1.254 . S
C1049 O1055 1.268 . S
O1050 Dy1043 2.351 . S
O1050 C1058 1.249 . S
O1051 Dy1040 2.326 . S
O1051 C1058 1.267 . S
O1052 C1041 1.185 . S
O1052 Dy1043 2.398 . S
O1053 C1041 1.355 . S
O1053 Dy1043 2.491 . S
O1054 Dy1043 2.403 . S
O1054 C1049 1.254 . S
O1055 Dy1040 2.310 . S
O1055 Dy1043 2.664 . S
O1055 C1049 1.268 . S
O1056 Dy1040 2.351 . S
O1056 C1059 1.249 . S
O1057 Dy1043 2.326 . S
O1057 C1059 1.267 . S
C1058 O1050 1.249 . S
C1058 O1051 1.267 . S
C1059 O1056 1.249 . S
C1059 O1057 1.267 . S
Dy1060 O1064 2.398 . S
Dy1060 O1065 2.491 . S
Dy1060 O1066 2.403 . S
Dy1060 O1067 2.664 . S
Dy1060 O1071 2.326 . S
Dy1060 O1075 2.310 . S
Dy1060 O1076 2.351 . S
C1061 O1072 1.185 . S
C1061 O1073 1.355 . S
C1062 O1064 1.185 . S
C1062 O1065 1.355 . S
Dy1063 O1067 2.310 . S
Dy1063 O1070 2.351 . S
Dy1063 O1072 2.398 . S
Dy1063 O1073 2.491 . S
Dy1063 O1074 2.403 . S
Dy1063 O1075 2.664 . S
Dy1063 O1077 2.326 . S
O1064 Dy1060 2.398 . S
O1064 C1062 1.185 . S
O1065 Dy1060 2.491 . S
O1065 C1062 1.355 . S
O1066 Dy1060 2.403 . S
O1066 C1068 1.254 . S
O1067 Dy1060 2.664 . S
O1067 Dy1063 2.310 . S
O1067 C1068 1.268 . S
C1068 O1066 1.254 . S
C1068 O1067 1.268 . S
C1069 O1074 1.254 . S
C1069 O1075 1.268 . S
O1070 Dy1063 2.351 . S
O1070 C1078 1.249 . S
O1071 Dy1060 2.326 . S
O1071 C1078 1.267 . S
O1072 C1061 1.185 . S
O1072 Dy1063 2.398 . S
O1073 C1061 1.355 . S
O1073 Dy1063 2.491 . S
O1074 Dy1063 2.403 . S
O1074 C1069 1.254 . S
O1075 Dy1060 2.310 . S
O1075 Dy1063 2.664 . S
O1075 C1069 1.268 . S
O1076 Dy1060 2.351 . S
O1076 C1079 1.249 . S
O1077 Dy1063 2.326 . S
O1077 C1079 1.267 . S
C1078 O1070 1.249 . S
C1078 O1071 1.267 . S
C1079 O1076 1.249 . S
C1079 O1077 1.267 . S
Dy1080 O1084 2.398 1_655 S
Dy1080 O1085 2.491 1_655 S
Dy1080 O1086 2.403 . S
Dy1080 O1087 2.664 . S
Dy1080 O1091 2.326 1_655 S
Dy1080 O1095 2.310 1_655 S
Dy1080 O1096 2.351 . S
C1081 O1092 1.185 . S
C1081 O1093 1.355 . S
C1082 O1084 1.185 . S
C1082 O1085 1.355 . S
Dy1083 O1087 2.310 . S
Dy1083 O1090 2.351 1_655 S
Dy1083 O1092 2.398 . S
Dy1083 O1093 2.491 . S
Dy1083 O1094 2.403 1_655 S
Dy1083 O1095 2.664 1_655 S
Dy1083 O1097 2.326 . S
O1084 Dy1080 2.398 1_455 S
O1084 C1082 1.185 . S
O1085 Dy1080 2.491 1_455 S
O1085 C1082 1.355 . S
O1086 Dy1080 2.403 . S
O1086 C1088 1.254 . S
O1087 Dy1080 2.664 . S
O1087 Dy1083 2.310 . S
O1087 C1088 1.268 . S
C1088 O1086 1.254 . S
C1088 O1087 1.268 . S
C1089 O1094 1.254 . S
C1089 O1095 1.268 . S
O1090 Dy1083 2.351 1_455 S
O1090 C1098 1.249 . S
O1091 Dy1080 2.326 1_455 S
O1091 C1098 1.267 . S
O1092 C1081 1.185 . S
O1092 Dy1083 2.398 . S
O1093 C1081 1.355 . S
O1093 Dy1083 2.491 . S
O1094 Dy1083 2.403 1_455 S
O1094 C1089 1.254 . S
O1095 Dy1080 2.310 1_455 S
O1095 Dy1083 2.664 1_455 S
O1095 C1089 1.268 . S
O1096 Dy1080 2.351 . S
O1096 C1099 1.249 . S
O1097 Dy1083 2.326 . S
O1097 C1099 1.267 . S
C1098 O1090 1.249 . S
C1098 O1091 1.267 . S
C1099 O1096 1.249 . S
C1099 O1097 1.267 . S
Dy1100 O1104 2.398 . S
Dy1100 O1105 2.491 . S
Dy1100 O1106 2.403 . S
Dy1100 O1107 2.664 . S
Dy1100 O1111 2.326 . S
Dy1100 O1115 2.310 . S
Dy1100 O1116 2.351 . S
C1101 O1112 1.185 . S
C1101 O1113 1.355 . S
C1102 O1104 1.185 . S
C1102 O1105 1.355 . S
Dy1103 O1107 2.310 . S
Dy1103 O1110 2.351 . S
Dy1103 O1112 2.398 . S
Dy1103 O1113 2.491 . S
Dy1103 O1114 2.403 . S
Dy1103 O1115 2.664 . S
Dy1103 O1117 2.326 . S
O1104 Dy1100 2.398 . S
O1104 C1102 1.185 . S
O1105 Dy1100 2.491 . S
O1105 C1102 1.355 . S
O1106 Dy1100 2.403 . S
O1106 C1108 1.254 . S
O1107 Dy1100 2.664 . S
O1107 Dy1103 2.310 . S
O1107 C1108 1.268 . S
C1108 O1106 1.254 . S
C1108 O1107 1.268 . S
C1109 O1114 1.254 . S
C1109 O1115 1.268 . S
O1110 Dy1103 2.351 . S
O1110 C1118 1.249 . S
O1111 Dy1100 2.326 . S
O1111 C1118 1.267 . S
O1112 C1101 1.185 . S
O1112 Dy1103 2.398 . S
O1113 C1101 1.355 . S
O1113 Dy1103 2.491 . S
O1114 Dy1103 2.403 . S
O1114 C1109 1.254 . S
O1115 Dy1100 2.310 . S
O1115 Dy1103 2.664 . S
O1115 C1109 1.268 . S
O1116 Dy1100 2.351 . S
O1116 C1119 1.249 . S
O1117 Dy1103 2.326 . S
O1117 C1119 1.267 . S
C1118 O1110 1.249 . S
C1118 O1111 1.267 . S
C1119 O1116 1.249 . S
C1119 O1117 1.267 . S
Dy1120 O1124 2.398 . S
Dy1120 O1125 2.491 . S
Dy1120 O1126 2.403 . S
Dy1120 O1127 2.664 . S
Dy1120 O1131 2.326 . S
Dy1120 O1135 2.310 . S
Dy1120 O1136 2.351 . S
C1121 O1132 1.185 . S
C1121 O1133 1.355 . S
C1122 O1124 1.185 . S
C1122 O1125 1.355 . S
Dy1123 O1127 2.310 . S
Dy1123 O1130 2.351 . S
Dy1123 O1132 2.398 . S
Dy1123 O1133 2.491 . S
Dy1123 O1134 2.403 . S
Dy1123 O1135 2.664 . S
Dy1123 O1137 2.326 . S
O1124 Dy1120 2.398 . S
O1124 C1122 1.185 . S
O1125 Dy1120 2.491 . S
O1125 C1122 1.355 . S
O1126 Dy1120 2.403 . S
O1126 C1128 1.254 . S
O1127 Dy1120 2.664 . S
O1127 Dy1123 2.310 . S
O1127 C1128 1.268 . S
C1128 O1126 1.254 . S
C1128 O1127 1.268 . S
C1129 O1134 1.254 . S
C1129 O1135 1.268 . S
O1130 Dy1123 2.351 . S
O1130 C1138 1.249 . S
O1131 Dy1120 2.326 . S
O1131 C1138 1.267 . S
O1132 C1121 1.185 . S
O1132 Dy1123 2.398 . S
O1133 C1121 1.355 . S
O1133 Dy1123 2.491 . S
O1134 Dy1123 2.403 . S
O1134 C1129 1.254 . S
O1135 Dy1120 2.310 . S
O1135 Dy1123 2.664 . S
O1135 C1129 1.268 . S
O1136 Dy1120 2.351 . S
O1136 C1139 1.249 . S
O1137 Dy1123 2.326 . S
O1137 C1139 1.267 . S
C1138 O1130 1.249 . S
C1138 O1131 1.267 . S
C1139 O1136 1.249 . S
C1139 O1137 1.267 . S
Dy1140 O1144 2.398 . S
Dy1140 O1145 2.491 . S
Dy1140 O1146 2.403 . S
Dy1140 O1147 2.664 . S
Dy1140 O1151 2.326 . S
Dy1140 O1155 2.310 . S
Dy1140 O1156 2.351 . S
C1141 O1152 1.185 . S
C1141 O1153 1.355 . S
C1142 O1144 1.185 . S
C1142 O1145 1.355 . S
Dy1143 O1147 2.310 . S
Dy1143 O1150 2.351 . S
Dy1143 O1152 2.398 . S
Dy1143 O1153 2.491 . S
Dy1143 O1154 2.403 . S
Dy1143 O1155 2.664 . S
Dy1143 O1157 2.326 . S
O1144 Dy1140 2.398 . S
O1144 C1142 1.185 . S
O1145 Dy1140 2.491 . S
O1145 C1142 1.355 . S
O1146 Dy1140 2.403 . S
O1146 C1148 1.254 . S
O1147 Dy1140 2.664 . S
O1147 Dy1143 2.310 . S
O1147 C1148 1.268 . S
C1148 O1146 1.254 . S
C1148 O1147 1.268 . S
C1149 O1154 1.254 . S
C1149 O1155 1.268 . S
O1150 Dy1143 2.351 . S
O1150 C1158 1.249 . S
O1151 Dy1140 2.326 . S
O1151 C1158 1.267 . S
O1152 C1141 1.185 . S
O1152 Dy1143 2.398 . S
O1153 C1141 1.355 . S
O1153 Dy1143 2.491 . S
O1154 Dy1143 2.403 . S
O1154 C1149 1.254 . S
O1155 Dy1140 2.310 . S
O1155 Dy1143 2.664 . S
O1155 C1149 1.268 . S
O1156 Dy1140 2.351 . S
O1156 C1159 1.249 . S
O1157 Dy1143 2.326 . S
O1157 C1159 1.267 . S
C1158 O1150 1.249 . S
C1158 O1151 1.267 . S
C1159 O1156 1.249 . S
C1159 O1157 1.267 . S
Dy1160 O1164 2.398 . S
Dy1160 O1165 2.491 . S
Dy1160 O1166 2.403 . S
Dy1160 O1167 2.664 . S
Dy1160 O1171 2.326 . S
Dy1160 O1175 2.310 . S
Dy1160 O1176 2.351 . S
C1161 O1172 1.185 . S
C1161 O1173 1.355 . S
C1162 O1164 1.185 . S
C1162 O1165 1.355 . S
Dy1163 O1167 2.310 . S
Dy1163 O1170 2.351 . S
Dy1163 O1172 2.398 . S
Dy1163 O1173 2.491 . S
Dy1163 O1174 2.403 . S
Dy1163 O1175 2.664 . S
Dy1163 O1177 2.326 . S
O1164 Dy1160 2.398 . S
O1164 C1162 1.185 . S
O1165 Dy1160 2.491 . S
O1165 C1162 1.355 . S
O1166 Dy1160 2.403 . S
O1166 C1168 1.254 . S
O1167 Dy1160 2.664 . S
O1167 Dy1163 2.310 . S
O1167 C1168 1.268 . S
C1168 O1166 1.254 . S
C1168 O1167 1.268 . S
C1169 O1174 1.254 . S
C1169 O1175 1.268 . S
O1170 Dy1163 2.351 . S
O1170 C1178 1.249 . S
O1171 Dy1160 2.326 . S
O1171 C1178 1.267 . S
O1172 C1161 1.185 . S
O1172 Dy1163 2.398 . S
O1173 C1161 1.355 . S
O1173 Dy1163 2.491 . S
O1174 Dy1163 2.403 . S
O1174 C1169 1.254 . S
O1175 Dy1160 2.310 . S
O1175 Dy1163 2.664 . S
O1175 C1169 1.268 . S
O1176 Dy1160 2.351 . S
O1176 C1179 1.249 . S
O1177 Dy1163 2.326 . S
O1177 C1179 1.267 . S
C1178 O1170 1.249 . S
C1178 O1171 1.267 . S
C1179 O1176 1.249 . S
C1179 O1177 1.267 . S
Dy1180 O1184 2.398 . S
Dy1180 O1185 2.491 . S
Dy1180 O1186 2.403 . S
Dy1180 O1187 2.664 . S
Dy1180 O1191 2.326 . S
Dy1180 O1195 2.310 . S
Dy1180 O1196 2.351 . S
C1181 O1192 1.185 . S
C1181 O1193 1.355 . S
C1182 O1184 1.185 . S
C1182 O1185 1.355 . S
Dy1183 O1187 2.310 . S
Dy1183 O1190 2.351 . S
Dy1183 O1192 2.398 . S
Dy1183 O1193 2.491 . S
Dy1183 O1194 2.403 . S
Dy1183 O1195 2.664 . S
Dy1183 O1197 2.326 . S
O1184 Dy1180 2.398 . S
O1184 C1182 1.185 . S
O1185 Dy1180 2.491 . S
O1185 C1182 1.355 . S
O1186 Dy1180 2.403 . S
O1186 C1188 1.254 . S
O1187 Dy1180 2.664 . S
O1187 Dy1183 2.310 . S
O1187 C1188 1.268 . S
C1188 O1186 1.254 . S
C1188 O1187 1.268 . S
C1189 O1194 1.254 . S
C1189 O1195 1.268 . S
O1190 Dy1183 2.351 . S
O1190 C1198 1.249 . S
O1191 Dy1180 2.326 . S
O1191 C1198 1.267 . S
O1192 C1181 1.185 . S
O1192 Dy1183 2.398 . S
O1193 C1181 1.355 . S
O1193 Dy1183 2.491 . S
O1194 Dy1183 2.403 . S
O1194 C1189 1.254 . S
O1195 Dy1180 2.310 . S
O1195 Dy1183 2.664 . S
O1195 C1189 1.268 . S
O1196 Dy1180 2.351 . S
O1196 C1199 1.249 . S
O1197 Dy1183 2.326 . S
O1197 C1199 1.267 . S
C1198 O1190 1.249 . S
C1198 O1191 1.267 . S
C1199 O1196 1.249 . S
C1199 O1197 1.267 . S
Dy1200 O1204 2.398 . S
Dy1200 O1205 2.491 . S
Dy1200 O1206 2.403 . S
Dy1200 O1207 2.664 . S
Dy1200 O1211 2.326 . S
Dy1200 O1215 2.310 . S
Dy1200 O1216 2.351 . S
C1201 O1212 1.185 . S
C1201 O1213 1.355 . S
C1202 O1204 1.185 . S
C1202 O1205 1.355 . S
Dy1203 O1207 2.310 . S
Dy1203 O1210 2.351 . S
Dy1203 O1212 2.398 . S
Dy1203 O1213 2.491 . S
Dy1203 O1214 2.403 . S
Dy1203 O1215 2.664 . S
Dy1203 O1217 2.326 . S
O1204 Dy1200 2.398 . S
O1204 C1202 1.185 . S
O1205 Dy1200 2.491 . S
O1205 C1202 1.355 . S
O1206 Dy1200 2.403 . S
O1206 C1208 1.254 . S
O1207 Dy1200 2.664 . S
O1207 Dy1203 2.310 . S
O1207 C1208 1.268 . S
C1208 O1206 1.254 . S
C1208 O1207 1.268 . S
C1209 O1214 1.254 . S
C1209 O1215 1.268 . S
O1210 Dy1203 2.351 . S
O1210 C1218 1.249 . S
O1211 Dy1200 2.326 . S
O1211 C1218 1.267 . S
O1212 C1201 1.185 . S
O1212 Dy1203 2.398 . S
O1213 C1201 1.355 . S
O1213 Dy1203 2.491 . S
O1214 Dy1203 2.403 . S
O1214 C1209 1.254 . S
O1215 Dy1200 2.310 . S
O1215 Dy1203 2.664 . S
O1215 C1209 1.268 . S
O1216 Dy1200 2.351 . S
O1216 C1219 1.249 . S
O1217 Dy1203 2.326 . S
O1217 C1219 1.267 . S
C1218 O1210 1.249 . S
C1218 O1211 1.267 . S
C1219 O1216 1.249 . S
C1219 O1217 1.267 . S
Dy1220 O1224 2.398 . S
Dy1220 O1225 2.491 . S
Dy1220 O1226 2.403 . S
Dy1220 O1227 2.664 . S
Dy1220 O1231 2.326 . S
Dy1220 O1235 2.310 . S
Dy1220 O1236 2.351 . S
C1221 O1232 1.185 . S
C1221 O1233 1.355 . S
C1222 O1224 1.185 . S
C1222 O1225 1.355 . S
Dy1223 O1227 2.310 . S
Dy1223 O1230 2.351 . S
Dy1223 O1232 2.398 . S
Dy1223 O1233 2.491 . S
Dy1223 O1234 2.403 . S
Dy1223 O1235 2.664 . S
Dy1223 O1237 2.326 . S
O1224 Dy1220 2.398 . S
O1224 C1222 1.185 . S
O1225 Dy1220 2.491 . S
O1225 C1222 1.355 . S
O1226 Dy1220 2.403 . S
O1226 C1228 1.254 . S
O1227 Dy1220 2.664 . S
O1227 Dy1223 2.310 . S
O1227 C1228 1.268 . S
C1228 O1226 1.254 . S
C1228 O1227 1.268 . S
C1229 O1234 1.254 . S
C1229 O1235 1.268 . S
O1230 Dy1223 2.351 . S
O1230 C1238 1.249 . S
O1231 Dy1220 2.326 . S
O1231 C1238 1.267 . S
O1232 C1221 1.185 . S
O1232 Dy1223 2.398 . S
O1233 C1221 1.355 . S
O1233 Dy1223 2.491 . S
O1234 Dy1223 2.403 . S
O1234 C1229 1.254 . S
O1235 Dy1220 2.310 . S
O1235 Dy1223 2.664 . S
O1235 C1229 1.268 . S
O1236 Dy1220 2.351 . S
O1236 C1239 1.249 . S
O1237 Dy1223 2.326 . S
O1237 C1239 1.267 . S
C1238 O1230 1.249 . S
C1238 O1231 1.267 . S
C1239 O1236 1.249 . S
C1239 O1237 1.267 . S
Dy1240 O1244 2.398 . S
Dy1240 O1245 2.491 . S
Dy1240 O1246 2.403 . S
Dy1240 O1247 2.664 . S
Dy1240 O1251 2.326 . S
Dy1240 O1255 2.310 . S
Dy1240 O1256 2.351 . S
C1241 O1252 1.185 . S
C1241 O1253 1.355 . S
C1242 O1244 1.185 . S
C1242 O1245 1.355 . S
Dy1243 O1247 2.310 . S
Dy1243 O1250 2.351 . S
Dy1243 O1252 2.398 . S
Dy1243 O1253 2.491 . S
Dy1243 O1254 2.403 . S
Dy1243 O1255 2.664 . S
Dy1243 O1257 2.326 . S
O1244 Dy1240 2.398 . S
O1244 C1242 1.185 . S
O1245 Dy1240 2.491 . S
O1245 C1242 1.355 . S
O1246 Dy1240 2.403 . S
O1246 C1248 1.254 . S
O1247 Dy1240 2.664 . S
O1247 Dy1243 2.310 . S
O1247 C1248 1.268 . S
C1248 O1246 1.254 . S
C1248 O1247 1.268 . S
C1249 O1254 1.254 . S
C1249 O1255 1.268 . S
O1250 Dy1243 2.351 . S
O1250 C1258 1.249 . S
O1251 Dy1240 2.326 . S
O1251 C1258 1.267 . S
O1252 C1241 1.185 . S
O1252 Dy1243 2.398 . S
O1253 C1241 1.355 . S
O1253 Dy1243 2.491 . S
O1254 Dy1243 2.403 . S
O1254 C1249 1.254 . S
O1255 Dy1240 2.310 . S
O1255 Dy1243 2.664 . S
O1255 C1249 1.268 . S
O1256 Dy1240 2.351 . S
O1256 C1259 1.249 . S
O1257 Dy1243 2.326 . S
O1257 C1259 1.267 . S
C1258 O1250 1.249 . S
C1258 O1251 1.267 . S
C1259 O1256 1.249 . S
C1259 O1257 1.267 . S
Dy1260 O1264 2.398 . S
Dy1260 O1265 2.491 . S
Dy1260 O1266 2.403 . S
Dy1260 O1267 2.664 . S
Dy1260 O1271 2.326 . S
Dy1260 O1275 2.310 . S
Dy1260 O1276 2.351 . S
C1261 O1272 1.185 . S
C1261 O1273 1.355 . S
C1262 O1264 1.185 . S
C1262 O1265 1.355 . S
Dy1263 O1267 2.310 . S
Dy1263 O1270 2.351 . S
Dy1263 O1272 2.398 . S
Dy1263 O1273 2.491 . S
Dy1263 O1274 2.403 . S
Dy1263 O1275 2.664 . S
Dy1263 O1277 2.326 . S
O1264 Dy1260 2.398 . S
O1264 C1262 1.185 . S
O1265 Dy1260 2.491 . S
O1265 C1262 1.355 . S
O1266 Dy1260 2.403 . S
O1266 C1268 1.254 . S
O1267 Dy1260 2.664 . S
O1267 Dy1263 2.310 . S
O1267 C1268 1.268 . S
C1268 O1266 1.254 . S
C1268 O1267 1.268 . S
C1269 O1274 1.254 . S
C1269 O1275 1.268 . S
O1270 Dy1263 2.351 . S
O1270 C1278 1.249 . S
O1271 Dy1260 2.326 . S
O1271 C1278 1.267 . S
O1272 C1261 1.185 . S
O1272 Dy1263 2.398 . S
O1273 C1261 1.355 . S
O1273 Dy1263 2.491 . S
O1274 Dy1263 2.403 . S
O1274 C1269 1.254 . S
O1275 Dy1260 2.310 . S
O1275 Dy1263 2.664 . S
O1275 C1269 1.268 . S
O1276 Dy1260 2.351 . S
O1276 C1279 1.249 . S
O1277 Dy1263 2.326 . S
O1277 C1279 1.267 . S
C1278 O1270 1.249 . S
C1278 O1271 1.267 . S
C1279 O1276 1.249 . S
C1279 O1277 1.267 . S
Dy1280 O1284 2.398 . S
Dy1280 O1285 2.491 . S
Dy1280 O1286 2.403 . S
Dy1280 O1287 2.664 . S
Dy1280 O1291 2.326 . S
Dy1280 O1295 2.310 . S
Dy1280 O1296 2.351 . S
C1281 O1292 1.185 . S
C1281 O1293 1.355 . S
C1282 O1284 1.185 . S
C1282 O1285 1.355 . S
Dy1283 O1287 2.310 . S
Dy1283 O1290 2.351 . S
Dy1283 O1292 2.398 . S
Dy1283 O1293 2.491 . S
Dy1283 O1294 2.403 . S
Dy1283 O1295 2.664 . S
Dy1283 O1297 2.326 . S
O1284 Dy1280 2.398 . S
O1284 C1282 1.185 . S
O1285 Dy1280 2.491 . S
O1285 C1282 1.355 . S
O1286 Dy1280 2.403 . S
O1286 C1288 1.254 . S
O1287 Dy1280 2.664 . S
O1287 Dy1283 2.310 . S
O1287 C1288 1.268 . S
C1288 O1286 1.254 . S
C1288 O1287 1.268 . S
C1289 O1294 1.254 . S
C1289 O1295 1.268 . S
O1290 Dy1283 2.351 . S
O1290 C1298 1.249 . S
O1291 Dy1280 2.326 . S
O1291 C1298 1.267 . S
O1292 C1281 1.185 . S
O1292 Dy1283 2.398 . S
O1293 C1281 1.355 . S
O1293 Dy1283 2.491 . S
O1294 Dy1283 2.403 . S
O1294 C1289 1.254 . S
O1295 Dy1280 2.310 . S
O1295 Dy1283 2.664 . S
O1295 C1289 1.268 . S
O1296 Dy1280 2.351 . S
O1296 C1299 1.249 . S
O1297 Dy1283 2.326 . S
O1297 C1299 1.267 . S
C1298 O1290 1.249 . S
C1298 O1291 1.267 . S
C1299 O1296 1.249 . S
C1299 O1297 1.267 . S
Dy1300 O1304 2.398 . S
Dy1300 O1305 2.491 . S
Dy1300 O1306 2.403 . S
Dy1300 O1307 2.664 . S
Dy1300 O1311 2.326 . S
Dy1300 O1315 2.310 . S
Dy1300 O1316 2.351 . S
C1301 O1312 1.185 . S
C1301 O1313 1.355 . S
C1302 O1304 1.185 . S
C1302 O1305 1.355 . S
Dy1303 O1307 2.310 . S
Dy1303 O1310 2.351 . S
Dy1303 O1312 2.398 . S
Dy1303 O1313 2.491 . S
Dy1303 O1314 2.403 . S
Dy1303 O1315 2.664 . S
Dy1303 O1317 2.326 . S
O1304 Dy1300 2.398 . S
O1304 C1302 1.185 . S
O1305 Dy1300 2.491 . S
O1305 C1302 1.355 . S
O1306 Dy1300 2.403 . S
O1306 C1308 1.254 . S
O1307 Dy1300 2.664 . S
O1307 Dy1303 2.310 . S
O1307 C1308 1.268 . S
C1308 O1306 1.254 . S
C1308 O1307 1.268 . S
C1309 O1314 1.254 . S
C1309 O1315 1.268 . S
O1310 Dy1303 2.351 . S
O1310 C1318 1.249 . S
O1311 Dy1300 2.326 . S
O1311 C1318 1.267 . S
O1312 C1301 1.185 . S
O1312 Dy1303 2.398 . S
O1313 C1301 1.355 . S
O1313 Dy1303 2.491 . S
O1314 Dy1303 2.403 . S
O1314 C1309 1.254 . S
O1315 Dy1300 2.310 . S
O1315 Dy1303 2.664 . S
O1315 C1309 1.268 . S
O1316 Dy1300 2.351 . S
O1316 C1319 1.249 . S
O1317 Dy1303 2.326 . S
O1317 C1319 1.267 . S
C1318 O1310 1.249 . S
C1318 O1311 1.267 . S
C1319 O1316 1.249 . S
C1319 O1317 1.267 . S
Dy1320 O1324 2.398 . S
Dy1320 O1325 2.491 . S
Dy1320 O1326 2.403 . S
Dy1320 O1327 2.664 . S
Dy1320 O1331 2.326 . S
Dy1320 O1335 2.310 . S
Dy1320 O1336 2.351 . S
C1321 O1332 1.185 . S
C1321 O1333 1.355 . S
C1322 O1324 1.185 . S
C1322 O1325 1.355 . S
Dy1323 O1327 2.310 . S
Dy1323 O1330 2.351 . S
Dy1323 O1332 2.398 . S
Dy1323 O1333 2.491 . S
Dy1323 O1334 2.403 . S
Dy1323 O1335 2.664 . S
Dy1323 O1337 2.326 . S
O1324 Dy1320 2.398 . S
O1324 C1322 1.185 . S
O1325 Dy1320 2.491 . S
O1325 C1322 1.355 . S
O1326 Dy1320 2.403 . S
O1326 C1328 1.254 . S
O1327 Dy1320 2.664 . S
O1327 Dy1323 2.310 . S
O1327 C1328 1.268 . S
C1328 O1326 1.254 . S
C1328 O1327 1.268 . S
C1329 O1334 1.254 . S
C1329 O1335 1.268 . S
O1330 Dy1323 2.351 . S
O1330 C1338 1.249 . S
O1331 Dy1320 2.326 . S
O1331 C1338 1.267 . S
O1332 C1321 1.185 . S
O1332 Dy1323 2.398 . S
O1333 C1321 1.355 . S
O1333 Dy1323 2.491 . S
O1334 Dy1323 2.403 . S
O1334 C1329 1.254 . S
O1335 Dy1320 2.310 . S
O1335 Dy1323 2.664 . S
O1335 C1329 1.268 . S
O1336 Dy1320 2.351 . S
O1336 C1339 1.249 . S
O1337 Dy1323 2.326 . S
O1337 C1339 1.267 . S
C1338 O1330 1.249 . S
C1338 O1331 1.267 . S
C1339 O1336 1.249 . S
C1339 O1337 1.267 . S
Dy1340 O1344 2.398 . S
Dy1340 O1345 2.491 . S
Dy1340 O1346 2.403 . S
Dy1340 O1347 2.664 1_556 S
Dy1340 O1351 2.326 . S
Dy1340 O1355 2.310 . S
Dy1340 O1356 2.351 1_556 S
C1341 O1352 1.185 . S
C1341 O1353 1.355 . S
C1342 O1344 1.185 . S
C1342 O1345 1.355 . S
Dy1343 O1347 2.310 . S
Dy1343 O1350 2.351 1_554 S
Dy1343 O1352 2.398 . S
Dy1343 O1353 2.491 . S
Dy1343 O1354 2.403 1_554 S
Dy1343 O1355 2.664 1_554 S
Dy1343 O1357 2.326 . S
O1344 Dy1340 2.398 . S
O1344 C1342 1.185 . S
O1345 Dy1340 2.491 . S
O1345 C1342 1.355 . S
O1346 Dy1340 2.403 . S
O1346 C1348 1.254 1_556 S
O1347 Dy1340 2.664 1_554 S
O1347 Dy1343 2.310 . S
O1347 C1348 1.268 . S
C1348 O1346 1.254 1_554 S
C1348 O1347 1.268 . S
C1349 O1354 1.254 . S
C1349 O1355 1.268 . S
O1350 Dy1343 2.351 1_556 S
O1350 C1358 1.249 . S
O1351 Dy1340 2.326 . S
O1351 C1358 1.267 . S
O1352 C1341 1.185 . S
O1352 Dy1343 2.398 . S
O1353 C1341 1.355 . S
O1353 Dy1343 2.491 . S
O1354 Dy1343 2.403 1_556 S
O1354 C1349 1.254 . S
O1355 Dy1340 2.310 . S
O1355 Dy1343 2.664 1_556 S
O1355 C1349 1.268 . S
O1356 Dy1340 2.351 1_554 S
O1356 C1359 1.249 . S
O1357 Dy1343 2.326 . S
O1357 C1359 1.267 . S
C1358 O1350 1.249 . S
C1358 O1351 1.267 . S
C1359 O1356 1.249 . S
C1359 O1357 1.267 . S
Dy1360 O1364 2.398 . S
Dy1360 O1365 2.491 . S
Dy1360 O1366 2.403 . S
Dy1360 O1367 2.664 . S
Dy1360 O1371 2.326 . S
Dy1360 O1375 2.310 . S
Dy1360 O1376 2.351 . S
C1361 O1372 1.185 . S
C1361 O1373 1.355 . S
C1362 O1364 1.185 . S
C1362 O1365 1.355 . S
Dy1363 O1367 2.310 . S
Dy1363 O1370 2.351 . S
Dy1363 O1372 2.398 . S
Dy1363 O1373 2.491 . S
Dy1363 O1374 2.403 . S
Dy1363 O1375 2.664 . S
Dy1363 O1377 2.326 . S
O1364 Dy1360 2.398 . S
O1364 C1362 1.185 . S
O1365 Dy1360 2.491 . S
O1365 C1362 1.355 . S
O1366 Dy1360 2.403 . S
O1366 C1368 1.254 . S
O1367 Dy1360 2.664 . S
O1367 Dy1363 2.310 . S
O1367 C1368 1.268 . S
C1368 O1366 1.254 . S
C1368 O1367 1.268 . S
C1369 O1374 1.254 . S
C1369 O1375 1.268 . S
O1370 Dy1363 2.351 . S
O1370 C1378 1.249 . S
O1371 Dy1360 2.326 . S
O1371 C1378 1.267 . S
O1372 C1361 1.185 . S
O1372 Dy1363 2.398 . S
O1373 C1361 1.355 . S
O1373 Dy1363 2.491 . S
O1374 Dy1363 2.403 . S
O1374 C1369 1.254 . S
O1375 Dy1360 2.310 . S
O1375 Dy1363 2.664 . S
O1375 C1369 1.268 . S
O1376 Dy1360 2.351 . S
O1376 C1379 1.249 . S
O1377 Dy1363 2.326 . S
O1377 C1379 1.267 . S
C1378 O1370 1.249 . S
C1378 O1371 1.267 . S
C1379 O1376 1.249 . S
C1379 O1377 1.267 . S
Dy1380 O1384 2.398 . S
Dy1380 O1385 2.491 . S
Dy1380 O1386 2.403 . S
Dy1380 O1387 2.664 1_554 S
Dy1380 O1391 2.326 . S
Dy1380 O1395 2.310 . S
Dy1380 O1396 2.349 1_554 S
C1381 O1392 1.185 . S
C1381 O1393 1.355 . S
C1382 O1384 1.185 . S
C1382 O1385 1.355 . S
Dy1383 O1387 2.310 . S
Dy1383 O1390 2.351 1_556 S
Dy1383 O1392 2.398 . S
Dy1383 O1393 2.491 . S
Dy1383 O1394 2.403 1_556 S
Dy1383 O1395 2.664 1_556 S
Dy1383 O1397 2.326 . S
O1384 Dy1380 2.398 . S
O1384 C1382 1.185 . S
O1385 Dy1380 2.491 . S
O1385 C1382 1.355 . S
O1386 Dy1380 2.403 . S
O1386 C1388 1.254 1_554 S
O1387 Dy1380 2.664 1_556 S
O1387 Dy1383 2.310 . S
O1387 C1388 1.268 . S
C1388 O1386 1.254 1_556 S
C1388 O1387 1.268 . S
C1389 O1394 1.254 . S
C1389 O1395 1.268 . S
O1390 Dy1383 2.351 1_554 S
O1390 C1398 1.249 . S
O1391 Dy1380 2.326 . S
O1391 C1398 1.267 . S
O1392 C1381 1.185 . S
O1392 Dy1383 2.398 . S
O1393 C1381 1.355 . S
O1393 Dy1383 2.491 . S
O1394 Dy1383 2.403 1_554 S
O1394 C1389 1.254 . S
O1395 Dy1380 2.310 . S
O1395 Dy1383 2.664 1_554 S
O1395 C1389 1.268 . S
O1396 Dy1380 2.349 1_556 S
O1396 C1399 1.251 . S
O1397 Dy1383 2.326 . S
O1397 C1399 1.267 . S
C1398 O1390 1.249 . S
C1398 O1391 1.267 . S
C1399 O1396 1.251 . S
C1399 O1397 1.267 . S
Dy1400 O1404 2.398 . S
Dy1400 O1405 2.491 . S
Dy1400 O1406 2.403 . S
Dy1400 O1407 2.664 . S
Dy1400 O1411 2.326 . S
Dy1400 O1415 2.310 . S
Dy1400 O1416 2.351 . S
C1401 O1412 1.185 . S
C1401 O1413 1.355 . S
C1402 O1404 1.185 . S
C1402 O1405 1.355 . S
Dy1403 O1407 2.310 . S
Dy1403 O1410 2.351 . S
Dy1403 O1412 2.398 . S
Dy1403 O1413 2.491 . S
Dy1403 O1414 2.403 . S
Dy1403 O1415 2.664 . S
Dy1403 O1417 2.326 . S
O1404 Dy1400 2.398 . S
O1404 C1402 1.185 . S
O1405 Dy1400 2.491 . S
O1405 C1402 1.355 . S
O1406 Dy1400 2.403 . S
O1406 C1408 1.254 . S
O1407 Dy1400 2.664 . S
O1407 Dy1403 2.310 . S
O1407 C1408 1.268 . S
C1408 O1406 1.254 . S
C1408 O1407 1.268 . S
C1409 O1414 1.254 . S
C1409 O1415 1.268 . S
O1410 Dy1403 2.351 . S
O1410 C1418 1.249 . S
O1411 Dy1400 2.326 . S
O1411 C1418 1.267 . S
O1412 C1401 1.185 . S
O1412 Dy1403 2.398 . S
O1413 C1401 1.355 . S
O1413 Dy1403 2.491 . S
O1414 Dy1403 2.403 . S
O1414 C1409 1.254 . S
O1415 Dy1400 2.310 . S
O1415 Dy1403 2.664 . S
O1415 C1409 1.268 . S
O1416 Dy1400 2.351 . S
O1416 C1419 1.249 . S
O1417 Dy1403 2.326 . S
O1417 C1419 1.267 . S
C1418 O1410 1.249 . S
C1418 O1411 1.267 . S
C1419 O1416 1.249 . S
C1419 O1417 1.267 . S
Dy1420 O1424 2.398 . S
Dy1420 O1425 2.491 . S
Dy1420 O1426 2.403 . S
Dy1420 O1427 2.664 . S
Dy1420 O1431 2.326 . S
Dy1420 O1435 2.310 . S
Dy1420 O1436 2.351 . S
C1421 O1432 1.185 . S
C1421 O1433 1.355 . S
C1422 O1424 1.185 . S
C1422 O1425 1.355 . S
Dy1423 O1427 2.310 . S
Dy1423 O1430 2.351 . S
Dy1423 O1432 2.398 . S
Dy1423 O1433 2.491 . S
Dy1423 O1434 2.403 . S
Dy1423 O1435 2.664 . S
Dy1423 O1437 2.326 . S
O1424 Dy1420 2.398 . S
O1424 C1422 1.185 . S
O1425 Dy1420 2.491 . S
O1425 C1422 1.355 . S
O1426 Dy1420 2.403 . S
O1426 C1428 1.254 . S
O1427 Dy1420 2.664 . S
O1427 Dy1423 2.310 . S
O1427 C1428 1.268 . S
C1428 O1426 1.254 . S
C1428 O1427 1.268 . S
C1429 O1434 1.254 . S
C1429 O1435 1.268 . S
O1430 Dy1423 2.351 . S
O1430 C1438 1.249 . S
O1431 Dy1420 2.326 . S
O1431 C1438 1.267 . S
O1432 C1421 1.185 . S
O1432 Dy1423 2.398 . S
O1433 C1421 1.355 . S
O1433 Dy1423 2.491 . S
O1434 Dy1423 2.403 . S
O1434 C1429 1.254 . S
O1435 Dy1420 2.310 . S
O1435 Dy1423 2.664 . S
O1435 C1429 1.268 . S
O1436 Dy1420 2.351 . S
O1436 C1439 1.249 . S
O1437 Dy1423 2.326 . S
O1437 C1439 1.267 . S
C1438 O1430 1.249 . S
C1438 O1431 1.267 . S
C1439 O1436 1.249 . S
C1439 O1437 1.267 . S
Dy1440 O1444 2.398 . S
Dy1440 O1445 2.491 . S
Dy1440 O1446 2.403 . S
Dy1440 O1447 2.664 . S
Dy1440 O1451 2.326 . S
Dy1440 O1455 2.310 . S
Dy1440 O1456 2.351 . S
C1441 O1452 1.185 . S
C1441 O1453 1.355 . S
C1442 O1444 1.185 . S
C1442 O1445 1.355 . S
Dy1443 O1447 2.310 . S
Dy1443 O1450 2.351 . S
Dy1443 O1452 2.398 . S
Dy1443 O1453 2.491 . S
Dy1443 O1454 2.403 . S
Dy1443 O1455 2.664 . S
Dy1443 O1457 2.326 . S
O1444 Dy1440 2.398 . S
O1444 C1442 1.185 . S
O1445 Dy1440 2.491 . S
O1445 C1442 1.355 . S
O1446 Dy1440 2.403 . S
O1446 C1448 1.254 . S
O1447 Dy1440 2.664 . S
O1447 Dy1443 2.310 . S
O1447 C1448 1.268 . S
C1448 O1446 1.254 . S
C1448 O1447 1.268 . S
C1449 O1454 1.254 . S
C1449 O1455 1.268 . S
O1450 Dy1443 2.351 . S
O1450 C1458 1.249 . S
O1451 Dy1440 2.326 . S
O1451 C1458 1.267 . S
O1452 C1441 1.185 . S
O1452 Dy1443 2.398 . S
O1453 C1441 1.355 . S
O1453 Dy1443 2.491 . S
O1454 Dy1443 2.403 . S
O1454 C1449 1.254 . S
O1455 Dy1440 2.310 . S
O1455 Dy1443 2.664 . S
O1455 C1449 1.268 . S
O1456 Dy1440 2.351 . S
O1456 C1459 1.249 . S
O1457 Dy1443 2.326 . S
O1457 C1459 1.267 . S
C1458 O1450 1.249 . S
C1458 O1451 1.267 . S
C1459 O1456 1.249 . S
C1459 O1457 1.267 . S
Dy1460 O1464 2.398 . S
Dy1460 O1465 2.491 . S
Dy1460 O1466 2.403 . S
Dy1460 O1467 2.664 . S
Dy1460 O1471 2.326 . S
Dy1460 O1475 2.310 . S
Dy1460 O1476 2.351 . S
C1461 O1472 1.185 . S
C1461 O1473 1.355 . S
C1462 O1464 1.185 . S
C1462 O1465 1.355 . S
Dy1463 O1467 2.310 . S
Dy1463 O1470 2.351 . S
Dy1463 O1472 2.398 . S
Dy1463 O1473 2.491 . S
Dy1463 O1474 2.403 . S
Dy1463 O1475 2.664 . S
Dy1463 O1477 2.326 . S
O1464 Dy1460 2.398 . S
O1464 C1462 1.185 . S
O1465 Dy1460 2.491 . S
O1465 C1462 1.355 . S
O1466 Dy1460 2.403 . S
O1466 C1468 1.254 . S
O1467 Dy1460 2.664 . S
O1467 Dy1463 2.310 . S
O1467 C1468 1.268 . S
C1468 O1466 1.254 . S
C1468 O1467 1.268 . S
C1469 O1474 1.254 . S
C1469 O1475 1.268 . S
O1470 Dy1463 2.351 . S
O1470 C1478 1.249 . S
O1471 Dy1460 2.326 . S
O1471 C1478 1.267 . S
O1472 C1461 1.185 . S
O1472 Dy1463 2.398 . S
O1473 C1461 1.355 . S
O1473 Dy1463 2.491 . S
O1474 Dy1463 2.403 . S
O1474 C1469 1.254 . S
O1475 Dy1460 2.310 . S
O1475 Dy1463 2.664 . S
O1475 C1469 1.268 . S
O1476 Dy1460 2.351 . S
O1476 C1479 1.249 . S
O1477 Dy1463 2.326 . S
O1477 C1479 1.267 . S
C1478 O1470 1.249 . S
C1478 O1471 1.267 . S
C1479 O1476 1.249 . S
C1479 O1477 1.267 . S
Dy1480 O1484 2.398 . S
Dy1480 O1485 2.491 . S
Dy1480 O1486 2.403 1_455 S
Dy1480 O1487 2.664 1_455 S
Dy1480 O1491 2.326 . S
Dy1480 O1495 2.310 . S
Dy1480 O1496 2.351 1_455 S
C1481 O1492 1.185 . S
C1481 O1493 1.355 . S
C1482 O1484 1.185 . S
C1482 O1485 1.355 . S
Dy1483 O1487 2.310 . S
Dy1483 O1490 2.351 1_655 S
Dy1483 O1492 2.398 . S
Dy1483 O1493 2.491 . S
Dy1483 O1494 2.403 1_655 S
Dy1483 O1495 2.664 1_655 S
Dy1483 O1497 2.326 . S
O1484 Dy1480 2.398 . S
O1484 C1482 1.185 . S
O1485 Dy1480 2.491 . S
O1485 C1482 1.355 . S
O1486 Dy1480 2.403 1_655 S
O1486 C1488 1.254 . S
O1487 Dy1480 2.664 1_655 S
O1487 Dy1483 2.310 . S
O1487 C1488 1.268 . S
C1488 O1486 1.254 . S
C1488 O1487 1.268 . S
C1489 O1494 1.254 . S
C1489 O1495 1.268 . S
O1490 Dy1483 2.351 1_455 S
O1490 C1498 1.249 . S
O1491 Dy1480 2.326 . S
O1491 C1498 1.267 . S
O1492 C1481 1.185 . S
O1492 Dy1483 2.398 . S
O1493 C1481 1.355 . S
O1493 Dy1483 2.491 . S
O1494 Dy1483 2.403 1_455 S
O1494 C1489 1.254 . S
O1495 Dy1480 2.310 . S
O1495 Dy1483 2.664 1_455 S
O1495 C1489 1.268 . S
O1496 Dy1480 2.351 1_655 S
O1496 C1499 1.249 . S
O1497 Dy1483 2.326 . S
O1497 C1499 1.267 . S
C1498 O1490 1.249 . S
C1498 O1491 1.267 . S
C1499 O1496 1.249 . S
C1499 O1497 1.267 . S
Dy1500 O1504 2.398 . S
Dy1500 O1505 2.491 . S
Dy1500 O1506 2.403 . S
Dy1500 O1507 2.664 . S
Dy1500 O1511 2.326 . S
Dy1500 O1515 2.310 . S
Dy1500 O1516 2.351 . S
C1501 O1512 1.185 . S
C1501 O1513 1.355 . S
C1502 O1504 1.185 . S
C1502 O1505 1.355 . S
Dy1503 O1507 2.310 . S
Dy1503 O1510 2.351 . S
Dy1503 O1512 2.398 . S
Dy1503 O1513 2.491 . S
Dy1503 O1514 2.403 . S
Dy1503 O1515 2.664 . S
Dy1503 O1517 2.326 . S
O1504 Dy1500 2.398 . S
O1504 C1502 1.185 . S
O1505 Dy1500 2.491 . S
O1505 C1502 1.355 . S
O1506 Dy1500 2.403 . S
O1506 C1508 1.254 . S
O1507 Dy1500 2.664 . S
O1507 Dy1503 2.310 . S
O1507 C1508 1.268 . S
C1508 O1506 1.254 . S
C1508 O1507 1.268 . S
C1509 O1514 1.254 . S
C1509 O1515 1.268 . S
O1510 Dy1503 2.351 . S
O1510 C1518 1.249 . S
O1511 Dy1500 2.326 . S
O1511 C1518 1.267 . S
O1512 C1501 1.185 . S
O1512 Dy1503 2.398 . S
O1513 C1501 1.355 . S
O1513 Dy1503 2.491 . S
O1514 Dy1503 2.403 . S
O1514 C1509 1.254 . S
O1515 Dy1500 2.310 . S
O1515 Dy1503 2.664 . S
O1515 C1509 1.268 . S
O1516 Dy1500 2.351 . S
O1516 C1519 1.249 . S
O1517 Dy1503 2.326 . S
O1517 C1519 1.267 . S
C1518 O1510 1.249 . S
C1518 O1511 1.267 . S
C1519 O1516 1.249 . S
C1519 O1517 1.267 . S
Dy1520 O1524 2.398 . S
Dy1520 O1525 2.491 . S
Dy1520 O1526 2.403 . S
Dy1520 O1527 2.664 . S
Dy1520 O1531 2.326 . S
Dy1520 O1535 2.310 . S
Dy1520 O1536 2.351 . S
C1521 O1532 1.185 . S
C1521 O1533 1.355 . S
C1522 O1524 1.185 . S
C1522 O1525 1.355 . S
Dy1523 O1527 2.310 . S
Dy1523 O1530 2.351 . S
Dy1523 O1532 2.398 . S
Dy1523 O1533 2.491 . S
Dy1523 O1534 2.403 . S
Dy1523 O1535 2.664 . S
Dy1523 O1537 2.326 . S
O1524 Dy1520 2.398 . S
O1524 C1522 1.185 . S
O1525 Dy1520 2.491 . S
O1525 C1522 1.355 . S
O1526 Dy1520 2.403 . S
O1526 C1528 1.254 . S
O1527 Dy1520 2.664 . S
O1527 Dy1523 2.310 . S
O1527 C1528 1.268 . S
C1528 O1526 1.254 . S
C1528 O1527 1.268 . S
C1529 O1534 1.254 . S
C1529 O1535 1.268 . S
O1530 Dy1523 2.351 . S
O1530 C1538 1.249 . S
O1531 Dy1520 2.326 . S
O1531 C1538 1.267 . S
O1532 C1521 1.185 . S
O1532 Dy1523 2.398 . S
O1533 C1521 1.355 . S
O1533 Dy1523 2.491 . S
O1534 Dy1523 2.403 . S
O1534 C1529 1.254 . S
O1535 Dy1520 2.310 . S
O1535 Dy1523 2.664 . S
O1535 C1529 1.268 . S
O1536 Dy1520 2.351 . S
O1536 C1539 1.249 . S
O1537 Dy1523 2.326 . S
O1537 C1539 1.267 . S
C1538 O1530 1.249 . S
C1538 O1531 1.267 . S
C1539 O1536 1.249 . S
C1539 O1537 1.267 . S
Dy1540 O1544 2.398 . S
Dy1540 O1545 2.491 . S
Dy1540 O1546 2.403 . S
Dy1540 O1547 2.664 . S
Dy1540 O1551 2.326 . S
Dy1540 O1555 2.310 . S
Dy1540 O1556 2.351 . S
C1541 O1552 1.185 . S
C1541 O1553 1.355 . S
C1542 O1544 1.185 . S
C1542 O1545 1.355 . S
Dy1543 O1547 2.310 . S
Dy1543 O1550 2.351 . S
Dy1543 O1552 2.398 . S
Dy1543 O1553 2.491 . S
Dy1543 O1554 2.403 . S
Dy1543 O1555 2.664 . S
Dy1543 O1557 2.326 . S
O1544 Dy1540 2.398 . S
O1544 C1542 1.185 . S
O1545 Dy1540 2.491 . S
O1545 C1542 1.355 . S
O1546 Dy1540 2.403 . S
O1546 C1548 1.254 . S
O1547 Dy1540 2.664 . S
O1547 Dy1543 2.310 . S
O1547 C1548 1.268 . S
C1548 O1546 1.254 . S
C1548 O1547 1.268 . S
C1549 O1554 1.254 . S
C1549 O1555 1.268 . S
O1550 Dy1543 2.351 . S
O1550 C1558 1.249 . S
O1551 Dy1540 2.326 . S
O1551 C1558 1.267 . S
O1552 C1541 1.185 . S
O1552 Dy1543 2.398 . S
O1553 C1541 1.355 . S
O1553 Dy1543 2.491 . S
O1554 Dy1543 2.403 . S
O1554 C1549 1.254 . S
O1555 Dy1540 2.310 . S
O1555 Dy1543 2.664 . S
O1555 C1549 1.268 . S
O1556 Dy1540 2.351 . S
O1556 C1559 1.249 . S
O1557 Dy1543 2.326 . S
O1557 C1559 1.267 . S
C1558 O1550 1.249 . S
C1558 O1551 1.267 . S
C1559 O1556 1.249 . S
C1559 O1557 1.267 . S
Dy1560 O1564 2.398 . S
Dy1560 O1565 2.491 . S
Dy1560 O1566 2.403 1_455 S
Dy1560 O1567 2.664 1_455 S
Dy1560 O1571 2.326 . S
Dy1560 O1575 2.310 . S
Dy1560 O1576 2.351 1_455 S
C1561 O1572 1.185 . S
C1561 O1573 1.355 . S
C1562 O1564 1.185 . S
C1562 O1565 1.355 . S
Dy1563 O1567 2.310 1_455 S
Dy1563 O1570 2.351 . S
Dy1563 O1572 2.398 1_455 S
Dy1563 O1573 2.491 1_455 S
Dy1563 O1574 2.403 . S
Dy1563 O1575 2.664 . S
Dy1563 O1577 2.326 1_455 S
O1564 Dy1560 2.398 . S
O1564 C1562 1.185 . S
O1565 Dy1560 2.491 . S
O1565 C1562 1.355 . S
O1566 Dy1560 2.403 1_655 S
O1566 C1568 1.254 . S
O1567 Dy1560 2.664 1_655 S
O1567 Dy1563 2.310 1_655 S
O1567 C1568 1.268 . S
C1568 O1566 1.254 . S
C1568 O1567 1.268 . S
C1569 O1574 1.254 . S
C1569 O1575 1.268 . S
O1570 Dy1563 2.351 . S
O1570 C1578 1.249 . S
O1571 Dy1560 2.326 . S
O1571 C1578 1.267 . S
O1572 C1561 1.185 . S
O1572 Dy1563 2.398 1_655 S
O1573 C1561 1.355 . S
O1573 Dy1563 2.491 1_655 S
O1574 Dy1563 2.403 . S
O1574 C1569 1.254 . S
O1575 Dy1560 2.310 . S
O1575 Dy1563 2.664 . S
O1575 C1569 1.268 . S
O1576 Dy1560 2.351 1_655 S
O1576 C1579 1.249 . S
O1577 Dy1563 2.326 1_655 S
O1577 C1579 1.267 . S
C1578 O1570 1.249 . S
C1578 O1571 1.267 . S
C1579 O1576 1.249 . S
C1579 O1577 1.267 . S
Dy1580 O1584 2.398 . S
Dy1580 O1585 2.491 . S
Dy1580 O1586 2.403 . S
Dy1580 O1587 2.664 . S
Dy1580 O1591 2.326 . S
Dy1580 O1595 2.310 . S
Dy1580 O1596 2.351 . S
C1581 O1592 1.185 . S
C1581 O1593 1.355 . S
C1582 O1584 1.185 . S
C1582 O1585 1.355 . S
Dy1583 O1587 2.310 . S
Dy1583 O1590 2.351 . S
Dy1583 O1592 2.398 . S
Dy1583 O1593 2.491 . S
Dy1583 O1594 2.403 . S
Dy1583 O1595 2.664 . S
Dy1583 O1597 2.326 . S
O1584 Dy1580 2.398 . S
O1584 C1582 1.185 . S
O1585 Dy1580 2.491 . S
O1585 C1582 1.355 . S
O1586 Dy1580 2.403 . S
O1586 C1588 1.254 . S
O1587 Dy1580 2.664 . S
O1587 Dy1583 2.310 . S
O1587 C1588 1.268 . S
C1588 O1586 1.254 . S
C1588 O1587 1.268 . S
C1589 O1594 1.254 . S
C1589 O1595 1.268 . S
O1590 Dy1583 2.351 . S
O1590 C1598 1.249 . S
O1591 Dy1580 2.326 . S
O1591 C1598 1.267 . S
O1592 C1581 1.185 . S
O1592 Dy1583 2.398 . S
O1593 C1581 1.355 . S
O1593 Dy1583 2.491 . S
O1594 Dy1583 2.403 . S
O1594 C1589 1.254 . S
O1595 Dy1580 2.310 . S
O1595 Dy1583 2.664 . S
O1595 C1589 1.268 . S
O1596 Dy1580 2.351 . S
O1596 C1599 1.249 . S
O1597 Dy1583 2.326 . S
O1597 C1599 1.267 . S
C1598 O1590 1.249 . S
C1598 O1591 1.267 . S
C1599 O1596 1.249 . S
C1599 O1597 1.267 . S
Dy1600 O1604 2.398 . S
Dy1600 O1605 2.491 . S
Dy1600 O1606 2.403 . S
Dy1600 O1607 2.664 . S
Dy1600 O1611 2.326 . S
Dy1600 O1615 2.310 . S
Dy1600 O1616 2.351 . S
C1601 O1612 1.185 . S
C1601 O1613 1.355 . S
C1602 O1604 1.185 . S
C1602 O1605 1.355 . S
Dy1603 O1607 2.310 . S
Dy1603 O1610 2.351 . S
Dy1603 O1612 2.398 . S
Dy1603 O1613 2.491 . S
Dy1603 O1614 2.403 . S
Dy1603 O1615 2.664 . S
Dy1603 O1617 2.326 . S
O1604 Dy1600 2.398 . S
O1604 C1602 1.185 . S
O1605 Dy1600 2.491 . S
O1605 C1602 1.355 . S
O1606 Dy1600 2.403 . S
O1606 C1608 1.254 . S
O1607 Dy1600 2.664 . S
O1607 Dy1603 2.310 . S
O1607 C1608 1.268 . S
C1608 O1606 1.254 . S
C1608 O1607 1.268 . S
C1609 O1614 1.254 . S
C1609 O1615 1.268 . S
O1610 Dy1603 2.351 . S
O1610 C1618 1.249 . S
O1611 Dy1600 2.326 . S
O1611 C1618 1.267 . S
O1612 C1601 1.185 . S
O1612 Dy1603 2.398 . S
O1613 C1601 1.355 . S
O1613 Dy1603 2.491 . S
O1614 Dy1603 2.403 . S
O1614 C1609 1.254 . S
O1615 Dy1600 2.310 . S
O1615 Dy1603 2.664 . S
O1615 C1609 1.268 . S
O1616 Dy1600 2.351 . S
O1616 C1619 1.249 . S
O1617 Dy1603 2.326 . S
O1617 C1619 1.267 . S
C1618 O1610 1.249 . S
C1618 O1611 1.267 . S
C1619 O1616 1.249 . S
C1619 O1617 1.267 . S
Dy1620 O1624 2.398 . S
Dy1620 O1625 2.491 . S
Dy1620 O1626 2.403 . S
Dy1620 O1627 2.664 . S
Dy1620 O1631 2.326 . S
Dy1620 O1635 2.310 . S
Dy1620 O1636 2.351 . S
C1621 O1632 1.185 . S
C1621 O1633 1.355 . S
C1622 O1624 1.185 . S
C1622 O1625 1.355 . S
Dy1623 O1627 2.310 . S
Dy1623 O1630 2.351 . S
Dy1623 O1632 2.398 . S
Dy1623 O1633 2.491 . S
Dy1623 O1634 2.403 . S
Dy1623 O1635 2.664 . S
Dy1623 O1637 2.326 . S
O1624 Dy1620 2.398 . S
O1624 C1622 1.185 . S
O1625 Dy1620 2.491 . S
O1625 C1622 1.355 . S
O1626 Dy1620 2.403 . S
O1626 C1628 1.254 . S
O1627 Dy1620 2.664 . S
O1627 Dy1623 2.310 . S
O1627 C1628 1.268 . S
C1628 O1626 1.254 . S
C1628 O1627 1.268 . S
C1629 O1634 1.254 . S
C1629 O1635 1.268 . S
O1630 Dy1623 2.351 . S
O1630 C1638 1.249 . S
O1631 Dy1620 2.326 . S
O1631 C1638 1.267 . S
O1632 C1621 1.185 . S
O1632 Dy1623 2.398 . S
O1633 C1621 1.355 . S
O1633 Dy1623 2.491 . S
O1634 Dy1623 2.403 . S
O1634 C1629 1.254 . S
O1635 Dy1620 2.310 . S
O1635 Dy1623 2.664 . S
O1635 C1629 1.268 . S
O1636 Dy1620 2.351 . S
O1636 C1639 1.249 . S
O1637 Dy1623 2.326 . S
O1637 C1639 1.267 . S
C1638 O1630 1.249 . S
C1638 O1631 1.267 . S
C1639 O1636 1.249 . S
C1639 O1637 1.267 . S
Dy1640 O1644 2.398 . S
Dy1640 O1645 2.491 . S
Dy1640 O1646 2.403 . S
Dy1640 O1647 2.664 . S
Dy1640 O1651 2.326 . S
Dy1640 O1655 2.310 . S
Dy1640 O1656 2.351 . S
C1641 O1652 1.185 . S
C1641 O1653 1.355 . S
C1642 O1644 1.185 . S
C1642 O1645 1.355 . S
Dy1643 O1647 2.310 . S
Dy1643 O1650 2.351 . S
Dy1643 O1652 2.398 . S
Dy1643 O1653 2.491 . S
Dy1643 O1654 2.403 . S
Dy1643 O1655 2.664 . S
Dy1643 O1657 2.326 . S
O1644 Dy1640 2.398 . S
O1644 C1642 1.185 . S
O1645 Dy1640 2.491 . S
O1645 C1642 1.355 . S
O1646 Dy1640 2.403 . S
O1646 C1648 1.254 . S
O1647 Dy1640 2.664 . S
O1647 Dy1643 2.310 . S
O1647 C1648 1.268 . S
C1648 O1646 1.254 . S
C1648 O1647 1.268 . S
C1649 O1654 1.254 . S
C1649 O1655 1.268 . S
O1650 Dy1643 2.351 . S
O1650 C1658 1.249 . S
O1651 Dy1640 2.326 . S
O1651 C1658 1.267 . S
O1652 C1641 1.185 . S
O1652 Dy1643 2.398 . S
O1653 C1641 1.355 . S
O1653 Dy1643 2.491 . S
O1654 Dy1643 2.403 . S
O1654 C1649 1.254 . S
O1655 Dy1640 2.310 . S
O1655 Dy1643 2.664 . S
O1655 C1649 1.268 . S
O1656 Dy1640 2.351 . S
O1656 C1659 1.249 . S
O1657 Dy1643 2.326 . S
O1657 C1659 1.267 . S
C1658 O1650 1.249 . S
C1658 O1651 1.267 . S
C1659 O1656 1.249 . S
C1659 O1657 1.267 . S
Dy1660 O1664 2.398 . S
Dy1660 O1665 2.491 . S
Dy1660 O1666 2.403 . S
Dy1660 O1667 2.664 . S
Dy1660 O1671 2.326 . S
Dy1660 O1675 2.310 . S
Dy1660 O1676 2.351 . S
C1661 O1672 1.185 . S
C1661 O1673 1.355 . S
C1662 O1664 1.185 . S
C1662 O1665 1.355 . S
Dy1663 O1667 2.310 . S
Dy1663 O1670 2.351 . S
Dy1663 O1672 2.398 . S
Dy1663 O1673 2.491 . S
Dy1663 O1674 2.403 . S
Dy1663 O1675 2.664 . S
Dy1663 O1677 2.326 . S
O1664 Dy1660 2.398 . S
O1664 C1662 1.185 . S
O1665 Dy1660 2.491 . S
O1665 C1662 1.355 . S
O1666 Dy1660 2.403 . S
O1666 C1668 1.254 . S
O1667 Dy1660 2.664 . S
O1667 Dy1663 2.310 . S
O1667 C1668 1.268 . S
C1668 O1666 1.254 . S
C1668 O1667 1.268 . S
C1669 O1674 1.254 . S
C1669 O1675 1.268 . S
O1670 Dy1663 2.351 . S
O1670 C1678 1.249 . S
O1671 Dy1660 2.326 . S
O1671 C1678 1.267 . S
O1672 C1661 1.185 . S
O1672 Dy1663 2.398 . S
O1673 C1661 1.355 . S
O1673 Dy1663 2.491 . S
O1674 Dy1663 2.403 . S
O1674 C1669 1.254 . S
O1675 Dy1660 2.310 . S
O1675 Dy1663 2.664 . S
O1675 C1669 1.268 . S
O1676 Dy1660 2.351 . S
O1676 C1679 1.249 . S
O1677 Dy1663 2.326 . S
O1677 C1679 1.267 . S
C1678 O1670 1.249 . S
C1678 O1671 1.267 . S
C1679 O1676 1.249 . S
C1679 O1677 1.267 . S
Dy1680 O1684 2.398 . S
Dy1680 O1685 2.491 . S
Dy1680 O1686 2.403 . S
Dy1680 O1687 2.664 . S
Dy1680 O1691 2.326 . S
Dy1680 O1695 2.310 . S
Dy1680 O1696 2.351 . S
C1681 O1692 1.185 . S
C1681 O1693 1.355 . S
C1682 O1684 1.185 . S
C1682 O1685 1.355 . S
Dy1683 O1687 2.310 . S
Dy1683 O1690 2.351 . S
Dy1683 O1692 2.398 . S
Dy1683 O1693 2.491 . S
Dy1683 O1694 2.403 . S
Dy1683 O1695 2.664 . S
Dy1683 O1697 2.326 . S
O1684 Dy1680 2.398 . S
O1684 C1682 1.185 . S
O1685 Dy1680 2.491 . S
O1685 C1682 1.355 . S
O1686 Dy1680 2.403 . S
O1686 C1688 1.254 . S
O1687 Dy1680 2.664 . S
O1687 Dy1683 2.310 . S
O1687 C1688 1.268 . S
C1688 O1686 1.254 . S
C1688 O1687 1.268 . S
C1689 O1694 1.254 . S
C1689 O1695 1.268 . S
O1690 Dy1683 2.351 . S
O1690 C1698 1.249 . S
O1691 Dy1680 2.326 . S
O1691 C1698 1.267 . S
O1692 C1681 1.185 . S
O1692 Dy1683 2.398 . S
O1693 C1681 1.355 . S
O1693 Dy1683 2.491 . S
O1694 Dy1683 2.403 . S
O1694 C1689 1.254 . S
O1695 Dy1680 2.310 . S
O1695 Dy1683 2.664 . S
O1695 C1689 1.268 . S
O1696 Dy1680 2.351 . S
O1696 C1699 1.249 . S
O1697 Dy1683 2.326 . S
O1697 C1699 1.267 . S
C1698 O1690 1.249 . S
C1698 O1691 1.267 . S
C1699 O1696 1.249 . S
C1699 O1697 1.267 . S
Dy1700 O1704 2.398 . S
Dy1700 O1705 2.491 . S
Dy1700 O1706 2.403 . S
Dy1700 O1707 2.664 . S
Dy1700 O1711 2.326 . S
Dy1700 O1715 2.310 . S
Dy1700 O1716 2.351 . S
C1701 O1712 1.185 . S
C1701 O1713 1.355 . S
C1702 O1704 1.185 . S
C1702 O1705 1.355 . S
Dy1703 O1707 2.310 . S
Dy1703 O1710 2.351 . S
Dy1703 O1712 2.398 . S
Dy1703 O1713 2.491 . S
Dy1703 O1714 2.403 . S
Dy1703 O1715 2.664 . S
Dy1703 O1717 2.326 . S
O1704 Dy1700 2.398 . S
O1704 C1702 1.185 . S
O1705 Dy1700 2.491 . S
O1705 C1702 1.355 . S
O1706 Dy1700 2.403 . S
O1706 C1708 1.254 . S
O1707 Dy1700 2.664 . S
O1707 Dy1703 2.310 . S
O1707 C1708 1.268 . S
C1708 O1706 1.254 . S
C1708 O1707 1.268 . S
C1709 O1714 1.254 . S
C1709 O1715 1.268 . S
O1710 Dy1703 2.351 . S
O1710 C1718 1.249 . S
O1711 Dy1700 2.326 . S
O1711 C1718 1.267 . S
O1712 C1701 1.185 . S
O1712 Dy1703 2.398 . S
O1713 C1701 1.355 . S
O1713 Dy1703 2.491 . S
O1714 Dy1703 2.403 . S
O1714 C1709 1.254 . S
O1715 Dy1700 2.310 . S
O1715 Dy1703 2.664 . S
O1715 C1709 1.268 . S
O1716 Dy1700 2.351 . S
O1716 C1719 1.249 . S
O1717 Dy1703 2.326 . S
O1717 C1719 1.267 . S
C1718 O1710 1.249 . S
C1718 O1711 1.267 . S
C1719 O1716 1.249 . S
C1719 O1717 1.267 . S
Dy1720 O1724 2.398 . S
Dy1720 O1725 2.491 . S
Dy1720 O1726 2.403 . S
Dy1720 O1727 2.664 . S
Dy1720 O1731 2.326 . S
Dy1720 O1735 2.310 . S
Dy1720 O1736 2.351 . S
C1721 O1732 1.185 . S
C1721 O1733 1.355 . S
C1722 O1724 1.185 . S
C1722 O1725 1.355 . S
Dy1723 O1727 2.310 . S
Dy1723 O1730 2.351 . S
Dy1723 O1732 2.398 . S
Dy1723 O1733 2.491 . S
Dy1723 O1734 2.403 . S
Dy1723 O1735 2.664 . S
Dy1723 O1737 2.326 . S
O1724 Dy1720 2.398 . S
O1724 C1722 1.185 . S
O1725 Dy1720 2.491 . S
O1725 C1722 1.355 . S
O1726 Dy1720 2.403 . S
O1726 C1728 1.254 . S
O1727 Dy1720 2.664 . S
O1727 Dy1723 2.310 . S
O1727 C1728 1.268 . S
C1728 O1726 1.254 . S
C1728 O1727 1.268 . S
C1729 O1734 1.254 . S
C1729 O1735 1.268 . S
O1730 Dy1723 2.351 . S
O1730 C1738 1.249 . S
O1731 Dy1720 2.326 . S
O1731 C1738 1.267 . S
O1732 C1721 1.185 . S
O1732 Dy1723 2.398 . S
O1733 C1721 1.355 . S
O1733 Dy1723 2.491 . S
O1734 Dy1723 2.403 . S
O1734 C1729 1.254 . S
O1735 Dy1720 2.310 . S
O1735 Dy1723 2.664 . S
O1735 C1729 1.268 . S
O1736 Dy1720 2.351 . S
O1736 C1739 1.249 . S
O1737 Dy1723 2.326 . S
O1737 C1739 1.267 . S
C1738 O1730 1.249 . S
C1738 O1731 1.267 . S
C1739 O1736 1.249 . S
C1739 O1737 1.267 . S
Dy1740 O1744 2.398 . S
Dy1740 O1745 2.491 . S
Dy1740 O1746 2.403 . S
Dy1740 O1747 2.664 . S
Dy1740 O1751 2.326 . S
Dy1740 O1755 2.310 . S
Dy1740 O1756 2.351 . S
C1741 O1752 1.185 . S
C1741 O1753 1.355 . S
C1742 O1744 1.185 . S
C1742 O1745 1.355 . S
Dy1743 O1747 2.310 . S
Dy1743 O1750 2.351 . S
Dy1743 O1752 2.398 . S
Dy1743 O1753 2.491 . S
Dy1743 O1754 2.403 . S
Dy1743 O1755 2.664 . S
Dy1743 O1757 2.326 . S
O1744 Dy1740 2.398 . S
O1744 C1742 1.185 . S
O1745 Dy1740 2.491 . S
O1745 C1742 1.355 . S
O1746 Dy1740 2.403 . S
O1746 C1748 1.254 . S
O1747 Dy1740 2.664 . S
O1747 Dy1743 2.310 . S
O1747 C1748 1.268 . S
C1748 O1746 1.254 . S
C1748 O1747 1.268 . S
C1749 O1754 1.254 . S
C1749 O1755 1.268 . S
O1750 Dy1743 2.351 . S
O1750 C1758 1.249 . S
O1751 Dy1740 2.326 . S
O1751 C1758 1.267 . S
O1752 C1741 1.185 . S
O1752 Dy1743 2.398 . S
O1753 C1741 1.355 . S
O1753 Dy1743 2.491 . S
O1754 Dy1743 2.403 . S
O1754 C1749 1.254 . S
O1755 Dy1740 2.310 . S
O1755 Dy1743 2.664 . S
O1755 C1749 1.268 . S
O1756 Dy1740 2.351 . S
O1756 C1759 1.249 . S
O1757 Dy1743 2.326 . S
O1757 C1759 1.267 . S
C1758 O1750 1.249 . S
C1758 O1751 1.267 . S
C1759 O1756 1.249 . S
C1759 O1757 1.267 . S
Dy1760 O1764 2.398 . S
Dy1760 O1765 2.491 . S
Dy1760 O1766 2.403 . S
Dy1760 O1767 2.664 . S
Dy1760 O1771 2.326 . S
Dy1760 O1775 2.310 . S
Dy1760 O1776 2.351 . S
C1761 O1772 1.185 . S
C1761 O1773 1.355 . S
C1762 O1764 1.185 . S
C1762 O1765 1.355 . S
Dy1763 O1767 2.310 . S
Dy1763 O1770 2.351 . S
Dy1763 O1772 2.398 . S
Dy1763 O1773 2.491 . S
Dy1763 O1774 2.403 . S
Dy1763 O1775 2.664 . S
Dy1763 O1777 2.326 . S
O1764 Dy1760 2.398 . S
O1764 C1762 1.185 . S
O1765 Dy1760 2.491 . S
O1765 C1762 1.355 . S
O1766 Dy1760 2.403 . S
O1766 C1768 1.254 . S
O1767 Dy1760 2.664 . S
O1767 Dy1763 2.310 . S
O1767 C1768 1.268 . S
C1768 O1766 1.254 . S
C1768 O1767 1.268 . S
C1769 O1774 1.254 . S
C1769 O1775 1.268 . S
O1770 Dy1763 2.351 . S
O1770 C1778 1.249 . S
O1771 Dy1760 2.326 . S
O1771 C1778 1.267 . S
O1772 C1761 1.185 . S
O1772 Dy1763 2.398 . S
O1773 C1761 1.355 . S
O1773 Dy1763 2.491 . S
O1774 Dy1763 2.403 . S
O1774 C1769 1.254 . S
O1775 Dy1760 2.310 . S
O1775 Dy1763 2.664 . S
O1775 C1769 1.268 . S
O1776 Dy1760 2.351 . S
O1776 C1779 1.249 . S
O1777 Dy1763 2.326 . S
O1777 C1779 1.267 . S
C1778 O1770 1.249 . S
C1778 O1771 1.267 . S
C1779 O1776 1.249 . S
C1779 O1777 1.267 . S
Dy1780 O1784 2.398 . S
Dy1780 O1785 2.491 . S
Dy1780 O1786 2.403 . S
Dy1780 O1787 2.664 . S
Dy1780 O1791 2.326 . S
Dy1780 O1795 2.310 . S
Dy1780 O1796 2.351 . S
C1781 O1792 1.185 . S
C1781 O1793 1.355 . S
C1782 O1784 1.185 . S
C1782 O1785 1.355 . S
Dy1783 O1787 2.310 . S
Dy1783 O1790 2.351 . S
Dy1783 O1792 2.398 . S
Dy1783 O1793 2.491 . S
Dy1783 O1794 2.403 . S
Dy1783 O1795 2.664 . S
Dy1783 O1797 2.326 . S
O1784 Dy1780 2.398 . S
O1784 C1782 1.185 . S
O1785 Dy1780 2.491 . S
O1785 C1782 1.355 . S
O1786 Dy1780 2.403 . S
O1786 C1788 1.254 . S
O1787 Dy1780 2.664 . S
O1787 Dy1783 2.310 . S
O1787 C1788 1.268 . S
C1788 O1786 1.254 . S
C1788 O1787 1.268 . S
C1789 O1794 1.254 . S
C1789 O1795 1.268 . S
O1790 Dy1783 2.351 . S
O1790 C1798 1.249 . S
O1791 Dy1780 2.326 . S
O1791 C1798 1.267 . S
O1792 C1781 1.185 . S
O1792 Dy1783 2.398 . S
O1793 C1781 1.355 . S
O1793 Dy1783 2.491 . S
O1794 Dy1783 2.403 . S
O1794 C1789 1.254 . S
O1795 Dy1780 2.310 . S
O1795 Dy1783 2.664 . S
O1795 C1789 1.268 . S
O1796 Dy1780 2.351 . S
O1796 C1799 1.249 . S
O1797 Dy1783 2.326 . S
O1797 C1799 1.267 . S
C1798 O1790 1.249 . S
C1798 O1791 1.267 . S
C1799 O1796 1.249 . S
C1799 O1797 1.267 . S
Dy1800 O1804 2.398 . S
Dy1800 O1805 2.491 . S
Dy1800 O1806 2.403 . S
Dy1800 O1807 2.664 . S
Dy1800 O1811 2.326 . S
Dy1800 O1815 2.310 . S
Dy1800 O1816 2.351 . S
C1801 O1812 1.185 . S
C1801 O1813 1.355 . S
C1802 O1804 1.185 . S
C1802 O1805 1.355 . S
Dy1803 O1807 2.310 . S
Dy1803 O1810 2.351 . S
Dy1803 O1812 2.398 . S
Dy1803 O1813 2.491 . S
Dy1803 O1814 2.403 . S
Dy1803 O1815 2.664 . S
Dy1803 O1817 2.326 . S
O1804 Dy1800 2.398 . S
O1804 C1802 1.185 . S
O1805 Dy1800 2.491 . S
O1805 C1802 1.355 . S
O1806 Dy1800 2.403 . S
O1806 C1808 1.254 . S
O1807 Dy1800 2.664 . S
O1807 Dy1803 2.310 . S
O1807 C1808 1.268 . S
C1808 O1806 1.254 . S
C1808 O1807 1.268 . S
C1809 O1814 1.254 . S
C1809 O1815 1.268 . S
O1810 Dy1803 2.351 . S
O1810 C1818 1.249 . S
O1811 Dy1800 2.326 . S
O1811 C1818 1.267 . S
O1812 C1801 1.185 . S
O1812 Dy1803 2.398 . S
O1813 C1801 1.355 . S
O1813 Dy1803 2.491 . S
O1814 Dy1803 2.403 . S
O1814 C1809 1.254 . S
O1815 Dy1800 2.310 . S
O1815 Dy1803 2.664 . S
O1815 C1809 1.268 . S
O1816 Dy1800 2.351 . S
O1816 C1819 1.249 . S
O1817 Dy1803 2.326 . S
O1817 C1819 1.267 . S
C1818 O1810 1.249 . S
C1818 O1811 1.267 . S
C1819 O1816 1.249 . S
C1819 O1817 1.267 . S
Dy1820 O1824 2.398 . S
Dy1820 O1825 2.491 . S
Dy1820 O1826 2.403 1_556 S
Dy1820 O1827 2.664 1_556 S
Dy1820 O1831 2.326 . S
Dy1820 O1835 2.310 . S
Dy1820 O1836 2.351 1_556 S
C1821 O1832 1.185 . S
C1821 O1833 1.355 . S
C1822 O1824 1.185 . S
C1822 O1825 1.355 . S
Dy1823 O1827 2.310 . S
Dy1823 O1830 2.351 1_554 S
Dy1823 O1832 2.398 . S
Dy1823 O1833 2.491 . S
Dy1823 O1834 2.403 . S
Dy1823 O1835 2.664 1_554 S
Dy1823 O1837 2.326 . S
O1824 Dy1820 2.398 . S
O1824 C1822 1.185 . S
O1825 Dy1820 2.491 . S
O1825 C1822 1.355 . S
O1826 Dy1820 2.403 1_554 S
O1826 C1828 1.254 . S
O1827 Dy1820 2.664 1_554 S
O1827 Dy1823 2.310 . S
O1827 C1828 1.268 . S
C1828 O1826 1.254 . S
C1828 O1827 1.268 . S
C1829 O1834 1.254 1_556 S
C1829 O1835 1.268 . S
O1830 Dy1823 2.351 1_556 S
O1830 C1838 1.249 . S
O1831 Dy1820 2.326 . S
O1831 C1838 1.267 . S
O1832 C1821 1.185 . S
O1832 Dy1823 2.398 . S
O1833 C1821 1.355 . S
O1833 Dy1823 2.491 . S
O1834 Dy1823 2.403 . S
O1834 C1829 1.254 1_554 S
O1835 Dy1820 2.310 . S
O1835 Dy1823 2.664 1_556 S
O1835 C1829 1.268 . S
O1836 Dy1820 2.351 1_554 S
O1836 C1839 1.249 . S
O1837 Dy1823 2.326 . S
O1837 C1839 1.267 . S
C1838 O1830 1.249 . S
C1838 O1831 1.267 . S
C1839 O1836 1.249 . S
C1839 O1837 1.267 . S
Dy1840 O1844 2.398 . S
Dy1840 O1845 2.491 . S
Dy1840 O1846 2.403 . S
Dy1840 O1847 2.664 . S
Dy1840 O1851 2.326 . S
Dy1840 O1855 2.310 . S
Dy1840 O1856 2.351 . S
C1841 O1852 1.185 . S
C1841 O1853 1.355 . S
C1842 O1844 1.185 . S
C1842 O1845 1.355 . S
Dy1843 O1847 2.310 . S
Dy1843 O1850 2.351 . S
Dy1843 O1852 2.398 . S
Dy1843 O1853 2.491 . S
Dy1843 O1854 2.403 . S
Dy1843 O1855 2.664 . S
Dy1843 O1857 2.326 . S
O1844 Dy1840 2.398 . S
O1844 C1842 1.185 . S
O1845 Dy1840 2.491 . S
O1845 C1842 1.355 . S
O1846 Dy1840 2.403 . S
O1846 C1848 1.254 . S
O1847 Dy1840 2.664 . S
O1847 Dy1843 2.310 . S
O1847 C1848 1.268 . S
C1848 O1846 1.254 . S
C1848 O1847 1.268 . S
C1849 O1854 1.254 . S
C1849 O1855 1.268 . S
O1850 Dy1843 2.351 . S
O1850 C1858 1.249 . S
O1851 Dy1840 2.326 . S
O1851 C1858 1.267 . S
O1852 C1841 1.185 . S
O1852 Dy1843 2.398 . S
O1853 C1841 1.355 . S
O1853 Dy1843 2.491 . S
O1854 Dy1843 2.403 . S
O1854 C1849 1.254 . S
O1855 Dy1840 2.310 . S
O1855 Dy1843 2.664 . S
O1855 C1849 1.268 . S
O1856 Dy1840 2.351 . S
O1856 C1859 1.249 . S
O1857 Dy1843 2.326 . S
O1857 C1859 1.267 . S
C1858 O1850 1.249 . S
C1858 O1851 1.267 . S
C1859 O1856 1.249 . S
C1859 O1857 1.267 . S
Dy1860 O1864 2.398 . S
Dy1860 O1865 2.491 . S
Dy1860 O1866 2.403 1_554 S
Dy1860 O1867 2.664 1_554 S
Dy1860 O1871 2.326 . S
Dy1860 O1875 2.310 . S
Dy1860 O1876 2.351 1_554 S
C1861 O1872 1.185 . S
C1861 O1873 1.355 . S
C1862 O1864 1.185 . S
C1862 O1865 1.355 . S
Dy1863 O1867 2.310 . S
Dy1863 O1870 2.349 1_556 S
Dy1863 O1872 2.398 . S
Dy1863 O1873 2.491 . S
Dy1863 O1874 2.403 . S
Dy1863 O1875 2.664 1_556 S
Dy1863 O1877 2.326 . S
O1864 Dy1860 2.398 . S
O1864 C1862 1.185 . S
O1865 Dy1860 2.491 . S
O1865 C1862 1.355 . S
O1866 Dy1860 2.403 1_556 S
O1866 C1868 1.254 . S
O1867 Dy1860 2.664 1_556 S
O1867 Dy1863 2.310 . S
O1867 C1868 1.268 . S
C1868 O1866 1.254 . S
C1868 O1867 1.268 . S
C1869 O1874 1.254 1_554 S
C1869 O1875 1.268 . S
O1870 Dy1863 2.349 1_554 S
O1870 C1878 1.251 . S
O1871 Dy1860 2.326 . S
O1871 C1878 1.267 . S
O1872 C1861 1.185 . S
O1872 Dy1863 2.398 . S
O1873 C1861 1.355 . S
O1873 Dy1863 2.491 . S
O1874 Dy1863 2.403 . S
O1874 C1869 1.254 1_556 S
O1875 Dy1860 2.310 . S
O1875 Dy1863 2.664 1_554 S
O1875 C1869 1.268 . S
O1876 Dy1860 2.351 1_556 S
O1876 C1879 1.249 . S
O1877 Dy1863 2.326 . S
O1877 C1879 1.267 . S
C1878 O1870 1.251 . S
C1878 O1871 1.267 . S
C1879 O1876 1.249 . S
C1879 O1877 1.267 . S
Dy1880 O1884 2.398 . S
Dy1880 O1885 2.491 . S
Dy1880 O1886 2.403 . S
Dy1880 O1887 2.664 . S
Dy1880 O1891 2.326 . S
Dy1880 O1895 2.310 . S
Dy1880 O1896 2.351 . S
C1881 O1892 1.185 . S
C1881 O1893 1.355 . S
C1882 O1884 1.185 . S
C1882 O1885 1.355 . S
Dy1883 O1887 2.310 . S
Dy1883 O1890 2.351 . S
Dy1883 O1892 2.398 . S
Dy1883 O1893 2.491 . S
Dy1883 O1894 2.403 . S
Dy1883 O1895 2.664 . S
Dy1883 O1897 2.326 . S
O1884 Dy1880 2.398 . S
O1884 C1882 1.185 . S
O1885 Dy1880 2.491 . S
O1885 C1882 1.355 . S
O1886 Dy1880 2.403 . S
O1886 C1888 1.254 . S
O1887 Dy1880 2.664 . S
O1887 Dy1883 2.310 . S
O1887 C1888 1.268 . S
C1888 O1886 1.254 . S
C1888 O1887 1.268 . S
C1889 O1894 1.254 . S
C1889 O1895 1.268 . S
O1890 Dy1883 2.351 . S
O1890 C1898 1.249 . S
O1891 Dy1880 2.326 . S
O1891 C1898 1.267 . S
O1892 C1881 1.185 . S
O1892 Dy1883 2.398 . S
O1893 C1881 1.355 . S
O1893 Dy1883 2.491 . S
O1894 Dy1883 2.403 . S
O1894 C1889 1.254 . S
O1895 Dy1880 2.310 . S
O1895 Dy1883 2.664 . S
O1895 C1889 1.268 . S
O1896 Dy1880 2.351 . S
O1896 C1899 1.249 . S
O1897 Dy1883 2.326 . S
O1897 C1899 1.267 . S
C1898 O1890 1.249 . S
C1898 O1891 1.267 . S
C1899 O1896 1.249 . S
C1899 O1897 1.267 . S
Dy1900 O1904 2.398 . S
Dy1900 O1905 2.491 . S
Dy1900 O1906 2.403 . S
Dy1900 O1907 2.664 . S
Dy1900 O1911 2.326 . S
Dy1900 O1915 2.310 . S
Dy1900 O1916 2.351 . S
C1901 O1912 1.185 . S
C1901 O1913 1.355 . S
C1902 O1904 1.185 . S
C1902 O1905 1.355 . S
Dy1903 O1907 2.310 . S
Dy1903 O1910 2.351 . S
Dy1903 O1912 2.398 . S
Dy1903 O1913 2.491 . S
Dy1903 O1914 2.403 . S
Dy1903 O1915 2.664 . S
Dy1903 O1917 2.326 . S
O1904 Dy1900 2.398 . S
O1904 C1902 1.185 . S
O1905 Dy1900 2.491 . S
O1905 C1902 1.355 . S
O1906 Dy1900 2.403 . S
O1906 C1908 1.254 . S
O1907 Dy1900 2.664 . S
O1907 Dy1903 2.310 . S
O1907 C1908 1.268 . S
C1908 O1906 1.254 . S
C1908 O1907 1.268 . S
C1909 O1914 1.254 . S
C1909 O1915 1.268 . S
O1910 Dy1903 2.351 . S
O1910 C1918 1.249 . S
O1911 Dy1900 2.326 . S
O1911 C1918 1.267 . S
O1912 C1901 1.185 . S
O1912 Dy1903 2.398 . S
O1913 C1901 1.355 . S
O1913 Dy1903 2.491 . S
O1914 Dy1903 2.403 . S
O1914 C1909 1.254 . S
O1915 Dy1900 2.310 . S
O1915 Dy1903 2.664 . S
O1915 C1909 1.268 . S
O1916 Dy1900 2.351 . S
O1916 C1919 1.249 . S
O1917 Dy1903 2.326 . S
O1917 C1919 1.267 . S
C1918 O1910 1.249 . S
C1918 O1911 1.267 . S
C1919 O1916 1.249 . S
C1919 O1917 1.267 . S
C1502 C9 1.380 . S
C482 C29 1.958 . S
C48 C1462 1.549 . S
C69 C539 2.206 . S
C89 C1559 1.863 . S
C619 C108 2.153 . S
C128 C1582 1.614 . S
C149 C562 1.527 . S
C169 C1802 1.770 . S
C862 C189 1.693 . S
C882 C209 1.965 . S
C839 C229 1.710 . S
C249 C1882 1.443 . S
C269 C1762 1.334 . S
C1902 C289 1.920 . S
C309 C1862 1.845 . S
C329 C1622 1.929 . S
C782 C348 1.574 . S
C1682 C369 1.728 . S
C389 C742 1.919 . S
C409 C762 1.963 . S
C429 C1662 1.539 . S
C449 C1602 0.982 . S
C1642 C469 1.954 . S
C488 C1021 1.380 . S
C508 C1 1.958 . S
C529 C981 1.549 . S
C58 C548 2.206 . S
C1078 C568 1.863 . S
C589 C138 2.153 . S
C1101 C609 1.614 . S
C628 C81 1.527 . S
C648 C1321 1.770 . S
C668 C381 1.693 . S
C688 C401 1.965 . S
C358 C708 1.710 . S
C1401 C728 1.443 . S
C748 C1281 1.334 . S
C768 C1421 1.920 . S
C1381 C788 1.845 . S
C808 C1141 1.929 . S
C829 C301 1.574 . S
C1201 C848 1.728 . S
C868 C261 1.919 . S
C888 C281 1.963 . S
C1181 C908 1.539 . S
C1121 C928 0.982 . S
C1161 C948 1.954 . S
C969 C542 1.609 . S
C1442 C989 2.058 . S
C502 C1008 1.557 . S
C1499 C1029 2.238 . S
C1049 C599 2.025 . S
C1068 C1579 2.164 . S
C622 C1088 1.634 . S
C1522 C1109 1.640 . S
C842 C1129 1.741 . S
C1149 C1822 1.689 . S
C1169 C1842 2.039 . S
C1799 C1189 1.679 . S
C922 C1209 1.423 . S
C802 C1229 1.349 . S
C942 C1249 1.924 . S
C902 C1269 1.845 . S
C662 C1289 1.964 . S
C1742 C1308 1.563 . S
C1329 C722 1.695 . S
C1702 C1349 1.942 . S
C1722 C1369 1.979 . S
C1389 C702 1.523 . S
C1409 C642 0.958 . S
C1429 C682 1.938 . S
C1448 C61 1.609 . S
C961 C1468 2.058 . S
C1489 C21 1.557 . S
C1508 C1018 2.238 . S
C1528 C118 2.025 . S
C1098 C1549 2.164 . S
C141 C1569 1.634 . S
C1588 C1041 1.640 . S
C361 C1608 1.741 . S
C1341 C1628 1.689 . S
C1648 C1361 2.039 . S
C1668 C1318 1.679 . S
C1688 C441 1.423 . S
C1708 C321 1.349 . S
C1728 C461 1.924 . S
C421 C1748 1.845 . S
C181 C1768 1.964 . S
C1789 C1261 1.563 . S
C1808 C241 1.695 . S
C1828 C1221 1.942 . S
C1241 C1848 1.979 . S
C221 C1868 1.523 . S
C161 C1888 0.958 . S
C1908 C201 1.938 . S
C19 C419 2.004 . S
C1302 C39 1.441 . S
C42 C1339 1.143 . S
C79 C1359 2.136 . S
C99 C1439 2.144 . S
C102 C439 1.425 . S
C1419 C122 1.195 . S
C339 C159 2.136 . S
C179 C319 2.188 . S
C259 C199 1.875 . S
C219 C279 1.775 . S
C239 C299 2.083 . S
C342 C999 1.369 . S
C379 C1002 1.179 . S
C399 C1039 2.114 . S
C459 C1082 1.248 . S
C1059 C479 2.130 . S
C498 C898 2.004 . S
C518 C1781 1.441 . S
C1818 C521 1.143 . S
C1838 C558 2.136 . S
C578 C1918 2.144 . S
C581 C918 1.425 . S
C1898 C601 1.195 . S
C638 C818 2.136 . S
C798 C658 2.188 . S
C738 C678 1.875 . S
C758 C698 1.775 . S
C718 C778 2.083 . S
C821 C1478 1.369 . S
C1481 C858 1.179 . S
C1518 C878 2.114 . S
C938 C1561 1.248 . S
C1538 C958 2.130 . S
C1379 C979 1.968 . S
C1399 C1062 1.404 . S
C1299 C1119 2.104 . S
C1139 C1279 2.175 . S
C1159 C1219 1.898 . S
C1239 C1179 1.683 . S
C1259 C1199 2.060 . S
C1458 C1858 1.968 . S
C1878 C1541 1.404 . S
C1598 C1778 2.104 . S
C1618 C1758 2.175 . S
C1698 C1638 1.898 . S
C1718 C1658 1.683 . S
C1678 C1738 2.060 . S
C18 C869 2.135 . S
C889 C38 1.629 . S
C828 C41 0.359 . S
C1809 C78 1.962 . S
C98 C1869 1.971 . S
C1889 C101 1.219 . S
C121 C1769 1.256 . S
C1909 C158 2.037 . S
C528 C178 1.810 . S
C1509 C198 1.635 . S
C218 C489 1.648 . S
C1469 C238 1.836 . S
C258 C608 1.315 . S
C278 C1589 1.594 . S
C298 C569 1.693 . S
C318 C1548 1.869 . S
C338 C1689 2.262 . S
C649 C341 1.623 . S
C1629 C378 1.942 . S
C398 C689 1.781 . S
C418 C709 2.127 . S
C438 C1729 2.011 . S
C458 C1749 1.744 . S
C478 C1709 2.105 . S
C388 C499 2.135 . S
C519 C408 1.629 . S
C349 C522 0.359 . S
C559 C1328 1.962 . S
C579 C1388 1.971 . S
C1408 C582 1.219 . S
C1288 C602 1.256 . S
C639 C1428 2.037 . S
C49 C659 1.810 . S
C679 C1028 1.635 . S
C699 C8 1.648 . S
C988 C719 1.836 . S
C129 C739 1.315 . S
C759 C1108 1.594 . S
C779 C88 1.693 . S
C1069 C799 1.869 . S
C819 C1208 2.262 . S
C822 C168 1.623 . S
C1148 C859 1.942 . S
C879 C208 1.781 . S
C228 C899 2.127 . S
C919 C1248 2.011 . S
C1268 C939 1.744 . S
C1228 C959 2.105 . S
C1829 C978 2.172 . S
C1849 C998 1.620 . S
C1001 C1788 0.383 . S
C1038 C849 1.945 . S
C1058 C909 2.012 . S
C1061 C929 1.234 . S
C809 C1081 1.270 . S
C949 C1118 2.012 . S
C1138 C1488 1.816 . S
C1158 C549 1.621 . S
C1178 C1449 1.372 . S
C1198 C509 1.799 . S
C1218 C1568 1.371 . S
C1238 C629 1.544 . S
C1258 C1529 1.529 . S
C1278 C588 1.826 . S
C729 C1298 2.216 . S
C1609 C1301 1.735 . S
C669 C1338 1.853 . S
C1649 C1358 1.835 . S
C1378 C1669 2.094 . S
C1398 C769 1.856 . S
C1418 C789 1.686 . S
C1438 C749 2.120 . S
C1348 C1459 2.172 . S
C1368 C1479 1.620 . S
C1482 C1309 0.383 . S
C1519 C368 1.945 . S
C428 C1539 2.012 . S
C1542 C448 1.234 . S
C328 C1562 1.270 . S
C468 C1599 2.012 . S
C1619 C1009 1.816 . S
C1639 C68 1.621 . S
C1659 C968 1.372 . S
C1679 C28 1.799 . S
C1089 C1699 1.371 . S
C148 C1719 1.544 . S
C1048 C1739 1.529 . S
C1759 C109 1.826 . S
C248 C1779 2.216 . S
C1782 C1128 1.735 . S
C1819 C188 1.853 . S
C1168 C1839 1.835 . S
C1859 C1188 2.094 . S
C1879 C288 1.856 . S
C308 C1899 1.686 . S
C1919 C268 2.120 . S
C2 C182 3.497 . S
C202 C22 3.787 . S
C59 C222 3.329 . S
C162 C62 3.061 . S
C302 C82 3.081 . S
C242 C119 3.357 . S
C139 C262 3.628 . S
C142 C282 3.560 . S
C322 C362 3.534 . S
C1402 C359 3.204 . S
C382 C1422 3.715 . S
C1382 C402 3.651 . S
C1362 C422 3.648 . S
C442 C1319 3.206 . S
C462 C1342 3.688 . S
C661 C481 3.497 . S
C501 C681 3.787 . S
C538 C701 3.329 . S
C641 C541 3.061 . S
C781 C561 3.081 . S
C721 C598 3.357 . S
C741 C618 3.628 . S
C761 C621 3.560 . S
C841 C801 3.534 . S
C838 C1881 3.204 . S
C861 C1901 3.715 . S
C881 C1861 3.651 . S
C1841 C901 3.648 . S
C1798 C921 3.206 . S
C1821 C941 3.688 . S
C962 C1142 3.530 . S
C982 C1162 3.839 . S
C1019 C1182 3.307 . S
C1022 C1122 3.044 . S
C1262 C1042 3.180 . S
C1079 C1202 3.378 . S
C1222 C1099 3.632 . S
C1242 C1102 3.617 . S
C1322 C1282 3.505 . S
C1441 C1621 3.530 . S
C1641 C1461 3.839 . S
C1498 C1661 3.307 . S
C1601 C1501 3.044 . S
C1521 C1741 3.180 . S
C1681 C1558 3.378 . S
C1578 C1701 3.632 . S
C1581 C1721 3.617 . S
C1761 C1801 3.505 . S
