# Generated by pormake.
# Topology uop, (4)-cn, num edge types: 1
# Building blocks:
#     Node 0, Type 0, BuildingBlock: ICAMEG_clean_sbu_1, # of connection points: 4
#     Node 1, Type 0, BuildingBlock: ICAMEG_clean_sbu_1, # of connection points: 4
#     Node 2, Type 0, BuildingBlock: ICAMEG_clean_sbu_1, # of connection points: 4
#     Node 3, Type 0, BuildingBlock: ICAMEG_clean_sbu_1, # of connection points: 4
#     Node 4, Type 0, BuildingBlock: ICAMEG_clean_sbu_1, # of connection points: 4
#     Node 5, Type 0, BuildingBlock: ICAMEG_clean_sbu_1, # of connection points: 4
#     Node 6, Type 0, BuildingBlock: ICAMEG_clean_sbu_1, # of connection points: 4
#     Node 7, Type 0, BuildingBlock: ICAMEG_clean_sbu_1, # of connection points: 4
#     Node 8, Type 0, BuildingBlock: ICAMEG_clean_sbu_1, # of connection points: 4
#     Node 9, Type 0, BuildingBlock: ICAMEG_clean_sbu_1, # of connection points: 4
#     Node 10, Type 0, BuildingBlock: ICAMEG_clean_sbu_1, # of connection points: 4
#     Node 11, Type 0, BuildingBlock: ICAMEG_clean_sbu_1, # of connection points: 4
#     Edge 12, Type (0, 0), BuildingBlock: TEMPAE_clean_linker_10, # of connection points: 2
#     Edge 13, Type (0, 0), BuildingBlock: TEMPAE_clean_linker_10, # of connection points: 2
#     Edge 14, Type (0, 0), BuildingBlock: TEMPAE_clean_linker_10, # of connection points: 2
#     Edge 15, Type (0, 0), BuildingBlock: TEMPAE_clean_linker_10, # of connection points: 2
#     Edge 16, Type (0, 0), BuildingBlock: TEMPAE_clean_linker_10, # of connection points: 2
#     Edge 17, Type (0, 0), BuildingBlock: TEMPAE_clean_linker_10, # of connection points: 2
#     Edge 18, Type (0, 0), BuildingBlock: TEMPAE_clean_linker_10, # of connection points: 2
#     Edge 19, Type (0, 0), BuildingBlock: TEMPAE_clean_linker_10, # of connection points: 2
#     Edge 20, Type (0, 0), BuildingBlock: TEMPAE_clean_linker_10, # of connection points: 2
#     Edge 21, Type (0, 0), BuildingBlock: TEMPAE_clean_linker_10, # of connection points: 2
#     Edge 22, Type (0, 0), BuildingBlock: TEMPAE_clean_linker_10, # of connection points: 2
#     Edge 23, Type (0, 0), BuildingBlock: TEMPAE_clean_linker_10, # of connection points: 2
#     Edge 24, Type (0, 0), BuildingBlock: TEMPAE_clean_linker_10, # of connection points: 2
#     Edge 25, Type (0, 0), BuildingBlock: TEMPAE_clean_linker_10, # of connection points: 2
#     Edge 26, Type (0, 0), BuildingBlock: TEMPAE_clean_linker_10, # of connection points: 2
#     Edge 27, Type (0, 0), BuildingBlock: TEMPAE_clean_linker_10, # of connection points: 2
#     Edge 28, Type (0, 0), BuildingBlock: TEMPAE_clean_linker_10, # of connection points: 2
#     Edge 29, Type (0, 0), BuildingBlock: TEMPAE_clean_linker_10, # of connection points: 2
#     Edge 30, Type (0, 0), BuildingBlock: TEMPAE_clean_linker_10, # of connection points: 2
#     Edge 31, Type (0, 0), BuildingBlock: TEMPAE_clean_linker_10, # of connection points: 2
#     Edge 32, Type (0, 0), BuildingBlock: TEMPAE_clean_linker_10, # of connection points: 2
#     Edge 33, Type (0, 0), BuildingBlock: TEMPAE_clean_linker_10, # of connection points: 2
#     Edge 34, Type (0, 0), BuildingBlock: TEMPAE_clean_linker_10, # of connection points: 2
#     Edge 35, Type (0, 0), BuildingBlock: TEMPAE_clean_linker_10, # of connection points: 2
# Relax obj value: 0.105
# Max RMSD: 0.102
# Mean RMSD: 0.102
data_MOF--net-uop--node1-ICAMEG_clean_sbu_1--edge1-TEMPAE_clean_linker_10
_symmetry_space_group_name_H-M    P1
_symmetry_Int_Tables_number       1
_symmetry_cell_setting            triclinic
loop_
_symmetry_equiv_pos_as_xyz
'x, y, z'
_cell_length_a     35.762173
_cell_length_b     35.79955
_cell_length_c     44.18678
_cell_angle_alpha  90.02624
_cell_angle_beta   89.985288
_cell_angle_gamma 119.99804
loop_
_atom_site_label
_atom_site_type_symbol
_atom_site_fract_x
_atom_site_fract_y
_atom_site_fract_z
_atom_type_partial_charge
Co0 Co 0.25171 0.43147 0.24241 0.0
Co1 Co 0.2425 0.36743 0.181 0.0
O2 O 0.23204 0.40966 0.2017 0.0
C3 C 0.29172 0.51005 0.20514 0.0
O4 O 0.3055 0.49051 0.18694 0.0
C5 C 0.14794 0.32731 0.18592 0.0
O6 O 0.15529 0.3411 0.21398 0.0
O7 O 0.22851 0.33052 0.21781 0.0
O8 O 0.2342 0.37288 0.25704 0.0
H9 H 0.30576 0.27078 0.16811 0.0
H10 H 0.19108 0.45197 0.21084 0.0
O11 O 0.26958 0.49086 0.22846 0.0
H12 H 0.1152 0.37494 0.30367 0.0
H13 H 0.272 0.52518 0.33304 0.0
H14 H 0.30024 0.41469 0.2897 0.0
H15 H 0.18911 0.38974 0.2931 0.0
H16 H 0.24632 0.49643 0.28176 0.0
O17 O 0.17955 0.33426 0.16875 0.0
H18 H 0.29275 0.324 0.19444 0.0
H19 H 0.21303 0.32105 0.12219 0.0
H20 H 0.32604 0.44216 0.34114 0.0
H21 H 0.11734 0.4382 0.22063 0.0
H22 H 0.31202 0.49788 0.36313 0.0
H23 H 0.07881 0.39921 0.26725 0.0
O24 O 0.31058 0.44149 0.23336 0.0
H25 H 0.21871 0.45616 0.10349 0.0
H26 H 0.31496 0.40243 0.13666 0.0
H27 H 0.33445 0.44953 0.0918 0.0
H28 H 0.28612 0.47671 0.07495 0.0
H29 H 0.20061 0.4092 0.14834 0.0
H30 H 0.2249 0.26753 0.09514 0.0
H31 H 0.27169 0.24218 0.11807 0.0
O32 O 0.30518 0.4 0.19341 0.0
C33 C 0.22659 0.33693 0.246 0.0
C34 C 0.28541 0.28167 0.15783 0.0
C35 C 0.23997 0.27979 0.1169 0.0
N36 N 0.25238 0.32577 0.15976 0.0
C37 C 0.27802 0.31188 0.1726 0.0
C38 C 0.23328 0.31001 0.13235 0.0
C39 C 0.26624 0.2656 0.12978 0.0
C40 C 0.17469 0.43539 0.23133 0.0
N41 N 0.19441 0.42174 0.2514 0.0
C42 C 0.13288 0.42754 0.2367 0.0
C43 C 0.11126 0.40561 0.26284 0.0
C44 C 0.13165 0.39194 0.28326 0.0
C45 C 0.17346 0.40031 0.27713 0.0
C46 C 0.27825 0.50086 0.32372 0.0
C47 C 0.29372 0.4387 0.29918 0.0
C48 C 0.26388 0.48455 0.29468 0.0
N49 N 0.27148 0.45368 0.28285 0.0
C50 C 0.30854 0.45424 0.3283 0.0
C51 C 0.30069 0.48552 0.3406 0.0
C52 C 0.32718 0.42741 0.21406 0.0
C53 C 0.23995 0.44441 0.11056 0.0
C54 C 0.29378 0.41414 0.12946 0.0
C55 C 0.30495 0.44075 0.10403 0.0
C56 C 0.27781 0.45598 0.09458 0.0
N57 N 0.25655 0.40288 0.14498 0.0
C58 C 0.22979 0.41767 0.13586 0.0
Co59 Co 0.83314 0.30074 0.58751 0.0
Co60 Co 0.87833 0.27723 0.52661 0.0
O61 O 0.82914 0.27015 0.5501 0.0
C62 C 0.78417 0.32468 0.54689 0.0
O63 O 0.81575 0.33565 0.52748 0.0
C64 C 0.8319 0.18353 0.54006 0.0
O65 O 0.83517 0.19369 0.56885 0.0
O66 O 0.90622 0.27027 0.56354 0.0
O67 O 0.88078 0.29218 0.60231 0.0
H68 H 0.03566 0.33663 0.5037 0.0
H69 H 0.7487 0.22798 0.56771 0.0
O70 O 0.78553 0.3098 0.57277 0.0
H71 H 0.77646 0.18539 0.66762 0.0
H72 H 0.77115 0.34162 0.67539 0.0
H73 H 0.90469 0.36688 0.62475 0.0
H74 H 0.82834 0.25579 0.64536 0.0
H75 H 0.76778 0.30113 0.62924 0.0
O76 O 0.84717 0.21292 0.51985 0.0
H77 H 0.97349 0.32868 0.53319 0.0
H78 H 0.88673 0.23756 0.4696 0.0
H79 H 0.90958 0.40786 0.67091 0.0
H80 H 0.69582 0.15742 0.58922 0.0
H81 H 0.84243 0.39534 0.69655 0.0
H82 H 0.70961 0.1357 0.6395 0.0
O83 O 0.87632 0.35682 0.56969 0.0
H84 H 0.75424 0.23928 0.45602 0.0
H85 H 0.90846 0.34045 0.47574 0.0
H86 H 0.87377 0.35125 0.43097 0.0
H87 H 0.79611 0.30043 0.42087 0.0
H88 H 0.79014 0.22986 0.50063 0.0
H89 H 0.94795 0.24422 0.43955 0.0
H90 H 0.02305 0.29418 0.45651 0.0
O91 O 0.91 0.3416 0.53288 0.0
C92 C 0.90527 0.27911 0.59142 0.0
C93 C 0.00309 0.31486 0.49602 0.0
C94 C 0.95386 0.26294 0.46004 0.0
N95 N 0.92658 0.28298 0.50297 0.0
C96 C 0.96777 0.31032 0.51257 0.0
C97 C 0.91933 0.25924 0.47717 0.0
C98 C 0.99599 0.291 0.46956 0.0
C99 C 0.75475 0.2189 0.58971 0.0
N100 N 0.7914 0.24606 0.60535 0.0
C101 C 0.72476 0.17885 0.60173 0.0
C102 C 0.73255 0.16666 0.62993 0.0
C103 C 0.77006 0.19452 0.64571 0.0
C104 C 0.79934 0.2343 0.63298 0.0
C105 C 0.80062 0.34714 0.66454 0.0
C106 C 0.87536 0.36084 0.63601 0.0
C107 C 0.79892 0.32434 0.6384 0.0
N108 N 0.83602 0.33119 0.62458 0.0
C109 C 0.87832 0.38428 0.66206 0.0
C110 C 0.84064 0.37726 0.67642 0.0
C111 C 0.90546 0.36837 0.54947 0.0
C112 C 0.78813 0.26157 0.46012 0.0
C113 C 0.87465 0.31822 0.47151 0.0
C114 C 0.8552 0.32446 0.4461 0.0
C115 C 0.81163 0.29592 0.44044 0.0
N116 N 0.8514 0.28443 0.49069 0.0
C117 C 0.80867 0.25629 0.48528 0.0
Co118 Co 0.5661 0.8045 0.90591 0.0
Co119 Co 0.63547 0.86077 0.84726 0.0
O120 O 0.59403 0.80749 0.86749 0.0
C121 C 0.49306 0.75845 0.86431 0.0
O122 O 0.51244 0.79177 0.84612 0.0
C123 C 0.68282 0.8143 0.85811 0.0
O124 O 0.66919 0.81041 0.88613 0.0
O125 O 0.66789 0.88633 0.88556 0.0
O126 O 0.62086 0.85091 0.92298 0.0
H127 H 0.7253 0.02129 0.83376 0.0
H128 H 0.55798 0.72493 0.87895 0.0
O129 O 0.51039 0.7579 0.88932 0.0
H130 H 0.62777 0.74041 0.97801 0.0
H131 H 0.46421 0.72732 0.9921 0.0
H132 H 0.56909 0.86899 0.94949 0.0
H133 H 0.6066 0.79305 0.96152 0.0
H134 H 0.50126 0.73221 0.9439 0.0
O135 O 0.67282 0.83442 0.83882 0.0
H136 H 0.6725 0.95419 0.85939 0.0
H137 H 0.68783 0.87945 0.79105 0.0
H138 H 0.53312 0.86558 0.99786 0.0
H139 H 0.57836 0.67138 0.89463 0.0
H140 H 0.48021 0.79434 0.01947 0.0
H141 H 0.61367 0.67905 0.94444 0.0
O142 O 0.55129 0.84853 0.8924 0.0
H143 H 0.56041 0.74468 0.76904 0.0
H144 H 0.601 0.89303 0.79873 0.0
H145 H 0.55919 0.86211 0.75192 0.0
H146 H 0.53866 0.78742 0.73679 0.0
H147 H 0.60192 0.77674 0.81579 0.0
H148 H 0.74105 0.94577 0.76475 0.0
H149 H 0.75996 0.01731 0.78607 0.0
O150 O 0.59854 0.88742 0.85573 0.0
C151 C 0.65757 0.88011 0.9135 0.0
C152 C 0.71722 0.99031 0.82419 0.0
C153 C 0.72611 0.94791 0.78548 0.0
N154 N 0.67688 0.913 0.82658 0.0
C155 C 0.68726 0.95221 0.83855 0.0
C156 C 0.69603 0.91049 0.80049 0.0
C157 C 0.73669 0.98805 0.79745 0.0
C158 C 0.57294 0.72823 0.90079 0.0
N159 N 0.58088 0.76194 0.91936 0.0
C160 C 0.58457 0.69791 0.90949 0.0
C161 C 0.60443 0.70227 0.93743 0.0
C162 C 0.61237 0.73671 0.95626 0.0
C163 C 0.60037 0.76645 0.94679 0.0
C164 C 0.48727 0.75854 0.98295 0.0
C165 C 0.54636 0.83786 0.95885 0.0
C166 C 0.50829 0.76151 0.95565 0.0
N167 N 0.53759 0.80083 0.94404 0.0
C168 C 0.52598 0.83614 0.98621 0.0
C169 C 0.49627 0.79616 0.9983 0.0
C170 C 0.56706 0.87956 0.8734 0.0
C171 C 0.56927 0.7773 0.77534 0.0
C172 C 0.59213 0.86049 0.79232 0.0
C173 C 0.56852 0.84318 0.76576 0.0
C174 C 0.55703 0.80128 0.75728 0.0
N175 N 0.60408 0.83679 0.80988 0.0
C176 C 0.59292 0.79568 0.80173 0.0
Co177 Co 0.72064 0.53882 0.26102 0.0
Co178 Co 0.74175 0.61838 0.20846 0.0
O179 O 0.74914 0.57184 0.2247 0.0
C180 C 0.69444 0.47327 0.21353 0.0
O181 O 0.68182 0.49608 0.19781 0.0
C182 C 0.83579 0.65722 0.21808 0.0
O183 O 0.82596 0.63832 0.24465 0.0
O184 O 0.75182 0.64587 0.24899 0.0
O185 O 0.73029 0.59173 0.28264 0.0
H186 H 0.68321 0.71995 0.20689 0.0
H187 H 0.79182 0.53086 0.23313 0.0
O188 O 0.71062 0.48547 0.23979 0.0
H189 H 0.8408 0.5838 0.33679 0.0
H190 H 0.68461 0.42179 0.33788 0.0
H191 H 0.65646 0.53685 0.30448 0.0
H192 H 0.76912 0.56872 0.31917 0.0
H193 H 0.72243 0.46671 0.29346 0.0
O194 O 0.8058 0.65302 0.20028 0.0
H195 H 0.69179 0.66027 0.22678 0.0
H196 H 0.77856 0.67725 0.15548 0.0
H197 H 0.61815 0.49292 0.34913 0.0
H198 H 0.86359 0.54522 0.2499 0.0
H199 H 0.63216 0.4349 0.36608 0.0
H200 H 0.88858 0.57207 0.30203 0.0
O201 O 0.66368 0.52877 0.24679 0.0
H202 H 0.77419 0.54707 0.12253 0.0
H203 H 0.67572 0.59577 0.16002 0.0
H204 H 0.6619 0.5597 0.11038 0.0
H205 H 0.71137 0.5351 0.09132 0.0
H206 H 0.78662 0.58303 0.17214 0.0
H207 H 0.77122 0.73736 0.13493 0.0
H208 H 0.72312 0.75893 0.16063 0.0
O209 O 0.6775 0.58446 0.21629 0.0
C210 C 0.74416 0.63114 0.27591 0.0
C211 C 0.70414 0.71074 0.19542 0.0
C212 C 0.75358 0.72055 0.15505 0.0
N213 N 0.73532 0.66509 0.19214 0.0
C214 C 0.70901 0.6769 0.20652 0.0
C215 C 0.75767 0.68657 0.16682 0.0
C216 C 0.72658 0.73263 0.16948 0.0
C217 C 0.80226 0.54206 0.25597 0.0
N218 N 0.77623 0.54875 0.27519 0.0
C219 C 0.84301 0.55032 0.26529 0.0
C220 C 0.85704 0.56546 0.29452 0.0
C221 C 0.83026 0.57208 0.31403 0.0
C222 C 0.78974 0.56356 0.30391 0.0
C223 C 0.67842 0.44714 0.33081 0.0
C224 C 0.66311 0.51201 0.31195 0.0
C225 C 0.69973 0.47267 0.30569 0.0
N226 N 0.69213 0.50479 0.29668 0.0
C227 C 0.64117 0.48711 0.33716 0.0
C228 C 0.649 0.45452 0.34663 0.0
C229 C 0.65129 0.54988 0.23041 0.0
C230 C 0.75248 0.55776 0.13054 0.0
C231 C 0.69735 0.58511 0.1519 0.0
C232 C 0.68941 0.56477 0.12375 0.0
C233 C 0.71719 0.55099 0.11307 0.0
N234 N 0.73207 0.59168 0.16888 0.0
C235 C 0.75945 0.57828 0.15856 0.0
Co236 Co 0.18735 0.76473 0.56298 0.0
Co237 Co 0.12168 0.77784 0.51201 0.0
O238 O 0.17802 0.78984 0.52681 0.0
C239 C 0.22914 0.7413 0.51507 0.0
O240 O 0.19317 0.72548 0.49944 0.0
C241 C 0.171 0.87094 0.52331 0.0
O242 O 0.17945 0.86032 0.54979 0.0
O243 O 0.10265 0.78429 0.55311 0.0
O244 O 0.14307 0.77121 0.58548 0.0
H245 H 0.95983 0.70635 0.51214 0.0
H246 H 0.26192 0.838 0.53264 0.0
O247 O 0.23205 0.75784 0.54105 0.0
H248 H 0.2602 0.88872 0.63612 0.0
H249 H 0.27854 0.74076 0.63864 0.0
H250 H 0.13037 0.70126 0.60885 0.0
H251 H 0.20616 0.81499 0.62038 0.0
H252 H 0.26567 0.77333 0.5935 0.0
O253 O 0.14653 0.84149 0.50471 0.0
H254 H 0.03079 0.72081 0.53093 0.0
H255 H 0.09381 0.81188 0.46055 0.0
H256 H 0.14179 0.66823 0.65428 0.0
H257 H 0.31679 0.91183 0.54753 0.0
H258 H 0.21633 0.68793 0.66943 0.0
H259 H 0.31602 0.93769 0.59955 0.0
O260 O 0.14228 0.7059 0.55022 0.0
H261 H 0.22411 0.82003 0.42407 0.0
H262 H 0.08152 0.71156 0.4635 0.0
H263 H 0.10442 0.7013 0.41301 0.0
H264 H 0.17618 0.75582 0.39297 0.0
H265 H 0.20006 0.82886 0.47454 0.0
H266 H 0.02352 0.79865 0.4411 0.0
H267 H 0.9559 0.74542 0.46689 0.0
O268 O 0.09671 0.71432 0.51957 0.0
C269 C 0.11287 0.77919 0.5798 0.0
C270 C 0.98905 0.7295 0.50063 0.0
C271 C 0.02481 0.78136 0.46079 0.0
N272 N 0.06633 0.76689 0.49669 0.0
C273 C 0.02931 0.73773 0.51111 0.0
C274 C 0.0645 0.78879 0.47193 0.0
C275 C 0.98688 0.75147 0.47527 0.0
C276 C 0.26169 0.84884 0.55543 0.0
N277 N 0.23102 0.82212 0.57566 0.0
C278 C 0.29274 0.89074 0.5637 0.0
C279 C 0.29224 0.90525 0.59288 0.0
C280 C 0.26089 0.87781 0.61339 0.0
C281 C 0.23033 0.83612 0.60433 0.0
C282 C 0.24592 0.73199 0.63231 0.0
C283 C 0.16292 0.71024 0.61542 0.0
C284 C 0.23844 0.75027 0.60675 0.0
N285 N 0.19734 0.73951 0.59872 0.0
C286 C 0.16918 0.69132 0.64111 0.0
C287 C 0.211 0.70236 0.64958 0.0
C288 C 0.10796 0.69069 0.53426 0.0
C289 C 0.19272 0.79612 0.43251 0.0
C290 C 0.11281 0.73539 0.45495 0.0
C291 C 0.12558 0.72944 0.42633 0.0
C292 C 0.16583 0.76005 0.41509 0.0
N293 N 0.13933 0.77091 0.47187 0.0
C294 C 0.17886 0.80103 0.46103 0.0
Co295 Co 0.45293 0.15884 0.91248 0.0
Co296 Co 0.37418 0.10054 0.85927 0.0
O297 O 0.41993 0.15446 0.87622 0.0
C298 C 0.51867 0.20032 0.86528 0.0
O299 O 0.49621 0.16542 0.84895 0.0
C300 C 0.33372 0.15344 0.87088 0.0
O301 O 0.35265 0.16162 0.89743 0.0
O302 O 0.34659 0.08094 0.89962 0.0
O303 O 0.40012 0.1147 0.93359 0.0
H304 H 0.27564 0.94003 0.85459 0.0
H305 H 0.4598 0.23794 0.88552 0.0
O306 O 0.50622 0.20312 0.89173 0.0
H307 H 0.40578 0.23089 0.98926 0.0
H308 H 0.56935 0.23929 0.99001 0.0
H309 H 0.45543 0.09628 0.95523 0.0
H310 H 0.42212 0.17551 0.97092 0.0
H311 H 0.5244 0.23255 0.94567 0.0
O312 O 0.33841 0.12884 0.85224 0.0
H313 H 0.33416 0.00814 0.87567 0.0
H314 H 0.31521 0.07924 0.80642 0.0
H315 H 0.49927 0.10154 -0.00015 0.0
H316 H 0.44416 0.29414 0.90302 0.0
H317 H 0.5568 0.17346 0.01746 0.0
H318 H 0.41676 0.29072 0.95519 0.0
O319 O 0.46388 0.11282 0.89768 0.0
H320 H 0.44371 0.2078 0.77505 0.0
H321 H 0.39863 0.06029 0.80967 0.0
H322 H 0.43474 0.08505 0.76022 0.0
H323 H 0.45751 0.15929 0.74261 0.0
H324 H 0.40777 0.18182 0.82445 0.0
H325 H 0.25623 0.01195 0.78472 0.0
H326 H 0.23623 0.9417 0.80879 0.0
O327 O 0.40926 0.07141 0.86618 0.0
C328 C 0.36105 0.088 0.92663 0.0
C329 C 0.28416 0.97042 0.84384 0.0
C330 C 0.27322 0.0108 0.80464 0.0
N331 N 0.3283 0.04752 0.84212 0.0
C332 C 0.31734 0.00906 0.85561 0.0
C333 C 0.30658 0.04878 0.81706 0.0
C334 C 0.26203 0.97139 0.81815 0.0
C335 C 0.44837 0.2365 0.90838 0.0
N336 N 0.44209 0.2036 0.92723 0.0
C337 C 0.43939 0.26832 0.91811 0.0
C338 C 0.42394 0.26633 0.94737 0.0
C339 C 0.41774 0.23275 0.96649 0.0
C340 C 0.42698 0.20145 0.95597 0.0
C341 C 0.54423 0.20779 0.98264 0.0
C342 C 0.47999 0.12772 0.96301 0.0
C343 C 0.51869 0.20378 0.95755 0.0
N344 N 0.4869 0.16409 0.94815 0.0
C345 C 0.50487 0.13048 0.98819 0.0
C346 C 0.53718 0.17084 0.99804 0.0
C347 C 0.44357 0.07984 0.8807 0.0
C348 C 0.43382 0.17534 0.78244 0.0
C349 C 0.4085 0.09266 0.80219 0.0
C350 C 0.42886 0.10647 0.77414 0.0
C351 C 0.44161 0.14813 0.76427 0.0
N352 N 0.40092 0.11953 0.81985 0.0
C353 C 0.41332 0.1604 0.81033 0.0
Co354 Co 0.57682 0.76714 0.41984 0.0
Co355 Co 0.6362 0.77715 0.484 0.0
O356 O 0.5989 0.79054 0.45976 0.0
C357 C 0.49843 0.73971 0.45567 0.0
O358 O 0.51521 0.72522 0.47568 0.0
C359 C 0.68855 0.87163 0.47565 0.0
O360 O 0.68445 0.86428 0.44642 0.0
O361 O 0.67451 0.78495 0.44873 0.0
O362 O 0.63367 0.77554 0.40766 0.0
H363 H 0.72174 0.70435 0.50793 0.0
H364 H 0.56608 0.83826 0.4444 0.0
O365 O 0.51908 0.75807 0.43166 0.0
H366 H 0.64965 0.89528 0.35022 0.0
H367 H 0.4891 0.74657 0.32578 0.0
H368 H 0.58634 0.70739 0.37824 0.0
H369 H 0.6254 0.82075 0.36662 0.0
H370 H 0.51838 0.77647 0.37623 0.0
O371 O 0.67186 0.84032 0.49439 0.0
H372 H 0.67404 0.7204 0.47706 0.0
H373 H 0.67909 0.80819 0.54383 0.0
H374 H 0.55821 0.67712 0.32772 0.0
H375 H 0.58947 0.91292 0.42878 0.0
H376 H 0.50916 0.69665 0.30115 0.0
H377 H 0.63167 0.94191 0.38141 0.0
O378 O 0.55934 0.70757 0.43344 0.0
H379 H 0.5486 0.81528 0.55313 0.0
H380 H 0.59379 0.70864 0.53083 0.0
H381 H 0.54438 0.69598 0.57351 0.0
H382 H 0.52149 0.74955 0.58491 0.0
H383 H 0.59767 0.82649 0.51052 0.0
H384 H 0.72713 0.79332 0.57535 0.0
H385 H 0.74862 0.74094 0.55747 0.0
O386 O 0.60054 0.71415 0.47382 0.0
C387 C 0.66851 0.78207 0.42014 0.0
C388 C 0.71251 0.72714 0.51601 0.0
C389 C 0.71559 0.77713 0.55383 0.0
N390 N 0.67359 0.76498 0.50874 0.0
C391 C 0.68542 0.73627 0.49867 0.0
C392 C 0.68848 0.7855 0.53586 0.0
C393 C 0.72761 0.74772 0.54379 0.0
C394 C 0.58414 0.85055 0.42364 0.0
N395 N 0.59421 0.82513 0.40637 0.0
C396 C 0.59742 0.89289 0.41496 0.0
C397 C 0.62114 0.90915 0.3884 0.0
C398 C 0.63126 0.88301 0.3709 0.0
C399 C 0.61752 0.84086 0.38032 0.0
C400 C 0.5105 0.73788 0.33711 0.0
C401 C 0.56527 0.71629 0.36674 0.0
C402 C 0.52709 0.75463 0.3657 0.0
N403 N 0.5543 0.74395 0.38005 0.0
C404 C 0.54932 0.69894 0.33817 0.0
C405 C 0.52178 0.70988 0.32329 0.0
C406 C 0.57186 0.6914 0.45413 0.0
C407 C 0.55846 0.79178 0.54846 0.0
C408 C 0.58398 0.7321 0.53564 0.0
C409 C 0.55603 0.72478 0.55987 0.0
C410 C 0.54322 0.75486 0.56625 0.0
N411 N 0.59887 0.76844 0.51834 0.0
C412 C 0.58641 0.79805 0.52445 0.0
Co413 Co 0.82598 0.53258 0.74184 0.0
Co414 Co 0.87855 0.60404 0.80024 0.0
O415 O 0.82666 0.56112 0.77953 0.0
C416 C 0.78158 0.46152 0.78485 0.0
O417 O 0.81526 0.48242 0.80256 0.0
C418 C 0.8625 0.67757 0.80361 0.0
O419 O 0.90213 0.70178 0.79367 0.0
O420 O 0.90184 0.6367 0.76182 0.0
O421 O 0.87135 0.5879 0.7244 0.0
H422 H 0.03807 0.70329 0.81335 0.0
H423 H 0.74433 0.52213 0.76694 0.0
O424 O 0.78037 0.47682 0.75911 0.0
H425 H 0.75876 0.58591 0.6657 0.0
H426 H 0.75381 0.42554 0.65738 0.0
H427 H 0.89284 0.53627 0.70024 0.0
H428 H 0.81373 0.56932 0.68465 0.0
H429 H 0.75589 0.46466 0.70396 0.0
O430 O 0.84773 0.63735 0.80815 0.0
H431 H 0.97231 0.64837 0.78736 0.0
H432 H 0.89433 0.65257 0.85827 0.0
H433 H 0.89225 0.49823 0.65352 0.0
H434 H 0.68848 0.53796 0.74881 0.0
H435 H 0.82235 0.44242 0.63178 0.0
H436 H 0.69554 0.57012 0.69785 0.0
O437 O 0.87124 0.5205 0.75685 0.0
H438 H 0.7627 0.52275 0.87757 0.0
H439 H 0.91356 0.57202 0.84878 0.0
H440 H 0.88364 0.52868 0.89508 0.0
H441 H 0.8077 0.50378 0.90976 0.0
H442 H 0.79379 0.56585 0.83132 0.0
H443 H 0.95923 0.70757 0.88505 0.0
H444 H 0.03173 0.73326 0.86256 0.0
O445 O 0.90918 0.57071 0.79206 0.0
C446 C 0.89721 0.6259 0.73396 0.0
C447 C 0.00666 0.69231 0.8234 0.0
C448 C 0.96241 0.69471 0.86364 0.0
N449 N 0.92961 0.64719 0.82136 0.0
C450 C 0.96935 0.6612 0.80881 0.0
C451 C 0.92581 0.66355 0.84841 0.0
C452 C 0.00308 0.70911 0.85101 0.0
C453 C 0.74748 0.53587 0.74466 0.0
N454 N 0.7821 0.54455 0.7268 0.0
C455 C 0.71582 0.54487 0.73455 0.0
C456 C 0.71982 0.56296 0.70597 0.0
C457 C 0.7553 0.57185 0.68793 0.0
C458 C 0.78635 0.56246 0.6988 0.0
C459 C 0.78445 0.45 0.66653 0.0
C460 C 0.86227 0.5124 0.69072 0.0
C461 C 0.78583 0.47221 0.6929 0.0
N462 N 0.82442 0.50316 0.70455 0.0
C463 C 0.86215 0.49084 0.66432 0.0
C464 C 0.82292 0.4595 0.65216 0.0
C465 C 0.90254 0.53862 0.7755 0.0
C466 C 0.79589 0.53355 0.87147 0.0
C467 C 0.88047 0.56126 0.85498 0.0
C468 C 0.86373 0.5368 0.88126 0.0
C469 C 0.82113 0.52285 0.8895 0.0
N470 N 0.85554 0.57173 0.83745 0.0
C471 C 0.81373 0.55814 0.84538 0.0
Co472 Co 0.25265 0.81224 0.09751 0.0
Co473 Co 0.2413 0.87343 0.1534 0.0
O474 O 0.23118 0.81872 0.13648 0.0
C475 C 0.2889 0.77551 0.14012 0.0
O476 O 0.30377 0.81092 0.15624 0.0
C477 C 0.14691 0.81888 0.14783 0.0
O478 O 0.1549 0.81049 0.12046 0.0
O479 O 0.22826 0.89205 0.11417 0.0
O480 O 0.23804 0.85322 0.07843 0.0
H481 H 0.30394 0.0341 0.15633 0.0
H482 H 0.18844 0.73466 0.13091 0.0
O483 O 0.2677 0.77085 0.11595 0.0
H484 H 0.11924 0.73049 0.03348 0.0
H485 H 0.27466 0.72835 0.01476 0.0
H486 H 0.30571 0.87232 0.04874 0.0
H487 H 0.19324 0.78893 0.04455 0.0
H488 H 0.24664 0.73732 0.06363 0.0
O489 O 0.17812 0.84491 0.16475 0.0
H490 H 0.29164 0.9652 0.13491 0.0
H491 H 0.21058 0.8968 0.20905 0.0
H492 H 0.33398 0.86476 -0.0004 0.0
H493 H 0.11452 0.67543 0.12067 0.0
H494 H 0.31853 0.79236 0.98234 0.0
H495 H 0.07936 0.67322 0.07172 0.0
O496 O 0.31156 0.86069 0.10677 0.0
H497 H 0.21551 0.77011 0.23846 0.0
H498 H 0.31262 0.91587 0.19832 0.0
H499 H 0.33088 0.89353 0.24629 0.0
H500 H 0.28211 0.82017 0.26668 0.0
H501 H 0.19865 0.79368 0.19046 0.0
H502 H 0.22174 0.96494 0.2312 0.0
H503 H 0.26884 0.03423 0.20483 0.0
O504 O 0.30433 0.90218 0.14195 0.0
C505 C 0.22918 0.882 0.0866 0.0
C506 C 0.28346 0.00414 0.16809 0.0
C507 C 0.23727 0.96531 0.21009 0.0
N508 N 0.25069 0.92712 0.17085 0.0
C509 C 0.27649 0.96505 0.15612 0.0
C510 C 0.23099 0.92684 0.19742 0.0
C511 C 0.26372 0.00418 0.19528 0.0
C512 C 0.17354 0.73365 0.10941 0.0
N513 N 0.1952 0.76513 0.0883 0.0
C514 C 0.13162 0.70012 0.10379 0.0
C515 C 0.11188 0.69894 0.07634 0.0
C516 C 0.13423 0.73109 0.05489 0.0
C517 C 0.17609 0.76416 0.0613 0.0
C518 C 0.28154 0.76005 0.02201 0.0
C519 C 0.29857 0.84065 0.04128 0.0
C520 C 0.26583 0.76533 0.04968 0.0
N521 N 0.27422 0.80524 0.05889 0.0
C522 C 0.31479 0.8366 0.01348 0.0
C523 C 0.30614 0.79598 0.00382 0.0
C524 C 0.3273 0.89386 0.1239 0.0
C525 C 0.23695 0.8022 0.22986 0.0
C526 C 0.29127 0.88389 0.20703 0.0
C527 C 0.30174 0.87144 0.23423 0.0
C528 C 0.27435 0.83029 0.24566 0.0
N529 N 0.25447 0.85619 0.19171 0.0
C530 C 0.22748 0.81578 0.20275 0.0
Co531 Co 0.45528 0.29664 0.42068 0.0
Co532 Co 0.37563 0.27793 0.47266 0.0
O533 O 0.42169 0.26926 0.45697 0.0
C534 C 0.51987 0.32179 0.46882 0.0
O535 O 0.49743 0.33521 0.48422 0.0
C536 C 0.33553 0.18453 0.46247 0.0
O537 O 0.35498 0.19479 0.43609 0.0
O538 O 0.3487 0.26829 0.43201 0.0
O539 O 0.40288 0.28749 0.39859 0.0
H540 H 0.27676 0.33978 0.47333 0.0
H541 H 0.46137 0.2251 0.44967 0.0
O542 O 0.50804 0.30602 0.44242 0.0
H543 H 0.40922 0.1751 0.34602 0.0
H544 H 0.57307 0.32994 0.34482 0.0
H545 H 0.45843 0.3601 0.37614 0.0
H546 H 0.42547 0.24742 0.36282 0.0
H547 H 0.52743 0.29336 0.38925 0.0
O548 O 0.33989 0.21415 0.48067 0.0
H549 H 0.33571 0.32954 0.45384 0.0
H550 H 0.31578 0.24207 0.52521 0.0
H551 H 0.50297 0.39704 0.33141 0.0
H552 H 0.44583 0.1527 0.43373 0.0
H553 H 0.56081 0.38207 0.31551 0.0
H554 H 0.41934 0.12719 0.38161 0.0
O555 O 0.46607 0.35402 0.43421 0.0
H556 H 0.44381 0.24349 0.55959 0.0
H557 H 0.39919 0.34446 0.52081 0.0
H558 H 0.43443 0.35767 0.57075 0.0
H559 H 0.45696 0.30694 0.59044 0.0
H560 H 0.40874 0.23168 0.50967 0.0
H561 H 0.25635 0.25103 0.54533 0.0
H562 H 0.23664 0.30034 0.5194 0.0
O563 O 0.41068 0.34185 0.46463 0.0
C564 C 0.36363 0.27488 0.40516 0.0
C565 C 0.28515 0.31833 0.48489 0.0
C566 C 0.27366 0.26847 0.52528 0.0
N567 N 0.32938 0.28557 0.48855 0.0
C568 C 0.31858 0.31252 0.47402 0.0
C569 C 0.30726 0.26346 0.51376 0.0
C570 C 0.26262 0.29615 0.51072 0.0
C571 C 0.45037 0.21445 0.42683 0.0
N572 N 0.44456 0.24056 0.40715 0.0
C573 C 0.44143 0.17334 0.41798 0.0
C574 C 0.4265 0.15902 0.38875 0.0
C575 C 0.42078 0.18587 0.36878 0.0
C576 C 0.42998 0.22676 0.37843 0.0
C577 C 0.5478 0.33655 0.35143 0.0
C578 C 0.48316 0.353 0.36913 0.0
C579 C 0.52189 0.31596 0.37657 0.0
N580 N 0.4899 0.32415 0.38502 0.0
C581 C 0.50843 0.37418 0.34388 0.0
C582 C 0.54091 0.3658 0.33499 0.0
C583 C 0.44534 0.36723 0.45025 0.0
C584 C 0.43402 0.26575 0.55129 0.0
C585 C 0.40896 0.32228 0.52922 0.0
C586 C 0.42883 0.32988 0.55753 0.0
C587 C 0.44145 0.30139 0.56857 0.0
N588 N 0.40173 0.28721 0.51243 0.0
C589 C 0.414 0.25913 0.5231 0.0
Co590 Co 0.18207 0.41879 0.75669 0.0
Co591 Co 0.1213 0.34726 0.81319 0.0
O592 O 0.17607 0.39056 0.79545 0.0
C593 C 0.22302 0.49134 0.79959 0.0
O594 O 0.1882 0.47174 0.81644 0.0
C595 C 0.17284 0.30479 0.8055 0.0
O596 O 0.1805 0.32114 0.77813 0.0
O597 O 0.1001 0.31578 0.77401 0.0
O598 O 0.1392 0.36364 0.73794 0.0
H599 H 0.95996 0.25431 0.8195 0.0
H600 H 0.25964 0.42916 0.78857 0.0
O601 O 0.22556 0.47468 0.77481 0.0
H602 H 0.25882 0.36437 0.68989 0.0
H603 H 0.26495 0.52349 0.67313 0.0
H604 H 0.12094 0.41335 0.70928 0.0
H605 H 0.20232 0.38214 0.70255 0.0
H606 H 0.25679 0.48648 0.72184 0.0
O607 O 0.14823 0.31093 0.82324 0.0
H608 H 0.02887 0.30901 0.79684 0.0
H609 H 0.09851 0.29288 0.86862 0.0
H610 H 0.12767 0.44918 0.66032 0.0
H611 H 0.31701 0.41232 0.77674 0.0
H612 H 0.2001 0.50475 0.64195 0.0
H613 H 0.31669 0.37946 0.72717 0.0
O614 O 0.13516 0.43115 0.76728 0.0
H615 H 0.22919 0.42214 0.89644 0.0
H616 H 0.08275 0.37832 0.85964 0.0
H617 H 0.10829 0.41884 0.9075 0.0
H618 H 0.182 0.44099 0.9262 0.0
H619 H 0.20246 0.38185 0.84859 0.0
H620 H 0.03035 0.23775 0.89197 0.0
H621 H 0.96044 0.21827 0.86742 0.0
O622 O 0.09419 0.38319 0.803 0.0
C623 C 0.10971 0.32648 0.74637 0.0
C624 C 0.99021 0.2626 0.83046 0.0
C625 C 0.02972 0.25326 0.87111 0.0
N626 N 0.0676 0.30427 0.8315 0.0
C627 C 0.02931 0.29363 0.81778 0.0
C628 C 0.0682 0.2844 0.85775 0.0
C629 C 0.9905 0.24236 0.85733 0.0
C630 C 0.25954 0.4153 0.76681 0.0
N631 N 0.22769 0.4067 0.74625 0.0
C632 C 0.29203 0.40569 0.76029 0.0
C633 C 0.29179 0.38719 0.73249 0.0
C634 C 0.25929 0.37866 0.71158 0.0
C635 C 0.2273 0.38867 0.7189 0.0
C636 C 0.23324 0.49929 0.68086 0.0
C637 C 0.15261 0.43727 0.70135 0.0
C638 C 0.22841 0.47831 0.70845 0.0
N639 N 0.18848 0.44755 0.71827 0.0
C640 C 0.1562 0.45755 0.67365 0.0
C641 C 0.19684 0.48874 0.66337 0.0
C642 C 0.10268 0.41459 0.78511 0.0
C643 C 0.19696 0.41255 0.88858 0.0
C644 C 0.11488 0.38788 0.86762 0.0
C645 C 0.12914 0.41076 0.89475 0.0
C646 C 0.17049 0.42317 0.90524 0.0
N647 N 0.141 0.37752 0.85143 0.0
C648 C 0.18159 0.38958 0.86156 0.0
Co649 Co 0.71984 0.1758 0.07598 0.0
Co650 Co 0.74204 0.11935 0.12962 0.0
O651 O 0.74899 0.17258 0.11235 0.0
C652 C 0.6939 0.21611 0.12291 0.0
O653 O 0.68232 0.1814 0.13924 0.0
C654 C 0.83569 0.17412 0.11828 0.0
O655 O 0.8249 0.18212 0.0917 0.0
O656 O 0.75049 0.09977 0.08938 0.0
O657 O 0.72984 0.13233 0.0551 0.0
H658 H 0.68323 0.95939 0.13485 0.0
H659 H 0.79083 0.25601 0.10278 0.0
O660 O 0.70945 0.21934 0.09651 0.0
H661 H 0.83887 0.24964 -0.00075 0.0
H662 H 0.6814 0.2536 0.99798 0.0
H663 H 0.6556 0.11201 0.03332 0.0
H664 H 0.76766 0.19311 0.01763 0.0
H665 H 0.72028 0.24829 0.04245 0.0
O666 O 0.80637 0.14895 0.13673 0.0
H667 H 0.69125 0.02671 0.11352 0.0
H668 H 0.78061 0.09966 0.18272 0.0
H669 H 0.61628 0.11583 0.98864 0.0
H670 H 0.86213 0.31336 0.08525 0.0
H671 H 0.62904 0.18703 0.97075 0.0
H672 H 0.88664 0.31029 0.03319 0.0
O673 O 0.66324 0.12894 0.09079 0.0
H674 H 0.77763 0.22717 0.2132 0.0
H675 H 0.67767 0.07848 0.17934 0.0
H676 H 0.66557 0.1032 0.22857 0.0
H677 H 0.71579 0.17805 0.2458 0.0
H678 H 0.78835 0.20119 0.16403 0.0
H679 H 0.77385 0.03318 0.20468 0.0
H680 H 0.72473 0.9624 0.18076 0.0
O681 O 0.67757 0.08889 0.12279 0.0
C682 C 0.74291 0.10627 0.06228 0.0
C683 C 0.7046 0.99002 0.14554 0.0
C684 C 0.75552 0.03144 0.18471 0.0
N685 N 0.73605 0.06696 0.14703 0.0
C686 C 0.70917 0.02821 0.13363 0.0
C687 C 0.75928 0.06897 0.17215 0.0
C688 C 0.72794 0.99174 0.17128 0.0
C689 C 0.80105 0.25471 0.07997 0.0
N690 N 0.77503 0.22137 0.0612 0.0
C691 C 0.84154 0.28718 0.07022 0.0
C692 C 0.85531 0.28539 0.04102 0.0
C693 C 0.82853 0.25135 0.02198 0.0
C694 C 0.78828 0.2194 0.03252 0.0
C695 C 0.67573 0.22241 0.00548 0.0
C696 C 0.66174 0.14314 0.02543 0.0
C697 C 0.69764 0.21921 0.03063 0.0
N698 N 0.69066 0.17992 0.0402 0.0
C699 C 0.63922 0.14509 0.00021 0.0
C700 C 0.64635 0.18505 0.9902 0.0
C701 C 0.65114 0.09636 0.10807 0.0
C702 C 0.7556 0.19445 0.20599 0.0
C703 C 0.69963 0.1111 0.18667 0.0
C704 C 0.69266 0.1249 0.21459 0.0
C705 C 0.72086 0.16689 0.22424 0.0
N706 N 0.73381 0.13831 0.16891 0.0
C707 C 0.76161 0.17951 0.17823 0.0
C708 C 0.32641 0.74642 0.17193 0.0
C709 C 0.29522 0.73984 0.15015 0.0
C710 C 0.33193 0.71212 0.18153 0.0
C711 C 0.30503 0.67043 0.16942 0.0
C712 C 0.27383 0.66381 0.14721 0.0
C713 C 0.26954 0.69867 0.1377 0.0
C714 C 0.36597 0.72027 0.2049 0.0
C715 C 0.24403 0.61962 0.13413 0.0
C716 C 0.327 0.57765 0.1743 0.0
C717 C 0.29909 0.55337 0.19782 0.0
C718 C 0.3315 0.6175 0.16597 0.0
C719 C 0.30695 0.63277 0.18123 0.0
C720 C 0.28011 0.60921 0.20576 0.0
C721 C 0.27672 0.56991 0.21388 0.0
C722 C 0.36098 0.64227 0.14002 0.0
C723 C 0.25295 0.62418 0.2223 0.0
H724 H 0.34656 0.77833 0.18138 0.0
H725 H 0.24524 0.69336 0.12092 0.0
H726 H 0.35034 0.70288 0.2261 0.0
H727 H 0.38691 0.70763 0.19682 0.0
H728 H 0.38655 0.75512 0.21018 0.0
H729 H 0.22223 0.62027 0.11649 0.0
H730 H 0.26309 0.60608 0.12402 0.0
H731 H 0.22393 0.59736 0.15241 0.0
H732 H 0.34472 0.56521 0.16205 0.0
H733 H 0.25517 0.55139 0.23216 0.0
H734 H 0.38157 0.67678 0.14612 0.0
H735 H 0.34136 0.64074 0.12012 0.0
H736 H 0.3821 0.62912 0.13334 0.0
H737 H 0.27317 0.6581 0.22982 0.0
H738 H 0.23647 0.60389 0.24239 0.0
H739 H 0.22802 0.62301 0.20676 0.0
C740 C 0.70683 0.30321 0.55343 0.0
C741 C 0.74608 0.32766 0.53815 0.0
C742 C 0.66959 0.30347 0.54398 0.0
C743 C 0.67206 0.32942 0.51906 0.0
C744 C 0.712 0.35546 0.50432 0.0
C745 C 0.74853 0.35391 0.51387 0.0
C746 C 0.62731 0.27468 0.55983 0.0
C747 C 0.7159 0.38405 0.47796 0.0
C748 C 0.57274 0.29619 0.4713 0.0
C749 C 0.55827 0.32348 0.48229 0.0
C750 C 0.60929 0.29726 0.48356 0.0
C751 C 0.63234 0.32696 0.50695 0.0
C752 C 0.61789 0.35459 0.5182 0.0
C753 C 0.58059 0.35218 0.50591 0.0
C754 C 0.6233 0.2667 0.47142 0.0
C755 C 0.64223 0.38712 0.54278 0.0
H756 H 0.70485 0.28273 0.57215 0.0
H757 H 0.77897 0.37314 0.5022 0.0
H758 H 0.61217 0.29365 0.56726 0.0
H759 H 0.60458 0.2497 0.54386 0.0
H760 H 0.63138 0.2583 0.57987 0.0
H761 H 0.74995 0.40506 0.47075 0.0
H762 H 0.69723 0.36386 0.45842 0.0
H763 H 0.70206 0.40473 0.48402 0.0
H764 H 0.55521 0.27361 0.45324 0.0
H765 H 0.56945 0.37337 0.51434 0.0
H766 H 0.62563 0.24734 0.49016 0.0
H767 H 0.65584 0.28526 0.46109 0.0
H768 H 0.60065 0.24431 0.4541 0.0
H769 H 0.64487 0.3706 0.56321 0.0
H770 H 0.62643 0.40594 0.54922 0.0
H771 H 0.67558 0.40986 0.53504 0.0
C772 C 0.43601 0.68181 0.87124 0.0
C773 C 0.45123 0.72102 0.85585 0.0
C774 C 0.39699 0.64544 0.86305 0.0
C775 C 0.37237 0.64859 0.83918 0.0
C776 C 0.38686 0.68841 0.82416 0.0
C777 C 0.42643 0.72417 0.83252 0.0
C778 C 0.38289 0.60328 0.87923 0.0
C779 C 0.36104 0.69296 0.79886 0.0
C780 C 0.30093 0.54598 0.79613 0.0
C781 C 0.26057 0.53213 0.80957 0.0
C782 C 0.33743 0.58408 0.80541 0.0
C783 C 0.33335 0.60929 0.8284 0.0
C784 C 0.29258 0.59598 0.84173 0.0
C785 C 0.25659 0.5572 0.83232 0.0
C786 C 0.38055 0.59688 0.79101 0.0
C787 C 0.28712 0.62255 0.86601 0.0
H788 H 0.45512 0.6792 0.88929 0.0
H789 H 0.43791 0.75456 0.82078 0.0
H790 H 0.34971 0.59011 0.88825 0.0
H791 H 0.38218 0.57924 0.86303 0.0
H792 H 0.40476 0.60681 0.89824 0.0
H793 H 0.37492 0.72695 0.79131 0.0
H794 H 0.36005 0.6732 0.7792 0.0
H795 H 0.32722 0.68075 0.80622 0.0
H796 H 0.30426 0.52658 0.77864 0.0
H797 H 0.22536 0.54668 0.8426 0.0
H798 H 0.40356 0.59859 0.80855 0.0
H799 H 0.39443 0.6294 0.78075 0.0
H800 H 0.37802 0.57381 0.7732 0.0
H801 H 0.30641 0.62451 0.88622 0.0
H802 H 0.25286 0.60882 0.87296 0.0
H803 H 0.2994 0.656 0.85784 0.0
C804 C 0.66271 0.41226 0.17679 0.0
C805 C 0.69159 0.43418 0.20042 0.0
C806 C 0.66013 0.37516 0.16408 0.0
C807 C 0.68781 0.3605 0.17486 0.0
C808 C 0.71707 0.3826 0.19869 0.0
C809 C 0.71827 0.41897 0.21141 0.0
C810 C 0.62801 0.3518 0.13906 0.0
C811 C 0.74772 0.36838 0.21031 0.0
C812 C 0.66408 0.24641 0.16043 0.0
C813 C 0.69081 0.2525 0.13555 0.0
C814 C 0.66172 0.28116 0.17294 0.0
C815 C 0.68741 0.3229 0.1606 0.0
C816 C 0.71427 0.32915 0.13536 0.0
C817 C 0.71533 0.29374 0.12295 0.0
C818 C 0.63217 0.27333 0.19954 0.0
C819 C 0.74274 0.3734 0.12199 0.0
H820 H 0.64186 0.42387 0.16843 0.0
H821 H 0.74087 0.43609 0.22955 0.0
H822 H 0.64529 0.35275 0.11797 0.0
H823 H 0.60699 0.31736 0.14517 0.0
H824 H 0.60731 0.36613 0.13436 0.0
H825 H 0.76838 0.38912 0.22905 0.0
H826 H 0.72934 0.33461 0.2185 0.0
H827 H 0.76891 0.36922 0.19165 0.0
H828 H 0.64487 0.21447 0.17006 0.0
H829 H 0.73625 0.29859 0.1038 0.0
H830 H 0.61026 0.28614 0.19461 0.0
H831 H 0.65151 0.29075 0.21972 0.0
H832 H 0.61234 0.23853 0.20522 0.0
H833 H 0.72294 0.38783 0.115 0.0
H834 H 0.76123 0.37256 0.10204 0.0
H835 H 0.76595 0.39501 0.13932 0.0
C836 C 0.44241 0.75936 0.44349 0.0
C837 C 0.4561 0.73602 0.4613 0.0
C838 C 0.40344 0.75822 0.44961 0.0
C839 C 0.37745 0.73275 0.47389 0.0
C840 C 0.39021 0.70771 0.49115 0.0
C841 C 0.42963 0.70989 0.48478 0.0
C842 C 0.3911 0.78579 0.431 0.0
C843 C 0.36297 0.6798 0.51702 0.0
C844 C 0.30788 0.76822 0.51491 0.0
C845 C 0.26687 0.74008 0.50303 0.0
C846 C 0.34419 0.76661 0.50512 0.0
C847 C 0.33924 0.73567 0.4832 0.0
C848 C 0.29803 0.70748 0.47077 0.0
C849 C 0.26221 0.71028 0.48069 0.0
C850 C 0.38778 0.79772 0.51853 0.0
C851 C 0.29169 0.67382 0.44759 0.0
H852 H 0.46276 0.77961 0.42527 0.0
H853 H 0.43988 0.69145 0.4984 0.0
H854 H 0.35758 0.76623 0.42249 0.0
H855 H 0.39218 0.81169 0.44542 0.0
H856 H 0.41304 0.80098 0.41141 0.0
H857 H 0.37529 0.6591 0.5262 0.0
H858 H 0.36263 0.70053 0.53557 0.0
H859 H 0.32909 0.65886 0.50955 0.0
H860 H 0.31166 0.79164 0.53199 0.0
H861 H 0.23046 0.6884 0.47158 0.0
H862 H 0.41103 0.81618 0.50025 0.0
H863 H 0.40072 0.77962 0.53084 0.0
H864 H 0.38624 0.82092 0.53447 0.0
H865 H 0.31307 0.68927 0.42783 0.0
H866 H 0.25776 0.6552 0.43954 0.0
H867 H 0.30081 0.65102 0.45752 0.0
C868 C 0.57357 0.27833 0.86543 0.0
C869 C 0.55789 0.23723 0.85282 0.0
C870 C 0.61046 0.31405 0.85375 0.0
C871 C 0.63256 0.30829 0.82926 0.0
C872 C 0.61721 0.26679 0.81665 0.0
C873 C 0.57965 0.2317 0.82841 0.0
C874 C 0.62546 0.35803 0.86737 0.0
C875 C 0.64051 0.25951 0.79083 0.0
C876 C 0.70347 0.40685 0.78204 0.0
C877 C 0.74402 0.42119 0.79527 0.0
C878 C 0.66692 0.36971 0.79264 0.0
C879 C 0.67134 0.34603 0.81661 0.0
C880 C 0.71241 0.35966 0.82948 0.0
C881 C 0.7483 0.39746 0.81885 0.0
C882 C 0.62342 0.35659 0.77882 0.0
C883 C 0.7183 0.33468 0.85476 0.0
H884 H 0.55657 0.28275 0.88417 0.0
H885 H 0.56766 0.19987 0.81876 0.0
H886 H 0.6588 0.37169 0.8762 0.0
H887 H 0.6262 0.38041 0.84971 0.0
H888 H 0.60425 0.35698 0.88612 0.0
H889 H 0.62506 0.225 0.78422 0.0
H890 H 0.64117 0.27851 0.77081 0.0
H891 H 0.67453 0.27092 0.79728 0.0
H892 H 0.70004 0.42534 0.76391 0.0
H893 H 0.77971 0.40838 0.82895 0.0
H894 H 0.60168 0.35756 0.79633 0.0
H895 H 0.60815 0.32296 0.77035 0.0
H896 H 0.62576 0.37796 0.75981 0.0
H897 H 0.70063 0.33539 0.87518 0.0
H898 H 0.75281 0.34797 0.86082 0.0
H899 H 0.70453 0.30038 0.84812 0.0
C900 C 0.58737 0.55243 0.20852 0.0
C901 C 0.60382 0.53227 0.22719 0.0
C902 C 0.54255 0.53547 0.20526 0.0
C903 C 0.51331 0.49744 0.22105 0.0
C904 C 0.52967 0.47692 0.23988 0.0
C905 C 0.57452 0.49451 0.24271 0.0
C906 C 0.52646 0.55846 0.18508 0.0
C907 C 0.49979 0.43646 0.25727 0.0
C908 C 0.39967 0.47585 0.23766 0.0
C909 C 0.37483 0.44507 0.21554 0.0
C910 C 0.44459 0.49332 0.23947 0.0
C911 C 0.46562 0.47978 0.21873 0.0
C912 C 0.44091 0.44876 0.19634 0.0
C913 C 0.39589 0.43181 0.19499 0.0
C914 C 0.46956 0.5262 0.26375 0.0
C915 C 0.46203 0.43331 0.1739 0.0
H916 H 0.6095 0.58154 0.1964 0.0
H917 H 0.58658 0.47849 0.25725 0.0
H918 H 0.5048 0.5361 0.1674 0.0
H919 H 0.50726 0.56907 0.19857 0.0
H920 H 0.55326 0.58713 0.17385 0.0
H921 H 0.51759 0.42375 0.2703 0.0
H922 H 0.47993 0.44313 0.27327 0.0
H923 H 0.47726 0.41102 0.24149 0.0
H924 H 0.38403 0.48649 0.25373 0.0
H925 H 0.37723 0.40809 0.17782 0.0
H926 H 0.49504 0.55646 0.25329 0.0
H927 H 0.48593 0.51399 0.27877 0.0
H928 H 0.44854 0.53388 0.27784 0.0
H929 H 0.48734 0.46108 0.16104 0.0
H930 H 0.4385 0.40954 0.1576 0.0
H931 H 0.47818 0.41814 0.18607 0.0
C932 C 0.04106 0.6238 0.51642 0.0
C933 C 0.07929 0.64297 0.53352 0.0
C934 C 0.01281 0.57891 0.51696 0.0
C935 C 0.02287 0.55249 0.5351 0.0
C936 C 0.06175 0.5715 0.55193 0.0
C937 C 0.08944 0.61635 0.5509 0.0
C938 C 0.97171 0.55986 0.49864 0.0
C939 C 0.07364 0.54457 0.57167 0.0
C940 C 0.93202 0.44534 0.56405 0.0
C941 C 0.93509 0.41547 0.54505 0.0
C942 C 0.95993 0.48988 0.56074 0.0
C943 C 0.99183 0.50527 0.5378 0.0
C944 C 0.9949 0.47547 0.51831 0.0
C945 C 0.96659 0.43095 0.52219 0.0
C946 C 0.95563 0.52046 0.58214 0.0
C947 C 0.02844 0.49062 0.49355 0.0
H948 H 0.03282 0.64389 0.50288 0.0
H949 H 0.1188 0.63058 0.56425 0.0
H950 H 0.96937 0.5338 0.48377 0.0
H951 H 0.9434 0.54515 0.51403 0.0
H952 H 0.96971 0.58438 0.48441 0.0
H953 H 0.10586 0.56403 0.58237 0.0
H954 H 0.04919 0.52891 0.58981 0.0
H955 H 0.07369 0.5185 0.55811 0.0
H956 H 0.90793 0.43397 0.58184 0.0
H957 H 0.9693 0.40831 0.50734 0.0
H958 H 0.9508 0.54425 0.56918 0.0
H959 H 0.9858 0.53882 0.59542 0.0
H960 H 0.92825 0.5034 0.59816 0.0
H961 H 0.02527 0.51372 0.47854 0.0
H962 H 0.02563 0.46351 0.47959 0.0
H963 H 0.06124 0.50795 0.50361 0.0
C964 C 0.49755 0.05751 0.89479 0.0
C965 C 0.46135 0.05022 0.8777 0.0
C966 C 0.51468 0.02986 0.89273 0.0
C967 C 0.49536 0.9939 0.87301 0.0
C968 C 0.45911 0.98648 0.85545 0.0
C969 C 0.44248 0.01464 0.85804 0.0
C970 C 0.5532 0.03887 0.91201 0.0
C971 C 0.43762 0.94852 0.83415 0.0
C972 C 0.56307 0.94265 0.85179 0.0
C973 C 0.54765 0.90792 0.87214 0.0
C974 C 0.54575 0.97035 0.85134 0.0
C975 C 0.51226 0.9633 0.87175 0.0
C976 C 0.49614 0.92799 0.892 0.0
C977 C 0.51392 0.9008 0.89193 0.0
C978 C 0.56381 0.00763 0.82938 0.0
C979 C 0.4606 0.91938 0.91422 0.0
H980 H 0.51251 0.08479 0.91011 0.0
H981 H 0.41459 0.00863 0.84469 0.0
H982 H 0.54453 0.0114 0.92757 0.0
H983 H 0.57999 0.04217 0.89748 0.0
H984 H 0.56505 0.06871 0.92573 0.0
H985 H 0.4107 0.94805 0.82129 0.0
H986 H 0.4616 0.94932 0.81784 0.0
H987 H 0.42473 0.918 0.84711 0.0
H988 H 0.58903 0.94854 0.83637 0.0
H989 H 0.5016 0.87416 0.90779 0.0
H990 H 0.57891 0.03854 0.84204 0.0
H991 H 0.53743 0.0065 0.81548 0.0
H992 H 0.58838 0.00755 0.81403 0.0
H993 H 0.47164 0.94706 0.92999 0.0
H994 H 0.45058 0.88969 0.92774 0.0
H995 H 0.43197 0.91607 0.90205 0.0
C996 C 0.52002 0.61755 0.43407 0.0
C997 C 0.55176 0.64359 0.45527 0.0
C998 C 0.50147 0.57248 0.43423 0.0
C999 C 0.51488 0.55271 0.45609 0.0
C1000 C 0.54642 0.57862 0.4778 0.0
C1001 C 0.56447 0.62368 0.47715 0.0
C1002 C 0.468 0.54607 0.41063 0.0
C1003 C 0.56167 0.55878 0.50143 0.0
C1004 C 0.44278 0.43201 0.46999 0.0
C1005 C 0.46306 0.41468 0.45229 0.0
C1006 C 0.45945 0.47686 0.47169 0.0
C1007 C 0.49727 0.50511 0.45529 0.0
C1008 C 0.51795 0.48785 0.43751 0.0
C1009 C 0.50068 0.44302 0.43623 0.0
C1010 C 0.43643 0.49403 0.49085 0.0
C1011 C 0.55827 0.51675 0.41959 0.0
H1012 H 0.50981 0.63236 0.41705 0.0
H1013 H 0.58889 0.64332 0.49365 0.0
H1014 H 0.48006 0.52904 0.39613 0.0
H1015 H 0.43801 0.5211 0.42172 0.0
H1016 H 0.45987 0.56617 0.39593 0.0
H1017 H 0.58513 0.58316 0.51745 0.0
H1018 H 0.53376 0.53401 0.51448 0.0
H1019 H 0.57724 0.54229 0.49024 0.0
H1020 H 0.41376 0.41057 0.48248 0.0
H1021 H 0.51675 0.43022 0.42243 0.0
H1022 H 0.4256 0.51223 0.47647 0.0
H1023 H 0.45887 0.51685 0.50802 0.0
H1024 H 0.40788 0.46792 0.50266 0.0
H1025 H 0.55148 0.53585 0.403 0.0
H1026 H 0.57077 0.49827 0.40716 0.0
H1027 H 0.58395 0.53996 0.43494 0.0
C1028 C 0.92501 0.48503 0.76051 0.0
C1029 C 0.93204 0.52063 0.7782 0.0
C1030 C 0.95234 0.46749 0.76253 0.0
C1031 C 0.98792 0.486 0.78262 0.0
C1032 C 0.99519 0.52176 0.80068 0.0
C1033 C 0.9672 0.53863 0.79828 0.0
C1034 C 0.9434 0.42944 0.74278 0.0
C1035 C 0.03278 0.54244 0.82237 0.0
C1036 C 0.03798 0.41753 0.80466 0.0
C1037 C 0.07361 0.43325 0.78505 0.0
C1038 C 0.01019 0.43476 0.80443 0.0
C1039 C 0.01806 0.46851 0.78409 0.0
C1040 C 0.05404 0.48468 0.76438 0.0
C1041 C 0.0813 0.46694 0.7651 0.0
C1042 C 0.97206 0.41646 0.8257 0.0
C1043 C 0.06353 0.5205 0.74225 0.0
H1044 H 0.89807 0.47073 0.74486 0.0
H1045 H 0.97304 0.56608 0.81207 0.0
H1046 H 0.96976 0.43929 0.72599 0.0
H1047 H 0.94252 0.40318 0.75663 0.0
H1048 H 0.91232 0.41642 0.73041 0.0
H1049 H 0.0335 0.56943 0.83527 0.0
H1050 H 0.03112 0.51806 0.83864 0.0
H1051 H 0.06356 0.55497 0.80973 0.0
H1052 H 0.03158 0.39154 0.82017 0.0
H1053 H 0.10859 0.47945 0.74977 0.0
H1054 H 0.94161 0.40238 0.8125 0.0
H1055 H 0.97323 0.44253 0.83997 0.0
H1056 H 0.97103 0.39108 0.84071 0.0
H1057 H 0.03617 0.50998 0.72624 0.0
H1058 H 0.09344 0.53029 0.72902 0.0
H1059 H 0.067 0.54914 0.75449 0.0
C1060 C 0.39522 0.96006 0.14176 0.0
C1061 C 0.37498 0.92371 0.12284 0.0
C1062 C 0.44022 0.98822 0.14064 0.0
C1063 C 0.46573 0.98001 0.12009 0.0
C1064 C 0.44554 0.94334 0.10105 0.0
C1065 C 0.40063 0.91575 0.10266 0.0
C1066 C 0.46046 0.02699 0.1613 0.0
C1067 C 0.47137 0.93341 0.0787 0.0
C1068 C 0.5743 0.07269 0.09422 0.0
C1069 C 0.60374 0.06641 0.11149 0.0
C1070 C 0.52951 0.04518 0.09704 0.0
C1071 C 0.51334 0.01035 0.11773 0.0
C1072 C 0.54272 0.00382 0.13535 0.0
C1073 C 0.5875 0.03181 0.13199 0.0
C1074 C 0.49948 0.05322 0.07761 0.0
C1075 C 0.52683 0.96705 0.15763 0.0
H1076 H 0.37593 0.96665 0.15745 0.0
H1077 H 0.38562 0.8879 0.08785 0.0
H1078 H 0.4859 0.02643 0.17533 0.0
H1079 H 0.47627 0.05699 0.14763 0.0
H1080 H 0.43643 0.0283 0.17654 0.0
H1081 H 0.45096 0.90317 0.06589 0.0
H1082 H 0.48767 0.96033 0.06232 0.0
H1083 H 0.49695 0.93034 0.09069 0.0
H1084 H 0.58621 0.09916 0.07823 0.0
H1085 H 0.60974 0.02654 0.14548 0.0
H1086 H 0.47669 0.05767 0.09213 0.0
H1087 H 0.4799 0.02483 0.06295 0.0
H1088 H 0.51713 0.08212 0.06297 0.0
H1089 H 0.50456 0.96909 0.17416 0.0
H1090 H 0.55369 0.96698 0.17021 0.0
H1091 H 0.50833 0.93585 0.14555 0.0
C1092 C 0.23355 0.27306 0.25996 0.0
C1093 C 0.22192 0.30381 0.26793 0.0
C1094 C 0.24556 0.25336 0.28241 0.0
C1095 C 0.2467 0.26571 0.31297 0.0
C1096 C 0.22799 0.2909 0.32124 0.0
C1097 C 0.21518 0.3092 0.29851 0.0
C1098 C 0.26222 0.22381 0.27313 0.0
C1099 C 0.22759 0.30407 0.35367 0.0
C1100 C 0.29143 0.23535 0.38034 0.0
C1101 C 0.3343 0.26924 0.38018 0.0
C1102 C 0.26289 0.2314 0.35714 0.0
C1103 C 0.27734 0.26329 0.33427 0.0
C1104 C 0.32108 0.29692 0.33372 0.0
C1105 C 0.34918 0.29893 0.35642 0.0
C1106 C 0.21719 0.19403 0.358 0.0
C1107 C 0.33782 0.33236 0.31018 0.0
H1108 H 0.23752 0.26761 0.23634 0.0
H1109 H 0.20447 0.3316 0.30481 0.0
H1110 H 0.29794 0.24264 0.27132 0.0
H1111 H 0.25372 0.19812 0.29027 0.0
H1112 H 0.24904 0.20866 0.25079 0.0
H1113 H 0.20722 0.31917 0.35667 0.0
H1114 H 0.21547 0.2758 0.36891 0.0
H1115 H 0.26104 0.32771 0.36077 0.0
H1116 H 0.28021 0.21196 0.39859 0.0
H1117 H 0.38237 0.32511 0.35643 0.0
H1118 H 0.20202 0.18618 0.33525 0.0
H1119 H 0.19752 0.2022 0.3731 0.0
H1120 H 0.2163 0.16484 0.36744 0.0
H1121 H 0.3331 0.31838 0.28716 0.0
H1122 H 0.37269 0.3561 0.31316 0.0
H1123 H 0.31956 0.34988 0.31148 0.0
C1124 C 0.94345 0.24095 0.60971 0.0
C1125 C 0.93435 0.27459 0.61262 0.0
C1126 C 0.97058 0.23645 0.63059 0.0
C1127 C 0.98951 0.26695 0.65425 0.0
C1128 C 0.98036 0.30103 0.65706 0.0
C1129 C 0.95246 0.30402 0.63642 0.0
C1130 C 0.97839 0.19891 0.62761 0.0
C1131 C 1.00071 0.33505 0.68149 0.0
C1132 C 0.03881 0.26624 0.72847 0.0
C1133 C 0.08183 0.2972 0.7223 0.0
C1134 C 0.00818 0.25015 0.70508 0.0
C1135 C 0.0212 0.26597 0.67531 0.0
C1136 C 0.06561 0.29152 0.66845 0.0
C1137 C 0.09552 0.30653 0.6921 0.0
C1138 C 0.96125 0.22116 0.71296 0.0
C1139 C 0.0811 0.30882 0.63698 0.0
H1140 H 0.92875 0.21778 0.59149 0.0
H1141 H 0.94554 0.33013 0.63852 0.0
H1142 H 0.01336 0.20993 0.62897 0.0
H1143 H 0.96243 0.17623 0.64667 0.0
H1144 H 0.96544 0.18109 0.60604 0.0
H1145 H 0.99052 0.35967 0.6801 0.0
H1146 H 0.99176 0.31979 0.70416 0.0
H1147 H 0.03643 0.35176 0.67967 0.0
H1148 H 0.02811 0.25794 0.75171 0.0
H1149 H 0.12905 0.32929 0.68708 0.0
H1150 H 0.94399 0.19769 0.69454 0.0
H1151 H 0.94566 0.24103 0.71602 0.0
H1152 H 0.95751 0.20331 0.73435 0.0
H1153 H 0.06269 0.28411 0.61953 0.0
H1154 H 0.11603 0.3201 0.63413 0.0
H1155 H 0.07611 0.33663 0.63292 0.0
C1156 C 0.72477 0.94899 0.92738 0.0
C1157 C 0.68713 0.91127 0.9362 0.0
C1158 C 0.74647 0.98335 0.94779 0.0
C1159 C 0.72926 0.98004 0.97715 0.0
C1160 C 0.69419 0.94038 0.98706 0.0
C1161 C 0.67408 0.90625 0.9666 0.0
C1162 C 0.78542 0.02433 0.93706 0.0
C1163 C 0.67462 0.93537 0.01817 0.0
C1164 C 0.77092 0.05965 0.04183 0.0
C1165 C 0.74625 0.07984 0.03797 0.0
C1166 C 0.76939 0.02998 0.02038 0.0
C1167 C 0.74129 0.01926 0.99528 0.0
C1168 C 0.71854 0.04168 0.99034 0.0
C1169 C 0.72189 0.07219 0.01152 0.0
C1170 C 0.79581 0.00838 0.02565 0.0
C1171 C 0.68766 0.03087 0.96409 0.0
H1172 H 0.73578 0.95286 0.90413 0.0
H1173 H 0.64577 0.8768 0.97395 0.0
H1174 H 0.77521 0.04733 0.9293 0.0
H1175 H 0.80914 0.03996 0.95565 0.0
H1176 H 0.80152 0.01806 0.9178 0.0
H1177 H 0.64942 0.90152 0.02302 0.0
H1178 H 0.69988 0.94605 0.03586 0.0
H1179 H 0.65965 0.95599 0.01995 0.0
H1180 H 0.79058 0.06617 0.06196 0.0
H1181 H 0.70308 0.08798 0.00823 0.0
H1182 H 0.80605 0.00062 0.00395 0.0
H1183 H 0.77613 0.9778 0.03816 0.0
H1184 H 0.82494 0.0291 0.03944 0.0
H1185 H 0.70417 0.03288 0.94242 0.0
H1186 H 0.67405 0.05275 0.96278 0.0
H1187 H 0.66051 0.99727 0.96645 0.0
C1188 C 0.73211 0.77173 0.41162 0.0
C1189 C 0.70067 0.78035 0.40004 0.0
C1190 C 0.75307 0.7566 0.3925 0.0
C1191 C 0.74126 0.74904 0.36158 0.0
C1192 C 0.71387 0.76308 0.34927 0.0
C1193 C 0.69456 0.77932 0.36862 0.0
C1194 C 0.78453 0.74479 0.40593 0.0
C1195 C 0.70046 0.75587 0.31637 0.0
C1196 C 0.78034 0.70441 0.29946 0.0
C1197 C 0.74863 0.66067 0.30057 0.0
C1198 C 0.78144 0.7334 0.32133 0.0
C1199 C 0.74884 0.7184 0.34375 0.0
C1200 C 0.71821 0.67377 0.34581 0.0
C1201 C 0.71905 0.64538 0.32447 0.0
C1202 C 0.81602 0.78023 0.31924 0.0
C1203 C 0.68223 0.65634 0.36895 0.0
H1204 H 0.73792 0.77347 0.4358 0.0
H1205 H 0.67141 0.78732 0.3593 0.0
H1206 H 0.76743 0.70987 0.41138 0.0
H1207 H 0.81073 0.75122 0.38965 0.0
H1208 H 0.79904 0.76297 0.42716 0.0
H1209 H 0.6815 0.77155 0.31001 0.0
H1210 H 0.72917 0.76855 0.30149 0.0
H1211 H 0.68034 0.72074 0.31193 0.0
H1212 H 0.80381 0.71609 0.28125 0.0
H1213 H 0.69461 0.61153 0.32536 0.0
H1214 H 0.82344 0.79622 0.34171 0.0
H1215 H 0.80494 0.79743 0.30408 0.0
H1216 H 0.84618 0.78358 0.30945 0.0
H1217 H 0.69567 0.66575 0.3921 0.0
H1218 H 0.66202 0.62062 0.36808 0.0
H1219 H 0.66106 0.67029 0.36494 0.0
C1220 C 0.04651 0.77691 0.60055 0.0
C1221 C 0.08523 0.77681 0.60546 0.0
C1222 C 0.01492 0.76291 0.62327 0.0
C1223 C 0.02208 0.74768 0.65097 0.0
C1224 C 0.06307 0.75257 0.65725 0.0
C1225 C 0.09439 0.7677 0.63452 0.0
C1226 C 0.97238 0.76041 0.61652 0.0
C1227 C 0.07217 0.73683 0.68655 0.0
C1228 C 0.94587 0.70253 0.71774 0.0
C1229 C 0.92521 0.65822 0.7114 0.0
C1230 C 0.9752 0.73282 0.6971 0.0
C1231 C 0.98505 0.71814 0.67017 0.0
C1232 C 0.96291 0.67357 0.66313 0.0
C1233 C 0.93283 0.6443 0.68363 0.0
C1234 C 0.99686 0.78015 0.70489 0.0
C1235 C 0.97286 0.65633 0.63483 0.0
H1236 H 0.03952 0.78497 0.57841 0.0
H1237 H 0.12472 0.76875 0.63889 0.0
H1238 H 0.94847 0.72711 0.60944 0.0
H1239 H 0.95953 0.76822 0.63695 0.0
H1240 H 0.97556 0.78272 0.59795 0.0
H1241 H 0.10693 0.7472 0.68915 0.0
H1242 H 0.06199 0.74884 0.7062 0.0
H1243 H 0.05336 0.70104 0.68714 0.0
H1244 H 0.93959 0.71357 0.73894 0.0
H1245 H 0.91685 0.61017 0.67845 0.0
H1246 H 0.00391 0.80033 0.6843 0.0
H1247 H 0.02787 0.78993 0.71655 0.0
H1248 H 0.97653 0.78696 0.7204 0.0
H1249 H 0.96849 0.67181 0.61446 0.0
H1250 H 0.95198 0.62082 0.63251 0.0
H1251 H 0.00705 0.66412 0.63524 0.0
C1252 C 0.22887 0.94835 0.06892 0.0
C1253 C 0.22586 0.90859 0.06234 0.0
C1254 C 0.23942 0.97929 0.04609 0.0
C1255 C 0.24805 0.97033 0.01654 0.0
C1256 C 0.23902 0.92822 0.00907 0.0
C1257 C 0.22738 0.89762 0.03204 0.0
C1258 C 0.24591 0.02303 0.0543 0.0
C1259 C 0.24729 0.91704 0.97773 0.0
C1260 C 0.28687 0.04465 0.94857 0.0
C1261 C 0.33166 0.06229 0.95124 0.0
C1262 C 0.25886 0.01729 0.97107 0.0
C1263 C 0.27617 0.00617 0.996 0.0
C1264 C 0.32152 0.0254 -0.00068 0.0
C1265 C 0.34865 0.05375 0.97713 0.0
C1266 C 0.2109 0.99902 0.96726 0.0
C1267 C 0.34152 0.01393 0.02528 0.0
H1268 H 0.2265 0.95672 0.09215 0.0
H1269 H 0.22359 0.8664 0.02653 0.0
H1270 H 0.28068 0.04564 0.05857 0.0
H1271 H 0.23557 0.03638 0.03549 0.0
H1272 H 0.2277 0.0215 0.07508 0.0
H1273 H 0.23429 0.88183 0.97488 0.0
H1274 H 0.23255 0.92795 0.96033 0.0
H1275 H 0.28261 0.93389 0.97346 0.0
H1276 H 0.27367 0.05185 0.92878 0.0
H1277 H 0.38324 0.06744 0.97935 0.0
H1278 H 0.19388 0.99126 0.98936 0.0
H1279 H 0.19738 0.96898 0.95368 0.0
H1280 H 0.20411 0.022 0.9549 0.0
H1281 H 0.33085 0.02046 0.04722 0.0
H1282 H 0.37739 0.03234 0.02464 0.0
H1283 H 0.33077 0.97899 0.02453 0.0
C1284 C 0.89591 0.17825 0.14995 0.0
C1285 C 0.88191 0.19552 0.12706 0.0
C1286 C 0.93967 0.19851 0.15843 0.0
C1287 C 0.97001 0.23757 0.14422 0.0
C1288 C 0.95596 0.25518 0.12115 0.0
C1289 C 0.91223 0.2337 0.11262 0.0
C1290 C 0.95341 0.17821 0.18272 0.0
C1291 C 0.98692 0.29727 0.10594 0.0
C1292 C 0.07169 0.31152 0.18881 0.0
C1293 C 0.10291 0.30488 0.17447 0.0
C1294 C 0.02863 0.29038 0.17888 0.0
C1295 C 0.01605 0.26097 0.1544 0.0
C1296 C 0.04742 0.25403 0.13985 0.0
C1297 C 0.09062 0.27649 0.14981 0.0
C1298 C 0.99662 0.29964 0.19459 0.0
C1299 C 0.03518 0.22236 0.11406 0.0
H1300 H 0.8727 0.1486 0.16106 0.0
H1301 H 0.90159 0.24743 0.09506 0.0
H1302 H 0.98006 0.17363 0.17427 0.0
H1303 H 0.96586 0.19995 0.20263 0.0
H1304 H 0.92643 0.14652 0.19025 0.0
H1305 H 0.97095 0.30647 0.08825 0.0
H1306 H 0.00129 0.32343 0.12306 0.0
H1307 H 0.01383 0.29497 0.09538 0.0
H1308 H 0.08102 0.33373 0.20771 0.0
H1309 H 0.11458 0.2711 0.13875 0.0
H1310 H 0.97066 0.26973 0.20509 0.0
H1311 H 0.98111 0.31072 0.17787 0.0
H1312 H 0.01195 0.32464 0.21247 0.0
H1313 H 0.00993 0.18985 0.12163 0.0
H1314 H 0.06321 0.22022 0.10538 0.0
H1315 H 0.02131 0.23193 0.09517 0.0
C1316 C 0.81941 0.10914 0.54747 0.0
C1317 C 0.8111 0.13773 0.53114 0.0
C1318 C 0.80061 0.0656 0.53895 0.0
C1319 C 0.77136 0.04995 0.51431 0.0
C1320 C 0.76215 0.07864 0.49819 0.0
C1321 C 0.78288 0.12244 0.5064 0.0
C1322 C 0.81265 0.03656 0.55597 0.0
C1323 C 0.73002 0.063 0.47249 0.0
C1324 C 0.7485 0.9478 0.47234 0.0
C1325 C 0.71079 0.91658 0.48664 0.0
C1326 C 0.76929 0.99107 0.48176 0.0
C1327 C 0.7508 0.00371 0.50515 0.0
C1328 C 0.71238 0.97221 0.51947 0.0
C1329 C 0.69332 0.92881 0.51044 0.0
C1330 C 0.81106 0.02324 0.4667 0.0
C1331 C 0.69074 0.98452 0.5437 0.0
H1332 H 0.84157 0.12115 0.56646 0.0
H1333 H 0.77623 0.14457 0.49395 0.0
H1334 H 0.7836 0.00972 0.5667 0.0
H1335 H 0.82571 0.02197 0.54001 0.0
H1336 H 0.83712 0.05413 0.57384 0.0
H1337 H 0.72457 0.08885 0.46346 0.0
H1338 H 0.74159 0.05072 0.45378 0.0
H1339 H 0.69865 0.0358 0.48025 0.0
H1340 H 0.76206 0.93821 0.45399 0.0
H1341 H 0.66382 0.90468 0.52124 0.0
H1342 H 0.8364 0.04062 0.48405 0.0
H1343 H 0.80659 0.04768 0.45435 0.0
H1344 H 0.82275 0.00765 0.45046 0.0
H1345 H 0.71293 0.9996 0.56312 0.0
H1346 H 0.6605 0.95632 0.55208 0.0
H1347 H 0.68299 0.00877 0.53465 0.0
C1348 C 0.79076 0.67157 0.8144 0.0
C1349 C 0.83554 0.69736 0.81043 0.0
C1350 C 0.76503 0.6901 0.82091 0.0
C1351 C 0.7846 0.73545 0.82402 0.0
C1352 C 0.82978 0.76161 0.81999 0.0
C1353 C 0.8546 0.7423 0.81302 0.0
C1354 C 0.71691 0.66111 0.82461 0.0
C1355 C 0.85203 0.81001 0.82356 0.0
C1356 C 0.71634 0.78979 0.8185 0.0
C1357 C 0.70907 0.79452 0.8491 0.0
C1358 C 0.74041 0.77016 0.80996 0.0
C1359 C 0.75815 0.75548 0.83255 0.0
C1360 C 0.7511 0.76045 0.86346 0.0
C1361 C 0.72643 0.77957 0.87134 0.0
C1362 C 0.74669 0.76493 0.77676 0.0
C1363 C 0.76989 0.74582 0.88828 0.0
H1364 H 0.77571 0.63685 0.81222 0.0
H1365 H 0.88919 0.76249 0.8101 0.0
H1366 H 0.70722 0.66386 0.84799 0.0
H1367 H 0.69943 0.67137 0.80901 0.0
H1368 H 0.70642 0.62672 0.82007 0.0
H1369 H 0.88732 0.82584 0.81932 0.0
H1370 H 0.83793 0.82362 0.80767 0.0
H1371 H 0.84682 0.81822 0.84681 0.0
H1372 H 0.70279 0.80096 0.80117 0.0
H1373 H 0.72107 0.78314 0.89505 0.0
H1374 H 0.73429 0.73039 0.77149 0.0
H1375 H 0.7816 0.78255 0.77117 0.0
H1376 H 0.72998 0.77711 0.762 0.0
H1377 H 0.75774 0.71072 0.88617 0.0
H1378 H 0.76172 0.75231 0.91122 0.0
H1379 H 0.80556 0.76253 0.88607 0.0
C1380 C 0.91295 0.67568 0.22278 0.0
C1381 C 0.88171 0.68247 0.20864 0.0
C1382 C 0.95643 0.69849 0.21369 0.0
C1383 C 0.96929 0.72957 0.1903 0.0
C1384 C 0.93802 0.73717 0.17634 0.0
C1385 C 0.89455 0.7132 0.18543 0.0
C1386 C 0.98845 0.68863 0.2287 0.0
C1387 C 0.95045 0.7705 0.15169 0.0
C1388 C 0.08926 0.81279 0.18349 0.0
C1389 C 0.10175 0.79644 0.15908 0.0
C1390 C 0.04616 0.79171 0.19369 0.0
C1391 C 0.01509 0.75283 0.17961 0.0
C1392 C 0.0278 0.73591 0.15526 0.0
C1393 C 0.07075 0.75813 0.14511 0.0
C1394 C 0.03377 0.81122 0.21935 0.0
C1395 C 0.9961 0.69411 0.14002 0.0
H1396 H 0.90325 0.65178 0.24059 0.0
H1397 H 0.87064 0.71882 0.17454 0.0
H1398 H 0.00296 0.67704 0.21154 0.0
H1399 H 0.01515 0.71835 0.23888 0.0
H1400 H 0.97335 0.66375 0.24667 0.0
H1401 H 0.92281 0.77424 0.1443 0.0
H1402 H 0.97676 0.80222 0.15972 0.0
H1403 H 0.96294 0.76125 0.13178 0.0
H1404 H 0.11301 0.84246 0.1943 0.0
H1405 H 0.0802 0.74504 0.1264 0.0
H1406 H 0.02101 0.78833 0.2386 0.0
H1407 H 0.00764 0.81729 0.21193 0.0
H1408 H 0.06147 0.84204 0.22746 0.0
H1409 H 0.98153 0.66779 0.15699 0.0
H1410 H 0.01145 0.68466 0.12201 0.0
H1411 H 0.96941 0.69715 0.1298 0.0
C1412 C 0.22994 0.94707 0.53001 0.0
C1413 C 0.19269 0.91697 0.51453 0.0
C1414 C 0.2523 0.99061 0.52148 0.0
C1415 C 0.2365 0.00472 0.49729 0.0
C1416 C 0.19838 0.97467 0.48193 0.0
C1417 C 0.17718 0.93099 0.49051 0.0
C1418 C 0.29334 0.02133 0.538 0.0
C1419 C 0.18011 0.98866 0.4564 0.0
C1420 C 0.27786 0.12539 0.49372 0.0
C1421 C 0.30951 0.13858 0.47113 0.0
C1422 C 0.25299 0.08172 0.5019 0.0
C1423 C 0.26069 0.05073 0.48763 0.0
C1424 C 0.29274 0.06398 0.46489 0.0
C1425 C 0.31642 0.10765 0.4567 0.0
C1426 C 0.21859 0.06874 0.52586 0.0
C1427 C 0.30266 0.03216 0.44962 0.0
H1428 H 0.24229 0.93643 0.54848 0.0
H1429 H 0.14831 0.90788 0.47856 0.0
H1430 H 0.32066 0.03626 0.52179 0.0
H1431 H 0.29011 0.04781 0.54834 0.0
H1432 H 0.30151 0.00506 0.5561 0.0
H1433 H 0.14912 0.96176 0.44776 0.0
H1434 H 0.17473 0.01509 0.46413 0.0
H1435 H 0.20353 0.00148 0.43743 0.0
H1436 H 0.27221 0.14916 0.50478 0.0
H1437 H 0.34105 0.1177 0.43935 0.0
H1438 H 0.22661 0.0551 0.54571 0.0
H1439 H 0.18704 0.04317 0.51698 0.0
H1440 H 0.21505 0.09634 0.53359 0.0
H1441 H 0.31296 0.0165 0.46677 0.0
H1442 H 0.32854 0.04769 0.43233 0.0
H1443 H 0.27323 0.00632 0.43853 0.0
C1444 C 0.17861 0.25243 0.84023 0.0
C1445 C 0.19485 0.28142 0.81594 0.0
C1446 C 0.19944 0.22998 0.84984 0.0
C1447 C 0.23796 0.23758 0.83528 0.0
C1448 C 0.25476 0.26734 0.81104 0.0
C1449 C 0.23274 0.28846 0.80145 0.0
C1450 C 0.18009 0.19789 0.87538 0.0
C1451 C 0.29625 0.27722 0.79536 0.0
C1452 C 0.31538 0.21183 0.87698 0.0
C1453 C 0.3082 0.17403 0.86234 0.0
C1454 C 0.29254 0.23267 0.86856 0.0
C1455 C 0.26103 0.21476 0.8454 0.0
C1456 C 0.25294 0.17602 0.83102 0.0
C1457 C 0.277 0.1564 0.83941 0.0
C1458 C 0.3029 0.27443 0.88396 0.0
C1459 C 0.21907 0.15547 0.80662 0.0
H1460 H 0.14924 0.24678 0.85142 0.0
H1461 H 0.24569 0.31113 0.78283 0.0
H1462 H 0.1737 0.16571 0.8677 0.0
H1463 H 0.20324 0.20774 0.89448 0.0
H1464 H 0.14943 0.19488 0.88382 0.0
H1465 H 0.30563 0.30218 0.77749 0.0
H1466 H 0.32285 0.28866 0.81211 0.0
H1467 H 0.29278 0.2475 0.78485 0.0
H1468 H 0.33968 0.22578 0.89458 0.0
H1469 H 0.27112 0.12701 0.82817 0.0
H1470 H 0.27338 0.27153 0.89444 0.0
H1471 H 0.31448 0.30072 0.86697 0.0
H1472 H 0.328 0.28386 0.90174 0.0
H1473 H 0.18759 0.15035 0.81501 0.0
H1474 H 0.21485 0.12401 0.79901 0.0
H1475 H 0.22819 0.17729 0.78679 0.0
loop_
_geom_bond_atom_site_label_1
_geom_bond_atom_site_label_2
_geom_bond_distance
_geom_bond_site_symmetry_2
_ccdc_geom_bond_type
Co0 O2 2.143 . S
Co0 O8 2.074 . S
Co0 O11 2.093 . S
Co0 O24 2.097 . S
Co0 N41 2.151 . S
Co0 N49 2.214 . S
Co1 O2 2.160 . S
Co1 O7 2.058 . S
Co1 O17 2.057 . S
Co1 O32 2.037 . S
Co1 N36 2.145 . S
Co1 N57 2.257 . S
O2 Co0 2.143 . S
O2 Co1 2.160 . S
C3 O4 1.278 . S
C3 O11 1.224 . S
O4 C3 1.278 . S
C5 O6 1.245 . S
C5 O17 1.232 . S
O6 C5 1.245 . S
O7 Co1 2.058 . S
O7 C33 1.269 . S
O8 Co0 2.074 . S
O8 C33 1.257 . S
H9 C34 0.930 . S
H10 C40 0.930 . S
O11 Co0 2.093 . S
O11 C3 1.224 . S
H12 C44 0.929 . S
H13 C46 0.930 . S
H14 C47 0.930 . S
H15 C45 0.929 . S
H16 C48 0.928 . S
O17 Co1 2.057 . S
O17 C5 1.232 . S
H18 C37 0.929 . S
H19 C38 0.929 . S
H20 C50 0.931 . S
H21 C42 0.929 . S
H22 C51 0.930 . S
H23 C43 0.931 . S
O24 Co0 2.097 . S
O24 C52 1.214 . S
H25 C53 0.929 . S
H26 C54 0.929 . S
H27 C55 0.930 . S
H28 C56 0.929 . S
H29 C58 0.930 . S
H30 C35 0.930 . S
H31 C39 0.930 . S
O32 Co1 2.037 . S
O32 C52 1.234 . S
C33 O7 1.269 . S
C33 O8 1.257 . S
C34 H9 0.930 . S
C34 C37 1.388 . S
C34 C39 1.418 . S
C35 H30 0.930 . S
C35 C38 1.404 . S
C35 C39 1.353 . S
N36 Co1 2.145 . S
N36 C37 1.397 . S
N36 C38 1.334 . S
C37 H18 0.929 . S
C37 C34 1.388 . S
C37 N36 1.397 . S
C38 H19 0.929 . S
C38 C35 1.404 . S
C38 N36 1.334 . S
C39 H31 0.930 . S
C39 C34 1.418 . S
C39 C35 1.353 . S
C40 H10 0.930 . S
C40 N41 1.330 . S
C40 C42 1.446 . S
N41 Co0 2.151 . S
N41 C40 1.330 . S
N41 C45 1.418 . S
C42 H21 0.929 . S
C42 C40 1.446 . S
C42 C43 1.332 . S
C43 H23 0.931 . S
C43 C42 1.332 . S
C43 C44 1.267 . S
C44 H12 0.929 . S
C44 C43 1.267 . S
C44 C45 1.251 . S
C45 H15 0.929 . S
C45 N41 1.418 . S
C45 C44 1.251 . S
C46 H13 0.930 . S
C46 C48 1.406 . S
C46 C51 1.261 . S
C47 H14 0.930 . S
C47 N49 1.325 . S
C47 C50 1.357 . S
C48 H16 0.928 . S
C48 C46 1.406 . S
C48 N49 1.261 . S
N49 Co0 2.214 . S
N49 C47 1.325 . S
N49 C48 1.261 . S
C50 H20 0.931 . S
C50 C47 1.357 . S
C50 C51 1.312 . S
C51 H22 0.930 . S
C51 C46 1.261 . S
C51 C50 1.312 . S
C52 O24 1.214 . S
C52 O32 1.234 . S
C53 H25 0.929 . S
C53 C56 1.391 . S
C53 C58 1.391 . S
C54 H26 0.929 . S
C54 C55 1.390 . S
C54 N57 1.391 . S
C55 H27 0.930 . S
C55 C54 1.390 . S
C55 C56 1.392 . S
C56 H28 0.929 . S
C56 C53 1.391 . S
C56 C55 1.392 . S
N57 Co1 2.257 . S
N57 C54 1.391 . S
N57 C58 1.388 . S
C58 H29 0.930 . S
C58 C53 1.391 . S
C58 N57 1.388 . S
Co59 O61 2.143 . S
Co59 O67 2.074 . S
Co59 O70 2.093 . S
Co59 O83 2.097 . S
Co59 N100 2.151 . S
Co59 N108 2.214 . S
Co60 O61 2.160 . S
Co60 O66 2.058 . S
Co60 O76 2.057 . S
Co60 O91 2.037 . S
Co60 N95 2.145 . S
Co60 N116 2.257 . S
O61 Co59 2.143 . S
O61 Co60 2.160 . S
C62 O63 1.278 . S
C62 O70 1.224 . S
O63 C62 1.278 . S
C64 O65 1.245 . S
C64 O76 1.232 . S
O65 C64 1.245 . S
O66 Co60 2.058 . S
O66 C92 1.269 . S
O67 Co59 2.074 . S
O67 C92 1.257 . S
H68 C93 0.930 . S
H69 C99 0.930 . S
O70 Co59 2.093 . S
O70 C62 1.224 . S
H71 C103 0.929 . S
H72 C105 0.930 . S
H73 C106 0.930 . S
H74 C104 0.929 . S
H75 C107 0.928 . S
O76 Co60 2.057 . S
O76 C64 1.232 . S
H77 C96 0.929 . S
H78 C97 0.929 . S
H79 C109 0.931 . S
H80 C101 0.929 . S
H81 C110 0.930 . S
H82 C102 0.931 . S
O83 Co59 2.097 . S
O83 C111 1.214 . S
H84 C112 0.929 . S
H85 C113 0.929 . S
H86 C114 0.930 . S
H87 C115 0.929 . S
H88 C117 0.930 . S
H89 C94 0.930 . S
H90 C98 0.930 . S
O91 Co60 2.037 . S
O91 C111 1.234 . S
C92 O66 1.269 . S
C92 O67 1.257 . S
C93 H68 0.930 . S
C93 C96 1.388 . S
C93 C98 1.418 . S
C94 H89 0.930 . S
C94 C97 1.404 1_455 S
C94 C98 1.353 . S
N95 Co60 2.145 . S
N95 C96 1.397 1_655 S
N95 C97 1.334 . S
C96 H77 0.929 . S
C96 C93 1.388 . S
C96 N95 1.397 1_455 S
C97 H78 0.929 . S
C97 C94 1.404 1_655 S
C97 N95 1.334 . S
C98 H90 0.930 . S
C98 C93 1.418 . S
C98 C94 1.353 . S
C99 H69 0.930 . S
C99 N100 1.330 . S
C99 C101 1.446 . S
N100 Co59 2.151 . S
N100 C99 1.330 . S
N100 C104 1.418 . S
C101 H80 0.929 . S
C101 C99 1.446 . S
C101 C102 1.332 . S
C102 H82 0.931 . S
C102 C101 1.332 . S
C102 C103 1.267 . S
C103 H71 0.929 . S
C103 C102 1.267 . S
C103 C104 1.251 . S
C104 H74 0.929 . S
C104 N100 1.418 . S
C104 C103 1.251 . S
C105 H72 0.930 . S
C105 C107 1.406 . S
C105 C110 1.261 . S
C106 H73 0.930 . S
C106 N108 1.325 . S
C106 C109 1.357 . S
C107 H75 0.928 . S
C107 C105 1.406 . S
C107 N108 1.261 . S
N108 Co59 2.214 . S
N108 C106 1.325 . S
N108 C107 1.261 . S
C109 H79 0.931 . S
C109 C106 1.357 . S
C109 C110 1.312 . S
C110 H81 0.930 . S
C110 C105 1.261 . S
C110 C109 1.312 . S
C111 O83 1.214 . S
C111 O91 1.234 . S
C112 H84 0.929 . S
C112 C115 1.391 . S
C112 C117 1.391 . S
C113 H85 0.929 . S
C113 C114 1.390 . S
C113 N116 1.391 . S
C114 H86 0.930 . S
C114 C113 1.390 . S
C114 C115 1.392 . S
C115 H87 0.929 . S
C115 C112 1.391 . S
C115 C114 1.392 . S
N116 Co60 2.257 . S
N116 C113 1.391 . S
N116 C117 1.388 . S
C117 H88 0.930 . S
C117 C112 1.391 . S
C117 N116 1.388 . S
Co118 O120 2.143 . S
Co118 O126 2.074 . S
Co118 O129 2.093 . S
Co118 O142 2.097 . S
Co118 N159 2.151 . S
Co118 N167 2.214 . S
Co119 O120 2.160 . S
Co119 O125 2.058 . S
Co119 O135 2.057 . S
Co119 O150 2.037 . S
Co119 N154 2.145 . S
Co119 N175 2.257 . S
O120 Co118 2.143 . S
O120 Co119 2.160 . S
C121 O122 1.278 . S
C121 O129 1.224 . S
O122 C121 1.278 . S
C123 O124 1.245 . S
C123 O135 1.232 . S
O124 C123 1.245 . S
O125 Co119 2.058 . S
O125 C151 1.269 . S
O126 Co118 2.074 . S
O126 C151 1.257 . S
H127 C152 0.930 . S
H128 C158 0.930 . S
O129 Co118 2.093 . S
O129 C121 1.224 . S
H130 C162 0.929 . S
H131 C164 0.930 . S
H132 C165 0.930 . S
H133 C163 0.929 . S
H134 C166 0.928 . S
O135 Co119 2.057 . S
O135 C123 1.232 . S
H136 C155 0.929 . S
H137 C156 0.929 . S
H138 C168 0.931 . S
H139 C160 0.929 . S
H140 C169 0.930 . S
H141 C161 0.931 . S
O142 Co118 2.097 . S
O142 C170 1.214 . S
H143 C171 0.929 . S
H144 C172 0.929 . S
H145 C173 0.930 . S
H146 C174 0.929 . S
H147 C176 0.930 . S
H148 C153 0.930 . S
H149 C157 0.930 . S
O150 Co119 2.037 . S
O150 C170 1.234 . S
C151 O125 1.269 . S
C151 O126 1.257 . S
C152 H127 0.930 . S
C152 C155 1.388 . S
C152 C157 1.418 . S
C153 H148 0.930 . S
C153 C156 1.404 1_545 S
C153 C157 1.353 . S
N154 Co119 2.145 . S
N154 C155 1.397 1_565 S
N154 C156 1.334 . S
C155 H136 0.929 . S
C155 C152 1.388 . S
C155 N154 1.397 1_545 S
C156 H137 0.929 . S
C156 C153 1.404 1_565 S
C156 N154 1.334 . S
C157 H149 0.930 . S
C157 C152 1.418 . S
C157 C153 1.353 . S
C158 H128 0.930 . S
C158 N159 1.330 . S
C158 C160 1.446 . S
N159 Co118 2.151 . S
N159 C158 1.330 . S
N159 C163 1.418 . S
C160 H139 0.929 . S
C160 C158 1.446 . S
C160 C161 1.332 . S
C161 H141 0.931 . S
C161 C160 1.332 . S
C161 C162 1.267 . S
C162 H130 0.929 . S
C162 C161 1.267 . S
C162 C163 1.251 . S
C163 H133 0.929 . S
C163 N159 1.418 . S
C163 C162 1.251 . S
C164 H131 0.930 . S
C164 C166 1.406 . S
C164 C169 1.261 . S
C165 H132 0.930 . S
C165 N167 1.325 . S
C165 C168 1.357 . S
C166 H134 0.928 . S
C166 C164 1.406 . S
C166 N167 1.261 . S
N167 Co118 2.214 . S
N167 C165 1.325 . S
N167 C166 1.261 . S
C168 H138 0.931 . S
C168 C165 1.357 . S
C168 C169 1.312 . S
C169 H140 0.930 . S
C169 C164 1.261 . S
C169 C168 1.312 . S
C170 O142 1.214 . S
C170 O150 1.234 . S
C171 H143 0.929 . S
C171 C174 1.391 . S
C171 C176 1.391 . S
C172 H144 0.929 . S
C172 C173 1.390 . S
C172 N175 1.391 . S
C173 H145 0.930 . S
C173 C172 1.390 . S
C173 C174 1.392 . S
C174 H146 0.929 . S
C174 C171 1.391 . S
C174 C173 1.392 . S
N175 Co119 2.257 . S
N175 C172 1.391 . S
N175 C176 1.388 . S
C176 H147 0.930 . S
C176 C171 1.391 . S
C176 N175 1.388 . S
Co177 O179 2.143 . S
Co177 O185 2.074 . S
Co177 O188 2.093 . S
Co177 O201 2.097 . S
Co177 N218 2.151 . S
Co177 N226 2.214 . S
Co178 O179 2.160 . S
Co178 O184 2.058 . S
Co178 O194 2.057 . S
Co178 O209 2.037 . S
Co178 N213 2.145 . S
Co178 N234 2.257 . S
O179 Co177 2.143 . S
O179 Co178 2.160 . S
C180 O181 1.278 . S
C180 O188 1.224 . S
O181 C180 1.278 . S
C182 O183 1.245 . S
C182 O194 1.232 . S
O183 C182 1.245 . S
O184 Co178 2.058 . S
O184 C210 1.269 . S
O185 Co177 2.074 . S
O185 C210 1.257 . S
H186 C211 0.930 . S
H187 C217 0.930 . S
O188 Co177 2.093 . S
O188 C180 1.224 . S
H189 C221 0.929 . S
H190 C223 0.930 . S
H191 C224 0.930 . S
H192 C222 0.929 . S
H193 C225 0.928 . S
O194 Co178 2.057 . S
O194 C182 1.232 . S
H195 C214 0.929 . S
H196 C215 0.929 . S
H197 C227 0.931 . S
H198 C219 0.929 . S
H199 C228 0.930 . S
H200 C220 0.931 . S
O201 Co177 2.097 . S
O201 C229 1.214 . S
H202 C230 0.929 . S
H203 C231 0.929 . S
H204 C232 0.930 . S
H205 C233 0.929 . S
H206 C235 0.930 . S
H207 C212 0.930 . S
H208 C216 0.930 . S
O209 Co178 2.037 . S
O209 C229 1.234 . S
C210 O184 1.269 . S
C210 O185 1.257 . S
C211 H186 0.930 . S
C211 C214 1.388 . S
C211 C216 1.418 . S
C212 H207 0.930 . S
C212 C215 1.404 . S
C212 C216 1.353 . S
N213 Co178 2.145 . S
N213 C214 1.397 . S
N213 C215 1.334 . S
C214 H195 0.929 . S
C214 C211 1.388 . S
C214 N213 1.397 . S
C215 H196 0.929 . S
C215 C212 1.404 . S
C215 N213 1.334 . S
C216 H208 0.930 . S
C216 C211 1.418 . S
C216 C212 1.353 . S
C217 H187 0.930 . S
C217 N218 1.330 . S
C217 C219 1.446 . S
N218 Co177 2.151 . S
N218 C217 1.330 . S
N218 C222 1.418 . S
C219 H198 0.929 . S
C219 C217 1.446 . S
C219 C220 1.332 . S
C220 H200 0.931 . S
C220 C219 1.332 . S
C220 C221 1.267 . S
C221 H189 0.929 . S
C221 C220 1.267 . S
C221 C222 1.251 . S
C222 H192 0.929 . S
C222 N218 1.418 . S
C222 C221 1.251 . S
C223 H190 0.930 . S
C223 C225 1.406 . S
C223 C228 1.261 . S
C224 H191 0.930 . S
C224 N226 1.325 . S
C224 C227 1.357 . S
C225 H193 0.928 . S
C225 C223 1.406 . S
C225 N226 1.261 . S
N226 Co177 2.214 . S
N226 C224 1.325 . S
N226 C225 1.261 . S
C227 H197 0.931 . S
C227 C224 1.357 . S
C227 C228 1.312 . S
C228 H199 0.930 . S
C228 C223 1.261 . S
C228 C227 1.312 . S
C229 O201 1.214 . S
C229 O209 1.234 . S
C230 H202 0.929 . S
C230 C233 1.391 . S
C230 C235 1.391 . S
C231 H203 0.929 . S
C231 C232 1.390 . S
C231 N234 1.391 . S
C232 H204 0.930 . S
C232 C231 1.390 . S
C232 C233 1.392 . S
C233 H205 0.929 . S
C233 C230 1.391 . S
C233 C232 1.392 . S
N234 Co178 2.257 . S
N234 C231 1.391 . S
N234 C235 1.388 . S
C235 H206 0.930 . S
C235 C230 1.391 . S
C235 N234 1.388 . S
Co236 O238 2.143 . S
Co236 O244 2.074 . S
Co236 O247 2.093 . S
Co236 O260 2.097 . S
Co236 N277 2.151 . S
Co236 N285 2.214 . S
Co237 O238 2.160 . S
Co237 O243 2.058 . S
Co237 O253 2.057 . S
Co237 O268 2.037 . S
Co237 N272 2.145 . S
Co237 N293 2.257 . S
O238 Co236 2.143 . S
O238 Co237 2.160 . S
C239 O240 1.278 . S
C239 O247 1.224 . S
O240 C239 1.278 . S
C241 O242 1.245 . S
C241 O253 1.232 . S
O242 C241 1.245 . S
O243 Co237 2.058 . S
O243 C269 1.269 . S
O244 Co236 2.074 . S
O244 C269 1.257 . S
H245 C270 0.930 . S
H246 C276 0.930 . S
O247 Co236 2.093 . S
O247 C239 1.224 . S
H248 C280 0.929 . S
H249 C282 0.930 . S
H250 C283 0.930 . S
H251 C281 0.929 . S
H252 C284 0.928 . S
O253 Co237 2.057 . S
O253 C241 1.232 . S
H254 C273 0.929 . S
H255 C274 0.929 . S
H256 C286 0.931 . S
H257 C278 0.929 . S
H258 C287 0.930 . S
H259 C279 0.931 . S
O260 Co236 2.097 . S
O260 C288 1.214 . S
H261 C289 0.929 . S
H262 C290 0.929 . S
H263 C291 0.930 . S
H264 C292 0.929 . S
H265 C294 0.930 . S
H266 C271 0.930 . S
H267 C275 0.930 . S
O268 Co237 2.037 . S
O268 C288 1.234 . S
C269 O243 1.269 . S
C269 O244 1.257 . S
C270 H245 0.930 . S
C270 C273 1.388 . S
C270 C275 1.418 . S
C271 H266 0.930 . S
C271 C274 1.404 1_655 S
C271 C275 1.353 . S
N272 Co237 2.145 . S
N272 C273 1.397 1_455 S
N272 C274 1.334 . S
C273 H254 0.929 . S
C273 C270 1.388 . S
C273 N272 1.397 1_655 S
C274 H255 0.929 . S
C274 C271 1.404 1_455 S
C274 N272 1.334 . S
C275 H267 0.930 . S
C275 C270 1.418 . S
C275 C271 1.353 . S
C276 H246 0.930 . S
C276 N277 1.330 . S
C276 C278 1.446 . S
N277 Co236 2.151 . S
N277 C276 1.330 . S
N277 C281 1.418 . S
C278 H257 0.929 . S
C278 C276 1.446 . S
C278 C279 1.332 . S
C279 H259 0.931 . S
C279 C278 1.332 . S
C279 C280 1.267 . S
C280 H248 0.929 . S
C280 C279 1.267 . S
C280 C281 1.251 . S
C281 H251 0.929 . S
C281 N277 1.418 . S
C281 C280 1.251 . S
C282 H249 0.930 . S
C282 C284 1.406 . S
C282 C287 1.261 . S
C283 H250 0.930 . S
C283 N285 1.325 . S
C283 C286 1.357 . S
C284 H252 0.928 . S
C284 C282 1.406 . S
C284 N285 1.261 . S
N285 Co236 2.214 . S
N285 C283 1.325 . S
N285 C284 1.261 . S
C286 H256 0.931 . S
C286 C283 1.357 . S
C286 C287 1.312 . S
C287 H258 0.930 . S
C287 C282 1.261 . S
C287 C286 1.312 . S
C288 O260 1.214 . S
C288 O268 1.234 . S
C289 H261 0.929 . S
C289 C292 1.391 . S
C289 C294 1.391 . S
C290 H262 0.929 . S
C290 C291 1.390 . S
C290 N293 1.391 . S
C291 H263 0.930 . S
C291 C290 1.390 . S
C291 C292 1.392 . S
C292 H264 0.929 . S
C292 C289 1.391 . S
C292 C291 1.392 . S
N293 Co237 2.257 . S
N293 C290 1.391 . S
N293 C294 1.388 . S
C294 H265 0.930 . S
C294 C289 1.391 . S
C294 N293 1.388 . S
Co295 O297 2.143 . S
Co295 O303 2.074 . S
Co295 O306 2.093 . S
Co295 O319 2.097 . S
Co295 N336 2.151 . S
Co295 N344 2.214 . S
Co296 O297 2.160 . S
Co296 O302 2.058 . S
Co296 O312 2.057 . S
Co296 O327 2.037 . S
Co296 N331 2.145 . S
Co296 N352 2.257 . S
O297 Co295 2.143 . S
O297 Co296 2.160 . S
C298 O299 1.278 . S
C298 O306 1.224 . S
O299 C298 1.278 . S
C300 O301 1.245 . S
C300 O312 1.232 . S
O301 C300 1.245 . S
O302 Co296 2.058 . S
O302 C328 1.269 . S
O303 Co295 2.074 . S
O303 C328 1.257 . S
H304 C329 0.930 . S
H305 C335 0.930 . S
O306 Co295 2.093 . S
O306 C298 1.224 . S
H307 C339 0.929 . S
H308 C341 0.930 . S
H309 C342 0.930 . S
H310 C340 0.929 . S
H311 C343 0.928 . S
O312 Co296 2.057 . S
O312 C300 1.232 . S
H313 C332 0.929 . S
H314 C333 0.929 . S
H315 C345 0.931 . S
H316 C337 0.929 . S
H317 C346 0.930 . S
H318 C338 0.931 . S
O319 Co295 2.097 . S
O319 C347 1.214 . S
H320 C348 0.929 . S
H321 C349 0.929 . S
H322 C350 0.930 . S
H323 C351 0.929 . S
H324 C353 0.930 . S
H325 C330 0.930 . S
H326 C334 0.930 . S
O327 Co296 2.037 . S
O327 C347 1.234 . S
C328 O302 1.269 . S
C328 O303 1.257 . S
C329 H304 0.930 . S
C329 C332 1.388 . S
C329 C334 1.418 . S
C330 H325 0.930 . S
C330 C333 1.404 1_565 S
C330 C334 1.353 . S
N331 Co296 2.145 . S
N331 C332 1.397 1_545 S
N331 C333 1.334 . S
C332 H313 0.929 . S
C332 C329 1.388 . S
C332 N331 1.397 1_565 S
C333 H314 0.929 . S
C333 C330 1.404 1_545 S
C333 N331 1.334 . S
C334 H326 0.930 . S
C334 C329 1.418 . S
C334 C330 1.353 . S
C335 H305 0.930 . S
C335 N336 1.330 . S
C335 C337 1.446 . S
N336 Co295 2.151 . S
N336 C335 1.330 . S
N336 C340 1.418 . S
C337 H316 0.929 . S
C337 C335 1.446 . S
C337 C338 1.332 . S
C338 H318 0.931 . S
C338 C337 1.332 . S
C338 C339 1.267 . S
C339 H307 0.929 . S
C339 C338 1.267 . S
C339 C340 1.251 . S
C340 H310 0.929 . S
C340 N336 1.418 . S
C340 C339 1.251 . S
C341 H308 0.930 . S
C341 C343 1.406 . S
C341 C346 1.261 . S
C342 H309 0.930 . S
C342 N344 1.325 . S
C342 C345 1.357 . S
C343 H311 0.928 . S
C343 C341 1.406 . S
C343 N344 1.261 . S
N344 Co295 2.214 . S
N344 C342 1.325 . S
N344 C343 1.261 . S
C345 H315 0.931 . S
C345 C342 1.357 . S
C345 C346 1.312 . S
C346 H317 0.930 . S
C346 C341 1.261 . S
C346 C345 1.312 . S
C347 O319 1.214 . S
C347 O327 1.234 . S
C348 H320 0.929 . S
C348 C351 1.391 . S
C348 C353 1.391 . S
C349 H321 0.929 . S
C349 C350 1.390 . S
C349 N352 1.391 . S
C350 H322 0.930 . S
C350 C349 1.390 . S
C350 C351 1.392 . S
C351 H323 0.929 . S
C351 C348 1.391 . S
C351 C350 1.392 . S
N352 Co296 2.257 . S
N352 C349 1.391 . S
N352 C353 1.388 . S
C353 H324 0.930 . S
C353 C348 1.391 . S
C353 N352 1.388 . S
Co354 O356 2.143 . S
Co354 O362 2.074 . S
Co354 O365 2.093 . S
Co354 O378 2.097 . S
Co354 N395 2.151 . S
Co354 N403 2.214 . S
Co355 O356 2.160 . S
Co355 O361 2.058 . S
Co355 O371 2.057 . S
Co355 O386 2.037 . S
Co355 N390 2.145 . S
Co355 N411 2.257 . S
O356 Co354 2.143 . S
O356 Co355 2.160 . S
C357 O358 1.278 . S
C357 O365 1.224 . S
O358 C357 1.278 . S
C359 O360 1.245 . S
C359 O371 1.232 . S
O360 C359 1.245 . S
O361 Co355 2.058 . S
O361 C387 1.269 . S
O362 Co354 2.074 . S
O362 C387 1.257 . S
H363 C388 0.930 . S
H364 C394 0.930 . S
O365 Co354 2.093 . S
O365 C357 1.224 . S
H366 C398 0.929 . S
H367 C400 0.930 . S
H368 C401 0.930 . S
H369 C399 0.929 . S
H370 C402 0.928 . S
O371 Co355 2.057 . S
O371 C359 1.232 . S
H372 C391 0.929 . S
H373 C392 0.929 . S
H374 C404 0.931 . S
H375 C396 0.929 . S
H376 C405 0.930 . S
H377 C397 0.931 . S
O378 Co354 2.097 . S
O378 C406 1.214 . S
H379 C407 0.929 . S
H380 C408 0.929 . S
H381 C409 0.930 . S
H382 C410 0.929 . S
H383 C412 0.930 . S
H384 C389 0.930 . S
H385 C393 0.930 . S
O386 Co355 2.037 . S
O386 C406 1.234 . S
C387 O361 1.269 . S
C387 O362 1.257 . S
C388 H363 0.930 . S
C388 C391 1.388 . S
C388 C393 1.418 . S
C389 H384 0.930 . S
C389 C392 1.404 . S
C389 C393 1.353 . S
N390 Co355 2.145 . S
N390 C391 1.397 . S
N390 C392 1.334 . S
C391 H372 0.929 . S
C391 C388 1.388 . S
C391 N390 1.397 . S
C392 H373 0.929 . S
C392 C389 1.404 . S
C392 N390 1.334 . S
C393 H385 0.930 . S
C393 C388 1.418 . S
C393 C389 1.353 . S
C394 H364 0.930 . S
C394 N395 1.330 . S
C394 C396 1.446 . S
N395 Co354 2.151 . S
N395 C394 1.330 . S
N395 C399 1.418 . S
C396 H375 0.929 . S
C396 C394 1.446 . S
C396 C397 1.332 . S
C397 H377 0.931 . S
C397 C396 1.332 . S
C397 C398 1.267 . S
C398 H366 0.929 . S
C398 C397 1.267 . S
C398 C399 1.251 . S
C399 H369 0.929 . S
C399 N395 1.418 . S
C399 C398 1.251 . S
C400 H367 0.930 . S
C400 C402 1.406 . S
C400 C405 1.261 . S
C401 H368 0.930 . S
C401 N403 1.325 . S
C401 C404 1.357 . S
C402 H370 0.928 . S
C402 C400 1.406 . S
C402 N403 1.261 . S
N403 Co354 2.214 . S
N403 C401 1.325 . S
N403 C402 1.261 . S
C404 H374 0.931 . S
C404 C401 1.357 . S
C404 C405 1.312 . S
C405 H376 0.930 . S
C405 C400 1.261 . S
C405 C404 1.312 . S
C406 O378 1.214 . S
C406 O386 1.234 . S
C407 H379 0.929 . S
C407 C410 1.391 . S
C407 C412 1.391 . S
C408 H380 0.929 . S
C408 C409 1.390 . S
C408 N411 1.391 . S
C409 H381 0.930 . S
C409 C408 1.390 . S
C409 C410 1.392 . S
C410 H382 0.929 . S
C410 C407 1.391 . S
C410 C409 1.392 . S
N411 Co355 2.257 . S
N411 C408 1.391 . S
N411 C412 1.388 . S
C412 H383 0.930 . S
C412 C407 1.391 . S
C412 N411 1.388 . S
Co413 O415 2.143 . S
Co413 O421 2.074 . S
Co413 O424 2.093 . S
Co413 O437 2.097 . S
Co413 N454 2.151 . S
Co413 N462 2.214 . S
Co414 O415 2.160 . S
Co414 O420 2.058 . S
Co414 O430 2.057 . S
Co414 O445 2.037 . S
Co414 N449 2.145 . S
Co414 N470 2.257 . S
O415 Co413 2.143 . S
O415 Co414 2.160 . S
C416 O417 1.278 . S
C416 O424 1.224 . S
O417 C416 1.278 . S
C418 O419 1.245 . S
C418 O430 1.232 . S
O419 C418 1.245 . S
O420 Co414 2.058 . S
O420 C446 1.269 . S
O421 Co413 2.074 . S
O421 C446 1.257 . S
H422 C447 0.930 . S
H423 C453 0.930 . S
O424 Co413 2.093 . S
O424 C416 1.224 . S
H425 C457 0.929 . S
H426 C459 0.930 . S
H427 C460 0.930 . S
H428 C458 0.929 . S
H429 C461 0.928 . S
O430 Co414 2.057 . S
O430 C418 1.232 . S
H431 C450 0.929 . S
H432 C451 0.929 . S
H433 C463 0.931 . S
H434 C455 0.929 . S
H435 C464 0.930 . S
H436 C456 0.931 . S
O437 Co413 2.097 . S
O437 C465 1.214 . S
H438 C466 0.929 . S
H439 C467 0.929 . S
H440 C468 0.930 . S
H441 C469 0.929 . S
H442 C471 0.930 . S
H443 C448 0.930 . S
H444 C452 0.930 . S
O445 Co414 2.037 . S
O445 C465 1.234 . S
C446 O420 1.269 . S
C446 O421 1.257 . S
C447 H422 0.930 . S
C447 C450 1.388 . S
C447 C452 1.418 . S
C448 H443 0.930 . S
C448 C451 1.404 1_455 S
C448 C452 1.353 . S
N449 Co414 2.145 . S
N449 C450 1.397 1_655 S
N449 C451 1.334 . S
C450 H431 0.929 . S
C450 C447 1.388 . S
C450 N449 1.397 1_455 S
C451 H432 0.929 . S
C451 C448 1.404 1_655 S
C451 N449 1.334 . S
C452 H444 0.930 . S
C452 C447 1.418 . S
C452 C448 1.353 . S
C453 H423 0.930 . S
C453 N454 1.330 . S
C453 C455 1.446 . S
N454 Co413 2.151 . S
N454 C453 1.330 . S
N454 C458 1.418 . S
C455 H434 0.929 . S
C455 C453 1.446 . S
C455 C456 1.332 . S
C456 H436 0.931 . S
C456 C455 1.332 . S
C456 C457 1.267 . S
C457 H425 0.929 . S
C457 C456 1.267 . S
C457 C458 1.251 . S
C458 H428 0.929 . S
C458 N454 1.418 . S
C458 C457 1.251 . S
C459 H426 0.930 . S
C459 C461 1.406 . S
C459 C464 1.261 . S
C460 H427 0.930 . S
C460 N462 1.325 . S
C460 C463 1.357 . S
C461 H429 0.928 . S
C461 C459 1.406 . S
C461 N462 1.261 . S
N462 Co413 2.214 . S
N462 C460 1.325 . S
N462 C461 1.261 . S
C463 H433 0.931 . S
C463 C460 1.357 . S
C463 C464 1.312 . S
C464 H435 0.930 . S
C464 C459 1.261 . S
C464 C463 1.312 . S
C465 O437 1.214 . S
C465 O445 1.234 . S
C466 H438 0.929 . S
C466 C469 1.391 . S
C466 C471 1.391 . S
C467 H439 0.929 . S
C467 C468 1.390 . S
C467 N470 1.391 . S
C468 H440 0.930 . S
C468 C467 1.390 . S
C468 C469 1.392 . S
C469 H441 0.929 . S
C469 C466 1.391 . S
C469 C468 1.392 . S
N470 Co414 2.257 . S
N470 C467 1.391 . S
N470 C471 1.388 . S
C471 H442 0.930 . S
C471 C466 1.391 . S
C471 N470 1.388 . S
Co472 O474 2.143 . S
Co472 O480 2.074 . S
Co472 O483 2.093 . S
Co472 O496 2.097 . S
Co472 N513 2.151 . S
Co472 N521 2.214 . S
Co473 O474 2.160 . S
Co473 O479 2.058 . S
Co473 O489 2.057 . S
Co473 O504 2.037 . S
Co473 N508 2.145 . S
Co473 N529 2.257 . S
O474 Co472 2.143 . S
O474 Co473 2.160 . S
C475 O476 1.278 . S
C475 O483 1.224 . S
O476 C475 1.278 . S
C477 O478 1.245 . S
C477 O489 1.232 . S
O478 C477 1.245 . S
O479 Co473 2.058 . S
O479 C505 1.269 . S
O480 Co472 2.074 . S
O480 C505 1.257 . S
H481 C506 0.930 . S
H482 C512 0.930 . S
O483 Co472 2.093 . S
O483 C475 1.224 . S
H484 C516 0.929 . S
H485 C518 0.930 . S
H486 C519 0.930 . S
H487 C517 0.929 . S
H488 C520 0.928 . S
O489 Co473 2.057 . S
O489 C477 1.232 . S
H490 C509 0.929 . S
H491 C510 0.929 . S
H492 C522 0.931 . S
H493 C514 0.929 . S
H494 C523 0.930 . S
H495 C515 0.931 . S
O496 Co472 2.097 . S
O496 C524 1.214 . S
H497 C525 0.929 . S
H498 C526 0.929 . S
H499 C527 0.930 . S
H500 C528 0.929 . S
H501 C530 0.930 . S
H502 C507 0.930 . S
H503 C511 0.930 . S
O504 Co473 2.037 . S
O504 C524 1.234 . S
C505 O479 1.269 . S
C505 O480 1.257 . S
C506 H481 0.930 . S
C506 C509 1.388 . S
C506 C511 1.418 . S
C507 H502 0.930 . S
C507 C510 1.404 1_545 S
C507 C511 1.353 . S
N508 Co473 2.145 . S
N508 C509 1.397 1_565 S
N508 C510 1.334 . S
C509 H490 0.929 . S
C509 C506 1.388 . S
C509 N508 1.397 1_545 S
C510 H491 0.929 . S
C510 C507 1.404 1_565 S
C510 N508 1.334 . S
C511 H503 0.930 . S
C511 C506 1.418 . S
C511 C507 1.353 . S
C512 H482 0.930 . S
C512 N513 1.330 . S
C512 C514 1.446 . S
N513 Co472 2.151 . S
N513 C512 1.330 . S
N513 C517 1.418 . S
C514 H493 0.929 . S
C514 C512 1.446 . S
C514 C515 1.332 . S
C515 H495 0.931 . S
C515 C514 1.332 . S
C515 C516 1.267 . S
C516 H484 0.929 . S
C516 C515 1.267 . S
C516 C517 1.251 . S
C517 H487 0.929 . S
C517 N513 1.418 . S
C517 C516 1.251 . S
C518 H485 0.930 . S
C518 C520 1.406 . S
C518 C523 1.261 . S
C519 H486 0.930 . S
C519 N521 1.325 . S
C519 C522 1.357 . S
C520 H488 0.928 . S
C520 C518 1.406 . S
C520 N521 1.261 . S
N521 Co472 2.214 . S
N521 C519 1.325 . S
N521 C520 1.261 . S
C522 H492 0.931 . S
C522 C519 1.357 . S
C522 C523 1.312 . S
C523 H494 0.930 . S
C523 C518 1.261 . S
C523 C522 1.312 . S
C524 O496 1.214 . S
C524 O504 1.234 . S
C525 H497 0.929 . S
C525 C528 1.391 . S
C525 C530 1.391 . S
C526 H498 0.929 . S
C526 C527 1.390 . S
C526 N529 1.391 . S
C527 H499 0.930 . S
C527 C526 1.390 . S
C527 C528 1.392 . S
C528 H500 0.929 . S
C528 C525 1.391 . S
C528 C527 1.392 . S
N529 Co473 2.257 . S
N529 C526 1.391 . S
N529 C530 1.388 . S
C530 H501 0.930 . S
C530 C525 1.391 . S
C530 N529 1.388 . S
Co531 O533 2.143 . S
Co531 O539 2.074 . S
Co531 O542 2.093 . S
Co531 O555 2.097 . S
Co531 N572 2.151 . S
Co531 N580 2.214 . S
Co532 O533 2.160 . S
Co532 O538 2.058 . S
Co532 O548 2.057 . S
Co532 O563 2.037 . S
Co532 N567 2.145 . S
Co532 N588 2.257 . S
O533 Co531 2.143 . S
O533 Co532 2.160 . S
C534 O535 1.278 . S
C534 O542 1.224 . S
O535 C534 1.278 . S
C536 O537 1.245 . S
C536 O548 1.232 . S
O537 C536 1.245 . S
O538 Co532 2.058 . S
O538 C564 1.269 . S
O539 Co531 2.074 . S
O539 C564 1.257 . S
H540 C565 0.930 . S
H541 C571 0.930 . S
O542 Co531 2.093 . S
O542 C534 1.224 . S
H543 C575 0.929 . S
H544 C577 0.930 . S
H545 C578 0.930 . S
H546 C576 0.929 . S
H547 C579 0.928 . S
O548 Co532 2.057 . S
O548 C536 1.232 . S
H549 C568 0.929 . S
H550 C569 0.929 . S
H551 C581 0.931 . S
H552 C573 0.929 . S
H553 C582 0.930 . S
H554 C574 0.931 . S
O555 Co531 2.097 . S
O555 C583 1.214 . S
H556 C584 0.929 . S
H557 C585 0.929 . S
H558 C586 0.930 . S
H559 C587 0.929 . S
H560 C589 0.930 . S
H561 C566 0.930 . S
H562 C570 0.930 . S
O563 Co532 2.037 . S
O563 C583 1.234 . S
C564 O538 1.269 . S
C564 O539 1.257 . S
C565 H540 0.930 . S
C565 C568 1.388 . S
C565 C570 1.418 . S
C566 H561 0.930 . S
C566 C569 1.404 . S
C566 C570 1.353 . S
N567 Co532 2.145 . S
N567 C568 1.397 . S
N567 C569 1.334 . S
C568 H549 0.929 . S
C568 C565 1.388 . S
C568 N567 1.397 . S
C569 H550 0.929 . S
C569 C566 1.404 . S
C569 N567 1.334 . S
C570 H562 0.930 . S
C570 C565 1.418 . S
C570 C566 1.353 . S
C571 H541 0.930 . S
C571 N572 1.330 . S
C571 C573 1.446 . S
N572 Co531 2.151 . S
N572 C571 1.330 . S
N572 C576 1.418 . S
C573 H552 0.929 . S
C573 C571 1.446 . S
C573 C574 1.332 . S
C574 H554 0.931 . S
C574 C573 1.332 . S
C574 C575 1.267 . S
C575 H543 0.929 . S
C575 C574 1.267 . S
C575 C576 1.251 . S
C576 H546 0.929 . S
C576 N572 1.418 . S
C576 C575 1.251 . S
C577 H544 0.930 . S
C577 C579 1.406 . S
C577 C582 1.261 . S
C578 H545 0.930 . S
C578 N580 1.325 . S
C578 C581 1.357 . S
C579 H547 0.928 . S
C579 C577 1.406 . S
C579 N580 1.261 . S
N580 Co531 2.214 . S
N580 C578 1.325 . S
N580 C579 1.261 . S
C581 H551 0.931 . S
C581 C578 1.357 . S
C581 C582 1.312 . S
C582 H553 0.930 . S
C582 C577 1.261 . S
C582 C581 1.312 . S
C583 O555 1.214 . S
C583 O563 1.234 . S
C584 H556 0.929 . S
C584 C587 1.391 . S
C584 C589 1.391 . S
C585 H557 0.929 . S
C585 C586 1.390 . S
C585 N588 1.391 . S
C586 H558 0.930 . S
C586 C585 1.390 . S
C586 C587 1.392 . S
C587 H559 0.929 . S
C587 C584 1.391 . S
C587 C586 1.392 . S
N588 Co532 2.257 . S
N588 C585 1.391 . S
N588 C589 1.388 . S
C589 H560 0.930 . S
C589 C584 1.391 . S
C589 N588 1.388 . S
Co590 O592 2.143 . S
Co590 O598 2.074 . S
Co590 O601 2.093 . S
Co590 O614 2.097 . S
Co590 N631 2.151 . S
Co590 N639 2.214 . S
Co591 O592 2.160 . S
Co591 O597 2.058 . S
Co591 O607 2.057 . S
Co591 O622 2.037 . S
Co591 N626 2.145 . S
Co591 N647 2.257 . S
O592 Co590 2.143 . S
O592 Co591 2.160 . S
C593 O594 1.278 . S
C593 O601 1.224 . S
O594 C593 1.278 . S
C595 O596 1.245 . S
C595 O607 1.232 . S
O596 C595 1.245 . S
O597 Co591 2.058 . S
O597 C623 1.269 . S
O598 Co590 2.074 . S
O598 C623 1.257 . S
H599 C624 0.930 . S
H600 C630 0.930 . S
O601 Co590 2.093 . S
O601 C593 1.224 . S
H602 C634 0.929 . S
H603 C636 0.930 . S
H604 C637 0.930 . S
H605 C635 0.929 . S
H606 C638 0.928 . S
O607 Co591 2.057 . S
O607 C595 1.232 . S
H608 C627 0.929 . S
H609 C628 0.929 . S
H610 C640 0.931 . S
H611 C632 0.929 . S
H612 C641 0.930 . S
H613 C633 0.931 . S
O614 Co590 2.097 . S
O614 C642 1.214 . S
H615 C643 0.929 . S
H616 C644 0.929 . S
H617 C645 0.930 . S
H618 C646 0.929 . S
H619 C648 0.930 . S
H620 C625 0.930 . S
H621 C629 0.930 . S
O622 Co591 2.037 . S
O622 C642 1.234 . S
C623 O597 1.269 . S
C623 O598 1.257 . S
C624 H599 0.930 . S
C624 C627 1.388 . S
C624 C629 1.418 . S
C625 H620 0.930 . S
C625 C628 1.404 1_655 S
C625 C629 1.353 . S
N626 Co591 2.145 . S
N626 C627 1.397 1_455 S
N626 C628 1.334 . S
C627 H608 0.929 . S
C627 C624 1.388 . S
C627 N626 1.397 1_655 S
C628 H609 0.929 . S
C628 C625 1.404 1_455 S
C628 N626 1.334 . S
C629 H621 0.930 . S
C629 C624 1.418 . S
C629 C625 1.353 . S
C630 H600 0.930 . S
C630 N631 1.330 . S
C630 C632 1.446 . S
N631 Co590 2.151 . S
N631 C630 1.330 . S
N631 C635 1.418 . S
C632 H611 0.929 . S
C632 C630 1.446 . S
C632 C633 1.332 . S
C633 H613 0.931 . S
C633 C632 1.332 . S
C633 C634 1.267 . S
C634 H602 0.929 . S
C634 C633 1.267 . S
C634 C635 1.251 . S
C635 H605 0.929 . S
C635 N631 1.418 . S
C635 C634 1.251 . S
C636 H603 0.930 . S
C636 C638 1.406 . S
C636 C641 1.261 . S
C637 H604 0.930 . S
C637 N639 1.325 . S
C637 C640 1.357 . S
C638 H606 0.928 . S
C638 C636 1.406 . S
C638 N639 1.261 . S
N639 Co590 2.214 . S
N639 C637 1.325 . S
N639 C638 1.261 . S
C640 H610 0.931 . S
C640 C637 1.357 . S
C640 C641 1.312 . S
C641 H612 0.930 . S
C641 C636 1.261 . S
C641 C640 1.312 . S
C642 O614 1.214 . S
C642 O622 1.234 . S
C643 H615 0.929 . S
C643 C646 1.391 . S
C643 C648 1.391 . S
C644 H616 0.929 . S
C644 C645 1.390 . S
C644 N647 1.391 . S
C645 H617 0.930 . S
C645 C644 1.390 . S
C645 C646 1.392 . S
C646 H618 0.929 . S
C646 C643 1.391 . S
C646 C645 1.392 . S
N647 Co591 2.257 . S
N647 C644 1.391 . S
N647 C648 1.388 . S
C648 H619 0.930 . S
C648 C643 1.391 . S
C648 N647 1.388 . S
Co649 O651 2.143 . S
Co649 O657 2.074 . S
Co649 O660 2.093 . S
Co649 O673 2.097 . S
Co649 N690 2.151 . S
Co649 N698 2.214 . S
Co650 O651 2.160 . S
Co650 O656 2.058 . S
Co650 O666 2.057 . S
Co650 O681 2.037 . S
Co650 N685 2.145 . S
Co650 N706 2.257 . S
O651 Co649 2.143 . S
O651 Co650 2.160 . S
C652 O653 1.278 . S
C652 O660 1.224 . S
O653 C652 1.278 . S
C654 O655 1.245 . S
C654 O666 1.232 . S
O655 C654 1.245 . S
O656 Co650 2.058 . S
O656 C682 1.269 . S
O657 Co649 2.074 . S
O657 C682 1.257 . S
H658 C683 0.930 . S
H659 C689 0.930 . S
O660 Co649 2.093 . S
O660 C652 1.224 . S
H661 C693 0.929 . S
H662 C695 0.930 . S
H663 C696 0.930 . S
H664 C694 0.929 . S
H665 C697 0.928 . S
O666 Co650 2.057 . S
O666 C654 1.232 . S
H667 C686 0.929 . S
H668 C687 0.929 . S
H669 C699 0.931 . S
H670 C691 0.929 . S
H671 C700 0.930 . S
H672 C692 0.931 . S
O673 Co649 2.097 . S
O673 C701 1.214 . S
H674 C702 0.929 . S
H675 C703 0.929 . S
H676 C704 0.930 . S
H677 C705 0.929 . S
H678 C707 0.930 . S
H679 C684 0.930 . S
H680 C688 0.930 . S
O681 Co650 2.037 . S
O681 C701 1.234 . S
C682 O656 1.269 . S
C682 O657 1.257 . S
C683 H658 0.930 . S
C683 C686 1.388 . S
C683 C688 1.418 . S
C684 H679 0.930 . S
C684 C687 1.404 1_565 S
C684 C688 1.353 . S
N685 Co650 2.145 . S
N685 C686 1.397 1_545 S
N685 C687 1.334 . S
C686 H667 0.929 . S
C686 C683 1.388 . S
C686 N685 1.397 1_565 S
C687 H668 0.929 . S
C687 C684 1.404 1_545 S
C687 N685 1.334 . S
C688 H680 0.930 . S
C688 C683 1.418 . S
C688 C684 1.353 . S
C689 H659 0.930 . S
C689 N690 1.330 . S
C689 C691 1.446 . S
N690 Co649 2.151 . S
N690 C689 1.330 . S
N690 C694 1.418 . S
C691 H670 0.929 . S
C691 C689 1.446 . S
C691 C692 1.332 . S
C692 H672 0.931 . S
C692 C691 1.332 . S
C692 C693 1.267 . S
C693 H661 0.929 . S
C693 C692 1.267 . S
C693 C694 1.251 . S
C694 H664 0.929 . S
C694 N690 1.418 . S
C694 C693 1.251 . S
C695 H662 0.930 . S
C695 C697 1.406 . S
C695 C700 1.261 . S
C696 H663 0.930 . S
C696 N698 1.325 . S
C696 C699 1.357 . S
C697 H665 0.928 . S
C697 C695 1.406 . S
C697 N698 1.261 . S
N698 Co649 2.214 . S
N698 C696 1.325 . S
N698 C697 1.261 . S
C699 H669 0.931 . S
C699 C696 1.357 . S
C699 C700 1.312 . S
C700 H671 0.930 . S
C700 C695 1.261 . S
C700 C699 1.312 . S
C701 O673 1.214 . S
C701 O681 1.234 . S
C702 H674 0.929 . S
C702 C705 1.391 . S
C702 C707 1.391 . S
C703 H675 0.929 . S
C703 C704 1.390 . S
C703 N706 1.391 . S
C704 H676 0.930 . S
C704 C703 1.390 . S
C704 C705 1.392 . S
C705 H677 0.929 . S
C705 C702 1.391 . S
C705 C704 1.392 . S
N706 Co650 2.257 . S
N706 C703 1.391 . S
N706 C707 1.388 . S
C707 H678 0.930 . S
C707 C702 1.391 . S
C707 N706 1.388 . S
C708 C709 1.391 . S
C708 C710 1.394 . S
C708 H724 0.931 . S
C709 C708 1.391 . S
C709 C713 1.376 . S
C710 C708 1.394 . S
C710 C711 1.369 . S
C710 C714 1.531 . S
C711 C710 1.369 . S
C711 C712 1.410 . S
C711 C719 1.503 . S
C712 C711 1.410 . S
C712 C713 1.392 . S
C712 C715 1.511 . S
C713 C709 1.376 . S
C713 C712 1.392 . S
C713 H725 0.929 . S
C714 C710 1.531 . S
C714 H726 0.960 . S
C714 H727 0.962 . S
C714 H728 0.960 . S
C715 C712 1.511 . S
C715 H729 0.961 . S
C715 H730 0.961 . S
C715 H731 0.961 . S
C716 C717 1.370 . S
C716 C718 1.363 . S
C716 H732 0.931 . S
C717 C716 1.370 . S
C717 C721 1.408 . S
C718 C716 1.363 . S
C718 C719 1.370 . S
C718 C722 1.524 . S
C719 C711 1.503 . S
C719 C718 1.370 . S
C719 C720 1.403 . S
C720 C719 1.403 . S
C720 C721 1.404 . S
C720 C723 1.539 . S
C721 C717 1.408 . S
C721 C720 1.404 . S
C721 H733 0.930 . S
C722 C718 1.524 . S
C722 H734 0.956 . S
C722 H735 0.961 . S
C722 H736 0.961 . S
C723 C720 1.539 . S
C723 H737 0.958 . S
C723 H738 0.961 . S
C723 H739 0.960 . S
H724 C708 0.931 . S
H725 C713 0.929 . S
H726 C714 0.960 . S
H727 C714 0.962 . S
H728 C714 0.960 . S
H729 C715 0.961 . S
H730 C715 0.961 . S
H731 C715 0.961 . S
H732 C716 0.931 . S
H733 C721 0.930 . S
H734 C722 0.956 . S
H735 C722 0.961 . S
H736 C722 0.961 . S
H737 C723 0.958 . S
H738 C723 0.961 . S
H739 C723 0.960 . S
C740 C741 1.391 . S
C740 C742 1.394 . S
C740 H756 0.931 . S
C741 C740 1.391 . S
C741 C745 1.376 . S
C742 C740 1.394 . S
C742 C743 1.369 . S
C742 C746 1.531 . S
C743 C742 1.369 . S
C743 C744 1.410 . S
C743 C751 1.503 . S
C744 C743 1.410 . S
C744 C745 1.392 . S
C744 C747 1.511 . S
C745 C741 1.376 . S
C745 C744 1.392 . S
C745 H757 0.929 . S
C746 C742 1.531 . S
C746 H758 0.960 . S
C746 H759 0.962 . S
C746 H760 0.960 . S
C747 C744 1.511 . S
C747 H761 0.961 . S
C747 H762 0.961 . S
C747 H763 0.961 . S
C748 C749 1.370 . S
C748 C750 1.363 . S
C748 H764 0.931 . S
C749 C748 1.370 . S
C749 C753 1.408 . S
C750 C748 1.363 . S
C750 C751 1.370 . S
C750 C754 1.524 . S
C751 C743 1.503 . S
C751 C750 1.370 . S
C751 C752 1.403 . S
C752 C751 1.403 . S
C752 C753 1.404 . S
C752 C755 1.539 . S
C753 C749 1.408 . S
C753 C752 1.404 . S
C753 H765 0.930 . S
C754 C750 1.524 . S
C754 H766 0.956 . S
C754 H767 0.961 . S
C754 H768 0.961 . S
C755 C752 1.539 . S
C755 H769 0.958 . S
C755 H770 0.961 . S
C755 H771 0.960 . S
H756 C740 0.931 . S
H757 C745 0.929 . S
H758 C746 0.960 . S
H759 C746 0.962 . S
H760 C746 0.960 . S
H761 C747 0.961 . S
H762 C747 0.961 . S
H763 C747 0.961 . S
H764 C748 0.931 . S
H765 C753 0.930 . S
H766 C754 0.956 . S
H767 C754 0.961 . S
H768 C754 0.961 . S
H769 C755 0.958 . S
H770 C755 0.961 . S
H771 C755 0.960 . S
C772 C773 1.391 . S
C772 C774 1.394 . S
C772 H788 0.931 . S
C773 C772 1.391 . S
C773 C777 1.376 . S
C774 C772 1.394 . S
C774 C775 1.369 . S
C774 C778 1.531 . S
C775 C774 1.369 . S
C775 C776 1.410 . S
C775 C783 1.503 . S
C776 C775 1.410 . S
C776 C777 1.392 . S
C776 C779 1.511 . S
C777 C773 1.376 . S
C777 C776 1.392 . S
C777 H789 0.929 . S
C778 C774 1.531 . S
C778 H790 0.960 . S
C778 H791 0.962 . S
C778 H792 0.960 . S
C779 C776 1.511 . S
C779 H793 0.961 . S
C779 H794 0.961 . S
C779 H795 0.961 . S
C780 C781 1.370 . S
C780 C782 1.363 . S
C780 H796 0.931 . S
C781 C780 1.370 . S
C781 C785 1.408 . S
C782 C780 1.363 . S
C782 C783 1.370 . S
C782 C786 1.524 . S
C783 C775 1.503 . S
C783 C782 1.370 . S
C783 C784 1.403 . S
C784 C783 1.403 . S
C784 C785 1.404 . S
C784 C787 1.539 . S
C785 C781 1.408 . S
C785 C784 1.404 . S
C785 H797 0.930 . S
C786 C782 1.524 . S
C786 H798 0.956 . S
C786 H799 0.961 . S
C786 H800 0.961 . S
C787 C784 1.539 . S
C787 H801 0.958 . S
C787 H802 0.961 . S
C787 H803 0.960 . S
H788 C772 0.931 . S
H789 C777 0.929 . S
H790 C778 0.960 . S
H791 C778 0.962 . S
H792 C778 0.960 . S
H793 C779 0.961 . S
H794 C779 0.961 . S
H795 C779 0.961 . S
H796 C780 0.931 . S
H797 C785 0.930 . S
H798 C786 0.956 . S
H799 C786 0.961 . S
H800 C786 0.961 . S
H801 C787 0.958 . S
H802 C787 0.961 . S
H803 C787 0.960 . S
C804 C805 1.391 . S
C804 C806 1.394 . S
C804 H820 0.931 . S
C805 C804 1.391 . S
C805 C809 1.376 . S
C806 C804 1.394 . S
C806 C807 1.369 . S
C806 C810 1.531 . S
C807 C806 1.369 . S
C807 C808 1.410 . S
C807 C815 1.503 . S
C808 C807 1.410 . S
C808 C809 1.392 . S
C808 C811 1.511 . S
C809 C805 1.376 . S
C809 C808 1.392 . S
C809 H821 0.929 . S
C810 C806 1.531 . S
C810 H822 0.960 . S
C810 H823 0.962 . S
C810 H824 0.960 . S
C811 C808 1.511 . S
C811 H825 0.961 . S
C811 H826 0.961 . S
C811 H827 0.961 . S
C812 C813 1.370 . S
C812 C814 1.363 . S
C812 H828 0.931 . S
C813 C812 1.370 . S
C813 C817 1.408 . S
C814 C812 1.363 . S
C814 C815 1.370 . S
C814 C818 1.524 . S
C815 C807 1.503 . S
C815 C814 1.370 . S
C815 C816 1.403 . S
C816 C815 1.403 . S
C816 C817 1.404 . S
C816 C819 1.539 . S
C817 C813 1.408 . S
C817 C816 1.404 . S
C817 H829 0.930 . S
C818 C814 1.524 . S
C818 H830 0.956 . S
C818 H831 0.961 . S
C818 H832 0.961 . S
C819 C816 1.539 . S
C819 H833 0.958 . S
C819 H834 0.961 . S
C819 H835 0.960 . S
H820 C804 0.931 . S
H821 C809 0.929 . S
H822 C810 0.960 . S
H823 C810 0.962 . S
H824 C810 0.960 . S
H825 C811 0.961 . S
H826 C811 0.961 . S
H827 C811 0.961 . S
H828 C812 0.931 . S
H829 C817 0.930 . S
H830 C818 0.956 . S
H831 C818 0.961 . S
H832 C818 0.961 . S
H833 C819 0.958 . S
H834 C819 0.961 . S
H835 C819 0.960 . S
C836 C837 1.391 . S
C836 C838 1.394 . S
C836 H852 0.931 . S
C837 C836 1.391 . S
C837 C841 1.376 . S
C838 C836 1.394 . S
C838 C839 1.369 . S
C838 C842 1.531 . S
C839 C838 1.369 . S
C839 C840 1.410 . S
C839 C847 1.503 . S
C840 C839 1.410 . S
C840 C841 1.392 . S
C840 C843 1.511 . S
C841 C837 1.376 . S
C841 C840 1.392 . S
C841 H853 0.929 . S
C842 C838 1.531 . S
C842 H854 0.960 . S
C842 H855 0.962 . S
C842 H856 0.960 . S
C843 C840 1.511 . S
C843 H857 0.961 . S
C843 H858 0.961 . S
C843 H859 0.961 . S
C844 C845 1.370 . S
C844 C846 1.363 . S
C844 H860 0.931 . S
C845 C844 1.370 . S
C845 C849 1.408 . S
C846 C844 1.363 . S
C846 C847 1.370 . S
C846 C850 1.524 . S
C847 C839 1.503 . S
C847 C846 1.370 . S
C847 C848 1.403 . S
C848 C847 1.403 . S
C848 C849 1.404 . S
C848 C851 1.539 . S
C849 C845 1.408 . S
C849 C848 1.404 . S
C849 H861 0.930 . S
C850 C846 1.524 . S
C850 H862 0.956 . S
C850 H863 0.961 . S
C850 H864 0.961 . S
C851 C848 1.539 . S
C851 H865 0.958 . S
C851 H866 0.961 . S
C851 H867 0.960 . S
H852 C836 0.931 . S
H853 C841 0.929 . S
H854 C842 0.960 . S
H855 C842 0.962 . S
H856 C842 0.960 . S
H857 C843 0.961 . S
H858 C843 0.961 . S
H859 C843 0.961 . S
H860 C844 0.931 . S
H861 C849 0.930 . S
H862 C850 0.956 . S
H863 C850 0.961 . S
H864 C850 0.961 . S
H865 C851 0.958 . S
H866 C851 0.961 . S
H867 C851 0.960 . S
C868 C869 1.391 . S
C868 C870 1.394 . S
C868 H884 0.931 . S
C869 C868 1.391 . S
C869 C873 1.376 . S
C870 C868 1.394 . S
C870 C871 1.369 . S
C870 C874 1.531 . S
C871 C870 1.369 . S
C871 C872 1.410 . S
C871 C879 1.503 . S
C872 C871 1.410 . S
C872 C873 1.392 . S
C872 C875 1.511 . S
C873 C869 1.376 . S
C873 C872 1.392 . S
C873 H885 0.929 . S
C874 C870 1.531 . S
C874 H886 0.960 . S
C874 H887 0.962 . S
C874 H888 0.960 . S
C875 C872 1.511 . S
C875 H889 0.961 . S
C875 H890 0.961 . S
C875 H891 0.961 . S
C876 C877 1.370 . S
C876 C878 1.363 . S
C876 H892 0.931 . S
C877 C876 1.370 . S
C877 C881 1.408 . S
C878 C876 1.363 . S
C878 C879 1.370 . S
C878 C882 1.524 . S
C879 C871 1.503 . S
C879 C878 1.370 . S
C879 C880 1.403 . S
C880 C879 1.403 . S
C880 C881 1.404 . S
C880 C883 1.539 . S
C881 C877 1.408 . S
C881 C880 1.404 . S
C881 H893 0.930 . S
C882 C878 1.524 . S
C882 H894 0.956 . S
C882 H895 0.961 . S
C882 H896 0.961 . S
C883 C880 1.539 . S
C883 H897 0.958 . S
C883 H898 0.961 . S
C883 H899 0.960 . S
H884 C868 0.931 . S
H885 C873 0.929 . S
H886 C874 0.960 . S
H887 C874 0.962 . S
H888 C874 0.960 . S
H889 C875 0.961 . S
H890 C875 0.961 . S
H891 C875 0.961 . S
H892 C876 0.931 . S
H893 C881 0.930 . S
H894 C882 0.956 . S
H895 C882 0.961 . S
H896 C882 0.961 . S
H897 C883 0.958 . S
H898 C883 0.961 . S
H899 C883 0.960 . S
C900 C901 1.391 . S
C900 C902 1.394 . S
C900 H916 0.931 . S
C901 C900 1.391 . S
C901 C905 1.376 . S
C902 C900 1.394 . S
C902 C903 1.369 . S
C902 C906 1.531 . S
C903 C902 1.369 . S
C903 C904 1.410 . S
C903 C911 1.503 . S
C904 C903 1.410 . S
C904 C905 1.392 . S
C904 C907 1.511 . S
C905 C901 1.376 . S
C905 C904 1.392 . S
C905 H917 0.929 . S
C906 C902 1.531 . S
C906 H918 0.960 . S
C906 H919 0.962 . S
C906 H920 0.960 . S
C907 C904 1.511 . S
C907 H921 0.961 . S
C907 H922 0.961 . S
C907 H923 0.961 . S
C908 C909 1.370 . S
C908 C910 1.363 . S
C908 H924 0.931 . S
C909 C908 1.370 . S
C909 C913 1.408 . S
C910 C908 1.363 . S
C910 C911 1.370 . S
C910 C914 1.524 . S
C911 C903 1.503 . S
C911 C910 1.370 . S
C911 C912 1.403 . S
C912 C911 1.403 . S
C912 C913 1.404 . S
C912 C915 1.539 . S
C913 C909 1.408 . S
C913 C912 1.404 . S
C913 H925 0.930 . S
C914 C910 1.524 . S
C914 H926 0.956 . S
C914 H927 0.961 . S
C914 H928 0.961 . S
C915 C912 1.539 . S
C915 H929 0.958 . S
C915 H930 0.961 . S
C915 H931 0.960 . S
H916 C900 0.931 . S
H917 C905 0.929 . S
H918 C906 0.960 . S
H919 C906 0.962 . S
H920 C906 0.960 . S
H921 C907 0.961 . S
H922 C907 0.961 . S
H923 C907 0.961 . S
H924 C908 0.931 . S
H925 C913 0.930 . S
H926 C914 0.956 . S
H927 C914 0.961 . S
H928 C914 0.961 . S
H929 C915 0.958 . S
H930 C915 0.961 . S
H931 C915 0.960 . S
C932 C933 1.391 . S
C932 C934 1.394 1_455 S
C932 H948 0.931 . S
C933 C932 1.391 . S
C933 C937 1.376 . S
C934 C932 1.394 1_655 S
C934 C935 1.369 1_655 S
C934 C938 1.530 . S
C935 C934 1.369 1_455 S
C935 C936 1.410 . S
C935 C943 1.503 1_455 S
C936 C935 1.410 . S
C936 C937 1.392 . S
C936 C939 1.511 . S
C937 C933 1.376 . S
C937 C936 1.392 . S
C937 H949 0.929 . S
C938 C934 1.530 . S
C938 H950 0.960 . S
C938 H951 0.962 . S
C938 H952 0.960 . S
C939 C936 1.511 . S
C939 H953 0.961 . S
C939 H954 0.961 . S
C939 H955 0.961 . S
C940 C941 1.370 . S
C940 C942 1.363 . S
C940 H956 0.931 . S
C941 C940 1.370 . S
C941 C945 1.408 . S
C942 C940 1.363 . S
C942 C943 1.370 . S
C942 C946 1.524 . S
C943 C935 1.503 1_655 S
C943 C942 1.370 . S
C943 C944 1.403 1_655 S
C944 C943 1.403 1_455 S
C944 C945 1.404 1_455 S
C944 C947 1.539 . S
C945 C941 1.408 . S
C945 C944 1.404 1_655 S
C945 H957 0.930 . S
C946 C942 1.524 . S
C946 H958 0.956 . S
C946 H959 0.961 . S
C946 H960 0.961 . S
C947 C944 1.539 . S
C947 H961 0.958 . S
C947 H962 0.961 . S
C947 H963 0.960 . S
H948 C932 0.931 . S
H949 C937 0.929 . S
H950 C938 0.960 . S
H951 C938 0.962 . S
H952 C938 0.960 . S
H953 C939 0.961 . S
H954 C939 0.961 . S
H955 C939 0.961 . S
H956 C940 0.931 . S
H957 C945 0.930 . S
H958 C946 0.956 . S
H959 C946 0.961 . S
H960 C946 0.961 . S
H961 C947 0.958 . S
H962 C947 0.961 . S
H963 C947 0.960 . S
C964 C965 1.391 . S
C964 C966 1.394 . S
C964 H980 0.931 . S
C965 C964 1.391 . S
C965 C969 1.376 . S
C966 C964 1.394 . S
C966 C967 1.369 . S
C966 C970 1.531 . S
C967 C966 1.369 . S
C967 C968 1.410 1_545 S
C967 C975 1.503 1_545 S
C968 C967 1.410 1_565 S
C968 C969 1.392 1_565 S
C968 C971 1.511 . S
C969 C965 1.376 . S
C969 C968 1.392 1_545 S
C969 H981 0.929 1_545 S
C970 C966 1.531 . S
C970 H982 0.960 . S
C970 H983 0.962 . S
C970 H984 0.960 . S
C971 C968 1.511 . S
C971 H985 0.961 . S
C971 H986 0.961 . S
C971 H987 0.961 . S
C972 C973 1.370 . S
C972 C974 1.363 . S
C972 H988 0.931 . S
C973 C972 1.370 . S
C973 C977 1.408 . S
C974 C972 1.363 . S
C974 C975 1.370 . S
C974 C978 1.524 1_565 S
C975 C967 1.503 1_565 S
C975 C974 1.370 . S
C975 C976 1.403 . S
C976 C975 1.403 . S
C976 C977 1.404 . S
C976 C979 1.539 . S
C977 C973 1.408 . S
C977 C976 1.404 . S
C977 H989 0.930 . S
C978 C974 1.524 1_545 S
C978 H990 0.956 . S
C978 H991 0.961 . S
C978 H992 0.961 . S
C979 C976 1.539 . S
C979 H993 0.958 . S
C979 H994 0.961 . S
C979 H995 0.960 . S
H980 C964 0.931 . S
H981 C969 0.929 1_565 S
H982 C970 0.960 . S
H983 C970 0.962 . S
H984 C970 0.960 . S
H985 C971 0.961 . S
H986 C971 0.961 . S
H987 C971 0.961 . S
H988 C972 0.931 . S
H989 C977 0.930 . S
H990 C978 0.956 . S
H991 C978 0.961 . S
H992 C978 0.961 . S
H993 C979 0.958 . S
H994 C979 0.961 . S
H995 C979 0.960 . S
C996 C997 1.391 . S
C996 C998 1.394 . S
C996 H1012 0.931 . S
C997 C996 1.391 . S
C997 C1001 1.376 . S
C998 C996 1.394 . S
C998 C999 1.369 . S
C998 C1002 1.531 . S
C999 C998 1.369 . S
C999 C1000 1.410 . S
C999 C1007 1.503 . S
C1000 C999 1.410 . S
C1000 C1001 1.392 . S
C1000 C1003 1.511 . S
C1001 C997 1.376 . S
C1001 C1000 1.392 . S
C1001 H1013 0.929 . S
C1002 C998 1.531 . S
C1002 H1014 0.960 . S
C1002 H1015 0.962 . S
C1002 H1016 0.960 . S
C1003 C1000 1.511 . S
C1003 H1017 0.961 . S
C1003 H1018 0.961 . S
C1003 H1019 0.961 . S
C1004 C1005 1.370 . S
C1004 C1006 1.363 . S
C1004 H1020 0.931 . S
C1005 C1004 1.370 . S
C1005 C1009 1.408 . S
C1006 C1004 1.363 . S
C1006 C1007 1.370 . S
C1006 C1010 1.524 . S
C1007 C999 1.503 . S
C1007 C1006 1.370 . S
C1007 C1008 1.403 . S
C1008 C1007 1.403 . S
C1008 C1009 1.404 . S
C1008 C1011 1.539 . S
C1009 C1005 1.408 . S
C1009 C1008 1.404 . S
C1009 H1021 0.930 . S
C1010 C1006 1.524 . S
C1010 H1022 0.956 . S
C1010 H1023 0.961 . S
C1010 H1024 0.961 . S
C1011 C1008 1.539 . S
C1011 H1025 0.958 . S
C1011 H1026 0.961 . S
C1011 H1027 0.960 . S
H1012 C996 0.931 . S
H1013 C1001 0.929 . S
H1014 C1002 0.960 . S
H1015 C1002 0.962 . S
H1016 C1002 0.960 . S
H1017 C1003 0.961 . S
H1018 C1003 0.961 . S
H1019 C1003 0.961 . S
H1020 C1004 0.931 . S
H1021 C1009 0.930 . S
H1022 C1010 0.956 . S
H1023 C1010 0.961 . S
H1024 C1010 0.961 . S
H1025 C1011 0.958 . S
H1026 C1011 0.961 . S
H1027 C1011 0.960 . S
C1028 C1029 1.391 . S
C1028 C1030 1.394 . S
C1028 H1044 0.931 . S
C1029 C1028 1.391 . S
C1029 C1033 1.376 . S
C1030 C1028 1.394 . S
C1030 C1031 1.369 . S
C1030 C1034 1.531 . S
C1031 C1030 1.369 . S
C1031 C1032 1.410 1_655 S
C1031 C1039 1.503 1_655 S
C1032 C1031 1.410 1_455 S
C1032 C1033 1.392 1_455 S
C1032 C1035 1.511 . S
C1033 C1029 1.376 . S
C1033 C1032 1.392 1_655 S
C1033 H1045 0.929 1_655 S
C1034 C1030 1.531 . S
C1034 H1046 0.960 . S
C1034 H1047 0.962 . S
C1034 H1048 0.960 . S
C1035 C1032 1.511 . S
C1035 H1049 0.961 . S
C1035 H1050 0.961 . S
C1035 H1051 0.961 . S
C1036 C1037 1.370 . S
C1036 C1038 1.363 . S
C1036 H1052 0.931 . S
C1037 C1036 1.370 . S
C1037 C1041 1.408 . S
C1038 C1036 1.363 . S
C1038 C1039 1.370 . S
C1038 C1042 1.524 1_455 S
C1039 C1031 1.503 1_455 S
C1039 C1038 1.370 . S
C1039 C1040 1.403 . S
C1040 C1039 1.403 . S
C1040 C1041 1.404 . S
C1040 C1043 1.539 . S
C1041 C1037 1.408 . S
C1041 C1040 1.404 . S
C1041 H1053 0.930 . S
C1042 C1038 1.524 1_655 S
C1042 H1054 0.956 . S
C1042 H1055 0.961 1_655 S
C1042 H1056 0.961 . S
C1043 C1040 1.539 . S
C1043 H1057 0.958 . S
C1043 H1058 0.961 . S
C1043 H1059 0.960 . S
H1044 C1028 0.931 . S
H1045 C1033 0.929 1_455 S
H1046 C1034 0.960 . S
H1047 C1034 0.962 . S
H1048 C1034 0.960 . S
H1049 C1035 0.961 . S
H1050 C1035 0.961 . S
H1051 C1035 0.961 . S
H1052 C1036 0.931 . S
H1053 C1041 0.930 . S
H1054 C1042 0.956 . S
H1055 C1042 0.961 1_455 S
H1056 C1042 0.961 . S
H1057 C1043 0.958 . S
H1058 C1043 0.961 . S
H1059 C1043 0.960 . S
C1060 C1061 1.391 . S
C1060 C1062 1.397 1_565 S
C1060 H1076 0.931 . S
C1061 C1060 1.391 . S
C1061 C1065 1.376 . S
C1062 C1060 1.397 1_545 S
C1062 C1063 1.353 1_545 S
C1062 C1066 1.544 . S
C1063 C1062 1.353 1_565 S
C1063 C1064 1.410 . S
C1063 C1071 1.503 1_565 S
C1064 C1063 1.410 . S
C1064 C1065 1.392 . S
C1064 C1067 1.511 . S
C1065 C1061 1.376 . S
C1065 C1064 1.392 . S
C1065 H1077 0.929 . S
C1066 C1062 1.544 . S
C1066 H1078 0.960 . S
C1066 H1079 0.962 . S
C1066 H1080 0.960 . S
C1067 C1064 1.511 . S
C1067 H1081 0.961 . S
C1067 H1082 0.961 . S
C1067 H1083 0.961 . S
C1068 C1069 1.370 . S
C1068 C1070 1.363 . S
C1068 H1084 0.931 . S
C1069 C1068 1.370 . S
C1069 C1073 1.408 . S
C1070 C1068 1.363 . S
C1070 C1071 1.370 . S
C1070 C1074 1.524 . S
C1071 C1063 1.503 1_545 S
C1071 C1070 1.370 . S
C1071 C1072 1.403 1_545 S
C1072 C1071 1.403 1_565 S
C1072 C1073 1.404 1_565 S
C1072 C1075 1.539 . S
C1073 C1069 1.408 . S
C1073 C1072 1.404 1_545 S
C1073 H1085 0.930 . S
C1074 C1070 1.524 . S
C1074 H1086 0.956 . S
C1074 H1087 0.961 . S
C1074 H1088 0.961 . S
C1075 C1072 1.539 . S
C1075 H1089 0.958 . S
C1075 H1090 0.961 . S
C1075 H1091 0.960 . S
H1076 C1060 0.931 . S
H1077 C1065 0.929 . S
H1078 C1066 0.960 . S
H1079 C1066 0.962 . S
H1080 C1066 0.960 . S
H1081 C1067 0.961 . S
H1082 C1067 0.961 . S
H1083 C1067 0.961 . S
H1084 C1068 0.931 . S
H1085 C1073 0.930 . S
H1086 C1074 0.956 . S
H1087 C1074 0.961 . S
H1088 C1074 0.961 . S
H1089 C1075 0.958 . S
H1090 C1075 0.961 . S
H1091 C1075 0.960 . S
C1092 C1093 1.391 . S
C1092 C1094 1.394 . S
C1092 H1108 0.931 . S
C1093 C1092 1.391 . S
C1093 C1097 1.376 . S
C1094 C1092 1.394 . S
C1094 C1095 1.369 . S
C1094 C1098 1.531 . S
C1095 C1094 1.369 . S
C1095 C1096 1.410 . S
C1095 C1103 1.503 . S
C1096 C1095 1.410 . S
C1096 C1097 1.392 . S
C1096 C1099 1.511 . S
C1097 C1093 1.376 . S
C1097 C1096 1.392 . S
C1097 H1109 0.929 . S
C1098 C1094 1.531 . S
C1098 H1110 0.960 . S
C1098 H1111 0.962 . S
C1098 H1112 0.960 . S
C1099 C1096 1.511 . S
C1099 H1113 0.961 . S
C1099 H1114 0.961 . S
C1099 H1115 0.961 . S
C1100 C1101 1.370 . S
C1100 C1102 1.363 . S
C1100 H1116 0.931 . S
C1101 C1100 1.370 . S
C1101 C1105 1.408 . S
C1102 C1100 1.363 . S
C1102 C1103 1.370 . S
C1102 C1106 1.524 . S
C1103 C1095 1.503 . S
C1103 C1102 1.370 . S
C1103 C1104 1.403 . S
C1104 C1103 1.403 . S
C1104 C1105 1.404 . S
C1104 C1107 1.539 . S
C1105 C1101 1.408 . S
C1105 C1104 1.404 . S
C1105 H1117 0.930 . S
C1106 C1102 1.524 . S
C1106 H1118 0.956 . S
C1106 H1119 0.961 . S
C1106 H1120 0.961 . S
C1107 C1104 1.539 . S
C1107 H1121 0.958 . S
C1107 H1122 0.961 . S
C1107 H1123 0.960 . S
H1108 C1092 0.931 . S
H1109 C1097 0.929 . S
H1110 C1098 0.960 . S
H1111 C1098 0.962 . S
H1112 C1098 0.960 . S
H1113 C1099 0.961 . S
H1114 C1099 0.961 . S
H1115 C1099 0.961 . S
H1116 C1100 0.931 . S
H1117 C1105 0.930 . S
H1118 C1106 0.956 . S
H1119 C1106 0.961 . S
H1120 C1106 0.961 . S
H1121 C1107 0.958 . S
H1122 C1107 0.961 . S
H1123 C1107 0.960 . S
C1124 C1125 1.391 . S
C1124 C1126 1.394 . S
C1124 H1140 0.931 . S
C1125 C1124 1.391 . S
C1125 C1129 1.376 . S
C1126 C1124 1.394 . S
C1126 C1127 1.369 . S
C1126 C1130 1.531 1_655 S
C1127 C1126 1.369 . S
C1127 C1128 1.410 . S
C1127 C1135 1.503 1_655 S
C1128 C1127 1.410 . S
C1128 C1129 1.392 . S
C1128 C1131 1.511 . S
C1129 C1125 1.376 . S
C1129 C1128 1.392 . S
C1129 H1141 0.929 . S
C1130 C1126 1.531 1_455 S
C1130 H1142 0.960 . S
C1130 H1143 0.962 1_455 S
C1130 H1144 0.960 . S
C1131 C1128 1.511 . S
C1131 H1145 0.961 . S
C1131 H1146 0.961 . S
C1131 H1147 0.961 1_655 S
C1132 C1133 1.370 . S
C1132 C1134 1.363 1_455 S
C1132 H1148 0.931 1_455 S
C1133 C1132 1.370 . S
C1133 C1137 1.408 . S
C1134 C1132 1.363 1_655 S
C1134 C1135 1.370 1_655 S
C1134 C1138 1.524 . S
C1135 C1127 1.503 1_455 S
C1135 C1134 1.370 1_455 S
C1135 C1136 1.403 . S
C1136 C1135 1.403 . S
C1136 C1137 1.404 . S
C1136 C1139 1.539 . S
C1137 C1133 1.408 . S
C1137 C1136 1.404 . S
C1137 H1149 0.930 . S
C1138 C1134 1.524 . S
C1138 H1150 0.956 . S
C1138 H1151 0.961 . S
C1138 H1152 0.961 . S
C1139 C1136 1.539 . S
C1139 H1153 0.958 . S
C1139 H1154 0.961 . S
C1139 H1155 0.960 . S
H1140 C1124 0.931 . S
H1141 C1129 0.929 . S
H1142 C1130 0.960 . S
H1143 C1130 0.962 1_655 S
H1144 C1130 0.960 . S
H1145 C1131 0.961 . S
H1146 C1131 0.961 . S
H1147 C1131 0.961 1_455 S
H1148 C1132 0.931 1_655 S
H1149 C1137 0.930 . S
H1150 C1138 0.956 . S
H1151 C1138 0.961 . S
H1152 C1138 0.961 . S
H1153 C1139 0.958 . S
H1154 C1139 0.961 . S
H1155 C1139 0.960 . S
C1156 C1157 1.391 . S
C1156 C1158 1.394 . S
C1156 H1172 0.931 . S
C1157 C1156 1.391 . S
C1157 C1161 1.376 . S
C1158 C1156 1.394 . S
C1158 C1159 1.369 . S
C1158 C1162 1.531 1_565 S
C1159 C1158 1.369 . S
C1159 C1160 1.410 . S
C1159 C1167 1.503 1_566 S
C1160 C1159 1.410 . S
C1160 C1161 1.392 . S
C1160 C1163 1.511 . S
C1161 C1157 1.376 . S
C1161 C1160 1.392 . S
C1161 H1173 0.929 . S
C1162 C1158 1.531 1_545 S
C1162 H1174 0.960 . S
C1162 H1175 0.962 1_545 S
C1162 H1176 0.960 . S
C1163 C1160 1.511 . S
C1163 H1177 0.961 . S
C1163 H1178 0.961 1_556 S
C1163 H1179 0.961 1_565 S
C1164 C1165 1.370 . S
C1164 C1166 1.363 1_545 S
C1164 H1180 0.931 1_545 S
C1165 C1164 1.370 . S
C1165 C1169 1.408 . S
C1166 C1164 1.363 1_565 S
C1166 C1167 1.370 1_565 S
C1166 C1170 1.524 . S
C1167 C1159 1.503 1_544 S
C1167 C1166 1.370 1_545 S
C1167 C1168 1.403 . S
C1168 C1167 1.403 . S
C1168 C1169 1.404 . S
C1168 C1171 1.539 1_554 S
C1169 C1165 1.408 . S
C1169 C1168 1.404 . S
C1169 H1181 0.930 . S
C1170 C1166 1.524 . S
C1170 H1182 0.956 . S
C1170 H1183 0.961 . S
C1170 H1184 0.961 . S
C1171 C1168 1.539 1_556 S
C1171 H1185 0.958 . S
C1171 H1186 0.961 . S
C1171 H1187 0.960 . S
H1172 C1156 0.931 . S
H1173 C1161 0.929 . S
H1174 C1162 0.960 . S
H1175 C1162 0.962 1_565 S
H1176 C1162 0.960 . S
H1177 C1163 0.961 . S
H1178 C1163 0.961 1_554 S
H1179 C1163 0.961 1_545 S
H1180 C1164 0.931 1_565 S
H1181 C1169 0.930 . S
H1182 C1170 0.956 . S
H1183 C1170 0.961 . S
H1184 C1170 0.961 . S
H1185 C1171 0.958 . S
H1186 C1171 0.961 . S
H1187 C1171 0.960 . S
C1188 C1189 1.391 . S
C1188 C1190 1.394 . S
C1188 H1204 0.931 . S
C1189 C1188 1.391 . S
C1189 C1193 1.376 . S
C1190 C1188 1.394 . S
C1190 C1191 1.369 . S
C1190 C1194 1.531 . S
C1191 C1190 1.369 . S
C1191 C1192 1.410 . S
C1191 C1199 1.503 . S
C1192 C1191 1.410 . S
C1192 C1193 1.392 . S
C1192 C1195 1.511 . S
C1193 C1189 1.376 . S
C1193 C1192 1.392 . S
C1193 H1205 0.929 . S
C1194 C1190 1.531 . S
C1194 H1206 0.960 . S
C1194 H1207 0.962 . S
C1194 H1208 0.960 . S
C1195 C1192 1.511 . S
C1195 H1209 0.961 . S
C1195 H1210 0.961 . S
C1195 H1211 0.961 . S
C1196 C1197 1.370 . S
C1196 C1198 1.363 . S
C1196 H1212 0.931 . S
C1197 C1196 1.370 . S
C1197 C1201 1.408 . S
C1198 C1196 1.363 . S
C1198 C1199 1.370 . S
C1198 C1202 1.524 . S
C1199 C1191 1.503 . S
C1199 C1198 1.370 . S
C1199 C1200 1.403 . S
C1200 C1199 1.403 . S
C1200 C1201 1.404 . S
C1200 C1203 1.539 . S
C1201 C1197 1.408 . S
C1201 C1200 1.404 . S
C1201 H1213 0.930 . S
C1202 C1198 1.524 . S
C1202 H1214 0.956 . S
C1202 H1215 0.961 . S
C1202 H1216 0.961 . S
C1203 C1200 1.539 . S
C1203 H1217 0.958 . S
C1203 H1218 0.961 . S
C1203 H1219 0.960 . S
H1204 C1188 0.931 . S
H1205 C1193 0.929 . S
H1206 C1194 0.960 . S
H1207 C1194 0.962 . S
H1208 C1194 0.960 . S
H1209 C1195 0.961 . S
H1210 C1195 0.961 . S
H1211 C1195 0.961 . S
H1212 C1196 0.931 . S
H1213 C1201 0.930 . S
H1214 C1202 0.956 . S
H1215 C1202 0.961 . S
H1216 C1202 0.961 . S
H1217 C1203 0.958 . S
H1218 C1203 0.961 . S
H1219 C1203 0.960 . S
C1220 C1221 1.391 . S
C1220 C1222 1.394 1_455 S
C1220 H1236 0.931 1_455 S
C1221 C1220 1.391 . S
C1221 C1225 1.376 . S
C1222 C1220 1.394 1_655 S
C1222 C1223 1.369 1_655 S
C1222 C1226 1.531 . S
C1223 C1222 1.369 1_455 S
C1223 C1224 1.410 . S
C1223 C1231 1.503 1_455 S
C1224 C1223 1.410 . S
C1224 C1225 1.392 . S
C1224 C1227 1.511 . S
C1225 C1221 1.376 . S
C1225 C1224 1.392 . S
C1225 H1237 0.929 . S
C1226 C1222 1.531 . S
C1226 H1238 0.960 . S
C1226 H1239 0.962 . S
C1226 H1240 0.960 . S
C1227 C1224 1.511 . S
C1227 H1241 0.961 . S
C1227 H1242 0.961 . S
C1227 H1243 0.961 . S
C1228 C1229 1.370 . S
C1228 C1230 1.363 . S
C1228 H1244 0.931 . S
C1229 C1228 1.370 . S
C1229 C1233 1.408 . S
C1230 C1228 1.363 . S
C1230 C1231 1.370 . S
C1230 C1234 1.524 1_655 S
C1231 C1223 1.503 1_655 S
C1231 C1230 1.370 . S
C1231 C1232 1.403 . S
C1232 C1231 1.403 . S
C1232 C1233 1.404 . S
C1232 C1235 1.539 . S
C1233 C1229 1.408 . S
C1233 C1232 1.404 . S
C1233 H1245 0.930 . S
C1234 C1230 1.524 1_455 S
C1234 H1246 0.956 . S
C1234 H1247 0.961 . S
C1234 H1248 0.961 . S
C1235 C1232 1.539 . S
C1235 H1249 0.958 . S
C1235 H1250 0.961 . S
C1235 H1251 0.960 . S
H1236 C1220 0.931 1_655 S
H1237 C1225 0.929 . S
H1238 C1226 0.960 . S
H1239 C1226 0.962 . S
H1240 C1226 0.960 . S
H1241 C1227 0.961 . S
H1242 C1227 0.961 . S
H1243 C1227 0.961 . S
H1244 C1228 0.931 . S
H1245 C1233 0.930 . S
H1246 C1234 0.956 . S
H1247 C1234 0.961 . S
H1248 C1234 0.961 . S
H1249 C1235 0.958 . S
H1250 C1235 0.961 . S
H1251 C1235 0.960 . S
C1252 C1253 1.391 . S
C1252 C1254 1.394 1_565 S
C1252 H1268 0.931 1_565 S
C1253 C1252 1.391 . S
C1253 C1257 1.376 . S
C1254 C1252 1.394 1_545 S
C1254 C1255 1.369 1_545 S
C1254 C1258 1.531 . S
C1255 C1254 1.369 1_565 S
C1255 C1256 1.410 . S
C1255 C1263 1.503 1_564 S
C1256 C1255 1.410 . S
C1256 C1257 1.392 . S
C1256 C1259 1.511 1_554 S
C1257 C1253 1.376 . S
C1257 C1256 1.392 . S
C1257 H1269 0.929 . S
C1258 C1254 1.531 . S
C1258 H1270 0.960 . S
C1258 H1271 0.962 . S
C1258 H1272 0.960 . S
C1259 C1256 1.511 1_556 S
C1259 H1273 0.961 . S
C1259 H1274 0.961 . S
C1259 H1275 0.961 . S
C1260 C1261 1.370 . S
C1260 C1262 1.363 . S
C1260 H1276 0.931 . S
C1261 C1260 1.370 . S
C1261 C1265 1.408 . S
C1262 C1260 1.363 . S
C1262 C1263 1.370 . S
C1262 C1266 1.524 1_545 S
C1263 C1255 1.503 1_546 S
C1263 C1262 1.370 . S
C1263 C1264 1.403 . S
C1264 C1263 1.403 . S
C1264 C1265 1.404 . S
C1264 C1267 1.539 . S
C1265 C1261 1.408 . S
C1265 C1264 1.404 . S
C1265 H1277 0.930 . S
C1266 C1262 1.524 1_565 S
C1266 H1278 0.947 1_566 S
C1266 H1279 0.961 . S
C1266 H1280 0.961 . S
C1267 C1264 1.539 . S
C1267 H1281 0.958 1_556 S
C1267 H1282 0.961 . S
C1267 H1283 0.960 1_556 S
H1268 C1252 0.931 1_545 S
H1269 C1257 0.929 . S
H1270 C1258 0.960 . S
H1271 C1258 0.962 . S
H1272 C1258 0.960 . S
H1273 C1259 0.961 . S
H1274 C1259 0.961 . S
H1275 C1259 0.961 . S
H1276 C1260 0.931 . S
H1277 C1265 0.930 . S
H1278 C1266 0.947 1_544 S
H1279 C1266 0.961 . S
H1280 C1266 0.961 . S
H1281 C1267 0.958 1_554 S
H1282 C1267 0.961 . S
H1283 C1267 0.960 1_554 S
C1284 C1285 1.391 . S
C1284 C1286 1.394 . S
C1284 H1300 0.931 . S
C1285 C1284 1.391 . S
C1285 C1289 1.376 . S
C1286 C1284 1.394 . S
C1286 C1287 1.369 . S
C1286 C1290 1.531 . S
C1287 C1286 1.369 . S
C1287 C1288 1.410 . S
C1287 C1295 1.503 1_655 S
C1288 C1287 1.410 . S
C1288 C1289 1.392 . S
C1288 C1291 1.511 . S
C1289 C1285 1.376 . S
C1289 C1288 1.392 . S
C1289 H1301 0.929 . S
C1290 C1286 1.531 . S
C1290 H1302 0.960 1_655 S
C1290 H1303 0.962 . S
C1290 H1304 0.960 . S
C1291 C1288 1.511 . S
C1291 H1305 0.961 . S
C1291 H1306 0.961 1_655 S
C1291 H1307 0.961 . S
C1292 C1293 1.370 . S
C1292 C1294 1.363 . S
C1292 H1308 0.931 . S
C1293 C1292 1.370 . S
C1293 C1297 1.408 . S
C1294 C1292 1.363 . S
C1294 C1295 1.370 . S
C1294 C1298 1.524 . S
C1295 C1287 1.503 1_455 S
C1295 C1294 1.370 . S
C1295 C1296 1.403 . S
C1296 C1295 1.403 . S
C1296 C1297 1.404 . S
C1296 C1299 1.539 . S
C1297 C1293 1.408 . S
C1297 C1296 1.404 . S
C1297 H1309 0.930 . S
C1298 C1294 1.524 . S
C1298 H1310 0.956 . S
C1298 H1311 0.967 . S
C1298 H1312 0.961 . S
C1299 C1296 1.539 . S
C1299 H1313 0.958 . S
C1299 H1314 0.961 . S
C1299 H1315 0.960 1_455 S
H1300 C1284 0.931 . S
H1301 C1289 0.929 . S
H1302 C1290 0.960 1_455 S
H1303 C1290 0.962 . S
H1304 C1290 0.960 . S
H1305 C1291 0.961 . S
H1306 C1291 0.961 1_455 S
H1307 C1291 0.961 . S
H1308 C1292 0.931 . S
H1309 C1297 0.930 . S
H1310 C1298 0.956 . S
H1311 C1298 0.967 . S
H1312 C1298 0.961 . S
H1313 C1299 0.958 . S
H1314 C1299 0.961 . S
H1315 C1299 0.960 1_655 S
C1316 C1317 1.391 . S
C1316 C1318 1.394 . S
C1316 H1332 0.931 . S
C1317 C1316 1.391 . S
C1317 C1321 1.376 . S
C1318 C1316 1.394 . S
C1318 C1319 1.369 . S
C1318 C1322 1.531 . S
C1319 C1318 1.369 . S
C1319 C1320 1.410 . S
C1319 C1327 1.503 1_545 S
C1320 C1319 1.410 . S
C1320 C1321 1.392 . S
C1320 C1323 1.511 . S
C1321 C1317 1.376 . S
C1321 C1320 1.392 . S
C1321 H1333 0.929 . S
C1322 C1318 1.531 . S
C1322 H1334 0.946 1_545 S
C1322 H1335 0.962 . S
C1322 H1336 0.960 . S
C1323 C1320 1.511 . S
C1323 H1337 0.961 . S
C1323 H1338 0.961 1_545 S
C1323 H1339 0.961 . S
C1324 C1325 1.370 . S
C1324 C1326 1.363 . S
C1324 H1340 0.931 . S
C1325 C1324 1.370 . S
C1325 C1329 1.408 . S
C1326 C1324 1.363 . S
C1326 C1327 1.370 . S
C1326 C1330 1.524 . S
C1327 C1319 1.503 1_565 S
C1327 C1326 1.370 . S
C1327 C1328 1.403 . S
C1328 C1327 1.403 . S
C1328 C1329 1.404 . S
C1328 C1331 1.539 . S
C1329 C1325 1.408 . S
C1329 C1328 1.404 . S
C1329 H1341 0.930 . S
C1330 C1326 1.524 . S
C1330 H1342 0.956 . S
C1330 H1343 0.971 . S
C1330 H1344 0.961 . S
C1331 C1328 1.539 . S
C1331 H1345 0.958 . S
C1331 H1346 0.961 . S
C1331 H1347 0.960 1_565 S
H1332 C1316 0.931 . S
H1333 C1321 0.929 . S
H1334 C1322 0.946 1_565 S
H1335 C1322 0.962 . S
H1336 C1322 0.960 . S
H1337 C1323 0.961 . S
H1338 C1323 0.961 1_565 S
H1339 C1323 0.961 . S
H1340 C1324 0.931 . S
H1341 C1329 0.930 . S
H1342 C1330 0.956 . S
H1343 C1330 0.971 . S
H1344 C1330 0.961 . S
H1345 C1331 0.958 . S
H1346 C1331 0.961 . S
H1347 C1331 0.960 1_545 S
C1348 C1349 1.391 . S
C1348 C1350 1.394 . S
C1348 H1364 0.931 . S
C1349 C1348 1.391 . S
C1349 C1353 1.376 . S
C1350 C1348 1.394 . S
C1350 C1351 1.369 . S
C1350 C1354 1.531 . S
C1351 C1350 1.369 . S
C1351 C1352 1.410 . S
C1351 C1359 1.503 . S
C1352 C1351 1.410 . S
C1352 C1353 1.392 . S
C1352 C1355 1.511 . S
C1353 C1349 1.376 . S
C1353 C1352 1.392 . S
C1353 H1365 0.929 . S
C1354 C1350 1.531 . S
C1354 H1366 0.960 . S
C1354 H1367 0.962 . S
C1354 H1368 0.960 . S
C1355 C1352 1.511 . S
C1355 H1369 0.961 . S
C1355 H1370 0.961 . S
C1355 H1371 0.961 . S
C1356 C1357 1.370 . S
C1356 C1358 1.363 . S
C1356 H1372 0.931 . S
C1357 C1356 1.370 . S
C1357 C1361 1.408 . S
C1358 C1356 1.363 . S
C1358 C1359 1.370 . S
C1358 C1362 1.524 . S
C1359 C1351 1.503 . S
C1359 C1358 1.370 . S
C1359 C1360 1.403 . S
C1360 C1359 1.403 . S
C1360 C1361 1.404 . S
C1360 C1363 1.539 . S
C1361 C1357 1.408 . S
C1361 C1360 1.404 . S
C1361 H1373 0.930 . S
C1362 C1358 1.524 . S
C1362 H1374 0.956 . S
C1362 H1375 0.961 . S
C1362 H1376 0.961 . S
C1363 C1360 1.539 . S
C1363 H1377 0.958 . S
C1363 H1378 0.961 . S
C1363 H1379 0.960 . S
H1364 C1348 0.931 . S
H1365 C1353 0.929 . S
H1366 C1354 0.960 . S
H1367 C1354 0.962 . S
H1368 C1354 0.960 . S
H1369 C1355 0.961 . S
H1370 C1355 0.961 . S
H1371 C1355 0.961 . S
H1372 C1356 0.931 . S
H1373 C1361 0.930 . S
H1374 C1362 0.956 . S
H1375 C1362 0.961 . S
H1376 C1362 0.961 . S
H1377 C1363 0.958 . S
H1378 C1363 0.961 . S
H1379 C1363 0.960 . S
C1380 C1381 1.391 . S
C1380 C1382 1.394 . S
C1380 H1396 0.931 . S
C1381 C1380 1.391 . S
C1381 C1385 1.376 . S
C1382 C1380 1.394 . S
C1382 C1383 1.369 . S
C1382 C1386 1.531 . S
C1383 C1382 1.369 . S
C1383 C1384 1.410 . S
C1383 C1391 1.503 1_655 S
C1384 C1383 1.410 . S
C1384 C1385 1.392 . S
C1384 C1387 1.511 . S
C1385 C1381 1.376 . S
C1385 C1384 1.392 . S
C1385 H1397 0.929 . S
C1386 C1382 1.531 . S
C1386 H1398 0.960 1_655 S
C1386 H1399 0.962 . S
C1386 H1400 0.960 . S
C1387 C1384 1.511 . S
C1387 H1401 0.961 . S
C1387 H1402 0.961 1_655 S
C1387 H1403 0.961 . S
C1388 C1389 1.370 . S
C1388 C1390 1.363 . S
C1388 H1404 0.931 . S
C1389 C1388 1.370 . S
C1389 C1393 1.408 . S
C1390 C1388 1.363 . S
C1390 C1391 1.370 . S
C1390 C1394 1.524 . S
C1391 C1383 1.503 1_455 S
C1391 C1390 1.370 . S
C1391 C1392 1.403 . S
C1392 C1391 1.403 . S
C1392 C1393 1.404 . S
C1392 C1395 1.539 . S
C1393 C1389 1.408 . S
C1393 C1392 1.404 . S
C1393 H1405 0.930 . S
C1394 C1390 1.524 . S
C1394 H1406 0.956 1_455 S
C1394 H1407 0.961 1_455 S
C1394 H1408 0.961 . S
C1395 C1392 1.539 . S
C1395 H1409 0.958 . S
C1395 H1410 0.961 . S
C1395 H1411 0.960 . S
H1396 C1380 0.931 . S
H1397 C1385 0.929 . S
H1398 C1386 0.960 1_455 S
H1399 C1386 0.962 . S
H1400 C1386 0.960 . S
H1401 C1387 0.961 . S
H1402 C1387 0.961 1_455 S
H1403 C1387 0.961 . S
H1404 C1388 0.931 . S
H1405 C1393 0.930 . S
H1406 C1394 0.956 1_655 S
H1407 C1394 0.961 1_655 S
H1408 C1394 0.961 . S
H1409 C1395 0.958 . S
H1410 C1395 0.961 . S
H1411 C1395 0.960 . S
C1412 C1413 1.391 . S
C1412 C1414 1.394 . S
C1412 H1428 0.931 . S
C1413 C1412 1.391 . S
C1413 C1417 1.376 . S
C1414 C1412 1.394 . S
C1414 C1415 1.369 . S
C1414 C1418 1.531 . S
C1415 C1414 1.369 . S
C1415 C1416 1.410 . S
C1415 C1423 1.503 1_565 S
C1416 C1415 1.410 . S
C1416 C1417 1.392 . S
C1416 C1419 1.511 . S
C1417 C1413 1.376 . S
C1417 C1416 1.392 . S
C1417 H1429 0.929 . S
C1418 C1414 1.531 . S
C1418 H1430 0.960 1_565 S
C1418 H1431 0.962 . S
C1418 H1432 0.960 . S
C1419 C1416 1.511 . S
C1419 H1433 0.961 . S
C1419 H1434 0.961 1_565 S
C1419 H1435 0.961 . S
C1420 C1421 1.370 . S
C1420 C1422 1.363 . S
C1420 H1436 0.931 . S
C1421 C1420 1.370 . S
C1421 C1425 1.408 . S
C1422 C1420 1.363 . S
C1422 C1423 1.370 . S
C1422 C1426 1.524 . S
C1423 C1415 1.503 1_545 S
C1423 C1422 1.370 . S
C1423 C1424 1.403 . S
C1424 C1423 1.403 . S
C1424 C1425 1.404 . S
C1424 C1427 1.539 . S
C1425 C1421 1.408 . S
C1425 C1424 1.404 . S
C1425 H1437 0.930 . S
C1426 C1422 1.524 . S
C1426 H1438 0.956 1_545 S
C1426 H1439 0.961 1_545 S
C1426 H1440 0.961 . S
C1427 C1424 1.539 . S
C1427 H1441 0.958 . S
C1427 H1442 0.961 . S
C1427 H1443 0.960 . S
H1428 C1412 0.931 . S
H1429 C1417 0.929 . S
H1430 C1418 0.960 1_545 S
H1431 C1418 0.962 . S
H1432 C1418 0.960 . S
H1433 C1419 0.961 . S
H1434 C1419 0.961 1_545 S
H1435 C1419 0.961 . S
H1436 C1420 0.931 . S
H1437 C1425 0.930 . S
H1438 C1426 0.956 1_565 S
H1439 C1426 0.961 1_565 S
H1440 C1426 0.961 . S
H1441 C1427 0.958 . S
H1442 C1427 0.961 . S
H1443 C1427 0.960 . S
C1444 C1445 1.391 . S
C1444 C1446 1.394 . S
C1444 H1460 0.931 . S
C1445 C1444 1.391 . S
C1445 C1449 1.376 . S
C1446 C1444 1.394 . S
C1446 C1447 1.369 . S
C1446 C1450 1.531 . S
C1447 C1446 1.369 . S
C1447 C1448 1.410 . S
C1447 C1455 1.503 . S
C1448 C1447 1.410 . S
C1448 C1449 1.392 . S
C1448 C1451 1.511 . S
C1449 C1445 1.376 . S
C1449 C1448 1.392 . S
C1449 H1461 0.929 . S
C1450 C1446 1.531 . S
C1450 H1462 0.960 . S
C1450 H1463 0.962 . S
C1450 H1464 0.960 . S
C1451 C1448 1.511 . S
C1451 H1465 0.961 . S
C1451 H1466 0.961 . S
C1451 H1467 0.961 . S
C1452 C1453 1.370 . S
C1452 C1454 1.363 . S
C1452 H1468 0.931 . S
C1453 C1452 1.370 . S
C1453 C1457 1.408 . S
C1454 C1452 1.363 . S
C1454 C1455 1.370 . S
C1454 C1458 1.524 . S
C1455 C1447 1.503 . S
C1455 C1454 1.370 . S
C1455 C1456 1.403 . S
C1456 C1455 1.403 . S
C1456 C1457 1.404 . S
C1456 C1459 1.539 . S
C1457 C1453 1.408 . S
C1457 C1456 1.404 . S
C1457 H1469 0.930 . S
C1458 C1454 1.524 . S
C1458 H1470 0.956 . S
C1458 H1471 0.961 . S
C1458 H1472 0.961 . S
C1459 C1456 1.539 . S
C1459 H1473 0.958 . S
C1459 H1474 0.961 . S
C1459 H1475 0.960 . S
H1460 C1444 0.931 . S
H1461 C1449 0.929 . S
H1462 C1450 0.960 . S
H1463 C1450 0.962 . S
H1464 C1450 0.960 . S
H1465 C1451 0.961 . S
H1466 C1451 0.961 . S
H1467 C1451 0.961 . S
H1468 C1452 0.931 . S
H1469 C1457 0.930 . S
H1470 C1458 0.956 . S
H1471 C1458 0.961 . S
H1472 C1458 0.961 . S
H1473 C1459 0.958 . S
H1474 C1459 0.961 . S
H1475 C1459 0.960 . S
C709 C475 1.663 . S
C717 C3 1.654 . S
C741 C62 1.642 . S
C749 C534 1.654 . S
C773 C121 1.643 . S
C781 C593 1.654 . S
C805 C180 1.664 . S
C813 C652 1.655 . S
C837 C357 1.665 . S
C845 C239 1.655 . S
C869 C298 1.650 . S
C877 C416 1.652 . S
C901 C229 1.338 . S
C909 C52 1.331 . S
C933 C288 1.316 . S
C941 C111 1.336 . S
C965 C347 1.318 . S
C973 C170 1.313 . S
C997 C406 1.349 . S
C1005 C583 1.321 . S
C1029 C465 1.312 . S
C1037 C642 1.314 . S
C1061 C524 1.317 . S
C1069 C701 1.336 . S
C1093 C33 1.585 . S
C1101 C564 1.603 . S
C1125 C92 1.605 . S
C1133 C623 1.598 . S
C1157 C151 1.606 . S
C1165 C682 1.599 . S
C1189 C387 1.585 . S
C1197 C210 1.602 . S
C1221 C269 1.594 . S
C1229 C446 1.597 . S
C1253 C505 1.590 . S
C1261 C328 1.598 . S
C1285 C654 1.368 . S
C1293 C5 1.399 . S
C1317 C64 1.361 . S
C1325 C359 1.392 . S
C1349 C418 1.412 . S
C1357 C123 1.389 . S
C1381 C182 1.412 . S
C1389 C477 1.386 . S
C1413 C241 1.409 . S
C1421 C536 1.383 . S
C1445 C595 1.408 . S
C1453 C300 1.393 . S
