# Generated by pormake.
# Topology uka, (4)-cn, num edge types: 1
# Building blocks:
#     Node 0, Type 0, BuildingBlock: QUQFOY_clean_sbu_1, # of connection points: 4
#     Node 1, Type 0, BuildingBlock: QUQFOY_clean_sbu_1, # of connection points: 4
#     Node 2, Type 0, BuildingBlock: QUQFOY_clean_sbu_1, # of connection points: 4
#     Node 3, Type 0, BuildingBlock: QUQFOY_clean_sbu_1, # of connection points: 4
#     Node 4, Type 0, BuildingBlock: QUQFOY_clean_sbu_1, # of connection points: 4
#     Node 5, Type 0, BuildingBlock: QUQFOY_clean_sbu_1, # of connection points: 4
#     Node 6, Type 0, BuildingBlock: QUQFOY_clean_sbu_1, # of connection points: 4
#     Node 7, Type 0, BuildingBlock: QUQFOY_clean_sbu_1, # of connection points: 4
#     Node 8, Type 0, BuildingBlock: QUQFOY_clean_sbu_1, # of connection points: 4
#     Node 9, Type 0, BuildingBlock: QUQFOY_clean_sbu_1, # of connection points: 4
#     Node 10, Type 0, BuildingBlock: QUQFOY_clean_sbu_1, # of connection points: 4
#     Node 11, Type 0, BuildingBlock: QUQFOY_clean_sbu_1, # of connection points: 4
#     Node 12, Type 0, BuildingBlock: QUQFOY_clean_sbu_1, # of connection points: 4
#     Node 13, Type 0, BuildingBlock: QUQFOY_clean_sbu_1, # of connection points: 4
#     Node 14, Type 0, BuildingBlock: QUQFOY_clean_sbu_1, # of connection points: 4
#     Node 15, Type 0, BuildingBlock: QUQFOY_clean_sbu_1, # of connection points: 4
#     Node 16, Type 0, BuildingBlock: QUQFOY_clean_sbu_1, # of connection points: 4
#     Node 17, Type 0, BuildingBlock: QUQFOY_clean_sbu_1, # of connection points: 4
#     Node 18, Type 0, BuildingBlock: QUQFOY_clean_sbu_1, # of connection points: 4
#     Node 19, Type 0, BuildingBlock: QUQFOY_clean_sbu_1, # of connection points: 4
#     Node 20, Type 0, BuildingBlock: QUQFOY_clean_sbu_1, # of connection points: 4
#     Node 21, Type 0, BuildingBlock: QUQFOY_clean_sbu_1, # of connection points: 4
#     Node 22, Type 0, BuildingBlock: QUQFOY_clean_sbu_1, # of connection points: 4
#     Node 23, Type 0, BuildingBlock: QUQFOY_clean_sbu_1, # of connection points: 4
#     Node 24, Type 0, BuildingBlock: QUQFOY_clean_sbu_1, # of connection points: 4
#     Node 25, Type 0, BuildingBlock: QUQFOY_clean_sbu_1, # of connection points: 4
#     Node 26, Type 0, BuildingBlock: QUQFOY_clean_sbu_1, # of connection points: 4
#     Node 27, Type 0, BuildingBlock: QUQFOY_clean_sbu_1, # of connection points: 4
#     Node 28, Type 0, BuildingBlock: QUQFOY_clean_sbu_1, # of connection points: 4
#     Node 29, Type 0, BuildingBlock: QUQFOY_clean_sbu_1, # of connection points: 4
#     Node 30, Type 0, BuildingBlock: QUQFOY_clean_sbu_1, # of connection points: 4
#     Node 31, Type 0, BuildingBlock: QUQFOY_clean_sbu_1, # of connection points: 4
#     Edge 32, Type (0, 0), BuildingBlock: KIFKEQ_clean_linker_1, # of connection points: 2
#     Edge 33, Type (0, 0), BuildingBlock: KIFKEQ_clean_linker_1, # of connection points: 2
#     Edge 34, Type (0, 0), BuildingBlock: KIFKEQ_clean_linker_1, # of connection points: 2
#     Edge 35, Type (0, 0), BuildingBlock: KIFKEQ_clean_linker_1, # of connection points: 2
#     Edge 36, Type (0, 0), BuildingBlock: KIFKEQ_clean_linker_1, # of connection points: 2
#     Edge 37, Type (0, 0), BuildingBlock: KIFKEQ_clean_linker_1, # of connection points: 2
#     Edge 38, Type (0, 0), BuildingBlock: KIFKEQ_clean_linker_1, # of connection points: 2
#     Edge 39, Type (0, 0), BuildingBlock: KIFKEQ_clean_linker_1, # of connection points: 2
#     Edge 40, Type (0, 0), BuildingBlock: KIFKEQ_clean_linker_1, # of connection points: 2
#     Edge 41, Type (0, 0), BuildingBlock: KIFKEQ_clean_linker_1, # of connection points: 2
#     Edge 42, Type (0, 0), BuildingBlock: KIFKEQ_clean_linker_1, # of connection points: 2
#     Edge 43, Type (0, 0), BuildingBlock: KIFKEQ_clean_linker_1, # of connection points: 2
#     Edge 44, Type (0, 0), BuildingBlock: KIFKEQ_clean_linker_1, # of connection points: 2
#     Edge 45, Type (0, 0), BuildingBlock: KIFKEQ_clean_linker_1, # of connection points: 2
#     Edge 46, Type (0, 0), BuildingBlock: KIFKEQ_clean_linker_1, # of connection points: 2
#     Edge 47, Type (0, 0), BuildingBlock: KIFKEQ_clean_linker_1, # of connection points: 2
#     Edge 48, Type (0, 0), BuildingBlock: KIFKEQ_clean_linker_1, # of connection points: 2
#     Edge 49, Type (0, 0), BuildingBlock: KIFKEQ_clean_linker_1, # of connection points: 2
#     Edge 50, Type (0, 0), BuildingBlock: KIFKEQ_clean_linker_1, # of connection points: 2
#     Edge 51, Type (0, 0), BuildingBlock: KIFKEQ_clean_linker_1, # of connection points: 2
#     Edge 52, Type (0, 0), BuildingBlock: KIFKEQ_clean_linker_1, # of connection points: 2
#     Edge 53, Type (0, 0), BuildingBlock: KIFKEQ_clean_linker_1, # of connection points: 2
#     Edge 54, Type (0, 0), BuildingBlock: KIFKEQ_clean_linker_1, # of connection points: 2
#     Edge 55, Type (0, 0), BuildingBlock: KIFKEQ_clean_linker_1, # of connection points: 2
#     Edge 56, Type (0, 0), BuildingBlock: KIFKEQ_clean_linker_1, # of connection points: 2
#     Edge 57, Type (0, 0), BuildingBlock: KIFKEQ_clean_linker_1, # of connection points: 2
#     Edge 58, Type (0, 0), BuildingBlock: KIFKEQ_clean_linker_1, # of connection points: 2
#     Edge 59, Type (0, 0), BuildingBlock: KIFKEQ_clean_linker_1, # of connection points: 2
#     Edge 60, Type (0, 0), BuildingBlock: KIFKEQ_clean_linker_1, # of connection points: 2
#     Edge 61, Type (0, 0), BuildingBlock: KIFKEQ_clean_linker_1, # of connection points: 2
#     Edge 62, Type (0, 0), BuildingBlock: KIFKEQ_clean_linker_1, # of connection points: 2
#     Edge 63, Type (0, 0), BuildingBlock: KIFKEQ_clean_linker_1, # of connection points: 2
#     Edge 64, Type (0, 0), BuildingBlock: KIFKEQ_clean_linker_1, # of connection points: 2
#     Edge 65, Type (0, 0), BuildingBlock: KIFKEQ_clean_linker_1, # of connection points: 2
#     Edge 66, Type (0, 0), BuildingBlock: KIFKEQ_clean_linker_1, # of connection points: 2
#     Edge 67, Type (0, 0), BuildingBlock: KIFKEQ_clean_linker_1, # of connection points: 2
#     Edge 68, Type (0, 0), BuildingBlock: KIFKEQ_clean_linker_1, # of connection points: 2
#     Edge 69, Type (0, 0), BuildingBlock: KIFKEQ_clean_linker_1, # of connection points: 2
#     Edge 70, Type (0, 0), BuildingBlock: KIFKEQ_clean_linker_1, # of connection points: 2
#     Edge 71, Type (0, 0), BuildingBlock: KIFKEQ_clean_linker_1, # of connection points: 2
#     Edge 72, Type (0, 0), BuildingBlock: KIFKEQ_clean_linker_1, # of connection points: 2
#     Edge 73, Type (0, 0), BuildingBlock: KIFKEQ_clean_linker_1, # of connection points: 2
#     Edge 74, Type (0, 0), BuildingBlock: KIFKEQ_clean_linker_1, # of connection points: 2
#     Edge 75, Type (0, 0), BuildingBlock: KIFKEQ_clean_linker_1, # of connection points: 2
#     Edge 76, Type (0, 0), BuildingBlock: KIFKEQ_clean_linker_1, # of connection points: 2
#     Edge 77, Type (0, 0), BuildingBlock: KIFKEQ_clean_linker_1, # of connection points: 2
#     Edge 78, Type (0, 0), BuildingBlock: KIFKEQ_clean_linker_1, # of connection points: 2
#     Edge 79, Type (0, 0), BuildingBlock: KIFKEQ_clean_linker_1, # of connection points: 2
#     Edge 80, Type (0, 0), BuildingBlock: KIFKEQ_clean_linker_1, # of connection points: 2
#     Edge 81, Type (0, 0), BuildingBlock: KIFKEQ_clean_linker_1, # of connection points: 2
#     Edge 82, Type (0, 0), BuildingBlock: KIFKEQ_clean_linker_1, # of connection points: 2
#     Edge 83, Type (0, 0), BuildingBlock: KIFKEQ_clean_linker_1, # of connection points: 2
#     Edge 84, Type (0, 0), BuildingBlock: KIFKEQ_clean_linker_1, # of connection points: 2
#     Edge 85, Type (0, 0), BuildingBlock: KIFKEQ_clean_linker_1, # of connection points: 2
#     Edge 86, Type (0, 0), BuildingBlock: KIFKEQ_clean_linker_1, # of connection points: 2
#     Edge 87, Type (0, 0), BuildingBlock: KIFKEQ_clean_linker_1, # of connection points: 2
#     Edge 88, Type (0, 0), BuildingBlock: KIFKEQ_clean_linker_1, # of connection points: 2
#     Edge 89, Type (0, 0), BuildingBlock: KIFKEQ_clean_linker_1, # of connection points: 2
#     Edge 90, Type (0, 0), BuildingBlock: KIFKEQ_clean_linker_1, # of connection points: 2
#     Edge 91, Type (0, 0), BuildingBlock: KIFKEQ_clean_linker_1, # of connection points: 2
#     Edge 92, Type (0, 0), BuildingBlock: KIFKEQ_clean_linker_1, # of connection points: 2
#     Edge 93, Type (0, 0), BuildingBlock: KIFKEQ_clean_linker_1, # of connection points: 2
#     Edge 94, Type (0, 0), BuildingBlock: KIFKEQ_clean_linker_1, # of connection points: 2
#     Edge 95, Type (0, 0), BuildingBlock: KIFKEQ_clean_linker_1, # of connection points: 2
# Relax obj value: 0.062
# Max RMSD: 0.095
# Mean RMSD: 0.095
data_MOF--net-uka--node1-QUQFOY_clean_sbu_1--edge1-KIFKEQ_clean_linker_1
_symmetry_space_group_name_H-M    P1
_symmetry_Int_Tables_number       1
_symmetry_cell_setting            triclinic
loop_
_symmetry_equiv_pos_as_xyz
'x, y, z'
_cell_length_a     64.718253
_cell_length_b     64.689776
_cell_length_c     45.091213
_cell_angle_alpha  90.005474
_cell_angle_beta   90.010094
_cell_angle_gamma 90.009365
loop_
_atom_site_label
_atom_site_type_symbol
_atom_site_fract_x
_atom_site_fract_y
_atom_site_fract_z
_atom_type_partial_charge
O0 O 0.12982 0.24786 0.30551 0.0
Cd1 Cd 0.14391 0.27534 0.29584 0.0
Cd2 Cd 0.10591 0.28091 0.2655 0.0
O3 O 0.10135 0.25054 0.27891 0.0
O4 O 0.17256 0.26976 0.30941 0.0
O5 O 0.16472 0.2767 0.26273 0.0
C6 C 0.17843 0.27168 0.28227 0.0
C7 C 0.0929 0.29142 0.21927 0.0
C8 C 0.1129 0.24028 0.29636 0.0
C9 C 0.11697 0.30926 0.31755 0.0
O10 O 0.10416 0.30344 0.29785 0.0
O11 O 0.13444 0.30051 0.32013 0.0
O12 O 0.08088 0.28674 0.24098 0.0
O13 O 0.11256 0.2896 0.2234 0.0
O14 O 0.01007 0.87424 0.54648 0.0
Cd15 Cd 0.98527 0.89372 0.54464 0.0
Cd16 Cd 0.9661 0.85939 0.51813 0.0
O17 O 0.99365 0.84608 0.53209 0.0
O18 O 0.99752 0.9209 0.55539 0.0
O19 O 0.98213 0.91503 0.51244 0.0
C20 C 0.99192 0.92759 0.52973 0.0
C21 C 0.95242 0.847 0.4731 0.0
C22 C 0.00976 0.85485 0.54231 0.0
C23 C 0.94742 0.87695 0.57401 0.0
O24 O 0.94486 0.86583 0.55107 0.0
O25 O 0.96317 0.8885 0.57661 0.0
O26 O 0.95213 0.83608 0.49692 0.0
O27 O 0.96059 0.86518 0.47461 0.0
O28 O 0.36719 0.76299 0.80173 0.0
Cd29 Cd 0.35045 0.7364 0.79682 0.0
Cd30 Cd 0.38698 0.72397 0.76536 0.0
O31 O 0.39534 0.75372 0.77753 0.0
O32 O 0.32249 0.74495 0.81036 0.0
O33 O 0.32885 0.73376 0.76494 0.0
C34 C 0.31583 0.74095 0.78407 0.0
C35 C 0.40094 0.71137 0.72058 0.0
C36 C 0.38534 0.76692 0.79274 0.0
C37 C 0.37413 0.70062 0.82132 0.0
O38 O 0.38615 0.70252 0.79917 0.0
O39 O 0.35872 0.71256 0.82464 0.0
O40 O 0.4123 0.71513 0.74333 0.0
O41 O 0.38139 0.71497 0.72289 0.0
O42 O 0.48482 0.11927 0.05078 0.0
Cd43 Cd 0.51268 0.10438 0.04891 0.0
Cd44 Cd 0.52268 0.1392 0.01391 0.0
O45 O 0.49221 0.14655 0.02336 0.0
O46 O 0.50594 0.07619 0.06349 0.0
O47 O 0.51741 0.08245 0.01814 0.0
C48 C 0.51068 0.06936 0.03753 0.0
C49 C 0.53609 0.14929 0.96767 0.0
C50 C 0.47953 0.13635 0.0392 0.0
C51 C 0.54607 0.13164 0.07185 0.0
O52 O 0.54344 0.14214 0.04833 0.0
O53 O 0.53538 0.11552 0.07673 0.0
O54 O 0.53185 0.16252 0.98807 0.0
O55 O 0.53218 0.13009 0.97307 0.0
O56 O 0.13014 0.76301 0.19922 0.0
Cd57 Cd 0.14435 0.73499 0.20417 0.0
Cd58 Cd 0.10688 0.72744 0.23507 0.0
O59 O 0.10107 0.75803 0.22378 0.0
O60 O 0.17256 0.7413 0.18928 0.0
O61 O 0.16638 0.73122 0.23526 0.0
C62 C 0.17943 0.73735 0.21545 0.0
C63 C 0.09621 0.71484 0.28144 0.0
C64 C 0.1128 0.76959 0.20834 0.0
C65 C 0.11711 0.70206 0.17976 0.0
O66 O 0.10502 0.70604 0.20124 0.0
O67 O 0.13407 0.71171 0.17681 0.0
O68 O 0.08317 0.71898 0.2607 0.0
O69 O 0.11549 0.71854 0.27631 0.0
O70 O 0.48264 0.87751 0.45455 0.0
Cd71 Cd 0.51167 0.88929 0.4618 0.0
Cd72 Cd 0.51468 0.8541 0.49464 0.0
O73 O 0.48341 0.85161 0.48635 0.0
O74 O 0.50946 0.91859 0.44913 0.0
O75 O 0.51574 0.90918 0.49549 0.0
C76 C 0.51233 0.92372 0.47644 0.0
C77 C 0.52844 0.84395 0.54053 0.0
C78 C 0.47378 0.86236 0.46719 0.0
C79 C 0.53978 0.85782 0.43774 0.0
O80 O 0.53304 0.8468 0.45895 0.0
O81 O 0.53466 0.87672 0.43576 0.0
O82 O 0.52124 0.83071 0.52191 0.0
O83 O 0.52709 0.8633 0.53371 0.0
O84 O 0.3694 0.24056 0.69376 0.0
Cd85 Cd 0.35533 0.26773 0.70522 0.0
Cd86 Cd 0.39387 0.27438 0.73257 0.0
O87 O 0.39853 0.24413 0.71866 0.0
O88 O 0.32597 0.26284 0.69464 0.0
O89 O 0.33653 0.26799 0.74073 0.0
C90 C 0.32167 0.26399 0.72247 0.0
C91 C 0.40791 0.28494 0.77814 0.0
C92 C 0.38679 0.23351 0.70191 0.0
C93 C 0.38049 0.30255 0.6818 0.0
O94 O 0.39421 0.29711 0.70042 0.0
O95 O 0.36324 0.29325 0.68061 0.0
O96 O 0.41942 0.28062 0.75572 0.0
O97 O 0.38819 0.28271 0.7751 0.0
O98 O 0.0084 0.11306 0.9434 0.0
Cd99 Cd 0.97879 0.10549 0.9557 0.0
Cd100 Cd 0.98337 0.13962 0.98717 0.0
O101 O 0.01447 0.13619 0.97814 0.0
O102 O 0.97635 0.07584 0.94507 0.0
O103 O 0.97574 0.08729 0.99138 0.0
C104 C 0.97598 0.0719 0.97309 0.0
C105 C 0.97123 0.14899 0.03414 0.0
C106 C 0.02079 0.1252 0.95661 0.0
C107 C 0.95503 0.14068 0.934 0.0
O108 O 0.96602 0.15072 0.95239 0.0
O109 O 0.95553 0.12104 0.93378 0.0
O110 O 0.9814 0.16176 0.01779 0.0
O111 O 0.96864 0.13039 0.02433 0.0
O112 O 0.87074 0.76685 0.69229 0.0
Cd113 Cd 0.86118 0.73737 0.70081 0.0
Cd114 Cd 0.89752 0.73812 0.73407 0.0
O115 O 0.89684 0.76944 0.72351 0.0
O116 O 0.83202 0.73817 0.68722 0.0
O117 O 0.84097 0.73211 0.73379 0.0
C118 C 0.82659 0.73508 0.71434 0.0
C119 C 0.90914 0.72723 0.78085 0.0
C120 C 0.88498 0.77748 0.70417 0.0
C121 C 0.89434 0.70976 0.67987 0.0
O122 O 0.90515 0.71769 0.70051 0.0
O123 O 0.8755 0.71469 0.67654 0.0
O124 O 0.92147 0.73535 0.76172 0.0
O125 O 0.88979 0.72604 0.77397 0.0
O126 O 0.98572 0.11772 0.44527 0.0
Cd127 Cd 0.01564 0.10879 0.4524 0.0
Cd128 Cd 0.01618 0.1451 0.48483 0.0
O129 O 0.98496 0.14524 0.47415 0.0
O130 O 0.01593 0.0793 0.44022 0.0
O131 O 0.02137 0.08958 0.4864 0.0
C132 C 0.01914 0.07464 0.46762 0.0
C133 C 0.0272 0.15553 0.53204 0.0
C134 C 0.97592 0.13278 0.45656 0.0
C135 C 0.04363 0.14173 0.43031 0.0
O136 O 0.03664 0.15263 0.45149 0.0
O137 O 0.03781 0.12313 0.42689 0.0
O138 O 0.01948 0.16845 0.51336 0.0
O139 O 0.02796 0.1363 0.5244 0.0
O140 O 0.62545 0.24055 0.19814 0.0
Cd141 Cd 0.63808 0.26868 0.20851 0.0
Cd142 Cd 0.5995 0.27313 0.23694 0.0
O143 O 0.59643 0.24251 0.22369 0.0
O144 O 0.66752 0.26529 0.1971 0.0
O145 O 0.6574 0.27032 0.2434 0.0
C146 C 0.67218 0.26688 0.22477 0.0
C147 C 0.58577 0.28356 0.28276 0.0
C148 C 0.60864 0.23248 0.20689 0.0
C149 C 0.61044 0.30178 0.18551 0.0
O150 O 0.59733 0.29551 0.20449 0.0
O151 O 0.62824 0.2936 0.18392 0.0
O152 O 0.57409 0.27827 0.26093 0.0
O153 O 0.60552 0.28227 0.27904 0.0
O154 O 0.51466 0.88077 0.9453 0.0
Cd155 Cd 0.48557 0.8883 0.9599 0.0
Cd156 Cd 0.49098 0.85283 0.98826 0.0
O157 O 0.52199 0.8572 0.97888 0.0
O158 O 0.48302 0.91802 0.94966 0.0
O159 O 0.48313 0.90646 0.99587 0.0
C160 C 0.48289 0.92191 0.97769 0.0
C161 C 0.47949 0.841 0.0345 0.0
C162 C 0.52755 0.86857 0.9573 0.0
C163 C 0.4615 0.8541 0.93625 0.0
O164 O 0.47311 0.84327 0.95287 0.0
O165 O 0.46175 0.87368 0.9382 0.0
O166 O 0.48948 0.82916 0.01654 0.0
O167 O 0.47676 0.86005 0.02677 0.0
O168 O 0.86882 0.2432 0.80513 0.0
Cd169 Cd 0.85499 0.27112 0.79747 0.0
Cd170 Cd 0.89169 0.27871 0.76567 0.0
O171 O 0.89696 0.24837 0.77848 0.0
O172 O 0.82564 0.2667 0.80851 0.0
O173 O 0.83575 0.27403 0.76279 0.0
C174 C 0.821 0.26957 0.78102 0.0
C175 C 0.90567 0.28946 0.72 0.0
C176 C 0.88605 0.23688 0.79521 0.0
C177 C 0.88169 0.30506 0.82 0.0
O178 O 0.89366 0.30083 0.79849 0.0
O179 O 0.86491 0.29522 0.82361 0.0
O180 O 0.91717 0.28483 0.74228 0.0
O181 O 0.88594 0.28758 0.72324 0.0
O182 O 0.51733 0.11978 0.54582 0.0
Cd183 Cd 0.48811 0.10798 0.54224 0.0
Cd184 Cd 0.48332 0.14545 0.50935 0.0
O185 O 0.51459 0.14814 0.51891 0.0
O186 O 0.49219 0.07951 0.5577 0.0
O187 O 0.48232 0.08604 0.51169 0.0
C188 C 0.48764 0.07273 0.53166 0.0
C189 C 0.47097 0.15793 0.46376 0.0
C190 C 0.52532 0.13598 0.53486 0.0
C191 C 0.45775 0.13853 0.56558 0.0
O192 O 0.46282 0.14989 0.54376 0.0
O193 O 0.46578 0.12079 0.56913 0.0
O194 O 0.4778 0.17014 0.48404 0.0
O195 O 0.47176 0.13829 0.46885 0.0
O196 O 0.62172 0.76174 0.29785 0.0
Cd197 Cd 0.63745 0.73439 0.29444 0.0
Cd198 Cd 0.60061 0.72294 0.26399 0.0
O199 O 0.59245 0.75274 0.27626 0.0
O200 O 0.66564 0.74238 0.30763 0.0
O201 O 0.65897 0.73026 0.26278 0.0
C202 C 0.67217 0.73753 0.28158 0.0
C203 C 0.58783 0.71026 0.21868 0.0
C204 C 0.60341 0.76602 0.28989 0.0
C205 C 0.61325 0.69937 0.31979 0.0
O206 O 0.60144 0.70124 0.29743 0.0
O207 O 0.62863 0.71131 0.32328 0.0
O208 O 0.57603 0.713 0.24128 0.0
O209 O 0.60707 0.71521 0.22138 0.0
O210 O 0.98395 0.87792 0.05017 0.0
Cd211 Cd 0.01245 0.89075 0.04413 0.0
Cd212 Cd 0.0179 0.85141 0.01465 0.0
O213 O 0.98688 0.84849 0.02579 0.0
O214 O 0.00724 0.91924 0.05888 0.0
O215 O 0.01613 0.91252 0.01258 0.0
C216 C 0.01056 0.92583 0.03238 0.0
C217 C 0.02948 0.8363 0.97016 0.0
C218 C 0.97621 0.86103 0.0412 0.0
C219 C 0.04395 0.86211 0.06941 0.0
O220 O 0.03898 0.84953 0.04893 0.0
O221 O 0.03554 0.8798 0.07127 0.0
O222 O 0.02358 0.82531 0.99237 0.0
O223 O 0.02832 0.85615 0.97275 0.0
O224 O 0.63162 0.74055 0.80722 0.0
Cd225 Cd 0.64741 0.7674 0.79987 0.0
Cd226 Cd 0.60971 0.77843 0.77205 0.0
O227 O 0.60211 0.74859 0.7855 0.0
O228 O 0.67651 0.76043 0.80968 0.0
O229 O 0.66629 0.76927 0.76457 0.0
C230 C 0.68093 0.76343 0.78216 0.0
C231 C 0.59591 0.79046 0.72708 0.0
C232 C 0.61329 0.73584 0.79984 0.0
C233 C 0.62501 0.80346 0.82514 0.0
O234 O 0.61195 0.80095 0.80442 0.0
O235 O 0.64043 0.79152 0.82781 0.0
O236 O 0.58463 0.78814 0.75033 0.0
O237 O 0.61517 0.78539 0.72894 0.0
O238 O 0.51122 0.38256 0.05089 0.0
Cd239 Cd 0.48227 0.39141 0.03695 0.0
Cd240 Cd 0.48512 0.35481 0.00966 0.0
O241 O 0.51614 0.35669 0.01996 0.0
O242 O 0.48134 0.42117 0.04756 0.0
O243 O 0.48029 0.40991 0.00124 0.0
C244 C 0.48095 0.42523 0.01961 0.0
C245 C 0.47358 0.34361 0.96318 0.0
C246 C 0.52288 0.36866 0.04012 0.0
C247 C 0.45572 0.35886 0.06125 0.0
O248 O 0.46624 0.34698 0.04465 0.0
O249 O 0.45774 0.37834 0.05931 0.0
O250 O 0.48237 0.33116 0.98157 0.0
O251 O 0.47202 0.36283 0.97071 0.0
O252 O 0.86876 0.25418 0.30231 0.0
Cd253 Cd 0.85276 0.22713 0.29711 0.0
Cd254 Cd 0.88951 0.21644 0.26478 0.0
O255 O 0.89683 0.24648 0.2768 0.0
O256 O 0.82467 0.23491 0.31101 0.0
O257 O 0.83116 0.22448 0.26524 0.0
C258 C 0.81808 0.23127 0.28458 0.0
C259 C 0.90378 0.20428 0.21997 0.0
C260 C 0.8865 0.25907 0.29261 0.0
C261 C 0.87769 0.19193 0.32039 0.0
O262 O 0.88962 0.19481 0.29837 0.0
O263 O 0.86175 0.20308 0.32411 0.0
O264 O 0.91503 0.20836 0.24271 0.0
O265 O 0.88414 0.2074 0.22227 0.0
O266 O 0.99671 0.61701 0.55573 0.0
Cd267 Cd 0.02276 0.60029 0.54665 0.0
Cd268 Cd 0.03258 0.63863 0.51802 0.0
O269 O 0.00301 0.64623 0.53212 0.0
O270 O 0.01414 0.5724 0.56043 0.0
O271 O 0.02247 0.57909 0.5139 0.0
C272 C 0.0159 0.56609 0.53349 0.0
C273 C 0.04404 0.6518 0.4723 0.0
C274 C 0.99125 0.63508 0.54812 0.0
C275 C 0.05904 0.62336 0.57012 0.0
O276 O 0.05514 0.63684 0.55036 0.0
O277 O 0.04821 0.60705 0.57218 0.0
O278 O 0.04192 0.66344 0.49524 0.0
O279 O 0.03917 0.63253 0.47497 0.0
O280 O 0.62362 0.25927 0.6987 0.0
Cd281 Cd 0.64123 0.23304 0.70096 0.0
Cd282 Cd 0.60601 0.21808 0.73063 0.0
O283 O 0.59533 0.24736 0.72001 0.0
O284 O 0.66907 0.24312 0.68942 0.0
O285 O 0.66234 0.22926 0.73322 0.0
C286 C 0.67542 0.23785 0.71541 0.0
C287 C 0.59508 0.20388 0.77597 0.0
C288 C 0.60506 0.26183 0.70695 0.0
C289 C 0.61978 0.1971 0.67344 0.0
O290 O 0.60806 0.1973 0.69605 0.0
O291 O 0.63416 0.21031 0.67064 0.0
O292 O 0.58271 0.2059 0.75383 0.0
O293 O 0.61385 0.21023 0.77268 0.0
O294 O 0.98806 0.38442 0.94315 0.0
Cd295 Cd 0.01737 0.39539 0.94922 0.0
Cd296 Cd 0.01959 0.35903 0.98358 0.0
O297 O 0.98844 0.3573 0.97278 0.0
O298 O 0.01478 0.42414 0.93417 0.0
O299 O 0.02231 0.41675 0.98084 0.0
C300 C 0.01811 0.43044 0.96085 0.0
C301 C 0.03067 0.34817 0.03063 0.0
C302 C 0.97892 0.3691 0.95482 0.0
C303 C 0.04692 0.36338 0.92859 0.0
O304 O 0.04045 0.35259 0.95026 0.0
O305 O 0.0402 0.38158 0.92429 0.0
O306 O 0.02364 0.33532 0.01131 0.0
O307 O 0.0308 0.36754 0.02369 0.0
O308 O 0.867 0.73723 0.19777 0.0
Cd309 Cd 0.85412 0.76549 0.2061 0.0
Cd310 Cd 0.89138 0.77119 0.23508 0.0
O311 O 0.8962 0.74062 0.22258 0.0
O312 O 0.82478 0.76169 0.19445 0.0
O313 O 0.8345 0.76874 0.24039 0.0
C314 C 0.81987 0.76465 0.22179 0.0
C315 C 0.90154 0.78306 0.28204 0.0
C316 C 0.8842 0.7299 0.20631 0.0
C317 C 0.88163 0.79786 0.18133 0.0
O318 O 0.89414 0.79295 0.20189 0.0
O319 O 0.86416 0.78909 0.17922 0.0
O320 O 0.91485 0.77855 0.26182 0.0
O321 O 0.88225 0.78 0.27608 0.0
O322 O 0.51052 0.6187 0.44855 0.0
Cd323 Cd 0.482 0.60675 0.45793 0.0
Cd324 Cd 0.47809 0.64404 0.48756 0.0
O325 O 0.50906 0.64687 0.47604 0.0
O326 O 0.48471 0.5772 0.44666 0.0
O327 O 0.4797 0.58761 0.49288 0.0
C328 C 0.48298 0.57271 0.47438 0.0
C329 C 0.46662 0.65474 0.53442 0.0
C330 C 0.51897 0.63495 0.45867 0.0
C331 C 0.45031 0.63575 0.43454 0.0
O332 O 0.4567 0.64831 0.45419 0.0
O333 O 0.45774 0.61762 0.43281 0.0
O334 O 0.47289 0.66779 0.51482 0.0
O335 O 0.46752 0.63532 0.52787 0.0
O336 O 0.36887 0.2636 0.19365 0.0
Cd337 Cd 0.35734 0.23483 0.20359 0.0
Cd338 Cd 0.3928 0.23318 0.23582 0.0
O339 O 0.39353 0.26452 0.22734 0.0
O340 O 0.32773 0.23644 0.19249 0.0
O341 O 0.33855 0.23223 0.23873 0.0
C342 C 0.32346 0.23488 0.22032 0.0
C343 C 0.40568 0.22069 0.28117 0.0
C344 C 0.38325 0.27329 0.20686 0.0
C345 C 0.38885 0.20688 0.18013 0.0
O346 O 0.40022 0.21497 0.19997 0.0
O347 O 0.36964 0.21083 0.1793 0.0
O348 O 0.41749 0.22919 0.26174 0.0
O349 O 0.38616 0.21978 0.27538 0.0
O350 O 0.47759 0.62064 0.94604 0.0
Cd351 Cd 0.5066 0.60838 0.9495 0.0
Cd352 Cd 0.51179 0.64505 0.98343 0.0
O353 O 0.48075 0.64893 0.97307 0.0
O354 O 0.5024 0.57982 0.93442 0.0
O355 O 0.51215 0.58668 0.9804 0.0
C356 C 0.50686 0.57323 0.96061 0.0
C357 C 0.52421 0.65574 0.02984 0.0
C358 C 0.46987 0.637 0.95694 0.0
C359 C 0.53771 0.63838 0.92738 0.0
O360 O 0.53294 0.64929 0.94978 0.0
O361 O 0.52909 0.62104 0.92279 0.0
O362 O 0.51879 0.66882 0.0098 0.0
O363 O 0.52177 0.63632 0.0241 0.0
O364 O 0.12753 0.7264 0.70353 0.0
Cd365 Cd 0.13322 0.757 0.7125 0.0
Cd366 Cd 0.09731 0.75246 0.74189 0.0
O367 O 0.10158 0.72122 0.73426 0.0
O368 O 0.16249 0.76036 0.70018 0.0
O369 O 0.15206 0.76362 0.74668 0.0
C370 C 0.16702 0.76317 0.72771 0.0
C371 C 0.08705 0.76546 0.78806 0.0
C372 C 0.11451 0.71431 0.71548 0.0
C373 C 0.09744 0.77895 0.6868 0.0
O374 O 0.08691 0.76907 0.70591 0.0
O375 O 0.11705 0.77805 0.68718 0.0
O376 O 0.07463 0.75489 0.77165 0.0
O377 O 0.10579 0.76797 0.7788 0.0
O378 O 0.01063 0.38154 0.44517 0.0
Cd379 Cd 0.98059 0.38807 0.45649 0.0
Cd380 Cd 0.98547 0.35322 0.48655 0.0
O381 O 0.01661 0.35732 0.47837 0.0
O382 O 0.97761 0.41768 0.44586 0.0
O383 O 0.97633 0.40616 0.49208 0.0
C384 C 0.97655 0.42158 0.47385 0.0
C385 C 0.97289 0.34355 0.53315 0.0
C386 C 0.02305 0.36921 0.45791 0.0
C387 C 0.95782 0.35269 0.43268 0.0
O388 O 0.96861 0.34242 0.45106 0.0
O389 O 0.95816 0.37232 0.43314 0.0
O390 O 0.98327 0.33089 0.51685 0.0
O391 O 0.97031 0.36217 0.52347 0.0
O392 O 0.3712 0.7376 0.29972 0.0
Cd393 Cd 0.36146 0.76659 0.28728 0.0
Cd394 Cd 0.39948 0.76561 0.26118 0.0
O395 O 0.39843 0.7344 0.27077 0.0
O396 O 0.33186 0.76612 0.29884 0.0
O397 O 0.34224 0.76902 0.25231 0.0
C398 C 0.32728 0.76729 0.27111 0.0
C399 C 0.41317 0.77763 0.21618 0.0
C400 C 0.38598 0.72677 0.28964 0.0
C401 C 0.39269 0.79369 0.31415 0.0
O402 O 0.40527 0.7843 0.29721 0.0
O403 O 0.37338 0.79077 0.31159 0.0
O404 O 0.42467 0.76928 0.23618 0.0
O405 O 0.39353 0.77853 0.22121 0.0
O406 O 0.01361 0.62236 0.04868 0.0
Cd407 Cd 0.98501 0.61072 0.03925 0.0
Cd408 Cd 0.98132 0.64914 0.01089 0.0
O409 O 0.01227 0.6513 0.02286 0.0
O410 O 0.98766 0.58106 0.05005 0.0
O411 O 0.98233 0.59178 0.00407 0.0
C412 C 0.98571 0.57674 0.02231 0.0
C413 C 0.97027 0.66266 0.96521 0.0
C414 C 0.02212 0.63884 0.03953 0.0
C415 C 0.95375 0.63963 0.064 0.0
O416 O 0.95989 0.65239 0.04446 0.0
O417 O 0.9612 0.6215 0.06528 0.0
O418 O 0.97647 0.67443 0.98644 0.0
O419 O 0.97099 0.64292 0.96943 0.0
O420 O 0.12921 0.25273 0.80753 0.0
Cd421 Cd 0.14216 0.22461 0.7982 0.0
Cd422 Cd 0.10412 0.22064 0.76706 0.0
O423 O 0.10085 0.25118 0.78047 0.0
O424 O 0.17097 0.22888 0.81207 0.0
O425 O 0.16302 0.22233 0.76529 0.0
C426 C 0.17686 0.2267 0.78498 0.0
C427 C 0.09087 0.21079 0.72066 0.0
C428 C 0.11272 0.261 0.798 0.0
C429 C 0.11376 0.19156 0.81889 0.0
O430 O 0.10134 0.19798 0.79906 0.0
O431 O 0.13148 0.19971 0.82198 0.0
O432 O 0.07897 0.2159 0.74232 0.0
O433 O 0.11058 0.21185 0.72494 0.0
O434 O 0.4784 0.38204 0.55205 0.0
Cd435 Cd 0.50858 0.39039 0.54483 0.0
Cd436 Cd 0.50634 0.35446 0.51257 0.0
O437 O 0.4749 0.35682 0.51962 0.0
O438 O 0.50844 0.41912 0.56034 0.0
O439 O 0.5148 0.41158 0.5134 0.0
C440 C 0.51186 0.42537 0.53369 0.0
C441 C 0.51935 0.34305 0.46686 0.0
C442 C 0.46717 0.36873 0.53909 0.0
C443 C 0.53209 0.35532 0.56901 0.0
O444 O 0.52309 0.34489 0.5489 0.0
O445 O 0.53025 0.37486 0.56987 0.0
O446 O 0.50938 0.33089 0.48436 0.0
O447 O 0.5214 0.36213 0.47481 0.0
H448 H 0.07076 0.17295 0.44 0.0
H449 H 0.04712 0.13297 0.37118 0.0
H450 H 0.09014 0.19246 0.40306 0.0
H451 H 0.06631 0.15292 0.33391 0.0
H452 H 0.07567 0.22063 0.28787 0.0
H453 H 0.06163 0.19226 0.31758 0.0
H454 H 0.11955 0.18725 0.3644 0.0
H455 H 0.13373 0.2153 0.33479 0.0
C456 C 0.06997 0.16816 0.417 0.0
C457 C 0.05745 0.1515 0.40842 0.0
C458 C 0.08112 0.17925 0.39589 0.0
C459 C 0.07969 0.17415 0.36568 0.0
C460 C 0.06764 0.15711 0.35709 0.0
C461 C 0.0568 0.14568 0.37838 0.0
C462 C 0.0856 0.21312 0.30393 0.0
C463 C 0.10569 0.22052 0.30933 0.0
C464 C 0.07758 0.19683 0.32083 0.0
C465 C 0.08947 0.18782 0.34347 0.0
C466 C 0.11003 0.19413 0.34728 0.0
C467 C 0.1181 0.21021 0.33027 0.0
H468 H 0.01124 0.8128 0.54869 0.0
H469 H 0.04674 0.86837 0.56441 0.0
H470 H 0.03497 0.79345 0.58017 0.0
H471 H 0.07025 0.849 0.59612 0.0
H472 H 0.11421 0.80334 0.64303 0.0
H473 H 0.09595 0.8201 0.60197 0.0
H474 H 0.03808 0.79625 0.63514 0.0
H475 H 0.05608 0.77957 0.67582 0.0
C476 C 0.02438 0.8208 0.55819 0.0
C477 C 0.02685 0.84222 0.55449 0.0
C478 C 0.03787 0.80973 0.57641 0.0
C479 C 0.05416 0.81983 0.59111 0.0
C480 C 0.05781 0.84081 0.58514 0.0
C481 C 0.04427 0.85191 0.56701 0.0
C482 C 0.09758 0.80173 0.64156 0.0
C483 C 0.08661 0.79015 0.66276 0.0
C484 C 0.08717 0.81128 0.61803 0.0
C485 C 0.06564 0.80921 0.61512 0.0
C486 C 0.05472 0.79773 0.6364 0.0
C487 C 0.06505 0.78838 0.65996 0.0
H488 H 0.43168 0.87093 0.90007 0.0
H489 H 0.46414 0.81398 0.91882 0.0
H490 H 0.41341 0.85377 0.8592 0.0
H491 H 0.44615 0.79716 0.87822 0.0
H492 H 0.42661 0.77578 0.79021 0.0
H493 H 0.44511 0.80014 0.82175 0.0
H494 H 0.38716 0.82358 0.85506 0.0
H495 H 0.36852 0.79928 0.82349 0.0
C496 C 0.43488 0.8548 0.89555 0.0
C497 C 0.44932 0.8438 0.91275 0.0
C498 C 0.42449 0.84505 0.87214 0.0
C499 C 0.42868 0.82428 0.86527 0.0
C500 C 0.44297 0.81332 0.88261 0.0
C501 C 0.45308 0.82292 0.90613 0.0
C502 C 0.41776 0.78653 0.80352 0.0
C503 C 0.3961 0.78528 0.8048 0.0
C504 C 0.42838 0.80039 0.82172 0.0
C505 C 0.41754 0.81337 0.84126 0.0
C506 C 0.39588 0.81368 0.84025 0.0
C507 C 0.38523 0.79971 0.82221 0.0
H508 H 0.37066 0.18133 0.13864 0.0
H509 H 0.42958 0.20621 0.16652 0.0
H510 H 0.38788 0.16403 0.09669 0.0
H511 H 0.44628 0.18956 0.12476 0.0
H512 H 0.4683 0.17694 0.03509 0.0
H513 H 0.44185 0.19398 0.06486 0.0
H514 H 0.42017 0.13474 0.09576 0.0
H515 H 0.44671 0.11752 0.06621 0.0
C516 C 0.38719 0.18308 0.13587 0.0
C517 C 0.39877 0.19506 0.15596 0.0
C518 C 0.39695 0.17331 0.11188 0.0
C519 C 0.41826 0.17591 0.10733 0.0
C520 C 0.42975 0.18771 0.12751 0.0
C521 C 0.42018 0.19703 0.15164 0.0
C522 C 0.45743 0.16746 0.04729 0.0
C523 C 0.45991 0.14592 0.04888 0.0
C524 C 0.44232 0.17724 0.06434 0.0
C525 C 0.42928 0.16561 0.08282 0.0
C526 C 0.43007 0.14398 0.08164 0.0
C527 C 0.44534 0.13418 0.06484 0.0
H528 H 0.07389 0.78634 0.21302 0.0
H529 H 0.13465 0.79819 0.17691 0.0
H530 H 0.05995 0.81459 0.18307 0.0
H531 H 0.12059 0.82611 0.14694 0.0
H532 H 0.07607 0.83549 0.06361 0.0
H533 H 0.09523 0.81859 0.10333 0.0
H534 H 0.06184 0.85441 0.16834 0.0
H535 H 0.04288 0.87181 0.12832 0.0
C536 C 0.08439 0.79533 0.19947 0.0
C537 C 0.10529 0.78969 0.19686 0.0
C538 C 0.0764 0.81154 0.18239 0.0
C539 C 0.08918 0.82225 0.16242 0.0
C540 C 0.1104 0.81791 0.16194 0.0
C541 C 0.1184 0.80188 0.17912 0.0
C542 C 0.07322 0.84016 0.08633 0.0
C543 C 0.05802 0.85491 0.09293 0.0
C544 C 0.08422 0.83056 0.10905 0.0
C545 C 0.07996 0.83522 0.13886 0.0
C546 C 0.06538 0.8506 0.14551 0.0
C547 C 0.05467 0.86059 0.12265 0.0
H548 H 0.37245 0.82237 0.34876 0.0
H549 H 0.43146 0.79216 0.33666 0.0
H550 H 0.38631 0.84042 0.39259 0.0
H551 H 0.44479 0.80959 0.38035 0.0
H552 H 0.45669 0.82404 0.47365 0.0
H553 H 0.43203 0.80824 0.43962 0.0
H554 H 0.42189 0.86725 0.39763 0.0
H555 H 0.44676 0.88321 0.43139 0.0
C556 C 0.3883 0.81962 0.35539 0.0
C557 C 0.4009 0.80593 0.33919 0.0
C558 C 0.39612 0.82983 0.38044 0.0
C559 C 0.4164 0.82598 0.38997 0.0
C560 C 0.42896 0.81247 0.37366 0.0
C561 C 0.42137 0.8027 0.34845 0.0
C562 C 0.4486 0.83388 0.45804 0.0
C563 C 0.45405 0.85478 0.45472 0.0
C564 C 0.43452 0.82479 0.43855 0.0
C565 C 0.42541 0.83654 0.41589 0.0
C566 C 0.42876 0.85793 0.415 0.0
C567 C 0.44305 0.86701 0.43426 0.0
H568 H 0.36591 0.20777 0.66447 0.0
H569 H 0.42467 0.21499 0.70898 0.0
H570 H 0.38028 0.17993 0.63462 0.0
H571 H 0.43896 0.18698 0.67897 0.0
H572 H 0.45639 0.12981 0.62494 0.0
H573 H 0.43659 0.14838 0.66296 0.0
H574 H 0.40764 0.18508 0.5946 0.0
H575 H 0.42749 0.16687 0.55693 0.0
C576 C 0.38176 0.20315 0.66839 0.0
C577 C 0.39427 0.21392 0.68872 0.0
C578 C 0.38995 0.18719 0.65125 0.0
C579 C 0.41077 0.18152 0.65424 0.0
C580 C 0.42282 0.19101 0.67632 0.0
C581 C 0.41465 0.20712 0.69339 0.0
C582 C 0.44544 0.14153 0.61809 0.0
C583 C 0.44352 0.14702 0.58804 0.0
C584 C 0.43423 0.1522 0.63981 0.0
C585 C 0.42062 0.16813 0.63168 0.0
C586 C 0.41786 0.17272 0.60149 0.0
C587 C 0.42931 0.16238 0.57993 0.0
H588 H 0.08298 0.1636 0.81075 0.0
H589 H 0.12772 0.18439 0.87531 0.0
H590 H 0.0664 0.14243 0.8483 0.0
H591 H 0.11099 0.16305 0.91321 0.0
H592 H 0.04774 0.15681 0.96844 0.0
H593 H 0.07623 0.16792 0.93696 0.0
H594 H 0.06897 0.1131 0.88332 0.0
H595 H 0.04032 0.10206 0.91452 0.0
C596 C 0.08955 0.16326 0.83284 0.0
C597 C 0.10648 0.17583 0.84018 0.0
C598 C 0.08016 0.15098 0.85435 0.0
C599 C 0.08736 0.15114 0.88377 0.0
C600 C 0.10507 0.16273 0.89074 0.0
C601 C 0.11468 0.17485 0.86903 0.0
C602 C 0.05265 0.14677 0.95054 0.0
C603 C 0.04142 0.12883 0.9435 0.0
C604 C 0.06906 0.15311 0.93255 0.0
C605 C 0.07453 0.14157 0.9073 0.0
C606 C 0.06481 0.12249 0.90229 0.0
C607 C 0.04841 0.11617 0.92021 0.0
H608 H 0.96091 0.86852 0.62921 0.0
H609 H 0.90539 0.87429 0.5771 0.0
H610 H 0.94211 0.84975 0.66688 0.0
H611 H 0.88569 0.85749 0.61633 0.0
H612 H 0.87006 0.79387 0.65321 0.0
H613 H 0.88166 0.82424 0.62786 0.0
H614 H 0.92014 0.84018 0.70312 0.0
H615 H 0.90952 0.80827 0.72763 0.0
C616 C 0.94436 0.86668 0.62663 0.0
C617 C 0.93461 0.87249 0.60015 0.0
C618 C 0.93343 0.8559 0.6484 0.0
C619 C 0.91232 0.85124 0.64447 0.0
C620 C 0.90209 0.85974 0.61964 0.0
C621 C 0.91325 0.86973 0.59729 0.0
C622 C 0.88078 0.80396 0.66466 0.0
C623 C 0.88921 0.79837 0.69221 0.0
C624 C 0.88735 0.82176 0.65012 0.0
C625 C 0.90222 0.83489 0.66298 0.0
C626 C 0.90922 0.83023 0.69189 0.0
C627 C 0.90301 0.812 0.70616 0.0
H628 H 0.95063 0.10716 0.42505 0.0
H629 H 0.95353 0.16846 0.46295 0.0
H630 H 0.9202 0.11709 0.39665 0.0
H631 H 0.92325 0.17844 0.43419 0.0
H632 H 0.86817 0.19304 0.3795 0.0
H633 H 0.88627 0.17468 0.41922 0.0
H634 H 0.92098 0.1405 0.35369 0.0
H635 H 0.903 0.15871 0.31431 0.0
C636 C 0.94449 0.12262 0.42788 0.0
C637 C 0.95479 0.13719 0.44572 0.0
C638 C 0.92706 0.12829 0.41158 0.0
C639 C 0.91958 0.14864 0.41274 0.0
C640 C 0.92859 0.1626 0.43288 0.0
C641 C 0.94603 0.15691 0.44928 0.0
C642 C 0.87917 0.1811 0.37365 0.0
C643 C 0.88438 0.17746 0.34382 0.0
C644 C 0.88962 0.17071 0.39639 0.0
C645 C 0.90517 0.1563 0.38961 0.0
C646 C 0.90897 0.15138 0.35972 0.0
C647 C 0.89875 0.16191 0.33709 0.0
H648 H 0.54393 0.12545 0.13184 0.0
H649 H 0.57873 0.15747 0.06423 0.0
H650 H 0.56188 0.14541 0.17018 0.0
H651 H 0.59656 0.17724 0.10226 0.0
H652 H 0.57109 0.21298 0.2115 0.0
H653 H 0.55923 0.18334 0.18263 0.0
H654 H 0.62029 0.17641 0.14536 0.0
H655 H 0.63215 0.20607 0.17389 0.0
C656 C 0.55583 0.13629 0.12522 0.0
C657 C 0.55984 0.14003 0.09505 0.0
C658 C 0.56596 0.14781 0.14714 0.0
C659 C 0.58052 0.16296 0.13923 0.0
C660 C 0.58557 0.16555 0.10914 0.0
C661 C 0.57528 0.15429 0.0873 0.0
C662 C 0.58212 0.20483 0.19772 0.0
C663 C 0.60245 0.21216 0.19455 0.0
C664 C 0.57535 0.18777 0.18129 0.0
C665 C 0.58878 0.17775 0.16142 0.0
C666 C 0.60952 0.18405 0.16013 0.0
C667 C 0.61629 0.20105 0.17653 0.0
H668 H 0.56222 0.84964 0.97993 0.0
H669 H 0.53859 0.88007 0.90175 0.0
H670 H 0.59304 0.83943 0.95243 0.0
H671 H 0.56797 0.86863 0.87379 0.0
H672 H 0.61718 0.84466 0.82053 0.0
H673 H 0.60052 0.86628 0.85777 0.0
H674 H 0.60171 0.8148 0.91927 0.0
H675 H 0.62028 0.79439 0.883 0.0
C676 C 0.56371 0.8543 0.95696 0.0
C677 C 0.54784 0.86539 0.94292 0.0
C678 C 0.5813 0.84828 0.94101 0.0
C679 C 0.58306 0.85268 0.91045 0.0
C680 C 0.56769 0.86503 0.8972 0.0
C681 C 0.55051 0.8715 0.9133 0.0
C682 C 0.61454 0.83843 0.84251 0.0
C683 C 0.61985 0.81796 0.84904 0.0
C684 C 0.60467 0.85064 0.86379 0.0
C685 C 0.59887 0.8422 0.89144 0.0
C686 C 0.60583 0.82214 0.89855 0.0
C687 C 0.61645 0.81027 0.87765 0.0
H688 H 0.92582 0.2231 0.79069 0.0
H689 H 0.86623 0.20695 0.82738 0.0
H690 H 0.94197 0.19632 0.82086 0.0
H691 H 0.88254 0.18008 0.85741 0.0
H692 H 0.92417 0.12649 0.89711 0.0
H693 H 0.9067 0.14592 0.85746 0.0
H694 H 0.94309 0.19977 0.87906 0.0
H695 H 0.96011 0.18084 0.91856 0.0
C696 C 0.91606 0.21345 0.80445 0.0
C697 C 0.8948 0.21744 0.8071 0.0
C698 C 0.92534 0.19817 0.82177 0.0
C699 C 0.91349 0.18644 0.84172 0.0
C700 C 0.89198 0.18895 0.84218 0.0
C701 C 0.8827 0.2044 0.82508 0.0
C702 C 0.92832 0.1425 0.8934 0.0
C703 C 0.94345 0.15215 0.91104 0.0
C704 C 0.9184 0.15354 0.87073 0.0
C705 C 0.92387 0.17417 0.86499 0.0
C706 C 0.93889 0.18375 0.88269 0.0
C707 C 0.94846 0.17294 0.90555 0.0
H708 H 0.62801 0.20274 0.61449 0.0
H709 H 0.59856 0.16089 0.67601 0.0
H710 H 0.61125 0.1849 0.5731 0.0
H711 H 0.58194 0.14318 0.63496 0.0
H712 H 0.54375 0.17405 0.53157 0.0
H713 H 0.57369 0.18546 0.55999 0.0
H714 H 0.58434 0.12274 0.58899 0.0
H715 H 0.55427 0.11134 0.56093 0.0
C716 C 0.61854 0.18931 0.6191 0.0
C717 C 0.61437 0.18334 0.64849 0.0
C718 C 0.60885 0.17921 0.59542 0.0
C719 C 0.59513 0.16277 0.60077 0.0
C720 C 0.59254 0.15567 0.63001 0.0
C721 C 0.60197 0.1659 0.65361 0.0
C722 C 0.55287 0.16259 0.54319 0.0
C723 C 0.54634 0.1419 0.54462 0.0
C724 C 0.57011 0.16911 0.55941 0.0
C725 C 0.58111 0.15503 0.5772 0.0
C726 C 0.57591 0.13398 0.57594 0.0
C727 C 0.55868 0.12748 0.55983 0.0
H728 H 0.62296 0.80028 0.31176 0.0
H729 H 0.56231 0.77471 0.29525 0.0
H730 H 0.60759 0.8266 0.34384 0.0
H731 H 0.54717 0.80089 0.3276 0.0
H732 H 0.54522 0.81659 0.42996 0.0
H733 H 0.55977 0.79896 0.38734 0.0
H734 H 0.57486 0.85755 0.34717 0.0
H735 H 0.55964 0.87566 0.38996 0.0
C736 C 0.60631 0.80069 0.31416 0.0
C737 C 0.59387 0.78518 0.30142 0.0
C738 C 0.59756 0.81581 0.33241 0.0
C739 C 0.57632 0.8155 0.33831 0.0
C740 C 0.56364 0.8013 0.32333 0.0
C741 C 0.57233 0.78637 0.30478 0.0
C742 C 0.55173 0.82587 0.41228 0.0
C743 C 0.5512 0.84759 0.41338 0.0
C744 C 0.55987 0.81572 0.38775 0.0
C745 C 0.568 0.82696 0.36391 0.0
C746 C 0.56841 0.84864 0.36529 0.0
C747 C 0.55984 0.85892 0.38976 0.0
H748 H 0.90896 0.82949 0.18663 0.0
H749 H 0.87115 0.79718 0.12273 0.0
H750 H 0.92622 0.84788 0.14649 0.0
H751 H 0.88883 0.81537 0.08233 0.0
H752 H 0.95695 0.82329 0.03704 0.0
H753 H 0.92796 0.8114 0.06727 0.0
H754 H 0.92043 0.87294 0.10257 0.0
H755 H 0.94915 0.88496 0.07234 0.0
C756 C 0.90401 0.82672 0.16402 0.0
C757 C 0.8888 0.8119 0.15775 0.0
C758 C 0.91381 0.83729 0.14105 0.0
C759 C 0.90886 0.83297 0.11134 0.0
C760 C 0.8929 0.81894 0.10507 0.0
C761 C 0.88274 0.80866 0.12816 0.0
C762 C 0.94869 0.83444 0.05046 0.0
C763 C 0.95569 0.85495 0.0528 0.0
C764 C 0.93204 0.82764 0.0677 0.0
C765 C 0.92223 0.84123 0.08754 0.0
C766 C 0.92792 0.86214 0.08769 0.0
C767 C 0.94441 0.86896 0.07036 0.0
H768 H 0.53761 0.63296 0.86724 0.0
H769 H 0.56994 0.66401 0.93821 0.0
H770 H 0.55791 0.65251 0.83074 0.0
H771 H 0.59035 0.68309 0.90201 0.0
H772 H 0.63269 0.70622 0.8327 0.0
H773 H 0.6167 0.6779 0.85977 0.0
H774 H 0.55777 0.69265 0.82033 0.0
H775 H 0.57367 0.72124 0.79317 0.0
C776 C 0.54943 0.64352 0.87499 0.0
C777 C 0.55221 0.64707 0.90549 0.0
C778 C 0.56091 0.65475 0.85416 0.0
C779 C 0.57565 0.66927 0.86361 0.0
C780 C 0.57923 0.67185 0.89411 0.0
C781 C 0.5675 0.661 0.91483 0.0
C782 C 0.6164 0.70324 0.82923 0.0
C783 C 0.60437 0.71628 0.81118 0.0
C784 C 0.60728 0.68698 0.84477 0.0
C785 C 0.586 0.68327 0.84236 0.0
C786 C 0.57425 0.69516 0.82245 0.0
C787 C 0.58335 0.71158 0.80703 0.0
H788 H 0.62594 0.30783 0.1297 0.0
H789 H 0.57984 0.33027 0.19104 0.0
H790 H 0.61053 0.32879 0.09021 0.0
H791 H 0.56464 0.35114 0.15191 0.0
H792 H 0.54215 0.39176 0.0826 0.0
H793 H 0.56936 0.38016 0.11598 0.0
H794 H 0.57586 0.32405 0.065 0.0
H795 H 0.54872 0.33563 0.03142 0.0
C796 C 0.61289 0.31766 0.13494 0.0
C797 C 0.60393 0.31727 0.16335 0.0
C798 C 0.60405 0.32956 0.11232 0.0
C799 C 0.58637 0.34154 0.11795 0.0
C800 C 0.57839 0.34226 0.14693 0.0
C801 C 0.587 0.33017 0.16933 0.0
C802 C 0.54977 0.3772 0.07796 0.0
C803 C 0.5429 0.36437 0.05477 0.0
C804 C 0.56534 0.37058 0.09714 0.0
C805 C 0.57442 0.35104 0.09343 0.0
C806 C 0.56916 0.3392 0.06839 0.0
C807 C 0.55352 0.34582 0.0492 0.0
H808 H 0.92732 0.26975 0.28974 0.0
H809 H 0.86821 0.29111 0.32225 0.0
H810 H 0.94465 0.29578 0.31992 0.0
H811 H 0.88568 0.31712 0.35238 0.0
H812 H 0.92816 0.36773 0.39459 0.0
H813 H 0.91091 0.34889 0.35425 0.0
H814 H 0.94534 0.29399 0.37698 0.0
H815 H 0.96224 0.31242 0.41709 0.0
C816 C 0.91797 0.28037 0.30257 0.0
C817 C 0.89641 0.27807 0.30407 0.0
C818 C 0.92792 0.2952 0.31995 0.0
C819 C 0.91649 0.30814 0.33884 0.0
C820 C 0.89484 0.3073 0.33803 0.0
C821 C 0.88487 0.29234 0.32085 0.0
C822 C 0.93196 0.35163 0.39096 0.0
C823 C 0.94649 0.34154 0.40912 0.0
C824 C 0.92216 0.34091 0.36787 0.0
C825 C 0.92709 0.32013 0.36227 0.0
C826 C 0.94158 0.31013 0.38043 0.0
C827 C 0.95106 0.32065 0.40366 0.0
H828 H 0.9261 0.68347 0.69059 0.0
H829 H 0.88574 0.70514 0.62091 0.0
H830 H 0.94565 0.66334 0.6544 0.0
H831 H 0.90581 0.68531 0.58442 0.0
H832 H 0.97444 0.67371 0.53971 0.0
H833 H 0.94687 0.68968 0.56908 0.0
H834 H 0.93792 0.63238 0.61624 0.0
H835 H 0.96501 0.61624 0.58689 0.0
C836 C 0.92129 0.68371 0.66758 0.0
C837 C 0.90444 0.6958 0.65851 0.0
C838 C 0.93241 0.67217 0.64693 0.0
C839 C 0.92716 0.67285 0.61673 0.0
C840 C 0.91007 0.68459 0.60763 0.0
C841 C 0.89859 0.69578 0.62847 0.0
C842 C 0.96623 0.66437 0.55579 0.0
C843 C 0.97217 0.64381 0.56126 0.0
C844 C 0.95043 0.67349 0.57248 0.0
C845 C 0.94052 0.66224 0.59501 0.0
C846 C 0.94548 0.64136 0.5991 0.0
C847 C 0.96102 0.63218 0.58224 0.0
H848 H 0.53041 0.31424 0.58096 0.0
H849 H 0.55836 0.37115 0.6114 0.0
H850 H 0.54688 0.2956 0.62116 0.0
H851 H 0.57519 0.35211 0.6519 0.0
H852 H 0.62144 0.29704 0.68298 0.0
H853 H 0.60295 0.3229 0.65392 0.0
H854 H 0.54497 0.29449 0.67786 0.0
H855 H 0.56334 0.26855 0.70689 0.0
C856 C 0.54014 0.3228 0.59618 0.0
C857 C 0.54314 0.34419 0.59288 0.0
C858 C 0.54936 0.31213 0.61947 0.0
C859 C 0.56201 0.32249 0.6399 0.0
C860 C 0.56535 0.34383 0.63652 0.0
C861 C 0.5558 0.35466 0.61334 0.0
C862 C 0.60471 0.29664 0.68277 0.0
C863 C 0.59388 0.28046 0.6967 0.0
C864 C 0.59414 0.31153 0.66623 0.0
C865 C 0.5726 0.3104 0.66323 0.0
C866 C 0.56164 0.29547 0.67951 0.0
C867 C 0.57217 0.28068 0.69624 0.0
H868 H 0.95781 0.33268 0.9623 0.0
H869 H 0.95294 0.39312 0.92201 0.0
H870 H 0.9281 0.32107 0.93342 0.0
H871 H 0.92327 0.38148 0.89335 0.0
H872 H 0.90825 0.33715 0.81264 0.0
H873 H 0.92614 0.35623 0.85136 0.0
H874 H 0.89028 0.32449 0.91809 0.0
H875 H 0.87212 0.30539 0.87905 0.0
C876 C 0.95001 0.34368 0.94807 0.0
C877 C 0.95804 0.36366 0.94391 0.0
C878 C 0.93292 0.33705 0.93159 0.0
C879 C 0.92363 0.35029 0.91076 0.0
C880 C 0.93037 0.37087 0.9089 0.0
C881 C 0.94738 0.3775 0.92534 0.0
C882 C 0.90376 0.33466 0.83551 0.0
C883 C 0.88892 0.3197 0.84284 0.0
C884 C 0.91393 0.34567 0.85772 0.0
C885 C 0.90966 0.34175 0.88777 0.0
C886 C 0.8939 0.32772 0.8951 0.0
C887 C 0.88345 0.31692 0.87276 0.0
H888 H 0.92356 0.66845 0.05816 0.0
H889 H 0.95221 0.62787 0.12213 0.0
H890 H 0.9039 0.68493 0.09776 0.0
H891 H 0.93277 0.64482 0.16207 0.0
H892 H 0.9222 0.71131 0.21193 0.0
H893 H 0.93606 0.68392 0.18031 0.0
H894 H 0.87646 0.67687 0.13867 0.0
H895 H 0.86244 0.70393 0.17029 0.0
C896 C 0.92532 0.6628 0.08064 0.0
C897 C 0.93938 0.64692 0.08711 0.0
C898 C 0.91403 0.67216 0.10328 0.0
C899 C 0.91687 0.66611 0.13293 0.0
C900 C 0.93033 0.6497 0.13936 0.0
C901 C 0.94132 0.63997 0.11653 0.0
C902 C 0.91187 0.70348 0.19673 0.0
C903 C 0.89133 0.71013 0.19323 0.0
C904 C 0.91981 0.68775 0.17869 0.0
C905 C 0.90735 0.67856 0.15682 0.0
C906 C 0.8864 0.6839 0.15517 0.0
C907 C 0.87842 0.69942 0.17333 0.0
H908 H 0.62206 0.70206 0.37903 0.0
H909 H 0.58971 0.6648 0.3145 0.0
H910 H 0.6048 0.68324 0.4191 0.0
H911 H 0.57259 0.64612 0.35423 0.0
H912 H 0.54589 0.61121 0.42697 0.0
H913 H 0.57519 0.62322 0.39782 0.0
H914 H 0.56743 0.6846 0.43377 0.0
H915 H 0.53824 0.67257 0.46328 0.0
C916 C 0.61179 0.68943 0.37342 0.0
C917 C 0.60704 0.68502 0.34365 0.0
C918 C 0.60181 0.67878 0.39635 0.0
C919 C 0.58722 0.66333 0.38983 0.0
C920 C 0.58388 0.6578 0.36005 0.0
C921 C 0.5936 0.66859 0.33723 0.0
C922 C 0.55073 0.62716 0.42925 0.0
C923 C 0.53944 0.64107 0.44693 0.0
C924 C 0.56752 0.63402 0.41252 0.0
C925 C 0.57337 0.65491 0.41309 0.0
C926 C 0.56335 0.66838 0.43293 0.0
C927 C 0.54653 0.6615 0.44975 0.0
H928 H 0.45896 0.32027 0.08398 0.0
H929 H 0.42393 0.37687 0.0926 0.0
H930 H 0.43993 0.30537 0.12521 0.0
H931 H 0.40432 0.36141 0.13385 0.0
H932 H 0.36341 0.29836 0.16712 0.0
H933 H 0.37989 0.32395 0.13498 0.0
H934 H 0.43654 0.31773 0.1845 0.0
H935 H 0.42019 0.29241 0.21695 0.0
C936 C 0.44706 0.32949 0.09449 0.0
C937 C 0.4429 0.34974 0.08498 0.0
C938 C 0.43634 0.32101 0.11829 0.0
C939 C 0.42097 0.33241 0.13283 0.0
C940 C 0.41631 0.35247 0.12304 0.0
C941 C 0.42743 0.36122 0.09948 0.0
C942 C 0.37914 0.30304 0.1719 0.0
C943 C 0.39064 0.29303 0.19418 0.0
C944 C 0.3885 0.31773 0.15356 0.0
C945 C 0.40947 0.32248 0.15717 0.0
C946 C 0.42032 0.31417 0.18134 0.0
C947 C 0.41093 0.2997 0.19991 0.0
H948 H 0.44099 0.613 0.92953 0.0
H949 H 0.45159 0.67514 0.96137 0.0
H950 H 0.41107 0.62499 0.9017 0.0
H951 H 0.42166 0.6871 0.93331 0.0
H952 H 0.36591 0.70428 0.88053 0.0
H953 H 0.38339 0.68587 0.9208 0.0
H954 H 0.41407 0.64708 0.85646 0.0
H955 H 0.39684 0.66547 0.81647 0.0
C956 C 0.43664 0.62913 0.93123 0.0
C957 C 0.44897 0.64324 0.94708 0.0
C958 C 0.41949 0.63596 0.91527 0.0
C959 C 0.41428 0.65701 0.9149 0.0
C960 C 0.42527 0.67075 0.93324 0.0
C961 C 0.44249 0.66391 0.94924 0.0
C962 C 0.37587 0.69136 0.8751 0.0
C963 C 0.38019 0.6864 0.84537 0.0
C964 C 0.38595 0.68094 0.89814 0.0
C965 C 0.40018 0.66516 0.89177 0.0
C966 C 0.40306 0.65905 0.86213 0.0
C967 C 0.39327 0.66965 0.83917 0.0
H968 H 0.14193 0.69327 0.6808 0.0
H969 H 0.08191 0.6877 0.722 0.0
H970 H 0.13408 0.66385 0.64902 0.0
H971 H 0.07397 0.65852 0.6899 0.0
H972 H 0.06088 0.60833 0.62681 0.0
H973 H 0.07975 0.62374 0.6683 0.0
H974 H 0.1096 0.66596 0.60766 0.0
H975 H 0.09093 0.65062 0.56651 0.0
C976 C 0.12729 0.6854 0.68369 0.0
C977 C 0.11231 0.69315 0.70337 0.0
C978 C 0.1228 0.66857 0.66543 0.0
C979 C 0.10324 0.65919 0.66644 0.0
C980 C 0.08921 0.66538 0.68856 0.0
C981 C 0.09373 0.68221 0.70693 0.0
C982 C 0.07203 0.62042 0.62227 0.0
C983 C 0.07421 0.62851 0.59348 0.0
C984 C 0.08272 0.62931 0.64606 0.0
C985 C 0.09598 0.64621 0.64135 0.0
C986 C 0.09964 0.65286 0.61212 0.0
C987 C 0.08881 0.64416 0.58847 0.0
H988 H 0.04303 0.39469 0.41919 0.0
H989 H 0.05025 0.33747 0.46756 0.0
H990 H 0.07237 0.3856 0.388 0.0
H991 H 0.0794 0.32829 0.43606 0.0
H992 H 0.13102 0.31434 0.37436 0.0
H993 H 0.11428 0.33431 0.41373 0.0
H994 H 0.07057 0.35825 0.34997 0.0
H995 H 0.08717 0.33845 0.31095 0.0
C996 C 0.05122 0.38043 0.42371 0.0
C997 C 0.04399 0.36654 0.44533 0.0
C998 C 0.06802 0.37524 0.4058 0.0
C999 C 0.07788 0.35605 0.40914 0.0
C1000 C 0.07214 0.34322 0.43295 0.0
C1001 C 0.05534 0.34844 0.45095 0.0
C1002 C 0.11823 0.32438 0.36867 0.0
C1003 C 0.1102 0.32465 0.33968 0.0
C1004 C 0.1086 0.33571 0.39122 0.0
C1005 C 0.09104 0.34774 0.385 0.0
C1006 C 0.08419 0.34932 0.3555 0.0
C1007 C 0.0936 0.33783 0.33313 0.0
H1008 H 0.44548 0.6218 0.37767 0.0
H1009 H 0.42248 0.66694 0.44006 0.0
H1010 H 0.42574 0.6385 0.33793 0.0
H1011 H 0.40272 0.68337 0.40066 0.0
H1012 H 0.3625 0.7062 0.33036 0.0
H1013 H 0.37398 0.67866 0.36325 0.0
H1014 H 0.43132 0.67435 0.3148 0.0
H1015 H 0.41993 0.70194 0.28175 0.0
C1016 C 0.43578 0.63492 0.38304 0.0
C1017 C 0.43562 0.6432 0.41189 0.0
C1018 C 0.42459 0.6445 0.36029 0.0
C1019 C 0.41274 0.66221 0.36621 0.0
C1020 C 0.41153 0.6696 0.39548 0.0
C1021 C 0.42296 0.66028 0.41802 0.0
C1022 C 0.37733 0.69903 0.32614 0.0
C1023 C 0.39051 0.70662 0.30383 0.0
C1024 C 0.38389 0.68326 0.34504 0.0
C1025 C 0.40366 0.67466 0.34189 0.0
C1026 C 0.41597 0.68069 0.31771 0.0
C1027 C 0.40946 0.69657 0.29883 0.0
H1028 H 0.04781 0.6149 0.073 0.0
H1029 H 0.04248 0.67591 0.03458 0.0
H1030 H 0.07667 0.62665 0.10323 0.0
H1031 H 0.07142 0.68759 0.06499 0.0
H1032 H 0.09023 0.67009 0.18561 0.0
H1033 H 0.07273 0.65153 0.14596 0.0
H1034 H 0.10934 0.68409 0.08093 0.0
H1035 H 0.12713 0.70263 0.12088 0.0
C1036 C 0.05309 0.63069 0.07043 0.0
C1037 C 0.04252 0.64462 0.05187 0.0
C1038 C 0.06964 0.63738 0.08778 0.0
C1039 C 0.07604 0.65809 0.08679 0.0
C1040 C 0.06684 0.67151 0.06612 0.0
C1041 C 0.05019 0.66483 0.04879 0.0
C1042 C 0.09494 0.67289 0.1629 0.0
C1043 C 0.10992 0.68788 0.15631 0.0
C1044 C 0.08501 0.66218 0.14018 0.0
C1045 C 0.08963 0.66645 0.11035 0.0
C1046 C 0.10546 0.68058 0.10374 0.0
C1047 C 0.11569 0.69107 0.12659 0.0
H1048 H 0.07626 0.28194 0.78933 0.0
H1049 H 0.13486 0.28588 0.83511 0.0
H1050 H 0.06364 0.31148 0.81788 0.0
H1051 H 0.12215 0.31523 0.86349 0.0
H1052 H 0.07515 0.33333 0.93934 0.0
H1053 H 0.09408 0.31295 0.90298 0.0
H1054 H 0.06865 0.35016 0.83235 0.0
H1055 H 0.0498 0.37091 0.86903 0.0
C1056 C 0.08662 0.28939 0.80488 0.0
C1057 C 0.10641 0.28127 0.81035 0.0
C1058 C 0.07942 0.30636 0.82112 0.0
C1059 C 0.09186 0.31542 0.84313 0.0
C1060 C 0.11218 0.30835 0.8469 0.0
C1061 C 0.11941 0.29152 0.83061 0.0
C1062 C 0.07396 0.33747 0.91612 0.0
C1063 C 0.06098 0.35363 0.90698 0.0
C1064 C 0.08487 0.32588 0.8953 0.0
C1065 C 0.08278 0.32998 0.86486 0.0
C1066 C 0.07047 0.34669 0.8557 0.0
C1067 C 0.05982 0.3586 0.87667 0.0
H1068 H 0.44244 0.33496 0.5297 0.0
H1069 H 0.44484 0.39327 0.57641 0.0
H1070 H 0.41438 0.32369 0.56188 0.0
H1071 H 0.41674 0.38196 0.60844 0.0
H1072 H 0.40878 0.33338 0.68659 0.0
H1073 H 0.42279 0.35436 0.64665 0.0
H1074 H 0.37888 0.32758 0.58556 0.0
H1075 H 0.36463 0.30659 0.62589 0.0
C1076 C 0.43645 0.3457 0.54601 0.0
C1077 C 0.44626 0.36476 0.55107 0.0
C1078 C 0.4203 0.33926 0.56443 0.0
C1079 C 0.41373 0.3518 0.58809 0.0
C1080 C 0.42179 0.37186 0.5907 0.0
C1081 C 0.43788 0.3783 0.57231 0.0
C1082 C 0.40173 0.33238 0.66484 0.0
C1083 C 0.38578 0.31822 0.65928 0.0
C1084 C 0.40964 0.34452 0.64197 0.0
C1085 C 0.40195 0.34254 0.61294 0.0
C1086 C 0.3851 0.32935 0.60772 0.0
C1087 C 0.37692 0.31742 0.63081 0.0
H1088 H 0.28818 0.23209 0.18768 0.0
H1089 H 0.31046 0.24495 0.27606 0.0
H1090 H 0.2532 0.24069 0.20313 0.0
H1091 H 0.27564 0.25449 0.2913 0.0
H1092 H 0.20764 0.25283 0.31615 0.0
H1093 H 0.24223 0.2424 0.30171 0.0
H1094 H 0.23285 0.26974 0.21522 0.0
H1095 H 0.19776 0.27932 0.22937 0.0
C1096 C 0.28556 0.2367 0.21047 0.0
C1097 C 0.30204 0.23784 0.23068 0.0
C1098 C 0.26554 0.24187 0.21926 0.0
C1099 C 0.26156 0.24858 0.24837 0.0
C1100 C 0.27803 0.24918 0.26879 0.0
C1101 C 0.29803 0.24373 0.26008 0.0
C1102 C 0.21299 0.25672 0.29409 0.0
C1103 C 0.19997 0.2669 0.27387 0.0
C1104 C 0.23291 0.2508 0.28583 0.0
C1105 C 0.2404 0.25514 0.25725 0.0
C1106 C 0.22748 0.26574 0.23722 0.0
C1107 C 0.20742 0.27143 0.24538 0.0
H1108 H 0.97896 0.94812 0.48 0.0
H1109 H 0.01633 0.95533 0.55875 0.0
H1110 H 0.9872 0.98347 0.46541 0.0
H1111 H 0.02511 0.99036 0.54373 0.0
H1112 H 0.01611 0.05968 0.52417 0.0
H1113 H 0.01019 0.02395 0.53915 0.0
H1114 H 0.0149 0.00456 0.44765 0.0
H1115 H 0.02014 0.04031 0.43267 0.0
C1116 C 0.98904 0.9572 0.49408 0.0
C1117 C 0.99693 0.94895 0.52055 0.0
C1118 C 0.9939 0.97742 0.48563 0.0
C1119 C 0.00689 0.98977 0.50336 0.0
C1120 C 0.01485 0.98142 0.52976 0.0
C1121 C 0.00987 0.96128 0.53829 0.0
C1122 C 0.01616 0.04774 0.50734 0.0
C1123 C 0.01848 0.05282 0.47725 0.0
C1124 C 0.01279 0.02724 0.5159 0.0
C1125 C 0.01183 0.01137 0.49456 0.0
C1126 C 0.01506 0.01642 0.46459 0.0
C1127 C 0.01826 0.03691 0.45604 0.0
H1128 H 0.28702 0.76121 0.81718 0.0
H1129 H 0.29549 0.73037 0.73306 0.0
H1130 H 0.25146 0.76915 0.80396 0.0
H1131 H 0.25963 0.73765 0.72021 0.0
H1132 H 0.20088 0.76909 0.6929 0.0
H1133 H 0.23699 0.76515 0.70684 0.0
H1134 H 0.21864 0.75324 0.79744 0.0
H1135 H 0.18253 0.75794 0.78359 0.0
C1136 C 0.28123 0.75596 0.79593 0.0
C1137 C 0.29407 0.74513 0.77615 0.0
C1138 C 0.26079 0.76045 0.78841 0.0
C1139 C 0.25264 0.7541 0.761 0.0
C1140 C 0.26549 0.74314 0.74129 0.0
C1141 C 0.286 0.73879 0.74872 0.0
C1142 C 0.20459 0.76595 0.7159 0.0
C1143 C 0.18887 0.76375 0.73715 0.0
C1144 C 0.22529 0.76348 0.72383 0.0
C1145 C 0.23075 0.75853 0.75316 0.0
C1146 C 0.21504 0.75719 0.77468 0.0
C1147 C 0.19431 0.75987 0.76677 0.0
H1148 H 0.52055 0.04941 0.98592 0.0
H1149 H 0.49283 0.03968 0.07197 0.0
H1150 H 0.51294 0.01367 0.97265 0.0
H1151 H 0.48464 0.00421 0.05841 0.0
H1152 H 0.47719 0.957 0.94542 0.0
H1153 H 0.48375 0.99245 0.96074 0.0
H1154 H 0.49962 0.97103 0.04865 0.0
H1155 H 0.49241 0.93555 0.03348 0.0
C1156 C 0.51286 0.03964 0.002 0.0
C1157 C 0.5073 0.04738 0.02996 0.0
C1158 C 0.50832 0.01921 0.99432 0.0
C1159 C 0.49799 0.0061 0.01437 0.0
C1160 C 0.49277 0.01378 0.04254 0.0
C1161 C 0.49742 0.03416 0.05026 0.0
C1162 C 0.48183 0.95988 0.96813 0.0
C1163 C 0.48434 0.94348 0.98823 0.0
C1164 C 0.4858 0.98019 0.97683 0.0
C1165 C 0.49254 0.98458 0.00579 0.0
C1166 C 0.49434 0.96823 0.02622 0.0
C1167 C 0.4902 0.94788 0.01755 0.0
H1168 H 0.20002 0.72738 0.26654 0.0
H1169 H 0.20848 0.75575 0.18065 0.0
H1170 H 0.23589 0.73511 0.27895 0.0
H1171 H 0.24397 0.76418 0.1934 0.0
H1172 H 0.31284 0.75805 0.21567 0.0
H1173 H 0.27731 0.75005 0.20168 0.0
H1174 H 0.25724 0.7638 0.29098 0.0
H1175 H 0.29278 0.77101 0.30511 0.0
C1176 C 0.20954 0.73527 0.25034 0.0
C1177 C 0.20142 0.74094 0.22265 0.0
C1178 C 0.23004 0.73988 0.25751 0.0
C1179 C 0.24281 0.75044 0.23726 0.0
C1180 C 0.23471 0.75582 0.2094 0.0
C1181 C 0.21429 0.75105 0.20215 0.0
C1182 C 0.30078 0.75958 0.23217 0.0
C1183 C 0.30559 0.76507 0.26149 0.0
C1184 C 0.2804 0.755 0.22418 0.0
C1185 C 0.2644 0.75603 0.2453 0.0
C1186 C 0.2692 0.76232 0.27434 0.0
C1187 C 0.28956 0.76667 0.28236 0.0
H1188 H 0.51403 0.95779 0.44115 0.0
H1189 H 0.50555 0.93883 0.53216 0.0
H1190 H 0.50775 0.99355 0.45512 0.0
H1191 H 0.49831 0.97452 0.54607 0.0
H1192 H 0.50606 0.04323 0.56554 0.0
H1193 H 0.51289 0.00745 0.55264 0.0
H1194 H 0.4808 0.01596 0.46939 0.0
H1195 H 0.47482 0.05217 0.48184 0.0
C1196 C 0.51082 0.96129 0.46419 0.0
C1197 C 0.51031 0.94553 0.48558 0.0
C1198 C 0.50699 0.98178 0.47216 0.0
C1199 C 0.50225 0.98697 0.50167 0.0
C1200 C 0.50212 0.97118 0.52318 0.0
C1201 C 0.50626 0.9507 0.51524 0.0
C1202 C 0.50033 0.03744 0.54455 0.0
C1203 C 0.48994 0.05054 0.52465 0.0
C1204 C 0.50418 0.01685 0.5372 0.0
C1205 C 0.49751 0.00875 0.5099 0.0
C1206 C 0.48657 0.02175 0.49034 0.0
C1207 C 0.48295 0.04246 0.49756 0.0
H1208 H 0.19607 0.21806 0.73233 0.0
H1209 H 0.20664 0.24451 0.81898 0.0
H1210 H 0.23139 0.22671 0.71813 0.0
H1211 H 0.24146 0.25406 0.80447 0.0
H1212 H 0.30935 0.25267 0.77809 0.0
H1213 H 0.27482 0.24213 0.79361 0.0
H1214 H 0.25166 0.25559 0.7057 0.0
H1215 H 0.28631 0.26511 0.69 0.0
C1216 C 0.20595 0.22571 0.74832 0.0
C1217 C 0.19859 0.23058 0.77674 0.0
C1218 C 0.22614 0.23086 0.74013 0.0
C1219 C 0.2393 0.24128 0.76005 0.0
C1220 C 0.23196 0.2458 0.78866 0.0
C1221 C 0.2119 0.24039 0.79695 0.0
C1222 C 0.29681 0.2535 0.76222 0.0
C1223 C 0.3005 0.25966 0.73286 0.0
C1224 C 0.27699 0.24749 0.77108 0.0
C1225 C 0.2604 0.24782 0.75085 0.0
C1226 C 0.2641 0.2546 0.7217 0.0
C1227 C 0.28394 0.26029 0.71276 0.0
H1228 H 0.97066 0.03655 0.94113 0.0
H1229 H 0.98688 0.0587 0.02846 0.0
H1230 H 0.97897 0.0014 0.9562 0.0
H1231 H 0.99597 0.02365 0.04328 0.0
H1232 H 0.99332 0.95527 0.0677 0.0
H1233 H 0.98328 0.99019 0.05421 0.0
H1234 H 0.00874 0.98102 0.96655 0.0
H1235 H 0.01807 0.94566 0.97978 0.0
C1236 C 0.97586 0.03387 0.96365 0.0
C1237 C 0.97813 0.05038 0.98362 0.0
C1238 C 0.98088 0.01375 0.97218 0.0
C1239 C 0.98848 0.00969 0.00081 0.0
C1240 C 0.99002 0.02614 0.02112 0.0
C1241 C 0.98479 0.04627 0.01266 0.0
C1242 C 0.99693 0.96073 0.04559 0.0
C1243 C 0.00647 0.94767 0.02476 0.0
C1244 C 0.99121 0.98083 0.03789 0.0
C1245 C 0.99505 0.98844 0.00923 0.0
C1246 C 0.00513 0.97553 0.98864 0.0
C1247 C 0.01069 0.95533 0.99628 0.0
H1248 H 0.79527 0.75175 0.68216 0.0
H1249 H 0.80847 0.72267 0.76626 0.0
H1250 H 0.76012 0.75847 0.69804 0.0
H1251 H 0.7728 0.7283 0.78172 0.0
H1252 H 0.71638 0.76284 0.81442 0.0
H1253 H 0.75108 0.75483 0.79737 0.0
H1254 H 0.72756 0.74538 0.70855 0.0
H1255 H 0.69301 0.7546 0.72554 0.0
C1256 C 0.7905 0.74637 0.70386 0.0
C1257 C 0.80466 0.73675 0.72303 0.0
C1258 C 0.77025 0.75015 0.71295 0.0
C1259 C 0.76351 0.74408 0.74129 0.0
C1260 C 0.77752 0.73367 0.76001 0.0
C1261 C 0.79793 0.73023 0.75109 0.0
C1262 C 0.71869 0.75918 0.7912 0.0
C1263 C 0.70204 0.75943 0.77126 0.0
C1264 C 0.73857 0.75434 0.78145 0.0
C1265 C 0.74223 0.74923 0.75158 0.0
C1266 C 0.72547 0.74953 0.73162 0.0
C1267 C 0.70563 0.75477 0.74131 0.0
H1268 H 0.7069 0.26726 0.19079 0.0
H1269 H 0.68592 0.25838 0.28081 0.0
H1270 H 0.74198 0.25876 0.20576 0.0
H1271 H 0.72092 0.24901 0.29569 0.0
H1272 H 0.78965 0.25207 0.31757 0.0
H1273 H 0.7547 0.26172 0.30361 0.0
H1274 H 0.76222 0.22993 0.21994 0.0
H1275 H 0.7976 0.22102 0.23352 0.0
C1276 C 0.70981 0.2635 0.21383 0.0
C1277 C 0.69367 0.26349 0.23464 0.0
C1278 C 0.7299 0.2584 0.22236 0.0
C1279 C 0.7343 0.25292 0.25186 0.0
C1280 C 0.71818 0.25335 0.27283 0.0
C1281 C 0.69809 0.25869 0.26433 0.0
C1282 C 0.78382 0.24705 0.29623 0.0
C1283 C 0.7964 0.2358 0.2766 0.0
C1284 C 0.76371 0.25252 0.28828 0.0
C1285 C 0.7556 0.2467 0.26059 0.0
C1286 C 0.76808 0.23506 0.2412 0.0
C1287 C 0.78831 0.22977 0.24905 0.0
H1288 H 0.69557 0.22441 0.76518 0.0
H1289 H 0.7037 0.26152 0.68639 0.0
H1290 H 0.73083 0.23248 0.78041 0.0
H1291 H 0.73854 0.27027 0.70208 0.0
H1292 H 0.80726 0.26474 0.72411 0.0
H1293 H 0.77223 0.2566 0.70799 0.0
H1294 H 0.75118 0.26016 0.79886 0.0
H1295 H 0.78629 0.26747 0.81497 0.0
C1296 C 0.70486 0.23435 0.75119 0.0
C1297 C 0.69688 0.24228 0.72459 0.0
C1298 C 0.72502 0.23913 0.76 0.0
C1299 C 0.73755 0.25212 0.74254 0.0
C1300 C 0.7295 0.25997 0.71587 0.0
C1301 C 0.70946 0.25503 0.70694 0.0
C1302 C 0.7951 0.26394 0.74056 0.0
C1303 C 0.79953 0.26667 0.77079 0.0
C1304 C 0.77499 0.25931 0.73135 0.0
C1305 C 0.75886 0.25755 0.75215 0.0
C1306 C 0.76327 0.26091 0.78229 0.0
C1307 C 0.78338 0.2653 0.79151 0.0
H1308 H 0.80524 0.75926 0.27815 0.0
H1309 H 0.7856 0.7644 0.1869 0.0
H1310 H 0.76972 0.75202 0.293 0.0
H1311 H 0.75005 0.75805 0.20175 0.0
H1312 H 0.69258 0.72416 0.23199 0.0
H1313 H 0.72841 0.73095 0.21835 0.0
H1314 H 0.73647 0.76661 0.29865 0.0
H1315 H 0.70103 0.75908 0.31276 0.0
C1316 C 0.79327 0.75918 0.26135 0.0
C1317 C 0.79819 0.76231 0.23138 0.0
C1318 C 0.77289 0.75508 0.26983 0.0
C1319 C 0.75699 0.75427 0.24854 0.0
C1320 C 0.76193 0.75804 0.21866 0.0
C1321 C 0.78229 0.76189 0.21018 0.0
C1322 C 0.70207 0.73334 0.24676 0.0
C1323 C 0.694 0.74105 0.27344 0.0
C1324 C 0.72257 0.73739 0.23887 0.0
C1325 C 0.73535 0.74945 0.25732 0.0
C1326 C 0.72723 0.75702 0.2841 0.0
C1327 C 0.70684 0.75278 0.29212 0.0
H1328 H 0.49104 0.43893 0.96408 0.0
H1329 H 0.47579 0.46025 0.05218 0.0
H1330 H 0.4985 0.47441 0.94913 0.0
H1331 H 0.48248 0.4957 0.03707 0.0
H1332 H 0.51736 0.55357 0.01221 0.0
H1333 H 0.51092 0.51756 0.02531 0.0
H1334 H 0.4835 0.50724 0.93913 0.0
H1335 H 0.49065 0.54291 0.92572 0.0
C1336 C 0.48891 0.45124 0.98007 0.0
C1337 C 0.4829 0.44681 0.00931 0.0
C1338 C 0.49318 0.47159 0.97153 0.0
C1339 C 0.49134 0.48793 0.992 0.0
C1340 C 0.48459 0.48348 0.02094 0.0
C1341 C 0.48053 0.46316 0.02952 0.0
C1342 C 0.51017 0.54353 0.99599 0.0
C1343 C 0.50451 0.5511 0.96797 0.0
C1344 C 0.50628 0.52294 0.00356 0.0
C1345 C 0.49647 0.50952 0.98338 0.0
C1346 C 0.49126 0.51703 0.95512 0.0
C1347 C 0.49531 0.53754 0.94747 0.0
H1348 H 0.97102 0.45684 0.44179 0.0
H1349 H 0.98643 0.43492 0.52953 0.0
H1350 H 0.97927 0.49203 0.45681 0.0
H1351 H 0.99544 0.46999 0.54431 0.0
H1352 H 0.99587 0.53813 0.56828 0.0
H1353 H 0.98363 0.5039 0.5547 0.0
H1354 H 0.00963 0.51156 0.46707 0.0
H1355 H 0.0212 0.54623 0.48039 0.0
C1356 C 0.97597 0.45958 0.46441 0.0
C1357 C 0.97814 0.44311 0.48446 0.0
C1358 C 0.98093 0.47973 0.47292 0.0
C1359 C 0.98839 0.48384 0.50161 0.0
C1360 C 0.98962 0.46746 0.52209 0.0
C1361 C 0.98444 0.44732 0.51364 0.0
C1362 C -0.00096 0.5325 0.54612 0.0
C1363 C 0.00954 0.54488 0.52539 0.0
C1364 C 0.99205 0.51281 0.53836 0.0
C1365 C 0.99556 0.50494 0.50976 0.0
C1366 C 0.00629 0.51727 0.48912 0.0
C1367 C 0.01311 0.53707 0.49681 0.0
H1368 H 0.00118 0.46055 0.92643 0.0
H1369 H 0.02819 0.45002 0.01273 0.0
H1370 H 0.9926 0.49571 0.94058 0.0
H1371 H 0.02051 0.48566 0.02653 0.0
H1372 H 0.98364 0.54146 0.05496 0.0
H1373 H 0.99212 0.5065 0.03932 0.0
H1374 H 0.00503 0.52897 0.9509 0.0
H1375 H 0.99555 0.56382 0.96638 0.0
C1376 C 0.00567 0.46589 0.94828 0.0
C1377 C 0.01531 0.45247 0.96852 0.0
C1378 C 0.0008 0.48614 0.95637 0.0
C1379 C 0.00568 0.49358 0.98481 0.0
C1380 C 0.01605 0.48034 0.00468 0.0
C1381 C 0.02067 0.45997 0.9967 0.0
C1382 C 0.98806 0.53886 0.03209 0.0
C1383 C 0.9889 0.55535 0.01187 0.0
C1384 C 0.99318 0.51884 0.02318 0.0
C1385 C -0.00043 0.51486 0.99392 0.0
C1386 C -2e-05 0.53136 0.97353 0.0
C1387 C 0.99456 0.55136 0.98237 0.0
H1388 H 0.49722 0.45613 0.56899 0.0
H1389 H 0.52234 0.44471 0.48176 0.0
H1390 H 0.48994 0.49164 0.55535 0.0
H1391 H 0.51604 0.48071 0.46845 0.0
H1392 H 0.48008 0.53761 0.44146 0.0
H1393 H 0.48824 0.50248 0.45658 0.0
H1394 H 0.503 0.52447 0.54469 0.0
H1395 H 0.49377 0.55949 0.52976 0.0
C1396 C 0.50162 0.46135 0.54706 0.0
C1397 C 0.51027 0.44758 0.52638 0.0
C1398 C 0.49751 0.48181 0.53925 0.0
C1399 C 0.5022 0.48911 0.51068 0.0
C1400 C 0.51172 0.47553 0.49042 0.0
C1401 C 0.51556 0.45494 0.49811 0.0
C1402 C 0.48486 0.53487 0.46415 0.0
C1403 C 0.48622 0.55126 0.48447 0.0
C1404 C 0.4898 0.51475 0.47275 0.0
C1405 C 0.49657 0.51057 0.50179 0.0
C1406 C 0.49763 0.527 0.52224 0.0
C1407 C 0.49235 0.5471 0.51373 0.0
H1408 H 0.025 0.31023 0.05541 0.0
H1409 H 0.05573 0.36864 0.06998 0.0
H1410 H 0.04042 0.29657 0.10066 0.0
H1411 H 0.07134 0.3548 0.1154 0.0
H1412 H 0.11295 0.31178 0.17428 0.0
H1413 H 0.09766 0.32626 0.12905 0.0
H1414 H 0.03781 0.30344 0.15574 0.0
H1415 H 0.05293 0.28915 0.2008 0.0
C1416 C 0.03497 0.3202 0.06836 0.0
C1417 C 0.03909 0.34055 0.05916 0.0
C1418 C 0.04377 0.31237 0.09432 0.0
C1419 C 0.05712 0.32459 0.11151 0.0
C1420 C 0.06124 0.34498 0.10242 0.0
C1421 C 0.05217 0.35295 0.0766 0.0
C1422 C 0.09656 0.30977 0.17036 0.0
C1423 C 0.08416 0.29928 0.19107 0.0
C1424 C 0.08779 0.31821 0.14463 0.0
C1425 C 0.06654 0.31601 0.13892 0.0
C1426 C 0.05425 0.30526 0.15945 0.0
C1427 C 0.06292 0.29712 0.18529 0.0
H1428 H 0.87863 0.78983 0.33238 0.0
H1429 H 0.93986 0.79761 0.29589 0.0
H1430 H 0.89006 0.8062 0.37857 0.0
H1431 H 0.95114 0.81398 0.3418 0.0
H1432 H 0.95731 0.86198 0.41661 0.0
H1433 H 0.94423 0.8469 0.37045 0.0
H1434 H 0.91498 0.79801 0.42031 0.0
H1435 H 0.92808 0.81294 0.46629 0.0
C1436 C 0.8945 0.79497 0.33422 0.0
C1437 C 0.90834 0.79234 0.3105 0.0
C1438 C 0.90105 0.80432 0.36066 0.0
C1439 C 0.92147 0.81148 0.36373 0.0
C1440 C 0.93525 0.80887 0.33997 0.0
C1441 C 0.9288 0.79931 0.31376 0.0
C1442 C 0.948 0.84808 0.4177 0.0
C1443 C 0.94382 0.83862 0.44509 0.0
C1444 C 0.94059 0.8394 0.39129 0.0
C1445 C 0.92861 0.82124 0.39178 0.0
C1446 C 0.92403 0.81209 0.41923 0.0
C1447 C 0.93165 0.82059 0.44555 0.0
H1448 H 0.38162 0.69184 0.67413 0.0
H1449 H 0.44155 0.71177 0.70517 0.0
H1450 H 0.39784 0.67713 0.62965 0.0
H1451 H 0.45756 0.69739 0.66077 0.0
H1452 H 0.47192 0.69248 0.55995 0.0
H1453 H 0.45577 0.70581 0.60496 0.0
H1454 H 0.42459 0.6475 0.61766 0.0
H1455 H 0.44105 0.63395 0.57264 0.0
C1456 C 0.39819 0.69317 0.67139 0.0
C1457 C 0.4103 0.70299 0.69311 0.0
C1458 C 0.40747 0.68463 0.64609 0.0
C1459 C 0.42895 0.68612 0.64183 0.0
C1460 C 0.44097 0.69611 0.66342 0.0
C1461 C 0.43178 0.7043 0.68886 0.0
C1462 C 0.46176 0.68243 0.57244 0.0
C1463 C 0.45782 0.66214 0.56282 0.0
C1464 C 0.45253 0.69006 0.59822 0.0
C1465 C 0.43888 0.67771 0.61471 0.0
C1466 C 0.43494 0.65739 0.6052 0.0
C1467 C 0.44449 0.6496 0.57963 0.0
H1468 H 0.55983 0.18169 0.78459 0.0
H1469 H 0.61359 0.20484 0.83068 0.0
H1470 H 0.54673 0.1672 0.83085 0.0
H1471 H 0.6003 0.19041 0.87717 0.0
H1472 H 0.55354 0.18667 0.95595 0.0
H1473 H 0.56912 0.19852 0.90978 0.0
H1474 H 0.55583 0.13954 0.86924 0.0
H1475 H 0.5403 0.1275 0.91574 0.0
C1476 C 0.56889 0.18364 0.8046 0.0
C1477 C 0.58771 0.19452 0.80402 0.0
C1478 C 0.56144 0.17519 0.83103 0.0
C1479 C 0.57248 0.17768 0.85759 0.0
C1480 C 0.59141 0.18837 0.85702 0.0
C1481 C 0.59904 0.19657 0.83043 0.0
C1482 C 0.55395 0.17617 0.93724 0.0
C1483 C 0.5456 0.15616 0.93946 0.0
C1484 C 0.56304 0.18293 0.91087 0.0
C1485 C 0.56375 0.16995 0.88596 0.0
C1486 C 0.55541 0.14991 0.8881 0.0
C1487 C 0.54657 0.14301 0.91469 0.0
H1488 H 0.06382 0.68856 0.46444 0.0
H1489 H 0.04285 0.63459 0.4167 0.0
H1490 H 0.07722 0.70321 0.41843 0.0
H1491 H 0.05611 0.64946 0.37046 0.0
H1492 H 0.05882 0.69719 0.29273 0.0
H1493 H 0.04694 0.68115 0.33862 0.0
H1494 H 0.10546 0.69511 0.37998 0.0
H1495 H 0.11754 0.71103 0.33378 0.0
C1496 C 0.06205 0.67982 0.44411 0.0
C1497 C 0.0522 0.66043 0.44419 0.0
C1498 C 0.06986 0.68817 0.41781 0.0
C1499 C 0.06773 0.67748 0.39089 0.0
C1500 C 0.05787 0.65809 0.3909 0.0
C1501 C 0.05034 0.64956 0.41734 0.0
C1502 C 0.06918 0.69687 0.31159 0.0
C1503 C 0.08911 0.70546 0.30965 0.0
C1504 C 0.06241 0.68754 0.33779 0.0
C1505 C 0.07528 0.68683 0.36283 0.0
C1506 C 0.09518 0.69552 0.36102 0.0
C1507 C 0.1021 0.70459 0.3346 0.0
H1508 H 0.61112 0.78803 0.67041 0.0
H1509 H 0.56032 0.81251 0.72166 0.0
H1510 H 0.59535 0.80181 0.62505 0.0
H1511 H 0.54487 0.82652 0.67654 0.0
H1512 H 0.53701 0.86638 0.59074 0.0
H1513 H 0.55425 0.85414 0.63595 0.0
H1514 H 0.56075 0.79352 0.59712 0.0
H1515 H 0.54328 0.80551 0.55236 0.0
C1516 C 0.59669 0.79644 0.67201 0.0
C1517 C 0.5869 0.79908 0.69955 0.0
C1518 C 0.58766 0.80427 0.64609 0.0
C1519 C 0.56893 0.81526 0.64736 0.0
C1520 C 0.55939 0.81826 0.67497 0.0
C1521 C 0.56818 0.8101 0.70074 0.0
C1522 C 0.5421 0.85045 0.59192 0.0
C1523 C 0.53869 0.83688 0.56808 0.0
C1524 C 0.55192 0.84346 0.61775 0.0
C1525 C 0.5589 0.82292 0.6199 0.0
C1526 C 0.55571 0.80947 0.59593 0.0
C1527 C 0.54555 0.81632 0.57041 0.0
H1528 H 0.4485 0.28415 0.79394 0.0
H1529 H 0.38854 0.3041 0.82478 0.0
H1530 H 0.46449 0.29881 0.83813 0.0
H1531 H 0.40467 0.31891 0.86916 0.0
H1532 H 0.44609 0.3628 0.92597 0.0
H1533 H 0.42976 0.34837 0.88152 0.0
H1534 H 0.46445 0.29194 0.893 0.0
H1535 H 0.48066 0.30622 0.93731 0.0
C1536 C 0.43871 0.29159 0.81023 0.0
C1537 C 0.41723 0.29292 0.80589 0.0
C1538 C 0.44788 0.29995 0.83558 0.0
C1539 C 0.43585 0.31006 0.85706 0.0
C1540 C 0.41435 0.31137 0.85282 0.0
C1541 C 0.40511 0.30275 0.82757 0.0
C1542 C 0.45034 0.34738 0.91885 0.0
C1543 C 0.46471 0.33567 0.93511 0.0
C1544 C 0.44085 0.33906 0.89358 0.0
C1545 C 0.44578 0.319 0.88386 0.0
C1546 C 0.46043 0.30748 0.89984 0.0
C1547 C 0.46969 0.31567 0.92525 0.0
H1548 H 0.94474 0.20243 0.20678 0.0
H1549 H 0.88458 0.18723 0.17138 0.0
H1550 H 0.96103 0.18821 0.16262 0.0
H1551 H 0.90105 0.17289 0.12691 0.0
H1552 H 0.9416 0.12965 0.06768 0.0
H1553 H 0.92478 0.14281 0.11259 0.0
H1554 H 0.9629 0.19752 0.1089 0.0
H1555 H 0.97961 0.1845 0.06425 0.0
C1556 C 0.93496 0.19608 0.18953 0.0
C1557 C 0.91334 0.19602 0.19256 0.0
C1558 C 0.94433 0.18798 0.16418 0.0
C1559 C 0.93233 0.17944 0.1413 0.0
C1560 C 0.91069 0.17923 0.14432 0.0
C1561 C 0.90127 0.18757 0.16964 0.0
C1562 C 0.94649 0.14439 0.07664 0.0
C1563 C 0.96198 0.156 0.06247 0.0
C1564 C 0.93673 0.152 0.10216 0.0
C1565 C 0.9425 0.17121 0.11421 0.0
C1566 C 0.95823 0.1826 0.10028 0.0
C1567 C 0.96778 0.17514 0.07465 0.0
H1568 H 0.94837 0.64335 0.921 0.0
H1569 H 0.97272 0.70278 0.94726 0.0
H1570 H 0.9329 0.65927 0.87695 0.0
H1571 H 0.95734 0.71856 0.90347 0.0
H1572 H 0.94736 0.7333 0.80459 0.0
H1573 H 0.96212 0.71734 0.84869 0.0
H1574 H 0.90467 0.68528 0.86462 0.0
H1575 H 0.88978 0.70132 0.82025 0.0
C1576 C 0.95054 0.65975 0.91728 0.0
C1577 C 0.96183 0.67178 0.93758 0.0
C1578 C 0.94153 0.66889 0.89223 0.0
C1579 C 0.94386 0.69018 0.88679 0.0
C1580 C 0.95539 0.7021 0.90691 0.0
C1581 C 0.96417 0.69304 0.93205 0.0
C1582 C 0.93778 0.72297 0.81758 0.0
C1583 C 0.91736 0.71863 0.80895 0.0
C1584 C 0.94625 0.71385 0.8429 0.0
C1585 C 0.93458 0.7 0.86009 0.0
C1586 C 0.9141 0.69574 0.85163 0.0
C1587 C 0.90552 0.70507 0.82641 0.0
H1588 H 0.05088 0.21378 0.70247 0.0
H1589 H 0.11048 0.19043 0.67526 0.0
H1590 H 0.03538 0.19988 0.65745 0.0
H1591 H 0.09482 0.17641 0.63001 0.0
H1592 H 0.05266 0.13488 0.57063 0.0
H1593 H 0.06857 0.14841 0.61599 0.0
H1594 H 0.03728 0.20662 0.60278 0.0
H1595 H 0.02149 0.19322 0.55764 0.0
C1596 C 0.06071 0.20575 0.6868 0.0
C1597 C 0.08193 0.20326 0.69241 0.0
C1598 C 0.05181 0.19783 0.66097 0.0
C1599 C 0.06387 0.18701 0.64024 0.0
C1600 C 0.08512 0.18452 0.64575 0.0
C1601 C 0.0941 0.19269 0.6715 0.0
C1602 C 0.04907 0.1505 0.57757 0.0
C1603 C 0.03577 0.16295 0.56059 0.0
C1604 C 0.05832 0.1583 0.60336 0.0
C1605 C 0.05421 0.1786 0.61287 0.0
C1606 C 0.04064 0.19088 0.59613 0.0
C1607 C 0.03162 0.1832 0.57024 0.0
H1608 H 0.5127 0.3055 0.44129 0.0
H1609 H 0.54758 0.36193 0.43033 0.0
H1610 H 0.5293 0.29101 0.39753 0.0
H1611 H 0.56424 0.34732 0.38624 0.0
H1612 H 0.6052 0.30342 0.32884 0.0
H1613 H 0.58917 0.31836 0.37318 0.0
H1614 H 0.52943 0.29723 0.34321 0.0
H1615 H 0.54531 0.28234 0.29918 0.0
C1616 C 0.52384 0.31488 0.42944 0.0
C1617 C 0.52876 0.33491 0.43925 0.0
C1618 C 0.53332 0.30657 0.4043 0.0
C1619 C 0.5481 0.318 0.38845 0.0
C1620 C 0.55305 0.33807 0.39818 0.0
C1621 C 0.54338 0.34649 0.42325 0.0
C1622 C 0.58868 0.30185 0.33187 0.0
C1623 C 0.57655 0.29163 0.31054 0.0
C1624 C 0.57948 0.31056 0.3571 0.0
C1625 C 0.55803 0.30899 0.36165 0.0
C1626 C 0.546 0.29854 0.34048 0.0
C1627 C 0.55513 0.29005 0.3152 0.0
H1628 H 0.45255 0.85971 0.07316 0.0
H1629 H 0.48579 0.80275 0.05813 0.0
H1630 H 0.43619 0.84443 0.11695 0.0
H1631 H 0.46938 0.78752 0.10148 0.0
H1632 H 0.45332 0.77497 0.19842 0.0
H1633 H 0.46949 0.79097 0.15548 0.0
H1634 H 0.41069 0.8168 0.12946 0.0
H1635 H 0.39442 0.80088 0.17285 0.0
C1636 C 0.45647 0.844 0.07929 0.0
C1637 C 0.47053 0.83248 0.0622 0.0
C1638 C 0.44696 0.83519 0.1042 0.0
C1639 C 0.45144 0.81474 0.11267 0.0
C1640 C 0.46573 0.80337 0.09578 0.0
C1641 C 0.47511 0.81211 0.07085 0.0
C1642 C 0.44377 0.78398 0.18352 0.0
C1643 C 0.42254 0.78658 0.18905 0.0
C1644 C 0.45305 0.79311 0.15882 0.0
C1645 C 0.44139 0.80518 0.13903 0.0
C1646 C 0.42014 0.80778 0.14447 0.0
C1647 C 0.41079 0.79851 0.16917 0.0
H1648 H 0.94394 0.36328 0.56746 0.0
H1649 H 0.98026 0.30737 0.56219 0.0
H1650 H 0.92713 0.35018 0.61237 0.0
H1651 H 0.96351 0.29437 0.6068 0.0
H1652 H 0.9464 0.28918 0.70507 0.0
H1653 H 0.96253 0.30289 0.66048 0.0
H1654 H 0.9027 0.32117 0.62721 0.0
H1655 H 0.8864 0.3074 0.67216 0.0
C1656 C 0.94844 0.34829 0.57598 0.0
C1657 C 0.96349 0.33641 0.56132 0.0
C1658 C 0.93868 0.34072 0.60151 0.0
C1659 C 0.94397 0.32123 0.61308 0.0
C1660 C 0.95921 0.30951 0.59859 0.0
C1661 C 0.96879 0.31696 0.57298 0.0
C1662 C 0.93662 0.29605 0.68825 0.0
C1663 C 0.91509 0.29715 0.69214 0.0
C1664 C 0.94588 0.30385 0.66263 0.0
C1665 C 0.9339 0.31311 0.64033 0.0
C1666 C 0.91235 0.31427 0.64416 0.0
C1667 C 0.90301 0.30625 0.66976 0.0
H1668 H 0.38713 0.19494 0.32169 0.0
H1669 H 0.44473 0.22588 0.30223 0.0
H1670 H 0.40301 0.17904 0.3655 0.0
H1671 H 0.46044 0.21006 0.34568 0.0
H1672 H 0.47311 0.19761 0.44406 0.0
H1673 H 0.45674 0.21257 0.40047 0.0
H1674 H 0.43139 0.15292 0.37764 0.0
H1675 H 0.44785 0.1378 0.42157 0.0
C1676 C 0.4031 0.19843 0.32683 0.0
C1677 C 0.41464 0.21173 0.30855 0.0
C1678 C 0.41223 0.1892 0.35174 0.0
C1679 C 0.43298 0.1933 0.359 0.0
C1680 C 0.44439 0.20674 0.34083 0.0
C1681 C 0.43537 0.21576 0.31587 0.0
C1682 C 0.46414 0.18761 0.42971 0.0
C1683 C 0.46185 0.16649 0.43623 0.0
C1684 C 0.4548 0.1962 0.40468 0.0
C1685 C 0.44276 0.18393 0.38563 0.0
C1686 C 0.44043 0.16278 0.39208 0.0
C1687 C 0.45 0.1541 0.41705 0.0
H1688 H 0.52989 0.63414 0.08163 0.0
H1689 H 0.54045 0.69373 0.0411 0.0
H1690 H 0.54619 0.64655 0.12742 0.0
H1691 H 0.55693 0.7059 0.08652 0.0
H1692 H 0.60474 0.71124 0.1629 0.0
H1693 H 0.58986 0.69719 0.1171 0.0
H1694 H 0.53719 0.6749 0.1663 0.0
H1695 H 0.55179 0.68913 0.21185 0.0
C1696 C 0.5357 0.64983 0.08248 0.0
C1697 C 0.53377 0.66298 0.05783 0.0
C1698 C 0.54499 0.65693 0.10865 0.0
C1699 C 0.5529 0.67715 0.11041 0.0
C1700 C 0.55116 0.69018 0.08566 0.0
C1701 C 0.54156 0.68324 0.05976 0.0
C1702 C 0.59002 0.7033 0.16391 0.0
C1703 C 0.57938 0.7014 0.19093 0.0
C1704 C 0.58149 0.69532 0.13773 0.0
C1705 C 0.56239 0.68494 0.13822 0.0
C1706 C 0.552 0.68267 0.16533 0.0
C1707 C 0.56032 0.69096 0.19135 0.0
H1708 H 0.05041 0.75857 0.81612 0.0
H1709 H 0.10637 0.79472 0.82239 0.0
H1710 H 0.0367 0.77605 0.8597 0.0
H1711 H 0.09258 0.81224 0.86631 0.0
H1712 H 0.04912 0.85438 0.92274 0.0
H1713 H 0.06381 0.83708 0.87922 0.0
H1714 H 0.04364 0.77812 0.91352 0.0
H1715 H 0.02897 0.79527 0.9567 0.0
C1716 C 0.05987 0.77015 0.82693 0.0
C1717 C 0.07952 0.77521 0.81581 0.0
C1718 C 0.05201 0.78014 0.85198 0.0
C1719 C 0.06353 0.79556 0.86644 0.0
C1720 C 0.08325 0.80057 0.85546 0.0
C1721 C 0.09122 0.7904 0.83049 0.0
C1722 C 0.04776 0.83774 0.92088 0.0
C1723 C 0.03781 0.82622 0.94314 0.0
C1724 C 0.05631 0.82782 0.8961 0.0
C1725 C 0.05489 0.80622 0.89294 0.0
C1726 C 0.04482 0.79479 0.91513 0.0
C1727 C 0.03646 0.80464 0.93994 0.0
loop_
_geom_bond_atom_site_label_1
_geom_bond_atom_site_label_2
_geom_bond_distance
_geom_bond_site_symmetry_2
_ccdc_geom_bond_type
O0 Cd1 2.223 . S
O0 C8 1.315 . S
Cd1 O0 2.223 . S
Cd1 O4 2.297 . S
Cd1 O5 2.439 . S
Cd1 O11 2.240 . S
Cd2 O3 2.240 . S
Cd2 O10 2.223 . S
Cd2 O12 2.297 . S
Cd2 O13 2.439 . S
O3 Cd2 2.240 . S
O3 C8 1.279 . S
O4 Cd1 2.297 . S
O4 C6 1.247 . S
O5 Cd1 2.439 . S
O5 C6 1.208 . S
C6 O4 1.247 . S
C6 O5 1.208 . S
C7 O12 1.247 . S
C7 O13 1.208 . S
C8 O0 1.315 . S
C8 O3 1.279 . S
C9 O10 1.315 . S
C9 O11 1.279 . S
O10 Cd2 2.223 . S
O10 C9 1.315 . S
O11 Cd1 2.240 . S
O11 C9 1.279 . S
O12 Cd2 2.297 . S
O12 C7 1.247 . S
O13 Cd2 2.439 . S
O13 C7 1.208 . S
O14 Cd15 2.223 . S
O14 C22 1.315 . S
Cd15 O14 2.223 . S
Cd15 O18 2.297 . S
Cd15 O19 2.439 . S
Cd15 O25 2.240 . S
Cd16 O17 2.240 . S
Cd16 O24 2.223 . S
Cd16 O26 2.297 . S
Cd16 O27 2.439 . S
O17 Cd16 2.240 . S
O17 C22 1.279 . S
O18 Cd15 2.297 . S
O18 C20 1.247 . S
O19 Cd15 2.439 . S
O19 C20 1.208 . S
C20 O18 1.247 . S
C20 O19 1.208 . S
C21 O26 1.247 . S
C21 O27 1.208 . S
C22 O14 1.315 . S
C22 O17 1.279 . S
C23 O24 1.315 . S
C23 O25 1.279 . S
O24 Cd16 2.223 . S
O24 C23 1.315 . S
O25 Cd15 2.240 . S
O25 C23 1.279 . S
O26 Cd16 2.297 . S
O26 C21 1.247 . S
O27 Cd16 2.439 . S
O27 C21 1.208 . S
O28 Cd29 2.223 . S
O28 C36 1.315 . S
Cd29 O28 2.223 . S
Cd29 O32 2.297 . S
Cd29 O33 2.439 . S
Cd29 O39 2.240 . S
Cd30 O31 2.240 . S
Cd30 O38 2.223 . S
Cd30 O40 2.297 . S
Cd30 O41 2.439 . S
O31 Cd30 2.240 . S
O31 C36 1.279 . S
O32 Cd29 2.297 . S
O32 C34 1.247 . S
O33 Cd29 2.439 . S
O33 C34 1.208 . S
C34 O32 1.247 . S
C34 O33 1.208 . S
C35 O40 1.247 . S
C35 O41 1.208 . S
C36 O28 1.315 . S
C36 O31 1.279 . S
C37 O38 1.315 . S
C37 O39 1.279 . S
O38 Cd30 2.223 . S
O38 C37 1.315 . S
O39 Cd29 2.240 . S
O39 C37 1.279 . S
O40 Cd30 2.297 . S
O40 C35 1.247 . S
O41 Cd30 2.439 . S
O41 C35 1.208 . S
O42 Cd43 2.223 . S
O42 C50 1.315 . S
Cd43 O42 2.223 . S
Cd43 O46 2.297 . S
Cd43 O47 2.439 . S
Cd43 O53 2.240 . S
Cd44 O45 2.240 . S
Cd44 O52 2.223 . S
Cd44 O54 2.297 1_554 S
Cd44 O55 2.439 1_554 S
O45 Cd44 2.240 . S
O45 C50 1.279 . S
O46 Cd43 2.297 . S
O46 C48 1.247 . S
O47 Cd43 2.439 . S
O47 C48 1.208 . S
C48 O46 1.247 . S
C48 O47 1.208 . S
C49 O54 1.247 . S
C49 O55 1.208 . S
C50 O42 1.315 . S
C50 O45 1.279 . S
C51 O52 1.315 . S
C51 O53 1.279 . S
O52 Cd44 2.223 . S
O52 C51 1.315 . S
O53 Cd43 2.240 . S
O53 C51 1.279 . S
O54 Cd44 2.297 1_556 S
O54 C49 1.247 . S
O55 Cd44 2.439 1_556 S
O55 C49 1.208 . S
O56 Cd57 2.223 . S
O56 C64 1.315 . S
Cd57 O56 2.223 . S
Cd57 O60 2.297 . S
Cd57 O61 2.439 . S
Cd57 O67 2.240 . S
Cd58 O59 2.240 . S
Cd58 O66 2.223 . S
Cd58 O68 2.297 . S
Cd58 O69 2.439 . S
O59 Cd58 2.240 . S
O59 C64 1.279 . S
O60 Cd57 2.297 . S
O60 C62 1.247 . S
O61 Cd57 2.439 . S
O61 C62 1.208 . S
C62 O60 1.247 . S
C62 O61 1.208 . S
C63 O68 1.247 . S
C63 O69 1.208 . S
C64 O56 1.315 . S
C64 O59 1.279 . S
C65 O66 1.315 . S
C65 O67 1.279 . S
O66 Cd58 2.223 . S
O66 C65 1.315 . S
O67 Cd57 2.240 . S
O67 C65 1.279 . S
O68 Cd58 2.297 . S
O68 C63 1.247 . S
O69 Cd58 2.439 . S
O69 C63 1.208 . S
O70 Cd71 2.223 . S
O70 C78 1.315 . S
Cd71 O70 2.223 . S
Cd71 O74 2.297 . S
Cd71 O75 2.439 . S
Cd71 O81 2.240 . S
Cd72 O73 2.240 . S
Cd72 O80 2.223 . S
Cd72 O82 2.297 . S
Cd72 O83 2.439 . S
O73 Cd72 2.240 . S
O73 C78 1.279 . S
O74 Cd71 2.297 . S
O74 C76 1.247 . S
O75 Cd71 2.439 . S
O75 C76 1.208 . S
C76 O74 1.247 . S
C76 O75 1.208 . S
C77 O82 1.247 . S
C77 O83 1.208 . S
C78 O70 1.315 . S
C78 O73 1.279 . S
C79 O80 1.315 . S
C79 O81 1.279 . S
O80 Cd72 2.223 . S
O80 C79 1.315 . S
O81 Cd71 2.240 . S
O81 C79 1.279 . S
O82 Cd72 2.297 . S
O82 C77 1.247 . S
O83 Cd72 2.439 . S
O83 C77 1.208 . S
O84 Cd85 2.223 . S
O84 C92 1.315 . S
Cd85 O84 2.223 . S
Cd85 O88 2.297 . S
Cd85 O89 2.439 . S
Cd85 O95 2.240 . S
Cd86 O87 2.240 . S
Cd86 O94 2.223 . S
Cd86 O96 2.297 . S
Cd86 O97 2.439 . S
O87 Cd86 2.240 . S
O87 C92 1.279 . S
O88 Cd85 2.297 . S
O88 C90 1.247 . S
O89 Cd85 2.439 . S
O89 C90 1.208 . S
C90 O88 1.247 . S
C90 O89 1.208 . S
C91 O96 1.247 . S
C91 O97 1.208 . S
C92 O84 1.315 . S
C92 O87 1.279 . S
C93 O94 1.315 . S
C93 O95 1.279 . S
O94 Cd86 2.223 . S
O94 C93 1.315 . S
O95 Cd85 2.240 . S
O95 C93 1.279 . S
O96 Cd86 2.297 . S
O96 C91 1.247 . S
O97 Cd86 2.439 . S
O97 C91 1.208 . S
O98 Cd99 2.223 . S
O98 C106 1.315 . S
Cd99 O98 2.223 . S
Cd99 O102 2.297 . S
Cd99 O103 2.439 . S
Cd99 O109 2.240 . S
Cd100 O101 2.240 . S
Cd100 O108 2.223 . S
Cd100 O110 2.297 1_556 S
Cd100 O111 2.439 1_556 S
O101 Cd100 2.240 . S
O101 C106 1.279 . S
O102 Cd99 2.297 . S
O102 C104 1.247 . S
O103 Cd99 2.439 . S
O103 C104 1.208 . S
C104 O102 1.247 . S
C104 O103 1.208 . S
C105 O110 1.247 . S
C105 O111 1.208 . S
C106 O98 1.315 . S
C106 O101 1.279 . S
C107 O108 1.315 . S
C107 O109 1.279 . S
O108 Cd100 2.223 . S
O108 C107 1.315 . S
O109 Cd99 2.240 . S
O109 C107 1.279 . S
O110 Cd100 2.297 1_554 S
O110 C105 1.247 . S
O111 Cd100 2.439 1_554 S
O111 C105 1.208 . S
O112 Cd113 2.223 . S
O112 C120 1.315 . S
Cd113 O112 2.223 . S
Cd113 O116 2.297 . S
Cd113 O117 2.439 . S
Cd113 O123 2.240 . S
Cd114 O115 2.240 . S
Cd114 O122 2.223 . S
Cd114 O124 2.297 . S
Cd114 O125 2.439 . S
O115 Cd114 2.240 . S
O115 C120 1.279 . S
O116 Cd113 2.297 . S
O116 C118 1.247 . S
O117 Cd113 2.439 . S
O117 C118 1.208 . S
C118 O116 1.247 . S
C118 O117 1.208 . S
C119 O124 1.247 . S
C119 O125 1.208 . S
C120 O112 1.315 . S
C120 O115 1.279 . S
C121 O122 1.315 . S
C121 O123 1.279 . S
O122 Cd114 2.223 . S
O122 C121 1.315 . S
O123 Cd113 2.240 . S
O123 C121 1.279 . S
O124 Cd114 2.297 . S
O124 C119 1.247 . S
O125 Cd114 2.439 . S
O125 C119 1.208 . S
O126 Cd127 2.223 . S
O126 C134 1.315 . S
Cd127 O126 2.223 . S
Cd127 O130 2.297 . S
Cd127 O131 2.439 . S
Cd127 O137 2.240 . S
Cd128 O129 2.240 . S
Cd128 O136 2.223 . S
Cd128 O138 2.297 . S
Cd128 O139 2.439 . S
O129 Cd128 2.240 . S
O129 C134 1.279 . S
O130 Cd127 2.297 . S
O130 C132 1.247 . S
O131 Cd127 2.439 . S
O131 C132 1.208 . S
C132 O130 1.247 . S
C132 O131 1.208 . S
C133 O138 1.247 . S
C133 O139 1.208 . S
C134 O126 1.315 . S
C134 O129 1.279 . S
C135 O136 1.315 . S
C135 O137 1.279 . S
O136 Cd128 2.223 . S
O136 C135 1.315 . S
O137 Cd127 2.240 . S
O137 C135 1.279 . S
O138 Cd128 2.297 . S
O138 C133 1.247 . S
O139 Cd128 2.439 . S
O139 C133 1.208 . S
O140 Cd141 2.223 . S
O140 C148 1.315 . S
Cd141 O140 2.223 . S
Cd141 O144 2.297 . S
Cd141 O145 2.439 . S
Cd141 O151 2.240 . S
Cd142 O143 2.240 . S
Cd142 O150 2.223 . S
Cd142 O152 2.297 . S
Cd142 O153 2.439 . S
O143 Cd142 2.240 . S
O143 C148 1.279 . S
O144 Cd141 2.297 . S
O144 C146 1.247 . S
O145 Cd141 2.439 . S
O145 C146 1.208 . S
C146 O144 1.247 . S
C146 O145 1.208 . S
C147 O152 1.247 . S
C147 O153 1.208 . S
C148 O140 1.315 . S
C148 O143 1.279 . S
C149 O150 1.315 . S
C149 O151 1.279 . S
O150 Cd142 2.223 . S
O150 C149 1.315 . S
O151 Cd141 2.240 . S
O151 C149 1.279 . S
O152 Cd142 2.297 . S
O152 C147 1.247 . S
O153 Cd142 2.439 . S
O153 C147 1.208 . S
O154 Cd155 2.223 . S
O154 C162 1.315 . S
Cd155 O154 2.223 . S
Cd155 O158 2.297 . S
Cd155 O159 2.439 . S
Cd155 O165 2.240 . S
Cd156 O157 2.240 . S
Cd156 O164 2.223 . S
Cd156 O166 2.297 1_556 S
Cd156 O167 2.439 1_556 S
O157 Cd156 2.240 . S
O157 C162 1.279 . S
O158 Cd155 2.297 . S
O158 C160 1.247 . S
O159 Cd155 2.439 . S
O159 C160 1.208 . S
C160 O158 1.247 . S
C160 O159 1.208 . S
C161 O166 1.247 . S
C161 O167 1.208 . S
C162 O154 1.315 . S
C162 O157 1.279 . S
C163 O164 1.315 . S
C163 O165 1.279 . S
O164 Cd156 2.223 . S
O164 C163 1.315 . S
O165 Cd155 2.240 . S
O165 C163 1.279 . S
O166 Cd156 2.297 1_554 S
O166 C161 1.247 . S
O167 Cd156 2.439 1_554 S
O167 C161 1.208 . S
O168 Cd169 2.223 . S
O168 C176 1.315 . S
Cd169 O168 2.223 . S
Cd169 O172 2.297 . S
Cd169 O173 2.439 . S
Cd169 O179 2.240 . S
Cd170 O171 2.240 . S
Cd170 O178 2.223 . S
Cd170 O180 2.297 . S
Cd170 O181 2.439 . S
O171 Cd170 2.240 . S
O171 C176 1.279 . S
O172 Cd169 2.297 . S
O172 C174 1.247 . S
O173 Cd169 2.439 . S
O173 C174 1.208 . S
C174 O172 1.247 . S
C174 O173 1.208 . S
C175 O180 1.247 . S
C175 O181 1.208 . S
C176 O168 1.315 . S
C176 O171 1.279 . S
C177 O178 1.315 . S
C177 O179 1.279 . S
O178 Cd170 2.223 . S
O178 C177 1.315 . S
O179 Cd169 2.240 . S
O179 C177 1.279 . S
O180 Cd170 2.297 . S
O180 C175 1.247 . S
O181 Cd170 2.439 . S
O181 C175 1.208 . S
O182 Cd183 2.223 . S
O182 C190 1.315 . S
Cd183 O182 2.223 . S
Cd183 O186 2.297 . S
Cd183 O187 2.439 . S
Cd183 O193 2.240 . S
Cd184 O185 2.240 . S
Cd184 O192 2.223 . S
Cd184 O194 2.297 . S
Cd184 O195 2.439 . S
O185 Cd184 2.240 . S
O185 C190 1.279 . S
O186 Cd183 2.297 . S
O186 C188 1.247 . S
O187 Cd183 2.439 . S
O187 C188 1.208 . S
C188 O186 1.247 . S
C188 O187 1.208 . S
C189 O194 1.247 . S
C189 O195 1.208 . S
C190 O182 1.315 . S
C190 O185 1.279 . S
C191 O192 1.315 . S
C191 O193 1.279 . S
O192 Cd184 2.223 . S
O192 C191 1.315 . S
O193 Cd183 2.240 . S
O193 C191 1.279 . S
O194 Cd184 2.297 . S
O194 C189 1.247 . S
O195 Cd184 2.439 . S
O195 C189 1.208 . S
O196 Cd197 2.223 . S
O196 C204 1.315 . S
Cd197 O196 2.223 . S
Cd197 O200 2.297 . S
Cd197 O201 2.439 . S
Cd197 O207 2.240 . S
Cd198 O199 2.240 . S
Cd198 O206 2.223 . S
Cd198 O208 2.297 . S
Cd198 O209 2.439 . S
O199 Cd198 2.240 . S
O199 C204 1.279 . S
O200 Cd197 2.297 . S
O200 C202 1.247 . S
O201 Cd197 2.439 . S
O201 C202 1.208 . S
C202 O200 1.247 . S
C202 O201 1.208 . S
C203 O208 1.247 . S
C203 O209 1.208 . S
C204 O196 1.315 . S
C204 O199 1.279 . S
C205 O206 1.315 . S
C205 O207 1.279 . S
O206 Cd198 2.223 . S
O206 C205 1.315 . S
O207 Cd197 2.240 . S
O207 C205 1.279 . S
O208 Cd198 2.297 . S
O208 C203 1.247 . S
O209 Cd198 2.439 . S
O209 C203 1.208 . S
O210 Cd211 2.223 . S
O210 C218 1.315 . S
Cd211 O210 2.223 . S
Cd211 O214 2.297 . S
Cd211 O215 2.439 . S
Cd211 O221 2.240 . S
Cd212 O213 2.240 . S
Cd212 O220 2.223 . S
Cd212 O222 2.297 1_554 S
Cd212 O223 2.439 1_554 S
O213 Cd212 2.240 . S
O213 C218 1.279 . S
O214 Cd211 2.297 . S
O214 C216 1.247 . S
O215 Cd211 2.439 . S
O215 C216 1.208 . S
C216 O214 1.247 . S
C216 O215 1.208 . S
C217 O222 1.247 . S
C217 O223 1.208 . S
C218 O210 1.315 . S
C218 O213 1.279 . S
C219 O220 1.315 . S
C219 O221 1.279 . S
O220 Cd212 2.223 . S
O220 C219 1.315 . S
O221 Cd211 2.240 . S
O221 C219 1.279 . S
O222 Cd212 2.297 1_556 S
O222 C217 1.247 . S
O223 Cd212 2.439 1_556 S
O223 C217 1.208 . S
O224 Cd225 2.223 . S
O224 C232 1.315 . S
Cd225 O224 2.223 . S
Cd225 O228 2.297 . S
Cd225 O229 2.439 . S
Cd225 O235 2.240 . S
Cd226 O227 2.240 . S
Cd226 O234 2.223 . S
Cd226 O236 2.297 . S
Cd226 O237 2.439 . S
O227 Cd226 2.240 . S
O227 C232 1.279 . S
O228 Cd225 2.297 . S
O228 C230 1.247 . S
O229 Cd225 2.439 . S
O229 C230 1.208 . S
C230 O228 1.247 . S
C230 O229 1.208 . S
C231 O236 1.247 . S
C231 O237 1.208 . S
C232 O224 1.315 . S
C232 O227 1.279 . S
C233 O234 1.315 . S
C233 O235 1.279 . S
O234 Cd226 2.223 . S
O234 C233 1.315 . S
O235 Cd225 2.240 . S
O235 C233 1.279 . S
O236 Cd226 2.297 . S
O236 C231 1.247 . S
O237 Cd226 2.439 . S
O237 C231 1.208 . S
O238 Cd239 2.223 . S
O238 C246 1.315 . S
Cd239 O238 2.223 . S
Cd239 O242 2.297 . S
Cd239 O243 2.439 . S
Cd239 O249 2.240 . S
Cd240 O241 2.240 . S
Cd240 O248 2.223 . S
Cd240 O250 2.297 1_554 S
Cd240 O251 2.439 1_554 S
O241 Cd240 2.240 . S
O241 C246 1.279 . S
O242 Cd239 2.297 . S
O242 C244 1.247 . S
O243 Cd239 2.439 . S
O243 C244 1.208 . S
C244 O242 1.247 . S
C244 O243 1.208 . S
C245 O250 1.247 . S
C245 O251 1.208 . S
C246 O238 1.315 . S
C246 O241 1.279 . S
C247 O248 1.315 . S
C247 O249 1.279 . S
O248 Cd240 2.223 . S
O248 C247 1.315 . S
O249 Cd239 2.240 . S
O249 C247 1.279 . S
O250 Cd240 2.297 1_556 S
O250 C245 1.247 . S
O251 Cd240 2.439 1_556 S
O251 C245 1.208 . S
O252 Cd253 2.223 . S
O252 C260 1.315 . S
Cd253 O252 2.223 . S
Cd253 O256 2.297 . S
Cd253 O257 2.439 . S
Cd253 O263 2.240 . S
Cd254 O255 2.240 . S
Cd254 O262 2.223 . S
Cd254 O264 2.297 . S
Cd254 O265 2.439 . S
O255 Cd254 2.240 . S
O255 C260 1.279 . S
O256 Cd253 2.297 . S
O256 C258 1.247 . S
O257 Cd253 2.439 . S
O257 C258 1.208 . S
C258 O256 1.247 . S
C258 O257 1.208 . S
C259 O264 1.247 . S
C259 O265 1.208 . S
C260 O252 1.315 . S
C260 O255 1.279 . S
C261 O262 1.315 . S
C261 O263 1.279 . S
O262 Cd254 2.223 . S
O262 C261 1.315 . S
O263 Cd253 2.240 . S
O263 C261 1.279 . S
O264 Cd254 2.297 . S
O264 C259 1.247 . S
O265 Cd254 2.439 . S
O265 C259 1.208 . S
O266 Cd267 2.223 . S
O266 C274 1.315 . S
Cd267 O266 2.223 . S
Cd267 O270 2.297 . S
Cd267 O271 2.439 . S
Cd267 O277 2.240 . S
Cd268 O269 2.240 . S
Cd268 O276 2.223 . S
Cd268 O278 2.297 . S
Cd268 O279 2.439 . S
O269 Cd268 2.240 . S
O269 C274 1.279 . S
O270 Cd267 2.297 . S
O270 C272 1.247 . S
O271 Cd267 2.439 . S
O271 C272 1.208 . S
C272 O270 1.247 . S
C272 O271 1.208 . S
C273 O278 1.247 . S
C273 O279 1.208 . S
C274 O266 1.315 . S
C274 O269 1.279 . S
C275 O276 1.315 . S
C275 O277 1.279 . S
O276 Cd268 2.223 . S
O276 C275 1.315 . S
O277 Cd267 2.240 . S
O277 C275 1.279 . S
O278 Cd268 2.297 . S
O278 C273 1.247 . S
O279 Cd268 2.439 . S
O279 C273 1.208 . S
O280 Cd281 2.223 . S
O280 C288 1.315 . S
Cd281 O280 2.223 . S
Cd281 O284 2.297 . S
Cd281 O285 2.439 . S
Cd281 O291 2.240 . S
Cd282 O283 2.240 . S
Cd282 O290 2.223 . S
Cd282 O292 2.297 . S
Cd282 O293 2.439 . S
O283 Cd282 2.240 . S
O283 C288 1.279 . S
O284 Cd281 2.297 . S
O284 C286 1.247 . S
O285 Cd281 2.439 . S
O285 C286 1.208 . S
C286 O284 1.247 . S
C286 O285 1.208 . S
C287 O292 1.247 . S
C287 O293 1.208 . S
C288 O280 1.315 . S
C288 O283 1.279 . S
C289 O290 1.315 . S
C289 O291 1.279 . S
O290 Cd282 2.223 . S
O290 C289 1.315 . S
O291 Cd281 2.240 . S
O291 C289 1.279 . S
O292 Cd282 2.297 . S
O292 C287 1.247 . S
O293 Cd282 2.439 . S
O293 C287 1.208 . S
O294 Cd295 2.223 . S
O294 C302 1.315 . S
Cd295 O294 2.223 . S
Cd295 O298 2.297 . S
Cd295 O299 2.439 . S
Cd295 O305 2.240 . S
Cd296 O297 2.240 . S
Cd296 O304 2.223 . S
Cd296 O306 2.297 1_556 S
Cd296 O307 2.439 1_556 S
O297 Cd296 2.240 . S
O297 C302 1.279 . S
O298 Cd295 2.297 . S
O298 C300 1.247 . S
O299 Cd295 2.439 . S
O299 C300 1.208 . S
C300 O298 1.247 . S
C300 O299 1.208 . S
C301 O306 1.247 . S
C301 O307 1.208 . S
C302 O294 1.315 . S
C302 O297 1.279 . S
C303 O304 1.315 . S
C303 O305 1.279 . S
O304 Cd296 2.223 . S
O304 C303 1.315 . S
O305 Cd295 2.240 . S
O305 C303 1.279 . S
O306 Cd296 2.297 1_554 S
O306 C301 1.247 . S
O307 Cd296 2.439 1_554 S
O307 C301 1.208 . S
O308 Cd309 2.223 . S
O308 C316 1.315 . S
Cd309 O308 2.223 . S
Cd309 O312 2.297 . S
Cd309 O313 2.439 . S
Cd309 O319 2.240 . S
Cd310 O311 2.240 . S
Cd310 O318 2.223 . S
Cd310 O320 2.297 . S
Cd310 O321 2.439 . S
O311 Cd310 2.240 . S
O311 C316 1.279 . S
O312 Cd309 2.297 . S
O312 C314 1.247 . S
O313 Cd309 2.439 . S
O313 C314 1.208 . S
C314 O312 1.247 . S
C314 O313 1.208 . S
C315 O320 1.247 . S
C315 O321 1.208 . S
C316 O308 1.315 . S
C316 O311 1.279 . S
C317 O318 1.315 . S
C317 O319 1.279 . S
O318 Cd310 2.223 . S
O318 C317 1.315 . S
O319 Cd309 2.240 . S
O319 C317 1.279 . S
O320 Cd310 2.297 . S
O320 C315 1.247 . S
O321 Cd310 2.439 . S
O321 C315 1.208 . S
O322 Cd323 2.223 . S
O322 C330 1.315 . S
Cd323 O322 2.223 . S
Cd323 O326 2.297 . S
Cd323 O327 2.439 . S
Cd323 O333 2.240 . S
Cd324 O325 2.240 . S
Cd324 O332 2.223 . S
Cd324 O334 2.297 . S
Cd324 O335 2.439 . S
O325 Cd324 2.240 . S
O325 C330 1.279 . S
O326 Cd323 2.297 . S
O326 C328 1.247 . S
O327 Cd323 2.439 . S
O327 C328 1.208 . S
C328 O326 1.247 . S
C328 O327 1.208 . S
C329 O334 1.247 . S
C329 O335 1.208 . S
C330 O322 1.315 . S
C330 O325 1.279 . S
C331 O332 1.315 . S
C331 O333 1.279 . S
O332 Cd324 2.223 . S
O332 C331 1.315 . S
O333 Cd323 2.240 . S
O333 C331 1.279 . S
O334 Cd324 2.297 . S
O334 C329 1.247 . S
O335 Cd324 2.439 . S
O335 C329 1.208 . S
O336 Cd337 2.223 . S
O336 C344 1.315 . S
Cd337 O336 2.223 . S
Cd337 O340 2.297 . S
Cd337 O341 2.439 . S
Cd337 O347 2.240 . S
Cd338 O339 2.240 . S
Cd338 O346 2.223 . S
Cd338 O348 2.297 . S
Cd338 O349 2.439 . S
O339 Cd338 2.240 . S
O339 C344 1.279 . S
O340 Cd337 2.297 . S
O340 C342 1.247 . S
O341 Cd337 2.439 . S
O341 C342 1.208 . S
C342 O340 1.247 . S
C342 O341 1.208 . S
C343 O348 1.247 . S
C343 O349 1.208 . S
C344 O336 1.315 . S
C344 O339 1.279 . S
C345 O346 1.315 . S
C345 O347 1.279 . S
O346 Cd338 2.223 . S
O346 C345 1.315 . S
O347 Cd337 2.240 . S
O347 C345 1.279 . S
O348 Cd338 2.297 . S
O348 C343 1.247 . S
O349 Cd338 2.439 . S
O349 C343 1.208 . S
O350 Cd351 2.223 . S
O350 C358 1.315 . S
Cd351 O350 2.223 . S
Cd351 O354 2.297 . S
Cd351 O355 2.439 . S
Cd351 O361 2.240 . S
Cd352 O353 2.240 . S
Cd352 O360 2.223 . S
Cd352 O362 2.297 1_556 S
Cd352 O363 2.439 1_556 S
O353 Cd352 2.240 . S
O353 C358 1.279 . S
O354 Cd351 2.297 . S
O354 C356 1.247 . S
O355 Cd351 2.439 . S
O355 C356 1.208 . S
C356 O354 1.247 . S
C356 O355 1.208 . S
C357 O362 1.247 . S
C357 O363 1.208 . S
C358 O350 1.315 . S
C358 O353 1.279 . S
C359 O360 1.315 . S
C359 O361 1.279 . S
O360 Cd352 2.223 . S
O360 C359 1.315 . S
O361 Cd351 2.240 . S
O361 C359 1.279 . S
O362 Cd352 2.297 1_554 S
O362 C357 1.247 . S
O363 Cd352 2.439 1_554 S
O363 C357 1.208 . S
O364 Cd365 2.223 . S
O364 C372 1.315 . S
Cd365 O364 2.223 . S
Cd365 O368 2.297 . S
Cd365 O369 2.439 . S
Cd365 O375 2.240 . S
Cd366 O367 2.240 . S
Cd366 O374 2.223 . S
Cd366 O376 2.297 . S
Cd366 O377 2.439 . S
O367 Cd366 2.240 . S
O367 C372 1.279 . S
O368 Cd365 2.297 . S
O368 C370 1.247 . S
O369 Cd365 2.439 . S
O369 C370 1.208 . S
C370 O368 1.247 . S
C370 O369 1.208 . S
C371 O376 1.247 . S
C371 O377 1.208 . S
C372 O364 1.315 . S
C372 O367 1.279 . S
C373 O374 1.315 . S
C373 O375 1.279 . S
O374 Cd366 2.223 . S
O374 C373 1.315 . S
O375 Cd365 2.240 . S
O375 C373 1.279 . S
O376 Cd366 2.297 . S
O376 C371 1.247 . S
O377 Cd366 2.439 . S
O377 C371 1.208 . S
O378 Cd379 2.223 . S
O378 C386 1.315 . S
Cd379 O378 2.223 . S
Cd379 O382 2.297 . S
Cd379 O383 2.439 . S
Cd379 O389 2.240 . S
Cd380 O381 2.240 . S
Cd380 O388 2.223 . S
Cd380 O390 2.297 . S
Cd380 O391 2.439 . S
O381 Cd380 2.240 . S
O381 C386 1.279 . S
O382 Cd379 2.297 . S
O382 C384 1.247 . S
O383 Cd379 2.439 . S
O383 C384 1.208 . S
C384 O382 1.247 . S
C384 O383 1.208 . S
C385 O390 1.247 . S
C385 O391 1.208 . S
C386 O378 1.315 . S
C386 O381 1.279 . S
C387 O388 1.315 . S
C387 O389 1.279 . S
O388 Cd380 2.223 . S
O388 C387 1.315 . S
O389 Cd379 2.240 . S
O389 C387 1.279 . S
O390 Cd380 2.297 . S
O390 C385 1.247 . S
O391 Cd380 2.439 . S
O391 C385 1.208 . S
O392 Cd393 2.223 . S
O392 C400 1.315 . S
Cd393 O392 2.223 . S
Cd393 O396 2.297 . S
Cd393 O397 2.439 . S
Cd393 O403 2.240 . S
Cd394 O395 2.240 . S
Cd394 O402 2.223 . S
Cd394 O404 2.297 . S
Cd394 O405 2.439 . S
O395 Cd394 2.240 . S
O395 C400 1.279 . S
O396 Cd393 2.297 . S
O396 C398 1.247 . S
O397 Cd393 2.439 . S
O397 C398 1.208 . S
C398 O396 1.247 . S
C398 O397 1.208 . S
C399 O404 1.247 . S
C399 O405 1.208 . S
C400 O392 1.315 . S
C400 O395 1.279 . S
C401 O402 1.315 . S
C401 O403 1.279 . S
O402 Cd394 2.223 . S
O402 C401 1.315 . S
O403 Cd393 2.240 . S
O403 C401 1.279 . S
O404 Cd394 2.297 . S
O404 C399 1.247 . S
O405 Cd394 2.439 . S
O405 C399 1.208 . S
O406 Cd407 2.223 . S
O406 C414 1.315 . S
Cd407 O406 2.223 . S
Cd407 O410 2.297 . S
Cd407 O411 2.439 . S
Cd407 O417 2.240 . S
Cd408 O409 2.240 . S
Cd408 O416 2.223 . S
Cd408 O418 2.297 1_554 S
Cd408 O419 2.439 1_554 S
O409 Cd408 2.240 . S
O409 C414 1.279 . S
O410 Cd407 2.297 . S
O410 C412 1.247 . S
O411 Cd407 2.439 . S
O411 C412 1.208 . S
C412 O410 1.247 . S
C412 O411 1.208 . S
C413 O418 1.247 . S
C413 O419 1.208 . S
C414 O406 1.315 . S
C414 O409 1.279 . S
C415 O416 1.315 . S
C415 O417 1.279 . S
O416 Cd408 2.223 . S
O416 C415 1.315 . S
O417 Cd407 2.240 . S
O417 C415 1.279 . S
O418 Cd408 2.297 1_556 S
O418 C413 1.247 . S
O419 Cd408 2.439 1_556 S
O419 C413 1.208 . S
O420 Cd421 2.223 . S
O420 C428 1.315 . S
Cd421 O420 2.223 . S
Cd421 O424 2.297 . S
Cd421 O425 2.439 . S
Cd421 O431 2.240 . S
Cd422 O423 2.240 . S
Cd422 O430 2.223 . S
Cd422 O432 2.297 . S
Cd422 O433 2.439 . S
O423 Cd422 2.240 . S
O423 C428 1.279 . S
O424 Cd421 2.297 . S
O424 C426 1.247 . S
O425 Cd421 2.439 . S
O425 C426 1.208 . S
C426 O424 1.247 . S
C426 O425 1.208 . S
C427 O432 1.247 . S
C427 O433 1.208 . S
C428 O420 1.315 . S
C428 O423 1.279 . S
C429 O430 1.315 . S
C429 O431 1.279 . S
O430 Cd422 2.223 . S
O430 C429 1.315 . S
O431 Cd421 2.240 . S
O431 C429 1.279 . S
O432 Cd422 2.297 . S
O432 C427 1.247 . S
O433 Cd422 2.439 . S
O433 C427 1.208 . S
O434 Cd435 2.223 . S
O434 C442 1.315 . S
Cd435 O434 2.223 . S
Cd435 O438 2.297 . S
Cd435 O439 2.439 . S
Cd435 O445 2.240 . S
Cd436 O437 2.240 . S
Cd436 O444 2.223 . S
Cd436 O446 2.297 . S
Cd436 O447 2.439 . S
O437 Cd436 2.240 . S
O437 C442 1.279 . S
O438 Cd435 2.297 . S
O438 C440 1.247 . S
O439 Cd435 2.439 . S
O439 C440 1.208 . S
C440 O438 1.247 . S
C440 O439 1.208 . S
C441 O446 1.247 . S
C441 O447 1.208 . S
C442 O434 1.315 . S
C442 O437 1.279 . S
C443 O444 1.315 . S
C443 O445 1.279 . S
O444 Cd436 2.223 . S
O444 C443 1.315 . S
O445 Cd435 2.240 . S
O445 C443 1.279 . S
O446 Cd436 2.297 . S
O446 C441 1.247 . S
O447 Cd436 2.439 . S
O447 C441 1.208 . S
H448 C456 0.950 . S
H449 C461 0.950 . S
H450 C458 0.950 . S
H451 C460 0.950 . S
H452 C462 0.950 . S
H453 C464 0.950 . S
H454 C466 0.950 . S
H455 C467 0.950 . S
C456 H448 0.950 . S
C456 C457 1.386 . S
C456 C458 1.391 . S
C457 C456 1.386 . S
C457 C461 1.393 . S
C458 H450 0.950 . S
C458 C456 1.391 . S
C458 C459 1.400 . S
C459 C458 1.400 . S
C459 C460 1.398 . S
C459 C465 1.491 . S
C460 H451 0.950 . S
C460 C459 1.398 . S
C460 C461 1.391 . S
C461 H449 0.950 . S
C461 C457 1.393 . S
C461 C460 1.391 . S
C462 H452 0.950 . S
C462 C463 1.386 . S
C462 C464 1.391 . S
C463 C462 1.386 . S
C463 C467 1.393 . S
C464 H453 0.950 . S
C464 C462 1.391 . S
C464 C465 1.400 . S
C465 C459 1.491 . S
C465 C464 1.400 . S
C465 C466 1.398 . S
C466 H454 0.950 . S
C466 C465 1.398 . S
C466 C467 1.391 . S
C467 H455 0.950 . S
C467 C463 1.393 . S
C467 C466 1.391 . S
H468 C476 0.950 1_655 S
H469 C481 0.950 . S
H470 C478 0.950 . S
H471 C480 0.950 . S
H472 C482 0.950 . S
H473 C484 0.950 . S
H474 C486 0.950 . S
H475 C487 0.950 . S
C476 H468 0.950 1_455 S
C476 C477 1.386 . S
C476 C478 1.391 . S
C477 C476 1.386 . S
C477 C481 1.393 . S
C478 H470 0.950 . S
C478 C476 1.391 . S
C478 C479 1.400 . S
C479 C478 1.400 . S
C479 C480 1.398 . S
C479 C485 1.491 . S
C480 H471 0.950 . S
C480 C479 1.398 . S
C480 C481 1.391 . S
C481 H469 0.950 . S
C481 C477 1.393 . S
C481 C480 1.391 . S
C482 H472 0.950 . S
C482 C483 1.386 . S
C482 C484 1.391 . S
C483 C482 1.386 . S
C483 C487 1.393 . S
C484 H473 0.950 . S
C484 C482 1.391 . S
C484 C485 1.400 . S
C485 C479 1.491 . S
C485 C484 1.400 . S
C485 C486 1.398 . S
C486 H474 0.950 . S
C486 C485 1.398 . S
C486 C487 1.391 . S
C487 H475 0.950 . S
C487 C483 1.393 . S
C487 C486 1.391 . S
H488 C496 0.950 . S
H489 C501 0.950 . S
H490 C498 0.950 . S
H491 C500 0.950 . S
H492 C502 0.950 . S
H493 C504 0.950 . S
H494 C506 0.950 . S
H495 C507 0.950 . S
C496 H488 0.950 . S
C496 C497 1.386 . S
C496 C498 1.391 . S
C497 C496 1.386 . S
C497 C501 1.393 . S
C498 H490 0.950 . S
C498 C496 1.391 . S
C498 C499 1.400 . S
C499 C498 1.400 . S
C499 C500 1.398 . S
C499 C505 1.491 . S
C500 H491 0.950 . S
C500 C499 1.398 . S
C500 C501 1.391 . S
C501 H489 0.950 . S
C501 C497 1.393 . S
C501 C500 1.391 . S
C502 H492 0.950 . S
C502 C503 1.386 . S
C502 C504 1.391 . S
C503 C502 1.386 . S
C503 C507 1.393 . S
C504 H493 0.950 . S
C504 C502 1.391 . S
C504 C505 1.400 . S
C505 C499 1.491 . S
C505 C504 1.400 . S
C505 C506 1.398 . S
C506 H494 0.950 . S
C506 C505 1.398 . S
C506 C507 1.391 . S
C507 H495 0.950 . S
C507 C503 1.393 . S
C507 C506 1.391 . S
H508 C516 0.950 . S
H509 C521 0.950 . S
H510 C518 0.950 . S
H511 C520 0.950 . S
H512 C522 0.950 . S
H513 C524 0.950 . S
H514 C526 0.950 . S
H515 C527 0.950 . S
C516 H508 0.950 . S
C516 C517 1.386 . S
C516 C518 1.391 . S
C517 C516 1.386 . S
C517 C521 1.393 . S
C518 H510 0.950 . S
C518 C516 1.391 . S
C518 C519 1.400 . S
C519 C518 1.400 . S
C519 C520 1.398 . S
C519 C525 1.491 . S
C520 H511 0.950 . S
C520 C519 1.398 . S
C520 C521 1.391 . S
C521 H509 0.950 . S
C521 C517 1.393 . S
C521 C520 1.391 . S
C522 H512 0.950 . S
C522 C523 1.386 . S
C522 C524 1.391 . S
C523 C522 1.386 . S
C523 C527 1.393 . S
C524 H513 0.950 . S
C524 C522 1.391 . S
C524 C525 1.400 . S
C525 C519 1.491 . S
C525 C524 1.400 . S
C525 C526 1.398 . S
C526 H514 0.950 . S
C526 C525 1.398 . S
C526 C527 1.391 . S
C527 H515 0.950 . S
C527 C523 1.393 . S
C527 C526 1.391 . S
H528 C536 0.950 . S
H529 C541 0.950 . S
H530 C538 0.950 . S
H531 C540 0.950 . S
H532 C542 0.950 . S
H533 C544 0.950 . S
H534 C546 0.950 . S
H535 C547 0.950 . S
C536 H528 0.950 . S
C536 C537 1.386 . S
C536 C538 1.391 . S
C537 C536 1.386 . S
C537 C541 1.393 . S
C538 H530 0.950 . S
C538 C536 1.391 . S
C538 C539 1.400 . S
C539 C538 1.400 . S
C539 C540 1.398 . S
C539 C545 1.491 . S
C540 H531 0.950 . S
C540 C539 1.398 . S
C540 C541 1.391 . S
C541 H529 0.950 . S
C541 C537 1.393 . S
C541 C540 1.391 . S
C542 H532 0.950 . S
C542 C543 1.386 . S
C542 C544 1.391 . S
C543 C542 1.386 . S
C543 C547 1.393 . S
C544 H533 0.950 . S
C544 C542 1.391 . S
C544 C545 1.400 . S
C545 C539 1.491 . S
C545 C544 1.400 . S
C545 C546 1.398 . S
C546 H534 0.950 . S
C546 C545 1.398 . S
C546 C547 1.391 . S
C547 H535 0.950 . S
C547 C543 1.393 . S
C547 C546 1.391 . S
H548 C556 0.950 . S
H549 C561 0.950 . S
H550 C558 0.950 . S
H551 C560 0.950 . S
H552 C562 0.950 . S
H553 C564 0.950 . S
H554 C566 0.950 . S
H555 C567 0.950 . S
C556 H548 0.950 . S
C556 C557 1.386 . S
C556 C558 1.391 . S
C557 C556 1.386 . S
C557 C561 1.393 . S
C558 H550 0.950 . S
C558 C556 1.391 . S
C558 C559 1.400 . S
C559 C558 1.400 . S
C559 C560 1.398 . S
C559 C565 1.491 . S
C560 H551 0.950 . S
C560 C559 1.398 . S
C560 C561 1.391 . S
C561 H549 0.950 . S
C561 C557 1.393 . S
C561 C560 1.391 . S
C562 H552 0.950 . S
C562 C563 1.386 . S
C562 C564 1.391 . S
C563 C562 1.386 . S
C563 C567 1.393 . S
C564 H553 0.950 . S
C564 C562 1.391 . S
C564 C565 1.400 . S
C565 C559 1.491 . S
C565 C564 1.400 . S
C565 C566 1.398 . S
C566 H554 0.950 . S
C566 C565 1.398 . S
C566 C567 1.391 . S
C567 H555 0.950 . S
C567 C563 1.393 . S
C567 C566 1.391 . S
H568 C576 0.950 . S
H569 C581 0.950 . S
H570 C578 0.950 . S
H571 C580 0.950 . S
H572 C582 0.950 . S
H573 C584 0.950 . S
H574 C586 0.950 . S
H575 C587 0.950 . S
C576 H568 0.950 . S
C576 C577 1.386 . S
C576 C578 1.391 . S
C577 C576 1.386 . S
C577 C581 1.393 . S
C578 H570 0.950 . S
C578 C576 1.391 . S
C578 C579 1.400 . S
C579 C578 1.400 . S
C579 C580 1.398 . S
C579 C585 1.491 . S
C580 H571 0.950 . S
C580 C579 1.398 . S
C580 C581 1.391 . S
C581 H569 0.950 . S
C581 C577 1.393 . S
C581 C580 1.391 . S
C582 H572 0.950 . S
C582 C583 1.386 . S
C582 C584 1.391 . S
C583 C582 1.386 . S
C583 C587 1.393 . S
C584 H573 0.950 . S
C584 C582 1.391 . S
C584 C585 1.400 . S
C585 C579 1.491 . S
C585 C584 1.400 . S
C585 C586 1.398 . S
C586 H574 0.950 . S
C586 C585 1.398 . S
C586 C587 1.391 . S
C587 H575 0.950 . S
C587 C583 1.393 . S
C587 C586 1.391 . S
H588 C596 0.950 . S
H589 C601 0.950 . S
H590 C598 0.950 . S
H591 C600 0.950 . S
H592 C602 0.950 . S
H593 C604 0.950 . S
H594 C606 0.950 . S
H595 C607 0.950 1_655 S
C596 H588 0.950 . S
C596 C597 1.386 . S
C596 C598 1.391 . S
C597 C596 1.386 . S
C597 C601 1.393 . S
C598 H590 0.950 . S
C598 C596 1.391 . S
C598 C599 1.400 . S
C599 C598 1.400 . S
C599 C600 1.398 . S
C599 C605 1.491 . S
C600 H591 0.950 . S
C600 C599 1.398 . S
C600 C601 1.391 . S
C601 H589 0.950 . S
C601 C597 1.393 . S
C601 C600 1.391 . S
C602 H592 0.950 . S
C602 C603 1.386 . S
C602 C604 1.391 . S
C603 C602 1.386 . S
C603 C607 1.393 . S
C604 H593 0.950 . S
C604 C602 1.391 . S
C604 C605 1.400 . S
C605 C599 1.491 . S
C605 C604 1.400 . S
C605 C606 1.398 . S
C606 H594 0.950 . S
C606 C605 1.398 . S
C606 C607 1.391 . S
C607 H595 0.950 1_455 S
C607 C603 1.393 . S
C607 C606 1.391 . S
H608 C616 0.950 . S
H609 C621 0.950 . S
H610 C618 0.950 . S
H611 C620 0.950 . S
H612 C622 0.950 . S
H613 C624 0.950 . S
H614 C626 0.950 . S
H615 C627 0.950 . S
C616 H608 0.950 . S
C616 C617 1.386 . S
C616 C618 1.391 . S
C617 C616 1.386 . S
C617 C621 1.393 . S
C618 H610 0.950 . S
C618 C616 1.391 . S
C618 C619 1.400 . S
C619 C618 1.400 . S
C619 C620 1.398 . S
C619 C625 1.491 . S
C620 H611 0.950 . S
C620 C619 1.398 . S
C620 C621 1.391 . S
C621 H609 0.950 . S
C621 C617 1.393 . S
C621 C620 1.391 . S
C622 H612 0.950 . S
C622 C623 1.386 . S
C622 C624 1.391 . S
C623 C622 1.386 . S
C623 C627 1.393 . S
C624 H613 0.950 . S
C624 C622 1.391 . S
C624 C625 1.400 . S
C625 C619 1.491 . S
C625 C624 1.400 . S
C625 C626 1.398 . S
C626 H614 0.950 . S
C626 C625 1.398 . S
C626 C627 1.391 . S
C627 H615 0.950 . S
C627 C623 1.393 . S
C627 C626 1.391 . S
H628 C636 0.950 1_455 S
H629 C641 0.950 . S
H630 C638 0.950 . S
H631 C640 0.950 . S
H632 C642 0.950 . S
H633 C644 0.950 . S
H634 C646 0.950 . S
H635 C647 0.950 . S
C636 H628 0.950 1_655 S
C636 C637 1.386 . S
C636 C638 1.391 . S
C637 C636 1.386 . S
C637 C641 1.393 . S
C638 H630 0.950 . S
C638 C636 1.391 . S
C638 C639 1.400 . S
C639 C638 1.400 . S
C639 C640 1.398 . S
C639 C645 1.491 . S
C640 H631 0.950 . S
C640 C639 1.398 . S
C640 C641 1.391 . S
C641 H629 0.950 . S
C641 C637 1.393 . S
C641 C640 1.391 . S
C642 H632 0.950 . S
C642 C643 1.386 . S
C642 C644 1.391 . S
C643 C642 1.386 . S
C643 C647 1.393 . S
C644 H633 0.950 . S
C644 C642 1.391 . S
C644 C645 1.400 . S
C645 C639 1.491 . S
C645 C644 1.400 . S
C645 C646 1.398 . S
C646 H634 0.950 . S
C646 C645 1.398 . S
C646 C647 1.391 . S
C647 H635 0.950 . S
C647 C643 1.393 . S
C647 C646 1.391 . S
H648 C656 0.950 . S
H649 C661 0.950 . S
H650 C658 0.950 . S
H651 C660 0.950 . S
H652 C662 0.950 . S
H653 C664 0.950 . S
H654 C666 0.950 . S
H655 C667 0.950 . S
C656 H648 0.950 . S
C656 C657 1.386 . S
C656 C658 1.391 . S
C657 C656 1.386 . S
C657 C661 1.393 . S
C658 H650 0.950 . S
C658 C656 1.391 . S
C658 C659 1.400 . S
C659 C658 1.400 . S
C659 C660 1.398 . S
C659 C665 1.491 . S
C660 H651 0.950 . S
C660 C659 1.398 . S
C660 C661 1.391 . S
C661 H649 0.950 . S
C661 C657 1.393 . S
C661 C660 1.391 . S
C662 H652 0.950 . S
C662 C663 1.386 . S
C662 C664 1.391 . S
C663 C662 1.386 . S
C663 C667 1.393 . S
C664 H653 0.950 . S
C664 C662 1.391 . S
C664 C665 1.400 . S
C665 C659 1.491 . S
C665 C664 1.400 . S
C665 C666 1.398 . S
C666 H654 0.950 . S
C666 C665 1.398 . S
C666 C667 1.391 . S
C667 H655 0.950 . S
C667 C663 1.393 . S
C667 C666 1.391 . S
H668 C676 0.950 . S
H669 C681 0.950 . S
H670 C678 0.950 . S
H671 C680 0.950 . S
H672 C682 0.950 . S
H673 C684 0.950 . S
H674 C686 0.950 . S
H675 C687 0.950 . S
C676 H668 0.950 . S
C676 C677 1.386 . S
C676 C678 1.391 . S
C677 C676 1.386 . S
C677 C681 1.393 . S
C678 H670 0.950 . S
C678 C676 1.391 . S
C678 C679 1.400 . S
C679 C678 1.400 . S
C679 C680 1.398 . S
C679 C685 1.491 . S
C680 H671 0.950 . S
C680 C679 1.398 . S
C680 C681 1.391 . S
C681 H669 0.950 . S
C681 C677 1.393 . S
C681 C680 1.391 . S
C682 H672 0.950 . S
C682 C683 1.386 . S
C682 C684 1.391 . S
C683 C682 1.386 . S
C683 C687 1.393 . S
C684 H673 0.950 . S
C684 C682 1.391 . S
C684 C685 1.400 . S
C685 C679 1.491 . S
C685 C684 1.400 . S
C685 C686 1.398 . S
C686 H674 0.950 . S
C686 C685 1.398 . S
C686 C687 1.391 . S
C687 H675 0.950 . S
C687 C683 1.393 . S
C687 C686 1.391 . S
H688 C696 0.950 . S
H689 C701 0.950 . S
H690 C698 0.950 . S
H691 C700 0.950 . S
H692 C702 0.950 . S
H693 C704 0.950 . S
H694 C706 0.950 . S
H695 C707 0.950 . S
C696 H688 0.950 . S
C696 C697 1.386 . S
C696 C698 1.391 . S
C697 C696 1.386 . S
C697 C701 1.393 . S
C698 H690 0.950 . S
C698 C696 1.391 . S
C698 C699 1.400 . S
C699 C698 1.400 . S
C699 C700 1.398 . S
C699 C705 1.491 . S
C700 H691 0.950 . S
C700 C699 1.398 . S
C700 C701 1.391 . S
C701 H689 0.950 . S
C701 C697 1.393 . S
C701 C700 1.391 . S
C702 H692 0.950 . S
C702 C703 1.386 . S
C702 C704 1.391 . S
C703 C702 1.386 . S
C703 C707 1.393 . S
C704 H693 0.950 . S
C704 C702 1.391 . S
C704 C705 1.400 . S
C705 C699 1.491 . S
C705 C704 1.400 . S
C705 C706 1.398 . S
C706 H694 0.950 . S
C706 C705 1.398 . S
C706 C707 1.391 . S
C707 H695 0.950 . S
C707 C703 1.393 . S
C707 C706 1.391 . S
H708 C716 0.950 . S
H709 C721 0.950 . S
H710 C718 0.950 . S
H711 C720 0.950 . S
H712 C722 0.950 . S
H713 C724 0.950 . S
H714 C726 0.950 . S
H715 C727 0.950 . S
C716 H708 0.950 . S
C716 C717 1.386 . S
C716 C718 1.391 . S
C717 C716 1.386 . S
C717 C721 1.393 . S
C718 H710 0.950 . S
C718 C716 1.391 . S
C718 C719 1.400 . S
C719 C718 1.400 . S
C719 C720 1.398 . S
C719 C725 1.491 . S
C720 H711 0.950 . S
C720 C719 1.398 . S
C720 C721 1.391 . S
C721 H709 0.950 . S
C721 C717 1.393 . S
C721 C720 1.391 . S
C722 H712 0.950 . S
C722 C723 1.386 . S
C722 C724 1.391 . S
C723 C722 1.386 . S
C723 C727 1.393 . S
C724 H713 0.950 . S
C724 C722 1.391 . S
C724 C725 1.400 . S
C725 C719 1.491 . S
C725 C724 1.400 . S
C725 C726 1.398 . S
C726 H714 0.950 . S
C726 C725 1.398 . S
C726 C727 1.391 . S
C727 H715 0.950 . S
C727 C723 1.393 . S
C727 C726 1.391 . S
H728 C736 0.950 . S
H729 C741 0.950 . S
H730 C738 0.950 . S
H731 C740 0.950 . S
H732 C742 0.950 . S
H733 C744 0.950 . S
H734 C746 0.950 . S
H735 C747 0.950 . S
C736 H728 0.950 . S
C736 C737 1.386 . S
C736 C738 1.391 . S
C737 C736 1.386 . S
C737 C741 1.393 . S
C738 H730 0.950 . S
C738 C736 1.391 . S
C738 C739 1.400 . S
C739 C738 1.400 . S
C739 C740 1.398 . S
C739 C745 1.491 . S
C740 H731 0.950 . S
C740 C739 1.398 . S
C740 C741 1.391 . S
C741 H729 0.950 . S
C741 C737 1.393 . S
C741 C740 1.391 . S
C742 H732 0.950 . S
C742 C743 1.386 . S
C742 C744 1.391 . S
C743 C742 1.386 . S
C743 C747 1.393 . S
C744 H733 0.950 . S
C744 C742 1.391 . S
C744 C745 1.400 . S
C745 C739 1.491 . S
C745 C744 1.400 . S
C745 C746 1.398 . S
C746 H734 0.950 . S
C746 C745 1.398 . S
C746 C747 1.391 . S
C747 H735 0.950 . S
C747 C743 1.393 . S
C747 C746 1.391 . S
H748 C756 0.950 . S
H749 C761 0.950 . S
H750 C758 0.950 . S
H751 C760 0.950 . S
H752 C762 0.950 . S
H753 C764 0.950 . S
H754 C766 0.950 . S
H755 C767 0.950 1_455 S
C756 H748 0.950 . S
C756 C757 1.386 . S
C756 C758 1.391 . S
C757 C756 1.386 . S
C757 C761 1.393 . S
C758 H750 0.950 . S
C758 C756 1.391 . S
C758 C759 1.400 . S
C759 C758 1.400 . S
C759 C760 1.398 . S
C759 C765 1.491 . S
C760 H751 0.950 . S
C760 C759 1.398 . S
C760 C761 1.391 . S
C761 H749 0.950 . S
C761 C757 1.393 . S
C761 C760 1.391 . S
C762 H752 0.950 . S
C762 C763 1.386 . S
C762 C764 1.391 . S
C763 C762 1.386 . S
C763 C767 1.393 . S
C764 H753 0.950 . S
C764 C762 1.391 . S
C764 C765 1.400 . S
C765 C759 1.491 . S
C765 C764 1.400 . S
C765 C766 1.398 . S
C766 H754 0.950 . S
C766 C765 1.398 . S
C766 C767 1.391 . S
C767 H755 0.950 1_655 S
C767 C763 1.393 . S
C767 C766 1.391 . S
H768 C776 0.950 . S
H769 C781 0.950 . S
H770 C778 0.950 . S
H771 C780 0.950 . S
H772 C782 0.950 . S
H773 C784 0.950 . S
H774 C786 0.950 . S
H775 C787 0.950 . S
C776 H768 0.950 . S
C776 C777 1.386 . S
C776 C778 1.391 . S
C777 C776 1.386 . S
C777 C781 1.393 . S
C778 H770 0.950 . S
C778 C776 1.391 . S
C778 C779 1.400 . S
C779 C778 1.400 . S
C779 C780 1.398 . S
C779 C785 1.491 . S
C780 H771 0.950 . S
C780 C779 1.398 . S
C780 C781 1.391 . S
C781 H769 0.950 . S
C781 C777 1.393 . S
C781 C780 1.391 . S
C782 H772 0.950 . S
C782 C783 1.386 . S
C782 C784 1.391 . S
C783 C782 1.386 . S
C783 C787 1.393 . S
C784 H773 0.950 . S
C784 C782 1.391 . S
C784 C785 1.400 . S
C785 C779 1.491 . S
C785 C784 1.400 . S
C785 C786 1.398 . S
C786 H774 0.950 . S
C786 C785 1.398 . S
C786 C787 1.391 . S
C787 H775 0.950 . S
C787 C783 1.393 . S
C787 C786 1.391 . S
H788 C796 0.950 . S
H789 C801 0.950 . S
H790 C798 0.950 . S
H791 C800 0.950 . S
H792 C802 0.950 . S
H793 C804 0.950 . S
H794 C806 0.950 . S
H795 C807 0.950 . S
C796 H788 0.950 . S
C796 C797 1.386 . S
C796 C798 1.391 . S
C797 C796 1.386 . S
C797 C801 1.393 . S
C798 H790 0.950 . S
C798 C796 1.391 . S
C798 C799 1.400 . S
C799 C798 1.400 . S
C799 C800 1.398 . S
C799 C805 1.491 . S
C800 H791 0.950 . S
C800 C799 1.398 . S
C800 C801 1.391 . S
C801 H789 0.950 . S
C801 C797 1.393 . S
C801 C800 1.391 . S
C802 H792 0.950 . S
C802 C803 1.386 . S
C802 C804 1.391 . S
C803 C802 1.386 . S
C803 C807 1.393 . S
C804 H793 0.950 . S
C804 C802 1.391 . S
C804 C805 1.400 . S
C805 C799 1.491 . S
C805 C804 1.400 . S
C805 C806 1.398 . S
C806 H794 0.950 . S
C806 C805 1.398 . S
C806 C807 1.391 . S
C807 H795 0.950 . S
C807 C803 1.393 . S
C807 C806 1.391 . S
H808 C816 0.950 . S
H809 C821 0.950 . S
H810 C818 0.950 . S
H811 C820 0.950 . S
H812 C822 0.950 . S
H813 C824 0.950 . S
H814 C826 0.950 . S
H815 C827 0.950 . S
C816 H808 0.950 . S
C816 C817 1.386 . S
C816 C818 1.391 . S
C817 C816 1.386 . S
C817 C821 1.393 . S
C818 H810 0.950 . S
C818 C816 1.391 . S
C818 C819 1.400 . S
C819 C818 1.400 . S
C819 C820 1.398 . S
C819 C825 1.491 . S
C820 H811 0.950 . S
C820 C819 1.398 . S
C820 C821 1.391 . S
C821 H809 0.950 . S
C821 C817 1.393 . S
C821 C820 1.391 . S
C822 H812 0.950 . S
C822 C823 1.386 . S
C822 C824 1.391 . S
C823 C822 1.386 . S
C823 C827 1.393 . S
C824 H813 0.950 . S
C824 C822 1.391 . S
C824 C825 1.400 . S
C825 C819 1.491 . S
C825 C824 1.400 . S
C825 C826 1.398 . S
C826 H814 0.950 . S
C826 C825 1.398 . S
C826 C827 1.391 . S
C827 H815 0.950 . S
C827 C823 1.393 . S
C827 C826 1.391 . S
H828 C836 0.950 . S
H829 C841 0.950 . S
H830 C838 0.950 . S
H831 C840 0.950 . S
H832 C842 0.950 . S
H833 C844 0.950 . S
H834 C846 0.950 . S
H835 C847 0.950 . S
C836 H828 0.950 . S
C836 C837 1.386 . S
C836 C838 1.391 . S
C837 C836 1.386 . S
C837 C841 1.393 . S
C838 H830 0.950 . S
C838 C836 1.391 . S
C838 C839 1.400 . S
C839 C838 1.400 . S
C839 C840 1.398 . S
C839 C845 1.491 . S
C840 H831 0.950 . S
C840 C839 1.398 . S
C840 C841 1.391 . S
C841 H829 0.950 . S
C841 C837 1.393 . S
C841 C840 1.391 . S
C842 H832 0.950 . S
C842 C843 1.386 . S
C842 C844 1.391 . S
C843 C842 1.386 . S
C843 C847 1.393 . S
C844 H833 0.950 . S
C844 C842 1.391 . S
C844 C845 1.400 . S
C845 C839 1.491 . S
C845 C844 1.400 . S
C845 C846 1.398 . S
C846 H834 0.950 . S
C846 C845 1.398 . S
C846 C847 1.391 . S
C847 H835 0.950 . S
C847 C843 1.393 . S
C847 C846 1.391 . S
H848 C856 0.950 . S
H849 C861 0.950 . S
H850 C858 0.950 . S
H851 C860 0.950 . S
H852 C862 0.950 . S
H853 C864 0.950 . S
H854 C866 0.950 . S
H855 C867 0.950 . S
C856 H848 0.950 . S
C856 C857 1.386 . S
C856 C858 1.391 . S
C857 C856 1.386 . S
C857 C861 1.393 . S
C858 H850 0.950 . S
C858 C856 1.391 . S
C858 C859 1.400 . S
C859 C858 1.400 . S
C859 C860 1.398 . S
C859 C865 1.491 . S
C860 H851 0.950 . S
C860 C859 1.398 . S
C860 C861 1.391 . S
C861 H849 0.950 . S
C861 C857 1.393 . S
C861 C860 1.391 . S
C862 H852 0.950 . S
C862 C863 1.386 . S
C862 C864 1.391 . S
C863 C862 1.386 . S
C863 C867 1.393 . S
C864 H853 0.950 . S
C864 C862 1.391 . S
C864 C865 1.400 . S
C865 C859 1.491 . S
C865 C864 1.400 . S
C865 C866 1.398 . S
C866 H854 0.950 . S
C866 C865 1.398 . S
C866 C867 1.391 . S
C867 H855 0.950 . S
C867 C863 1.393 . S
C867 C866 1.391 . S
H868 C876 0.950 . S
H869 C881 0.950 1_455 S
H870 C878 0.950 . S
H871 C880 0.950 . S
H872 C882 0.950 . S
H873 C884 0.950 . S
H874 C886 0.950 . S
H875 C887 0.950 . S
C876 H868 0.950 . S
C876 C877 1.386 . S
C876 C878 1.391 . S
C877 C876 1.386 . S
C877 C881 1.393 . S
C878 H870 0.950 . S
C878 C876 1.391 . S
C878 C879 1.400 . S
C879 C878 1.400 . S
C879 C880 1.398 . S
C879 C885 1.491 . S
C880 H871 0.950 . S
C880 C879 1.398 . S
C880 C881 1.391 . S
C881 H869 0.950 1_655 S
C881 C877 1.393 . S
C881 C880 1.391 . S
C882 H872 0.950 . S
C882 C883 1.386 . S
C882 C884 1.391 . S
C883 C882 1.386 . S
C883 C887 1.393 . S
C884 H873 0.950 . S
C884 C882 1.391 . S
C884 C885 1.400 . S
C885 C879 1.491 . S
C885 C884 1.400 . S
C885 C886 1.398 . S
C886 H874 0.950 . S
C886 C885 1.398 . S
C886 C887 1.391 . S
C887 H875 0.950 . S
C887 C883 1.393 . S
C887 C886 1.391 . S
H888 C896 0.950 . S
H889 C901 0.950 . S
H890 C898 0.950 . S
H891 C900 0.950 . S
H892 C902 0.950 . S
H893 C904 0.950 . S
H894 C906 0.950 . S
H895 C907 0.950 . S
C896 H888 0.950 . S
C896 C897 1.386 . S
C896 C898 1.391 . S
C897 C896 1.386 . S
C897 C901 1.393 . S
C898 H890 0.950 . S
C898 C896 1.391 . S
C898 C899 1.400 . S
C899 C898 1.400 . S
C899 C900 1.398 . S
C899 C905 1.491 . S
C900 H891 0.950 . S
C900 C899 1.398 . S
C900 C901 1.391 . S
C901 H889 0.950 . S
C901 C897 1.393 . S
C901 C900 1.391 . S
C902 H892 0.950 . S
C902 C903 1.386 . S
C902 C904 1.391 . S
C903 C902 1.386 . S
C903 C907 1.393 . S
C904 H893 0.950 . S
C904 C902 1.391 . S
C904 C905 1.400 . S
C905 C899 1.491 . S
C905 C904 1.400 . S
C905 C906 1.398 . S
C906 H894 0.950 . S
C906 C905 1.398 . S
C906 C907 1.391 . S
C907 H895 0.950 . S
C907 C903 1.393 . S
C907 C906 1.391 . S
H908 C916 0.950 . S
H909 C921 0.950 . S
H910 C918 0.950 . S
H911 C920 0.950 . S
H912 C922 0.950 . S
H913 C924 0.950 . S
H914 C926 0.950 . S
H915 C927 0.950 . S
C916 H908 0.950 . S
C916 C917 1.386 . S
C916 C918 1.391 . S
C917 C916 1.386 . S
C917 C921 1.393 . S
C918 H910 0.950 . S
C918 C916 1.391 . S
C918 C919 1.400 . S
C919 C918 1.400 . S
C919 C920 1.398 . S
C919 C925 1.491 . S
C920 H911 0.950 . S
C920 C919 1.398 . S
C920 C921 1.391 . S
C921 H909 0.950 . S
C921 C917 1.393 . S
C921 C920 1.391 . S
C922 H912 0.950 . S
C922 C923 1.386 . S
C922 C924 1.391 . S
C923 C922 1.386 . S
C923 C927 1.393 . S
C924 H913 0.950 . S
C924 C922 1.391 . S
C924 C925 1.400 . S
C925 C919 1.491 . S
C925 C924 1.400 . S
C925 C926 1.398 . S
C926 H914 0.950 . S
C926 C925 1.398 . S
C926 C927 1.391 . S
C927 H915 0.950 . S
C927 C923 1.393 . S
C927 C926 1.391 . S
H928 C936 0.950 . S
H929 C941 0.950 . S
H930 C938 0.950 . S
H931 C940 0.950 . S
H932 C942 0.950 . S
H933 C944 0.950 . S
H934 C946 0.950 . S
H935 C947 0.950 . S
C936 H928 0.950 . S
C936 C937 1.386 . S
C936 C938 1.391 . S
C937 C936 1.386 . S
C937 C941 1.393 . S
C938 H930 0.950 . S
C938 C936 1.391 . S
C938 C939 1.400 . S
C939 C938 1.400 . S
C939 C940 1.398 . S
C939 C945 1.491 . S
C940 H931 0.950 . S
C940 C939 1.398 . S
C940 C941 1.391 . S
C941 H929 0.950 . S
C941 C937 1.393 . S
C941 C940 1.391 . S
C942 H932 0.950 . S
C942 C943 1.386 . S
C942 C944 1.391 . S
C943 C942 1.386 . S
C943 C947 1.393 . S
C944 H933 0.950 . S
C944 C942 1.391 . S
C944 C945 1.400 . S
C945 C939 1.491 . S
C945 C944 1.400 . S
C945 C946 1.398 . S
C946 H934 0.950 . S
C946 C945 1.398 . S
C946 C947 1.391 . S
C947 H935 0.950 . S
C947 C943 1.393 . S
C947 C946 1.391 . S
H948 C956 0.950 . S
H949 C961 0.950 . S
H950 C958 0.950 . S
H951 C960 0.950 . S
H952 C962 0.950 . S
H953 C964 0.950 . S
H954 C966 0.950 . S
H955 C967 0.950 . S
C956 H948 0.950 . S
C956 C957 1.386 . S
C956 C958 1.391 . S
C957 C956 1.386 . S
C957 C961 1.393 . S
C958 H950 0.950 . S
C958 C956 1.391 . S
C958 C959 1.400 . S
C959 C958 1.400 . S
C959 C960 1.398 . S
C959 C965 1.491 . S
C960 H951 0.950 . S
C960 C959 1.398 . S
C960 C961 1.391 . S
C961 H949 0.950 . S
C961 C957 1.393 . S
C961 C960 1.391 . S
C962 H952 0.950 . S
C962 C963 1.386 . S
C962 C964 1.391 . S
C963 C962 1.386 . S
C963 C967 1.393 . S
C964 H953 0.950 . S
C964 C962 1.391 . S
C964 C965 1.400 . S
C965 C959 1.491 . S
C965 C964 1.400 . S
C965 C966 1.398 . S
C966 H954 0.950 . S
C966 C965 1.398 . S
C966 C967 1.391 . S
C967 H955 0.950 . S
C967 C963 1.393 . S
C967 C966 1.391 . S
H968 C976 0.950 . S
H969 C981 0.950 . S
H970 C978 0.950 . S
H971 C980 0.950 . S
H972 C982 0.950 . S
H973 C984 0.950 . S
H974 C986 0.950 . S
H975 C987 0.950 . S
C976 H968 0.950 . S
C976 C977 1.386 . S
C976 C978 1.391 . S
C977 C976 1.386 . S
C977 C981 1.393 . S
C978 H970 0.950 . S
C978 C976 1.391 . S
C978 C979 1.400 . S
C979 C978 1.400 . S
C979 C980 1.398 . S
C979 C985 1.491 . S
C980 H971 0.950 . S
C980 C979 1.398 . S
C980 C981 1.391 . S
C981 H969 0.950 . S
C981 C977 1.393 . S
C981 C980 1.391 . S
C982 H972 0.950 . S
C982 C983 1.386 . S
C982 C984 1.391 . S
C983 C982 1.386 . S
C983 C987 1.393 . S
C984 H973 0.950 . S
C984 C982 1.391 . S
C984 C985 1.400 . S
C985 C979 1.491 . S
C985 C984 1.400 . S
C985 C986 1.398 . S
C986 H974 0.950 . S
C986 C985 1.398 . S
C986 C987 1.391 . S
C987 H975 0.950 . S
C987 C983 1.393 . S
C987 C986 1.391 . S
H988 C996 0.950 1_655 S
H989 C1001 0.950 . S
H990 C998 0.950 . S
H991 C1000 0.950 . S
H992 C1002 0.950 . S
H993 C1004 0.950 . S
H994 C1006 0.950 . S
H995 C1007 0.950 . S
C996 H988 0.950 1_455 S
C996 C997 1.386 . S
C996 C998 1.391 . S
C997 C996 1.386 . S
C997 C1001 1.393 . S
C998 H990 0.950 . S
C998 C996 1.391 . S
C998 C999 1.400 . S
C999 C998 1.400 . S
C999 C1000 1.398 . S
C999 C1005 1.491 . S
C1000 H991 0.950 . S
C1000 C999 1.398 . S
C1000 C1001 1.391 . S
C1001 H989 0.950 . S
C1001 C997 1.393 . S
C1001 C1000 1.391 . S
C1002 H992 0.950 . S
C1002 C1003 1.386 . S
C1002 C1004 1.391 . S
C1003 C1002 1.386 . S
C1003 C1007 1.393 . S
C1004 H993 0.950 . S
C1004 C1002 1.391 . S
C1004 C1005 1.400 . S
C1005 C999 1.491 . S
C1005 C1004 1.400 . S
C1005 C1006 1.398 . S
C1006 H994 0.950 . S
C1006 C1005 1.398 . S
C1006 C1007 1.391 . S
C1007 H995 0.950 . S
C1007 C1003 1.393 . S
C1007 C1006 1.391 . S
H1008 C1016 0.950 . S
H1009 C1021 0.950 . S
H1010 C1018 0.950 . S
H1011 C1020 0.950 . S
H1012 C1022 0.950 . S
H1013 C1024 0.950 . S
H1014 C1026 0.950 . S
H1015 C1027 0.950 . S
C1016 H1008 0.950 . S
C1016 C1017 1.386 . S
C1016 C1018 1.391 . S
C1017 C1016 1.386 . S
C1017 C1021 1.393 . S
C1018 H1010 0.950 . S
C1018 C1016 1.391 . S
C1018 C1019 1.400 . S
C1019 C1018 1.400 . S
C1019 C1020 1.398 . S
C1019 C1025 1.491 . S
C1020 H1011 0.950 . S
C1020 C1019 1.398 . S
C1020 C1021 1.391 . S
C1021 H1009 0.950 . S
C1021 C1017 1.393 . S
C1021 C1020 1.391 . S
C1022 H1012 0.950 . S
C1022 C1023 1.386 . S
C1022 C1024 1.391 . S
C1023 C1022 1.386 . S
C1023 C1027 1.393 . S
C1024 H1013 0.950 . S
C1024 C1022 1.391 . S
C1024 C1025 1.400 . S
C1025 C1019 1.491 . S
C1025 C1024 1.400 . S
C1025 C1026 1.398 . S
C1026 H1014 0.950 . S
C1026 C1025 1.398 . S
C1026 C1027 1.391 . S
C1027 H1015 0.950 . S
C1027 C1023 1.393 . S
C1027 C1026 1.391 . S
H1028 C1036 0.950 . S
H1029 C1041 0.950 1_655 S
H1030 C1038 0.950 . S
H1031 C1040 0.950 . S
H1032 C1042 0.950 . S
H1033 C1044 0.950 . S
H1034 C1046 0.950 . S
H1035 C1047 0.950 . S
C1036 H1028 0.950 . S
C1036 C1037 1.386 . S
C1036 C1038 1.391 . S
C1037 C1036 1.386 . S
C1037 C1041 1.393 . S
C1038 H1030 0.950 . S
C1038 C1036 1.391 . S
C1038 C1039 1.400 . S
C1039 C1038 1.400 . S
C1039 C1040 1.398 . S
C1039 C1045 1.491 . S
C1040 H1031 0.950 . S
C1040 C1039 1.398 . S
C1040 C1041 1.391 . S
C1041 H1029 0.950 1_455 S
C1041 C1037 1.393 . S
C1041 C1040 1.391 . S
C1042 H1032 0.950 . S
C1042 C1043 1.386 . S
C1042 C1044 1.391 . S
C1043 C1042 1.386 . S
C1043 C1047 1.393 . S
C1044 H1033 0.950 . S
C1044 C1042 1.391 . S
C1044 C1045 1.400 . S
C1045 C1039 1.491 . S
C1045 C1044 1.400 . S
C1045 C1046 1.398 . S
C1046 H1034 0.950 . S
C1046 C1045 1.398 . S
C1046 C1047 1.391 . S
C1047 H1035 0.950 . S
C1047 C1043 1.393 . S
C1047 C1046 1.391 . S
H1048 C1056 0.950 . S
H1049 C1061 0.950 . S
H1050 C1058 0.950 . S
H1051 C1060 0.950 . S
H1052 C1062 0.950 . S
H1053 C1064 0.950 . S
H1054 C1066 0.950 . S
H1055 C1067 0.950 . S
C1056 H1048 0.950 . S
C1056 C1057 1.386 . S
C1056 C1058 1.391 . S
C1057 C1056 1.386 . S
C1057 C1061 1.393 . S
C1058 H1050 0.950 . S
C1058 C1056 1.391 . S
C1058 C1059 1.400 . S
C1059 C1058 1.400 . S
C1059 C1060 1.398 . S
C1059 C1065 1.491 . S
C1060 H1051 0.950 . S
C1060 C1059 1.398 . S
C1060 C1061 1.391 . S
C1061 H1049 0.950 . S
C1061 C1057 1.393 . S
C1061 C1060 1.391 . S
C1062 H1052 0.950 . S
C1062 C1063 1.386 . S
C1062 C1064 1.391 . S
C1063 C1062 1.386 . S
C1063 C1067 1.393 . S
C1064 H1053 0.950 . S
C1064 C1062 1.391 . S
C1064 C1065 1.400 . S
C1065 C1059 1.491 . S
C1065 C1064 1.400 . S
C1065 C1066 1.398 . S
C1066 H1054 0.950 . S
C1066 C1065 1.398 . S
C1066 C1067 1.391 . S
C1067 H1055 0.950 . S
C1067 C1063 1.393 . S
C1067 C1066 1.391 . S
H1068 C1076 0.950 . S
H1069 C1081 0.950 . S
H1070 C1078 0.950 . S
H1071 C1080 0.950 . S
H1072 C1082 0.950 . S
H1073 C1084 0.950 . S
H1074 C1086 0.950 . S
H1075 C1087 0.950 . S
C1076 H1068 0.950 . S
C1076 C1077 1.386 . S
C1076 C1078 1.391 . S
C1077 C1076 1.386 . S
C1077 C1081 1.393 . S
C1078 H1070 0.950 . S
C1078 C1076 1.391 . S
C1078 C1079 1.400 . S
C1079 C1078 1.400 . S
C1079 C1080 1.398 . S
C1079 C1085 1.491 . S
C1080 H1071 0.950 . S
C1080 C1079 1.398 . S
C1080 C1081 1.391 . S
C1081 H1069 0.950 . S
C1081 C1077 1.393 . S
C1081 C1080 1.391 . S
C1082 H1072 0.950 . S
C1082 C1083 1.386 . S
C1082 C1084 1.391 . S
C1083 C1082 1.386 . S
C1083 C1087 1.393 . S
C1084 H1073 0.950 . S
C1084 C1082 1.391 . S
C1084 C1085 1.400 . S
C1085 C1079 1.491 . S
C1085 C1084 1.400 . S
C1085 C1086 1.398 . S
C1086 H1074 0.950 . S
C1086 C1085 1.398 . S
C1086 C1087 1.391 . S
C1087 H1075 0.950 . S
C1087 C1083 1.393 . S
C1087 C1086 1.391 . S
H1088 C1096 0.950 . S
H1089 C1101 0.950 . S
H1090 C1098 0.950 . S
H1091 C1100 0.950 . S
H1092 C1102 0.950 . S
H1093 C1104 0.950 . S
H1094 C1106 0.950 . S
H1095 C1107 0.950 . S
C1096 H1088 0.950 . S
C1096 C1097 1.386 . S
C1096 C1098 1.391 . S
C1097 C1096 1.386 . S
C1097 C1101 1.393 . S
C1098 H1090 0.950 . S
C1098 C1096 1.391 . S
C1098 C1099 1.400 . S
C1099 C1098 1.400 . S
C1099 C1100 1.398 . S
C1099 C1105 1.491 . S
C1100 H1091 0.950 . S
C1100 C1099 1.398 . S
C1100 C1101 1.391 . S
C1101 H1089 0.950 . S
C1101 C1097 1.393 . S
C1101 C1100 1.391 . S
C1102 H1092 0.950 . S
C1102 C1103 1.386 . S
C1102 C1104 1.391 . S
C1103 C1102 1.386 . S
C1103 C1107 1.393 . S
C1104 H1093 0.950 . S
C1104 C1102 1.391 . S
C1104 C1105 1.400 . S
C1105 C1099 1.491 . S
C1105 C1104 1.400 . S
C1105 C1106 1.398 . S
C1106 H1094 0.950 . S
C1106 C1105 1.398 . S
C1106 C1107 1.391 . S
C1107 H1095 0.950 . S
C1107 C1103 1.393 . S
C1107 C1106 1.391 . S
H1108 C1116 0.950 . S
H1109 C1121 0.950 . S
H1110 C1118 0.950 1_455 S
H1111 C1120 0.950 1_545 S
H1112 C1122 0.950 . S
H1113 C1124 0.950 1_655 S
H1114 C1126 0.950 1_565 S
H1115 C1127 0.950 . S
C1116 H1108 0.950 . S
C1116 C1117 1.386 . S
C1116 C1118 1.391 . S
C1117 C1116 1.386 . S
C1117 C1121 1.393 . S
C1118 H1110 0.950 1_655 S
C1118 C1116 1.391 . S
C1118 C1119 1.400 . S
C1119 C1118 1.400 . S
C1119 C1120 1.398 . S
C1119 C1125 1.491 1_665 S
C1120 H1111 0.950 1_565 S
C1120 C1119 1.398 . S
C1120 C1121 1.391 . S
C1121 H1109 0.950 . S
C1121 C1117 1.393 . S
C1121 C1120 1.391 . S
C1122 H1112 0.950 . S
C1122 C1123 1.386 . S
C1122 C1124 1.391 . S
C1123 C1122 1.386 . S
C1123 C1127 1.393 . S
C1124 H1113 0.950 1_455 S
C1124 C1122 1.391 . S
C1124 C1125 1.400 . S
C1125 C1119 1.491 1_445 S
C1125 C1124 1.400 . S
C1125 C1126 1.398 . S
C1126 H1114 0.950 1_545 S
C1126 C1125 1.398 . S
C1126 C1127 1.391 . S
C1127 H1115 0.950 . S
C1127 C1123 1.393 . S
C1127 C1126 1.391 . S
H1128 C1136 0.950 . S
H1129 C1141 0.950 . S
H1130 C1138 0.950 . S
H1131 C1140 0.950 . S
H1132 C1142 0.950 . S
H1133 C1144 0.950 . S
H1134 C1146 0.950 . S
H1135 C1147 0.950 . S
C1136 H1128 0.950 . S
C1136 C1137 1.386 . S
C1136 C1138 1.391 . S
C1137 C1136 1.386 . S
C1137 C1141 1.393 . S
C1138 H1130 0.950 . S
C1138 C1136 1.391 . S
C1138 C1139 1.400 . S
C1139 C1138 1.400 . S
C1139 C1140 1.398 . S
C1139 C1145 1.491 . S
C1140 H1131 0.950 . S
C1140 C1139 1.398 . S
C1140 C1141 1.391 . S
C1141 H1129 0.950 . S
C1141 C1137 1.393 . S
C1141 C1140 1.391 . S
C1142 H1132 0.950 . S
C1142 C1143 1.386 . S
C1142 C1144 1.391 . S
C1143 C1142 1.386 . S
C1143 C1147 1.393 . S
C1144 H1133 0.950 . S
C1144 C1142 1.391 . S
C1144 C1145 1.400 . S
C1145 C1139 1.491 . S
C1145 C1144 1.400 . S
C1145 C1146 1.398 . S
C1146 H1134 0.950 . S
C1146 C1145 1.398 . S
C1146 C1147 1.391 . S
C1147 H1135 0.950 . S
C1147 C1143 1.393 . S
C1147 C1146 1.391 . S
H1148 C1156 0.950 . S
H1149 C1161 0.950 . S
H1150 C1158 0.945 1_565 S
H1151 C1160 0.950 . S
H1152 C1162 0.950 . S
H1153 C1164 0.945 1_545 S
H1154 C1166 0.950 . S
H1155 C1167 0.950 . S
C1156 H1148 0.950 . S
C1156 C1157 1.386 . S
C1156 C1158 1.391 . S
C1157 C1156 1.386 . S
C1157 C1161 1.393 . S
C1158 H1150 0.945 1_545 S
C1158 C1156 1.391 . S
C1158 C1159 1.400 . S
C1159 C1158 1.400 . S
C1159 C1160 1.398 . S
C1159 C1165 1.491 1_544 S
C1160 H1151 0.950 . S
C1160 C1159 1.398 . S
C1160 C1161 1.391 . S
C1161 H1149 0.950 . S
C1161 C1157 1.393 . S
C1161 C1160 1.391 . S
C1162 H1152 0.950 . S
C1162 C1163 1.386 . S
C1162 C1164 1.391 . S
C1163 C1162 1.386 . S
C1163 C1167 1.393 . S
C1164 H1153 0.945 1_565 S
C1164 C1162 1.391 . S
C1164 C1165 1.400 . S
C1165 C1159 1.491 1_566 S
C1165 C1164 1.400 . S
C1165 C1166 1.398 . S
C1166 H1154 0.950 . S
C1166 C1165 1.398 . S
C1166 C1167 1.391 . S
C1167 H1155 0.950 . S
C1167 C1163 1.393 . S
C1167 C1166 1.391 . S
H1168 C1176 0.950 . S
H1169 C1181 0.950 . S
H1170 C1178 0.950 . S
H1171 C1180 0.950 . S
H1172 C1182 0.950 . S
H1173 C1184 0.950 . S
H1174 C1186 0.950 . S
H1175 C1187 0.950 . S
C1176 H1168 0.950 . S
C1176 C1177 1.386 . S
C1176 C1178 1.391 . S
C1177 C1176 1.386 . S
C1177 C1181 1.393 . S
C1178 H1170 0.950 . S
C1178 C1176 1.391 . S
C1178 C1179 1.400 . S
C1179 C1178 1.400 . S
C1179 C1180 1.398 . S
C1179 C1185 1.491 . S
C1180 H1171 0.950 . S
C1180 C1179 1.398 . S
C1180 C1181 1.391 . S
C1181 H1169 0.950 . S
C1181 C1177 1.393 . S
C1181 C1180 1.391 . S
C1182 H1172 0.950 . S
C1182 C1183 1.386 . S
C1182 C1184 1.391 . S
C1183 C1182 1.386 . S
C1183 C1187 1.393 . S
C1184 H1173 0.950 . S
C1184 C1182 1.391 . S
C1184 C1185 1.400 . S
C1185 C1179 1.491 . S
C1185 C1184 1.400 . S
C1185 C1186 1.398 . S
C1186 H1174 0.950 . S
C1186 C1185 1.398 . S
C1186 C1187 1.391 . S
C1187 H1175 0.950 . S
C1187 C1183 1.393 . S
C1187 C1186 1.391 . S
H1188 C1196 0.950 . S
H1189 C1201 0.950 . S
H1190 C1198 0.950 1_545 S
H1191 C1200 0.950 . S
H1192 C1202 0.950 . S
H1193 C1204 0.950 1_565 S
H1194 C1206 0.950 . S
H1195 C1207 0.950 . S
C1196 H1188 0.950 . S
C1196 C1197 1.386 . S
C1196 C1198 1.391 . S
C1197 C1196 1.386 . S
C1197 C1201 1.393 . S
C1198 H1190 0.950 1_565 S
C1198 C1196 1.391 . S
C1198 C1199 1.400 . S
C1199 C1198 1.400 . S
C1199 C1200 1.398 . S
C1199 C1205 1.491 1_565 S
C1200 H1191 0.950 . S
C1200 C1199 1.398 . S
C1200 C1201 1.391 . S
C1201 H1189 0.950 . S
C1201 C1197 1.393 . S
C1201 C1200 1.391 . S
C1202 H1192 0.950 . S
C1202 C1203 1.386 . S
C1202 C1204 1.391 . S
C1203 C1202 1.386 . S
C1203 C1207 1.393 . S
C1204 H1193 0.950 1_545 S
C1204 C1202 1.391 . S
C1204 C1205 1.400 . S
C1205 C1199 1.491 1_545 S
C1205 C1204 1.400 . S
C1205 C1206 1.398 . S
C1206 H1194 0.950 . S
C1206 C1205 1.398 . S
C1206 C1207 1.391 . S
C1207 H1195 0.950 . S
C1207 C1203 1.393 . S
C1207 C1206 1.391 . S
H1208 C1216 0.950 . S
H1209 C1221 0.950 . S
H1210 C1218 0.950 . S
H1211 C1220 0.950 . S
H1212 C1222 0.950 . S
H1213 C1224 0.950 . S
H1214 C1226 0.950 . S
H1215 C1227 0.950 . S
C1216 H1208 0.950 . S
C1216 C1217 1.386 . S
C1216 C1218 1.391 . S
C1217 C1216 1.386 . S
C1217 C1221 1.393 . S
C1218 H1210 0.950 . S
C1218 C1216 1.391 . S
C1218 C1219 1.400 . S
C1219 C1218 1.400 . S
C1219 C1220 1.398 . S
C1219 C1225 1.491 . S
C1220 H1211 0.950 . S
C1220 C1219 1.398 . S
C1220 C1221 1.391 . S
C1221 H1209 0.950 . S
C1221 C1217 1.393 . S
C1221 C1220 1.391 . S
C1222 H1212 0.950 . S
C1222 C1223 1.386 . S
C1222 C1224 1.391 . S
C1223 C1222 1.386 . S
C1223 C1227 1.393 . S
C1224 H1213 0.950 . S
C1224 C1222 1.391 . S
C1224 C1225 1.400 . S
C1225 C1219 1.491 . S
C1225 C1224 1.400 . S
C1225 C1226 1.398 . S
C1226 H1214 0.950 . S
C1226 C1225 1.398 . S
C1226 C1227 1.391 . S
C1227 H1215 0.950 . S
C1227 C1223 1.393 . S
C1227 C1226 1.391 . S
H1228 C1236 0.950 . S
H1229 C1241 0.950 1_455 S
H1230 C1238 0.950 1_565 S
H1231 C1240 0.950 . S
H1232 C1242 0.950 . S
H1233 C1244 0.950 1_545 S
H1234 C1246 0.950 . S
H1235 C1247 0.950 1_655 S
C1236 H1228 0.950 . S
C1236 C1237 1.386 . S
C1236 C1238 1.391 . S
C1237 C1236 1.386 . S
C1237 C1241 1.393 . S
C1238 H1230 0.950 1_545 S
C1238 C1236 1.391 . S
C1238 C1239 1.400 . S
C1239 C1238 1.400 . S
C1239 C1240 1.398 1_655 S
C1239 C1245 1.491 1_646 S
C1240 H1231 0.950 . S
C1240 C1239 1.398 1_455 S
C1240 C1241 1.391 1_455 S
C1241 H1229 0.950 1_655 S
C1241 C1237 1.393 . S
C1241 C1240 1.391 1_655 S
C1242 H1232 0.950 . S
C1242 C1243 1.386 . S
C1242 C1244 1.391 . S
C1243 C1242 1.386 . S
C1243 C1247 1.393 . S
C1244 H1233 0.950 1_565 S
C1244 C1242 1.391 . S
C1244 C1245 1.400 . S
C1245 C1239 1.491 1_464 S
C1245 C1244 1.400 . S
C1245 C1246 1.398 1_455 S
C1246 H1234 0.950 . S
C1246 C1245 1.398 1_655 S
C1246 C1247 1.391 1_655 S
C1247 H1235 0.950 1_455 S
C1247 C1243 1.393 . S
C1247 C1246 1.391 1_455 S
H1248 C1256 0.950 . S
H1249 C1261 0.950 . S
H1250 C1258 0.950 . S
H1251 C1260 0.950 . S
H1252 C1262 0.950 . S
H1253 C1264 0.950 . S
H1254 C1266 0.950 . S
H1255 C1267 0.950 . S
C1256 H1248 0.950 . S
C1256 C1257 1.386 . S
C1256 C1258 1.391 . S
C1257 C1256 1.386 . S
C1257 C1261 1.393 . S
C1258 H1250 0.950 . S
C1258 C1256 1.391 . S
C1258 C1259 1.400 . S
C1259 C1258 1.400 . S
C1259 C1260 1.398 . S
C1259 C1265 1.491 . S
C1260 H1251 0.950 . S
C1260 C1259 1.398 . S
C1260 C1261 1.391 . S
C1261 H1249 0.950 . S
C1261 C1257 1.393 . S
C1261 C1260 1.391 . S
C1262 H1252 0.950 . S
C1262 C1263 1.386 . S
C1262 C1264 1.391 . S
C1263 C1262 1.386 . S
C1263 C1267 1.393 . S
C1264 H1253 0.950 . S
C1264 C1262 1.391 . S
C1264 C1265 1.400 . S
C1265 C1259 1.491 . S
C1265 C1264 1.400 . S
C1265 C1266 1.398 . S
C1266 H1254 0.950 . S
C1266 C1265 1.398 . S
C1266 C1267 1.391 . S
C1267 H1255 0.950 . S
C1267 C1263 1.393 . S
C1267 C1266 1.391 . S
H1268 C1276 0.950 . S
H1269 C1281 0.950 . S
H1270 C1278 0.950 . S
H1271 C1280 0.950 . S
H1272 C1282 0.950 . S
H1273 C1284 0.950 . S
H1274 C1286 0.950 . S
H1275 C1287 0.950 . S
C1276 H1268 0.950 . S
C1276 C1277 1.386 . S
C1276 C1278 1.391 . S
C1277 C1276 1.386 . S
C1277 C1281 1.393 . S
C1278 H1270 0.950 . S
C1278 C1276 1.391 . S
C1278 C1279 1.400 . S
C1279 C1278 1.400 . S
C1279 C1280 1.398 . S
C1279 C1285 1.491 . S
C1280 H1271 0.950 . S
C1280 C1279 1.398 . S
C1280 C1281 1.391 . S
C1281 H1269 0.950 . S
C1281 C1277 1.393 . S
C1281 C1280 1.391 . S
C1282 H1272 0.950 . S
C1282 C1283 1.386 . S
C1282 C1284 1.391 . S
C1283 C1282 1.386 . S
C1283 C1287 1.393 . S
C1284 H1273 0.950 . S
C1284 C1282 1.391 . S
C1284 C1285 1.400 . S
C1285 C1279 1.491 . S
C1285 C1284 1.400 . S
C1285 C1286 1.398 . S
C1286 H1274 0.950 . S
C1286 C1285 1.398 . S
C1286 C1287 1.391 . S
C1287 H1275 0.950 . S
C1287 C1283 1.393 . S
C1287 C1286 1.391 . S
H1288 C1296 0.950 . S
H1289 C1301 0.950 . S
H1290 C1298 0.950 . S
H1291 C1300 0.950 . S
H1292 C1302 0.950 . S
H1293 C1304 0.950 . S
H1294 C1306 0.950 . S
H1295 C1307 0.950 . S
C1296 H1288 0.950 . S
C1296 C1297 1.386 . S
C1296 C1298 1.391 . S
C1297 C1296 1.386 . S
C1297 C1301 1.393 . S
C1298 H1290 0.950 . S
C1298 C1296 1.391 . S
C1298 C1299 1.400 . S
C1299 C1298 1.400 . S
C1299 C1300 1.398 . S
C1299 C1305 1.491 . S
C1300 H1291 0.950 . S
C1300 C1299 1.398 . S
C1300 C1301 1.391 . S
C1301 H1289 0.950 . S
C1301 C1297 1.393 . S
C1301 C1300 1.391 . S
C1302 H1292 0.950 . S
C1302 C1303 1.386 . S
C1302 C1304 1.391 . S
C1303 C1302 1.386 . S
C1303 C1307 1.393 . S
C1304 H1293 0.950 . S
C1304 C1302 1.391 . S
C1304 C1305 1.400 . S
C1305 C1299 1.491 . S
C1305 C1304 1.400 . S
C1305 C1306 1.398 . S
C1306 H1294 0.950 . S
C1306 C1305 1.398 . S
C1306 C1307 1.391 . S
C1307 H1295 0.950 . S
C1307 C1303 1.393 . S
C1307 C1306 1.391 . S
H1308 C1316 0.950 . S
H1309 C1321 0.950 . S
H1310 C1318 0.950 . S
H1311 C1320 0.950 . S
H1312 C1322 0.950 . S
H1313 C1324 0.950 . S
H1314 C1326 0.950 . S
H1315 C1327 0.950 . S
C1316 H1308 0.950 . S
C1316 C1317 1.386 . S
C1316 C1318 1.391 . S
C1317 C1316 1.386 . S
C1317 C1321 1.393 . S
C1318 H1310 0.950 . S
C1318 C1316 1.391 . S
C1318 C1319 1.400 . S
C1319 C1318 1.400 . S
C1319 C1320 1.398 . S
C1319 C1325 1.491 . S
C1320 H1311 0.950 . S
C1320 C1319 1.398 . S
C1320 C1321 1.391 . S
C1321 H1309 0.950 . S
C1321 C1317 1.393 . S
C1321 C1320 1.391 . S
C1322 H1312 0.950 . S
C1322 C1323 1.386 . S
C1322 C1324 1.391 . S
C1323 C1322 1.386 . S
C1323 C1327 1.393 . S
C1324 H1313 0.950 . S
C1324 C1322 1.391 . S
C1324 C1325 1.400 . S
C1325 C1319 1.491 . S
C1325 C1324 1.400 . S
C1325 C1326 1.398 . S
C1326 H1314 0.950 . S
C1326 C1325 1.398 . S
C1326 C1327 1.391 . S
C1327 H1315 0.950 . S
C1327 C1323 1.393 . S
C1327 C1326 1.391 . S
H1328 C1336 0.950 . S
H1329 C1341 0.950 . S
H1330 C1338 0.950 . S
H1331 C1340 0.950 . S
H1332 C1342 0.950 . S
H1333 C1344 0.950 . S
H1334 C1346 0.950 . S
H1335 C1347 0.950 . S
C1336 H1328 0.950 . S
C1336 C1337 1.386 1_556 S
C1336 C1338 1.391 . S
C1337 C1336 1.386 1_554 S
C1337 C1341 1.393 . S
C1338 H1330 0.950 . S
C1338 C1336 1.391 . S
C1338 C1339 1.400 1_556 S
C1339 C1338 1.400 1_554 S
C1339 C1340 1.398 . S
C1339 C1345 1.491 1_554 S
C1340 H1331 0.950 . S
C1340 C1339 1.398 . S
C1340 C1341 1.391 . S
C1341 H1329 0.950 . S
C1341 C1337 1.393 . S
C1341 C1340 1.391 . S
C1342 H1332 0.950 . S
C1342 C1343 1.386 1_554 S
C1342 C1344 1.391 . S
C1343 C1342 1.386 1_556 S
C1343 C1347 1.393 . S
C1344 H1333 0.950 . S
C1344 C1342 1.391 . S
C1344 C1345 1.400 1_554 S
C1345 C1339 1.491 1_556 S
C1345 C1344 1.400 1_556 S
C1345 C1346 1.398 . S
C1346 H1334 0.950 . S
C1346 C1345 1.398 . S
C1346 C1347 1.391 . S
C1347 H1335 0.950 . S
C1347 C1343 1.393 . S
C1347 C1346 1.391 . S
H1348 C1356 0.950 . S
H1349 C1361 0.950 . S
H1350 C1358 0.950 . S
H1351 C1360 0.950 . S
H1352 C1362 0.950 . S
H1353 C1364 0.950 . S
H1354 C1366 0.950 . S
H1355 C1367 0.950 . S
C1356 H1348 0.950 . S
C1356 C1357 1.386 . S
C1356 C1358 1.391 . S
C1357 C1356 1.386 . S
C1357 C1361 1.393 . S
C1358 H1350 0.950 . S
C1358 C1356 1.391 . S
C1358 C1359 1.400 . S
C1359 C1358 1.400 . S
C1359 C1360 1.398 . S
C1359 C1365 1.491 1_655 S
C1360 H1351 0.950 . S
C1360 C1359 1.398 . S
C1360 C1361 1.391 . S
C1361 H1349 0.950 . S
C1361 C1357 1.393 . S
C1361 C1360 1.391 . S
C1362 H1352 0.950 . S
C1362 C1363 1.386 . S
C1362 C1364 1.391 . S
C1363 C1362 1.386 . S
C1363 C1367 1.393 . S
C1364 H1353 0.950 . S
C1364 C1362 1.391 . S
C1364 C1365 1.400 . S
C1365 C1359 1.491 1_455 S
C1365 C1364 1.400 . S
C1365 C1366 1.398 . S
C1366 H1354 0.950 . S
C1366 C1365 1.398 . S
C1366 C1367 1.391 . S
C1367 H1355 0.950 . S
C1367 C1363 1.393 . S
C1367 C1366 1.391 . S
H1368 C1376 0.950 1_655 S
H1369 C1381 0.950 . S
H1370 C1378 0.950 . S
H1371 C1380 0.950 . S
H1372 C1382 0.950 1_455 S
H1373 C1384 0.950 . S
H1374 C1386 0.950 . S
H1375 C1387 0.950 . S
C1376 H1368 0.950 1_455 S
C1376 C1377 1.386 . S
C1376 C1378 1.391 1_455 S
C1377 C1376 1.386 . S
C1377 C1381 1.393 . S
C1378 H1370 0.950 . S
C1378 C1376 1.391 1_655 S
C1378 C1379 1.400 1_655 S
C1379 C1378 1.400 1_455 S
C1379 C1380 1.398 1_556 S
C1379 C1385 1.491 1_456 S
C1380 H1371 0.950 . S
C1380 C1379 1.398 1_554 S
C1380 C1381 1.391 1_554 S
C1381 H1369 0.950 . S
C1381 C1377 1.393 . S
C1381 C1380 1.391 1_556 S
C1382 H1372 0.950 1_655 S
C1382 C1383 1.386 . S
C1382 C1384 1.391 1_655 S
C1383 C1382 1.386 . S
C1383 C1387 1.393 . S
C1384 H1373 0.950 . S
C1384 C1382 1.391 1_455 S
C1384 C1385 1.400 1_455 S
C1385 C1379 1.491 1_654 S
C1385 C1384 1.400 1_655 S
C1385 C1386 1.398 1_554 S
C1386 H1374 0.950 . S
C1386 C1385 1.398 1_556 S
C1386 C1387 1.391 1_556 S
C1387 H1375 0.950 . S
C1387 C1383 1.393 . S
C1387 C1386 1.391 1_554 S
H1388 C1396 0.950 . S
H1389 C1401 0.950 . S
H1390 C1398 0.950 . S
H1391 C1400 0.950 . S
H1392 C1402 0.950 . S
H1393 C1404 0.950 . S
H1394 C1406 0.950 . S
H1395 C1407 0.950 . S
C1396 H1388 0.950 . S
C1396 C1397 1.386 . S
C1396 C1398 1.391 . S
C1397 C1396 1.386 . S
C1397 C1401 1.393 . S
C1398 H1390 0.950 . S
C1398 C1396 1.391 . S
C1398 C1399 1.400 . S
C1399 C1398 1.400 . S
C1399 C1400 1.398 . S
C1399 C1405 1.491 . S
C1400 H1391 0.950 . S
C1400 C1399 1.398 . S
C1400 C1401 1.391 . S
C1401 H1389 0.950 . S
C1401 C1397 1.393 . S
C1401 C1400 1.391 . S
C1402 H1392 0.950 . S
C1402 C1403 1.386 . S
C1402 C1404 1.391 . S
C1403 C1402 1.386 . S
C1403 C1407 1.393 . S
C1404 H1393 0.950 . S
C1404 C1402 1.391 . S
C1404 C1405 1.400 . S
C1405 C1399 1.491 . S
C1405 C1404 1.400 . S
C1405 C1406 1.398 . S
C1406 H1394 0.950 . S
C1406 C1405 1.398 . S
C1406 C1407 1.391 . S
C1407 H1395 0.950 . S
C1407 C1403 1.393 . S
C1407 C1406 1.391 . S
H1408 C1416 0.950 . S
H1409 C1421 0.950 . S
H1410 C1418 0.950 . S
H1411 C1420 0.950 . S
H1412 C1422 0.950 . S
H1413 C1424 0.950 . S
H1414 C1426 0.950 . S
H1415 C1427 0.950 . S
C1416 H1408 0.950 . S
C1416 C1417 1.386 . S
C1416 C1418 1.391 . S
C1417 C1416 1.386 . S
C1417 C1421 1.393 . S
C1418 H1410 0.950 . S
C1418 C1416 1.391 . S
C1418 C1419 1.400 . S
C1419 C1418 1.400 . S
C1419 C1420 1.398 . S
C1419 C1425 1.491 . S
C1420 H1411 0.950 . S
C1420 C1419 1.398 . S
C1420 C1421 1.391 . S
C1421 H1409 0.950 . S
C1421 C1417 1.393 . S
C1421 C1420 1.391 . S
C1422 H1412 0.950 . S
C1422 C1423 1.386 . S
C1422 C1424 1.391 . S
C1423 C1422 1.386 . S
C1423 C1427 1.393 . S
C1424 H1413 0.950 . S
C1424 C1422 1.391 . S
C1424 C1425 1.400 . S
C1425 C1419 1.491 . S
C1425 C1424 1.400 . S
C1425 C1426 1.398 . S
C1426 H1414 0.950 . S
C1426 C1425 1.398 . S
C1426 C1427 1.391 . S
C1427 H1415 0.950 . S
C1427 C1423 1.393 . S
C1427 C1426 1.391 . S
H1428 C1436 0.950 . S
H1429 C1441 0.950 . S
H1430 C1438 0.950 . S
H1431 C1440 0.950 . S
H1432 C1442 0.950 . S
H1433 C1444 0.950 . S
H1434 C1446 0.950 . S
H1435 C1447 0.950 . S
C1436 H1428 0.950 . S
C1436 C1437 1.386 . S
C1436 C1438 1.391 . S
C1437 C1436 1.386 . S
C1437 C1441 1.393 . S
C1438 H1430 0.950 . S
C1438 C1436 1.391 . S
C1438 C1439 1.400 . S
C1439 C1438 1.400 . S
C1439 C1440 1.398 . S
C1439 C1445 1.491 . S
C1440 H1431 0.950 . S
C1440 C1439 1.398 . S
C1440 C1441 1.391 . S
C1441 H1429 0.950 . S
C1441 C1437 1.393 . S
C1441 C1440 1.391 . S
C1442 H1432 0.950 . S
C1442 C1443 1.386 . S
C1442 C1444 1.391 . S
C1443 C1442 1.386 . S
C1443 C1447 1.393 . S
C1444 H1433 0.950 . S
C1444 C1442 1.391 . S
C1444 C1445 1.400 . S
C1445 C1439 1.491 . S
C1445 C1444 1.400 . S
C1445 C1446 1.398 . S
C1446 H1434 0.950 . S
C1446 C1445 1.398 . S
C1446 C1447 1.391 . S
C1447 H1435 0.950 . S
C1447 C1443 1.393 . S
C1447 C1446 1.391 . S
H1448 C1456 0.950 . S
H1449 C1461 0.950 . S
H1450 C1458 0.950 . S
H1451 C1460 0.950 . S
H1452 C1462 0.950 . S
H1453 C1464 0.950 . S
H1454 C1466 0.950 . S
H1455 C1467 0.950 . S
C1456 H1448 0.950 . S
C1456 C1457 1.386 . S
C1456 C1458 1.391 . S
C1457 C1456 1.386 . S
C1457 C1461 1.393 . S
C1458 H1450 0.950 . S
C1458 C1456 1.391 . S
C1458 C1459 1.400 . S
C1459 C1458 1.400 . S
C1459 C1460 1.398 . S
C1459 C1465 1.491 . S
C1460 H1451 0.950 . S
C1460 C1459 1.398 . S
C1460 C1461 1.391 . S
C1461 H1449 0.950 . S
C1461 C1457 1.393 . S
C1461 C1460 1.391 . S
C1462 H1452 0.950 . S
C1462 C1463 1.386 . S
C1462 C1464 1.391 . S
C1463 C1462 1.386 . S
C1463 C1467 1.393 . S
C1464 H1453 0.950 . S
C1464 C1462 1.391 . S
C1464 C1465 1.400 . S
C1465 C1459 1.491 . S
C1465 C1464 1.400 . S
C1465 C1466 1.398 . S
C1466 H1454 0.950 . S
C1466 C1465 1.398 . S
C1466 C1467 1.391 . S
C1467 H1455 0.950 . S
C1467 C1463 1.393 . S
C1467 C1466 1.391 . S
H1468 C1476 0.950 . S
H1469 C1481 0.950 . S
H1470 C1478 0.950 . S
H1471 C1480 0.950 . S
H1472 C1482 0.950 . S
H1473 C1484 0.950 . S
H1474 C1486 0.950 . S
H1475 C1487 0.950 . S
C1476 H1468 0.950 . S
C1476 C1477 1.386 . S
C1476 C1478 1.391 . S
C1477 C1476 1.386 . S
C1477 C1481 1.393 . S
C1478 H1470 0.950 . S
C1478 C1476 1.391 . S
C1478 C1479 1.400 . S
C1479 C1478 1.400 . S
C1479 C1480 1.398 . S
C1479 C1485 1.491 . S
C1480 H1471 0.950 . S
C1480 C1479 1.398 . S
C1480 C1481 1.391 . S
C1481 H1469 0.950 . S
C1481 C1477 1.393 . S
C1481 C1480 1.391 . S
C1482 H1472 0.950 . S
C1482 C1483 1.386 . S
C1482 C1484 1.391 . S
C1483 C1482 1.386 . S
C1483 C1487 1.393 . S
C1484 H1473 0.950 . S
C1484 C1482 1.391 . S
C1484 C1485 1.400 . S
C1485 C1479 1.491 . S
C1485 C1484 1.400 . S
C1485 C1486 1.398 . S
C1486 H1474 0.950 . S
C1486 C1485 1.398 . S
C1486 C1487 1.391 . S
C1487 H1475 0.950 . S
C1487 C1483 1.393 . S
C1487 C1486 1.391 . S
H1488 C1496 0.950 . S
H1489 C1501 0.950 . S
H1490 C1498 0.950 . S
H1491 C1500 0.950 . S
H1492 C1502 0.950 . S
H1493 C1504 0.950 . S
H1494 C1506 0.950 . S
H1495 C1507 0.950 . S
C1496 H1488 0.950 . S
C1496 C1497 1.386 . S
C1496 C1498 1.391 . S
C1497 C1496 1.386 . S
C1497 C1501 1.393 . S
C1498 H1490 0.950 . S
C1498 C1496 1.391 . S
C1498 C1499 1.400 . S
C1499 C1498 1.400 . S
C1499 C1500 1.398 . S
C1499 C1505 1.491 . S
C1500 H1491 0.950 . S
C1500 C1499 1.398 . S
C1500 C1501 1.391 . S
C1501 H1489 0.950 . S
C1501 C1497 1.393 . S
C1501 C1500 1.391 . S
C1502 H1492 0.950 . S
C1502 C1503 1.386 . S
C1502 C1504 1.391 . S
C1503 C1502 1.386 . S
C1503 C1507 1.393 . S
C1504 H1493 0.950 . S
C1504 C1502 1.391 . S
C1504 C1505 1.400 . S
C1505 C1499 1.491 . S
C1505 C1504 1.400 . S
C1505 C1506 1.398 . S
C1506 H1494 0.950 . S
C1506 C1505 1.398 . S
C1506 C1507 1.391 . S
C1507 H1495 0.950 . S
C1507 C1503 1.393 . S
C1507 C1506 1.391 . S
H1508 C1516 0.950 . S
H1509 C1521 0.950 . S
H1510 C1518 0.950 . S
H1511 C1520 0.950 . S
H1512 C1522 0.950 . S
H1513 C1524 0.950 . S
H1514 C1526 0.950 . S
H1515 C1527 0.950 . S
C1516 H1508 0.950 . S
C1516 C1517 1.386 . S
C1516 C1518 1.391 . S
C1517 C1516 1.386 . S
C1517 C1521 1.393 . S
C1518 H1510 0.950 . S
C1518 C1516 1.391 . S
C1518 C1519 1.400 . S
C1519 C1518 1.400 . S
C1519 C1520 1.398 . S
C1519 C1525 1.491 . S
C1520 H1511 0.950 . S
C1520 C1519 1.398 . S
C1520 C1521 1.391 . S
C1521 H1509 0.950 . S
C1521 C1517 1.393 . S
C1521 C1520 1.391 . S
C1522 H1512 0.950 . S
C1522 C1523 1.386 . S
C1522 C1524 1.391 . S
C1523 C1522 1.386 . S
C1523 C1527 1.393 . S
C1524 H1513 0.950 . S
C1524 C1522 1.391 . S
C1524 C1525 1.400 . S
C1525 C1519 1.491 . S
C1525 C1524 1.400 . S
C1525 C1526 1.398 . S
C1526 H1514 0.950 . S
C1526 C1525 1.398 . S
C1526 C1527 1.391 . S
C1527 H1515 0.950 . S
C1527 C1523 1.393 . S
C1527 C1526 1.391 . S
H1528 C1536 0.950 . S
H1529 C1541 0.950 . S
H1530 C1538 0.950 . S
H1531 C1540 0.950 . S
H1532 C1542 0.950 . S
H1533 C1544 0.950 . S
H1534 C1546 0.950 . S
H1535 C1547 0.950 . S
C1536 H1528 0.950 . S
C1536 C1537 1.386 . S
C1536 C1538 1.391 . S
C1537 C1536 1.386 . S
C1537 C1541 1.393 . S
C1538 H1530 0.950 . S
C1538 C1536 1.391 . S
C1538 C1539 1.400 . S
C1539 C1538 1.400 . S
C1539 C1540 1.398 . S
C1539 C1545 1.491 . S
C1540 H1531 0.950 . S
C1540 C1539 1.398 . S
C1540 C1541 1.391 . S
C1541 H1529 0.950 . S
C1541 C1537 1.393 . S
C1541 C1540 1.391 . S
C1542 H1532 0.950 . S
C1542 C1543 1.386 . S
C1542 C1544 1.391 . S
C1543 C1542 1.386 . S
C1543 C1547 1.393 . S
C1544 H1533 0.950 . S
C1544 C1542 1.391 . S
C1544 C1545 1.400 . S
C1545 C1539 1.491 . S
C1545 C1544 1.400 . S
C1545 C1546 1.398 . S
C1546 H1534 0.950 . S
C1546 C1545 1.398 . S
C1546 C1547 1.391 . S
C1547 H1535 0.950 . S
C1547 C1543 1.393 . S
C1547 C1546 1.391 . S
H1548 C1556 0.950 . S
H1549 C1561 0.950 . S
H1550 C1558 0.950 . S
H1551 C1560 0.950 . S
H1552 C1562 0.950 . S
H1553 C1564 0.950 . S
H1554 C1566 0.950 . S
H1555 C1567 0.950 . S
C1556 H1548 0.950 . S
C1556 C1557 1.386 . S
C1556 C1558 1.391 . S
C1557 C1556 1.386 . S
C1557 C1561 1.393 . S
C1558 H1550 0.950 . S
C1558 C1556 1.391 . S
C1558 C1559 1.400 . S
C1559 C1558 1.400 . S
C1559 C1560 1.398 . S
C1559 C1565 1.491 . S
C1560 H1551 0.950 . S
C1560 C1559 1.398 . S
C1560 C1561 1.391 . S
C1561 H1549 0.950 . S
C1561 C1557 1.393 . S
C1561 C1560 1.391 . S
C1562 H1552 0.950 . S
C1562 C1563 1.386 . S
C1562 C1564 1.391 . S
C1563 C1562 1.386 . S
C1563 C1567 1.393 . S
C1564 H1553 0.950 . S
C1564 C1562 1.391 . S
C1564 C1565 1.400 . S
C1565 C1559 1.491 . S
C1565 C1564 1.400 . S
C1565 C1566 1.398 . S
C1566 H1554 0.950 . S
C1566 C1565 1.398 . S
C1566 C1567 1.391 . S
C1567 H1555 0.950 . S
C1567 C1563 1.393 . S
C1567 C1566 1.391 . S
H1568 C1576 0.950 . S
H1569 C1581 0.950 . S
H1570 C1578 0.950 . S
H1571 C1580 0.950 . S
H1572 C1582 0.950 . S
H1573 C1584 0.950 . S
H1574 C1586 0.950 . S
H1575 C1587 0.950 . S
C1576 H1568 0.950 . S
C1576 C1577 1.386 . S
C1576 C1578 1.391 . S
C1577 C1576 1.386 . S
C1577 C1581 1.393 . S
C1578 H1570 0.950 . S
C1578 C1576 1.391 . S
C1578 C1579 1.400 . S
C1579 C1578 1.400 . S
C1579 C1580 1.398 . S
C1579 C1585 1.491 . S
C1580 H1571 0.950 . S
C1580 C1579 1.398 . S
C1580 C1581 1.391 . S
C1581 H1569 0.950 . S
C1581 C1577 1.393 . S
C1581 C1580 1.391 . S
C1582 H1572 0.950 . S
C1582 C1583 1.386 . S
C1582 C1584 1.391 . S
C1583 C1582 1.386 . S
C1583 C1587 1.393 . S
C1584 H1573 0.950 . S
C1584 C1582 1.391 . S
C1584 C1585 1.400 . S
C1585 C1579 1.491 . S
C1585 C1584 1.400 . S
C1585 C1586 1.398 . S
C1586 H1574 0.950 . S
C1586 C1585 1.398 . S
C1586 C1587 1.391 . S
C1587 H1575 0.950 . S
C1587 C1583 1.393 . S
C1587 C1586 1.391 . S
H1588 C1596 0.950 . S
H1589 C1601 0.950 . S
H1590 C1598 0.950 . S
H1591 C1600 0.950 . S
H1592 C1602 0.950 . S
H1593 C1604 0.950 . S
H1594 C1606 0.950 . S
H1595 C1607 0.950 . S
C1596 H1588 0.950 . S
C1596 C1597 1.386 . S
C1596 C1598 1.391 . S
C1597 C1596 1.386 . S
C1597 C1601 1.393 . S
C1598 H1590 0.950 . S
C1598 C1596 1.391 . S
C1598 C1599 1.400 . S
C1599 C1598 1.400 . S
C1599 C1600 1.398 . S
C1599 C1605 1.491 . S
C1600 H1591 0.950 . S
C1600 C1599 1.398 . S
C1600 C1601 1.391 . S
C1601 H1589 0.950 . S
C1601 C1597 1.393 . S
C1601 C1600 1.391 . S
C1602 H1592 0.950 . S
C1602 C1603 1.386 . S
C1602 C1604 1.391 . S
C1603 C1602 1.386 . S
C1603 C1607 1.393 . S
C1604 H1593 0.950 . S
C1604 C1602 1.391 . S
C1604 C1605 1.400 . S
C1605 C1599 1.491 . S
C1605 C1604 1.400 . S
C1605 C1606 1.398 . S
C1606 H1594 0.950 . S
C1606 C1605 1.398 . S
C1606 C1607 1.391 . S
C1607 H1595 0.950 . S
C1607 C1603 1.393 . S
C1607 C1606 1.391 . S
H1608 C1616 0.950 . S
H1609 C1621 0.950 . S
H1610 C1618 0.950 . S
H1611 C1620 0.950 . S
H1612 C1622 0.950 . S
H1613 C1624 0.950 . S
H1614 C1626 0.950 . S
H1615 C1627 0.950 . S
C1616 H1608 0.950 . S
C1616 C1617 1.386 . S
C1616 C1618 1.391 . S
C1617 C1616 1.386 . S
C1617 C1621 1.393 . S
C1618 H1610 0.950 . S
C1618 C1616 1.391 . S
C1618 C1619 1.400 . S
C1619 C1618 1.400 . S
C1619 C1620 1.398 . S
C1619 C1625 1.491 . S
C1620 H1611 0.950 . S
C1620 C1619 1.398 . S
C1620 C1621 1.391 . S
C1621 H1609 0.950 . S
C1621 C1617 1.393 . S
C1621 C1620 1.391 . S
C1622 H1612 0.950 . S
C1622 C1623 1.386 . S
C1622 C1624 1.391 . S
C1623 C1622 1.386 . S
C1623 C1627 1.393 . S
C1624 H1613 0.950 . S
C1624 C1622 1.391 . S
C1624 C1625 1.400 . S
C1625 C1619 1.491 . S
C1625 C1624 1.400 . S
C1625 C1626 1.398 . S
C1626 H1614 0.950 . S
C1626 C1625 1.398 . S
C1626 C1627 1.391 . S
C1627 H1615 0.950 . S
C1627 C1623 1.393 . S
C1627 C1626 1.391 . S
H1628 C1636 0.950 . S
H1629 C1641 0.950 . S
H1630 C1638 0.950 . S
H1631 C1640 0.950 . S
H1632 C1642 0.950 . S
H1633 C1644 0.950 . S
H1634 C1646 0.950 . S
H1635 C1647 0.950 . S
C1636 H1628 0.950 . S
C1636 C1637 1.386 . S
C1636 C1638 1.391 . S
C1637 C1636 1.386 . S
C1637 C1641 1.393 . S
C1638 H1630 0.950 . S
C1638 C1636 1.391 . S
C1638 C1639 1.400 . S
C1639 C1638 1.400 . S
C1639 C1640 1.398 . S
C1639 C1645 1.491 . S
C1640 H1631 0.950 . S
C1640 C1639 1.398 . S
C1640 C1641 1.391 . S
C1641 H1629 0.950 . S
C1641 C1637 1.393 . S
C1641 C1640 1.391 . S
C1642 H1632 0.950 . S
C1642 C1643 1.386 . S
C1642 C1644 1.391 . S
C1643 C1642 1.386 . S
C1643 C1647 1.393 . S
C1644 H1633 0.950 . S
C1644 C1642 1.391 . S
C1644 C1645 1.400 . S
C1645 C1639 1.491 . S
C1645 C1644 1.400 . S
C1645 C1646 1.398 . S
C1646 H1634 0.950 . S
C1646 C1645 1.398 . S
C1646 C1647 1.391 . S
C1647 H1635 0.950 . S
C1647 C1643 1.393 . S
C1647 C1646 1.391 . S
H1648 C1656 0.950 . S
H1649 C1661 0.950 . S
H1650 C1658 0.950 . S
H1651 C1660 0.950 . S
H1652 C1662 0.950 . S
H1653 C1664 0.950 . S
H1654 C1666 0.950 . S
H1655 C1667 0.950 . S
C1656 H1648 0.950 . S
C1656 C1657 1.386 . S
C1656 C1658 1.391 . S
C1657 C1656 1.386 . S
C1657 C1661 1.393 . S
C1658 H1650 0.950 . S
C1658 C1656 1.391 . S
C1658 C1659 1.400 . S
C1659 C1658 1.400 . S
C1659 C1660 1.398 . S
C1659 C1665 1.491 . S
C1660 H1651 0.950 . S
C1660 C1659 1.398 . S
C1660 C1661 1.391 . S
C1661 H1649 0.950 . S
C1661 C1657 1.393 . S
C1661 C1660 1.391 . S
C1662 H1652 0.950 . S
C1662 C1663 1.386 . S
C1662 C1664 1.391 . S
C1663 C1662 1.386 . S
C1663 C1667 1.393 . S
C1664 H1653 0.950 . S
C1664 C1662 1.391 . S
C1664 C1665 1.400 . S
C1665 C1659 1.491 . S
C1665 C1664 1.400 . S
C1665 C1666 1.398 . S
C1666 H1654 0.950 . S
C1666 C1665 1.398 . S
C1666 C1667 1.391 . S
C1667 H1655 0.950 . S
C1667 C1663 1.393 . S
C1667 C1666 1.391 . S
H1668 C1676 0.950 . S
H1669 C1681 0.950 . S
H1670 C1678 0.950 . S
H1671 C1680 0.950 . S
H1672 C1682 0.950 . S
H1673 C1684 0.950 . S
H1674 C1686 0.950 . S
H1675 C1687 0.950 . S
C1676 H1668 0.950 . S
C1676 C1677 1.386 . S
C1676 C1678 1.391 . S
C1677 C1676 1.386 . S
C1677 C1681 1.393 . S
C1678 H1670 0.950 . S
C1678 C1676 1.391 . S
C1678 C1679 1.400 . S
C1679 C1678 1.400 . S
C1679 C1680 1.398 . S
C1679 C1685 1.491 . S
C1680 H1671 0.950 . S
C1680 C1679 1.398 . S
C1680 C1681 1.391 . S
C1681 H1669 0.950 . S
C1681 C1677 1.393 . S
C1681 C1680 1.391 . S
C1682 H1672 0.950 . S
C1682 C1683 1.386 . S
C1682 C1684 1.391 . S
C1683 C1682 1.386 . S
C1683 C1687 1.393 . S
C1684 H1673 0.950 . S
C1684 C1682 1.391 . S
C1684 C1685 1.400 . S
C1685 C1679 1.491 . S
C1685 C1684 1.400 . S
C1685 C1686 1.398 . S
C1686 H1674 0.950 . S
C1686 C1685 1.398 . S
C1686 C1687 1.391 . S
C1687 H1675 0.950 . S
C1687 C1683 1.393 . S
C1687 C1686 1.391 . S
H1688 C1696 0.950 . S
H1689 C1701 0.950 . S
H1690 C1698 0.950 . S
H1691 C1700 0.950 . S
H1692 C1702 0.950 . S
H1693 C1704 0.950 . S
H1694 C1706 0.950 . S
H1695 C1707 0.950 . S
C1696 H1688 0.950 . S
C1696 C1697 1.386 . S
C1696 C1698 1.391 . S
C1697 C1696 1.386 . S
C1697 C1701 1.393 . S
C1698 H1690 0.950 . S
C1698 C1696 1.391 . S
C1698 C1699 1.400 . S
C1699 C1698 1.400 . S
C1699 C1700 1.398 . S
C1699 C1705 1.491 . S
C1700 H1691 0.950 . S
C1700 C1699 1.398 . S
C1700 C1701 1.391 . S
C1701 H1689 0.950 . S
C1701 C1697 1.393 . S
C1701 C1700 1.391 . S
C1702 H1692 0.950 . S
C1702 C1703 1.386 . S
C1702 C1704 1.391 . S
C1703 C1702 1.386 . S
C1703 C1707 1.393 . S
C1704 H1693 0.950 . S
C1704 C1702 1.391 . S
C1704 C1705 1.400 . S
C1705 C1699 1.491 . S
C1705 C1704 1.400 . S
C1705 C1706 1.398 . S
C1706 H1694 0.950 . S
C1706 C1705 1.398 . S
C1706 C1707 1.391 . S
C1707 H1695 0.950 . S
C1707 C1703 1.393 . S
C1707 C1706 1.391 . S
H1708 C1716 0.950 . S
H1709 C1721 0.950 . S
H1710 C1718 0.950 . S
H1711 C1720 0.950 . S
H1712 C1722 0.950 . S
H1713 C1724 0.950 . S
H1714 C1726 0.950 . S
H1715 C1727 0.950 . S
C1716 H1708 0.950 . S
C1716 C1717 1.386 . S
C1716 C1718 1.391 . S
C1717 C1716 1.386 . S
C1717 C1721 1.393 . S
C1718 H1710 0.950 . S
C1718 C1716 1.391 . S
C1718 C1719 1.400 . S
C1719 C1718 1.400 . S
C1719 C1720 1.398 . S
C1719 C1725 1.491 . S
C1720 H1711 0.950 . S
C1720 C1719 1.398 . S
C1720 C1721 1.391 . S
C1721 H1709 0.950 . S
C1721 C1717 1.393 . S
C1721 C1720 1.391 . S
C1722 H1712 0.950 . S
C1722 C1723 1.386 . S
C1722 C1724 1.391 . S
C1723 C1722 1.386 . S
C1723 C1727 1.393 . S
C1724 H1713 0.950 . S
C1724 C1722 1.391 . S
C1724 C1725 1.400 . S
C1725 C1719 1.491 . S
C1725 C1724 1.400 . S
C1725 C1726 1.398 . S
C1726 H1714 0.950 . S
C1726 C1725 1.398 . S
C1726 C1727 1.391 . S
C1727 H1715 0.950 . S
C1727 C1723 1.393 . S
C1727 C1726 1.391 . S
C457 C135 1.519 . S
C463 C8 1.591 . S
C477 C22 1.591 1_455 S
C483 C373 1.505 . S
C497 C163 1.524 . S
C503 C36 1.582 . S
C517 C345 1.524 . S
C523 C50 1.582 . S
C537 C64 1.581 . S
C543 C219 1.510 . S
C557 C401 1.528 . S
C563 C78 1.583 . S
C577 C92 1.589 . S
C583 C191 1.527 . S
C597 C429 1.524 . S
C603 C106 1.590 1_455 S
C617 C23 1.523 . S
C623 C120 1.591 . S
C637 C134 1.581 1_655 S
C643 C261 1.509 . S
C657 C51 1.500 . S
C663 C148 1.587 . S
C677 C162 1.586 . S
C683 C233 1.529 . S
C697 C176 1.591 . S
C703 C107 1.523 . S
C717 C289 1.505 . S
C723 C190 1.590 . S
C737 C204 1.588 . S
C743 C79 1.501 . S
C757 C317 1.512 . S
C763 C218 1.581 1_655 S
C777 C359 1.516 . S
C783 C232 1.581 . S
C797 C149 1.501 . S
C803 C246 1.585 . S
C817 C260 1.589 . S
C823 C387 1.502 . S
C837 C121 1.529 . S
C843 C274 1.586 1_655 S
C857 C443 1.506 . S
C863 C288 1.591 . S
C877 C302 1.581 1_655 S
C883 C177 1.519 . S
C897 C415 1.517 . S
C903 C316 1.592 . S
C917 C205 1.512 . S
C923 C330 1.581 . S
C937 C247 1.529 . S
C943 C344 1.585 . S
C957 C358 1.583 . S
C963 C37 1.504 . S
C977 C372 1.581 . S
C983 C275 1.517 . S
C997 C386 1.581 1_455 S
C1003 C9 1.511 . S
C1017 C331 1.525 . S
C1023 C400 1.590 . S
C1037 C414 1.591 1_455 S
C1043 C65 1.509 . S
C1057 C428 1.591 . S
C1063 C303 1.510 . S
C1077 C442 1.590 . S
C1083 C93 1.525 . S
C1097 C342 1.447 . S
C1103 C6 1.447 . S
C1117 C20 1.450 . S
C1123 C132 1.450 . S
C1137 C34 1.444 . S
C1143 C370 1.444 . S
C1157 C48 1.445 . S
C1163 C160 1.445 . S
C1177 C62 1.450 . S
C1183 C398 1.450 . S
C1197 C76 1.444 . S
C1203 C188 1.444 . S
C1217 C426 1.443 . S
C1223 C90 1.443 . S
C1237 C104 1.445 . S
C1243 C216 1.445 . S
C1257 C118 1.447 . S
C1263 C230 1.447 . S
C1277 C146 1.448 . S
C1283 C258 1.448 . S
C1297 C286 1.450 . S
C1303 C174 1.450 . S
C1317 C314 1.449 . S
C1323 C202 1.449 . S
C1337 C244 1.449 . S
C1343 C356 1.449 . S
C1357 C384 1.450 . S
C1363 C272 1.450 . S
C1377 C300 1.447 . S
C1383 C412 1.447 . S
C1397 C440 1.448 . S
C1403 C328 1.448 . S
C1417 C301 1.302 . S
C1423 C7 1.313 . S
C1437 C315 1.298 . S
C1443 C21 1.318 . S
C1457 C35 1.302 . S
C1463 C329 1.315 . S
C1477 C287 1.316 . S
C1483 C49 1.300 . S
C1497 C273 1.319 . S
C1503 C63 1.297 . S
C1517 C231 1.297 . S
C1523 C77 1.318 . S
C1537 C91 1.301 . S
C1543 C245 1.314 . S
C1557 C259 1.317 . S
C1563 C105 1.298 . S
C1577 C413 1.311 . S
C1583 C119 1.304 . S
C1597 C427 1.312 . S
C1603 C133 1.304 . S
C1617 C441 1.318 . S
C1623 C147 1.299 . S
C1637 C161 1.307 . S
C1643 C399 1.308 . S
C1657 C385 1.310 . S
C1663 C175 1.305 . S
C1677 C343 1.297 . S
C1683 C189 1.318 . S
C1697 C357 1.319 . S
C1703 C203 1.296 . S
C1717 C371 1.313 . S
C1723 C217 1.304 . S
