# Generated by pormake.
# Topology wmi, (6)-cn, num edge types: 1
# Building blocks:
#     Node 0, Type 0, BuildingBlock: KUMBUR_clean_sbu_1, # of connection points: 6
#     Node 1, Type 0, BuildingBlock: KUMBUR_clean_sbu_1, # of connection points: 6
#     Node 2, Type 0, BuildingBlock: KUMBUR_clean_sbu_1, # of connection points: 6
#     Node 3, Type 0, BuildingBlock: KUMBUR_clean_sbu_1, # of connection points: 6
#     Node 4, Type 0, BuildingBlock: KUMBUR_clean_sbu_1, # of connection points: 6
#     Node 5, Type 0, BuildingBlock: KUMBUR_clean_sbu_1, # of connection points: 6
#     Node 6, Type 0, BuildingBlock: KUMBUR_clean_sbu_1, # of connection points: 6
#     Node 7, Type 0, BuildingBlock: KUMBUR_clean_sbu_1, # of connection points: 6
#     Node 8, Type 0, BuildingBlock: KUMBUR_clean_sbu_1, # of connection points: 6
#     Node 9, Type 0, BuildingBlock: KUMBUR_clean_sbu_1, # of connection points: 6
#     Node 10, Type 0, BuildingBlock: KUMBUR_clean_sbu_1, # of connection points: 6
#     Node 11, Type 0, BuildingBlock: KUMBUR_clean_sbu_1, # of connection points: 6
#     Node 12, Type 0, BuildingBlock: KUMBUR_clean_sbu_1, # of connection points: 6
#     Node 13, Type 0, BuildingBlock: KUMBUR_clean_sbu_1, # of connection points: 6
#     Node 14, Type 0, BuildingBlock: KUMBUR_clean_sbu_1, # of connection points: 6
#     Node 15, Type 0, BuildingBlock: KUMBUR_clean_sbu_1, # of connection points: 6
#     Node 16, Type 0, BuildingBlock: KUMBUR_clean_sbu_1, # of connection points: 6
#     Node 17, Type 0, BuildingBlock: KUMBUR_clean_sbu_1, # of connection points: 6
#     Edge 18, Type (0, 0), BuildingBlock: TEMPAE_clean_linker_10, # of connection points: 2
#     Edge 19, Type (0, 0), BuildingBlock: TEMPAE_clean_linker_10, # of connection points: 2
#     Edge 20, Type (0, 0), BuildingBlock: TEMPAE_clean_linker_10, # of connection points: 2
#     Edge 21, Type (0, 0), BuildingBlock: TEMPAE_clean_linker_10, # of connection points: 2
#     Edge 22, Type (0, 0), BuildingBlock: TEMPAE_clean_linker_10, # of connection points: 2
#     Edge 23, Type (0, 0), BuildingBlock: TEMPAE_clean_linker_10, # of connection points: 2
#     Edge 24, Type (0, 0), BuildingBlock: TEMPAE_clean_linker_10, # of connection points: 2
#     Edge 25, Type (0, 0), BuildingBlock: TEMPAE_clean_linker_10, # of connection points: 2
#     Edge 26, Type (0, 0), BuildingBlock: TEMPAE_clean_linker_10, # of connection points: 2
#     Edge 27, Type (0, 0), BuildingBlock: TEMPAE_clean_linker_10, # of connection points: 2
#     Edge 28, Type (0, 0), BuildingBlock: TEMPAE_clean_linker_10, # of connection points: 2
#     Edge 29, Type (0, 0), BuildingBlock: TEMPAE_clean_linker_10, # of connection points: 2
#     Edge 30, Type (0, 0), BuildingBlock: TEMPAE_clean_linker_10, # of connection points: 2
#     Edge 31, Type (0, 0), BuildingBlock: TEMPAE_clean_linker_10, # of connection points: 2
#     Edge 32, Type (0, 0), BuildingBlock: TEMPAE_clean_linker_10, # of connection points: 2
#     Edge 33, Type (0, 0), BuildingBlock: TEMPAE_clean_linker_10, # of connection points: 2
#     Edge 34, Type (0, 0), BuildingBlock: TEMPAE_clean_linker_10, # of connection points: 2
#     Edge 35, Type (0, 0), BuildingBlock: TEMPAE_clean_linker_10, # of connection points: 2
#     Edge 36, Type (0, 0), BuildingBlock: TEMPAE_clean_linker_10, # of connection points: 2
#     Edge 37, Type (0, 0), BuildingBlock: TEMPAE_clean_linker_10, # of connection points: 2
#     Edge 38, Type (0, 0), BuildingBlock: TEMPAE_clean_linker_10, # of connection points: 2
#     Edge 39, Type (0, 0), BuildingBlock: TEMPAE_clean_linker_10, # of connection points: 2
#     Edge 40, Type (0, 0), BuildingBlock: TEMPAE_clean_linker_10, # of connection points: 2
#     Edge 41, Type (0, 0), BuildingBlock: TEMPAE_clean_linker_10, # of connection points: 2
#     Edge 42, Type (0, 0), BuildingBlock: TEMPAE_clean_linker_10, # of connection points: 2
#     Edge 43, Type (0, 0), BuildingBlock: TEMPAE_clean_linker_10, # of connection points: 2
#     Edge 44, Type (0, 0), BuildingBlock: TEMPAE_clean_linker_10, # of connection points: 2
#     Edge 45, Type (0, 0), BuildingBlock: TEMPAE_clean_linker_10, # of connection points: 2
#     Edge 46, Type (0, 0), BuildingBlock: TEMPAE_clean_linker_10, # of connection points: 2
#     Edge 47, Type (0, 0), BuildingBlock: TEMPAE_clean_linker_10, # of connection points: 2
#     Edge 48, Type (0, 0), BuildingBlock: TEMPAE_clean_linker_10, # of connection points: 2
#     Edge 49, Type (0, 0), BuildingBlock: TEMPAE_clean_linker_10, # of connection points: 2
#     Edge 50, Type (0, 0), BuildingBlock: TEMPAE_clean_linker_10, # of connection points: 2
#     Edge 51, Type (0, 0), BuildingBlock: TEMPAE_clean_linker_10, # of connection points: 2
#     Edge 52, Type (0, 0), BuildingBlock: TEMPAE_clean_linker_10, # of connection points: 2
#     Edge 53, Type (0, 0), BuildingBlock: TEMPAE_clean_linker_10, # of connection points: 2
#     Edge 54, Type (0, 0), BuildingBlock: TEMPAE_clean_linker_10, # of connection points: 2
#     Edge 55, Type (0, 0), BuildingBlock: TEMPAE_clean_linker_10, # of connection points: 2
#     Edge 56, Type (0, 0), BuildingBlock: TEMPAE_clean_linker_10, # of connection points: 2
#     Edge 57, Type (0, 0), BuildingBlock: TEMPAE_clean_linker_10, # of connection points: 2
#     Edge 58, Type (0, 0), BuildingBlock: TEMPAE_clean_linker_10, # of connection points: 2
#     Edge 59, Type (0, 0), BuildingBlock: TEMPAE_clean_linker_10, # of connection points: 2
#     Edge 60, Type (0, 0), BuildingBlock: TEMPAE_clean_linker_10, # of connection points: 2
#     Edge 61, Type (0, 0), BuildingBlock: TEMPAE_clean_linker_10, # of connection points: 2
#     Edge 62, Type (0, 0), BuildingBlock: TEMPAE_clean_linker_10, # of connection points: 2
#     Edge 63, Type (0, 0), BuildingBlock: TEMPAE_clean_linker_10, # of connection points: 2
#     Edge 64, Type (0, 0), BuildingBlock: TEMPAE_clean_linker_10, # of connection points: 2
#     Edge 65, Type (0, 0), BuildingBlock: TEMPAE_clean_linker_10, # of connection points: 2
#     Edge 66, Type (0, 0), BuildingBlock: TEMPAE_clean_linker_10, # of connection points: 2
#     Edge 67, Type (0, 0), BuildingBlock: TEMPAE_clean_linker_10, # of connection points: 2
#     Edge 68, Type (0, 0), BuildingBlock: TEMPAE_clean_linker_10, # of connection points: 2
#     Edge 69, Type (0, 0), BuildingBlock: TEMPAE_clean_linker_10, # of connection points: 2
#     Edge 70, Type (0, 0), BuildingBlock: TEMPAE_clean_linker_10, # of connection points: 2
#     Edge 71, Type (0, 0), BuildingBlock: TEMPAE_clean_linker_10, # of connection points: 2
# Relax obj value: 0.064
# Max RMSD: 0.178
# Mean RMSD: 0.178
data_MOF--net-wmi--node1-KUMBUR_clean_sbu_1--edge1-TEMPAE_clean_linker_10
_symmetry_space_group_name_H-M    P1
_symmetry_Int_Tables_number       1
_symmetry_cell_setting            triclinic
loop_
_symmetry_equiv_pos_as_xyz
'x, y, z'
_cell_length_a     39.412735
_cell_length_b     39.414543
_cell_length_c     82.057096
_cell_angle_alpha  90.012165
_cell_angle_beta   89.96257
_cell_angle_gamma 119.98336
loop_
_atom_site_label
_atom_site_type_symbol
_atom_site_fract_x
_atom_site_fract_y
_atom_site_fract_z
_atom_type_partial_charge
Tb0 Tb 0.43152 0.9945 0.08333 0.0
C1 C 0.57105 1.00775 0.12491 0.0
N2 N 0.55039 0.02627 0.12781 0.0
C3 C 0.54818 0.01199 0.15634 0.0
C4 C 0.58081 0.99022 0.13766 0.0
C5 C 0.53942 0.02916 0.14329 0.0
C6 C 0.5688 0.99226 0.1535 0.0
C7 C 0.60474 0.98848 0.10555 0.0
C8 C 0.58263 1.00675 0.10906 0.0
C9 C 0.61441 0.97076 0.11818 0.0
C10 C 0.60239 0.97154 0.13419 0.0
Tb11 Tb 0.53732 0.05294 0.10567 0.0
N12 N 0.57225 0.02384 0.09714 0.0
C13 C 0.61692 0.98909 0.0895 0.0
C14 C 0.58671 0.02702 0.08174 0.0
C15 C 0.60828 1.00889 0.07759 0.0
H16 H 0.52473 0.0455 0.14568 0.0
H17 H 0.61898 1.01096 0.06527 0.0
H18 H 0.44378 0.98495 0.04387 0.0
H19 H 0.36158 0.06298 0.11553 0.0
H20 H 0.58316 0.0446 0.07267 0.0
H21 H 0.634 0.97544 0.08628 0.0
H22 H 0.39636 0.02611 0.11307 0.0
H23 H 0.53933 0.01431 0.16858 0.0
H24 H 0.63142 0.95662 0.11573 0.0
H25 H 0.61014 0.95782 0.14381 0.0
H26 H 0.42904 1.00627 0.01793 0.0
H27 H 0.5757 0.97914 0.16364 0.0
H28 H 0.34403 0.08649 0.09073 0.0
N29 N 0.41909 0.01182 0.05847 0.0
C30 C 0.39943 0.03197 0.05864 0.0
C31 C 0.42082 0.01393 0.02928 0.0
C32 C 0.39035 0.04461 0.04406 0.0
C33 C 0.4294 1.00219 0.04404 0.0
C34 C 0.40155 0.03552 0.02927 0.0
N35 N 0.39925 0.02865 0.0873 0.0
C36 C 0.389 0.03592 0.10222 0.0
C37 C 0.36886 0.06167 0.0743 0.0
C38 C 0.38868 0.04024 0.07353 0.0
C39 C 0.35918 0.07002 0.0896 0.0
C40 C 0.36914 0.0569 0.10362 0.0
H41 H 0.39526 0.04484 0.0178 0.0
H42 H 0.36337 0.07594 0.03365 0.0
H43 H 0.34467 0.09101 0.06015 0.0
O44 O 0.38045 0.94849 0.09401 0.0
O45 O 0.46218 0.05998 0.08334 0.0
O46 O 0.49842 0.07686 0.10685 0.0
O47 O 0.39422 0.94603 0.06889 0.0
O48 O 0.43588 0.98541 0.10941 0.0
O49 O 0.48584 0.04128 0.12143 0.0
O50 O 0.58767 0.10343 0.09663 0.0
O51 O 0.50475 0.9885 0.10699 0.0
O52 O 0.46967 0.96858 0.08307 0.0
O53 O 0.57549 0.09663 0.12212 0.0
O54 O 0.53323 0.06108 0.07876 0.0
O55 O 0.48209 1.00197 0.06994 0.0
C56 C 0.4838 0.08618 0.09448 0.0
C57 C 0.32779 0.90733 0.07636 0.0
C58 C 0.26577 0.84493 0.07451 0.0
C59 C 0.2505 0.86423 0.0651 0.0
C60 C 0.31157 0.92579 0.06728 0.0
C61 C 0.27304 0.90428 0.06174 0.0
C62 C 0.30473 0.86724 0.08018 0.0
C63 C 0.45003 1.00969 0.1218 0.0
C64 C 0.36963 0.92804 0.08064 0.0
C65 C 0.37052 0.0659 0.04473 0.0
C66 C 0.3598 0.07442 0.05981 0.0
C67 C 0.48816 0.9629 0.0952 0.0
C68 C 0.643 0.12968 0.11439 0.0
C69 C 0.71388 0.17636 0.11185 0.0
C70 C 0.72136 0.15122 0.12132 0.0
C71 C 0.65196 0.10591 0.12414 0.0
C72 C 0.67443 0.16538 0.10826 0.0
C73 C 0.69067 0.11636 0.1274 0.0
C74 C 0.51352 0.0356 0.06701 0.0
C75 C 0.6011 0.11747 0.11103 0.0
H76 H 0.22133 0.84841 0.05999 0.0
H77 H 0.32891 0.95651 0.06416 0.0
H78 H 0.26081 0.91852 0.0545 0.0
H79 H 0.31754 0.85358 0.08744 0.0
H80 H 0.7512 0.15896 0.12423 0.0
H81 H 0.6291 0.07939 0.12952 0.0
H82 H 0.66828 0.18459 0.10097 0.0
H83 H 0.6969 0.09752 0.13489 0.0
Tb84 Tb 0.07106 0.46463 0.08693 0.0
C85 C 0.04344 0.5866 0.12279 0.0
N86 N 0.03329 0.54884 0.12608 0.0
C87 C 0.05336 0.566 0.1539 0.0
C88 C 0.05978 0.61572 0.13495 0.0
C89 C 0.03663 0.53797 0.14155 0.0
C90 C 0.06521 0.60508 0.15058 0.0
C91 C 0.04735 0.63486 0.10337 0.0
C92 C 0.03767 0.59611 0.10708 0.0
C93 C 0.06293 0.66372 0.11556 0.0
C94 C 0.06957 0.65431 0.13123 0.0
Tb95 Tb 1.00276 0.50575 0.10531 0.0
N96 N 0.02174 0.56724 0.09562 0.0
C97 C 0.04035 0.64334 0.08761 0.0
C98 C 1.01383 0.57536 0.08033 0.0
C99 C 0.0237 0.61352 0.07604 0.0
H100 H 0.02571 0.50773 0.14467 0.0
H101 H 0.01739 0.61968 0.06391 0.0
H102 H 0.0811 0.48083 0.04665 0.0
H103 H 0.03398 0.33299 0.12056 0.0
H104 H 0.9983 0.5526 0.07151 0.0
H105 H 0.04698 0.67265 0.08432 0.0
H106 H 0.06428 0.40444 0.11636 0.0
H107 H 0.05637 0.55728 0.16608 0.0
H108 H 0.06977 0.69345 0.11303 0.0
H109 H 0.08187 0.677 0.14045 0.0
H110 H 0.05741 0.44133 0.02162 0.0
H111 H 0.07774 0.62663 0.16023 0.0
H112 H 1.00065 0.28765 0.09755 0.0
N113 N 0.05268 0.43164 0.0626 0.0
C114 C 0.03348 0.39193 0.06366 0.0
C115 C 0.04987 0.42711 0.03338 0.0
C116 C 0.0199 0.36819 0.04963 0.0
C117 C 0.06278 0.44941 0.04766 0.0
C118 C 0.02751 0.38637 0.03437 0.0
N119 N 0.04571 0.39929 0.0918 0.0
C120 C 0.04895 0.38482 0.10648 0.0
C121 C 1.0131 0.33426 0.08042 0.0
C122 C 0.03027 0.37515 0.07877 0.0
C123 C 1.0135 0.31893 0.09577 0.0
C124 C 0.03222 0.34441 0.10879 0.0
H125 H 0.01772 0.36923 0.02327 0.0
H126 H 0.98977 0.30847 0.04062 0.0
H127 H 0.98368 0.27872 0.06764 0.0
O128 O 0.12301 0.47929 0.09977 0.0
O129 O 1.01071 0.42234 0.09588 0.0
O130 O 0.97636 0.45356 0.09004 0.0
O131 O 0.119 0.46785 0.07419 0.0
O132 O 0.07479 0.48219 0.11234 0.0
O133 O 1.01386 0.46663 0.12168 0.0
O134 O 0.95967 0.52251 0.1051 0.0
O135 O 0.06723 0.54075 0.10682 0.0
O136 O 0.09042 0.52712 0.08351 0.0
O137 O 0.95424 0.47743 0.12126 0.0
O138 O 0.99808 0.49487 0.07839 0.0
O139 O 0.05692 0.49912 0.07014 0.0
C140 C 0.97722 0.4214 0.09304 0.0
C141 C 0.16444 0.45739 0.08891 0.0
C142 C 0.22875 0.46223 0.09146 0.0
C143 C 0.20978 0.421 0.0916 0.0
C144 C 0.14643 0.41646 0.08901 0.0
C145 C 0.16904 0.39843 0.09042 0.0
C146 C 0.20557 0.48019 0.09012 0.0
C147 C 0.04721 0.46617 0.1234 0.0
C148 C 0.14115 0.47696 0.08699 0.0
C149 C 1.00081 0.32723 0.05124 0.0
C150 C 0.9974 0.31028 0.06662 0.0
C151 C 0.09137 0.55234 0.09433 0.0
C152 C 0.89501 0.47701 0.11337 0.0
C153 C 0.83436 0.48024 0.11066 0.0
C154 C 0.81288 0.4391 0.11076 0.0
C155 C 0.87253 0.43596 0.1134 0.0
C156 C 0.87568 0.4991 0.1118 0.0
C157 C 0.83181 0.41729 0.11204 0.0
C158 C 0.02413 0.49917 0.06704 0.0
C159 C 0.93809 0.49736 0.11607 0.0
H160 H 0.22649 0.40603 0.0923 0.0
H161 H 0.11503 0.39844 0.08777 0.0
H162 H 0.15496 0.36679 0.09042 0.0
H163 H 0.21942 0.51186 0.09006 0.0
H164 H 0.78123 0.42373 0.1098 0.0
H165 H 0.88632 0.41826 0.1147 0.0
H166 H 0.89263 0.53082 0.11196 0.0
H167 H 0.81464 0.38567 0.11217 0.0
Tb168 Tb 0.61389 0.63825 0.08687 0.0
C169 C 0.49096 0.48565 0.12718 0.0
N170 N 0.53062 0.50862 0.12742 0.0
C171 C 0.52956 0.5078 0.15674 0.0
C172 C 0.46898 0.47397 0.14176 0.0
C173 C 0.55012 0.51796 0.14201 0.0
C174 C 0.48877 0.48617 0.15663 0.0
C175 C 0.43154 0.44663 0.11161 0.0
C176 C 0.47241 0.4722 0.11229 0.0
C177 C 0.40952 0.43567 0.12607 0.0
C178 C 0.42816 0.4495 0.1411 0.0
Tb179 Tb 0.56055 0.52348 0.10232 0.0
N180 N 0.49458 0.4833 0.09852 0.0
C181 C 0.41405 0.43226 0.09645 0.0
C182 C 0.47761 0.46833 0.08374 0.0
C183 C 0.43722 0.44306 0.08247 0.0
H184 H 0.58162 0.53198 0.1425 0.0
H185 H 0.42405 0.43165 0.0707 0.0
H186 H 0.62072 0.62538 0.04615 0.0
H187 H 0.72616 0.72563 0.13046 0.0
H188 H 0.49482 0.47501 0.07283 0.0
H189 H 0.38277 0.41247 0.09542 0.0
H190 H 0.65865 0.68852 0.11981 0.0
H191 H 0.54529 0.51587 0.16819 0.0
H192 H 0.3781 0.41614 0.12577 0.0
H193 H 0.41084 0.44035 0.15216 0.0
H194 H 0.67164 0.63417 0.02695 0.0
H195 H 0.47295 0.47781 0.16808 0.0
H196 H 0.78172 0.73547 0.11306 0.0
N197 N 0.65861 0.6472 0.06675 0.0
C198 C 0.69688 0.66736 0.0715 0.0
C199 C 0.67911 0.64296 0.03955 0.0
C200 C 0.72749 0.67428 0.06064 0.0
C201 C 0.64983 0.63698 0.05072 0.0
C202 C 0.71805 0.66107 0.04459 0.0
N203 N 0.67538 0.67486 0.09736 0.0
C204 C 0.68246 0.6915 0.11245 0.0
C205 C 0.74474 0.70373 0.09259 0.0
C206 C 0.70561 0.68228 0.0872 0.0
C207 C 0.75206 0.71879 0.10846 0.0
C208 C 0.72078 0.71312 0.11835 0.0
H209 H 0.74069 0.66588 0.03586 0.0
H210 H 0.79035 0.7002 0.05789 0.0
H211 H 0.80541 0.72577 0.0859 0.0
O212 O 0.60651 0.6837 0.09666 0.0
O213 O 0.64886 0.61422 0.09777 0.0
O214 O 0.61174 0.55507 0.08696 0.0
O215 O 0.62222 0.68465 0.07162 0.0
O216 O 0.58579 0.62075 0.11046 0.0
O217 O 0.5972 0.57256 0.11976 0.0
O218 O 0.54854 0.46746 0.09473 0.0
O219 O 0.524 0.55083 0.10322 0.0
O220 O 0.54913 0.60263 0.08438 0.0
O221 O 0.58972 0.49731 0.11389 0.0
O222 O 0.55763 0.52941 0.07535 0.0
O223 O 0.57947 0.59501 0.06825 0.0
C224 C 0.64494 0.58056 0.09336 0.0
C225 C 0.57602 0.70415 0.07751 0.0
C226 C 0.53871 0.7385 0.07886 0.0
C227 C 0.50997 0.70942 0.06878 0.0
C228 C 0.5468 0.67564 0.06746 0.0
C229 C 0.51403 0.67828 0.06318 0.0
C230 C 0.57191 0.73565 0.08318 0.0
C231 C 0.59572 0.60518 0.12223 0.0
C232 C 0.60964 0.69974 0.0825 0.0
C233 C 0.76654 0.69491 0.06604 0.0
C234 C 0.77514 0.70957 0.08197 0.0
C235 C 0.52016 0.57442 0.09295 0.0
C236 C 0.5526 0.42697 0.1149 0.0
C237 C 0.52418 0.35527 0.11532 0.0
C238 C 0.51665 0.35562 0.13206 0.0
C239 C 0.54505 0.42602 0.13166 0.0
C240 C 0.54244 0.39136 0.10678 0.0
C241 C 0.52707 0.39063 0.14011 0.0
C242 C 0.56217 0.55713 0.06483 0.0
C243 C 0.57049 0.46461 0.10576 0.0
H244 H 0.48452 0.71106 0.06497 0.0
H245 H 0.54924 0.65121 0.06287 0.0
H246 H 0.49175 0.65617 0.05542 0.0
H247 H 0.59414 0.75746 0.09108 0.0
H248 H 0.50339 0.32876 0.13909 0.0
H249 H 0.55318 0.45257 0.13833 0.0
H250 H 0.54833 0.39173 0.09386 0.0
H251 H 0.52141 0.39037 0.15304 0.0
Tb252 Tb 0.99253 0.42096 0.92543 0.0
C253 C 0.02512 0.56191 0.882 0.0
N254 N 0.04495 0.54196 0.88256 0.0
C255 C 0.04615 0.54066 0.85328 0.0
C256 C 1.01402 0.57103 0.86702 0.0
C257 C 0.05784 0.53373 0.86841 0.0
C258 C 0.02349 0.55876 0.85258 0.0
C259 C 1.00485 0.60277 0.8962 0.0
C260 C 0.02007 0.57715 0.89638 0.0
C261 C 0.99225 0.61063 0.88139 0.0
C262 C 0.99628 0.59432 0.86686 0.0
Tb263 Tb 0.06085 0.53079 0.90816 0.0
N264 N 0.03382 0.57 0.91033 0.0
C265 C 1.00489 0.62143 0.91074 0.0
C266 C 0.03713 0.59074 0.9242 0.0
C267 C 0.02167 0.61585 0.92474 0.0
H268 H 0.07737 0.52189 0.86868 0.0
H269 H 0.023 0.63112 0.9359 0.0
H270 H 0.02406 0.43264 0.96339 0.0
H271 H 0.98168 0.31801 0.87938 0.0
H272 H 0.05067 0.58677 0.93495 0.0
H273 H 0.99347 0.64136 0.91112 0.0
H274 H 0.963 0.36165 0.89326 0.0
H275 H 0.05543 0.5329 0.84215 0.0
H276 H 0.98067 0.63041 0.88095 0.0
H277 H 0.98749 0.60158 0.85548 0.0
H278 H 0.06506 0.41492 0.98013 0.0
H279 H 1.01535 0.56505 0.84083 0.0
H280 H 0.03052 0.30406 0.89193 0.0
N281 N 0.02831 0.40424 0.94211 0.0
C282 C 0.04025 0.38021 0.9357 0.0
C283 C 0.05862 0.40526 0.96759 0.0
C284 C 0.06355 0.36917 0.94473 0.0
C285 C 0.03564 0.4155 0.95807 0.0
C286 C 0.07312 0.38245 0.96082 0.0
N287 N 1.0046 0.37681 0.91224 0.0
C288 C 0.9862 0.35797 0.89825 0.0
C289 C 0.03912 0.34062 0.91299 0.0
C290 C 0.02855 0.36661 0.92006 0.0
C291 C 0.02332 0.3243 0.89779 0.0
C292 C 0.99597 0.3323 0.8906 0.0
H293 H 0.09098 0.37464 0.9682 0.0
H294 H 0.09419 0.33633 0.94412 0.0
H295 H 0.07251 0.311 0.91632 0.0
O296 O 0.94017 0.36586 0.9247 0.0
O297 O 0.05808 0.45347 0.92798 0.0
O298 O 0.07866 0.4877 0.90426 0.0
O299 O 0.95502 0.40265 0.94569 0.0
O300 O 0.98471 0.43119 0.89978 0.0
O301 O 0.0456 0.4801 0.89129 0.0
O302 O 0.11414 0.5641 0.9209 0.0
O303 O 1.00399 0.51444 0.91884 0.0
O304 O 0.96423 0.44958 0.91254 0.0
O305 O 0.10516 0.58336 0.89774 0.0
O306 O 0.06148 0.52196 0.93505 0.0
O307 O 1.00144 0.46769 0.94204 0.0
C308 C 0.08467 0.46987 0.91636 0.0
C309 C 0.8884 0.36985 0.93777 0.0
C310 C 0.81704 0.33255 0.93315 0.0
C311 C 0.81525 0.36595 0.93809 0.0
C312 C 0.88527 0.40276 0.94201 0.0
C313 C 0.84902 0.4007 0.94217 0.0
C314 C 0.85426 0.33498 0.93308 0.0
C315 C 1.01143 0.44799 0.88835 0.0
C316 C 0.92734 0.37236 0.93824 0.0
C317 C 0.07592 0.34489 0.93747 0.0
C318 C 0.0637 0.3306 0.92162 0.0
C319 C 0.96939 0.48465 0.91553 0.0
C320 C 0.17077 0.61442 0.9074 0.0
C321 C 0.2326 0.677 0.90913 0.0
C322 C 0.2519 0.65849 0.90226 0.0
C323 C 0.19059 0.5969 0.90041 0.0
C324 C 0.19177 0.65449 0.91165 0.0
C325 C 0.23102 0.6189 0.89789 0.0
C326 C 0.03369 0.50025 0.94576 0.0
C327 C 0.12817 0.59219 0.91022 0.0
H328 H 0.78766 0.36546 0.93911 0.0
H329 H 0.91083 0.43023 0.94538 0.0
H330 H 0.84701 0.42612 0.94569 0.0
H331 H 0.85702 0.31016 0.9293 0.0
H332 H 0.28311 0.67485 0.89991 0.0
H333 H 0.17478 0.56643 0.89684 0.0
H334 H 0.17629 0.66802 0.91702 0.0
H335 H 0.24629 0.60532 0.89244 0.0
Tb336 Tb 0.63383 0.59485 0.9234 0.0
C337 C 0.48619 0.46927 0.88447 0.0
N338 N 0.50511 0.50894 0.88291 0.0
C339 C 0.49999 0.50253 0.85378 0.0
C340 C 0.47402 0.44465 0.87068 0.0
C341 C 0.51142 0.52578 0.86782 0.0
C342 C 0.48142 0.46182 0.8552 0.0
C343 C 0.45945 0.41236 0.90219 0.0
C344 C 0.4791 0.45329 0.9 0.0
C345 C 0.44748 0.38771 0.88849 0.0
C346 C 0.45481 0.40381 0.87277 0.0
Tb347 Tb 0.52254 0.54335 0.90685 0.0
N348 N 0.49266 0.4781 0.91297 0.0
C349 C 0.45254 0.39752 0.91808 0.0
C350 C 0.48451 0.46374 0.92849 0.0
C351 C 0.46492 0.42333 0.93128 0.0
H352 H 0.52447 0.5571 0.86649 0.0
H353 H 0.45903 0.4121 0.94361 0.0
H354 H 0.64338 0.57989 0.96254 0.0
H355 H 0.69209 0.72818 0.88801 0.0
H356 H 0.49263 0.48315 0.93876 0.0
H357 H 0.43714 0.36626 0.92029 0.0
H358 H 0.6626 0.65721 0.89214 0.0
H359 H 0.50522 0.51603 0.84187 0.0
H360 H 0.43258 0.35617 0.88992 0.0
H361 H 0.44537 0.38442 0.86232 0.0
H362 H 0.66436 0.619 0.98784 0.0
H363 H 0.47254 0.44392 0.8443 0.0
H364 H 0.71292 0.77258 0.91185 0.0
N365 N 0.65663 0.62841 0.94731 0.0
C366 C 0.67338 0.66794 0.94629 0.0
C367 C 0.66673 0.63313 0.97625 0.0
C368 C 0.68667 0.6917 0.96032 0.0
C369 C 0.65411 0.61089 0.96195 0.0
C370 C 0.68275 0.67371 0.97546 0.0
N371 N 0.66416 0.66052 0.91788 0.0
C372 C 0.67057 0.67585 0.90256 0.0
C373 C 0.69522 0.72558 0.92936 0.0
C374 C 0.67769 0.68465 0.93105 0.0
C375 C 0.6997 0.74128 0.91369 0.0
C376 C 0.68783 0.7163 0.90022 0.0
H377 H 0.69259 0.6909 0.98654 0.0
H378 H 0.71379 0.75125 0.96941 0.0
H379 H 0.72116 0.78092 0.94228 0.0
O380 O 0.67637 0.59534 0.90783 0.0
O381 O 0.60207 0.62826 0.92501 0.0
O382 O 0.5562 0.60673 0.90419 0.0
O383 O 0.67951 0.58905 0.93381 0.0
O384 O 0.61615 0.57327 0.89862 0.0
O385 O 0.56808 0.58387 0.88922 0.0
O386 O 0.47646 0.54093 0.92085 0.0
O387 O 0.55357 0.50969 0.90596 0.0
O388 O 0.59857 0.53138 0.92706 0.0
O389 O 0.4736 0.5397 0.89477 0.0
O390 O 0.53292 0.55637 0.93354 0.0
O391 O 0.58988 0.55614 0.94066 0.0
C392 C 0.57862 0.63311 0.91496 0.0
C393 C 0.73754 0.60861 0.91866 0.0
C394 C 0.79525 0.60112 0.91619 0.0
C395 C 0.81885 0.64225 0.91595 0.0
C396 C 0.76136 0.6494 0.91841 0.0
C397 C 0.80196 0.6661 0.91708 0.0
C398 C 0.75448 0.58465 0.9176 0.0
C399 C 0.60279 0.58673 0.88732 0.0
C400 C 0.69484 0.58965 0.91972 0.0
C401 C 0.7036 0.7325 0.95876 0.0
C402 C 0.70782 0.7494 0.94332 0.0
C403 C 0.57553 0.50433 0.91656 0.0
C404 C 0.43503 0.56135 0.90868 0.0
C405 C 0.37381 0.56296 0.91259 0.0
C406 C 0.39452 0.60302 0.90831 0.0
C407 C 0.45474 0.60126 0.90479 0.0
C408 C 0.39477 0.54239 0.91272 0.0
C409 C 0.43451 0.62189 0.90462 0.0
C410 C 0.55545 0.55189 0.94434 0.0
C411 C 0.45558 0.53866 0.90819 0.0
H412 H 0.85042 0.656 0.91509 0.0
H413 H 0.74859 0.66814 0.91921 0.0
H414 H 0.82044 0.69765 0.91691 0.0
H415 H 0.73572 0.55306 0.91759 0.0
H416 H 0.37981 0.61992 0.90748 0.0
H417 H 0.48561 0.61631 0.90172 0.0
H418 H 0.38001 0.51167 0.916 0.0
H419 H 0.44978 0.65262 0.90139 0.0
Tb420 Tb 0.461 0.05747 0.9283 0.0
C421 C 0.6002 0.05408 0.89361 0.0
N422 N 0.5623 0.03476 0.88863 0.0
C423 C 0.58285 0.05327 0.86093 0.0
C424 C 0.63106 0.07419 0.8824 0.0
C425 C 0.55328 0.03345 0.87248 0.0
C426 C 0.62192 0.07389 0.86591 0.0
C427 C 0.64696 0.07233 0.91563 0.0
C428 C 0.6079 0.05345 0.91001 0.0
C429 C 0.67784 0.09267 0.90456 0.0
C430 C 0.66991 0.09369 0.88799 0.0
Tb431 Tb 0.51627 1.00328 0.90841 0.0
N432 N 0.57722 0.03303 0.92032 0.0
C433 C 0.65387 0.06897 0.93209 0.0
C434 C 0.58436 0.02612 0.93592 0.0
C435 C 0.62244 0.04507 0.9422 0.0
H436 H 0.52338 0.01645 0.86836 0.0
H437 H 0.62759 0.04022 0.95471 0.0
H438 H 0.48506 0.07129 0.96783 0.0
H439 H 0.32117 0.01384 0.90076 0.0
H440 H 0.56132 1.00467 0.94344 0.0
H441 H 0.6834 0.0831 0.9369 0.0
H442 H 0.39363 0.05185 0.90301 0.0
H443 H 0.5755 0.05227 0.84816 0.0
H444 H 0.70798 0.10697 0.90863 0.0
H445 H 0.69404 0.10931 0.87958 0.0
H446 H 0.45136 0.04401 0.99398 0.0
H447 H 0.64479 0.08906 0.85693 0.0
H448 H 0.28168 0.97396 0.92419 0.0
N449 N 0.43344 0.03887 0.95365 0.0
C450 C 0.39383 0.01576 0.95394 0.0
C451 C 0.43499 0.03545 0.98277 0.0
C452 C 0.37336 0.99994 0.96859 0.0
C453 C 0.45401 0.05049 0.96789 0.0
C454 C 0.39469 1.00927 0.9831 0.0
N455 N 0.39468 0.02838 0.92603 0.0
C456 C 0.37652 0.03212 0.91263 0.0
C457 C 0.3324 0.98977 0.93936 0.0
C458 C 0.37362 1.01058 0.93959 0.0
C459 C 0.31336 0.98944 0.92491 0.0
C460 C 0.33556 0.01173 0.91162 0.0
H461 H 0.38011 0.99761 0.99463 0.0
H462 H 0.31605 0.96388 0.97944 0.0
H463 H 0.28007 0.95506 0.95377 0.0
O464 O 0.47438 0.10985 0.91615 0.0
O465 O 0.42717 0.99238 0.9273 0.0
O466 O 0.45291 0.97199 0.90652 0.0
O467 O 0.45408 0.09989 0.94098 0.0
O468 O 0.45676 0.05175 0.90166 0.0
O469 O 0.47998 0.01245 0.89008 0.0
O470 O 0.52234 0.95557 0.91661 0.0
O471 O 0.54079 0.06681 0.90503 0.0
O472 O 0.52512 0.08495 0.92903 0.0
O473 O 0.51242 0.96127 0.89148 0.0
O474 O 0.49848 0.99391 0.93476 0.0
O475 O 0.50548 0.05316 0.94213 0.0
C476 C 0.42521 0.96567 0.917 0.0
C477 C 0.50315 0.16358 0.93416 0.0
C478 C 0.53937 0.23505 0.93283 0.0
C479 C 0.5682 0.23543 0.94305 0.0
C480 C 0.53187 0.1648 0.94466 0.0
C481 C 0.56426 0.20052 0.94898 0.0
C482 C 0.50682 0.19882 0.92835 0.0
C483 C 0.46302 0.03439 0.88917 0.0
C484 C 0.46963 0.12553 0.92933 0.0
C485 C 0.33229 0.97676 0.96833 0.0
C486 C 0.3118 0.97171 0.95371 0.0
C487 C 0.54925 0.09251 0.91672 0.0
C488 C 0.55108 0.93187 0.8975 0.0
C489 C 0.57872 0.88786 0.89916 0.0
C490 C 0.60676 0.91147 0.8874 0.0
C491 C 0.57987 0.95465 0.88597 0.0
C492 C 0.55071 0.89845 0.90414 0.0
C493 C 0.60745 0.94457 0.88104 0.0
C494 C 0.50346 0.02007 0.94603 0.0
C495 C 0.52055 0.94189 0.90206 0.0
H496 H 0.59327 0.26284 0.94684 0.0
H497 H 0.52913 0.1381 0.94961 0.0
H498 H 0.58614 0.20118 0.95712 0.0
H499 H 0.48452 0.19803 0.92038 0.0
H500 H 0.62787 0.90399 0.88273 0.0
H501 H 0.58077 0.97992 0.88045 0.0
H502 H 0.52865 0.88087 0.91309 0.0
H503 H 0.62915 0.96218 0.87198 0.0
Tb504 Tb 0.10808 0.33491 0.41674 0.0
C505 C 0.25206 0.35934 0.46098 0.0
N506 N 0.23059 0.37765 0.46149 0.0
C507 C 0.23233 0.37755 0.49075 0.0
C508 C 0.26434 0.34917 0.47539 0.0
C509 C 0.22135 0.38762 0.47613 0.0
C510 C 0.25376 0.35809 0.49039 0.0
C511 C 0.28586 0.33385 0.44478 0.0
C512 C 0.26234 0.35135 0.4459 0.0
C513 C 0.29807 0.32353 0.45909 0.0
C514 C 0.28713 0.33094 0.47436 0.0
Tb515 Tb 0.21525 0.3928 0.43668 0.0
N516 N 0.24876 0.36038 0.43229 0.0
C517 C 0.29654 0.32746 0.42932 0.0
C518 C 0.26006 0.35533 0.41719 0.0
C519 C 0.2836 0.33826 0.41546 0.0
H520 H 0.20643 0.40429 0.47664 0.0
H521 H 0.2922 0.33397 0.40345 0.0
H522 H 0.11342 0.32289 0.37675 0.0
H523 H 0.04337 0.40482 0.45149 0.0
H524 H 0.25148 0.36491 0.40649 0.0
H525 H 0.31524 0.3148 0.42798 0.0
H526 H 0.07409 0.36434 0.44763 0.0
H527 H 0.22476 0.38534 0.50229 0.0
H528 H 0.31595 0.30978 0.45848 0.0
H529 H 0.2968 0.32286 0.48529 0.0
H530 H 0.09757 0.34585 0.35149 0.0
H531 H 0.26254 0.35068 0.50174 0.0
H532 H 0.02741 0.43231 0.42751 0.0
N533 N 0.09345 0.35251 0.39237 0.0
C534 C 0.07571 0.37446 0.39332 0.0
C535 C 0.09158 0.35433 0.36318 0.0
C536 C 0.06605 0.38804 0.37916 0.0
C537 C 0.10082 0.34168 0.37756 0.0
C538 C 0.07445 0.37788 0.36396 0.0
N539 N 0.07778 0.37035 0.42195 0.0
C540 C 0.06822 0.37672 0.43717 0.0
C541 C 0.04924 0.4064 0.41014 0.0
C542 C 0.06726 0.3834 0.40859 0.0
C543 C 0.04115 0.41465 0.42578 0.0
C544 C 0.05029 0.39935 0.43935 0.0
H545 H 0.0675 0.38773 0.35278 0.0
H546 H 0.04083 0.42206 0.36987 0.0
H547 H 0.02627 0.43828 0.39701 0.0
O548 O 0.05707 0.29243 0.42883 0.0
O549 O 0.14121 0.4004 0.41598 0.0
O550 O 0.17938 0.42002 0.4391 0.0
O551 O 0.06762 0.28588 0.40353 0.0
O552 O 0.11947 0.32584 0.44193 0.0
O553 O 0.16582 0.38375 0.45285 0.0
O554 O 0.26112 0.43827 0.42326 0.0
O555 O 0.18747 0.32829 0.43628 0.0
O556 O 0.1423 0.30493 0.41513 0.0
O557 O 0.26236 0.43856 0.44939 0.0
O558 O 0.20881 0.39711 0.40972 0.0
O559 O 0.15445 0.33941 0.40127 0.0
C560 C 0.16152 0.42696 0.42721 0.0
C561 C 1.00224 0.25011 0.41235 0.0
C562 C 0.94104 0.18733 0.41081 0.0
C563 C 0.92469 0.20603 0.40169 0.0
C564 C 0.98528 0.26817 0.4035 0.0
C565 C 0.94649 0.24615 0.3983 0.0
C566 C 0.97994 0.21019 0.41629 0.0
C567 C 0.13157 0.35098 0.45391 0.0
C568 C 0.04426 0.2704 0.41589 0.0
C569 C 0.04831 0.41121 0.38062 0.0
C570 C 0.03998 0.42041 0.39607 0.0
C571 C 0.16582 0.30121 0.42551 0.0
C572 C 0.30145 0.49956 0.43612 0.0
C573 C 0.36262 0.56236 0.43255 0.0
C574 C 0.34218 0.58165 0.4373 0.0
C575 C 0.28199 0.51961 0.44064 0.0
C576 C 0.34162 0.52094 0.432 0.0
C577 C 0.30233 0.56044 0.44123 0.0
C578 C 0.18832 0.37068 0.39842 0.0
C579 C 0.281 0.45638 0.4362 0.0
H580 H 0.89533 0.1897 0.3968 0.0
H581 H 1.00226 0.29886 0.40026 0.0
H582 H 0.93355 0.25999 0.39124 0.0
H583 H 0.99349 0.19698 0.42339 0.0
H584 H 0.35711 0.61324 0.43837 0.0
H585 H 0.2513 0.50368 0.44394 0.0
H586 H 0.35636 0.50515 0.42837 0.0
H587 H 0.28727 0.57574 0.44502 0.0
Tb588 Tb 0.74278 0.80468 0.4203 0.0
C589 C 0.70927 0.92019 0.4624 0.0
N590 N 0.69435 0.88081 0.46341 0.0
C591 C 0.69723 0.88504 0.49263 0.0
C592 C 0.71871 0.94357 0.47653 0.0
C593 C 0.68734 0.8629 0.47829 0.0
C594 C 0.71316 0.92557 0.49175 0.0
C595 C 0.72579 0.9769 0.44558 0.0
C596 C 0.71396 0.93692 0.44711 0.0
C597 C 0.73547 1.00042 0.45958 0.0
C598 C 0.73246 0.9839 0.47501 0.0
Tb599 Tb 0.6785 0.8484 0.439 0.0
N600 N 0.70572 0.91362 0.43376 0.0
C601 C 0.72624 0.99168 0.43005 0.0
C602 C 0.70666 0.92815 0.41857 0.0
C603 C 0.71715 0.96737 0.41647 0.0
H604 H 0.67308 0.83145 0.47931 0.0
H605 H 0.71719 0.97856 0.40442 0.0
H606 H 0.76645 0.82676 0.38126 0.0
H607 H 0.66872 0.6657 0.45186 0.0
H608 H 0.69755 0.9094 0.40806 0.0
H609 H 0.73274 0.0216 0.42845 0.0
H610 H 0.70776 0.73747 0.44975 0.0
H611 H 0.69185 0.87071 0.50436 0.0
H612 H 0.74505 0.03134 0.45862 0.0
H613 H 0.73987 1.00235 0.48572 0.0
H614 H 0.74986 0.79177 0.35497 0.0
H615 H 0.7202 0.94253 0.50289 0.0
H616 H 0.64787 0.62527 0.42683 0.0
N617 N 0.73206 0.77549 0.39531 0.0
C618 C 0.71038 0.73575 0.39527 0.0
C619 C 0.73823 0.77566 0.36621 0.0
C620 C 0.7009 0.71437 0.38059 0.0
C621 C 0.74698 0.79552 0.3811 0.0
C622 C 0.71473 0.73492 0.36592 0.0
N623 N 0.70775 0.73825 0.42394 0.0
C624 C 0.69847 0.72045 0.43881 0.0
C625 C 0.67611 0.67521 0.41063 0.0
C626 C 0.69828 0.71641 0.41008 0.0
C627 C 0.66494 0.65688 0.42586 0.0
C628 C 0.67654 0.67961 0.44001 0.0
H629 H 0.70805 0.7196 0.35437 0.0
H630 H 0.67056 0.65634 0.36988 0.0
H631 H 0.64877 0.62206 0.39619 0.0
O632 O 0.7831 0.79526 0.4337 0.0
O633 O 0.67732 0.76971 0.41808 0.0
O634 O 0.6546 0.78584 0.44085 0.0
O635 O 0.79566 0.8174 0.40916 0.0
O636 O 0.74792 0.82382 0.44559 0.0
O637 O 0.68782 0.80821 0.45526 0.0
O638 O 0.63146 0.84605 0.42585 0.0
O639 O 0.74242 0.8868 0.4402 0.0
O640 O 0.77004 0.86917 0.41918 0.0
O641 O 0.63105 0.8458 0.45203 0.0
O642 O 0.6781 0.84005 0.41184 0.0
O643 O 0.73743 0.84543 0.40447 0.0
C644 C 0.64909 0.76234 0.42865 0.0
C645 C 0.82853 0.78518 0.4183 0.0
C646 C 0.8909 0.78562 0.41709 0.0
C647 C 0.87192 0.75059 0.40796 0.0
C648 C 0.81028 0.75008 0.40951 0.0
C649 C 0.83193 0.73279 0.40446 0.0
C650 C 0.86837 0.8023 0.42239 0.0
C651 C 0.72133 0.80832 0.45695 0.0
C652 C 0.80825 0.80706 0.42175 0.0
C653 C 0.67832 0.67329 0.38104 0.0
C654 C 0.66595 0.65376 0.39603 0.0
C655 C 0.77005 0.89528 0.42933 0.0
C656 C 0.56979 0.82341 0.43864 0.0
C657 C 0.50709 0.82083 0.43368 0.0
C658 C 0.48762 0.78114 0.43837 0.0
C659 C 0.54967 0.78407 0.44339 0.0
C660 C 0.54845 0.84173 0.43383 0.0
C661 C 0.50878 0.76308 0.44322 0.0
C662 C 0.70642 0.84829 0.40107 0.0
C663 C 0.61294 0.84649 0.4389 0.0
H664 H 0.88793 0.73714 0.40314 0.0
H665 H 0.77972 0.73664 0.4062 0.0
H666 H 0.81789 0.70599 0.39742 0.0
H667 H 0.88172 0.82905 0.42947 0.0
H668 H 0.45594 0.76422 0.4387 0.0
H669 H 0.56559 0.76986 0.44739 0.0
H670 H 0.56412 0.87227 0.43021 0.0
H671 H 0.49332 0.73273 0.44699 0.0
Tb672 Tb 0.27311 0.96893 0.4214 0.0
C673 C 0.15319 0.81806 0.46208 0.0
N674 N 0.19182 0.84429 0.46418 0.0
C675 C 0.1817 0.84547 0.49296 0.0
C676 C 0.12724 0.80412 0.47544 0.0
C677 C 0.20649 0.85776 0.47938 0.0
C678 C 0.1419 0.8185 0.49099 0.0
C679 C 0.10043 0.77611 0.44385 0.0
C680 C 0.13981 0.80505 0.44643 0.0
C681 C 0.07453 0.76158 0.45715 0.0
C682 C 0.08777 0.77595 0.47287 0.0
Tb683 Tb 0.22962 0.85989 0.44133 0.0
N684 N 0.16561 0.82029 0.43382 0.0
C685 C 0.08845 0.7621 0.42804 0.0
C686 C 0.1538 0.80661 0.41836 0.0
C687 C 0.11511 0.77774 0.41522 0.0
H688 H 0.23743 0.87723 0.48122 0.0
H689 H 0.10614 0.76682 0.40296 0.0
H690 H 0.30351 0.95699 0.3849 0.0
H691 H 0.34898 0.08444 0.46576 0.0
H692 H 0.17403 0.81625 0.40838 0.0
H693 H 0.0588 0.73892 0.42561 0.0
H694 H 0.291 0.0312 0.45235 0.0
H695 H 0.19344 0.85629 0.50498 0.0
H696 H 0.04418 0.73926 0.4554 0.0
H697 H 0.0674 0.76467 0.48298 0.0
H698 H 0.36663 0.98091 0.37066 0.0
H699 H 0.12287 0.80862 0.50157 0.0
H700 H 0.41529 0.10254 0.45625 0.0
N701 N 0.32941 0.98754 0.4069 0.0
C702 C 0.36296 0.01441 0.41443 0.0
C703 C 0.36603 0.99031 0.383 0.0
C704 C 0.39967 0.02879 0.40674 0.0
C705 C 0.33031 0.97686 0.39106 0.0
C706 C 0.40091 0.01583 0.39098 0.0
N707 N 0.32407 0.01666 0.43602 0.0
C708 C 0.31975 0.03775 0.4483 0.0
C709 C 0.39418 0.05973 0.43679 0.0
C710 C 0.36019 0.02915 0.42947 0.0
C711 C 0.38997 0.07867 0.45039 0.0
C712 C 0.35255 0.06848 0.45582 0.0
H713 H 0.42855 0.02626 0.38469 0.0
H714 H 0.46224 0.06781 0.4091 0.0
H715 H 0.4574 0.0953 0.4353 0.0
O716 O 0.26249 0.01703 0.42236 0.0
O717 O 0.30717 0.93756 0.41853 0.0
O718 O 0.29096 0.90339 0.44205 0.0
O719 O 0.27062 0.99464 0.39943 0.0
O720 O 0.25806 0.96118 0.44759 0.0
O721 O 0.26958 0.91182 0.45642 0.0
O722 O 0.23134 0.81052 0.432 0.0
O723 O 0.19361 0.88753 0.44431 0.0
O724 O 0.20859 0.93044 0.42259 0.0
O725 O 0.24286 0.82613 0.45714 0.0
O726 O 0.23907 0.86575 0.41421 0.0
O727 O 0.23047 0.91775 0.40831 0.0
C728 C 0.31279 0.91579 0.42914 0.0
C729 C 0.25977 0.04977 0.39722 0.0
C730 C 0.24537 0.10331 0.39553 0.0
C731 C 0.25325 0.10617 0.37872 0.0
C732 C 0.26727 0.05324 0.38037 0.0
C733 C 0.26397 0.08122 0.37122 0.0
C734 C 0.24843 0.07476 0.40477 0.0
C735 C 0.26851 0.94461 0.45899 0.0
C736 C 0.26435 0.02025 0.40659 0.0
C737 C 0.43375 0.05677 0.41472 0.0
C738 C 0.431 0.07231 0.42968 0.0
C739 C 0.18374 0.90546 0.43345 0.0
C740 C 0.20786 0.75792 0.45116 0.0
C741 C 0.17819 0.68653 0.44718 0.0
C742 C 0.15514 0.68074 0.46116 0.0
C743 C 0.18443 0.75045 0.46512 0.0
C744 C 0.20478 0.72561 0.44223 0.0
C745 C 0.15818 0.71232 0.46994 0.0
C746 C 0.23429 0.88831 0.40353 0.0
C747 C 0.23583 0.79927 0.44634 0.0
H748 H 0.25075 0.1276 0.37133 0.0
H749 H 0.27594 0.03443 0.37421 0.0
H750 H 0.26983 0.08363 0.35826 0.0
H751 H 0.24259 0.07245 0.41775 0.0
H752 H 0.13529 0.65156 0.46568 0.0
H753 H 0.18662 0.77405 0.47257 0.0
H754 H 0.22291 0.73091 0.43154 0.0
H755 H 0.14049 0.7072 0.48075 0.0
Tb756 Tb 0.6673 0.75206 0.26122 0.0
C757 C 0.68751 0.89545 0.21652 0.0
N758 N 0.706 0.8742 0.21642 0.0
C759 C 0.70417 0.87275 0.18715 0.0
C760 C 0.67636 0.90606 0.20192 0.0
C761 C 0.71549 0.8638 0.20195 0.0
C762 C 0.68426 0.89375 0.18712 0.0
C763 C 0.66528 0.93289 0.23206 0.0
C764 C 0.68186 0.9085 0.23131 0.0
C765 C 0.65353 0.94314 0.2176 0.0
C766 C 0.65883 0.92954 0.20256 0.0
Tb767 Tb 0.72356 0.86166 0.24138 0.0
N768 N 0.69288 0.89727 0.24502 0.0
C769 C 0.66145 0.94653 0.24728 0.0
C770 C 0.68952 0.91076 0.2599 0.0
C771 C 0.67367 0.93544 0.26127 0.0
H772 H 0.7327 0.84945 0.20169 0.0
H773 H 0.67132 0.94623 0.2731 0.0
H774 H 0.7063 0.76184 0.29819 0.0
H775 H 0.65707 0.65568 0.21234 0.0
H776 H 0.69938 0.90293 0.27072 0.0
H777 H 0.64955 0.96595 0.24832 0.0
H778 H 0.63447 0.69137 0.22965 0.0
H779 H 0.71146 0.86408 0.17575 0.0
H780 H 0.64049 0.96168 0.21792 0.0
H781 H 0.65 0.93797 0.19148 0.0
H782 H 0.75395 0.74779 0.31161 0.0
H783 H 0.6761 0.9012 0.17563 0.0
H784 H 0.7164 0.65295 0.22009 0.0
N785 N 0.71036 0.73944 0.27519 0.0
C786 C 0.72588 0.72085 0.26664 0.0
C787 C 0.74644 0.74021 0.29893 0.0
C788 C 0.75363 0.71271 0.2737 0.0
C789 C 0.7193 0.74802 0.29133 0.0
C790 C 0.76411 0.72298 0.29001 0.0
N791 N 0.6843 0.71548 0.24501 0.0
C792 C 0.6622 0.6935 0.23222 0.0
C793 C 0.72621 0.68748 0.24195 0.0
C794 C 0.71301 0.7093 0.25087 0.0
C795 C 0.70746 0.67022 0.22728 0.0
C796 C 0.67426 0.67198 0.22274 0.0
H797 H 0.7853 0.71719 0.2959 0.0
H798 H 0.79104 0.68783 0.26951 0.0
H799 H 0.76648 0.66507 0.24175 0.0
O800 O 0.61279 0.69956 0.25801 0.0
O801 O 0.73202 0.79132 0.26415 0.0
O802 O 0.74548 0.82129 0.23976 0.0
O803 O 0.63815 0.71859 0.28203 0.0
O804 O 0.65323 0.76098 0.23619 0.0
O805 O 0.7116 0.81015 0.22603 0.0
O806 O 0.77049 0.91141 0.25291 0.0
O807 O 0.65951 0.83435 0.24244 0.0
O808 O 0.63528 0.78501 0.26221 0.0
O809 O 0.77332 0.90005 0.22771 0.0
O810 O 0.725 0.85716 0.26881 0.0
O811 O 0.67183 0.79753 0.27718 0.0
C812 C 0.75744 0.81108 0.25259 0.0
C813 C 0.57539 0.65773 0.28097 0.0
C814 C 0.50763 0.6031 0.28019 0.0
C815 C 0.51283 0.59211 0.29588 0.0
C816 C 0.57947 0.64605 0.29667 0.0
C817 C 0.5484 0.61347 0.30403 0.0
C818 C 0.53914 0.63624 0.27276 0.0
C819 C 0.67714 0.77807 0.22385 0.0
C820 C 0.60908 0.6925 0.27353 0.0
C821 C 0.76929 0.6939 0.26438 0.0
C822 C 0.75553 0.6812 0.24853 0.0
C823 C 0.63306 0.81192 0.25327 0.0
C824 C 0.80248 0.96713 0.23511 0.0
C825 C 0.84616 0.03865 0.23827 0.0
C826 C 0.82592 0.04435 0.22539 0.0
C827 C 0.78384 0.97473 0.22219 0.0
C828 C 0.83425 0.99951 0.24309 0.0
C829 C 0.79516 0.01279 0.21752 0.0
C830 C 0.70028 0.83328 0.28017 0.0
C831 C 0.78966 0.92544 0.23936 0.0
H832 H 0.48909 0.56706 0.30195 0.0
H833 H 0.60684 0.66203 0.30326 0.0
H834 H 0.5519 0.60473 0.31614 0.0
H835 H 0.53552 0.64502 0.26066 0.0
H836 H 0.8346 0.07349 0.221 0.0
H837 H 0.761 0.95125 0.21527 0.0
H838 H 0.84953 0.9943 0.25287 0.0
H839 H 0.78044 0.01785 0.20747 0.0
Tb840 Tb 0.30924 0.93155 0.25731 0.0
C841 C 0.1663 0.80714 0.22072 0.0
N842 N 0.1808 0.84646 0.22008 0.0
C843 C 0.17628 0.84313 0.19085 0.0
C844 C 0.15799 0.78451 0.20642 0.0
C845 C 0.18328 0.8641 0.2054 0.0
C846 C 0.16439 0.8033 0.19134 0.0
C847 C 0.13788 0.74801 0.23707 0.0
C848 C 0.15644 0.78908 0.23577 0.0
C849 C 0.13161 0.72548 0.22295 0.0
C850 C 0.14182 0.74372 0.20765 0.0
Tb851 Tb 0.1946 0.87793 0.24484 0.0
N852 N 0.16313 0.81185 0.24912 0.0
C853 C 0.12492 0.7309 0.25244 0.0
C854 C 0.1482 0.79525 0.26396 0.0
C855 C 0.12965 0.7546 0.26591 0.0
H856 H 0.19071 0.89445 0.20481 0.0
H857 H 0.11879 0.74156 0.27775 0.0
H858 H 0.30706 0.9471 0.29678 0.0
H859 H 0.38283 0.03323 0.20785 0.0
H860 H 0.15166 0.81359 0.27434 0.0
H861 H 0.10998 0.6994 0.25394 0.0
H862 H 0.35572 0.96967 0.22196 0.0
H863 H 0.17949 0.85757 0.17927 0.0
H864 H 0.11785 0.69388 0.22368 0.0
H865 H 0.1357 0.72589 0.19681 0.0
H866 H 0.32041 1.00257 0.31482 0.0
H867 H 0.15843 0.78701 0.18006 0.0
H868 H 0.391 0.09141 0.22263 0.0
N869 N 0.32462 0.98144 0.27527 0.0
C870 C 0.34146 0.01806 0.26887 0.0
C871 C 0.32613 1.0073 0.30187 0.0
C872 C 0.34942 0.05067 0.27859 0.0
C873 C 0.31828 0.9758 0.29163 0.0
C874 C 0.34122 0.04484 0.29529 0.0
N875 N 0.34257 0.99007 0.2437 0.0
C876 C 0.35666 0.99414 0.22821 0.0
C877 C 0.36723 0.05975 0.24517 0.0
C878 C 0.34998 0.02238 0.25243 0.0
C879 C 0.37789 0.0633 0.22874 0.0
C880 C 0.3733 0.03047 0.22034 0.0
H881 H 0.34692 0.06912 0.30321 0.0
H882 H 0.37097 0.11318 0.27851 0.0
H883 H 0.38669 0.12118 0.24919 0.0
O884 O 0.36901 0.94819 0.25465 0.0
O885 O 0.26999 0.95613 0.26247 0.0
O886 O 0.23025 0.94032 0.24025 0.0
O887 O 0.33306 0.90682 0.27305 0.0
O888 O 0.2947 0.91269 0.23206 0.0
O889 O 0.23888 0.91558 0.22575 0.0
O890 O 0.15959 0.89397 0.25868 0.0
O891 O 0.22106 0.84431 0.25383 0.0
O892 O 0.28378 0.87519 0.2441 0.0
O893 O 0.13786 0.86199 0.23652 0.0
O894 O 0.20826 0.88685 0.2716 0.0
O895 O 0.26955 0.89253 0.27577 0.0
C896 C 0.25226 0.96582 0.25128 0.0
C897 C 0.40187 0.93391 0.27577 0.0
C898 C 0.45624 0.92215 0.28166 0.0
C899 C 0.46554 0.94689 0.29534 0.0
C900 C 0.41179 0.95846 0.28937 0.0
C901 C 0.44361 0.96495 0.29907 0.0
C902 C 0.42418 0.91606 0.27191 0.0
C903 C 0.27271 0.91806 0.22154 0.0
C904 C 0.36704 0.92403 0.26589 0.0
C905 C 0.36515 0.08778 0.27131 0.0
C906 C 0.37398 0.0923 0.25461 0.0
C907 C 0.25078 0.843 0.24752 0.0
C908 C 0.10893 0.89908 0.24519 0.0
C909 C 0.048 0.90222 0.24575 0.0
C910 C 0.06864 0.93938 0.23832 0.0
C911 C 0.12851 0.93612 0.23788 0.0
C912 C 0.06863 0.88211 0.24906 0.0
C913 C 0.10836 0.95601 0.23443 0.0
C914 C 0.23513 0.88559 0.28108 0.0
C915 C 0.12995 0.87764 0.24877 0.0
H916 H 0.48941 0.95189 0.30335 0.0
H917 H 0.39473 0.97213 0.29257 0.0
H918 H 0.45108 0.98372 0.30966 0.0
H919 H 0.41641 0.89737 0.26126 0.0
H920 H 0.05391 0.95547 0.23522 0.0
H921 H 0.15928 0.94951 0.23478 0.0
H922 H 0.05358 0.85353 0.2548 0.0
H923 H 0.12354 0.98439 0.2286 0.0
Tb924 Tb 0.13608 0.39435 0.26063 0.0
C925 C 0.25887 0.37221 0.22116 0.0
N926 N 0.22019 0.35804 0.21809 0.0
C927 C 0.23452 0.37448 0.1898 0.0
C928 C 0.28701 0.38833 0.20862 0.0
C929 C 0.20761 0.35829 0.2026 0.0
C930 C 0.2744 0.3897 0.19283 0.0
C931 C 0.30973 0.38317 0.24055 0.0
C932 C 0.27014 0.37025 0.23699 0.0
C933 C 0.33791 0.39928 0.22811 0.0
C934 C 0.32662 0.40212 0.21221 0.0
Tb935 Tb 0.17921 0.33099 0.23985 0.0
N936 N 0.24212 0.35503 0.24879 0.0
C937 C 0.31968 0.37869 0.25644 0.0
C938 C 0.25158 0.34899 0.2641 0.0
C939 C 0.29046 0.36147 0.26825 0.0
H940 H 0.17684 0.34526 0.1999 0.0
H941 H 0.29769 0.35673 0.28045 0.0
H942 H 0.15593 0.40402 0.30045 0.0
H943 H 0.99976 0.33493 0.22732 0.0
H944 H 0.22932 0.33285 0.27303 0.0
H945 H 0.34959 0.38734 0.25961 0.0
H946 H 0.07133 0.37064 0.23045 0.0
H947 H 0.22441 0.37474 0.17757 0.0
H948 H 0.3685 0.40947 0.23063 0.0
H949 H 0.34869 0.41461 0.20274 0.0
H950 H 0.11825 0.38214 0.32607 0.0
H951 H 0.29511 0.40191 0.18286 0.0
H952 H 0.95731 0.30914 0.25168 0.0
N953 N 0.10523 0.37813 0.28533 0.0
C954 C 0.06542 0.35869 0.28476 0.0
C955 C 0.10311 0.37514 0.31453 0.0
C956 C 0.04284 0.34589 0.29913 0.0
C957 C 0.12433 0.38711 0.29996 0.0
C958 C 0.06224 0.35415 0.31413 0.0
N959 N 0.07007 0.36337 0.25604 0.0
C960 C 0.05348 0.35883 0.24105 0.0
C961 C 1.00603 0.33116 0.26853 0.0
C962 C 0.04722 0.35148 0.26966 0.0
C963 C 0.98886 0.32465 0.25308 0.0
C964 C 1.01273 0.33898 0.2393 0.0
H965 H 0.04596 0.3448 0.32545 0.0
H966 H 0.98392 0.31516 0.30897 0.0
H967 H 0.9517 0.30219 0.28219 0.0
O968 O 0.14369 0.44515 0.2486 0.0
O969 O 0.0987 0.32913 0.26086 0.0
O970 O 0.11606 0.30599 0.23841 0.0
O971 O 0.13606 0.43934 0.27443 0.0
O972 O 0.1496 0.4004 0.23453 0.0
O973 O 0.14001 0.3422 0.22375 0.0
O974 O 0.17898 0.28025 0.24878 0.0
O975 O 0.21476 0.39583 0.23893 0.0
O976 O 0.1996 0.41762 0.26238 0.0
O977 O 0.17227 0.28693 0.22339 0.0
O978 O 0.16565 0.32428 0.26665 0.0
O979 O 0.17628 0.38481 0.2752 0.0
C980 C 0.09186 0.30113 0.2503 0.0
C981 C 0.18118 0.50211 0.26455 0.0
C982 C 0.21752 0.57369 0.26116 0.0
C983 C 0.24894 0.57487 0.26985 0.0
C984 C 0.21309 0.50465 0.27321 0.0
C985 C 0.24674 0.54067 0.27571 0.0
C986 C 0.18347 0.53678 0.25852 0.0
C987 C 0.13773 0.37469 0.22264 0.0
C988 C 0.14572 0.46321 0.26217 0.0
C989 C 1.00176 0.32536 0.29807 0.0
C990 C 0.98341 0.318 0.28281 0.0
C991 C 0.22474 0.42122 0.25094 0.0
C992 C 0.20773 0.25445 0.23042 0.0
C993 C 0.23674 0.21184 0.23432 0.0
C994 C 0.26393 0.23316 0.22194 0.0
C995 C 0.23539 0.27435 0.21806 0.0
C996 C 0.20832 0.2227 0.23849 0.0
C997 C 0.26325 0.26399 0.214 0.0
C998 C 0.17337 0.35079 0.27818 0.0
C999 C 0.17795 0.26634 0.2343 0.0
H1000 H 0.27509 0.60244 0.27253 0.0
H1001 H 0.21182 0.47874 0.2783 0.0
H1002 H 0.27105 0.54217 0.28247 0.0
H1003 H 0.15894 0.53494 0.25181 0.0
H1004 H 0.2854 0.22539 0.21801 0.0
H1005 H 0.23525 0.29768 0.21123 0.0
H1006 H 0.18694 0.20673 0.24791 0.0
H1007 H 0.28419 0.27965 0.2044 0.0
Tb1008 Tb 0.76454 0.66343 0.75099 0.0
C1009 C 0.9069 0.68262 0.79239 0.0
N1010 N 0.88476 0.69975 0.79492 0.0
C1011 C 0.88282 0.6869 0.82358 0.0
C1012 C 0.91736 0.66632 0.80539 0.0
C1013 C 0.87311 0.70261 0.81029 0.0
C1014 C 0.9049 0.66853 0.82112 0.0
C1015 C 0.94114 0.66308 0.7734 0.0
C1016 C 0.91856 0.68098 0.77661 0.0
C1017 C 0.95155 0.64664 0.78629 0.0
C1018 C 0.93972 0.64829 0.80225 0.0
Tb1019 Tb 0.87114 0.72471 0.77234 0.0
N1020 N 0.90697 0.69627 0.76439 0.0
C1021 C 0.95262 0.66231 0.75734 0.0
C1022 C 0.92044 0.69794 0.74891 0.0
C1023 C 0.94261 0.68026 0.74508 0.0
H1024 H 0.85702 0.7177 0.81245 0.0
H1025 H 0.95255 0.6811 0.73271 0.0
H1026 H 0.77411 0.65096 0.71151 0.0
H1027 H 0.69143 0.72828 0.78328 0.0
H1028 H 0.9154 0.71384 0.73952 0.0
H1029 H 0.96994 0.64879 0.75434 0.0
H1030 H 0.7285 0.69358 0.78079 0.0
H1031 H 0.87347 0.68919 0.83574 0.0
H1032 H 0.96873 0.63258 0.78405 0.0
H1033 H 0.94794 0.63546 0.81207 0.0
H1034 H 0.7553 0.66835 0.68549 0.0
H1035 H 0.91234 0.65639 0.83145 0.0
H1036 H 0.67099 0.74903 0.75847 0.0
N1037 N 0.74916 0.67763 0.72608 0.0
C1038 C 0.72837 0.69663 0.72629 0.0
C1039 C 0.74781 0.67668 0.69687 0.0
C1040 C 0.71693 0.70695 0.7117 0.0
C1041 C 0.75866 0.66717 0.71166 0.0
C1042 C 0.7271 0.69687 0.69687 0.0
N1043 N 0.7308 0.69592 0.755 0.0
C1044 C 0.72051 0.70295 0.76995 0.0
C1045 C 0.6969 0.72536 0.742 0.0
C1046 C 0.71841 0.70564 0.74122 0.0
C1047 C 0.68749 0.73391 0.75733 0.0
C1048 C 0.69911 0.72238 0.77136 0.0
H1049 H 0.71887 0.70425 0.68538 0.0
H1050 H 0.68664 0.73503 0.7013 0.0
H1051 H 0.66918 0.75123 0.72784 0.0
O1052 O 0.71498 0.61812 0.76282 0.0
O1053 O 0.79346 0.72893 0.75015 0.0
O1054 O 0.83125 0.74757 0.77314 0.0
O1055 O 0.72678 0.61306 0.73764 0.0
O1056 O 0.77256 0.65589 0.77686 0.0
O1057 O 0.82018 0.7137 0.7881 0.0
O1058 O 0.92233 0.77403 0.76309 0.0
O1059 O 0.84081 0.66018 0.77356 0.0
O1060 O 0.80376 0.63868 0.7501 0.0
O1061 O 0.90782 0.77015 0.78835 0.0
O1062 O 0.86605 0.7318 0.74545 0.0
O1063 O 0.81475 0.6722 0.73697 0.0
C1064 C 0.81676 0.75632 0.76058 0.0
C1065 C 0.66115 0.57466 0.74619 0.0
C1066 C 0.59937 0.51188 0.74568 0.0
C1067 C 0.58294 0.53007 0.73626 0.0
C1068 C 0.64378 0.59204 0.73715 0.0
C1069 C 0.60482 0.56979 0.73226 0.0
C1070 C 0.6388 0.53491 0.75066 0.0
C1071 C 0.7854 0.68112 0.7889 0.0
C1072 C 0.70332 0.59617 0.74985 0.0
C1073 C 0.69562 0.72677 0.71239 0.0
C1074 C 0.68564 0.73596 0.7275 0.0
C1075 C 0.82395 0.6342 0.76189 0.0
C1076 C 0.97577 0.80038 0.78184 0.0
C1077 C 0.0474 0.84094 0.77806 0.0
C1078 C 0.0524 0.82003 0.79085 0.0
C1079 C 0.98248 0.78081 0.79467 0.0
C1080 C 1.00861 0.83094 0.77362 0.0
C1081 C 0.02032 0.79036 0.79901 0.0
C1082 C 0.84574 0.70608 0.73386 0.0
C1083 C 0.93468 0.78921 0.77744 0.0
H1084 H 0.55333 0.51359 0.73165 0.0
H1085 H 0.66054 0.62246 0.73354 0.0
H1086 H 0.59169 0.58319 0.72503 0.0
H1087 H 0.65249 0.52205 0.75788 0.0
H1088 H 0.08141 0.82727 0.79491 0.0
H1089 H 0.95851 0.75832 0.8016 0.0
H1090 H 1.004 0.84665 0.76384 0.0
H1091 H 0.02485 0.77498 0.80894 0.0
Tb1092 Tb 0.40334 0.13333 0.75261 0.0
C1093 C 0.37387 0.24925 0.79271 0.0
N1094 N 0.3623 0.21093 0.79536 0.0
C1095 C 0.37907 0.2244 0.82364 0.0
C1096 C 0.38831 0.27669 0.80553 0.0
C1097 C 0.36406 0.19806 0.81062 0.0
C1098 C 0.39125 0.26389 0.8211 0.0
C1099 C 0.38101 0.29996 0.77398 0.0
C1100 C 0.37103 0.26086 0.77702 0.0
C1101 C 0.3945 0.32719 0.78682 0.0
C1102 C 0.39871 0.31574 0.80249 0.0
Tb1103 Tb 0.33539 0.17079 0.77343 0.0
N1104 N 0.35768 0.23364 0.76488 0.0
C1105 C 0.37625 0.31032 0.7582 0.0
C1106 C 0.3517 0.24345 0.74962 0.0
C1107 C 0.36168 0.28198 0.74597 0.0
H1108 H 0.35307 0.16742 0.81299 0.0
H1109 H 0.35688 0.28949 0.73384 0.0
H1110 H 0.40376 0.14851 0.71255 0.0
H1111 H 0.38074 1.0061 0.78611 0.0
H1112 H 0.33731 0.22161 0.74038 0.0
H1113 H 0.38284 0.33986 0.75542 0.0
H1114 H 0.40554 0.07667 0.78174 0.0
H1115 H 0.38057 0.21409 0.8357 0.0
H1116 H 0.4017 0.35721 0.78478 0.0
H1117 H 0.4095 0.33719 0.81222 0.0
H1118 H 0.37867 0.10776 0.68778 0.0
H1119 H 0.40233 0.28411 0.83126 0.0
H1120 H 0.34751 0.95915 0.76362 0.0
N1121 N 0.38465 0.09975 0.72851 0.0
C1122 C 0.36919 0.06032 0.72968 0.0
C1123 C 0.37553 0.09409 0.69952 0.0
C1124 C 0.35515 0.03603 0.71583 0.0
C1125 C 0.38915 0.11702 0.71363 0.0
C1126 C 0.35797 0.0534 0.70064 0.0
N1127 N 0.38264 0.06912 0.75784 0.0
C1128 C 0.38904 0.05618 0.77226 0.0
C1129 C 0.3545 1.00409 0.74654 0.0
C1130 C 0.36848 0.04449 0.74484 0.0
C1131 C 0.35756 0.98997 0.7618 0.0
C1132 C 0.3759 0.01633 0.77459 0.0
H1133 H 0.34754 0.03581 0.68968 0.0
H1134 H 0.32829 0.97621 0.70709 0.0
H1135 H 0.32801 0.94826 0.73397 0.0
O1136 O 0.45761 0.14796 0.76341 0.0
O1137 O 0.33874 0.09181 0.75215 0.0
O1138 O 0.31011 0.10757 0.7734 0.0
O1139 O 0.44866 0.13743 0.73773 0.0
O1140 O 0.40515 0.14019 0.77933 0.0
O1141 O 0.345 0.12985 0.78866 0.0
O1142 O 0.28465 0.17151 0.76537 0.0
O1143 O 0.3999 0.20609 0.77564 0.0
O1144 O 0.42236 0.19591 0.75149 0.0
O1145 O 0.29145 0.16121 0.79041 0.0
O1146 O 0.32859 0.15758 0.74674 0.0
O1147 O 0.39039 0.17203 0.73848 0.0
C1148 C 0.3093 0.08342 0.76218 0.0
C1149 C 0.51147 0.18609 0.74608 0.0
C1150 C 0.58334 0.22338 0.74655 0.0
C1151 C 0.58203 0.25461 0.73878 0.0
C1152 C 0.51126 0.21764 0.73826 0.0
C1153 C 0.5463 0.25177 0.7348 0.0
C1154 C 0.54753 0.18912 0.75029 0.0
C1155 C 0.37714 0.12737 0.79037 0.0
C1156 C 0.47417 0.14975 0.74945 0.0
C1157 C 0.33949 0.99542 0.71757 0.0
C1158 C 0.33925 0.97949 0.73289 0.0
C1159 C 0.42522 0.21907 0.76359 0.0
C1160 C 0.25932 0.19768 0.78501 0.0
C1161 C 0.21855 0.22857 0.78155 0.0
C1162 C 0.23737 0.2522 0.79521 0.0
C1163 C 0.27695 0.22172 0.79865 0.0
C1164 C 0.22987 0.20116 0.77649 0.0
C1165 C 0.2663 0.24887 0.80357 0.0
C1166 C 0.35531 0.16621 0.73526 0.0
C1167 C 0.27097 0.16851 0.78004 0.0
H1168 H 0.60866 0.28102 0.73536 0.0
H1169 H 0.48402 0.21569 0.73457 0.0
H1170 H 0.54579 0.27589 0.72872 0.0
H1171 H 0.54757 0.16478 0.75641 0.0
H1172 H 0.22902 0.27271 0.79983 0.0
H1173 H 0.29874 0.21931 0.80576 0.0
H1174 H 0.21591 0.18261 0.76602 0.0
H1175 H 0.28011 0.26705 0.81414 0.0
Tb1176 Tb 0.94172 0.30283 0.74664 0.0
C1177 C 0.81122 0.16553 0.78876 0.0
N1178 N 0.85057 0.18216 0.79073 0.0
C1179 C 0.84267 0.18005 0.81978 0.0
C1180 C 0.78596 0.15595 0.80227 0.0
C1181 C 0.8665 0.18884 0.80598 0.0
C1182 C 0.80224 0.16373 0.81792 0.0
C1183 C 0.75559 0.14025 0.77045 0.0
C1184 C 0.79628 0.15818 0.77308 0.0
C1185 C 0.73025 0.13083 0.78385 0.0
C1186 C 0.74542 0.13882 0.79973 0.0
Tb1187 Tb 0.88649 0.19609 0.76731 0.0
N1188 N 0.82185 0.16899 0.76039 0.0
C1189 C 0.74165 0.13204 0.75443 0.0
C1190 C 0.80819 0.15918 0.74484 0.0
C1191 C 0.76807 0.14131 0.74158 0.0
H1192 H 0.89747 0.20007 0.80756 0.0
H1193 H 0.7575 0.13399 0.72919 0.0
H1194 H 0.92561 0.29347 0.70655 0.0
H1195 H 0.07508 0.36648 0.7822 0.0
H1196 H 0.82781 0.16378 0.73496 0.0
H1197 H 0.71057 0.11759 0.75188 0.0
H1198 H 1.00438 0.33861 0.77787 0.0
H1199 H 0.85547 0.18554 0.83184 0.0
H1200 H 0.6989 0.11731 0.78208 0.0
H1201 H 0.72553 0.13136 0.80995 0.0
H1202 H 0.96487 0.3037 0.68166 0.0
H1203 H 0.78384 0.15682 0.82863 0.0
H1204 H 0.11869 0.37713 0.75871 0.0
N1205 N 0.9744 0.31312 0.72254 0.0
C1206 C 1.01392 0.32932 0.72381 0.0
C1207 C 0.9789 0.31073 0.69345 0.0
C1208 C 0.03739 0.33581 0.7099 0.0
C1209 C 0.95673 0.30454 0.7076 0.0
C1210 C 0.01931 0.32605 0.6946 0.0
N1211 N 1.00707 0.33148 0.75237 0.0
C1212 C 0.02266 0.34231 0.76759 0.0
C1213 C 0.07164 0.35542 0.74104 0.0
C1214 C 0.03089 0.33923 0.73918 0.0
C1215 C 0.08753 0.36477 0.75674 0.0
C1216 C 0.06297 0.3586 0.77005 0.0
H1217 H 0.0363 0.33058 0.6836 0.0
H1218 H 0.0965 0.35674 0.70116 0.0
H1219 H 0.12643 0.37368 0.72843 0.0
O1220 O 0.9383 0.34945 0.75773 0.0
O1221 O 0.97202 0.26778 0.74749 0.0
O1222 O 0.94972 0.22728 0.77005 0.0
O1223 O 0.94983 0.3504 0.7322 0.0
O1224 O 0.92995 0.29918 0.77276 0.0
O1225 O 0.92732 0.2439 0.78413 0.0
O1226 O 0.87576 0.14416 0.75554 0.0
O1227 O 0.85879 0.23273 0.76875 0.0
O1228 O 0.87745 0.26909 0.74517 0.0
O1229 O 0.88588 0.15061 0.78124 0.0
O1230 O 0.90125 0.20218 0.74065 0.0
O1231 O 0.89729 0.25583 0.73219 0.0
C1232 C 0.97649 0.24683 0.75897 0.0
C1233 C 0.90678 0.37251 0.7401 0.0
C1234 C 0.8718 0.40893 0.74347 0.0
C1235 C 0.84196 0.38158 0.73325 0.0
C1236 C 0.87653 0.34594 0.72986 0.0
C1237 C 0.84444 0.35049 0.72651 0.0
C1238 C 0.90444 0.40424 0.74684 0.0
C1239 C 0.93413 0.28054 0.78519 0.0
C1240 C 0.93993 0.36611 0.74382 0.0
C1241 C 0.07801 0.35176 0.7117 0.0
C1242 C 0.09507 0.36147 0.72723 0.0
C1243 C 0.85264 0.25229 0.75729 0.0
C1244 C 0.90076 0.10652 0.76733 0.0
C1245 C 0.90201 0.04529 0.76273 0.0
C1246 C 0.94322 0.06722 0.76351 0.0
C1247 C 0.94174 0.12728 0.76789 0.0
C1248 C 0.88089 0.06542 0.76481 0.0
C1249 C 0.96273 0.10768 0.76605 0.0
C1250 C 0.89659 0.22296 0.72908 0.0
C1251 C 0.87859 0.1276 0.76876 0.0
H1252 H 0.81692 0.38466 0.73016 0.0
H1253 H 0.87771 0.32156 0.72438 0.0
H1254 H 0.82147 0.32996 0.71854 0.0
H1255 H 0.9276 0.42482 0.75476 0.0
H1256 H 0.96057 0.053 0.76235 0.0
H1257 H 0.95746 0.15867 0.76971 0.0
H1258 H 0.84919 0.04938 0.76416 0.0
H1259 H 0.99435 0.12397 0.7666 0.0
Tb1260 Tb 0.33453 0.09528 0.59404 0.0
C1261 C 0.3639 0.25126 0.56508 0.0
N1262 N 0.37491 0.22565 0.55964 0.0
C1263 C 0.35756 0.23244 0.53231 0.0
C1264 C 0.34877 0.26817 0.55427 0.0
C1265 C 0.37359 0.2174 0.5434 0.0
C1266 C 0.34487 0.25778 0.53778 0.0
C1267 C 0.36018 0.28984 0.58728 0.0
C1268 C 0.3698 0.26203 0.58138 0.0
C1269 C 0.3445 0.30628 0.57661 0.0
C1270 C 0.33946 0.29596 0.5601 0.0
Tb1271 Tb 0.40457 0.20629 0.57823 0.0
N1272 N 0.38746 0.24743 0.59113 0.0
C1273 C 0.36846 0.30184 0.60352 0.0
C1274 C 0.39926 0.26248 0.60648 0.0
C1275 C 0.38855 0.28847 0.61309 0.0
H1276 H 0.38519 0.1995 0.53894 0.0
H1277 H 0.39712 0.29931 0.6254 0.0
H1278 H 0.31779 0.10216 0.63377 0.0
H1279 H 0.37628 0.99666 0.56753 0.0
H1280 H 0.41829 0.25604 0.61362 0.0
H1281 H 0.36119 0.32286 0.60853 0.0
H1282 H 0.33918 0.0324 0.56933 0.0
H1283 H 0.35585 0.22519 0.5195 0.0
H1284 H 0.33733 0.32794 0.58091 0.0
H1285 H 0.32868 0.30995 0.55188 0.0
H1286 H 0.34497 0.09616 0.66006 0.0
H1287 H 0.33318 0.27003 0.52911 0.0
H1288 H 0.41724 0.99857 0.59077 0.0
N1289 N 0.35378 0.08729 0.61957 0.0
C1290 C 0.37733 0.0713 0.61996 0.0
C1291 C 0.35484 0.08983 0.64881 0.0
C1292 C 0.39298 0.06669 0.63468 0.0
C1293 C 0.34002 0.09374 0.63385 0.0
C1294 C 0.38243 0.07751 0.6492 0.0
N1295 N 0.3624 0.05674 0.59244 0.0
C1296 C 0.35803 0.03404 0.5792 0.0
C1297 C 0.40228 0.03456 0.60568 0.0
C1298 C 0.38154 0.05504 0.60583 0.0
C1299 C 0.40165 0.01468 0.59143 0.0
C1300 C 0.37853 0.01354 0.57828 0.0
H1301 H 0.39359 0.07431 0.66082 0.0
H1302 H 0.42928 0.04584 0.64563 0.0
H1303 H 0.4378 0.01797 0.62008 0.0
O1304 O 0.28192 0.05993 0.58128 0.0
O1305 O 0.39432 0.11422 0.58468 0.0
O1306 O 0.4286 0.17768 0.59332 0.0
O1307 O 0.28958 0.04508 0.6055 0.0
O1308 O 0.33808 0.10175 0.56742 0.0
O1309 O 0.39479 0.16035 0.55983 0.0
O1310 O 0.4473 0.2661 0.57761 0.0
O1311 O 0.34197 0.17283 0.57157 0.0
O1312 O 0.31349 0.13742 0.5945 0.0
O1313 O 0.45503 0.22468 0.56358 0.0
O1314 O 0.40458 0.19432 0.60481 0.0
O1315 O 0.34155 0.14395 0.60943 0.0
C1316 C 0.4276 0.14524 0.58896 0.0
C1317 C 0.22739 0.0351 0.59875 0.0
C1318 C 0.15565 1.00043 0.5989 0.0
C1319 C 0.15709 0.03114 0.60822 0.0
C1320 C 0.22785 0.06513 0.60812 0.0
C1321 C 0.19291 0.06322 0.61272 0.0
C1322 C 0.19126 1.00281 0.59413 0.0
C1323 C 0.36506 0.12447 0.55671 0.0
C1324 C 0.26469 0.03786 0.59383 0.0
C1325 C 0.41638 0.04901 0.63449 0.0
C1326 C 0.42113 0.03303 0.61996 0.0
C1327 C 0.31298 0.15803 0.58204 0.0
C1328 C 0.51302 0.28555 0.57069 0.0
C1329 C 0.57077 0.35005 0.57652 0.0
C1330 C 0.59478 0.3345 0.57215 0.0
C1331 C 0.53807 0.27114 0.56659 0.0
C1332 C 0.52965 0.32525 0.57562 0.0
C1333 C 0.57859 0.29566 0.56724 0.0
C1334 C 0.37413 0.1744 0.61455 0.0
C1335 C 0.47017 0.26135 0.56774 0.0
H1336 H 0.13048 0.03004 0.61239 0.0
H1337 H 0.25523 0.08996 0.61203 0.0
H1338 H 0.19358 0.0865 0.61997 0.0
H1339 H 0.19096 0.97979 0.58679 0.0
H1340 H 0.62638 0.35274 0.57202 0.0
H1341 H 0.52646 0.2413 0.56239 0.0
H1342 H 0.51062 0.3369 0.57851 0.0
H1343 H 0.59786 0.28505 0.56346 0.0
Tb1344 Tb 0.97111 0.26322 0.59038 0.0
C1345 C 0.82929 0.1368 0.55154 0.0
N1346 N 0.8505 0.17575 0.54815 0.0
C1347 C 0.8523 0.16138 0.51986 0.0
C1348 C 0.81903 0.10851 0.53918 0.0
C1349 C 0.86169 0.18838 0.53253 0.0
C1350 C 0.83099 0.12127 0.52319 0.0
C1351 C 0.79593 0.08539 0.57159 0.0
C1352 C 0.81805 0.12545 0.56755 0.0
C1353 C 0.78569 0.05703 0.55933 0.0
C1354 C 0.79723 0.06855 0.54317 0.0
Tb1355 Tb 0.86379 0.21699 0.56978 0.0
N1356 N 0.82911 0.1538 0.57913 0.0
C1357 C 0.78447 0.07509 0.5878 0.0
C1358 C 0.81536 0.14382 0.59468 0.0
C1359 C 0.79378 0.10447 0.59935 0.0
H1360 H 0.87724 0.21925 0.52969 0.0
H1361 H 0.78366 0.09684 0.61179 0.0
H1362 H 0.96223 0.24396 0.63014 0.0
H1363 H 0.04858 0.39833 0.55649 0.0
H1364 H 0.81964 0.1658 0.60346 0.0
H1365 H 0.76754 0.04464 0.59144 0.0
H1366 H 1.0104 0.32681 0.5599 0.0
H1367 H 0.86128 0.17152 0.5075 0.0
H1368 H 0.76869 0.02611 0.5622 0.0
H1369 H 0.78911 0.04634 0.53385 0.0
H1370 H 0.98099 0.28206 0.65574 0.0
H1371 H 0.82372 0.10045 0.51334 0.0
H1372 H 0.06857 0.44142 0.58074 0.0
N1373 N 0.98777 0.29449 0.61494 0.0
C1374 C 1.00893 0.33422 0.61425 0.0
C1375 C 0.98882 0.297 0.64414 0.0
C1376 C 0.02047 0.35702 0.62857 0.0
C1377 C 0.97798 0.27558 0.62961 0.0
C1378 C 1.00992 0.33787 0.64364 0.0
N1379 N 1.00664 0.32898 0.5856 0.0
C1380 C 0.01795 0.34506 0.57047 0.0
C1381 C 0.04129 0.39318 0.59781 0.0
C1382 C 0.0191 0.35207 0.5991 0.0
C1383 C 0.05148 0.40993 0.58227 0.0
C1384 C 0.04009 0.38572 0.56855 0.0
H1385 H 0.01816 0.35431 0.65493 0.0
H1386 H 0.05125 0.4161 0.63823 0.0
H1387 H 0.06955 0.44775 0.6113 0.0
O1388 O 1.01429 0.25762 0.57758 0.0
O1389 O 0.94352 0.30096 0.59018 0.0
O1390 O 0.90214 0.27997 0.56805 0.0
O1391 O 1.01293 0.25638 0.60376 0.0
O1392 O 0.96314 0.24882 0.56438 0.0
O1393 O 0.9135 0.25672 0.5535 0.0
O1394 O 0.81391 0.21771 0.57898 0.0
O1395 O 0.89585 0.18438 0.56865 0.0
O1396 O 0.93091 0.19996 0.59248 0.0
O1397 O 0.82419 0.22012 0.55337 0.0
O1398 O 0.87001 0.23174 0.59642 0.0
O1399 O 0.9211 0.22328 0.60492 0.0
C1400 C 0.91971 0.30484 0.57995 0.0
C1401 C 0.07377 0.27519 0.59106 0.0
C1402 C 0.13466 0.27315 0.58852 0.0
C1403 C 0.1558 0.31395 0.59108 0.0
C1404 C 0.09543 0.31574 0.59352 0.0
C1405 C 0.13629 0.33495 0.59357 0.0
C1406 C 0.09341 0.25394 0.58865 0.0
C1407 C 0.94849 0.25944 0.55237 0.0
C1408 C 0.03073 0.25433 0.59078 0.0
C1409 C 0.0422 0.39806 0.62737 0.0
C1410 C 0.05262 0.41609 0.61203 0.0
C1411 C 0.91235 0.17541 0.5805 0.0
C1412 C 0.75745 0.18507 0.56212 0.0
C1413 C 0.68675 0.1573 0.56715 0.0
C1414 C 0.67944 0.12413 0.55808 0.0
C1415 C 0.74855 0.15207 0.55256 0.0
C1416 C 0.72606 0.18791 0.5692 0.0
C1417 C 0.71005 0.12174 0.55076 0.0
C1418 C 0.89078 0.22732 0.60808 0.0
C1419 C 0.79921 0.21608 0.56463 0.0
H1420 H 0.18752 0.32963 0.59128 0.0
H1421 H 0.08079 0.33247 0.59539 0.0
H1422 H 0.15294 0.36629 0.59552 0.0
H1423 H 0.07656 0.22261 0.58656 0.0
H1424 H 0.64971 0.10042 0.55624 0.0
H1425 H 0.77123 0.14968 0.54627 0.0
H1426 H 0.73214 0.21355 0.57628 0.0
H1427 H 0.70388 0.0964 0.54346 0.0
Tb1428 Tb 0.79593 0.72816 0.59529 0.0
C1429 C 0.92581 0.72031 0.55382 0.0
N1430 N 0.88641 0.69868 0.55163 0.0
C1431 C 0.89516 0.70702 0.52266 0.0
C1432 C 0.95151 0.7366 0.54047 0.0
C1433 C 0.87084 0.69133 0.53629 0.0
C1434 C 0.93565 0.72989 0.52476 0.0
C1435 C 0.98103 0.74821 0.57241 0.0
C1436 C 0.94036 0.72642 0.56958 0.0
C1437 C 1.0068 0.76458 0.55916 0.0
C1438 C 0.99206 0.75894 0.54323 0.0
Tb1439 Tb 0.84995 0.67512 0.57485 0.0
N1440 N 0.91444 0.71135 0.58214 0.0
C1441 C 0.99453 0.75259 0.58846 0.0
C1442 C 0.92762 0.7139 0.59771 0.0
C1443 C 0.96771 0.73515 0.60115 0.0
H1444 H 0.83973 0.6727 0.53444 0.0
H1445 H 0.97792 0.73737 0.61356 0.0
H1446 H 0.80977 0.73201 0.63548 0.0
H1447 H 0.6647 0.66673 0.55849 0.0
H1448 H 0.90764 0.69856 0.60745 0.0
H1449 H 0.02557 0.76843 0.59114 0.0
H1450 H 0.73549 0.70617 0.56354 0.0
H1451 H 0.88267 0.70121 0.51055 0.0
H1452 H 0.03815 0.78163 0.56109 0.0
H1453 H 1.01228 0.77178 0.53314 0.0
H1454 H 0.76879 0.70329 0.65993 0.0
H1455 H 0.9544 0.74191 0.51417 0.0
H1456 H 0.61918 0.63401 0.58148 0.0
N1457 N 0.7617 0.70546 0.61901 0.0
C1458 C 0.72213 0.68377 0.61734 0.0
C1459 C 0.75537 0.69729 0.64802 0.0
C1460 C 0.69762 0.66709 0.631 0.0
C1461 C 0.77854 0.7131 0.63411 0.0
C1462 C 0.7148 0.67389 0.64647 0.0
N1463 N 0.7309 0.69392 0.58888 0.0
C1464 C 0.71637 0.69117 0.57356 0.0
C1465 C 0.66532 0.65569 0.59956 0.0
C1466 C 0.70616 0.67816 0.60181 0.0
C1467 C 0.6504 0.65104 0.58374 0.0
C1468 C 0.67603 0.66927 0.57071 0.0
H1469 H 0.697 0.66161 0.65728 0.0
H1470 H 0.6376 0.63111 0.63914 0.0
H1471 H 0.60934 0.62109 0.61163 0.0
O1472 O 0.80049 0.7788 0.58435 0.0
O1473 O 0.76429 0.66293 0.59463 0.0
O1474 O 0.7866 0.64384 0.57231 0.0
O1475 O 0.7893 0.76822 0.60993 0.0
O1476 O 0.80907 0.73635 0.56927 0.0
O1477 O 0.80884 0.68201 0.55825 0.0
O1478 O 0.85924 0.63242 0.58618 0.0
O1479 O 0.87856 0.73954 0.57362 0.0
O1480 O 0.85998 0.75728 0.59719 0.0
O1481 O 0.85141 0.63145 0.56037 0.0
O1482 O 0.83518 0.66636 0.60151 0.0
O1483 O 0.83917 0.72403 0.61001 0.0
C1484 C 0.75991 0.637 0.58341 0.0
C1485 C 0.83328 0.83298 0.60204 0.0
C1486 C 0.86907 0.90426 0.59873 0.0
C1487 C 0.89894 0.90625 0.6088 0.0
C1488 C 0.86346 0.83605 0.61215 0.0
C1489 C 0.89604 0.87241 0.61544 0.0
C1490 C 0.83611 0.86724 0.59537 0.0
C1491 C 0.80392 0.71294 0.55695 0.0
C1492 C 0.79953 0.79391 0.59834 0.0
C1493 C 0.65691 0.64433 0.6288 0.0
C1494 C 0.6408 0.63864 0.61312 0.0
C1495 C 0.88505 0.76503 0.58522 0.0
C1496 C 0.83672 0.57124 0.57318 0.0
C1497 C 0.8369 0.50937 0.57731 0.0
C1498 C 0.79613 0.48903 0.5747 0.0
C1499 C 0.79621 0.54995 0.57068 0.0
C1500 C 0.85714 0.55083 0.5764 0.0
C1501 C 0.77613 0.50914 0.57137 0.0
C1502 C 0.83942 0.69161 0.61311 0.0
C1503 C 0.85791 0.61462 0.57266 0.0
H1504 H 0.92425 0.93417 0.61188 0.0
H1505 H 0.86184 0.81027 0.61761 0.0
H1506 H 0.91901 0.87443 0.6233 0.0
H1507 H 0.81296 0.86504 0.58753 0.0
H1508 H 0.77963 0.45731 0.57496 0.0
H1509 H 0.78024 0.565 0.56813 0.0
H1510 H 0.8885 0.56719 0.5784 0.0
H1511 H 0.74488 0.49292 0.56926 0.0
C1512 C 0.50586 0.91618 0.10816 0.0
C1513 C 0.4958 0.92974 0.0942 0.0
C1514 C 0.51511 0.88611 0.10717 0.0
C1515 C 0.5136 0.86871 0.09189 0.0
C1516 C 0.50311 0.88209 0.07778 0.0
C1517 C 0.49439 0.91242 0.0791 0.0
C1518 C 0.52651 0.873 0.12247 0.0
C1519 C 0.5009 0.86422 0.06126 0.0
C1520 C 0.56516 0.81051 0.08362 0.0
C1521 C 0.5338 0.77187 0.08433 0.0
C1522 C 0.5594 0.84239 0.08673 0.0
C1523 C 0.5214 0.83546 0.0906 0.0
C1524 C 0.49009 0.79649 0.0921 0.0
C1525 C 0.49671 0.76525 0.08903 0.0
C1526 C 0.59363 0.88351 0.08528 0.0
C1527 C 0.44913 0.78775 0.09621 0.0
H1528 H 0.50651 0.9291 0.11989 0.0
H1529 H 0.48693 0.9229 0.06823 0.0
H1530 H 0.5062 0.84132 0.12457 0.0
H1531 H 0.55633 0.87709 0.12106 0.0
H1532 H 0.5262 0.88947 0.13341 0.0
H1533 H 0.49283 0.87833 0.05145 0.0
H1534 H 0.52955 0.86692 0.05815 0.0
H1535 H 0.47889 0.83251 0.06151 0.0
H1536 H 0.59386 0.81592 0.07995 0.0
H1537 H 0.47249 0.73546 0.08995 0.0
H1538 H 0.59641 0.90011 0.09658 0.0
H1539 H 0.58853 0.89898 0.07511 0.0
H1540 H 0.62169 0.88402 0.08307 0.0
H1541 H 0.44938 0.80332 0.10751 0.0
H1542 H 0.42854 0.75592 0.0979 0.0
H1543 H 0.43787 0.79853 0.08628 0.0
C1544 C 0.20035 0.78387 0.07932 0.0
C1545 C 0.24131 0.80175 0.07801 0.0
C1546 C 0.17669 0.74332 0.08173 0.0
C1547 C 0.1941 0.71969 0.0837 0.0
C1548 C 0.23541 0.73743 0.08281 0.0
C1549 C 0.2584 0.77796 0.07974 0.0
C1550 C 0.1329 0.72579 0.08222 0.0
C1551 C 0.25534 0.7135 0.08498 0.0
C1552 C 0.13281 0.62095 0.10498 0.0
C1553 C 0.11896 0.59489 0.09178 0.0
C1554 C 0.15761 0.66147 0.10257 0.0
C1555 C 0.16894 0.67645 0.08655 0.0
C1556 C 0.15533 0.6501 0.07319 0.0
C1557 C 0.13089 0.60972 0.07599 0.0
C1558 C 0.17149 0.68828 0.11719 0.0
C1559 C 0.16587 0.66464 0.05588 0.0
H1560 H 0.18643 0.80154 0.07851 0.0
H1561 H 0.28978 0.79074 0.07847 0.0
H1562 H 0.11871 0.70112 0.07346 0.0
H1563 H 0.12232 0.71394 0.09454 0.0
H1564 H 0.1236 0.74747 0.07936 0.0
H1565 H 0.28778 0.73184 0.08465 0.0
H1566 H 0.24655 0.69766 0.09678 0.0
H1567 H 0.24592 0.69113 0.07521 0.0
H1568 H 0.12437 0.60962 0.11724 0.0
H1569 H 0.12043 0.58979 0.06572 0.0
H1570 H 0.16068 0.70937 0.11643 0.0
H1571 H 0.20397 0.70558 0.11732 0.0
H1572 H 0.16119 0.67195 0.12886 0.0
H1573 H 0.15535 0.68539 0.05312 0.0
H1574 H 0.15297 0.6404 0.04685 0.0
H1575 H 0.19815 0.68082 0.05437 0.0
C1576 C 0.2931 0.47381 0.1026 0.0
C1577 C 0.27252 0.48585 0.09239 0.0
C1578 C 0.33421 0.49301 0.10251 0.0
C1579 C 0.35575 0.5255 0.09207 0.0
C1580 C 0.33534 0.53921 0.08236 0.0
C1581 C 0.29401 0.51914 0.08256 0.0
C1582 C 0.35455 0.47739 0.1131 0.0
C1583 C 0.35712 0.57441 0.07142 0.0
C1584 C 0.4649 0.58368 0.10203 0.0
C1585 C 0.48019 0.56792 0.09088 0.0
C1586 C 0.42481 0.57217 0.10186 0.0
C1587 C 0.3993 0.54317 0.09067 0.0
C1588 C 0.41519 0.52833 0.07901 0.0
C1589 C 0.45555 0.54138 0.07912 0.0
C1590 C 0.40954 0.58974 0.11416 0.0
C1591 C 0.38924 0.4968 0.06709 0.0
H1592 H 0.27696 0.44881 0.11055 0.0
H1593 H 0.27856 0.52877 0.0746 0.0
H1594 H 0.37152 0.46841 0.10526 0.0
H1595 H 0.37559 0.5006 0.12139 0.0
H1596 H 0.33371 0.45183 0.12054 0.0
H1597 H 0.33746 0.58409 0.06608 0.0
H1598 H 0.38076 0.59917 0.07832 0.0
H1599 H 0.37122 0.56722 0.06134 0.0
H1600 H 0.48408 0.60413 0.11117 0.0
H1601 H 0.46759 0.52938 0.07048 0.0
H1602 H 0.39309 0.56792 0.12382 0.0
H1603 H 0.38904 0.59761 0.10831 0.0
H1604 H 0.43362 0.61629 0.12002 0.0
H1605 H 0.3695 0.46952 0.07384 0.0
H1606 H 0.40639 0.49023 0.05816 0.0
H1607 H 0.37053 0.50563 0.06034 0.0
C1608 C 0.93792 0.51995 0.92747 0.0
C1609 C 0.93556 0.49117 0.91675 0.0
C1610 C 0.91005 0.53206 0.92726 0.0
C1611 C 0.87826 0.5144 0.91624 0.0
C1612 C 0.87397 0.48312 0.90622 0.0
C1613 C 0.90281 0.47186 0.90656 0.0
C1614 C 0.916 0.56537 0.93825 0.0
C1615 C 0.84016 0.46305 0.89451 0.0
C1616 C 0.80064 0.54259 0.92498 0.0
C1617 C 0.81321 0.57565 0.91494 0.0
C1618 C 0.81975 0.52044 0.92475 0.0
C1619 C 0.85227 0.5317 0.9143 0.0
C1620 C 0.86337 0.56352 0.90346 0.0
C1621 C 0.84387 0.58509 0.90394 0.0
C1622 C 0.80644 0.48631 0.9363 0.0
C1623 C 0.89795 0.57693 0.89222 0.0
H1624 H 0.96244 0.53399 0.9358 0.0
H1625 H 0.90068 0.44933 0.89835 0.0
H1626 H 0.9222 0.59125 0.93073 0.0
H1627 H 0.88903 0.5571 0.94536 0.0
H1628 H 0.94069 0.57405 0.94689 0.0
H1629 H 0.83768 0.43577 0.88943 0.0
H1630 H 0.8122 0.4558 0.90061 0.0
H1631 H 0.84435 0.48316 0.88426 0.0
H1632 H 0.77688 0.53493 0.93351 0.0
H1633 H 0.85322 0.61 0.89587 0.0
H1634 H 0.82795 0.49448 0.94635 0.0
H1635 H 0.80497 0.46074 0.92995 0.0
H1636 H 0.7773 0.47743 0.94168 0.0
H1637 H 0.92491 0.5927 0.89962 0.0
H1638 H 0.89859 0.59712 0.88262 0.0
H1639 H 0.89818 0.55175 0.8863 0.0
C1640 C 0.57867 0.30335 0.92199 0.0
C1641 C 0.54278 0.27273 0.92766 0.0
C1642 C 0.58371 0.34061 0.91888 0.0
C1643 C 0.55222 0.34753 0.92167 0.0
C1644 C 0.51551 0.31634 0.92686 0.0
C1645 C 0.51115 0.2792 0.92967 0.0
C1646 C 0.62313 0.3729 0.91311 0.0
C1647 C 0.4811 0.32239 0.92981 0.0
C1648 C 0.57859 0.45171 0.93234 0.0
C1649 C 0.57101 0.46481 0.91766 0.0
C1650 C 0.57233 0.41352 0.9338 0.0
C1651 C 0.55853 0.38795 0.9202 0.0
C1652 C 0.55114 0.40117 0.9053 0.0
C1653 C 0.5575 0.43946 0.90422 0.0
C1654 C 0.57992 0.40032 0.94998 0.0
C1655 C 0.53641 0.37489 0.89053 0.0
H1656 H 0.60306 0.29828 0.92025 0.0
H1657 H 0.48342 0.25564 0.93412 0.0
H1658 H 0.61963 0.3869 0.902 0.0
H1659 H 0.63647 0.3959 0.92262 0.0
H1660 H 0.64365 0.36203 0.91037 0.0
H1661 H 0.4558 0.29625 0.93534 0.0
H1662 H 0.48961 0.34791 0.93794 0.0
H1663 H 0.47154 0.32874 0.91807 0.0
H1664 H 0.58861 0.47103 0.94282 0.0
H1665 H 0.55188 0.44958 0.8928 0.0
H1666 H 0.6023 0.39132 0.94852 0.0
H1667 H 0.5527 0.3744 0.95442 0.0
H1668 H 0.59023 0.42364 0.95941 0.0
H1669 H 0.55663 0.36387 0.8875 0.0
H1670 H 0.53349 0.39015 0.8797 0.0
H1671 H 0.50738 0.34904 0.8932 0.0
C1672 C 0.61414 0.14137 0.90434 0.0
C1673 C 0.58985 0.1263 0.91807 0.0
C1674 C 0.65292 0.17266 0.90575 0.0
C1675 C 0.66728 0.19037 0.92115 0.0
C1676 C 0.64287 0.17513 0.93504 0.0
C1677 C 0.60478 0.14313 0.93335 0.0
C1678 C 0.67862 0.18661 0.8908 0.0
C1679 C 0.65682 0.19298 0.9517 0.0
C1680 C 0.77562 0.25832 0.93097 0.0
C1681 C 0.77985 0.2956 0.92858 0.0
C1682 C 0.73979 0.2238 0.92789 0.0
C1683 C 0.70678 0.2263 0.92273 0.0
C1684 C 0.71088 0.26361 0.92002 0.0
C1685 C 0.74741 0.29748 0.92246 0.0
C1686 C 0.73763 0.18473 0.93003 0.0
C1687 C 0.67623 0.26793 0.91515 0.0
H1688 H 0.60285 0.12867 0.89248 0.0
H1689 H 0.58668 0.13125 0.94411 0.0
H1690 H 0.68728 0.21745 0.88811 0.0
H1691 H 0.70592 0.18571 0.89308 0.0
H1692 H 0.66381 0.16849 0.8799 0.0
H1693 H 0.63477 0.17689 0.96136 0.0
H1694 H 0.68425 0.19316 0.9549 0.0
H1695 H 0.66348 0.22388 0.95158 0.0
H1696 H 0.79994 0.25579 0.93563 0.0
H1697 H 0.7501 0.32559 0.91975 0.0
H1698 H 0.73955 0.1737 0.91783 0.0
H1699 H 0.70955 0.1627 0.93564 0.0
H1700 H 0.76214 0.18716 0.93757 0.0
H1701 H 0.66391 0.25274 0.90343 0.0
H1702 H 0.68405 0.29906 0.91384 0.0
H1703 H 0.65274 0.25396 0.92445 0.0
C1704 C 0.25697 0.17086 0.40002 0.0
C1705 C 0.2342 0.1306 0.40306 0.0
C1706 C 0.24473 0.19698 0.40515 0.0
C1707 C 0.20871 0.18256 0.41355 0.0
C1708 C 0.18619 0.14202 0.41717 0.0
C1709 C 0.19935 0.11649 0.41196 0.0
C1710 C 0.27027 0.24 0.40141 0.0
C1711 C 0.1474 0.12541 0.4259 0.0
C1712 C 0.19189 0.25825 0.4354 0.0
C1713 C 0.17262 0.26761 0.42336 0.0
C1714 C 0.20301 0.22994 0.4326 0.0
C1715 C 0.19373 0.20971 0.41753 0.0
C1716 C 0.17233 0.21749 0.4057 0.0
C1717 C 0.16222 0.2464 0.40871 0.0
C1718 C 0.22626 0.22307 0.44547 0.0
C1719 C 0.16168 0.19654 0.38949 0.0
H1720 H 0.28419 0.18185 0.39332 0.0
H1721 H 0.18155 0.0853 0.41421 0.0
H1722 H 0.25316 0.25165 0.39525 0.0
H1723 H 0.28137 0.25613 0.41301 0.0
H1724 H 0.29574 0.24605 0.39362 0.0
H1725 H 0.13465 0.09378 0.42873 0.0
H1726 H 0.15087 0.14155 0.43742 0.0
H1727 H 0.12637 0.12914 0.41819 0.0
H1728 H 0.19915 0.27371 0.44692 0.0
H1729 H 0.1473 0.25327 0.3993 0.0
H1730 H 0.25685 0.23503 0.44118 0.0
H1731 H 0.21397 0.19128 0.44764 0.0
H1732 H 0.22688 0.23743 0.45721 0.0
H1733 H 0.18871 0.20538 0.38231 0.0
H1734 H 0.14199 0.20327 0.38223 0.0
H1735 H 0.14709 0.1644 0.39135 0.0
C1736 C 0.87716 0.12522 0.4159 0.0
C1737 C 0.91801 0.14416 0.41421 0.0
C1738 C 0.8548 0.08463 0.41833 0.0
C1739 C 0.87352 0.06213 0.41997 0.0
C1740 C 0.91484 0.08105 0.41884 0.0
C1741 C 0.93648 0.12155 0.41563 0.0
C1742 C 0.81101 0.06602 0.41926 0.0
C1743 C 0.93621 0.05852 0.42105 0.0
C1744 C 0.81195 0.96286 0.44057 0.0
C1745 C 0.79987 0.9372 0.42723 0.0
C1746 C 0.83726 1.00335 0.4385 0.0
C1747 C 0.8497 0.01881 0.42262 0.0
C1748 C 0.83765 0.99289 0.40912 0.0
C1749 C 0.81352 0.9524 0.41164 0.0
C1750 C 0.84979 0.02955 0.45331 0.0
C1751 C 0.84859 1.00808 0.39191 0.0
H1752 H 0.86231 0.14205 0.41539 0.0
H1753 H 0.96787 0.13522 0.41407 0.0
H1754 H 0.79673 0.03903 0.41175 0.0
H1755 H 0.80186 0.05798 0.43211 0.0
H1756 H 0.80054 0.08602 0.41509 0.0
H1757 H 0.96854 0.0779 0.42089 0.0
H1758 H 0.9276 0.04242 0.4328 0.0
H1759 H 0.92791 0.03645 0.41122 0.0
H1760 H 0.80135 0.95128 0.45266 0.0
H1761 H 0.80378 0.93282 0.40127 0.0
H1762 H 0.83335 0.04557 0.4538 0.0
H1763 H 0.88146 0.05159 0.45269 0.0
H1764 H 0.84399 0.01259 0.4648 0.0
H1765 H 0.83662 0.02761 0.38909 0.0
H1766 H 0.83722 0.98408 0.38277 0.0
H1767 H 0.88088 0.02574 0.39065 0.0
C1768 C 0.12531 0.89016 0.41634 0.0
C1769 C 0.1415 0.89245 0.43179 0.0
C1770 C 0.08468 0.87389 0.41429 0.0
C1771 C 0.05963 0.86047 0.42807 0.0
C1772 C 0.07604 0.86379 0.44377 0.0
C1773 C 0.11668 0.87929 0.44541 0.0
C1774 C 0.06844 0.86964 0.39728 0.0
C1775 C 0.05064 0.85044 0.45883 0.0
C1776 C 0.95716 0.84606 0.4222 0.0
C1777 C 0.93404 0.80507 0.4206 0.0
C1778 C 0.99771 0.86435 0.42519 0.0
C1779 C 1.0162 0.84149 0.42593 0.0
C1780 C 0.99322 0.80035 0.42419 0.0
C1781 C 0.95258 0.78266 0.422 0.0
C1782 C 0.02085 0.90822 0.42742 0.0
C1783 C 1.01163 0.77489 0.4244 0.0
H1784 H 0.14426 0.89959 0.40573 0.0
H1785 H 0.12907 0.88093 0.45737 0.0
H1786 H 0.04839 0.83819 0.39455 0.0
H1787 H 0.05107 0.88465 0.39635 0.0
H1788 H 0.09185 0.8819 0.38787 0.0
H1789 H 0.06826 0.85878 0.47021 0.0
H1790 H 0.03113 0.8632 0.45908 0.0
H1791 H 0.0317 0.81813 0.45865 0.0
H1792 H 0.9439 0.86421 0.42085 0.0
H1793 H 0.93543 0.75103 0.42135 0.0
H1794 H 0.04205 0.92179 0.41728 0.0
H1795 H 0.03799 0.91557 0.4389 0.0
H1796 H 1.00176 0.92149 0.4278 0.0
H1797 H 0.03514 0.78529 0.41508 0.0
H1798 H 0.99017 0.74357 0.42201 0.0
H1799 H 0.02514 0.77719 0.43646 0.0
C1800 C 0.46197 0.86456 0.27133 0.0
C1801 C 0.47983 0.90284 0.27765 0.0
C1802 C 0.4841 0.84651 0.2674 0.0
C1803 C 0.52518 0.86693 0.26994 0.0
C1804 C 0.54318 0.90517 0.27667 0.0
C1805 C 0.52049 0.92271 0.28021 0.0
C1806 C 0.46349 0.8055 0.26052 0.0
C1807 C 0.58667 0.92869 0.27973 0.0
C1808 C 0.58399 0.81381 0.27237 0.0
C1809 C 0.60118 0.82083 0.25683 0.0
C1810 C 0.55825 0.8275 0.27663 0.0
C1811 C 0.54946 0.84888 0.26514 0.0
C1812 C 0.56559 0.85475 0.24926 0.0
C1813 C 0.59082 0.84035 0.24527 0.0
C1814 C 0.54207 0.82085 0.29373 0.0
C1815 C 0.5576 0.87779 0.23667 0.0
H1816 H 0.43053 0.84843 0.26957 0.0
H1817 H 0.535 0.95249 0.28477 0.0
H1818 H 0.47509 0.8055 0.2482 0.0
H1819 H 0.46931 0.78596 0.26831 0.0
H1820 H 0.4313 0.79315 0.25962 0.0
H1821 H 0.59339 0.94916 0.29013 0.0
H1822 H 0.59966 0.90997 0.28228 0.0
H1823 H 0.60097 0.94658 0.26877 0.0
H1824 H 0.59195 0.79907 0.28146 0.0
H1825 H 0.60332 0.84533 0.23315 0.0
H1826 H 0.50981 0.80808 0.29342 0.0
H1827 H 0.55458 0.84936 0.30018 0.0
H1828 H 0.54904 0.80111 0.30083 0.0
H1829 H 0.52562 0.86594 0.23535 0.0
H1830 H 0.56996 0.87736 0.22455 0.0
H1831 H 0.5707 0.90868 0.24074 0.0
C1832 C 0.25192 0.7889 0.26249 0.0
C1833 C 0.24943 0.80495 0.24765 0.0
C1834 C 0.24609 0.75072 0.2633 0.0
C1835 C 0.23643 0.72759 0.24896 0.0
C1836 C 0.23361 0.74378 0.23392 0.0
C1837 C 0.24057 0.78249 0.23342 0.0
C1838 C 0.2499 0.73502 0.27956 0.0
C1839 C 0.22237 0.71995 0.21844 0.0
C1840 C 0.25672 0.64275 0.25048 0.0
C1841 C 0.22053 0.61143 0.25569 0.0
C1842 C 0.26195 0.68029 0.24775 0.0
C1843 C 0.23001 0.6868 0.24985 0.0
C1844 C 0.19278 0.65481 0.25405 0.0
C1845 C 0.18851 0.61763 0.25701 0.0
C1846 C 0.30222 0.71343 0.24339 0.0
C1847 C 0.15769 0.66017 0.25593 0.0
H1848 H 0.25806 0.80619 0.27351 0.0
H1849 H 0.23776 0.79476 0.22202 0.0
H1850 H 0.22157 0.709 0.28294 0.0
H1851 H 0.27196 0.72543 0.27873 0.0
H1852 H 0.25872 0.75712 0.28944 0.0
H1853 H 0.22139 0.73678 0.20777 0.0
H1854 H 0.24353 0.70985 0.21587 0.0
H1855 H 0.19314 0.69343 0.21993 0.0
H1856 H 0.28148 0.63823 0.24895 0.0
H1857 H 0.16043 0.59388 0.26103 0.0
H1858 H 0.31336 0.73534 0.25339 0.0
H1859 H 0.30085 0.7286 0.23224 0.0
H1860 H 0.32353 0.7032 0.24133 0.0
H1861 H 0.16299 0.68149 0.2658 0.0
H1862 H 0.1305 0.63227 0.25877 0.0
H1863 H 0.15309 0.67234 0.2445 0.0
C1864 C 0.4518 0.53847 0.27147 0.0
C1865 C 0.46897 0.57934 0.27201 0.0
C1866 C 0.413 0.51454 0.26626 0.0
C1867 C 0.39041 0.53168 0.26144 0.0
C1868 C 0.4082 0.57312 0.2612 0.0
C1869 C 0.44737 0.5965 0.26642 0.0
C1870 C 0.39577 0.47074 0.26641 0.0
C1871 C 0.38523 0.59266 0.25623 0.0
C1872 C 0.29318 0.46428 0.24003 0.0
C1873 C 0.26672 0.45159 0.25313 0.0
C1874 C 0.33337 0.49109 0.2424 0.0
C1875 C 0.34743 0.50598 0.25822 0.0
C1876 C 0.32054 0.49412 0.27137 0.0
C1877 C 0.28075 0.46713 0.26867 0.0
C1878 C 0.36087 0.5028 0.22804 0.0
C1879 C 0.33397 0.50891 0.28846 0.0
H1880 H 0.46854 0.5251 0.27561 0.0
H1881 H 0.46042 0.62808 0.26691 0.0
H1882 H 0.36977 0.45694 0.27453 0.0
H1883 H 0.38589 0.45916 0.25396 0.0
H1884 H 0.41706 0.46189 0.27055 0.0
H1885 H 0.4041 0.62495 0.25517 0.0
H1886 H 0.3704 0.58086 0.24439 0.0
H1887 H 0.36206 0.5862 0.2654 0.0
H1888 H 0.28254 0.453 0.22793 0.0
H1889 H 0.26075 0.45742 0.27892 0.0
H1890 H 0.38207 0.49243 0.22991 0.0
H1891 H 0.37803 0.53517 0.22698 0.0
H1892 H 0.3451 0.49045 0.21639 0.0
H1893 H 0.35392 0.49862 0.29285 0.0
H1894 H 0.30912 0.49869 0.29715 0.0
H1895 H 0.35065 0.5414 0.28857 0.0
C1896 C 0.8293 0.58311 0.74579 0.0
C1897 C 0.83218 0.60138 0.7608 0.0
C1898 C 0.83813 0.55283 0.7444 0.0
C1899 C 0.85023 0.54043 0.75834 0.0
C1900 C 0.85337 0.55888 0.77352 0.0
C1901 C 0.84403 0.58891 0.77459 0.0
C1902 C 0.83421 0.53391 0.72797 0.0
C1903 C 0.86652 0.54688 0.78864 0.0
C1904 C 0.83222 0.43651 0.75551 0.0
C1905 C 0.86853 0.44259 0.74992 0.0
C1906 C 0.82639 0.4681 0.759 0.0
C1907 C 0.85773 0.50692 0.75701 0.0
C1908 C 0.89517 0.51331 0.75242 0.0
C1909 C 0.90014 0.48105 0.74891 0.0
C1910 C 0.78606 0.45984 0.76398 0.0
C1911 C 0.92948 0.55426 0.75045 0.0
H1912 H 0.82049 0.59273 0.73504 0.0
H1913 H 0.84589 0.60255 0.78627 0.0
H1914 H 0.86247 0.53624 0.72442 0.0
H1915 H 0.81211 0.50227 0.72867 0.0
H1916 H 0.82529 0.5475 0.71827 0.0
H1917 H 0.86693 0.56377 0.79956 0.0
H1918 H 0.84682 0.51524 0.79109 0.0
H1919 H 0.89637 0.55141 0.78676 0.0
H1920 H 0.80784 0.40685 0.75665 0.0
H1921 H 0.92825 0.48603 0.74457 0.0
H1922 H 0.77359 0.46985 0.75423 0.0
H1923 H 0.78777 0.47632 0.7752 0.0
H1924 H 0.76566 0.42817 0.7662 0.0
H1925 H 0.92377 0.56923 0.74026 0.0
H1926 H 0.95723 0.55438 0.74793 0.0
H1927 H 0.93328 0.57164 0.76163 0.0
C1928 C 0.59292 0.44546 0.75139 0.0
C1929 C 0.57554 0.46905 0.74985 0.0
C1930 C 0.57024 0.40499 0.75468 0.0
C1931 C 0.52899 0.38717 0.756 0.0
C1932 C 0.5114 0.41074 0.75449 0.0
C1933 C 0.53476 0.4512 0.75184 0.0
C1934 C 0.59037 0.38115 0.75644 0.0
C1935 C 0.46763 0.39305 0.75532 0.0
C1936 C 0.46565 0.27839 0.74643 0.0
C1937 C 0.45311 0.26183 0.76195 0.0
C1938 C 0.49053 0.31888 0.74436 0.0
C1939 C 0.50391 0.34372 0.75818 0.0
C1940 C 0.49194 0.3271 0.77394 0.0
C1941 C 0.46661 0.2864 0.77563 0.0
C1942 C 0.5017 0.33514 0.72731 0.0
C1943 C 0.50562 0.35233 0.78903 0.0
H1944 H 0.62419 0.45829 0.74967 0.0
H1945 H 0.52072 0.46878 0.75123 0.0
H1946 H 0.58137 0.36437 0.76803 0.0
H1947 H 0.58137 0.35956 0.74638 0.0
H1948 H 0.6228 0.3997 0.75629 0.0
H1949 H 0.45825 0.41523 0.7541 0.0
H1950 H 0.45366 0.371 0.74549 0.0
H1951 H 0.45689 0.37778 0.76709 0.0
H1952 H 0.45527 0.25975 0.73577 0.0
H1953 H 0.4574 0.27378 0.78767 0.0
H1954 H 0.53401 0.35104 0.72593 0.0
H1955 H 0.49167 0.35648 0.72504 0.0
H1956 H 0.4888 0.31188 0.71785 0.0
H1957 H 0.53808 0.36993 0.78917 0.0
H1958 H 0.49547 0.33472 0.8004 0.0
H1959 H 0.49444 0.37316 0.78894 0.0
C1960 C 0.62713 0.19377 0.74811 0.0
C1961 C 0.62206 0.22638 0.75002 0.0
C1962 C 0.6641 0.19702 0.75006 0.0
C1963 C 0.69707 0.23385 0.75385 0.0
C1964 C 0.69211 0.2667 0.75613 0.0
C1965 C 0.65471 0.26248 0.75438 0.0
C1966 C 0.66793 0.16108 0.74791 0.0
C1967 C 0.72652 0.30658 0.76006 0.0
C1968 C 0.79017 0.23991 0.77056 0.0
C1969 C 0.81342 0.24888 0.75651 0.0
C1970 C 0.75208 0.23433 0.76986 0.0
C1971 C 0.73703 0.23846 0.75479 0.0
C1972 C 0.76045 0.24763 0.74057 0.0
C1973 C 0.79824 0.25257 0.74159 0.0
C1974 C 0.72789 0.2238 0.78525 0.0
C1975 C 0.74553 0.25216 0.72424 0.0
H1976 H 0.60243 0.16581 0.74459 0.0
H1977 H 0.65119 0.28775 0.75629 0.0
H1978 H 0.69078 0.1666 0.73871 0.0
H1979 H 0.67724 0.15419 0.7596 0.0
H1980 H 0.64001 0.13508 0.74406 0.0
H1981 H 0.71773 0.3291 0.76172 0.0
H1982 H 0.74119 0.30507 0.77134 0.0
H1983 H 0.74845 0.3162 0.75008 0.0
H1984 H 0.80168 0.23695 0.78213 0.0
H1985 H 0.81563 0.25864 0.73062 0.0
H1986 H 0.70025 0.19562 0.78357 0.0
H1987 H 0.71981 0.24644 0.78794 0.0
H1988 H 0.74366 0.22105 0.79593 0.0
H1989 H 0.71727 0.22554 0.72134 0.0
H1990 H 0.76654 0.25732 0.71421 0.0
H1991 H 0.74008 0.27718 0.7247 0.0
C1992 C 0.18851 0.26713 0.57509 0.0
C1993 C 0.15605 0.25132 0.58553 0.0
C1994 C 0.21133 0.24923 0.57303 0.0
C1995 C 0.20206 0.21467 0.58182 0.0
C1996 C 0.16768 0.19704 0.59156 0.0
C1997 C 0.14517 0.21562 0.59336 0.0
C1998 C 0.24601 0.26901 0.56178 0.0
C1999 C 0.15507 0.1589 0.60033 0.0
C2000 C 0.25703 0.16147 0.56922 0.0
C2001 C 0.28416 0.17168 0.58191 0.0
C2002 C 0.22918 0.17401 0.56928 0.0
C2003 C 0.22974 0.19888 0.58193 0.0
C2004 C 0.25784 0.20982 0.59457 0.0
C2005 C 0.28387 0.19518 0.59463 0.0
C2006 C 0.19951 0.16114 0.55571 0.0
C2007 C 0.26142 0.23815 0.60775 0.0
H2008 H 0.19651 0.29403 0.56857 0.0
H2009 H 0.11983 0.20285 0.60132 0.0
H2010 H 0.26835 0.29666 0.56756 0.0
H2011 H 0.25916 0.25068 0.55881 0.0
H2012 H 0.23728 0.27712 0.55019 0.0
H2013 H 0.12519 0.14634 0.60557 0.0
H2014 H 0.1556 0.13719 0.59186 0.0
H2015 H 0.17584 0.16365 0.61036 0.0
H2016 H 0.2572 0.14314 0.55941 0.0
H2017 H 0.30523 0.20348 0.6043 0.0
H2018 H 0.20558 0.18674 0.54803 0.0
H2019 H 0.16959 0.14921 0.56082 0.0
H2020 H 0.2001 0.13853 0.54782 0.0
H2021 H 0.26799 0.26641 0.60212 0.0
H2022 H 0.28489 0.24379 0.61666 0.0
H2023 H 0.23334 0.22667 0.61443 0.0
C2024 C 0.90864 0.97181 0.58709 0.0
C2025 C 0.87232 0.94126 0.59249 0.0
C2026 C 0.91407 1.00906 0.58362 0.0
C2027 C 0.88228 0.01594 0.58539 0.0
C2028 C 0.8449 0.98461 0.58981 0.0
C2029 C 0.84036 0.94762 0.59335 0.0
C2030 C 0.95438 0.04157 0.5789 0.0
C2031 C 0.81017 0.99066 0.59157 0.0
C2032 C 0.90782 0.11956 0.59666 0.0
C2033 C 0.90517 0.13482 0.58159 0.0
C2034 C 0.90005 0.08084 0.59804 0.0
C2035 C 0.88914 0.05661 0.58403 0.0
C2036 C 0.88628 0.07181 0.56878 0.0
C2037 C 0.89474 0.11086 0.56772 0.0
C2038 C 0.90377 0.06593 0.61452 0.0
C2039 C 0.87424 0.04683 0.55361 0.0
H2040 H 0.93328 0.9669 0.58606 0.0
H2041 H 0.81225 0.92426 0.59755 0.0
H2042 H 0.95287 0.05624 0.56761 0.0
H2043 H 0.96614 0.06402 0.58867 0.0
H2044 H 0.97527 0.03078 0.5769 0.0
H2045 H 0.78243 0.96269 0.59362 0.0
H2046 H 0.81492 1.01048 0.602 0.0
H2047 H 0.80697 1.00494 0.5805 0.0
H2048 H 0.91565 0.13779 0.60745 0.0
H2049 H 0.89327 0.12268 0.556 0.0
H2050 H 0.92617 0.05674 0.61397 0.0
H2051 H 0.87559 0.03981 0.61796 0.0
H2052 H 0.91219 0.08838 0.62423 0.0
H2053 H 0.87387 0.06321 0.54266 0.0
H2054 H 0.84456 0.02108 0.55531 0.0
H2055 H 0.89455 0.03552 0.55135 0.0
C2056 C 0.11142 0.92767 0.59571 0.0
C2057 C 0.11694 0.96566 0.59479 0.0
C2058 C 0.07425 0.89457 0.59331 0.0
C2059 C 0.0417 0.89946 0.58996 0.0
C2060 C 0.04722 0.9377 0.58857 0.0
C2061 C 0.08475 0.97026 0.59089 0.0
C2062 C 0.06969 0.85434 0.59467 0.0
C2063 C 1.01328 0.94421 0.58506 0.0
C2064 C 0.94808 0.815 0.57237 0.0
C2065 C 0.92463 0.80007 0.58633 0.0
C2066 C 0.98642 0.84695 0.57337 0.0
C2067 C 1.00153 0.86471 0.58867 0.0
C2068 C 0.97793 0.84972 0.6028 0.0
C2069 C 0.93984 0.81756 0.60146 0.0
C2070 C 1.01075 0.86162 0.55805 0.0
C2071 C 0.99295 0.8676 0.61937 0.0
H2072 H 0.1359 0.92368 0.59886 0.0
H2073 H 0.08877 0.99945 0.58981 0.0
H2074 H 0.04749 0.83695 0.60408 0.0
H2075 H 0.05908 0.83874 0.5829 0.0
H2076 H 0.09761 0.85542 0.59784 0.0
H2077 H 0.02263 0.97577 0.58385 0.0
H2078 H 0.99838 0.92899 0.57364 0.0
H2079 H 0.99136 0.93154 0.59502 0.0
H2080 H 0.93649 0.80155 0.56064 0.0
H2081 H 0.92222 0.80568 0.61234 0.0
H2082 H 0.03816 0.8605 0.55948 0.0
H2083 H 0.01926 0.89266 0.55588 0.0
H2084 H 0.9949 0.84413 0.54716 0.0
H2085 H 0.02056 0.86774 0.62217 0.0
H2086 H 0.97147 0.85156 0.62923 0.0
H2087 H 0.99967 0.8985 0.6194 0.0
C2088 C 0.52455 0.06749 0.03971 0.0
C2089 C 0.52813 0.04121 0.05001 0.0
C2090 C 0.52534 0.0641 0.0226 0.0
C2091 C 0.53051 0.03385 0.01556 0.0
C2092 C 0.53817 1.00991 0.0261 0.0
C2093 C 0.53566 0.01308 0.04309 0.0
C2094 C 0.51878 0.0924 0.01257 0.0
C2095 C 0.5471 0.97944 0.01956 0.0
C2096 C 0.48668 0.98896 0.97375 0.0
C2097 C 0.51406 0.01706 0.96315 0.0
C2098 C 0.4919 0.99321 0.99082 0.0
C2099 C 0.52613 0.02592 0.99746 0.0
C2100 C 0.55565 0.05193 0.98656 0.0
C2101 C 0.54864 0.04798 0.96968 0.0
C2102 C 0.45939 0.96295 1.00132 0.0
C2103 C 0.59408 0.08522 0.99262 0.0
H2104 H 0.51795 0.08879 0.04498 0.0
H2105 H 0.53789 0.99222 0.05099 0.0
H2106 H 0.51796 0.08749 0.99927 0.0
H2107 H 0.49091 0.09073 0.01633 0.0
H2108 H 0.54254 0.12272 0.01518 0.0
H2109 H 0.56384 0.97251 0.02855 0.0
H2110 H 0.51925 0.95201 0.01705 0.0
H2111 H 0.56415 0.98931 0.00805 0.0
H2112 H 0.45963 0.96533 0.9688 0.0
H2113 H 0.56987 0.07007 0.96153 0.0
H2114 H 0.46278 0.97017 0.01446 0.0
H2115 H 0.45809 0.93436 0.9997 0.0
H2116 H 0.43075 0.95886 0.99718 0.0
H2117 H 0.5905 0.11074 0.99553 0.0
H2118 H 0.61735 0.09463 0.9832 0.0
H2119 H 0.60393 0.07685 1.00382 0.0
C2120 C 0.06596 0.51396 0.97307 0.0
C2121 C 0.03692 0.51292 0.96295 0.0
C2122 C 0.06327 0.51555 0.99016 0.0
C2123 C 0.03119 0.51725 0.99728 0.0
C2124 C 1.00368 0.51958 0.98691 0.0
C2125 C 1.00634 0.51641 0.96993 0.0
C2126 C 0.09413 0.51331 1.00022 0.0
C2127 C 0.97058 0.5241 0.99374 0.0
C2128 C 0.99627 0.47306 0.03967 0.0
C2129 C 0.01803 0.50544 0.04977 0.0
C2130 C 0.99978 0.47662 0.02257 0.0
C2131 C 0.02471 0.51376 0.01539 0.0
C2132 C 0.04481 0.54697 0.02562 0.0
C2133 C 0.04173 0.54228 0.04267 0.0
C2134 C 0.97895 0.44011 0.01225 0.0
C2135 C 0.07142 0.58707 0.01859 0.0
H2136 H 0.0893 0.5106 0.96772 0.0
H2137 H 0.98372 0.51544 0.9621 0.0
H2138 H 0.09073 0.51523 0.01354 0.0
H2139 H 0.09345 0.48536 0.99753 0.0
H2140 H 0.12354 0.53734 0.99657 0.0
H2141 H 0.95571 0.53179 0.98413 0.0
H2142 H 0.94855 0.49629 0.99952 0.0
H2143 H 0.98167 0.54716 1.00327 0.0
H2144 H 0.97893 0.44438 0.04517 0.0
H2145 H 0.05917 0.56721 0.05049 0.0
H2146 H 0.9575 0.44205 1.00414 0.0
H2147 H 0.96319 0.41313 0.01974 0.0
H2148 H 1.00034 0.4374 1.00433 0.0
H2149 H 0.09778 0.58793 0.01333 0.0
H2150 H 0.08106 0.61047 0.02796 0.0
H2151 H 0.05638 0.59336 0.0086 0.0
C2152 C 0.56462 0.52949 0.97155 0.0
C2153 C 0.54258 0.5403 0.96159 0.0
C2154 C 0.56028 0.52699 0.98848 0.0
C2155 C 0.52923 0.52988 0.99576 0.0
C2156 C 0.50276 0.53465 0.98546 0.0
C2157 C 0.51058 0.54123 0.96856 0.0
C2158 C 0.59074 0.52342 0.99838 0.0
C2159 C 0.46661 0.53382 0.992 0.0
C2160 C 0.53287 0.5093 0.04108 0.0
C2161 C 0.5467 0.54667 0.04778 0.0
C2162 C 0.52219 0.50195 0.02446 0.0
C2163 C 0.52856 0.53343 0.01398 0.0
C2164 C 0.54071 0.57064 0.02096 0.0
C2165 C 0.54707 0.57585 0.03778 0.0
C2166 C 0.50514 0.46051 0.01835 0.0
C2167 C 0.54938 0.60609 0.01077 0.0
H2168 H 0.58698 0.5247 0.96621 0.0
H2169 H 0.49197 0.54759 0.96095 0.0
H2170 H 0.59836 0.54103 0.00973 0.0
H2171 H 0.57926 0.49231 1.00169 0.0
H2172 H 0.61821 0.5332 0.99135 0.0
H2173 H 0.44066 0.51229 0.98496 0.0
H2174 H 0.46128 0.52588 1.0051 0.0
H2175 H 0.46904 0.56284 0.99012 0.0
H2176 H 0.531 0.48589 0.04863 0.0
H2177 H 0.55485 0.60419 0.04287 0.0
H2178 H 0.52706 0.45086 0.01971 0.0
H2179 H 0.49533 0.45688 1.00548 0.0
H2180 H 0.47966 0.44068 0.02605 0.0
H2181 H 0.56859 0.6339 0.01733 0.0
H2182 H 0.52158 0.60549 0.00799 0.0
H2183 H 0.56393 0.60666 0.99911 0.0
C2184 C 0.19936 0.40085 0.37087 0.0
C2185 C 0.20215 0.3745 0.38142 0.0
C2186 C 0.19872 0.39592 0.35383 0.0
C2187 C 0.20166 0.36411 0.34715 0.0
C2188 C 0.20777 0.33945 0.35786 0.0
C2189 C 0.20705 0.3444 0.37481 0.0
C2190 C 0.19301 0.42425 0.34342 0.0
C2191 C 0.21285 0.30635 0.3515 0.0
C2192 C 0.15373 0.32108 0.30587 0.0
C2193 C 0.18326 0.34569 0.29506 0.0
C2194 C 0.15953 0.32565 0.32288 0.0
C2195 C 0.19618 0.35522 0.32921 0.0
C2196 C 0.22703 0.37783 0.31818 0.0
C2197 C 0.21994 0.37334 0.30131 0.0
C2198 C 0.12527 0.29947 0.33367 0.0
C2199 C 0.26699 0.40843 0.32413 0.0
H2200 H 0.19445 0.42347 0.37593 0.0
H2201 H 0.20826 0.32335 0.38296 0.0
H2202 H 0.21859 0.45411 0.345 0.0
H2203 H 0.18958 0.41708 0.33026 0.0
H2204 H 0.16686 0.4254 0.3477 0.0
H2205 H 0.22475 0.29497 0.36096 0.0
H2206 H 0.18403 0.28194 0.34751 0.0
H2207 H 0.23277 0.31606 0.34079 0.0
H2208 H 0.12503 0.30033 0.3011 0.0
H2209 H 0.24267 0.39292 0.29296 0.0
H2210 H 0.13014 0.30734 0.34675 0.0
H2211 H 0.11888 0.2688 0.33231 0.0
H2212 H 0.09871 0.30007 0.32958 0.0
H2213 H 0.26575 0.43449 0.32841 0.0
H2214 H 0.28943 0.41795 0.31435 0.0
H2215 H 0.27635 0.39707 0.33455 0.0
C2216 C 0.73983 0.87795 0.37475 0.0
C2217 C 0.70504 0.86079 0.38396 0.0
C2218 C 0.73959 0.88075 0.35774 0.0
C2219 C 0.70393 0.86963 0.34957 0.0
C2220 C 0.66957 0.85821 0.35909 0.0
C2221 C 0.67025 0.85286 0.37613 0.0
C2222 C 0.77729 0.89285 0.34861 0.0
C2223 C 0.63134 0.84948 0.35137 0.0
C2224 C 0.72058 0.88401 0.30313 0.0
C2225 C 0.70243 0.84505 0.29772 0.0
C2226 C 0.71902 0.89289 0.31978 0.0
C2227 C 0.70142 0.86212 0.33152 0.0
C2228 C 0.68426 0.82292 0.32605 0.0
C2229 C 0.68323 0.81516 0.30939 0.0
C2230 C 0.73609 0.93533 0.32443 0.0
C2231 C 0.6672 0.78835 0.33762 0.0
H2232 H 0.76747 0.88663 0.38071 0.0
H2233 H 0.64334 0.84101 0.38311 0.0
H2234 H 0.77231 0.87322 0.33808 0.0
H2235 H 0.78917 0.92307 0.34394 0.0
H2236 H 0.79999 0.8925 0.35652 0.0
H2237 H 0.61748 0.86302 0.35868 0.0
H2238 H 0.63504 0.86044 0.33867 0.0
H2239 H 0.61082 0.81741 0.35146 0.0
H2240 H 0.73505 0.9076 0.2944 0.0
H2241 H 0.66743 0.7848 0.30564 0.0
H2242 H 0.76822 0.95099 0.32234 0.0
H2243 H 0.73017 0.93951 0.33727 0.0
H2244 H 0.7239 0.94925 0.31636 0.0
H2245 H 0.66808 0.76288 0.33227 0.0
H2246 H 0.63606 0.77901 0.34001 0.0
H2247 H 0.68295 0.79544 0.34943 0.0
C2248 C 0.25664 0.87426 0.3083 0.0
C2249 C 0.22722 0.87487 0.29877 0.0
C2250 C 0.25348 0.87011 0.32529 0.0
C2251 C 0.2187 0.86339 0.33313 0.0
C2252 C 0.18706 0.85966 0.32344 0.0
C2253 C 0.19202 0.86642 0.30644 0.0
C2254 C 0.28853 0.87527 0.33485 0.0
C2255 C 0.14819 0.84973 0.33089 0.0
C2256 C 0.22123 0.84363 0.37891 0.0
C2257 C 0.22838 0.87932 0.38566 0.0
C2258 C 0.21507 0.83661 0.36194 0.0
C2259 C 0.21847 0.86682 0.35135 0.0
C2260 C 0.22607 0.90288 0.3582 0.0
C2261 C 0.22926 0.90791 0.37511 0.0
C2262 C 0.20526 0.7968 0.35563 0.0
C2263 C 0.23245 0.93714 0.34769 0.0
H2264 H 0.28352 0.87908 0.30264 0.0
H2265 H 0.1685 0.86553 0.29927 0.0
H2266 H 0.29583 0.89707 0.34475 0.0
H2267 H 0.28162 0.84706 0.34056 0.0
H2268 H 0.3149 0.88511 0.32707 0.0
H2269 H 0.12383 0.82956 0.32278 0.0
H2270 H 0.14379 0.83586 0.34306 0.0
H2271 H 0.14637 0.8768 0.3321 0.0
H2272 H 0.21982 0.82096 0.38682 0.0
H2273 H 0.23401 0.93544 0.37998 0.0
H2274 H 0.23166 0.79366 0.35638 0.0
H2275 H 0.19451 0.79165 0.34287 0.0
H2276 H 0.18253 0.77361 0.36348 0.0
H2277 H 0.25284 0.94161 0.3375 0.0
H2278 H 0.24463 0.96488 0.35473 0.0
H2279 H 0.20419 0.9312 0.34235 0.0
C2280 C 0.86938 0.68475 0.71012 0.0
C2281 C 0.85962 0.71152 0.7168 0.0
C2282 C 0.87163 0.68097 0.69317 0.0
C2283 C 0.8616 0.70285 0.68249 0.0
C2284 C 0.85299 0.73103 0.68924 0.0
C2285 C 0.85266 0.73532 0.7063 0.0
C2286 C 0.88286 0.65204 0.68676 0.0
C2287 C 0.84234 0.75597 0.67886 0.0
C2288 C 0.88328 0.7186 0.63703 0.0
C2289 C 0.8495 0.68748 0.63009 0.0
C2290 C 0.88879 0.72225 0.65398 0.0
C2291 C 0.85883 0.69526 0.66445 0.0
C2292 C 0.82543 0.66249 0.65744 0.0
C2293 C 0.82149 0.65883 0.64034 0.0
C2294 C 0.92583 0.75638 0.66063 0.0
C2295 C 0.79242 0.63173 0.66758 0.0
H2296 H 0.87354 0.66534 0.71819 0.0
H2297 H 0.84385 0.75514 0.7114 0.0
H2298 H 0.85612 0.62506 0.68273 0.0
H2299 H 0.90271 0.66433 0.67609 0.0
H2300 H 0.89753 0.64375 0.69623 0.0
H2301 H 0.86552 0.78713 0.68012 0.0
H2302 H 0.83875 0.7482 0.66577 0.0
H2303 H 0.81472 0.7537 0.6834 0.0
H2304 H 0.90473 0.74131 0.62915 0.0
H2305 H 0.7949 0.63525 0.63505 0.0
H2306 H 0.9367 0.74726 0.6713 0.0
H2307 H 0.91965 0.77959 0.66471 0.0
H2308 H 0.94934 0.7692 0.65127 0.0
H2309 H 0.79085 0.6031 0.66563 0.0
H2310 H 0.76408 0.62829 0.66337 0.0
H2311 H 0.79544 0.63808 0.68081 0.0
C2312 C 0.40242 0.18638 0.64268 0.0
C2313 C 0.37485 0.18587 0.63183 0.0
C2314 C 0.397 0.18647 0.65968 0.0
C2315 C 0.36398 0.18789 0.66596 0.0
C2316 C 0.33852 0.19167 0.65486 0.0
C2317 C 0.34349 0.18923 0.63801 0.0
C2318 C 0.42633 0.18335 0.67048 0.0
C2319 C 0.30499 0.19672 0.6607 0.0
C2320 C 0.32299 0.14442 0.7081 0.0
C2321 C 0.34901 0.17465 0.71831 0.0
C2322 C 0.32596 0.14866 0.69101 0.0
C2323 C 0.35551 0.18444 0.68396 0.0
C2324 C 0.37886 0.21636 0.69443 0.0
C2325 C 0.37594 0.21078 0.71139 0.0
C2326 C 0.29832 0.11349 0.68098 0.0
C2327 C 0.4086 0.25595 0.68779 0.0
H2328 H 0.42651 0.18341 0.63795 0.0
H2329 H 0.32208 0.18889 0.62965 0.0
H2330 H 0.45521 0.21045 0.66921 0.0
H2331 H 0.41821 0.17901 0.68353 0.0
H2332 H 0.43025 0.15869 0.66634 0.0
H2333 H 0.2801 0.16784 0.66432 0.0
H2334 H 0.31374 0.21636 0.67147 0.0
H2335 H 0.29459 0.20897 0.65098 0.0
H2336 H 0.30242 0.11628 0.71341 0.0
H2337 H 0.39608 0.23432 0.71929 0.0
H2338 H 0.30181 0.11836 0.66767 0.0
H2339 H 0.26767 0.10468 0.68426 0.0
H2340 H 0.30245 0.08837 0.6841 0.0
H2341 H 0.43582 0.2557 0.6846 0.0
H2342 H 0.41625 0.27949 0.69694 0.0
H2343 H 0.39754 0.2631 0.67662 0.0
C2344 C 0.86759 0.1836 0.63222 0.0
C2345 C 0.87721 0.21977 0.6252 0.0
C2346 C 0.86516 0.17834 0.64921 0.0
C2347 C 0.87495 0.21068 0.65959 0.0
C2348 C 0.88336 0.24708 0.65249 0.0
C2349 C 0.88387 0.25093 0.63539 0.0
C2350 C 0.85399 0.1385 0.65598 0.0
C2351 C 0.89367 0.28309 0.66252 0.0
C2352 C 0.85316 0.20639 0.70502 0.0
C2353 C 0.88673 0.20885 0.71208 0.0
C2354 C 0.84775 0.20411 0.68805 0.0
C2355 C 0.87773 0.20668 0.67769 0.0
C2356 C 0.91101 0.20732 0.68484 0.0
C2357 C 0.91475 0.20782 0.70196 0.0
C2358 C 0.81078 0.2011 0.68126 0.0
C2359 C 0.94413 0.20936 0.67483 0.0
H2360 H 0.86361 0.15971 0.62439 0.0
H2361 H 0.89253 0.27927 0.63003 0.0
H2362 H 0.88077 0.13838 0.66004 0.0
H2363 H 0.83431 0.13147 0.66667 0.0
H2364 H 0.83914 0.11509 0.64669 0.0
H2365 H 0.92211 0.30784 0.65831 0.0
H2366 H 0.87128 0.29187 0.66044 0.0
H2367 H 0.89559 0.27913 0.67577 0.0
H2368 H 0.83175 0.20802 0.71279 0.0
H2369 H 0.9412 0.21072 0.70734 0.0
H2370 H 0.79994 0.18083 0.67068 0.0
H2371 H 0.817 0.23038 0.67702 0.0
H2372 H 0.78722 0.19068 0.69059 0.0
H2373 H 0.94588 0.18248 0.67702 0.0
H2374 H 0.97239 0.23449 0.67896 0.0
H2375 H 0.94115 0.21223 0.66157 0.0
C2376 C 0.31099 0.9109 0.1991 0.0
C2377 C 0.28948 0.92826 0.20471 0.0
C2378 C 0.33764 0.92678 0.18608 0.0
C2379 C 0.34245 0.96049 0.17785 0.0
C2380 C 0.31912 0.97696 0.1828 0.0
C2381 C 0.29306 0.96082 0.19623 0.0
C2382 C 0.36205 0.90838 0.18162 0.0
C2383 C 0.32287 0.01257 0.17433 0.0
C2384 C 0.43596 0.01785 0.15167 0.0
C2385 C 0.42347 0.99925 0.1365 0.0
C2386 C 0.41021 1.00599 0.16526 0.0
C2387 C 0.37016 0.97639 0.16349 0.0
C2388 C 0.35713 0.95897 0.14801 0.0
C2389 C 0.38383 0.96969 0.13504 0.0
C2390 C 0.42628 0.0253 0.18146 0.0
C2391 C 0.3148 0.92827 0.14514 0.0
H2392 H 0.30874 0.88594 0.20565 0.0
H2393 H 0.27745 0.97511 0.20068 0.0
H2394 H 0.35607 0.89776 0.16886 0.0
H2395 H 0.39364 0.93063 0.18244 0.0
H2396 H 0.35615 0.88336 0.18968 0.0
H2397 H 0.30092 0.02028 0.17875 0.0
H2398 H 0.35261 0.03787 0.17646 0.0
H2399 H 0.3193 1.00754 0.16097 0.0
H2400 H 0.46596 0.04115 0.15309 0.0
H2401 H 0.37297 0.95495 0.12354 0.0
H2402 H 0.41342 1.00401 0.19162 0.0
H2403 H 0.41897 0.0488 0.18327 0.0
H2404 H 0.45867 0.03894 0.18195 0.0
H2405 H 0.30774 0.90113 0.15188 0.0
H2406 H 0.3083 0.92082 0.13203 0.0
H2407 H 0.29512 0.93866 0.14979 0.0
C2408 C 0.02885 0.42727 0.15014 0.0
C2409 C 0.05697 0.45092 0.13851 0.0
C2410 C 0.03903 0.41146 0.16362 0.0
C2411 C 0.07808 0.41879 0.16542 0.0
C2412 C 0.10628 0.44238 0.15363 0.0
C2413 C 0.09567 0.45857 0.14069 0.0
C2414 C 1.00813 0.38728 0.17605 0.0
C2415 C 0.14814 0.45102 0.15473 0.0
C2416 C 0.1234 0.4209 0.20682 0.0
C2417 C 0.12286 0.38485 0.20747 0.0
C2418 C 0.10729 0.43108 0.1937 0.0
C2419 C 0.09097 0.4054 0.18028 0.0
C2420 C 0.09065 0.36912 0.18061 0.0
C2421 C 0.10615 0.35908 0.19424 0.0
C2422 C 0.10826 0.46989 0.19418 0.0
C2423 C 0.07446 0.34116 0.16643 0.0
H2424 H 0.99891 0.42094 0.14869 0.0
H2425 H 0.11814 0.47705 0.13206 0.0
H2426 H 1.00542 0.35798 0.17718 0.0
H2427 H 0.01692 0.40153 0.18818 0.0
H2428 H 0.97903 0.38345 0.17285 0.0
H2429 H 0.16556 0.46648 0.14376 0.0
H2430 H 0.16252 0.46954 0.16556 0.0
H2431 H 0.14888 0.42342 0.15626 0.0
H2432 H 0.13614 0.44151 0.21675 0.0
H2433 H 0.10514 0.33111 0.1945 0.0
H2434 H 0.07867 0.46555 0.19169 0.0
H2435 H 0.12816 0.4895 0.18455 0.0
H2436 H 0.11847 0.4849 0.20612 0.0
H2437 H 0.04373 0.33347 0.16404 0.0
H2438 H 0.07535 0.3138 0.16859 0.0
H2439 H 0.09156 0.3555 0.15526 0.0
C2440 C 0.695 0.76112 0.19635 0.0
C2441 C 0.66658 0.75634 0.20789 0.0
C2442 C 0.68497 0.73641 0.18251 0.0
C2443 C 0.64613 0.70453 0.18061 0.0
C2444 C 0.61748 0.6999 0.19222 0.0
C2445 C 0.62756 0.727 0.20504 0.0
C2446 C 0.71584 0.74467 0.16981 0.0
C2447 C 0.57608 0.66578 0.19145 0.0
C2448 C 0.59915 0.6587 0.13987 0.0
C2449 C 0.60672 0.62749 0.13805 0.0
C2450 C 0.61404 0.68501 0.15298 0.0
C2451 C 0.63415 0.67842 0.16575 0.0
C2452 C 0.64026 0.64575 0.16453 0.0
C2453 C 0.62719 0.62121 0.15056 0.0
C2454 C 0.60859 0.72036 0.15286 0.0
C2455 C 0.65928 0.6355 0.1781 0.0
H2456 H 0.72518 0.78373 0.19823 0.0
H2457 H 0.60503 0.72329 0.21363 0.0
H2458 H 0.72123 0.71968 0.16895 0.0
H2459 H 0.70536 0.74802 0.15768 0.0
H2460 H 0.74399 0.77165 0.17255 0.0
H2461 H 0.56158 0.65954 0.20357 0.0
H2462 H 0.55858 0.67271 0.18294 0.0
H2463 H 0.57545 0.63883 0.18704 0.0
H2464 H 0.58303 0.66408 0.13051 0.0
H2465 H 0.63329 0.5974 0.14944 0.0
H2466 H 0.63479 0.74664 0.15776 0.0
H2467 H 0.58314 0.71454 0.16056 0.0
H2468 H 0.60289 0.72721 0.14037 0.0
H2469 H 0.68237 0.66191 0.18434 0.0
H2470 H 0.67233 0.61797 0.17357 0.0
H2471 H 0.63651 0.61756 0.18722 0.0
C2472 C 0.03289 0.42726 0.86283 0.0
C2473 C 1.0031 0.42691 0.87235 0.0
C2474 C 0.02392 0.4026 0.84902 0.0
C2475 C 0.98422 0.37647 0.84471 0.0
C2476 C 0.95422 0.37661 0.85419 0.0
C2477 C 0.964 0.40222 0.86756 0.0
C2478 C 0.05693 0.40441 0.83905 0.0
C2479 C 0.91154 0.3493 0.85032 0.0
C2480 C 0.95342 0.34233 0.80098 0.0
C2481 C 0.94729 0.30382 0.80082 0.0
C2482 C 0.96696 0.36637 0.81484 0.0
C2483 C 0.97366 0.35173 0.82947 0.0
C2484 C 0.96765 0.31297 0.82957 0.0
C2485 C 0.95502 0.28969 0.81523 0.0
C2486 C 0.97367 0.40758 0.81382 0.0
C2487 C 0.97346 0.29557 0.84491 0.0
H2488 H 0.06315 0.44598 0.86642 0.0
H2489 H 0.94068 0.40178 0.87474 0.0
H2490 H 0.05476 0.37524 0.83889 0.0
H2491 H 0.0546 0.41207 0.82625 0.0
H2492 H 0.08615 0.42627 0.84387 0.0
H2493 H 0.89173 0.35083 0.85956 0.0
H2494 H 0.90438 0.35673 0.83824 0.0
H2495 H 0.90553 0.31866 0.84964 0.0
H2496 H 0.94797 0.35436 0.7901 0.0
H2497 H 0.95116 0.26052 0.81538 0.0
H2498 H 1.00341 0.42889 0.81831 0.0
H2499 H 0.95231 0.41034 0.8217 0.0
H2500 H 0.97057 0.41584 0.80119 0.0
H2501 H 1.00167 0.31637 0.85079 0.0
H2502 H 0.97297 0.26756 0.84258 0.0
H2503 H 0.9496 0.2898 0.85361 0.0
C2504 C 0.65694 0.59285 0.86935 0.0
C2505 C 0.62617 0.60071 0.87184 0.0
C2506 C 0.68371 0.60966 0.85647 0.0
C2507 C 0.67927 0.63413 0.84511 0.0
C2508 C 0.64756 0.64137 0.84713 0.0
C2509 C 0.62156 0.62486 0.86054 0.0
C2510 C 0.71683 0.60092 0.85503 0.0
C2511 C 0.64111 0.66651 0.83511 0.0
C2512 C 0.76804 0.69546 0.81719 0.0
C2513 C 0.75941 0.67048 0.80371 0.0
C2514 C 0.74189 0.68473 0.83061 0.0
C2515 C 0.7058 0.64862 0.83042 0.0
C2516 C 0.69676 0.62387 0.8167 0.0
C2517 C 0.72369 0.63466 0.80383 0.0
C2518 C 0.75322 0.71161 0.84515 0.0
C2519 C 0.65878 0.58528 0.81571 0.0
H2520 H 0.66063 0.57363 0.87767 0.0
H2521 H 0.59823 0.63147 0.86234 0.0
H2522 H 0.71285 0.58331 0.8439 0.0
H2523 H 0.74526 0.62855 0.85383 0.0
H2524 H 0.71849 0.58448 0.86571 0.0
H2525 H 0.6155 0.66973 0.83838 0.0
H2526 H 0.66756 0.69603 0.8345 0.0
H2527 H 0.63641 0.6535 0.82275 0.0
H2528 H 0.79521 0.72323 0.81732 0.0
H2529 H 0.71632 0.61452 0.79375 0.0
H2530 H 0.75635 0.69665 0.85602 0.0
H2531 H 0.72982 0.71859 0.8479 0.0
H2532 H 0.7812 0.73939 0.8432 0.0
H2533 H 0.65883 0.56464 0.82488 0.0
H2534 H 0.6541 0.5715 0.80349 0.0
H2535 H 0.63359 0.58951 0.81852 0.0
C2536 C 0.4136 0.13628 0.81653 0.0
C2537 C 0.38378 0.11156 0.8058 0.0
C2538 C 0.42408 0.12122 0.83001 0.0
C2539 C 0.40655 0.07999 0.8322 0.0
C2540 C 0.37616 0.05494 0.82129 0.0
C2541 C 0.36412 0.07112 0.80873 0.0
C2542 C 0.4543 0.15007 0.8417 0.0
C2543 C 0.35669 1.01092 0.82252 0.0
C2544 C 0.47106 0.05556 0.85955 0.0
C2545 C 0.44703 0.03862 0.87321 0.0
C2546 C 0.45735 0.06654 0.84568 0.0
C2547 C 0.41964 0.06335 0.84589 0.0
C2548 C 0.39511 0.04514 0.85959 0.0
C2549 C 0.40837 0.03107 0.87243 0.0
C2550 C 0.48419 0.08248 0.83113 0.0
C2551 C 0.35541 0.04172 0.86158 0.0
H2552 H 0.42881 0.16763 0.81438 0.0
H2553 H 0.341 0.05186 0.80045 0.0
H2554 H 0.45163 0.13754 0.85406 0.0
H2555 H 0.48399 0.1594 0.83688 0.0
H2556 H 0.45171 0.17679 0.84277 0.0
H2557 H 0.34294 0.99647 0.81082 0.0
H2558 H 0.37789 1.0016 0.82622 0.0
H2559 H 0.33305 1.00021 0.83176 0.0
H2560 H 0.50099 0.06142 0.85984 0.0
H2561 H 0.3885 0.015 0.88222 0.0
H2562 H 0.50623 0.11364 0.83334 0.0
H2563 H 0.46819 0.0803 0.8197 0.0
H2564 H 0.50052 0.06651 0.82942 0.0
H2565 H 0.34927 0.0588 0.85252 0.0
H2566 H 0.35305 0.05195 0.87392 0.0
H2567 H 0.33234 1.01042 0.86078 0.0
C2568 C 0.96572 0.29304 0.52451 0.0
C2569 C 0.97292 0.27337 0.53712 0.0
C2570 C 0.9915 0.30858 0.51098 0.0
C2571 C 0.02555 0.30483 0.5101 0.0
C2572 C 0.03278 0.28504 0.5228 0.0
C2573 C 1.0064 0.26931 0.53588 0.0
C2574 C 0.98227 0.32888 0.49759 0.0
C2575 C 0.06842 0.2801 0.52257 0.0
C2576 C 0.07238 0.30268 0.46971 0.0
C2577 C 0.10599 0.34015 0.46882 0.0
C2578 C 0.04542 0.29175 0.4826 0.0
C2579 C 0.05216 0.31841 0.49541 0.0
C2580 C 0.08617 0.35624 0.49478 0.0
C2581 C 0.1125 0.36677 0.48145 0.0
C2582 C 1.00982 0.25116 0.48258 0.0
C2583 C 0.09492 0.38542 0.50828 0.0
H2584 H 0.94028 0.29668 0.52528 0.0
H2585 H 1.01252 0.25392 0.54531 0.0
H2586 H 1.00709 0.35914 0.49596 0.0
H2587 H 0.97842 0.31324 0.48589 0.0
H2588 H 0.95528 0.33022 0.50015 0.0
H2589 H 0.07146 0.26658 0.53395 0.0
H2590 H 0.06653 0.26132 0.51214 0.0
H2591 H 0.09537 0.30891 0.52089 0.0
H2592 H 0.06677 0.28147 0.4602 0.0
H2593 H 0.13793 0.39588 0.48089 0.0
H2594 H 0.98282 0.25287 0.4844 0.0
H2595 H 1.01175 0.23385 0.49283 0.0
H2596 H 1.0069 0.23515 0.47105 0.0
H2597 H 0.06976 0.3903 0.51001 0.0
H2598 H 0.12162 0.41403 0.50579 0.0
H2599 H 0.09908 0.3736 0.51991 0.0
C2600 C 0.76879 0.79734 0.47339 0.0
C2601 C 0.73093 0.79223 0.47178 0.0
C2602 C 0.77882 0.7805 0.48628 0.0
C2603 C 0.75079 0.75856 0.4984 0.0
C2604 C 0.71248 0.75336 0.49701 0.0
C2605 C 0.70291 0.76996 0.48368 0.0
C2606 C 0.81996 0.787 0.48705 0.0
C2607 C 0.6818 0.73078 0.50976 0.0
C2608 C 0.77505 0.69761 0.52812 0.0
C2609 C 0.79191 0.7237 0.54123 0.0
C2610 C 0.76098 0.70809 0.51416 0.0
C2611 C 0.76333 0.7453 0.51334 0.0
C2612 C 0.78044 0.77157 0.52652 0.0
C2613 C 0.79475 0.76074 0.54003 0.0
C2614 C 0.74362 0.6794 0.50028 0.0
C2615 C 0.78383 0.81151 0.52638 0.0
H2616 H 0.7911 0.81473 0.46451 0.0
H2617 H 0.67352 0.76537 0.48257 0.0
H2618 H 0.83564 0.80601 0.49761 0.0
H2619 H 0.81922 0.75875 0.48888 0.0
H2620 H 0.83702 0.80108 0.47583 0.0
H2621 H 0.65292 0.72754 0.5066 0.0
H2622 H 0.67827 0.70124 0.51134 0.0
H2623 H 0.69136 0.74603 0.52167 0.0
H2624 H 0.77229 0.66889 0.52885 0.0
H2625 H 0.80796 0.78167 0.54986 0.0
H2626 H 0.76045 0.6927 0.48894 0.0
H2627 H 0.71307 0.67251 0.49804 0.0
H2628 H 0.74361 0.65168 0.50271 0.0
H2629 H 0.80342 0.82942 0.51632 0.0
H2630 H 0.79565 0.82761 0.53801 0.0
H2631 H 0.75472 0.80859 0.52417 0.0
C2632 C 0.26114 0.97183 0.48552 0.0
C2633 C 0.28524 0.96716 0.47429 0.0
C2634 C 0.27712 0.99746 0.49894 0.0
C2635 C 0.31846 0.02144 0.50054 0.0
C2636 C 0.34284 0.0162 0.48923 0.0
C2637 C 0.32588 0.98811 0.47666 0.0
C2638 C 0.24935 0.9991 0.51115 0.0
C2639 C 0.3869 0.04126 0.4899 0.0
C2640 C 0.34411 0.11143 0.52731 0.0
C2641 C 0.36238 0.10534 0.54072 0.0
C2642 C 0.33208 0.086 0.5137 0.0
C2643 C 0.3359 0.05184 0.51392 0.0
C2644 C 0.35514 0.04629 0.52745 0.0
C2645 C 0.36968 0.07407 0.54014 0.0
C2646 C 0.31416 0.0959 0.49955 0.0
C2647 C 0.35837 1.00995 0.52963 0.0
H2648 H 0.22966 0.95546 0.48379 0.0
H2649 H 0.34458 0.98471 0.46789 0.0
H2650 H 0.26195 1.00538 0.52362 0.0
H2651 H 0.24315 0.02262 0.50762 0.0
H2652 H 0.22098 0.9711 0.51143 0.0
H2653 H 0.39578 0.07237 0.4922 0.0
H2654 H 0.39843 0.03119 0.49997 0.0
H2655 H 0.40097 0.03947 0.47845 0.0
H2656 H 0.33781 0.13522 0.52766 0.0
H2657 H 0.38492 0.0699 0.55019 0.0
H2658 H 0.28657 0.09443 0.50358 0.0
H2659 H 0.30783 0.07645 0.48887 0.0
H2660 H 0.33424 0.12656 0.49563 0.0
H2661 H 0.34475 0.99587 0.54141 0.0
H2662 H 0.38976 0.01838 0.53036 0.0
H2663 H 0.34405 0.98778 0.51991 0.0
C2664 C 0.541 0.31312 0.09764 0.0
C2665 C 0.51381 0.31701 0.10736 0.0
C2666 C 0.53421 0.27586 0.09275 0.0
C2667 C 0.49941 0.24159 0.09769 0.0
C2668 C 0.47062 0.24566 0.10641 0.0
C2669 C 0.47813 0.28314 0.1111 0.0
C2670 C 0.56558 0.27308 0.08332 0.0
C2671 C 0.43303 0.21024 0.11191 0.0
C2672 C 0.4731 0.13924 0.08209 0.0
C2673 C 0.48753 0.12588 0.09472 0.0
C2674 C 0.47698 0.17691 0.08269 0.0
C2675 C 0.49587 0.20192 0.09618 0.0
C2676 C 0.51063 0.18854 0.10885 0.0
C2677 C 0.50638 0.15105 0.10794 0.0
C2678 C 0.46091 0.18994 0.06889 0.0
C2679 C 0.53064 0.21372 0.12358 0.0
H2680 H 0.56865 0.33898 0.09468 0.0
H2681 H 0.45656 0.28583 0.11833 0.0
H2682 H 0.58078 0.26255 0.0915 0.0
H2683 H 0.55248 0.25164 0.07322 0.0
H2684 H 0.58771 0.30185 0.07819 0.0
H2685 H 0.41141 0.21823 0.11649 0.0
H2686 H 0.41954 0.18894 0.1018 0.0
H2687 H 0.43951 0.19527 0.12187 0.0
H2688 H 0.45889 0.12039 0.07173 0.0
H2689 H 0.51786 0.14145 0.1178 0.0
H2690 H 0.48501 0.21645 0.06306 0.0
H2691 H 0.43955 0.19804 0.07363 0.0
H2692 H 0.44623 0.16683 0.05947 0.0
H2693 H 0.55622 0.24187 0.1197 0.0
H2694 H 0.54091 0.19922 0.1323 0.0
H2695 H 0.51016 0.2207 0.13005 0.0
C2696 C 0.76913 0.21632 0.09247 0.0
C2697 C 0.74826 0.2143 0.10665 0.0
C2698 C 0.80633 0.24915 0.08921 0.0
C2699 C 0.82343 0.28069 0.10047 0.0
C2700 C 0.80192 0.279 0.11464 0.0
C2701 C 0.76486 0.24585 0.11757 0.0
C2702 C 0.82801 0.2494 0.07401 0.0
C2703 C 0.81871 0.31124 0.12722 0.0
C2704 C 0.93479 0.35075 0.10199 0.0
C2705 C 0.9388 0.3839 0.09387 0.0
C2706 C 0.89772 0.31666 0.10386 0.0
C2707 C 0.86361 0.31549 0.09749 0.0
C2708 C 0.86776 0.34855 0.08892 0.0
C2709 C 0.90506 0.38205 0.08717 0.0
C2710 C 0.89495 0.28225 0.11307 0.0
C2711 C 0.83267 0.34884 0.08171 0.0
H2712 H 0.75696 0.19147 0.08424 0.0
H2713 H 0.74946 0.24386 0.12881 0.0
H2714 H 0.83607 0.27609 0.06674 0.0
H2715 H 0.85567 0.25023 0.07741 0.0
H2716 H 0.81042 0.22326 0.06625 0.0
H2717 H 0.79549 0.31056 0.13513 0.0
H2718 H 0.83948 0.30743 0.13507 0.0
H2719 H 0.83516 0.34051 0.12144 0.0
H2720 H 0.96042 0.35182 0.10732 0.0
H2721 H 0.90764 0.40722 0.08072 0.0
H2722 H 0.87839 0.25499 0.10584 0.0
H2723 H 0.87867 0.27821 0.12461 0.0
H2724 H 0.92426 0.2863 0.11602 0.0
H2725 H 0.82135 0.32824 0.07127 0.0
H2726 H 0.8399 0.37839 0.07733 0.0
H2727 H 0.8087 0.33874 0.0908 0.0
C2728 C 0.67215 0.53547 0.08976 0.0
C2729 C 0.6761 0.57019 0.09632 0.0
C2730 C 0.70077 0.52462 0.0923 0.0
C2731 C 0.73443 0.54882 0.10178 0.0
C2732 C 0.73884 0.58417 0.10833 0.0
C2733 C 0.70977 0.5945 0.10547 0.0
C2734 C 0.69472 0.48689 0.08491 0.0
C2735 C 0.77388 0.61071 0.11864 0.0
C2736 C 0.78168 0.49359 0.1204 0.0
C2737 C 0.81273 0.50245 0.10963 0.0
C2738 C 0.75747 0.51018 0.11851 0.0
C2739 C 0.76376 0.53586 0.1053 0.0
C2740 C 0.796 0.54606 0.09471 0.0
C2741 C 0.82027 0.52953 0.09708 0.0
C2742 C 0.7241 0.4989 0.13031 0.0
C2743 C 0.80363 0.57284 0.08035 0.0
H2744 H 0.64649 0.51655 0.08256 0.0
H2745 H 0.7132 0.62139 0.11059 0.0
H2746 H 0.72043 0.49269 0.07736 0.0
H2747 H 0.69207 0.46633 0.09472 0.0
H2748 H 0.66802 0.47231 0.0772 0.0
H2749 H 0.77423 0.63817 0.12205 0.0
H2750 H 0.77366 0.59516 0.12994 0.0
H2751 H 0.80136 0.61842 0.11203 0.0
H2752 H 0.77581 0.47289 0.13019 0.0
H2753 H 0.84398 0.53629 0.08863 0.0
H2754 H 0.69578 0.48084 0.12395 0.0
H2755 H 0.72434 0.52546 0.13496 0.0
H2756 H 0.7255 0.48193 0.14084 0.0
H2757 H 0.77951 0.55808 0.07138 0.0
H2758 H 0.83175 0.58088 0.07417 0.0
H2759 H 0.80416 0.60003 0.08428 0.0
C2760 C 0.31413 0.56429 0.92335 0.0
C2761 C 0.3305 0.54309 0.91633 0.0
C2762 C 0.27334 0.54799 0.92504 0.0
C2763 C 0.24772 0.50868 0.92028 0.0
C2764 C 0.26403 0.48602 0.91446 0.0
C2765 C 0.30495 0.50357 0.91229 0.0
C2766 C 0.25782 0.57348 0.93156 0.0
C2767 C 0.2382 0.44348 0.91 0.0
C2768 C 0.13997 0.46924 0.93208 0.0
C2769 C 0.12454 0.47432 0.91748 0.0
C2770 C 0.17942 0.47806 0.93304 0.0
C2771 C 0.20435 0.49344 0.91922 0.0
C2772 C 0.18831 0.49719 0.90434 0.0
C2773 C 0.14872 0.48684 0.90361 0.0
C2774 C 0.19452 0.47194 0.949 0.0
C2775 C 0.2132 0.51347 0.88921 0.0
H2776 H 0.33318 0.5942 0.92728 0.0
H2777 H 0.31659 0.48644 0.90688 0.0
H2778 H 0.23235 0.56969 0.92436 0.0
H2779 H 0.24779 0.56481 0.94429 0.0
H2780 H 0.28051 0.60503 0.93151 0.0
H2781 H 0.255 0.42776 0.9095 0.0
H2782 H 0.2139 0.42849 0.91889 0.0
H2783 H 0.22504 0.44131 0.89783 0.0
H2784 H 0.1217 0.45954 0.94287 0.0
H2785 H 0.13705 0.49006 0.89212 0.0
H2786 H 0.20986 0.50015 0.95566 0.0
H2787 H 0.21569 0.46156 0.94699 0.0
H2788 H 0.17024 0.45044 0.95682 0.0
H2789 H 0.24135 0.54024 0.89209 0.0
H2790 H 0.19813 0.52078 0.87956 0.0
H2791 H 0.22016 0.49153 0.8842 0.0
C2792 C 0.61399 0.85131 0.90678 0.0
C2793 C 0.57859 0.85179 0.90537 0.0
C2794 C 0.61454 0.81647 0.90987 0.0
C2795 C 0.57889 0.78105 0.91232 0.0
C2796 C 0.54323 0.78175 0.91224 0.0
C2797 C 0.54343 0.81687 0.90857 0.0
C2798 C 0.65325 0.81722 0.90951 0.0
C2799 C 0.50455 0.74497 0.91523 0.0
C2800 C 0.57391 0.68549 0.89974 0.0
C2801 C 0.57995 0.67149 0.91453 0.0
C2802 C 0.57385 0.72107 0.89889 0.0
C2803 C 0.57883 0.74296 0.91329 0.0
C2804 C 0.58481 0.72887 0.92832 0.0
C2805 C 0.58598 0.69364 0.92872 0.0
C2806 C 0.5688 0.73539 0.8825 0.0
C2807 C 0.58911 0.75055 0.94403 0.0
H2808 H 0.64157 0.87813 0.90496 0.0
H2809 H 0.51581 0.81642 0.90754 0.0
H2810 H 0.65708 0.80377 0.92071 0.0
H2811 H 0.6537 0.79963 0.89903 0.0
H2812 H 0.67857 0.84742 0.90835 0.0
H2813 H 0.48094 0.75161 0.91815 0.0
H2814 H 0.49586 0.72647 0.90413 0.0
H2815 H 0.50696 0.72763 0.92536 0.0
H2816 H 0.56972 0.66877 0.88868 0.0
H2817 H 0.5905 0.68287 0.9402 0.0
H2818 H 0.59363 0.7653 0.88014 0.0
H2819 H 0.5416 0.73718 0.88245 0.0
H2820 H 0.56718 0.71592 0.87238 0.0
H2821 H 0.6146 0.78065 0.9433 0.0
H2822 H 0.59303 0.73554 0.95472 0.0
H2823 H 0.56273 0.7533 0.94603 0.0
C2824 C 0.38348 0.90144 0.90311 0.0
C2825 C 0.38995 0.92565 0.91671 0.0
C2826 C 0.35403 0.8619 0.90308 0.0
C2827 C 0.32995 0.84561 0.91698 0.0
C2828 C 0.33476 0.87031 0.93044 0.0
C2829 C 0.36471 0.91007 0.93015 0.0
C2830 C 0.34992 0.8371 0.88834 0.0
C2831 C 0.30953 0.85442 0.94544 0.0
C2832 C 0.24081 0.74488 0.90895 0.0
C2833 C 0.25516 0.71981 0.91318 0.0
C2834 C 0.26382 0.7858 0.91105 0.0
C2835 C 0.30214 0.80221 0.91758 0.0
C2836 C 0.31583 0.77683 0.92273 0.0
C2837 C 0.29231 0.73613 0.92044 0.0
C2838 C 0.24792 0.81159 0.90543 0.0
C2839 C 0.35626 0.79281 0.9299 0.0
H2840 H 0.40225 0.91314 0.89251 0.0
H2841 H 0.36935 0.92841 0.94071 0.0
H2842 H 0.35759 0.81449 0.89171 0.0
H2843 H 0.31915 0.82161 0.88402 0.0
H2844 H 0.36914 0.85472 0.87811 0.0
H2845 H 0.31236 0.87823 0.95359 0.0
H2846 H 0.27829 0.83565 0.94205 0.0
H2847 H 0.31843 0.83592 0.95234 0.0
H2848 H 0.21224 0.73271 0.90328 0.0
H2849 H 0.30341 0.71704 0.92406 0.0
H2850 H 0.26329 0.82715 0.89413 0.0
H2851 H 0.25333 0.83417 0.91473 0.0
H2852 H 0.216 0.79449 0.90286 0.0
H2853 H 0.37861 0.80894 0.92036 0.0
H2854 H 0.36106 0.76928 0.93481 0.0
H2855 H 0.36102 0.81384 0.93983 0.0
C2856 C 0.2084 0.64998 0.43367 0.0
C2857 C 0.17496 0.65113 0.43875 0.0
C2858 C 0.20606 0.61444 0.42888 0.0
C2859 C 0.16955 0.57892 0.42948 0.0
C2860 C 0.13536 0.58047 0.43339 0.0
C2861 C 0.13842 0.61645 0.43771 0.0
C2862 C 0.24343 0.61495 0.42442 0.0
C2863 C 0.0958 0.54362 0.43435 0.0
C2864 C 0.1558 0.48127 0.41332 0.0
C2865 C 0.16217 0.46514 0.42745 0.0
C2866 C 0.15878 0.51854 0.41363 0.0
C2867 C 0.16763 0.5399 0.42846 0.0
C2868 C 0.17345 0.5233 0.44275 0.0
C2869 C 0.17075 0.48643 0.44206 0.0
C2870 C 0.1534 0.5355 0.39802 0.0
C2871 C 0.18258 0.54454 0.45888 0.0
H2872 H 0.23682 0.67636 0.43434 0.0
H2873 H 0.11211 0.617 0.44109 0.0
H2874 H 0.25767 0.61295 0.43574 0.0
H2875 H 0.23811 0.59019 0.41634 0.0
H2876 H 0.26422 0.64288 0.41829 0.0
H2877 H 0.07156 0.55008 0.43579 0.0
H2878 H 0.09024 0.52542 0.42329 0.0
H2879 H 0.09532 0.52586 0.44494 0.0
H2880 H 0.14937 0.46518 0.40196 0.0
H2881 H 0.17538 0.4742 0.4531 0.0
H2882 H 0.18066 0.56331 0.39521 0.0
H2883 H 0.12963 0.54257 0.39945 0.0
H2884 H 0.14624 0.51517 0.38755 0.0
H2885 H 0.21068 0.5726 0.45798 0.0
H2886 H 0.18494 0.52707 0.46899 0.0
H2887 H 0.15942 0.55163 0.462 0.0
C2888 C 0.58609 0.7136 0.44167 0.0
C2889 C 0.61032 0.72552 0.42783 0.0
C2890 C 0.54693 0.68337 0.44097 0.0
C2891 C 0.53158 0.66284 0.42618 0.0
C2892 C 0.55687 0.67233 0.41248 0.0
C2893 C 0.59587 0.70384 0.41341 0.0
C2894 C 0.52178 0.67457 0.45604 0.0
C2895 C 0.54242 0.6502 0.39669 0.0
C2896 C 0.43143 0.57218 0.43323 0.0
C2897 C 0.40578 0.58571 0.42879 0.0
C2898 C 0.47233 0.59571 0.43116 0.0
C2899 C 0.4884 0.6343 0.42495 0.0
C2900 C 0.46259 0.64737 0.41966 0.0
C2901 C 0.42184 0.62279 0.4214 0.0
C2902 C 0.49834 0.5796 0.4362 0.0
C2903 C 0.47759 0.68758 0.41236 0.0
H2904 H 0.59725 0.72911 0.45308 0.0
H2905 H 0.61449 0.71227 0.40271 0.0
H2906 H 0.49264 0.67071 0.453 0.0
H2907 H 0.51702 0.6469 0.4616 0.0
H2908 H 0.5357 0.69811 0.46533 0.0
H2909 H 0.56708 0.65448 0.38872 0.0
H2910 H 0.52312 0.61839 0.39898 0.0
H2911 H 0.52503 0.66085 0.39006 0.0
H2912 H 0.41983 0.54369 0.4389 0.0
H2913 H 0.40255 0.63317 0.41723 0.0
H2914 H 0.50979 0.59002 0.44864 0.0
H2915 H 0.52377 0.58975 0.42785 0.0
H2916 H 0.48201 0.54706 0.4364 0.0
H2917 H 0.50569 0.70978 0.41787 0.0
H2918 H 0.45602 0.69772 0.41377 0.0
H2919 H 0.48263 0.68625 0.39913 0.0
C2920 C 0.49472 0.87774 0.43541 0.0
C2921 C 0.48392 0.8403 0.4294 0.0
C2922 C 0.47037 0.89411 0.43326 0.0
C2923 C 0.43425 0.87262 0.42489 0.0
C2924 C 0.42444 0.83594 0.41791 0.0
C2925 C 0.4493 0.8203 0.42024 0.0
C2926 C 0.48214 0.93331 0.44088 0.0
C2927 C 0.38639 0.81199 0.40885 0.0
C2928 C 0.34856 0.88301 0.43974 0.0
C2929 C 0.34479 0.9061 0.42759 0.0
C2930 C 0.37756 0.8724 0.43896 0.0
C2931 C 0.40412 0.88521 0.42573 0.0
C2932 C 0.40094 0.90885 0.41344 0.0
C2933 C 0.37113 0.9188 0.41447 0.0
C2934 C 0.37947 0.84704 0.45235 0.0
C2935 C 0.42874 0.92331 0.39916 0.0
H2936 H 0.52125 0.89347 0.44256 0.0
H2937 H 0.44103 0.79175 0.41523 0.0
H2938 H 0.47735 0.95216 0.43225 0.0
H2939 H 0.46364 0.92891 0.45176 0.0
H2940 H 0.51333 0.94893 0.44474 0.0
H2941 H 0.38532 0.78669 0.40239 0.0
H2942 H 0.3616 0.80067 0.41759 0.0
H2943 H 0.38199 0.83042 0.39984 0.0
H2944 H 0.32852 0.87276 0.44998 0.0
H2945 H 0.3684 0.93625 0.40498 0.0
H2946 H 0.40873 0.86215 0.45821 0.0
H2947 H 0.37529 0.81924 0.44713 0.0
H2948 H 0.35687 0.83984 0.4619 0.0
H2949 H 0.4595 0.93853 0.40352 0.0
H2950 H 0.42426 0.94366 0.39128 0.0
H2951 H 0.42454 0.89804 0.39169 0.0
C2952 C 0.81631 0.81571 0.26737 0.0
C2953 C 0.79928 0.82057 0.2532 0.0
C2954 C 0.85613 0.82559 0.26769 0.0
C2955 C 0.87984 0.84142 0.25358 0.0
C2956 C 0.86261 0.84608 0.23924 0.0
C2957 C 0.82285 0.83558 0.23921 0.0
C2958 C 0.87297 0.81973 0.28323 0.0
C2959 C 0.8864 0.86292 0.22389 0.0
C2960 C 0.99082 0.90899 0.25553 0.0
C2961 C 1.00513 0.88497 0.24966 0.0
C2962 C 0.9504 0.8947 0.2576 0.0
C2963 C 0.92306 0.85515 0.2538 0.0
C2964 C 0.9373 0.83017 0.24864 0.0
C2965 C 0.97802 0.84531 0.24663 0.0
C2966 C 0.93689 0.92253 0.26318 0.0
C2967 C 0.9094 0.78781 0.24452 0.0
H2968 H 0.79877 0.80486 0.2783 0.0
H2969 H 0.8103 0.83952 0.22812 0.0
H2970 H 0.88781 0.80263 0.28075 0.0
H2971 H 0.89538 0.84856 0.28813 0.0
H2972 H 0.85017 0.80427 0.2927 0.0
H2973 H 0.86845 0.86359 0.2136 0.0
H2974 H 0.91046 0.89324 0.22622 0.0
H2975 H 0.90006 0.84541 0.22017 0.0
H2976 H 1.01132 0.93943 0.25828 0.0
H2977 H 0.98844 0.82638 0.24203 0.0
H2978 H 0.91641 0.90983 0.27361 0.0
H2979 H 0.92075 0.92718 0.25316 0.0
H2980 H 0.9617 0.95145 0.26688 0.0
H2981 H 0.88737 0.77357 0.25434 0.0
H2982 H 0.92487 0.77104 0.24264 0.0
H2983 H 0.89327 0.78612 0.23319 0.0
C2984 C 0.25018 0.02014 0.23653 0.0
C2985 C 0.2533 1.00424 0.25138 0.0
C2986 C 0.24748 0.05439 0.2359 0.0
C2987 C 0.24713 0.07335 0.25053 0.0
C2988 C 0.2508 0.05774 0.26563 0.0
C2989 C 0.25414 0.02357 0.26587 0.0
C2990 C 0.24482 0.07017 0.21947 0.0
C2991 C 0.25003 0.07644 0.28155 0.0
C2992 C 0.27491 0.18037 0.24471 0.0
C2993 C 0.23839 0.17775 0.24189 0.0
C2994 C 0.27807 0.1471 0.24836 0.0
C2995 C 0.24384 0.1099 0.24971 0.0
C2996 C 0.20673 0.1075 0.2483 0.0
C2997 C 0.20443 0.14127 0.24431 0.0
C2998 C 0.3183 0.15146 0.2496 0.0
C2999 C 0.16934 0.06877 0.24996 0.0
H3000 H 0.24974 1.00556 0.22525 0.0
H3001 H 0.25608 0.01126 0.2774 0.0
H3002 H 0.21652 0.06968 0.21842 0.0
H3003 H 0.26853 0.1011 0.21821 0.0
H3004 H 0.24711 0.05299 0.20923 0.0
H3005 H 0.255 0.06199 0.29217 0.0
H3006 H 0.27269 0.10791 0.28159 0.0
H3007 H 0.22121 0.0747 0.283 0.0
H3008 H 0.30146 0.20844 0.24334 0.0
H3009 H 0.17604 0.13856 0.2422 0.0
H3010 H 0.32311 0.13659 0.2391 0.0
H3011 H 0.32075 0.13717 0.26083 0.0
H3012 H 0.34195 0.18263 0.24966 0.0
H3013 H 0.1645 0.05153 0.23866 0.0
H3014 H 0.14357 0.07263 0.25189 0.0
H3015 H 0.17129 0.05152 0.26024 0.0
C3016 C 0.87822 0.10871 0.24781 0.0
C3017 C 0.88043 0.07443 0.24556 0.0
C3018 C 0.91184 0.1453 0.25067 0.0
C3019 C 0.94895 0.148 0.25188 0.0
C3020 C 0.95097 0.11301 0.25117 0.0
C3021 C 0.91682 0.07673 0.2479 0.0
C3022 C 0.9079 0.1815 0.25109 0.0
C3023 C 0.98963 0.11418 0.25291 0.0
C3024 C 0.03794 0.24196 0.23655 0.0
C3025 C 0.05419 0.26312 0.25096 0.0
C3026 C 1.00379 0.2049 0.23675 0.0
C3027 C 0.98563 0.18762 0.2518 0.0
C3028 C 1.00185 0.20891 0.26643 0.0
C3029 C 0.03556 0.24661 0.26582 0.0
C3030 C 0.98704 0.18429 0.22077 0.0
C3031 C 0.98414 0.19148 0.28276 0.0
H3032 H 0.85019 0.1073 0.24643 0.0
H3033 H 0.9191 0.05067 0.24623 0.0
H3034 H 0.92357 0.20006 0.26174 0.0
H3035 H 0.92152 0.19924 0.23998 0.0
H3036 H 0.87682 0.17424 0.2516 0.0
H3037 H 0.9857 0.0845 0.25475 0.0
H3038 H 1.00739 0.12699 0.24174 0.0
H3039 H 1.00648 0.13309 0.26332 0.0
H3040 H 0.05187 0.2546 0.22499 0.0
H3041 H 0.04808 0.26262 0.27702 0.0
H3042 H 0.95619 0.17737 0.21956 0.0
H3043 H 0.98701 0.15614 0.22044 0.0
H3044 H 1.00386 0.20217 0.2101 0.0
H3045 H 0.95296 0.18371 0.28314 0.0
H3046 H 0.99987 0.2118 0.29299 0.0
H3047 H 0.98494 0.164 0.28463 0.0
C3048 C 0.80464 0.80881 0.74835 0.0
C3049 C 0.82395 0.79741 0.75959 0.0
C3050 C 0.81228 0.84795 0.74774 0.0
C3051 C 0.84041 0.87665 0.75841 0.0
C3052 C 0.85983 0.86513 0.76974 0.0
C3053 C 0.85133 0.82601 0.77022 0.0
C3054 C 0.7906 0.85865 0.73553 0.0
C3055 C 0.89029 0.89438 0.78128 0.0
C3056 C 0.89815 0.98613 0.74895 0.0
C3057 C 0.88208 1.00173 0.75993 0.0
C3058 C 0.88337 0.94547 0.74763 0.0
C3059 C 0.85139 0.91916 0.75747 0.0
C3060 C 0.83347 0.93448 0.76787 0.0
C3061 C 0.84896 0.97544 0.76898 0.0
C3062 C 0.9035 0.93084 0.73631 0.0
C3063 C 0.79918 0.90771 0.77851 0.0
H3064 H 0.78365 0.78727 0.74001 0.0
H3065 H 0.86683 0.81801 0.77891 0.0
H3066 H 0.77754 0.87457 0.74164 0.0
H3067 H 0.81139 0.8786 0.72621 0.0
H3068 H 0.76696 0.83248 0.72928 0.0
H3069 H 0.9022 0.88064 0.7896 0.0
H3070 H 0.91493 0.91774 0.77424 0.0
H3071 H 0.87746 0.90863 0.78875 0.0
H3072 H 0.92314 1.00591 0.74158 0.0
H3073 H 0.83622 0.9869 0.77753 0.0
H3074 H 0.88169 0.90676 0.72856 0.0
H3075 H 0.91882 0.91883 0.74359 0.0
H3076 H 0.92531 0.9544 0.72831 0.0
H3077 H 0.77686 0.88261 0.77132 0.0
H3078 H 0.78518 0.92324 0.7842 0.0
H3079 H 0.80932 0.89559 0.78835 0.0
C3080 C 0.25534 0.02571 0.74709 0.0
C3081 C 0.27322 0.04416 0.76179 0.0
C3082 C 0.21778 0.99168 0.74698 0.0
C3083 C 0.19805 0.97533 0.76193 0.0
C3084 C 0.21708 0.99301 0.77676 0.0
C3085 C 0.25401 0.02719 0.77649 0.0
C3086 C 0.1986 0.97419 0.73088 0.0
C3087 C 0.19809 0.97627 0.79303 0.0
C3088 C 0.08732 0.9109 0.76793 0.0
C3089 C 0.08344 0.87385 0.77031 0.0
C3090 C 0.12395 0.94379 0.76394 0.0
C3091 C 0.15768 0.93975 0.7624 0.0
C3092 C 0.15322 0.9019 0.7636 0.0
C3093 C 0.11631 0.86957 0.76737 0.0
C3094 C 0.12702 0.98337 0.76242 0.0
C3095 C 0.18804 0.89586 0.76214 0.0
H3096 H 0.26984 0.03889 0.73568 0.0
H3097 H 0.26779 0.04111 0.78791 0.0
H3098 H 0.1879 0.94228 0.73068 0.0
H3099 H 0.17273 0.97796 0.72921 0.0
H3100 H 0.21886 0.98816 0.72044 0.0
H3101 H 0.21747 0.99242 0.80344 0.0
H3102 H 0.17061 0.97737 0.79419 0.0
H3103 H 0.19019 0.94507 0.79388 0.0
H3104 H 0.06233 0.91472 0.77014 0.0
H3105 H 0.1136 0.84097 0.76881 0.0
H3106 H 0.14467 0.99914 0.75156 0.0
H3107 H 0.14219 1.00134 0.77329 0.0
H3108 H 0.09778 0.98098 0.76147 0.0
H3109 H 0.20582 0.91118 0.75126 0.0
H3110 H 0.17913 0.86435 0.76133 0.0
H3111 H 0.20713 0.90855 0.77298 0.0
C3112 C 0.18798 0.26857 0.77252 0.0
C3113 C 0.18605 0.23197 0.7735 0.0
C3114 C 0.15519 0.27178 0.7681 0.0
C3115 C 0.11952 0.23771 0.76402 0.0
C3116 C 0.11835 0.20111 0.76355 0.0
C3117 C 0.15139 0.19861 0.76844 0.0
C3118 C 0.15803 0.31141 0.76894 0.0
C3119 C 0.0815 0.16386 0.75903 0.0
C3120 C 0.02501 0.23691 0.77489 0.0
C3121 C 1.0137 0.24568 0.75997 0.0
C3122 C 0.05909 0.23416 0.77627 0.0
C3123 C 0.08269 0.23993 0.76235 0.0
C3124 C 0.07149 0.24883 0.74721 0.0
C3125 C 0.03734 0.25192 0.74623 0.0
C3126 C 0.06988 0.22513 0.79271 0.0
C3127 C 0.09512 0.25421 0.73199 0.0
H3128 H 0.21486 0.29483 0.77588 0.0
H3129 H 0.1492 0.17013 0.76911 0.0
H3130 H 0.14655 0.31736 0.75762 0.0
H3131 H 0.13974 0.31169 0.77918 0.0
H3132 H 0.18859 0.33551 0.77084 0.0
H3133 H 0.08848 0.1423 0.75354 0.0
H3134 H 0.06421 0.15052 0.77026 0.0
H3135 H 0.06311 0.16926 0.75037 0.0
H3136 H 1.00718 0.23231 0.78563 0.0
H3137 H 0.02869 0.25837 0.73462 0.0
H3138 H 0.09986 0.24833 0.79614 0.0
H3139 H 0.06998 0.19706 0.79211 0.0
H3140 H 0.04924 0.22281 0.80245 0.0
H3141 H 0.12581 0.27796 0.73376 0.0
H3142 H 0.08285 0.2614 0.7212 0.0
H3143 H 0.09589 0.22694 0.72944 0.0
C3144 C 0.47039 0.12279 0.57545 0.0
C3145 C 0.46531 0.14524 0.58743 0.0
C3146 C 0.50701 0.1252 0.57307 0.0
C3147 C 0.53916 0.14964 0.58329 0.0
C3148 C 0.53361 0.17116 0.59583 0.0
C3149 C 0.49709 0.16923 0.59756 0.0
C3150 C 0.51159 0.10253 0.55926 0.0
C3151 C 0.56652 0.19684 0.60728 0.0
C3152 C 0.62508 0.12996 0.58383 0.0
C3153 C 0.65232 0.15943 0.57348 0.0
C3154 C 0.58881 0.12718 0.58757 0.0
C3155 C 0.57889 0.15385 0.58046 0.0
C3156 C 0.60673 0.18411 0.57027 0.0
C3157 C 0.64315 0.18677 0.56703 0.0
C3158 C 0.56066 0.09501 0.59877 0.0
C3159 C 0.59725 0.21254 0.56209 0.0
H3160 H 0.44609 0.10442 0.5675 0.0
H3161 H 0.49333 0.18647 0.60694 0.0
H3162 H 0.5342 0.12313 0.55062 0.0
H3163 H 0.52179 0.08281 0.56399 0.0
H3164 H 0.4838 0.08468 0.55247 0.0
H3165 H 0.55659 0.2088 0.61729 0.0
H3166 H 0.57939 0.18 0.61268 0.0
H3167 H 0.59012 0.2217 0.60042 0.0
H3168 H 0.63181 0.10842 0.58867 0.0
H3169 H 0.66361 0.20898 0.55872 0.0
H3170 H 0.53411 0.07413 0.5919 0.0
H3171 H 0.55103 0.10747 0.60868 0.0
H3172 H 0.57384 0.07854 0.6043 0.0
H3173 H 0.57563 0.19727 0.55223 0.0
H3174 H 0.62364 0.23789 0.55674 0.0
H3175 H 0.58365 0.22338 0.57094 0.0
C3176 C 0.93309 0.36968 0.59234 0.0
C3177 C 0.91451 0.34002 0.5806 0.0
C3178 C 0.92618 0.40163 0.59308 0.0
C3179 C 0.89965 0.40382 0.58198 0.0
C3180 C 0.88144 0.37428 0.56998 0.0
C3181 C 0.88911 0.34311 0.56942 0.0
C3182 C 0.94656 0.43251 0.606 0.0
C3183 C 0.85283 0.37493 0.5579 0.0
C3184 C 0.84011 0.45375 0.59099 0.0
C3185 C 0.85736 0.48651 0.5806 0.0
C3186 C 0.85521 0.42817 0.5924 0.0
C3187 C 0.8886 0.43522 0.58323 0.0
C3188 C 0.90773 0.46965 0.57356 0.0
C3189 C 0.89195 0.49486 0.57237 0.0
C3190 C 0.83385 0.39218 0.60297 0.0
C3191 C 0.94354 0.47866 0.56367 0.0
H3192 H 0.95259 0.36772 0.60109 0.0
H3193 H 0.87435 0.3206 0.56027 0.0
H3194 H 0.95943 0.46223 0.60061 0.0
H3195 H 0.92493 0.42983 0.6153 0.0
H3196 H 0.97012 0.42969 0.61217 0.0
H3197 H 0.84221 0.35059 0.54895 0.0
H3198 H 0.82715 0.37264 0.56447 0.0
H3199 H 0.86676 0.40307 0.55115 0.0
H3200 H 0.81386 0.44737 0.59768 0.0
H3201 H 0.90558 0.51997 0.5643 0.0
H3202 H 0.85476 0.38903 0.61099 0.0
H3203 H 0.81942 0.36572 0.59514 0.0
H3204 H 0.81112 0.39304 0.61069 0.0
H3205 H 0.96476 0.47473 0.57116 0.0
H3206 H 0.95835 0.50898 0.55876 0.0
H3207 H 0.93488 0.45794 0.55328 0.0
C3208 C 0.57528 0.41651 0.5751 0.0
C3209 C 0.58964 0.3926 0.58099 0.0
C3210 C 0.59676 0.45758 0.57712 0.0
C3211 C 0.63395 0.47535 0.58481 0.0
C3212 C 0.64721 0.45112 0.59176 0.0
C3213 C 0.62464 0.41025 0.59001 0.0
C3214 C 0.58029 0.48197 0.57039 0.0
C3215 C 0.68594 0.46819 0.60061 0.0
C3216 C 0.71552 0.57345 0.56948 0.0
C3217 C 0.72373 0.59766 0.58318 0.0
C3218 C 0.68556 0.53409 0.56968 0.0
C3219 C 0.66148 0.51869 0.58366 0.0
C3220 C 0.66718 0.544 0.59698 0.0
C3221 C 0.69863 0.58299 0.5967 0.0
C3222 C 0.68103 0.50863 0.55513 0.0
C3223 C 0.64117 0.52974 0.61182 0.0
H3224 H 0.54818 0.40345 0.56823 0.0
H3225 H 0.63531 0.39207 0.59522 0.0
H3226 H 0.5873 0.50721 0.57849 0.0
H3227 H 0.59346 0.49373 0.55829 0.0
H3228 H 0.548 0.46434 0.56884 0.0
H3229 H 0.69578 0.44643 0.60214 0.0
H3230 H 0.70921 0.49405 0.59412 0.0
H3231 H 0.68275 0.478 0.61289 0.0
H3232 H 0.73373 0.58478 0.5587 0.0
H3233 H 0.7042 0.60144 0.6073 0.0
H3234 H 0.65314 0.50043 0.5488 0.0
H3235 H 0.67987 0.48113 0.55905 0.0
H3236 H 0.70536 0.5237 0.54624 0.0
H3237 H 0.6106 0.50784 0.6085 0.0
H3238 H 0.64113 0.55439 0.61838 0.0
H3239 H 0.65226 0.51563 0.62031 0.0
loop_
_geom_bond_atom_site_label_1
_geom_bond_atom_site_label_2
_geom_bond_distance
_geom_bond_site_symmetry_2
_ccdc_geom_bond_type
Tb0 N29 2.617 . S
Tb0 N35 2.572 . S
Tb0 O44 2.465 . S
Tb0 O45 2.387 1_565 S
Tb0 O47 2.428 . S
Tb0 O48 2.308 . S
Tb0 O52 2.349 . S
Tb0 O55 2.393 . S
Tb0 C64 2.802 . S
C1 N2 1.379 . S
C1 C4 1.416 1_545 S
C1 C8 1.424 . S
N2 C1 1.379 . S
N2 C5 1.334 . S
N2 Tb11 2.617 . S
C3 C5 1.382 1_565 S
C3 C6 1.349 . S
C3 H23 0.928 . S
C4 C1 1.416 1_565 S
C4 C6 1.416 . S
C4 C10 1.448 . S
C5 N2 1.334 . S
C5 C3 1.382 1_545 S
C5 H16 0.930 . S
C6 C3 1.349 . S
C6 C4 1.416 . S
C6 H27 0.930 . S
C7 C8 1.413 1_565 S
C7 C9 1.427 . S
C7 C13 1.416 . S
C8 C1 1.424 . S
C8 C7 1.413 1_545 S
C8 N12 1.361 . S
C9 C7 1.427 . S
C9 C10 1.328 . S
C9 H24 0.929 . S
C10 C4 1.448 . S
C10 C9 1.328 . S
C10 H25 0.930 . S
Tb11 N2 2.617 . S
Tb11 N12 2.572 . S
Tb11 O46 2.349 . S
Tb11 O49 2.393 . S
Tb11 O50 2.465 . S
Tb11 O51 2.387 1_545 S
Tb11 O53 2.428 . S
Tb11 O54 2.308 . S
Tb11 C75 2.802 . S
N12 C8 1.361 . S
N12 Tb11 2.572 . S
N12 C14 1.340 . S
C13 C7 1.416 . S
C13 C15 1.332 1_565 S
C13 H21 0.931 . S
C14 N12 1.340 . S
C14 C15 1.407 . S
C14 H20 0.930 . S
C15 C13 1.332 1_545 S
C15 C14 1.407 . S
C15 H17 0.929 . S
H16 C5 0.930 . S
H17 C15 0.929 . S
H18 C33 0.930 . S
H19 C40 0.929 . S
H20 C14 0.930 . S
H21 C13 0.931 . S
H22 C36 0.930 . S
H23 C3 0.928 . S
H24 C9 0.929 . S
H25 C10 0.930 . S
H26 C31 0.930 . S
H27 C6 0.930 . S
H28 C39 0.931 . S
N29 Tb0 2.617 . S
N29 C30 1.379 1_565 S
N29 C33 1.334 . S
C30 N29 1.379 1_545 S
C30 C32 1.416 . S
C30 C38 1.424 . S
C31 H26 0.930 . S
C31 C33 1.390 1_545 S
C31 C34 1.339 . S
C32 C30 1.416 . S
C32 C34 1.416 . S
C32 C65 1.448 . S
C33 H18 0.930 . S
C33 N29 1.334 . S
C33 C31 1.390 1_565 S
C34 C31 1.339 . S
C34 C32 1.416 . S
C34 H41 0.930 . S
N35 Tb0 2.572 . S
N35 C36 1.340 . S
N35 C38 1.361 1_565 S
C36 H22 0.930 . S
C36 N35 1.340 . S
C36 C40 1.407 1_565 S
C37 C38 1.413 . S
C37 C39 1.416 . S
C37 C66 1.427 . S
C38 C30 1.424 . S
C38 N35 1.361 1_545 S
C38 C37 1.413 . S
C39 H28 0.931 . S
C39 C37 1.416 . S
C39 C40 1.332 . S
C40 H19 0.929 . S
C40 C36 1.407 1_545 S
C40 C39 1.332 . S
H41 C34 0.930 . S
H42 C65 0.930 . S
H43 C66 0.929 . S
O44 Tb0 2.465 . S
O44 C64 1.264 . S
O45 Tb0 2.387 1_545 S
O45 C56 1.264 . S
O46 Tb11 2.349 . S
O46 C56 1.243 . S
O47 Tb0 2.428 . S
O47 C64 1.256 . S
O48 Tb0 2.308 . S
O48 C63 1.266 . S
O49 Tb11 2.393 . S
O49 C63 1.248 1_545 S
O50 Tb11 2.465 . S
O50 C75 1.264 . S
O51 Tb11 2.387 1_565 S
O51 C67 1.264 . S
O52 Tb0 2.349 . S
O52 C67 1.243 . S
O53 Tb11 2.428 . S
O53 C75 1.256 . S
O54 Tb11 2.308 . S
O54 C74 1.266 . S
O55 Tb0 2.393 . S
O55 C74 1.248 1_565 S
C56 O45 1.264 . S
C56 O46 1.243 . S
C57 C60 1.399 . S
C57 C62 1.383 . S
C57 C64 1.496 . S
C58 C59 1.399 . S
C58 C62 1.389 . S
C59 C58 1.399 . S
C59 C61 1.380 . S
C59 H76 0.929 . S
C60 C57 1.399 . S
C60 C61 1.392 . S
C60 H77 0.929 . S
C61 C59 1.380 . S
C61 C60 1.392 . S
C61 H78 0.929 . S
C62 C57 1.383 . S
C62 C58 1.389 . S
C62 H79 0.931 . S
C63 O48 1.266 . S
C63 O49 1.248 1_565 S
C64 Tb0 2.802 . S
C64 O44 1.264 . S
C64 O47 1.256 . S
C64 C57 1.496 . S
C65 C32 1.448 . S
C65 H42 0.930 . S
C65 C66 1.328 . S
C66 C37 1.427 . S
C66 H43 0.929 . S
C66 C65 1.328 . S
C67 O51 1.264 . S
C67 O52 1.243 . S
C68 C71 1.399 . S
C68 C72 1.383 . S
C68 C75 1.496 . S
C69 C70 1.399 . S
C69 C72 1.389 . S
C70 C69 1.399 . S
C70 C73 1.380 . S
C70 H80 0.929 . S
C71 C68 1.399 . S
C71 C73 1.392 . S
C71 H81 0.929 . S
C72 C68 1.383 . S
C72 C69 1.389 . S
C72 H82 0.931 . S
C73 C70 1.380 . S
C73 C71 1.392 . S
C73 H83 0.929 . S
C74 O54 1.266 . S
C74 O55 1.248 1_545 S
C75 Tb11 2.802 . S
C75 O50 1.264 . S
C75 O53 1.256 . S
C75 C68 1.496 . S
H76 C59 0.929 . S
H77 C60 0.929 . S
H78 C61 0.929 . S
H79 C62 0.931 . S
H80 C70 0.929 . S
H81 C71 0.929 . S
H82 C72 0.931 . S
H83 C73 0.929 . S
Tb84 N113 2.617 . S
Tb84 N119 2.572 . S
Tb84 O128 2.465 . S
Tb84 O129 2.387 1_455 S
Tb84 O131 2.428 . S
Tb84 O132 2.308 . S
Tb84 O136 2.349 . S
Tb84 O139 2.393 . S
Tb84 C148 2.802 . S
C85 N86 1.379 . S
C85 C88 1.416 . S
C85 C92 1.424 . S
N86 C85 1.379 . S
N86 C89 1.334 . S
N86 Tb95 2.617 . S
C87 C89 1.390 . S
C87 C90 1.339 . S
C87 H107 0.930 . S
C88 C85 1.416 . S
C88 C90 1.416 . S
C88 C94 1.448 . S
C89 N86 1.334 . S
C89 C87 1.390 . S
C89 H100 0.930 . S
C90 C87 1.339 . S
C90 C88 1.416 . S
C90 H111 0.930 . S
C91 C92 1.413 . S
C91 C93 1.427 . S
C91 C97 1.416 . S
C92 C85 1.424 . S
C92 C91 1.413 . S
C92 N96 1.361 . S
C93 C91 1.427 . S
C93 C94 1.328 . S
C93 H108 0.929 . S
C94 C88 1.448 . S
C94 C93 1.328 . S
C94 H109 0.930 . S
Tb95 N86 2.617 . S
Tb95 N96 2.572 . S
Tb95 O130 2.349 1_455 S
Tb95 O133 2.393 . S
Tb95 O134 2.465 1_455 S
Tb95 O135 2.387 . S
Tb95 O137 2.428 1_455 S
Tb95 O138 2.308 . S
Tb95 C159 2.802 1_455 S
N96 C92 1.361 . S
N96 Tb95 2.572 . S
N96 C98 1.340 . S
C97 C91 1.416 . S
C97 C99 1.332 . S
C97 H105 0.931 . S
C98 N96 1.340 . S
C98 C99 1.407 . S
C98 H104 0.930 . S
C99 C97 1.332 . S
C99 C98 1.407 . S
C99 H101 0.929 . S
H100 C89 0.930 . S
H101 C99 0.929 . S
H102 C117 0.930 . S
H103 C124 0.929 . S
H104 C98 0.930 . S
H105 C97 0.931 . S
H106 C120 0.930 . S
H107 C87 0.930 . S
H108 C93 0.929 . S
H109 C94 0.930 . S
H110 C115 0.930 . S
H111 C90 0.930 . S
H112 C123 0.931 . S
N113 Tb84 2.617 . S
N113 C114 1.379 . S
N113 C117 1.334 . S
C114 N113 1.379 . S
C114 C116 1.416 . S
C114 C122 1.424 . S
C115 H110 0.930 . S
C115 C117 1.390 . S
C115 C118 1.339 . S
C116 C114 1.416 . S
C116 C118 1.416 . S
C116 C149 1.448 1_455 S
C117 H102 0.930 . S
C117 N113 1.334 . S
C117 C115 1.390 . S
C118 C115 1.339 . S
C118 C116 1.416 . S
C118 H125 0.930 1_455 S
N119 Tb84 2.572 . S
N119 C120 1.340 . S
N119 C122 1.361 . S
C120 H106 0.930 . S
C120 N119 1.340 . S
C120 C124 1.407 . S
C121 C122 1.413 . S
C121 C123 1.416 . S
C121 C150 1.427 1_455 S
C122 C114 1.424 . S
C122 N119 1.361 . S
C122 C121 1.413 . S
C123 H112 0.931 . S
C123 C121 1.416 . S
C123 C124 1.332 . S
C124 H103 0.929 . S
C124 C120 1.407 . S
C124 C123 1.332 . S
H125 C118 0.930 1_655 S
H126 C149 0.930 . S
H127 C150 0.929 . S
O128 Tb84 2.465 . S
O128 C148 1.264 . S
O129 Tb84 2.387 1_655 S
O129 C140 1.264 . S
O130 Tb95 2.349 1_655 S
O130 C140 1.243 . S
O131 Tb84 2.428 . S
O131 C148 1.256 . S
O132 Tb84 2.308 . S
O132 C147 1.266 . S
O133 Tb95 2.393 . S
O133 C147 1.248 . S
O134 Tb95 2.465 1_655 S
O134 C159 1.264 . S
O135 Tb95 2.387 . S
O135 C151 1.264 . S
O136 Tb84 2.349 . S
O136 C151 1.243 . S
O137 Tb95 2.428 1_655 S
O137 C159 1.256 . S
O138 Tb95 2.308 . S
O138 C158 1.266 . S
O139 Tb84 2.393 . S
O139 C158 1.248 . S
C140 O129 1.264 . S
C140 O130 1.243 . S
C141 C144 1.399 . S
C141 C146 1.383 . S
C141 C148 1.496 . S
C142 C143 1.399 . S
C142 C146 1.389 . S
C143 C142 1.399 . S
C143 C145 1.380 . S
C143 H160 0.929 . S
C144 C141 1.399 . S
C144 C145 1.392 . S
C144 H161 0.929 . S
C145 C143 1.380 . S
C145 C144 1.392 . S
C145 H162 0.929 . S
C146 C141 1.383 . S
C146 C142 1.389 . S
C146 H163 0.931 . S
C147 O132 1.266 . S
C147 O133 1.248 . S
C148 Tb84 2.802 . S
C148 O128 1.264 . S
C148 O131 1.256 . S
C148 C141 1.496 . S
C149 C116 1.448 1_655 S
C149 H126 0.930 . S
C149 C150 1.328 . S
C150 C121 1.427 1_655 S
C150 H127 0.929 . S
C150 C149 1.328 . S
C151 O135 1.264 . S
C151 O136 1.243 . S
C152 C155 1.399 . S
C152 C156 1.383 . S
C152 C159 1.496 . S
C153 C154 1.399 . S
C153 C156 1.389 . S
C154 C153 1.399 . S
C154 C157 1.380 . S
C154 H164 0.929 . S
C155 C152 1.399 . S
C155 C157 1.392 . S
C155 H165 0.929 . S
C156 C152 1.383 . S
C156 C153 1.389 . S
C156 H166 0.931 . S
C157 C154 1.380 . S
C157 C155 1.392 . S
C157 H167 0.929 . S
C158 O138 1.266 . S
C158 O139 1.248 . S
C159 Tb95 2.802 1_655 S
C159 O134 1.264 . S
C159 O137 1.256 . S
C159 C152 1.496 . S
H160 C143 0.929 . S
H161 C144 0.929 . S
H162 C145 0.929 . S
H163 C146 0.931 . S
H164 C154 0.929 . S
H165 C155 0.929 . S
H166 C156 0.931 . S
H167 C157 0.929 . S
Tb168 N197 2.617 . S
Tb168 N203 2.572 . S
Tb168 O212 2.465 . S
Tb168 O213 2.387 . S
Tb168 O215 2.428 . S
Tb168 O216 2.308 . S
Tb168 O220 2.349 . S
Tb168 O223 2.393 . S
Tb168 C232 2.802 . S
C169 N170 1.379 . S
C169 C172 1.416 . S
C169 C176 1.424 . S
N170 C169 1.379 . S
N170 C173 1.334 . S
N170 Tb179 2.617 . S
C171 C173 1.390 . S
C171 C174 1.339 . S
C171 H191 0.930 . S
C172 C169 1.416 . S
C172 C174 1.416 . S
C172 C178 1.448 . S
C173 N170 1.334 . S
C173 C171 1.390 . S
C173 H184 0.930 . S
C174 C171 1.339 . S
C174 C172 1.416 . S
C174 H195 0.930 . S
C175 C176 1.413 . S
C175 C177 1.427 . S
C175 C181 1.416 . S
C176 C169 1.424 . S
C176 C175 1.413 . S
C176 N180 1.361 . S
C177 C175 1.427 . S
C177 C178 1.328 . S
C177 H192 0.929 . S
C178 C172 1.448 . S
C178 C177 1.328 . S
C178 H193 0.930 . S
Tb179 N170 2.617 . S
Tb179 N180 2.572 . S
Tb179 O214 2.349 . S
Tb179 O217 2.393 . S
Tb179 O218 2.465 . S
Tb179 O219 2.387 . S
Tb179 O221 2.428 . S
Tb179 O222 2.308 . S
Tb179 C243 2.802 . S
N180 C176 1.361 . S
N180 Tb179 2.572 . S
N180 C182 1.340 . S
C181 C175 1.416 . S
C181 C183 1.332 . S
C181 H189 0.931 . S
C182 N180 1.340 . S
C182 C183 1.407 . S
C182 H188 0.930 . S
C183 C181 1.332 . S
C183 C182 1.407 . S
C183 H185 0.929 . S
H184 C173 0.930 . S
H185 C183 0.929 . S
H186 C201 0.930 . S
H187 C208 0.929 . S
H188 C182 0.930 . S
H189 C181 0.931 . S
H190 C204 0.930 . S
H191 C171 0.930 . S
H192 C177 0.929 . S
H193 C178 0.930 . S
H194 C199 0.930 . S
H195 C174 0.930 . S
H196 C207 0.931 . S
N197 Tb168 2.617 . S
N197 C198 1.379 . S
N197 C201 1.334 . S
C198 N197 1.379 . S
C198 C200 1.416 . S
C198 C206 1.424 . S
C199 H194 0.930 . S
C199 C201 1.390 . S
C199 C202 1.339 . S
C200 C198 1.416 . S
C200 C202 1.416 . S
C200 C233 1.448 . S
C201 H186 0.930 . S
C201 N197 1.334 . S
C201 C199 1.390 . S
C202 C199 1.339 . S
C202 C200 1.416 . S
C202 H209 0.930 . S
N203 Tb168 2.572 . S
N203 C204 1.340 . S
N203 C206 1.361 . S
C204 H190 0.930 . S
C204 N203 1.340 . S
C204 C208 1.407 . S
C205 C206 1.413 . S
C205 C207 1.416 . S
C205 C234 1.427 . S
C206 C198 1.424 . S
C206 N203 1.361 . S
C206 C205 1.413 . S
C207 H196 0.931 . S
C207 C205 1.416 . S
C207 C208 1.332 . S
C208 H187 0.929 . S
C208 C204 1.407 . S
C208 C207 1.332 . S
H209 C202 0.930 . S
H210 C233 0.930 . S
H211 C234 0.929 . S
O212 Tb168 2.465 . S
O212 C232 1.264 . S
O213 Tb168 2.387 . S
O213 C224 1.264 . S
O214 Tb179 2.349 . S
O214 C224 1.243 . S
O215 Tb168 2.428 . S
O215 C232 1.256 . S
O216 Tb168 2.308 . S
O216 C231 1.266 . S
O217 Tb179 2.393 . S
O217 C231 1.248 . S
O218 Tb179 2.465 . S
O218 C243 1.264 . S
O219 Tb179 2.387 . S
O219 C235 1.264 . S
O220 Tb168 2.349 . S
O220 C235 1.243 . S
O221 Tb179 2.428 . S
O221 C243 1.256 . S
O222 Tb179 2.308 . S
O222 C242 1.266 . S
O223 Tb168 2.393 . S
O223 C242 1.248 . S
C224 O213 1.264 . S
C224 O214 1.243 . S
C225 C228 1.399 . S
C225 C230 1.383 . S
C225 C232 1.496 . S
C226 C227 1.399 . S
C226 C230 1.389 . S
C227 C226 1.399 . S
C227 C229 1.380 . S
C227 H244 0.929 . S
C228 C225 1.399 . S
C228 C229 1.392 . S
C228 H245 0.929 . S
C229 C227 1.380 . S
C229 C228 1.392 . S
C229 H246 0.929 . S
C230 C225 1.383 . S
C230 C226 1.389 . S
C230 H247 0.931 . S
C231 O216 1.266 . S
C231 O217 1.248 . S
C232 Tb168 2.802 . S
C232 O212 1.264 . S
C232 O215 1.256 . S
C232 C225 1.496 . S
C233 C200 1.448 . S
C233 H210 0.930 . S
C233 C234 1.328 . S
C234 C205 1.427 . S
C234 H211 0.929 . S
C234 C233 1.328 . S
C235 O219 1.264 . S
C235 O220 1.243 . S
C236 C239 1.399 . S
C236 C240 1.383 . S
C236 C243 1.496 . S
C237 C238 1.399 . S
C237 C240 1.389 . S
C238 C237 1.399 . S
C238 C241 1.380 . S
C238 H248 0.929 . S
C239 C236 1.399 . S
C239 C241 1.392 . S
C239 H249 0.929 . S
C240 C236 1.383 . S
C240 C237 1.389 . S
C240 H250 0.931 . S
C241 C238 1.380 . S
C241 C239 1.392 . S
C241 H251 0.929 . S
C242 O222 1.266 . S
C242 O223 1.248 . S
C243 Tb179 2.802 . S
C243 O218 1.264 . S
C243 O221 1.256 . S
C243 C236 1.496 . S
H244 C227 0.929 . S
H245 C228 0.929 . S
H246 C229 0.929 . S
H247 C230 0.931 . S
H248 C238 0.929 . S
H249 C239 0.929 . S
H250 C240 0.931 . S
H251 C241 0.929 . S
Tb252 N281 2.617 . S
Tb252 N287 2.572 . S
Tb252 O296 2.465 . S
Tb252 O297 2.387 1_655 S
Tb252 O299 2.428 . S
Tb252 O300 2.308 . S
Tb252 O304 2.349 . S
Tb252 O307 2.393 . S
Tb252 C316 2.802 . S
C253 N254 1.379 . S
C253 C256 1.416 1_455 S
C253 C260 1.424 . S
N254 C253 1.379 . S
N254 C257 1.334 . S
N254 Tb263 2.617 . S
C255 C257 1.382 1_655 S
C255 C258 1.349 . S
C255 H275 0.928 . S
C256 C253 1.416 1_655 S
C256 C258 1.416 . S
C256 C262 1.448 . S
C257 N254 1.334 . S
C257 C255 1.382 1_455 S
C257 H268 0.930 . S
C258 C255 1.349 . S
C258 C256 1.416 . S
C258 H279 0.930 . S
C259 C260 1.413 1_655 S
C259 C261 1.427 . S
C259 C265 1.416 . S
C260 C253 1.424 . S
C260 C259 1.413 1_455 S
C260 N264 1.361 . S
C261 C259 1.427 . S
C261 C262 1.328 . S
C261 H276 0.929 . S
C262 C256 1.448 . S
C262 C261 1.328 . S
C262 H277 0.930 . S
Tb263 N254 2.617 . S
Tb263 N264 2.572 . S
Tb263 O298 2.349 . S
Tb263 O301 2.393 . S
Tb263 O302 2.465 . S
Tb263 O303 2.387 1_455 S
Tb263 O305 2.428 . S
Tb263 O306 2.308 . S
Tb263 C327 2.802 . S
N264 C260 1.361 . S
N264 Tb263 2.572 . S
N264 C266 1.340 . S
C265 C259 1.416 . S
C265 C267 1.332 1_655 S
C265 H273 0.931 . S
C266 N264 1.340 . S
C266 C267 1.407 . S
C266 H272 0.930 . S
C267 C265 1.332 1_455 S
C267 C266 1.407 . S
C267 H269 0.929 . S
H268 C257 0.930 . S
H269 C267 0.929 . S
H270 C285 0.930 . S
H271 C292 0.929 . S
H272 C266 0.930 . S
H273 C265 0.931 . S
H274 C288 0.930 . S
H275 C255 0.928 . S
H276 C261 0.929 . S
H277 C262 0.930 . S
H278 C283 0.930 . S
H279 C258 0.930 . S
H280 C291 0.931 . S
N281 Tb252 2.617 . S
N281 C282 1.379 1_655 S
N281 C285 1.334 . S
C282 N281 1.379 1_455 S
C282 C284 1.416 . S
C282 C290 1.424 . S
C283 H278 0.930 . S
C283 C285 1.390 1_455 S
C283 C286 1.339 . S
C284 C282 1.416 . S
C284 C286 1.416 . S
C284 C317 1.448 . S
C285 H270 0.930 . S
C285 N281 1.334 . S
C285 C283 1.390 1_655 S
C286 C283 1.339 . S
C286 C284 1.416 . S
C286 H293 0.930 . S
N287 Tb252 2.572 . S
N287 C288 1.340 . S
N287 C290 1.361 1_655 S
C288 H274 0.930 . S
C288 N287 1.340 . S
C288 C292 1.407 1_655 S
C289 C290 1.413 . S
C289 C291 1.416 . S
C289 C318 1.427 . S
C290 C282 1.424 . S
C290 N287 1.361 1_455 S
C290 C289 1.413 . S
C291 H280 0.931 . S
C291 C289 1.416 . S
C291 C292 1.332 . S
C292 H271 0.929 . S
C292 C288 1.407 1_455 S
C292 C291 1.332 . S
H293 C286 0.930 . S
H294 C317 0.930 . S
H295 C318 0.929 . S
O296 Tb252 2.465 . S
O296 C316 1.264 . S
O297 Tb252 2.387 1_455 S
O297 C308 1.264 . S
O298 Tb263 2.349 . S
O298 C308 1.243 . S
O299 Tb252 2.428 . S
O299 C316 1.256 . S
O300 Tb252 2.308 . S
O300 C315 1.266 . S
O301 Tb263 2.393 . S
O301 C315 1.248 1_455 S
O302 Tb263 2.465 . S
O302 C327 1.264 . S
O303 Tb263 2.387 1_655 S
O303 C319 1.264 . S
O304 Tb252 2.349 . S
O304 C319 1.243 . S
O305 Tb263 2.428 . S
O305 C327 1.256 . S
O306 Tb263 2.308 . S
O306 C326 1.266 . S
O307 Tb252 2.393 . S
O307 C326 1.248 1_655 S
C308 O297 1.264 . S
C308 O298 1.243 . S
C309 C312 1.399 . S
C309 C314 1.383 . S
C309 C316 1.496 . S
C310 C311 1.399 . S
C310 C314 1.389 . S
C311 C310 1.399 . S
C311 C313 1.380 . S
C311 H328 0.929 . S
C312 C309 1.399 . S
C312 C313 1.392 . S
C312 H329 0.929 . S
C313 C311 1.380 . S
C313 C312 1.392 . S
C313 H330 0.929 . S
C314 C309 1.383 . S
C314 C310 1.389 . S
C314 H331 0.931 . S
C315 O300 1.266 . S
C315 O301 1.248 1_655 S
C316 Tb252 2.802 . S
C316 O296 1.264 . S
C316 O299 1.256 . S
C316 C309 1.496 . S
C317 C284 1.448 . S
C317 H294 0.930 . S
C317 C318 1.328 . S
C318 C289 1.427 . S
C318 H295 0.929 . S
C318 C317 1.328 . S
C319 O303 1.264 . S
C319 O304 1.243 . S
C320 C323 1.399 . S
C320 C324 1.383 . S
C320 C327 1.496 . S
C321 C322 1.399 . S
C321 C324 1.389 . S
C322 C321 1.399 . S
C322 C325 1.380 . S
C322 H332 0.929 . S
C323 C320 1.399 . S
C323 C325 1.392 . S
C323 H333 0.929 . S
C324 C320 1.383 . S
C324 C321 1.389 . S
C324 H334 0.931 . S
C325 C322 1.380 . S
C325 C323 1.392 . S
C325 H335 0.929 . S
C326 O306 1.266 . S
C326 O307 1.248 1_455 S
C327 Tb263 2.802 . S
C327 O302 1.264 . S
C327 O305 1.256 . S
C327 C320 1.496 . S
H328 C311 0.929 . S
H329 C312 0.929 . S
H330 C313 0.929 . S
H331 C314 0.931 . S
H332 C322 0.929 . S
H333 C323 0.929 . S
H334 C324 0.931 . S
H335 C325 0.929 . S
Tb336 N365 2.617 . S
Tb336 N371 2.572 . S
Tb336 O380 2.465 . S
Tb336 O381 2.387 . S
Tb336 O383 2.428 . S
Tb336 O384 2.308 . S
Tb336 O388 2.349 . S
Tb336 O391 2.393 . S
Tb336 C400 2.802 . S
C337 N338 1.379 . S
C337 C340 1.416 . S
C337 C344 1.424 . S
N338 C337 1.379 . S
N338 C341 1.334 . S
N338 Tb347 2.617 . S
C339 C341 1.390 . S
C339 C342 1.339 . S
C339 H359 0.930 . S
C340 C337 1.416 . S
C340 C342 1.416 . S
C340 C346 1.448 . S
C341 N338 1.334 . S
C341 C339 1.390 . S
C341 H352 0.930 . S
C342 C339 1.339 . S
C342 C340 1.416 . S
C342 H363 0.930 . S
C343 C344 1.413 . S
C343 C345 1.427 . S
C343 C349 1.416 . S
C344 C337 1.424 . S
C344 C343 1.413 . S
C344 N348 1.361 . S
C345 C343 1.427 . S
C345 C346 1.328 . S
C345 H360 0.929 . S
C346 C340 1.448 . S
C346 C345 1.328 . S
C346 H361 0.930 . S
Tb347 N338 2.617 . S
Tb347 N348 2.572 . S
Tb347 O382 2.349 . S
Tb347 O385 2.393 . S
Tb347 O386 2.465 . S
Tb347 O387 2.387 . S
Tb347 O389 2.428 . S
Tb347 O390 2.308 . S
Tb347 C411 2.802 . S
N348 C344 1.361 . S
N348 Tb347 2.572 . S
N348 C350 1.340 . S
C349 C343 1.416 . S
C349 C351 1.332 . S
C349 H357 0.931 . S
C350 N348 1.340 . S
C350 C351 1.407 . S
C350 H356 0.930 . S
C351 C349 1.332 . S
C351 C350 1.407 . S
C351 H353 0.929 . S
H352 C341 0.930 . S
H353 C351 0.929 . S
H354 C369 0.930 . S
H355 C376 0.929 . S
H356 C350 0.930 . S
H357 C349 0.931 . S
H358 C372 0.930 . S
H359 C339 0.930 . S
H360 C345 0.929 . S
H361 C346 0.930 . S
H362 C367 0.930 . S
H363 C342 0.930 . S
H364 C375 0.931 . S
N365 Tb336 2.617 . S
N365 C366 1.379 . S
N365 C369 1.334 . S
C366 N365 1.379 . S
C366 C368 1.416 . S
C366 C374 1.424 . S
C367 H362 0.930 . S
C367 C369 1.390 . S
C367 C370 1.339 . S
C368 C366 1.416 . S
C368 C370 1.416 . S
C368 C401 1.448 . S
C369 H354 0.930 . S
C369 N365 1.334 . S
C369 C367 1.390 . S
C370 C367 1.339 . S
C370 C368 1.416 . S
C370 H377 0.930 . S
N371 Tb336 2.572 . S
N371 C372 1.340 . S
N371 C374 1.361 . S
C372 H358 0.930 . S
C372 N371 1.340 . S
C372 C376 1.407 . S
C373 C374 1.413 . S
C373 C375 1.416 . S
C373 C402 1.427 . S
C374 C366 1.424 . S
C374 N371 1.361 . S
C374 C373 1.413 . S
C375 H364 0.931 . S
C375 C373 1.416 . S
C375 C376 1.332 . S
C376 H355 0.929 . S
C376 C372 1.407 . S
C376 C375 1.332 . S
H377 C370 0.930 . S
H378 C401 0.930 . S
H379 C402 0.929 . S
O380 Tb336 2.465 . S
O380 C400 1.264 . S
O381 Tb336 2.387 . S
O381 C392 1.264 . S
O382 Tb347 2.349 . S
O382 C392 1.243 . S
O383 Tb336 2.428 . S
O383 C400 1.256 . S
O384 Tb336 2.308 . S
O384 C399 1.266 . S
O385 Tb347 2.393 . S
O385 C399 1.248 . S
O386 Tb347 2.465 . S
O386 C411 1.264 . S
O387 Tb347 2.387 . S
O387 C403 1.264 . S
O388 Tb336 2.349 . S
O388 C403 1.243 . S
O389 Tb347 2.428 . S
O389 C411 1.256 . S
O390 Tb347 2.308 . S
O390 C410 1.266 . S
O391 Tb336 2.393 . S
O391 C410 1.248 . S
C392 O381 1.264 . S
C392 O382 1.243 . S
C393 C396 1.399 . S
C393 C398 1.383 . S
C393 C400 1.496 . S
C394 C395 1.399 . S
C394 C398 1.389 . S
C395 C394 1.399 . S
C395 C397 1.380 . S
C395 H412 0.929 . S
C396 C393 1.399 . S
C396 C397 1.392 . S
C396 H413 0.929 . S
C397 C395 1.380 . S
C397 C396 1.392 . S
C397 H414 0.929 . S
C398 C393 1.383 . S
C398 C394 1.389 . S
C398 H415 0.931 . S
C399 O384 1.266 . S
C399 O385 1.248 . S
C400 Tb336 2.802 . S
C400 O380 1.264 . S
C400 O383 1.256 . S
C400 C393 1.496 . S
C401 C368 1.448 . S
C401 H378 0.930 . S
C401 C402 1.328 . S
C402 C373 1.427 . S
C402 H379 0.929 . S
C402 C401 1.328 . S
C403 O387 1.264 . S
C403 O388 1.243 . S
C404 C407 1.399 . S
C404 C408 1.383 . S
C404 C411 1.496 . S
C405 C406 1.399 . S
C405 C408 1.389 . S
C406 C405 1.399 . S
C406 C409 1.380 . S
C406 H416 0.929 . S
C407 C404 1.399 . S
C407 C409 1.392 . S
C407 H417 0.929 . S
C408 C404 1.383 . S
C408 C405 1.389 . S
C408 H418 0.931 . S
C409 C406 1.380 . S
C409 C407 1.392 . S
C409 H419 0.929 . S
C410 O390 1.266 . S
C410 O391 1.248 . S
C411 Tb347 2.802 . S
C411 O386 1.264 . S
C411 O389 1.256 . S
C411 C404 1.496 . S
H412 C395 0.929 . S
H413 C396 0.929 . S
H414 C397 0.929 . S
H415 C398 0.931 . S
H416 C406 0.929 . S
H417 C407 0.929 . S
H418 C408 0.931 . S
H419 C409 0.929 . S
Tb420 N449 2.617 . S
Tb420 N455 2.572 . S
Tb420 O464 2.465 . S
Tb420 O465 2.387 1_545 S
Tb420 O467 2.428 . S
Tb420 O468 2.308 . S
Tb420 O472 2.349 . S
Tb420 O475 2.393 . S
Tb420 C484 2.802 . S
C421 N422 1.379 . S
C421 C424 1.416 . S
C421 C428 1.424 . S
N422 C421 1.379 . S
N422 C425 1.334 . S
N422 Tb431 2.617 . S
C423 C425 1.390 . S
C423 C426 1.339 . S
C423 H443 0.930 . S
C424 C421 1.416 . S
C424 C426 1.416 . S
C424 C430 1.448 . S
C425 N422 1.334 . S
C425 C423 1.390 . S
C425 H436 0.930 . S
C426 C423 1.339 . S
C426 C424 1.416 . S
C426 H447 0.930 . S
C427 C428 1.413 . S
C427 C429 1.427 . S
C427 C433 1.416 . S
C428 C421 1.424 . S
C428 C427 1.413 . S
C428 N432 1.361 . S
C429 C427 1.427 . S
C429 C430 1.328 . S
C429 H444 0.929 . S
C430 C424 1.448 . S
C430 C429 1.328 . S
C430 H445 0.930 . S
Tb431 N422 2.617 . S
Tb431 N432 2.572 . S
Tb431 O466 2.349 1_545 S
Tb431 O469 2.393 . S
Tb431 O470 2.465 1_545 S
Tb431 O471 2.387 . S
Tb431 O473 2.428 1_545 S
Tb431 O474 2.308 . S
Tb431 C495 2.802 1_545 S
N432 C428 1.361 . S
N432 Tb431 2.572 . S
N432 C434 1.340 . S
C433 C427 1.416 . S
C433 C435 1.332 . S
C433 H441 0.931 . S
C434 N432 1.340 . S
C434 C435 1.407 . S
C434 H440 0.930 . S
C435 C433 1.332 . S
C435 C434 1.407 . S
C435 H437 0.929 . S
H436 C425 0.930 . S
H437 C435 0.929 . S
H438 C453 0.930 . S
H439 C460 0.929 . S
H440 C434 0.930 . S
H441 C433 0.931 . S
H442 C456 0.930 . S
H443 C423 0.930 . S
H444 C429 0.929 . S
H445 C430 0.930 . S
H446 C451 0.930 . S
H447 C426 0.930 . S
H448 C459 0.931 . S
N449 Tb420 2.617 . S
N449 C450 1.379 . S
N449 C453 1.334 . S
C450 N449 1.379 . S
C450 C452 1.416 . S
C450 C458 1.424 . S
C451 H446 0.930 . S
C451 C453 1.390 . S
C451 C454 1.339 . S
C452 C450 1.416 . S
C452 C454 1.416 . S
C452 C485 1.448 1_545 S
C453 H438 0.930 . S
C453 N449 1.334 . S
C453 C451 1.390 . S
C454 C451 1.339 . S
C454 C452 1.416 . S
C454 H461 0.930 1_545 S
N455 Tb420 2.572 . S
N455 C456 1.340 . S
N455 C458 1.361 . S
C456 H442 0.930 . S
C456 N455 1.340 . S
C456 C460 1.407 . S
C457 C458 1.413 . S
C457 C459 1.416 . S
C457 C486 1.427 1_545 S
C458 C450 1.424 . S
C458 N455 1.361 . S
C458 C457 1.413 . S
C459 H448 0.931 . S
C459 C457 1.416 . S
C459 C460 1.332 . S
C460 H439 0.929 . S
C460 C456 1.407 . S
C460 C459 1.332 . S
H461 C454 0.930 1_565 S
H462 C485 0.930 . S
H463 C486 0.929 . S
O464 Tb420 2.465 . S
O464 C484 1.264 . S
O465 Tb420 2.387 1_565 S
O465 C476 1.264 . S
O466 Tb431 2.349 1_565 S
O466 C476 1.243 . S
O467 Tb420 2.428 . S
O467 C484 1.256 . S
O468 Tb420 2.308 . S
O468 C483 1.266 . S
O469 Tb431 2.393 . S
O469 C483 1.248 . S
O470 Tb431 2.465 1_565 S
O470 C495 1.264 . S
O471 Tb431 2.387 . S
O471 C487 1.264 . S
O472 Tb420 2.349 . S
O472 C487 1.243 . S
O473 Tb431 2.428 1_565 S
O473 C495 1.256 . S
O474 Tb431 2.308 . S
O474 C494 1.266 . S
O475 Tb420 2.393 . S
O475 C494 1.248 . S
C476 O465 1.264 . S
C476 O466 1.243 . S
C477 C480 1.399 . S
C477 C482 1.383 . S
C477 C484 1.496 . S
C478 C479 1.399 . S
C478 C482 1.389 . S
C479 C478 1.399 . S
C479 C481 1.380 . S
C479 H496 0.929 . S
C480 C477 1.399 . S
C480 C481 1.392 . S
C480 H497 0.929 . S
C481 C479 1.380 . S
C481 C480 1.392 . S
C481 H498 0.929 . S
C482 C477 1.383 . S
C482 C478 1.389 . S
C482 H499 0.931 . S
C483 O468 1.266 . S
C483 O469 1.248 . S
C484 Tb420 2.802 . S
C484 O464 1.264 . S
C484 O467 1.256 . S
C484 C477 1.496 . S
C485 C452 1.448 1_565 S
C485 H462 0.930 . S
C485 C486 1.328 . S
C486 C457 1.427 1_565 S
C486 H463 0.929 . S
C486 C485 1.328 . S
C487 O471 1.264 . S
C487 O472 1.243 . S
C488 C491 1.399 . S
C488 C492 1.383 . S
C488 C495 1.496 . S
C489 C490 1.399 . S
C489 C492 1.389 . S
C490 C489 1.399 . S
C490 C493 1.380 . S
C490 H500 0.929 . S
C491 C488 1.399 . S
C491 C493 1.392 . S
C491 H501 0.929 . S
C492 C488 1.383 . S
C492 C489 1.389 . S
C492 H502 0.931 . S
C493 C490 1.380 . S
C493 C491 1.392 . S
C493 H503 0.929 . S
C494 O474 1.266 . S
C494 O475 1.248 . S
C495 Tb431 2.802 1_565 S
C495 O470 1.264 . S
C495 O473 1.256 . S
C495 C488 1.496 . S
H496 C479 0.929 . S
H497 C480 0.929 . S
H498 C481 0.929 . S
H499 C482 0.931 . S
H500 C490 0.929 . S
H501 C491 0.929 . S
H502 C492 0.931 . S
H503 C493 0.929 . S
Tb504 N533 2.617 . S
Tb504 N539 2.572 . S
Tb504 O548 2.465 . S
Tb504 O549 2.387 . S
Tb504 O551 2.428 . S
Tb504 O552 2.308 . S
Tb504 O556 2.349 . S
Tb504 O559 2.393 . S
Tb504 C568 2.802 . S
C505 N506 1.379 . S
C505 C508 1.416 . S
C505 C512 1.424 . S
N506 C505 1.379 . S
N506 C509 1.334 . S
N506 Tb515 2.617 . S
C507 C509 1.390 . S
C507 C510 1.339 . S
C507 H527 0.930 . S
C508 C505 1.416 . S
C508 C510 1.416 . S
C508 C514 1.448 . S
C509 N506 1.334 . S
C509 C507 1.390 . S
C509 H520 0.930 . S
C510 C507 1.339 . S
C510 C508 1.416 . S
C510 H531 0.930 . S
C511 C512 1.413 . S
C511 C513 1.427 . S
C511 C517 1.416 . S
C512 C505 1.424 . S
C512 C511 1.413 . S
C512 N516 1.361 . S
C513 C511 1.427 . S
C513 C514 1.328 . S
C513 H528 0.929 . S
C514 C508 1.448 . S
C514 C513 1.328 . S
C514 H529 0.930 . S
Tb515 N506 2.617 . S
Tb515 N516 2.572 . S
Tb515 O550 2.349 . S
Tb515 O553 2.393 . S
Tb515 O554 2.465 . S
Tb515 O555 2.387 . S
Tb515 O557 2.428 . S
Tb515 O558 2.308 . S
Tb515 C579 2.802 . S
N516 C512 1.361 . S
N516 Tb515 2.572 . S
N516 C518 1.340 . S
C517 C511 1.416 . S
C517 C519 1.332 . S
C517 H525 0.931 . S
C518 N516 1.340 . S
C518 C519 1.407 . S
C518 H524 0.930 . S
C519 C517 1.332 . S
C519 C518 1.407 . S
C519 H521 0.929 . S
H520 C509 0.930 . S
H521 C519 0.929 . S
H522 C537 0.930 . S
H523 C544 0.929 . S
H524 C518 0.930 . S
H525 C517 0.931 . S
H526 C540 0.930 . S
H527 C507 0.930 . S
H528 C513 0.929 . S
H529 C514 0.930 . S
H530 C535 0.930 . S
H531 C510 0.930 . S
H532 C543 0.931 1_655 S
N533 Tb504 2.617 . S
N533 C534 1.379 . S
N533 C537 1.334 . S
C534 N533 1.379 . S
C534 C536 1.416 . S
C534 C542 1.424 . S
C535 H530 0.930 . S
C535 C537 1.390 . S
C535 C538 1.339 . S
C536 C534 1.416 . S
C536 C538 1.416 . S
C536 C569 1.448 . S
C537 H522 0.930 . S
C537 N533 1.334 . S
C537 C535 1.390 . S
C538 C535 1.339 . S
C538 C536 1.416 . S
C538 H545 0.930 . S
N539 Tb504 2.572 . S
N539 C540 1.340 . S
N539 C542 1.361 . S
C540 H526 0.930 . S
C540 N539 1.340 . S
C540 C544 1.407 . S
C541 C542 1.413 . S
C541 C543 1.416 . S
C541 C570 1.427 . S
C542 C534 1.424 . S
C542 N539 1.361 . S
C542 C541 1.413 . S
C543 H532 0.931 1_455 S
C543 C541 1.416 . S
C543 C544 1.332 . S
C544 H523 0.929 . S
C544 C540 1.407 . S
C544 C543 1.332 . S
H545 C538 0.930 . S
H546 C569 0.930 . S
H547 C570 0.929 1_655 S
O548 Tb504 2.465 . S
O548 C568 1.264 . S
O549 Tb504 2.387 . S
O549 C560 1.264 . S
O550 Tb515 2.349 . S
O550 C560 1.243 . S
O551 Tb504 2.428 . S
O551 C568 1.256 . S
O552 Tb504 2.308 . S
O552 C567 1.266 . S
O553 Tb515 2.393 . S
O553 C567 1.248 . S
O554 Tb515 2.465 . S
O554 C579 1.264 . S
O555 Tb515 2.387 . S
O555 C571 1.264 . S
O556 Tb504 2.349 . S
O556 C571 1.243 . S
O557 Tb515 2.428 . S
O557 C579 1.256 . S
O558 Tb515 2.308 . S
O558 C578 1.266 . S
O559 Tb504 2.393 . S
O559 C578 1.248 . S
C560 O549 1.264 . S
C560 O550 1.243 . S
C561 C564 1.399 . S
C561 C566 1.383 1_455 S
C561 C568 1.496 . S
C562 C563 1.399 . S
C562 C566 1.389 . S
C563 C562 1.399 . S
C563 C565 1.380 . S
C563 H580 0.929 . S
C564 C561 1.399 . S
C564 C565 1.392 1_455 S
C564 H581 0.929 . S
C565 C563 1.380 . S
C565 C564 1.392 1_655 S
C565 H582 0.929 . S
C566 C561 1.383 1_655 S
C566 C562 1.389 . S
C566 H583 0.931 1_655 S
C567 O552 1.266 . S
C567 O553 1.248 . S
C568 Tb504 2.802 . S
C568 O548 1.264 . S
C568 O551 1.256 . S
C568 C561 1.496 . S
C569 C536 1.448 . S
C569 H546 0.930 . S
C569 C570 1.328 . S
C570 C541 1.427 . S
C570 H547 0.929 1_455 S
C570 C569 1.328 . S
C571 O555 1.264 . S
C571 O556 1.243 . S
C572 C575 1.399 . S
C572 C576 1.383 . S
C572 C579 1.496 . S
C573 C574 1.399 . S
C573 C576 1.389 . S
C574 C573 1.399 . S
C574 C577 1.380 . S
C574 H584 0.929 . S
C575 C572 1.399 . S
C575 C577 1.392 . S
C575 H585 0.929 . S
C576 C572 1.383 . S
C576 C573 1.389 . S
C576 H586 0.931 . S
C577 C574 1.380 . S
C577 C575 1.392 . S
C577 H587 0.929 . S
C578 O558 1.266 . S
C578 O559 1.248 . S
C579 Tb515 2.802 . S
C579 O554 1.264 . S
C579 O557 1.256 . S
C579 C572 1.496 . S
H580 C563 0.929 . S
H581 C564 0.929 . S
H582 C565 0.929 . S
H583 C566 0.931 1_455 S
H584 C574 0.929 . S
H585 C575 0.929 . S
H586 C576 0.931 . S
H587 C577 0.929 . S
Tb588 N617 2.617 . S
Tb588 N623 2.572 . S
Tb588 O632 2.465 . S
Tb588 O633 2.387 . S
Tb588 O635 2.428 . S
Tb588 O636 2.308 . S
Tb588 O640 2.349 . S
Tb588 O643 2.393 . S
Tb588 C652 2.802 . S
C589 N590 1.379 . S
C589 C592 1.416 . S
C589 C596 1.424 . S
N590 C589 1.379 . S
N590 C593 1.334 . S
N590 Tb599 2.617 . S
C591 C593 1.390 . S
C591 C594 1.339 . S
C591 H611 0.930 . S
C592 C589 1.416 . S
C592 C594 1.416 . S
C592 C598 1.448 1_565 S
C593 N590 1.334 . S
C593 C591 1.390 . S
C593 H604 0.930 . S
C594 C591 1.339 . S
C594 C592 1.416 . S
C594 H615 0.930 . S
C595 C596 1.413 1_545 S
C595 C597 1.427 . S
C595 C601 1.416 . S
C596 C589 1.424 . S
C596 C595 1.413 1_565 S
C596 N600 1.361 . S
C597 C595 1.427 . S
C597 C598 1.328 . S
C597 H612 0.929 . S
C598 C592 1.448 1_545 S
C598 C597 1.328 . S
C598 H613 0.930 . S
Tb599 N590 2.617 . S
Tb599 N600 2.572 . S
Tb599 O634 2.349 . S
Tb599 O637 2.393 . S
Tb599 O638 2.465 . S
Tb599 O639 2.387 . S
Tb599 O641 2.428 . S
Tb599 O642 2.308 . S
Tb599 C663 2.802 . S
N600 C596 1.361 . S
N600 Tb599 2.572 . S
N600 C602 1.340 . S
C601 C595 1.416 . S
C601 C603 1.332 1_545 S
C601 H609 0.931 . S
C602 N600 1.340 . S
C602 C603 1.407 . S
C602 H608 0.930 . S
C603 C601 1.332 1_565 S
C603 C602 1.407 . S
C603 H605 0.930 . S
H604 C593 0.930 . S
H605 C603 0.930 . S
H606 C621 0.930 . S
H607 C628 0.929 . S
H608 C602 0.930 . S
H609 C601 0.931 . S
H610 C624 0.930 . S
H611 C591 0.930 . S
H612 C597 0.929 . S
H613 C598 0.930 . S
H614 C619 0.930 . S
H615 C594 0.930 . S
H616 C627 0.931 . S
N617 Tb588 2.617 . S
N617 C618 1.379 . S
N617 C621 1.334 . S
C618 N617 1.379 . S
C618 C620 1.416 . S
C618 C626 1.424 . S
C619 H614 0.930 . S
C619 C621 1.390 . S
C619 C622 1.339 . S
C620 C618 1.416 . S
C620 C622 1.416 . S
C620 C653 1.448 . S
C621 H606 0.930 . S
C621 N617 1.334 . S
C621 C619 1.390 . S
C622 C619 1.339 . S
C622 C620 1.416 . S
C622 H629 0.930 . S
N623 Tb588 2.572 . S
N623 C624 1.340 . S
N623 C626 1.361 . S
C624 H610 0.930 . S
C624 N623 1.340 . S
C624 C628 1.407 . S
C625 C626 1.413 . S
C625 C627 1.416 . S
C625 C654 1.427 . S
C626 C618 1.424 . S
C626 N623 1.361 . S
C626 C625 1.413 . S
C627 H616 0.931 . S
C627 C625 1.416 . S
C627 C628 1.332 . S
C628 H607 0.929 . S
C628 C624 1.407 . S
C628 C627 1.332 . S
H629 C622 0.930 . S
H630 C653 0.930 . S
H631 C654 0.929 . S
O632 Tb588 2.465 . S
O632 C652 1.264 . S
O633 Tb588 2.387 . S
O633 C644 1.264 . S
O634 Tb599 2.349 . S
O634 C644 1.243 . S
O635 Tb588 2.428 . S
O635 C652 1.256 . S
O636 Tb588 2.308 . S
O636 C651 1.266 . S
O637 Tb599 2.393 . S
O637 C651 1.248 . S
O638 Tb599 2.465 . S
O638 C663 1.264 . S
O639 Tb599 2.387 . S
O639 C655 1.264 . S
O640 Tb588 2.349 . S
O640 C655 1.243 . S
O641 Tb599 2.428 . S
O641 C663 1.256 . S
O642 Tb599 2.308 . S
O642 C662 1.266 . S
O643 Tb588 2.393 . S
O643 C662 1.248 . S
C644 O633 1.264 . S
C644 O634 1.243 . S
C645 C648 1.399 . S
C645 C650 1.383 . S
C645 C652 1.496 . S
C646 C647 1.399 . S
C646 C650 1.389 . S
C647 C646 1.399 . S
C647 C649 1.380 . S
C647 H664 0.929 . S
C648 C645 1.399 . S
C648 C649 1.392 . S
C648 H665 0.929 . S
C649 C647 1.380 . S
C649 C648 1.392 . S
C649 H666 0.929 . S
C650 C645 1.383 . S
C650 C646 1.389 . S
C650 H667 0.931 . S
C651 O636 1.266 . S
C651 O637 1.248 . S
C652 Tb588 2.802 . S
C652 O632 1.264 . S
C652 O635 1.256 . S
C652 C645 1.496 . S
C653 C620 1.448 . S
C653 H630 0.930 . S
C653 C654 1.328 . S
C654 C625 1.427 . S
C654 H631 0.929 . S
C654 C653 1.328 . S
C655 O639 1.264 . S
C655 O640 1.243 . S
C656 C659 1.399 . S
C656 C660 1.383 . S
C656 C663 1.496 . S
C657 C658 1.399 . S
C657 C660 1.389 . S
C658 C657 1.399 . S
C658 C661 1.380 . S
C658 H668 0.929 . S
C659 C656 1.399 . S
C659 C661 1.392 . S
C659 H669 0.929 . S
C660 C656 1.383 . S
C660 C657 1.389 . S
C660 H670 0.931 . S
C661 C658 1.380 . S
C661 C659 1.392 . S
C661 H671 0.929 . S
C662 O642 1.266 . S
C662 O643 1.248 . S
C663 Tb599 2.802 . S
C663 O638 1.264 . S
C663 O641 1.256 . S
C663 C656 1.496 . S
H664 C647 0.929 . S
H665 C648 0.929 . S
H666 C649 0.929 . S
H667 C650 0.931 . S
H668 C658 0.929 . S
H669 C659 0.929 . S
H670 C660 0.931 . S
H671 C661 0.929 . S
Tb672 N701 2.617 . S
Tb672 N707 2.572 . S
Tb672 O716 2.465 . S
Tb672 O717 2.387 . S
Tb672 O719 2.428 . S
Tb672 O720 2.308 . S
Tb672 O724 2.349 . S
Tb672 O727 2.393 . S
Tb672 C736 2.802 . S
C673 N674 1.379 . S
C673 C676 1.416 . S
C673 C680 1.424 . S
N674 C673 1.379 . S
N674 C677 1.334 . S
N674 Tb683 2.617 . S
C675 C677 1.390 . S
C675 C678 1.339 . S
C675 H695 0.930 . S
C676 C673 1.416 . S
C676 C678 1.416 . S
C676 C682 1.448 . S
C677 N674 1.334 . S
C677 C675 1.390 . S
C677 H688 0.930 . S
C678 C675 1.339 . S
C678 C676 1.416 . S
C678 H699 0.930 . S
C679 C680 1.413 . S
C679 C681 1.427 . S
C679 C685 1.416 . S
C680 C673 1.424 . S
C680 C679 1.413 . S
C680 N684 1.361 . S
C681 C679 1.427 . S
C681 C682 1.328 . S
C681 H696 0.929 1_455 S
C682 C676 1.448 . S
C682 C681 1.328 . S
C682 H697 0.930 1_455 S
Tb683 N674 2.617 . S
Tb683 N684 2.572 . S
Tb683 O718 2.349 . S
Tb683 O721 2.393 . S
Tb683 O722 2.465 . S
Tb683 O723 2.387 . S
Tb683 O725 2.428 . S
Tb683 O726 2.308 . S
Tb683 C747 2.802 . S
N684 C680 1.361 . S
N684 Tb683 2.572 . S
N684 C686 1.340 . S
C685 C679 1.416 . S
C685 C687 1.332 . S
C685 H693 0.931 1_455 S
C686 N684 1.340 . S
C686 C687 1.407 . S
C686 H692 0.930 . S
C687 C685 1.332 . S
C687 C686 1.407 . S
C687 H689 0.929 . S
H688 C677 0.930 . S
H689 C687 0.929 . S
H690 C705 0.930 . S
H691 C712 0.929 . S
H692 C686 0.930 . S
H693 C685 0.931 1_655 S
H694 C708 0.930 . S
H695 C675 0.930 . S
H696 C681 0.929 1_655 S
H697 C682 0.930 1_655 S
H698 C703 0.930 . S
H699 C678 0.930 . S
H700 C711 0.931 . S
N701 Tb672 2.617 . S
N701 C702 1.379 . S
N701 C705 1.334 . S
C702 N701 1.379 . S
C702 C704 1.416 . S
C702 C710 1.424 . S
C703 H698 0.930 . S
C703 C705 1.390 . S
C703 C706 1.339 . S
C704 C702 1.416 . S
C704 C706 1.416 . S
C704 C737 1.448 1_565 S
C705 H690 0.930 . S
C705 N701 1.334 . S
C705 C703 1.390 . S
C706 C703 1.339 . S
C706 C704 1.416 . S
C706 H713 0.930 . S
N707 Tb672 2.572 . S
N707 C708 1.340 . S
N707 C710 1.361 . S
C708 H694 0.930 . S
C708 N707 1.340 . S
C708 C712 1.407 1_565 S
C709 C710 1.413 1_545 S
C709 C711 1.416 . S
C709 C738 1.427 . S
C710 C702 1.424 . S
C710 N707 1.361 . S
C710 C709 1.413 1_565 S
C711 H700 0.931 . S
C711 C709 1.416 . S
C711 C712 1.332 . S
C712 H691 0.929 . S
C712 C708 1.407 1_545 S
C712 C711 1.332 . S
H713 C706 0.930 . S
H714 C737 0.930 . S
H715 C738 0.929 . S
O716 Tb672 2.465 . S
O716 C736 1.264 . S
O717 Tb672 2.387 . S
O717 C728 1.264 . S
O718 Tb683 2.349 . S
O718 C728 1.243 . S
O719 Tb672 2.428 . S
O719 C736 1.256 . S
O720 Tb672 2.308 . S
O720 C735 1.266 . S
O721 Tb683 2.393 . S
O721 C735 1.248 . S
O722 Tb683 2.465 . S
O722 C747 1.264 . S
O723 Tb683 2.387 . S
O723 C739 1.264 . S
O724 Tb672 2.349 . S
O724 C739 1.243 . S
O725 Tb683 2.428 . S
O725 C747 1.256 . S
O726 Tb683 2.308 . S
O726 C746 1.266 . S
O727 Tb672 2.393 . S
O727 C746 1.248 . S
C728 O717 1.264 . S
C728 O718 1.243 . S
C729 C732 1.399 . S
C729 C734 1.383 . S
C729 C736 1.496 1_545 S
C730 C731 1.399 . S
C730 C734 1.389 . S
C731 C730 1.399 . S
C731 C733 1.380 . S
C731 H748 0.929 . S
C732 C729 1.399 . S
C732 C733 1.392 . S
C732 H749 0.929 . S
C733 C731 1.380 . S
C733 C732 1.392 . S
C733 H750 0.929 . S
C734 C729 1.383 . S
C734 C730 1.389 . S
C734 H751 0.931 . S
C735 O720 1.266 . S
C735 O721 1.248 . S
C736 Tb672 2.802 . S
C736 O716 1.264 . S
C736 O719 1.256 . S
C736 C729 1.496 1_565 S
C737 C704 1.448 1_545 S
C737 H714 0.930 . S
C737 C738 1.328 . S
C738 C709 1.427 . S
C738 H715 0.929 . S
C738 C737 1.328 . S
C739 O723 1.264 . S
C739 O724 1.243 . S
C740 C743 1.399 . S
C740 C744 1.383 . S
C740 C747 1.496 . S
C741 C742 1.399 . S
C741 C744 1.389 . S
C742 C741 1.399 . S
C742 C745 1.380 . S
C742 H752 0.929 . S
C743 C740 1.399 . S
C743 C745 1.392 . S
C743 H753 0.929 . S
C744 C740 1.383 . S
C744 C741 1.389 . S
C744 H754 0.931 . S
C745 C742 1.380 . S
C745 C743 1.392 . S
C745 H755 0.929 . S
C746 O726 1.266 . S
C746 O727 1.248 . S
C747 Tb683 2.802 . S
C747 O722 1.264 . S
C747 O725 1.256 . S
C747 C740 1.496 . S
H748 C731 0.929 . S
H749 C732 0.929 . S
H750 C733 0.929 . S
H751 C734 0.931 . S
H752 C742 0.929 . S
H753 C743 0.929 . S
H754 C744 0.931 . S
H755 C745 0.929 . S
Tb756 N785 2.617 . S
Tb756 N791 2.572 . S
Tb756 O800 2.465 . S
Tb756 O801 2.387 . S
Tb756 O803 2.428 . S
Tb756 O804 2.308 . S
Tb756 O808 2.349 . S
Tb756 O811 2.393 . S
Tb756 C820 2.802 . S
C757 N758 1.379 . S
C757 C760 1.416 . S
C757 C764 1.424 . S
N758 C757 1.379 . S
N758 C761 1.334 . S
N758 Tb767 2.617 . S
C759 C761 1.390 . S
C759 C762 1.339 . S
C759 H779 0.930 . S
C760 C757 1.416 . S
C760 C762 1.416 . S
C760 C766 1.448 . S
C761 N758 1.334 . S
C761 C759 1.390 . S
C761 H772 0.930 . S
C762 C759 1.339 . S
C762 C760 1.416 . S
C762 H783 0.930 . S
C763 C764 1.413 . S
C763 C765 1.427 . S
C763 C769 1.416 . S
C764 C757 1.424 . S
C764 C763 1.413 . S
C764 N768 1.361 . S
C765 C763 1.427 . S
C765 C766 1.328 . S
C765 H780 0.929 1_565 S
C766 C760 1.448 . S
C766 C765 1.328 . S
C766 H781 0.930 . S
Tb767 N758 2.617 . S
Tb767 N768 2.572 . S
Tb767 O802 2.349 . S
Tb767 O805 2.393 . S
Tb767 O806 2.465 . S
Tb767 O807 2.387 . S
Tb767 O809 2.428 . S
Tb767 O810 2.308 . S
Tb767 C831 2.802 . S
N768 C764 1.361 . S
N768 Tb767 2.572 . S
N768 C770 1.340 . S
C769 C763 1.416 . S
C769 C771 1.332 . S
C769 H777 0.931 1_565 S
C770 N768 1.340 . S
C770 C771 1.407 . S
C770 H776 0.930 . S
C771 C769 1.332 . S
C771 C770 1.407 . S
C771 H773 0.929 . S
H772 C761 0.930 . S
H773 C771 0.929 . S
H774 C789 0.930 . S
H775 C796 0.929 . S
H776 C770 0.930 . S
H777 C769 0.931 1_545 S
H778 C792 0.930 . S
H779 C759 0.930 . S
H780 C765 0.929 1_545 S
H781 C766 0.930 . S
H782 C787 0.930 . S
H783 C762 0.930 . S
H784 C795 0.931 . S
N785 Tb756 2.617 . S
N785 C786 1.379 . S
N785 C789 1.334 . S
C786 N785 1.379 . S
C786 C788 1.416 . S
C786 C794 1.424 . S
C787 H782 0.930 . S
C787 C789 1.390 . S
C787 C790 1.339 . S
C788 C786 1.416 . S
C788 C790 1.416 . S
C788 C821 1.448 . S
C789 H774 0.930 . S
C789 N785 1.334 . S
C789 C787 1.390 . S
C790 C787 1.339 . S
C790 C788 1.416 . S
C790 H797 0.930 . S
N791 Tb756 2.572 . S
N791 C792 1.340 . S
N791 C794 1.361 . S
C792 H778 0.930 . S
C792 N791 1.340 . S
C792 C796 1.407 . S
C793 C794 1.413 . S
C793 C795 1.416 . S
C793 C822 1.427 . S
C794 C786 1.424 . S
C794 N791 1.361 . S
C794 C793 1.413 . S
C795 H784 0.931 . S
C795 C793 1.416 . S
C795 C796 1.332 . S
C796 H775 0.929 . S
C796 C792 1.407 . S
C796 C795 1.332 . S
H797 C790 0.930 . S
H798 C821 0.930 . S
H799 C822 0.929 . S
O800 Tb756 2.465 . S
O800 C820 1.264 . S
O801 Tb756 2.387 . S
O801 C812 1.264 . S
O802 Tb767 2.349 . S
O802 C812 1.243 . S
O803 Tb756 2.428 . S
O803 C820 1.256 . S
O804 Tb756 2.308 . S
O804 C819 1.266 . S
O805 Tb767 2.393 . S
O805 C819 1.248 . S
O806 Tb767 2.465 . S
O806 C831 1.264 . S
O807 Tb767 2.387 . S
O807 C823 1.264 . S
O808 Tb756 2.349 . S
O808 C823 1.243 . S
O809 Tb767 2.428 . S
O809 C831 1.256 . S
O810 Tb767 2.308 . S
O810 C830 1.266 . S
O811 Tb756 2.393 . S
O811 C830 1.248 . S
C812 O801 1.264 . S
C812 O802 1.243 . S
C813 C816 1.399 . S
C813 C818 1.383 . S
C813 C820 1.496 . S
C814 C815 1.399 . S
C814 C818 1.389 . S
C815 C814 1.399 . S
C815 C817 1.380 . S
C815 H832 0.929 . S
C816 C813 1.399 . S
C816 C817 1.392 . S
C816 H833 0.929 . S
C817 C815 1.380 . S
C817 C816 1.392 . S
C817 H834 0.929 . S
C818 C813 1.383 . S
C818 C814 1.389 . S
C818 H835 0.931 . S
C819 O804 1.266 . S
C819 O805 1.248 . S
C820 Tb756 2.802 . S
C820 O800 1.264 . S
C820 O803 1.256 . S
C820 C813 1.496 . S
C821 C788 1.448 . S
C821 H798 0.930 . S
C821 C822 1.328 . S
C822 C793 1.427 . S
C822 H799 0.929 . S
C822 C821 1.328 . S
C823 O807 1.264 . S
C823 O808 1.243 . S
C824 C827 1.401 . S
C824 C828 1.383 1_565 S
C824 C831 1.496 . S
C825 C826 1.399 . S
C825 C828 1.389 . S
C826 C825 1.399 . S
C826 C829 1.380 . S
C826 H836 0.929 . S
C827 C824 1.401 . S
C827 C829 1.386 1_565 S
C827 H837 0.934 . S
C828 C824 1.383 1_545 S
C828 C825 1.389 . S
C828 H838 0.931 1_545 S
C829 C826 1.380 . S
C829 C827 1.386 1_545 S
C829 H839 0.929 . S
C830 O810 1.266 . S
C830 O811 1.248 . S
C831 Tb767 2.802 . S
C831 O806 1.264 . S
C831 O809 1.256 . S
C831 C824 1.496 . S
H832 C815 0.929 . S
H833 C816 0.929 . S
H834 C817 0.929 . S
H835 C818 0.931 . S
H836 C826 0.929 . S
H837 C827 0.934 . S
H838 C828 0.931 1_565 S
H839 C829 0.929 . S
Tb840 N869 2.617 . S
Tb840 N875 2.572 . S
Tb840 O884 2.465 . S
Tb840 O885 2.387 . S
Tb840 O887 2.428 . S
Tb840 O888 2.308 . S
Tb840 O892 2.349 . S
Tb840 O895 2.393 . S
Tb840 C904 2.802 . S
C841 N842 1.379 . S
C841 C844 1.416 . S
C841 C848 1.424 . S
N842 C841 1.379 . S
N842 C845 1.334 . S
N842 Tb851 2.617 . S
C843 C845 1.390 . S
C843 C846 1.339 . S
C843 H863 0.930 . S
C844 C841 1.416 . S
C844 C846 1.416 . S
C844 C850 1.448 . S
C845 N842 1.334 . S
C845 C843 1.390 . S
C845 H856 0.930 . S
C846 C843 1.339 . S
C846 C844 1.416 . S
C846 H867 0.930 . S
C847 C848 1.413 . S
C847 C849 1.427 . S
C847 C853 1.416 . S
C848 C841 1.424 . S
C848 C847 1.413 . S
C848 N852 1.361 . S
C849 C847 1.427 . S
C849 C850 1.328 . S
C849 H864 0.929 . S
C850 C844 1.448 . S
C850 C849 1.328 . S
C850 H865 0.930 . S
Tb851 N842 2.617 . S
Tb851 N852 2.572 . S
Tb851 O886 2.349 . S
Tb851 O889 2.393 . S
Tb851 O890 2.465 . S
Tb851 O891 2.387 . S
Tb851 O893 2.428 . S
Tb851 O894 2.308 . S
Tb851 C915 2.802 . S
N852 C848 1.361 . S
N852 Tb851 2.572 . S
N852 C854 1.340 . S
C853 C847 1.416 . S
C853 C855 1.332 . S
C853 H861 0.931 . S
C854 N852 1.340 . S
C854 C855 1.407 . S
C854 H860 0.930 . S
C855 C853 1.332 . S
C855 C854 1.407 . S
C855 H857 0.929 . S
H856 C845 0.930 . S
H857 C855 0.929 . S
H858 C873 0.930 . S
H859 C880 0.929 . S
H860 C854 0.930 . S
H861 C853 0.931 . S
H862 C876 0.930 . S
H863 C843 0.930 . S
H864 C849 0.929 . S
H865 C850 0.930 . S
H866 C871 0.930 . S
H867 C846 0.930 . S
H868 C879 0.931 . S
N869 Tb840 2.617 . S
N869 C870 1.379 . S
N869 C873 1.334 . S
C870 N869 1.379 . S
C870 C872 1.416 . S
C870 C878 1.424 . S
C871 H866 0.930 . S
C871 C873 1.390 . S
C871 C874 1.339 . S
C872 C870 1.416 . S
C872 C874 1.416 . S
C872 C905 1.448 1_565 S
C873 H858 0.930 . S
C873 N869 1.334 . S
C873 C871 1.390 . S
C874 C871 1.339 . S
C874 C872 1.416 . S
C874 H881 0.930 1_565 S
N875 Tb840 2.572 . S
N875 C876 1.340 . S
N875 C878 1.361 . S
C876 H862 0.930 . S
C876 N875 1.340 . S
C876 C880 1.407 1_565 S
C877 C878 1.413 1_545 S
C877 C879 1.416 . S
C877 C906 1.427 . S
C878 C870 1.424 . S
C878 N875 1.361 . S
C878 C877 1.413 1_565 S
C879 H868 0.931 . S
C879 C877 1.416 . S
C879 C880 1.332 . S
C880 H859 0.929 . S
C880 C876 1.407 1_545 S
C880 C879 1.332 . S
H881 C874 0.930 1_545 S
H882 C905 0.930 . S
H883 C906 0.929 . S
O884 Tb840 2.465 . S
O884 C904 1.264 . S
O885 Tb840 2.387 . S
O885 C896 1.264 . S
O886 Tb851 2.349 . S
O886 C896 1.243 . S
O887 Tb840 2.428 . S
O887 C904 1.256 . S
O888 Tb840 2.308 . S
O888 C903 1.266 . S
O889 Tb851 2.393 . S
O889 C903 1.248 . S
O890 Tb851 2.465 . S
O890 C915 1.264 . S
O891 Tb851 2.387 . S
O891 C907 1.264 . S
O892 Tb840 2.349 . S
O892 C907 1.243 . S
O893 Tb851 2.428 . S
O893 C915 1.256 . S
O894 Tb851 2.308 . S
O894 C914 1.266 . S
O895 Tb840 2.393 . S
O895 C914 1.248 . S
C896 O885 1.264 . S
C896 O886 1.243 . S
C897 C900 1.399 . S
C897 C902 1.383 . S
C897 C904 1.496 . S
C898 C899 1.399 . S
C898 C902 1.389 . S
C899 C898 1.399 . S
C899 C901 1.380 . S
C899 H916 0.929 . S
C900 C897 1.399 . S
C900 C901 1.392 . S
C900 H917 0.929 . S
C901 C899 1.380 . S
C901 C900 1.392 . S
C901 H918 0.929 . S
C902 C897 1.383 . S
C902 C898 1.389 . S
C902 H919 0.931 . S
C903 O888 1.266 . S
C903 O889 1.248 . S
C904 Tb840 2.802 . S
C904 O884 1.264 . S
C904 O887 1.256 . S
C904 C897 1.496 . S
C905 C872 1.448 1_545 S
C905 H882 0.930 . S
C905 C906 1.328 . S
C906 C877 1.427 . S
C906 H883 0.929 . S
C906 C905 1.328 . S
C907 O891 1.264 . S
C907 O892 1.243 . S
C908 C911 1.399 . S
C908 C912 1.383 . S
C908 C915 1.496 . S
C909 C910 1.409 . S
C909 C912 1.366 1_655 S
C910 C909 1.409 . S
C910 C913 1.380 1_655 S
C910 H920 0.929 . S
C911 C908 1.399 . S
C911 C913 1.392 . S
C911 H921 0.929 . S
C912 C908 1.383 . S
C912 C909 1.366 1_455 S
C912 H922 0.931 . S
C913 C910 1.380 1_455 S
C913 C911 1.392 . S
C913 H923 0.916 1_455 S
C914 O894 1.266 . S
C914 O895 1.248 . S
C915 Tb851 2.802 . S
C915 O890 1.264 . S
C915 O893 1.256 . S
C915 C908 1.496 . S
H916 C899 0.929 . S
H917 C900 0.929 . S
H918 C901 0.929 . S
H919 C902 0.931 . S
H920 C910 0.929 . S
H921 C911 0.929 . S
H922 C912 0.931 . S
H923 C913 0.916 1_655 S
Tb924 N953 2.617 . S
Tb924 N959 2.572 . S
Tb924 O968 2.465 . S
Tb924 O969 2.387 . S
Tb924 O971 2.428 . S
Tb924 O972 2.308 . S
Tb924 O976 2.349 . S
Tb924 O979 2.393 . S
Tb924 C988 2.802 . S
C925 N926 1.379 . S
C925 C928 1.416 . S
C925 C932 1.424 . S
N926 C925 1.379 . S
N926 C929 1.334 . S
N926 Tb935 2.617 . S
C927 C929 1.390 . S
C927 C930 1.339 . S
C927 H947 0.930 . S
C928 C925 1.416 . S
C928 C930 1.416 . S
C928 C934 1.448 . S
C929 N926 1.334 . S
C929 C927 1.390 . S
C929 H940 0.930 . S
C930 C927 1.339 . S
C930 C928 1.416 . S
C930 H951 0.930 . S
C931 C932 1.413 . S
C931 C933 1.427 . S
C931 C937 1.416 . S
C932 C925 1.424 . S
C932 C931 1.413 . S
C932 N936 1.361 . S
C933 C931 1.427 . S
C933 C934 1.328 . S
C933 H948 0.929 . S
C934 C928 1.448 . S
C934 C933 1.328 . S
C934 H949 0.930 . S
Tb935 N926 2.617 . S
Tb935 N936 2.572 . S
Tb935 O970 2.349 . S
Tb935 O973 2.393 . S
Tb935 O974 2.465 . S
Tb935 O975 2.387 . S
Tb935 O977 2.428 . S
Tb935 O978 2.308 . S
Tb935 C999 2.802 . S
N936 C932 1.361 . S
N936 Tb935 2.572 . S
N936 C938 1.340 . S
C937 C931 1.416 . S
C937 C939 1.332 . S
C937 H945 0.931 . S
C938 N936 1.340 . S
C938 C939 1.407 . S
C938 H944 0.930 . S
C939 C937 1.332 . S
C939 C938 1.407 . S
C939 H941 0.929 . S
H940 C929 0.930 . S
H941 C939 0.929 . S
H942 C957 0.930 . S
H943 C964 0.929 . S
H944 C938 0.930 . S
H945 C937 0.931 . S
H946 C960 0.930 . S
H947 C927 0.930 . S
H948 C933 0.929 . S
H949 C934 0.930 . S
H950 C955 0.930 . S
H951 C930 0.930 . S
H952 C963 0.931 1_655 S
N953 Tb924 2.617 . S
N953 C954 1.379 . S
N953 C957 1.334 . S
C954 N953 1.379 . S
C954 C956 1.416 . S
C954 C962 1.424 . S
C955 H950 0.930 . S
C955 C957 1.390 . S
C955 C958 1.339 . S
C956 C954 1.416 . S
C956 C958 1.416 . S
C956 C989 1.448 . S
C957 H942 0.930 . S
C957 N953 1.334 . S
C957 C955 1.390 . S
C958 C955 1.339 . S
C958 C956 1.416 . S
C958 H965 0.930 . S
N959 Tb924 2.572 . S
N959 C960 1.340 . S
N959 C962 1.361 . S
C960 H946 0.930 . S
C960 N959 1.340 . S
C960 C964 1.407 . S
C961 C962 1.413 . S
C961 C963 1.416 . S
C961 C990 1.427 1_455 S
C962 C954 1.424 . S
C962 N959 1.361 . S
C962 C961 1.413 . S
C963 H952 0.931 1_455 S
C963 C961 1.416 . S
C963 C964 1.332 . S
C964 H943 0.929 . S
C964 C960 1.407 . S
C964 C963 1.332 . S
H965 C958 0.930 . S
H966 C989 0.930 1_655 S
H967 C990 0.929 . S
O968 Tb924 2.465 . S
O968 C988 1.264 . S
O969 Tb924 2.387 . S
O969 C980 1.264 . S
O970 Tb935 2.349 . S
O970 C980 1.243 . S
O971 Tb924 2.428 . S
O971 C988 1.256 . S
O972 Tb924 2.308 . S
O972 C987 1.266 . S
O973 Tb935 2.393 . S
O973 C987 1.248 . S
O974 Tb935 2.465 . S
O974 C999 1.264 . S
O975 Tb935 2.387 . S
O975 C991 1.264 . S
O976 Tb924 2.349 . S
O976 C991 1.243 . S
O977 Tb935 2.428 . S
O977 C999 1.256 . S
O978 Tb935 2.308 . S
O978 C998 1.266 . S
O979 Tb924 2.393 . S
O979 C998 1.248 . S
C980 O969 1.264 . S
C980 O970 1.243 . S
C981 C984 1.399 . S
C981 C986 1.383 . S
C981 C988 1.496 . S
C982 C983 1.399 . S
C982 C986 1.389 . S
C983 C982 1.399 . S
C983 C985 1.380 . S
C983 H1000 0.929 . S
C984 C981 1.399 . S
C984 C985 1.392 . S
C984 H1001 0.929 . S
C985 C983 1.380 . S
C985 C984 1.392 . S
C985 H1002 0.929 . S
C986 C981 1.383 . S
C986 C982 1.389 . S
C986 H1003 0.931 . S
C987 O972 1.266 . S
C987 O973 1.248 . S
C988 Tb924 2.802 . S
C988 O968 1.264 . S
C988 O971 1.256 . S
C988 C981 1.496 . S
C989 C956 1.448 . S
C989 H966 0.930 1_455 S
C989 C990 1.328 1_455 S
C990 C961 1.427 1_655 S
C990 H967 0.929 . S
C990 C989 1.328 1_655 S
C991 O975 1.264 . S
C991 O976 1.243 . S
C992 C995 1.399 . S
C992 C996 1.383 . S
C992 C999 1.496 . S
C993 C994 1.399 . S
C993 C996 1.389 . S
C994 C993 1.399 . S
C994 C997 1.380 . S
C994 H1004 0.929 . S
C995 C992 1.399 . S
C995 C997 1.392 . S
C995 H1005 0.929 . S
C996 C992 1.383 . S
C996 C993 1.389 . S
C996 H1006 0.931 . S
C997 C994 1.380 . S
C997 C995 1.392 . S
C997 H1007 0.929 . S
C998 O978 1.266 . S
C998 O979 1.248 . S
C999 Tb935 2.802 . S
C999 O974 1.264 . S
C999 O977 1.256 . S
C999 C992 1.496 . S
H1000 C983 0.929 . S
H1001 C984 0.929 . S
H1002 C985 0.929 . S
H1003 C986 0.931 . S
H1004 C994 0.929 . S
H1005 C995 0.929 . S
H1006 C996 0.931 . S
H1007 C997 0.929 . S
Tb1008 N1037 2.617 . S
Tb1008 N1043 2.572 . S
Tb1008 O1052 2.465 . S
Tb1008 O1053 2.387 . S
Tb1008 O1055 2.428 . S
Tb1008 O1056 2.308 . S
Tb1008 O1060 2.349 . S
Tb1008 O1063 2.393 . S
Tb1008 C1072 2.802 . S
C1009 N1010 1.379 . S
C1009 C1012 1.416 . S
C1009 C1016 1.424 . S
N1010 C1009 1.379 . S
N1010 C1013 1.334 . S
N1010 Tb1019 2.617 . S
C1011 C1013 1.390 . S
C1011 C1014 1.339 . S
C1011 H1031 0.930 . S
C1012 C1009 1.416 . S
C1012 C1014 1.416 . S
C1012 C1018 1.448 . S
C1013 N1010 1.334 . S
C1013 C1011 1.390 . S
C1013 H1024 0.930 . S
C1014 C1011 1.339 . S
C1014 C1012 1.416 . S
C1014 H1035 0.930 . S
C1015 C1016 1.413 . S
C1015 C1017 1.427 . S
C1015 C1021 1.416 . S
C1016 C1009 1.424 . S
C1016 C1015 1.413 . S
C1016 N1020 1.361 . S
C1017 C1015 1.427 . S
C1017 C1018 1.328 . S
C1017 H1032 0.929 1_655 S
C1018 C1012 1.448 . S
C1018 C1017 1.328 . S
C1018 H1033 0.930 . S
Tb1019 N1010 2.617 . S
Tb1019 N1020 2.572 . S
Tb1019 O1054 2.349 . S
Tb1019 O1057 2.393 . S
Tb1019 O1058 2.465 . S
Tb1019 O1059 2.387 . S
Tb1019 O1061 2.428 . S
Tb1019 O1062 2.308 . S
Tb1019 C1083 2.802 . S
N1020 C1016 1.361 . S
N1020 Tb1019 2.572 . S
N1020 C1022 1.340 . S
C1021 C1015 1.416 . S
C1021 C1023 1.332 . S
C1021 H1029 0.931 1_655 S
C1022 N1020 1.340 . S
C1022 C1023 1.407 . S
C1022 H1028 0.930 . S
C1023 C1021 1.332 . S
C1023 C1022 1.407 . S
C1023 H1025 0.929 . S
H1024 C1013 0.930 . S
H1025 C1023 0.929 . S
H1026 C1041 0.930 . S
H1027 C1048 0.929 . S
H1028 C1022 0.930 . S
H1029 C1021 0.931 1_455 S
H1030 C1044 0.930 . S
H1031 C1011 0.930 . S
H1032 C1017 0.929 1_455 S
H1033 C1018 0.930 . S
H1034 C1039 0.930 . S
H1035 C1014 0.930 . S
H1036 C1047 0.931 . S
N1037 Tb1008 2.617 . S
N1037 C1038 1.379 . S
N1037 C1041 1.334 . S
C1038 N1037 1.379 . S
C1038 C1040 1.416 . S
C1038 C1046 1.424 . S
C1039 H1034 0.930 . S
C1039 C1041 1.390 . S
C1039 C1042 1.339 . S
C1040 C1038 1.416 . S
C1040 C1042 1.416 . S
C1040 C1073 1.448 . S
C1041 H1026 0.930 . S
C1041 N1037 1.334 . S
C1041 C1039 1.390 . S
C1042 C1039 1.339 . S
C1042 C1040 1.416 . S
C1042 H1049 0.930 . S
N1043 Tb1008 2.572 . S
N1043 C1044 1.340 . S
N1043 C1046 1.361 . S
C1044 H1030 0.930 . S
C1044 N1043 1.340 . S
C1044 C1048 1.407 . S
C1045 C1046 1.413 . S
C1045 C1047 1.416 . S
C1045 C1074 1.427 . S
C1046 C1038 1.424 . S
C1046 N1043 1.361 . S
C1046 C1045 1.413 . S
C1047 H1036 0.931 . S
C1047 C1045 1.416 . S
C1047 C1048 1.332 . S
C1048 H1027 0.929 . S
C1048 C1044 1.407 . S
C1048 C1047 1.332 . S
H1049 C1042 0.930 . S
H1050 C1073 0.930 . S
H1051 C1074 0.929 . S
O1052 Tb1008 2.465 . S
O1052 C1072 1.264 . S
O1053 Tb1008 2.387 . S
O1053 C1064 1.264 . S
O1054 Tb1019 2.349 . S
O1054 C1064 1.243 . S
O1055 Tb1008 2.428 . S
O1055 C1072 1.256 . S
O1056 Tb1008 2.308 . S
O1056 C1071 1.266 . S
O1057 Tb1019 2.393 . S
O1057 C1071 1.248 . S
O1058 Tb1019 2.465 . S
O1058 C1083 1.264 . S
O1059 Tb1019 2.387 . S
O1059 C1075 1.264 . S
O1060 Tb1008 2.349 . S
O1060 C1075 1.243 . S
O1061 Tb1019 2.428 . S
O1061 C1083 1.256 . S
O1062 Tb1019 2.308 . S
O1062 C1082 1.266 . S
O1063 Tb1008 2.393 . S
O1063 C1082 1.248 . S
C1064 O1053 1.264 . S
C1064 O1054 1.243 . S
C1065 C1068 1.399 . S
C1065 C1070 1.383 . S
C1065 C1072 1.496 . S
C1066 C1067 1.399 . S
C1066 C1070 1.389 . S
C1067 C1066 1.399 . S
C1067 C1069 1.380 . S
C1067 H1084 0.929 . S
C1068 C1065 1.399 . S
C1068 C1069 1.392 . S
C1068 H1085 0.929 . S
C1069 C1067 1.380 . S
C1069 C1068 1.392 . S
C1069 H1086 0.929 . S
C1070 C1065 1.383 . S
C1070 C1066 1.389 . S
C1070 H1087 0.931 . S
C1071 O1056 1.266 . S
C1071 O1057 1.248 . S
C1072 Tb1008 2.802 . S
C1072 O1052 1.264 . S
C1072 O1055 1.256 . S
C1072 C1065 1.496 . S
C1073 C1040 1.448 . S
C1073 H1050 0.930 . S
C1073 C1074 1.328 . S
C1074 C1045 1.427 . S
C1074 H1051 0.929 . S
C1074 C1073 1.328 . S
C1075 O1059 1.264 . S
C1075 O1060 1.243 . S
C1076 C1079 1.401 . S
C1076 C1080 1.383 1_655 S
C1076 C1083 1.496 . S
C1077 C1078 1.399 . S
C1077 C1080 1.389 . S
C1078 C1077 1.399 . S
C1078 C1081 1.380 . S
C1078 H1088 0.929 . S
C1079 C1076 1.401 . S
C1079 C1081 1.386 1_655 S
C1079 H1089 0.934 . S
C1080 C1076 1.383 1_455 S
C1080 C1077 1.389 . S
C1080 H1090 0.931 1_455 S
C1081 C1078 1.380 . S
C1081 C1079 1.386 1_455 S
C1081 H1091 0.929 . S
C1082 O1062 1.266 . S
C1082 O1063 1.248 . S
C1083 Tb1019 2.802 . S
C1083 O1058 1.264 . S
C1083 O1061 1.256 . S
C1083 C1076 1.496 . S
H1084 C1067 0.929 . S
H1085 C1068 0.929 . S
H1086 C1069 0.929 . S
H1087 C1070 0.931 . S
H1088 C1078 0.929 . S
H1089 C1079 0.934 . S
H1090 C1080 0.931 1_655 S
H1091 C1081 0.929 . S
Tb1092 N1121 2.617 . S
Tb1092 N1127 2.572 . S
Tb1092 O1136 2.465 . S
Tb1092 O1137 2.387 . S
Tb1092 O1139 2.428 . S
Tb1092 O1140 2.308 . S
Tb1092 O1144 2.349 . S
Tb1092 O1147 2.393 . S
Tb1092 C1156 2.802 . S
C1093 N1094 1.379 . S
C1093 C1096 1.416 . S
C1093 C1100 1.424 . S
N1094 C1093 1.379 . S
N1094 C1097 1.334 . S
N1094 Tb1103 2.617 . S
C1095 C1097 1.390 . S
C1095 C1098 1.339 . S
C1095 H1115 0.930 . S
C1096 C1093 1.416 . S
C1096 C1098 1.416 . S
C1096 C1102 1.448 . S
C1097 N1094 1.334 . S
C1097 C1095 1.390 . S
C1097 H1108 0.930 . S
C1098 C1095 1.339 . S
C1098 C1096 1.416 . S
C1098 H1119 0.930 . S
C1099 C1100 1.413 . S
C1099 C1101 1.427 . S
C1099 C1105 1.416 . S
C1100 C1093 1.424 . S
C1100 C1099 1.413 . S
C1100 N1104 1.361 . S
C1101 C1099 1.427 . S
C1101 C1102 1.328 . S
C1101 H1116 0.929 . S
C1102 C1096 1.448 . S
C1102 C1101 1.328 . S
C1102 H1117 0.930 . S
Tb1103 N1094 2.617 . S
Tb1103 N1104 2.572 . S
Tb1103 O1138 2.349 . S
Tb1103 O1141 2.393 . S
Tb1103 O1142 2.465 . S
Tb1103 O1143 2.387 . S
Tb1103 O1145 2.428 . S
Tb1103 O1146 2.308 . S
Tb1103 C1167 2.802 . S
N1104 C1100 1.361 . S
N1104 Tb1103 2.572 . S
N1104 C1106 1.340 . S
C1105 C1099 1.416 . S
C1105 C1107 1.332 . S
C1105 H1113 0.931 . S
C1106 N1104 1.340 . S
C1106 C1107 1.407 . S
C1106 H1112 0.930 . S
C1107 C1105 1.332 . S
C1107 C1106 1.407 . S
C1107 H1109 0.929 . S
H1108 C1097 0.930 . S
H1109 C1107 0.929 . S
H1110 C1125 0.930 . S
H1111 C1132 0.929 . S
H1112 C1106 0.930 . S
H1113 C1105 0.931 . S
H1114 C1128 0.930 . S
H1115 C1095 0.930 . S
H1116 C1101 0.929 . S
H1117 C1102 0.930 . S
H1118 C1123 0.930 . S
H1119 C1098 0.930 . S
H1120 C1131 0.931 1_565 S
N1121 Tb1092 2.617 . S
N1121 C1122 1.379 . S
N1121 C1125 1.334 . S
C1122 N1121 1.379 . S
C1122 C1124 1.416 . S
C1122 C1130 1.424 . S
C1123 H1118 0.930 . S
C1123 C1125 1.390 . S
C1123 C1126 1.339 . S
C1124 C1122 1.416 . S
C1124 C1126 1.416 . S
C1124 C1157 1.448 . S
C1125 H1110 0.930 . S
C1125 N1121 1.334 . S
C1125 C1123 1.390 . S
C1126 C1123 1.339 . S
C1126 C1124 1.416 . S
C1126 H1133 0.930 . S
N1127 Tb1092 2.572 . S
N1127 C1128 1.340 . S
N1127 C1130 1.361 . S
C1128 H1114 0.930 . S
C1128 N1127 1.340 . S
C1128 C1132 1.407 . S
C1129 C1130 1.413 . S
C1129 C1131 1.416 . S
C1129 C1158 1.427 1_545 S
C1130 C1122 1.424 . S
C1130 N1127 1.361 . S
C1130 C1129 1.413 . S
C1131 H1120 0.931 1_545 S
C1131 C1129 1.416 . S
C1131 C1132 1.332 . S
C1132 H1111 0.929 . S
C1132 C1128 1.407 . S
C1132 C1131 1.332 . S
H1133 C1126 0.930 . S
H1134 C1157 0.930 1_565 S
H1135 C1158 0.929 . S
O1136 Tb1092 2.465 . S
O1136 C1156 1.264 . S
O1137 Tb1092 2.387 . S
O1137 C1148 1.264 . S
O1138 Tb1103 2.349 . S
O1138 C1148 1.243 . S
O1139 Tb1092 2.428 . S
O1139 C1156 1.256 . S
O1140 Tb1092 2.308 . S
O1140 C1155 1.266 . S
O1141 Tb1103 2.393 . S
O1141 C1155 1.248 . S
O1142 Tb1103 2.465 . S
O1142 C1167 1.264 . S
O1143 Tb1103 2.387 . S
O1143 C1159 1.264 . S
O1144 Tb1092 2.349 . S
O1144 C1159 1.243 . S
O1145 Tb1103 2.428 . S
O1145 C1167 1.256 . S
O1146 Tb1103 2.308 . S
O1146 C1166 1.266 . S
O1147 Tb1092 2.393 . S
O1147 C1166 1.248 . S
C1148 O1137 1.264 . S
C1148 O1138 1.243 . S
C1149 C1152 1.399 . S
C1149 C1154 1.383 . S
C1149 C1156 1.496 . S
C1150 C1151 1.399 . S
C1150 C1154 1.389 . S
C1151 C1150 1.399 . S
C1151 C1153 1.380 . S
C1151 H1168 0.929 . S
C1152 C1149 1.399 . S
C1152 C1153 1.392 . S
C1152 H1169 0.929 . S
C1153 C1151 1.380 . S
C1153 C1152 1.392 . S
C1153 H1170 0.929 . S
C1154 C1149 1.383 . S
C1154 C1150 1.389 . S
C1154 H1171 0.931 . S
C1155 O1140 1.266 . S
C1155 O1141 1.248 . S
C1156 Tb1092 2.802 . S
C1156 O1136 1.264 . S
C1156 O1139 1.256 . S
C1156 C1149 1.496 . S
C1157 C1124 1.448 . S
C1157 H1134 0.930 1_545 S
C1157 C1158 1.328 1_545 S
C1158 C1129 1.427 1_565 S
C1158 H1135 0.929 . S
C1158 C1157 1.328 1_565 S
C1159 O1143 1.264 . S
C1159 O1144 1.243 . S
C1160 C1163 1.399 . S
C1160 C1164 1.383 . S
C1160 C1167 1.496 . S
C1161 C1162 1.399 . S
C1161 C1164 1.389 . S
C1162 C1161 1.399 . S
C1162 C1165 1.380 . S
C1162 H1172 0.929 . S
C1163 C1160 1.399 . S
C1163 C1165 1.392 . S
C1163 H1173 0.929 . S
C1164 C1160 1.383 . S
C1164 C1161 1.389 . S
C1164 H1174 0.931 . S
C1165 C1162 1.380 . S
C1165 C1163 1.392 . S
C1165 H1175 0.929 . S
C1166 O1146 1.266 . S
C1166 O1147 1.248 . S
C1167 Tb1103 2.802 . S
C1167 O1142 1.264 . S
C1167 O1145 1.256 . S
C1167 C1160 1.496 . S
H1168 C1151 0.929 . S
H1169 C1152 0.929 . S
H1170 C1153 0.929 . S
H1171 C1154 0.931 . S
H1172 C1162 0.929 . S
H1173 C1163 0.929 . S
H1174 C1164 0.931 . S
H1175 C1165 0.929 . S
Tb1176 N1205 2.617 . S
Tb1176 N1211 2.572 . S
Tb1176 O1220 2.465 . S
Tb1176 O1221 2.387 . S
Tb1176 O1223 2.428 . S
Tb1176 O1224 2.308 . S
Tb1176 O1228 2.349 . S
Tb1176 O1231 2.393 . S
Tb1176 C1240 2.802 . S
C1177 N1178 1.379 . S
C1177 C1180 1.416 . S
C1177 C1184 1.424 . S
N1178 C1177 1.379 . S
N1178 C1181 1.334 . S
N1178 Tb1187 2.617 . S
C1179 C1181 1.390 . S
C1179 C1182 1.339 . S
C1179 H1199 0.930 . S
C1180 C1177 1.416 . S
C1180 C1182 1.416 . S
C1180 C1186 1.448 . S
C1181 N1178 1.334 . S
C1181 C1179 1.390 . S
C1181 H1192 0.930 . S
C1182 C1179 1.339 . S
C1182 C1180 1.416 . S
C1182 H1203 0.930 . S
C1183 C1184 1.413 . S
C1183 C1185 1.427 . S
C1183 C1189 1.416 . S
C1184 C1177 1.424 . S
C1184 C1183 1.413 . S
C1184 N1188 1.361 . S
C1185 C1183 1.427 . S
C1185 C1186 1.328 . S
C1185 H1200 0.929 . S
C1186 C1180 1.448 . S
C1186 C1185 1.328 . S
C1186 H1201 0.930 . S
Tb1187 N1178 2.617 . S
Tb1187 N1188 2.572 . S
Tb1187 O1222 2.349 . S
Tb1187 O1225 2.393 . S
Tb1187 O1226 2.465 . S
Tb1187 O1227 2.387 . S
Tb1187 O1229 2.428 . S
Tb1187 O1230 2.308 . S
Tb1187 C1251 2.802 . S
N1188 C1184 1.361 . S
N1188 Tb1187 2.572 . S
N1188 C1190 1.340 . S
C1189 C1183 1.416 . S
C1189 C1191 1.332 . S
C1189 H1197 0.931 . S
C1190 N1188 1.340 . S
C1190 C1191 1.407 . S
C1190 H1196 0.930 . S
C1191 C1189 1.332 . S
C1191 C1190 1.407 . S
C1191 H1193 0.929 . S
H1192 C1181 0.930 . S
H1193 C1191 0.929 . S
H1194 C1209 0.930 . S
H1195 C1216 0.929 . S
H1196 C1190 0.930 . S
H1197 C1189 0.931 . S
H1198 C1212 0.930 . S
H1199 C1179 0.930 . S
H1200 C1185 0.929 . S
H1201 C1186 0.930 . S
H1202 C1207 0.930 . S
H1203 C1182 0.930 . S
H1204 C1215 0.931 . S
N1205 Tb1176 2.617 . S
N1205 C1206 1.379 . S
N1205 C1209 1.334 . S
C1206 N1205 1.379 . S
C1206 C1208 1.416 . S
C1206 C1214 1.424 . S
C1207 H1202 0.930 . S
C1207 C1209 1.390 . S
C1207 C1210 1.339 . S
C1208 C1206 1.416 . S
C1208 C1210 1.416 . S
C1208 C1241 1.448 1_655 S
C1209 H1194 0.930 . S
C1209 N1205 1.334 . S
C1209 C1207 1.390 . S
C1210 C1207 1.339 . S
C1210 C1208 1.416 . S
C1210 H1217 0.930 1_655 S
N1211 Tb1176 2.572 . S
N1211 C1212 1.340 . S
N1211 C1214 1.361 . S
C1212 H1198 0.930 . S
C1212 N1211 1.340 . S
C1212 C1216 1.407 1_655 S
C1213 C1214 1.413 1_455 S
C1213 C1215 1.416 . S
C1213 C1242 1.427 . S
C1214 C1206 1.424 . S
C1214 N1211 1.361 . S
C1214 C1213 1.413 1_655 S
C1215 H1204 0.931 . S
C1215 C1213 1.416 . S
C1215 C1216 1.332 . S
C1216 H1195 0.929 . S
C1216 C1212 1.407 1_455 S
C1216 C1215 1.332 . S
H1217 C1210 0.930 1_455 S
H1218 C1241 0.930 . S
H1219 C1242 0.929 . S
O1220 Tb1176 2.465 . S
O1220 C1240 1.264 . S
O1221 Tb1176 2.387 . S
O1221 C1232 1.264 . S
O1222 Tb1187 2.349 . S
O1222 C1232 1.243 . S
O1223 Tb1176 2.428 . S
O1223 C1240 1.256 . S
O1224 Tb1176 2.308 . S
O1224 C1239 1.266 . S
O1225 Tb1187 2.393 . S
O1225 C1239 1.248 . S
O1226 Tb1187 2.465 . S
O1226 C1251 1.264 . S
O1227 Tb1187 2.387 . S
O1227 C1243 1.264 . S
O1228 Tb1176 2.349 . S
O1228 C1243 1.243 . S
O1229 Tb1187 2.428 . S
O1229 C1251 1.256 . S
O1230 Tb1187 2.308 . S
O1230 C1250 1.266 . S
O1231 Tb1176 2.393 . S
O1231 C1250 1.248 . S
C1232 O1221 1.264 . S
C1232 O1222 1.243 . S
C1233 C1236 1.399 . S
C1233 C1238 1.383 . S
C1233 C1240 1.496 . S
C1234 C1235 1.399 . S
C1234 C1238 1.389 . S
C1235 C1234 1.399 . S
C1235 C1237 1.380 . S
C1235 H1252 0.929 . S
C1236 C1233 1.399 . S
C1236 C1237 1.392 . S
C1236 H1253 0.929 . S
C1237 C1235 1.380 . S
C1237 C1236 1.392 . S
C1237 H1254 0.929 . S
C1238 C1233 1.383 . S
C1238 C1234 1.389 . S
C1238 H1255 0.931 . S
C1239 O1224 1.266 . S
C1239 O1225 1.248 . S
C1240 Tb1176 2.802 . S
C1240 O1220 1.264 . S
C1240 O1223 1.256 . S
C1240 C1233 1.496 . S
C1241 C1208 1.448 1_455 S
C1241 H1218 0.930 . S
C1241 C1242 1.328 . S
C1242 C1213 1.427 . S
C1242 H1219 0.929 . S
C1242 C1241 1.328 . S
C1243 O1227 1.264 . S
C1243 O1228 1.243 . S
C1244 C1247 1.399 . S
C1244 C1248 1.383 . S
C1244 C1251 1.496 . S
C1245 C1246 1.409 . S
C1245 C1248 1.366 1_565 S
C1246 C1245 1.409 . S
C1246 C1249 1.380 1_565 S
C1246 H1256 0.929 . S
C1247 C1244 1.399 . S
C1247 C1249 1.392 . S
C1247 H1257 0.929 . S
C1248 C1244 1.383 . S
C1248 C1245 1.366 1_545 S
C1248 H1258 0.931 . S
C1249 C1246 1.380 1_545 S
C1249 C1247 1.392 . S
C1249 H1259 0.916 1_545 S
C1250 O1230 1.266 . S
C1250 O1231 1.248 . S
C1251 Tb1187 2.802 . S
C1251 O1226 1.264 . S
C1251 O1229 1.256 . S
C1251 C1244 1.496 . S
H1252 C1235 0.929 . S
H1253 C1236 0.929 . S
H1254 C1237 0.929 . S
H1255 C1238 0.931 . S
H1256 C1246 0.929 . S
H1257 C1247 0.929 . S
H1258 C1248 0.931 . S
H1259 C1249 0.916 1_565 S
Tb1260 N1289 2.617 . S
Tb1260 N1295 2.572 . S
Tb1260 O1304 2.465 . S
Tb1260 O1305 2.387 . S
Tb1260 O1307 2.428 . S
Tb1260 O1308 2.308 . S
Tb1260 O1312 2.349 . S
Tb1260 O1315 2.393 . S
Tb1260 C1324 2.802 . S
C1261 N1262 1.379 . S
C1261 C1264 1.416 . S
C1261 C1268 1.424 . S
N1262 C1261 1.379 . S
N1262 C1265 1.334 . S
N1262 Tb1271 2.617 . S
C1263 C1265 1.390 . S
C1263 C1266 1.339 . S
C1263 H1283 0.930 . S
C1264 C1261 1.416 . S
C1264 C1266 1.416 . S
C1264 C1270 1.448 . S
C1265 N1262 1.334 . S
C1265 C1263 1.390 . S
C1265 H1276 0.930 . S
C1266 C1263 1.339 . S
C1266 C1264 1.416 . S
C1266 H1287 0.930 . S
C1267 C1268 1.413 . S
C1267 C1269 1.427 . S
C1267 C1273 1.416 . S
C1268 C1261 1.424 . S
C1268 C1267 1.413 . S
C1268 N1272 1.361 . S
C1269 C1267 1.427 . S
C1269 C1270 1.328 . S
C1269 H1284 0.929 . S
C1270 C1264 1.448 . S
C1270 C1269 1.328 . S
C1270 H1285 0.930 . S
Tb1271 N1262 2.617 . S
Tb1271 N1272 2.572 . S
Tb1271 O1306 2.349 . S
Tb1271 O1309 2.393 . S
Tb1271 O1310 2.465 . S
Tb1271 O1311 2.387 . S
Tb1271 O1313 2.428 . S
Tb1271 O1314 2.308 . S
Tb1271 C1335 2.802 . S
N1272 C1268 1.361 . S
N1272 Tb1271 2.572 . S
N1272 C1274 1.340 . S
C1273 C1267 1.416 . S
C1273 C1275 1.332 . S
C1273 H1281 0.931 . S
C1274 N1272 1.340 . S
C1274 C1275 1.407 . S
C1274 H1280 0.930 . S
C1275 C1273 1.332 . S
C1275 C1274 1.407 . S
C1275 H1277 0.929 . S
H1276 C1265 0.930 . S
H1277 C1275 0.929 . S
H1278 C1293 0.930 . S
H1279 C1300 0.929 . S
H1280 C1274 0.930 . S
H1281 C1273 0.931 . S
H1282 C1296 0.930 . S
H1283 C1263 0.930 . S
H1284 C1269 0.929 . S
H1285 C1270 0.930 . S
H1286 C1291 0.930 . S
H1287 C1266 0.930 . S
H1288 C1299 0.931 1_565 S
N1289 Tb1260 2.617 . S
N1289 C1290 1.379 . S
N1289 C1293 1.334 . S
C1290 N1289 1.379 . S
C1290 C1292 1.416 . S
C1290 C1298 1.424 . S
C1291 H1286 0.930 . S
C1291 C1293 1.390 . S
C1291 C1294 1.339 . S
C1292 C1290 1.416 . S
C1292 C1294 1.416 . S
C1292 C1325 1.448 . S
C1293 H1278 0.930 . S
C1293 N1289 1.334 . S
C1293 C1291 1.390 . S
C1294 C1291 1.339 . S
C1294 C1292 1.416 . S
C1294 H1301 0.930 . S
N1295 Tb1260 2.572 . S
N1295 C1296 1.340 . S
N1295 C1298 1.361 . S
C1296 H1282 0.930 . S
C1296 N1295 1.340 . S
C1296 C1300 1.407 . S
C1297 C1298 1.413 . S
C1297 C1299 1.416 . S
C1297 C1326 1.427 . S
C1298 C1290 1.424 . S
C1298 N1295 1.361 . S
C1298 C1297 1.413 . S
C1299 H1288 0.931 1_545 S
C1299 C1297 1.416 . S
C1299 C1300 1.332 . S
C1300 H1279 0.929 . S
C1300 C1296 1.407 . S
C1300 C1299 1.332 . S
H1301 C1294 0.930 . S
H1302 C1325 0.930 . S
H1303 C1326 0.929 1_565 S
O1304 Tb1260 2.465 . S
O1304 C1324 1.264 . S
O1305 Tb1260 2.387 . S
O1305 C1316 1.264 . S
O1306 Tb1271 2.349 . S
O1306 C1316 1.243 . S
O1307 Tb1260 2.428 . S
O1307 C1324 1.256 . S
O1308 Tb1260 2.308 . S
O1308 C1323 1.266 . S
O1309 Tb1271 2.393 . S
O1309 C1323 1.248 . S
O1310 Tb1271 2.465 . S
O1310 C1335 1.264 . S
O1311 Tb1271 2.387 . S
O1311 C1327 1.264 . S
O1312 Tb1260 2.349 . S
O1312 C1327 1.243 . S
O1313 Tb1271 2.428 . S
O1313 C1335 1.256 . S
O1314 Tb1271 2.308 . S
O1314 C1334 1.266 . S
O1315 Tb1260 2.393 . S
O1315 C1334 1.248 . S
C1316 O1305 1.264 . S
C1316 O1306 1.243 . S
C1317 C1320 1.399 . S
C1317 C1322 1.383 1_545 S
C1317 C1324 1.496 . S
C1318 C1319 1.399 . S
C1318 C1322 1.389 . S
C1319 C1318 1.399 . S
C1319 C1321 1.380 . S
C1319 H1336 0.929 . S
C1320 C1317 1.399 . S
C1320 C1321 1.392 1_545 S
C1320 H1337 0.929 . S
C1321 C1319 1.380 . S
C1321 C1320 1.392 1_565 S
C1321 H1338 0.929 . S
C1322 C1317 1.383 1_565 S
C1322 C1318 1.389 . S
C1322 H1339 0.931 1_565 S
C1323 O1308 1.266 . S
C1323 O1309 1.248 . S
C1324 Tb1260 2.802 . S
C1324 O1304 1.264 . S
C1324 O1307 1.256 . S
C1324 C1317 1.496 . S
C1325 C1292 1.448 . S
C1325 H1302 0.930 . S
C1325 C1326 1.328 . S
C1326 C1297 1.427 . S
C1326 H1303 0.929 1_545 S
C1326 C1325 1.328 . S
C1327 O1311 1.264 . S
C1327 O1312 1.243 . S
C1328 C1331 1.399 . S
C1328 C1332 1.383 . S
C1328 C1335 1.496 . S
C1329 C1330 1.399 . S
C1329 C1332 1.389 . S
C1330 C1329 1.399 . S
C1330 C1333 1.380 . S
C1330 H1340 0.929 . S
C1331 C1328 1.399 . S
C1331 C1333 1.392 . S
C1331 H1341 0.929 . S
C1332 C1328 1.383 . S
C1332 C1329 1.389 . S
C1332 H1342 0.931 . S
C1333 C1330 1.380 . S
C1333 C1331 1.392 . S
C1333 H1343 0.929 . S
C1334 O1314 1.266 . S
C1334 O1315 1.248 . S
C1335 Tb1271 2.802 . S
C1335 O1310 1.264 . S
C1335 O1313 1.256 . S
C1335 C1328 1.496 . S
H1336 C1319 0.929 . S
H1337 C1320 0.929 . S
H1338 C1321 0.929 . S
H1339 C1322 0.931 1_545 S
H1340 C1330 0.929 . S
H1341 C1331 0.929 . S
H1342 C1332 0.931 . S
H1343 C1333 0.929 . S
Tb1344 N1373 2.617 . S
Tb1344 N1379 2.572 . S
Tb1344 O1388 2.465 . S
Tb1344 O1389 2.387 . S
Tb1344 O1391 2.428 . S
Tb1344 O1392 2.308 . S
Tb1344 O1396 2.349 . S
Tb1344 O1399 2.393 . S
Tb1344 C1408 2.802 . S
C1345 N1346 1.379 . S
C1345 C1348 1.416 . S
C1345 C1352 1.424 . S
N1346 C1345 1.379 . S
N1346 C1349 1.334 . S
N1346 Tb1355 2.617 . S
C1347 C1349 1.390 . S
C1347 C1350 1.339 . S
C1347 H1367 0.930 . S
C1348 C1345 1.416 . S
C1348 C1350 1.416 . S
C1348 C1354 1.448 . S
C1349 N1346 1.334 . S
C1349 C1347 1.390 . S
C1349 H1360 0.930 . S
C1350 C1347 1.339 . S
C1350 C1348 1.416 . S
C1350 H1371 0.930 . S
C1351 C1352 1.413 . S
C1351 C1353 1.427 . S
C1351 C1357 1.416 . S
C1352 C1345 1.424 . S
C1352 C1351 1.413 . S
C1352 N1356 1.361 . S
C1353 C1351 1.427 . S
C1353 C1354 1.328 . S
C1353 H1368 0.929 1_545 S
C1354 C1348 1.448 . S
C1354 C1353 1.328 . S
C1354 H1369 0.930 1_545 S
Tb1355 N1346 2.617 . S
Tb1355 N1356 2.572 . S
Tb1355 O1390 2.349 . S
Tb1355 O1393 2.393 . S
Tb1355 O1394 2.465 . S
Tb1355 O1395 2.387 . S
Tb1355 O1397 2.428 . S
Tb1355 O1398 2.308 . S
Tb1355 C1419 2.802 . S
N1356 C1352 1.361 . S
N1356 Tb1355 2.572 . S
N1356 C1358 1.340 . S
C1357 C1351 1.416 . S
C1357 C1359 1.332 . S
C1357 H1365 0.931 1_545 S
C1358 N1356 1.340 . S
C1358 C1359 1.407 . S
C1358 H1364 0.930 . S
C1359 C1357 1.332 . S
C1359 C1358 1.407 . S
C1359 H1361 0.929 . S
H1360 C1349 0.930 . S
H1361 C1359 0.929 . S
H1362 C1377 0.930 . S
H1363 C1384 0.929 . S
H1364 C1358 0.930 . S
H1365 C1357 0.931 1_565 S
H1366 C1380 0.930 . S
H1367 C1347 0.930 . S
H1368 C1353 0.929 1_565 S
H1369 C1354 0.930 1_565 S
H1370 C1375 0.930 . S
H1371 C1350 0.930 . S
H1372 C1383 0.931 . S
N1373 Tb1344 2.617 . S
N1373 C1374 1.379 . S
N1373 C1377 1.334 . S
C1374 N1373 1.379 . S
C1374 C1376 1.416 . S
C1374 C1382 1.424 . S
C1375 H1370 0.930 . S
C1375 C1377 1.390 . S
C1375 C1378 1.339 . S
C1376 C1374 1.416 . S
C1376 C1378 1.416 . S
C1376 C1409 1.448 1_655 S
C1377 H1362 0.930 . S
C1377 N1373 1.334 . S
C1377 C1375 1.390 . S
C1378 C1375 1.339 . S
C1378 C1376 1.416 . S
C1378 H1385 0.930 . S
N1379 Tb1344 2.572 . S
N1379 C1380 1.340 . S
N1379 C1382 1.361 . S
C1380 H1366 0.930 . S
C1380 N1379 1.340 . S
C1380 C1384 1.407 1_655 S
C1381 C1382 1.413 1_455 S
C1381 C1383 1.416 . S
C1381 C1410 1.427 . S
C1382 C1374 1.424 . S
C1382 N1379 1.361 . S
C1382 C1381 1.413 1_655 S
C1383 H1372 0.931 . S
C1383 C1381 1.416 . S
C1383 C1384 1.332 . S
C1384 H1363 0.929 . S
C1384 C1380 1.407 1_455 S
C1384 C1383 1.332 . S
H1385 C1378 0.930 . S
H1386 C1409 0.930 . S
H1387 C1410 0.929 . S
O1388 Tb1344 2.465 . S
O1388 C1408 1.264 . S
O1389 Tb1344 2.387 . S
O1389 C1400 1.264 . S
O1390 Tb1355 2.349 . S
O1390 C1400 1.243 . S
O1391 Tb1344 2.428 . S
O1391 C1408 1.256 . S
O1392 Tb1344 2.308 . S
O1392 C1407 1.266 . S
O1393 Tb1355 2.393 . S
O1393 C1407 1.248 . S
O1394 Tb1355 2.465 . S
O1394 C1419 1.264 . S
O1395 Tb1355 2.387 . S
O1395 C1411 1.264 . S
O1396 Tb1344 2.349 . S
O1396 C1411 1.243 . S
O1397 Tb1355 2.428 . S
O1397 C1419 1.256 . S
O1398 Tb1355 2.308 . S
O1398 C1418 1.266 . S
O1399 Tb1344 2.393 . S
O1399 C1418 1.248 . S
C1400 O1389 1.264 . S
C1400 O1390 1.243 . S
C1401 C1404 1.399 . S
C1401 C1406 1.383 . S
C1401 C1408 1.496 1_455 S
C1402 C1403 1.399 . S
C1402 C1406 1.389 . S
C1403 C1402 1.399 . S
C1403 C1405 1.380 . S
C1403 H1420 0.929 . S
C1404 C1401 1.399 . S
C1404 C1405 1.392 . S
C1404 H1421 0.929 . S
C1405 C1403 1.380 . S
C1405 C1404 1.392 . S
C1405 H1422 0.929 . S
C1406 C1401 1.383 . S
C1406 C1402 1.389 . S
C1406 H1423 0.931 . S
C1407 O1392 1.266 . S
C1407 O1393 1.248 . S
C1408 Tb1344 2.802 . S
C1408 O1388 1.264 . S
C1408 O1391 1.256 . S
C1408 C1401 1.496 1_655 S
C1409 C1376 1.448 1_455 S
C1409 H1386 0.930 . S
C1409 C1410 1.328 . S
C1410 C1381 1.427 . S
C1410 H1387 0.929 . S
C1410 C1409 1.328 . S
C1411 O1395 1.264 . S
C1411 O1396 1.243 . S
C1412 C1415 1.399 . S
C1412 C1416 1.383 . S
C1412 C1419 1.496 . S
C1413 C1414 1.399 . S
C1413 C1416 1.389 . S
C1414 C1413 1.399 . S
C1414 C1417 1.380 . S
C1414 H1424 0.929 . S
C1415 C1412 1.399 . S
C1415 C1417 1.392 . S
C1415 H1425 0.929 . S
C1416 C1412 1.383 . S
C1416 C1413 1.389 . S
C1416 H1426 0.931 . S
C1417 C1414 1.380 . S
C1417 C1415 1.392 . S
C1417 H1427 0.929 . S
C1418 O1398 1.266 . S
C1418 O1399 1.248 . S
C1419 Tb1355 2.802 . S
C1419 O1394 1.264 . S
C1419 O1397 1.256 . S
C1419 C1412 1.496 . S
H1420 C1403 0.929 . S
H1421 C1404 0.929 . S
H1422 C1405 0.929 . S
H1423 C1406 0.931 . S
H1424 C1414 0.929 . S
H1425 C1415 0.929 . S
H1426 C1416 0.931 . S
H1427 C1417 0.929 . S
Tb1428 N1457 2.617 . S
Tb1428 N1463 2.572 . S
Tb1428 O1472 2.465 . S
Tb1428 O1473 2.387 . S
Tb1428 O1475 2.428 . S
Tb1428 O1476 2.308 . S
Tb1428 O1480 2.349 . S
Tb1428 O1483 2.393 . S
Tb1428 C1492 2.802 . S
C1429 N1430 1.379 . S
C1429 C1432 1.416 . S
C1429 C1436 1.424 . S
N1430 C1429 1.379 . S
N1430 C1433 1.334 . S
N1430 Tb1439 2.617 . S
C1431 C1433 1.390 . S
C1431 C1434 1.339 . S
C1431 H1451 0.930 . S
C1432 C1429 1.416 . S
C1432 C1434 1.416 . S
C1432 C1438 1.448 1_655 S
C1433 N1430 1.334 . S
C1433 C1431 1.390 . S
C1433 H1444 0.930 . S
C1434 C1431 1.339 . S
C1434 C1432 1.416 . S
C1434 H1455 0.930 . S
C1435 C1436 1.413 1_455 S
C1435 C1437 1.427 . S
C1435 C1441 1.416 . S
C1436 C1429 1.424 . S
C1436 C1435 1.413 1_655 S
C1436 N1440 1.361 . S
C1437 C1435 1.427 . S
C1437 C1438 1.328 . S
C1437 H1452 0.929 . S
C1438 C1432 1.448 1_455 S
C1438 C1437 1.328 . S
C1438 H1453 0.930 . S
Tb1439 N1430 2.617 . S
Tb1439 N1440 2.572 . S
Tb1439 O1474 2.349 . S
Tb1439 O1477 2.393 . S
Tb1439 O1478 2.465 . S
Tb1439 O1479 2.387 . S
Tb1439 O1481 2.428 . S
Tb1439 O1482 2.308 . S
Tb1439 C1503 2.802 . S
N1440 C1436 1.361 . S
N1440 Tb1439 2.572 . S
N1440 C1442 1.340 . S
C1441 C1435 1.416 . S
C1441 C1443 1.332 1_455 S
C1441 H1449 0.931 . S
C1442 N1440 1.340 . S
C1442 C1443 1.407 . S
C1442 H1448 0.930 . S
C1443 C1441 1.332 1_655 S
C1443 C1442 1.407 . S
C1443 H1445 0.930 . S
H1444 C1433 0.930 . S
H1445 C1443 0.930 . S
H1446 C1461 0.930 . S
H1447 C1468 0.929 . S
H1448 C1442 0.930 . S
H1449 C1441 0.931 . S
H1450 C1464 0.930 . S
H1451 C1431 0.930 . S
H1452 C1437 0.929 . S
H1453 C1438 0.930 . S
H1454 C1459 0.930 . S
H1455 C1434 0.930 . S
H1456 C1467 0.931 . S
N1457 Tb1428 2.617 . S
N1457 C1458 1.379 . S
N1457 C1461 1.334 . S
C1458 N1457 1.379 . S
C1458 C1460 1.416 . S
C1458 C1466 1.424 . S
C1459 H1454 0.930 . S
C1459 C1461 1.390 . S
C1459 C1462 1.339 . S
C1460 C1458 1.416 . S
C1460 C1462 1.416 . S
C1460 C1493 1.448 . S
C1461 H1446 0.930 . S
C1461 N1457 1.334 . S
C1461 C1459 1.390 . S
C1462 C1459 1.339 . S
C1462 C1460 1.416 . S
C1462 H1469 0.930 . S
N1463 Tb1428 2.572 . S
N1463 C1464 1.340 . S
N1463 C1466 1.361 . S
C1464 H1450 0.930 . S
C1464 N1463 1.340 . S
C1464 C1468 1.407 . S
C1465 C1466 1.413 . S
C1465 C1467 1.416 . S
C1465 C1494 1.427 . S
C1466 C1458 1.424 . S
C1466 N1463 1.361 . S
C1466 C1465 1.413 . S
C1467 H1456 0.931 . S
C1467 C1465 1.416 . S
C1467 C1468 1.332 . S
C1468 H1447 0.929 . S
C1468 C1464 1.407 . S
C1468 C1467 1.332 . S
H1469 C1462 0.930 . S
H1470 C1493 0.930 . S
H1471 C1494 0.929 . S
O1472 Tb1428 2.465 . S
O1472 C1492 1.264 . S
O1473 Tb1428 2.387 . S
O1473 C1484 1.264 . S
O1474 Tb1439 2.349 . S
O1474 C1484 1.243 . S
O1475 Tb1428 2.428 . S
O1475 C1492 1.256 . S
O1476 Tb1428 2.308 . S
O1476 C1491 1.266 . S
O1477 Tb1439 2.393 . S
O1477 C1491 1.248 . S
O1478 Tb1439 2.465 . S
O1478 C1503 1.264 . S
O1479 Tb1439 2.387 . S
O1479 C1495 1.264 . S
O1480 Tb1428 2.349 . S
O1480 C1495 1.243 . S
O1481 Tb1439 2.428 . S
O1481 C1503 1.256 . S
O1482 Tb1439 2.308 . S
O1482 C1502 1.266 . S
O1483 Tb1428 2.393 . S
O1483 C1502 1.248 . S
C1484 O1473 1.264 . S
C1484 O1474 1.243 . S
C1485 C1488 1.399 . S
C1485 C1490 1.383 . S
C1485 C1492 1.496 . S
C1486 C1487 1.399 . S
C1486 C1490 1.389 . S
C1487 C1486 1.399 . S
C1487 C1489 1.380 . S
C1487 H1504 0.929 . S
C1488 C1485 1.399 . S
C1488 C1489 1.392 . S
C1488 H1505 0.929 . S
C1489 C1487 1.380 . S
C1489 C1488 1.392 . S
C1489 H1506 0.929 . S
C1490 C1485 1.383 . S
C1490 C1486 1.389 . S
C1490 H1507 0.931 . S
C1491 O1476 1.266 . S
C1491 O1477 1.248 . S
C1492 Tb1428 2.802 . S
C1492 O1472 1.264 . S
C1492 O1475 1.256 . S
C1492 C1485 1.496 . S
C1493 C1460 1.448 . S
C1493 H1470 0.930 . S
C1493 C1494 1.328 . S
C1494 C1465 1.427 . S
C1494 H1471 0.929 . S
C1494 C1493 1.328 . S
C1495 O1479 1.264 . S
C1495 O1480 1.243 . S
C1496 C1499 1.399 . S
C1496 C1500 1.383 . S
C1496 C1503 1.496 . S
C1497 C1498 1.399 . S
C1497 C1500 1.389 . S
C1498 C1497 1.399 . S
C1498 C1501 1.380 . S
C1498 H1508 0.929 . S
C1499 C1496 1.399 . S
C1499 C1501 1.392 . S
C1499 H1509 0.929 . S
C1500 C1496 1.383 . S
C1500 C1497 1.389 . S
C1500 H1510 0.931 . S
C1501 C1498 1.380 . S
C1501 C1499 1.392 . S
C1501 H1511 0.929 . S
C1502 O1482 1.266 . S
C1502 O1483 1.248 . S
C1503 Tb1439 2.802 . S
C1503 O1478 1.264 . S
C1503 O1481 1.256 . S
C1503 C1496 1.496 . S
H1504 C1487 0.929 . S
H1505 C1488 0.929 . S
H1506 C1489 0.929 . S
H1507 C1490 0.931 . S
H1508 C1498 0.929 . S
H1509 C1499 0.929 . S
H1510 C1500 0.931 . S
H1511 C1501 0.929 . S
C1512 C1513 1.391 . S
C1512 C1514 1.394 . S
C1512 H1528 0.931 . S
C1513 C1512 1.391 . S
C1513 C1517 1.376 . S
C1514 C1512 1.394 . S
C1514 C1515 1.369 . S
C1514 C1518 1.531 . S
C1515 C1514 1.369 . S
C1515 C1516 1.410 . S
C1515 C1523 1.503 . S
C1516 C1515 1.410 . S
C1516 C1517 1.392 . S
C1516 C1519 1.511 . S
C1517 C1513 1.376 . S
C1517 C1516 1.392 . S
C1517 H1529 0.929 . S
C1518 C1514 1.531 . S
C1518 H1530 0.960 . S
C1518 H1531 0.962 . S
C1518 H1532 0.960 . S
C1519 C1516 1.511 . S
C1519 H1533 0.961 . S
C1519 H1534 0.961 . S
C1519 H1535 0.961 . S
C1520 C1521 1.370 . S
C1520 C1522 1.363 . S
C1520 H1536 0.931 . S
C1521 C1520 1.370 . S
C1521 C1525 1.408 . S
C1522 C1520 1.363 . S
C1522 C1523 1.370 . S
C1522 C1526 1.524 . S
C1523 C1515 1.503 . S
C1523 C1522 1.370 . S
C1523 C1524 1.403 . S
C1524 C1523 1.403 . S
C1524 C1525 1.404 . S
C1524 C1527 1.539 . S
C1525 C1521 1.408 . S
C1525 C1524 1.404 . S
C1525 H1537 0.930 . S
C1526 C1522 1.524 . S
C1526 H1538 0.956 . S
C1526 H1539 0.961 . S
C1526 H1540 0.961 . S
C1527 C1524 1.539 . S
C1527 H1541 0.958 . S
C1527 H1542 0.961 . S
C1527 H1543 0.960 . S
H1528 C1512 0.931 . S
H1529 C1517 0.929 . S
H1530 C1518 0.960 . S
H1531 C1518 0.962 . S
H1532 C1518 0.960 . S
H1533 C1519 0.961 . S
H1534 C1519 0.961 . S
H1535 C1519 0.961 . S
H1536 C1520 0.931 . S
H1537 C1525 0.930 . S
H1538 C1526 0.956 . S
H1539 C1526 0.961 . S
H1540 C1526 0.961 . S
H1541 C1527 0.958 . S
H1542 C1527 0.961 . S
H1543 C1527 0.960 . S
C1544 C1545 1.391 . S
C1544 C1546 1.394 . S
C1544 H1560 0.931 . S
C1545 C1544 1.391 . S
C1545 C1549 1.376 . S
C1546 C1544 1.394 . S
C1546 C1547 1.369 . S
C1546 C1550 1.531 . S
C1547 C1546 1.369 . S
C1547 C1548 1.410 . S
C1547 C1555 1.503 . S
C1548 C1547 1.410 . S
C1548 C1549 1.392 . S
C1548 C1551 1.511 . S
C1549 C1545 1.376 . S
C1549 C1548 1.392 . S
C1549 H1561 0.929 . S
C1550 C1546 1.531 . S
C1550 H1562 0.960 . S
C1550 H1563 0.962 . S
C1550 H1564 0.960 . S
C1551 C1548 1.511 . S
C1551 H1565 0.961 . S
C1551 H1566 0.961 . S
C1551 H1567 0.961 . S
C1552 C1553 1.370 . S
C1552 C1554 1.363 . S
C1552 H1568 0.931 . S
C1553 C1552 1.370 . S
C1553 C1557 1.408 . S
C1554 C1552 1.363 . S
C1554 C1555 1.370 . S
C1554 C1558 1.524 . S
C1555 C1547 1.503 . S
C1555 C1554 1.370 . S
C1555 C1556 1.403 . S
C1556 C1555 1.403 . S
C1556 C1557 1.404 . S
C1556 C1559 1.539 . S
C1557 C1553 1.408 . S
C1557 C1556 1.404 . S
C1557 H1569 0.930 . S
C1558 C1554 1.524 . S
C1558 H1570 0.956 . S
C1558 H1571 0.961 . S
C1558 H1572 0.961 . S
C1559 C1556 1.539 . S
C1559 H1573 0.958 . S
C1559 H1574 0.961 . S
C1559 H1575 0.960 . S
H1560 C1544 0.931 . S
H1561 C1549 0.929 . S
H1562 C1550 0.960 . S
H1563 C1550 0.962 . S
H1564 C1550 0.960 . S
H1565 C1551 0.961 . S
H1566 C1551 0.961 . S
H1567 C1551 0.961 . S
H1568 C1552 0.931 . S
H1569 C1557 0.930 . S
H1570 C1558 0.956 . S
H1571 C1558 0.961 . S
H1572 C1558 0.961 . S
H1573 C1559 0.958 . S
H1574 C1559 0.961 . S
H1575 C1559 0.960 . S
C1576 C1577 1.391 . S
C1576 C1578 1.394 . S
C1576 H1592 0.931 . S
C1577 C1576 1.391 . S
C1577 C1581 1.376 . S
C1578 C1576 1.394 . S
C1578 C1579 1.369 . S
C1578 C1582 1.531 . S
C1579 C1578 1.369 . S
C1579 C1580 1.410 . S
C1579 C1587 1.503 . S
C1580 C1579 1.410 . S
C1580 C1581 1.392 . S
C1580 C1583 1.511 . S
C1581 C1577 1.376 . S
C1581 C1580 1.392 . S
C1581 H1593 0.929 . S
C1582 C1578 1.531 . S
C1582 H1594 0.960 . S
C1582 H1595 0.962 . S
C1582 H1596 0.960 . S
C1583 C1580 1.511 . S
C1583 H1597 0.961 . S
C1583 H1598 0.961 . S
C1583 H1599 0.961 . S
C1584 C1585 1.370 . S
C1584 C1586 1.363 . S
C1584 H1600 0.931 . S
C1585 C1584 1.370 . S
C1585 C1589 1.408 . S
C1586 C1584 1.363 . S
C1586 C1587 1.370 . S
C1586 C1590 1.524 . S
C1587 C1579 1.503 . S
C1587 C1586 1.370 . S
C1587 C1588 1.403 . S
C1588 C1587 1.403 . S
C1588 C1589 1.404 . S
C1588 C1591 1.539 . S
C1589 C1585 1.408 . S
C1589 C1588 1.404 . S
C1589 H1601 0.930 . S
C1590 C1586 1.524 . S
C1590 H1602 0.956 . S
C1590 H1603 0.961 . S
C1590 H1604 0.961 . S
C1591 C1588 1.539 . S
C1591 H1605 0.958 . S
C1591 H1606 0.961 . S
C1591 H1607 0.960 . S
H1592 C1576 0.931 . S
H1593 C1581 0.929 . S
H1594 C1582 0.960 . S
H1595 C1582 0.962 . S
H1596 C1582 0.960 . S
H1597 C1583 0.961 . S
H1598 C1583 0.961 . S
H1599 C1583 0.961 . S
H1600 C1584 0.931 . S
H1601 C1589 0.930 . S
H1602 C1590 0.956 . S
H1603 C1590 0.961 . S
H1604 C1590 0.961 . S
H1605 C1591 0.958 . S
H1606 C1591 0.961 . S
H1607 C1591 0.960 . S
C1608 C1609 1.391 . S
C1608 C1610 1.394 . S
C1608 H1624 0.931 . S
C1609 C1608 1.391 . S
C1609 C1613 1.376 . S
C1610 C1608 1.394 . S
C1610 C1611 1.369 . S
C1610 C1614 1.531 . S
C1611 C1610 1.369 . S
C1611 C1612 1.410 . S
C1611 C1619 1.503 . S
C1612 C1611 1.410 . S
C1612 C1613 1.392 . S
C1612 C1615 1.511 . S
C1613 C1609 1.376 . S
C1613 C1612 1.392 . S
C1613 H1625 0.929 . S
C1614 C1610 1.531 . S
C1614 H1626 0.960 . S
C1614 H1627 0.962 . S
C1614 H1628 0.960 . S
C1615 C1612 1.511 . S
C1615 H1629 0.961 . S
C1615 H1630 0.961 . S
C1615 H1631 0.961 . S
C1616 C1617 1.370 . S
C1616 C1618 1.363 . S
C1616 H1632 0.931 . S
C1617 C1616 1.370 . S
C1617 C1621 1.408 . S
C1618 C1616 1.363 . S
C1618 C1619 1.370 . S
C1618 C1622 1.524 . S
C1619 C1611 1.503 . S
C1619 C1618 1.370 . S
C1619 C1620 1.403 . S
C1620 C1619 1.403 . S
C1620 C1621 1.404 . S
C1620 C1623 1.539 . S
C1621 C1617 1.408 . S
C1621 C1620 1.404 . S
C1621 H1633 0.930 . S
C1622 C1618 1.524 . S
C1622 H1634 0.956 . S
C1622 H1635 0.961 . S
C1622 H1636 0.961 . S
C1623 C1620 1.539 . S
C1623 H1637 0.958 . S
C1623 H1638 0.961 . S
C1623 H1639 0.960 . S
H1624 C1608 0.931 . S
H1625 C1613 0.929 . S
H1626 C1614 0.960 . S
H1627 C1614 0.962 . S
H1628 C1614 0.960 . S
H1629 C1615 0.961 . S
H1630 C1615 0.961 . S
H1631 C1615 0.961 . S
H1632 C1616 0.931 . S
H1633 C1621 0.930 . S
H1634 C1622 0.956 . S
H1635 C1622 0.961 . S
H1636 C1622 0.961 . S
H1637 C1623 0.958 . S
H1638 C1623 0.961 . S
H1639 C1623 0.960 . S
C1640 C1641 1.391 . S
C1640 C1642 1.394 . S
C1640 H1656 0.931 . S
C1641 C1640 1.391 . S
C1641 C1645 1.376 . S
C1642 C1640 1.394 . S
C1642 C1643 1.369 . S
C1642 C1646 1.531 . S
C1643 C1642 1.369 . S
C1643 C1644 1.410 . S
C1643 C1651 1.503 . S
C1644 C1643 1.410 . S
C1644 C1645 1.392 . S
C1644 C1647 1.511 . S
C1645 C1641 1.376 . S
C1645 C1644 1.392 . S
C1645 H1657 0.929 . S
C1646 C1642 1.531 . S
C1646 H1658 0.960 . S
C1646 H1659 0.962 . S
C1646 H1660 0.960 . S
C1647 C1644 1.511 . S
C1647 H1661 0.961 . S
C1647 H1662 0.961 . S
C1647 H1663 0.961 . S
C1648 C1649 1.370 . S
C1648 C1650 1.363 . S
C1648 H1664 0.931 . S
C1649 C1648 1.370 . S
C1649 C1653 1.408 . S
C1650 C1648 1.363 . S
C1650 C1651 1.370 . S
C1650 C1654 1.524 . S
C1651 C1643 1.503 . S
C1651 C1650 1.370 . S
C1651 C1652 1.403 . S
C1652 C1651 1.403 . S
C1652 C1653 1.404 . S
C1652 C1655 1.539 . S
C1653 C1649 1.408 . S
C1653 C1652 1.404 . S
C1653 H1665 0.930 . S
C1654 C1650 1.524 . S
C1654 H1666 0.956 . S
C1654 H1667 0.961 . S
C1654 H1668 0.961 . S
C1655 C1652 1.539 . S
C1655 H1669 0.958 . S
C1655 H1670 0.961 . S
C1655 H1671 0.960 . S
H1656 C1640 0.931 . S
H1657 C1645 0.929 . S
H1658 C1646 0.960 . S
H1659 C1646 0.962 . S
H1660 C1646 0.960 . S
H1661 C1647 0.961 . S
H1662 C1647 0.961 . S
H1663 C1647 0.961 . S
H1664 C1648 0.931 . S
H1665 C1653 0.930 . S
H1666 C1654 0.956 . S
H1667 C1654 0.961 . S
H1668 C1654 0.961 . S
H1669 C1655 0.958 . S
H1670 C1655 0.961 . S
H1671 C1655 0.960 . S
C1672 C1673 1.391 . S
C1672 C1674 1.394 . S
C1672 H1688 0.931 . S
C1673 C1672 1.391 . S
C1673 C1677 1.376 . S
C1674 C1672 1.394 . S
C1674 C1675 1.369 . S
C1674 C1678 1.531 . S
C1675 C1674 1.369 . S
C1675 C1676 1.410 . S
C1675 C1683 1.503 . S
C1676 C1675 1.410 . S
C1676 C1677 1.392 . S
C1676 C1679 1.511 . S
C1677 C1673 1.376 . S
C1677 C1676 1.392 . S
C1677 H1689 0.929 . S
C1678 C1674 1.531 . S
C1678 H1690 0.960 . S
C1678 H1691 0.962 . S
C1678 H1692 0.960 . S
C1679 C1676 1.511 . S
C1679 H1693 0.961 . S
C1679 H1694 0.961 . S
C1679 H1695 0.961 . S
C1680 C1681 1.370 . S
C1680 C1682 1.363 . S
C1680 H1696 0.931 . S
C1681 C1680 1.370 . S
C1681 C1685 1.408 . S
C1682 C1680 1.363 . S
C1682 C1683 1.370 . S
C1682 C1686 1.524 . S
C1683 C1675 1.503 . S
C1683 C1682 1.370 . S
C1683 C1684 1.403 . S
C1684 C1683 1.403 . S
C1684 C1685 1.404 . S
C1684 C1687 1.539 . S
C1685 C1681 1.408 . S
C1685 C1684 1.404 . S
C1685 H1697 0.930 . S
C1686 C1682 1.524 . S
C1686 H1698 0.956 . S
C1686 H1699 0.961 . S
C1686 H1700 0.961 . S
C1687 C1684 1.539 . S
C1687 H1701 0.958 . S
C1687 H1702 0.961 . S
C1687 H1703 0.960 . S
H1688 C1672 0.931 . S
H1689 C1677 0.929 . S
H1690 C1678 0.960 . S
H1691 C1678 0.962 . S
H1692 C1678 0.960 . S
H1693 C1679 0.961 . S
H1694 C1679 0.961 . S
H1695 C1679 0.961 . S
H1696 C1680 0.931 . S
H1697 C1685 0.930 . S
H1698 C1686 0.956 . S
H1699 C1686 0.961 . S
H1700 C1686 0.961 . S
H1701 C1687 0.958 . S
H1702 C1687 0.961 . S
H1703 C1687 0.960 . S
C1704 C1705 1.391 . S
C1704 C1706 1.394 . S
C1704 H1720 0.931 . S
C1705 C1704 1.391 . S
C1705 C1709 1.376 . S
C1706 C1704 1.394 . S
C1706 C1707 1.369 . S
C1706 C1710 1.531 . S
C1707 C1706 1.369 . S
C1707 C1708 1.410 . S
C1707 C1715 1.503 . S
C1708 C1707 1.410 . S
C1708 C1709 1.392 . S
C1708 C1711 1.511 . S
C1709 C1705 1.376 . S
C1709 C1708 1.392 . S
C1709 H1721 0.929 . S
C1710 C1706 1.531 . S
C1710 H1722 0.960 . S
C1710 H1723 0.962 . S
C1710 H1724 0.960 . S
C1711 C1708 1.511 . S
C1711 H1725 0.961 . S
C1711 H1726 0.961 . S
C1711 H1727 0.961 . S
C1712 C1713 1.370 . S
C1712 C1714 1.363 . S
C1712 H1728 0.931 . S
C1713 C1712 1.370 . S
C1713 C1717 1.408 . S
C1714 C1712 1.363 . S
C1714 C1715 1.370 . S
C1714 C1718 1.524 . S
C1715 C1707 1.503 . S
C1715 C1714 1.370 . S
C1715 C1716 1.403 . S
C1716 C1715 1.403 . S
C1716 C1717 1.404 . S
C1716 C1719 1.539 . S
C1717 C1713 1.408 . S
C1717 C1716 1.404 . S
C1717 H1729 0.930 . S
C1718 C1714 1.524 . S
C1718 H1730 0.956 . S
C1718 H1731 0.961 . S
C1718 H1732 0.961 . S
C1719 C1716 1.539 . S
C1719 H1733 0.958 . S
C1719 H1734 0.961 . S
C1719 H1735 0.960 . S
H1720 C1704 0.931 . S
H1721 C1709 0.929 . S
H1722 C1710 0.960 . S
H1723 C1710 0.962 . S
H1724 C1710 0.960 . S
H1725 C1711 0.961 . S
H1726 C1711 0.961 . S
H1727 C1711 0.961 . S
H1728 C1712 0.931 . S
H1729 C1717 0.930 . S
H1730 C1718 0.956 . S
H1731 C1718 0.961 . S
H1732 C1718 0.961 . S
H1733 C1719 0.958 . S
H1734 C1719 0.961 . S
H1735 C1719 0.960 . S
C1736 C1737 1.391 . S
C1736 C1738 1.394 . S
C1736 H1752 0.931 . S
C1737 C1736 1.391 . S
C1737 C1741 1.376 . S
C1738 C1736 1.394 . S
C1738 C1739 1.369 . S
C1738 C1742 1.531 . S
C1739 C1738 1.369 . S
C1739 C1740 1.410 . S
C1739 C1747 1.503 . S
C1740 C1739 1.410 . S
C1740 C1741 1.392 . S
C1740 C1743 1.511 . S
C1741 C1737 1.376 . S
C1741 C1740 1.392 . S
C1741 H1753 0.929 . S
C1742 C1738 1.531 . S
C1742 H1754 0.960 . S
C1742 H1755 0.962 . S
C1742 H1756 0.960 . S
C1743 C1740 1.511 . S
C1743 H1757 0.961 . S
C1743 H1758 0.961 . S
C1743 H1759 0.961 . S
C1744 C1745 1.370 . S
C1744 C1746 1.363 . S
C1744 H1760 0.931 . S
C1745 C1744 1.370 . S
C1745 C1749 1.408 . S
C1746 C1744 1.363 . S
C1746 C1747 1.370 1_565 S
C1746 C1750 1.524 1_565 S
C1747 C1739 1.503 . S
C1747 C1746 1.370 1_545 S
C1747 C1748 1.403 1_545 S
C1748 C1747 1.403 1_565 S
C1748 C1749 1.404 . S
C1748 C1751 1.539 1_565 S
C1749 C1745 1.408 . S
C1749 C1748 1.404 . S
C1749 H1761 0.930 . S
C1750 C1746 1.524 1_545 S
C1750 H1762 0.956 . S
C1750 H1763 0.961 . S
C1750 H1764 0.949 1_545 S
C1751 C1748 1.539 1_545 S
C1751 H1765 0.958 . S
C1751 H1766 0.961 1_545 S
C1751 H1767 0.960 . S
H1752 C1736 0.931 . S
H1753 C1741 0.929 . S
H1754 C1742 0.960 . S
H1755 C1742 0.962 . S
H1756 C1742 0.960 . S
H1757 C1743 0.961 . S
H1758 C1743 0.961 . S
H1759 C1743 0.961 . S
H1760 C1744 0.931 . S
H1761 C1749 0.930 . S
H1762 C1750 0.956 . S
H1763 C1750 0.961 . S
H1764 C1750 0.949 1_565 S
H1765 C1751 0.958 . S
H1766 C1751 0.961 1_565 S
H1767 C1751 0.960 . S
C1768 C1769 1.391 . S
C1768 C1770 1.394 . S
C1768 H1784 0.931 . S
C1769 C1768 1.391 . S
C1769 C1773 1.376 . S
C1770 C1768 1.394 . S
C1770 C1771 1.369 . S
C1770 C1774 1.531 . S
C1771 C1770 1.369 . S
C1771 C1772 1.410 . S
C1771 C1779 1.503 1_455 S
C1772 C1771 1.410 . S
C1772 C1773 1.392 . S
C1772 C1775 1.511 . S
C1773 C1769 1.376 . S
C1773 C1772 1.392 . S
C1773 H1785 0.929 . S
C1774 C1770 1.531 . S
C1774 H1786 0.960 1_455 S
C1774 H1787 0.962 . S
C1774 H1788 0.960 . S
C1775 C1772 1.511 . S
C1775 H1789 0.961 . S
C1775 H1790 0.961 . S
C1775 H1791 0.961 . S
C1776 C1777 1.370 . S
C1776 C1778 1.363 . S
C1776 H1792 0.931 . S
C1777 C1776 1.370 . S
C1777 C1781 1.408 . S
C1778 C1776 1.363 . S
C1778 C1779 1.370 . S
C1778 C1782 1.524 1_655 S
C1779 C1771 1.503 1_655 S
C1779 C1778 1.370 . S
C1779 C1780 1.403 . S
C1780 C1779 1.403 . S
C1780 C1781 1.404 . S
C1780 C1783 1.539 . S
C1781 C1777 1.408 . S
C1781 C1780 1.404 . S
C1781 H1793 0.930 . S
C1782 C1778 1.524 1_455 S
C1782 H1794 0.956 . S
C1782 H1795 0.961 . S
C1782 H1796 0.961 . S
C1783 C1780 1.539 . S
C1783 H1797 0.958 . S
C1783 H1798 0.961 . S
C1783 H1799 0.960 . S
H1784 C1768 0.931 . S
H1785 C1773 0.929 . S
H1786 C1774 0.960 1_655 S
H1787 C1774 0.962 . S
H1788 C1774 0.960 . S
H1789 C1775 0.961 . S
H1790 C1775 0.961 . S
H1791 C1775 0.961 . S
H1792 C1776 0.931 . S
H1793 C1781 0.930 . S
H1794 C1782 0.956 . S
H1795 C1782 0.961 . S
H1796 C1782 0.961 . S
H1797 C1783 0.958 . S
H1798 C1783 0.961 . S
H1799 C1783 0.960 . S
C1800 C1801 1.391 . S
C1800 C1802 1.394 . S
C1800 H1816 0.931 . S
C1801 C1800 1.391 . S
C1801 C1805 1.376 . S
C1802 C1800 1.394 . S
C1802 C1803 1.369 . S
C1802 C1806 1.531 . S
C1803 C1802 1.369 . S
C1803 C1804 1.410 . S
C1803 C1811 1.503 . S
C1804 C1803 1.410 . S
C1804 C1805 1.392 . S
C1804 C1807 1.511 . S
C1805 C1801 1.376 . S
C1805 C1804 1.392 . S
C1805 H1817 0.929 . S
C1806 C1802 1.531 . S
C1806 H1818 0.960 . S
C1806 H1819 0.962 . S
C1806 H1820 0.960 . S
C1807 C1804 1.511 . S
C1807 H1821 0.961 . S
C1807 H1822 0.961 . S
C1807 H1823 0.961 . S
C1808 C1809 1.370 . S
C1808 C1810 1.363 . S
C1808 H1824 0.931 . S
C1809 C1808 1.370 . S
C1809 C1813 1.408 . S
C1810 C1808 1.363 . S
C1810 C1811 1.370 . S
C1810 C1814 1.524 . S
C1811 C1803 1.503 . S
C1811 C1810 1.370 . S
C1811 C1812 1.403 . S
C1812 C1811 1.403 . S
C1812 C1813 1.404 . S
C1812 C1815 1.539 . S
C1813 C1809 1.408 . S
C1813 C1812 1.404 . S
C1813 H1825 0.930 . S
C1814 C1810 1.524 . S
C1814 H1826 0.956 . S
C1814 H1827 0.961 . S
C1814 H1828 0.961 . S
C1815 C1812 1.539 . S
C1815 H1829 0.958 . S
C1815 H1830 0.961 . S
C1815 H1831 0.960 . S
H1816 C1800 0.931 . S
H1817 C1805 0.929 . S
H1818 C1806 0.960 . S
H1819 C1806 0.962 . S
H1820 C1806 0.960 . S
H1821 C1807 0.961 . S
H1822 C1807 0.961 . S
H1823 C1807 0.961 . S
H1824 C1808 0.931 . S
H1825 C1813 0.930 . S
H1826 C1814 0.956 . S
H1827 C1814 0.961 . S
H1828 C1814 0.961 . S
H1829 C1815 0.958 . S
H1830 C1815 0.961 . S
H1831 C1815 0.960 . S
C1832 C1833 1.391 . S
C1832 C1834 1.394 . S
C1832 H1848 0.931 . S
C1833 C1832 1.391 . S
C1833 C1837 1.376 . S
C1834 C1832 1.394 . S
C1834 C1835 1.369 . S
C1834 C1838 1.531 . S
C1835 C1834 1.369 . S
C1835 C1836 1.410 . S
C1835 C1843 1.503 . S
C1836 C1835 1.410 . S
C1836 C1837 1.392 . S
C1836 C1839 1.511 . S
C1837 C1833 1.376 . S
C1837 C1836 1.392 . S
C1837 H1849 0.929 . S
C1838 C1834 1.531 . S
C1838 H1850 0.960 . S
C1838 H1851 0.962 . S
C1838 H1852 0.960 . S
C1839 C1836 1.511 . S
C1839 H1853 0.961 . S
C1839 H1854 0.961 . S
C1839 H1855 0.961 . S
C1840 C1841 1.370 . S
C1840 C1842 1.363 . S
C1840 H1856 0.931 . S
C1841 C1840 1.370 . S
C1841 C1845 1.408 . S
C1842 C1840 1.363 . S
C1842 C1843 1.370 . S
C1842 C1846 1.524 . S
C1843 C1835 1.503 . S
C1843 C1842 1.370 . S
C1843 C1844 1.403 . S
C1844 C1843 1.403 . S
C1844 C1845 1.404 . S
C1844 C1847 1.539 . S
C1845 C1841 1.408 . S
C1845 C1844 1.404 . S
C1845 H1857 0.930 . S
C1846 C1842 1.524 . S
C1846 H1858 0.956 . S
C1846 H1859 0.961 . S
C1846 H1860 0.961 . S
C1847 C1844 1.539 . S
C1847 H1861 0.958 . S
C1847 H1862 0.961 . S
C1847 H1863 0.960 . S
H1848 C1832 0.931 . S
H1849 C1837 0.929 . S
H1850 C1838 0.960 . S
H1851 C1838 0.962 . S
H1852 C1838 0.960 . S
H1853 C1839 0.961 . S
H1854 C1839 0.961 . S
H1855 C1839 0.961 . S
H1856 C1840 0.931 . S
H1857 C1845 0.930 . S
H1858 C1846 0.956 . S
H1859 C1846 0.961 . S
H1860 C1846 0.961 . S
H1861 C1847 0.958 . S
H1862 C1847 0.961 . S
H1863 C1847 0.960 . S
C1864 C1865 1.391 . S
C1864 C1866 1.394 . S
C1864 H1880 0.931 . S
C1865 C1864 1.391 . S
C1865 C1869 1.376 . S
C1866 C1864 1.394 . S
C1866 C1867 1.369 . S
C1866 C1870 1.531 . S
C1867 C1866 1.369 . S
C1867 C1868 1.410 . S
C1867 C1875 1.503 . S
C1868 C1867 1.410 . S
C1868 C1869 1.392 . S
C1868 C1871 1.511 . S
C1869 C1865 1.376 . S
C1869 C1868 1.392 . S
C1869 H1881 0.929 . S
C1870 C1866 1.531 . S
C1870 H1882 0.960 . S
C1870 H1883 0.962 . S
C1870 H1884 0.960 . S
C1871 C1868 1.511 . S
C1871 H1885 0.961 . S
C1871 H1886 0.961 . S
C1871 H1887 0.961 . S
C1872 C1873 1.370 . S
C1872 C1874 1.363 . S
C1872 H1888 0.931 . S
C1873 C1872 1.370 . S
C1873 C1877 1.408 . S
C1874 C1872 1.363 . S
C1874 C1875 1.370 . S
C1874 C1878 1.524 . S
C1875 C1867 1.503 . S
C1875 C1874 1.370 . S
C1875 C1876 1.403 . S
C1876 C1875 1.403 . S
C1876 C1877 1.404 . S
C1876 C1879 1.539 . S
C1877 C1873 1.408 . S
C1877 C1876 1.404 . S
C1877 H1889 0.930 . S
C1878 C1874 1.524 . S
C1878 H1890 0.956 . S
C1878 H1891 0.961 . S
C1878 H1892 0.961 . S
C1879 C1876 1.539 . S
C1879 H1893 0.958 . S
C1879 H1894 0.961 . S
C1879 H1895 0.960 . S
H1880 C1864 0.931 . S
H1881 C1869 0.929 . S
H1882 C1870 0.960 . S
H1883 C1870 0.962 . S
H1884 C1870 0.960 . S
H1885 C1871 0.961 . S
H1886 C1871 0.961 . S
H1887 C1871 0.961 . S
H1888 C1872 0.931 . S
H1889 C1877 0.930 . S
H1890 C1878 0.956 . S
H1891 C1878 0.961 . S
H1892 C1878 0.961 . S
H1893 C1879 0.958 . S
H1894 C1879 0.961 . S
H1895 C1879 0.960 . S
C1896 C1897 1.391 . S
C1896 C1898 1.394 . S
C1896 H1912 0.931 . S
C1897 C1896 1.391 . S
C1897 C1901 1.376 . S
C1898 C1896 1.394 . S
C1898 C1899 1.369 . S
C1898 C1902 1.531 . S
C1899 C1898 1.369 . S
C1899 C1900 1.410 . S
C1899 C1907 1.503 . S
C1900 C1899 1.410 . S
C1900 C1901 1.392 . S
C1900 C1903 1.511 . S
C1901 C1897 1.376 . S
C1901 C1900 1.392 . S
C1901 H1913 0.929 . S
C1902 C1898 1.531 . S
C1902 H1914 0.960 . S
C1902 H1915 0.962 . S
C1902 H1916 0.960 . S
C1903 C1900 1.511 . S
C1903 H1917 0.961 . S
C1903 H1918 0.961 . S
C1903 H1919 0.961 . S
C1904 C1905 1.370 . S
C1904 C1906 1.363 . S
C1904 H1920 0.931 . S
C1905 C1904 1.370 . S
C1905 C1909 1.408 . S
C1906 C1904 1.363 . S
C1906 C1907 1.370 . S
C1906 C1910 1.524 . S
C1907 C1899 1.503 . S
C1907 C1906 1.370 . S
C1907 C1908 1.403 . S
C1908 C1907 1.403 . S
C1908 C1909 1.404 . S
C1908 C1911 1.539 . S
C1909 C1905 1.408 . S
C1909 C1908 1.404 . S
C1909 H1921 0.930 . S
C1910 C1906 1.524 . S
C1910 H1922 0.956 . S
C1910 H1923 0.961 . S
C1910 H1924 0.961 . S
C1911 C1908 1.539 . S
C1911 H1925 0.958 . S
C1911 H1926 0.961 . S
C1911 H1927 0.960 . S
H1912 C1896 0.931 . S
H1913 C1901 0.929 . S
H1914 C1902 0.960 . S
H1915 C1902 0.962 . S
H1916 C1902 0.960 . S
H1917 C1903 0.961 . S
H1918 C1903 0.961 . S
H1919 C1903 0.961 . S
H1920 C1904 0.931 . S
H1921 C1909 0.930 . S
H1922 C1910 0.956 . S
H1923 C1910 0.961 . S
H1924 C1910 0.961 . S
H1925 C1911 0.958 . S
H1926 C1911 0.961 . S
H1927 C1911 0.960 . S
C1928 C1929 1.391 . S
C1928 C1930 1.394 . S
C1928 H1944 0.931 . S
C1929 C1928 1.391 . S
C1929 C1933 1.376 . S
C1930 C1928 1.394 . S
C1930 C1931 1.369 . S
C1930 C1934 1.531 . S
C1931 C1930 1.369 . S
C1931 C1932 1.410 . S
C1931 C1939 1.503 . S
C1932 C1931 1.410 . S
C1932 C1933 1.392 . S
C1932 C1935 1.511 . S
C1933 C1929 1.376 . S
C1933 C1932 1.392 . S
C1933 H1945 0.929 . S
C1934 C1930 1.531 . S
C1934 H1946 0.960 . S
C1934 H1947 0.962 . S
C1934 H1948 0.960 . S
C1935 C1932 1.511 . S
C1935 H1949 0.961 . S
C1935 H1950 0.961 . S
C1935 H1951 0.961 . S
C1936 C1937 1.370 . S
C1936 C1938 1.363 . S
C1936 H1952 0.931 . S
C1937 C1936 1.370 . S
C1937 C1941 1.408 . S
C1938 C1936 1.363 . S
C1938 C1939 1.370 . S
C1938 C1942 1.524 . S
C1939 C1931 1.503 . S
C1939 C1938 1.370 . S
C1939 C1940 1.403 . S
C1940 C1939 1.403 . S
C1940 C1941 1.404 . S
C1940 C1943 1.539 . S
C1941 C1937 1.408 . S
C1941 C1940 1.404 . S
C1941 H1953 0.930 . S
C1942 C1938 1.524 . S
C1942 H1954 0.956 . S
C1942 H1955 0.961 . S
C1942 H1956 0.961 . S
C1943 C1940 1.539 . S
C1943 H1957 0.958 . S
C1943 H1958 0.961 . S
C1943 H1959 0.960 . S
H1944 C1928 0.931 . S
H1945 C1933 0.929 . S
H1946 C1934 0.960 . S
H1947 C1934 0.962 . S
H1948 C1934 0.960 . S
H1949 C1935 0.961 . S
H1950 C1935 0.961 . S
H1951 C1935 0.961 . S
H1952 C1936 0.931 . S
H1953 C1941 0.930 . S
H1954 C1942 0.956 . S
H1955 C1942 0.961 . S
H1956 C1942 0.961 . S
H1957 C1943 0.958 . S
H1958 C1943 0.961 . S
H1959 C1943 0.960 . S
C1960 C1961 1.391 . S
C1960 C1962 1.394 . S
C1960 H1976 0.931 . S
C1961 C1960 1.391 . S
C1961 C1965 1.376 . S
C1962 C1960 1.394 . S
C1962 C1963 1.369 . S
C1962 C1966 1.531 . S
C1963 C1962 1.369 . S
C1963 C1964 1.410 . S
C1963 C1971 1.503 . S
C1964 C1963 1.410 . S
C1964 C1965 1.392 . S
C1964 C1967 1.511 . S
C1965 C1961 1.376 . S
C1965 C1964 1.392 . S
C1965 H1977 0.929 . S
C1966 C1962 1.531 . S
C1966 H1978 0.960 . S
C1966 H1979 0.962 . S
C1966 H1980 0.960 . S
C1967 C1964 1.511 . S
C1967 H1981 0.961 . S
C1967 H1982 0.961 . S
C1967 H1983 0.961 . S
C1968 C1969 1.370 . S
C1968 C1970 1.363 . S
C1968 H1984 0.931 . S
C1969 C1968 1.370 . S
C1969 C1973 1.408 . S
C1970 C1968 1.363 . S
C1970 C1971 1.370 . S
C1970 C1974 1.524 . S
C1971 C1963 1.503 . S
C1971 C1970 1.370 . S
C1971 C1972 1.403 . S
C1972 C1971 1.403 . S
C1972 C1973 1.404 . S
C1972 C1975 1.539 . S
C1973 C1969 1.408 . S
C1973 C1972 1.404 . S
C1973 H1985 0.930 . S
C1974 C1970 1.524 . S
C1974 H1986 0.956 . S
C1974 H1987 0.961 . S
C1974 H1988 0.961 . S
C1975 C1972 1.539 . S
C1975 H1989 0.958 . S
C1975 H1990 0.961 . S
C1975 H1991 0.960 . S
H1976 C1960 0.931 . S
H1977 C1965 0.929 . S
H1978 C1966 0.960 . S
H1979 C1966 0.962 . S
H1980 C1966 0.960 . S
H1981 C1967 0.961 . S
H1982 C1967 0.961 . S
H1983 C1967 0.961 . S
H1984 C1968 0.931 . S
H1985 C1973 0.930 . S
H1986 C1974 0.956 . S
H1987 C1974 0.961 . S
H1988 C1974 0.961 . S
H1989 C1975 0.958 . S
H1990 C1975 0.961 . S
H1991 C1975 0.960 . S
C1992 C1993 1.391 . S
C1992 C1994 1.394 . S
C1992 H2008 0.931 . S
C1993 C1992 1.391 . S
C1993 C1997 1.376 . S
C1994 C1992 1.394 . S
C1994 C1995 1.369 . S
C1994 C1998 1.531 . S
C1995 C1994 1.369 . S
C1995 C1996 1.410 . S
C1995 C2003 1.503 . S
C1996 C1995 1.410 . S
C1996 C1997 1.392 . S
C1996 C1999 1.511 . S
C1997 C1993 1.376 . S
C1997 C1996 1.392 . S
C1997 H2009 0.929 . S
C1998 C1994 1.531 . S
C1998 H2010 0.960 . S
C1998 H2011 0.962 . S
C1998 H2012 0.960 . S
C1999 C1996 1.511 . S
C1999 H2013 0.961 . S
C1999 H2014 0.961 . S
C1999 H2015 0.961 . S
C2000 C2001 1.370 . S
C2000 C2002 1.363 . S
C2000 H2016 0.931 . S
C2001 C2000 1.370 . S
C2001 C2005 1.408 . S
C2002 C2000 1.363 . S
C2002 C2003 1.370 . S
C2002 C2006 1.524 . S
C2003 C1995 1.503 . S
C2003 C2002 1.370 . S
C2003 C2004 1.403 . S
C2004 C2003 1.403 . S
C2004 C2005 1.404 . S
C2004 C2007 1.539 . S
C2005 C2001 1.408 . S
C2005 C2004 1.404 . S
C2005 H2017 0.930 . S
C2006 C2002 1.524 . S
C2006 H2018 0.956 . S
C2006 H2019 0.961 . S
C2006 H2020 0.961 . S
C2007 C2004 1.539 . S
C2007 H2021 0.958 . S
C2007 H2022 0.961 . S
C2007 H2023 0.960 . S
H2008 C1992 0.931 . S
H2009 C1997 0.929 . S
H2010 C1998 0.960 . S
H2011 C1998 0.962 . S
H2012 C1998 0.960 . S
H2013 C1999 0.961 . S
H2014 C1999 0.961 . S
H2015 C1999 0.961 . S
H2016 C2000 0.931 . S
H2017 C2005 0.930 . S
H2018 C2006 0.956 . S
H2019 C2006 0.961 . S
H2020 C2006 0.961 . S
H2021 C2007 0.958 . S
H2022 C2007 0.961 . S
H2023 C2007 0.960 . S
C2024 C2025 1.391 . S
C2024 C2026 1.394 . S
C2024 H2040 0.931 . S
C2025 C2024 1.391 . S
C2025 C2029 1.376 . S
C2026 C2024 1.394 . S
C2026 C2027 1.369 . S
C2026 C2030 1.531 . S
C2027 C2026 1.369 . S
C2027 C2028 1.410 . S
C2027 C2035 1.503 1_565 S
C2028 C2027 1.410 . S
C2028 C2029 1.392 . S
C2028 C2031 1.511 . S
C2029 C2025 1.376 . S
C2029 C2028 1.392 . S
C2029 H2041 0.929 . S
C2030 C2026 1.531 . S
C2030 H2042 0.960 1_565 S
C2030 H2043 0.962 1_565 S
C2030 H2044 0.960 . S
C2031 C2028 1.511 . S
C2031 H2045 0.961 . S
C2031 H2046 0.961 1_565 S
C2031 H2047 0.961 . S
C2032 C2033 1.370 . S
C2032 C2034 1.363 . S
C2032 H2048 0.931 . S
C2033 C2032 1.370 . S
C2033 C2037 1.408 . S
C2034 C2032 1.363 . S
C2034 C2035 1.370 . S
C2034 C2038 1.524 . S
C2035 C2027 1.503 1_545 S
C2035 C2034 1.370 . S
C2035 C2036 1.403 . S
C2036 C2035 1.403 . S
C2036 C2037 1.404 . S
C2036 C2039 1.539 1_545 S
C2037 C2033 1.408 . S
C2037 C2036 1.404 . S
C2037 H2049 0.930 . S
C2038 C2034 1.524 . S
C2038 H2050 0.956 . S
C2038 H2051 0.961 . S
C2038 H2052 0.961 . S
C2039 C2036 1.539 1_565 S
C2039 H2053 0.958 . S
C2039 H2054 0.961 1_565 S
C2039 H2055 0.960 . S
H2040 C2024 0.931 . S
H2041 C2029 0.929 . S
H2042 C2030 0.960 1_545 S
H2043 C2030 0.962 1_545 S
H2044 C2030 0.960 . S
H2045 C2031 0.961 . S
H2046 C2031 0.961 1_545 S
H2047 C2031 0.961 . S
H2048 C2032 0.931 . S
H2049 C2037 0.930 . S
H2050 C2038 0.956 . S
H2051 C2038 0.961 . S
H2052 C2038 0.961 . S
H2053 C2039 0.958 . S
H2054 C2039 0.961 1_545 S
H2055 C2039 0.960 . S
C2056 C2057 1.391 . S
C2056 C2058 1.394 . S
C2056 H2072 0.931 . S
C2057 C2056 1.391 . S
C2057 C2061 1.376 . S
C2058 C2056 1.394 . S
C2058 C2059 1.369 . S
C2058 C2062 1.531 . S
C2059 C2058 1.369 . S
C2059 C2060 1.410 . S
C2059 C2067 1.503 . S
C2060 C2059 1.410 . S
C2060 C2061 1.392 . S
C2060 C2063 1.511 . S
C2061 C2057 1.376 . S
C2061 C2060 1.392 . S
C2061 H2073 0.929 . S
C2062 C2058 1.531 . S
C2062 H2074 0.960 . S
C2062 H2075 0.962 . S
C2062 H2076 0.960 . S
C2063 C2060 1.511 . S
C2063 H2077 0.961 . S
C2063 H2078 0.961 . S
C2063 H2079 0.961 . S
C2064 C2065 1.370 . S
C2064 C2066 1.364 1_655 S
C2064 H2080 0.931 . S
C2065 C2064 1.370 . S
C2065 C2069 1.408 . S
C2066 C2064 1.364 1_455 S
C2066 C2067 1.371 . S
C2066 C2070 1.523 . S
C2067 C2059 1.503 . S
C2067 C2066 1.371 . S
C2067 C2068 1.403 1_455 S
C2068 C2067 1.403 1_655 S
C2068 C2069 1.404 . S
C2068 C2071 1.539 . S
C2069 C2065 1.408 . S
C2069 C2068 1.404 . S
C2069 H2081 0.930 . S
C2070 C2066 1.523 . S
C2070 H2082 0.956 . S
C2070 H2083 0.961 . S
C2070 H2084 0.961 . S
C2071 C2068 1.539 . S
C2071 H2085 0.958 1_655 S
C2071 H2086 0.961 . S
C2071 H2087 0.960 1_655 S
H2072 C2056 0.931 . S
H2073 C2061 0.929 . S
H2074 C2062 0.960 . S
H2075 C2062 0.962 . S
H2076 C2062 0.960 . S
H2077 C2063 0.961 . S
H2078 C2063 0.961 . S
H2079 C2063 0.961 . S
H2080 C2064 0.931 . S
H2081 C2069 0.930 . S
H2082 C2070 0.956 . S
H2083 C2070 0.961 . S
H2084 C2070 0.961 . S
H2085 C2071 0.958 1_455 S
H2086 C2071 0.961 . S
H2087 C2071 0.960 1_455 S
C2088 C2089 1.391 . S
C2088 C2090 1.394 . S
C2088 H2104 0.931 . S
C2089 C2088 1.391 . S
C2089 C2093 1.376 . S
C2090 C2088 1.394 . S
C2090 C2091 1.369 . S
C2090 C2094 1.531 . S
C2091 C2090 1.369 . S
C2091 C2092 1.410 . S
C2091 C2099 1.503 1_554 S
C2092 C2091 1.410 . S
C2092 C2093 1.392 . S
C2092 C2095 1.511 1_545 S
C2093 C2089 1.376 . S
C2093 C2092 1.392 . S
C2093 H2105 0.929 1_545 S
C2094 C2090 1.531 . S
C2094 H2106 0.960 1_554 S
C2094 H2107 0.962 . S
C2094 H2108 0.960 . S
C2095 C2092 1.511 1_565 S
C2095 H2109 0.961 . S
C2095 H2110 0.958 1_554 S
C2095 H2111 0.961 . S
C2096 C2097 1.370 1_565 S
C2096 C2098 1.363 . S
C2096 H2112 0.931 . S
C2097 C2096 1.370 1_545 S
C2097 C2101 1.408 . S
C2098 C2096 1.363 . S
C2098 C2099 1.370 1_565 S
C2098 C2102 1.524 . S
C2099 C2091 1.503 1_556 S
C2099 C2098 1.370 1_545 S
C2099 C2100 1.403 . S
C2100 C2099 1.403 . S
C2100 C2101 1.404 . S
C2100 C2103 1.539 . S
C2101 C2097 1.408 . S
C2101 C2100 1.404 . S
C2101 H2113 0.930 . S
C2102 C2098 1.524 . S
C2102 H2114 0.952 1_556 S
C2102 H2115 0.961 1_556 S
C2102 H2116 0.961 . S
C2103 C2100 1.539 . S
C2103 H2117 0.958 . S
C2103 H2118 0.961 . S
C2103 H2119 0.960 . S
H2104 C2088 0.931 . S
H2105 C2093 0.929 1_565 S
H2106 C2094 0.960 1_556 S
H2107 C2094 0.962 . S
H2108 C2094 0.960 . S
H2109 C2095 0.961 . S
H2110 C2095 0.958 1_556 S
H2111 C2095 0.961 . S
H2112 C2096 0.931 . S
H2113 C2101 0.930 . S
H2114 C2102 0.952 1_554 S
H2115 C2102 0.961 1_554 S
H2116 C2102 0.961 . S
H2117 C2103 0.958 . S
H2118 C2103 0.961 . S
H2119 C2103 0.960 . S
C2120 C2121 1.391 . S
C2120 C2122 1.394 . S
C2120 H2136 0.931 . S
C2121 C2120 1.391 . S
C2121 C2125 1.376 1_455 S
C2122 C2120 1.394 . S
C2122 C2123 1.369 . S
C2122 C2126 1.531 . S
C2123 C2122 1.369 . S
C2123 C2124 1.410 1_455 S
C2123 C2131 1.503 1_556 S
C2124 C2123 1.410 1_655 S
C2124 C2125 1.392 . S
C2124 C2127 1.511 . S
C2125 C2121 1.376 1_655 S
C2125 C2124 1.392 . S
C2125 H2137 0.929 . S
C2126 C2122 1.531 . S
C2126 H2138 0.960 1_556 S
C2126 H2139 0.962 . S
C2126 H2140 0.960 . S
C2127 C2124 1.511 . S
C2127 H2141 0.961 . S
C2127 H2142 0.979 . S
C2127 H2143 0.961 . S
C2128 C2129 1.370 . S
C2128 C2130 1.363 . S
C2128 H2144 0.931 . S
C2129 C2128 1.370 . S
C2129 C2133 1.408 . S
C2130 C2128 1.363 . S
C2130 C2131 1.370 . S
C2130 C2134 1.524 . S
C2131 C2123 1.503 1_554 S
C2131 C2130 1.370 . S
C2131 C2132 1.403 . S
C2132 C2131 1.403 . S
C2132 C2133 1.404 . S
C2132 C2135 1.539 1_455 S
C2133 C2129 1.408 . S
C2133 C2132 1.404 . S
C2133 H2145 0.930 1_455 S
C2134 C2130 1.524 . S
C2134 H2146 0.956 . S
C2134 H2147 0.961 1_554 S
C2134 H2148 0.961 . S
C2135 C2132 1.539 1_655 S
C2135 H2149 0.958 1_655 S
C2135 H2150 0.961 . S
C2135 H2151 0.909 1_554 S
H2136 C2120 0.931 . S
H2137 C2125 0.929 . S
H2138 C2126 0.960 1_554 S
H2139 C2126 0.962 . S
H2140 C2126 0.960 . S
H2141 C2127 0.961 . S
H2142 C2127 0.979 . S
H2143 C2127 0.961 . S
H2144 C2128 0.931 . S
H2145 C2133 0.930 1_655 S
H2146 C2134 0.956 . S
H2147 C2134 0.961 1_556 S
H2148 C2134 0.961 . S
H2149 C2135 0.958 1_455 S
H2150 C2135 0.961 . S
H2151 C2135 0.909 1_556 S
C2152 C2153 1.391 . S
C2152 C2154 1.394 . S
C2152 H2168 0.931 . S
C2153 C2152 1.391 . S
C2153 C2157 1.376 . S
C2154 C2152 1.394 . S
C2154 C2155 1.369 . S
C2154 C2158 1.531 . S
C2155 C2154 1.369 . S
C2155 C2156 1.410 . S
C2155 C2163 1.503 1_556 S
C2156 C2155 1.410 . S
C2156 C2157 1.392 . S
C2156 C2159 1.511 . S
C2157 C2153 1.376 . S
C2157 C2156 1.392 . S
C2157 H2169 0.929 . S
C2158 C2154 1.531 . S
C2158 H2170 0.903 1_556 S
C2158 H2171 0.962 . S
C2158 H2172 0.960 . S
C2159 C2156 1.511 . S
C2159 H2173 0.961 . S
C2159 H2174 0.961 1_556 S
C2159 H2175 0.961 . S
C2160 C2161 1.370 . S
C2160 C2162 1.363 . S
C2160 H2176 0.931 . S
C2161 C2160 1.370 . S
C2161 C2165 1.408 . S
C2162 C2160 1.363 . S
C2162 C2163 1.370 . S
C2162 C2166 1.524 . S
C2163 C2155 1.503 1_554 S
C2163 C2162 1.370 . S
C2163 C2164 1.403 . S
C2164 C2163 1.403 . S
C2164 C2165 1.404 . S
C2164 C2167 1.539 . S
C2165 C2161 1.408 . S
C2165 C2164 1.404 . S
C2165 H2177 0.930 . S
C2166 C2162 1.524 . S
C2166 H2178 0.956 1_554 S
C2166 H2179 0.961 1_554 S
C2166 H2180 0.961 . S
C2167 C2164 1.539 . S
C2167 H2181 0.958 . S
C2167 H2182 0.961 . S
C2167 H2183 0.960 . S
H2168 C2152 0.931 . S
H2169 C2157 0.929 . S
H2170 C2158 0.903 1_554 S
H2171 C2158 0.962 . S
H2172 C2158 0.960 . S
H2173 C2159 0.961 . S
H2174 C2159 0.961 1_554 S
H2175 C2159 0.961 . S
H2176 C2160 0.931 . S
H2177 C2165 0.930 . S
H2178 C2166 0.956 1_556 S
H2179 C2166 0.961 1_556 S
H2180 C2166 0.961 . S
H2181 C2167 0.958 . S
H2182 C2167 0.961 . S
H2183 C2167 0.960 . S
C2184 C2185 1.391 . S
C2184 C2186 1.394 . S
C2184 H2200 0.931 . S
C2185 C2184 1.391 . S
C2185 C2189 1.376 . S
C2186 C2184 1.394 . S
C2186 C2187 1.369 . S
C2186 C2190 1.531 . S
C2187 C2186 1.369 . S
C2187 C2188 1.410 . S
C2187 C2195 1.503 . S
C2188 C2187 1.410 . S
C2188 C2189 1.392 . S
C2188 C2191 1.511 . S
C2189 C2185 1.376 . S
C2189 C2188 1.392 . S
C2189 H2201 0.929 . S
C2190 C2186 1.531 . S
C2190 H2202 0.960 . S
C2190 H2203 0.962 . S
C2190 H2204 0.960 . S
C2191 C2188 1.511 . S
C2191 H2205 0.961 . S
C2191 H2206 0.961 . S
C2191 H2207 0.961 . S
C2192 C2193 1.370 . S
C2192 C2194 1.363 . S
C2192 H2208 0.931 . S
C2193 C2192 1.370 . S
C2193 C2197 1.408 . S
C2194 C2192 1.363 . S
C2194 C2195 1.370 . S
C2194 C2198 1.524 . S
C2195 C2187 1.503 . S
C2195 C2194 1.370 . S
C2195 C2196 1.403 . S
C2196 C2195 1.403 . S
C2196 C2197 1.404 . S
C2196 C2199 1.539 . S
C2197 C2193 1.408 . S
C2197 C2196 1.404 . S
C2197 H2209 0.930 . S
C2198 C2194 1.524 . S
C2198 H2210 0.956 . S
C2198 H2211 0.961 . S
C2198 H2212 0.961 . S
C2199 C2196 1.539 . S
C2199 H2213 0.958 . S
C2199 H2214 0.961 . S
C2199 H2215 0.960 . S
H2200 C2184 0.931 . S
H2201 C2189 0.929 . S
H2202 C2190 0.960 . S
H2203 C2190 0.962 . S
H2204 C2190 0.960 . S
H2205 C2191 0.961 . S
H2206 C2191 0.961 . S
H2207 C2191 0.961 . S
H2208 C2192 0.931 . S
H2209 C2197 0.930 . S
H2210 C2198 0.956 . S
H2211 C2198 0.961 . S
H2212 C2198 0.961 . S
H2213 C2199 0.958 . S
H2214 C2199 0.961 . S
H2215 C2199 0.960 . S
C2216 C2217 1.391 . S
C2216 C2218 1.394 . S
C2216 H2232 0.931 . S
C2217 C2216 1.391 . S
C2217 C2221 1.376 . S
C2218 C2216 1.394 . S
C2218 C2219 1.369 . S
C2218 C2222 1.531 . S
C2219 C2218 1.369 . S
C2219 C2220 1.410 . S
C2219 C2227 1.503 . S
C2220 C2219 1.410 . S
C2220 C2221 1.392 . S
C2220 C2223 1.511 . S
C2221 C2217 1.376 . S
C2221 C2220 1.392 . S
C2221 H2233 0.929 . S
C2222 C2218 1.531 . S
C2222 H2234 0.960 . S
C2222 H2235 0.962 . S
C2222 H2236 0.960 . S
C2223 C2220 1.511 . S
C2223 H2237 0.961 . S
C2223 H2238 0.961 . S
C2223 H2239 0.961 . S
C2224 C2225 1.370 . S
C2224 C2226 1.363 . S
C2224 H2240 0.931 . S
C2225 C2224 1.370 . S
C2225 C2229 1.408 . S
C2226 C2224 1.363 . S
C2226 C2227 1.370 . S
C2226 C2230 1.524 . S
C2227 C2219 1.503 . S
C2227 C2226 1.370 . S
C2227 C2228 1.403 . S
C2228 C2227 1.403 . S
C2228 C2229 1.404 . S
C2228 C2231 1.539 . S
C2229 C2225 1.408 . S
C2229 C2228 1.404 . S
C2229 H2241 0.930 . S
C2230 C2226 1.524 . S
C2230 H2242 0.956 . S
C2230 H2243 0.961 . S
C2230 H2244 0.961 . S
C2231 C2228 1.539 . S
C2231 H2245 0.958 . S
C2231 H2246 0.961 . S
C2231 H2247 0.960 . S
H2232 C2216 0.931 . S
H2233 C2221 0.929 . S
H2234 C2222 0.960 . S
H2235 C2222 0.962 . S
H2236 C2222 0.960 . S
H2237 C2223 0.961 . S
H2238 C2223 0.961 . S
H2239 C2223 0.961 . S
H2240 C2224 0.931 . S
H2241 C2229 0.930 . S
H2242 C2230 0.956 . S
H2243 C2230 0.961 . S
H2244 C2230 0.961 . S
H2245 C2231 0.958 . S
H2246 C2231 0.961 . S
H2247 C2231 0.960 . S
C2248 C2249 1.391 . S
C2248 C2250 1.394 . S
C2248 H2264 0.931 . S
C2249 C2248 1.391 . S
C2249 C2253 1.376 . S
C2250 C2248 1.394 . S
C2250 C2251 1.369 . S
C2250 C2254 1.531 . S
C2251 C2250 1.369 . S
C2251 C2252 1.410 . S
C2251 C2259 1.503 . S
C2252 C2251 1.410 . S
C2252 C2253 1.392 . S
C2252 C2255 1.511 . S
C2253 C2249 1.376 . S
C2253 C2252 1.392 . S
C2253 H2265 0.929 . S
C2254 C2250 1.531 . S
C2254 H2266 0.960 . S
C2254 H2267 0.962 . S
C2254 H2268 0.960 . S
C2255 C2252 1.511 . S
C2255 H2269 0.961 . S
C2255 H2270 0.961 . S
C2255 H2271 0.961 . S
C2256 C2257 1.370 . S
C2256 C2258 1.363 . S
C2256 H2272 0.931 . S
C2257 C2256 1.370 . S
C2257 C2261 1.408 . S
C2258 C2256 1.363 . S
C2258 C2259 1.370 . S
C2258 C2262 1.524 . S
C2259 C2251 1.503 . S
C2259 C2258 1.370 . S
C2259 C2260 1.403 . S
C2260 C2259 1.403 . S
C2260 C2261 1.404 . S
C2260 C2263 1.539 . S
C2261 C2257 1.408 . S
C2261 C2260 1.404 . S
C2261 H2273 0.930 . S
C2262 C2258 1.524 . S
C2262 H2274 0.956 . S
C2262 H2275 0.961 . S
C2262 H2276 0.961 . S
C2263 C2260 1.539 . S
C2263 H2277 0.958 . S
C2263 H2278 0.961 . S
C2263 H2279 0.960 . S
H2264 C2248 0.931 . S
H2265 C2253 0.929 . S
H2266 C2254 0.960 . S
H2267 C2254 0.962 . S
H2268 C2254 0.960 . S
H2269 C2255 0.961 . S
H2270 C2255 0.961 . S
H2271 C2255 0.961 . S
H2272 C2256 0.931 . S
H2273 C2261 0.930 . S
H2274 C2262 0.956 . S
H2275 C2262 0.961 . S
H2276 C2262 0.961 . S
H2277 C2263 0.958 . S
H2278 C2263 0.961 . S
H2279 C2263 0.960 . S
C2280 C2281 1.391 . S
C2280 C2282 1.394 . S
C2280 H2296 0.931 . S
C2281 C2280 1.391 . S
C2281 C2285 1.376 . S
C2282 C2280 1.394 . S
C2282 C2283 1.369 . S
C2282 C2286 1.531 . S
C2283 C2282 1.369 . S
C2283 C2284 1.410 . S
C2283 C2291 1.503 . S
C2284 C2283 1.410 . S
C2284 C2285 1.392 . S
C2284 C2287 1.511 . S
C2285 C2281 1.376 . S
C2285 C2284 1.392 . S
C2285 H2297 0.929 . S
C2286 C2282 1.531 . S
C2286 H2298 0.960 . S
C2286 H2299 0.962 . S
C2286 H2300 0.960 . S
C2287 C2284 1.511 . S
C2287 H2301 0.961 . S
C2287 H2302 0.961 . S
C2287 H2303 0.961 . S
C2288 C2289 1.370 . S
C2288 C2290 1.363 . S
C2288 H2304 0.931 . S
C2289 C2288 1.370 . S
C2289 C2293 1.408 . S
C2290 C2288 1.363 . S
C2290 C2291 1.370 . S
C2290 C2294 1.524 . S
C2291 C2283 1.503 . S
C2291 C2290 1.370 . S
C2291 C2292 1.403 . S
C2292 C2291 1.403 . S
C2292 C2293 1.404 . S
C2292 C2295 1.539 . S
C2293 C2289 1.408 . S
C2293 C2292 1.404 . S
C2293 H2305 0.930 . S
C2294 C2290 1.524 . S
C2294 H2306 0.956 . S
C2294 H2307 0.961 . S
C2294 H2308 0.961 . S
C2295 C2292 1.539 . S
C2295 H2309 0.958 . S
C2295 H2310 0.961 . S
C2295 H2311 0.960 . S
H2296 C2280 0.931 . S
H2297 C2285 0.929 . S
H2298 C2286 0.960 . S
H2299 C2286 0.962 . S
H2300 C2286 0.960 . S
H2301 C2287 0.961 . S
H2302 C2287 0.961 . S
H2303 C2287 0.961 . S
H2304 C2288 0.931 . S
H2305 C2293 0.930 . S
H2306 C2294 0.956 . S
H2307 C2294 0.961 . S
H2308 C2294 0.961 . S
H2309 C2295 0.958 . S
H2310 C2295 0.961 . S
H2311 C2295 0.960 . S
C2312 C2313 1.391 . S
C2312 C2314 1.394 . S
C2312 H2328 0.931 . S
C2313 C2312 1.391 . S
C2313 C2317 1.376 . S
C2314 C2312 1.394 . S
C2314 C2315 1.369 . S
C2314 C2318 1.531 . S
C2315 C2314 1.369 . S
C2315 C2316 1.410 . S
C2315 C2323 1.503 . S
C2316 C2315 1.410 . S
C2316 C2317 1.392 . S
C2316 C2319 1.511 . S
C2317 C2313 1.376 . S
C2317 C2316 1.392 . S
C2317 H2329 0.929 . S
C2318 C2314 1.531 . S
C2318 H2330 0.960 . S
C2318 H2331 0.962 . S
C2318 H2332 0.960 . S
C2319 C2316 1.511 . S
C2319 H2333 0.961 . S
C2319 H2334 0.961 . S
C2319 H2335 0.961 . S
C2320 C2321 1.370 . S
C2320 C2322 1.363 . S
C2320 H2336 0.931 . S
C2321 C2320 1.370 . S
C2321 C2325 1.408 . S
C2322 C2320 1.363 . S
C2322 C2323 1.370 . S
C2322 C2326 1.524 . S
C2323 C2315 1.503 . S
C2323 C2322 1.370 . S
C2323 C2324 1.403 . S
C2324 C2323 1.403 . S
C2324 C2325 1.404 . S
C2324 C2327 1.539 . S
C2325 C2321 1.408 . S
C2325 C2324 1.404 . S
C2325 H2337 0.930 . S
C2326 C2322 1.524 . S
C2326 H2338 0.956 . S
C2326 H2339 0.961 . S
C2326 H2340 0.961 . S
C2327 C2324 1.539 . S
C2327 H2341 0.958 . S
C2327 H2342 0.961 . S
C2327 H2343 0.960 . S
H2328 C2312 0.931 . S
H2329 C2317 0.929 . S
H2330 C2318 0.960 . S
H2331 C2318 0.962 . S
H2332 C2318 0.960 . S
H2333 C2319 0.961 . S
H2334 C2319 0.961 . S
H2335 C2319 0.961 . S
H2336 C2320 0.931 . S
H2337 C2325 0.930 . S
H2338 C2326 0.956 . S
H2339 C2326 0.961 . S
H2340 C2326 0.961 . S
H2341 C2327 0.958 . S
H2342 C2327 0.961 . S
H2343 C2327 0.960 . S
C2344 C2345 1.391 . S
C2344 C2346 1.394 . S
C2344 H2360 0.931 . S
C2345 C2344 1.391 . S
C2345 C2349 1.376 . S
C2346 C2344 1.394 . S
C2346 C2347 1.369 . S
C2346 C2350 1.531 . S
C2347 C2346 1.369 . S
C2347 C2348 1.410 . S
C2347 C2355 1.503 . S
C2348 C2347 1.410 . S
C2348 C2349 1.392 . S
C2348 C2351 1.511 . S
C2349 C2345 1.376 . S
C2349 C2348 1.392 . S
C2349 H2361 0.929 . S
C2350 C2346 1.531 . S
C2350 H2362 0.960 . S
C2350 H2363 0.962 . S
C2350 H2364 0.960 . S
C2351 C2348 1.511 . S
C2351 H2365 0.961 . S
C2351 H2366 0.961 . S
C2351 H2367 0.961 . S
C2352 C2353 1.370 . S
C2352 C2354 1.363 . S
C2352 H2368 0.931 . S
C2353 C2352 1.370 . S
C2353 C2357 1.408 . S
C2354 C2352 1.363 . S
C2354 C2355 1.370 . S
C2354 C2358 1.524 . S
C2355 C2347 1.503 . S
C2355 C2354 1.370 . S
C2355 C2356 1.403 . S
C2356 C2355 1.403 . S
C2356 C2357 1.404 . S
C2356 C2359 1.539 . S
C2357 C2353 1.408 . S
C2357 C2356 1.404 . S
C2357 H2369 0.930 . S
C2358 C2354 1.524 . S
C2358 H2370 0.956 . S
C2358 H2371 0.961 . S
C2358 H2372 0.961 . S
C2359 C2356 1.539 . S
C2359 H2373 0.958 . S
C2359 H2374 0.961 . S
C2359 H2375 0.960 . S
H2360 C2344 0.931 . S
H2361 C2349 0.929 . S
H2362 C2350 0.960 . S
H2363 C2350 0.962 . S
H2364 C2350 0.960 . S
H2365 C2351 0.961 . S
H2366 C2351 0.961 . S
H2367 C2351 0.961 . S
H2368 C2352 0.931 . S
H2369 C2357 0.930 . S
H2370 C2358 0.956 . S
H2371 C2358 0.961 . S
H2372 C2358 0.961 . S
H2373 C2359 0.958 . S
H2374 C2359 0.961 . S
H2375 C2359 0.960 . S
C2376 C2377 1.391 . S
C2376 C2378 1.394 . S
C2376 H2392 0.931 . S
C2377 C2376 1.391 . S
C2377 C2381 1.376 . S
C2378 C2376 1.394 . S
C2378 C2379 1.369 . S
C2378 C2382 1.531 . S
C2379 C2378 1.369 . S
C2379 C2380 1.410 . S
C2379 C2387 1.503 . S
C2380 C2379 1.410 . S
C2380 C2381 1.392 . S
C2380 C2383 1.511 . S
C2381 C2377 1.376 . S
C2381 C2380 1.392 . S
C2381 H2393 0.929 . S
C2382 C2378 1.531 . S
C2382 H2394 0.960 . S
C2382 H2395 0.962 . S
C2382 H2396 0.960 . S
C2383 C2380 1.511 . S
C2383 H2397 0.961 . S
C2383 H2398 0.961 . S
C2383 H2399 0.961 . S
C2384 C2385 1.370 . S
C2384 C2386 1.363 . S
C2384 H2400 0.931 1_565 S
C2385 C2384 1.370 . S
C2385 C2389 1.408 . S
C2386 C2384 1.363 . S
C2386 C2387 1.370 . S
C2386 C2390 1.524 . S
C2387 C2379 1.503 . S
C2387 C2386 1.370 . S
C2387 C2388 1.403 . S
C2388 C2387 1.403 . S
C2388 C2389 1.404 . S
C2388 C2391 1.539 . S
C2389 C2385 1.408 . S
C2389 C2388 1.404 . S
C2389 H2401 0.930 . S
C2390 C2386 1.524 . S
C2390 H2402 0.956 . S
C2390 H2403 0.961 . S
C2390 H2404 0.961 1_565 S
C2391 C2388 1.539 . S
C2391 H2405 0.958 . S
C2391 H2406 0.961 . S
C2391 H2407 0.960 . S
H2392 C2376 0.931 . S
H2393 C2381 0.929 . S
H2394 C2382 0.960 . S
H2395 C2382 0.962 . S
H2396 C2382 0.960 . S
H2397 C2383 0.961 . S
H2398 C2383 0.961 . S
H2399 C2383 0.961 . S
H2400 C2384 0.931 1_545 S
H2401 C2389 0.930 . S
H2402 C2390 0.956 . S
H2403 C2390 0.961 . S
H2404 C2390 0.961 1_545 S
H2405 C2391 0.958 . S
H2406 C2391 0.961 . S
H2407 C2391 0.960 . S
C2408 C2409 1.391 . S
C2408 C2410 1.394 . S
C2408 H2424 0.931 . S
C2409 C2408 1.391 . S
C2409 C2413 1.376 . S
C2410 C2408 1.394 . S
C2410 C2411 1.369 . S
C2410 C2414 1.531 . S
C2411 C2410 1.369 . S
C2411 C2412 1.410 . S
C2411 C2419 1.503 . S
C2412 C2411 1.410 . S
C2412 C2413 1.392 . S
C2412 C2415 1.511 . S
C2413 C2409 1.376 . S
C2413 C2412 1.392 . S
C2413 H2425 0.929 . S
C2414 C2410 1.531 . S
C2414 H2426 0.960 . S
C2414 H2427 0.962 . S
C2414 H2428 0.960 . S
C2415 C2412 1.511 . S
C2415 H2429 0.961 . S
C2415 H2430 0.961 . S
C2415 H2431 0.961 . S
C2416 C2417 1.370 . S
C2416 C2418 1.363 . S
C2416 H2432 0.931 . S
C2417 C2416 1.370 . S
C2417 C2421 1.408 . S
C2418 C2416 1.363 . S
C2418 C2419 1.370 . S
C2418 C2422 1.524 . S
C2419 C2411 1.503 . S
C2419 C2418 1.370 . S
C2419 C2420 1.403 . S
C2420 C2419 1.403 . S
C2420 C2421 1.404 . S
C2420 C2423 1.539 . S
C2421 C2417 1.408 . S
C2421 C2420 1.404 . S
C2421 H2433 0.930 . S
C2422 C2418 1.524 . S
C2422 H2434 0.956 . S
C2422 H2435 0.961 . S
C2422 H2436 0.961 . S
C2423 C2420 1.539 . S
C2423 H2437 0.958 . S
C2423 H2438 0.961 . S
C2423 H2439 0.960 . S
H2424 C2408 0.931 . S
H2425 C2413 0.929 . S
H2426 C2414 0.960 . S
H2427 C2414 0.962 . S
H2428 C2414 0.960 . S
H2429 C2415 0.961 . S
H2430 C2415 0.961 . S
H2431 C2415 0.961 . S
H2432 C2416 0.931 . S
H2433 C2421 0.930 . S
H2434 C2422 0.956 . S
H2435 C2422 0.961 . S
H2436 C2422 0.961 . S
H2437 C2423 0.958 . S
H2438 C2423 0.961 . S
H2439 C2423 0.960 . S
C2440 C2441 1.391 . S
C2440 C2442 1.394 . S
C2440 H2456 0.931 . S
C2441 C2440 1.391 . S
C2441 C2445 1.376 . S
C2442 C2440 1.394 . S
C2442 C2443 1.369 . S
C2442 C2446 1.531 . S
C2443 C2442 1.369 . S
C2443 C2444 1.410 . S
C2443 C2451 1.503 . S
C2444 C2443 1.410 . S
C2444 C2445 1.392 . S
C2444 C2447 1.511 . S
C2445 C2441 1.376 . S
C2445 C2444 1.392 . S
C2445 H2457 0.929 . S
C2446 C2442 1.531 . S
C2446 H2458 0.960 . S
C2446 H2459 0.962 . S
C2446 H2460 0.960 . S
C2447 C2444 1.511 . S
C2447 H2461 0.961 . S
C2447 H2462 0.961 . S
C2447 H2463 0.961 . S
C2448 C2449 1.370 . S
C2448 C2450 1.363 . S
C2448 H2464 0.931 . S
C2449 C2448 1.370 . S
C2449 C2453 1.408 . S
C2450 C2448 1.363 . S
C2450 C2451 1.370 . S
C2450 C2454 1.524 . S
C2451 C2443 1.503 . S
C2451 C2450 1.370 . S
C2451 C2452 1.403 . S
C2452 C2451 1.403 . S
C2452 C2453 1.404 . S
C2452 C2455 1.539 . S
C2453 C2449 1.408 . S
C2453 C2452 1.404 . S
C2453 H2465 0.930 . S
C2454 C2450 1.524 . S
C2454 H2466 0.956 . S
C2454 H2467 0.961 . S
C2454 H2468 0.961 . S
C2455 C2452 1.539 . S
C2455 H2469 0.958 . S
C2455 H2470 0.961 . S
C2455 H2471 0.960 . S
H2456 C2440 0.931 . S
H2457 C2445 0.929 . S
H2458 C2446 0.960 . S
H2459 C2446 0.962 . S
H2460 C2446 0.960 . S
H2461 C2447 0.961 . S
H2462 C2447 0.961 . S
H2463 C2447 0.961 . S
H2464 C2448 0.931 . S
H2465 C2453 0.930 . S
H2466 C2454 0.956 . S
H2467 C2454 0.961 . S
H2468 C2454 0.961 . S
H2469 C2455 0.958 . S
H2470 C2455 0.961 . S
H2471 C2455 0.960 . S
C2472 C2473 1.391 . S
C2472 C2474 1.394 . S
C2472 H2488 0.931 . S
C2473 C2472 1.391 . S
C2473 C2477 1.376 . S
C2474 C2472 1.394 . S
C2474 C2475 1.369 . S
C2474 C2478 1.531 . S
C2475 C2474 1.369 . S
C2475 C2476 1.410 . S
C2475 C2483 1.503 . S
C2476 C2475 1.410 . S
C2476 C2477 1.392 . S
C2476 C2479 1.511 . S
C2477 C2473 1.376 . S
C2477 C2476 1.392 . S
C2477 H2489 0.929 . S
C2478 C2474 1.531 . S
C2478 H2490 0.960 . S
C2478 H2491 0.962 . S
C2478 H2492 0.960 . S
C2479 C2476 1.511 . S
C2479 H2493 0.961 . S
C2479 H2494 0.961 . S
C2479 H2495 0.961 . S
C2480 C2481 1.370 . S
C2480 C2482 1.363 . S
C2480 H2496 0.931 . S
C2481 C2480 1.370 . S
C2481 C2485 1.408 . S
C2482 C2480 1.363 . S
C2482 C2483 1.370 . S
C2482 C2486 1.524 . S
C2483 C2475 1.503 . S
C2483 C2482 1.370 . S
C2483 C2484 1.403 . S
C2484 C2483 1.403 . S
C2484 C2485 1.404 . S
C2484 C2487 1.539 . S
C2485 C2481 1.408 . S
C2485 C2484 1.404 . S
C2485 H2497 0.930 . S
C2486 C2482 1.524 . S
C2486 H2498 0.956 . S
C2486 H2499 0.961 . S
C2486 H2500 0.961 . S
C2487 C2484 1.539 . S
C2487 H2501 0.958 1_655 S
C2487 H2502 0.961 . S
C2487 H2503 0.960 . S
H2488 C2472 0.931 . S
H2489 C2477 0.929 . S
H2490 C2478 0.960 . S
H2491 C2478 0.962 . S
H2492 C2478 0.960 . S
H2493 C2479 0.961 . S
H2494 C2479 0.961 . S
H2495 C2479 0.961 . S
H2496 C2480 0.931 . S
H2497 C2485 0.930 . S
H2498 C2486 0.956 . S
H2499 C2486 0.961 . S
H2500 C2486 0.961 . S
H2501 C2487 0.958 1_455 S
H2502 C2487 0.961 . S
H2503 C2487 0.960 . S
C2504 C2505 1.391 . S
C2504 C2506 1.394 . S
C2504 H2520 0.931 . S
C2505 C2504 1.391 . S
C2505 C2509 1.376 . S
C2506 C2504 1.394 . S
C2506 C2507 1.369 . S
C2506 C2510 1.531 . S
C2507 C2506 1.369 . S
C2507 C2508 1.410 . S
C2507 C2515 1.503 . S
C2508 C2507 1.410 . S
C2508 C2509 1.392 . S
C2508 C2511 1.511 . S
C2509 C2505 1.376 . S
C2509 C2508 1.392 . S
C2509 H2521 0.929 . S
C2510 C2506 1.531 . S
C2510 H2522 0.960 . S
C2510 H2523 0.962 . S
C2510 H2524 0.960 . S
C2511 C2508 1.511 . S
C2511 H2525 0.961 . S
C2511 H2526 0.961 . S
C2511 H2527 0.961 . S
C2512 C2513 1.370 . S
C2512 C2514 1.363 . S
C2512 H2528 0.931 . S
C2513 C2512 1.370 . S
C2513 C2517 1.408 . S
C2514 C2512 1.363 . S
C2514 C2515 1.370 . S
C2514 C2518 1.524 . S
C2515 C2507 1.503 . S
C2515 C2514 1.370 . S
C2515 C2516 1.403 . S
C2516 C2515 1.403 . S
C2516 C2517 1.404 . S
C2516 C2519 1.539 . S
C2517 C2513 1.408 . S
C2517 C2516 1.404 . S
C2517 H2529 0.930 . S
C2518 C2514 1.524 . S
C2518 H2530 0.956 . S
C2518 H2531 0.961 . S
C2518 H2532 0.961 . S
C2519 C2516 1.539 . S
C2519 H2533 0.958 . S
C2519 H2534 0.961 . S
C2519 H2535 0.960 . S
H2520 C2504 0.931 . S
H2521 C2509 0.929 . S
H2522 C2510 0.960 . S
H2523 C2510 0.962 . S
H2524 C2510 0.960 . S
H2525 C2511 0.961 . S
H2526 C2511 0.961 . S
H2527 C2511 0.961 . S
H2528 C2512 0.931 . S
H2529 C2517 0.930 . S
H2530 C2518 0.956 . S
H2531 C2518 0.961 . S
H2532 C2518 0.961 . S
H2533 C2519 0.958 . S
H2534 C2519 0.961 . S
H2535 C2519 0.960 . S
C2536 C2537 1.391 . S
C2536 C2538 1.394 . S
C2536 H2552 0.931 . S
C2537 C2536 1.391 . S
C2537 C2541 1.376 . S
C2538 C2536 1.394 . S
C2538 C2539 1.369 . S
C2538 C2542 1.531 . S
C2539 C2538 1.369 . S
C2539 C2540 1.410 . S
C2539 C2547 1.503 . S
C2540 C2539 1.410 . S
C2540 C2541 1.392 . S
C2540 C2543 1.511 . S
C2541 C2537 1.376 . S
C2541 C2540 1.392 . S
C2541 H2553 0.929 . S
C2542 C2538 1.531 . S
C2542 H2554 0.960 . S
C2542 H2555 0.962 . S
C2542 H2556 0.960 . S
C2543 C2540 1.511 . S
C2543 H2557 0.961 . S
C2543 H2558 0.961 . S
C2543 H2559 0.961 . S
C2544 C2545 1.370 . S
C2544 C2546 1.363 . S
C2544 H2560 0.931 . S
C2545 C2544 1.370 . S
C2545 C2549 1.408 . S
C2546 C2544 1.363 . S
C2546 C2547 1.370 . S
C2546 C2550 1.524 . S
C2547 C2539 1.503 . S
C2547 C2546 1.370 . S
C2547 C2548 1.403 . S
C2548 C2547 1.403 . S
C2548 C2549 1.404 . S
C2548 C2551 1.539 . S
C2549 C2545 1.408 . S
C2549 C2548 1.404 . S
C2549 H2561 0.930 . S
C2550 C2546 1.524 . S
C2550 H2562 0.956 . S
C2550 H2563 0.961 . S
C2550 H2564 0.961 . S
C2551 C2548 1.539 . S
C2551 H2565 0.958 . S
C2551 H2566 0.961 . S
C2551 H2567 0.960 . S
H2552 C2536 0.931 . S
H2553 C2541 0.929 . S
H2554 C2542 0.960 . S
H2555 C2542 0.962 . S
H2556 C2542 0.960 . S
H2557 C2543 0.961 . S
H2558 C2543 0.961 . S
H2559 C2543 0.961 . S
H2560 C2544 0.931 . S
H2561 C2549 0.930 . S
H2562 C2550 0.956 . S
H2563 C2550 0.961 . S
H2564 C2550 0.961 . S
H2565 C2551 0.958 . S
H2566 C2551 0.961 . S
H2567 C2551 0.960 . S
C2568 C2569 1.391 . S
C2568 C2570 1.394 . S
C2568 H2584 0.931 . S
C2569 C2568 1.391 . S
C2569 C2573 1.376 . S
C2570 C2568 1.394 . S
C2570 C2571 1.369 1_655 S
C2570 C2574 1.531 . S
C2571 C2570 1.369 1_455 S
C2571 C2572 1.410 . S
C2571 C2579 1.503 . S
C2572 C2571 1.410 . S
C2572 C2573 1.392 1_455 S
C2572 C2575 1.511 . S
C2573 C2569 1.376 . S
C2573 C2572 1.392 1_655 S
C2573 H2585 0.929 . S
C2574 C2570 1.531 . S
C2574 H2586 0.960 1_655 S
C2574 H2587 0.962 . S
C2574 H2588 0.960 . S
C2575 C2572 1.511 . S
C2575 H2589 0.961 . S
C2575 H2590 0.961 . S
C2575 H2591 0.961 . S
C2576 C2577 1.370 . S
C2576 C2578 1.363 . S
C2576 H2592 0.931 . S
C2577 C2576 1.370 . S
C2577 C2581 1.408 . S
C2578 C2576 1.363 . S
C2578 C2579 1.370 . S
C2578 C2582 1.524 1_455 S
C2579 C2571 1.503 . S
C2579 C2578 1.370 . S
C2579 C2580 1.403 . S
C2580 C2579 1.403 . S
C2580 C2581 1.404 . S
C2580 C2583 1.539 . S
C2581 C2577 1.408 . S
C2581 C2580 1.404 . S
C2581 H2593 0.930 . S
C2582 C2578 1.524 1_655 S
C2582 H2594 0.956 . S
C2582 H2595 0.961 . S
C2582 H2596 0.959 1_655 S
C2583 C2580 1.539 . S
C2583 H2597 0.958 . S
C2583 H2598 0.961 . S
C2583 H2599 0.960 . S
H2584 C2568 0.931 . S
H2585 C2573 0.929 . S
H2586 C2574 0.960 1_455 S
H2587 C2574 0.962 . S
H2588 C2574 0.960 . S
H2589 C2575 0.961 . S
H2590 C2575 0.961 . S
H2591 C2575 0.961 . S
H2592 C2576 0.931 . S
H2593 C2581 0.930 . S
H2594 C2582 0.956 . S
H2595 C2582 0.961 . S
H2596 C2582 0.959 1_455 S
H2597 C2583 0.958 . S
H2598 C2583 0.961 . S
H2599 C2583 0.960 . S
C2600 C2601 1.391 . S
C2600 C2602 1.394 . S
C2600 H2616 0.931 . S
C2601 C2600 1.391 . S
C2601 C2605 1.376 . S
C2602 C2600 1.394 . S
C2602 C2603 1.369 . S
C2602 C2606 1.531 . S
C2603 C2602 1.369 . S
C2603 C2604 1.410 . S
C2603 C2611 1.503 . S
C2604 C2603 1.410 . S
C2604 C2605 1.392 . S
C2604 C2607 1.511 . S
C2605 C2601 1.376 . S
C2605 C2604 1.392 . S
C2605 H2617 0.929 . S
C2606 C2602 1.531 . S
C2606 H2618 0.960 . S
C2606 H2619 0.962 . S
C2606 H2620 0.960 . S
C2607 C2604 1.511 . S
C2607 H2621 0.961 . S
C2607 H2622 0.961 . S
C2607 H2623 0.961 . S
C2608 C2609 1.370 . S
C2608 C2610 1.363 . S
C2608 H2624 0.931 . S
C2609 C2608 1.370 . S
C2609 C2613 1.408 . S
C2610 C2608 1.363 . S
C2610 C2611 1.370 . S
C2610 C2614 1.524 . S
C2611 C2603 1.503 . S
C2611 C2610 1.370 . S
C2611 C2612 1.403 . S
C2612 C2611 1.403 . S
C2612 C2613 1.404 . S
C2612 C2615 1.539 . S
C2613 C2609 1.408 . S
C2613 C2612 1.404 . S
C2613 H2625 0.930 . S
C2614 C2610 1.524 . S
C2614 H2626 0.956 . S
C2614 H2627 0.961 . S
C2614 H2628 0.961 . S
C2615 C2612 1.539 . S
C2615 H2629 0.958 . S
C2615 H2630 0.961 . S
C2615 H2631 0.960 . S
H2616 C2600 0.931 . S
H2617 C2605 0.929 . S
H2618 C2606 0.960 . S
H2619 C2606 0.962 . S
H2620 C2606 0.960 . S
H2621 C2607 0.961 . S
H2622 C2607 0.961 . S
H2623 C2607 0.961 . S
H2624 C2608 0.931 . S
H2625 C2613 0.930 . S
H2626 C2614 0.956 . S
H2627 C2614 0.961 . S
H2628 C2614 0.961 . S
H2629 C2615 0.958 . S
H2630 C2615 0.961 . S
H2631 C2615 0.960 . S
C2632 C2633 1.391 . S
C2632 C2634 1.394 . S
C2632 H2648 0.931 . S
C2633 C2632 1.391 . S
C2633 C2637 1.376 . S
C2634 C2632 1.394 . S
C2634 C2635 1.369 . S
C2634 C2638 1.531 . S
C2635 C2634 1.369 . S
C2635 C2636 1.410 . S
C2635 C2643 1.503 1_565 S
C2636 C2635 1.410 . S
C2636 C2637 1.392 . S
C2636 C2639 1.511 1_565 S
C2637 C2633 1.376 . S
C2637 C2636 1.392 . S
C2637 H2649 0.929 . S
C2638 C2634 1.531 . S
C2638 H2650 0.960 . S
C2638 H2651 0.962 . S
C2638 H2652 0.960 . S
C2639 C2636 1.511 1_545 S
C2639 H2653 0.961 . S
C2639 H2654 0.961 . S
C2639 H2655 0.961 . S
C2640 C2641 1.370 . S
C2640 C2642 1.363 . S
C2640 H2656 0.931 . S
C2641 C2640 1.370 . S
C2641 C2645 1.408 . S
C2642 C2640 1.363 . S
C2642 C2643 1.370 . S
C2642 C2646 1.524 . S
C2643 C2635 1.503 1_545 S
C2643 C2642 1.370 . S
C2643 C2644 1.403 . S
C2644 C2643 1.403 . S
C2644 C2645 1.404 . S
C2644 C2647 1.539 . S
C2645 C2641 1.408 . S
C2645 C2644 1.404 . S
C2645 H2657 0.930 . S
C2646 C2642 1.524 . S
C2646 H2658 0.956 . S
C2646 H2659 0.961 . S
C2646 H2660 0.961 . S
C2647 C2644 1.539 . S
C2647 H2661 0.958 1_545 S
C2647 H2662 0.961 . S
C2647 H2663 0.960 1_545 S
H2648 C2632 0.931 . S
H2649 C2637 0.929 . S
H2650 C2638 0.960 . S
H2651 C2638 0.962 . S
H2652 C2638 0.960 . S
H2653 C2639 0.961 . S
H2654 C2639 0.961 . S
H2655 C2639 0.961 . S
H2656 C2640 0.931 . S
H2657 C2645 0.930 . S
H2658 C2646 0.956 . S
H2659 C2646 0.961 . S
H2660 C2646 0.961 . S
H2661 C2647 0.958 1_565 S
H2662 C2647 0.961 . S
H2663 C2647 0.960 1_565 S
C2664 C2665 1.391 . S
C2664 C2666 1.394 . S
C2664 H2680 0.931 . S
C2665 C2664 1.391 . S
C2665 C2669 1.376 . S
C2666 C2664 1.394 . S
C2666 C2667 1.369 . S
C2666 C2670 1.531 . S
C2667 C2666 1.369 . S
C2667 C2668 1.410 . S
C2667 C2675 1.503 . S
C2668 C2667 1.410 . S
C2668 C2669 1.392 . S
C2668 C2671 1.511 . S
C2669 C2665 1.376 . S
C2669 C2668 1.392 . S
C2669 H2681 0.929 . S
C2670 C2666 1.531 . S
C2670 H2682 0.960 . S
C2670 H2683 0.962 . S
C2670 H2684 0.960 . S
C2671 C2668 1.511 . S
C2671 H2685 0.961 . S
C2671 H2686 0.961 . S
C2671 H2687 0.961 . S
C2672 C2673 1.370 . S
C2672 C2674 1.363 . S
C2672 H2688 0.931 . S
C2673 C2672 1.370 . S
C2673 C2677 1.408 . S
C2674 C2672 1.363 . S
C2674 C2675 1.370 . S
C2674 C2678 1.524 . S
C2675 C2667 1.503 . S
C2675 C2674 1.370 . S
C2675 C2676 1.403 . S
C2676 C2675 1.403 . S
C2676 C2677 1.404 . S
C2676 C2679 1.539 . S
C2677 C2673 1.408 . S
C2677 C2676 1.404 . S
C2677 H2689 0.930 . S
C2678 C2674 1.524 . S
C2678 H2690 0.956 . S
C2678 H2691 0.961 . S
C2678 H2692 0.961 . S
C2679 C2676 1.539 . S
C2679 H2693 0.958 . S
C2679 H2694 0.961 . S
C2679 H2695 0.960 . S
H2680 C2664 0.931 . S
H2681 C2669 0.929 . S
H2682 C2670 0.960 . S
H2683 C2670 0.962 . S
H2684 C2670 0.960 . S
H2685 C2671 0.961 . S
H2686 C2671 0.961 . S
H2687 C2671 0.961 . S
H2688 C2672 0.931 . S
H2689 C2677 0.930 . S
H2690 C2678 0.956 . S
H2691 C2678 0.961 . S
H2692 C2678 0.961 . S
H2693 C2679 0.958 . S
H2694 C2679 0.961 . S
H2695 C2679 0.960 . S
C2696 C2697 1.391 . S
C2696 C2698 1.394 . S
C2696 H2712 0.931 . S
C2697 C2696 1.391 . S
C2697 C2701 1.376 . S
C2698 C2696 1.394 . S
C2698 C2699 1.369 . S
C2698 C2702 1.531 . S
C2699 C2698 1.369 . S
C2699 C2700 1.410 . S
C2699 C2707 1.503 . S
C2700 C2699 1.410 . S
C2700 C2701 1.392 . S
C2700 C2703 1.511 . S
C2701 C2697 1.376 . S
C2701 C2700 1.392 . S
C2701 H2713 0.929 . S
C2702 C2698 1.531 . S
C2702 H2714 0.960 . S
C2702 H2715 0.962 . S
C2702 H2716 0.960 . S
C2703 C2700 1.511 . S
C2703 H2717 0.961 . S
C2703 H2718 0.961 . S
C2703 H2719 0.961 . S
C2704 C2705 1.370 . S
C2704 C2706 1.363 . S
C2704 H2720 0.931 . S
C2705 C2704 1.370 . S
C2705 C2709 1.408 . S
C2706 C2704 1.363 . S
C2706 C2707 1.370 . S
C2706 C2710 1.524 . S
C2707 C2699 1.503 . S
C2707 C2706 1.370 . S
C2707 C2708 1.403 . S
C2708 C2707 1.403 . S
C2708 C2709 1.404 . S
C2708 C2711 1.539 . S
C2709 C2705 1.408 . S
C2709 C2708 1.404 . S
C2709 H2721 0.930 . S
C2710 C2706 1.524 . S
C2710 H2722 0.956 . S
C2710 H2723 0.961 . S
C2710 H2724 0.961 . S
C2711 C2708 1.539 . S
C2711 H2725 0.958 . S
C2711 H2726 0.961 . S
C2711 H2727 0.960 . S
H2712 C2696 0.931 . S
H2713 C2701 0.929 . S
H2714 C2702 0.960 . S
H2715 C2702 0.962 . S
H2716 C2702 0.960 . S
H2717 C2703 0.961 . S
H2718 C2703 0.961 . S
H2719 C2703 0.961 . S
H2720 C2704 0.931 . S
H2721 C2709 0.930 . S
H2722 C2710 0.956 . S
H2723 C2710 0.961 . S
H2724 C2710 0.961 . S
H2725 C2711 0.958 . S
H2726 C2711 0.961 . S
H2727 C2711 0.960 . S
C2728 C2729 1.391 . S
C2728 C2730 1.394 . S
C2728 H2744 0.931 . S
C2729 C2728 1.391 . S
C2729 C2733 1.376 . S
C2730 C2728 1.394 . S
C2730 C2731 1.369 . S
C2730 C2734 1.531 . S
C2731 C2730 1.369 . S
C2731 C2732 1.410 . S
C2731 C2739 1.503 . S
C2732 C2731 1.410 . S
C2732 C2733 1.392 . S
C2732 C2735 1.511 . S
C2733 C2729 1.376 . S
C2733 C2732 1.392 . S
C2733 H2745 0.929 . S
C2734 C2730 1.531 . S
C2734 H2746 0.960 . S
C2734 H2747 0.962 . S
C2734 H2748 0.960 . S
C2735 C2732 1.511 . S
C2735 H2749 0.961 . S
C2735 H2750 0.961 . S
C2735 H2751 0.961 . S
C2736 C2737 1.370 . S
C2736 C2738 1.363 . S
C2736 H2752 0.931 . S
C2737 C2736 1.370 . S
C2737 C2741 1.408 . S
C2738 C2736 1.363 . S
C2738 C2739 1.370 . S
C2738 C2742 1.524 . S
C2739 C2731 1.503 . S
C2739 C2738 1.370 . S
C2739 C2740 1.403 . S
C2740 C2739 1.403 . S
C2740 C2741 1.404 . S
C2740 C2743 1.539 . S
C2741 C2737 1.408 . S
C2741 C2740 1.404 . S
C2741 H2753 0.930 . S
C2742 C2738 1.524 . S
C2742 H2754 0.956 . S
C2742 H2755 0.961 . S
C2742 H2756 0.961 . S
C2743 C2740 1.539 . S
C2743 H2757 0.958 . S
C2743 H2758 0.961 . S
C2743 H2759 0.960 . S
H2744 C2728 0.931 . S
H2745 C2733 0.929 . S
H2746 C2734 0.960 . S
H2747 C2734 0.962 . S
H2748 C2734 0.960 . S
H2749 C2735 0.961 . S
H2750 C2735 0.961 . S
H2751 C2735 0.961 . S
H2752 C2736 0.931 . S
H2753 C2741 0.930 . S
H2754 C2742 0.956 . S
H2755 C2742 0.961 . S
H2756 C2742 0.961 . S
H2757 C2743 0.958 . S
H2758 C2743 0.961 . S
H2759 C2743 0.960 . S
C2760 C2761 1.391 . S
C2760 C2762 1.394 . S
C2760 H2776 0.931 . S
C2761 C2760 1.391 . S
C2761 C2765 1.376 . S
C2762 C2760 1.394 . S
C2762 C2763 1.369 . S
C2762 C2766 1.531 . S
C2763 C2762 1.369 . S
C2763 C2764 1.410 . S
C2763 C2771 1.503 . S
C2764 C2763 1.410 . S
C2764 C2765 1.392 . S
C2764 C2767 1.511 . S
C2765 C2761 1.376 . S
C2765 C2764 1.392 . S
C2765 H2777 0.929 . S
C2766 C2762 1.531 . S
C2766 H2778 0.960 . S
C2766 H2779 0.962 . S
C2766 H2780 0.960 . S
C2767 C2764 1.511 . S
C2767 H2781 0.961 . S
C2767 H2782 0.961 . S
C2767 H2783 0.961 . S
C2768 C2769 1.370 . S
C2768 C2770 1.363 . S
C2768 H2784 0.931 . S
C2769 C2768 1.370 . S
C2769 C2773 1.408 . S
C2770 C2768 1.363 . S
C2770 C2771 1.370 . S
C2770 C2774 1.524 . S
C2771 C2763 1.503 . S
C2771 C2770 1.370 . S
C2771 C2772 1.403 . S
C2772 C2771 1.403 . S
C2772 C2773 1.404 . S
C2772 C2775 1.539 . S
C2773 C2769 1.408 . S
C2773 C2772 1.404 . S
C2773 H2785 0.930 . S
C2774 C2770 1.524 . S
C2774 H2786 0.956 . S
C2774 H2787 0.961 . S
C2774 H2788 0.961 . S
C2775 C2772 1.539 . S
C2775 H2789 0.958 . S
C2775 H2790 0.961 . S
C2775 H2791 0.960 . S
H2776 C2760 0.931 . S
H2777 C2765 0.929 . S
H2778 C2766 0.960 . S
H2779 C2766 0.962 . S
H2780 C2766 0.960 . S
H2781 C2767 0.961 . S
H2782 C2767 0.961 . S
H2783 C2767 0.961 . S
H2784 C2768 0.931 . S
H2785 C2773 0.930 . S
H2786 C2774 0.956 . S
H2787 C2774 0.961 . S
H2788 C2774 0.961 . S
H2789 C2775 0.958 . S
H2790 C2775 0.961 . S
H2791 C2775 0.960 . S
C2792 C2793 1.391 . S
C2792 C2794 1.394 . S
C2792 H2808 0.931 . S
C2793 C2792 1.391 . S
C2793 C2797 1.376 . S
C2794 C2792 1.394 . S
C2794 C2795 1.369 . S
C2794 C2798 1.531 . S
C2795 C2794 1.369 . S
C2795 C2796 1.410 . S
C2795 C2803 1.503 . S
C2796 C2795 1.410 . S
C2796 C2797 1.392 . S
C2796 C2799 1.511 . S
C2797 C2793 1.376 . S
C2797 C2796 1.392 . S
C2797 H2809 0.929 . S
C2798 C2794 1.531 . S
C2798 H2810 0.960 . S
C2798 H2811 0.962 . S
C2798 H2812 0.960 . S
C2799 C2796 1.511 . S
C2799 H2813 0.961 . S
C2799 H2814 0.961 . S
C2799 H2815 0.961 . S
C2800 C2801 1.370 . S
C2800 C2802 1.363 . S
C2800 H2816 0.931 . S
C2801 C2800 1.370 . S
C2801 C2805 1.408 . S
C2802 C2800 1.363 . S
C2802 C2803 1.370 . S
C2802 C2806 1.524 . S
C2803 C2795 1.503 . S
C2803 C2802 1.370 . S
C2803 C2804 1.403 . S
C2804 C2803 1.403 . S
C2804 C2805 1.404 . S
C2804 C2807 1.539 . S
C2805 C2801 1.408 . S
C2805 C2804 1.404 . S
C2805 H2817 0.930 . S
C2806 C2802 1.524 . S
C2806 H2818 0.956 . S
C2806 H2819 0.961 . S
C2806 H2820 0.961 . S
C2807 C2804 1.539 . S
C2807 H2821 0.958 . S
C2807 H2822 0.961 . S
C2807 H2823 0.960 . S
H2808 C2792 0.931 . S
H2809 C2797 0.929 . S
H2810 C2798 0.960 . S
H2811 C2798 0.962 . S
H2812 C2798 0.960 . S
H2813 C2799 0.961 . S
H2814 C2799 0.961 . S
H2815 C2799 0.961 . S
H2816 C2800 0.931 . S
H2817 C2805 0.930 . S
H2818 C2806 0.956 . S
H2819 C2806 0.961 . S
H2820 C2806 0.961 . S
H2821 C2807 0.958 . S
H2822 C2807 0.961 . S
H2823 C2807 0.960 . S
C2824 C2825 1.391 . S
C2824 C2826 1.394 . S
C2824 H2840 0.931 . S
C2825 C2824 1.391 . S
C2825 C2829 1.376 . S
C2826 C2824 1.394 . S
C2826 C2827 1.369 . S
C2826 C2830 1.531 . S
C2827 C2826 1.369 . S
C2827 C2828 1.410 . S
C2827 C2835 1.503 . S
C2828 C2827 1.410 . S
C2828 C2829 1.392 . S
C2828 C2831 1.511 . S
C2829 C2825 1.376 . S
C2829 C2828 1.392 . S
C2829 H2841 0.929 . S
C2830 C2826 1.531 . S
C2830 H2842 0.960 . S
C2830 H2843 0.962 . S
C2830 H2844 0.960 . S
C2831 C2828 1.511 . S
C2831 H2845 0.961 . S
C2831 H2846 0.961 . S
C2831 H2847 0.961 . S
C2832 C2833 1.370 . S
C2832 C2834 1.363 . S
C2832 H2848 0.931 . S
C2833 C2832 1.370 . S
C2833 C2837 1.408 . S
C2834 C2832 1.363 . S
C2834 C2835 1.370 . S
C2834 C2838 1.524 . S
C2835 C2827 1.503 . S
C2835 C2834 1.370 . S
C2835 C2836 1.403 . S
C2836 C2835 1.403 . S
C2836 C2837 1.404 . S
C2836 C2839 1.539 . S
C2837 C2833 1.408 . S
C2837 C2836 1.404 . S
C2837 H2849 0.930 . S
C2838 C2834 1.524 . S
C2838 H2850 0.956 . S
C2838 H2851 0.961 . S
C2838 H2852 0.961 . S
C2839 C2836 1.539 . S
C2839 H2853 0.958 . S
C2839 H2854 0.961 . S
C2839 H2855 0.960 . S
H2840 C2824 0.931 . S
H2841 C2829 0.929 . S
H2842 C2830 0.960 . S
H2843 C2830 0.962 . S
H2844 C2830 0.960 . S
H2845 C2831 0.961 . S
H2846 C2831 0.961 . S
H2847 C2831 0.961 . S
H2848 C2832 0.931 . S
H2849 C2837 0.930 . S
H2850 C2838 0.956 . S
H2851 C2838 0.961 . S
H2852 C2838 0.961 . S
H2853 C2839 0.958 . S
H2854 C2839 0.961 . S
H2855 C2839 0.960 . S
C2856 C2857 1.391 . S
C2856 C2858 1.394 . S
C2856 H2872 0.931 . S
C2857 C2856 1.391 . S
C2857 C2861 1.376 . S
C2858 C2856 1.394 . S
C2858 C2859 1.369 . S
C2858 C2862 1.531 . S
C2859 C2858 1.369 . S
C2859 C2860 1.410 . S
C2859 C2867 1.503 . S
C2860 C2859 1.410 . S
C2860 C2861 1.392 . S
C2860 C2863 1.511 . S
C2861 C2857 1.376 . S
C2861 C2860 1.392 . S
C2861 H2873 0.929 . S
C2862 C2858 1.531 . S
C2862 H2874 0.960 . S
C2862 H2875 0.962 . S
C2862 H2876 0.960 . S
C2863 C2860 1.511 . S
C2863 H2877 0.961 . S
C2863 H2878 0.961 . S
C2863 H2879 0.961 . S
C2864 C2865 1.370 . S
C2864 C2866 1.363 . S
C2864 H2880 0.931 . S
C2865 C2864 1.370 . S
C2865 C2869 1.408 . S
C2866 C2864 1.363 . S
C2866 C2867 1.370 . S
C2866 C2870 1.524 . S
C2867 C2859 1.503 . S
C2867 C2866 1.370 . S
C2867 C2868 1.403 . S
C2868 C2867 1.403 . S
C2868 C2869 1.404 . S
C2868 C2871 1.539 . S
C2869 C2865 1.408 . S
C2869 C2868 1.404 . S
C2869 H2881 0.930 . S
C2870 C2866 1.524 . S
C2870 H2882 0.956 . S
C2870 H2883 0.961 . S
C2870 H2884 0.961 . S
C2871 C2868 1.539 . S
C2871 H2885 0.958 . S
C2871 H2886 0.961 . S
C2871 H2887 0.960 . S
H2872 C2856 0.931 . S
H2873 C2861 0.929 . S
H2874 C2862 0.960 . S
H2875 C2862 0.962 . S
H2876 C2862 0.960 . S
H2877 C2863 0.961 . S
H2878 C2863 0.961 . S
H2879 C2863 0.961 . S
H2880 C2864 0.931 . S
H2881 C2869 0.930 . S
H2882 C2870 0.956 . S
H2883 C2870 0.961 . S
H2884 C2870 0.961 . S
H2885 C2871 0.958 . S
H2886 C2871 0.961 . S
H2887 C2871 0.960 . S
C2888 C2889 1.391 . S
C2888 C2890 1.394 . S
C2888 H2904 0.931 . S
C2889 C2888 1.391 . S
C2889 C2893 1.376 . S
C2890 C2888 1.394 . S
C2890 C2891 1.369 . S
C2890 C2894 1.531 . S
C2891 C2890 1.369 . S
C2891 C2892 1.410 . S
C2891 C2899 1.503 . S
C2892 C2891 1.410 . S
C2892 C2893 1.392 . S
C2892 C2895 1.511 . S
C2893 C2889 1.376 . S
C2893 C2892 1.392 . S
C2893 H2905 0.929 . S
C2894 C2890 1.531 . S
C2894 H2906 0.960 . S
C2894 H2907 0.962 . S
C2894 H2908 0.960 . S
C2895 C2892 1.511 . S
C2895 H2909 0.961 . S
C2895 H2910 0.961 . S
C2895 H2911 0.961 . S
C2896 C2897 1.370 . S
C2896 C2898 1.363 . S
C2896 H2912 0.931 . S
C2897 C2896 1.370 . S
C2897 C2901 1.408 . S
C2898 C2896 1.363 . S
C2898 C2899 1.370 . S
C2898 C2902 1.524 . S
C2899 C2891 1.503 . S
C2899 C2898 1.370 . S
C2899 C2900 1.403 . S
C2900 C2899 1.403 . S
C2900 C2901 1.404 . S
C2900 C2903 1.539 . S
C2901 C2897 1.408 . S
C2901 C2900 1.404 . S
C2901 H2913 0.930 . S
C2902 C2898 1.524 . S
C2902 H2914 0.956 . S
C2902 H2915 0.961 . S
C2902 H2916 0.961 . S
C2903 C2900 1.539 . S
C2903 H2917 0.958 . S
C2903 H2918 0.961 . S
C2903 H2919 0.960 . S
H2904 C2888 0.931 . S
H2905 C2893 0.929 . S
H2906 C2894 0.960 . S
H2907 C2894 0.962 . S
H2908 C2894 0.960 . S
H2909 C2895 0.961 . S
H2910 C2895 0.961 . S
H2911 C2895 0.961 . S
H2912 C2896 0.931 . S
H2913 C2901 0.930 . S
H2914 C2902 0.956 . S
H2915 C2902 0.961 . S
H2916 C2902 0.961 . S
H2917 C2903 0.958 . S
H2918 C2903 0.961 . S
H2919 C2903 0.960 . S
C2920 C2921 1.391 . S
C2920 C2922 1.394 . S
C2920 H2936 0.931 . S
C2921 C2920 1.391 . S
C2921 C2925 1.376 . S
C2922 C2920 1.394 . S
C2922 C2923 1.369 . S
C2922 C2926 1.531 . S
C2923 C2922 1.369 . S
C2923 C2924 1.410 . S
C2923 C2931 1.503 . S
C2924 C2923 1.410 . S
C2924 C2925 1.392 . S
C2924 C2927 1.511 . S
C2925 C2921 1.376 . S
C2925 C2924 1.392 . S
C2925 H2937 0.929 . S
C2926 C2922 1.531 . S
C2926 H2938 0.960 . S
C2926 H2939 0.962 . S
C2926 H2940 0.960 . S
C2927 C2924 1.511 . S
C2927 H2941 0.961 . S
C2927 H2942 0.961 . S
C2927 H2943 0.961 . S
C2928 C2929 1.370 . S
C2928 C2930 1.363 . S
C2928 H2944 0.931 . S
C2929 C2928 1.370 . S
C2929 C2933 1.408 . S
C2930 C2928 1.363 . S
C2930 C2931 1.370 . S
C2930 C2934 1.524 . S
C2931 C2923 1.503 . S
C2931 C2930 1.370 . S
C2931 C2932 1.403 . S
C2932 C2931 1.403 . S
C2932 C2933 1.404 . S
C2932 C2935 1.539 . S
C2933 C2929 1.408 . S
C2933 C2932 1.404 . S
C2933 H2945 0.930 . S
C2934 C2930 1.524 . S
C2934 H2946 0.956 . S
C2934 H2947 0.961 . S
C2934 H2948 0.961 . S
C2935 C2932 1.539 . S
C2935 H2949 0.958 . S
C2935 H2950 0.961 . S
C2935 H2951 0.960 . S
H2936 C2920 0.931 . S
H2937 C2925 0.929 . S
H2938 C2926 0.960 . S
H2939 C2926 0.962 . S
H2940 C2926 0.960 . S
H2941 C2927 0.961 . S
H2942 C2927 0.961 . S
H2943 C2927 0.961 . S
H2944 C2928 0.931 . S
H2945 C2933 0.930 . S
H2946 C2934 0.956 . S
H2947 C2934 0.961 . S
H2948 C2934 0.961 . S
H2949 C2935 0.958 . S
H2950 C2935 0.961 . S
H2951 C2935 0.960 . S
C2952 C2953 1.391 . S
C2952 C2954 1.394 . S
C2952 H2968 0.931 . S
C2953 C2952 1.391 . S
C2953 C2957 1.376 . S
C2954 C2952 1.394 . S
C2954 C2955 1.369 . S
C2954 C2958 1.531 . S
C2955 C2954 1.369 . S
C2955 C2956 1.410 . S
C2955 C2963 1.503 . S
C2956 C2955 1.410 . S
C2956 C2957 1.392 . S
C2956 C2959 1.511 . S
C2957 C2953 1.376 . S
C2957 C2956 1.392 . S
C2957 H2969 0.929 . S
C2958 C2954 1.531 . S
C2958 H2970 0.960 . S
C2958 H2971 0.962 . S
C2958 H2972 0.960 . S
C2959 C2956 1.511 . S
C2959 H2973 0.961 . S
C2959 H2974 0.961 . S
C2959 H2975 0.961 . S
C2960 C2961 1.370 . S
C2960 C2962 1.363 . S
C2960 H2976 0.931 . S
C2961 C2960 1.370 . S
C2961 C2965 1.408 . S
C2962 C2960 1.363 . S
C2962 C2963 1.370 . S
C2962 C2966 1.524 . S
C2963 C2955 1.503 . S
C2963 C2962 1.370 . S
C2963 C2964 1.403 . S
C2964 C2963 1.403 . S
C2964 C2965 1.404 . S
C2964 C2967 1.539 . S
C2965 C2961 1.408 . S
C2965 C2964 1.404 . S
C2965 H2977 0.930 . S
C2966 C2962 1.524 . S
C2966 H2978 0.956 . S
C2966 H2979 0.961 . S
C2966 H2980 0.961 . S
C2967 C2964 1.539 . S
C2967 H2981 0.958 . S
C2967 H2982 0.961 . S
C2967 H2983 0.960 . S
H2968 C2952 0.931 . S
H2969 C2957 0.929 . S
H2970 C2958 0.960 . S
H2971 C2958 0.962 . S
H2972 C2958 0.960 . S
H2973 C2959 0.961 . S
H2974 C2959 0.961 . S
H2975 C2959 0.961 . S
H2976 C2960 0.931 . S
H2977 C2965 0.930 . S
H2978 C2966 0.956 . S
H2979 C2966 0.961 . S
H2980 C2966 0.961 . S
H2981 C2967 0.958 . S
H2982 C2967 0.961 . S
H2983 C2967 0.960 . S
C2984 C2985 1.391 . S
C2984 C2986 1.394 1_565 S
C2984 H3000 0.931 . S
C2985 C2984 1.391 . S
C2985 C2989 1.376 . S
C2986 C2984 1.394 1_545 S
C2986 C2987 1.369 . S
C2986 C2990 1.531 . S
C2987 C2986 1.369 . S
C2987 C2988 1.410 1_545 S
C2987 C2995 1.503 . S
C2988 C2987 1.410 1_565 S
C2988 C2989 1.392 . S
C2988 C2991 1.524 . S
C2989 C2985 1.376 . S
C2989 C2988 1.392 . S
C2989 H3001 0.929 . S
C2990 C2986 1.531 . S
C2990 H3002 0.960 . S
C2990 H3003 0.962 . S
C2990 H3004 0.960 . S
C2991 C2988 1.524 . S
C2991 H3005 0.980 . S
C2991 H3006 0.932 1_565 S
C2991 H3007 0.958 . S
C2992 C2993 1.370 . S
C2992 C2994 1.363 . S
C2992 H3008 0.931 . S
C2993 C2992 1.370 . S
C2993 C2997 1.408 . S
C2994 C2992 1.363 . S
C2994 C2995 1.370 . S
C2994 C2998 1.524 . S
C2995 C2987 1.503 . S
C2995 C2994 1.370 . S
C2995 C2996 1.403 . S
C2996 C2995 1.403 . S
C2996 C2997 1.404 . S
C2996 C2999 1.539 . S
C2997 C2993 1.408 . S
C2997 C2996 1.404 . S
C2997 H3009 0.930 . S
C2998 C2994 1.524 . S
C2998 H3010 0.956 . S
C2998 H3011 0.961 . S
C2998 H3012 0.961 . S
C2999 C2996 1.539 . S
C2999 H3013 0.958 . S
C2999 H3014 0.961 . S
C2999 H3015 0.960 . S
H3000 C2984 0.931 . S
H3001 C2989 0.929 . S
H3002 C2990 0.960 . S
H3003 C2990 0.962 . S
H3004 C2990 0.960 . S
H3005 C2991 0.980 . S
H3006 C2991 0.932 1_545 S
H3007 C2991 0.958 . S
H3008 C2992 0.931 . S
H3009 C2997 0.930 . S
H3010 C2998 0.956 . S
H3011 C2998 0.961 . S
H3012 C2998 0.961 . S
H3013 C2999 0.958 . S
H3014 C2999 0.961 . S
H3015 C2999 0.960 . S
C3016 C3017 1.391 . S
C3016 C3018 1.394 . S
C3016 H3032 0.931 . S
C3017 C3016 1.391 . S
C3017 C3021 1.376 . S
C3018 C3016 1.394 . S
C3018 C3019 1.369 . S
C3018 C3022 1.531 . S
C3019 C3018 1.369 . S
C3019 C3020 1.410 . S
C3019 C3027 1.503 1_655 S
C3020 C3019 1.410 . S
C3020 C3021 1.392 . S
C3020 C3023 1.511 1_655 S
C3021 C3017 1.376 . S
C3021 C3020 1.392 . S
C3021 H3033 0.929 . S
C3022 C3018 1.531 . S
C3022 H3034 0.960 . S
C3022 H3035 0.962 . S
C3022 H3036 0.960 . S
C3023 C3020 1.511 1_455 S
C3023 H3037 0.961 1_455 S
C3023 H3038 0.961 . S
C3023 H3039 0.961 . S
C3024 C3025 1.370 . S
C3024 C3026 1.363 . S
C3024 H3040 0.931 . S
C3025 C3024 1.370 . S
C3025 C3029 1.408 . S
C3026 C3024 1.363 . S
C3026 C3027 1.370 . S
C3026 C3030 1.524 1_455 S
C3027 C3019 1.503 1_455 S
C3027 C3026 1.370 . S
C3027 C3028 1.403 . S
C3028 C3027 1.403 . S
C3028 C3029 1.404 . S
C3028 C3031 1.539 . S
C3029 C3025 1.408 . S
C3029 C3028 1.404 . S
C3029 H3041 0.930 . S
C3030 C3026 1.524 1_655 S
C3030 H3042 0.956 . S
C3030 H3043 0.961 . S
C3030 H3044 0.961 . S
C3031 C3028 1.539 . S
C3031 H3045 0.958 . S
C3031 H3046 0.961 . S
C3031 H3047 0.960 . S
H3032 C3016 0.931 . S
H3033 C3021 0.929 . S
H3034 C3022 0.960 . S
H3035 C3022 0.962 . S
H3036 C3022 0.960 . S
H3037 C3023 0.961 1_655 S
H3038 C3023 0.961 . S
H3039 C3023 0.961 . S
H3040 C3024 0.931 . S
H3041 C3029 0.930 . S
H3042 C3030 0.956 . S
H3043 C3030 0.961 . S
H3044 C3030 0.961 . S
H3045 C3031 0.958 . S
H3046 C3031 0.961 . S
H3047 C3031 0.960 . S
C3048 C3049 1.391 . S
C3048 C3050 1.394 . S
C3048 H3064 0.931 . S
C3049 C3048 1.391 . S
C3049 C3053 1.376 . S
C3050 C3048 1.394 . S
C3050 C3051 1.369 . S
C3050 C3054 1.531 . S
C3051 C3050 1.369 . S
C3051 C3052 1.410 . S
C3051 C3059 1.503 . S
C3052 C3051 1.410 . S
C3052 C3053 1.392 . S
C3052 C3055 1.511 . S
C3053 C3049 1.376 . S
C3053 C3052 1.392 . S
C3053 H3065 0.929 . S
C3054 C3050 1.531 . S
C3054 H3066 0.960 . S
C3054 H3067 0.962 . S
C3054 H3068 0.960 . S
C3055 C3052 1.511 . S
C3055 H3069 0.961 . S
C3055 H3070 0.961 . S
C3055 H3071 0.961 . S
C3056 C3057 1.370 . S
C3056 C3058 1.363 . S
C3056 H3072 0.931 . S
C3057 C3056 1.370 . S
C3057 C3061 1.408 . S
C3058 C3056 1.363 . S
C3058 C3059 1.370 . S
C3058 C3062 1.524 . S
C3059 C3051 1.503 . S
C3059 C3058 1.370 . S
C3059 C3060 1.403 . S
C3060 C3059 1.403 . S
C3060 C3061 1.404 . S
C3060 C3063 1.539 . S
C3061 C3057 1.408 . S
C3061 C3060 1.404 . S
C3061 H3073 0.930 . S
C3062 C3058 1.524 . S
C3062 H3074 0.956 . S
C3062 H3075 0.961 . S
C3062 H3076 0.961 . S
C3063 C3060 1.539 . S
C3063 H3077 0.958 . S
C3063 H3078 0.961 . S
C3063 H3079 0.960 . S
H3064 C3048 0.931 . S
H3065 C3053 0.929 . S
H3066 C3054 0.960 . S
H3067 C3054 0.962 . S
H3068 C3054 0.960 . S
H3069 C3055 0.961 . S
H3070 C3055 0.961 . S
H3071 C3055 0.961 . S
H3072 C3056 0.931 . S
H3073 C3061 0.930 . S
H3074 C3062 0.956 . S
H3075 C3062 0.961 . S
H3076 C3062 0.961 . S
H3077 C3063 0.958 . S
H3078 C3063 0.961 . S
H3079 C3063 0.960 . S
C3080 C3081 1.391 . S
C3080 C3082 1.394 . S
C3080 H3096 0.931 . S
C3081 C3080 1.391 . S
C3081 C3085 1.376 . S
C3082 C3080 1.394 . S
C3082 C3083 1.369 . S
C3082 C3086 1.531 . S
C3083 C3082 1.369 . S
C3083 C3084 1.410 . S
C3083 C3091 1.503 1_545 S
C3084 C3083 1.410 . S
C3084 C3085 1.392 . S
C3084 C3087 1.511 1_545 S
C3085 C3081 1.376 . S
C3085 C3084 1.392 . S
C3085 H3097 0.929 . S
C3086 C3082 1.531 . S
C3086 H3098 0.960 1_545 S
C3086 H3099 0.962 . S
C3086 H3100 0.960 . S
C3087 C3084 1.511 1_565 S
C3087 H3101 0.961 . S
C3087 H3102 0.961 . S
C3087 H3103 0.961 . S
C3088 C3089 1.370 . S
C3088 C3090 1.363 . S
C3088 H3104 0.931 . S
C3089 C3088 1.370 . S
C3089 C3093 1.408 . S
C3090 C3088 1.363 . S
C3090 C3091 1.370 . S
C3090 C3094 1.524 1_565 S
C3091 C3083 1.503 1_565 S
C3091 C3090 1.370 . S
C3091 C3092 1.403 . S
C3092 C3091 1.403 . S
C3092 C3093 1.404 . S
C3092 C3095 1.539 . S
C3093 C3089 1.408 . S
C3093 C3092 1.404 . S
C3093 H3105 0.930 . S
C3094 C3090 1.524 1_545 S
C3094 H3106 0.956 . S
C3094 H3107 0.961 . S
C3094 H3108 0.961 . S
C3095 C3092 1.539 . S
C3095 H3109 0.958 . S
C3095 H3110 0.961 . S
C3095 H3111 0.960 . S
H3096 C3080 0.931 . S
H3097 C3085 0.929 . S
H3098 C3086 0.960 1_565 S
H3099 C3086 0.962 . S
H3100 C3086 0.960 . S
H3101 C3087 0.961 . S
H3102 C3087 0.961 . S
H3103 C3087 0.961 . S
H3104 C3088 0.931 . S
H3105 C3093 0.930 . S
H3106 C3094 0.956 . S
H3107 C3094 0.961 . S
H3108 C3094 0.961 . S
H3109 C3095 0.958 . S
H3110 C3095 0.961 . S
H3111 C3095 0.960 . S
C3112 C3113 1.391 . S
C3112 C3114 1.394 . S
C3112 H3128 0.931 . S
C3113 C3112 1.391 . S
C3113 C3117 1.376 . S
C3114 C3112 1.394 . S
C3114 C3115 1.369 . S
C3114 C3118 1.531 . S
C3115 C3114 1.369 . S
C3115 C3116 1.410 . S
C3115 C3123 1.503 . S
C3116 C3115 1.410 . S
C3116 C3117 1.392 . S
C3116 C3119 1.511 . S
C3117 C3113 1.376 . S
C3117 C3116 1.392 . S
C3117 H3129 0.929 . S
C3118 C3114 1.531 . S
C3118 H3130 0.960 . S
C3118 H3131 0.962 . S
C3118 H3132 0.960 . S
C3119 C3116 1.511 . S
C3119 H3133 0.961 . S
C3119 H3134 0.961 . S
C3119 H3135 0.961 . S
C3120 C3121 1.370 . S
C3120 C3122 1.363 1_655 S
C3120 H3136 0.931 . S
C3121 C3120 1.370 . S
C3121 C3125 1.408 . S
C3122 C3120 1.363 1_455 S
C3122 C3123 1.370 . S
C3122 C3126 1.524 . S
C3123 C3115 1.503 . S
C3123 C3122 1.370 . S
C3123 C3124 1.403 . S
C3124 C3123 1.403 . S
C3124 C3125 1.403 1_455 S
C3124 C3127 1.541 1_455 S
C3125 C3121 1.408 . S
C3125 C3124 1.403 1_655 S
C3125 H3137 0.930 . S
C3126 C3122 1.524 . S
C3126 H3138 0.956 . S
C3126 H3139 0.961 . S
C3126 H3140 0.961 . S
C3127 C3124 1.541 1_655 S
C3127 H3141 0.957 1_655 S
C3127 H3142 0.965 . S
C3127 H3143 0.955 1_655 S
H3128 C3112 0.931 . S
H3129 C3117 0.929 . S
H3130 C3118 0.960 . S
H3131 C3118 0.962 . S
H3132 C3118 0.960 . S
H3133 C3119 0.961 . S
H3134 C3119 0.961 . S
H3135 C3119 0.961 . S
H3136 C3120 0.931 . S
H3137 C3125 0.930 . S
H3138 C3126 0.956 . S
H3139 C3126 0.961 . S
H3140 C3126 0.961 . S
H3141 C3127 0.957 1_455 S
H3142 C3127 0.965 . S
H3143 C3127 0.955 1_455 S
C3144 C3145 1.391 . S
C3144 C3146 1.394 . S
C3144 H3160 0.931 . S
C3145 C3144 1.391 . S
C3145 C3149 1.376 . S
C3146 C3144 1.394 . S
C3146 C3147 1.369 . S
C3146 C3150 1.531 . S
C3147 C3146 1.369 . S
C3147 C3148 1.410 . S
C3147 C3155 1.503 . S
C3148 C3147 1.410 . S
C3148 C3149 1.392 . S
C3148 C3151 1.511 . S
C3149 C3145 1.376 . S
C3149 C3148 1.392 . S
C3149 H3161 0.929 . S
C3150 C3146 1.531 . S
C3150 H3162 0.960 . S
C3150 H3163 0.962 . S
C3150 H3164 0.960 . S
C3151 C3148 1.511 . S
C3151 H3165 0.961 . S
C3151 H3166 0.961 . S
C3151 H3167 0.961 . S
C3152 C3153 1.370 . S
C3152 C3154 1.363 . S
C3152 H3168 0.931 . S
C3153 C3152 1.370 . S
C3153 C3157 1.408 . S
C3154 C3152 1.363 . S
C3154 C3155 1.370 . S
C3154 C3158 1.524 . S
C3155 C3147 1.503 . S
C3155 C3154 1.370 . S
C3155 C3156 1.403 . S
C3156 C3155 1.403 . S
C3156 C3157 1.404 . S
C3156 C3159 1.539 . S
C3157 C3153 1.408 . S
C3157 C3156 1.404 . S
C3157 H3169 0.930 . S
C3158 C3154 1.524 . S
C3158 H3170 0.956 . S
C3158 H3171 0.961 . S
C3158 H3172 0.961 . S
C3159 C3156 1.539 . S
C3159 H3173 0.958 . S
C3159 H3174 0.961 . S
C3159 H3175 0.960 . S
H3160 C3144 0.931 . S
H3161 C3149 0.929 . S
H3162 C3150 0.960 . S
H3163 C3150 0.962 . S
H3164 C3150 0.960 . S
H3165 C3151 0.961 . S
H3166 C3151 0.961 . S
H3167 C3151 0.961 . S
H3168 C3152 0.931 . S
H3169 C3157 0.930 . S
H3170 C3158 0.956 . S
H3171 C3158 0.961 . S
H3172 C3158 0.961 . S
H3173 C3159 0.958 . S
H3174 C3159 0.961 . S
H3175 C3159 0.960 . S
C3176 C3177 1.391 . S
C3176 C3178 1.394 . S
C3176 H3192 0.931 . S
C3177 C3176 1.391 . S
C3177 C3181 1.376 . S
C3178 C3176 1.394 . S
C3178 C3179 1.369 . S
C3178 C3182 1.531 . S
C3179 C3178 1.369 . S
C3179 C3180 1.410 . S
C3179 C3187 1.503 . S
C3180 C3179 1.410 . S
C3180 C3181 1.392 . S
C3180 C3183 1.511 . S
C3181 C3177 1.376 . S
C3181 C3180 1.392 . S
C3181 H3193 0.929 . S
C3182 C3178 1.531 . S
C3182 H3194 0.960 . S
C3182 H3195 0.962 . S
C3182 H3196 0.960 . S
C3183 C3180 1.511 . S
C3183 H3197 0.961 . S
C3183 H3198 0.961 . S
C3183 H3199 0.961 . S
C3184 C3185 1.370 . S
C3184 C3186 1.363 . S
C3184 H3200 0.931 . S
C3185 C3184 1.370 . S
C3185 C3189 1.408 . S
C3186 C3184 1.363 . S
C3186 C3187 1.370 . S
C3186 C3190 1.524 . S
C3187 C3179 1.503 . S
C3187 C3186 1.370 . S
C3187 C3188 1.403 . S
C3188 C3187 1.403 . S
C3188 C3189 1.404 . S
C3188 C3191 1.539 . S
C3189 C3185 1.408 . S
C3189 C3188 1.404 . S
C3189 H3201 0.930 . S
C3190 C3186 1.524 . S
C3190 H3202 0.956 . S
C3190 H3203 0.961 . S
C3190 H3204 0.961 . S
C3191 C3188 1.539 . S
C3191 H3205 0.958 . S
C3191 H3206 0.961 . S
C3191 H3207 0.960 . S
H3192 C3176 0.931 . S
H3193 C3181 0.929 . S
H3194 C3182 0.960 . S
H3195 C3182 0.962 . S
H3196 C3182 0.960 . S
H3197 C3183 0.961 . S
H3198 C3183 0.961 . S
H3199 C3183 0.961 . S
H3200 C3184 0.931 . S
H3201 C3189 0.930 . S
H3202 C3190 0.956 . S
H3203 C3190 0.961 . S
H3204 C3190 0.961 . S
H3205 C3191 0.958 . S
H3206 C3191 0.961 . S
H3207 C3191 0.960 . S
C3208 C3209 1.391 . S
C3208 C3210 1.394 . S
C3208 H3224 0.931 . S
C3209 C3208 1.391 . S
C3209 C3213 1.376 . S
C3210 C3208 1.394 . S
C3210 C3211 1.369 . S
C3210 C3214 1.531 . S
C3211 C3210 1.369 . S
C3211 C3212 1.410 . S
C3211 C3219 1.503 . S
C3212 C3211 1.410 . S
C3212 C3213 1.392 . S
C3212 C3215 1.511 . S
C3213 C3209 1.376 . S
C3213 C3212 1.392 . S
C3213 H3225 0.929 . S
C3214 C3210 1.531 . S
C3214 H3226 0.960 . S
C3214 H3227 0.962 . S
C3214 H3228 0.960 . S
C3215 C3212 1.511 . S
C3215 H3229 0.961 . S
C3215 H3230 0.961 . S
C3215 H3231 0.961 . S
C3216 C3217 1.370 . S
C3216 C3218 1.363 . S
C3216 H3232 0.931 . S
C3217 C3216 1.370 . S
C3217 C3221 1.408 . S
C3218 C3216 1.363 . S
C3218 C3219 1.370 . S
C3218 C3222 1.524 . S
C3219 C3211 1.503 . S
C3219 C3218 1.370 . S
C3219 C3220 1.403 . S
C3220 C3219 1.403 . S
C3220 C3221 1.404 . S
C3220 C3223 1.539 . S
C3221 C3217 1.408 . S
C3221 C3220 1.404 . S
C3221 H3233 0.930 . S
C3222 C3218 1.524 . S
C3222 H3234 0.956 . S
C3222 H3235 0.961 . S
C3222 H3236 0.961 . S
C3223 C3220 1.539 . S
C3223 H3237 0.958 . S
C3223 H3238 0.961 . S
C3223 H3239 0.960 . S
H3224 C3208 0.931 . S
H3225 C3213 0.929 . S
H3226 C3214 0.960 . S
H3227 C3214 0.962 . S
H3228 C3214 0.960 . S
H3229 C3215 0.961 . S
H3230 C3215 0.961 . S
H3231 C3215 0.961 . S
H3232 C3216 0.931 . S
H3233 C3221 0.930 . S
H3234 C3222 0.956 . S
H3235 C3222 0.961 . S
H3236 C3222 0.961 . S
H3237 C3223 0.958 . S
H3238 C3223 0.961 . S
H3239 C3223 0.960 . S
C1513 C67 0.977 . S
C1521 C226 0.876 . S
C1545 C58 0.806 . S
C1553 C151 0.981 . S
C1577 C142 0.881 . S
C1585 C235 0.975 . S
C1609 C319 0.951 . S
C1617 C394 0.927 . S
C1641 C478 0.972 . S
C1649 C403 0.965 . S
C1673 C487 0.952 . S
C1681 C310 0.923 . S
C1705 C730 0.810 . S
C1713 C571 0.981 . S
C1737 C562 0.806 . S
C1745 C655 0.981 . S
C1769 C739 0.960 . S
C1777 C646 0.916 . S
C1801 C898 0.959 . S
C1809 C823 0.965 . S
C1833 C907 0.986 . S
C1841 C982 0.869 . S
C1865 C814 0.809 . S
C1873 C991 0.980 . S
C1897 C1075 0.985 . S
C1905 C1234 0.871 . S
C1929 C1066 0.974 . S
C1937 C1159 0.965 . S
C1961 C1150 0.806 . S
C1969 C1243 0.981 . S
C1993 C1402 0.888 . S
C2001 C1327 0.975 . S
C2025 C1486 0.894 . S
C2033 C1411 0.974 . S
C2057 C1318 0.813 . S
C2065 C1495 0.979 . S
C2089 C74 1.905 . S
C2097 C494 1.878 . S
C2121 C326 1.884 . S
C2129 C158 1.890 . S
C2153 C410 1.888 . S
C2161 C242 1.865 . S
C2185 C578 1.904 . S
C2193 C998 1.879 . S
C2217 C662 1.886 . S
C2225 C830 1.865 . S
C2249 C914 1.887 . S
C2257 C746 1.865 . S
C2281 C1082 1.842 . S
C2289 C1502 1.880 . S
C2313 C1334 1.895 . S
C2321 C1166 1.886 . S
C2345 C1418 1.841 . S
C2353 C1250 1.884 . S
C2377 C903 2.103 . S
C2385 C63 2.093 . S
C2409 C147 2.074 . S
C2417 C987 2.090 . S
C2441 C819 2.077 . S
C2449 C231 2.098 . S
C2473 C315 2.076 . S
C2481 C1239 2.088 . S
C2505 C399 2.101 . S
C2513 C1071 2.095 . S
C2537 C1155 2.086 . S
C2545 C483 2.086 . S
C2569 C1407 2.072 . S
C2577 C567 2.095 . S
C2601 C651 2.102 . S
C2609 C1491 2.093 . S
C2633 C735 2.087 . S
C2641 C1323 2.086 . S
C2665 C237 1.473 . S
C2673 C56 1.714 . S
C2697 C69 1.524 . S
C2705 C140 1.704 . S
C2729 C224 1.694 . S
C2737 C153 1.543 . S
C2761 C405 1.484 . S
C2769 C308 1.710 . S
C2793 C489 1.566 . S
C2801 C392 1.703 . S
C2825 C476 1.690 . S
C2833 C321 1.543 . S
C2857 C741 1.472 . S
C2865 C560 1.714 . S
C2889 C644 1.690 . S
C2897 C573 1.543 . S
C2921 C657 1.544 . S
C2929 C728 1.708 . S
C2953 C812 1.714 . S
C2961 C909 1.538 . S
C2985 C896 1.704 . S
C2993 C993 1.513 . S
C3017 C825 1.554 . S
C3025 C980 1.702 . S
C3049 C1064 1.712 . S
C3057 C1245 1.543 . S
C3081 C1148 1.707 . S
C3089 C1077 1.528 . S
C3113 C1161 1.559 . S
C3121 C1232 1.702 . S
C3145 C1316 1.697 . S
C3153 C1413 1.522 . S
C3177 C1400 1.718 . S
C3185 C1497 1.507 . S
C3209 C1329 1.566 . S
C3217 C1484 1.704 . S
