# Generated by pormake.
# Topology sme, (6)-cn, num edge types: 1
# Building blocks:
#     Node 0, Type 0, BuildingBlock: OJICUG_clean_sbu_0, # of connection points: 6
#     Node 1, Type 0, BuildingBlock: OJICUG_clean_sbu_0, # of connection points: 6
#     Node 2, Type 0, BuildingBlock: OJICUG_clean_sbu_0, # of connection points: 6
#     Node 3, Type 0, BuildingBlock: OJICUG_clean_sbu_0, # of connection points: 6
#     Node 4, Type 0, BuildingBlock: OJICUG_clean_sbu_0, # of connection points: 6
#     Node 5, Type 0, BuildingBlock: OJICUG_clean_sbu_0, # of connection points: 6
#     Node 6, Type 0, BuildingBlock: OJICUG_clean_sbu_0, # of connection points: 6
#     Node 7, Type 0, BuildingBlock: OJICUG_clean_sbu_0, # of connection points: 6
#     Node 8, Type 0, BuildingBlock: OJICUG_clean_sbu_0, # of connection points: 6
#     Node 9, Type 0, BuildingBlock: OJICUG_clean_sbu_0, # of connection points: 6
#     Node 10, Type 0, BuildingBlock: OJICUG_clean_sbu_0, # of connection points: 6
#     Node 11, Type 0, BuildingBlock: OJICUG_clean_sbu_0, # of connection points: 6
#     Node 12, Type 0, BuildingBlock: OJICUG_clean_sbu_0, # of connection points: 6
#     Node 13, Type 0, BuildingBlock: OJICUG_clean_sbu_0, # of connection points: 6
#     Node 14, Type 0, BuildingBlock: OJICUG_clean_sbu_0, # of connection points: 6
#     Node 15, Type 0, BuildingBlock: OJICUG_clean_sbu_0, # of connection points: 6
#     Node 16, Type 0, BuildingBlock: OJICUG_clean_sbu_0, # of connection points: 6
#     Node 17, Type 0, BuildingBlock: OJICUG_clean_sbu_0, # of connection points: 6
#     Edge 18, Type (0, 0), BuildingBlock: EZIPEK_clean_linker_0, # of connection points: 2
#     Edge 19, Type (0, 0), BuildingBlock: EZIPEK_clean_linker_0, # of connection points: 2
#     Edge 20, Type (0, 0), BuildingBlock: EZIPEK_clean_linker_0, # of connection points: 2
#     Edge 21, Type (0, 0), BuildingBlock: EZIPEK_clean_linker_0, # of connection points: 2
#     Edge 22, Type (0, 0), BuildingBlock: EZIPEK_clean_linker_0, # of connection points: 2
#     Edge 23, Type (0, 0), BuildingBlock: EZIPEK_clean_linker_0, # of connection points: 2
#     Edge 24, Type (0, 0), BuildingBlock: EZIPEK_clean_linker_0, # of connection points: 2
#     Edge 25, Type (0, 0), BuildingBlock: EZIPEK_clean_linker_0, # of connection points: 2
#     Edge 26, Type (0, 0), BuildingBlock: EZIPEK_clean_linker_0, # of connection points: 2
#     Edge 27, Type (0, 0), BuildingBlock: EZIPEK_clean_linker_0, # of connection points: 2
#     Edge 28, Type (0, 0), BuildingBlock: EZIPEK_clean_linker_0, # of connection points: 2
#     Edge 29, Type (0, 0), BuildingBlock: EZIPEK_clean_linker_0, # of connection points: 2
#     Edge 30, Type (0, 0), BuildingBlock: EZIPEK_clean_linker_0, # of connection points: 2
#     Edge 31, Type (0, 0), BuildingBlock: EZIPEK_clean_linker_0, # of connection points: 2
#     Edge 32, Type (0, 0), BuildingBlock: EZIPEK_clean_linker_0, # of connection points: 2
#     Edge 33, Type (0, 0), BuildingBlock: EZIPEK_clean_linker_0, # of connection points: 2
#     Edge 34, Type (0, 0), BuildingBlock: EZIPEK_clean_linker_0, # of connection points: 2
#     Edge 35, Type (0, 0), BuildingBlock: EZIPEK_clean_linker_0, # of connection points: 2
#     Edge 36, Type (0, 0), BuildingBlock: EZIPEK_clean_linker_0, # of connection points: 2
#     Edge 37, Type (0, 0), BuildingBlock: EZIPEK_clean_linker_0, # of connection points: 2
#     Edge 38, Type (0, 0), BuildingBlock: EZIPEK_clean_linker_0, # of connection points: 2
#     Edge 39, Type (0, 0), BuildingBlock: EZIPEK_clean_linker_0, # of connection points: 2
#     Edge 40, Type (0, 0), BuildingBlock: EZIPEK_clean_linker_0, # of connection points: 2
#     Edge 41, Type (0, 0), BuildingBlock: EZIPEK_clean_linker_0, # of connection points: 2
#     Edge 42, Type (0, 0), BuildingBlock: EZIPEK_clean_linker_0, # of connection points: 2
#     Edge 43, Type (0, 0), BuildingBlock: EZIPEK_clean_linker_0, # of connection points: 2
#     Edge 44, Type (0, 0), BuildingBlock: EZIPEK_clean_linker_0, # of connection points: 2
#     Edge 45, Type (0, 0), BuildingBlock: EZIPEK_clean_linker_0, # of connection points: 2
#     Edge 46, Type (0, 0), BuildingBlock: EZIPEK_clean_linker_0, # of connection points: 2
#     Edge 47, Type (0, 0), BuildingBlock: EZIPEK_clean_linker_0, # of connection points: 2
#     Edge 48, Type (0, 0), BuildingBlock: EZIPEK_clean_linker_0, # of connection points: 2
#     Edge 49, Type (0, 0), BuildingBlock: EZIPEK_clean_linker_0, # of connection points: 2
#     Edge 50, Type (0, 0), BuildingBlock: EZIPEK_clean_linker_0, # of connection points: 2
#     Edge 51, Type (0, 0), BuildingBlock: EZIPEK_clean_linker_0, # of connection points: 2
#     Edge 52, Type (0, 0), BuildingBlock: EZIPEK_clean_linker_0, # of connection points: 2
#     Edge 53, Type (0, 0), BuildingBlock: EZIPEK_clean_linker_0, # of connection points: 2
#     Edge 54, Type (0, 0), BuildingBlock: EZIPEK_clean_linker_0, # of connection points: 2
#     Edge 55, Type (0, 0), BuildingBlock: EZIPEK_clean_linker_0, # of connection points: 2
#     Edge 56, Type (0, 0), BuildingBlock: EZIPEK_clean_linker_0, # of connection points: 2
#     Edge 57, Type (0, 0), BuildingBlock: EZIPEK_clean_linker_0, # of connection points: 2
#     Edge 58, Type (0, 0), BuildingBlock: EZIPEK_clean_linker_0, # of connection points: 2
#     Edge 59, Type (0, 0), BuildingBlock: EZIPEK_clean_linker_0, # of connection points: 2
#     Edge 60, Type (0, 0), BuildingBlock: EZIPEK_clean_linker_0, # of connection points: 2
#     Edge 61, Type (0, 0), BuildingBlock: EZIPEK_clean_linker_0, # of connection points: 2
#     Edge 62, Type (0, 0), BuildingBlock: EZIPEK_clean_linker_0, # of connection points: 2
#     Edge 63, Type (0, 0), BuildingBlock: EZIPEK_clean_linker_0, # of connection points: 2
#     Edge 64, Type (0, 0), BuildingBlock: EZIPEK_clean_linker_0, # of connection points: 2
#     Edge 65, Type (0, 0), BuildingBlock: EZIPEK_clean_linker_0, # of connection points: 2
#     Edge 66, Type (0, 0), BuildingBlock: EZIPEK_clean_linker_0, # of connection points: 2
#     Edge 67, Type (0, 0), BuildingBlock: EZIPEK_clean_linker_0, # of connection points: 2
#     Edge 68, Type (0, 0), BuildingBlock: EZIPEK_clean_linker_0, # of connection points: 2
#     Edge 69, Type (0, 0), BuildingBlock: EZIPEK_clean_linker_0, # of connection points: 2
#     Edge 70, Type (0, 0), BuildingBlock: EZIPEK_clean_linker_0, # of connection points: 2
#     Edge 71, Type (0, 0), BuildingBlock: EZIPEK_clean_linker_0, # of connection points: 2
# Relax obj value: 0.180
# Max RMSD: 0.201
# Mean RMSD: 0.201
data_MOF--net-sme--node1-OJICUG_clean_sbu_0--edge1-EZIPEK_clean_linker_0
_symmetry_space_group_name_H-M    P1
_symmetry_Int_Tables_number       1
_symmetry_cell_setting            triclinic
loop_
_symmetry_equiv_pos_as_xyz
'x, y, z'
_cell_length_a     35.201063
_cell_length_b     35.194192
_cell_length_c     30.071688
_cell_angle_alpha  89.857551
_cell_angle_beta   90.063948
_cell_angle_gamma 119.89458
loop_
_atom_site_label
_atom_site_type_symbol
_atom_site_fract_x
_atom_site_fract_y
_atom_site_fract_z
_atom_type_partial_charge
Sc0 Sc 0.03897 0.31455 0.76469 0.0
Sc1 Sc 0.02685 0.22468 0.70418 0.0
Sc2 Sc 0.03411 0.22573 0.82051 0.0
O3 O 0.03301 0.25462 0.76301 0.0
C4 C 0.11547 0.32274 0.82364 0.0
C5 C 0.08051 0.32129 0.66851 0.0
C6 C 0.09221 0.20354 0.75404 0.0
C7 C 0.95736 0.25809 0.70584 0.0
C8 C -0.00796 0.278 0.85889 0.0
C9 C 0.96428 0.14346 0.76743 0.0
O10 O 0.10304 0.33858 0.79227 0.0
O11 O 0.07428 0.28265 0.66903 0.0
O12 O 0.07741 0.20511 0.79218 0.0
O13 O 0.97507 0.28701 0.73622 0.0
O14 O -0.00918 0.24155 0.8563 0.0
O15 O 0.97964 0.16063 0.72968 0.0
O16 O 0.01222 0.30831 0.83065 0.0
O17 O 0.97396 0.23644 0.68882 0.0
O18 O 0.97757 0.16443 0.80369 0.0
O19 O 0.06663 0.33557 0.69937 0.0
O20 O 0.09099 0.28552 0.84164 0.0
O21 O 0.07882 0.21159 0.71795 0.0
Sc22 Sc 0.86203 0.87965 0.69697 0.0
Sc23 Sc 0.8486 0.86915 0.81228 0.0
Sc24 Sc 0.77926 0.78433 0.74394 0.0
O25 O 0.83008 0.84496 0.75119 0.0
C26 C 0.76977 0.83238 0.6568 0.0
C27 C 0.8677 0.95468 0.76179 0.0
C28 C 0.74312 0.823 0.81188 0.0
C29 C 0.94012 0.8991 0.76187 0.0
C30 C 0.84642 0.7846 0.6798 0.0
C31 C 0.81498 0.77374 0.83907 0.0
O32 O 0.80215 0.86989 0.66621 0.0
O33 O 0.84985 0.92885 0.7943 0.0
O34 O 0.73803 0.80404 0.77465 0.0
O35 O 0.92369 0.89071 0.72303 0.0
O36 O 0.82271 0.76659 0.71385 0.0
O37 O 0.84847 0.81166 0.83738 0.0
O38 O 0.85401 0.82142 0.66425 0.0
O39 O 0.9181 0.89659 0.79669 0.0
O40 O 0.78591 0.76033 0.80878 0.0
O41 O 0.87557 0.94216 0.7249 0.0
O42 O 0.76152 0.79807 0.67878 0.0
O43 O 0.78043 0.84382 0.83119 0.0
Sc44 Sc 0.30015 0.0554 0.75949 0.0
Sc45 Sc 0.21416 0.05309 0.70208 0.0
Sc46 Sc 0.21478 0.05284 0.8191 0.0
O47 O 0.24256 0.05416 0.76029 0.0
C48 C 0.23969 0.97721 0.8193 0.0
C49 C 0.26314 0.00669 0.66721 0.0
C50 C 0.13043 0.98964 0.76082 0.0
C51 C 0.31512 0.13107 0.69786 0.0
C52 C 0.31059 0.10198 0.85326 0.0
C53 C 0.19109 0.11392 0.76112 0.0
O54 O 0.26619 -0.00869 0.78655 0.0
O55 O 0.22621 0.00446 0.6709 0.0
O56 O 0.15103 0.00415 0.79707 0.0
O57 O 0.32906 0.11929 0.73135 0.0
O58 O 0.27481 0.10239 0.85064 0.0
O59 O 0.19768 0.10035 0.72452 0.0
O60 O 0.32063 0.08167 0.82526 0.0
O61 O 0.27714 0.10763 0.68022 0.0
O62 O 0.1983 0.10244 0.79916 0.0
O63 O 0.29419 0.02913 0.6938 0.0
O64 O 0.22635 0.00013 0.84004 0.0
O65 O 0.14885 0.00153 0.72269 0.0
Sc66 Sc 0.04611 0.79263 0.24765 0.0
Sc67 Sc 0.03992 0.87648 0.3006 0.0
Sc68 Sc 0.03964 0.87243 0.18344 0.0
O69 O 0.04201 0.84763 0.24357 0.0
C70 C 0.09429 0.82837 0.15366 0.0
C71 C 0.11708 0.85448 0.31315 0.0
C72 C 0.10349 0.95798 0.23887 0.0
C73 C -0.00952 0.78097 0.33594 0.0
C74 C 0.96945 0.76902 0.18058 0.0
C75 C 0.97624 0.89487 0.23992 0.0
O76 O 0.08021 0.80207 0.18622 0.0
O77 O 0.0926 0.86864 0.3283 0.0
O78 O 0.09006 0.9388 0.20132 0.0
O79 O 0.01305 0.771 0.31078 0.0
O80 O -0.01235 0.80799 0.16481 0.0
O81 O -0.01058 0.89053 0.27807 0.0
O82 O 0.98498 0.75854 0.21372 0.0
O83 O -0.01024 0.81644 0.33105 0.0
O84 O -0.00948 0.88798 0.20389 0.0
O85 O 0.1071 0.82839 0.28054 0.0
O86 O 0.08756 0.86051 0.15049 0.0
O87 O 0.08942 0.93859 0.27599 0.0
Sc88 Sc 0.21637 0.23028 0.30126 0.0
Sc89 Sc 0.21901 0.22568 0.18513 0.0
Sc90 Sc 0.3019 0.31497 0.24311 0.0
O91 O 0.24525 0.25695 0.24306 0.0
C92 C 0.23987 0.33068 0.30324 0.0
C93 C 0.13382 0.20615 0.23803 0.0
C94 C 0.2634 0.32183 0.14905 0.0
C95 C 0.20325 0.14611 0.24951 0.0
C96 C 0.3127 0.27883 0.33677 0.0
C97 C 0.32021 0.25383 0.18445 0.0
O98 O 0.222 0.29213 0.31986 0.0
O99 O 0.15379 0.21223 0.20121 0.0
O100 O 0.29329 0.33486 0.17813 0.0
O101 O 0.20908 0.16775 0.28499 0.0
O102 O 0.32436 0.30882 0.30791 0.0
O103 O 0.2824 0.23553 0.16632 0.0
O104 O 0.27583 0.24412 0.33517 0.0
O105 O 0.20411 0.16227 0.21134 0.0
O106 O 0.33293 0.28251 0.21498 0.0
O107 O 0.15204 0.2105 0.27564 0.0
O108 O 0.26839 0.34479 0.27232 0.0
O109 O 0.22938 0.28425 0.15089 0.0
Sc110 Sc 0.86145 0.05068 0.29852 0.0
Sc111 Sc 0.86196 0.05637 0.18222 0.0
Sc112 Sc 0.77455 0.0514 0.24314 0.0
O113 O 0.83252 0.05239 0.24112 0.0
C114 C 0.75986 0.97647 0.30907 0.0
C115 C 0.87948 0.98848 0.23314 0.0
C116 C 0.7635 0.00557 0.14828 0.0
C117 C 0.94524 0.11463 0.24439 0.0
C118 C 0.81667 0.10321 0.33399 0.0
C119 C 0.83557 0.13154 0.18058 0.0
O120 O 0.80003 -0.00367 0.32068 0.0
O121 O 0.86858 -0.00022 0.19709 0.0
O122 O 0.74941 0.01752 0.181 0.0
O123 O 0.92493 0.10413 0.28117 0.0
O124 O 0.786 0.08541 0.30572 0.0
O125 O 0.85785 0.11421 0.16693 0.0
O126 O 0.84986 0.09813 0.33255 0.0
O127 O 0.92698 0.09847 0.20747 0.0
O128 O 0.80494 0.11305 0.20921 0.0
O129 O 0.87912 0.00459 0.27099 0.0
O130 O 0.74546 -0.00979 0.27763 0.0
O131 O 0.8031 0.01498 0.14504 0.0
Sc132 Sc 0.70931 0.65066 0.09013 0.0
Sc133 Sc 0.70746 0.56572 0.03065 0.0
Sc134 Sc 0.71373 0.56638 0.14698 0.0
O135 O 0.71001 0.59374 0.0893 0.0
C136 C 0.786 0.66926 0.15298 0.0
C137 C 0.75617 0.66118 0.99563 0.0
C138 C 0.77742 0.55001 0.08417 0.0
C139 C 0.63236 0.59175 0.02892 0.0
C140 C 0.66072 0.60918 0.18234 0.0
C141 C 0.64776 0.48181 0.09094 0.0
O142 O 0.77234 0.68078 0.11919 0.0
O143 O 0.75604 0.62529 0.99911 0.0
O144 O 0.7645 0.5545 0.1223 0.0
O145 O 0.64618 0.618 0.06162 0.0
O146 O 0.66287 0.57437 0.17867 0.0
O147 O 0.65899 0.50227 0.05413 0.0
O148 O 0.6803 0.64104 0.1555 0.0
O149 O 0.65364 0.5754 0.01034 0.0
O150 O 0.66432 0.49999 0.12811 0.0
O151 O 0.73731 0.6727 0.02419 0.0
O152 O 0.76517 0.63045 0.16921 0.0
O153 O 0.75998 0.55327 0.04829 0.0
Sc154 Sc 0.45119 0.12204 0.09075 0.0
Sc155 Sc 0.53396 0.20949 0.03233 0.0
Sc156 Sc 0.53266 0.21379 0.14803 0.0
O157 O 0.50594 0.18115 0.09048 0.0
C158 C 0.43246 0.18442 0.15145 0.0
C159 C 0.435 0.15803 0.99907 0.0
C160 C 0.55023 0.29273 0.0821 0.0
C161 C 0.51579 0.1121 0.02539 0.0
C162 C 0.48753 0.11485 0.18471 0.0
C163 C 0.61625 0.23246 0.09773 0.0
O164 O 0.41922 0.14912 0.12942 0.0
O165 O 0.47459 0.18775 0.99365 0.0
O166 O 0.5572 0.27803 0.11803 0.0
O167 O 0.48297 0.09511 0.05158 0.0
O168 O 0.51128 0.156 0.19019 0.0
O169 O 0.59801 0.2337 0.06147 0.0
O170 O 0.46879 0.0984 0.14818 0.0
O171 O 0.53678 0.15238 0.01448 0.0
O172 O 0.59516 0.21877 0.13423 0.0
O173 O 0.42241 0.1335 0.03308 0.0
O174 O 0.47224 0.21166 0.16061 0.0
O175 O 0.53244 0.2684 0.04854 0.0
Sc176 Sc 0.97463 0.39412 0.09929 0.0
Sc177 Sc 0.88657 0.38876 0.04188 0.0
Sc178 Sc 0.88456 0.38554 0.15709 0.0
O179 O 0.91581 0.38997 0.09937 0.0
C180 C 0.91585 0.31644 0.16681 0.0
C181 C 0.93803 0.33978 0.01123 0.0
C182 C 0.80535 0.32238 0.09277 0.0
C183 C 0.98254 0.46553 0.02942 0.0
C184 C 0.98509 0.44257 0.1885 0.0
C185 C 0.86384 0.44874 0.10597 0.0
O186 O 0.95157 0.34004 0.14583 0.0
O187 O 0.91181 0.354 0.00367 0.0
O188 O 0.81987 0.34566 0.12774 0.0
O189 O -0.00017 0.44795 0.05284 0.0
O190 O 0.94419 0.4219 0.19705 0.0
O191 O 0.85995 0.42666 0.07089 0.0
O192 O -0.00037 0.44307 0.14999 0.0
O193 O 0.94168 0.44927 0.02338 0.0
O194 O 0.87997 0.44347 0.14201 0.0
O195 O 0.95872 0.34669 0.04753 0.0
O196 O 0.88649 0.32728 0.17101 0.0
O197 O 0.82965 0.3276 0.05948 0.0
Sc198 Sc 0.70381 0.20432 0.63 0.0
Sc199 Sc 0.70369 0.20935 0.51372 0.0
Sc200 Sc 0.7166 0.12904 0.56912 0.0
O201 O 0.70856 0.18176 0.57058 0.0
C202 C 0.78572 0.18927 0.63592 0.0
C203 C 0.76247 0.29244 0.5748 0.0
C204 C 0.76275 0.17329 0.47718 0.0
C205 C 0.63399 0.21812 0.57539 0.0
C206 C 0.66128 0.10754 0.65813 0.0
C207 C 0.63869 0.10487 0.50496 0.0
O208 O 0.75854 0.19844 0.6541 0.0
O209 O 0.74962 0.27535 0.53634 0.0
O210 O 0.74681 0.14217 0.50498 0.0
O211 O 0.65033 0.21336 0.61105 0.0
O212 O 0.68806 0.10316 0.6336 0.0
O213 O 0.65587 0.14431 0.49035 0.0
O214 O 0.65571 0.1402 0.65386 0.0
O215 O 0.64985 0.21748 0.53753 0.0
O216 O 0.65465 0.09416 0.53758 0.0
O217 O 0.7497 0.2707 0.61094 0.0
O218 O 0.77827 0.16705 0.60042 0.0
O219 O 0.7571 0.20611 0.48077 0.0
Sc220 Sc 0.87917 0.56808 0.63581 0.0
Sc221 Sc 0.87766 0.56025 0.52081 0.0
Sc222 Sc 0.96793 0.64672 0.57275 0.0
O223 O 0.90876 0.59169 0.57658 0.0
C224 C 0.90851 0.67045 0.63026 0.0
C225 C 0.79679 0.54703 0.574 0.0
C226 C 0.92941 0.65592 0.47963 0.0
C227 C 0.85647 0.48118 0.58878 0.0
C228 C 0.9778 0.61416 0.66953 0.0
C229 C 0.97552 0.57692 0.51618 0.0
O230 O 0.88458 0.63176 0.64634 0.0
O231 O 0.81918 0.562 0.5386 0.0
O232 O 0.95844 0.66926 0.50957 0.0
O233 O 0.8726 0.50449 0.62359 0.0
O234 O -0.00771 0.63773 0.63503 0.0
O235 O 0.93565 0.55715 0.50303 0.0
O236 O 0.93761 0.58641 0.67452 0.0
O237 O 0.85283 0.49684 0.55187 0.0
O238 O -0.00721 0.61014 0.54156 0.0
O239 O 0.81373 0.54298 0.60969 0.0
O240 O 0.94026 0.68134 0.60347 0.0
O241 O 0.896 0.61796 0.48071 0.0
Sc242 Sc 0.52706 0.3824 0.63319 0.0
Sc243 Sc 0.53061 0.38889 0.5168 0.0
Sc244 Sc 0.44378 0.38571 0.57444 0.0
O245 O 0.50076 0.38542 0.57499 0.0
C246 C 0.42571 0.30619 0.63327 0.0
C247 C 0.55142 0.32377 0.57074 0.0
C248 C 0.43587 0.33852 0.4816 0.0
C249 C 0.60987 0.45506 0.57893 0.0
C250 C 0.47958 0.43107 0.6692 0.0
C251 C 0.50529 0.46394 0.51593 0.0
O252 O 0.46375 0.32673 0.65134 0.0
O253 O 0.54808 0.33966 0.53386 0.0
O254 O 0.42489 0.35925 0.50825 0.0
O255 O 0.59147 0.43723 0.61579 0.0
O256 O 0.44981 0.41271 0.64011 0.0
O257 O 0.51879 0.44106 0.49556 0.0
O258 O 0.51431 0.42871 0.6681 0.0
O259 O 0.59168 0.43921 0.54187 0.0
O260 O 0.47828 0.44999 0.54811 0.0
O261 O 0.54342 0.33552 0.6078 0.0
O262 O 0.41288 0.32133 0.6017 0.0
O263 O 0.47162 0.33837 0.48582 0.0
Sc264 Sc 0.37513 0.985 0.42647 0.0
Sc265 Sc 0.36893 0.89498 0.37027 0.0
Sc266 Sc 0.37933 0.90094 0.48603 0.0
O267 O 0.37434 0.92708 0.42763 0.0
C268 C 0.45459 0.00154 0.48911 0.0
C269 C 0.42201 -0.00683 0.3334 0.0
C270 C 0.43625 0.8772 0.41934 0.0
C271 C 0.29487 0.9221 0.36634 0.0
C272 C 0.32865 0.94931 0.52049 0.0
C273 C 0.312 0.81565 0.43821 0.0
O274 O 0.4352 0.01468 0.46278 0.0
O275 O 0.40867 0.95252 0.33011 0.0
O276 O 0.41898 0.87614 0.4568 0.0
O277 O 0.31484 0.956 0.39058 0.0
O278 O 0.34108 0.92137 0.52572 0.0
O279 O 0.32903 0.83165 0.40066 0.0
O280 O 0.3376 0.97282 0.48594 0.0
O281 O 0.30995 0.89707 0.35562 0.0
O282 O 0.32107 0.83864 0.47342 0.0
O283 O 0.41273 0.00932 0.36634 0.0
O284 O 0.43839 0.96134 0.50004 0.0
O285 O 0.4267 0.89036 0.3838 0.0
Sc286 Sc 0.20467 0.54312 0.37205 0.0
Sc287 Sc 0.19612 0.5409 0.48824 0.0
Sc288 Sc 0.11423 0.45701 0.42546 0.0
O289 O 0.17184 0.5141 0.42857 0.0
C290 C 0.10915 0.50075 0.33405 0.0
C291 C 0.22348 0.6266 0.42854 0.0
C292 C 0.0953 0.51625 0.48622 0.0
C293 C 0.28225 0.55632 0.43798 0.0
C294 C 0.17624 0.44138 0.36565 0.0
C295 C 0.14628 0.44332 0.52067 0.0
O296 O 0.147 0.53437 0.33688 0.0
O297 O 0.21664 0.60631 0.46529 0.0
O298 O 0.08339 0.48883 0.4546 0.0
O299 O 0.26676 0.55636 0.3997 0.0
O300 O 0.14738 0.42704 0.39616 0.0
O301 O 0.18113 0.48015 0.52052 0.0
O302 O 0.19508 0.48038 0.35011 0.0
O303 O 0.25994 0.54953 0.47334 0.0
O304 O 0.11805 0.43232 0.49002 0.0
O305 O 0.21872 0.6082 0.39093 0.0
O306 O 0.09591 0.46878 0.36075 0.0
O307 O 0.13302 0.53434 0.50485 0.0
Sc308 Sc 0.55072 0.71926 0.36012 0.0
Sc309 Sc 0.55502 0.71877 0.47662 0.0
Sc310 Sc 0.63978 0.72365 0.41427 0.0
O311 O 0.5813 0.72066 0.41707 0.0
C312 C 0.59656 0.66977 0.32542 0.0
C313 C 0.46992 0.65396 0.4217 0.0
C314 C 0.58543 0.64715 0.47784 0.0
C315 C 0.5304 0.78121 0.42039 0.0
C316 C 0.6512 0.79531 0.3486 0.0
C317 C 0.65161 0.77341 0.50663 0.0
O318 O 0.56001 0.66802 0.33139 0.0
O319 O 0.49234 0.66596 0.45723 0.0
O320 O 0.61037 0.661 0.44404 0.0
O321 O 0.53747 0.7694 0.38278 0.0
O322 O 0.66508 0.78571 0.38363 0.0
O323 O 0.61489 0.77183 0.50384 0.0
O324 O 0.61277 0.77059 0.33297 0.0
O325 O 0.53501 0.76604 0.4574 0.0
O326 O 0.66286 0.75367 0.47896 0.0
O327 O 0.48599 0.66996 0.3836 0.0
O328 O 0.62967 0.69359 0.34943 0.0
O329 O 0.57056 0.66892 0.4982 0.0
Sc330 Sc 0.38056 0.46051 0.91525 0.0
Sc331 Sc 0.37346 0.54364 0.96926 0.0
Sc332 Sc 0.37018 0.54033 0.85364 0.0
O333 O 0.37573 0.51532 0.91242 0.0
C334 C 0.42279 0.49456 0.81869 0.0
C335 C 0.45509 0.52702 0.97594 0.0
C336 C 0.43291 0.62588 0.90504 0.0
C337 C 0.3298 0.44772 0.00666 0.0
C338 C 0.29732 0.43775 0.85825 0.0
C339 C 0.30659 0.55856 0.91447 0.0
O340 O 0.41231 0.46954 0.85218 0.0
O341 O 0.43267 0.54404 0.99022 0.0
O342 O 0.42508 0.60508 0.86824 0.0
O343 O 0.34985 0.43716 0.9789 0.0
O344 O 0.31278 0.47632 0.84153 0.0
O345 O 0.31488 0.54469 0.95016 0.0
O346 O 0.31785 0.4264 0.88515 0.0
O347 O 0.33065 0.48399 0.00445 0.0
O348 O 0.32758 0.56287 0.87885 0.0
O349 O 0.44218 0.49704 0.94667 0.0
O350 O 0.41233 0.52407 0.81517 0.0
O351 O 0.41454 0.60768 0.94155 0.0
Sc352 Sc 0.54841 0.90121 0.96189 0.0
Sc353 Sc 0.54606 0.88886 0.84751 0.0
Sc354 Sc 0.63722 0.97764 0.89752 0.0
O355 O 0.57755 0.92324 0.90231 0.0
C356 C 0.57984 0.00294 0.95936 0.0
C357 C 0.46606 0.87749 0.89821 0.0
C358 C 0.59727 0.9835 0.80338 0.0
C359 C 0.52669 0.81345 0.91844 0.0
C360 C 0.64801 0.94784 0.99469 0.0
C361 C 0.64252 0.90368 0.84279 0.0
O362 O 0.55285 0.96365 0.97133 0.0
O363 O 0.48774 0.8916 0.86233 0.0
O364 O 0.62369 0.00018 0.83569 0.0
O365 O 0.54329 0.83794 0.95233 0.0
O366 O 0.6635 0.96726 0.95805 0.0
O367 O 0.60193 0.88282 0.83321 0.0
O368 O 0.60729 0.92295 0.00098 0.0
O369 O 0.5206 0.82727 0.88163 0.0
O370 O 0.66152 0.94046 0.86298 0.0
O371 O 0.48337 0.87547 0.93458 0.0
O372 O 0.61305 0.01381 0.93431 0.0
O373 O 0.5668 0.94392 0.80322 0.0
Sc374 Sc 0.19375 0.71227 0.96923 0.0
Sc375 Sc 0.19498 0.71421 0.85248 0.0
Sc376 Sc 0.1132 0.72045 0.91103 0.0
O377 O 0.16763 0.71554 0.91087 0.0
C378 C 0.09084 0.6415 0.97119 0.0
C379 C 0.20448 0.64294 0.90879 0.0
C380 C 0.09926 0.67168 0.81765 0.0
C381 C 0.27883 0.77282 0.91358 0.0
C382 C 0.15299 0.76715 0.00419 0.0
C383 C 0.17933 0.79634 0.85145 0.0
O384 O 0.12902 0.66053 0.98886 0.0
O385 O 0.20064 0.65764 0.87127 0.0
O386 O 0.09073 0.6932 0.84569 0.0
O387 O 0.25964 0.76179 0.95114 0.0
O388 O 0.12202 0.74876 0.97642 0.0
O389 O 0.19194 0.77219 0.83189 0.0
O390 O 0.1866 0.76293 0.00229 0.0
O391 O 0.25959 0.75713 0.87688 0.0
O392 O 0.15171 0.78345 0.88318 0.0
O393 O 0.20498 0.66172 0.94492 0.0
O394 O 0.07889 0.65701 0.93933 0.0
O395 O 0.13431 0.67004 0.81933 0.0
C396 C 0.18711 0.18308 0.76864 0.0
C397 C 0.16664 0.13791 0.75809 0.0
C398 C 0.09807 0.13709 0.74127 0.0
C399 C 0.11898 0.18231 0.75101 0.0
N400 N 0.18638 0.25071 0.75613 0.0
N401 N 0.10623 0.07554 0.72114 0.0
C402 C 0.16444 0.20617 0.75962 0.0
C403 C 0.12329 0.11602 0.74019 0.0
N404 N 0.22793 0.20397 0.78717 0.0
N405 N 0.05388 0.11396 0.73369 0.0
H406 H 0.12162 0.05696 0.72144 0.0
H407 H 0.0776 0.06123 0.70228 0.0
H408 H 0.03432 0.1284 0.73213 0.0
H409 H 0.03597 0.07995 0.73141 0.0
H410 H 0.24248 0.23604 0.79895 0.0
H411 H 0.24583 0.18822 0.79354 0.0
H412 H 0.22047 0.2693 0.75612 0.0
H413 H 0.17051 0.26824 0.74834 0.0
C414 C 0.89721 0.07376 0.74254 0.0
C415 C 0.935 0.09521 0.7699 0.0
C416 C 0.91807 0.02453 0.80216 0.0
C417 C 0.88547 0.00246 0.76896 0.0
N418 N 0.84303 0.00592 0.70773 0.0
N419 N -0.01333 0.08917 0.81869 0.0
C420 C 0.87471 0.0271 0.73918 0.0
C421 C 0.94657 0.07024 0.79826 0.0
N422 N 0.88215 0.09787 0.72093 0.0
N423 N 0.92331 0.00238 0.8369 0.0
H424 H 0.01084 0.12175 0.81439 0.0
H425 H -0.00167 0.07127 0.83582 0.0
H426 H 0.90653 0.96857 0.84068 0.0
H427 H 0.94269 0.0184 0.86445 0.0
H428 H 0.85255 0.08405 0.70374 0.0
H429 H 0.89734 0.1319 0.72367 0.0
H430 H 0.8373 0.02195 0.68167 0.0
H431 H 0.82348 0.97186 0.70677 0.0
C432 C 0.01059 0.89684 0.75395 0.0
C433 C -0.01139 0.92011 0.76518 0.0
C434 C 0.059 0.98493 0.78215 0.0
C435 C 0.0816 0.96429 0.76395 0.0
N436 N 0.07864 0.90033 0.73145 0.0
N437 N -0.00711 0.9893 0.78022 0.0
C438 C 0.05727 0.92011 0.74935 0.0
C439 C 0.01306 0.96483 0.77697 0.0
N440 N -0.01301 0.85236 0.74952 0.0
N441 N 0.08088 0.02391 0.80433 0.0
H442 H 0.9597 0.97669 0.77373 0.0
H443 H 0.00989 0.02314 0.78446 0.0
H444 H 0.11472 0.04272 0.8066 0.0
H445 H 0.06485 0.03656 0.82308 0.0
H446 H 0.00128 0.83281 0.74595 0.0
H447 H 0.953 0.83465 0.75337 0.0
H448 H 0.06258 0.86984 0.71599 0.0
H449 H 0.11275 0.91559 0.73 0.0
C450 C 0.90589 0.89641 0.25273 0.0
C451 C 0.94948 0.91682 0.23636 0.0
C452 C 0.94312 0.97975 0.21033 0.0
C453 C 0.90109 0.96139 0.2305 0.0
N454 N 0.84276 0.90357 0.27268 0.0
N455 N 0.01204 0.98082 0.20509 0.0
C456 C 0.88255 0.92003 0.25225 0.0
C457 C 0.96854 0.95904 0.21624 0.0
N458 N 0.88647 0.85399 0.26733 0.0
N459 N 0.9593 0.01741 0.18569 0.0
H460 H 0.03224 0.96723 0.20782 0.0
H461 H 0.02947 0.01393 0.19676 0.0
H462 H 0.94448 0.03654 0.18344 0.0
H463 H -0.0136 0.02855 0.16483 0.0
H464 H 0.85347 0.83538 0.27565 0.0
H465 H 0.9028 0.83609 0.26804 0.0
H466 H 0.82935 0.876 0.29303 0.0
H467 H 0.82375 0.9187 0.27074 0.0
C468 C 0.17151 0.02915 0.2156 0.0
C469 C 0.13247 0.00643 0.24116 0.0
C470 C 0.15473 0.07275 0.28448 0.0
C471 C 0.18745 0.09802 0.25273 0.0
N472 N 0.23016 0.09947 0.18936 0.0
N473 N 0.08188 0.01209 0.29212 0.0
C474 C 0.19677 0.07592 0.21848 0.0
C475 C 0.12254 0.02984 0.27322 0.0
N476 N 0.18546 0.0063 0.19027 0.0
N477 N 0.15455 0.08843 0.32594 0.0
H478 H 0.05561 0.98177 0.28314 0.0
H479 H 0.07294 0.03008 0.31282 0.0
H480 H 0.18099 0.11653 0.33897 0.0
H481 H 0.13168 0.06936 0.35013 0.0
H482 H 0.21574 0.02081 0.17434 0.0
H483 H 0.16851 0.9722 0.18834 0.0
H484 H 0.23515 0.08623 0.1605 0.0
H485 H 0.25238 0.13273 0.19381 0.0
C486 C 0.06302 0.20695 0.22861 0.0
C487 C 0.08551 0.18373 0.23759 0.0
C488 C 0.01661 0.11792 0.25667 0.0
C489 C -0.00645 0.14001 0.24498 0.0
N490 N -0.00685 0.20342 0.21517 0.0
N491 N 0.08334 0.11487 0.24963 0.0
C492 C 0.01629 0.18399 0.22948 0.0
C493 C 0.06218 0.13859 0.24871 0.0
N494 N 0.0864 0.25093 0.22021 0.0
N495 N -0.00489 0.07718 0.27572 0.0
H496 H 0.1167 0.12861 0.24325 0.0
H497 H 0.06719 0.08084 0.25205 0.0
H498 H 0.96144 0.05991 0.28104 0.0
H499 H 0.01107 0.06181 0.28962 0.0
H500 H 0.07248 0.27093 0.21804 0.0
H501 H 0.12048 0.26797 0.21772 0.0
H502 H 0.00737 0.23376 0.19933 0.0
H503 H 0.95905 0.18801 0.2171 0.0
C504 C 0.80616 0.46316 0.07714 0.0
C505 C 0.84408 0.47782 0.10373 0.0
C506 C 0.84379 0.54712 0.11379 0.0
C507 C 0.80865 0.53278 0.08272 0.0
N508 N 0.77537 0.48564 0.01885 0.0
N509 N 0.90448 0.53893 0.14106 0.0
C510 C 0.79602 0.49377 0.05897 0.0
C511 C 0.86472 0.52144 0.12049 0.0
N512 N 0.77824 0.41961 0.07082 0.0
N513 N 0.85751 0.58539 0.13625 0.0
H514 H 0.92076 0.52144 0.14627 0.0
H515 H 0.92286 0.57187 0.1498 0.0
H516 H 0.84591 0.6068 0.12883 0.0
H517 H 0.87928 0.59491 0.16284 0.0
H518 H 0.74899 0.4083 0.05341 0.0
H519 H 0.78158 0.39575 0.08819 0.0
H520 H 0.76787 0.45762 0.00046 0.0
H521 H 0.77162 0.50905 0.00125 0.0
C522 C 0.60305 0.36567 0.04878 0.0
C523 C 0.56816 0.34094 0.0787 0.0
C524 C 0.58054 0.40981 0.11314 0.0
C525 C 0.61984 0.43319 0.08829 0.0
N526 N 0.67358 0.43042 0.04057 0.0
N527 N 0.52256 0.33905 0.13941 0.0
C528 C 0.63226 0.41035 0.05807 0.0
C529 C 0.55655 0.36298 0.11096 0.0
N530 N 0.60927 0.34688 0.01182 0.0
N531 N 0.56546 0.43228 0.13749 0.0
H532 H 0.50206 0.30527 0.13612 0.0
H533 H 0.51563 0.35237 0.16701 0.0
H534 H 0.58212 0.46641 0.13935 0.0
H535 H 0.53492 0.41748 0.15291 0.0
H536 H 0.63142 0.3652 0.98682 0.0
H537 H 0.59011 0.31397 0.00364 0.0
H538 H 0.68558 0.41403 0.02152 0.0
H539 H 0.69761 0.46187 0.04964 0.0
C540 C 0.68908 0.29125 0.0704 0.0
C541 C 0.66498 0.25316 0.09696 0.0
C542 C 0.73434 0.25785 0.1191 0.0
C543 C 0.75725 0.29323 0.08889 0.0
N544 N 0.75296 0.33295 0.02491 0.0
N545 N 0.66472 0.19404 0.13831 0.0
C546 C 0.73343 0.30589 0.06045 0.0
C547 C 0.68754 0.23454 0.11913 0.0
N548 N 0.6707 0.31575 0.05755 0.0
N549 N 0.75718 0.2465 0.14769 0.0
H550 H 0.63066 0.17514 0.13718 0.0
H551 H 0.67976 0.17738 0.15133 0.0
H552 H 0.79122 0.26076 0.14647 0.0
H553 H 0.74231 0.22465 0.17393 0.0
H554 H 0.68719 0.34438 0.0389 0.0
H555 H 0.64112 0.31068 0.07056 0.0
H556 H 0.73518 0.33926 0.00117 0.0
H557 H 0.78587 0.34611 0.01676 0.0
C558 C 0.57413 0.2304 0.54195 0.0
C559 C 0.60112 0.23347 0.57863 0.0
C560 C 0.59626 0.2953 0.60742 0.0
C561 C 0.56815 0.29225 0.57202 0.0
N562 N 0.51966 0.24732 0.51323 0.0
N563 N 0.61223 0.25176 0.65716 0.0
C564 C 0.55388 0.257 0.54123 0.0
C565 C 0.60394 0.26025 0.61505 0.0
N566 N 0.56679 0.20132 0.50862 0.0
N567 N 0.61743 0.33226 0.63281 0.0
H568 H 0.6107 0.22235 0.66584 0.0
H569 H 0.61271 0.27023 0.68446 0.0
H570 H 0.61764 0.36129 0.6252 0.0
H571 H 0.63942 0.33566 0.65787 0.0
H572 H 0.55264 0.20177 0.47832 0.0
H573 H 0.57543 0.17703 0.5114 0.0
H574 H 0.50552 0.21975 0.4929 0.0
H575 H 0.50228 0.26414 0.51369 0.0
C576 C 0.77 0.36253 0.60318 0.0
C577 C 0.78829 0.34092 0.57886 0.0
C578 C 0.85386 0.41187 0.56357 0.0
C579 C 0.83684 0.43288 0.59089 0.0
N580 N 0.78172 0.42736 0.6425 0.0
N581 N 0.84928 0.34383 0.53959 0.0
C582 C 0.79611 0.40784 0.61291 0.0
C583 C 0.83076 0.36527 0.56006 0.0
N584 N 0.72648 0.34048 0.61415 0.0
N585 N 0.89159 0.43667 0.54005 0.0
H586 H 0.83259 0.31002 0.5348 0.0
H587 H 0.88197 0.35901 0.5298 0.0
H588 H 0.91034 0.47058 0.54339 0.0
H589 H 0.90313 0.42415 0.51554 0.0
H590 H 0.71013 0.35579 0.62702 0.0
H591 H 0.70535 0.30781 0.60586 0.0
H592 H 0.75495 0.40977 0.66341 0.0
H593 H 0.7984 0.46085 0.64907 0.0
C594 C 0.67882 0.50313 0.5362 0.0
C595 C 0.65648 0.49234 0.57748 0.0
C596 C 0.72811 0.53602 0.61342 0.0
C597 C 0.74892 0.53227 0.57409 0.0
N598 N 0.73856 0.50292 0.49883 0.0
N599 N 0.66068 0.51034 0.65533 0.0
C600 C 0.723 0.51376 0.53537 0.0
C601 C 0.68135 0.51235 0.61632 0.0
N602 N 0.65861 0.50463 0.49805 0.0
N603 N 0.75257 0.56379 0.6468 0.0
H604 H 0.62777 0.50179 0.65662 0.0
H605 H 0.67644 0.51798 0.68606 0.0
H606 H 0.78641 0.58392 0.64494 0.0
H607 H 0.73902 0.5707 0.67422 0.0
H608 H 0.67512 0.51444 0.4677 0.0
H609 H 0.62807 0.5028 0.49841 0.0
H610 H 0.71862 0.48701 0.47152 0.0
H611 H 0.76852 0.50379 0.49787 0.0
C612 C 0.52884 0.8512 0.43498 0.0
C613 C 0.50762 0.80718 0.41992 0.0
C614 C 0.44311 0.81238 0.39801 0.0
C615 C 0.46277 0.85518 0.41629 0.0
N616 N 0.52237 0.91458 0.45557 0.0
N617 N 0.44183 0.74325 0.39404 0.0
C618 C 0.50513 0.8744 0.43583 0.0
C619 C 0.4641 0.78717 0.40312 0.0
N620 N 0.57196 0.87109 0.44713 0.0
N621 N 0.40422 0.79557 0.37554 0.0
H622 H 0.45592 0.72347 0.39629 0.0
H623 H 0.40824 0.72541 0.3881 0.0
H624 H 0.38626 0.81161 0.37264 0.0
H625 H 0.3912 0.76707 0.35663 0.0
H626 H 0.59088 0.90436 0.45417 0.0
H627 H 0.58984 0.85473 0.44725 0.0
H628 H 0.55087 0.9285 0.47454 0.0
H629 H 0.50687 0.93327 0.45479 0.0
C630 C 0.30452 0.74391 0.46086 0.0
C631 C 0.28555 0.76716 0.44088 0.0
C632 C 0.22435 0.69776 0.41311 0.0
C633 C 0.24498 0.67514 0.43064 0.0
N634 N 0.30982 0.67801 0.4611 0.0
N635 N 0.23011 0.76756 0.39409 0.0
C636 C 0.28634 0.69854 0.45203 0.0
C637 C 0.2461 0.74439 0.41597 0.0
N638 N 0.34047 0.76514 0.48776 0.0
N639 N 0.18378 0.67461 0.39427 0.0
H640 H 0.24408 0.80141 0.39713 0.0
H641 H 0.20455 0.75386 0.37123 0.0
H642 H 0.16848 0.64095 0.38896 0.0
H643 H 0.16439 0.68818 0.38579 0.0
H644 H 0.35224 0.74886 0.50742 0.0
H645 H 0.35674 0.79874 0.49348 0.0
H646 H 0.34236 0.69444 0.47149 0.0
H647 H 0.29863 0.64523 0.45359 0.0
C648 C 0.35646 0.60261 0.47282 0.0
C649 C 0.33014 0.57079 0.44084 0.0
C650 C 0.3976 0.58671 0.40042 0.0
C651 C 0.42167 0.62476 0.42696 0.0
N652 N 0.4195 0.67396 0.48214 0.0
N653 N 0.32628 0.52793 0.3768 0.0
C654 C 0.39988 0.63408 0.46146 0.0
C655 C 0.35104 0.56136 0.40541 0.0
N656 N 0.34107 0.60258 0.5145 0.0
N657 N 0.41916 0.57411 0.37152 0.0
H658 H 0.29331 0.50559 0.38282 0.0
H659 H 0.33801 0.52276 0.347 0.0
H660 H 0.45292 0.59204 0.36668 0.0
H661 H 0.40422 0.54437 0.35464 0.0
H662 H 0.36071 0.62419 0.53924 0.0
H663 H 0.31197 0.57691 0.5269 0.0
H664 H 0.40294 0.68312 0.50455 0.0
H665 H 0.45011 0.69982 0.47317 0.0
C666 C 0.23002 0.59921 0.95252 0.0
C667 C 0.21524 0.60664 0.91142 0.0
C668 C 0.24576 0.56511 0.87555 0.0
C669 C 0.27225 0.57171 0.91417 0.0
N670 N 0.29345 0.6047 0.98775 0.0
N671 N 0.19807 0.58447 0.8349 0.0
C672 C 0.26518 0.5909 0.95253 0.0
C673 C 0.21969 0.58579 0.87306 0.0
N674 N 0.21013 0.5992 0.99142 0.0
N675 N 0.24379 0.53771 0.84235 0.0
H676 H 0.17201 0.59065 0.83462 0.0
H677 H 0.20538 0.57648 0.80397 0.0
H678 H 0.26058 0.5204 0.84322 0.0
H679 H 0.22201 0.52845 0.81578 0.0
H680 H 0.21912 0.59177 0.0219 0.0
H681 H 0.18093 0.60011 0.99195 0.0
H682 H 0.28978 0.62129 0.01464 0.0
H683 H 0.32338 0.60543 0.98765 0.0
C684 C 0.46248 0.74137 0.93528 0.0
C685 C 0.5069 0.76552 0.92222 0.0
C686 C 0.50406 0.69782 0.89668 0.0
C687 C 0.45846 0.6745 0.90587 0.0
N688 N 0.39247 0.67605 0.92413 0.0
N689 N 0.56981 0.76876 0.88688 0.0
C690 C 0.43722 0.69689 0.92259 0.0
C691 C 0.52775 0.74427 0.90196 0.0
N692 N 0.44428 0.76123 0.95932 0.0
N693 N 0.52483 0.67555 0.88409 0.0
H694 H 0.58862 0.80242 0.89256 0.0
H695 H 0.58533 0.75626 0.86719 0.0
H696 H 0.50806 0.6419 0.87827 0.0
H697 H 0.55874 0.6899 0.88173 0.0
H698 H 0.41318 0.74436 0.97347 0.0
H699 H 0.46186 0.79402 0.96888 0.0
H700 H 0.37474 0.69128 0.93303 0.0
H701 H 0.37277 0.64453 0.91186 0.0
C702 C 0.35115 0.78259 0.89221 0.0
C703 C 0.32697 0.80067 0.91157 0.0
C704 C 0.39439 0.87154 0.91955 0.0
C705 C 0.41771 0.85418 0.89682 0.0
N706 N 0.41677 0.79583 0.85365 0.0
N707 N 0.32358 0.86342 0.93834 0.0
C708 C 0.39552 0.81061 0.88043 0.0
C709 C 0.34801 0.8455 0.92392 0.0
N710 N 0.33209 0.73817 0.8869 0.0
N711 N 0.41675 0.91266 0.93736 0.0
H712 H 0.28968 0.84509 0.94243 0.0
H713 H 0.33633 0.89689 0.94317 0.0
H714 H 0.4503 0.93339 0.93246 0.0
H715 H 0.40258 0.92541 0.95862 0.0
H716 H 0.34906 0.72259 0.87653 0.0
H717 H 0.30018 0.71619 0.89712 0.0
H718 H 0.40099 0.7659 0.8371 0.0
H719 H 0.44934 0.81505 0.84409 0.0
C720 C 0.0935 0.33652 0.5854 0.0
C721 C 0.10366 0.35115 0.63021 0.0
C722 C 0.14339 0.42713 0.60358 0.0
C723 C 0.13653 0.4123 0.5587 0.0
N724 N 0.11787 0.35172 0.50893 0.0
N725 N 0.15153 0.40969 0.67956 0.0
C726 C 0.11585 0.36659 0.55028 0.0
C727 C 0.13307 0.39624 0.6385 0.0
N728 N 0.06053 0.29518 0.57571 0.0
N729 N 0.15648 0.46975 0.61364 0.0
H730 H 0.14647 0.38775 0.70533 0.0
H731 H 0.17581 0.44188 0.68609 0.0
H732 H 0.16093 0.49326 0.58999 0.0
H733 H 0.15781 0.48047 0.64619 0.0
H734 H 0.04968 0.28504 0.54332 0.0
H735 H 0.0406 0.27268 0.59967 0.0
H736 H 0.10615 0.31866 0.50221 0.0
H737 H 0.1359 0.37277 0.483 0.0
C738 C 0.72669 0.82481 0.53791 0.0
C739 C 0.68125 0.79579 0.54527 0.0
C740 C 0.69462 0.80529 0.62573 0.0
C741 C 0.74043 0.82679 0.61837 0.0
N742 N 0.80053 0.85371 0.56615 0.0
N743 N 0.6232 0.75264 0.59782 0.0
C744 C 0.75674 0.83625 0.57409 0.0
C745 C 0.66533 0.78488 0.58963 0.0
N746 N 0.74109 0.84195 0.49646 0.0
N747 N 0.67904 0.80465 0.6674 0.0
H748 H 0.60082 0.73474 0.57294 0.0
H749 H 0.61179 0.74043 0.6296 0.0
H750 H 0.69981 0.82037 0.69423 0.0
H751 H 0.64599 0.79316 0.67384 0.0
H752 H 0.7732 0.86632 0.48991 0.0
H753 H 0.71985 0.83513 0.46961 0.0
H754 H 0.81347 0.85644 0.5344 0.0
H755 H 0.82368 0.86234 0.59138 0.0
C756 C 0.25516 0.94459 0.61753 0.0
C757 C 0.27428 0.9901 0.62661 0.0
C758 C 0.33126 0.00629 0.57144 0.0
C759 C 0.31005 0.96155 0.5587 0.0
N760 N 0.24772 0.8887 0.56507 0.0
N761 N 0.32194 0.0643 0.60188 0.0
C762 C 0.27074 0.93069 0.58048 0.0
C763 C 0.30962 0.0209 0.60027 0.0
N764 N 0.22331 0.91477 0.64496 0.0
N765 N 0.37316 0.03469 0.55784 0.0
H766 H 0.30523 0.07594 0.62092 0.0
H767 H 0.3451 0.08761 0.58039 0.0
H768 H 0.39171 0.02496 0.53906 0.0
H769 H 0.39126 0.06666 0.56975 0.0
H770 H 0.21137 0.88116 0.64292 0.0
H771 H 0.21084 0.92401 0.67168 0.0
H772 H 0.21674 0.86588 0.57678 0.0
H773 H 0.25819 0.87771 0.53808 0.0
C774 C 0.38011 0.1014 0.94793 0.0
C775 C 0.40312 0.14588 0.96165 0.0
C776 C 0.36397 0.16328 0.90419 0.0
C777 C 0.33827 0.11797 0.89407 0.0
N778 N 0.31327 0.04347 0.91682 0.0
N779 N 0.41247 0.21852 0.95709 0.0
C780 C 0.34368 0.08698 0.91932 0.0
C781 C 0.39383 0.1768 0.94097 0.0
N782 N 0.39435 0.07313 0.96015 0.0
N783 N 0.36093 0.19336 0.87793 0.0
H784 H 0.43447 0.22942 0.98361 0.0
H785 H 0.40363 0.24122 0.94642 0.0
H786 H 0.33879 0.18433 0.85159 0.0
H787 H 0.38209 0.22701 0.88053 0.0
H788 H 0.38098 0.04155 0.94728 0.0
H789 H 0.42272 0.08266 0.9787 0.0
H790 H 0.31368 0.01987 0.93753 0.0
H791 H 0.28488 0.03193 0.89792 0.0
C792 C 0.93177 0.27047 0.91049 0.0
C793 C 0.97698 0.28917 0.90037 0.0
C794 C -0.00417 0.34111 0.96156 0.0
C795 C 0.95087 0.3209 0.97385 0.0
N796 N 0.87685 0.26135 0.96503 0.0
N797 N 0.05202 0.33305 0.92425 0.0
C798 C 0.91896 0.28406 0.94972 0.0
C799 C 0.00895 0.32157 0.92845 0.0
N800 N 0.90118 0.24077 0.88203 0.0
N801 N 0.02599 0.38047 0.97943 0.0
H802 H 0.06284 0.31859 0.90111 0.0
H803 H 0.07614 0.35321 0.94684 0.0
H804 H 0.01831 0.39742 0.00271 0.0
H805 H 0.05795 0.3988 0.96754 0.0
H806 H 0.86775 0.22954 0.88476 0.0
H807 H 0.90964 0.22935 0.85392 0.0
H808 H 0.85299 0.23183 0.95142 0.0
H809 H 0.8667 0.27013 0.9939 0.0
C810 C 0.80278 0.73575 0.96091 0.0
C811 C 0.77673 0.68971 0.95569 0.0
C812 C 0.78832 0.69977 0.87486 0.0
C813 C 0.80656 0.74572 0.87965 0.0
N814 N 0.8217 0.80602 0.92944 0.0
N815 N 0.73714 0.62877 0.9051 0.0
C816 C 0.8117 0.76356 0.92328 0.0
C817 C 0.76769 0.67176 0.91197 0.0
N818 N 0.81953 0.75312 0.00167 0.0
N819 N 0.79103 0.68272 0.83502 0.0
H820 H 0.71854 0.6074 0.93048 0.0
H821 H 0.72665 0.61565 0.87346 0.0
H822 H 0.80743 0.70236 0.80765 0.0
H823 H 0.78149 0.64975 0.83091 0.0
H824 H 0.84186 0.78631 0.00634 0.0
H825 H 0.81513 0.73373 0.02963 0.0
H826 H 0.82138 0.81863 0.96068 0.0
H827 H 0.82514 0.82724 0.90364 0.0
C828 C 0.9327 0.67302 0.39705 0.0
C829 C 0.9359 0.68649 0.4421 0.0
C830 C 0.97028 0.76325 0.41761 0.0
C831 C 0.96541 0.74956 0.37249 0.0
N832 N 0.92798 0.69065 0.32009 0.0
N833 N 0.94365 0.7428 0.49306 0.0
C834 C 0.9418 0.70411 0.36257 0.0
C835 C 0.95001 0.73112 0.45162 0.0
N836 N 0.92428 0.63173 0.38674 0.0
N837 N -0.00342 0.80629 0.42871 0.0
H838 H 0.92735 0.71986 0.51822 0.0
H839 H 0.94997 0.7743 0.50069 0.0
H840 H 0.01351 0.8311 0.40553 0.0
H841 H 0.0048 0.81676 0.4615 0.0
H842 H 0.92628 0.62226 0.35442 0.0
H843 H 0.91973 0.60825 0.41048 0.0
H844 H 0.90753 0.65786 0.3117 0.0
H845 H 0.93281 0.71271 0.29451 0.0
C846 C 0.32909 0.28068 0.41905 0.0
C847 C 0.34336 0.28587 0.3741 0.0
C848 C 0.41978 0.32194 0.39933 0.0
C849 C 0.40531 0.31477 0.44429 0.0
N850 N 0.34601 0.2738 0.49563 0.0
N851 N 0.40116 0.29805 0.32297 0.0
C852 C 0.35984 0.2895 0.45364 0.0
C853 C 0.38839 0.30207 0.36475 0.0
N854 N 0.28725 0.2706 0.42922 0.0
N855 N 0.46272 0.34999 0.38906 0.0
H856 H 0.37881 0.28221 0.2973 0.0
H857 H 0.43315 0.30591 0.31535 0.0
H858 H 0.48691 0.36685 0.41278 0.0
H859 H 0.47357 0.35971 0.35657 0.0
H860 H 0.27706 0.27104 0.46166 0.0
H861 H 0.26394 0.26636 0.40545 0.0
H862 H 0.31328 0.25215 0.50337 0.0
H863 H 0.36782 0.27841 0.52136 0.0
C864 C 0.81585 0.152 0.44808 0.0
C865 C 0.78719 0.1685 0.43899 0.0
C866 C 0.79363 0.15693 0.3596 0.0
C867 C 0.81241 0.13034 0.37 0.0
N868 N 0.83546 0.0978 0.42782 0.0
N869 N 0.74487 0.18234 0.38426 0.0
C870 C 0.82274 0.12711 0.41517 0.0
C871 C 0.77543 0.17049 0.39416 0.0
N872 N 0.83581 0.15944 0.48862 0.0
N873 N 0.7937 0.16982 0.31675 0.0
H874 H 0.72996 0.19205 0.40797 0.0
H875 H 0.73163 0.17902 0.35253 0.0
H876 H 0.80946 0.16308 0.29119 0.0
H877 H 0.78287 0.19146 0.30792 0.0
H878 H 0.85973 0.15112 0.49587 0.0
H879 H 0.83193 0.17835 0.51297 0.0
H880 H 0.83907 0.0917 0.46105 0.0
H881 H 0.83763 0.07595 0.40618 0.0
C882 C 0.70993 0.94408 0.09839 0.0
C883 C 0.73535 0.98948 0.10801 0.0
C884 C 0.70081 0.00632 0.04613 0.0
C885 C 0.67807 0.96137 0.03374 0.0
N886 N 0.66479 0.88789 0.04461 0.0
N887 N 0.762 0.06443 0.08538 0.0
C888 C 0.68359 0.93024 0.05901 0.0
C889 C 0.73294 0.02072 0.08008 0.0
N890 N 0.71033 0.91431 0.12733 0.0
N891 N 0.69001 0.03511 0.02731 0.0
H892 H 0.786 0.07659 0.10999 0.0
H893 H 0.76508 0.08827 0.06274 0.0
H894 H 0.66573 0.02616 0.00329 0.0
H895 H 0.70182 0.06692 0.0389 0.0
H896 H 0.68921 0.88065 0.12492 0.0
H897 H 0.73012 0.92365 0.15563 0.0
H898 H 0.67096 0.86452 0.05888 0.0
H899 H 0.6454 0.87687 0.01609 0.0
C900 C 0.16385 0.83064 0.05338 0.0
C901 C 0.14414 0.78496 0.04521 0.0
C902 C 0.08988 0.77032 0.10258 0.0
C903 C 0.11188 0.81529 0.11495 0.0
N904 N 0.17499 0.88755 0.10626 0.0
N905 N 0.09878 0.71174 0.0733 0.0
C906 C 0.15046 0.84549 0.09148 0.0
C907 C 0.1106 0.75501 0.07353 0.0
N908 N 0.19454 0.85966 0.0245 0.0
N909 N 0.04781 0.74243 0.11595 0.0
H910 H 0.11461 0.6996 0.05355 0.0
H911 H 0.07701 0.68939 0.09646 0.0
H912 H 0.02901 0.75286 0.13315 0.0
H913 H 0.02973 0.71023 0.1046 0.0
H914 H 0.20683 0.89336 0.02603 0.0
H915 H 0.20567 0.84951 0.99734 0.0
H916 H 0.20536 0.90982 0.09282 0.0
H917 H 0.16678 0.89904 0.1345 0.0
C918 C 0.27845 0.37088 0.03229 0.0
C919 C 0.30487 0.416 0.04284 0.0
C920 C 0.28718 0.39748 0.12147 0.0
C921 C 0.27018 0.35243 0.11163 0.0
N922 N 0.25508 0.29689 0.05591 0.0
N923 N 0.33943 0.47154 0.09987 0.0
C924 C 0.26659 0.33902 0.06651 0.0
C925 C 0.31018 0.42937 0.08806 0.0
N926 N 0.26428 0.35843 0.98967 0.0
N927 N 0.28136 0.40979 0.16279 0.0
H928 H 0.35923 0.49578 0.07722 0.0
H929 H 0.34736 0.48129 0.13288 0.0
H930 H 0.26335 0.38704 0.18754 0.0
H931 H 0.29001 0.44196 0.17057 0.0
H932 H 0.24196 0.32615 0.98101 0.0
H933 H 0.27078 0.38104 0.96417 0.0
H934 H 0.25679 0.28725 0.02357 0.0
H935 H 0.24789 0.27247 0.07939 0.0
C936 C 0.04438 0.5 0.29641 0.0
C937 C 0.0816 0.49438 0.29423 0.0
C938 C 0.05324 0.45203 0.22613 0.0
C939 C 0.01803 0.46116 0.2253 0.0
N940 N -0.01419 0.50206 0.25565 0.0
N941 N 0.12716 0.47574 0.25034 0.0
C942 C 0.0152 0.48763 0.25931 0.0
C943 C 0.08807 0.47437 0.25661 0.0
N944 N 0.03641 0.51623 0.33421 0.0
N945 N 0.05191 0.41925 0.20066 0.0
H946 H 0.15343 0.49146 0.27229 0.0
H947 H 0.13475 0.46497 0.22117 0.0
H948 H 0.0251 0.39837 0.18121 0.0
H949 H 0.07488 0.40891 0.20349 0.0
H950 H 0.00749 0.51681 0.33974 0.0
H951 H 0.05778 0.52646 0.3612 0.0
H952 H 0.98502 0.52459 0.27749 0.0
H953 H 0.96504 0.49483 0.22835 0.0
C954 C 0.6232 0.61967 0.29903 0.0
C955 C 0.60251 0.64445 0.28893 0.0
C956 C 0.6063 0.63014 0.20964 0.0
C957 C 0.63549 0.61439 0.21948 0.0
N958 N 0.67548 0.59844 0.27507 0.0
N959 N 0.5778 0.67681 0.23296 0.0
C960 C 0.64445 0.60953 0.26463 0.0
C961 C 0.59424 0.65007 0.24379 0.0
N962 N 0.62239 0.60569 0.34163 0.0
N963 N 0.58985 0.62576 0.16761 0.0
H964 H 0.56931 0.693 0.25642 0.0
H965 H 0.57604 0.68588 0.20034 0.0
H966 H 0.59715 0.61021 0.14225 0.0
H967 H 0.56543 0.63307 0.15938 0.0
H968 H 0.63357 0.58427 0.3503 0.0
H969 H 0.60602 0.61163 0.36722 0.0
H970 H 0.68655 0.59941 0.30743 0.0
H971 H 0.69315 0.59211 0.2514 0.0
C972 C 0.42725 0.05558 0.22973 0.0
C973 C 0.47299 0.08454 0.2239 0.0
C974 C 0.48657 0.05399 0.29194 0.0
C975 C 0.44137 0.02175 0.29377 0.0
N976 N 0.37081 0.98577 0.25737 0.0
N977 N 0.54702 0.10716 0.24642 0.0
C978 C 0.41255 0.02042 0.26021 0.0
C979 C 0.50305 0.08275 0.25427 0.0
N980 N 0.39738 0.06336 0.20857 0.0
N981 N 0.51353 0.0573 0.3262 0.0
H982 H 0.55993 0.12788 0.21896 0.0
H983 H 0.57038 0.10418 0.26502 0.0
H984 H 0.50273 0.03566 0.35314 0.0
H985 H 0.54569 0.08291 0.32915 0.0
H986 H 0.36387 0.04565 0.21524 0.0
H987 H 0.40627 0.09091 0.18891 0.0
H988 H 0.35021 0.98141 0.23056 0.0
H989 H 0.35805 0.95933 0.27933 0.0
C990 C 0.62408 0.02911 0.68482 0.0
C991 C 0.63733 0.07382 0.69334 0.0
C992 C 0.60652 0.05206 0.76806 0.0
C993 C 0.60444 0.01121 0.76323 0.0
N994 N 0.61533 0.96184 0.71603 0.0
N995 N 0.64727 0.12841 0.74873 0.0
C996 C 0.61395 -0.00033 0.72118 0.0
C997 C 0.62986 0.0856 0.73638 0.0
N998 N 0.61971 0.01432 0.64214 0.0
N999 N 0.58478 0.05828 0.80206 0.0
H1000 H 0.66844 0.1548 0.7289 0.0
H1001 H 0.64483 0.13744 0.78116 0.0
H1002 H 0.56435 0.03255 0.82319 0.0
H1003 H 0.58226 0.08649 0.80474 0.0
H1004 H 0.60685 0.9813 0.63438 0.0
H1005 H 0.62358 0.03408 0.61467 0.0
H1006 H 0.62662 0.95458 0.68703 0.0
H1007 H 0.60879 0.93954 0.74176 0.0
C1008 C 0.04633 0.6097 0.76717 0.0
C1009 C 0.07083 0.65509 0.77759 0.0
C1010 C 0.02919 0.67037 0.72279 0.0
C1011 C 0.00795 0.62625 0.70837 0.0
N1012 N 0.00024 0.55436 0.71303 0.0
N1013 N 0.09508 0.72927 0.75421 0.0
C1014 C 0.01757 0.59583 0.72949 0.0
C1015 C 0.06517 0.68561 0.75193 0.0
N1016 N 0.04952 0.57996 0.79383 0.0
N1017 N 0.01339 0.69728 0.71072 0.0
H1018 H 0.12368 0.74133 0.77301 0.0
H1019 H 0.09401 0.75245 0.73337 0.0
H1020 H 0.98424 0.68571 0.69304 0.0
H1021 H 0.02581 0.72886 0.72335 0.0
H1022 H 0.02929 0.54621 0.79063 0.0
H1023 H 0.07057 0.58923 0.82113 0.0
H1024 H 0.00937 0.53202 0.72422 0.0
H1025 H 0.97902 0.54341 0.68584 0.0
C1026 C 0.43021 0.42065 0.73285 0.0
C1027 C 0.46909 0.44887 0.70942 0.0
C1028 C 0.48079 0.50899 0.75984 0.0
C1029 C 0.43882 0.48154 0.77886 0.0
N1030 N 0.36865 0.41551 0.77266 0.0
N1031 N 0.53016 0.52163 0.69775 0.0
C1032 C 0.41212 0.43861 0.76216 0.0
C1033 C 0.49429 0.49366 0.72217 0.0
N1034 N 0.41137 0.37628 0.7286 0.0
N1035 N 0.50797 0.54895 0.77832 0.0
H1036 H 0.54109 0.51114 0.67075 0.0
H1037 H 0.5473 0.55542 0.70248 0.0
H1038 H 0.49861 0.56096 0.80535 0.0
H1039 H 0.54053 0.56873 0.76883 0.0
H1040 H 0.38495 0.35426 0.74804 0.0
H1041 H 0.4256 0.36177 0.70982 0.0
H1042 H 0.34704 0.38543 0.75819 0.0
H1043 H 0.35341 0.42908 0.79129 0.0
C1044 C 0.17528 0.39262 0.855 0.0
C1045 C 0.16054 0.34931 0.84023 0.0
C1046 C 0.23566 0.36281 0.83976 0.0
C1047 C 0.25034 0.40649 0.85292 0.0
N1048 N 0.23219 0.45318 0.89549 0.0
N1049 N 0.17535 0.28885 0.83788 0.0
C1050 C 0.21969 0.4189 0.86696 0.0
C1051 C 0.19011 0.3328 0.83874 0.0
N1052 N 0.14694 0.40835 0.8589 0.0
N1053 N 0.26491 0.34997 0.82741 0.0
H1054 H 0.14262 0.26489 0.83584 0.0
H1055 H 0.19581 0.27584 0.84369 0.0
H1056 H 0.29867 0.37047 0.82874 0.0
H1057 H 0.25563 0.31962 0.81329 0.0
H1058 H 0.15754 0.44136 0.86468 0.0
H1059 H 0.11317 0.38888 0.85469 0.0
H1060 H 0.2102 0.46112 0.9101 0.0
H1061 H 0.26369 0.47009 0.90869 0.0
C1062 C 0.6735 0.82314 0.79872 0.0
C1063 C 0.70659 0.8286 0.82882 0.0
C1064 C 0.68641 0.87222 0.87567 0.0
C1065 C 0.66591 0.87907 0.8379 0.0
N1066 N 0.64162 0.86094 0.76148 0.0
N1067 N 0.73511 0.84732 0.90327 0.0
C1068 C 0.65966 0.85429 0.79881 0.0
C1069 C 0.71029 0.8499 0.86978 0.0
N1070 N 0.65368 0.78716 0.77206 0.0
N1071 N 0.68005 0.88352 0.91733 0.0
H1072 H 0.74636 0.82493 0.90248 0.0
H1073 H 0.74424 0.8671 0.93145 0.0
H1074 H 0.65881 0.89538 0.92379 0.0
H1075 H 0.6915 0.87623 0.94621 0.0
H1076 H 0.62663 0.78044 0.75237 0.0
H1077 H 0.66026 0.76143 0.77489 0.0
H1078 H 0.63934 0.84494 0.7316 0.0
H1079 H 0.63328 0.88546 0.75918 0.0
C1080 C 0.1655 0.85533 0.82752 0.0
C1081 C 0.19639 0.84193 0.83724 0.0
C1082 C 0.25518 0.9184 0.8416 0.0
C1083 C 0.22387 0.93159 0.83289 0.0
N1084 N 0.14776 0.91298 0.82885 0.0
N1085 N 0.27162 0.85949 0.84705 0.0
C1086 C 0.17861 0.90025 0.82896 0.0
C1087 C 0.24162 0.87309 0.84234 0.0
N1088 N 0.12367 0.82485 0.8156 0.0
N1089 N 0.29734 0.94946 0.85185 0.0
H1090 H 0.26318 0.82679 0.84891 0.0
H1091 H 0.30537 0.88023 0.84583 0.0
H1092 H 0.30777 0.98286 0.85291 0.0
H1093 H 0.32118 0.94251 0.86308 0.0
H1094 H 0.10121 0.83277 0.80216 0.0
H1095 H 0.11253 0.79134 0.81512 0.0
H1096 H 0.11416 0.89131 0.83051 0.0
H1097 H 0.15519 0.94512 0.83284 0.0
C1098 C 0.40771 0.22851 0.63901 0.0
C1099 C 0.39598 0.26096 0.64767 0.0
C1100 C 0.32964 0.2073 0.68618 0.0
C1101 C 0.3431 0.17566 0.68044 0.0
N1102 N 0.39645 0.15625 0.65585 0.0
N1103 N 0.3465 0.28275 0.67832 0.0
C1104 C 0.38266 0.18631 0.65822 0.0
C1105 C 0.3568 0.25065 0.67042 0.0
N1106 N 0.44137 0.23749 0.61036 0.0
N1107 N 0.29107 0.19586 0.70735 0.0
H1108 H 0.36411 0.31417 0.6649 0.0
H1109 H 0.32151 0.27924 0.69934 0.0
H1110 H 0.27371 0.16668 0.72493 0.0
H1111 H 0.27569 0.21455 0.70695 0.0
H1112 H 0.44902 0.21417 0.59911 0.0
H1113 H 0.45922 0.26758 0.59421 0.0
H1114 H 0.4274 0.16367 0.64477 0.0
H1115 H 0.37798 0.12424 0.66766 0.0
C1116 C 0.83517 0.1934 0.69685 0.0
C1117 C 0.82939 0.20874 0.65527 0.0
C1118 C 0.90777 0.26031 0.64908 0.0
C1119 C 0.91337 0.24584 0.69118 0.0
N1120 N 0.88372 0.20409 0.75864 0.0
N1121 N 0.85725 0.26141 0.59522 0.0
C1122 C 0.87734 0.21427 0.71636 0.0
C1123 C 0.86486 0.24359 0.6323 0.0
N1124 N 0.80082 0.15761 0.7164 0.0
N1125 N 0.9436 0.28909 0.62482 0.0
H1126 H 0.82611 0.24984 0.58169 0.0
H1127 H 0.8812 0.28971 0.57967 0.0
H1128 H 0.97549 0.30389 0.63731 0.0
H1129 H 0.94216 0.29664 0.5916 0.0
H1130 H 0.80392 0.14176 0.74425 0.0
H1131 H 0.76934 0.14151 0.70287 0.0
H1132 H 0.85836 0.1847 0.78041 0.0
H1133 H 0.91459 0.21753 0.77334 0.0
C1134 C 0.90937 0.77617 0.65621 0.0
C1135 C 0.86366 0.76019 0.65625 0.0
C1136 C 0.85096 0.69128 0.62506 0.0
C1137 C 0.89439 0.70281 0.63684 0.0
N1138 N 0.96675 0.75796 0.66138 0.0
N1139 N 0.79028 0.70372 0.63754 0.0
C1140 C 0.92441 0.74598 0.65119 0.0
C1141 C 0.83416 0.71805 0.63958 0.0
N1142 N 0.93839 0.81997 0.66005 0.0
N1143 N 0.82702 0.65666 0.59743 0.0
H1144 H 0.77726 0.72403 0.64433 0.0
H1145 H 0.76688 0.67128 0.63079 0.0
H1146 H 0.83992 0.63853 0.58321 0.0
H1147 H 0.79652 0.64914 0.58469 0.0
H1148 H 0.97203 0.83361 0.65544 0.0
H1149 H 0.9288 0.8434 0.66269 0.0
H1150 H -0.01194 0.78706 0.67757 0.0
H1151 H 0.98021 0.73802 0.65588 0.0
C1152 C 0.90277 0.7526 0.13673 0.0
C1153 C 0.92392 0.73749 0.16591 0.0
C1154 C 0.85294 0.68311 0.19628 0.0
C1155 C 0.83203 0.69908 0.16759 0.0
N1156 N 0.84046 0.76264 0.128 0.0
N1157 N 0.91681 0.6756 0.20746 0.0
C1158 C 0.85793 0.73796 0.14289 0.0
C1159 C 0.89833 0.69884 0.19111 0.0
N1160 N 0.92483 0.77882 0.10146 0.0
N1161 N 0.83033 0.65575 0.23067 0.0
H1162 H 0.94846 0.68301 0.1987 0.0
H1163 H 0.89901 0.64584 0.22417 0.0
H1164 H 0.79875 0.64877 0.23913 0.0
H1165 H 0.84498 0.64568 0.2545 0.0
H1166 H 0.90959 0.78809 0.07745 0.0
H1167 H 0.95641 0.78572 0.09305 0.0
H1168 H 0.85916 0.79287 0.1123 0.0
H1169 H 0.80912 0.7559 0.13721 0.0
C1170 C 0.37059 0.24441 0.13438 0.0
C1171 C 0.34787 0.23506 0.17517 0.0
C1172 C 0.38026 0.19166 0.20074 0.0
C1173 C 0.40125 0.19919 0.15909 0.0
N1174 N 0.41357 0.22752 0.08393 0.0
N1175 N 0.32442 0.19492 0.24458 0.0
C1176 C 0.39545 0.22392 0.12508 0.0
C1177 C 0.35079 0.20729 0.20773 0.0
N1178 N 0.36967 0.27411 0.10557 0.0
N1179 N 0.38944 0.17062 0.23375 0.0
H1180 H 0.3025 0.20599 0.25123 0.0
H1181 H 0.32157 0.17099 0.2669 0.0
H1182 H 0.40995 0.15748 0.22904 0.0
H1183 H 0.3791 0.16857 0.26653 0.0
H1184 H 0.38946 0.28616 0.0775 0.0
H1185 H 0.35113 0.28929 0.11136 0.0
H1186 H 0.40659 0.241 0.05646 0.0
H1187 H 0.43358 0.21441 0.0762 0.0
C1188 C 0.83585 0.20193 0.19474 0.0
C1189 C 0.85182 0.17869 0.16982 0.0
C1190 C 0.91905 0.24751 0.15369 0.0
C1191 C 0.90299 0.27048 0.17896 0.0
N1192 N 0.8554 0.26685 0.23806 0.0
N1193 N 0.89897 0.18303 0.10954 0.0
C1194 C 0.86429 0.24663 0.20427 0.0
C1195 C 0.89077 0.2025 0.14457 0.0
N1196 N 0.79254 0.1825 0.20574 0.0
N1197 N 0.96198 0.26759 0.14109 0.0
H1198 H 0.87586 0.15185 0.0984 0.0
H1199 H 0.92523 0.2 0.08787 0.0
H1200 H 0.98516 0.29831 0.15308 0.0
H1201 H 0.97577 0.25112 0.12502 0.0
H1202 H 0.7789 0.19888 0.22219 0.0
H1203 H 0.76935 0.15223 0.19272 0.0
H1204 H 0.82888 0.25044 0.25949 0.0
H1205 H 0.87772 0.29897 0.24751 0.0
C1206 C 0.68502 0.91062 0.31629 0.0
C1207 C 0.73011 0.93185 0.3274 0.0
C1208 C 0.72475 0.86111 0.341 0.0
C1209 C 0.67979 0.83966 0.32935 0.0
N1210 N 0.62311 0.84473 0.28841 0.0
N1211 N 0.78437 0.92654 0.37229 0.0
C1212 C 0.66133 0.86445 0.31201 0.0
C1213 C 0.74789 0.90705 0.34603 0.0
N1214 N 0.66422 0.93449 0.31287 0.0
N1215 N 0.7455 0.83734 0.34613 0.0
H1216 H 0.79751 0.9586 0.38371 0.0
H1217 H 0.79675 0.90905 0.38895 0.0
H1218 H 0.73003 0.80393 0.33877 0.0
H1219 H 0.77891 0.8515 0.35262 0.0
H1220 H 0.63044 0.9203 0.30883 0.0
H1221 H 0.67999 0.96786 0.32043 0.0
H1222 H 0.61017 0.86222 0.27277 0.0
H1223 H 0.60836 0.81232 0.27787 0.0
C1224 C 0.19577 0.90923 0.30464 0.0
C1225 C 0.16202 0.87455 0.32968 0.0
C1226 C 0.21547 0.8754 0.38192 0.0
C1227 C 0.24928 0.90783 0.35505 0.0
N1228 N 0.27275 0.96418 0.2992 0.0
N1229 N 0.138 0.82265 0.39006 0.0
C1230 C 0.2398 0.92734 0.31877 0.0
C1231 C 0.17129 0.85739 0.36813 0.0
N1232 N 0.18567 0.92359 0.26646 0.0
N1233 N 0.22574 0.86354 0.42158 0.0
H1234 H 0.1051 0.80961 0.38145 0.0
H1235 H 0.1428 0.80507 0.41516 0.0
H1236 H 0.25788 0.87625 0.43279 0.0
H1237 H 0.20265 0.84347 0.445 0.0
H1238 H 0.20887 0.94486 0.24378 0.0
H1239 H 0.15361 0.9123 0.2558 0.0
H1240 H 0.26781 0.98264 0.27522 0.0
H1241 H 0.3052 0.97881 0.30983 0.0
C1242 C 0.17735 0.39156 0.30843 0.0
C1243 C 0.19179 0.41237 0.35009 0.0
C1244 C 0.23793 0.37942 0.36139 0.0
C1245 C 0.22436 0.35964 0.31906 0.0
N1246 N 0.18596 0.34966 0.24959 0.0
N1247 N 0.23205 0.42479 0.41867 0.0
C1248 C 0.19547 0.36655 0.29171 0.0
C1249 C 0.22109 0.40595 0.37738 0.0
N1250 N 0.14456 0.39383 0.28624 0.0
N1251 N 0.26816 0.37402 0.38514 0.0
H1252 H 0.22163 0.44584 0.43077 0.0
H1253 H 0.25043 0.41906 0.44197 0.0
H1254 H 0.28126 0.35489 0.37399 0.0
H1255 H 0.28208 0.38963 0.41496 0.0
H1256 H 0.12927 0.37592 0.2578 0.0
H1257 H 0.12982 0.41109 0.29842 0.0
H1258 H 0.16954 0.35787 0.22607 0.0
H1259 H 0.1967 0.3291 0.23683 0.0
C1260 C 0.0093 0.54463 0.0373 0.0
C1261 C 0.01054 0.51027 0.014 0.0
C1262 C 0.06421 0.56229 0.96197 0.0
C1263 C 0.06113 0.59625 0.98406 0.0
N1264 N 0.02316 0.61914 0.03418 0.0
N1265 N 0.03211 0.48411 0.95028 0.0
C1266 C 0.0314 0.58731 0.01924 0.0
C1267 C 0.0361 0.51836 0.97521 0.0
N1268 N -0.01193 0.53666 0.07724 0.0
N1269 N 0.09402 0.57216 0.92853 0.0
H1270 H 0.01114 0.45146 0.95899 0.0
H1271 H 0.04671 0.48779 0.9193 0.0
H1272 H 0.11273 0.60368 0.91555 0.0
H1273 H 0.10173 0.54963 0.91499 0.0
H1274 H -0.00963 0.56148 0.09783 0.0
H1275 H 0.97131 0.5056 0.09176 0.0
H1276 H -0.00128 0.61333 0.05716 0.0
H1277 H 0.03775 0.65037 0.02004 0.0
C1278 C 0.53455 0.57194 0.96033 0.0
C1279 C 0.50039 0.5459 0.99069 0.0
C1280 C 0.55296 0.54751 0.04433 0.0
C1281 C 0.58721 0.57573 0.01513 0.0
N1282 N 0.61244 0.62032 0.94901 0.0
N1283 N 0.47595 0.51355 0.06326 0.0
C1284 C 0.57859 0.58947 0.97404 0.0
C1285 C 0.50926 0.53529 0.03338 0.0
N1286 N 0.52477 0.57931 0.91825 0.0
N1287 N 0.56214 0.53087 0.08141 0.0
H1288 H 0.44315 0.50244 0.05563 0.0
H1289 H 0.48097 0.5092 0.09657 0.0
H1290 H 0.59386 0.53872 0.09044 0.0
H1291 H 0.53825 0.50652 0.1014 0.0
H1292 H 0.54788 0.59321 0.89292 0.0
H1293 H 0.49295 0.56941 0.90767 0.0
H1294 H 0.60811 0.63538 0.92116 0.0
H1295 H 0.64527 0.63339 0.95791 0.0
C1296 C 0.53703 0.08112 0.96285 0.0
C1297 C 0.53318 0.08474 0.00915 0.0
C1298 C 0.56689 0.03981 0.02347 0.0
C1299 C 0.57175 0.03727 0.97689 0.0
N1300 N 0.5763 0.06917 0.90442 0.0
N1301 N 0.55462 0.07783 0.08383 0.0
C1302 C 0.56156 0.0622 0.94717 0.0
C1303 C 0.55096 0.06699 0.03974 0.0
N1304 N 0.51604 0.09441 0.93376 0.0
N1305 N 0.5777 0.01642 0.05206 0.0
H1306 H 0.54413 0.09843 0.09702 0.0
H1307 H 0.57158 0.06967 0.10677 0.0
H1308 H 0.59353 -0.00042 0.04177 0.0
H1309 H 0.56948 0.01234 0.08567 0.0
H1310 H 0.51393 0.08798 0.89975 0.0
H1311 H 0.49713 0.10805 0.94403 0.0
H1312 H 0.5737 0.09141 0.8835 0.0
H1313 H 0.59608 0.05765 0.89174 0.0
C1314 C 0.5701 0.03297 0.51466 0.0
C1315 C 0.59327 0.07272 0.49067 0.0
C1316 C 0.52495 0.07159 0.47462 0.0
C1317 C 0.50163 0.03223 0.49958 0.0
N1318 N 0.50577 0.98777 0.55851 0.0
N1319 N 0.58942 0.11569 0.43027 0.0
C1320 C 0.52527 0.0163 0.52403 0.0
C1321 C 0.56967 0.08774 0.46508 0.0
N1322 N 0.59042 0.01001 0.52628 0.0
N1323 N 0.50561 0.09558 0.46326 0.0
H1324 H 0.62092 0.12409 0.41971 0.0
H1325 H 0.57257 0.12514 0.4085 0.0
H1326 H 0.47561 0.08907 0.47658 0.0
H1327 H 0.52216 0.12554 0.44665 0.0
H1328 H 0.5741 0.97926 0.54143 0.0
H1329 H 0.62201 0.01929 0.51531 0.0
H1330 H 0.52274 0.9778 0.57952 0.0
H1331 H 0.4745 0.97933 0.5698 0.0
C1332 C 0.00966 0.53409 0.5416 0.0
C1333 C 0.00248 0.55736 0.50694 0.0
C1334 C 0.06138 0.55962 0.46337 0.0
C1335 C 0.06601 0.53306 0.49602 0.0
N1336 N 0.0419 0.48991 0.5631 0.0
N1337 N 0.01568 0.58659 0.43254 0.0
C1338 C 0.03944 0.51881 0.5344 0.0
C1339 C 0.02643 0.5682 0.46693 0.0
N1340 N -0.0111 0.52769 0.58167 0.0
N1341 N 0.09151 0.57794 0.42994 0.0
H1342 H -0.00953 0.59398 0.43464 0.0
H1343 H 0.02909 0.59102 0.40081 0.0
H1344 H 0.11802 0.57269 0.42648 0.0
H1345 H 0.0921 0.6009 0.40765 0.0
H1346 H -0.00321 0.51567 0.60975 0.0
H1347 H 0.96514 0.53653 0.58765 0.0
H1348 H 0.01978 0.47442 0.58896 0.0
H1349 H 0.06451 0.47918 0.5593 0.0
C1350 C 0.53414 0.56994 0.45773 0.0
C1351 C 0.56564 0.60045 0.48792 0.0
C1352 C 0.5571 0.54123 0.53652 0.0
C1353 C 0.52651 0.51071 0.50558 0.0
N1354 N 0.49044 0.49421 0.43436 0.0
N1355 N 0.61197 0.61684 0.55213 0.0
C1356 C 0.51653 0.52453 0.46531 0.0
C1357 C 0.57846 0.58662 0.52638 0.0
N1358 N 0.51979 0.58448 0.4228 0.0
N1359 N 0.56558 0.52667 0.57551 0.0
H1360 H 0.6277 0.65044 0.54568 0.0
H1361 H 0.62628 0.6089 0.57814 0.0
H1362 H 0.55259 0.49359 0.58319 0.0
H1363 H 0.58405 0.54711 0.60139 0.0
H1364 H 0.4939 0.56391 0.40225 0.0
H1365 H 0.53165 0.61755 0.41588 0.0
H1366 H 0.48622 0.5021 0.40205 0.0
H1367 H 0.47502 0.46048 0.4399 0.0
loop_
_geom_bond_atom_site_label_1
_geom_bond_atom_site_label_2
_geom_bond_distance
_geom_bond_site_symmetry_2
_ccdc_geom_bond_type
Sc0 O3 2.025 . S
Sc0 O10 2.105 . S
Sc0 O13 2.105 1_455 S
Sc0 O16 2.105 . S
Sc0 O19 2.105 . S
Sc1 O3 2.025 . S
Sc1 O11 2.105 . S
Sc1 O15 2.105 1_455 S
Sc1 O17 2.105 1_455 S
Sc1 O21 2.105 . S
Sc2 O3 2.025 . S
Sc2 O12 2.105 . S
Sc2 O14 2.105 . S
Sc2 O18 2.105 . S
Sc2 O20 2.105 . S
O3 Sc0 2.025 . S
O3 Sc1 2.025 . S
O3 Sc2 2.025 . S
C4 O10 1.268 . S
C4 O20 1.268 . S
C5 O11 1.268 . S
C5 O19 1.268 . S
C6 O12 1.268 . S
C6 O21 1.268 . S
C7 O13 1.268 . S
C7 O17 1.268 . S
C8 O14 1.268 . S
C8 O16 1.268 . S
C9 O15 1.268 . S
C9 O18 1.268 1_655 S
O10 Sc0 2.105 . S
O10 C4 1.268 . S
O11 Sc1 2.105 . S
O11 C5 1.268 . S
O12 Sc2 2.105 . S
O12 C6 1.268 . S
O13 Sc0 2.105 1_655 S
O13 C7 1.268 . S
O14 Sc2 2.105 . S
O14 C8 1.268 . S
O15 Sc1 2.105 1_655 S
O15 C9 1.268 . S
O16 Sc0 2.105 . S
O16 C8 1.268 . S
O17 Sc1 2.105 1_655 S
O17 C7 1.268 . S
O18 Sc2 2.105 . S
O18 C9 1.268 1_455 S
O19 Sc0 2.105 . S
O19 C5 1.268 . S
O20 Sc2 2.105 . S
O20 C4 1.268 . S
O21 Sc1 2.105 . S
O21 C6 1.268 . S
Sc22 O25 2.025 . S
Sc22 O32 2.105 . S
Sc22 O35 2.105 . S
Sc22 O38 2.105 . S
Sc22 O41 2.105 . S
Sc23 O25 2.025 . S
Sc23 O33 2.105 . S
Sc23 O37 2.105 . S
Sc23 O39 2.105 . S
Sc23 O43 2.105 . S
Sc24 O25 2.025 . S
Sc24 O34 2.105 . S
Sc24 O36 2.105 . S
Sc24 O40 2.105 . S
Sc24 O42 2.105 . S
O25 Sc22 2.025 . S
O25 Sc23 2.025 . S
O25 Sc24 2.025 . S
C26 O32 1.268 . S
C26 O42 1.268 . S
C27 O33 1.268 . S
C27 O41 1.268 . S
C28 O34 1.268 . S
C28 O43 1.268 . S
C29 O35 1.268 . S
C29 O39 1.268 . S
C30 O36 1.268 . S
C30 O38 1.268 . S
C31 O37 1.268 . S
C31 O40 1.268 . S
O32 Sc22 2.105 . S
O32 C26 1.268 . S
O33 Sc23 2.105 . S
O33 C27 1.268 . S
O34 Sc24 2.105 . S
O34 C28 1.268 . S
O35 Sc22 2.105 . S
O35 C29 1.268 . S
O36 Sc24 2.105 . S
O36 C30 1.268 . S
O37 Sc23 2.105 . S
O37 C31 1.268 . S
O38 Sc22 2.105 . S
O38 C30 1.268 . S
O39 Sc23 2.105 . S
O39 C29 1.268 . S
O40 Sc24 2.105 . S
O40 C31 1.268 . S
O41 Sc22 2.105 . S
O41 C27 1.268 . S
O42 Sc24 2.105 . S
O42 C26 1.268 . S
O43 Sc23 2.105 . S
O43 C28 1.268 . S
Sc44 O47 2.025 . S
Sc44 O54 2.092 1_545 S
Sc44 O57 2.105 . S
Sc44 O60 2.105 . S
Sc44 O63 2.105 . S
Sc45 O47 2.025 . S
Sc45 O55 2.105 . S
Sc45 O59 2.105 . S
Sc45 O61 2.105 . S
Sc45 O65 2.105 . S
Sc46 O47 2.025 . S
Sc46 O56 2.105 . S
Sc46 O58 2.105 . S
Sc46 O62 2.105 . S
Sc46 O64 2.105 1_545 S
O47 Sc44 2.025 . S
O47 Sc45 2.025 . S
O47 Sc46 2.025 . S
C48 O54 1.271 . S
C48 O64 1.268 . S
C49 O55 1.268 . S
C49 O63 1.268 . S
C50 O56 1.268 1_565 S
C50 O65 1.268 1_565 S
C51 O57 1.268 . S
C51 O61 1.268 . S
C52 O58 1.268 . S
C52 O60 1.268 . S
C53 O59 1.268 . S
C53 O62 1.268 . S
O54 Sc44 2.092 1_565 S
O54 C48 1.271 . S
O55 Sc45 2.105 . S
O55 C49 1.268 . S
O56 Sc46 2.105 . S
O56 C50 1.268 1_545 S
O57 Sc44 2.105 . S
O57 C51 1.268 . S
O58 Sc46 2.105 . S
O58 C52 1.268 . S
O59 Sc45 2.105 . S
O59 C53 1.268 . S
O60 Sc44 2.105 . S
O60 C52 1.268 . S
O61 Sc45 2.105 . S
O61 C51 1.268 . S
O62 Sc46 2.105 . S
O62 C53 1.268 . S
O63 Sc44 2.105 . S
O63 C49 1.268 . S
O64 Sc46 2.105 1_565 S
O64 C48 1.268 . S
O65 Sc45 2.105 . S
O65 C50 1.268 1_545 S
Sc66 O69 2.025 . S
Sc66 O76 2.105 . S
Sc66 O79 2.105 . S
Sc66 O82 2.105 1_455 S
Sc66 O85 2.105 . S
Sc67 O69 2.025 . S
Sc67 O77 2.105 . S
Sc67 O81 2.105 . S
Sc67 O83 2.105 . S
Sc67 O87 2.105 . S
Sc68 O69 2.025 . S
Sc68 O78 2.105 . S
Sc68 O80 2.105 1_455 S
Sc68 O84 2.105 1_455 S
Sc68 O86 2.105 . S
O69 Sc66 2.025 . S
O69 Sc67 2.025 . S
O69 Sc68 2.025 . S
C70 O76 1.268 . S
C70 O86 1.268 . S
C71 O77 1.268 . S
C71 O85 1.268 . S
C72 O78 1.268 . S
C72 O87 1.268 . S
C73 O79 1.268 . S
C73 O83 1.268 . S
C74 O80 1.268 . S
C74 O82 1.268 . S
C75 O81 1.268 1_655 S
C75 O84 1.268 . S
O76 Sc66 2.105 . S
O76 C70 1.268 . S
O77 Sc67 2.105 . S
O77 C71 1.268 . S
O78 Sc68 2.105 . S
O78 C72 1.268 . S
O79 Sc66 2.105 . S
O79 C73 1.268 . S
O80 Sc68 2.105 1_655 S
O80 C74 1.268 . S
O81 Sc67 2.105 . S
O81 C75 1.268 1_455 S
O82 Sc66 2.105 1_655 S
O82 C74 1.268 . S
O83 Sc67 2.105 . S
O83 C73 1.268 . S
O84 Sc68 2.105 1_655 S
O84 C75 1.268 . S
O85 Sc66 2.105 . S
O85 C71 1.268 . S
O86 Sc68 2.105 . S
O86 C70 1.268 . S
O87 Sc67 2.105 . S
O87 C72 1.268 . S
Sc88 O91 2.025 . S
Sc88 O98 2.105 . S
Sc88 O101 2.105 . S
Sc88 O104 2.105 . S
Sc88 O107 2.105 . S
Sc89 O91 2.025 . S
Sc89 O99 2.105 . S
Sc89 O103 2.105 . S
Sc89 O105 2.105 . S
Sc89 O109 2.105 . S
Sc90 O91 2.025 . S
Sc90 O100 2.105 . S
Sc90 O102 2.105 . S
Sc90 O106 2.105 . S
Sc90 O108 2.105 . S
O91 Sc88 2.025 . S
O91 Sc89 2.025 . S
O91 Sc90 2.025 . S
C92 O98 1.268 . S
C92 O108 1.268 . S
C93 O99 1.268 . S
C93 O107 1.268 . S
C94 O100 1.268 . S
C94 O109 1.268 . S
C95 O101 1.268 . S
C95 O105 1.268 . S
C96 O102 1.268 . S
C96 O104 1.268 . S
C97 O103 1.268 . S
C97 O106 1.268 . S
O98 Sc88 2.105 . S
O98 C92 1.268 . S
O99 Sc89 2.105 . S
O99 C93 1.268 . S
O100 Sc90 2.105 . S
O100 C94 1.268 . S
O101 Sc88 2.105 . S
O101 C95 1.268 . S
O102 Sc90 2.105 . S
O102 C96 1.268 . S
O103 Sc89 2.105 . S
O103 C97 1.268 . S
O104 Sc88 2.105 . S
O104 C96 1.268 . S
O105 Sc89 2.105 . S
O105 C95 1.268 . S
O106 Sc90 2.105 . S
O106 C97 1.268 . S
O107 Sc88 2.105 . S
O107 C93 1.268 . S
O108 Sc90 2.105 . S
O108 C92 1.268 . S
O109 Sc89 2.105 . S
O109 C94 1.268 . S
Sc110 O113 2.025 . S
Sc110 O120 2.105 1_545 S
Sc110 O123 2.105 . S
Sc110 O126 2.105 . S
Sc110 O129 2.105 . S
Sc111 O113 2.025 . S
Sc111 O121 2.105 . S
Sc111 O125 2.105 . S
Sc111 O127 2.105 . S
Sc111 O131 2.105 . S
Sc112 O113 2.025 . S
Sc112 O122 2.105 . S
Sc112 O124 2.105 . S
Sc112 O128 2.105 . S
Sc112 O130 2.093 1_545 S
O113 Sc110 2.025 . S
O113 Sc111 2.025 . S
O113 Sc112 2.025 . S
C114 O120 1.268 . S
C114 O130 1.281 . S
C115 O121 1.268 1_565 S
C115 O129 1.268 1_565 S
C116 O122 1.268 . S
C116 O131 1.268 . S
C117 O123 1.268 . S
C117 O127 1.268 . S
C118 O124 1.268 . S
C118 O126 1.268 . S
C119 O125 1.268 . S
C119 O128 1.268 . S
O120 Sc110 2.105 1_565 S
O120 C114 1.268 . S
O121 Sc111 2.105 . S
O121 C115 1.268 1_545 S
O122 Sc112 2.105 . S
O122 C116 1.268 . S
O123 Sc110 2.105 . S
O123 C117 1.268 . S
O124 Sc112 2.105 . S
O124 C118 1.268 . S
O125 Sc111 2.105 . S
O125 C119 1.268 . S
O126 Sc110 2.105 . S
O126 C118 1.268 . S
O127 Sc111 2.105 . S
O127 C117 1.268 . S
O128 Sc112 2.105 . S
O128 C119 1.268 . S
O129 Sc110 2.105 . S
O129 C115 1.268 1_545 S
O130 Sc112 2.093 1_565 S
O130 C114 1.281 . S
O131 Sc111 2.105 . S
O131 C116 1.268 . S
Sc132 O135 2.025 . S
Sc132 O142 2.105 . S
Sc132 O145 2.105 . S
Sc132 O148 2.105 . S
Sc132 O151 2.105 . S
Sc133 O135 2.025 . S
Sc133 O143 2.105 1_554 S
Sc133 O147 2.105 . S
Sc133 O149 2.105 . S
Sc133 O153 2.105 . S
Sc134 O135 2.025 . S
Sc134 O144 2.105 . S
Sc134 O146 2.105 . S
Sc134 O150 2.105 . S
Sc134 O152 2.105 . S
O135 Sc132 2.025 . S
O135 Sc133 2.025 . S
O135 Sc134 2.025 . S
C136 O142 1.268 . S
C136 O152 1.268 . S
C137 O143 1.268 . S
C137 O151 1.268 1_556 S
C138 O144 1.268 . S
C138 O153 1.268 . S
C139 O145 1.268 . S
C139 O149 1.268 . S
C140 O146 1.268 . S
C140 O148 1.268 . S
C141 O147 1.268 . S
C141 O150 1.268 . S
O142 Sc132 2.105 . S
O142 C136 1.268 . S
O143 Sc133 2.105 1_556 S
O143 C137 1.268 . S
O144 Sc134 2.105 . S
O144 C138 1.268 . S
O145 Sc132 2.105 . S
O145 C139 1.268 . S
O146 Sc134 2.105 . S
O146 C140 1.268 . S
O147 Sc133 2.105 . S
O147 C141 1.268 . S
O148 Sc132 2.105 . S
O148 C140 1.268 . S
O149 Sc133 2.105 . S
O149 C139 1.268 . S
O150 Sc134 2.105 . S
O150 C141 1.268 . S
O151 Sc132 2.105 . S
O151 C137 1.268 1_554 S
O152 Sc134 2.105 . S
O152 C136 1.268 . S
O153 Sc133 2.105 . S
O153 C138 1.268 . S
Sc154 O157 2.025 . S
Sc154 O164 2.105 . S
Sc154 O167 2.105 . S
Sc154 O170 2.105 . S
Sc154 O173 2.105 . S
Sc155 O157 2.025 . S
Sc155 O165 2.105 1_554 S
Sc155 O169 2.105 . S
Sc155 O171 2.105 . S
Sc155 O175 2.105 . S
Sc156 O157 2.025 . S
Sc156 O166 2.105 . S
Sc156 O168 2.105 . S
Sc156 O172 2.105 . S
Sc156 O174 2.105 . S
O157 Sc154 2.025 . S
O157 Sc155 2.025 . S
O157 Sc156 2.025 . S
C158 O164 1.268 . S
C158 O174 1.268 . S
C159 O165 1.268 . S
C159 O173 1.268 1_556 S
C160 O166 1.268 . S
C160 O175 1.268 . S
C161 O167 1.268 . S
C161 O171 1.268 . S
C162 O168 1.268 . S
C162 O170 1.268 . S
C163 O169 1.268 . S
C163 O172 1.268 . S
O164 Sc154 2.105 . S
O164 C158 1.268 . S
O165 Sc155 2.105 1_556 S
O165 C159 1.268 . S
O166 Sc156 2.105 . S
O166 C160 1.268 . S
O167 Sc154 2.105 . S
O167 C161 1.268 . S
O168 Sc156 2.105 . S
O168 C162 1.268 . S
O169 Sc155 2.105 . S
O169 C163 1.268 . S
O170 Sc154 2.105 . S
O170 C162 1.268 . S
O171 Sc155 2.105 . S
O171 C161 1.268 . S
O172 Sc156 2.105 . S
O172 C163 1.268 . S
O173 Sc154 2.105 . S
O173 C159 1.268 1_554 S
O174 Sc156 2.105 . S
O174 C158 1.268 . S
O175 Sc155 2.105 . S
O175 C160 1.268 . S
Sc176 O179 2.025 . S
Sc176 O186 2.105 . S
Sc176 O189 2.105 1_655 S
Sc176 O192 2.105 1_655 S
Sc176 O195 2.105 . S
Sc177 O179 2.025 . S
Sc177 O187 2.105 1_554 S
Sc177 O191 2.105 . S
Sc177 O193 2.105 . S
Sc177 O197 2.105 . S
Sc178 O179 2.025 . S
Sc178 O188 2.105 . S
Sc178 O190 2.105 . S
Sc178 O194 2.105 . S
Sc178 O196 2.105 . S
O179 Sc176 2.025 . S
O179 Sc177 2.025 . S
O179 Sc178 2.025 . S
C180 O186 1.268 . S
C180 O196 1.268 . S
C181 O187 1.268 . S
C181 O195 1.268 1_556 S
C182 O188 1.268 . S
C182 O197 1.268 . S
C183 O189 1.268 . S
C183 O193 1.268 1_455 S
C184 O190 1.268 . S
C184 O192 1.267 1_655 S
C185 O191 1.268 . S
C185 O194 1.268 . S
O186 Sc176 2.105 . S
O186 C180 1.268 . S
O187 Sc177 2.105 1_556 S
O187 C181 1.268 . S
O188 Sc178 2.105 . S
O188 C182 1.268 . S
O189 Sc176 2.105 1_455 S
O189 C183 1.268 . S
O190 Sc178 2.105 . S
O190 C184 1.268 . S
O191 Sc177 2.105 . S
O191 C185 1.268 . S
O192 Sc176 2.105 1_455 S
O192 C184 1.267 1_455 S
O193 Sc177 2.105 . S
O193 C183 1.268 1_655 S
O194 Sc178 2.105 . S
O194 C185 1.268 . S
O195 Sc176 2.105 . S
O195 C181 1.268 1_554 S
O196 Sc178 2.105 . S
O196 C180 1.268 . S
O197 Sc177 2.105 . S
O197 C182 1.268 . S
Sc198 O201 2.025 . S
Sc198 O208 2.105 . S
Sc198 O211 2.105 . S
Sc198 O214 2.105 . S
Sc198 O217 2.105 . S
Sc199 O201 2.025 . S
Sc199 O209 2.105 . S
Sc199 O213 2.105 . S
Sc199 O215 2.105 . S
Sc199 O219 2.105 . S
Sc200 O201 2.025 . S
Sc200 O210 2.105 . S
Sc200 O212 2.105 . S
Sc200 O216 2.105 . S
Sc200 O218 2.105 . S
O201 Sc198 2.025 . S
O201 Sc199 2.025 . S
O201 Sc200 2.025 . S
C202 O208 1.268 . S
C202 O218 1.268 . S
C203 O209 1.268 . S
C203 O217 1.268 . S
C204 O210 1.268 . S
C204 O219 1.268 . S
C205 O211 1.268 . S
C205 O215 1.268 . S
C206 O212 1.268 . S
C206 O214 1.268 . S
C207 O213 1.268 . S
C207 O216 1.268 . S
O208 Sc198 2.105 . S
O208 C202 1.268 . S
O209 Sc199 2.105 . S
O209 C203 1.268 . S
O210 Sc200 2.105 . S
O210 C204 1.268 . S
O211 Sc198 2.105 . S
O211 C205 1.268 . S
O212 Sc200 2.105 . S
O212 C206 1.268 . S
O213 Sc199 2.105 . S
O213 C207 1.268 . S
O214 Sc198 2.105 . S
O214 C206 1.268 . S
O215 Sc199 2.105 . S
O215 C205 1.268 . S
O216 Sc200 2.105 . S
O216 C207 1.268 . S
O217 Sc198 2.105 . S
O217 C203 1.268 . S
O218 Sc200 2.105 . S
O218 C202 1.268 . S
O219 Sc199 2.105 . S
O219 C204 1.268 . S
Sc220 O223 2.025 . S
Sc220 O230 2.105 . S
Sc220 O233 2.105 . S
Sc220 O236 2.105 . S
Sc220 O239 2.105 . S
Sc221 O223 2.025 . S
Sc221 O231 2.105 . S
Sc221 O235 2.105 . S
Sc221 O237 2.105 . S
Sc221 O241 2.105 . S
Sc222 O223 2.025 . S
Sc222 O232 2.105 . S
Sc222 O234 2.104 1_655 S
Sc222 O238 2.105 1_655 S
Sc222 O240 2.105 . S
O223 Sc220 2.025 . S
O223 Sc221 2.025 . S
O223 Sc222 2.025 . S
C224 O230 1.268 . S
C224 O240 1.268 . S
C225 O231 1.268 . S
C225 O239 1.268 . S
C226 O232 1.268 . S
C226 O241 1.268 . S
C227 O233 1.268 . S
C227 O237 1.268 . S
C228 O234 1.268 1_655 S
C228 O236 1.268 . S
C229 O235 1.268 1_455 S
C229 O238 1.268 . S
O230 Sc220 2.105 . S
O230 C224 1.268 . S
O231 Sc221 2.105 . S
O231 C225 1.268 . S
O232 Sc222 2.105 . S
O232 C226 1.268 . S
O233 Sc220 2.105 . S
O233 C227 1.268 . S
O234 Sc222 2.104 1_455 S
O234 C228 1.268 1_455 S
O235 Sc221 2.105 . S
O235 C229 1.268 1_655 S
O236 Sc220 2.105 . S
O236 C228 1.268 . S
O237 Sc221 2.105 . S
O237 C227 1.268 . S
O238 Sc222 2.105 1_455 S
O238 C229 1.268 . S
O239 Sc220 2.105 . S
O239 C225 1.268 . S
O240 Sc222 2.105 . S
O240 C224 1.268 . S
O241 Sc221 2.105 . S
O241 C226 1.268 . S
Sc242 O245 2.025 . S
Sc242 O252 2.105 . S
Sc242 O255 2.105 . S
Sc242 O258 2.105 . S
Sc242 O261 2.105 . S
Sc243 O245 2.025 . S
Sc243 O253 2.105 . S
Sc243 O257 2.105 . S
Sc243 O259 2.105 . S
Sc243 O263 2.105 . S
Sc244 O245 2.025 . S
Sc244 O254 2.105 . S
Sc244 O256 2.105 . S
Sc244 O260 2.105 . S
Sc244 O262 2.105 . S
O245 Sc242 2.025 . S
O245 Sc243 2.025 . S
O245 Sc244 2.025 . S
C246 O252 1.268 . S
C246 O262 1.268 . S
C247 O253 1.268 . S
C247 O261 1.268 . S
C248 O254 1.268 . S
C248 O263 1.268 . S
C249 O255 1.268 . S
C249 O259 1.268 . S
C250 O256 1.268 . S
C250 O258 1.268 . S
C251 O257 1.268 . S
C251 O260 1.268 . S
O252 Sc242 2.105 . S
O252 C246 1.268 . S
O253 Sc243 2.105 . S
O253 C247 1.268 . S
O254 Sc244 2.105 . S
O254 C248 1.268 . S
O255 Sc242 2.105 . S
O255 C249 1.268 . S
O256 Sc244 2.105 . S
O256 C250 1.268 . S
O257 Sc243 2.105 . S
O257 C251 1.268 . S
O258 Sc242 2.105 . S
O258 C250 1.268 . S
O259 Sc243 2.105 . S
O259 C249 1.268 . S
O260 Sc244 2.105 . S
O260 C251 1.268 . S
O261 Sc242 2.105 . S
O261 C247 1.268 . S
O262 Sc244 2.105 . S
O262 C246 1.268 . S
O263 Sc243 2.105 . S
O263 C248 1.268 . S
Sc264 O267 2.025 . S
Sc264 O274 2.105 1_565 S
Sc264 O277 2.105 . S
Sc264 O280 2.105 . S
Sc264 O283 2.105 1_565 S
Sc265 O267 2.025 . S
Sc265 O275 2.105 . S
Sc265 O279 2.105 . S
Sc265 O281 2.105 . S
Sc265 O285 2.105 . S
Sc266 O267 2.025 . S
Sc266 O276 2.105 . S
Sc266 O278 2.105 . S
Sc266 O282 2.105 . S
Sc266 O284 2.105 . S
O267 Sc264 2.025 . S
O267 Sc265 2.025 . S
O267 Sc266 2.025 . S
C268 O274 1.268 . S
C268 O284 1.268 1_545 S
C269 O275 1.268 . S
C269 O283 1.268 1_565 S
C270 O276 1.268 . S
C270 O285 1.268 . S
C271 O277 1.268 . S
C271 O281 1.268 . S
C272 O278 1.268 . S
C272 O280 1.268 . S
C273 O279 1.268 . S
C273 O282 1.268 . S
O274 Sc264 2.105 1_545 S
O274 C268 1.268 . S
O275 Sc265 2.105 . S
O275 C269 1.268 . S
O276 Sc266 2.105 . S
O276 C270 1.268 . S
O277 Sc264 2.105 . S
O277 C271 1.268 . S
O278 Sc266 2.105 . S
O278 C272 1.268 . S
O279 Sc265 2.105 . S
O279 C273 1.268 . S
O280 Sc264 2.105 . S
O280 C272 1.268 . S
O281 Sc265 2.105 . S
O281 C271 1.268 . S
O282 Sc266 2.105 . S
O282 C273 1.268 . S
O283 Sc264 2.105 1_545 S
O283 C269 1.268 1_545 S
O284 Sc266 2.105 . S
O284 C268 1.268 1_565 S
O285 Sc265 2.105 . S
O285 C270 1.268 . S
Sc286 O289 2.025 . S
Sc286 O296 2.105 . S
Sc286 O299 2.105 . S
Sc286 O302 2.105 . S
Sc286 O305 2.105 . S
Sc287 O289 2.025 . S
Sc287 O297 2.105 . S
Sc287 O301 2.105 . S
Sc287 O303 2.105 . S
Sc287 O307 2.105 . S
Sc288 O289 2.025 . S
Sc288 O298 2.105 . S
Sc288 O300 2.105 . S
Sc288 O304 2.105 . S
Sc288 O306 2.105 . S
O289 Sc286 2.025 . S
O289 Sc287 2.025 . S
O289 Sc288 2.025 . S
C290 O296 1.268 . S
C290 O306 1.268 . S
C291 O297 1.268 . S
C291 O305 1.268 . S
C292 O298 1.268 . S
C292 O307 1.268 . S
C293 O299 1.268 . S
C293 O303 1.268 . S
C294 O300 1.268 . S
C294 O302 1.268 . S
C295 O301 1.268 . S
C295 O304 1.268 . S
O296 Sc286 2.105 . S
O296 C290 1.268 . S
O297 Sc287 2.105 . S
O297 C291 1.268 . S
O298 Sc288 2.105 . S
O298 C292 1.268 . S
O299 Sc286 2.105 . S
O299 C293 1.268 . S
O300 Sc288 2.105 . S
O300 C294 1.268 . S
O301 Sc287 2.105 . S
O301 C295 1.268 . S
O302 Sc286 2.105 . S
O302 C294 1.268 . S
O303 Sc287 2.105 . S
O303 C293 1.268 . S
O304 Sc288 2.105 . S
O304 C295 1.268 . S
O305 Sc286 2.105 . S
O305 C291 1.268 . S
O306 Sc288 2.105 . S
O306 C290 1.268 . S
O307 Sc287 2.105 . S
O307 C292 1.268 . S
Sc308 O311 2.025 . S
Sc308 O318 2.105 . S
Sc308 O321 2.105 . S
Sc308 O324 2.105 . S
Sc308 O327 2.105 . S
Sc309 O311 2.025 . S
Sc309 O319 2.105 . S
Sc309 O323 2.105 . S
Sc309 O325 2.105 . S
Sc309 O329 2.105 . S
Sc310 O311 2.025 . S
Sc310 O320 2.105 . S
Sc310 O322 2.105 . S
Sc310 O326 2.105 . S
Sc310 O328 2.105 . S
O311 Sc308 2.025 . S
O311 Sc309 2.025 . S
O311 Sc310 2.025 . S
C312 O318 1.268 . S
C312 O328 1.268 . S
C313 O319 1.268 . S
C313 O327 1.268 . S
C314 O320 1.268 . S
C314 O329 1.268 . S
C315 O321 1.268 . S
C315 O325 1.268 . S
C316 O322 1.268 . S
C316 O324 1.268 . S
C317 O323 1.268 . S
C317 O326 1.268 . S
O318 Sc308 2.105 . S
O318 C312 1.268 . S
O319 Sc309 2.105 . S
O319 C313 1.268 . S
O320 Sc310 2.105 . S
O320 C314 1.268 . S
O321 Sc308 2.105 . S
O321 C315 1.268 . S
O322 Sc310 2.105 . S
O322 C316 1.268 . S
O323 Sc309 2.105 . S
O323 C317 1.268 . S
O324 Sc308 2.105 . S
O324 C316 1.268 . S
O325 Sc309 2.105 . S
O325 C315 1.268 . S
O326 Sc310 2.105 . S
O326 C317 1.268 . S
O327 Sc308 2.105 . S
O327 C313 1.268 . S
O328 Sc310 2.105 . S
O328 C312 1.268 . S
O329 Sc309 2.105 . S
O329 C314 1.268 . S
Sc330 O333 2.025 . S
Sc330 O340 2.105 . S
Sc330 O343 2.105 . S
Sc330 O346 2.105 . S
Sc330 O349 2.105 . S
Sc331 O333 2.025 . S
Sc331 O341 2.105 . S
Sc331 O345 2.105 . S
Sc331 O347 2.105 1_556 S
Sc331 O351 2.105 . S
Sc332 O333 2.025 . S
Sc332 O342 2.105 . S
Sc332 O344 2.105 . S
Sc332 O348 2.105 . S
Sc332 O350 2.105 . S
O333 Sc330 2.025 . S
O333 Sc331 2.025 . S
O333 Sc332 2.025 . S
C334 O340 1.268 . S
C334 O350 1.268 . S
C335 O341 1.268 . S
C335 O349 1.268 . S
C336 O342 1.268 . S
C336 O351 1.268 . S
C337 O343 1.268 1_554 S
C337 O347 1.268 . S
C338 O344 1.268 . S
C338 O346 1.268 . S
C339 O345 1.268 . S
C339 O348 1.268 . S
O340 Sc330 2.105 . S
O340 C334 1.268 . S
O341 Sc331 2.105 . S
O341 C335 1.268 . S
O342 Sc332 2.105 . S
O342 C336 1.268 . S
O343 Sc330 2.105 . S
O343 C337 1.268 1_556 S
O344 Sc332 2.105 . S
O344 C338 1.268 . S
O345 Sc331 2.105 . S
O345 C339 1.268 . S
O346 Sc330 2.105 . S
O346 C338 1.268 . S
O347 Sc331 2.105 1_554 S
O347 C337 1.268 . S
O348 Sc332 2.105 . S
O348 C339 1.268 . S
O349 Sc330 2.105 . S
O349 C335 1.268 . S
O350 Sc332 2.105 . S
O350 C334 1.268 . S
O351 Sc331 2.105 . S
O351 C336 1.268 . S
Sc352 O355 2.025 . S
Sc352 O362 2.105 . S
Sc352 O365 2.105 . S
Sc352 O368 2.105 1_556 S
Sc352 O371 2.105 . S
Sc353 O355 2.025 . S
Sc353 O363 2.105 . S
Sc353 O367 2.105 . S
Sc353 O369 2.105 . S
Sc353 O373 2.105 . S
Sc354 O355 2.025 . S
Sc354 O364 2.105 1_565 S
Sc354 O366 2.105 . S
Sc354 O370 2.105 . S
Sc354 O372 2.105 1_565 S
O355 Sc352 2.025 . S
O355 Sc353 2.025 . S
O355 Sc354 2.025 . S
C356 O362 1.268 1_545 S
C356 O372 1.268 . S
C357 O363 1.268 . S
C357 O371 1.268 . S
C358 O364 1.268 1_565 S
C358 O373 1.268 . S
C359 O365 1.268 . S
C359 O369 1.268 . S
C360 O366 1.268 1_554 S
C360 O368 1.268 . S
C361 O367 1.268 . S
C361 O370 1.268 . S
O362 Sc352 2.105 . S
O362 C356 1.268 1_565 S
O363 Sc353 2.105 . S
O363 C357 1.268 . S
O364 Sc354 2.105 1_545 S
O364 C358 1.268 1_545 S
O365 Sc352 2.105 . S
O365 C359 1.268 . S
O366 Sc354 2.105 . S
O366 C360 1.268 1_556 S
O367 Sc353 2.105 . S
O367 C361 1.268 . S
O368 Sc352 2.105 1_554 S
O368 C360 1.268 . S
O369 Sc353 2.105 . S
O369 C359 1.268 . S
O370 Sc354 2.105 . S
O370 C361 1.268 . S
O371 Sc352 2.105 . S
O371 C357 1.268 . S
O372 Sc354 2.105 1_545 S
O372 C356 1.268 . S
O373 Sc353 2.105 . S
O373 C358 1.268 . S
Sc374 O377 2.025 . S
Sc374 O384 2.105 . S
Sc374 O387 2.105 . S
Sc374 O390 2.105 1_556 S
Sc374 O393 2.105 . S
Sc375 O377 2.025 . S
Sc375 O385 2.105 . S
Sc375 O389 2.105 . S
Sc375 O391 2.105 . S
Sc375 O395 2.105 . S
Sc376 O377 2.025 . S
Sc376 O386 2.105 . S
Sc376 O388 2.105 . S
Sc376 O392 2.105 . S
Sc376 O394 2.105 . S
O377 Sc374 2.025 . S
O377 Sc375 2.025 . S
O377 Sc376 2.025 . S
C378 O384 1.268 . S
C378 O394 1.268 . S
C379 O385 1.268 . S
C379 O393 1.268 . S
C380 O386 1.268 . S
C380 O395 1.268 . S
C381 O387 1.268 . S
C381 O391 1.268 . S
C382 O388 1.268 1_554 S
C382 O390 1.268 . S
C383 O389 1.268 . S
C383 O392 1.268 . S
O384 Sc374 2.105 . S
O384 C378 1.268 . S
O385 Sc375 2.105 . S
O385 C379 1.268 . S
O386 Sc376 2.105 . S
O386 C380 1.268 . S
O387 Sc374 2.105 . S
O387 C381 1.268 . S
O388 Sc376 2.105 . S
O388 C382 1.268 1_556 S
O389 Sc375 2.105 . S
O389 C383 1.268 . S
O390 Sc374 2.105 1_554 S
O390 C382 1.268 . S
O391 Sc375 2.105 . S
O391 C381 1.268 . S
O392 Sc376 2.105 . S
O392 C383 1.268 . S
O393 Sc374 2.105 . S
O393 C379 1.268 . S
O394 Sc376 2.105 . S
O394 C378 1.268 . S
O395 Sc375 2.105 . S
O395 C380 1.268 . S
C396 C397 1.363 . S
C396 C402 1.379 . S
C396 N404 1.356 . S
C397 C396 1.363 . S
C397 C403 1.363 . S
C398 C399 1.363 . S
C398 C403 1.379 . S
C398 N405 1.356 . S
C399 C398 1.363 . S
C399 C402 1.363 . S
N400 C402 1.356 . S
N400 H412 0.984 . S
N400 H413 0.985 . S
N401 C403 1.356 . S
N401 H406 0.984 . S
N401 H407 0.985 . S
C402 C396 1.379 . S
C402 C399 1.363 . S
C402 N400 1.356 . S
C403 C397 1.363 . S
C403 C398 1.379 . S
C403 N401 1.356 . S
N404 C396 1.356 . S
N404 H410 0.984 . S
N404 H411 0.984 . S
N405 C398 1.356 . S
N405 H408 0.984 . S
N405 H409 0.985 . S
H406 N401 0.984 . S
H407 N401 0.985 . S
H408 N405 0.984 . S
H409 N405 0.985 . S
H410 N404 0.984 . S
H411 N404 0.984 . S
H412 N400 0.984 . S
H413 N400 0.985 . S
C414 C415 1.363 . S
C414 C420 1.379 . S
C414 N422 1.356 . S
C415 C414 1.363 . S
C415 C421 1.363 . S
C416 C417 1.363 . S
C416 C421 1.379 . S
C416 N423 1.356 1_545 S
C417 C416 1.363 . S
C417 C420 1.363 . S
N418 C420 1.356 . S
N418 H430 0.984 . S
N418 H431 0.985 1_545 S
N419 C421 1.356 . S
N419 H424 0.984 . S
N419 H425 0.985 . S
C420 C414 1.379 . S
C420 C417 1.363 . S
C420 N418 1.356 . S
C421 C415 1.363 . S
C421 C416 1.379 . S
C421 N419 1.356 . S
N422 C414 1.356 . S
N422 H428 0.984 . S
N422 H429 0.984 . S
N423 C416 1.356 1_565 S
N423 H426 0.984 . S
N423 H427 0.985 . S
H424 N419 0.984 . S
H425 N419 0.985 . S
H426 N423 0.984 . S
H427 N423 0.985 . S
H428 N422 0.984 . S
H429 N422 0.984 . S
H430 N418 0.984 . S
H431 N418 0.985 1_565 S
C432 C433 1.363 . S
C432 C438 1.379 . S
C432 N440 1.356 1_455 S
C433 C432 1.363 . S
C433 C439 1.363 . S
C434 C435 1.363 . S
C434 C439 1.379 . S
C434 N441 1.356 1_565 S
C435 C434 1.363 . S
C435 C438 1.363 . S
N436 C438 1.356 . S
N436 H448 0.984 . S
N436 H449 0.985 . S
N437 C439 1.356 . S
N437 H442 0.984 1_455 S
N437 H443 0.985 1_565 S
C438 C432 1.379 . S
C438 C435 1.363 . S
C438 N436 1.356 . S
C439 C433 1.363 . S
C439 C434 1.379 . S
C439 N437 1.356 . S
N440 C432 1.356 1_655 S
N440 H446 0.984 1_655 S
N440 H447 0.984 . S
N441 C434 1.356 1_545 S
N441 H444 0.984 . S
N441 H445 0.985 . S
H442 N437 0.984 1_655 S
H443 N437 0.985 1_545 S
H444 N441 0.984 . S
H445 N441 0.985 . S
H446 N440 0.984 1_455 S
H447 N440 0.984 . S
H448 N436 0.984 . S
H449 N436 0.985 . S
C450 C451 1.363 . S
C450 C456 1.379 . S
C450 N458 1.356 . S
C451 C450 1.363 . S
C451 C457 1.363 . S
C452 C453 1.363 . S
C452 C457 1.379 . S
C452 N459 1.356 . S
C453 C452 1.363 . S
C453 C456 1.363 . S
N454 C456 1.356 . S
N454 H466 0.984 . S
N454 H467 0.985 . S
N455 C457 1.356 . S
N455 H460 0.984 1_655 S
N455 H461 0.985 1_655 S
C456 C450 1.379 . S
C456 C453 1.363 . S
C456 N454 1.356 . S
C457 C451 1.363 . S
C457 C452 1.379 . S
C457 N455 1.356 . S
N458 C450 1.356 . S
N458 H464 0.984 . S
N458 H465 0.984 . S
N459 C452 1.356 . S
N459 H462 0.984 . S
N459 H463 0.985 . S
H460 N455 0.984 1_455 S
H461 N455 0.985 1_455 S
H462 N459 0.984 . S
H463 N459 0.985 . S
H464 N458 0.984 . S
H465 N458 0.984 . S
H466 N454 0.984 . S
H467 N454 0.985 . S
C468 C469 1.363 . S
C468 C474 1.379 . S
C468 N476 1.356 . S
C469 C468 1.363 . S
C469 C475 1.363 . S
C470 C471 1.363 . S
C470 C475 1.379 . S
C470 N477 1.356 . S
C471 C470 1.363 . S
C471 C474 1.363 . S
N472 C474 1.356 . S
N472 H484 0.984 . S
N472 H485 0.985 . S
N473 C475 1.356 1_565 S
N473 H478 0.984 . S
N473 H479 0.985 . S
C474 C468 1.379 . S
C474 C471 1.363 . S
C474 N472 1.356 . S
C475 C469 1.363 . S
C475 C470 1.379 . S
C475 N473 1.356 1_545 S
N476 C468 1.356 . S
N476 H482 0.984 . S
N476 H483 0.984 1_545 S
N477 C470 1.356 . S
N477 H480 0.984 . S
N477 H481 0.985 . S
H478 N473 0.984 . S
H479 N473 0.985 . S
H480 N477 0.984 . S
H481 N477 0.985 . S
H482 N476 0.984 . S
H483 N476 0.984 1_565 S
H484 N472 0.984 . S
H485 N472 0.985 . S
C486 C487 1.363 . S
C486 C492 1.379 . S
C486 N494 1.356 . S
C487 C486 1.363 . S
C487 C493 1.363 . S
C488 C489 1.363 . S
C488 C493 1.379 . S
C488 N495 1.356 . S
C489 C488 1.363 . S
C489 C492 1.363 . S
N490 C492 1.356 1_655 S
N490 H502 0.984 . S
N490 H503 0.985 . S
N491 C493 1.356 . S
N491 H496 0.984 . S
N491 H497 0.985 . S
C492 C486 1.379 . S
C492 C489 1.363 . S
C492 N490 1.356 1_455 S
C493 C487 1.363 . S
C493 C488 1.379 . S
C493 N491 1.356 . S
N494 C486 1.356 . S
N494 H500 0.984 . S
N494 H501 0.984 . S
N495 C488 1.356 . S
N495 H498 0.984 1_455 S
N495 H499 0.985 . S
H496 N491 0.984 . S
H497 N491 0.985 . S
H498 N495 0.984 1_655 S
H499 N495 0.985 . S
H500 N494 0.984 . S
H501 N494 0.984 . S
H502 N490 0.984 . S
H503 N490 0.985 . S
C504 C505 1.363 . S
C504 C510 1.379 . S
C504 N512 1.356 . S
C505 C504 1.363 . S
C505 C511 1.363 . S
C506 C507 1.363 . S
C506 C511 1.379 . S
C506 N513 1.356 . S
C507 C506 1.363 . S
C507 C510 1.363 . S
N508 C510 1.356 . S
N508 H520 0.984 1_554 S
N508 H521 0.985 . S
N509 C511 1.356 . S
N509 H514 0.984 . S
N509 H515 0.985 . S
C510 C504 1.379 . S
C510 C507 1.363 . S
C510 N508 1.356 . S
C511 C505 1.363 . S
C511 C506 1.379 . S
C511 N509 1.356 . S
N512 C504 1.356 . S
N512 H518 0.984 . S
N512 H519 0.984 . S
N513 C506 1.356 . S
N513 H516 0.984 . S
N513 H517 0.985 . S
H514 N509 0.984 . S
H515 N509 0.985 . S
H516 N513 0.984 . S
H517 N513 0.985 . S
H518 N512 0.984 . S
H519 N512 0.984 . S
H520 N508 0.984 1_556 S
H521 N508 0.985 . S
C522 C523 1.363 . S
C522 C528 1.379 . S
C522 N530 1.356 . S
C523 C522 1.363 . S
C523 C529 1.363 . S
C524 C525 1.363 . S
C524 C529 1.379 . S
C524 N531 1.356 . S
C525 C524 1.363 . S
C525 C528 1.363 . S
N526 C528 1.356 . S
N526 H538 0.984 . S
N526 H539 0.985 . S
N527 C529 1.356 . S
N527 H532 0.984 . S
N527 H533 0.985 . S
C528 C522 1.379 . S
C528 C525 1.363 . S
C528 N526 1.356 . S
C529 C523 1.363 . S
C529 C524 1.379 . S
C529 N527 1.356 . S
N530 C522 1.356 . S
N530 H536 0.984 1_554 S
N530 H537 0.984 . S
N531 C524 1.356 . S
N531 H534 0.984 . S
N531 H535 0.985 . S
H532 N527 0.984 . S
H533 N527 0.985 . S
H534 N531 0.984 . S
H535 N531 0.985 . S
H536 N530 0.984 1_556 S
H537 N530 0.984 . S
H538 N526 0.984 . S
H539 N526 0.985 . S
C540 C541 1.363 . S
C540 C546 1.379 . S
C540 N548 1.356 . S
C541 C540 1.363 . S
C541 C547 1.363 . S
C542 C543 1.363 . S
C542 C547 1.379 . S
C542 N549 1.356 . S
C543 C542 1.363 . S
C543 C546 1.363 . S
N544 C546 1.356 . S
N544 H556 0.984 . S
N544 H557 0.985 . S
N545 C547 1.356 . S
N545 H550 0.984 . S
N545 H551 0.985 . S
C546 C540 1.379 . S
C546 C543 1.363 . S
C546 N544 1.356 . S
C547 C541 1.363 . S
C547 C542 1.379 . S
C547 N545 1.356 . S
N548 C540 1.356 . S
N548 H554 0.984 . S
N548 H555 0.984 . S
N549 C542 1.356 . S
N549 H552 0.984 . S
N549 H553 0.985 . S
H550 N545 0.984 . S
H551 N545 0.985 . S
H552 N549 0.984 . S
H553 N549 0.985 . S
H554 N548 0.984 . S
H555 N548 0.984 . S
H556 N544 0.984 . S
H557 N544 0.985 . S
C558 C559 1.363 . S
C558 C564 1.379 . S
C558 N566 1.356 . S
C559 C558 1.363 . S
C559 C565 1.363 . S
C560 C561 1.363 . S
C560 C565 1.379 . S
C560 N567 1.356 . S
C561 C560 1.363 . S
C561 C564 1.363 . S
N562 C564 1.356 . S
N562 H574 0.984 . S
N562 H575 0.985 . S
N563 C565 1.356 . S
N563 H568 0.984 . S
N563 H569 0.985 . S
C564 C558 1.379 . S
C564 C561 1.363 . S
C564 N562 1.356 . S
C565 C559 1.363 . S
C565 C560 1.379 . S
C565 N563 1.356 . S
N566 C558 1.356 . S
N566 H572 0.984 . S
N566 H573 0.984 . S
N567 C560 1.356 . S
N567 H570 0.984 . S
N567 H571 0.985 . S
H568 N563 0.984 . S
H569 N563 0.985 . S
H570 N567 0.984 . S
H571 N567 0.985 . S
H572 N566 0.984 . S
H573 N566 0.984 . S
H574 N562 0.984 . S
H575 N562 0.985 . S
C576 C577 1.363 . S
C576 C582 1.379 . S
C576 N584 1.356 . S
C577 C576 1.363 . S
C577 C583 1.363 . S
C578 C579 1.363 . S
C578 C583 1.379 . S
C578 N585 1.356 . S
C579 C578 1.363 . S
C579 C582 1.363 . S
N580 C582 1.356 . S
N580 H592 0.984 . S
N580 H593 0.985 . S
N581 C583 1.356 . S
N581 H586 0.984 . S
N581 H587 0.985 . S
C582 C576 1.379 . S
C582 C579 1.363 . S
C582 N580 1.356 . S
C583 C577 1.363 . S
C583 C578 1.379 . S
C583 N581 1.356 . S
N584 C576 1.356 . S
N584 H590 0.984 . S
N584 H591 0.984 . S
N585 C578 1.356 . S
N585 H588 0.984 . S
N585 H589 0.985 . S
H586 N581 0.984 . S
H587 N581 0.985 . S
H588 N585 0.984 . S
H589 N585 0.985 . S
H590 N584 0.984 . S
H591 N584 0.984 . S
H592 N580 0.984 . S
H593 N580 0.985 . S
C594 C595 1.363 . S
C594 C600 1.379 . S
C594 N602 1.356 . S
C595 C594 1.363 . S
C595 C601 1.363 . S
C596 C597 1.363 . S
C596 C601 1.379 . S
C596 N603 1.356 . S
C597 C596 1.363 . S
C597 C600 1.363 . S
N598 C600 1.356 . S
N598 H610 0.984 . S
N598 H611 0.985 . S
N599 C601 1.356 . S
N599 H604 0.984 . S
N599 H605 0.985 . S
C600 C594 1.379 . S
C600 C597 1.363 . S
C600 N598 1.356 . S
C601 C595 1.363 . S
C601 C596 1.379 . S
C601 N599 1.356 . S
N602 C594 1.356 . S
N602 H608 0.984 . S
N602 H609 0.984 . S
N603 C596 1.356 . S
N603 H606 0.984 . S
N603 H607 0.985 . S
H604 N599 0.984 . S
H605 N599 0.985 . S
H606 N603 0.984 . S
H607 N603 0.985 . S
H608 N602 0.984 . S
H609 N602 0.984 . S
H610 N598 0.984 . S
H611 N598 0.985 . S
C612 C613 1.363 . S
C612 C618 1.379 . S
C612 N620 1.356 . S
C613 C612 1.363 . S
C613 C619 1.363 . S
C614 C615 1.363 . S
C614 C619 1.379 . S
C614 N621 1.356 . S
C615 C614 1.363 . S
C615 C618 1.363 . S
N616 C618 1.356 . S
N616 H628 0.984 . S
N616 H629 0.985 . S
N617 C619 1.356 . S
N617 H622 0.984 . S
N617 H623 0.985 . S
C618 C612 1.379 . S
C618 C615 1.363 . S
C618 N616 1.356 . S
C619 C613 1.363 . S
C619 C614 1.379 . S
C619 N617 1.356 . S
N620 C612 1.356 . S
N620 H626 0.984 . S
N620 H627 0.984 . S
N621 C614 1.356 . S
N621 H624 0.984 . S
N621 H625 0.985 . S
H622 N617 0.984 . S
H623 N617 0.985 . S
H624 N621 0.984 . S
H625 N621 0.985 . S
H626 N620 0.984 . S
H627 N620 0.984 . S
H628 N616 0.984 . S
H629 N616 0.985 . S
C630 C631 1.363 . S
C630 C636 1.379 . S
C630 N638 1.356 . S
C631 C630 1.363 . S
C631 C637 1.363 . S
C632 C633 1.363 . S
C632 C637 1.379 . S
C632 N639 1.356 . S
C633 C632 1.363 . S
C633 C636 1.363 . S
N634 C636 1.356 . S
N634 H646 0.984 . S
N634 H647 0.985 . S
N635 C637 1.356 . S
N635 H640 0.984 . S
N635 H641 0.985 . S
C636 C630 1.379 . S
C636 C633 1.363 . S
C636 N634 1.356 . S
C637 C631 1.363 . S
C637 C632 1.379 . S
C637 N635 1.356 . S
N638 C630 1.356 . S
N638 H644 0.984 . S
N638 H645 0.984 . S
N639 C632 1.356 . S
N639 H642 0.984 . S
N639 H643 0.985 . S
H640 N635 0.984 . S
H641 N635 0.985 . S
H642 N639 0.984 . S
H643 N639 0.985 . S
H644 N638 0.984 . S
H645 N638 0.984 . S
H646 N634 0.984 . S
H647 N634 0.985 . S
C648 C649 1.363 . S
C648 C654 1.379 . S
C648 N656 1.356 . S
C649 C648 1.363 . S
C649 C655 1.363 . S
C650 C651 1.363 . S
C650 C655 1.379 . S
C650 N657 1.356 . S
C651 C650 1.363 . S
C651 C654 1.363 . S
N652 C654 1.356 . S
N652 H664 0.984 . S
N652 H665 0.985 . S
N653 C655 1.356 . S
N653 H658 0.984 . S
N653 H659 0.985 . S
C654 C648 1.379 . S
C654 C651 1.363 . S
C654 N652 1.356 . S
C655 C649 1.363 . S
C655 C650 1.379 . S
C655 N653 1.356 . S
N656 C648 1.356 . S
N656 H662 0.984 . S
N656 H663 0.984 . S
N657 C650 1.356 . S
N657 H660 0.984 . S
N657 H661 0.985 . S
H658 N653 0.984 . S
H659 N653 0.985 . S
H660 N657 0.984 . S
H661 N657 0.985 . S
H662 N656 0.984 . S
H663 N656 0.984 . S
H664 N652 0.984 . S
H665 N652 0.985 . S
C666 C667 1.363 . S
C666 C672 1.379 . S
C666 N674 1.356 . S
C667 C666 1.363 . S
C667 C673 1.363 . S
C668 C669 1.363 . S
C668 C673 1.379 . S
C668 N675 1.356 . S
C669 C668 1.363 . S
C669 C672 1.363 . S
N670 C672 1.333 1_554 S
N670 H682 1.006 . S
N670 H683 0.986 . S
N671 C673 1.356 . S
N671 H676 0.984 . S
N671 H677 0.985 . S
C672 C666 1.379 . S
C672 C669 1.363 . S
C672 N670 1.333 1_556 S
C673 C667 1.363 . S
C673 C668 1.379 . S
C673 N671 1.356 . S
N674 C666 1.356 . S
N674 H680 0.984 . S
N674 H681 0.984 . S
N675 C668 1.356 . S
N675 H678 0.984 . S
N675 H679 0.985 . S
H676 N671 0.984 . S
H677 N671 0.985 . S
H678 N675 0.984 . S
H679 N675 0.985 . S
H680 N674 0.984 . S
H681 N674 0.984 . S
H682 N670 1.006 . S
H683 N670 0.986 . S
C684 C685 1.363 . S
C684 C690 1.379 . S
C684 N692 1.356 . S
C685 C684 1.363 . S
C685 C691 1.363 . S
C686 C687 1.363 . S
C686 C691 1.379 . S
C686 N693 1.356 . S
C687 C686 1.363 . S
C687 C690 1.363 . S
N688 C690 1.356 . S
N688 H700 0.984 . S
N688 H701 0.985 . S
N689 C691 1.356 . S
N689 H694 0.984 . S
N689 H695 0.985 1_556 S
C690 C684 1.379 . S
C690 C687 1.363 . S
C690 N688 1.356 . S
C691 C685 1.363 . S
C691 C686 1.379 . S
C691 N689 1.356 . S
N692 C684 1.356 . S
N692 H698 0.984 . S
N692 H699 0.984 . S
N693 C686 1.356 . S
N693 H696 0.984 . S
N693 H697 0.985 . S
H694 N689 0.984 . S
H695 N689 0.985 1_554 S
H696 N693 0.984 . S
H697 N693 0.985 . S
H698 N692 0.984 . S
H699 N692 0.984 . S
H700 N688 0.984 . S
H701 N688 0.985 . S
C702 C703 1.363 . S
C702 C708 1.379 . S
C702 N710 1.356 . S
C703 C702 1.363 . S
C703 C709 1.363 . S
C704 C705 1.363 . S
C704 C709 1.379 . S
C704 N711 1.356 . S
C705 C704 1.363 . S
C705 C708 1.363 . S
N706 C708 1.356 . S
N706 H718 0.984 . S
N706 H719 0.985 . S
N707 C709 1.356 . S
N707 H712 0.984 . S
N707 H713 0.985 . S
C708 C702 1.379 . S
C708 C705 1.363 . S
C708 N706 1.356 . S
C709 C703 1.363 . S
C709 C704 1.379 . S
C709 N707 1.356 . S
N710 C702 1.356 . S
N710 H716 0.984 . S
N710 H717 0.984 . S
N711 C704 1.356 . S
N711 H714 0.984 . S
N711 H715 0.985 . S
H712 N707 0.984 . S
H713 N707 0.985 . S
H714 N711 0.984 . S
H715 N711 0.985 . S
H716 N710 0.984 . S
H717 N710 0.984 . S
H718 N706 0.984 . S
H719 N706 0.985 . S
C720 C721 1.363 . S
C720 C726 1.379 . S
C720 N728 1.356 . S
C721 C720 1.363 . S
C721 C727 1.363 . S
C722 C723 1.363 . S
C722 C727 1.379 . S
C722 N729 1.356 . S
C723 C722 1.363 . S
C723 C726 1.363 . S
N724 C726 1.356 . S
N724 H736 0.984 . S
N724 H737 0.985 . S
N725 C727 1.356 . S
N725 H730 0.984 . S
N725 H731 0.985 . S
C726 C720 1.379 . S
C726 C723 1.363 . S
C726 N724 1.356 . S
C727 C721 1.363 . S
C727 C722 1.379 . S
C727 N725 1.356 . S
N728 C720 1.356 . S
N728 H734 0.984 . S
N728 H735 0.984 . S
N729 C722 1.356 . S
N729 H732 0.984 . S
N729 H733 0.985 . S
H730 N725 0.984 . S
H731 N725 0.985 . S
H732 N729 0.984 . S
H733 N729 0.985 . S
H734 N728 0.984 . S
H735 N728 0.984 . S
H736 N724 0.984 . S
H737 N724 0.985 . S
C738 C739 1.363 . S
C738 C744 1.379 . S
C738 N746 1.356 . S
C739 C738 1.363 . S
C739 C745 1.363 . S
C740 C741 1.363 . S
C740 C745 1.379 . S
C740 N747 1.356 . S
C741 C740 1.363 . S
C741 C744 1.363 . S
N742 C744 1.356 . S
N742 H754 0.984 . S
N742 H755 0.985 . S
N743 C745 1.356 . S
N743 H748 0.984 . S
N743 H749 0.985 . S
C744 C738 1.379 . S
C744 C741 1.363 . S
C744 N742 1.356 . S
C745 C739 1.363 . S
C745 C740 1.379 . S
C745 N743 1.356 . S
N746 C738 1.356 . S
N746 H752 0.984 . S
N746 H753 0.984 . S
N747 C740 1.356 . S
N747 H750 0.984 . S
N747 H751 0.985 . S
H748 N743 0.984 . S
H749 N743 0.985 . S
H750 N747 0.984 . S
H751 N747 0.985 . S
H752 N746 0.984 . S
H753 N746 0.984 . S
H754 N742 0.984 . S
H755 N742 0.985 . S
C756 C757 1.363 . S
C756 C762 1.379 . S
C756 N764 1.356 . S
C757 C756 1.363 . S
C757 C763 1.363 1_565 S
C758 C759 1.363 . S
C758 C763 1.379 1_565 S
C758 N765 1.356 1_565 S
C759 C758 1.363 . S
C759 C762 1.363 . S
N760 C762 1.356 . S
N760 H772 0.984 . S
N760 H773 0.985 . S
N761 C763 1.356 . S
N761 H766 0.984 . S
N761 H767 0.985 . S
C762 C756 1.379 . S
C762 C759 1.363 . S
C762 N760 1.356 . S
C763 C757 1.363 1_545 S
C763 C758 1.379 1_545 S
C763 N761 1.356 . S
N764 C756 1.356 . S
N764 H770 0.984 . S
N764 H771 0.984 . S
N765 C758 1.356 1_545 S
N765 H768 0.984 1_545 S
N765 H769 0.985 . S
H766 N761 0.984 . S
H767 N761 0.985 . S
H768 N765 0.984 1_565 S
H769 N765 0.985 . S
H770 N764 0.984 . S
H771 N764 0.984 . S
H772 N760 0.984 . S
H773 N760 0.985 . S
C774 C775 1.363 . S
C774 C780 1.379 . S
C774 N782 1.356 . S
C775 C774 1.363 . S
C775 C781 1.363 . S
C776 C777 1.363 . S
C776 C781 1.379 . S
C776 N783 1.356 . S
C777 C776 1.363 . S
C777 C780 1.363 . S
N778 C780 1.356 . S
N778 H790 0.984 . S
N778 H791 0.985 . S
N779 C781 1.356 . S
N779 H784 0.984 . S
N779 H785 0.985 . S
C780 C774 1.379 . S
C780 C777 1.363 . S
C780 N778 1.356 . S
C781 C775 1.363 . S
C781 C776 1.379 . S
C781 N779 1.356 . S
N782 C774 1.356 . S
N782 H788 0.984 . S
N782 H789 0.984 . S
N783 C776 1.356 . S
N783 H786 0.984 . S
N783 H787 0.985 . S
H784 N779 0.984 . S
H785 N779 0.985 . S
H786 N783 0.984 . S
H787 N783 0.985 . S
H788 N782 0.984 . S
H789 N782 0.984 . S
H790 N778 0.984 . S
H791 N778 0.985 . S
C792 C793 1.363 . S
C792 C798 1.379 . S
C792 N800 1.356 . S
C793 C792 1.363 . S
C793 C799 1.363 1_655 S
C794 C795 1.363 . S
C794 C799 1.379 1_655 S
C794 N801 1.356 1_655 S
C795 C794 1.363 . S
C795 C798 1.363 . S
N796 C798 1.356 . S
N796 H808 0.984 . S
N796 H809 0.985 . S
N797 C799 1.356 . S
N797 H802 0.984 . S
N797 H803 0.985 . S
C798 C792 1.379 . S
C798 C795 1.363 . S
C798 N796 1.356 . S
C799 C793 1.363 1_455 S
C799 C794 1.379 1_455 S
C799 N797 1.356 . S
N800 C792 1.356 . S
N800 H806 0.984 . S
N800 H807 0.984 . S
N801 C794 1.356 1_455 S
N801 H804 0.984 1_455 S
N801 H805 0.985 . S
H802 N797 0.984 . S
H803 N797 0.985 . S
H804 N801 0.984 1_655 S
H805 N801 0.985 . S
H806 N800 0.984 . S
H807 N800 0.984 . S
H808 N796 0.984 . S
H809 N796 0.985 . S
C810 C811 1.363 . S
C810 C816 1.379 . S
C810 N818 1.356 1_556 S
C811 C810 1.363 . S
C811 C817 1.363 . S
C812 C813 1.363 . S
C812 C817 1.379 . S
C812 N819 1.356 . S
C813 C812 1.363 . S
C813 C816 1.363 . S
N814 C816 1.356 . S
N814 H826 0.984 . S
N814 H827 0.985 . S
N815 C817 1.356 . S
N815 H820 0.984 . S
N815 H821 0.985 . S
C816 C810 1.379 . S
C816 C813 1.363 . S
C816 N814 1.356 . S
C817 C811 1.363 . S
C817 C812 1.379 . S
C817 N815 1.356 . S
N818 C810 1.356 1_554 S
N818 H824 0.984 . S
N818 H825 0.984 . S
N819 C812 1.356 . S
N819 H822 0.984 . S
N819 H823 0.985 . S
H820 N815 0.984 . S
H821 N815 0.985 . S
H822 N819 0.984 . S
H823 N819 0.985 . S
H824 N818 0.984 . S
H825 N818 0.984 . S
H826 N814 0.984 . S
H827 N814 0.985 . S
C828 C829 1.363 . S
C828 C834 1.379 . S
C828 N836 1.356 . S
C829 C828 1.363 . S
C829 C835 1.363 . S
C830 C831 1.363 . S
C830 C835 1.379 . S
C830 N837 1.356 . S
C831 C830 1.363 . S
C831 C834 1.363 . S
N832 C834 1.356 . S
N832 H844 0.984 . S
N832 H845 0.985 . S
N833 C835 1.356 . S
N833 H838 0.984 . S
N833 H839 0.985 . S
C834 C828 1.379 . S
C834 C831 1.363 . S
C834 N832 1.356 . S
C835 C829 1.363 . S
C835 C830 1.379 . S
C835 N833 1.356 . S
N836 C828 1.356 . S
N836 H842 0.984 . S
N836 H843 0.984 . S
N837 C830 1.356 . S
N837 H840 0.984 1_655 S
N837 H841 0.983 . S
H838 N833 0.984 . S
H839 N833 0.985 . S
H840 N837 0.984 1_455 S
H841 N837 0.983 . S
H842 N836 0.984 . S
H843 N836 0.984 . S
H844 N832 0.984 . S
H845 N832 0.985 . S
C846 C847 1.363 . S
C846 C852 1.379 . S
C846 N854 1.356 . S
C847 C846 1.363 . S
C847 C853 1.363 . S
C848 C849 1.363 . S
C848 C853 1.379 . S
C848 N855 1.356 . S
C849 C848 1.363 . S
C849 C852 1.363 . S
N850 C852 1.356 . S
N850 H862 0.984 . S
N850 H863 0.985 . S
N851 C853 1.356 . S
N851 H856 0.984 . S
N851 H857 0.985 . S
C852 C846 1.379 . S
C852 C849 1.363 . S
C852 N850 1.356 . S
C853 C847 1.363 . S
C853 C848 1.379 . S
C853 N851 1.356 . S
N854 C846 1.356 . S
N854 H860 0.984 . S
N854 H861 0.984 . S
N855 C848 1.356 . S
N855 H858 0.984 . S
N855 H859 0.985 . S
H856 N851 0.984 . S
H857 N851 0.985 . S
H858 N855 0.984 . S
H859 N855 0.985 . S
H860 N854 0.984 . S
H861 N854 0.984 . S
H862 N850 0.984 . S
H863 N850 0.985 . S
C864 C865 1.363 . S
C864 C870 1.379 . S
C864 N872 1.356 . S
C865 C864 1.363 . S
C865 C871 1.363 . S
C866 C867 1.363 . S
C866 C871 1.379 . S
C866 N873 1.356 . S
C867 C866 1.363 . S
C867 C870 1.363 . S
N868 C870 1.356 . S
N868 H880 0.984 . S
N868 H881 0.985 . S
N869 C871 1.356 . S
N869 H874 0.984 . S
N869 H875 0.985 . S
C870 C864 1.379 . S
C870 C867 1.363 . S
C870 N868 1.356 . S
C871 C865 1.363 . S
C871 C866 1.379 . S
C871 N869 1.356 . S
N872 C864 1.356 . S
N872 H878 0.984 . S
N872 H879 0.984 . S
N873 C866 1.356 . S
N873 H876 0.984 . S
N873 H877 0.985 . S
H874 N869 0.984 . S
H875 N869 0.985 . S
H876 N873 0.984 . S
H877 N873 0.985 . S
H878 N872 0.984 . S
H879 N872 0.984 . S
H880 N868 0.984 . S
H881 N868 0.985 . S
C882 C883 1.363 . S
C882 C888 1.379 . S
C882 N890 1.356 . S
C883 C882 1.363 . S
C883 C889 1.363 1_565 S
C884 C885 1.374 . S
C884 C889 1.379 1_565 S
C884 N891 1.348 1_565 S
C885 C884 1.374 . S
C885 C888 1.363 . S
N886 C888 1.356 . S
N886 H898 0.984 . S
N886 H899 0.985 . S
N887 C889 1.356 . S
N887 H892 0.984 . S
N887 H893 0.985 . S
C888 C882 1.379 . S
C888 C885 1.363 . S
C888 N886 1.356 . S
C889 C883 1.363 1_545 S
C889 C884 1.379 1_545 S
C889 N887 1.356 . S
N890 C882 1.356 . S
N890 H896 0.984 . S
N890 H897 0.984 . S
N891 C884 1.348 1_545 S
N891 H894 0.984 1_544 S
N891 H895 0.985 . S
H892 N887 0.984 . S
H893 N887 0.985 . S
H894 N891 0.984 1_566 S
H895 N891 0.985 . S
H896 N890 0.984 . S
H897 N890 0.984 . S
H898 N886 0.984 . S
H899 N886 0.985 . S
C900 C901 1.363 . S
C900 C906 1.379 . S
C900 N908 1.356 . S
C901 C900 1.363 . S
C901 C907 1.363 . S
C902 C903 1.363 . S
C902 C907 1.379 . S
C902 N909 1.356 . S
C903 C902 1.363 . S
C903 C906 1.363 . S
N904 C906 1.356 . S
N904 H916 0.984 . S
N904 H917 0.985 . S
N905 C907 1.356 . S
N905 H910 0.984 . S
N905 H911 0.985 . S
C906 C900 1.379 . S
C906 C903 1.363 . S
C906 N904 1.356 . S
C907 C901 1.363 . S
C907 C902 1.379 . S
C907 N905 1.356 . S
N908 C900 1.356 . S
N908 H914 0.984 . S
N908 H915 0.984 . S
N909 C902 1.356 . S
N909 H912 0.984 . S
N909 H913 0.985 . S
H910 N905 0.984 . S
H911 N905 0.985 . S
H912 N909 0.984 . S
H913 N909 0.985 . S
H914 N908 0.984 . S
H915 N908 0.984 . S
H916 N904 0.984 . S
H917 N904 0.985 . S
C918 C919 1.363 . S
C918 C924 1.379 . S
C918 N926 1.356 . S
C919 C918 1.363 . S
C919 C925 1.363 . S
C920 C921 1.363 . S
C920 C925 1.379 . S
C920 N927 1.356 . S
C921 C920 1.363 . S
C921 C924 1.363 . S
N922 C924 1.356 . S
N922 H934 0.984 . S
N922 H935 0.985 . S
N923 C925 1.356 . S
N923 H928 0.984 . S
N923 H929 0.985 . S
C924 C918 1.379 . S
C924 C921 1.363 . S
C924 N922 1.356 . S
C925 C919 1.363 . S
C925 C920 1.379 . S
C925 N923 1.356 . S
N926 C918 1.356 . S
N926 H932 0.984 1_554 S
N926 H933 0.984 1_554 S
N927 C920 1.356 . S
N927 H930 0.984 . S
N927 H931 0.985 . S
H928 N923 0.984 . S
H929 N923 0.985 . S
H930 N927 0.984 . S
H931 N927 0.985 . S
H932 N926 0.984 1_556 S
H933 N926 0.984 1_556 S
H934 N922 0.984 . S
H935 N922 0.985 . S
C936 C937 1.363 . S
C936 C942 1.379 . S
C936 N944 1.356 . S
C937 C936 1.363 . S
C937 C943 1.363 . S
C938 C939 1.363 . S
C938 C943 1.379 . S
C938 N945 1.356 . S
C939 C938 1.363 . S
C939 C942 1.363 . S
N940 C942 1.356 1_655 S
N940 H952 0.984 . S
N940 H953 0.985 . S
N941 C943 1.356 . S
N941 H946 0.984 . S
N941 H947 0.985 . S
C942 C936 1.379 . S
C942 C939 1.363 . S
C942 N940 1.356 1_455 S
C943 C937 1.363 . S
C943 C938 1.379 . S
C943 N941 1.356 . S
N944 C936 1.356 . S
N944 H950 0.984 . S
N944 H951 0.984 . S
N945 C938 1.356 . S
N945 H948 0.984 . S
N945 H949 0.985 . S
H946 N941 0.984 . S
H947 N941 0.985 . S
H948 N945 0.984 . S
H949 N945 0.985 . S
H950 N944 0.984 . S
H951 N944 0.984 . S
H952 N940 0.984 . S
H953 N940 0.985 . S
C954 C955 1.363 . S
C954 C960 1.379 . S
C954 N962 1.356 . S
C955 C954 1.363 . S
C955 C961 1.363 . S
C956 C957 1.363 . S
C956 C961 1.379 . S
C956 N963 1.356 . S
C957 C956 1.363 . S
C957 C960 1.363 . S
N958 C960 1.356 . S
N958 H970 0.984 . S
N958 H971 0.985 . S
N959 C961 1.356 . S
N959 H964 0.984 . S
N959 H965 0.985 . S
C960 C954 1.379 . S
C960 C957 1.363 . S
C960 N958 1.356 . S
C961 C955 1.363 . S
C961 C956 1.379 . S
C961 N959 1.356 . S
N962 C954 1.356 . S
N962 H968 0.984 . S
N962 H969 0.984 . S
N963 C956 1.356 . S
N963 H966 0.984 . S
N963 H967 0.985 . S
H964 N959 0.984 . S
H965 N959 0.985 . S
H966 N963 0.984 . S
H967 N963 0.985 . S
H968 N962 0.984 . S
H969 N962 0.984 . S
H970 N958 0.984 . S
H971 N958 0.985 . S
C972 C973 1.363 . S
C972 C978 1.379 . S
C972 N980 1.356 . S
C973 C972 1.363 . S
C973 C979 1.363 . S
C974 C975 1.363 . S
C974 C979 1.379 . S
C974 N981 1.356 . S
C975 C974 1.363 . S
C975 C978 1.363 . S
N976 C978 1.356 1_565 S
N976 H988 0.984 . S
N976 H989 0.985 . S
N977 C979 1.356 . S
N977 H982 0.984 . S
N977 H983 0.985 . S
C978 C972 1.379 . S
C978 C975 1.363 . S
C978 N976 1.356 1_545 S
C979 C973 1.363 . S
C979 C974 1.379 . S
C979 N977 1.356 . S
N980 C972 1.356 . S
N980 H986 0.984 . S
N980 H987 0.984 . S
N981 C974 1.356 . S
N981 H984 0.984 . S
N981 H985 0.985 . S
H982 N977 0.984 . S
H983 N977 0.985 . S
H984 N981 0.984 . S
H985 N981 0.985 . S
H986 N980 0.984 . S
H987 N980 0.984 . S
H988 N976 0.984 . S
H989 N976 0.985 . S
C990 C991 1.363 . S
C990 C996 1.379 . S
C990 N998 1.356 . S
C991 C990 1.363 . S
C991 C997 1.363 . S
C992 C993 1.363 . S
C992 C997 1.379 . S
C992 N999 1.356 . S
C993 C992 1.363 . S
C993 C996 1.363 . S
N994 C996 1.356 1_565 S
N994 H1006 0.984 . S
N994 H1007 0.985 . S
N995 C997 1.356 . S
N995 H1000 0.984 . S
N995 H1001 0.985 . S
C996 C990 1.379 . S
C996 C993 1.363 . S
C996 N994 1.356 1_545 S
C997 C991 1.363 . S
C997 C992 1.379 . S
C997 N995 1.356 . S
N998 C990 1.356 . S
N998 H1004 0.984 . S
N998 H1005 0.984 . S
N999 C992 1.356 . S
N999 H1002 0.984 . S
N999 H1003 0.985 . S
H1000 N995 0.984 . S
H1001 N995 0.985 . S
H1002 N999 0.984 . S
H1003 N999 0.985 . S
H1004 N998 0.984 . S
H1005 N998 0.984 . S
H1006 N994 0.984 . S
H1007 N994 0.985 . S
C1008 C1009 1.363 . S
C1008 C1014 1.379 . S
C1008 N1016 1.356 . S
C1009 C1008 1.363 . S
C1009 C1015 1.363 . S
C1010 C1011 1.363 . S
C1010 C1015 1.379 . S
C1010 N1017 1.356 1_455 S
C1011 C1010 1.363 . S
C1011 C1014 1.363 . S
N1012 C1014 1.356 . S
N1012 H1024 0.984 . S
N1012 H1025 0.985 . S
N1013 C1015 1.356 . S
N1013 H1018 0.984 . S
N1013 H1019 0.985 . S
C1014 C1008 1.379 . S
C1014 C1011 1.363 . S
C1014 N1012 1.356 . S
C1015 C1009 1.363 . S
C1015 C1010 1.379 . S
C1015 N1013 1.356 . S
N1016 C1008 1.356 . S
N1016 H1022 0.984 . S
N1016 H1023 0.984 . S
N1017 C1010 1.356 1_655 S
N1017 H1020 0.984 . S
N1017 H1021 0.985 . S
H1018 N1013 0.984 . S
H1019 N1013 0.985 . S
H1020 N1017 0.984 . S
H1021 N1017 0.985 . S
H1022 N1016 0.984 . S
H1023 N1016 0.984 . S
H1024 N1012 0.984 . S
H1025 N1012 0.985 . S
C1026 C1027 1.363 . S
C1026 C1032 1.379 . S
C1026 N1034 1.356 . S
C1027 C1026 1.363 . S
C1027 C1033 1.363 . S
C1028 C1029 1.363 . S
C1028 C1033 1.379 . S
C1028 N1035 1.356 . S
C1029 C1028 1.363 . S
C1029 C1032 1.363 . S
N1030 C1032 1.356 . S
N1030 H1042 0.984 . S
N1030 H1043 0.985 . S
N1031 C1033 1.356 . S
N1031 H1036 0.984 . S
N1031 H1037 0.985 . S
C1032 C1026 1.379 . S
C1032 C1029 1.363 . S
C1032 N1030 1.356 . S
C1033 C1027 1.363 . S
C1033 C1028 1.379 . S
C1033 N1031 1.356 . S
N1034 C1026 1.356 . S
N1034 H1040 0.984 . S
N1034 H1041 0.984 . S
N1035 C1028 1.356 . S
N1035 H1038 0.984 . S
N1035 H1039 0.985 . S
H1036 N1031 0.984 . S
H1037 N1031 0.985 . S
H1038 N1035 0.984 . S
H1039 N1035 0.985 . S
H1040 N1034 0.984 . S
H1041 N1034 0.984 . S
H1042 N1030 0.984 . S
H1043 N1030 0.985 . S
C1044 C1045 1.363 . S
C1044 C1050 1.379 . S
C1044 N1052 1.356 . S
C1045 C1044 1.363 . S
C1045 C1051 1.363 . S
C1046 C1047 1.363 . S
C1046 C1051 1.379 . S
C1046 N1053 1.356 . S
C1047 C1046 1.363 . S
C1047 C1050 1.363 . S
N1048 C1050 1.356 . S
N1048 H1060 0.984 . S
N1048 H1061 0.985 . S
N1049 C1051 1.356 . S
N1049 H1054 0.984 . S
N1049 H1055 0.985 . S
C1050 C1044 1.379 . S
C1050 C1047 1.363 . S
C1050 N1048 1.356 . S
C1051 C1045 1.363 . S
C1051 C1046 1.379 . S
C1051 N1049 1.356 . S
N1052 C1044 1.356 . S
N1052 H1058 0.984 . S
N1052 H1059 0.984 . S
N1053 C1046 1.356 . S
N1053 H1056 0.984 . S
N1053 H1057 0.985 . S
H1054 N1049 0.984 . S
H1055 N1049 0.985 . S
H1056 N1053 0.984 . S
H1057 N1053 0.985 . S
H1058 N1052 0.984 . S
H1059 N1052 0.984 . S
H1060 N1048 0.984 . S
H1061 N1048 0.985 . S
C1062 C1063 1.363 . S
C1062 C1068 1.379 . S
C1062 N1070 1.356 . S
C1063 C1062 1.363 . S
C1063 C1069 1.363 . S
C1064 C1065 1.363 . S
C1064 C1069 1.379 . S
C1064 N1071 1.356 . S
C1065 C1064 1.363 . S
C1065 C1068 1.363 . S
N1066 C1068 1.356 . S
N1066 H1078 0.984 . S
N1066 H1079 0.985 . S
N1067 C1069 1.356 . S
N1067 H1072 0.984 . S
N1067 H1073 0.985 . S
C1068 C1062 1.379 . S
C1068 C1065 1.363 . S
C1068 N1066 1.356 . S
C1069 C1063 1.363 . S
C1069 C1064 1.379 . S
C1069 N1067 1.356 . S
N1070 C1062 1.356 . S
N1070 H1076 0.984 . S
N1070 H1077 0.984 . S
N1071 C1064 1.356 . S
N1071 H1074 0.984 . S
N1071 H1075 0.985 . S
H1072 N1067 0.984 . S
H1073 N1067 0.985 . S
H1074 N1071 0.984 . S
H1075 N1071 0.985 . S
H1076 N1070 0.984 . S
H1077 N1070 0.984 . S
H1078 N1066 0.984 . S
H1079 N1066 0.985 . S
C1080 C1081 1.363 . S
C1080 C1086 1.379 . S
C1080 N1088 1.356 . S
C1081 C1080 1.363 . S
C1081 C1087 1.363 . S
C1082 C1083 1.363 . S
C1082 C1087 1.379 . S
C1082 N1089 1.356 . S
C1083 C1082 1.363 . S
C1083 C1086 1.363 . S
N1084 C1086 1.356 . S
N1084 H1096 0.984 . S
N1084 H1097 0.985 . S
N1085 C1087 1.356 . S
N1085 H1090 0.984 . S
N1085 H1091 0.985 . S
C1086 C1080 1.379 . S
C1086 C1083 1.363 . S
C1086 N1084 1.356 . S
C1087 C1081 1.363 . S
C1087 C1082 1.379 . S
C1087 N1085 1.356 . S
N1088 C1080 1.356 . S
N1088 H1094 0.984 . S
N1088 H1095 0.984 . S
N1089 C1082 1.356 . S
N1089 H1092 0.984 . S
N1089 H1093 0.985 . S
H1090 N1085 0.984 . S
H1091 N1085 0.985 . S
H1092 N1089 0.984 . S
H1093 N1089 0.985 . S
H1094 N1088 0.984 . S
H1095 N1088 0.984 . S
H1096 N1084 0.984 . S
H1097 N1084 0.985 . S
C1098 C1099 1.363 . S
C1098 C1104 1.379 . S
C1098 N1106 1.356 . S
C1099 C1098 1.363 . S
C1099 C1105 1.363 . S
C1100 C1101 1.363 . S
C1100 C1105 1.379 . S
C1100 N1107 1.356 . S
C1101 C1100 1.363 . S
C1101 C1104 1.363 . S
N1102 C1104 1.356 . S
N1102 H1114 0.984 . S
N1102 H1115 0.985 . S
N1103 C1105 1.356 . S
N1103 H1108 0.984 . S
N1103 H1109 0.985 . S
C1104 C1098 1.379 . S
C1104 C1101 1.363 . S
C1104 N1102 1.356 . S
C1105 C1099 1.363 . S
C1105 C1100 1.379 . S
C1105 N1103 1.356 . S
N1106 C1098 1.356 . S
N1106 H1112 0.984 . S
N1106 H1113 0.984 . S
N1107 C1100 1.356 . S
N1107 H1110 0.984 . S
N1107 H1111 0.985 . S
H1108 N1103 0.984 . S
H1109 N1103 0.985 . S
H1110 N1107 0.984 . S
H1111 N1107 0.985 . S
H1112 N1106 0.984 . S
H1113 N1106 0.984 . S
H1114 N1102 0.984 . S
H1115 N1102 0.985 . S
C1116 C1117 1.363 . S
C1116 C1122 1.379 . S
C1116 N1124 1.356 . S
C1117 C1116 1.363 . S
C1117 C1123 1.363 . S
C1118 C1119 1.363 . S
C1118 C1123 1.379 . S
C1118 N1125 1.356 . S
C1119 C1118 1.363 . S
C1119 C1122 1.363 . S
N1120 C1122 1.356 . S
N1120 H1132 0.984 . S
N1120 H1133 0.985 . S
N1121 C1123 1.356 . S
N1121 H1126 0.984 . S
N1121 H1127 0.985 . S
C1122 C1116 1.379 . S
C1122 C1119 1.363 . S
C1122 N1120 1.356 . S
C1123 C1117 1.363 . S
C1123 C1118 1.379 . S
C1123 N1121 1.356 . S
N1124 C1116 1.356 . S
N1124 H1130 0.984 . S
N1124 H1131 0.984 . S
N1125 C1118 1.356 . S
N1125 H1128 0.984 . S
N1125 H1129 0.985 . S
H1126 N1121 0.984 . S
H1127 N1121 0.985 . S
H1128 N1125 0.984 . S
H1129 N1125 0.985 . S
H1130 N1124 0.984 . S
H1131 N1124 0.984 . S
H1132 N1120 0.984 . S
H1133 N1120 0.985 . S
C1134 C1135 1.363 . S
C1134 C1140 1.379 . S
C1134 N1142 1.356 . S
C1135 C1134 1.363 . S
C1135 C1141 1.363 . S
C1136 C1137 1.363 . S
C1136 C1141 1.379 . S
C1136 N1143 1.356 . S
C1137 C1136 1.363 . S
C1137 C1140 1.363 . S
N1138 C1140 1.356 . S
N1138 H1150 0.984 . S
N1138 H1151 0.985 . S
N1139 C1141 1.356 . S
N1139 H1144 0.984 . S
N1139 H1145 0.985 . S
C1140 C1134 1.379 . S
C1140 C1137 1.363 . S
C1140 N1138 1.356 . S
C1141 C1135 1.363 . S
C1141 C1136 1.379 . S
C1141 N1139 1.356 . S
N1142 C1134 1.356 . S
N1142 H1148 0.984 . S
N1142 H1149 0.984 . S
N1143 C1136 1.356 . S
N1143 H1146 0.984 . S
N1143 H1147 0.985 . S
H1144 N1139 0.984 . S
H1145 N1139 0.985 . S
H1146 N1143 0.984 . S
H1147 N1143 0.985 . S
H1148 N1142 0.984 . S
H1149 N1142 0.984 . S
H1150 N1138 0.984 . S
H1151 N1138 0.985 . S
C1152 C1153 1.363 . S
C1152 C1158 1.379 . S
C1152 N1160 1.356 . S
C1153 C1152 1.363 . S
C1153 C1159 1.363 . S
C1154 C1155 1.363 . S
C1154 C1159 1.379 . S
C1154 N1161 1.356 . S
C1155 C1154 1.363 . S
C1155 C1158 1.363 . S
N1156 C1158 1.356 . S
N1156 H1168 0.984 . S
N1156 H1169 0.985 . S
N1157 C1159 1.356 . S
N1157 H1162 0.984 . S
N1157 H1163 0.985 . S
C1158 C1152 1.379 . S
C1158 C1155 1.363 . S
C1158 N1156 1.356 . S
C1159 C1153 1.363 . S
C1159 C1154 1.379 . S
C1159 N1157 1.356 . S
N1160 C1152 1.356 . S
N1160 H1166 0.984 . S
N1160 H1167 0.984 . S
N1161 C1154 1.356 . S
N1161 H1164 0.984 . S
N1161 H1165 0.985 . S
H1162 N1157 0.984 . S
H1163 N1157 0.985 . S
H1164 N1161 0.984 . S
H1165 N1161 0.985 . S
H1166 N1160 0.984 . S
H1167 N1160 0.984 . S
H1168 N1156 0.984 . S
H1169 N1156 0.985 . S
C1170 C1171 1.363 . S
C1170 C1176 1.379 . S
C1170 N1178 1.356 . S
C1171 C1170 1.363 . S
C1171 C1177 1.363 . S
C1172 C1173 1.363 . S
C1172 C1177 1.379 . S
C1172 N1179 1.356 . S
C1173 C1172 1.363 . S
C1173 C1176 1.363 . S
N1174 C1176 1.356 . S
N1174 H1186 0.984 . S
N1174 H1187 0.985 . S
N1175 C1177 1.356 . S
N1175 H1180 0.984 . S
N1175 H1181 0.985 . S
C1176 C1170 1.379 . S
C1176 C1173 1.363 . S
C1176 N1174 1.356 . S
C1177 C1171 1.363 . S
C1177 C1172 1.379 . S
C1177 N1175 1.356 . S
N1178 C1170 1.356 . S
N1178 H1184 0.984 . S
N1178 H1185 0.984 . S
N1179 C1172 1.356 . S
N1179 H1182 0.984 . S
N1179 H1183 0.985 . S
H1180 N1175 0.984 . S
H1181 N1175 0.985 . S
H1182 N1179 0.984 . S
H1183 N1179 0.985 . S
H1184 N1178 0.984 . S
H1185 N1178 0.984 . S
H1186 N1174 0.984 . S
H1187 N1174 0.985 . S
C1188 C1189 1.363 . S
C1188 C1194 1.379 . S
C1188 N1196 1.356 . S
C1189 C1188 1.363 . S
C1189 C1195 1.363 . S
C1190 C1191 1.363 . S
C1190 C1195 1.379 . S
C1190 N1197 1.356 . S
C1191 C1190 1.363 . S
C1191 C1194 1.363 . S
N1192 C1194 1.356 . S
N1192 H1204 0.984 . S
N1192 H1205 0.985 . S
N1193 C1195 1.356 . S
N1193 H1198 0.984 . S
N1193 H1199 0.985 . S
C1194 C1188 1.379 . S
C1194 C1191 1.363 . S
C1194 N1192 1.356 . S
C1195 C1189 1.363 . S
C1195 C1190 1.379 . S
C1195 N1193 1.356 . S
N1196 C1188 1.356 . S
N1196 H1202 0.984 . S
N1196 H1203 0.984 . S
N1197 C1190 1.356 . S
N1197 H1200 0.984 . S
N1197 H1201 0.985 . S
H1198 N1193 0.984 . S
H1199 N1193 0.985 . S
H1200 N1197 0.984 . S
H1201 N1197 0.985 . S
H1202 N1196 0.984 . S
H1203 N1196 0.984 . S
H1204 N1192 0.984 . S
H1205 N1192 0.985 . S
C1206 C1207 1.363 . S
C1206 C1212 1.379 . S
C1206 N1214 1.356 . S
C1207 C1206 1.363 . S
C1207 C1213 1.363 . S
C1208 C1209 1.363 . S
C1208 C1213 1.379 . S
C1208 N1215 1.356 . S
C1209 C1208 1.363 . S
C1209 C1212 1.363 . S
N1210 C1212 1.356 . S
N1210 H1222 0.984 . S
N1210 H1223 0.985 . S
N1211 C1213 1.356 . S
N1211 H1216 0.984 . S
N1211 H1217 0.985 . S
C1212 C1206 1.379 . S
C1212 C1209 1.363 . S
C1212 N1210 1.356 . S
C1213 C1207 1.363 . S
C1213 C1208 1.379 . S
C1213 N1211 1.356 . S
N1214 C1206 1.356 . S
N1214 H1220 0.984 . S
N1214 H1221 0.984 . S
N1215 C1208 1.356 . S
N1215 H1218 0.984 . S
N1215 H1219 0.985 . S
H1216 N1211 0.984 . S
H1217 N1211 0.985 . S
H1218 N1215 0.984 . S
H1219 N1215 0.985 . S
H1220 N1214 0.984 . S
H1221 N1214 0.984 . S
H1222 N1210 0.984 . S
H1223 N1210 0.985 . S
C1224 C1225 1.363 . S
C1224 C1230 1.379 . S
C1224 N1232 1.356 . S
C1225 C1224 1.363 . S
C1225 C1231 1.363 . S
C1226 C1227 1.363 . S
C1226 C1231 1.379 . S
C1226 N1233 1.356 . S
C1227 C1226 1.363 . S
C1227 C1230 1.363 . S
N1228 C1230 1.356 . S
N1228 H1240 0.984 . S
N1228 H1241 0.985 . S
N1229 C1231 1.356 . S
N1229 H1234 0.984 . S
N1229 H1235 0.985 . S
C1230 C1224 1.379 . S
C1230 C1227 1.363 . S
C1230 N1228 1.356 . S
C1231 C1225 1.363 . S
C1231 C1226 1.379 . S
C1231 N1229 1.356 . S
N1232 C1224 1.356 . S
N1232 H1238 0.984 . S
N1232 H1239 0.984 . S
N1233 C1226 1.356 . S
N1233 H1236 0.984 . S
N1233 H1237 0.985 . S
H1234 N1229 0.984 . S
H1235 N1229 0.985 . S
H1236 N1233 0.984 . S
H1237 N1233 0.985 . S
H1238 N1232 0.984 . S
H1239 N1232 0.984 . S
H1240 N1228 0.984 . S
H1241 N1228 0.985 . S
C1242 C1243 1.363 . S
C1242 C1248 1.379 . S
C1242 N1250 1.356 . S
C1243 C1242 1.363 . S
C1243 C1249 1.363 . S
C1244 C1245 1.363 . S
C1244 C1249 1.379 . S
C1244 N1251 1.356 . S
C1245 C1244 1.363 . S
C1245 C1248 1.363 . S
N1246 C1248 1.356 . S
N1246 H1258 0.984 . S
N1246 H1259 0.985 . S
N1247 C1249 1.356 . S
N1247 H1252 0.984 . S
N1247 H1253 0.985 . S
C1248 C1242 1.379 . S
C1248 C1245 1.363 . S
C1248 N1246 1.356 . S
C1249 C1243 1.363 . S
C1249 C1244 1.379 . S
C1249 N1247 1.356 . S
N1250 C1242 1.356 . S
N1250 H1256 0.984 . S
N1250 H1257 0.984 . S
N1251 C1244 1.356 . S
N1251 H1254 0.984 . S
N1251 H1255 0.985 . S
H1252 N1247 0.984 . S
H1253 N1247 0.985 . S
H1254 N1251 0.984 . S
H1255 N1251 0.985 . S
H1256 N1250 0.984 . S
H1257 N1250 0.984 . S
H1258 N1246 0.984 . S
H1259 N1246 0.985 . S
C1260 C1261 1.363 . S
C1260 C1266 1.379 . S
C1260 N1268 1.356 . S
C1261 C1260 1.363 . S
C1261 C1267 1.363 1_554 S
C1262 C1263 1.363 . S
C1262 C1267 1.379 . S
C1262 N1269 1.356 . S
C1263 C1262 1.363 . S
C1263 C1266 1.363 1_556 S
N1264 C1266 1.356 . S
N1264 H1276 0.984 . S
N1264 H1277 0.985 . S
N1265 C1267 1.356 . S
N1265 H1270 0.984 . S
N1265 H1271 0.985 . S
C1266 C1260 1.379 . S
C1266 C1263 1.363 1_554 S
C1266 N1264 1.356 . S
C1267 C1261 1.363 1_556 S
C1267 C1262 1.379 . S
C1267 N1265 1.356 . S
N1268 C1260 1.356 . S
N1268 H1274 0.984 1_455 S
N1268 H1275 0.984 1_455 S
N1269 C1262 1.356 . S
N1269 H1272 0.984 . S
N1269 H1273 0.985 . S
H1270 N1265 0.984 . S
H1271 N1265 0.985 . S
H1272 N1269 0.984 . S
H1273 N1269 0.985 . S
H1274 N1268 0.984 1_655 S
H1275 N1268 0.984 1_655 S
H1276 N1264 0.984 . S
H1277 N1264 0.985 . S
C1278 C1279 1.363 . S
C1278 C1284 1.379 . S
C1278 N1286 1.356 . S
C1279 C1278 1.363 . S
C1279 C1285 1.363 1_556 S
C1280 C1281 1.363 . S
C1280 C1285 1.379 . S
C1280 N1287 1.356 . S
C1281 C1280 1.363 . S
C1281 C1284 1.363 1_554 S
N1282 C1284 1.356 . S
N1282 H1294 0.984 . S
N1282 H1295 0.985 . S
N1283 C1285 1.356 . S
N1283 H1288 0.984 . S
N1283 H1289 0.985 . S
C1284 C1278 1.379 . S
C1284 C1281 1.363 1_556 S
C1284 N1282 1.356 . S
C1285 C1279 1.363 1_554 S
C1285 C1280 1.379 . S
C1285 N1283 1.356 . S
N1286 C1278 1.356 . S
N1286 H1292 0.984 . S
N1286 H1293 0.984 . S
N1287 C1280 1.356 . S
N1287 H1290 0.984 . S
N1287 H1291 0.985 . S
H1288 N1283 0.984 . S
H1289 N1283 0.985 . S
H1290 N1287 0.984 . S
H1291 N1287 0.985 . S
H1292 N1286 0.984 . S
H1293 N1286 0.984 . S
H1294 N1282 0.984 . S
H1295 N1282 0.985 . S
C1296 C1297 1.363 1_556 S
C1296 C1302 1.379 . S
C1296 N1304 1.356 . S
C1297 C1296 1.363 1_554 S
C1297 C1303 1.363 . S
C1298 C1299 1.363 1_554 S
C1298 C1303 1.379 . S
C1298 N1305 1.356 1_545 S
C1299 C1298 1.363 1_556 S
C1299 C1302 1.363 . S
N1300 C1302 1.356 . S
N1300 H1312 0.984 . S
N1300 H1313 0.985 . S
N1301 C1303 1.356 . S
N1301 H1306 0.984 . S
N1301 H1307 0.985 . S
C1302 C1296 1.379 . S
C1302 C1299 1.363 . S
C1302 N1300 1.356 . S
C1303 C1297 1.363 . S
C1303 C1298 1.379 . S
C1303 N1301 1.356 . S
N1304 C1296 1.356 . S
N1304 H1310 0.984 . S
N1304 H1311 0.984 1_556 S
N1305 C1298 1.356 1_565 S
N1305 H1308 0.984 1_554 S
N1305 H1309 0.985 . S
H1306 N1301 0.984 . S
H1307 N1301 0.985 . S
H1308 N1305 0.984 1_556 S
H1309 N1305 0.985 . S
H1310 N1304 0.984 . S
H1311 N1304 0.984 1_554 S
H1312 N1300 0.984 . S
H1313 N1300 0.985 . S
C1314 C1315 1.363 . S
C1314 C1320 1.379 . S
C1314 N1322 1.356 . S
C1315 C1314 1.363 . S
C1315 C1321 1.363 . S
C1316 C1317 1.363 . S
C1316 C1321 1.379 . S
C1316 N1323 1.356 . S
C1317 C1316 1.363 . S
C1317 C1320 1.363 . S
N1318 C1320 1.356 1_565 S
N1318 H1330 0.984 . S
N1318 H1331 0.985 . S
N1319 C1321 1.356 . S
N1319 H1324 0.984 . S
N1319 H1325 0.985 . S
C1320 C1314 1.379 . S
C1320 C1317 1.363 . S
C1320 N1318 1.356 1_545 S
C1321 C1315 1.363 . S
C1321 C1316 1.379 . S
C1321 N1319 1.356 . S
N1322 C1314 1.356 . S
N1322 H1328 0.984 . S
N1322 H1329 0.984 . S
N1323 C1316 1.356 . S
N1323 H1326 0.984 . S
N1323 H1327 0.985 . S
H1324 N1319 0.984 . S
H1325 N1319 0.985 . S
H1326 N1323 0.984 . S
H1327 N1323 0.985 . S
H1328 N1322 0.984 . S
H1329 N1322 0.984 . S
H1330 N1318 0.984 . S
H1331 N1318 0.985 . S
C1332 C1333 1.363 . S
C1332 C1338 1.379 . S
C1332 N1340 1.356 . S
C1333 C1332 1.363 . S
C1333 C1339 1.363 . S
C1334 C1335 1.363 . S
C1334 C1339 1.379 . S
C1334 N1341 1.356 . S
C1335 C1334 1.363 . S
C1335 C1338 1.363 . S
N1336 C1338 1.356 . S
N1336 H1348 0.984 . S
N1336 H1349 0.985 . S
N1337 C1339 1.356 . S
N1337 H1342 0.984 . S
N1337 H1343 0.985 . S
C1338 C1332 1.379 . S
C1338 C1335 1.363 . S
C1338 N1336 1.356 . S
C1339 C1333 1.363 . S
C1339 C1334 1.379 . S
C1339 N1337 1.356 . S
N1340 C1332 1.356 . S
N1340 H1346 0.984 . S
N1340 H1347 0.984 . S
N1341 C1334 1.356 . S
N1341 H1344 0.984 . S
N1341 H1345 0.985 . S
H1342 N1337 0.984 . S
H1343 N1337 0.985 . S
H1344 N1341 0.984 . S
H1345 N1341 0.985 . S
H1346 N1340 0.984 . S
H1347 N1340 0.984 . S
H1348 N1336 0.984 . S
H1349 N1336 0.985 . S
C1350 C1351 1.363 . S
C1350 C1356 1.379 . S
C1350 N1358 1.356 . S
C1351 C1350 1.363 . S
C1351 C1357 1.363 . S
C1352 C1353 1.363 . S
C1352 C1357 1.379 . S
C1352 N1359 1.356 . S
C1353 C1352 1.363 . S
C1353 C1356 1.363 . S
N1354 C1356 1.356 . S
N1354 H1366 0.984 . S
N1354 H1367 0.985 . S
N1355 C1357 1.356 . S
N1355 H1360 0.984 . S
N1355 H1361 0.985 . S
C1356 C1350 1.379 . S
C1356 C1353 1.363 . S
C1356 N1354 1.356 . S
C1357 C1351 1.363 . S
C1357 C1352 1.379 . S
C1357 N1355 1.356 . S
N1358 C1350 1.356 . S
N1358 H1364 0.984 . S
N1358 H1365 0.984 . S
N1359 C1352 1.356 . S
N1359 H1362 0.984 . S
N1359 H1363 0.985 . S
H1360 N1355 0.984 . S
H1361 N1355 0.985 . S
H1362 N1359 0.984 . S
H1363 N1359 0.985 . S
H1364 N1358 0.984 . S
H1365 N1358 0.984 . S
H1366 N1354 0.984 . S
H1367 N1354 0.985 . S
C397 C53 1.486 . S
C399 C6 1.486 . S
C415 C9 1.486 . S
C417 C27 1.486 1_545 S
C433 C29 1.486 1_455 S
C435 C50 1.486 . S
C451 C75 1.486 . S
C453 C115 1.486 . S
C469 C72 1.486 1_545 S
C471 C95 1.486 . S
C487 C93 1.486 . S
C489 C117 1.486 1_455 S
C505 C185 1.486 . S
C507 C138 1.486 . S
C523 C160 1.486 . S
C525 C141 1.486 . S
C541 C163 1.486 . S
C543 C182 1.486 . S
C559 C205 1.486 . S
C561 C247 1.486 . S
C577 C203 1.486 . S
C579 C227 1.486 . S
C595 C249 1.486 . S
C597 C225 1.486 . S
C613 C315 1.486 . S
C615 C270 1.486 . S
C631 C273 1.486 . S
C633 C291 1.486 . S
C649 C293 1.486 . S
C651 C313 1.486 . S
C667 C379 1.486 . S
C669 C339 1.486 . S
C685 C359 1.486 . S
C687 C336 1.486 . S
C703 C381 1.486 . S
C705 C357 1.486 . S
C721 C5 1.765 . S
C723 C295 1.765 . S
C739 C317 1.765 . S
C741 C26 1.765 . S
C757 C49 1.765 1_565 S
C759 C272 1.765 . S
C775 C159 1.765 . S
C777 C52 1.765 . S
C793 C8 1.765 1_655 S
C795 C181 1.765 . S
C811 C137 1.765 . S
C813 C31 1.765 . S
C829 C226 1.765 . S
C831 C73 1.765 1_655 S
C847 C96 1.765 . S
C849 C248 1.765 . S
C865 C204 1.765 . S
C867 C118 1.765 . S
C883 C116 1.765 1_565 S
C885 C360 1.765 . S
C901 C382 1.765 . S
C903 C70 1.765 . S
C919 C337 1.765 . S
C921 C94 1.765 . S
C937 C290 1.765 . S
C939 C184 1.765 1_455 S
C955 C312 1.765 . S
C957 C140 1.765 . S
C973 C162 1.765 . S
C975 C269 1.765 1_545 S
C991 C206 1.765 . S
C993 C358 1.765 1_545 S
C1009 C380 1.765 . S
C1011 C228 1.765 1_455 S
C1027 C250 1.765 . S
C1029 C334 1.765 . S
C1045 C4 1.190 . S
C1047 C338 1.190 . S
C1063 C28 1.190 . S
C1065 C361 1.190 . S
C1081 C383 1.190 . S
C1083 C48 1.190 . S
C1099 C246 1.190 . S
C1101 C51 1.190 . S
C1117 C202 1.190 . S
C1119 C7 1.190 . S
C1135 C30 1.190 . S
C1137 C224 1.190 . S
C1153 C74 1.190 . S
C1155 C136 1.190 . S
C1171 C97 1.190 . S
C1173 C158 1.190 . S
C1189 C119 1.190 . S
C1191 C180 1.190 . S
C1207 C114 1.190 . S
C1209 C316 1.190 . S
C1225 C71 1.190 . S
C1227 C271 1.190 . S
C1243 C294 1.190 . S
C1245 C92 1.190 . S
C1261 C183 1.190 . S
C1263 C378 1.190 . S
C1279 C335 1.190 . S
C1281 C139 1.190 . S
C1297 C161 1.190 . S
C1299 C356 1.190 . S
C1315 C207 1.190 . S
C1317 C268 1.190 . S
C1333 C229 1.190 . S
C1335 C292 1.190 . S
C1351 C314 1.190 . S
C1353 C251 1.190 . S
