# Generated by pormake.
# Topology wkc, (5)-cn, num edge types: 1
# Building blocks:
#     Node 0, Type 0, BuildingBlock: XOMCOT_clean_sbu_1, # of connection points: 5
#     Node 1, Type 0, BuildingBlock: XOMCOT_clean_sbu_1, # of connection points: 5
#     Node 2, Type 0, BuildingBlock: XOMCOT_clean_sbu_1, # of connection points: 5
#     Node 3, Type 0, BuildingBlock: XOMCOT_clean_sbu_1, # of connection points: 5
#     Node 4, Type 0, BuildingBlock: XOMCOT_clean_sbu_1, # of connection points: 5
#     Node 5, Type 0, BuildingBlock: XOMCOT_clean_sbu_1, # of connection points: 5
#     Node 6, Type 0, BuildingBlock: XOMCOT_clean_sbu_1, # of connection points: 5
#     Node 7, Type 0, BuildingBlock: XOMCOT_clean_sbu_1, # of connection points: 5
#     Node 8, Type 0, BuildingBlock: XOMCOT_clean_sbu_1, # of connection points: 5
#     Node 9, Type 0, BuildingBlock: XOMCOT_clean_sbu_1, # of connection points: 5
#     Node 10, Type 0, BuildingBlock: XOMCOT_clean_sbu_1, # of connection points: 5
#     Node 11, Type 0, BuildingBlock: XOMCOT_clean_sbu_1, # of connection points: 5
#     Edge 12, Type (0, 0), BuildingBlock: XIVTED_clean_linker_0, # of connection points: 2
#     Edge 13, Type (0, 0), BuildingBlock: XIVTED_clean_linker_0, # of connection points: 2
#     Edge 14, Type (0, 0), BuildingBlock: XIVTED_clean_linker_0, # of connection points: 2
#     Edge 15, Type (0, 0), BuildingBlock: XIVTED_clean_linker_0, # of connection points: 2
#     Edge 16, Type (0, 0), BuildingBlock: XIVTED_clean_linker_0, # of connection points: 2
#     Edge 17, Type (0, 0), BuildingBlock: XIVTED_clean_linker_0, # of connection points: 2
#     Edge 18, Type (0, 0), BuildingBlock: XIVTED_clean_linker_0, # of connection points: 2
#     Edge 19, Type (0, 0), BuildingBlock: XIVTED_clean_linker_0, # of connection points: 2
#     Edge 20, Type (0, 0), BuildingBlock: XIVTED_clean_linker_0, # of connection points: 2
#     Edge 21, Type (0, 0), BuildingBlock: XIVTED_clean_linker_0, # of connection points: 2
#     Edge 22, Type (0, 0), BuildingBlock: XIVTED_clean_linker_0, # of connection points: 2
#     Edge 23, Type (0, 0), BuildingBlock: XIVTED_clean_linker_0, # of connection points: 2
#     Edge 24, Type (0, 0), BuildingBlock: XIVTED_clean_linker_0, # of connection points: 2
#     Edge 25, Type (0, 0), BuildingBlock: XIVTED_clean_linker_0, # of connection points: 2
#     Edge 26, Type (0, 0), BuildingBlock: XIVTED_clean_linker_0, # of connection points: 2
#     Edge 27, Type (0, 0), BuildingBlock: XIVTED_clean_linker_0, # of connection points: 2
#     Edge 28, Type (0, 0), BuildingBlock: XIVTED_clean_linker_0, # of connection points: 2
#     Edge 29, Type (0, 0), BuildingBlock: XIVTED_clean_linker_0, # of connection points: 2
#     Edge 30, Type (0, 0), BuildingBlock: XIVTED_clean_linker_0, # of connection points: 2
#     Edge 31, Type (0, 0), BuildingBlock: XIVTED_clean_linker_0, # of connection points: 2
#     Edge 32, Type (0, 0), BuildingBlock: XIVTED_clean_linker_0, # of connection points: 2
#     Edge 33, Type (0, 0), BuildingBlock: XIVTED_clean_linker_0, # of connection points: 2
#     Edge 34, Type (0, 0), BuildingBlock: XIVTED_clean_linker_0, # of connection points: 2
#     Edge 35, Type (0, 0), BuildingBlock: XIVTED_clean_linker_0, # of connection points: 2
#     Edge 36, Type (0, 0), BuildingBlock: XIVTED_clean_linker_0, # of connection points: 2
#     Edge 37, Type (0, 0), BuildingBlock: XIVTED_clean_linker_0, # of connection points: 2
#     Edge 38, Type (0, 0), BuildingBlock: XIVTED_clean_linker_0, # of connection points: 2
#     Edge 39, Type (0, 0), BuildingBlock: XIVTED_clean_linker_0, # of connection points: 2
#     Edge 40, Type (0, 0), BuildingBlock: XIVTED_clean_linker_0, # of connection points: 2
#     Edge 41, Type (0, 0), BuildingBlock: XIVTED_clean_linker_0, # of connection points: 2
# Relax obj value: 0.260
# Max RMSD: 0.215
# Mean RMSD: 0.215
data_MOF--net-wkc--node1-XOMCOT_clean_sbu_1--edge1-XIVTED_clean_linker_0
_symmetry_space_group_name_H-M    P1
_symmetry_Int_Tables_number       1
_symmetry_cell_setting            triclinic
loop_
_symmetry_equiv_pos_as_xyz
'x, y, z'
_cell_length_a     37.919969
_cell_length_b     37.952573
_cell_length_c     47.283865
_cell_angle_alpha  89.960464
_cell_angle_beta   90.087169
_cell_angle_gamma 119.88204
loop_
_atom_site_label
_atom_site_type_symbol
_atom_site_fract_x
_atom_site_fract_y
_atom_site_fract_z
_atom_type_partial_charge
C0 C 0.30584 0.47367 0.05358 0.0
C1 C 0.30473 0.50386 0.06902 0.0
N2 N 0.28087 0.51523 0.05524 0.0
N3 N 0.28239 0.46574 0.03033 0.0
C4 C 0.26744 0.49135 0.03207 0.0
H5 H 0.32426 0.45999 0.05832 0.0
Co6 Co 0.27711 0.43321 -0.00088 0.0
C7 C 0.18798 0.37705 0.99518 0.0
O8 O 0.19479 0.34798 0.98676 0.0
N9 N 0.27224 0.40176 0.96666 0.0
C10 C 0.25651 0.3801 0.92215 0.0
C11 C 0.25047 0.40071 0.94369 0.0
C12 C 0.29217 0.38226 0.95806 0.0
N13 N 0.28291 0.36856 0.93113 0.0
O14 O 0.28676 0.47724 0.97438 0.0
H15 H 0.23214 0.4152 0.94238 0.0
H16 H 0.31385 0.37882 0.97077 0.0
O17 O 0.2181 0.41267 -0.00023 0.0
C18 C 0.32416 0.50467 0.97538 0.0
O19 O 0.34857 0.49956 0.99251 0.0
N20 N 0.27219 0.39231 0.02403 0.0
C21 C 0.28423 0.35181 0.06906 0.0
C22 C 0.24784 0.35269 0.06661 0.0
C23 C 0.24271 0.37381 0.04422 0.0
C24 C 0.30735 0.391 0.02596 0.0
C25 C 0.31361 0.37016 0.04784 0.0
H26 H 0.21691 0.37842 0.045 0.0
H27 H 0.33239 0.40954 0.01203 0.0
H28 H 0.24846 0.49365 0.0159 0.0
H29 H 0.32221 0.51812 0.08791 0.0
H30 H 0.24374 0.37554 0.90109 0.0
H31 H 0.22509 0.34032 0.08313 0.0
H32 H 0.34246 0.37082 0.04914 0.0
C33 C 0.83999 0.2959 0.2194 0.0
C34 C 0.80859 0.29416 0.2351 0.0
N35 N 0.77344 0.27041 0.22131 0.0
N36 N 0.82462 0.27295 0.19595 0.0
C37 C 0.78404 0.25768 0.19785 0.0
H38 H 0.87202 0.31442 0.22412 0.0
Co39 Co 0.85213 0.26874 0.16444 0.0
C40 C 0.81986 0.17978 0.15957 0.0
O41 O 0.85563 0.18668 0.1508 0.0
N42 N 0.8791 0.26496 0.13176 0.0
C43 C 0.88648 0.25055 0.08717 0.0
C44 C 0.85914 0.24391 0.1084 0.0
C45 C 0.91873 0.28504 0.12373 0.0
N46 N 0.92406 0.27662 0.09679 0.0
O47 O 0.81728 0.27848 0.14015 0.0
H48 H 0.82642 0.22553 0.10665 0.0
H49 H 0.94345 0.30614 0.13689 0.0
O50 O 0.81431 0.20981 0.16454 0.0
C51 C 0.82673 0.3157 0.14189 0.0
O52 O 0.85665 0.33984 0.15879 0.0
N53 N 0.88839 0.26367 0.18899 0.0
C54 C 0.94163 0.27525 0.23345 0.0
C55 C 0.90475 0.23864 0.23084 0.0
C56 C 0.87814 0.23371 0.20872 0.0
C57 C 0.92437 0.29912 0.19117 0.0
C58 C 0.95189 0.30511 0.21265 0.0
H59 H 0.84803 0.20758 0.20939 0.0
H60 H 0.93017 0.32446 0.17771 0.0
H61 H 0.76284 0.23898 0.18159 0.0
H62 H 0.8117 0.31118 0.2542 0.0
H63 H 0.87903 0.23833 0.06595 0.0
H64 H 0.89493 0.21549 0.24706 0.0
H65 H 0.97975 0.33412 0.21406 0.0
C66 C 0.55263 0.83631 0.3833 0.0
C67 C 0.52205 0.80534 0.39868 0.0
N68 N 0.51143 0.76991 0.38555 0.0
N69 N 0.56147 0.82031 0.36078 0.0
C70 C 0.536 0.7799 0.36281 0.0
H71 H 0.5662 0.86845 0.38759 0.0
Co72 Co 0.59551 0.84677 0.33023 0.0
C73 C 0.64941 0.81098 0.32829 0.0
O74 O 0.67974 0.84673 0.32102 0.0
N75 N 0.62859 0.87285 0.29821 0.0
C76 C 0.65241 0.87884 0.25428 0.0
C77 C 0.63118 0.85224 0.27574 0.0
C78 C 0.64756 0.91206 0.28927 0.0
N79 N 0.66259 0.91656 0.26276 0.0
O80 O 0.55166 0.81404 0.30492 0.0
H81 H 0.61712 0.81952 0.27459 0.0
H82 H 0.64942 0.93698 0.30128 0.0
O83 O 0.61384 0.80644 0.33148 0.0
C84 C 0.52691 0.82759 0.30505 0.0
O85 O 0.5356 0.85941 0.32084 0.0
N86 N 0.63621 0.88104 0.35593 0.0
C87 C 0.67713 0.93217 0.40165 0.0
C88 C 0.67193 0.8929 0.40013 0.0
C89 C 0.65108 0.86769 0.37725 0.0
C90 C 0.64084 0.91893 0.35726 0.0
C91 C 0.6626 0.94549 0.37912 0.0
H92 H 0.64353 0.83633 0.37843 0.0
H93 H 0.6242 0.92735 0.34289 0.0
H94 H 0.53453 0.75835 0.34721 0.0
H95 H 0.50721 0.80886 0.41713 0.0
H96 H 0.65816 0.87071 0.23355 0.0
H97 H 0.68098 0.88042 0.41743 0.0
H98 H 0.66559 0.97538 0.37909 0.0
C99 C 0.71602 0.54475 0.55574 0.0
C100 C 0.71296 0.51234 0.57094 0.0
N101 N 0.73437 0.49795 0.55734 0.0
N102 N 0.73983 0.55117 0.53292 0.0
C103 C 0.75023 0.52198 0.53445 0.0
H104 H 0.70113 0.56199 0.56068 0.0
Co105 Co 0.75198 0.5889 0.50362 0.0
C106 C 0.83386 0.59326 0.49827 0.0
O107 O 0.82178 0.56104 0.4822 0.0
N108 N 0.76357 0.62604 0.47409 0.0
C109 C 0.79426 0.67837 0.44468 0.0
C110 C 0.79987 0.65762 0.46643 0.0
C111 C 0.73635 0.6283 0.45673 0.0
N112 N 0.75424 0.66006 0.43861 0.0
O113 O 0.73986 0.54681 0.47651 0.0
H114 H 0.8286 0.66605 0.47649 0.0
H115 H 0.70392 0.60748 0.45782 0.0
O116 O 0.80877 0.6043 0.50621 0.0
C117 C 0.70145 0.52316 0.47553 0.0
O118 O 0.67825 0.53197 0.49118 0.0
N119 N 0.76088 0.62912 0.53021 0.0
C120 C 0.76017 0.67864 0.57366 0.0
C121 C 0.78627 0.66232 0.57484 0.0
C122 C 0.78645 0.63795 0.55279 0.0
C123 C 0.73634 0.64568 0.52818 0.0
C124 C 0.73629 0.67131 0.54924 0.0
H125 H 0.80497 0.6238 0.55494 0.0
H126 H 0.71536 0.63771 0.51069 0.0
H127 H 0.76832 0.51774 0.51869 0.0
H128 H 0.69512 0.49942 0.58989 0.0
H129 H 0.81775 0.70593 0.43494 0.0
H130 H 0.80477 0.66618 0.59329 0.0
H131 H 0.71643 0.68394 0.5467 0.0
C132 C 0.18932 0.71746 0.71942 0.0
C133 C 0.22109 0.71909 0.73461 0.0
N134 N 0.25595 0.74354 0.72078 0.0
N135 N 0.20416 0.74119 0.69628 0.0
C136 C 0.24481 0.75674 0.69778 0.0
H137 H 0.15738 0.69861 0.72426 0.0
Co138 Co 0.17549 0.74595 0.66574 0.0
C139 C 0.20686 0.83507 0.66358 0.0
O140 O 0.17021 0.82811 0.6571 0.0
N141 N 0.14704 0.74983 0.63395 0.0
C142 C 0.13562 0.76683 0.59107 0.0
C143 C 0.16413 0.77571 0.61196 0.0
C144 C 0.10861 0.72401 0.62496 0.0
N145 N 0.10077 0.73412 0.59926 0.0
O146 O 0.20953 0.73714 0.6402 0.0
H147 H 0.19585 0.7988 0.61067 0.0
H148 H 0.08692 0.69726 0.63621 0.0
O149 O 0.21321 0.8051 0.6663 0.0
C150 C 0.19978 0.6998 0.64119 0.0
O151 O 0.17003 0.67531 0.65803 0.0
N152 N 0.14004 0.75046 0.69158 0.0
C153 C 0.08843 0.73975 0.73689 0.0
C154 C 0.12623 0.7753 0.73456 0.0
C155 C 0.152 0.77967 0.7121 0.0
C156 C 0.10326 0.71584 0.69365 0.0
C157 C 0.0766 0.7103 0.71563 0.0
H158 H 0.18279 0.80463 0.71305 0.0
H159 H 0.0962 0.69043 0.68004 0.0
H160 H 0.26565 0.77609 0.68161 0.0
H161 H 0.21847 0.70166 0.75341 0.0
H162 H 0.14065 0.78202 0.57085 0.0
H163 H 0.13732 0.79791 0.75122 0.0
H164 H 0.04812 0.68188 0.717 0.0
C165 C 0.47474 0.18089 0.88923 0.0
C166 C 0.50542 0.2121 0.90444 0.0
N167 N 0.51805 0.24699 0.88998 0.0
N168 N 0.4678 0.19619 0.86548 0.0
C169 C 0.49452 0.23644 0.8666 0.0
H170 H 0.45969 0.14895 0.89456 0.0
Co171 Co 0.43449 0.16865 0.83477 0.0
C172 C 0.38362 0.20717 0.82785 0.0
O173 O 0.35302 0.17155 0.8206 0.0
N174 N 0.40243 0.14154 0.80257 0.0
C175 C 0.38131 0.13482 0.75782 0.0
C176 C 0.40262 0.16183 0.779 0.0
C177 C 0.38182 0.1019 0.79459 0.0
N178 N 0.36827 0.09702 0.76757 0.0
O179 O 0.47979 0.19845 0.80996 0.0
H180 H 0.41853 0.19457 0.777 0.0
H181 H 0.37773 0.07694 0.80771 0.0
O182 O 0.41855 0.21078 0.83262 0.0
C183 C 0.50456 0.18503 0.81149 0.0
O184 O 0.49593 0.15452 0.82865 0.0
N185 N 0.39173 0.13754 0.86032 0.0
C186 C 0.34577 0.09282 0.90676 0.0
C187 C 0.35481 0.13296 0.90278 0.0
C188 C 0.37834 0.155 0.87973 0.0
C189 C 0.38313 0.0984 0.86406 0.0
C190 C 0.35926 0.0751 0.8867 0.0
H191 H 0.38901 0.18713 0.87942 0.0
H192 H 0.39823 0.08643 0.85124 0.0
H193 H 0.49757 0.25738 0.84998 0.0
H194 H 0.51888 0.20898 0.92381 0.0
H195 H 0.37736 0.14256 0.73646 0.0
H196 H 0.34625 0.14812 0.91847 0.0
H197 H 0.35465 0.04482 0.88992 0.0
C198 C 0.55633 0.72287 0.76765 0.0
C199 C 0.5259 0.72364 0.75215 0.0
N200 N 0.51271 0.74544 0.76661 0.0
N201 N 0.56248 0.74445 0.79161 0.0
C202 C 0.53563 0.75791 0.79027 0.0
H203 H 0.57172 0.70624 0.76235 0.0
Co204 Co 0.5952 0.75 0.82267 0.0
C205 C 0.64354 0.83977 0.83059 0.0
O206 O 0.67498 0.83674 0.83897 0.0
N207 N 0.62682 0.75478 0.85506 0.0
C208 C 0.64713 0.76762 0.90003 0.0
C209 C 0.6263 0.77424 0.87886 0.0
C210 C 0.64713 0.73528 0.86284 0.0
N211 N 0.66015 0.74293 0.89001 0.0
O212 O 0.54937 0.73406 0.84714 0.0
H213 H 0.61034 0.79105 0.88105 0.0
H214 H 0.65123 0.71466 0.84946 0.0
O215 O 0.60993 0.80752 0.82495 0.0
C216 C 0.52294 0.6965 0.8449 0.0
O217 O 0.52962 0.67403 0.82696 0.0
N218 N 0.63862 0.76228 0.79761 0.0
C219 C 0.68663 0.76486 0.75202 0.0
C220 C 0.67805 0.79626 0.75638 0.0
C221 C 0.65343 0.79407 0.77895 0.0
C222 C 0.64675 0.73147 0.79354 0.0
C223 C 0.67153 0.73261 0.77132 0.0
H224 H 0.64332 0.81599 0.77942 0.0
H225 H 0.63075 0.70392 0.80576 0.0
H226 H 0.53205 0.77539 0.80694 0.0
H227 H 0.51301 0.70752 0.73257 0.0
H228 H 0.65062 0.77854 0.92156 0.0
H229 H 0.68799 0.82096 0.74134 0.0
H230 H 0.67578 0.70676 0.76784 0.0
C231 C 0.84022 0.54351 0.93719 0.0
C232 C 0.80885 0.51351 0.92168 0.0
N233 N 0.7737 0.50249 0.93535 0.0
N234 N 0.82482 0.55165 0.96038 0.0
C235 C 0.78427 0.52639 0.95851 0.0
H236 H 0.87226 0.55684 0.93256 0.0
Co237 Co 0.85214 0.58385 0.99174 0.0
C238 C 0.81936 0.64036 0.99584 0.0
O239 O 0.8549 0.66919 0.00491 0.0
N240 N 0.87889 0.6151 0.02431 0.0
C241 C 0.88573 0.63736 0.06873 0.0
C242 C 0.85862 0.61605 0.04752 0.0
C243 C 0.91853 0.6354 0.03241 0.0
N244 N 0.92351 0.64947 0.05926 0.0
O245 O 0.81737 0.5397 0.01621 0.0
H246 H 0.82585 0.60128 0.04916 0.0
H247 H 0.9435 0.63944 0.01935 0.0
O248 O 0.81406 0.60485 0.99103 0.0
C249 C 0.82716 0.51211 0.01485 0.0
O250 O 0.85736 0.51788 0.99826 0.0
N251 N 0.88829 0.62468 0.96705 0.0
C252 C 0.94097 0.66497 0.92222 0.0
C253 C 0.90414 0.66495 0.92475 0.0
C254 C 0.8778 0.64392 0.94704 0.0
C255 C 0.92434 0.62515 0.96504 0.0
C256 C 0.95154 0.6459 0.94328 0.0
H257 H 0.84765 0.63997 0.94629 0.0
H258 H 0.93041 0.60612 0.97887 0.0
H259 H 0.76307 0.52431 0.97462 0.0
H260 H 0.81198 0.49912 0.90284 0.0
H261 H 0.87802 0.64223 0.08984 0.0
H262 H 0.89412 0.6779 0.90834 0.0
H263 H 0.97937 0.64458 0.94189 0.0
C264 C 0.30772 0.83844 0.10246 0.0
C265 C 0.30704 0.80726 0.08707 0.0
N266 N 0.2831 0.77204 0.10069 0.0
N267 N 0.28393 0.82278 0.12547 0.0
C268 C 0.26926 0.78235 0.1237 0.0
H269 H 0.32587 0.87053 0.09785 0.0
Co270 Co 0.27767 0.84972 0.15642 0.0
C271 C 0.1884 0.815 0.15958 0.0
O272 O 0.19447 0.85101 0.1669 0.0
N273 N 0.27186 0.87609 0.18886 0.0
C274 C 0.25459 0.88169 0.23305 0.0
C275 C 0.24916 0.85529 0.21144 0.0
C276 C 0.29196 0.91527 0.19792 0.0
N277 N 0.28168 0.91954 0.22458 0.0
O278 O 0.28932 0.81677 0.1813 0.0
H279 H 0.23066 0.82256 0.2125 0.0
H280 H 0.31465 0.94036 0.18587 0.0
O281 O 0.21899 0.8098 0.15605 0.0
C282 C 0.32708 0.82812 0.17993 0.0
O283 O 0.35049 0.85872 0.16331 0.0
N284 N 0.27039 0.88401 0.13108 0.0
C285 C 0.27625 0.93573 0.0867 0.0
C286 C 0.24379 0.89554 0.088 0.0
C287 C 0.24158 0.87015 0.11017 0.0
C288 C 0.30258 0.92249 0.12969 0.0
C289 C 0.30517 0.94931 0.1086 0.0
H290 H 0.21876 0.83845 0.10885 0.0
H291 H 0.32828 0.93154 0.14354 0.0
H292 H 0.25004 0.76105 0.13971 0.0
H293 H 0.32471 0.81055 0.06829 0.0
H294 H 0.24095 0.87336 0.25383 0.0
H295 H 0.22168 0.88264 0.07111 0.0
H296 H 0.331 0.9798 0.10886 0.0
C297 C 0.47858 0.29884 0.27057 0.0
C298 C 0.50842 0.29719 0.25502 0.0
N299 N 0.5197 0.27332 0.26885 0.0
N300 N 0.47079 0.27572 0.29395 0.0
C301 C 0.49617 0.26048 0.29219 0.0
H302 H 0.46492 0.31724 0.26575 0.0
Co303 Co 0.43819 0.27058 0.3251 0.0
C304 C 0.38302 0.18125 0.32932 0.0
O305 O 0.35351 0.1874 0.33774 0.0
N306 N 0.40652 0.26577 0.35749 0.0
C307 C 0.38418 0.25016 0.40187 0.0
C308 C 0.40549 0.2444 0.38066 0.0
C309 C 0.38632 0.28522 0.36564 0.0
N310 N 0.3722 0.27601 0.39248 0.0
O311 O 0.48271 0.28137 0.34989 0.0
H312 H 0.42036 0.22646 0.38231 0.0
H313 H 0.3826 0.30647 0.35267 0.0
O314 O 0.41842 0.21176 0.32485 0.0
C315 C 0.50954 0.31892 0.34824 0.0
O316 O 0.50305 0.34237 0.33108 0.0
N317 N 0.39697 0.2647 0.30008 0.0
C318 C 0.35613 0.27559 0.2547 0.0
C319 C 0.35733 0.23944 0.25751 0.0
C320 C 0.37864 0.2349 0.28006 0.0
C321 C 0.39534 0.29963 0.29779 0.0
C322 C 0.37434 0.30533 0.27573 0.0
H323 H 0.38357 0.20931 0.27951 0.0
H324 H 0.41378 0.32494 0.31157 0.0
H325 H 0.4984 0.24153 0.3084 0.0
H326 H 0.52239 0.31419 0.23593 0.0
H327 H 0.37939 0.23756 0.42298 0.0
H328 H 0.3451 0.21644 0.24113 0.0
H329 H 0.37481 0.33403 0.27412 0.0
C330 C 0.19061 0.47388 0.4329 0.0
C331 C 0.22228 0.50326 0.4173 0.0
N332 N 0.25717 0.51454 0.43145 0.0
N333 N 0.2056 0.46641 0.45663 0.0
C334 C 0.24619 0.49145 0.45501 0.0
H335 H 0.15867 0.46056 0.42791 0.0
Co336 Co 0.17802 0.43524 0.48815 0.0
C337 C 0.21246 0.38037 0.49543 0.0
O338 O 0.1778 0.35184 0.50586 0.0
N339 N 0.15077 0.40503 0.52089 0.0
C340 C 0.14167 0.3885 0.5667 0.0
C341 C 0.16991 0.40824 0.54574 0.0
C342 C 0.11071 0.38278 0.52746 0.0
N343 N 0.10448 0.37255 0.5551 0.0
O344 O 0.2121 0.48035 0.5121 0.0
H345 H 0.20253 0.42509 0.54868 0.0
H346 H 0.0861 0.37561 0.51296 0.0
O347 O 0.21644 0.4149 0.48898 0.0
C348 C 0.20098 0.50694 0.51068 0.0
O349 O 0.17045 0.49992 0.49394 0.0
N350 N 0.14253 0.39349 0.46378 0.0
C351 C 0.09118 0.35281 0.41839 0.0
C352 C 0.12727 0.35171 0.42231 0.0
C353 C 0.15297 0.37289 0.44493 0.0
C354 C 0.10703 0.39384 0.46052 0.0
C355 C 0.08044 0.37287 0.43851 0.0
H356 H 0.1827 0.37579 0.44531 0.0
H357 H 0.10094 0.41349 0.47367 0.0
H358 H 0.2671 0.49396 0.47153 0.0
H359 H 0.21953 0.5171 0.39802 0.0
H360 H 0.14795 0.38641 0.58879 0.0
H361 H 0.13732 0.33776 0.40669 0.0
H362 H 0.05307 0.37487 0.43613 0.0
C363 C 0.71755 0.17867 0.60542 0.0
C364 C 0.71554 0.20861 0.5903 0.0
N365 N 0.73998 0.24456 0.6029 0.0
N366 N 0.74371 0.19576 0.62718 0.0
C367 C 0.75677 0.23591 0.62515 0.0
H368 H 0.69986 0.14634 0.60149 0.0
Co369 Co 0.75289 0.16858 0.6568 0.0
C370 C 0.84108 0.20074 0.65449 0.0
O371 O 0.8328 0.16317 0.65894 0.0
N372 N 0.76036 0.14157 0.68803 0.0
C373 C 0.78134 0.1329 0.73018 0.0
C374 C 0.78909 0.15948 0.7083 0.0
C375 C 0.73387 0.10486 0.69933 0.0
N376 N 0.74638 0.09831 0.72468 0.0
O377 O 0.74229 0.20031 0.68333 0.0
H378 H 0.81329 0.19078 0.70805 0.0
H379 H 0.70435 0.08467 0.69039 0.0
O380 O 0.81214 0.20904 0.65519 0.0
C381 C 0.70418 0.18751 0.68356 0.0
O382 O 0.68028 0.15657 0.66733 0.0
N383 N 0.76002 0.13547 0.62952 0.0
C384 C 0.7579 0.08911 0.58294 0.0
C385 C 0.78483 0.13095 0.5836 0.0
C386 C 0.785 0.15357 0.60676 0.0
C387 C 0.73403 0.09447 0.62928 0.0
C388 C 0.73303 0.07057 0.60643 0.0
H389 H 0.80314 0.18623 0.60524 0.0
H390 H 0.71147 0.0803 0.64548 0.0
H391 H 0.77699 0.25813 0.64036 0.0
H392 H 0.69587 0.20399 0.57241 0.0
H393 H 0.79976 0.13936 0.74901 0.0
H394 H 0.80386 0.14649 0.56554 0.0
H395 H 0.71071 0.03846 0.60616 0.0
H396 H 0.42971 0.2724 0.86273 0.0
H397 H 0.24701 0.31795 0.88666 0.0
H398 H 0.31565 0.21254 0.81751 0.0
H399 H 0.3561 0.37185 0.93748 0.0
H400 H 0.27494 0.2842 0.85821 0.0
H401 H 0.40716 0.31502 0.88663 0.0
C402 C 0.40031 0.26879 0.85734 0.0
C403 C 0.37442 0.23863 0.83816 0.0
C404 C 0.2929 0.30348 0.87553 0.0
C405 C 0.34822 0.2869 0.86578 0.0
C406 C 0.27697 0.32293 0.89177 0.0
C407 C 0.29914 0.34786 0.91459 0.0
C408 C 0.33144 0.30885 0.882 0.0
C409 C 0.33763 0.35254 0.92038 0.0
C410 C 0.3873 0.29289 0.87122 0.0
C411 C 0.33653 0.23517 0.83226 0.0
N412 N 0.35255 0.33323 0.90421 0.0
N413 N 0.3245 0.25872 0.84614 0.0
H414 H 0.11636 0.30726 0.98486 0.0
H415 H 0.99319 0.34957 0.10469 0.0
H416 H 0.16611 0.42048 0.0306 0.0
H417 H 0.94106 0.24203 0.05251 0.0
H418 H 0.0563 0.37676 0.07752 0.0
H419 H 0.05113 0.2843 0.00819 0.0
C420 C 0.11343 0.32755 -0.00045 0.0
C421 C 0.14688 0.36583 0.00581 0.0
C422 C 0.03098 0.34728 0.07195 0.0
C423 C 0.07216 0.33936 0.03308 0.0
C424 C 0.99499 0.33154 0.08764 0.0
C425 C 0.96163 0.29329 0.081 0.0
C426 C 0.03384 0.32455 0.04953 0.0
C427 C 0.9657 0.27175 0.05827 0.0
C428 C 0.07614 0.31434 0.01296 0.0
C429 C 0.14116 0.39078 0.02502 0.0
N430 N 1.00109 0.28756 0.0435 0.0
N431 N 0.10467 0.37695 0.03819 0.0
H432 H 0.75296 0.15756 0.19333 0.0
H433 H 0.71597 0.9329 0.21979 0.0
H434 H 0.82046 0.10868 0.15163 0.0
H435 H 0.65584 0.98464 0.26745 0.0
H436 H 0.74991 0.99497 0.19165 0.0
H437 H 0.71191 0.09218 0.21708 0.0
C438 C 0.75873 0.13292 0.18876 0.0
C439 C 0.79041 0.13877 0.1705 0.0
C440 C 0.72924 0.99277 0.20823 0.0
C441 C 0.74379 0.06393 0.19797 0.0
C442 C 0.7097 0.95719 0.22427 0.0
C443 C 0.68302 0.9534 0.24616 0.0
C444 C 0.7221 0.025 0.21395 0.0
C445 C 0.67656 0.98629 0.25114 0.0
C446 C 0.73545 0.09566 0.20253 0.0
C447 C 0.79655 0.10572 0.16562 0.0
N448 N 0.69594 0.02064 0.23519 0.0
N449 N 0.77368 0.0699 0.17937 0.0
H450 H 0.78694 0.70304 0.39057 0.0
H451 H 0.60289 0.74554 0.36289 0.0
H452 H 0.67783 0.65001 0.44109 0.0
H453 H 0.71806 0.80636 0.31934 0.0
H454 H 0.62489 0.70241 0.38691 0.0
H455 H 0.75755 0.73338 0.35991 0.0
C456 C 0.75671 0.69766 0.39519 0.0
C457 C 0.73511 0.67433 0.41872 0.0
C458 C 0.6451 0.72484 0.37181 0.0
C459 C 0.70095 0.70904 0.38344 0.0
C460 C 0.63245 0.74929 0.35792 0.0
C461 C 0.65879 0.77985 0.33917 0.0
C462 C 0.68428 0.73087 0.36682 0.0
C463 C 0.69685 0.78347 0.33376 0.0
C464 C 0.73982 0.7149 0.37757 0.0
C465 C 0.6956 0.66768 0.4232 0.0
N466 N 0.7085 0.75956 0.34764 0.0
N467 N 0.67995 0.68528 0.40591 0.0
H468 H 0.04955 0.65271 0.59559 0.0
H469 H 0.87578 0.67176 0.5165 0.0
H470 H 0.06731 0.76798 0.56632 0.0
H471 H 0.88669 0.56449 0.50736 0.0
H472 H 0.9424 0.70631 0.53944 0.0
H473 H 0.98586 0.61811 0.56835 0.0
C474 C 0.03992 0.67067 0.5835 0.0
C475 C 0.06356 0.71324 0.58322 0.0
C476 C 0.93041 0.67535 0.53217 0.0
C477 C 0.99093 0.67405 0.55229 0.0
C478 C 0.89237 0.65557 0.51908 0.0
C479 C 0.87574 0.61522 0.50983 0.0
C480 C 0.95167 0.65439 0.53675 0.0
C481 C 0.89856 0.59571 0.51393 0.0
C482 C 1.00385 0.65096 0.56781 0.0
C483 C 0.05002 0.73513 0.56694 0.0
N484 N 0.93518 0.61531 0.52743 0.0
N485 N 1.0144 0.71533 0.55238 0.0
H486 H 0.27391 0.85572 0.697 0.0
H487 H 0.31633 0.08214 0.72394 0.0
H488 H 0.20718 0.90667 0.65671 0.0
H489 H 0.37074 0.02682 0.77418 0.0
H490 H 0.28134 0.02016 0.69587 0.0
H491 H 0.31561 0.92048 0.72152 0.0
C492 C 0.26851 0.88072 0.69287 0.0
C493 C 0.23686 0.87567 0.67479 0.0
C494 C 0.30094 0.02149 0.71301 0.0
C495 C 0.28416 0.94967 0.70309 0.0
C496 C 0.32108 0.057 0.72902 0.0
C497 C 0.34658 0.05982 0.75151 0.0
C498 C 0.30631 0.9883 0.71935 0.0
C499 C 0.35104 0.0259 0.7573 0.0
C500 C 0.29209 0.91756 0.7071 0.0
C501 C 0.23107 0.90906 0.67052 0.0
N502 N 0.33118 0.99159 0.74129 0.0
N503 N 0.2543 0.94446 0.68464 0.0
H504 H 0.81734 0.71028 0.00561 0.0
H505 H 0.65778 0.67064 0.88157 0.0
H506 H 0.75568 0.59765 0.95904 0.0
H507 H 0.71015 0.77681 0.9351 0.0
H508 H 0.69275 0.64294 0.90958 0.0
H509 H 0.77646 0.73393 0.98089 0.0
C510 C 0.79479 0.69025 0.99046 0.0
C511 C 0.79008 0.65194 0.98439 0.0
C512 C 0.69646 0.67225 0.91524 0.0
C513 C 0.74347 0.67922 0.9555 0.0
C514 C 0.67678 0.68827 0.89907 0.0
C515 C 0.68102 0.72623 0.90591 0.0
C516 C 0.72083 0.69442 0.93832 0.0
C517 C 0.70559 0.7473 0.92918 0.0
C518 C 0.77152 0.70386 0.97624 0.0
C519 C 0.7603 0.62736 0.96451 0.0
N520 N 0.7246 0.73122 0.94443 0.0
N521 N 0.73845 0.64158 0.95057 0.0
H522 H 0.16804 0.74853 0.12571 0.0
H523 H 0.93899 0.70165 0.10286 0.0
H524 H 0.11605 0.81262 0.16814 0.0
H525 H 0.9938 0.64719 0.05229 0.0
H526 H 1.0018 0.73758 0.13009 0.0
H527 H 0.10249 0.70557 0.10234 0.0
C528 C 0.14268 0.7531 0.13054 0.0
C529 C 0.14764 0.78437 0.14888 0.0
C530 C 1.00015 0.71773 0.11307 0.0
C531 C 0.0727 0.73563 0.12191 0.0
C532 C 0.96414 0.69703 0.09755 0.0
C533 C 0.96094 0.6713 0.07516 0.0
C534 C 0.03346 0.71272 0.10633 0.0
C535 C 0.99494 0.66707 0.06907 0.0
C536 C 0.10536 0.72878 0.11698 0.0
C537 C 0.11376 0.78907 0.15408 0.0
N538 N 0.02973 0.68752 0.08457 0.0
N539 N 0.07791 0.76517 0.14058 0.0
H540 H 0.42868 0.16075 0.29504 0.0
H541 H 0.24431 0.93474 0.26794 0.0
H542 H 0.31248 0.10922 0.33708 0.0
H543 H 0.3556 0.98861 0.21971 0.0
H544 H 0.27151 0.99647 0.29633 0.0
H545 H 0.4056 0.09585 0.27075 0.0
C546 C 0.3986 0.13562 0.29958 0.0
C547 C 0.37242 0.14058 0.3181 0.0
C548 C 0.29008 0.99483 0.27958 0.0
C549 C 0.34563 0.06632 0.29003 0.0
C550 C 0.27458 0.95943 0.26338 0.0
C551 C 0.29758 0.95629 0.24128 0.0
C552 C 0.32904 0.0276 0.2738 0.0
C553 C 0.33648 0.98972 0.23621 0.0
C554 C 0.38531 0.09865 0.28551 0.0
C555 C 0.33366 0.10695 0.32292 0.0
N556 N 0.35095 0.02392 0.25233 0.0
N557 N 0.32141 0.07145 0.30888 0.0
H558 H 0.27751 0.42432 0.46006 0.0
H559 H 0.3203 0.23976 0.4363 0.0
H560 H 0.21396 0.30974 0.5042 0.0
H561 H 0.37518 0.34887 0.38573 0.0
H562 H 0.2855 0.26744 0.46403 0.0
H563 H 0.31859 0.40021 0.43598 0.0
C564 C 0.2726 0.39435 0.46508 0.0
C565 C 0.24201 0.36897 0.48417 0.0
C566 C 0.30518 0.28541 0.44689 0.0
C567 C 0.28874 0.34099 0.45631 0.0
C568 C 0.32523 0.26964 0.43108 0.0
C569 C 0.35078 0.29193 0.40855 0.0
C570 C 0.31069 0.32393 0.44033 0.0
C571 C 0.35543 0.33032 0.4026 0.0
C572 C 0.2959 0.38049 0.45112 0.0
C573 C 0.23701 0.33035 0.48961 0.0
N574 N 0.33564 0.34509 0.41839 0.0
N575 N 0.25991 0.3175 0.47566 0.0
H576 H 0.8811 0.17977 0.61716 0.0
H577 H 0.08531 0.38777 0.60723 0.0
H578 H 0.88883 0.28452 0.65878 0.0
H579 H 0.03599 0.30765 0.53554 0.0
H580 H 0.01953 0.34851 0.63164 0.0
H581 H 0.94426 0.2239 0.59232 0.0
C582 C 0.89637 0.21214 0.62131 0.0
C583 C 0.87994 0.22853 0.6403 0.0
C584 C 0.02316 0.33985 0.61049 0.0
C585 C 0.95258 0.2792 0.61191 0.0
C586 C 0.06061 0.3619 0.59669 0.0
C587 C 0.06597 0.35068 0.56941 0.0
C588 C 0.99139 0.30579 0.59715 0.0
C589 C 0.03299 0.31729 0.55649 0.0
C590 C 0.93222 0.23729 0.6069 0.0
C591 C 0.90066 0.27077 0.64438 0.0
N592 N 0.99729 0.29566 0.57062 0.0
N593 N 0.9364 0.29479 0.63054 0.0
H594 H 0.59926 0.85472 0.79117 0.0
H595 H 0.76197 0.09161 0.78037 0.0
H596 H 0.70533 0.91541 0.84465 0.0
H597 H 0.68435 0.02256 0.71068 0.0
H598 H 0.73187 0.03031 0.80894 0.0
H599 H 0.62001 0.91931 0.76704 0.0
C600 C 0.62637 0.88177 0.79833 0.0
C601 C 0.65077 0.87958 0.8199 0.0
C602 C 0.72129 0.02868 0.78743 0.0
C603 C 0.67467 0.95345 0.79224 0.0
C604 C 0.73867 0.06379 0.77088 0.0
C605 C 0.72634 0.06265 0.74263 0.0
C606 C 0.69093 0.99193 0.77595 0.0
C607 C 0.695 0.02533 0.73221 0.0
C608 C 0.63838 0.91853 0.78433 0.0
C609 C 0.68576 0.91562 0.82804 0.0
N610 N 0.67853 0.99149 0.74882 0.0
N611 N 0.69675 0.95098 0.81414 0.0
H612 H 0.27144 0.71266 0.1379 0.0
H613 H 0.27045 0.56368 0.01787 0.0
H614 H 0.28416 0.74171 0.04895 0.0
H615 H 0.2813 0.5463 0.10695 0.0
H616 H 0.26686 0.62467 0.02884 0.0
H617 H 0.26653 0.64756 0.12684 0.0
C618 C 0.27266 0.70515 0.11599 0.0
C619 C 0.27815 0.7327 0.09428 0.0
C620 C 0.26981 0.60742 0.04601 0.0
C621 C 0.27303 0.65827 0.0815 0.0
C622 C 0.2715 0.57235 0.03978 0.0
C623 C 0.27614 0.54979 0.06156 0.0
C624 C 0.27256 0.61999 0.07424 0.0
C625 C 0.27811 0.56301 0.08953 0.0
C626 C 0.2702 0.66807 0.10971 0.0
C627 C 0.28032 0.72155 0.06632 0.0
N628 N 0.27633 0.59724 0.09507 0.0
N629 N 0.27776 0.6852 0.06073 0.0
H630 H 0.71402 0.25996 0.18437 0.0
H631 H 0.56778 0.26135 0.30571 0.0
H632 H 0.74307 0.26992 0.2733 0.0
H633 H 0.54965 0.27291 0.21684 0.0
H634 H 0.62757 0.25584 0.29416 0.0
H635 H 0.6494 0.256 0.19589 0.0
C636 C 0.70658 0.26072 0.20637 0.0
C637 C 0.73404 0.26527 0.22794 0.0
C638 C 0.6104 0.25936 0.27716 0.0
C639 C 0.6602 0.26128 0.24125 0.0
C640 C 0.57602 0.26218 0.28372 0.0
C641 C 0.55361 0.2676 0.26218 0.0
C642 C 0.62248 0.2618 0.24883 0.0
C643 C 0.56628 0.26919 0.2341 0.0
C644 C 0.66978 0.25881 0.21291 0.0
C645 C 0.72299 0.26684 0.25602 0.0
N646 N 0.59987 0.26635 0.22824 0.0
N647 N 0.68696 0.26491 0.26187 0.0
H648 H 0.46511 0.70945 0.34868 0.0
H649 H 0.31543 0.56351 0.4689 0.0
H650 H 0.47942 0.74068 0.43729 0.0
H651 H 0.28881 0.54398 0.37968 0.0
H652 H 0.38023 0.62391 0.45789 0.0
H653 H 0.40521 0.64438 0.35994 0.0
C654 C 0.45599 0.70242 0.37057 0.0
C655 C 0.47735 0.73057 0.39212 0.0
C656 C 0.36033 0.6063 0.4407 0.0
C657 C 0.40841 0.65623 0.4051 0.0
C658 C 0.32345 0.57156 0.44696 0.0
C659 C 0.29664 0.54862 0.42514 0.0
C660 C 0.37064 0.61815 0.41241 0.0
C661 C 0.3084 0.56103 0.39712 0.0
C662 C 0.42156 0.66537 0.37695 0.0
C663 C 0.4636 0.72004 0.42004 0.0
N664 N 0.34452 0.59499 0.39155 0.0
N665 N 0.42998 0.68371 0.42574 0.0
H666 H 0.73264 0.46788 0.60976 0.0
H667 H 0.73521 0.2717 0.55091 0.0
H668 H 0.74273 0.44705 0.52123 0.0
H669 H 0.75104 0.30478 0.63914 0.0
H670 H 0.73574 0.33489 0.53975 0.0
H671 H 0.73675 0.40703 0.62125 0.0
C672 C 0.73566 0.45049 0.59276 0.0
C673 C 0.73741 0.46262 0.56451 0.0
C674 C 0.73938 0.32851 0.56154 0.0
C675 C 0.74217 0.39306 0.57745 0.0
C676 C 0.73892 0.29237 0.56791 0.0
C677 C 0.74309 0.28299 0.59597 0.0
C678 C 0.74354 0.35533 0.58344 0.0
C679 C 0.7482 0.31104 0.61719 0.0
C680 C 0.73827 0.41593 0.59932 0.0
C681 C 0.74179 0.43918 0.54331 0.0
N682 N 0.74797 0.3458 0.61052 0.0
N683 N 0.74379 0.40546 0.5502 0.0
H684 H 0.31539 0.7558 0.68342 0.0
H685 H 0.46296 0.75397 0.8038 0.0
H686 H 0.28696 0.74357 0.77244 0.0
H687 H 0.48254 0.74645 0.71467 0.0
H688 H 0.40249 0.75829 0.79259 0.0
H689 H 0.38063 0.76061 0.69443 0.0
C690 C 0.32309 0.7547 0.70532 0.0
C691 C 0.29564 0.74925 0.72708 0.0
C692 C 0.42009 0.75589 0.77545 0.0
C693 C 0.37011 0.75422 0.73979 0.0
C694 C 0.45488 0.75375 0.78182 0.0
C695 C 0.47797 0.74989 0.76012 0.0
C696 C 0.4082 0.75428 0.74713 0.0
C697 C 0.46541 0.74898 0.73205 0.0
C698 C 0.36022 0.7571 0.71157 0.0
C699 C 0.30702 0.74732 0.75503 0.0
N700 N 0.43135 0.75111 0.72636 0.0
N701 N 0.34334 0.74974 0.76058 0.0
H702 H 0.71457 0.45466 0.97262 0.0
H703 H 0.56709 0.30517 0.85254 0.0
H704 H 0.74316 0.47121 0.88362 0.0
H705 H 0.54879 0.27817 0.94173 0.0
H706 H 0.62761 0.36993 0.86351 0.0
H707 H 0.64985 0.39405 0.9616 0.0
C708 C 0.70701 0.4459 0.95071 0.0
C709 C 0.73435 0.46813 0.92897 0.0
C710 C 0.61027 0.34994 0.8807 0.0
C711 C 0.6604 0.3983 0.91624 0.0
C712 C 0.57547 0.31304 0.87447 0.0
C713 C 0.55274 0.28614 0.89628 0.0
C714 C 0.62246 0.36022 0.90897 0.0
C715 C 0.56563 0.29778 0.92428 0.0
C716 C 0.67017 0.41104 0.94445 0.0
C717 C 0.72317 0.45477 0.90102 0.0
N718 N 0.59962 0.33392 0.92982 0.0
N719 N 0.68708 0.42072 0.89545 0.0
H720 H 0.28756 0.22652 0.22315 0.0
H721 H 0.35543 0.38962 0.09832 0.0
H722 H 0.39407 0.346 0.22476 0.0
H723 H 0.23572 0.28342 0.10087 0.0
H724 H 0.37142 0.36968 0.14313 0.0
H725 H 0.26872 0.24303 0.17721 0.0
C726 C 0.30677 0.25623 0.21395 0.0
C727 C 0.34216 0.28511 0.22795 0.0
C728 C 0.34165 0.35052 0.13394 0.0
C729 C 0.3212 0.30388 0.17559 0.0
C730 C 0.33264 0.36166 0.10811 0.0
C731 C 0.29431 0.33788 0.09562 0.0
C732 C 0.31218 0.31526 0.14763 0.0
C733 C 0.26564 0.3026 0.1098 0.0
C734 C 0.296 0.26562 0.18783 0.0
C735 C 0.36606 0.32309 0.2151 0.0
N736 N 0.27518 0.29225 0.13511 0.0
N737 N 0.35522 0.33125 0.18968 0.0
H738 H 0.0634 0.39356 0.38674 0.0
H739 H 0.96241 0.22664 0.26464 0.0
H740 H 0.06859 0.28251 0.38799 0.0
H741 H 0.97463 0.34597 0.26306 0.0
H742 H 0.99911 0.24385 0.31005 0.0
H743 H 0.02795 0.37364 0.34189 0.0
C744 C 0.05652 0.36458 0.37773 0.0
C745 C 0.06838 0.33932 0.39139 0.0
C746 C 0.99398 0.26625 0.29953 0.0
C747 C 0.02837 0.31658 0.33927 0.0
C748 C 0.97304 0.25646 0.27371 0.0
C749 C 0.9659 0.28509 0.25985 0.0
C750 C 1.00732 0.30471 0.31157 0.0
C751 C 0.98021 0.32323 0.27253 0.0
C752 C 0.03661 0.35338 0.35187 0.0
C753 C 0.05982 0.30276 0.37816 0.0
N754 N 1.00004 0.33178 0.2976 0.0
N755 N 0.04012 0.29233 0.35278 0.0
H756 H 0.6539 0.98403 0.42446 0.0
H757 H 0.75636 0.01674 0.57354 0.0
H758 H 0.73447 0.93606 0.43997 0.0
H759 H 0.74256 0.11019 0.53168 0.0
H760 H 0.74035 0.97901 0.52844 0.0
H761 H 0.67781 0.02324 0.46761 0.0
C762 C 0.6772 0.98215 0.43649 0.0
C763 C 0.69271 0.95704 0.42792 0.0
C764 C 0.74138 1.00802 0.52924 0.0
C765 C 0.71873 1.00087 0.47851 0.0
C766 C 0.75027 0.02934 0.55483 0.0
C767 C 0.751 0.06663 0.55612 0.0
C768 C 0.7321 0.02376 0.50527 0.0
C769 C 0.74279 0.08177 0.53144 0.0
C770 C 0.69048 1.00435 0.46141 0.0
C771 C 0.72141 0.95473 0.44563 0.0
N772 N 0.73323 0.06007 0.50712 0.0
N773 N 0.73332 0.97618 0.47026 0.0
H774 H 0.81635 0.72465 0.61511 0.0
H775 H 0.66427 0.77345 0.69905 0.0
H776 H 0.69125 0.67992 0.59021 0.0
H777 H 0.74857 0.74817 0.74363 0.0
H778 H 0.68731 0.7597 0.65432 0.0
H779 H 0.80352 0.75193 0.65838 0.0
C780 C 0.78633 0.72062 0.61846 0.0
C781 C 0.75486 0.69959 0.59867 0.0
C782 C 0.70118 0.75779 0.67388 0.0
C783 C 0.74082 0.7322 0.64765 0.0
C784 C 0.68833 0.76592 0.69936 0.0
C785 C 0.70463 0.76194 0.72501 0.0
C786 C 0.73086 0.74607 0.67401 0.0
C787 C 0.73521 0.75136 0.72424 0.0
C788 C 0.77926 0.73648 0.6431 0.0
C789 C 0.71695 0.6965 0.60416 0.0
N790 N 0.74738 0.74368 0.69905 0.0
N791 N 0.7111 0.71265 0.62804 0.0
H792 H 0.07032 0.78964 0.76861 0.0
H793 H 0.97254 0.62582 0.89261 0.0
H794 H 0.05415 0.66876 0.76624 0.0
H795 H 0.9622 0.73405 0.89083 0.0
H796 H 1.00812 0.64532 0.84776 0.0
H797 H 0.03502 0.77343 0.81446 0.0
C798 C 0.05909 0.75968 0.77762 0.0
C799 C 0.06474 0.73035 0.76345 0.0
C800 C 0.99828 0.66501 0.85712 0.0
C801 C 0.02506 0.7119 0.8157 0.0
C802 C 0.97834 0.65412 0.88298 0.0
C803 C 0.96481 0.67862 0.89569 0.0
C804 C 1.00485 0.70073 0.84364 0.0
C805 C 0.97217 0.71433 0.88171 0.0
C806 C 0.03897 0.75046 0.80368 0.0
C807 C 0.04974 0.69205 0.77604 0.0
N808 N 0.99183 0.72443 0.85637 0.0
N809 N 0.03081 0.68406 0.80142 0.0
H810 H 0.21853 0.93527 0.05023 0.0
H811 H 0.37552 0.1225 0.95879 0.0
H812 H 0.34862 0.99511 0.06395 0.0
H813 H 0.28062 0.01672 0.9168 0.0
H814 H 0.35471 0.0862 0.0039 0.0
H815 H 0.23106 0.97442 0.00646 0.0
C816 C 0.24961 0.95654 0.04435 0.0
C817 C 0.28248 0.96161 0.06125 0.0
C818 C 0.33808 0.07124 0.98485 0.0
C819 C 0.29647 1.00743 0.01183 0.0
C820 C 0.34969 0.09192 0.95922 0.0
C821 C 0.32961 0.07247 0.93417 0.0
C822 C 0.30578 0.03112 0.98551 0.0
C823 C 0.29679 0.03258 0.93574 0.0
C824 C 0.25655 0.97896 0.01945 0.0
C825 C 0.32199 0.99053 0.0525 0.0
N826 N 0.28575 0.01305 0.96111 0.0
N827 N 0.32777 0.0124 0.02857 0.0
H828 H 0.30417 0.50921 0.92025 0.0
H829 H 0.51111 0.71969 0.89743 0.0
H830 H 0.38542 0.58028 0.98751 0.0
H831 H 0.45113 0.6289 0.83268 0.0
H832 H 0.4535 0.67949 0.92919 0.0
H833 H 0.34594 0.56395 0.88681 0.0
C834 C 0.33004 0.53686 0.92808 0.0
C835 C 0.34184 0.54021 0.95648 0.0
C836 C 0.4527 0.66883 0.90783 0.0
C837 C 0.38958 0.60242 0.91866 0.0
C838 C 0.48544 0.69179 0.88973 0.0
C839 C 0.4861 0.67713 0.86265 0.0
C840 C 0.42038 0.63133 0.89858 0.0
C841 C 0.4521 0.64084 0.85363 0.0
C842 C 0.35401 0.56789 0.90903 0.0
C843 C 0.37575 0.57643 0.96562 0.0
N844 N 0.42079 0.61898 0.87163 0.0
N845 N 0.39871 0.60597 0.94673 0.0
H846 H 0.81208 0.43727 -0.0005 0.0
H847 H 0.81176 0.37563 0.1572 0.0
H848 H 0.79836 0.5026 0.06917 0.0
H849 H 0.79808 0.29671 0.08747 0.0
H850 H 0.79451 0.41593 0.12591 0.0
H851 H 0.7946 0.37972 0.03074 0.0
C852 C 0.80449 0.43906 0.02135 0.0
C853 C 0.80722 0.47481 0.03198 0.0
C854 C 0.79433 0.38932 0.11747 0.0
C855 C 0.78812 0.40947 0.06805 0.0
C856 C 0.80423 0.36633 0.13534 0.0
C857 C 0.80691 0.33327 0.1247 0.0
C858 C 0.78805 0.37977 0.08858 0.0
C859 C 0.79648 0.32215 0.09639 0.0
C860 C 0.79446 0.40617 0.03918 0.0
C861 C 0.79672 0.47555 0.06026 0.0
N862 N 0.78842 0.34597 0.07909 0.0
N863 N 0.78854 0.44366 0.07754 0.0
H864 H 0.51068 0.78473 0.25512 0.0
H865 H 0.38738 0.8146 0.16321 0.0
H866 H 0.45811 0.83008 0.31576 0.0
H867 H 0.31059 0.79983 0.23453 0.0
H868 H 0.42949 0.79843 0.19327 0.0
H869 H 0.45294 0.76738 0.22334 0.0
C870 C 0.4867 0.79046 0.26187 0.0
C871 C 0.48959 0.80981 0.2877 0.0
C872 C 0.40268 0.79714 0.20231 0.0
C873 C 0.42424 0.79106 0.25149 0.0
C874 C 0.37879 0.80676 0.18515 0.0
C875 C 0.34578 0.80887 0.19655 0.0
C876 C 0.39393 0.7903 0.2313 0.0
C877 C 0.33582 0.79845 0.22499 0.0
C878 C 0.45399 0.781 0.24365 0.0
C879 C 0.45754 0.81616 0.29566 0.0
N880 N 0.36049 0.79063 0.24162 0.0
N881 N 0.42646 0.80722 0.27752 0.0
H882 H 0.58458 0.37747 0.33251 0.0
H883 H 0.73089 0.50517 0.4276 0.0
H884 H 0.51756 0.30485 0.40414 0.0
H885 H 0.62801 0.45618 0.48408 0.0
H886 H 0.6926 0.44661 0.39612 0.0
H887 H 0.64049 0.42136 0.36375 0.0
C888 C 0.58231 0.37008 0.35482 0.0
C889 C 0.54646 0.33774 0.36587 0.0
C890 C 0.67847 0.4487 0.41542 0.0
C891 C 0.61028 0.38805 0.40197 0.0
C892 C 0.70046 0.48192 0.43347 0.0
C893 C 0.68213 0.486 0.45802 0.0
C894 C 0.63806 0.41953 0.4222 0.0
C895 C 0.64288 0.45476 0.46493 0.0
C896 C 0.61441 0.39504 0.37269 0.0
C897 C 0.54483 0.32944 0.39484 0.0
N898 N 0.62207 0.42308 0.44703 0.0
N899 N 0.57591 0.35515 0.41205 0.0
H900 H 0.24427 0.52135 0.56027 0.0
H901 H 0.21576 0.64046 0.65597 0.0
H902 H 0.1988 0.57637 0.50155 0.0
H903 H 0.22685 0.71879 0.58646 0.0
H904 H 0.2324 0.60036 0.62441 0.0
H905 H 0.26205 0.57779 0.59313 0.0
C906 C 0.23856 0.54557 0.55417 0.0
C907 C 0.21904 0.5437 0.52856 0.0
C908 C 0.23282 0.6271 0.61605 0.0
C909 C 0.23809 0.60755 0.56613 0.0
C910 C 0.22293 0.64985 0.6341 0.0
C911 C 0.21958 0.68263 0.62365 0.0
C912 C 0.23874 0.63682 0.58714 0.0
C913 C 0.22918 0.69368 0.59526 0.0
C914 C 0.24825 0.57756 0.57304 0.0
C915 C 0.21282 0.57611 0.52146 0.0
N916 N 0.23732 0.67012 0.57777 0.0
N917 N 0.22183 0.60641 0.54027 0.0
H918 H 0.64488 0.20313 0.66808 0.0
H919 H 0.52264 0.23037 0.76265 0.0
H920 H 0.71994 0.21134 0.73908 0.0
H921 H 0.57106 0.17725 0.82063 0.0
H922 H 0.58017 0.24773 0.73088 0.0
H923 H 0.60251 0.21733 0.69929 0.0
C924 C 0.65307 0.2092 0.69023 0.0
C925 C 0.6857 0.20593 0.70115 0.0
C926 C 0.5782 0.23231 0.75057 0.0
C927 C 0.63722 0.22204 0.73722 0.0
C928 C 0.54558 0.22276 0.7688 0.0
C929 C 0.54158 0.20142 0.79391 0.0
C930 C 0.6068 0.22034 0.75763 0.0
C931 C 0.57243 0.1928 0.8011 0.0
C932 C 0.62902 0.21763 0.70807 0.0
C933 C 0.69508 0.21383 0.72992 0.0
N934 N 0.60349 0.20193 0.78294 0.0
N935 N 0.67025 0.22051 0.74715 0.0
loop_
_geom_bond_atom_site_label_1
_geom_bond_atom_site_label_2
_geom_bond_distance
_geom_bond_site_symmetry_2
_ccdc_geom_bond_type
C0 C1 1.351 . S
C0 N3 1.368 . S
C0 H5 0.931 . S
C1 C0 1.351 . S
C1 N2 1.373 . S
C1 H29 0.930 . S
N2 C1 1.373 . S
N2 C4 1.340 . S
N3 C0 1.368 . S
N3 C4 1.321 . S
N3 Co6 2.135 1_554 S
C4 N2 1.340 . S
C4 N3 1.321 . S
C4 H28 0.930 . S
H5 C0 0.931 . S
Co6 N3 2.135 1_556 S
Co6 N9 2.121 . S
Co6 O14 2.055 . S
Co6 O17 2.039 . S
Co6 N20 2.140 1_556 S
C7 O8 1.227 . S
C7 O17 1.265 1_554 S
O8 C7 1.227 . S
N9 Co6 2.121 . S
N9 C11 1.375 . S
N9 C12 1.313 . S
C10 C11 1.338 . S
C10 N13 1.377 . S
C10 H30 0.930 . S
C11 N9 1.375 . S
C11 C10 1.338 . S
C11 H15 0.931 1_556 S
C12 N9 1.313 . S
C12 N13 1.344 . S
C12 H16 0.930 . S
N13 C10 1.377 . S
N13 C12 1.344 . S
O14 Co6 2.055 . S
O14 C18 1.253 . S
H15 C11 0.931 1_554 S
H16 C12 0.930 . S
O17 Co6 2.039 . S
O17 C7 1.265 1_556 S
C18 O14 1.253 . S
C18 O19 1.227 . S
O19 C18 1.227 . S
N20 Co6 2.140 1_554 S
N20 C23 1.346 . S
N20 C24 1.345 . S
C21 C22 1.387 . S
C21 C25 1.391 . S
C22 C21 1.387 . S
C22 C23 1.369 . S
C22 H31 0.929 . S
C23 N20 1.346 . S
C23 C22 1.369 . S
C23 H26 0.928 . S
C24 N20 1.345 . S
C24 C25 1.371 . S
C24 H27 0.931 . S
C25 C21 1.391 . S
C25 C24 1.371 . S
C25 H32 0.930 . S
H26 C23 0.928 . S
H27 C24 0.931 . S
H28 C4 0.930 . S
H29 C1 0.930 . S
H30 C10 0.930 . S
H31 C22 0.929 . S
H32 C25 0.930 . S
C33 C34 1.351 . S
C33 N36 1.368 . S
C33 H38 0.931 . S
C34 C33 1.351 . S
C34 N35 1.373 . S
C34 H62 0.930 . S
N35 C34 1.373 . S
N35 C37 1.340 . S
N36 C33 1.368 . S
N36 C37 1.321 . S
N36 Co39 2.135 . S
C37 N35 1.340 . S
C37 N36 1.321 . S
C37 H61 0.930 . S
H38 C33 0.931 . S
Co39 N36 2.135 . S
Co39 N42 2.121 . S
Co39 O47 2.055 . S
Co39 O50 2.039 . S
Co39 N53 2.140 . S
C40 O41 1.227 . S
C40 O50 1.265 . S
O41 C40 1.227 . S
N42 Co39 2.121 . S
N42 C44 1.375 . S
N42 C45 1.313 . S
C43 C44 1.338 . S
C43 N46 1.377 . S
C43 H63 0.930 . S
C44 N42 1.375 . S
C44 C43 1.338 . S
C44 H48 0.931 . S
C45 N42 1.313 . S
C45 N46 1.344 . S
C45 H49 0.930 . S
N46 C43 1.377 . S
N46 C45 1.344 . S
O47 Co39 2.055 . S
O47 C51 1.253 . S
H48 C44 0.931 . S
H49 C45 0.930 . S
O50 Co39 2.039 . S
O50 C40 1.265 . S
C51 O47 1.253 . S
C51 O52 1.227 . S
O52 C51 1.227 . S
N53 Co39 2.140 . S
N53 C56 1.346 . S
N53 C57 1.345 . S
C54 C55 1.387 . S
C54 C58 1.391 . S
C55 C54 1.387 . S
C55 C56 1.369 . S
C55 H64 0.929 . S
C56 N53 1.346 . S
C56 C55 1.369 . S
C56 H59 0.928 . S
C57 N53 1.345 . S
C57 C58 1.371 . S
C57 H60 0.931 . S
C58 C54 1.391 . S
C58 C57 1.371 . S
C58 H65 0.930 . S
H59 C56 0.928 . S
H60 C57 0.931 . S
H61 C37 0.930 . S
H62 C34 0.930 . S
H63 C43 0.930 . S
H64 C55 0.929 . S
H65 C58 0.930 . S
C66 C67 1.351 . S
C66 N69 1.368 . S
C66 H71 0.931 . S
C67 C66 1.351 . S
C67 N68 1.373 . S
C67 H95 0.930 . S
N68 C67 1.373 . S
N68 C70 1.340 . S
N69 C66 1.368 . S
N69 C70 1.321 . S
N69 Co72 2.135 . S
C70 N68 1.340 . S
C70 N69 1.321 . S
C70 H94 0.930 . S
H71 C66 0.931 . S
Co72 N69 2.135 . S
Co72 N75 2.121 . S
Co72 O80 2.055 . S
Co72 O83 2.039 . S
Co72 N86 2.140 . S
C73 O74 1.227 . S
C73 O83 1.265 . S
O74 C73 1.227 . S
N75 Co72 2.121 . S
N75 C77 1.375 . S
N75 C78 1.313 . S
C76 C77 1.338 . S
C76 N79 1.377 . S
C76 H96 0.930 . S
C77 N75 1.375 . S
C77 C76 1.338 . S
C77 H81 0.931 . S
C78 N75 1.313 . S
C78 N79 1.344 . S
C78 H82 0.930 . S
N79 C76 1.377 . S
N79 C78 1.344 . S
O80 Co72 2.055 . S
O80 C84 1.253 . S
H81 C77 0.931 . S
H82 C78 0.930 . S
O83 Co72 2.039 . S
O83 C73 1.265 . S
C84 O80 1.253 . S
C84 O85 1.227 . S
O85 C84 1.227 . S
N86 Co72 2.140 . S
N86 C89 1.346 . S
N86 C90 1.345 . S
C87 C88 1.387 . S
C87 C91 1.391 . S
C88 C87 1.387 . S
C88 C89 1.369 . S
C88 H97 0.929 . S
C89 N86 1.346 . S
C89 C88 1.369 . S
C89 H92 0.928 . S
C90 N86 1.345 . S
C90 C91 1.371 . S
C90 H93 0.931 . S
C91 C87 1.391 . S
C91 C90 1.371 . S
C91 H98 0.930 . S
H92 C89 0.928 . S
H93 C90 0.931 . S
H94 C70 0.930 . S
H95 C67 0.930 . S
H96 C76 0.930 . S
H97 C88 0.929 . S
H98 C91 0.930 . S
C99 C100 1.351 . S
C99 N102 1.368 . S
C99 H104 0.931 . S
C100 C99 1.351 . S
C100 N101 1.373 . S
C100 H128 0.930 . S
N101 C100 1.373 . S
N101 C103 1.340 . S
N102 C99 1.368 . S
N102 C103 1.321 . S
N102 Co105 2.135 . S
C103 N101 1.340 . S
C103 N102 1.321 . S
C103 H127 0.930 . S
H104 C99 0.931 . S
Co105 N102 2.135 . S
Co105 N108 2.121 . S
Co105 O113 2.055 . S
Co105 O116 2.039 . S
Co105 N119 2.140 . S
C106 O107 1.227 . S
C106 O116 1.265 . S
O107 C106 1.227 . S
N108 Co105 2.121 . S
N108 C110 1.375 . S
N108 C111 1.313 . S
C109 C110 1.338 . S
C109 N112 1.377 . S
C109 H129 0.930 . S
C110 N108 1.375 . S
C110 C109 1.338 . S
C110 H114 0.931 . S
C111 N108 1.313 . S
C111 N112 1.344 . S
C111 H115 0.930 . S
N112 C109 1.377 . S
N112 C111 1.344 . S
O113 Co105 2.055 . S
O113 C117 1.253 . S
H114 C110 0.931 . S
H115 C111 0.930 . S
O116 Co105 2.039 . S
O116 C106 1.265 . S
C117 O113 1.253 . S
C117 O118 1.227 . S
O118 C117 1.227 . S
N119 Co105 2.140 . S
N119 C122 1.346 . S
N119 C123 1.345 . S
C120 C121 1.387 . S
C120 C124 1.391 . S
C121 C120 1.387 . S
C121 C122 1.369 . S
C121 H130 0.929 . S
C122 N119 1.346 . S
C122 C121 1.369 . S
C122 H125 0.928 . S
C123 N119 1.345 . S
C123 C124 1.371 . S
C123 H126 0.931 . S
C124 C120 1.391 . S
C124 C123 1.371 . S
C124 H131 0.930 . S
H125 C122 0.928 . S
H126 C123 0.931 . S
H127 C103 0.930 . S
H128 C100 0.930 . S
H129 C109 0.930 . S
H130 C121 0.929 . S
H131 C124 0.930 . S
C132 C133 1.351 . S
C132 N135 1.368 . S
C132 H137 0.931 . S
C133 C132 1.351 . S
C133 N134 1.373 . S
C133 H161 0.930 . S
N134 C133 1.373 . S
N134 C136 1.340 . S
N135 C132 1.368 . S
N135 C136 1.321 . S
N135 Co138 2.135 . S
C136 N134 1.340 . S
C136 N135 1.321 . S
C136 H160 0.930 . S
H137 C132 0.931 . S
Co138 N135 2.135 . S
Co138 N141 2.121 . S
Co138 O146 2.055 . S
Co138 O149 2.039 . S
Co138 N152 2.140 . S
C139 O140 1.227 . S
C139 O149 1.265 . S
O140 C139 1.227 . S
N141 Co138 2.121 . S
N141 C143 1.375 . S
N141 C144 1.313 . S
C142 C143 1.338 . S
C142 N145 1.377 . S
C142 H162 0.930 . S
C143 N141 1.375 . S
C143 C142 1.338 . S
C143 H147 0.931 . S
C144 N141 1.313 . S
C144 N145 1.344 . S
C144 H148 0.930 . S
N145 C142 1.377 . S
N145 C144 1.344 . S
O146 Co138 2.055 . S
O146 C150 1.253 . S
H147 C143 0.931 . S
H148 C144 0.930 . S
O149 Co138 2.039 . S
O149 C139 1.265 . S
C150 O146 1.253 . S
C150 O151 1.227 . S
O151 C150 1.227 . S
N152 Co138 2.140 . S
N152 C155 1.346 . S
N152 C156 1.345 . S
C153 C154 1.387 . S
C153 C157 1.391 . S
C154 C153 1.387 . S
C154 C155 1.369 . S
C154 H163 0.929 . S
C155 N152 1.346 . S
C155 C154 1.369 . S
C155 H158 0.928 . S
C156 N152 1.345 . S
C156 C157 1.371 . S
C156 H159 0.931 . S
C157 C153 1.391 . S
C157 C156 1.371 . S
C157 H164 0.930 . S
H158 C155 0.928 . S
H159 C156 0.931 . S
H160 C136 0.930 . S
H161 C133 0.930 . S
H162 C142 0.930 . S
H163 C154 0.929 . S
H164 C157 0.930 . S
C165 C166 1.351 . S
C165 N168 1.368 . S
C165 H170 0.931 . S
C166 C165 1.351 . S
C166 N167 1.373 . S
C166 H194 0.930 . S
N167 C166 1.373 . S
N167 C169 1.340 . S
N168 C165 1.368 . S
N168 C169 1.321 . S
N168 Co171 2.135 . S
C169 N167 1.340 . S
C169 N168 1.321 . S
C169 H193 0.930 . S
H170 C165 0.931 . S
Co171 N168 2.135 . S
Co171 N174 2.121 . S
Co171 O179 2.055 . S
Co171 O182 2.039 . S
Co171 N185 2.140 . S
C172 O173 1.227 . S
C172 O182 1.265 . S
O173 C172 1.227 . S
N174 Co171 2.121 . S
N174 C176 1.375 . S
N174 C177 1.313 . S
C175 C176 1.338 . S
C175 N178 1.377 . S
C175 H195 0.930 . S
C176 N174 1.375 . S
C176 C175 1.338 . S
C176 H180 0.931 . S
C177 N174 1.313 . S
C177 N178 1.344 . S
C177 H181 0.930 . S
N178 C175 1.377 . S
N178 C177 1.344 . S
O179 Co171 2.055 . S
O179 C183 1.253 . S
H180 C176 0.931 . S
H181 C177 0.930 . S
O182 Co171 2.039 . S
O182 C172 1.265 . S
C183 O179 1.253 . S
C183 O184 1.227 . S
O184 C183 1.227 . S
N185 Co171 2.140 . S
N185 C188 1.346 . S
N185 C189 1.345 . S
C186 C187 1.387 . S
C186 C190 1.391 . S
C187 C186 1.387 . S
C187 C188 1.369 . S
C187 H196 0.929 . S
C188 N185 1.346 . S
C188 C187 1.369 . S
C188 H191 0.928 . S
C189 N185 1.345 . S
C189 C190 1.371 . S
C189 H192 0.931 . S
C190 C186 1.391 . S
C190 C189 1.371 . S
C190 H197 0.930 . S
H191 C188 0.928 . S
H192 C189 0.931 . S
H193 C169 0.930 . S
H194 C166 0.930 . S
H195 C175 0.930 . S
H196 C187 0.929 . S
H197 C190 0.930 . S
C198 C199 1.351 . S
C198 N201 1.368 . S
C198 H203 0.931 . S
C199 C198 1.351 . S
C199 N200 1.373 . S
C199 H227 0.930 . S
N200 C199 1.373 . S
N200 C202 1.340 . S
N201 C198 1.368 . S
N201 C202 1.321 . S
N201 Co204 2.135 . S
C202 N200 1.340 . S
C202 N201 1.321 . S
C202 H226 0.930 . S
H203 C198 0.931 . S
Co204 N201 2.135 . S
Co204 N207 2.121 . S
Co204 O212 2.055 . S
Co204 O215 2.039 . S
Co204 N218 2.140 . S
C205 O206 1.227 . S
C205 O215 1.265 . S
O206 C205 1.227 . S
N207 Co204 2.121 . S
N207 C209 1.375 . S
N207 C210 1.313 . S
C208 C209 1.338 . S
C208 N211 1.377 . S
C208 H228 0.930 . S
C209 N207 1.375 . S
C209 C208 1.338 . S
C209 H213 0.931 . S
C210 N207 1.313 . S
C210 N211 1.344 . S
C210 H214 0.930 . S
N211 C208 1.377 . S
N211 C210 1.344 . S
O212 Co204 2.055 . S
O212 C216 1.253 . S
H213 C209 0.931 . S
H214 C210 0.930 . S
O215 Co204 2.039 . S
O215 C205 1.265 . S
C216 O212 1.253 . S
C216 O217 1.227 . S
O217 C216 1.227 . S
N218 Co204 2.140 . S
N218 C221 1.346 . S
N218 C222 1.345 . S
C219 C220 1.387 . S
C219 C223 1.391 . S
C220 C219 1.387 . S
C220 C221 1.369 . S
C220 H229 0.929 . S
C221 N218 1.346 . S
C221 C220 1.369 . S
C221 H224 0.928 . S
C222 N218 1.345 . S
C222 C223 1.371 . S
C222 H225 0.931 . S
C223 C219 1.391 . S
C223 C222 1.371 . S
C223 H230 0.930 . S
H224 C221 0.928 . S
H225 C222 0.931 . S
H226 C202 0.930 . S
H227 C199 0.930 . S
H228 C208 0.930 . S
H229 C220 0.929 . S
H230 C223 0.930 . S
C231 C232 1.351 . S
C231 N234 1.368 . S
C231 H236 0.931 . S
C232 C231 1.351 . S
C232 N233 1.373 . S
C232 H260 0.930 . S
N233 C232 1.373 . S
N233 C235 1.340 . S
N234 C231 1.368 . S
N234 C235 1.321 . S
N234 Co237 2.135 . S
C235 N233 1.340 . S
C235 N234 1.321 . S
C235 H259 0.930 . S
H236 C231 0.931 . S
Co237 N234 2.135 . S
Co237 N240 2.121 1_556 S
Co237 O245 2.055 1_556 S
Co237 O248 2.039 1_556 S
Co237 N251 2.140 . S
C238 O239 1.227 . S
C238 O248 1.265 1_556 S
O239 C238 1.227 . S
N240 Co237 2.121 1_554 S
N240 C242 1.375 . S
N240 C243 1.313 . S
C241 C242 1.338 . S
C241 N244 1.377 . S
C241 H261 0.930 . S
C242 N240 1.375 . S
C242 C241 1.338 . S
C242 H246 0.931 1_554 S
C243 N240 1.313 . S
C243 N244 1.344 . S
C243 H247 0.930 . S
N244 C241 1.377 . S
N244 C243 1.344 . S
O245 Co237 2.055 1_554 S
O245 C249 1.253 . S
H246 C242 0.931 1_556 S
H247 C243 0.930 . S
O248 Co237 2.039 1_554 S
O248 C238 1.265 1_554 S
C249 O245 1.253 . S
C249 O250 1.227 . S
O250 C249 1.227 . S
N251 Co237 2.140 . S
N251 C254 1.346 . S
N251 C255 1.345 . S
C252 C253 1.387 . S
C252 C256 1.391 . S
C253 C252 1.387 . S
C253 C254 1.369 . S
C253 H262 0.929 . S
C254 N251 1.346 . S
C254 C253 1.369 . S
C254 H257 0.928 . S
C255 N251 1.345 . S
C255 C256 1.371 . S
C255 H258 0.931 . S
C256 C252 1.391 . S
C256 C255 1.371 . S
C256 H263 0.930 . S
H257 C254 0.928 . S
H258 C255 0.931 . S
H259 C235 0.930 . S
H260 C232 0.930 . S
H261 C241 0.930 . S
H262 C253 0.929 . S
H263 C256 0.930 . S
C264 C265 1.351 . S
C264 N267 1.368 . S
C264 H269 0.931 . S
C265 C264 1.351 . S
C265 N266 1.373 . S
C265 H293 0.930 . S
N266 C265 1.373 . S
N266 C268 1.340 . S
N267 C264 1.368 . S
N267 C268 1.321 . S
N267 Co270 2.135 . S
C268 N266 1.340 . S
C268 N267 1.321 . S
C268 H292 0.930 . S
H269 C264 0.931 . S
Co270 N267 2.135 . S
Co270 N273 2.121 . S
Co270 O278 2.055 . S
Co270 O281 2.039 . S
Co270 N284 2.140 . S
C271 O272 1.227 . S
C271 O281 1.265 . S
O272 C271 1.227 . S
N273 Co270 2.121 . S
N273 C275 1.375 . S
N273 C276 1.313 . S
C274 C275 1.338 . S
C274 N277 1.377 . S
C274 H294 0.930 . S
C275 N273 1.375 . S
C275 C274 1.338 . S
C275 H279 0.931 . S
C276 N273 1.313 . S
C276 N277 1.344 . S
C276 H280 0.930 . S
N277 C274 1.377 . S
N277 C276 1.344 . S
O278 Co270 2.055 . S
O278 C282 1.253 . S
H279 C275 0.931 . S
H280 C276 0.930 . S
O281 Co270 2.039 . S
O281 C271 1.265 . S
C282 O278 1.253 . S
C282 O283 1.227 . S
O283 C282 1.227 . S
N284 Co270 2.140 . S
N284 C287 1.346 . S
N284 C288 1.345 . S
C285 C286 1.387 . S
C285 C289 1.391 . S
C286 C285 1.387 . S
C286 C287 1.369 . S
C286 H295 0.929 . S
C287 N284 1.346 . S
C287 C286 1.369 . S
C287 H290 0.928 . S
C288 N284 1.345 . S
C288 C289 1.371 . S
C288 H291 0.931 . S
C289 C285 1.391 . S
C289 C288 1.371 . S
C289 H296 0.930 . S
H290 C287 0.928 . S
H291 C288 0.931 . S
H292 C268 0.930 . S
H293 C265 0.930 . S
H294 C274 0.930 . S
H295 C286 0.929 . S
H296 C289 0.930 . S
C297 C298 1.351 . S
C297 N300 1.368 . S
C297 H302 0.931 . S
C298 C297 1.351 . S
C298 N299 1.373 . S
C298 H326 0.930 . S
N299 C298 1.373 . S
N299 C301 1.340 . S
N300 C297 1.368 . S
N300 C301 1.321 . S
N300 Co303 2.135 . S
C301 N299 1.340 . S
C301 N300 1.321 . S
C301 H325 0.930 . S
H302 C297 0.931 . S
Co303 N300 2.135 . S
Co303 N306 2.121 . S
Co303 O311 2.055 . S
Co303 O314 2.039 . S
Co303 N317 2.140 . S
C304 O305 1.227 . S
C304 O314 1.265 . S
O305 C304 1.227 . S
N306 Co303 2.121 . S
N306 C308 1.375 . S
N306 C309 1.313 . S
C307 C308 1.338 . S
C307 N310 1.377 . S
C307 H327 0.930 . S
C308 N306 1.375 . S
C308 C307 1.338 . S
C308 H312 0.931 . S
C309 N306 1.313 . S
C309 N310 1.344 . S
C309 H313 0.930 . S
N310 C307 1.377 . S
N310 C309 1.344 . S
O311 Co303 2.055 . S
O311 C315 1.253 . S
H312 C308 0.931 . S
H313 C309 0.930 . S
O314 Co303 2.039 . S
O314 C304 1.265 . S
C315 O311 1.253 . S
C315 O316 1.227 . S
O316 C315 1.227 . S
N317 Co303 2.140 . S
N317 C320 1.346 . S
N317 C321 1.345 . S
C318 C319 1.387 . S
C318 C322 1.391 . S
C319 C318 1.387 . S
C319 C320 1.369 . S
C319 H328 0.929 . S
C320 N317 1.346 . S
C320 C319 1.369 . S
C320 H323 0.928 . S
C321 N317 1.345 . S
C321 C322 1.371 . S
C321 H324 0.931 . S
C322 C318 1.391 . S
C322 C321 1.371 . S
C322 H329 0.930 . S
H323 C320 0.928 . S
H324 C321 0.931 . S
H325 C301 0.930 . S
H326 C298 0.930 . S
H327 C307 0.930 . S
H328 C319 0.929 . S
H329 C322 0.930 . S
C330 C331 1.351 . S
C330 N333 1.368 . S
C330 H335 0.931 . S
C331 C330 1.351 . S
C331 N332 1.373 . S
C331 H359 0.930 . S
N332 C331 1.373 . S
N332 C334 1.340 . S
N333 C330 1.368 . S
N333 C334 1.321 . S
N333 Co336 2.135 . S
C334 N332 1.340 . S
C334 N333 1.321 . S
C334 H358 0.930 . S
H335 C330 0.931 . S
Co336 N333 2.135 . S
Co336 N339 2.121 . S
Co336 O344 2.055 . S
Co336 O347 2.039 . S
Co336 N350 2.140 . S
C337 O338 1.227 . S
C337 O347 1.265 . S
O338 C337 1.227 . S
N339 Co336 2.121 . S
N339 C341 1.375 . S
N339 C342 1.313 . S
C340 C341 1.338 . S
C340 N343 1.377 . S
C340 H360 0.930 . S
C341 N339 1.375 . S
C341 C340 1.338 . S
C341 H345 0.931 . S
C342 N339 1.313 . S
C342 N343 1.344 . S
C342 H346 0.930 . S
N343 C340 1.377 . S
N343 C342 1.344 . S
O344 Co336 2.055 . S
O344 C348 1.253 . S
H345 C341 0.931 . S
H346 C342 0.930 . S
O347 Co336 2.039 . S
O347 C337 1.265 . S
C348 O344 1.253 . S
C348 O349 1.227 . S
O349 C348 1.227 . S
N350 Co336 2.140 . S
N350 C353 1.346 . S
N350 C354 1.345 . S
C351 C352 1.387 . S
C351 C355 1.391 . S
C352 C351 1.387 . S
C352 C353 1.369 . S
C352 H361 0.929 . S
C353 N350 1.346 . S
C353 C352 1.369 . S
C353 H356 0.928 . S
C354 N350 1.345 . S
C354 C355 1.371 . S
C354 H357 0.931 . S
C355 C351 1.391 . S
C355 C354 1.371 . S
C355 H362 0.930 . S
H356 C353 0.928 . S
H357 C354 0.931 . S
H358 C334 0.930 . S
H359 C331 0.930 . S
H360 C340 0.930 . S
H361 C352 0.929 . S
H362 C355 0.930 . S
C363 C364 1.351 . S
C363 N366 1.368 . S
C363 H368 0.931 . S
C364 C363 1.351 . S
C364 N365 1.373 . S
C364 H392 0.930 . S
N365 C364 1.373 . S
N365 C367 1.340 . S
N366 C363 1.368 . S
N366 C367 1.321 . S
N366 Co369 2.135 . S
C367 N365 1.340 . S
C367 N366 1.321 . S
C367 H391 0.930 . S
H368 C363 0.931 . S
Co369 N366 2.135 . S
Co369 N372 2.121 . S
Co369 O377 2.055 . S
Co369 O380 2.039 . S
Co369 N383 2.140 . S
C370 O371 1.227 . S
C370 O380 1.265 . S
O371 C370 1.227 . S
N372 Co369 2.121 . S
N372 C374 1.375 . S
N372 C375 1.313 . S
C373 C374 1.338 . S
C373 N376 1.377 . S
C373 H393 0.930 . S
C374 N372 1.375 . S
C374 C373 1.338 . S
C374 H378 0.931 . S
C375 N372 1.313 . S
C375 N376 1.344 . S
C375 H379 0.930 . S
N376 C373 1.377 . S
N376 C375 1.344 . S
O377 Co369 2.055 . S
O377 C381 1.253 . S
H378 C374 0.931 . S
H379 C375 0.930 . S
O380 Co369 2.039 . S
O380 C370 1.265 . S
C381 O377 1.253 . S
C381 O382 1.227 . S
O382 C381 1.227 . S
N383 Co369 2.140 . S
N383 C386 1.346 . S
N383 C387 1.345 . S
C384 C385 1.387 . S
C384 C388 1.391 . S
C385 C384 1.387 . S
C385 C386 1.369 . S
C385 H394 0.929 . S
C386 N383 1.346 . S
C386 C385 1.369 . S
C386 H389 0.928 . S
C387 N383 1.345 . S
C387 C388 1.371 . S
C387 H390 0.931 . S
C388 C384 1.391 . S
C388 C387 1.371 . S
C388 H395 0.930 . S
H389 C386 0.928 . S
H390 C387 0.931 . S
H391 C367 0.930 . S
H392 C364 0.930 . S
H393 C373 0.930 . S
H394 C385 0.929 . S
H395 C388 0.930 . S
H396 C402 0.930 . S
H397 C406 0.930 . S
H398 C411 0.929 . S
H399 C409 0.929 . S
H400 C404 0.929 . S
H401 C410 0.929 . S
C402 H396 0.930 . S
C402 C403 1.367 . S
C402 C410 1.378 . S
C403 C402 1.367 . S
C403 C411 1.433 . S
C404 H400 0.929 . S
C404 C406 1.378 . S
C404 C408 1.350 . S
C405 C408 1.463 . S
C405 C410 1.350 . S
C405 N413 1.427 . S
C406 H397 0.930 . S
C406 C404 1.378 . S
C406 C407 1.367 . S
C407 C406 1.367 . S
C407 C409 1.433 . S
C408 C404 1.350 . S
C408 C405 1.463 . S
C408 N412 1.427 . S
C409 H399 0.929 . S
C409 C407 1.433 . S
C409 N412 1.384 . S
C410 H401 0.929 . S
C410 C402 1.378 . S
C410 C405 1.350 . S
C411 H398 0.929 . S
C411 C403 1.433 . S
C411 N413 1.384 . S
N412 C408 1.427 . S
N412 C409 1.384 . S
N413 C405 1.427 . S
N413 C411 1.384 . S
H414 C420 0.930 . S
H415 C424 0.947 . S
H416 C429 0.929 . S
H417 C427 0.929 . S
H418 C422 0.929 . S
H419 C428 0.929 . S
C420 H414 0.930 . S
C420 C421 1.367 . S
C420 C428 1.378 . S
C421 C420 1.367 . S
C421 C429 1.433 . S
C422 H418 0.929 . S
C422 C424 1.358 1_455 S
C422 C426 1.350 . S
C423 C426 1.463 . S
C423 C428 1.350 . S
C423 N431 1.427 . S
C424 H415 0.947 . S
C424 C422 1.358 1_655 S
C424 C425 1.370 . S
C425 C424 1.370 . S
C425 C427 1.433 . S
C426 C422 1.350 . S
C426 C423 1.463 . S
C426 N430 1.427 . S
C427 H417 0.929 . S
C427 C425 1.433 . S
C427 N430 1.384 1_655 S
C428 H419 0.929 . S
C428 C420 1.378 . S
C428 C423 1.350 . S
C429 H416 0.929 . S
C429 C421 1.433 . S
C429 N431 1.384 . S
N430 C426 1.427 . S
N430 C427 1.384 1_455 S
N431 C423 1.427 . S
N431 C429 1.384 . S
H432 C438 0.930 . S
H433 C442 0.930 1_565 S
H434 C447 0.929 . S
H435 C445 0.929 . S
H436 C440 0.929 . S
H437 C446 0.929 . S
C438 H432 0.930 . S
C438 C439 1.367 . S
C438 C446 1.378 . S
C439 C438 1.367 . S
C439 C447 1.433 . S
C440 H436 0.929 . S
C440 C442 1.378 . S
C440 C444 1.350 . S
C441 C444 1.463 . S
C441 C446 1.350 . S
C441 N449 1.427 . S
C442 H433 0.930 1_545 S
C442 C440 1.378 . S
C442 C443 1.367 1_545 S
C443 C442 1.367 1_565 S
C443 C445 1.433 . S
C444 C440 1.350 . S
C444 C441 1.463 . S
C444 N448 1.427 . S
C445 H435 0.929 . S
C445 C443 1.433 . S
C445 N448 1.384 1_565 S
C446 H437 0.929 . S
C446 C438 1.378 . S
C446 C441 1.350 . S
C447 H434 0.929 . S
C447 C439 1.433 . S
C447 N449 1.384 . S
N448 C444 1.427 . S
N448 C445 1.384 1_545 S
N449 C441 1.427 . S
N449 C447 1.384 . S
H450 C456 0.930 . S
H451 C460 0.930 . S
H452 C465 0.929 . S
H453 C463 0.929 . S
H454 C458 0.929 . S
H455 C464 0.929 . S
C456 H450 0.930 . S
C456 C457 1.367 . S
C456 C464 1.378 . S
C457 C456 1.367 . S
C457 C465 1.433 . S
C458 H454 0.929 . S
C458 C460 1.378 . S
C458 C462 1.350 . S
C459 C462 1.463 . S
C459 C464 1.350 . S
C459 N467 1.427 . S
C460 H451 0.930 . S
C460 C458 1.378 . S
C460 C461 1.367 . S
C461 C460 1.367 . S
C461 C463 1.433 . S
C462 C458 1.350 . S
C462 C459 1.463 . S
C462 N466 1.427 . S
C463 H453 0.929 . S
C463 C461 1.433 . S
C463 N466 1.384 . S
C464 H455 0.929 . S
C464 C456 1.378 . S
C464 C459 1.350 . S
C465 H452 0.929 . S
C465 C457 1.433 . S
C465 N467 1.384 . S
N466 C462 1.427 . S
N466 C463 1.384 . S
N467 C459 1.427 . S
N467 C465 1.384 . S
H468 C474 0.930 . S
H469 C478 0.930 . S
H470 C483 0.929 . S
H471 C481 0.929 . S
H472 C476 0.929 . S
H473 C482 0.929 . S
C474 H468 0.930 . S
C474 C475 1.367 . S
C474 C482 1.378 1_455 S
C475 C474 1.367 . S
C475 C483 1.433 1_455 S
C476 H472 0.929 . S
C476 C478 1.378 . S
C476 C480 1.350 . S
C477 C480 1.463 . S
C477 C482 1.350 . S
C477 N485 1.427 . S
C478 H469 0.930 . S
C478 C476 1.378 . S
C478 C479 1.367 . S
C479 C478 1.367 . S
C479 C481 1.433 . S
C480 C476 1.350 . S
C480 C477 1.463 . S
C480 N484 1.427 . S
C481 H471 0.929 . S
C481 C479 1.433 . S
C481 N484 1.384 . S
C482 H473 0.929 . S
C482 C474 1.378 1_655 S
C482 C477 1.350 . S
C483 H470 0.929 . S
C483 C475 1.433 1_655 S
C483 N485 1.384 . S
N484 C480 1.427 . S
N484 C481 1.384 . S
N485 C477 1.427 . S
N485 C483 1.384 . S
H486 C492 0.930 . S
H487 C496 0.930 . S
H488 C501 0.929 . S
H489 C499 0.929 . S
H490 C494 0.929 . S
H491 C500 0.929 . S
C492 H486 0.930 . S
C492 C493 1.367 . S
C492 C500 1.378 . S
C493 C492 1.367 . S
C493 C501 1.433 . S
C494 H490 0.929 . S
C494 C496 1.378 1_565 S
C494 C498 1.350 . S
C495 C498 1.463 . S
C495 C500 1.350 . S
C495 N503 1.427 . S
C496 H487 0.930 . S
C496 C494 1.378 1_545 S
C496 C497 1.367 . S
C497 C496 1.367 . S
C497 C499 1.433 1_545 S
C498 C494 1.350 . S
C498 C495 1.463 . S
C498 N502 1.427 . S
C499 H489 0.929 . S
C499 C497 1.433 1_565 S
C499 N502 1.384 . S
C500 H491 0.929 . S
C500 C492 1.378 . S
C500 C495 1.350 . S
C501 H488 0.929 . S
C501 C493 1.433 . S
C501 N503 1.384 . S
N502 C498 1.427 . S
N502 C499 1.384 . S
N503 C495 1.427 . S
N503 C501 1.384 . S
H504 C510 0.930 . S
H505 C514 0.930 . S
H506 C519 0.929 . S
H507 C517 0.929 . S
H508 C512 0.929 . S
H509 C518 0.929 . S
C510 H504 0.930 . S
C510 C511 1.367 . S
C510 C518 1.378 . S
C511 C510 1.367 . S
C511 C519 1.433 . S
C512 H508 0.929 . S
C512 C514 1.378 . S
C512 C516 1.350 . S
C513 C516 1.463 . S
C513 C518 1.350 . S
C513 N521 1.427 . S
C514 H505 0.930 . S
C514 C512 1.378 . S
C514 C515 1.367 . S
C515 C514 1.367 . S
C515 C517 1.433 . S
C516 C512 1.350 . S
C516 C513 1.463 . S
C516 N520 1.427 . S
C517 H507 0.929 . S
C517 C515 1.433 . S
C517 N520 1.384 . S
C518 H509 0.929 . S
C518 C510 1.378 . S
C518 C513 1.350 . S
C519 H506 0.929 . S
C519 C511 1.433 . S
C519 N521 1.384 . S
N520 C516 1.427 . S
N520 C517 1.384 . S
N521 C513 1.427 . S
N521 C519 1.384 . S
H522 C528 0.930 . S
H523 C532 0.930 1_655 S
H524 C537 0.929 . S
H525 C535 0.929 . S
H526 C530 0.929 . S
H527 C536 0.929 . S
C528 H522 0.930 . S
C528 C529 1.367 . S
C528 C536 1.378 . S
C529 C528 1.367 . S
C529 C537 1.433 . S
C530 H526 0.929 . S
C530 C532 1.378 . S
C530 C534 1.350 . S
C531 C534 1.463 . S
C531 C536 1.350 . S
C531 N539 1.427 . S
C532 H523 0.930 1_455 S
C532 C530 1.378 . S
C532 C533 1.367 1_455 S
C533 C532 1.367 1_655 S
C533 C535 1.433 . S
C534 C530 1.350 . S
C534 C531 1.463 . S
C534 N538 1.427 . S
C535 H525 0.929 . S
C535 C533 1.433 . S
C535 N538 1.384 1_655 S
C536 H527 0.929 . S
C536 C528 1.378 . S
C536 C531 1.350 . S
C537 H524 0.929 . S
C537 C529 1.433 . S
C537 N539 1.384 . S
N538 C534 1.427 . S
N538 C535 1.384 1_455 S
N539 C531 1.427 . S
N539 C537 1.384 . S
H540 C546 0.930 . S
H541 C550 0.930 . S
H542 C555 0.929 . S
H543 C553 0.929 1_565 S
H544 C548 0.929 . S
H545 C554 0.929 . S
C546 H540 0.930 . S
C546 C547 1.367 . S
C546 C554 1.378 . S
C547 C546 1.367 . S
C547 C555 1.433 . S
C548 H544 0.929 . S
C548 C550 1.378 1_545 S
C548 C552 1.350 . S
C549 C552 1.463 . S
C549 C554 1.350 . S
C549 N557 1.427 . S
C550 H541 0.930 . S
C550 C548 1.378 1_565 S
C550 C551 1.367 . S
C551 C550 1.367 . S
C551 C553 1.433 1_565 S
C552 C548 1.350 . S
C552 C549 1.463 . S
C552 N556 1.427 . S
C553 H543 0.929 1_545 S
C553 C551 1.433 1_545 S
C553 N556 1.384 . S
C554 H545 0.929 . S
C554 C546 1.378 . S
C554 C549 1.350 . S
C555 H542 0.929 . S
C555 C547 1.433 . S
C555 N557 1.384 . S
N556 C552 1.427 . S
N556 C553 1.384 . S
N557 C549 1.427 . S
N557 C555 1.384 . S
H558 C564 0.930 . S
H559 C568 0.930 . S
H560 C573 0.929 . S
H561 C571 0.929 . S
H562 C566 0.929 . S
H563 C572 0.929 . S
C564 H558 0.930 . S
C564 C565 1.367 . S
C564 C572 1.378 . S
C565 C564 1.367 . S
C565 C573 1.433 . S
C566 H562 0.929 . S
C566 C568 1.378 . S
C566 C570 1.350 . S
C567 C570 1.463 . S
C567 C572 1.350 . S
C567 N575 1.427 . S
C568 H559 0.930 . S
C568 C566 1.378 . S
C568 C569 1.367 . S
C569 C568 1.367 . S
C569 C571 1.433 . S
C570 C566 1.350 . S
C570 C567 1.463 . S
C570 N574 1.427 . S
C571 H561 0.929 . S
C571 C569 1.433 . S
C571 N574 1.384 . S
C572 H563 0.929 . S
C572 C564 1.378 . S
C572 C567 1.350 . S
C573 H560 0.929 . S
C573 C565 1.433 . S
C573 N575 1.384 . S
N574 C570 1.427 . S
N574 C571 1.384 . S
N575 C567 1.427 . S
N575 C573 1.384 . S
H576 C582 0.930 . S
H577 C586 0.930 . S
H578 C591 0.929 . S
H579 C589 0.929 . S
H580 C584 0.929 . S
H581 C590 0.929 . S
C582 H576 0.930 . S
C582 C583 1.367 . S
C582 C590 1.378 . S
C583 C582 1.367 . S
C583 C591 1.433 . S
C584 H580 0.929 . S
C584 C586 1.378 1_655 S
C584 C588 1.350 . S
C585 C588 1.463 . S
C585 C590 1.350 . S
C585 N593 1.427 . S
C586 H577 0.930 . S
C586 C584 1.378 1_455 S
C586 C587 1.367 . S
C587 C586 1.367 . S
C587 C589 1.433 1_455 S
C588 C584 1.350 . S
C588 C585 1.463 . S
C588 N592 1.427 . S
C589 H579 0.929 . S
C589 C587 1.433 1_655 S
C589 N592 1.384 . S
C590 H581 0.929 . S
C590 C582 1.378 . S
C590 C585 1.350 . S
C591 H578 0.929 . S
C591 C583 1.433 . S
C591 N593 1.384 . S
N592 C588 1.427 . S
N592 C589 1.384 . S
N593 C585 1.427 . S
N593 C591 1.384 . S
H594 C600 0.930 . S
H595 C604 0.930 . S
H596 C609 0.929 . S
H597 C607 0.929 . S
H598 C602 0.929 . S
H599 C608 0.929 . S
C600 H594 0.930 . S
C600 C601 1.367 . S
C600 C608 1.378 . S
C601 C600 1.367 . S
C601 C609 1.433 . S
C602 H598 0.929 . S
C602 C604 1.378 1_565 S
C602 C606 1.350 . S
C603 C606 1.463 . S
C603 C608 1.350 . S
C603 N611 1.427 . S
C604 H595 0.930 . S
C604 C602 1.378 1_545 S
C604 C605 1.367 . S
C605 C604 1.367 . S
C605 C607 1.433 1_545 S
C606 C602 1.350 . S
C606 C603 1.463 . S
C606 N610 1.427 . S
C607 H597 0.929 . S
C607 C605 1.433 1_565 S
C607 N610 1.384 . S
C608 H599 0.929 . S
C608 C600 1.378 . S
C608 C603 1.350 . S
C609 H596 0.929 . S
C609 C601 1.433 . S
C609 N611 1.384 . S
N610 C606 1.427 . S
N610 C607 1.384 . S
N611 C603 1.427 . S
N611 C609 1.384 . S
H612 C618 0.930 . S
H613 C622 0.930 . S
H614 C627 0.929 . S
H615 C625 0.929 . S
H616 C620 0.929 . S
H617 C626 0.929 . S
C618 H612 0.930 . S
C618 C619 1.367 . S
C618 C626 1.378 . S
C619 C618 1.367 . S
C619 C627 1.433 . S
C620 H616 0.929 . S
C620 C622 1.378 . S
C620 C624 1.350 . S
C621 C624 1.463 . S
C621 C626 1.350 . S
C621 N629 1.427 . S
C622 H613 0.930 . S
C622 C620 1.378 . S
C622 C623 1.367 . S
C623 C622 1.367 . S
C623 C625 1.433 . S
C624 C620 1.350 . S
C624 C621 1.463 . S
C624 N628 1.427 . S
C625 H615 0.929 . S
C625 C623 1.433 . S
C625 N628 1.384 . S
C626 H617 0.929 . S
C626 C618 1.378 . S
C626 C621 1.350 . S
C627 H614 0.929 . S
C627 C619 1.433 . S
C627 N629 1.384 . S
N628 C624 1.427 . S
N628 C625 1.384 . S
N629 C621 1.427 . S
N629 C627 1.384 . S
H630 C636 0.930 . S
H631 C640 0.930 . S
H632 C645 0.929 . S
H633 C643 0.929 . S
H634 C638 0.929 . S
H635 C644 0.929 . S
C636 H630 0.930 . S
C636 C637 1.367 . S
C636 C644 1.378 . S
C637 C636 1.367 . S
C637 C645 1.433 . S
C638 H634 0.929 . S
C638 C640 1.378 . S
C638 C642 1.350 . S
C639 C642 1.463 . S
C639 C644 1.350 . S
C639 N647 1.427 . S
C640 H631 0.930 . S
C640 C638 1.378 . S
C640 C641 1.367 . S
C641 C640 1.367 . S
C641 C643 1.433 . S
C642 C638 1.350 . S
C642 C639 1.463 . S
C642 N646 1.427 . S
C643 H633 0.929 . S
C643 C641 1.433 . S
C643 N646 1.384 . S
C644 H635 0.929 . S
C644 C636 1.378 . S
C644 C639 1.350 . S
C645 H632 0.929 . S
C645 C637 1.433 . S
C645 N647 1.384 . S
N646 C642 1.427 . S
N646 C643 1.384 . S
N647 C639 1.427 . S
N647 C645 1.384 . S
H648 C654 0.930 . S
H649 C658 0.930 . S
H650 C663 0.929 . S
H651 C661 0.929 . S
H652 C656 0.929 . S
H653 C662 0.929 . S
C654 H648 0.930 . S
C654 C655 1.367 . S
C654 C662 1.378 . S
C655 C654 1.367 . S
C655 C663 1.433 . S
C656 H652 0.929 . S
C656 C658 1.378 . S
C656 C660 1.350 . S
C657 C660 1.463 . S
C657 C662 1.350 . S
C657 N665 1.427 . S
C658 H649 0.930 . S
C658 C656 1.378 . S
C658 C659 1.367 . S
C659 C658 1.367 . S
C659 C661 1.433 . S
C660 C656 1.350 . S
C660 C657 1.463 . S
C660 N664 1.427 . S
C661 H651 0.929 . S
C661 C659 1.433 . S
C661 N664 1.384 . S
C662 H653 0.929 . S
C662 C654 1.378 . S
C662 C657 1.350 . S
C663 H650 0.929 . S
C663 C655 1.433 . S
C663 N665 1.384 . S
N664 C660 1.427 . S
N664 C661 1.384 . S
N665 C657 1.427 . S
N665 C663 1.384 . S
H666 C672 0.930 . S
H667 C676 0.930 . S
H668 C681 0.929 . S
H669 C679 0.929 . S
H670 C674 0.929 . S
H671 C680 0.929 . S
C672 H666 0.930 . S
C672 C673 1.367 . S
C672 C680 1.378 . S
C673 C672 1.367 . S
C673 C681 1.433 . S
C674 H670 0.929 . S
C674 C676 1.378 . S
C674 C678 1.350 . S
C675 C678 1.463 . S
C675 C680 1.350 . S
C675 N683 1.427 . S
C676 H667 0.930 . S
C676 C674 1.378 . S
C676 C677 1.367 . S
C677 C676 1.367 . S
C677 C679 1.433 . S
C678 C674 1.350 . S
C678 C675 1.463 . S
C678 N682 1.427 . S
C679 H669 0.929 . S
C679 C677 1.433 . S
C679 N682 1.384 . S
C680 H671 0.929 . S
C680 C672 1.378 . S
C680 C675 1.350 . S
C681 H668 0.929 . S
C681 C673 1.433 . S
C681 N683 1.384 . S
N682 C678 1.427 . S
N682 C679 1.384 . S
N683 C675 1.427 . S
N683 C681 1.384 . S
H684 C690 0.930 . S
H685 C694 0.930 . S
H686 C699 0.929 . S
H687 C697 0.929 . S
H688 C692 0.929 . S
H689 C698 0.929 . S
C690 H684 0.930 . S
C690 C691 1.367 . S
C690 C698 1.378 . S
C691 C690 1.367 . S
C691 C699 1.433 . S
C692 H688 0.929 . S
C692 C694 1.378 . S
C692 C696 1.350 . S
C693 C696 1.463 . S
C693 C698 1.350 . S
C693 N701 1.427 . S
C694 H685 0.930 . S
C694 C692 1.378 . S
C694 C695 1.367 . S
C695 C694 1.367 . S
C695 C697 1.433 . S
C696 C692 1.350 . S
C696 C693 1.463 . S
C696 N700 1.427 . S
C697 H687 0.929 . S
C697 C695 1.433 . S
C697 N700 1.384 . S
C698 H689 0.929 . S
C698 C690 1.378 . S
C698 C693 1.350 . S
C699 H686 0.929 . S
C699 C691 1.433 . S
C699 N701 1.384 . S
N700 C696 1.427 . S
N700 C697 1.384 . S
N701 C693 1.427 . S
N701 C699 1.384 . S
H702 C708 0.930 . S
H703 C712 0.930 . S
H704 C717 0.929 . S
H705 C715 0.929 . S
H706 C710 0.929 . S
H707 C716 0.929 . S
C708 H702 0.930 . S
C708 C709 1.367 . S
C708 C716 1.378 . S
C709 C708 1.367 . S
C709 C717 1.433 . S
C710 H706 0.929 . S
C710 C712 1.378 . S
C710 C714 1.350 . S
C711 C714 1.463 . S
C711 C716 1.350 . S
C711 N719 1.427 . S
C712 H703 0.930 . S
C712 C710 1.378 . S
C712 C713 1.367 . S
C713 C712 1.367 . S
C713 C715 1.433 . S
C714 C710 1.350 . S
C714 C711 1.463 . S
C714 N718 1.427 . S
C715 H705 0.929 . S
C715 C713 1.433 . S
C715 N718 1.384 . S
C716 H707 0.929 . S
C716 C708 1.378 . S
C716 C711 1.350 . S
C717 H704 0.929 . S
C717 C709 1.433 . S
C717 N719 1.384 . S
N718 C714 1.427 . S
N718 C715 1.384 . S
N719 C711 1.427 . S
N719 C717 1.384 . S
H720 C726 0.930 . S
H721 C730 0.930 . S
H722 C735 0.929 . S
H723 C733 0.929 . S
H724 C728 0.929 . S
H725 C734 0.929 . S
C726 H720 0.930 . S
C726 C727 1.367 . S
C726 C734 1.378 . S
C727 C726 1.367 . S
C727 C735 1.433 . S
C728 H724 0.929 . S
C728 C730 1.378 . S
C728 C732 1.350 . S
C729 C732 1.463 . S
C729 C734 1.350 . S
C729 N737 1.427 . S
C730 H721 0.930 . S
C730 C728 1.378 . S
C730 C731 1.367 . S
C731 C730 1.367 . S
C731 C733 1.433 . S
C732 C728 1.350 . S
C732 C729 1.463 . S
C732 N736 1.427 . S
C733 H723 0.929 . S
C733 C731 1.433 . S
C733 N736 1.384 . S
C734 H725 0.929 . S
C734 C726 1.378 . S
C734 C729 1.350 . S
C735 H722 0.929 . S
C735 C727 1.433 . S
C735 N737 1.384 . S
N736 C732 1.427 . S
N736 C733 1.384 . S
N737 C729 1.427 . S
N737 C735 1.384 . S
H738 C744 0.930 . S
H739 C748 0.930 . S
H740 C753 0.929 . S
H741 C751 0.929 . S
H742 C746 0.929 . S
H743 C752 0.929 . S
C744 H738 0.930 . S
C744 C745 1.367 . S
C744 C752 1.378 . S
C745 C744 1.367 . S
C745 C753 1.433 . S
C746 H742 0.929 . S
C746 C748 1.378 . S
C746 C750 1.350 . S
C747 C750 1.463 1_455 S
C747 C752 1.350 . S
C747 N755 1.427 . S
C748 H739 0.930 . S
C748 C746 1.378 . S
C748 C749 1.367 . S
C749 C748 1.367 . S
C749 C751 1.433 . S
C750 C746 1.350 . S
C750 C747 1.463 1_655 S
C750 N754 1.427 . S
C751 H741 0.929 . S
C751 C749 1.433 . S
C751 N754 1.384 . S
C752 H743 0.929 . S
C752 C744 1.378 . S
C752 C747 1.350 . S
C753 H740 0.929 . S
C753 C745 1.433 . S
C753 N755 1.384 . S
N754 C750 1.427 . S
N754 C751 1.384 . S
N755 C747 1.427 . S
N755 C753 1.384 . S
H756 C762 0.930 . S
H757 C766 0.930 . S
H758 C771 0.929 . S
H759 C769 0.929 . S
H760 C764 0.929 . S
H761 C770 0.929 . S
C762 H756 0.930 . S
C762 C763 1.367 . S
C762 C770 1.378 1_565 S
C763 C762 1.367 . S
C763 C771 1.433 . S
C764 H760 0.929 . S
C764 C766 1.378 1_565 S
C764 C768 1.350 1_565 S
C765 C768 1.463 1_565 S
C765 C770 1.350 1_565 S
C765 N773 1.427 . S
C766 H757 0.930 . S
C766 C764 1.378 1_545 S
C766 C767 1.367 . S
C767 C766 1.367 . S
C767 C769 1.433 . S
C768 C764 1.350 1_545 S
C768 C765 1.463 1_545 S
C768 N772 1.427 . S
C769 H759 0.929 . S
C769 C767 1.433 . S
C769 N772 1.384 . S
C770 H761 0.929 . S
C770 C762 1.378 1_545 S
C770 C765 1.350 1_545 S
C771 H758 0.929 . S
C771 C763 1.433 . S
C771 N773 1.384 . S
N772 C768 1.427 . S
N772 C769 1.384 . S
N773 C765 1.427 . S
N773 C771 1.384 . S
H774 C780 0.930 . S
H775 C784 0.930 . S
H776 C789 0.929 . S
H777 C787 0.929 . S
H778 C782 0.929 . S
H779 C788 0.929 . S
C780 H774 0.930 . S
C780 C781 1.367 . S
C780 C788 1.378 . S
C781 C780 1.367 . S
C781 C789 1.433 . S
C782 H778 0.929 . S
C782 C784 1.378 . S
C782 C786 1.350 . S
C783 C786 1.463 . S
C783 C788 1.350 . S
C783 N791 1.427 . S
C784 H775 0.930 . S
C784 C782 1.378 . S
C784 C785 1.367 . S
C785 C784 1.367 . S
C785 C787 1.433 . S
C786 C782 1.350 . S
C786 C783 1.463 . S
C786 N790 1.427 . S
C787 H777 0.929 . S
C787 C785 1.433 . S
C787 N790 1.384 . S
C788 H779 0.929 . S
C788 C780 1.378 . S
C788 C783 1.350 . S
C789 H776 0.929 . S
C789 C781 1.433 . S
C789 N791 1.384 . S
N790 C786 1.427 . S
N790 C787 1.384 . S
N791 C783 1.427 . S
N791 C789 1.384 . S
H792 C798 0.930 . S
H793 C802 0.930 . S
H794 C807 0.929 . S
H795 C805 0.929 . S
H796 C800 0.929 . S
H797 C806 0.929 . S
C798 H792 0.930 . S
C798 C799 1.367 . S
C798 C806 1.378 . S
C799 C798 1.367 . S
C799 C807 1.433 . S
C800 H796 0.929 . S
C800 C802 1.378 . S
C800 C804 1.350 . S
C801 C804 1.463 1_455 S
C801 C806 1.350 . S
C801 N809 1.427 . S
C802 H793 0.930 . S
C802 C800 1.378 . S
C802 C803 1.367 . S
C803 C802 1.367 . S
C803 C805 1.433 . S
C804 C800 1.350 . S
C804 C801 1.463 1_655 S
C804 N808 1.427 . S
C805 H795 0.929 . S
C805 C803 1.433 . S
C805 N808 1.384 . S
C806 H797 0.929 . S
C806 C798 1.378 . S
C806 C801 1.350 . S
C807 H794 0.929 . S
C807 C799 1.433 . S
C807 N809 1.384 . S
N808 C804 1.427 . S
N808 C805 1.384 . S
N809 C801 1.427 . S
N809 C807 1.384 . S
H810 C816 0.930 . S
H811 C820 0.930 . S
H812 C825 0.929 . S
H813 C823 0.929 . S
H814 C818 0.929 . S
H815 C824 0.929 1_556 S
C816 H810 0.930 . S
C816 C817 1.367 . S
C816 C824 1.378 . S
C817 C816 1.367 . S
C817 C825 1.433 . S
C818 H814 0.929 . S
C818 C820 1.378 . S
C818 C822 1.350 . S
C819 C822 1.463 1_564 S
C819 C824 1.350 . S
C819 N827 1.427 . S
C820 H811 0.930 . S
C820 C818 1.378 . S
C820 C821 1.367 . S
C821 C820 1.367 . S
C821 C823 1.433 . S
C822 C818 1.350 . S
C822 C819 1.463 1_546 S
C822 N826 1.427 . S
C823 H813 0.929 . S
C823 C821 1.433 . S
C823 N826 1.384 . S
C824 H815 0.929 1_554 S
C824 C816 1.378 . S
C824 C819 1.350 . S
C825 H812 0.929 . S
C825 C817 1.433 . S
C825 N827 1.384 . S
N826 C822 1.427 . S
N826 C823 1.384 . S
N827 C819 1.427 . S
N827 C825 1.384 . S
H828 C834 0.930 . S
H829 C838 0.930 . S
H830 C843 0.929 . S
H831 C841 0.929 . S
H832 C836 0.929 . S
H833 C842 0.929 . S
C834 H828 0.930 . S
C834 C835 1.367 . S
C834 C842 1.378 . S
C835 C834 1.367 . S
C835 C843 1.433 . S
C836 H832 0.929 . S
C836 C838 1.378 . S
C836 C840 1.350 . S
C837 C840 1.463 . S
C837 C842 1.350 . S
C837 N845 1.427 . S
C838 H829 0.930 . S
C838 C836 1.378 . S
C838 C839 1.367 . S
C839 C838 1.367 . S
C839 C841 1.433 . S
C840 C836 1.350 . S
C840 C837 1.463 . S
C840 N844 1.427 . S
C841 H831 0.929 . S
C841 C839 1.433 . S
C841 N844 1.384 . S
C842 H833 0.929 . S
C842 C834 1.378 . S
C842 C837 1.350 . S
C843 H830 0.929 . S
C843 C835 1.433 . S
C843 N845 1.384 . S
N844 C840 1.427 . S
N844 C841 1.384 . S
N845 C837 1.427 . S
N845 C843 1.384 . S
H846 C852 0.930 . S
H847 C856 0.930 . S
H848 C861 0.929 . S
H849 C859 0.929 . S
H850 C854 0.929 . S
H851 C860 0.929 . S
C852 H846 0.930 . S
C852 C853 1.367 . S
C852 C860 1.378 . S
C853 C852 1.367 . S
C853 C861 1.433 . S
C854 H850 0.929 . S
C854 C856 1.378 . S
C854 C858 1.350 . S
C855 C858 1.463 . S
C855 C860 1.350 . S
C855 N863 1.427 . S
C856 H847 0.930 . S
C856 C854 1.378 . S
C856 C857 1.367 . S
C857 C856 1.367 . S
C857 C859 1.433 . S
C858 C854 1.350 . S
C858 C855 1.463 . S
C858 N862 1.427 . S
C859 H849 0.929 . S
C859 C857 1.433 . S
C859 N862 1.384 . S
C860 H851 0.929 . S
C860 C852 1.378 . S
C860 C855 1.350 . S
C861 H848 0.929 . S
C861 C853 1.433 . S
C861 N863 1.384 . S
N862 C858 1.427 . S
N862 C859 1.384 . S
N863 C855 1.427 . S
N863 C861 1.384 . S
H864 C870 0.930 . S
H865 C874 0.930 . S
H866 C879 0.929 . S
H867 C877 0.929 . S
H868 C872 0.929 . S
H869 C878 0.929 . S
C870 H864 0.930 . S
C870 C871 1.367 . S
C870 C878 1.378 . S
C871 C870 1.367 . S
C871 C879 1.433 . S
C872 H868 0.929 . S
C872 C874 1.378 . S
C872 C876 1.350 . S
C873 C876 1.463 . S
C873 C878 1.350 . S
C873 N881 1.427 . S
C874 H865 0.930 . S
C874 C872 1.378 . S
C874 C875 1.367 . S
C875 C874 1.367 . S
C875 C877 1.433 . S
C876 C872 1.350 . S
C876 C873 1.463 . S
C876 N880 1.427 . S
C877 H867 0.929 . S
C877 C875 1.433 . S
C877 N880 1.384 . S
C878 H869 0.929 . S
C878 C870 1.378 . S
C878 C873 1.350 . S
C879 H866 0.929 . S
C879 C871 1.433 . S
C879 N881 1.384 . S
N880 C876 1.427 . S
N880 C877 1.384 . S
N881 C873 1.427 . S
N881 C879 1.384 . S
H882 C888 0.930 . S
H883 C892 0.930 . S
H884 C897 0.929 . S
H885 C895 0.929 . S
H886 C890 0.929 . S
H887 C896 0.929 . S
C888 H882 0.930 . S
C888 C889 1.367 . S
C888 C896 1.378 . S
C889 C888 1.367 . S
C889 C897 1.433 . S
C890 H886 0.929 . S
C890 C892 1.378 . S
C890 C894 1.350 . S
C891 C894 1.463 . S
C891 C896 1.350 . S
C891 N899 1.427 . S
C892 H883 0.930 . S
C892 C890 1.378 . S
C892 C893 1.367 . S
C893 C892 1.367 . S
C893 C895 1.433 . S
C894 C890 1.350 . S
C894 C891 1.463 . S
C894 N898 1.427 . S
C895 H885 0.929 . S
C895 C893 1.433 . S
C895 N898 1.384 . S
C896 H887 0.929 . S
C896 C888 1.378 . S
C896 C891 1.350 . S
C897 H884 0.929 . S
C897 C889 1.433 . S
C897 N899 1.384 . S
N898 C894 1.427 . S
N898 C895 1.384 . S
N899 C891 1.427 . S
N899 C897 1.384 . S
H900 C906 0.930 . S
H901 C910 0.930 . S
H902 C915 0.929 . S
H903 C913 0.929 . S
H904 C908 0.929 . S
H905 C914 0.929 . S
C906 H900 0.930 . S
C906 C907 1.367 . S
C906 C914 1.378 . S
C907 C906 1.367 . S
C907 C915 1.433 . S
C908 H904 0.929 . S
C908 C910 1.378 . S
C908 C912 1.350 . S
C909 C912 1.463 . S
C909 C914 1.350 . S
C909 N917 1.427 . S
C910 H901 0.930 . S
C910 C908 1.378 . S
C910 C911 1.367 . S
C911 C910 1.367 . S
C911 C913 1.433 . S
C912 C908 1.350 . S
C912 C909 1.463 . S
C912 N916 1.427 . S
C913 H903 0.929 . S
C913 C911 1.433 . S
C913 N916 1.384 . S
C914 H905 0.929 . S
C914 C906 1.378 . S
C914 C909 1.350 . S
C915 H902 0.929 . S
C915 C907 1.433 . S
C915 N917 1.384 . S
N916 C912 1.427 . S
N916 C913 1.384 . S
N917 C909 1.427 . S
N917 C915 1.384 . S
H918 C924 0.930 . S
H919 C928 0.930 . S
H920 C933 0.929 . S
H921 C931 0.929 . S
H922 C926 0.929 . S
H923 C932 0.929 . S
C924 H918 0.930 . S
C924 C925 1.367 . S
C924 C932 1.378 . S
C925 C924 1.367 . S
C925 C933 1.433 . S
C926 H922 0.929 . S
C926 C928 1.378 . S
C926 C930 1.350 . S
C927 C930 1.463 . S
C927 C932 1.350 . S
C927 N935 1.427 . S
C928 H919 0.930 . S
C928 C926 1.378 . S
C928 C929 1.367 . S
C929 C928 1.367 . S
C929 C931 1.433 . S
C930 C926 1.350 . S
C930 C927 1.463 . S
C930 N934 1.427 . S
C931 H921 0.929 . S
C931 C929 1.433 . S
C931 N934 1.384 . S
C932 H923 0.929 . S
C932 C924 1.378 . S
C932 C927 1.350 . S
C933 H920 0.929 . S
C933 C925 1.433 . S
C933 N935 1.384 . S
N934 C930 1.427 . S
N934 C931 1.384 . S
N935 C927 1.427 . S
N935 C933 1.384 . S
C403 C172 1.458 . S
C407 N13 1.539 . S
C421 C7 1.456 . S
C425 N46 1.541 . S
C439 C40 1.457 . S
C443 N79 1.540 . S
C457 N112 1.540 . S
C461 C73 1.458 . S
C475 N145 1.543 . S
C479 C106 1.444 . S
C493 C139 1.443 . S
C497 N178 1.543 . S
C511 C238 1.449 . S
C515 N211 1.542 . S
C529 C271 1.457 . S
C533 N244 1.540 . S
C547 C304 1.447 . S
C551 N277 1.542 . S
C565 C337 1.447 . S
C569 N310 1.542 . S
C583 C370 1.443 . S
C587 N343 1.543 . S
C601 C205 1.443 . S
C605 N376 1.543 . S
C619 N266 1.267 . S
C623 N2 1.259 . S
C637 N35 1.261 . S
C641 N299 1.273 . S
C655 N68 1.266 . S
C659 N332 1.259 . S
C673 N101 1.273 . S
C677 N365 1.277 . S
C691 N134 1.263 . S
C695 N200 1.260 . S
C709 N233 1.259 . S
C713 N167 1.267 . S
C727 C318 1.167 . S
C731 C21 1.172 . S
C745 C351 1.171 . S
C749 C54 1.166 . S
C763 C87 1.172 . S
C767 C384 1.169 . S
C781 C120 1.167 . S
C785 C219 1.172 . S
C799 C153 1.167 . S
C803 C252 1.172 . S
C817 C285 1.167 . S
C821 C186 1.171 . S
C835 C18 1.056 . S
C839 C216 1.055 . S
C853 C249 1.039 . S
C857 C51 1.039 . S
C871 C84 1.041 . S
C875 C282 1.042 . S
C889 C315 1.054 . S
C893 C117 1.053 . S
C907 C348 1.052 . S
C911 C150 1.053 . S
C925 C381 1.042 . S
C929 C183 1.042 . S
