# Generated by pormake.
# Topology upa, (4)-cn, num edge types: 1
# Building blocks:
#     Node 0, Type 0, BuildingBlock: NAHDIM_clean_sbu_0, # of connection points: 4
#     Node 1, Type 0, BuildingBlock: NAHDIM_clean_sbu_0, # of connection points: 4
#     Node 2, Type 0, BuildingBlock: NAHDIM_clean_sbu_0, # of connection points: 4
#     Node 3, Type 0, BuildingBlock: NAHDIM_clean_sbu_0, # of connection points: 4
#     Node 4, Type 0, BuildingBlock: NAHDIM_clean_sbu_0, # of connection points: 4
#     Node 5, Type 0, BuildingBlock: NAHDIM_clean_sbu_0, # of connection points: 4
#     Node 6, Type 0, BuildingBlock: NAHDIM_clean_sbu_0, # of connection points: 4
#     Node 7, Type 0, BuildingBlock: NAHDIM_clean_sbu_0, # of connection points: 4
#     Edge 8, Type (0, 0), BuildingBlock: EZIPEK_clean_linker_0, # of connection points: 2
#     Edge 9, Type (0, 0), BuildingBlock: EZIPEK_clean_linker_0, # of connection points: 2
#     Edge 10, Type (0, 0), BuildingBlock: EZIPEK_clean_linker_0, # of connection points: 2
#     Edge 11, Type (0, 0), BuildingBlock: EZIPEK_clean_linker_0, # of connection points: 2
#     Edge 12, Type (0, 0), BuildingBlock: EZIPEK_clean_linker_0, # of connection points: 2
#     Edge 13, Type (0, 0), BuildingBlock: EZIPEK_clean_linker_0, # of connection points: 2
#     Edge 14, Type (0, 0), BuildingBlock: EZIPEK_clean_linker_0, # of connection points: 2
#     Edge 15, Type (0, 0), BuildingBlock: EZIPEK_clean_linker_0, # of connection points: 2
#     Edge 16, Type (0, 0), BuildingBlock: EZIPEK_clean_linker_0, # of connection points: 2
#     Edge 17, Type (0, 0), BuildingBlock: EZIPEK_clean_linker_0, # of connection points: 2
#     Edge 18, Type (0, 0), BuildingBlock: EZIPEK_clean_linker_0, # of connection points: 2
#     Edge 19, Type (0, 0), BuildingBlock: EZIPEK_clean_linker_0, # of connection points: 2
#     Edge 20, Type (0, 0), BuildingBlock: EZIPEK_clean_linker_0, # of connection points: 2
#     Edge 21, Type (0, 0), BuildingBlock: EZIPEK_clean_linker_0, # of connection points: 2
#     Edge 22, Type (0, 0), BuildingBlock: EZIPEK_clean_linker_0, # of connection points: 2
#     Edge 23, Type (0, 0), BuildingBlock: EZIPEK_clean_linker_0, # of connection points: 2
# Relax obj value: 0.275
# Max RMSD: 0.207
# Mean RMSD: 0.207
data_MOF--net-upa--node1-NAHDIM_clean_sbu_0--edge1-EZIPEK_clean_linker_0
_symmetry_space_group_name_H-M    P1
_symmetry_Int_Tables_number       1
_symmetry_cell_setting            triclinic
loop_
_symmetry_equiv_pos_as_xyz
'x, y, z'
_cell_length_a     19.571664
_cell_length_b     19.563969
_cell_length_c     30.411543
_cell_angle_alpha  90.006054
_cell_angle_beta   90.032863
_cell_angle_gamma 89.896295
loop_
_atom_site_label
_atom_site_type_symbol
_atom_site_fract_x
_atom_site_fract_y
_atom_site_fract_z
_atom_type_partial_charge
C0 C 0.32395 0.19848 0.26537 0.0
O1 O 0.27923 0.20251 0.23323 0.0
O2 O 0.14657 0.27676 0.28594 0.0
Zn3 Zn 0.20648 0.21773 0.32508 0.0
O4 O 0.20696 0.2494 0.38797 0.0
C5 C 0.09801 0.12339 0.33279 0.0
O6 O 0.06684 0.1784 0.34712 0.0
O7 O 0.30401 0.20502 0.30491 0.0
C8 C 0.23745 0.20997 0.41475 0.0
O9 O 0.26817 0.15492 0.39986 0.0
C10 C 0.09726 0.31108 0.30195 0.0
O11 O 0.09525 0.31985 0.34477 0.0
O12 O 0.16105 0.12582 0.32302 0.0
C13 C 0.2639 0.84995 0.79144 0.0
O14 O 0.22198 0.84457 0.82497 0.0
O15 O 0.19674 0.65132 0.77629 0.0
Zn16 Zn 0.27409 0.70427 0.80503 0.0
O17 O 0.26147 0.72231 0.87032 0.0
C18 C 0.35153 0.57917 0.79823 0.0
O19 O 0.29173 0.55198 0.80635 0.0
O20 O 0.29132 0.79621 0.77567 0.0
C21 C 0.27656 0.67907 0.89998 0.0
O22 O 0.29483 0.61688 0.88897 0.0
C23 C 0.15846 0.61064 0.79769 0.0
O24 O 0.16068 0.6141 0.84076 0.0
O25 O 0.35778 0.64395 0.79659 0.0
C26 C 0.67819 0.80117 0.27258 0.0
O27 O 0.66421 0.76357 0.30716 0.0
O28 O 0.88497 0.73056 0.27845 0.0
Zn29 Zn 0.81543 0.79321 0.30765 0.0
O30 O 0.77477 0.75678 0.36436 0.0
C31 C 0.92199 0.89287 0.29943 0.0
O32 O 0.93907 0.85261 0.26669 0.0
O33 O 0.7394 0.81999 0.26568 0.0
C34 C 0.81038 0.76054 0.39914 0.0
O35 O 0.87449 0.77911 0.39643 0.0
C36 C 0.92734 0.6918 0.29811 0.0
O37 O 0.91649 0.67428 0.33917 0.0
O38 O 0.8686 0.87961 0.32176 0.0
C39 C 0.72695 0.17699 0.78282 0.0
O40 O 0.77899 0.19349 0.80797 0.0
O41 O 0.73787 0.37772 0.79171 0.0
Zn42 Zn 0.67738 0.30368 0.81633 0.0
O43 O 0.69787 0.28049 0.87957 0.0
C44 C 0.56934 0.38257 0.78077 0.0
O45 O 0.60913 0.38078 0.74604 0.0
O46 O 0.6764 0.21754 0.78006 0.0
C47 C 0.67922 0.32247 0.9091 0.0
O48 O 0.65289 0.3816 0.89764 0.0
C49 C 0.78296 0.41216 0.81195 0.0
O50 O 0.80527 0.39161 0.85045 0.0
O51 O 0.58531 0.34842 0.8148 0.0
C52 C 0.8173 0.31072 0.24638 0.0
O53 O 0.77104 0.32641 0.27602 0.0
O54 O 0.64317 0.2192 0.22228 0.0
Zn55 Zn 0.70145 0.28453 0.18633 0.0
O56 O 0.70734 0.26361 0.1214 0.0
C57 C 0.59192 0.3795 0.19724 0.0
O58 O 0.55662 0.32278 0.19957 0.0
O59 O 0.79857 0.29127 0.20836 0.0
C60 C 0.65798 0.27469 0.09518 0.0
O61 O 0.59795 0.29218 0.11072 0.0
C62 C 0.59891 0.1782 0.20678 0.0
O63 O 0.5983 0.16842 0.16406 0.0
O64 O 0.65635 0.37715 0.19196 0.0
C65 C 0.18639 0.347 0.72402 0.0
O66 O 0.24611 0.34257 0.7045 0.0
O67 O 0.25632 0.15854 0.71622 0.0
Zn68 Zn 0.17318 0.20851 0.69161 0.0
O69 O 0.18608 0.23276 0.62747 0.0
C70 C 0.1101 0.08576 0.67393 0.0
O71 O 0.16854 0.07967 0.65325 0.0
O72 O 0.14729 0.29515 0.72443 0.0
C73 C 0.23551 0.21127 0.60414 0.0
O74 O 0.28483 0.17602 0.62264 0.0
C75 C 0.3085 0.12767 0.73156 0.0
O76 O 0.36659 0.16073 0.73481 0.0
O77 O 0.09662 0.14063 0.69447 0.0
C78 C 0.18113 0.71523 0.20422 0.0
O79 O 0.1714 0.74182 0.16507 0.0
O80 O 0.39238 0.78209 0.20065 0.0
Zn81 Zn 0.32282 0.71531 0.17665 0.0
O82 O 0.29177 0.73569 0.11453 0.0
C83 C 0.41852 0.61657 0.20643 0.0
O84 O 0.42328 0.66045 0.23896 0.0
O85 O 0.24148 0.7009 0.21676 0.0
C86 C 0.3312 0.72031 0.08288 0.0
O87 O 0.39308 0.698 0.09121 0.0
C88 C 0.42888 0.82348 0.17871 0.0
O89 O 0.41091 0.84036 0.13857 0.0
O90 O 0.37585 0.62715 0.17558 0.0
C91 C 0.77824 0.67303 0.72746 0.0
O92 O 0.71521 0.69563 0.72425 0.0
O93 O 0.75285 0.86165 0.70129 0.0
Zn94 Zn 0.80714 0.78668 0.67004 0.0
O95 O 0.76442 0.75417 0.61325 0.0
C96 C 0.93343 0.8542 0.68486 0.0
O97 O 0.91277 0.84709 0.72571 0.0
O98 O 0.82616 0.70514 0.70854 0.0
C99 C 0.77268 0.79186 0.57969 0.0
O100 O 0.79884 0.85305 0.58455 0.0
C101 C 0.76634 0.92334 0.69096 0.0
O102 O 0.80739 0.93546 0.6578 0.0
O103 O 0.89753 0.82795 0.65464 0.0
C104 C 0.03069 0.0242 0.36076 0.0
C105 C 0.05767 0.06117 0.32474 0.0
C106 C 0.98703 0.99527 0.27393 0.0
C107 C 0.96528 0.9532 0.30927 0.0
N108 N 0.97789 0.91975 0.38547 0.0
N109 N 0.0728 0.07283 0.2463 0.0
C110 C 0.98982 0.96568 0.3526 0.0
C111 C 0.0397 0.04359 0.28107 0.0
N112 N 0.04448 0.04466 0.40282 0.0
N113 N 0.95473 0.99188 0.23411 0.0
H114 H 0.11106 0.10935 0.24995 0.0
H115 H 0.06653 0.05634 0.21397 0.0
H116 H 0.9128 0.96033 0.22825 0.0
H117 H 0.96426 0.02592 0.2085 0.0
H118 H 0.01917 0.02524 0.43023 0.0
H119 H 0.07857 0.08393 0.41018 0.0
H120 H 0.00091 0.92239 0.4163 0.0
H121 H 0.95039 0.87513 0.38073 0.0
C122 C 0.40596 0.4818 0.75824 0.0
C123 C 0.41049 0.53329 0.79109 0.0
C124 C 0.52358 0.49129 0.81221 0.0
C125 C 0.51496 0.43472 0.78353 0.0
N126 N 0.44572 0.37146 0.73225 0.0
N127 N 0.46881 0.58102 0.85406 0.0
C128 C 0.45562 0.42876 0.75717 0.0
C129 C 0.46817 0.53679 0.81924 0.0
N130 N 0.35537 0.48491 0.72724 0.0
N131 N 0.58551 0.50296 0.83159 0.0
H132 H 0.4293 0.61525 0.86071 0.0
H133 H 0.50594 0.57976 0.87861 0.0
H134 H 0.62785 0.47148 0.82665 0.0
H135 H 0.59677 0.54739 0.84901 0.0
H136 H 0.35312 0.45269 0.70003 0.0
H137 H 0.31908 0.52402 0.72629 0.0
H138 H 0.40003 0.36055 0.71618 0.0
H139 H 0.48147 0.33194 0.73039 0.0
C140 C 0.5495 0.48879 0.16408 0.0
C141 C 0.55547 0.44509 0.20102 0.0
C142 C 0.46936 0.51165 0.24054 0.0
C143 C 0.46588 0.5577 0.20459 0.0
N144 N 0.51509 0.59978 0.13701 0.0
N145 N 0.53509 0.42425 0.27791 0.0
C146 C 0.50952 0.54909 0.16767 0.0
C147 C 0.51969 0.45947 0.24039 0.0
N148 N 0.57984 0.47165 0.12513 0.0
N149 N 0.42251 0.51547 0.27379 0.0
H150 H 0.57243 0.38611 0.27896 0.0
H151 H 0.5158 0.43737 0.3087 0.0
H152 H 0.38343 0.55175 0.27458 0.0
H153 H 0.41834 0.47865 0.29838 0.0
H154 H 0.5701 0.49715 0.09571 0.0
H155 H 0.61122 0.42896 0.12143 0.0
H156 H 0.55115 0.5993 0.11184 0.0
H157 H 0.48849 0.64571 0.1394 0.0
C158 C 0.01545 0.01566 0.64319 0.0
C159 C 0.06467 0.02611 0.67653 0.0
C160 C 0.04141 0.91266 0.70684 0.0
C161 C 0.98922 0.90376 0.67501 0.0
N162 N 0.95054 0.93329 0.60162 0.0
N163 N 0.12043 0.98976 0.74311 0.0
C164 C 0.98292 0.95117 0.63972 0.0
C165 C 0.0771 0.97572 0.70901 0.0
N166 N 0.99798 0.06829 0.61582 0.0
N167 N 0.05927 0.85881 0.73311 0.0
H168 H 0.14686 0.03584 0.7458 0.0
H169 H 0.12649 0.95834 0.77043 0.0
H170 H 0.03673 0.81076 0.72981 0.0
H171 H 0.10081 0.8591 0.75448 0.0
H172 H 0.9571 0.06616 0.59392 0.0
H173 H 0.01959 0.1168 0.61845 0.0
H174 H 0.94833 0.96476 0.57405 0.0
H175 H 0.9361 0.88343 0.59444 0.0
C176 C 0.17277 0.2077 0.48543 0.0
C177 C 0.23424 0.22189 0.46269 0.0
C178 C 0.29208 0.24348 0.53288 0.0
C179 C 0.23367 0.21887 0.55556 0.0
N180 N 0.12274 0.16445 0.5522 0.0
N181 N 0.35409 0.24989 0.46392 0.0
C182 C 0.17474 0.19825 0.53162 0.0
C183 C 0.29447 0.23887 0.4862 0.0
N184 N 0.11254 0.20203 0.46299 0.0
N185 N 0.34415 0.27341 0.55582 0.0
H186 H 0.35673 0.25114 0.42966 0.0
H187 H 0.40143 0.25414 0.47932 0.0
H188 H 0.34311 0.27958 0.58988 0.0
H189 H 0.38516 0.29801 0.54088 0.0
H190 H 0.0652 0.19906 0.47853 0.0
H191 H 0.10897 0.2067 0.42898 0.0
H192 H 0.08239 0.14155 0.53543 0.0
H193 H 0.12334 0.15229 0.58546 0.0
C194 C 0.33114 0.74798 0.96012 0.0
C195 C 0.28087 0.70003 0.94663 0.0
C196 C 0.25627 0.6719 0.02351 0.0
C197 C 0.30627 0.72014 0.03696 0.0
N198 N 0.37781 0.81625 0.01951 0.0
N199 N 0.18408 0.62966 0.96461 0.0
C200 C 0.33924 0.76223 0.00563 0.0
C201 C 0.23962 0.66635 0.97815 0.0
N202 N 0.37412 0.77665 0.92987 0.0
N203 N 0.22771 0.62853 0.05357 0.0
H204 H 0.17052 0.62505 0.93156 0.0
H205 H 0.14797 0.60946 0.98609 0.0
H206 H 0.23801 0.63082 0.08716 0.0
H207 H 0.19737 0.58697 0.04494 0.0
H208 H 0.41678 0.80551 0.93837 0.0
H209 H 0.37061 0.76754 0.89619 0.0
H210 H 0.39768 0.85304 0.99836 0.0
H211 H 0.3842 0.82805 0.0527 0.0
C212 C 0.72007 0.8028 0.50575 0.0
C213 C 0.76283 0.76536 0.53456 0.0
C214 C 0.81025 0.70302 0.47176 0.0
C215 C 0.77994 0.75144 0.44324 0.0
N216 N 0.70328 0.84692 0.43213 0.0
N217 N 0.8486 0.67776 0.54561 0.0
C218 C 0.73247 0.80008 0.45974 0.0
C219 C 0.80659 0.7134 0.51792 0.0
N220 N 0.66828 0.84153 0.52275 0.0
N221 N 0.84323 0.64769 0.45435 0.0
H222 H 0.84725 0.68262 0.57968 0.0
H223 H 0.88771 0.64586 0.5347 0.0
H224 H 0.84588 0.63932 0.42048 0.0
H225 H 0.86153 0.60713 0.47317 0.0
H226 H 0.63137 0.86566 0.50354 0.0
H227 H 0.65854 0.84375 0.55648 0.0
H228 H 0.67531 0.88891 0.44307 0.0
H229 H 0.70973 0.84609 0.39815 0.0
C230 C 0.7211 0.34311 0.98552 0.0
C231 C 0.68144 0.30335 0.95615 0.0
C232 C 0.63864 0.23515 0.01796 0.0
C233 C 0.67094 0.28082 0.04749 0.0
N234 N 0.73634 0.38374 0.06001 0.0
N235 N 0.59646 0.21584 0.9441 0.0
C236 C 0.71103 0.33594 0.03151 0.0
C237 C 0.63913 0.2499 0.97217 0.0
N238 N 0.76932 0.3869 0.9694 0.0
N239 N 0.6083 0.17725 0.03374 0.0
H240 H 0.59477 0.22509 0.91037 0.0
H241 H 0.55883 0.18205 0.95462 0.0
H242 H 0.60692 0.16531 0.06717 0.0
H243 H 0.58999 0.13828 0.01363 0.0
H244 H 0.80488 0.41192 0.98913 0.0
H245 H 0.77807 0.39322 0.93585 0.0
H246 H 0.75873 0.42929 0.0498 0.0
H247 H 0.73017 0.38096 0.094 0.0
C248 C 0.51855 0.20437 0.26941 0.0
C249 C 0.53556 0.16259 0.23295 0.0
C250 C 0.41527 0.12666 0.2289 0.0
C251 C 0.39713 0.18327 0.256 0.0
N252 N 0.43343 0.27968 0.30016 0.0
N253 N 0.50375 0.0681 0.18686 0.0
C254 C 0.44929 0.22265 0.27627 0.0
C255 C 0.48479 0.11846 0.21548 0.0
N256 N 0.56796 0.22461 0.29825 0.0
N257 N 0.3667 0.07965 0.2176 0.0
H258 H 0.55496 0.05523 0.18192 0.0
H259 H 0.46964 0.03902 0.16849 0.0
H260 H 0.31657 0.08195 0.22909 0.0
H261 H 0.37666 0.03535 0.19983 0.0
H262 H 0.55726 0.2518 0.32691 0.0
H263 H 0.61755 0.20508 0.29695 0.0
H264 H 0.47041 0.31237 0.31288 0.0
H265 H 0.38382 0.29831 0.30365 0.0
C266 C 0.30708 0.96896 0.80484 0.0
C267 C 0.28269 0.91896 0.77481 0.0
C268 C 0.29214 0.00253 0.71503 0.0
C269 C 0.30398 0.05515 0.74621 0.0
N270 N 0.31894 0.08939 0.82183 0.0
N271 N 0.24416 0.89055 0.70159 0.0
C272 C 0.31095 0.03856 0.79142 0.0
C273 C 0.27379 0.93607 0.72982 0.0
N274 N 0.32901 0.94954 0.84568 0.0
N275 N 0.3009 0.01533 0.67129 0.0
H276 H 0.22844 0.84189 0.71115 0.0
H277 H 0.22925 0.90353 0.66977 0.0
H278 H 0.31695 0.06272 0.65962 0.0
H279 H 0.29913 0.97733 0.6473 0.0
H280 H 0.35364 0.98251 0.86739 0.0
H281 H 0.32926 0.89874 0.85612 0.0
H282 H 0.31648 0.08101 0.85561 0.0
H283 H 0.32268 0.14091 0.8134 0.0
C284 C 0.61873 0.79897 0.19927 0.0
C285 C 0.62164 0.82318 0.24321 0.0
C286 C 0.50653 0.87217 0.23565 0.0
C287 C 0.49901 0.8371 0.19524 0.0
N288 N 0.5484 0.7703 0.13635 0.0
N289 N 0.57321 0.88981 0.30212 0.0
C290 C 0.55584 0.80303 0.1758 0.0
C291 C 0.56717 0.86271 0.26084 0.0
N292 N 0.67553 0.77067 0.18035 0.0
N293 N 0.45547 0.91484 0.24941 0.0
H294 H 0.61877 0.88826 0.31994 0.0
H295 H 0.53317 0.91246 0.31927 0.0
H296 H 0.41103 0.92243 0.23104 0.0
H297 H 0.45895 0.94675 0.27667 0.0
H298 H 0.67955 0.75942 0.14701 0.0
H299 H 0.72117 0.76262 0.19718 0.0
H300 H 0.58429 0.73681 0.12319 0.0
H301 H 0.50471 0.77377 0.11704 0.0
C302 C 0.73905 0.04954 0.78512 0.0
C303 C 0.7258 0.1096 0.76037 0.0
C304 C 0.71445 0.03969 0.69395 0.0
C305 C 0.74125 0.98255 0.717 0.0
N306 N 0.7864 0.93555 0.78483 0.0
N307 N 0.70761 0.16296 0.68961 0.0
C308 C 0.75471 0.98763 0.76284 0.0
C309 C 0.71435 0.10503 0.71437 0.0
N310 N 0.73509 0.05116 0.82998 0.0
N311 N 0.68859 0.03122 0.65257 0.0
H312 H 0.70925 0.21205 0.70285 0.0
H313 H 0.70669 0.16251 0.65536 0.0
H314 H 0.68645 0.98353 0.63722 0.0
H315 H 0.66278 0.06969 0.63562 0.0
H316 H 0.73777 0.00739 0.84944 0.0
H317 H 0.72151 0.09505 0.84744 0.0
H318 H 0.80497 0.94062 0.81678 0.0
H319 H 0.79919 0.88902 0.77047 0.0
C320 C 0.9893 0.37829 0.28776 0.0
C321 C 0.03304 0.32306 0.27614 0.0
C322 C 0.9357 0.26108 0.24563 0.0
C323 C 0.89149 0.31595 0.25665 0.0
N324 N 0.87976 0.43464 0.27729 0.0
N325 N 0.04999 0.23099 0.22394 0.0
C326 C 0.91927 0.37711 0.27456 0.0
C327 C 0.00723 0.27042 0.24869 0.0
N328 N 0.01512 0.43205 0.31106 0.0
N329 N 0.90988 0.19868 0.23424 0.0
H330 H 0.10181 0.24142 0.22044 0.0
H331 H 0.03196 0.19528 0.2013 0.0
H332 H 0.85771 0.18794 0.23393 0.0
H333 H 0.94077 0.15568 0.23008 0.0
H334 H 0.98494 0.46965 0.3256 0.0
H335 H 0.06744 0.4379 0.31658 0.0
H336 H 0.89842 0.4821 0.28691 0.0
H337 H 0.82943 0.43663 0.26612 0.0
C338 C 0.1417 0.42141 0.78557 0.0
C339 C 0.16188 0.41417 0.74093 0.0
C340 C 0.14457 0.53764 0.72969 0.0
C341 C 0.13618 0.54549 0.77568 0.0
N342 N 0.08655 0.4937 0.83979 0.0
N343 N 0.17214 0.46289 0.66828 0.0
C344 C 0.12196 0.4869 0.8014 0.0
C345 C 0.15942 0.4716 0.71214 0.0
N346 N 0.14559 0.36706 0.81368 0.0
N347 N 0.13433 0.59297 0.70308 0.0
H348 H 0.17656 0.41484 0.65369 0.0
H349 H 0.17934 0.50282 0.64622 0.0
H350 H 0.11675 0.63952 0.71556 0.0
H351 H 0.1362 0.59168 0.66893 0.0
H352 H 0.139 0.37165 0.84755 0.0
H353 H 0.16089 0.31835 0.80384 0.0
H354 H 0.07012 0.45226 0.85848 0.0
H355 H 0.06525 0.54034 0.84934 0.0
C356 C 0.07008 0.65412 0.21712 0.0
C357 C 0.12127 0.69984 0.23255 0.0
C358 C 0.04959 0.7304 0.29572 0.0
C359 C 0.99723 0.68677 0.27937 0.0
N360 N 0.9609 0.59801 0.23017 0.0
N361 N 0.16622 0.77119 0.2905 0.0
C362 C 0.00864 0.64571 0.24173 0.0
C363 C 0.11331 0.7341 0.27336 0.0
N364 N 0.08026 0.61931 0.17865 0.0
N365 N 0.03675 0.77212 0.33087 0.0
H366 H 0.2117 0.78032 0.27377 0.0
H367 H 0.16716 0.78956 0.32261 0.0
H368 H 0.9919 0.77017 0.34913 0.0
H369 H 0.06838 0.81211 0.3405 0.0
H370 H 0.04266 0.59137 0.16254 0.0
H371 H 0.12674 0.61953 0.16188 0.0
H372 H 0.96763 0.56181 0.20551 0.0
H373 H 0.91548 0.59147 0.24761 0.0
C374 C 0.82507 0.4877 0.75188 0.0
C375 C 0.79876 0.4815 0.79505 0.0
C376 C 0.77844 0.60537 0.79718 0.0
C377 C 0.79263 0.60883 0.75158 0.0
N378 N 0.82683 0.55298 0.68421 0.0
N379 N 0.74753 0.53437 0.8591 0.0
C380 C 0.81644 0.5502 0.72865 0.0
C381 C 0.77584 0.5405 0.81821 0.0
N382 N 0.85864 0.43361 0.73332 0.0
N383 N 0.76826 0.66434 0.82044 0.0
H384 H 0.74455 0.48842 0.87618 0.0
H385 H 0.72229 0.57413 0.87507 0.0
H386 H 0.77005 0.71264 0.80591 0.0
H387 H 0.76468 0.66599 0.85458 0.0
H388 H 0.88482 0.43659 0.70359 0.0
H389 H 0.86604 0.38753 0.74999 0.0
H390 H 0.83654 0.51004 0.66496 0.0
H391 H 0.82074 0.59748 0.66577 0.0
loop_
_geom_bond_atom_site_label_1
_geom_bond_atom_site_label_2
_geom_bond_distance
_geom_bond_site_symmetry_2
_ccdc_geom_bond_type
C0 O1 1.160 . S
C0 O7 1.185 . S
O1 C0 1.160 . S
O2 Zn3 1.899 . S
O2 C10 1.284 . S
Zn3 O2 1.899 . S
Zn3 O4 2.032 . S
Zn3 O7 2.086 . S
Zn3 O12 1.977 . S
O4 Zn3 2.032 . S
O4 C8 1.278 . S
C5 O6 1.203 . S
C5 O12 1.267 . S
O6 C5 1.203 . S
O7 C0 1.185 . S
O7 Zn3 2.086 . S
C8 O4 1.278 . S
C8 O9 1.211 . S
O9 C8 1.211 . S
C10 O2 1.284 . S
C10 O11 1.273 . S
O11 C10 1.273 . S
O12 Zn3 1.977 . S
O12 C5 1.267 . S
C13 O14 1.160 . S
C13 O20 1.185 . S
O14 C13 1.160 . S
O15 Zn16 1.899 . S
O15 C23 1.284 . S
Zn16 O15 1.899 . S
Zn16 O17 2.032 . S
Zn16 O20 2.086 . S
Zn16 O25 1.977 . S
O17 Zn16 2.032 . S
O17 C21 1.278 . S
C18 O19 1.203 . S
C18 O25 1.267 . S
O19 C18 1.203 . S
O20 C13 1.185 . S
O20 Zn16 2.086 . S
C21 O17 1.278 . S
C21 O22 1.211 . S
O22 C21 1.211 . S
C23 O15 1.284 . S
C23 O24 1.273 . S
O24 C23 1.273 . S
O25 Zn16 1.977 . S
O25 C18 1.267 . S
C26 O27 1.160 . S
C26 O33 1.185 . S
O27 C26 1.160 . S
O28 Zn29 1.899 . S
O28 C36 1.284 . S
Zn29 O28 1.899 . S
Zn29 O30 2.032 . S
Zn29 O33 2.086 . S
Zn29 O38 1.977 . S
O30 Zn29 2.032 . S
O30 C34 1.278 . S
C31 O32 1.203 . S
C31 O38 1.267 . S
O32 C31 1.203 . S
O33 C26 1.185 . S
O33 Zn29 2.086 . S
C34 O30 1.278 . S
C34 O35 1.211 . S
O35 C34 1.211 . S
C36 O28 1.284 . S
C36 O37 1.273 . S
O37 C36 1.273 . S
O38 Zn29 1.977 . S
O38 C31 1.267 . S
C39 O40 1.160 . S
C39 O46 1.185 . S
O40 C39 1.160 . S
O41 Zn42 1.899 . S
O41 C49 1.284 . S
Zn42 O41 1.899 . S
Zn42 O43 2.032 . S
Zn42 O46 2.086 . S
Zn42 O51 1.977 . S
O43 Zn42 2.032 . S
O43 C47 1.278 . S
C44 O45 1.203 . S
C44 O51 1.267 . S
O45 C44 1.203 . S
O46 C39 1.185 . S
O46 Zn42 2.086 . S
C47 O43 1.278 . S
C47 O48 1.211 . S
O48 C47 1.211 . S
C49 O41 1.284 . S
C49 O50 1.273 . S
O50 C49 1.273 . S
O51 Zn42 1.977 . S
O51 C44 1.267 . S
C52 O53 1.160 . S
C52 O59 1.185 . S
O53 C52 1.160 . S
O54 Zn55 1.899 . S
O54 C62 1.284 . S
Zn55 O54 1.899 . S
Zn55 O56 2.032 . S
Zn55 O59 2.086 . S
Zn55 O64 1.977 . S
O56 Zn55 2.032 . S
O56 C60 1.278 . S
C57 O58 1.203 . S
C57 O64 1.267 . S
O58 C57 1.203 . S
O59 C52 1.185 . S
O59 Zn55 2.086 . S
C60 O56 1.278 . S
C60 O61 1.211 . S
O61 C60 1.211 . S
C62 O54 1.284 . S
C62 O63 1.273 . S
O63 C62 1.273 . S
O64 Zn55 1.977 . S
O64 C57 1.267 . S
C65 O66 1.160 . S
C65 O72 1.185 . S
O66 C65 1.160 . S
O67 Zn68 1.899 . S
O67 C75 1.284 . S
Zn68 O67 1.899 . S
Zn68 O69 2.032 . S
Zn68 O72 2.086 . S
Zn68 O77 1.977 . S
O69 Zn68 2.032 . S
O69 C73 1.278 . S
C70 O71 1.203 . S
C70 O77 1.267 . S
O71 C70 1.203 . S
O72 C65 1.185 . S
O72 Zn68 2.086 . S
C73 O69 1.278 . S
C73 O74 1.211 . S
O74 C73 1.211 . S
C75 O67 1.284 . S
C75 O76 1.273 . S
O76 C75 1.273 . S
O77 Zn68 1.977 . S
O77 C70 1.267 . S
C78 O79 1.160 . S
C78 O85 1.185 . S
O79 C78 1.160 . S
O80 Zn81 1.899 . S
O80 C88 1.284 . S
Zn81 O80 1.899 . S
Zn81 O82 2.032 . S
Zn81 O85 2.086 . S
Zn81 O90 1.977 . S
O82 Zn81 2.032 . S
O82 C86 1.278 . S
C83 O84 1.203 . S
C83 O90 1.267 . S
O84 C83 1.203 . S
O85 C78 1.185 . S
O85 Zn81 2.086 . S
C86 O82 1.278 . S
C86 O87 1.211 . S
O87 C86 1.211 . S
C88 O80 1.284 . S
C88 O89 1.273 . S
O89 C88 1.273 . S
O90 Zn81 1.977 . S
O90 C83 1.267 . S
C91 O92 1.160 . S
C91 O98 1.185 . S
O92 C91 1.160 . S
O93 Zn94 1.899 . S
O93 C101 1.284 . S
Zn94 O93 1.899 . S
Zn94 O95 2.032 . S
Zn94 O98 2.086 . S
Zn94 O103 1.977 . S
O95 Zn94 2.032 . S
O95 C99 1.278 . S
C96 O97 1.203 . S
C96 O103 1.267 . S
O97 C96 1.203 . S
O98 C91 1.185 . S
O98 Zn94 2.086 . S
C99 O95 1.278 . S
C99 O100 1.211 . S
O100 C99 1.211 . S
C101 O93 1.284 . S
C101 O102 1.273 . S
O102 C101 1.273 . S
O103 Zn94 1.977 . S
O103 C96 1.267 . S
C104 C105 1.363 1_565 S
C104 C110 1.379 1_455 S
C104 N112 1.356 . S
C105 C104 1.363 1_545 S
C105 C111 1.363 . S
C106 C107 1.363 1_545 S
C106 C111 1.379 1_655 S
C106 N113 1.356 . S
C107 C106 1.363 1_565 S
C107 C110 1.363 . S
N108 C110 1.356 . S
N108 H120 0.984 . S
N108 H121 0.985 . S
N109 C111 1.356 . S
N109 H114 0.984 . S
N109 H115 0.985 . S
C110 C104 1.379 1_655 S
C110 C107 1.363 . S
C110 N108 1.356 . S
C111 C105 1.363 . S
C111 C106 1.379 1_455 S
C111 N109 1.356 . S
N112 C104 1.356 . S
N112 H118 0.984 . S
N112 H119 0.984 1_565 S
N113 C106 1.356 . S
N113 H116 0.984 1_545 S
N113 H117 0.985 . S
H114 N109 0.984 . S
H115 N109 0.985 . S
H116 N113 0.984 1_565 S
H117 N113 0.985 . S
H118 N112 0.984 . S
H119 N112 0.984 1_545 S
H120 N108 0.984 . S
H121 N108 0.985 . S
C122 C123 1.363 . S
C122 C128 1.379 . S
C122 N130 1.356 . S
C123 C122 1.363 . S
C123 C129 1.363 . S
C124 C125 1.363 . S
C124 C129 1.379 . S
C124 N131 1.356 . S
C125 C124 1.363 . S
C125 C128 1.363 . S
N126 C128 1.356 . S
N126 H138 0.984 . S
N126 H139 0.985 . S
N127 C129 1.356 . S
N127 H132 0.984 . S
N127 H133 0.985 . S
C128 C122 1.379 . S
C128 C125 1.363 . S
C128 N126 1.356 . S
C129 C123 1.363 . S
C129 C124 1.379 . S
C129 N127 1.356 . S
N130 C122 1.356 . S
N130 H136 0.984 . S
N130 H137 0.984 . S
N131 C124 1.356 . S
N131 H134 0.984 . S
N131 H135 0.985 . S
H132 N127 0.984 . S
H133 N127 0.985 . S
H134 N131 0.984 . S
H135 N131 0.985 . S
H136 N130 0.984 . S
H137 N130 0.984 . S
H138 N126 0.984 . S
H139 N126 0.985 . S
C140 C141 1.363 . S
C140 C146 1.379 . S
C140 N148 1.356 . S
C141 C140 1.363 . S
C141 C147 1.363 . S
C142 C143 1.363 . S
C142 C147 1.379 . S
C142 N149 1.356 . S
C143 C142 1.363 . S
C143 C146 1.363 . S
N144 C146 1.356 . S
N144 H156 0.984 . S
N144 H157 0.985 . S
N145 C147 1.356 . S
N145 H150 0.984 . S
N145 H151 0.985 . S
C146 C140 1.379 . S
C146 C143 1.363 . S
C146 N144 1.356 . S
C147 C141 1.363 . S
C147 C142 1.379 . S
C147 N145 1.356 . S
N148 C140 1.356 . S
N148 H154 0.984 . S
N148 H155 0.984 . S
N149 C142 1.356 . S
N149 H152 0.984 . S
N149 H153 0.985 . S
H150 N145 0.984 . S
H151 N145 0.985 . S
H152 N149 0.984 . S
H153 N149 0.985 . S
H154 N148 0.984 . S
H155 N148 0.984 . S
H156 N144 0.984 . S
H157 N144 0.985 . S
C158 C159 1.363 1_655 S
C158 C164 1.379 1_545 S
C158 N166 1.356 . S
C159 C158 1.363 1_455 S
C159 C165 1.363 . S
C160 C161 1.363 1_455 S
C160 C165 1.379 1_565 S
C160 N167 1.356 . S
C161 C160 1.363 1_655 S
C161 C164 1.363 . S
N162 C164 1.356 . S
N162 H174 0.984 . S
N162 H175 0.985 . S
N163 C165 1.356 . S
N163 H168 0.984 . S
N163 H169 0.985 . S
C164 C158 1.379 1_565 S
C164 C161 1.363 . S
C164 N162 1.356 . S
C165 C159 1.363 . S
C165 C160 1.379 1_545 S
C165 N163 1.356 . S
N166 C158 1.356 . S
N166 H172 0.984 . S
N166 H173 0.984 1_655 S
N167 C160 1.356 . S
N167 H170 0.984 1_455 S
N167 H171 0.985 . S
H168 N163 0.984 . S
H169 N163 0.985 . S
H170 N167 0.984 1_655 S
H171 N167 0.985 . S
H172 N166 0.984 . S
H173 N166 0.984 1_455 S
H174 N162 0.984 . S
H175 N162 0.985 . S
C176 C177 1.363 . S
C176 C182 1.379 . S
C176 N184 1.356 . S
C177 C176 1.363 . S
C177 C183 1.363 . S
C178 C179 1.363 . S
C178 C183 1.379 . S
C178 N185 1.356 . S
C179 C178 1.363 . S
C179 C182 1.363 . S
N180 C182 1.356 . S
N180 H192 0.984 . S
N180 H193 0.985 . S
N181 C183 1.356 . S
N181 H186 0.984 . S
N181 H187 0.985 . S
C182 C176 1.379 . S
C182 C179 1.363 . S
C182 N180 1.356 . S
C183 C177 1.363 . S
C183 C178 1.379 . S
C183 N181 1.356 . S
N184 C176 1.356 . S
N184 H190 0.984 . S
N184 H191 0.984 . S
N185 C178 1.356 . S
N185 H188 0.984 . S
N185 H189 0.985 . S
H186 N181 0.984 . S
H187 N181 0.985 . S
H188 N185 0.984 . S
H189 N185 0.985 . S
H190 N184 0.984 . S
H191 N184 0.984 . S
H192 N180 0.984 . S
H193 N180 0.985 . S
C194 C195 1.363 . S
C194 C200 1.379 1_556 S
C194 N202 1.356 . S
C195 C194 1.363 . S
C195 C201 1.363 . S
C196 C197 1.363 . S
C196 C201 1.379 1_554 S
C196 N203 1.356 . S
C197 C196 1.363 . S
C197 C200 1.363 . S
N198 C200 1.356 . S
N198 H210 0.984 1_554 S
N198 H211 0.985 . S
N199 C201 1.356 . S
N199 H204 0.984 . S
N199 H205 0.985 1_556 S
C200 C194 1.379 1_554 S
C200 C197 1.363 . S
C200 N198 1.356 . S
C201 C195 1.363 . S
C201 C196 1.379 1_556 S
C201 N199 1.356 . S
N202 C194 1.356 . S
N202 H208 0.984 . S
N202 H209 0.984 . S
N203 C196 1.356 . S
N203 H206 0.984 . S
N203 H207 0.985 . S
H204 N199 0.984 . S
H205 N199 0.985 1_554 S
H206 N203 0.984 . S
H207 N203 0.985 . S
H208 N202 0.984 . S
H209 N202 0.984 . S
H210 N198 0.984 1_556 S
H211 N198 0.985 . S
C212 C213 1.363 . S
C212 C218 1.379 . S
C212 N220 1.356 . S
C213 C212 1.363 . S
C213 C219 1.363 . S
C214 C215 1.363 . S
C214 C219 1.379 . S
C214 N221 1.356 . S
C215 C214 1.363 . S
C215 C218 1.363 . S
N216 C218 1.356 . S
N216 H228 0.984 . S
N216 H229 0.985 . S
N217 C219 1.356 . S
N217 H222 0.984 . S
N217 H223 0.985 . S
C218 C212 1.379 . S
C218 C215 1.363 . S
C218 N216 1.356 . S
C219 C213 1.363 . S
C219 C214 1.379 . S
C219 N217 1.356 . S
N220 C212 1.356 . S
N220 H226 0.984 . S
N220 H227 0.984 . S
N221 C214 1.356 . S
N221 H224 0.984 . S
N221 H225 0.985 . S
H222 N217 0.984 . S
H223 N217 0.985 . S
H224 N221 0.984 . S
H225 N221 0.985 . S
H226 N220 0.984 . S
H227 N220 0.984 . S
H228 N216 0.984 . S
H229 N216 0.985 . S
C230 C231 1.363 . S
C230 C236 1.379 1_556 S
C230 N238 1.356 . S
C231 C230 1.363 . S
C231 C237 1.363 . S
C232 C233 1.363 . S
C232 C237 1.379 1_554 S
C232 N239 1.356 . S
C233 C232 1.363 . S
C233 C236 1.363 . S
N234 C236 1.356 . S
N234 H246 0.984 . S
N234 H247 0.985 . S
N235 C237 1.356 . S
N235 H240 0.984 . S
N235 H241 0.985 . S
C236 C230 1.379 1_554 S
C236 C233 1.363 . S
C236 N234 1.356 . S
C237 C231 1.363 . S
C237 C232 1.379 1_556 S
C237 N235 1.356 . S
N238 C230 1.356 . S
N238 H244 0.984 1_556 S
N238 H245 0.984 . S
N239 C232 1.356 . S
N239 H242 0.984 . S
N239 H243 0.985 1_554 S
H240 N235 0.984 . S
H241 N235 0.985 . S
H242 N239 0.984 . S
H243 N239 0.985 1_556 S
H244 N238 0.984 1_554 S
H245 N238 0.984 . S
H246 N234 0.984 . S
H247 N234 0.985 . S
C248 C249 1.363 . S
C248 C254 1.379 . S
C248 N256 1.356 . S
C249 C248 1.363 . S
C249 C255 1.363 . S
C250 C251 1.363 . S
C250 C255 1.379 . S
C250 N257 1.356 . S
C251 C250 1.363 . S
C251 C254 1.363 . S
N252 C254 1.356 . S
N252 H264 0.984 . S
N252 H265 0.985 . S
N253 C255 1.356 . S
N253 H258 0.984 . S
N253 H259 0.985 . S
C254 C248 1.379 . S
C254 C251 1.363 . S
C254 N252 1.356 . S
C255 C249 1.363 . S
C255 C250 1.379 . S
C255 N253 1.356 . S
N256 C248 1.356 . S
N256 H262 0.984 . S
N256 H263 0.984 . S
N257 C250 1.356 . S
N257 H260 0.984 . S
N257 H261 0.985 . S
H258 N253 0.984 . S
H259 N253 0.985 . S
H260 N257 0.984 . S
H261 N257 0.985 . S
H262 N256 0.984 . S
H263 N256 0.984 . S
H264 N252 0.984 . S
H265 N252 0.985 . S
C266 C267 1.363 . S
C266 C272 1.379 . S
C266 N274 1.356 . S
C267 C266 1.363 . S
C267 C273 1.363 . S
C268 C269 1.363 . S
C268 C273 1.379 . S
C268 N275 1.356 . S
C269 C268 1.363 . S
C269 C272 1.363 . S
N270 C272 1.356 1_545 S
N270 H282 0.984 . S
N270 H283 0.985 . S
N271 C273 1.356 . S
N271 H276 0.984 . S
N271 H277 0.985 . S
C272 C266 1.379 . S
C272 C269 1.363 . S
C272 N270 1.356 1_565 S
C273 C267 1.363 . S
C273 C268 1.379 . S
C273 N271 1.356 . S
N274 C266 1.356 . S
N274 H280 0.984 . S
N274 H281 0.984 . S
N275 C268 1.356 . S
N275 H278 0.984 . S
N275 H279 0.985 . S
H276 N271 0.984 . S
H277 N271 0.985 . S
H278 N275 0.984 . S
H279 N275 0.985 . S
H280 N274 0.984 . S
H281 N274 0.984 . S
H282 N270 0.984 . S
H283 N270 0.985 . S
C284 C285 1.363 . S
C284 C290 1.379 . S
C284 N292 1.356 . S
C285 C284 1.363 . S
C285 C291 1.363 . S
C286 C287 1.363 . S
C286 C291 1.379 . S
C286 N293 1.356 . S
C287 C286 1.363 . S
C287 C290 1.363 . S
N288 C290 1.356 . S
N288 H300 0.984 . S
N288 H301 0.985 . S
N289 C291 1.356 . S
N289 H294 0.984 . S
N289 H295 0.985 . S
C290 C284 1.379 . S
C290 C287 1.363 . S
C290 N288 1.356 . S
C291 C285 1.363 . S
C291 C286 1.379 . S
C291 N289 1.356 . S
N292 C284 1.356 . S
N292 H298 0.984 . S
N292 H299 0.984 . S
N293 C286 1.356 . S
N293 H296 0.984 . S
N293 H297 0.985 . S
H294 N289 0.984 . S
H295 N289 0.985 . S
H296 N293 0.984 . S
H297 N293 0.985 . S
H298 N292 0.984 . S
H299 N292 0.984 . S
H300 N288 0.984 . S
H301 N288 0.985 . S
C302 C303 1.363 . S
C302 C308 1.379 . S
C302 N310 1.356 . S
C303 C302 1.363 . S
C303 C309 1.363 . S
C304 C305 1.363 . S
C304 C309 1.379 . S
C304 N311 1.356 . S
C305 C304 1.363 . S
C305 C308 1.363 . S
N306 C308 1.356 1_565 S
N306 H318 0.984 . S
N306 H319 0.985 . S
N307 C309 1.356 . S
N307 H312 0.984 . S
N307 H313 0.985 . S
C308 C302 1.379 . S
C308 C305 1.363 . S
C308 N306 1.356 1_545 S
C309 C303 1.363 . S
C309 C304 1.379 . S
C309 N307 1.356 . S
N310 C302 1.356 . S
N310 H316 0.984 . S
N310 H317 0.984 . S
N311 C304 1.356 . S
N311 H314 0.984 . S
N311 H315 0.985 . S
H312 N307 0.984 . S
H313 N307 0.985 . S
H314 N311 0.984 . S
H315 N311 0.985 . S
H316 N310 0.984 . S
H317 N310 0.984 . S
H318 N306 0.984 . S
H319 N306 0.985 . S
C320 C321 1.363 . S
C320 C326 1.379 . S
C320 N328 1.356 . S
C321 C320 1.363 . S
C321 C327 1.363 . S
C322 C323 1.363 . S
C322 C327 1.379 . S
C322 N329 1.356 . S
C323 C322 1.363 . S
C323 C326 1.363 . S
N324 C326 1.356 . S
N324 H336 0.984 . S
N324 H337 0.985 . S
N325 C327 1.347 1_455 S
N325 H330 0.993 . S
N325 H331 0.986 . S
C326 C320 1.379 . S
C326 C323 1.363 . S
C326 N324 1.356 . S
C327 C321 1.363 . S
C327 C322 1.379 . S
C327 N325 1.347 1_655 S
N328 C320 1.356 . S
N328 H334 0.984 . S
N328 H335 0.984 . S
N329 C322 1.356 . S
N329 H332 0.984 . S
N329 H333 0.985 . S
H330 N325 0.993 . S
H331 N325 0.986 . S
H332 N329 0.984 . S
H333 N329 0.985 . S
H334 N328 0.984 . S
H335 N328 0.984 . S
H336 N324 0.984 . S
H337 N324 0.985 . S
C338 C339 1.363 . S
C338 C344 1.379 . S
C338 N346 1.356 . S
C339 C338 1.363 . S
C339 C345 1.363 . S
C340 C341 1.363 . S
C340 C345 1.379 . S
C340 N347 1.356 . S
C341 C340 1.363 . S
C341 C344 1.363 . S
N342 C344 1.356 . S
N342 H354 0.984 . S
N342 H355 0.985 . S
N343 C345 1.356 . S
N343 H348 0.984 . S
N343 H349 0.985 . S
C344 C338 1.379 . S
C344 C341 1.363 . S
C344 N342 1.356 . S
C345 C339 1.363 . S
C345 C340 1.379 . S
C345 N343 1.356 . S
N346 C338 1.356 . S
N346 H352 0.984 . S
N346 H353 0.984 . S
N347 C340 1.356 . S
N347 H350 0.984 . S
N347 H351 0.985 . S
H348 N343 0.984 . S
H349 N343 0.985 . S
H350 N347 0.984 . S
H351 N347 0.985 . S
H352 N346 0.984 . S
H353 N346 0.984 . S
H354 N342 0.984 . S
H355 N342 0.985 . S
C356 C357 1.363 . S
C356 C362 1.379 . S
C356 N364 1.356 . S
C357 C356 1.363 . S
C357 C363 1.363 . S
C358 C359 1.363 . S
C358 C363 1.379 . S
C358 N365 1.356 . S
C359 C358 1.363 . S
C359 C362 1.363 . S
N360 C362 1.356 . S
N360 H372 0.984 . S
N360 H373 0.985 1_455 S
N361 C363 1.356 . S
N361 H366 0.984 . S
N361 H367 0.985 . S
C362 C356 1.379 . S
C362 C359 1.363 . S
C362 N360 1.356 . S
C363 C357 1.363 . S
C363 C358 1.379 . S
C363 N361 1.356 . S
N364 C356 1.356 . S
N364 H370 0.984 . S
N364 H371 0.984 . S
N365 C358 1.356 . S
N365 H368 0.984 . S
N365 H369 0.985 . S
H366 N361 0.984 . S
H367 N361 0.985 . S
H368 N365 0.984 . S
H369 N365 0.985 . S
H370 N364 0.984 . S
H371 N364 0.984 . S
H372 N360 0.984 . S
H373 N360 0.985 1_655 S
C374 C375 1.363 . S
C374 C380 1.379 . S
C374 N382 1.356 . S
C375 C374 1.363 . S
C375 C381 1.363 . S
C376 C377 1.363 . S
C376 C381 1.379 . S
C376 N383 1.356 . S
C377 C376 1.363 . S
C377 C380 1.363 . S
N378 C380 1.356 . S
N378 H390 0.984 . S
N378 H391 0.985 . S
N379 C381 1.356 . S
N379 H384 0.984 . S
N379 H385 0.985 . S
C380 C374 1.379 . S
C380 C377 1.363 . S
C380 N378 1.356 . S
C381 C375 1.363 . S
C381 C376 1.379 . S
C381 N379 1.356 . S
N382 C374 1.356 . S
N382 H388 0.984 . S
N382 H389 0.984 . S
N383 C376 1.356 . S
N383 H386 0.984 . S
N383 H387 0.985 . S
H384 N379 0.984 . S
H385 N379 0.985 . S
H386 N383 0.984 . S
H387 N383 0.985 . S
H388 N382 0.984 . S
H389 N382 0.984 . S
H390 N378 0.984 . S
H391 N378 0.985 . S
C105 C5 0.761 . S
C107 C31 0.761 . S
C123 C18 0.761 . S
C125 C44 0.761 . S
C141 C57 0.761 . S
C143 C83 0.761 . S
C159 C70 0.761 . S
C161 C96 0.761 . S
C177 C8 1.458 . S
C179 C73 1.458 . S
C195 C21 1.458 . S
C197 C86 1.458 . S
C213 C99 1.458 . S
C215 C34 1.458 . S
C231 C47 1.458 . S
C233 C60 1.458 . S
C249 C62 1.582 . S
C251 C0 1.657 . S
C267 C13 1.657 . S
C269 C75 1.582 1_565 S
C285 C26 1.657 . S
C287 C88 1.582 . S
C303 C39 1.657 . S
C305 C101 1.582 1_545 S
C321 C10 1.582 1_655 S
C323 C52 1.657 . S
C339 C65 1.657 . S
C341 C23 1.582 . S
C357 C78 1.657 . S
C359 C36 1.582 1_455 S
C375 C49 1.582 . S
C377 C91 1.657 . S
