# Generated by pormake.
# Topology ilc, (8)-cn, num edge types: 1
# Building blocks:
#     Node 0, Type 0, BuildingBlock: HISSIN_clean_sbu_1, # of connection points: 8
#     Node 1, Type 0, BuildingBlock: HISSIN_clean_sbu_1, # of connection points: 8
#     Node 2, Type 0, BuildingBlock: HISSIN_clean_sbu_1, # of connection points: 8
#     Edge 3, Type (0, 0), BuildingBlock: KIFKEQ_clean_linker_1, # of connection points: 2
#     Edge 4, Type (0, 0), BuildingBlock: KIFKEQ_clean_linker_1, # of connection points: 2
#     Edge 5, Type (0, 0), BuildingBlock: KIFKEQ_clean_linker_1, # of connection points: 2
#     Edge 6, Type (0, 0), BuildingBlock: KIFKEQ_clean_linker_1, # of connection points: 2
#     Edge 7, Type (0, 0), BuildingBlock: KIFKEQ_clean_linker_1, # of connection points: 2
#     Edge 8, Type (0, 0), BuildingBlock: KIFKEQ_clean_linker_1, # of connection points: 2
#     Edge 9, Type (0, 0), BuildingBlock: KIFKEQ_clean_linker_1, # of connection points: 2
#     Edge 10, Type (0, 0), BuildingBlock: KIFKEQ_clean_linker_1, # of connection points: 2
#     Edge 11, Type (0, 0), BuildingBlock: KIFKEQ_clean_linker_1, # of connection points: 2
#     Edge 12, Type (0, 0), BuildingBlock: KIFKEQ_clean_linker_1, # of connection points: 2
#     Edge 13, Type (0, 0), BuildingBlock: KIFKEQ_clean_linker_1, # of connection points: 2
#     Edge 14, Type (0, 0), BuildingBlock: KIFKEQ_clean_linker_1, # of connection points: 2
# Relax obj value: 0.164
# Max RMSD: 0.202
# Mean RMSD: 0.202
data_MOF--net-ilc--node1-HISSIN_clean_sbu_1--edge1-KIFKEQ_clean_linker_1
_symmetry_space_group_name_H-M    P1
_symmetry_Int_Tables_number       1
_symmetry_cell_setting            triclinic
loop_
_symmetry_equiv_pos_as_xyz
'x, y, z'
_cell_length_a     22.684427
_cell_length_b     31.267704
_cell_length_c     19.590013
_cell_angle_alpha  101.0093
_cell_angle_beta   75.266582
_cell_angle_gamma 143.02437
loop_
_atom_site_label
_atom_site_type_symbol
_atom_site_fract_x
_atom_site_fract_y
_atom_site_fract_z
_atom_type_partial_charge
Eu0 Eu 0.89141 0.93429 0.91891 0.0
C1 C 0.12519 0.07179 0.92335 0.0
O2 O 0.86751 0.8648 0.8313 0.0
C3 C 0.22655 0.06964 0.18699 0.0
C4 C 0.29834 0.10858 0.31175 0.0
C5 C 0.26172 0.1278 0.22524 0.0
C6 C 0.29479 0.14625 0.28898 0.0
C7 C 0.22765 1.03084 0.21164 0.0
C8 C 0.26264 0.04988 0.2749 0.0
Eu9 Eu 0.1058 0.07081 0.08951 0.0
O10 O 0.80567 0.88686 0.02986 0.0
O11 O 0.12295 0.14209 0.16814 0.0
O12 O 0.17249 0.11397 0.97645 0.0
O13 O 0.95754 0.97943 0.05387 0.0
C14 C 0.16871 0.20228 0.14788 0.0
O15 O 0.20234 0.2198 0.0804 0.0
O16 O 0.08264 1.0023 0.14346 0.0
C17 C 0.1775 0.04515 0.1269 0.0
C18 C 0.90431 0.84695 0.82975 0.0
O19 O 0.95198 0.86879 0.88038 0.0
O20 O 0.22787 0.0951 0.08052 0.0
O21 O 1.04476 1.0027 0.93515 0.0
C22 C 0.87946 1.00436 0.88802 0.0
O23 O 0.95829 1.03467 0.90685 0.0
C24 C 0.89638 0.04251 0.83508 0.0
C25 C 0.94461 0.13345 0.7527 0.0
C26 C 0.98052 0.08478 0.7809 0.0
C27 C 1.00513 0.13042 0.73781 0.0
C28 C 0.83148 0.04119 0.84275 0.0
C29 C 0.85551 0.08641 0.80079 0.0
C30 C 0.86218 0.92487 0.07879 0.0
O31 O 0.80609 0.93458 0.88641 0.0
H32 H 0.32081 0.12083 0.36194 0.0
H33 H 0.25689 0.15571 0.20776 0.0
H34 H 0.19634 0.98394 0.18409 0.0
H35 H 0.96378 0.17124 0.72572 0.0
H36 H 1.02537 0.08121 0.77325 0.0
H37 H 0.76458 1.00689 0.88229 0.0
Eu38 Eu 0.6232 0.28122 0.28396 0.0
C39 C 0.84711 0.41847 0.22382 0.0
O40 O 0.57079 0.19401 0.21076 0.0
C41 C 0.85794 0.38559 0.5038 0.0
C42 C 0.88059 0.37977 0.6344 0.0
C43 C 0.89201 0.43725 0.55512 0.0
C44 C 0.90489 0.43496 0.61992 0.0
C45 C 0.83249 0.32959 0.51971 0.0
C46 C 0.8439 0.32682 0.58547 0.0
Eu47 Eu 0.7926 0.42331 0.38721 0.0
O48 O 0.55732 0.2425 0.39709 0.0
O49 O 0.8395 0.51031 0.45699 0.0
O50 O 0.84981 0.45566 0.27155 0.0
O51 O 0.63342 0.34967 0.43677 0.0
C52 C 0.82495 0.54152 0.44648 0.0
O53 O 0.78835 0.52545 0.39059 0.0
O54 O 0.76429 0.34289 0.41574 0.0
C55 C 0.85291 0.39207 0.43315 0.0
C56 C 0.56506 0.1512 0.22493 0.0
O57 O 0.58048 0.15406 0.28684 0.0
O58 O 0.91128 0.45651 0.41413 0.0
O59 O 0.78086 0.35089 0.23617 0.0
C60 C 0.58078 0.32984 0.24977 0.0
O61 O 0.65005 0.36558 0.28732 0.0
C62 C 0.60866 0.36933 0.19134 0.0
C63 C 0.6602 0.44462 0.08159 0.0
C64 C 0.69818 0.41038 0.14297 0.0
C65 C 0.72488 0.44897 0.08803 0.0
C66 C 0.54451 0.36548 0.18358 0.0
C67 C 0.57052 0.403 0.12816 0.0
C68 C 0.56423 0.28093 0.44644 0.0
O69 O 0.52915 0.2647 0.2366 0.0
H70 H 0.88788 0.37683 0.68545 0.0
H71 H 0.9099 0.47977 0.54454 0.0
H72 H 0.80596 0.28948 0.48095 0.0
H73 H 0.67721 0.47143 0.03777 0.0
H74 H 0.7461 0.41172 0.14777 0.0
H75 H 0.47481 0.33318 0.21987 0.0
Eu76 Eu 0.32977 0.65405 0.58102 0.0
C77 C 0.56407 0.7875 0.59635 0.0
O78 O 0.28776 0.57506 0.49878 0.0
C79 C 0.45773 0.6384 0.84399 0.0
C80 C 0.34635 0.5409 0.95467 0.0
C81 C 0.38812 0.62499 0.89475 0.0
C82 C 0.3333 0.57716 0.95117 0.0
C83 C 0.47281 0.60348 0.8494 0.0
C84 C 0.41595 0.5539 0.90478 0.0
Eu85 Eu 0.52403 0.77136 0.75114 0.0
O86 O 0.25059 0.60069 0.68914 0.0
O87 O 0.5455 0.83949 0.83914 0.0
O88 O 0.62033 0.82676 0.64506 0.0
O89 O 0.37273 0.70835 0.73809 0.0
C90 C 0.52519 0.86783 0.83293 0.0
O91 O 0.49595 0.85697 0.77484 0.0
O92 O 0.46092 0.67061 0.74323 0.0
C93 C 0.5146 0.6896 0.78628 0.0
C94 C 0.29423 0.53861 0.50916 0.0
O95 O 0.32319 0.54915 0.56727 0.0
O96 O 0.58117 0.7568 0.8039 0.0
O97 O 0.47129 0.72637 0.62008 0.0
C98 C 0.29969 0.71524 0.5621 0.0
O99 O 0.37992 0.73763 0.53071 0.0
C100 C 0.24906 0.70807 0.51752 0.0
C101 C 0.13931 0.68629 0.44006 0.0
C102 C 0.20284 0.65671 0.46503 0.0
C103 C 0.15139 0.64767 0.42323 0.0
C104 C 0.24891 0.75365 0.52591 0.0
C105 C 0.19466 0.74322 0.48628 0.0
C106 C 0.29131 0.63862 0.74549 0.0
O107 O 0.24014 0.66202 0.60695 0.0
H108 H 0.30824 0.50657 0.99991 0.0
H109 H 0.37921 0.65366 0.89121 0.0
H110 H 0.5287 0.61522 0.81149 0.0
H111 H 0.09622 0.67809 0.41098 0.0
H112 H 0.21273 0.62732 0.45477 0.0
H113 H 0.29183 0.79748 0.56203 0.0
H114 H 1.03641 0.19149 0.62306 0.0
H115 H 0.16631 0.16392 0.7038 0.0
H116 H 0.15283 0.24154 0.51704 0.0
H117 H 0.27272 0.20403 0.59071 0.0
H118 H 0.42829 0.24396 0.38036 0.0
H119 H 0.39485 0.27696 0.49186 0.0
H120 H 0.13769 0.17787 0.42565 0.0
H121 H 0.17175 0.14649 0.31642 0.0
C122 C 0.08973 0.19647 0.62046 0.0
C123 C 0.08762 0.17076 0.67451 0.0
C124 C 0.15646 0.22458 0.55733 0.0
C125 C 0.2193 0.22388 0.54352 0.0
C126 C 0.22452 0.20465 0.59888 0.0
C127 C 0.16069 0.1795 0.66382 0.0
C128 C 0.36702 0.23189 0.38901 0.0
C129 C 0.30115 0.19088 0.34043 0.0
C130 C 0.34734 0.25028 0.45308 0.0
C131 C 0.2615 0.22795 0.46928 0.0
C132 C 0.20463 0.1963 0.41596 0.0
C133 C 0.22443 0.17819 0.35228 0.0
H134 H 0.81604 0.46253 0.68126 0.0
H135 H 0.05909 0.51714 0.68875 0.0
H136 H 0.82248 0.50332 0.80222 0.0
H137 H 0.06571 0.55887 0.80954 0.0
H138 H 0.85556 0.57808 0.02578 0.0
H139 H 0.94537 0.61205 0.90437 0.0
H140 H 0.88373 0.44061 0.89955 0.0
H141 H 0.78827 0.40344 0.01883 0.0
C142 C 0.8744 0.48697 0.70729 0.0
C143 C 0.93587 0.48559 0.67658 0.0
C144 C 0.87807 0.51024 0.77646 0.0
C145 C 0.94339 0.53239 0.81505 0.0
C146 C 1.01411 0.5406 0.78067 0.0
C147 C 1.01056 0.51735 0.71175 0.0
C148 C 0.86378 0.54893 0.99951 0.0
C149 C 0.81182 0.48648 0.03079 0.0
C150 C 0.91543 0.56868 0.93028 0.0
C151 C 0.9197 0.5282 0.89278 0.0
C152 C 0.88103 0.47253 0.92772 0.0
C153 C 0.82672 0.45141 0.9962 0.0
H154 H 0.15736 0.45951 0.03274 0.0
H155 H 0.37836 0.6854 1.00966 0.0
H156 H 0.08194 0.45884 0.14711 0.0
H157 H 0.30047 0.68378 0.12078 0.0
H158 H 0.14799 0.67782 0.30195 0.0
H159 H 0.15749 0.64284 0.18481 0.0
H160 H 0.12929 0.50638 0.26345 0.0
H161 H 0.11091 0.53662 0.38369 0.0
C162 C 0.18878 0.50869 0.05138 0.0
C163 C 0.27426 0.57263 1.01215 0.0
C164 C 0.14552 0.50818 0.11674 0.0
C165 C 0.18462 0.57097 0.14264 0.0
C166 C 0.26672 0.63393 0.10157 0.0
C167 C 0.3114 0.63487 0.0374 0.0
C168 C 0.13834 0.63751 0.29628 0.0
C169 C 0.13077 0.61158 0.35394 0.0
C170 C 0.1456 0.61832 0.2279 0.0
C171 C 0.14747 0.57381 0.21473 0.0
C172 C 0.12913 0.54154 0.27197 0.0
C173 C 0.12049 0.56007 0.34102 0.0
H174 H 0.05713 0.7303 0.51252 0.0
H175 H 0.3679 0.87755 0.43559 0.0
H176 H 0.0743 0.80666 0.46331 0.0
H177 H 0.3858 0.95417 0.38575 0.0
H178 H 0.32942 1.00409 0.22022 0.0
H179 H 0.31855 0.93636 0.2827 0.0
H180 H 0.15822 0.92676 0.46985 0.0
H181 H 0.16857 0.99353 0.40763 0.0
C182 C 0.12979 0.78041 0.48748 0.0
C183 C 0.2113 0.79858 0.47872 0.0
C184 C 0.13967 0.82385 0.45868 0.0
C185 C 0.23111 0.88578 0.41958 0.0
C186 C 0.31414 0.90619 0.41467 0.0
C187 C 0.30442 0.86316 0.44439 0.0
C188 C 0.29137 0.9869 0.27445 0.0
C189 C 0.25024 1.00418 0.30918 0.0
C190 C 0.28611 0.949 0.31048 0.0
C191 C 0.23839 0.92696 0.38145 0.0
C192 C 0.19533 0.94292 0.41533 0.0
C193 C 0.20146 0.98124 0.37971 0.0
H194 H 0.23775 0.50583 0.38093 0.0
H195 H 0.30154 0.45679 0.51735 0.0
H196 H 0.20465 0.42357 0.29385 0.0
H197 H 0.27058 0.37608 0.4302 0.0
H198 H 0.11195 0.1834 0.29145 0.0
H199 H 0.13918 0.2631 0.37812 0.0
H200 H 0.28889 0.41066 0.21052 0.0
H201 H 0.25927 0.32994 0.12379 0.0
C202 C 0.24484 0.47763 0.39234 0.0
C203 C 0.27231 0.48798 0.45618 0.0
C204 C 0.22649 0.43078 0.34222 0.0
C205 C 0.23496 0.39307 0.35484 0.0
C206 C 0.26194 0.40332 0.41894 0.0
C207 C 0.28032 0.45007 0.46887 0.0
C208 C 0.15068 0.23282 0.27303 0.0
C209 C 0.18403 0.25042 0.2006 0.0
C210 C 0.16673 0.27878 0.32284 0.0
C211 C 0.21642 0.34355 0.30151 0.0
C212 C 0.24921 0.36089 0.22893 0.0
C213 C 0.23305 0.31485 0.17914 0.0
H214 H 0.48702 0.70291 0.48268 0.0
H215 H 0.73035 0.92264 0.54076 0.0
H216 H 0.55918 0.7372 0.35877 0.0
H217 H 0.80083 0.95839 0.41627 0.0
H218 H 0.95924 0.9945 0.1929 0.0
H219 H 0.88605 0.96208 0.31728 0.0
H220 H 0.5922 0.78773 0.2613 0.0
H221 H 0.66621 0.81695 0.13731 0.0
C222 C 0.5547 0.75886 0.46865 0.0
C223 C 0.60262 0.81005 0.52124 0.0
C224 C 0.5964 0.77884 0.39734 0.0
C225 C 0.68647 0.85089 0.37659 0.0
C226 C 0.73273 0.90231 0.42968 0.0
C227 C 0.69181 0.88201 0.50117 0.0
C228 C 0.87926 0.94839 0.20719 0.0
C229 C 0.81895 0.90724 0.15499 0.0
C230 C 0.83676 0.93038 0.27886 0.0
C231 C 0.73254 0.87168 0.30022 0.0
C232 C 0.67252 0.832 0.24758 0.0
C233 C 0.71511 0.84915 0.1761 0.0
H234 H 0.97503 0.34479 0.60727 0.0
H235 H 0.66098 0.18605 0.61709 0.0
H236 H 0.93867 0.26681 0.67658 0.0
H237 H 0.62407 0.10648 0.68615 0.0
H238 H 0.70895 1.00264 0.72394 0.0
H239 H 0.68115 0.04848 0.66892 0.0
H240 H 0.83835 0.22143 0.81471 0.0
H241 H 0.86538 0.17531 0.86974 0.0
C242 C 0.89824 0.29204 0.62223 0.0
C243 C 0.82086 0.27101 0.60624 0.0
C244 C 0.87733 0.24796 0.66287 0.0
C245 C 0.77854 0.18157 0.68819 0.0
C246 C 0.70076 0.15783 0.66781 0.0
C247 C 0.72184 0.2027 0.62751 0.0
C248 C 0.73103 0.04742 0.74749 0.0
C249 C 0.78959 0.08567 0.8009 0.0
C250 C 0.71632 0.0742 0.71531 0.0
C251 C 0.76006 0.13941 0.73646 0.0
C252 C 0.80496 0.17141 0.79699 0.0
C253 C 0.81898 0.14438 0.82935 0.0
H254 H 0.83034 0.63062 0.43456 0.0
H255 H 0.85729 0.56119 0.5806 0.0
H256 H 0.8527 0.70669 0.52483 0.0
H257 H 0.87618 0.63504 0.67135 0.0
H258 H 1.00131 0.82382 0.79975 0.0
H259 H 0.9874 0.75441 0.70523 0.0
H260 H 0.7704 0.70244 0.63388 0.0
H261 H 0.78704 0.77426 0.72758 0.0
C262 C 0.84074 0.63143 0.48599 0.0
C263 C 0.84218 0.58988 0.50024 0.0
C264 C 0.85284 0.67468 0.538 0.0
C265 C 0.866 0.6771 0.60573 0.0
C266 C 0.86782 0.63562 0.61965 0.0
C267 C 0.85649 0.59286 0.56757 0.0
C268 C 0.95056 0.79764 0.76394 0.0
C269 C 0.89499 0.80444 0.77149 0.0
C270 C 0.94217 0.7574 0.70979 0.0
C271 C 0.87722 0.72215 0.6619 0.0
C272 C 0.82212 0.72944 0.66911 0.0
C273 C 0.83114 0.77029 0.72313 0.0
H274 H 0.59869 0.34396 0.57299 0.0
H275 H 0.37112 0.14368 0.47177 0.0
H276 H 0.4864 0.29223 0.68492 0.0
H277 H 0.2543 0.09251 0.58277 0.0
H278 H 0.10519 1.00015 0.807 0.0
H279 H 0.20612 0.04877 0.69095 0.0
H280 H 0.35552 0.25467 0.75608 0.0
H281 H 0.2587 0.20613 0.87446 0.0
C282 C 0.52358 0.28889 0.57463 0.0
C283 C 0.49349 0.24781 0.51372 0.0
C284 C 0.45832 0.25918 0.63893 0.0
C285 C 0.35992 0.18792 0.64384 0.0
C286 C 0.32969 0.14703 0.58216 0.0
C287 C 0.39629 0.17641 0.51807 0.0
C288 C 0.15867 0.05559 0.79623 0.0
C289 C 0.17472 0.09953 0.84997 0.0
C290 C 0.21681 0.08373 0.72913 0.0
C291 C 0.29108 0.15637 0.71342 0.0
C292 C 0.3022 0.19918 0.76636 0.0
C293 C 0.24566 0.17128 0.83413 0.0
H294 H 0.57157 0.49003 0.1791 0.0
H295 H 0.43762 0.31548 0.03906 0.0
H296 H 0.52885 0.52126 0.11635 0.0
H297 H 0.39561 0.34687 0.97542 0.0
H298 H 0.28474 0.41349 0.91947 0.0
H299 H 0.30184 0.36394 0.98229 0.0
H300 H 0.60701 0.57418 0.99193 0.0
H301 H 0.58947 0.62349 0.9294 0.0
C302 C 0.52849 0.45629 0.13713 0.0
C303 C 0.50665 0.4 0.11422 0.0
C304 C 0.50627 0.47509 0.10012 0.0
C305 C 0.46198 0.43784 0.03967 0.0
C306 C 0.43063 0.37686 0.02143 0.0
C307 C 0.45308 0.35816 0.05846 0.0
C308 C 0.35644 0.44848 0.93281 0.0
C309 C 0.43608 0.52214 0.91941 0.0
C310 C 0.36585 0.42031 0.96934 0.0
C311 C 0.45479 0.46556 0.99359 0.0
C312 C 0.53678 0.53842 0.97528 0.0
C313 C 0.5276 0.56647 0.93822 0.0
H314 H 0.58895 0.90554 0.95896 0.0
H315 H 0.47416 0.92329 0.83809 0.0
H316 H 0.59788 0.97334 0.05326 0.0
H317 H 0.47777 0.98732 0.9332 0.0
H318 H 0.58678 0.16149 0.08324 0.0
H319 H 0.58037 0.09506 0.98969 0.0
H320 H 0.50524 0.97039 0.14554 0.0
H321 H 0.5171 0.03998 0.23908 0.0
C322 C 0.5651 0.92356 0.95266 0.0
C323 C 0.53119 0.90912 0.89079 0.0
C324 C 0.56928 0.96195 1.0071 0.0
C325 C 0.53836 0.98607 1.00147 0.0
C326 C 0.50405 0.9711 0.93945 0.0
C327 C 0.50115 0.93365 0.88483 0.0
C328 C 0.56826 0.11959 0.09765 0.0
C329 C 0.55244 0.10608 0.16872 0.0
C330 C 0.5641 0.08106 0.0438 0.0
C331 C 0.54221 1.0269 0.05947 0.0
C332 C 0.52429 1.01246 0.13094 0.0
C333 C 0.5301 0.05192 0.1848 0.0
H334 H 0.32036 0.70555 0.87035 0.0
H335 H 0.12826 0.49712 0.78157 0.0
H336 H 0.21361 0.65197 0.98446 0.0
H337 H 1.01732 0.44288 0.89467 0.0
H338 H 0.87546 0.36142 0.12126 0.0
H339 H 0.98279 0.41274 1.00717 0.0
H340 H 0.06778 0.59653 0.051 0.0
H341 H 0.96281 0.54575 0.16656 0.0
C342 C 0.25536 0.64811 0.8753 0.0
C343 C 0.23289 0.60564 0.81676 0.0
C344 C 0.19269 0.6171 0.9408 0.0
C345 C 0.10512 0.54265 0.9496 0.0
C346 C 0.08448 0.50025 0.89114 0.0
C347 C 0.14805 0.53135 0.82581 0.0
C348 C 0.91731 0.4129 0.10661 0.0
C349 C 0.91234 0.45021 0.15378 0.0
C350 C 0.97838 0.44224 0.04037 0.0
C351 C 1.03615 0.50976 0.01923 0.0
C352 C 1.02806 0.54582 0.06582 0.0
C353 C 0.96717 0.51648 0.13222 0.0
loop_
_geom_bond_atom_site_label_1
_geom_bond_atom_site_label_2
_geom_bond_distance
_geom_bond_site_symmetry_2
_ccdc_geom_bond_type
Eu0 O2 2.323 . S
Eu0 O10 2.328 1_556 S
Eu0 O21 2.316 1_655 S
Eu0 C22 2.837 . S
Eu0 O23 2.488 . S
Eu0 O31 2.461 . S
C1 O12 1.251 . S
C1 O21 1.237 1_545 S
O2 Eu0 2.323 . S
O2 C18 1.279 . S
C3 C5 1.383 . S
C3 C7 1.388 1_545 S
C3 C17 1.491 . S
C4 C6 1.403 . S
C4 C8 1.385 . S
C4 H32 0.931 . S
C5 C3 1.383 . S
C5 C6 1.393 1_545 S
C5 H33 0.930 . S
C6 C4 1.403 . S
C6 C5 1.393 1_565 S
C7 C3 1.388 1_565 S
C7 C8 1.394 . S
C7 H34 0.930 . S
C8 C4 1.385 . S
C8 C7 1.394 . S
Eu9 O11 2.323 . S
Eu9 O12 2.328 1_554 S
Eu9 O13 2.316 1_455 S
Eu9 O16 2.488 . S
Eu9 C17 2.837 . S
Eu9 O20 2.461 . S
O10 Eu0 2.328 1_554 S
O10 C30 1.251 . S
O11 Eu9 2.323 . S
O11 C14 1.279 . S
O12 C1 1.251 . S
O12 Eu9 2.328 1_556 S
O13 Eu9 2.316 1_655 S
O13 C30 1.237 1_545 S
C14 O11 1.279 . S
C14 O15 1.244 . S
O15 C14 1.244 . S
O16 Eu9 2.488 . S
O16 C17 1.271 . S
C17 C3 1.491 . S
C17 Eu9 2.837 . S
C17 O16 1.271 . S
C17 O20 1.261 . S
C18 O2 1.279 . S
C18 O19 1.244 . S
O19 C18 1.244 . S
O20 Eu9 2.461 . S
O20 C17 1.261 . S
O21 Eu0 2.316 1_455 S
O21 C1 1.237 1_565 S
C22 Eu0 2.837 . S
C22 O23 1.271 . S
C22 C24 1.491 . S
C22 O31 1.261 . S
O23 Eu0 2.488 . S
O23 C22 1.271 . S
C24 C22 1.491 . S
C24 C26 1.383 . S
C24 C28 1.388 1_565 S
C25 C27 1.403 . S
C25 C29 1.385 . S
C25 H35 0.931 . S
C26 C24 1.383 . S
C26 C27 1.393 1_565 S
C26 H36 0.930 . S
C27 C25 1.403 . S
C27 C26 1.393 1_545 S
C28 C24 1.388 1_545 S
C28 C29 1.394 . S
C28 H37 0.930 . S
C29 C25 1.385 . S
C29 C28 1.394 . S
C30 O10 1.251 . S
C30 O13 1.237 1_565 S
O31 Eu0 2.461 . S
O31 C22 1.261 . S
H32 C4 0.931 . S
H33 C5 0.930 . S
H34 C7 0.930 . S
H35 C25 0.931 . S
H36 C26 0.930 . S
H37 C28 0.930 . S
Eu38 O40 2.323 . S
Eu38 O48 2.328 . S
Eu38 O59 2.316 . S
Eu38 C60 2.837 . S
Eu38 O61 2.488 . S
Eu38 O69 2.461 . S
C39 O50 1.251 . S
C39 O59 1.237 . S
O40 Eu38 2.323 . S
O40 C56 1.279 . S
C41 C43 1.383 . S
C41 C45 1.388 . S
C41 C55 1.491 . S
C42 C44 1.403 . S
C42 C46 1.385 . S
C42 H70 0.931 . S
C43 C41 1.383 . S
C43 C44 1.393 . S
C43 H71 0.930 . S
C44 C42 1.403 . S
C44 C43 1.393 . S
C45 C41 1.388 . S
C45 C46 1.394 . S
C45 H72 0.930 . S
C46 C42 1.385 . S
C46 C45 1.394 . S
Eu47 O49 2.323 . S
Eu47 O50 2.328 . S
Eu47 O51 2.316 . S
Eu47 O54 2.488 . S
Eu47 C55 2.837 . S
Eu47 O58 2.461 . S
O48 Eu38 2.328 . S
O48 C68 1.251 . S
O49 Eu47 2.323 . S
O49 C52 1.279 . S
O50 C39 1.251 . S
O50 Eu47 2.328 . S
O51 Eu47 2.316 . S
O51 C68 1.237 . S
C52 O49 1.279 . S
C52 O53 1.244 . S
O53 C52 1.244 . S
O54 Eu47 2.488 . S
O54 C55 1.271 . S
C55 C41 1.491 . S
C55 Eu47 2.837 . S
C55 O54 1.271 . S
C55 O58 1.261 . S
C56 O40 1.279 . S
C56 O57 1.244 . S
O57 C56 1.244 . S
O58 Eu47 2.461 . S
O58 C55 1.261 . S
O59 Eu38 2.316 . S
O59 C39 1.237 . S
C60 Eu38 2.837 . S
C60 O61 1.271 . S
C60 C62 1.491 . S
C60 O69 1.261 . S
O61 Eu38 2.488 . S
O61 C60 1.271 . S
C62 C60 1.491 . S
C62 C64 1.383 . S
C62 C66 1.388 . S
C63 C65 1.403 . S
C63 C67 1.385 . S
C63 H73 0.931 . S
C64 C62 1.383 . S
C64 C65 1.393 . S
C64 H74 0.930 . S
C65 C63 1.403 . S
C65 C64 1.393 . S
C66 C62 1.388 . S
C66 C67 1.394 . S
C66 H75 0.930 . S
C67 C63 1.385 . S
C67 C66 1.394 . S
C68 O48 1.251 . S
C68 O51 1.237 . S
O69 Eu38 2.461 . S
O69 C60 1.261 . S
H70 C42 0.931 . S
H71 C43 0.930 . S
H72 C45 0.930 . S
H73 C63 0.931 . S
H74 C64 0.930 . S
H75 C66 0.930 . S
Eu76 O78 2.323 . S
Eu76 O86 2.328 . S
Eu76 O97 2.316 . S
Eu76 C98 2.837 . S
Eu76 O99 2.488 . S
Eu76 O107 2.461 . S
C77 O88 1.251 . S
C77 O97 1.237 . S
O78 Eu76 2.323 . S
O78 C94 1.279 . S
C79 C81 1.383 . S
C79 C83 1.388 . S
C79 C93 1.491 . S
C80 C82 1.403 . S
C80 C84 1.385 . S
C80 H108 0.931 . S
C81 C79 1.383 . S
C81 C82 1.393 . S
C81 H109 0.930 . S
C82 C80 1.403 . S
C82 C81 1.393 . S
C83 C79 1.388 . S
C83 C84 1.394 . S
C83 H110 0.930 . S
C84 C80 1.385 . S
C84 C83 1.394 . S
Eu85 O87 2.323 . S
Eu85 O88 2.328 . S
Eu85 O89 2.316 . S
Eu85 O92 2.488 . S
Eu85 C93 2.837 . S
Eu85 O96 2.461 . S
O86 Eu76 2.328 . S
O86 C106 1.251 . S
O87 Eu85 2.323 . S
O87 C90 1.279 . S
O88 C77 1.251 . S
O88 Eu85 2.328 . S
O89 Eu85 2.316 . S
O89 C106 1.237 . S
C90 O87 1.279 . S
C90 O91 1.244 . S
O91 C90 1.244 . S
O92 Eu85 2.488 . S
O92 C93 1.271 . S
C93 C79 1.491 . S
C93 Eu85 2.837 . S
C93 O92 1.271 . S
C93 O96 1.261 . S
C94 O78 1.279 . S
C94 O95 1.244 . S
O95 C94 1.244 . S
O96 Eu85 2.461 . S
O96 C93 1.261 . S
O97 Eu76 2.316 . S
O97 C77 1.237 . S
C98 Eu76 2.837 . S
C98 O99 1.271 . S
C98 C100 1.491 . S
C98 O107 1.261 . S
O99 Eu76 2.488 . S
O99 C98 1.271 . S
C100 C98 1.491 . S
C100 C102 1.383 . S
C100 C104 1.388 . S
C101 C103 1.403 . S
C101 C105 1.385 . S
C101 H111 0.931 . S
C102 C100 1.383 . S
C102 C103 1.393 . S
C102 H112 0.930 . S
C103 C101 1.403 . S
C103 C102 1.393 . S
C104 C100 1.388 . S
C104 C105 1.394 . S
C104 H113 0.930 . S
C105 C101 1.385 . S
C105 C104 1.394 . S
C106 O86 1.251 . S
C106 O89 1.237 . S
O107 Eu76 2.461 . S
O107 C98 1.261 . S
H108 C80 0.931 . S
H109 C81 0.930 . S
H110 C83 0.930 . S
H111 C101 0.931 . S
H112 C102 0.930 . S
H113 C104 0.930 . S
H114 C122 0.950 . S
H115 C127 0.950 . S
H116 C124 0.950 . S
H117 C126 0.950 1_455 S
H118 C128 0.950 . S
H119 C130 0.950 . S
H120 C132 0.950 1_655 S
H121 C133 0.950 . S
C122 H114 0.950 . S
C122 C123 1.386 . S
C122 C124 1.391 . S
C123 C122 1.386 . S
C123 C127 1.393 1_545 S
C124 H116 0.950 . S
C124 C122 1.391 . S
C124 C125 1.400 . S
C125 C124 1.400 . S
C125 C126 1.398 1_545 S
C125 C131 1.491 1_645 S
C126 H117 0.950 1_655 S
C126 C125 1.398 1_565 S
C126 C127 1.391 . S
C127 H115 0.950 . S
C127 C123 1.393 1_565 S
C127 C126 1.391 . S
C128 H118 0.950 . S
C128 C129 1.386 . S
C128 C130 1.391 . S
C129 C128 1.386 . S
C129 C133 1.393 1_565 S
C130 H119 0.950 . S
C130 C128 1.391 . S
C130 C131 1.400 . S
C131 C125 1.491 1_465 S
C131 C130 1.400 . S
C131 C132 1.398 1_565 S
C132 H120 0.950 1_455 S
C132 C131 1.398 1_545 S
C132 C133 1.391 . S
C133 H121 0.950 . S
C133 C129 1.393 1_545 S
C133 C132 1.391 . S
H134 C142 0.950 . S
H135 C147 0.950 . S
H136 C144 0.950 . S
H137 C146 0.950 . S
H138 C148 0.950 1_554 S
H139 C150 0.950 . S
H140 C152 0.950 . S
H141 C153 0.950 . S
C142 H134 0.950 . S
C142 C143 1.386 . S
C142 C144 1.391 . S
C143 C142 1.386 . S
C143 C147 1.393 . S
C144 H136 0.950 . S
C144 C142 1.391 . S
C144 C145 1.400 . S
C145 C144 1.400 . S
C145 C146 1.398 . S
C145 C151 1.491 . S
C146 H137 0.950 . S
C146 C145 1.398 . S
C146 C147 1.391 . S
C147 H135 0.950 . S
C147 C143 1.393 . S
C147 C146 1.391 . S
C148 H138 0.950 1_556 S
C148 C149 1.386 1_556 S
C148 C150 1.391 . S
C149 C148 1.386 1_554 S
C149 C153 1.393 1_554 S
C150 H139 0.950 . S
C150 C148 1.391 . S
C150 C151 1.400 . S
C151 C145 1.491 . S
C151 C150 1.400 . S
C151 C152 1.398 . S
C152 H140 0.950 . S
C152 C151 1.398 . S
C152 C153 1.391 . S
C153 H141 0.950 . S
C153 C149 1.393 1_556 S
C153 C152 1.391 . S
H154 C162 0.950 . S
H155 C167 0.950 1_556 S
H156 C164 0.950 . S
H157 C166 0.950 . S
H158 C168 0.950 . S
H159 C170 0.950 . S
H160 C172 0.950 . S
H161 C173 0.950 . S
C162 H154 0.950 . S
C162 C163 1.386 . S
C162 C164 1.391 . S
C163 C162 1.386 . S
C163 C167 1.393 . S
C164 H156 0.950 . S
C164 C162 1.391 . S
C164 C165 1.400 . S
C165 C164 1.400 . S
C165 C166 1.398 . S
C165 C171 1.491 . S
C166 H157 0.950 . S
C166 C165 1.398 . S
C166 C167 1.391 . S
C167 H155 0.950 1_554 S
C167 C163 1.393 . S
C167 C166 1.391 . S
C168 H158 0.950 . S
C168 C169 1.386 . S
C168 C170 1.391 . S
C169 C168 1.386 . S
C169 C173 1.393 . S
C170 H159 0.950 . S
C170 C168 1.391 . S
C170 C171 1.400 . S
C171 C165 1.491 . S
C171 C170 1.400 . S
C171 C172 1.398 . S
C172 H160 0.950 . S
C172 C171 1.398 . S
C172 C173 1.391 . S
C173 H161 0.950 . S
C173 C169 1.393 . S
C173 C172 1.391 . S
H174 C182 0.950 . S
H175 C187 0.950 . S
H176 C184 0.950 . S
H177 C186 0.950 . S
H178 C188 0.950 . S
H179 C190 0.950 . S
H180 C192 0.950 . S
H181 C193 0.950 . S
C182 H174 0.950 . S
C182 C183 1.386 . S
C182 C184 1.391 . S
C183 C182 1.386 . S
C183 C187 1.393 . S
C184 H176 0.950 . S
C184 C182 1.391 . S
C184 C185 1.400 . S
C185 C184 1.400 . S
C185 C186 1.398 . S
C185 C191 1.491 . S
C186 H177 0.950 . S
C186 C185 1.398 . S
C186 C187 1.391 . S
C187 H175 0.950 . S
C187 C183 1.393 . S
C187 C186 1.391 . S
C188 H178 0.950 . S
C188 C189 1.386 . S
C188 C190 1.391 . S
C189 C188 1.386 . S
C189 C193 1.393 . S
C190 H179 0.950 . S
C190 C188 1.391 . S
C190 C191 1.400 . S
C191 C185 1.491 . S
C191 C190 1.400 . S
C191 C192 1.398 . S
C192 H180 0.950 . S
C192 C191 1.398 . S
C192 C193 1.391 . S
C193 H181 0.950 . S
C193 C189 1.393 . S
C193 C192 1.391 . S
H194 C202 0.950 . S
H195 C207 0.950 . S
H196 C204 0.950 . S
H197 C206 0.950 . S
H198 C208 0.950 . S
H199 C210 0.950 . S
H200 C212 0.950 . S
H201 C213 0.950 1_655 S
C202 H194 0.950 . S
C202 C203 1.386 . S
C202 C204 1.391 . S
C203 C202 1.386 . S
C203 C207 1.393 . S
C204 H196 0.950 . S
C204 C202 1.391 . S
C204 C205 1.400 . S
C205 C204 1.400 . S
C205 C206 1.398 . S
C205 C211 1.491 . S
C206 H197 0.950 . S
C206 C205 1.398 . S
C206 C207 1.391 . S
C207 H195 0.950 . S
C207 C203 1.393 . S
C207 C206 1.391 . S
C208 H198 0.950 . S
C208 C209 1.386 . S
C208 C210 1.391 . S
C209 C208 1.386 . S
C209 C213 1.393 . S
C210 H199 0.950 . S
C210 C208 1.391 . S
C210 C211 1.400 . S
C211 C205 1.491 . S
C211 C210 1.400 . S
C211 C212 1.398 . S
C212 H200 0.950 . S
C212 C211 1.398 . S
C212 C213 1.391 . S
C213 H201 0.950 1_455 S
C213 C209 1.393 . S
C213 C212 1.391 . S
H214 C222 0.950 . S
H215 C227 0.950 . S
H216 C224 0.950 . S
H217 C226 0.950 . S
H218 C228 0.950 . S
H219 C230 0.950 . S
H220 C232 0.950 . S
H221 C233 0.950 . S
C222 H214 0.950 . S
C222 C223 1.386 . S
C222 C224 1.391 . S
C223 C222 1.386 . S
C223 C227 1.393 . S
C224 H216 0.950 . S
C224 C222 1.391 . S
C224 C225 1.400 . S
C225 C224 1.400 . S
C225 C226 1.398 . S
C225 C231 1.491 . S
C226 H217 0.950 . S
C226 C225 1.398 . S
C226 C227 1.391 . S
C227 H215 0.950 . S
C227 C223 1.393 . S
C227 C226 1.391 . S
C228 H218 0.950 . S
C228 C229 1.386 . S
C228 C230 1.391 . S
C229 C228 1.386 . S
C229 C233 1.393 . S
C230 H219 0.950 . S
C230 C228 1.391 . S
C230 C231 1.400 . S
C231 C225 1.491 . S
C231 C230 1.400 . S
C231 C232 1.398 . S
C232 H220 0.950 . S
C232 C231 1.398 . S
C232 C233 1.391 . S
C233 H221 0.950 . S
C233 C229 1.393 . S
C233 C232 1.391 . S
H234 C242 0.950 . S
H235 C247 0.950 . S
H236 C244 0.950 . S
H237 C246 0.950 . S
H238 C248 0.950 . S
H239 C250 0.950 . S
H240 C252 0.950 . S
H241 C253 0.950 . S
C242 H234 0.950 . S
C242 C243 1.386 . S
C242 C244 1.391 . S
C243 C242 1.386 . S
C243 C247 1.393 . S
C244 H236 0.950 . S
C244 C242 1.391 . S
C244 C245 1.400 . S
C245 C244 1.400 . S
C245 C246 1.398 . S
C245 C251 1.491 . S
C246 H237 0.950 . S
C246 C245 1.398 . S
C246 C247 1.391 . S
C247 H235 0.950 . S
C247 C243 1.393 . S
C247 C246 1.391 . S
C248 H238 0.950 . S
C248 C249 1.386 . S
C248 C250 1.391 . S
C249 C248 1.386 . S
C249 C253 1.393 . S
C250 H239 0.950 . S
C250 C248 1.391 . S
C250 C251 1.400 . S
C251 C245 1.491 . S
C251 C250 1.400 . S
C251 C252 1.398 . S
C252 H240 0.950 . S
C252 C251 1.398 . S
C252 C253 1.391 . S
C253 H241 0.950 . S
C253 C249 1.393 . S
C253 C252 1.391 . S
H254 C262 0.950 . S
H255 C267 0.950 . S
H256 C264 0.950 . S
H257 C266 0.950 . S
H258 C268 0.950 1_455 S
H259 C270 0.950 . S
H260 C272 0.950 . S
H261 C273 0.950 . S
C262 H254 0.950 . S
C262 C263 1.386 . S
C262 C264 1.391 . S
C263 C262 1.386 . S
C263 C267 1.393 . S
C264 H256 0.950 . S
C264 C262 1.391 . S
C264 C265 1.400 . S
C265 C264 1.400 . S
C265 C266 1.398 . S
C265 C271 1.491 . S
C266 H257 0.950 . S
C266 C265 1.398 . S
C266 C267 1.391 . S
C267 H255 0.950 . S
C267 C263 1.393 . S
C267 C266 1.391 . S
C268 H258 0.950 1_655 S
C268 C269 1.386 . S
C268 C270 1.391 . S
C269 C268 1.386 . S
C269 C273 1.393 . S
C270 H259 0.950 . S
C270 C268 1.391 . S
C270 C271 1.400 . S
C271 C265 1.491 . S
C271 C270 1.400 . S
C271 C272 1.398 . S
C272 H260 0.950 . S
C272 C271 1.398 . S
C272 C273 1.391 . S
C273 H261 0.950 . S
C273 C269 1.393 . S
C273 C272 1.391 . S
H274 C282 0.950 . S
H275 C287 0.950 . S
H276 C284 0.950 . S
H277 C286 0.950 . S
H278 C288 0.950 . S
H279 C290 0.950 . S
H280 C292 0.950 . S
H281 C293 0.950 . S
C282 H274 0.950 . S
C282 C283 1.386 . S
C282 C284 1.391 . S
C283 C282 1.386 . S
C283 C287 1.393 . S
C284 H276 0.950 . S
C284 C282 1.391 . S
C284 C285 1.400 . S
C285 C284 1.400 . S
C285 C286 1.398 . S
C285 C291 1.491 . S
C286 H277 0.950 . S
C286 C285 1.398 . S
C286 C287 1.391 . S
C287 H275 0.950 . S
C287 C283 1.393 . S
C287 C286 1.391 . S
C288 H278 0.950 . S
C288 C289 1.386 . S
C288 C290 1.391 . S
C289 C288 1.386 . S
C289 C293 1.393 . S
C290 H279 0.950 . S
C290 C288 1.391 . S
C290 C291 1.400 . S
C291 C285 1.491 . S
C291 C290 1.400 . S
C291 C292 1.398 . S
C292 H280 0.950 . S
C292 C291 1.398 . S
C292 C293 1.391 . S
C293 H281 0.950 . S
C293 C289 1.393 . S
C293 C292 1.391 . S
H294 C302 0.950 . S
H295 C307 0.950 . S
H296 C304 0.950 . S
H297 C306 0.950 . S
H298 C308 0.950 . S
H299 C310 0.950 . S
H300 C312 0.950 . S
H301 C313 0.950 . S
C302 H294 0.950 . S
C302 C303 1.386 . S
C302 C304 1.391 1_554 S
C303 C302 1.386 . S
C303 C307 1.393 . S
C304 H296 0.950 . S
C304 C302 1.391 1_556 S
C304 C305 1.400 1_556 S
C305 C304 1.400 1_554 S
C305 C306 1.398 . S
C305 C311 1.491 1_554 S
C306 H297 0.950 . S
C306 C305 1.398 . S
C306 C307 1.391 . S
C307 H295 0.950 . S
C307 C303 1.393 . S
C307 C306 1.391 . S
C308 H298 0.950 . S
C308 C309 1.386 . S
C308 C310 1.391 1_556 S
C309 C308 1.386 . S
C309 C313 1.393 . S
C310 H299 0.950 . S
C310 C308 1.391 1_554 S
C310 C311 1.400 1_554 S
C311 C305 1.491 1_556 S
C311 C310 1.400 1_556 S
C311 C312 1.398 . S
C312 H300 0.950 . S
C312 C311 1.398 . S
C312 C313 1.391 . S
C313 H301 0.950 . S
C313 C309 1.393 . S
C313 C312 1.391 . S
H314 C322 0.950 . S
H315 C327 0.950 . S
H316 C324 0.947 . S
H317 C326 0.950 . S
H318 C328 0.950 . S
H319 C330 0.947 . S
H320 C332 0.950 . S
H321 C333 0.950 . S
C322 H314 0.950 . S
C322 C323 1.386 . S
C322 C324 1.391 . S
C323 C322 1.386 . S
C323 C327 1.393 . S
C324 H316 0.947 . S
C324 C322 1.391 . S
C324 C325 1.400 . S
C325 C324 1.400 . S
C325 C326 1.398 . S
C325 C331 1.491 1_566 S
C326 H317 0.950 . S
C326 C325 1.398 . S
C326 C327 1.391 . S
C327 H315 0.950 . S
C327 C323 1.393 . S
C327 C326 1.391 . S
C328 H318 0.950 . S
C328 C329 1.386 . S
C328 C330 1.391 . S
C329 C328 1.386 . S
C329 C333 1.393 . S
C330 H319 0.947 . S
C330 C328 1.391 . S
C330 C331 1.400 . S
C331 C325 1.491 1_544 S
C331 C330 1.400 . S
C331 C332 1.398 . S
C332 H320 0.950 . S
C332 C331 1.398 . S
C332 C333 1.391 . S
C333 H321 0.950 . S
C333 C329 1.393 . S
C333 C332 1.391 . S
H334 C342 0.950 . S
H335 C347 0.950 . S
H336 C344 0.950 1_655 S
H337 C346 0.950 . S
H338 C348 0.950 . S
H339 C350 0.950 1_455 S
H340 C352 0.950 . S
H341 C353 0.950 . S
C342 H334 0.950 . S
C342 C343 1.386 . S
C342 C344 1.391 . S
C343 C342 1.386 . S
C343 C347 1.393 . S
C344 H336 0.950 1_455 S
C344 C342 1.391 . S
C344 C345 1.400 . S
C345 C344 1.400 . S
C345 C346 1.398 . S
C345 C351 1.491 1_456 S
C346 H337 0.950 . S
C346 C345 1.398 . S
C346 C347 1.391 . S
C347 H335 0.950 . S
C347 C343 1.393 . S
C347 C346 1.391 . S
C348 H338 0.950 . S
C348 C349 1.386 . S
C348 C350 1.391 . S
C349 C348 1.386 . S
C349 C353 1.393 . S
C350 H339 0.950 1_655 S
C350 C348 1.391 . S
C350 C351 1.400 . S
C351 C345 1.491 1_654 S
C351 C350 1.400 . S
C351 C352 1.398 . S
C352 H340 0.950 . S
C352 C351 1.398 . S
C352 C353 1.391 . S
C353 H341 0.950 . S
C353 C349 1.393 . S
C353 C352 1.391 . S
C123 C27 0.709 . S
C129 C6 0.709 . S
C143 C44 0.708 . S
C149 C65 0.708 . S
C163 C82 0.743 1_554 S
C169 C103 0.744 . S
C183 C105 2.441 . S
C189 C8 2.441 . S
C203 C94 1.309 . S
C209 C14 1.307 . S
C223 C77 1.577 . S
C229 C30 1.576 . S
C243 C46 2.430 . S
C249 C29 2.430 . S
C263 C52 1.316 . S
C269 C18 1.318 . S
C283 C68 1.584 . S
C289 C1 1.585 . S
C303 C67 2.427 . S
C309 C84 2.427 . S
C323 C90 1.295 . S
C329 C56 1.295 . S
C343 C106 1.575 . S
C349 C39 1.575 . S
