# Generated by pormake.
# Topology ukj, (4)-cn, num edge types: 1
# Building blocks:
#     Node 0, Type 0, BuildingBlock: MUDLON_clean_sbu_0, # of connection points: 4
#     Node 1, Type 0, BuildingBlock: MUDLON_clean_sbu_0, # of connection points: 4
#     Node 2, Type 0, BuildingBlock: MUDLON_clean_sbu_0, # of connection points: 4
#     Node 3, Type 0, BuildingBlock: MUDLON_clean_sbu_0, # of connection points: 4
#     Node 4, Type 0, BuildingBlock: MUDLON_clean_sbu_0, # of connection points: 4
#     Node 5, Type 0, BuildingBlock: MUDLON_clean_sbu_0, # of connection points: 4
#     Node 6, Type 0, BuildingBlock: MUDLON_clean_sbu_0, # of connection points: 4
#     Node 7, Type 0, BuildingBlock: MUDLON_clean_sbu_0, # of connection points: 4
#     Node 8, Type 0, BuildingBlock: MUDLON_clean_sbu_0, # of connection points: 4
#     Node 9, Type 0, BuildingBlock: MUDLON_clean_sbu_0, # of connection points: 4
#     Node 10, Type 0, BuildingBlock: MUDLON_clean_sbu_0, # of connection points: 4
#     Node 11, Type 0, BuildingBlock: MUDLON_clean_sbu_0, # of connection points: 4
#     Node 12, Type 0, BuildingBlock: MUDLON_clean_sbu_0, # of connection points: 4
#     Node 13, Type 0, BuildingBlock: MUDLON_clean_sbu_0, # of connection points: 4
#     Node 14, Type 0, BuildingBlock: MUDLON_clean_sbu_0, # of connection points: 4
#     Node 15, Type 0, BuildingBlock: MUDLON_clean_sbu_0, # of connection points: 4
#     Node 16, Type 0, BuildingBlock: MUDLON_clean_sbu_0, # of connection points: 4
#     Node 17, Type 0, BuildingBlock: MUDLON_clean_sbu_0, # of connection points: 4
#     Node 18, Type 0, BuildingBlock: MUDLON_clean_sbu_0, # of connection points: 4
#     Node 19, Type 0, BuildingBlock: MUDLON_clean_sbu_0, # of connection points: 4
#     Node 20, Type 0, BuildingBlock: MUDLON_clean_sbu_0, # of connection points: 4
#     Node 21, Type 0, BuildingBlock: MUDLON_clean_sbu_0, # of connection points: 4
#     Node 22, Type 0, BuildingBlock: MUDLON_clean_sbu_0, # of connection points: 4
#     Node 23, Type 0, BuildingBlock: MUDLON_clean_sbu_0, # of connection points: 4
#     Node 24, Type 0, BuildingBlock: MUDLON_clean_sbu_0, # of connection points: 4
#     Node 25, Type 0, BuildingBlock: MUDLON_clean_sbu_0, # of connection points: 4
#     Node 26, Type 0, BuildingBlock: MUDLON_clean_sbu_0, # of connection points: 4
#     Node 27, Type 0, BuildingBlock: MUDLON_clean_sbu_0, # of connection points: 4
#     Node 28, Type 0, BuildingBlock: MUDLON_clean_sbu_0, # of connection points: 4
#     Node 29, Type 0, BuildingBlock: MUDLON_clean_sbu_0, # of connection points: 4
#     Node 30, Type 0, BuildingBlock: MUDLON_clean_sbu_0, # of connection points: 4
#     Node 31, Type 0, BuildingBlock: MUDLON_clean_sbu_0, # of connection points: 4
#     Edge 32, Type (0, 0), BuildingBlock: XIVTED_clean_linker_0, # of connection points: 2
#     Edge 33, Type (0, 0), BuildingBlock: XIVTED_clean_linker_0, # of connection points: 2
#     Edge 34, Type (0, 0), BuildingBlock: XIVTED_clean_linker_0, # of connection points: 2
#     Edge 35, Type (0, 0), BuildingBlock: XIVTED_clean_linker_0, # of connection points: 2
#     Edge 36, Type (0, 0), BuildingBlock: XIVTED_clean_linker_0, # of connection points: 2
#     Edge 37, Type (0, 0), BuildingBlock: XIVTED_clean_linker_0, # of connection points: 2
#     Edge 38, Type (0, 0), BuildingBlock: XIVTED_clean_linker_0, # of connection points: 2
#     Edge 39, Type (0, 0), BuildingBlock: XIVTED_clean_linker_0, # of connection points: 2
#     Edge 40, Type (0, 0), BuildingBlock: XIVTED_clean_linker_0, # of connection points: 2
#     Edge 41, Type (0, 0), BuildingBlock: XIVTED_clean_linker_0, # of connection points: 2
#     Edge 42, Type (0, 0), BuildingBlock: XIVTED_clean_linker_0, # of connection points: 2
#     Edge 43, Type (0, 0), BuildingBlock: XIVTED_clean_linker_0, # of connection points: 2
#     Edge 44, Type (0, 0), BuildingBlock: XIVTED_clean_linker_0, # of connection points: 2
#     Edge 45, Type (0, 0), BuildingBlock: XIVTED_clean_linker_0, # of connection points: 2
#     Edge 46, Type (0, 0), BuildingBlock: XIVTED_clean_linker_0, # of connection points: 2
#     Edge 47, Type (0, 0), BuildingBlock: XIVTED_clean_linker_0, # of connection points: 2
#     Edge 48, Type (0, 0), BuildingBlock: XIVTED_clean_linker_0, # of connection points: 2
#     Edge 49, Type (0, 0), BuildingBlock: XIVTED_clean_linker_0, # of connection points: 2
#     Edge 50, Type (0, 0), BuildingBlock: XIVTED_clean_linker_0, # of connection points: 2
#     Edge 51, Type (0, 0), BuildingBlock: XIVTED_clean_linker_0, # of connection points: 2
#     Edge 52, Type (0, 0), BuildingBlock: XIVTED_clean_linker_0, # of connection points: 2
#     Edge 53, Type (0, 0), BuildingBlock: XIVTED_clean_linker_0, # of connection points: 2
#     Edge 54, Type (0, 0), BuildingBlock: XIVTED_clean_linker_0, # of connection points: 2
#     Edge 55, Type (0, 0), BuildingBlock: XIVTED_clean_linker_0, # of connection points: 2
#     Edge 56, Type (0, 0), BuildingBlock: XIVTED_clean_linker_0, # of connection points: 2
#     Edge 57, Type (0, 0), BuildingBlock: XIVTED_clean_linker_0, # of connection points: 2
#     Edge 58, Type (0, 0), BuildingBlock: XIVTED_clean_linker_0, # of connection points: 2
#     Edge 59, Type (0, 0), BuildingBlock: XIVTED_clean_linker_0, # of connection points: 2
#     Edge 60, Type (0, 0), BuildingBlock: XIVTED_clean_linker_0, # of connection points: 2
#     Edge 61, Type (0, 0), BuildingBlock: XIVTED_clean_linker_0, # of connection points: 2
#     Edge 62, Type (0, 0), BuildingBlock: XIVTED_clean_linker_0, # of connection points: 2
#     Edge 63, Type (0, 0), BuildingBlock: XIVTED_clean_linker_0, # of connection points: 2
#     Edge 64, Type (0, 0), BuildingBlock: XIVTED_clean_linker_0, # of connection points: 2
#     Edge 65, Type (0, 0), BuildingBlock: XIVTED_clean_linker_0, # of connection points: 2
#     Edge 66, Type (0, 0), BuildingBlock: XIVTED_clean_linker_0, # of connection points: 2
#     Edge 67, Type (0, 0), BuildingBlock: XIVTED_clean_linker_0, # of connection points: 2
#     Edge 68, Type (0, 0), BuildingBlock: XIVTED_clean_linker_0, # of connection points: 2
#     Edge 69, Type (0, 0), BuildingBlock: XIVTED_clean_linker_0, # of connection points: 2
#     Edge 70, Type (0, 0), BuildingBlock: XIVTED_clean_linker_0, # of connection points: 2
#     Edge 71, Type (0, 0), BuildingBlock: XIVTED_clean_linker_0, # of connection points: 2
#     Edge 72, Type (0, 0), BuildingBlock: XIVTED_clean_linker_0, # of connection points: 2
#     Edge 73, Type (0, 0), BuildingBlock: XIVTED_clean_linker_0, # of connection points: 2
#     Edge 74, Type (0, 0), BuildingBlock: XIVTED_clean_linker_0, # of connection points: 2
#     Edge 75, Type (0, 0), BuildingBlock: XIVTED_clean_linker_0, # of connection points: 2
#     Edge 76, Type (0, 0), BuildingBlock: XIVTED_clean_linker_0, # of connection points: 2
#     Edge 77, Type (0, 0), BuildingBlock: XIVTED_clean_linker_0, # of connection points: 2
#     Edge 78, Type (0, 0), BuildingBlock: XIVTED_clean_linker_0, # of connection points: 2
#     Edge 79, Type (0, 0), BuildingBlock: XIVTED_clean_linker_0, # of connection points: 2
#     Edge 80, Type (0, 0), BuildingBlock: XIVTED_clean_linker_0, # of connection points: 2
#     Edge 81, Type (0, 0), BuildingBlock: XIVTED_clean_linker_0, # of connection points: 2
#     Edge 82, Type (0, 0), BuildingBlock: XIVTED_clean_linker_0, # of connection points: 2
#     Edge 83, Type (0, 0), BuildingBlock: XIVTED_clean_linker_0, # of connection points: 2
#     Edge 84, Type (0, 0), BuildingBlock: XIVTED_clean_linker_0, # of connection points: 2
#     Edge 85, Type (0, 0), BuildingBlock: XIVTED_clean_linker_0, # of connection points: 2
#     Edge 86, Type (0, 0), BuildingBlock: XIVTED_clean_linker_0, # of connection points: 2
#     Edge 87, Type (0, 0), BuildingBlock: XIVTED_clean_linker_0, # of connection points: 2
#     Edge 88, Type (0, 0), BuildingBlock: XIVTED_clean_linker_0, # of connection points: 2
#     Edge 89, Type (0, 0), BuildingBlock: XIVTED_clean_linker_0, # of connection points: 2
#     Edge 90, Type (0, 0), BuildingBlock: XIVTED_clean_linker_0, # of connection points: 2
#     Edge 91, Type (0, 0), BuildingBlock: XIVTED_clean_linker_0, # of connection points: 2
#     Edge 92, Type (0, 0), BuildingBlock: XIVTED_clean_linker_0, # of connection points: 2
#     Edge 93, Type (0, 0), BuildingBlock: XIVTED_clean_linker_0, # of connection points: 2
#     Edge 94, Type (0, 0), BuildingBlock: XIVTED_clean_linker_0, # of connection points: 2
#     Edge 95, Type (0, 0), BuildingBlock: XIVTED_clean_linker_0, # of connection points: 2
# Relax obj value: 0.028
# Max RMSD: 0.217
# Mean RMSD: 0.215
data_MOF--net-ukj--node1-MUDLON_clean_sbu_0--edge1-XIVTED_clean_linker_0
_symmetry_space_group_name_H-M    P1
_symmetry_Int_Tables_number       1
_symmetry_cell_setting            triclinic
loop_
_symmetry_equiv_pos_as_xyz
'x, y, z'
_cell_length_a     34.860668
_cell_length_b     58.356081
_cell_length_c     60.407669
_cell_angle_alpha  89.990407
_cell_angle_beta   90.089829
_cell_angle_gamma 90.059814
loop_
_atom_site_label
_atom_site_type_symbol
_atom_site_fract_x
_atom_site_fract_y
_atom_site_fract_z
_atom_type_partial_charge
Mg0 Mg 0.16953 0.34616 0.26254 0.0
C1 C 0.178 0.37534 0.22153 0.0
O2 O 0.21288 0.37706 0.22961 0.0
C3 C 0.14888 0.34736 0.31018 0.0
O4 O 0.14981 0.32531 0.30586 0.0
C5 C 0.1016 0.31656 0.2608 0.0
O6 O 0.08767 0.33748 0.26077 0.0
O7 O 0.13787 0.31399 0.26101 0.0
O8 O 0.15251 0.36507 0.2329 0.0
O9 O 0.23193 0.34344 0.26111 0.0
C10 C 0.25266 0.34218 0.27841 0.0
O11 O 0.23607 0.33972 0.29777 0.0
O12 O 0.15517 0.36146 0.29448 0.0
Mg13 Mg 0.10841 0.9019 0.27105 0.0
C14 C 0.10451 0.88723 0.22415 0.0
O15 O 0.07174 0.89789 0.22706 0.0
C16 C 0.1259 0.90082 0.3183 0.0
O17 O 0.11486 0.92196 0.31439 0.0
C18 C 0.14273 0.94685 0.25354 0.0
O19 O 0.13139 0.93887 0.23428 0.0
O20 O 0.13423 0.93593 0.27107 0.0
O21 O 0.12741 0.88537 0.2405 0.0
O22 O 0.04589 0.89953 0.27168 0.0
C23 C 0.03355 0.87924 0.2685 0.0
O24 O 0.05862 0.8627 0.26564 0.0
O25 O 0.12728 0.88679 0.30216 0.0
Mg26 Mg 0.16804 0.9071 0.02127 0.0
C27 C 0.18026 0.88753 0.06672 0.0
O28 O 0.2143 0.89628 0.06281 0.0
C29 C 0.1486 0.90493 0.97439 0.0
O30 O 0.15691 0.92658 0.978 0.0
C31 C 0.09864 0.93416 0.02508 0.0
O32 O 0.08802 0.91263 0.02695 0.0
O33 O 0.13424 0.93853 0.02284 0.0
O34 O 0.15486 0.88837 0.05157 0.0
O35 O 0.23034 0.90941 0.0184 0.0
C36 C 0.24571 0.89003 1.01448 0.0
O37 O 0.22323 0.87206 1.01238 0.0
O38 O 0.14972 0.89103 0.99061 0.0
Mg39 Mg 0.11123 0.34813 0.01852 0.0
C40 C 0.15158 0.36949 0.05815 0.0
O41 O 0.182 0.36165 0.04782 0.0
C42 C 0.12999 0.35039 0.97157 0.0
O43 O 0.1218 0.32877 0.97533 0.0
C44 C 0.13915 0.29728 0.01622 0.0
O45 O 0.10446 0.29243 1.00909 0.0
O46 O 0.14731 0.31777 0.0216 0.0
O47 O 0.11895 0.36765 0.0489 0.0
O48 O 0.04963 0.34351 1.01454 0.0
C49 C 0.0272 0.34156 0.03101 0.0
O50 O 0.04185 0.33921 0.05094 0.0
O51 O 0.12902 0.36438 0.98775 0.0
Mg52 Mg 0.86155 0.65352 0.76913 0.0
C53 C 0.90842 0.63408 0.80748 0.0
O54 O 0.937 0.6431 0.79632 0.0
C55 C 0.86584 0.65003 0.72142 0.0
O56 O 0.85241 0.67062 0.72556 0.0
C57 C 0.92828 0.68313 0.75899 0.0
O58 O 0.93724 0.66345 0.74983 0.0
O59 O 0.89625 0.68488 0.76902 0.0
O60 O 0.87493 0.63455 0.79916 0.0
O61 O 0.79935 0.65697 0.76944 0.0
C62 C 0.7828 0.6375 0.76893 0.0
O63 O 0.80428 0.61901 0.76847 0.0
O64 O 0.87324 0.63687 0.73768 0.0
Mg65 Mg 0.91498 0.10031 0.76926 0.0
C66 C 0.92785 0.11433 0.815 0.0
O67 O 0.95482 0.09932 0.8106 0.0
C68 C 0.91736 0.10781 0.72141 0.0
O69 O 0.94694 0.09465 0.7258 0.0
C70 C 0.88088 0.05356 0.757 0.0
O71 O 0.9019 0.05637 0.7392 0.0
O72 O 0.8831 0.06824 0.77252 0.0
O73 O 0.9039 0.11939 0.7998 0.0
O74 O 0.97759 0.09831 0.76744 0.0
C75 C 0.99352 0.11793 0.76624 0.0
O76 O 0.97154 0.13621 0.76595 0.0
O77 O 0.89685 0.11481 0.73749 0.0
Mg78 Mg 0.86243 0.10374 0.01595 0.0
C79 C 0.90642 0.12359 0.97727 0.0
O80 O 0.93505 0.11389 0.98789 0.0
C81 C 0.87749 0.10511 0.06348 0.0
O82 O 0.86883 0.08363 0.05931 0.0
C83 C 0.88919 0.05253 0.01785 0.0
O84 O 0.85403 0.04765 0.02408 0.0
O85 O 0.89797 0.07312 1.01323 0.0
O86 O 0.87342 0.12361 0.98617 0.0
O87 O 0.80028 0.09997 0.01714 0.0
C88 C 0.78351 0.11936 0.017 0.0
O89 O 0.80477 0.13795 0.01611 0.0
O90 O 0.87809 0.11928 0.04745 0.0
Mg91 Mg 0.92108 0.65307 0.01603 0.0
C92 C 0.93619 0.63915 0.97007 0.0
O93 O 0.96554 0.6522 0.9753 0.0
C94 C 0.9081 0.64986 0.06308 0.0
O95 O 0.91921 0.67101 0.05921 0.0
C96 C 0.85236 0.68116 0.02203 0.0
O97 O 0.84185 0.6603 0.02753 0.0
O98 O 0.88673 0.68445 0.01558 0.0
O99 O 0.91062 0.63537 0.98467 0.0
O100 O 0.98335 0.65555 0.01933 0.0
C101 C 0.99855 0.6358 0.02135 0.0
O102 O 0.97588 0.6178 0.02175 0.0
O103 O 0.90497 0.63616 0.04676 0.0
Mg104 Mg 0.16838 0.85022 0.77033 0.0
C105 C 0.12298 0.8675 0.73072 0.0
O106 O 0.09432 0.85888 0.74214 0.0
C107 C 0.14863 0.85343 0.81691 0.0
O108 O 0.15731 0.83179 0.81364 0.0
C109 C 0.13005 0.80609 0.75293 0.0
O110 O 0.1449 0.81236 0.73389 0.0
O111 O 0.13746 0.81773 0.77019 0.0
O112 O 0.15631 0.86759 0.73925 0.0
O113 O 0.23049 0.84859 0.77334 0.0
C114 C 0.25202 0.84591 0.75658 0.0
O115 O 0.23638 0.84149 0.73724 0.0
O116 O 0.14964 0.86709 0.80048 0.0
Mg117 Mg 0.11074 0.40478 0.76727 0.0
C118 C 0.15468 0.38822 0.72698 0.0
O119 O 0.18321 0.3979 0.73774 0.0
C120 C 0.12953 0.40247 0.81406 0.0
O121 O 0.12077 0.42401 0.81025 0.0
C122 C 0.14809 0.44915 0.74953 0.0
O123 O 0.13159 0.44338 0.73077 0.0
O124 O 0.14207 0.43711 0.76671 0.0
O125 O 0.12205 0.38702 0.73626 0.0
O126 O 0.04874 0.40689 0.77008 0.0
C127 C 0.02727 0.4099 0.75331 0.0
O128 O 0.043 0.41444 0.73405 0.0
O129 O 0.12898 0.38846 0.79789 0.0
Mg130 Mg 0.16732 0.40148 0.51594 0.0
C131 C 0.17405 0.39617 0.56317 0.0
O132 O 0.19782 0.41253 0.55722 0.0
C133 C 0.16029 0.39706 0.46881 0.0
O134 O 0.17509 0.41734 0.47294 0.0
C135 C 0.1026 0.43183 0.50675 0.0
O136 O 0.09069 0.4113 0.50103 0.0
O137 O 0.13654 0.43405 0.51432 0.0
O138 O 0.15341 0.38675 0.5483 0.0
O139 O 0.23 0.40163 0.51536 0.0
C140 C 0.24337 0.38235 0.52155 0.0
O141 O 0.21914 0.366 0.52688 0.0
O142 O 0.15245 0.38405 0.48515 0.0
Mg143 Mg 0.1049 0.84676 0.52214 0.0
C144 C 0.08834 0.8622 0.56787 0.0
O145 O 0.05674 0.85152 0.56203 0.0
C146 C 0.12657 0.8493 0.47576 0.0
O147 O 0.1174 0.82776 0.47924 0.0
C148 C 0.17182 0.81671 0.52373 0.0
O149 O 0.18599 0.83758 0.52431 0.0
O150 O 0.13552 0.81427 0.52336 0.0
O151 O 0.11536 0.86396 0.55379 0.0
O152 O 0.04292 0.84509 0.51768 0.0
C153 C 0.02769 0.86464 0.51442 0.0
O154 O 0.05018 0.88269 0.51333 0.0
O155 O 0.12533 0.86319 0.49201 0.0
Mg156 Mg 0.85025 0.15427 0.26851 0.0
C157 C 0.83198 0.13991 0.3141 0.0
O158 O 0.80193 0.1519 0.30796 0.0
C159 C 0.87229 0.15205 0.22236 0.0
O160 O 0.86203 0.17339 0.22593 0.0
C161 C 0.91722 0.18432 0.27093 0.0
O162 O 0.93132 0.16344 0.2713 0.0
O163 O 0.88094 0.18675 0.27032 0.0
O164 O 0.85901 0.13692 0.30024 0.0
O165 O 0.78847 0.15579 0.26311 0.0
C166 C 0.77333 0.13606 0.26073 0.0
O167 O 0.79577 0.11799 0.26118 0.0
O168 O 0.87168 0.13807 0.23855 0.0
Mg169 Mg 0.91902 0.59504 0.26797 0.0
C170 C 0.93501 0.60821 0.31397 0.0
O171 O 0.96284 0.59406 0.30876 0.0
C172 C 0.90755 0.59867 0.22086 0.0
O173 O 0.91827 0.57746 0.22477 0.0
C174 C 0.8494 0.5677 0.26074 0.0
O175 O 0.83994 0.58851 0.25453 0.0
O176 O 0.88314 0.5642 0.26815 0.0
O177 O 0.90985 0.61294 0.29935 0.0
O178 O 0.98113 0.59141 0.26489 0.0
C179 C 0.99731 0.61088 0.26274 0.0
O180 O 0.97553 0.62924 0.26201 0.0
O181 O 0.90419 0.61231 0.2372 0.0
Mg182 Mg 0.86529 0.6 0.51533 0.0
C183 C 0.91208 0.61806 0.47667 0.0
O184 O 0.94026 0.60876 0.488 0.0
C185 C 0.88155 0.60257 0.5626 0.0
O186 O 0.8763 0.58065 0.55867 0.0
C187 C 0.90449 0.5562 0.49803 0.0
O188 O 0.8883 0.56182 0.47914 0.0
O189 O 0.89774 0.56814 0.51516 0.0
O190 O 0.87868 0.61837 0.48503 0.0
O191 O 0.80314 0.59731 0.51591 0.0
C192 C 0.78709 0.6169 0.51603 0.0
O193 O 0.80899 0.63525 0.51565 0.0
O194 O 0.87991 0.61654 0.54643 0.0
Mg195 Mg 0.90692 0.15077 0.51648 0.0
C196 C 0.86056 0.13469 0.47703 0.0
O197 O 0.83363 0.14607 0.48751 0.0
C198 C 0.86821 0.13718 0.56036 0.0
O199 O 0.84119 0.15135 0.55388 0.0
C200 C 0.87089 0.19584 0.5325 0.0
O201 O 0.89174 0.19193 0.55024 0.0
O202 O 0.87375 0.18241 0.51601 0.0
O203 O 0.89315 0.13238 0.4862 0.0
O204 O 0.96896 0.15464 0.51558 0.0
C205 C 0.98625 0.13544 0.51515 0.0
O206 O 0.96555 0.1166 0.51527 0.0
O207 O 0.89588 0.13268 0.54734 0.0
Mg208 Mg 0.67181 0.34901 0.7622 0.0
C209 C 0.68048 0.35973 0.71553 0.0
O210 O 0.70742 0.34473 0.72012 0.0
C211 C 0.65317 0.35043 0.80914 0.0
O212 O 0.66361 0.32917 0.80529 0.0
C213 C 0.60699 0.3176 0.76283 0.0
O214 O 0.59227 0.33814 0.76547 0.0
O215 O 0.6432 0.3158 0.76063 0.0
O216 O 0.65793 0.36597 0.73096 0.0
O217 O 0.73436 0.35012 0.76426 0.0
C218 C 0.74737 0.37006 0.76006 0.0
O219 O 0.72287 0.38655 0.75568 0.0
O220 O 0.65247 0.36448 0.79301 0.0
Mg221 Mg 0.60887 0.90377 0.76595 0.0
C222 C 0.59684 0.89476 0.71917 0.0
O223 O 0.57186 0.91062 0.72463 0.0
C224 C 0.63125 0.901 0.81243 0.0
O225 O 0.62391 0.92279 0.80898 0.0
C226 C 0.67356 0.93376 0.75608 0.0
O227 O 0.68374 0.91339 0.74894 0.0
O228 O 0.64017 0.93618 0.76428 0.0
O229 O 0.61927 0.88708 0.73408 0.0
O230 O 0.54634 0.90386 0.76883 0.0
C231 C 0.53263 0.88407 0.76464 0.0
O232 O 0.55659 0.86735 0.76014 0.0
O233 O 0.62877 0.8872 0.79614 0.0
Mg234 Mg 0.66461 0.90715 0.51732 0.0
C235 C 0.61793 0.88849 0.55612 0.0
O236 O 0.58944 0.89773 0.54504 0.0
C237 C 0.65533 0.90468 0.46966 0.0
O238 O 0.66904 0.92526 0.47365 0.0
C239 C 0.59997 0.93926 0.51021 0.0
O240 O 0.58723 0.91999 0.50167 0.0
O241 O 0.63371 0.93971 0.51835 0.0
O242 O 0.65124 0.8885 0.54759 0.0
O243 O 0.7269 0.90904 0.5166 0.0
C244 C 0.74234 0.88928 0.516 0.0
O245 O 0.71989 0.87117 0.516 0.0
O246 O 0.64931 0.89133 0.48596 0.0
Mg247 Mg 0.60752 0.34804 0.5159 0.0
C248 C 0.65193 0.37137 0.55333 0.0
O249 O 0.68161 0.36604 0.54098 0.0
C250 C 0.63139 0.34975 0.46942 0.0
O251 O 0.62516 0.32787 0.47307 0.0
C252 C 0.65254 0.30812 0.53612 0.0
O253 O 0.64506 0.31896 0.55467 0.0
O254 O 0.63791 0.31542 0.51815 0.0
O255 O 0.61841 0.36723 0.54609 0.0
O256 O 0.54555 0.34621 0.51249 0.0
C257 C 0.52398 0.34505 0.5294 0.0
O258 O 0.53958 0.34231 0.54903 0.0
O259 O 0.62737 0.36377 0.4854 0.0
Mg260 Mg 0.36172 0.65011 0.26434 0.0
C261 C 0.40927 0.63143 0.30276 0.0
O262 O 0.43755 0.64058 0.29145 0.0
C263 C 0.36581 0.64686 0.21665 0.0
O264 O 0.3529 0.66754 0.22097 0.0
C265 C 0.42817 0.67961 0.2538 0.0
O266 O 0.43694 0.65983 0.24479 0.0
O267 O 0.39628 0.68152 0.26395 0.0
O268 O 0.37574 0.63145 0.29448 0.0
O269 O 0.29948 0.65322 0.26486 0.0
C270 C 0.28339 0.6336 0.26478 0.0
O271 O 0.30532 0.6153 0.26468 0.0
O272 O 0.37297 0.63351 0.23281 0.0
Mg273 Mg 0.40897 0.10066 0.2636 0.0
C274 C 0.42547 0.11766 0.30892 0.0
O275 O 0.45657 0.10617 0.3038 0.0
C276 C 0.39723 0.10313 0.2163 0.0
O277 O 0.4093 0.08225 0.22049 0.0
C278 C 0.34042 0.07196 0.25797 0.0
O279 O 0.32973 0.09234 0.25108 0.0
O280 O 0.37462 0.06934 0.26498 0.0
O281 O 0.39884 0.11931 0.29453 0.0
O282 O 0.47102 0.09725 0.2602 0.0
C283 C 0.48698 0.1165 0.25642 0.0
O284 O 0.46506 0.13472 0.25454 0.0
O285 O 0.39288 0.11689 0.23248 0.0
Mg286 Mg 0.35273 0.10447 0.50997 0.0
C287 C 0.39807 0.12516 0.47144 0.0
O288 O 0.42756 0.11737 0.4827 0.0
C289 C 0.36311 0.10624 0.55766 0.0
O290 O 0.35188 0.0852 0.55335 0.0
C291 C 0.41919 0.07328 0.5162 0.0
O292 O 0.4316 0.09261 0.52478 0.0
O293 O 0.38521 0.07251 0.50841 0.0
O294 O 0.36473 0.1236 0.4798 0.0
O295 O 0.29063 0.10105 0.51057 0.0
C296 C 0.27353 0.12028 0.51187 0.0
O297 O 0.2944 0.13903 0.51272 0.0
O298 O 0.36711 0.12015 0.54159 0.0
Mg299 Mg 0.42328 0.65528 0.51078 0.0
C300 C 0.43944 0.63927 0.46528 0.0
O301 O 0.47035 0.65091 0.4706 0.0
C302 C 0.40251 0.65306 0.55741 0.0
O303 O 0.40919 0.67486 0.55357 0.0
C304 C 0.35541 0.68482 0.50907 0.0
O305 O 0.34144 0.6639 0.50885 0.0
O306 O 0.39168 0.68741 0.50924 0.0
O307 O 0.4129 0.63718 0.47961 0.0
O308 O 0.48525 0.65781 0.5147 0.0
C309 C 0.50113 0.63849 0.51815 0.0
O310 O 0.4792 0.62023 0.51967 0.0
O311 O 0.40473 0.639 0.54134 0.0
Mg312 Mg 0.66934 0.84648 0.26669 0.0
C313 C 0.62515 0.8643 0.22684 0.0
O314 O 0.59592 0.85701 0.23862 0.0
C315 C 0.64572 0.85061 0.31291 0.0
O316 O 0.65046 0.82851 0.30986 0.0
C317 C 0.6294 0.80285 0.24936 0.0
O318 O 0.64332 0.80934 0.23016 0.0
O319 O 0.63795 0.81417 0.26665 0.0
O320 O 0.6586 0.8634 0.23518 0.0
O321 O 0.7312 0.8444 0.27062 0.0
C322 C 0.75399 0.8402 0.25474 0.0
O323 O 0.73987 0.83444 0.23534 0.0
O324 O 0.65043 0.86404 0.29651 0.0
Mg325 Mg 0.60893 0.40112 0.26472 0.0
C326 C 0.60252 0.38011 0.21931 0.0
O327 O 0.56603 0.38276 0.224 0.0
C328 C 0.62798 0.39955 0.31165 0.0
O329 O 0.61493 0.42037 0.30824 0.0
C330 C 0.6495 0.44448 0.24828 0.0
O331 O 0.64442 0.43494 0.2288 0.0
O332 O 0.63485 0.43514 0.2653 0.0
O333 O 0.62745 0.38495 0.23402 0.0
O334 O 0.54631 0.39927 0.26653 0.0
C335 C 0.53298 0.3822 0.2772 0.0
O336 O 0.55711 0.36807 0.28681 0.0
O337 O 0.6302 0.38591 0.29526 0.0
Mg338 Mg 0.67297 0.40361 1.01386 0.0
C339 C 0.67709 0.39136 0.06116 0.0
O340 O 0.70807 0.40373 0.05788 0.0
C341 C 0.65535 0.40147 0.96676 0.0
O342 O 0.66621 0.42271 0.97037 0.0
C343 C 0.63262 0.44758 0.02959 0.0
O344 O 0.63901 0.43903 0.04936 0.0
O345 O 0.64628 0.43747 1.0127 0.0
O346 O 0.65477 0.38757 0.04484 0.0
O347 O 0.73563 0.4013 1.01321 0.0
C348 C 0.74789 0.38126 0.01771 0.0
O349 O 0.72275 0.36502 0.0218 0.0
O350 O 0.65427 0.38765 0.98308 0.0
Mg351 Mg 0.60856 0.84614 0.01681 0.0
C352 C 0.5944 0.85912 0.0634 0.0
O353 O 0.56347 0.84764 0.05777 0.0
C354 C 0.62622 0.84995 0.9702 0.0
O355 O 0.61476 0.82875 0.97339 0.0
C356 C 0.64961 0.80269 0.03328 0.0
O357 O 0.63804 0.80973 0.05281 0.0
O358 O 0.63918 0.81358 0.01607 0.0
O359 O 0.62035 0.86227 0.04887 0.0
O360 O 0.54626 0.84501 1.01316 0.0
C361 C 0.53111 0.86483 1.0119 0.0
O362 O 0.55376 0.88285 1.0123 0.0
O363 O 0.62788 0.86335 0.98683 0.0
Mg364 Mg 0.359 0.15243 0.76528 0.0
C365 C 0.40495 0.13183 0.80386 0.0
O366 O 0.43429 0.14065 0.79323 0.0
C367 C 0.36868 0.15113 0.71747 0.0
O368 O 0.35845 0.17228 0.72198 0.0
C369 C 0.42562 0.1835 0.75944 0.0
O370 O 0.43798 0.16402 0.75121 0.0
O371 O 0.39145 0.18447 0.76685 0.0
O372 O 0.3718 0.13286 0.79513 0.0
O373 O 0.29674 0.1552 0.76525 0.0
C374 C 0.28055 0.13565 0.76432 0.0
O375 O 0.30234 0.11731 0.76343 0.0
O376 O 0.37247 0.13705 0.73344 0.0
Mg377 Mg 0.41745 0.60133 0.76371 0.0
C378 C 0.37074 0.61949 0.80255 0.0
O379 O 0.34283 0.6088 0.79218 0.0
C380 C 0.41369 0.60391 0.71586 0.0
O381 O 0.42653 0.58327 0.72043 0.0
C382 C 0.35082 0.57164 0.75364 0.0
O383 O 0.34194 0.59124 0.74427 0.0
O384 O 0.3828 0.56997 0.76377 0.0
O385 O 0.40355 0.62062 0.79348 0.0
O386 O 0.47961 0.59785 0.76499 0.0
C387 C 0.4962 0.61731 0.76472 0.0
O388 O 0.47477 0.63581 0.76371 0.0
O389 O 0.40653 0.61745 0.73185 0.0
Mg390 Mg 0.36186 0.59719 1.01048 0.0
C391 C 0.34368 0.61273 0.96503 0.0
O392 O 0.31348 0.60063 0.97068 0.0
C393 C 0.37481 0.60071 0.05745 0.0
O394 O 0.36483 0.57937 0.05355 0.0
C395 C 0.43181 0.57009 0.0168 0.0
O396 O 0.44141 0.59106 0.02248 0.0
O397 O 0.3977 0.56635 1.01005 0.0
O398 O 0.37067 0.61524 0.97908 0.0
O399 O 0.29982 0.5939 1.01465 0.0
C400 C 0.28451 0.61347 0.01775 0.0
O401 O 0.307 0.63155 0.01839 0.0
O402 O 0.37753 0.61444 0.04113 0.0
Mg403 Mg 0.41822 0.15256 1.01075 0.0
C404 C 0.43731 0.13241 0.9664 0.0
O405 O 0.47086 0.14028 0.97273 0.0
C406 C 0.39686 0.15011 0.05724 0.0
O407 O 0.40366 0.1719 0.05344 0.0
C408 C 0.34763 0.17867 1.00557 0.0
O409 O 0.33783 0.15711 1.00274 0.0
O410 O 0.38288 0.18335 1.00882 0.0
O411 O 0.40902 0.13401 0.97963 0.0
O412 O 0.48006 0.15669 0.01514 0.0
C413 C 0.49679 0.13816 0.02075 0.0
O414 O 0.47566 0.11983 0.02413 0.0
O415 O 0.39954 0.13604 0.04119 0.0
H416 H 0.11046 0.37203 0.19808 0.0
H417 H 0.21643 0.37936 0.08197 0.0
H418 H 0.22941 0.3913 0.191 0.0
H419 H 0.09323 0.3757 0.08799 0.0
H420 H 0.22109 0.38602 0.12181 0.0
H421 H 0.10244 0.37567 0.15797 0.0
C422 C 0.13474 0.37737 0.18817 0.0
C423 C 0.17078 0.38112 0.19796 0.0
C424 C 0.19298 0.38407 0.1144 0.0
C425 C 0.16191 0.385 0.15196 0.0
C426 C 0.19031 0.38025 0.09162 0.0
C427 C 0.15442 0.37679 0.08161 0.0
C428 C 0.15956 0.3841 0.12739 0.0
C429 C 0.12153 0.37822 0.09498 0.0
C430 C 0.13015 0.37942 0.16524 0.0
C431 C 0.20115 0.38806 0.18423 0.0
N432 N 0.12492 0.38144 0.11721 0.0
N433 N 0.19616 0.38946 0.16195 0.0
H434 H 0.22857 0.88169 0.10198 0.0
H435 H 0.05746 0.8806 0.18876 0.0
H436 H 0.10912 0.87727 0.08354 0.0
H437 H 0.17668 0.87823 0.20791 0.0
H438 H 0.07609 0.87474 0.15031 0.0
H439 H 0.2107 0.87578 0.14063 0.0
C440 C 0.1986 0.87916 0.10601 0.0
C441 C 0.17024 0.88028 0.0895 0.0
C442 C 0.09823 0.8752 0.1629 0.0
C443 C 0.14955 0.87371 0.13383 0.0
C444 C 0.08761 0.87857 0.18489 0.0
C445 C 0.11561 0.88018 0.20153 0.0
C446 C 0.13724 0.87371 0.15738 0.0
C447 C 0.15417 0.87718 0.19558 0.0
C448 C 0.18842 0.87578 0.12812 0.0
C449 C 0.13193 0.87669 0.09571 0.0
N450 N 0.16391 0.87443 0.17393 0.0
N451 N 0.12268 0.87388 0.1174 0.0
H452 H 0.97568 0.63096 0.83068 0.0
H453 H 0.87116 0.62421 0.94827 0.0
H454 H 0.85333 0.6224 0.83799 0.0
H455 H 0.99218 0.63639 0.939 0.0
H456 H 0.86488 0.61699 0.90835 0.0
H457 H 0.98311 0.62624 0.87056 0.0
C458 C 0.95039 0.62778 0.84062 0.0
C459 C 0.91379 0.62741 0.83097 0.0
C460 C 0.89288 0.62095 0.91514 0.0
C461 C 0.92201 0.62226 0.87684 0.0
C462 C 0.89647 0.62497 0.93793 0.0
C463 C 0.93213 0.63122 0.94691 0.0
C464 C 0.92521 0.62311 0.90137 0.0
C465 C 0.964 0.63197 0.93275 0.0
C466 C 0.95463 0.62513 0.86345 0.0
C467 C 0.88211 0.62301 0.84472 0.0
N468 N 0.95972 0.62818 0.91073 0.0
N469 N 0.88689 0.62093 0.867 0.0
H470 H 0.97275 0.12667 0.95337 0.0
H471 H 0.86421 0.13133 0.83667 0.0
H472 H 0.85018 0.13503 0.94726 0.0
H473 H 0.98479 0.11742 0.84538 0.0
H474 H 0.8595 0.13993 0.87646 0.0
H475 H 0.9787 0.13078 0.91337 0.0
C476 C 0.9471 0.1297 0.94366 0.0
C477 C 0.91087 0.13016 0.9537 0.0
C478 C 0.88707 0.13532 0.86955 0.0
C479 C 0.91738 0.13456 0.90767 0.0
C480 C 0.88977 0.13053 0.84685 0.0
C481 C 0.92482 0.12335 0.83781 0.0
C482 C 0.91971 0.13305 0.88313 0.0
C483 C 0.95706 0.12254 0.85172 0.0
C484 C 0.95049 0.13199 0.92076 0.0
C485 C 0.87869 0.13436 0.94022 0.0
N486 N 0.95366 0.12712 0.87364 0.0
N487 N 0.88263 0.13606 0.91786 0.0
H488 H 0.17825 0.87875 0.7002 0.0
H489 H 0.03234 0.8674 0.59872 0.0
H490 H 0.05609 0.86891 0.70697 0.0
H491 H 0.15485 0.87328 0.5903 0.0
H492 H 0.04021 0.87392 0.63825 0.0
H493 H 0.16985 0.88263 0.66014 0.0
C494 C 0.14958 0.87776 0.69333 0.0
C495 C 0.11783 0.87326 0.70699 0.0
C496 C 0.06542 0.87402 0.6278 0.0
C497 C 0.10813 0.87756 0.66111 0.0
C498 C 0.06095 0.8703 0.60517 0.0
C499 C 0.09305 0.86951 0.59119 0.0
C500 C 0.10234 0.87679 0.63672 0.0
C501 C 0.12934 0.87366 0.60049 0.0
C502 C 0.14485 0.8799 0.67043 0.0
C503 C 0.08142 0.87216 0.69712 0.0
N504 N 0.13307 0.87684 0.62274 0.0
N505 N 0.07764 0.87409 0.67481 0.0
H506 H 0.2308 0.40071 0.59341 0.0
H507 H 0.09881 0.3741 0.69773 0.0
H508 H 0.11458 0.37624 0.58662 0.0
H509 H 0.2194 0.39054 0.70156 0.0
H510 H 0.10444 0.37127 0.65739 0.0
H511 H 0.22771 0.39374 0.63301 0.0
C512 C 0.20459 0.39371 0.60028 0.0
C513 C 0.17273 0.38929 0.58673 0.0
C514 C 0.12974 0.37517 0.6671 0.0
C515 C 0.1688 0.38142 0.63241 0.0
C516 C 0.12661 0.37674 0.69016 0.0
C517 C 0.15863 0.38281 0.70309 0.0
C518 C 0.1651 0.3798 0.65691 0.0
C519 C 0.19386 0.38602 0.69233 0.0
C520 C 0.20288 0.38966 0.62296 0.0
C521 C 0.13975 0.37993 0.59652 0.0
N522 N 0.19601 0.38471 0.66991 0.0
N523 N 0.13842 0.3766 0.61887 0.0
H524 H 0.77442 0.13677 0.34423 0.0
H525 H 0.91479 0.11946 0.4475 0.0
H526 H 0.89632 0.12624 0.33731 0.0
H527 H 0.79452 0.13615 0.45257 0.0
H528 H 0.90721 0.11533 0.40739 0.0
H529 H 0.78007 0.1299 0.38382 0.0
C530 C 0.80241 0.13278 0.35102 0.0
C531 C 0.83505 0.13239 0.33745 0.0
C532 C 0.8824 0.1196 0.41733 0.0
C533 C 0.8418 0.12469 0.38305 0.0
C534 C 0.88664 0.12188 0.44026 0.0
C535 C 0.8553 0.12843 0.45343 0.0
C536 C 0.84656 0.12384 0.40751 0.0
C537 C 0.81956 0.1313 0.44309 0.0
C538 C 0.80561 0.12886 0.37369 0.0
C539 C 0.87045 0.12682 0.34718 0.0
N540 N 0.81628 0.12919 0.42077 0.0
N541 N 0.87298 0.12348 0.36947 0.0
H542 H 0.87219 0.62591 0.33584 0.0
H543 H 0.97893 0.6184 0.45298 0.0
H544 H 0.99178 0.60925 0.34474 0.0
H545 H 0.85736 0.63061 0.44622 0.0
H546 H 0.9857 0.62177 0.41294 0.0
H547 H 0.86767 0.63418 0.37566 0.0
C548 C 0.89759 0.62437 0.34608 0.0
C549 C 0.93226 0.61658 0.33704 0.0
C550 C 0.95756 0.62398 0.4202 0.0
C551 C 0.92735 0.62591 0.38243 0.0
C552 C 0.95371 0.62211 0.44312 0.0
C553 C 0.91746 0.62391 0.45299 0.0
C554 C 0.9249 0.6275 0.40695 0.0
C555 C 0.88585 0.6289 0.43932 0.0
C556 C 0.89499 0.629 0.3688 0.0
C557 C 0.9643 0.61486 0.35105 0.0
N558 N 0.89021 0.63022 0.41697 0.0
N559 N 0.96098 0.61929 0.373 0.0
H560 H 0.7194 0.37564 0.57626 0.0
H561 H 0.61686 0.37803 0.69486 0.0
H562 H 0.59664 0.3801 0.58454 0.0
H563 H 0.73541 0.36029 0.68381 0.0
H564 H 0.61044 0.38691 0.6552 0.0
H565 H 0.72712 0.37856 0.61632 0.0
C566 C 0.69407 0.37761 0.58644 0.0
C567 C 0.65729 0.37728 0.577 0.0
C568 C 0.63794 0.38133 0.66157 0.0
C569 C 0.66592 0.3804 0.623 0.0
C570 C 0.64163 0.37636 0.68418 0.0
C571 C 0.67656 0.36812 0.69254 0.0
C572 C 0.66954 0.37826 0.64741 0.0
C573 C 0.70777 0.36625 0.678 0.0
C574 C 0.69849 0.37918 0.60936 0.0
C575 C 0.62555 0.38003 0.5911 0.0
N576 N 0.70346 0.37113 0.65619 0.0
N577 N 0.63056 0.38119 0.61341 0.0
H578 H 0.65755 0.87494 0.69702 0.0
H579 H 0.55133 0.8877 0.57997 0.0
H580 H 0.54086 0.89774 0.68813 0.0
H581 H 0.67293 0.87528 0.58623 0.0
H582 H 0.54483 0.88364 0.61994 0.0
H583 H 0.66155 0.86766 0.65695 0.0
C584 C 0.63264 0.87805 0.68671 0.0
C585 C 0.599 0.88723 0.69583 0.0
C586 C 0.57291 0.88155 0.61258 0.0
C587 C 0.60327 0.87896 0.65023 0.0
C588 C 0.57662 0.8838 0.5897 0.0
C589 C 0.61281 0.88217 0.57971 0.0
C590 C 0.60564 0.87774 0.6257 0.0
C591 C 0.64449 0.87689 0.59323 0.0
C592 C 0.63496 0.874 0.66388 0.0
C593 C 0.56757 0.89099 0.68176 0.0
N594 N 0.64026 0.87515 0.61557 0.0
N595 N 0.57055 0.88698 0.65972 0.0
H596 H 0.47677 0.62884 0.32578 0.0
H597 H 0.37344 0.62547 0.44377 0.0
H598 H 0.35453 0.62039 0.33369 0.0
H599 H 0.49506 0.6349 0.43408 0.0
H600 H 0.36648 0.61769 0.40401 0.0
H601 H 0.48463 0.62499 0.36573 0.0
C602 C 0.4516 0.62586 0.33588 0.0
C603 C 0.4149 0.62525 0.32635 0.0
C604 C 0.39474 0.62118 0.41067 0.0
C605 C 0.42361 0.62112 0.37229 0.0
C606 C 0.39873 0.62554 0.43337 0.0
C607 C 0.4348 0.63115 0.4422 0.0
C608 C 0.42708 0.62241 0.3968 0.0
C609 C 0.46659 0.63099 0.42796 0.0
C610 C 0.45609 0.62371 0.35874 0.0
C611 C 0.38337 0.62115 0.34031 0.0
N612 N 0.46193 0.62692 0.40601 0.0
N613 N 0.38839 0.61956 0.3626 0.0
H614 H 0.46476 0.13032 0.44812 0.0
H615 H 0.35901 0.1301 0.33056 0.0
H616 H 0.34174 0.1341 0.44074 0.0
H617 H 0.48131 0.12378 0.3398 0.0
H618 H 0.35222 0.1379 0.37033 0.0
H619 H 0.47148 0.13443 0.40814 0.0
C620 C 0.43915 0.13233 0.43814 0.0
C621 C 0.40263 0.13154 0.44782 0.0
C622 C 0.38057 0.13511 0.36356 0.0
C623 C 0.41006 0.13597 0.40183 0.0
C624 C 0.38446 0.13076 0.34085 0.0
C625 C 0.42072 0.12598 0.33191 0.0
C626 C 0.41319 0.13474 0.37731 0.0
C627 C 0.45272 0.12703 0.34601 0.0
C628 C 0.44298 0.13463 0.41525 0.0
C629 C 0.37049 0.13443 0.434 0.0
N630 N 0.44816 0.13108 0.36797 0.0
N631 N 0.37493 0.1362 0.41168 0.0
H632 H 0.55798 0.86767 0.20358 0.0
H633 H 0.66099 0.87143 0.08518 0.0
H634 H 0.68072 0.87297 0.19567 0.0
H635 H 0.53942 0.8621 0.0951 0.0
H636 H 0.66858 0.87761 0.1252 0.0
H637 H 0.55043 0.87135 0.16361 0.0
C638 C 0.58336 0.86989 0.19347 0.0
C639 C 0.62005 0.86978 0.20303 0.0
C640 C 0.64021 0.87446 0.11854 0.0
C641 C 0.61164 0.87376 0.15703 0.0
C642 C 0.63586 0.87103 0.0957 0.0
C643 C 0.59958 0.86599 0.08682 0.0
C644 C 0.60802 0.87293 0.13249 0.0
C645 C 0.56802 0.86564 0.10122 0.0
C646 C 0.57904 0.87194 0.17059 0.0
C647 C 0.65186 0.87284 0.18903 0.0
N648 N 0.57301 0.86888 0.12328 0.0
N649 N 0.64695 0.87445 0.16672 0.0
H650 H 0.72486 0.38975 0.09676 0.0
H651 H 0.55654 0.36987 0.18384 0.0
H652 H 0.60773 0.37629 0.07753 0.0
H653 H 0.67522 0.37995 0.20191 0.0
H654 H 0.57541 0.36781 0.14496 0.0
H655 H 0.70802 0.38197 0.13513 0.0
C656 C 0.69558 0.38496 0.10059 0.0
C657 C 0.66754 0.38392 0.08392 0.0
C658 C 0.59738 0.37019 0.15744 0.0
C659 C 0.64792 0.37513 0.12805 0.0
C660 C 0.58665 0.37134 0.17968 0.0
C661 C 0.61429 0.37534 0.19619 0.0
C662 C 0.63603 0.37318 0.15161 0.0
C663 C 0.65287 0.37698 0.18978 0.0
C664 C 0.68599 0.38048 0.12255 0.0
C665 C 0.63021 0.37737 0.08987 0.0
N666 N 0.66251 0.37615 0.16799 0.0
N667 N 0.62135 0.37349 0.1115 0.0
H668 H 0.34828 0.12071 0.83356 0.0
H669 H 0.49308 0.1232 0.93616 0.0
H670 H 0.47124 0.12711 0.82779 0.0
H671 H 0.36998 0.12533 0.94335 0.0
H672 H 0.48519 0.11725 0.89652 0.0
H673 H 0.35556 0.11515 0.87349 0.0
C674 C 0.37687 0.12057 0.8406 0.0
C675 C 0.4092 0.12468 0.82729 0.0
C676 C 0.45984 0.11876 0.90674 0.0
C677 C 0.41763 0.11842 0.87304 0.0
C678 C 0.4643 0.12213 0.92944 0.0
C679 C 0.43213 0.12509 0.94309 0.0
C680 C 0.4229 0.11845 0.89747 0.0
C681 C 0.39558 0.12327 0.93343 0.0
C682 C 0.38096 0.11747 0.86344 0.0
C683 C 0.44547 0.12424 0.83739 0.0
N684 N 0.39195 0.12036 0.91115 0.0
N685 N 0.44866 0.12141 0.85964 0.0
H686 H 0.42633 0.6333 0.83203 0.0
H687 H 0.28598 0.61807 0.93525 0.0
H688 H 0.30475 0.62014 0.82699 0.0
H689 H 0.40853 0.6258 0.94206 0.0
H690 H 0.29155 0.62578 0.89581 0.0
H691 H 0.41942 0.63747 0.87215 0.0
C692 C 0.39805 0.63169 0.83927 0.0
C693 C 0.36611 0.62606 0.82611 0.0
C694 C 0.31727 0.62604 0.90588 0.0
C695 C 0.35814 0.63068 0.87205 0.0
C696 C 0.31411 0.62164 0.92846 0.0
C697 C 0.34692 0.62097 0.94193 0.0
C698 C 0.35359 0.6296 0.8965 0.0
C699 C 0.38252 0.62604 0.93225 0.0
C700 C 0.3942 0.63399 0.86221 0.0
C701 C 0.33024 0.62423 0.83646 0.0
N702 N 0.385 0.62983 0.91003 0.0
N703 N 0.32732 0.62631 0.85879 0.0
H704 H 0.89927 0.23016 0.26803 0.0
H705 H 0.11938 0.2707 0.26347 0.0
H706 H 0.99553 0.18383 0.27164 0.0
H707 H 0.02325 0.31718 0.26053 0.0
H708 H 0.0744 0.23857 0.26622 0.0
H709 H 0.9442 0.26235 0.26535 0.0
C710 C 0.9298 0.22675 0.26834 0.0
C711 C 0.9436 0.20424 0.27006 0.0
C712 C 0.06316 0.25581 0.26495 0.0
C713 C 0.99522 0.24097 0.26689 0.0
C714 C 0.08886 0.27415 0.26333 0.0
C715 C 0.07512 0.29669 0.26176 0.0
C716 C 0.02342 0.26001 0.26501 0.0
C717 C 0.03521 0.30012 0.26171 0.0
C718 C 0.95546 0.24513 0.26676 0.0
C719 C 0.98351 0.20087 0.27033 0.0
N720 N 1.01083 0.28201 0.26333 0.0
N721 N 1.00785 0.21899 0.26873 0.0
H722 H 0.15694 0.97921 0.22175 0.0
H723 H 0.34101 0.03172 0.28181 0.0
H724 H 0.1911 0.95856 0.28749 0.0
H725 H 0.27617 0.0688 0.23259 0.0
H726 H 0.29184 0.00144 0.28122 0.0
H727 H 0.20572 0.00944 0.22274 0.0
C728 C 0.17451 0.98113 0.23644 0.0
C729 C 0.16979 0.96641 0.25459 0.0
C730 C 0.28851 0.01624 0.27057 0.0
C731 C 0.22617 0.00061 0.25564 0.0
C732 C 0.31662 0.03341 0.2708 0.0
C733 C 0.31257 0.05282 0.2573 0.0
C734 C 0.25663 0.01836 0.25643 0.0
C735 C 0.28031 0.0542 0.2434 0.0
C736 C 0.20234 0.99836 0.23698 0.0
C737 C 0.19351 0.96964 0.27318 0.0
N738 N 0.25373 0.03718 0.24324 0.0
N739 N 0.22092 0.98625 0.27315 0.0
H740 H 0.10749 0.98037 0.01666 0.0
H741 H 0.88224 0.00681 0.02787 0.0
H742 H 0.02184 0.92935 0.03204 0.0
H743 H 0.9657 0.05769 1.00852 0.0
H744 H 0.93349 0.97833 0.02986 0.0
H745 H 0.05654 0.00931 1.01442 0.0
C746 C 0.07807 0.97527 0.01967 0.0
C747 C 0.06899 0.95238 0.02453 0.0
C748 C 0.94061 0.99572 0.02512 0.0
C749 C 1.01056 0.98532 0.0219 0.0
C750 C 0.91128 0.01199 0.02394 0.0
C751 C 0.91957 0.03471 0.01802 0.0
C752 C 0.97863 0.00217 0.02043 0.0
C753 C 0.95787 0.04038 1.01315 0.0
C754 C 0.04898 0.99177 0.01831 0.0
C755 C 0.0303 0.94675 0.02819 0.0
N756 N 0.98594 0.02427 1.01452 0.0
N757 N 1.00264 0.96305 0.0268 0.0
H758 H 0.27149 0.17353 0.99645 0.0
H759 H 0.21484 0.30246 0.02763 0.0
H760 H 0.35445 0.22436 0.0167 0.0
H761 H 0.13395 0.25211 1.00374 0.0
H762 H 0.26599 0.27404 0.02477 0.0
H763 H 0.22091 0.20208 0.99957 0.0
C764 C 0.27916 0.19075 1.00149 0.0
C765 C 0.31739 0.19652 1.00633 0.0
C766 C 0.23706 0.26919 0.0202 0.0
C767 C 0.25918 0.22943 1.01008 0.0
C768 C 0.20773 0.28539 0.02189 0.0
C769 C 0.16991 0.27971 0.01589 0.0
C770 C 0.22863 0.24706 1.01247 0.0
C771 C 0.16259 0.2573 1.00856 0.0
C772 C 0.25014 0.20707 1.00329 0.0
C773 C 0.32543 0.21915 1.01275 0.0
N774 N 0.19166 0.24184 1.00703 0.0
N775 N 0.29654 0.23477 1.0145 0.0
H776 H 0.93175 0.72206 0.78481 0.0
H777 H 0.11346 0.774 0.72118 0.0
H778 H 0.98843 0.68774 0.73072 0.0
H779 H 0.08058 0.79578 0.78674 0.0
H780 H 0.06325 0.74468 0.72237 0.0
H781 H 0.9812 0.75211 0.78355 0.0
C782 C 0.95437 0.72094 0.77259 0.0
C783 C 0.95605 0.70233 0.75791 0.0
C784 C 0.06714 0.75582 0.73653 0.0
C785 C 1.01247 0.73654 0.75634 0.0
C786 C 0.09583 0.77255 0.73587 0.0
C787 C 0.10139 0.78731 0.75391 0.0
C788 C 0.04343 0.75402 0.75526 0.0
C789 C 0.07752 0.78467 0.77249 0.0
C790 C 0.98268 0.73799 0.77196 0.0
C791 C 0.98611 0.70168 0.74246 0.0
N792 N 0.04945 0.76846 0.77263 0.0
N793 N 1.01301 0.71852 0.74205 0.0
H794 H 0.67258 0.97458 0.77915 0.0
H795 H 0.87305 0.01711 0.72893 0.0
H796 H 0.73979 0.93572 0.73245 0.0
H797 H 0.82123 0.04834 0.78632 0.0
H798 H 0.82167 0.98869 0.72838 0.0
H799 H 0.72346 0.0038 0.78001 0.0
C800 C 0.6978 0.9723 0.76894 0.0
C801 C 0.70197 0.95266 0.75574 0.0
C802 C 0.82159 0.00168 0.74118 0.0
C803 C 0.76016 0.98585 0.7567 0.0
C804 C 0.85101 0.01791 0.74152 0.0
C805 C 0.85157 0.03513 0.75772 0.0
C806 C 0.79216 0.00272 0.75701 0.0
C807 C 0.82209 0.0353 0.77359 0.0
C808 C 0.72692 0.98887 0.76955 0.0
C809 C 0.73538 0.95051 0.74296 0.0
N810 N 0.79345 0.01943 0.77276 0.0
N811 N 0.76307 0.96686 0.74375 0.0
H812 H 0.66741 0.76986 0.06402 0.0
H813 H 0.85148 0.72268 1.00024 0.0
H814 H 0.69795 0.79354 0.99869 0.0
H815 H 0.78899 0.68245 0.04809 0.0
H816 H 0.80159 0.75242 1.00272 0.0
H817 H 0.71786 0.74076 0.06154 0.0
C818 C 0.6846 0.76888 0.04912 0.0
C819 C 0.67829 0.78406 0.03149 0.0
C820 C 0.79897 0.73705 1.01266 0.0
C821 C 0.73655 0.75116 0.02875 0.0
C822 C 0.82748 0.7202 1.01136 0.0
C823 C 0.82425 0.70005 0.02389 0.0
C824 C 0.76757 0.73388 0.02693 0.0
C825 C 0.79248 0.69764 0.03799 0.0
C826 C 0.71337 0.75229 0.04772 0.0
C827 C 0.70158 0.78205 1.0126 0.0
N828 N 0.76552 0.71437 0.0392 0.0
N829 N 0.72988 0.76603 1.01179 0.0
H830 H 0.34777 0.53281 0.7796 0.0
H831 H 0.16321 0.48154 0.71781 0.0
H832 H 0.28991 0.56708 0.72578 0.0
H833 H 0.19941 0.459 0.78262 0.0
H834 H 0.21364 0.51074 0.71849 0.0
H835 H 0.29814 0.50287 0.77878 0.0
C836 C 0.32485 0.53395 0.76753 0.0
C837 C 0.3229 0.5525 0.7528 0.0
C838 C 0.21043 0.49945 0.73259 0.0
C839 C 0.26623 0.51842 0.75174 0.0
C840 C 0.18162 0.48279 0.73222 0.0
C841 C 0.17693 0.46784 0.75021 0.0
C842 C 0.23512 0.50102 0.75096 0.0
C843 C 0.20178 0.47024 0.76843 0.0
C844 C 0.29643 0.51695 0.76715 0.0
C845 C 0.29245 0.55317 0.73755 0.0
N846 N 0.22992 0.48641 0.76828 0.0
N847 N 0.26543 0.53639 0.73739 0.0
H848 H 0.91819 0.52253 0.4674 0.0
H849 H 0.10493 0.47347 0.52824 0.0
H850 H 0.95734 0.54793 0.53064 0.0
H851 H 0.03947 0.43472 0.48046 0.0
H852 H 0.05694 0.50426 0.52592 0.0
H853 H 0.96814 0.49307 0.46877 0.0
C854 C 0.9372 0.52188 0.48159 0.0
C855 C 0.93341 0.53763 0.49898 0.0
C856 C 0.05326 0.48901 0.51592 0.0
C857 C 0.99101 0.50424 0.50047 0.0
C858 C 0.08071 0.47154 0.51714 0.0
C859 C 0.07604 0.45148 0.50462 0.0
C860 C 0.02138 0.4865 0.50182 0.0
C861 C 0.04404 0.44982 0.49055 0.0
C862 C 0.9657 0.50508 0.48236 0.0
C863 C 0.95899 0.53602 0.51694 0.0
N864 N 0.01803 0.46708 0.4895 0.0
N865 N 0.98682 0.51971 0.51717 0.0
H866 H 0.37339 0.7306 0.51257 0.0
H867 H 0.1536 0.77097 0.51983 0.0
H868 H 0.27705 0.6842 0.50907 0.0
H869 H 0.25013 0.81719 0.52388 0.0
H870 H 0.19831 0.73887 0.51591 0.0
H871 H 0.3286 0.76264 0.51639 0.0
C872 C 0.34286 0.72715 0.51251 0.0
C873 C 0.32901 0.70466 0.5105 0.0
C874 C 0.20969 0.75605 0.5177 0.0
C875 C 0.27753 0.74123 0.51498 0.0
C876 C 0.18415 0.77437 0.51998 0.0
C877 C 0.19808 0.79682 0.52219 0.0
C878 C 0.24945 0.7602 0.5176 0.0
C879 C 0.23801 0.80019 0.52222 0.0
C880 C 0.31727 0.74544 0.51475 0.0
C881 C 0.2891 0.70123 0.51059 0.0
N882 N 0.26222 0.78212 0.51993 0.0
N883 N 0.26482 0.71928 0.51282 0.0
H884 H 0.79029 0.56549 0.23153 0.0
H885 H 0.68854 0.45745 0.28561 0.0
H886 H 0.84329 0.52771 0.28478 0.0
H887 H 0.67385 0.47482 0.21667 0.0
H888 H 0.7384 0.48696 0.28861 0.0
H889 H 0.74096 0.53585 0.22862 0.0
C890 C 0.79155 0.55092 0.24262 0.0
C891 C 0.82092 0.54903 0.25844 0.0
C892 C 0.72413 0.48431 0.27287 0.0
C893 C 0.76412 0.51526 0.2554 0.0
C894 C 0.69543 0.46766 0.27117 0.0
C895 C 0.67692 0.46371 0.25084 0.0
C896 C 0.73386 0.49742 0.25424 0.0
C897 C 0.68737 0.47729 0.23264 0.0
C898 C 0.76345 0.534 0.24089 0.0
C899 C 0.82125 0.52973 0.27229 0.0
N900 N 0.71498 0.49363 0.2348 0.0
N901 N 0.79297 0.51366 0.27062 0.0
H902 H 0.67666 0.28268 0.50055 0.0
H903 H 0.84923 0.22341 0.56706 0.0
H904 H 0.69699 0.29256 0.57042 0.0
H905 H 0.82209 0.20814 0.49888 0.0
H906 H 0.79504 0.24993 0.56818 0.0
H907 H 0.73027 0.25573 0.49942 0.0
C908 C 0.69214 0.27904 0.51571 0.0
C909 C 0.68225 0.28995 0.53561 0.0
C910 C 0.801 0.24083 0.55295 0.0
C911 C 0.74409 0.25929 0.53436 0.0
C912 C 0.83212 0.22577 0.55225 0.0
C913 C 0.84031 0.2135 0.53284 0.0
C914 C 0.77787 0.24373 0.53408 0.0
C915 C 0.81692 0.21721 0.51421 0.0
C916 C 0.72287 0.2637 0.51503 0.0
C917 C 0.70348 0.28456 0.5547 0.0
N918 N 0.78678 0.23195 0.51531 0.0
N919 N 0.73348 0.26973 0.55357 0.0
H920 H 0.40981 0.2275 0.77307 0.0
H921 H 0.62514 0.27249 0.75432 0.0
H922 H 0.50129 0.18509 0.74792 0.0
H923 H 0.53011 0.31654 0.77109 0.0
H924 H 0.58104 0.23973 0.75383 0.0
H925 H 0.45432 0.25999 0.77434 0.0
C926 C 0.4392 0.22501 0.76782 0.0
C927 C 0.45176 0.20353 0.76034 0.0
C928 C 0.56988 0.25658 0.75761 0.0
C929 C 0.50294 0.2406 0.76182 0.0
C930 C 0.59508 0.27528 0.75793 0.0
C931 C 0.58133 0.29732 0.76269 0.0
C932 C 0.53073 0.25994 0.76221 0.0
C933 C 0.54204 0.2999 0.76725 0.0
C934 C 0.46462 0.24356 0.76853 0.0
C935 C 0.49025 0.20133 0.75376 0.0
N936 N 0.5182 0.28148 0.76691 0.0
N937 N 0.51442 0.21958 0.75467 0.0
H938 H 0.40514 0.03068 0.49839 0.0
H939 H 0.61437 0.98187 0.52803 0.0
H940 H 0.49252 0.07012 0.53189 0.0
H941 H 0.52715 0.94284 0.49394 0.0
H942 H 0.5703 0.01452 0.52952 0.0
H943 H 0.44947 0.99821 0.4967 0.0
C944 C 0.43358 0.03251 0.50542 0.0
C945 C 0.44508 0.05317 0.51528 0.0
C946 C 0.56085 0.9988 0.52169 0.0
C947 C 0.49605 0.01611 0.51337 0.0
C948 C 0.58604 0.98017 0.52082 0.0
C949 C 0.57448 0.95956 0.51087 0.0
C950 C 0.52383 0.99681 0.51257 0.0
C951 C 0.53737 0.95836 0.50181 0.0
C952 C 0.45893 0.01398 0.50443 0.0
C953 C 0.48235 0.05455 0.5241 0.0
N954 N 0.51343 0.97667 0.5029 0.0
N955 N 0.50645 0.0363 0.52293 0.0
H956 H 0.58218 0.79203 0.28408 0.0
H957 H 0.48651 0.68438 0.22439 0.0
H958 H 0.61009 0.77157 0.21736 0.0
H959 H 0.43385 0.71806 0.28018 0.0
H960 H 0.53541 0.71426 0.22333 0.0
H961 H 0.53176 0.76283 0.28493 0.0
C962 C 0.57794 0.78129 0.26966 0.0
C963 C 0.60051 0.78424 0.2506 0.0
C964 C 0.51308 0.71522 0.23574 0.0
C965 C 0.54273 0.75083 0.25152 0.0
C966 C 0.48515 0.69814 0.2364 0.0
C967 C 0.45605 0.69871 0.25243 0.0
C968 C 0.51241 0.73292 0.25143 0.0
C969 C 0.45568 0.71702 0.26749 0.0
C970 C 0.54894 0.76475 0.27013 0.0
C971 C 0.59344 0.76992 0.23239 0.0
N972 N 0.48368 0.73332 0.26675 0.0
N973 N 0.56529 0.75379 0.23333 0.0
H974 H 0.59115 0.45886 0.99258 0.0
H975 H 0.49263 0.5689 0.04485 0.0
H976 H 0.61029 0.47929 0.06037 0.0
H977 H 0.43672 0.52937 0.99378 0.0
H978 H 0.54216 0.53946 0.0477 0.0
H979 H 0.5411 0.48821 0.98944 0.0
C980 C 0.58519 0.4697 1.00672 0.0
C981 C 0.60501 0.46666 0.02678 0.0
C982 C 0.51901 0.53718 0.03592 0.0
C983 C 0.54787 0.50019 0.02322 0.0
C984 C 0.49077 0.55398 0.03422 0.0
C985 C 0.46051 0.55156 0.01904 0.0
C986 C 0.51755 0.51797 0.02202 0.0
C987 C 0.45947 0.53183 1.00577 0.0
C988 C 0.55639 0.48626 1.00495 0.0
C989 C 0.59574 0.48103 0.04461 0.0
N990 N 0.48785 0.51585 1.0074 0.0
N991 N 0.56801 0.49725 0.04237 0.0
H992 H 0.16645 0.4237 0.43202 0.0
H993 H 0.13245 0.32126 0.34651 0.0
H994 H 0.13918 0.35469 0.45241 0.0
H995 H 0.1558 0.39102 0.32691 0.0
H996 H 0.13101 0.33342 0.38515 0.0
H997 H 0.15911 0.41227 0.39354 0.0
C998 C 0.1588 0.4061 0.42842 0.0
C999 C 0.1537 0.39007 0.44553 0.0
C1000 C 0.13619 0.34611 0.37241 0.0
C1001 C 0.14528 0.37683 0.4012 0.0
C1002 C 0.13701 0.3392 0.3503 0.0
C1003 C 0.14451 0.35513 0.3334 0.0
C1004 C 0.14306 0.36915 0.37776 0.0
C1005 C 0.15 0.37813 0.33936 0.0
C1006 C 0.15454 0.3996 0.40637 0.0
C1007 C 0.14349 0.36759 0.43977 0.0
N1008 N 0.14942 0.38441 0.36105 0.0
N1009 N 0.13985 0.36158 0.41806 0.0
H1010 H 0.13069 0.92794 0.35496 0.0
H1011 H 0.13827 0.82275 0.43929 0.0
H1012 H 0.13819 0.85726 0.33435 0.0
H1013 H 0.13258 0.89345 0.46 0.0
H1014 H 0.14435 0.83527 0.40099 0.0
H1015 H 0.13729 0.91585 0.39339 0.0
C1016 C 0.134 0.90984 0.35849 0.0
C1017 C 0.13353 0.89355 0.34138 0.0
C1018 C 0.1421 0.84809 0.41388 0.0
C1019 C 0.14097 0.87958 0.38553 0.0
C1020 C 0.13861 0.84096 0.43581 0.0
C1021 C 0.13454 0.85709 0.4529 0.0
C1022 C 0.1413 0.87155 0.40888 0.0
C1023 C 0.13552 0.88043 0.44736 0.0
C1024 C 0.1378 0.90297 0.38049 0.0
C1025 C 0.13824 0.8704 0.347 0.0
N1026 N 0.13844 0.88696 0.42579 0.0
N1027 N 0.14144 0.86409 0.36862 0.0
H1028 H 0.13997 0.89778 0.83162 0.0
H1029 H 0.13872 0.86081 0.95944 0.0
H1030 H 0.14063 0.82758 0.8542 0.0
H1031 H 0.14219 0.93106 0.9371 0.0
H1032 H 0.13251 0.84836 0.92091 0.0
H1033 H 0.13386 0.91043 0.87012 0.0
C1034 C 0.13846 0.88503 0.84463 0.0
C1035 C 0.14119 0.86161 0.83969 0.0
C1036 C 0.13436 0.86652 0.92446 0.0
C1037 C 0.13438 0.87591 0.88374 0.0
C1038 C 0.13783 0.87362 0.94647 0.0
C1039 C 0.14133 0.89699 0.9515 0.0
C1040 C 0.13443 0.8829 0.90737 0.0
C1041 C 0.13991 0.91284 0.934 0.0
C1042 C 0.13505 0.89225 0.86661 0.0
C1043 C 0.139 0.84584 0.85723 0.0
N1044 N 0.13684 0.9055 0.91274 0.0
N1045 N 0.13598 0.85328 0.87844 0.0
H1046 H 0.13722 0.42926 0.85077 0.0
H1047 H 0.13854 0.3237 0.93488 0.0
H1048 H 0.13784 0.3585 0.82995 0.0
H1049 H 0.13714 0.39446 0.95571 0.0
H1050 H 0.14417 0.33616 0.89654 0.0
H1051 H 0.14307 0.41686 0.88913 0.0
C1052 C 0.13885 0.41107 0.85424 0.0
C1053 C 0.13669 0.39487 0.83708 0.0
C1054 C 0.1429 0.34899 0.90947 0.0
C1055 C 0.14326 0.38055 0.88117 0.0
C1056 C 0.13968 0.3419 0.93142 0.0
C1057 C 0.13702 0.35808 0.94857 0.0
C1058 C 0.14334 0.37247 0.9045 0.0
C1059 C 0.13895 0.3814 0.94303 0.0
C1060 C 0.1422 0.40402 0.8762 0.0
C1061 C 0.13926 0.37158 0.84263 0.0
N1062 N 0.14169 0.3879 0.92145 0.0
N1063 N 0.1421 0.36511 0.86422 0.0
H1064 H 0.88738 0.60769 0.70574 0.0
H1065 H 0.87926 0.64673 0.57843 0.0
H1066 H 0.85976 0.67629 0.68426 0.0
H1067 H 0.89247 0.5765 0.59952 0.0
H1068 H 0.87956 0.65867 0.6173 0.0
H1069 H 0.89624 0.59659 0.66696 0.0
C1070 C 0.88331 0.62042 0.6929 0.0
C1071 C 0.87254 0.64289 0.69825 0.0
C1072 C 0.88263 0.64066 0.61339 0.0
C1073 C 0.88275 0.63039 0.65391 0.0
C1074 C 0.88263 0.63386 0.5912 0.0
C1075 C 0.88554 0.61058 0.58572 0.0
C1076 C 0.88568 0.62405 0.63019 0.0
C1077 C 0.88981 0.59463 0.60298 0.0
C1078 C 0.88836 0.61409 0.67077 0.0
C1079 C 0.86778 0.65872 0.68093 0.0
N1080 N 0.88957 0.60164 0.6244 0.0
N1081 N 0.87283 0.65215 0.65958 0.0
H1082 H 0.85584 0.13214 0.70434 0.0
H1083 H 0.91898 0.10717 0.57896 0.0
H1084 H 0.95605 0.09369 0.68491 0.0
H1085 H 0.82353 0.15103 0.59539 0.0
H1086 H 0.92856 0.09946 0.61816 0.0
H1087 H 0.84012 0.13763 0.66495 0.0
C1088 C 0.87456 0.12494 0.69186 0.0
C1089 C 0.90736 0.11248 0.69798 0.0
C1090 C 0.90532 0.11068 0.61326 0.0
C1091 C 0.88939 0.11844 0.65307 0.0
C1092 C 0.89972 0.115 0.5908 0.0
C1093 C 0.87055 0.12989 0.58383 0.0
C1094 C 0.88173 0.12137 0.62902 0.0
C1095 C 0.84642 0.13945 0.60001 0.0
C1096 C 0.86551 0.128 0.66941 0.0
C1097 C 0.93049 0.10344 0.68109 0.0
N1098 N 0.85273 0.13518 0.62189 0.0
N1099 N 0.92105 0.10658 0.65954 0.0
H1100 H 0.88204 0.10817 0.20656 0.0
H1101 H 0.88709 0.14882 0.07972 0.0
H1102 H 0.88138 0.17898 0.18589 0.0
H1103 H 0.88186 0.078 0.10019 0.0
H1104 H 0.89207 0.16016 0.11866 0.0
H1105 H 0.88924 0.09666 0.16777 0.0
C1106 C 0.88383 0.12129 0.19392 0.0
C1107 C 0.88073 0.14455 0.19947 0.0
C1108 C 0.89009 0.14213 0.1146 0.0
C1109 C 0.88873 0.13156 0.15508 0.0
C1110 C 0.88732 0.13566 0.09236 0.0
C1111 C 0.88371 0.11245 0.08668 0.0
C1112 C 0.88926 0.12527 0.13126 0.0
C1113 C 0.88424 0.09612 0.10378 0.0
C1114 C 0.88781 0.11473 0.17177 0.0
C1115 C 0.88325 0.16082 0.18238 0.0
N1116 N 0.88671 0.10284 0.12526 0.0
N1117 N 0.88684 0.15403 0.16099 0.0
H1118 H 0.90321 0.67682 0.09976 0.0
H1119 H 0.90281 0.57176 0.18414 0.0
H1120 H 0.89796 0.60609 0.07907 0.0
H1121 H 0.89795 0.64248 0.20486 0.0
H1122 H 0.89739 0.584 0.14571 0.0
H1123 H 0.89761 0.66462 0.13818 0.0
C1124 C 0.90065 0.65869 0.10328 0.0
C1125 C 0.9014 0.64242 0.08615 0.0
C1126 C 0.89723 0.59687 0.15863 0.0
C1127 C 0.89512 0.62832 0.13029 0.0
C1128 C 0.9004 0.58991 0.18062 0.0
C1129 C 0.90118 0.60616 0.19776 0.0
C1130 C 0.89509 0.6203 0.15362 0.0
C1131 C 0.89759 0.62939 0.19217 0.0
C1132 C 0.89739 0.65175 0.12527 0.0
C1133 C 0.89763 0.6192 0.09175 0.0
N1134 N 0.89504 0.63578 0.17055 0.0
N1135 N 0.895 0.61283 0.11337 0.0
H1136 H 0.64736 0.42838 0.93019 0.0
H1137 H 0.64615 0.32333 0.8457 0.0
H1138 H 0.64558 0.35758 0.95087 0.0
H1139 H 0.64355 0.39419 0.82523 0.0
H1140 H 0.64043 0.33547 0.88415 0.0
H1141 H 0.64048 0.41614 0.89185 0.0
C1142 C 0.64526 0.41022 0.92669 0.0
C1143 C 0.64742 0.39396 0.9438 0.0
C1144 C 0.64078 0.34839 0.87128 0.0
C1145 C 0.6397 0.3798 0.89972 0.0
C1146 C 0.64408 0.34148 0.84926 0.0
C1147 C 0.64571 0.3578 0.83219 0.0
C1148 C 0.63931 0.37182 0.87636 0.0
C1149 C 0.64256 0.38103 0.83785 0.0
C1150 C 0.64129 0.40325 0.90474 0.0
C1151 C 0.64418 0.3707 0.93822 0.0
N1152 N 0.63987 0.38736 0.85947 0.0
N1153 N 0.64084 0.36431 0.91663 0.0
H1154 H 0.63956 0.89394 0.95537 0.0
H1155 H 0.63698 0.85662 0.82752 0.0
H1156 H 0.63083 0.82391 0.93289 0.0
H1157 H 0.64097 0.92693 0.84961 0.0
H1158 H 0.64177 0.84411 0.86613 0.0
H1159 H 0.647 0.90626 0.91679 0.0
C1160 C 0.63957 0.88115 0.94237 0.0
C1161 C 0.63422 0.85789 0.94737 0.0
C1162 C 0.6419 0.86229 0.8625 0.0
C1163 C 0.64257 0.87182 0.90323 0.0
C1164 C 0.63928 0.86941 0.84044 0.0
C1165 C 0.63822 0.89285 0.83531 0.0
C1166 C 0.64346 0.8787 0.87955 0.0
C1167 C 0.64133 0.90867 0.85277 0.0
C1168 C 0.64373 0.88818 0.92035 0.0
C1169 C 0.6345 0.84206 0.92984 0.0
N1170 N 0.64353 0.90133 0.87408 0.0
N1171 N 0.63835 0.84931 0.9086 0.0
H1172 H 0.66024 0.93088 0.43237 0.0
H1173 H 0.62789 0.82588 0.34977 0.0
H1174 H 0.63414 0.86216 0.45415 0.0
H1175 H 0.6497 0.8951 0.32791 0.0
H1176 H 0.62505 0.83944 0.38788 0.0
H1177 H 0.65199 0.91865 0.3941 0.0
C1178 C 0.65261 0.9132 0.42913 0.0
C1179 C 0.64817 0.89746 0.44653 0.0
C1180 C 0.63013 0.85172 0.37477 0.0
C1181 C 0.63871 0.88333 0.40257 0.0
C1182 C 0.63175 0.844 0.35295 0.0
C1183 C 0.63939 0.85936 0.3356 0.0
C1184 C 0.63644 0.87498 0.37937 0.0
C1185 C 0.64385 0.88265 0.34076 0.0
C1186 C 0.64783 0.90625 0.40722 0.0
C1187 C 0.63799 0.87484 0.44127 0.0
N1188 N 0.64267 0.88972 0.36221 0.0
N1189 N 0.63387 0.86842 0.41974 0.0
H1190 H 0.63674 0.39404 0.4542 0.0
H1191 H 0.64355 0.35603 0.32676 0.0
H1192 H 0.643 0.32364 0.43254 0.0
H1193 H 0.63152 0.42604 0.34874 0.0
H1194 H 0.65115 0.34408 0.36542 0.0
H1195 H 0.64263 0.40639 0.41564 0.0
C1196 C 0.63975 0.38119 0.44138 0.0
C1197 C 0.63898 0.35777 0.4466 0.0
C1198 C 0.64716 0.36208 0.36174 0.0
C1199 C 0.6455 0.37175 0.40243 0.0
C1200 C 0.64292 0.3689 0.33967 0.0
C1201 C 0.63652 0.39202 0.33452 0.0
C1202 C 0.645 0.37852 0.37873 0.0
C1203 C 0.636 0.40798 0.35193 0.0
C1204 C 0.64302 0.38824 0.41935 0.0
C1205 C 0.64309 0.34188 0.42929 0.0
N1206 N 0.6399 0.40092 0.37322 0.0
N1207 N 0.64588 0.34915 0.40799 0.0
H1208 H 0.38408 0.60419 0.20049 0.0
H1209 H 0.37926 0.64476 0.07354 0.0
H1210 H 0.36211 0.67378 0.17983 0.0
H1211 H 0.38216 0.57394 0.0941 0.0
H1212 H 0.38173 0.65632 0.11255 0.0
H1213 H 0.39173 0.59329 0.16157 0.0
C1214 C 0.38104 0.61717 0.1878 0.0
C1215 C 0.37212 0.63986 0.19341 0.0
C1216 C 0.38207 0.63825 0.10847 0.0
C1217 C 0.38096 0.6276 0.14892 0.0
C1218 C 0.38084 0.63167 0.08622 0.0
C1219 C 0.38015 0.60837 0.08058 0.0
C1220 C 0.38284 0.62139 0.12513 0.0
C1221 C 0.38222 0.59211 0.09769 0.0
C1222 C 0.38537 0.61096 0.16559 0.0
C1223 C 0.36863 0.65602 0.17628 0.0
N1224 N 0.3833 0.59892 0.11916 0.0
N1225 N 0.37296 0.64957 0.15484 0.0
H1226 H 0.3815 0.14623 0.20008 0.0
H1227 H 0.39346 0.10599 0.07324 0.0
H1228 H 0.39831 0.07611 0.17953 0.0
H1229 H 0.3846 0.17666 0.09369 0.0
H1230 H 0.38809 0.09428 0.11205 0.0
H1231 H 0.37563 0.15737 0.16108 0.0
C1232 C 0.38366 0.13317 0.1874 0.0
C1233 C 0.39073 0.11026 0.19308 0.0
C1234 C 0.38705 0.11235 0.10801 0.0
C1235 C 0.38412 0.12282 0.14848 0.0
C1236 C 0.38999 0.11901 0.08584 0.0
C1237 C 0.38981 0.14233 0.08021 0.0
C1238 C 0.38387 0.12911 0.12465 0.0
C1239 C 0.38523 0.15848 0.09726 0.0
C1240 C 0.38037 0.13952 0.16514 0.0
C1241 C 0.39321 0.09403 0.17595 0.0
N1242 N 0.38268 0.15159 0.11868 0.0
N1243 N 0.3901 0.10064 0.15447 0.0
H1244 H 0.37802 0.10764 0.70074 0.0
H1245 H 0.37544 0.14959 0.57417 0.0
H1246 H 0.37063 0.17859 0.68097 0.0
H1247 H 0.36531 0.07883 0.59419 0.0
H1248 H 0.38173 0.16051 0.61319 0.0
H1249 H 0.38148 0.09668 0.66163 0.0
C1250 C 0.37744 0.12091 0.68821 0.0
C1251 C 0.37372 0.14404 0.69413 0.0
C1252 C 0.37831 0.14258 0.609 0.0
C1253 C 0.37761 0.13167 0.6494 0.0
C1254 C 0.37482 0.13635 0.58673 0.0
C1255 C 0.36953 0.1133 0.58091 0.0
C1256 C 0.3767 0.12562 0.62553 0.0
C1257 C 0.36899 0.09685 0.5979 0.0
C1258 C 0.3793 0.11466 0.66589 0.0
C1259 C 0.37313 0.16052 0.67718 0.0
N1260 N 0.37238 0.10333 0.6194 0.0
N1261 N 0.37491 0.15402 0.65562 0.0
H1262 H 0.41944 0.57687 0.67921 0.0
H1263 H 0.38815 0.67941 0.5937 0.0
H1264 H 0.39359 0.64616 0.69922 0.0
H1265 H 0.4047 0.60908 0.57381 0.0
H1266 H 0.38647 0.66724 0.63228 0.0
H1267 H 0.41127 0.58806 0.64064 0.0
C1268 C 0.41197 0.59448 0.67551 0.0
C1269 C 0.40746 0.61066 0.69251 0.0
C1270 C 0.39014 0.65441 0.61951 0.0
C1271 C 0.39802 0.62359 0.6482 0.0
C1272 C 0.39109 0.66134 0.59743 0.0
C1273 C 0.39688 0.64524 0.58048 0.0
C1274 C 0.39529 0.63121 0.62478 0.0
C1275 C 0.40024 0.62207 0.58633 0.0
C1276 C 0.40718 0.60082 0.65343 0.0
C1277 C 0.39748 0.63315 0.68666 0.0
N1278 N 0.39976 0.61577 0.60802 0.0
N1279 N 0.39333 0.63898 0.66497 0.0
H1280 H 0.29356 0.3602 0.24372 0.0
H1281 H 0.4957 0.35376 0.3057 0.0
H1282 H 0.30696 0.3347 0.31036 0.0
H1283 H 0.47561 0.39859 0.25007 0.0
H1284 H 0.42793 0.34328 0.30553 0.0
H1285 H 0.36171 0.37054 0.24338 0.0
C1286 C 0.31089 0.35654 0.25819 0.0
C1287 C 0.29449 0.34655 0.27712 0.0
C1288 C 0.43825 0.35549 0.29341 0.0
C1289 C 0.37241 0.35843 0.27681 0.0
C1290 C 0.47697 0.36149 0.29348 0.0
C1291 C 0.49135 0.37713 0.27789 0.0
C1292 C 0.41362 0.36492 0.27745 0.0
C1293 C 0.46568 0.38659 0.26247 0.0
C1294 C 0.3497 0.36263 0.25803 0.0
C1295 C 0.31832 0.34239 0.29543 0.0
N1296 N 0.42806 0.38021 0.26253 0.0
N1297 N 0.35604 0.3483 0.2948 0.0
H1298 H 0.81287 0.82528 0.22844 0.0
H1299 H 0.97253 0.90417 0.28442 0.0
H1300 H 0.78975 0.86567 0.28675 0.0
H1301 H 1.00026 0.84248 0.24849 0.0
H1302 H 0.90413 0.89415 0.28163 0.0
H1303 H 0.88107 0.83496 0.23189 0.0
C1304 C 0.82215 0.83608 0.24202 0.0
C1305 C 0.79561 0.84458 0.25738 0.0
C1306 C 0.92531 0.88284 0.27441 0.0
C1307 C 0.87334 0.85609 0.26115 0.0
C1308 C 0.96423 0.8886 0.2759 0.0
C1309 C 0.99208 0.87409 0.26676 0.0
C1310 C 0.91426 0.86271 0.26331 0.0
C1311 C 0.97977 0.85408 0.25592 0.0
C1312 C 0.86103 0.84159 0.24398 0.0
C1313 C 0.80926 0.85858 0.27463 0.0
N1314 N 0.94181 0.84906 0.25437 0.0
N1315 N 0.84712 0.86407 0.27594 0.0
H1316 H 0.30226 0.92296 0.01738 0.0
H1317 H 0.47446 0.83193 1.01063 0.0
H1318 H 0.28543 0.85018 1.00895 0.0
H1319 H 0.49151 0.90519 1.01188 0.0
H1320 H 0.40498 0.83822 1.01065 0.0
H1321 H 0.3718 0.91684 0.01608 0.0
C1322 C 0.31314 0.90573 0.01521 0.0
C1323 C 0.28792 0.88708 1.01328 0.0
C1324 C 0.42396 0.85292 1.01086 0.0
C1325 C 0.36743 0.87991 1.01186 0.0
C1326 C 0.46364 0.84931 1.01084 0.0
C1327 C 0.48891 0.86803 1.01125 0.0
C1328 C 0.40942 0.8754 1.01139 0.0
C1329 C 0.47319 0.89021 1.01154 0.0
C1330 C 0.35284 0.90223 1.01446 0.0
C1331 C 0.3037 0.86511 1.01051 0.0
N1332 N 0.43455 0.89327 1.01167 0.0
N1333 N 0.34233 0.86214 1.00994 0.0
H1334 H 0.96915 0.32976 0.05929 0.0
H1335 H 0.8088 0.40405 0.9987 0.0
H1336 H 0.99041 0.36306 0.9967 0.0
H1337 H 0.78127 0.34638 0.04049 0.0
H1338 H 0.87706 0.39352 1.00114 0.0
H1339 H 0.90104 0.33955 0.05584 0.0
C1340 C 0.95945 0.33898 0.04476 0.0
C1341 C 0.98547 0.34549 0.02822 0.0
C1342 C 0.85595 0.38321 1.00972 0.0
C1343 C 0.90783 0.35721 0.02444 0.0
C1344 C 0.81712 0.38928 1.00845 0.0
C1345 C 0.78936 0.37603 0.01934 0.0
C1346 C 0.86701 0.36408 0.02236 0.0
C1347 C 0.80168 0.357 0.0317 0.0
C1348 C 0.92062 0.34457 0.04281 0.0
C1349 C 0.9713 0.35751 1.00976 0.0
N1350 N 0.83954 0.35169 0.03299 0.0
N1351 N 0.93351 0.3632 1.00847 0.0
H1352 H 0.72803 0.67154 0.76864 0.0
H1353 H 0.5509 0.58328 0.76631 0.0
H1354 H 0.74092 0.59797 0.76854 0.0
H1355 H 0.53809 0.65684 0.76502 0.0
H1356 H 0.6207 0.58826 0.7676 0.0
H1357 H 0.65821 0.66654 0.76781 0.0
C1358 C 0.71623 0.65436 0.76847 0.0
C1359 C 0.74043 0.63517 0.76865 0.0
C1360 C 0.60258 0.60331 0.76703 0.0
C1361 C 0.66058 0.62929 0.76769 0.0
C1362 C 0.56272 0.60045 0.76631 0.0
C1363 C 0.53855 0.61964 0.76555 0.0
C1364 C 0.61838 0.62552 0.76702 0.0
C1365 C 0.55553 0.64151 0.76557 0.0
C1366 C 0.67636 0.6515 0.76798 0.0
C1367 C 0.72346 0.6133 0.7684 0.0
N1368 N 0.59429 0.64384 0.7663 0.0
N1369 N 0.68469 0.61097 0.76793 0.0
H1370 H 0.03458 0.15777 0.76485 0.0
H1371 H 0.23927 0.0959 0.76352 0.0
H1372 H 0.04893 0.08432 0.76625 0.0
H1373 H 0.22524 0.16937 0.76526 0.0
H1374 H 0.16979 0.09142 0.76376 0.0
H1375 H 0.10409 0.16232 0.76422 0.0
C1376 C 0.05234 0.14255 0.765 0.0
C1377 C 0.0358 0.12059 0.76561 0.0
C1378 C 0.18182 0.10853 0.76409 0.0
C1379 C 0.11574 0.12576 0.7649 0.0
C1380 C 0.22159 0.11114 0.76394 0.0
C1381 C 0.23823 0.13308 0.76438 0.0
C1382 C 0.15825 0.12799 0.76465 0.0
C1383 C 0.21372 0.15214 0.76492 0.0
C1384 C 0.09211 0.1452 0.76466 0.0
C1385 C 0.06037 0.10156 0.76579 0.0
N1386 N 0.17497 0.14915 0.76504 0.0
N1387 N 0.0991 0.10459 0.76543 0.0
H1388 H 0.55084 0.17184 1.0137 0.0
H1389 H 0.7293 0.08529 0.02185 0.0
H1390 H 0.53948 0.09989 0.029 0.0
H1391 H 0.74109 0.15851 1.01418 0.0
H1392 H 0.65947 0.09005 0.0235 0.0
H1393 H 0.62069 0.1672 1.01308 0.0
C1394 C 0.563 0.15511 0.01703 0.0
C1395 C 0.5392 0.13625 0.0214 0.0
C1396 C 0.6774 0.10507 0.02148 0.0
C1397 C 0.6191 0.13074 0.02054 0.0
C1398 C 0.71725 0.10233 0.02049 0.0
C1399 C 0.74114 0.1215 0.01788 0.0
C1400 C 0.66131 0.12711 0.01974 0.0
C1401 C 0.72389 0.14321 0.01623 0.0
C1402 C 0.60288 0.15245 0.01665 0.0
C1403 C 0.55662 0.11495 0.02556 0.0
N1404 N 0.68513 0.1454 0.01715 0.0
N1405 N 0.59541 0.11277 0.02495 0.0
H1406 H 0.24539 0.65362 0.0223 0.0
H1407 H 0.03768 0.59537 0.02321 0.0
H1408 H 0.22748 0.58062 0.01691 0.0
H1409 H 0.05568 0.66853 0.02081 0.0
H1410 H 0.10691 0.58964 0.0231 0.0
H1411 H 0.17626 0.65921 0.02397 0.0
C1412 C 0.22694 0.6387 0.02153 0.0
C1413 C 0.24239 0.61657 0.01942 0.0
C1414 C 0.09579 0.60695 0.02263 0.0
C1415 C 0.16276 0.62296 0.02133 0.0
C1416 C 0.05617 0.61029 0.02273 0.0
C1417 C 0.04072 0.63251 0.02199 0.0
C1418 C 0.12039 0.62596 0.02186 0.0
C1419 C 0.06625 0.65111 0.02138 0.0
C1420 C 0.18736 0.64195 0.02245 0.0
C1421 C 0.21689 0.59797 0.01851 0.0
N1422 N 0.10482 0.6474 0.02132 0.0
N1423 N 0.17832 0.60159 0.01946 0.0
H1424 H 0.4736 0.90798 0.7844 0.0
H1425 H 0.30849 0.83355 0.72755 0.0
H1426 H 0.4967 0.8498 0.74242 0.0
H1427 H 0.29038 0.86926 0.78921 0.0
H1428 H 0.37667 0.84348 0.72948 0.0
H1429 H 0.40476 0.89843 0.78297 0.0
C1430 C 0.46419 0.89332 0.77482 0.0
C1431 C 0.49087 0.8796 0.76361 0.0
C1432 C 0.35777 0.84904 0.74264 0.0
C1433 C 0.41264 0.86877 0.76174 0.0
C1434 C 0.31888 0.84338 0.74155 0.0
C1435 C 0.29374 0.85046 0.7583 0.0
C1436 C 0.37155 0.86228 0.76038 0.0
C1437 C 0.30881 0.86326 0.77603 0.0
C1438 C 0.42505 0.88781 0.77411 0.0
C1439 C 0.47718 0.86075 0.75147 0.0
N1440 N 0.34669 0.86893 0.77652 0.0
N1441 N 0.43909 0.85597 0.75076 0.0
H1442 H 0.80688 0.34645 0.77963 0.0
H1443 H 0.97082 0.42261 0.72427 0.0
H1444 H 0.78247 0.40503 0.73837 0.0
H1445 H 0.98893 0.38621 0.7856 0.0
H1446 H 0.90268 0.41245 0.72588 0.0
H1447 H 0.87542 0.35658 0.77853 0.0
C1448 C 0.81595 0.36132 0.77027 0.0
C1449 C 0.78898 0.37497 0.75916 0.0
C1450 C 0.92158 0.4068 0.73903 0.0
C1451 C 0.86692 0.38649 0.75768 0.0
C1452 C 0.96043 0.4126 0.73813 0.0
C1453 C 0.98556 0.40535 0.75487 0.0
C1454 C 0.90787 0.39328 0.75657 0.0
C1455 C 0.97052 0.39233 0.77242 0.0
C1456 C 0.85492 0.36717 0.76976 0.0
C1457 C 0.80223 0.39412 0.74732 0.0
N1458 N 0.93271 0.38653 0.77272 0.0
N1459 N 0.84022 0.39923 0.74679 0.0
H1460 H 0.27845 0.35096 0.54774 0.0
H1461 H 0.48571 0.36484 0.49462 0.0
H1462 H 0.30286 0.40325 0.49925 0.0
H1463 H 0.46757 0.33629 0.55968 0.0
H1464 H 0.41754 0.37498 0.49287 0.0
H1465 H 0.34661 0.34168 0.54944 0.0
C1466 C 0.29823 0.36053 0.53745 0.0
C1467 C 0.285 0.3779 0.5233 0.0
C1468 C 0.42856 0.36647 0.50749 0.0
C1469 C 0.36311 0.3671 0.52498 0.0
C1470 C 0.46734 0.36049 0.50844 0.0
C1471 C 0.48235 0.34964 0.52733 0.0
C1472 C 0.40449 0.36122 0.52538 0.0
C1473 C 0.45726 0.34463 0.54482 0.0
C1474 C 0.33714 0.35525 0.53849 0.0
C1475 C 0.31194 0.38982 0.51045 0.0
N1476 N 0.41955 0.35036 0.54338 0.0
N1477 N 0.34978 0.38404 0.51143 0.0
H1478 H 0.97144 0.83165 0.51719 0.0
H1479 H 0.79857 0.92241 0.514 0.0
H1480 H 0.98775 0.90458 0.50974 0.0
H1481 H 0.78231 0.8491 0.51641 0.0
H1482 H 0.8681 0.91633 0.51286 0.0
H1483 H 0.90194 0.83771 0.51715 0.0
C1484 C 0.96044 0.84891 0.51545 0.0
C1485 C 0.9855 0.86761 0.51348 0.0
C1486 C 0.84927 0.90159 0.51361 0.0
C1487 C 0.906 0.87473 0.51355 0.0
C1488 C 0.80958 0.90506 0.5143 0.0
C1489 C 0.78453 0.88626 0.51532 0.0
C1490 C 0.86401 0.87915 0.51401 0.0
C1491 C 0.80046 0.86414 0.51563 0.0
C1492 C 0.92075 0.85238 0.51546 0.0
C1493 C 0.96957 0.88962 0.51131 0.0
N1494 N 0.83909 0.86122 0.51501 0.0
N1495 N 0.93092 0.89257 0.51147 0.0
H1496 H 0.52774 0.15603 0.2511 0.0
H1497 H 0.73336 0.09585 0.25852 0.0
H1498 H 0.54268 0.08317 0.25999 0.0
H1499 H 0.71727 0.16918 0.25858 0.0
H1500 H 0.66401 0.09071 0.25648 0.0
H1501 H 0.59713 0.16084 0.25118 0.0
C1502 C 0.5456 0.14098 0.25299 0.0
C1503 C 0.52925 0.11913 0.25559 0.0
C1504 C 0.6756 0.10793 0.25691 0.0
C1505 C 0.60912 0.12461 0.25571 0.0
C1506 C 0.71527 0.11092 0.25802 0.0
C1507 C 0.73125 0.13302 0.25876 0.0
C1508 C 0.65154 0.12718 0.25642 0.0
C1509 C 0.70626 0.15184 0.25808 0.0
C1510 C 0.58532 0.14379 0.25308 0.0
C1511 C 0.55399 0.10033 0.25796 0.0
N1512 N 0.66766 0.14849 0.25696 0.0
N1513 N 0.5927 0.10351 0.25798 0.0
H1514 H 0.0528 0.57737 0.2655 0.0
H1515 H 0.22779 0.6671 0.26292 0.0
H1516 H 0.03832 0.65054 0.25917 0.0
H1517 H 0.24252 0.59373 0.26592 0.0
H1518 H 0.15811 0.66144 0.26201 0.0
H1519 H 0.12251 0.58296 0.26593 0.0
C1520 C 0.06423 0.59457 0.26412 0.0
C1521 C 0.03962 0.61348 0.2623 0.0
C1522 C 0.17664 0.64659 0.26287 0.0
C1523 C 0.11932 0.62007 0.26289 0.0
C1524 C 0.21641 0.64983 0.26342 0.0
C1525 C 0.24109 0.63089 0.26449 0.0
C1526 C 0.16142 0.62424 0.26344 0.0
C1527 C 0.22468 0.60887 0.26507 0.0
C1528 C 0.10403 0.59778 0.2644 0.0
C1529 C 0.0561 0.63542 0.26062 0.0
N1530 N 0.18598 0.60617 0.26455 0.0
N1531 N 0.09481 0.63809 0.261 0.0
H1532 H 0.73192 0.58322 0.51884 0.0
H1533 H 0.55631 0.67202 0.51451 0.0
H1534 H 0.74591 0.65662 0.51478 0.0
H1535 H 0.54232 0.59908 0.52333 0.0
H1536 H 0.62598 0.66671 0.51435 0.0
H1537 H 0.66224 0.58857 0.52006 0.0
C1538 C 0.72038 0.60043 0.51819 0.0
C1539 C 0.74483 0.61948 0.5167 0.0
C1540 C 0.60764 0.65188 0.51639 0.0
C1541 C 0.66517 0.62575 0.51809 0.0
C1542 C 0.56785 0.65492 0.5165 0.0
C1543 C 0.5434 0.63599 0.51892 0.0
C1544 C 0.62308 0.62973 0.51863 0.0
C1545 C 0.56001 0.6142 0.52141 0.0
C1546 C 0.6806 0.60349 0.51892 0.0
C1547 C 0.72823 0.64141 0.51594 0.0
N1548 N 0.59874 0.61167 0.52113 0.0
N1549 N 0.68953 0.64393 0.51662 0.0
H1550 H 0.03937 0.17042 0.51538 0.0
H1551 H 0.22029 0.08542 0.51081 0.0
H1552 H 0.02989 0.09667 0.51364 0.0
H1553 H 0.23003 0.1591 0.51397 0.0
H1554 H 0.15033 0.0892 0.51154 0.0
H1555 H 0.10936 0.16671 0.51455 0.0
C1556 C 0.05196 0.15347 0.51482 0.0
C1557 C 0.02867 0.13385 0.51459 0.0
C1558 C 0.16781 0.10454 0.51208 0.0
C1559 C 0.10873 0.12944 0.51363 0.0
C1560 C 0.20776 0.10237 0.51166 0.0
C1561 C 0.23111 0.12195 0.51233 0.0
C1562 C 0.15107 0.12644 0.51316 0.0
C1563 C 0.21323 0.1435 0.51342 0.0
C1564 C 0.09193 0.15134 0.51435 0.0
C1565 C 0.04663 0.1123 0.51385 0.0
N1566 N 0.17437 0.14516 0.51379 0.0
N1567 N 0.08549 0.11069 0.5134 0.0
loop_
_geom_bond_atom_site_label_1
_geom_bond_atom_site_label_2
_geom_bond_distance
_geom_bond_site_symmetry_2
_ccdc_geom_bond_type
Mg0 O7 2.141 . S
Mg0 O8 2.048 . S
Mg0 O9 2.048 . S
Mg0 O12 2.141 . S
C1 O2 1.313 . S
C1 O8 1.195 . S
O2 C1 1.313 . S
C3 O4 1.245 . S
C3 O12 1.289 . S
O4 C3 1.245 . S
C5 O6 1.245 . S
C5 O7 1.289 . S
O6 C5 1.245 . S
O7 Mg0 2.141 . S
O7 C5 1.289 . S
O8 Mg0 2.048 . S
O8 C1 1.195 . S
O9 Mg0 2.048 . S
O9 C10 1.195 . S
C10 O9 1.195 . S
C10 O11 1.313 . S
O11 C10 1.313 . S
O12 Mg0 2.141 . S
O12 C3 1.289 . S
Mg13 O20 2.141 . S
Mg13 O21 2.048 . S
Mg13 O22 2.048 . S
Mg13 O25 2.141 . S
C14 O15 1.313 . S
C14 O21 1.195 . S
O15 C14 1.313 . S
C16 O17 1.245 . S
C16 O25 1.289 . S
O17 C16 1.245 . S
C18 O19 1.245 . S
C18 O20 1.289 . S
O19 C18 1.245 . S
O20 Mg13 2.141 . S
O20 C18 1.289 . S
O21 Mg13 2.048 . S
O21 C14 1.195 . S
O22 Mg13 2.048 . S
O22 C23 1.195 . S
C23 O22 1.195 . S
C23 O24 1.313 . S
O24 C23 1.313 . S
O25 Mg13 2.141 . S
O25 C16 1.289 . S
Mg26 O33 2.141 1_554 S
Mg26 O34 2.049 . S
Mg26 O35 2.047 . S
Mg26 O38 2.140 1_554 S
C27 O28 1.313 . S
C27 O34 1.195 . S
O28 C27 1.313 . S
C29 O30 1.245 . S
C29 O38 1.289 . S
O30 C29 1.245 . S
C31 O32 1.245 . S
C31 O33 1.289 . S
O32 C31 1.245 . S
O33 Mg26 2.141 1_556 S
O33 C31 1.289 . S
O34 Mg26 2.049 . S
O34 C27 1.195 . S
O35 Mg26 2.047 . S
O35 C36 1.201 . S
C36 O35 1.201 . S
C36 O37 1.313 . S
O37 C36 1.313 . S
O38 Mg26 2.140 1_556 S
O38 C29 1.289 . S
Mg39 O46 2.141 1_554 S
Mg39 O47 2.049 . S
Mg39 O48 2.047 . S
Mg39 O51 2.140 1_554 S
C40 O41 1.313 . S
C40 O47 1.195 . S
O41 C40 1.313 . S
C42 O43 1.245 . S
C42 O51 1.289 . S
O43 C42 1.245 . S
C44 O45 1.245 . S
C44 O46 1.289 . S
O45 C44 1.245 . S
O46 Mg39 2.141 1_556 S
O46 C44 1.289 . S
O47 Mg39 2.049 . S
O47 C40 1.195 . S
O48 Mg39 2.047 . S
O48 C49 1.201 . S
C49 O48 1.201 . S
C49 O50 1.313 . S
O50 C49 1.313 . S
O51 Mg39 2.140 1_556 S
O51 C42 1.289 . S
Mg52 O59 2.141 . S
Mg52 O60 2.048 . S
Mg52 O61 2.048 . S
Mg52 O64 2.141 . S
C53 O54 1.313 . S
C53 O60 1.195 . S
O54 C53 1.313 . S
C55 O56 1.245 . S
C55 O64 1.289 . S
O56 C55 1.245 . S
C57 O58 1.245 . S
C57 O59 1.289 . S
O58 C57 1.245 . S
O59 Mg52 2.141 . S
O59 C57 1.289 . S
O60 Mg52 2.048 . S
O60 C53 1.195 . S
O61 Mg52 2.048 . S
O61 C62 1.195 . S
C62 O61 1.195 . S
C62 O63 1.313 . S
O63 C62 1.313 . S
O64 Mg52 2.141 . S
O64 C55 1.289 . S
Mg65 O72 2.141 . S
Mg65 O73 2.048 . S
Mg65 O74 2.048 . S
Mg65 O77 2.141 . S
C66 O67 1.313 . S
C66 O73 1.195 . S
O67 C66 1.313 . S
C68 O69 1.245 . S
C68 O77 1.289 . S
O69 C68 1.245 . S
C70 O71 1.245 . S
C70 O72 1.289 . S
O71 C70 1.245 . S
O72 Mg65 2.141 . S
O72 C70 1.289 . S
O73 Mg65 2.048 . S
O73 C66 1.195 . S
O74 Mg65 2.048 . S
O74 C75 1.195 . S
C75 O74 1.195 . S
C75 O76 1.313 . S
O76 C75 1.313 . S
O77 Mg65 2.141 . S
O77 C68 1.289 . S
Mg78 O85 2.141 . S
Mg78 O86 2.048 1_554 S
Mg78 O87 2.048 . S
Mg78 O90 2.141 . S
C79 O80 1.313 . S
C79 O86 1.195 . S
O80 C79 1.313 . S
C81 O82 1.245 . S
C81 O90 1.289 . S
O82 C81 1.245 . S
C83 O84 1.245 1_554 S
C83 O85 1.289 . S
O84 C83 1.245 1_556 S
O85 Mg78 2.141 . S
O85 C83 1.289 . S
O86 Mg78 2.048 1_556 S
O86 C79 1.195 . S
O87 Mg78 2.048 . S
O87 C88 1.190 1_554 S
C88 O87 1.190 1_556 S
C88 O89 1.313 . S
O89 C88 1.313 . S
O90 Mg78 2.141 . S
O90 C81 1.289 . S
Mg91 O98 2.141 . S
Mg91 O99 2.048 1_554 S
Mg91 O100 2.048 . S
Mg91 O103 2.141 . S
C92 O93 1.313 . S
C92 O99 1.195 . S
O93 C92 1.313 . S
C94 O95 1.245 . S
C94 O103 1.289 . S
O95 C94 1.245 . S
C96 O97 1.245 1_554 S
C96 O98 1.289 . S
O97 C96 1.245 1_556 S
O98 Mg91 2.141 . S
O98 C96 1.289 . S
O99 Mg91 2.048 1_556 S
O99 C92 1.195 . S
O100 Mg91 2.048 . S
O100 C101 1.190 1_554 S
C101 O100 1.190 1_556 S
C101 O102 1.313 . S
O102 C101 1.313 . S
O103 Mg91 2.141 . S
O103 C94 1.289 . S
Mg104 O111 2.141 . S
Mg104 O112 2.048 . S
Mg104 O113 2.048 . S
Mg104 O116 2.141 . S
C105 O106 1.313 . S
C105 O112 1.195 . S
O106 C105 1.313 . S
C107 O108 1.245 . S
C107 O116 1.289 . S
O108 C107 1.245 . S
C109 O110 1.245 . S
C109 O111 1.289 . S
O110 C109 1.245 . S
O111 Mg104 2.141 . S
O111 C109 1.289 . S
O112 Mg104 2.048 . S
O112 C105 1.195 . S
O113 Mg104 2.048 . S
O113 C114 1.195 . S
C114 O113 1.195 . S
C114 O115 1.313 . S
O115 C114 1.313 . S
O116 Mg104 2.141 . S
O116 C107 1.289 . S
Mg117 O124 2.141 . S
Mg117 O125 2.048 . S
Mg117 O126 2.048 . S
Mg117 O129 2.141 . S
C118 O119 1.313 . S
C118 O125 1.195 . S
O119 C118 1.313 . S
C120 O121 1.245 . S
C120 O129 1.289 . S
O121 C120 1.245 . S
C122 O123 1.245 . S
C122 O124 1.289 . S
O123 C122 1.245 . S
O124 Mg117 2.141 . S
O124 C122 1.289 . S
O125 Mg117 2.048 . S
O125 C118 1.195 . S
O126 Mg117 2.048 . S
O126 C127 1.195 . S
C127 O126 1.195 . S
C127 O128 1.313 . S
O128 C127 1.313 . S
O129 Mg117 2.141 . S
O129 C120 1.289 . S
Mg130 O137 2.141 . S
Mg130 O138 2.048 . S
Mg130 O139 2.048 . S
Mg130 O142 2.141 . S
C131 O132 1.313 . S
C131 O138 1.195 . S
O132 C131 1.313 . S
C133 O134 1.245 . S
C133 O142 1.289 . S
O134 C133 1.245 . S
C135 O136 1.245 . S
C135 O137 1.289 . S
O136 C135 1.245 . S
O137 Mg130 2.141 . S
O137 C135 1.289 . S
O138 Mg130 2.048 . S
O138 C131 1.195 . S
O139 Mg130 2.048 . S
O139 C140 1.195 . S
C140 O139 1.195 . S
C140 O141 1.313 . S
O141 C140 1.313 . S
O142 Mg130 2.141 . S
O142 C133 1.289 . S
Mg143 O150 2.141 . S
Mg143 O151 2.048 . S
Mg143 O152 2.048 . S
Mg143 O155 2.141 . S
C144 O145 1.313 . S
C144 O151 1.195 . S
O145 C144 1.313 . S
C146 O147 1.245 . S
C146 O155 1.289 . S
O147 C146 1.245 . S
C148 O149 1.245 . S
C148 O150 1.289 . S
O149 C148 1.245 . S
O150 Mg143 2.141 . S
O150 C148 1.289 . S
O151 Mg143 2.048 . S
O151 C144 1.195 . S
O152 Mg143 2.048 . S
O152 C153 1.195 . S
C153 O152 1.195 . S
C153 O154 1.313 . S
O154 C153 1.313 . S
O155 Mg143 2.141 . S
O155 C146 1.289 . S
Mg156 O163 2.141 . S
Mg156 O164 2.048 . S
Mg156 O165 2.048 . S
Mg156 O168 2.141 . S
C157 O158 1.313 . S
C157 O164 1.195 . S
O158 C157 1.313 . S
C159 O160 1.245 . S
C159 O168 1.289 . S
O160 C159 1.245 . S
C161 O162 1.245 . S
C161 O163 1.289 . S
O162 C161 1.245 . S
O163 Mg156 2.141 . S
O163 C161 1.289 . S
O164 Mg156 2.048 . S
O164 C157 1.195 . S
O165 Mg156 2.048 . S
O165 C166 1.195 . S
C166 O165 1.195 . S
C166 O167 1.313 . S
O167 C166 1.313 . S
O168 Mg156 2.141 . S
O168 C159 1.289 . S
Mg169 O176 2.141 . S
Mg169 O177 2.048 . S
Mg169 O178 2.048 . S
Mg169 O181 2.141 . S
C170 O171 1.313 . S
C170 O177 1.195 . S
O171 C170 1.313 . S
C172 O173 1.245 . S
C172 O181 1.289 . S
O173 C172 1.245 . S
C174 O175 1.245 . S
C174 O176 1.289 . S
O175 C174 1.245 . S
O176 Mg169 2.141 . S
O176 C174 1.289 . S
O177 Mg169 2.048 . S
O177 C170 1.195 . S
O178 Mg169 2.048 . S
O178 C179 1.195 . S
C179 O178 1.195 . S
C179 O180 1.313 . S
O180 C179 1.313 . S
O181 Mg169 2.141 . S
O181 C172 1.289 . S
Mg182 O189 2.141 . S
Mg182 O190 2.048 . S
Mg182 O191 2.048 . S
Mg182 O194 2.141 . S
C183 O184 1.313 . S
C183 O190 1.195 . S
O184 C183 1.313 . S
C185 O186 1.245 . S
C185 O194 1.289 . S
O186 C185 1.245 . S
C187 O188 1.245 . S
C187 O189 1.289 . S
O188 C187 1.245 . S
O189 Mg182 2.141 . S
O189 C187 1.289 . S
O190 Mg182 2.048 . S
O190 C183 1.195 . S
O191 Mg182 2.048 . S
O191 C192 1.195 . S
C192 O191 1.195 . S
C192 O193 1.313 . S
O193 C192 1.313 . S
O194 Mg182 2.141 . S
O194 C185 1.289 . S
Mg195 O202 2.141 . S
Mg195 O203 2.048 . S
Mg195 O204 2.048 . S
Mg195 O207 2.141 . S
C196 O197 1.313 . S
C196 O203 1.195 . S
O197 C196 1.313 . S
C198 O199 1.245 . S
C198 O207 1.289 . S
O199 C198 1.245 . S
C200 O201 1.245 . S
C200 O202 1.289 . S
O201 C200 1.245 . S
O202 Mg195 2.141 . S
O202 C200 1.289 . S
O203 Mg195 2.048 . S
O203 C196 1.195 . S
O204 Mg195 2.048 . S
O204 C205 1.195 . S
C205 O204 1.195 . S
C205 O206 1.313 . S
O206 C205 1.313 . S
O207 Mg195 2.141 . S
O207 C198 1.289 . S
Mg208 O215 2.141 . S
Mg208 O216 2.048 . S
Mg208 O217 2.048 . S
Mg208 O220 2.141 . S
C209 O210 1.313 . S
C209 O216 1.195 . S
O210 C209 1.313 . S
C211 O212 1.245 . S
C211 O220 1.289 . S
O212 C211 1.245 . S
C213 O214 1.245 . S
C213 O215 1.289 . S
O214 C213 1.245 . S
O215 Mg208 2.141 . S
O215 C213 1.289 . S
O216 Mg208 2.048 . S
O216 C209 1.195 . S
O217 Mg208 2.048 . S
O217 C218 1.195 . S
C218 O217 1.195 . S
C218 O219 1.313 . S
O219 C218 1.313 . S
O220 Mg208 2.141 . S
O220 C211 1.289 . S
Mg221 O228 2.141 . S
Mg221 O229 2.048 . S
Mg221 O230 2.048 . S
Mg221 O233 2.141 . S
C222 O223 1.313 . S
C222 O229 1.195 . S
O223 C222 1.313 . S
C224 O225 1.245 . S
C224 O233 1.289 . S
O225 C224 1.245 . S
C226 O227 1.245 . S
C226 O228 1.289 . S
O227 C226 1.245 . S
O228 Mg221 2.141 . S
O228 C226 1.289 . S
O229 Mg221 2.048 . S
O229 C222 1.195 . S
O230 Mg221 2.048 . S
O230 C231 1.195 . S
C231 O230 1.195 . S
C231 O232 1.313 . S
O232 C231 1.313 . S
O233 Mg221 2.141 . S
O233 C224 1.289 . S
Mg234 O241 2.141 . S
Mg234 O242 2.048 . S
Mg234 O243 2.048 . S
Mg234 O246 2.141 . S
C235 O236 1.313 . S
C235 O242 1.195 . S
O236 C235 1.313 . S
C237 O238 1.245 . S
C237 O246 1.289 . S
O238 C237 1.245 . S
C239 O240 1.245 . S
C239 O241 1.289 . S
O240 C239 1.245 . S
O241 Mg234 2.141 . S
O241 C239 1.289 . S
O242 Mg234 2.048 . S
O242 C235 1.195 . S
O243 Mg234 2.048 . S
O243 C244 1.195 . S
C244 O243 1.195 . S
C244 O245 1.313 . S
O245 C244 1.313 . S
O246 Mg234 2.141 . S
O246 C237 1.289 . S
Mg247 O254 2.141 . S
Mg247 O255 2.048 . S
Mg247 O256 2.048 . S
Mg247 O259 2.141 . S
C248 O249 1.313 . S
C248 O255 1.195 . S
O249 C248 1.313 . S
C250 O251 1.245 . S
C250 O259 1.289 . S
O251 C250 1.245 . S
C252 O253 1.245 . S
C252 O254 1.289 . S
O253 C252 1.245 . S
O254 Mg247 2.141 . S
O254 C252 1.289 . S
O255 Mg247 2.048 . S
O255 C248 1.195 . S
O256 Mg247 2.048 . S
O256 C257 1.195 . S
C257 O256 1.195 . S
C257 O258 1.313 . S
O258 C257 1.313 . S
O259 Mg247 2.141 . S
O259 C250 1.289 . S
Mg260 O267 2.141 . S
Mg260 O268 2.048 . S
Mg260 O269 2.048 . S
Mg260 O272 2.141 . S
C261 O262 1.313 . S
C261 O268 1.195 . S
O262 C261 1.313 . S
C263 O264 1.245 . S
C263 O272 1.289 . S
O264 C263 1.245 . S
C265 O266 1.245 . S
C265 O267 1.289 . S
O266 C265 1.245 . S
O267 Mg260 2.141 . S
O267 C265 1.289 . S
O268 Mg260 2.048 . S
O268 C261 1.195 . S
O269 Mg260 2.048 . S
O269 C270 1.195 . S
C270 O269 1.195 . S
C270 O271 1.313 . S
O271 C270 1.313 . S
O272 Mg260 2.141 . S
O272 C263 1.289 . S
Mg273 O280 2.141 . S
Mg273 O281 2.048 . S
Mg273 O282 2.048 . S
Mg273 O285 2.141 . S
C274 O275 1.313 . S
C274 O281 1.195 . S
O275 C274 1.313 . S
C276 O277 1.245 . S
C276 O285 1.289 . S
O277 C276 1.245 . S
C278 O279 1.245 . S
C278 O280 1.289 . S
O279 C278 1.245 . S
O280 Mg273 2.141 . S
O280 C278 1.289 . S
O281 Mg273 2.048 . S
O281 C274 1.195 . S
O282 Mg273 2.048 . S
O282 C283 1.195 . S
C283 O282 1.195 . S
C283 O284 1.313 . S
O284 C283 1.313 . S
O285 Mg273 2.141 . S
O285 C276 1.289 . S
Mg286 O293 2.141 . S
Mg286 O294 2.048 . S
Mg286 O295 2.048 . S
Mg286 O298 2.141 . S
C287 O288 1.313 . S
C287 O294 1.195 . S
O288 C287 1.313 . S
C289 O290 1.245 . S
C289 O298 1.289 . S
O290 C289 1.245 . S
C291 O292 1.245 . S
C291 O293 1.289 . S
O292 C291 1.245 . S
O293 Mg286 2.141 . S
O293 C291 1.289 . S
O294 Mg286 2.048 . S
O294 C287 1.195 . S
O295 Mg286 2.048 . S
O295 C296 1.195 . S
C296 O295 1.195 . S
C296 O297 1.313 . S
O297 C296 1.313 . S
O298 Mg286 2.141 . S
O298 C289 1.289 . S
Mg299 O306 2.141 . S
Mg299 O307 2.048 . S
Mg299 O308 2.048 . S
Mg299 O311 2.141 . S
C300 O301 1.313 . S
C300 O307 1.195 . S
O301 C300 1.313 . S
C302 O303 1.245 . S
C302 O311 1.289 . S
O303 C302 1.245 . S
C304 O305 1.245 . S
C304 O306 1.289 . S
O305 C304 1.245 . S
O306 Mg299 2.141 . S
O306 C304 1.289 . S
O307 Mg299 2.048 . S
O307 C300 1.195 . S
O308 Mg299 2.048 . S
O308 C309 1.195 . S
C309 O308 1.195 . S
C309 O310 1.313 . S
O310 C309 1.313 . S
O311 Mg299 2.141 . S
O311 C302 1.289 . S
Mg312 O319 2.141 . S
Mg312 O320 2.048 . S
Mg312 O321 2.048 . S
Mg312 O324 2.141 . S
C313 O314 1.313 . S
C313 O320 1.195 . S
O314 C313 1.313 . S
C315 O316 1.245 . S
C315 O324 1.289 . S
O316 C315 1.245 . S
C317 O318 1.245 . S
C317 O319 1.289 . S
O318 C317 1.245 . S
O319 Mg312 2.141 . S
O319 C317 1.289 . S
O320 Mg312 2.048 . S
O320 C313 1.195 . S
O321 Mg312 2.048 . S
O321 C322 1.195 . S
C322 O321 1.195 . S
C322 O323 1.313 . S
O323 C322 1.313 . S
O324 Mg312 2.141 . S
O324 C315 1.289 . S
Mg325 O332 2.141 . S
Mg325 O333 2.048 . S
Mg325 O334 2.048 . S
Mg325 O337 2.141 . S
C326 O327 1.313 . S
C326 O333 1.195 . S
O327 C326 1.313 . S
C328 O329 1.245 . S
C328 O337 1.289 . S
O329 C328 1.245 . S
C330 O331 1.245 . S
C330 O332 1.289 . S
O331 C330 1.245 . S
O332 Mg325 2.141 . S
O332 C330 1.289 . S
O333 Mg325 2.048 . S
O333 C326 1.195 . S
O334 Mg325 2.048 . S
O334 C335 1.195 . S
C335 O334 1.195 . S
C335 O336 1.313 . S
O336 C335 1.313 . S
O337 Mg325 2.141 . S
O337 C328 1.289 . S
Mg338 O345 2.141 1_554 S
Mg338 O346 2.049 . S
Mg338 O347 2.047 . S
Mg338 O350 2.140 1_554 S
C339 O340 1.313 . S
C339 O346 1.195 . S
O340 C339 1.313 . S
C341 O342 1.245 . S
C341 O350 1.289 . S
O342 C341 1.245 . S
C343 O344 1.245 . S
C343 O345 1.289 . S
O344 C343 1.245 . S
O345 Mg338 2.141 1_556 S
O345 C343 1.289 . S
O346 Mg338 2.049 . S
O346 C339 1.195 . S
O347 Mg338 2.047 . S
O347 C348 1.201 . S
C348 O347 1.201 . S
C348 O349 1.313 . S
O349 C348 1.313 . S
O350 Mg338 2.140 1_556 S
O350 C341 1.289 . S
Mg351 O358 2.141 1_554 S
Mg351 O359 2.049 . S
Mg351 O360 2.047 . S
Mg351 O363 2.140 1_554 S
C352 O353 1.313 . S
C352 O359 1.195 . S
O353 C352 1.313 . S
C354 O355 1.245 . S
C354 O363 1.289 . S
O355 C354 1.245 . S
C356 O357 1.245 . S
C356 O358 1.289 . S
O357 C356 1.245 . S
O358 Mg351 2.141 1_556 S
O358 C356 1.289 . S
O359 Mg351 2.049 . S
O359 C352 1.195 . S
O360 Mg351 2.047 . S
O360 C361 1.201 . S
C361 O360 1.201 . S
C361 O362 1.313 . S
O362 C361 1.313 . S
O363 Mg351 2.140 1_556 S
O363 C354 1.289 . S
Mg364 O371 2.141 . S
Mg364 O372 2.048 . S
Mg364 O373 2.048 . S
Mg364 O376 2.141 . S
C365 O366 1.313 . S
C365 O372 1.195 . S
O366 C365 1.313 . S
C367 O368 1.245 . S
C367 O376 1.289 . S
O368 C367 1.245 . S
C369 O370 1.245 . S
C369 O371 1.289 . S
O370 C369 1.245 . S
O371 Mg364 2.141 . S
O371 C369 1.289 . S
O372 Mg364 2.048 . S
O372 C365 1.195 . S
O373 Mg364 2.048 . S
O373 C374 1.195 . S
C374 O373 1.195 . S
C374 O375 1.313 . S
O375 C374 1.313 . S
O376 Mg364 2.141 . S
O376 C367 1.289 . S
Mg377 O384 2.141 . S
Mg377 O385 2.048 . S
Mg377 O386 2.048 . S
Mg377 O389 2.141 . S
C378 O379 1.313 . S
C378 O385 1.195 . S
O379 C378 1.313 . S
C380 O381 1.245 . S
C380 O389 1.289 . S
O381 C380 1.245 . S
C382 O383 1.245 . S
C382 O384 1.289 . S
O383 C382 1.245 . S
O384 Mg377 2.141 . S
O384 C382 1.289 . S
O385 Mg377 2.048 . S
O385 C378 1.195 . S
O386 Mg377 2.048 . S
O386 C387 1.195 . S
C387 O386 1.195 . S
C387 O388 1.313 . S
O388 C387 1.313 . S
O389 Mg377 2.141 . S
O389 C380 1.289 . S
Mg390 O397 2.141 . S
Mg390 O398 2.048 1_554 S
Mg390 O399 2.048 . S
Mg390 O402 2.141 . S
C391 O392 1.313 . S
C391 O398 1.195 . S
O392 C391 1.313 . S
C393 O394 1.245 . S
C393 O402 1.289 . S
O394 C393 1.245 . S
C395 O396 1.245 1_554 S
C395 O397 1.289 . S
O396 C395 1.245 1_556 S
O397 Mg390 2.141 . S
O397 C395 1.289 . S
O398 Mg390 2.048 1_556 S
O398 C391 1.195 . S
O399 Mg390 2.048 . S
O399 C400 1.190 1_554 S
C400 O399 1.190 1_556 S
C400 O401 1.313 . S
O401 C400 1.313 . S
O402 Mg390 2.141 . S
O402 C393 1.289 . S
Mg403 O410 2.141 . S
Mg403 O411 2.048 1_554 S
Mg403 O412 2.048 . S
Mg403 O415 2.141 . S
C404 O405 1.313 . S
C404 O411 1.195 . S
O405 C404 1.313 . S
C406 O407 1.245 . S
C406 O415 1.289 . S
O407 C406 1.245 . S
C408 O409 1.245 1_554 S
C408 O410 1.289 . S
O409 C408 1.245 1_556 S
O410 Mg403 2.141 . S
O410 C408 1.289 . S
O411 Mg403 2.048 1_556 S
O411 C404 1.195 . S
O412 Mg403 2.048 . S
O412 C413 1.190 1_554 S
C413 O412 1.190 1_556 S
C413 O414 1.313 . S
O414 C413 1.313 . S
O415 Mg403 2.141 . S
O415 C406 1.289 . S
H416 C422 0.930 . S
H417 C426 0.930 . S
H418 C431 0.929 . S
H419 C429 0.929 . S
H420 C424 0.929 . S
H421 C430 0.929 . S
C422 H416 0.930 . S
C422 C423 1.367 . S
C422 C430 1.378 . S
C423 C422 1.367 . S
C423 C431 1.433 . S
C424 H420 0.929 . S
C424 C426 1.378 . S
C424 C428 1.350 . S
C425 C428 1.463 . S
C425 C430 1.350 . S
C425 N433 1.427 . S
C426 H417 0.930 . S
C426 C424 1.378 . S
C426 C427 1.367 . S
C427 C426 1.367 . S
C427 C429 1.433 . S
C428 C424 1.350 . S
C428 C425 1.463 . S
C428 N432 1.427 . S
C429 H419 0.929 . S
C429 C427 1.433 . S
C429 N432 1.384 . S
C430 H421 0.929 . S
C430 C422 1.378 . S
C430 C425 1.350 . S
C431 H418 0.929 . S
C431 C423 1.433 . S
C431 N433 1.384 . S
N432 C428 1.427 . S
N432 C429 1.384 . S
N433 C425 1.427 . S
N433 C431 1.384 . S
H434 C440 0.930 . S
H435 C444 0.930 . S
H436 C449 0.929 . S
H437 C447 0.929 . S
H438 C442 0.929 . S
H439 C448 0.929 . S
C440 H434 0.930 . S
C440 C441 1.367 . S
C440 C448 1.378 . S
C441 C440 1.367 . S
C441 C449 1.433 . S
C442 H438 0.929 . S
C442 C444 1.378 . S
C442 C446 1.350 . S
C443 C446 1.463 . S
C443 C448 1.350 . S
C443 N451 1.427 . S
C444 H435 0.930 . S
C444 C442 1.378 . S
C444 C445 1.367 . S
C445 C444 1.367 . S
C445 C447 1.433 . S
C446 C442 1.350 . S
C446 C443 1.463 . S
C446 N450 1.427 . S
C447 H437 0.929 . S
C447 C445 1.433 . S
C447 N450 1.384 . S
C448 H439 0.929 . S
C448 C440 1.378 . S
C448 C443 1.350 . S
C449 H436 0.929 . S
C449 C441 1.433 . S
C449 N451 1.384 . S
N450 C446 1.427 . S
N450 C447 1.384 . S
N451 C443 1.427 . S
N451 C449 1.384 . S
H452 C458 0.930 . S
H453 C462 0.930 . S
H454 C467 0.929 . S
H455 C465 0.929 . S
H456 C460 0.929 . S
H457 C466 0.929 . S
C458 H452 0.930 . S
C458 C459 1.367 . S
C458 C466 1.378 . S
C459 C458 1.367 . S
C459 C467 1.433 . S
C460 H456 0.929 . S
C460 C462 1.378 . S
C460 C464 1.350 . S
C461 C464 1.463 . S
C461 C466 1.350 . S
C461 N469 1.427 . S
C462 H453 0.930 . S
C462 C460 1.378 . S
C462 C463 1.367 . S
C463 C462 1.367 . S
C463 C465 1.433 . S
C464 C460 1.350 . S
C464 C461 1.463 . S
C464 N468 1.427 . S
C465 H455 0.929 . S
C465 C463 1.433 . S
C465 N468 1.384 . S
C466 H457 0.929 . S
C466 C458 1.378 . S
C466 C461 1.350 . S
C467 H454 0.929 . S
C467 C459 1.433 . S
C467 N469 1.384 . S
N468 C464 1.427 . S
N468 C465 1.384 . S
N469 C461 1.427 . S
N469 C467 1.384 . S
H470 C476 0.930 . S
H471 C480 0.930 . S
H472 C485 0.929 . S
H473 C483 0.929 . S
H474 C478 0.929 . S
H475 C484 0.929 . S
C476 H470 0.930 . S
C476 C477 1.367 . S
C476 C484 1.378 . S
C477 C476 1.367 . S
C477 C485 1.433 . S
C478 H474 0.929 . S
C478 C480 1.378 . S
C478 C482 1.350 . S
C479 C482 1.463 . S
C479 C484 1.350 . S
C479 N487 1.427 . S
C480 H471 0.930 . S
C480 C478 1.378 . S
C480 C481 1.367 . S
C481 C480 1.367 . S
C481 C483 1.433 . S
C482 C478 1.350 . S
C482 C479 1.463 . S
C482 N486 1.427 . S
C483 H473 0.929 . S
C483 C481 1.433 . S
C483 N486 1.384 . S
C484 H475 0.929 . S
C484 C476 1.378 . S
C484 C479 1.350 . S
C485 H472 0.929 . S
C485 C477 1.433 . S
C485 N487 1.384 . S
N486 C482 1.427 . S
N486 C483 1.384 . S
N487 C479 1.427 . S
N487 C485 1.384 . S
H488 C494 0.930 . S
H489 C498 0.930 . S
H490 C503 0.929 . S
H491 C501 0.929 . S
H492 C496 0.929 . S
H493 C502 0.929 . S
C494 H488 0.930 . S
C494 C495 1.367 . S
C494 C502 1.378 . S
C495 C494 1.367 . S
C495 C503 1.433 . S
C496 H492 0.929 . S
C496 C498 1.378 . S
C496 C500 1.350 . S
C497 C500 1.463 . S
C497 C502 1.350 . S
C497 N505 1.427 . S
C498 H489 0.930 . S
C498 C496 1.378 . S
C498 C499 1.367 . S
C499 C498 1.367 . S
C499 C501 1.433 . S
C500 C496 1.350 . S
C500 C497 1.463 . S
C500 N504 1.427 . S
C501 H491 0.929 . S
C501 C499 1.433 . S
C501 N504 1.384 . S
C502 H493 0.929 . S
C502 C494 1.378 . S
C502 C497 1.350 . S
C503 H490 0.929 . S
C503 C495 1.433 . S
C503 N505 1.384 . S
N504 C500 1.427 . S
N504 C501 1.384 . S
N505 C497 1.427 . S
N505 C503 1.384 . S
H506 C512 0.930 . S
H507 C516 0.930 . S
H508 C521 0.929 . S
H509 C519 0.929 . S
H510 C514 0.929 . S
H511 C520 0.929 . S
C512 H506 0.930 . S
C512 C513 1.367 . S
C512 C520 1.378 . S
C513 C512 1.367 . S
C513 C521 1.433 . S
C514 H510 0.929 . S
C514 C516 1.378 . S
C514 C518 1.350 . S
C515 C518 1.463 . S
C515 C520 1.350 . S
C515 N523 1.427 . S
C516 H507 0.930 . S
C516 C514 1.378 . S
C516 C517 1.367 . S
C517 C516 1.367 . S
C517 C519 1.433 . S
C518 C514 1.350 . S
C518 C515 1.463 . S
C518 N522 1.427 . S
C519 H509 0.929 . S
C519 C517 1.433 . S
C519 N522 1.384 . S
C520 H511 0.929 . S
C520 C512 1.378 . S
C520 C515 1.350 . S
C521 H508 0.929 . S
C521 C513 1.433 . S
C521 N523 1.384 . S
N522 C518 1.427 . S
N522 C519 1.384 . S
N523 C515 1.427 . S
N523 C521 1.384 . S
H524 C530 0.930 . S
H525 C534 0.930 . S
H526 C539 0.929 . S
H527 C537 0.929 . S
H528 C532 0.929 . S
H529 C538 0.929 . S
C530 H524 0.930 . S
C530 C531 1.367 . S
C530 C538 1.378 . S
C531 C530 1.367 . S
C531 C539 1.433 . S
C532 H528 0.929 . S
C532 C534 1.378 . S
C532 C536 1.350 . S
C533 C536 1.463 . S
C533 C538 1.350 . S
C533 N541 1.427 . S
C534 H525 0.930 . S
C534 C532 1.378 . S
C534 C535 1.367 . S
C535 C534 1.367 . S
C535 C537 1.433 . S
C536 C532 1.350 . S
C536 C533 1.463 . S
C536 N540 1.427 . S
C537 H527 0.929 . S
C537 C535 1.433 . S
C537 N540 1.384 . S
C538 H529 0.929 . S
C538 C530 1.378 . S
C538 C533 1.350 . S
C539 H526 0.929 . S
C539 C531 1.433 . S
C539 N541 1.384 . S
N540 C536 1.427 . S
N540 C537 1.384 . S
N541 C533 1.427 . S
N541 C539 1.384 . S
H542 C548 0.930 . S
H543 C552 0.930 . S
H544 C557 0.929 . S
H545 C555 0.929 . S
H546 C550 0.929 . S
H547 C556 0.929 . S
C548 H542 0.930 . S
C548 C549 1.367 . S
C548 C556 1.378 . S
C549 C548 1.367 . S
C549 C557 1.433 . S
C550 H546 0.929 . S
C550 C552 1.378 . S
C550 C554 1.350 . S
C551 C554 1.463 . S
C551 C556 1.350 . S
C551 N559 1.427 . S
C552 H543 0.930 . S
C552 C550 1.378 . S
C552 C553 1.367 . S
C553 C552 1.367 . S
C553 C555 1.433 . S
C554 C550 1.350 . S
C554 C551 1.463 . S
C554 N558 1.427 . S
C555 H545 0.929 . S
C555 C553 1.433 . S
C555 N558 1.384 . S
C556 H547 0.929 . S
C556 C548 1.378 . S
C556 C551 1.350 . S
C557 H544 0.929 . S
C557 C549 1.433 . S
C557 N559 1.384 . S
N558 C554 1.427 . S
N558 C555 1.384 . S
N559 C551 1.427 . S
N559 C557 1.384 . S
H560 C566 0.930 . S
H561 C570 0.930 . S
H562 C575 0.929 . S
H563 C573 0.929 . S
H564 C568 0.929 . S
H565 C574 0.929 . S
C566 H560 0.930 . S
C566 C567 1.367 . S
C566 C574 1.378 . S
C567 C566 1.367 . S
C567 C575 1.433 . S
C568 H564 0.929 . S
C568 C570 1.378 . S
C568 C572 1.350 . S
C569 C572 1.463 . S
C569 C574 1.350 . S
C569 N577 1.427 . S
C570 H561 0.930 . S
C570 C568 1.378 . S
C570 C571 1.367 . S
C571 C570 1.367 . S
C571 C573 1.433 . S
C572 C568 1.350 . S
C572 C569 1.463 . S
C572 N576 1.427 . S
C573 H563 0.929 . S
C573 C571 1.433 . S
C573 N576 1.384 . S
C574 H565 0.929 . S
C574 C566 1.378 . S
C574 C569 1.350 . S
C575 H562 0.929 . S
C575 C567 1.433 . S
C575 N577 1.384 . S
N576 C572 1.427 . S
N576 C573 1.384 . S
N577 C569 1.427 . S
N577 C575 1.384 . S
H578 C584 0.930 . S
H579 C588 0.930 . S
H580 C593 0.929 . S
H581 C591 0.929 . S
H582 C586 0.929 . S
H583 C592 0.929 . S
C584 H578 0.930 . S
C584 C585 1.367 . S
C584 C592 1.378 . S
C585 C584 1.367 . S
C585 C593 1.433 . S
C586 H582 0.929 . S
C586 C588 1.378 . S
C586 C590 1.350 . S
C587 C590 1.463 . S
C587 C592 1.350 . S
C587 N595 1.427 . S
C588 H579 0.930 . S
C588 C586 1.378 . S
C588 C589 1.367 . S
C589 C588 1.367 . S
C589 C591 1.433 . S
C590 C586 1.350 . S
C590 C587 1.463 . S
C590 N594 1.427 . S
C591 H581 0.929 . S
C591 C589 1.433 . S
C591 N594 1.384 . S
C592 H583 0.929 . S
C592 C584 1.378 . S
C592 C587 1.350 . S
C593 H580 0.929 . S
C593 C585 1.433 . S
C593 N595 1.384 . S
N594 C590 1.427 . S
N594 C591 1.384 . S
N595 C587 1.427 . S
N595 C593 1.384 . S
H596 C602 0.930 . S
H597 C606 0.930 . S
H598 C611 0.929 . S
H599 C609 0.929 . S
H600 C604 0.929 . S
H601 C610 0.929 . S
C602 H596 0.930 . S
C602 C603 1.367 . S
C602 C610 1.378 . S
C603 C602 1.367 . S
C603 C611 1.433 . S
C604 H600 0.929 . S
C604 C606 1.378 . S
C604 C608 1.350 . S
C605 C608 1.463 . S
C605 C610 1.350 . S
C605 N613 1.427 . S
C606 H597 0.930 . S
C606 C604 1.378 . S
C606 C607 1.367 . S
C607 C606 1.367 . S
C607 C609 1.433 . S
C608 C604 1.350 . S
C608 C605 1.463 . S
C608 N612 1.427 . S
C609 H599 0.929 . S
C609 C607 1.433 . S
C609 N612 1.384 . S
C610 H601 0.929 . S
C610 C602 1.378 . S
C610 C605 1.350 . S
C611 H598 0.929 . S
C611 C603 1.433 . S
C611 N613 1.384 . S
N612 C608 1.427 . S
N612 C609 1.384 . S
N613 C605 1.427 . S
N613 C611 1.384 . S
H614 C620 0.930 . S
H615 C624 0.930 . S
H616 C629 0.929 . S
H617 C627 0.929 . S
H618 C622 0.929 . S
H619 C628 0.929 . S
C620 H614 0.930 . S
C620 C621 1.367 . S
C620 C628 1.378 . S
C621 C620 1.367 . S
C621 C629 1.433 . S
C622 H618 0.929 . S
C622 C624 1.378 . S
C622 C626 1.350 . S
C623 C626 1.463 . S
C623 C628 1.350 . S
C623 N631 1.427 . S
C624 H615 0.930 . S
C624 C622 1.378 . S
C624 C625 1.367 . S
C625 C624 1.367 . S
C625 C627 1.433 . S
C626 C622 1.350 . S
C626 C623 1.463 . S
C626 N630 1.427 . S
C627 H617 0.929 . S
C627 C625 1.433 . S
C627 N630 1.384 . S
C628 H619 0.929 . S
C628 C620 1.378 . S
C628 C623 1.350 . S
C629 H616 0.929 . S
C629 C621 1.433 . S
C629 N631 1.384 . S
N630 C626 1.427 . S
N630 C627 1.384 . S
N631 C623 1.427 . S
N631 C629 1.384 . S
H632 C638 0.930 . S
H633 C642 0.930 . S
H634 C647 0.929 . S
H635 C645 0.929 . S
H636 C640 0.929 . S
H637 C646 0.929 . S
C638 H632 0.930 . S
C638 C639 1.367 . S
C638 C646 1.378 . S
C639 C638 1.367 . S
C639 C647 1.433 . S
C640 H636 0.929 . S
C640 C642 1.378 . S
C640 C644 1.350 . S
C641 C644 1.463 . S
C641 C646 1.350 . S
C641 N649 1.427 . S
C642 H633 0.930 . S
C642 C640 1.378 . S
C642 C643 1.367 . S
C643 C642 1.367 . S
C643 C645 1.433 . S
C644 C640 1.350 . S
C644 C641 1.463 . S
C644 N648 1.427 . S
C645 H635 0.929 . S
C645 C643 1.433 . S
C645 N648 1.384 . S
C646 H637 0.929 . S
C646 C638 1.378 . S
C646 C641 1.350 . S
C647 H634 0.929 . S
C647 C639 1.433 . S
C647 N649 1.384 . S
N648 C644 1.427 . S
N648 C645 1.384 . S
N649 C641 1.427 . S
N649 C647 1.384 . S
H650 C656 0.930 . S
H651 C660 0.930 . S
H652 C665 0.929 . S
H653 C663 0.929 . S
H654 C658 0.929 . S
H655 C664 0.929 . S
C656 H650 0.930 . S
C656 C657 1.367 . S
C656 C664 1.378 . S
C657 C656 1.367 . S
C657 C665 1.433 . S
C658 H654 0.929 . S
C658 C660 1.378 . S
C658 C662 1.350 . S
C659 C662 1.463 . S
C659 C664 1.350 . S
C659 N667 1.427 . S
C660 H651 0.930 . S
C660 C658 1.378 . S
C660 C661 1.367 . S
C661 C660 1.367 . S
C661 C663 1.433 . S
C662 C658 1.350 . S
C662 C659 1.463 . S
C662 N666 1.427 . S
C663 H653 0.929 . S
C663 C661 1.433 . S
C663 N666 1.384 . S
C664 H655 0.929 . S
C664 C656 1.378 . S
C664 C659 1.350 . S
C665 H652 0.929 . S
C665 C657 1.433 . S
C665 N667 1.384 . S
N666 C662 1.427 . S
N666 C663 1.384 . S
N667 C659 1.427 . S
N667 C665 1.384 . S
H668 C674 0.930 . S
H669 C678 0.930 . S
H670 C683 0.929 . S
H671 C681 0.929 . S
H672 C676 0.929 . S
H673 C682 0.929 . S
C674 H668 0.930 . S
C674 C675 1.367 . S
C674 C682 1.378 . S
C675 C674 1.367 . S
C675 C683 1.433 . S
C676 H672 0.929 . S
C676 C678 1.378 . S
C676 C680 1.350 . S
C677 C680 1.463 . S
C677 C682 1.350 . S
C677 N685 1.427 . S
C678 H669 0.930 . S
C678 C676 1.378 . S
C678 C679 1.367 . S
C679 C678 1.367 . S
C679 C681 1.433 . S
C680 C676 1.350 . S
C680 C677 1.463 . S
C680 N684 1.427 . S
C681 H671 0.929 . S
C681 C679 1.433 . S
C681 N684 1.384 . S
C682 H673 0.929 . S
C682 C674 1.378 . S
C682 C677 1.350 . S
C683 H670 0.929 . S
C683 C675 1.433 . S
C683 N685 1.384 . S
N684 C680 1.427 . S
N684 C681 1.384 . S
N685 C677 1.427 . S
N685 C683 1.384 . S
H686 C692 0.930 . S
H687 C696 0.930 . S
H688 C701 0.929 . S
H689 C699 0.929 . S
H690 C694 0.929 . S
H691 C700 0.929 . S
C692 H686 0.930 . S
C692 C693 1.367 . S
C692 C700 1.378 . S
C693 C692 1.367 . S
C693 C701 1.433 . S
C694 H690 0.929 . S
C694 C696 1.378 . S
C694 C698 1.350 . S
C695 C698 1.463 . S
C695 C700 1.350 . S
C695 N703 1.427 . S
C696 H687 0.930 . S
C696 C694 1.378 . S
C696 C697 1.367 . S
C697 C696 1.367 . S
C697 C699 1.433 . S
C698 C694 1.350 . S
C698 C695 1.463 . S
C698 N702 1.427 . S
C699 H689 0.929 . S
C699 C697 1.433 . S
C699 N702 1.384 . S
C700 H691 0.929 . S
C700 C692 1.378 . S
C700 C695 1.350 . S
C701 H688 0.929 . S
C701 C693 1.433 . S
C701 N703 1.384 . S
N702 C698 1.427 . S
N702 C699 1.384 . S
N703 C695 1.427 . S
N703 C701 1.384 . S
H704 C710 0.930 . S
H705 C714 0.930 . S
H706 C719 0.929 . S
H707 C717 0.929 . S
H708 C712 0.929 . S
H709 C718 0.929 . S
C710 H704 0.930 . S
C710 C711 1.367 . S
C710 C718 1.378 . S
C711 C710 1.367 . S
C711 C719 1.433 . S
C712 H708 0.929 . S
C712 C714 1.378 . S
C712 C716 1.350 . S
C713 C716 1.463 1_655 S
C713 C718 1.350 . S
C713 N721 1.427 1_655 S
C714 H705 0.930 . S
C714 C712 1.378 . S
C714 C715 1.367 . S
C715 C714 1.367 . S
C715 C717 1.433 . S
C716 C712 1.350 . S
C716 C713 1.463 1_455 S
C716 N720 1.427 1_455 S
C717 H707 0.929 . S
C717 C715 1.433 . S
C717 N720 1.384 1_455 S
C718 H709 0.929 . S
C718 C710 1.378 . S
C718 C713 1.350 . S
C719 H706 0.929 . S
C719 C711 1.433 . S
C719 N721 1.384 1_655 S
N720 C716 1.427 1_655 S
N720 C717 1.384 1_655 S
N721 C713 1.427 1_455 S
N721 C719 1.384 1_455 S
H722 C728 0.930 . S
H723 C732 0.930 . S
H724 C737 0.929 . S
H725 C735 0.929 . S
H726 C730 0.929 1_565 S
H727 C736 0.895 1_545 S
C728 H722 0.930 . S
C728 C729 1.367 . S
C728 C736 1.378 . S
C729 C728 1.367 . S
C729 C737 1.433 . S
C730 H726 0.929 1_545 S
C730 C732 1.378 . S
C730 C734 1.350 . S
C731 C734 1.463 1_565 S
C731 C736 1.350 . S
C731 N739 1.427 . S
C732 H723 0.930 . S
C732 C730 1.378 . S
C732 C733 1.367 . S
C733 C732 1.367 . S
C733 C735 1.433 . S
C734 C730 1.350 . S
C734 C731 1.463 1_545 S
C734 N738 1.427 . S
C735 H725 0.929 . S
C735 C733 1.433 . S
C735 N738 1.384 . S
C736 H727 0.895 1_565 S
C736 C728 1.378 . S
C736 C731 1.350 . S
C737 H724 0.929 . S
C737 C729 1.433 . S
C737 N739 1.384 . S
N738 C734 1.427 . S
N738 C735 1.384 . S
N739 C731 1.427 . S
N739 C737 1.384 . S
H740 C746 0.930 . S
H741 C750 0.930 . S
H742 C755 0.929 . S
H743 C753 0.929 . S
H744 C748 0.929 1_455 S
H745 C754 0.929 1_655 S
C746 H740 0.930 . S
C746 C747 1.367 . S
C746 C754 1.378 . S
C747 C746 1.367 . S
C747 C755 1.433 1_556 S
C748 H744 0.929 1_655 S
C748 C750 1.378 . S
C748 C752 1.374 . S
C749 C752 1.460 1_466 S
C749 C754 1.383 . S
C749 N757 1.396 1_556 S
C750 H741 0.930 . S
C750 C748 1.378 . S
C750 C751 1.367 . S
C751 C750 1.367 . S
C751 C753 1.433 1_554 S
C752 C748 1.374 . S
C752 C749 1.460 1_644 S
C752 N756 1.404 1_554 S
C753 H743 0.929 . S
C753 C751 1.433 1_556 S
C753 N756 1.384 . S
C754 H745 0.929 1_455 S
C754 C746 1.378 . S
C754 C749 1.383 . S
C755 H742 0.929 . S
C755 C747 1.433 1_554 S
C755 N757 1.384 . S
N756 C752 1.404 1_556 S
N756 C753 1.384 . S
N757 C749 1.396 1_554 S
N757 C755 1.384 . S
H758 C764 0.930 . S
H759 C768 0.930 . S
H760 C773 0.929 . S
H761 C771 0.929 . S
H762 C766 0.929 . S
H763 C772 0.929 . S
C764 H758 0.930 . S
C764 C765 1.367 1_556 S
C764 C772 1.378 . S
C765 C764 1.367 1_554 S
C765 C773 1.433 . S
C766 H762 0.929 . S
C766 C768 1.378 . S
C766 C770 1.350 . S
C767 C770 1.463 . S
C767 C772 1.350 1_554 S
C767 N775 1.427 . S
C768 H759 0.930 . S
C768 C766 1.378 . S
C768 C769 1.351 1_554 S
C769 C768 1.351 1_556 S
C769 C771 1.450 . S
C770 C766 1.350 . S
C770 C767 1.463 . S
C770 N774 1.427 1_554 S
C771 H761 0.929 . S
C771 C769 1.450 . S
C771 N774 1.384 . S
C772 H763 0.929 . S
C772 C764 1.378 . S
C772 C767 1.350 1_556 S
C773 H760 0.929 . S
C773 C765 1.433 . S
C773 N775 1.384 . S
N774 C770 1.427 1_556 S
N774 C771 1.384 . S
N775 C767 1.427 . S
N775 C773 1.384 . S
H776 C782 0.930 . S
H777 C786 0.930 . S
H778 C791 0.929 1_455 S
H779 C789 0.929 1_655 S
H780 C784 0.929 . S
H781 C790 0.929 . S
C782 H776 0.930 . S
C782 C783 1.367 . S
C782 C790 1.378 . S
C783 C782 1.367 . S
C783 C791 1.433 . S
C784 H780 0.929 . S
C784 C786 1.378 . S
C784 C788 1.350 . S
C785 C788 1.463 1_655 S
C785 C790 1.350 . S
C785 N793 1.427 1_655 S
C786 H777 0.930 . S
C786 C784 1.378 . S
C786 C787 1.367 . S
C787 C786 1.367 . S
C787 C789 1.433 . S
C788 C784 1.350 . S
C788 C785 1.463 1_455 S
C788 N792 1.427 1_455 S
C789 H779 0.929 1_455 S
C789 C787 1.433 . S
C789 N792 1.384 1_455 S
C790 H781 0.929 . S
C790 C782 1.378 . S
C790 C785 1.350 . S
C791 H778 0.929 1_655 S
C791 C783 1.433 . S
C791 N793 1.384 1_655 S
N792 C788 1.427 1_655 S
N792 C789 1.384 1_655 S
N793 C785 1.427 1_455 S
N793 C791 1.384 1_455 S
H794 C800 0.930 . S
H795 C804 0.930 . S
H796 C809 0.929 . S
H797 C807 0.929 . S
H798 C802 0.929 . S
H799 C808 0.929 . S
C800 H794 0.930 . S
C800 C801 1.367 . S
C800 C808 1.378 . S
C801 C800 1.367 . S
C801 C809 1.433 . S
C802 H798 0.929 . S
C802 C804 1.378 . S
C802 C806 1.350 . S
C803 C806 1.463 1_565 S
C803 C808 1.350 . S
C803 N811 1.427 . S
C804 H795 0.930 . S
C804 C802 1.378 . S
C804 C805 1.367 . S
C805 C804 1.367 . S
C805 C807 1.433 . S
C806 C802 1.350 . S
C806 C803 1.463 1_545 S
C806 N810 1.427 . S
C807 H797 0.929 . S
C807 C805 1.433 . S
C807 N810 1.384 . S
C808 H799 0.929 . S
C808 C800 1.378 . S
C808 C803 1.350 . S
C809 H796 0.929 . S
C809 C801 1.433 . S
C809 N811 1.384 . S
N810 C806 1.427 . S
N810 C807 1.384 . S
N811 C803 1.427 . S
N811 C809 1.384 . S
H812 C818 0.930 . S
H813 C822 0.930 . S
H814 C827 0.929 . S
H815 C825 0.929 . S
H816 C820 0.929 . S
H817 C826 0.929 . S
C818 H812 0.930 . S
C818 C819 1.332 1_554 S
C818 C826 1.378 . S
C819 C818 1.332 1_556 S
C819 C827 1.468 . S
C820 H816 0.929 . S
C820 C822 1.378 . S
C820 C824 1.364 . S
C821 C824 1.462 1_554 S
C821 C826 1.355 . S
C821 N829 1.422 1_554 S
C822 H813 0.930 . S
C822 C820 1.378 . S
C822 C823 1.341 1_556 S
C823 C822 1.341 1_554 S
C823 C825 1.459 . S
C824 C820 1.364 . S
C824 C821 1.462 1_556 S
C824 N828 1.413 1_556 S
C825 H815 0.929 . S
C825 C823 1.459 . S
C825 N828 1.384 . S
C826 H817 0.929 . S
C826 C818 1.378 . S
C826 C821 1.355 . S
C827 H814 0.929 . S
C827 C819 1.468 . S
C827 N829 1.384 . S
N828 C824 1.413 1_554 S
N828 C825 1.384 . S
N829 C821 1.422 1_556 S
N829 C827 1.384 . S
H830 C836 0.930 . S
H831 C840 0.930 . S
H832 C845 0.929 . S
H833 C843 0.929 . S
H834 C838 0.929 . S
H835 C844 0.929 . S
C836 H830 0.930 . S
C836 C837 1.367 . S
C836 C844 1.378 . S
C837 C836 1.367 . S
C837 C845 1.433 . S
C838 H834 0.929 . S
C838 C840 1.378 . S
C838 C842 1.350 . S
C839 C842 1.463 . S
C839 C844 1.350 . S
C839 N847 1.427 . S
C840 H831 0.930 . S
C840 C838 1.378 . S
C840 C841 1.367 . S
C841 C840 1.367 . S
C841 C843 1.433 . S
C842 C838 1.350 . S
C842 C839 1.463 . S
C842 N846 1.427 . S
C843 H833 0.929 . S
C843 C841 1.433 . S
C843 N846 1.384 . S
C844 H835 0.929 . S
C844 C836 1.378 . S
C844 C839 1.350 . S
C845 H832 0.929 . S
C845 C837 1.433 . S
C845 N847 1.384 . S
N846 C842 1.427 . S
N846 C843 1.384 . S
N847 C839 1.427 . S
N847 C845 1.384 . S
H848 C854 0.930 . S
H849 C858 0.930 . S
H850 C863 0.929 . S
H851 C861 0.929 . S
H852 C856 0.929 1_655 S
H853 C862 0.929 1_455 S
C854 H848 0.930 . S
C854 C855 1.367 . S
C854 C862 1.378 . S
C855 C854 1.367 . S
C855 C863 1.433 . S
C856 H852 0.929 1_455 S
C856 C858 1.378 . S
C856 C860 1.350 . S
C857 C860 1.463 1_655 S
C857 C862 1.350 . S
C857 N865 1.427 . S
C858 H849 0.930 . S
C858 C856 1.378 . S
C858 C859 1.367 . S
C859 C858 1.367 . S
C859 C861 1.433 . S
C860 C856 1.350 . S
C860 C857 1.463 1_455 S
C860 N864 1.427 . S
C861 H851 0.929 . S
C861 C859 1.433 . S
C861 N864 1.384 . S
C862 H853 0.929 1_655 S
C862 C854 1.378 . S
C862 C857 1.350 . S
C863 H850 0.929 . S
C863 C855 1.433 . S
C863 N865 1.384 . S
N864 C860 1.427 . S
N864 C861 1.384 . S
N865 C857 1.427 . S
N865 C863 1.384 . S
H866 C872 0.930 . S
H867 C876 0.930 . S
H868 C881 0.929 . S
H869 C879 0.929 . S
H870 C874 0.929 . S
H871 C880 0.929 . S
C872 H866 0.930 . S
C872 C873 1.367 . S
C872 C880 1.378 . S
C873 C872 1.367 . S
C873 C881 1.433 . S
C874 H870 0.929 . S
C874 C876 1.378 . S
C874 C878 1.350 . S
C875 C878 1.463 . S
C875 C880 1.350 . S
C875 N883 1.427 . S
C876 H867 0.930 . S
C876 C874 1.378 . S
C876 C877 1.367 . S
C877 C876 1.367 . S
C877 C879 1.433 . S
C878 C874 1.350 . S
C878 C875 1.463 . S
C878 N882 1.427 . S
C879 H869 0.929 . S
C879 C877 1.433 . S
C879 N882 1.384 . S
C880 H871 0.929 . S
C880 C872 1.378 . S
C880 C875 1.350 . S
C881 H868 0.929 . S
C881 C873 1.433 . S
C881 N883 1.384 . S
N882 C878 1.427 . S
N882 C879 1.384 . S
N883 C875 1.427 . S
N883 C881 1.384 . S
H884 C890 0.930 . S
H885 C894 0.930 . S
H886 C899 0.929 . S
H887 C897 0.929 . S
H888 C892 0.929 . S
H889 C898 0.929 . S
C890 H884 0.930 . S
C890 C891 1.367 . S
C890 C898 1.378 . S
C891 C890 1.367 . S
C891 C899 1.433 . S
C892 H888 0.929 . S
C892 C894 1.378 . S
C892 C896 1.350 . S
C893 C896 1.463 . S
C893 C898 1.350 . S
C893 N901 1.427 . S
C894 H885 0.930 . S
C894 C892 1.378 . S
C894 C895 1.367 . S
C895 C894 1.367 . S
C895 C897 1.433 . S
C896 C892 1.350 . S
C896 C893 1.463 . S
C896 N900 1.427 . S
C897 H887 0.929 . S
C897 C895 1.433 . S
C897 N900 1.384 . S
C898 H889 0.929 . S
C898 C890 1.378 . S
C898 C893 1.350 . S
C899 H886 0.929 . S
C899 C891 1.433 . S
C899 N901 1.384 . S
N900 C896 1.427 . S
N900 C897 1.384 . S
N901 C893 1.427 . S
N901 C899 1.384 . S
H902 C908 0.930 . S
H903 C912 0.930 . S
H904 C917 0.929 . S
H905 C915 0.929 . S
H906 C910 0.929 . S
H907 C916 0.929 . S
C908 H902 0.930 . S
C908 C909 1.367 . S
C908 C916 1.378 . S
C909 C908 1.367 . S
C909 C917 1.433 . S
C910 H906 0.929 . S
C910 C912 1.378 . S
C910 C914 1.350 . S
C911 C914 1.463 . S
C911 C916 1.350 . S
C911 N919 1.427 . S
C912 H903 0.930 . S
C912 C910 1.378 . S
C912 C913 1.367 . S
C913 C912 1.367 . S
C913 C915 1.433 . S
C914 C910 1.350 . S
C914 C911 1.463 . S
C914 N918 1.427 . S
C915 H905 0.929 . S
C915 C913 1.433 . S
C915 N918 1.384 . S
C916 H907 0.929 . S
C916 C908 1.378 . S
C916 C911 1.350 . S
C917 H904 0.929 . S
C917 C909 1.433 . S
C917 N919 1.384 . S
N918 C914 1.427 . S
N918 C915 1.384 . S
N919 C911 1.427 . S
N919 C917 1.384 . S
H920 C926 0.930 . S
H921 C930 0.930 . S
H922 C935 0.929 . S
H923 C933 0.929 . S
H924 C928 0.929 . S
H925 C934 0.929 . S
C926 H920 0.930 . S
C926 C927 1.367 . S
C926 C934 1.378 . S
C927 C926 1.367 . S
C927 C935 1.433 . S
C928 H924 0.929 . S
C928 C930 1.378 . S
C928 C932 1.350 . S
C929 C932 1.463 . S
C929 C934 1.350 . S
C929 N937 1.427 . S
C930 H921 0.930 . S
C930 C928 1.378 . S
C930 C931 1.367 . S
C931 C930 1.367 . S
C931 C933 1.433 . S
C932 C928 1.350 . S
C932 C929 1.463 . S
C932 N936 1.427 . S
C933 H923 0.929 . S
C933 C931 1.433 . S
C933 N936 1.384 . S
C934 H925 0.929 . S
C934 C926 1.378 . S
C934 C929 1.350 . S
C935 H922 0.929 . S
C935 C927 1.433 . S
C935 N937 1.384 . S
N936 C932 1.427 . S
N936 C933 1.384 . S
N937 C929 1.427 . S
N937 C935 1.384 . S
H938 C944 0.930 . S
H939 C948 0.930 . S
H940 C953 0.929 . S
H941 C951 0.929 . S
H942 C946 0.929 . S
H943 C952 0.929 . S
C944 H938 0.930 . S
C944 C945 1.367 . S
C944 C952 1.378 . S
C945 C944 1.367 . S
C945 C953 1.433 . S
C946 H942 0.929 . S
C946 C948 1.378 . S
C946 C950 1.350 . S
C947 C950 1.463 1_545 S
C947 C952 1.350 . S
C947 N955 1.427 . S
C948 H939 0.930 . S
C948 C946 1.378 . S
C948 C949 1.367 . S
C949 C948 1.367 . S
C949 C951 1.433 . S
C950 C946 1.350 . S
C950 C947 1.463 1_565 S
C950 N954 1.427 . S
C951 H941 0.929 . S
C951 C949 1.433 . S
C951 N954 1.384 . S
C952 H943 0.929 . S
C952 C944 1.378 . S
C952 C947 1.350 . S
C953 H940 0.929 . S
C953 C945 1.433 . S
C953 N955 1.384 . S
N954 C950 1.427 . S
N954 C951 1.384 . S
N955 C947 1.427 . S
N955 C953 1.384 . S
H956 C962 0.930 . S
H957 C966 0.930 . S
H958 C971 0.929 . S
H959 C969 0.929 . S
H960 C964 0.929 . S
H961 C970 0.929 . S
C962 H956 0.930 . S
C962 C963 1.367 . S
C962 C970 1.378 . S
C963 C962 1.367 . S
C963 C971 1.433 . S
C964 H960 0.929 . S
C964 C966 1.378 . S
C964 C968 1.350 . S
C965 C968 1.463 . S
C965 C970 1.350 . S
C965 N973 1.427 . S
C966 H957 0.930 . S
C966 C964 1.378 . S
C966 C967 1.367 . S
C967 C966 1.367 . S
C967 C969 1.433 . S
C968 C964 1.350 . S
C968 C965 1.463 . S
C968 N972 1.427 . S
C969 H959 0.929 . S
C969 C967 1.433 . S
C969 N972 1.384 . S
C970 H961 0.929 . S
C970 C962 1.378 . S
C970 C965 1.350 . S
C971 H958 0.929 . S
C971 C963 1.433 . S
C971 N973 1.384 . S
N972 C968 1.427 . S
N972 C969 1.384 . S
N973 C965 1.427 . S
N973 C971 1.384 . S
H974 C980 0.930 . S
H975 C984 0.930 . S
H976 C989 0.929 . S
H977 C987 0.929 . S
H978 C982 0.929 . S
H979 C988 0.929 . S
C980 H974 0.930 . S
C980 C981 1.367 . S
C980 C988 1.378 . S
C981 C980 1.367 . S
C981 C989 1.433 1_556 S
C982 H978 0.929 . S
C982 C984 1.378 . S
C982 C986 1.379 . S
C983 C986 1.459 1_556 S
C983 C988 1.388 . S
C983 N991 1.390 1_556 S
C984 H975 0.930 . S
C984 C982 1.378 . S
C984 C985 1.367 . S
C985 C984 1.367 . S
C985 C987 1.433 1_554 S
C986 C982 1.379 . S
C986 C983 1.459 1_554 S
C986 N990 1.399 1_554 S
C987 H977 0.929 . S
C987 C985 1.433 1_556 S
C987 N990 1.384 . S
C988 H979 0.929 . S
C988 C980 1.378 . S
C988 C983 1.388 . S
C989 H976 0.929 . S
C989 C981 1.433 1_554 S
C989 N991 1.384 . S
N990 C986 1.399 1_556 S
N990 C987 1.384 . S
N991 C983 1.390 1_554 S
N991 C989 1.384 . S
H992 C998 0.930 . S
H993 C1002 0.930 . S
H994 C1007 0.929 . S
H995 C1005 0.929 . S
H996 C1000 0.929 . S
H997 C1006 0.929 . S
C998 H992 0.930 . S
C998 C999 1.367 . S
C998 C1006 1.378 . S
C999 C998 1.367 . S
C999 C1007 1.433 . S
C1000 H996 0.929 . S
C1000 C1002 1.378 . S
C1000 C1004 1.350 . S
C1001 C1004 1.463 . S
C1001 C1006 1.350 . S
C1001 N1009 1.427 . S
C1002 H993 0.930 . S
C1002 C1000 1.378 . S
C1002 C1003 1.367 . S
C1003 C1002 1.367 . S
C1003 C1005 1.433 . S
C1004 C1000 1.350 . S
C1004 C1001 1.463 . S
C1004 N1008 1.427 . S
C1005 H995 0.929 . S
C1005 C1003 1.433 . S
C1005 N1008 1.384 . S
C1006 H997 0.929 . S
C1006 C998 1.378 . S
C1006 C1001 1.350 . S
C1007 H994 0.929 . S
C1007 C999 1.433 . S
C1007 N1009 1.384 . S
N1008 C1004 1.427 . S
N1008 C1005 1.384 . S
N1009 C1001 1.427 . S
N1009 C1007 1.384 . S
H1010 C1016 0.930 . S
H1011 C1020 0.930 . S
H1012 C1025 0.929 . S
H1013 C1023 0.929 . S
H1014 C1018 0.929 . S
H1015 C1024 0.929 . S
C1016 H1010 0.930 . S
C1016 C1017 1.367 . S
C1016 C1024 1.378 . S
C1017 C1016 1.367 . S
C1017 C1025 1.433 . S
C1018 H1014 0.929 . S
C1018 C1020 1.378 . S
C1018 C1022 1.350 . S
C1019 C1022 1.463 . S
C1019 C1024 1.350 . S
C1019 N1027 1.427 . S
C1020 H1011 0.930 . S
C1020 C1018 1.378 . S
C1020 C1021 1.367 . S
C1021 C1020 1.367 . S
C1021 C1023 1.433 . S
C1022 C1018 1.350 . S
C1022 C1019 1.463 . S
C1022 N1026 1.427 . S
C1023 H1013 0.929 . S
C1023 C1021 1.433 . S
C1023 N1026 1.384 . S
C1024 H1015 0.929 . S
C1024 C1016 1.378 . S
C1024 C1019 1.350 . S
C1025 H1012 0.929 . S
C1025 C1017 1.433 . S
C1025 N1027 1.384 . S
N1026 C1022 1.427 . S
N1026 C1023 1.384 . S
N1027 C1019 1.427 . S
N1027 C1025 1.384 . S
H1028 C1034 0.930 . S
H1029 C1038 0.930 . S
H1030 C1043 0.929 . S
H1031 C1041 0.929 . S
H1032 C1036 0.929 . S
H1033 C1042 0.929 . S
C1034 H1028 0.930 . S
C1034 C1035 1.367 . S
C1034 C1042 1.378 . S
C1035 C1034 1.367 . S
C1035 C1043 1.433 . S
C1036 H1032 0.929 . S
C1036 C1038 1.378 . S
C1036 C1040 1.350 . S
C1037 C1040 1.463 . S
C1037 C1042 1.350 . S
C1037 N1045 1.427 . S
C1038 H1029 0.930 . S
C1038 C1036 1.378 . S
C1038 C1039 1.367 . S
C1039 C1038 1.367 . S
C1039 C1041 1.433 . S
C1040 C1036 1.350 . S
C1040 C1037 1.463 . S
C1040 N1044 1.427 . S
C1041 H1031 0.929 . S
C1041 C1039 1.433 . S
C1041 N1044 1.384 . S
C1042 H1033 0.929 . S
C1042 C1034 1.378 . S
C1042 C1037 1.350 . S
C1043 H1030 0.929 . S
C1043 C1035 1.433 . S
C1043 N1045 1.384 . S
N1044 C1040 1.427 . S
N1044 C1041 1.384 . S
N1045 C1037 1.427 . S
N1045 C1043 1.384 . S
H1046 C1052 0.930 . S
H1047 C1056 0.930 . S
H1048 C1061 0.929 . S
H1049 C1059 0.929 . S
H1050 C1054 0.929 . S
H1051 C1060 0.929 . S
C1052 H1046 0.930 . S
C1052 C1053 1.367 . S
C1052 C1060 1.378 . S
C1053 C1052 1.367 . S
C1053 C1061 1.433 . S
C1054 H1050 0.929 . S
C1054 C1056 1.378 . S
C1054 C1058 1.350 . S
C1055 C1058 1.463 . S
C1055 C1060 1.350 . S
C1055 N1063 1.427 . S
C1056 H1047 0.930 . S
C1056 C1054 1.378 . S
C1056 C1057 1.367 . S
C1057 C1056 1.367 . S
C1057 C1059 1.433 . S
C1058 C1054 1.350 . S
C1058 C1055 1.463 . S
C1058 N1062 1.427 . S
C1059 H1049 0.929 . S
C1059 C1057 1.433 . S
C1059 N1062 1.384 . S
C1060 H1051 0.929 . S
C1060 C1052 1.378 . S
C1060 C1055 1.350 . S
C1061 H1048 0.929 . S
C1061 C1053 1.433 . S
C1061 N1063 1.384 . S
N1062 C1058 1.427 . S
N1062 C1059 1.384 . S
N1063 C1055 1.427 . S
N1063 C1061 1.384 . S
H1064 C1070 0.930 . S
H1065 C1074 0.930 . S
H1066 C1079 0.929 . S
H1067 C1077 0.929 . S
H1068 C1072 0.929 . S
H1069 C1078 0.929 . S
C1070 H1064 0.930 . S
C1070 C1071 1.367 . S
C1070 C1078 1.378 . S
C1071 C1070 1.367 . S
C1071 C1079 1.433 . S
C1072 H1068 0.929 . S
C1072 C1074 1.378 . S
C1072 C1076 1.350 . S
C1073 C1076 1.463 . S
C1073 C1078 1.350 . S
C1073 N1081 1.427 . S
C1074 H1065 0.930 . S
C1074 C1072 1.378 . S
C1074 C1075 1.367 . S
C1075 C1074 1.367 . S
C1075 C1077 1.433 . S
C1076 C1072 1.350 . S
C1076 C1073 1.463 . S
C1076 N1080 1.427 . S
C1077 H1067 0.929 . S
C1077 C1075 1.433 . S
C1077 N1080 1.384 . S
C1078 H1069 0.929 . S
C1078 C1070 1.378 . S
C1078 C1073 1.350 . S
C1079 H1066 0.929 . S
C1079 C1071 1.433 . S
C1079 N1081 1.384 . S
N1080 C1076 1.427 . S
N1080 C1077 1.384 . S
N1081 C1073 1.427 . S
N1081 C1079 1.384 . S
H1082 C1088 0.930 . S
H1083 C1092 0.930 . S
H1084 C1097 0.929 . S
H1085 C1095 0.929 . S
H1086 C1090 0.929 . S
H1087 C1096 0.929 . S
C1088 H1082 0.930 . S
C1088 C1089 1.367 . S
C1088 C1096 1.378 . S
C1089 C1088 1.367 . S
C1089 C1097 1.433 . S
C1090 H1086 0.929 . S
C1090 C1092 1.378 . S
C1090 C1094 1.350 . S
C1091 C1094 1.463 . S
C1091 C1096 1.350 . S
C1091 N1099 1.427 . S
C1092 H1083 0.930 . S
C1092 C1090 1.378 . S
C1092 C1093 1.367 . S
C1093 C1092 1.367 . S
C1093 C1095 1.433 . S
C1094 C1090 1.350 . S
C1094 C1091 1.463 . S
C1094 N1098 1.427 . S
C1095 H1085 0.929 . S
C1095 C1093 1.433 . S
C1095 N1098 1.384 . S
C1096 H1087 0.929 . S
C1096 C1088 1.378 . S
C1096 C1091 1.350 . S
C1097 H1084 0.929 . S
C1097 C1089 1.433 . S
C1097 N1099 1.384 . S
N1098 C1094 1.427 . S
N1098 C1095 1.384 . S
N1099 C1091 1.427 . S
N1099 C1097 1.384 . S
H1100 C1106 0.930 . S
H1101 C1110 0.930 . S
H1102 C1115 0.929 . S
H1103 C1113 0.929 . S
H1104 C1108 0.929 . S
H1105 C1114 0.929 . S
C1106 H1100 0.930 . S
C1106 C1107 1.367 . S
C1106 C1114 1.378 . S
C1107 C1106 1.367 . S
C1107 C1115 1.433 . S
C1108 H1104 0.929 . S
C1108 C1110 1.378 . S
C1108 C1112 1.350 . S
C1109 C1112 1.463 . S
C1109 C1114 1.350 . S
C1109 N1117 1.427 . S
C1110 H1101 0.930 . S
C1110 C1108 1.378 . S
C1110 C1111 1.367 . S
C1111 C1110 1.367 . S
C1111 C1113 1.433 . S
C1112 C1108 1.350 . S
C1112 C1109 1.463 . S
C1112 N1116 1.427 . S
C1113 H1103 0.929 . S
C1113 C1111 1.433 . S
C1113 N1116 1.384 . S
C1114 H1105 0.929 . S
C1114 C1106 1.378 . S
C1114 C1109 1.350 . S
C1115 H1102 0.929 . S
C1115 C1107 1.433 . S
C1115 N1117 1.384 . S
N1116 C1112 1.427 . S
N1116 C1113 1.384 . S
N1117 C1109 1.427 . S
N1117 C1115 1.384 . S
H1118 C1124 0.930 . S
H1119 C1128 0.930 . S
H1120 C1133 0.929 . S
H1121 C1131 0.929 . S
H1122 C1126 0.929 . S
H1123 C1132 0.929 . S
C1124 H1118 0.930 . S
C1124 C1125 1.367 . S
C1124 C1132 1.378 . S
C1125 C1124 1.367 . S
C1125 C1133 1.433 . S
C1126 H1122 0.929 . S
C1126 C1128 1.378 . S
C1126 C1130 1.350 . S
C1127 C1130 1.463 . S
C1127 C1132 1.350 . S
C1127 N1135 1.427 . S
C1128 H1119 0.930 . S
C1128 C1126 1.378 . S
C1128 C1129 1.367 . S
C1129 C1128 1.367 . S
C1129 C1131 1.433 . S
C1130 C1126 1.350 . S
C1130 C1127 1.463 . S
C1130 N1134 1.427 . S
C1131 H1121 0.929 . S
C1131 C1129 1.433 . S
C1131 N1134 1.384 . S
C1132 H1123 0.929 . S
C1132 C1124 1.378 . S
C1132 C1127 1.350 . S
C1133 H1120 0.929 . S
C1133 C1125 1.433 . S
C1133 N1135 1.384 . S
N1134 C1130 1.427 . S
N1134 C1131 1.384 . S
N1135 C1127 1.427 . S
N1135 C1133 1.384 . S
H1136 C1142 0.930 . S
H1137 C1146 0.930 . S
H1138 C1151 0.929 . S
H1139 C1149 0.929 . S
H1140 C1144 0.929 . S
H1141 C1150 0.929 . S
C1142 H1136 0.930 . S
C1142 C1143 1.367 . S
C1142 C1150 1.378 . S
C1143 C1142 1.367 . S
C1143 C1151 1.433 . S
C1144 H1140 0.929 . S
C1144 C1146 1.378 . S
C1144 C1148 1.350 . S
C1145 C1148 1.463 . S
C1145 C1150 1.350 . S
C1145 N1153 1.427 . S
C1146 H1137 0.930 . S
C1146 C1144 1.378 . S
C1146 C1147 1.367 . S
C1147 C1146 1.367 . S
C1147 C1149 1.433 . S
C1148 C1144 1.350 . S
C1148 C1145 1.463 . S
C1148 N1152 1.427 . S
C1149 H1139 0.929 . S
C1149 C1147 1.433 . S
C1149 N1152 1.384 . S
C1150 H1141 0.929 . S
C1150 C1142 1.378 . S
C1150 C1145 1.350 . S
C1151 H1138 0.929 . S
C1151 C1143 1.433 . S
C1151 N1153 1.384 . S
N1152 C1148 1.427 . S
N1152 C1149 1.384 . S
N1153 C1145 1.427 . S
N1153 C1151 1.384 . S
H1154 C1160 0.930 . S
H1155 C1164 0.930 . S
H1156 C1169 0.929 . S
H1157 C1167 0.929 . S
H1158 C1162 0.929 . S
H1159 C1168 0.929 . S
C1160 H1154 0.930 . S
C1160 C1161 1.367 . S
C1160 C1168 1.378 . S
C1161 C1160 1.367 . S
C1161 C1169 1.433 . S
C1162 H1158 0.929 . S
C1162 C1164 1.378 . S
C1162 C1166 1.350 . S
C1163 C1166 1.463 . S
C1163 C1168 1.350 . S
C1163 N1171 1.427 . S
C1164 H1155 0.930 . S
C1164 C1162 1.378 . S
C1164 C1165 1.367 . S
C1165 C1164 1.367 . S
C1165 C1167 1.433 . S
C1166 C1162 1.350 . S
C1166 C1163 1.463 . S
C1166 N1170 1.427 . S
C1167 H1157 0.929 . S
C1167 C1165 1.433 . S
C1167 N1170 1.384 . S
C1168 H1159 0.929 . S
C1168 C1160 1.378 . S
C1168 C1163 1.350 . S
C1169 H1156 0.929 . S
C1169 C1161 1.433 . S
C1169 N1171 1.384 . S
N1170 C1166 1.427 . S
N1170 C1167 1.384 . S
N1171 C1163 1.427 . S
N1171 C1169 1.384 . S
H1172 C1178 0.930 . S
H1173 C1182 0.930 . S
H1174 C1187 0.929 . S
H1175 C1185 0.929 . S
H1176 C1180 0.929 . S
H1177 C1186 0.929 . S
C1178 H1172 0.930 . S
C1178 C1179 1.367 . S
C1178 C1186 1.378 . S
C1179 C1178 1.367 . S
C1179 C1187 1.433 . S
C1180 H1176 0.929 . S
C1180 C1182 1.378 . S
C1180 C1184 1.350 . S
C1181 C1184 1.463 . S
C1181 C1186 1.350 . S
C1181 N1189 1.427 . S
C1182 H1173 0.930 . S
C1182 C1180 1.378 . S
C1182 C1183 1.367 . S
C1183 C1182 1.367 . S
C1183 C1185 1.433 . S
C1184 C1180 1.350 . S
C1184 C1181 1.463 . S
C1184 N1188 1.427 . S
C1185 H1175 0.929 . S
C1185 C1183 1.433 . S
C1185 N1188 1.384 . S
C1186 H1177 0.929 . S
C1186 C1178 1.378 . S
C1186 C1181 1.350 . S
C1187 H1174 0.929 . S
C1187 C1179 1.433 . S
C1187 N1189 1.384 . S
N1188 C1184 1.427 . S
N1188 C1185 1.384 . S
N1189 C1181 1.427 . S
N1189 C1187 1.384 . S
H1190 C1196 0.930 . S
H1191 C1200 0.930 . S
H1192 C1205 0.929 . S
H1193 C1203 0.929 . S
H1194 C1198 0.929 . S
H1195 C1204 0.929 . S
C1196 H1190 0.930 . S
C1196 C1197 1.367 . S
C1196 C1204 1.378 . S
C1197 C1196 1.367 . S
C1197 C1205 1.433 . S
C1198 H1194 0.929 . S
C1198 C1200 1.378 . S
C1198 C1202 1.350 . S
C1199 C1202 1.463 . S
C1199 C1204 1.350 . S
C1199 N1207 1.427 . S
C1200 H1191 0.930 . S
C1200 C1198 1.378 . S
C1200 C1201 1.367 . S
C1201 C1200 1.367 . S
C1201 C1203 1.433 . S
C1202 C1198 1.350 . S
C1202 C1199 1.463 . S
C1202 N1206 1.427 . S
C1203 H1193 0.929 . S
C1203 C1201 1.433 . S
C1203 N1206 1.384 . S
C1204 H1195 0.929 . S
C1204 C1196 1.378 . S
C1204 C1199 1.350 . S
C1205 H1192 0.929 . S
C1205 C1197 1.433 . S
C1205 N1207 1.384 . S
N1206 C1202 1.427 . S
N1206 C1203 1.384 . S
N1207 C1199 1.427 . S
N1207 C1205 1.384 . S
H1208 C1214 0.930 . S
H1209 C1218 0.930 . S
H1210 C1223 0.929 . S
H1211 C1221 0.929 . S
H1212 C1216 0.929 . S
H1213 C1222 0.929 . S
C1214 H1208 0.930 . S
C1214 C1215 1.367 . S
C1214 C1222 1.378 . S
C1215 C1214 1.367 . S
C1215 C1223 1.433 . S
C1216 H1212 0.929 . S
C1216 C1218 1.378 . S
C1216 C1220 1.350 . S
C1217 C1220 1.463 . S
C1217 C1222 1.350 . S
C1217 N1225 1.427 . S
C1218 H1209 0.930 . S
C1218 C1216 1.378 . S
C1218 C1219 1.367 . S
C1219 C1218 1.367 . S
C1219 C1221 1.433 . S
C1220 C1216 1.350 . S
C1220 C1217 1.463 . S
C1220 N1224 1.427 . S
C1221 H1211 0.929 . S
C1221 C1219 1.433 . S
C1221 N1224 1.384 . S
C1222 H1213 0.929 . S
C1222 C1214 1.378 . S
C1222 C1217 1.350 . S
C1223 H1210 0.929 . S
C1223 C1215 1.433 . S
C1223 N1225 1.384 . S
N1224 C1220 1.427 . S
N1224 C1221 1.384 . S
N1225 C1217 1.427 . S
N1225 C1223 1.384 . S
H1226 C1232 0.930 . S
H1227 C1236 0.930 . S
H1228 C1241 0.929 . S
H1229 C1239 0.929 . S
H1230 C1234 0.929 . S
H1231 C1240 0.929 . S
C1232 H1226 0.930 . S
C1232 C1233 1.367 . S
C1232 C1240 1.378 . S
C1233 C1232 1.367 . S
C1233 C1241 1.433 . S
C1234 H1230 0.929 . S
C1234 C1236 1.378 . S
C1234 C1238 1.350 . S
C1235 C1238 1.463 . S
C1235 C1240 1.350 . S
C1235 N1243 1.427 . S
C1236 H1227 0.930 . S
C1236 C1234 1.378 . S
C1236 C1237 1.367 . S
C1237 C1236 1.367 . S
C1237 C1239 1.433 . S
C1238 C1234 1.350 . S
C1238 C1235 1.463 . S
C1238 N1242 1.427 . S
C1239 H1229 0.929 . S
C1239 C1237 1.433 . S
C1239 N1242 1.384 . S
C1240 H1231 0.929 . S
C1240 C1232 1.378 . S
C1240 C1235 1.350 . S
C1241 H1228 0.929 . S
C1241 C1233 1.433 . S
C1241 N1243 1.384 . S
N1242 C1238 1.427 . S
N1242 C1239 1.384 . S
N1243 C1235 1.427 . S
N1243 C1241 1.384 . S
H1244 C1250 0.930 . S
H1245 C1254 0.930 . S
H1246 C1259 0.929 . S
H1247 C1257 0.929 . S
H1248 C1252 0.929 . S
H1249 C1258 0.929 . S
C1250 H1244 0.930 . S
C1250 C1251 1.367 . S
C1250 C1258 1.378 . S
C1251 C1250 1.367 . S
C1251 C1259 1.433 . S
C1252 H1248 0.929 . S
C1252 C1254 1.378 . S
C1252 C1256 1.350 . S
C1253 C1256 1.463 . S
C1253 C1258 1.350 . S
C1253 N1261 1.427 . S
C1254 H1245 0.930 . S
C1254 C1252 1.378 . S
C1254 C1255 1.367 . S
C1255 C1254 1.367 . S
C1255 C1257 1.433 . S
C1256 C1252 1.350 . S
C1256 C1253 1.463 . S
C1256 N1260 1.427 . S
C1257 H1247 0.929 . S
C1257 C1255 1.433 . S
C1257 N1260 1.384 . S
C1258 H1249 0.929 . S
C1258 C1250 1.378 . S
C1258 C1253 1.350 . S
C1259 H1246 0.929 . S
C1259 C1251 1.433 . S
C1259 N1261 1.384 . S
N1260 C1256 1.427 . S
N1260 C1257 1.384 . S
N1261 C1253 1.427 . S
N1261 C1259 1.384 . S
H1262 C1268 0.930 . S
H1263 C1272 0.930 . S
H1264 C1277 0.929 . S
H1265 C1275 0.929 . S
H1266 C1270 0.929 . S
H1267 C1276 0.929 . S
C1268 H1262 0.930 . S
C1268 C1269 1.367 . S
C1268 C1276 1.378 . S
C1269 C1268 1.367 . S
C1269 C1277 1.433 . S
C1270 H1266 0.929 . S
C1270 C1272 1.378 . S
C1270 C1274 1.350 . S
C1271 C1274 1.463 . S
C1271 C1276 1.350 . S
C1271 N1279 1.427 . S
C1272 H1263 0.930 . S
C1272 C1270 1.378 . S
C1272 C1273 1.367 . S
C1273 C1272 1.367 . S
C1273 C1275 1.433 . S
C1274 C1270 1.350 . S
C1274 C1271 1.463 . S
C1274 N1278 1.427 . S
C1275 H1265 0.929 . S
C1275 C1273 1.433 . S
C1275 N1278 1.384 . S
C1276 H1267 0.929 . S
C1276 C1268 1.378 . S
C1276 C1271 1.350 . S
C1277 H1264 0.929 . S
C1277 C1269 1.433 . S
C1277 N1279 1.384 . S
N1278 C1274 1.427 . S
N1278 C1275 1.384 . S
N1279 C1271 1.427 . S
N1279 C1277 1.384 . S
H1280 C1286 0.930 . S
H1281 C1290 0.930 . S
H1282 C1295 0.929 . S
H1283 C1293 0.929 . S
H1284 C1288 0.929 . S
H1285 C1294 0.929 . S
C1286 H1280 0.930 . S
C1286 C1287 1.367 . S
C1286 C1294 1.378 . S
C1287 C1286 1.367 . S
C1287 C1295 1.433 . S
C1288 H1284 0.929 . S
C1288 C1290 1.378 . S
C1288 C1292 1.350 . S
C1289 C1292 1.463 . S
C1289 C1294 1.350 . S
C1289 N1297 1.427 . S
C1290 H1281 0.930 . S
C1290 C1288 1.378 . S
C1290 C1291 1.367 . S
C1291 C1290 1.367 . S
C1291 C1293 1.433 . S
C1292 C1288 1.350 . S
C1292 C1289 1.463 . S
C1292 N1296 1.427 . S
C1293 H1283 0.929 . S
C1293 C1291 1.433 . S
C1293 N1296 1.384 . S
C1294 H1285 0.929 . S
C1294 C1286 1.378 . S
C1294 C1289 1.350 . S
C1295 H1282 0.929 . S
C1295 C1287 1.433 . S
C1295 N1297 1.384 . S
N1296 C1292 1.427 . S
N1296 C1293 1.384 . S
N1297 C1289 1.427 . S
N1297 C1295 1.384 . S
H1298 C1304 0.930 . S
H1299 C1308 0.930 . S
H1300 C1313 0.929 . S
H1301 C1311 0.929 . S
H1302 C1306 0.929 . S
H1303 C1312 0.929 . S
C1304 H1298 0.930 . S
C1304 C1305 1.367 . S
C1304 C1312 1.378 . S
C1305 C1304 1.367 . S
C1305 C1313 1.433 . S
C1306 H1302 0.929 . S
C1306 C1308 1.378 . S
C1306 C1310 1.350 . S
C1307 C1310 1.463 . S
C1307 C1312 1.350 . S
C1307 N1315 1.427 . S
C1308 H1299 0.930 . S
C1308 C1306 1.378 . S
C1308 C1309 1.367 . S
C1309 C1308 1.367 . S
C1309 C1311 1.433 . S
C1310 C1306 1.350 . S
C1310 C1307 1.463 . S
C1310 N1314 1.427 . S
C1311 H1301 0.929 . S
C1311 C1309 1.433 . S
C1311 N1314 1.384 . S
C1312 H1303 0.929 . S
C1312 C1304 1.378 . S
C1312 C1307 1.350 . S
C1313 H1300 0.929 . S
C1313 C1305 1.433 . S
C1313 N1315 1.384 . S
N1314 C1310 1.427 . S
N1314 C1311 1.384 . S
N1315 C1307 1.427 . S
N1315 C1313 1.384 . S
H1316 C1322 0.930 . S
H1317 C1326 0.930 . S
H1318 C1331 0.929 . S
H1319 C1329 0.929 . S
H1320 C1324 0.929 . S
H1321 C1330 0.929 . S
C1322 H1316 0.930 . S
C1322 C1323 1.367 . S
C1322 C1330 1.378 . S
C1323 C1322 1.367 . S
C1323 C1331 1.433 1_554 S
C1324 H1320 0.929 . S
C1324 C1326 1.378 . S
C1324 C1328 1.350 1_556 S
C1325 C1328 1.463 . S
C1325 C1330 1.350 . S
C1325 N1333 1.427 1_554 S
C1326 H1317 0.930 . S
C1326 C1324 1.378 . S
C1326 C1327 1.367 1_556 S
C1327 C1326 1.367 1_554 S
C1327 C1329 1.433 . S
C1328 C1324 1.350 1_554 S
C1328 C1325 1.463 . S
C1328 N1332 1.427 . S
C1329 H1319 0.929 . S
C1329 C1327 1.433 . S
C1329 N1332 1.384 . S
C1330 H1321 0.929 . S
C1330 C1322 1.378 . S
C1330 C1325 1.350 . S
C1331 H1318 0.929 . S
C1331 C1323 1.433 1_556 S
C1331 N1333 1.384 . S
N1332 C1328 1.427 . S
N1332 C1329 1.384 . S
N1333 C1325 1.427 1_556 S
N1333 C1331 1.384 . S
H1334 C1340 0.930 . S
H1335 C1344 0.930 . S
H1336 C1349 0.929 . S
H1337 C1347 0.929 . S
H1338 C1342 0.929 . S
H1339 C1348 0.929 . S
C1340 H1334 0.930 . S
C1340 C1341 1.367 . S
C1340 C1348 1.378 . S
C1341 C1340 1.367 . S
C1341 C1349 1.433 1_554 S
C1342 H1338 0.929 . S
C1342 C1344 1.378 . S
C1342 C1346 1.350 1_556 S
C1343 C1346 1.463 . S
C1343 C1348 1.350 . S
C1343 N1351 1.427 1_554 S
C1344 H1335 0.930 . S
C1344 C1342 1.378 . S
C1344 C1345 1.367 1_556 S
C1345 C1344 1.367 1_554 S
C1345 C1347 1.433 . S
C1346 C1342 1.350 1_554 S
C1346 C1343 1.463 . S
C1346 N1350 1.427 . S
C1347 H1337 0.929 . S
C1347 C1345 1.433 . S
C1347 N1350 1.384 . S
C1348 H1339 0.929 . S
C1348 C1340 1.378 . S
C1348 C1343 1.350 . S
C1349 H1336 0.929 . S
C1349 C1341 1.433 1_556 S
C1349 N1351 1.384 . S
N1350 C1346 1.427 . S
N1350 C1347 1.384 . S
N1351 C1343 1.427 1_556 S
N1351 C1349 1.384 . S
H1352 C1358 0.930 . S
H1353 C1362 0.930 . S
H1354 C1367 0.929 . S
H1355 C1365 0.929 . S
H1356 C1360 0.929 . S
H1357 C1366 0.929 . S
C1358 H1352 0.930 . S
C1358 C1359 1.367 . S
C1358 C1366 1.378 . S
C1359 C1358 1.367 . S
C1359 C1367 1.433 . S
C1360 H1356 0.929 . S
C1360 C1362 1.378 . S
C1360 C1364 1.350 . S
C1361 C1364 1.463 . S
C1361 C1366 1.350 . S
C1361 N1369 1.427 . S
C1362 H1353 0.930 . S
C1362 C1360 1.378 . S
C1362 C1363 1.367 . S
C1363 C1362 1.367 . S
C1363 C1365 1.433 . S
C1364 C1360 1.350 . S
C1364 C1361 1.463 . S
C1364 N1368 1.427 . S
C1365 H1355 0.929 . S
C1365 C1363 1.433 . S
C1365 N1368 1.384 . S
C1366 H1357 0.929 . S
C1366 C1358 1.378 . S
C1366 C1361 1.350 . S
C1367 H1354 0.929 . S
C1367 C1359 1.433 . S
C1367 N1369 1.384 . S
N1368 C1364 1.427 . S
N1368 C1365 1.384 . S
N1369 C1361 1.427 . S
N1369 C1367 1.384 . S
H1370 C1376 0.930 . S
H1371 C1380 0.930 . S
H1372 C1385 0.929 . S
H1373 C1383 0.929 . S
H1374 C1378 0.929 . S
H1375 C1384 0.929 . S
C1376 H1370 0.930 . S
C1376 C1377 1.367 . S
C1376 C1384 1.378 . S
C1377 C1376 1.367 . S
C1377 C1385 1.433 . S
C1378 H1374 0.929 . S
C1378 C1380 1.378 . S
C1378 C1382 1.350 . S
C1379 C1382 1.463 . S
C1379 C1384 1.350 . S
C1379 N1387 1.427 . S
C1380 H1371 0.930 . S
C1380 C1378 1.378 . S
C1380 C1381 1.367 . S
C1381 C1380 1.367 . S
C1381 C1383 1.433 . S
C1382 C1378 1.350 . S
C1382 C1379 1.463 . S
C1382 N1386 1.427 . S
C1383 H1373 0.929 . S
C1383 C1381 1.433 . S
C1383 N1386 1.384 . S
C1384 H1375 0.929 . S
C1384 C1376 1.378 . S
C1384 C1379 1.350 . S
C1385 H1372 0.929 . S
C1385 C1377 1.433 . S
C1385 N1387 1.384 . S
N1386 C1382 1.427 . S
N1386 C1383 1.384 . S
N1387 C1379 1.427 . S
N1387 C1385 1.384 . S
H1388 C1394 0.930 . S
H1389 C1398 0.930 . S
H1390 C1403 0.929 . S
H1391 C1401 0.929 . S
H1392 C1396 0.929 . S
H1393 C1402 0.929 . S
C1394 H1388 0.930 . S
C1394 C1395 1.367 . S
C1394 C1402 1.378 . S
C1395 C1394 1.367 . S
C1395 C1403 1.433 1_556 S
C1396 H1392 0.929 . S
C1396 C1398 1.378 . S
C1396 C1400 1.350 1_554 S
C1397 C1400 1.463 . S
C1397 C1402 1.350 . S
C1397 N1405 1.427 1_556 S
C1398 H1389 0.930 . S
C1398 C1396 1.378 . S
C1398 C1399 1.367 1_554 S
C1399 C1398 1.367 1_556 S
C1399 C1401 1.433 . S
C1400 C1396 1.350 1_556 S
C1400 C1397 1.463 . S
C1400 N1404 1.427 . S
C1401 H1391 0.929 . S
C1401 C1399 1.433 . S
C1401 N1404 1.384 . S
C1402 H1393 0.929 . S
C1402 C1394 1.378 . S
C1402 C1397 1.350 . S
C1403 H1390 0.929 . S
C1403 C1395 1.433 1_554 S
C1403 N1405 1.384 . S
N1404 C1400 1.427 . S
N1404 C1401 1.384 . S
N1405 C1397 1.427 1_554 S
N1405 C1403 1.384 . S
H1406 C1412 0.930 . S
H1407 C1416 0.930 . S
H1408 C1421 0.929 . S
H1409 C1419 0.929 . S
H1410 C1414 0.929 . S
H1411 C1420 0.929 . S
C1412 H1406 0.930 . S
C1412 C1413 1.367 . S
C1412 C1420 1.378 . S
C1413 C1412 1.367 . S
C1413 C1421 1.433 1_556 S
C1414 H1410 0.929 . S
C1414 C1416 1.378 . S
C1414 C1418 1.350 1_554 S
C1415 C1418 1.463 . S
C1415 C1420 1.350 . S
C1415 N1423 1.427 1_556 S
C1416 H1407 0.930 . S
C1416 C1414 1.378 . S
C1416 C1417 1.367 1_554 S
C1417 C1416 1.367 1_556 S
C1417 C1419 1.433 . S
C1418 C1414 1.350 1_556 S
C1418 C1415 1.463 . S
C1418 N1422 1.427 . S
C1419 H1409 0.929 . S
C1419 C1417 1.433 . S
C1419 N1422 1.384 . S
C1420 H1411 0.929 . S
C1420 C1412 1.378 . S
C1420 C1415 1.350 . S
C1421 H1408 0.929 . S
C1421 C1413 1.433 1_554 S
C1421 N1423 1.384 . S
N1422 C1418 1.427 . S
N1422 C1419 1.384 . S
N1423 C1415 1.427 1_554 S
N1423 C1421 1.384 . S
H1424 C1430 0.930 . S
H1425 C1434 0.930 . S
H1426 C1439 0.929 . S
H1427 C1437 0.929 . S
H1428 C1432 0.929 . S
H1429 C1438 0.929 . S
C1430 H1424 0.930 . S
C1430 C1431 1.367 . S
C1430 C1438 1.378 . S
C1431 C1430 1.367 . S
C1431 C1439 1.433 . S
C1432 H1428 0.929 . S
C1432 C1434 1.378 . S
C1432 C1436 1.350 . S
C1433 C1436 1.463 . S
C1433 C1438 1.350 . S
C1433 N1441 1.427 . S
C1434 H1425 0.930 . S
C1434 C1432 1.378 . S
C1434 C1435 1.367 . S
C1435 C1434 1.367 . S
C1435 C1437 1.433 . S
C1436 C1432 1.350 . S
C1436 C1433 1.463 . S
C1436 N1440 1.427 . S
C1437 H1427 0.929 . S
C1437 C1435 1.433 . S
C1437 N1440 1.384 . S
C1438 H1429 0.929 . S
C1438 C1430 1.378 . S
C1438 C1433 1.350 . S
C1439 H1426 0.929 . S
C1439 C1431 1.433 . S
C1439 N1441 1.384 . S
N1440 C1436 1.427 . S
N1440 C1437 1.384 . S
N1441 C1433 1.427 . S
N1441 C1439 1.384 . S
H1442 C1448 0.930 . S
H1443 C1452 0.930 . S
H1444 C1457 0.929 . S
H1445 C1455 0.929 . S
H1446 C1450 0.929 . S
H1447 C1456 0.929 . S
C1448 H1442 0.930 . S
C1448 C1449 1.367 . S
C1448 C1456 1.378 . S
C1449 C1448 1.367 . S
C1449 C1457 1.433 . S
C1450 H1446 0.929 . S
C1450 C1452 1.378 . S
C1450 C1454 1.350 . S
C1451 C1454 1.463 . S
C1451 C1456 1.350 . S
C1451 N1459 1.427 . S
C1452 H1443 0.930 . S
C1452 C1450 1.378 . S
C1452 C1453 1.367 . S
C1453 C1452 1.367 . S
C1453 C1455 1.433 . S
C1454 C1450 1.350 . S
C1454 C1451 1.463 . S
C1454 N1458 1.427 . S
C1455 H1445 0.929 . S
C1455 C1453 1.433 . S
C1455 N1458 1.384 . S
C1456 H1447 0.929 . S
C1456 C1448 1.378 . S
C1456 C1451 1.350 . S
C1457 H1444 0.929 . S
C1457 C1449 1.433 . S
C1457 N1459 1.384 . S
N1458 C1454 1.427 . S
N1458 C1455 1.384 . S
N1459 C1451 1.427 . S
N1459 C1457 1.384 . S
H1460 C1466 0.930 . S
H1461 C1470 0.930 . S
H1462 C1475 0.929 . S
H1463 C1473 0.929 . S
H1464 C1468 0.929 . S
H1465 C1474 0.929 . S
C1466 H1460 0.930 . S
C1466 C1467 1.367 . S
C1466 C1474 1.378 . S
C1467 C1466 1.367 . S
C1467 C1475 1.433 . S
C1468 H1464 0.929 . S
C1468 C1470 1.378 . S
C1468 C1472 1.350 . S
C1469 C1472 1.463 . S
C1469 C1474 1.350 . S
C1469 N1477 1.427 . S
C1470 H1461 0.930 . S
C1470 C1468 1.378 . S
C1470 C1471 1.367 . S
C1471 C1470 1.367 . S
C1471 C1473 1.433 . S
C1472 C1468 1.350 . S
C1472 C1469 1.463 . S
C1472 N1476 1.427 . S
C1473 H1463 0.929 . S
C1473 C1471 1.433 . S
C1473 N1476 1.384 . S
C1474 H1465 0.929 . S
C1474 C1466 1.378 . S
C1474 C1469 1.350 . S
C1475 H1462 0.929 . S
C1475 C1467 1.433 . S
C1475 N1477 1.384 . S
N1476 C1472 1.427 . S
N1476 C1473 1.384 . S
N1477 C1469 1.427 . S
N1477 C1475 1.384 . S
H1478 C1484 0.930 . S
H1479 C1488 0.930 . S
H1480 C1493 0.929 . S
H1481 C1491 0.929 . S
H1482 C1486 0.929 . S
H1483 C1492 0.929 . S
C1484 H1478 0.930 . S
C1484 C1485 1.367 . S
C1484 C1492 1.378 . S
C1485 C1484 1.367 . S
C1485 C1493 1.433 . S
C1486 H1482 0.929 . S
C1486 C1488 1.378 . S
C1486 C1490 1.350 . S
C1487 C1490 1.463 . S
C1487 C1492 1.350 . S
C1487 N1495 1.427 . S
C1488 H1479 0.930 . S
C1488 C1486 1.378 . S
C1488 C1489 1.367 . S
C1489 C1488 1.367 . S
C1489 C1491 1.433 . S
C1490 C1486 1.350 . S
C1490 C1487 1.463 . S
C1490 N1494 1.427 . S
C1491 H1481 0.929 . S
C1491 C1489 1.433 . S
C1491 N1494 1.384 . S
C1492 H1483 0.929 . S
C1492 C1484 1.378 . S
C1492 C1487 1.350 . S
C1493 H1480 0.929 . S
C1493 C1485 1.433 . S
C1493 N1495 1.384 . S
N1494 C1490 1.427 . S
N1494 C1491 1.384 . S
N1495 C1487 1.427 . S
N1495 C1493 1.384 . S
H1496 C1502 0.930 . S
H1497 C1506 0.930 . S
H1498 C1511 0.929 . S
H1499 C1509 0.929 . S
H1500 C1504 0.929 . S
H1501 C1510 0.929 . S
C1502 H1496 0.930 . S
C1502 C1503 1.367 . S
C1502 C1510 1.378 . S
C1503 C1502 1.367 . S
C1503 C1511 1.433 . S
C1504 H1500 0.929 . S
C1504 C1506 1.378 . S
C1504 C1508 1.350 . S
C1505 C1508 1.463 . S
C1505 C1510 1.350 . S
C1505 N1513 1.427 . S
C1506 H1497 0.930 . S
C1506 C1504 1.378 . S
C1506 C1507 1.367 . S
C1507 C1506 1.367 . S
C1507 C1509 1.433 . S
C1508 C1504 1.350 . S
C1508 C1505 1.463 . S
C1508 N1512 1.427 . S
C1509 H1499 0.929 . S
C1509 C1507 1.433 . S
C1509 N1512 1.384 . S
C1510 H1501 0.929 . S
C1510 C1502 1.378 . S
C1510 C1505 1.350 . S
C1511 H1498 0.929 . S
C1511 C1503 1.433 . S
C1511 N1513 1.384 . S
N1512 C1508 1.427 . S
N1512 C1509 1.384 . S
N1513 C1505 1.427 . S
N1513 C1511 1.384 . S
H1514 C1520 0.930 . S
H1515 C1524 0.930 . S
H1516 C1529 0.929 . S
H1517 C1527 0.929 . S
H1518 C1522 0.929 . S
H1519 C1528 0.929 . S
C1520 H1514 0.930 . S
C1520 C1521 1.367 . S
C1520 C1528 1.378 . S
C1521 C1520 1.367 . S
C1521 C1529 1.433 . S
C1522 H1518 0.929 . S
C1522 C1524 1.378 . S
C1522 C1526 1.350 . S
C1523 C1526 1.463 . S
C1523 C1528 1.350 . S
C1523 N1531 1.427 . S
C1524 H1515 0.930 . S
C1524 C1522 1.378 . S
C1524 C1525 1.367 . S
C1525 C1524 1.367 . S
C1525 C1527 1.433 . S
C1526 C1522 1.350 . S
C1526 C1523 1.463 . S
C1526 N1530 1.427 . S
C1527 H1517 0.929 . S
C1527 C1525 1.433 . S
C1527 N1530 1.384 . S
C1528 H1519 0.929 . S
C1528 C1520 1.378 . S
C1528 C1523 1.350 . S
C1529 H1516 0.929 . S
C1529 C1521 1.433 . S
C1529 N1531 1.384 . S
N1530 C1526 1.427 . S
N1530 C1527 1.384 . S
N1531 C1523 1.427 . S
N1531 C1529 1.384 . S
H1532 C1538 0.930 . S
H1533 C1542 0.930 . S
H1534 C1547 0.929 . S
H1535 C1545 0.929 . S
H1536 C1540 0.929 . S
H1537 C1546 0.929 . S
C1538 H1532 0.930 . S
C1538 C1539 1.367 . S
C1538 C1546 1.378 . S
C1539 C1538 1.367 . S
C1539 C1547 1.433 . S
C1540 H1536 0.929 . S
C1540 C1542 1.378 . S
C1540 C1544 1.350 . S
C1541 C1544 1.463 . S
C1541 C1546 1.350 . S
C1541 N1549 1.427 . S
C1542 H1533 0.930 . S
C1542 C1540 1.378 . S
C1542 C1543 1.367 . S
C1543 C1542 1.367 . S
C1543 C1545 1.433 . S
C1544 C1540 1.350 . S
C1544 C1541 1.463 . S
C1544 N1548 1.427 . S
C1545 H1535 0.929 . S
C1545 C1543 1.433 . S
C1545 N1548 1.384 . S
C1546 H1537 0.929 . S
C1546 C1538 1.378 . S
C1546 C1541 1.350 . S
C1547 H1534 0.929 . S
C1547 C1539 1.433 . S
C1547 N1549 1.384 . S
N1548 C1544 1.427 . S
N1548 C1545 1.384 . S
N1549 C1541 1.427 . S
N1549 C1547 1.384 . S
H1550 C1556 0.930 . S
H1551 C1560 0.930 . S
H1552 C1565 0.929 . S
H1553 C1563 0.929 . S
H1554 C1558 0.929 . S
H1555 C1564 0.929 . S
C1556 H1550 0.930 . S
C1556 C1557 1.367 . S
C1556 C1564 1.378 . S
C1557 C1556 1.367 . S
C1557 C1565 1.433 . S
C1558 H1554 0.929 . S
C1558 C1560 1.378 . S
C1558 C1562 1.350 . S
C1559 C1562 1.463 . S
C1559 C1564 1.350 . S
C1559 N1567 1.427 . S
C1560 H1551 0.930 . S
C1560 C1558 1.378 . S
C1560 C1561 1.367 . S
C1561 C1560 1.367 . S
C1561 C1563 1.433 . S
C1562 C1558 1.350 . S
C1562 C1559 1.463 . S
C1562 N1566 1.427 . S
C1563 H1553 0.929 . S
C1563 C1561 1.433 . S
C1563 N1566 1.384 . S
C1564 H1555 0.929 . S
C1564 C1556 1.378 . S
C1564 C1559 1.350 . S
C1565 H1552 0.929 . S
C1565 C1557 1.433 . S
C1565 N1567 1.384 . S
N1566 C1562 1.427 . S
N1566 C1563 1.384 . S
N1567 C1559 1.427 . S
N1567 C1565 1.384 . S
C423 C1 1.502 . S
C427 C40 1.507 . S
C441 C27 1.504 . S
C445 C14 1.509 . S
C459 C53 1.476 . S
C463 C92 1.488 . S
C477 C79 1.474 . S
C481 C66 1.487 . S
C495 C105 1.465 . S
C499 C144 1.464 . S
C513 C131 1.463 . S
C517 C118 1.464 . S
C531 C157 1.442 . S
C535 C196 1.446 . S
C549 C170 1.444 . S
C553 C183 1.436 . S
C567 C248 1.463 . S
C571 C209 1.464 . S
C585 C222 1.464 . S
C589 C235 1.463 . S
C603 C261 1.437 . S
C607 C300 1.444 . S
C621 C287 1.436 . S
C625 C274 1.443 . S
C639 C313 1.501 . S
C643 C352 1.508 . S
C657 C339 1.503 . S
C661 C326 1.510 . S
C675 C365 1.485 . S
C679 C404 1.483 . S
C693 C378 1.485 . S
C697 C391 1.485 . S
C711 C161 1.840 . S
C715 C5 1.720 . S
C729 C18 1.719 . S
C733 C278 1.840 . S
C747 C31 1.691 . S
C751 C83 1.797 . S
C765 C408 1.798 . S
C769 C44 1.696 . S
C783 C57 1.839 . S
C787 C109 1.719 . S
C801 C226 1.728 . S
C805 C70 1.843 . S
C819 C356 1.683 . S
C823 C96 1.794 . S
C837 C382 1.839 . S
C841 C122 1.719 . S
C855 C187 1.801 . S
C859 C135 1.693 . S
C873 C304 1.798 . S
C877 C148 1.684 . S
C891 C174 1.844 . S
C895 C330 1.730 . S
C909 C252 1.693 . S
C913 C200 1.802 . S
C927 C369 1.840 . S
C931 C213 1.722 . S
C945 C291 1.798 . S
C949 C239 1.685 . S
C963 C317 1.730 . S
C967 C265 1.844 . S
C981 C343 1.690 . S
C985 C395 1.797 . S
C999 C133 1.704 . S
C1003 C3 1.704 . S
C1017 C16 1.704 . S
C1021 C146 1.705 . S
C1035 C107 1.670 . S
C1039 C29 1.664 . S
C1053 C120 1.669 . S
C1057 C42 1.664 . S
C1071 C55 1.669 . S
C1075 C185 1.671 . S
C1089 C68 1.670 . S
C1093 C198 1.671 . S
C1107 C159 1.632 . S
C1111 C81 1.629 . S
C1125 C94 1.628 . S
C1129 C172 1.620 . S
C1143 C341 1.670 . S
C1147 C211 1.663 . S
C1161 C354 1.670 . S
C1165 C224 1.664 . S
C1179 C237 1.704 . S
C1183 C315 1.705 . S
C1197 C250 1.705 . S
C1201 C328 1.705 . S
C1215 C263 1.635 . S
C1219 C393 1.630 . S
C1233 C276 1.637 . S
C1237 C406 1.630 . S
C1251 C367 1.671 . S
C1255 C289 1.671 . S
C1269 C380 1.666 . S
C1273 C302 1.661 . S
C1287 C10 1.976 . S
C1291 C335 1.976 . S
C1305 C322 1.965 . S
C1309 C23 1.965 1_655 S
C1323 C36 1.935 . S
C1327 C361 1.935 . S
C1341 C49 1.925 1_655 S
C1345 C348 1.926 . S
C1359 C62 2.059 . S
C1363 C387 2.059 . S
C1377 C75 2.064 1_455 S
C1381 C374 2.064 . S
C1395 C413 2.016 . S
C1399 C88 2.017 . S
C1413 C400 2.017 . S
C1417 C101 2.018 1_455 S
C1431 C231 1.961 . S
C1435 C114 1.961 . S
C1449 C218 1.962 . S
C1453 C127 1.962 1_655 S
C1467 C140 1.936 . S
C1471 C257 1.936 . S
C1485 C153 1.938 1_655 S
C1489 C244 1.938 . S
C1503 C283 2.058 . S
C1507 C166 2.057 . S
C1521 C179 2.056 1_455 S
C1525 C270 2.057 . S
C1539 C192 2.017 . S
C1543 C309 2.017 . S
C1557 C205 2.018 1_455 S
C1561 C296 2.018 . S
