# Generated by pormake.
# Topology lcv-a, (4)-cn, num edge types: 1
# Building blocks:
#     Node 0, Type 0, BuildingBlock: CEKHIL_clean_sbu_0, # of connection points: 4
#     Node 1, Type 0, BuildingBlock: CEKHIL_clean_sbu_0, # of connection points: 4
#     Node 2, Type 0, BuildingBlock: CEKHIL_clean_sbu_0, # of connection points: 4
#     Node 3, Type 0, BuildingBlock: CEKHIL_clean_sbu_0, # of connection points: 4
#     Node 4, Type 0, BuildingBlock: CEKHIL_clean_sbu_0, # of connection points: 4
#     Node 5, Type 0, BuildingBlock: CEKHIL_clean_sbu_0, # of connection points: 4
#     Node 6, Type 0, BuildingBlock: CEKHIL_clean_sbu_0, # of connection points: 4
#     Node 7, Type 0, BuildingBlock: CEKHIL_clean_sbu_0, # of connection points: 4
#     Node 8, Type 0, BuildingBlock: CEKHIL_clean_sbu_0, # of connection points: 4
#     Node 9, Type 0, BuildingBlock: CEKHIL_clean_sbu_0, # of connection points: 4
#     Node 10, Type 0, BuildingBlock: CEKHIL_clean_sbu_0, # of connection points: 4
#     Node 11, Type 0, BuildingBlock: CEKHIL_clean_sbu_0, # of connection points: 4
#     Node 12, Type 0, BuildingBlock: CEKHIL_clean_sbu_0, # of connection points: 4
#     Node 13, Type 0, BuildingBlock: CEKHIL_clean_sbu_0, # of connection points: 4
#     Node 14, Type 0, BuildingBlock: CEKHIL_clean_sbu_0, # of connection points: 4
#     Node 15, Type 0, BuildingBlock: CEKHIL_clean_sbu_0, # of connection points: 4
#     Node 16, Type 0, BuildingBlock: CEKHIL_clean_sbu_0, # of connection points: 4
#     Node 17, Type 0, BuildingBlock: CEKHIL_clean_sbu_0, # of connection points: 4
#     Node 18, Type 0, BuildingBlock: CEKHIL_clean_sbu_0, # of connection points: 4
#     Node 19, Type 0, BuildingBlock: CEKHIL_clean_sbu_0, # of connection points: 4
#     Node 20, Type 0, BuildingBlock: CEKHIL_clean_sbu_0, # of connection points: 4
#     Node 21, Type 0, BuildingBlock: CEKHIL_clean_sbu_0, # of connection points: 4
#     Node 22, Type 0, BuildingBlock: CEKHIL_clean_sbu_0, # of connection points: 4
#     Node 23, Type 0, BuildingBlock: CEKHIL_clean_sbu_0, # of connection points: 4
#     Node 24, Type 0, BuildingBlock: CEKHIL_clean_sbu_0, # of connection points: 4
#     Node 25, Type 0, BuildingBlock: CEKHIL_clean_sbu_0, # of connection points: 4
#     Node 26, Type 0, BuildingBlock: CEKHIL_clean_sbu_0, # of connection points: 4
#     Node 27, Type 0, BuildingBlock: CEKHIL_clean_sbu_0, # of connection points: 4
#     Node 28, Type 0, BuildingBlock: CEKHIL_clean_sbu_0, # of connection points: 4
#     Node 29, Type 0, BuildingBlock: CEKHIL_clean_sbu_0, # of connection points: 4
#     Node 30, Type 0, BuildingBlock: CEKHIL_clean_sbu_0, # of connection points: 4
#     Node 31, Type 0, BuildingBlock: CEKHIL_clean_sbu_0, # of connection points: 4
#     Node 32, Type 0, BuildingBlock: CEKHIL_clean_sbu_0, # of connection points: 4
#     Node 33, Type 0, BuildingBlock: CEKHIL_clean_sbu_0, # of connection points: 4
#     Node 34, Type 0, BuildingBlock: CEKHIL_clean_sbu_0, # of connection points: 4
#     Node 35, Type 0, BuildingBlock: CEKHIL_clean_sbu_0, # of connection points: 4
#     Node 36, Type 0, BuildingBlock: CEKHIL_clean_sbu_0, # of connection points: 4
#     Node 37, Type 0, BuildingBlock: CEKHIL_clean_sbu_0, # of connection points: 4
#     Node 38, Type 0, BuildingBlock: CEKHIL_clean_sbu_0, # of connection points: 4
#     Node 39, Type 0, BuildingBlock: CEKHIL_clean_sbu_0, # of connection points: 4
#     Node 40, Type 0, BuildingBlock: CEKHIL_clean_sbu_0, # of connection points: 4
#     Node 41, Type 0, BuildingBlock: CEKHIL_clean_sbu_0, # of connection points: 4
#     Node 42, Type 0, BuildingBlock: CEKHIL_clean_sbu_0, # of connection points: 4
#     Node 43, Type 0, BuildingBlock: CEKHIL_clean_sbu_0, # of connection points: 4
#     Node 44, Type 0, BuildingBlock: CEKHIL_clean_sbu_0, # of connection points: 4
#     Node 45, Type 0, BuildingBlock: CEKHIL_clean_sbu_0, # of connection points: 4
#     Node 46, Type 0, BuildingBlock: CEKHIL_clean_sbu_0, # of connection points: 4
#     Node 47, Type 0, BuildingBlock: CEKHIL_clean_sbu_0, # of connection points: 4
#     Edge 48, Type (0, 0), None
#     Edge 49, Type (0, 0), None
#     Edge 50, Type (0, 0), None
#     Edge 51, Type (0, 0), None
#     Edge 52, Type (0, 0), None
#     Edge 53, Type (0, 0), None
#     Edge 54, Type (0, 0), None
#     Edge 55, Type (0, 0), None
#     Edge 56, Type (0, 0), None
#     Edge 57, Type (0, 0), None
#     Edge 58, Type (0, 0), None
#     Edge 59, Type (0, 0), None
#     Edge 60, Type (0, 0), None
#     Edge 61, Type (0, 0), None
#     Edge 62, Type (0, 0), None
#     Edge 63, Type (0, 0), None
#     Edge 64, Type (0, 0), None
#     Edge 65, Type (0, 0), None
#     Edge 66, Type (0, 0), None
#     Edge 67, Type (0, 0), None
#     Edge 68, Type (0, 0), None
#     Edge 69, Type (0, 0), None
#     Edge 70, Type (0, 0), None
#     Edge 71, Type (0, 0), None
#     Edge 72, Type (0, 0), None
#     Edge 73, Type (0, 0), None
#     Edge 74, Type (0, 0), None
#     Edge 75, Type (0, 0), None
#     Edge 76, Type (0, 0), None
#     Edge 77, Type (0, 0), None
#     Edge 78, Type (0, 0), None
#     Edge 79, Type (0, 0), None
#     Edge 80, Type (0, 0), None
#     Edge 81, Type (0, 0), None
#     Edge 82, Type (0, 0), None
#     Edge 83, Type (0, 0), None
#     Edge 84, Type (0, 0), None
#     Edge 85, Type (0, 0), None
#     Edge 86, Type (0, 0), None
#     Edge 87, Type (0, 0), None
#     Edge 88, Type (0, 0), None
#     Edge 89, Type (0, 0), None
#     Edge 90, Type (0, 0), None
#     Edge 91, Type (0, 0), None
#     Edge 92, Type (0, 0), None
#     Edge 93, Type (0, 0), None
#     Edge 94, Type (0, 0), None
#     Edge 95, Type (0, 0), None
#     Edge 96, Type (0, 0), None
#     Edge 97, Type (0, 0), None
#     Edge 98, Type (0, 0), None
#     Edge 99, Type (0, 0), None
#     Edge 100, Type (0, 0), None
#     Edge 101, Type (0, 0), None
#     Edge 102, Type (0, 0), None
#     Edge 103, Type (0, 0), None
#     Edge 104, Type (0, 0), None
#     Edge 105, Type (0, 0), None
#     Edge 106, Type (0, 0), None
#     Edge 107, Type (0, 0), None
#     Edge 108, Type (0, 0), None
#     Edge 109, Type (0, 0), None
#     Edge 110, Type (0, 0), None
#     Edge 111, Type (0, 0), None
#     Edge 112, Type (0, 0), None
#     Edge 113, Type (0, 0), None
#     Edge 114, Type (0, 0), None
#     Edge 115, Type (0, 0), None
#     Edge 116, Type (0, 0), None
#     Edge 117, Type (0, 0), None
#     Edge 118, Type (0, 0), None
#     Edge 119, Type (0, 0), None
#     Edge 120, Type (0, 0), None
#     Edge 121, Type (0, 0), None
#     Edge 122, Type (0, 0), None
#     Edge 123, Type (0, 0), None
#     Edge 124, Type (0, 0), None
#     Edge 125, Type (0, 0), None
#     Edge 126, Type (0, 0), None
#     Edge 127, Type (0, 0), None
#     Edge 128, Type (0, 0), None
#     Edge 129, Type (0, 0), None
#     Edge 130, Type (0, 0), None
#     Edge 131, Type (0, 0), None
#     Edge 132, Type (0, 0), None
#     Edge 133, Type (0, 0), None
#     Edge 134, Type (0, 0), None
#     Edge 135, Type (0, 0), None
#     Edge 136, Type (0, 0), None
#     Edge 137, Type (0, 0), None
#     Edge 138, Type (0, 0), None
#     Edge 139, Type (0, 0), None
#     Edge 140, Type (0, 0), None
#     Edge 141, Type (0, 0), None
#     Edge 142, Type (0, 0), None
#     Edge 143, Type (0, 0), None
# Relax obj value: 0.816
# Max RMSD: 0.524
# Mean RMSD: 0.416
data_MOF--net-lcv-a--node1-CEKHIL_clean_sbu_0--edge1-none
_symmetry_space_group_name_H-M    P1
_symmetry_Int_Tables_number       1
_symmetry_cell_setting            triclinic
loop_
_symmetry_equiv_pos_as_xyz
'x, y, z'
_cell_length_a     38.984396
_cell_length_b     38.980599
_cell_length_c     38.979746
_cell_angle_alpha  90.311875
_cell_angle_beta   90.311188
_cell_angle_gamma 90.311914
loop_
_atom_site_label
_atom_site_type_symbol
_atom_site_fract_x
_atom_site_fract_y
_atom_site_fract_z
_atom_type_partial_charge
Co0 Co -0.00154 0.34505 0.27594 0.0
O1 O 0.96933 0.37569 0.30562 0.0
O2 O 0.01427 0.3927 0.28015 0.0
C3 C 0.00779 0.29831 0.3148 0.0
O4 O 0.0379 0.37845 0.25922 0.0
Co5 Co 0.99642 0.32338 0.25419 0.0
O6 O 0.0321 0.34128 0.22115 0.0
C7 C 0.95332 0.33719 0.21499 0.0
C8 C 0.98816 0.40106 0.29811 0.0
C9 C 0.04859 0.36693 0.2301 0.0
O10 O 0.96732 0.36037 0.23379 0.0
O11 O 0.95482 0.30794 0.22781 0.0
O12 O 0.02399 0.32745 0.31564 0.0
O13 O 0.9814 0.29962 0.29469 0.0
Co14 Co 0.96566 0.79656 0.47612 0.0
O15 O 0.95119 0.75846 0.50498 0.0
O16 O 0.92575 0.8089 0.50071 0.0
C17 C 0.02197 0.79396 0.49478 0.0
O18 O 0.97575 0.84516 0.45288 0.0
Co19 Co 0.98087 0.79515 0.43218 0.0
O20 O 0.95044 0.83065 0.40776 0.0
C21 C 0.94845 0.7497 0.41907 0.0
C22 C 0.92641 0.77836 0.51409 0.0
C23 C 0.96545 0.85438 0.42295 0.0
O24 O 0.93464 0.77389 0.43691 0.0
O25 O 0.97939 0.74428 0.42607 0.0
O26 O -0.00106 0.81169 0.51051 0.0
O27 O 0.01184 0.77704 0.46804 0.0
Co28 Co 0.58458 0.73058 0.73517 0.0
O29 O 0.59465 0.69683 0.76861 0.0
O30 O 0.56174 0.6875 0.72327 0.0
C31 C 0.56901 0.76894 0.771 0.0
O32 O 0.57417 0.77069 0.69791 0.0
Co33 Co 0.63198 0.77571 0.72001 0.0
O34 O 0.61221 0.81313 0.69375 0.0
C35 C 0.62375 0.71964 0.67646 0.0
C36 C 0.57691 0.67571 0.75073 0.0
C37 C 0.58351 0.80111 0.6848 0.0
O38 O 0.6223 0.71168 0.70758 0.0
O39 O 0.63399 0.75016 0.67311 0.0
O40 O 0.54886 0.74449 0.76252 0.0
O41 O 0.60226 0.76714 0.76266 0.0
Co42 Co 0.60856 0.30584 0.96483 0.0
O43 O 0.63951 0.30041 0.00208 0.0
O44 O 0.64977 0.28018 0.95098 0.0
C45 C 0.56515 0.29171 0.99428 0.0
O46 O 0.57065 0.31305 0.92436 0.0
Co47 Co 0.57457 0.36413 0.95825 0.0
O48 O 0.53662 0.35851 0.92574 0.0
C49 C 0.6318 0.35383 0.91786 0.0
C50 C 0.66124 0.28752 0.98166 0.0
C51 C 0.5439 0.33042 0.91159 0.0
O52 O 0.63598 0.34486 0.94856 0.0
O53 O 0.60468 0.37112 0.91474 0.0
O54 O 0.58452 0.26845 0.9816 0.0
O55 O 0.57495 0.32464 0.99349 0.0
Co56 Co 0.9952 0.7441 0.328 0.0
O57 O 0.96905 0.72107 0.29198 0.0
O58 O 0.01258 0.69947 0.32174 0.0
C59 C 0.00477 0.7951 0.30085 0.0
O60 O 0.02867 0.76005 0.36692 0.0
Co61 Co 0.95512 0.80718 0.35541 0.0
O62 O 0.00064 0.80757 0.37949 0.0
C63 C 0.9387 0.74392 0.38247 0.0
C64 C 0.98902 0.69544 0.29815 0.0
C65 C 0.02567 0.78759 0.38478 0.0
O66 O 0.96135 0.72729 0.36482 0.0
O67 O 0.92351 0.76916 0.36871 0.0
O68 O 0.02428 0.76885 0.29485 0.0
O69 O 0.97742 0.78712 0.3171 0.0
Co70 Co 0.58635 0.75318 0.60054 0.0
O71 O 0.61759 0.74629 0.56289 0.0
O72 O 0.6309 0.7696 0.61309 0.0
C73 C 0.54708 0.78003 0.57243 0.0
O74 O 0.55186 0.76002 0.64336 0.0
Co75 Co 0.53872 0.71037 0.61398 0.0
O76 O 0.50625 0.72655 0.64853 0.0
C77 C 0.59941 0.70309 0.64981 0.0
C78 C 0.64073 0.75813 0.58334 0.0
C79 C 0.52282 0.75206 0.65966 0.0
O80 O 0.60288 0.70878 0.61828 0.0
O81 O 0.56843 0.69701 0.65681 0.0
O82 O 0.57434 0.79529 0.58226 0.0
O83 O 0.54536 0.74561 0.57458 0.0
Co84 Co 0.59729 0.33518 0.83359 0.0
O85 O 0.6124 0.37067 0.80278 0.0
O86 O 0.58659 0.37939 0.8525 0.0
C87 C 0.56764 0.30488 0.7971 0.0
O88 O 0.58052 0.2958 0.86871 0.0
Co89 Co 0.62928 0.27696 0.8422 0.0
O90 O 0.60339 0.24419 0.87033 0.0
C91 C 0.6441 0.33114 0.88792 0.0
C92 C 0.60152 0.39193 0.82546 0.0
C93 C 0.58059 0.26404 0.8814 0.0
O94 O 0.64179 0.34138 0.85751 0.0
O95 O 0.64345 0.29876 0.88949 0.0
O96 O 0.55598 0.33276 0.80941 0.0
O97 O 0.60099 0.29778 0.80219 0.0
Co98 Co 0.97943 0.29189 0.1286 0.0
O99 O 0.96872 0.31843 0.08896 0.0
O100 O 0.94323 0.26951 0.10213 0.0
C101 C 0.03578 0.30445 0.11698 0.0
O102 O 0.98441 0.25896 0.1719 0.0
Co103 Co 0.02944 0.30499 0.18215 0.0
O104 O 0.03833 0.25408 0.17354 0.0
C105 C 0.96128 0.33808 0.17811 0.0
C106 C 0.9464 0.29534 0.08113 0.0
C107 C 0.01097 0.24514 0.18628 0.0
O108 O 0.94591 0.31683 0.15817 0.0
O109 O 0.99307 0.34292 0.17196 0.0
O110 O 0.02156 0.27671 0.10429 0.0
O111 O 0.01707 0.31995 0.1384 0.0
Co112 Co 0.27516 -0.00112 0.34552 0.0
O113 O 0.30489 0.97003 0.37637 0.0
O114 O 0.27876 0.01465 0.39325 0.0
C115 C 0.31445 0.00861 0.2992 0.0
O116 O 0.25781 0.03812 0.37882 0.0
Co117 Co 0.25368 -0.00333 0.32357 0.0
O118 O 0.22029 0.03216 0.34115 0.0
C119 C 0.21456 0.95338 0.33695 0.0
C120 C 0.29708 0.98881 0.40166 0.0
C121 C 0.22879 0.04863 0.36695 0.0
O122 O 0.23307 0.96741 0.36035 0.0
O123 O 0.22768 0.95496 0.30783 0.0
O124 O 0.31483 0.02477 0.32837 0.0
O125 O 0.29454 0.98204 0.30025 0.0
Co126 Co 0.30573 0.96476 0.60908 0.0
O127 O 0.30036 0.00198 0.64009 0.0
O128 O 0.28021 0.95084 0.65037 0.0
C129 C 0.29141 0.99418 0.56569 0.0
O130 O 0.31293 0.9243 0.57112 0.0
Co131 Co 0.36396 0.95838 0.57495 0.0
O132 O 0.35832 0.92588 0.537 0.0
C133 C 0.3539 0.91788 0.63216 0.0
C134 C 0.28751 0.98154 0.66183 0.0
C135 C 0.3303 0.91163 0.54432 0.0
O136 O 0.34486 0.94855 0.6364 0.0
O137 O 0.37114 0.91485 0.605 0.0
O138 O 0.26823 0.98145 0.58514 0.0
O139 O 0.32436 0.99348 0.57542 0.0
Co140 Co 0.33817 0.0332 0.8806 0.0
O141 O 0.30557 0.06859 0.88996 0.0
O142 O 0.32232 0.02986 0.92749 0.0
C143 C 0.30982 0.01994 0.8297 0.0
O144 O 0.36909 0.98828 0.87565 0.0
Co145 Co 0.37735 0.03949 0.8567 0.0
O146 O 0.41382 0.01596 0.88635 0.0
C147 C 0.38684 0.09151 0.87918 0.0
C148 C 0.30403 0.057 0.92067 0.0
C149 C 0.40185 0.98729 0.87949 0.0
O150 O 0.37648 0.06765 0.89934 0.0
O151 O 0.37431 0.0901 0.84951 0.0
O152 O 0.30235 0.00542 0.85841 0.0
O153 O 0.33413 0.04235 0.83057 0.0
Co154 Co 0.32283 0.15869 0.11898 0.0
O155 O 0.29281 0.13189 0.14591 0.0
O156 O 0.34652 0.1417 0.16068 0.0
C157 C 0.3065 0.12613 0.07277 0.0
O158 O 0.36142 0.18448 0.09001 0.0
Co159 Co 0.30595 0.20229 0.08741 0.0
O160 O 0.3449 0.2344 0.10164 0.0
C161 C 0.27214 0.21049 0.13124 0.0
C162 C 0.31788 0.12504 0.16588 0.0
C163 C 0.36602 0.21712 0.08563 0.0
O164 O 0.30244 0.2022 0.14192 0.0
O165 O 0.26034 0.19101 0.10824 0.0
O166 O 0.33306 0.11811 0.091 0.0
O167 O 0.29085 0.15359 0.08203 0.0
Co168 Co 0.28372 0.0671 0.22983 0.0
O169 O 0.32249 0.09784 0.22163 0.0
O170 O 0.28733 0.07554 0.18228 0.0
C171 C 0.3102 0.0326 0.26981 0.0
O172 O 0.23985 0.03637 0.22703 0.0
Co173 Co 0.25213 0.06134 0.30128 0.0
O174 O 0.23315 0.01788 0.27928 0.0
C175 C 0.24646 0.12284 0.26464 0.0
C176 C 0.31185 0.09706 0.19001 0.0
C177 C 0.22424 0.01651 0.24829 0.0
O178 O 0.25238 0.10858 0.23538 0.0
O179 O 0.26301 0.1112 0.29 0.0
O180 O 0.31375 0.02575 0.23721 0.0
O181 O 0.29346 0.06003 0.27576 0.0
Co182 Co 0.27255 0.95978 0.48802 0.0
O183 O 0.27549 0.9953 0.45557 0.0
O184 O 0.30324 0.94719 0.4492 0.0
C185 C 0.28189 0.99328 0.53038 0.0
O186 O 0.26744 0.92166 0.52831 0.0
Co187 Co 0.21302 0.9503 0.52112 0.0
O188 O 0.22108 0.92169 0.56128 0.0
C189 C 0.22923 0.90692 0.46615 0.0
C190 C 0.29512 0.97727 0.43705 0.0
C191 C 0.25034 0.90955 0.55553 0.0
O192 O 0.23703 0.93749 0.45954 0.0
O193 O 0.21127 0.90487 0.49297 0.0
O194 O 0.30673 0.9823 0.5122 0.0
O195 O 0.2496 0.98848 0.51957 0.0
Co196 Co 0.32887 0.99471 0.74546 0.0
O197 O 0.29286 0.96871 0.72222 0.0
O198 O 0.32292 0.01214 0.70082 0.0
C199 C 0.30166 0.00439 0.7964 0.0
O200 O 0.36783 0.02803 0.76154 0.0
Co201 Co 0.35602 0.95457 0.80868 0.0
O202 O 0.38015 6e-05 0.80916 0.0
C203 C 0.3832 0.93813 0.74548 0.0
C204 C 0.29931 0.98864 0.69661 0.0
C205 C 0.38557 0.02504 0.78915 0.0
O206 O 0.36559 0.96073 0.72875 0.0
O207 O 0.36928 0.92296 0.77064 0.0
O208 O 0.29576 0.02392 0.77014 0.0
O209 O 0.31781 0.97696 0.78849 0.0
Co210 Co 0.29129 0.12862 0.98034 0.0
O211 O 0.31762 0.08889 0.9695 0.0
O212 O 0.26871 0.10231 0.94412 0.0
C213 C 0.30389 0.11684 0.0366 0.0
O214 O 0.25858 0.17208 0.9855 0.0
Co215 Co 0.30476 0.18202 0.03044 0.0
O216 O 0.25384 0.17361 0.03945 0.0
C217 C 0.33764 0.17802 0.96216 0.0
C218 C 0.29445 0.0812 0.94722 0.0
C219 C 0.2449 0.18646 0.01213 0.0
O220 O 0.31629 0.15816 0.94682 0.0
O221 O 0.34253 0.17175 0.99392 0.0
O222 O 0.27606 0.10429 0.02244 0.0
O223 O 0.31948 0.13823 0.01793 0.0
Co224 Co 0.34519 0.2757 -0.00047 0.0
O225 O 0.37585 0.30544 0.97047 0.0
O226 O 0.39292 0.27963 0.0152 0.0
C227 C 0.29864 0.31473 0.00918 0.0
O228 O 0.37863 0.25872 0.03882 0.0
Co229 Co 0.32335 0.25402 -0.00256 0.0
O230 O 0.3412 0.22087 0.03304 0.0
C231 C 0.3369 0.21492 0.95424 0.0
C232 C 0.40123 0.29779 0.98922 0.0
C233 C 0.36693 0.22968 0.04947 0.0
O234 O 0.36022 0.23358 0.96821 0.0
O235 O 0.30769 0.22782 0.95582 0.0
O236 O 0.32783 0.31537 0.0253 0.0
O237 O 0.29977 0.29471 0.9827 0.0
Co238 Co 0.87971 0.33914 0.03327 0.0
O239 O 0.88914 0.30651 0.06861 0.0
O240 O 0.92666 0.32348 0.02994 0.0
C241 C 0.82896 0.3106 0.01991 0.0
O242 O 0.87467 0.37012 0.9884 0.0
Co243 Co 0.85561 0.37824 0.03962 0.0
O244 O 0.88512 0.41487 0.01618 0.0
C245 C 0.87802 0.38772 0.09165 0.0
C246 C 0.91985 0.3051 0.05701 0.0
C247 C 0.87836 0.40291 0.98748 0.0
O248 O 0.89824 0.37748 0.06779 0.0
O249 O 0.84842 0.37504 0.09022 0.0
O250 O 0.85772 0.30328 0.0054 0.0
O251 O 0.82969 0.33488 0.04236 0.0
Co252 Co 0.96477 0.60827 0.30462 0.0
O253 O 0.00223 0.63893 0.29887 0.0
O254 O 0.95104 0.64949 0.27894 0.0
C255 C 0.9938 0.56461 0.29045 0.0
O256 O 0.92405 0.5707 0.31224 0.0
Co257 Co 0.95831 0.57459 0.36308 0.0
O258 O 0.92547 0.53688 0.35786 0.0
C259 C 0.91827 0.63205 0.35283 0.0
C260 C 0.98184 0.66077 0.28611 0.0
C261 C 0.91119 0.54413 0.32983 0.0
O262 O 0.94894 0.63596 0.34367 0.0
O263 O 0.91505 0.60503 0.37025 0.0
O264 O 0.9811 0.58398 0.2672 0.0
O265 O 0.9933 0.57454 0.32335 0.0
Co266 Co 0.73116 0.73539 0.585 0.0
O267 O 0.69782 0.76915 0.59545 0.0
O268 O 0.68798 0.72439 0.56189 0.0
C269 C 0.77002 0.77091 0.56996 0.0
O270 O 0.77082 0.69775 0.57417 0.0
Co271 Co 0.77602 0.71911 0.63235 0.0
O272 O 0.81313 0.69269 0.61224 0.0
C273 C 0.71947 0.67629 0.62344 0.0
C274 C 0.67653 0.75185 0.57733 0.0
C275 C 0.80108 0.6842 0.58341 0.0
O276 O 0.71182 0.70752 0.6223 0.0
O277 O 0.74992 0.6725 0.63375 0.0
O278 O 0.74548 0.76306 0.54969 0.0
O279 O 0.76804 0.76218 0.6031 0.0
Co280 Co 0.12847 0.97921 0.29074 0.0
O281 O 0.08869 0.96829 0.31692 0.0
O282 O 0.10239 0.94288 0.26811 0.0
C283 C 0.11641 0.03544 0.30322 0.0
O284 O 0.17204 0.98447 0.25822 0.0
Co285 Co 0.18164 0.02953 0.30454 0.0
O286 O 0.17355 0.03849 0.25358 0.0
C287 C 0.17763 0.96123 0.33743 0.0
C288 C 0.08116 0.94595 0.29377 0.0
C289 C 0.1864 0.01117 0.24465 0.0
O290 O 0.158 0.94581 0.31593 0.0
O291 O 0.17129 0.99298 0.34228 0.0
O292 O 0.10407 0.02119 0.27534 0.0
O293 O 0.13779 0.01686 0.31892 0.0
Co294 Co 0.24895 0.82781 0.50743 0.0
O295 O 0.21526 0.79382 0.49397 0.0
O296 O 0.20309 0.84518 0.51427 0.0
C297 C 0.27955 0.7958 0.54088 0.0
O298 O 0.28671 0.86632 0.52165 0.0
Co299 Co 0.30761 0.83587 0.47589 0.0
O300 O 0.33879 0.86793 0.49969 0.0
C301 C 0.25301 0.87734 0.45591 0.0
C302 C 0.19244 0.81641 0.50073 0.0
C303 C 0.31808 0.88031 0.521 0.0
O304 O 0.24407 0.84669 0.46068 0.0
O305 O 0.28528 0.88081 0.45677 0.0
O306 O 0.25113 0.80821 0.55103 0.0
O307 O 0.28729 0.79797 0.50737 0.0
Co308 Co 0.9588 0.48708 0.27233 0.0
O309 O 0.99415 0.45451 0.27534 0.0
O310 O 0.94624 0.44855 0.30348 0.0
C311 C 0.99265 0.52925 0.28119 0.0
O312 O 0.92096 0.52761 0.26703 0.0
Co313 Co 0.94951 0.5199 0.21242 0.0
O314 O 0.92122 0.5603 0.22045 0.0
C315 C 0.90571 0.46535 0.22918 0.0
C316 C 0.97629 0.43629 0.2954 0.0
C317 C 0.90907 0.55484 0.24977 0.0
O318 O 0.93618 0.45847 0.23712 0.0
O319 O 0.90395 0.49199 0.21092 0.0
O320 O 0.98162 0.51136 0.30621 0.0
O321 O 0.98764 0.51822 0.24901 0.0
Co322 Co 0.60048 0.58554 0.75154 0.0
O323 O 0.56286 0.61674 0.74434 0.0
O324 O 0.61289 0.63009 0.76802 0.0
C325 C 0.57218 0.54634 0.77831 0.0
O326 O 0.64326 0.55112 0.75882 0.0
Co327 Co 0.61431 0.53777 0.70904 0.0
O328 O 0.64876 0.50537 0.72561 0.0
C329 C 0.65011 0.59855 0.70175 0.0
C330 C 0.58318 0.63987 0.75644 0.0
C331 C 0.65966 0.52208 0.75114 0.0
O332 O 0.61854 0.60199 0.70723 0.0
O333 O 0.65718 0.56754 0.69589 0.0
O334 O 0.58191 0.57365 0.79354 0.0
O335 O 0.57461 0.54448 0.74391 0.0
Co336 Co 0.52193 0.83905 0.74576 0.0
O337 O 0.52223 0.86814 0.78496 0.0
O338 O 0.53513 0.88705 0.73438 0.0
C339 C 0.55003 0.80023 0.77188 0.0
O340 O 0.52063 0.80159 0.70446 0.0
Co341 Co 0.47409 0.79449 0.74083 0.0
O342 O 0.48437 0.75777 0.70839 0.0
C343 C 0.46705 0.85198 0.70214 0.0
C344 C 0.52873 0.89386 0.76646 0.0
C345 C 0.50875 0.77147 0.69245 0.0
O346 O 0.47645 0.85652 0.73287 0.0
O347 O 0.45674 0.82155 0.6981 0.0
O348 O 0.56574 0.8254 0.75802 0.0
O349 O 0.51572 0.80008 0.77393 0.0
Co350 Co 0.48748 0.2729 0.95999 0.0
O351 O 0.45505 0.27597 0.99551 0.0
O352 O 0.44866 0.30362 0.94736 0.0
C353 C 0.52983 0.28228 0.99349 0.0
O354 O 0.52779 0.2676 0.92191 0.0
Co355 Co 0.52061 0.21318 0.95086 0.0
O356 O 0.56073 0.22121 0.9222 0.0
C357 C 0.46568 0.22929 0.90732 0.0
C358 C 0.43655 0.29563 0.97749 0.0
C359 C 0.55502 0.25042 0.90991 0.0
O360 O 0.45899 0.23733 0.93781 0.0
O361 O 0.49244 0.21123 0.90546 0.0
O362 O 0.51169 0.30711 0.98243 0.0
O363 O 0.51894 0.25 0.98879 0.0
Co364 Co 0.06638 0.22914 0.28372 0.0
O365 O 0.09687 0.22049 0.32257 0.0
O366 O 0.07475 0.18153 0.28686 0.0
C367 C 0.03177 0.26891 0.3104 0.0
O368 O 0.0359 0.22688 0.23964 0.0
Co369 Co 0.06103 0.30101 0.25291 0.0
O370 O 0.0177 0.27931 0.23333 0.0
C371 C 0.12242 0.26421 0.24719 0.0
C372 C 0.09615 0.18898 0.31158 0.0
C373 C 0.01622 0.2484 0.22417 0.0
O374 O 0.10805 0.23493 0.25271 0.0
O375 O 0.11077 0.28942 0.26396 0.0
O376 O 0.02485 0.23629 0.31358 0.0
O377 O 0.05932 0.27498 0.29391 0.0
Co378 Co 0.10541 0.81404 0.46355 0.0
O379 O 0.13385 0.83129 0.49989 0.0
O380 O 0.15025 0.79316 0.46095 0.0
C381 C 0.05824 0.80345 0.49681 0.0
O382 O 0.07899 0.79179 0.4223 0.0
Co383 Co 0.04607 0.86714 0.45797 0.0
O384 O 0.03447 0.82664 0.42793 0.0
C385 C 0.10544 0.88025 0.42173 0.0
C386 C 0.15767 0.81226 0.48769 0.0
C387 C 0.04864 0.80129 0.41325 0.0
O388 O 0.12127 0.85307 0.432 0.0
O389 O 0.08574 0.89567 0.44257 0.0
O390 O 0.08215 0.78058 0.49408 0.0
O391 O 0.06708 0.83246 0.4845 0.0
Co392 Co 0.50729 0.2486 0.82823 0.0
O393 O 0.49407 0.21459 0.79449 0.0
O394 O 0.5143 0.20294 0.84602 0.0
C395 C 0.54068 0.27901 0.79603 0.0
O396 O 0.5213 0.28667 0.86647 0.0
Co397 Co 0.47565 0.30732 0.83584 0.0
O398 O 0.49932 0.33873 0.8678 0.0
C399 C 0.45559 0.25289 0.87756 0.0
C400 C 0.50093 0.192 0.81728 0.0
C401 C 0.52062 0.31809 0.88031 0.0
O402 O 0.4605 0.24375 0.84698 0.0
O403 O 0.45642 0.28519 0.88084 0.0
O404 O 0.55091 0.25073 0.80871 0.0
O405 O 0.50717 0.28673 0.7981 0.0
Co406 Co 0.11812 0.32291 0.15909 0.0
O407 O 0.14497 0.29288 0.13221 0.0
O408 O 0.15999 0.34646 0.14231 0.0
C409 C 0.07192 0.30693 0.12642 0.0
O410 O 0.08924 0.36149 0.18501 0.0
Co411 Co 0.08632 0.30589 0.20265 0.0
O412 O 0.10062 0.34466 0.23497 0.0
C413 C 0.13003 0.27194 0.21067 0.0
C414 C 0.16511 0.31786 0.12554 0.0
C415 C 0.0848 0.36592 0.21768 0.0
O416 O 0.14085 0.30225 0.20256 0.0
O417 O 0.10703 0.26027 0.19112 0.0
O418 O 0.09028 0.33344 0.1185 0.0
O419 O 0.08105 0.29112 0.15384 0.0
Co420 Co 0.03349 0.87916 0.33745 0.0
O421 O 0.06879 0.88865 0.3048 0.0
O422 O 0.02998 0.92605 0.32171 0.0
C423 C 0.02029 0.82836 0.30905 0.0
O424 O 0.98866 0.87404 0.36843 0.0
Co425 Co 0.03995 0.85516 0.37666 0.0
O426 O 0.0164 0.88474 0.41317 0.0
C427 C 0.09186 0.87776 0.38609 0.0
C428 C 0.05708 0.91932 0.30335 0.0
C429 C 0.98775 0.87784 0.4012 0.0
O430 O 0.06796 0.89789 0.37575 0.0
O431 O 0.09057 0.84809 0.37356 0.0
O432 O 0.00571 0.85705 0.30163 0.0
O433 O 0.04274 0.82918 0.33333 0.0
Co434 Co 0.48593 0.82616 0.6157 0.0
O435 O 0.44877 0.83644 0.58549 0.0
O436 O 0.44281 0.80859 0.63413 0.0
C437 C 0.51775 0.80215 0.57709 0.0
O438 O 0.52957 0.81593 0.64842 0.0
Co439 Co 0.53514 0.86812 0.62275 0.0
O440 O 0.57536 0.84956 0.64618 0.0
C441 C 0.48476 0.87073 0.67221 0.0
C442 C 0.4288 0.8222 0.60699 0.0
C443 C 0.56184 0.8229 0.65821 0.0
O444 O 0.47366 0.868 0.64191 0.0
O445 O 0.51662 0.87641 0.67238 0.0
O446 O 0.49327 0.78593 0.59106 0.0
O447 O 0.52047 0.83616 0.58236 0.0
Co448 Co 0.74496 0.52194 0.83886 0.0
O449 O 0.78392 0.52258 0.86823 0.0
O450 O 0.73318 0.53542 0.8867 0.0
C451 C 0.77133 0.54984 0.80007 0.0
O452 O 0.70401 0.52026 0.80106 0.0
Co453 Co 0.74051 0.47378 0.7946 0.0
O454 O 0.7084 0.48374 0.7575 0.0
C455 C 0.70139 0.46705 0.85184 0.0
C456 C 0.76523 0.52917 0.89378 0.0
C457 C 0.69229 0.50817 0.77091 0.0
O458 O 0.73206 0.47655 0.85654 0.0
O459 O 0.69762 0.45651 0.82145 0.0
O460 O 0.75721 0.56567 0.82501 0.0
O461 O 0.77346 0.51553 0.80017 0.0
Co462 Co 0.81384 0.46489 0.10493 0.0
O463 O 0.8308 0.50116 0.13359 0.0
O464 O 0.79278 0.46192 0.14963 0.0
C465 C 0.80331 0.49825 0.05776 0.0
O466 O 0.79188 0.42365 0.07837 0.0
Co467 Co 0.86721 0.45967 0.04581 0.0
O468 O 0.82694 0.42941 0.03403 0.0
C469 C 0.88028 0.42339 0.10521 0.0
C470 C 0.81177 0.48867 0.15727 0.0
C471 C 0.80159 0.41463 0.04809 0.0
O472 O 0.85293 0.43346 0.12086 0.0
O473 O 0.89568 0.44425 0.08551 0.0
O474 O 0.78037 0.49535 0.0816 0.0
O475 O 0.83233 0.48604 0.06672 0.0
Co476 Co 0.83362 0.59811 0.33478 0.0
O477 O 0.80314 0.61359 0.37039 0.0
O478 O 0.8527 0.58741 0.3789 0.0
C479 C 0.79672 0.56861 0.30483 0.0
O480 O 0.86837 0.58089 0.29527 0.0
Co481 Co 0.84215 0.62976 0.27639 0.0
O482 O 0.86985 0.60349 0.24354 0.0
C483 C 0.8883 0.64447 0.33024 0.0
C484 C 0.82584 0.60257 0.39155 0.0
C485 C 0.88086 0.58071 0.26343 0.0
O486 O 0.85793 0.64244 0.34068 0.0
O487 O 0.88966 0.64365 0.29786 0.0
O488 O 0.80912 0.55697 0.33267 0.0
O489 O 0.80203 0.60189 0.29755 0.0
Co490 Co 0.75231 0.60042 0.58527 0.0
O491 O 0.74507 0.5625 0.61614 0.0
O492 O 0.76889 0.61234 0.62991 0.0
C493 C 0.77894 0.57241 0.54577 0.0
O494 O 0.75965 0.64352 0.55126 0.0
Co495 Co 0.70974 0.61479 0.53777 0.0
O496 O 0.72631 0.64949 0.50565 0.0
C497 C 0.70271 0.65007 0.59881 0.0
C498 C 0.75723 0.58257 0.63944 0.0
C499 C 0.75191 0.66019 0.52238 0.0
O500 O 0.70809 0.61845 0.60196 0.0
O501 O 0.69676 0.65746 0.56789 0.0
O502 O 0.79424 0.58185 0.57314 0.0
O503 O 0.74456 0.57495 0.54398 0.0
Co504 Co 0.73528 0.58392 0.72994 0.0
O505 O 0.76902 0.59391 0.69648 0.0
O506 O 0.72381 0.56093 0.68681 0.0
C507 C 0.77078 0.56862 0.76866 0.0
O508 O 0.69767 0.57363 0.76977 0.0
Co509 Co 0.71967 0.63158 0.77475 0.0
O510 O 0.69311 0.61189 0.81198 0.0
C511 C 0.67661 0.62296 0.7184 0.0
C512 C 0.75135 0.57612 0.67523 0.0
C513 C 0.6843 0.58311 0.80004 0.0
O514 O 0.70779 0.62151 0.71065 0.0
O515 O 0.67299 0.63342 0.74881 0.0
O516 O 0.76258 0.54831 0.74425 0.0
O517 O 0.7624 0.60185 0.76663 0.0
Co518 Co 0.7968 0.47743 0.96516 0.0
O519 O 0.75857 0.506 0.95051 0.0
O520 O 0.80909 0.50196 0.92519 0.0
C521 C 0.79396 0.49614 0.02145 0.0
O522 O 0.8455 0.45445 0.97541 0.0
Co523 Co 0.79559 0.43355 0.98038 0.0
O524 O 0.83126 0.40924 0.95003 0.0
C525 C 0.75023 0.4202 0.9479 0.0
C526 C 0.77841 0.51503 0.92565 0.0
C527 C 0.85485 0.42455 0.96513 0.0
O528 O 0.77439 0.43808 0.93412 0.0
O529 O 0.74475 0.42721 0.97883 0.0
O530 O 0.81166 0.51196 -0.00156 0.0
O531 O 0.77721 0.46931 0.0113 0.0
Co532 Co 0.82709 0.50778 0.24868 0.0
O533 O 0.79314 0.49467 0.21483 0.0
O534 O 0.84477 0.51452 0.20297 0.0
C535 C 0.79528 0.54154 0.27909 0.0
O536 O 0.86561 0.52166 0.2865 0.0
Co537 Co 0.83475 0.47636 0.30756 0.0
O538 O 0.86712 0.49992 0.33865 0.0
C539 C 0.876 0.45567 0.25299 0.0
C540 C 0.81591 0.50133 0.19215 0.0
C541 C 0.87965 0.52103 0.31783 0.0
O542 O 0.84544 0.4608 0.24395 0.0
O543 O 0.87946 0.45664 0.28526 0.0
O544 O 0.80791 0.55155 0.25071 0.0
O545 O 0.79714 0.50804 0.28694 0.0
Co546 Co 0.8258 0.61579 0.48524 0.0
O547 O 0.83604 0.58578 0.44793 0.0
O548 O 0.80866 0.63473 0.44218 0.0
C549 C 0.80122 0.57709 0.51657 0.0
O550 O 0.81565 0.6482 0.52912 0.0
Co551 Co 0.86755 0.622 0.53453 0.0
O552 O 0.84914 0.64518 0.57496 0.0
C553 C 0.87084 0.67195 0.48469 0.0
C554 C 0.82214 0.60758 0.42804 0.0
C555 C 0.82263 0.6576 0.56152 0.0
O556 O 0.86791 0.64175 0.47336 0.0
O557 O 0.87632 0.67175 0.51657 0.0
O558 O 0.78528 0.59148 0.49215 0.0
O559 O 0.83527 0.582 0.51951 0.0
Co560 Co 0.83981 0.74534 0.52249 0.0
O561 O 0.86927 0.78427 0.52323 0.0
O562 O 0.88775 0.73332 0.5353 0.0
C563 C 0.80132 0.77151 0.55097 0.0
O564 O 0.80192 0.70446 0.52072 0.0
Co565 Co 0.79534 0.74136 0.47465 0.0
O566 O 0.7582 0.70927 0.48446 0.0
C567 C 0.8523 0.70217 0.46722 0.0
C568 C 0.89486 0.76538 0.52912 0.0
C569 C 0.77168 0.69292 0.50869 0.0
O570 O 0.85708 0.7328 0.47684 0.0
O571 O 0.82187 0.69846 0.45684 0.0
O572 O 0.82634 0.75719 0.56648 0.0
O573 O 0.80113 0.77396 0.51668 0.0
Co574 Co 0.3355 0.83361 0.59758 0.0
O575 O 0.37117 0.80295 0.61263 0.0
O576 O 0.37961 0.85274 0.5869 0.0
C577 C 0.3054 0.79705 0.56787 0.0
O578 O 0.29594 0.86854 0.5809 0.0
Co579 Co 0.27738 0.84194 0.62965 0.0
O580 O 0.24437 0.8699 0.60386 0.0
C581 C 0.3313 0.88787 0.64446 0.0
C582 C 0.39231 0.82577 0.6018 0.0
C583 C 0.26413 0.88108 0.58104 0.0
O584 O 0.34161 0.85748 0.64212 0.0
O585 O 0.29892 0.88934 0.64383 0.0
O586 O 0.3332 0.80952 0.55622 0.0
O587 O 0.29822 0.80202 0.60124 0.0
Co588 Co 0.46429 0.10481 0.81541 0.0
O589 O 0.50052 0.13348 0.8325 0.0
O590 O 0.46146 0.14947 0.79428 0.0
C591 C 0.49765 0.0576 0.80506 0.0
O592 O 0.42312 0.07828 0.79324 0.0
Co593 Co 0.45869 0.04564 0.86871 0.0
O594 O 0.42864 0.03389 0.82828 0.0
C595 C 0.42248 0.10509 0.88164 0.0
C596 C 0.48815 0.15713 0.81334 0.0
C597 C 0.41401 0.04799 0.80287 0.0
O598 O 0.4327 0.12078 0.85436 0.0
O599 O 0.44327 0.08539 0.89712 0.0
O600 O 0.49488 0.08144 0.7821 0.0
O601 O 0.48531 0.06657 0.83402 0.0
Co602 Co 0.22946 0.28383 0.06786 0.0
O603 O 0.22095 0.32266 0.09847 0.0
O604 O 0.18189 0.2871 0.07628 0.0
C605 C 0.26928 0.31044 0.03323 0.0
O606 O 0.22696 0.23983 0.03728 0.0
Co607 Co 0.30118 0.25273 0.06223 0.0
O608 O 0.27929 0.23335 0.01889 0.0
C609 C 0.26454 0.24706 0.12373 0.0
C610 C 0.18941 0.31176 0.09772 0.0
C611 C 0.24834 0.22433 0.01748 0.0
O612 O 0.23524 0.2527 0.10945 0.0
O613 O 0.28983 0.2637 0.11205 0.0
O614 O 0.23666 0.31375 0.02638 0.0
O615 O 0.27534 0.29386 0.06073 0.0
Co616 Co 0.61514 0.48557 0.82518 0.0
O617 O 0.58493 0.44842 0.83551 0.0
O618 O 0.63382 0.44238 0.80809 0.0
C619 C 0.57665 0.51713 0.80063 0.0
O620 O 0.64786 0.5292 0.8149 0.0
Co621 Co 0.62174 0.53509 0.86684 0.0
O622 O 0.64528 0.57521 0.84821 0.0
C623 C 0.67128 0.48484 0.87022 0.0
C624 C 0.60662 0.4284 0.82162 0.0
C625 C 0.65755 0.56153 0.82173 0.0
O626 O 0.64102 0.47366 0.86733 0.0
O627 O 0.67134 0.51674 0.87567 0.0
O628 O 0.5908 0.49256 0.78469 0.0
O629 O 0.58164 0.52008 0.83467 0.0
Co630 Co 0.74468 0.32926 0.99469 0.0
O631 O 0.72157 0.29315 0.96869 0.0
O632 O 0.7001 0.32311 0.01217 0.0
C633 C 0.79572 0.30228 0.00434 0.0
O634 O 0.76055 0.36825 0.02805 0.0
Co635 Co 0.80777 0.35677 0.95461 0.0
O636 O 0.80811 0.38087 0.00011 0.0
C637 C 0.74445 0.38362 0.93811 0.0
C638 C 0.69598 0.29947 0.98868 0.0
C639 C 0.78806 0.38615 0.02509 0.0
O640 O 0.72781 0.36595 0.96074 0.0
O641 O 0.76972 0.36987 0.92296 0.0
O642 O 0.76949 0.29623 0.02386 0.0
O643 O 0.78775 0.31841 0.97692 0.0
Co644 Co 0.47676 0.96501 0.79826 0.0
O645 O 0.50545 0.95055 0.76006 0.0
O646 O 0.50127 0.92497 0.81045 0.0
C647 C 0.4955 0.0213 0.79567 0.0
O648 O 0.45356 0.97514 0.84689 0.0
Co649 Co 0.43286 0.98028 0.79687 0.0
O650 O 0.40835 0.9499 0.83236 0.0
C651 C 0.41976 0.94789 0.75141 0.0
C652 C 0.51444 0.9256 0.7798 0.0
C653 C 0.42358 0.96492 0.85606 0.0
O654 O 0.43751 0.93404 0.77563 0.0
O655 O 0.42679 0.97883 0.74598 0.0
O656 O 0.51124 -0.00176 0.81337 0.0
O657 O 0.46874 0.01122 0.77877 0.0
Co658 Co 0.15778 0.11792 0.32244 0.0
O659 O 0.131 0.14489 0.29243 0.0
O660 O 0.14069 0.1595 0.34623 0.0
C661 C 0.12551 0.07166 0.30588 0.0
O662 O 0.18347 0.08893 0.36108 0.0
Co663 Co 0.20165 0.08644 0.30566 0.0
O664 O 0.23349 0.10075 0.34483 0.0
C665 C 0.20982 0.13031 0.27201 0.0
C666 C 0.12406 0.16477 0.31757 0.0
C667 C 0.21611 0.08474 0.36587 0.0
O668 O 0.20135 0.14097 0.30228 0.0
O669 O 0.19048 0.1073 0.26001 0.0
O670 O 0.11725 0.08981 0.33243 0.0
O671 O 0.153 0.08105 0.29037 0.0
loop_
_geom_bond_atom_site_label_1
_geom_bond_atom_site_label_2
_geom_bond_distance
_geom_bond_site_symmetry_2
_ccdc_geom_bond_type
Co0 O1 2.216 1_455 S
Co0 O2 2.091 . S
Co0 O4 2.004 . S
Co0 O10 2.021 1_455 S
Co0 O12 2.137 . S
Co0 O13 2.244 . S
O1 Co0 2.216 1_655 S
O1 C8 1.247 . S
O2 Co0 2.091 . S
O2 C8 1.261 1_455 S
C3 O12 1.247 . S
C3 O13 1.272 . S
O4 Co0 2.004 . S
O4 C9 1.259 . S
Co5 O6 2.061 . S
Co5 O11 2.052 1_455 S
Co5 O13 2.135 . S
O6 Co5 2.061 . S
O6 C9 1.235 . S
C7 O10 1.238 . S
C7 O11 1.241 . S
C8 O1 1.247 . S
C8 O2 1.261 1_655 S
C9 O4 1.259 . S
C9 O6 1.235 . S
O10 Co0 2.021 1_655 S
O10 C7 1.238 . S
O11 Co5 2.052 1_655 S
O11 C7 1.241 . S
O12 Co0 2.137 . S
O12 C3 1.247 . S
O13 Co0 2.244 . S
O13 C3 1.272 . S
O13 Co5 2.135 . S
Co14 O15 2.216 . S
Co14 O16 2.091 . S
Co14 O18 2.004 . S
Co14 O24 2.021 . S
Co14 O26 2.137 . S
Co14 O27 2.244 1_655 S
O15 Co14 2.216 . S
O15 C22 1.247 . S
O16 Co14 2.091 . S
O16 C22 1.261 . S
C17 O26 1.247 1_455 S
C17 O27 1.272 . S
O18 Co14 2.004 . S
O18 C23 1.259 1_655 S
Co19 O20 2.061 . S
Co19 O25 2.052 . S
Co19 O27 2.135 . S
O20 Co19 2.061 . S
O20 C23 1.235 . S
C21 O24 1.238 . S
C21 O25 1.241 1_655 S
C22 O15 1.247 . S
C22 O16 1.261 . S
C23 O18 1.259 1_455 S
C23 O20 1.235 . S
O24 Co14 2.021 . S
O24 C21 1.238 . S
O25 Co19 2.052 . S
O25 C21 1.241 1_455 S
O26 Co14 2.137 . S
O26 C17 1.247 1_655 S
O27 Co14 2.244 1_455 S
O27 C17 1.272 . S
O27 Co19 2.135 . S
Co28 O29 2.216 . S
Co28 O30 2.091 . S
Co28 O32 2.004 . S
Co28 O38 2.021 . S
Co28 O40 2.137 . S
Co28 O41 2.244 . S
O29 Co28 2.216 . S
O29 C36 1.247 . S
O30 Co28 2.091 . S
O30 C36 1.261 . S
C31 O40 1.247 . S
C31 O41 1.272 . S
O32 Co28 2.004 . S
O32 C37 1.259 . S
Co33 O34 2.061 . S
Co33 O39 2.052 . S
Co33 O41 2.135 . S
O34 Co33 2.061 . S
O34 C37 1.235 . S
C35 O38 1.238 . S
C35 O39 1.241 . S
C36 O29 1.247 . S
C36 O30 1.261 . S
C37 O32 1.259 . S
C37 O34 1.235 . S
O38 Co28 2.021 . S
O38 C35 1.238 . S
O39 Co33 2.052 . S
O39 C35 1.241 . S
O40 Co28 2.137 . S
O40 C31 1.247 . S
O41 Co28 2.244 . S
O41 C31 1.272 . S
O41 Co33 2.135 . S
Co42 O43 2.216 1_556 S
Co42 O44 2.091 . S
Co42 O46 2.004 . S
Co42 O52 2.021 . S
Co42 O54 2.137 1_556 S
Co42 O55 2.244 . S
O43 Co42 2.216 1_554 S
O43 C50 1.241 1_554 S
O44 Co42 2.091 . S
O44 C50 1.275 . S
C45 O54 1.247 . S
C45 O55 1.272 1_554 S
O46 Co42 2.004 . S
O46 C51 1.259 . S
Co47 O48 2.061 . S
Co47 O53 2.052 . S
Co47 O55 2.135 . S
O48 Co47 2.061 . S
O48 C51 1.235 . S
C49 O52 1.238 . S
C49 O53 1.241 . S
C50 O43 1.241 1_556 S
C50 O44 1.275 . S
C51 O46 1.259 . S
C51 O48 1.235 . S
O52 Co42 2.021 . S
O52 C49 1.238 . S
O53 Co47 2.052 . S
O53 C49 1.241 . S
O54 Co42 2.137 1_554 S
O54 C45 1.247 . S
O55 Co42 2.244 . S
O55 C45 1.272 1_556 S
O55 Co47 2.135 . S
Co56 O57 2.216 1_455 S
Co56 O58 2.088 1_455 S
Co56 O60 2.004 . S
Co56 O66 2.021 1_455 S
Co56 O68 2.137 . S
Co56 O69 2.244 . S
O57 Co56 2.216 1_655 S
O57 C64 1.247 . S
O58 Co56 2.088 1_655 S
O58 C64 1.283 . S
C59 O68 1.247 . S
C59 O69 1.272 . S
O60 Co56 2.004 . S
O60 C65 1.259 . S
Co61 O62 2.061 . S
Co61 O67 2.052 1_455 S
Co61 O69 2.135 . S
O62 Co61 2.061 . S
O62 C65 1.235 . S
C63 O66 1.238 . S
C63 O67 1.241 . S
C64 O57 1.247 . S
C64 O58 1.283 . S
C65 O60 1.259 . S
C65 O62 1.235 . S
O66 Co56 2.021 1_655 S
O66 C63 1.238 . S
O67 Co61 2.052 1_655 S
O67 C63 1.241 . S
O68 Co56 2.137 . S
O68 C59 1.247 . S
O69 Co56 2.244 . S
O69 C59 1.272 . S
O69 Co61 2.135 . S
Co70 O71 2.216 . S
Co70 O72 2.091 . S
Co70 O74 2.004 . S
Co70 O80 2.021 . S
Co70 O82 2.137 . S
Co70 O83 2.244 . S
O71 Co70 2.216 . S
O71 C78 1.247 . S
O72 Co70 2.091 . S
O72 C78 1.261 . S
C73 O82 1.247 . S
C73 O83 1.272 . S
O74 Co70 2.004 . S
O74 C79 1.259 . S
Co75 O76 2.061 . S
Co75 O81 2.052 . S
Co75 O83 2.135 . S
O76 Co75 2.061 . S
O76 C79 1.235 . S
C77 O80 1.238 . S
C77 O81 1.241 . S
C78 O71 1.247 . S
C78 O72 1.261 . S
C79 O74 1.259 . S
C79 O76 1.235 . S
O80 Co70 2.021 . S
O80 C77 1.238 . S
O81 Co75 2.052 . S
O81 C77 1.241 . S
O82 Co70 2.137 . S
O82 C73 1.247 . S
O83 Co70 2.244 . S
O83 C73 1.272 . S
O83 Co75 2.135 . S
Co84 O85 2.216 . S
Co84 O86 2.091 . S
Co84 O88 2.004 . S
Co84 O94 2.021 . S
Co84 O96 2.137 . S
Co84 O97 2.244 . S
O85 Co84 2.216 . S
O85 C92 1.247 . S
O86 Co84 2.091 . S
O86 C92 1.261 . S
C87 O96 1.247 . S
C87 O97 1.272 . S
O88 Co84 2.004 . S
O88 C93 1.259 . S
Co89 O90 2.061 . S
Co89 O95 2.052 . S
Co89 O97 2.135 . S
O90 Co89 2.061 . S
O90 C93 1.235 . S
C91 O94 1.238 . S
C91 O95 1.241 . S
C92 O85 1.247 . S
C92 O86 1.261 . S
C93 O88 1.259 . S
C93 O90 1.235 . S
O94 Co84 2.021 . S
O94 C91 1.238 . S
O95 Co89 2.052 . S
O95 C91 1.241 . S
O96 Co84 2.137 . S
O96 C87 1.247 . S
O97 Co84 2.244 . S
O97 C87 1.272 . S
O97 Co89 2.135 . S
Co98 O99 2.216 . S
Co98 O100 2.091 . S
Co98 O102 2.004 1_655 S
Co98 O108 2.021 . S
Co98 O110 2.137 1_655 S
Co98 O111 2.244 1_655 S
O99 Co98 2.216 . S
O99 C106 1.247 . S
O100 Co98 2.091 . S
O100 C106 1.261 . S
C101 O110 1.247 . S
C101 O111 1.272 . S
O102 Co98 2.004 1_455 S
O102 C107 1.259 . S
Co103 O104 2.061 . S
Co103 O109 2.052 . S
Co103 O111 2.135 . S
O104 Co103 2.061 . S
O104 C107 1.235 . S
C105 O108 1.238 . S
C105 O109 1.241 1_655 S
C106 O99 1.247 . S
C106 O100 1.261 . S
C107 O102 1.259 . S
C107 O104 1.235 . S
O108 Co98 2.021 . S
O108 C105 1.238 . S
O109 Co103 2.052 . S
O109 C105 1.241 1_455 S
O110 Co98 2.137 1_455 S
O110 C101 1.247 . S
O111 Co98 2.244 1_455 S
O111 C101 1.272 . S
O111 Co103 2.135 . S
Co112 O113 2.216 1_545 S
Co112 O114 2.091 . S
Co112 O116 2.004 . S
Co112 O122 2.021 1_545 S
Co112 O124 2.137 . S
Co112 O125 2.244 . S
O113 Co112 2.216 1_565 S
O113 C120 1.247 . S
O114 Co112 2.091 . S
O114 C120 1.261 1_545 S
C115 O124 1.247 . S
C115 O125 1.272 . S
O116 Co112 2.004 . S
O116 C121 1.259 . S
Co117 O118 2.061 . S
Co117 O123 2.052 1_545 S
Co117 O125 2.135 . S
O118 Co117 2.061 . S
O118 C121 1.235 . S
C119 O122 1.238 . S
C119 O123 1.241 . S
C120 O113 1.247 . S
C120 O114 1.261 1_565 S
C121 O116 1.259 . S
C121 O118 1.235 . S
O122 Co112 2.021 1_565 S
O122 C119 1.238 . S
O123 Co117 2.052 1_565 S
O123 C119 1.241 . S
O124 Co112 2.137 . S
O124 C115 1.247 . S
O125 Co112 2.244 . S
O125 C115 1.272 . S
O125 Co117 2.135 . S
Co126 O127 2.216 1_565 S
Co126 O128 2.091 . S
Co126 O130 2.004 . S
Co126 O136 2.021 . S
Co126 O138 2.137 1_565 S
Co126 O139 2.244 . S
O127 Co126 2.216 1_545 S
O127 C134 1.241 1_545 S
O128 Co126 2.091 . S
O128 C134 1.276 . S
C129 O138 1.247 . S
C129 O139 1.272 1_545 S
O130 Co126 2.004 . S
O130 C135 1.259 . S
Co131 O132 2.061 . S
Co131 O137 2.052 . S
Co131 O139 2.135 . S
O132 Co131 2.061 . S
O132 C135 1.235 . S
C133 O136 1.238 . S
C133 O137 1.241 . S
C134 O127 1.241 1_565 S
C134 O128 1.276 . S
C135 O130 1.259 . S
C135 O132 1.235 . S
O136 Co126 2.021 . S
O136 C133 1.238 . S
O137 Co131 2.052 . S
O137 C133 1.241 . S
O138 Co126 2.137 1_545 S
O138 C129 1.247 . S
O139 Co126 2.244 . S
O139 C129 1.272 1_565 S
O139 Co131 2.135 . S
Co140 O141 2.216 . S
Co140 O142 2.091 . S
Co140 O144 2.004 . S
Co140 O150 2.021 . S
Co140 O152 2.137 . S
Co140 O153 2.244 . S
O141 Co140 2.216 . S
O141 C148 1.247 . S
O142 Co140 2.091 . S
O142 C148 1.261 . S
C143 O152 1.247 . S
C143 O153 1.272 . S
O144 Co140 2.004 . S
O144 C149 1.259 . S
Co145 O146 2.061 . S
Co145 O151 2.052 . S
Co145 O153 2.135 . S
O146 Co145 2.061 . S
O146 C149 1.235 . S
C147 O150 1.238 . S
C147 O151 1.241 . S
C148 O141 1.247 . S
C148 O142 1.261 . S
C149 O144 1.259 . S
C149 O146 1.235 . S
O150 Co140 2.021 . S
O150 C147 1.238 . S
O151 Co145 2.052 . S
O151 C147 1.241 . S
O152 Co140 2.137 . S
O152 C143 1.247 . S
O153 Co140 2.244 . S
O153 C143 1.272 . S
O153 Co145 2.135 . S
Co154 O155 2.216 . S
Co154 O156 2.091 . S
Co154 O158 2.004 . S
Co154 O164 2.021 . S
Co154 O166 2.137 . S
Co154 O167 2.244 . S
O155 Co154 2.216 . S
O155 C162 1.247 . S
O156 Co154 2.091 . S
O156 C162 1.261 . S
C157 O166 1.247 . S
C157 O167 1.272 . S
O158 Co154 2.004 . S
O158 C163 1.259 . S
Co159 O160 2.061 . S
Co159 O165 2.052 . S
Co159 O167 2.135 . S
O160 Co159 2.061 . S
O160 C163 1.235 . S
C161 O164 1.238 . S
C161 O165 1.241 . S
C162 O155 1.247 . S
C162 O156 1.261 . S
C163 O158 1.259 . S
C163 O160 1.235 . S
O164 Co154 2.021 . S
O164 C161 1.238 . S
O165 Co159 2.052 . S
O165 C161 1.241 . S
O166 Co154 2.137 . S
O166 C157 1.247 . S
O167 Co154 2.244 . S
O167 C157 1.272 . S
O167 Co159 2.135 . S
Co168 O169 2.216 . S
Co168 O170 2.091 . S
Co168 O172 2.004 . S
Co168 O178 2.021 . S
Co168 O180 2.137 . S
Co168 O181 2.244 . S
O169 Co168 2.216 . S
O169 C176 1.247 . S
O170 Co168 2.091 . S
O170 C176 1.261 . S
C171 O180 1.247 . S
C171 O181 1.272 . S
O172 Co168 2.004 . S
O172 C177 1.259 . S
Co173 O174 2.061 . S
Co173 O179 2.052 . S
Co173 O181 2.135 . S
O174 Co173 2.061 . S
O174 C177 1.235 . S
C175 O178 1.238 . S
C175 O179 1.241 . S
C176 O169 1.247 . S
C176 O170 1.261 . S
C177 O172 1.259 . S
C177 O174 1.235 . S
O178 Co168 2.021 . S
O178 C175 1.238 . S
O179 Co173 2.052 . S
O179 C175 1.241 . S
O180 Co168 2.137 . S
O180 C171 1.247 . S
O181 Co168 2.244 . S
O181 C171 1.272 . S
O181 Co173 2.135 . S
Co182 O183 2.216 1_565 S
Co182 O184 2.091 . S
Co182 O186 2.004 . S
Co182 O192 2.021 . S
Co182 O194 2.137 1_565 S
Co182 O195 2.244 . S
O183 Co182 2.216 1_545 S
O183 C190 1.247 1_545 S
O184 Co182 2.091 . S
O184 C190 1.261 . S
C185 O194 1.247 . S
C185 O195 1.272 1_545 S
O186 Co182 2.004 . S
O186 C191 1.259 . S
Co187 O188 2.061 . S
Co187 O193 2.052 . S
Co187 O195 2.135 . S
O188 Co187 2.061 . S
O188 C191 1.235 . S
C189 O192 1.238 . S
C189 O193 1.241 . S
C190 O183 1.247 1_565 S
C190 O184 1.261 . S
C191 O186 1.259 . S
C191 O188 1.235 . S
O192 Co182 2.021 . S
O192 C189 1.238 . S
O193 Co187 2.052 . S
O193 C189 1.241 . S
O194 Co182 2.137 1_545 S
O194 C185 1.247 . S
O195 Co182 2.244 . S
O195 C185 1.272 1_565 S
O195 Co187 2.135 . S
Co196 O197 2.216 1_545 S
Co196 O198 2.088 1_545 S
Co196 O200 2.004 . S
Co196 O206 2.021 1_545 S
Co196 O208 2.137 . S
Co196 O209 2.244 . S
O197 Co196 2.216 1_565 S
O197 C204 1.247 . S
O198 Co196 2.088 1_565 S
O198 C204 1.283 . S
C199 O208 1.247 . S
C199 O209 1.272 . S
O200 Co196 2.004 . S
O200 C205 1.259 . S
Co201 O202 2.061 . S
Co201 O207 2.052 1_545 S
Co201 O209 2.135 . S
O202 Co201 2.061 . S
O202 C205 1.235 . S
C203 O206 1.238 . S
C203 O207 1.241 . S
C204 O197 1.247 . S
C204 O198 1.283 . S
C205 O200 1.259 . S
C205 O202 1.235 . S
O206 Co196 2.021 1_565 S
O206 C203 1.238 . S
O207 Co201 2.052 1_565 S
O207 C203 1.241 . S
O208 Co196 2.137 . S
O208 C199 1.247 . S
O209 Co196 2.244 . S
O209 C199 1.272 . S
O209 Co201 2.135 . S
Co210 O211 2.216 . S
Co210 O212 2.091 . S
Co210 O214 2.004 1_556 S
Co210 O220 2.021 . S
Co210 O222 2.137 1_556 S
Co210 O223 2.244 1_556 S
O211 Co210 2.216 . S
O211 C218 1.247 . S
O212 Co210 2.091 . S
O212 C218 1.261 . S
C213 O222 1.247 . S
C213 O223 1.272 . S
O214 Co210 2.004 1_554 S
O214 C219 1.259 . S
Co215 O216 2.061 . S
Co215 O221 2.052 . S
Co215 O223 2.135 . S
O216 Co215 2.061 . S
O216 C219 1.235 . S
C217 O220 1.238 . S
C217 O221 1.241 1_556 S
C218 O211 1.247 . S
C218 O212 1.261 . S
C219 O214 1.259 . S
C219 O216 1.235 . S
O220 Co210 2.021 . S
O220 C217 1.238 . S
O221 Co215 2.052 . S
O221 C217 1.241 1_554 S
O222 Co210 2.137 1_554 S
O222 C213 1.247 . S
O223 Co210 2.244 1_554 S
O223 C213 1.272 . S
O223 Co215 2.135 . S
Co224 O225 2.216 1_554 S
Co224 O226 2.091 . S
Co224 O228 2.004 . S
Co224 O234 2.021 1_554 S
Co224 O236 2.137 . S
Co224 O237 2.244 . S
O225 Co224 2.216 1_556 S
O225 C232 1.247 . S
O226 Co224 2.091 . S
O226 C232 1.261 1_554 S
C227 O236 1.247 . S
C227 O237 1.272 . S
O228 Co224 2.004 . S
O228 C233 1.259 . S
Co229 O230 2.061 . S
Co229 O235 2.052 1_554 S
Co229 O237 2.135 . S
O230 Co229 2.061 . S
O230 C233 1.235 . S
C231 O234 1.238 . S
C231 O235 1.241 . S
C232 O225 1.247 . S
C232 O226 1.261 1_556 S
C233 O228 1.259 . S
C233 O230 1.235 . S
O234 Co224 2.021 1_556 S
O234 C231 1.238 . S
O235 Co229 2.052 1_556 S
O235 C231 1.241 . S
O236 Co224 2.137 . S
O236 C227 1.247 . S
O237 Co224 2.244 . S
O237 C227 1.272 . S
O237 Co229 2.135 . S
Co238 O239 2.216 . S
Co238 O240 2.091 . S
Co238 O242 2.004 . S
Co238 O248 2.021 . S
Co238 O250 2.137 . S
Co238 O251 2.244 . S
O239 Co238 2.216 . S
O239 C246 1.247 . S
O240 Co238 2.091 . S
O240 C246 1.261 . S
C241 O250 1.247 . S
C241 O251 1.272 . S
O242 Co238 2.004 . S
O242 C247 1.259 . S
Co243 O244 2.061 . S
Co243 O249 2.052 . S
Co243 O251 2.135 . S
O244 Co243 2.061 . S
O244 C247 1.235 . S
C245 O248 1.238 . S
C245 O249 1.241 . S
C246 O239 1.247 . S
C246 O240 1.261 . S
C247 O242 1.259 . S
C247 O244 1.235 . S
O248 Co238 2.021 . S
O248 C245 1.238 . S
O249 Co243 2.052 . S
O249 C245 1.241 . S
O250 Co238 2.137 . S
O250 C241 1.247 . S
O251 Co238 2.244 . S
O251 C241 1.272 . S
O251 Co243 2.135 . S
Co252 O253 2.216 1_655 S
Co252 O254 2.091 . S
Co252 O256 2.004 . S
Co252 O262 2.021 . S
Co252 O264 2.137 1_655 S
Co252 O265 2.244 . S
O253 Co252 2.216 1_455 S
O253 C260 1.241 1_455 S
O254 Co252 2.091 . S
O254 C260 1.275 . S
C255 O264 1.247 . S
C255 O265 1.272 1_455 S
O256 Co252 2.004 . S
O256 C261 1.259 . S
Co257 O258 2.061 . S
Co257 O263 2.052 . S
Co257 O265 2.135 . S
O258 Co257 2.061 . S
O258 C261 1.235 . S
C259 O262 1.238 . S
C259 O263 1.241 . S
C260 O253 1.241 1_655 S
C260 O254 1.275 . S
C261 O256 1.259 . S
C261 O258 1.235 . S
O262 Co252 2.021 . S
O262 C259 1.238 . S
O263 Co257 2.052 . S
O263 C259 1.241 . S
O264 Co252 2.137 1_455 S
O264 C255 1.247 . S
O265 Co252 2.244 . S
O265 C255 1.272 1_655 S
O265 Co257 2.135 . S
Co266 O267 2.216 . S
Co266 O268 2.091 . S
Co266 O270 2.004 . S
Co266 O276 2.021 . S
Co266 O278 2.137 . S
Co266 O279 2.244 . S
O267 Co266 2.216 . S
O267 C274 1.247 . S
O268 Co266 2.091 . S
O268 C274 1.261 . S
C269 O278 1.247 . S
C269 O279 1.272 . S
O270 Co266 2.004 . S
O270 C275 1.259 . S
Co271 O272 2.061 . S
Co271 O277 2.052 . S
Co271 O279 2.135 . S
O272 Co271 2.061 . S
O272 C275 1.235 . S
C273 O276 1.238 . S
C273 O277 1.241 . S
C274 O267 1.247 . S
C274 O268 1.261 . S
C275 O270 1.259 . S
C275 O272 1.235 . S
O276 Co266 2.021 . S
O276 C273 1.238 . S
O277 Co271 2.052 . S
O277 C273 1.241 . S
O278 Co266 2.137 . S
O278 C269 1.247 . S
O279 Co266 2.244 . S
O279 C269 1.272 . S
O279 Co271 2.135 . S
Co280 O281 2.216 . S
Co280 O282 2.091 . S
Co280 O284 2.004 1_565 S
Co280 O290 2.021 . S
Co280 O292 2.137 1_565 S
Co280 O293 2.244 1_565 S
O281 Co280 2.216 . S
O281 C288 1.247 . S
O282 Co280 2.091 . S
O282 C288 1.261 . S
C283 O292 1.247 . S
C283 O293 1.272 . S
O284 Co280 2.004 1_545 S
O284 C289 1.259 . S
Co285 O286 2.061 . S
Co285 O291 2.052 . S
Co285 O293 2.135 . S
O286 Co285 2.061 . S
O286 C289 1.235 . S
C287 O290 1.238 . S
C287 O291 1.241 1_565 S
C288 O281 1.247 . S
C288 O282 1.261 . S
C289 O284 1.259 . S
C289 O286 1.235 . S
O290 Co280 2.021 . S
O290 C287 1.238 . S
O291 Co285 2.052 . S
O291 C287 1.241 1_545 S
O292 Co280 2.137 1_545 S
O292 C283 1.247 . S
O293 Co280 2.244 1_545 S
O293 C283 1.272 . S
O293 Co285 2.135 . S
Co294 O295 2.216 . S
Co294 O296 2.091 . S
Co294 O298 2.004 . S
Co294 O304 2.021 . S
Co294 O306 2.137 . S
Co294 O307 2.244 . S
O295 Co294 2.216 . S
O295 C302 1.247 . S
O296 Co294 2.091 . S
O296 C302 1.261 . S
C297 O306 1.247 . S
C297 O307 1.272 . S
O298 Co294 2.004 . S
O298 C303 1.259 . S
Co299 O300 2.061 . S
Co299 O305 2.052 . S
Co299 O307 2.135 . S
O300 Co299 2.061 . S
O300 C303 1.235 . S
C301 O304 1.238 . S
C301 O305 1.241 . S
C302 O295 1.247 . S
C302 O296 1.261 . S
C303 O298 1.259 . S
C303 O300 1.235 . S
O304 Co294 2.021 . S
O304 C301 1.238 . S
O305 Co299 2.052 . S
O305 C301 1.241 . S
O306 Co294 2.137 . S
O306 C297 1.247 . S
O307 Co294 2.244 . S
O307 C297 1.272 . S
O307 Co299 2.135 . S
Co308 O309 2.216 1_655 S
Co308 O310 2.091 . S
Co308 O312 2.004 . S
Co308 O318 2.021 . S
Co308 O320 2.137 1_655 S
Co308 O321 2.244 . S
O309 Co308 2.216 1_455 S
O309 C316 1.247 1_455 S
O310 Co308 2.091 . S
O310 C316 1.261 . S
C311 O320 1.247 . S
C311 O321 1.272 1_455 S
O312 Co308 2.004 . S
O312 C317 1.259 . S
Co313 O314 2.061 . S
Co313 O319 2.052 . S
Co313 O321 2.135 . S
O314 Co313 2.061 . S
O314 C317 1.235 . S
C315 O318 1.238 . S
C315 O319 1.241 . S
C316 O309 1.247 1_655 S
C316 O310 1.261 . S
C317 O312 1.259 . S
C317 O314 1.235 . S
O318 Co308 2.021 . S
O318 C315 1.238 . S
O319 Co313 2.052 . S
O319 C315 1.241 . S
O320 Co308 2.137 1_455 S
O320 C311 1.247 . S
O321 Co308 2.244 . S
O321 C311 1.272 1_655 S
O321 Co313 2.135 . S
Co322 O323 2.216 . S
Co322 O324 2.091 . S
Co322 O326 2.004 . S
Co322 O332 2.021 . S
Co322 O334 2.137 . S
Co322 O335 2.244 . S
O323 Co322 2.216 . S
O323 C330 1.247 . S
O324 Co322 2.091 . S
O324 C330 1.261 . S
C325 O334 1.247 . S
C325 O335 1.272 . S
O326 Co322 2.004 . S
O326 C331 1.259 . S
Co327 O328 2.061 . S
Co327 O333 2.052 . S
Co327 O335 2.135 . S
O328 Co327 2.061 . S
O328 C331 1.235 . S
C329 O332 1.238 . S
C329 O333 1.241 . S
C330 O323 1.247 . S
C330 O324 1.261 . S
C331 O326 1.259 . S
C331 O328 1.235 . S
O332 Co322 2.021 . S
O332 C329 1.238 . S
O333 Co327 2.052 . S
O333 C329 1.241 . S
O334 Co322 2.137 . S
O334 C325 1.247 . S
O335 Co322 2.244 . S
O335 C325 1.272 . S
O335 Co327 2.135 . S
Co336 O337 2.216 . S
Co336 O338 2.091 . S
Co336 O340 2.004 . S
Co336 O346 2.021 . S
Co336 O348 2.137 . S
Co336 O349 2.244 . S
O337 Co336 2.216 . S
O337 C344 1.247 . S
O338 Co336 2.091 . S
O338 C344 1.261 . S
C339 O348 1.247 . S
C339 O349 1.272 . S
O340 Co336 2.004 . S
O340 C345 1.259 . S
Co341 O342 2.061 . S
Co341 O347 2.052 . S
Co341 O349 2.135 . S
O342 Co341 2.061 . S
O342 C345 1.235 . S
C343 O346 1.238 . S
C343 O347 1.241 . S
C344 O337 1.247 . S
C344 O338 1.261 . S
C345 O340 1.259 . S
C345 O342 1.235 . S
O346 Co336 2.021 . S
O346 C343 1.238 . S
O347 Co341 2.052 . S
O347 C343 1.241 . S
O348 Co336 2.137 . S
O348 C339 1.247 . S
O349 Co336 2.244 . S
O349 C339 1.272 . S
O349 Co341 2.135 . S
Co350 O351 2.216 1_556 S
Co350 O352 2.091 . S
Co350 O354 2.004 . S
Co350 O360 2.021 . S
Co350 O362 2.137 1_556 S
Co350 O363 2.244 . S
O351 Co350 2.216 1_554 S
O351 C358 1.247 1_554 S
O352 Co350 2.091 . S
O352 C358 1.261 . S
C353 O362 1.247 . S
C353 O363 1.272 1_554 S
O354 Co350 2.004 . S
O354 C359 1.259 . S
Co355 O356 2.061 . S
Co355 O361 2.052 . S
Co355 O363 2.135 . S
O356 Co355 2.061 . S
O356 C359 1.235 . S
C357 O360 1.238 . S
C357 O361 1.241 . S
C358 O351 1.247 1_556 S
C358 O352 1.261 . S
C359 O354 1.259 . S
C359 O356 1.235 . S
O360 Co350 2.021 . S
O360 C357 1.238 . S
O361 Co355 2.052 . S
O361 C357 1.241 . S
O362 Co350 2.137 1_554 S
O362 C353 1.247 . S
O363 Co350 2.244 . S
O363 C353 1.272 1_556 S
O363 Co355 2.135 . S
Co364 O365 2.216 . S
Co364 O366 2.091 . S
Co364 O368 2.004 . S
Co364 O374 2.021 . S
Co364 O376 2.137 . S
Co364 O377 2.244 . S
O365 Co364 2.216 . S
O365 C372 1.247 . S
O366 Co364 2.091 . S
O366 C372 1.261 . S
C367 O376 1.247 . S
C367 O377 1.272 . S
O368 Co364 2.004 . S
O368 C373 1.259 . S
Co369 O370 2.061 . S
Co369 O375 2.052 . S
Co369 O377 2.135 . S
O370 Co369 2.061 . S
O370 C373 1.235 . S
C371 O374 1.238 . S
C371 O375 1.241 . S
C372 O365 1.247 . S
C372 O366 1.261 . S
C373 O368 1.259 . S
C373 O370 1.235 . S
O374 Co364 2.021 . S
O374 C371 1.238 . S
O375 Co369 2.052 . S
O375 C371 1.241 . S
O376 Co364 2.137 . S
O376 C367 1.247 . S
O377 Co364 2.244 . S
O377 C367 1.272 . S
O377 Co369 2.135 . S
Co378 O379 2.216 . S
Co378 O380 2.091 . S
Co378 O382 2.004 . S
Co378 O388 2.021 . S
Co378 O390 2.137 . S
Co378 O391 2.244 . S
O379 Co378 2.216 . S
O379 C386 1.247 . S
O380 Co378 2.091 . S
O380 C386 1.261 . S
C381 O390 1.247 . S
C381 O391 1.272 . S
O382 Co378 2.004 . S
O382 C387 1.259 . S
Co383 O384 2.061 . S
Co383 O389 2.052 . S
Co383 O391 2.135 . S
O384 Co383 2.061 . S
O384 C387 1.235 . S
C385 O388 1.238 . S
C385 O389 1.241 . S
C386 O379 1.247 . S
C386 O380 1.261 . S
C387 O382 1.259 . S
C387 O384 1.235 . S
O388 Co378 2.021 . S
O388 C385 1.238 . S
O389 Co383 2.052 . S
O389 C385 1.241 . S
O390 Co378 2.137 . S
O390 C381 1.247 . S
O391 Co378 2.244 . S
O391 C381 1.272 . S
O391 Co383 2.135 . S
Co392 O393 2.216 . S
Co392 O394 2.091 . S
Co392 O396 2.004 . S
Co392 O402 2.021 . S
Co392 O404 2.137 . S
Co392 O405 2.244 . S
O393 Co392 2.216 . S
O393 C400 1.247 . S
O394 Co392 2.091 . S
O394 C400 1.261 . S
C395 O404 1.247 . S
C395 O405 1.272 . S
O396 Co392 2.004 . S
O396 C401 1.259 . S
Co397 O398 2.061 . S
Co397 O403 2.052 . S
Co397 O405 2.135 . S
O398 Co397 2.061 . S
O398 C401 1.235 . S
C399 O402 1.238 . S
C399 O403 1.241 . S
C400 O393 1.247 . S
C400 O394 1.261 . S
C401 O396 1.259 . S
C401 O398 1.235 . S
O402 Co392 2.021 . S
O402 C399 1.238 . S
O403 Co397 2.052 . S
O403 C399 1.241 . S
O404 Co392 2.137 . S
O404 C395 1.247 . S
O405 Co392 2.244 . S
O405 C395 1.272 . S
O405 Co397 2.135 . S
Co406 O407 2.216 . S
Co406 O408 2.091 . S
Co406 O410 2.004 . S
Co406 O416 2.021 . S
Co406 O418 2.137 . S
Co406 O419 2.244 . S
O407 Co406 2.216 . S
O407 C414 1.247 . S
O408 Co406 2.091 . S
O408 C414 1.261 . S
C409 O418 1.247 . S
C409 O419 1.272 . S
O410 Co406 2.004 . S
O410 C415 1.259 . S
Co411 O412 2.061 . S
Co411 O417 2.052 . S
Co411 O419 2.135 . S
O412 Co411 2.061 . S
O412 C415 1.235 . S
C413 O416 1.238 . S
C413 O417 1.241 . S
C414 O407 1.247 . S
C414 O408 1.261 . S
C415 O410 1.259 . S
C415 O412 1.235 . S
O416 Co406 2.021 . S
O416 C413 1.238 . S
O417 Co411 2.052 . S
O417 C413 1.241 . S
O418 Co406 2.137 . S
O418 C409 1.247 . S
O419 Co406 2.244 . S
O419 C409 1.272 . S
O419 Co411 2.135 . S
Co420 O421 2.216 . S
Co420 O422 2.091 . S
Co420 O424 2.004 . S
Co420 O430 2.021 . S
Co420 O432 2.137 . S
Co420 O433 2.244 . S
O421 Co420 2.216 . S
O421 C428 1.247 . S
O422 Co420 2.091 . S
O422 C428 1.261 . S
C423 O432 1.247 . S
C423 O433 1.272 . S
O424 Co420 2.004 . S
O424 C429 1.259 . S
Co425 O426 2.061 . S
Co425 O431 2.052 . S
Co425 O433 2.135 . S
O426 Co425 2.061 . S
O426 C429 1.235 . S
C427 O430 1.238 . S
C427 O431 1.241 . S
C428 O421 1.247 . S
C428 O422 1.261 . S
C429 O424 1.259 . S
C429 O426 1.235 . S
O430 Co420 2.021 . S
O430 C427 1.238 . S
O431 Co425 2.052 . S
O431 C427 1.241 . S
O432 Co420 2.137 . S
O432 C423 1.247 . S
O433 Co420 2.244 . S
O433 C423 1.272 . S
O433 Co425 2.135 . S
Co434 O435 2.216 . S
Co434 O436 2.091 . S
Co434 O438 2.004 . S
Co434 O444 2.021 . S
Co434 O446 2.137 . S
Co434 O447 2.244 . S
O435 Co434 2.216 . S
O435 C442 1.247 . S
O436 Co434 2.091 . S
O436 C442 1.261 . S
C437 O446 1.247 . S
C437 O447 1.272 . S
O438 Co434 2.004 . S
O438 C443 1.259 . S
Co439 O440 2.061 . S
Co439 O445 2.052 . S
Co439 O447 2.135 . S
O440 Co439 2.061 . S
O440 C443 1.235 . S
C441 O444 1.238 . S
C441 O445 1.241 . S
C442 O435 1.247 . S
C442 O436 1.261 . S
C443 O438 1.259 . S
C443 O440 1.235 . S
O444 Co434 2.021 . S
O444 C441 1.238 . S
O445 Co439 2.052 . S
O445 C441 1.241 . S
O446 Co434 2.137 . S
O446 C437 1.247 . S
O447 Co434 2.244 . S
O447 C437 1.272 . S
O447 Co439 2.135 . S
Co448 O449 2.216 . S
Co448 O450 2.091 . S
Co448 O452 2.004 . S
Co448 O458 2.021 . S
Co448 O460 2.137 . S
Co448 O461 2.244 . S
O449 Co448 2.216 . S
O449 C456 1.247 . S
O450 Co448 2.091 . S
O450 C456 1.261 . S
C451 O460 1.247 . S
C451 O461 1.272 . S
O452 Co448 2.004 . S
O452 C457 1.259 . S
Co453 O454 2.061 . S
Co453 O459 2.052 . S
Co453 O461 2.135 . S
O454 Co453 2.061 . S
O454 C457 1.235 . S
C455 O458 1.238 . S
C455 O459 1.241 . S
C456 O449 1.247 . S
C456 O450 1.261 . S
C457 O452 1.259 . S
C457 O454 1.235 . S
O458 Co448 2.021 . S
O458 C455 1.238 . S
O459 Co453 2.052 . S
O459 C455 1.241 . S
O460 Co448 2.137 . S
O460 C451 1.247 . S
O461 Co448 2.244 . S
O461 C451 1.272 . S
O461 Co453 2.135 . S
Co462 O463 2.216 . S
Co462 O464 2.091 . S
Co462 O466 2.004 . S
Co462 O472 2.021 . S
Co462 O474 2.137 . S
Co462 O475 2.244 . S
O463 Co462 2.216 . S
O463 C470 1.247 . S
O464 Co462 2.091 . S
O464 C470 1.261 . S
C465 O474 1.247 . S
C465 O475 1.272 . S
O466 Co462 2.004 . S
O466 C471 1.259 . S
Co467 O468 2.061 . S
Co467 O473 2.052 . S
Co467 O475 2.135 . S
O468 Co467 2.061 . S
O468 C471 1.235 . S
C469 O472 1.238 . S
C469 O473 1.241 . S
C470 O463 1.247 . S
C470 O464 1.261 . S
C471 O466 1.259 . S
C471 O468 1.235 . S
O472 Co462 2.021 . S
O472 C469 1.238 . S
O473 Co467 2.052 . S
O473 C469 1.241 . S
O474 Co462 2.137 . S
O474 C465 1.247 . S
O475 Co462 2.244 . S
O475 C465 1.272 . S
O475 Co467 2.135 . S
Co476 O477 2.216 . S
Co476 O478 2.091 . S
Co476 O480 2.004 . S
Co476 O486 2.021 . S
Co476 O488 2.137 . S
Co476 O489 2.244 . S
O477 Co476 2.216 . S
O477 C484 1.247 . S
O478 Co476 2.091 . S
O478 C484 1.261 . S
C479 O488 1.247 . S
C479 O489 1.272 . S
O480 Co476 2.004 . S
O480 C485 1.259 . S
Co481 O482 2.061 . S
Co481 O487 2.052 . S
Co481 O489 2.135 . S
O482 Co481 2.061 . S
O482 C485 1.235 . S
C483 O486 1.238 . S
C483 O487 1.241 . S
C484 O477 1.247 . S
C484 O478 1.261 . S
C485 O480 1.259 . S
C485 O482 1.235 . S
O486 Co476 2.021 . S
O486 C483 1.238 . S
O487 Co481 2.052 . S
O487 C483 1.241 . S
O488 Co476 2.137 . S
O488 C479 1.247 . S
O489 Co476 2.244 . S
O489 C479 1.272 . S
O489 Co481 2.135 . S
Co490 O491 2.216 . S
Co490 O492 2.091 . S
Co490 O494 2.004 . S
Co490 O500 2.021 . S
Co490 O502 2.137 . S
Co490 O503 2.244 . S
O491 Co490 2.216 . S
O491 C498 1.247 . S
O492 Co490 2.091 . S
O492 C498 1.261 . S
C493 O502 1.247 . S
C493 O503 1.272 . S
O494 Co490 2.004 . S
O494 C499 1.259 . S
Co495 O496 2.061 . S
Co495 O501 2.052 . S
Co495 O503 2.135 . S
O496 Co495 2.061 . S
O496 C499 1.235 . S
C497 O500 1.238 . S
C497 O501 1.241 . S
C498 O491 1.247 . S
C498 O492 1.261 . S
C499 O494 1.259 . S
C499 O496 1.235 . S
O500 Co490 2.021 . S
O500 C497 1.238 . S
O501 Co495 2.052 . S
O501 C497 1.241 . S
O502 Co490 2.137 . S
O502 C493 1.247 . S
O503 Co490 2.244 . S
O503 C493 1.272 . S
O503 Co495 2.135 . S
Co504 O505 2.216 . S
Co504 O506 2.091 . S
Co504 O508 2.004 . S
Co504 O514 2.021 . S
Co504 O516 2.137 . S
Co504 O517 2.244 . S
O505 Co504 2.216 . S
O505 C512 1.247 . S
O506 Co504 2.091 . S
O506 C512 1.261 . S
C507 O516 1.247 . S
C507 O517 1.272 . S
O508 Co504 2.004 . S
O508 C513 1.259 . S
Co509 O510 2.061 . S
Co509 O515 2.052 . S
Co509 O517 2.135 . S
O510 Co509 2.061 . S
O510 C513 1.235 . S
C511 O514 1.238 . S
C511 O515 1.241 . S
C512 O505 1.247 . S
C512 O506 1.261 . S
C513 O508 1.259 . S
C513 O510 1.235 . S
O514 Co504 2.021 . S
O514 C511 1.238 . S
O515 Co509 2.052 . S
O515 C511 1.241 . S
O516 Co504 2.137 . S
O516 C507 1.247 . S
O517 Co504 2.244 . S
O517 C507 1.272 . S
O517 Co509 2.135 . S
Co518 O519 2.216 . S
Co518 O520 2.091 . S
Co518 O522 2.004 . S
Co518 O528 2.021 . S
Co518 O530 2.137 . S
Co518 O531 2.244 1_556 S
O519 Co518 2.216 . S
O519 C526 1.247 . S
O520 Co518 2.091 . S
O520 C526 1.261 . S
C521 O530 1.247 1_554 S
C521 O531 1.272 . S
O522 Co518 2.004 . S
O522 C527 1.259 1_556 S
Co523 O524 2.061 . S
Co523 O529 2.052 . S
Co523 O531 2.135 . S
O524 Co523 2.061 . S
O524 C527 1.235 . S
C525 O528 1.238 . S
C525 O529 1.241 1_556 S
C526 O519 1.247 . S
C526 O520 1.261 . S
C527 O522 1.259 1_554 S
C527 O524 1.235 . S
O528 Co518 2.021 . S
O528 C525 1.238 . S
O529 Co523 2.052 . S
O529 C525 1.241 1_554 S
O530 Co518 2.137 . S
O530 C521 1.247 1_556 S
O531 Co518 2.244 1_554 S
O531 C521 1.272 . S
O531 Co523 2.135 . S
Co532 O533 2.216 . S
Co532 O534 2.091 . S
Co532 O536 2.004 . S
Co532 O542 2.021 . S
Co532 O544 2.137 . S
Co532 O545 2.244 . S
O533 Co532 2.216 . S
O533 C540 1.247 . S
O534 Co532 2.091 . S
O534 C540 1.261 . S
C535 O544 1.247 . S
C535 O545 1.272 . S
O536 Co532 2.004 . S
O536 C541 1.259 . S
Co537 O538 2.061 . S
Co537 O543 2.052 . S
Co537 O545 2.135 . S
O538 Co537 2.061 . S
O538 C541 1.235 . S
C539 O542 1.238 . S
C539 O543 1.241 . S
C540 O533 1.247 . S
C540 O534 1.261 . S
C541 O536 1.259 . S
C541 O538 1.235 . S
O542 Co532 2.021 . S
O542 C539 1.238 . S
O543 Co537 2.052 . S
O543 C539 1.241 . S
O544 Co532 2.137 . S
O544 C535 1.247 . S
O545 Co532 2.244 . S
O545 C535 1.272 . S
O545 Co537 2.135 . S
Co546 O547 2.216 . S
Co546 O548 2.091 . S
Co546 O550 2.004 . S
Co546 O556 2.021 . S
Co546 O558 2.137 . S
Co546 O559 2.244 . S
O547 Co546 2.216 . S
O547 C554 1.247 . S
O548 Co546 2.091 . S
O548 C554 1.261 . S
C549 O558 1.247 . S
C549 O559 1.272 . S
O550 Co546 2.004 . S
O550 C555 1.259 . S
Co551 O552 2.061 . S
Co551 O557 2.052 . S
Co551 O559 2.135 . S
O552 Co551 2.061 . S
O552 C555 1.235 . S
C553 O556 1.238 . S
C553 O557 1.241 . S
C554 O547 1.247 . S
C554 O548 1.261 . S
C555 O550 1.259 . S
C555 O552 1.235 . S
O556 Co546 2.021 . S
O556 C553 1.238 . S
O557 Co551 2.052 . S
O557 C553 1.241 . S
O558 Co546 2.137 . S
O558 C549 1.247 . S
O559 Co546 2.244 . S
O559 C549 1.272 . S
O559 Co551 2.135 . S
Co560 O561 2.216 . S
Co560 O562 2.091 . S
Co560 O564 2.004 . S
Co560 O570 2.021 . S
Co560 O572 2.137 . S
Co560 O573 2.244 . S
O561 Co560 2.216 . S
O561 C568 1.247 . S
O562 Co560 2.091 . S
O562 C568 1.261 . S
C563 O572 1.247 . S
C563 O573 1.272 . S
O564 Co560 2.004 . S
O564 C569 1.259 . S
Co565 O566 2.061 . S
Co565 O571 2.052 . S
Co565 O573 2.135 . S
O566 Co565 2.061 . S
O566 C569 1.235 . S
C567 O570 1.238 . S
C567 O571 1.241 . S
C568 O561 1.247 . S
C568 O562 1.261 . S
C569 O564 1.259 . S
C569 O566 1.235 . S
O570 Co560 2.021 . S
O570 C567 1.238 . S
O571 Co565 2.052 . S
O571 C567 1.241 . S
O572 Co560 2.137 . S
O572 C563 1.247 . S
O573 Co560 2.244 . S
O573 C563 1.272 . S
O573 Co565 2.135 . S
Co574 O575 2.216 . S
Co574 O576 2.091 . S
Co574 O578 2.004 . S
Co574 O584 2.021 . S
Co574 O586 2.137 . S
Co574 O587 2.244 . S
O575 Co574 2.216 . S
O575 C582 1.247 . S
O576 Co574 2.091 . S
O576 C582 1.261 . S
C577 O586 1.247 . S
C577 O587 1.272 . S
O578 Co574 2.004 . S
O578 C583 1.259 . S
Co579 O580 2.061 . S
Co579 O585 2.052 . S
Co579 O587 2.135 . S
O580 Co579 2.061 . S
O580 C583 1.235 . S
C581 O584 1.238 . S
C581 O585 1.241 . S
C582 O575 1.247 . S
C582 O576 1.261 . S
C583 O578 1.259 . S
C583 O580 1.235 . S
O584 Co574 2.021 . S
O584 C581 1.238 . S
O585 Co579 2.052 . S
O585 C581 1.241 . S
O586 Co574 2.137 . S
O586 C577 1.247 . S
O587 Co574 2.244 . S
O587 C577 1.272 . S
O587 Co579 2.135 . S
Co588 O589 2.216 . S
Co588 O590 2.091 . S
Co588 O592 2.004 . S
Co588 O598 2.021 . S
Co588 O600 2.137 . S
Co588 O601 2.244 . S
O589 Co588 2.216 . S
O589 C596 1.247 . S
O590 Co588 2.091 . S
O590 C596 1.261 . S
C591 O600 1.247 . S
C591 O601 1.272 . S
O592 Co588 2.004 . S
O592 C597 1.259 . S
Co593 O594 2.061 . S
Co593 O599 2.052 . S
Co593 O601 2.135 . S
O594 Co593 2.061 . S
O594 C597 1.235 . S
C595 O598 1.238 . S
C595 O599 1.241 . S
C596 O589 1.247 . S
C596 O590 1.261 . S
C597 O592 1.259 . S
C597 O594 1.235 . S
O598 Co588 2.021 . S
O598 C595 1.238 . S
O599 Co593 2.052 . S
O599 C595 1.241 . S
O600 Co588 2.137 . S
O600 C591 1.247 . S
O601 Co588 2.244 . S
O601 C591 1.272 . S
O601 Co593 2.135 . S
Co602 O603 2.216 . S
Co602 O604 2.091 . S
Co602 O606 2.004 . S
Co602 O612 2.021 . S
Co602 O614 2.137 . S
Co602 O615 2.244 . S
O603 Co602 2.216 . S
O603 C610 1.247 . S
O604 Co602 2.091 . S
O604 C610 1.261 . S
C605 O614 1.247 . S
C605 O615 1.272 . S
O606 Co602 2.004 . S
O606 C611 1.259 . S
Co607 O608 2.061 . S
Co607 O613 2.052 . S
Co607 O615 2.135 . S
O608 Co607 2.061 . S
O608 C611 1.235 . S
C609 O612 1.238 . S
C609 O613 1.241 . S
C610 O603 1.247 . S
C610 O604 1.261 . S
C611 O606 1.259 . S
C611 O608 1.235 . S
O612 Co602 2.021 . S
O612 C609 1.238 . S
O613 Co607 2.052 . S
O613 C609 1.241 . S
O614 Co602 2.137 . S
O614 C605 1.247 . S
O615 Co602 2.244 . S
O615 C605 1.272 . S
O615 Co607 2.135 . S
Co616 O617 2.216 . S
Co616 O618 2.091 . S
Co616 O620 2.004 . S
Co616 O626 2.021 . S
Co616 O628 2.137 . S
Co616 O629 2.244 . S
O617 Co616 2.216 . S
O617 C624 1.247 . S
O618 Co616 2.091 . S
O618 C624 1.261 . S
C619 O628 1.247 . S
C619 O629 1.272 . S
O620 Co616 2.004 . S
O620 C625 1.259 . S
Co621 O622 2.061 . S
Co621 O627 2.052 . S
Co621 O629 2.135 . S
O622 Co621 2.061 . S
O622 C625 1.235 . S
C623 O626 1.238 . S
C623 O627 1.241 . S
C624 O617 1.247 . S
C624 O618 1.261 . S
C625 O620 1.259 . S
C625 O622 1.235 . S
O626 Co616 2.021 . S
O626 C623 1.238 . S
O627 Co621 2.052 . S
O627 C623 1.241 . S
O628 Co616 2.137 . S
O628 C619 1.247 . S
O629 Co616 2.244 . S
O629 C619 1.272 . S
O629 Co621 2.135 . S
Co630 O631 2.216 1_554 S
Co630 O632 2.088 1_554 S
Co630 O634 2.004 . S
Co630 O640 2.021 1_554 S
Co630 O642 2.137 . S
Co630 O643 2.244 . S
O631 Co630 2.216 1_556 S
O631 C638 1.247 . S
O632 Co630 2.088 1_556 S
O632 C638 1.283 . S
C633 O642 1.247 . S
C633 O643 1.272 . S
O634 Co630 2.004 . S
O634 C639 1.259 . S
Co635 O636 2.061 . S
Co635 O641 2.052 1_554 S
Co635 O643 2.135 . S
O636 Co635 2.061 . S
O636 C639 1.235 . S
C637 O640 1.238 . S
C637 O641 1.241 . S
C638 O631 1.247 . S
C638 O632 1.283 . S
C639 O634 1.259 . S
C639 O636 1.235 . S
O640 Co630 2.021 1_556 S
O640 C637 1.238 . S
O641 Co635 2.052 1_556 S
O641 C637 1.241 . S
O642 Co630 2.137 . S
O642 C633 1.247 . S
O643 Co630 2.244 . S
O643 C633 1.272 . S
O643 Co635 2.135 . S
Co644 O645 2.216 . S
Co644 O646 2.091 . S
Co644 O648 2.004 . S
Co644 O654 2.021 . S
Co644 O656 2.137 . S
Co644 O657 2.244 1_565 S
O645 Co644 2.216 . S
O645 C652 1.247 . S
O646 Co644 2.091 . S
O646 C652 1.261 . S
C647 O656 1.247 1_545 S
C647 O657 1.272 . S
O648 Co644 2.004 . S
O648 C653 1.259 1_565 S
Co649 O650 2.061 . S
Co649 O655 2.052 . S
Co649 O657 2.135 . S
O650 Co649 2.061 . S
O650 C653 1.235 . S
C651 O654 1.238 . S
C651 O655 1.241 1_565 S
C652 O645 1.247 . S
C652 O646 1.261 . S
C653 O648 1.259 1_545 S
C653 O650 1.235 . S
O654 Co644 2.021 . S
O654 C651 1.238 . S
O655 Co649 2.052 . S
O655 C651 1.241 1_545 S
O656 Co644 2.137 . S
O656 C647 1.247 1_565 S
O657 Co644 2.244 1_545 S
O657 C647 1.272 . S
O657 Co649 2.135 . S
Co658 O659 2.216 . S
Co658 O660 2.091 . S
Co658 O662 2.004 . S
Co658 O668 2.021 . S
Co658 O670 2.137 . S
Co658 O671 2.244 . S
O659 Co658 2.216 . S
O659 C666 1.247 . S
O660 Co658 2.091 . S
O660 C666 1.261 . S
C661 O670 1.247 . S
C661 O671 1.272 . S
O662 Co658 2.004 . S
O662 C667 1.259 . S
Co663 O664 2.061 . S
Co663 O669 2.052 . S
Co663 O671 2.135 . S
O664 Co663 2.061 . S
O664 C667 1.235 . S
C665 O668 1.238 . S
C665 O669 1.241 . S
C666 O659 1.247 . S
C666 O660 1.261 . S
C667 O662 1.259 . S
C667 O664 1.235 . S
O668 Co658 2.021 . S
O668 C665 1.238 . S
O669 Co663 2.052 . S
O669 C665 1.241 . S
O670 Co658 2.137 . S
O670 C661 1.247 . S
O671 Co658 2.244 . S
O671 C661 1.272 . S
O671 Co663 2.135 . S
C3 C367 1.484 . S
C381 C17 1.525 . S
C31 C339 3.641 . S
C353 C45 3.825 . S
C59 C423 1.441 . S
C73 C437 3.613 . S
C87 C395 3.876 . S
C101 C409 1.370 . S
C171 C115 1.484 . S
C129 C185 3.825 . S
C199 C143 1.442 . S
C157 C213 1.370 . S
C605 C227 1.484 . S
C633 C241 1.441 . S
C311 C255 3.825 . S
C563 C269 3.641 . S
C661 C283 1.369 . S
C577 C297 3.876 . S
C325 C619 3.613 . S
C451 C507 3.641 . S
C521 C465 1.525 . S
C479 C535 3.876 . S
C549 C493 3.613 . S
C591 C647 1.526 . S
C7 C105 1.464 . S
C63 C21 1.525 . S
C35 C77 4.286 . S
C49 C91 4.433 . S
C287 C119 1.464 . S
C581 C133 4.433 . S
C147 C595 1.566 . S
C161 C609 1.437 . S
C665 C175 1.437 . S
C189 C301 4.446 . S
C203 C651 1.525 . S
C217 C231 1.464 . S
C245 C469 1.566 . S
C259 C483 4.433 . S
C497 C273 4.286 . S
C315 C539 4.446 . S
C511 C329 4.286 . S
C441 C343 4.283 . S
C357 C399 4.446 . S
C413 C371 1.437 . S
C385 C427 1.566 . S
C455 C623 4.284 . S
C637 C525 1.525 . S
C567 C553 4.283 . S
C9 C415 2.137 . S
C429 C23 2.083 . S
C37 C443 1.264 . S
C51 C401 1.107 . S
C387 C65 1.994 . S
C79 C345 1.182 . S
C359 C93 1.183 . S
C107 C373 2.157 . S
C667 C121 2.137 . S
C135 C303 1.106 . S
C149 C653 2.083 . S
C233 C163 2.137 . S
C177 C289 2.157 . S
C191 C583 1.183 . S
C597 C205 1.994 . S
C611 C219 2.157 . S
C527 C247 2.083 . S
C541 C261 1.106 . S
C555 C275 1.266 . S
C317 C485 1.183 . S
C457 C331 1.181 . S
C471 C639 1.994 . S
C499 C569 1.180 . S
C625 C513 1.264 . S
C8 C316 2.338 . S
C22 C568 2.180 . S
C330 C36 2.080 . S
C638 C50 2.322 . S
C260 C64 2.322 . S
C274 C78 2.079 . S
C92 C624 2.204 . S
C106 C246 2.507 . S
C190 C120 2.338 . S
C134 C204 2.322 . S
C218 C148 2.506 . S
C176 C162 2.485 . S
C232 C358 2.338 . S
C428 C288 2.507 . S
C386 C302 2.238 . S
C344 C652 2.179 . S
C666 C372 2.485 . S
C596 C400 2.238 . S
C610 C414 2.485 . S
C582 C442 2.204 . S
C526 C456 2.180 . S
C540 C470 2.238 . S
C484 C554 2.203 . S
C498 C512 2.081 . S
