# Generated by pormake.
# Topology wmn, (6)-cn, num edge types: 1
# Building blocks:
#     Node 0, Type 0, BuildingBlock: KUMBUR_clean_sbu_1, # of connection points: 6
#     Node 1, Type 0, BuildingBlock: KUMBUR_clean_sbu_1, # of connection points: 6
#     Node 2, Type 0, BuildingBlock: KUMBUR_clean_sbu_1, # of connection points: 6
#     Node 3, Type 0, BuildingBlock: KUMBUR_clean_sbu_1, # of connection points: 6
#     Node 4, Type 0, BuildingBlock: KUMBUR_clean_sbu_1, # of connection points: 6
#     Node 5, Type 0, BuildingBlock: KUMBUR_clean_sbu_1, # of connection points: 6
#     Node 6, Type 0, BuildingBlock: KUMBUR_clean_sbu_1, # of connection points: 6
#     Node 7, Type 0, BuildingBlock: KUMBUR_clean_sbu_1, # of connection points: 6
#     Node 8, Type 0, BuildingBlock: KUMBUR_clean_sbu_1, # of connection points: 6
#     Node 9, Type 0, BuildingBlock: KUMBUR_clean_sbu_1, # of connection points: 6
#     Node 10, Type 0, BuildingBlock: KUMBUR_clean_sbu_1, # of connection points: 6
#     Node 11, Type 0, BuildingBlock: KUMBUR_clean_sbu_1, # of connection points: 6
#     Edge 12, Type (0, 0), BuildingBlock: XIVTED_clean_linker_0, # of connection points: 2
#     Edge 13, Type (0, 0), BuildingBlock: XIVTED_clean_linker_0, # of connection points: 2
#     Edge 14, Type (0, 0), BuildingBlock: XIVTED_clean_linker_0, # of connection points: 2
#     Edge 15, Type (0, 0), BuildingBlock: XIVTED_clean_linker_0, # of connection points: 2
#     Edge 16, Type (0, 0), BuildingBlock: XIVTED_clean_linker_0, # of connection points: 2
#     Edge 17, Type (0, 0), BuildingBlock: XIVTED_clean_linker_0, # of connection points: 2
#     Edge 18, Type (0, 0), BuildingBlock: XIVTED_clean_linker_0, # of connection points: 2
#     Edge 19, Type (0, 0), BuildingBlock: XIVTED_clean_linker_0, # of connection points: 2
#     Edge 20, Type (0, 0), BuildingBlock: XIVTED_clean_linker_0, # of connection points: 2
#     Edge 21, Type (0, 0), BuildingBlock: XIVTED_clean_linker_0, # of connection points: 2
#     Edge 22, Type (0, 0), BuildingBlock: XIVTED_clean_linker_0, # of connection points: 2
#     Edge 23, Type (0, 0), BuildingBlock: XIVTED_clean_linker_0, # of connection points: 2
#     Edge 24, Type (0, 0), BuildingBlock: XIVTED_clean_linker_0, # of connection points: 2
#     Edge 25, Type (0, 0), BuildingBlock: XIVTED_clean_linker_0, # of connection points: 2
#     Edge 26, Type (0, 0), BuildingBlock: XIVTED_clean_linker_0, # of connection points: 2
#     Edge 27, Type (0, 0), BuildingBlock: XIVTED_clean_linker_0, # of connection points: 2
#     Edge 28, Type (0, 0), BuildingBlock: XIVTED_clean_linker_0, # of connection points: 2
#     Edge 29, Type (0, 0), BuildingBlock: XIVTED_clean_linker_0, # of connection points: 2
#     Edge 30, Type (0, 0), BuildingBlock: XIVTED_clean_linker_0, # of connection points: 2
#     Edge 31, Type (0, 0), BuildingBlock: XIVTED_clean_linker_0, # of connection points: 2
#     Edge 32, Type (0, 0), BuildingBlock: XIVTED_clean_linker_0, # of connection points: 2
#     Edge 33, Type (0, 0), BuildingBlock: XIVTED_clean_linker_0, # of connection points: 2
#     Edge 34, Type (0, 0), BuildingBlock: XIVTED_clean_linker_0, # of connection points: 2
#     Edge 35, Type (0, 0), BuildingBlock: XIVTED_clean_linker_0, # of connection points: 2
#     Edge 36, Type (0, 0), BuildingBlock: XIVTED_clean_linker_0, # of connection points: 2
#     Edge 37, Type (0, 0), BuildingBlock: XIVTED_clean_linker_0, # of connection points: 2
#     Edge 38, Type (0, 0), BuildingBlock: XIVTED_clean_linker_0, # of connection points: 2
#     Edge 39, Type (0, 0), BuildingBlock: XIVTED_clean_linker_0, # of connection points: 2
#     Edge 40, Type (0, 0), BuildingBlock: XIVTED_clean_linker_0, # of connection points: 2
#     Edge 41, Type (0, 0), BuildingBlock: XIVTED_clean_linker_0, # of connection points: 2
#     Edge 42, Type (0, 0), BuildingBlock: XIVTED_clean_linker_0, # of connection points: 2
#     Edge 43, Type (0, 0), BuildingBlock: XIVTED_clean_linker_0, # of connection points: 2
#     Edge 44, Type (0, 0), BuildingBlock: XIVTED_clean_linker_0, # of connection points: 2
#     Edge 45, Type (0, 0), BuildingBlock: XIVTED_clean_linker_0, # of connection points: 2
#     Edge 46, Type (0, 0), BuildingBlock: XIVTED_clean_linker_0, # of connection points: 2
#     Edge 47, Type (0, 0), BuildingBlock: XIVTED_clean_linker_0, # of connection points: 2
# Relax obj value: 0.143
# Max RMSD: 0.302
# Mean RMSD: 0.302
data_MOF--net-wmn--node1-KUMBUR_clean_sbu_1--edge1-XIVTED_clean_linker_0
_symmetry_space_group_name_H-M    P1
_symmetry_Int_Tables_number       1
_symmetry_cell_setting            triclinic
loop_
_symmetry_equiv_pos_as_xyz
'x, y, z'
_cell_length_a     58.919136
_cell_length_b     58.975127
_cell_length_c     23.851782
_cell_angle_alpha  89.93052
_cell_angle_beta   89.978148
_cell_angle_gamma 119.97827
loop_
_atom_site_label
_atom_site_type_symbol
_atom_site_fract_x
_atom_site_fract_y
_atom_site_fract_z
_atom_type_partial_charge
Tb0 Tb 0.12606 0.40673 0.04781 0.0
C1 C 0.0823 0.28466 0.01512 0.0
N2 N 0.09363 0.29947 0.06126 0.0
C3 C 0.06161 0.26519 0.1197 0.0
C4 C 0.05943 0.25994 0.01912 0.0
C5 C 0.0846 0.28933 0.11344 0.0
C6 C 0.04863 0.25064 0.07222 0.0
C7 C 0.08558 0.27764 0.91612 0.0
C8 C 0.09504 0.29339 0.96441 0.0
C9 C 0.06202 0.25361 0.91908 0.0
C10 C 0.04888 0.24483 0.97048 0.0
Tb11 Tb 0.12999 0.33953 0.04552 0.0
N12 N 0.11749 0.31689 0.96312 0.0
C13 C 0.10037 0.28638 0.86673 0.0
C14 C 0.13297 0.32458 0.91635 0.0
C15 C 0.12439 0.30978 0.86711 0.0
H16 H 0.09534 0.29971 0.15037 0.0
H17 H 0.13637 0.31632 0.82965 0.0
H18 H 0.17499 0.44444 0.9608 0.0
H19 H 0.11071 0.41511 0.26904 0.0
H20 H 0.15176 0.34226 0.91706 0.0
H21 H 0.09378 0.2749 0.82863 0.0
H22 H 0.09831 0.39535 0.17562 0.0
H23 H 0.05419 0.2576 0.16115 0.0
H24 H 0.05413 0.24141 0.88223 0.0
H25 H 0.03112 0.22593 0.97255 0.0
H26 H 0.21793 0.48448 0.96746 0.0
H27 H 0.03106 0.23175 0.07717 0.0
H28 H 0.15346 0.45527 0.28349 0.0
N29 N 0.16667 0.44309 0.04815 0.0
C30 C 0.17431 0.45592 0.09804 0.0
C31 C 0.206 0.47645 0.00466 0.0
C32 C 0.19864 0.47914 0.1035 0.0
C33 C 0.18175 0.4534 1.0013 0.0
C34 C 0.21458 0.48928 0.05602 0.0
N35 N 0.1344 0.42292 0.13716 0.0
C36 C 0.11738 0.41231 0.1811 0.0
C37 C 0.16533 0.45775 0.19676 0.0
C38 C 0.15771 0.44547 0.14401 0.0
C39 C 0.1483 0.44647 0.24224 0.0
C40 C 0.12419 0.42373 0.23428 0.0
H41 H 0.23337 0.50716 0.05841 0.0
H42 H 0.22485 0.50937 0.16094 0.0
H43 H 0.19581 0.49053 0.24265 0.0
O44 O 0.10279 0.42361 0.06647 0.0
O45 O 0.15764 0.40344 0.09226 0.0
O46 O 0.13817 0.3609 0.12389 0.0
O47 O 0.12195 0.43047 0.98678 0.0
O48 O 0.09314 0.37273 0.08853 0.0
O49 O 0.10613 0.34252 0.11415 0.0
O50 O 0.16904 0.34782 0.03991 0.0
O51 O 0.11074 0.34778 0.97629 0.0
O52 O 0.09263 0.37105 0.01347 0.0
O53 O 0.13914 0.311 0.07234 0.0
O54 O 0.1605 0.37717 0.01112 0.0
O55 O 0.14171 0.39915 0.97076 0.0
C56 C 0.1551 0.38587 0.12988 0.0
C57 C 0.11219 0.46284 0.02064 0.0
C58 C 0.09523 0.49344 0.02172 0.0
C59 C 0.12112 0.51423 0.02769 0.0
C60 C 0.1377 0.48401 0.02646 0.0
C61 C 0.14209 0.5095 0.02997 0.0
C62 C 0.09098 0.46766 0.01806 0.0
C63 C 0.08991 0.35199 0.11674 0.0
C64 C 0.10711 0.43561 0.01867 0.0
C65 C 0.20621 0.49152 0.15592 0.0
C66 C 0.18965 0.4808 0.20245 0.0
C67 C 0.09109 0.35205 0.98183 0.0
C68 C 0.18207 0.32711 0.10638 0.0
C69 C 0.21938 0.32218 0.13324 0.0
C70 C 0.21744 0.32969 0.18823 0.0
C71 C 0.18042 0.3346 0.16132 0.0
C72 C 0.20148 0.32094 0.0926 0.0
C73 C 0.19811 0.33592 0.202 0.0
C74 C 0.1583 0.39029 0.96884 0.0
C75 C 0.16398 0.32573 0.0624 0.0
H76 H 0.12528 0.53429 0.0297 0.0
H77 H 0.15427 0.48094 0.02826 0.0
H78 H 0.16188 0.52572 0.03433 0.0
H79 H 0.0712 0.4513 0.01409 0.0
H80 H 0.23109 0.33115 0.22035 0.0
H81 H 0.16548 0.33933 0.1727 0.0
H82 H 0.20241 0.31488 0.05016 0.0
H83 H 0.19688 0.34185 0.24431 0.0
Tb84 Tb 0.61583 0.72137 0.0504 0.0
C85 C 0.74161 0.80975 0.0359 0.0
N86 N 0.7251 0.80426 0.07994 0.0
C87 C 0.75835 0.80701 0.14244 0.0
C88 C 0.76666 0.81257 0.04285 0.0
C89 C 0.73385 0.80473 0.13327 0.0
C90 C 0.77462 0.81034 0.09685 0.0
C91 C 0.75133 0.82231 0.93829 0.0
C92 C 0.73419 0.81474 0.98459 0.0
C93 C 0.77568 0.8236 0.94401 0.0
C94 C 0.78333 0.81871 0.99624 0.0
Tb95 Tb 0.68483 0.7992 0.05904 0.0
N96 N 0.71048 0.81313 0.98071 0.0
C97 C 0.74358 0.82873 0.88803 0.0
C98 C 0.7034 0.82072 0.93285 0.0
C99 C 0.71963 0.82825 0.88554 0.0
H100 H 0.72207 0.80362 0.16896 0.0
H101 H 0.71369 0.8337 0.84728 0.0
H102 H 0.58339 0.73852 0.95789 0.0
H103 H 0.58828 0.67342 0.25183 0.0
H104 H 0.68506 0.82054 0.93105 0.0
H105 H 0.75613 0.83459 0.85139 0.0
H106 H 0.61813 0.69526 0.17214 0.0
H107 H 0.76484 0.80663 0.1847 0.0
H108 H 0.78899 0.82899 0.90873 0.0
H109 H 0.80251 0.82059 1.00055 0.0
H110 H 0.54103 0.73645 0.9535 0.0
H111 H 0.79372 0.81243 0.10406 0.0
H112 H 0.54376 0.66781 0.25181 0.0
N113 N 0.57769 0.7225 0.04056 0.0
C114 C 0.55976 0.71002 0.08222 0.0
C115 C 0.54624 0.72935 0.99041 0.0
C116 C 0.53472 0.70761 0.08029 0.0
C117 C 0.57077 0.73114 0.99388 0.0
C118 C 0.52823 0.71777 0.03397 0.0
N119 N 0.59099 0.70255 0.12817 0.0
C120 C 0.5989 0.69329 0.17203 0.0
C121 C 0.54877 0.68692 0.17148 0.0
C122 C 0.56646 0.69936 0.127 0.0
C123 C 0.55679 0.67749 0.21678 0.0
C124 C 0.58196 0.68072 0.21705 0.0
H125 H 0.50917 0.71626 0.03083 0.0
H126 H 0.49755 0.69286 0.12333 0.0
H127 H 0.50996 0.67502 0.20339 0.0
O128 O 0.60612 0.68174 0.05619 0.0
O129 O 0.61099 0.74414 0.11905 0.0
O130 O 0.64806 0.77011 0.08615 0.0
O131 O 0.59715 0.69605 0.98213 0.0
O132 O 0.64937 0.72659 0.10287 0.0
O133 O 0.68202 0.77075 0.12365 0.0
O134 O 0.68531 0.83469 0.04461 0.0
O135 O 0.67996 0.77341 0.98875 0.0
O136 O 0.65564 0.73066 0.02309 0.0
O137 O 0.69561 0.82627 0.12501 0.0
O138 O 0.64717 0.79123 0.02316 0.0
O139 O 0.62643 0.7503 0.98053 0.0
C140 C 0.63118 0.7669 0.12444 0.0
C141 C 0.56791 0.65152 0.00744 0.0
C142 C 0.53982 0.60353 0.01118 0.0
C143 C 0.51773 0.60675 0.00878 0.0
C144 C 0.54535 0.6538 0.00406 0.0
C145 C 0.52052 0.63161 0.00514 0.0
C146 C 0.56504 0.62621 0.01046 0.0
C147 C 0.67035 0.74481 0.13048 0.0
C148 C 0.5943 0.67536 0.00817 0.0
C149 C 0.51686 0.69487 0.12418 0.0
C150 C 0.52388 0.68461 0.16968 0.0
C151 C 0.67571 0.74939 0.99471 0.0
C152 C 0.71843 0.87025 0.09404 0.0
C153 C 0.73834 0.91782 0.08704 0.0
C154 C 0.76321 0.92018 0.09256 0.0
C155 C 0.7435 0.87317 0.09907 0.0
C156 C 0.71594 0.89264 0.08765 0.0
C157 C 0.76571 0.898 0.09845 0.0
C158 C 0.63495 0.77591 0.98004 0.0
C159 C 0.69491 0.84398 0.09372 0.0
H160 H 0.49813 0.58991 0.0084 0.0
H161 H 0.54681 0.67272 1.00013 0.0
H162 H 0.50331 0.63369 1.00264 0.0
H163 H 0.58233 0.62421 0.01276 0.0
H164 H 0.78084 0.9392 0.09133 0.0
H165 H 0.746 0.85631 0.10332 0.0
H166 H 0.69661 0.89044 0.08358 0.0
H167 H 0.78495 0.90005 0.10222 0.0
Tb168 Tb 0.30257 0.89722 0.05057 0.0
C169 C 0.23026 0.94779 0.00641 0.0
N170 N 0.2302 0.93459 0.05311 0.0
C171 C 0.22556 0.96537 0.11077 0.0
C172 C 0.22915 0.97107 0.01017 0.0
C173 C 0.22635 0.94217 0.10477 0.0
C174 C 0.22753 0.98018 0.06336 0.0
C175 C 0.22651 0.94829 0.90521 0.0
C176 C 0.22908 0.93666 0.95463 0.0
C177 C 0.227 0.97232 0.90844 0.0
C178 C 0.22844 0.98375 0.96084 0.0
Tb179 Tb 0.23351 0.89813 0.03722 0.0
N180 N 0.22892 0.91356 0.95304 0.0
C181 C 0.22279 0.93501 0.85437 0.0
C182 C 0.22322 0.89955 0.90448 0.0
C183 C 0.22063 0.91029 0.85424 0.0
H184 H 0.22419 0.93048 0.14152 0.0
H185 H 0.21676 0.89937 0.81568 0.0
H186 H 0.29105 0.84952 0.95892 0.0
H187 H 0.32881 0.9076 0.27003 0.0
H188 H 0.22093 0.88025 0.90459 0.0
H189 H 0.22071 0.94324 0.81539 0.0
H190 H 0.32628 0.92341 0.17572 0.0
H191 H 0.22326 0.9717 0.1519 0.0
H192 H 0.22553 0.98184 0.87086 0.0
H193 H 0.22797 1.00187 0.96283 0.0
H194 H 0.28059 0.80373 0.96308 0.0
H195 H 0.22665 0.998 0.06808 0.0
H196 H 0.31566 0.86104 0.2842 0.0
N197 N 0.29408 0.85486 0.04765 0.0
C198 C 0.29582 0.84463 0.09755 0.0
C199 C 0.28439 0.81487 1.00138 0.0
C200 C 0.29042 0.81856 0.10176 0.0
C201 C 0.28983 0.84082 0.99939 0.0
C202 C 0.28425 0.80353 0.05289 0.0
N203 N 0.30902 0.88579 0.1383 0.0
C204 C 0.31907 0.90285 0.18208 0.0
C205 C 0.30534 0.85079 0.19709 0.0
C206 C 0.30335 0.86057 0.1445 0.0
C207 C 0.31389 0.86779 0.24303 0.0
C208 C 0.32119 0.89404 0.23526 0.0
H209 H 0.28007 0.78344 0.05426 0.0
H210 H 0.28747 0.78844 0.15847 0.0
H211 H 0.30037 0.81663 0.24204 0.0
O212 O 0.34258 0.91391 0.07187 0.0
O213 O 0.26516 0.86745 0.08982 0.0
O214 O 0.24202 0.88743 0.11838 0.0
O215 O 0.32996 0.90278 0.98739 0.0
O216 O 0.30148 0.92829 0.10087 0.0
O217 O 0.25862 0.92212 0.10671 0.0
O218 O 0.2021 0.85921 0.03497 0.0
O219 O 0.265 0.91738 0.97522 0.0
O220 O 0.30379 0.93322 0.02268 0.0
O221 O 0.19513 0.89113 0.04774 0.0
O222 O 0.23931 0.8666 0.00593 0.0
O223 O 0.28085 0.88356 0.97075 0.0
C224 C 0.25149 0.87178 0.12785 0.0
C225 C 0.37186 0.94046 1.00108 0.0
C226 C 0.41891 0.97309 0.99492 0.0
C227 C 0.41227 0.98996 0.96674 0.0
C228 C 0.36613 0.95789 0.97286 0.0
C229 C 0.38618 0.9824 0.95591 0.0
C230 C 0.3984 0.9481 0.01185 0.0
C231 C 0.28369 0.93377 0.12109 0.0
C232 C 0.35014 0.91475 0.02048 0.0
C233 C 0.29176 0.8085 0.15431 0.0
C234 C 0.29912 0.82456 0.2019 0.0
C235 C 0.28845 0.93655 0.98773 0.0
C236 C 0.16606 0.8514 0.09172 0.0
C237 C 0.12157 0.81842 0.12021 0.0
C238 C 0.12864 0.8264 0.17636 0.0
C239 C 0.1727 0.85855 0.14789 0.0
C240 C 0.14084 0.83105 0.07822 0.0
C241 C 0.15406 0.84598 0.18994 0.0
C242 C 0.25528 0.86801 0.96609 0.0
C243 C 0.18469 0.8659 0.04641 0.0
H244 H 0.42733 1.009 0.95214 0.0
H245 H 0.34611 0.95258 0.96364 0.0
H246 H 0.38146 0.99562 0.93405 0.0
H247 H 0.40298 0.93484 0.03402 0.0
H248 H 0.11456 0.81798 0.21008 0.0
H249 H 0.1921 0.87414 0.15906 0.0
H250 H 0.13647 0.8253 0.03472 0.0
H251 H 0.15916 0.8518 0.23323 0.0
Tb252 Tb 0.41233 0.1192 0.46304 0.0
C253 C 0.29098 0.06775 0.50135 0.0
N254 N 0.30438 0.08031 0.45436 0.0
C255 C 0.27112 0.04635 0.39762 0.0
C256 C 0.26768 0.04334 0.49855 0.0
C257 C 0.29396 0.07071 0.40274 0.0
C258 C 0.25818 0.03235 0.44578 0.0
C259 C 0.28597 0.06877 0.60196 0.0
C260 C 0.29994 0.08018 0.55218 0.0
C261 C 0.26341 0.04388 0.59992 0.0
C262 C 0.2543 0.03115 0.54827 0.0
Tb263 Tb 0.34271 0.11889 0.46822 0.0
N264 N 0.32203 0.10399 0.55245 0.0
C265 C 0.29485 0.08301 0.6519 0.0
C266 C 0.32962 0.11881 0.60007 0.0
C267 C 0.3165 0.10835 0.65073 0.0
H268 H 0.30303 0.08198 0.36538 0.0
H269 H 0.32302 0.11988 0.68868 0.0
H270 H 0.44949 0.1687 0.54799 0.0
H271 H 0.4216 0.10291 0.2423 0.0
H272 H 0.34603 0.13849 0.59899 0.0
H273 H 0.28471 0.07496 0.69115 0.0
H274 H 0.40356 0.08986 0.33692 0.0
H275 H 0.26333 0.03859 0.35655 0.0
H276 H 0.25257 0.03456 0.6378 0.0
H277 H 0.23655 0.01223 0.5471 0.0
H278 H 0.48762 0.21303 0.53921 0.0
H279 H 0.24037 0.01359 0.44175 0.0
H280 H 0.45856 0.14751 0.22471 0.0
N281 N 0.44755 0.1605 0.4606 0.0
C282 C 0.45958 0.16862 0.40994 0.0
C283 C 0.47971 0.20086 0.50238 0.0
C284 C 0.48156 0.19379 0.40308 0.0
C285 C 0.4578 0.17579 0.50704 0.0
C286 C 0.49149 0.21002 0.4501 0.0
N287 N 0.42822 0.12746 0.37303 0.0
C288 C 0.41879 0.10976 0.33012 0.0
C289 C 0.4609 0.1597 0.31109 0.0
C290 C 0.44942 0.15169 0.3646 0.0
C291 C 0.45035 0.14208 0.2665 0.0
C292 C 0.4294 0.11693 0.27622 0.0
H293 H 0.50842 0.22946 0.44665 0.0
H294 H 0.50978 0.22121 0.3436 0.0
H295 H 0.4916 0.19144 0.26302 0.0
O296 O 0.43632 0.10294 0.44501 0.0
O297 O 0.40772 0.15102 0.42438 0.0
O298 O 0.36538 0.13119 0.391 0.0
O299 O 0.43292 0.11362 0.52896 0.0
O300 O 0.37935 0.0868 0.41876 0.0
O301 O 0.34795 0.09864 0.39523 0.0
O302 O 0.34619 0.15584 0.48023 0.0
O303 O 0.35422 0.10038 0.53337 0.0
O304 O 0.37689 0.08334 0.49028 0.0
O305 O 0.31209 0.12493 0.44105 0.0
O306 O 0.37908 0.15107 0.50256 0.0
O307 O 0.40399 0.1346 0.54001 0.0
C308 C 0.39043 0.14833 0.38603 0.0
C309 C 0.43736 0.07594 0.51679 0.0
C310 C 0.45114 0.04286 0.5239 0.0
C311 C 0.42704 0.02588 0.54992 0.0
C312 C 0.41362 0.05842 0.54307 0.0
C313 C 0.40855 0.03363 0.5594 0.0
C314 C 0.45623 0.06812 0.50752 0.0
C315 C 0.359 0.08392 0.38929 0.0
C316 C 0.44185 0.10181 0.49723 0.0
C317 C 0.49293 0.20189 0.34976 0.0
C318 C 0.48257 0.18493 0.30386 0.0
C319 C 0.35802 0.08073 0.52377 0.0
C320 C 0.32604 0.16813 0.41112 0.0
C321 C 0.3217 0.20593 0.38513 0.0
C322 C 0.3302 0.20476 0.3306 0.0
C323 C 0.3345 0.16733 0.35654 0.0
C324 C 0.31968 0.18741 0.4252 0.0
C325 C 0.33658 0.1856 0.31657 0.0
C326 C 0.39394 0.15023 0.54275 0.0
C327 C 0.32446 0.14955 0.45436 0.0
H328 H 0.42258 1.0066 0.56393 0.0
H329 H 0.3989 0.06384 0.55113 0.0
H330 H 0.39017 0.02033 0.57968 0.0
H331 H 0.47452 0.08145 0.48688 0.0
H332 H 0.3324 0.21894 0.29904 0.0
H333 H 0.33952 0.15266 0.34486 0.0
H334 H 0.31302 0.18784 0.46736 0.0
H335 H 0.34331 0.18502 0.27463 0.0
Tb336 Tb 0.90855 0.29732 0.45847 0.0
C337 C 0.93126 0.20189 0.46175 0.0
N338 N 0.92568 0.21315 0.41828 0.0
C339 C 0.95948 0.21262 0.36321 0.0
C340 C 0.95195 0.19646 0.45852 0.0
C341 C 0.93875 0.21765 0.36856 0.0
C342 C 0.96633 0.20227 0.40861 0.0
C343 C 0.92043 0.18325 0.555 0.0
C344 C 0.91578 0.1955 0.5092 0.0
C345 C 0.94164 0.17863 0.55303 0.0
C346 C 0.95734 0.18518 0.50483 0.0
Tb347 Tb 0.89216 0.22135 0.4319 0.0
N348 N 0.89532 0.20002 0.50911 0.0
C349 C 0.90313 0.17529 0.60051 0.0
C350 C 0.87714 0.19016 0.55103 0.0
C351 C 0.8811 0.17833 0.59802 0.0
H352 H 0.93316 0.2249 0.33268 0.0
H353 H 0.8669 0.1711 0.63176 0.0
H354 H 0.87153 0.28703 0.57467 0.0
H355 H 0.90324 0.33625 0.25745 0.0
H356 H 0.85919 0.19065 0.54758 0.0
H357 H 0.906 0.16584 0.63662 0.0
H358 H 0.92449 0.32495 0.33372 0.0
H359 H 0.97005 0.21658 0.32397 0.0
H360 H 0.94567 0.16943 0.588 0.0
H361 H 0.9733 0.18105 0.50343 0.0
H362 H 0.82704 0.27793 0.59572 0.0
H363 H 0.98237 0.19837 0.40434 0.0
H364 H 0.85747 0.3266 0.26857 0.0
N365 N 0.86825 0.29074 0.48629 0.0
C366 C 0.85443 0.29497 0.4459 0.0
C367 C 0.83425 0.2821 0.55304 0.0
C368 C 0.82926 0.29127 0.4567 0.0
C369 C 0.85932 0.28649 0.54043 0.0
C370 C 0.81888 0.28389 0.5107 0.0
N371 N 0.89078 0.30867 0.38618 0.0
C372 C 0.90459 0.32097 0.33879 0.0
C373 C 0.85337 0.31074 0.35232 0.0
C374 C 0.8663 0.30483 0.39457 0.0
C375 C 0.86674 0.32177 0.30211 0.0
C376 C 0.89259 0.32726 0.29566 0.0
H377 H 0.79962 0.28084 0.52077 0.0
H378 H 0.79629 0.2931 0.42142 0.0
H379 H 0.81738 0.31001 0.32986 0.0
O380 O 0.94227 0.33375 0.44208 0.0
O381 O 0.88717 0.27403 0.38462 0.0
O382 O 0.86513 0.23608 0.429 0.0
O383 O 0.91482 0.33075 0.50391 0.0
O384 O 0.93615 0.2926 0.40518 0.0
O385 O 0.91367 0.25056 0.36521 0.0
O386 O 0.86403 0.18102 0.429 0.0
O387 O 0.93111 0.24882 0.46519 0.0
O388 O 0.93092 0.2841 0.51052 0.0
O389 O 0.87803 0.20445 0.35255 0.0
O390 O 0.8702 0.23082 0.49296 0.0
O391 O 0.89714 0.27123 0.53298 0.0
C392 C 0.86689 0.25042 0.38609 0.0
C393 C 0.95834 0.36636 0.51226 0.0
C394 C 0.98905 0.41263 0.53379 0.0
C395 C 1.00098 0.40442 0.57389 0.0
C396 C 0.97056 0.35885 0.55258 0.0
C397 C 0.99175 0.3778 0.58319 0.0
C398 C 0.96751 0.39327 0.50316 0.0
C399 C 0.93394 0.27469 0.36877 0.0
C400 C 0.93652 0.34648 0.47826 0.0
C401 C 0.81575 0.29611 0.41403 0.0
C402 C 0.82779 0.30584 0.36195 0.0
C403 C 0.94133 0.2691 0.49956 0.0
C404 C 0.84454 0.15851 0.34094 0.0
C405 C 0.80979 0.11263 0.33461 0.0
C406 C 0.80763 0.11614 0.27695 0.0
C407 C 0.84212 0.16134 0.28315 0.0
C408 C 0.82824 0.13404 0.36659 0.0
C409 C 0.82352 0.14036 0.2517 0.0
C410 C 0.87935 0.24608 0.53733 0.0
C411 C 0.86214 0.18172 0.37478 0.0
H412 H 0.01726 0.4186 0.59881 0.0
H413 H 0.9637 0.33835 0.56014 0.0
H414 H 1.00108 0.37182 0.61435 0.0
H415 H 0.95818 0.39907 0.47159 0.0
H416 H 0.79315 0.1003 0.25154 0.0
H417 H 0.85403 0.18001 0.2625 0.0
H418 H 0.82974 0.13168 0.41126 0.0
H419 H 0.82097 0.14302 0.20781 0.0
Tb420 Tb 0.73086 0.61887 0.46269 0.0
C421 C 0.8093 0.74006 0.48669 0.0
N422 N 0.80668 0.72488 0.44169 0.0
C423 C 0.8084 0.75797 0.38019 0.0
C424 C 0.81034 0.76432 0.48048 0.0
C425 C 0.8077 0.73415 0.38862 0.0
C426 C 0.80923 0.77292 0.42637 0.0
C427 C 0.81677 0.74754 0.58654 0.0
C428 C 0.81245 0.73184 0.53887 0.0
C429 C 0.81639 0.77108 0.58121 0.0
C430 C 0.81316 0.77946 0.52824 0.0
Tb431 Tb 0.80316 0.68522 0.46134 0.0
N432 N 0.81231 0.70882 0.54237 0.0
C433 C 0.82211 0.73943 0.63764 0.0
C434 C 0.81976 0.70194 0.59082 0.0
C435 C 0.82414 0.7168 0.63951 0.0
H436 H 0.80801 0.72321 0.3526 0.0
H437 H 0.82916 0.71084 0.67834 0.0
H438 H 0.74242 0.58135 0.54895 0.0
H439 H 0.70423 0.60939 0.243 0.0
H440 H 0.82161 0.68466 0.59199 0.0
H441 H 0.82556 0.75093 0.67534 0.0
H442 H 0.71332 0.62993 0.33577 0.0
H443 H 0.80854 0.7649 0.33807 0.0
H444 H 0.81929 0.78328 0.61748 0.0
H445 H 0.81359 0.79798 0.52447 0.0
H446 H 0.74387 0.54048 0.54259 0.0
H447 H 0.80994 0.79144 0.41974 0.0
H448 H 0.70553 0.56854 0.22861 0.0
N449 N 0.73402 0.58194 0.46223 0.0
C450 C 0.72784 0.56868 0.4128 0.0
C451 C 0.73965 0.54838 0.50561 0.0
C452 C 0.72814 0.54504 0.4075 0.0
C453 C 0.73924 0.57185 0.50881 0.0
C454 C 0.73423 0.53499 0.4547 0.0
N455 N 0.72179 0.60223 0.37374 0.0
C456 C 0.71502 0.61275 0.33021 0.0
C457 C 0.71597 0.56648 0.31472 0.0
C458 C 0.7217 0.57924 0.36704 0.0
C459 C 0.70999 0.57772 0.26954 0.0
C460 C 0.70936 0.60084 0.27745 0.0
H461 H 0.73456 0.51681 0.45242 0.0
H462 H 0.72249 0.51404 0.35056 0.0
H463 H 0.71199 0.53287 0.2693 0.0
O464 O 0.69058 0.60241 0.44578 0.0
O465 O 0.76523 0.62014 0.42011 0.0
O466 O 0.78926 0.66208 0.38532 0.0
O467 O 0.70339 0.59636 0.52558 0.0
O468 O 0.7333 0.65314 0.42072 0.0
O469 O 0.77649 0.68084 0.39134 0.0
O470 O 0.83392 0.67695 0.46869 0.0
O471 O 0.77571 0.67796 0.5301 0.0
O472 O 0.73405 0.65542 0.49436 0.0
O473 O 0.84092 0.71342 0.43423 0.0
O474 O 0.79576 0.64807 0.49913 0.0
O475 O 0.75462 0.62702 0.53901 0.0
C476 C 0.78115 0.637 0.3824 0.0
C477 C 0.66063 0.56403 0.49424 0.0
C478 C 0.61286 0.53396 0.49422 0.0
C479 C 0.61759 0.51283 0.49125 0.0
C480 C 0.66452 0.54249 0.4912 0.0
C481 C 0.64314 0.51711 0.48973 0.0
C482 C 0.63472 0.55967 0.49588 0.0
C483 C 0.75112 0.67297 0.39088 0.0
C484 C 0.68319 0.59113 0.49434 0.0
C485 C 0.72235 0.53223 0.35547 0.0
C486 C 0.71636 0.54296 0.30918 0.0
C487 C 0.75219 0.67463 0.5244 0.0
C488 C 0.86713 0.69654 0.40058 0.0
C489 C 0.90859 0.69988 0.37217 0.0
C490 C 0.89881 0.69295 0.31725 0.0
C491 C 0.85772 0.6896 0.34564 0.0
C492 C 0.89247 0.70158 0.41365 0.0
C493 C 0.87353 0.6878 0.30425 0.0
C494 C 0.78001 0.63537 0.5412 0.0
C495 C 0.85096 0.69869 0.44492 0.0
H496 H 0.6015 0.49283 0.491 0.0
H497 H 0.68403 0.5452 0.49005 0.0
H498 H 0.64637 0.50061 0.4876 0.0
H499 H 0.63165 0.57631 0.4976 0.0
H500 H 0.91056 0.69115 0.28453 0.0
H501 H 0.83823 0.68565 0.33479 0.0
H502 H 0.89973 0.70719 0.45607 0.0
H503 H 0.86615 0.68234 0.26194 0.0
Tb504 Tb 0.89451 0.67737 0.94863 0.0
C505 C 0.8546 0.56429 0.94367 0.0
N506 N 0.86748 0.58149 0.98597 0.0
C507 C 0.83183 0.55489 0.04845 0.0
C508 C 0.82901 0.54295 0.9511 0.0
C509 C 0.85736 0.57538 0.03914 0.0
C510 C 0.81728 0.53903 0.00384 0.0
C511 C 0.85615 0.54845 0.8506 0.0
C512 C 0.86806 0.56656 0.89448 0.0
C513 C 0.8301 0.52816 0.85652 0.0
C514 C 0.81657 0.52538 0.90671 0.0
Tb515 Tb 0.90897 0.615 0.96391 0.0
N516 N 0.89316 0.58656 0.89005 0.0
C517 C 0.87093 0.55106 0.80253 0.0
C518 C 0.90808 0.58857 0.84429 0.0
C519 C 0.89709 0.57104 0.79963 0.0
H520 H 0.86895 0.58571 0.07517 0.0
H521 H 0.90875 0.57301 0.76295 0.0
H522 H 0.92673 0.71148 0.8331 0.0
H523 H 0.8913 0.71053 0.15755 0.0
H524 H 0.92822 0.60422 0.84172 0.0
H525 H 0.86246 0.53753 0.76785 0.0
H526 H 0.87512 0.67974 0.07766 0.0
H527 H 0.82368 0.55088 0.09037 0.0
H528 H 0.82048 0.51412 0.82312 0.0
H529 H 0.7968 0.50908 0.91148 0.0
H530 H 0.96448 0.75478 0.8126 0.0
H531 H 0.79768 0.52286 0.01136 0.0
H532 H 0.93129 0.75385 0.14668 0.0
N533 N 0.92917 0.71703 0.92197 0.0
C534 C 0.93961 0.73508 0.96375 0.0
C535 C 0.95805 0.74931 0.8555 0.0
C536 C 0.96096 0.76037 0.95359 0.0
C537 C 0.93693 0.72447 0.86764 0.0
C538 C 0.97057 0.76712 0.89886 0.0
N539 N 0.9064 0.70471 0.02378 0.0
C540 C 0.89285 0.69831 0.07315 0.0
C541 C 0.93744 0.74721 0.0601 0.0
C542 C 0.92773 0.72883 0.01613 0.0
C543 C 0.9244 0.74029 0.11179 0.0
C544 C 0.90184 0.71584 0.11814 0.0
H545 H 0.98684 0.78639 0.88927 0.0
H546 H 0.9879 0.79789 0.99084 0.0
H547 H 0.96753 0.78621 0.08432 0.0
O548 O 0.86446 0.68584 0.96583 0.0
O549 O 0.92203 0.67998 0.01393 0.0
O550 O 0.94028 0.65429 0.98865 0.0
O551 O 0.87698 0.68594 0.88116 0.0
O552 O 0.86972 0.64192 0.99697 0.0
O553 O 0.89569 0.62794 0.03871 0.0
O554 O 0.93851 0.60538 0.94849 0.0
O555 O 0.88947 0.61825 0.8876 0.0
O556 O 0.86901 0.63602 0.93233 0.0
O557 O 0.91723 0.59414 0.0249 0.0
O558 O 0.93656 0.64763 0.91097 0.0
O559 O 0.91742 0.67256 0.88095 0.0
C560 C 0.94196 0.67592 0.00918 0.0
C561 C 0.86047 0.71437 0.90252 0.0
C562 C 0.83434 0.73611 0.89995 0.0
C563 C 0.8566 0.75915 0.88138 0.0
C564 C 0.88239 0.73762 0.88421 0.0
C565 C 0.88041 0.75983 0.87362 0.0
C566 C 0.83651 0.71373 0.9104 0.0
C567 C 0.87712 0.63432 0.04178 0.0
C568 C 0.86198 0.69055 0.91369 0.0
C569 C 0.97129 0.77848 0.99775 0.0
C570 C 0.95962 0.77189 0.05092 0.0
C571 C 0.87173 0.62534 0.88722 0.0
C572 C 0.93103 0.56563 0.98823 0.0
C573 C 0.94976 0.53658 0.98392 0.0
C574 C 0.92436 0.51535 0.97483 0.0
C575 C 0.90605 0.54399 0.97914 0.0
C576 C 0.9529 0.56186 0.99081 0.0
C577 C 0.90279 0.51908 0.97245 0.0
C578 C 0.9356 0.66559 0.87915 0.0
C579 C 0.93429 0.5921 0.99419 0.0
H580 H 0.85576 0.77683 0.87379 0.0
H581 H 0.90101 0.73873 0.87798 0.0
H582 H 0.89744 0.7777 0.8596 0.0
H583 H 0.81952 0.6957 0.92413 0.0
H584 H 0.92101 0.49563 0.97044 0.0
H585 H 0.88899 0.5463 0.97749 0.0
H586 H 0.97227 0.57856 0.99742 0.0
H587 H 0.88339 0.50251 0.96565 0.0
Tb588 Tb 0.34586 0.22465 0.97097 0.0
C589 C 0.46316 0.29383 0.93032 0.0
N590 N 0.44894 0.29134 0.97726 0.0
C591 C 0.47974 0.28553 0.03261 0.0
C592 C 0.4855 0.29094 0.93236 0.0
C593 C 0.45776 0.28863 0.02849 0.0
C594 C 0.49343 0.28626 0.98425 0.0
C595 C 0.47009 0.30337 0.83076 0.0
C596 C 0.4558 0.3003 0.88032 0.0
C597 C 0.4918 0.29958 0.83217 0.0
C598 C 0.49954 0.29347 0.88289 0.0
Tb599 Tb 0.41323 0.29656 0.96418 0.0
N600 N 0.43464 0.3037 0.88052 0.0
C601 C 0.46232 0.31051 0.7815 0.0
C602 C 0.4279 0.31208 0.83341 0.0
C603 C 0.44132 0.3152 0.78303 0.0
H604 H 0.44847 0.28947 0.06676 0.0
H605 H 0.43568 0.32155 0.74561 0.0
H606 H 0.30654 0.21354 0.8611 0.0
H607 H 0.322 0.20209 0.18988 0.0
H608 H 0.41271 0.31711 0.83496 0.0
H609 H 0.47277 0.31305 0.7425 0.0
H610 H 0.34881 0.21053 0.1042 0.0
H611 H 0.48634 0.28297 0.07324 0.0
H612 H 0.50299 0.30176 0.79447 0.0
H613 H 0.51664 0.29113 0.88357 0.0
H614 H 0.26252 0.20781 0.84492 0.0
H615 H 0.51054 0.28402 0.98767 0.0
H616 H 0.27946 0.20093 0.18436 0.0
N617 N 0.30479 0.2169 0.94972 0.0
C618 C 0.28948 0.21436 0.99453 0.0
C619 C 0.26997 0.20991 0.8872 0.0
C620 C 0.26403 0.21045 0.98739 0.0
C621 C 0.29494 0.21335 0.89649 0.0
C622 C 0.25461 0.20892 0.93281 0.0
N623 N 0.3227 0.21598 0.05233 0.0
C624 C 0.33062 0.21063 0.10194 0.0
C625 C 0.28236 0.20829 0.0949 0.0
C626 C 0.29856 0.21344 0.04758 0.0
C627 C 0.2913 0.20491 0.14694 0.0
C628 C 0.31534 0.2056 0.15026 0.0
H629 H 0.23517 0.20595 0.92552 0.0
H630 H 0.22894 0.20436 0.03018 0.0
H631 H 0.24497 0.20239 0.12437 0.0
O632 O 0.35793 0.19649 0.97285 0.0
O633 O 0.35332 0.25396 0.0353 0.0
O634 O 0.37673 0.29428 0.9929 0.0
O635 O 0.3179 0.18519 0.95661 0.0
O636 O 0.38419 0.23423 0.00456 0.0
O637 O 0.40417 0.27479 0.04384 0.0
O638 O 0.42906 0.33619 0.94127 0.0
O639 O 0.40853 0.26122 0.91943 0.0
O640 O 0.36552 0.23593 0.8905 0.0
O641 O 0.43525 0.32604 0.02362 0.0
O642 O 0.38155 0.29385 0.91008 0.0
O643 O 0.34528 0.25083 0.90551 0.0
C644 C 0.35707 0.27735 0.02409 0.0
C645 C 0.33388 0.16012 0.91368 0.0
C646 C 0.32684 0.11724 0.88436 0.0
C647 C 0.32775 0.12502 0.82804 0.0
C648 C 0.33508 0.16749 0.85742 0.0
C649 C 0.33218 0.15003 0.81487 0.0
C650 C 0.33035 0.13537 0.92692 0.0
C651 C 0.39595 0.24956 0.04729 0.0
C652 C 0.33492 0.17739 0.95922 0.0
C653 C 0.24844 0.20706 0.03475 0.0
C654 C 0.25756 0.20591 0.0884 0.0
C655 C 0.39083 0.24676 0.88145 0.0
C656 C 0.46751 0.36752 0.98732 0.0
C657 C 0.49809 0.41511 0.9864 0.0
C658 C 0.51895 0.41002 0.98145 0.0
C659 C 0.48876 0.36325 0.98219 0.0
C660 C 0.47225 0.39352 0.98958 0.0
C661 C 0.51428 0.38437 0.97936 0.0
C662 C 0.35826 0.27588 0.89087 0.0
C663 C 0.44034 0.34517 0.98921 0.0
H664 H 0.32453 0.11173 0.79385 0.0
H665 H 0.33781 0.18652 0.84645 0.0
H666 H 0.33287 0.15571 0.77145 0.0
H667 H 0.33027 0.1304 0.97066 0.0
H668 H 0.53905 0.4259 0.97999 0.0
H669 H 0.48571 0.34362 0.98046 0.0
H670 H 0.45582 0.39688 0.99292 0.0
H671 H 0.53057 0.38084 0.97565 0.0
Tb672 Tb 0.80357 0.13295 0.93699 0.0
C673 C 0.72172 0.17558 0.94128 0.0
N674 N 0.73077 0.16478 0.97967 0.0
C675 C 0.73848 0.199 0.04482 0.0
C676 C 0.72222 0.19934 0.95224 0.0
C677 C 0.7373 0.17527 0.03236 0.0
C678 C 0.73138 0.21135 0.00428 0.0
C679 C 0.70177 0.17301 0.85038 0.0
C680 C 0.71114 0.16243 0.89118 0.0
C681 C 0.70282 0.19693 0.86083 0.0
C682 C 0.71299 0.21004 0.91161 0.0
Tb683 Tb 0.7266 0.1254 0.95312 0.0
N684 N 0.71137 0.1398 0.88134 0.0
C685 C 0.69188 0.15933 0.80007 0.0
C686 C 0.70121 0.12603 0.83282 0.0
C687 C 0.6915 0.13571 0.79138 0.0
H688 H 0.74064 0.16518 0.06612 0.0
H689 H 0.68377 0.12497 0.75275 0.0
H690 H 0.80083 0.09378 0.83237 0.0
H691 H 0.85029 0.14773 0.13779 0.0
H692 H 0.70094 0.10776 0.82611 0.0
H693 H 0.68448 0.16683 0.7677 0.0
H694 H 0.8324 0.15949 0.05616 0.0
H695 H 0.74424 0.20741 0.08627 0.0
H696 H 0.69575 0.20543 0.82997 0.0
H697 H 0.71337 0.22834 0.9193 0.0
H698 H 0.79967 0.05172 0.82256 0.0
H699 H 0.73206 0.22959 0.01434 0.0
H700 H 0.84772 0.10454 0.14145 0.0
N701 N 0.80527 0.09541 0.92097 0.0
C702 C 0.81227 0.08586 0.96534 0.0
C703 C 0.8026 0.06075 0.8634 0.0
C704 C 0.81313 0.06245 0.96156 0.0
C705 C 0.80241 0.08425 0.8694 0.0
C706 C 0.80733 0.04941 0.91008 0.0
N707 N 0.82059 0.12375 0.01367 0.0
C708 C 0.83125 0.14068 0.05744 0.0
C709 C 0.82994 0.09287 0.05935 0.0
C710 C 0.82066 0.10082 0.01323 0.0
C711 C 0.84008 0.10972 0.10536 0.0
C712 C 0.84131 0.13401 0.10375 0.0
H713 H 0.80783 0.0314 0.90525 0.0
H714 H 0.82141 0.03543 0.00661 0.0
H715 H 0.83612 0.06213 0.09252 0.0
O716 O 0.84041 0.16716 0.94363 0.0
O717 O 0.77748 0.10904 0.00445 0.0
O718 O 0.73418 0.09291 0.97406 0.0
O719 O 0.82786 0.1462 0.86576 0.0
O720 O 0.79777 0.16155 0.98569 0.0
O721 O 0.75544 0.13945 0.024 0.0
O722 O 0.68667 0.09913 0.93721 0.0
O723 O 0.74888 0.15198 0.88299 0.0
O724 O 0.77663 0.14499 0.92088 0.0
O725 O 0.69903 0.11484 0.01905 0.0
O726 O 0.73136 0.09877 0.89558 0.0
O727 O 0.77518 0.1113 0.86908 0.0
C728 C 0.75298 0.09015 0.99863 0.0
C729 C 0.87302 0.16658 0.888 0.0
C730 C 0.92078 0.1933 0.88998 0.0
C731 C 0.92243 0.17059 0.88096 0.0
C732 C 0.87509 0.14413 0.8796 0.0
C733 C 0.89971 0.14621 0.87584 0.0
C734 C 0.89587 0.19106 0.89315 0.0
C735 C 0.78107 0.15656 0.02767 0.0
C736 C 0.84731 0.16486 0.89321 0.0
C737 C 0.82096 0.05356 0.0084 0.0
C738 C 0.82941 0.06879 0.05725 0.0
C739 C 0.77262 0.15712 0.88069 0.0
C740 C 0.65982 0.07342 0.01128 0.0
C741 C 0.6138 0.03928 0.02572 0.0
C742 C 0.62272 0.02363 0.0513 0.0
C743 C 0.66802 0.05727 0.03656 0.0
C744 C 0.63271 0.06438 0.00597 0.0
C745 C 0.64953 0.03257 0.05658 0.0
C746 C 0.74917 0.09701 0.86419 0.0
C747 C 0.67915 0.09924 0.98803 0.0
H748 H 0.94126 0.17157 0.87912 0.0
H749 H 0.85777 0.125 0.87616 0.0
H750 H 0.90119 0.12882 0.86948 0.0
H751 H 0.89419 0.20837 0.89961 0.0
H752 H 0.60897 1.00449 0.06796 0.0
H753 H 0.68867 0.06372 0.04063 0.0
H754 H 0.62642 0.07671 0.98544 0.0
H755 H 0.65601 0.02024 0.07629 0.0
Tb756 Tb 0.68831 0.89913 0.5464 0.0
C757 C 0.57012 0.84538 0.57678 0.0
N758 N 0.58436 0.85794 0.53035 0.0
C759 C 0.55413 0.82203 0.4729 0.0
C760 C 0.54803 0.82004 0.57323 0.0
C761 C 0.57586 0.84713 0.47846 0.0
C762 C 0.54037 0.80827 0.52052 0.0
C763 C 0.56353 0.84554 0.67733 0.0
C764 C 0.57746 0.85811 0.62816 0.0
C765 C 0.54187 0.82012 0.67403 0.0
C766 C 0.53408 0.80744 0.62211 0.0
Tb767 Tb 0.61909 0.89904 0.54602 0.0
N768 N 0.59886 0.88252 0.63009 0.0
C769 C 0.57194 0.85882 0.72842 0.0
C770 C 0.60689 0.89572 0.67971 0.0
C771 C 0.59367 0.88404 0.72955 0.0
H772 H 0.58524 0.85786 0.44078 0.0
H773 H 0.60034 0.89445 0.76886 0.0
H774 H 0.72189 0.92104 0.66421 0.0
H775 H 0.72311 0.90806 0.33331 0.0
H776 H 0.62375 0.91499 0.68134 0.0
H777 H 0.56183 0.84979 0.76716 0.0
H778 H 0.69198 0.88669 0.41179 0.0
H779 H 0.54778 0.81346 0.43174 0.0
H780 H 0.53093 0.81013 0.71137 0.0
H781 H 0.51715 0.78794 0.62016 0.0
H782 H 0.76567 0.95719 0.69226 0.0
H783 H 0.52347 0.78886 0.516 0.0
H784 H 0.76484 0.94924 0.34987 0.0
N785 N 0.72824 0.93041 0.57746 0.0
C786 C 0.74555 0.94507 0.53691 0.0
C787 C 0.76017 0.95412 0.64846 0.0
C788 C 0.77072 0.96566 0.5507 0.0
C789 C 0.73548 0.93375 0.63257 0.0
C790 C 0.77769 0.97048 0.60741 0.0
N791 N 0.71525 0.91622 0.47063 0.0
C792 C 0.71004 0.90471 0.41897 0.0
C793 C 0.75736 0.95038 0.43845 0.0
C794 C 0.73891 0.9376 0.48152 0.0
C795 C 0.75117 0.94003 0.38416 0.0
C796 C 0.72765 0.91674 0.37466 0.0
H797 H 0.79687 0.98612 0.61979 0.0
H798 H 0.8078 0.99598 0.51721 0.0
H799 H 0.79611 0.98256 0.41885 0.0
O800 O 0.67469 0.8588 0.55454 0.0
O801 O 0.68005 0.91835 0.47776 0.0
O802 O 0.6543 0.934 0.51375 0.0
O803 O 0.71585 0.88658 0.55601 0.0
O804 O 0.65151 0.86891 0.50888 0.0
O805 O 0.62908 0.88647 0.46734 0.0
O806 O 0.59826 0.91762 0.5729 0.0
O807 O 0.62642 0.87064 0.59403 0.0
O808 O 0.66888 0.89297 0.62616 0.0
O809 O 0.5962 0.90581 0.48762 0.0
O810 O 0.64973 0.93132 0.59512 0.0
O811 O 0.68788 0.92803 0.60543 0.0
C812 C 0.67477 0.93724 0.48474 0.0
C813 C 0.70155 0.84775 0.60746 0.0
C814 C 0.71256 0.81479 0.63796 0.0
C815 C 0.70987 0.82055 0.69407 0.0
C816 C 0.69903 0.85325 0.66349 0.0
C817 C 0.70301 0.83954 0.70655 0.0
C818 C 0.70799 0.82844 0.59492 0.0
C819 C 0.63956 0.87132 0.46491 0.0
C820 C 0.69805 0.86214 0.56118 0.0
C821 C 0.78848 0.97982 0.50755 0.0
C822 C 0.78181 0.97218 0.4515 0.0
C823 C 0.6441 0.87575 0.63361 0.0
C824 C 0.5944 0.94457 0.50476 0.0
C825 C 0.5804 0.97749 0.49829 0.0
C826 C 0.60457 0.99471 0.47279 0.0
C827 C 0.61817 0.96231 0.47892 0.0
C828 C 0.57539 0.95218 0.5141 0.0
C829 C 0.62318 0.98715 0.46323 0.0
C830 C 0.67349 0.93925 0.61549 0.0
C831 C 0.58991 0.91854 0.52309 0.0
H832 H 0.7135 0.81077 0.72842 0.0
H833 H 0.69418 0.86819 0.67382 0.0
H834 H 0.70106 0.84386 0.74979 0.0
H835 H 0.70932 0.82404 0.55134 0.0
H836 H 0.60898 0.01402 0.45921 0.0
H837 H 0.63292 0.957 0.47055 0.0
H838 H 0.55702 0.93866 0.53424 0.0
H839 H 0.6416 1.00061 0.44328 0.0
Tb840 Tb 0.12699 0.79166 0.54173 0.0
C841 C 0.17706 0.72664 0.60443 0.0
N842 N 0.16883 0.72999 0.55337 0.0
C843 C 0.20965 0.7389 0.51231 0.0
C844 C 0.20249 0.73052 0.61179 0.0
C845 C 0.18433 0.73508 0.50712 0.0
C846 C 0.21888 0.73688 0.56493 0.0
C847 C 0.16825 0.71733 0.70371 0.0
C848 C 0.16004 0.71992 0.64976 0.0
C849 C 0.19369 0.72146 0.71133 0.0
C850 C 0.21072 0.72795 0.66549 0.0
Tb851 Tb 0.12698 0.72255 0.55028 0.0
N852 N 0.13566 0.71651 0.64102 0.0
C853 C 0.15068 0.7107 0.74841 0.0
C854 C 0.11811 0.70899 0.68425 0.0
C855 C 0.12546 0.70632 0.73853 0.0
H856 H 0.17721 0.73576 0.46589 0.0
H857 H 0.11155 0.70063 0.77267 0.0
H858 H 0.09529 0.80027 0.64718 0.0
H859 H 0.12779 0.81447 0.32238 0.0
H860 H 0.09824 0.70446 0.67747 0.0
H861 H 0.15627 0.70859 0.79053 0.0
H862 H 0.14574 0.80709 0.40999 0.0
H863 H 0.22196 0.74319 0.47561 0.0
H864 H 0.20035 0.71959 0.75252 0.0
H865 H 0.23024 0.73095 0.67201 0.0
H866 H 0.05424 0.80146 0.6603 0.0
H867 H 0.23853 0.73992 0.56878 0.0
H868 H 0.08463 0.81213 0.32363 0.0
N869 N 0.09095 0.79557 0.55885 0.0
C870 C 0.07822 0.79712 0.51295 0.0
C871 C 0.06049 0.79977 0.61861 0.0
C872 C 0.05534 0.79893 0.518 0.0
C873 C 0.0834 0.79853 0.6112 0.0
C874 C 0.04607 0.79943 0.57178 0.0
N875 N 0.11235 0.79888 0.45875 0.0
C876 C 0.12672 0.80551 0.4104 0.0
C877 C 0.0787 0.80384 0.41264 0.0
C878 C 0.08961 0.79941 0.4611 0.0
C879 C 0.09233 0.80862 0.36188 0.0
C880 C 0.11668 0.80991 0.36098 0.0
H881 H 0.02857 0.80081 0.57754 0.0
H882 H 0.02552 0.8026 0.47236 0.0
H883 H 0.04604 0.80698 0.37997 0.0
O884 O 0.16617 0.82233 0.53721 0.0
O885 O 0.10767 0.7621 0.47607 0.0
O886 O 0.09171 0.72189 0.51797 0.0
O887 O 0.13556 0.83003 0.56019 0.0
O888 O 0.15822 0.78591 0.50732 0.0
O889 O 0.14129 0.74455 0.47114 0.0
O890 O 0.10967 0.68256 0.57189 0.0
O891 O 0.15761 0.75942 0.5897 0.0
O892 O 0.13644 0.78072 0.62145 0.0
O893 O 0.12371 0.69547 0.48864 0.0
O894 O 0.09351 0.72235 0.59181 0.0
O895 O 0.10358 0.76545 0.61182 0.0
C896 C 0.08864 0.73814 0.48511 0.0
C897 C 0.17729 0.85753 0.59888 0.0
C898 C 0.21344 0.90052 0.62676 0.0
C899 C 0.2079 0.89252 0.68323 0.0
C900 C 0.17247 0.84995 0.6553 0.0
C901 C 0.18781 0.86738 0.69719 0.0
C902 C 0.19796 0.88254 0.58476 0.0
C903 C 0.15664 0.77014 0.46681 0.0
C904 C 0.16063 0.83991 0.55417 0.0
C905 C 0.0433 0.80151 0.46945 0.0
C906 C 0.05501 0.80406 0.41684 0.0
C907 C 0.15384 0.77327 0.6281 0.0
C908 C 0.08574 0.65354 0.49868 0.0
C909 C 0.05373 0.60649 0.48953 0.0
C910 C 0.03782 0.61314 0.45743 0.0
C911 C 0.06919 0.6593 0.46695 0.0
C912 C 0.07794 0.62703 0.5099 0.0
C913 C 0.04548 0.63924 0.44649 0.0
C914 C 0.08919 0.73962 0.61823 0.0
C915 C 0.11067 0.67521 0.52114 0.0
H916 H 0.21874 0.9058 0.71688 0.0
H917 H 0.15668 0.83072 0.66691 0.0
H918 H 0.18387 0.86152 0.74077 0.0
H919 H 0.20187 0.88779 0.54086 0.0
H920 H 0.01948 0.59812 0.43991 0.0
H921 H 0.07461 0.67935 0.45769 0.0
H922 H 0.09048 0.62251 0.53506 0.0
H923 H 0.03296 0.64394 0.42179 0.0
Tb924 Tb 0.23184 0.33876 0.54492 0.0
C925 C 0.30606 0.45627 0.58939 0.0
N926 N 0.30103 0.44229 0.54107 0.0
C927 C 0.29658 0.4753 0.49152 0.0
C928 C 0.30554 0.4799 0.59094 0.0
C929 C 0.29724 0.45193 0.49201 0.0
C930 C 0.3005 0.48923 0.54126 0.0
C931 C 0.31637 0.46034 0.68871 0.0
C932 C 0.31175 0.44678 0.63758 0.0
C933 C 0.31557 0.48374 0.69054 0.0
C934 C 0.31027 0.49354 0.64177 0.0
Tb935 Tb 0.30415 0.40531 0.54738 0.0
N936 N 0.31207 0.42389 0.63445 0.0
C937 C 0.32159 0.44995 0.73651 0.0
C938 C 0.31789 0.41407 0.68069 0.0
C939 C 0.32246 0.42678 0.73239 0.0
H940 H 0.29546 0.44222 0.45265 0.0
H941 H 0.32683 0.41879 0.76899 0.0
H942 H 0.22323 0.29851 0.65118 0.0
H943 H 0.20658 0.31619 0.32679 0.0
H944 H 0.31942 0.39667 0.6782 0.0
H945 H 0.32517 0.45974 0.77663 0.0
H946 H 0.21546 0.34195 0.41402 0.0
H947 H 0.29339 0.48274 0.4526 0.0
H948 H 0.3191 0.49445 0.72946 0.0
H949 H 0.3099 0.5117 0.64378 0.0
H950 H 0.22067 0.25573 0.6643 0.0
H951 H 0.30005 0.50737 0.54065 0.0
H952 H 0.20694 0.27438 0.32814 0.0
N953 N 0.22642 0.29816 0.56244 0.0
C954 C 0.22359 0.2833 0.51675 0.0
C955 C 0.22193 0.26344 0.6225 0.0
C956 C 0.22096 0.25829 0.52194 0.0
C957 C 0.22397 0.28792 0.615 0.0
C958 C 0.22096 0.24876 0.5757 0.0
N959 N 0.22275 0.31612 0.46259 0.0
C960 C 0.21628 0.32413 0.41444 0.0
C961 C 0.21569 0.27669 0.41686 0.0
C962 C 0.2211 0.29236 0.46506 0.0
C963 C 0.21113 0.28578 0.36622 0.0
C964 C 0.21097 0.30941 0.36525 0.0
H965 H 0.219 0.22964 0.58156 0.0
H966 H 0.2155 0.22407 0.47661 0.0
H967 H 0.2108 0.24019 0.38445 0.0
O968 O 0.20176 0.34772 0.53377 0.0
O969 O 0.26044 0.34589 0.47866 0.0
O970 O 0.30125 0.36859 0.51843 0.0
O971 O 0.19361 0.31144 0.57143 0.0
O972 O 0.24095 0.37705 0.51151 0.0
O973 O 0.28118 0.39713 0.4696 0.0
O974 O 0.34405 0.4215 0.56807 0.0
O975 O 0.26983 0.40304 0.59249 0.0
O976 O 0.24421 0.36032 0.62321 0.0
O977 O 0.33288 0.42701 0.48602 0.0
O978 O 0.30142 0.37185 0.59392 0.0
O979 O 0.25761 0.34084 0.61506 0.0
C980 C 0.28377 0.34912 0.48783 0.0
C981 C 0.16748 0.32934 0.59981 0.0
C982 C 0.12489 0.32437 0.62426 0.0
C983 C 0.13459 0.33417 0.67812 0.0
C984 C 0.17671 0.33884 0.6538 0.0
C985 C 0.16034 0.3414 0.69259 0.0
C986 C 0.14176 0.32236 0.58518 0.0
C987 C 0.25586 0.38891 0.46801 0.0
C988 C 0.18415 0.32639 0.55792 0.0
C989 C 0.21723 0.24321 0.47361 0.0
C990 C 0.2145 0.25235 0.42115 0.0
C991 C 0.25434 0.38566 0.63002 0.0
C992 C 0.37516 0.45929 0.5194 0.0
C993 C 0.42298 0.4891 0.51947 0.0
C994 C 0.41843 0.51036 0.52189 0.0
C995 C 0.37146 0.48096 0.52185 0.0
C996 C 0.401 0.46345 0.51804 0.0
C997 C 0.39296 0.50627 0.52309 0.0
C998 C 0.28332 0.35121 0.62165 0.0
C999 C 0.35244 0.43229 0.51936 0.0
H1000 H 0.12215 0.33573 0.70948 0.0
H1001 H 0.19641 0.34411 0.666 0.0
H1002 H 0.16755 0.34873 0.73425 0.0
H1003 H 0.13495 0.3154 0.54306 0.0
H1004 H 0.43461 0.53031 0.52194 0.0
H1005 H 0.35202 0.47841 0.52268 0.0
H1006 H 0.40394 0.44672 0.51668 0.0
H1007 H 0.38986 0.52287 0.52477 0.0
H1008 H 0.08809 0.52872 0.08375 0.0
H1009 H 0.95914 0.5039 0.91816 0.0
H1010 H 0.05187 0.4713 0.95263 0.0
H1011 H 0.99215 0.55799 0.05608 0.0
H1012 H 0.99368 0.49284 0.92853 0.0
H1013 H 0.05376 0.5402 0.07348 0.0
C1014 C 0.07295 0.51851 0.05268 0.0
C1015 C 0.07311 0.49909 0.0187 0.0
C1016 C 0.99345 0.50715 0.95655 0.0
C1017 C 0.03346 0.51222 0.00681 0.0
C1018 C 0.97364 0.51348 0.95075 0.0
C1019 C 0.97243 0.53176 0.9867 0.0
C1020 C 1.01246 0.51916 0.99859 0.0
C1021 C 0.99226 0.5439 0.02721 0.0
C1022 C 0.05326 0.52506 0.04698 0.0
C1023 C 0.05256 0.48626 0.98002 0.0
N1024 N 1.01132 0.5373 0.03221 0.0
N1025 N 0.03372 0.49314 0.97496 0.0
H1026 H 0.53447 0.45747 0.92554 0.0
H1027 H 0.50454 0.56175 0.07442 0.0
H1028 H 0.47497 0.43661 0.05228 0.0
H1029 H 0.5655 0.583 0.95124 0.0
H1030 H 0.49414 0.51619 0.06829 0.0
H1031 H 0.54605 0.50327 0.93447 0.0
C1032 C 0.52383 0.46246 0.95545 0.0
C1033 C 0.5038 0.44293 0.98859 0.0
C1034 C 0.50987 0.53077 0.04272 0.0
C1035 C 0.51703 0.49582 0.99877 0.0
C1036 C 0.51586 0.55687 0.04619 0.0
C1037 C 0.53583 0.57636 0.01293 0.0
C1038 C 0.52385 0.5238 0.00553 0.0
C1039 C 0.55005 0.56877 0.97788 0.0
C1040 C 0.53047 0.48872 0.96039 0.0
C1041 C 0.49042 0.45079 0.02557 0.0
N1042 N 0.54366 0.54313 0.97479 0.0
N1043 N 0.49733 0.47654 0.02979 0.0
H1044 H 0.5745 0.98925 1.00037 0.0
H1045 H 0.45783 0.02163 0.02874 0.0
H1046 H 0.58674 0.06608 0.03836 0.0
H1047 H 0.4451 0.94527 0.98437 0.0
H1048 H 0.50477 0.03762 0.03559 0.0
H1049 H 0.5273 0.97256 0.99646 0.0
C1050 C 0.56733 1.00267 0.00815 0.0
C1051 C 0.58489 0.0292 0.02015 0.0
C1052 C 0.49178 0.01735 0.02449 0.0
C1053 C 0.53038 1.01001 0.01528 0.0
C1054 C 0.46487 1.00815 0.02046 0.0
C1055 C 0.44729 0.98203 0.00532 0.0
C1056 C 0.50153 1.00041 0.01343 0.0
C1057 C 0.45774 0.96548 0.99638 0.0
C1058 C 0.54027 0.99307 0.00565 0.0
C1059 C 0.57419 0.04558 0.02856 0.0
N1060 N 0.48411 0.97496 1.00022 0.0
N1061 N 0.54775 0.03573 0.02618 0.0
H1062 H 0.44188 0.99476 0.48758 0.0
H1063 H 0.58934 0.02528 0.53577 0.0
H1064 H 0.50468 0.06989 0.54126 0.0
H1065 H 0.52691 0.95042 0.47977 0.0
H1066 H 0.55856 0.04159 0.53937 0.0
H1067 H 0.47261 0.97836 0.48384 0.0
C1068 C 0.46218 1.00789 0.49852 0.0
C1069 C 0.47056 0.03378 0.51528 0.0
C1070 C 0.5515 0.02157 0.5264 0.0
C1071 C 0.5061 0.01492 0.51106 0.0
C1072 C 0.56911 0.01219 0.5243 0.0
C1073 C 0.56086 0.98641 0.50692 0.0
C1074 C 0.52523 1.00517 0.51101 0.0
C1075 C 0.53422 0.97034 0.49367 0.0
C1076 C 0.47975 0.99845 0.49632 0.0
C1077 C 0.49727 0.04988 0.52786 0.0
N1078 N 0.51745 0.98001 0.49565 0.0
N1079 N 0.51399 0.04016 0.52584 0.0
H1080 H 1.00376 0.56662 0.51243 0.0
H1081 H 0.04026 0.45273 0.52832 0.0
H1082 H 0.0827 0.58118 0.49184 0.0
H1083 H 0.96097 0.43818 0.51938 0.0
H1084 H 0.05642 0.49974 0.51988 0.0
H1085 H 0.98827 0.51994 0.52109 0.0
C1086 C 0.01792 0.56007 0.50955 0.0
C1087 C 0.04466 0.57812 0.50054 0.0
C1088 C 0.03549 0.48629 0.51963 0.0
C1089 C 0.02682 0.52412 0.5113 0.0
C1090 C 0.0262 0.45938 0.52465 0.0
C1091 C 0.99912 0.44129 0.5249 0.0
C1092 C 0.01766 0.49545 0.51526 0.0
C1093 C 0.98197 0.45123 0.51905 0.0
C1094 C 1.00899 0.53328 0.51468 0.0
C1095 C 0.06198 0.56821 0.49892 0.0
N1096 N 0.9915 0.47755 0.51486 0.0
N1097 N 0.05277 0.54195 0.50401 0.0
H1098 H 0.44346 0.464 0.45706 0.0
H1099 H 0.59227 0.55883 0.55705 0.0
H1100 H 0.46597 0.52606 0.57771 0.0
H1101 H 0.56984 0.49687 0.43615 0.0
H1102 H 0.54629 0.54757 0.56415 0.0
H1103 H 0.48943 0.47516 0.45009 0.0
C1104 C 0.45795 0.4798 0.4825 0.0
C1105 C 0.45064 0.49418 0.5177 0.0
C1106 C 0.55143 0.53644 0.53602 0.0
C1107 C 0.50366 0.50739 0.50933 0.0
C1108 C 0.57779 0.54302 0.53159 0.0
C1109 C 0.58514 0.52871 0.49626 0.0
C1110 C 0.53209 0.51539 0.5048 0.0
C1111 C 0.56522 0.50821 0.46481 0.0
C1112 C 0.4843 0.48633 0.47815 0.0
C1113 C 0.47057 0.51467 0.54916 0.0
N1114 N 0.53976 0.50217 0.46992 0.0
N1115 N 0.49601 0.52065 0.54412 0.0
H1116 H 0.98463 0.29571 0.39903 0.0
H1117 H 0.04478 0.35417 0.11075 0.0
H1118 H 0.93421 0.27158 0.25428 0.0
H1119 H 0.08312 0.32245 0.21165 0.0
H1120 H 1.0057 0.33095 0.169 0.0
H1121 H 0.02286 0.31163 0.33706 0.0
C1122 C 0.98168 0.29358 0.35413 0.0
C1123 C 0.95642 0.28235 0.33139 0.0
C1124 C 0.02253 0.32872 0.17759 0.0
C1125 C 0.9998 0.30121 0.26084 0.0
C1126 C 0.04485 0.34187 0.14433 0.0
C1127 C 0.06684 0.33913 0.15436 0.0
C1128 C 0.0226 0.31371 0.22297 0.0
C1129 C 0.06622 0.32415 0.20078 0.0
C1130 C 1.00341 0.30257 0.31901 0.0
C1131 C 0.95347 0.28009 0.2731 0.0
N1132 N 0.04448 0.31215 0.23383 0.0
N1133 N 0.97504 0.28998 0.23954 0.0
H1134 H 0.67 0.69837 0.12656 0.0
H1135 H 0.7095 0.67972 0.40926 0.0
H1136 H 0.69755 0.76807 0.22703 0.0
H1137 H 0.76978 0.69527 0.28739 0.0
H1138 H 0.69175 0.69989 0.34638 0.0
H1139 H 0.69332 0.68378 0.18866 0.0
C1140 C 0.6812 0.71079 0.16114 0.0
C1141 C 0.68271 0.73503 0.1703 0.0
C1142 C 0.70902 0.69906 0.33396 0.0
C1143 C 0.70852 0.71798 0.24183 0.0
C1144 C 0.7191 0.68752 0.3694 0.0
C1145 C 0.74131 0.68611 0.3536 0.0
C1146 C 0.7207 0.70842 0.28172 0.0
C1147 C 0.75287 0.69636 0.30136 0.0
C1148 C 0.69448 0.70245 0.19623 0.0
C1149 C 0.69673 0.7498 0.21715 0.0
N1150 N 0.74213 0.70678 0.26658 0.0
N1151 N 0.70895 0.7409 0.25171 0.0
H1152 H 0.36331 0.04015 0.39046 0.0
H1153 H 0.28228 0.97887 0.10958 0.0
H1154 H 0.32921 0.07801 0.29543 0.0
H1155 H 0.30294 0.9365 0.22651 0.0
H1156 H 0.29964 0.01586 0.1749 0.0
H1157 H 0.34322 1.00313 0.32689 0.0
C1158 C 0.35155 0.04069 0.35614 0.0
C1159 C 0.34748 0.06201 0.34896 0.0
C1160 C 0.30056 0.99854 0.18607 0.0
C1161 C 0.32439 0.01951 0.27559 0.0
C1162 C 0.29069 0.97748 0.14888 0.0
C1163 C 0.2925 0.95523 0.16164 0.0
C1164 C 0.31213 0.99711 0.2364 0.0
C1165 C 0.30282 0.95397 0.21351 0.0
C1166 C 0.33992 0.01941 0.32003 0.0
C1167 C 0.33219 0.06163 0.30349 0.0
N1168 N 0.31247 0.97473 0.24885 0.0
N1169 N 0.32117 0.04067 0.26838 0.0
H1170 H 0.04785 0.68957 0.6229 0.0
H1171 H 0.97799 0.71439 0.88317 0.0
H1172 H 0.07925 0.76455 0.70457 0.0
H1173 H 0.94141 0.64441 0.78298 0.0
H1174 H 1.01522 0.73349 0.81839 0.0
H1175 H 1.00939 0.67253 0.6829 0.0
C1176 C 0.04656 0.70264 0.65292 0.0
C1177 C 0.06644 0.72896 0.6569 0.0
C1178 C 0.99893 0.71409 0.81003 0.0
C1179 C 0.02243 0.70925 0.72688 0.0
C1180 C 0.97758 0.70336 0.8466 0.0
C1181 C 0.95649 0.67815 0.83729 0.0
C1182 C 0.99935 0.69919 0.76455 0.0
C1183 C 0.9573 0.66405 0.79098 0.0
C1184 C 0.02451 0.69283 0.68725 0.0
C1185 C 0.06393 0.74456 0.69806 0.0
N1186 N 0.97846 0.67474 0.75632 0.0
N1187 N 0.04232 0.73449 0.73143 0.0
H1188 H 0.25741 0.31971 0.71256 0.0
H1189 H 0.37589 0.2953 0.78633 0.0
H1190 H 0.33192 0.35649 0.62681 0.0
H1191 H 0.31114 0.2737 0.89908 0.0
H1192 H 0.35691 0.31313 0.72125 0.0
H1193 H 0.27385 0.29856 0.77631 0.0
C1194 C 0.27697 0.32292 0.70632 0.0
C1195 C 0.29291 0.33911 0.6628 0.0
C1196 C 0.3469 0.30473 0.76043 0.0
C1197 C 0.31206 0.3156 0.73638 0.0
C1198 C 0.35797 0.29491 0.79789 0.0
C1199 C 0.34571 0.28432 0.84911 0.0
C1200 C 0.32318 0.30366 0.77409 0.0
C1201 C 0.32141 0.28234 0.86028 0.0
C1202 C 0.28645 0.3111 0.74315 0.0
C1203 C 0.31865 0.34373 0.65884 0.0
N1204 N 0.31097 0.29216 0.82319 0.0
N1205 N 0.32731 0.33191 0.69478 0.0
H1206 H 0.77214 0.09203 0.76725 0.0
H1207 H 0.64748 0.95907 0.67444 0.0
H1208 H 0.70103 0.0531 0.86519 0.0
H1209 H 0.72545 0.97517 0.63314 0.0
H1210 H 0.66621 0.99816 0.73218 0.0
H1211 H 0.75475 0.05352 0.70581 0.0
C1212 C 0.75311 0.07533 0.77638 0.0
C1213 C 0.73846 0.07548 0.82269 0.0
C1214 C 0.67923 0.99295 0.71102 0.0
C1215 C 0.71802 0.0322 0.75112 0.0
C1216 C 0.66856 0.97047 0.67827 0.0
C1217 C 0.68489 0.963 0.65094 0.0
C1218 C 0.7065 1.00864 0.71531 0.0
C1219 C 0.71214 0.97947 0.6556 0.0
C1220 C 0.74314 0.05353 0.74101 0.0
C1221 C 0.71322 0.0539 0.83042 0.0
N1222 N 0.72216 1.00162 0.68716 0.0
N1223 N 0.70384 0.03319 0.79507 0.0
H1224 H 0.25876 0.37284 0.73616 0.0
H1225 H 0.1537 0.4058 0.86202 0.0
H1226 H 0.23034 0.41524 0.63958 0.0
H1227 H 0.20285 0.3871 0.96318 0.0
H1228 H 0.18073 0.4098 0.77971 0.0
H1229 H 0.23815 0.3784 0.81978 0.0
C1230 C 0.24859 0.38385 0.73303 0.0
C1231 C 0.24646 0.39388 0.68133 0.0
C1232 C 0.18574 0.40517 0.82016 0.0
C1233 C 0.22189 0.39956 0.77649 0.0
C1234 C 0.17034 0.4029 0.86713 0.0
C1235 C 0.1758 0.39582 0.91956 0.0
C1236 C 0.20665 0.40024 0.82577 0.0
C1237 C 0.19759 0.39224 0.92362 0.0
C1238 C 0.2367 0.38693 0.78067 0.0
C1239 C 0.23273 0.40762 0.67909 0.0
N1240 N 0.21197 0.39422 0.87745 0.0
N1241 N 0.22057 0.40973 0.72592 0.0
H1242 H 0.64023 0.82445 0.97276 0.0
H1243 H 0.60949 0.82279 0.64622 0.0
H1244 H 0.62066 0.75627 0.87222 0.0
H1245 H 0.66424 0.89179 0.73718 0.0
H1246 H 0.60368 0.79627 0.73109 0.0
H1247 H 0.63881 0.84729 0.8891 0.0
C1248 C 0.63541 0.81412 0.93316 0.0
C1249 C 0.63098 0.78844 0.92962 0.0
C1250 C 0.61678 0.81725 0.73229 0.0
C1251 C 0.62898 0.81468 0.83314 0.0
C1252 C 0.61994 0.83236 0.68422 0.0
C1253 C 0.63744 0.85946 0.68485 0.0
C1254 C 0.63074 0.82955 0.78135 0.0
C1255 C 0.65066 0.87093 0.7349 0.0
C1256 C 0.63464 0.82727 0.8853 0.0
C1257 C 0.6244 0.7761 0.87692 0.0
N1258 N 0.64699 0.85597 0.78102 0.0
N1259 N 0.62371 0.78939 0.83056 0.0
H1260 H 0.20775 0.82386 0.96232 0.0
H1261 H 0.20675 0.79075 0.63776 0.0
H1262 H 0.27556 0.87128 0.85929 0.0
H1263 H 0.13907 0.77845 0.73206 0.0
H1264 H 0.23437 0.81192 0.72099 0.0
H1265 H 0.18489 0.79799 0.88078 0.0
C1266 C 0.218 0.82876 0.92253 0.0
C1267 C 0.24353 0.85015 0.91755 0.0
C1268 C 0.21344 0.80435 0.72325 0.0
C1269 C 0.21718 0.82021 0.82342 0.0
C1270 C 0.19771 0.79215 0.67617 0.0
C1271 C 0.17068 0.78302 0.67825 0.0
C1272 C 0.20178 0.80668 0.7727 0.0
C1273 C 0.15986 0.78539 0.72867 0.0
C1274 C 0.20485 0.81391 0.87591 0.0
C1275 C 0.25585 0.85505 0.8649 0.0
N1276 N 0.1754 0.79691 0.77377 0.0
N1277 N 0.24244 0.84031 0.81949 0.0
H1278 H 0.38829 0.19322 0.54658 0.0
H1279 H 0.42524 0.22818 0.87006 0.0
H1280 H 0.41316 0.14903 0.64831 0.0
H1281 H 0.37239 0.24461 0.77716 0.0
H1282 H 0.43049 0.20671 0.78597 0.0
H1283 H 0.39243 0.22005 0.62725 0.0
C1284 C 0.39481 0.1892 0.58587 0.0
C1285 C 0.39998 0.16847 0.59071 0.0
C1286 C 0.41806 0.21536 0.78401 0.0
C1287 C 0.40488 0.19954 0.68398 0.0
C1288 C 0.41528 0.2278 0.83161 0.0
C1289 C 0.39839 0.23814 0.83019 0.0
C1290 C 0.40427 0.21389 0.73474 0.0
C1291 C 0.38558 0.23684 0.77985 0.0
C1292 C 0.39716 0.20461 0.63206 0.0
C1293 C 0.40885 0.16471 0.64274 0.0
N1294 N 0.38878 0.22497 0.73428 0.0
N1295 N 0.41083 0.17998 0.68765 0.0
H1296 H 0.89763 0.25638 0.64619 0.0
H1297 H 0.7588 0.14716 0.77166 0.0
H1298 H 0.82708 0.21275 0.54925 0.0
H1299 H 0.82395 0.19673 0.87802 0.0
H1300 H 0.78505 0.17019 0.68951 0.0
H1301 H 0.87248 0.2349 0.73191 0.0
C1302 C 0.87684 0.24256 0.64309 0.0
C1303 C 0.86448 0.23611 0.59056 0.0
C1304 C 0.79384 0.176 0.73066 0.0
C1305 C 0.83573 0.21136 0.68777 0.0
C1306 C 0.77885 0.16274 0.77751 0.0
C1307 C 0.78954 0.16961 0.83139 0.0
C1308 C 0.81973 0.19663 0.73754 0.0
C1309 C 0.8154 0.19027 0.83688 0.0
C1310 C 0.86254 0.23019 0.69184 0.0
C1311 C 0.8375 0.21806 0.58877 0.0
N1312 N 0.8297 0.20306 0.79051 0.0
N1313 N 0.82416 0.20624 0.63638 0.0
H1314 H 0.88294 0.61894 0.77841 0.0
H1315 H 0.76053 0.62534 0.64853 0.0
H1316 H 0.82825 0.63022 0.87803 0.0
H1317 H 0.82602 0.63484 0.54949 0.0
H1318 H 0.78211 0.62126 0.7328 0.0
H1319 H 0.8595 0.6192 0.69354 0.0
C1320 C 0.86596 0.62137 0.78244 0.0
C1321 C 0.85765 0.62476 0.8353 0.0
C1322 C 0.79167 0.62409 0.69254 0.0
C1323 C 0.83062 0.62484 0.73859 0.0
C1324 C 0.77927 0.62624 0.64442 0.0
C1325 C 0.7915 0.6305 0.59194 0.0
C1326 C 0.81633 0.62589 0.68807 0.0
C1327 C 0.81593 0.63173 0.58915 0.0
C1328 C 0.85263 0.62158 0.73402 0.0
C1329 C 0.83549 0.62779 0.83806 0.0
N1330 N 0.82752 0.62944 0.63646 0.0
N1331 N 0.82276 0.62774 0.79049 0.0
H1332 H 0.82746 0.62582 0.0482 0.0
H1333 H 0.81597 0.61904 0.38328 0.0
H1334 H 0.88946 0.63044 0.15251 0.0
H1335 H 0.77001 0.63812 0.27328 0.0
H1336 H 0.83869 0.61445 0.30073 0.0
H1337 H 0.80187 0.62131 0.13143 0.0
C1338 C 0.83571 0.62576 0.08874 0.0
C1339 C 0.86088 0.62886 0.09325 0.0
C1340 C 0.82324 0.61907 0.29472 0.0
C1341 C 0.8313 0.62363 0.18967 0.0
C1342 C 0.81008 0.62135 0.34161 0.0
C1343 C 0.79075 0.62837 0.33461 0.0
C1344 C 0.81673 0.62365 0.24077 0.0
C1345 C 0.78445 0.63216 0.28018 0.0
C1346 C 0.821 0.62318 0.13642 0.0
C1347 C 0.8702 0.62819 0.14712 0.0
N1348 N 0.79735 0.62974 0.23547 0.0
N1349 N 0.85547 0.62585 0.19342 0.0
H1350 H 0.37921 0.13209 0.27915 0.0
H1351 H 0.40853 0.26924 0.15523 0.0
H1352 H 0.418 0.2021 0.37902 0.0
H1353 H 0.39543 0.20328 0.05367 0.0
H1354 H 0.41211 0.24632 0.23844 0.0
H1355 H 0.38491 0.15873 0.19634 0.0
C1356 C 0.38939 0.15322 0.28323 0.0
C1357 C 0.39836 0.16501 0.33558 0.0
C1358 C 0.4088 0.23712 0.1977 0.0
C1359 C 0.40429 0.19576 0.24125 0.0
C1360 C 0.40678 0.25018 0.15028 0.0
C1361 C 0.40136 0.23806 0.09747 0.0
C1362 C 0.40527 0.2118 0.19203 0.0
C1363 C 0.39921 0.21329 0.0935 0.0
C1364 C 0.39259 0.16845 0.23604 0.0
C1365 C 0.41115 0.19241 0.339 0.0
N1366 N 0.40091 0.20098 0.14001 0.0
N1367 N 0.41341 0.20693 0.2925 0.0
H1368 H 0.76172 0.14146 0.13461 0.0
H1369 H 0.88101 0.26815 0.27822 0.0
H1370 H 0.82526 0.20404 0.04282 0.0
H1371 H 0.82108 0.20379 0.37339 0.0
H1372 H 0.85909 0.24594 0.19172 0.0
H1373 H 0.78141 0.16474 0.22242 0.0
C1374 C 0.77966 0.1602 0.13289 0.0
C1375 C 0.79184 0.17081 0.08124 0.0
C1376 C 0.85061 0.23667 0.23146 0.0
C1377 C 0.81451 0.19758 0.18153 0.0
C1378 C 0.86309 0.24943 0.281 0.0
C1379 C 0.85296 0.23776 0.33326 0.0
C1380 C 0.82761 0.21208 0.23386 0.0
C1381 C 0.82967 0.21342 0.33401 0.0
C1382 C 0.79094 0.17344 0.18302 0.0
C1383 C 0.81521 0.19505 0.08161 0.0
N1384 N 0.81781 0.20137 0.28513 0.0
N1385 N 0.82575 0.20755 0.13079 0.0
H1386 H 0.67048 0.78911 0.20239 0.0
H1387 H 0.6538 0.83414 0.45373 0.0
H1388 H 0.5979 0.78455 0.15401 0.0
H1389 H 0.61998 0.87255 0.35967 0.0
H1390 H 0.65275 0.81024 0.37021 0.0
H1391 H 0.6732 0.81561 0.28263 0.0
C1392 C 0.65537 0.79415 0.20774 0.0
C1393 C 0.63435 0.78521 0.17028 0.0
C1394 C 0.64582 0.8241 0.36745 0.0
C1395 C 0.63643 0.81443 0.26491 0.0
C1396 C 0.64617 0.83767 0.41546 0.0
C1397 C 0.63728 0.85577 0.41388 0.0
C1398 C 0.63634 0.82834 0.31689 0.0
C1399 C 0.62722 0.85896 0.36283 0.0
C1400 C 0.65665 0.8089 0.25452 0.0
C1401 C 0.61468 0.79146 0.1815 0.0
N1402 N 0.62694 0.84531 0.31629 0.0
N1403 N 0.61623 0.80582 0.22772 0.0
H1404 H 0.15377 0.74919 0.36132 0.0
H1405 H 0.24701 0.88838 0.23015 0.0
H1406 H 0.19982 0.81854 0.46056 0.0
H1407 H 0.23463 0.81926 0.14242 0.0
H1408 H 0.22677 0.86192 0.31351 0.0
H1409 H 0.18044 0.77277 0.27867 0.0
C1410 C 0.16966 0.76914 0.36596 0.0
C1411 C 0.17426 0.78201 0.41779 0.0
C1412 C 0.22872 0.85248 0.27636 0.0
C1413 C 0.20445 0.80898 0.32393 0.0
C1414 C 0.24025 0.86759 0.2288 0.0
C1415 C 0.24247 0.85595 0.17957 0.0
C1416 C 0.21873 0.82532 0.27459 0.0
C1417 C 0.23337 0.82893 0.17988 0.0
C1418 C 0.18482 0.78256 0.31888 0.0
C1419 C 0.19512 0.80789 0.42141 0.0
N1420 N 0.22147 0.81435 0.22655 0.0
N1421 N 0.20912 0.82054 0.37516 0.0
H1422 H 0.2089 0.41499 0.13567 0.0
H1423 H 0.20927 0.38809 0.46495 0.0
H1424 H 0.13963 0.3724 0.23706 0.0
H1425 H 0.27464 0.40252 0.35932 0.0
H1426 H 0.18659 0.3919 0.38361 0.0
H1427 H 0.23604 0.41978 0.21876 0.0
C1428 C 0.1995 0.40727 0.17573 0.0
C1429 C 0.17207 0.39342 0.17991 0.0
C1430 C 0.20595 0.39438 0.37805 0.0
C1431 C 0.20269 0.39873 0.27433 0.0
C1432 C 0.21899 0.39221 0.42462 0.0
C1433 C 0.24381 0.39456 0.41901 0.0
C1434 C 0.21773 0.39918 0.32496 0.0
C1435 C 0.2555 0.40044 0.36557 0.0
C1436 C 0.21491 0.40975 0.22281 0.0
C1437 C 0.16073 0.38329 0.23227 0.0
N1438 N 0.24227 0.40237 0.32041 0.0
N1439 N 0.17604 0.38616 0.27729 0.0
H1440 H 0.24925 0.33608 0.03779 0.0
H1441 H 0.32692 0.26141 0.11939 0.0
H1442 H 0.23678 0.29396 0.19336 0.0
H1443 H 0.34347 0.31008 0.97291 0.0
H1444 H 0.29271 0.27148 0.14624 0.0
H1445 H 0.2826 0.32503 0.01202 0.0
C1446 C 0.25343 0.32439 0.06648 0.0
C1447 C 0.2401 0.3159 0.11781 0.0
C1448 C 0.30384 0.27996 0.10824 0.0
C1449 C 0.27864 0.30338 0.08875 0.0
C1450 C 0.32318 0.27404 0.09273 0.0
C1451 C 0.33764 0.28449 0.04337 0.0
C1452 C 0.2991 0.29665 0.07423 0.0
C1453 C 0.3327 0.30149 0.01123 0.0
C1454 C 0.27263 0.31821 0.05187 0.0
C1455 C 0.24673 0.30116 0.15364 0.0
N1456 N 0.31377 0.30691 0.02704 0.0
N1457 N 0.26548 0.29531 0.13838 0.0
H1458 H 0.77449 0.07861 0.08745 0.0
H1459 H 0.70721 0.92611 0.01352 0.0
H1460 H 0.71679 0.04217 0.95698 0.0
H1461 H 0.76479 0.96416 0.14378 0.0
H1462 H 0.70727 0.96721 0.99706 0.0
H1463 H 0.76823 0.03584 0.11339 0.0
C1464 C 0.7604 0.06152 0.06439 0.0
C1465 C 0.74649 0.06397 0.01935 0.0
C1466 C 0.71973 0.96648 0.02952 0.0
C1467 C 0.73897 0.01475 0.04908 0.0
C1468 C 0.7196 0.943 0.03915 0.0
C1469 C 0.73621 0.94175 0.07975 0.0
C1470 C 0.73654 0.98885 0.06085 0.0
C1471 C 0.75202 0.96432 0.11136 0.0
C1472 C 0.75674 0.03706 0.07934 0.0
C1473 C 0.72799 0.04112 0.99182 0.0
N1474 N 0.75189 0.9869 0.10104 0.0
N1475 N 0.72495 0.01746 0.00673 0.0
H1476 H 0.98853 0.69061 0.9589 0.0
H1477 H 0.08541 0.77704 0.18572 0.0
H1478 H 0.95469 0.70838 0.10064 0.0
H1479 H 0.09432 0.81129 0.02072 0.0
H1480 H 0.04086 0.74375 0.16073 0.0
H1481 H 0.03181 0.72673 0.98555 0.0
C1482 C 0.99025 0.70206 0.99575 0.0
C1483 C 0.96806 0.69675 0.02738 0.0
C1484 C 0.05278 0.75871 0.1304 0.0
C1485 C 0.01738 0.73721 0.05889 0.0
C1486 C 0.07825 0.77795 0.14452 0.0
C1487 C 0.09422 0.79746 0.10551 0.0
C1488 C 0.04339 0.75833 0.07638 0.0
C1489 C 0.08348 0.79655 0.05212 0.0
C1490 C 1.01485 0.72262 0.01069 0.0
C1491 C 0.97135 0.71207 0.07496 0.0
N1492 N 0.05894 0.77712 0.03892 0.0
N1493 N 0.99571 0.73149 0.08986 0.0
H1494 H 0.33383 0.23437 0.48244 0.0
H1495 H 0.26903 0.32036 0.39056 0.0
H1496 H 0.29564 0.22517 0.32286 0.0
H1497 H 0.31253 0.33186 0.54298 0.0
H1498 H 0.277 0.2845 0.36536 0.0
H1499 H 0.32422 0.26887 0.50654 0.0
C1500 C 0.32324 0.23945 0.45257 0.0
C1501 C 0.31554 0.22677 0.4005 0.0
C1502 C 0.28482 0.2949 0.40435 0.0
C1503 C 0.30476 0.26672 0.42761 0.0
C1504 C 0.28015 0.31523 0.41879 0.0
C1505 C 0.28975 0.32874 0.4694 0.0
C1506 C 0.29935 0.28823 0.44076 0.0
C1507 C 0.30465 0.32187 0.50381 0.0
C1508 C 0.31791 0.25933 0.46621 0.0
C1509 C 0.30225 0.23459 0.3632 0.0
N1510 N 0.30887 0.30205 0.48908 0.0
N1511 N 0.29727 0.25404 0.37747 0.0
H1512 H 0.68801 0.98497 0.52985 0.0
H1513 H 0.79741 0.06425 0.29598 0.0
H1514 H 0.7042 0.94922 0.38966 0.0
H1515 H 0.78142 0.10218 0.43241 0.0
H1516 H 0.76476 0.0218 0.33346 0.0
H1517 H 0.72251 0.02803 0.49716 0.0
C1518 C 0.69874 0.98621 0.492 0.0
C1519 C 0.69356 0.96349 0.46274 0.0
C1520 C 0.76838 0.03935 0.35543 0.0
C1521 C 0.73308 0.01253 0.42537 0.0
C1522 C 0.78704 0.06361 0.33399 0.0
C1523 C 0.79198 0.0868 0.3608 0.0
C1524 C 0.75428 0.03812 0.40396 0.0
C1525 C 0.77827 0.08478 0.4105 0.0
C1526 C 0.71855 0.01075 0.47361 0.0
C1527 C 0.70803 0.96617 0.41413 0.0
N1528 N 0.75987 0.06086 0.43025 0.0
N1529 N 0.72714 0.99019 0.39706 0.0
H1530 H 0.95406 0.72757 0.31133 0.0
H1531 H 0.04221 0.70509 0.53537 0.0
H1532 H 0.9243 0.6842 0.46546 0.0
H1533 H 0.07431 0.75247 0.3875 0.0
H1534 H 0.99857 0.69556 0.50743 0.0
H1535 H 0.99792 0.73584 0.33597 0.0
C1536 C 0.9567 0.71965 0.35018 0.0
C1537 C 0.93541 0.70514 0.38637 0.0
C1538 C 1.0151 0.70811 0.48096 0.0
C1539 C 0.9856 0.71459 0.41485 0.0
C1540 C 0.04005 0.71349 0.49691 0.0
C1541 C 0.062 0.73022 0.4646 0.0
C1542 C 1.01191 0.71927 0.43167 0.0
C1543 C 0.05796 0.74016 0.4145 0.0
C1544 C 0.98178 0.72449 0.36432 0.0
C1545 C 0.94012 0.69572 0.43655 0.0
N1546 N 0.03341 0.73467 0.39965 0.0
N1547 N 0.96464 0.70056 0.44918 0.0
H1548 H 0.69052 0.7168 0.04223 0.0
H1549 H 0.81214 0.75852 0.83544 0.0
H1550 H 0.70788 0.76958 0.90319 0.0
H1551 H 0.79918 0.71299 0.98612 0.0
H1552 H 0.77212 0.75992 0.85486 0.0
H1553 H 0.72786 0.71175 0.01693 0.0
C1554 C 0.70214 0.72723 0.00619 0.0
C1555 C 0.69648 0.74409 0.97561 0.0
C1556 C 0.77798 0.74953 0.88355 0.0
C1557 C 0.73929 0.73837 0.94587 0.0
C1558 C 0.80091 0.74883 0.87266 0.0
C1559 C 0.80919 0.73575 0.90939 0.0
C1560 C 0.76311 0.73702 0.93148 0.0
C1561 C 0.79349 0.72309 0.95632 0.0
C1562 C 0.72355 0.72443 0.99179 0.0
C1563 C 0.71203 0.75691 0.92875 0.0
N1564 N 0.7713 0.72413 0.9661 0.0
N1565 N 0.73283 0.75392 0.91544 0.0
H1566 H 0.30281 0.08741 0.97896 0.0
H1567 H 0.27986 0.95184 0.88515 0.0
H1568 H 0.33862 0.08456 0.82254 0.0
H1569 H 0.31639 0.98211 0.04508 0.0
H1570 H 0.28993 0.99627 0.85786 0.0
H1571 H 0.29579 0.04411 1.00215 0.0
C1572 C 0.3095 0.07807 0.94951 0.0
C1573 C 0.32173 0.0903 0.89869 0.0
C1574 C 0.29568 0.99302 0.89888 0.0
C1575 C 0.31232 0.03989 0.92449 0.0
C1576 C 0.28987 0.96781 0.9145 0.0
C1577 C 0.29658 0.96328 0.96807 0.0
C1578 C 0.30774 0.01352 0.93766 0.0
C1579 C 0.31019 0.98469 0.00408 0.0
C1580 C 0.30518 0.05317 0.96281 0.0
C1581 C 0.32877 0.07614 0.86174 0.0
N1582 N 0.31483 1.00883 0.98876 0.0
N1583 N 0.32375 0.05162 0.87515 0.0
H1584 H 0.08049 0.32367 0.88465 0.0
H1585 H 0.92944 0.23144 0.96639 0.0
H1586 H 0.04294 0.33693 0.02529 0.0
H1587 H 0.96732 0.2138 0.8322 0.0
H1588 H 0.96983 0.2728 0.98176 0.0
H1589 H 0.03814 0.28627 0.85707 0.0
C1590 C 0.0633 0.31867 0.90972 0.0
C1591 C 0.06534 0.33268 0.95867 0.0
C1592 C 0.9693 0.25998 0.94869 0.0
C1593 C 0.01689 0.29043 0.92719 0.0
C1594 C 0.94616 0.23639 0.93968 0.0
C1595 C 0.94496 0.21906 0.89797 0.0
C1596 C 0.9915 0.26639 0.9158 0.0
C1597 C 0.96745 0.22639 0.86531 0.0
C1598 C 0.03914 0.29744 0.89392 0.0
C1599 C 0.04235 0.32623 0.98826 0.0
N1600 N 0.98982 0.24945 0.87503 0.0
N1601 N 0.01916 0.30538 0.97258 0.0
H1602 H 0.74363 0.81554 0.55099 0.0
H1603 H 0.74364 0.68446 0.63205 0.0
H1604 H 0.6996 0.76861 0.69314 0.0
H1605 H 0.75063 0.71216 0.46245 0.0
H1606 H 0.7352 0.71951 0.66319 0.0
H1607 H 0.75414 0.78183 0.52563 0.0
C1608 C 0.73598 0.79814 0.5768 0.0
C1609 C 0.72028 0.79489 0.62394 0.0
C1610 C 0.73844 0.71773 0.61912 0.0
C1611 C 0.73304 0.75647 0.5957 0.0
C1612 C 0.74322 0.69785 0.60149 0.0
C1613 C 0.74716 0.69523 0.54452 0.0
C1614 C 0.73827 0.73529 0.57943 0.0
C1615 C 0.74682 0.7131 0.50639 0.0
C1616 C 0.74219 0.77897 0.56239 0.0
C1617 C 0.71187 0.77218 0.65669 0.0
N1618 N 0.74261 0.73248 0.5245 0.0
N1619 N 0.71834 0.75383 0.64193 0.0
H1620 H 0.21651 0.93141 0.53634 0.0
H1621 H 0.34166 0.06262 0.6302 0.0
H1622 H 0.25981 0.93211 0.68341 0.0
H1623 H 0.3277 0.03927 0.45705 0.0
H1624 H 0.30635 0.01849 0.65719 0.0
H1625 H 0.25216 0.97501 0.51238 0.0
C1626 C 0.23345 0.94042 0.56353 0.0
C1627 C 0.23494 0.92755 0.61195 0.0
C1628 C 0.3113 0.02308 0.61333 0.0
C1629 C 0.27543 0.97819 0.58545 0.0
C1630 C 0.33134 0.0481 0.59803 0.0
C1631 C 0.33783 0.05426 0.54138 0.0
C1632 C 0.29729 1.00457 0.57144 0.0
C1633 C 0.32372 0.03504 0.50106 0.0
C1634 C 0.2537 0.96548 0.54989 0.0
C1635 C 0.25729 0.9411 0.64619 0.0
N1636 N 0.3039 0.01114 0.51674 0.0
N1637 N 0.27655 0.9657 0.63247 0.0
H1638 H 0.96739 0.30226 0.58814 0.0
H1639 H 0.09158 0.28211 0.56041 0.0
H1640 H 0.97549 0.25365 0.46394 0.0
H1641 H 0.09462 0.34627 0.65377 0.0
H1642 H 0.04682 0.26851 0.53321 0.0
H1643 H 1.01199 0.31607 0.62092 0.0
C1644 C 0.97843 0.29448 0.56776 0.0
C1645 C 0.96751 0.27671 0.52316 0.0
C1646 C 0.05724 0.2856 0.55962 0.0
C1647 C 0.01821 0.29193 0.56115 0.0
C1648 C 0.08295 0.29351 0.57493 0.0
C1649 C 0.09717 0.31561 0.60898 0.0
C1650 C 0.04533 0.29967 0.57869 0.0
C1651 C 0.08444 0.32903 0.62776 0.0
C1652 C 1.00382 0.30226 0.58667 0.0
C1653 C 0.98263 0.26687 0.49919 0.0
N1654 N 0.05926 0.32088 0.61229 0.0
N1655 N 1.00706 0.27458 0.51842 0.0
loop_
_geom_bond_atom_site_label_1
_geom_bond_atom_site_label_2
_geom_bond_distance
_geom_bond_site_symmetry_2
_ccdc_geom_bond_type
Tb0 N29 2.617 . S
Tb0 N35 2.572 . S
Tb0 O44 2.465 . S
Tb0 O45 2.387 . S
Tb0 O47 2.428 . S
Tb0 O48 2.308 . S
Tb0 O52 2.349 . S
Tb0 O55 2.393 1_554 S
Tb0 C64 2.802 . S
C1 N2 1.379 . S
C1 C4 1.416 . S
C1 C8 1.424 . S
N2 C1 1.379 . S
N2 C5 1.334 . S
N2 Tb11 2.617 . S
C3 C5 1.390 . S
C3 C6 1.339 . S
C3 H23 0.930 . S
C4 C1 1.416 . S
C4 C6 1.416 . S
C4 C10 1.448 . S
C5 N2 1.334 . S
C5 C3 1.390 . S
C5 H16 0.930 . S
C6 C3 1.339 . S
C6 C4 1.416 . S
C6 H27 0.930 . S
C7 C8 1.413 1_556 S
C7 C9 1.427 . S
C7 C13 1.416 . S
C8 C1 1.424 . S
C8 C7 1.413 1_554 S
C8 N12 1.361 . S
C9 C7 1.427 . S
C9 C10 1.328 1_556 S
C9 H24 0.929 . S
C10 C4 1.448 . S
C10 C9 1.328 1_554 S
C10 H25 0.930 . S
Tb11 N2 2.617 . S
Tb11 N12 2.572 . S
Tb11 O46 2.349 . S
Tb11 O49 2.393 . S
Tb11 O50 2.465 . S
Tb11 O51 2.387 . S
Tb11 O53 2.428 . S
Tb11 O54 2.308 . S
Tb11 C75 2.802 . S
N12 C8 1.361 . S
N12 Tb11 2.572 . S
N12 C14 1.340 1_554 S
C13 C7 1.416 . S
C13 C15 1.332 . S
C13 H21 0.931 . S
C14 N12 1.340 1_556 S
C14 C15 1.407 . S
C14 H20 0.930 . S
C15 C13 1.332 . S
C15 C14 1.407 . S
C15 H17 0.929 . S
H16 C5 0.930 . S
H17 C15 0.929 . S
H18 C33 0.915 1_556 S
H19 C40 0.929 . S
H20 C14 0.930 . S
H21 C13 0.931 . S
H22 C36 0.930 . S
H23 C3 0.930 . S
H24 C9 0.929 . S
H25 C10 0.930 . S
H26 C31 0.930 . S
H27 C6 0.930 . S
H28 C39 0.931 . S
N29 Tb0 2.617 . S
N29 C30 1.379 . S
N29 C33 1.353 . S
C30 N29 1.379 . S
C30 C32 1.416 . S
C30 C38 1.424 . S
C31 H26 0.930 . S
C31 C33 1.387 1_556 S
C31 C34 1.339 1_556 S
C32 C30 1.416 . S
C32 C34 1.416 . S
C32 C65 1.448 . S
C33 H18 0.915 1_554 S
C33 N29 1.353 . S
C33 C31 1.387 1_554 S
C34 C31 1.339 1_554 S
C34 C32 1.416 . S
C34 H41 0.930 . S
N35 Tb0 2.572 . S
N35 C36 1.340 . S
N35 C38 1.361 . S
C36 H22 0.930 . S
C36 N35 1.340 . S
C36 C40 1.407 . S
C37 C38 1.413 . S
C37 C39 1.416 . S
C37 C66 1.427 . S
C38 C30 1.424 . S
C38 N35 1.361 . S
C38 C37 1.413 . S
C39 H28 0.931 . S
C39 C37 1.416 . S
C39 C40 1.332 . S
C40 H19 0.929 . S
C40 C36 1.407 . S
C40 C39 1.332 . S
H41 C34 0.930 . S
H42 C65 0.930 . S
H43 C66 0.929 . S
O44 Tb0 2.465 . S
O44 C64 1.264 . S
O45 Tb0 2.387 . S
O45 C56 1.264 . S
O46 Tb11 2.349 . S
O46 C56 1.243 . S
O47 Tb0 2.428 . S
O47 C64 1.256 . S
O48 Tb0 2.308 . S
O48 C63 1.266 . S
O49 Tb11 2.393 . S
O49 C63 1.248 . S
O50 Tb11 2.465 . S
O50 C75 1.264 . S
O51 Tb11 2.387 . S
O51 C67 1.264 . S
O52 Tb0 2.349 . S
O52 C67 1.243 . S
O53 Tb11 2.428 . S
O53 C75 1.256 . S
O54 Tb11 2.308 . S
O54 C74 1.266 1_554 S
O55 Tb0 2.393 1_556 S
O55 C74 1.248 . S
C56 O45 1.264 . S
C56 O46 1.243 . S
C57 C60 1.399 1_554 S
C57 C62 1.383 . S
C57 C64 1.496 . S
C58 C59 1.399 . S
C58 C62 1.389 . S
C59 C58 1.399 . S
C59 C61 1.380 1_554 S
C59 H76 0.929 . S
C60 C57 1.399 1_556 S
C60 C61 1.392 . S
C60 H77 0.929 . S
C61 C59 1.380 1_556 S
C61 C60 1.392 . S
C61 H78 0.929 . S
C62 C57 1.383 . S
C62 C58 1.389 . S
C62 H79 0.931 . S
C63 O48 1.266 . S
C63 O49 1.248 . S
C64 Tb0 2.802 . S
C64 O44 1.264 . S
C64 O47 1.256 . S
C64 C57 1.496 . S
C65 C32 1.448 . S
C65 H42 0.930 . S
C65 C66 1.328 . S
C66 C37 1.427 . S
C66 H43 0.929 . S
C66 C65 1.328 . S
C67 O51 1.264 . S
C67 O52 1.243 . S
C68 C71 1.399 . S
C68 C72 1.383 . S
C68 C75 1.496 . S
C69 C70 1.399 . S
C69 C72 1.389 . S
C70 C69 1.399 . S
C70 C73 1.380 . S
C70 H80 0.929 . S
C71 C68 1.399 . S
C71 C73 1.392 . S
C71 H81 0.929 . S
C72 C68 1.383 . S
C72 C69 1.389 . S
C72 H82 0.931 . S
C73 C70 1.380 . S
C73 C71 1.392 . S
C73 H83 0.929 . S
C74 O54 1.266 1_556 S
C74 O55 1.248 . S
C75 Tb11 2.802 . S
C75 O50 1.264 . S
C75 O53 1.256 . S
C75 C68 1.496 . S
H76 C59 0.929 . S
H77 C60 0.929 . S
H78 C61 0.929 . S
H79 C62 0.931 . S
H80 C70 0.929 . S
H81 C71 0.929 . S
H82 C72 0.931 . S
H83 C73 0.929 . S
Tb84 N113 2.617 . S
Tb84 N119 2.572 . S
Tb84 O128 2.465 . S
Tb84 O129 2.387 . S
Tb84 O131 2.428 . S
Tb84 O132 2.308 . S
Tb84 O136 2.349 . S
Tb84 O139 2.393 1_554 S
Tb84 C148 2.802 . S
C85 N86 1.379 . S
C85 C88 1.416 . S
C85 C92 1.424 . S
N86 C85 1.379 . S
N86 C89 1.334 . S
N86 Tb95 2.617 . S
C87 C89 1.390 . S
C87 C90 1.339 . S
C87 H107 0.930 . S
C88 C85 1.416 . S
C88 C90 1.416 . S
C88 C94 1.448 . S
C89 N86 1.334 . S
C89 C87 1.390 . S
C89 H100 0.930 . S
C90 C87 1.339 . S
C90 C88 1.416 . S
C90 H111 0.930 . S
C91 C92 1.413 1_556 S
C91 C93 1.427 . S
C91 C97 1.416 . S
C92 C85 1.424 . S
C92 C91 1.413 1_554 S
C92 N96 1.361 . S
C93 C91 1.427 . S
C93 C94 1.328 1_556 S
C93 H108 0.929 . S
C94 C88 1.448 . S
C94 C93 1.328 1_554 S
C94 H109 0.930 . S
Tb95 N86 2.617 . S
Tb95 N96 2.572 . S
Tb95 O130 2.349 . S
Tb95 O133 2.393 . S
Tb95 O134 2.465 . S
Tb95 O135 2.387 . S
Tb95 O137 2.428 . S
Tb95 O138 2.308 . S
Tb95 C159 2.802 . S
N96 C92 1.361 . S
N96 Tb95 2.572 . S
N96 C98 1.340 1_554 S
C97 C91 1.416 . S
C97 C99 1.332 . S
C97 H105 0.931 . S
C98 N96 1.340 1_556 S
C98 C99 1.407 . S
C98 H104 0.930 . S
C99 C97 1.332 . S
C99 C98 1.407 . S
C99 H101 0.929 . S
H100 C89 0.930 . S
H101 C99 0.929 . S
H102 C117 0.915 1_556 S
H103 C124 0.929 . S
H104 C98 0.930 . S
H105 C97 0.931 . S
H106 C120 0.930 . S
H107 C87 0.930 . S
H108 C93 0.929 . S
H109 C94 0.930 . S
H110 C115 0.930 . S
H111 C90 0.930 . S
H112 C123 0.931 . S
N113 Tb84 2.617 . S
N113 C114 1.379 . S
N113 C117 1.352 . S
C114 N113 1.379 . S
C114 C116 1.416 . S
C114 C122 1.424 . S
C115 H110 0.930 . S
C115 C117 1.387 1_556 S
C115 C118 1.339 1_556 S
C116 C114 1.416 . S
C116 C118 1.416 . S
C116 C149 1.448 . S
C117 H102 0.915 1_554 S
C117 N113 1.352 . S
C117 C115 1.387 1_554 S
C118 C115 1.339 1_554 S
C118 C116 1.416 . S
C118 H125 0.930 . S
N119 Tb84 2.572 . S
N119 C120 1.340 . S
N119 C122 1.361 . S
C120 H106 0.930 . S
C120 N119 1.340 . S
C120 C124 1.407 . S
C121 C122 1.413 . S
C121 C123 1.416 . S
C121 C150 1.427 . S
C122 C114 1.424 . S
C122 N119 1.361 . S
C122 C121 1.413 . S
C123 H112 0.931 . S
C123 C121 1.416 . S
C123 C124 1.332 . S
C124 H103 0.929 . S
C124 C120 1.407 . S
C124 C123 1.332 . S
H125 C118 0.930 . S
H126 C149 0.930 . S
H127 C150 0.929 . S
O128 Tb84 2.465 . S
O128 C148 1.264 . S
O129 Tb84 2.387 . S
O129 C140 1.264 . S
O130 Tb95 2.349 . S
O130 C140 1.243 . S
O131 Tb84 2.428 . S
O131 C148 1.256 . S
O132 Tb84 2.308 . S
O132 C147 1.266 . S
O133 Tb95 2.393 . S
O133 C147 1.248 . S
O134 Tb95 2.465 . S
O134 C159 1.264 . S
O135 Tb95 2.387 . S
O135 C151 1.264 . S
O136 Tb84 2.349 . S
O136 C151 1.243 . S
O137 Tb95 2.428 . S
O137 C159 1.256 . S
O138 Tb95 2.308 . S
O138 C158 1.266 1_554 S
O139 Tb84 2.393 1_556 S
O139 C158 1.248 . S
C140 O129 1.264 . S
C140 O130 1.243 . S
C141 C144 1.399 1_554 S
C141 C146 1.383 . S
C141 C148 1.496 . S
C142 C143 1.399 . S
C142 C146 1.389 . S
C143 C142 1.399 . S
C143 C145 1.380 1_554 S
C143 H160 0.929 . S
C144 C141 1.399 1_556 S
C144 C145 1.392 . S
C144 H161 0.929 . S
C145 C143 1.380 1_556 S
C145 C144 1.392 . S
C145 H162 0.929 . S
C146 C141 1.383 . S
C146 C142 1.389 . S
C146 H163 0.931 . S
C147 O132 1.266 . S
C147 O133 1.248 . S
C148 Tb84 2.802 . S
C148 O128 1.264 . S
C148 O131 1.256 . S
C148 C141 1.496 . S
C149 C116 1.448 . S
C149 H126 0.930 . S
C149 C150 1.328 . S
C150 C121 1.427 . S
C150 H127 0.929 . S
C150 C149 1.328 . S
C151 O135 1.264 . S
C151 O136 1.243 . S
C152 C155 1.399 . S
C152 C156 1.383 . S
C152 C159 1.496 . S
C153 C154 1.399 . S
C153 C156 1.389 . S
C154 C153 1.399 . S
C154 C157 1.380 . S
C154 H164 0.929 . S
C155 C152 1.399 . S
C155 C157 1.392 . S
C155 H165 0.929 . S
C156 C152 1.383 . S
C156 C153 1.389 . S
C156 H166 0.931 . S
C157 C154 1.380 . S
C157 C155 1.392 . S
C157 H167 0.929 . S
C158 O138 1.266 1_556 S
C158 O139 1.248 . S
C159 Tb95 2.802 . S
C159 O134 1.264 . S
C159 O137 1.256 . S
C159 C152 1.496 . S
H160 C143 0.929 . S
H161 C144 0.929 . S
H162 C145 0.929 . S
H163 C146 0.931 . S
H164 C154 0.929 . S
H165 C155 0.929 . S
H166 C156 0.931 . S
H167 C157 0.929 . S
Tb168 N197 2.617 . S
Tb168 N203 2.572 . S
Tb168 O212 2.465 . S
Tb168 O213 2.387 . S
Tb168 O215 2.428 . S
Tb168 O216 2.308 . S
Tb168 O220 2.349 . S
Tb168 O223 2.393 1_554 S
Tb168 C232 2.802 . S
C169 N170 1.379 . S
C169 C172 1.416 . S
C169 C176 1.424 . S
N170 C169 1.379 . S
N170 C173 1.334 . S
N170 Tb179 2.617 . S
C171 C173 1.390 . S
C171 C174 1.339 . S
C171 H191 0.930 . S
C172 C169 1.416 . S
C172 C174 1.416 . S
C172 C178 1.448 . S
C173 N170 1.334 . S
C173 C171 1.390 . S
C173 H184 0.930 . S
C174 C171 1.339 . S
C174 C172 1.416 . S
C174 H195 0.930 . S
C175 C176 1.413 1_556 S
C175 C177 1.427 . S
C175 C181 1.416 . S
C176 C169 1.424 . S
C176 C175 1.413 1_554 S
C176 N180 1.361 . S
C177 C175 1.427 . S
C177 C178 1.328 1_556 S
C177 H192 0.929 . S
C178 C172 1.448 . S
C178 C177 1.328 1_554 S
C178 H193 0.930 . S
Tb179 N170 2.617 . S
Tb179 N180 2.572 . S
Tb179 O214 2.349 . S
Tb179 O217 2.393 . S
Tb179 O218 2.465 . S
Tb179 O219 2.387 . S
Tb179 O221 2.428 . S
Tb179 O222 2.308 . S
Tb179 C243 2.802 . S
N180 C176 1.361 . S
N180 Tb179 2.572 . S
N180 C182 1.340 1_554 S
C181 C175 1.416 . S
C181 C183 1.332 . S
C181 H189 0.931 . S
C182 N180 1.340 1_556 S
C182 C183 1.407 . S
C182 H188 0.930 . S
C183 C181 1.332 . S
C183 C182 1.407 . S
C183 H185 0.929 . S
H184 C173 0.930 . S
H185 C183 0.929 . S
H186 C201 0.915 1_556 S
H187 C208 0.929 . S
H188 C182 0.930 . S
H189 C181 0.931 . S
H190 C204 0.930 . S
H191 C171 0.930 . S
H192 C177 0.929 . S
H193 C178 0.930 . S
H194 C199 0.930 . S
H195 C174 0.930 . S
H196 C207 0.931 . S
N197 Tb168 2.617 . S
N197 C198 1.379 . S
N197 C201 1.352 . S
C198 N197 1.379 . S
C198 C200 1.416 . S
C198 C206 1.424 . S
C199 H194 0.930 . S
C199 C201 1.387 1_556 S
C199 C202 1.339 1_556 S
C200 C198 1.416 . S
C200 C202 1.416 . S
C200 C233 1.448 . S
C201 H186 0.915 1_554 S
C201 N197 1.352 . S
C201 C199 1.387 1_554 S
C202 C199 1.339 1_554 S
C202 C200 1.416 . S
C202 H209 0.930 . S
N203 Tb168 2.572 . S
N203 C204 1.340 . S
N203 C206 1.361 . S
C204 H190 0.930 . S
C204 N203 1.340 . S
C204 C208 1.407 . S
C205 C206 1.413 . S
C205 C207 1.416 . S
C205 C234 1.427 . S
C206 C198 1.424 . S
C206 N203 1.361 . S
C206 C205 1.413 . S
C207 H196 0.931 . S
C207 C205 1.416 . S
C207 C208 1.332 . S
C208 H187 0.929 . S
C208 C204 1.407 . S
C208 C207 1.332 . S
H209 C202 0.930 . S
H210 C233 0.930 . S
H211 C234 0.929 . S
O212 Tb168 2.465 . S
O212 C232 1.264 . S
O213 Tb168 2.387 . S
O213 C224 1.264 . S
O214 Tb179 2.349 . S
O214 C224 1.243 . S
O215 Tb168 2.428 . S
O215 C232 1.256 . S
O216 Tb168 2.308 . S
O216 C231 1.266 . S
O217 Tb179 2.393 . S
O217 C231 1.248 . S
O218 Tb179 2.465 . S
O218 C243 1.264 . S
O219 Tb179 2.387 . S
O219 C235 1.264 . S
O220 Tb168 2.349 . S
O220 C235 1.243 . S
O221 Tb179 2.428 . S
O221 C243 1.256 . S
O222 Tb179 2.308 . S
O222 C242 1.266 1_554 S
O223 Tb168 2.393 1_556 S
O223 C242 1.248 . S
C224 O213 1.264 . S
C224 O214 1.243 . S
C225 C228 1.399 1_554 S
C225 C230 1.383 . S
C225 C232 1.496 . S
C226 C227 1.399 . S
C226 C230 1.389 . S
C227 C226 1.399 . S
C227 C229 1.380 1_554 S
C227 H244 0.929 . S
C228 C225 1.399 1_556 S
C228 C229 1.392 . S
C228 H245 0.929 . S
C229 C227 1.380 1_556 S
C229 C228 1.392 . S
C229 H246 0.929 . S
C230 C225 1.383 . S
C230 C226 1.389 . S
C230 H247 0.931 . S
C231 O216 1.266 . S
C231 O217 1.248 . S
C232 Tb168 2.802 . S
C232 O212 1.264 . S
C232 O215 1.256 . S
C232 C225 1.496 . S
C233 C200 1.448 . S
C233 H210 0.930 . S
C233 C234 1.328 . S
C234 C205 1.427 . S
C234 H211 0.929 . S
C234 C233 1.328 . S
C235 O219 1.264 . S
C235 O220 1.243 . S
C236 C239 1.399 . S
C236 C240 1.383 . S
C236 C243 1.496 . S
C237 C238 1.399 . S
C237 C240 1.389 . S
C238 C237 1.399 . S
C238 C241 1.380 . S
C238 H248 0.929 . S
C239 C236 1.399 . S
C239 C241 1.392 . S
C239 H249 0.929 . S
C240 C236 1.383 . S
C240 C237 1.389 . S
C240 H250 0.931 . S
C241 C238 1.380 . S
C241 C239 1.392 . S
C241 H251 0.929 . S
C242 O222 1.266 1_556 S
C242 O223 1.248 . S
C243 Tb179 2.802 . S
C243 O218 1.264 . S
C243 O221 1.256 . S
C243 C236 1.496 . S
H244 C227 0.929 . S
H245 C228 0.929 . S
H246 C229 0.929 . S
H247 C230 0.931 . S
H248 C238 0.929 . S
H249 C239 0.929 . S
H250 C240 0.931 . S
H251 C241 0.929 . S
Tb252 N281 2.617 . S
Tb252 N287 2.572 . S
Tb252 O296 2.465 . S
Tb252 O297 2.387 . S
Tb252 O299 2.428 . S
Tb252 O300 2.308 . S
Tb252 O304 2.349 . S
Tb252 O307 2.393 . S
Tb252 C316 2.802 . S
C253 N254 1.379 . S
C253 C256 1.416 . S
C253 C260 1.424 . S
N254 C253 1.379 . S
N254 C257 1.334 . S
N254 Tb263 2.617 . S
C255 C257 1.390 . S
C255 C258 1.339 . S
C255 H275 0.930 . S
C256 C253 1.416 . S
C256 C258 1.416 . S
C256 C262 1.448 . S
C257 N254 1.334 . S
C257 C255 1.390 . S
C257 H268 0.930 . S
C258 C255 1.339 . S
C258 C256 1.416 . S
C258 H279 0.930 . S
C259 C260 1.413 . S
C259 C261 1.427 . S
C259 C265 1.416 . S
C260 C253 1.424 . S
C260 C259 1.413 . S
C260 N264 1.361 . S
C261 C259 1.427 . S
C261 C262 1.328 . S
C261 H276 0.929 . S
C262 C256 1.448 . S
C262 C261 1.328 . S
C262 H277 0.930 . S
Tb263 N254 2.617 . S
Tb263 N264 2.572 . S
Tb263 O298 2.349 . S
Tb263 O301 2.393 . S
Tb263 O302 2.465 . S
Tb263 O303 2.387 . S
Tb263 O305 2.428 . S
Tb263 O306 2.308 . S
Tb263 C327 2.802 . S
N264 C260 1.361 . S
N264 Tb263 2.572 . S
N264 C266 1.340 . S
C265 C259 1.416 . S
C265 C267 1.332 . S
C265 H273 0.931 . S
C266 N264 1.340 . S
C266 C267 1.407 . S
C266 H272 0.930 . S
C267 C265 1.332 . S
C267 C266 1.407 . S
C267 H269 0.929 . S
H268 C257 0.930 . S
H269 C267 0.929 . S
H270 C285 0.930 . S
H271 C292 0.929 . S
H272 C266 0.930 . S
H273 C265 0.931 . S
H274 C288 0.930 . S
H275 C255 0.930 . S
H276 C261 0.929 . S
H277 C262 0.930 . S
H278 C283 0.930 . S
H279 C258 0.930 . S
H280 C291 0.931 . S
N281 Tb252 2.617 . S
N281 C282 1.379 . S
N281 C285 1.334 . S
C282 N281 1.379 . S
C282 C284 1.416 . S
C282 C290 1.424 . S
C283 H278 0.930 . S
C283 C285 1.390 . S
C283 C286 1.339 . S
C284 C282 1.416 . S
C284 C286 1.416 . S
C284 C317 1.448 . S
C285 H270 0.930 . S
C285 N281 1.334 . S
C285 C283 1.390 . S
C286 C283 1.339 . S
C286 C284 1.416 . S
C286 H293 0.930 . S
N287 Tb252 2.572 . S
N287 C288 1.340 . S
N287 C290 1.361 . S
C288 H274 0.930 . S
C288 N287 1.340 . S
C288 C292 1.407 . S
C289 C290 1.413 . S
C289 C291 1.416 . S
C289 C318 1.427 . S
C290 C282 1.424 . S
C290 N287 1.361 . S
C290 C289 1.413 . S
C291 H280 0.931 . S
C291 C289 1.416 . S
C291 C292 1.332 . S
C292 H271 0.929 . S
C292 C288 1.407 . S
C292 C291 1.332 . S
H293 C286 0.930 . S
H294 C317 0.930 . S
H295 C318 0.929 . S
O296 Tb252 2.465 . S
O296 C316 1.264 . S
O297 Tb252 2.387 . S
O297 C308 1.264 . S
O298 Tb263 2.349 . S
O298 C308 1.243 . S
O299 Tb252 2.428 . S
O299 C316 1.256 . S
O300 Tb252 2.308 . S
O300 C315 1.266 . S
O301 Tb263 2.393 . S
O301 C315 1.248 . S
O302 Tb263 2.465 . S
O302 C327 1.264 . S
O303 Tb263 2.387 . S
O303 C319 1.264 . S
O304 Tb252 2.349 . S
O304 C319 1.243 . S
O305 Tb263 2.428 . S
O305 C327 1.256 . S
O306 Tb263 2.308 . S
O306 C326 1.266 . S
O307 Tb252 2.393 . S
O307 C326 1.248 . S
C308 O297 1.264 . S
C308 O298 1.243 . S
C309 C312 1.399 . S
C309 C314 1.383 . S
C309 C316 1.496 . S
C310 C311 1.399 . S
C310 C314 1.389 . S
C311 C310 1.399 . S
C311 C313 1.380 . S
C311 H328 0.929 . S
C312 C309 1.399 . S
C312 C313 1.392 . S
C312 H329 0.929 . S
C313 C311 1.380 . S
C313 C312 1.392 . S
C313 H330 0.929 . S
C314 C309 1.383 . S
C314 C310 1.389 . S
C314 H331 0.931 . S
C315 O300 1.266 . S
C315 O301 1.248 . S
C316 Tb252 2.802 . S
C316 O296 1.264 . S
C316 O299 1.256 . S
C316 C309 1.496 . S
C317 C284 1.448 . S
C317 H294 0.930 . S
C317 C318 1.328 . S
C318 C289 1.427 . S
C318 H295 0.929 . S
C318 C317 1.328 . S
C319 O303 1.264 . S
C319 O304 1.243 . S
C320 C323 1.399 . S
C320 C324 1.383 . S
C320 C327 1.496 . S
C321 C322 1.399 . S
C321 C324 1.389 . S
C322 C321 1.399 . S
C322 C325 1.380 . S
C322 H332 0.929 . S
C323 C320 1.399 . S
C323 C325 1.392 . S
C323 H333 0.929 . S
C324 C320 1.383 . S
C324 C321 1.389 . S
C324 H334 0.931 . S
C325 C322 1.380 . S
C325 C323 1.392 . S
C325 H335 0.929 . S
C326 O306 1.266 . S
C326 O307 1.248 . S
C327 Tb263 2.802 . S
C327 O302 1.264 . S
C327 O305 1.256 . S
C327 C320 1.496 . S
H328 C311 0.929 . S
H329 C312 0.929 . S
H330 C313 0.929 . S
H331 C314 0.931 . S
H332 C322 0.929 . S
H333 C323 0.929 . S
H334 C324 0.931 . S
H335 C325 0.929 . S
Tb336 N365 2.617 . S
Tb336 N371 2.572 . S
Tb336 O380 2.465 . S
Tb336 O381 2.387 . S
Tb336 O383 2.428 . S
Tb336 O384 2.308 . S
Tb336 O388 2.349 . S
Tb336 O391 2.393 . S
Tb336 C400 2.802 . S
C337 N338 1.379 . S
C337 C340 1.416 . S
C337 C344 1.424 . S
N338 C337 1.379 . S
N338 C341 1.334 . S
N338 Tb347 2.617 . S
C339 C341 1.390 . S
C339 C342 1.339 . S
C339 H359 0.930 . S
C340 C337 1.416 . S
C340 C342 1.416 . S
C340 C346 1.448 . S
C341 N338 1.334 . S
C341 C339 1.390 . S
C341 H352 0.930 . S
C342 C339 1.339 . S
C342 C340 1.416 . S
C342 H363 0.930 . S
C343 C344 1.413 . S
C343 C345 1.427 . S
C343 C349 1.416 . S
C344 C337 1.424 . S
C344 C343 1.413 . S
C344 N348 1.361 . S
C345 C343 1.427 . S
C345 C346 1.328 . S
C345 H360 0.929 . S
C346 C340 1.448 . S
C346 C345 1.328 . S
C346 H361 0.930 . S
Tb347 N338 2.617 . S
Tb347 N348 2.572 . S
Tb347 O382 2.349 . S
Tb347 O385 2.393 . S
Tb347 O386 2.465 . S
Tb347 O387 2.387 . S
Tb347 O389 2.428 . S
Tb347 O390 2.308 . S
Tb347 C411 2.802 . S
N348 C344 1.361 . S
N348 Tb347 2.572 . S
N348 C350 1.340 . S
C349 C343 1.416 . S
C349 C351 1.332 . S
C349 H357 0.931 . S
C350 N348 1.340 . S
C350 C351 1.407 . S
C350 H356 0.930 . S
C351 C349 1.332 . S
C351 C350 1.407 . S
C351 H353 0.929 . S
H352 C341 0.930 . S
H353 C351 0.929 . S
H354 C369 0.930 . S
H355 C376 0.929 . S
H356 C350 0.930 . S
H357 C349 0.931 . S
H358 C372 0.930 . S
H359 C339 0.930 . S
H360 C345 0.929 . S
H361 C346 0.930 . S
H362 C367 0.930 . S
H363 C342 0.930 . S
H364 C375 0.931 . S
N365 Tb336 2.617 . S
N365 C366 1.379 . S
N365 C369 1.334 . S
C366 N365 1.379 . S
C366 C368 1.416 . S
C366 C374 1.424 . S
C367 H362 0.930 . S
C367 C369 1.390 . S
C367 C370 1.339 . S
C368 C366 1.416 . S
C368 C370 1.416 . S
C368 C401 1.448 . S
C369 H354 0.930 . S
C369 N365 1.334 . S
C369 C367 1.390 . S
C370 C367 1.339 . S
C370 C368 1.416 . S
C370 H377 0.930 . S
N371 Tb336 2.572 . S
N371 C372 1.340 . S
N371 C374 1.361 . S
C372 H358 0.930 . S
C372 N371 1.340 . S
C372 C376 1.407 . S
C373 C374 1.413 . S
C373 C375 1.416 . S
C373 C402 1.427 . S
C374 C366 1.424 . S
C374 N371 1.361 . S
C374 C373 1.413 . S
C375 H364 0.931 . S
C375 C373 1.416 . S
C375 C376 1.332 . S
C376 H355 0.929 . S
C376 C372 1.407 . S
C376 C375 1.332 . S
H377 C370 0.930 . S
H378 C401 0.930 . S
H379 C402 0.929 . S
O380 Tb336 2.465 . S
O380 C400 1.264 . S
O381 Tb336 2.387 . S
O381 C392 1.264 . S
O382 Tb347 2.349 . S
O382 C392 1.243 . S
O383 Tb336 2.428 . S
O383 C400 1.256 . S
O384 Tb336 2.308 . S
O384 C399 1.266 . S
O385 Tb347 2.393 . S
O385 C399 1.248 . S
O386 Tb347 2.465 . S
O386 C411 1.264 . S
O387 Tb347 2.387 . S
O387 C403 1.264 . S
O388 Tb336 2.349 . S
O388 C403 1.243 . S
O389 Tb347 2.428 . S
O389 C411 1.256 . S
O390 Tb347 2.308 . S
O390 C410 1.266 . S
O391 Tb336 2.393 . S
O391 C410 1.248 . S
C392 O381 1.264 . S
C392 O382 1.243 . S
C393 C396 1.399 . S
C393 C398 1.383 . S
C393 C400 1.496 . S
C394 C395 1.399 . S
C394 C398 1.389 . S
C395 C394 1.399 . S
C395 C397 1.380 . S
C395 H412 0.929 . S
C396 C393 1.399 . S
C396 C397 1.392 . S
C396 H413 0.929 . S
C397 C395 1.380 . S
C397 C396 1.392 . S
C397 H414 0.929 . S
C398 C393 1.383 . S
C398 C394 1.389 . S
C398 H415 0.931 . S
C399 O384 1.266 . S
C399 O385 1.248 . S
C400 Tb336 2.802 . S
C400 O380 1.264 . S
C400 O383 1.256 . S
C400 C393 1.496 . S
C401 C368 1.448 . S
C401 H378 0.930 . S
C401 C402 1.328 . S
C402 C373 1.427 . S
C402 H379 0.929 . S
C402 C401 1.328 . S
C403 O387 1.264 . S
C403 O388 1.243 . S
C404 C407 1.399 . S
C404 C408 1.383 . S
C404 C411 1.496 . S
C405 C406 1.399 . S
C405 C408 1.389 . S
C406 C405 1.399 . S
C406 C409 1.380 . S
C406 H416 0.929 . S
C407 C404 1.399 . S
C407 C409 1.392 . S
C407 H417 0.929 . S
C408 C404 1.383 . S
C408 C405 1.389 . S
C408 H418 0.931 . S
C409 C406 1.380 . S
C409 C407 1.392 . S
C409 H419 0.929 . S
C410 O390 1.266 . S
C410 O391 1.248 . S
C411 Tb347 2.802 . S
C411 O386 1.264 . S
C411 O389 1.256 . S
C411 C404 1.496 . S
H412 C395 0.929 . S
H413 C396 0.929 . S
H414 C397 0.929 . S
H415 C398 0.931 . S
H416 C406 0.929 . S
H417 C407 0.929 . S
H418 C408 0.931 . S
H419 C409 0.929 . S
Tb420 N449 2.617 . S
Tb420 N455 2.572 . S
Tb420 O464 2.465 . S
Tb420 O465 2.387 . S
Tb420 O467 2.428 . S
Tb420 O468 2.308 . S
Tb420 O472 2.349 . S
Tb420 O475 2.393 . S
Tb420 C484 2.802 . S
C421 N422 1.379 . S
C421 C424 1.416 . S
C421 C428 1.424 . S
N422 C421 1.379 . S
N422 C425 1.334 . S
N422 Tb431 2.617 . S
C423 C425 1.390 . S
C423 C426 1.339 . S
C423 H443 0.930 . S
C424 C421 1.416 . S
C424 C426 1.416 . S
C424 C430 1.448 . S
C425 N422 1.334 . S
C425 C423 1.390 . S
C425 H436 0.930 . S
C426 C423 1.339 . S
C426 C424 1.416 . S
C426 H447 0.930 . S
C427 C428 1.413 . S
C427 C429 1.427 . S
C427 C433 1.416 . S
C428 C421 1.424 . S
C428 C427 1.413 . S
C428 N432 1.361 . S
C429 C427 1.427 . S
C429 C430 1.328 . S
C429 H444 0.929 . S
C430 C424 1.448 . S
C430 C429 1.328 . S
C430 H445 0.930 . S
Tb431 N422 2.617 . S
Tb431 N432 2.572 . S
Tb431 O466 2.349 . S
Tb431 O469 2.393 . S
Tb431 O470 2.465 . S
Tb431 O471 2.387 . S
Tb431 O473 2.428 . S
Tb431 O474 2.308 . S
Tb431 C495 2.802 . S
N432 C428 1.361 . S
N432 Tb431 2.572 . S
N432 C434 1.340 . S
C433 C427 1.416 . S
C433 C435 1.332 . S
C433 H441 0.931 . S
C434 N432 1.340 . S
C434 C435 1.407 . S
C434 H440 0.930 . S
C435 C433 1.332 . S
C435 C434 1.407 . S
C435 H437 0.929 . S
H436 C425 0.930 . S
H437 C435 0.929 . S
H438 C453 0.930 . S
H439 C460 0.929 . S
H440 C434 0.930 . S
H441 C433 0.931 . S
H442 C456 0.930 . S
H443 C423 0.930 . S
H444 C429 0.929 . S
H445 C430 0.930 . S
H446 C451 0.930 . S
H447 C426 0.930 . S
H448 C459 0.931 . S
N449 Tb420 2.617 . S
N449 C450 1.379 . S
N449 C453 1.334 . S
C450 N449 1.379 . S
C450 C452 1.416 . S
C450 C458 1.424 . S
C451 H446 0.930 . S
C451 C453 1.390 . S
C451 C454 1.339 . S
C452 C450 1.416 . S
C452 C454 1.416 . S
C452 C485 1.448 . S
C453 H438 0.930 . S
C453 N449 1.334 . S
C453 C451 1.390 . S
C454 C451 1.339 . S
C454 C452 1.416 . S
C454 H461 0.930 . S
N455 Tb420 2.572 . S
N455 C456 1.340 . S
N455 C458 1.361 . S
C456 H442 0.930 . S
C456 N455 1.340 . S
C456 C460 1.407 . S
C457 C458 1.413 . S
C457 C459 1.416 . S
C457 C486 1.427 . S
C458 C450 1.424 . S
C458 N455 1.361 . S
C458 C457 1.413 . S
C459 H448 0.931 . S
C459 C457 1.416 . S
C459 C460 1.332 . S
C460 H439 0.929 . S
C460 C456 1.407 . S
C460 C459 1.332 . S
H461 C454 0.930 . S
H462 C485 0.930 . S
H463 C486 0.929 . S
O464 Tb420 2.465 . S
O464 C484 1.264 . S
O465 Tb420 2.387 . S
O465 C476 1.264 . S
O466 Tb431 2.349 . S
O466 C476 1.243 . S
O467 Tb420 2.428 . S
O467 C484 1.256 . S
O468 Tb420 2.308 . S
O468 C483 1.266 . S
O469 Tb431 2.393 . S
O469 C483 1.248 . S
O470 Tb431 2.465 . S
O470 C495 1.264 . S
O471 Tb431 2.387 . S
O471 C487 1.264 . S
O472 Tb420 2.349 . S
O472 C487 1.243 . S
O473 Tb431 2.428 . S
O473 C495 1.256 . S
O474 Tb431 2.308 . S
O474 C494 1.266 . S
O475 Tb420 2.393 . S
O475 C494 1.248 . S
C476 O465 1.264 . S
C476 O466 1.243 . S
C477 C480 1.399 . S
C477 C482 1.383 . S
C477 C484 1.496 . S
C478 C479 1.399 . S
C478 C482 1.389 . S
C479 C478 1.399 . S
C479 C481 1.380 . S
C479 H496 0.929 . S
C480 C477 1.399 . S
C480 C481 1.392 . S
C480 H497 0.929 . S
C481 C479 1.380 . S
C481 C480 1.392 . S
C481 H498 0.929 . S
C482 C477 1.383 . S
C482 C478 1.389 . S
C482 H499 0.931 . S
C483 O468 1.266 . S
C483 O469 1.248 . S
C484 Tb420 2.802 . S
C484 O464 1.264 . S
C484 O467 1.256 . S
C484 C477 1.496 . S
C485 C452 1.448 . S
C485 H462 0.930 . S
C485 C486 1.328 . S
C486 C457 1.427 . S
C486 H463 0.929 . S
C486 C485 1.328 . S
C487 O471 1.264 . S
C487 O472 1.243 . S
C488 C491 1.399 . S
C488 C492 1.383 . S
C488 C495 1.496 . S
C489 C490 1.399 . S
C489 C492 1.389 . S
C490 C489 1.399 . S
C490 C493 1.380 . S
C490 H500 0.929 . S
C491 C488 1.399 . S
C491 C493 1.392 . S
C491 H501 0.929 . S
C492 C488 1.383 . S
C492 C489 1.389 . S
C492 H502 0.931 . S
C493 C490 1.380 . S
C493 C491 1.392 . S
C493 H503 0.929 . S
C494 O474 1.266 . S
C494 O475 1.248 . S
C495 Tb431 2.802 . S
C495 O470 1.264 . S
C495 O473 1.256 . S
C495 C488 1.496 . S
H496 C479 0.929 . S
H497 C480 0.929 . S
H498 C481 0.929 . S
H499 C482 0.931 . S
H500 C490 0.929 . S
H501 C491 0.929 . S
H502 C492 0.931 . S
H503 C493 0.929 . S
Tb504 N533 2.617 . S
Tb504 N539 2.572 . S
Tb504 O548 2.465 . S
Tb504 O549 2.387 . S
Tb504 O551 2.428 . S
Tb504 O552 2.308 . S
Tb504 O556 2.349 . S
Tb504 O559 2.393 . S
Tb504 C568 2.802 . S
C505 N506 1.379 . S
C505 C508 1.416 . S
C505 C512 1.424 . S
N506 C505 1.379 . S
N506 C509 1.353 . S
N506 Tb515 2.617 . S
C507 C509 1.387 1_554 S
C507 C510 1.339 1_554 S
C507 H527 0.930 . S
C508 C505 1.416 . S
C508 C510 1.416 . S
C508 C514 1.448 . S
C509 N506 1.353 . S
C509 C507 1.387 1_556 S
C509 H520 0.915 1_556 S
C510 C507 1.339 1_556 S
C510 C508 1.416 . S
C510 H531 0.930 . S
C511 C512 1.413 . S
C511 C513 1.427 . S
C511 C517 1.416 . S
C512 C505 1.424 . S
C512 C511 1.413 . S
C512 N516 1.361 . S
C513 C511 1.427 . S
C513 C514 1.328 . S
C513 H528 0.929 . S
C514 C508 1.448 . S
C514 C513 1.328 . S
C514 H529 0.930 . S
Tb515 N506 2.617 . S
Tb515 N516 2.572 . S
Tb515 O550 2.349 . S
Tb515 O553 2.393 1_556 S
Tb515 O554 2.465 . S
Tb515 O555 2.387 . S
Tb515 O557 2.428 . S
Tb515 O558 2.308 . S
Tb515 C579 2.802 . S
N516 C512 1.361 . S
N516 Tb515 2.572 . S
N516 C518 1.340 . S
C517 C511 1.416 . S
C517 C519 1.332 . S
C517 H525 0.931 . S
C518 N516 1.340 . S
C518 C519 1.407 . S
C518 H524 0.930 . S
C519 C517 1.332 . S
C519 C518 1.407 . S
C519 H521 0.929 . S
H520 C509 0.915 1_554 S
H521 C519 0.929 . S
H522 C537 0.930 . S
H523 C544 0.929 . S
H524 C518 0.930 . S
H525 C517 0.931 . S
H526 C540 0.930 . S
H527 C507 0.930 . S
H528 C513 0.929 . S
H529 C514 0.930 . S
H530 C535 0.930 . S
H531 C510 0.930 . S
H532 C543 0.931 . S
N533 Tb504 2.617 . S
N533 C534 1.379 . S
N533 C537 1.334 . S
C534 N533 1.379 . S
C534 C536 1.416 . S
C534 C542 1.424 . S
C535 H530 0.930 . S
C535 C537 1.390 . S
C535 C538 1.339 . S
C536 C534 1.416 . S
C536 C538 1.416 . S
C536 C569 1.448 . S
C537 H522 0.930 . S
C537 N533 1.334 . S
C537 C535 1.390 . S
C538 C535 1.339 . S
C538 C536 1.416 . S
C538 H545 0.930 . S
N539 Tb504 2.572 . S
N539 C540 1.340 1_556 S
N539 C542 1.361 . S
C540 H526 0.930 . S
C540 N539 1.340 1_554 S
C540 C544 1.407 . S
C541 C542 1.413 1_554 S
C541 C543 1.416 . S
C541 C570 1.427 . S
C542 C534 1.424 . S
C542 N539 1.361 . S
C542 C541 1.413 1_556 S
C543 H532 0.931 . S
C543 C541 1.416 . S
C543 C544 1.332 . S
C544 H523 0.929 . S
C544 C540 1.407 . S
C544 C543 1.332 . S
H545 C538 0.930 . S
H546 C569 0.930 . S
H547 C570 0.929 . S
O548 Tb504 2.465 . S
O548 C568 1.264 . S
O549 Tb504 2.387 . S
O549 C560 1.264 . S
O550 Tb515 2.349 . S
O550 C560 1.243 . S
O551 Tb504 2.428 . S
O551 C568 1.256 . S
O552 Tb504 2.308 . S
O552 C567 1.266 1_556 S
O553 Tb515 2.393 1_554 S
O553 C567 1.248 . S
O554 Tb515 2.465 . S
O554 C579 1.264 . S
O555 Tb515 2.387 . S
O555 C571 1.264 . S
O556 Tb504 2.349 . S
O556 C571 1.243 . S
O557 Tb515 2.428 . S
O557 C579 1.256 . S
O558 Tb515 2.308 . S
O558 C578 1.266 . S
O559 Tb504 2.393 . S
O559 C578 1.248 . S
C560 O549 1.264 . S
C560 O550 1.243 . S
C561 C564 1.399 . S
C561 C566 1.383 . S
C561 C568 1.496 . S
C562 C563 1.399 . S
C562 C566 1.389 . S
C563 C562 1.399 . S
C563 C565 1.380 . S
C563 H580 0.929 . S
C564 C561 1.399 . S
C564 C565 1.392 . S
C564 H581 0.929 . S
C565 C563 1.380 . S
C565 C564 1.392 . S
C565 H582 0.929 . S
C566 C561 1.383 . S
C566 C562 1.389 . S
C566 H583 0.931 . S
C567 O552 1.266 1_554 S
C567 O553 1.248 . S
C568 Tb504 2.802 . S
C568 O548 1.264 . S
C568 O551 1.256 . S
C568 C561 1.496 . S
C569 C536 1.448 . S
C569 H546 0.930 . S
C569 C570 1.328 1_556 S
C570 C541 1.427 . S
C570 H547 0.929 . S
C570 C569 1.328 1_554 S
C571 O555 1.264 . S
C571 O556 1.243 . S
C572 C575 1.399 1_556 S
C572 C576 1.383 . S
C572 C579 1.496 . S
C573 C574 1.399 . S
C573 C576 1.389 . S
C574 C573 1.399 . S
C574 C577 1.380 1_556 S
C574 H584 0.929 . S
C575 C572 1.399 1_554 S
C575 C577 1.392 . S
C575 H585 0.929 . S
C576 C572 1.383 . S
C576 C573 1.389 . S
C576 H586 0.931 . S
C577 C574 1.380 1_554 S
C577 C575 1.392 . S
C577 H587 0.929 . S
C578 O558 1.266 . S
C578 O559 1.248 . S
C579 Tb515 2.802 . S
C579 O554 1.264 . S
C579 O557 1.256 . S
C579 C572 1.496 . S
H580 C563 0.929 . S
H581 C564 0.929 . S
H582 C565 0.929 . S
H583 C566 0.931 . S
H584 C574 0.929 . S
H585 C575 0.929 . S
H586 C576 0.931 . S
H587 C577 0.929 . S
Tb588 N617 2.617 . S
Tb588 N623 2.572 . S
Tb588 O632 2.465 . S
Tb588 O633 2.387 . S
Tb588 O635 2.428 . S
Tb588 O636 2.308 . S
Tb588 O640 2.349 . S
Tb588 O643 2.393 . S
Tb588 C652 2.802 . S
C589 N590 1.379 . S
C589 C592 1.416 . S
C589 C596 1.424 . S
N590 C589 1.379 . S
N590 C593 1.352 . S
N590 Tb599 2.617 . S
C591 C593 1.387 1_554 S
C591 C594 1.339 1_554 S
C591 H611 0.930 . S
C592 C589 1.416 . S
C592 C594 1.416 . S
C592 C598 1.448 . S
C593 N590 1.352 . S
C593 C591 1.387 1_556 S
C593 H604 0.915 1_556 S
C594 C591 1.339 1_556 S
C594 C592 1.416 . S
C594 H615 0.930 . S
C595 C596 1.413 . S
C595 C597 1.427 . S
C595 C601 1.416 . S
C596 C589 1.424 . S
C596 C595 1.413 . S
C596 N600 1.361 . S
C597 C595 1.427 . S
C597 C598 1.328 . S
C597 H612 0.929 . S
C598 C592 1.448 . S
C598 C597 1.328 . S
C598 H613 0.930 . S
Tb599 N590 2.617 . S
Tb599 N600 2.572 . S
Tb599 O634 2.349 . S
Tb599 O637 2.393 1_556 S
Tb599 O638 2.465 . S
Tb599 O639 2.387 . S
Tb599 O641 2.428 . S
Tb599 O642 2.308 . S
Tb599 C663 2.802 . S
N600 C596 1.361 . S
N600 Tb599 2.572 . S
N600 C602 1.340 . S
C601 C595 1.416 . S
C601 C603 1.332 . S
C601 H609 0.931 . S
C602 N600 1.340 . S
C602 C603 1.407 . S
C602 H608 0.930 . S
C603 C601 1.332 . S
C603 C602 1.407 . S
C603 H605 0.929 . S
H604 C593 0.915 1_554 S
H605 C603 0.929 . S
H606 C621 0.930 . S
H607 C628 0.929 . S
H608 C602 0.930 . S
H609 C601 0.931 . S
H610 C624 0.930 . S
H611 C591 0.930 . S
H612 C597 0.929 . S
H613 C598 0.930 . S
H614 C619 0.930 . S
H615 C594 0.930 . S
H616 C627 0.931 . S
N617 Tb588 2.617 . S
N617 C618 1.379 . S
N617 C621 1.334 . S
C618 N617 1.379 . S
C618 C620 1.416 . S
C618 C626 1.424 . S
C619 H614 0.930 . S
C619 C621 1.390 . S
C619 C622 1.339 . S
C620 C618 1.416 . S
C620 C622 1.416 . S
C620 C653 1.448 . S
C621 H606 0.930 . S
C621 N617 1.334 . S
C621 C619 1.390 . S
C622 C619 1.339 . S
C622 C620 1.416 . S
C622 H629 0.930 . S
N623 Tb588 2.572 . S
N623 C624 1.340 1_556 S
N623 C626 1.361 . S
C624 H610 0.930 . S
C624 N623 1.340 1_554 S
C624 C628 1.407 . S
C625 C626 1.413 1_554 S
C625 C627 1.416 . S
C625 C654 1.427 . S
C626 C618 1.424 . S
C626 N623 1.361 . S
C626 C625 1.413 1_556 S
C627 H616 0.931 . S
C627 C625 1.416 . S
C627 C628 1.332 . S
C628 H607 0.929 . S
C628 C624 1.407 . S
C628 C627 1.332 . S
H629 C622 0.930 . S
H630 C653 0.930 . S
H631 C654 0.929 . S
O632 Tb588 2.465 . S
O632 C652 1.264 . S
O633 Tb588 2.387 . S
O633 C644 1.264 . S
O634 Tb599 2.349 . S
O634 C644 1.243 . S
O635 Tb588 2.428 . S
O635 C652 1.256 . S
O636 Tb588 2.308 . S
O636 C651 1.266 1_556 S
O637 Tb599 2.393 1_554 S
O637 C651 1.248 . S
O638 Tb599 2.465 . S
O638 C663 1.264 . S
O639 Tb599 2.387 . S
O639 C655 1.264 . S
O640 Tb588 2.349 . S
O640 C655 1.243 . S
O641 Tb599 2.428 . S
O641 C663 1.256 . S
O642 Tb599 2.308 . S
O642 C662 1.266 . S
O643 Tb588 2.393 . S
O643 C662 1.248 . S
C644 O633 1.264 . S
C644 O634 1.243 . S
C645 C648 1.399 . S
C645 C650 1.383 . S
C645 C652 1.496 . S
C646 C647 1.399 . S
C646 C650 1.389 . S
C647 C646 1.399 . S
C647 C649 1.380 . S
C647 H664 0.929 . S
C648 C645 1.399 . S
C648 C649 1.392 . S
C648 H665 0.929 . S
C649 C647 1.380 . S
C649 C648 1.392 . S
C649 H666 0.929 . S
C650 C645 1.383 . S
C650 C646 1.389 . S
C650 H667 0.931 . S
C651 O636 1.266 1_554 S
C651 O637 1.248 . S
C652 Tb588 2.802 . S
C652 O632 1.264 . S
C652 O635 1.256 . S
C652 C645 1.496 . S
C653 C620 1.448 . S
C653 H630 0.930 . S
C653 C654 1.328 1_556 S
C654 C625 1.427 . S
C654 H631 0.929 . S
C654 C653 1.328 1_554 S
C655 O639 1.264 . S
C655 O640 1.243 . S
C656 C659 1.399 1_556 S
C656 C660 1.383 . S
C656 C663 1.496 . S
C657 C658 1.399 . S
C657 C660 1.389 . S
C658 C657 1.399 . S
C658 C661 1.380 1_556 S
C658 H668 0.929 . S
C659 C656 1.399 1_554 S
C659 C661 1.392 . S
C659 H669 0.929 . S
C660 C656 1.383 . S
C660 C657 1.389 . S
C660 H670 0.931 . S
C661 C658 1.380 1_554 S
C661 C659 1.392 . S
C661 H671 0.929 . S
C662 O642 1.266 . S
C662 O643 1.248 . S
C663 Tb599 2.802 . S
C663 O638 1.264 . S
C663 O641 1.256 . S
C663 C656 1.496 . S
H664 C647 0.929 . S
H665 C648 0.929 . S
H666 C649 0.929 . S
H667 C650 0.931 . S
H668 C658 0.929 . S
H669 C659 0.929 . S
H670 C660 0.931 . S
H671 C661 0.929 . S
Tb672 N701 2.617 . S
Tb672 N707 2.572 . S
Tb672 O716 2.465 . S
Tb672 O717 2.387 . S
Tb672 O719 2.428 . S
Tb672 O720 2.308 . S
Tb672 O724 2.349 . S
Tb672 O727 2.393 . S
Tb672 C736 2.802 . S
C673 N674 1.379 . S
C673 C676 1.416 . S
C673 C680 1.424 . S
N674 C673 1.379 . S
N674 C677 1.352 . S
N674 Tb683 2.617 . S
C675 C677 1.387 1_554 S
C675 C678 1.339 1_554 S
C675 H695 0.930 . S
C676 C673 1.416 . S
C676 C678 1.416 . S
C676 C682 1.448 . S
C677 N674 1.352 . S
C677 C675 1.387 1_556 S
C677 H688 0.915 1_556 S
C678 C675 1.339 1_556 S
C678 C676 1.416 . S
C678 H699 0.930 . S
C679 C680 1.413 . S
C679 C681 1.427 . S
C679 C685 1.416 . S
C680 C673 1.424 . S
C680 C679 1.413 . S
C680 N684 1.361 . S
C681 C679 1.427 . S
C681 C682 1.328 . S
C681 H696 0.929 . S
C682 C676 1.448 . S
C682 C681 1.328 . S
C682 H697 0.930 . S
Tb683 N674 2.617 . S
Tb683 N684 2.572 . S
Tb683 O718 2.349 . S
Tb683 O721 2.393 1_556 S
Tb683 O722 2.465 . S
Tb683 O723 2.387 . S
Tb683 O725 2.428 . S
Tb683 O726 2.308 . S
Tb683 C747 2.802 . S
N684 C680 1.361 . S
N684 Tb683 2.572 . S
N684 C686 1.340 . S
C685 C679 1.416 . S
C685 C687 1.332 . S
C685 H693 0.931 . S
C686 N684 1.340 . S
C686 C687 1.407 . S
C686 H692 0.930 . S
C687 C685 1.332 . S
C687 C686 1.407 . S
C687 H689 0.929 . S
H688 C677 0.915 1_554 S
H689 C687 0.929 . S
H690 C705 0.930 . S
H691 C712 0.929 . S
H692 C686 0.930 . S
H693 C685 0.931 . S
H694 C708 0.930 . S
H695 C675 0.930 . S
H696 C681 0.929 . S
H697 C682 0.930 . S
H698 C703 0.930 . S
H699 C678 0.930 . S
H700 C711 0.931 . S
N701 Tb672 2.617 . S
N701 C702 1.379 . S
N701 C705 1.334 . S
C702 N701 1.379 . S
C702 C704 1.416 . S
C702 C710 1.424 . S
C703 H698 0.930 . S
C703 C705 1.390 . S
C703 C706 1.339 . S
C704 C702 1.416 . S
C704 C706 1.416 . S
C704 C737 1.448 . S
C705 H690 0.930 . S
C705 N701 1.334 . S
C705 C703 1.390 . S
C706 C703 1.339 . S
C706 C704 1.416 . S
C706 H713 0.930 . S
N707 Tb672 2.572 . S
N707 C708 1.340 1_556 S
N707 C710 1.361 . S
C708 H694 0.930 . S
C708 N707 1.340 1_554 S
C708 C712 1.407 . S
C709 C710 1.413 1_554 S
C709 C711 1.416 . S
C709 C738 1.427 . S
C710 C702 1.424 . S
C710 N707 1.361 . S
C710 C709 1.413 1_556 S
C711 H700 0.931 . S
C711 C709 1.416 . S
C711 C712 1.332 . S
C712 H691 0.929 . S
C712 C708 1.407 . S
C712 C711 1.332 . S
H713 C706 0.930 . S
H714 C737 0.930 . S
H715 C738 0.929 . S
O716 Tb672 2.465 . S
O716 C736 1.264 . S
O717 Tb672 2.387 . S
O717 C728 1.264 . S
O718 Tb683 2.349 . S
O718 C728 1.243 . S
O719 Tb672 2.428 . S
O719 C736 1.256 . S
O720 Tb672 2.308 . S
O720 C735 1.266 1_556 S
O721 Tb683 2.393 1_554 S
O721 C735 1.248 . S
O722 Tb683 2.465 . S
O722 C747 1.264 . S
O723 Tb683 2.387 . S
O723 C739 1.264 . S
O724 Tb672 2.349 . S
O724 C739 1.243 . S
O725 Tb683 2.428 . S
O725 C747 1.256 . S
O726 Tb683 2.308 . S
O726 C746 1.266 . S
O727 Tb672 2.393 . S
O727 C746 1.248 . S
C728 O717 1.264 . S
C728 O718 1.243 . S
C729 C732 1.399 . S
C729 C734 1.383 . S
C729 C736 1.496 . S
C730 C731 1.399 . S
C730 C734 1.389 . S
C731 C730 1.399 . S
C731 C733 1.380 . S
C731 H748 0.929 . S
C732 C729 1.399 . S
C732 C733 1.392 . S
C732 H749 0.929 . S
C733 C731 1.380 . S
C733 C732 1.392 . S
C733 H750 0.929 . S
C734 C729 1.383 . S
C734 C730 1.389 . S
C734 H751 0.931 . S
C735 O720 1.266 1_554 S
C735 O721 1.248 . S
C736 Tb672 2.802 . S
C736 O716 1.264 . S
C736 O719 1.256 . S
C736 C729 1.496 . S
C737 C704 1.448 . S
C737 H714 0.930 . S
C737 C738 1.328 1_556 S
C738 C709 1.427 . S
C738 H715 0.929 . S
C738 C737 1.328 1_554 S
C739 O723 1.264 . S
C739 O724 1.243 . S
C740 C743 1.399 1_556 S
C740 C744 1.383 . S
C740 C747 1.496 . S
C741 C742 1.399 . S
C741 C744 1.389 . S
C742 C741 1.399 . S
C742 C745 1.380 1_556 S
C742 H752 0.929 . S
C743 C740 1.399 1_554 S
C743 C745 1.392 . S
C743 H753 0.929 . S
C744 C740 1.383 . S
C744 C741 1.389 . S
C744 H754 0.931 . S
C745 C742 1.380 1_554 S
C745 C743 1.392 . S
C745 H755 0.929 . S
C746 O726 1.266 . S
C746 O727 1.248 . S
C747 Tb683 2.802 . S
C747 O722 1.264 . S
C747 O725 1.256 . S
C747 C740 1.496 . S
H748 C731 0.929 . S
H749 C732 0.929 . S
H750 C733 0.929 . S
H751 C734 0.931 . S
H752 C742 0.929 . S
H753 C743 0.929 . S
H754 C744 0.931 . S
H755 C745 0.929 . S
Tb756 N785 2.617 . S
Tb756 N791 2.572 . S
Tb756 O800 2.465 . S
Tb756 O801 2.387 . S
Tb756 O803 2.428 . S
Tb756 O804 2.308 . S
Tb756 O808 2.349 . S
Tb756 O811 2.393 . S
Tb756 C820 2.802 . S
C757 N758 1.379 . S
C757 C760 1.416 . S
C757 C764 1.424 . S
N758 C757 1.379 . S
N758 C761 1.334 . S
N758 Tb767 2.617 . S
C759 C761 1.390 . S
C759 C762 1.339 . S
C759 H779 0.930 . S
C760 C757 1.416 . S
C760 C762 1.416 . S
C760 C766 1.448 . S
C761 N758 1.334 . S
C761 C759 1.390 . S
C761 H772 0.930 . S
C762 C759 1.339 . S
C762 C760 1.416 . S
C762 H783 0.930 . S
C763 C764 1.413 . S
C763 C765 1.427 . S
C763 C769 1.416 . S
C764 C757 1.424 . S
C764 C763 1.413 . S
C764 N768 1.361 . S
C765 C763 1.427 . S
C765 C766 1.328 . S
C765 H780 0.929 . S
C766 C760 1.448 . S
C766 C765 1.328 . S
C766 H781 0.930 . S
Tb767 N758 2.617 . S
Tb767 N768 2.572 . S
Tb767 O802 2.349 . S
Tb767 O805 2.393 . S
Tb767 O806 2.465 . S
Tb767 O807 2.387 . S
Tb767 O809 2.428 . S
Tb767 O810 2.308 . S
Tb767 C831 2.802 . S
N768 C764 1.361 . S
N768 Tb767 2.572 . S
N768 C770 1.340 . S
C769 C763 1.416 . S
C769 C771 1.332 . S
C769 H777 0.931 . S
C770 N768 1.340 . S
C770 C771 1.407 . S
C770 H776 0.930 . S
C771 C769 1.332 . S
C771 C770 1.407 . S
C771 H773 0.929 . S
H772 C761 0.930 . S
H773 C771 0.929 . S
H774 C789 0.930 . S
H775 C796 0.929 . S
H776 C770 0.930 . S
H777 C769 0.931 . S
H778 C792 0.930 . S
H779 C759 0.930 . S
H780 C765 0.929 . S
H781 C766 0.930 . S
H782 C787 0.930 . S
H783 C762 0.930 . S
H784 C795 0.931 . S
N785 Tb756 2.617 . S
N785 C786 1.379 . S
N785 C789 1.334 . S
C786 N785 1.379 . S
C786 C788 1.416 . S
C786 C794 1.424 . S
C787 H782 0.930 . S
C787 C789 1.390 . S
C787 C790 1.339 . S
C788 C786 1.416 . S
C788 C790 1.416 . S
C788 C821 1.448 . S
C789 H774 0.930 . S
C789 N785 1.334 . S
C789 C787 1.390 . S
C790 C787 1.339 . S
C790 C788 1.416 . S
C790 H797 0.930 . S
N791 Tb756 2.572 . S
N791 C792 1.340 . S
N791 C794 1.361 . S
C792 H778 0.930 . S
C792 N791 1.340 . S
C792 C796 1.407 . S
C793 C794 1.413 . S
C793 C795 1.416 . S
C793 C822 1.427 . S
C794 C786 1.424 . S
C794 N791 1.361 . S
C794 C793 1.413 . S
C795 H784 0.931 . S
C795 C793 1.416 . S
C795 C796 1.332 . S
C796 H775 0.929 . S
C796 C792 1.407 . S
C796 C795 1.332 . S
H797 C790 0.930 . S
H798 C821 0.930 . S
H799 C822 0.929 . S
O800 Tb756 2.465 . S
O800 C820 1.264 . S
O801 Tb756 2.387 . S
O801 C812 1.264 . S
O802 Tb767 2.349 . S
O802 C812 1.243 . S
O803 Tb756 2.428 . S
O803 C820 1.256 . S
O804 Tb756 2.308 . S
O804 C819 1.266 . S
O805 Tb767 2.393 . S
O805 C819 1.248 . S
O806 Tb767 2.465 . S
O806 C831 1.264 . S
O807 Tb767 2.387 . S
O807 C823 1.264 . S
O808 Tb756 2.349 . S
O808 C823 1.243 . S
O809 Tb767 2.428 . S
O809 C831 1.256 . S
O810 Tb767 2.308 . S
O810 C830 1.266 . S
O811 Tb756 2.393 . S
O811 C830 1.248 . S
C812 O801 1.264 . S
C812 O802 1.243 . S
C813 C816 1.399 . S
C813 C818 1.383 . S
C813 C820 1.496 . S
C814 C815 1.399 . S
C814 C818 1.389 . S
C815 C814 1.399 . S
C815 C817 1.380 . S
C815 H832 0.929 . S
C816 C813 1.399 . S
C816 C817 1.392 . S
C816 H833 0.929 . S
C817 C815 1.380 . S
C817 C816 1.392 . S
C817 H834 0.929 . S
C818 C813 1.383 . S
C818 C814 1.389 . S
C818 H835 0.931 . S
C819 O804 1.266 . S
C819 O805 1.248 . S
C820 Tb756 2.802 . S
C820 O800 1.264 . S
C820 O803 1.256 . S
C820 C813 1.496 . S
C821 C788 1.448 . S
C821 H798 0.930 . S
C821 C822 1.328 . S
C822 C793 1.427 . S
C822 H799 0.929 . S
C822 C821 1.328 . S
C823 O807 1.264 . S
C823 O808 1.243 . S
C824 C827 1.399 . S
C824 C828 1.383 . S
C824 C831 1.496 . S
C825 C826 1.399 . S
C825 C828 1.389 . S
C826 C825 1.399 . S
C826 C829 1.380 . S
C826 H836 0.929 . S
C827 C824 1.399 . S
C827 C829 1.392 . S
C827 H837 0.929 . S
C828 C824 1.383 . S
C828 C825 1.389 . S
C828 H838 0.931 . S
C829 C826 1.380 . S
C829 C827 1.392 . S
C829 H839 0.929 . S
C830 O810 1.266 . S
C830 O811 1.248 . S
C831 Tb767 2.802 . S
C831 O806 1.264 . S
C831 O809 1.256 . S
C831 C824 1.496 . S
H832 C815 0.929 . S
H833 C816 0.929 . S
H834 C817 0.929 . S
H835 C818 0.931 . S
H836 C826 0.929 . S
H837 C827 0.929 . S
H838 C828 0.931 . S
H839 C829 0.929 . S
Tb840 N869 2.617 . S
Tb840 N875 2.572 . S
Tb840 O884 2.465 . S
Tb840 O885 2.387 . S
Tb840 O887 2.428 . S
Tb840 O888 2.308 . S
Tb840 O892 2.349 . S
Tb840 O895 2.393 . S
Tb840 C904 2.802 . S
C841 N842 1.379 . S
C841 C844 1.416 . S
C841 C848 1.424 . S
N842 C841 1.379 . S
N842 C845 1.334 . S
N842 Tb851 2.617 . S
C843 C845 1.390 . S
C843 C846 1.339 . S
C843 H863 0.930 . S
C844 C841 1.416 . S
C844 C846 1.416 . S
C844 C850 1.448 . S
C845 N842 1.334 . S
C845 C843 1.390 . S
C845 H856 0.930 . S
C846 C843 1.339 . S
C846 C844 1.416 . S
C846 H867 0.930 . S
C847 C848 1.413 . S
C847 C849 1.427 . S
C847 C853 1.416 . S
C848 C841 1.424 . S
C848 C847 1.413 . S
C848 N852 1.361 . S
C849 C847 1.427 . S
C849 C850 1.328 . S
C849 H864 0.929 . S
C850 C844 1.448 . S
C850 C849 1.328 . S
C850 H865 0.930 . S
Tb851 N842 2.617 . S
Tb851 N852 2.572 . S
Tb851 O886 2.349 . S
Tb851 O889 2.393 . S
Tb851 O890 2.465 . S
Tb851 O891 2.387 . S
Tb851 O893 2.428 . S
Tb851 O894 2.308 . S
Tb851 C915 2.802 . S
N852 C848 1.361 . S
N852 Tb851 2.572 . S
N852 C854 1.340 . S
C853 C847 1.416 . S
C853 C855 1.332 . S
C853 H861 0.931 . S
C854 N852 1.340 . S
C854 C855 1.407 . S
C854 H860 0.930 . S
C855 C853 1.332 . S
C855 C854 1.407 . S
C855 H857 0.929 . S
H856 C845 0.930 . S
H857 C855 0.929 . S
H858 C873 0.930 . S
H859 C880 0.929 . S
H860 C854 0.930 . S
H861 C853 0.931 . S
H862 C876 0.930 . S
H863 C843 0.930 . S
H864 C849 0.929 . S
H865 C850 0.930 . S
H866 C871 0.930 . S
H867 C846 0.930 . S
H868 C879 0.931 . S
N869 Tb840 2.617 . S
N869 C870 1.379 . S
N869 C873 1.334 . S
C870 N869 1.379 . S
C870 C872 1.416 . S
C870 C878 1.424 . S
C871 H866 0.930 . S
C871 C873 1.390 . S
C871 C874 1.339 . S
C872 C870 1.416 . S
C872 C874 1.416 . S
C872 C905 1.448 . S
C873 H858 0.930 . S
C873 N869 1.334 . S
C873 C871 1.390 . S
C874 C871 1.339 . S
C874 C872 1.416 . S
C874 H881 0.930 . S
N875 Tb840 2.572 . S
N875 C876 1.340 . S
N875 C878 1.361 . S
C876 H862 0.930 . S
C876 N875 1.340 . S
C876 C880 1.407 . S
C877 C878 1.413 . S
C877 C879 1.416 . S
C877 C906 1.427 . S
C878 C870 1.424 . S
C878 N875 1.361 . S
C878 C877 1.413 . S
C879 H868 0.931 . S
C879 C877 1.416 . S
C879 C880 1.332 . S
C880 H859 0.929 . S
C880 C876 1.407 . S
C880 C879 1.332 . S
H881 C874 0.930 . S
H882 C905 0.930 . S
H883 C906 0.929 . S
O884 Tb840 2.465 . S
O884 C904 1.264 . S
O885 Tb840 2.387 . S
O885 C896 1.264 . S
O886 Tb851 2.349 . S
O886 C896 1.243 . S
O887 Tb840 2.428 . S
O887 C904 1.256 . S
O888 Tb840 2.308 . S
O888 C903 1.266 . S
O889 Tb851 2.393 . S
O889 C903 1.248 . S
O890 Tb851 2.465 . S
O890 C915 1.264 . S
O891 Tb851 2.387 . S
O891 C907 1.264 . S
O892 Tb840 2.349 . S
O892 C907 1.243 . S
O893 Tb851 2.428 . S
O893 C915 1.256 . S
O894 Tb851 2.308 . S
O894 C914 1.266 . S
O895 Tb840 2.393 . S
O895 C914 1.248 . S
C896 O885 1.264 . S
C896 O886 1.243 . S
C897 C900 1.399 . S
C897 C902 1.383 . S
C897 C904 1.496 . S
C898 C899 1.399 . S
C898 C902 1.389 . S
C899 C898 1.399 . S
C899 C901 1.380 . S
C899 H916 0.929 . S
C900 C897 1.399 . S
C900 C901 1.392 . S
C900 H917 0.929 . S
C901 C899 1.380 . S
C901 C900 1.392 . S
C901 H918 0.929 . S
C902 C897 1.383 . S
C902 C898 1.389 . S
C902 H919 0.931 . S
C903 O888 1.266 . S
C903 O889 1.248 . S
C904 Tb840 2.802 . S
C904 O884 1.264 . S
C904 O887 1.256 . S
C904 C897 1.496 . S
C905 C872 1.448 . S
C905 H882 0.930 . S
C905 C906 1.328 . S
C906 C877 1.427 . S
C906 H883 0.929 . S
C906 C905 1.328 . S
C907 O891 1.264 . S
C907 O892 1.243 . S
C908 C911 1.399 . S
C908 C912 1.383 . S
C908 C915 1.496 . S
C909 C910 1.399 . S
C909 C912 1.389 . S
C910 C909 1.399 . S
C910 C913 1.380 . S
C910 H920 0.929 . S
C911 C908 1.399 . S
C911 C913 1.392 . S
C911 H921 0.929 . S
C912 C908 1.383 . S
C912 C909 1.389 . S
C912 H922 0.931 . S
C913 C910 1.380 . S
C913 C911 1.392 . S
C913 H923 0.929 . S
C914 O894 1.266 . S
C914 O895 1.248 . S
C915 Tb851 2.802 . S
C915 O890 1.264 . S
C915 O893 1.256 . S
C915 C908 1.496 . S
H916 C899 0.929 . S
H917 C900 0.929 . S
H918 C901 0.929 . S
H919 C902 0.931 . S
H920 C910 0.929 . S
H921 C911 0.929 . S
H922 C912 0.931 . S
H923 C913 0.929 . S
Tb924 N953 2.617 . S
Tb924 N959 2.572 . S
Tb924 O968 2.465 . S
Tb924 O969 2.387 . S
Tb924 O971 2.428 . S
Tb924 O972 2.308 . S
Tb924 O976 2.349 . S
Tb924 O979 2.393 . S
Tb924 C988 2.802 . S
C925 N926 1.379 . S
C925 C928 1.416 . S
C925 C932 1.424 . S
N926 C925 1.379 . S
N926 C929 1.334 . S
N926 Tb935 2.617 . S
C927 C929 1.390 . S
C927 C930 1.339 . S
C927 H947 0.930 . S
C928 C925 1.416 . S
C928 C930 1.416 . S
C928 C934 1.448 . S
C929 N926 1.334 . S
C929 C927 1.390 . S
C929 H940 0.930 . S
C930 C927 1.339 . S
C930 C928 1.416 . S
C930 H951 0.930 . S
C931 C932 1.413 . S
C931 C933 1.427 . S
C931 C937 1.416 . S
C932 C925 1.424 . S
C932 C931 1.413 . S
C932 N936 1.361 . S
C933 C931 1.427 . S
C933 C934 1.328 . S
C933 H948 0.929 . S
C934 C928 1.448 . S
C934 C933 1.328 . S
C934 H949 0.930 . S
Tb935 N926 2.617 . S
Tb935 N936 2.572 . S
Tb935 O970 2.349 . S
Tb935 O973 2.393 . S
Tb935 O974 2.465 . S
Tb935 O975 2.387 . S
Tb935 O977 2.428 . S
Tb935 O978 2.308 . S
Tb935 C999 2.802 . S
N936 C932 1.361 . S
N936 Tb935 2.572 . S
N936 C938 1.340 . S
C937 C931 1.416 . S
C937 C939 1.332 . S
C937 H945 0.931 . S
C938 N936 1.340 . S
C938 C939 1.407 . S
C938 H944 0.930 . S
C939 C937 1.332 . S
C939 C938 1.407 . S
C939 H941 0.929 . S
H940 C929 0.930 . S
H941 C939 0.929 . S
H942 C957 0.930 . S
H943 C964 0.929 . S
H944 C938 0.930 . S
H945 C937 0.931 . S
H946 C960 0.930 . S
H947 C927 0.930 . S
H948 C933 0.929 . S
H949 C934 0.930 . S
H950 C955 0.930 . S
H951 C930 0.930 . S
H952 C963 0.931 . S
N953 Tb924 2.617 . S
N953 C954 1.379 . S
N953 C957 1.334 . S
C954 N953 1.379 . S
C954 C956 1.416 . S
C954 C962 1.424 . S
C955 H950 0.930 . S
C955 C957 1.390 . S
C955 C958 1.339 . S
C956 C954 1.416 . S
C956 C958 1.416 . S
C956 C989 1.448 . S
C957 H942 0.930 . S
C957 N953 1.334 . S
C957 C955 1.390 . S
C958 C955 1.339 . S
C958 C956 1.416 . S
C958 H965 0.930 . S
N959 Tb924 2.572 . S
N959 C960 1.340 . S
N959 C962 1.361 . S
C960 H946 0.930 . S
C960 N959 1.340 . S
C960 C964 1.407 . S
C961 C962 1.413 . S
C961 C963 1.416 . S
C961 C990 1.427 . S
C962 C954 1.424 . S
C962 N959 1.361 . S
C962 C961 1.413 . S
C963 H952 0.931 . S
C963 C961 1.416 . S
C963 C964 1.332 . S
C964 H943 0.929 . S
C964 C960 1.407 . S
C964 C963 1.332 . S
H965 C958 0.930 . S
H966 C989 0.930 . S
H967 C990 0.929 . S
O968 Tb924 2.465 . S
O968 C988 1.264 . S
O969 Tb924 2.387 . S
O969 C980 1.264 . S
O970 Tb935 2.349 . S
O970 C980 1.243 . S
O971 Tb924 2.428 . S
O971 C988 1.256 . S
O972 Tb924 2.308 . S
O972 C987 1.266 . S
O973 Tb935 2.393 . S
O973 C987 1.248 . S
O974 Tb935 2.465 . S
O974 C999 1.264 . S
O975 Tb935 2.387 . S
O975 C991 1.264 . S
O976 Tb924 2.349 . S
O976 C991 1.243 . S
O977 Tb935 2.428 . S
O977 C999 1.256 . S
O978 Tb935 2.308 . S
O978 C998 1.266 . S
O979 Tb924 2.393 . S
O979 C998 1.248 . S
C980 O969 1.264 . S
C980 O970 1.243 . S
C981 C984 1.399 . S
C981 C986 1.383 . S
C981 C988 1.496 . S
C982 C983 1.399 . S
C982 C986 1.389 . S
C983 C982 1.399 . S
C983 C985 1.380 . S
C983 H1000 0.929 . S
C984 C981 1.399 . S
C984 C985 1.392 . S
C984 H1001 0.929 . S
C985 C983 1.380 . S
C985 C984 1.392 . S
C985 H1002 0.929 . S
C986 C981 1.383 . S
C986 C982 1.389 . S
C986 H1003 0.931 . S
C987 O972 1.266 . S
C987 O973 1.248 . S
C988 Tb924 2.802 . S
C988 O968 1.264 . S
C988 O971 1.256 . S
C988 C981 1.496 . S
C989 C956 1.448 . S
C989 H966 0.930 . S
C989 C990 1.328 . S
C990 C961 1.427 . S
C990 H967 0.929 . S
C990 C989 1.328 . S
C991 O975 1.264 . S
C991 O976 1.243 . S
C992 C995 1.399 . S
C992 C996 1.383 . S
C992 C999 1.496 . S
C993 C994 1.399 . S
C993 C996 1.389 . S
C994 C993 1.399 . S
C994 C997 1.380 . S
C994 H1004 0.929 . S
C995 C992 1.399 . S
C995 C997 1.392 . S
C995 H1005 0.929 . S
C996 C992 1.383 . S
C996 C993 1.389 . S
C996 H1006 0.931 . S
C997 C994 1.380 . S
C997 C995 1.392 . S
C997 H1007 0.929 . S
C998 O978 1.266 . S
C998 O979 1.248 . S
C999 Tb935 2.802 . S
C999 O974 1.264 . S
C999 O977 1.256 . S
C999 C992 1.496 . S
H1000 C983 0.929 . S
H1001 C984 0.929 . S
H1002 C985 0.929 . S
H1003 C986 0.931 . S
H1004 C994 0.929 . S
H1005 C995 0.929 . S
H1006 C996 0.931 . S
H1007 C997 0.929 . S
H1008 C1014 0.930 . S
H1009 C1018 0.930 . S
H1010 C1023 0.929 1_556 S
H1011 C1021 0.929 1_554 S
H1012 C1016 0.929 . S
H1013 C1022 0.929 . S
C1014 H1008 0.930 . S
C1014 C1015 1.367 . S
C1014 C1022 1.378 . S
C1015 C1014 1.367 . S
C1015 C1023 1.433 . S
C1016 H1012 0.929 . S
C1016 C1018 1.378 . S
C1016 C1020 1.350 . S
C1017 C1020 1.463 1_454 S
C1017 C1022 1.350 . S
C1017 N1025 1.438 1_454 S
C1018 H1009 0.930 . S
C1018 C1016 1.378 . S
C1018 C1019 1.367 . S
C1019 C1018 1.367 . S
C1019 C1021 1.433 . S
C1020 C1016 1.350 . S
C1020 C1017 1.463 1_656 S
C1020 N1024 1.438 1_656 S
C1021 H1011 0.929 1_556 S
C1021 C1019 1.433 . S
C1021 N1024 1.358 1_656 S
C1022 H1013 0.929 . S
C1022 C1014 1.378 . S
C1022 C1017 1.350 . S
C1023 H1010 0.929 1_554 S
C1023 C1015 1.433 . S
C1023 N1025 1.358 1_454 S
N1024 C1020 1.438 1_454 S
N1024 C1021 1.358 1_454 S
N1025 C1017 1.438 1_656 S
N1025 C1023 1.358 1_656 S
H1026 C1032 0.930 . S
H1027 C1036 0.930 . S
H1028 C1041 0.929 1_554 S
H1029 C1039 0.929 1_556 S
H1030 C1034 0.929 . S
H1031 C1040 0.929 . S
C1032 H1026 0.930 . S
C1032 C1033 1.367 . S
C1032 C1040 1.378 . S
C1033 C1032 1.367 . S
C1033 C1041 1.433 . S
C1034 H1030 0.929 . S
C1034 C1036 1.378 . S
C1034 C1038 1.350 . S
C1035 C1038 1.463 1_556 S
C1035 C1040 1.350 . S
C1035 N1043 1.427 1_556 S
C1036 H1027 0.930 . S
C1036 C1034 1.378 . S
C1036 C1037 1.367 . S
C1037 C1036 1.367 . S
C1037 C1039 1.433 . S
C1038 C1034 1.350 . S
C1038 C1035 1.463 1_554 S
C1038 N1042 1.427 1_554 S
C1039 H1029 0.929 1_554 S
C1039 C1037 1.433 . S
C1039 N1042 1.384 1_554 S
C1040 H1031 0.929 . S
C1040 C1032 1.378 . S
C1040 C1035 1.350 . S
C1041 H1028 0.929 1_556 S
C1041 C1033 1.433 . S
C1041 N1043 1.384 1_556 S
N1042 C1038 1.427 1_556 S
N1042 C1039 1.384 1_556 S
N1043 C1035 1.427 1_554 S
N1043 C1041 1.384 1_554 S
H1044 C1050 0.930 . S
H1045 C1054 0.930 . S
H1046 C1059 0.929 . S
H1047 C1057 0.929 . S
H1048 C1052 0.929 . S
H1049 C1058 0.929 . S
C1050 H1044 0.930 . S
C1050 C1051 1.367 1_565 S
C1050 C1058 1.378 . S
C1051 C1050 1.367 1_545 S
C1051 C1059 1.433 . S
C1052 H1048 0.929 . S
C1052 C1054 1.378 . S
C1052 C1056 1.350 1_545 S
C1053 C1056 1.463 1_546 S
C1053 C1058 1.350 1_545 S
C1053 N1061 1.427 1_556 S
C1054 H1045 0.930 . S
C1054 C1052 1.378 . S
C1054 C1055 1.367 1_545 S
C1055 C1054 1.367 1_565 S
C1055 C1057 1.433 . S
C1056 C1052 1.350 1_565 S
C1056 C1053 1.463 1_564 S
C1056 N1060 1.427 1_554 S
C1057 H1047 0.929 . S
C1057 C1055 1.433 . S
C1057 N1060 1.384 1_554 S
C1058 H1049 0.929 . S
C1058 C1050 1.378 . S
C1058 C1053 1.350 1_565 S
C1059 H1046 0.929 . S
C1059 C1051 1.433 . S
C1059 N1061 1.384 1_556 S
N1060 C1056 1.427 1_556 S
N1060 C1057 1.384 1_556 S
N1061 C1053 1.427 1_554 S
N1061 C1059 1.384 1_554 S
H1062 C1068 0.930 . S
H1063 C1072 0.930 . S
H1064 C1077 0.929 . S
H1065 C1075 0.929 . S
H1066 C1070 0.929 . S
H1067 C1076 0.929 . S
C1068 H1062 0.930 . S
C1068 C1069 1.367 1_565 S
C1068 C1076 1.378 . S
C1069 C1068 1.367 1_545 S
C1069 C1077 1.433 . S
C1070 H1066 0.929 . S
C1070 C1072 1.378 . S
C1070 C1074 1.350 1_545 S
C1071 C1074 1.463 1_545 S
C1071 C1076 1.350 1_545 S
C1071 N1079 1.427 . S
C1072 H1063 0.930 . S
C1072 C1070 1.378 . S
C1072 C1073 1.367 1_545 S
C1073 C1072 1.367 1_565 S
C1073 C1075 1.433 . S
C1074 C1070 1.350 1_565 S
C1074 C1071 1.463 1_565 S
C1074 N1078 1.427 . S
C1075 H1065 0.929 . S
C1075 C1073 1.433 . S
C1075 N1078 1.384 . S
C1076 H1067 0.929 . S
C1076 C1068 1.378 . S
C1076 C1071 1.350 1_565 S
C1077 H1064 0.929 . S
C1077 C1069 1.433 . S
C1077 N1079 1.384 . S
N1078 C1074 1.427 . S
N1078 C1075 1.384 . S
N1079 C1071 1.427 . S
N1079 C1077 1.384 . S
H1080 C1086 0.930 . S
H1081 C1090 0.930 . S
H1082 C1095 0.929 . S
H1083 C1093 0.929 . S
H1084 C1088 0.929 . S
H1085 C1094 0.929 . S
C1086 H1080 0.930 . S
C1086 C1087 1.367 1_655 S
C1086 C1094 1.378 . S
C1087 C1086 1.367 1_455 S
C1087 C1095 1.433 . S
C1088 H1084 0.929 . S
C1088 C1090 1.378 . S
C1088 C1092 1.350 1_455 S
C1089 C1092 1.463 1_455 S
C1089 C1094 1.350 1_455 S
C1089 N1097 1.427 . S
C1090 H1081 0.930 . S
C1090 C1088 1.378 . S
C1090 C1091 1.367 1_455 S
C1091 C1090 1.367 1_655 S
C1091 C1093 1.433 . S
C1092 C1088 1.350 1_655 S
C1092 C1089 1.463 1_655 S
C1092 N1096 1.427 . S
C1093 H1083 0.929 . S
C1093 C1091 1.433 . S
C1093 N1096 1.384 . S
C1094 H1085 0.929 . S
C1094 C1086 1.378 . S
C1094 C1089 1.350 1_655 S
C1095 H1082 0.929 . S
C1095 C1087 1.433 . S
C1095 N1097 1.384 . S
N1096 C1092 1.427 . S
N1096 C1093 1.384 . S
N1097 C1089 1.427 . S
N1097 C1095 1.384 . S
H1098 C1104 0.930 . S
H1099 C1108 0.930 . S
H1100 C1113 0.929 . S
H1101 C1111 0.929 . S
H1102 C1106 0.929 . S
H1103 C1112 0.929 . S
C1104 H1098 0.930 . S
C1104 C1105 1.367 . S
C1104 C1112 1.378 . S
C1105 C1104 1.367 . S
C1105 C1113 1.433 . S
C1106 H1102 0.929 . S
C1106 C1108 1.378 . S
C1106 C1110 1.350 . S
C1107 C1110 1.463 . S
C1107 C1112 1.350 . S
C1107 N1115 1.427 . S
C1108 H1099 0.930 . S
C1108 C1106 1.378 . S
C1108 C1109 1.367 . S
C1109 C1108 1.367 . S
C1109 C1111 1.433 . S
C1110 C1106 1.350 . S
C1110 C1107 1.463 . S
C1110 N1114 1.427 . S
C1111 H1101 0.929 . S
C1111 C1109 1.433 . S
C1111 N1114 1.384 . S
C1112 H1103 0.929 . S
C1112 C1104 1.378 . S
C1112 C1107 1.350 . S
C1113 H1100 0.929 . S
C1113 C1105 1.433 . S
C1113 N1115 1.384 . S
N1114 C1110 1.427 . S
N1114 C1111 1.384 . S
N1115 C1107 1.427 . S
N1115 C1113 1.384 . S
H1116 C1122 0.930 . S
H1117 C1126 0.930 . S
H1118 C1131 0.929 . S
H1119 C1129 0.929 . S
H1120 C1124 0.929 . S
H1121 C1130 0.929 . S
C1122 H1116 0.930 . S
C1122 C1123 1.367 . S
C1122 C1130 1.378 . S
C1123 C1122 1.367 . S
C1123 C1131 1.433 . S
C1124 H1120 0.929 . S
C1124 C1126 1.378 . S
C1124 C1128 1.350 . S
C1125 C1128 1.463 1_655 S
C1125 C1130 1.350 . S
C1125 N1133 1.427 . S
C1126 H1117 0.930 . S
C1126 C1124 1.378 . S
C1126 C1127 1.367 . S
C1127 C1126 1.367 . S
C1127 C1129 1.433 . S
C1128 C1124 1.350 . S
C1128 C1125 1.463 1_455 S
C1128 N1132 1.427 . S
C1129 H1119 0.929 . S
C1129 C1127 1.433 . S
C1129 N1132 1.384 . S
C1130 H1121 0.929 . S
C1130 C1122 1.378 . S
C1130 C1125 1.350 . S
C1131 H1118 0.929 . S
C1131 C1123 1.433 . S
C1131 N1133 1.384 . S
N1132 C1128 1.427 . S
N1132 C1129 1.384 . S
N1133 C1125 1.427 . S
N1133 C1131 1.384 . S
H1134 C1140 0.930 . S
H1135 C1144 0.930 . S
H1136 C1149 0.929 . S
H1137 C1147 0.929 . S
H1138 C1142 0.929 . S
H1139 C1148 0.929 . S
C1140 H1134 0.930 . S
C1140 C1141 1.367 . S
C1140 C1148 1.378 . S
C1141 C1140 1.367 . S
C1141 C1149 1.433 . S
C1142 H1138 0.929 . S
C1142 C1144 1.378 . S
C1142 C1146 1.350 . S
C1143 C1146 1.463 . S
C1143 C1148 1.350 . S
C1143 N1151 1.427 . S
C1144 H1135 0.930 . S
C1144 C1142 1.378 . S
C1144 C1145 1.367 . S
C1145 C1144 1.367 . S
C1145 C1147 1.433 . S
C1146 C1142 1.350 . S
C1146 C1143 1.463 . S
C1146 N1150 1.427 . S
C1147 H1137 0.929 . S
C1147 C1145 1.433 . S
C1147 N1150 1.384 . S
C1148 H1139 0.929 . S
C1148 C1140 1.378 . S
C1148 C1143 1.350 . S
C1149 H1136 0.929 . S
C1149 C1141 1.433 . S
C1149 N1151 1.384 . S
N1150 C1146 1.427 . S
N1150 C1147 1.384 . S
N1151 C1143 1.427 . S
N1151 C1149 1.384 . S
H1152 C1158 0.930 . S
H1153 C1162 0.930 . S
H1154 C1167 0.929 . S
H1155 C1165 0.929 . S
H1156 C1160 0.929 . S
H1157 C1166 0.929 . S
C1158 H1152 0.930 . S
C1158 C1159 1.367 . S
C1158 C1166 1.378 . S
C1159 C1158 1.367 . S
C1159 C1167 1.433 . S
C1160 H1156 0.929 . S
C1160 C1162 1.378 . S
C1160 C1164 1.350 . S
C1161 C1164 1.463 1_545 S
C1161 C1166 1.350 . S
C1161 N1169 1.427 . S
C1162 H1153 0.930 . S
C1162 C1160 1.378 . S
C1162 C1163 1.367 . S
C1163 C1162 1.367 . S
C1163 C1165 1.433 . S
C1164 C1160 1.350 . S
C1164 C1161 1.463 1_565 S
C1164 N1168 1.427 . S
C1165 H1155 0.929 . S
C1165 C1163 1.433 . S
C1165 N1168 1.384 . S
C1166 H1157 0.929 . S
C1166 C1158 1.378 . S
C1166 C1161 1.350 . S
C1167 H1154 0.929 . S
C1167 C1159 1.433 . S
C1167 N1169 1.384 . S
N1168 C1164 1.427 . S
N1168 C1165 1.384 . S
N1169 C1161 1.427 . S
N1169 C1167 1.384 . S
H1170 C1176 0.930 . S
H1171 C1180 0.930 . S
H1172 C1185 0.929 . S
H1173 C1183 0.929 . S
H1174 C1178 0.929 . S
H1175 C1184 0.929 . S
C1176 H1170 0.930 . S
C1176 C1177 1.367 . S
C1176 C1184 1.378 . S
C1177 C1176 1.367 . S
C1177 C1185 1.433 . S
C1178 H1174 0.929 . S
C1178 C1180 1.378 . S
C1178 C1182 1.350 . S
C1179 C1182 1.463 1_455 S
C1179 C1184 1.350 . S
C1179 N1187 1.427 . S
C1180 H1171 0.930 . S
C1180 C1178 1.378 . S
C1180 C1181 1.367 . S
C1181 C1180 1.367 . S
C1181 C1183 1.433 . S
C1182 C1178 1.350 . S
C1182 C1179 1.463 1_655 S
C1182 N1186 1.427 . S
C1183 H1173 0.929 . S
C1183 C1181 1.433 . S
C1183 N1186 1.384 . S
C1184 H1175 0.929 . S
C1184 C1176 1.378 . S
C1184 C1179 1.350 . S
C1185 H1172 0.929 . S
C1185 C1177 1.433 . S
C1185 N1187 1.384 . S
N1186 C1182 1.427 . S
N1186 C1183 1.384 . S
N1187 C1179 1.427 . S
N1187 C1185 1.384 . S
H1188 C1194 0.930 . S
H1189 C1198 0.930 . S
H1190 C1203 0.929 . S
H1191 C1201 0.929 . S
H1192 C1196 0.929 . S
H1193 C1202 0.929 . S
C1194 H1188 0.930 . S
C1194 C1195 1.367 . S
C1194 C1202 1.378 . S
C1195 C1194 1.367 . S
C1195 C1203 1.433 . S
C1196 H1192 0.929 . S
C1196 C1198 1.378 . S
C1196 C1200 1.350 . S
C1197 C1200 1.463 . S
C1197 C1202 1.350 . S
C1197 N1205 1.427 . S
C1198 H1189 0.930 . S
C1198 C1196 1.378 . S
C1198 C1199 1.367 . S
C1199 C1198 1.367 . S
C1199 C1201 1.433 . S
C1200 C1196 1.350 . S
C1200 C1197 1.463 . S
C1200 N1204 1.427 . S
C1201 H1191 0.929 . S
C1201 C1199 1.433 . S
C1201 N1204 1.384 . S
C1202 H1193 0.929 . S
C1202 C1194 1.378 . S
C1202 C1197 1.350 . S
C1203 H1190 0.929 . S
C1203 C1195 1.433 . S
C1203 N1205 1.384 . S
N1204 C1200 1.427 . S
N1204 C1201 1.384 . S
N1205 C1197 1.427 . S
N1205 C1203 1.384 . S
H1206 C1212 0.930 . S
H1207 C1216 0.930 . S
H1208 C1221 0.929 . S
H1209 C1219 0.929 . S
H1210 C1214 0.929 . S
H1211 C1220 0.929 . S
C1212 H1206 0.930 . S
C1212 C1213 1.367 . S
C1212 C1220 1.378 . S
C1213 C1212 1.367 . S
C1213 C1221 1.433 . S
C1214 H1210 0.929 . S
C1214 C1216 1.378 . S
C1214 C1218 1.350 . S
C1215 C1218 1.463 1_545 S
C1215 C1220 1.350 . S
C1215 N1223 1.427 . S
C1216 H1207 0.930 . S
C1216 C1214 1.378 . S
C1216 C1217 1.367 . S
C1217 C1216 1.367 . S
C1217 C1219 1.433 . S
C1218 C1214 1.350 . S
C1218 C1215 1.463 1_565 S
C1218 N1222 1.427 . S
C1219 H1209 0.929 . S
C1219 C1217 1.433 . S
C1219 N1222 1.384 . S
C1220 H1211 0.929 . S
C1220 C1212 1.378 . S
C1220 C1215 1.350 . S
C1221 H1208 0.929 . S
C1221 C1213 1.433 . S
C1221 N1223 1.384 . S
N1222 C1218 1.427 . S
N1222 C1219 1.384 . S
N1223 C1215 1.427 . S
N1223 C1221 1.384 . S
H1224 C1230 0.930 . S
H1225 C1234 0.930 . S
H1226 C1239 0.929 . S
H1227 C1237 0.929 . S
H1228 C1232 0.929 . S
H1229 C1238 0.929 . S
C1230 H1224 0.930 . S
C1230 C1231 1.367 . S
C1230 C1238 1.378 . S
C1231 C1230 1.367 . S
C1231 C1239 1.433 . S
C1232 H1228 0.929 . S
C1232 C1234 1.378 . S
C1232 C1236 1.350 . S
C1233 C1236 1.463 . S
C1233 C1238 1.350 . S
C1233 N1241 1.427 . S
C1234 H1225 0.930 . S
C1234 C1232 1.378 . S
C1234 C1235 1.367 . S
C1235 C1234 1.367 . S
C1235 C1237 1.433 . S
C1236 C1232 1.350 . S
C1236 C1233 1.463 . S
C1236 N1240 1.427 . S
C1237 H1227 0.929 . S
C1237 C1235 1.433 . S
C1237 N1240 1.384 . S
C1238 H1229 0.929 . S
C1238 C1230 1.378 . S
C1238 C1233 1.350 . S
C1239 H1226 0.929 . S
C1239 C1231 1.433 . S
C1239 N1241 1.384 . S
N1240 C1236 1.427 . S
N1240 C1237 1.384 . S
N1241 C1233 1.427 . S
N1241 C1239 1.384 . S
H1242 C1248 0.930 . S
H1243 C1252 0.930 . S
H1244 C1257 0.929 . S
H1245 C1255 0.929 . S
H1246 C1250 0.929 . S
H1247 C1256 0.929 . S
C1248 H1242 0.930 . S
C1248 C1249 1.367 . S
C1248 C1256 1.378 . S
C1249 C1248 1.367 . S
C1249 C1257 1.433 . S
C1250 H1246 0.929 . S
C1250 C1252 1.378 . S
C1250 C1254 1.350 . S
C1251 C1254 1.463 . S
C1251 C1256 1.350 . S
C1251 N1259 1.427 . S
C1252 H1243 0.930 . S
C1252 C1250 1.378 . S
C1252 C1253 1.367 . S
C1253 C1252 1.367 . S
C1253 C1255 1.433 . S
C1254 C1250 1.350 . S
C1254 C1251 1.463 . S
C1254 N1258 1.427 . S
C1255 H1245 0.929 . S
C1255 C1253 1.433 . S
C1255 N1258 1.384 . S
C1256 H1247 0.929 . S
C1256 C1248 1.378 . S
C1256 C1251 1.350 . S
C1257 H1244 0.929 . S
C1257 C1249 1.433 . S
C1257 N1259 1.384 . S
N1258 C1254 1.427 . S
N1258 C1255 1.384 . S
N1259 C1251 1.427 . S
N1259 C1257 1.384 . S
H1260 C1266 0.930 . S
H1261 C1270 0.930 . S
H1262 C1275 0.929 . S
H1263 C1273 0.929 . S
H1264 C1268 0.929 . S
H1265 C1274 0.929 . S
C1266 H1260 0.930 . S
C1266 C1267 1.367 . S
C1266 C1274 1.378 . S
C1267 C1266 1.367 . S
C1267 C1275 1.433 . S
C1268 H1264 0.929 . S
C1268 C1270 1.378 . S
C1268 C1272 1.350 . S
C1269 C1272 1.463 . S
C1269 C1274 1.350 . S
C1269 N1277 1.427 . S
C1270 H1261 0.930 . S
C1270 C1268 1.378 . S
C1270 C1271 1.367 . S
C1271 C1270 1.367 . S
C1271 C1273 1.433 . S
C1272 C1268 1.350 . S
C1272 C1269 1.463 . S
C1272 N1276 1.427 . S
C1273 H1263 0.929 . S
C1273 C1271 1.433 . S
C1273 N1276 1.384 . S
C1274 H1265 0.929 . S
C1274 C1266 1.378 . S
C1274 C1269 1.350 . S
C1275 H1262 0.929 . S
C1275 C1267 1.433 . S
C1275 N1277 1.384 . S
N1276 C1272 1.427 . S
N1276 C1273 1.384 . S
N1277 C1269 1.427 . S
N1277 C1275 1.384 . S
H1278 C1284 0.930 . S
H1279 C1288 0.930 . S
H1280 C1293 0.929 . S
H1281 C1291 0.929 . S
H1282 C1286 0.929 . S
H1283 C1292 0.929 . S
C1284 H1278 0.930 . S
C1284 C1285 1.367 . S
C1284 C1292 1.378 . S
C1285 C1284 1.367 . S
C1285 C1293 1.433 . S
C1286 H1282 0.929 . S
C1286 C1288 1.378 . S
C1286 C1290 1.350 . S
C1287 C1290 1.463 . S
C1287 C1292 1.350 . S
C1287 N1295 1.427 . S
C1288 H1279 0.930 . S
C1288 C1286 1.378 . S
C1288 C1289 1.367 . S
C1289 C1288 1.367 . S
C1289 C1291 1.433 . S
C1290 C1286 1.350 . S
C1290 C1287 1.463 . S
C1290 N1294 1.427 . S
C1291 H1281 0.929 . S
C1291 C1289 1.433 . S
C1291 N1294 1.384 . S
C1292 H1283 0.929 . S
C1292 C1284 1.378 . S
C1292 C1287 1.350 . S
C1293 H1280 0.929 . S
C1293 C1285 1.433 . S
C1293 N1295 1.384 . S
N1294 C1290 1.427 . S
N1294 C1291 1.384 . S
N1295 C1287 1.427 . S
N1295 C1293 1.384 . S
H1296 C1302 0.930 . S
H1297 C1306 0.930 . S
H1298 C1311 0.929 . S
H1299 C1309 0.929 . S
H1300 C1304 0.929 . S
H1301 C1310 0.929 . S
C1302 H1296 0.930 . S
C1302 C1303 1.367 . S
C1302 C1310 1.378 . S
C1303 C1302 1.367 . S
C1303 C1311 1.433 . S
C1304 H1300 0.929 . S
C1304 C1306 1.378 . S
C1304 C1308 1.350 . S
C1305 C1308 1.463 . S
C1305 C1310 1.350 . S
C1305 N1313 1.427 . S
C1306 H1297 0.930 . S
C1306 C1304 1.378 . S
C1306 C1307 1.367 . S
C1307 C1306 1.367 . S
C1307 C1309 1.433 . S
C1308 C1304 1.350 . S
C1308 C1305 1.463 . S
C1308 N1312 1.427 . S
C1309 H1299 0.929 . S
C1309 C1307 1.433 . S
C1309 N1312 1.384 . S
C1310 H1301 0.929 . S
C1310 C1302 1.378 . S
C1310 C1305 1.350 . S
C1311 H1298 0.929 . S
C1311 C1303 1.433 . S
C1311 N1313 1.384 . S
N1312 C1308 1.427 . S
N1312 C1309 1.384 . S
N1313 C1305 1.427 . S
N1313 C1311 1.384 . S
H1314 C1320 0.930 . S
H1315 C1324 0.930 . S
H1316 C1329 0.929 . S
H1317 C1327 0.929 . S
H1318 C1322 0.929 . S
H1319 C1328 0.929 . S
C1320 H1314 0.930 . S
C1320 C1321 1.367 . S
C1320 C1328 1.378 . S
C1321 C1320 1.367 . S
C1321 C1329 1.433 . S
C1322 H1318 0.929 . S
C1322 C1324 1.378 . S
C1322 C1326 1.350 . S
C1323 C1326 1.463 . S
C1323 C1328 1.350 . S
C1323 N1331 1.427 . S
C1324 H1315 0.930 . S
C1324 C1322 1.378 . S
C1324 C1325 1.367 . S
C1325 C1324 1.367 . S
C1325 C1327 1.433 . S
C1326 C1322 1.350 . S
C1326 C1323 1.463 . S
C1326 N1330 1.427 . S
C1327 H1317 0.929 . S
C1327 C1325 1.433 . S
C1327 N1330 1.384 . S
C1328 H1319 0.929 . S
C1328 C1320 1.378 . S
C1328 C1323 1.350 . S
C1329 H1316 0.929 . S
C1329 C1321 1.433 . S
C1329 N1331 1.384 . S
N1330 C1326 1.427 . S
N1330 C1327 1.384 . S
N1331 C1323 1.427 . S
N1331 C1329 1.384 . S
H1332 C1338 0.930 . S
H1333 C1342 0.930 . S
H1334 C1347 0.929 . S
H1335 C1345 0.929 . S
H1336 C1340 0.929 . S
H1337 C1346 0.929 . S
C1338 H1332 0.930 . S
C1338 C1339 1.367 . S
C1338 C1346 1.378 . S
C1339 C1338 1.367 . S
C1339 C1347 1.433 . S
C1340 H1336 0.929 . S
C1340 C1342 1.378 . S
C1340 C1344 1.350 . S
C1341 C1344 1.463 . S
C1341 C1346 1.350 . S
C1341 N1349 1.427 . S
C1342 H1333 0.930 . S
C1342 C1340 1.378 . S
C1342 C1343 1.367 . S
C1343 C1342 1.367 . S
C1343 C1345 1.433 . S
C1344 C1340 1.350 . S
C1344 C1341 1.463 . S
C1344 N1348 1.427 . S
C1345 H1335 0.929 . S
C1345 C1343 1.433 . S
C1345 N1348 1.384 . S
C1346 H1337 0.929 . S
C1346 C1338 1.378 . S
C1346 C1341 1.350 . S
C1347 H1334 0.929 . S
C1347 C1339 1.433 . S
C1347 N1349 1.384 . S
N1348 C1344 1.427 . S
N1348 C1345 1.384 . S
N1349 C1341 1.427 . S
N1349 C1347 1.384 . S
H1350 C1356 0.930 . S
H1351 C1360 0.930 . S
H1352 C1365 0.929 . S
H1353 C1363 0.929 . S
H1354 C1358 0.929 . S
H1355 C1364 0.929 . S
C1356 H1350 0.930 . S
C1356 C1357 1.367 . S
C1356 C1364 1.378 . S
C1357 C1356 1.367 . S
C1357 C1365 1.433 . S
C1358 H1354 0.929 . S
C1358 C1360 1.378 . S
C1358 C1362 1.350 . S
C1359 C1362 1.463 . S
C1359 C1364 1.350 . S
C1359 N1367 1.427 . S
C1360 H1351 0.930 . S
C1360 C1358 1.378 . S
C1360 C1361 1.367 . S
C1361 C1360 1.367 . S
C1361 C1363 1.433 . S
C1362 C1358 1.350 . S
C1362 C1359 1.463 . S
C1362 N1366 1.427 . S
C1363 H1353 0.929 . S
C1363 C1361 1.433 . S
C1363 N1366 1.384 . S
C1364 H1355 0.929 . S
C1364 C1356 1.378 . S
C1364 C1359 1.350 . S
C1365 H1352 0.929 . S
C1365 C1357 1.433 . S
C1365 N1367 1.384 . S
N1366 C1362 1.427 . S
N1366 C1363 1.384 . S
N1367 C1359 1.427 . S
N1367 C1365 1.384 . S
H1368 C1374 0.930 . S
H1369 C1378 0.930 . S
H1370 C1383 0.929 . S
H1371 C1381 0.929 . S
H1372 C1376 0.929 . S
H1373 C1382 0.929 . S
C1374 H1368 0.930 . S
C1374 C1375 1.367 . S
C1374 C1382 1.378 . S
C1375 C1374 1.367 . S
C1375 C1383 1.433 . S
C1376 H1372 0.929 . S
C1376 C1378 1.378 . S
C1376 C1380 1.350 . S
C1377 C1380 1.463 . S
C1377 C1382 1.350 . S
C1377 N1385 1.427 . S
C1378 H1369 0.930 . S
C1378 C1376 1.378 . S
C1378 C1379 1.367 . S
C1379 C1378 1.367 . S
C1379 C1381 1.433 . S
C1380 C1376 1.350 . S
C1380 C1377 1.463 . S
C1380 N1384 1.427 . S
C1381 H1371 0.929 . S
C1381 C1379 1.433 . S
C1381 N1384 1.384 . S
C1382 H1373 0.929 . S
C1382 C1374 1.378 . S
C1382 C1377 1.350 . S
C1383 H1370 0.929 . S
C1383 C1375 1.433 . S
C1383 N1385 1.384 . S
N1384 C1380 1.427 . S
N1384 C1381 1.384 . S
N1385 C1377 1.427 . S
N1385 C1383 1.384 . S
H1386 C1392 0.930 . S
H1387 C1396 0.930 . S
H1388 C1401 0.929 . S
H1389 C1399 0.929 . S
H1390 C1394 0.929 . S
H1391 C1400 0.929 . S
C1392 H1386 0.930 . S
C1392 C1393 1.367 . S
C1392 C1400 1.378 . S
C1393 C1392 1.367 . S
C1393 C1401 1.433 . S
C1394 H1390 0.929 . S
C1394 C1396 1.378 . S
C1394 C1398 1.350 . S
C1395 C1398 1.463 . S
C1395 C1400 1.350 . S
C1395 N1403 1.427 . S
C1396 H1387 0.930 . S
C1396 C1394 1.378 . S
C1396 C1397 1.367 . S
C1397 C1396 1.367 . S
C1397 C1399 1.433 . S
C1398 C1394 1.350 . S
C1398 C1395 1.463 . S
C1398 N1402 1.427 . S
C1399 H1389 0.929 . S
C1399 C1397 1.433 . S
C1399 N1402 1.384 . S
C1400 H1391 0.929 . S
C1400 C1392 1.378 . S
C1400 C1395 1.350 . S
C1401 H1388 0.929 . S
C1401 C1393 1.433 . S
C1401 N1403 1.384 . S
N1402 C1398 1.427 . S
N1402 C1399 1.384 . S
N1403 C1395 1.427 . S
N1403 C1401 1.384 . S
H1404 C1410 0.930 . S
H1405 C1414 0.930 . S
H1406 C1419 0.929 . S
H1407 C1417 0.929 . S
H1408 C1412 0.929 . S
H1409 C1418 0.929 . S
C1410 H1404 0.930 . S
C1410 C1411 1.367 . S
C1410 C1418 1.378 . S
C1411 C1410 1.367 . S
C1411 C1419 1.433 . S
C1412 H1408 0.929 . S
C1412 C1414 1.378 . S
C1412 C1416 1.350 . S
C1413 C1416 1.463 . S
C1413 C1418 1.350 . S
C1413 N1421 1.427 . S
C1414 H1405 0.930 . S
C1414 C1412 1.378 . S
C1414 C1415 1.367 . S
C1415 C1414 1.367 . S
C1415 C1417 1.433 . S
C1416 C1412 1.350 . S
C1416 C1413 1.463 . S
C1416 N1420 1.427 . S
C1417 H1407 0.929 . S
C1417 C1415 1.433 . S
C1417 N1420 1.384 . S
C1418 H1409 0.929 . S
C1418 C1410 1.378 . S
C1418 C1413 1.350 . S
C1419 H1406 0.929 . S
C1419 C1411 1.433 . S
C1419 N1421 1.384 . S
N1420 C1416 1.427 . S
N1420 C1417 1.384 . S
N1421 C1413 1.427 . S
N1421 C1419 1.384 . S
H1422 C1428 0.930 . S
H1423 C1432 0.930 . S
H1424 C1437 0.929 . S
H1425 C1435 0.929 . S
H1426 C1430 0.929 . S
H1427 C1436 0.929 . S
C1428 H1422 0.930 . S
C1428 C1429 1.367 . S
C1428 C1436 1.378 . S
C1429 C1428 1.367 . S
C1429 C1437 1.433 . S
C1430 H1426 0.929 . S
C1430 C1432 1.378 . S
C1430 C1434 1.350 . S
C1431 C1434 1.463 . S
C1431 C1436 1.350 . S
C1431 N1439 1.427 . S
C1432 H1423 0.930 . S
C1432 C1430 1.378 . S
C1432 C1433 1.367 . S
C1433 C1432 1.367 . S
C1433 C1435 1.433 . S
C1434 C1430 1.350 . S
C1434 C1431 1.463 . S
C1434 N1438 1.427 . S
C1435 H1425 0.929 . S
C1435 C1433 1.433 . S
C1435 N1438 1.384 . S
C1436 H1427 0.929 . S
C1436 C1428 1.378 . S
C1436 C1431 1.350 . S
C1437 H1424 0.929 . S
C1437 C1429 1.433 . S
C1437 N1439 1.384 . S
N1438 C1434 1.427 . S
N1438 C1435 1.384 . S
N1439 C1431 1.427 . S
N1439 C1437 1.384 . S
H1440 C1446 0.930 . S
H1441 C1450 0.930 1_556 S
H1442 C1455 0.929 . S
H1443 C1453 0.929 . S
H1444 C1448 0.929 . S
H1445 C1454 0.929 . S
C1446 H1440 0.930 . S
C1446 C1447 1.367 . S
C1446 C1454 1.378 . S
C1447 C1446 1.367 . S
C1447 C1455 1.433 . S
C1448 H1444 0.929 . S
C1448 C1450 1.378 . S
C1448 C1452 1.350 . S
C1449 C1452 1.463 . S
C1449 C1454 1.350 . S
C1449 N1457 1.427 . S
C1450 H1441 0.930 1_554 S
C1450 C1448 1.378 . S
C1450 C1451 1.367 . S
C1451 C1450 1.367 . S
C1451 C1453 1.433 . S
C1452 C1448 1.350 . S
C1452 C1449 1.463 . S
C1452 N1456 1.427 . S
C1453 H1443 0.929 . S
C1453 C1451 1.433 . S
C1453 N1456 1.384 . S
C1454 H1445 0.929 . S
C1454 C1446 1.378 . S
C1454 C1449 1.350 . S
C1455 H1442 0.929 . S
C1455 C1447 1.433 . S
C1455 N1457 1.384 . S
N1456 C1452 1.427 . S
N1456 C1453 1.384 . S
N1457 C1449 1.427 . S
N1457 C1455 1.384 . S
H1458 C1464 0.930 . S
H1459 C1468 0.930 1_556 S
H1460 C1473 0.929 . S
H1461 C1471 0.929 . S
H1462 C1466 0.929 1_556 S
H1463 C1472 0.929 . S
C1464 H1458 0.930 . S
C1464 C1465 1.367 . S
C1464 C1472 1.378 . S
C1465 C1464 1.367 . S
C1465 C1473 1.433 1_554 S
C1466 H1462 0.929 1_554 S
C1466 C1468 1.378 . S
C1466 C1470 1.350 . S
C1467 C1470 1.463 . S
C1467 C1472 1.350 1_565 S
C1467 N1475 1.427 1_564 S
C1468 H1459 0.930 1_554 S
C1468 C1466 1.378 . S
C1468 C1469 1.367 . S
C1469 C1468 1.367 . S
C1469 C1471 1.433 . S
C1470 C1466 1.350 . S
C1470 C1467 1.463 . S
C1470 N1474 1.427 . S
C1471 H1461 0.929 . S
C1471 C1469 1.433 . S
C1471 N1474 1.384 . S
C1472 H1463 0.929 . S
C1472 C1464 1.378 . S
C1472 C1467 1.350 1_545 S
C1473 H1460 0.929 . S
C1473 C1465 1.433 1_556 S
C1473 N1475 1.384 . S
N1474 C1470 1.427 . S
N1474 C1471 1.384 . S
N1475 C1467 1.427 1_546 S
N1475 C1473 1.384 . S
H1476 C1482 0.930 . S
H1477 C1486 0.930 . S
H1478 C1491 0.929 . S
H1479 C1489 0.929 . S
H1480 C1484 0.929 . S
H1481 C1490 0.939 . S
C1482 H1476 0.930 . S
C1482 C1483 1.367 1_556 S
C1482 C1490 1.369 1_655 S
C1483 C1482 1.367 1_554 S
C1483 C1491 1.433 . S
C1484 H1480 0.929 . S
C1484 C1486 1.378 . S
C1484 C1488 1.350 . S
C1485 C1488 1.463 . S
C1485 C1490 1.349 1_554 S
C1485 N1493 1.427 1_455 S
C1486 H1477 0.930 . S
C1486 C1484 1.378 . S
C1486 C1487 1.367 . S
C1487 C1486 1.367 . S
C1487 C1489 1.433 . S
C1488 C1484 1.350 . S
C1488 C1485 1.463 . S
C1488 N1492 1.427 . S
C1489 H1479 0.929 . S
C1489 C1487 1.433 . S
C1489 N1492 1.384 . S
C1490 H1481 0.939 . S
C1490 C1482 1.369 1_455 S
C1490 C1485 1.349 1_556 S
C1491 H1478 0.929 . S
C1491 C1483 1.433 . S
C1491 N1493 1.384 . S
N1492 C1488 1.427 . S
N1492 C1489 1.384 . S
N1493 C1485 1.427 1_655 S
N1493 C1491 1.384 . S
H1494 C1500 0.930 . S
H1495 C1504 0.930 . S
H1496 C1509 0.929 . S
H1497 C1507 0.929 . S
H1498 C1502 0.929 . S
H1499 C1508 0.929 . S
C1500 H1494 0.930 . S
C1500 C1501 1.367 . S
C1500 C1508 1.378 . S
C1501 C1500 1.367 . S
C1501 C1509 1.433 . S
C1502 H1498 0.929 . S
C1502 C1504 1.378 . S
C1502 C1506 1.350 . S
C1503 C1506 1.463 . S
C1503 C1508 1.350 . S
C1503 N1511 1.427 . S
C1504 H1495 0.930 . S
C1504 C1502 1.378 . S
C1504 C1505 1.367 . S
C1505 C1504 1.367 . S
C1505 C1507 1.433 . S
C1506 C1502 1.350 . S
C1506 C1503 1.463 . S
C1506 N1510 1.427 . S
C1507 H1497 0.929 . S
C1507 C1505 1.433 . S
C1507 N1510 1.384 . S
C1508 H1499 0.929 . S
C1508 C1500 1.378 . S
C1508 C1503 1.350 . S
C1509 H1496 0.929 . S
C1509 C1501 1.433 . S
C1509 N1511 1.384 . S
N1510 C1506 1.427 . S
N1510 C1507 1.384 . S
N1511 C1503 1.427 . S
N1511 C1509 1.384 . S
H1512 C1518 0.930 . S
H1513 C1522 0.930 . S
H1514 C1527 0.929 . S
H1515 C1525 0.929 . S
H1516 C1520 0.929 . S
H1517 C1526 0.929 . S
C1518 H1512 0.930 . S
C1518 C1519 1.367 . S
C1518 C1526 1.378 1_565 S
C1519 C1518 1.367 . S
C1519 C1527 1.433 . S
C1520 H1516 0.929 . S
C1520 C1522 1.378 . S
C1520 C1524 1.350 . S
C1521 C1524 1.463 . S
C1521 C1526 1.350 . S
C1521 N1529 1.427 1_545 S
C1522 H1513 0.930 . S
C1522 C1520 1.378 . S
C1522 C1523 1.367 . S
C1523 C1522 1.367 . S
C1523 C1525 1.433 . S
C1524 C1520 1.350 . S
C1524 C1521 1.463 . S
C1524 N1528 1.427 . S
C1525 H1515 0.929 . S
C1525 C1523 1.433 . S
C1525 N1528 1.384 . S
C1526 H1517 0.929 . S
C1526 C1518 1.378 1_545 S
C1526 C1521 1.350 . S
C1527 H1514 0.929 . S
C1527 C1519 1.433 . S
C1527 N1529 1.384 . S
N1528 C1524 1.427 . S
N1528 C1525 1.384 . S
N1529 C1521 1.427 1_565 S
N1529 C1527 1.384 . S
H1530 C1536 0.930 . S
H1531 C1540 0.930 . S
H1532 C1545 0.929 . S
H1533 C1543 0.929 . S
H1534 C1538 0.929 . S
H1535 C1544 0.929 . S
C1536 H1530 0.930 . S
C1536 C1537 1.367 . S
C1536 C1544 1.378 . S
C1537 C1536 1.367 . S
C1537 C1545 1.433 . S
C1538 H1534 0.929 . S
C1538 C1540 1.378 1_655 S
C1538 C1542 1.350 . S
C1539 C1542 1.463 . S
C1539 C1544 1.350 . S
C1539 N1547 1.427 . S
C1540 H1531 0.930 . S
C1540 C1538 1.378 1_455 S
C1540 C1541 1.367 . S
C1541 C1540 1.367 . S
C1541 C1543 1.433 . S
C1542 C1538 1.350 . S
C1542 C1539 1.463 . S
C1542 N1546 1.427 1_655 S
C1543 H1533 0.929 . S
C1543 C1541 1.433 . S
C1543 N1546 1.384 . S
C1544 H1535 0.929 . S
C1544 C1536 1.378 . S
C1544 C1539 1.350 . S
C1545 H1532 0.929 . S
C1545 C1537 1.433 . S
C1545 N1547 1.384 . S
N1546 C1542 1.427 1_455 S
N1546 C1543 1.384 . S
N1547 C1539 1.427 . S
N1547 C1545 1.384 . S
H1548 C1554 0.930 . S
H1549 C1558 0.930 . S
H1550 C1563 0.929 . S
H1551 C1561 0.929 . S
H1552 C1556 0.929 . S
H1553 C1562 0.929 . S
C1554 H1548 0.930 . S
C1554 C1555 1.367 1_554 S
C1554 C1562 1.378 . S
C1555 C1554 1.367 1_556 S
C1555 C1563 1.433 . S
C1556 H1552 0.929 . S
C1556 C1558 1.378 . S
C1556 C1560 1.350 . S
C1557 C1560 1.463 . S
C1557 C1562 1.350 1_556 S
C1557 N1565 1.427 . S
C1558 H1549 0.930 . S
C1558 C1556 1.378 . S
C1558 C1559 1.367 . S
C1559 C1558 1.367 . S
C1559 C1561 1.433 . S
C1560 C1556 1.350 . S
C1560 C1557 1.463 . S
C1560 N1564 1.427 . S
C1561 H1551 0.929 . S
C1561 C1559 1.433 . S
C1561 N1564 1.384 . S
C1562 H1553 0.929 . S
C1562 C1554 1.378 . S
C1562 C1557 1.350 1_554 S
C1563 H1550 0.929 . S
C1563 C1555 1.433 . S
C1563 N1565 1.384 . S
N1564 C1560 1.427 . S
N1564 C1561 1.384 . S
N1565 C1557 1.427 . S
N1565 C1563 1.384 . S
H1566 C1572 0.930 1_554 S
H1567 C1576 0.930 . S
H1568 C1581 0.929 . S
H1569 C1579 0.929 . S
H1570 C1574 0.929 . S
H1571 C1580 0.929 1_554 S
C1572 H1566 0.930 1_556 S
C1572 C1573 1.367 . S
C1572 C1580 1.378 . S
C1573 C1572 1.367 . S
C1573 C1581 1.433 . S
C1574 H1570 0.929 . S
C1574 C1576 1.378 . S
C1574 C1578 1.350 1_565 S
C1575 C1578 1.463 . S
C1575 C1580 1.350 . S
C1575 N1583 1.427 . S
C1576 H1567 0.930 . S
C1576 C1574 1.378 . S
C1576 C1577 1.367 . S
C1577 C1576 1.367 . S
C1577 C1579 1.433 1_556 S
C1578 C1574 1.350 1_545 S
C1578 C1575 1.463 . S
C1578 N1582 1.427 1_546 S
C1579 H1569 0.929 . S
C1579 C1577 1.433 1_554 S
C1579 N1582 1.384 . S
C1580 H1571 0.929 1_556 S
C1580 C1572 1.378 . S
C1580 C1575 1.350 . S
C1581 H1568 0.929 . S
C1581 C1573 1.433 . S
C1581 N1583 1.384 . S
N1582 C1578 1.427 1_564 S
N1582 C1579 1.384 . S
N1583 C1575 1.427 . S
N1583 C1581 1.384 . S
H1584 C1590 0.930 . S
H1585 C1594 0.926 1_554 S
H1586 C1599 0.929 . S
H1587 C1597 0.929 . S
H1588 C1592 0.929 1_554 S
H1589 C1598 0.929 . S
C1590 H1584 0.930 . S
C1590 C1591 1.367 . S
C1590 C1598 1.378 . S
C1591 C1590 1.367 . S
C1591 C1599 1.433 1_556 S
C1592 H1588 0.929 1_556 S
C1592 C1594 1.378 . S
C1592 C1596 1.350 . S
C1593 C1596 1.463 . S
C1593 C1598 1.350 1_655 S
C1593 N1601 1.428 1_656 S
C1594 H1585 0.926 1_556 S
C1594 C1592 1.378 . S
C1594 C1595 1.367 . S
C1595 C1594 1.367 . S
C1595 C1597 1.433 . S
C1596 C1592 1.350 . S
C1596 C1593 1.463 . S
C1596 N1600 1.427 . S
C1597 H1587 0.929 . S
C1597 C1595 1.433 . S
C1597 N1600 1.384 . S
C1598 H1589 0.929 . S
C1598 C1590 1.378 . S
C1598 C1593 1.350 1_455 S
C1599 H1586 0.929 . S
C1599 C1591 1.433 1_554 S
C1599 N1601 1.387 . S
N1600 C1596 1.427 . S
N1600 C1597 1.384 . S
N1601 C1593 1.428 1_454 S
N1601 C1599 1.387 . S
H1602 C1608 0.930 . S
H1603 C1612 0.930 . S
H1604 C1617 0.929 . S
H1605 C1615 0.929 . S
H1606 C1610 0.929 . S
H1607 C1616 0.929 . S
C1608 H1602 0.930 . S
C1608 C1609 1.367 . S
C1608 C1616 1.378 . S
C1609 C1608 1.367 . S
C1609 C1617 1.433 . S
C1610 H1606 0.929 . S
C1610 C1612 1.378 . S
C1610 C1614 1.350 . S
C1611 C1614 1.463 . S
C1611 C1616 1.350 . S
C1611 N1619 1.427 . S
C1612 H1603 0.930 . S
C1612 C1610 1.378 . S
C1612 C1613 1.367 . S
C1613 C1612 1.367 . S
C1613 C1615 1.433 . S
C1614 C1610 1.350 . S
C1614 C1611 1.463 . S
C1614 N1618 1.427 . S
C1615 H1605 0.929 . S
C1615 C1613 1.433 . S
C1615 N1618 1.384 . S
C1616 H1607 0.929 . S
C1616 C1608 1.378 . S
C1616 C1611 1.350 . S
C1617 H1604 0.929 . S
C1617 C1609 1.433 . S
C1617 N1619 1.384 . S
N1618 C1614 1.427 . S
N1618 C1615 1.384 . S
N1619 C1611 1.427 . S
N1619 C1617 1.384 . S
H1620 C1626 0.930 . S
H1621 C1630 0.930 . S
H1622 C1635 0.929 . S
H1623 C1633 0.929 . S
H1624 C1628 0.929 1_565 S
H1625 C1634 0.929 . S
C1626 H1620 0.930 . S
C1626 C1627 1.367 . S
C1626 C1634 1.378 . S
C1627 C1626 1.367 . S
C1627 C1635 1.433 . S
C1628 H1624 0.929 1_545 S
C1628 C1630 1.378 . S
C1628 C1632 1.350 1_545 S
C1629 C1632 1.463 . S
C1629 C1634 1.350 . S
C1629 N1637 1.427 . S
C1630 H1621 0.930 . S
C1630 C1628 1.378 . S
C1630 C1631 1.367 . S
C1631 C1630 1.367 . S
C1631 C1633 1.433 . S
C1632 C1628 1.350 1_565 S
C1632 C1629 1.463 . S
C1632 N1636 1.427 1_565 S
C1633 H1623 0.929 . S
C1633 C1631 1.433 . S
C1633 N1636 1.384 . S
C1634 H1625 0.929 . S
C1634 C1626 1.378 . S
C1634 C1629 1.350 . S
C1635 H1622 0.929 . S
C1635 C1627 1.433 . S
C1635 N1637 1.384 . S
N1636 C1632 1.427 1_545 S
N1636 C1633 1.384 . S
N1637 C1629 1.427 . S
N1637 C1635 1.384 . S
H1638 C1644 0.930 . S
H1639 C1648 0.930 . S
H1640 C1653 0.929 . S
H1641 C1651 0.929 . S
H1642 C1646 0.929 . S
H1643 C1652 0.929 1_455 S
C1644 H1638 0.930 . S
C1644 C1645 1.367 . S
C1644 C1652 1.378 . S
C1645 C1644 1.367 . S
C1645 C1653 1.433 . S
C1646 H1642 0.929 . S
C1646 C1648 1.378 . S
C1646 C1650 1.350 . S
C1647 C1650 1.463 . S
C1647 C1652 1.350 1_455 S
C1647 N1655 1.427 1_455 S
C1648 H1639 0.930 . S
C1648 C1646 1.378 . S
C1648 C1649 1.367 . S
C1649 C1648 1.367 . S
C1649 C1651 1.433 . S
C1650 C1646 1.350 . S
C1650 C1647 1.463 . S
C1650 N1654 1.427 . S
C1651 H1641 0.929 . S
C1651 C1649 1.433 . S
C1651 N1654 1.384 . S
C1652 H1643 0.929 1_655 S
C1652 C1644 1.378 . S
C1652 C1647 1.350 1_655 S
C1653 H1640 0.929 . S
C1653 C1645 1.433 . S
C1653 N1655 1.384 . S
N1654 C1650 1.427 . S
N1654 C1651 1.384 . S
N1655 C1647 1.427 1_655 S
N1655 C1653 1.384 . S
C1015 C58 1.516 . S
C1019 C573 1.516 . S
C1033 C657 1.523 . S
C1037 C142 1.523 . S
C1051 C741 1.524 . S
C1055 C226 1.524 . S
C1069 C310 1.524 . S
C1073 C825 1.524 . S
C1087 C909 1.523 . S
C1091 C394 1.523 . S
C1105 C993 1.497 . S
C1109 C478 1.497 . S
C1123 C399 1.382 . S
C1127 C63 1.383 . S
C1141 C147 1.381 . S
C1145 C483 1.384 . S
C1159 C315 1.385 . S
C1163 C231 1.381 . S
C1177 C914 1.386 . S
C1181 C578 1.380 . S
C1195 C998 1.390 . S
C1199 C662 1.392 . S
C1213 C746 1.382 . S
C1217 C830 1.392 . S
C1231 C991 1.551 . S
C1235 C74 1.561 . S
C1249 C158 1.572 . S
C1253 C823 1.557 . S
C1267 C242 1.572 . S
C1271 C907 1.555 . S
C1285 C326 1.572 . S
C1289 C655 1.553 . S
C1303 C410 1.565 . S
C1307 C739 1.546 . S
C1321 C571 1.547 . S
C1325 C494 1.564 . S
C1339 C567 1.572 . S
C1343 C476 1.554 . S
C1357 C308 1.552 . S
C1361 C651 1.561 . S
C1375 C735 1.566 . S
C1379 C392 1.546 . S
C1393 C140 1.547 . S
C1397 C819 1.567 . S
C1411 C903 1.562 . S
C1415 C224 1.549 . S
C1429 C56 1.555 . S
C1433 C987 1.572 . S
C1447 C69 1.814 . S
C1451 C644 1.762 1_554 S
C1465 C728 1.774 1_554 S
C1469 C153 1.817 . S
C1483 C560 1.762 1_554 S
C1487 C237 1.807 . S
C1501 C321 1.815 . S
C1505 C980 1.763 . S
C1519 C812 1.768 . S
C1523 C405 1.809 . S
C1537 C489 1.808 . S
C1541 C896 1.765 . S
C1555 C151 1.760 1_556 S
C1559 C562 1.811 . S
C1573 C646 1.817 . S
C1577 C235 1.774 1_556 S
C1591 C67 1.772 1_556 S
C1595 C730 1.817 . S
C1609 C814 1.817 . S
C1613 C487 1.774 . S
C1627 C898 1.814 . S
C1631 C319 1.774 . S
C1645 C403 1.774 . S
C1649 C982 1.814 . S
