# Generated by pormake.
# Topology uop, (4)-cn, num edge types: 1
# Building blocks:
#     Node 0, Type 0, BuildingBlock: QUQFOY_clean_sbu_3, # of connection points: 4
#     Node 1, Type 0, BuildingBlock: QUQFOY_clean_sbu_3, # of connection points: 4
#     Node 2, Type 0, BuildingBlock: QUQFOY_clean_sbu_3, # of connection points: 4
#     Node 3, Type 0, BuildingBlock: QUQFOY_clean_sbu_3, # of connection points: 4
#     Node 4, Type 0, BuildingBlock: QUQFOY_clean_sbu_3, # of connection points: 4
#     Node 5, Type 0, BuildingBlock: QUQFOY_clean_sbu_3, # of connection points: 4
#     Node 6, Type 0, BuildingBlock: QUQFOY_clean_sbu_3, # of connection points: 4
#     Node 7, Type 0, BuildingBlock: QUQFOY_clean_sbu_3, # of connection points: 4
#     Node 8, Type 0, BuildingBlock: QUQFOY_clean_sbu_3, # of connection points: 4
#     Node 9, Type 0, BuildingBlock: QUQFOY_clean_sbu_3, # of connection points: 4
#     Node 10, Type 0, BuildingBlock: QUQFOY_clean_sbu_3, # of connection points: 4
#     Node 11, Type 0, BuildingBlock: QUQFOY_clean_sbu_3, # of connection points: 4
#     Edge 12, Type (0, 0), BuildingBlock: AJUNOK_clean_linker_0, # of connection points: 2
#     Edge 13, Type (0, 0), BuildingBlock: AJUNOK_clean_linker_0, # of connection points: 2
#     Edge 14, Type (0, 0), BuildingBlock: AJUNOK_clean_linker_0, # of connection points: 2
#     Edge 15, Type (0, 0), BuildingBlock: AJUNOK_clean_linker_0, # of connection points: 2
#     Edge 16, Type (0, 0), BuildingBlock: AJUNOK_clean_linker_0, # of connection points: 2
#     Edge 17, Type (0, 0), BuildingBlock: AJUNOK_clean_linker_0, # of connection points: 2
#     Edge 18, Type (0, 0), BuildingBlock: AJUNOK_clean_linker_0, # of connection points: 2
#     Edge 19, Type (0, 0), BuildingBlock: AJUNOK_clean_linker_0, # of connection points: 2
#     Edge 20, Type (0, 0), BuildingBlock: AJUNOK_clean_linker_0, # of connection points: 2
#     Edge 21, Type (0, 0), BuildingBlock: AJUNOK_clean_linker_0, # of connection points: 2
#     Edge 22, Type (0, 0), BuildingBlock: AJUNOK_clean_linker_0, # of connection points: 2
#     Edge 23, Type (0, 0), BuildingBlock: AJUNOK_clean_linker_0, # of connection points: 2
#     Edge 24, Type (0, 0), BuildingBlock: AJUNOK_clean_linker_0, # of connection points: 2
#     Edge 25, Type (0, 0), BuildingBlock: AJUNOK_clean_linker_0, # of connection points: 2
#     Edge 26, Type (0, 0), BuildingBlock: AJUNOK_clean_linker_0, # of connection points: 2
#     Edge 27, Type (0, 0), BuildingBlock: AJUNOK_clean_linker_0, # of connection points: 2
#     Edge 28, Type (0, 0), BuildingBlock: AJUNOK_clean_linker_0, # of connection points: 2
#     Edge 29, Type (0, 0), BuildingBlock: AJUNOK_clean_linker_0, # of connection points: 2
#     Edge 30, Type (0, 0), BuildingBlock: AJUNOK_clean_linker_0, # of connection points: 2
#     Edge 31, Type (0, 0), BuildingBlock: AJUNOK_clean_linker_0, # of connection points: 2
#     Edge 32, Type (0, 0), BuildingBlock: AJUNOK_clean_linker_0, # of connection points: 2
#     Edge 33, Type (0, 0), BuildingBlock: AJUNOK_clean_linker_0, # of connection points: 2
#     Edge 34, Type (0, 0), BuildingBlock: AJUNOK_clean_linker_0, # of connection points: 2
#     Edge 35, Type (0, 0), BuildingBlock: AJUNOK_clean_linker_0, # of connection points: 2
# Relax obj value: 0.156
# Max RMSD: 0.165
# Mean RMSD: 0.159
data_MOF--net-uop--node1-QUQFOY_clean_sbu_3--edge1-AJUNOK_clean_linker_0
_symmetry_space_group_name_H-M    P1
_symmetry_Int_Tables_number       1
_symmetry_cell_setting            triclinic
loop_
_symmetry_equiv_pos_as_xyz
'x, y, z'
_cell_length_a     24.662651
_cell_length_b     25.345913
_cell_length_c     35.863596
_cell_angle_alpha  89.783961
_cell_angle_beta   90.075061
_cell_angle_gamma 119.24254
loop_
_atom_site_label
_atom_site_type_symbol
_atom_site_fract_x
_atom_site_fract_y
_atom_site_fract_z
_atom_type_partial_charge
C0 C 0.09272 0.26423 0.14569 0.0
O1 O 0.10973 0.28491 0.113 0.0
Cd2 Cd 0.20264 0.37966 0.10389 0.0
O3 O 0.12727 0.29141 0.17329 0.0
Cd4 Cd 0.22982 0.37635 0.18605 0.0
C5 C 0.18469 0.47686 0.16324 0.0
O6 O 0.29195 0.38156 0.13148 0.0
O7 O 0.32251 0.46319 0.16392 0.0
O8 O 0.26548 0.31425 0.21761 0.0
C9 C 0.33432 0.43489 0.13899 0.0
O10 O 0.18774 0.4606 0.13008 0.0
C11 C 0.27066 0.33662 0.2498 0.0
O12 O 0.19361 0.45037 0.19095 0.0
O13 O 0.25561 0.37777 0.25313 0.0
C14 C 0.84235 0.2733 0.63853 0.0
O15 O 0.80536 0.29466 0.63642 0.0
Cd16 Cd 0.73529 0.28045 0.58599 0.0
O17 O 0.84354 0.23879 0.61312 0.0
Cd18 Cd 0.79121 0.19925 0.55184 0.0
C19 C 0.85352 0.34533 0.52232 0.0
O20 O 0.68557 0.17874 0.56535 0.0
O21 O 0.71084 0.1847 0.50737 0.0
O22 O 0.7775 0.09953 0.56671 0.0
C23 C 0.6689 0.17318 0.53143 0.0
O24 O 0.80826 0.34554 0.53922 0.0
C25 C 0.79641 0.09123 0.5355 0.0
O26 O 0.86205 0.29952 0.52433 0.0
O27 O 0.81791 0.13552 0.51275 0.0
C28 C 0.67332 0.81746 0.82889 0.0
O29 O 0.65388 0.8159 0.79596 0.0
Cd30 Cd 0.5576 0.81528 0.78521 0.0
O31 O 0.64409 0.82327 0.85628 0.0
Cd32 Cd 0.55456 0.83747 0.86784 0.0
C33 C 0.45674 0.6962 0.83991 0.0
O34 O 0.55344 0.89803 0.81479 0.0
O35 O 0.46661 0.84348 0.8439 0.0
O36 O 0.61212 0.92656 0.90696 0.0
C37 C 0.49762 0.88544 0.82072 0.0
O38 O 0.47346 0.71785 0.80719 0.0
C39 C 0.58252 0.90285 0.93681 0.0
O40 O 0.48229 0.72904 0.86836 0.0
O41 O 0.53963 0.8481 0.93483 0.0
C42 C 0.83505 0.69798 0.14466 0.0
O43 O 0.81826 0.68197 0.11129 0.0
Cd44 Cd 0.72464 0.58846 0.10073 0.0
O45 O 0.80027 0.66698 0.17136 0.0
Cd46 Cd 0.69739 0.58129 0.1815 0.0
C47 C 0.74533 0.48637 0.15397 0.0
O48 O 0.63498 0.58564 0.12917 0.0
O49 O 0.60598 0.49868 0.15505 0.0
O50 O 0.68491 0.64983 0.22368 0.0
C51 C 0.59321 0.53095 0.13365 0.0
O52 O 0.73933 0.50379 0.12159 0.0
C53 C 0.65959 0.61186 0.24986 0.0
O54 O 0.7383 0.51142 0.18289 0.0
O55 O 0.65214 0.55914 0.24471 0.0
C56 C 0.06921 0.67152 0.63134 0.0
O57 O 0.11336 0.65944 0.63387 0.0
Cd58 Cd 0.17455 0.6616 0.58124 0.0
O59 O 0.06135 0.69484 0.60166 0.0
Cd60 Cd 0.11429 0.73441 0.54046 0.0
C61 C 0.05096 0.58637 0.51994 0.0
O62 O 0.221 0.75862 0.55346 0.0
O63 O 0.19287 0.74441 0.49576 0.0
O64 O 0.12715 0.83321 0.55555 0.0
C65 C 0.23598 0.75933 0.51953 0.0
O66 O 0.09527 0.58882 0.53957 0.0
C67 C 0.10876 0.84238 0.52433 0.0
O68 O 0.04374 0.63274 0.51634 0.0
O69 O 0.08768 0.79871 0.50129 0.0
C70 C 0.23441 0.12257 0.83002 0.0
O71 O 0.24997 0.12173 0.79644 0.0
Cd72 Cd 0.34474 0.12104 0.78281 0.0
O73 O 0.26651 0.11836 0.85637 0.0
Cd74 Cd 0.35602 0.1033 0.8651 0.0
C75 C 0.45131 0.24285 0.83297 0.0
O76 O 0.35045 0.03909 0.81292 0.0
O77 O 0.4405 0.09423 0.83838 0.0
O78 O 0.30086 0.01539 0.90544 0.0
C79 C 0.40615 0.05026 0.81738 0.0
O80 O 0.43085 0.21956 0.8011 0.0
C81 C 0.33248 0.03914 0.93458 0.0
O82 O 0.42903 0.21144 0.86248 0.0
O83 O 0.37517 0.09394 0.93193 0.0
C84 C 0.55317 0.67302 0.3756 0.0
O85 O 0.49445 0.65008 0.37558 0.0
Cd86 Cd 0.43221 0.65771 0.42435 0.0
O87 O 0.58566 0.705 0.40291 0.0
Cd88 Cd 0.56503 0.73753 0.46458 0.0
C89 C 0.4803 0.5887 0.48855 0.0
O90 O 0.481 0.75765 0.44779 0.0
O91 O 0.49284 0.74755 0.5064 0.0
O92 O 0.65161 0.83858 0.45347 0.0
C93 C 0.46509 0.76017 0.48107 0.0
O94 O 0.43643 0.5893 0.4701 0.0
C95 C 0.67549 0.84555 0.48571 0.0
O96 O 0.53431 0.63536 0.48946 0.0
O97 O 0.65092 0.79991 0.50739 0.0
C98 C 0.80126 0.68681 0.85981 0.0
O99 O 0.79846 0.668 0.89294 0.0
Cd100 Cd 0.7957 0.57354 0.90476 0.0
O101 O 0.80766 0.65797 0.83288 0.0
Cd102 Cd 0.82356 0.5713 0.82295 0.0
C103 C 0.67791 0.47363 0.84788 0.0
O104 O 0.8813 0.56766 0.8778 0.0
O105 O 0.82652 0.4844 0.84742 0.0
O106 O 0.92002 0.6282 0.7886 0.0
C107 C 0.86753 0.5131 0.87192 0.0
O108 O 0.69818 0.49118 0.88077 0.0
C109 C 0.89958 0.60319 0.75731 0.0
O110 O 0.71278 0.49868 0.81976 0.0
O111 O 0.8427 0.56268 0.75605 0.0
C112 C 0.09189 0.82779 0.18076 0.0
O113 O 0.10781 0.82808 0.21441 0.0
Cd114 Cd 0.20353 0.82917 0.22844 0.0
O115 O 0.12851 0.83215 0.15462 0.0
Cd116 Cd 0.23243 0.84608 0.14601 0.0
C117 C 0.1884 0.70695 0.17934 0.0
O118 O 0.29107 0.91133 0.19799 0.0
O119 O 0.32691 0.8572 0.17259 0.0
O120 O 0.26294 0.93194 0.10397 0.0
C121 C 0.33603 0.90085 0.19366 0.0
O122 O 0.1916 0.73051 0.21113 0.0
C123 C 0.2699 0.90683 0.07525 0.0
O124 O 0.19693 0.73799 0.14971 0.0
O125 O 0.25959 0.85284 0.07923 0.0
C126 C 0.36675 0.26164 0.37547 0.0
O127 O 0.4235 0.27495 0.37456 0.0
Cd128 Cd 0.48057 0.27162 0.42781 0.0
O129 O 0.33393 0.23808 0.4046 0.0
Cd130 Cd 0.34623 0.19934 0.4666 0.0
C131 C 0.43283 0.34651 0.48919 0.0
O132 O 0.42762 0.1737 0.45416 0.0
O133 O 0.41409 0.18779 0.51175 0.0
O134 O 0.25938 0.10132 0.45066 0.0
C135 C 0.44183 0.17246 0.48801 0.0
O136 O 0.47496 0.34389 0.47007 0.0
C137 C 0.23175 0.09141 0.48184 0.0
O138 O 0.37823 0.30092 0.49144 0.0
O139 O 0.25481 0.13426 0.50545 0.0
C140 C 0.11007 0.25519 0.86581 0.0
O141 O 0.10911 0.27051 0.89928 0.0
Cd142 Cd 0.1079 0.36287 0.91078 0.0
O143 O 0.10501 0.28594 0.83936 0.0
Cd144 Cd 0.08521 0.37066 0.83088 0.0
C145 C 0.22898 0.46682 0.85704 0.0
O146 O 0.01913 0.36413 0.88398 0.0
O147 O 0.07639 0.45208 0.85914 0.0
O148 O 0.00159 0.30304 0.78945 0.0
C149 C 0.03083 0.41846 0.87988 0.0
O150 O 0.20658 0.44812 0.88946 0.0
C151 C 0.01318 0.34147 0.76368 0.0
O152 O 0.19588 0.44255 0.82825 0.0
O153 O 0.05969 0.3937 0.76844 0.0
C154 C 0.8343 0.13331 0.17696 0.0
O155 O 0.81777 0.13354 0.21037 0.0
Cd156 Cd 0.7241 0.13651 0.2232 0.0
O157 O 0.79844 0.12914 0.15033 0.0
Cd158 Cd 0.69427 0.11484 0.1405 0.0
C159 C 0.74174 0.25635 0.16892 0.0
O160 O 0.63514 0.05501 0.19436 0.0
O161 O 0.60143 0.10908 0.16617 0.0
O162 O 0.66122 0.02405 0.10342 0.0
C163 C 0.5917 0.06759 0.18945 0.0
O164 O 0.7391 0.23435 0.20128 0.0
C165 C 0.65338 0.04539 0.07315 0.0
O166 O 0.73119 0.22351 0.14006 0.0
O167 O 0.66537 0.10023 0.07367 0.0
C168 C 0.1762 0.61922 0.14135 0.0
C169 C 0.17925 0.64454 0.17665 0.0
C170 C 0.17492 0.5637 0.13754 0.0
C171 C 0.17686 0.53091 0.16885 0.0
H172 H 0.17664 0.64322 0.1162 0.0
H173 H 0.17461 0.54758 0.10957 0.0
S174 S 0.17765 0.57361 0.26789 0.0
N175 N 0.17857 0.62971 0.24387 0.0
N176 N 0.17642 0.52543 0.23663 0.0
C177 C 0.17648 0.55398 0.20445 0.0
C178 C 0.17762 0.61067 0.20837 0.0
C179 C 0.57025 0.17353 0.54685 0.0
C180 C 0.60772 0.16578 0.52035 0.0
C181 C 0.51554 0.1735 0.53628 0.0
C182 C 0.49604 0.16553 0.49882 0.0
H183 H 0.58427 0.1818 0.57583 0.0
H184 H 0.48935 0.18153 0.55759 0.0
S185 S 0.57363 0.13584 0.41935 0.0
N186 N 0.61864 0.14445 0.45552 0.0
N187 N 0.51579 0.14427 0.43567 0.0
C188 C 0.53138 0.15456 0.47234 0.0
C189 C 0.58721 0.15475 0.48309 0.0
C190 C 0.36624 0.60365 0.81365 0.0
C191 C 0.40357 0.63404 0.84461 0.0
C192 C 0.31146 0.54832 0.81773 0.0
C193 C 0.29158 0.52082 0.85293 0.0
H194 H 0.37801 0.62374 0.78609 0.0
H195 H 0.28339 0.5282 0.79315 0.0
S196 S 0.37713 0.57738 0.94221 0.0
N197 N 0.42003 0.62934 0.91118 0.0
N198 N 0.31724 0.52531 0.91888 0.0
C199 C 0.33038 0.54889 0.88384 0.0
C200 C 0.38622 0.60543 0.87968 0.0
C201 C 0.74405 0.39503 0.12668 0.0
C202 C 0.75389 0.43249 0.15776 0.0
C203 C 0.74298 0.33947 0.13026 0.0
C204 C 0.75184 0.31897 0.16506 0.0
H205 H 0.73445 0.40736 0.0995 0.0
H206 H 0.73272 0.31145 0.1057 0.0
S207 S 0.78886 0.40418 0.25416 0.0
N208 N 0.77942 0.44809 0.22378 0.0
N209 N 0.77772 0.34391 0.23057 0.0
C210 C 0.76567 0.35773 0.19596 0.0
C211 C 0.7666 0.41434 0.19231 0.0
C212 C 0.39212 0.76523 0.52731 0.0
C213 C 0.40966 0.76623 0.48986 0.0
C214 C 0.33701 0.76521 0.53664 0.0
C215 C 0.29703 0.76594 0.5089 0.0
H216 H 0.42043 0.76302 0.54973 0.0
H217 H 0.32486 0.76274 0.56586 0.0
S218 S 0.32438 0.77477 0.40669 0.0
N219 N 0.38473 0.7725 0.42487 0.0
N220 N 0.28106 0.77233 0.44241 0.0
C221 C 0.31523 0.76957 0.47136 0.0
C222 C 0.37155 0.76979 0.46184 0.0
C223 C 0.5289 0.32967 0.87097 0.0
C224 C 0.50445 0.30544 0.83574 0.0
C225 C 0.58321 0.38542 0.87453 0.0
C226 C 0.61573 0.41946 0.843 0.0
H227 H 0.50713 0.3046 0.89619 0.0
H228 H 0.60095 0.40067 0.90235 0.0
S229 S 0.56719 0.38018 0.74435 0.0
N230 N 0.5139 0.32282 0.76859 0.0
N231 N 0.61612 0.42749 0.77535 0.0
C232 C 0.58999 0.3975 0.80761 0.0
C233 C 0.5344 0.34062 0.80396 0.0
C234 C 0.50271 0.54667 0.12426 0.0
C235 C 0.52871 0.5084 0.12182 0.0
C236 C 0.43826 0.52251 0.12625 0.0
C237 C 0.39824 0.45962 0.12515 0.0
H238 H 0.53211 0.59482 0.12845 0.0
H239 H 0.41995 0.55292 0.13147 0.0
S240 S 0.4439 0.34198 0.11022 0.0
N241 N 0.51027 0.40612 0.11209 0.0
N242 N 0.3888 0.3606 0.115 0.0
C243 C 0.42356 0.4217 0.11786 0.0
C244 C 0.48915 0.44623 0.11644 0.0
C245 C 0.01397 0.47667 0.50927 0.0
C246 C 0.00225 0.52581 0.50726 0.0
C247 C -0.0347 0.41682 0.50943 0.0
C248 C 0.90312 0.40398 0.50774 0.0
H249 H 0.06072 0.4844 0.51382 0.0
H250 H -0.02358 0.38105 0.51462 0.0
S251 S 0.84845 0.51508 0.49142 0.0
N252 N 0.92459 0.55676 0.49552 0.0
N253 N 0.83314 0.44424 0.49571 0.0
C254 C 0.89134 0.45213 0.50046 0.0
C255 C 0.94095 0.51314 0.50022 0.0
C256 C 0.49135 0.02803 0.80358 0.0
C257 C 0.4272 0.00758 0.80597 0.0
C258 C 0.51413 -0.01278 0.80414 0.0
C259 C 0.47334 0.9249 0.80778 0.0
H260 H 0.52436 0.07601 0.80404 0.0
H261 H 0.56396 0.00502 0.80525 0.0
S262 S 0.3012 0.84791 0.80711 0.0
N263 N 0.323 0.92072 0.80566 0.0
N264 N 0.36605 0.84391 0.80744 0.0
C265 C 0.40906 0.9036 0.80601 0.0
C266 C 0.38582 0.94509 0.80486 0.0
C267 C 0.40847 0.48026 0.5039 0.0
C268 C 0.46977 0.52905 0.50231 0.0
C269 C 0.39643 0.42021 0.50402 0.0
C270 C 0.4453 0.40678 0.50244 0.0
H271 H 0.36925 0.48829 0.50189 0.0
H272 H 0.34862 0.38451 0.50175 0.0
S273 S 0.6137 0.51737 0.50883 0.0
N274 N 0.57959 0.55948 0.50723 0.0
N275 N 0.55697 0.44658 0.50758 0.0
C276 C 0.50655 0.45487 0.50609 0.0
C277 C 0.51883 0.5161 0.50608 0.0
C278 C -0.03095 0.52567 0.89257 0.0
C279 C 0.90526 0.48745 0.88671 0.0
C280 C 0.0096 0.50196 0.89451 0.0
C281 C -0.01265 0.43942 0.89125 0.0
H282 H -0.01141 0.57435 0.89197 0.0
H283 H 0.05913 0.53316 0.89549 0.0
S284 S 0.82246 0.31987 0.88511 0.0
N285 N 0.82023 0.38394 0.88462 0.0
N286 N 0.89661 0.33919 0.88888 0.0
C287 C 0.92291 0.40038 0.89049 0.0
C288 C 0.88169 0.42457 0.88797 0.0
C289 C 0.44386 0.92416 0.20736 0.0
C290 C 0.39967 0.94393 0.20535 0.0
C291 C 0.50742 0.96552 0.20657 0.0
C292 C 0.52841 0.02773 0.2031 0.0
H293 H 0.42929 0.87632 0.20664 0.0
H294 H 0.53978 0.94823 0.205 0.0
S295 S 0.43199 0.10299 0.20561 0.0
N296 N 0.38136 0.02997 0.2068 0.0
N297 N 0.50124 0.10787 0.20456 0.0
C298 C 0.48503 0.04834 0.20555 0.0
C299 C 0.4203 0.00625 0.20693 0.0
C300 C 0.27547 0.31814 0.31822 0.0
C301 C 0.29429 0.31605 0.2815 0.0
C302 C 0.29729 0.29827 0.34843 0.0
C303 C 0.33993 0.2771 0.34303 0.0
H304 H 0.24333 0.33483 0.32364 0.0
H305 H 0.28204 0.30112 0.37629 0.0
S306 S 0.40374 0.26269 0.25239 0.0
N307 N 0.35737 0.29023 0.24144 0.0
N308 N 0.39956 0.25466 0.29817 0.0
C309 C 0.35905 0.27482 0.30646 0.0
C310 C 0.33591 0.2938 0.27571 0.0
C311 C 0.90117 0.24981 0.68665 0.0
C312 C 0.887 0.29176 0.66982 0.0
C313 C 0.94243 0.26644 0.7169 0.0
C314 C -0.02747 0.32607 0.73053 0.0
H315 H 0.87914 0.2035 0.67694 0.0
H316 H 0.95099 0.23237 0.72964 0.0
S317 S 0.95368 0.45373 0.69481 0.0
N318 N 0.90726 0.39582 0.66839 0.0
N319 N -0.01364 0.42747 0.72431 0.0
C320 C -0.03994 0.36885 0.71325 0.0
C321 C 0.91684 0.35156 0.68314 0.0
C322 C 0.6306 0.00155 0.97078 0.0
C323 C 0.59785 0.93786 0.972 0.0
C324 C 0.64703 0.03603 1.00356 0.0
C325 C 0.63247 0.00817 0.03885 0.0
H326 H 0.64363 0.02509 0.94426 0.0
H327 H 0.67256 0.08487 1.0012 0.0
S328 S 0.54593 0.8429 0.05746 0.0
N329 N 0.55002 0.8484 0.01154 0.0
N330 N 0.58196 0.91302 0.07309 0.0
C331 C 0.59929 0.94454 0.04049 0.0
C332 C 0.58166 0.90945 0.00711 0.0
C333 C 0.55262 0.60027 0.32881 0.0
C334 C 0.58305 0.65847 0.34458 0.0
C335 C 0.57907 0.58479 0.29916 0.0
C336 C 0.63606 0.62748 0.28353 0.0
H337 H 0.50805 0.56623 0.33959 0.0
H338 H 0.5537 0.53968 0.28762 0.0
S339 S 0.73517 0.78548 0.31512 0.0
N340 N 0.67441 0.75821 0.34329 0.0
N341 N 0.72301 0.72988 0.28645 0.0
C342 C 0.66727 0.68567 0.29917 0.0
C343 C 0.64109 0.70095 0.33003 0.0
C344 C 0.04676 0.66215 0.6996 0.0
C345 C 0.02509 0.6557 0.66275 0.0
C346 C 0.00571 0.64554 0.72988 0.0
C347 C 0.94122 0.62028 0.72446 0.0
H348 H 0.09592 0.68062 0.70512 0.0
H349 H 0.0247 0.65173 0.75779 0.0
S350 S 0.8607 0.59158 0.63324 0.0
N351 N 0.93502 0.62166 0.62232 0.0
N352 N 0.85754 0.58872 0.67927 0.0
C353 C 0.91881 0.61275 0.68769 0.0
C354 C -0.03916 0.63099 0.65684 0.0
C355 C 0.31733 0.00293 0.03817 0.0
C356 C 0.28827 0.9393 0.03899 0.0
C357 C 0.33305 0.035 1.00433 0.0
C358 C 0.3191 0.00463 0.96999 0.0
H359 H 0.32797 0.0283 0.06391 0.0
H360 H 0.35483 0.08387 0.00511 0.0
S361 S 0.24535 0.83856 0.95664 0.0
N362 N 0.24825 0.84728 1.00234 0.0
N363 N 0.27648 0.90738 0.93879 0.0
C364 C 0.2908 0.94108 0.97036 0.0
C365 C 0.27579 0.90848 0.00483 0.0
C366 C 0.92096 0.16492 0.13148 0.0
C367 C 0.89922 0.14932 0.16836 0.0
C368 C -0.01548 0.19731 0.1237 0.0
C369 C 0.0286 0.21503 0.15251 0.0
H370 H 0.88893 0.15655 0.10868 0.0
H371 H -0.00126 0.21259 0.09533 0.0
S372 S -0.00404 0.16889 0.25198 0.0
N373 N 0.92672 0.14199 0.23264 0.0
N374 N 0.04651 0.20252 0.21799 0.0
C375 C 0.00766 0.19237 0.18867 0.0
C376 C 0.94279 0.15953 0.19662 0.0
C377 C 0.77731 0.01562 0.48554 0.0
C378 C 0.78253 0.0297 0.52376 0.0
C379 C 0.74735 0.95539 0.47338 0.0
C380 C 0.72192 0.90685 0.49892 0.0
H381 H 0.79193 0.05109 0.46475 0.0
H382 H 0.74046 0.94699 0.44369 0.0
S383 S 0.73597 0.91979 0.602 0.0
N384 N 0.76907 -0.00956 0.58703 0.0
N385 N 0.71339 0.87734 0.56423 0.0
C386 C 0.73313 0.92042 0.53714 0.0
C387 C 0.76322 -0.01817 0.54954 0.0
C388 C 0.76424 0.75732 0.88097 0.0
C389 C 0.78626 0.73565 0.85197 0.0
C390 C 0.73301 0.7896 0.87329 0.0
C391 C 0.72243 0.80121 0.83632 0.0
H392 H 0.76671 0.74538 0.90971 0.0
H393 H 0.71284 0.80118 0.89652 0.0
S394 S 0.78711 0.77001 0.75109 0.0
N395 N 0.80774 0.73988 0.78537 0.0
N396 N 0.74843 0.80024 0.77096 0.0
C397 C 0.75147 0.78693 0.80739 0.0
C398 C 0.78356 0.75417 0.81523 0.0
C399 C 0.94432 0.76611 0.12493 0.0
C400 C 0.89877 0.74645 0.15294 0.0
C401 C 0.00741 0.79817 0.13394 0.0
C402 C 0.02717 0.81148 0.17128 0.0
H403 H 0.93162 0.75263 0.09621 0.0
H404 H 0.04067 0.80824 0.11163 0.0
S405 S 0.92576 0.78591 0.25341 0.0
N406 N 0.87716 0.75443 0.21834 0.0
N407 N -0.00393 0.81429 0.23532 0.0
C408 C -0.01795 0.79914 0.19888 0.0
C409 C 0.91767 0.76663 0.18967 0.0
C410 C 0.14575 0.95058 0.54052 0.0
C411 C 0.12224 0.90437 0.51355 0.0
C412 C 0.17558 0.01182 0.53016 0.0
C413 C 0.18354 0.02921 0.4924 0.0
H414 H 0.14512 0.93959 0.56979 0.0
H415 H 0.1971 0.04545 0.55182 0.0
S416 S 0.11815 0.92634 0.41139 0.0
N417 N 0.09939 0.88059 0.44776 0.0
N418 N 0.15596 -0.00442 0.42833 0.0
C419 C 0.15421 -0.01634 0.46543 0.0
C420 C 0.12336 0.92124 0.47599 0.0
C421 C 0.13705 0.19855 0.81958 0.0
C422 C 0.12586 0.2073 0.85695 0.0
C423 C 0.16692 0.16551 0.81065 0.0
C424 C 0.1867 0.13999 0.83877 0.0
H425 H 0.12676 0.22087 0.79705 0.0
H426 H 0.17881 0.16418 0.78173 0.0
S427 S 0.15271 0.13522 0.93997 0.0
N428 N 0.12527 0.17723 0.92157 0.0
N429 N 0.18126 0.11472 0.90476 0.0
C430 C 0.1687 0.14183 0.87579 0.0
C431 C 0.13832 0.17564 0.88491 0.0
loop_
_geom_bond_atom_site_label_1
_geom_bond_atom_site_label_2
_geom_bond_distance
_geom_bond_site_symmetry_2
_ccdc_geom_bond_type
C0 O1 1.306 . S
C0 O3 1.160 . S
O1 C0 1.306 . S
O1 Cd2 2.228 . S
Cd2 O1 2.228 . S
Cd2 O6 2.273 . S
Cd2 O10 2.277 . S
O3 C0 1.160 . S
O3 Cd4 2.203 . S
Cd4 O3 2.203 . S
Cd4 O6 2.411 . S
Cd4 O7 2.333 . S
Cd4 O8 2.352 . S
Cd4 O12 2.277 . S
Cd4 O13 2.356 . S
C5 O10 1.209 . S
C5 O12 1.226 . S
O6 Cd2 2.273 . S
O6 Cd4 2.411 . S
O6 C9 1.320 . S
O7 Cd4 2.333 . S
O7 C9 1.214 . S
O8 Cd4 2.352 . S
O8 C11 1.258 . S
C9 O6 1.320 . S
C9 O7 1.214 . S
O10 Cd2 2.277 . S
O10 C5 1.209 . S
C11 O8 1.258 . S
C11 O13 1.282 . S
O12 Cd4 2.277 . S
O12 C5 1.226 . S
O13 Cd4 2.356 . S
O13 C11 1.282 . S
C14 O15 1.306 . S
C14 O17 1.160 . S
O15 C14 1.306 . S
O15 Cd16 2.228 . S
Cd16 O15 2.228 . S
Cd16 O20 2.273 . S
Cd16 O24 2.277 . S
O17 C14 1.160 . S
O17 Cd18 2.203 . S
Cd18 O17 2.203 . S
Cd18 O20 2.411 . S
Cd18 O21 2.333 . S
Cd18 O22 2.352 . S
Cd18 O26 2.277 . S
Cd18 O27 2.356 . S
C19 O24 1.209 . S
C19 O26 1.226 . S
O20 Cd16 2.273 . S
O20 Cd18 2.411 . S
O20 C23 1.320 . S
O21 Cd18 2.333 . S
O21 C23 1.214 . S
O22 Cd18 2.352 . S
O22 C25 1.258 . S
C23 O20 1.320 . S
C23 O21 1.214 . S
O24 Cd16 2.277 . S
O24 C19 1.209 . S
C25 O22 1.258 . S
C25 O27 1.282 . S
O26 Cd18 2.277 . S
O26 C19 1.226 . S
O27 Cd18 2.356 . S
O27 C25 1.282 . S
C28 O29 1.306 . S
C28 O31 1.160 . S
O29 C28 1.306 . S
O29 Cd30 2.228 . S
Cd30 O29 2.228 . S
Cd30 O34 2.273 . S
Cd30 O38 2.277 . S
O31 C28 1.160 . S
O31 Cd32 2.203 . S
Cd32 O31 2.203 . S
Cd32 O34 2.411 . S
Cd32 O35 2.333 . S
Cd32 O36 2.352 . S
Cd32 O40 2.277 . S
Cd32 O41 2.356 . S
C33 O38 1.209 . S
C33 O40 1.226 . S
O34 Cd30 2.273 . S
O34 Cd32 2.411 . S
O34 C37 1.320 . S
O35 Cd32 2.333 . S
O35 C37 1.214 . S
O36 Cd32 2.352 . S
O36 C39 1.258 . S
C37 O34 1.320 . S
C37 O35 1.214 . S
O38 Cd30 2.277 . S
O38 C33 1.209 . S
C39 O36 1.258 . S
C39 O41 1.282 . S
O40 Cd32 2.277 . S
O40 C33 1.226 . S
O41 Cd32 2.356 . S
O41 C39 1.282 . S
C42 O43 1.306 . S
C42 O45 1.160 . S
O43 C42 1.306 . S
O43 Cd44 2.228 . S
Cd44 O43 2.228 . S
Cd44 O48 2.273 . S
Cd44 O52 2.277 . S
O45 C42 1.160 . S
O45 Cd46 2.203 . S
Cd46 O45 2.203 . S
Cd46 O48 2.411 . S
Cd46 O49 2.333 . S
Cd46 O50 2.352 . S
Cd46 O54 2.277 . S
Cd46 O55 2.356 . S
C47 O52 1.209 . S
C47 O54 1.226 . S
O48 Cd44 2.273 . S
O48 Cd46 2.411 . S
O48 C51 1.320 . S
O49 Cd46 2.333 . S
O49 C51 1.214 . S
O50 Cd46 2.352 . S
O50 C53 1.258 . S
C51 O48 1.320 . S
C51 O49 1.214 . S
O52 Cd44 2.277 . S
O52 C47 1.209 . S
C53 O50 1.258 . S
C53 O55 1.282 . S
O54 Cd46 2.277 . S
O54 C47 1.226 . S
O55 Cd46 2.356 . S
O55 C53 1.282 . S
C56 O57 1.306 . S
C56 O59 1.160 . S
O57 C56 1.306 . S
O57 Cd58 2.228 . S
Cd58 O57 2.228 . S
Cd58 O62 2.273 . S
Cd58 O66 2.277 . S
O59 C56 1.160 . S
O59 Cd60 2.203 . S
Cd60 O59 2.203 . S
Cd60 O62 2.411 . S
Cd60 O63 2.333 . S
Cd60 O64 2.352 . S
Cd60 O68 2.277 . S
Cd60 O69 2.356 . S
C61 O66 1.209 . S
C61 O68 1.226 . S
O62 Cd58 2.273 . S
O62 Cd60 2.411 . S
O62 C65 1.320 . S
O63 Cd60 2.333 . S
O63 C65 1.214 . S
O64 Cd60 2.352 . S
O64 C67 1.258 . S
C65 O62 1.320 . S
C65 O63 1.214 . S
O66 Cd58 2.277 . S
O66 C61 1.209 . S
C67 O64 1.258 . S
C67 O69 1.282 . S
O68 Cd60 2.277 . S
O68 C61 1.226 . S
O69 Cd60 2.356 . S
O69 C67 1.282 . S
C70 O71 1.306 . S
C70 O73 1.160 . S
O71 C70 1.306 . S
O71 Cd72 2.228 . S
Cd72 O71 2.228 . S
Cd72 O76 2.273 . S
Cd72 O80 2.277 . S
O73 C70 1.160 . S
O73 Cd74 2.203 . S
Cd74 O73 2.203 . S
Cd74 O76 2.411 . S
Cd74 O77 2.333 . S
Cd74 O78 2.352 . S
Cd74 O82 2.277 . S
Cd74 O83 2.356 . S
C75 O80 1.209 . S
C75 O82 1.226 . S
O76 Cd72 2.273 . S
O76 Cd74 2.411 . S
O76 C79 1.320 . S
O77 Cd74 2.333 . S
O77 C79 1.214 . S
O78 Cd74 2.352 . S
O78 C81 1.258 . S
C79 O76 1.320 . S
C79 O77 1.214 . S
O80 Cd72 2.277 . S
O80 C75 1.209 . S
C81 O78 1.258 . S
C81 O83 1.282 . S
O82 Cd74 2.277 . S
O82 C75 1.226 . S
O83 Cd74 2.356 . S
O83 C81 1.282 . S
C84 O85 1.306 . S
C84 O87 1.160 . S
O85 C84 1.306 . S
O85 Cd86 2.228 . S
Cd86 O85 2.228 . S
Cd86 O90 2.273 . S
Cd86 O94 2.277 . S
O87 C84 1.160 . S
O87 Cd88 2.203 . S
Cd88 O87 2.203 . S
Cd88 O90 2.411 . S
Cd88 O91 2.333 . S
Cd88 O92 2.352 . S
Cd88 O96 2.277 . S
Cd88 O97 2.356 . S
C89 O94 1.209 . S
C89 O96 1.226 . S
O90 Cd86 2.273 . S
O90 Cd88 2.411 . S
O90 C93 1.320 . S
O91 Cd88 2.333 . S
O91 C93 1.214 . S
O92 Cd88 2.352 . S
O92 C95 1.258 . S
C93 O90 1.320 . S
C93 O91 1.214 . S
O94 Cd86 2.277 . S
O94 C89 1.209 . S
C95 O92 1.258 . S
C95 O97 1.282 . S
O96 Cd88 2.277 . S
O96 C89 1.226 . S
O97 Cd88 2.356 . S
O97 C95 1.282 . S
C98 O99 1.306 . S
C98 O101 1.160 . S
O99 C98 1.306 . S
O99 Cd100 2.228 . S
Cd100 O99 2.228 . S
Cd100 O104 2.273 . S
Cd100 O108 2.277 . S
O101 C98 1.160 . S
O101 Cd102 2.203 . S
Cd102 O101 2.203 . S
Cd102 O104 2.411 . S
Cd102 O105 2.333 . S
Cd102 O106 2.352 . S
Cd102 O110 2.277 . S
Cd102 O111 2.356 . S
C103 O108 1.209 . S
C103 O110 1.226 . S
O104 Cd100 2.273 . S
O104 Cd102 2.411 . S
O104 C107 1.320 . S
O105 Cd102 2.333 . S
O105 C107 1.214 . S
O106 Cd102 2.352 . S
O106 C109 1.258 . S
C107 O104 1.320 . S
C107 O105 1.214 . S
O108 Cd100 2.277 . S
O108 C103 1.209 . S
C109 O106 1.258 . S
C109 O111 1.282 . S
O110 Cd102 2.277 . S
O110 C103 1.226 . S
O111 Cd102 2.356 . S
O111 C109 1.282 . S
C112 O113 1.306 . S
C112 O115 1.160 . S
O113 C112 1.306 . S
O113 Cd114 2.228 . S
Cd114 O113 2.228 . S
Cd114 O118 2.273 . S
Cd114 O122 2.277 . S
O115 C112 1.160 . S
O115 Cd116 2.203 . S
Cd116 O115 2.203 . S
Cd116 O118 2.411 . S
Cd116 O119 2.333 . S
Cd116 O120 2.352 . S
Cd116 O124 2.277 . S
Cd116 O125 2.356 . S
C117 O122 1.209 . S
C117 O124 1.226 . S
O118 Cd114 2.273 . S
O118 Cd116 2.411 . S
O118 C121 1.320 . S
O119 Cd116 2.333 . S
O119 C121 1.214 . S
O120 Cd116 2.352 . S
O120 C123 1.258 . S
C121 O118 1.320 . S
C121 O119 1.214 . S
O122 Cd114 2.277 . S
O122 C117 1.209 . S
C123 O120 1.258 . S
C123 O125 1.282 . S
O124 Cd116 2.277 . S
O124 C117 1.226 . S
O125 Cd116 2.356 . S
O125 C123 1.282 . S
C126 O127 1.306 . S
C126 O129 1.160 . S
O127 C126 1.306 . S
O127 Cd128 2.228 . S
Cd128 O127 2.228 . S
Cd128 O132 2.273 . S
Cd128 O136 2.277 . S
O129 C126 1.160 . S
O129 Cd130 2.203 . S
Cd130 O129 2.203 . S
Cd130 O132 2.411 . S
Cd130 O133 2.333 . S
Cd130 O134 2.352 . S
Cd130 O138 2.277 . S
Cd130 O139 2.356 . S
C131 O136 1.209 . S
C131 O138 1.226 . S
O132 Cd128 2.273 . S
O132 Cd130 2.411 . S
O132 C135 1.320 . S
O133 Cd130 2.333 . S
O133 C135 1.214 . S
O134 Cd130 2.352 . S
O134 C137 1.258 . S
C135 O132 1.320 . S
C135 O133 1.214 . S
O136 Cd128 2.277 . S
O136 C131 1.209 . S
C137 O134 1.258 . S
C137 O139 1.282 . S
O138 Cd130 2.277 . S
O138 C131 1.226 . S
O139 Cd130 2.356 . S
O139 C137 1.282 . S
C140 O141 1.306 . S
C140 O143 1.160 . S
O141 C140 1.306 . S
O141 Cd142 2.228 . S
Cd142 O141 2.228 . S
Cd142 O146 2.273 . S
Cd142 O150 2.277 . S
O143 C140 1.160 . S
O143 Cd144 2.203 . S
Cd144 O143 2.203 . S
Cd144 O146 2.411 . S
Cd144 O147 2.333 . S
Cd144 O148 2.352 . S
Cd144 O152 2.277 . S
Cd144 O153 2.356 . S
C145 O150 1.209 . S
C145 O152 1.226 . S
O146 Cd142 2.273 . S
O146 Cd144 2.411 . S
O146 C149 1.320 . S
O147 Cd144 2.333 . S
O147 C149 1.214 . S
O148 Cd144 2.352 . S
O148 C151 1.258 . S
C149 O146 1.320 . S
C149 O147 1.214 . S
O150 Cd142 2.277 . S
O150 C145 1.209 . S
C151 O148 1.258 . S
C151 O153 1.282 . S
O152 Cd144 2.277 . S
O152 C145 1.226 . S
O153 Cd144 2.356 . S
O153 C151 1.282 . S
C154 O155 1.306 . S
C154 O157 1.160 . S
O155 C154 1.306 . S
O155 Cd156 2.228 . S
Cd156 O155 2.228 . S
Cd156 O160 2.273 . S
Cd156 O164 2.277 . S
O157 C154 1.160 . S
O157 Cd158 2.203 . S
Cd158 O157 2.203 . S
Cd158 O160 2.411 . S
Cd158 O161 2.333 . S
Cd158 O162 2.352 . S
Cd158 O166 2.277 . S
Cd158 O167 2.356 . S
C159 O164 1.209 . S
C159 O166 1.226 . S
O160 Cd156 2.273 . S
O160 Cd158 2.411 . S
O160 C163 1.320 . S
O161 Cd158 2.333 . S
O161 C163 1.214 . S
O162 Cd158 2.352 . S
O162 C165 1.258 . S
C163 O160 1.320 . S
C163 O161 1.214 . S
O164 Cd156 2.277 . S
O164 C159 1.209 . S
C165 O162 1.258 . S
C165 O167 1.282 . S
O166 Cd158 2.277 . S
O166 C159 1.226 . S
O167 Cd158 2.356 . S
O167 C165 1.282 . S
C168 C169 1.369 . S
C168 C170 1.419 . S
C168 H172 0.930 . S
C169 C168 1.369 . S
C169 C178 1.429 . S
C170 C168 1.419 . S
C170 C171 1.363 . S
C170 H173 0.929 . S
C171 C170 1.363 . S
C171 C177 1.428 . S
H172 C168 0.930 . S
H173 C170 0.929 . S
S174 N175 1.613 . S
S174 N176 1.610 . S
N175 S174 1.613 . S
N175 C178 1.350 . S
N176 S174 1.610 . S
N176 C177 1.351 . S
C177 C171 1.428 . S
C177 N176 1.351 . S
C177 C178 1.434 . S
C178 C169 1.429 . S
C178 N175 1.350 . S
C178 C177 1.434 . S
C179 C180 1.369 . S
C179 C181 1.419 . S
C179 H183 0.930 . S
C180 C179 1.369 . S
C180 C189 1.429 . S
C181 C179 1.419 . S
C181 C182 1.363 . S
C181 H184 0.929 . S
C182 C181 1.363 . S
C182 C188 1.428 . S
H183 C179 0.930 . S
H184 C181 0.929 . S
S185 N186 1.613 . S
S185 N187 1.610 . S
N186 S185 1.613 . S
N186 C189 1.350 . S
N187 S185 1.610 . S
N187 C188 1.351 . S
C188 C182 1.428 . S
C188 N187 1.351 . S
C188 C189 1.434 . S
C189 C180 1.429 . S
C189 N186 1.350 . S
C189 C188 1.434 . S
C190 C191 1.369 . S
C190 C192 1.419 . S
C190 H194 0.930 . S
C191 C190 1.369 . S
C191 C200 1.429 . S
C192 C190 1.419 . S
C192 C193 1.363 . S
C192 H195 0.929 . S
C193 C192 1.363 . S
C193 C199 1.428 . S
H194 C190 0.930 . S
H195 C192 0.929 . S
S196 N197 1.613 . S
S196 N198 1.610 . S
N197 S196 1.613 . S
N197 C200 1.350 . S
N198 S196 1.610 . S
N198 C199 1.351 . S
C199 C193 1.428 . S
C199 N198 1.351 . S
C199 C200 1.434 . S
C200 C191 1.429 . S
C200 N197 1.350 . S
C200 C199 1.434 . S
C201 C202 1.369 . S
C201 C203 1.419 . S
C201 H205 0.930 . S
C202 C201 1.369 . S
C202 C211 1.429 . S
C203 C201 1.419 . S
C203 C204 1.363 . S
C203 H206 0.929 . S
C204 C203 1.363 . S
C204 C210 1.428 . S
H205 C201 0.930 . S
H206 C203 0.929 . S
S207 N208 1.613 . S
S207 N209 1.610 . S
N208 S207 1.613 . S
N208 C211 1.350 . S
N209 S207 1.610 . S
N209 C210 1.351 . S
C210 C204 1.428 . S
C210 N209 1.351 . S
C210 C211 1.434 . S
C211 C202 1.429 . S
C211 N208 1.350 . S
C211 C210 1.434 . S
C212 C213 1.369 . S
C212 C214 1.419 . S
C212 H216 0.930 . S
C213 C212 1.369 . S
C213 C222 1.429 . S
C214 C212 1.419 . S
C214 C215 1.363 . S
C214 H217 0.929 . S
C215 C214 1.363 . S
C215 C221 1.428 . S
H216 C212 0.930 . S
H217 C214 0.929 . S
S218 N219 1.613 . S
S218 N220 1.610 . S
N219 S218 1.613 . S
N219 C222 1.350 . S
N220 S218 1.610 . S
N220 C221 1.351 . S
C221 C215 1.428 . S
C221 N220 1.351 . S
C221 C222 1.434 . S
C222 C213 1.429 . S
C222 N219 1.350 . S
C222 C221 1.434 . S
C223 C224 1.369 . S
C223 C225 1.419 . S
C223 H227 0.930 . S
C224 C223 1.369 . S
C224 C233 1.429 . S
C225 C223 1.419 . S
C225 C226 1.363 . S
C225 H228 0.929 . S
C226 C225 1.363 . S
C226 C232 1.428 . S
H227 C223 0.930 . S
H228 C225 0.929 . S
S229 N230 1.613 . S
S229 N231 1.610 . S
N230 S229 1.613 . S
N230 C233 1.350 . S
N231 S229 1.610 . S
N231 C232 1.351 . S
C232 C226 1.428 . S
C232 N231 1.351 . S
C232 C233 1.434 . S
C233 C224 1.429 . S
C233 N230 1.350 . S
C233 C232 1.434 . S
C234 C235 1.369 . S
C234 C236 1.419 . S
C234 H238 0.930 . S
C235 C234 1.369 . S
C235 C244 1.429 . S
C236 C234 1.419 . S
C236 C237 1.363 . S
C236 H239 0.929 . S
C237 C236 1.363 . S
C237 C243 1.428 . S
H238 C234 0.930 . S
H239 C236 0.929 . S
S240 N241 1.613 . S
S240 N242 1.610 . S
N241 S240 1.613 . S
N241 C244 1.350 . S
N242 S240 1.610 . S
N242 C243 1.351 . S
C243 C237 1.428 . S
C243 N242 1.351 . S
C243 C244 1.434 . S
C244 C235 1.429 . S
C244 N241 1.350 . S
C244 C243 1.434 . S
C245 C246 1.369 . S
C245 C247 1.419 . S
C245 H249 0.930 . S
C246 C245 1.369 . S
C246 C255 1.429 1_455 S
C247 C245 1.419 . S
C247 C248 1.363 1_455 S
C247 H250 0.929 . S
C248 C247 1.363 1_655 S
C248 C254 1.428 . S
H249 C245 0.930 . S
H250 C247 0.929 . S
S251 N252 1.613 . S
S251 N253 1.610 . S
N252 S251 1.613 . S
N252 C255 1.350 . S
N253 S251 1.610 . S
N253 C254 1.351 . S
C254 C248 1.428 . S
C254 N253 1.351 . S
C254 C255 1.434 . S
C255 C246 1.429 1_655 S
C255 N252 1.350 . S
C255 C254 1.434 . S
C256 C257 1.369 . S
C256 C258 1.419 1_545 S
C256 H260 0.930 . S
C257 C256 1.369 . S
C257 C266 1.429 . S
C258 C256 1.419 1_565 S
C258 C259 1.363 . S
C258 H261 0.929 . S
C259 C258 1.363 . S
C259 C265 1.428 . S
H260 C256 0.930 . S
H261 C258 0.929 . S
S262 N263 1.613 . S
S262 N264 1.610 1_545 S
N263 S262 1.613 . S
N263 C266 1.350 . S
N264 S262 1.610 1_565 S
N264 C265 1.351 . S
C265 C259 1.428 . S
C265 N264 1.351 . S
C265 C266 1.434 1_565 S
C266 C257 1.429 . S
C266 N263 1.350 . S
C266 C265 1.434 1_545 S
C267 C268 1.369 . S
C267 C269 1.419 . S
C267 H271 0.930 . S
C268 C267 1.369 . S
C268 C277 1.429 . S
C269 C267 1.419 . S
C269 C270 1.363 . S
C269 H272 0.929 . S
C270 C269 1.363 . S
C270 C276 1.428 . S
H271 C267 0.930 . S
H272 C269 0.929 . S
S273 N274 1.613 . S
S273 N275 1.610 . S
N274 S273 1.613 . S
N274 C277 1.350 . S
N275 S273 1.610 . S
N275 C276 1.351 . S
C276 C270 1.428 . S
C276 N275 1.351 . S
C276 C277 1.434 . S
C277 C268 1.429 . S
C277 N274 1.350 . S
C277 C276 1.434 . S
C278 C279 1.369 1_455 S
C278 C280 1.419 . S
C278 H282 0.930 . S
C279 C278 1.369 1_655 S
C279 C288 1.429 . S
C280 C278 1.419 . S
C280 C281 1.363 . S
C280 H283 0.929 . S
C281 C280 1.363 . S
C281 C287 1.428 1_455 S
H282 C278 0.930 . S
H283 C280 0.929 . S
S284 N285 1.613 . S
S284 N286 1.610 . S
N285 S284 1.613 . S
N285 C288 1.350 . S
N286 S284 1.610 . S
N286 C287 1.351 . S
C287 C281 1.428 1_655 S
C287 N286 1.351 . S
C287 C288 1.434 . S
C288 C279 1.429 . S
C288 N285 1.350 . S
C288 C287 1.434 . S
C289 C290 1.369 . S
C289 C291 1.419 1_565 S
C289 H293 0.930 . S
C290 C289 1.369 . S
C290 C299 1.429 . S
C291 C289 1.419 1_545 S
C291 C292 1.363 . S
C291 H294 0.929 . S
C292 C291 1.363 . S
C292 C298 1.428 . S
H293 C289 0.930 . S
H294 C291 0.929 . S
S295 N296 1.613 1_545 S
S295 N297 1.610 . S
N296 S295 1.613 1_565 S
N296 C299 1.350 . S
N297 S295 1.610 . S
N297 C298 1.351 . S
C298 C292 1.428 . S
C298 N297 1.351 . S
C298 C299 1.434 1_545 S
C299 C290 1.429 . S
C299 N296 1.350 . S
C299 C298 1.434 1_565 S
C300 C301 1.369 . S
C300 C302 1.419 . S
C300 H304 0.930 . S
C301 C300 1.369 . S
C301 C310 1.429 . S
C302 C300 1.419 . S
C302 C303 1.363 . S
C302 H305 0.929 . S
C303 C302 1.363 . S
C303 C309 1.428 . S
H304 C300 0.930 . S
H305 C302 0.929 . S
S306 N307 1.613 . S
S306 N308 1.610 . S
N307 S306 1.613 . S
N307 C310 1.350 . S
N308 S306 1.610 . S
N308 C309 1.351 . S
C309 C303 1.428 . S
C309 N308 1.351 . S
C309 C310 1.434 . S
C310 C301 1.429 . S
C310 N307 1.350 . S
C310 C309 1.434 . S
C311 C312 1.369 . S
C311 C313 1.419 1_655 S
C311 H315 0.930 . S
C312 C311 1.369 . S
C312 C321 1.429 . S
C313 C311 1.419 1_455 S
C313 C314 1.363 . S
C313 H316 0.929 . S
C314 C313 1.363 . S
C314 C320 1.428 . S
H315 C311 0.930 . S
H316 C313 0.929 . S
S317 N318 1.613 . S
S317 N319 1.610 1_655 S
N318 S317 1.613 . S
N318 C321 1.350 . S
N319 S317 1.610 1_455 S
N319 C320 1.351 . S
C320 C314 1.428 . S
C320 N319 1.351 . S
C320 C321 1.434 1_455 S
C321 C312 1.429 . S
C321 N318 1.350 . S
C321 C320 1.434 1_655 S
C322 C323 1.369 1_545 S
C322 C324 1.419 1_556 S
C322 H326 0.930 . S
C323 C322 1.369 1_565 S
C323 C332 1.429 . S
C324 C322 1.419 1_554 S
C324 C325 1.363 . S
C324 H327 0.929 . S
C325 C324 1.363 . S
C325 C331 1.428 1_545 S
H326 C322 0.930 . S
H327 C324 0.929 . S
S328 N329 1.613 1_554 S
S328 N330 1.610 . S
N329 S328 1.613 1_556 S
N329 C332 1.350 . S
N330 S328 1.610 . S
N330 C331 1.351 . S
C331 C325 1.428 1_565 S
C331 N330 1.351 . S
C331 C332 1.434 1_554 S
C332 C323 1.429 . S
C332 N329 1.350 . S
C332 C331 1.434 1_556 S
C333 C334 1.369 . S
C333 C335 1.419 . S
C333 H337 0.930 . S
C334 C333 1.369 . S
C334 C343 1.429 . S
C335 C333 1.419 . S
C335 C336 1.363 . S
C335 H338 0.929 . S
C336 C335 1.363 . S
C336 C342 1.428 . S
H337 C333 0.930 . S
H338 C335 0.929 . S
S339 N340 1.613 . S
S339 N341 1.610 . S
N340 S339 1.613 . S
N340 C343 1.350 . S
N341 S339 1.610 . S
N341 C342 1.351 . S
C342 C336 1.428 . S
C342 N341 1.351 . S
C342 C343 1.434 . S
C343 C334 1.429 . S
C343 N340 1.350 . S
C343 C342 1.434 . S
C344 C345 1.369 . S
C344 C346 1.419 . S
C344 H348 0.930 . S
C345 C344 1.369 . S
C345 C354 1.429 1_455 S
C346 C344 1.419 . S
C346 C347 1.363 1_455 S
C346 H349 0.929 . S
C347 C346 1.363 1_655 S
C347 C353 1.428 . S
H348 C344 0.930 . S
H349 C346 0.929 . S
S350 N351 1.613 . S
S350 N352 1.610 . S
N351 S350 1.613 . S
N351 C354 1.350 . S
N352 S350 1.610 . S
N352 C353 1.351 . S
C353 C347 1.428 . S
C353 N352 1.351 . S
C353 C354 1.434 . S
C354 C345 1.429 1_655 S
C354 N351 1.350 . S
C354 C353 1.434 . S
C355 C356 1.369 1_545 S
C355 C357 1.419 1_554 S
C355 H359 0.930 . S
C356 C355 1.369 1_565 S
C356 C365 1.429 . S
C357 C355 1.419 1_556 S
C357 C358 1.363 . S
C357 H360 0.929 . S
C358 C357 1.363 . S
C358 C364 1.428 1_545 S
H359 C355 0.930 . S
H360 C357 0.929 . S
S361 N362 1.613 1_556 S
S361 N363 1.610 . S
N362 S361 1.613 1_554 S
N362 C365 1.350 . S
N363 S361 1.610 . S
N363 C364 1.351 . S
C364 C358 1.428 1_565 S
C364 N363 1.351 . S
C364 C365 1.434 1_556 S
C365 C356 1.429 . S
C365 N362 1.350 . S
C365 C364 1.434 1_554 S
C366 C367 1.369 . S
C366 C368 1.419 1_655 S
C366 H370 0.930 . S
C367 C366 1.369 . S
C367 C376 1.429 . S
C368 C366 1.419 1_455 S
C368 C369 1.363 . S
C368 H371 0.929 . S
C369 C368 1.363 . S
C369 C375 1.428 . S
H370 C366 0.930 . S
H371 C368 0.929 . S
S372 N373 1.613 1_455 S
S372 N374 1.610 . S
N373 S372 1.613 1_655 S
N373 C376 1.350 . S
N374 S372 1.610 . S
N374 C375 1.351 . S
C375 C369 1.428 . S
C375 N374 1.351 . S
C375 C376 1.434 1_455 S
C376 C367 1.429 . S
C376 N373 1.350 . S
C376 C375 1.434 1_655 S
C377 C378 1.369 . S
C377 C379 1.419 1_545 S
C377 H381 0.930 . S
C378 C377 1.369 . S
C378 C387 1.429 . S
C379 C377 1.419 1_565 S
C379 C380 1.363 . S
C379 H382 0.929 . S
C380 C379 1.363 . S
C380 C386 1.428 . S
H381 C377 0.930 . S
H382 C379 0.929 . S
S383 N384 1.613 . S
S383 N385 1.610 1_545 S
N384 S383 1.613 . S
N384 C387 1.350 . S
N385 S383 1.610 1_565 S
N385 C386 1.351 . S
C386 C380 1.428 . S
C386 N385 1.351 . S
C386 C387 1.434 1_565 S
C387 C378 1.429 . S
C387 N384 1.350 . S
C387 C386 1.434 1_545 S
C388 C389 1.369 . S
C388 C390 1.419 . S
C388 H392 0.930 . S
C389 C388 1.369 . S
C389 C398 1.429 . S
C390 C388 1.419 . S
C390 C391 1.363 . S
C390 H393 0.929 . S
C391 C390 1.363 . S
C391 C397 1.428 . S
H392 C388 0.930 . S
H393 C390 0.929 . S
S394 N395 1.613 . S
S394 N396 1.610 . S
N395 S394 1.613 . S
N395 C398 1.350 . S
N396 S394 1.610 . S
N396 C397 1.351 . S
C397 C391 1.428 . S
C397 N396 1.351 . S
C397 C398 1.434 . S
C398 C389 1.429 . S
C398 N395 1.350 . S
C398 C397 1.434 . S
C399 C400 1.369 . S
C399 C401 1.419 1_655 S
C399 H403 0.930 . S
C400 C399 1.369 . S
C400 C409 1.429 . S
C401 C399 1.419 1_455 S
C401 C402 1.363 . S
C401 H404 0.929 . S
C402 C401 1.363 . S
C402 C408 1.428 . S
H403 C399 0.930 . S
H404 C401 0.929 . S
S405 N406 1.613 . S
S405 N407 1.610 1_655 S
N406 S405 1.613 . S
N406 C409 1.350 . S
N407 S405 1.610 1_455 S
N407 C408 1.351 . S
C408 C402 1.428 . S
C408 N407 1.351 . S
C408 C409 1.434 1_455 S
C409 C400 1.429 . S
C409 N406 1.350 . S
C409 C408 1.434 1_655 S
C410 C411 1.369 . S
C410 C412 1.419 1_565 S
C410 H414 0.930 . S
C411 C410 1.369 . S
C411 C420 1.429 . S
C412 C410 1.419 1_545 S
C412 C413 1.363 . S
C412 H415 0.929 . S
C413 C412 1.363 . S
C413 C419 1.428 . S
H414 C410 0.930 . S
H415 C412 0.929 . S
S416 N417 1.613 1_545 S
S416 N418 1.610 . S
N417 S416 1.613 1_565 S
N417 C420 1.350 . S
N418 S416 1.610 . S
N418 C419 1.351 . S
C419 C413 1.428 . S
C419 N418 1.351 . S
C419 C420 1.434 1_545 S
C420 C411 1.429 . S
C420 N417 1.350 . S
C420 C419 1.434 1_565 S
C421 C422 1.369 . S
C421 C423 1.419 . S
C421 H425 0.930 . S
C422 C421 1.369 . S
C422 C431 1.429 . S
C423 C421 1.419 . S
C423 C424 1.363 . S
C423 H426 0.929 . S
C424 C423 1.363 . S
C424 C430 1.428 . S
H425 C421 0.930 . S
H426 C423 0.929 . S
S427 N428 1.613 . S
S427 N429 1.610 . S
N428 S427 1.613 . S
N428 C431 1.350 . S
N429 S427 1.610 . S
N429 C430 1.351 . S
C430 C424 1.428 . S
C430 N429 1.351 . S
C430 C431 1.434 . S
C431 C422 1.429 . S
C431 N428 1.350 . S
C431 C430 1.434 . S
C169 C117 1.752 . S
C171 C5 1.749 . S
C180 C23 1.703 . S
C182 C135 1.702 . S
C191 C33 1.750 . S
C193 C145 1.751 . S
C202 C47 1.750 . S
C204 C159 1.751 . S
C213 C93 1.703 . S
C215 C65 1.703 . S
C224 C75 1.751 . S
C226 C103 1.749 . S
C235 C51 1.168 . S
C237 C9 1.173 . S
C246 C61 1.161 . S
C248 C19 1.157 . S
C257 C79 1.274 . S
C259 C37 1.278 . S
C268 C89 1.160 . S
C270 C131 1.157 . S
C279 C107 1.172 . S
C281 C149 1.173 . S
C290 C121 1.274 . S
C292 C163 1.277 . S
C301 C11 1.549 . S
C303 C126 1.548 . S
C312 C14 1.545 . S
C314 C151 1.545 . S
C323 C39 1.560 . S
C325 C165 1.561 . S
C334 C84 1.551 . S
C336 C53 1.549 . S
C345 C56 1.547 . S
C347 C109 1.546 . S
C356 C123 1.560 . S
C358 C81 1.562 . S
C367 C154 1.420 . S
C369 C0 1.432 . S
C378 C25 1.352 . S
C380 C95 1.355 . S
C389 C98 1.431 . S
C391 C28 1.420 . S
C400 C42 1.433 . S
C402 C112 1.425 . S
C411 C67 1.353 . S
C413 C137 1.354 . S
C422 C140 1.432 . S
C424 C70 1.420 . S
