# Generated by pormake.
# Topology snp, (6)-cn, num edge types: 1
# Building blocks:
#     Node 0, Type 0, BuildingBlock: HISSIN_clean_sbu_0, # of connection points: 6
#     Node 1, Type 0, BuildingBlock: HISSIN_clean_sbu_0, # of connection points: 6
#     Node 2, Type 0, BuildingBlock: HISSIN_clean_sbu_0, # of connection points: 6
#     Node 3, Type 0, BuildingBlock: HISSIN_clean_sbu_0, # of connection points: 6
#     Edge 4, Type (0, 0), BuildingBlock: KIFKEQ_clean_linker_1, # of connection points: 2
#     Edge 5, Type (0, 0), BuildingBlock: KIFKEQ_clean_linker_1, # of connection points: 2
#     Edge 6, Type (0, 0), BuildingBlock: KIFKEQ_clean_linker_1, # of connection points: 2
#     Edge 7, Type (0, 0), BuildingBlock: KIFKEQ_clean_linker_1, # of connection points: 2
#     Edge 8, Type (0, 0), BuildingBlock: KIFKEQ_clean_linker_1, # of connection points: 2
#     Edge 9, Type (0, 0), BuildingBlock: KIFKEQ_clean_linker_1, # of connection points: 2
#     Edge 10, Type (0, 0), BuildingBlock: KIFKEQ_clean_linker_1, # of connection points: 2
#     Edge 11, Type (0, 0), BuildingBlock: KIFKEQ_clean_linker_1, # of connection points: 2
#     Edge 12, Type (0, 0), BuildingBlock: KIFKEQ_clean_linker_1, # of connection points: 2
#     Edge 13, Type (0, 0), BuildingBlock: KIFKEQ_clean_linker_1, # of connection points: 2
#     Edge 14, Type (0, 0), BuildingBlock: KIFKEQ_clean_linker_1, # of connection points: 2
#     Edge 15, Type (0, 0), BuildingBlock: KIFKEQ_clean_linker_1, # of connection points: 2
# Relax obj value: 0.702
# Max RMSD: 0.184
# Mean RMSD: 0.184
data_MOF--net-snp--node1-HISSIN_clean_sbu_0--edge1-KIFKEQ_clean_linker_1
_symmetry_space_group_name_H-M    P1
_symmetry_Int_Tables_number       1
_symmetry_cell_setting            triclinic
loop_
_symmetry_equiv_pos_as_xyz
'x, y, z'
_cell_length_a     25.103309
_cell_length_b     25.174778
_cell_length_c     29.251396
_cell_angle_alpha  90.526021
_cell_angle_beta   90.722674
_cell_angle_gamma 123.46675
loop_
_atom_site_label
_atom_site_type_symbol
_atom_site_fract_x
_atom_site_fract_y
_atom_site_fract_z
_atom_type_partial_charge
Eu0 Eu 0.28242 0.97738 0.26076 0.0
Eu1 Eu 0.28028 0.09106 0.22328 0.0
C2 C 0.41152 0.1069 0.25023 0.0
C3 C 0.35815 0.89543 0.31131 0.0
C4 C 0.42299 0.9457 0.31288 0.0
C5 C 0.37535 0.85234 0.37957 0.0
C6 C 0.46295 0.95067 0.3487 0.0
C7 C 0.3355 0.84737 0.34373 0.0
C8 C 0.43874 0.90559 0.38364 0.0
C9 C 0.31241 0.89578 0.27936 0.0
O10 O 0.27154 0.0484 1.15353 0.0
O11 O 0.24832 0.95374 0.18199 0.0
C12 C 0.25029 -0.01178 1.14648 0.0
O13 O 0.18004 0.93167 0.26635 0.0
O14 O 0.31614 0.18965 0.24012 0.0
O15 O 0.25047 0.14277 0.18238 0.0
O16 O 0.17782 0.00193 0.21794 0.0
C17 C 0.14956 0.94649 0.23884 0.0
O18 O 0.26783 0.01565 0.32983 0.0
O19 O 0.25537 0.09065 0.29804 0.0
O20 O 0.38332 0.11683 0.21647 0.0
O21 O 0.2649 0.89475 0.29819 0.0
O22 O 0.33659 0.93556 0.24557 0.0
O23 O 0.37518 0.06674 0.28095 0.0
C24 C 0.32398 0.25433 0.18049 0.0
C25 C 0.36417 0.25945 1.14563 0.0
C26 C 0.35674 0.36336 0.16873 0.0
C27 C 0.39963 0.31606 1.12174 0.0
C28 C 0.3212 0.3067 0.19246 0.0
C29 C 0.39551 0.36828 1.13263 0.0
C30 C 0.28621 0.19569 0.20595 0.0
C31 C 0.25644 0.06124 0.33458 0.0
H32 H 0.44211 -0.01705 0.28785 0.0
H33 H 0.35473 0.81704 0.40604 0.0
H34 H 0.51174 -0.0082 0.35052 0.0
H35 H 0.28583 0.80794 0.34296 0.0
H36 H 0.3673 0.21945 1.13648 0.0
H37 H 0.35305 0.40294 0.17806 0.0
H38 H 0.42826 0.31803 1.0936 0.0
H39 H 0.29102 0.30353 0.21991 0.0
Eu40 Eu 0.06436 0.22181 0.70518 0.0
Eu41 Eu 0.20685 0.32269 0.72783 0.0
C42 C 0.11879 0.37129 0.70704 0.0
C43 C 0.90712 0.17738 0.66013 0.0
C44 C 0.91797 0.23467 0.67808 0.0
C45 C 0.85163 0.18572 0.59484 0.0
C46 C 0.89863 0.26869 0.65349 0.0
C47 C 0.87095 0.15156 0.61955 0.0
C48 C 0.8687 0.24644 0.61029 0.0
C49 C 0.94528 0.15338 0.67758 0.0
O50 O 0.16107 0.2999 0.80106 0.0
O51 O 0.05482 0.23998 0.78011 0.0
C52 C 0.09941 0.26702 0.81259 0.0
O53 O 0.09685 0.17159 0.75145 0.0
O54 O 0.28417 0.41906 0.71008 0.0
O55 O 0.30338 0.36179 0.75341 0.0
O56 O 0.20583 0.23706 0.74599 0.0
C57 C 0.15507 0.18531 0.76036 0.0
O58 O 0.11328 0.18891 0.65817 0.0
O59 O 0.20078 0.28848 0.65182 0.0
O60 O 0.15825 0.37449 0.7379 0.0
O61 O 0.99256 0.16568 0.65169 0.0
O62 O 0.96263 0.16522 0.72061 0.0
O63 O 0.08785 0.31963 0.68089 0.0
C64 C 0.36463 0.4711 0.76735 0.0
C65 C 0.43113 0.5019 0.76817 0.0
C66 C 0.37035 0.51906 0.84076 0.0
C67 C 0.46678 0.53814 0.80652 0.0
C68 C 0.33483 0.48296 0.8024 0.0
C69 C 0.43584 0.54293 0.84454 0.0
C70 C 0.3263 0.41753 0.73561 0.0
C71 C 0.16559 0.22867 0.63619 0.0
H72 H 0.9462 0.25604 0.70919 0.0
H73 H 0.82915 0.16746 0.56149 0.0
H74 H 0.91202 0.31505 0.66643 0.0
H75 H 0.86256 0.10781 0.6049 0.0
H76 H 0.45471 0.49323 0.74113 0.0
H77 H 0.34497 0.52155 0.8695 0.0
H78 H 0.51729 0.55669 0.80839 0.0
H79 H 0.28336 0.45932 0.80215 0.0
Eu80 Eu 0.96981 0.16863 0.25897 0.0
Eu81 Eu 0.83704 0.04741 0.23374 0.0
C82 C 0.84011 0.163 0.26831 0.0
C83 C 0.06913 0.33707 0.29379 0.0
C84 C 0.02342 0.34335 0.27076 0.0
C85 C 0.07439 0.40555 0.35489 0.0
C86 C -0.0008 0.37559 0.29177 0.0
C87 C 0.09823 0.3728 0.33403 0.0
C88 C 0.02069 0.40204 0.33591 0.0
C89 C 0.06857 0.279 0.28572 0.0
O90 O 0.87656 0.10297 1.16369 0.0
O91 O 0.98276 0.17119 0.18237 0.0
C92 C 0.93688 0.1457 1.15092 0.0
O93 O 0.98301 0.08632 0.24814 0.0
O94 O 0.74285 0.00643 0.20124 0.0
O95 O 0.7643 0.94725 0.24047 0.0
O96 O 0.90458 0.03768 0.19429 0.0
C97 C 0.95136 0.0414 0.21639 0.0
O98 O 0.94459 0.11273 0.32624 0.0
O99 O 0.86822 0.01441 0.29761 0.0
O100 O 0.81935 0.10588 0.28113 0.0
O101 O 0.03183 0.23364 0.31361 0.0
O102 O 0.06011 0.25789 0.24361 0.0
O103 O 0.89483 0.19336 0.24748 0.0
C104 C 0.69498 0.89905 0.17649 0.0
C105 C 0.71292 0.85536 0.17201 0.0
C106 C 0.62444 0.85032 1.10998 0.0
C107 C 0.68744 0.81019 1.13671 0.0
C108 C 0.64965 0.89544 1.14573 0.0
C109 C 0.64367 0.80774 1.10502 0.0
C110 C 0.72383 0.94852 0.21278 0.0
C111 C 0.90866 0.05025 0.3314 0.0
H112 H 0.00038 0.31647 0.23948 0.0
H113 H 0.09208 0.42558 0.38891 0.0
H114 H 0.95828 0.37273 0.27619 0.0
H115 H 0.13335 0.36845 0.35243 0.0
H116 H 0.74773 0.8567 0.19511 0.0
H117 H 0.59076 0.84927 1.08586 0.0
H118 H 0.70416 0.77885 1.13314 0.0
H119 H 0.63473 0.9283 1.14883 0.0
Eu120 Eu 0.10003 0.89293 0.70767 0.0
Eu121 Eu 0.95836 0.77589 0.72116 0.0
C122 C 0.06384 0.74576 0.69904 0.0
C123 C 0.27793 -0.01357 0.69159 0.0
C124 C 0.28028 0.93567 0.70833 0.0
C125 C 0.38009 0.02902 0.65605 0.0
C126 C 0.33122 0.93035 0.69745 0.0
C127 C 0.32925 0.03437 0.66707 0.0
C128 C 0.38009 0.97531 0.66921 0.0
C129 C 0.21859 -0.01546 0.69359 0.0
O130 O 0.00371 0.80192 0.79658 0.0
O131 O 0.10972 0.86719 0.77977 0.0
C132 C 0.06524 0.83751 0.81045 0.0
O133 O 0.05113 0.93304 0.74778 0.0
O134 O 0.89069 0.67406 0.73086 0.0
O135 O 0.85595 0.73308 0.713 0.0
O136 O 0.95219 0.84443 0.76391 0.0
C137 C 0.995 0.90514 0.76782 0.0
O138 O 0.0478 0.91304 0.65337 0.0
O139 O 0.9602 0.81227 0.64651 0.0
O140 O 0.01021 0.72723 0.71866 0.0
O141 O 0.17716 0.95113 0.66085 0.0
O142 O 0.19201 0.97338 0.73338 0.0
O143 O 0.1008 0.80478 0.68452 0.0
C144 C 0.79606 0.65192 0.76437 0.0
C145 C 0.81946 0.66442 0.80959 0.0
C146 C 0.68945 0.61059 0.79161 0.0
C147 C 0.77852 0.65177 0.8455 0.0
C148 C 0.73061 0.62313 0.75556 0.0
C149 C 0.71353 0.6269 0.8368 0.0
C150 C 0.84088 0.67743 0.72673 0.0
C151 C 0.99542 0.87119 0.63052 0.0
H152 H 0.24083 0.89809 0.72731 0.0
H153 H 0.41633 0.06414 0.63376 0.0
H154 H 0.3301 0.88879 0.70847 0.0
H155 H 0.32795 0.07368 0.65375 0.0
H156 H 0.87005 0.68752 0.81702 0.0
H157 H 0.63953 0.59111 0.78401 0.0
H158 H 0.79893 0.66605 0.87976 0.0
H159 H 0.71201 0.61359 0.72072 0.0
H160 H 0.98311 -0.00698 0.28645 0.0
H161 H 0.90084 0.95043 1.14987 0.0
H162 H 0.96881 0.89025 0.28843 0.0
H163 H 0.88586 0.84676 1.15146 0.0
H164 H 0.0628 0.84703 0.29117 0.0
H165 H 0.948 0.77922 0.27425 0.0
H166 H 0.97948 0.84589 1.13739 0.0
H167 H 0.09336 0.91912 1.15403 0.0
C168 C 0.96315 0.96197 0.2565 0.0
C169 C 0.94817 -0.01834 0.21672 0.0
C170 C 0.95266 0.90171 0.25788 0.0
C171 C 0.93008 0.86128 0.21845 0.0
C172 C 0.90571 0.87744 0.18161 0.0
C173 C 0.91646 0.93775 0.18016 0.0
C174 C 0.0451 0.84791 0.2574 0.0
C175 C 0.08474 0.89492 0.22584 0.0
C176 C 0.97978 0.80707 0.24699 0.0
C177 C 0.95625 0.82179 0.20869 0.0
C178 C 0.99733 0.84534 0.17116 0.0
C179 C 0.06216 0.88883 0.18076 0.0
H180 H 0.9896 0.87321 0.85609 0.0
H181 H 0.98234 0.00751 0.77052 0.0
H182 H 0.04829 0.95588 0.91469 0.0
H183 H 0.02417 0.08355 0.8344 0.0
H184 H 0.1641 0.08081 0.76264 0.0
H185 H 0.13402 0.0125 0.82883 0.0
H186 H 0.12864 0.15165 0.91124 0.0
H187 H 0.17371 0.22575 0.84841 0.0
C188 C 0.99719 0.91928 0.851 0.0
C189 C 0.98894 0.93718 0.8074 0.0
C190 C 0.02817 0.96571 0.88555 0.0
C191 C 0.04909 0.02847 0.87531 0.0
C192 C 0.01506 0.0368 0.84024 0.0
C193 C 0.99163 -0.00619 0.80315 0.0
C194 C 0.16072 0.09841 0.79569 0.0
C195 C 0.16414 0.15554 0.7998 0.0
C196 C 0.14449 0.06004 0.83411 0.0
C197 C 0.11903 0.07367 0.87202 0.0
C198 C 0.14179 0.13763 0.88048 0.0
C199 C 0.16435 0.1789 0.84369 0.0
H200 H 0.7812 0.16713 0.19072 0.0
H201 H 0.78708 0.19167 0.33687 0.0
H202 H 0.68264 0.16484 0.1857 0.0
H203 H 0.69128 0.19388 0.33225 0.0
H204 H 0.47679 0.09721 0.3209 0.0
H205 H 0.58435 0.12288 0.32379 0.0
H206 H 0.61688 0.20367 0.18924 0.0
H207 H 0.50576 0.17388 0.18547 0.0
C208 C 0.76284 0.17492 0.22161 0.0
C209 C 0.79242 0.18044 0.26414 0.0
C210 C 0.7059 0.17339 0.21884 0.0
C211 C 0.6771 0.17784 0.25861 0.0
C212 C 0.70991 0.18809 0.30079 0.0
C213 C 0.7659 0.18816 0.30355 0.0
C214 C 0.50666 0.12098 0.29184 0.0
C215 C 0.4817 0.13294 0.25276 0.0
C216 C 0.56948 0.13656 0.29373 0.0
C217 C 0.61096 0.16604 0.25691 0.0
C218 C 0.58682 0.18034 0.21824 0.0
C219 C 0.52306 0.16391 0.21617 0.0
H220 H 0.06378 0.40052 0.63628 0.0
H221 H 0.1607 0.47078 0.76709 0.0
H222 H 0.05621 0.49411 0.63089 0.0
H223 H 0.15347 0.56281 0.76178 0.0
H224 H 0.05292 0.66915 0.76705 0.0
H225 H 0.06648 0.58077 0.76563 0.0
H226 H 0.12499 0.61994 0.62533 0.0
H227 H 0.11178 0.71043 0.62706 0.0
C228 C 0.08317 0.43553 0.66391 0.0
C229 C 0.11223 0.42717 0.7023 0.0
C230 C 0.07952 0.48967 0.66063 0.0
C231 C 0.1041 0.53654 0.69598 0.0
C232 C 0.13338 0.52794 0.734 0.0
C233 C 0.13761 0.47472 0.73699 0.0
C234 C 0.06968 0.65985 0.73593 0.0
C235 C 0.08198 0.69786 0.69739 0.0
C236 C 0.07742 0.60876 0.73511 0.0
C237 C 0.09683 0.59248 0.69539 0.0
C238 C 0.10961 0.63057 0.65653 0.0
C239 C 0.10291 0.68306 0.65765 0.0
H240 H 0.24345 0.29686 0.56224 0.0
H241 H 0.12796 0.10571 0.6115 0.0
H242 H 0.2666 0.25711 0.49343 0.0
H243 H 0.1524 0.06592 0.54343 0.0
H244 H 0.23778 0.01062 0.42423 0.0
H245 H 0.21925 0.05018 0.49579 0.0
H246 H 0.23034 0.20349 0.4224 0.0
H247 H 0.24884 0.16472 0.35217 0.0
C248 C 0.22293 0.24624 0.55876 0.0
C249 C 0.18296 0.2051 0.59336 0.0
C250 C 0.23598 0.22285 0.51857 0.0
C251 C 0.21099 0.15709 0.51105 0.0
C252 C 0.17279 0.11649 0.54656 0.0
C253 C 0.15842 0.13963 0.58611 0.0
C254 C 0.23646 0.05285 0.4232 0.0
C255 C 0.2452 0.0836 0.381 0.0
C256 C 0.22538 0.07584 0.46474 0.0
C257 C 0.2233 0.1313 0.46649 0.0
C258 C 0.23236 0.16172 0.4242 0.0
C259 C 0.24268 0.13859 0.383 0.0
H260 H 0.97585 0.19615 0.8448 0.0
H261 H 0.16969 0.30567 0.89661 0.0
H262 H 0.93672 0.16875 0.92201 0.0
H263 H 0.13091 0.27594 0.97445 0.0
H264 H 0.05125 0.24628 1.11882 0.0
H265 H 0.08906 0.27646 1.04162 0.0
H266 H 0.90921 0.11676 0.98873 0.0
H267 H 0.87068 0.08817 1.06698 0.0
C268 C 0.01086 0.21483 0.87262 0.0
C269 C 0.07687 0.25397 0.86282 0.0
C270 C 0.98785 0.19806 0.91792 0.0
C271 C 0.0293 0.21889 0.95685 0.0
C272 C 0.09565 0.25857 0.94701 0.0
C273 C 0.11869 0.27587 0.90146 0.0
C274 C 0.01902 0.21728 1.09093 0.0
C275 C 0.95698 0.1643 1.10069 0.0
C276 C 0.04147 0.23465 1.04559 0.0
C277 C 0.00368 0.1998 1.00654 0.0
C278 C 0.9411 0.14667 1.01634 0.0
C279 C 0.91833 0.12959 1.06203 0.0
H280 H 0.89231 0.80367 0.56554 0.0
H281 H 0.06003 -0.00956 0.59235 0.0
H282 H 0.86939 0.84316 0.49627 0.0
H283 H 0.03863 0.02951 0.52377 0.0
H284 H 0.97804 0.11066 0.4116 0.0
H285 H 0.99438 0.06756 0.48028 0.0
H286 H 0.87734 0.87794 0.42167 0.0
H287 H 0.85947 0.92199 0.35299 0.0
C288 C 0.92477 0.85319 0.55696 0.0
C289 C 0.97858 0.8931 0.58604 0.0
C290 C 0.9117 0.87637 0.51638 0.0
C291 C 0.95149 0.94096 0.50245 0.0
C292 C 0.00512 -0.01984 0.53183 0.0
C293 C 0.01804 0.95713 0.57197 0.0
C294 C 0.95528 0.0596 0.41297 0.0
C295 C 0.91688 0.02081 0.37537 0.0
C296 C 0.96532 0.03413 0.45312 0.0
C297 C 0.93827 0.96786 0.45852 0.0
C298 C 0.89935 0.92887 0.42079 0.0
C299 C 0.88896 0.95452 0.38055 0.0
H300 H 0.18405 0.93051 0.84481 0.0
H301 H 0.00133 0.78025 0.89401 0.0
H302 H 0.22533 0.96076 0.9224 0.0
H303 H 0.04355 0.81136 0.97349 0.0
H304 H 0.16311 0.86043 1.11544 0.0
H305 H 0.11589 0.82077 1.03803 0.0
H306 H 0.22635 0.01292 0.98927 0.0
H307 H 0.27283 0.05165 1.0653 0.0
C308 C 0.15202 0.90306 0.87205 0.0
C309 C 0.08845 0.85198 0.86131 0.0
C310 C 0.17614 0.92134 0.91759 0.0
C311 C 0.13874 0.88968 0.95609 0.0
C312 C 0.07512 0.83759 0.94576 0.0
C313 C 0.05044 0.81951 0.8996 0.0
C314 C 0.17822 0.89426 1.08811 0.0
C315 C 0.22352 0.95988 1.0979 0.0
C316 C 0.15021 0.87138 1.04324 0.0
C317 C 0.16667 0.91277 1.00559 0.0
C318 C 0.21214 0.97812 1.01579 0.0
C319 C 0.23924 0.00083 1.06033 0.0
H320 H 0.64356 0.83825 1.01621 0.0
H321 H 0.60294 0.68261 1.10267 0.0
H322 H 0.63968 0.77828 0.94957 0.0
H323 H 0.59926 0.62235 1.03621 0.0
H324 H 0.63299 0.66757 0.83207 0.0
H325 H 0.59257 0.69643 0.89599 0.0
H326 H 0.67227 0.62438 0.98958 0.0
H327 H 0.70846 0.59174 0.92549 0.0
C328 C 0.63129 0.79009 1.02067 0.0
C329 C 0.62437 0.76529 1.06451 0.0
C330 C 0.62904 0.75546 0.9824 0.0
C331 C 0.61961 0.69525 0.98729 0.0
C332 C 0.60735 0.66862 1.031 0.0
C333 C 0.60936 0.70311 1.06917 0.0
C334 C 0.6396 0.65563 0.86623 0.0
C335 C 0.67486 0.62836 0.87389 0.0
C336 C 0.6176 0.67344 0.90302 0.0
C337 C 0.63063 0.66459 0.94819 0.0
C338 C 0.66091 0.632 0.95547 0.0
C339 C 0.68226 0.61361 0.91868 0.0
H340 H 0.44769 0.8238 0.44029 0.0
H341 H 0.50727 0.02004 0.42863 0.0
H342 H 0.46881 0.83978 0.52262 0.0
H343 H 0.52697 0.03568 0.50976 0.0
H344 H 0.3467 0.86038 0.63376 0.0
H345 H 0.39744 0.84389 0.57128 0.0
H346 H 0.55979 0.03859 0.58582 0.0
H347 H 0.50744 0.05547 0.64877 0.0
C348 C 0.4673 0.87085 0.45503 0.0
C349 C 0.47357 0.91997 0.42819 0.0
C350 C 0.47942 0.88006 0.50222 0.0
C351 C 0.49702 0.93823 0.52331 0.0
C352 C 0.51305 -0.01006 0.49523 0.0
C353 C 0.50145 -0.01911 0.44818 0.0
C354 C 0.39455 0.89903 0.62534 0.0
C355 C 0.42196 0.95999 0.64519 0.0
C356 C 0.42413 0.88947 0.58917 0.0
C357 C 0.48181 0.94072 0.57206 0.0
C358 C 0.51422 -0.00128 0.59704 0.0
C359 C 0.48428 0.00844 0.63313 0.0
H360 H 0.43231 0.61271 0.91598 0.0
H361 H 0.50294 0.49641 0.87796 0.0
H362 H 0.44683 0.59822 0.99669 0.0
H363 H 0.51569 0.48066 0.95725 0.0
H364 H 0.51536 0.43178 1.09687 0.0
H365 H 0.55287 0.50556 1.03355 0.0
H366 H 0.3795 0.50343 1.03765 0.0
H367 H 0.34277 0.43066 1.10055 0.0
C368 C 0.45279 0.58583 0.92485 0.0
C369 C 0.46524 0.55468 0.89073 0.0
C370 C 0.46063 0.57708 0.97095 0.0
C371 C 0.48041 0.53658 0.98345 0.0
C372 C 0.50028 0.51213 0.94917 0.0
C373 C 0.49297 0.52126 0.90332 0.0
C374 C 0.48618 0.44847 1.08482 0.0
C375 C 0.42556 0.42439 1.10288 0.0
C376 C 0.50764 0.49081 1.04867 0.0
C377 C 0.46868 0.50952 1.02987 0.0
C378 C 0.41118 0.49067 1.05134 0.0
C379 C 0.38983 0.44851 1.08747 0.0
H380 H 0.8954 0.31238 0.34654 0.0
H381 H 0.0471 0.49739 0.39771 0.0
H382 H 0.83885 0.29326 0.41607 0.0
H383 H 0.98745 0.48107 0.46708 0.0
H384 H 0.77441 0.22608 0.54898 0.0
H385 H 0.7907 0.28809 0.48088 0.0
H386 H 0.98448 0.42729 0.52799 0.0
H387 H 0.96599 0.36824 0.59604 0.0
C388 C 0.91501 0.35078 0.37177 0.0
C389 C 0.9768 0.40552 0.36735 0.0
C390 C 0.88217 0.33983 0.4123 0.0
C391 C 0.90998 0.38399 0.44914 0.0
C392 C 0.96616 0.44402 0.44087 0.0
C393 C 0.00012 0.4541 0.40075 0.0
C394 C 0.81954 0.27125 0.5452 0.0
C395 C 0.86951 0.29132 0.57725 0.0
C396 C 0.82936 0.30671 0.50589 0.0
C397 C 0.89021 0.36148 0.49702 0.0
C398 C 0.93696 0.38551 0.53236 0.0
C399 C 0.92649 0.35109 0.57199 0.0
loop_
_geom_bond_atom_site_label_1
_geom_bond_atom_site_label_2
_geom_bond_distance
_geom_bond_site_symmetry_2
_ccdc_geom_bond_type
Eu0 C9 2.828 . S
Eu0 O11 2.392 . S
Eu0 O13 2.418 . S
Eu0 O18 2.373 . S
Eu0 O21 2.488 . S
Eu0 O22 2.471 . S
Eu0 O23 2.349 . S
Eu1 O10 2.373 . S
Eu1 O14 2.488 1_554 S
Eu1 O15 2.471 1_554 S
Eu1 O16 2.349 . S
Eu1 O19 2.392 . S
Eu1 O20 2.418 . S
Eu1 C30 2.828 1_554 S
C2 O20 1.244 . S
C2 O23 1.265 . S
C3 C4 1.379 . S
C3 C7 1.373 1_545 S
C3 C9 1.505 . S
C4 C3 1.379 . S
C4 C6 1.369 . S
C4 H32 0.930 . S
C5 C7 1.383 . S
C5 C8 1.382 . S
C5 H33 0.930 . S
C6 C4 1.369 . S
C6 C8 1.392 1_545 S
C6 H34 0.930 . S
C7 C3 1.373 1_565 S
C7 C5 1.383 . S
C7 H35 0.931 . S
C8 C5 1.382 . S
C8 C6 1.392 1_565 S
C9 Eu0 2.828 . S
C9 C3 1.505 . S
C9 O21 1.249 . S
C9 O22 1.244 . S
O10 Eu1 2.373 . S
O10 C12 1.258 . S
O11 Eu0 2.392 . S
O11 C12 1.242 . S
C12 O10 1.258 . S
C12 O11 1.242 . S
O13 Eu0 2.418 . S
O13 C17 1.244 . S
O14 Eu1 2.488 1_556 S
O14 C30 1.249 . S
O15 Eu1 2.471 1_556 S
O15 C30 1.244 . S
O16 Eu1 2.349 . S
O16 C17 1.265 . S
C17 O13 1.244 . S
C17 O16 1.265 . S
O18 Eu0 2.373 . S
O18 C31 1.258 . S
O19 Eu1 2.392 . S
O19 C31 1.242 . S
O20 Eu1 2.418 . S
O20 C2 1.244 . S
O21 Eu0 2.488 . S
O21 C9 1.249 . S
O22 Eu0 2.471 . S
O22 C9 1.244 . S
O23 Eu0 2.349 . S
O23 C2 1.265 . S
C24 C25 1.379 . S
C24 C28 1.373 . S
C24 C30 1.505 . S
C25 C24 1.379 . S
C25 C27 1.369 . S
C25 H36 0.930 . S
C26 C28 1.383 . S
C26 C29 1.382 . S
C26 H37 0.930 . S
C27 C25 1.369 . S
C27 C29 1.392 . S
C27 H38 0.930 . S
C28 C24 1.373 . S
C28 C26 1.383 . S
C28 H39 0.931 . S
C29 C26 1.382 . S
C29 C27 1.392 . S
C30 Eu1 2.828 1_556 S
C30 O14 1.249 . S
C30 O15 1.244 . S
C30 C24 1.505 . S
C31 O18 1.258 . S
C31 O19 1.242 . S
H32 C4 0.930 . S
H33 C5 0.930 . S
H34 C6 0.930 . S
H35 C7 0.931 . S
H36 C25 0.930 . S
H37 C26 0.930 . S
H38 C27 0.930 . S
H39 C28 0.931 . S
Eu40 C49 2.828 . S
Eu40 O51 2.392 . S
Eu40 O53 2.418 . S
Eu40 O58 2.373 . S
Eu40 O61 2.488 . S
Eu40 O62 2.471 . S
Eu40 O63 2.349 . S
Eu41 O50 2.373 . S
Eu41 O54 2.488 . S
Eu41 O55 2.471 . S
Eu41 O56 2.349 . S
Eu41 O59 2.392 . S
Eu41 O60 2.418 . S
Eu41 C70 2.828 . S
C42 O60 1.244 . S
C42 O63 1.265 . S
C43 C44 1.379 . S
C43 C47 1.373 1_455 S
C43 C49 1.505 . S
C44 C43 1.379 . S
C44 C46 1.369 . S
C44 H72 0.930 . S
C45 C47 1.383 . S
C45 C48 1.382 . S
C45 H73 0.930 . S
C46 C44 1.369 . S
C46 C48 1.392 1_455 S
C46 H74 0.930 . S
C47 C43 1.373 1_655 S
C47 C45 1.383 . S
C47 H75 0.931 . S
C48 C45 1.382 . S
C48 C46 1.392 1_655 S
C49 Eu40 2.828 . S
C49 C43 1.505 . S
C49 O61 1.249 . S
C49 O62 1.244 . S
O50 Eu41 2.373 . S
O50 C52 1.258 . S
O51 Eu40 2.392 . S
O51 C52 1.242 . S
C52 O50 1.258 . S
C52 O51 1.242 . S
O53 Eu40 2.418 . S
O53 C57 1.244 . S
O54 Eu41 2.488 . S
O54 C70 1.249 . S
O55 Eu41 2.471 . S
O55 C70 1.244 . S
O56 Eu41 2.349 . S
O56 C57 1.265 . S
C57 O53 1.244 . S
C57 O56 1.265 . S
O58 Eu40 2.373 . S
O58 C71 1.258 . S
O59 Eu41 2.392 . S
O59 C71 1.242 . S
O60 Eu41 2.418 . S
O60 C42 1.244 . S
O61 Eu40 2.488 . S
O61 C49 1.249 . S
O62 Eu40 2.471 . S
O62 C49 1.244 . S
O63 Eu40 2.349 . S
O63 C42 1.265 . S
C64 C65 1.379 . S
C64 C68 1.373 . S
C64 C70 1.505 . S
C65 C64 1.379 . S
C65 C67 1.369 . S
C65 H76 0.930 . S
C66 C68 1.383 . S
C66 C69 1.382 . S
C66 H77 0.930 . S
C67 C65 1.369 . S
C67 C69 1.392 . S
C67 H78 0.930 . S
C68 C64 1.373 . S
C68 C66 1.383 . S
C68 H79 0.931 . S
C69 C66 1.382 . S
C69 C67 1.392 . S
C70 Eu41 2.828 . S
C70 O54 1.249 . S
C70 O55 1.244 . S
C70 C64 1.505 . S
C71 O58 1.258 . S
C71 O59 1.242 . S
H72 C44 0.930 . S
H73 C45 0.930 . S
H74 C46 0.930 . S
H75 C47 0.931 . S
H76 C65 0.930 . S
H77 C66 0.930 . S
H78 C67 0.930 . S
H79 C68 0.931 . S
Eu80 C89 2.828 . S
Eu80 O91 2.392 . S
Eu80 O93 2.418 . S
Eu80 O98 2.373 1_545 S
Eu80 O101 2.488 . S
Eu80 O102 2.471 . S
Eu80 O103 2.349 . S
Eu81 O90 2.373 1_565 S
Eu81 O94 2.488 1_554 S
Eu81 O95 2.471 1_554 S
Eu81 O96 2.349 . S
Eu81 O99 2.392 . S
Eu81 O100 2.418 . S
Eu81 C110 2.828 1_554 S
C82 O100 1.244 . S
C82 O103 1.265 1_565 S
C83 C84 1.379 . S
C83 C87 1.373 . S
C83 C89 1.505 . S
C84 C83 1.379 . S
C84 C86 1.369 . S
C84 H112 0.930 . S
C85 C87 1.383 . S
C85 C88 1.382 . S
C85 H113 0.930 . S
C86 C84 1.369 . S
C86 C88 1.392 . S
C86 H114 0.930 . S
C87 C83 1.373 . S
C87 C85 1.383 . S
C87 H115 0.931 . S
C88 C85 1.382 . S
C88 C86 1.392 . S
C89 Eu80 2.828 . S
C89 C83 1.505 . S
C89 O101 1.249 . S
C89 O102 1.244 . S
O90 Eu81 2.373 1_545 S
O90 C92 1.258 . S
O91 Eu80 2.392 . S
O91 C92 1.242 . S
C92 O90 1.258 . S
C92 O91 1.242 . S
O93 Eu80 2.418 . S
O93 C97 1.244 . S
O94 Eu81 2.488 1_556 S
O94 C110 1.249 . S
O95 Eu81 2.471 1_556 S
O95 C110 1.244 . S
O96 Eu81 2.349 . S
O96 C97 1.265 1_565 S
C97 O93 1.244 . S
C97 O96 1.265 1_545 S
O98 Eu80 2.373 1_565 S
O98 C111 1.258 . S
O99 Eu81 2.392 . S
O99 C111 1.242 . S
O100 Eu81 2.418 . S
O100 C82 1.244 . S
O101 Eu80 2.488 . S
O101 C89 1.249 . S
O102 Eu80 2.471 . S
O102 C89 1.244 . S
O103 Eu80 2.349 . S
O103 C82 1.265 1_545 S
C104 C105 1.379 . S
C104 C108 1.373 . S
C104 C110 1.505 . S
C105 C104 1.379 . S
C105 C107 1.369 . S
C105 H116 0.930 . S
C106 C108 1.383 . S
C106 C109 1.382 . S
C106 H117 0.930 . S
C107 C105 1.369 . S
C107 C109 1.392 . S
C107 H118 0.930 . S
C108 C104 1.373 . S
C108 C106 1.383 . S
C108 H119 0.931 . S
C109 C106 1.382 . S
C109 C107 1.392 . S
C110 Eu81 2.828 1_556 S
C110 O94 1.249 . S
C110 O95 1.244 . S
C110 C104 1.505 . S
C111 O98 1.258 . S
C111 O99 1.242 . S
H112 C84 0.930 . S
H113 C85 0.930 . S
H114 C86 0.930 . S
H115 C87 0.931 . S
H116 C105 0.930 . S
H117 C106 0.930 . S
H118 C107 0.930 . S
H119 C108 0.931 . S
Eu120 C129 2.828 . S
Eu120 O131 2.392 . S
Eu120 O133 2.418 . S
Eu120 O138 2.373 1_455 S
Eu120 O141 2.488 . S
Eu120 O142 2.471 . S
Eu120 O143 2.349 . S
Eu121 O130 2.373 1_655 S
Eu121 O134 2.488 . S
Eu121 O135 2.471 . S
Eu121 O136 2.349 . S
Eu121 O139 2.392 . S
Eu121 O140 2.418 . S
Eu121 C150 2.828 . S
C122 O140 1.244 . S
C122 O143 1.265 1_655 S
C123 C124 1.379 . S
C123 C127 1.373 . S
C123 C129 1.505 . S
C124 C123 1.379 . S
C124 C126 1.369 . S
C124 H152 0.930 . S
C125 C127 1.383 . S
C125 C128 1.382 . S
C125 H153 0.930 . S
C126 C124 1.369 . S
C126 C128 1.392 . S
C126 H154 0.930 . S
C127 C123 1.373 . S
C127 C125 1.383 . S
C127 H155 0.931 . S
C128 C125 1.382 . S
C128 C126 1.392 . S
C129 Eu120 2.828 . S
C129 C123 1.505 . S
C129 O141 1.249 . S
C129 O142 1.244 . S
O130 Eu121 2.373 1_455 S
O130 C132 1.258 . S
O131 Eu120 2.392 . S
O131 C132 1.242 . S
C132 O130 1.258 . S
C132 O131 1.242 . S
O133 Eu120 2.418 . S
O133 C137 1.244 . S
O134 Eu121 2.488 . S
O134 C150 1.249 . S
O135 Eu121 2.471 . S
O135 C150 1.244 . S
O136 Eu121 2.349 . S
O136 C137 1.265 1_655 S
C137 O133 1.244 . S
C137 O136 1.265 1_455 S
O138 Eu120 2.373 1_655 S
O138 C151 1.258 . S
O139 Eu121 2.392 . S
O139 C151 1.242 . S
O140 Eu121 2.418 . S
O140 C122 1.244 . S
O141 Eu120 2.488 . S
O141 C129 1.249 . S
O142 Eu120 2.471 . S
O142 C129 1.244 . S
O143 Eu120 2.349 . S
O143 C122 1.265 1_455 S
C144 C145 1.379 . S
C144 C148 1.373 . S
C144 C150 1.505 . S
C145 C144 1.379 . S
C145 C147 1.369 . S
C145 H156 0.930 . S
C146 C148 1.383 . S
C146 C149 1.382 . S
C146 H157 0.930 . S
C147 C145 1.369 . S
C147 C149 1.392 . S
C147 H158 0.930 . S
C148 C144 1.373 . S
C148 C146 1.383 . S
C148 H159 0.931 . S
C149 C146 1.382 . S
C149 C147 1.392 . S
C150 Eu121 2.828 . S
C150 O134 1.249 . S
C150 O135 1.244 . S
C150 C144 1.505 . S
C151 O138 1.258 . S
C151 O139 1.242 . S
H152 C124 0.930 . S
H153 C125 0.930 . S
H154 C126 0.930 . S
H155 C127 0.931 . S
H156 C145 0.930 . S
H157 C146 0.930 . S
H158 C147 0.930 . S
H159 C148 0.931 . S
H160 C168 0.950 . S
H161 C173 0.950 . S
H162 C170 0.950 1_565 S
H163 C172 0.950 . S
H164 C174 0.950 . S
H165 C176 0.950 . S
H166 C178 0.950 . S
H167 C179 0.950 . S
C168 H160 0.950 . S
C168 C169 1.386 1_565 S
C168 C170 1.391 1_665 S
C169 C168 1.386 1_545 S
C169 C173 1.393 . S
C170 H162 0.950 1_545 S
C170 C168 1.391 1_445 S
C170 C171 1.400 . S
C171 C170 1.400 . S
C171 C172 1.398 . S
C171 C177 1.491 . S
C172 H163 0.950 . S
C172 C171 1.398 . S
C172 C173 1.391 1_455 S
C173 H161 0.950 . S
C173 C169 1.393 . S
C173 C172 1.391 1_655 S
C174 H164 0.950 . S
C174 C175 1.386 . S
C174 C176 1.391 . S
C175 C174 1.386 . S
C175 C179 1.393 . S
C176 H165 0.950 . S
C176 C174 1.391 . S
C176 C177 1.400 . S
C177 C171 1.491 . S
C177 C176 1.400 . S
C177 C178 1.398 . S
C178 H166 0.950 . S
C178 C177 1.398 . S
C178 C179 1.391 . S
C179 H167 0.950 . S
C179 C175 1.393 . S
C179 C178 1.391 . S
H180 C188 0.950 . S
H181 C193 0.950 . S
H182 C190 0.950 1_655 S
H183 C192 0.950 . S
H184 C194 0.950 . S
H185 C196 0.950 . S
H186 C198 0.950 . S
H187 C199 0.950 . S
C188 H180 0.950 . S
C188 C189 1.386 1_655 S
C188 C190 1.391 1_665 S
C189 C188 1.386 1_455 S
C189 C193 1.393 . S
C190 H182 0.950 1_455 S
C190 C188 1.391 1_445 S
C190 C191 1.400 . S
C191 C190 1.400 . S
C191 C192 1.398 . S
C191 C197 1.491 . S
C192 H183 0.950 . S
C192 C191 1.398 . S
C192 C193 1.391 1_545 S
C193 H181 0.950 . S
C193 C189 1.393 . S
C193 C192 1.391 1_565 S
C194 H184 0.950 . S
C194 C195 1.386 . S
C194 C196 1.391 . S
C195 C194 1.386 . S
C195 C199 1.393 . S
C196 H185 0.950 . S
C196 C194 1.391 . S
C196 C197 1.400 . S
C197 C191 1.491 . S
C197 C196 1.400 . S
C197 C198 1.398 . S
C198 H186 0.950 . S
C198 C197 1.398 . S
C198 C199 1.391 . S
C199 H187 0.950 . S
C199 C195 1.393 . S
C199 C198 1.391 . S
H200 C208 0.950 . S
H201 C213 0.950 . S
H202 C210 0.950 . S
H203 C212 0.950 . S
H204 C214 0.950 . S
H205 C216 0.950 . S
H206 C218 0.950 . S
H207 C219 0.950 . S
C208 H200 0.950 . S
C208 C209 1.377 1_545 S
C208 C210 1.391 . S
C209 C208 1.377 1_565 S
C209 C213 1.388 . S
C210 H202 0.950 . S
C210 C208 1.391 . S
C210 C211 1.400 . S
C211 C210 1.400 . S
C211 C212 1.398 . S
C211 C217 1.491 . S
C212 H203 0.950 . S
C212 C211 1.398 . S
C212 C213 1.391 1_545 S
C213 H201 0.950 . S
C213 C209 1.388 . S
C213 C212 1.391 1_565 S
C214 H204 0.950 . S
C214 C215 1.386 . S
C214 C216 1.391 . S
C215 C214 1.386 . S
C215 C219 1.393 . S
C216 H205 0.950 . S
C216 C214 1.391 . S
C216 C217 1.400 . S
C217 C211 1.491 . S
C217 C216 1.400 . S
C217 C218 1.398 . S
C218 H206 0.950 . S
C218 C217 1.398 . S
C218 C219 1.391 . S
C219 H207 0.950 . S
C219 C215 1.393 . S
C219 C218 1.391 . S
H220 C228 0.950 . S
H221 C233 0.950 . S
H222 C230 0.950 . S
H223 C232 0.950 . S
H224 C234 0.950 . S
H225 C236 0.950 . S
H226 C238 0.950 . S
H227 C239 0.950 . S
C228 H220 0.950 . S
C228 C229 1.386 . S
C228 C230 1.391 . S
C229 C228 1.386 . S
C229 C233 1.393 . S
C230 H222 0.950 . S
C230 C228 1.391 . S
C230 C231 1.400 . S
C231 C230 1.400 . S
C231 C232 1.398 . S
C231 C237 1.491 . S
C232 H223 0.950 . S
C232 C231 1.398 . S
C232 C233 1.391 . S
C233 H221 0.950 . S
C233 C229 1.393 . S
C233 C232 1.391 . S
C234 H224 0.950 . S
C234 C235 1.386 1_655 S
C234 C236 1.391 1_655 S
C235 C234 1.386 1_455 S
C235 C239 1.393 . S
C236 H225 0.950 . S
C236 C234 1.391 1_455 S
C236 C237 1.400 . S
C237 C231 1.491 . S
C237 C236 1.400 . S
C237 C238 1.398 . S
C238 H226 0.950 . S
C238 C237 1.398 . S
C238 C239 1.391 . S
C239 H227 0.950 . S
C239 C235 1.393 . S
C239 C238 1.391 . S
H240 C248 0.950 . S
H241 C253 0.950 . S
H242 C250 0.950 . S
H243 C252 0.950 . S
H244 C254 0.950 . S
H245 C256 0.950 . S
H246 C258 0.950 . S
H247 C259 0.950 . S
C248 H240 0.950 . S
C248 C249 1.386 . S
C248 C250 1.391 . S
C249 C248 1.386 . S
C249 C253 1.393 . S
C250 H242 0.950 . S
C250 C248 1.391 . S
C250 C251 1.400 . S
C251 C250 1.400 . S
C251 C252 1.398 . S
C251 C257 1.491 . S
C252 H243 0.950 . S
C252 C251 1.398 . S
C252 C253 1.391 . S
C253 H241 0.950 . S
C253 C249 1.393 . S
C253 C252 1.391 . S
C254 H244 0.950 . S
C254 C255 1.386 . S
C254 C256 1.391 . S
C255 C254 1.386 . S
C255 C259 1.393 . S
C256 H245 0.950 . S
C256 C254 1.391 . S
C256 C257 1.400 . S
C257 C251 1.491 . S
C257 C256 1.400 . S
C257 C258 1.398 . S
C258 H246 0.950 . S
C258 C257 1.398 . S
C258 C259 1.391 . S
C259 H247 0.950 . S
C259 C255 1.393 . S
C259 C258 1.391 . S
H260 C268 0.950 . S
H261 C273 0.950 . S
H262 C270 0.950 . S
H263 C272 0.950 . S
H264 C274 0.950 . S
H265 C276 0.950 1_455 S
H266 C278 0.950 . S
H267 C279 0.950 . S
C268 H260 0.950 . S
C268 C269 1.386 1_655 S
C268 C270 1.391 . S
C269 C268 1.386 1_455 S
C269 C273 1.393 . S
C270 H262 0.950 . S
C270 C268 1.391 . S
C270 C271 1.400 . S
C271 C270 1.400 . S
C271 C272 1.398 1_655 S
C271 C277 1.491 . S
C272 H263 0.950 . S
C272 C271 1.398 1_455 S
C272 C273 1.391 . S
C273 H261 0.950 . S
C273 C269 1.393 . S
C273 C272 1.391 . S
C274 H264 0.950 . S
C274 C275 1.386 . S
C274 C276 1.391 . S
C275 C274 1.386 . S
C275 C279 1.393 . S
C276 H265 0.950 1_655 S
C276 C274 1.391 . S
C276 C277 1.400 . S
C277 C271 1.491 . S
C277 C276 1.400 . S
C277 C278 1.398 . S
C278 H266 0.950 . S
C278 C277 1.398 . S
C278 C279 1.391 . S
C279 H267 0.950 . S
C279 C275 1.393 . S
C279 C278 1.391 . S
H280 C288 0.950 . S
H281 C293 0.950 . S
H282 C290 0.950 . S
H283 C292 0.950 . S
H284 C294 0.950 . S
H285 C296 0.950 . S
H286 C298 0.950 . S
H287 C299 0.950 . S
C288 H280 0.950 . S
C288 C289 1.386 . S
C288 C290 1.391 . S
C289 C288 1.386 . S
C289 C293 1.393 . S
C290 H282 0.950 . S
C290 C288 1.391 . S
C290 C291 1.400 . S
C291 C290 1.400 . S
C291 C292 1.398 . S
C291 C297 1.491 . S
C292 H283 0.950 . S
C292 C291 1.398 . S
C292 C293 1.391 . S
C293 H281 0.950 . S
C293 C289 1.393 . S
C293 C292 1.391 . S
C294 H284 0.950 . S
C294 C295 1.386 . S
C294 C296 1.391 . S
C295 C294 1.386 . S
C295 C299 1.393 . S
C296 H285 0.950 . S
C296 C294 1.391 . S
C296 C297 1.400 . S
C297 C291 1.491 . S
C297 C296 1.400 . S
C297 C298 1.398 . S
C298 H286 0.950 . S
C298 C297 1.398 . S
C298 C299 1.391 . S
C299 H287 0.950 . S
C299 C295 1.393 . S
C299 C298 1.391 . S
H300 C308 0.950 . S
H301 C313 0.950 . S
H302 C310 0.950 1_545 S
H303 C312 0.950 . S
H304 C314 0.950 . S
H305 C316 0.950 . S
H306 C318 0.950 . S
H307 C319 0.950 . S
C308 H300 0.950 . S
C308 C309 1.386 . S
C308 C310 1.391 . S
C309 C308 1.386 . S
C309 C313 1.393 . S
C310 H302 0.950 1_565 S
C310 C308 1.391 . S
C310 C311 1.400 . S
C311 C310 1.400 . S
C311 C312 1.398 . S
C311 C317 1.491 . S
C312 H303 0.950 . S
C312 C311 1.398 . S
C312 C313 1.391 . S
C313 H301 0.950 . S
C313 C309 1.393 . S
C313 C312 1.391 . S
C314 H304 0.950 . S
C314 C315 1.386 1_565 S
C314 C316 1.391 . S
C315 C314 1.386 1_545 S
C315 C319 1.393 . S
C316 H305 0.950 . S
C316 C314 1.391 . S
C316 C317 1.400 . S
C317 C311 1.491 . S
C317 C316 1.400 . S
C317 C318 1.398 1_565 S
C318 H306 0.950 . S
C318 C317 1.398 1_545 S
C318 C319 1.391 . S
C319 H307 0.950 . S
C319 C315 1.393 . S
C319 C318 1.391 . S
H320 C328 0.950 . S
H321 C333 0.950 . S
H322 C330 0.950 . S
H323 C332 0.950 . S
H324 C334 0.950 . S
H325 C336 0.950 . S
H326 C338 0.950 . S
H327 C339 0.950 . S
C328 H320 0.950 . S
C328 C329 1.386 . S
C328 C330 1.391 . S
C329 C328 1.386 . S
C329 C333 1.393 . S
C330 H322 0.950 . S
C330 C328 1.391 . S
C330 C331 1.400 . S
C331 C330 1.400 . S
C331 C332 1.398 . S
C331 C337 1.491 . S
C332 H323 0.950 . S
C332 C331 1.398 . S
C332 C333 1.391 . S
C333 H321 0.950 . S
C333 C329 1.393 . S
C333 C332 1.391 . S
C334 H324 0.950 . S
C334 C335 1.386 . S
C334 C336 1.391 . S
C335 C334 1.386 . S
C335 C339 1.393 . S
C336 H325 0.950 . S
C336 C334 1.391 . S
C336 C337 1.400 . S
C337 C331 1.491 . S
C337 C336 1.400 . S
C337 C338 1.398 . S
C338 H326 0.950 . S
C338 C337 1.398 . S
C338 C339 1.391 . S
C339 H327 0.950 . S
C339 C335 1.393 . S
C339 C338 1.391 . S
H340 C348 0.950 . S
H341 C353 0.950 . S
H342 C350 0.950 . S
H343 C352 0.950 . S
H344 C354 0.950 . S
H345 C356 0.950 . S
H346 C358 0.950 . S
H347 C359 0.950 . S
C348 H340 0.950 . S
C348 C349 1.386 . S
C348 C350 1.391 1_545 S
C349 C348 1.386 . S
C349 C353 1.393 . S
C350 H342 0.950 . S
C350 C348 1.391 1_565 S
C350 C351 1.400 . S
C351 C350 1.400 . S
C351 C352 1.398 . S
C351 C357 1.491 . S
C352 H343 0.950 . S
C352 C351 1.398 . S
C352 C353 1.391 1_565 S
C353 H341 0.950 . S
C353 C349 1.393 . S
C353 C352 1.391 1_545 S
C354 H344 0.950 . S
C354 C355 1.386 . S
C354 C356 1.391 . S
C355 C354 1.386 . S
C355 C359 1.393 . S
C356 H345 0.950 . S
C356 C354 1.391 . S
C356 C357 1.400 . S
C357 C351 1.491 . S
C357 C356 1.400 . S
C357 C358 1.398 . S
C358 H346 0.950 . S
C358 C357 1.398 . S
C358 C359 1.391 . S
C359 H347 0.950 . S
C359 C355 1.393 . S
C359 C358 1.391 . S
H360 C368 0.950 . S
H361 C373 0.950 . S
H362 C370 0.950 . S
H363 C372 0.950 . S
H364 C374 0.950 . S
H365 C376 0.950 . S
H366 C378 0.950 . S
H367 C379 0.950 . S
C368 H360 0.950 . S
C368 C369 1.386 . S
C368 C370 1.391 . S
C369 C368 1.386 . S
C369 C373 1.393 . S
C370 H362 0.950 . S
C370 C368 1.391 . S
C370 C371 1.400 . S
C371 C370 1.400 . S
C371 C372 1.398 . S
C371 C377 1.491 . S
C372 H363 0.950 . S
C372 C371 1.398 . S
C372 C373 1.391 . S
C373 H361 0.950 . S
C373 C369 1.393 . S
C373 C372 1.391 . S
C374 H364 0.950 . S
C374 C375 1.386 . S
C374 C376 1.391 . S
C375 C374 1.386 . S
C375 C379 1.393 . S
C376 H365 0.950 . S
C376 C374 1.391 . S
C376 C377 1.400 . S
C377 C371 1.491 . S
C377 C376 1.400 . S
C377 C378 1.398 . S
C378 H366 0.950 . S
C378 C377 1.398 . S
C378 C379 1.391 . S
C379 H367 0.950 . S
C379 C375 1.393 . S
C379 C378 1.391 . S
H380 C388 0.950 . S
H381 C393 0.950 . S
H382 C390 0.950 . S
H383 C392 0.950 . S
H384 C394 0.950 . S
H385 C396 0.950 . S
H386 C398 0.950 . S
H387 C399 0.950 . S
C388 H380 0.950 . S
C388 C389 1.386 . S
C388 C390 1.391 . S
C389 C388 1.386 . S
C389 C393 1.393 . S
C390 H382 0.950 . S
C390 C388 1.391 . S
C390 C391 1.400 . S
C391 C390 1.400 . S
C391 C392 1.398 . S
C391 C397 1.491 . S
C392 H383 0.950 . S
C392 C391 1.398 . S
C392 C393 1.391 . S
C393 H381 0.950 . S
C393 C389 1.393 . S
C393 C392 1.391 . S
C394 H384 0.950 . S
C394 C395 1.386 . S
C394 C396 1.391 1_455 S
C395 C394 1.386 . S
C395 C399 1.393 . S
C396 H385 0.950 . S
C396 C394 1.391 1_655 S
C396 C397 1.400 . S
C397 C391 1.491 . S
C397 C396 1.400 . S
C397 C398 1.398 . S
C398 H386 0.950 . S
C398 C397 1.398 . S
C398 C399 1.391 1_655 S
C399 H387 0.950 . S
C399 C395 1.393 . S
C399 C398 1.391 1_455 S
C169 C97 0.615 . S
C175 C17 0.586 . S
C189 C137 0.575 . S
C195 C57 0.552 . S
C209 C82 1.244 . S
C215 C2 1.234 . S
C229 C42 1.223 . S
C235 C122 1.215 1_455 S
C249 C71 4.688 . S
C255 C31 4.685 . S
C269 C52 4.459 . S
C275 C92 4.461 1_556 S
C289 C151 4.690 . S
C295 C111 4.687 . S
C309 C132 4.460 . S
C315 C12 4.462 1_556 S
C329 C109 0.826 . S
C335 C149 0.830 . S
C349 C8 1.161 1_545 S
C355 C128 1.174 . S
C369 C69 0.869 . S
C375 C29 0.873 . S
C389 C88 1.142 . S
C395 C48 1.148 1_455 S
