# Generated by pormake.
# Topology umw, (4)-cn, num edge types: 1
# Building blocks:
#     Node 0, Type 0, BuildingBlock: QUQFOY_clean_sbu_1, # of connection points: 4
#     Node 1, Type 0, BuildingBlock: QUQFOY_clean_sbu_1, # of connection points: 4
#     Node 2, Type 0, BuildingBlock: QUQFOY_clean_sbu_1, # of connection points: 4
#     Node 3, Type 0, BuildingBlock: QUQFOY_clean_sbu_1, # of connection points: 4
#     Node 4, Type 0, BuildingBlock: QUQFOY_clean_sbu_1, # of connection points: 4
#     Node 5, Type 0, BuildingBlock: QUQFOY_clean_sbu_1, # of connection points: 4
#     Node 6, Type 0, BuildingBlock: QUQFOY_clean_sbu_1, # of connection points: 4
#     Node 7, Type 0, BuildingBlock: QUQFOY_clean_sbu_1, # of connection points: 4
#     Edge 8, Type (0, 0), BuildingBlock: ZUJKAS_clean_linker_0, # of connection points: 2
#     Edge 9, Type (0, 0), BuildingBlock: ZUJKAS_clean_linker_0, # of connection points: 2
#     Edge 10, Type (0, 0), BuildingBlock: ZUJKAS_clean_linker_0, # of connection points: 2
#     Edge 11, Type (0, 0), BuildingBlock: ZUJKAS_clean_linker_0, # of connection points: 2
#     Edge 12, Type (0, 0), BuildingBlock: ZUJKAS_clean_linker_0, # of connection points: 2
#     Edge 13, Type (0, 0), BuildingBlock: ZUJKAS_clean_linker_0, # of connection points: 2
#     Edge 14, Type (0, 0), BuildingBlock: ZUJKAS_clean_linker_0, # of connection points: 2
#     Edge 15, Type (0, 0), BuildingBlock: ZUJKAS_clean_linker_0, # of connection points: 2
#     Edge 16, Type (0, 0), BuildingBlock: ZUJKAS_clean_linker_0, # of connection points: 2
#     Edge 17, Type (0, 0), BuildingBlock: ZUJKAS_clean_linker_0, # of connection points: 2
#     Edge 18, Type (0, 0), BuildingBlock: ZUJKAS_clean_linker_0, # of connection points: 2
#     Edge 19, Type (0, 0), BuildingBlock: ZUJKAS_clean_linker_0, # of connection points: 2
#     Edge 20, Type (0, 0), BuildingBlock: ZUJKAS_clean_linker_0, # of connection points: 2
#     Edge 21, Type (0, 0), BuildingBlock: ZUJKAS_clean_linker_0, # of connection points: 2
#     Edge 22, Type (0, 0), BuildingBlock: ZUJKAS_clean_linker_0, # of connection points: 2
#     Edge 23, Type (0, 0), BuildingBlock: ZUJKAS_clean_linker_0, # of connection points: 2
# Relax obj value: 0.051
# Max RMSD: 0.096
# Mean RMSD: 0.096
data_MOF--net-umw--node1-QUQFOY_clean_sbu_1--edge1-ZUJKAS_clean_linker_0
_symmetry_space_group_name_H-M    P1
_symmetry_Int_Tables_number       1
_symmetry_cell_setting            triclinic
loop_
_symmetry_equiv_pos_as_xyz
'x, y, z'
_cell_length_a     54.90659
_cell_length_b     54.910231
_cell_length_c     36.275721
_cell_angle_alpha  89.983095
_cell_angle_beta   89.989602
_cell_angle_gamma 89.999394
loop_
_atom_site_label
_atom_site_type_symbol
_atom_site_fract_x
_atom_site_fract_y
_atom_site_fract_z
_atom_type_partial_charge
O0 O 0.42236 0.18187 0.36728 0.0
Cd1 Cd 0.39835 0.17462 0.32542 0.0
Cd2 Cd 0.44353 0.17309 0.28766 0.0
O3 O 0.45658 0.18728 0.33656 0.0
O4 O 0.36714 0.17757 0.35283 0.0
O5 O 0.37767 0.20297 0.30844 0.0
C6 C 0.36256 0.19693 0.33414 0.0
C7 C 0.45795 0.18859 0.23168 0.0
C8 C 0.44469 0.18778 0.36661 0.0
C9 C 0.41387 0.12671 0.29415 0.0
O10 O 0.43425 0.1366 0.28681 0.0
O11 O 0.39636 0.13933 0.30673 0.0
O12 O 0.4714 0.17529 0.25269 0.0
O13 O 0.43624 0.19378 0.24297 0.0
O14 O 0.81316 0.42173 0.61679 0.0
Cd15 Cd 0.81997 0.39897 0.57317 0.0
Cd16 Cd 0.82238 0.4455 0.53981 0.0
O17 O 0.80836 0.45733 0.58963 0.0
O18 O 0.81756 0.36719 0.59919 0.0
O19 O 0.79141 0.37847 0.55632 0.0
C20 C 0.7979 0.36291 0.58112 0.0
C21 C 0.80639 0.45909 0.48376 0.0
C22 C 0.80767 0.44415 0.61843 0.0
C23 C 0.86816 0.41504 0.54307 0.0
O24 O 0.85878 0.43599 0.53835 0.0
O25 O 0.85509 0.39722 0.5535 0.0
O26 O 0.81926 0.47315 0.50451 0.0
O27 O 0.80173 0.43737 0.49558 0.0
O28 O 0.57428 0.82177 0.86627 0.0
Cd29 Cd 0.59852 0.82617 0.82371 0.0
Cd30 Cd 0.55399 0.82342 0.78686 0.0
O31 O 0.54252 0.80772 0.8358 0.0
O32 O 0.62939 0.82509 0.85233 0.0
O33 O 0.61997 0.79753 0.81048 0.0
C34 C 0.63462 0.80501 0.83591 0.0
C35 C 0.54049 0.80785 0.73034 0.0
C36 C 0.55333 0.81203 0.86606 0.0
C37 C 0.58108 0.87153 0.78964 0.0
O38 O 0.56073 0.86064 0.7865 0.0
O39 O 0.59994 0.85987 0.79952 0.0
O40 O 0.52618 0.81974 0.75199 0.0
O41 O 0.56251 0.80392 0.74144 0.0
O42 O 0.1809 0.57529 0.11555 0.0
Cd43 Cd 0.17585 0.5986 0.07203 0.0
Cd44 Cd 0.17377 0.55333 0.03647 0.0
O45 O 0.18673 0.54058 0.08635 0.0
O46 O 0.17991 0.6303 0.0977 0.0
O47 O 0.20558 0.61729 0.05523 0.0
C48 C 0.19986 0.63335 0.07974 0.0
C49 C 0.18991 0.53856 0.98119 0.0
C50 C 0.18647 0.55286 0.11603 0.0
C51 C 0.12818 0.58425 0.0392 0.0
O52 O 0.13752 0.56337 0.03377 0.0
O53 O 0.14116 0.60169 0.05117 0.0
O54 O 0.1762 0.52529 0.00188 0.0
O55 O 0.19528 0.5602 0.99259 0.0
O56 O 0.42594 0.81796 0.22111 0.0
Cd57 Cd 0.40212 0.82011 0.26451 0.0
Cd58 Cd 0.44673 0.81971 0.30074 0.0
O59 O 0.4584 0.80509 0.25105 0.0
O60 O 0.37069 0.81699 0.23776 0.0
O61 O 0.38366 0.78942 0.27744 0.0
C62 C 0.36771 0.79618 0.25338 0.0
C63 C 0.46226 0.80463 0.35638 0.0
C64 C 0.4473 0.80917 0.22095 0.0
C65 C 0.41677 0.86612 0.29942 0.0
O66 O 0.43774 0.85644 0.30235 0.0
O67 O 0.39866 0.85342 0.28928 0.0
O68 O 0.47539 0.81748 0.33429 0.0
O69 O 0.44031 0.79944 0.34621 0.0
O70 O 0.18428 0.42318 0.47442 0.0
Cd71 Cd 0.17702 0.39954 0.5168 0.0
Cd72 Cd 0.174 0.44585 0.55242 0.0
O73 O 0.18727 0.45859 0.50275 0.0
O74 O 0.17962 0.36829 0.48943 0.0
O75 O 0.20529 0.37858 0.53351 0.0
C76 C 0.19899 0.36352 0.50792 0.0
C77 C 0.18956 0.46099 0.60785 0.0
C78 C 0.18886 0.44582 0.47364 0.0
C79 C 0.12859 0.41466 0.5477 0.0
O80 O 0.13789 0.43542 0.55426 0.0
O81 O 0.14168 0.39735 0.53555 0.0
O82 O 0.17578 0.47399 0.58689 0.0
O83 O 0.19527 0.43937 0.59671 0.0
O84 O 0.57273 0.18783 0.72461 0.0
Cd85 Cd 0.59551 0.18 0.76792 0.0
Cd86 Cd 0.54878 0.17891 0.8013 0.0
O87 O 0.53736 0.19373 0.752 0.0
O88 O 0.62719 0.18143 0.74143 0.0
O89 O 0.61706 0.20779 0.78465 0.0
C90 C 0.63222 0.2009 0.75953 0.0
C91 C 0.53453 0.19408 0.85747 0.0
C92 C 0.55051 0.19414 0.72319 0.0
C93 C 0.57782 0.13224 0.79723 0.0
O94 O 0.55716 0.14229 0.80157 0.0
O95 O 0.5962 0.14477 0.78756 0.0
O96 O 0.52071 0.18165 0.83578 0.0
O97 O 0.55643 0.1988 0.84654 0.0
O98 O 0.8102 0.57314 0.97501 0.0
Cd99 Cd 0.81921 0.59842 0.01432 0.0
Cd100 Cd 0.82252 0.55235 0.0542 0.0
O101 O 0.80846 0.53849 0.00566 0.0
O102 O 0.81776 0.6278 0.98231 0.0
O103 O 0.79299 0.62251 0.02939 0.0
C104 C 0.79946 0.63531 0.00121 0.0
C105 C 0.80764 0.53809 0.11071 0.0
C106 C 0.80593 0.55045 0.97591 0.0
C107 C 0.86801 0.5832 0.04509 0.0
O108 O 0.85867 0.56288 0.05426 0.0
O109 O 0.85492 0.60002 0.03138 0.0
O110 O 0.82102 0.52468 0.08974 0.0
O111 O 0.80209 0.55966 0.09918 0.0
H112 H 0.4929 0.19891 0.37819 0.0
H113 H 0.51284 0.20678 0.43747 0.0
H114 H 0.44389 0.19914 0.49323 0.0
H115 H 0.42379 0.1917 0.43449 0.0
H116 H 0.47232 0.23804 0.51979 0.0
H117 H 0.52444 0.15127 0.51148 0.0
H118 H 0.52854 0.17181 0.47343 0.0
H119 H 0.49931 0.15802 0.48112 0.0
C120 C 0.48196 0.19912 0.40303 0.0
C121 C 0.45681 0.19439 0.40163 0.0
C122 C 0.49338 0.20354 0.43685 0.0
C123 C 0.47985 0.20317 0.46969 0.0
C124 C 0.45464 0.19944 0.46818 0.0
H125 H 0.50227 0.19863 0.70441 0.0
H126 H 0.48557 0.20444 0.6424 0.0
C127 C 0.44322 0.19508 0.43452 0.0
C128 C 0.49189 0.20529 0.50598 0.0
H129 H 0.53051 0.17544 0.56408 0.0
C130 C 0.48519 0.22448 0.52946 0.0
C131 C 0.50851 0.18744 0.51848 0.0
C132 C 0.51553 0.16584 0.49503 0.0
C133 C 0.4947 0.22628 0.56529 0.0
C134 C 0.51102 0.20822 0.57792 0.0
C135 C 0.51802 0.18929 0.55419 0.0
C136 C 0.52074 0.20801 0.61593 0.0
C137 C 0.4873 0.24748 0.58921 0.0
C138 C 0.54598 0.20817 0.62154 0.0
C139 C 0.55553 0.20462 0.65671 0.0
C140 C 0.54002 0.20076 0.68703 0.0
C141 C 0.51468 0.20164 0.68164 0.0
C142 C 0.50511 0.20509 0.64627 0.0
H143 H 0.48018 0.26289 0.57252 0.0
H144 H 0.47267 0.24156 0.60831 0.0
H145 H 0.50289 0.25405 0.60599 0.0
H146 H 0.55832 0.21034 0.59846 0.0
H147 H 0.57515 0.20425 0.65992 0.0
H148 H 0.79997 0.41967 0.68264 0.0
H149 H 0.7934 0.43662 0.74384 0.0
H150 H 0.79496 0.50923 0.69859 0.0
H151 H 0.80141 0.49238 0.63673 0.0
H152 H 0.82682 0.46795 0.77777 0.0
H153 H 0.73502 0.50999 0.76781 0.0
H154 H 0.74573 0.48732 0.73554 0.0
H155 H 0.75593 0.5183 0.7318 0.0
C156 C 0.79864 0.43926 0.68546 0.0
C157 C 0.80138 0.4547 0.65475 0.0
C158 C 0.79482 0.44888 0.72052 0.0
C159 C 0.79352 0.47412 0.72568 0.0
C160 C 0.79551 0.48965 0.69505 0.0
H161 H 0.79775 0.57138 0.90894 0.0
H162 H 0.79235 0.55113 0.84986 0.0
C163 C 0.79931 0.48001 0.65977 0.0
C164 C 0.79233 0.48404 0.76353 0.0
H165 H 0.75813 0.51901 0.82156 0.0
C166 C 0.8117 0.47893 0.78752 0.0
C167 C 0.7726 0.49836 0.77597 0.0
C168 C 0.751 0.50371 0.7516 0.0
C169 C 0.81227 0.48837 0.82339 0.0
C170 C 0.79262 0.50286 0.83586 0.0
C171 C 0.77307 0.50772 0.81199 0.0
C172 C 0.79308 0.5147 0.8725 0.0
C173 C 0.83437 0.48355 0.84707 0.0
C174 C 0.79451 0.50091 0.90506 0.0
C175 C 0.79779 0.51246 0.9391 0.0
C176 C 0.79954 0.53798 0.94103 0.0
C177 C 0.79673 0.55169 0.90851 0.0
C178 C 0.79354 0.54016 0.87463 0.0
H179 H 0.85002 0.47675 0.8306 0.0
H180 H 0.84011 0.50033 0.86179 0.0
H181 H 0.82983 0.46952 0.86798 0.0
H182 H 0.7937 0.48122 0.90402 0.0
H183 H 0.79969 0.50138 0.96365 0.0
H184 H 0.43893 0.83229 0.15634 0.0
H185 H 0.45691 0.82387 0.09644 0.0
H186 H 0.49903 0.76533 0.14384 0.0
H187 H 0.48189 0.7747 0.2048 0.0
H188 H 0.52616 0.78905 0.09958 0.0
H189 H 0.44097 0.7727 0.02431 0.0
H190 H 0.43902 0.80203 0.04556 0.0
H191 H 0.44167 0.7751 0.07389 0.0
C192 C 0.45197 0.81755 0.15402 0.0
C193 C 0.45892 0.80403 0.18513 0.0
C194 C 0.46202 0.81254 0.11961 0.0
C195 C 0.47866 0.79336 0.11522 0.0
C196 C 0.48595 0.78 0.14642 0.0
H197 H 0.52046 0.77578 0.88177 0.0
H198 H 0.5035 0.76553 0.94257 0.0
C199 C 0.47626 0.7854 0.18121 0.0
C200 C 0.48948 0.78864 0.07838 0.0
H201 H 0.47497 0.78779 0.98694 0.0
C202 C 0.51493 0.78822 0.07502 0.0
C203 C 0.47498 0.78662 0.0462 0.0
C204 C 0.44766 0.78382 0.04781 0.0
C205 C 0.5262 0.78793 0.04033 0.0
C206 C 0.51163 0.78924 0.00816 0.0
C207 C 0.48622 0.78752 0.01151 0.0
C208 C 0.52222 0.7946 0.97137 0.0
C209 C 0.55363 0.78654 0.03874 0.0
C210 C 0.53782 0.81465 0.96713 0.0
C211 C 0.54779 0.82016 0.93285 0.0
C212 C 0.54176 0.80626 0.90169 0.0
C213 C 0.52538 0.78676 0.90542 0.0
C214 C 0.51579 0.78087 0.9401 0.0
H215 H 0.56089 0.77577 0.06223 0.0
H216 H 0.56007 0.77816 0.01265 0.0
H217 H 0.56133 0.80517 0.041 0.0
H218 H 0.5422 0.82623 0.99035 0.0
H219 H 0.56003 0.83557 0.93067 0.0
H220 H 0.20033 0.42268 0.40963 0.0
H221 H 0.20592 0.44067 0.34884 0.0
H222 H 0.1962 0.51239 0.39497 0.0
H223 H 0.19081 0.49451 0.45637 0.0
H224 H 0.16988 0.46787 0.31453 0.0
H225 H 0.25565 0.52084 0.32704 0.0
H226 H 0.24732 0.49714 0.35923 0.0
H227 H 0.23353 0.52674 0.36245 0.0
C228 C 0.19971 0.44232 0.40706 0.0
C229 C 0.19495 0.45718 0.43783 0.0
C230 C 0.20297 0.45255 0.37226 0.0
C231 C 0.20163 0.47782 0.36747 0.0
C232 C 0.19772 0.49284 0.39824 0.0
H233 H 0.18785 0.57449 0.18363 0.0
H234 H 0.19354 0.55508 0.24338 0.0
C235 C 0.19453 0.4826 0.43325 0.0
C236 C 0.20194 0.48808 0.32979 0.0
H237 H 0.23189 0.52759 0.27307 0.0
C238 C 0.18357 0.48075 0.3053 0.0
C239 C 0.21977 0.50492 0.31803 0.0
C240 C 0.24033 0.51276 0.3429 0.0
C241 C 0.18215 0.49029 0.26955 0.0
C242 C 0.1999 0.50726 0.25779 0.0
C243 C 0.21843 0.51444 0.28216 0.0
C244 C 0.19852 0.5189 0.2211 0.0
C245 C 0.16117 0.4828 0.24516 0.0
C246 C 0.19998 0.50501 0.18867 0.0
C247 C 0.19658 0.51603 0.15428 0.0
C248 C 0.1918 0.54114 0.15187 0.0
C249 C 0.19131 0.55508 0.18443 0.0
C250 C 0.19466 0.54405 0.21866 0.0
H251 H 0.14634 0.47391 0.26109 0.0
H252 H 0.1535 0.49878 0.23043 0.0
H253 H 0.16777 0.46962 0.22424 0.0
H254 H 0.20337 0.4856 0.19002 0.0
H255 H 0.19726 0.50483 0.12974 0.0
H256 H 0.35674 0.24548 0.31954 0.0
H257 H 0.32792 0.27324 0.34954 0.0
H258 H 0.29401 0.21233 0.40438 0.0
H259 H 0.32306 0.18465 0.37536 0.0
H260 H 0.27845 0.27777 0.35253 0.0
H261 H 0.31482 0.2545 0.49059 0.0
H262 H 0.32963 0.24524 0.44847 0.0
H263 H 0.30396 0.22839 0.46584 0.0
C264 C 0.34283 0.23798 0.33742 0.0
C265 C 0.3423 0.21295 0.34545 0.0
C266 C 0.32648 0.25386 0.3547 0.0
C267 C 0.30934 0.2449 0.38006 0.0
C268 C 0.3076 0.2197 0.38583 0.0
H269 H 0.18603 0.32413 0.46702 0.0
H270 H 0.21318 0.29463 0.43793 0.0
C271 C 0.32406 0.20389 0.36893 0.0
C272 C 0.29384 0.26187 0.40149 0.0
H273 H 0.27848 0.27817 0.48937 0.0
C274 C 0.27849 0.27792 0.38243 0.0
C275 C 0.29436 0.26243 0.44053 0.0
C276 C 0.31176 0.24691 0.46258 0.0
C277 C 0.26315 0.29408 0.40136 0.0
C278 C 0.26271 0.2937 0.44042 0.0
C279 C 0.27854 0.27812 0.45947 0.0
C280 C 0.24605 0.30954 0.46185 0.0
C281 C 0.24787 0.3117 0.3793 0.0
C282 C 0.25536 0.32662 0.487 0.0
C283 C 0.23978 0.34324 0.50432 0.0
C284 C 0.21472 0.34305 0.49654 0.0
C285 C 0.20531 0.32488 0.47325 0.0
C286 C 0.22082 0.30816 0.45632 0.0
H287 H 0.25544 0.31454 0.35122 0.0
H288 H 0.22921 0.30422 0.37624 0.0
H289 H 0.24657 0.32964 0.3933 0.0
H290 H 0.27478 0.32779 0.49198 0.0
H291 H 0.24754 0.35709 0.52205 0.0
H292 H 0.74908 0.35737 0.56834 0.0
H293 H 0.72177 0.32841 0.599 0.0
H294 H 0.78354 0.29368 0.6503 0.0
H295 H 0.81081 0.32283 0.62057 0.0
H296 H 0.71712 0.27864 0.60164 0.0
H297 H 0.74323 0.31474 0.73874 0.0
H298 H 0.75161 0.32964 0.69626 0.0
H299 H 0.76873 0.30384 0.71256 0.0
C300 C 0.75686 0.34323 0.58553 0.0
C301 C 0.78203 0.34252 0.59241 0.0
C302 C 0.74124 0.3268 0.60319 0.0
C303 C 0.7506 0.3094 0.6278 0.0
C304 C 0.77589 0.30745 0.63232 0.0
H305 H 0.6713 0.18705 0.7185 0.0
H306 H 0.70097 0.21361 0.68853 0.0
C307 C 0.79145 0.32398 0.61503 0.0
C308 C 0.73397 0.29394 0.64991 0.0
H309 H 0.719 0.27882 0.73846 0.0
C310 C 0.71748 0.2787 0.63154 0.0
C311 C 0.7341 0.29447 0.68897 0.0
C312 C 0.75018 0.31173 0.71034 0.0
C313 C 0.70151 0.26351 0.65115 0.0
C314 C 0.70251 0.26315 0.69018 0.0
C315 C 0.71857 0.27884 0.70857 0.0
C316 C 0.68672 0.24682 0.71228 0.0
C317 C 0.68342 0.24833 0.62985 0.0
C318 C 0.66998 0.25651 0.73763 0.0
C319 C 0.65324 0.24128 0.75541 0.0
C320 C 0.65299 0.21617 0.74794 0.0
C321 C 0.67089 0.20637 0.72453 0.0
C322 C 0.68771 0.22154 0.70709 0.0
H323 H 0.68034 0.25572 0.60171 0.0
H324 H 0.69059 0.22954 0.62693 0.0
H325 H 0.66564 0.24739 0.64438 0.0
H326 H 0.66911 0.27598 0.74234 0.0
H327 H 0.63962 0.24936 0.77322 0.0
H328 H 0.75822 0.65521 0.03191 0.0
H329 H 0.73211 0.68678 0.00487 0.0
H330 H 0.78183 0.69379 0.91338 0.0
H331 H 0.80823 0.6631 0.94062 0.0
H332 H 0.76531 0.73727 0.93417 0.0
H333 H 0.68789 0.67313 0.91839 0.0
H334 H 0.69782 0.67678 0.96519 0.0
H335 H 0.71791 0.66321 0.93183 0.0
C336 C 0.76373 0.66378 0.00634 0.0
C337 C 0.78517 0.65649 0.98826 0.0
C338 C 0.7487 0.68162 0.99073 0.0
C339 C 0.75471 0.69218 0.9566 0.0
C340 C 0.77671 0.68578 0.93957 0.0
H341 H 0.65086 0.76135 0.80842 0.0
H342 H 0.68195 0.73472 0.83542 0.0
C343 C 0.7918 0.66818 0.95524 0.0
C344 C 0.73792 0.70928 0.93771 0.0
H345 H 0.68058 0.71423 0.90211 0.0
C346 C 0.74678 0.73224 0.92714 0.0
C347 C 0.71393 0.70248 0.92778 0.0
C348 C 0.70386 0.67748 0.93602 0.0
C349 C 0.73224 0.74867 0.90727 0.0
C350 C 0.70795 0.74223 0.89861 0.0
C351 C 0.69918 0.71919 0.90886 0.0
C352 C 0.69101 0.75932 0.88 0.0
C353 C 0.74329 0.77252 0.89509 0.0
C354 C 0.68599 0.78208 0.89579 0.0
C355 C 0.66855 0.7974 0.88018 0.0
C356 C 0.65538 0.79011 0.84879 0.0
C357 C 0.66076 0.76753 0.83248 0.0
C358 C 0.67844 0.75227 0.84798 0.0
H359 H 0.76343 0.77121 0.89286 0.0
H360 H 0.73589 0.77844 0.86805 0.0
H361 H 0.73907 0.78675 0.91584 0.0
H362 H 0.69494 0.78769 0.92099 0.0
H363 H 0.66472 0.81457 0.89368 0.0
H364 H 0.24867 0.63703 0.06509 0.0
H365 H 0.27757 0.66509 0.09431 0.0
H366 H 0.21809 0.70185 0.14848 0.0
H367 H 0.18925 0.67371 0.12007 0.0
H368 H 0.28324 0.71535 0.09625 0.0
H369 H 0.26027 0.67929 0.2347 0.0
H370 H 0.25073 0.66452 0.19267 0.0
H371 H 0.23423 0.69042 0.20999 0.0
C372 C 0.24174 0.6514 0.08264 0.0
C373 C 0.21674 0.65301 0.09064 0.0
C374 C 0.25826 0.66732 0.09946 0.0
C375 C 0.24999 0.68506 0.12439 0.0
C376 C 0.2249 0.68782 0.13018 0.0
H377 H 0.32828 0.80817 0.21176 0.0
H378 H 0.29974 0.78044 0.18183 0.0
C379 C 0.20843 0.67186 0.11366 0.0
C380 C 0.26752 0.70011 0.14546 0.0
H381 H 0.2845 0.71529 0.2331 0.0
C382 C 0.28361 0.71527 0.12615 0.0
C383 C 0.26833 0.69955 0.18448 0.0
C384 C 0.25265 0.68239 0.20671 0.0
C385 C 0.29997 0.73053 0.14486 0.0
C386 C 0.29982 0.73096 0.18391 0.0
C387 C 0.2843 0.7152 0.2032 0.0
C388 C 0.31557 0.7478 0.20511 0.0
C389 C 0.31744 0.74586 0.12262 0.0
C390 C 0.33299 0.73874 0.22994 0.0
C391 C 0.34915 0.75462 0.24761 0.0
C392 C 0.34811 0.77978 0.24063 0.0
C393 C 0.32971 0.78886 0.21743 0.0
C394 C 0.31351 0.77302 0.20003 0.0
H395 H 0.32008 0.73837 0.09445 0.0
H396 H 0.30995 0.76453 0.1198 0.0
H397 H 0.33546 0.74712 0.13636 0.0
H398 H 0.33467 0.71932 0.23455 0.0
H399 H 0.36316 0.74709 0.26528 0.0
H400 H 0.37607 0.89359 0.28656 0.0
H401 H 0.37292 0.938 0.28676 0.0
H402 H 0.4476 0.94349 0.32242 0.0
H403 H 0.45104 0.89905 0.32233 0.0
H404 H 0.41163 0.97576 0.35953 0.0
H405 H 0.4098 0.97955 0.20616 0.0
H406 H 0.38856 0.95912 0.22789 0.0
H407 H 0.42063 0.95323 0.23115 0.0
C408 C 0.39177 0.90418 0.29492 0.0
C409 C 0.4139 0.89275 0.30414 0.0
C410 C 0.38993 0.92955 0.29484 0.0
C411 C 0.41013 0.94391 0.30407 0.0
C412 C 0.43186 0.93263 0.31501 0.0
H413 H 0.44641 0.09413 0.26522 0.0
H414 H 0.44394 0.04966 0.26684 0.0
C415 C 0.43378 0.90725 0.31494 0.0
C416 C 0.40894 0.9707 0.30086 0.0
H417 H 0.40584 0.01685 0.23791 0.0
C418 C 0.41025 0.98479 0.33301 0.0
C419 C 0.40738 0.98229 0.26613 0.0
C420 C 0.40668 0.96787 0.23074 0.0
C421 C 0.40995 0.01033 0.33133 0.0
C422 C 0.4082 0.02191 0.29661 0.0
C423 C 0.40698 0.00782 0.26445 0.0
C424 C 0.40861 0.04872 0.29315 0.0
C425 C 0.41205 0.02477 0.36657 0.0
C426 C 0.38921 0.06279 0.30644 0.0
C427 C 0.39048 0.0882 0.30541 0.0
C428 C 0.41123 0.09994 0.29114 0.0
C429 C 0.43022 0.08569 0.27653 0.0
C430 C 0.42886 0.0603 0.27742 0.0
H431 H 0.41755 0.01319 0.39027 0.0
H432 H 0.42552 0.03971 0.36337 0.0
H433 H 0.39416 0.03313 0.37307 0.0
H434 H 0.3733 0.05411 0.31824 0.0
H435 H 0.3755 0.09859 0.31681 0.0
H436 H 0.89522 0.37463 0.55978 0.0
H437 H 0.93962 0.37102 0.56009 0.0
H438 H 0.94595 0.44442 0.519 0.0
H439 H 0.90157 0.44829 0.5185 0.0
H440 H 0.9776 0.40771 0.48433 0.0
H441 H 0.98197 0.40903 0.63768 0.0
H442 H 0.96151 0.38731 0.61718 0.0
H443 H 0.95553 0.41929 0.61245 0.0
C444 C 0.90601 0.38994 0.55041 0.0
C445 C 0.89483 0.41184 0.53938 0.0
C446 C 0.93137 0.38786 0.55079 0.0
C447 C 0.94596 0.40757 0.54008 0.0
C448 C 0.93492 0.42905 0.52754 0.0
H449 H 0.09525 0.44663 0.57601 0.0
H450 H 0.05088 0.44285 0.57517 0.0
C451 C 0.90957 0.43122 0.5273 0.0
C452 C 0.97276 0.40621 0.54314 0.0
H453 H 0.01916 0.40475 0.60577 0.0
C454 C 0.98673 0.40689 0.51082 0.0
C455 C 0.98449 0.4054 0.57783 0.0
C456 C 0.97021 0.40538 0.61338 0.0
C457 C 0.01227 0.40685 0.51227 0.0
C458 C 0.024 0.40597 0.54695 0.0
C459 C 0.01002 0.40522 0.57927 0.0
C460 C 0.0508 0.40711 0.55015 0.0
C461 C 0.02655 0.40842 0.4768 0.0
C462 C 0.06536 0.38792 0.53734 0.0
C463 C 0.09073 0.38995 0.5379 0.0
C464 C 0.10194 0.41126 0.55122 0.0
C465 C 0.08723 0.43003 0.56541 0.0
C466 C 0.06188 0.42791 0.56498 0.0
H467 H 0.01481 0.41324 0.45295 0.0
H468 H 0.04129 0.42218 0.47919 0.0
H469 H 0.03517 0.39053 0.4711 0.0
H470 H 0.05707 0.37159 0.52624 0.0
H471 H 0.10149 0.37512 0.52685 0.0
H472 H 0.54326 0.90339 0.78067 0.0
H473 H 0.54509 0.9479 0.78124 0.0
H474 H 0.62331 0.94491 0.79015 0.0
H475 H 0.62176 0.90037 0.78977 0.0
H476 H 0.56935 0.97493 0.84376 0.0
H477 H 0.60695 0.99528 0.70446 0.0
H478 H 0.59073 0.9674 0.71442 0.0
H479 H 0.62124 0.97147 0.73089 0.0
C480 C 0.5609 0.91215 0.78216 0.0
C481 C 0.58236 0.89831 0.7853 0.0
C482 C 0.56189 0.93757 0.78258 0.0
C483 C 0.58432 0.94956 0.78565 0.0
C484 C 0.60585 0.9359 0.78747 0.0
H485 H 0.61914 0.10442 0.79208 0.0
H486 H 0.62194 0.05995 0.79252 0.0
C487 C 0.60489 0.91047 0.78732 0.0
C488 C 0.58504 0.97633 0.78943 0.0
H489 H 0.60062 0.02855 0.74437 0.0
C490 C 0.57618 0.98671 0.82209 0.0
C491 C 0.59427 0.99147 0.76126 0.0
C492 C 0.60376 0.98099 0.72561 0.0
C493 C 0.57624 0.01202 0.82734 0.0
C494 C 0.58479 0.02729 0.7987 0.0
C495 C 0.59405 0.01681 0.76626 0.0
C496 C 0.58337 0.05419 0.80116 0.0
C497 C 0.56745 0.02209 0.86369 0.0
C498 C 0.56078 0.06569 0.80604 0.0
C499 C 0.55913 0.09105 0.80611 0.0
C500 C 0.58002 0.10546 0.80075 0.0
C501 C 0.6027 0.09388 0.79634 0.0
C502 C 0.60434 0.06847 0.79649 0.0
H503 H 0.56906 0.00838 0.8861 0.0
H504 H 0.57786 0.03859 0.87171 0.0
H505 H 0.54794 0.0271 0.86121 0.0
H506 H 0.54428 0.05504 0.8088 0.0
H507 H 0.54135 0.09933 0.80928 0.0
H508 H 0.9017 0.55233 0.0754 0.0
H509 H 0.94603 0.55656 0.07442 0.0
H510 H 0.93918 0.62585 0.0195 0.0
H511 H 0.89484 0.62185 0.02022 0.0
H512 H 0.97155 0.59171 0.98485 0.0
H513 H 0.99067 0.6033 0.13419 0.0
H514 H 0.9713 0.57797 0.12296 0.0
H515 H 0.9609 0.60848 0.11445 0.0
C516 C 0.90957 0.56863 0.06353 0.0
C517 C 0.89469 0.58674 0.04786 0.0
C518 C 0.93491 0.57105 0.06312 0.0
C519 C 0.9458 0.59159 0.04711 0.0
C520 C 0.93105 0.6099 0.03208 0.0
H521 H 0.10097 0.6242 0.05766 0.0
H522 H 0.05659 0.62793 0.05668 0.0
C523 C 0.90572 0.60759 0.03263 0.0
C524 C 0.9726 0.59327 0.04416 0.0
H525 H 0.02469 0.59553 0.0953 0.0
C526 C 0.9832 0.59274 0.00895 0.0
C527 C 0.98766 0.59483 0.07565 0.0
C528 C 0.97712 0.5964 0.11398 0.0
C529 C 0.00858 0.593 0.00445 0.0
C530 C 0.02364 0.59364 0.03601 0.0
C531 C 0.01304 0.59491 0.07117 0.0
C532 C 0.05048 0.59222 0.03333 0.0
C533 C 0.0191 0.59256 0.96605 0.0
C534 C 0.06167 0.57098 0.02016 0.0
C535 C 0.08701 0.56873 0.02074 0.0
C536 C 0.1016 0.5877 0.0346 0.0
C537 C 0.0903 0.60927 0.04671 0.0
C538 C 0.06495 0.61143 0.04628 0.0
H539 H 0.00546 0.59812 0.94505 0.0
H540 H 0.03516 0.60479 0.96398 0.0
H541 H 0.02516 0.57378 0.95947 0.0
H542 H 0.05077 0.55582 0.01053 0.0
H543 H 0.0951 0.55187 0.01127 0.0
H544 H 0.56027 0.21623 0.91306 0.0
H545 H 0.54732 0.22165 0.97732 0.0
H546 H 0.47675 0.19217 0.9507 0.0
H547 H 0.48937 0.18672 0.88668 0.0
H548 H 0.49998 0.24572 0.01094 0.0
H549 H 0.51219 0.14587 0.03045 0.0
H550 H 0.52699 0.16245 0.99374 0.0
H551 H 0.49515 0.15543 0.99061 0.0
C552 C 0.54184 0.21135 0.92073 0.0
C553 C 0.52594 0.20083 0.89483 0.0
C554 C 0.53448 0.2145 0.9574 0.0
C555 C 0.51116 0.20715 0.96864 0.0
C556 C 0.49485 0.19787 0.94248 0.0
H557 H 0.43259 0.2116 0.17645 0.0
H558 H 0.44642 0.21913 0.11317 0.0
C559 C 0.50214 0.19475 0.90592 0.0
C560 C 0.50455 0.20684 0.00817 0.0
H561 H 0.4952 0.16781 0.07996 0.0
C562 C 0.49898 0.22876 0.02619 0.0
C563 C 0.50349 0.18467 0.02788 0.0
C564 C 0.50991 0.16071 0.00992 0.0
C565 C 0.49197 0.22897 0.06352 0.0
C566 C 0.4904 0.20668 0.08298 0.0
C567 C 0.49634 0.18487 0.06495 0.0
C568 C 0.48284 0.20527 0.12218 0.0
C569 C 0.48657 0.25296 0.08197 0.0
C570 C 0.49873 0.19511 0.14823 0.0
C571 C 0.49087 0.19066 0.1842 0.0
C572 C 0.46687 0.19617 0.19487 0.0
C573 C 0.45121 0.20723 0.16913 0.0
C574 C 0.45912 0.21166 0.13301 0.0
H575 H 0.49397 0.26858 0.06603 0.0
H576 H 0.46655 0.2553 0.08422 0.0
H577 H 0.4943 0.25342 0.11025 0.0
H578 H 0.51708 0.18998 0.14042 0.0
H579 H 0.50344 0.18221 0.20333 0.0
H580 H 0.80794 0.49131 0.13561 0.0
H581 H 0.80031 0.47696 0.19825 0.0
H582 H 0.78446 0.55049 0.23257 0.0
H583 H 0.79128 0.56486 0.16949 0.0
H584 H 0.82639 0.48881 0.25641 0.0
H585 H 0.73056 0.51456 0.28388 0.0
H586 H 0.74341 0.51476 0.23807 0.0
H587 H 0.74871 0.53987 0.26894 0.0
C588 C 0.80237 0.50438 0.15633 0.0
C589 C 0.80024 0.52924 0.14762 0.0
C590 C 0.79802 0.49614 0.19216 0.0
C591 C 0.79158 0.51256 0.22018 0.0
C592 C 0.7888 0.53734 0.21133 0.0
H593 H 0.80954 0.50489 0.45493 0.0
H594 H 0.8028 0.51723 0.39095 0.0
C595 C 0.79286 0.54558 0.17528 0.0
C596 C 0.79024 0.50402 0.25906 0.0
H597 H 0.75471 0.5037 0.33658 0.0
C598 C 0.81056 0.49183 0.27371 0.0
C599 C 0.76961 0.50796 0.28179 0.0
C600 C 0.74675 0.51979 0.26728 0.0
C601 C 0.81103 0.48396 0.31047 0.0
C602 C 0.79072 0.48844 0.33332 0.0
C603 C 0.77025 0.50036 0.31884 0.0
C604 C 0.79119 0.48161 0.37275 0.0
C605 C 0.83343 0.4713 0.32508 0.0
C606 C 0.78633 0.4576 0.38373 0.0
C607 C 0.79009 0.45045 0.42036 0.0
C608 C 0.79897 0.4672 0.44644 0.0
C609 C 0.80277 0.49151 0.43554 0.0
C610 C 0.79887 0.49864 0.39903 0.0
H611 H 0.84806 0.46986 0.30403 0.0
H612 H 0.84064 0.48135 0.3493 0.0
H613 H 0.82855 0.45269 0.33448 0.0
H614 H 0.78049 0.4442 0.36367 0.0
H615 H 0.78704 0.4316 0.42784 0.0
H616 H 0.56688 0.78576 0.67532 0.0
H617 H 0.55412 0.77912 0.61121 0.0
H618 H 0.48294 0.80756 0.63668 0.0
H619 H 0.49536 0.8142 0.70053 0.0
H620 H 0.50709 0.75326 0.5792 0.0
H621 H 0.51723 0.8528 0.55416 0.0
H622 H 0.53259 0.83738 0.5915 0.0
H623 H 0.50063 0.84381 0.59474 0.0
C624 C 0.54838 0.7902 0.66742 0.0
C625 C 0.53221 0.8007 0.69298 0.0
C626 C 0.54113 0.78636 0.63084 0.0
C627 C 0.51766 0.793 0.6193 0.0
C628 C 0.50115 0.80239 0.6451 0.0
H629 H 0.43781 0.78245 0.41333 0.0
H630 H 0.45233 0.7766 0.47665 0.0
C631 C 0.50833 0.80618 0.68158 0.0
C632 C 0.51096 0.79226 0.5798 0.0
H633 H 0.50049 0.82936 0.50603 0.0
C634 C 0.50571 0.76983 0.56305 0.0
C635 C 0.50937 0.81392 0.5589 0.0
C636 C 0.51538 0.8384 0.57549 0.0
C637 C 0.49848 0.7686 0.52585 0.0
C638 C 0.49638 0.79036 0.5052 0.0
C639 C 0.50204 0.8127 0.52194 0.0
C640 C 0.48847 0.79069 0.46608 0.0
C641 C 0.4934 0.74408 0.5088 0.0
C642 C 0.504 0.80038 0.43911 0.0
C643 C 0.49575 0.80383 0.40307 0.0
C644 C 0.47171 0.7978 0.39326 0.0
C645 C 0.45644 0.78719 0.41996 0.0
C646 C 0.46475 0.78373 0.45612 0.0
H647 H 0.50115 0.72899 0.5255 0.0
H648 H 0.47341 0.74136 0.50694 0.0
H649 H 0.501 0.74308 0.48047 0.0
H650 H 0.52234 0.80594 0.44622 0.0
H651 H 0.50802 0.81199 0.38322 0.0
H652 H 0.21315 0.56392 0.9262 0.0
H653 H 0.21962 0.55058 0.86235 0.0
H654 H 0.1899 0.4801 0.889 0.0
H655 H 0.18329 0.49316 0.95255 0.0
H656 H 0.2443 0.50563 0.82893 0.0
H657 H 0.14408 0.51229 0.80848 0.0
H658 H 0.15953 0.52702 0.84633 0.0
H659 H 0.15393 0.49482 0.84768 0.0
C660 C 0.20843 0.54544 0.91863 0.0
C661 C 0.19743 0.5297 0.94434 0.0
C662 C 0.21218 0.53785 0.88219 0.0
C663 C 0.20499 0.51447 0.871 0.0
C664 C 0.19538 0.49829 0.8971 0.0
H665 H 0.21384 0.43654 0.6628 0.0
H666 H 0.22076 0.45049 0.72617 0.0
C667 C 0.19161 0.50582 0.93341 0.0
C668 C 0.20519 0.50769 0.83151 0.0
H669 H 0.16706 0.49599 0.75942 0.0
C670 C 0.22747 0.50356 0.8136 0.0
C671 C 0.18318 0.50525 0.81164 0.0
C672 C 0.15878 0.51024 0.82929 0.0
C673 C 0.22823 0.49661 0.77625 0.0
C674 C 0.20616 0.49369 0.75665 0.0
C675 C 0.18396 0.49816 0.77456 0.0
C676 C 0.20533 0.48629 0.71737 0.0
C677 C 0.25256 0.49276 0.75788 0.0
C678 C 0.19456 0.50184 0.69139 0.0
C679 C 0.19049 0.49391 0.65537 0.0
C680 C 0.19697 0.47018 0.64458 0.0
C681 C 0.2087 0.45494 0.67021 0.0
C682 C 0.21278 0.46292 0.70639 0.0
H683 H 0.26771 0.50072 0.77422 0.0
H684 H 0.25594 0.47293 0.75491 0.0
H685 H 0.25269 0.50095 0.72988 0.0
H686 H 0.18861 0.51991 0.69934 0.0
H687 H 0.1815 0.50617 0.63633 0.0
loop_
_geom_bond_atom_site_label_1
_geom_bond_atom_site_label_2
_geom_bond_distance
_geom_bond_site_symmetry_2
_ccdc_geom_bond_type
O0 Cd1 2.223 . S
O0 C8 1.315 . S
Cd1 O0 2.223 . S
Cd1 O4 2.297 . S
Cd1 O5 2.439 . S
Cd1 O11 2.240 . S
Cd2 O3 2.240 . S
Cd2 O10 2.223 . S
Cd2 O12 2.297 . S
Cd2 O13 2.439 . S
O3 Cd2 2.240 . S
O3 C8 1.279 . S
O4 Cd1 2.297 . S
O4 C6 1.247 . S
O5 Cd1 2.439 . S
O5 C6 1.208 . S
C6 O4 1.247 . S
C6 O5 1.208 . S
C7 O12 1.247 . S
C7 O13 1.208 . S
C8 O0 1.315 . S
C8 O3 1.279 . S
C9 O10 1.315 . S
C9 O11 1.279 . S
O10 Cd2 2.223 . S
O10 C9 1.315 . S
O11 Cd1 2.240 . S
O11 C9 1.279 . S
O12 Cd2 2.297 . S
O12 C7 1.247 . S
O13 Cd2 2.439 . S
O13 C7 1.208 . S
O14 Cd15 2.223 . S
O14 C22 1.315 . S
Cd15 O14 2.223 . S
Cd15 O18 2.297 . S
Cd15 O19 2.439 . S
Cd15 O25 2.240 . S
Cd16 O17 2.240 . S
Cd16 O24 2.223 . S
Cd16 O26 2.297 . S
Cd16 O27 2.439 . S
O17 Cd16 2.240 . S
O17 C22 1.279 . S
O18 Cd15 2.297 . S
O18 C20 1.247 . S
O19 Cd15 2.439 . S
O19 C20 1.208 . S
C20 O18 1.247 . S
C20 O19 1.208 . S
C21 O26 1.247 . S
C21 O27 1.208 . S
C22 O14 1.315 . S
C22 O17 1.279 . S
C23 O24 1.315 . S
C23 O25 1.279 . S
O24 Cd16 2.223 . S
O24 C23 1.315 . S
O25 Cd15 2.240 . S
O25 C23 1.279 . S
O26 Cd16 2.297 . S
O26 C21 1.247 . S
O27 Cd16 2.439 . S
O27 C21 1.208 . S
O28 Cd29 2.223 . S
O28 C36 1.315 . S
Cd29 O28 2.223 . S
Cd29 O32 2.297 . S
Cd29 O33 2.439 . S
Cd29 O39 2.240 . S
Cd30 O31 2.240 . S
Cd30 O38 2.223 . S
Cd30 O40 2.297 . S
Cd30 O41 2.439 . S
O31 Cd30 2.240 . S
O31 C36 1.279 . S
O32 Cd29 2.297 . S
O32 C34 1.247 . S
O33 Cd29 2.439 . S
O33 C34 1.208 . S
C34 O32 1.247 . S
C34 O33 1.208 . S
C35 O40 1.247 . S
C35 O41 1.208 . S
C36 O28 1.315 . S
C36 O31 1.279 . S
C37 O38 1.315 . S
C37 O39 1.279 . S
O38 Cd30 2.223 . S
O38 C37 1.315 . S
O39 Cd29 2.240 . S
O39 C37 1.279 . S
O40 Cd30 2.297 . S
O40 C35 1.247 . S
O41 Cd30 2.439 . S
O41 C35 1.208 . S
O42 Cd43 2.223 . S
O42 C50 1.315 . S
Cd43 O42 2.223 . S
Cd43 O46 2.297 . S
Cd43 O47 2.439 . S
Cd43 O53 2.240 . S
Cd44 O45 2.240 . S
Cd44 O52 2.223 . S
Cd44 O54 2.297 1_554 S
Cd44 O55 2.439 1_554 S
O45 Cd44 2.240 . S
O45 C50 1.279 . S
O46 Cd43 2.297 . S
O46 C48 1.247 . S
O47 Cd43 2.439 . S
O47 C48 1.208 . S
C48 O46 1.247 . S
C48 O47 1.208 . S
C49 O54 1.247 . S
C49 O55 1.208 . S
C50 O42 1.315 . S
C50 O45 1.279 . S
C51 O52 1.315 . S
C51 O53 1.279 . S
O52 Cd44 2.223 . S
O52 C51 1.315 . S
O53 Cd43 2.240 . S
O53 C51 1.279 . S
O54 Cd44 2.297 1_556 S
O54 C49 1.247 . S
O55 Cd44 2.439 1_556 S
O55 C49 1.208 . S
O56 Cd57 2.223 . S
O56 C64 1.315 . S
Cd57 O56 2.223 . S
Cd57 O60 2.297 . S
Cd57 O61 2.439 . S
Cd57 O67 2.240 . S
Cd58 O59 2.240 . S
Cd58 O66 2.223 . S
Cd58 O68 2.297 . S
Cd58 O69 2.439 . S
O59 Cd58 2.240 . S
O59 C64 1.279 . S
O60 Cd57 2.297 . S
O60 C62 1.247 . S
O61 Cd57 2.439 . S
O61 C62 1.208 . S
C62 O60 1.247 . S
C62 O61 1.208 . S
C63 O68 1.247 . S
C63 O69 1.208 . S
C64 O56 1.315 . S
C64 O59 1.279 . S
C65 O66 1.315 . S
C65 O67 1.279 . S
O66 Cd58 2.223 . S
O66 C65 1.315 . S
O67 Cd57 2.240 . S
O67 C65 1.279 . S
O68 Cd58 2.297 . S
O68 C63 1.247 . S
O69 Cd58 2.439 . S
O69 C63 1.208 . S
O70 Cd71 2.223 . S
O70 C78 1.315 . S
Cd71 O70 2.223 . S
Cd71 O74 2.297 . S
Cd71 O75 2.439 . S
Cd71 O81 2.240 . S
Cd72 O73 2.240 . S
Cd72 O80 2.223 . S
Cd72 O82 2.297 . S
Cd72 O83 2.439 . S
O73 Cd72 2.240 . S
O73 C78 1.279 . S
O74 Cd71 2.297 . S
O74 C76 1.247 . S
O75 Cd71 2.439 . S
O75 C76 1.208 . S
C76 O74 1.247 . S
C76 O75 1.208 . S
C77 O82 1.247 . S
C77 O83 1.208 . S
C78 O70 1.315 . S
C78 O73 1.279 . S
C79 O80 1.315 . S
C79 O81 1.279 . S
O80 Cd72 2.223 . S
O80 C79 1.315 . S
O81 Cd71 2.240 . S
O81 C79 1.279 . S
O82 Cd72 2.297 . S
O82 C77 1.247 . S
O83 Cd72 2.439 . S
O83 C77 1.208 . S
O84 Cd85 2.223 . S
O84 C92 1.315 . S
Cd85 O84 2.223 . S
Cd85 O88 2.297 . S
Cd85 O89 2.439 . S
Cd85 O95 2.240 . S
Cd86 O87 2.240 . S
Cd86 O94 2.223 . S
Cd86 O96 2.297 . S
Cd86 O97 2.439 . S
O87 Cd86 2.240 . S
O87 C92 1.279 . S
O88 Cd85 2.297 . S
O88 C90 1.247 . S
O89 Cd85 2.439 . S
O89 C90 1.208 . S
C90 O88 1.247 . S
C90 O89 1.208 . S
C91 O96 1.247 . S
C91 O97 1.208 . S
C92 O84 1.315 . S
C92 O87 1.279 . S
C93 O94 1.315 . S
C93 O95 1.279 . S
O94 Cd86 2.223 . S
O94 C93 1.315 . S
O95 Cd85 2.240 . S
O95 C93 1.279 . S
O96 Cd86 2.297 . S
O96 C91 1.247 . S
O97 Cd86 2.439 . S
O97 C91 1.208 . S
O98 Cd99 2.223 . S
O98 C106 1.315 . S
Cd99 O98 2.223 . S
Cd99 O102 2.297 . S
Cd99 O103 2.439 1_556 S
Cd99 O109 2.240 1_556 S
Cd100 O101 2.240 1_554 S
Cd100 O108 2.223 . S
Cd100 O110 2.297 . S
Cd100 O111 2.439 . S
O101 Cd100 2.240 1_556 S
O101 C106 1.279 . S
O102 Cd99 2.297 . S
O102 C104 1.247 . S
O103 Cd99 2.439 1_554 S
O103 C104 1.208 1_554 S
C104 O102 1.247 . S
C104 O103 1.208 1_556 S
C105 O110 1.247 . S
C105 O111 1.208 . S
C106 O98 1.315 . S
C106 O101 1.279 . S
C107 O108 1.315 . S
C107 O109 1.279 . S
O108 Cd100 2.223 . S
O108 C107 1.315 . S
O109 Cd99 2.240 1_554 S
O109 C107 1.279 . S
O110 Cd100 2.297 . S
O110 C105 1.247 . S
O111 Cd100 2.439 . S
O111 C105 1.208 . S
H112 C120 0.929 . S
H113 C122 0.930 . S
H114 C124 0.930 . S
H115 C127 0.929 . S
H116 C130 0.930 . S
H117 C132 0.960 . S
H118 C132 0.960 . S
H119 C132 0.960 . S
C120 H112 0.929 . S
C120 C121 1.377 . S
C120 C122 1.384 . S
C121 C120 1.377 . S
C121 C127 1.390 . S
C122 H113 0.930 . S
C122 C120 1.384 . S
C122 C123 1.372 . S
C123 C122 1.372 . S
C123 C124 1.400 . S
C123 C128 1.490 . S
C124 H114 0.930 . S
C124 C123 1.400 . S
C124 C127 1.386 . S
H125 C141 0.930 . S
H126 C142 0.931 . S
C127 H115 0.929 . S
C127 C121 1.390 . S
C127 C124 1.386 . S
C128 C123 1.490 . S
C128 C130 1.395 . S
C128 C131 1.403 . S
H129 C135 0.930 . S
C130 H116 0.930 . S
C130 C128 1.395 . S
C130 C133 1.403 . S
C131 C128 1.403 . S
C131 C132 1.524 . S
C131 C135 1.400 . S
C132 H117 0.960 . S
C132 H118 0.960 . S
C132 H119 0.960 . S
C132 C131 1.524 . S
C133 C130 1.403 . S
C133 C134 1.392 . S
C133 C137 1.495 . S
C134 C133 1.392 . S
C134 C135 1.385 . S
C134 C136 1.478 . S
C135 H129 0.930 . S
C135 C131 1.400 . S
C135 C134 1.385 . S
C136 C134 1.478 . S
C136 C138 1.381 . S
C136 C142 1.383 . S
C137 C133 1.495 . S
C137 H143 0.959 . S
C137 H144 0.961 . S
C137 H145 0.960 . S
C138 C136 1.381 . S
C138 C139 1.394 . S
C138 H146 0.930 . S
C139 C138 1.394 . S
C139 C140 1.383 . S
C139 H147 0.929 . S
C140 C139 1.383 . S
C140 C141 1.377 . S
C141 H125 0.930 . S
C141 C140 1.377 . S
C141 C142 1.379 . S
C142 H126 0.931 . S
C142 C136 1.383 . S
C142 C141 1.379 . S
H143 C137 0.959 . S
H144 C137 0.961 . S
H145 C137 0.960 . S
H146 C138 0.930 . S
H147 C139 0.929 . S
H148 C156 0.929 . S
H149 C158 0.930 . S
H150 C160 0.930 . S
H151 C163 0.929 . S
H152 C166 0.930 . S
H153 C168 0.960 . S
H154 C168 0.960 . S
H155 C168 0.960 . S
C156 H148 0.929 . S
C156 C157 1.377 . S
C156 C158 1.384 . S
C157 C156 1.377 . S
C157 C163 1.390 . S
C158 H149 0.930 . S
C158 C156 1.384 . S
C158 C159 1.372 . S
C159 C158 1.372 . S
C159 C160 1.400 . S
C159 C164 1.490 . S
C160 H150 0.930 . S
C160 C159 1.400 . S
C160 C163 1.386 . S
H161 C177 0.930 . S
H162 C178 0.931 . S
C163 H151 0.929 . S
C163 C157 1.390 . S
C163 C160 1.386 . S
C164 C159 1.490 . S
C164 C166 1.395 . S
C164 C167 1.403 . S
H165 C171 0.930 . S
C166 H152 0.930 . S
C166 C164 1.395 . S
C166 C169 1.403 . S
C167 C164 1.403 . S
C167 C168 1.524 . S
C167 C171 1.400 . S
C168 H153 0.960 . S
C168 H154 0.960 . S
C168 H155 0.960 . S
C168 C167 1.524 . S
C169 C166 1.403 . S
C169 C170 1.392 . S
C169 C173 1.495 . S
C170 C169 1.392 . S
C170 C171 1.385 . S
C170 C172 1.478 . S
C171 H165 0.930 . S
C171 C167 1.400 . S
C171 C170 1.385 . S
C172 C170 1.478 . S
C172 C174 1.381 . S
C172 C178 1.383 . S
C173 C169 1.495 . S
C173 H179 0.959 . S
C173 H180 0.961 . S
C173 H181 0.960 . S
C174 C172 1.381 . S
C174 C175 1.394 . S
C174 H182 0.930 . S
C175 C174 1.394 . S
C175 C176 1.383 . S
C175 H183 0.929 . S
C176 C175 1.383 . S
C176 C177 1.377 . S
C177 H161 0.930 . S
C177 C176 1.377 . S
C177 C178 1.379 . S
C178 H162 0.931 . S
C178 C172 1.383 . S
C178 C177 1.379 . S
H179 C173 0.959 . S
H180 C173 0.961 . S
H181 C173 0.960 . S
H182 C174 0.930 . S
H183 C175 0.929 . S
H184 C192 0.929 . S
H185 C194 0.930 . S
H186 C196 0.930 . S
H187 C199 0.929 . S
H188 C202 0.930 . S
H189 C204 0.960 . S
H190 C204 0.960 . S
H191 C204 0.960 . S
C192 H184 0.929 . S
C192 C193 1.377 . S
C192 C194 1.384 . S
C193 C192 1.377 . S
C193 C199 1.390 . S
C194 H185 0.930 . S
C194 C192 1.384 . S
C194 C195 1.372 . S
C195 C194 1.372 . S
C195 C196 1.400 . S
C195 C200 1.490 . S
C196 H186 0.930 . S
C196 C195 1.400 . S
C196 C199 1.386 . S
H197 C213 0.930 . S
H198 C214 0.931 . S
C199 H187 0.929 . S
C199 C193 1.390 . S
C199 C196 1.386 . S
C200 C195 1.490 . S
C200 C202 1.395 . S
C200 C203 1.403 . S
H201 C207 0.930 1_556 S
C202 H188 0.930 . S
C202 C200 1.395 . S
C202 C205 1.403 . S
C203 C200 1.403 . S
C203 C204 1.524 . S
C203 C207 1.400 . S
C204 H189 0.960 . S
C204 H190 0.960 . S
C204 H191 0.960 . S
C204 C203 1.524 . S
C205 C202 1.403 . S
C205 C206 1.392 . S
C205 C209 1.495 . S
C206 C205 1.392 . S
C206 C207 1.385 . S
C206 C208 1.478 1_554 S
C207 H201 0.930 1_554 S
C207 C203 1.400 . S
C207 C206 1.385 . S
C208 C206 1.478 1_556 S
C208 C210 1.381 . S
C208 C214 1.383 . S
C209 C205 1.495 . S
C209 H215 0.959 . S
C209 H216 0.961 . S
C209 H217 0.960 . S
C210 C208 1.381 . S
C210 C211 1.394 . S
C210 H218 0.930 . S
C211 C210 1.394 . S
C211 C212 1.383 . S
C211 H219 0.929 . S
C212 C211 1.383 . S
C212 C213 1.377 . S
C213 H197 0.930 . S
C213 C212 1.377 . S
C213 C214 1.379 . S
C214 H198 0.931 . S
C214 C208 1.383 . S
C214 C213 1.379 . S
H215 C209 0.959 . S
H216 C209 0.961 . S
H217 C209 0.960 . S
H218 C210 0.930 . S
H219 C211 0.929 . S
H220 C228 0.929 . S
H221 C230 0.930 . S
H222 C232 0.930 . S
H223 C235 0.929 . S
H224 C238 0.930 . S
H225 C240 0.960 . S
H226 C240 0.960 . S
H227 C240 0.960 . S
C228 H220 0.929 . S
C228 C229 1.377 . S
C228 C230 1.384 . S
C229 C228 1.377 . S
C229 C235 1.390 . S
C230 H221 0.930 . S
C230 C228 1.384 . S
C230 C231 1.372 . S
C231 C230 1.372 . S
C231 C232 1.400 . S
C231 C236 1.490 . S
C232 H222 0.930 . S
C232 C231 1.400 . S
C232 C235 1.386 . S
H233 C249 0.930 . S
H234 C250 0.931 . S
C235 H223 0.929 . S
C235 C229 1.390 . S
C235 C232 1.386 . S
C236 C231 1.490 . S
C236 C238 1.395 . S
C236 C239 1.403 . S
H237 C243 0.930 . S
C238 H224 0.930 . S
C238 C236 1.395 . S
C238 C241 1.403 . S
C239 C236 1.403 . S
C239 C240 1.524 . S
C239 C243 1.400 . S
C240 H225 0.960 . S
C240 H226 0.960 . S
C240 H227 0.960 . S
C240 C239 1.524 . S
C241 C238 1.403 . S
C241 C242 1.392 . S
C241 C245 1.495 . S
C242 C241 1.392 . S
C242 C243 1.385 . S
C242 C244 1.478 . S
C243 H237 0.930 . S
C243 C239 1.400 . S
C243 C242 1.385 . S
C244 C242 1.478 . S
C244 C246 1.381 . S
C244 C250 1.383 . S
C245 C241 1.495 . S
C245 H251 0.959 . S
C245 H252 0.961 . S
C245 H253 0.960 . S
C246 C244 1.381 . S
C246 C247 1.394 . S
C246 H254 0.930 . S
C247 C246 1.394 . S
C247 C248 1.383 . S
C247 H255 0.929 . S
C248 C247 1.383 . S
C248 C249 1.377 . S
C249 H233 0.930 . S
C249 C248 1.377 . S
C249 C250 1.379 . S
C250 H234 0.931 . S
C250 C244 1.383 . S
C250 C249 1.379 . S
H251 C245 0.959 . S
H252 C245 0.961 . S
H253 C245 0.960 . S
H254 C246 0.930 . S
H255 C247 0.929 . S
H256 C264 0.929 . S
H257 C266 0.930 . S
H258 C268 0.930 . S
H259 C271 0.929 . S
H260 C274 0.930 . S
H261 C276 0.960 . S
H262 C276 0.960 . S
H263 C276 0.960 . S
C264 H256 0.929 . S
C264 C265 1.377 . S
C264 C266 1.384 . S
C265 C264 1.377 . S
C265 C271 1.390 . S
C266 H257 0.930 . S
C266 C264 1.384 . S
C266 C267 1.372 . S
C267 C266 1.372 . S
C267 C268 1.400 . S
C267 C272 1.490 . S
C268 H258 0.930 . S
C268 C267 1.400 . S
C268 C271 1.386 . S
H269 C285 0.930 . S
H270 C286 0.931 . S
C271 H259 0.929 . S
C271 C265 1.390 . S
C271 C268 1.386 . S
C272 C267 1.490 . S
C272 C274 1.395 . S
C272 C275 1.403 . S
H273 C279 0.930 . S
C274 H260 0.930 . S
C274 C272 1.395 . S
C274 C277 1.403 . S
C275 C272 1.403 . S
C275 C276 1.524 . S
C275 C279 1.400 . S
C276 H261 0.960 . S
C276 H262 0.960 . S
C276 H263 0.960 . S
C276 C275 1.524 . S
C277 C274 1.403 . S
C277 C278 1.392 . S
C277 C281 1.495 . S
C278 C277 1.392 . S
C278 C279 1.385 . S
C278 C280 1.478 . S
C279 H273 0.930 . S
C279 C275 1.400 . S
C279 C278 1.385 . S
C280 C278 1.478 . S
C280 C282 1.381 . S
C280 C286 1.383 . S
C281 C277 1.495 . S
C281 H287 0.959 . S
C281 H288 0.961 . S
C281 H289 0.960 . S
C282 C280 1.381 . S
C282 C283 1.394 . S
C282 H290 0.930 . S
C283 C282 1.394 . S
C283 C284 1.383 . S
C283 H291 0.929 . S
C284 C283 1.383 . S
C284 C285 1.377 . S
C285 H269 0.930 . S
C285 C284 1.377 . S
C285 C286 1.379 . S
C286 H270 0.931 . S
C286 C280 1.383 . S
C286 C285 1.379 . S
H287 C281 0.959 . S
H288 C281 0.961 . S
H289 C281 0.960 . S
H290 C282 0.930 . S
H291 C283 0.929 . S
H292 C300 0.929 . S
H293 C302 0.930 . S
H294 C304 0.930 . S
H295 C307 0.929 . S
H296 C310 0.930 . S
H297 C312 0.960 . S
H298 C312 0.960 . S
H299 C312 0.960 . S
C300 H292 0.929 . S
C300 C301 1.377 . S
C300 C302 1.384 . S
C301 C300 1.377 . S
C301 C307 1.390 . S
C302 H293 0.930 . S
C302 C300 1.384 . S
C302 C303 1.372 . S
C303 C302 1.372 . S
C303 C304 1.400 . S
C303 C308 1.490 . S
C304 H294 0.930 . S
C304 C303 1.400 . S
C304 C307 1.386 . S
H305 C321 0.930 . S
H306 C322 0.931 . S
C307 H295 0.929 . S
C307 C301 1.390 . S
C307 C304 1.386 . S
C308 C303 1.490 . S
C308 C310 1.395 . S
C308 C311 1.403 . S
H309 C315 0.930 . S
C310 H296 0.930 . S
C310 C308 1.395 . S
C310 C313 1.403 . S
C311 C308 1.403 . S
C311 C312 1.524 . S
C311 C315 1.400 . S
C312 H297 0.960 . S
C312 H298 0.960 . S
C312 H299 0.960 . S
C312 C311 1.524 . S
C313 C310 1.403 . S
C313 C314 1.392 . S
C313 C317 1.495 . S
C314 C313 1.392 . S
C314 C315 1.385 . S
C314 C316 1.478 . S
C315 H309 0.930 . S
C315 C311 1.400 . S
C315 C314 1.385 . S
C316 C314 1.478 . S
C316 C318 1.381 . S
C316 C322 1.383 . S
C317 C313 1.495 . S
C317 H323 0.959 . S
C317 H324 0.961 . S
C317 H325 0.960 . S
C318 C316 1.381 . S
C318 C319 1.394 . S
C318 H326 0.930 . S
C319 C318 1.394 . S
C319 C320 1.383 . S
C319 H327 0.929 . S
C320 C319 1.383 . S
C320 C321 1.377 . S
C321 H305 0.930 . S
C321 C320 1.377 . S
C321 C322 1.379 . S
C322 H306 0.931 . S
C322 C316 1.383 . S
C322 C321 1.379 . S
H323 C317 0.959 . S
H324 C317 0.961 . S
H325 C317 0.960 . S
H326 C318 0.930 . S
H327 C319 0.929 . S
H328 C336 0.929 . S
H329 C338 0.930 1_554 S
H330 C340 0.930 . S
H331 C343 0.929 . S
H332 C346 0.930 . S
H333 C348 0.960 . S
H334 C348 0.960 . S
H335 C348 0.960 . S
C336 H328 0.929 . S
C336 C337 1.377 1_554 S
C336 C338 1.384 1_554 S
C337 C336 1.377 1_556 S
C337 C343 1.390 . S
C338 H329 0.930 1_556 S
C338 C336 1.384 1_556 S
C338 C339 1.372 . S
C339 C338 1.372 . S
C339 C340 1.400 . S
C339 C344 1.490 . S
C340 H330 0.930 . S
C340 C339 1.400 . S
C340 C343 1.386 . S
H341 C357 0.930 . S
H342 C358 0.931 . S
C343 H331 0.929 . S
C343 C337 1.390 . S
C343 C340 1.386 . S
C344 C339 1.490 . S
C344 C346 1.395 . S
C344 C347 1.403 . S
H345 C351 0.930 . S
C346 H332 0.930 . S
C346 C344 1.395 . S
C346 C349 1.403 . S
C347 C344 1.403 . S
C347 C348 1.524 . S
C347 C351 1.400 . S
C348 H333 0.960 . S
C348 H334 0.960 . S
C348 H335 0.960 . S
C348 C347 1.524 . S
C349 C346 1.403 . S
C349 C350 1.392 . S
C349 C353 1.495 . S
C350 C349 1.392 . S
C350 C351 1.385 . S
C350 C352 1.478 . S
C351 H345 0.930 . S
C351 C347 1.400 . S
C351 C350 1.385 . S
C352 C350 1.478 . S
C352 C354 1.381 . S
C352 C358 1.383 . S
C353 C349 1.495 . S
C353 H359 0.959 . S
C353 H360 0.961 . S
C353 H361 0.960 . S
C354 C352 1.381 . S
C354 C355 1.394 . S
C354 H362 0.930 . S
C355 C354 1.394 . S
C355 C356 1.383 . S
C355 H363 0.929 . S
C356 C355 1.383 . S
C356 C357 1.377 . S
C357 H341 0.930 . S
C357 C356 1.377 . S
C357 C358 1.379 . S
C358 H342 0.931 . S
C358 C352 1.383 . S
C358 C357 1.379 . S
H359 C353 0.959 . S
H360 C353 0.961 . S
H361 C353 0.960 . S
H362 C354 0.930 . S
H363 C355 0.929 . S
H364 C372 0.929 . S
H365 C374 0.930 . S
H366 C376 0.930 . S
H367 C379 0.929 . S
H368 C382 0.930 . S
H369 C384 0.960 . S
H370 C384 0.960 . S
H371 C384 0.960 . S
C372 H364 0.929 . S
C372 C373 1.377 . S
C372 C374 1.384 . S
C373 C372 1.377 . S
C373 C379 1.390 . S
C374 H365 0.930 . S
C374 C372 1.384 . S
C374 C375 1.372 . S
C375 C374 1.372 . S
C375 C376 1.400 . S
C375 C380 1.490 . S
C376 H366 0.930 . S
C376 C375 1.400 . S
C376 C379 1.386 . S
H377 C393 0.930 . S
H378 C394 0.931 . S
C379 H367 0.929 . S
C379 C373 1.390 . S
C379 C376 1.386 . S
C380 C375 1.490 . S
C380 C382 1.395 . S
C380 C383 1.403 . S
H381 C387 0.930 . S
C382 H368 0.930 . S
C382 C380 1.395 . S
C382 C385 1.403 . S
C383 C380 1.403 . S
C383 C384 1.524 . S
C383 C387 1.400 . S
C384 H369 0.960 . S
C384 H370 0.960 . S
C384 H371 0.960 . S
C384 C383 1.524 . S
C385 C382 1.403 . S
C385 C386 1.392 . S
C385 C389 1.495 . S
C386 C385 1.392 . S
C386 C387 1.385 . S
C386 C388 1.478 . S
C387 H381 0.930 . S
C387 C383 1.400 . S
C387 C386 1.385 . S
C388 C386 1.478 . S
C388 C390 1.381 . S
C388 C394 1.383 . S
C389 C385 1.495 . S
C389 H395 0.959 . S
C389 H396 0.961 . S
C389 H397 0.960 . S
C390 C388 1.381 . S
C390 C391 1.394 . S
C390 H398 0.930 . S
C391 C390 1.394 . S
C391 C392 1.383 . S
C391 H399 0.929 . S
C392 C391 1.383 . S
C392 C393 1.377 . S
C393 H377 0.930 . S
C393 C392 1.377 . S
C393 C394 1.379 . S
C394 H378 0.931 . S
C394 C388 1.383 . S
C394 C393 1.379 . S
H395 C389 0.959 . S
H396 C389 0.961 . S
H397 C389 0.960 . S
H398 C390 0.930 . S
H399 C391 0.929 . S
H400 C408 0.929 . S
H401 C410 0.930 . S
H402 C412 0.930 . S
H403 C415 0.929 . S
H404 C418 0.930 . S
H405 C420 0.960 . S
H406 C420 0.960 . S
H407 C420 0.960 . S
C408 H400 0.929 . S
C408 C409 1.377 . S
C408 C410 1.384 . S
C409 C408 1.377 . S
C409 C415 1.390 . S
C410 H401 0.930 . S
C410 C408 1.384 . S
C410 C411 1.372 . S
C411 C410 1.372 . S
C411 C412 1.400 . S
C411 C416 1.490 . S
C412 H402 0.930 . S
C412 C411 1.400 . S
C412 C415 1.386 . S
H413 C429 0.930 . S
H414 C430 0.931 . S
C415 H403 0.929 . S
C415 C409 1.390 . S
C415 C412 1.386 . S
C416 C411 1.490 . S
C416 C418 1.395 . S
C416 C419 1.403 . S
H417 C423 0.930 . S
C418 H404 0.930 . S
C418 C416 1.395 . S
C418 C421 1.403 1_565 S
C419 C416 1.403 . S
C419 C420 1.524 . S
C419 C423 1.400 1_565 S
C420 H405 0.960 . S
C420 H406 0.960 . S
C420 H407 0.960 . S
C420 C419 1.524 . S
C421 C418 1.403 1_545 S
C421 C422 1.392 . S
C421 C425 1.495 . S
C422 C421 1.392 . S
C422 C423 1.385 . S
C422 C424 1.478 . S
C423 H417 0.930 . S
C423 C419 1.400 1_545 S
C423 C422 1.385 . S
C424 C422 1.478 . S
C424 C426 1.381 . S
C424 C430 1.383 . S
C425 C421 1.495 . S
C425 H431 0.959 . S
C425 H432 0.961 . S
C425 H433 0.960 . S
C426 C424 1.381 . S
C426 C427 1.394 . S
C426 H434 0.930 . S
C427 C426 1.394 . S
C427 C428 1.383 . S
C427 H435 0.929 . S
C428 C427 1.383 . S
C428 C429 1.377 . S
C429 H413 0.930 . S
C429 C428 1.377 . S
C429 C430 1.379 . S
C430 H414 0.931 . S
C430 C424 1.383 . S
C430 C429 1.379 . S
H431 C425 0.959 . S
H432 C425 0.961 . S
H433 C425 0.960 . S
H434 C426 0.930 . S
H435 C427 0.929 . S
H436 C444 0.929 . S
H437 C446 0.930 . S
H438 C448 0.930 . S
H439 C451 0.929 . S
H440 C454 0.930 . S
H441 C456 0.960 . S
H442 C456 0.960 . S
H443 C456 0.960 . S
C444 H436 0.929 . S
C444 C445 1.377 . S
C444 C446 1.384 . S
C445 C444 1.377 . S
C445 C451 1.390 . S
C446 H437 0.930 . S
C446 C444 1.384 . S
C446 C447 1.372 . S
C447 C446 1.372 . S
C447 C448 1.400 . S
C447 C452 1.490 . S
C448 H438 0.930 . S
C448 C447 1.400 . S
C448 C451 1.386 . S
H449 C465 0.930 . S
H450 C466 0.931 . S
C451 H439 0.929 . S
C451 C445 1.390 . S
C451 C448 1.386 . S
C452 C447 1.490 . S
C452 C454 1.395 . S
C452 C455 1.403 . S
H453 C459 0.930 . S
C454 H440 0.930 . S
C454 C452 1.395 . S
C454 C457 1.403 1_655 S
C455 C452 1.403 . S
C455 C456 1.524 . S
C455 C459 1.400 1_655 S
C456 H441 0.960 . S
C456 H442 0.960 . S
C456 H443 0.960 . S
C456 C455 1.524 . S
C457 C454 1.403 1_455 S
C457 C458 1.392 . S
C457 C461 1.495 . S
C458 C457 1.392 . S
C458 C459 1.385 . S
C458 C460 1.478 . S
C459 H453 0.930 . S
C459 C455 1.400 1_455 S
C459 C458 1.385 . S
C460 C458 1.478 . S
C460 C462 1.381 . S
C460 C466 1.383 . S
C461 C457 1.495 . S
C461 H467 0.959 . S
C461 H468 0.961 . S
C461 H469 0.960 . S
C462 C460 1.381 . S
C462 C463 1.394 . S
C462 H470 0.930 . S
C463 C462 1.394 . S
C463 C464 1.383 . S
C463 H471 0.929 . S
C464 C463 1.383 . S
C464 C465 1.377 . S
C465 H449 0.930 . S
C465 C464 1.377 . S
C465 C466 1.379 . S
C466 H450 0.931 . S
C466 C460 1.383 . S
C466 C465 1.379 . S
H467 C461 0.959 . S
H468 C461 0.961 . S
H469 C461 0.960 . S
H470 C462 0.930 . S
H471 C463 0.929 . S
H472 C480 0.929 . S
H473 C482 0.930 . S
H474 C484 0.930 . S
H475 C487 0.929 . S
H476 C490 0.930 . S
H477 C492 0.960 . S
H478 C492 0.960 . S
H479 C492 0.960 . S
C480 H472 0.929 . S
C480 C481 1.377 . S
C480 C482 1.384 . S
C481 C480 1.377 . S
C481 C487 1.390 . S
C482 H473 0.930 . S
C482 C480 1.384 . S
C482 C483 1.372 . S
C483 C482 1.372 . S
C483 C484 1.400 . S
C483 C488 1.490 . S
C484 H474 0.930 . S
C484 C483 1.400 . S
C484 C487 1.386 . S
H485 C501 0.930 . S
H486 C502 0.931 . S
C487 H475 0.929 . S
C487 C481 1.390 . S
C487 C484 1.386 . S
C488 C483 1.490 . S
C488 C490 1.395 . S
C488 C491 1.403 . S
H489 C495 0.930 . S
C490 H476 0.930 . S
C490 C488 1.395 . S
C490 C493 1.403 1_565 S
C491 C488 1.403 . S
C491 C492 1.524 . S
C491 C495 1.400 1_565 S
C492 H477 0.960 . S
C492 H478 0.960 . S
C492 H479 0.960 . S
C492 C491 1.524 . S
C493 C490 1.403 1_545 S
C493 C494 1.392 . S
C493 C497 1.495 . S
C494 C493 1.392 . S
C494 C495 1.385 . S
C494 C496 1.478 . S
C495 H489 0.930 . S
C495 C491 1.400 1_545 S
C495 C494 1.385 . S
C496 C494 1.478 . S
C496 C498 1.381 . S
C496 C502 1.383 . S
C497 C493 1.495 . S
C497 H503 0.959 . S
C497 H504 0.961 . S
C497 H505 0.960 . S
C498 C496 1.381 . S
C498 C499 1.394 . S
C498 H506 0.930 . S
C499 C498 1.394 . S
C499 C500 1.383 . S
C499 H507 0.929 . S
C500 C499 1.383 . S
C500 C501 1.377 . S
C501 H485 0.930 . S
C501 C500 1.377 . S
C501 C502 1.379 . S
C502 H486 0.931 . S
C502 C496 1.383 . S
C502 C501 1.379 . S
H503 C497 0.959 . S
H504 C497 0.961 . S
H505 C497 0.960 . S
H506 C498 0.930 . S
H507 C499 0.929 . S
H508 C516 0.929 1_556 S
H509 C518 0.930 . S
H510 C520 0.930 . S
H511 C523 0.929 . S
H512 C526 0.930 1_556 S
H513 C528 0.960 . S
H514 C528 0.960 . S
H515 C528 0.960 . S
C516 H508 0.929 1_554 S
C516 C517 1.377 . S
C516 C518 1.384 . S
C517 C516 1.377 . S
C517 C523 1.390 . S
C518 H509 0.930 . S
C518 C516 1.384 . S
C518 C519 1.372 . S
C519 C518 1.372 . S
C519 C520 1.400 . S
C519 C524 1.490 . S
C520 H510 0.930 . S
C520 C519 1.400 . S
C520 C523 1.386 . S
H521 C537 0.930 . S
H522 C538 0.931 . S
C523 H511 0.929 . S
C523 C517 1.390 . S
C523 C520 1.386 . S
C524 C519 1.490 . S
C524 C526 1.395 . S
C524 C527 1.403 . S
H525 C531 0.930 . S
C526 H512 0.930 1_554 S
C526 C524 1.395 . S
C526 C529 1.403 1_655 S
C527 C524 1.403 . S
C527 C528 1.524 . S
C527 C531 1.400 1_655 S
C528 H513 0.960 . S
C528 H514 0.960 . S
C528 H515 0.960 . S
C528 C527 1.524 . S
C529 C526 1.403 1_455 S
C529 C530 1.392 . S
C529 C533 1.495 1_554 S
C530 C529 1.392 . S
C530 C531 1.385 . S
C530 C532 1.478 . S
C531 H525 0.930 . S
C531 C527 1.400 1_455 S
C531 C530 1.385 . S
C532 C530 1.478 . S
C532 C534 1.381 . S
C532 C538 1.383 . S
C533 C529 1.495 1_556 S
C533 H539 0.959 . S
C533 H540 0.961 . S
C533 H541 0.960 . S
C534 C532 1.381 . S
C534 C535 1.394 . S
C534 H542 0.930 . S
C535 C534 1.394 . S
C535 C536 1.383 . S
C535 H543 0.929 . S
C536 C535 1.383 . S
C536 C537 1.377 . S
C537 H521 0.930 . S
C537 C536 1.377 . S
C537 C538 1.379 . S
C538 H522 0.931 . S
C538 C532 1.383 . S
C538 C537 1.379 . S
H539 C533 0.959 . S
H540 C533 0.961 . S
H541 C533 0.960 . S
H542 C534 0.930 . S
H543 C535 0.929 . S
H544 C552 0.929 . S
H545 C554 0.930 . S
H546 C556 0.930 . S
H547 C559 0.929 . S
H548 C562 0.930 . S
H549 C564 0.960 . S
H550 C564 0.960 . S
H551 C564 0.960 1_556 S
C552 H544 0.929 . S
C552 C553 1.377 . S
C552 C554 1.384 . S
C553 C552 1.377 . S
C553 C559 1.390 . S
C554 H545 0.930 . S
C554 C552 1.384 . S
C554 C555 1.372 . S
C555 C554 1.372 . S
C555 C556 1.400 . S
C555 C560 1.490 1_556 S
C556 H546 0.930 . S
C556 C555 1.400 . S
C556 C559 1.386 . S
H557 C573 0.930 . S
H558 C574 0.931 . S
C559 H547 0.929 . S
C559 C553 1.390 . S
C559 C556 1.386 . S
C560 C555 1.490 1_554 S
C560 C562 1.395 . S
C560 C563 1.403 . S
H561 C567 0.930 . S
C562 H548 0.930 . S
C562 C560 1.395 . S
C562 C565 1.403 . S
C563 C560 1.403 . S
C563 C564 1.524 . S
C563 C567 1.400 . S
C564 H549 0.960 . S
C564 H550 0.960 . S
C564 H551 0.960 1_554 S
C564 C563 1.524 . S
C565 C562 1.403 . S
C565 C566 1.392 . S
C565 C569 1.495 . S
C566 C565 1.392 . S
C566 C567 1.385 . S
C566 C568 1.478 . S
C567 H561 0.930 . S
C567 C563 1.400 . S
C567 C566 1.385 . S
C568 C566 1.478 . S
C568 C570 1.381 . S
C568 C574 1.383 . S
C569 C565 1.495 . S
C569 H575 0.959 . S
C569 H576 0.961 . S
C569 H577 0.960 . S
C570 C568 1.381 . S
C570 C571 1.394 . S
C570 H578 0.930 . S
C571 C570 1.394 . S
C571 C572 1.383 . S
C571 H579 0.929 . S
C572 C571 1.383 . S
C572 C573 1.377 . S
C573 H557 0.930 . S
C573 C572 1.377 . S
C573 C574 1.379 . S
C574 H558 0.931 . S
C574 C568 1.383 . S
C574 C573 1.379 . S
H575 C569 0.959 . S
H576 C569 0.961 . S
H577 C569 0.960 . S
H578 C570 0.930 . S
H579 C571 0.929 . S
H580 C588 0.929 . S
H581 C590 0.930 . S
H582 C592 0.930 . S
H583 C595 0.929 . S
H584 C598 0.930 . S
H585 C600 0.960 . S
H586 C600 0.960 . S
H587 C600 0.960 . S
C588 H580 0.929 . S
C588 C589 1.377 . S
C588 C590 1.384 . S
C589 C588 1.377 . S
C589 C595 1.390 . S
C590 H581 0.930 . S
C590 C588 1.384 . S
C590 C591 1.372 . S
C591 C590 1.372 . S
C591 C592 1.400 . S
C591 C596 1.490 . S
C592 H582 0.930 . S
C592 C591 1.400 . S
C592 C595 1.386 . S
H593 C609 0.930 . S
H594 C610 0.931 . S
C595 H583 0.929 . S
C595 C589 1.390 . S
C595 C592 1.386 . S
C596 C591 1.490 . S
C596 C598 1.395 . S
C596 C599 1.403 . S
H597 C603 0.930 . S
C598 H584 0.930 . S
C598 C596 1.395 . S
C598 C601 1.403 . S
C599 C596 1.403 . S
C599 C600 1.524 . S
C599 C603 1.400 . S
C600 H585 0.960 . S
C600 H586 0.960 . S
C600 H587 0.960 . S
C600 C599 1.524 . S
C601 C598 1.403 . S
C601 C602 1.392 . S
C601 C605 1.495 . S
C602 C601 1.392 . S
C602 C603 1.385 . S
C602 C604 1.478 . S
C603 H597 0.930 . S
C603 C599 1.400 . S
C603 C602 1.385 . S
C604 C602 1.478 . S
C604 C606 1.381 . S
C604 C610 1.383 . S
C605 C601 1.495 . S
C605 H611 0.959 . S
C605 H612 0.961 . S
C605 H613 0.960 . S
C606 C604 1.381 . S
C606 C607 1.394 . S
C606 H614 0.930 . S
C607 C606 1.394 . S
C607 C608 1.383 . S
C607 H615 0.929 . S
C608 C607 1.383 . S
C608 C609 1.377 . S
C609 H593 0.930 . S
C609 C608 1.377 . S
C609 C610 1.379 . S
C610 H594 0.931 . S
C610 C604 1.383 . S
C610 C609 1.379 . S
H611 C605 0.959 . S
H612 C605 0.961 . S
H613 C605 0.960 . S
H614 C606 0.930 . S
H615 C607 0.929 . S
H616 C624 0.929 . S
H617 C626 0.930 . S
H618 C628 0.930 . S
H619 C631 0.929 . S
H620 C634 0.930 . S
H621 C636 0.960 . S
H622 C636 0.960 . S
H623 C636 0.960 . S
C624 H616 0.929 . S
C624 C625 1.377 . S
C624 C626 1.384 . S
C625 C624 1.377 . S
C625 C631 1.390 . S
C626 H617 0.930 . S
C626 C624 1.384 . S
C626 C627 1.372 . S
C627 C626 1.372 . S
C627 C628 1.400 . S
C627 C632 1.490 . S
C628 H618 0.930 . S
C628 C627 1.400 . S
C628 C631 1.386 . S
H629 C645 0.930 . S
H630 C646 0.931 . S
C631 H619 0.929 . S
C631 C625 1.390 . S
C631 C628 1.386 . S
C632 C627 1.490 . S
C632 C634 1.395 . S
C632 C635 1.403 . S
H633 C639 0.930 . S
C634 H620 0.930 . S
C634 C632 1.395 . S
C634 C637 1.403 . S
C635 C632 1.403 . S
C635 C636 1.524 . S
C635 C639 1.400 . S
C636 H621 0.960 . S
C636 H622 0.960 . S
C636 H623 0.960 . S
C636 C635 1.524 . S
C637 C634 1.403 . S
C637 C638 1.392 . S
C637 C641 1.495 . S
C638 C637 1.392 . S
C638 C639 1.385 . S
C638 C640 1.478 . S
C639 H633 0.930 . S
C639 C635 1.400 . S
C639 C638 1.385 . S
C640 C638 1.478 . S
C640 C642 1.381 . S
C640 C646 1.383 . S
C641 C637 1.495 . S
C641 H647 0.959 . S
C641 H648 0.961 . S
C641 H649 0.960 . S
C642 C640 1.381 . S
C642 C643 1.394 . S
C642 H650 0.930 . S
C643 C642 1.394 . S
C643 C644 1.383 . S
C643 H651 0.929 . S
C644 C643 1.383 . S
C644 C645 1.377 . S
C645 H629 0.930 . S
C645 C644 1.377 . S
C645 C646 1.379 . S
C646 H630 0.931 . S
C646 C640 1.383 . S
C646 C645 1.379 . S
H647 C641 0.959 . S
H648 C641 0.961 . S
H649 C641 0.960 . S
H650 C642 0.930 . S
H651 C643 0.929 . S
H652 C660 0.929 . S
H653 C662 0.930 . S
H654 C664 0.930 . S
H655 C667 0.929 . S
H656 C670 0.930 . S
H657 C672 0.960 . S
H658 C672 0.960 . S
H659 C672 0.960 . S
C660 H652 0.929 . S
C660 C661 1.377 . S
C660 C662 1.384 . S
C661 C660 1.377 . S
C661 C667 1.390 . S
C662 H653 0.930 . S
C662 C660 1.384 . S
C662 C663 1.372 . S
C663 C662 1.372 . S
C663 C664 1.400 . S
C663 C668 1.490 . S
C664 H654 0.930 . S
C664 C663 1.400 . S
C664 C667 1.386 . S
H665 C681 0.930 . S
H666 C682 0.931 . S
C667 H655 0.929 . S
C667 C661 1.390 . S
C667 C664 1.386 . S
C668 C663 1.490 . S
C668 C670 1.395 . S
C668 C671 1.403 . S
H669 C675 0.930 . S
C670 H656 0.930 . S
C670 C668 1.395 . S
C670 C673 1.403 . S
C671 C668 1.403 . S
C671 C672 1.524 . S
C671 C675 1.400 . S
C672 H657 0.960 . S
C672 H658 0.960 . S
C672 H659 0.960 . S
C672 C671 1.524 . S
C673 C670 1.403 . S
C673 C674 1.392 . S
C673 C677 1.495 . S
C674 C673 1.392 . S
C674 C675 1.385 . S
C674 C676 1.478 . S
C675 H669 0.930 . S
C675 C671 1.400 . S
C675 C674 1.385 . S
C676 C674 1.478 . S
C676 C678 1.381 . S
C676 C682 1.383 . S
C677 C673 1.495 . S
C677 H683 0.959 . S
C677 H684 0.961 . S
C677 H685 0.960 . S
C678 C676 1.381 . S
C678 C679 1.394 . S
C678 H686 0.930 . S
C679 C678 1.394 . S
C679 C680 1.383 . S
C679 H687 0.929 . S
C680 C679 1.383 . S
C680 C681 1.377 . S
C681 H665 0.930 . S
C681 C680 1.377 . S
C681 C682 1.379 . S
C682 H666 0.931 . S
C682 C676 1.383 . S
C682 C681 1.379 . S
H683 C677 0.959 . S
H684 C677 0.961 . S
H685 C677 0.960 . S
H686 C678 0.930 . S
H687 C679 0.929 . S
C121 C8 1.056 . S
C140 C92 1.063 . S
C157 C22 1.049 . S
C176 C106 1.073 . S
C193 C64 1.047 . S
C212 C36 1.023 . S
C229 C78 1.047 . S
C248 C50 1.067 . S
C265 C6 1.518 . S
C284 C76 1.501 . S
C301 C20 1.514 . S
C320 C90 1.524 . S
C337 C104 1.523 . S
C356 C34 1.495 . S
C373 C48 1.514 . S
C392 C62 1.522 . S
C409 C65 1.562 . S
C428 C9 1.564 . S
C445 C23 1.562 . S
C464 C79 1.568 . S
C481 C37 1.556 . S
C500 C93 1.537 . S
C517 C107 1.555 . S
C536 C51 1.547 . S
C553 C91 1.323 . S
C572 C7 1.333 . S
C589 C105 1.323 . S
C608 C21 1.339 . S
C625 C35 1.321 . S
C644 C63 1.321 . S
C661 C49 1.320 . S
C680 C77 1.315 . S
