# Generated by pormake.
# Topology unr, (4)-cn, num edge types: 1
# Building blocks:
#     Node 0, Type 0, BuildingBlock: KUFVIS_clean_sbu_0, # of connection points: 4
#     Node 1, Type 0, BuildingBlock: KUFVIS_clean_sbu_0, # of connection points: 4
#     Node 2, Type 0, BuildingBlock: KUFVIS_clean_sbu_0, # of connection points: 4
#     Node 3, Type 0, BuildingBlock: KUFVIS_clean_sbu_0, # of connection points: 4
#     Node 4, Type 0, BuildingBlock: KUFVIS_clean_sbu_0, # of connection points: 4
#     Node 5, Type 0, BuildingBlock: KUFVIS_clean_sbu_0, # of connection points: 4
#     Node 6, Type 0, BuildingBlock: KUFVIS_clean_sbu_0, # of connection points: 4
#     Node 7, Type 0, BuildingBlock: KUFVIS_clean_sbu_0, # of connection points: 4
#     Node 8, Type 0, BuildingBlock: KUFVIS_clean_sbu_0, # of connection points: 4
#     Node 9, Type 0, BuildingBlock: KUFVIS_clean_sbu_0, # of connection points: 4
#     Node 10, Type 0, BuildingBlock: KUFVIS_clean_sbu_0, # of connection points: 4
#     Node 11, Type 0, BuildingBlock: KUFVIS_clean_sbu_0, # of connection points: 4
#     Node 12, Type 0, BuildingBlock: KUFVIS_clean_sbu_0, # of connection points: 4
#     Node 13, Type 0, BuildingBlock: KUFVIS_clean_sbu_0, # of connection points: 4
#     Node 14, Type 0, BuildingBlock: KUFVIS_clean_sbu_0, # of connection points: 4
#     Node 15, Type 0, BuildingBlock: KUFVIS_clean_sbu_0, # of connection points: 4
#     Node 16, Type 0, BuildingBlock: KUFVIS_clean_sbu_0, # of connection points: 4
#     Node 17, Type 0, BuildingBlock: KUFVIS_clean_sbu_0, # of connection points: 4
#     Node 18, Type 0, BuildingBlock: KUFVIS_clean_sbu_0, # of connection points: 4
#     Node 19, Type 0, BuildingBlock: KUFVIS_clean_sbu_0, # of connection points: 4
#     Node 20, Type 0, BuildingBlock: KUFVIS_clean_sbu_0, # of connection points: 4
#     Node 21, Type 0, BuildingBlock: KUFVIS_clean_sbu_0, # of connection points: 4
#     Node 22, Type 0, BuildingBlock: KUFVIS_clean_sbu_0, # of connection points: 4
#     Node 23, Type 0, BuildingBlock: KUFVIS_clean_sbu_0, # of connection points: 4
#     Node 24, Type 0, BuildingBlock: KUFVIS_clean_sbu_0, # of connection points: 4
#     Node 25, Type 0, BuildingBlock: KUFVIS_clean_sbu_0, # of connection points: 4
#     Node 26, Type 0, BuildingBlock: KUFVIS_clean_sbu_0, # of connection points: 4
#     Node 27, Type 0, BuildingBlock: KUFVIS_clean_sbu_0, # of connection points: 4
#     Node 28, Type 0, BuildingBlock: KUFVIS_clean_sbu_0, # of connection points: 4
#     Node 29, Type 0, BuildingBlock: KUFVIS_clean_sbu_0, # of connection points: 4
#     Node 30, Type 0, BuildingBlock: KUFVIS_clean_sbu_0, # of connection points: 4
#     Node 31, Type 0, BuildingBlock: KUFVIS_clean_sbu_0, # of connection points: 4
#     Node 32, Type 0, BuildingBlock: KUFVIS_clean_sbu_0, # of connection points: 4
#     Node 33, Type 0, BuildingBlock: KUFVIS_clean_sbu_0, # of connection points: 4
#     Node 34, Type 0, BuildingBlock: KUFVIS_clean_sbu_0, # of connection points: 4
#     Node 35, Type 0, BuildingBlock: KUFVIS_clean_sbu_0, # of connection points: 4
#     Edge 36, Type (0, 0), BuildingBlock: EZIPEK_clean_linker_0, # of connection points: 2
#     Edge 37, Type (0, 0), BuildingBlock: EZIPEK_clean_linker_0, # of connection points: 2
#     Edge 38, Type (0, 0), BuildingBlock: EZIPEK_clean_linker_0, # of connection points: 2
#     Edge 39, Type (0, 0), BuildingBlock: EZIPEK_clean_linker_0, # of connection points: 2
#     Edge 40, Type (0, 0), BuildingBlock: EZIPEK_clean_linker_0, # of connection points: 2
#     Edge 41, Type (0, 0), BuildingBlock: EZIPEK_clean_linker_0, # of connection points: 2
#     Edge 42, Type (0, 0), BuildingBlock: EZIPEK_clean_linker_0, # of connection points: 2
#     Edge 43, Type (0, 0), BuildingBlock: EZIPEK_clean_linker_0, # of connection points: 2
#     Edge 44, Type (0, 0), BuildingBlock: EZIPEK_clean_linker_0, # of connection points: 2
#     Edge 45, Type (0, 0), BuildingBlock: EZIPEK_clean_linker_0, # of connection points: 2
#     Edge 46, Type (0, 0), BuildingBlock: EZIPEK_clean_linker_0, # of connection points: 2
#     Edge 47, Type (0, 0), BuildingBlock: EZIPEK_clean_linker_0, # of connection points: 2
#     Edge 48, Type (0, 0), BuildingBlock: EZIPEK_clean_linker_0, # of connection points: 2
#     Edge 49, Type (0, 0), BuildingBlock: EZIPEK_clean_linker_0, # of connection points: 2
#     Edge 50, Type (0, 0), BuildingBlock: EZIPEK_clean_linker_0, # of connection points: 2
#     Edge 51, Type (0, 0), BuildingBlock: EZIPEK_clean_linker_0, # of connection points: 2
#     Edge 52, Type (0, 0), BuildingBlock: EZIPEK_clean_linker_0, # of connection points: 2
#     Edge 53, Type (0, 0), BuildingBlock: EZIPEK_clean_linker_0, # of connection points: 2
#     Edge 54, Type (0, 0), BuildingBlock: EZIPEK_clean_linker_0, # of connection points: 2
#     Edge 55, Type (0, 0), BuildingBlock: EZIPEK_clean_linker_0, # of connection points: 2
#     Edge 56, Type (0, 0), BuildingBlock: EZIPEK_clean_linker_0, # of connection points: 2
#     Edge 57, Type (0, 0), BuildingBlock: EZIPEK_clean_linker_0, # of connection points: 2
#     Edge 58, Type (0, 0), BuildingBlock: EZIPEK_clean_linker_0, # of connection points: 2
#     Edge 59, Type (0, 0), BuildingBlock: EZIPEK_clean_linker_0, # of connection points: 2
#     Edge 60, Type (0, 0), BuildingBlock: EZIPEK_clean_linker_0, # of connection points: 2
#     Edge 61, Type (0, 0), BuildingBlock: EZIPEK_clean_linker_0, # of connection points: 2
#     Edge 62, Type (0, 0), BuildingBlock: EZIPEK_clean_linker_0, # of connection points: 2
#     Edge 63, Type (0, 0), BuildingBlock: EZIPEK_clean_linker_0, # of connection points: 2
#     Edge 64, Type (0, 0), BuildingBlock: EZIPEK_clean_linker_0, # of connection points: 2
#     Edge 65, Type (0, 0), BuildingBlock: EZIPEK_clean_linker_0, # of connection points: 2
#     Edge 66, Type (0, 0), BuildingBlock: EZIPEK_clean_linker_0, # of connection points: 2
#     Edge 67, Type (0, 0), BuildingBlock: EZIPEK_clean_linker_0, # of connection points: 2
#     Edge 68, Type (0, 0), BuildingBlock: EZIPEK_clean_linker_0, # of connection points: 2
#     Edge 69, Type (0, 0), BuildingBlock: EZIPEK_clean_linker_0, # of connection points: 2
#     Edge 70, Type (0, 0), BuildingBlock: EZIPEK_clean_linker_0, # of connection points: 2
#     Edge 71, Type (0, 0), BuildingBlock: EZIPEK_clean_linker_0, # of connection points: 2
#     Edge 72, Type (0, 0), BuildingBlock: EZIPEK_clean_linker_0, # of connection points: 2
#     Edge 73, Type (0, 0), BuildingBlock: EZIPEK_clean_linker_0, # of connection points: 2
#     Edge 74, Type (0, 0), BuildingBlock: EZIPEK_clean_linker_0, # of connection points: 2
#     Edge 75, Type (0, 0), BuildingBlock: EZIPEK_clean_linker_0, # of connection points: 2
#     Edge 76, Type (0, 0), BuildingBlock: EZIPEK_clean_linker_0, # of connection points: 2
#     Edge 77, Type (0, 0), BuildingBlock: EZIPEK_clean_linker_0, # of connection points: 2
#     Edge 78, Type (0, 0), BuildingBlock: EZIPEK_clean_linker_0, # of connection points: 2
#     Edge 79, Type (0, 0), BuildingBlock: EZIPEK_clean_linker_0, # of connection points: 2
#     Edge 80, Type (0, 0), BuildingBlock: EZIPEK_clean_linker_0, # of connection points: 2
#     Edge 81, Type (0, 0), BuildingBlock: EZIPEK_clean_linker_0, # of connection points: 2
#     Edge 82, Type (0, 0), BuildingBlock: EZIPEK_clean_linker_0, # of connection points: 2
#     Edge 83, Type (0, 0), BuildingBlock: EZIPEK_clean_linker_0, # of connection points: 2
#     Edge 84, Type (0, 0), BuildingBlock: EZIPEK_clean_linker_0, # of connection points: 2
#     Edge 85, Type (0, 0), BuildingBlock: EZIPEK_clean_linker_0, # of connection points: 2
#     Edge 86, Type (0, 0), BuildingBlock: EZIPEK_clean_linker_0, # of connection points: 2
#     Edge 87, Type (0, 0), BuildingBlock: EZIPEK_clean_linker_0, # of connection points: 2
#     Edge 88, Type (0, 0), BuildingBlock: EZIPEK_clean_linker_0, # of connection points: 2
#     Edge 89, Type (0, 0), BuildingBlock: EZIPEK_clean_linker_0, # of connection points: 2
#     Edge 90, Type (0, 0), BuildingBlock: EZIPEK_clean_linker_0, # of connection points: 2
#     Edge 91, Type (0, 0), BuildingBlock: EZIPEK_clean_linker_0, # of connection points: 2
#     Edge 92, Type (0, 0), BuildingBlock: EZIPEK_clean_linker_0, # of connection points: 2
#     Edge 93, Type (0, 0), BuildingBlock: EZIPEK_clean_linker_0, # of connection points: 2
#     Edge 94, Type (0, 0), BuildingBlock: EZIPEK_clean_linker_0, # of connection points: 2
#     Edge 95, Type (0, 0), BuildingBlock: EZIPEK_clean_linker_0, # of connection points: 2
#     Edge 96, Type (0, 0), BuildingBlock: EZIPEK_clean_linker_0, # of connection points: 2
#     Edge 97, Type (0, 0), BuildingBlock: EZIPEK_clean_linker_0, # of connection points: 2
#     Edge 98, Type (0, 0), BuildingBlock: EZIPEK_clean_linker_0, # of connection points: 2
#     Edge 99, Type (0, 0), BuildingBlock: EZIPEK_clean_linker_0, # of connection points: 2
#     Edge 100, Type (0, 0), BuildingBlock: EZIPEK_clean_linker_0, # of connection points: 2
#     Edge 101, Type (0, 0), BuildingBlock: EZIPEK_clean_linker_0, # of connection points: 2
#     Edge 102, Type (0, 0), BuildingBlock: EZIPEK_clean_linker_0, # of connection points: 2
#     Edge 103, Type (0, 0), BuildingBlock: EZIPEK_clean_linker_0, # of connection points: 2
#     Edge 104, Type (0, 0), BuildingBlock: EZIPEK_clean_linker_0, # of connection points: 2
#     Edge 105, Type (0, 0), BuildingBlock: EZIPEK_clean_linker_0, # of connection points: 2
#     Edge 106, Type (0, 0), BuildingBlock: EZIPEK_clean_linker_0, # of connection points: 2
#     Edge 107, Type (0, 0), BuildingBlock: EZIPEK_clean_linker_0, # of connection points: 2
# Relax obj value: 0.381
# Max RMSD: 0.199
# Mean RMSD: 0.194
data_MOF--net-unr--node1-KUFVIS_clean_sbu_0--edge1-EZIPEK_clean_linker_0
_symmetry_space_group_name_H-M    P1
_symmetry_Int_Tables_number       1
_symmetry_cell_setting            triclinic
loop_
_symmetry_equiv_pos_as_xyz
'x, y, z'
_cell_length_a     35.468726
_cell_length_b     35.471297
_cell_length_c     77.185906
_cell_angle_alpha  90.022418
_cell_angle_beta   89.964358
_cell_angle_gamma 119.97208
loop_
_atom_site_label
_atom_site_type_symbol
_atom_site_fract_x
_atom_site_fract_y
_atom_site_fract_z
_atom_type_partial_charge
Mn0 Mn 0.16084 0.13414 0.18193 0.0
Mn1 Mn 0.21869 0.09309 0.20037 0.0
C2 C 0.15299 0.06832 0.17198 0.0
C3 C 0.09848 0.13874 0.17932 0.0
C4 C 0.25708 0.17127 0.17674 0.0
O5 O 0.17565 0.16291 0.20636 0.0
O6 O 0.21093 0.131 0.21739 0.0
C7 C 0.15387 0.0319 0.22568 0.0
N8 N 0.18539 0.04156 0.21369 0.0
C9 C 0.18066 0.97186 0.21757 0.0
C10 C 0.1501 0.96229 0.23073 0.0
C11 C 0.13372 0.99058 0.23338 0.0
C12 C 0.19642 0.01157 0.2089 0.0
H13 H 0.14179 0.05404 0.22807 0.0
C14 C 0.19486 0.15609 0.21912 0.0
O15 O 0.13528 0.17037 0.17381 0.0
O16 O 0.09902 0.10634 0.18685 0.0
N17 N 0.2285 0.05624 0.18524 0.0
C18 C 0.24364 0.06342 0.16871 0.0
C19 C 0.25272 0.03333 0.16065 0.0
C20 C 0.24541 0.99584 0.16966 0.0
C21 C 0.22729 0.98795 0.18634 0.0
C22 C 0.21904 0.01925 0.19363 0.0
H23 H 0.24754 0.09129 0.16172 0.0
O24 O 0.14506 0.09275 0.16182 0.0
O25 O 0.16814 0.08489 0.18712 0.0
O26 O 0.22266 0.17178 0.17284 0.0
O27 O 0.25799 0.14409 0.18714 0.0
C28 C 0.21513 0.9494 0.19566 0.0
C29 C 0.19178 0.94134 0.21132 0.0
H30 H 0.1344 0.9307 0.23697 0.0
H31 H 0.103 0.97848 0.23984 0.0
H32 H 0.26497 0.03882 0.14751 0.0
H33 H 0.25217 0.97252 0.16339 0.0
H34 H 0.22168 0.92484 0.1905 0.0
H35 H 0.18028 0.91048 0.21786 0.0
Mn36 Mn 0.84725 0.02311 0.18051 0.0
Mn37 Mn 0.88383 0.1184 0.20158 0.0
C38 C 0.91763 0.08184 0.17551 0.0
C39 C 0.84839 0.95825 0.17656 0.0
C40 C 0.81124 0.08242 0.17507 0.0
O41 O 0.80882 0.00566 0.20256 0.0
O42 O 0.84579 0.06935 0.21757 0.0
C43 C 0.9389 0.11326 0.22826 0.0
N44 N 0.93435 0.13553 0.21508 0.0
C45 C 0.01032 0.19015 0.21627 0.0
C46 C 0.01555 0.16747 0.22998 0.0
C47 C 0.98009 0.12726 0.23486 0.0
C48 C 0.96875 0.17246 0.20893 0.0
H49 H 0.91202 0.08313 0.23258 0.0
C50 C 0.8178 0.02824 0.21664 0.0
O51 O 0.81914 0.96393 0.16881 0.0
O52 O 0.87079 0.98648 0.18825 0.0
N53 N 0.92235 0.16592 0.18666 0.0
C54 C 0.91503 0.17521 0.17036 0.0
C55 C 0.94833 0.21021 0.16119 0.0
C56 C 0.98973 0.23453 0.16864 0.0
C57 C -0.00254 0.22309 0.18507 0.0
C58 C 0.96244 0.18856 0.19376 0.0
H59 H 0.8848 0.15466 0.16413 0.0
O60 O 0.89768 0.05255 0.1637 0.0
O61 O 0.89426 0.0776 0.18893 0.0
O62 O 0.81568 0.05144 0.16916 0.0
O63 O 0.8328 0.10591 0.18787 0.0
C64 C 0.03911 0.24282 0.19269 0.0
C65 C 0.04556 0.22634 0.20832 0.0
H66 H 0.04748 0.1778 0.23536 0.0
H67 H 0.98457 0.10411 0.2419 0.0
H68 H 0.94253 0.21742 0.14817 0.0
H69 H 0.01576 0.26064 0.16133 0.0
H70 H 0.06675 0.26944 0.18626 0.0
H71 H 0.07809 0.24027 0.21363 0.0
Mn72 Mn 0.97256 0.82993 0.17719 0.0
Mn73 Mn 0.88172 0.78587 0.20219 0.0
C74 C 0.91347 0.83952 0.17056 0.0
C75 C 0.03909 0.88911 0.16921 0.0
C76 C 0.90776 0.73458 0.17834 0.0
O77 O 0.99383 0.81923 0.20092 0.0
O78 O 0.93213 0.79678 0.21667 0.0
C79 C 0.90292 0.86126 0.22494 0.0
N80 N 0.8761 0.83132 0.21315 0.0
C81 C 0.8306 0.86384 0.2121 0.0
C82 C 0.85899 0.89619 0.2236 0.0
C83 C 0.89523 0.89478 0.23012 0.0
C84 C 0.84087 0.83217 0.20696 0.0
H85 H 0.9302 0.85981 0.23015 0.0
C86 C 0.97226 0.8075 0.21527 0.0
O87 O 0.0301 0.8501 0.16496 0.0
O88 O 0.01115 0.89259 0.1788 0.0
N89 N 0.83078 0.77465 0.1894 0.0
C90 C 0.80823 0.74294 0.17749 0.0
C91 C 0.76993 0.73855 0.17026 0.0
C92 C 0.75486 0.7666 0.17552 0.0
C93 C 0.77829 0.79874 0.18797 0.0
C94 C 0.81613 0.8013 0.19477 0.0
H95 H 0.81931 0.72108 0.17367 0.0
O96 O 0.94047 0.84268 0.1585 0.0
O97 O 0.92031 0.82739 0.18534 0.0
O98 O 0.94119 0.76614 0.1716 0.0
O99 O 0.88509 0.73831 0.19045 0.0
C100 C 0.76619 0.82902 0.19361 0.0
C101 C 0.79272 0.862 0.20545 0.0
H102 H 0.85255 0.92143 0.22787 0.0
H103 H 0.91683 0.91912 0.23928 0.0
H104 H 0.75213 0.71362 0.16066 0.0
H105 H 0.72551 0.76342 0.16981 0.0
H106 H 0.73723 0.828 0.18853 0.0
H107 H 0.78382 0.88589 0.2093 0.0
Mn108 Mn 0.14581 0.17564 0.3262 0.0
Mn109 Mn 0.09879 0.22192 0.30311 0.0
C110 C 0.07483 0.16149 0.33291 0.0
C111 C 0.15144 0.1123 0.32965 0.0
C112 C 0.17701 0.27201 0.32632 0.0
O113 O 0.17796 0.19064 0.30245 0.0
O114 O 0.13958 0.2148 0.28762 0.0
C115 C 0.04868 0.15099 0.27924 0.0
N116 N 0.05009 0.18043 0.29074 0.0
C117 C 0.97364 0.15418 0.28796 0.0
C118 C 0.97168 0.12475 0.27539 0.0
C119 C 0.00883 0.12098 0.27223 0.0
C120 C 0.01398 0.18128 0.29562 0.0
H121 H 0.07717 0.14844 0.27648 0.0
C122 C 0.16967 0.20482 0.28839 0.0
O123 O 0.18196 0.14903 0.33588 0.0
O124 O 0.12042 0.11412 0.3221 0.0
N125 N 0.05789 0.22935 0.31689 0.0
C126 C 0.06442 0.25244 0.33178 0.0
C127 C 0.02896 0.25286 0.33974 0.0
C128 C 0.98728 0.22966 0.33229 0.0
C129 C 0.98137 0.20594 0.317 0.0
C130 C 0.01791 0.20675 0.3097 0.0
H131 H 0.09628 0.2698 0.33764 0.0
O132 O 0.09861 0.15749 0.34479 0.0
O133 O 0.09563 0.17818 0.31874 0.0
O134 O 0.1796 0.24061 0.33327 0.0
O135 O 0.14788 0.26644 0.31539 0.0
C136 C 0.94048 0.18026 0.30903 0.0
C137 C 0.93666 0.15455 0.29443 0.0
H138 H 0.94083 0.10159 0.2696 0.0
H139 H 0.00675 0.0937 0.26518 0.0
H140 H 0.03365 0.27069 0.35168 0.0
H141 H 0.95996 0.22964 0.33857 0.0
H142 H 0.91161 0.17905 0.31433 0.0
H143 H 0.90488 0.13366 0.28882 0.0
Mn144 Mn 0.82048 0.97208 0.32395 0.0
Mn145 Mn 0.76965 0.87543 0.30323 0.0
C146 C 0.83867 0.917 0.33009 0.0
C147 C 0.88778 0.03881 0.32665 0.0
C148 C 0.72948 0.91246 0.32779 0.0
O149 O 0.8011 0.98589 0.3004 0.0
O150 O 0.77841 0.92134 0.28625 0.0
C151 C 0.80546 0.85938 0.27146 0.0
N152 N 0.79381 0.84992 0.2884 0.0
C153 C 0.79419 0.78227 0.28616 0.0
C154 C 0.80718 0.79188 0.26884 0.0
C155 C 0.81236 0.83029 0.26146 0.0
C156 C 0.787 0.812 0.29545 0.0
H157 H 0.80801 0.88815 0.26552 0.0
C158 C 0.78765 0.96143 0.28671 0.0
O159 O 0.85269 0.03478 0.33363 0.0
O160 O 0.88165 0.00595 0.31756 0.0
N161 N 0.76125 0.83126 0.31956 0.0
C162 C 0.74792 0.82648 0.3364 0.0
C163 C 0.74226 0.79033 0.34589 0.0
C164 C 0.75001 0.75924 0.33795 0.0
C165 C 0.76446 0.76529 0.32072 0.0
C166 C 0.77077 0.80271 0.31208 0.0
H167 H 0.74221 0.85031 0.34267 0.0
O168 O 0.84091 0.94476 0.34157 0.0
O169 O 0.82082 0.91846 0.31568 0.0
O170 O 0.75711 0.94694 0.33521 0.0
O171 O 0.7457 0.89759 0.3179 0.0
C172 C 0.77279 0.73562 0.31177 0.0
C173 C 0.78711 0.74384 0.29442 0.0
H174 H 0.81248 0.76962 0.26099 0.0
H175 H 0.82027 0.83648 0.24794 0.0
H176 H 0.73173 0.78632 0.35926 0.0
H177 H 0.74506 0.73103 0.34524 0.0
H178 H 0.76784 0.70618 0.31805 0.0
H179 H 0.79261 0.72038 0.28754 0.0
Mn180 Mn 0.02336 0.85821 0.32288 0.0
Mn181 Mn 0.11839 0.89829 0.3013 0.0
C182 C 0.08222 0.92805 0.32952 0.0
C183 C 0.9548 0.85044 0.32658 0.0
C184 C 0.08439 0.82334 0.32668 0.0
O185 O 0.00678 0.82269 0.29992 0.0
O186 O 0.07028 0.8615 0.28529 0.0
C187 C 0.1073 0.95642 0.2775 0.0
N188 N 0.13263 0.94968 0.28877 0.0
C189 C 0.1895 0.02441 0.28687 0.0
C190 C 0.1646 0.03156 0.27471 0.0
C191 C 0.12212 -0.00164 0.27115 0.0
C192 C 0.17147 0.98281 0.29405 0.0
H193 H 0.07502 0.93076 0.27445 0.0
C194 C 0.02981 0.83266 0.28596 0.0
O195 O 0.96373 0.82238 0.33336 0.0
O196 O 0.9843 0.88062 0.317 0.0
N197 N 0.16718 0.93554 0.31564 0.0
C198 C 0.18055 0.92639 0.33076 0.0
C199 C 0.21871 0.95836 0.33881 0.0
C200 C 0.24268 -0.00027 0.33125 0.0
C201 C 0.22785 0.00879 0.31585 0.0
C202 C 0.18981 0.97533 0.30836 0.0
H203 H 0.16175 0.8953 0.33675 0.0
O204 O 0.05184 0.90654 0.34087 0.0
O205 O 0.07785 0.9069 0.31535 0.0
O206 O 0.05284 0.82648 0.33272 0.0
O207 O 0.10794 0.84617 0.31407 0.0
C208 C 0.24834 0.05017 0.308 0.0
C209 C 0.22907 0.058 0.29352 0.0
H210 H 0.17525 0.06369 0.26979 0.0
H211 H 0.1003 0.00576 0.26408 0.0
H212 H 0.22932 0.9513 0.35091 0.0
H213 H 0.27177 0.02457 0.3376 0.0
H214 H 0.27794 0.07662 0.31341 0.0
H215 H 0.2439 0.09043 0.28812 0.0
Mn216 Mn 0.79712 0.83385 0.82593 0.0
Mn217 Mn 0.86562 0.89174 0.7969 0.0
C218 C 0.83545 0.91187 0.83461 0.0
C219 C 0.72372 0.81841 0.82684 0.0
C220 C 0.87779 0.83048 0.82333 0.0
O221 O 0.78718 0.79314 0.80335 0.0
O222 O 0.80469 0.85282 0.79115 0.0
C223 C 0.81058 0.93495 0.78018 0.0
N224 N 0.85019 0.93769 0.78134 0.0
C225 C 0.88555 0.00997 0.76796 0.0
C226 C 0.84455 0.00686 0.76697 0.0
C227 C 0.80729 0.96949 0.773 0.0
C228 C 0.88841 0.97561 0.77516 0.0
H229 H 0.78186 0.90728 0.78546 0.0
C230 C 0.7911 0.81329 0.78915 0.0
O231 O 0.73539 0.79457 0.83544 0.0
O232 O 0.75241 0.84618 0.81694 0.0
N233 N 0.94586 0.94098 0.79572 0.0
C234 C 0.93846 0.91249 0.81061 0.0
C235 C 0.9536 0.93814 0.79786 0.0
C236 C 0.95956 0.00156 0.78551 0.0
C237 C 0.97123 0.01561 0.76918 0.0
C238 C 0.9395 0.98365 0.78077 0.0
H239 H 0.91684 0.91083 0.82126 0.0
O240 O 0.81005 0.88161 0.84501 0.0
O241 O 0.84104 0.89384 0.82071 0.0
O242 O 0.84771 0.82406 0.83435 0.0
O243 O 0.87373 0.84092 0.80747 0.0
C244 C 0.96408 0.04789 0.76212 0.0
C245 C 0.92372 0.04657 0.76229 0.0
H246 H 0.8413 0.03328 0.76156 0.0
H247 H 0.77589 0.96755 0.7723 0.0
H248 H 0.96474 0.90892 0.80826 0.0
H249 H 0.97872 0.04023 0.79322 0.0
H250 H 0.99129 0.07545 0.75648 0.0
H251 H 0.92198 0.07347 0.75662 0.0
Mn252 Mn 0.1483 0.95644 0.82537 0.0
Mn253 Mn 0.1038 0.99143 0.80083 0.0
C254 C 0.06996 0.91952 0.83009 0.0
C255 C 0.16675 0.90269 0.82674 0.0
C256 C 0.16337 0.04577 0.82759 0.0
O257 O 0.19018 0.98684 0.80307 0.0
O258 O 0.13415 0.96999 0.7859 0.0
C259 C 0.03747 0.92084 0.77053 0.0
N260 N 0.04452 0.95753 0.77885 0.0
C261 C 0.9573 0.92979 0.76795 0.0
C262 C 0.96055 0.89506 0.76131 0.0
C263 C -0.00168 0.8918 0.76218 0.0
C264 C 0.01091 0.97096 0.77898 0.0
H265 H 0.06224 0.91163 0.77135 0.0
C266 C 0.1742 0.98248 0.78756 0.0
O267 O 0.18728 0.9369 0.83655 0.0
O268 O 0.1399 0.90236 0.81575 0.0
N269 N 0.07281 0.02778 0.81847 0.0
C270 C 0.0675 0.02608 0.84068 0.0
C271 C 0.01401 0.00871 0.8515 0.0
C272 C 0.96115 0.99049 0.84008 0.0
C273 C 0.95314 0.99016 0.81623 0.0
C274 C 0.01591 0.00655 0.80034 0.0
H275 H 0.08982 0.02126 0.84851 0.0
O276 O 0.09599 0.92082 0.84204 0.0
O277 O 0.09182 0.94028 0.81624 0.0
O278 O 0.15952 0.01581 0.83786 0.0
O279 O 0.15943 0.03482 0.81188 0.0
C280 C 0.89676 0.95274 0.80434 0.0
C281 C 0.89881 0.91246 0.77623 0.0
H282 H 0.93098 0.86602 0.75756 0.0
H283 H 0.99596 0.86228 0.7571 0.0
H284 H 0.01243 0.0031 0.86532 0.0
H285 H 0.93383 0.96899 0.84773 0.0
H286 H 0.87063 0.95594 0.80809 0.0
H287 H 0.87086 0.88434 0.77083 0.0
Mn288 Mn 0.03635 0.18244 0.82572 0.0
Mn289 Mn 0.03387 0.11182 0.80013 0.0
C290 C 0.08511 0.15347 0.83182 0.0
C291 C 0.08393 0.25688 0.82834 0.0
C292 C 0.95993 0.0906 0.82791 0.0
O293 O 0.0026 0.18856 0.80436 0.0
O294 O 0.01469 0.14607 0.78676 0.0
C295 C 0.10933 0.17678 0.77952 0.0
N296 N 0.08635 0.13638 0.78661 0.0
C297 C 0.13353 0.11359 0.77395 0.0
C298 C 0.15947 0.15586 0.76727 0.0
C299 C 0.14785 0.18796 0.7704 0.0
C300 C 0.10016 0.10758 0.78512 0.0
H301 H 0.09916 0.20052 0.78148 0.0
C302 C 0.00093 0.17235 0.7893 0.0
O303 O 0.04855 0.23867 0.8375 0.0
O304 O 0.08781 0.23354 0.81686 0.0
N305 N 0.05272 0.077 0.81069 0.0
C306 C 0.02253 0.04291 0.82444 0.0
C307 C 0.01151 0.97115 0.8243 0.0
C308 C 0.04383 0.96504 0.80752 0.0
C309 C 0.08387 0.02739 0.79105 0.0
C310 C 0.08139 0.07373 0.79606 0.0
H311 H 0.03882 0.07099 0.81701 0.0
O312 O 0.07562 0.17292 0.84359 0.0
O313 O 0.06542 0.15269 0.81754 0.0
O314 O 0.97963 0.12799 0.83549 0.0
O315 O 0.97675 0.08376 0.81428 0.0
C316 C 0.11666 0.03633 0.77703 0.0
C317 C 0.14076 0.07871 0.76991 0.0
H318 H 0.18769 0.16377 0.75934 0.0
H319 H 0.16729 0.22034 0.76509 0.0
H320 H 0.01146 0.99678 0.82578 0.0
H321 H 0.02317 0.95439 0.81849 0.0
H322 H 0.09428 0.02566 0.78611 0.0
H323 H 0.16553 0.08407 0.76047 0.0
Mn324 Mn 0.84274 0.80728 0.68093 0.0
Mn325 Mn 0.9114 0.91382 0.70157 0.0
C326 C 0.91983 0.8275 0.68307 0.0
C327 C 0.8126 0.73269 0.68029 0.0
C328 C 0.84595 0.89497 0.67441 0.0
O329 O 0.80233 0.80647 0.70102 0.0
O330 O 0.85385 0.86444 0.71475 0.0
C331 C 0.00298 0.97151 0.73589 0.0
N332 N 0.99171 0.95054 0.72035 0.0
C333 C 0.06552 0.97966 0.71453 0.0
C334 C 0.06923 0.97376 0.73235 0.0
C335 C 0.0436 0.9841 0.74214 0.0
C336 C 0.02387 0.96292 0.7067 0.0
H337 H 0.98242 0.9809 0.74241 0.0
C338 C 0.81756 0.82876 0.71497 0.0
O339 O 0.79684 0.75119 0.6704 0.0
O340 O 0.83854 0.75603 0.69237 0.0
N341 N 0.94957 0.94723 0.67825 0.0
C342 C 0.9867 0.9766 0.67509 0.0
C343 C 0.00279 0.02933 0.65061 0.0
C344 C 0.06224 0.06569 0.65212 0.0
C345 C 0.07737 0.0474 0.67111 0.0
C346 C 0.00418 0.97781 0.68145 0.0
H347 H 0.94092 0.94218 0.67718 0.0
O348 O 0.89686 0.80657 0.66973 0.0
O349 O 0.89856 0.847 0.69004 0.0
O350 O 0.84096 0.85984 0.66691 0.0
O351 O 0.85818 0.90255 0.68997 0.0
C352 C 0.11278 0.05809 0.6863 0.0
C353 C 0.10015 0.01792 0.70799 0.0
H354 H 0.10045 0.98163 0.73792 0.0
H355 H 0.05681 0.00531 0.75305 0.0
H356 H 0.97602 0.03192 0.64231 0.0
H357 H 0.03306 0.05379 0.64676 0.0
H358 H 0.09495 0.05682 0.67538 0.0
H359 H 0.1256 0.02985 0.71776 0.0
Mn360 Mn 0.17893 0.03783 0.68061 0.0
Mn361 Mn 0.14999 0.03985 0.69526 0.0
C362 C 0.17913 0.11259 0.67031 0.0
C363 C 0.25582 0.09213 0.67639 0.0
C364 C 0.11334 0.94412 0.68841 0.0
O365 O 0.2038 0.01466 0.70154 0.0
O366 O 0.19496 0.06084 0.71451 0.0
C367 C 0.12744 0.11294 0.72595 0.0
N368 N 0.11173 0.08303 0.71313 0.0
C369 C 0.02961 0.06824 0.72142 0.0
C370 C 0.05341 0.10403 0.73243 0.0
C371 C 0.09949 0.12538 0.73429 0.0
C372 C 0.06315 0.06163 0.71076 0.0
H373 H 0.16169 0.12907 0.72911 0.0
C374 C 0.20792 0.03409 0.71586 0.0
O375 O 0.23712 0.05681 0.66755 0.0
O376 O 0.2309 0.09656 0.68692 0.0
N377 N 0.06981 0.9883 0.68296 0.0
C378 C 0.05177 0.94744 0.66482 0.0
C379 C 0.98121 0.93037 0.64846 0.0
C380 C 0.94262 0.96104 0.65146 0.0
C381 C 0.95014 0.00809 0.67504 0.0
C382 C 0.04452 0.02831 0.69682 0.0
H383 H 0.07297 0.93874 0.6582 0.0
O384 O 0.165 0.07668 0.66125 0.0
O385 O 0.19075 0.10256 0.68475 0.0
O386 O 0.13409 0.96722 0.67473 0.0
O387 O 0.12543 0.96993 0.70149 0.0
C388 C 0.92787 0.01772 0.69371 0.0
C389 C 0.97549 0.04621 0.71956 0.0
H390 H 0.03712 0.1193 0.73856 0.0
H391 H 0.11407 0.15489 0.7416 0.0
H392 H 0.97285 0.9086 0.6375 0.0
H393 H 0.91617 0.95015 0.6426 0.0
H394 H 0.93269 0.00746 0.6809 0.0
H395 H 0.96437 0.05911 0.72982 0.0
Mn396 Mn 0.94537 0.14093 0.68051 0.0
Mn397 Mn 0.95621 0.07316 0.70473 0.0
C398 C 0.90645 0.06724 0.66963 0.0
C399 C 0.89492 0.1649 0.68061 0.0
C400 C 0.03385 0.14957 0.68306 0.0
O401 O 0.96952 0.16938 0.70487 0.0
O402 O 0.93345 0.10578 0.71797 0.0
C403 C 0.86753 0.98487 0.72898 0.0
N404 N 0.90477 -0.00175 0.72024 0.0
C405 C 0.90879 0.93028 0.72935 0.0
C406 C 0.87166 0.92174 0.7392 0.0
C407 C 0.84947 0.94517 0.73763 0.0
C408 C 0.92363 0.96821 0.71807 0.0
H409 H 0.85216 0.00459 0.72928 0.0
C410 C 0.95546 0.14732 0.71894 0.0
O411 O 0.93287 0.18882 0.67342 0.0
O412 O 0.88866 0.13057 0.68833 0.0
N413 N 0.99393 0.03867 0.69458 0.0
C414 C 0.02031 0.05314 0.67675 0.0
C415 C 0.034 0.99233 0.65606 0.0
C416 C 0.98707 0.91156 0.67571 0.0
C417 C 0.96115 0.91104 0.69716 0.0
C418 C 0.96175 0.97875 0.70426 0.0
H419 H 0.02576 0.08396 0.67234 0.0
O420 O 0.91238 0.09916 0.65981 0.0
O421 O 0.92883 0.08156 0.68376 0.0
O422 O 0.00896 0.1556 0.67251 0.0
O423 O 0.01574 0.12953 0.6976 0.0
C424 C 0.94059 0.8803 0.71406 0.0
C425 C 0.91967 0.89345 0.72896 0.0
H426 H 0.85409 0.89114 0.74581 0.0
H427 H 0.81803 0.93252 0.74373 0.0
H428 H 0.04916 0.99618 0.64297 0.0
H429 H 0.9787 0.8839 0.66817 0.0
H430 H 0.95499 0.89808 0.70205 0.0
H431 H 0.93245 0.87433 0.72387 0.0
Mn432 Mn 0.82984 0.46563 0.51195 0.0
Mn433 Mn 0.87528 0.41886 0.53494 0.0
C434 C 0.81583 0.39539 0.50435 0.0
C435 C 0.772 0.47719 0.5074 0.0
C436 C 0.92469 0.49705 0.51155 0.0
O437 O 0.84723 0.49919 0.53555 0.0
O438 O 0.8609 0.45334 0.55123 0.0
C439 C 0.79964 0.35628 0.55553 0.0
N440 N 0.83343 0.36467 0.54486 0.0
C441 C 0.8111 0.28858 0.54312 0.0
C442 C 0.77694 0.27932 0.55456 0.0
C443 C 0.76992 0.313 0.56002 0.0
C444 C 0.83828 0.33198 0.53828 0.0
H445 H 0.79445 0.38221 0.55992 0.0
C446 C 0.85479 0.48602 0.55004 0.0
O447 O 0.81018 0.50489 0.5014 0.0
O448 O 0.76864 0.44518 0.51655 0.0
N449 N 0.89006 0.38456 0.5202 0.0
C450 C 0.9189 0.39754 0.50684 0.0
C451 C 0.92617 0.36714 0.49806 0.0
C452 C 0.90372 0.32339 0.50317 0.0
C453 C 0.87405 0.31059 0.51692 0.0
C454 C 0.86845 0.34258 0.52526 0.0
H455 H 0.93608 0.43068 0.50288 0.0
O456 O 0.81074 0.41966 0.49307 0.0
O457 O 0.83081 0.41434 0.5191 0.0
O458 O 0.89225 0.49489 0.50377 0.0
O459 O 0.92107 0.47374 0.52476 0.0
C460 C 0.84881 0.26711 0.52233 0.0
C461 C 0.8172 0.25612 0.53534 0.0
H462 H 0.75398 0.24617 0.55824 0.0
H463 H 0.74117 0.30535 0.56751 0.0
H464 H 0.94888 0.37743 0.48734 0.0
H465 H 0.90901 0.29981 0.49628 0.0
H466 H 0.85244 0.24165 0.51617 0.0
H467 H 0.79682 0.22239 0.53875 0.0
Mn468 Mn 0.52379 0.36578 0.51226 0.0
Mn469 Mn 0.56303 0.4602 0.53313 0.0
C470 C 0.59337 0.42174 0.50546 0.0
C471 C 0.51783 0.2977 0.51212 0.0
C472 C 0.48709 0.42381 0.50824 0.0
O473 O 0.48731 0.35141 0.53466 0.0
O474 O 0.53037 0.41211 0.55039 0.0
C475 C 0.62612 0.47162 0.56076 0.0
N476 N 0.61748 0.48394 0.54526 0.0
C477 C 0.68699 0.55084 0.54584 0.0
C478 C 0.69667 0.53823 0.5615 0.0
C479 C 0.66651 0.49835 0.56876 0.0
C480 C 0.64647 0.52301 0.53824 0.0
H481 H 0.60244 0.44189 0.56693 0.0
C482 C 0.4994 0.37196 0.54913 0.0
O483 O 0.48938 0.30363 0.50376 0.0
O484 O 0.54794 0.33102 0.52016 0.0
N485 N 0.59557 0.50556 0.51652 0.0
C486 C 0.58675 0.50734 0.49949 0.0
C487 C 0.61564 0.54291 0.48929 0.0
C488 C 0.65445 0.57569 0.49654 0.0
C489 C 0.66524 0.57077 0.5135 0.0
C490 C 0.63512 0.53407 0.52288 0.0
H491 H 0.55971 0.48031 0.49345 0.0
O492 O 0.57148 0.39069 0.4944 0.0
O493 O 0.57232 0.41979 0.51944 0.0
O494 O 0.49263 0.39474 0.50104 0.0
O495 O 0.50744 0.44367 0.52186 0.0
C496 C 0.70578 0.59939 0.52103 0.0
C497 C 0.71644 0.58968 0.53734 0.0
H498 H 0.72772 0.55824 0.56783 0.0
H499 H 0.6756 0.4886 0.58026 0.0
H500 H 0.60873 0.54435 0.47574 0.0
H501 H 0.67692 0.60298 0.48864 0.0
H502 H 0.7294 0.62833 0.51421 0.0
H503 H 0.74791 0.61161 0.54299 0.0
Mn504 Mn 0.63805 0.16085 0.51599 0.0
Mn505 Mn 0.54 0.11189 0.53557 0.0
C506 C 0.58447 0.18229 0.50956 0.0
C507 C 0.69723 0.20915 0.49689 0.0
C508 C 0.56925 0.07152 0.50733 0.0
O509 O 0.63893 0.12268 0.53575 0.0
O510 O 0.58573 0.11829 0.55246 0.0
C511 C 0.55219 0.17847 0.5611 0.0
N512 N 0.52721 0.14933 0.54882 0.0
C513 C 0.47281 0.17087 0.55113 0.0
C514 C 0.49685 0.19934 0.56448 0.0
C515 C 0.53808 0.20537 0.56837 0.0
C516 C 0.48979 0.14687 0.54332 0.0
H517 H 0.58409 0.18349 0.56419 0.0
C518 C 0.62215 0.11921 0.55065 0.0
O519 O 0.69799 0.1788 0.50574 0.0
O520 O 0.65858 0.20444 0.4959 0.0
N521 N 0.49348 0.10588 0.52073 0.0
C522 C 0.48055 0.0864 0.50501 0.0
C523 C 0.44417 0.08395 0.49672 0.0
C524 C 0.42155 0.10238 0.50459 0.0
C525 C 0.43589 0.12339 0.52059 0.0
C526 C 0.472 0.12398 0.52834 0.0
H527 H 0.49866 0.07422 0.49864 0.0
O528 O 0.61855 0.19498 0.49985 0.0
O529 O 0.58421 0.15967 0.52245 0.0
O530 O 0.60251 0.10576 0.50126 0.0
O531 O 0.54979 0.07097 0.52147 0.0
C532 C 0.41688 0.14533 0.52878 0.0
C533 C 0.43539 0.16913 0.54407 0.0
H534 H 0.48663 0.22066 0.57024 0.0
H535 H 0.5607 0.23387 0.5753 0.0
H536 H 0.43415 0.06863 0.48414 0.0
H537 H 0.39401 0.10126 0.49803 0.0
H538 H 0.38903 0.14544 0.52308 0.0
H539 H 0.42183 0.18764 0.54981 0.0
Mn540 Mn 0.79992 0.50078 0.65737 0.0
Mn541 Mn 0.75152 0.54611 0.63485 0.0
C542 C 0.73026 0.48773 0.6654 0.0
C543 C 0.80815 0.4399 0.66048 0.0
C544 C 0.82894 0.59575 0.65894 0.0
O545 O 0.83253 0.51722 0.63362 0.0
O546 O 0.78841 0.5344 0.61861 0.0
C547 C 0.69276 0.47235 0.61232 0.0
N548 N 0.69877 0.50332 0.62409 0.0
C549 C 0.62247 0.48052 0.62367 0.0
C550 C 0.61599 0.44966 0.61105 0.0
C551 C 0.65073 0.44358 0.6062 0.0
C552 C 0.66465 0.50649 0.63009 0.0
H553 H 0.71983 0.47012 0.60749 0.0
C554 C 0.81968 0.52601 0.61935 0.0
O555 O 0.83756 0.47687 0.66694 0.0
O556 O 0.77651 0.43993 0.65239 0.0
N557 N 0.71407 0.55734 0.6493 0.0
C558 C 0.72436 0.58398 0.66328 0.0
C559 C 0.69198 0.58889 0.67168 0.0
C560 C 0.64908 0.56651 0.6655 0.0
C561 C 0.63898 0.53892 0.65114 0.0
C562 C 0.67272 0.53508 0.64346 0.0
H563 H 0.75684 0.60087 0.66803 0.0
O564 O 0.75446 0.48205 0.6765 0.0
O565 O 0.74916 0.50321 0.65075 0.0
O566 O 0.83048 0.56367 0.66554 0.0
O567 O 0.80433 0.59239 0.64618 0.0
C568 C 0.59659 0.51446 0.64437 0.0
C569 C 0.58839 0.48541 0.63054 0.0
H570 H 0.58433 0.43039 0.6052 0.0
H571 H 0.64589 0.41907 0.59672 0.0
H572 H 0.7001 0.60985 0.6829 0.0
H573 H 0.62409 0.57029 0.67199 0.0
H574 H 0.56994 0.51711 0.6499 0.0
H575 H 0.55552 0.46599 0.62566 0.0
Mn576 Mn 0.49749 0.30725 0.65161 0.0
Mn577 Mn 0.4514 0.20686 0.63365 0.0
C578 C 0.51694 0.25358 0.66116 0.0
C579 C 0.54363 0.36753 0.6709 0.0
C580 C 0.40781 0.23718 0.66016 0.0
O581 O 0.46251 0.30807 0.63021 0.0
O582 O 0.45479 0.24957 0.61612 0.0
C583 C 0.52707 0.22958 0.61171 0.0
N584 N 0.49394 0.19938 0.62154 0.0
C585 C 0.52498 0.1526 0.6213 0.0
C586 C 0.55749 0.18168 0.61009 0.0
C587 C 0.56079 0.22207 0.60677 0.0
C588 C 0.49478 0.16394 0.62744 0.0
H589 H 0.52937 0.26049 0.60889 0.0
C590 C 0.45507 0.2857 0.61634 0.0
O591 O 0.51556 0.36841 0.66057 0.0
O592 O 0.53744 0.32857 0.673 0.0
N593 N 0.4466 0.16113 0.64848 0.0
C594 C 0.42086 0.14299 0.66261 0.0
C595 C 0.41982 0.10721 0.67085 0.0
C596 C 0.44469 0.0897 0.66426 0.0
C597 C 0.4701 0.10803 0.64941 0.0
C598 C 0.46935 0.14339 0.64165 0.0
H599 H 0.40122 0.15559 0.66746 0.0
O600 O 0.52814 0.28866 0.66997 0.0
O601 O 0.49706 0.25241 0.64715 0.0
O602 O 0.44057 0.27328 0.66517 0.0
O603 O 0.4081 0.21411 0.6473 0.0
C604 C 0.49719 0.09343 0.64232 0.0
C605 C 0.52493 0.11597 0.62833 0.0
H606 H 0.58296 0.1756 0.60564 0.0
H607 H 0.58971 0.24765 0.60062 0.0
H608 H 0.39988 0.09317 0.68226 0.0
H609 H 0.44428 0.06244 0.67076 0.0
H610 H 0.49838 0.06615 0.64801 0.0
H611 H 0.54773 0.10631 0.62371 0.0
Mn612 Mn 0.68227 0.186 0.6521 0.0
Mn613 Mn 0.78356 0.23455 0.63491 0.0
C614 C 0.7385 0.25872 0.66085 0.0
C615 C 0.62345 0.17444 0.67107 0.0
C616 C 0.74733 0.16015 0.66119 0.0
O617 O 0.67914 0.14976 0.63065 0.0
O618 O 0.74042 0.19707 0.61729 0.0
C619 C 0.77906 0.2914 0.60797 0.0
N620 N 0.79957 0.28588 0.62176 0.0
C621 C 0.85878 0.35978 0.61965 0.0
C622 C 0.83936 0.36558 0.60492 0.0
C623 C 0.79821 0.33214 0.5998 0.0
C624 C 0.83729 0.31922 0.6279 0.0
H625 H 0.74754 0.26557 0.60382 0.0
C626 C 0.70354 0.16194 0.61723 0.0
O627 O 0.62157 0.14407 0.66138 0.0
O628 O 0.66273 0.20667 0.67315 0.0
N629 N 0.82837 0.27288 0.65069 0.0
C630 C 0.83957 0.26412 0.6664 0.0
C631 C 0.87638 0.29635 0.67509 0.0
C632 C 0.90149 0.33753 0.66752 0.0
C633 C 0.88927 0.3461 0.65139 0.0
C634 C 0.85224 0.31252 0.64336 0.0
H635 H 0.82021 0.23311 0.67234 0.0
O636 O 0.70359 0.23669 0.67005 0.0
O637 O 0.73837 0.2384 0.64717 0.0
O638 O 0.71279 0.15996 0.66617 0.0
O639 O 0.77119 0.18304 0.64855 0.0
C640 C 0.91203 0.38684 0.64309 0.0
C641 C 0.89683 0.39364 0.62719 0.0
H642 H 0.85353 0.39693 0.59853 0.0
H643 H 0.78 0.33946 0.59072 0.0
H644 H 0.88525 0.28948 0.68763 0.0
H645 H 0.92978 0.36243 0.67428 0.0
H646 H 0.94081 0.41336 0.64896 0.0
H647 H 0.91389 0.42542 0.62113 0.0
Mn648 Mn 0.45921 0.16731 0.15458 0.0
Mn649 Mn 0.53982 0.21542 0.12929 0.0
C650 C 0.49369 0.24692 0.15981 0.0
C651 C 0.38615 0.15126 0.15712 0.0
C652 C 0.53784 0.15717 0.15563 0.0
O653 O 0.44871 0.12779 0.13158 0.0
O654 O 0.48891 0.18483 0.11471 0.0
C655 C 0.52685 0.28657 0.10647 0.0
N656 N 0.56029 0.28062 0.11093 0.0
C657 C 0.60955 0.35982 0.11158 0.0
C658 C 0.5763 0.36273 0.10295 0.0
C659 C 0.53451 0.32773 0.10263 0.0
C660 C 0.60457 0.31889 0.11545 0.0
H661 H 0.49389 0.25946 0.10676 0.0
C662 C 0.46068 0.14523 0.11625 0.0
O663 O 0.40027 0.13103 0.16666 0.0
O664 O 0.41155 0.17472 0.14525 0.0
N665 N 0.61082 0.25421 0.14664 0.0
C666 C 0.61326 0.25422 0.16808 0.0
C667 C 0.63641 0.30365 0.17953 0.0
C668 C 0.65397 0.35461 0.16938 0.0
C669 C 0.65373 0.3624 0.14521 0.0
C670 C 0.63366 0.31522 0.13153 0.0
H671 H 0.58713 0.2289 0.17532 0.0
O672 O 0.47441 0.21884 0.17186 0.0
O673 O 0.49386 0.22505 0.14562 0.0
O674 O 0.51091 0.1595 0.16607 0.0
O675 O 0.53018 0.16045 0.13992 0.0
C676 C 0.65624 0.39991 0.13606 0.0
C677 C 0.6388 0.39746 0.11995 0.0
H678 H 0.58007 0.39409 0.09946 0.0
H679 H 0.50763 0.33278 0.09959 0.0
H680 H 0.63294 0.30208 0.19348 0.0
H681 H 0.656 0.37942 0.1781 0.0
H682 H 0.65556 0.37774 0.14319 0.0
H683 H 0.63891 0.42638 0.11606 0.0
Mn684 Mn 0.80576 0.2888 0.15625 0.0
Mn685 Mn 0.74499 0.3025 0.12941 0.0
C686 C 0.72538 0.24845 0.16163 0.0
C687 C 0.8201 0.23104 0.15919 0.0
C688 C 0.82207 0.38072 0.15549 0.0
O689 O 0.84725 0.31382 0.1344 0.0
O690 O 0.79558 0.3079 0.1164 0.0
C691 C 0.72474 0.22383 0.1108 0.0
N692 N 0.70945 0.25023 0.11634 0.0
C693 C 0.63994 0.20314 0.1032 0.0
C694 C 0.65471 0.17455 0.09867 0.0
C695 C 0.69753 0.18532 0.10203 0.0
C696 C 0.66791 0.23982 0.11314 0.0
H697 H 0.75664 0.23032 0.11442 0.0
C698 C 0.8335 0.31387 0.11897 0.0
O699 O 0.84141 0.26576 0.16849 0.0
O700 O 0.79438 0.23168 0.14804 0.0
N701 N 0.6839 0.29069 0.1374 0.0
C702 C 0.67084 0.30936 0.15318 0.0
C703 C 0.5936 0.30023 0.15534 0.0
C704 C 0.56392 0.27046 0.1387 0.0
C705 C 0.59758 0.24639 0.1196 0.0
C706 C 0.65244 0.26122 0.12263 0.0
H707 H 0.6883 0.3014 0.14434 0.0
O708 O 0.75331 0.25634 0.17372 0.0
O709 O 0.74648 0.26696 0.14757 0.0
O710 O 0.82297 0.35272 0.16588 0.0
O711 O 0.79971 0.36327 0.14111 0.0
C712 C 0.5764 0.21411 0.1055 0.0
C713 C 0.59779 0.19366 0.09845 0.0
H714 H 0.63291 0.1436 0.0926 0.0
H715 H 0.70911 0.16342 0.09834 0.0
H716 H 0.58244 0.31179 0.16853 0.0
H717 H 0.57462 0.28733 0.14849 0.0
H718 H 0.58658 0.23528 0.11502 0.0
H719 H 0.57989 0.16818 0.08909 0.0
Mn720 Mn 0.69836 0.52248 0.15966 0.0
Mn721 Mn 0.70857 0.47384 0.14285 0.0
C722 C 0.77209 0.51816 0.16801 0.0
C723 C 0.75643 0.59694 0.16182 0.0
C724 C 0.62373 0.44207 0.165 0.0
O725 O 0.6746 0.54486 0.13816 0.0
O726 O 0.67981 0.4938 0.12712 0.0
C727 C 0.77792 0.533 0.11772 0.0
N728 N 0.75247 0.4939 0.12566 0.0
C729 C 0.78627 0.46025 0.11089 0.0
C730 C 0.81373 0.49961 0.10237 0.0
C731 C 0.8096 0.53649 0.1058 0.0
C732 C 0.76017 0.46136 0.12379 0.0
H733 H 0.77302 0.56029 0.12003 0.0
C734 C 0.67008 0.52225 0.1247 0.0
O735 O 0.72307 0.58198 0.17175 0.0
O736 O 0.75547 0.57 0.15075 0.0
N737 N 0.73268 0.44328 0.15227 0.0
C738 C 0.73028 0.42625 0.16891 0.0
C739 C 0.74015 0.39387 0.1692 0.0
C740 C 0.74484 0.37723 0.15372 0.0
C741 C 0.75006 0.39688 0.13698 0.0
C742 C 0.74861 0.43356 0.13746 0.0
H743 H 0.72183 0.44256 0.16042 0.0
O744 O 0.73802 0.50616 0.17789 0.0
O745 O 0.75802 0.52674 0.15394 0.0
O746 O 0.63136 0.48066 0.16805 0.0
O747 O 0.65866 0.44238 0.16138 0.0
C748 C 0.7604 0.3862 0.12039 0.0
C749 C 0.78481 0.42026 0.10855 0.0
H750 H 0.83855 0.50213 0.09351 0.0
H751 H 0.83007 0.56691 0.09918 0.0
H752 H 0.74011 0.37889 0.18146 0.0
H753 H 0.74506 0.34778 0.15662 0.0
H754 H 0.75606 0.35514 0.1171 0.0
H755 H 0.80334 0.41553 0.09861 0.0
Mn756 Mn 0.50732 0.14156 0.00891 0.0
Mn757 Mn 0.57463 0.23543 0.02969 0.0
C758 C 0.58591 0.16804 0.00324 0.0
C759 C 0.47961 0.06684 0.00949 0.0
C760 C 0.49343 0.22075 0.00928 0.0
O761 O 0.47208 0.13924 0.03078 0.0
O762 O 0.53311 0.18224 0.04459 0.0
C763 C 0.62665 0.18627 0.05418 0.0
N764 N 0.62853 0.21966 0.04499 0.0
C765 C 0.70456 0.26906 0.05531 0.0
C766 C 0.70298 0.23386 0.06399 0.0
C767 C 0.66526 0.19199 0.06209 0.0
C768 C 0.66867 0.25913 0.04443 0.0
H769 H 0.5972 0.15508 0.0544 0.0
C770 C 0.49236 0.15445 0.04497 0.0
O771 O 0.45935 0.08325 1.00109 0.0
O772 O 0.51207 0.09337 0.01871 0.0
N773 N 0.63643 0.32488 0.00857 0.0
C774 C 0.642 0.35452 0.9917 0.0
C775 C 0.69472 0.39111 0.98706 0.0
C776 C 0.73797 0.39679 1.00043 0.0
C777 C 0.73065 0.36854 0.01848 0.0
C778 C 0.68124 0.33148 0.02179 0.0
H779 H 0.62912 0.33275 0.00145 0.0
O780 O 0.55648 0.14459 0.99198 0.0
O781 O 0.56677 0.18343 0.01385 0.0
O782 O 0.49472 0.19155 0.99922 0.0
O783 O 0.51548 0.23188 0.02348 0.0
C784 C 0.75309 0.36735 0.03483 0.0
C785 C 0.74071 0.31606 0.0539 0.0
H786 H 0.73119 0.23771 0.07092 0.0
H787 H 0.66598 0.16361 0.06667 0.0
H788 H 0.69552 0.40989 0.97413 0.0
H789 H 0.71736 0.39633 0.99241 0.0
H790 H 0.78058 0.39959 0.03607 0.0
H791 H 0.76588 0.32188 0.06345 0.0
Mn792 Mn 0.85927 0.3688 0.01109 0.0
Mn793 Mn 0.78721 0.34176 0.03899 0.0
C794 C 0.82906 0.4182 0.00846 0.0
C795 C 0.9342 0.41928 0.00981 0.0
C796 C 0.77979 0.27835 0.01056 0.0
O797 O 0.8685 0.33622 0.03322 0.0
O798 O 0.84379 0.36812 0.05028 0.0
C799 C 0.78609 0.42413 0.06758 0.0
N800 N 0.75926 0.38307 0.06237 0.0
C801 C 0.69247 0.39891 0.0657 0.0
C802 C 0.72631 0.44071 0.069 0.0
C803 C 0.77031 0.45277 0.06974 0.0
C804 C 0.71048 0.36725 0.06061 0.0
H805 H 0.8208 0.4364 0.06758 0.0
C806 C 0.86463 0.34816 0.04869 0.0
O807 O 0.91736 0.38427 1.00033 0.0
O808 O 0.90845 0.42167 0.02069 0.0
N809 N 0.71485 0.29967 0.027 0.0
C810 C 0.68649 0.26592 0.0089 0.0
C811 C 0.62568 0.25207 0.99598 0.0
C812 C 0.58044 0.2639 0.00666 0.0
C813 C 0.60139 0.30932 0.03063 0.0
C814 C 0.68184 0.32499 0.04759 0.0
H815 H 0.70819 0.28577 0.0189 0.0
O816 O 0.85015 0.41343 0.99581 0.0
O817 O 0.81889 0.3857 0.01929 0.0
O818 O 0.80594 0.30848 0.99991 0.0
O819 O 0.7887 0.29021 0.02664 0.0
C820 C 0.59557 0.35397 0.0378 0.0
C821 C 0.64643 0.39767 0.06074 0.0
H822 H 0.71918 0.46655 0.06767 0.0
H823 H 0.79349 0.48686 0.07075 0.0
H824 H 0.61856 0.23772 0.9832 0.0
H825 H 0.56242 0.26637 0.99635 0.0
H826 H 0.59184 0.32541 0.03099 0.0
H827 H 0.64411 0.42409 0.06706 0.0
Mn828 Mn 0.62157 0.47575 0.01336 0.0
Mn829 Mn 0.6277 0.41719 0.04245 0.0
C830 C 0.58067 0.39814 0.00566 0.0
C831 C 0.56993 0.49814 0.01028 0.0
C832 C 0.70936 0.48547 0.01847 0.0
O833 O 0.64772 0.51498 0.03585 0.0
O834 O 0.6066 0.45735 0.05085 0.0
C835 C 0.53253 0.3566 0.06425 0.0
N836 N 0.57332 0.36286 0.06325 0.0
C837 C 0.5467 0.28494 0.06985 0.0
C838 C 0.50457 0.27969 0.06952 0.0
C839 C 0.49769 0.31485 0.06695 0.0
C840 C 0.58295 0.32629 0.06673 0.0
H841 H 0.52664 0.38293 0.06112 0.0
C842 C 0.63003 0.49859 0.05045 0.0
O843 O 0.60729 0.51966 0.00245 0.0
O844 O 0.56463 0.46714 0.02006 0.0
N845 N 0.66188 0.37396 0.03799 0.0
C846 C 0.67822 0.38884 0.01754 0.0
C847 C 0.6843 0.32205 0.99591 0.0
C848 C 0.63222 0.26737 0.02384 0.0
C849 C 0.61087 0.27286 0.05094 0.0
C850 C 0.62479 0.32684 0.05721 0.0
H851 H 0.67258 0.41301 0.01217 0.0
O852 O 0.58869 0.42824 0.99455 0.0
O853 O 0.60273 0.41506 0.01969 0.0
O854 O 0.68511 0.48838 0.0066 0.0
O855 O 0.68989 0.46781 0.03321 0.0
C856 C 0.58169 0.24127 0.0637 0.0
C857 C 0.5511 0.24821 0.07226 0.0
H858 H 0.47632 0.24775 0.07147 0.0
H859 H 0.4649 0.30959 0.06714 0.0
H860 H 0.68846 0.3169 0.98219 0.0
H861 H 0.62244 0.23511 0.0214 0.0
H862 H 0.60048 0.25841 0.0538 0.0
H863 H 0.52583 0.22057 0.07917 0.0
Mn864 Mn 0.49872 0.80561 0.84515 0.0
Mn865 Mn 0.54855 0.75873 0.86535 0.0
C866 C 0.48432 0.73508 0.83724 0.0
C867 C 0.43784 0.81409 0.84246 0.0
C868 C 0.59409 0.83906 0.84301 0.0
O869 O 0.51891 0.83842 0.86883 0.0
O870 O 0.53907 0.79499 0.88239 0.0
C871 C 0.48339 0.69974 0.89023 0.0
N872 N 0.51208 0.70691 0.87733 0.0
C873 C 0.50429 0.6362 0.88067 0.0
C874 C 0.4781 0.62973 0.89495 0.0
C875 C 0.46371 0.65929 0.89844 0.0
C876 C 0.52048 0.67556 0.87197 0.0
H877 H 0.4744 0.72385 0.89353 0.0
C878 C 0.53241 0.82744 0.88244 0.0
O879 O 0.47477 0.84302 0.83586 0.0
O880 O 0.43766 0.78308 0.85118 0.0
N881 N 0.55849 0.72252 0.84965 0.0
C882 C 0.57767 0.73155 0.83375 0.0
C883 C 0.58307 0.69962 0.82509 0.0
C884 C 0.56939 0.65911 0.83301 0.0
C885 C 0.54948 0.65056 0.84932 0.0
C886 C 0.54383 0.68318 0.85699 0.0
H887 H 0.5881 0.76258 0.82767 0.0
O888 O 0.4776 0.75883 0.82624 0.0
O889 O 0.50142 0.75461 0.85159 0.0
O890 O 0.56148 0.83866 0.83596 0.0
O891 O 0.59039 0.81085 0.85394 0.0
C892 C 0.53429 0.61077 0.85816 0.0
C893 C 0.5124 0.60393 0.87408 0.0
H894 H 0.46681 0.60051 0.90222 0.0
H895 H 0.43541 0.64938 0.9064 0.0
H896 H 0.59791 0.70627 0.81238 0.0
H897 H 0.57382 0.63467 0.82638 0.0
H898 H 0.53872 0.58508 0.85274 0.0
H899 H 0.50017 0.57307 0.8807 0.0
Mn900 Mn 0.18587 0.69323 0.84731 0.0
Mn901 Mn 0.22504 0.79022 0.86721 0.0
C902 C 0.25621 0.74956 0.84143 0.0
C903 C 0.18448 0.62697 0.84499 0.0
C904 C 0.15371 0.75442 0.84 0.0
O905 O 0.14629 0.6799 0.86857 0.0
O906 O 0.1831 0.74399 0.88299 0.0
C907 C 0.2729 0.7877 0.89801 0.0
N908 N 0.27275 0.8058 0.88251 0.0
C909 C 0.34575 0.86512 0.88706 0.0
C910 C 0.34659 0.84714 0.90308 0.0
C911 C 0.31016 0.80817 0.90843 0.0
C912 C 0.30767 0.84345 0.87718 0.0
H913 H 0.24472 0.75809 0.9024 0.0
C914 C 0.15318 0.7038 0.88209 0.0
O915 O 0.15595 0.63307 0.83682 0.0
O916 O 0.20771 0.65607 0.85641 0.0
N917 N 0.26668 0.83606 0.85271 0.0
C918 C 0.26245 0.84579 0.83604 0.0
C919 C 0.29704 0.88208 0.82798 0.0
C920 C 0.33594 0.90766 0.8371 0.0
C921 C 0.34027 0.89585 0.854 0.0
C922 C 0.30467 0.85913 0.86126 0.0
H923 H 0.23342 0.82521 0.82886 0.0
O924 O 0.23539 0.71861 0.83032 0.0
O925 O 0.23423 0.74756 0.85515 0.0
O926 O 0.15584 0.72154 0.83489 0.0
O927 O 0.17713 0.77963 0.85208 0.0
C928 C 0.3788 0.91842 0.86377 0.0
C929 C 0.38143 0.90323 0.88037 0.0
H930 H 0.37522 0.86253 0.91125 0.0
H931 H 0.31069 0.79437 0.92064 0.0
H932 H 0.29385 0.89006 0.81473 0.0
H933 H 0.36262 0.93562 0.83085 0.0
H934 H 0.40676 0.94716 0.85857 0.0
H935 H 0.41132 0.92058 0.88772 0.0
Mn936 Mn 0.30075 0.48928 0.84538 0.0
Mn937 Mn 0.20967 0.44513 0.86967 0.0
C938 C 0.24374 0.50254 0.8387 0.0
C939 C 0.36916 0.5512 0.84037 0.0
C940 C 0.23569 0.39444 0.84545 0.0
O941 O 0.31801 0.4724 0.86884 0.0
O942 O 0.25863 0.45545 0.88501 0.0
C943 C 0.23158 0.52222 0.89096 0.0
N944 N 0.20308 0.48995 0.88031 0.0
C945 C 0.15884 0.52339 0.87754 0.0
C946 C 0.18959 0.55855 0.88738 0.0
C947 C 0.22563 0.5577 0.89441 0.0
C948 C 0.16777 0.49015 0.87379 0.0
H949 H 0.26021 0.52233 0.89579 0.0
C950 C 0.29724 0.46157 0.88341 0.0
O951 O 0.36157 0.51381 0.83436 0.0
O952 O 0.33853 0.55053 0.84943 0.0
N953 N 0.15964 0.43358 0.85623 0.0
C954 C 0.13921 0.40319 0.84367 0.0
C955 C 0.10142 0.39854 0.83584 0.0
C956 C 0.08494 0.42541 0.84107 0.0
C957 C 0.10671 0.45674 0.85397 0.0
C958 C 0.14378 0.45914 0.86152 0.0
H959 H 0.15178 0.38281 0.83973 0.0
O960 O 0.27189 0.50711 0.82693 0.0
O961 O 0.24869 0.48728 0.85313 0.0
O962 O 0.26793 0.42616 0.83799 0.0
O963 O 0.21474 0.39843 0.85819 0.0
C964 C 0.09451 0.48724 0.85898 0.0
C965 C 0.1214 0.52141 0.87026 0.0
H966 H 0.18729 0.5874 0.88884 0.0
H967 H 0.24933 0.58482 0.90204 0.0
H968 H 0.08529 0.37459 0.82574 0.0
H969 H 0.05628 0.42247 0.83479 0.0
H970 H 0.06616 0.48645 0.85333 0.0
H971 H 0.11339 0.54644 0.87274 0.0
Mn972 Mn 0.47691 0.83862 0.99075 0.0
Mn973 Mn 0.42057 0.86987 0.96522 0.0
C974 C 0.40651 0.82302 0.99837 0.0
C975 C 0.48844 0.781 0.99928 0.0
C976 C 0.49957 0.9317 0.98658 0.0
O977 O 0.50837 0.8529 0.96656 0.0
O978 O 0.45706 0.85606 0.95014 0.0
C979 C 0.36225 0.7857 0.94819 0.0
N980 N 0.36768 0.82101 0.95725 0.0
C981 C 0.2902 0.7911 0.95967 0.0
C982 C 0.28375 0.75385 0.95077 0.0
C983 C 0.31998 0.75085 0.94525 0.0
C984 C 0.33308 0.82359 0.96311 0.0
H985 H 0.39007 0.78349 0.94387 0.0
C986 C 0.4928 0.8556 0.95169 0.0
O987 O 0.51691 0.82091 0.00327 0.0
O988 O 0.45795 0.77623 0.98899 0.0
N989 N 0.38364 0.88397 0.9786 0.0
C990 C 0.39472 0.91606 0.99056 0.0
C991 C 0.36247 0.92305 0.99784 0.0
C992 C 0.31887 0.89654 0.99291 0.0
C993 C 0.30792 0.86273 0.98099 0.0
C994 C 0.34167 0.85777 0.974 0.0
H995 H 0.42768 0.93566 0.99476 0.0
O996 O 0.43244 0.8224 0.01005 0.0
O997 O 0.42384 0.83463 0.9833 0.0
O998 O 0.50284 0.90342 0.99568 0.0
O999 O 0.47375 0.92165 0.97359 0.0
C1000 C 0.26468 0.83253 0.97639 0.0
C1001 C 0.25577 0.79633 0.96596 0.0
H1002 H 0.2512 0.7273 0.94816 0.0
H1003 H 0.31528 0.72216 0.93843 0.0
H1004 H 0.37118 0.94846 0.00739 0.0
H1005 H 0.29393 0.90152 0.99876 0.0
H1006 H 0.23791 0.8356 0.98153 0.0
H1007 H 0.22228 0.77206 0.96327 0.0
Mn1008 Mn 0.15906 0.63986 0.98828 0.0
Mn1009 Mn 0.10453 0.54976 0.96595 0.0
C1010 C 0.1719 0.58257 0.99365 0.0
C1011 C 0.22433 0.70414 0.99311 0.0
C1012 C 0.06457 0.58374 0.98945 0.0
O1013 O 0.14127 0.65771 0.96533 0.0
O1014 O 0.12557 0.59767 0.94899 0.0
C1015 C 0.14685 0.5271 0.93838 0.0
N1016 N 0.12967 0.51944 0.95464 0.0
C1017 C 0.12478 0.44907 0.95514 0.0
C1018 C 0.14425 0.45734 0.93878 0.0
C1019 C 0.15471 0.49622 0.93028 0.0
C1020 C 0.11651 0.48055 0.96237 0.0
H1021 H 0.15295 0.55579 0.9314 0.0
C1022 C 0.13466 0.63783 0.95059 0.0
O1023 O 0.18866 0.69843 1.00027 0.0
O1024 O 0.21983 0.67638 0.98135 0.0
N1025 N 0.08698 0.50465 0.98357 0.0
C1026 C 0.0801 0.50631 1.0009 0.0
C1027 C 0.07042 0.47067 0.01165 0.0
C1028 C 0.07106 0.4345 0.00484 0.0
C1029 C 0.08514 0.43617 0.9878 0.0
C1030 C 0.09444 0.47292 0.97777 0.0
H1031 H 0.08498 0.53553 0.00693 0.0
O1032 O 0.17839 0.61084 0.0056 0.0
O1033 O 0.15529 0.58733 0.97951 0.0
O1034 O 0.09662 0.6083 0.99908 0.0
O1035 O 0.07294 0.57795 0.97434 0.0
C1036 C 0.09328 0.40425 0.98083 0.0
C1037 C 0.11253 0.41042 0.96437 0.0
H1038 H 0.1506 0.43375 0.93249 0.0
H1039 H 0.16779 0.50175 0.91736 0.0
H1040 H 0.06394 0.47179 0.02529 0.0
H1041 H 0.06407 0.4072 0.01319 0.0
H1042 H 0.08577 0.37532 0.98819 0.0
H1043 H 0.1186 0.38565 0.95908 0.0
Mn1044 Mn 0.36063 0.53101 0.98964 0.0
Mn1045 Mn 0.45779 0.57279 0.96982 0.0
C1046 C 0.41796 0.59993 0.99852 0.0
C1047 C 0.29247 0.52312 0.99223 0.0
C1048 C 0.42356 0.49839 0.99514 0.0
O1049 O 0.3448 0.49667 0.96627 0.0
O1050 O 0.41041 0.5329 0.95385 0.0
C1051 C 0.44956 0.63139 0.94474 0.0
N1052 N 0.47374 0.62191 0.95554 0.0
C1053 C 0.53929 0.68801 0.94816 0.0
C1054 C 0.5157 0.69631 0.93569 0.0
C1055 C 0.47005 0.67132 0.93601 0.0
C1056 C 0.51615 0.65101 0.95846 0.0
H1057 H 0.41461 0.61059 0.94422 0.0
C1058 C 0.36965 0.50502 0.95301 0.0
O1059 O 0.30044 0.49428 0.99891 0.0
O1060 O 0.3231 0.55472 0.98342 0.0
N1061 N 0.50657 0.61178 0.98357 0.0
C1062 C 0.51735 0.60771 1.00008 0.0
C1063 C 0.55807 0.6389 0.00669 0.0
C1064 C 0.58713 0.67386 0.99619 0.0
C1065 C 0.57448 0.67812 0.97941 0.0
C1066 C 0.53339 0.64616 0.97367 0.0
H1067 H 0.49468 0.58133 0.00812 0.0
O1068 O 0.38582 0.57571 0.00875 0.0
O1069 O 0.41629 0.5822 0.9835 0.0
O1070 O 0.38889 0.49763 0.99984 0.0
O1071 O 0.44896 0.52386 0.98369 0.0
C1072 C 0.6 0.71377 0.96846 0.0
C1073 C 0.5825 0.71855 0.95272 0.0
H1074 H 0.53133 0.72515 0.9277 0.0
H1075 H 0.45087 0.68355 0.92995 0.0
H1076 H 0.56701 0.63606 0.01982 0.0
H1077 H 0.61843 0.69797 0.00134 0.0
H1078 H 0.63222 0.73879 0.97241 0.0
H1079 H 0.60119 0.74758 0.94499 0.0
Mn1080 Mn 0.14251 0.52403 0.48843 0.0
Mn1081 Mn 0.21714 0.59358 0.46262 0.0
C1082 C 0.17599 0.59677 0.50003 0.0
C1083 C 0.06901 0.49634 0.4898 0.0
C1084 C 0.22031 0.51433 0.48445 0.0
O1085 O 0.1369 0.49602 0.46403 0.0
O1086 O 0.15985 0.55894 0.45079 0.0
C1087 C 0.21631 0.68574 0.43841 0.0
N1088 N 0.24 0.67142 0.44676 0.0
C1089 C 0.312 0.74067 0.43822 0.0
C1090 C 0.28396 0.74881 0.42794 0.0
C1091 C 0.23819 0.7255 0.42964 0.0
C1092 C 0.2889 0.70109 0.44877 0.0
H1093 H 0.18117 0.66632 0.43818 0.0
C1094 C 0.14129 0.51737 0.45009 0.0
O1095 O 0.08549 0.47339 0.49587 0.0
O1096 O 0.09441 0.53212 0.48204 0.0
N1097 N 0.28914 0.63051 0.47058 0.0
C1098 C 0.2997 0.61227 0.48766 0.0
C1099 C 0.37489 0.67011 0.509 0.0
C1100 C 0.40915 0.7525 0.49085 0.0
C1101 C 0.38339 0.7559 0.4699 0.0
C1102 C 0.31627 0.68974 0.46197 0.0
H1103 H 0.27447 0.58171 0.49162 0.0
O1104 O 0.15131 0.56363 0.50961 0.0
O1105 O 0.18482 0.58463 0.48529 0.0
O1106 O 0.19082 0.50926 0.49541 0.0
O1107 O 0.22322 0.53699 0.47022 0.0
C1108 C 0.39264 0.78948 0.45416 0.0
C1109 C 0.35888 0.77901 0.43942 0.0
H1110 H 0.29787 0.7781 0.42031 0.0
H1111 H 0.2193 0.73748 0.42307 0.0
H1112 H 0.38616 0.66444 0.52179 0.0
H1113 H 0.42939 0.77879 0.49875 0.0
H1114 H 0.38962 0.7694 0.46542 0.0
H1115 H 0.39016 0.79789 0.44497 0.0
Mn1116 Mn 0.4744 0.62927 0.48529 0.0
Mn1117 Mn 0.44097 0.62529 0.46927 0.0
C1118 C 0.40153 0.55628 0.4972 0.0
C1119 C 0.49599 0.57452 0.49049 0.0
C1120 C 0.50242 0.72178 0.47668 0.0
O1121 O 0.52081 0.64896 0.46407 0.0
O1122 O 0.46485 0.60261 0.45122 0.0
C1123 C 0.33507 0.54532 0.44238 0.0
N1124 N 0.35873 0.58464 0.44989 0.0
C1125 C 0.2906 0.59911 0.44369 0.0
C1126 C 0.27271 0.55854 0.43546 0.0
C1127 C 0.29169 0.5314 0.43672 0.0
C1128 C 0.33341 0.6075 0.45281 0.0
H1129 H 0.34796 0.52349 0.44173 0.0
C1130 C 0.50499 0.62776 0.45011 0.0
O1131 O 0.51338 0.61063 0.49884 0.0
O1132 O 0.46685 0.57006 0.47981 0.0
N1133 N 0.41359 0.67515 0.48179 0.0
C1134 C 0.43759 0.71492 0.5004 0.0
C1135 C 0.38522 0.73139 0.51805 0.0
C1136 C 0.31599 0.7011 0.51545 0.0
C1137 C 0.2753 0.65707 0.49142 0.0
C1138 C 0.34888 0.63807 0.46785 0.0
H1139 H 0.46712 0.72266 0.50704 0.0
O1140 O 0.4221 0.59395 0.5051 0.0
O1141 O 0.42228 0.56439 0.48239 0.0
O1142 O 0.50217 0.69954 0.49024 0.0
O1143 O 0.4871 0.69559 0.46355 0.0
C1144 C 0.24272 0.64933 0.47294 0.0
C1145 C 0.25935 0.62165 0.44625 0.0
H1146 H 0.24024 0.54442 0.43012 0.0
H1147 H 0.27127 0.49771 0.4334 0.0
H1148 H 0.39902 0.75196 0.52932 0.0
H1149 H 0.30149 0.71124 0.52504 0.0
H1150 H 0.21792 0.65783 0.47367 0.0
H1151 H 0.23489 0.60961 0.43601 0.0
Mn1152 Mn 0.3686 0.85609 0.49034 0.0
Mn1153 Mn 0.33008 0.75275 0.46695 0.0
C1154 C 0.42536 0.83695 0.48629 0.0
C1155 C 0.41361 0.93187 0.49087 0.0
C1156 C 0.28307 0.76784 0.49641 0.0
O1157 O 0.32663 0.85704 0.4717 0.0
O1158 O 0.31726 0.79994 0.4559 0.0
C1159 C 0.37896 0.71799 0.42821 0.0
N1160 N 0.37465 0.72023 0.44577 0.0
C1161 C 0.41754 0.687 0.45032 0.0
C1162 C 0.43246 0.6985 0.4332 0.0
C1163 C 0.4099 0.70965 0.42201 0.0
C1164 C 0.39338 0.70444 0.45883 0.0
H1165 H 0.3608 0.72516 0.41885 0.0
C1166 C 0.31659 0.83539 0.45747 0.0
O1167 O 0.38116 0.91297 0.50165 0.0
O1168 O 0.41472 0.90805 0.47879 0.0
N1169 N 0.33602 0.71751 0.48866 0.0
C1170 C 0.34333 0.68788 0.49075 0.0
C1171 C 0.30691 0.63247 0.51431 0.0
C1172 C 0.32772 0.59689 0.51195 0.0
C1173 C 0.36151 0.61574 0.49311 0.0
C1174 C 0.35943 0.68717 0.48417 0.0
H1175 H 0.33248 0.72275 0.48994 0.0
O1176 O 0.42414 0.85645 0.50026 0.0
O1177 O 0.38398 0.81753 0.47985 0.0
O1178 O 0.31493 0.80191 0.50394 0.0
O1179 O 0.28633 0.75817 0.48082 0.0
C1180 C 0.38435 0.60483 0.47719 0.0
C1181 C 0.41412 0.64746 0.45606 0.0
H1182 H 0.45498 0.68965 0.42754 0.0
H1183 H 0.41462 0.70941 0.40846 0.0
H1184 H 0.28223 0.62691 0.52398 0.0
H1185 H 0.34822 0.59794 0.50206 0.0
H1186 H 0.36882 0.57167 0.47519 0.0
H1187 H 0.42738 0.63585 0.44593 0.0
Mn1188 Mn 0.17276 0.47687 0.34611 0.0
Mn1189 Mn 0.22915 0.56525 0.37102 0.0
C1190 C 0.25127 0.51574 0.34122 0.0
C1191 C 0.15696 0.40389 0.3448 0.0
C1192 C 0.1717 0.56236 0.3416 0.0
O1193 O 0.12791 0.46316 0.36607 0.0
O1194 O 0.17426 0.52067 0.38077 0.0
C1195 C 0.25167 0.49851 0.3974 0.0
N1196 N 0.26845 0.54103 0.39351 0.0
C1197 C 0.34287 0.5571 0.40212 0.0
C1198 C 0.32368 0.51196 0.40497 0.0
C1199 C 0.27906 0.4834 0.40283 0.0
C1200 C 0.31773 0.57485 0.39605 0.0
H1201 H 0.21798 0.47568 0.39453 0.0
C1202 C 0.1385 0.48604 0.37979 0.0
O1203 O 0.13602 0.41725 0.33512 0.0
O1204 O 0.18232 0.43137 0.35583 0.0
N1205 N 0.31759 0.64595 0.36359 0.0
C1206 C 0.2744 0.63621 0.35588 0.0
C1207 C 0.31412 0.6476 0.36064 0.0
C1208 C 0.35892 0.6223 0.37306 0.0
C1209 C 0.3905 0.64372 0.38677 0.0
C1210 C 0.34791 0.62757 0.38282 0.0
H1211 H 0.25426 0.64776 0.36316 0.0
O1212 O 0.22377 0.49191 0.32963 0.0
O1213 O 0.23039 0.52011 0.35455 0.0
O1214 O 0.16035 0.52442 0.33513 0.0
O1215 O 0.19575 0.57802 0.35478 0.0
C1216 C 0.40918 0.62523 0.39725 0.0
C1217 C 0.38759 0.58308 0.40346 0.0
H1218 H 0.34364 0.49827 0.40896 0.0
H1219 H 0.26576 0.44896 0.40518 0.0
H1220 H 0.27854 0.62902 0.34552 0.0
H1221 H 0.36596 0.5968 0.36471 0.0
H1222 H 0.44308 0.64546 0.40066 0.0
H1223 H 0.40661 0.57071 0.40969 0.0
Mn1224 Mn 0.50293 0.69325 0.34676 0.0
Mn1225 Mn 0.4715 0.68768 0.36148 0.0
C1226 C 0.49346 0.76388 0.33984 0.0
C1227 C 0.57851 0.75282 0.34377 0.0
C1228 C 0.43586 0.60236 0.34921 0.0
O1229 O 0.52799 0.66065 0.36334 0.0
O1230 O 0.5141 0.69668 0.37992 0.0
C1231 C 0.48795 0.75148 0.39008 0.0
N1232 N 0.45721 0.71983 0.37925 0.0
C1233 C 0.41883 0.7662 0.38153 0.0
C1234 C 0.45013 0.79307 0.39326 0.0
C1235 C 0.48385 0.78554 0.3974 0.0
C1236 C 0.42121 0.72148 0.37573 0.0
H1237 H 0.51898 0.75421 0.39272 0.0
C1238 C 0.53047 0.67346 0.37873 0.0
O1239 O 0.56071 0.72043 0.33338 0.0
O1240 O 0.55263 0.75145 0.35543 0.0
N1241 N 0.41756 0.66883 0.34785 0.0
C1242 C 0.40728 0.65345 0.32707 0.0
C1243 C 0.3638 0.65491 0.31502 0.0
C1244 C 0.32936 0.67459 0.32304 0.0
C1245 C 0.33689 0.70288 0.34301 0.0
C1246 C 0.39182 0.68637 0.35986 0.0
H1247 H 0.42027 0.66209 0.33973 0.0
O1248 O 0.48495 0.73206 0.32954 0.0
O1249 O 0.50372 0.75242 0.35417 0.0
O1250 O 0.46213 0.62842 0.33746 0.0
O1251 O 0.44005 0.62136 0.36415 0.0
C1252 C 0.34131 0.75225 0.3531 0.0
C1253 C 0.38555 0.78322 0.3726 0.0
H1254 H 0.45062 0.8219 0.39817 0.0
H1255 H 0.50979 0.80891 0.40559 0.0
H1256 H 0.35848 0.64304 0.30184 0.0
H1257 H 0.30889 0.67698 0.31342 0.0
H1258 H 0.33287 0.72461 0.34491 0.0
H1259 H 0.38716 0.80685 0.38204 0.0
Mn1260 Mn 0.28446 0.8082 0.34996 0.0
Mn1261 Mn 0.31946 0.75791 0.37751 0.0
C1262 C 0.25462 0.73231 0.34378 0.0
C1263 C 0.22916 0.82457 0.34732 0.0
C1264 C 0.37677 0.83621 0.34653 0.0
O1265 O 0.31006 0.84892 0.37189 0.0
O1266 O 0.29947 0.7944 0.38948 0.0
C1267 C 0.23504 0.70609 0.3917 0.0
N1268 N 0.27473 0.70819 0.39067 0.0
C1269 C 0.23977 0.63456 0.40207 0.0
C1270 C 0.20072 0.63428 0.40417 0.0
C1271 C 0.19808 0.66982 0.39838 0.0
C1272 C 0.2778 0.67302 0.39627 0.0
H1273 H 0.23086 0.73238 0.38705 0.0
C1274 C 0.30675 0.83303 0.38716 0.0
O1275 O 0.2652 0.84698 0.33876 0.0
O1276 O 0.22727 0.79639 0.35819 0.0
N1277 N 0.35027 0.71296 0.37345 0.0
C1278 C 0.40199 0.74754 0.35189 0.0
C1279 C 0.39867 0.71147 0.33432 0.0
C1280 C 0.34207 0.62273 0.34274 0.0
C1281 C 0.28671 0.58257 0.36977 0.0
C1282 C 0.30874 0.66242 0.38793 0.0
H1283 H 0.41554 0.77745 0.34809 0.0
O1284 O 0.25557 0.76047 0.33298 0.0
O1285 O 0.27194 0.74868 0.35912 0.0
O1286 O 0.34544 0.8284 0.33651 0.0
O1287 O 0.36115 0.82598 0.36223 0.0
C1288 C 0.27267 0.60605 0.38672 0.0
C1289 C 0.23888 0.59543 0.39905 0.0
H1290 H 0.17132 0.60506 0.40814 0.0
H1291 H 0.16732 0.66931 0.39887 0.0
H1292 H 0.41558 0.72634 0.32226 0.0
H1293 H 0.33246 0.5981 0.33349 0.0
H1294 H 0.27953 0.58836 0.37672 0.0
H1295 H 0.21232 0.56415 0.40265 0.0
C1296 C 0.03861 0.14477 0.16351 0.0
C1297 C 0.05694 0.13903 0.17898 0.0
C1298 C 0.98538 0.09593 0.19153 0.0
C1299 C 0.96598 0.10394 0.17684 0.0
N1300 N 0.97471 0.13881 0.14914 0.0
N1301 N 0.04989 0.12121 0.20916 0.0
C1302 C 0.99289 0.12965 0.16294 0.0
C1303 C 0.0307 0.11961 0.19357 0.0
N1304 N 0.06397 0.16189 0.14913 0.0
N1305 N 0.96133 0.06312 0.20286 0.0
H1306 H 0.08302 0.14242 0.21134 0.0
H1307 H 0.03329 0.10411 0.22016 0.0
H1308 H 0.92806 0.04433 0.20218 0.0
H1309 H 0.97476 0.05175 0.21204 0.0
H1310 H 0.05163 0.1619 0.13689 0.0
H1311 H 0.09751 0.17459 0.14924 0.0
H1312 H 0.99282 0.16073 0.1394 0.0
H1313 H 0.9413 0.12678 0.14805 0.0
C1314 C 0.83933 0.88754 0.16225 0.0
C1315 C 0.86443 0.92857 0.1706 0.0
C1316 C 0.91881 0.90997 0.17875 0.0
C1317 C 0.89555 0.86927 0.17016 0.0
N1318 N 0.8407 0.82562 0.14909 0.0
N1319 N 0.93954 0.98455 0.17508 0.0
C1320 C 0.8582 0.86017 0.16019 0.0
C1321 C 0.90794 0.94172 0.17502 0.0
N1322 N 0.79796 0.87404 0.1568 0.0
N1323 N 0.9506 0.91913 0.19071 0.0
H1324 H 0.93399 0.00869 0.1702 0.0
H1325 H 0.97221 0.99472 0.17751 0.0
H1326 H 0.95785 0.89646 0.19576 0.0
H1327 H 0.96564 0.94847 0.19754 0.0
H1328 H 0.7774 0.84291 0.15197 0.0
H1329 H 0.78318 0.89288 0.15804 0.0
H1330 H 0.81569 0.81954 0.14048 0.0
H1331 H 0.85352 0.80493 0.14771 0.0
C1332 C 0.12245 -0.00026 0.15291 0.0
C1333 C 0.12957 0.0201 0.16947 0.0
C1334 C 0.09798 0.94922 0.18309 0.0
C1335 C 0.08227 0.92837 0.1672 0.0
N1336 N 0.07455 0.93415 0.13651 0.0
N1337 N 0.09437 0.00534 0.1977 0.0
C1338 C 0.09368 0.95358 0.15178 0.0
C1339 C 0.10992 0.99301 0.18405 0.0
N1340 N 0.14172 0.02386 0.13846 0.0
N1341 N 0.0892 0.92478 0.19771 0.0
H1342 H 0.09489 0.03494 0.19845 0.0
H1343 H 0.09489 0.03494 0.19845 0.0
H1344 H 0.0814 0.89221 0.19726 0.0
H1345 H 0.0868 0.93642 0.20973 0.0
H1346 H 0.13883 0.00994 0.12629 0.0
H1347 H 0.16358 0.05724 0.13897 0.0
H1348 H 0.07734 0.95163 0.12527 0.0
H1349 H 0.0541 0.9005 0.13557 0.0
C1350 C 0.12615 0.04428 0.31425 0.0
C1351 C 0.14985 0.06929 0.32873 0.0
C1352 C 0.13648 0.00143 0.34303 0.0
C1353 C 0.10674 0.97681 0.32957 0.0
N1354 N 0.06318 0.9779 0.30555 0.0
N1355 N 0.17789 0.072 0.35734 0.0
C1356 C 0.0987 -0.00092 0.31606 0.0
C1357 C 0.15582 0.04809 0.34322 0.0
N1358 N 0.1272 0.06511 0.29918 0.0
N1359 N 0.1457 0.98027 0.35563 0.0
H1360 H 0.19378 0.10589 0.35739 0.0
H1361 H 0.17935 0.05835 0.36908 0.0
H1362 H 0.1309 0.94641 0.35608 0.0
H1363 H 0.16983 0.99617 0.36493 0.0
H1364 H 0.10589 0.05086 0.28888 0.0
H1365 H 0.15134 0.09731 0.29683 0.0
H1366 H 0.05241 0.99383 0.29733 0.0
H1367 H 0.04207 0.94469 0.30591 0.0
C1368 C 0.96348 0.07711 0.316 0.0
C1369 C 0.93403 0.0764 0.32856 0.0
C1370 C -0.00231 0.13324 0.34482 0.0
C1371 C 0.02634 0.13131 0.33235 0.0
N1372 N 0.03403 0.08951 0.30898 0.0
N1373 N 0.92429 0.10052 0.35674 0.0
C1374 C 0.00849 0.09921 0.3191 0.0
C1375 C 0.95131 0.10375 0.34351 0.0
N1376 N 0.94815 0.05787 0.30028 0.0
N1377 N 0.01479 0.1633 0.35782 0.0
H1378 H 0.89067 0.0811 0.35617 0.0
H1379 H 0.93524 0.11544 0.36873 0.0
H1380 H 0.04823 0.18381 0.35941 0.0
H1381 H 0.99614 0.1699 0.36638 0.0
H1382 H 0.96566 0.05099 0.29126 0.0
H1383 H 0.91893 0.05384 0.29543 0.0
H1384 H 0.02222 0.05963 0.30275 0.0
H1385 H 0.06617 0.1111 0.30614 0.0
C1386 C 0.87943 0.88523 0.31476 0.0
C1387 C 0.86783 0.89731 0.3307 0.0
C1388 C 0.90823 0.86679 0.34584 0.0
C1389 C 0.91403 0.85107 0.32974 0.0
N1390 N 0.89639 0.83649 0.29966 0.0
N1391 N 0.87818 0.90409 0.3621 0.0
C1392 C 0.8944 0.8555 0.31475 0.0
C1393 C 0.88392 0.88917 0.34654 0.0
N1394 N 0.8832 0.90612 0.29951 0.0
N1395 N 0.92864 0.86288 0.36018 0.0
H1396 H 0.86788 0.92651 0.36367 0.0
H1397 H 0.88359 0.89399 0.37401 0.0
H1398 H 0.94388 0.84424 0.36019 0.0
H1399 H 0.93167 0.87858 0.37191 0.0
H1400 H 0.88161 0.93455 0.29826 0.0
H1401 H 0.88161 0.93455 0.29826 0.0
H1402 H 0.88554 0.84209 0.2879 0.0
H1403 H 0.90729 0.81404 0.29931 0.0
C1404 C 0.94558 0.86086 0.84425 0.0
C1405 C 0.92368 0.83721 0.8289 0.0
C1406 C -0.0024 0.85504 0.81766 0.0
C1407 C 0.01949 0.88696 0.83089 0.0
N1408 N 0.01258 0.91663 0.858 0.0
N1409 N 0.92987 0.80362 0.80298 0.0
C1410 C 0.99287 0.88786 0.84474 0.0
C1411 C 0.95031 0.83135 0.81643 0.0
N1412 N 0.92135 0.85674 0.85861 0.0
N1413 N 0.02215 0.84621 0.80653 0.0
H1414 H 0.89634 0.78232 0.80314 0.0
H1415 H 0.94547 0.80175 0.79188 0.0
H1416 H 0.05591 0.86138 0.80747 0.0
H1417 H 0.00937 0.82156 0.79731 0.0
H1418 H 0.93458 0.87022 0.87061 0.0
H1419 H 0.88811 0.83474 0.85926 0.0
H1420 H 0.99578 0.92325 0.86746 0.0
H1421 H 0.04621 0.93653 0.85892 0.0
C1422 C 0.1512 0.14746 0.82102 0.0
C1423 C 0.11958 0.13862 0.8341 0.0
C1424 C 0.15073 0.09728 0.84885 0.0
C1425 C 0.16381 0.08901 0.8325 0.0
N1426 N 0.19944 0.12664 0.80648 0.0
N1427 N 0.10161 0.11581 0.86403 0.0
C1428 C 0.17131 0.12074 0.81959 0.0
C1429 C 0.12436 0.11827 0.84942 0.0
N1430 N 0.16468 0.1837 0.81108 0.0
N1431 N 0.16117 0.08304 0.86347 0.0
H1432 H 0.08227 0.13008 0.86508 0.0
H1433 H 0.10019 0.09763 0.87485 0.0
H1434 H 0.18011 0.0681 0.86291 0.0
H1435 H 0.15498 0.08993 0.87592 0.0
H1436 H 0.19095 0.19544 0.8026 0.0
H1437 H 0.1521 0.20453 0.81277 0.0
H1438 H 0.2054 0.14724 0.79599 0.0
H1439 H 0.21845 0.11183 0.80679 0.0
C1440 C 0.87749 0.98548 0.85282 0.0
C1441 C 0.85248 0.96182 0.83812 0.0
C1442 C 0.87894 0.03201 0.8231 0.0
C1443 C 0.9156 0.05237 0.83441 0.0
N1444 N 0.93868 0.05407 0.86387 0.0
N1445 N 0.80628 0.96954 0.81755 0.0
C1446 C 0.91037 0.03144 0.85084 0.0
C1447 C 0.84452 0.98806 0.82644 0.0
N1448 N 0.87238 0.9636 0.86794 0.0
N1449 N 0.87793 0.054 0.80884 0.0
H1450 H 0.78246 0.93712 0.81965 0.0
H1451 H 0.79699 0.98711 0.80955 0.0
H1452 H 0.90239 0.08582 0.80642 0.0
H1453 H 0.85348 0.04072 0.79956 0.0
H1454 H 0.8892 0.97798 0.8793 0.0
H1455 H 0.84922 0.93074 0.86923 0.0
H1456 H 0.93888 0.041 0.87589 0.0
H1457 H 0.96206 0.08685 0.86259 0.0
C1458 C 0.841 0.99568 0.6798 0.0
C1459 C 0.87142 0.01953 0.66642 0.0
C1460 C 0.84748 0.94893 0.65162 0.0
C1461 C 0.83282 0.92741 0.66763 0.0
N1462 N 0.79385 0.92483 0.69333 0.0
N1463 N 0.8923 0.0181 0.63676 0.0
C1464 C 0.82141 0.94917 0.68032 0.0
C1465 C 0.87007 0.99598 0.65117 0.0
N1466 N 0.83232 0.01778 0.69217 0.0
N1467 N 0.83912 0.92435 0.63707 0.0
H1468 H 0.90833 0.05194 0.63601 0.0
H1469 H 0.89587 0.00292 0.62584 0.0
H1470 H 0.82261 0.89039 0.63778 0.0
H1471 H 0.84578 0.93736 0.62461 0.0
H1472 H 0.81099 0.00333 0.70247 0.0
H1473 H 0.84518 0.05129 0.69153 0.0
H1474 H 0.78485 0.93726 0.70372 0.0
H1475 H 0.77909 0.8909 0.69326 0.0
C1476 C 0.0472 0.8658 0.67444 0.0
C1477 C 0.06717 0.89575 0.6889 0.0
C1478 C 0.99281 0.84554 0.70328 0.0
C1479 C 0.96951 0.83274 0.68719 0.0
N1480 N 0.98095 0.80912 0.65934 0.0
N1481 N 0.05996 0.89034 0.71988 0.0
C1482 C -0.00073 0.83391 0.67372 0.0
C1483 C 0.04004 0.87819 0.7042 0.0
N1484 N 0.07412 0.86788 0.66141 0.0
N1485 N 0.97064 0.82214 0.71747 0.0
H1486 H 0.09372 0.90815 0.72101 0.0
H1487 H 0.04327 0.8827 0.73158 0.0
H1488 H 0.93794 0.79787 0.71651 0.0
H1489 H 0.98478 0.82444 0.72951 0.0
H1490 H 0.06422 0.84746 0.65067 0.0
H1491 H 0.1076 0.88943 0.66202 0.0
H1492 H -0.00219 0.81088 0.64808 0.0
H1493 H 0.94801 0.78558 0.65903 0.0
C1494 C 0.09685 0.15693 0.66037 0.0
C1495 C 0.08268 0.15915 0.67783 0.0
C1496 C 0.15295 0.16168 0.68696 0.0
C1497 C 0.15603 0.14221 0.67109 0.0
N1498 N 0.14511 0.14392 0.64078 0.0
N1499 N 0.11391 0.18781 0.70546 0.0
C1500 C 0.13309 0.14815 0.65714 0.0
C1501 C 0.11588 0.16848 0.69052 0.0
N1502 N 0.07536 0.16222 0.6468 0.0
N1503 N 0.18725 0.17627 0.69813 0.0
H1504 H 0.08928 0.19509 0.70761 0.0
H1505 H 0.13748 0.19935 0.71509 0.0
H1506 H 0.21557 0.17579 0.69485 0.0
H1507 H 0.18983 0.19213 0.70975 0.0
H1508 H 0.0814 0.1592 0.63385 0.0
H1509 H 0.0529 0.1726 0.64842 0.0
H1510 H 0.13057 0.14633 0.62948 0.0
H1511 H 0.1712 0.13862 0.63867 0.0
C1512 C 0.66455 0.4475 0.52075 0.0
C1513 C 0.6418 0.44502 0.50524 0.0
C1514 C 0.71111 0.47407 0.4895 0.0
C1515 C 0.73298 0.4815 0.50561 0.0
N1516 N 0.73202 0.488 0.53642 0.0
N1517 N 0.64508 0.46031 0.47454 0.0
C1518 C 0.7099 0.47442 0.52114 0.0
C1519 C 0.66567 0.46013 0.48946 0.0
N1520 N 0.64446 0.41953 0.5342 0.0
N1521 N 0.73281 0.4774 0.47446 0.0
H1522 H 0.61225 0.45133 0.47419 0.0
H1523 H 0.66142 0.47306 0.46291 0.0
H1524 H 0.76619 0.48878 0.47418 0.0
H1525 H 0.71736 0.46692 0.46252 0.0
H1526 H 0.66134 0.41773 0.54493 0.0
H1527 H 0.61261 0.39402 0.53364 0.0
H1528 H 0.71678 0.48054 0.54843 0.0
H1529 H 0.76574 0.50863 0.53679 0.0
C1530 C 0.51052 0.22861 0.49838 0.0
C1531 C 0.51984 0.25677 0.51286 0.0
C1532 C 0.57118 0.23647 0.5242 0.0
C1533 C 0.56159 0.2073 0.51021 0.0
N1534 N 0.52432 0.17578 0.48347 0.0
N1535 N 0.546 0.27518 0.54209 0.0
C1536 C 0.53162 0.2032 0.49712 0.0
C1537 C 0.54539 0.25572 0.5267 0.0
N1538 N 0.48207 0.22645 0.48598 0.0
N1539 N 0.60627 0.24743 0.53465 0.0
H1540 H 0.52238 0.28359 0.54506 0.0
H1541 H 0.56737 0.28051 0.55222 0.0
H1542 H 0.6257 0.23332 0.53363 0.0
H1543 H 0.61827 0.27293 0.54353 0.0
H1544 H 0.47612 0.20953 0.47439 0.0
H1545 H 0.46248 0.24029 0.48765 0.0
H1546 H 0.50204 0.16956 0.47361 0.0
H1547 H 0.54047 0.15812 0.48214 0.0
C1548 C 0.73017 0.27741 0.51393 0.0
C1549 C 0.7336 0.25498 0.4994 0.0
C1550 C 0.79643 0.32385 0.4892 0.0
C1551 C 0.78928 0.34671 0.50285 0.0
N1552 N 0.74012 0.3447 0.5252 0.0
N1553 N 0.76959 0.25578 0.47299 0.0
C1554 C 0.75366 0.32335 0.51437 0.0
C1555 C 0.76689 0.27789 0.48696 0.0
N1556 N 0.70449 0.25461 0.52765 0.0
N1557 N 0.83128 0.34617 0.47843 0.0
H1558 H 0.74924 0.22224 0.47162 0.0
H1559 H 0.7906 0.27042 0.46259 0.0
H1560 H 0.85257 0.37958 0.47962 0.0
H1561 H 0.84063 0.3316 0.46897 0.0
H1562 H 0.70146 0.26909 0.53888 0.0
H1563 H 0.68926 0.22093 0.52876 0.0
H1564 H 0.71015 0.32936 0.53153 0.0
H1565 H 0.75694 0.37798 0.52717 0.0
C1566 C 0.81087 0.3772 0.67553 0.0
C1567 C 0.80882 0.39835 0.66024 0.0
C1568 C 0.75926 0.32913 0.64701 0.0
C1569 C 0.76311 0.30677 0.66142 0.0
N1570 N 0.79503 0.3087 0.6892 0.0
N1571 N 0.7949 0.39434 0.62982 0.0
C1572 C 0.79003 0.33056 0.67566 0.0
C1573 C 0.78884 0.37365 0.64531 0.0
N1574 N 0.83076 0.40125 0.68992 0.0
N1575 N 0.72568 0.30863 0.63554 0.0
H1576 H 0.81948 0.42668 0.62816 0.0
H1577 H 0.7774 0.37922 0.61871 0.0
H1578 H 0.70197 0.27608 0.63666 0.0
H1579 H 0.71865 0.32499 0.62601 0.0
H1580 H 0.82957 0.38775 0.70202 0.0
H1581 H 0.84791 0.43516 0.68968 0.0
H1582 H 0.81699 0.32401 0.69928 0.0
H1583 H 0.77882 0.27477 0.68975 0.0
C1584 C 0.61458 0.39909 0.65539 0.0
C1585 C 0.59036 0.40271 0.66927 0.0
C1586 C 0.6578 0.46625 0.6801 0.0
C1587 C 0.68179 0.4606 0.66649 0.0
N1588 N 0.68279 0.41399 0.64361 0.0
N1589 N 0.58722 0.44099 0.69429 0.0
C1590 C 0.66009 0.42529 0.65476 0.0
C1591 C 0.61154 0.43684 0.68151 0.0
N1592 N 0.59387 0.37067 0.6422 0.0
N1593 N 0.6796 0.49908 0.69178 0.0
H1594 H 0.55368 0.42001 0.69523 0.0
H1595 H 0.59942 0.46515 0.70371 0.0
H1596 H 0.71299 0.52077 0.69091 0.0
H1597 H 0.66528 0.50521 0.70234 0.0
H1598 H 0.60863 0.37135 0.63044 0.0
H1599 H 0.56137 0.34731 0.64269 0.0
H1600 H 0.66977 0.38314 0.63808 0.0
H1601 H 0.71468 0.43426 0.63994 0.0
C1602 C 0.59678 0.2143 0.65339 0.0
C1603 C 0.59015 0.18757 0.66805 0.0
C1604 C 0.53175 0.20087 0.67795 0.0
C1605 C 0.5406 0.22933 0.6636 0.0
N1606 N 0.59147 0.27392 0.64145 0.0
N1607 N 0.55115 0.15352 0.69412 0.0
C1608 C 0.57596 0.23914 0.65244 0.0
C1609 C 0.55743 0.18022 0.68035 0.0
N1610 N 0.62247 0.21536 0.63997 0.0
N1611 N 0.49984 0.19491 0.68942 0.0
H1612 H 0.5692 0.13783 0.69566 0.0
H1613 H 0.52819 0.14625 0.70381 0.0
H1614 H 0.48127 0.21006 0.68794 0.0
H1615 H 0.4912 0.17506 0.70029 0.0
H1616 H 0.62817 0.234 0.62885 0.0
H1617 H 0.63459 0.19426 0.6388 0.0
H1618 H 0.62156 0.28716 0.63527 0.0
H1619 H 0.57587 0.29164 0.63936 0.0
C1620 C 0.64962 0.20047 0.17823 0.0
C1621 C 0.67621 0.21149 0.16284 0.0
C1622 C 0.60921 0.15748 0.14726 0.0
C1623 C 0.58247 0.16015 0.16038 0.0
N1624 N 0.57687 0.15544 0.19135 0.0
N1625 N 0.68085 0.16759 0.14043 0.0
C1626 C 0.60259 0.17083 0.17704 0.0
C1627 C 0.65608 0.18054 0.14925 0.0
N1628 N 0.66787 0.2201 0.19358 0.0
N1629 N 0.58942 0.12971 0.13379 0.0
H1630 H 0.71397 0.18099 0.14295 0.0
H1631 H 0.6678 0.14019 0.13251 0.0
H1632 H 0.60603 0.12515 0.12368 0.0
H1633 H 0.55579 0.10897 0.13346 0.0
H1634 H 0.6498 0.21644 0.20472 0.0
H1635 H 0.70095 0.24182 0.19504 0.0
H1636 H 0.58904 0.15964 0.2039 0.0
H1637 H 0.54332 0.13462 0.19023 0.0
C1638 C 0.82769 0.44331 0.17901 0.0
C1639 C 0.83286 0.43059 0.16157 0.0
C1640 C 0.83222 0.50076 0.15314 0.0
C1641 C 0.80824 0.50069 0.16829 0.0
N1642 N 0.80191 0.48212 0.19835 0.0
N1643 N 0.86106 0.46432 0.13419 0.0
C1644 C 0.81382 0.47643 0.18222 0.0
C1645 C 0.84211 0.46522 0.14942 0.0
N1646 N 0.8343 0.42269 0.19253 0.0
N1647 N 0.84694 0.53596 0.14254 0.0
H1648 H 0.8692 0.44035 0.13166 0.0
H1649 H 0.86928 0.487 0.12432 0.0
H1650 H 0.84109 0.5614 0.14538 0.0
H1651 H 0.86805 0.54204 0.13221 0.0
H1652 H 0.8333 0.43039 0.20546 0.0
H1653 H 0.8451 0.40056 0.19062 0.0
H1654 H 0.79969 0.46338 0.20907 0.0
H1655 H 0.79334 0.50587 0.20072 0.0
C1656 C 0.51895 0.32981 0.14932 0.0
C1657 C 0.51272 0.29948 0.16283 0.0
C1658 C 0.56337 0.36751 0.1806 0.0
C1659 C 0.57811 0.39601 0.16578 0.0
N1660 N 0.55698 0.40441 0.13725 0.0
N1661 N 0.5092 0.2987 0.19425 0.0
C1662 C 0.55143 0.37696 0.1506 0.0
C1663 C 0.52749 0.3216 0.17948 0.0
N1664 N 0.48929 0.31427 0.13627 0.0
N1665 N 0.58524 0.38339 0.19578 0.0
H1666 H 0.48279 0.26717 0.19405 0.0
H1667 H 0.51632 0.31281 0.20652 0.0
H1668 H 0.60975 0.41583 0.19708 0.0
H1669 H 0.58096 0.364 0.20656 0.0
H1670 H 0.48423 0.33422 0.12787 0.0
H1671 H 0.4658 0.28131 0.13544 0.0
H1672 H 0.53993 0.39463 0.12566 0.0
H1673 H 0.57868 0.43783 0.13804 0.0
C1674 C 0.53796 0.3264 0.98751 0.0
C1675 C 0.54381 0.35064 0.00319 0.0
C1676 C 0.48223 0.28384 0.01574 0.0
C1677 C 0.48742 0.25841 0.00282 0.0
N1678 N 0.49755 0.25598 0.97241 0.0
N1679 N 0.5028 0.35571 0.02705 0.0
C1680 C 0.50664 0.28021 0.98711 0.0
C1681 C 0.50988 0.33038 0.01576 0.0
N1682 N 0.56325 0.34655 0.97339 0.0
N1683 N 0.45238 0.26243 0.02846 0.0
H1684 H 0.52216 0.3894 0.0273 0.0
H1685 H 0.47568 0.34395 0.03507 0.0
H1686 H 0.43259 0.22859 0.02816 0.0
H1687 H 0.44649 0.27746 0.03881 0.0
H1688 H 0.56299 0.33032 0.96213 0.0
H1689 H 0.58627 0.37954 0.97313 0.0
H1690 H 0.50872 0.26898 0.96015 0.0
H1691 H 0.47527 0.2226 0.97259 0.0
C1692 C 0.70884 0.19988 0.01797 0.0
C1693 C 0.73627 0.2317 0.00514 0.0
C1694 C 0.66577 0.19599 0.98683 0.0
C1695 C 0.63753 0.17971 0.00208 0.0
N1696 N 0.63644 0.13875 0.02665 0.0
N1697 N 0.73984 0.24165 0.97423 0.0
C1698 C 0.66055 0.17352 0.01616 0.0
C1699 C 0.71448 0.22247 0.98838 0.0
N1700 N 0.72947 0.19399 0.03167 0.0
N1701 N 0.64625 0.18734 0.97099 0.0
H1702 H 0.77372 0.25801 0.97509 0.0
H1703 H 0.72793 0.24101 0.96187 0.0
H1704 H 0.61256 0.16897 0.96966 0.0
H1705 H 0.66297 0.19573 0.95929 0.0
H1706 H 0.71386 0.17191 0.04163 0.0
H1707 H 0.76337 0.21021 0.03237 0.0
H1708 H 0.6496 0.12734 0.0359 0.0
H1709 H 0.60281 0.11932 0.02502 0.0
C1710 C 0.80627 0.47519 0.99504 0.0
C1711 C 0.81775 0.45719 0.00964 0.0
C1712 C 0.78621 0.49406 0.02755 0.0
C1713 C 0.75609 0.4894 0.01421 0.0
N1714 N 0.75671 0.4989 0.98315 0.0
N1715 N 0.84495 0.48143 0.03799 0.0
C1716 C 0.77302 0.4886 0.99719 0.0
C1717 C 0.81576 0.47657 0.02551 0.0
N1718 N 0.82363 0.47572 0.97923 0.0
N1719 N 0.79146 0.52165 0.04072 0.0
H1720 H 0.86688 0.47021 0.03612 0.0
H1721 H 0.84877 0.4978 0.04959 0.0
H1722 H 0.77321 0.53724 0.0411 0.0
H1723 H 0.81776 0.53443 0.04918 0.0
H1724 H 0.8178 0.48848 0.96809 0.0
H1725 H 0.84731 0.46679 0.97769 0.0
H1726 H 0.76313 0.49451 0.97039 0.0
H1727 H 0.7371 0.51288 0.98437 0.0
C1728 C 0.32799 0.77694 0.85656 0.0
C1729 C 0.30459 0.77416 0.84123 0.0
C1730 C 0.374 0.80752 0.82531 0.0
C1731 C 0.39651 0.81473 0.84131 0.0
N1732 N 0.39467 0.8154 0.87242 0.0
N1733 N 0.30699 0.79265 0.81092 0.0
C1734 C 0.3731 0.80445 0.85696 0.0
C1735 C 0.32815 0.79165 0.82554 0.0
N1736 N 0.30956 0.75049 0.87051 0.0
N1737 N 0.39541 0.8124 0.81005 0.0
H1738 H 0.27378 0.78216 0.81073 0.0
H1739 H 0.32314 0.80763 0.79948 0.0
H1740 H 0.42892 0.82472 0.80945 0.0
H1741 H 0.37949 0.80191 0.79818 0.0
H1742 H 0.27767 0.72462 0.871 0.0
H1743 H 0.27767 0.72462 0.871 0.0
H1744 H 0.37864 0.80431 0.88425 0.0
H1745 H 0.42819 0.83685 0.8732 0.0
C1746 C 0.17247 0.55456 0.83105 0.0
C1747 C 0.19872 0.59539 0.83949 0.0
C1748 C 0.25116 0.57386 0.84734 0.0
C1749 C 0.22666 0.53328 0.83879 0.0
N1750 N 0.17163 0.49192 0.81747 0.0
N1751 N 0.27465 0.64927 0.84394 0.0
C1752 C 0.18984 0.52589 0.82883 0.0
C1753 C 0.24186 0.6069 0.84382 0.0
N1754 N 0.13137 0.54239 0.8256 0.0
N1755 N 0.28255 0.58151 0.85924 0.0
H1756 H 0.27044 0.6744 0.83921 0.0
H1757 H 0.30705 0.65811 0.84622 0.0
H1758 H 0.28654 0.55704 0.86463 0.0
H1759 H 0.29938 0.61096 0.86592 0.0
H1760 H 0.11014 0.51155 0.82067 0.0
H1761 H 0.11722 0.56172 0.82711 0.0
H1762 H 0.1471 0.48713 0.80881 0.0
H1763 H 0.18351 0.4705 0.81588 0.0
C1764 C 0.43132 0.61422 0.82336 0.0
C1765 C 0.41043 0.5941 0.83922 0.0
C1766 C 0.43184 0.66484 0.85152 0.0
C1767 C 0.45817 0.68638 0.83691 0.0
N1768 N 0.48513 0.68088 0.80888 0.0
N1769 N 0.40262 0.60111 0.86964 0.0
C1770 C 0.45884 0.66085 0.82277 0.0
C1771 C 0.41664 0.62036 0.85383 0.0
N1772 N 0.42321 0.58949 0.80884 0.0
N1773 N 0.41862 0.6858 0.86267 0.0
H1774 H 0.39575 0.56933 0.87186 0.0
H1775 H 0.39726 0.61571 0.88025 0.0
H1776 H 0.42804 0.71832 0.86161 0.0
H1777 H 0.39456 0.66986 0.87201 0.0
H1778 H 0.43341 0.60264 0.79651 0.0
H1779 H 0.4046 0.55563 0.80915 0.0
H1780 H 0.48979 0.66396 0.79886 0.0
H1781 H 0.50454 0.71464 0.80803 0.0
C1782 C 0.45687 0.67612 0.98686 0.0
C1783 C 0.44432 0.64852 0.00139 0.0
C1784 C 0.47073 0.71601 0.01862 0.0
C1785 C 0.491 0.74123 0.00354 0.0
N1786 N 0.51424 0.7419 0.97482 0.0
N1787 N 0.44292 0.64559 0.03285 0.0
C1788 C 0.49076 0.71895 0.98866 0.0
C1789 C 0.4527 0.66938 0.01799 0.0
N1790 N 0.43014 0.66702 0.97303 0.0
N1791 N 0.46606 0.73585 0.0329 0.0
H1792 H 0.43179 0.61228 0.03284 0.0
H1793 H 0.45001 0.65988 0.04509 0.0
H1794 H 0.4796 0.7696 0.03346 0.0
H1795 H 0.44717 0.71861 0.04353 0.0
H1796 H 0.39941 0.63922 0.9722 0.0
H1797 H 0.39941 0.63922 0.9722 0.0
H1798 H 0.50514 0.72973 0.96245 0.0
H1799 H 0.54106 0.77315 0.97629 0.0
C1800 C 0.29947 0.71926 0.99652 0.0
C1801 C 0.26925 0.73326 0.99988 0.0
C1802 C 0.33117 0.80287 0.00927 0.0
C1803 C 0.35925 0.79255 0.9998 0.0
N1804 N 0.36522 0.73951 0.98154 0.0
N1805 N 0.25691 0.78863 0.0126 0.0
C1806 C 0.34219 0.75036 0.99263 0.0
C1807 C 0.28499 0.77505 0.0075 0.0
N1808 N 0.28762 0.67631 0.99716 0.0
N1809 N 0.34837 0.83874 0.01967 0.0
H1810 H 0.22329 0.76906 0.0118 0.0
H1811 H 0.26721 0.82016 0.01687 0.0
H1812 H 0.3819 0.85935 0.02094 0.0
H1813 H 0.32957 0.84597 0.02791 0.0
H1814 H 0.30986 0.66544 0.99558 0.0
H1815 H 0.25732 0.65287 0.00178 0.0
H1816 H 0.35168 0.70899 0.97565 0.0
H1817 H 0.39421 0.7621 0.97586 0.0
C1818 C 0.21448 0.55272 0.97838 0.0
C1819 C 0.19638 0.55861 0.99396 0.0
C1820 C 0.23816 0.53196 0.01001 0.0
C1821 C 0.2504 0.52134 0.99404 0.0
N1822 N 0.23906 0.50985 0.9634 0.0
N1823 N 0.18574 0.5452 0.02492 0.0
C1824 C 0.23242 0.52557 0.97852 0.0
C1825 C 0.20619 0.54512 0.00993 0.0
N1826 N 0.22176 0.57722 0.96387 0.0
N1827 N 0.25908 0.53265 0.02496 0.0
H1828 H 0.16053 0.55224 0.02526 0.0
H1829 H 0.19055 0.53357 0.03662 0.0
H1830 H 0.28196 0.52241 0.02549 0.0
H1831 H 0.25552 0.54589 0.03649 0.0
H1832 H 0.2176 0.60423 0.96298 0.0
H1833 H 0.2176 0.60423 0.96298 0.0
H1834 H 0.22897 0.51558 0.95148 0.0
H1835 H 0.25256 0.48956 0.96316 0.0
C1836 C 0.27487 0.5068 0.50801 0.0
C1837 C 0.25938 0.50459 0.49032 0.0
C1838 C 0.32543 0.49746 0.48272 0.0
C1839 C 0.34905 0.52142 0.49788 0.0
N1840 N 0.33712 0.52548 0.52796 0.0
N1841 N 0.25894 0.46683 0.46474 0.0
C1842 C 0.32019 0.51674 0.51164 0.0
C1843 C 0.28178 0.49087 0.47865 0.0
N1844 N 0.24706 0.49978 0.52141 0.0
N1845 N 0.34573 0.48248 0.47206 0.0
H1846 H 0.22718 0.46002 0.46242 0.0
H1847 H 0.26988 0.45164 0.45623 0.0
H1848 H 0.37554 0.48531 0.47548 0.0
H1849 H 0.33269 0.46555 0.4606 0.0
H1850 H 0.25502 0.49969 0.53436 0.0
H1851 H 0.21422 0.48905 0.51955 0.0
H1852 H 0.32084 0.52734 0.53884 0.0
H1853 H 0.36887 0.53202 0.53028 0.0
C1854 C 0.51487 0.7987 0.49219 0.0
C1855 C 0.5047 0.77026 0.47714 0.0
C1856 C 0.47993 0.82164 0.4644 0.0
C1857 C 0.4701 0.83309 0.48098 0.0
N1858 N 0.50684 0.85497 0.50853 0.0
N1859 N 0.50313 0.77925 0.44649 0.0
C1860 C 0.49928 0.83086 0.49385 0.0
C1861 C 0.4948 0.78929 0.46248 0.0
N1862 N 0.53935 0.79483 0.50492 0.0
N1863 N 0.48052 0.84624 0.45073 0.0
H1864 H 0.51915 0.76155 0.44483 0.0
H1865 H 0.4943 0.78832 0.43508 0.0
H1866 H 0.4724 0.87058 0.45246 0.0
H1867 H 0.49083 0.84438 0.43831 0.0
H1868 H 0.54898 0.81319 0.51622 0.0
H1869 H 0.55167 0.77373 0.50359 0.0
H1870 H 0.52324 0.85314 0.51936 0.0
H1871 H 0.49757 0.87856 0.50944 0.0
C1872 C 0.20233 0.71385 0.49275 0.0
C1873 C 0.2384 0.7356 0.50429 0.0
C1874 C 0.21225 0.66617 0.51971 0.0
C1875 C 0.18729 0.64351 0.50486 0.0
N1876 N 0.13808 0.64561 0.48399 0.0
N1877 N 0.25233 0.73689 0.53453 0.0
C1878 C 0.17427 0.66747 0.49404 0.0
C1879 C 0.23458 0.71326 0.51989 0.0
N1880 N 0.19778 0.73719 0.47971 0.0
N1881 N 0.21621 0.64342 0.5331 0.0
H1882 H 0.26845 0.77088 0.53424 0.0
H1883 H 0.24842 0.72283 0.54673 0.0
H1884 H 0.19984 0.6095 0.53328 0.0
H1885 H 0.23654 0.6583 0.54368 0.0
H1886 H 0.17566 0.72333 0.46958 0.0
H1887 H 0.21766 0.77099 0.47907 0.0
H1888 H 0.12597 0.66091 0.47609 0.0
H1889 H 0.11824 0.61194 0.48485 0.0
C1890 C 0.22241 0.66638 0.32351 0.0
C1891 C 0.22137 0.68535 0.33981 0.0
C1892 C 0.1523 0.61797 0.34601 0.0
C1893 C 0.16378 0.59586 0.33365 0.0
N1894 N 0.19741 0.59963 0.30664 0.0
N1895 N 0.16976 0.68574 0.3602 0.0
C1896 C 0.19367 0.62082 0.32068 0.0
C1897 C 0.18144 0.66317 0.34925 0.0
N1898 N 0.24925 0.69181 0.31054 0.0
N1899 N 0.11728 0.59362 0.35641 0.0
H1900 H 0.18916 0.71895 0.36219 0.0
H1901 H 0.1394 0.67253 0.36612 0.0
H1902 H 0.09667 0.56052 0.3539 0.0
H1903 H 0.10995 0.60525 0.36755 0.0
H1904 H 0.2467 0.68113 0.2978 0.0
H1905 H 0.27384 0.72391 0.3123 0.0
H1906 H 0.22198 0.6141 0.29741 0.0
H1907 H 0.17566 0.56647 0.30475 0.0
C1908 C 0.31679 0.51118 0.3551 0.0
C1909 C 0.29847 0.52176 0.34086 0.0
C1910 C 0.3725 0.55361 0.32722 0.0
C1911 C 0.39177 0.56019 0.34407 0.0
N1912 N 0.37957 0.51884 0.37023 0.0
N1913 N 0.30632 0.52449 0.30944 0.0
C1914 C 0.36322 0.53018 0.35668 0.0
C1915 C 0.32514 0.53205 0.32543 0.0
N1916 N 0.29015 0.47785 0.36562 0.0
N1917 N 0.39916 0.56877 0.31312 0.0
H1918 H 0.27304 0.51067 0.30754 0.0
H1919 H 0.3232 0.5289 0.29792 0.0
H1920 H 0.43219 0.57882 0.31399 0.0
H1921 H 0.38887 0.57078 0.30072 0.0
H1922 H 0.30229 0.46325 0.37393 0.0
H1923 H 0.25651 0.46201 0.3644 0.0
H1924 H 0.41261 0.52914 0.37114 0.0
H1925 H 0.41261 0.52914 0.37114 0.0
C1926 C 0.46019 0.85418 0.35189 0.0
C1927 C 0.42381 0.84201 0.34009 0.0
C1928 C 0.46139 0.8087 0.32205 0.0
C1929 C 0.4846 0.8049 0.33685 0.0
N1930 N 0.52204 0.84545 0.36214 0.0
N1931 N 0.40352 0.82104 0.31027 0.0
C1932 C 0.48977 0.8355 0.3504 0.0
C1933 C 0.42993 0.82494 0.32377 0.0
N1934 N 0.46438 0.88127 0.36517 0.0
N1935 N 0.46873 0.79579 0.30639 0.0
H1936 H 0.38448 0.83583 0.31043 0.0
H1937 H 0.40062 0.8036 0.29903 0.0
H1938 H 0.49081 0.78461 0.30512 0.0
H1939 H 0.45609 0.79936 0.29474 0.0
H1940 H 0.48764 0.89106 0.37489 0.0
H1941 H 0.4444 0.89504 0.36594 0.0
H1942 H 0.52885 0.86636 0.37259 0.0
H1943 H 0.54361 0.83367 0.36075 0.0
C1944 C 0.18594 0.2259 0.25646 0.0
C1945 C 0.19129 0.20516 0.27125 0.0
C1946 C 0.21163 0.16263 0.25231 0.0
C1947 C 0.19787 0.17657 0.23712 0.0
N1948 N 0.18495 0.23255 0.22523 0.0
N1949 N 0.23534 0.17716 0.2825 0.0
C1950 C 0.18896 0.21162 0.23935 0.0
C1951 C 0.21293 0.18125 0.26892 0.0
N1952 N 0.18303 0.26259 0.25891 0.0
N1953 N 0.22199 0.13046 0.2513 0.0
H1954 H 0.24234 0.1961 0.29364 0.0
H1955 H 0.25285 0.16092 0.28208 0.0
H1956 H 0.20599 0.10385 0.2432 0.0
H1957 H 0.23995 0.12471 0.26044 0.0
H1958 H 0.18113 0.28147 0.24903 0.0
H1959 H 0.18755 0.27715 0.27106 0.0
H1960 H 0.16966 0.25109 0.2255 0.0
H1961 H 0.19911 0.23338 0.21332 0.0
C1962 C 0.83774 0.00199 0.24309 0.0
C1963 C 0.80505 0.0049 0.23365 0.0
C1964 C 0.75798 0.97813 0.25949 0.0
C1965 C 0.79381 0.98204 0.26936 0.0
N1966 N 0.8687 -0.00148 0.2701 0.0
N1967 N 0.73232 0.9931 0.23234 0.0
C1968 C 0.83404 0.99517 0.26106 0.0
C1969 C 0.76439 0.99197 0.24169 0.0
N1970 N 0.87217 0.00286 0.23502 0.0
N1971 N 0.71792 0.96034 0.26706 0.0
H1972 H 0.73602 0.00117 0.2192 0.0
H1973 H 0.7029 0.98739 0.23759 0.0
H1974 H 0.71336 0.95306 0.28024 0.0
H1975 H 0.68934 0.95156 0.26028 0.0
H1976 H 0.87558 0.00363 0.22161 0.0
H1977 H 0.87558 0.00363 0.22161 0.0
H1978 H 0.89914 0.00931 0.26441 0.0
H1979 H 0.86728 0.99129 0.28323 0.0
C1980 C 0.002 0.85081 0.25987 0.0
C1981 C 0.00832 0.81948 0.26869 0.0
C1982 C 0.9949 0.77924 0.24121 0.0
C1983 C 0.99479 0.81427 0.23225 0.0
N1984 N 0.01121 0.88879 0.2329 0.0
N1985 N 0.01467 0.7551 0.26754 0.0
C1986 C 0.00281 0.85186 0.24157 0.0
C1987 C 0.006 0.78392 0.25928 0.0
N1988 N 0.99406 0.87908 0.26901 0.0
N1989 N 0.98366 0.74151 0.23257 0.0
H1990 H 0.02083 0.75698 0.28083 0.0
H1991 H 0.01762 0.73087 0.26111 0.0
H1992 H 0.97729 0.73824 0.21928 0.0
H1993 H 0.97882 0.71326 0.23869 0.0
H1994 H 0.98543 0.90011 0.26308 0.0
H1995 H 0.99215 0.8784 0.2825 0.0
H1996 H 0.02083 0.91827 0.23918 0.0
H1997 H 0.01177 0.89048 0.2194 0.0
C1998 C 0.76359 0.80691 0.7409 0.0
C1999 C 0.80101 0.80909 0.73312 0.0
C2000 C 0.82168 0.79427 0.76232 0.0
C2001 C 0.78695 0.79685 0.77033 0.0
N2002 N 0.71654 0.78853 0.76637 0.0
N2003 N 0.85831 0.79182 0.73589 0.0
C2004 C 0.75537 0.79793 0.75923 0.0
C2005 C 0.82759 0.79848 0.74374 0.0
N2006 N 0.73654 0.81466 0.73086 0.0
N2007 N 0.8496 0.78866 0.77266 0.0
H2008 H 0.86263 0.7937 0.7225 0.0
H2009 H 0.87738 0.78155 0.74229 0.0
H2010 H 0.84233 0.78016 0.78564 0.0
H2011 H 0.87901 0.7919 0.76855 0.0
H2012 H 0.71093 0.81785 0.73576 0.0
H2013 H 0.74107 0.8196 0.71751 0.0
H2014 H 0.6903 0.78607 0.7594 0.0
H2015 H 0.70944 0.77777 0.77915 0.0
C2016 C 0.2226 0.04074 0.76546 0.0
C2017 C 0.20021 0.99629 0.7706 0.0
C2018 C 0.19628 0.97566 0.7394 0.0
C2019 C 0.21457 0.02026 0.73413 0.0
N2020 N 0.25859 0.09502 0.74273 0.0
N2021 N 0.17705 0.92262 0.76297 0.0
C2022 C 0.23199 0.0526 0.74743 0.0
C2023 C 0.19088 0.96426 0.75763 0.0
N2024 N 0.23336 0.07183 0.77786 0.0
N2025 N 0.18254 0.94381 0.72713 0.0
H2026 H 0.17353 0.91425 0.77608 0.0
H2027 H 0.17279 0.89746 0.7548 0.0
H2028 H 0.19007 0.9502 0.71406 0.0
H2029 H 0.16354 0.91076 0.72979 0.0
H2030 H 0.24364 0.10432 0.7752 0.0
H2031 H 0.23075 0.06429 0.79101 0.0
H2032 H 0.27518 0.12031 0.75151 0.0
H2033 H 0.26768 0.10425 0.72988 0.0
C2034 C 0.93164 0.1536 0.74946 0.0
C2035 C 0.96555 0.16849 0.73685 0.0
C2036 C 0.01824 0.20854 0.76039 0.0
C2037 C 0.98607 0.18471 0.77301 0.0
N2038 N 0.91072 0.1409 0.77998 0.0
N2039 N 0.04228 0.21486 0.7306 0.0
C2040 C 0.94213 0.1598 0.76761 0.0
C2041 C 0.00908 0.1983 0.74234 0.0
N2042 N 0.88941 0.13376 0.74397 0.0
N2043 N 0.05791 0.24085 0.7659 0.0
H2044 H 0.03739 0.21103 0.71731 0.0
H2045 H 0.07502 0.23131 0.73408 0.0
H2046 H 0.06439 0.24841 0.77905 0.0
H2047 H 0.08241 0.26248 0.75764 0.0
H2048 H 0.86292 0.12419 0.75219 0.0
H2049 H 0.88119 0.13035 0.73085 0.0
H2050 H 0.87854 0.11753 0.77743 0.0
H2051 H 0.91787 0.14903 0.79303 0.0
C2052 C 0.8069 0.47416 0.57536 0.0
C2053 C 0.84669 0.50185 0.56689 0.0
C2054 C 0.8722 0.54709 0.59346 0.0
C2055 C 0.83357 0.51641 0.60224 0.0
N2056 N 0.77137 0.4441 0.60256 0.0
N2057 N 0.91966 0.56284 0.56826 0.0
C2058 C 0.8032 0.47803 0.59346 0.0
C2059 C 0.88022 0.53796 0.57606 0.0
N2060 N 0.77191 0.44438 0.56602 0.0
N2061 N 0.90073 0.58485 0.60165 0.0
H2062 H 0.92545 0.55765 0.55546 0.0
H2063 H 0.94691 0.58701 0.57465 0.0
H2064 H 0.89618 0.59117 0.61446 0.0
H2065 H 0.92751 0.61045 0.59558 0.0
H2066 H 0.74077 0.42645 0.57128 0.0
H2067 H 0.77307 0.44084 0.55264 0.0
H2068 H 0.75118 0.41359 0.5971 0.0
H2069 H 0.76751 0.44551 0.61589 0.0
C2070 C 0.5169 0.34647 0.57638 0.0
C2071 C 0.48454 0.34578 0.56552 0.0
C2072 C 0.42925 0.2988 0.58709 0.0
C2073 C 0.46305 0.30866 0.59927 0.0
N2074 N 0.53953 0.34576 0.60556 0.0
N2075 N 0.40822 0.31784 0.55979 0.0
C2076 C 0.50694 0.33392 0.59387 0.0
C2077 C 0.43997 0.32052 0.57056 0.0
N2078 N 0.55674 0.35718 0.56972 0.0
N2079 N 0.38746 0.26826 0.59115 0.0
H2080 H 0.41512 0.33291 0.54768 0.0
H2081 H 0.37548 0.30284 0.56322 0.0
H2082 H 0.37897 0.25324 0.60328 0.0
H2083 H 0.36202 0.25593 0.58224 0.0
H2084 H 0.58035 0.35398 0.5765 0.0
H2085 H 0.5642 0.36408 0.55664 0.0
H2086 H 0.57237 0.36152 0.60246 0.0
H2087 H 0.53341 0.34302 0.61868 0.0
C2088 C 0.69274 0.14448 0.56811 0.0
C2089 C 0.64641 0.11889 0.56673 0.0
C2090 C 0.64327 0.10302 0.59812 0.0
C2091 C 0.68659 0.13843 0.6 0.0
N2092 N 0.75671 0.18063 0.58615 0.0
N2093 N 0.58074 0.06106 0.57924 0.0
C2094 C 0.71257 0.15484 0.58478 0.0
C2095 C 0.62255 0.09425 0.58147 0.0
N2096 N 0.71882 0.15665 0.55376 0.0
N2097 N 0.62341 0.07606 0.61189 0.0
H2098 H 0.56736 0.04986 0.56698 0.0
H2099 H 0.55942 0.04396 0.58927 0.0
H2100 H 0.64058 0.07692 0.62297 0.0
H2101 H 0.59184 0.0498 0.61181 0.0
H2102 H 0.75141 0.16521 0.55446 0.0
H2103 H 0.70889 0.15393 0.54101 0.0
H2104 H 0.77403 0.17838 0.59664 0.0
H2105 H 0.77612 0.20263 0.57663 0.0
C2106 C 0.48966 0.11655 0.07359 0.0
C2107 C 0.4712 0.13539 0.06257 0.0
C2108 C 0.42449 0.13191 0.08731 0.0
C2109 C 0.44955 0.12219 0.09891 0.0
N2110 N 0.50094 0.09817 0.10297 0.0
N2111 N 0.4151 0.15382 0.0583 0.0
C2112 C 0.47985 0.1113 0.09184 0.0
C2113 C 0.43604 0.13995 0.06918 0.0
N2114 N 0.51601 0.10292 0.06642 0.0
N2115 N 0.39072 0.13525 0.0941 0.0
H2116 H 0.42272 0.15979 0.04518 0.0
H2117 H 0.39054 0.15994 0.06208 0.0
H2118 H 0.38256 0.12914 0.10721 0.0
H2119 H 0.36957 0.14144 0.08695 0.0
H2120 H 0.52944 0.08715 0.0732 0.0
H2121 H 0.52167 0.1044 0.05311 0.0
H2122 H 0.52687 0.09379 0.09957 0.0
H2123 H 0.49202 0.09199 0.116 0.0
C2124 C 0.9003 0.36696 0.07801 0.0
C2125 C 0.87495 0.33377 0.06582 0.0
C2126 C 0.84382 0.28359 0.09079 0.0
C2127 C 0.85943 0.31932 0.10252 0.0
N2128 N 0.90533 0.39617 0.10697 0.0
N2129 N 0.82445 0.25789 0.06107 0.0
C2130 C 0.88925 0.36129 0.09607 0.0
C2131 C 0.84787 0.29102 0.07237 0.0
N2132 N 0.93524 0.40405 0.07211 0.0
N2133 N 0.8255 0.24254 0.09739 0.0
H2134 H 0.82925 0.26201 0.04773 0.0
H2135 H 0.79994 0.22717 0.06494 0.0
H2136 H 0.82449 0.2372 0.11073 0.0
H2137 H 0.81577 0.21491 0.0898 0.0
H2138 H 0.95736 0.42883 0.08017 0.0
H2139 H 0.94429 0.40648 0.05918 0.0
H2140 H 0.9231 0.42827 0.10268 0.0
H2141 H 0.89905 0.39263 0.12026 0.0
C2142 C 0.68752 0.52212 0.09212 0.0
C2143 C 0.66217 0.52863 0.10513 0.0
C2144 C 0.61811 0.52946 0.07987 0.0
C2145 C 0.64545 0.52328 0.06783 0.0
N2146 N 0.71945 0.54177 0.0636 0.0
N2147 N 0.60975 0.55219 0.10916 0.0
C2148 C 0.68521 0.53081 0.07441 0.0
C2149 C 0.62968 0.53731 0.09832 0.0
N2150 N 0.7089 0.50059 0.09567 0.0
N2151 N 0.58167 0.52833 0.07367 0.0
H2152 H 0.61745 0.55725 0.12231 0.0
H2153 H 0.58866 0.56263 0.10483 0.0
H2154 H 0.57438 0.52447 0.06046 0.0
H2155 H 0.55873 0.53001 0.08156 0.0
H2156 H 0.73641 0.50644 0.08888 0.0
H2157 H 0.69378 0.47068 0.10181 0.0
H2158 H 0.7503 0.55009 0.06821 0.0
H2159 H 0.71816 0.54853 0.05055 0.0
C2160 C 0.51532 0.88642 0.92135 0.0
C2161 C 0.51576 0.85884 0.93474 0.0
C2162 C 0.55261 0.83517 0.91427 0.0
C2163 C 0.5372 0.8492 0.89999 0.0
N2164 N 0.51557 0.90078 0.8906 0.0
N2165 N 0.53615 0.80619 0.94322 0.0
C2166 C 0.52216 0.87885 0.90367 0.0
C2167 C 0.53553 0.83355 0.93108 0.0
N2168 N 0.51098 0.92141 0.92571 0.0
N2169 N 0.58449 0.82478 0.91185 0.0
H2170 H 0.51855 0.79952 0.95461 0.0
H2171 H 0.55071 0.78739 0.9413 0.0
H2172 H 0.60126 0.83076 0.90014 0.0
H2173 H 0.59855 0.81668 0.92198 0.0
H2174 H 0.51423 0.94504 0.91688 0.0
H2175 H 0.50923 0.92951 0.93857 0.0
H2176 H 0.49804 0.91693 0.89222 0.0
H2177 H 0.52872 0.90391 0.87828 0.0
C2178 C 0.15651 0.64787 0.92015 0.0
C2179 C 0.14033 0.66141 0.93396 0.0
C2180 C 0.12554 0.70401 0.91261 0.0
C2181 C 0.13455 0.68239 0.899 0.0
N2182 N 0.12986 0.61368 0.89295 0.0
N2183 N 0.10313 0.70011 0.94272 0.0
C2184 C 0.14163 0.64826 0.90353 0.0
C2185 C 0.12296 0.68916 0.93016 0.0
N2186 N 0.18642 0.63511 0.92276 0.0
N2187 N 0.11892 0.73776 0.90878 0.0
H2188 H 0.10022 0.68953 0.95548 0.0
H2189 H 0.08692 0.71718 0.94011 0.0
H2190 H 0.11725 0.74652 0.896 0.0
H2191 H 0.11659 0.75749 0.91823 0.0
H2192 H 0.20009 0.6272 0.91243 0.0
H2193 H 0.20051 0.63735 0.93488 0.0
H2194 H 0.12836 0.58558 0.8979 0.0
H2195 H 0.11413 0.6103 0.88117 0.0
C2196 C 0.29435 0.43481 0.91465 0.0
C2197 C 0.31913 0.46075 0.9002 0.0
C2198 C 0.3749 0.50954 0.92016 0.0
C2199 C 0.35159 0.48574 0.93506 0.0
N2200 N 0.29198 0.4177 0.94549 0.0
N2201 N 0.39247 0.50823 0.89039 0.0
C2202 C 0.31192 0.44576 0.93206 0.0
C2203 C 0.36218 0.49313 0.90329 0.0
N2204 N 0.25461 0.39907 0.91156 0.0
N2205 N 0.40626 0.55146 0.92162 0.0
H2206 H 0.38704 0.49354 0.87828 0.0
H2207 H 0.42489 0.53129 0.89279 0.0
H2208 H 0.40439 0.57406 0.91358 0.0
H2209 H 0.43656 0.55949 0.92677 0.0
H2210 H 0.23216 0.3813 0.92119 0.0
H2211 H 0.24413 0.38735 0.89904 0.0
H2212 H 0.26424 0.38729 0.94418 0.0
H2213 H 0.30562 0.42301 0.95782 0.0
C2214 C 0.13698 0.46455 0.42605 0.0
C2215 C 0.12491 0.4947 0.43273 0.0
C2216 C 0.09858 0.4991 0.40358 0.0
C2217 C 0.11444 0.47259 0.39671 0.0
N2218 N 0.13178 0.41682 0.40222 0.0
N2219 N 0.07934 0.52651 0.429 0.0
C2220 C 0.12724 0.45036 0.40839 0.0
C2221 C 0.10068 0.50723 0.42183 0.0
N2222 N 0.16055 0.45191 0.43598 0.0
N2223 N 0.08403 0.51872 0.39237 0.0
H2224 H 0.0792 0.53146 0.44233 0.0
H2225 H 0.05836 0.53344 0.42206 0.0
H2226 H 0.08042 0.51123 0.37917 0.0
H2227 H 0.07725 0.543 0.396 0.0
H2228 H 0.17474 0.43451 0.43112 0.0
H2229 H 0.16854 0.46126 0.44882 0.0
H2230 H 0.13829 0.39683 0.41005 0.0
H2231 H 0.12452 0.40675 0.38935 0.0
C2232 C 0.51082 0.61308 0.40135 0.0
C2233 C 0.53936 0.65615 0.39551 0.0
C2234 C 0.55929 0.6786 0.42626 0.0
C2235 C 0.52665 0.63654 0.43215 0.0
N2236 N 0.48661 0.56044 0.42502 0.0
N2237 N 0.60386 0.72285 0.40204 0.0
C2238 C 0.50748 0.60273 0.41952 0.0
C2239 C 0.56766 0.68671 0.40795 0.0
N2240 N 0.48573 0.58206 0.38961 0.0
N2241 N 0.58177 0.71127 0.43788 0.0
H2242 H 0.6118 0.72628 0.38889 0.0
H2243 H 0.62823 0.74565 0.41004 0.0
H2244 H 0.58087 0.70615 0.45116 0.0
H2245 H 0.60115 0.74373 0.43428 0.0
H2246 H 0.46105 0.55131 0.39321 0.0
H2247 H 0.4897 0.58754 0.37631 0.0
H2248 H 0.47452 0.5337 0.41677 0.0
H2249 H 0.48602 0.55216 0.43804 0.0
C2250 C 0.28219 0.85325 0.43206 0.0
C2251 C 0.31972 0.85712 0.44029 0.0
C2252 C 0.35626 0.87078 0.4118 0.0
C2253 C 0.3164 0.85925 0.4035 0.0
N2254 N 0.2465 0.85341 0.40495 0.0
N2255 N 0.39631 0.88103 0.4384 0.0
C2256 C 0.28121 0.85578 0.41348 0.0
C2257 C 0.35824 0.87063 0.43024 0.0
N2258 N 0.247 0.84483 0.44198 0.0
N2259 N 0.39093 0.87743 0.40185 0.0
H2260 H 0.39768 0.8763 0.45156 0.0
H2261 H 0.42658 0.89541 0.43236 0.0
H2262 H 0.39059 0.88054 0.38842 0.0
H2263 H 0.41913 0.879 0.40659 0.0
H2264 H 0.21715 0.83852 0.43703 0.0
H2265 H 0.24812 0.84403 0.45549 0.0
H2266 H 0.22008 0.85305 0.41097 0.0
H2267 H 0.2461 0.85457 0.39146 0.0
C2268 C 0.29463 0.17463 0.15057 0.0
C2269 C 0.29666 0.19526 0.16636 0.0
C2270 C 0.35885 0.18983 0.17567 0.0
C2271 C 0.35131 0.16051 0.16168 0.0
N2272 N 0.31574 0.12905 0.13449 0.0
N2273 N 0.34317 0.24405 0.18786 0.0
C2274 C 0.32089 0.15496 0.14845 0.0
C2275 C 0.33443 0.2115 0.17638 0.0
N2276 N 0.26492 0.17113 0.13854 0.0
N2277 N 0.38769 0.19563 0.18852 0.0
H2278 H 0.32275 0.25738 0.1887 0.0
H2279 H 0.37154 0.25965 0.1952 0.0
H2280 H 0.40383 0.17799 0.18924 0.0
H2281 H 0.39252 0.21486 0.19941 0.0
H2282 H 0.26076 0.15654 0.12646 0.0
H2283 H 0.24586 0.18558 0.14062 0.0
H2284 H 0.29346 0.12242 0.12458 0.0
H2285 H 0.33255 0.11201 0.13329 0.0
C2286 C 0.80948 0.12231 0.14999 0.0
C2287 C 0.78808 0.09998 0.16518 0.0
C2288 C 0.78564 0.16287 0.176 0.0
C2289 C 0.81534 0.18839 0.16274 0.0
N2290 N 0.85291 0.19279 0.13609 0.0
N2291 N 0.73624 0.08982 0.18684 0.0
C2292 C 0.82569 0.16797 0.14913 0.0
C2293 C 0.7683 0.11721 0.17582 0.0
N2294 N 0.8169 0.10009 0.13728 0.0
N2295 N 0.77525 0.18231 0.18898 0.0
H2296 H 0.72581 0.05655 0.18694 0.0
H2297 H 0.71828 0.09914 0.1946 0.0
H2298 H 0.78891 0.21592 0.18995 0.0
H2299 H 0.75588 0.16556 0.19955 0.0
H2300 H 0.8322 0.11362 0.12557 0.0
H2301 H 0.80453 0.06657 0.13826 0.0
H2302 H 0.86348 0.18063 0.12611 0.0
H2303 H 0.86718 0.22663 0.13584 0.0
C2304 C 0.86701 0.69248 0.1536 0.0
C2305 C 0.88739 0.69292 0.16931 0.0
C2306 C 0.82279 0.62977 0.17987 0.0
C2307 C 0.79923 0.63384 0.16571 0.0
N2308 N 0.79871 0.66567 0.13809 0.0
N2309 N 0.89436 0.65108 0.19168 0.0
C2310 C 0.82154 0.66373 0.15202 0.0
C2311 C 0.8684 0.65691 0.18028 0.0
N2312 N 0.89123 0.72087 0.14081 0.0
N2313 N 0.80179 0.6014 0.19313 0.0
H2314 H 0.92791 0.67279 0.19198 0.0
H2315 H 0.8836 0.62353 0.19941 0.0
H2316 H 0.76815 0.58215 0.19392 0.0
H2317 H 0.81753 0.59956 0.2042 0.0
H2318 H 0.87914 0.72299 0.1288 0.0
H2319 H 0.92495 0.74037 0.14193 0.0
H2320 H 0.81242 0.6876 0.12791 0.0
H2321 H 0.76494 0.64636 0.13713 0.0
C2322 C 0.18056 0.35071 0.3542 0.0
C2323 C 0.16528 0.36775 0.34065 0.0
C2324 C 0.20338 0.34714 0.31995 0.0
C2325 C 0.20359 0.31771 0.3321 0.0
N2326 N 0.2135 0.30621 0.36161 0.0
N2327 N 0.15373 0.36977 0.30976 0.0
C2328 C 0.20013 0.32531 0.34966 0.0
C2329 C 0.17475 0.36314 0.32318 0.0
N2330 N 0.17543 0.35799 0.37118 0.0
N2331 N 0.22172 0.35066 0.30411 0.0
H2332 H 0.12707 0.37411 0.31156 0.0
H2333 H 0.15827 0.36397 0.2969 0.0
H2334 H 0.23891 0.33449 0.30141 0.0
H2335 H 0.22234 0.37179 0.29457 0.0
H2336 H 0.19014 0.35131 0.38146 0.0
H2337 H 0.15547 0.37025 0.375 0.0
H2338 H 0.20999 0.30753 0.37494 0.0
H2339 H 0.22912 0.28921 0.35775 0.0
C2340 C 0.6365 0.80476 0.3237 0.0
C2341 C 0.62088 0.79356 0.34077 0.0
C2342 C 0.67101 0.86966 0.34993 0.0
C2343 C 0.68358 0.88055 0.33247 0.0
N2344 N 0.66622 0.86173 0.30235 0.0
N2345 N 0.63094 0.81263 0.37111 0.0
C2346 C 0.66097 0.84909 0.3193 0.0
C2347 C 0.64002 0.82548 0.35422 0.0
N2348 N 0.63173 0.7736 0.31209 0.0
N2349 N 0.68788 0.90174 0.36214 0.0
H2350 H 0.61177 0.78016 0.3746 0.0
H2351 H 0.64511 0.8329 0.38172 0.0
H2352 H 0.70806 0.9343 0.35881 0.0
H2353 H 0.679 0.89729 0.37514 0.0
H2354 H 0.64587 0.78107 0.2998 0.0
H2355 H 0.62028 0.74135 0.31566 0.0
H2356 H 0.6493 0.84045 0.29223 0.0
H2357 H 0.68435 0.89446 0.29887 0.0
C2358 C 0.12126 0.81886 0.35244 0.0
C2359 C 0.10189 0.8 0.33647 0.0
C2360 C 0.16489 0.79455 0.32804 0.0
C2361 C 0.18787 0.82151 0.34238 0.0
N2362 N 0.18947 0.86197 0.36765 0.0
N2363 N 0.09466 0.75151 0.3138 0.0
C2364 C 0.16616 0.83347 0.35474 0.0
C2365 C 0.12015 0.78074 0.32611 0.0
N2366 N 0.09709 0.82457 0.3648 0.0
N2367 N 0.18624 0.78419 0.31587 0.0
H2368 H 0.06203 0.743 0.3124 0.0
H2369 H 0.10439 0.7336 0.30622 0.0
H2370 H 0.21963 0.79606 0.31625 0.0
H2371 H 0.17177 0.76698 0.30458 0.0
H2372 H 0.10859 0.8365 0.37716 0.0
H2373 H 0.06388 0.81292 0.36304 0.0
H2374 H 0.17629 0.87456 0.37641 0.0
H2375 H 0.22329 0.8767 0.36826 0.0
C2376 C 0.68757 0.8434 0.84769 0.0
C2377 C 0.6877 0.8265 0.83099 0.0
C2378 C 0.64583 0.85984 0.81988 0.0
C2379 C 0.63905 0.86738 0.83701 0.0
N2380 N 0.67389 0.89375 0.86425 0.0
N2381 N 0.66926 0.82174 0.80058 0.0
C2382 C 0.66966 0.87107 0.84946 0.0
C2383 C 0.66802 0.8364 0.81676 0.0
N2384 N 0.70163 0.83104 0.86189 0.0
N2385 N 0.62965 0.87398 0.80702 0.0
H2386 H 0.68172 0.80111 0.79851 0.0
H2387 H 0.65516 0.82692 0.78969 0.0
H2388 H 0.61326 0.89081 0.81 0.0
H2389 H 0.63495 0.87194 0.79388 0.0
H2390 H 0.69896 0.84017 0.87446 0.0
H2391 H 0.71099 0.80755 0.86143 0.0
H2392 H 0.69631 0.89846 0.87393 0.0
H2393 H 0.65667 0.91033 0.86586 0.0
C2394 C 0.11069 0.78816 0.84102 0.0
C2395 C 0.12989 0.77087 0.83011 0.0
C2396 C 0.17202 0.84063 0.8158 0.0
C2397 C 0.16249 0.8603 0.82994 0.0
N2398 N 0.12262 0.85259 0.85643 0.0
N2399 N 0.15892 0.77286 0.80218 0.0
C2400 C 0.13134 0.83395 0.84266 0.0
C2401 C 0.15295 0.79459 0.81548 0.0
N2402 N 0.07672 0.76045 0.85122 0.0
N2403 N 0.20043 0.86627 0.80322 0.0
H2404 H 0.14493 0.73903 0.80257 0.0
H2405 H 0.17492 0.78736 0.79068 0.0
H2406 H 0.21632 0.90021 0.80378 0.0
H2407 H 0.2102 0.85442 0.79286 0.0
H2408 H 0.05953 0.77032 0.85919 0.0
H2409 H 0.0642 0.72684 0.85042 0.0
H2410 H 0.10211 0.8348 0.86659 0.0
H2411 H 0.13898 0.8861 0.85848 0.0
C2412 C 0.19516 0.35 0.82102 0.0
C2413 C 0.21412 0.35157 0.83717 0.0
C2414 C 0.14667 0.29193 0.84812 0.0
C2415 C 0.12493 0.2953 0.83318 0.0
N2416 N 0.12813 0.32637 0.805 0.0
N2417 N 0.21648 0.31182 0.86145 0.0
C2418 C 0.14935 0.32363 0.81931 0.0
C2419 C 0.19258 0.31715 0.84887 0.0
N2420 N 0.22117 0.37453 0.80771 0.0
N2421 N 0.12368 0.26595 0.86173 0.0
H2422 H 0.25022 0.33233 0.86203 0.0
H2423 H 0.20386 0.28573 0.87005 0.0
H2424 H 0.08987 0.24875 0.86222 0.0
H2425 H 0.13797 0.26459 0.87331 0.0
H2426 H 0.21019 0.37405 0.79518 0.0
H2427 H 0.25496 0.39251 0.80909 0.0
H2428 H 0.1434 0.34796 0.79483 0.0
H2429 H 0.09426 0.30891 0.80395 0.0
C2430 C 0.86159 0.67385 0.65748 0.0
C2431 C 0.84819 0.63766 0.66825 0.0
C2432 C 0.81327 0.66508 0.68781 0.0
C2433 C 0.81771 0.69563 0.67481 0.0
N2434 N 0.84577 0.72777 0.64641 0.0
N2435 N 0.83068 0.60967 0.6971 0.0
C2436 C 0.84218 0.70006 0.65944 0.0
C2437 C 0.8309 0.63729 0.68475 0.0
N2438 N 0.89133 0.6811 0.64484 0.0
N2439 N 0.79013 0.66125 0.70254 0.0
H2440 H 0.84559 0.5911 0.69495 0.0
H2441 H 0.81974 0.60799 0.70973 0.0
H2442 H 0.77491 0.67958 0.7046 0.0
H2443 H 0.78333 0.63818 0.71215 0.0
H2444 H 0.90599 0.70907 0.63722 0.0
H2445 H 0.90416 0.66038 0.64338 0.0
H2446 H 0.85997 0.72883 0.63448 0.0
H2447 H 0.83143 0.74707 0.64654 0.0
C2448 C 0.36507 0.19127 0.68439 0.0
C2449 C 0.3669 0.2167 0.67002 0.0
C2450 C 0.29718 0.15944 0.65949 0.0
C2451 C 0.29747 0.13118 0.67245 0.0
N2452 N 0.32854 0.1201 0.69837 0.0
N2453 N 0.32794 0.23421 0.64957 0.0
C2454 C 0.33026 0.14736 0.68548 0.0
C2455 C 0.32989 0.20381 0.65973 0.0
N2456 N 0.39831 0.20868 0.6961 0.0
N2457 N 0.26654 0.14357 0.64667 0.0
H2458 H 0.35308 0.26664 0.6497 0.0
H2459 H 0.30053 0.2283 0.64249 0.0
H2460 H 0.24341 0.11067 0.64557 0.0
H2461 H 0.26642 0.16217 0.63626 0.0
H2462 H 0.40093 0.19224 0.70677 0.0
H2463 H 0.42308 0.24112 0.69524 0.0
H2464 H 0.35082 0.12924 0.70846 0.0
H2465 H 0.30472 0.08723 0.69873 0.0
C2466 C 0.78732 0.12236 0.66036 0.0
C2467 C 0.7668 0.13861 0.67113 0.0
C2468 C 0.83099 0.17092 0.68989 0.0
C2469 C 0.85505 0.16563 0.67624 0.0
N2470 N 0.85595 0.13878 0.64755 0.0
N2471 N 0.76259 0.16612 0.69887 0.0
C2472 C 0.83307 0.14186 0.66119 0.0
C2473 C 0.78623 0.15779 0.68712 0.0
N2474 N 0.76327 0.09239 0.64804 0.0
N2475 N 0.85118 0.18868 0.70526 0.0
H2476 H 0.72943 0.15453 0.69702 0.0
H2477 H 0.7753 0.18393 0.7102 0.0
H2478 H 0.88448 0.20094 0.70708 0.0
H2479 H 0.83515 0.19057 0.71623 0.0
H2480 H 0.77568 0.07736 0.64012 0.0
H2481 H 0.72976 0.08031 0.64706 0.0
H2482 H 0.84158 0.12405 0.63583 0.0
H2483 H 0.88984 0.15493 0.6473 0.0
C2484 C 0.02922 0.51103 0.51182 0.0
C2485 C 0.02803 0.49218 0.49547 0.0
C2486 C 0.96996 0.50578 0.48601 0.0
C2487 C 0.9678 0.51857 0.50315 0.0
N2488 N 0.00756 0.55521 0.52846 0.0
N2489 N -0.0011 0.47208 0.46665 0.0
C2490 C 0.00251 0.52944 0.51454 0.0
C2491 C -0.00095 0.49014 0.48232 0.0
N2492 N 0.05507 0.51047 0.52482 0.0
N2493 N 0.94427 0.50877 0.47357 0.0
H2494 H 0.01904 0.45906 0.46412 0.0
H2495 H 0.97739 0.46745 0.45664 0.0
H2496 H 0.92559 0.52337 0.47614 0.0
H2497 H 0.94441 0.50088 0.46061 0.0
H2498 H 0.05484 0.52124 0.53735 0.0
H2499 H 0.07359 0.49528 0.5236 0.0
H2500 H 0.0341 0.5672 0.53683 0.0
H2501 H 0.98657 0.56754 0.53041 0.0
C2502 C 0.48584 0.46592 0.48335 0.0
C2503 C 0.46632 0.44527 0.49907 0.0
C2504 C 0.46834 0.51077 0.50971 0.0
C2505 C 0.49517 0.53423 0.49543 0.0
N2506 N 0.52769 0.53459 0.46796 0.0
N2507 N 0.419 0.43952 0.52202 0.0
C2508 C 0.503 0.51169 0.48189 0.0
C2509 C 0.44986 0.46497 0.51021 0.0
N2510 N 0.48975 0.44185 0.47043 0.0
N2511 N 0.46136 0.53226 0.5229 0.0
H2512 H 0.40716 0.40598 0.52249 0.0
H2513 H 0.40297 0.45064 0.53003 0.0
H2514 H 0.47575 0.56601 0.5233 0.0
H2515 H 0.44432 0.51706 0.53414 0.0
H2516 H 0.50365 0.4541 0.45839 0.0
H2517 H 0.47573 0.40815 0.47157 0.0
H2518 H 0.53596 0.52097 0.45776 0.0
H2519 H 0.54232 0.56841 0.46715 0.0
C2520 C 0.52405 0.03057 0.48223 0.0
C2521 C 0.54611 0.03029 0.49738 0.0
C2522 C 0.48112 0.9673 0.50851 0.0
C2523 C 0.45624 0.97069 0.49472 0.0
N2524 N 0.45504 0.00074 0.46677 0.0
N2525 N 0.55327 0.98602 0.51874 0.0
C2526 C 0.47827 0.00063 0.48088 0.0
C2527 C 0.52705 0.99324 0.508 0.0
N2528 N 0.54636 0.06189 0.47009 0.0
N2529 N 0.46131 0.94045 0.52232 0.0
H2530 H 0.58697 0.00694 0.51871 0.0
H2531 H 0.54229 0.95796 0.52619 0.0
H2532 H 0.42779 0.92216 0.52391 0.0
H2533 H 0.47823 0.9396 0.53319 0.0
H2534 H 0.5324 0.06733 0.45923 0.0
H2535 H 0.58001 0.08227 0.47097 0.0
H2536 H 0.46882 0.01934 0.45571 0.0
H2537 H 0.42118 0.9817 0.46615 0.0
C2538 C 0.48531 0.02203 0.98662 0.0
C2539 C 0.47945 0.02664 0.00445 0.0
C2540 C 0.51319 0.9821 0.0113 0.0
C2541 C 0.5163 0.97664 0.99331 0.0
N2542 N 0.52894 0.01057 0.9655 0.0
N2543 N 0.48922 0.01261 0.03425 0.0
C2544 C 0.51183 0.00476 0.98173 0.0
C2545 C 0.49394 0.00699 0.01701 0.0
N2546 N 0.46331 0.03109 0.97435 0.0
N2547 N 0.52889 0.96371 0.02262 0.0
H2548 H 0.47182 0.02743 0.03853 0.0
H2549 H 0.5015 0.00227 0.04425 0.0
H2550 H 0.54764 0.95037 0.01834 0.0
H2551 H 0.52556 0.96344 0.03601 0.0
H2552 H 0.4652 0.02574 0.96118 0.0
H2553 H 0.43826 0.03715 0.97748 0.0
H2554 H 0.52808 0.03234 0.95665 0.0
H2555 H 0.54728 0.99622 0.96183 0.0
C2556 C 0.97979 0.47338 0.98779 0.0
C2557 C 0.97348 0.46123 0.00536 0.0
C2558 C 0.01454 0.53923 0.01363 0.0
C2559 C 0.02097 0.54967 0.9959 0.0
N2560 N 0.98799 0.52879 0.96764 0.0
N2561 N 0.98742 0.48221 0.03537 0.0
C2562 C 0.99512 0.51722 0.98362 0.0
C2563 C 0.99126 0.49438 0.01845 0.0
N2564 N 0.97406 0.4441 0.97516 0.0
N2565 N 0.03169 0.57209 0.0255 0.0
H2566 H 0.97729 0.45008 0.03854 0.0
H2567 H 0.99645 0.50326 0.04589 0.0
H2568 H 0.04576 0.6046 0.02167 0.0
H2569 H 0.03021 0.56766 0.03884 0.0
H2570 H 0.98131 0.45303 0.96218 0.0
H2571 H 0.96879 0.41311 0.97801 0.0
H2572 H 0.96807 0.50592 0.95844 0.0
H2573 H -0.00129 0.56129 0.96457 0.0
C2574 C 0.45688 0.45415 0.99433 0.0
C2575 C 0.44221 0.47631 0.00496 0.0
C2576 C 0.51298 0.51478 0.0192 0.0
C2577 C 0.53018 0.49936 0.00617 0.0
N2578 N 0.51905 0.45492 0.9809 0.0
N2579 N 0.44836 0.51181 0.03185 0.0
C2580 C 0.50209 0.46876 0.99366 0.0
C2581 C 0.46765 0.50056 0.01915 0.0
N2582 N 0.42732 0.4214 0.98408 0.0
N2583 N 0.54051 0.54425 0.03107 0.0
H2584 H 0.41508 0.50118 0.03143 0.0
H2585 H 0.46403 0.52864 0.04305 0.0
H2586 H 0.57407 0.55643 0.03067 0.0
H2587 H 0.53091 0.55878 0.04046 0.0
H2588 H 0.43453 0.40157 0.97648 0.0
H2589 H 0.39441 0.41243 0.98447 0.0
H2590 H 0.50072 0.43411 0.97092 0.0
H2591 H 0.55247 0.46754 0.97948 0.0
loop_
_geom_bond_atom_site_label_1
_geom_bond_atom_site_label_2
_geom_bond_distance
_geom_bond_site_symmetry_2
_ccdc_geom_bond_type
Mn0 O5 2.095 . S
Mn0 O15 2.162 . S
Mn0 O16 2.297 . S
Mn0 O24 2.385 . S
Mn0 O25 2.209 . S
Mn0 O26 2.094 . S
Mn1 O6 2.121 . S
Mn1 N8 2.257 . S
Mn1 N17 2.282 . S
Mn1 O25 2.215 . S
Mn1 O27 2.117 . S
C2 O24 1.234 . S
C2 O25 1.283 . S
C3 O15 1.281 . S
C3 O16 1.236 . S
C4 O26 1.240 . S
C4 O27 1.264 . S
O5 Mn0 2.095 . S
O5 C14 1.250 . S
O6 Mn1 2.121 . S
O6 C14 1.258 . S
C7 N8 1.326 . S
C7 C11 1.460 . S
C7 H13 0.929 . S
N8 Mn1 2.257 . S
N8 C7 1.326 . S
N8 C12 1.362 . S
C9 C10 1.258 . S
C9 C12 1.431 1_565 S
C9 C29 1.449 . S
C10 C9 1.258 . S
C10 C11 1.477 1_565 S
C10 H30 0.931 . S
C11 C7 1.460 . S
C11 C10 1.477 1_545 S
C11 H31 0.930 . S
C12 N8 1.362 . S
C12 C9 1.431 1_545 S
C12 C22 1.476 . S
H13 C7 0.929 . S
C14 O5 1.250 . S
C14 O6 1.258 . S
O15 Mn0 2.162 . S
O15 C3 1.281 . S
O16 Mn0 2.297 . S
O16 C3 1.236 . S
N17 Mn1 2.282 . S
N17 C18 1.328 . S
N17 C22 1.318 . S
C18 N17 1.328 . S
C18 C19 1.457 . S
C18 H23 0.929 . S
C19 C18 1.457 . S
C19 C20 1.291 1_545 S
C19 H32 0.931 . S
C20 C19 1.291 1_565 S
C20 C21 1.373 . S
C20 H33 0.929 . S
C21 C20 1.373 . S
C21 C22 1.396 1_565 S
C21 C28 1.403 . S
C22 C12 1.476 . S
C22 N17 1.318 . S
C22 C21 1.396 1_545 S
H23 C18 0.929 . S
O24 Mn0 2.385 . S
O24 C2 1.234 . S
O25 Mn0 2.209 . S
O25 Mn1 2.215 . S
O25 C2 1.283 . S
O26 Mn0 2.094 . S
O26 C4 1.240 . S
O27 Mn1 2.117 . S
O27 C4 1.264 . S
C28 C21 1.403 . S
C28 C29 1.399 . S
C28 H34 0.929 . S
C29 C9 1.449 . S
C29 C28 1.399 . S
C29 H35 0.930 . S
H30 C10 0.931 . S
H31 C11 0.930 . S
H32 C19 0.931 . S
H33 C20 0.929 . S
H34 C28 0.929 . S
H35 C29 0.930 . S
Mn36 O41 2.095 1_545 S
Mn36 O51 2.162 1_545 S
Mn36 O52 2.297 1_545 S
Mn36 O60 2.385 . S
Mn36 O61 2.209 . S
Mn36 O62 2.094 . S
Mn37 O42 2.121 . S
Mn37 N44 2.257 . S
Mn37 N53 2.282 . S
Mn37 O61 2.215 . S
Mn37 O63 2.117 . S
C38 O60 1.234 . S
C38 O61 1.283 . S
C39 O51 1.281 . S
C39 O52 1.236 . S
C40 O62 1.240 . S
C40 O63 1.264 . S
O41 Mn36 2.095 1_565 S
O41 C50 1.250 1_565 S
O42 Mn37 2.121 . S
O42 C50 1.258 . S
C43 N44 1.326 . S
C43 C47 1.460 . S
C43 H49 0.929 . S
N44 Mn37 2.257 . S
N44 C43 1.326 . S
N44 C48 1.362 . S
C45 C46 1.258 . S
C45 C48 1.431 1_455 S
C45 C65 1.449 . S
C46 C45 1.258 . S
C46 C47 1.477 1_455 S
C46 H66 0.931 . S
C47 C43 1.460 . S
C47 C46 1.477 1_655 S
C47 H67 0.930 . S
C48 N44 1.362 . S
C48 C45 1.431 1_655 S
C48 C58 1.476 . S
H49 C43 0.929 . S
C50 O41 1.250 1_545 S
C50 O42 1.258 . S
O51 Mn36 2.162 1_565 S
O51 C39 1.281 . S
O52 Mn36 2.297 1_565 S
O52 C39 1.236 . S
N53 Mn37 2.282 . S
N53 C54 1.328 . S
N53 C58 1.318 . S
C54 N53 1.328 . S
C54 C55 1.457 . S
C54 H59 0.929 . S
C55 C54 1.457 . S
C55 C56 1.291 1_655 S
C55 H68 0.931 . S
C56 C55 1.291 1_455 S
C56 C57 1.373 . S
C56 H69 0.929 . S
C57 C56 1.373 . S
C57 C58 1.396 1_455 S
C57 C64 1.403 . S
C58 C48 1.476 . S
C58 N53 1.318 . S
C58 C57 1.396 1_655 S
H59 C54 0.929 . S
O60 Mn36 2.385 . S
O60 C38 1.234 . S
O61 Mn36 2.209 . S
O61 Mn37 2.215 . S
O61 C38 1.283 . S
O62 Mn36 2.094 . S
O62 C40 1.240 . S
O63 Mn37 2.117 . S
O63 C40 1.264 . S
C64 C57 1.403 . S
C64 C65 1.399 . S
C64 H70 0.929 . S
C65 C45 1.449 . S
C65 C64 1.399 . S
C65 H71 0.930 . S
H66 C46 0.931 . S
H67 C47 0.930 . S
H68 C55 0.931 . S
H69 C56 0.929 . S
H70 C64 0.929 . S
H71 C65 0.930 . S
Mn72 O77 2.095 1_655 S
Mn72 O87 2.162 1_655 S
Mn72 O88 2.297 1_655 S
Mn72 O96 2.385 . S
Mn72 O97 2.209 . S
Mn72 O98 2.094 . S
Mn73 O78 2.121 . S
Mn73 N80 2.257 . S
Mn73 N89 2.282 . S
Mn73 O97 2.215 . S
Mn73 O99 2.117 . S
C74 O96 1.234 . S
C74 O97 1.283 . S
C75 O87 1.281 . S
C75 O88 1.236 . S
C76 O98 1.240 . S
C76 O99 1.264 . S
O77 Mn72 2.095 1_455 S
O77 C86 1.250 1_455 S
O78 Mn73 2.121 . S
O78 C86 1.258 . S
C79 N80 1.326 . S
C79 C83 1.460 . S
C79 H85 0.929 . S
N80 Mn73 2.257 . S
N80 C79 1.326 . S
N80 C84 1.362 . S
C81 C82 1.258 . S
C81 C84 1.431 . S
C81 C101 1.449 . S
C82 C81 1.258 . S
C82 C83 1.477 . S
C82 H102 0.931 . S
C83 C79 1.460 . S
C83 C82 1.477 . S
C83 H103 0.930 . S
C84 N80 1.362 . S
C84 C81 1.431 . S
C84 C94 1.476 . S
H85 C79 0.929 . S
C86 O77 1.250 1_655 S
C86 O78 1.258 . S
O87 Mn72 2.162 1_455 S
O87 C75 1.281 . S
O88 Mn72 2.297 1_455 S
O88 C75 1.236 . S
N89 Mn73 2.282 . S
N89 C90 1.328 . S
N89 C94 1.318 . S
C90 N89 1.328 . S
C90 C91 1.457 . S
C90 H95 0.929 . S
C91 C90 1.457 . S
C91 C92 1.291 . S
C91 H104 0.931 . S
C92 C91 1.291 . S
C92 C93 1.373 . S
C92 H105 0.929 . S
C93 C92 1.373 . S
C93 C94 1.396 . S
C93 C100 1.403 . S
C94 C84 1.476 . S
C94 N89 1.318 . S
C94 C93 1.396 . S
H95 C90 0.929 . S
O96 Mn72 2.385 . S
O96 C74 1.234 . S
O97 Mn72 2.209 . S
O97 Mn73 2.215 . S
O97 C74 1.283 . S
O98 Mn72 2.094 . S
O98 C76 1.240 . S
O99 Mn73 2.117 . S
O99 C76 1.264 . S
C100 C93 1.403 . S
C100 C101 1.399 . S
C100 H106 0.929 . S
C101 C81 1.449 . S
C101 C100 1.399 . S
C101 H107 0.930 . S
H102 C82 0.931 . S
H103 C83 0.930 . S
H104 C91 0.931 . S
H105 C92 0.929 . S
H106 C100 0.929 . S
H107 C101 0.930 . S
Mn108 O113 2.095 . S
Mn108 O123 2.162 . S
Mn108 O124 2.297 . S
Mn108 O132 2.385 . S
Mn108 O133 2.209 . S
Mn108 O134 2.094 . S
Mn109 O114 2.121 . S
Mn109 N116 2.257 . S
Mn109 N125 2.282 . S
Mn109 O133 2.215 . S
Mn109 O135 2.117 . S
C110 O132 1.234 . S
C110 O133 1.283 . S
C111 O123 1.281 . S
C111 O124 1.236 . S
C112 O134 1.240 . S
C112 O135 1.264 . S
O113 Mn108 2.095 . S
O113 C122 1.250 . S
O114 Mn109 2.121 . S
O114 C122 1.258 . S
C115 N116 1.326 . S
C115 C119 1.460 . S
C115 H121 0.929 . S
N116 Mn109 2.257 . S
N116 C115 1.326 . S
N116 C120 1.362 . S
C117 C118 1.258 . S
C117 C120 1.431 1_655 S
C117 C137 1.449 . S
C118 C117 1.258 . S
C118 C119 1.477 1_655 S
C118 H138 0.931 . S
C119 C115 1.460 . S
C119 C118 1.477 1_455 S
C119 H139 0.930 . S
C120 N116 1.362 . S
C120 C117 1.431 1_455 S
C120 C130 1.476 . S
H121 C115 0.929 . S
C122 O113 1.250 . S
C122 O114 1.258 . S
O123 Mn108 2.162 . S
O123 C111 1.281 . S
O124 Mn108 2.297 . S
O124 C111 1.236 . S
N125 Mn109 2.282 . S
N125 C126 1.328 . S
N125 C130 1.318 . S
C126 N125 1.328 . S
C126 C127 1.457 . S
C126 H131 0.929 . S
C127 C126 1.457 . S
C127 C128 1.291 1_455 S
C127 H140 0.931 . S
C128 C127 1.291 1_655 S
C128 C129 1.373 . S
C128 H141 0.929 . S
C129 C128 1.373 . S
C129 C130 1.396 1_655 S
C129 C136 1.403 . S
C130 C120 1.476 . S
C130 N125 1.318 . S
C130 C129 1.396 1_455 S
H131 C126 0.929 . S
O132 Mn108 2.385 . S
O132 C110 1.234 . S
O133 Mn108 2.209 . S
O133 Mn109 2.215 . S
O133 C110 1.283 . S
O134 Mn108 2.094 . S
O134 C112 1.240 . S
O135 Mn109 2.117 . S
O135 C112 1.264 . S
C136 C129 1.403 . S
C136 C137 1.399 . S
C136 H142 0.929 . S
C137 C117 1.449 . S
C137 C136 1.399 . S
C137 H143 0.930 . S
H138 C118 0.931 . S
H139 C119 0.930 . S
H140 C127 0.931 . S
H141 C128 0.929 . S
H142 C136 0.929 . S
H143 C137 0.930 . S
Mn144 O149 2.095 1_565 S
Mn144 O159 2.162 1_565 S
Mn144 O160 2.297 1_565 S
Mn144 O168 2.385 . S
Mn144 O169 2.209 . S
Mn144 O170 2.094 . S
Mn145 O150 2.121 . S
Mn145 N152 2.257 . S
Mn145 N161 2.282 . S
Mn145 O169 2.215 . S
Mn145 O171 2.117 . S
C146 O168 1.234 . S
C146 O169 1.283 . S
C147 O159 1.281 . S
C147 O160 1.236 . S
C148 O170 1.240 . S
C148 O171 1.264 . S
O149 Mn144 2.095 1_545 S
O149 C158 1.250 1_545 S
O150 Mn145 2.121 . S
O150 C158 1.258 . S
C151 N152 1.326 . S
C151 C155 1.460 . S
C151 H157 0.929 . S
N152 Mn145 2.257 . S
N152 C151 1.326 . S
N152 C156 1.362 . S
C153 C154 1.258 . S
C153 C156 1.431 . S
C153 C173 1.449 . S
C154 C153 1.258 . S
C154 C155 1.477 . S
C154 H174 0.931 . S
C155 C151 1.460 . S
C155 C154 1.477 . S
C155 H175 0.930 . S
C156 N152 1.362 . S
C156 C153 1.431 . S
C156 C166 1.476 . S
H157 C151 0.929 . S
C158 O149 1.250 1_565 S
C158 O150 1.258 . S
O159 Mn144 2.162 1_545 S
O159 C147 1.281 . S
O160 Mn144 2.297 1_545 S
O160 C147 1.236 . S
N161 Mn145 2.282 . S
N161 C162 1.328 . S
N161 C166 1.318 . S
C162 N161 1.328 . S
C162 C163 1.457 . S
C162 H167 0.929 . S
C163 C162 1.457 . S
C163 C164 1.291 . S
C163 H176 0.931 . S
C164 C163 1.291 . S
C164 C165 1.373 . S
C164 H177 0.929 . S
C165 C164 1.373 . S
C165 C166 1.396 . S
C165 C172 1.403 . S
C166 C156 1.476 . S
C166 N161 1.318 . S
C166 C165 1.396 . S
H167 C162 0.929 . S
O168 Mn144 2.385 . S
O168 C146 1.234 . S
O169 Mn144 2.209 . S
O169 Mn145 2.215 . S
O169 C146 1.283 . S
O170 Mn144 2.094 . S
O170 C148 1.240 . S
O171 Mn145 2.117 . S
O171 C148 1.264 . S
C172 C165 1.403 . S
C172 C173 1.399 . S
C172 H178 0.929 . S
C173 C153 1.449 . S
C173 C172 1.399 . S
C173 H179 0.930 . S
H174 C154 0.931 . S
H175 C155 0.930 . S
H176 C163 0.931 . S
H177 C164 0.929 . S
H178 C172 0.929 . S
H179 C173 0.930 . S
Mn180 O185 2.095 1_455 S
Mn180 O195 2.162 1_455 S
Mn180 O196 2.297 1_455 S
Mn180 O204 2.385 . S
Mn180 O205 2.209 . S
Mn180 O206 2.094 . S
Mn181 O186 2.121 . S
Mn181 N188 2.257 . S
Mn181 N197 2.282 . S
Mn181 O205 2.215 . S
Mn181 O207 2.117 . S
C182 O204 1.234 . S
C182 O205 1.283 . S
C183 O195 1.281 . S
C183 O196 1.236 . S
C184 O206 1.240 . S
C184 O207 1.264 . S
O185 Mn180 2.095 1_655 S
O185 C194 1.250 1_655 S
O186 Mn181 2.121 . S
O186 C194 1.258 . S
C187 N188 1.326 . S
C187 C191 1.460 . S
C187 H193 0.929 . S
N188 Mn181 2.257 . S
N188 C187 1.326 . S
N188 C192 1.362 . S
C189 C190 1.258 . S
C189 C192 1.431 1_545 S
C189 C209 1.449 . S
C190 C189 1.258 . S
C190 C191 1.477 1_545 S
C190 H210 0.931 . S
C191 C187 1.460 . S
C191 C190 1.477 1_565 S
C191 H211 0.930 . S
C192 N188 1.362 . S
C192 C189 1.431 1_565 S
C192 C202 1.476 . S
H193 C187 0.929 . S
C194 O185 1.250 1_455 S
C194 O186 1.258 . S
O195 Mn180 2.162 1_655 S
O195 C183 1.281 . S
O196 Mn180 2.297 1_655 S
O196 C183 1.236 . S
N197 Mn181 2.282 . S
N197 C198 1.328 . S
N197 C202 1.318 . S
C198 N197 1.328 . S
C198 C199 1.457 . S
C198 H203 0.929 . S
C199 C198 1.457 . S
C199 C200 1.291 1_565 S
C199 H212 0.931 . S
C200 C199 1.291 1_545 S
C200 C201 1.373 . S
C200 H213 0.929 . S
C201 C200 1.373 . S
C201 C202 1.396 1_545 S
C201 C208 1.403 . S
C202 C192 1.476 . S
C202 N197 1.318 . S
C202 C201 1.396 1_565 S
H203 C198 0.929 . S
O204 Mn180 2.385 . S
O204 C182 1.234 . S
O205 Mn180 2.209 . S
O205 Mn181 2.215 . S
O205 C182 1.283 . S
O206 Mn180 2.094 . S
O206 C184 1.240 . S
O207 Mn181 2.117 . S
O207 C184 1.264 . S
C208 C201 1.403 . S
C208 C209 1.399 . S
C208 H214 0.929 . S
C209 C189 1.449 . S
C209 C208 1.399 . S
C209 H215 0.930 . S
H210 C190 0.931 . S
H211 C191 0.930 . S
H212 C199 0.931 . S
H213 C200 0.929 . S
H214 C208 0.929 . S
H215 C209 0.930 . S
Mn216 O221 2.095 . S
Mn216 O231 2.162 . S
Mn216 O232 2.297 . S
Mn216 O240 2.385 . S
Mn216 O241 2.209 . S
Mn216 O242 2.094 . S
Mn217 O222 2.121 . S
Mn217 N224 2.257 . S
Mn217 N233 2.282 . S
Mn217 O241 2.215 . S
Mn217 O243 2.117 . S
C218 O240 1.234 . S
C218 O241 1.283 . S
C219 O231 1.281 . S
C219 O232 1.236 . S
C220 O242 1.240 . S
C220 O243 1.264 . S
O221 Mn216 2.095 . S
O221 C230 1.250 . S
O222 Mn217 2.121 . S
O222 C230 1.258 . S
C223 N224 1.326 . S
C223 C227 1.460 . S
C223 H229 0.929 . S
N224 Mn217 2.257 . S
N224 C223 1.326 . S
N224 C228 1.362 . S
C225 C226 1.258 . S
C225 C228 1.431 1_545 S
C225 C245 1.449 1_655 S
C226 C225 1.258 . S
C226 C227 1.477 1_545 S
C226 H246 0.931 . S
C227 C223 1.460 . S
C227 C226 1.477 1_565 S
C227 H247 0.930 . S
C228 N224 1.362 . S
C228 C225 1.431 1_565 S
C228 C238 1.470 . S
H229 C223 0.929 . S
C230 O221 1.250 . S
C230 O222 1.258 . S
O231 Mn216 2.162 . S
O231 C219 1.281 . S
O232 Mn216 2.297 . S
O232 C219 1.236 . S
N233 Mn217 2.282 . S
N233 C234 1.328 . S
N233 C238 1.344 . S
C234 N233 1.328 . S
C234 C235 1.457 1_665 S
C234 H239 0.929 . S
C235 C234 1.457 1_445 S
C235 C236 1.291 . S
C235 H248 0.931 . S
C236 C235 1.291 . S
C236 C237 1.373 . S
C236 H249 0.929 . S
C237 C236 1.373 . S
C237 C238 1.377 1_445 S
C237 C244 1.403 . S
C238 C228 1.470 . S
C238 N233 1.344 . S
C238 C237 1.377 1_665 S
H239 C234 0.929 . S
O240 Mn216 2.385 . S
O240 C218 1.234 . S
O241 Mn216 2.209 . S
O241 Mn217 2.215 . S
O241 C218 1.283 . S
O242 Mn216 2.094 . S
O242 C220 1.240 . S
O243 Mn217 2.117 . S
O243 C220 1.264 . S
C244 C237 1.403 . S
C244 C245 1.399 . S
C244 H250 0.929 . S
C245 C225 1.449 1_455 S
C245 C244 1.399 . S
C245 H251 0.930 . S
H246 C226 0.931 . S
H247 C227 0.930 . S
H248 C235 0.931 . S
H249 C236 0.929 . S
H250 C244 0.929 . S
H251 C245 0.930 . S
Mn252 O257 2.095 1_565 S
Mn252 O267 2.162 . S
Mn252 O268 2.297 . S
Mn252 O276 2.385 . S
Mn252 O277 2.209 . S
Mn252 O278 2.094 1_565 S
Mn253 O258 2.121 . S
Mn253 N260 2.257 1_545 S
Mn253 N269 2.284 1_545 S
Mn253 O277 2.215 1_545 S
Mn253 O279 2.117 . S
C254 O276 1.234 . S
C254 O277 1.283 . S
C255 O267 1.281 . S
C255 O268 1.236 . S
C256 O278 1.240 . S
C256 O279 1.264 . S
O257 Mn252 2.095 1_545 S
O257 C266 1.250 . S
O258 Mn253 2.121 . S
O258 C266 1.258 . S
C259 N260 1.326 . S
C259 C263 1.460 . S
C259 H265 0.929 . S
N260 Mn253 2.257 1_565 S
N260 C259 1.326 . S
N260 C264 1.362 . S
C261 C262 1.258 . S
C261 C264 1.431 1_655 S
C261 C281 1.449 . S
C262 C261 1.258 . S
C262 C263 1.477 1_655 S
C262 H282 0.931 . S
C263 C259 1.460 . S
C263 C262 1.477 1_455 S
C263 H283 0.930 . S
C264 N260 1.362 . S
C264 C261 1.431 1_455 S
C264 C274 1.478 . S
H265 C259 0.929 . S
C266 O257 1.250 . S
C266 O258 1.258 . S
O267 Mn252 2.162 . S
O267 C255 1.281 . S
O268 Mn252 2.297 . S
O268 C255 1.236 . S
N269 Mn253 2.284 1_565 S
N269 C270 1.325 1_565 S
N269 C274 1.325 . S
C270 N269 1.325 1_545 S
C270 C271 1.457 1_455 S
C270 H275 0.929 . S
C271 C270 1.457 1_655 S
C271 C272 1.291 1_545 S
C271 H284 0.931 . S
C272 C271 1.291 1_565 S
C272 C273 1.373 . S
C272 H285 0.929 . S
C273 C272 1.373 . S
C273 C274 1.388 1_655 S
C273 C280 1.403 . S
C274 C264 1.478 . S
C274 N269 1.325 . S
C274 C273 1.388 1_455 S
H275 C270 0.929 . S
O276 Mn252 2.385 . S
O276 C254 1.234 . S
O277 Mn252 2.209 . S
O277 Mn253 2.215 1_565 S
O277 C254 1.283 . S
O278 Mn252 2.094 1_545 S
O278 C256 1.240 . S
O279 Mn253 2.117 . S
O279 C256 1.264 . S
C280 C273 1.403 . S
C280 C281 1.399 . S
C280 H286 0.929 . S
C281 C261 1.449 . S
C281 C280 1.399 . S
C281 H287 0.930 . S
H282 C262 0.931 . S
H283 C263 0.930 . S
H284 C271 0.931 . S
H285 C272 0.929 . S
H286 C280 0.929 . S
H287 C281 0.930 . S
Mn288 O293 2.095 1_455 S
Mn288 O303 2.162 . S
Mn288 O304 2.297 . S
Mn288 O312 2.385 . S
Mn288 O313 2.209 . S
Mn288 O314 2.094 1_455 S
Mn289 O294 2.121 . S
Mn289 N296 2.257 1_655 S
Mn289 N305 2.288 . S
Mn289 O313 2.215 1_655 S
Mn289 O315 2.117 . S
C290 O312 1.234 . S
C290 O313 1.283 . S
C291 O303 1.281 . S
C291 O304 1.236 . S
C292 O314 1.240 . S
C292 O315 1.264 . S
O293 Mn288 2.095 1_655 S
O293 C302 1.250 . S
O294 Mn289 2.121 . S
O294 C302 1.258 . S
C295 N296 1.326 . S
C295 C299 1.460 . S
C295 H301 0.929 . S
N296 Mn289 2.257 1_455 S
N296 C295 1.326 . S
N296 C300 1.362 . S
C297 C298 1.258 . S
C297 C300 1.431 . S
C297 C317 1.428 1_545 S
C298 C297 1.258 . S
C298 C299 1.477 . S
C298 H318 0.931 . S
C299 C295 1.460 . S
C299 C298 1.477 . S
C299 H319 0.930 . S
C300 N296 1.362 . S
C300 C297 1.431 . S
C300 C310 1.476 . S
H301 C295 0.929 . S
C302 O293 1.250 . S
C302 O294 1.258 . S
O303 Mn288 2.162 . S
O303 C291 1.281 . S
O304 Mn288 2.297 . S
O304 C291 1.236 . S
N305 Mn289 2.288 . S
N305 C306 1.330 . S
N305 C310 1.308 1_655 S
C306 N305 1.330 . S
C306 C307 1.457 1_545 S
C306 H311 0.929 . S
C307 C306 1.457 1_565 S
C307 C308 1.291 1_655 S
C307 H320 0.931 . S
C308 C307 1.291 1_455 S
C308 C309 1.373 . S
C308 H321 0.929 . S
C309 C308 1.373 . S
C309 C310 1.396 1_565 S
C309 C316 1.403 . S
C310 C300 1.476 . S
C310 N305 1.308 1_455 S
C310 C309 1.396 1_545 S
H311 C306 0.929 . S
O312 Mn288 2.385 . S
O312 C290 1.234 . S
O313 Mn288 2.209 . S
O313 Mn289 2.215 1_455 S
O313 C290 1.283 . S
O314 Mn288 2.094 1_655 S
O314 C292 1.240 . S
O315 Mn289 2.117 . S
O315 C292 1.264 . S
C316 C309 1.403 . S
C316 C317 1.405 . S
C316 H322 0.929 . S
C317 C297 1.428 1_565 S
C317 C316 1.405 . S
C317 H323 0.946 . S
H318 C298 0.931 . S
H319 C299 0.930 . S
H320 C307 0.931 . S
H321 C308 0.929 . S
H322 C316 0.929 . S
H323 C317 0.946 . S
Mn324 O329 2.095 . S
Mn324 O339 2.162 . S
Mn324 O340 2.297 . S
Mn324 O348 2.385 . S
Mn324 O349 2.209 . S
Mn324 O350 2.094 . S
Mn325 O330 2.121 . S
Mn325 N332 2.257 . S
Mn325 N341 2.282 . S
Mn325 O349 2.215 . S
Mn325 O351 2.117 . S
C326 O348 1.234 . S
C326 O349 1.283 . S
C327 O339 1.281 . S
C327 O340 1.236 . S
C328 O350 1.240 . S
C328 O351 1.264 . S
O329 Mn324 2.095 . S
O329 C338 1.250 . S
O330 Mn325 2.121 . S
O330 C338 1.258 . S
C331 N332 1.326 . S
C331 C335 1.460 . S
C331 H337 0.929 . S
N332 Mn325 2.257 . S
N332 C331 1.326 . S
N332 C336 1.362 . S
C333 C334 1.258 . S
C333 C336 1.431 1_455 S
C333 C353 1.448 1_565 S
C334 C333 1.258 . S
C334 C335 1.477 1_455 S
C334 H354 0.931 . S
C335 C331 1.460 . S
C335 C334 1.477 1_655 S
C335 H355 0.930 . S
C336 N332 1.362 . S
C336 C333 1.431 1_655 S
C336 C346 1.470 . S
H337 C331 0.929 . S
C338 O329 1.250 . S
C338 O330 1.258 . S
O339 Mn324 2.162 . S
O339 C327 1.281 . S
O340 Mn324 2.297 . S
O340 C327 1.236 . S
N341 Mn325 2.282 . S
N341 C342 1.328 . S
N341 C346 1.344 . S
C342 N341 1.328 . S
C342 C343 1.457 1_665 S
C342 H347 0.929 . S
C343 C342 1.457 1_445 S
C343 C344 1.291 . S
C343 H356 0.931 . S
C344 C343 1.291 . S
C344 C345 1.373 . S
C344 H357 0.929 . S
C345 C344 1.373 . S
C345 C346 1.376 1_445 S
C345 C352 1.403 . S
C346 C336 1.470 . S
C346 N341 1.344 . S
C346 C345 1.376 1_665 S
H347 C342 0.929 . S
O348 Mn324 2.385 . S
O348 C326 1.234 . S
O349 Mn324 2.209 . S
O349 Mn325 2.215 . S
O349 C326 1.283 . S
O350 Mn324 2.094 . S
O350 C328 1.240 . S
O351 Mn325 2.117 . S
O351 C328 1.264 . S
C352 C345 1.403 . S
C352 C353 1.400 . S
C352 H358 0.929 . S
C353 C333 1.448 1_545 S
C353 C352 1.400 . S
C353 H359 0.930 . S
H354 C334 0.931 . S
H355 C335 0.930 . S
H356 C343 0.931 . S
H357 C344 0.929 . S
H358 C352 0.929 . S
H359 C353 0.930 . S
Mn360 O365 2.095 1_545 S
Mn360 O375 2.162 . S
Mn360 O376 2.297 . S
Mn360 O384 2.385 . S
Mn360 O385 2.209 . S
Mn360 O386 2.094 1_545 S
Mn361 O366 2.121 . S
Mn361 N368 2.257 1_565 S
Mn361 N377 2.287 . S
Mn361 O385 2.215 1_565 S
Mn361 O387 2.117 . S
C362 O384 1.234 . S
C362 O385 1.283 . S
C363 O375 1.281 . S
C363 O376 1.236 . S
C364 O386 1.240 . S
C364 O387 1.264 . S
O365 Mn360 2.095 1_565 S
O365 C374 1.250 . S
O366 Mn361 2.121 . S
O366 C374 1.258 . S
C367 N368 1.326 . S
C367 C371 1.460 . S
C367 H373 0.929 . S
N368 Mn361 2.257 1_545 S
N368 C367 1.326 . S
N368 C372 1.362 . S
C369 C370 1.258 . S
C369 C372 1.431 . S
C369 C389 1.428 1_455 S
C370 C369 1.258 . S
C370 C371 1.477 . S
C370 H390 0.931 . S
C371 C367 1.460 . S
C371 C370 1.477 . S
C371 H391 0.930 . S
C372 N368 1.362 . S
C372 C369 1.431 . S
C372 C382 1.476 . S
H373 C367 0.929 . S
C374 O365 1.250 . S
C374 O366 1.258 . S
O375 Mn360 2.162 . S
O375 C363 1.281 . S
O376 Mn360 2.297 . S
O376 C363 1.236 . S
N377 Mn361 2.287 . S
N377 C378 1.330 . S
N377 C382 1.310 1_565 S
C378 N377 1.330 . S
C378 C379 1.457 1_455 S
C378 H383 0.929 . S
C379 C378 1.457 1_655 S
C379 C380 1.291 1_565 S
C379 H392 0.931 . S
C380 C379 1.291 1_545 S
C380 C381 1.373 . S
C380 H393 0.929 . S
C381 C380 1.373 . S
C381 C382 1.396 1_655 S
C381 C388 1.403 . S
C382 C372 1.476 . S
C382 N377 1.310 1_545 S
C382 C381 1.396 1_455 S
H383 C378 0.929 . S
O384 Mn360 2.385 . S
O384 C362 1.234 . S
O385 Mn360 2.209 . S
O385 Mn361 2.215 1_545 S
O385 C362 1.283 . S
O386 Mn360 2.094 1_565 S
O386 C364 1.240 . S
O387 Mn361 2.117 . S
O387 C364 1.264 . S
C388 C381 1.403 . S
C388 C389 1.405 . S
C388 H394 0.929 . S
C389 C369 1.428 1_655 S
C389 C388 1.405 . S
C389 H395 0.946 . S
H390 C370 0.931 . S
H391 C371 0.930 . S
H392 C379 0.931 . S
H393 C380 0.929 . S
H394 C388 0.929 . S
H395 C389 0.946 . S
Mn396 O401 2.095 1_655 S
Mn396 O411 2.162 . S
Mn396 O412 2.297 . S
Mn396 O420 2.385 . S
Mn396 O421 2.209 . S
Mn396 O422 2.094 1_655 S
Mn397 O402 2.121 . S
Mn397 N404 2.257 1_455 S
Mn397 N413 2.284 1_455 S
Mn397 O421 2.215 1_455 S
Mn397 O423 2.117 . S
C398 O420 1.234 . S
C398 O421 1.283 . S
C399 O411 1.281 . S
C399 O412 1.236 . S
C400 O422 1.240 . S
C400 O423 1.264 . S
O401 Mn396 2.095 1_455 S
O401 C410 1.250 . S
O402 Mn397 2.121 . S
O402 C410 1.258 . S
C403 N404 1.326 . S
C403 C407 1.460 . S
C403 H409 0.929 . S
N404 Mn397 2.257 1_655 S
N404 C403 1.326 . S
N404 C408 1.362 . S
C405 C406 1.258 . S
C405 C408 1.431 1_565 S
C405 C425 1.449 . S
C406 C405 1.258 . S
C406 C407 1.477 1_565 S
C406 H426 0.931 . S
C407 C403 1.460 . S
C407 C406 1.477 1_545 S
C407 H427 0.930 . S
C408 N404 1.362 . S
C408 C405 1.431 1_545 S
C408 C418 1.479 . S
H409 C403 0.929 . S
C410 O401 1.250 . S
C410 O402 1.258 . S
O411 Mn396 2.162 . S
O411 C399 1.281 . S
O412 Mn396 2.297 . S
O412 C399 1.236 . S
N413 Mn397 2.284 1_655 S
N413 C414 1.325 1_655 S
N413 C418 1.326 . S
C414 N413 1.325 1_455 S
C414 C415 1.457 1_545 S
C414 H419 0.929 . S
C415 C414 1.457 1_565 S
C415 C416 1.291 1_455 S
C415 H428 0.931 . S
C416 C415 1.291 1_655 S
C416 C417 1.373 . S
C416 H429 0.929 . S
C417 C416 1.373 . S
C417 C418 1.386 1_565 S
C417 C424 1.403 . S
C418 C408 1.479 . S
C418 N413 1.326 . S
C418 C417 1.386 1_545 S
H419 C414 0.929 . S
O420 Mn396 2.385 . S
O420 C398 1.234 . S
O421 Mn396 2.209 . S
O421 Mn397 2.215 1_655 S
O421 C398 1.283 . S
O422 Mn396 2.094 1_455 S
O422 C400 1.240 . S
O423 Mn397 2.117 . S
O423 C400 1.264 . S
C424 C417 1.403 . S
C424 C425 1.399 . S
C424 H430 0.929 . S
C425 C405 1.449 . S
C425 C424 1.399 . S
C425 H431 0.930 . S
H426 C406 0.931 . S
H427 C407 0.930 . S
H428 C415 0.931 . S
H429 C416 0.929 . S
H430 C424 0.929 . S
H431 C425 0.930 . S
Mn432 O437 2.095 . S
Mn432 O447 2.162 . S
Mn432 O448 2.297 . S
Mn432 O456 2.385 . S
Mn432 O457 2.209 . S
Mn432 O458 2.094 . S
Mn433 O438 2.121 . S
Mn433 N440 2.257 . S
Mn433 N449 2.282 . S
Mn433 O457 2.215 . S
Mn433 O459 2.117 . S
C434 O456 1.234 . S
C434 O457 1.283 . S
C435 O447 1.281 . S
C435 O448 1.236 . S
C436 O458 1.240 . S
C436 O459 1.264 . S
O437 Mn432 2.095 . S
O437 C446 1.250 . S
O438 Mn433 2.121 . S
O438 C446 1.258 . S
C439 N440 1.326 . S
C439 C443 1.460 . S
C439 H445 0.929 . S
N440 Mn433 2.257 . S
N440 C439 1.326 . S
N440 C444 1.362 . S
C441 C442 1.258 . S
C441 C444 1.431 . S
C441 C461 1.449 . S
C442 C441 1.258 . S
C442 C443 1.477 . S
C442 H462 0.931 . S
C443 C439 1.460 . S
C443 C442 1.477 . S
C443 H463 0.930 . S
C444 N440 1.362 . S
C444 C441 1.431 . S
C444 C454 1.476 . S
H445 C439 0.929 . S
C446 O437 1.250 . S
C446 O438 1.258 . S
O447 Mn432 2.162 . S
O447 C435 1.281 . S
O448 Mn432 2.297 . S
O448 C435 1.236 . S
N449 Mn433 2.282 . S
N449 C450 1.328 . S
N449 C454 1.318 . S
C450 N449 1.328 . S
C450 C451 1.457 . S
C450 H455 0.929 . S
C451 C450 1.457 . S
C451 C452 1.291 . S
C451 H464 0.931 . S
C452 C451 1.291 . S
C452 C453 1.373 . S
C452 H465 0.929 . S
C453 C452 1.373 . S
C453 C454 1.396 . S
C453 C460 1.403 . S
C454 C444 1.476 . S
C454 N449 1.318 . S
C454 C453 1.396 . S
H455 C450 0.929 . S
O456 Mn432 2.385 . S
O456 C434 1.234 . S
O457 Mn432 2.209 . S
O457 Mn433 2.215 . S
O457 C434 1.283 . S
O458 Mn432 2.094 . S
O458 C436 1.240 . S
O459 Mn433 2.117 . S
O459 C436 1.264 . S
C460 C453 1.403 . S
C460 C461 1.399 . S
C460 H466 0.929 . S
C461 C441 1.449 . S
C461 C460 1.399 . S
C461 H467 0.930 . S
H462 C442 0.931 . S
H463 C443 0.930 . S
H464 C451 0.931 . S
H465 C452 0.929 . S
H466 C460 0.929 . S
H467 C461 0.930 . S
Mn468 O473 2.095 . S
Mn468 O483 2.162 . S
Mn468 O484 2.297 . S
Mn468 O492 2.385 . S
Mn468 O493 2.209 . S
Mn468 O494 2.094 . S
Mn469 O474 2.121 . S
Mn469 N476 2.257 . S
Mn469 N485 2.282 . S
Mn469 O493 2.215 . S
Mn469 O495 2.117 . S
C470 O492 1.234 . S
C470 O493 1.283 . S
C471 O483 1.281 . S
C471 O484 1.236 . S
C472 O494 1.240 . S
C472 O495 1.264 . S
O473 Mn468 2.095 . S
O473 C482 1.250 . S
O474 Mn469 2.121 . S
O474 C482 1.258 . S
C475 N476 1.326 . S
C475 C479 1.460 . S
C475 H481 0.929 . S
N476 Mn469 2.257 . S
N476 C475 1.326 . S
N476 C480 1.362 . S
C477 C478 1.258 . S
C477 C480 1.431 . S
C477 C497 1.449 . S
C478 C477 1.258 . S
C478 C479 1.477 . S
C478 H498 0.931 . S
C479 C475 1.460 . S
C479 C478 1.477 . S
C479 H499 0.930 . S
C480 N476 1.362 . S
C480 C477 1.431 . S
C480 C490 1.476 . S
H481 C475 0.929 . S
C482 O473 1.250 . S
C482 O474 1.258 . S
O483 Mn468 2.162 . S
O483 C471 1.281 . S
O484 Mn468 2.297 . S
O484 C471 1.236 . S
N485 Mn469 2.282 . S
N485 C486 1.328 . S
N485 C490 1.318 . S
C486 N485 1.328 . S
C486 C487 1.457 . S
C486 H491 0.929 . S
C487 C486 1.457 . S
C487 C488 1.291 . S
C487 H500 0.931 . S
C488 C487 1.291 . S
C488 C489 1.373 . S
C488 H501 0.929 . S
C489 C488 1.373 . S
C489 C490 1.396 . S
C489 C496 1.403 . S
C490 C480 1.476 . S
C490 N485 1.318 . S
C490 C489 1.396 . S
H491 C486 0.929 . S
O492 Mn468 2.385 . S
O492 C470 1.234 . S
O493 Mn468 2.209 . S
O493 Mn469 2.215 . S
O493 C470 1.283 . S
O494 Mn468 2.094 . S
O494 C472 1.240 . S
O495 Mn469 2.117 . S
O495 C472 1.264 . S
C496 C489 1.403 . S
C496 C497 1.399 . S
C496 H502 0.929 . S
C497 C477 1.449 . S
C497 C496 1.399 . S
C497 H503 0.930 . S
H498 C478 0.931 . S
H499 C479 0.930 . S
H500 C487 0.931 . S
H501 C488 0.929 . S
H502 C496 0.929 . S
H503 C497 0.930 . S
Mn504 O509 2.095 . S
Mn504 O519 2.162 . S
Mn504 O520 2.297 . S
Mn504 O528 2.385 . S
Mn504 O529 2.209 . S
Mn504 O530 2.094 . S
Mn505 O510 2.121 . S
Mn505 N512 2.257 . S
Mn505 N521 2.282 . S
Mn505 O529 2.215 . S
Mn505 O531 2.117 . S
C506 O528 1.234 . S
C506 O529 1.283 . S
C507 O519 1.281 . S
C507 O520 1.236 . S
C508 O530 1.240 . S
C508 O531 1.264 . S
O509 Mn504 2.095 . S
O509 C518 1.250 . S
O510 Mn505 2.121 . S
O510 C518 1.258 . S
C511 N512 1.326 . S
C511 C515 1.460 . S
C511 H517 0.929 . S
N512 Mn505 2.257 . S
N512 C511 1.326 . S
N512 C516 1.362 . S
C513 C514 1.258 . S
C513 C516 1.431 . S
C513 C533 1.449 . S
C514 C513 1.258 . S
C514 C515 1.477 . S
C514 H534 0.931 . S
C515 C511 1.460 . S
C515 C514 1.477 . S
C515 H535 0.930 . S
C516 N512 1.362 . S
C516 C513 1.431 . S
C516 C526 1.476 . S
H517 C511 0.929 . S
C518 O509 1.250 . S
C518 O510 1.258 . S
O519 Mn504 2.162 . S
O519 C507 1.281 . S
O520 Mn504 2.297 . S
O520 C507 1.236 . S
N521 Mn505 2.282 . S
N521 C522 1.328 . S
N521 C526 1.318 . S
C522 N521 1.328 . S
C522 C523 1.457 . S
C522 H527 0.929 . S
C523 C522 1.457 . S
C523 C524 1.291 . S
C523 H536 0.931 . S
C524 C523 1.291 . S
C524 C525 1.373 . S
C524 H537 0.929 . S
C525 C524 1.373 . S
C525 C526 1.396 . S
C525 C532 1.403 . S
C526 C516 1.476 . S
C526 N521 1.318 . S
C526 C525 1.396 . S
H527 C522 0.929 . S
O528 Mn504 2.385 . S
O528 C506 1.234 . S
O529 Mn504 2.209 . S
O529 Mn505 2.215 . S
O529 C506 1.283 . S
O530 Mn504 2.094 . S
O530 C508 1.240 . S
O531 Mn505 2.117 . S
O531 C508 1.264 . S
C532 C525 1.403 . S
C532 C533 1.399 . S
C532 H538 0.929 . S
C533 C513 1.449 . S
C533 C532 1.399 . S
C533 H539 0.930 . S
H534 C514 0.931 . S
H535 C515 0.930 . S
H536 C523 0.931 . S
H537 C524 0.929 . S
H538 C532 0.929 . S
H539 C533 0.930 . S
Mn540 O545 2.095 . S
Mn540 O555 2.162 . S
Mn540 O556 2.297 . S
Mn540 O564 2.385 . S
Mn540 O565 2.209 . S
Mn540 O566 2.094 . S
Mn541 O546 2.121 . S
Mn541 N548 2.257 . S
Mn541 N557 2.282 . S
Mn541 O565 2.215 . S
Mn541 O567 2.117 . S
C542 O564 1.234 . S
C542 O565 1.283 . S
C543 O555 1.281 . S
C543 O556 1.236 . S
C544 O566 1.240 . S
C544 O567 1.264 . S
O545 Mn540 2.095 . S
O545 C554 1.250 . S
O546 Mn541 2.121 . S
O546 C554 1.258 . S
C547 N548 1.326 . S
C547 C551 1.460 . S
C547 H553 0.929 . S
N548 Mn541 2.257 . S
N548 C547 1.326 . S
N548 C552 1.362 . S
C549 C550 1.258 . S
C549 C552 1.431 . S
C549 C569 1.449 . S
C550 C549 1.258 . S
C550 C551 1.477 . S
C550 H570 0.931 . S
C551 C547 1.460 . S
C551 C550 1.477 . S
C551 H571 0.930 . S
C552 N548 1.362 . S
C552 C549 1.431 . S
C552 C562 1.476 . S
H553 C547 0.929 . S
C554 O545 1.250 . S
C554 O546 1.258 . S
O555 Mn540 2.162 . S
O555 C543 1.281 . S
O556 Mn540 2.297 . S
O556 C543 1.236 . S
N557 Mn541 2.282 . S
N557 C558 1.328 . S
N557 C562 1.318 . S
C558 N557 1.328 . S
C558 C559 1.457 . S
C558 H563 0.929 . S
C559 C558 1.457 . S
C559 C560 1.291 . S
C559 H572 0.931 . S
C560 C559 1.291 . S
C560 C561 1.373 . S
C560 H573 0.929 . S
C561 C560 1.373 . S
C561 C562 1.396 . S
C561 C568 1.403 . S
C562 C552 1.476 . S
C562 N557 1.318 . S
C562 C561 1.396 . S
H563 C558 0.929 . S
O564 Mn540 2.385 . S
O564 C542 1.234 . S
O565 Mn540 2.209 . S
O565 Mn541 2.215 . S
O565 C542 1.283 . S
O566 Mn540 2.094 . S
O566 C544 1.240 . S
O567 Mn541 2.117 . S
O567 C544 1.264 . S
C568 C561 1.403 . S
C568 C569 1.399 . S
C568 H574 0.929 . S
C569 C549 1.449 . S
C569 C568 1.399 . S
C569 H575 0.930 . S
H570 C550 0.931 . S
H571 C551 0.930 . S
H572 C559 0.931 . S
H573 C560 0.929 . S
H574 C568 0.929 . S
H575 C569 0.930 . S
Mn576 O581 2.095 . S
Mn576 O591 2.162 . S
Mn576 O592 2.297 . S
Mn576 O600 2.385 . S
Mn576 O601 2.209 . S
Mn576 O602 2.094 . S
Mn577 O582 2.121 . S
Mn577 N584 2.257 . S
Mn577 N593 2.282 . S
Mn577 O601 2.215 . S
Mn577 O603 2.117 . S
C578 O600 1.234 . S
C578 O601 1.283 . S
C579 O591 1.281 . S
C579 O592 1.236 . S
C580 O602 1.240 . S
C580 O603 1.264 . S
O581 Mn576 2.095 . S
O581 C590 1.250 . S
O582 Mn577 2.121 . S
O582 C590 1.258 . S
C583 N584 1.326 . S
C583 C587 1.460 . S
C583 H589 0.929 . S
N584 Mn577 2.257 . S
N584 C583 1.326 . S
N584 C588 1.362 . S
C585 C586 1.258 . S
C585 C588 1.431 . S
C585 C605 1.449 . S
C586 C585 1.258 . S
C586 C587 1.477 . S
C586 H606 0.931 . S
C587 C583 1.460 . S
C587 C586 1.477 . S
C587 H607 0.930 . S
C588 N584 1.362 . S
C588 C585 1.431 . S
C588 C598 1.476 . S
H589 C583 0.929 . S
C590 O581 1.250 . S
C590 O582 1.258 . S
O591 Mn576 2.162 . S
O591 C579 1.281 . S
O592 Mn576 2.297 . S
O592 C579 1.236 . S
N593 Mn577 2.282 . S
N593 C594 1.328 . S
N593 C598 1.318 . S
C594 N593 1.328 . S
C594 C595 1.457 . S
C594 H599 0.929 . S
C595 C594 1.457 . S
C595 C596 1.291 . S
C595 H608 0.931 . S
C596 C595 1.291 . S
C596 C597 1.373 . S
C596 H609 0.929 . S
C597 C596 1.373 . S
C597 C598 1.396 . S
C597 C604 1.403 . S
C598 C588 1.476 . S
C598 N593 1.318 . S
C598 C597 1.396 . S
H599 C594 0.929 . S
O600 Mn576 2.385 . S
O600 C578 1.234 . S
O601 Mn576 2.209 . S
O601 Mn577 2.215 . S
O601 C578 1.283 . S
O602 Mn576 2.094 . S
O602 C580 1.240 . S
O603 Mn577 2.117 . S
O603 C580 1.264 . S
C604 C597 1.403 . S
C604 C605 1.399 . S
C604 H610 0.929 . S
C605 C585 1.449 . S
C605 C604 1.399 . S
C605 H611 0.930 . S
H606 C586 0.931 . S
H607 C587 0.930 . S
H608 C595 0.931 . S
H609 C596 0.929 . S
H610 C604 0.929 . S
H611 C605 0.930 . S
Mn612 O617 2.095 . S
Mn612 O627 2.162 . S
Mn612 O628 2.297 . S
Mn612 O636 2.385 . S
Mn612 O637 2.209 . S
Mn612 O638 2.094 . S
Mn613 O618 2.121 . S
Mn613 N620 2.257 . S
Mn613 N629 2.282 . S
Mn613 O637 2.215 . S
Mn613 O639 2.117 . S
C614 O636 1.234 . S
C614 O637 1.283 . S
C615 O627 1.281 . S
C615 O628 1.236 . S
C616 O638 1.240 . S
C616 O639 1.264 . S
O617 Mn612 2.095 . S
O617 C626 1.250 . S
O618 Mn613 2.121 . S
O618 C626 1.258 . S
C619 N620 1.326 . S
C619 C623 1.460 . S
C619 H625 0.929 . S
N620 Mn613 2.257 . S
N620 C619 1.326 . S
N620 C624 1.362 . S
C621 C622 1.258 . S
C621 C624 1.431 . S
C621 C641 1.449 . S
C622 C621 1.258 . S
C622 C623 1.477 . S
C622 H642 0.931 . S
C623 C619 1.460 . S
C623 C622 1.477 . S
C623 H643 0.930 . S
C624 N620 1.362 . S
C624 C621 1.431 . S
C624 C634 1.476 . S
H625 C619 0.929 . S
C626 O617 1.250 . S
C626 O618 1.258 . S
O627 Mn612 2.162 . S
O627 C615 1.281 . S
O628 Mn612 2.297 . S
O628 C615 1.236 . S
N629 Mn613 2.282 . S
N629 C630 1.328 . S
N629 C634 1.318 . S
C630 N629 1.328 . S
C630 C631 1.457 . S
C630 H635 0.929 . S
C631 C630 1.457 . S
C631 C632 1.291 . S
C631 H644 0.931 . S
C632 C631 1.291 . S
C632 C633 1.373 . S
C632 H645 0.929 . S
C633 C632 1.373 . S
C633 C634 1.396 . S
C633 C640 1.403 . S
C634 C624 1.476 . S
C634 N629 1.318 . S
C634 C633 1.396 . S
H635 C630 0.929 . S
O636 Mn612 2.385 . S
O636 C614 1.234 . S
O637 Mn612 2.209 . S
O637 Mn613 2.215 . S
O637 C614 1.283 . S
O638 Mn612 2.094 . S
O638 C616 1.240 . S
O639 Mn613 2.117 . S
O639 C616 1.264 . S
C640 C633 1.403 . S
C640 C641 1.399 . S
C640 H646 0.929 . S
C641 C621 1.449 . S
C641 C640 1.399 . S
C641 H647 0.930 . S
H642 C622 0.931 . S
H643 C623 0.930 . S
H644 C631 0.931 . S
H645 C632 0.929 . S
H646 C640 0.929 . S
H647 C641 0.930 . S
Mn648 O653 2.095 . S
Mn648 O663 2.162 . S
Mn648 O664 2.297 . S
Mn648 O672 2.385 . S
Mn648 O673 2.209 . S
Mn648 O674 2.094 . S
Mn649 O654 2.121 . S
Mn649 N656 2.257 . S
Mn649 N665 2.282 . S
Mn649 O673 2.215 . S
Mn649 O675 2.117 . S
C650 O672 1.234 . S
C650 O673 1.283 . S
C651 O663 1.281 . S
C651 O664 1.236 . S
C652 O674 1.240 . S
C652 O675 1.264 . S
O653 Mn648 2.095 . S
O653 C662 1.250 . S
O654 Mn649 2.121 . S
O654 C662 1.258 . S
C655 N656 1.326 . S
C655 C659 1.460 . S
C655 H661 0.929 . S
N656 Mn649 2.257 . S
N656 C655 1.326 . S
N656 C660 1.362 . S
C657 C658 1.258 . S
C657 C660 1.431 . S
C657 C677 1.449 . S
C658 C657 1.258 . S
C658 C659 1.477 . S
C658 H678 0.931 . S
C659 C655 1.460 . S
C659 C658 1.477 . S
C659 H679 0.930 . S
C660 N656 1.362 . S
C660 C657 1.431 . S
C660 C670 1.476 . S
H661 C655 0.929 . S
C662 O653 1.250 . S
C662 O654 1.258 . S
O663 Mn648 2.162 . S
O663 C651 1.281 . S
O664 Mn648 2.297 . S
O664 C651 1.236 . S
N665 Mn649 2.282 . S
N665 C666 1.328 . S
N665 C670 1.318 . S
C666 N665 1.328 . S
C666 C667 1.457 . S
C666 H671 0.929 . S
C667 C666 1.457 . S
C667 C668 1.291 . S
C667 H680 0.931 . S
C668 C667 1.291 . S
C668 C669 1.373 . S
C668 H681 0.929 . S
C669 C668 1.373 . S
C669 C670 1.396 . S
C669 C676 1.403 . S
C670 C660 1.476 . S
C670 N665 1.318 . S
C670 C669 1.396 . S
H671 C666 0.929 . S
O672 Mn648 2.385 . S
O672 C650 1.234 . S
O673 Mn648 2.209 . S
O673 Mn649 2.215 . S
O673 C650 1.283 . S
O674 Mn648 2.094 . S
O674 C652 1.240 . S
O675 Mn649 2.117 . S
O675 C652 1.264 . S
C676 C669 1.403 . S
C676 C677 1.399 . S
C676 H682 0.929 . S
C677 C657 1.449 . S
C677 C676 1.399 . S
C677 H683 0.930 . S
H678 C658 0.931 . S
H679 C659 0.930 . S
H680 C667 0.931 . S
H681 C668 0.929 . S
H682 C676 0.929 . S
H683 C677 0.930 . S
Mn684 O689 2.095 . S
Mn684 O699 2.162 . S
Mn684 O700 2.297 . S
Mn684 O708 2.385 . S
Mn684 O709 2.209 . S
Mn684 O710 2.094 . S
Mn685 O690 2.121 . S
Mn685 N692 2.257 . S
Mn685 N701 2.282 . S
Mn685 O709 2.215 . S
Mn685 O711 2.117 . S
C686 O708 1.234 . S
C686 O709 1.283 . S
C687 O699 1.281 . S
C687 O700 1.236 . S
C688 O710 1.240 . S
C688 O711 1.264 . S
O689 Mn684 2.095 . S
O689 C698 1.250 . S
O690 Mn685 2.121 . S
O690 C698 1.258 . S
C691 N692 1.326 . S
C691 C695 1.460 . S
C691 H697 0.929 . S
N692 Mn685 2.257 . S
N692 C691 1.326 . S
N692 C696 1.362 . S
C693 C694 1.258 . S
C693 C696 1.431 . S
C693 C713 1.449 . S
C694 C693 1.258 . S
C694 C695 1.477 . S
C694 H714 0.931 . S
C695 C691 1.460 . S
C695 C694 1.477 . S
C695 H715 0.930 . S
C696 N692 1.362 . S
C696 C693 1.431 . S
C696 C706 1.476 . S
H697 C691 0.929 . S
C698 O689 1.250 . S
C698 O690 1.258 . S
O699 Mn684 2.162 . S
O699 C687 1.281 . S
O700 Mn684 2.297 . S
O700 C687 1.236 . S
N701 Mn685 2.282 . S
N701 C702 1.328 . S
N701 C706 1.318 . S
C702 N701 1.328 . S
C702 C703 1.457 . S
C702 H707 0.929 . S
C703 C702 1.457 . S
C703 C704 1.291 . S
C703 H716 0.931 . S
C704 C703 1.291 . S
C704 C705 1.373 . S
C704 H717 0.929 . S
C705 C704 1.373 . S
C705 C706 1.396 . S
C705 C712 1.403 . S
C706 C696 1.476 . S
C706 N701 1.318 . S
C706 C705 1.396 . S
H707 C702 0.929 . S
O708 Mn684 2.385 . S
O708 C686 1.234 . S
O709 Mn684 2.209 . S
O709 Mn685 2.215 . S
O709 C686 1.283 . S
O710 Mn684 2.094 . S
O710 C688 1.240 . S
O711 Mn685 2.117 . S
O711 C688 1.264 . S
C712 C705 1.403 . S
C712 C713 1.399 . S
C712 H718 0.929 . S
C713 C693 1.449 . S
C713 C712 1.399 . S
C713 H719 0.930 . S
H714 C694 0.931 . S
H715 C695 0.930 . S
H716 C703 0.931 . S
H717 C704 0.929 . S
H718 C712 0.929 . S
H719 C713 0.930 . S
Mn720 O725 2.095 . S
Mn720 O735 2.162 . S
Mn720 O736 2.297 . S
Mn720 O744 2.385 . S
Mn720 O745 2.209 . S
Mn720 O746 2.094 . S
Mn721 O726 2.121 . S
Mn721 N728 2.257 . S
Mn721 N737 2.282 . S
Mn721 O745 2.215 . S
Mn721 O747 2.117 . S
C722 O744 1.234 . S
C722 O745 1.283 . S
C723 O735 1.281 . S
C723 O736 1.236 . S
C724 O746 1.240 . S
C724 O747 1.264 . S
O725 Mn720 2.095 . S
O725 C734 1.250 . S
O726 Mn721 2.121 . S
O726 C734 1.258 . S
C727 N728 1.326 . S
C727 C731 1.460 . S
C727 H733 0.929 . S
N728 Mn721 2.257 . S
N728 C727 1.326 . S
N728 C732 1.362 . S
C729 C730 1.258 . S
C729 C732 1.431 . S
C729 C749 1.449 . S
C730 C729 1.258 . S
C730 C731 1.477 . S
C730 H750 0.931 . S
C731 C727 1.460 . S
C731 C730 1.477 . S
C731 H751 0.930 . S
C732 N728 1.362 . S
C732 C729 1.431 . S
C732 C742 1.476 . S
H733 C727 0.929 . S
C734 O725 1.250 . S
C734 O726 1.258 . S
O735 Mn720 2.162 . S
O735 C723 1.281 . S
O736 Mn720 2.297 . S
O736 C723 1.236 . S
N737 Mn721 2.282 . S
N737 C738 1.328 . S
N737 C742 1.318 . S
C738 N737 1.328 . S
C738 C739 1.457 . S
C738 H743 0.929 . S
C739 C738 1.457 . S
C739 C740 1.291 . S
C739 H752 0.931 . S
C740 C739 1.291 . S
C740 C741 1.373 . S
C740 H753 0.929 . S
C741 C740 1.373 . S
C741 C742 1.396 . S
C741 C748 1.403 . S
C742 C732 1.476 . S
C742 N737 1.318 . S
C742 C741 1.396 . S
H743 C738 0.929 . S
O744 Mn720 2.385 . S
O744 C722 1.234 . S
O745 Mn720 2.209 . S
O745 Mn721 2.215 . S
O745 C722 1.283 . S
O746 Mn720 2.094 . S
O746 C724 1.240 . S
O747 Mn721 2.117 . S
O747 C724 1.264 . S
C748 C741 1.403 . S
C748 C749 1.399 . S
C748 H754 0.929 . S
C749 C729 1.449 . S
C749 C748 1.399 . S
C749 H755 0.930 . S
H750 C730 0.931 . S
H751 C731 0.930 . S
H752 C739 0.931 . S
H753 C740 0.929 . S
H754 C748 0.929 . S
H755 C749 0.930 . S
Mn756 O761 2.095 . S
Mn756 O771 2.162 1_554 S
Mn756 O772 2.297 . S
Mn756 O780 2.385 1_554 S
Mn756 O781 2.209 . S
Mn756 O782 2.094 1_554 S
Mn757 O762 2.121 . S
Mn757 N764 2.257 . S
Mn757 N773 2.282 . S
Mn757 O781 2.215 . S
Mn757 O783 2.117 . S
C758 O780 1.234 1_554 S
C758 O781 1.283 . S
C759 O771 1.281 . S
C759 O772 1.236 1_556 S
C760 O782 1.240 1_554 S
C760 O783 1.264 . S
O761 Mn756 2.095 . S
O761 C770 1.250 . S
O762 Mn757 2.121 . S
O762 C770 1.258 . S
C763 N764 1.326 . S
C763 C767 1.460 . S
C763 H769 0.929 . S
N764 Mn757 2.257 . S
N764 C763 1.326 . S
N764 C768 1.362 . S
C765 C766 1.258 . S
C765 C768 1.431 . S
C765 C785 1.449 . S
C766 C765 1.258 . S
C766 C767 1.477 . S
C766 H786 0.931 . S
C767 C763 1.460 . S
C767 C766 1.477 . S
C767 H787 0.930 . S
C768 N764 1.362 . S
C768 C765 1.431 . S
C768 C778 1.476 . S
H769 C763 0.929 . S
C770 O761 1.250 . S
C770 O762 1.258 . S
O771 Mn756 2.162 1_556 S
O771 C759 1.281 . S
O772 Mn756 2.297 . S
O772 C759 1.236 1_554 S
N773 Mn757 2.282 . S
N773 C774 1.328 . S
N773 C778 1.318 . S
C774 N773 1.328 . S
C774 C775 1.457 1_554 S
C774 H779 0.929 1_554 S
C775 C774 1.457 1_556 S
C775 C776 1.291 1_556 S
C775 H788 0.931 . S
C776 C775 1.291 1_554 S
C776 C777 1.373 . S
C776 H789 0.922 1_554 S
C777 C776 1.373 . S
C777 C778 1.396 . S
C777 C784 1.403 . S
C778 C768 1.476 . S
C778 N773 1.318 . S
C778 C777 1.396 . S
H779 C774 0.929 1_556 S
O780 Mn756 2.385 1_556 S
O780 C758 1.234 1_556 S
O781 Mn756 2.209 . S
O781 Mn757 2.215 . S
O781 C758 1.283 . S
O782 Mn756 2.094 1_556 S
O782 C760 1.240 1_556 S
O783 Mn757 2.117 . S
O783 C760 1.264 . S
C784 C777 1.403 . S
C784 C785 1.399 . S
C784 H790 0.929 . S
C785 C765 1.449 . S
C785 C784 1.399 . S
C785 H791 0.930 . S
H786 C766 0.931 . S
H787 C767 0.930 . S
H788 C775 0.931 . S
H789 C776 0.922 1_556 S
H790 C784 0.929 . S
H791 C785 0.930 . S
Mn792 O797 2.095 . S
Mn792 O807 2.162 1_554 S
Mn792 O808 2.297 . S
Mn792 O816 2.385 1_554 S
Mn792 O817 2.209 . S
Mn792 O818 2.094 1_554 S
Mn793 O798 2.121 . S
Mn793 N800 2.257 . S
Mn793 N809 2.282 . S
Mn793 O817 2.215 . S
Mn793 O819 2.117 . S
C794 O816 1.234 1_554 S
C794 O817 1.283 . S
C795 O807 1.281 . S
C795 O808 1.236 1_556 S
C796 O818 1.240 1_554 S
C796 O819 1.264 . S
O797 Mn792 2.095 . S
O797 C806 1.250 . S
O798 Mn793 2.121 . S
O798 C806 1.258 . S
C799 N800 1.326 . S
C799 C803 1.460 . S
C799 H805 0.929 . S
N800 Mn793 2.257 . S
N800 C799 1.326 . S
N800 C804 1.362 . S
C801 C802 1.258 . S
C801 C804 1.431 . S
C801 C821 1.449 . S
C802 C801 1.258 . S
C802 C803 1.477 . S
C802 H822 0.931 . S
C803 C799 1.460 . S
C803 C802 1.477 . S
C803 H823 0.930 . S
C804 N800 1.362 . S
C804 C801 1.431 . S
C804 C814 1.476 . S
H805 C799 0.929 . S
C806 O797 1.250 . S
C806 O798 1.258 . S
O807 Mn792 2.162 1_556 S
O807 C795 1.281 . S
O808 Mn792 2.297 . S
O808 C795 1.236 1_554 S
N809 Mn793 2.282 . S
N809 C810 1.328 . S
N809 C814 1.318 . S
C810 N809 1.328 . S
C810 C811 1.457 1_554 S
C810 H815 0.929 1_554 S
C811 C810 1.457 1_556 S
C811 C812 1.291 1_556 S
C811 H824 0.931 . S
C812 C811 1.291 1_554 S
C812 C813 1.373 . S
C812 H825 0.922 1_554 S
C813 C812 1.373 . S
C813 C814 1.396 . S
C813 C820 1.403 . S
C814 C804 1.476 . S
C814 N809 1.318 . S
C814 C813 1.396 . S
H815 C810 0.929 1_556 S
O816 Mn792 2.385 1_556 S
O816 C794 1.234 1_556 S
O817 Mn792 2.209 . S
O817 Mn793 2.215 . S
O817 C794 1.283 . S
O818 Mn792 2.094 1_556 S
O818 C796 1.240 1_556 S
O819 Mn793 2.117 . S
O819 C796 1.264 . S
C820 C813 1.403 . S
C820 C821 1.399 . S
C820 H826 0.929 . S
C821 C801 1.449 . S
C821 C820 1.399 . S
C821 H827 0.930 . S
H822 C802 0.931 . S
H823 C803 0.930 . S
H824 C811 0.931 . S
H825 C812 0.922 1_556 S
H826 C820 0.929 . S
H827 C821 0.930 . S
Mn828 O833 2.095 . S
Mn828 O843 2.162 1_554 S
Mn828 O844 2.297 . S
Mn828 O852 2.385 1_554 S
Mn828 O853 2.209 . S
Mn828 O854 2.094 1_554 S
Mn829 O834 2.121 . S
Mn829 N836 2.257 . S
Mn829 N845 2.282 . S
Mn829 O853 2.215 . S
Mn829 O855 2.117 . S
C830 O852 1.234 1_554 S
C830 O853 1.283 . S
C831 O843 1.281 . S
C831 O844 1.236 1_556 S
C832 O854 1.240 1_554 S
C832 O855 1.264 . S
O833 Mn828 2.095 . S
O833 C842 1.250 . S
O834 Mn829 2.121 . S
O834 C842 1.258 . S
C835 N836 1.326 . S
C835 C839 1.460 . S
C835 H841 0.929 . S
N836 Mn829 2.257 . S
N836 C835 1.326 . S
N836 C840 1.362 . S
C837 C838 1.258 . S
C837 C840 1.431 . S
C837 C857 1.449 . S
C838 C837 1.258 . S
C838 C839 1.477 . S
C838 H858 0.931 . S
C839 C835 1.460 . S
C839 C838 1.477 . S
C839 H859 0.930 . S
C840 N836 1.362 . S
C840 C837 1.431 . S
C840 C850 1.476 . S
H841 C835 0.929 . S
C842 O833 1.250 . S
C842 O834 1.258 . S
O843 Mn828 2.162 1_556 S
O843 C831 1.281 . S
O844 Mn828 2.297 . S
O844 C831 1.236 1_554 S
N845 Mn829 2.282 . S
N845 C846 1.328 . S
N845 C850 1.318 . S
C846 N845 1.328 . S
C846 C847 1.457 1_554 S
C846 H851 0.929 1_554 S
C847 C846 1.457 1_556 S
C847 C848 1.291 1_556 S
C847 H860 0.931 . S
C848 C847 1.291 1_554 S
C848 C849 1.373 . S
C848 H861 0.922 1_554 S
C849 C848 1.373 . S
C849 C850 1.396 . S
C849 C856 1.403 . S
C850 C840 1.476 . S
C850 N845 1.318 . S
C850 C849 1.396 . S
H851 C846 0.929 1_556 S
O852 Mn828 2.385 1_556 S
O852 C830 1.234 1_556 S
O853 Mn828 2.209 . S
O853 Mn829 2.215 . S
O853 C830 1.283 . S
O854 Mn828 2.094 1_556 S
O854 C832 1.240 1_556 S
O855 Mn829 2.117 . S
O855 C832 1.264 . S
C856 C849 1.403 . S
C856 C857 1.399 . S
C856 H862 0.929 . S
C857 C837 1.449 . S
C857 C856 1.399 . S
C857 H863 0.930 . S
H858 C838 0.931 . S
H859 C839 0.930 . S
H860 C847 0.931 . S
H861 C848 0.922 1_556 S
H862 C856 0.929 . S
H863 C857 0.930 . S
Mn864 O869 2.095 . S
Mn864 O879 2.162 . S
Mn864 O880 2.297 . S
Mn864 O888 2.385 . S
Mn864 O889 2.209 . S
Mn864 O890 2.094 . S
Mn865 O870 2.121 . S
Mn865 N872 2.257 . S
Mn865 N881 2.282 . S
Mn865 O889 2.215 . S
Mn865 O891 2.117 . S
C866 O888 1.234 . S
C866 O889 1.283 . S
C867 O879 1.281 . S
C867 O880 1.236 . S
C868 O890 1.240 . S
C868 O891 1.264 . S
O869 Mn864 2.095 . S
O869 C878 1.250 . S
O870 Mn865 2.121 . S
O870 C878 1.258 . S
C871 N872 1.326 . S
C871 C875 1.460 . S
C871 H877 0.929 . S
N872 Mn865 2.257 . S
N872 C871 1.326 . S
N872 C876 1.362 . S
C873 C874 1.258 . S
C873 C876 1.431 . S
C873 C893 1.449 . S
C874 C873 1.258 . S
C874 C875 1.477 . S
C874 H894 0.931 . S
C875 C871 1.460 . S
C875 C874 1.477 . S
C875 H895 0.930 . S
C876 N872 1.362 . S
C876 C873 1.431 . S
C876 C886 1.476 . S
H877 C871 0.929 . S
C878 O869 1.250 . S
C878 O870 1.258 . S
O879 Mn864 2.162 . S
O879 C867 1.281 . S
O880 Mn864 2.297 . S
O880 C867 1.236 . S
N881 Mn865 2.282 . S
N881 C882 1.328 . S
N881 C886 1.318 . S
C882 N881 1.328 . S
C882 C883 1.457 . S
C882 H887 0.929 . S
C883 C882 1.457 . S
C883 C884 1.291 . S
C883 H896 0.931 . S
C884 C883 1.291 . S
C884 C885 1.373 . S
C884 H897 0.929 . S
C885 C884 1.373 . S
C885 C886 1.396 . S
C885 C892 1.403 . S
C886 C876 1.476 . S
C886 N881 1.318 . S
C886 C885 1.396 . S
H887 C882 0.929 . S
O888 Mn864 2.385 . S
O888 C866 1.234 . S
O889 Mn864 2.209 . S
O889 Mn865 2.215 . S
O889 C866 1.283 . S
O890 Mn864 2.094 . S
O890 C868 1.240 . S
O891 Mn865 2.117 . S
O891 C868 1.264 . S
C892 C885 1.403 . S
C892 C893 1.399 . S
C892 H898 0.929 . S
C893 C873 1.449 . S
C893 C892 1.399 . S
C893 H899 0.930 . S
H894 C874 0.931 . S
H895 C875 0.930 . S
H896 C883 0.931 . S
H897 C884 0.929 . S
H898 C892 0.929 . S
H899 C893 0.930 . S
Mn900 O905 2.095 . S
Mn900 O915 2.162 . S
Mn900 O916 2.297 . S
Mn900 O924 2.385 . S
Mn900 O925 2.209 . S
Mn900 O926 2.094 . S
Mn901 O906 2.121 . S
Mn901 N908 2.257 . S
Mn901 N917 2.282 . S
Mn901 O925 2.215 . S
Mn901 O927 2.117 . S
C902 O924 1.234 . S
C902 O925 1.283 . S
C903 O915 1.281 . S
C903 O916 1.236 . S
C904 O926 1.240 . S
C904 O927 1.264 . S
O905 Mn900 2.095 . S
O905 C914 1.250 . S
O906 Mn901 2.121 . S
O906 C914 1.258 . S
C907 N908 1.326 . S
C907 C911 1.460 . S
C907 H913 0.929 . S
N908 Mn901 2.257 . S
N908 C907 1.326 . S
N908 C912 1.362 . S
C909 C910 1.258 . S
C909 C912 1.431 . S
C909 C929 1.449 . S
C910 C909 1.258 . S
C910 C911 1.477 . S
C910 H930 0.931 . S
C911 C907 1.460 . S
C911 C910 1.477 . S
C911 H931 0.930 . S
C912 N908 1.362 . S
C912 C909 1.431 . S
C912 C922 1.476 . S
H913 C907 0.929 . S
C914 O905 1.250 . S
C914 O906 1.258 . S
O915 Mn900 2.162 . S
O915 C903 1.281 . S
O916 Mn900 2.297 . S
O916 C903 1.236 . S
N917 Mn901 2.282 . S
N917 C918 1.328 . S
N917 C922 1.318 . S
C918 N917 1.328 . S
C918 C919 1.457 . S
C918 H923 0.929 . S
C919 C918 1.457 . S
C919 C920 1.291 . S
C919 H932 0.931 . S
C920 C919 1.291 . S
C920 C921 1.373 . S
C920 H933 0.929 . S
C921 C920 1.373 . S
C921 C922 1.396 . S
C921 C928 1.403 . S
C922 C912 1.476 . S
C922 N917 1.318 . S
C922 C921 1.396 . S
H923 C918 0.929 . S
O924 Mn900 2.385 . S
O924 C902 1.234 . S
O925 Mn900 2.209 . S
O925 Mn901 2.215 . S
O925 C902 1.283 . S
O926 Mn900 2.094 . S
O926 C904 1.240 . S
O927 Mn901 2.117 . S
O927 C904 1.264 . S
C928 C921 1.403 . S
C928 C929 1.399 . S
C928 H934 0.929 . S
C929 C909 1.449 . S
C929 C928 1.399 . S
C929 H935 0.930 . S
H930 C910 0.931 . S
H931 C911 0.930 . S
H932 C919 0.931 . S
H933 C920 0.929 . S
H934 C928 0.929 . S
H935 C929 0.930 . S
Mn936 O941 2.095 . S
Mn936 O951 2.162 . S
Mn936 O952 2.297 . S
Mn936 O960 2.385 . S
Mn936 O961 2.209 . S
Mn936 O962 2.094 . S
Mn937 O942 2.121 . S
Mn937 N944 2.257 . S
Mn937 N953 2.282 . S
Mn937 O961 2.215 . S
Mn937 O963 2.117 . S
C938 O960 1.234 . S
C938 O961 1.283 . S
C939 O951 1.281 . S
C939 O952 1.236 . S
C940 O962 1.240 . S
C940 O963 1.264 . S
O941 Mn936 2.095 . S
O941 C950 1.250 . S
O942 Mn937 2.121 . S
O942 C950 1.258 . S
C943 N944 1.326 . S
C943 C947 1.460 . S
C943 H949 0.929 . S
N944 Mn937 2.257 . S
N944 C943 1.326 . S
N944 C948 1.362 . S
C945 C946 1.258 . S
C945 C948 1.431 . S
C945 C965 1.449 . S
C946 C945 1.258 . S
C946 C947 1.477 . S
C946 H966 0.931 . S
C947 C943 1.460 . S
C947 C946 1.477 . S
C947 H967 0.930 . S
C948 N944 1.362 . S
C948 C945 1.431 . S
C948 C958 1.476 . S
H949 C943 0.929 . S
C950 O941 1.250 . S
C950 O942 1.258 . S
O951 Mn936 2.162 . S
O951 C939 1.281 . S
O952 Mn936 2.297 . S
O952 C939 1.236 . S
N953 Mn937 2.282 . S
N953 C954 1.328 . S
N953 C958 1.318 . S
C954 N953 1.328 . S
C954 C955 1.457 . S
C954 H959 0.929 . S
C955 C954 1.457 . S
C955 C956 1.291 . S
C955 H968 0.931 . S
C956 C955 1.291 . S
C956 C957 1.373 . S
C956 H969 0.929 . S
C957 C956 1.373 . S
C957 C958 1.396 . S
C957 C964 1.403 . S
C958 C948 1.476 . S
C958 N953 1.318 . S
C958 C957 1.396 . S
H959 C954 0.929 . S
O960 Mn936 2.385 . S
O960 C938 1.234 . S
O961 Mn936 2.209 . S
O961 Mn937 2.215 . S
O961 C938 1.283 . S
O962 Mn936 2.094 . S
O962 C940 1.240 . S
O963 Mn937 2.117 . S
O963 C940 1.264 . S
C964 C957 1.403 . S
C964 C965 1.399 . S
C964 H970 0.929 . S
C965 C945 1.449 . S
C965 C964 1.399 . S
C965 H971 0.930 . S
H966 C946 0.931 . S
H967 C947 0.930 . S
H968 C955 0.931 . S
H969 C956 0.929 . S
H970 C964 0.929 . S
H971 C965 0.930 . S
Mn972 O977 2.095 . S
Mn972 O987 2.162 1_556 S
Mn972 O988 2.297 . S
Mn972 O996 2.385 1_556 S
Mn972 O997 2.209 . S
Mn972 O998 2.094 1_556 S
Mn973 O978 2.121 . S
Mn973 N980 2.257 . S
Mn973 N989 2.282 . S
Mn973 O997 2.215 . S
Mn973 O999 2.117 . S
C974 O996 1.234 1_556 S
C974 O997 1.283 . S
C975 O987 1.281 1_556 S
C975 O988 1.236 . S
C976 O998 1.238 1_556 S
C976 O999 1.269 . S
O977 Mn972 2.095 . S
O977 C986 1.250 . S
O978 Mn973 2.121 . S
O978 C986 1.258 . S
C979 N980 1.326 . S
C979 C983 1.460 . S
C979 H985 0.929 . S
N980 Mn973 2.257 . S
N980 C979 1.326 . S
N980 C984 1.362 . S
C981 C982 1.258 . S
C981 C984 1.431 . S
C981 C1001 1.449 . S
C982 C981 1.258 . S
C982 C983 1.477 . S
C982 H1002 0.931 . S
C983 C979 1.460 . S
C983 C982 1.477 . S
C983 H1003 0.930 . S
C984 N980 1.362 . S
C984 C981 1.431 . S
C984 C994 1.476 . S
H985 C979 0.929 . S
C986 O977 1.250 . S
C986 O978 1.258 . S
O987 Mn972 2.162 1_554 S
O987 C975 1.281 1_554 S
O988 Mn972 2.297 . S
O988 C975 1.236 . S
N989 Mn973 2.282 . S
N989 C990 1.388 . S
N989 C994 1.318 . S
C990 N989 1.388 . S
C990 C991 1.430 1_556 S
C990 H995 0.899 1_556 S
C991 C990 1.430 1_554 S
C991 C992 1.261 1_554 S
C991 H1004 0.931 . S
C992 C991 1.261 1_556 S
C992 C993 1.433 . S
C992 H1005 0.902 1_556 S
C993 C992 1.433 . S
C993 C994 1.396 . S
C993 C1000 1.403 . S
C994 C984 1.476 . S
C994 N989 1.318 . S
C994 C993 1.396 . S
H995 C990 0.899 1_554 S
O996 Mn972 2.385 1_554 S
O996 C974 1.234 1_554 S
O997 Mn972 2.209 . S
O997 Mn973 2.215 . S
O997 C974 1.283 . S
O998 Mn972 2.094 1_554 S
O998 C976 1.238 1_554 S
O999 Mn973 2.117 . S
O999 C976 1.269 . S
C1000 C993 1.403 . S
C1000 C1001 1.399 . S
C1000 H1006 0.929 . S
C1001 C981 1.449 . S
C1001 C1000 1.399 . S
C1001 H1007 0.930 . S
H1002 C982 0.931 . S
H1003 C983 0.930 . S
H1004 C991 0.931 . S
H1005 C992 0.902 1_554 S
H1006 C1000 0.929 . S
H1007 C1001 0.930 . S
Mn1008 O1013 2.095 . S
Mn1008 O1023 2.162 1_556 S
Mn1008 O1024 2.297 . S
Mn1008 O1032 2.385 1_556 S
Mn1008 O1033 2.209 . S
Mn1008 O1034 2.094 1_556 S
Mn1009 O1014 2.121 . S
Mn1009 N1016 2.257 . S
Mn1009 N1025 2.282 . S
Mn1009 O1033 2.215 . S
Mn1009 O1035 2.117 . S
C1010 O1032 1.234 1_556 S
C1010 O1033 1.283 . S
C1011 O1023 1.281 1_556 S
C1011 O1024 1.236 . S
C1012 O1034 1.238 1_556 S
C1012 O1035 1.268 . S
O1013 Mn1008 2.095 . S
O1013 C1022 1.250 . S
O1014 Mn1009 2.121 . S
O1014 C1022 1.258 . S
C1015 N1016 1.326 . S
C1015 C1019 1.460 . S
C1015 H1021 0.929 . S
N1016 Mn1009 2.257 . S
N1016 C1015 1.326 . S
N1016 C1020 1.362 . S
C1017 C1018 1.258 . S
C1017 C1020 1.431 . S
C1017 C1037 1.449 . S
C1018 C1017 1.258 . S
C1018 C1019 1.477 . S
C1018 H1038 0.931 . S
C1019 C1015 1.460 . S
C1019 C1018 1.477 . S
C1019 H1039 0.930 . S
C1020 N1016 1.362 . S
C1020 C1017 1.431 . S
C1020 C1030 1.476 . S
H1021 C1015 0.929 . S
C1022 O1013 1.250 . S
C1022 O1014 1.258 . S
O1023 Mn1008 2.162 1_554 S
O1023 C1011 1.281 1_554 S
O1024 Mn1008 2.297 . S
O1024 C1011 1.236 . S
N1025 Mn1009 2.282 . S
N1025 C1026 1.388 . S
N1025 C1030 1.318 . S
C1026 N1025 1.388 . S
C1026 C1027 1.430 1_556 S
C1026 H1031 0.899 1_556 S
C1027 C1026 1.430 1_554 S
C1027 C1028 1.260 1_554 S
C1027 H1040 0.931 . S
C1028 C1027 1.260 1_556 S
C1028 C1029 1.434 . S
C1028 H1041 0.902 1_556 S
C1029 C1028 1.434 . S
C1029 C1030 1.396 . S
C1029 C1036 1.403 . S
C1030 C1020 1.476 . S
C1030 N1025 1.318 . S
C1030 C1029 1.396 . S
H1031 C1026 0.899 1_554 S
O1032 Mn1008 2.385 1_554 S
O1032 C1010 1.234 1_554 S
O1033 Mn1008 2.209 . S
O1033 Mn1009 2.215 . S
O1033 C1010 1.283 . S
O1034 Mn1008 2.094 1_554 S
O1034 C1012 1.238 1_554 S
O1035 Mn1009 2.117 . S
O1035 C1012 1.268 . S
C1036 C1029 1.403 . S
C1036 C1037 1.399 . S
C1036 H1042 0.929 . S
C1037 C1017 1.449 . S
C1037 C1036 1.399 . S
C1037 H1043 0.930 . S
H1038 C1018 0.931 . S
H1039 C1019 0.930 . S
H1040 C1027 0.931 . S
H1041 C1028 0.902 1_554 S
H1042 C1036 0.929 . S
H1043 C1037 0.930 . S
Mn1044 O1049 2.095 . S
Mn1044 O1059 2.162 1_556 S
Mn1044 O1060 2.297 . S
Mn1044 O1068 2.385 1_556 S
Mn1044 O1069 2.209 . S
Mn1044 O1070 2.094 1_556 S
Mn1045 O1050 2.121 . S
Mn1045 N1052 2.257 . S
Mn1045 N1061 2.282 . S
Mn1045 O1069 2.215 . S
Mn1045 O1071 2.117 . S
C1046 O1068 1.234 1_556 S
C1046 O1069 1.283 . S
C1047 O1059 1.281 1_556 S
C1047 O1060 1.236 . S
C1048 O1070 1.238 1_556 S
C1048 O1071 1.269 . S
O1049 Mn1044 2.095 . S
O1049 C1058 1.250 . S
O1050 Mn1045 2.121 . S
O1050 C1058 1.258 . S
C1051 N1052 1.326 . S
C1051 C1055 1.460 . S
C1051 H1057 0.929 . S
N1052 Mn1045 2.257 . S
N1052 C1051 1.326 . S
N1052 C1056 1.362 . S
C1053 C1054 1.258 . S
C1053 C1056 1.431 . S
C1053 C1073 1.449 . S
C1054 C1053 1.258 . S
C1054 C1055 1.477 . S
C1054 H1074 0.931 . S
C1055 C1051 1.460 . S
C1055 C1054 1.477 . S
C1055 H1075 0.930 . S
C1056 N1052 1.362 . S
C1056 C1053 1.431 . S
C1056 C1066 1.476 . S
H1057 C1051 0.929 . S
C1058 O1049 1.250 . S
C1058 O1050 1.258 . S
O1059 Mn1044 2.162 1_554 S
O1059 C1047 1.281 1_554 S
O1060 Mn1044 2.297 . S
O1060 C1047 1.236 . S
N1061 Mn1045 2.282 . S
N1061 C1062 1.389 . S
N1061 C1066 1.318 . S
C1062 N1061 1.389 . S
C1062 C1063 1.430 1_556 S
C1062 H1067 0.899 1_556 S
C1063 C1062 1.430 1_554 S
C1063 C1064 1.260 1_554 S
C1063 H1076 0.931 . S
C1064 C1063 1.260 1_556 S
C1064 C1065 1.435 . S
C1064 H1077 0.902 1_556 S
C1065 C1064 1.435 . S
C1065 C1066 1.396 . S
C1065 C1072 1.403 . S
C1066 C1056 1.476 . S
C1066 N1061 1.318 . S
C1066 C1065 1.396 . S
H1067 C1062 0.899 1_554 S
O1068 Mn1044 2.385 1_554 S
O1068 C1046 1.234 1_554 S
O1069 Mn1044 2.209 . S
O1069 Mn1045 2.215 . S
O1069 C1046 1.283 . S
O1070 Mn1044 2.094 1_554 S
O1070 C1048 1.238 1_554 S
O1071 Mn1045 2.117 . S
O1071 C1048 1.269 . S
C1072 C1065 1.403 . S
C1072 C1073 1.399 . S
C1072 H1078 0.929 . S
C1073 C1053 1.449 . S
C1073 C1072 1.399 . S
C1073 H1079 0.930 . S
H1074 C1054 0.931 . S
H1075 C1055 0.930 . S
H1076 C1063 0.931 . S
H1077 C1064 0.902 1_554 S
H1078 C1072 0.929 . S
H1079 C1073 0.930 . S
Mn1080 O1085 2.095 . S
Mn1080 O1095 2.162 . S
Mn1080 O1096 2.297 . S
Mn1080 O1104 2.385 . S
Mn1080 O1105 2.209 . S
Mn1080 O1106 2.094 . S
Mn1081 O1086 2.121 . S
Mn1081 N1088 2.257 . S
Mn1081 N1097 2.282 . S
Mn1081 O1105 2.215 . S
Mn1081 O1107 2.117 . S
C1082 O1104 1.234 . S
C1082 O1105 1.283 . S
C1083 O1095 1.281 . S
C1083 O1096 1.236 . S
C1084 O1106 1.240 . S
C1084 O1107 1.264 . S
O1085 Mn1080 2.095 . S
O1085 C1094 1.250 . S
O1086 Mn1081 2.121 . S
O1086 C1094 1.258 . S
C1087 N1088 1.326 . S
C1087 C1091 1.460 . S
C1087 H1093 0.929 . S
N1088 Mn1081 2.257 . S
N1088 C1087 1.326 . S
N1088 C1092 1.362 . S
C1089 C1090 1.258 . S
C1089 C1092 1.431 . S
C1089 C1109 1.449 . S
C1090 C1089 1.258 . S
C1090 C1091 1.477 . S
C1090 H1110 0.931 . S
C1091 C1087 1.460 . S
C1091 C1090 1.477 . S
C1091 H1111 0.930 . S
C1092 N1088 1.362 . S
C1092 C1089 1.431 . S
C1092 C1102 1.476 . S
H1093 C1087 0.929 . S
C1094 O1085 1.250 . S
C1094 O1086 1.258 . S
O1095 Mn1080 2.162 . S
O1095 C1083 1.281 . S
O1096 Mn1080 2.297 . S
O1096 C1083 1.236 . S
N1097 Mn1081 2.282 . S
N1097 C1098 1.328 . S
N1097 C1102 1.318 . S
C1098 N1097 1.328 . S
C1098 C1099 1.457 . S
C1098 H1103 0.929 . S
C1099 C1098 1.457 . S
C1099 C1100 1.291 . S
C1099 H1112 0.931 . S
C1100 C1099 1.291 . S
C1100 C1101 1.373 . S
C1100 H1113 0.929 . S
C1101 C1100 1.373 . S
C1101 C1102 1.396 . S
C1101 C1108 1.403 . S
C1102 C1092 1.476 . S
C1102 N1097 1.318 . S
C1102 C1101 1.396 . S
H1103 C1098 0.929 . S
O1104 Mn1080 2.385 . S
O1104 C1082 1.234 . S
O1105 Mn1080 2.209 . S
O1105 Mn1081 2.215 . S
O1105 C1082 1.283 . S
O1106 Mn1080 2.094 . S
O1106 C1084 1.240 . S
O1107 Mn1081 2.117 . S
O1107 C1084 1.264 . S
C1108 C1101 1.403 . S
C1108 C1109 1.399 . S
C1108 H1114 0.929 . S
C1109 C1089 1.449 . S
C1109 C1108 1.399 . S
C1109 H1115 0.930 . S
H1110 C1090 0.931 . S
H1111 C1091 0.930 . S
H1112 C1099 0.931 . S
H1113 C1100 0.929 . S
H1114 C1108 0.929 . S
H1115 C1109 0.930 . S
Mn1116 O1121 2.095 . S
Mn1116 O1131 2.162 . S
Mn1116 O1132 2.297 . S
Mn1116 O1140 2.385 . S
Mn1116 O1141 2.209 . S
Mn1116 O1142 2.094 . S
Mn1117 O1122 2.121 . S
Mn1117 N1124 2.257 . S
Mn1117 N1133 2.282 . S
Mn1117 O1141 2.215 . S
Mn1117 O1143 2.117 . S
C1118 O1140 1.234 . S
C1118 O1141 1.283 . S
C1119 O1131 1.281 . S
C1119 O1132 1.236 . S
C1120 O1142 1.240 . S
C1120 O1143 1.264 . S
O1121 Mn1116 2.095 . S
O1121 C1130 1.250 . S
O1122 Mn1117 2.121 . S
O1122 C1130 1.258 . S
C1123 N1124 1.326 . S
C1123 C1127 1.460 . S
C1123 H1129 0.929 . S
N1124 Mn1117 2.257 . S
N1124 C1123 1.326 . S
N1124 C1128 1.362 . S
C1125 C1126 1.258 . S
C1125 C1128 1.431 . S
C1125 C1145 1.449 . S
C1126 C1125 1.258 . S
C1126 C1127 1.477 . S
C1126 H1146 0.931 . S
C1127 C1123 1.460 . S
C1127 C1126 1.477 . S
C1127 H1147 0.930 . S
C1128 N1124 1.362 . S
C1128 C1125 1.431 . S
C1128 C1138 1.476 . S
H1129 C1123 0.929 . S
C1130 O1121 1.250 . S
C1130 O1122 1.258 . S
O1131 Mn1116 2.162 . S
O1131 C1119 1.281 . S
O1132 Mn1116 2.297 . S
O1132 C1119 1.236 . S
N1133 Mn1117 2.282 . S
N1133 C1134 1.328 . S
N1133 C1138 1.318 . S
C1134 N1133 1.328 . S
C1134 C1135 1.457 . S
C1134 H1139 0.929 . S
C1135 C1134 1.457 . S
C1135 C1136 1.291 . S
C1135 H1148 0.931 . S
C1136 C1135 1.291 . S
C1136 C1137 1.373 . S
C1136 H1149 0.929 . S
C1137 C1136 1.373 . S
C1137 C1138 1.396 . S
C1137 C1144 1.403 . S
C1138 C1128 1.476 . S
C1138 N1133 1.318 . S
C1138 C1137 1.396 . S
H1139 C1134 0.929 . S
O1140 Mn1116 2.385 . S
O1140 C1118 1.234 . S
O1141 Mn1116 2.209 . S
O1141 Mn1117 2.215 . S
O1141 C1118 1.283 . S
O1142 Mn1116 2.094 . S
O1142 C1120 1.240 . S
O1143 Mn1117 2.117 . S
O1143 C1120 1.264 . S
C1144 C1137 1.403 . S
C1144 C1145 1.399 . S
C1144 H1150 0.929 . S
C1145 C1125 1.449 . S
C1145 C1144 1.399 . S
C1145 H1151 0.930 . S
H1146 C1126 0.931 . S
H1147 C1127 0.930 . S
H1148 C1135 0.931 . S
H1149 C1136 0.929 . S
H1150 C1144 0.929 . S
H1151 C1145 0.930 . S
Mn1152 O1157 2.095 . S
Mn1152 O1167 2.162 . S
Mn1152 O1168 2.297 . S
Mn1152 O1176 2.385 . S
Mn1152 O1177 2.209 . S
Mn1152 O1178 2.094 . S
Mn1153 O1158 2.121 . S
Mn1153 N1160 2.257 . S
Mn1153 N1169 2.282 . S
Mn1153 O1177 2.215 . S
Mn1153 O1179 2.117 . S
C1154 O1176 1.234 . S
C1154 O1177 1.283 . S
C1155 O1167 1.281 . S
C1155 O1168 1.236 . S
C1156 O1178 1.240 . S
C1156 O1179 1.264 . S
O1157 Mn1152 2.095 . S
O1157 C1166 1.250 . S
O1158 Mn1153 2.121 . S
O1158 C1166 1.258 . S
C1159 N1160 1.326 . S
C1159 C1163 1.460 . S
C1159 H1165 0.929 . S
N1160 Mn1153 2.257 . S
N1160 C1159 1.326 . S
N1160 C1164 1.362 . S
C1161 C1162 1.258 . S
C1161 C1164 1.431 . S
C1161 C1181 1.449 . S
C1162 C1161 1.258 . S
C1162 C1163 1.477 . S
C1162 H1182 0.931 . S
C1163 C1159 1.460 . S
C1163 C1162 1.477 . S
C1163 H1183 0.930 . S
C1164 N1160 1.362 . S
C1164 C1161 1.431 . S
C1164 C1174 1.476 . S
H1165 C1159 0.929 . S
C1166 O1157 1.250 . S
C1166 O1158 1.258 . S
O1167 Mn1152 2.162 . S
O1167 C1155 1.281 . S
O1168 Mn1152 2.297 . S
O1168 C1155 1.236 . S
N1169 Mn1153 2.282 . S
N1169 C1170 1.328 . S
N1169 C1174 1.318 . S
C1170 N1169 1.328 . S
C1170 C1171 1.457 . S
C1170 H1175 0.929 . S
C1171 C1170 1.457 . S
C1171 C1172 1.291 . S
C1171 H1184 0.931 . S
C1172 C1171 1.291 . S
C1172 C1173 1.373 . S
C1172 H1185 0.929 . S
C1173 C1172 1.373 . S
C1173 C1174 1.396 . S
C1173 C1180 1.403 . S
C1174 C1164 1.476 . S
C1174 N1169 1.318 . S
C1174 C1173 1.396 . S
H1175 C1170 0.929 . S
O1176 Mn1152 2.385 . S
O1176 C1154 1.234 . S
O1177 Mn1152 2.209 . S
O1177 Mn1153 2.215 . S
O1177 C1154 1.283 . S
O1178 Mn1152 2.094 . S
O1178 C1156 1.240 . S
O1179 Mn1153 2.117 . S
O1179 C1156 1.264 . S
C1180 C1173 1.403 . S
C1180 C1181 1.399 . S
C1180 H1186 0.929 . S
C1181 C1161 1.449 . S
C1181 C1180 1.399 . S
C1181 H1187 0.930 . S
H1182 C1162 0.931 . S
H1183 C1163 0.930 . S
H1184 C1171 0.931 . S
H1185 C1172 0.929 . S
H1186 C1180 0.929 . S
H1187 C1181 0.930 . S
Mn1188 O1193 2.095 . S
Mn1188 O1203 2.162 . S
Mn1188 O1204 2.297 . S
Mn1188 O1212 2.385 . S
Mn1188 O1213 2.209 . S
Mn1188 O1214 2.094 . S
Mn1189 O1194 2.121 . S
Mn1189 N1196 2.257 . S
Mn1189 N1205 2.282 . S
Mn1189 O1213 2.215 . S
Mn1189 O1215 2.117 . S
C1190 O1212 1.234 . S
C1190 O1213 1.283 . S
C1191 O1203 1.281 . S
C1191 O1204 1.236 . S
C1192 O1214 1.240 . S
C1192 O1215 1.264 . S
O1193 Mn1188 2.095 . S
O1193 C1202 1.250 . S
O1194 Mn1189 2.121 . S
O1194 C1202 1.258 . S
C1195 N1196 1.326 . S
C1195 C1199 1.460 . S
C1195 H1201 0.929 . S
N1196 Mn1189 2.257 . S
N1196 C1195 1.326 . S
N1196 C1200 1.362 . S
C1197 C1198 1.258 . S
C1197 C1200 1.431 . S
C1197 C1217 1.449 . S
C1198 C1197 1.258 . S
C1198 C1199 1.477 . S
C1198 H1218 0.931 . S
C1199 C1195 1.460 . S
C1199 C1198 1.477 . S
C1199 H1219 0.930 . S
C1200 N1196 1.362 . S
C1200 C1197 1.431 . S
C1200 C1210 1.476 . S
H1201 C1195 0.929 . S
C1202 O1193 1.250 . S
C1202 O1194 1.258 . S
O1203 Mn1188 2.162 . S
O1203 C1191 1.281 . S
O1204 Mn1188 2.297 . S
O1204 C1191 1.236 . S
N1205 Mn1189 2.282 . S
N1205 C1206 1.328 . S
N1205 C1210 1.318 . S
C1206 N1205 1.328 . S
C1206 C1207 1.457 . S
C1206 H1211 0.929 . S
C1207 C1206 1.457 . S
C1207 C1208 1.291 . S
C1207 H1220 0.931 . S
C1208 C1207 1.291 . S
C1208 C1209 1.373 . S
C1208 H1221 0.929 . S
C1209 C1208 1.373 . S
C1209 C1210 1.396 . S
C1209 C1216 1.403 . S
C1210 C1200 1.476 . S
C1210 N1205 1.318 . S
C1210 C1209 1.396 . S
H1211 C1206 0.929 . S
O1212 Mn1188 2.385 . S
O1212 C1190 1.234 . S
O1213 Mn1188 2.209 . S
O1213 Mn1189 2.215 . S
O1213 C1190 1.283 . S
O1214 Mn1188 2.094 . S
O1214 C1192 1.240 . S
O1215 Mn1189 2.117 . S
O1215 C1192 1.264 . S
C1216 C1209 1.403 . S
C1216 C1217 1.399 . S
C1216 H1222 0.929 . S
C1217 C1197 1.449 . S
C1217 C1216 1.399 . S
C1217 H1223 0.930 . S
H1218 C1198 0.931 . S
H1219 C1199 0.930 . S
H1220 C1207 0.931 . S
H1221 C1208 0.929 . S
H1222 C1216 0.929 . S
H1223 C1217 0.930 . S
Mn1224 O1229 2.095 . S
Mn1224 O1239 2.162 . S
Mn1224 O1240 2.297 . S
Mn1224 O1248 2.385 . S
Mn1224 O1249 2.209 . S
Mn1224 O1250 2.094 . S
Mn1225 O1230 2.121 . S
Mn1225 N1232 2.257 . S
Mn1225 N1241 2.282 . S
Mn1225 O1249 2.215 . S
Mn1225 O1251 2.117 . S
C1226 O1248 1.234 . S
C1226 O1249 1.283 . S
C1227 O1239 1.281 . S
C1227 O1240 1.236 . S
C1228 O1250 1.240 . S
C1228 O1251 1.264 . S
O1229 Mn1224 2.095 . S
O1229 C1238 1.250 . S
O1230 Mn1225 2.121 . S
O1230 C1238 1.258 . S
C1231 N1232 1.326 . S
C1231 C1235 1.460 . S
C1231 H1237 0.929 . S
N1232 Mn1225 2.257 . S
N1232 C1231 1.326 . S
N1232 C1236 1.362 . S
C1233 C1234 1.258 . S
C1233 C1236 1.431 . S
C1233 C1253 1.449 . S
C1234 C1233 1.258 . S
C1234 C1235 1.477 . S
C1234 H1254 0.931 . S
C1235 C1231 1.460 . S
C1235 C1234 1.477 . S
C1235 H1255 0.930 . S
C1236 N1232 1.362 . S
C1236 C1233 1.431 . S
C1236 C1246 1.476 . S
H1237 C1231 0.929 . S
C1238 O1229 1.250 . S
C1238 O1230 1.258 . S
O1239 Mn1224 2.162 . S
O1239 C1227 1.281 . S
O1240 Mn1224 2.297 . S
O1240 C1227 1.236 . S
N1241 Mn1225 2.282 . S
N1241 C1242 1.328 . S
N1241 C1246 1.318 . S
C1242 N1241 1.328 . S
C1242 C1243 1.457 . S
C1242 H1247 0.929 . S
C1243 C1242 1.457 . S
C1243 C1244 1.291 . S
C1243 H1256 0.931 . S
C1244 C1243 1.291 . S
C1244 C1245 1.373 . S
C1244 H1257 0.929 . S
C1245 C1244 1.373 . S
C1245 C1246 1.396 . S
C1245 C1252 1.403 . S
C1246 C1236 1.476 . S
C1246 N1241 1.318 . S
C1246 C1245 1.396 . S
H1247 C1242 0.929 . S
O1248 Mn1224 2.385 . S
O1248 C1226 1.234 . S
O1249 Mn1224 2.209 . S
O1249 Mn1225 2.215 . S
O1249 C1226 1.283 . S
O1250 Mn1224 2.094 . S
O1250 C1228 1.240 . S
O1251 Mn1225 2.117 . S
O1251 C1228 1.264 . S
C1252 C1245 1.403 . S
C1252 C1253 1.399 . S
C1252 H1258 0.929 . S
C1253 C1233 1.449 . S
C1253 C1252 1.399 . S
C1253 H1259 0.930 . S
H1254 C1234 0.931 . S
H1255 C1235 0.930 . S
H1256 C1243 0.931 . S
H1257 C1244 0.929 . S
H1258 C1252 0.929 . S
H1259 C1253 0.930 . S
Mn1260 O1265 2.095 . S
Mn1260 O1275 2.162 . S
Mn1260 O1276 2.297 . S
Mn1260 O1284 2.385 . S
Mn1260 O1285 2.209 . S
Mn1260 O1286 2.094 . S
Mn1261 O1266 2.121 . S
Mn1261 N1268 2.257 . S
Mn1261 N1277 2.282 . S
Mn1261 O1285 2.215 . S
Mn1261 O1287 2.117 . S
C1262 O1284 1.234 . S
C1262 O1285 1.283 . S
C1263 O1275 1.281 . S
C1263 O1276 1.236 . S
C1264 O1286 1.240 . S
C1264 O1287 1.264 . S
O1265 Mn1260 2.095 . S
O1265 C1274 1.250 . S
O1266 Mn1261 2.121 . S
O1266 C1274 1.258 . S
C1267 N1268 1.326 . S
C1267 C1271 1.460 . S
C1267 H1273 0.929 . S
N1268 Mn1261 2.257 . S
N1268 C1267 1.326 . S
N1268 C1272 1.362 . S
C1269 C1270 1.258 . S
C1269 C1272 1.431 . S
C1269 C1289 1.449 . S
C1270 C1269 1.258 . S
C1270 C1271 1.477 . S
C1270 H1290 0.931 . S
C1271 C1267 1.460 . S
C1271 C1270 1.477 . S
C1271 H1291 0.930 . S
C1272 N1268 1.362 . S
C1272 C1269 1.431 . S
C1272 C1282 1.476 . S
H1273 C1267 0.929 . S
C1274 O1265 1.250 . S
C1274 O1266 1.258 . S
O1275 Mn1260 2.162 . S
O1275 C1263 1.281 . S
O1276 Mn1260 2.297 . S
O1276 C1263 1.236 . S
N1277 Mn1261 2.282 . S
N1277 C1278 1.328 . S
N1277 C1282 1.318 . S
C1278 N1277 1.328 . S
C1278 C1279 1.457 . S
C1278 H1283 0.929 . S
C1279 C1278 1.457 . S
C1279 C1280 1.291 . S
C1279 H1292 0.931 . S
C1280 C1279 1.291 . S
C1280 C1281 1.373 . S
C1280 H1293 0.929 . S
C1281 C1280 1.373 . S
C1281 C1282 1.396 . S
C1281 C1288 1.403 . S
C1282 C1272 1.476 . S
C1282 N1277 1.318 . S
C1282 C1281 1.396 . S
H1283 C1278 0.929 . S
O1284 Mn1260 2.385 . S
O1284 C1262 1.234 . S
O1285 Mn1260 2.209 . S
O1285 Mn1261 2.215 . S
O1285 C1262 1.283 . S
O1286 Mn1260 2.094 . S
O1286 C1264 1.240 . S
O1287 Mn1261 2.117 . S
O1287 C1264 1.264 . S
C1288 C1281 1.403 . S
C1288 C1289 1.399 . S
C1288 H1294 0.929 . S
C1289 C1269 1.449 . S
C1289 C1288 1.399 . S
C1289 H1295 0.930 . S
H1290 C1270 0.931 . S
H1291 C1271 0.930 . S
H1292 C1279 0.931 . S
H1293 C1280 0.929 . S
H1294 C1288 0.929 . S
H1295 C1289 0.930 . S
C1296 C1297 1.363 . S
C1296 C1302 1.379 1_455 S
C1296 N1304 1.356 . S
C1297 C1296 1.363 . S
C1297 C1303 1.363 . S
C1298 C1299 1.382 . S
C1298 C1303 1.360 1_655 S
C1298 N1305 1.364 . S
C1299 C1298 1.382 . S
C1299 C1302 1.363 . S
N1300 C1302 1.356 . S
N1300 H1312 0.984 . S
N1300 H1313 0.985 . S
N1301 C1303 1.356 . S
N1301 H1306 0.984 . S
N1301 H1307 0.985 . S
C1302 C1296 1.379 1_655 S
C1302 C1299 1.363 . S
C1302 N1300 1.356 . S
C1303 C1297 1.363 . S
C1303 C1298 1.360 1_455 S
C1303 N1301 1.356 . S
N1304 C1296 1.356 . S
N1304 H1310 0.984 . S
N1304 H1311 0.984 . S
N1305 C1298 1.364 . S
N1305 H1308 0.984 . S
N1305 H1309 0.985 . S
H1306 N1301 0.984 . S
H1307 N1301 0.985 . S
H1308 N1305 0.984 . S
H1309 N1305 0.985 . S
H1310 N1304 0.984 . S
H1311 N1304 0.984 . S
H1312 N1300 0.984 . S
H1313 N1300 0.985 . S
C1314 C1315 1.363 . S
C1314 C1320 1.379 . S
C1314 N1322 1.356 . S
C1315 C1314 1.363 . S
C1315 C1321 1.363 . S
C1316 C1317 1.363 . S
C1316 C1321 1.379 . S
C1316 N1323 1.356 . S
C1317 C1316 1.363 . S
C1317 C1320 1.363 . S
N1318 C1320 1.356 . S
N1318 H1330 0.984 . S
N1318 H1331 0.985 . S
N1319 C1321 1.356 . S
N1319 H1324 0.984 . S
N1319 H1325 0.985 . S
C1320 C1314 1.379 . S
C1320 C1317 1.363 . S
C1320 N1318 1.356 . S
C1321 C1315 1.363 . S
C1321 C1316 1.379 . S
C1321 N1319 1.356 . S
N1322 C1314 1.356 . S
N1322 H1328 0.984 . S
N1322 H1329 0.984 . S
N1323 C1316 1.356 . S
N1323 H1326 0.984 . S
N1323 H1327 0.985 . S
H1324 N1319 0.984 . S
H1325 N1319 0.985 . S
H1326 N1323 0.984 . S
H1327 N1323 0.985 . S
H1328 N1322 0.984 . S
H1329 N1322 0.984 . S
H1330 N1318 0.984 . S
H1331 N1318 0.985 . S
C1332 C1333 1.363 . S
C1332 C1338 1.379 1_545 S
C1332 N1340 1.356 . S
C1333 C1332 1.363 . S
C1333 C1339 1.363 . S
C1334 C1335 1.363 . S
C1334 C1339 1.379 1_565 S
C1334 N1341 1.356 . S
C1335 C1334 1.363 . S
C1335 C1338 1.363 . S
N1336 C1338 1.356 . S
N1336 H1348 0.984 . S
N1336 H1349 0.985 . S
N1337 C1339 1.356 . S
N1337 H1342 0.984 . S
N1337 H1343 0.985 . S
C1338 C1332 1.379 1_565 S
C1338 C1335 1.363 . S
C1338 N1336 1.356 . S
C1339 C1333 1.363 . S
C1339 C1334 1.379 1_545 S
C1339 N1337 1.356 . S
N1340 C1332 1.356 . S
N1340 H1346 0.984 . S
N1340 H1347 0.984 . S
N1341 C1334 1.356 . S
N1341 H1344 0.984 . S
N1341 H1345 0.985 . S
H1342 N1337 0.984 . S
H1343 N1337 0.985 . S
H1344 N1341 0.984 . S
H1345 N1341 0.985 . S
H1346 N1340 0.984 . S
H1347 N1340 0.984 . S
H1348 N1336 0.984 . S
H1349 N1336 0.985 . S
C1350 C1351 1.363 . S
C1350 C1356 1.381 . S
C1350 N1358 1.356 . S
C1351 C1350 1.363 . S
C1351 C1357 1.363 . S
C1352 C1353 1.363 . S
C1352 C1357 1.379 1_565 S
C1352 N1359 1.356 . S
C1353 C1352 1.363 . S
C1353 C1356 1.361 1_565 S
N1354 C1356 1.356 1_565 S
N1354 H1366 0.984 . S
N1354 H1367 0.985 . S
N1355 C1357 1.356 . S
N1355 H1360 0.984 . S
N1355 H1361 0.985 . S
C1356 C1350 1.381 . S
C1356 C1353 1.361 1_545 S
C1356 N1354 1.356 1_545 S
C1357 C1351 1.363 . S
C1357 C1352 1.379 1_545 S
C1357 N1355 1.356 . S
N1358 C1350 1.356 . S
N1358 H1364 0.984 . S
N1358 H1365 0.984 . S
N1359 C1352 1.356 . S
N1359 H1362 0.984 . S
N1359 H1363 0.985 . S
H1360 N1355 0.984 . S
H1361 N1355 0.985 . S
H1362 N1359 0.984 . S
H1363 N1359 0.985 . S
H1364 N1358 0.984 . S
H1365 N1358 0.984 . S
H1366 N1354 0.984 . S
H1367 N1354 0.985 . S
C1368 C1369 1.363 . S
C1368 C1374 1.379 . S
C1368 N1376 1.356 . S
C1369 C1368 1.363 . S
C1369 C1375 1.363 . S
C1370 C1371 1.363 . S
C1370 C1375 1.379 1_455 S
C1370 N1377 1.356 . S
C1371 C1370 1.363 . S
C1371 C1374 1.363 1_455 S
N1372 C1374 1.356 1_455 S
N1372 H1384 0.984 . S
N1372 H1385 0.985 . S
N1373 C1375 1.356 . S
N1373 H1378 0.984 . S
N1373 H1379 0.985 . S
C1374 C1368 1.379 . S
C1374 C1371 1.363 1_655 S
C1374 N1372 1.356 1_655 S
C1375 C1369 1.363 . S
C1375 C1370 1.379 1_655 S
C1375 N1373 1.356 . S
N1376 C1368 1.356 . S
N1376 H1382 0.984 . S
N1376 H1383 0.984 . S
N1377 C1370 1.356 . S
N1377 H1380 0.984 . S
N1377 H1381 0.985 . S
H1378 N1373 0.984 . S
H1379 N1373 0.985 . S
H1380 N1377 0.984 . S
H1381 N1377 0.985 . S
H1382 N1376 0.984 . S
H1383 N1376 0.984 . S
H1384 N1372 0.984 . S
H1385 N1372 0.985 . S
C1386 C1387 1.363 . S
C1386 C1392 1.379 . S
C1386 N1394 1.356 . S
C1387 C1386 1.363 . S
C1387 C1393 1.363 . S
C1388 C1389 1.363 . S
C1388 C1393 1.379 . S
C1388 N1395 1.356 . S
C1389 C1388 1.363 . S
C1389 C1392 1.363 . S
N1390 C1392 1.356 . S
N1390 H1402 0.984 . S
N1390 H1403 0.985 . S
N1391 C1393 1.356 . S
N1391 H1396 0.984 . S
N1391 H1397 0.985 . S
C1392 C1386 1.379 . S
C1392 C1389 1.363 . S
C1392 N1390 1.356 . S
C1393 C1387 1.363 . S
C1393 C1388 1.379 . S
C1393 N1391 1.356 . S
N1394 C1386 1.356 . S
N1394 H1400 0.984 . S
N1394 H1401 0.984 . S
N1395 C1388 1.356 . S
N1395 H1398 0.984 . S
N1395 H1399 0.985 . S
H1396 N1391 0.984 . S
H1397 N1391 0.985 . S
H1398 N1395 0.984 . S
H1399 N1395 0.985 . S
H1400 N1394 0.984 . S
H1401 N1394 0.984 . S
H1402 N1390 0.984 . S
H1403 N1390 0.985 . S
C1404 C1405 1.363 . S
C1404 C1410 1.379 1_655 S
C1404 N1412 1.356 . S
C1405 C1404 1.363 . S
C1405 C1411 1.363 . S
C1406 C1407 1.363 . S
C1406 C1411 1.379 1_455 S
C1406 N1413 1.356 . S
C1407 C1406 1.363 . S
C1407 C1410 1.363 . S
N1408 C1410 1.356 . S
N1408 H1420 0.984 . S
N1408 H1421 0.985 . S
N1409 C1411 1.356 . S
N1409 H1414 0.984 . S
N1409 H1415 0.985 . S
C1410 C1404 1.379 1_455 S
C1410 C1407 1.363 . S
C1410 N1408 1.356 . S
C1411 C1405 1.363 . S
C1411 C1406 1.379 1_655 S
C1411 N1409 1.356 . S
N1412 C1404 1.356 . S
N1412 H1418 0.984 . S
N1412 H1419 0.984 . S
N1413 C1406 1.356 . S
N1413 H1416 0.984 . S
N1413 H1417 0.985 . S
H1414 N1409 0.984 . S
H1415 N1409 0.985 . S
H1416 N1413 0.984 . S
H1417 N1413 0.985 . S
H1418 N1412 0.984 . S
H1419 N1412 0.984 . S
H1420 N1408 0.984 . S
H1421 N1408 0.985 . S
C1422 C1423 1.363 . S
C1422 C1428 1.379 . S
C1422 N1430 1.356 . S
C1423 C1422 1.363 . S
C1423 C1429 1.363 . S
C1424 C1425 1.363 . S
C1424 C1429 1.379 . S
C1424 N1431 1.356 . S
C1425 C1424 1.363 . S
C1425 C1428 1.363 . S
N1426 C1428 1.356 . S
N1426 H1438 0.984 . S
N1426 H1439 0.985 . S
N1427 C1429 1.356 . S
N1427 H1432 0.984 . S
N1427 H1433 0.985 . S
C1428 C1422 1.379 . S
C1428 C1425 1.363 . S
C1428 N1426 1.356 . S
C1429 C1423 1.363 . S
C1429 C1424 1.379 . S
C1429 N1427 1.356 . S
N1430 C1422 1.356 . S
N1430 H1436 0.984 . S
N1430 H1437 0.984 . S
N1431 C1424 1.356 . S
N1431 H1434 0.984 . S
N1431 H1435 0.985 . S
H1432 N1427 0.984 . S
H1433 N1427 0.985 . S
H1434 N1431 0.984 . S
H1435 N1431 0.985 . S
H1436 N1430 0.984 . S
H1437 N1430 0.984 . S
H1438 N1426 0.984 . S
H1439 N1426 0.985 . S
C1440 C1441 1.363 . S
C1440 C1446 1.379 1_565 S
C1440 N1448 1.356 . S
C1441 C1440 1.363 . S
C1441 C1447 1.359 1_565 S
C1442 C1443 1.363 . S
C1442 C1447 1.389 . S
C1442 N1449 1.356 . S
C1443 C1442 1.363 . S
C1443 C1446 1.363 . S
N1444 C1446 1.356 . S
N1444 H1456 0.984 . S
N1444 H1457 0.985 . S
N1445 C1447 1.348 1_565 S
N1445 H1450 0.984 . S
N1445 H1451 0.985 . S
C1446 C1440 1.379 1_545 S
C1446 C1443 1.363 . S
C1446 N1444 1.356 . S
C1447 C1441 1.359 1_545 S
C1447 C1442 1.389 . S
C1447 N1445 1.348 1_545 S
N1448 C1440 1.356 . S
N1448 H1454 0.984 . S
N1448 H1455 0.984 . S
N1449 C1442 1.356 . S
N1449 H1452 0.984 . S
N1449 H1453 0.985 . S
H1450 N1445 0.984 . S
H1451 N1445 0.985 . S
H1452 N1449 0.984 . S
H1453 N1449 0.985 . S
H1454 N1448 0.984 . S
H1455 N1448 0.984 . S
H1456 N1444 0.984 . S
H1457 N1444 0.985 . S
C1458 C1459 1.369 . S
C1458 C1464 1.372 1_545 S
C1458 N1466 1.359 . S
C1459 C1458 1.369 . S
C1459 C1465 1.363 . S
C1460 C1461 1.363 . S
C1460 C1465 1.379 1_565 S
C1460 N1467 1.356 . S
C1461 C1460 1.363 . S
C1461 C1464 1.363 . S
N1462 C1464 1.356 . S
N1462 H1474 0.984 . S
N1462 H1475 0.985 . S
N1463 C1465 1.356 . S
N1463 H1468 0.984 . S
N1463 H1469 0.985 . S
C1464 C1458 1.372 1_565 S
C1464 C1461 1.363 . S
C1464 N1462 1.356 . S
C1465 C1459 1.363 . S
C1465 C1460 1.379 1_545 S
C1465 N1463 1.356 . S
N1466 C1458 1.359 . S
N1466 H1472 0.984 . S
N1466 H1473 0.984 . S
N1467 C1460 1.356 . S
N1467 H1470 0.984 . S
N1467 H1471 0.985 . S
H1468 N1463 0.984 . S
H1469 N1463 0.985 . S
H1470 N1467 0.984 . S
H1471 N1467 0.985 . S
H1472 N1466 0.984 . S
H1473 N1466 0.984 . S
H1474 N1462 0.984 . S
H1475 N1462 0.985 . S
C1476 C1477 1.363 . S
C1476 C1482 1.379 1_455 S
C1476 N1484 1.356 . S
C1477 C1476 1.363 . S
C1477 C1483 1.363 . S
C1478 C1479 1.363 . S
C1478 C1483 1.379 1_655 S
C1478 N1485 1.356 . S
C1479 C1478 1.363 . S
C1479 C1482 1.363 . S
N1480 C1482 1.356 . S
N1480 H1492 0.984 . S
N1480 H1493 0.985 . S
N1481 C1483 1.356 . S
N1481 H1486 0.984 . S
N1481 H1487 0.985 . S
C1482 C1476 1.379 1_655 S
C1482 C1479 1.363 . S
C1482 N1480 1.356 . S
C1483 C1477 1.363 . S
C1483 C1478 1.379 1_455 S
C1483 N1481 1.356 . S
N1484 C1476 1.356 . S
N1484 H1490 0.984 . S
N1484 H1491 0.984 . S
N1485 C1478 1.356 . S
N1485 H1488 0.984 . S
N1485 H1489 0.985 . S
H1486 N1481 0.984 . S
H1487 N1481 0.985 . S
H1488 N1485 0.984 . S
H1489 N1485 0.985 . S
H1490 N1484 0.984 . S
H1491 N1484 0.984 . S
H1492 N1480 0.984 . S
H1493 N1480 0.985 . S
C1494 C1495 1.363 . S
C1494 C1500 1.379 . S
C1494 N1502 1.356 . S
C1495 C1494 1.363 . S
C1495 C1501 1.363 . S
C1496 C1497 1.363 . S
C1496 C1501 1.379 . S
C1496 N1503 1.356 . S
C1497 C1496 1.363 . S
C1497 C1500 1.363 . S
N1498 C1500 1.356 . S
N1498 H1510 0.984 . S
N1498 H1511 0.985 . S
N1499 C1501 1.356 . S
N1499 H1504 0.984 . S
N1499 H1505 0.985 . S
C1500 C1494 1.379 . S
C1500 C1497 1.363 . S
C1500 N1498 1.356 . S
C1501 C1495 1.363 . S
C1501 C1496 1.379 . S
C1501 N1499 1.356 . S
N1502 C1494 1.356 . S
N1502 H1508 0.984 . S
N1502 H1509 0.984 . S
N1503 C1496 1.356 . S
N1503 H1506 0.984 . S
N1503 H1507 0.985 . S
H1504 N1499 0.984 . S
H1505 N1499 0.985 . S
H1506 N1503 0.984 . S
H1507 N1503 0.985 . S
H1508 N1502 0.984 . S
H1509 N1502 0.984 . S
H1510 N1498 0.984 . S
H1511 N1498 0.985 . S
C1512 C1513 1.363 . S
C1512 C1518 1.379 . S
C1512 N1520 1.356 . S
C1513 C1512 1.363 . S
C1513 C1519 1.363 . S
C1514 C1515 1.363 . S
C1514 C1519 1.379 . S
C1514 N1521 1.356 . S
C1515 C1514 1.363 . S
C1515 C1518 1.363 . S
N1516 C1518 1.356 . S
N1516 H1528 0.984 . S
N1516 H1529 0.985 . S
N1517 C1519 1.356 . S
N1517 H1522 0.984 . S
N1517 H1523 0.985 . S
C1518 C1512 1.379 . S
C1518 C1515 1.363 . S
C1518 N1516 1.356 . S
C1519 C1513 1.363 . S
C1519 C1514 1.379 . S
C1519 N1517 1.356 . S
N1520 C1512 1.356 . S
N1520 H1526 0.984 . S
N1520 H1527 0.984 . S
N1521 C1514 1.356 . S
N1521 H1524 0.984 . S
N1521 H1525 0.985 . S
H1522 N1517 0.984 . S
H1523 N1517 0.985 . S
H1524 N1521 0.984 . S
H1525 N1521 0.985 . S
H1526 N1520 0.984 . S
H1527 N1520 0.984 . S
H1528 N1516 0.984 . S
H1529 N1516 0.985 . S
C1530 C1531 1.363 . S
C1530 C1536 1.379 . S
C1530 N1538 1.356 . S
C1531 C1530 1.363 . S
C1531 C1537 1.363 . S
C1532 C1533 1.363 . S
C1532 C1537 1.379 . S
C1532 N1539 1.356 . S
C1533 C1532 1.363 . S
C1533 C1536 1.363 . S
N1534 C1536 1.356 . S
N1534 H1546 0.984 . S
N1534 H1547 0.985 . S
N1535 C1537 1.356 . S
N1535 H1540 0.984 . S
N1535 H1541 0.985 . S
C1536 C1530 1.379 . S
C1536 C1533 1.363 . S
C1536 N1534 1.356 . S
C1537 C1531 1.363 . S
C1537 C1532 1.379 . S
C1537 N1535 1.356 . S
N1538 C1530 1.356 . S
N1538 H1544 0.984 . S
N1538 H1545 0.984 . S
N1539 C1532 1.356 . S
N1539 H1542 0.984 . S
N1539 H1543 0.985 . S
H1540 N1535 0.984 . S
H1541 N1535 0.985 . S
H1542 N1539 0.984 . S
H1543 N1539 0.985 . S
H1544 N1538 0.984 . S
H1545 N1538 0.984 . S
H1546 N1534 0.984 . S
H1547 N1534 0.985 . S
C1548 C1549 1.363 . S
C1548 C1554 1.379 . S
C1548 N1556 1.356 . S
C1549 C1548 1.363 . S
C1549 C1555 1.363 . S
C1550 C1551 1.363 . S
C1550 C1555 1.379 . S
C1550 N1557 1.356 . S
C1551 C1550 1.363 . S
C1551 C1554 1.363 . S
N1552 C1554 1.356 . S
N1552 H1564 0.984 . S
N1552 H1565 0.985 . S
N1553 C1555 1.356 . S
N1553 H1558 0.984 . S
N1553 H1559 0.985 . S
C1554 C1548 1.379 . S
C1554 C1551 1.363 . S
C1554 N1552 1.356 . S
C1555 C1549 1.363 . S
C1555 C1550 1.379 . S
C1555 N1553 1.356 . S
N1556 C1548 1.356 . S
N1556 H1562 0.984 . S
N1556 H1563 0.984 . S
N1557 C1550 1.356 . S
N1557 H1560 0.984 . S
N1557 H1561 0.985 . S
H1558 N1553 0.984 . S
H1559 N1553 0.985 . S
H1560 N1557 0.984 . S
H1561 N1557 0.985 . S
H1562 N1556 0.984 . S
H1563 N1556 0.984 . S
H1564 N1552 0.984 . S
H1565 N1552 0.985 . S
C1566 C1567 1.363 . S
C1566 C1572 1.379 . S
C1566 N1574 1.356 . S
C1567 C1566 1.363 . S
C1567 C1573 1.363 . S
C1568 C1569 1.363 . S
C1568 C1573 1.379 . S
C1568 N1575 1.356 . S
C1569 C1568 1.363 . S
C1569 C1572 1.363 . S
N1570 C1572 1.356 . S
N1570 H1582 0.984 . S
N1570 H1583 0.985 . S
N1571 C1573 1.356 . S
N1571 H1576 0.984 . S
N1571 H1577 0.985 . S
C1572 C1566 1.379 . S
C1572 C1569 1.363 . S
C1572 N1570 1.356 . S
C1573 C1567 1.363 . S
C1573 C1568 1.379 . S
C1573 N1571 1.356 . S
N1574 C1566 1.356 . S
N1574 H1580 0.984 . S
N1574 H1581 0.984 . S
N1575 C1568 1.356 . S
N1575 H1578 0.984 . S
N1575 H1579 0.985 . S
H1576 N1571 0.984 . S
H1577 N1571 0.985 . S
H1578 N1575 0.984 . S
H1579 N1575 0.985 . S
H1580 N1574 0.984 . S
H1581 N1574 0.984 . S
H1582 N1570 0.984 . S
H1583 N1570 0.985 . S
C1584 C1585 1.363 . S
C1584 C1590 1.379 . S
C1584 N1592 1.356 . S
C1585 C1584 1.363 . S
C1585 C1591 1.363 . S
C1586 C1587 1.363 . S
C1586 C1591 1.379 . S
C1586 N1593 1.356 . S
C1587 C1586 1.363 . S
C1587 C1590 1.363 . S
N1588 C1590 1.356 . S
N1588 H1600 0.984 . S
N1588 H1601 0.985 . S
N1589 C1591 1.356 . S
N1589 H1594 0.984 . S
N1589 H1595 0.985 . S
C1590 C1584 1.379 . S
C1590 C1587 1.363 . S
C1590 N1588 1.356 . S
C1591 C1585 1.363 . S
C1591 C1586 1.379 . S
C1591 N1589 1.356 . S
N1592 C1584 1.356 . S
N1592 H1598 0.984 . S
N1592 H1599 0.984 . S
N1593 C1586 1.356 . S
N1593 H1596 0.984 . S
N1593 H1597 0.985 . S
H1594 N1589 0.984 . S
H1595 N1589 0.985 . S
H1596 N1593 0.984 . S
H1597 N1593 0.985 . S
H1598 N1592 0.984 . S
H1599 N1592 0.984 . S
H1600 N1588 0.984 . S
H1601 N1588 0.985 . S
C1602 C1603 1.363 . S
C1602 C1608 1.379 . S
C1602 N1610 1.356 . S
C1603 C1602 1.363 . S
C1603 C1609 1.363 . S
C1604 C1605 1.363 . S
C1604 C1609 1.379 . S
C1604 N1611 1.356 . S
C1605 C1604 1.363 . S
C1605 C1608 1.363 . S
N1606 C1608 1.356 . S
N1606 H1618 0.984 . S
N1606 H1619 0.985 . S
N1607 C1609 1.356 . S
N1607 H1612 0.984 . S
N1607 H1613 0.985 . S
C1608 C1602 1.379 . S
C1608 C1605 1.363 . S
C1608 N1606 1.356 . S
C1609 C1603 1.363 . S
C1609 C1604 1.379 . S
C1609 N1607 1.356 . S
N1610 C1602 1.356 . S
N1610 H1616 0.984 . S
N1610 H1617 0.984 . S
N1611 C1604 1.356 . S
N1611 H1614 0.984 . S
N1611 H1615 0.985 . S
H1612 N1607 0.984 . S
H1613 N1607 0.985 . S
H1614 N1611 0.984 . S
H1615 N1611 0.985 . S
H1616 N1610 0.984 . S
H1617 N1610 0.984 . S
H1618 N1606 0.984 . S
H1619 N1606 0.985 . S
C1620 C1621 1.363 . S
C1620 C1626 1.379 . S
C1620 N1628 1.356 . S
C1621 C1620 1.363 . S
C1621 C1627 1.363 . S
C1622 C1623 1.363 . S
C1622 C1627 1.379 . S
C1622 N1629 1.356 . S
C1623 C1622 1.363 . S
C1623 C1626 1.363 . S
N1624 C1626 1.356 . S
N1624 H1636 0.984 . S
N1624 H1637 0.985 . S
N1625 C1627 1.356 . S
N1625 H1630 0.984 . S
N1625 H1631 0.985 . S
C1626 C1620 1.379 . S
C1626 C1623 1.363 . S
C1626 N1624 1.356 . S
C1627 C1621 1.363 . S
C1627 C1622 1.379 . S
C1627 N1625 1.356 . S
N1628 C1620 1.356 . S
N1628 H1634 0.984 . S
N1628 H1635 0.984 . S
N1629 C1622 1.356 . S
N1629 H1632 0.984 . S
N1629 H1633 0.985 . S
H1630 N1625 0.984 . S
H1631 N1625 0.985 . S
H1632 N1629 0.984 . S
H1633 N1629 0.985 . S
H1634 N1628 0.984 . S
H1635 N1628 0.984 . S
H1636 N1624 0.984 . S
H1637 N1624 0.985 . S
C1638 C1639 1.363 . S
C1638 C1644 1.379 . S
C1638 N1646 1.356 . S
C1639 C1638 1.363 . S
C1639 C1645 1.363 . S
C1640 C1641 1.363 . S
C1640 C1645 1.379 . S
C1640 N1647 1.356 . S
C1641 C1640 1.363 . S
C1641 C1644 1.363 . S
N1642 C1644 1.356 . S
N1642 H1654 0.984 . S
N1642 H1655 0.985 . S
N1643 C1645 1.356 . S
N1643 H1648 0.984 . S
N1643 H1649 0.985 . S
C1644 C1638 1.379 . S
C1644 C1641 1.363 . S
C1644 N1642 1.356 . S
C1645 C1639 1.363 . S
C1645 C1640 1.379 . S
C1645 N1643 1.356 . S
N1646 C1638 1.356 . S
N1646 H1652 0.984 . S
N1646 H1653 0.984 . S
N1647 C1640 1.356 . S
N1647 H1650 0.984 . S
N1647 H1651 0.985 . S
H1648 N1643 0.984 . S
H1649 N1643 0.985 . S
H1650 N1647 0.984 . S
H1651 N1647 0.985 . S
H1652 N1646 0.984 . S
H1653 N1646 0.984 . S
H1654 N1642 0.984 . S
H1655 N1642 0.985 . S
C1656 C1657 1.363 . S
C1656 C1662 1.379 . S
C1656 N1664 1.356 . S
C1657 C1656 1.363 . S
C1657 C1663 1.363 . S
C1658 C1659 1.363 . S
C1658 C1663 1.379 . S
C1658 N1665 1.356 . S
C1659 C1658 1.363 . S
C1659 C1662 1.363 . S
N1660 C1662 1.356 . S
N1660 H1672 0.984 . S
N1660 H1673 0.985 . S
N1661 C1663 1.356 . S
N1661 H1666 0.984 . S
N1661 H1667 0.985 . S
C1662 C1656 1.379 . S
C1662 C1659 1.363 . S
C1662 N1660 1.356 . S
C1663 C1657 1.363 . S
C1663 C1658 1.379 . S
C1663 N1661 1.356 . S
N1664 C1656 1.356 . S
N1664 H1670 0.984 . S
N1664 H1671 0.984 . S
N1665 C1658 1.356 . S
N1665 H1668 0.984 . S
N1665 H1669 0.985 . S
H1666 N1661 0.984 . S
H1667 N1661 0.985 . S
H1668 N1665 0.984 . S
H1669 N1665 0.985 . S
H1670 N1664 0.984 . S
H1671 N1664 0.984 . S
H1672 N1660 0.984 . S
H1673 N1660 0.985 . S
C1674 C1675 1.363 1_556 S
C1674 C1680 1.379 . S
C1674 N1682 1.356 . S
C1675 C1674 1.363 1_554 S
C1675 C1681 1.363 . S
C1676 C1677 1.368 1_554 S
C1676 C1681 1.379 . S
C1676 N1683 1.356 . S
C1677 C1676 1.368 1_556 S
C1677 C1680 1.358 . S
N1678 C1680 1.356 . S
N1678 H1690 0.984 . S
N1678 H1691 0.985 . S
N1679 C1681 1.356 . S
N1679 H1684 0.984 . S
N1679 H1685 0.985 . S
C1680 C1674 1.379 . S
C1680 C1677 1.358 . S
C1680 N1678 1.356 . S
C1681 C1675 1.363 . S
C1681 C1676 1.379 . S
C1681 N1679 1.356 . S
N1682 C1674 1.356 . S
N1682 H1688 0.984 . S
N1682 H1689 0.984 . S
N1683 C1676 1.356 . S
N1683 H1686 0.984 . S
N1683 H1687 0.985 . S
H1684 N1679 0.984 . S
H1685 N1679 0.985 . S
H1686 N1683 0.984 . S
H1687 N1683 0.985 . S
H1688 N1682 0.984 . S
H1689 N1682 0.984 . S
H1690 N1678 0.984 . S
H1691 N1678 0.985 . S
C1692 C1693 1.366 1_554 S
C1692 C1698 1.379 . S
C1692 N1700 1.356 . S
C1693 C1692 1.366 1_556 S
C1693 C1699 1.360 . S
C1694 C1695 1.363 1_556 S
C1694 C1699 1.379 . S
C1694 N1701 1.356 . S
C1695 C1694 1.363 1_554 S
C1695 C1698 1.363 . S
N1696 C1698 1.356 . S
N1696 H1708 0.984 . S
N1696 H1709 0.985 . S
N1697 C1699 1.356 . S
N1697 H1702 0.984 . S
N1697 H1703 0.985 . S
C1698 C1692 1.379 . S
C1698 C1695 1.363 . S
C1698 N1696 1.356 . S
C1699 C1693 1.360 . S
C1699 C1694 1.379 . S
C1699 N1697 1.356 . S
N1700 C1692 1.356 . S
N1700 H1706 0.984 . S
N1700 H1707 0.984 . S
N1701 C1694 1.356 . S
N1701 H1704 0.984 . S
N1701 H1705 0.985 . S
H1702 N1697 0.984 . S
H1703 N1697 0.985 . S
H1704 N1701 0.984 . S
H1705 N1701 0.985 . S
H1706 N1700 0.984 . S
H1707 N1700 0.984 . S
H1708 N1696 0.984 . S
H1709 N1696 0.985 . S
C1710 C1711 1.363 1_556 S
C1710 C1716 1.379 . S
C1710 N1718 1.356 . S
C1711 C1710 1.363 1_554 S
C1711 C1717 1.363 . S
C1712 C1713 1.367 1_554 S
C1712 C1717 1.379 . S
C1712 N1719 1.356 . S
C1713 C1712 1.367 1_556 S
C1713 C1716 1.360 . S
N1714 C1716 1.356 . S
N1714 H1726 0.984 . S
N1714 H1727 0.985 . S
N1715 C1717 1.356 . S
N1715 H1720 0.984 . S
N1715 H1721 0.985 . S
C1716 C1710 1.379 . S
C1716 C1713 1.360 . S
C1716 N1714 1.356 . S
C1717 C1711 1.363 . S
C1717 C1712 1.379 . S
C1717 N1715 1.356 . S
N1718 C1710 1.356 . S
N1718 H1724 0.984 . S
N1718 H1725 0.984 . S
N1719 C1712 1.356 . S
N1719 H1722 0.984 . S
N1719 H1723 0.985 . S
H1720 N1715 0.984 . S
H1721 N1715 0.985 . S
H1722 N1719 0.984 . S
H1723 N1719 0.985 . S
H1724 N1718 0.984 . S
H1725 N1718 0.984 . S
H1726 N1714 0.984 . S
H1727 N1714 0.985 . S
C1728 C1729 1.363 . S
C1728 C1734 1.379 . S
C1728 N1736 1.356 . S
C1729 C1728 1.363 . S
C1729 C1735 1.363 . S
C1730 C1731 1.363 . S
C1730 C1735 1.379 . S
C1730 N1737 1.356 . S
C1731 C1730 1.363 . S
C1731 C1734 1.363 . S
N1732 C1734 1.356 . S
N1732 H1744 0.984 . S
N1732 H1745 0.985 . S
N1733 C1735 1.356 . S
N1733 H1738 0.984 . S
N1733 H1739 0.985 . S
C1734 C1728 1.379 . S
C1734 C1731 1.363 . S
C1734 N1732 1.356 . S
C1735 C1729 1.363 . S
C1735 C1730 1.379 . S
C1735 N1733 1.356 . S
N1736 C1728 1.356 . S
N1736 H1742 0.984 . S
N1736 H1743 0.984 . S
N1737 C1730 1.356 . S
N1737 H1740 0.984 . S
N1737 H1741 0.985 . S
H1738 N1733 0.984 . S
H1739 N1733 0.985 . S
H1740 N1737 0.984 . S
H1741 N1737 0.985 . S
H1742 N1736 0.984 . S
H1743 N1736 0.984 . S
H1744 N1732 0.984 . S
H1745 N1732 0.985 . S
C1746 C1747 1.363 . S
C1746 C1752 1.379 . S
C1746 N1754 1.356 . S
C1747 C1746 1.363 . S
C1747 C1753 1.363 . S
C1748 C1749 1.363 . S
C1748 C1753 1.379 . S
C1748 N1755 1.356 . S
C1749 C1748 1.363 . S
C1749 C1752 1.363 . S
N1750 C1752 1.356 . S
N1750 H1762 0.984 . S
N1750 H1763 0.985 . S
N1751 C1753 1.356 . S
N1751 H1756 0.984 . S
N1751 H1757 0.985 . S
C1752 C1746 1.379 . S
C1752 C1749 1.363 . S
C1752 N1750 1.356 . S
C1753 C1747 1.363 . S
C1753 C1748 1.379 . S
C1753 N1751 1.356 . S
N1754 C1746 1.356 . S
N1754 H1760 0.984 . S
N1754 H1761 0.984 . S
N1755 C1748 1.356 . S
N1755 H1758 0.984 . S
N1755 H1759 0.985 . S
H1756 N1751 0.984 . S
H1757 N1751 0.985 . S
H1758 N1755 0.984 . S
H1759 N1755 0.985 . S
H1760 N1754 0.984 . S
H1761 N1754 0.984 . S
H1762 N1750 0.984 . S
H1763 N1750 0.985 . S
C1764 C1765 1.363 . S
C1764 C1770 1.379 . S
C1764 N1772 1.356 . S
C1765 C1764 1.363 . S
C1765 C1771 1.363 . S
C1766 C1767 1.363 . S
C1766 C1771 1.379 . S
C1766 N1773 1.356 . S
C1767 C1766 1.363 . S
C1767 C1770 1.363 . S
N1768 C1770 1.356 . S
N1768 H1780 0.984 . S
N1768 H1781 0.985 . S
N1769 C1771 1.356 . S
N1769 H1774 0.984 . S
N1769 H1775 0.985 . S
C1770 C1764 1.379 . S
C1770 C1767 1.363 . S
C1770 N1768 1.356 . S
C1771 C1765 1.363 . S
C1771 C1766 1.379 . S
C1771 N1769 1.356 . S
N1772 C1764 1.356 . S
N1772 H1778 0.984 . S
N1772 H1779 0.984 . S
N1773 C1766 1.356 . S
N1773 H1776 0.984 . S
N1773 H1777 0.985 . S
H1774 N1769 0.984 . S
H1775 N1769 0.985 . S
H1776 N1773 0.984 . S
H1777 N1773 0.985 . S
H1778 N1772 0.984 . S
H1779 N1772 0.984 . S
H1780 N1768 0.984 . S
H1781 N1768 0.985 . S
C1782 C1783 1.363 . S
C1782 C1788 1.379 . S
C1782 N1790 1.356 . S
C1783 C1782 1.363 . S
C1783 C1789 1.363 1_556 S
C1784 C1785 1.364 . S
C1784 C1789 1.379 . S
C1784 N1791 1.356 . S
C1785 C1784 1.364 . S
C1785 C1788 1.362 1_554 S
N1786 C1788 1.356 . S
N1786 H1798 0.984 . S
N1786 H1799 0.985 . S
N1787 C1789 1.356 . S
N1787 H1792 0.984 . S
N1787 H1793 0.985 . S
C1788 C1782 1.379 . S
C1788 C1785 1.362 1_556 S
C1788 N1786 1.356 . S
C1789 C1783 1.363 1_554 S
C1789 C1784 1.379 . S
C1789 N1787 1.356 . S
N1790 C1782 1.356 . S
N1790 H1796 0.984 . S
N1790 H1797 0.984 . S
N1791 C1784 1.356 . S
N1791 H1794 0.984 . S
N1791 H1795 0.985 . S
H1792 N1787 0.984 . S
H1793 N1787 0.985 . S
H1794 N1791 0.984 . S
H1795 N1791 0.985 . S
H1796 N1790 0.984 . S
H1797 N1790 0.984 . S
H1798 N1786 0.984 . S
H1799 N1786 0.985 . S
C1800 C1801 1.362 1_556 S
C1800 C1806 1.379 . S
C1800 N1808 1.356 . S
C1801 C1800 1.362 1_554 S
C1801 C1807 1.364 . S
C1802 C1803 1.363 1_554 S
C1802 C1807 1.379 . S
C1802 N1809 1.356 . S
C1803 C1802 1.363 1_556 S
C1803 C1806 1.363 . S
N1804 C1806 1.356 . S
N1804 H1816 0.984 . S
N1804 H1817 0.985 . S
N1805 C1807 1.356 . S
N1805 H1810 0.984 . S
N1805 H1811 0.985 . S
C1806 C1800 1.379 . S
C1806 C1803 1.363 . S
C1806 N1804 1.356 . S
C1807 C1801 1.364 . S
C1807 C1802 1.379 . S
C1807 N1805 1.356 . S
N1808 C1800 1.356 . S
N1808 H1814 0.984 . S
N1808 H1815 0.984 . S
N1809 C1802 1.356 . S
N1809 H1812 0.984 . S
N1809 H1813 0.985 . S
H1810 N1805 0.984 . S
H1811 N1805 0.985 . S
H1812 N1809 0.984 . S
H1813 N1809 0.985 . S
H1814 N1808 0.984 . S
H1815 N1808 0.984 . S
H1816 N1804 0.984 . S
H1817 N1804 0.985 . S
C1818 C1819 1.363 . S
C1818 C1824 1.379 . S
C1818 N1826 1.356 . S
C1819 C1818 1.363 . S
C1819 C1825 1.363 1_556 S
C1820 C1821 1.365 . S
C1820 C1825 1.379 . S
C1820 N1827 1.356 . S
C1821 C1820 1.365 . S
C1821 C1824 1.361 1_554 S
N1822 C1824 1.356 . S
N1822 H1834 0.984 . S
N1822 H1835 0.985 . S
N1823 C1825 1.356 . S
N1823 H1828 0.984 . S
N1823 H1829 0.985 . S
C1824 C1818 1.379 . S
C1824 C1821 1.361 1_556 S
C1824 N1822 1.356 . S
C1825 C1819 1.363 1_554 S
C1825 C1820 1.379 . S
C1825 N1823 1.356 . S
N1826 C1818 1.356 . S
N1826 H1832 0.984 . S
N1826 H1833 0.984 . S
N1827 C1820 1.356 . S
N1827 H1830 0.984 . S
N1827 H1831 0.985 . S
H1828 N1823 0.984 . S
H1829 N1823 0.985 . S
H1830 N1827 0.984 . S
H1831 N1827 0.985 . S
H1832 N1826 0.984 . S
H1833 N1826 0.984 . S
H1834 N1822 0.984 . S
H1835 N1822 0.985 . S
C1836 C1837 1.363 . S
C1836 C1842 1.379 . S
C1836 N1844 1.356 . S
C1837 C1836 1.363 . S
C1837 C1843 1.363 . S
C1838 C1839 1.363 . S
C1838 C1843 1.379 . S
C1838 N1845 1.356 . S
C1839 C1838 1.363 . S
C1839 C1842 1.363 . S
N1840 C1842 1.356 . S
N1840 H1852 0.984 . S
N1840 H1853 0.985 . S
N1841 C1843 1.356 . S
N1841 H1846 0.984 . S
N1841 H1847 0.985 . S
C1842 C1836 1.379 . S
C1842 C1839 1.363 . S
C1842 N1840 1.356 . S
C1843 C1837 1.363 . S
C1843 C1838 1.379 . S
C1843 N1841 1.356 . S
N1844 C1836 1.356 . S
N1844 H1850 0.984 . S
N1844 H1851 0.984 . S
N1845 C1838 1.356 . S
N1845 H1848 0.984 . S
N1845 H1849 0.985 . S
H1846 N1841 0.984 . S
H1847 N1841 0.985 . S
H1848 N1845 0.984 . S
H1849 N1845 0.985 . S
H1850 N1844 0.984 . S
H1851 N1844 0.984 . S
H1852 N1840 0.984 . S
H1853 N1840 0.985 . S
C1854 C1855 1.363 . S
C1854 C1860 1.379 . S
C1854 N1862 1.356 . S
C1855 C1854 1.363 . S
C1855 C1861 1.363 . S
C1856 C1857 1.363 . S
C1856 C1861 1.379 . S
C1856 N1863 1.356 . S
C1857 C1856 1.363 . S
C1857 C1860 1.363 . S
N1858 C1860 1.356 . S
N1858 H1870 0.984 . S
N1858 H1871 0.985 . S
N1859 C1861 1.356 . S
N1859 H1864 0.984 . S
N1859 H1865 0.985 . S
C1860 C1854 1.379 . S
C1860 C1857 1.363 . S
C1860 N1858 1.356 . S
C1861 C1855 1.363 . S
C1861 C1856 1.379 . S
C1861 N1859 1.356 . S
N1862 C1854 1.356 . S
N1862 H1868 0.984 . S
N1862 H1869 0.984 . S
N1863 C1856 1.356 . S
N1863 H1866 0.984 . S
N1863 H1867 0.985 . S
H1864 N1859 0.984 . S
H1865 N1859 0.985 . S
H1866 N1863 0.984 . S
H1867 N1863 0.985 . S
H1868 N1862 0.984 . S
H1869 N1862 0.984 . S
H1870 N1858 0.984 . S
H1871 N1858 0.985 . S
C1872 C1873 1.363 . S
C1872 C1878 1.379 . S
C1872 N1880 1.356 . S
C1873 C1872 1.363 . S
C1873 C1879 1.363 . S
C1874 C1875 1.363 . S
C1874 C1879 1.379 . S
C1874 N1881 1.356 . S
C1875 C1874 1.363 . S
C1875 C1878 1.363 . S
N1876 C1878 1.356 . S
N1876 H1888 0.984 . S
N1876 H1889 0.985 . S
N1877 C1879 1.356 . S
N1877 H1882 0.984 . S
N1877 H1883 0.985 . S
C1878 C1872 1.379 . S
C1878 C1875 1.363 . S
C1878 N1876 1.356 . S
C1879 C1873 1.363 . S
C1879 C1874 1.379 . S
C1879 N1877 1.356 . S
N1880 C1872 1.356 . S
N1880 H1886 0.984 . S
N1880 H1887 0.984 . S
N1881 C1874 1.356 . S
N1881 H1884 0.984 . S
N1881 H1885 0.985 . S
H1882 N1877 0.984 . S
H1883 N1877 0.985 . S
H1884 N1881 0.984 . S
H1885 N1881 0.985 . S
H1886 N1880 0.984 . S
H1887 N1880 0.984 . S
H1888 N1876 0.984 . S
H1889 N1876 0.985 . S
C1890 C1891 1.363 . S
C1890 C1896 1.379 . S
C1890 N1898 1.356 . S
C1891 C1890 1.363 . S
C1891 C1897 1.363 . S
C1892 C1893 1.363 . S
C1892 C1897 1.379 . S
C1892 N1899 1.356 . S
C1893 C1892 1.363 . S
C1893 C1896 1.363 . S
N1894 C1896 1.356 . S
N1894 H1906 0.984 . S
N1894 H1907 0.985 . S
N1895 C1897 1.356 . S
N1895 H1900 0.984 . S
N1895 H1901 0.985 . S
C1896 C1890 1.379 . S
C1896 C1893 1.363 . S
C1896 N1894 1.356 . S
C1897 C1891 1.363 . S
C1897 C1892 1.379 . S
C1897 N1895 1.356 . S
N1898 C1890 1.356 . S
N1898 H1904 0.984 . S
N1898 H1905 0.984 . S
N1899 C1892 1.356 . S
N1899 H1902 0.984 . S
N1899 H1903 0.985 . S
H1900 N1895 0.984 . S
H1901 N1895 0.985 . S
H1902 N1899 0.984 . S
H1903 N1899 0.985 . S
H1904 N1898 0.984 . S
H1905 N1898 0.984 . S
H1906 N1894 0.984 . S
H1907 N1894 0.985 . S
C1908 C1909 1.363 . S
C1908 C1914 1.379 . S
C1908 N1916 1.356 . S
C1909 C1908 1.363 . S
C1909 C1915 1.363 . S
C1910 C1911 1.363 . S
C1910 C1915 1.379 . S
C1910 N1917 1.356 . S
C1911 C1910 1.363 . S
C1911 C1914 1.363 . S
N1912 C1914 1.356 . S
N1912 H1924 0.984 . S
N1912 H1925 0.985 . S
N1913 C1915 1.356 . S
N1913 H1918 0.984 . S
N1913 H1919 0.985 . S
C1914 C1908 1.379 . S
C1914 C1911 1.363 . S
C1914 N1912 1.356 . S
C1915 C1909 1.363 . S
C1915 C1910 1.379 . S
C1915 N1913 1.356 . S
N1916 C1908 1.356 . S
N1916 H1922 0.984 . S
N1916 H1923 0.984 . S
N1917 C1910 1.356 . S
N1917 H1920 0.984 . S
N1917 H1921 0.985 . S
H1918 N1913 0.984 . S
H1919 N1913 0.985 . S
H1920 N1917 0.984 . S
H1921 N1917 0.985 . S
H1922 N1916 0.984 . S
H1923 N1916 0.984 . S
H1924 N1912 0.984 . S
H1925 N1912 0.985 . S
C1926 C1927 1.363 . S
C1926 C1932 1.379 . S
C1926 N1934 1.356 . S
C1927 C1926 1.363 . S
C1927 C1933 1.363 . S
C1928 C1929 1.363 . S
C1928 C1933 1.379 . S
C1928 N1935 1.356 . S
C1929 C1928 1.363 . S
C1929 C1932 1.363 . S
N1930 C1932 1.356 . S
N1930 H1942 0.984 . S
N1930 H1943 0.985 . S
N1931 C1933 1.356 . S
N1931 H1936 0.984 . S
N1931 H1937 0.985 . S
C1932 C1926 1.379 . S
C1932 C1929 1.363 . S
C1932 N1930 1.356 . S
C1933 C1927 1.363 . S
C1933 C1928 1.379 . S
C1933 N1931 1.356 . S
N1934 C1926 1.356 . S
N1934 H1940 0.984 . S
N1934 H1941 0.984 . S
N1935 C1928 1.356 . S
N1935 H1938 0.984 . S
N1935 H1939 0.985 . S
H1936 N1931 0.984 . S
H1937 N1931 0.985 . S
H1938 N1935 0.984 . S
H1939 N1935 0.985 . S
H1940 N1934 0.984 . S
H1941 N1934 0.984 . S
H1942 N1930 0.984 . S
H1943 N1930 0.985 . S
C1944 C1945 1.363 . S
C1944 C1950 1.379 . S
C1944 N1952 1.356 . S
C1945 C1944 1.363 . S
C1945 C1951 1.363 . S
C1946 C1947 1.363 . S
C1946 C1951 1.379 . S
C1946 N1953 1.356 . S
C1947 C1946 1.363 . S
C1947 C1950 1.363 . S
N1948 C1950 1.356 . S
N1948 H1960 0.984 . S
N1948 H1961 0.985 . S
N1949 C1951 1.356 . S
N1949 H1954 0.984 . S
N1949 H1955 0.985 . S
C1950 C1944 1.379 . S
C1950 C1947 1.363 . S
C1950 N1948 1.356 . S
C1951 C1945 1.363 . S
C1951 C1946 1.379 . S
C1951 N1949 1.356 . S
N1952 C1944 1.356 . S
N1952 H1958 0.984 . S
N1952 H1959 0.984 . S
N1953 C1946 1.356 . S
N1953 H1956 0.984 . S
N1953 H1957 0.985 . S
H1954 N1949 0.984 . S
H1955 N1949 0.985 . S
H1956 N1953 0.984 . S
H1957 N1953 0.985 . S
H1958 N1952 0.984 . S
H1959 N1952 0.984 . S
H1960 N1948 0.984 . S
H1961 N1948 0.985 . S
C1962 C1963 1.363 1_545 S
C1962 C1968 1.379 . S
C1962 N1970 1.356 . S
C1963 C1962 1.363 1_565 S
C1963 C1969 1.363 . S
C1964 C1965 1.363 1_565 S
C1964 C1969 1.379 . S
C1964 N1971 1.356 . S
C1965 C1964 1.363 1_545 S
C1965 C1968 1.363 . S
N1966 C1968 1.356 . S
N1966 H1978 0.984 . S
N1966 H1979 0.985 . S
N1967 C1969 1.356 . S
N1967 H1972 0.984 . S
N1967 H1973 0.985 . S
C1968 C1962 1.379 . S
C1968 C1965 1.363 . S
C1968 N1966 1.356 . S
C1969 C1963 1.363 . S
C1969 C1964 1.379 . S
C1969 N1967 1.356 . S
N1970 C1962 1.356 . S
N1970 H1976 0.984 . S
N1970 H1977 0.984 . S
N1971 C1964 1.356 . S
N1971 H1974 0.984 . S
N1971 H1975 0.985 . S
H1972 N1967 0.984 . S
H1973 N1967 0.985 . S
H1974 N1971 0.984 . S
H1975 N1971 0.985 . S
H1976 N1970 0.984 . S
H1977 N1970 0.984 . S
H1978 N1966 0.984 . S
H1979 N1966 0.985 . S
C1980 C1981 1.363 . S
C1980 C1986 1.379 . S
C1980 N1988 1.356 . S
C1981 C1980 1.363 . S
C1981 C1987 1.363 1_655 S
C1982 C1983 1.363 . S
C1982 C1987 1.379 . S
C1982 N1989 1.356 . S
C1983 C1982 1.363 . S
C1983 C1986 1.363 1_455 S
N1984 C1986 1.356 . S
N1984 H1996 0.984 . S
N1984 H1997 0.980 1_655 S
N1985 C1987 1.356 . S
N1985 H1990 0.984 1_455 S
N1985 H1991 0.985 . S
C1986 C1980 1.379 . S
C1986 C1983 1.363 1_655 S
C1986 N1984 1.356 . S
C1987 C1981 1.363 1_455 S
C1987 C1982 1.379 . S
C1987 N1985 1.356 . S
N1988 C1980 1.356 . S
N1988 H1994 0.984 . S
N1988 H1995 0.984 . S
N1989 C1982 1.356 . S
N1989 H1992 0.984 . S
N1989 H1993 0.985 . S
H1990 N1985 0.984 1_655 S
H1991 N1985 0.985 . S
H1992 N1989 0.984 . S
H1993 N1989 0.985 . S
H1994 N1988 0.984 . S
H1995 N1988 0.984 . S
H1996 N1984 0.984 . S
H1997 N1984 0.980 1_455 S
C1998 C1999 1.363 . S
C1998 C2004 1.379 . S
C1998 N2006 1.356 . S
C1999 C1998 1.363 . S
C1999 C2005 1.363 . S
C2000 C2001 1.363 . S
C2000 C2005 1.379 . S
C2000 N2007 1.356 . S
C2001 C2000 1.363 . S
C2001 C2004 1.363 . S
N2002 C2004 1.356 . S
N2002 H2014 0.984 . S
N2002 H2015 0.985 . S
N2003 C2005 1.356 . S
N2003 H2008 0.984 . S
N2003 H2009 0.985 . S
C2004 C1998 1.379 . S
C2004 C2001 1.363 . S
C2004 N2002 1.356 . S
C2005 C1999 1.363 . S
C2005 C2000 1.379 . S
C2005 N2003 1.356 . S
N2006 C1998 1.356 . S
N2006 H2012 0.984 . S
N2006 H2013 0.984 . S
N2007 C2000 1.356 . S
N2007 H2010 0.984 . S
N2007 H2011 0.985 . S
H2008 N2003 0.984 . S
H2009 N2003 0.985 . S
H2010 N2007 0.984 . S
H2011 N2007 0.985 . S
H2012 N2006 0.984 . S
H2013 N2006 0.984 . S
H2014 N2002 0.984 . S
H2015 N2002 0.985 . S
C2016 C2017 1.363 . S
C2016 C2022 1.379 . S
C2016 N2024 1.356 . S
C2017 C2016 1.363 . S
C2017 C2023 1.363 1_545 S
C2018 C2019 1.363 . S
C2018 C2023 1.379 . S
C2018 N2025 1.356 . S
C2019 C2018 1.363 . S
C2019 C2022 1.363 1_565 S
N2020 C2022 1.356 . S
N2020 H2032 0.984 . S
N2020 H2033 0.985 . S
N2021 C2023 1.356 . S
N2021 H2026 0.984 . S
N2021 H2027 0.985 . S
C2022 C2016 1.379 . S
C2022 C2019 1.363 1_545 S
C2022 N2020 1.356 . S
C2023 C2017 1.363 1_565 S
C2023 C2018 1.379 . S
C2023 N2021 1.356 . S
N2024 C2016 1.356 . S
N2024 H2030 0.984 . S
N2024 H2031 0.984 . S
N2025 C2018 1.356 . S
N2025 H2028 0.984 . S
N2025 H2029 0.985 . S
H2026 N2021 0.984 . S
H2027 N2021 0.985 . S
H2028 N2025 0.984 . S
H2029 N2025 0.985 . S
H2030 N2024 0.984 . S
H2031 N2024 0.984 . S
H2032 N2020 0.984 . S
H2033 N2020 0.985 . S
C2034 C2035 1.363 1_655 S
C2034 C2040 1.379 . S
C2034 N2042 1.356 . S
C2035 C2034 1.363 1_455 S
C2035 C2041 1.363 . S
C2036 C2037 1.363 1_455 S
C2036 C2041 1.379 . S
C2036 N2043 1.356 . S
C2037 C2036 1.363 1_655 S
C2037 C2040 1.363 . S
N2038 C2040 1.356 . S
N2038 H2050 0.984 . S
N2038 H2051 0.985 . S
N2039 C2041 1.356 . S
N2039 H2044 0.984 . S
N2039 H2045 0.985 . S
C2040 C2034 1.379 . S
C2040 C2037 1.363 . S
C2040 N2038 1.356 . S
C2041 C2035 1.363 . S
C2041 C2036 1.379 . S
C2041 N2039 1.356 . S
N2042 C2034 1.356 . S
N2042 H2048 0.984 . S
N2042 H2049 0.984 . S
N2043 C2036 1.356 . S
N2043 H2046 0.984 . S
N2043 H2047 0.985 . S
H2044 N2039 0.984 . S
H2045 N2039 0.985 . S
H2046 N2043 0.984 . S
H2047 N2043 0.985 . S
H2048 N2042 0.984 . S
H2049 N2042 0.984 . S
H2050 N2038 0.984 . S
H2051 N2038 0.985 . S
C2052 C2053 1.363 . S
C2052 C2058 1.379 . S
C2052 N2060 1.356 . S
C2053 C2052 1.363 . S
C2053 C2059 1.363 . S
C2054 C2055 1.363 . S
C2054 C2059 1.379 . S
C2054 N2061 1.356 . S
C2055 C2054 1.363 . S
C2055 C2058 1.363 . S
N2056 C2058 1.356 . S
N2056 H2068 0.984 . S
N2056 H2069 0.985 . S
N2057 C2059 1.356 . S
N2057 H2062 0.984 . S
N2057 H2063 0.985 . S
C2058 C2052 1.379 . S
C2058 C2055 1.363 . S
C2058 N2056 1.356 . S
C2059 C2053 1.363 . S
C2059 C2054 1.379 . S
C2059 N2057 1.356 . S
N2060 C2052 1.356 . S
N2060 H2066 0.984 . S
N2060 H2067 0.984 . S
N2061 C2054 1.356 . S
N2061 H2064 0.984 . S
N2061 H2065 0.985 . S
H2062 N2057 0.984 . S
H2063 N2057 0.985 . S
H2064 N2061 0.984 . S
H2065 N2061 0.985 . S
H2066 N2060 0.984 . S
H2067 N2060 0.984 . S
H2068 N2056 0.984 . S
H2069 N2056 0.985 . S
C2070 C2071 1.363 . S
C2070 C2076 1.379 . S
C2070 N2078 1.356 . S
C2071 C2070 1.363 . S
C2071 C2077 1.363 . S
C2072 C2073 1.363 . S
C2072 C2077 1.379 . S
C2072 N2079 1.356 . S
C2073 C2072 1.363 . S
C2073 C2076 1.363 . S
N2074 C2076 1.356 . S
N2074 H2086 0.984 . S
N2074 H2087 0.985 . S
N2075 C2077 1.356 . S
N2075 H2080 0.984 . S
N2075 H2081 0.985 . S
C2076 C2070 1.379 . S
C2076 C2073 1.363 . S
C2076 N2074 1.356 . S
C2077 C2071 1.363 . S
C2077 C2072 1.379 . S
C2077 N2075 1.356 . S
N2078 C2070 1.356 . S
N2078 H2084 0.984 . S
N2078 H2085 0.984 . S
N2079 C2072 1.356 . S
N2079 H2082 0.984 . S
N2079 H2083 0.985 . S
H2080 N2075 0.984 . S
H2081 N2075 0.985 . S
H2082 N2079 0.984 . S
H2083 N2079 0.985 . S
H2084 N2078 0.984 . S
H2085 N2078 0.984 . S
H2086 N2074 0.984 . S
H2087 N2074 0.985 . S
C2088 C2089 1.363 . S
C2088 C2094 1.379 . S
C2088 N2096 1.356 . S
C2089 C2088 1.363 . S
C2089 C2095 1.363 . S
C2090 C2091 1.363 . S
C2090 C2095 1.379 . S
C2090 N2097 1.356 . S
C2091 C2090 1.363 . S
C2091 C2094 1.363 . S
N2092 C2094 1.356 . S
N2092 H2104 0.984 . S
N2092 H2105 0.985 . S
N2093 C2095 1.356 . S
N2093 H2098 0.984 . S
N2093 H2099 0.985 . S
C2094 C2088 1.379 . S
C2094 C2091 1.363 . S
C2094 N2092 1.356 . S
C2095 C2089 1.363 . S
C2095 C2090 1.379 . S
C2095 N2093 1.356 . S
N2096 C2088 1.356 . S
N2096 H2102 0.984 . S
N2096 H2103 0.984 . S
N2097 C2090 1.356 . S
N2097 H2100 0.984 . S
N2097 H2101 0.985 . S
H2098 N2093 0.984 . S
H2099 N2093 0.985 . S
H2100 N2097 0.984 . S
H2101 N2097 0.985 . S
H2102 N2096 0.984 . S
H2103 N2096 0.984 . S
H2104 N2092 0.984 . S
H2105 N2092 0.985 . S
C2106 C2107 1.363 . S
C2106 C2112 1.379 . S
C2106 N2114 1.356 . S
C2107 C2106 1.363 . S
C2107 C2113 1.363 . S
C2108 C2109 1.363 . S
C2108 C2113 1.379 . S
C2108 N2115 1.356 . S
C2109 C2108 1.363 . S
C2109 C2112 1.363 . S
N2110 C2112 1.356 . S
N2110 H2122 0.984 . S
N2110 H2123 0.985 . S
N2111 C2113 1.356 . S
N2111 H2116 0.984 . S
N2111 H2117 0.985 . S
C2112 C2106 1.379 . S
C2112 C2109 1.363 . S
C2112 N2110 1.356 . S
C2113 C2107 1.363 . S
C2113 C2108 1.379 . S
C2113 N2111 1.356 . S
N2114 C2106 1.356 . S
N2114 H2120 0.984 . S
N2114 H2121 0.984 . S
N2115 C2108 1.356 . S
N2115 H2118 0.984 . S
N2115 H2119 0.985 . S
H2116 N2111 0.984 . S
H2117 N2111 0.985 . S
H2118 N2115 0.984 . S
H2119 N2115 0.985 . S
H2120 N2114 0.984 . S
H2121 N2114 0.984 . S
H2122 N2110 0.984 . S
H2123 N2110 0.985 . S
C2124 C2125 1.363 . S
C2124 C2130 1.379 . S
C2124 N2132 1.356 . S
C2125 C2124 1.363 . S
C2125 C2131 1.363 . S
C2126 C2127 1.363 . S
C2126 C2131 1.379 . S
C2126 N2133 1.356 . S
C2127 C2126 1.363 . S
C2127 C2130 1.363 . S
N2128 C2130 1.356 . S
N2128 H2140 0.984 . S
N2128 H2141 0.985 . S
N2129 C2131 1.356 . S
N2129 H2134 0.984 . S
N2129 H2135 0.985 . S
C2130 C2124 1.379 . S
C2130 C2127 1.363 . S
C2130 N2128 1.356 . S
C2131 C2125 1.363 . S
C2131 C2126 1.379 . S
C2131 N2129 1.356 . S
N2132 C2124 1.356 . S
N2132 H2138 0.984 . S
N2132 H2139 0.984 . S
N2133 C2126 1.356 . S
N2133 H2136 0.984 . S
N2133 H2137 0.985 . S
H2134 N2129 0.984 . S
H2135 N2129 0.985 . S
H2136 N2133 0.984 . S
H2137 N2133 0.985 . S
H2138 N2132 0.984 . S
H2139 N2132 0.984 . S
H2140 N2128 0.984 . S
H2141 N2128 0.985 . S
C2142 C2143 1.363 . S
C2142 C2148 1.379 . S
C2142 N2150 1.356 . S
C2143 C2142 1.363 . S
C2143 C2149 1.363 . S
C2144 C2145 1.363 . S
C2144 C2149 1.379 . S
C2144 N2151 1.356 . S
C2145 C2144 1.363 . S
C2145 C2148 1.363 . S
N2146 C2148 1.356 . S
N2146 H2158 0.984 . S
N2146 H2159 0.985 . S
N2147 C2149 1.356 . S
N2147 H2152 0.984 . S
N2147 H2153 0.985 . S
C2148 C2142 1.379 . S
C2148 C2145 1.363 . S
C2148 N2146 1.356 . S
C2149 C2143 1.363 . S
C2149 C2144 1.379 . S
C2149 N2147 1.356 . S
N2150 C2142 1.356 . S
N2150 H2156 0.984 . S
N2150 H2157 0.984 . S
N2151 C2144 1.356 . S
N2151 H2154 0.984 . S
N2151 H2155 0.985 . S
H2152 N2147 0.984 . S
H2153 N2147 0.985 . S
H2154 N2151 0.984 . S
H2155 N2151 0.985 . S
H2156 N2150 0.984 . S
H2157 N2150 0.984 . S
H2158 N2146 0.984 . S
H2159 N2146 0.985 . S
C2160 C2161 1.363 . S
C2160 C2166 1.379 . S
C2160 N2168 1.356 . S
C2161 C2160 1.363 . S
C2161 C2167 1.363 . S
C2162 C2163 1.363 . S
C2162 C2167 1.379 . S
C2162 N2169 1.356 . S
C2163 C2162 1.363 . S
C2163 C2166 1.363 . S
N2164 C2166 1.356 . S
N2164 H2176 0.984 . S
N2164 H2177 0.985 . S
N2165 C2167 1.356 . S
N2165 H2170 0.984 . S
N2165 H2171 0.985 . S
C2166 C2160 1.379 . S
C2166 C2163 1.363 . S
C2166 N2164 1.356 . S
C2167 C2161 1.363 . S
C2167 C2162 1.379 . S
C2167 N2165 1.356 . S
N2168 C2160 1.356 . S
N2168 H2174 0.984 . S
N2168 H2175 0.984 . S
N2169 C2162 1.356 . S
N2169 H2172 0.984 . S
N2169 H2173 0.985 . S
H2170 N2165 0.984 . S
H2171 N2165 0.985 . S
H2172 N2169 0.984 . S
H2173 N2169 0.985 . S
H2174 N2168 0.984 . S
H2175 N2168 0.984 . S
H2176 N2164 0.984 . S
H2177 N2164 0.985 . S
C2178 C2179 1.363 . S
C2178 C2184 1.379 . S
C2178 N2186 1.356 . S
C2179 C2178 1.363 . S
C2179 C2185 1.363 . S
C2180 C2181 1.363 . S
C2180 C2185 1.379 . S
C2180 N2187 1.356 . S
C2181 C2180 1.363 . S
C2181 C2184 1.363 . S
N2182 C2184 1.356 . S
N2182 H2194 0.984 . S
N2182 H2195 0.985 . S
N2183 C2185 1.356 . S
N2183 H2188 0.984 . S
N2183 H2189 0.985 . S
C2184 C2178 1.379 . S
C2184 C2181 1.363 . S
C2184 N2182 1.356 . S
C2185 C2179 1.363 . S
C2185 C2180 1.379 . S
C2185 N2183 1.356 . S
N2186 C2178 1.356 . S
N2186 H2192 0.984 . S
N2186 H2193 0.984 . S
N2187 C2180 1.356 . S
N2187 H2190 0.984 . S
N2187 H2191 0.985 . S
H2188 N2183 0.984 . S
H2189 N2183 0.985 . S
H2190 N2187 0.984 . S
H2191 N2187 0.985 . S
H2192 N2186 0.984 . S
H2193 N2186 0.984 . S
H2194 N2182 0.984 . S
H2195 N2182 0.985 . S
C2196 C2197 1.363 . S
C2196 C2202 1.379 . S
C2196 N2204 1.356 . S
C2197 C2196 1.363 . S
C2197 C2203 1.363 . S
C2198 C2199 1.363 . S
C2198 C2203 1.379 . S
C2198 N2205 1.356 . S
C2199 C2198 1.363 . S
C2199 C2202 1.363 . S
N2200 C2202 1.356 . S
N2200 H2212 0.984 . S
N2200 H2213 0.985 . S
N2201 C2203 1.356 . S
N2201 H2206 0.984 . S
N2201 H2207 0.985 . S
C2202 C2196 1.379 . S
C2202 C2199 1.363 . S
C2202 N2200 1.356 . S
C2203 C2197 1.363 . S
C2203 C2198 1.379 . S
C2203 N2201 1.356 . S
N2204 C2196 1.356 . S
N2204 H2210 0.984 . S
N2204 H2211 0.984 . S
N2205 C2198 1.356 . S
N2205 H2208 0.984 . S
N2205 H2209 0.985 . S
H2206 N2201 0.984 . S
H2207 N2201 0.985 . S
H2208 N2205 0.984 . S
H2209 N2205 0.985 . S
H2210 N2204 0.984 . S
H2211 N2204 0.984 . S
H2212 N2200 0.984 . S
H2213 N2200 0.985 . S
C2214 C2215 1.363 . S
C2214 C2220 1.379 . S
C2214 N2222 1.356 . S
C2215 C2214 1.363 . S
C2215 C2221 1.363 . S
C2216 C2217 1.363 . S
C2216 C2221 1.379 . S
C2216 N2223 1.356 . S
C2217 C2216 1.363 . S
C2217 C2220 1.363 . S
N2218 C2220 1.356 . S
N2218 H2230 0.984 . S
N2218 H2231 0.985 . S
N2219 C2221 1.356 . S
N2219 H2224 0.984 . S
N2219 H2225 0.985 . S
C2220 C2214 1.379 . S
C2220 C2217 1.363 . S
C2220 N2218 1.356 . S
C2221 C2215 1.363 . S
C2221 C2216 1.379 . S
C2221 N2219 1.356 . S
N2222 C2214 1.356 . S
N2222 H2228 0.984 . S
N2222 H2229 0.984 . S
N2223 C2216 1.356 . S
N2223 H2226 0.984 . S
N2223 H2227 0.985 . S
H2224 N2219 0.984 . S
H2225 N2219 0.985 . S
H2226 N2223 0.984 . S
H2227 N2223 0.985 . S
H2228 N2222 0.984 . S
H2229 N2222 0.984 . S
H2230 N2218 0.984 . S
H2231 N2218 0.985 . S
C2232 C2233 1.363 . S
C2232 C2238 1.379 . S
C2232 N2240 1.356 . S
C2233 C2232 1.363 . S
C2233 C2239 1.363 . S
C2234 C2235 1.363 . S
C2234 C2239 1.379 . S
C2234 N2241 1.356 . S
C2235 C2234 1.363 . S
C2235 C2238 1.363 . S
N2236 C2238 1.356 . S
N2236 H2248 0.984 . S
N2236 H2249 0.985 . S
N2237 C2239 1.356 . S
N2237 H2242 0.984 . S
N2237 H2243 0.985 . S
C2238 C2232 1.379 . S
C2238 C2235 1.363 . S
C2238 N2236 1.356 . S
C2239 C2233 1.363 . S
C2239 C2234 1.379 . S
C2239 N2237 1.356 . S
N2240 C2232 1.356 . S
N2240 H2246 0.984 . S
N2240 H2247 0.984 . S
N2241 C2234 1.356 . S
N2241 H2244 0.984 . S
N2241 H2245 0.985 . S
H2242 N2237 0.984 . S
H2243 N2237 0.985 . S
H2244 N2241 0.984 . S
H2245 N2241 0.985 . S
H2246 N2240 0.984 . S
H2247 N2240 0.984 . S
H2248 N2236 0.984 . S
H2249 N2236 0.985 . S
C2250 C2251 1.363 . S
C2250 C2256 1.379 . S
C2250 N2258 1.356 . S
C2251 C2250 1.363 . S
C2251 C2257 1.363 . S
C2252 C2253 1.363 . S
C2252 C2257 1.379 . S
C2252 N2259 1.356 . S
C2253 C2252 1.363 . S
C2253 C2256 1.363 . S
N2254 C2256 1.356 . S
N2254 H2266 0.984 . S
N2254 H2267 0.985 . S
N2255 C2257 1.356 . S
N2255 H2260 0.984 . S
N2255 H2261 0.985 . S
C2256 C2250 1.379 . S
C2256 C2253 1.363 . S
C2256 N2254 1.356 . S
C2257 C2251 1.363 . S
C2257 C2252 1.379 . S
C2257 N2255 1.356 . S
N2258 C2250 1.356 . S
N2258 H2264 0.984 . S
N2258 H2265 0.984 . S
N2259 C2252 1.356 . S
N2259 H2262 0.984 . S
N2259 H2263 0.985 . S
H2260 N2255 0.984 . S
H2261 N2255 0.985 . S
H2262 N2259 0.984 . S
H2263 N2259 0.985 . S
H2264 N2258 0.984 . S
H2265 N2258 0.984 . S
H2266 N2254 0.984 . S
H2267 N2254 0.985 . S
C2268 C2269 1.363 . S
C2268 C2274 1.379 . S
C2268 N2276 1.356 . S
C2269 C2268 1.363 . S
C2269 C2275 1.363 . S
C2270 C2271 1.363 . S
C2270 C2275 1.379 . S
C2270 N2277 1.356 . S
C2271 C2270 1.363 . S
C2271 C2274 1.363 . S
N2272 C2274 1.356 . S
N2272 H2284 0.984 . S
N2272 H2285 0.985 . S
N2273 C2275 1.356 . S
N2273 H2278 0.984 . S
N2273 H2279 0.985 . S
C2274 C2268 1.379 . S
C2274 C2271 1.363 . S
C2274 N2272 1.356 . S
C2275 C2269 1.363 . S
C2275 C2270 1.379 . S
C2275 N2273 1.356 . S
N2276 C2268 1.356 . S
N2276 H2282 0.984 . S
N2276 H2283 0.984 . S
N2277 C2270 1.356 . S
N2277 H2280 0.984 . S
N2277 H2281 0.985 . S
H2278 N2273 0.984 . S
H2279 N2273 0.985 . S
H2280 N2277 0.984 . S
H2281 N2277 0.985 . S
H2282 N2276 0.984 . S
H2283 N2276 0.984 . S
H2284 N2272 0.984 . S
H2285 N2272 0.985 . S
C2286 C2287 1.363 . S
C2286 C2292 1.379 . S
C2286 N2294 1.356 . S
C2287 C2286 1.363 . S
C2287 C2293 1.363 . S
C2288 C2289 1.363 . S
C2288 C2293 1.379 . S
C2288 N2295 1.356 . S
C2289 C2288 1.363 . S
C2289 C2292 1.363 . S
N2290 C2292 1.356 . S
N2290 H2302 0.984 . S
N2290 H2303 0.985 . S
N2291 C2293 1.356 . S
N2291 H2296 0.984 . S
N2291 H2297 0.985 . S
C2292 C2286 1.379 . S
C2292 C2289 1.363 . S
C2292 N2290 1.356 . S
C2293 C2287 1.363 . S
C2293 C2288 1.379 . S
C2293 N2291 1.356 . S
N2294 C2286 1.356 . S
N2294 H2300 0.984 . S
N2294 H2301 0.984 . S
N2295 C2288 1.356 . S
N2295 H2298 0.984 . S
N2295 H2299 0.985 . S
H2296 N2291 0.984 . S
H2297 N2291 0.985 . S
H2298 N2295 0.984 . S
H2299 N2295 0.985 . S
H2300 N2294 0.984 . S
H2301 N2294 0.984 . S
H2302 N2290 0.984 . S
H2303 N2290 0.985 . S
C2304 C2305 1.363 . S
C2304 C2310 1.379 . S
C2304 N2312 1.356 . S
C2305 C2304 1.363 . S
C2305 C2311 1.363 . S
C2306 C2307 1.363 . S
C2306 C2311 1.379 . S
C2306 N2313 1.356 . S
C2307 C2306 1.363 . S
C2307 C2310 1.363 . S
N2308 C2310 1.356 . S
N2308 H2320 0.984 . S
N2308 H2321 0.985 . S
N2309 C2311 1.356 . S
N2309 H2314 0.984 . S
N2309 H2315 0.985 . S
C2310 C2304 1.379 . S
C2310 C2307 1.363 . S
C2310 N2308 1.356 . S
C2311 C2305 1.363 . S
C2311 C2306 1.379 . S
C2311 N2309 1.356 . S
N2312 C2304 1.356 . S
N2312 H2318 0.984 . S
N2312 H2319 0.984 . S
N2313 C2306 1.356 . S
N2313 H2316 0.984 . S
N2313 H2317 0.985 . S
H2314 N2309 0.984 . S
H2315 N2309 0.985 . S
H2316 N2313 0.984 . S
H2317 N2313 0.985 . S
H2318 N2312 0.984 . S
H2319 N2312 0.984 . S
H2320 N2308 0.984 . S
H2321 N2308 0.985 . S
C2322 C2323 1.363 . S
C2322 C2328 1.379 . S
C2322 N2330 1.356 . S
C2323 C2322 1.363 . S
C2323 C2329 1.363 . S
C2324 C2325 1.363 . S
C2324 C2329 1.379 . S
C2324 N2331 1.356 . S
C2325 C2324 1.363 . S
C2325 C2328 1.363 . S
N2326 C2328 1.356 . S
N2326 H2338 0.984 . S
N2326 H2339 0.985 . S
N2327 C2329 1.356 . S
N2327 H2332 0.984 . S
N2327 H2333 0.985 . S
C2328 C2322 1.379 . S
C2328 C2325 1.363 . S
C2328 N2326 1.356 . S
C2329 C2323 1.363 . S
C2329 C2324 1.379 . S
C2329 N2327 1.356 . S
N2330 C2322 1.356 . S
N2330 H2336 0.984 . S
N2330 H2337 0.984 . S
N2331 C2324 1.356 . S
N2331 H2334 0.984 . S
N2331 H2335 0.985 . S
H2332 N2327 0.984 . S
H2333 N2327 0.985 . S
H2334 N2331 0.984 . S
H2335 N2331 0.985 . S
H2336 N2330 0.984 . S
H2337 N2330 0.984 . S
H2338 N2326 0.984 . S
H2339 N2326 0.985 . S
C2340 C2341 1.363 . S
C2340 C2346 1.379 . S
C2340 N2348 1.356 . S
C2341 C2340 1.363 . S
C2341 C2347 1.363 . S
C2342 C2343 1.363 . S
C2342 C2347 1.379 . S
C2342 N2349 1.356 . S
C2343 C2342 1.363 . S
C2343 C2346 1.363 . S
N2344 C2346 1.356 . S
N2344 H2356 0.984 . S
N2344 H2357 0.985 . S
N2345 C2347 1.356 . S
N2345 H2350 0.984 . S
N2345 H2351 0.985 . S
C2346 C2340 1.379 . S
C2346 C2343 1.363 . S
C2346 N2344 1.356 . S
C2347 C2341 1.363 . S
C2347 C2342 1.379 . S
C2347 N2345 1.356 . S
N2348 C2340 1.356 . S
N2348 H2354 0.984 . S
N2348 H2355 0.984 . S
N2349 C2342 1.356 . S
N2349 H2352 0.984 . S
N2349 H2353 0.985 . S
H2350 N2345 0.984 . S
H2351 N2345 0.985 . S
H2352 N2349 0.984 . S
H2353 N2349 0.985 . S
H2354 N2348 0.984 . S
H2355 N2348 0.984 . S
H2356 N2344 0.984 . S
H2357 N2344 0.985 . S
C2358 C2359 1.363 . S
C2358 C2364 1.379 . S
C2358 N2366 1.356 . S
C2359 C2358 1.363 . S
C2359 C2365 1.363 . S
C2360 C2361 1.363 . S
C2360 C2365 1.379 . S
C2360 N2367 1.356 . S
C2361 C2360 1.363 . S
C2361 C2364 1.363 . S
N2362 C2364 1.356 . S
N2362 H2374 0.984 . S
N2362 H2375 0.985 . S
N2363 C2365 1.356 . S
N2363 H2368 0.984 . S
N2363 H2369 0.985 . S
C2364 C2358 1.379 . S
C2364 C2361 1.363 . S
C2364 N2362 1.356 . S
C2365 C2359 1.363 . S
C2365 C2360 1.379 . S
C2365 N2363 1.356 . S
N2366 C2358 1.356 . S
N2366 H2372 0.984 . S
N2366 H2373 0.984 . S
N2367 C2360 1.356 . S
N2367 H2370 0.984 . S
N2367 H2371 0.985 . S
H2368 N2363 0.984 . S
H2369 N2363 0.985 . S
H2370 N2367 0.984 . S
H2371 N2367 0.985 . S
H2372 N2366 0.984 . S
H2373 N2366 0.984 . S
H2374 N2362 0.984 . S
H2375 N2362 0.985 . S
C2376 C2377 1.363 . S
C2376 C2382 1.379 . S
C2376 N2384 1.356 . S
C2377 C2376 1.363 . S
C2377 C2383 1.363 . S
C2378 C2379 1.363 . S
C2378 C2383 1.379 . S
C2378 N2385 1.356 . S
C2379 C2378 1.363 . S
C2379 C2382 1.363 . S
N2380 C2382 1.356 . S
N2380 H2392 0.984 . S
N2380 H2393 0.985 . S
N2381 C2383 1.356 . S
N2381 H2386 0.984 . S
N2381 H2387 0.985 . S
C2382 C2376 1.379 . S
C2382 C2379 1.363 . S
C2382 N2380 1.356 . S
C2383 C2377 1.363 . S
C2383 C2378 1.379 . S
C2383 N2381 1.356 . S
N2384 C2376 1.356 . S
N2384 H2390 0.984 . S
N2384 H2391 0.984 . S
N2385 C2378 1.356 . S
N2385 H2388 0.984 . S
N2385 H2389 0.985 . S
H2386 N2381 0.984 . S
H2387 N2381 0.985 . S
H2388 N2385 0.984 . S
H2389 N2385 0.985 . S
H2390 N2384 0.984 . S
H2391 N2384 0.984 . S
H2392 N2380 0.984 . S
H2393 N2380 0.985 . S
C2394 C2395 1.363 . S
C2394 C2400 1.379 . S
C2394 N2402 1.356 . S
C2395 C2394 1.363 . S
C2395 C2401 1.363 . S
C2396 C2397 1.363 . S
C2396 C2401 1.379 . S
C2396 N2403 1.356 . S
C2397 C2396 1.363 . S
C2397 C2400 1.363 . S
N2398 C2400 1.356 . S
N2398 H2410 0.984 . S
N2398 H2411 0.985 . S
N2399 C2401 1.356 . S
N2399 H2404 0.984 . S
N2399 H2405 0.985 . S
C2400 C2394 1.379 . S
C2400 C2397 1.363 . S
C2400 N2398 1.356 . S
C2401 C2395 1.363 . S
C2401 C2396 1.379 . S
C2401 N2399 1.356 . S
N2402 C2394 1.356 . S
N2402 H2408 0.984 . S
N2402 H2409 0.984 . S
N2403 C2396 1.356 . S
N2403 H2406 0.984 . S
N2403 H2407 0.985 . S
H2404 N2399 0.984 . S
H2405 N2399 0.985 . S
H2406 N2403 0.984 . S
H2407 N2403 0.985 . S
H2408 N2402 0.984 . S
H2409 N2402 0.984 . S
H2410 N2398 0.984 . S
H2411 N2398 0.985 . S
C2412 C2413 1.363 . S
C2412 C2418 1.379 . S
C2412 N2420 1.356 . S
C2413 C2412 1.363 . S
C2413 C2419 1.363 . S
C2414 C2415 1.363 . S
C2414 C2419 1.379 . S
C2414 N2421 1.356 . S
C2415 C2414 1.363 . S
C2415 C2418 1.363 . S
N2416 C2418 1.356 . S
N2416 H2428 0.984 . S
N2416 H2429 0.985 . S
N2417 C2419 1.356 . S
N2417 H2422 0.984 . S
N2417 H2423 0.985 . S
C2418 C2412 1.379 . S
C2418 C2415 1.363 . S
C2418 N2416 1.356 . S
C2419 C2413 1.363 . S
C2419 C2414 1.379 . S
C2419 N2417 1.356 . S
N2420 C2412 1.356 . S
N2420 H2426 0.984 . S
N2420 H2427 0.984 . S
N2421 C2414 1.356 . S
N2421 H2424 0.984 . S
N2421 H2425 0.985 . S
H2422 N2417 0.984 . S
H2423 N2417 0.985 . S
H2424 N2421 0.984 . S
H2425 N2421 0.985 . S
H2426 N2420 0.984 . S
H2427 N2420 0.984 . S
H2428 N2416 0.984 . S
H2429 N2416 0.985 . S
C2430 C2431 1.363 . S
C2430 C2436 1.379 . S
C2430 N2438 1.356 . S
C2431 C2430 1.363 . S
C2431 C2437 1.363 . S
C2432 C2433 1.363 . S
C2432 C2437 1.379 . S
C2432 N2439 1.356 . S
C2433 C2432 1.363 . S
C2433 C2436 1.363 . S
N2434 C2436 1.356 . S
N2434 H2446 0.984 . S
N2434 H2447 0.985 . S
N2435 C2437 1.356 . S
N2435 H2440 0.984 . S
N2435 H2441 0.985 . S
C2436 C2430 1.379 . S
C2436 C2433 1.363 . S
C2436 N2434 1.356 . S
C2437 C2431 1.363 . S
C2437 C2432 1.379 . S
C2437 N2435 1.356 . S
N2438 C2430 1.356 . S
N2438 H2444 0.984 . S
N2438 H2445 0.984 . S
N2439 C2432 1.356 . S
N2439 H2442 0.984 . S
N2439 H2443 0.985 . S
H2440 N2435 0.984 . S
H2441 N2435 0.985 . S
H2442 N2439 0.984 . S
H2443 N2439 0.985 . S
H2444 N2438 0.984 . S
H2445 N2438 0.984 . S
H2446 N2434 0.984 . S
H2447 N2434 0.985 . S
C2448 C2449 1.363 . S
C2448 C2454 1.379 . S
C2448 N2456 1.356 . S
C2449 C2448 1.363 . S
C2449 C2455 1.363 . S
C2450 C2451 1.363 . S
C2450 C2455 1.379 . S
C2450 N2457 1.356 . S
C2451 C2450 1.363 . S
C2451 C2454 1.363 . S
N2452 C2454 1.356 . S
N2452 H2464 0.984 . S
N2452 H2465 0.985 . S
N2453 C2455 1.356 . S
N2453 H2458 0.984 . S
N2453 H2459 0.985 . S
C2454 C2448 1.379 . S
C2454 C2451 1.363 . S
C2454 N2452 1.356 . S
C2455 C2449 1.363 . S
C2455 C2450 1.379 . S
C2455 N2453 1.356 . S
N2456 C2448 1.356 . S
N2456 H2462 0.984 . S
N2456 H2463 0.984 . S
N2457 C2450 1.356 . S
N2457 H2460 0.984 . S
N2457 H2461 0.985 . S
H2458 N2453 0.984 . S
H2459 N2453 0.985 . S
H2460 N2457 0.984 . S
H2461 N2457 0.985 . S
H2462 N2456 0.984 . S
H2463 N2456 0.984 . S
H2464 N2452 0.984 . S
H2465 N2452 0.985 . S
C2466 C2467 1.363 . S
C2466 C2472 1.379 . S
C2466 N2474 1.356 . S
C2467 C2466 1.363 . S
C2467 C2473 1.363 . S
C2468 C2469 1.363 . S
C2468 C2473 1.379 . S
C2468 N2475 1.356 . S
C2469 C2468 1.363 . S
C2469 C2472 1.363 . S
N2470 C2472 1.356 . S
N2470 H2482 0.984 . S
N2470 H2483 0.985 . S
N2471 C2473 1.356 . S
N2471 H2476 0.984 . S
N2471 H2477 0.985 . S
C2472 C2466 1.379 . S
C2472 C2469 1.363 . S
C2472 N2470 1.356 . S
C2473 C2467 1.363 . S
C2473 C2468 1.379 . S
C2473 N2471 1.356 . S
N2474 C2466 1.356 . S
N2474 H2480 0.984 . S
N2474 H2481 0.984 . S
N2475 C2468 1.356 . S
N2475 H2478 0.984 . S
N2475 H2479 0.985 . S
H2476 N2471 0.984 . S
H2477 N2471 0.985 . S
H2478 N2475 0.984 . S
H2479 N2475 0.985 . S
H2480 N2474 0.984 . S
H2481 N2474 0.984 . S
H2482 N2470 0.984 . S
H2483 N2470 0.985 . S
C2484 C2485 1.363 . S
C2484 C2490 1.379 1_455 S
C2484 N2492 1.356 . S
C2485 C2484 1.363 . S
C2485 C2491 1.363 . S
C2486 C2487 1.363 . S
C2486 C2491 1.379 1_655 S
C2486 N2493 1.356 . S
C2487 C2486 1.363 . S
C2487 C2490 1.363 . S
N2488 C2490 1.356 . S
N2488 H2500 0.984 . S
N2488 H2501 0.985 . S
N2489 C2491 1.356 . S
N2489 H2494 0.984 . S
N2489 H2495 0.985 . S
C2490 C2484 1.379 1_655 S
C2490 C2487 1.363 . S
C2490 N2488 1.356 . S
C2491 C2485 1.363 . S
C2491 C2486 1.379 1_455 S
C2491 N2489 1.356 . S
N2492 C2484 1.356 . S
N2492 H2498 0.984 . S
N2492 H2499 0.984 . S
N2493 C2486 1.356 . S
N2493 H2496 0.984 . S
N2493 H2497 0.985 . S
H2494 N2489 0.984 . S
H2495 N2489 0.985 . S
H2496 N2493 0.984 . S
H2497 N2493 0.985 . S
H2498 N2492 0.984 . S
H2499 N2492 0.984 . S
H2500 N2488 0.984 . S
H2501 N2488 0.985 . S
C2502 C2503 1.363 . S
C2502 C2508 1.379 . S
C2502 N2510 1.356 . S
C2503 C2502 1.363 . S
C2503 C2509 1.363 . S
C2504 C2505 1.363 . S
C2504 C2509 1.379 . S
C2504 N2511 1.356 . S
C2505 C2504 1.363 . S
C2505 C2508 1.363 . S
N2506 C2508 1.356 . S
N2506 H2518 0.984 . S
N2506 H2519 0.985 . S
N2507 C2509 1.356 . S
N2507 H2512 0.984 . S
N2507 H2513 0.985 . S
C2508 C2502 1.379 . S
C2508 C2505 1.363 . S
C2508 N2506 1.356 . S
C2509 C2503 1.363 . S
C2509 C2504 1.379 . S
C2509 N2507 1.356 . S
N2510 C2502 1.356 . S
N2510 H2516 0.984 . S
N2510 H2517 0.984 . S
N2511 C2504 1.356 . S
N2511 H2514 0.984 . S
N2511 H2515 0.985 . S
H2512 N2507 0.984 . S
H2513 N2507 0.985 . S
H2514 N2511 0.984 . S
H2515 N2511 0.985 . S
H2516 N2510 0.984 . S
H2517 N2510 0.984 . S
H2518 N2506 0.984 . S
H2519 N2506 0.985 . S
C2520 C2521 1.363 . S
C2520 C2526 1.379 1_545 S
C2520 N2528 1.356 . S
C2521 C2520 1.363 . S
C2521 C2527 1.376 . S
C2522 C2523 1.363 . S
C2522 C2527 1.375 1_565 S
C2522 N2529 1.356 . S
C2523 C2522 1.363 . S
C2523 C2526 1.363 . S
N2524 C2526 1.356 . S
N2524 H2536 0.974 1_565 S
N2524 H2537 0.985 . S
N2525 C2527 1.350 . S
N2525 H2530 0.984 . S
N2525 H2531 0.985 1_545 S
C2526 C2520 1.379 1_565 S
C2526 C2523 1.363 . S
C2526 N2524 1.356 . S
C2527 C2521 1.376 . S
C2527 C2522 1.375 1_545 S
C2527 N2525 1.350 . S
N2528 C2520 1.356 . S
N2528 H2534 0.984 . S
N2528 H2535 0.984 . S
N2529 C2522 1.356 . S
N2529 H2532 0.984 . S
N2529 H2533 0.985 . S
H2530 N2525 0.984 . S
H2531 N2525 0.985 1_565 S
H2532 N2529 0.984 . S
H2533 N2529 0.985 . S
H2534 N2528 0.984 . S
H2535 N2528 0.984 . S
H2536 N2524 0.974 1_545 S
H2537 N2524 0.985 . S
C2538 C2539 1.363 1_565 S
C2538 C2544 1.379 . S
C2538 N2546 1.356 . S
C2539 C2538 1.363 1_545 S
C2539 C2545 1.363 1_556 S
C2540 C2541 1.363 1_545 S
C2540 C2545 1.379 . S
C2540 N2547 1.356 . S
C2541 C2540 1.363 1_565 S
C2541 C2544 1.363 1_554 S
N2542 C2544 1.356 . S
N2542 H2554 0.984 . S
N2542 H2555 0.985 . S
N2543 C2545 1.356 . S
N2543 H2548 0.984 . S
N2543 H2549 0.985 . S
C2544 C2538 1.379 . S
C2544 C2541 1.363 1_556 S
C2544 N2542 1.356 . S
C2545 C2539 1.363 1_554 S
C2545 C2540 1.379 . S
C2545 N2543 1.356 . S
N2546 C2538 1.356 . S
N2546 H2552 0.984 . S
N2546 H2553 0.984 1_565 S
N2547 C2540 1.356 . S
N2547 H2550 0.984 1_545 S
N2547 H2551 0.985 . S
H2548 N2543 0.984 . S
H2549 N2543 0.985 . S
H2550 N2547 0.984 1_565 S
H2551 N2547 0.985 . S
H2552 N2546 0.984 . S
H2553 N2546 0.984 1_545 S
H2554 N2542 0.984 . S
H2555 N2542 0.985 . S
C2556 C2557 1.363 1_455 S
C2556 C2562 1.379 . S
C2556 N2564 1.356 1_455 S
C2557 C2556 1.363 1_655 S
C2557 C2563 1.363 1_556 S
C2558 C2559 1.363 1_655 S
C2558 C2563 1.379 . S
C2558 N2565 1.356 1_655 S
C2559 C2558 1.363 1_455 S
C2559 C2562 1.363 1_554 S
N2560 C2562 1.356 . S
N2560 H2572 0.984 . S
N2560 H2573 0.985 . S
N2561 C2563 1.356 . S
N2561 H2566 0.984 . S
N2561 H2567 0.985 . S
C2562 C2556 1.379 . S
C2562 C2559 1.363 1_556 S
C2562 N2560 1.356 . S
C2563 C2557 1.363 1_554 S
C2563 C2558 1.379 . S
C2563 N2561 1.356 . S
N2564 C2556 1.356 1_655 S
N2564 H2570 0.984 1_655 S
N2564 H2571 0.984 . S
N2565 C2558 1.356 1_455 S
N2565 H2568 0.984 . S
N2565 H2569 0.985 1_455 S
H2566 N2561 0.984 . S
H2567 N2561 0.985 . S
H2568 N2565 0.984 . S
H2569 N2565 0.985 1_655 S
H2570 N2564 0.984 1_455 S
H2571 N2564 0.984 . S
H2572 N2560 0.984 . S
H2573 N2560 0.985 . S
C2574 C2575 1.363 1_556 S
C2574 C2580 1.379 . S
C2574 N2582 1.356 . S
C2575 C2574 1.363 1_554 S
C2575 C2581 1.363 . S
C2576 C2577 1.363 1_554 S
C2576 C2581 1.379 . S
C2576 N2583 1.356 . S
C2577 C2576 1.363 1_556 S
C2577 C2580 1.363 . S
N2578 C2580 1.356 . S
N2578 H2590 0.984 . S
N2578 H2591 0.985 . S
N2579 C2581 1.356 . S
N2579 H2584 0.984 . S
N2579 H2585 0.985 . S
C2580 C2574 1.379 . S
C2580 C2577 1.363 . S
C2580 N2578 1.356 . S
C2581 C2575 1.363 . S
C2581 C2576 1.379 . S
C2581 N2579 1.356 . S
N2582 C2574 1.356 . S
N2582 H2588 0.984 . S
N2582 H2589 0.984 . S
N2583 C2576 1.356 . S
N2583 H2586 0.984 . S
N2583 H2587 0.985 . S
H2584 N2579 0.984 . S
H2585 N2579 0.985 . S
H2586 N2583 0.984 . S
H2587 N2583 0.985 . S
H2588 N2582 0.984 . S
H2589 N2582 0.984 . S
H2590 N2578 0.984 . S
H2591 N2578 0.985 . S
C1297 C3 1.371 . S
C1299 C38 1.525 . S
C1315 C39 1.371 . S
C1317 C74 1.526 . S
C1333 C2 1.526 . S
C1335 C75 1.371 . S
C1351 C111 1.371 . S
C1353 C182 1.525 . S
C1369 C147 1.371 . S
C1371 C110 1.526 . S
C1387 C146 1.525 . S
C1389 C183 1.371 . S
C1405 C220 1.256 . S
C1407 C254 1.509 . S
C1423 C290 1.510 . S
C1425 C256 1.257 . S
C1441 C218 1.510 . S
C1443 C292 1.257 . S
C1459 C398 1.510 . S
C1461 C328 1.256 . S
C1477 C364 1.257 . S
C1479 C326 1.510 . S
C1495 C400 1.257 . S
C1497 C362 1.510 . S
C1513 C470 1.525 . S
C1515 C435 1.371 . S
C1531 C471 1.371 . S
C1533 C506 1.526 . S
C1549 C507 1.371 . S
C1551 C434 1.526 . S
C1567 C543 1.371 . S
C1569 C614 1.525 . S
C1585 C579 1.372 . S
C1587 C542 1.526 . S
C1603 C615 1.371 . S
C1605 C578 1.525 . S
C1621 C686 1.509 . S
C1623 C652 1.256 . S
C1639 C688 1.257 . S
C1641 C722 1.510 . S
C1657 C650 1.510 . S
C1659 C724 1.257 . S
C1675 C830 1.510 . S
C1677 C760 1.257 1_556 S
C1693 C796 1.258 1_556 S
C1695 C758 1.510 . S
C1711 C794 1.510 . S
C1713 C832 1.257 1_556 S
C1729 C902 1.525 . S
C1731 C867 1.371 . S
C1747 C903 1.371 . S
C1749 C938 1.526 . S
C1765 C939 1.371 . S
C1767 C866 1.526 . S
C1783 C1046 1.525 . S
C1785 C975 1.371 1_554 S
C1801 C1011 1.371 1_554 S
C1803 C974 1.526 . S
C1819 C1010 1.525 . S
C1821 C1047 1.371 1_554 S
C1837 C1084 1.256 . S
C1839 C1118 1.509 . S
C1855 C1120 1.257 . S
C1857 C1154 1.510 . S
C1873 C1156 1.257 . S
C1875 C1082 1.510 . S
C1891 C1262 1.510 . S
C1893 C1192 1.256 . S
C1909 C1190 1.510 . S
C1911 C1228 1.257 . S
C1927 C1264 1.256 . S
C1929 C1226 1.510 . S
C1945 C122 1.584 . S
C1947 C14 1.584 . S
C1963 C50 1.584 1_565 S
C1965 C158 1.584 1_545 S
C1981 C194 1.584 1_655 S
C1983 C86 1.584 1_455 S
C1999 C338 1.586 . S
C2001 C230 1.586 . S
C2017 C266 1.587 . S
C2019 C374 1.587 . S
C2035 C410 1.586 . S
C2037 C302 1.586 . S
C2053 C446 1.584 . S
C2055 C554 1.584 . S
C2071 C482 1.584 . S
C2073 C590 1.584 . S
C2089 C518 1.584 . S
C2091 C626 1.584 . S
C2107 C770 1.586 . S
C2109 C662 1.586 . S
C2125 C806 1.586 . S
C2127 C698 1.586 . S
C2143 C734 1.586 . S
C2145 C842 1.586 . S
C2161 C986 1.584 . S
C2163 C878 1.584 . S
C2179 C1022 1.584 . S
C2181 C914 1.584 . S
C2197 C950 1.584 . S
C2199 C1058 1.584 . S
C2215 C1094 1.586 . S
C2217 C1202 1.586 . S
C2233 C1238 1.587 . S
C2235 C1130 1.587 . S
C2251 C1166 1.587 . S
C2253 C1274 1.586 . S
C2269 C4 1.688 . S
C2271 C651 1.806 . S
C2287 C40 1.688 . S
C2289 C687 1.807 . S
C2305 C76 1.689 . S
C2307 C723 1.808 . S
C2323 C1191 1.807 . S
C2325 C112 1.688 . S
C2341 C1227 1.808 . S
C2343 C148 1.689 . S
C2359 C184 1.688 . S
C2361 C1263 1.807 . S
C2377 C219 1.806 . S
C2379 C868 1.688 . S
C2395 C904 1.689 . S
C2397 C255 1.808 . S
C2413 C940 1.689 . S
C2415 C291 1.808 . S
C2431 C544 1.688 . S
C2433 C327 1.807 . S
C2449 C580 1.689 . S
C2451 C363 1.808 . S
C2467 C616 1.688 . S
C2469 C399 1.807 . S
C2485 C1083 1.807 . S
C2487 C436 1.688 . S
C2503 C472 1.689 . S
C2505 C1119 1.808 . S
C2521 C508 1.689 . S
C2523 C1155 1.808 . S
C2539 C759 1.807 . S
C2541 C976 1.687 1_554 S
C2557 C795 1.808 . S
C2559 C1012 1.688 1_554 S
C2575 C1048 1.688 1_554 S
C2577 C831 1.807 . S
