# Generated by pormake.
# Topology sqp, (5)-cn, num edge types: 1
# Building blocks:
#     Node 0, Type 0, BuildingBlock: XOMCOT_clean_sbu_1, # of connection points: 5
#     Node 1, Type 0, BuildingBlock: XOMCOT_clean_sbu_1, # of connection points: 5
#     Node 2, Type 0, BuildingBlock: XOMCOT_clean_sbu_1, # of connection points: 5
#     Node 3, Type 0, BuildingBlock: XOMCOT_clean_sbu_1, # of connection points: 5
#     Edge 4, Type (0, 0), BuildingBlock: FUNLAD_clean_linker_1, # of connection points: 2
#     Edge 5, Type (0, 0), BuildingBlock: FUNLAD_clean_linker_1, # of connection points: 2
#     Edge 6, Type (0, 0), BuildingBlock: FUNLAD_clean_linker_1, # of connection points: 2
#     Edge 7, Type (0, 0), BuildingBlock: FUNLAD_clean_linker_1, # of connection points: 2
#     Edge 8, Type (0, 0), BuildingBlock: FUNLAD_clean_linker_1, # of connection points: 2
#     Edge 9, Type (0, 0), BuildingBlock: FUNLAD_clean_linker_1, # of connection points: 2
#     Edge 10, Type (0, 0), BuildingBlock: FUNLAD_clean_linker_1, # of connection points: 2
#     Edge 11, Type (0, 0), BuildingBlock: FUNLAD_clean_linker_1, # of connection points: 2
#     Edge 12, Type (0, 0), BuildingBlock: FUNLAD_clean_linker_1, # of connection points: 2
#     Edge 13, Type (0, 0), BuildingBlock: FUNLAD_clean_linker_1, # of connection points: 2
# Relax obj value: 0.083
# Max RMSD: 0.168
# Mean RMSD: 0.168
data_MOF--net-sqp--node1-XOMCOT_clean_sbu_1--edge1-FUNLAD_clean_linker_1
_symmetry_space_group_name_H-M    P1
_symmetry_Int_Tables_number       1
_symmetry_cell_setting            triclinic
loop_
_symmetry_equiv_pos_as_xyz
'x, y, z'
_cell_length_a     24.862841
_cell_length_b     20.196225
_cell_length_c     49.532829
_cell_angle_alpha  88.731889
_cell_angle_beta   97.207215
_cell_angle_gamma 90.015444
loop_
_atom_site_label
_atom_site_type_symbol
_atom_site_fract_x
_atom_site_fract_y
_atom_site_fract_z
_atom_type_partial_charge
C0 C 1.00226 0.15928 0.32345 0.0
C1 C 0.96296 0.20623 0.31562 0.0
N2 N 0.93898 0.1916 0.29053 0.0
N3 N 1.00289 0.11503 0.30349 0.0
C4 C 0.9642 0.13649 0.28359 0.0
H5 H 0.02913 0.15792 0.3424 0.0
Co6 Co 0.04922 0.04189 0.30382 0.0
C7 C 0.96954 0.93485 0.28451 0.0
O8 O 0.98939 0.89165 0.30329 0.0
N9 N 0.0972 0.96726 0.30432 0.0
C10 C 0.14225 0.87347 0.31672 0.0
C11 C 0.10009 0.91346 0.32133 0.0
C12 C 0.13889 0.95795 0.2895 0.0
N13 N 0.16697 0.90171 0.29681 0.0
O14 O 0.07235 0.0738 0.27045 0.0
H15 H 0.07362 0.90314 0.3366 0.0
H16 H 0.14944 0.99212 0.2739 0.0
O17 O 0.98999 0.99271 0.28344 0.0
C18 C 0.10426 0.12264 0.27545 0.0
O19 O 0.11512 0.14161 0.30077 0.0
N20 N 0.03073 1.01679 0.33785 0.0
C21 C 0.023 0.98778 0.39235 0.0
C22 C 0.97745 0.98123 0.37261 0.0
C23 C 0.98205 0.99704 0.34526 0.0
C24 C 0.07395 1.02719 0.357 0.0
C25 C 0.07134 1.01165 0.3842 0.0
H26 H 0.94671 0.99392 0.33025 0.0
H27 H 0.11133 0.04624 0.35084 0.0
H28 H 0.95489 0.11246 0.26424 0.0
H29 H 0.95392 0.24859 0.32727 0.0
H30 H 0.1532 0.8268 0.3271 0.0
H31 H 0.93896 0.96392 0.37801 0.0
H32 H 0.10697 1.01889 0.39882 0.0
C33 C 0.05971 0.16266 0.6641 0.0
C34 C 0.10006 0.20795 0.67152 0.0
N35 N 0.11962 0.1958 0.69777 0.0
N36 N 0.05428 0.12152 0.68547 0.0
C37 C 0.0906 0.14425 0.70579 0.0
H38 H 0.03683 0.15969 0.64416 0.0
Co39 Co 1.00845 0.04743 0.68806 0.0
C40 C 0.12044 0.9924 0.70248 0.0
O41 O 0.1396 1.0304 0.68403 0.0
N42 N 0.9634 0.97408 0.69094 0.0
C43 C 0.93383 0.87021 0.69097 0.0
C44 C 0.97675 0.91047 0.68709 0.0
C45 C 0.9121 0.97114 0.69733 0.0
N46 N 0.89311 0.90845 0.69736 0.0
O47 O 0.9927 0.07688 0.72276 0.0
H48 H 0.01575 0.89387 0.68241 0.0
H49 H 0.88936 1.01388 0.70232 0.0
O50 O 0.07011 0.99447 0.70543 0.0
C51 C 0.95894 0.12456 0.7181 0.0
O52 O 0.94426 0.14353 0.69268 0.0
N53 N 0.01667 1.02263 0.65265 0.0
C54 C 1.00192 0.99852 0.59697 0.0
C55 C 0.0434 0.96604 0.6143 0.0
C56 C 0.04968 0.97824 0.64229 0.0
C57 C 0.9754 0.05249 0.63618 0.0
C58 C 0.96763 0.04172 0.60841 0.0
H59 H 0.07966 0.95014 0.65533 0.0
H60 H 0.9482 0.08538 0.64485 0.0
H61 H 0.09733 0.12143 0.72592 0.0
H62 H 0.11454 0.24548 0.65831 0.0
H63 H 0.93375 0.81668 0.6904 0.0
H64 H 0.07046 0.93113 0.60671 0.0
H65 H 0.93482 0.06734 0.59593 0.0
C66 C 0.49869 0.65628 0.82449 0.0
C67 C 0.4589 0.7026 0.81663 0.0
N68 N 0.43564 0.68815 0.7914 0.0
N69 N 0.5003 0.61259 0.8044 0.0
C70 C 0.46176 0.63381 0.78438 0.0
H71 H 0.52517 0.65493 0.84356 0.0
Co72 Co 0.54738 0.54022 0.80479 0.0
C73 C 0.46902 0.43203 0.7859 0.0
O74 O 0.4886 0.39057 0.80542 0.0
N75 N 0.59603 0.46621 0.80527 0.0
C76 C 0.64149 0.37237 0.8171 0.0
C77 C 0.60001 0.41263 0.82242 0.0
C78 C 0.63631 0.45643 0.78962 0.0
N79 N 0.66459 0.40014 0.79654 0.0
O80 O 0.57053 0.57283 0.77151 0.0
H81 H 0.5744 0.4022 0.83805 0.0
H82 H 0.64538 0.48993 0.77348 0.0
O83 O 0.489 0.49002 0.7842 0.0
C84 C 0.60192 0.6222 0.77642 0.0
O85 O 0.61241 0.64166 0.80169 0.0
N86 N 0.52866 0.51456 0.83878 0.0
C87 C 0.51928 0.48466 0.89303 0.0
C88 C 0.47402 0.47955 0.87304 0.0
C89 C 0.47945 0.49582 0.84584 0.0
C90 C 0.57156 0.52412 0.85823 0.0
C91 C 0.56817 0.50784 0.88531 0.0
H92 H 0.44432 0.49384 0.83065 0.0
H93 H 0.60932 0.54281 0.85239 0.0
H94 H 0.45316 0.61012 0.76492 0.0
H95 H 0.44906 0.74453 0.82834 0.0
H96 H 0.6528 0.3256 0.8273 0.0
H97 H 0.43517 0.46279 0.87819 0.0
H98 H 0.60357 0.514 0.90019 0.0
C99 C 0.55973 0.66585 0.16389 0.0
C100 C 0.59942 0.71226 0.1709 0.0
N101 N 0.61992 0.70085 0.19708 0.0
N102 N 0.55561 0.62487 0.18546 0.0
C103 C 0.59211 0.64863 0.20546 0.0
H104 H 0.53621 0.66211 0.14412 0.0
Co105 Co 0.5109 0.55023 0.18867 0.0
C106 C 0.62369 0.4968 0.20235 0.0
O107 O 0.6421 0.53487 0.1837 0.0
N108 N 0.46688 0.47623 0.19215 0.0
C109 C 0.43838 0.37193 0.19235 0.0
C110 C 0.48091 0.41279 0.18844 0.0
C111 C 0.41557 0.4726 0.19847 0.0
N112 N 0.39722 0.40964 0.19858 0.0
O113 O 0.49629 0.57983 0.22352 0.0
H114 H 0.52002 0.39678 0.18367 0.0
H115 H 0.39225 0.51508 0.20322 0.0
O116 O 0.57354 0.49843 0.20565 0.0
C117 C 0.46097 0.62588 0.21914 0.0
O118 O 0.44415 0.64353 0.19378 0.0
N119 N 0.51797 0.52511 0.15316 0.0
C120 C 0.49947 0.49743 0.09791 0.0
C121 C 0.54304 0.46757 0.11467 0.0
C122 C 0.55117 0.48141 0.14251 0.0
C123 C 0.47508 0.55302 0.13713 0.0
C124 C 0.46515 0.54001 0.10957 0.0
H125 H 0.58241 0.45462 0.15528 0.0
H126 H 0.4479 0.58542 0.14606 0.0
H127 H 0.59962 0.62637 0.22568 0.0
H128 H 0.6126 0.75029 0.15751 0.0
H129 H 0.43875 0.3184 0.19177 0.0
H130 H 0.56938 0.43228 0.1067 0.0
H131 H 0.43078 0.56343 0.09742 0.0
H132 H 0.06228 0.96824 0.43406 0.0
C133 C 0.02291 0.97222 0.4217 0.0
H134 H 0.93805 0.97486 0.42378 0.0
H135 H 0.98744 0.83575 0.54298 0.0
H136 H 0.94769 0.7428 0.51731 0.0
H137 H 0.92526 0.75149 0.46739 0.0
H138 H 0.94198 0.85348 0.44281 0.0
C139 C 0.97861 0.97018 0.43462 0.0
C140 C 0.98571 0.96713 0.46487 0.0
C141 C 0.97566 0.90741 0.47885 0.0
C142 C 0.98899 0.90228 0.50761 0.0
C143 C 0.97828 0.84216 0.52114 0.0
C144 C 0.95553 0.78848 0.50665 0.0
C145 C 0.94291 0.79337 0.47854 0.0
C146 C 0.95279 0.85204 0.46468 0.0
H147 H 0.9606 1.02104 0.55581 0.0
C148 C 0.99277 0.9911 0.56699 0.0
H149 H 0.05425 0.92081 0.56201 0.0
H150 H 1.00319 0.09172 0.44468 0.0
H151 H 0.04598 0.18329 0.46992 0.0
H152 H 0.07638 0.17139 0.51915 0.0
H153 H 0.06316 0.06843 0.54347 0.0
C154 C 0.02259 0.95354 0.55244 0.0
C155 C 1.01235 0.95694 0.52221 0.0
C156 C 0.02282 1.01659 0.50812 0.0
C157 C 1.00789 1.02235 0.47956 0.0
C158 C 0.0158 0.08375 0.46622 0.0
C159 C 0.04 0.13688 0.48048 0.0
C160 C 0.0569 0.13027 0.5082 0.0
C161 C 0.04862 0.07098 0.52196 0.0
H162 H 0.4465 0.49699 0.05874 0.0
C163 C 0.48731 0.4855 0.06839 0.0
H164 H 0.56636 0.45854 0.0608 0.0
H165 H 0.47958 0.34499 0.94435 0.0
H166 H 0.50286 0.24231 0.96968 0.0
H167 H 0.52942 0.24255 0.01938 0.0
H168 H 0.53309 0.34539 0.04409 0.0
C169 C 0.5248 0.46939 0.0524 0.0
C170 C 0.51038 0.46943 0.02234 0.0
C171 C 0.5086 0.40898 0.00829 0.0
C172 C 0.49351 0.40884 0.97964 0.0
C173 C 0.49159 0.3478 0.96607 0.0
C174 C 0.50456 0.28858 0.98037 0.0
C175 C 0.51946 0.28872 0.00837 0.0
C176 C 0.52143 0.34805 0.02229 0.0
H177 H 0.5569 0.45838 0.93448 0.0
C178 C 0.51808 0.46769 0.92216 0.0
H179 H 0.43468 0.48539 0.92398 0.0
H180 H 0.51501 0.59532 0.04251 0.0
H181 H 0.49044 0.69706 0.01722 0.0
H182 H 0.46007 0.69586 0.96788 0.0
H183 H 0.45461 0.59274 0.94353 0.0
C184 C 0.4737 0.47117 0.9349 0.0
C185 C 0.48051 0.46917 0.96514 0.0
C186 C 0.48108 0.52945 0.97924 0.0
C187 C 0.49714 0.52986 0.00779 0.0
C188 C 0.50097 0.59151 0.02104 0.0
C189 C 0.48748 0.65052 0.00671 0.0
C190 C 0.47051 0.64987 0.97893 0.0
C191 C 0.46756 0.59027 0.96522 0.0
H192 H 0.13812 0.12679 0.23602 0.0
C193 C 0.13339 0.15384 0.2543 0.0
H194 H 0.15343 0.23853 0.27751 0.0
H195 H 0.38381 0.29185 0.24696 0.0
H196 H 0.40419 0.24559 0.29262 0.0
H197 H 0.33241 0.19445 0.31618 0.0
H198 H 0.23991 0.18922 0.29421 0.0
C199 C 0.15829 0.21243 0.259 0.0
C200 C 0.20142 0.23759 0.24322 0.0
C201 C 0.25546 0.24022 0.2564 0.0
C202 C 0.29685 0.2696 0.24283 0.0
C203 C 0.35057 0.27078 0.25638 0.0
C204 C 0.36294 0.24417 0.28259 0.0
C205 C 0.32254 0.21542 0.29586 0.0
C206 C 0.26947 0.21311 0.28302 0.0
H207 H 0.32614 0.4189 0.22004 0.0
C208 C 0.34715 0.387 0.20737 0.0
H209 H 0.34728 0.29391 0.18857 0.0
H210 H 0.10207 0.24185 0.21233 0.0
H211 H 0.0823 0.28574 0.16612 0.0
H212 H 0.15472 0.33435 0.14222 0.0
H213 H 0.24743 0.33996 0.16452 0.0
C214 C 0.32807 0.32572 0.20193 0.0
C215 C 0.28417 0.29647 0.21611 0.0
C216 C 0.23056 0.29237 0.20266 0.0
C217 C 0.18893 0.26337 0.21631 0.0
C218 C 0.13537 0.26211 0.20274 0.0
C219 C 0.12346 0.28736 0.17625 0.0
C220 C 0.16425 0.31479 0.16279 0.0
C221 C 0.21724 0.3176 0.17578 0.0
H222 H 0.89034 0.21759 0.25194 0.0
C223 C 0.89726 0.22809 0.27354 0.0
H224 H 0.87293 0.28541 0.30505 0.0
H225 H 0.77773 0.52875 0.23429 0.0
H226 H 0.85765 0.5763 0.25958 0.0
H227 H 0.92467 0.50547 0.28761 0.0
H228 H 0.91197 0.38673 0.29068 0.0
C229 C 0.86657 0.27424 0.28357 0.0
C230 C 0.8265 0.31585 0.2657 0.0
C231 C 0.83486 0.38523 0.26382 0.0
C232 C 0.79675 0.42595 0.24721 0.0
C233 C 0.80576 0.49523 0.24618 0.0
C234 C 0.85143 0.52329 0.26067 0.0
C235 C 0.88911 0.48344 0.27649 0.0
C236 C 0.88118 0.41526 0.27811 0.0
H237 H 0.64527 0.42367 0.23586 0.0
C238 C 0.66057 0.45048 0.21916 0.0
H239 H 0.72784 0.46834 0.19796 0.0
H240 H 0.79419 0.18613 0.26727 0.0
H241 H 0.71633 0.13787 0.24047 0.0
H242 H 0.65461 0.20696 0.20864 0.0
H243 H 0.66971 0.32494 0.20389 0.0
C244 C 0.71197 0.44068 0.21428 0.0
C245 C 0.75053 0.3973 0.23221 0.0
C246 C 0.74243 0.32778 0.23381 0.0
C247 C 0.77969 0.28728 0.25111 0.0
C248 C 0.76869 0.21875 0.25358 0.0
C249 C 0.72388 0.19043 0.23844 0.0
C250 C 0.68901 0.22937 0.2206 0.0
C251 C 0.69798 0.29721 0.21821 0.0
H252 H 0.67773 0.71289 0.23351 0.0
C253 C 0.66519 0.73198 0.21298 0.0
H254 H 0.68358 0.80016 0.18245 0.0
H255 H 0.82336 0.90752 0.2977 0.0
H256 H 0.73571 0.93031 0.31231 0.0
H257 H 0.6511 0.89899 0.28403 0.0
H258 H 0.65355 0.84412 0.24113 0.0
C259 C 0.69392 0.78147 0.20313 0.0
C260 C 0.74435 0.80683 0.2191 0.0
C261 C 0.74209 0.84037 0.24382 0.0
C262 C 0.79086 0.85977 0.25985 0.0
C263 C 0.78753 0.89195 0.2847 0.0
C264 C 0.73751 0.90548 0.29329 0.0
C265 C 0.68987 0.88775 0.27739 0.0
C266 C 0.69187 0.8558 0.25289 0.0
H267 H 0.90589 0.95418 0.24977 0.0
C268 C 0.92044 0.91862 0.26582 0.0
H269 H 0.90568 0.82722 0.28521 0.0
H270 H 0.76329 0.74699 0.17204 0.0
H271 H 0.85082 0.72815 0.15681 0.0
H272 H 0.93511 0.7635 0.18433 0.0
H273 H 0.93234 0.81793 0.22732 0.0
C274 C 0.89262 0.86235 0.26877 0.0
C275 C 0.8417 0.84718 0.25084 0.0
C276 C 0.84391 0.8163 0.2256 0.0
C277 C 0.79521 0.79613 0.2097 0.0
C278 C 0.79884 0.76398 0.18485 0.0
C279 C 0.84887 0.75268 0.17588 0.0
C280 C 0.89633 0.77255 0.19138 0.0
C281 C 0.89416 0.80382 0.216 0.0
H282 H 0.22006 0.89512 0.265 0.0
C283 C 0.21262 0.87628 0.28492 0.0
H284 H 0.23894 0.81031 0.31766 0.0
H285 H 0.33976 0.60201 0.24536 0.0
H286 H 0.26339 0.5416 0.25912 0.0
H287 H 0.19748 0.59617 0.28466 0.0
H288 H 0.20744 0.7117 0.29636 0.0
C289 C 0.24552 0.82911 0.29766 0.0
C290 C 0.28801 0.79576 0.2841 0.0
C291 C 0.28249 0.72748 0.27812 0.0
C292 C 0.32084 0.69578 0.26363 0.0
C293 C 0.31268 0.62845 0.25676 0.0
C294 C 0.26877 0.59309 0.26446 0.0
C295 C 0.23167 0.62381 0.27883 0.0
C296 C 0.23805 0.69021 0.2855 0.0
H297 H 0.44403 0.63578 0.26195 0.0
C298 C 0.43525 0.65573 0.24132 0.0
H299 H 0.39083 0.72558 0.21499 0.0
H300 H 0.31561 0.92393 0.29636 0.0
H301 H 0.39336 0.98389 0.28345 0.0
H302 H 0.45907 0.9294 0.25772 0.0
H303 H 0.4476 0.81433 0.24495 0.0
C304 C 0.39826 0.70442 0.23548 0.0
C305 C 0.36508 0.73228 0.25549 0.0
C306 C 0.37212 0.79951 0.26276 0.0
C307 C 0.33381 0.8312 0.27725 0.0
C308 C 0.34264 0.89796 0.28473 0.0
C309 C 0.38732 0.93283 0.2776 0.0
C310 C 0.42433 0.90215 0.26313 0.0
C311 C 0.41712 0.83623 0.2558 0.0
H312 H 0.38908 0.71656 0.75254 0.0
C313 C 0.39402 0.72459 0.77434 0.0
H314 H 0.3655 0.77605 0.80635 0.0
H315 H 0.26911 1.02534 0.74022 0.0
H316 H 0.34436 0.0723 0.76943 0.0
H317 H 0.41103 1.00033 0.79703 0.0
H318 H 0.4022 0.88092 0.79616 0.0
C319 C 0.36114 0.7678 0.78462 0.0
C320 C 0.32148 0.81032 0.76691 0.0
C321 C 0.32785 0.88016 0.76721 0.0
C322 C 0.29021 0.9217 0.75072 0.0
C323 C 0.29698 0.99132 0.75194 0.0
C324 C 0.34002 1.01904 0.76862 0.0
C325 C 0.37743 0.97851 0.78425 0.0
C326 C 0.37172 0.90994 0.78362 0.0
H327 H 0.14019 0.91676 0.73522 0.0
C328 C 0.15665 0.94553 0.71937 0.0
H329 H 0.22609 0.96761 0.70033 0.0
H330 H 0.29255 0.67926 0.76414 0.0
H331 H 0.21877 0.63215 0.73401 0.0
H332 H 0.15826 0.70349 0.70256 0.0
H333 H 0.17044 0.82252 0.70144 0.0
C334 C 0.20894 0.93774 0.71564 0.0
C335 C 0.24656 0.89346 0.73362 0.0
C336 C 0.24026 0.8236 0.73317 0.0
C337 C 0.27694 0.78209 0.75033 0.0
C338 C 0.26758 0.7129 0.75067 0.0
C339 C 0.22507 0.68518 0.73362 0.0
C340 C 0.19087 0.72537 0.71598 0.0
C341 C 0.19817 0.79375 0.71566 0.0
H342 H 0.17797 0.20449 0.73422 0.0
C343 C 0.16576 0.2247 0.71383 0.0
H344 H 0.18465 0.29541 0.6842 0.0
H345 H 0.32628 0.46151 0.77593 0.0
H346 H 0.24669 0.53127 0.76729 0.0
H347 H 0.16633 0.4954 0.73682 0.0
H348 H 0.16497 0.3886 0.71519 0.0
C349 C 0.19609 0.2728 0.70415 0.0
C350 C 0.24645 0.2967 0.72057 0.0
C351 C 0.24748 0.3602 0.73224 0.0
C352 C 0.29456 0.38178 0.74914 0.0
C353 C 0.29283 0.44361 0.76198 0.0
C354 C 0.24707 0.48404 0.7574 0.0
C355 C 0.20178 0.46375 0.7403 0.0
C356 C 0.2016 0.40242 0.72797 0.0
H357 H 0.40864 0.44538 0.74933 0.0
C358 C 0.42067 0.4137 0.76708 0.0
H359 H 0.40255 0.32865 0.78971 0.0
H360 H 0.25979 0.17464 0.69917 0.0
H361 H 0.34013 0.10559 0.70677 0.0
H362 H 0.42218 0.14332 0.73546 0.0
H363 H 0.42434 0.25032 0.75676 0.0
C364 C 0.3903 0.36069 0.77209 0.0
C365 C 0.34139 0.34065 0.75345 0.0
C366 C 0.3407 0.27777 0.74116 0.0
C367 C 0.2933 0.25584 0.72468 0.0
C368 C 0.29424 0.19332 0.71229 0.0
C369 C 0.34027 0.15331 0.71631 0.0
C370 C 0.38645 0.17456 0.73246 0.0
C371 C 0.38699 0.23602 0.7447 0.0
H372 H 0.93435 0.12974 0.75968 0.0
C373 C 0.93173 0.15422 0.73981 0.0
H374 H 0.8969 0.23137 0.7139 0.0
H375 H 0.67719 0.25822 0.75952 0.0
H376 H 0.65027 0.18974 0.72064 0.0
H377 H 0.71882 0.13908 0.69555 0.0
H378 H 0.81473 0.15626 0.70938 0.0
C379 C 0.89991 0.20796 0.73402 0.0
C380 C 0.86009 0.23099 0.75176 0.0
C381 C 0.8041 0.22089 0.74331 0.0
C382 C 0.76458 0.25078 0.75755 0.0
C383 C 0.709 0.23826 0.74906 0.0
C384 C 0.69293 0.19861 0.72685 0.0
C385 C 0.73151 0.17007 0.71274 0.0
C386 C 0.78646 0.18067 0.72082 0.0
H387 H 0.71445 0.39337 0.76339 0.0
C388 C 0.7081 0.37361 0.78335 0.0
H389 H 0.73641 0.30582 0.81519 0.0
H390 H 0.96394 0.25833 0.77372 0.0
H391 H 0.99114 0.32489 0.81333 0.0
H392 H 0.92265 0.37647 0.83821 0.0
H393 H 0.8265 0.36223 0.82355 0.0
C394 C 0.7399 0.32379 0.7947 0.0
C395 C 0.78117 0.29157 0.78001 0.0
C396 C 0.83716 0.29932 0.78917 0.0
C397 C 0.87672 0.26923 0.77493 0.0
C398 C 0.9323 0.27955 0.78396 0.0
C399 C 0.94844 0.3177 0.80664 0.0
C400 C 0.90986 0.34674 0.82065 0.0
C401 C 0.85482 0.33803 0.81206 0.0
H402 H 0.63539 0.62651 0.7369 0.0
C403 C 0.63084 0.65352 0.75521 0.0
H404 H 0.65102 0.7383 0.77835 0.0
H405 H 0.88037 0.79246 0.74627 0.0
H406 H 0.90184 0.74707 0.792 0.0
H407 H 0.83081 0.69623 0.81618 0.0
H408 H 0.73797 0.69038 0.79473 0.0
C409 C 0.65564 0.71221 0.7598 0.0
C410 C 0.69827 0.73769 0.74375 0.0
C411 C 0.75252 0.74074 0.75662 0.0
C412 C 0.79348 0.77 0.74271 0.0
C413 C 0.84742 0.7715 0.75595 0.0
C414 C 0.86043 0.74539 0.78221 0.0
C415 C 0.82045 0.7168 0.79582 0.0
C416 C 0.76717 0.71413 0.78328 0.0
H417 H 0.82267 0.91867 0.71923 0.0
C418 C 0.84315 0.8864 0.70647 0.0
H419 H 0.84235 0.79294 0.68792 0.0
H420 H 0.59829 0.74158 0.71344 0.0
H421 H 0.57734 0.78503 0.66722 0.0
H422 H 0.64899 0.83347 0.64274 0.0
H423 H 0.7421 0.83935 0.66446 0.0
C424 C 0.82368 0.82514 0.70133 0.0
C425 C 0.78016 0.79639 0.71595 0.0
C426 C 0.72629 0.7921 0.70284 0.0
C427 C 0.6851 0.76319 0.71683 0.0
C428 C 0.63129 0.76176 0.70358 0.0
C429 C 0.6187 0.78676 0.67709 0.0
C430 C 0.65904 0.81409 0.66331 0.0
C431 C 0.71228 0.81706 0.67596 0.0
loop_
_geom_bond_atom_site_label_1
_geom_bond_atom_site_label_2
_geom_bond_distance
_geom_bond_site_symmetry_2
_ccdc_geom_bond_type
C0 C1 1.351 . S
C0 N3 1.368 . S
C0 H5 0.931 1_655 S
C1 C0 1.351 . S
C1 N2 1.373 . S
C1 H29 0.930 . S
N2 C1 1.373 . S
N2 C4 1.340 . S
N3 C0 1.368 . S
N3 C4 1.321 . S
N3 Co6 2.135 1_655 S
C4 N2 1.340 . S
C4 N3 1.321 . S
C4 H28 0.930 . S
H5 C0 0.931 1_455 S
Co6 N3 2.135 1_455 S
Co6 N9 2.121 1_545 S
Co6 O14 2.055 . S
Co6 O17 2.039 1_445 S
Co6 N20 2.140 . S
C7 O8 1.227 . S
C7 O17 1.265 . S
O8 C7 1.227 . S
N9 Co6 2.121 1_565 S
N9 C11 1.375 . S
N9 C12 1.313 . S
C10 C11 1.338 . S
C10 N13 1.377 . S
C10 H30 0.930 . S
C11 N9 1.375 . S
C11 C10 1.338 . S
C11 H15 0.931 . S
C12 N9 1.313 . S
C12 N13 1.344 . S
C12 H16 0.930 . S
N13 C10 1.377 . S
N13 C12 1.344 . S
O14 Co6 2.055 . S
O14 C18 1.253 . S
H15 C11 0.931 . S
H16 C12 0.930 . S
O17 Co6 2.039 1_665 S
O17 C7 1.265 . S
C18 O14 1.253 . S
C18 O19 1.227 . S
O19 C18 1.227 . S
N20 Co6 2.140 . S
N20 C23 1.346 1_455 S
N20 C24 1.345 1_545 S
C21 C22 1.387 1_465 S
C21 C25 1.391 . S
C22 C21 1.387 1_645 S
C22 C23 1.369 . S
C22 H31 0.929 . S
C23 N20 1.346 1_655 S
C23 C22 1.369 . S
C23 H26 0.928 . S
C24 N20 1.345 1_565 S
C24 C25 1.371 . S
C24 H27 0.931 . S
C25 C21 1.391 . S
C25 C24 1.371 . S
C25 H32 0.930 . S
H26 C23 0.928 . S
H27 C24 0.931 . S
H28 C4 0.930 . S
H29 C1 0.930 . S
H30 C10 0.930 . S
H31 C22 0.929 . S
H32 C25 0.930 . S
C33 C34 1.351 . S
C33 N36 1.368 . S
C33 H38 0.931 . S
C34 C33 1.351 . S
C34 N35 1.373 . S
C34 H62 0.930 . S
N35 C34 1.373 . S
N35 C37 1.340 . S
N36 C33 1.368 . S
N36 C37 1.321 . S
N36 Co39 2.135 . S
C37 N35 1.340 . S
C37 N36 1.321 . S
C37 H61 0.930 . S
H38 C33 0.931 . S
Co39 N36 2.135 . S
Co39 N42 2.121 1_445 S
Co39 O47 2.055 1_455 S
Co39 O50 2.039 1_545 S
Co39 N53 2.140 . S
C40 O41 1.227 . S
C40 O50 1.265 . S
O41 C40 1.227 . S
N42 Co39 2.121 1_665 S
N42 C44 1.375 . S
N42 C45 1.313 . S
C43 C44 1.338 . S
C43 N46 1.377 . S
C43 H63 0.930 . S
C44 N42 1.375 . S
C44 C43 1.338 . S
C44 H48 0.931 1_655 S
C45 N42 1.313 . S
C45 N46 1.344 . S
C45 H49 0.930 . S
N46 C43 1.377 . S
N46 C45 1.344 . S
O47 Co39 2.055 1_655 S
O47 C51 1.253 . S
H48 C44 0.931 1_455 S
H49 C45 0.930 . S
O50 Co39 2.039 1_565 S
O50 C40 1.265 . S
C51 O47 1.253 . S
C51 O52 1.227 . S
O52 C51 1.227 . S
N53 Co39 2.140 . S
N53 C56 1.346 . S
N53 C57 1.345 1_445 S
C54 C55 1.387 1_565 S
C54 C58 1.391 1_455 S
C55 C54 1.387 1_545 S
C55 C56 1.369 . S
C55 H64 0.929 . S
C56 N53 1.346 . S
C56 C55 1.369 . S
C56 H59 0.928 . S
C57 N53 1.345 1_665 S
C57 C58 1.371 . S
C57 H60 0.931 . S
C58 C54 1.391 1_655 S
C58 C57 1.371 . S
C58 H65 0.930 . S
H59 C56 0.928 . S
H60 C57 0.931 . S
H61 C37 0.930 . S
H62 C34 0.930 . S
H63 C43 0.930 . S
H64 C55 0.929 . S
H65 C58 0.930 . S
C66 C67 1.351 . S
C66 N69 1.368 . S
C66 H71 0.931 . S
C67 C66 1.351 . S
C67 N68 1.373 . S
C67 H95 0.930 . S
N68 C67 1.373 . S
N68 C70 1.340 . S
N69 C66 1.368 . S
N69 C70 1.321 . S
N69 Co72 2.135 . S
C70 N68 1.340 . S
C70 N69 1.321 . S
C70 H94 0.930 . S
H71 C66 0.931 . S
Co72 N69 2.135 . S
Co72 N75 2.121 . S
Co72 O80 2.055 . S
Co72 O83 2.039 . S
Co72 N86 2.140 . S
C73 O74 1.227 . S
C73 O83 1.265 . S
O74 C73 1.227 . S
N75 Co72 2.121 . S
N75 C77 1.375 . S
N75 C78 1.313 . S
C76 C77 1.338 . S
C76 N79 1.377 . S
C76 H96 0.930 . S
C77 N75 1.375 . S
C77 C76 1.338 . S
C77 H81 0.931 . S
C78 N75 1.313 . S
C78 N79 1.344 . S
C78 H82 0.930 . S
N79 C76 1.377 . S
N79 C78 1.344 . S
O80 Co72 2.055 . S
O80 C84 1.253 . S
H81 C77 0.931 . S
H82 C78 0.930 . S
O83 Co72 2.039 . S
O83 C73 1.265 . S
C84 O80 1.253 . S
C84 O85 1.227 . S
O85 C84 1.227 . S
N86 Co72 2.140 . S
N86 C89 1.346 . S
N86 C90 1.345 . S
C87 C88 1.387 . S
C87 C91 1.391 . S
C88 C87 1.387 . S
C88 C89 1.369 . S
C88 H97 0.929 . S
C89 N86 1.346 . S
C89 C88 1.369 . S
C89 H92 0.928 . S
C90 N86 1.345 . S
C90 C91 1.371 . S
C90 H93 0.931 . S
C91 C87 1.391 . S
C91 C90 1.371 . S
C91 H98 0.930 . S
H92 C89 0.928 . S
H93 C90 0.931 . S
H94 C70 0.930 . S
H95 C67 0.930 . S
H96 C76 0.930 . S
H97 C88 0.929 . S
H98 C91 0.930 . S
C99 C100 1.351 . S
C99 N102 1.368 . S
C99 H104 0.931 . S
C100 C99 1.351 . S
C100 N101 1.373 . S
C100 H128 0.930 . S
N101 C100 1.373 . S
N101 C103 1.340 . S
N102 C99 1.368 . S
N102 C103 1.321 . S
N102 Co105 2.135 . S
C103 N101 1.340 . S
C103 N102 1.321 . S
C103 H127 0.930 . S
H104 C99 0.931 . S
Co105 N102 2.135 . S
Co105 N108 2.121 . S
Co105 O113 2.055 . S
Co105 O116 2.039 . S
Co105 N119 2.140 . S
C106 O107 1.227 . S
C106 O116 1.265 . S
O107 C106 1.227 . S
N108 Co105 2.121 . S
N108 C110 1.375 . S
N108 C111 1.313 . S
C109 C110 1.338 . S
C109 N112 1.377 . S
C109 H129 0.930 . S
C110 N108 1.375 . S
C110 C109 1.338 . S
C110 H114 0.931 . S
C111 N108 1.313 . S
C111 N112 1.344 . S
C111 H115 0.930 . S
N112 C109 1.377 . S
N112 C111 1.344 . S
O113 Co105 2.055 . S
O113 C117 1.253 . S
H114 C110 0.931 . S
H115 C111 0.930 . S
O116 Co105 2.039 . S
O116 C106 1.265 . S
C117 O113 1.253 . S
C117 O118 1.227 . S
O118 C117 1.227 . S
N119 Co105 2.140 . S
N119 C122 1.346 . S
N119 C123 1.345 . S
C120 C121 1.387 . S
C120 C124 1.391 . S
C121 C120 1.387 . S
C121 C122 1.369 . S
C121 H130 0.929 . S
C122 N119 1.346 . S
C122 C121 1.369 . S
C122 H125 0.928 . S
C123 N119 1.345 . S
C123 C124 1.371 . S
C123 H126 0.931 . S
C124 C120 1.391 . S
C124 C123 1.371 . S
C124 H131 0.930 . S
H125 C122 0.928 . S
H126 C123 0.931 . S
H127 C103 0.930 . S
H128 C100 0.930 . S
H129 C109 0.930 . S
H130 C121 0.929 . S
H131 C124 0.930 . S
H132 C133 0.951 1_545 S
C133 H132 0.951 1_565 S
C133 C139 1.265 1_455 S
H134 C139 0.950 . S
H135 C143 0.949 . S
H136 C144 0.950 . S
H137 C145 0.951 . S
H138 C146 0.951 . S
C139 C133 1.265 1_655 S
C139 H134 0.950 . S
C139 C140 1.478 1_655 S
C140 C139 1.478 1_455 S
C140 C141 1.397 1_455 S
C140 C157 1.394 1_565 S
C141 C140 1.397 1_655 S
C141 C142 1.438 1_655 S
C141 C146 1.429 . S
C142 C141 1.438 1_455 S
C142 C143 1.428 1_455 S
C142 C155 1.395 . S
C143 H135 0.949 . S
C143 C142 1.428 1_655 S
C143 C144 1.345 . S
C144 H136 0.950 . S
C144 C143 1.345 . S
C144 C145 1.424 . S
C145 H137 0.951 . S
C145 C144 1.424 . S
C145 C146 1.347 . S
C146 H138 0.951 . S
C146 C141 1.429 . S
C146 C145 1.347 . S
H147 C148 0.951 1_655 S
C148 H147 0.951 1_455 S
C148 C154 1.265 1_565 S
H149 C154 0.950 . S
H150 C158 0.949 . S
H151 C159 0.950 . S
H152 C160 0.951 . S
H153 C161 0.951 . S
C154 C148 1.265 1_545 S
C154 H149 0.950 . S
C154 C155 1.478 1_545 S
C155 C142 1.395 . S
C155 C154 1.478 1_565 S
C155 C156 1.395 1_565 S
C156 C155 1.395 1_545 S
C156 C157 1.438 . S
C156 C161 1.429 . S
C157 C140 1.394 1_545 S
C157 C156 1.438 . S
C157 C158 1.428 . S
C158 H150 0.949 . S
C158 C157 1.428 . S
C158 C159 1.345 . S
C159 H151 0.950 . S
C159 C158 1.345 . S
C159 C160 1.424 . S
C160 H152 0.951 . S
C160 C159 1.424 . S
C160 C161 1.347 . S
C161 H153 0.951 . S
C161 C156 1.429 . S
C161 C160 1.347 . S
H162 C163 0.951 . S
C163 H162 0.951 . S
C163 C169 1.265 . S
H164 C169 0.950 . S
H165 C173 0.949 . S
H166 C174 0.950 . S
H167 C175 0.951 . S
H168 C176 0.951 . S
C169 C163 1.265 . S
C169 H164 0.950 . S
C169 C170 1.478 . S
C170 C169 1.478 . S
C170 C171 1.397 . S
C170 C187 1.394 . S
C171 C170 1.397 . S
C171 C172 1.438 1_554 S
C171 C176 1.429 . S
C172 C171 1.438 1_556 S
C172 C173 1.428 . S
C172 C185 1.394 . S
C173 H165 0.949 . S
C173 C172 1.428 . S
C173 C174 1.345 . S
C174 H166 0.950 . S
C174 C173 1.345 . S
C174 C175 1.424 1_556 S
C175 H167 0.951 . S
C175 C174 1.424 1_554 S
C175 C176 1.347 . S
C176 H168 0.951 . S
C176 C171 1.429 . S
C176 C175 1.347 . S
H177 C178 0.951 . S
C178 H177 0.951 . S
C178 C184 1.265 . S
H179 C184 0.950 . S
H180 C188 0.949 . S
H181 C189 0.950 . S
H182 C190 0.951 . S
H183 C191 0.951 . S
C184 C178 1.265 . S
C184 H179 0.950 . S
C184 C185 1.478 . S
C185 C172 1.394 . S
C185 C184 1.478 . S
C185 C186 1.397 . S
C186 C185 1.397 . S
C186 C187 1.438 1_556 S
C186 C191 1.429 . S
C187 C170 1.394 . S
C187 C186 1.438 1_554 S
C187 C188 1.428 . S
C188 H180 0.949 . S
C188 C187 1.428 . S
C188 C189 1.345 . S
C189 H181 0.950 . S
C189 C188 1.345 . S
C189 C190 1.424 1_554 S
C190 H182 0.951 . S
C190 C189 1.424 1_556 S
C190 C191 1.347 . S
C191 H183 0.951 . S
C191 C186 1.429 . S
C191 C190 1.347 . S
H192 C193 0.951 . S
C193 H192 0.951 . S
C193 C199 1.265 . S
H194 C199 0.950 . S
H195 C203 0.949 . S
H196 C204 0.950 . S
H197 C205 0.951 . S
H198 C206 0.951 . S
C199 C193 1.265 . S
C199 H194 0.950 . S
C199 C200 1.478 . S
C200 C199 1.478 . S
C200 C201 1.397 . S
C200 C217 1.394 . S
C201 C200 1.397 . S
C201 C202 1.438 . S
C201 C206 1.429 . S
C202 C201 1.438 . S
C202 C203 1.428 . S
C202 C215 1.394 . S
C203 H195 0.949 . S
C203 C202 1.428 . S
C203 C204 1.345 . S
C204 H196 0.950 . S
C204 C203 1.345 . S
C204 C205 1.424 . S
C205 H197 0.951 . S
C205 C204 1.424 . S
C205 C206 1.347 . S
C206 H198 0.951 . S
C206 C201 1.429 . S
C206 C205 1.347 . S
H207 C208 0.951 . S
C208 H207 0.951 . S
C208 C214 1.265 . S
H209 C214 0.950 . S
H210 C218 0.949 . S
H211 C219 0.950 . S
H212 C220 0.951 . S
H213 C221 0.951 . S
C214 C208 1.265 . S
C214 H209 0.950 . S
C214 C215 1.478 . S
C215 C202 1.394 . S
C215 C214 1.478 . S
C215 C216 1.397 . S
C216 C215 1.397 . S
C216 C217 1.438 . S
C216 C221 1.429 . S
C217 C200 1.394 . S
C217 C216 1.438 . S
C217 C218 1.428 . S
C218 H210 0.949 . S
C218 C217 1.428 . S
C218 C219 1.345 . S
C219 H211 0.950 . S
C219 C218 1.345 . S
C219 C220 1.424 . S
C220 H212 0.951 . S
C220 C219 1.424 . S
C220 C221 1.347 . S
C221 H213 0.951 . S
C221 C216 1.429 . S
C221 C220 1.347 . S
H222 C223 0.951 . S
C223 H222 0.951 . S
C223 C229 1.265 . S
H224 C229 0.950 . S
H225 C233 0.949 . S
H226 C234 0.950 . S
H227 C235 0.951 . S
H228 C236 0.951 . S
C229 C223 1.265 . S
C229 H224 0.950 . S
C229 C230 1.478 . S
C230 C229 1.478 . S
C230 C231 1.397 . S
C230 C247 1.394 . S
C231 C230 1.397 . S
C231 C232 1.438 . S
C231 C236 1.429 . S
C232 C231 1.438 . S
C232 C233 1.428 . S
C232 C245 1.394 . S
C233 H225 0.949 . S
C233 C232 1.428 . S
C233 C234 1.345 . S
C234 H226 0.950 . S
C234 C233 1.345 . S
C234 C235 1.424 . S
C235 H227 0.951 . S
C235 C234 1.424 . S
C235 C236 1.347 . S
C236 H228 0.951 . S
C236 C231 1.429 . S
C236 C235 1.347 . S
H237 C238 0.951 . S
C238 H237 0.951 . S
C238 C244 1.265 . S
H239 C244 0.950 . S
H240 C248 0.949 . S
H241 C249 0.950 . S
H242 C250 0.951 . S
H243 C251 0.951 . S
C244 C238 1.265 . S
C244 H239 0.950 . S
C244 C245 1.478 . S
C245 C232 1.394 . S
C245 C244 1.478 . S
C245 C246 1.397 . S
C246 C245 1.397 . S
C246 C247 1.438 . S
C246 C251 1.429 . S
C247 C230 1.394 . S
C247 C246 1.438 . S
C247 C248 1.428 . S
C248 H240 0.949 . S
C248 C247 1.428 . S
C248 C249 1.345 . S
C249 H241 0.950 . S
C249 C248 1.345 . S
C249 C250 1.424 . S
C250 H242 0.951 . S
C250 C249 1.424 . S
C250 C251 1.347 . S
C251 H243 0.951 . S
C251 C246 1.429 . S
C251 C250 1.347 . S
H252 C253 0.951 . S
C253 H252 0.951 . S
C253 C259 1.265 . S
H254 C259 0.950 . S
H255 C263 0.949 . S
H256 C264 0.950 . S
H257 C265 0.951 . S
H258 C266 0.951 . S
C259 C253 1.265 . S
C259 H254 0.950 . S
C259 C260 1.478 . S
C260 C259 1.478 . S
C260 C261 1.397 . S
C260 C277 1.394 . S
C261 C260 1.397 . S
C261 C262 1.438 . S
C261 C266 1.429 . S
C262 C261 1.438 . S
C262 C263 1.428 . S
C262 C275 1.394 . S
C263 H255 0.949 . S
C263 C262 1.428 . S
C263 C264 1.345 . S
C264 H256 0.950 . S
C264 C263 1.345 . S
C264 C265 1.424 . S
C265 H257 0.951 . S
C265 C264 1.424 . S
C265 C266 1.347 . S
C266 H258 0.951 . S
C266 C261 1.429 . S
C266 C265 1.347 . S
H267 C268 0.951 . S
C268 H267 0.951 . S
C268 C274 1.265 . S
H269 C274 0.950 . S
H270 C278 0.949 . S
H271 C279 0.950 . S
H272 C280 0.951 . S
H273 C281 0.951 . S
C274 C268 1.265 . S
C274 H269 0.950 . S
C274 C275 1.478 . S
C275 C262 1.394 . S
C275 C274 1.478 . S
C275 C276 1.397 . S
C276 C275 1.397 . S
C276 C277 1.438 . S
C276 C281 1.429 . S
C277 C260 1.394 . S
C277 C276 1.438 . S
C277 C278 1.428 . S
C278 H270 0.949 . S
C278 C277 1.428 . S
C278 C279 1.345 . S
C279 H271 0.950 . S
C279 C278 1.345 . S
C279 C280 1.424 . S
C280 H272 0.951 . S
C280 C279 1.424 . S
C280 C281 1.347 . S
C281 H273 0.951 . S
C281 C276 1.429 . S
C281 C280 1.347 . S
H282 C283 0.951 . S
C283 H282 0.951 . S
C283 C289 1.265 . S
H284 C289 0.950 . S
H285 C293 0.949 . S
H286 C294 0.950 . S
H287 C295 0.951 . S
H288 C296 0.951 . S
C289 C283 1.265 . S
C289 H284 0.950 . S
C289 C290 1.478 . S
C290 C289 1.478 . S
C290 C291 1.397 . S
C290 C307 1.394 . S
C291 C290 1.397 . S
C291 C292 1.438 . S
C291 C296 1.429 . S
C292 C291 1.438 . S
C292 C293 1.428 . S
C292 C305 1.394 . S
C293 H285 0.949 . S
C293 C292 1.428 . S
C293 C294 1.345 . S
C294 H286 0.950 . S
C294 C293 1.345 . S
C294 C295 1.424 . S
C295 H287 0.951 . S
C295 C294 1.424 . S
C295 C296 1.347 . S
C296 H288 0.951 . S
C296 C291 1.429 . S
C296 C295 1.347 . S
H297 C298 0.951 . S
C298 H297 0.951 . S
C298 C304 1.265 . S
H299 C304 0.950 . S
H300 C308 0.949 . S
H301 C309 0.950 . S
H302 C310 0.951 . S
H303 C311 0.951 . S
C304 C298 1.265 . S
C304 H299 0.950 . S
C304 C305 1.478 . S
C305 C292 1.394 . S
C305 C304 1.478 . S
C305 C306 1.397 . S
C306 C305 1.397 . S
C306 C307 1.438 . S
C306 C311 1.429 . S
C307 C290 1.394 . S
C307 C306 1.438 . S
C307 C308 1.428 . S
C308 H300 0.949 . S
C308 C307 1.428 . S
C308 C309 1.345 . S
C309 H301 0.950 . S
C309 C308 1.345 . S
C309 C310 1.424 . S
C310 H302 0.951 . S
C310 C309 1.424 . S
C310 C311 1.347 . S
C311 H303 0.951 . S
C311 C306 1.429 . S
C311 C310 1.347 . S
H312 C313 0.951 . S
C313 H312 0.951 . S
C313 C319 1.265 . S
H314 C319 0.950 . S
H315 C323 0.949 . S
H316 C324 0.950 . S
H317 C325 0.951 . S
H318 C326 0.951 . S
C319 C313 1.265 . S
C319 H314 0.950 . S
C319 C320 1.478 . S
C320 C319 1.478 . S
C320 C321 1.397 . S
C320 C337 1.394 . S
C321 C320 1.397 . S
C321 C322 1.438 . S
C321 C326 1.429 . S
C322 C321 1.438 . S
C322 C323 1.428 . S
C322 C335 1.394 . S
C323 H315 0.949 . S
C323 C322 1.428 . S
C323 C324 1.345 . S
C324 H316 0.950 . S
C324 C323 1.345 . S
C324 C325 1.424 . S
C325 H317 0.951 . S
C325 C324 1.424 . S
C325 C326 1.347 . S
C326 H318 0.951 . S
C326 C321 1.429 . S
C326 C325 1.347 . S
H327 C328 0.951 . S
C328 H327 0.951 . S
C328 C334 1.265 . S
H329 C334 0.950 . S
H330 C338 0.949 . S
H331 C339 0.950 . S
H332 C340 0.951 . S
H333 C341 0.951 . S
C334 C328 1.265 . S
C334 H329 0.950 . S
C334 C335 1.478 . S
C335 C322 1.394 . S
C335 C334 1.478 . S
C335 C336 1.397 . S
C336 C335 1.397 . S
C336 C337 1.438 . S
C336 C341 1.429 . S
C337 C320 1.394 . S
C337 C336 1.438 . S
C337 C338 1.428 . S
C338 H330 0.949 . S
C338 C337 1.428 . S
C338 C339 1.345 . S
C339 H331 0.950 . S
C339 C338 1.345 . S
C339 C340 1.424 . S
C340 H332 0.951 . S
C340 C339 1.424 . S
C340 C341 1.347 . S
C341 H333 0.951 . S
C341 C336 1.429 . S
C341 C340 1.347 . S
H342 C343 0.951 . S
C343 H342 0.951 . S
C343 C349 1.265 . S
H344 C349 0.950 . S
H345 C353 0.949 . S
H346 C354 0.950 . S
H347 C355 0.951 . S
H348 C356 0.951 . S
C349 C343 1.265 . S
C349 H344 0.950 . S
C349 C350 1.478 . S
C350 C349 1.478 . S
C350 C351 1.397 . S
C350 C367 1.394 . S
C351 C350 1.397 . S
C351 C352 1.438 . S
C351 C356 1.429 . S
C352 C351 1.438 . S
C352 C353 1.428 . S
C352 C365 1.394 . S
C353 H345 0.949 . S
C353 C352 1.428 . S
C353 C354 1.345 . S
C354 H346 0.950 . S
C354 C353 1.345 . S
C354 C355 1.424 . S
C355 H347 0.951 . S
C355 C354 1.424 . S
C355 C356 1.347 . S
C356 H348 0.951 . S
C356 C351 1.429 . S
C356 C355 1.347 . S
H357 C358 0.951 . S
C358 H357 0.951 . S
C358 C364 1.265 . S
H359 C364 0.950 . S
H360 C368 0.949 . S
H361 C369 0.950 . S
H362 C370 0.951 . S
H363 C371 0.951 . S
C364 C358 1.265 . S
C364 H359 0.950 . S
C364 C365 1.478 . S
C365 C352 1.394 . S
C365 C364 1.478 . S
C365 C366 1.397 . S
C366 C365 1.397 . S
C366 C367 1.438 . S
C366 C371 1.429 . S
C367 C350 1.394 . S
C367 C366 1.438 . S
C367 C368 1.428 . S
C368 H360 0.949 . S
C368 C367 1.428 . S
C368 C369 1.345 . S
C369 H361 0.950 . S
C369 C368 1.345 . S
C369 C370 1.424 . S
C370 H362 0.951 . S
C370 C369 1.424 . S
C370 C371 1.347 . S
C371 H363 0.951 . S
C371 C366 1.429 . S
C371 C370 1.347 . S
H372 C373 0.951 . S
C373 H372 0.951 . S
C373 C379 1.265 . S
H374 C379 0.950 . S
H375 C383 0.949 . S
H376 C384 0.950 . S
H377 C385 0.951 . S
H378 C386 0.951 . S
C379 C373 1.265 . S
C379 H374 0.950 . S
C379 C380 1.478 . S
C380 C379 1.478 . S
C380 C381 1.397 . S
C380 C397 1.394 . S
C381 C380 1.397 . S
C381 C382 1.438 . S
C381 C386 1.429 . S
C382 C381 1.438 . S
C382 C383 1.428 . S
C382 C395 1.394 . S
C383 H375 0.949 . S
C383 C382 1.428 . S
C383 C384 1.345 . S
C384 H376 0.950 . S
C384 C383 1.345 . S
C384 C385 1.424 . S
C385 H377 0.951 . S
C385 C384 1.424 . S
C385 C386 1.347 . S
C386 H378 0.951 . S
C386 C381 1.429 . S
C386 C385 1.347 . S
H387 C388 0.951 . S
C388 H387 0.951 . S
C388 C394 1.265 . S
H389 C394 0.950 . S
H390 C398 0.949 . S
H391 C399 0.950 . S
H392 C400 0.951 . S
H393 C401 0.951 . S
C394 C388 1.265 . S
C394 H389 0.950 . S
C394 C395 1.478 . S
C395 C382 1.394 . S
C395 C394 1.478 . S
C395 C396 1.397 . S
C396 C395 1.397 . S
C396 C397 1.438 . S
C396 C401 1.429 . S
C397 C380 1.394 . S
C397 C396 1.438 . S
C397 C398 1.428 . S
C398 H390 0.949 . S
C398 C397 1.428 . S
C398 C399 1.345 . S
C399 H391 0.950 . S
C399 C398 1.345 . S
C399 C400 1.424 . S
C400 H392 0.951 . S
C400 C399 1.424 . S
C400 C401 1.347 . S
C401 H393 0.951 . S
C401 C396 1.429 . S
C401 C400 1.347 . S
H402 C403 0.951 . S
C403 H402 0.951 . S
C403 C409 1.265 . S
H404 C409 0.950 . S
H405 C413 0.949 . S
H406 C414 0.950 . S
H407 C415 0.951 . S
H408 C416 0.951 . S
C409 C403 1.265 . S
C409 H404 0.950 . S
C409 C410 1.478 . S
C410 C409 1.478 . S
C410 C411 1.397 . S
C410 C427 1.394 . S
C411 C410 1.397 . S
C411 C412 1.438 . S
C411 C416 1.429 . S
C412 C411 1.438 . S
C412 C413 1.428 . S
C412 C425 1.394 . S
C413 H405 0.949 . S
C413 C412 1.428 . S
C413 C414 1.345 . S
C414 H406 0.950 . S
C414 C413 1.345 . S
C414 C415 1.424 . S
C415 H407 0.951 . S
C415 C414 1.424 . S
C415 C416 1.347 . S
C416 H408 0.951 . S
C416 C411 1.429 . S
C416 C415 1.347 . S
H417 C418 0.951 . S
C418 H417 0.951 . S
C418 C424 1.265 . S
H419 C424 0.950 . S
H420 C428 0.949 . S
H421 C429 0.950 . S
H422 C430 0.951 . S
H423 C431 0.951 . S
C424 C418 1.265 . S
C424 H419 0.950 . S
C424 C425 1.478 . S
C425 C412 1.394 . S
C425 C424 1.478 . S
C425 C426 1.397 . S
C426 C425 1.397 . S
C426 C427 1.438 . S
C426 C431 1.429 . S
C427 C410 1.394 . S
C427 C426 1.438 . S
C427 C428 1.428 . S
C428 H420 0.949 . S
C428 C427 1.428 . S
C428 C429 1.345 . S
C429 H421 0.950 . S
C429 C428 1.345 . S
C429 C430 1.424 . S
C430 H422 0.951 . S
C430 C429 1.424 . S
C430 C431 1.347 . S
C431 H423 0.951 . S
C431 C426 1.429 . S
C431 C430 1.347 . S
C133 C21 1.482 . S
C148 C54 1.482 . S
C163 C120 1.482 . S
C178 C87 1.483 . S
C193 C18 1.509 . S
C208 N112 1.520 . S
C223 N2 1.322 . S
C238 C106 1.444 . S
C253 N101 1.419 . S
C268 C7 1.403 . S
C283 N13 1.437 . S
C298 C117 1.534 . S
C313 N68 1.324 . S
C328 C40 1.445 . S
C343 N35 1.339 . S
C358 C73 1.440 . S
C373 C51 1.514 . S
C388 N79 1.520 . S
C403 C84 1.512 . S
C418 N46 1.523 . S
