# Generated by pormake.
# Topology wiu, (6)-cn, num edge types: 1
# Building blocks:
#     Node 0, Type 0, BuildingBlock: MIDCAF_clean_sbu_0, # of connection points: 6
#     Node 1, Type 0, BuildingBlock: MIDCAF_clean_sbu_0, # of connection points: 6
#     Node 2, Type 0, BuildingBlock: MIDCAF_clean_sbu_0, # of connection points: 6
#     Node 3, Type 0, BuildingBlock: MIDCAF_clean_sbu_0, # of connection points: 6
#     Node 4, Type 0, BuildingBlock: MIDCAF_clean_sbu_0, # of connection points: 6
#     Node 5, Type 0, BuildingBlock: MIDCAF_clean_sbu_0, # of connection points: 6
#     Node 6, Type 0, BuildingBlock: MIDCAF_clean_sbu_0, # of connection points: 6
#     Node 7, Type 0, BuildingBlock: MIDCAF_clean_sbu_0, # of connection points: 6
#     Node 8, Type 0, BuildingBlock: MIDCAF_clean_sbu_0, # of connection points: 6
#     Node 9, Type 0, BuildingBlock: MIDCAF_clean_sbu_0, # of connection points: 6
#     Node 10, Type 0, BuildingBlock: MIDCAF_clean_sbu_0, # of connection points: 6
#     Node 11, Type 0, BuildingBlock: MIDCAF_clean_sbu_0, # of connection points: 6
#     Node 12, Type 0, BuildingBlock: MIDCAF_clean_sbu_0, # of connection points: 6
#     Node 13, Type 0, BuildingBlock: MIDCAF_clean_sbu_0, # of connection points: 6
#     Node 14, Type 0, BuildingBlock: MIDCAF_clean_sbu_0, # of connection points: 6
#     Node 15, Type 0, BuildingBlock: MIDCAF_clean_sbu_0, # of connection points: 6
#     Edge 16, Type (0, 0), None
#     Edge 17, Type (0, 0), None
#     Edge 18, Type (0, 0), None
#     Edge 19, Type (0, 0), None
#     Edge 20, Type (0, 0), None
#     Edge 21, Type (0, 0), None
#     Edge 22, Type (0, 0), None
#     Edge 23, Type (0, 0), None
#     Edge 24, Type (0, 0), None
#     Edge 25, Type (0, 0), None
#     Edge 26, Type (0, 0), None
#     Edge 27, Type (0, 0), None
#     Edge 28, Type (0, 0), None
#     Edge 29, Type (0, 0), None
#     Edge 30, Type (0, 0), None
#     Edge 31, Type (0, 0), None
#     Edge 32, Type (0, 0), None
#     Edge 33, Type (0, 0), None
#     Edge 34, Type (0, 0), None
#     Edge 35, Type (0, 0), None
#     Edge 36, Type (0, 0), None
#     Edge 37, Type (0, 0), None
#     Edge 38, Type (0, 0), None
#     Edge 39, Type (0, 0), None
#     Edge 40, Type (0, 0), None
#     Edge 41, Type (0, 0), None
#     Edge 42, Type (0, 0), None
#     Edge 43, Type (0, 0), None
#     Edge 44, Type (0, 0), None
#     Edge 45, Type (0, 0), None
#     Edge 46, Type (0, 0), None
#     Edge 47, Type (0, 0), None
#     Edge 48, Type (0, 0), None
#     Edge 49, Type (0, 0), None
#     Edge 50, Type (0, 0), None
#     Edge 51, Type (0, 0), None
#     Edge 52, Type (0, 0), None
#     Edge 53, Type (0, 0), None
#     Edge 54, Type (0, 0), None
#     Edge 55, Type (0, 0), None
#     Edge 56, Type (0, 0), None
#     Edge 57, Type (0, 0), None
#     Edge 58, Type (0, 0), None
#     Edge 59, Type (0, 0), None
#     Edge 60, Type (0, 0), None
#     Edge 61, Type (0, 0), None
#     Edge 62, Type (0, 0), None
#     Edge 63, Type (0, 0), None
# Relax obj value: 0.126
# Max RMSD: 0.134
# Mean RMSD: 0.134
data_MOF--net-wiu--node1-MIDCAF_clean_sbu_0--edge1-none
_symmetry_space_group_name_H-M    P1
_symmetry_Int_Tables_number       1
_symmetry_cell_setting            triclinic
loop_
_symmetry_equiv_pos_as_xyz
'x, y, z'
_cell_length_a     13.988782
_cell_length_b     13.989772
_cell_length_c     26.224923
_cell_angle_alpha  89.999996
_cell_angle_beta   90.000347
_cell_angle_gamma 89.997511
loop_
_atom_site_label
_atom_site_type_symbol
_atom_site_fract_x
_atom_site_fract_y
_atom_site_fract_z
_atom_type_partial_charge
Zn0 Zn 0.64079 0.04563 0.09084 0.0
Zn1 Zn 0.17774 0.15433 0.00763 0.0
Zn2 Zn 0.33028 0.12309 0.04828 0.0
C3 C 0.27444 0.16052 0.92956 0.0
C4 C 0.22041 0.29491 0.0805 0.0
O5 O 0.44414 0.03728 0.09143 0.0
O6 O 0.55389 0.96828 0.13931 0.0
C7 C 0.53017 0.02278 0.00556 0.0
O8 O 0.326 0.17918 0.96885 0.0
O9 O 0.19707 0.11639 0.93534 0.0
O10 O 0.18673 0.29665 0.03552 0.0
O11 O 0.26211 0.21936 0.09625 0.0
O12 O 0.61704 1.00937 0.01641 0.0
O13 O 0.47514 0.0584 0.04074 0.0
O14 O 0.47286 0.14512 0.0758 0.0
O15 O 0.61373 0.19159 0.10099 0.0
C16 C 0.52874 0.21347 0.08943 0.0
O17 O 0.20531 0.10239 0.10227 0.0
O18 O 0.09423 0.06997 0.04557 0.0
C19 C 0.46695 0.99218 0.13329 0.0
C20 C 0.11983 0.07501 0.09146 0.0
Zn21 Zn 0.62227 0.42775 0.25762 0.0
Zn22 Zn 0.73095 0.89076 0.34083 0.0
Zn23 Zn 0.6535 0.58027 0.29827 0.0
C24 C 0.5631 0.77871 0.33943 0.0
C25 C 0.75379 0.78014 0.25555 0.0
O26 O 0.67419 0.4553 0.35226 0.0
O27 O 0.70662 0.34423 0.29556 0.0
C28 C 0.48167 0.4704 0.33048 0.0
O29 O 0.63146 0.72284 0.3258 0.0
O30 O 0.58498 0.8637 0.35099 0.0
O31 O 0.7672 0.86701 0.2664 0.0
O32 O 0.71817 0.72512 0.29073 0.0
O33 O 0.47993 0.43673 0.28551 0.0
O34 O 0.55722 0.51211 0.34624 0.0
O35 O 0.59741 0.57598 0.21884 0.0
O36 O 0.66023 0.44707 0.18533 0.0
C37 C 0.61609 0.52442 0.17954 0.0
O38 O 0.73931 0.69411 0.34141 0.0
O39 O 0.80832 0.80386 0.38929 0.0
C40 C 0.70157 0.36982 0.34145 0.0
C41 C 0.78442 0.71693 0.38328 0.0
Zn42 Zn 0.34886 0.87227 0.50763 0.0
Zn43 Zn 0.88581 0.98098 0.59084 0.0
Zn44 Zn 0.19633 0.90352 0.54828 0.0
C45 C 0.99787 0.81313 0.58943 0.0
C46 C 0.99644 1.00382 0.50556 0.0
O47 O 0.3213 0.92422 0.60227 0.0
O48 O 0.43237 0.95663 0.54557 0.0
C49 C 0.3062 0.7317 0.5805 0.0
O50 O 0.05375 0.88149 0.5758 0.0
O51 O 0.91287 0.83502 0.60099 0.0
O52 O 0.90957 0.01724 0.51641 0.0
O53 O 0.05147 0.96821 0.54074 0.0
O54 O 0.33988 0.72995 0.53552 0.0
O55 O 0.26449 0.80725 0.59625 0.0
O56 O 0.20061 0.84743 0.46885 0.0
O57 O 0.32954 0.91021 0.43534 0.0
C58 C 0.25217 0.86609 0.42956 0.0
O59 O 0.08247 0.98932 0.59143 0.0
O60 O 0.97272 0.05833 0.63931 0.0
C61 C 0.40678 0.9516 0.59146 0.0
C62 C 0.05966 0.03443 0.63329 0.0
Zn63 Zn 0.79566 0.13585 0.84083 0.0
Zn64 Zn 0.90433 0.59886 0.75762 0.0
Zn65 Zn 0.87311 0.44634 0.79827 0.0
C66 C 0.91052 0.50219 0.67954 0.0
C67 C 0.04493 0.55621 0.83048 0.0
O68 O 0.7873 0.3325 0.84141 0.0
O69 O 0.71829 0.22275 0.88929 0.0
C70 C 0.77282 0.24646 0.75555 0.0
O71 O 0.9292 0.45063 0.71884 0.0
O72 O 0.86637 0.57954 0.68533 0.0
O73 O 0.04667 0.58988 0.78551 0.0
O74 O 0.96938 0.5145 0.84624 0.0
O75 O 0.75941 0.1596 0.7664 0.0
O76 O 0.80843 0.30149 0.79073 0.0
O77 O 0.89515 0.30377 0.8258 0.0
O78 O 0.94162 0.16291 0.85099 0.0
C79 C 0.9635 0.2479 0.83943 0.0
O80 O 0.85242 0.57131 0.85226 0.0
O81 O 0.81999 0.68238 0.79556 0.0
C82 C 0.74219 0.30968 0.88328 0.0
C83 C 0.82504 0.65679 0.84145 0.0
Zn84 Zn 0.8489 0.87223 0.95225 0.0
Zn85 Zn 0.38584 0.98099 0.86906 0.0
Zn86 Zn 0.69635 0.90351 0.9116 0.0
C87 C 0.49787 0.81314 0.87047 0.0
C88 C 0.49647 1.00382 0.95434 0.0
O89 O 0.82132 0.92421 0.85761 0.0
O90 O 0.93242 0.95657 0.91431 0.0
C91 C 0.8062 0.73168 0.87938 0.0
O92 O 0.55376 0.88149 0.88409 0.0
O93 O 0.41288 0.83503 0.85891 0.0
O94 O 0.4096 0.01725 0.94348 0.0
O95 O 0.5515 0.96821 0.91915 0.0
O96 O 0.83988 0.72991 0.92436 0.0
O97 O 0.7645 0.80723 0.86363 0.0
O98 O 0.70063 0.84744 -0.00896 0.0
O99 O 0.82959 0.91018 0.02454 0.0
C100 C 0.7522 0.86609 0.03033 0.0
O101 O 0.58249 0.98932 0.86846 0.0
O102 O 0.47274 0.05834 0.82059 0.0
C103 C 0.90681 0.95157 0.86842 0.0
C104 C 0.55968 0.03442 0.8266 0.0
Zn105 Zn 0.40438 0.59889 0.70226 0.0
Zn106 Zn 0.29565 0.13587 0.61907 0.0
Zn107 Zn 0.37312 0.44637 0.66161 0.0
C108 C 0.4635 0.2479 0.62047 0.0
C109 C 0.2728 0.2465 0.70435 0.0
O110 O 0.35242 0.57133 0.60763 0.0
O111 O 0.32005 0.68243 0.66433 0.0
C112 C 0.54496 0.5562 0.6294 0.0
O113 O 0.39515 0.30379 0.6341 0.0
O114 O 0.44161 0.16291 0.60892 0.0
O115 O 0.25939 0.15964 0.69349 0.0
O116 O 0.30843 0.30152 0.66917 0.0
O117 O 0.54671 0.58988 0.67438 0.0
O118 O 0.4694 0.51451 0.61365 0.0
O119 O 0.42919 0.45065 0.74105 0.0
O120 O 0.3664 0.57959 0.77455 0.0
C121 C 0.41052 0.50222 0.78034 0.0
O122 O 0.2873 0.33252 0.61848 0.0
O123 O 0.21829 0.22277 0.5706 0.0
C124 C 0.32507 0.65682 0.61843 0.0
C125 C 0.2422 0.3097 0.57661 0.0
Zn126 Zn 0.14077 0.04562 0.36906 0.0
Zn127 Zn 0.67771 0.15438 0.45225 0.0
Zn128 Zn 0.83026 0.1231 0.4116 0.0
C129 C 0.77441 0.16052 0.53033 0.0
C130 C 0.7204 0.29493 0.37938 0.0
O131 O 0.94411 0.03729 0.36846 0.0
O132 O 0.05387 0.96827 0.32059 0.0
C133 C 0.03013 0.02279 0.45434 0.0
O134 O 0.82597 0.17917 0.49104 0.0
O135 O 0.69702 0.11642 0.52454 0.0
O136 O 0.68673 0.2967 0.42436 0.0
O137 O 0.76211 0.21938 0.36363 0.0
O138 O 0.117 1.00936 0.44348 0.0
O139 O 0.97511 0.0584 0.41915 0.0
O140 O 0.97284 0.14512 0.38409 0.0
O141 O 0.11373 0.19158 0.35891 0.0
C142 C 0.02873 0.21347 0.37047 0.0
O143 O 0.70529 0.10239 0.35761 0.0
O144 O 0.59419 0.07004 0.41431 0.0
C145 C 0.96693 0.99219 0.3266 0.0
C146 C 0.6198 0.07504 0.36842 0.0
Zn147 Zn 0.12223 0.42771 0.20226 0.0
Zn148 Zn 0.23096 0.89074 0.11907 0.0
Zn149 Zn 0.15349 0.58024 0.16161 0.0
C150 C 0.0631 0.7787 0.12047 0.0
C151 C 0.2538 0.7801 0.20435 0.0
O152 O 0.17419 0.45527 0.10763 0.0
O153 O 0.20656 0.34418 0.16433 0.0
C154 C 0.98165 0.4704 0.1294 0.0
O155 O 0.13146 0.72282 0.1341 0.0
O156 O 0.08499 0.86369 0.10892 0.0
O157 O 0.26722 0.86697 0.19349 0.0
O158 O 0.21818 0.72508 0.16917 0.0
O159 O 0.9799 0.43672 0.17438 0.0
O160 O 0.05721 0.5121 0.11365 0.0
O161 O 0.09742 0.57596 0.24105 0.0
O162 O 0.16021 0.44702 0.27455 0.0
C163 C 0.11609 0.52439 0.28034 0.0
O164 O 0.2393 0.69409 0.11848 0.0
O165 O 0.30832 0.80384 0.0706 0.0
C166 C 0.20154 0.36978 0.11843 0.0
C167 C 0.28441 0.71691 0.07661 0.0
Zn168 Zn 0.14082 0.54568 0.59083 0.0
Zn169 Zn 0.67772 0.6544 0.50762 0.0
Zn170 Zn 0.83028 0.62312 0.54827 0.0
C171 C 0.77441 0.66046 0.42955 0.0
C172 C 0.72042 0.79497 0.58048 0.0
O173 O 0.94415 0.53733 0.59142 0.0
O174 O 0.05394 0.46831 0.6393 0.0
C175 C 0.03017 0.52281 0.50555 0.0
O176 O 0.82599 0.67914 0.46883 0.0
O177 O 0.69699 0.61641 0.43533 0.0
O178 O 0.68673 0.79672 0.5355 0.0
O179 O 0.76213 0.71941 0.59623 0.0
O180 O 0.11705 0.50941 0.5164 0.0
O181 O 0.97515 0.55845 0.54073 0.0
O182 O 0.97287 0.64517 0.57579 0.0
O183 O 0.11374 0.69163 0.60098 0.0
C184 C 0.02875 0.71352 0.58942 0.0
O185 O 0.70532 0.60243 0.60226 0.0
O186 O 0.59421 0.57007 0.54557 0.0
C187 C 0.96701 0.49222 0.63328 0.0
C188 C 0.61983 0.57508 0.59146 0.0
Zn189 Zn 0.12228 0.92778 0.75763 0.0
Zn190 Zn 0.23098 0.39082 0.84085 0.0
Zn191 Zn 0.15352 0.08032 0.79828 0.0
C192 C 0.06313 0.27877 0.83943 0.0
C193 C 0.25382 0.28019 0.75556 0.0
O194 O 0.1742 0.95535 0.85227 0.0
O195 O 0.20663 0.84427 0.79557 0.0
C196 C 0.98169 0.97045 0.83049 0.0
O197 O 0.13148 0.22289 0.8258 0.0
O198 O 0.08501 0.36376 0.851 0.0
O199 O 0.26725 0.36706 0.76642 0.0
O200 O 0.2182 0.22517 0.79074 0.0
O201 O 0.97994 0.93677 0.78551 0.0
O202 O 0.05723 1.01216 0.84624 0.0
O203 O 0.09746 0.07603 0.71884 0.0
O204 O 0.16024 0.94706 0.68534 0.0
C205 C 0.11615 0.02445 0.67956 0.0
O206 O 0.23932 0.19416 0.84143 0.0
O207 O 0.30835 0.30393 0.88932 0.0
C208 C 0.20158 0.86987 0.84147 0.0
C209 C 0.28443 0.21701 0.88329 0.0
Zn210 Zn 0.84889 0.37221 0.00762 0.0
Zn211 Zn 0.38578 0.48093 0.09083 0.0
Zn212 Zn 0.69632 0.40349 0.04827 0.0
C213 C 0.49786 0.31309 0.08942 0.0
C214 C 0.49643 0.5038 0.00555 0.0
O215 O 0.82129 0.42418 0.10226 0.0
O216 O 0.9324 0.45654 0.04557 0.0
C217 C 0.80619 0.23164 0.08048 0.0
O218 O 0.55374 0.38144 0.07579 0.0
O219 O 0.41287 0.33497 0.10098 0.0
O220 O 0.40956 0.5172 0.0164 0.0
O221 O 0.55146 0.46816 0.04073 0.0
O222 O 0.83987 0.22989 0.0355 0.0
O223 O 0.76448 0.30719 0.09623 0.0
O224 O 0.70061 0.34747 0.96883 0.0
O225 O 0.82961 0.4102 0.93533 0.0
C226 C 0.7522 0.36615 0.92955 0.0
O227 O 0.58246 0.48928 0.09142 0.0
O228 O 0.47266 0.5583 0.1393 0.0
C229 C 0.90678 0.45153 0.09146 0.0
C230 C 0.5596 0.53439 0.13328 0.0
Zn231 Zn 0.40433 0.09883 0.25763 0.0
Zn232 Zn 0.29563 0.63579 0.34085 0.0
Zn233 Zn 0.37309 0.94629 0.29828 0.0
C234 C 0.46348 0.74783 0.33943 0.0
C235 C 0.27278 0.74641 0.25556 0.0
O236 O 0.3524 0.07125 0.35227 0.0
O237 O 0.31998 0.18233 0.29557 0.0
C238 C 0.54492 0.05616 0.33049 0.0
O239 O 0.39512 0.80372 0.3258 0.0
O240 O 0.4416 0.66285 0.351 0.0
O241 O 0.25936 0.65955 0.26642 0.0
O242 O 0.3084 0.80144 0.29074 0.0
O243 O 0.54667 0.08984 0.28551 0.0
O244 O 0.46937 0.01445 0.34624 0.0
O245 O 0.42914 0.95058 0.21884 0.0
O246 O 0.36636 0.07955 0.18534 0.0
C247 C 0.41045 1.00216 0.17956 0.0
O248 O 0.28728 0.83245 0.34143 0.0
O249 O 0.21826 0.72268 0.38932 0.0
C250 C 0.32503 0.15673 0.34147 0.0
C251 C 0.24217 0.8096 0.38329 0.0
Zn252 Zn 0.34893 0.37217 0.45226 0.0
Zn253 Zn 0.88581 0.48094 0.36907 0.0
Zn254 Zn 0.19635 0.40348 0.41161 0.0
C255 C 0.99786 0.31309 0.37048 0.0
C256 C 0.99647 0.5038 0.45434 0.0
O257 O 0.32131 0.42418 0.35762 0.0
O258 O 0.43245 0.45647 0.41431 0.0
C259 C 0.30619 0.23162 0.3794 0.0
O260 O 0.05375 0.38144 0.3841 0.0
O261 O 0.91287 0.33499 0.35892 0.0
O262 O 0.90959 0.51721 0.44349 0.0
O263 O 0.05149 0.46816 0.41916 0.0
O264 O 0.33987 0.22985 0.42438 0.0
O265 O 0.26449 0.30717 0.36365 0.0
O266 O 0.20064 0.34748 0.49106 0.0
O267 O 0.32966 0.41016 0.52455 0.0
C268 C 0.25223 0.36615 0.53034 0.0
O269 O 0.08248 0.48928 0.36847 0.0
O270 O 0.97268 0.5583 0.32059 0.0
C271 C 0.40681 0.4515 0.36842 0.0
C272 C 0.05962 0.53438 0.32661 0.0
Zn273 Zn 0.90437 0.09886 0.20225 0.0
Zn274 Zn 0.79561 0.63581 0.11905 0.0
Zn275 Zn 0.8731 0.94631 0.1616 0.0
C276 C 0.96348 0.74784 0.12047 0.0
C277 C 0.77277 0.74645 0.20433 0.0
O278 O 0.8524 0.07128 0.10761 0.0
O279 O 0.82005 0.18238 0.16431 0.0
C280 C 0.04494 0.05616 0.12939 0.0
O281 O 0.89513 0.80373 0.13409 0.0
O282 O 0.94158 0.66286 0.10891 0.0
O283 O 0.75934 0.65959 0.19347 0.0
O284 O 0.8084 0.80147 0.16915 0.0
O285 O 0.0467 0.08984 0.17437 0.0
O286 O 0.96939 0.01445 0.11364 0.0
O287 O 0.92913 0.9506 0.24105 0.0
O288 O 0.86639 0.0796 0.27455 0.0
C289 C 0.91045 1.00219 0.28033 0.0
O290 O 0.78729 0.83247 0.11846 0.0
O291 O 0.71826 0.7227 0.07058 0.0
C292 C 0.82506 0.15677 0.11841 0.0
C293 C 0.74219 0.80962 0.0766 0.0
Zn294 Zn 0.17768 0.65444 0.95226 0.0
Zn295 Zn 0.6408 0.54567 0.86907 0.0
Zn296 Zn 0.33026 0.62313 0.91161 0.0
C297 C 0.52874 0.71352 0.87048 0.0
C298 C 0.53014 0.52281 0.95434 0.0
O299 O 0.2053 0.60243 0.85762 0.0
O300 O 0.09416 0.57014 0.91431 0.0
C301 C 0.22042 0.79499 0.8794 0.0
O302 O 0.47285 0.64517 0.8841 0.0
O303 O 0.61373 0.69162 0.85892 0.0
O304 O 0.61701 0.5094 0.94349 0.0
O305 O 0.47512 0.55845 0.91916 0.0
O306 O 0.18673 0.79676 0.92438 0.0
O307 O 0.26212 0.71943 0.86365 0.0
O308 O 0.32597 0.67913 -0.00894 0.0
O309 O 0.19695 0.61644 0.02455 0.0
C310 C 0.27438 0.66045 0.03034 0.0
O311 O 0.44412 0.53733 0.86847 0.0
O312 O 0.55392 0.46831 0.82059 0.0
C313 C 0.1198 0.57511 0.86842 0.0
C314 C 0.46699 0.49222 0.82661 0.0
Zn315 Zn 0.62224 0.92774 0.70225 0.0
Zn316 Zn 0.73099 0.3908 0.61905 0.0
Zn317 Zn 0.65351 0.08029 0.6616 0.0
C318 C 0.56313 0.27877 0.62047 0.0
C319 C 0.75384 0.28015 0.70433 0.0
O320 O 0.6742 0.95533 0.60761 0.0
O321 O 0.70656 0.84422 0.66431 0.0
C322 C 0.48167 0.97045 0.62939 0.0
O323 O 0.63148 0.22287 0.63409 0.0
O324 O 0.58502 0.36375 0.60891 0.0
O325 O 0.76727 0.36702 0.69347 0.0
O326 O 0.71821 0.22513 0.66915 0.0
O327 O 0.47991 0.93677 0.67437 0.0
O328 O 0.55722 1.01215 0.61364 0.0
O329 O 0.59748 0.076 0.74105 0.0
O330 O 0.66022 0.94701 0.77455 0.0
C331 C 0.61616 0.02442 0.78033 0.0
O332 O 0.73932 0.19413 0.61846 0.0
O333 O 0.80835 0.30391 0.57058 0.0
C334 C 0.70155 0.86984 0.61841 0.0
C335 C 0.78442 0.21699 0.5766 0.0
loop_
_geom_bond_atom_site_label_1
_geom_bond_atom_site_label_2
_geom_bond_distance
_geom_bond_site_symmetry_2
_ccdc_geom_bond_type
Zn0 O6 1.920 . S
Zn0 O12 1.898 1_545 S
Zn0 O15 1.905 . S
Zn1 O9 1.905 1_554 S
Zn1 O10 1.898 . S
Zn1 O18 1.920 . S
Zn2 O5 2.080 . S
Zn2 O8 2.114 . S
Zn2 O11 2.120 . S
Zn2 O13 2.120 . S
Zn2 O14 2.114 . S
Zn2 O17 2.080 . S
C3 O8 1.166 1_556 S
C3 O9 1.182 . S
C4 O10 1.167 . S
C4 O11 1.299 . S
O5 Zn2 2.080 . S
O5 C19 1.305 . S
O6 Zn0 1.920 . S
O6 C19 1.234 . S
C7 O12 1.167 . S
C7 O13 1.299 1_565 S
O8 Zn2 2.114 . S
O8 C3 1.166 1_554 S
O9 Zn1 1.905 1_556 S
O9 C3 1.182 . S
O10 Zn1 1.898 . S
O10 C4 1.167 . S
O11 Zn2 2.120 . S
O11 C4 1.299 . S
O12 Zn0 1.898 1_565 S
O12 C7 1.167 . S
O13 Zn2 2.120 . S
O13 C7 1.299 1_545 S
O14 Zn2 2.114 . S
O14 C16 1.166 . S
O15 Zn0 1.905 . S
O15 C16 1.182 . S
C16 O14 1.166 . S
C16 O15 1.182 . S
O17 Zn2 2.080 . S
O17 C20 1.305 . S
O18 Zn1 1.920 . S
O18 C20 1.234 . S
C19 O5 1.305 . S
C19 O6 1.234 . S
C20 O17 1.305 . S
C20 O18 1.234 . S
Zn21 O27 1.920 . S
Zn21 O33 1.898 . S
Zn21 O36 1.905 . S
Zn22 O30 1.905 . S
Zn22 O31 1.898 . S
Zn22 O39 1.920 . S
Zn23 O26 2.080 . S
Zn23 O29 2.114 . S
Zn23 O32 2.120 . S
Zn23 O34 2.120 . S
Zn23 O35 2.114 . S
Zn23 O38 2.080 . S
C24 O29 1.166 . S
C24 O30 1.182 . S
C25 O31 1.167 . S
C25 O32 1.299 . S
O26 Zn23 2.080 . S
O26 C40 1.305 . S
O27 Zn21 1.920 . S
O27 C40 1.234 . S
C28 O33 1.167 . S
C28 O34 1.299 . S
O29 Zn23 2.114 . S
O29 C24 1.166 . S
O30 Zn22 1.905 . S
O30 C24 1.182 . S
O31 Zn22 1.898 . S
O31 C25 1.167 . S
O32 Zn23 2.120 . S
O32 C25 1.299 . S
O33 Zn21 1.898 . S
O33 C28 1.167 . S
O34 Zn23 2.120 . S
O34 C28 1.299 . S
O35 Zn23 2.114 . S
O35 C37 1.166 . S
O36 Zn21 1.905 . S
O36 C37 1.182 . S
C37 O35 1.166 . S
C37 O36 1.182 . S
O38 Zn23 2.080 . S
O38 C41 1.305 . S
O39 Zn22 1.920 . S
O39 C41 1.234 . S
C40 O26 1.305 . S
C40 O27 1.234 . S
C41 O38 1.305 . S
C41 O39 1.234 . S
Zn42 O48 1.920 . S
Zn42 O54 1.898 . S
Zn42 O57 1.905 . S
Zn43 O51 1.905 . S
Zn43 O52 1.898 1_565 S
Zn43 O60 1.920 1_655 S
Zn44 O47 2.080 . S
Zn44 O50 2.114 . S
Zn44 O53 2.120 . S
Zn44 O55 2.120 . S
Zn44 O56 2.114 . S
Zn44 O59 2.080 . S
C45 O50 1.166 1_655 S
C45 O51 1.182 . S
C46 O52 1.167 1_455 S
C46 O53 1.299 1_545 S
O47 Zn44 2.080 . S
O47 C61 1.305 . S
O48 Zn42 1.920 . S
O48 C61 1.234 . S
C49 O54 1.167 . S
C49 O55 1.299 . S
O50 Zn44 2.114 . S
O50 C45 1.166 1_455 S
O51 Zn43 1.905 . S
O51 C45 1.182 . S
O52 Zn43 1.898 1_545 S
O52 C46 1.167 1_655 S
O53 Zn44 2.120 . S
O53 C46 1.299 1_565 S
O54 Zn42 1.898 . S
O54 C49 1.167 . S
O55 Zn44 2.120 . S
O55 C49 1.299 . S
O56 Zn44 2.114 . S
O56 C58 1.166 . S
O57 Zn42 1.905 . S
O57 C58 1.182 . S
C58 O56 1.166 . S
C58 O57 1.182 . S
O59 Zn44 2.080 . S
O59 C62 1.305 . S
O60 Zn43 1.920 1_455 S
O60 C62 1.234 . S
C61 O47 1.305 . S
C61 O48 1.234 . S
C62 O59 1.305 . S
C62 O60 1.234 . S
Zn63 O69 1.920 . S
Zn63 O75 1.898 . S
Zn63 O78 1.905 . S
Zn64 O72 1.905 . S
Zn64 O73 1.898 1_655 S
Zn64 O81 1.920 . S
Zn65 O68 2.080 . S
Zn65 O71 2.114 . S
Zn65 O74 2.120 . S
Zn65 O76 2.120 . S
Zn65 O77 2.114 . S
Zn65 O80 2.080 . S
C66 O71 1.166 . S
C66 O72 1.182 . S
C67 O73 1.167 . S
C67 O74 1.299 1_455 S
O68 Zn65 2.080 . S
O68 C82 1.305 . S
O69 Zn63 1.920 . S
O69 C82 1.234 . S
C70 O75 1.167 . S
C70 O76 1.299 . S
O71 Zn65 2.114 . S
O71 C66 1.166 . S
O72 Zn64 1.905 . S
O72 C66 1.182 . S
O73 Zn64 1.898 1_455 S
O73 C67 1.167 . S
O74 Zn65 2.120 . S
O74 C67 1.299 1_655 S
O75 Zn63 1.898 . S
O75 C70 1.167 . S
O76 Zn65 2.120 . S
O76 C70 1.299 . S
O77 Zn65 2.114 . S
O77 C79 1.166 . S
O78 Zn63 1.905 . S
O78 C79 1.182 . S
C79 O77 1.166 . S
C79 O78 1.182 . S
O80 Zn65 2.080 . S
O80 C83 1.305 . S
O81 Zn64 1.920 . S
O81 C83 1.234 . S
C82 O68 1.305 . S
C82 O69 1.234 . S
C83 O80 1.305 . S
C83 O81 1.234 . S
Zn84 O90 1.920 . S
Zn84 O96 1.898 . S
Zn84 O99 1.905 1_556 S
Zn85 O93 1.905 . S
Zn85 O94 1.898 1_565 S
Zn85 O102 1.920 . S
Zn86 O89 2.080 . S
Zn86 O92 2.114 . S
Zn86 O95 2.120 . S
Zn86 O97 2.120 . S
Zn86 O98 2.114 . S
Zn86 O101 2.080 . S
C87 O92 1.166 . S
C87 O93 1.182 . S
C88 O94 1.167 . S
C88 O95 1.299 1_545 S
O89 Zn86 2.080 . S
O89 C103 1.305 . S
O90 Zn84 1.920 . S
O90 C103 1.234 . S
C91 O96 1.167 . S
C91 O97 1.299 . S
O92 Zn86 2.114 . S
O92 C87 1.166 . S
O93 Zn85 1.905 . S
O93 C87 1.182 . S
O94 Zn85 1.898 1_545 S
O94 C88 1.167 . S
O95 Zn86 2.120 . S
O95 C88 1.299 1_565 S
O96 Zn84 1.898 . S
O96 C91 1.167 . S
O97 Zn86 2.120 . S
O97 C91 1.299 . S
O98 Zn86 2.114 . S
O98 C100 1.166 1_556 S
O99 Zn84 1.905 1_554 S
O99 C100 1.182 . S
C100 O98 1.166 1_554 S
C100 O99 1.182 . S
O101 Zn86 2.080 . S
O101 C104 1.305 . S
O102 Zn85 1.920 . S
O102 C104 1.234 . S
C103 O89 1.305 . S
C103 O90 1.234 . S
C104 O101 1.305 . S
C104 O102 1.234 . S
Zn105 O111 1.920 . S
Zn105 O117 1.898 . S
Zn105 O120 1.905 . S
Zn106 O114 1.905 . S
Zn106 O115 1.898 . S
Zn106 O123 1.920 . S
Zn107 O110 2.080 . S
Zn107 O113 2.114 . S
Zn107 O116 2.120 . S
Zn107 O118 2.120 . S
Zn107 O119 2.114 . S
Zn107 O122 2.080 . S
C108 O113 1.166 . S
C108 O114 1.182 . S
C109 O115 1.167 . S
C109 O116 1.299 . S
O110 Zn107 2.080 . S
O110 C124 1.305 . S
O111 Zn105 1.920 . S
O111 C124 1.234 . S
C112 O117 1.167 . S
C112 O118 1.299 . S
O113 Zn107 2.114 . S
O113 C108 1.166 . S
O114 Zn106 1.905 . S
O114 C108 1.182 . S
O115 Zn106 1.898 . S
O115 C109 1.167 . S
O116 Zn107 2.120 . S
O116 C109 1.299 . S
O117 Zn105 1.898 . S
O117 C112 1.167 . S
O118 Zn107 2.120 . S
O118 C112 1.299 . S
O119 Zn107 2.114 . S
O119 C121 1.166 . S
O120 Zn105 1.905 . S
O120 C121 1.182 . S
C121 O119 1.166 . S
C121 O120 1.182 . S
O122 Zn107 2.080 . S
O122 C125 1.305 . S
O123 Zn106 1.920 . S
O123 C125 1.234 . S
C124 O110 1.305 . S
C124 O111 1.234 . S
C125 O122 1.305 . S
C125 O123 1.234 . S
Zn126 O132 1.920 1_455 S
Zn126 O138 1.898 1_545 S
Zn126 O141 1.905 . S
Zn127 O135 1.905 . S
Zn127 O136 1.898 . S
Zn127 O144 1.920 . S
Zn128 O131 2.080 . S
Zn128 O134 2.114 . S
Zn128 O137 2.120 . S
Zn128 O139 2.120 . S
Zn128 O140 2.114 . S
Zn128 O143 2.080 . S
C129 O134 1.166 . S
C129 O135 1.182 . S
C130 O136 1.167 . S
C130 O137 1.299 . S
O131 Zn128 2.080 . S
O131 C145 1.305 . S
O132 Zn126 1.920 1_655 S
O132 C145 1.234 . S
C133 O138 1.167 1_655 S
C133 O139 1.299 1_565 S
O134 Zn128 2.114 . S
O134 C129 1.166 . S
O135 Zn127 1.905 . S
O135 C129 1.182 . S
O136 Zn127 1.898 . S
O136 C130 1.167 . S
O137 Zn128 2.120 . S
O137 C130 1.299 . S
O138 Zn126 1.898 1_565 S
O138 C133 1.167 1_455 S
O139 Zn128 2.120 . S
O139 C133 1.299 1_545 S
O140 Zn128 2.114 . S
O140 C142 1.166 1_655 S
O141 Zn126 1.905 . S
O141 C142 1.182 . S
C142 O140 1.166 1_455 S
C142 O141 1.182 . S
O143 Zn128 2.080 . S
O143 C146 1.305 . S
O144 Zn127 1.920 . S
O144 C146 1.234 . S
C145 O131 1.305 . S
C145 O132 1.234 . S
C146 O143 1.305 . S
C146 O144 1.234 . S
Zn147 O153 1.920 . S
Zn147 O159 1.898 1_455 S
Zn147 O162 1.905 . S
Zn148 O156 1.905 . S
Zn148 O157 1.898 . S
Zn148 O165 1.920 . S
Zn149 O152 2.080 . S
Zn149 O155 2.114 . S
Zn149 O158 2.120 . S
Zn149 O160 2.120 . S
Zn149 O161 2.114 . S
Zn149 O164 2.080 . S
C150 O155 1.166 . S
C150 O156 1.182 . S
C151 O157 1.167 . S
C151 O158 1.299 . S
O152 Zn149 2.080 . S
O152 C166 1.305 . S
O153 Zn147 1.920 . S
O153 C166 1.234 . S
C154 O159 1.167 . S
C154 O160 1.299 1_655 S
O155 Zn149 2.114 . S
O155 C150 1.166 . S
O156 Zn148 1.905 . S
O156 C150 1.182 . S
O157 Zn148 1.898 . S
O157 C151 1.167 . S
O158 Zn149 2.120 . S
O158 C151 1.299 . S
O159 Zn147 1.898 1_655 S
O159 C154 1.167 . S
O160 Zn149 2.120 . S
O160 C154 1.299 1_455 S
O161 Zn149 2.114 . S
O161 C163 1.166 . S
O162 Zn147 1.905 . S
O162 C163 1.182 . S
C163 O161 1.166 . S
C163 O162 1.182 . S
O164 Zn149 2.080 . S
O164 C167 1.305 . S
O165 Zn148 1.920 . S
O165 C167 1.234 . S
C166 O152 1.305 . S
C166 O153 1.234 . S
C167 O164 1.305 . S
C167 O165 1.234 . S
Zn168 O174 1.920 1_455 S
Zn168 O180 1.898 . S
Zn168 O183 1.905 . S
Zn169 O177 1.905 . S
Zn169 O178 1.898 . S
Zn169 O186 1.920 . S
Zn170 O173 2.080 . S
Zn170 O176 2.114 . S
Zn170 O179 2.120 . S
Zn170 O181 2.120 . S
Zn170 O182 2.114 . S
Zn170 O185 2.080 . S
C171 O176 1.166 . S
C171 O177 1.182 . S
C172 O178 1.167 . S
C172 O179 1.299 . S
O173 Zn170 2.080 . S
O173 C187 1.305 . S
O174 Zn168 1.920 1_655 S
O174 C187 1.234 . S
C175 O180 1.167 1_655 S
C175 O181 1.299 . S
O176 Zn170 2.114 . S
O176 C171 1.166 . S
O177 Zn169 1.905 . S
O177 C171 1.182 . S
O178 Zn169 1.898 . S
O178 C172 1.167 . S
O179 Zn170 2.120 . S
O179 C172 1.299 . S
O180 Zn168 1.898 . S
O180 C175 1.167 1_455 S
O181 Zn170 2.120 . S
O181 C175 1.299 . S
O182 Zn170 2.114 . S
O182 C184 1.166 1_655 S
O183 Zn168 1.905 . S
O183 C184 1.182 . S
C184 O182 1.166 1_455 S
C184 O183 1.182 . S
O185 Zn170 2.080 . S
O185 C188 1.305 . S
O186 Zn169 1.920 . S
O186 C188 1.234 . S
C187 O173 1.305 . S
C187 O174 1.234 . S
C188 O185 1.305 . S
C188 O186 1.234 . S
Zn189 O195 1.920 . S
Zn189 O201 1.898 1_455 S
Zn189 O204 1.905 . S
Zn190 O198 1.905 . S
Zn190 O199 1.898 . S
Zn190 O207 1.920 . S
Zn191 O194 2.080 1_545 S
Zn191 O197 2.114 . S
Zn191 O200 2.120 . S
Zn191 O202 2.120 . S
Zn191 O203 2.114 . S
Zn191 O206 2.080 . S
C192 O197 1.166 . S
C192 O198 1.182 . S
C193 O199 1.167 . S
C193 O200 1.299 . S
O194 Zn191 2.080 1_565 S
O194 C208 1.305 . S
O195 Zn189 1.920 . S
O195 C208 1.234 . S
C196 O201 1.167 . S
C196 O202 1.299 1_665 S
O197 Zn191 2.114 . S
O197 C192 1.166 . S
O198 Zn190 1.905 . S
O198 C192 1.182 . S
O199 Zn190 1.898 . S
O199 C193 1.167 . S
O200 Zn191 2.120 . S
O200 C193 1.299 . S
O201 Zn189 1.898 1_655 S
O201 C196 1.167 . S
O202 Zn191 2.120 . S
O202 C196 1.299 1_445 S
O203 Zn191 2.114 . S
O203 C205 1.166 1_545 S
O204 Zn189 1.905 . S
O204 C205 1.182 . S
C205 O203 1.166 1_565 S
C205 O204 1.182 . S
O206 Zn191 2.080 . S
O206 C209 1.305 . S
O207 Zn190 1.920 . S
O207 C209 1.234 . S
C208 O194 1.305 . S
C208 O195 1.234 . S
C209 O206 1.305 . S
C209 O207 1.234 . S
Zn210 O216 1.920 . S
Zn210 O222 1.898 . S
Zn210 O225 1.905 1_554 S
Zn211 O219 1.905 . S
Zn211 O220 1.898 . S
Zn211 O228 1.920 . S
Zn212 O215 2.080 . S
Zn212 O218 2.114 . S
Zn212 O221 2.120 . S
Zn212 O223 2.120 . S
Zn212 O224 2.114 . S
Zn212 O227 2.080 . S
C213 O218 1.166 . S
C213 O219 1.182 . S
C214 O220 1.167 . S
C214 O221 1.299 . S
O215 Zn212 2.080 . S
O215 C229 1.305 . S
O216 Zn210 1.920 . S
O216 C229 1.234 . S
C217 O222 1.167 . S
C217 O223 1.299 . S
O218 Zn212 2.114 . S
O218 C213 1.166 . S
O219 Zn211 1.905 . S
O219 C213 1.182 . S
O220 Zn211 1.898 . S
O220 C214 1.167 . S
O221 Zn212 2.120 . S
O221 C214 1.299 . S
O222 Zn210 1.898 . S
O222 C217 1.167 . S
O223 Zn212 2.120 . S
O223 C217 1.299 . S
O224 Zn212 2.114 . S
O224 C226 1.166 1_554 S
O225 Zn210 1.905 1_556 S
O225 C226 1.182 . S
C226 O224 1.166 1_556 S
C226 O225 1.182 . S
O227 Zn212 2.080 . S
O227 C230 1.305 . S
O228 Zn211 1.920 . S
O228 C230 1.234 . S
C229 O215 1.305 . S
C229 O216 1.234 . S
C230 O227 1.305 . S
C230 O228 1.234 . S
Zn231 O237 1.920 . S
Zn231 O243 1.898 . S
Zn231 O246 1.905 . S
Zn232 O240 1.905 . S
Zn232 O241 1.898 . S
Zn232 O249 1.920 . S
Zn233 O236 2.080 1_565 S
Zn233 O239 2.114 . S
Zn233 O242 2.120 . S
Zn233 O244 2.120 . S
Zn233 O245 2.114 . S
Zn233 O248 2.080 . S
C234 O239 1.166 . S
C234 O240 1.182 . S
C235 O241 1.167 . S
C235 O242 1.299 . S
O236 Zn233 2.080 1_545 S
O236 C250 1.305 . S
O237 Zn231 1.920 . S
O237 C250 1.234 . S
C238 O243 1.167 . S
C238 O244 1.299 1_545 S
O239 Zn233 2.114 . S
O239 C234 1.166 . S
O240 Zn232 1.905 . S
O240 C234 1.182 . S
O241 Zn232 1.898 . S
O241 C235 1.167 . S
O242 Zn233 2.120 . S
O242 C235 1.299 . S
O243 Zn231 1.898 . S
O243 C238 1.167 . S
O244 Zn233 2.120 . S
O244 C238 1.299 1_565 S
O245 Zn233 2.114 . S
O245 C247 1.166 1_565 S
O246 Zn231 1.905 . S
O246 C247 1.182 . S
C247 O245 1.166 1_545 S
C247 O246 1.182 . S
O248 Zn233 2.080 . S
O248 C251 1.305 . S
O249 Zn232 1.920 . S
O249 C251 1.234 . S
C250 O236 1.305 . S
C250 O237 1.234 . S
C251 O248 1.305 . S
C251 O249 1.234 . S
Zn252 O258 1.920 . S
Zn252 O264 1.898 . S
Zn252 O267 1.905 . S
Zn253 O261 1.905 . S
Zn253 O262 1.898 . S
Zn253 O270 1.920 1_655 S
Zn254 O257 2.080 . S
Zn254 O260 2.114 . S
Zn254 O263 2.120 . S
Zn254 O265 2.120 . S
Zn254 O266 2.114 . S
Zn254 O269 2.080 . S
C255 O260 1.166 1_655 S
C255 O261 1.182 . S
C256 O262 1.167 1_455 S
C256 O263 1.299 . S
O257 Zn254 2.080 . S
O257 C271 1.305 . S
O258 Zn252 1.920 . S
O258 C271 1.234 . S
C259 O264 1.167 . S
C259 O265 1.299 . S
O260 Zn254 2.114 . S
O260 C255 1.166 1_455 S
O261 Zn253 1.905 . S
O261 C255 1.182 . S
O262 Zn253 1.898 . S
O262 C256 1.167 1_655 S
O263 Zn254 2.120 . S
O263 C256 1.299 . S
O264 Zn252 1.898 . S
O264 C259 1.167 . S
O265 Zn254 2.120 . S
O265 C259 1.299 . S
O266 Zn254 2.114 . S
O266 C268 1.166 . S
O267 Zn252 1.905 . S
O267 C268 1.182 . S
C268 O266 1.166 . S
C268 O267 1.182 . S
O269 Zn254 2.080 . S
O269 C272 1.305 . S
O270 Zn253 1.920 1_455 S
O270 C272 1.234 . S
C271 O257 1.305 . S
C271 O258 1.234 . S
C272 O269 1.305 . S
C272 O270 1.234 . S
Zn273 O279 1.920 . S
Zn273 O285 1.898 1_655 S
Zn273 O288 1.905 . S
Zn274 O282 1.905 . S
Zn274 O283 1.898 . S
Zn274 O291 1.920 . S
Zn275 O278 2.080 1_565 S
Zn275 O281 2.114 . S
Zn275 O284 2.120 . S
Zn275 O286 2.120 . S
Zn275 O287 2.114 . S
Zn275 O290 2.080 . S
C276 O281 1.166 . S
C276 O282 1.182 . S
C277 O283 1.167 . S
C277 O284 1.299 . S
O278 Zn275 2.080 1_545 S
O278 C292 1.305 . S
O279 Zn273 1.920 . S
O279 C292 1.234 . S
C280 O285 1.167 . S
C280 O286 1.299 1_445 S
O281 Zn275 2.114 . S
O281 C276 1.166 . S
O282 Zn274 1.905 . S
O282 C276 1.182 . S
O283 Zn274 1.898 . S
O283 C277 1.167 . S
O284 Zn275 2.120 . S
O284 C277 1.299 . S
O285 Zn273 1.898 1_455 S
O285 C280 1.167 . S
O286 Zn275 2.120 . S
O286 C280 1.299 1_665 S
O287 Zn275 2.114 . S
O287 C289 1.166 1_565 S
O288 Zn273 1.905 . S
O288 C289 1.182 . S
C289 O287 1.166 1_545 S
C289 O288 1.182 . S
O290 Zn275 2.080 . S
O290 C293 1.305 . S
O291 Zn274 1.920 . S
O291 C293 1.234 . S
C292 O278 1.305 . S
C292 O279 1.234 . S
C293 O290 1.305 . S
C293 O291 1.234 . S
Zn294 O300 1.920 . S
Zn294 O306 1.898 . S
Zn294 O309 1.905 1_556 S
Zn295 O303 1.905 . S
Zn295 O304 1.898 . S
Zn295 O312 1.920 . S
Zn296 O299 2.080 . S
Zn296 O302 2.114 . S
Zn296 O305 2.120 . S
Zn296 O307 2.120 . S
Zn296 O308 2.114 . S
Zn296 O311 2.080 . S
C297 O302 1.166 . S
C297 O303 1.182 . S
C298 O304 1.167 . S
C298 O305 1.299 . S
O299 Zn296 2.080 . S
O299 C313 1.305 . S
O300 Zn294 1.920 . S
O300 C313 1.234 . S
C301 O306 1.167 . S
C301 O307 1.299 . S
O302 Zn296 2.114 . S
O302 C297 1.166 . S
O303 Zn295 1.905 . S
O303 C297 1.182 . S
O304 Zn295 1.898 . S
O304 C298 1.167 . S
O305 Zn296 2.120 . S
O305 C298 1.299 . S
O306 Zn294 1.898 . S
O306 C301 1.167 . S
O307 Zn296 2.120 . S
O307 C301 1.299 . S
O308 Zn296 2.114 . S
O308 C310 1.166 1_556 S
O309 Zn294 1.905 1_554 S
O309 C310 1.182 . S
C310 O308 1.166 1_554 S
C310 O309 1.182 . S
O311 Zn296 2.080 . S
O311 C314 1.305 . S
O312 Zn295 1.920 . S
O312 C314 1.234 . S
C313 O299 1.305 . S
C313 O300 1.234 . S
C314 O311 1.305 . S
C314 O312 1.234 . S
Zn315 O321 1.920 . S
Zn315 O327 1.898 . S
Zn315 O330 1.905 . S
Zn316 O324 1.905 . S
Zn316 O325 1.898 . S
Zn316 O333 1.920 . S
Zn317 O320 2.080 1_545 S
Zn317 O323 2.114 . S
Zn317 O326 2.120 . S
Zn317 O328 2.120 . S
Zn317 O329 2.114 . S
Zn317 O332 2.080 . S
C318 O323 1.166 . S
C318 O324 1.182 . S
C319 O325 1.167 . S
C319 O326 1.299 . S
O320 Zn317 2.080 1_565 S
O320 C334 1.305 . S
O321 Zn315 1.920 . S
O321 C334 1.234 . S
C322 O327 1.167 . S
C322 O328 1.299 1_565 S
O323 Zn317 2.114 . S
O323 C318 1.166 . S
O324 Zn316 1.905 . S
O324 C318 1.182 . S
O325 Zn316 1.898 . S
O325 C319 1.167 . S
O326 Zn317 2.120 . S
O326 C319 1.299 . S
O327 Zn315 1.898 . S
O327 C322 1.167 . S
O328 Zn317 2.120 . S
O328 C322 1.299 1_545 S
O329 Zn317 2.114 . S
O329 C331 1.166 1_545 S
O330 Zn315 1.905 . S
O330 C331 1.182 . S
C331 O329 1.166 1_565 S
C331 O330 1.182 . S
O332 Zn317 2.080 . S
O332 C335 1.305 . S
O333 Zn316 1.920 . S
O333 C335 1.234 . S
C334 O320 1.305 . S
C334 O321 1.234 . S
C335 O332 1.305 . S
C335 O333 1.234 . S
C16 C213 0.748 . S
C24 C234 0.748 . S
C45 C184 0.748 1_655 S
C192 C79 0.748 1_455 S
C87 C297 0.748 . S
C318 C108 0.748 . S
C255 C142 0.748 1_655 S
C150 C276 0.748 1_455 S
C7 C88 1.985 1_564 S
C25 C277 1.984 . S
C46 C133 1.985 1_445 S
C70 C319 1.984 . S
C109 C193 1.984 . S
C235 C151 1.984 . S
C256 C175 1.984 1_455 S
C214 C298 1.984 1_554 S
C4 C166 1.364 . S
C28 C271 1.364 . S
C49 C124 1.364 . S
C67 C313 1.364 . S
C83 C91 1.364 . S
C112 C188 1.364 . S
C130 C40 1.364 . S
C229 C154 1.364 . S
C172 C334 1.365 . S
C103 C196 1.364 . S
C292 C217 1.365 . S
C146 C238 1.364 . S
C259 C250 1.365 . S
C280 C20 1.364 . S
C208 C301 1.365 . S
C322 C61 1.364 . S
C3 C209 1.035 . S
C230 C37 1.035 . S
C58 C251 1.035 . S
C187 C66 1.035 . S
C293 C100 1.035 . S
C314 C121 1.035 . S
C335 C129 1.035 . S
C272 C163 1.035 . S
C41 C171 1.035 . S
C62 C205 1.035 . S
C82 C226 1.035 . S
C247 C19 1.035 . S
C125 C268 1.035 . S
C145 C289 1.035 . S
C167 C310 1.035 . S
C104 C331 1.035 . S
