# Generated by pormake.
# Topology ume, (4)-cn, num edge types: 1
# Building blocks:
#     Node 0, Type 0, BuildingBlock: QUQFOY_clean_sbu_3, # of connection points: 4
#     Node 1, Type 0, BuildingBlock: QUQFOY_clean_sbu_3, # of connection points: 4
#     Node 2, Type 0, BuildingBlock: QUQFOY_clean_sbu_3, # of connection points: 4
#     Node 3, Type 0, BuildingBlock: QUQFOY_clean_sbu_3, # of connection points: 4
#     Node 4, Type 0, BuildingBlock: QUQFOY_clean_sbu_3, # of connection points: 4
#     Node 5, Type 0, BuildingBlock: QUQFOY_clean_sbu_3, # of connection points: 4
#     Node 6, Type 0, BuildingBlock: QUQFOY_clean_sbu_3, # of connection points: 4
#     Node 7, Type 0, BuildingBlock: QUQFOY_clean_sbu_3, # of connection points: 4
#     Node 8, Type 0, BuildingBlock: QUQFOY_clean_sbu_3, # of connection points: 4
#     Node 9, Type 0, BuildingBlock: QUQFOY_clean_sbu_3, # of connection points: 4
#     Node 10, Type 0, BuildingBlock: QUQFOY_clean_sbu_3, # of connection points: 4
#     Node 11, Type 0, BuildingBlock: QUQFOY_clean_sbu_3, # of connection points: 4
#     Node 12, Type 0, BuildingBlock: QUQFOY_clean_sbu_3, # of connection points: 4
#     Node 13, Type 0, BuildingBlock: QUQFOY_clean_sbu_3, # of connection points: 4
#     Node 14, Type 0, BuildingBlock: QUQFOY_clean_sbu_3, # of connection points: 4
#     Node 15, Type 0, BuildingBlock: QUQFOY_clean_sbu_3, # of connection points: 4
#     Edge 16, Type (0, 0), BuildingBlock: CIFDUS_clean_linker_0, # of connection points: 2
#     Edge 17, Type (0, 0), BuildingBlock: CIFDUS_clean_linker_0, # of connection points: 2
#     Edge 18, Type (0, 0), BuildingBlock: CIFDUS_clean_linker_0, # of connection points: 2
#     Edge 19, Type (0, 0), BuildingBlock: CIFDUS_clean_linker_0, # of connection points: 2
#     Edge 20, Type (0, 0), BuildingBlock: CIFDUS_clean_linker_0, # of connection points: 2
#     Edge 21, Type (0, 0), BuildingBlock: CIFDUS_clean_linker_0, # of connection points: 2
#     Edge 22, Type (0, 0), BuildingBlock: CIFDUS_clean_linker_0, # of connection points: 2
#     Edge 23, Type (0, 0), BuildingBlock: CIFDUS_clean_linker_0, # of connection points: 2
#     Edge 24, Type (0, 0), BuildingBlock: CIFDUS_clean_linker_0, # of connection points: 2
#     Edge 25, Type (0, 0), BuildingBlock: CIFDUS_clean_linker_0, # of connection points: 2
#     Edge 26, Type (0, 0), BuildingBlock: CIFDUS_clean_linker_0, # of connection points: 2
#     Edge 27, Type (0, 0), BuildingBlock: CIFDUS_clean_linker_0, # of connection points: 2
#     Edge 28, Type (0, 0), BuildingBlock: CIFDUS_clean_linker_0, # of connection points: 2
#     Edge 29, Type (0, 0), BuildingBlock: CIFDUS_clean_linker_0, # of connection points: 2
#     Edge 30, Type (0, 0), BuildingBlock: CIFDUS_clean_linker_0, # of connection points: 2
#     Edge 31, Type (0, 0), BuildingBlock: CIFDUS_clean_linker_0, # of connection points: 2
#     Edge 32, Type (0, 0), BuildingBlock: CIFDUS_clean_linker_0, # of connection points: 2
#     Edge 33, Type (0, 0), BuildingBlock: CIFDUS_clean_linker_0, # of connection points: 2
#     Edge 34, Type (0, 0), BuildingBlock: CIFDUS_clean_linker_0, # of connection points: 2
#     Edge 35, Type (0, 0), BuildingBlock: CIFDUS_clean_linker_0, # of connection points: 2
#     Edge 36, Type (0, 0), BuildingBlock: CIFDUS_clean_linker_0, # of connection points: 2
#     Edge 37, Type (0, 0), BuildingBlock: CIFDUS_clean_linker_0, # of connection points: 2
#     Edge 38, Type (0, 0), BuildingBlock: CIFDUS_clean_linker_0, # of connection points: 2
#     Edge 39, Type (0, 0), BuildingBlock: CIFDUS_clean_linker_0, # of connection points: 2
#     Edge 40, Type (0, 0), BuildingBlock: CIFDUS_clean_linker_0, # of connection points: 2
#     Edge 41, Type (0, 0), BuildingBlock: CIFDUS_clean_linker_0, # of connection points: 2
#     Edge 42, Type (0, 0), BuildingBlock: CIFDUS_clean_linker_0, # of connection points: 2
#     Edge 43, Type (0, 0), BuildingBlock: CIFDUS_clean_linker_0, # of connection points: 2
#     Edge 44, Type (0, 0), BuildingBlock: CIFDUS_clean_linker_0, # of connection points: 2
#     Edge 45, Type (0, 0), BuildingBlock: CIFDUS_clean_linker_0, # of connection points: 2
#     Edge 46, Type (0, 0), BuildingBlock: CIFDUS_clean_linker_0, # of connection points: 2
#     Edge 47, Type (0, 0), BuildingBlock: CIFDUS_clean_linker_0, # of connection points: 2
# Relax obj value: 0.095
# Max RMSD: 0.141
# Mean RMSD: 0.141
data_MOF--net-ume--node1-QUQFOY_clean_sbu_3--edge1-CIFDUS_clean_linker_0
_symmetry_space_group_name_H-M    P1
_symmetry_Int_Tables_number       1
_symmetry_cell_setting            triclinic
loop_
_symmetry_equiv_pos_as_xyz
'x, y, z'
_cell_length_a     24.677673
_cell_length_b     24.802578
_cell_length_c     102.24001
_cell_angle_alpha  89.900746
_cell_angle_beta   89.902646
_cell_angle_gamma 89.942826
loop_
_atom_site_label
_atom_site_type_symbol
_atom_site_fract_x
_atom_site_fract_y
_atom_site_fract_z
_atom_type_partial_charge
C0 C 0.22021 0.22185 0.26143 0.0
O1 O 0.24887 0.25166 0.26873 0.0
Cd2 Cd 0.28044 0.21538 0.2893 0.0
O3 O 0.2052 0.17579 0.26544 0.0
Cd4 Cd 0.20718 0.11984 0.28501 0.0
C5 C 0.34064 0.0957 0.28054 0.0
O6 O 0.20865 0.18488 0.30354 0.0
O7 O 0.22575 0.10004 0.30715 0.0
O8 O 0.1099 0.12295 0.28257 0.0
C9 C 0.21612 0.14661 0.31166 0.0
O10 O 0.34537 0.14416 0.28446 0.0
C11 C 0.10214 0.07246 0.28278 0.0
O12 O 0.29375 0.07486 0.27904 0.0
O13 O 0.14408 0.04267 0.28362 0.0
C14 C 0.7733 0.73173 0.51556 0.0
O15 O 0.74698 0.7667 0.522 0.0
Cd16 Cd 0.78361 0.79743 0.54264 0.0
O17 O 0.81552 0.71062 0.52041 0.0
Cd18 Cd 0.86892 0.71067 0.54022 0.0
C19 C 0.91118 0.83613 0.53326 0.0
O20 O 0.80574 0.72864 0.55865 0.0
O21 O 0.89191 0.74205 0.56123 0.0
O22 O 0.86336 0.61291 0.54099 0.0
C23 C 0.84507 0.73922 0.56629 0.0
O24 O 0.86413 0.85011 0.53713 0.0
C25 C 0.91398 0.605 0.53992 0.0
O26 O 0.92404 0.78644 0.53253 0.0
O27 O 0.94391 0.64655 0.53903 0.0
C28 C 0.22671 0.25975 0.76202 0.0
O29 O 0.19738 0.23471 0.7702 0.0
Cd30 Cd 0.16864 0.28501 0.78926 0.0
O31 O 0.24146 0.30776 0.76432 0.0
Cd32 Cd 0.24092 0.37923 0.7804 0.0
C33 C 0.10633 0.3972 0.77613 0.0
O34 O 0.24415 0.32558 0.80076 0.0
O35 O 0.22695 0.41124 0.80205 0.0
O36 O 0.33704 0.37613 0.77618 0.0
C37 C 0.23761 0.36725 0.80783 0.0
O38 O 0.10242 0.35182 0.7819 0.0
C39 C 0.34346 0.42598 0.77396 0.0
O40 O 0.15276 0.41735 0.77359 0.0
O41 O 0.30126 0.45548 0.77452 0.0
C42 C 0.73044 0.71461 0.01315 0.0
O43 O 0.75934 0.67932 0.01881 0.0
Cd44 Cd 0.7259 0.64426 0.03944 0.0
O45 O 0.68794 0.73194 0.01869 0.0
Cd46 Cd 0.63899 0.72331 0.03911 0.0
C47 C 0.59998 0.59707 0.03218 0.0
O48 O 0.71069 0.71342 0.05595 0.0
O49 O 0.62708 0.69644 0.0612 0.0
O50 O 0.64128 0.82069 0.03902 0.0
C51 C 0.67511 0.70647 0.06482 0.0
O52 O 0.6485 0.5848 0.03519 0.0
C53 C 0.59043 0.82761 0.03949 0.0
O54 O 0.58516 0.64623 0.032 0.0
O55 O 0.56119 0.78542 0.03976 0.0
C56 C 0.26424 0.24928 0.9347 0.0
O57 O 0.29997 0.22359 0.92832 0.0
Cd58 Cd 0.33352 0.26463 0.90839 0.0
O59 O 0.24536 0.29296 0.93015 0.0
Cd60 Cd 0.25179 0.34916 0.91082 0.0
C61 C 0.37738 0.38831 0.91837 0.0
O62 O 0.26525 0.28687 0.8921 0.0
O63 O 0.28419 0.37169 0.8897 0.0
O64 O 0.15381 0.34611 0.91014 0.0
C65 C 0.27551 0.32623 0.88447 0.0
O66 O 0.39053 0.34173 0.9142 0.0
C67 C 0.14674 0.39666 0.91085 0.0
O68 O 0.32769 0.40177 0.91917 0.0
O69 O 0.189 0.42575 0.9116 0.0
C70 C 0.71108 0.77068 0.18861 0.0
O71 O 0.74453 0.80112 0.18276 0.0
Cd72 Cd 0.7127 0.84326 0.16275 0.0
O73 O 0.66486 0.76231 0.18366 0.0
Cd74 Cd 0.61114 0.78124 0.16448 0.0
C75 C 0.59884 0.91207 0.17198 0.0
O76 O 0.67798 0.7809 0.14639 0.0
O77 O 0.59829 0.81501 0.14294 0.0
O78 O 0.59849 0.68513 0.16467 0.0
C79 C 0.643 0.79856 0.1383 0.0
O80 O 0.64796 0.91486 0.1682 0.0
C81 C 0.54723 0.68574 0.16536 0.0
O82 O 0.57495 0.86663 0.1726 0.0
O83 O 0.52439 0.73176 0.16539 0.0
C84 C 0.27951 0.21675 0.43934 0.0
O85 O 0.24503 0.24657 0.43364 0.0
Cd86 Cd 0.20911 0.21942 0.4127 0.0
O87 O 0.29862 0.1759 0.43349 0.0
Cd88 Cd 0.29418 0.13253 0.41224 0.0
C89 C 0.16849 0.08958 0.41905 0.0
O90 O 0.27528 0.20354 0.39571 0.0
O91 O 0.25578 0.12032 0.39126 0.0
O92 O 0.39219 0.13631 0.4102 0.0
C93 C 0.26016 0.16866 0.38736 0.0
O94 O 0.15498 0.13802 0.41644 0.0
C95 C 0.39915 0.08562 0.41011 0.0
O96 O 0.21827 0.07585 0.41921 0.0
O97 O 0.35691 0.05646 0.41088 0.0
C98 C 0.766 0.76364 0.68909 0.0
O99 O 0.74207 0.73502 0.68061 0.0
Cd100 Cd 0.79139 0.7049 0.66158 0.0
O101 O 0.81438 0.77912 0.68714 0.0
Cd102 Cd 0.88589 0.77759 0.67071 0.0
C103 C 0.90357 0.64404 0.67514 0.0
O104 O 0.83382 0.77856 0.65003 0.0
O105 O 0.91973 0.76018 0.64936 0.0
O106 O 0.8928 0.87426 0.67364 0.0
C107 C 0.87617 0.76975 0.64325 0.0
O108 O 0.85835 0.63949 0.66926 0.0
C109 C 0.94292 0.8746 0.67636 0.0
O110 O 0.92328 0.69037 0.67763 0.0
O111 O 0.9668 0.82918 0.67675 0.0
C112 C 0.75165 0.74952 0.76412 0.0
O113 O 0.77949 0.77092 0.77314 0.0
Cd114 Cd 0.80303 0.71564 0.79175 0.0
O115 O 0.73386 0.70181 0.76544 0.0
Cd116 Cd 0.72692 0.62705 0.78074 0.0
C117 C 0.86115 0.60443 0.77698 0.0
O118 O 0.7251 0.67438 0.80199 0.0
O119 O 0.73837 0.58784 0.80176 0.0
O120 O 0.63058 0.63408 0.77673 0.0
C121 C 0.72992 0.63037 0.8083 0.0
O122 O 0.8661 0.64799 0.78345 0.0
C123 C 0.62311 0.58508 0.77374 0.0
O124 O 0.81433 0.58656 0.77394 0.0
O125 O 0.6648 0.5548 0.7736 0.0
C126 C 0.28777 0.21844 0.01027 0.0
O127 O 0.2583 0.25325 0.01593 0.0
Cd128 Cd 0.28807 0.29111 0.03646 0.0
O129 O 0.32972 0.20047 0.01594 0.0
Cd130 Cd 0.37574 0.20728 0.03686 0.0
C131 C 0.41789 0.3323 0.02966 0.0
O132 O 0.30527 0.22637 0.05364 0.0
O133 O 0.38928 0.24483 0.05788 0.0
O134 O 0.37137 0.11001 0.03905 0.0
C135 C 0.34087 0.24083 0.06192 0.0
O136 O 0.36916 0.34542 0.0323 0.0
C137 C 0.42222 0.10249 0.03897 0.0
O138 O 0.43209 0.28287 0.02959 0.0
O139 O 0.45196 0.14416 0.03803 0.0
C140 C 0.72002 0.76963 0.26425 0.0
O141 O 0.68964 0.73599 0.27004 0.0
Cd142 Cd 0.6488 0.76654 0.29032 0.0
O143 O 0.73003 0.81463 0.26955 0.0
Cd144 Cd 0.71654 0.86538 0.28942 0.0
C145 C 0.58526 0.88506 0.282 0.0
O146 O 0.71171 0.79713 0.30698 0.0
O147 O 0.681 0.87768 0.31087 0.0
O148 O 0.81369 0.86477 0.29069 0.0
C149 C 0.69462 0.83169 0.31522 0.0
O150 O 0.58112 0.83554 0.28518 0.0
C151 C 0.82093 0.91506 0.28945 0.0
O152 O 0.63164 0.90783 0.28178 0.0
O153 O 0.77857 0.94422 0.28844 0.0
C154 C 0.231 0.21681 0.51474 0.0
O155 O 0.25753 0.18092 0.52083 0.0
Cd156 Cd 0.21812 0.14648 0.5409 0.0
O157 O 0.18711 0.23462 0.51952 0.0
Cd158 Cd 0.13134 0.2262 0.53891 0.0
C159 C 0.09376 0.09981 0.53197 0.0
O160 O 0.19745 0.21562 0.55703 0.0
O161 O 0.11266 0.19776 0.56061 0.0
O162 O 0.13315 0.32356 0.53894 0.0
C163 C 0.15937 0.2072 0.56519 0.0
O164 O 0.1413 0.08766 0.5358 0.0
C165 C 0.08226 0.33025 0.53855 0.0
O166 O 0.07935 0.149 0.53116 0.0
O167 O 0.05322 0.28794 0.5383 0.0
C168 C 0.7838 0.78079 0.44017 0.0
O169 O 0.81958 0.75081 0.43501 0.0
Cd170 Cd 0.85667 0.77758 0.41409 0.0
O171 O 0.76652 0.82173 0.43401 0.0
Cd172 Cd 0.77667 0.86434 0.41273 0.0
C173 C 0.90387 0.90508 0.41881 0.0
O174 O 0.78617 0.78659 0.39767 0.0
O175 O 0.80232 0.86697 0.39024 0.0
O176 O 0.67879 0.86381 0.41267 0.0
C177 C 0.79306 0.81768 0.38792 0.0
O178 O 0.91633 0.85595 0.41683 0.0
C179 C 0.67274 0.91423 0.41129 0.0
O180 O 0.85444 0.9197 0.41867 0.0
O181 O 0.71565 0.94243 0.41058 0.0
C182 C 0.24075 0.27002 0.68746 0.0
O183 O 0.26749 0.29889 0.6795 0.0
Cd184 Cd 0.21888 0.33205 0.66057 0.0
O185 O 0.19184 0.25824 0.685 0.0
Cd186 Cd 0.12201 0.26702 0.66857 0.0
C187 C 0.11099 0.40023 0.67372 0.0
O188 O 0.17519 0.26092 0.64808 0.0
O189 O 0.09165 0.28789 0.6471 0.0
O190 O 0.11133 0.1713 0.6721 0.0
C191 C 0.13378 0.27191 0.64116 0.0
O192 O 0.15641 0.4029 0.66782 0.0
C193 C 0.06076 0.17243 0.67426 0.0
O194 O 0.08935 0.35468 0.67612 0.0
O195 O 0.03785 0.21835 0.67391 0.0
C196 C 0.75577 0.70375 0.93723 0.0
O197 O 0.71998 0.73196 0.93154 0.0
Cd198 Cd 0.68318 0.69864 0.91116 0.0
O199 O 0.77396 0.66169 0.93175 0.0
Cd200 Cd 0.76652 0.6125 0.91141 0.0
C201 C 0.64132 0.57138 0.91917 0.0
O202 O 0.74899 0.68041 0.89405 0.0
O203 O 0.73126 0.59624 0.89028 0.0
O204 O 0.86438 0.6161 0.90986 0.0
C205 C 0.73661 0.64374 0.88588 0.0
O206 O 0.62769 0.61926 0.91605 0.0
C207 C 0.87158 0.56548 0.91021 0.0
O208 O 0.69106 0.55765 0.91926 0.0
O209 O 0.82943 0.5362 0.91098 0.0
C210 C 0.26193 0.27885 0.18724 0.0
O211 O 0.23411 0.24975 0.1796 0.0
Cd212 Cd 0.27542 0.21838 0.15954 0.0
O213 O 0.3091 0.29382 0.18392 0.0
Cd214 Cd 0.37123 0.28869 0.16551 0.0
C215 C 0.39016 0.15603 0.17074 0.0
O216 O 0.3129 0.28835 0.14568 0.0
O217 O 0.39805 0.26658 0.14402 0.0
O218 O 0.3786 0.38583 0.16682 0.0
C219 C 0.35378 0.2784 0.13845 0.0
O220 O 0.34307 0.15155 0.16579 0.0
C221 C 0.42945 0.38691 0.16857 0.0
O222 O 0.41102 0.20242 0.17255 0.0
O223 O 0.45364 0.34168 0.16923 0.0
H224 H 0.85197 0.01832 0.28383 0.0
H225 H 0.91522 0.86093 0.29352 0.0
H226 H 0.0075 0.89479 0.29177 0.0
H227 H 0.07083 0.9691 0.28764 0.0
H228 H 0.00814 0.1268 0.27812 0.0
H229 H 0.9156 0.09275 0.27952 0.0
C230 C 0.88596 0.99156 0.28561 0.0
C231 C 0.87656 0.93727 0.28883 0.0
C232 C 0.93926 0.01121 0.28453 0.0
C233 C 0.92115 0.90299 0.29103 0.0
C234 C 0.97408 0.92224 0.29001 0.0
C235 C 0.03693 0.99588 0.28577 0.0
C236 C 0.04646 0.05032 0.28276 0.0
C237 C 0.98368 0.97622 0.28674 0.0
C238 C 0.00201 0.08463 0.28046 0.0
C239 C 0.94898 0.06526 0.28129 0.0
H240 H 0.02001 0.57669 0.53844 0.0
H241 H 0.85898 0.50961 0.54086 0.0
H242 H 0.89659 0.41852 0.54047 0.0
H243 H 0.97544 0.35783 0.53958 0.0
H244 H 0.13628 0.42564 0.53738 0.0
H245 H 0.09844 0.51639 0.53753 0.0
C246 C 0.99312 0.54216 0.53888 0.0
C247 C 0.93684 0.54993 0.53968 0.0
C248 C 0.01497 0.48996 0.53869 0.0
C249 C 0.90253 0.50474 0.54025 0.0
C250 C 0.92397 0.45261 0.54002 0.0
C251 C 0.00215 0.39248 0.53911 0.0
C252 C 0.05854 0.38495 0.53848 0.0
C253 C 0.98015 0.44473 0.53926 0.0
C254 C 0.09268 0.43027 0.5379 0.0
C255 C 0.07112 0.48225 0.53798 0.0
H256 H 0.59223 0.48067 0.77026 0.0
H257 H 0.52919 0.64276 0.77251 0.0
H258 H 0.43675 0.6083 0.77169 0.0
H259 H 0.37355 0.53166 0.77226 0.0
H260 H 0.43697 0.36958 0.77051 0.0
H261 H 0.52902 0.40449 0.7691 0.0
C262 C 0.55829 0.50848 0.77039 0.0
C263 C 0.56769 0.56411 0.77156 0.0
C264 C 0.50507 0.48838 0.7701 0.0
C265 C 0.52318 0.59964 0.7717 0.0
C266 C 0.47019 0.58 0.77126 0.0
C267 C 0.40747 0.50405 0.77141 0.0
C268 C 0.39834 0.44814 0.77163 0.0
C269 C 0.46061 0.52437 0.77076 0.0
C270 C 0.44279 0.41286 0.77048 0.0
C271 C 0.49557 0.43275 0.76968 0.0
H272 H 0.52859 0.07429 0.03863 0.0
H273 H 0.36744 0.0073 0.04078 0.0
H274 H 0.40509 0.9163 0.04127 0.0
H275 H 0.4838 0.85555 0.04073 0.0
H276 H 0.6448 0.92294 0.03853 0.0
H277 H 0.60713 0.0138 0.03843 0.0
C278 C 0.50171 0.0398 0.03925 0.0
C279 C 0.44536 0.04759 0.03965 0.0
C280 C 0.52357 0.98756 0.03949 0.0
C281 C 0.41105 0.00245 0.04045 0.0
C282 C 0.4325 0.95035 0.04072 0.0
C283 C 0.5106 0.89012 0.04025 0.0
C284 C 0.56696 0.88243 0.03961 0.0
C285 C 0.4887 0.9424 0.04018 0.0
C286 C 0.60121 0.92768 0.03901 0.0
C287 C 0.57974 0.97972 0.03895 0.0
H288 H 0.1193 0.50279 0.91022 0.0
H289 H 0.05061 0.34282 0.91118 0.0
H290 H 0.95945 0.38084 0.91094 0.0
H291 H 0.89913 0.45943 0.91056 0.0
H292 H 0.9677 0.61943 0.90944 0.0
H293 H 0.05891 0.58143 0.9096 0.0
C294 C 0.08438 0.47628 0.91039 0.0
C295 C 0.09174 0.42013 0.91074 0.0
C296 C 0.03202 0.49836 0.9102 0.0
C297 C 0.04608 0.38625 0.9109 0.0
C298 C 0.99389 0.40792 0.91077 0.0
C299 C 0.93402 0.48597 0.91032 0.0
C300 C 0.92662 0.54211 0.91 0.0
C301 C 0.98638 0.4639 0.91042 0.0
C302 C 0.97226 0.576 0.90968 0.0
C303 C 0.02447 0.55434 0.90979 0.0
H304 H 0.38701 0.48779 0.16716 0.0
H305 H 0.53846 0.40202 0.17117 0.0
H306 H 0.58785 0.48728 0.17069 0.0
H307 H 0.58822 0.58542 0.16843 0.0
H308 H 0.43719 0.67179 0.16443 0.0
H309 H 0.38725 0.58668 0.16559 0.0
C310 C 0.43082 0.48773 0.168 0.0
C311 C 0.45906 0.4386 0.16915 0.0
C312 C 0.45895 0.53684 0.16764 0.0
C313 C 0.51577 0.43924 0.17026 0.0
C314 C 0.54404 0.48795 0.16996 0.0
C315 C 0.54435 0.58573 0.1678 0.0
C316 C 0.51643 0.63481 0.16625 0.0
C317 C 0.51607 0.53687 0.16851 0.0
C318 C 0.4596 0.63452 0.16558 0.0
C319 C 0.43107 0.5859 0.16625 0.0
H320 H 0.42592 0.97953 0.41082 0.0
H321 H 0.49567 0.13869 0.40813 0.0
H322 H 0.58662 0.09982 0.40798 0.0
H323 H 0.64648 0.0206 0.40915 0.0
H324 H 0.57607 0.86172 0.41205 0.0
H325 H 0.48539 0.90058 0.41156 0.0
C326 C 0.461 0.00572 0.41014 0.0
C327 C 0.45402 0.06186 0.40951 0.0
C328 C 0.51314 0.98318 0.41014 0.0
C329 C 0.49991 0.09527 0.40865 0.0
C330 C 0.55197 0.07311 0.40857 0.0
C331 C 0.61128 0.99452 0.40964 0.0
C332 C 0.61807 0.93841 0.41067 0.0
C333 C 0.55908 0.01712 0.4094 0.0
C334 C 0.57204 0.9051 0.41128 0.0
C335 C 0.5201 0.92724 0.411 0.0
H336 H 0.10202 0.07241 0.67801 0.0
H337 H 0.95081 0.15933 0.67532 0.0
H338 H 0.90073 0.07448 0.67671 0.0
H339 H 0.9004 0.9755 0.67704 0.0
H340 H 0.05185 0.88879 0.67951 0.0
H341 H 0.10142 0.97396 0.67997 0.0
C342 C 0.05807 0.07287 0.67782 0.0
C343 C 0.03015 0.12202 0.67642 0.0
C344 C 0.02966 0.02404 0.67854 0.0
C345 C 0.97324 0.122 0.67634 0.0
C346 C 0.94461 0.07351 0.6771 0.0
C347 C 0.94424 0.97521 0.6778 0.0
C348 C 0.97245 0.92588 0.67811 0.0
C349 C 0.97247 0.02426 0.67795 0.0
C350 C 0.02918 0.9262 0.67921 0.0
C351 C 0.05756 0.97487 0.67943 0.0
H352 H 0.57509 0.9941 0.279 0.0
H353 H 0.48187 0.84694 0.27961 0.0
H354 H 0.39804 0.89862 0.27807 0.0
H355 H 0.35044 0.98601 0.27837 0.0
H356 H 0.44408 0.13294 0.27839 0.0
H357 H 0.52783 0.08105 0.27775 0.0
C358 C 0.53652 0.97325 0.27862 0.0
C359 C 0.53505 0.91666 0.27953 0.0
C360 C 0.48817 0.00326 0.27793 0.0
C361 C 0.48446 0.89047 0.27903 0.0
C362 C 0.43631 0.92001 0.27816 0.0
C363 C 0.38913 0.00667 0.27804 0.0
C364 C 0.39072 0.06335 0.27854 0.0
C365 C 0.43755 0.9765 0.27788 0.0
C366 C 0.44141 0.08936 0.27814 0.0
C367 C 0.48952 0.05971 0.27778 0.0
H368 H 0.89367 0.94313 0.52943 0.0
H369 H 0.02114 0.82407 0.53133 0.0
H370 H 0.08926 0.89528 0.53 0.0
H371 H 0.11239 0.99167 0.53036 0.0
H372 H 0.98454 0.11043 0.52842 0.0
H373 H 0.91694 0.0389 0.52757 0.0
C374 C 0.93636 0.93266 0.52942 0.0
C375 C 0.95223 0.87837 0.53065 0.0
C376 C 0.9753 0.97377 0.52872 0.0
C377 C 0.00773 0.86551 0.53043 0.0
C378 C 0.04675 0.90625 0.52973 0.0
C379 C 0.06978 0.00196 0.52961 0.0
C380 C 0.05364 0.05643 0.52963 0.0
C381 C 0.03098 0.96058 0.52919 0.0
C382 C 0.99824 0.06893 0.52848 0.0
C383 C 0.95945 0.02801 0.52805 0.0
H384 H 0.09557 0.50568 0.77265 0.0
H385 H 0.00367 0.35787 0.7738 0.0
H386 H 0.91919 0.40884 0.7725 0.0
H387 H 0.87102 0.49582 0.77345 0.0
H388 H 0.96325 0.64344 0.77385 0.0
H389 H 0.04748 0.59241 0.77197 0.0
C390 C 0.0571 0.48459 0.77237 0.0
C391 C 0.05603 0.42806 0.7734 0.0
C392 C 0.00848 0.51426 0.77201 0.0
C393 C 0.00571 0.40141 0.77313 0.0
C394 C 0.95729 0.43054 0.7724 0.0
C395 C 0.9095 0.51678 0.77287 0.0
C396 C 0.91083 0.57331 0.77386 0.0
C397 C 0.95808 0.48705 0.7722 0.0
C398 C 0.9611 0.5999 0.77321 0.0
C399 C 0.00936 0.57075 0.77216 0.0
H400 H 0.6188 0.48912 0.02981 0.0
H401 H 0.49059 0.60771 0.02892 0.0
H402 H 0.42335 0.53622 0.02695 0.0
H403 H 0.40037 0.44016 0.02723 0.0
H404 H 0.52821 0.32124 0.02823 0.0
H405 H 0.59605 0.39285 0.02824 0.0
C406 C 0.5762 0.49941 0.02909 0.0
C407 C 0.55986 0.5538 0.02967 0.0
C408 C 0.53758 0.45804 0.02801 0.0
C409 C 0.50444 0.56628 0.02856 0.0
C410 C 0.46586 0.52538 0.02746 0.0
C411 C 0.44307 0.42977 0.02731 0.0
C412 C 0.45904 0.37529 0.02787 0.0
C413 C 0.48189 0.47112 0.02744 0.0
C414 C 0.51464 0.36275 0.02784 0.0
C415 C 0.55353 0.40372 0.02791 0.0
H416 H 0.48583 0.37047 0.92061 0.0
H417 H 0.36543 0.49673 0.92224 0.0
H418 H 0.4368 0.56443 0.92378 0.0
H419 H 0.53318 0.58828 0.92255 0.0
H420 H 0.65358 0.46201 0.92088 0.0
H421 H 0.58233 0.39393 0.92161 0.0
C422 C 0.47512 0.41275 0.92144 0.0
C423 C 0.42031 0.42846 0.92113 0.0
C424 C 0.51637 0.45156 0.92224 0.0
C425 C 0.40724 0.48341 0.9224 0.0
C426 C 0.44806 0.52225 0.92323 0.0
C427 C 0.54394 0.54587 0.92249 0.0
C428 C 0.59868 0.53038 0.92148 0.0
C429 C 0.50275 0.50686 0.92283 0.0
C430 C 0.61182 0.47519 0.92159 0.0
C431 C 0.57106 0.43616 0.92196 0.0
H432 H 0.48986 0.92317 0.175 0.0
H433 H 0.63855 0.01466 0.17412 0.0
H434 H 0.58703 0.09865 0.17505 0.0
H435 H 0.49952 0.14624 0.17391 0.0
H436 H 0.35126 0.05403 0.17365 0.0
H437 H 0.40284 0.9705 0.17548 0.0
C438 C 0.51112 0.96141 0.17521 0.0
C439 C 0.56801 0.96247 0.17439 0.0
C440 C 0.48124 0.00962 0.17544 0.0
C441 C 0.59476 0.01255 0.17466 0.0
C442 C 0.56532 0.06069 0.17516 0.0
C443 C 0.47849 0.10792 0.17447 0.0
C444 C 0.42163 0.10644 0.17354 0.0
C445 C 0.5085 0.05976 0.17522 0.0
C446 C 0.39503 0.05637 0.17422 0.0
C447 C 0.42448 0.0085 0.17526 0.0
H448 H 0.01281 0.88796 0.42086 0.0
H449 H 0.89233 0.0144 0.42066 0.0
H450 H 0.96353 0.08231 0.42162 0.0
H451 H 0.05979 0.10611 0.42105 0.0
H452 H 0.18065 0.98009 0.42115 0.0
H453 H 0.1094 0.91188 0.42183 0.0
C454 C 0.00204 0.93035 0.42112 0.0
C455 C 0.94718 0.94591 0.42056 0.0
C456 C 0.04326 0.96937 0.42162 0.0
C457 C 0.93412 0.0011 0.42102 0.0
C458 C 0.97486 0.04008 0.42155 0.0
C459 C 0.07069 0.06375 0.42133 0.0
C460 C 0.12561 0.04837 0.42092 0.0
C461 C 0.02954 0.0247 0.42162 0.0
C462 C 0.13879 0.99321 0.42141 0.0
C463 C 0.09803 0.9541 0.42176 0.0
H464 H 0.00335 0.41134 0.67868 0.0
H465 H 0.15147 0.50256 0.67509 0.0
H466 H 0.10054 0.58671 0.67696 0.0
H467 H 0.01303 0.63436 0.67719 0.0
H468 H 0.86477 0.54263 0.67906 0.0
H469 H 0.91657 0.4589 0.68045 0.0
C470 C 0.02463 0.44958 0.67854 0.0
C471 C 0.0811 0.45062 0.67667 0.0
C472 C 0.99493 0.49785 0.67921 0.0
C473 C 0.10796 0.5006 0.67642 0.0
C474 C 0.07885 0.54878 0.67747 0.0
C475 C 0.99213 0.59611 0.67817 0.0
C476 C 0.93517 0.59467 0.67797 0.0
C477 C 0.02218 0.54792 0.67852 0.0
C478 C 0.90861 0.54476 0.6791 0.0
C479 C 0.9382 0.49685 0.67988 0.0
H480 H 0.25555 0.2263 0.3274 0.0
H481 H 0.16066 0.08031 0.3274 0.0
H482 H 0.15961 0.07935 0.3512 0.0
H483 H 0.1953 0.11243 0.37165 0.0
H484 H 0.2956 0.25454 0.37251 0.0
H485 H 0.28436 0.26543 0.34875 0.0
C486 C 0.23376 0.19518 0.33269 0.0
C487 C 0.20857 0.15317 0.32579 0.0
C488 C 0.23489 0.19386 0.34646 0.0
C489 C 0.1807 0.11266 0.33261 0.0
C490 C 0.18013 0.11204 0.34618 0.0
C491 C 0.2143 0.14619 0.36667 0.0
C492 C 0.24703 0.18204 0.37369 0.0
C493 C 0.20872 0.15121 0.35316 0.0
C494 C 0.27044 0.22626 0.36722 0.0
C495 C 0.26424 0.23225 0.35366 0.0
H496 H 0.92367 0.76449 0.58321 0.0
H497 H 0.752 0.73271 0.58126 0.0
H498 H 0.74521 0.74283 0.60512 0.0
H499 H 0.79013 0.75656 0.62665 0.0
H500 H 0.96282 0.78459 0.62763 0.0
H501 H 0.96701 0.78027 0.60393 0.0
C502 C 0.88453 0.75989 0.58793 0.0
C503 C 0.83845 0.74755 0.58049 0.0
C504 C 0.88122 0.76503 0.60149 0.0
C505 C 0.78813 0.74206 0.5868 0.0
C506 C 0.78429 0.7478 0.60042 0.0
C507 C 0.82842 0.7622 0.62162 0.0
C508 C 0.87613 0.77061 0.62886 0.0
C509 C 0.83081 0.75871 0.60789 0.0
C510 C 0.92563 0.77759 0.62228 0.0
C511 C 0.92812 0.7752 0.60873 0.0
H512 H 0.24474 0.27969 0.8241 0.0
H513 H 0.25037 0.45382 0.82352 0.0
H514 H 0.26554 0.45539 0.84695 0.0
H515 H 0.27541 0.40871 0.86752 0.0
H516 H 0.26568 0.23515 0.86923 0.0
H517 H 0.25433 0.23189 0.84537 0.0
C518 C 0.24939 0.31783 0.82914 0.0
C519 C 0.24636 0.36653 0.82209 0.0
C520 C 0.25749 0.31861 0.84276 0.0
C521 C 0.25221 0.41576 0.82871 0.0
C522 C 0.26107 0.41677 0.84212 0.0
C523 C 0.27121 0.36995 0.86272 0.0
C524 C 0.2716 0.32221 0.87011 0.0
C525 C 0.26358 0.36858 0.84921 0.0
C526 C 0.2656 0.27248 0.86372 0.0
C527 C 0.259 0.27066 0.85011 0.0
H528 H 0.61349 0.77532 0.07792 0.0
H529 H 0.75692 0.67755 0.08169 0.0
H530 H 0.7633 0.70162 0.10502 0.0
H531 H 0.72188 0.7444 0.12466 0.0
H532 H 0.57881 0.84305 0.11983 0.0
H533 H 0.57893 0.82533 0.0965 0.0
C534 C 0.64634 0.75953 0.08386 0.0
C535 C 0.68405 0.72401 0.07833 0.0
C536 C 0.64971 0.77374 0.09702 0.0
C537 C 0.72726 0.7047 0.0859 0.0
C538 C 0.73073 0.71836 0.09918 0.0
C539 C 0.69138 0.76267 0.11844 0.0
C540 C 0.64987 0.79424 0.124 0.0
C541 C 0.69137 0.752 0.10492 0.0
C542 C 0.61077 0.81799 0.11584 0.0
C543 C 0.61068 0.80786 0.10248 0.0
H544 H 0.74097 0.71156 0.82621 0.0
H545 H 0.7061 0.54166 0.82244 0.0
H546 H 0.70129 0.53254 0.84606 0.0
H547 H 0.71157 0.57062 0.86759 0.0
H548 H 0.75077 0.73896 0.87232 0.0
H549 H 0.74876 0.75111 0.84847 0.0
C550 C 0.7319 0.67278 0.83061 0.0
C551 C 0.72425 0.62729 0.82262 0.0
C552 C 0.73013 0.66748 0.84431 0.0
C553 C 0.71269 0.57716 0.82839 0.0
C554 C 0.70981 0.57186 0.84189 0.0
C555 C 0.71944 0.6102 0.86347 0.0
C556 C 0.73164 0.65375 0.8717 0.0
C557 C 0.71924 0.61647 0.84991 0.0
C558 C 0.74141 0.70473 0.86616 0.0
C559 C 0.74039 0.71162 0.85255 0.0
H560 H 0.27309 0.24998 0.12148 0.0
H561 H 0.43305 0.31957 0.12358 0.0
H562 H 0.43996 0.31941 0.09986 0.0
H563 H 0.4054 0.29144 0.0789 0.0
H564 H 0.24831 0.21647 0.0759 0.0
H565 H 0.2349 0.22731 0.09958 0.0
C566 C 0.30886 0.26589 0.11665 0.0
C567 C 0.35271 0.28436 0.12417 0.0
C568 C 0.31328 0.26419 0.10292 0.0
C569 C 0.39912 0.30463 0.11793 0.0
C570 C 0.40312 0.30456 0.10439 0.0
C571 C 0.36795 0.27769 0.08337 0.0
C572 C 0.32827 0.25243 0.07573 0.0
C573 C 0.36123 0.28301 0.09685 0.0
C574 C 0.27962 0.23578 0.08164 0.0
C575 C 0.27207 0.24181 0.09516 0.0
H576 H 0.76003 0.76209 0.32864 0.0
H577 H 0.6356 0.88284 0.33363 0.0
H578 H 0.65169 0.88404 0.35711 0.0
H579 H 0.70918 0.86059 0.37558 0.0
H580 H 0.83547 0.74213 0.37123 0.0
H581 H 0.81064 0.72965 0.34811 0.0
C582 C 0.73564 0.78757 0.33494 0.0
C583 C 0.69722 0.82288 0.32944 0.0
C584 C 0.74605 0.78904 0.34846 0.0
C585 C 0.66587 0.85584 0.33766 0.0
C586 C 0.67511 0.85669 0.35106 0.0
C587 C 0.73061 0.83144 0.36957 0.0
C588 C 0.77429 0.80275 0.37485 0.0
C589 C 0.71643 0.82509 0.35646 0.0
C590 C 0.80172 0.76461 0.36721 0.0
C591 C 0.78764 0.75774 0.35403 0.0
H592 H 0.21808 0.24969 0.62451 0.0
H593 H 0.04422 0.27015 0.62602 0.0
H594 H 0.03756 0.24952 0.60291 0.0
H595 H 0.07978 0.22604 0.58239 0.0
H596 H 0.25346 0.20981 0.57965 0.0
H597 H 0.26156 0.22812 0.60319 0.0
C598 C 0.17888 0.24968 0.61974 0.0
C599 C 0.13176 0.26135 0.62699 0.0
C600 C 0.17521 0.23831 0.60629 0.0
C601 C 0.08119 0.26151 0.62068 0.0
C602 C 0.0772 0.24952 0.60746 0.0
C603 C 0.11953 0.22604 0.58692 0.0
C604 C 0.16592 0.21605 0.57935 0.0
C605 C 0.12381 0.23777 0.60021 0.0
C606 C 0.21713 0.21718 0.58533 0.0
C607 C 0.22172 0.22773 0.59875 0.0
H608 H 0.26228 0.30609 0.24765 0.0
H609 H 0.15154 0.17209 0.24447 0.0
H610 H 0.1462 0.1852 0.22091 0.0
H611 H 0.18551 0.22402 0.201 0.0
H612 H 0.30016 0.35462 0.2041 0.0
H613 H 0.29029 0.35442 0.22783 0.0
C614 C 0.23605 0.28054 0.24184 0.0
C615 C 0.20845 0.23742 0.24777 0.0
C616 C 0.23414 0.2874 0.22823 0.0
C617 C 0.17413 0.205 0.24012 0.0
C618 C 0.17101 0.2124 0.22662 0.0
C619 C 0.20708 0.25349 0.20684 0.0
C620 C 0.24428 0.28849 0.20084 0.0
C621 C 0.20273 0.25189 0.22051 0.0
C622 C 0.27185 0.32661 0.20852 0.0
C623 C 0.26646 0.32639 0.2221 0.0
H624 H 0.80671 0.69533 0.45602 0.0
H625 H 0.71677 0.84469 0.45463 0.0
H626 H 0.69587 0.83683 0.47781 0.0
H627 H 0.71551 0.79543 0.49905 0.0
H628 H 0.80793 0.64777 0.50061 0.0
H629 H 0.81391 0.64629 0.47681 0.0
C630 C 0.78188 0.72572 0.46075 0.0
C631 C 0.76454 0.7711 0.45367 0.0
C632 C 0.77038 0.72134 0.47415 0.0
C633 C 0.73148 0.80967 0.45988 0.0
C634 C 0.71941 0.80527 0.47317 0.0
C635 C 0.73547 0.76205 0.49417 0.0
C636 C 0.76214 0.72243 0.50157 0.0
C637 C 0.74036 0.76236 0.4805 0.0
C638 C 0.78772 0.67927 0.49511 0.0
C639 C 0.79151 0.67854 0.4815 0.0
H640 H 0.20198 0.19464 0.7041 0.0
H641 H 0.32709 0.31514 0.70018 0.0
H642 H 0.34258 0.31235 0.72377 0.0
H643 H 0.30558 0.29169 0.74543 0.0
H644 H 0.1745 0.17767 0.74935 0.0
H645 H 0.1771 0.16087 0.7258 0.0
C646 C 0.23359 0.21935 0.70837 0.0
C647 C 0.26218 0.25634 0.70051 0.0
C648 C 0.24055 0.2192 0.72195 0.0
C649 C 0.30402 0.28694 0.70606 0.0
C650 C 0.31256 0.28566 0.71956 0.0
C651 C 0.27842 0.26218 0.74117 0.0
C652 C 0.23874 0.23717 0.749 0.0
C653 C 0.2787 0.25448 0.72762 0.0
C654 C 0.20488 0.19794 0.74348 0.0
C655 C 0.20609 0.18867 0.73001 0.0
H656 H 0.70965 0.77496 0.95416 0.0
H657 H 0.83601 0.65504 0.95123 0.0
H658 H 0.84569 0.65406 0.97492 0.0
H659 H 0.8068 0.6749 -0.00358 0.0
H660 H 0.67864 0.79301 -0.00072 0.0
H661 H 0.68193 0.80752 -0.02424 0.0
C662 C 0.74026 0.74966 0.95868 0.0
C663 C 0.77094 0.71413 0.95097 0.0
C664 C 0.7448 0.74825 0.97235 0.0
C665 C 0.81098 0.68207 0.95696 0.0
C666 C 0.8165 0.68129 0.97053 0.0
C667 C 0.78046 0.70468 -0.00806 0.0
C668 C 0.74159 0.73163 -0.00045 0.0
C669 C 0.78176 0.71221 -0.02166 0.0
C670 C 0.70826 0.77074 -0.00639 0.0
C671 C 0.71 0.77912 -0.01986 0.0
H672 H 0.20906 0.25643 -0.00596 0.0
H673 H 0.34571 0.14767 -0.00465 0.0
H674 H 0.34428 0.13974 0.97163 0.0
H675 H 0.315 0.17663 0.95051 0.0
H676 H 0.18033 0.28776 0.94927 0.0
H677 H 0.16964 0.2808 0.97288 0.0
C678 C 0.23775 0.23005 -0.01083 0.0
C679 C 0.27828 0.20393 -0.00356 0.0
C680 C 0.23752 0.22648 -0.02452 0.0
C681 C 0.31462 0.16915 -0.01002 0.0
C682 C 0.31399 0.16462 -0.02361 0.0
C683 C 0.28242 0.19817 0.95536 0.0
C684 C 0.24948 0.23367 0.94819 0.0
C685 C 0.27728 0.19511 0.96901 0.0
C686 C 0.20703 0.26092 0.9546 0.0
C687 C 0.20091 0.25713 0.96813 0.0
H688 H 0.68074 0.69872 0.24635 0.0
H689 H 0.80235 0.82148 0.25184 0.0
H690 H 0.81853 0.82514 0.22835 0.0
H691 H 0.78506 0.80677 0.20623 0.0
H692 H 0.65997 0.68752 0.20076 0.0
H693 H 0.65917 0.66841 0.22414 0.0
C694 C 0.71186 0.72508 0.24243 0.0
C695 C 0.73924 0.76069 0.25075 0.0
C696 C 0.71985 0.72825 0.22885 0.0
C697 C 0.77983 0.7944 0.24557 0.0
C698 C 0.78909 0.79666 0.23213 0.0
C699 C 0.75883 0.77551 0.21011 0.0
C700 C 0.72174 0.74963 0.20186 0.0
C701 C 0.7573 0.76586 0.22364 0.0
C702 C 0.68818 0.70887 0.20699 0.0
C703 C 0.68755 0.69795 0.22037 0.0
H704 H 0.23292 0.28775 0.45621 0.0
H705 H 0.35173 0.16012 0.4542 0.0
H706 H 0.35356 0.15437 0.47797 0.0
H707 H 0.30937 0.17434 0.49896 0.0
H708 H 0.18832 0.29999 0.50075 0.0
H709 H 0.20008 0.31806 0.47753 0.0
C710 C 0.26022 0.25961 0.46096 0.0
C711 C 0.29101 0.22354 0.45342 0.0
C712 C 0.26009 0.25546 0.47464 0.0
C713 C 0.32676 0.18778 0.45976 0.0
C714 C 0.32773 0.18425 0.47338 0.0
C715 C 0.28647 0.20645 0.49434 0.0
C716 C 0.24709 0.23473 0.5015 0.0
C717 C 0.2926 0.21607 0.48088 0.0
C718 C 0.21817 0.27674 0.4954 0.0
C719 C 0.2248 0.28718 0.4821 0.0
H720 H 0.80241 0.83013 0.70815 0.0
H721 H 0.67511 0.71651 0.69937 0.0
H722 H 0.65122 0.71176 0.72251 0.0
H723 H 0.67964 0.72461 0.7452 0.0
H724 H 0.81154 0.83268 0.75403 0.0
H725 H 0.81963 0.85594 0.73088 0.0
C726 C 0.76861 0.80522 0.71125 0.0
C727 C 0.74164 0.77242 0.70212 0.0
C728 C 0.75639 0.80124 0.7246 0.0
C729 C 0.69708 0.7415 0.70623 0.0
C730 C 0.68361 0.73852 0.71947 0.0
C731 C 0.70934 0.75425 0.7421 0.0
C732 C 0.74601 0.77574 0.75123 0.0
C733 C 0.71504 0.7658 0.72877 0.0
C734 C 0.7833 0.81509 0.74716 0.0
C735 C 0.78821 0.82805 0.73391 0.0
loop_
_geom_bond_atom_site_label_1
_geom_bond_atom_site_label_2
_geom_bond_distance
_geom_bond_site_symmetry_2
_ccdc_geom_bond_type
C0 O1 1.306 . S
C0 O3 1.160 . S
O1 C0 1.306 . S
O1 Cd2 2.228 . S
Cd2 O1 2.228 . S
Cd2 O6 2.273 . S
Cd2 O10 2.277 . S
O3 C0 1.160 . S
O3 Cd4 2.203 . S
Cd4 O3 2.203 . S
Cd4 O6 2.411 . S
Cd4 O7 2.333 . S
Cd4 O8 2.352 . S
Cd4 O12 2.277 . S
Cd4 O13 2.356 . S
C5 O10 1.209 . S
C5 O12 1.226 . S
O6 Cd2 2.273 . S
O6 Cd4 2.411 . S
O6 C9 1.320 . S
O7 Cd4 2.333 . S
O7 C9 1.214 . S
O8 Cd4 2.352 . S
O8 C11 1.258 . S
C9 O6 1.320 . S
C9 O7 1.214 . S
O10 Cd2 2.277 . S
O10 C5 1.209 . S
C11 O8 1.258 . S
C11 O13 1.282 . S
O12 Cd4 2.277 . S
O12 C5 1.226 . S
O13 Cd4 2.356 . S
O13 C11 1.282 . S
C14 O15 1.306 . S
C14 O17 1.160 . S
O15 C14 1.306 . S
O15 Cd16 2.228 . S
Cd16 O15 2.228 . S
Cd16 O20 2.273 . S
Cd16 O24 2.277 . S
O17 C14 1.160 . S
O17 Cd18 2.203 . S
Cd18 O17 2.203 . S
Cd18 O20 2.411 . S
Cd18 O21 2.333 . S
Cd18 O22 2.352 . S
Cd18 O26 2.277 . S
Cd18 O27 2.356 . S
C19 O24 1.209 . S
C19 O26 1.226 . S
O20 Cd16 2.273 . S
O20 Cd18 2.411 . S
O20 C23 1.320 . S
O21 Cd18 2.333 . S
O21 C23 1.214 . S
O22 Cd18 2.352 . S
O22 C25 1.258 . S
C23 O20 1.320 . S
C23 O21 1.214 . S
O24 Cd16 2.277 . S
O24 C19 1.209 . S
C25 O22 1.258 . S
C25 O27 1.282 . S
O26 Cd18 2.277 . S
O26 C19 1.226 . S
O27 Cd18 2.356 . S
O27 C25 1.282 . S
C28 O29 1.306 . S
C28 O31 1.160 . S
O29 C28 1.306 . S
O29 Cd30 2.228 . S
Cd30 O29 2.228 . S
Cd30 O34 2.273 . S
Cd30 O38 2.277 . S
O31 C28 1.160 . S
O31 Cd32 2.203 . S
Cd32 O31 2.203 . S
Cd32 O34 2.411 . S
Cd32 O35 2.333 . S
Cd32 O36 2.352 . S
Cd32 O40 2.277 . S
Cd32 O41 2.356 . S
C33 O38 1.209 . S
C33 O40 1.226 . S
O34 Cd30 2.273 . S
O34 Cd32 2.411 . S
O34 C37 1.320 . S
O35 Cd32 2.333 . S
O35 C37 1.214 . S
O36 Cd32 2.352 . S
O36 C39 1.258 . S
C37 O34 1.320 . S
C37 O35 1.214 . S
O38 Cd30 2.277 . S
O38 C33 1.209 . S
C39 O36 1.258 . S
C39 O41 1.282 . S
O40 Cd32 2.277 . S
O40 C33 1.226 . S
O41 Cd32 2.356 . S
O41 C39 1.282 . S
C42 O43 1.306 . S
C42 O45 1.160 . S
O43 C42 1.306 . S
O43 Cd44 2.228 . S
Cd44 O43 2.228 . S
Cd44 O48 2.273 . S
Cd44 O52 2.277 . S
O45 C42 1.160 . S
O45 Cd46 2.203 . S
Cd46 O45 2.203 . S
Cd46 O48 2.411 . S
Cd46 O49 2.333 . S
Cd46 O50 2.352 . S
Cd46 O54 2.277 . S
Cd46 O55 2.356 . S
C47 O52 1.209 . S
C47 O54 1.226 . S
O48 Cd44 2.273 . S
O48 Cd46 2.411 . S
O48 C51 1.320 . S
O49 Cd46 2.333 . S
O49 C51 1.214 . S
O50 Cd46 2.352 . S
O50 C53 1.258 . S
C51 O48 1.320 . S
C51 O49 1.214 . S
O52 Cd44 2.277 . S
O52 C47 1.209 . S
C53 O50 1.258 . S
C53 O55 1.282 . S
O54 Cd46 2.277 . S
O54 C47 1.226 . S
O55 Cd46 2.356 . S
O55 C53 1.282 . S
C56 O57 1.306 . S
C56 O59 1.160 . S
O57 C56 1.306 . S
O57 Cd58 2.228 . S
Cd58 O57 2.228 . S
Cd58 O62 2.273 . S
Cd58 O66 2.277 . S
O59 C56 1.160 . S
O59 Cd60 2.203 . S
Cd60 O59 2.203 . S
Cd60 O62 2.411 . S
Cd60 O63 2.333 . S
Cd60 O64 2.352 . S
Cd60 O68 2.277 . S
Cd60 O69 2.356 . S
C61 O66 1.209 . S
C61 O68 1.226 . S
O62 Cd58 2.273 . S
O62 Cd60 2.411 . S
O62 C65 1.320 . S
O63 Cd60 2.333 . S
O63 C65 1.214 . S
O64 Cd60 2.352 . S
O64 C67 1.258 . S
C65 O62 1.320 . S
C65 O63 1.214 . S
O66 Cd58 2.277 . S
O66 C61 1.209 . S
C67 O64 1.258 . S
C67 O69 1.282 . S
O68 Cd60 2.277 . S
O68 C61 1.226 . S
O69 Cd60 2.356 . S
O69 C67 1.282 . S
C70 O71 1.306 . S
C70 O73 1.160 . S
O71 C70 1.306 . S
O71 Cd72 2.228 . S
Cd72 O71 2.228 . S
Cd72 O76 2.273 . S
Cd72 O80 2.277 . S
O73 C70 1.160 . S
O73 Cd74 2.203 . S
Cd74 O73 2.203 . S
Cd74 O76 2.411 . S
Cd74 O77 2.333 . S
Cd74 O78 2.352 . S
Cd74 O82 2.277 . S
Cd74 O83 2.356 . S
C75 O80 1.209 . S
C75 O82 1.226 . S
O76 Cd72 2.273 . S
O76 Cd74 2.411 . S
O76 C79 1.320 . S
O77 Cd74 2.333 . S
O77 C79 1.214 . S
O78 Cd74 2.352 . S
O78 C81 1.258 . S
C79 O76 1.320 . S
C79 O77 1.214 . S
O80 Cd72 2.277 . S
O80 C75 1.209 . S
C81 O78 1.258 . S
C81 O83 1.282 . S
O82 Cd74 2.277 . S
O82 C75 1.226 . S
O83 Cd74 2.356 . S
O83 C81 1.282 . S
C84 O85 1.306 . S
C84 O87 1.160 . S
O85 C84 1.306 . S
O85 Cd86 2.228 . S
Cd86 O85 2.228 . S
Cd86 O90 2.273 . S
Cd86 O94 2.277 . S
O87 C84 1.160 . S
O87 Cd88 2.203 . S
Cd88 O87 2.203 . S
Cd88 O90 2.411 . S
Cd88 O91 2.333 . S
Cd88 O92 2.352 . S
Cd88 O96 2.277 . S
Cd88 O97 2.356 . S
C89 O94 1.209 . S
C89 O96 1.226 . S
O90 Cd86 2.273 . S
O90 Cd88 2.411 . S
O90 C93 1.320 . S
O91 Cd88 2.333 . S
O91 C93 1.214 . S
O92 Cd88 2.352 . S
O92 C95 1.258 . S
C93 O90 1.320 . S
C93 O91 1.214 . S
O94 Cd86 2.277 . S
O94 C89 1.209 . S
C95 O92 1.258 . S
C95 O97 1.282 . S
O96 Cd88 2.277 . S
O96 C89 1.226 . S
O97 Cd88 2.356 . S
O97 C95 1.282 . S
C98 O99 1.306 . S
C98 O101 1.160 . S
O99 C98 1.306 . S
O99 Cd100 2.228 . S
Cd100 O99 2.228 . S
Cd100 O104 2.273 . S
Cd100 O108 2.277 . S
O101 C98 1.160 . S
O101 Cd102 2.203 . S
Cd102 O101 2.203 . S
Cd102 O104 2.411 . S
Cd102 O105 2.333 . S
Cd102 O106 2.352 . S
Cd102 O110 2.277 . S
Cd102 O111 2.356 . S
C103 O108 1.209 . S
C103 O110 1.226 . S
O104 Cd100 2.273 . S
O104 Cd102 2.411 . S
O104 C107 1.320 . S
O105 Cd102 2.333 . S
O105 C107 1.214 . S
O106 Cd102 2.352 . S
O106 C109 1.258 . S
C107 O104 1.320 . S
C107 O105 1.214 . S
O108 Cd100 2.277 . S
O108 C103 1.209 . S
C109 O106 1.258 . S
C109 O111 1.282 . S
O110 Cd102 2.277 . S
O110 C103 1.226 . S
O111 Cd102 2.356 . S
O111 C109 1.282 . S
C112 O113 1.306 . S
C112 O115 1.160 . S
O113 C112 1.306 . S
O113 Cd114 2.228 . S
Cd114 O113 2.228 . S
Cd114 O118 2.273 . S
Cd114 O122 2.277 . S
O115 C112 1.160 . S
O115 Cd116 2.203 . S
Cd116 O115 2.203 . S
Cd116 O118 2.411 . S
Cd116 O119 2.333 . S
Cd116 O120 2.352 . S
Cd116 O124 2.277 . S
Cd116 O125 2.356 . S
C117 O122 1.209 . S
C117 O124 1.226 . S
O118 Cd114 2.273 . S
O118 Cd116 2.411 . S
O118 C121 1.320 . S
O119 Cd116 2.333 . S
O119 C121 1.214 . S
O120 Cd116 2.352 . S
O120 C123 1.258 . S
C121 O118 1.320 . S
C121 O119 1.214 . S
O122 Cd114 2.277 . S
O122 C117 1.209 . S
C123 O120 1.258 . S
C123 O125 1.282 . S
O124 Cd116 2.277 . S
O124 C117 1.226 . S
O125 Cd116 2.356 . S
O125 C123 1.282 . S
C126 O127 1.306 . S
C126 O129 1.160 . S
O127 C126 1.306 . S
O127 Cd128 2.228 . S
Cd128 O127 2.228 . S
Cd128 O132 2.273 . S
Cd128 O136 2.277 . S
O129 C126 1.160 . S
O129 Cd130 2.203 . S
Cd130 O129 2.203 . S
Cd130 O132 2.411 . S
Cd130 O133 2.333 . S
Cd130 O134 2.352 . S
Cd130 O138 2.277 . S
Cd130 O139 2.356 . S
C131 O136 1.209 . S
C131 O138 1.226 . S
O132 Cd128 2.273 . S
O132 Cd130 2.411 . S
O132 C135 1.320 . S
O133 Cd130 2.333 . S
O133 C135 1.214 . S
O134 Cd130 2.352 . S
O134 C137 1.258 . S
C135 O132 1.320 . S
C135 O133 1.214 . S
O136 Cd128 2.277 . S
O136 C131 1.209 . S
C137 O134 1.258 . S
C137 O139 1.282 . S
O138 Cd130 2.277 . S
O138 C131 1.226 . S
O139 Cd130 2.356 . S
O139 C137 1.282 . S
C140 O141 1.306 . S
C140 O143 1.160 . S
O141 C140 1.306 . S
O141 Cd142 2.228 . S
Cd142 O141 2.228 . S
Cd142 O146 2.273 . S
Cd142 O150 2.277 . S
O143 C140 1.160 . S
O143 Cd144 2.203 . S
Cd144 O143 2.203 . S
Cd144 O146 2.411 . S
Cd144 O147 2.333 . S
Cd144 O148 2.352 . S
Cd144 O152 2.277 . S
Cd144 O153 2.356 . S
C145 O150 1.209 . S
C145 O152 1.226 . S
O146 Cd142 2.273 . S
O146 Cd144 2.411 . S
O146 C149 1.320 . S
O147 Cd144 2.333 . S
O147 C149 1.214 . S
O148 Cd144 2.352 . S
O148 C151 1.258 . S
C149 O146 1.320 . S
C149 O147 1.214 . S
O150 Cd142 2.277 . S
O150 C145 1.209 . S
C151 O148 1.258 . S
C151 O153 1.282 . S
O152 Cd144 2.277 . S
O152 C145 1.226 . S
O153 Cd144 2.356 . S
O153 C151 1.282 . S
C154 O155 1.306 . S
C154 O157 1.160 . S
O155 C154 1.306 . S
O155 Cd156 2.228 . S
Cd156 O155 2.228 . S
Cd156 O160 2.273 . S
Cd156 O164 2.277 . S
O157 C154 1.160 . S
O157 Cd158 2.203 . S
Cd158 O157 2.203 . S
Cd158 O160 2.411 . S
Cd158 O161 2.333 . S
Cd158 O162 2.352 . S
Cd158 O166 2.277 . S
Cd158 O167 2.356 . S
C159 O164 1.209 . S
C159 O166 1.226 . S
O160 Cd156 2.273 . S
O160 Cd158 2.411 . S
O160 C163 1.320 . S
O161 Cd158 2.333 . S
O161 C163 1.214 . S
O162 Cd158 2.352 . S
O162 C165 1.258 . S
C163 O160 1.320 . S
C163 O161 1.214 . S
O164 Cd156 2.277 . S
O164 C159 1.209 . S
C165 O162 1.258 . S
C165 O167 1.282 . S
O166 Cd158 2.277 . S
O166 C159 1.226 . S
O167 Cd158 2.356 . S
O167 C165 1.282 . S
C168 O169 1.306 . S
C168 O171 1.160 . S
O169 C168 1.306 . S
O169 Cd170 2.228 . S
Cd170 O169 2.228 . S
Cd170 O174 2.273 . S
Cd170 O178 2.277 . S
O171 C168 1.160 . S
O171 Cd172 2.203 . S
Cd172 O171 2.203 . S
Cd172 O174 2.411 . S
Cd172 O175 2.333 . S
Cd172 O176 2.352 . S
Cd172 O180 2.277 . S
Cd172 O181 2.356 . S
C173 O178 1.209 . S
C173 O180 1.226 . S
O174 Cd170 2.273 . S
O174 Cd172 2.411 . S
O174 C177 1.320 . S
O175 Cd172 2.333 . S
O175 C177 1.214 . S
O176 Cd172 2.352 . S
O176 C179 1.258 . S
C177 O174 1.320 . S
C177 O175 1.214 . S
O178 Cd170 2.277 . S
O178 C173 1.209 . S
C179 O176 1.258 . S
C179 O181 1.282 . S
O180 Cd172 2.277 . S
O180 C173 1.226 . S
O181 Cd172 2.356 . S
O181 C179 1.282 . S
C182 O183 1.306 . S
C182 O185 1.160 . S
O183 C182 1.306 . S
O183 Cd184 2.228 . S
Cd184 O183 2.228 . S
Cd184 O188 2.273 . S
Cd184 O192 2.277 . S
O185 C182 1.160 . S
O185 Cd186 2.203 . S
Cd186 O185 2.203 . S
Cd186 O188 2.411 . S
Cd186 O189 2.333 . S
Cd186 O190 2.352 . S
Cd186 O194 2.277 . S
Cd186 O195 2.356 . S
C187 O192 1.209 . S
C187 O194 1.226 . S
O188 Cd184 2.273 . S
O188 Cd186 2.411 . S
O188 C191 1.320 . S
O189 Cd186 2.333 . S
O189 C191 1.214 . S
O190 Cd186 2.352 . S
O190 C193 1.258 . S
C191 O188 1.320 . S
C191 O189 1.214 . S
O192 Cd184 2.277 . S
O192 C187 1.209 . S
C193 O190 1.258 . S
C193 O195 1.282 . S
O194 Cd186 2.277 . S
O194 C187 1.226 . S
O195 Cd186 2.356 . S
O195 C193 1.282 . S
C196 O197 1.306 . S
C196 O199 1.160 . S
O197 C196 1.306 . S
O197 Cd198 2.228 . S
Cd198 O197 2.228 . S
Cd198 O202 2.273 . S
Cd198 O206 2.277 . S
O199 C196 1.160 . S
O199 Cd200 2.203 . S
Cd200 O199 2.203 . S
Cd200 O202 2.411 . S
Cd200 O203 2.333 . S
Cd200 O204 2.352 . S
Cd200 O208 2.277 . S
Cd200 O209 2.356 . S
C201 O206 1.209 . S
C201 O208 1.226 . S
O202 Cd198 2.273 . S
O202 Cd200 2.411 . S
O202 C205 1.320 . S
O203 Cd200 2.333 . S
O203 C205 1.214 . S
O204 Cd200 2.352 . S
O204 C207 1.258 . S
C205 O202 1.320 . S
C205 O203 1.214 . S
O206 Cd198 2.277 . S
O206 C201 1.209 . S
C207 O204 1.258 . S
C207 O209 1.282 . S
O208 Cd200 2.277 . S
O208 C201 1.226 . S
O209 Cd200 2.356 . S
O209 C207 1.282 . S
C210 O211 1.306 . S
C210 O213 1.160 . S
O211 C210 1.306 . S
O211 Cd212 2.228 . S
Cd212 O211 2.228 . S
Cd212 O216 2.273 . S
Cd212 O220 2.277 . S
O213 C210 1.160 . S
O213 Cd214 2.203 . S
Cd214 O213 2.203 . S
Cd214 O216 2.411 . S
Cd214 O217 2.333 . S
Cd214 O218 2.352 . S
Cd214 O222 2.277 . S
Cd214 O223 2.356 . S
C215 O220 1.209 . S
C215 O222 1.226 . S
O216 Cd212 2.273 . S
O216 Cd214 2.411 . S
O216 C219 1.320 . S
O217 Cd214 2.333 . S
O217 C219 1.214 . S
O218 Cd214 2.352 . S
O218 C221 1.258 . S
C219 O216 1.320 . S
C219 O217 1.214 . S
O220 Cd212 2.277 . S
O220 C215 1.209 . S
C221 O218 1.258 . S
C221 O223 1.282 . S
O222 Cd214 2.277 . S
O222 C215 1.226 . S
O223 Cd214 2.356 . S
O223 C221 1.282 . S
H224 C230 0.930 1_545 S
H225 C233 0.930 . S
H226 C234 0.930 . S
H227 C235 0.930 1_565 S
H228 C238 0.930 . S
H229 C239 0.930 . S
C230 H224 0.930 1_565 S
C230 C231 1.355 . S
C230 C232 1.415 1_565 S
C231 C230 1.355 . S
C231 C233 1.419 . S
C232 C230 1.415 1_545 S
C232 C237 1.425 1_645 S
C232 C239 1.409 . S
C233 H225 0.930 . S
C233 C231 1.419 . S
C233 C234 1.362 1_655 S
C234 H226 0.930 . S
C234 C233 1.362 1_455 S
C234 C237 1.409 . S
C235 H227 0.930 1_545 S
C235 C236 1.355 . S
C235 C237 1.415 1_545 S
C236 C235 1.355 . S
C236 C238 1.419 . S
C237 C232 1.425 1_465 S
C237 C234 1.409 . S
C237 C235 1.415 1_565 S
C238 H228 0.930 . S
C238 C236 1.419 . S
C238 C239 1.362 1_455 S
C239 H229 0.930 . S
C239 C232 1.409 . S
C239 C238 1.362 1_655 S
H240 C246 0.930 1_455 S
H241 C249 0.930 . S
H242 C250 0.930 . S
H243 C251 0.930 1_655 S
H244 C254 0.930 . S
H245 C255 0.930 . S
C246 H240 0.930 1_655 S
C246 C247 1.355 . S
C246 C248 1.415 1_655 S
C247 C246 1.355 . S
C247 C249 1.419 . S
C248 C246 1.415 1_455 S
C248 C253 1.425 1_455 S
C248 C255 1.409 . S
C249 H241 0.930 . S
C249 C247 1.419 . S
C249 C250 1.362 . S
C250 H242 0.930 . S
C250 C249 1.362 . S
C250 C253 1.409 . S
C251 H243 0.930 1_455 S
C251 C252 1.355 . S
C251 C253 1.415 1_455 S
C252 C251 1.355 . S
C252 C254 1.419 . S
C253 C248 1.425 1_655 S
C253 C250 1.409 . S
C253 C251 1.415 1_655 S
C254 H244 0.930 . S
C254 C252 1.419 . S
C254 C255 1.362 . S
C255 H245 0.930 . S
C255 C248 1.409 . S
C255 C254 1.362 . S
H256 C262 0.930 . S
H257 C265 0.930 . S
H258 C266 0.930 . S
H259 C267 0.930 . S
H260 C270 0.930 . S
H261 C271 0.930 . S
C262 H256 0.930 . S
C262 C263 1.355 . S
C262 C264 1.415 . S
C263 C262 1.355 . S
C263 C265 1.419 . S
C264 C262 1.415 . S
C264 C269 1.425 . S
C264 C271 1.409 . S
C265 H257 0.930 . S
C265 C263 1.419 . S
C265 C266 1.362 . S
C266 H258 0.930 . S
C266 C265 1.362 . S
C266 C269 1.409 . S
C267 H259 0.930 . S
C267 C268 1.355 . S
C267 C269 1.415 . S
C268 C267 1.355 . S
C268 C270 1.419 . S
C269 C264 1.425 . S
C269 C266 1.409 . S
C269 C267 1.415 . S
C270 H260 0.930 . S
C270 C268 1.419 . S
C270 C271 1.362 . S
C271 H261 0.930 . S
C271 C264 1.409 . S
C271 C270 1.362 . S
H272 C278 0.930 . S
H273 C281 0.930 . S
H274 C282 0.930 . S
H275 C283 0.930 . S
H276 C286 0.930 . S
H277 C287 0.930 . S
C278 H272 0.930 . S
C278 C279 1.355 . S
C278 C280 1.415 . S
C279 C278 1.355 . S
C279 C281 1.419 . S
C280 C278 1.415 . S
C280 C285 1.425 1_545 S
C280 C287 1.409 . S
C281 H273 0.930 . S
C281 C279 1.419 . S
C281 C282 1.362 1_545 S
C282 H274 0.930 . S
C282 C281 1.362 1_565 S
C282 C285 1.409 . S
C283 H275 0.930 . S
C283 C284 1.355 . S
C283 C285 1.415 . S
C284 C283 1.355 . S
C284 C286 1.419 . S
C285 C280 1.425 1_565 S
C285 C282 1.409 . S
C285 C283 1.415 . S
C286 H276 0.930 . S
C286 C284 1.419 . S
C286 C287 1.362 1_565 S
C287 H277 0.930 . S
C287 C280 1.409 . S
C287 C286 1.362 1_545 S
H288 C294 0.930 . S
H289 C297 0.930 . S
H290 C298 0.930 . S
H291 C299 0.930 . S
H292 C302 0.930 . S
H293 C303 0.930 . S
C294 H288 0.930 . S
C294 C295 1.355 . S
C294 C296 1.415 . S
C295 C294 1.355 . S
C295 C297 1.419 . S
C296 C294 1.415 . S
C296 C301 1.425 1_455 S
C296 C303 1.409 . S
C297 H289 0.930 . S
C297 C295 1.419 . S
C297 C298 1.362 1_455 S
C298 H290 0.930 . S
C298 C297 1.362 1_655 S
C298 C301 1.409 . S
C299 H291 0.930 . S
C299 C300 1.355 . S
C299 C301 1.415 . S
C300 C299 1.355 . S
C300 C302 1.419 . S
C301 C296 1.425 1_655 S
C301 C298 1.409 . S
C301 C299 1.415 . S
C302 H292 0.930 . S
C302 C300 1.419 . S
C302 C303 1.362 1_655 S
C303 H293 0.930 . S
C303 C296 1.409 . S
C303 C302 1.362 1_455 S
H304 C310 0.930 . S
H305 C313 0.930 . S
H306 C314 0.930 . S
H307 C315 0.930 . S
H308 C318 0.930 . S
H309 C319 0.930 . S
C310 H304 0.930 . S
C310 C311 1.355 . S
C310 C312 1.415 . S
C311 C310 1.355 . S
C311 C313 1.419 . S
C312 C310 1.415 . S
C312 C317 1.425 . S
C312 C319 1.409 . S
C313 H305 0.930 . S
C313 C311 1.419 . S
C313 C314 1.362 . S
C314 H306 0.930 . S
C314 C313 1.362 . S
C314 C317 1.409 . S
C315 H307 0.930 . S
C315 C316 1.355 . S
C315 C317 1.415 . S
C316 C315 1.355 . S
C316 C318 1.419 . S
C317 C312 1.425 . S
C317 C314 1.409 . S
C317 C315 1.415 . S
C318 H308 0.930 . S
C318 C316 1.419 . S
C318 C319 1.362 . S
C319 H309 0.930 . S
C319 C312 1.409 . S
C319 C318 1.362 . S
H320 C326 0.930 1_565 S
H321 C329 0.930 . S
H322 C330 0.930 . S
H323 C331 0.930 1_545 S
H324 C334 0.930 . S
H325 C335 0.930 . S
C326 H320 0.930 1_545 S
C326 C327 1.355 . S
C326 C328 1.415 1_545 S
C327 C326 1.355 . S
C327 C329 1.419 . S
C328 C326 1.415 1_565 S
C328 C333 1.425 1_565 S
C328 C335 1.409 . S
C329 H321 0.930 . S
C329 C327 1.419 . S
C329 C330 1.362 . S
C330 H322 0.930 . S
C330 C329 1.362 . S
C330 C333 1.409 . S
C331 H323 0.930 1_565 S
C331 C332 1.355 . S
C331 C333 1.415 1_565 S
C332 C331 1.355 . S
C332 C334 1.419 . S
C333 C328 1.425 1_545 S
C333 C330 1.409 . S
C333 C331 1.415 1_545 S
C334 H324 0.930 . S
C334 C332 1.419 . S
C334 C335 1.362 . S
C335 H325 0.930 . S
C335 C328 1.409 . S
C335 C334 1.362 . S
H336 C342 0.930 . S
H337 C345 0.930 . S
H338 C346 0.930 . S
H339 C347 0.930 . S
H340 C350 0.930 . S
H341 C351 0.930 . S
C342 H336 0.930 . S
C342 C343 1.355 . S
C342 C344 1.415 1_545 S
C343 C342 1.355 . S
C343 C345 1.419 1_455 S
C344 C342 1.415 1_565 S
C344 C349 1.425 1_465 S
C344 C351 1.409 . S
C345 H337 0.930 . S
C345 C343 1.419 1_655 S
C345 C346 1.362 . S
C346 H338 0.930 . S
C346 C345 1.362 . S
C346 C349 1.409 . S
C347 H339 0.930 . S
C347 C348 1.355 . S
C347 C349 1.415 1_565 S
C348 C347 1.355 . S
C348 C350 1.419 1_655 S
C349 C344 1.425 1_645 S
C349 C346 1.409 . S
C349 C347 1.415 1_545 S
C350 H340 0.930 . S
C350 C348 1.419 1_455 S
C350 C351 1.362 . S
C351 H341 0.930 . S
C351 C344 1.409 . S
C351 C350 1.362 . S
H352 C358 0.930 1_545 S
H353 C361 0.930 . S
H354 C362 0.930 . S
H355 C363 0.930 1_565 S
H356 C366 0.930 . S
H357 C367 0.930 . S
C358 H352 0.930 1_565 S
C358 C359 1.355 . S
C358 C360 1.415 1_565 S
C359 C358 1.355 . S
C359 C361 1.419 . S
C360 C358 1.415 1_545 S
C360 C365 1.425 1_545 S
C360 C367 1.409 . S
C361 H353 0.930 . S
C361 C359 1.419 . S
C361 C362 1.362 . S
C362 H354 0.930 . S
C362 C361 1.362 . S
C362 C365 1.409 . S
C363 H355 0.930 1_545 S
C363 C364 1.355 . S
C363 C365 1.415 1_545 S
C364 C363 1.355 . S
C364 C366 1.419 . S
C365 C360 1.425 1_565 S
C365 C362 1.409 . S
C365 C363 1.415 1_565 S
C366 H356 0.930 . S
C366 C364 1.419 . S
C366 C367 1.362 . S
C367 H357 0.930 . S
C367 C360 1.409 . S
C367 C366 1.362 . S
H368 C374 0.930 . S
H369 C377 0.930 . S
H370 C378 0.930 . S
H371 C379 0.930 . S
H372 C382 0.930 . S
H373 C383 0.930 . S
C374 H368 0.930 . S
C374 C375 1.355 . S
C374 C376 1.414 . S
C375 C374 1.355 . S
C375 C377 1.419 . S
C376 C374 1.414 . S
C376 C381 1.425 1_665 S
C376 C383 1.410 1_565 S
C377 H369 0.930 . S
C377 C375 1.419 . S
C377 C378 1.362 1_655 S
C378 H370 0.930 . S
C378 C377 1.362 1_455 S
C378 C381 1.410 1_565 S
C379 H371 0.930 . S
C379 C380 1.355 . S
C379 C381 1.414 . S
C380 C379 1.355 . S
C380 C382 1.419 . S
C381 C376 1.425 1_445 S
C381 C378 1.410 1_545 S
C381 C379 1.414 . S
C382 H372 0.930 . S
C382 C380 1.419 . S
C382 C383 1.362 1_455 S
C383 H373 0.930 . S
C383 C376 1.410 1_545 S
C383 C382 1.362 1_655 S
H384 C390 0.930 . S
H385 C393 0.930 . S
H386 C394 0.930 . S
H387 C395 0.930 . S
H388 C398 0.930 . S
H389 C399 0.930 . S
C390 H384 0.930 . S
C390 C391 1.355 . S
C390 C392 1.415 . S
C391 C390 1.355 . S
C391 C393 1.419 . S
C392 C390 1.415 . S
C392 C397 1.425 1_455 S
C392 C399 1.409 . S
C393 H385 0.930 . S
C393 C391 1.419 . S
C393 C394 1.362 1_455 S
C394 H386 0.930 . S
C394 C393 1.362 1_655 S
C394 C397 1.409 . S
C395 H387 0.930 . S
C395 C396 1.355 . S
C395 C397 1.415 . S
C396 C395 1.355 . S
C396 C398 1.419 . S
C397 C392 1.425 1_655 S
C397 C394 1.409 . S
C397 C395 1.415 . S
C398 H388 0.930 . S
C398 C396 1.419 . S
C398 C399 1.362 1_655 S
C399 H389 0.930 . S
C399 C392 1.409 . S
C399 C398 1.362 1_455 S
H400 C406 0.930 . S
H401 C409 0.930 . S
H402 C410 0.930 . S
H403 C411 0.930 . S
H404 C414 0.930 . S
H405 C415 0.930 . S
C406 H400 0.930 . S
C406 C407 1.355 . S
C406 C408 1.415 . S
C407 C406 1.355 . S
C407 C409 1.419 . S
C408 C406 1.415 . S
C408 C413 1.425 . S
C408 C415 1.409 . S
C409 H401 0.930 . S
C409 C407 1.419 . S
C409 C410 1.362 . S
C410 H402 0.930 . S
C410 C409 1.362 . S
C410 C413 1.409 . S
C411 H403 0.930 . S
C411 C412 1.355 . S
C411 C413 1.415 . S
C412 C411 1.355 . S
C412 C414 1.419 . S
C413 C408 1.425 . S
C413 C410 1.409 . S
C413 C411 1.415 . S
C414 H404 0.930 . S
C414 C412 1.419 . S
C414 C415 1.362 . S
C415 H405 0.930 . S
C415 C408 1.409 . S
C415 C414 1.362 . S
H416 C422 0.930 . S
H417 C425 0.930 . S
H418 C426 0.930 . S
H419 C427 0.930 . S
H420 C430 0.930 . S
H421 C431 0.930 . S
C422 H416 0.930 . S
C422 C423 1.355 . S
C422 C424 1.415 . S
C423 C422 1.355 . S
C423 C425 1.419 . S
C424 C422 1.415 . S
C424 C429 1.425 . S
C424 C431 1.409 . S
C425 H417 0.930 . S
C425 C423 1.419 . S
C425 C426 1.362 . S
C426 H418 0.930 . S
C426 C425 1.362 . S
C426 C429 1.409 . S
C427 H419 0.930 . S
C427 C428 1.355 . S
C427 C429 1.415 . S
C428 C427 1.355 . S
C428 C430 1.419 . S
C429 C424 1.425 . S
C429 C426 1.409 . S
C429 C427 1.415 . S
C430 H420 0.930 . S
C430 C428 1.419 . S
C430 C431 1.362 . S
C431 H421 0.930 . S
C431 C424 1.409 . S
C431 C430 1.362 . S
H432 C438 0.930 . S
H433 C441 0.930 . S
H434 C442 0.930 1_545 S
H435 C443 0.930 . S
H436 C446 0.930 . S
H437 C447 0.930 1_565 S
C438 H432 0.930 . S
C438 C439 1.355 . S
C438 C440 1.415 . S
C439 C438 1.355 . S
C439 C441 1.419 . S
C440 C438 1.415 . S
C440 C445 1.425 1_565 S
C440 C447 1.409 1_565 S
C441 H433 0.930 . S
C441 C439 1.419 . S
C441 C442 1.362 . S
C442 H434 0.930 1_565 S
C442 C441 1.362 . S
C442 C445 1.409 1_565 S
C443 H435 0.930 . S
C443 C444 1.355 . S
C443 C445 1.415 . S
C444 C443 1.355 . S
C444 C446 1.419 . S
C445 C440 1.425 1_545 S
C445 C442 1.409 1_545 S
C445 C443 1.415 . S
C446 H436 0.930 . S
C446 C444 1.419 . S
C446 C447 1.362 . S
C447 H437 0.930 1_545 S
C447 C440 1.409 1_545 S
C447 C446 1.362 . S
H448 C454 0.930 . S
H449 C457 0.930 . S
H450 C458 0.930 . S
H451 C459 0.930 . S
H452 C462 0.930 . S
H453 C463 0.930 . S
C454 H448 0.930 . S
C454 C455 1.355 . S
C454 C456 1.415 1_655 S
C455 C454 1.355 . S
C455 C457 1.419 1_565 S
C456 C454 1.415 1_455 S
C456 C461 1.425 1_465 S
C456 C463 1.409 . S
C457 H449 0.930 . S
C457 C455 1.419 1_545 S
C457 C458 1.362 . S
C458 H450 0.930 . S
C458 C457 1.362 . S
C458 C461 1.409 . S
C459 H451 0.930 . S
C459 C460 1.355 . S
C459 C461 1.415 1_455 S
C460 C459 1.355 . S
C460 C462 1.419 1_545 S
C461 C456 1.425 1_645 S
C461 C458 1.409 . S
C461 C459 1.415 1_655 S
C462 H452 0.930 . S
C462 C460 1.419 1_565 S
C462 C463 1.362 . S
C463 H453 0.930 . S
C463 C456 1.409 . S
C463 C462 1.362 . S
H464 C470 0.930 1_655 S
H465 C473 0.930 . S
H466 C474 0.930 . S
H467 C475 0.930 1_455 S
H468 C478 0.930 . S
H469 C479 0.930 . S
C470 H464 0.930 1_455 S
C470 C471 1.355 . S
C470 C472 1.415 1_455 S
C471 C470 1.355 . S
C471 C473 1.419 . S
C472 C470 1.415 1_655 S
C472 C477 1.425 1_655 S
C472 C479 1.409 . S
C473 H465 0.930 . S
C473 C471 1.419 . S
C473 C474 1.362 . S
C474 H466 0.930 . S
C474 C473 1.362 . S
C474 C477 1.409 . S
C475 H467 0.930 1_655 S
C475 C476 1.355 . S
C475 C477 1.415 1_655 S
C476 C475 1.355 . S
C476 C478 1.419 . S
C477 C472 1.425 1_455 S
C477 C474 1.409 . S
C477 C475 1.415 1_455 S
C478 H468 0.930 . S
C478 C476 1.419 . S
C478 C479 1.362 . S
C479 H469 0.930 . S
C479 C472 1.409 . S
C479 C478 1.362 . S
H480 C486 0.930 . S
H481 C489 0.930 . S
H482 C490 0.930 . S
H483 C491 0.930 . S
H484 C494 0.930 . S
H485 C495 0.930 . S
C486 H480 0.930 . S
C486 C487 1.355 . S
C486 C488 1.415 . S
C487 C486 1.355 . S
C487 C489 1.419 . S
C488 C486 1.415 . S
C488 C493 1.425 . S
C488 C495 1.409 . S
C489 H481 0.930 . S
C489 C487 1.419 . S
C489 C490 1.362 . S
C490 H482 0.930 . S
C490 C489 1.362 . S
C490 C493 1.409 . S
C491 H483 0.930 . S
C491 C492 1.355 . S
C491 C493 1.415 . S
C492 C491 1.355 . S
C492 C494 1.419 . S
C493 C488 1.425 . S
C493 C490 1.409 . S
C493 C491 1.415 . S
C494 H484 0.930 . S
C494 C492 1.419 . S
C494 C495 1.362 . S
C495 H485 0.930 . S
C495 C488 1.409 . S
C495 C494 1.362 . S
H496 C502 0.930 . S
H497 C505 0.930 . S
H498 C506 0.930 . S
H499 C507 0.930 . S
H500 C510 0.930 . S
H501 C511 0.930 . S
C502 H496 0.930 . S
C502 C503 1.355 . S
C502 C504 1.415 . S
C503 C502 1.355 . S
C503 C505 1.419 . S
C504 C502 1.415 . S
C504 C509 1.425 . S
C504 C511 1.409 . S
C505 H497 0.930 . S
C505 C503 1.419 . S
C505 C506 1.362 . S
C506 H498 0.930 . S
C506 C505 1.362 . S
C506 C509 1.409 . S
C507 H499 0.930 . S
C507 C508 1.355 . S
C507 C509 1.415 . S
C508 C507 1.355 . S
C508 C510 1.419 . S
C509 C504 1.425 . S
C509 C506 1.409 . S
C509 C507 1.415 . S
C510 H500 0.930 . S
C510 C508 1.419 . S
C510 C511 1.362 . S
C511 H501 0.930 . S
C511 C504 1.409 . S
C511 C510 1.362 . S
H512 C518 0.930 . S
H513 C521 0.930 . S
H514 C522 0.930 . S
H515 C523 0.930 . S
H516 C526 0.930 . S
H517 C527 0.930 . S
C518 H512 0.930 . S
C518 C519 1.355 . S
C518 C520 1.415 . S
C519 C518 1.355 . S
C519 C521 1.419 . S
C520 C518 1.415 . S
C520 C525 1.425 . S
C520 C527 1.409 . S
C521 H513 0.930 . S
C521 C519 1.419 . S
C521 C522 1.362 . S
C522 H514 0.930 . S
C522 C521 1.362 . S
C522 C525 1.409 . S
C523 H515 0.930 . S
C523 C524 1.355 . S
C523 C525 1.415 . S
C524 C523 1.355 . S
C524 C526 1.419 . S
C525 C520 1.425 . S
C525 C522 1.409 . S
C525 C523 1.415 . S
C526 H516 0.930 . S
C526 C524 1.419 . S
C526 C527 1.362 . S
C527 H517 0.930 . S
C527 C520 1.409 . S
C527 C526 1.362 . S
H528 C534 0.930 . S
H529 C537 0.930 . S
H530 C538 0.930 . S
H531 C539 0.930 . S
H532 C542 0.930 . S
H533 C543 0.930 . S
C534 H528 0.930 . S
C534 C535 1.355 . S
C534 C536 1.415 . S
C535 C534 1.355 . S
C535 C537 1.419 . S
C536 C534 1.415 . S
C536 C541 1.425 . S
C536 C543 1.409 . S
C537 H529 0.930 . S
C537 C535 1.419 . S
C537 C538 1.362 . S
C538 H530 0.930 . S
C538 C537 1.362 . S
C538 C541 1.409 . S
C539 H531 0.930 . S
C539 C540 1.355 . S
C539 C541 1.415 . S
C540 C539 1.355 . S
C540 C542 1.419 . S
C541 C536 1.425 . S
C541 C538 1.409 . S
C541 C539 1.415 . S
C542 H532 0.930 . S
C542 C540 1.419 . S
C542 C543 1.362 . S
C543 H533 0.930 . S
C543 C536 1.409 . S
C543 C542 1.362 . S
H544 C550 0.930 . S
H545 C553 0.930 . S
H546 C554 0.930 . S
H547 C555 0.930 . S
H548 C558 0.930 . S
H549 C559 0.930 . S
C550 H544 0.930 . S
C550 C551 1.355 . S
C550 C552 1.415 . S
C551 C550 1.355 . S
C551 C553 1.419 . S
C552 C550 1.415 . S
C552 C557 1.425 . S
C552 C559 1.409 . S
C553 H545 0.930 . S
C553 C551 1.419 . S
C553 C554 1.362 . S
C554 H546 0.930 . S
C554 C553 1.362 . S
C554 C557 1.409 . S
C555 H547 0.930 . S
C555 C556 1.355 . S
C555 C557 1.415 . S
C556 C555 1.355 . S
C556 C558 1.419 . S
C557 C552 1.425 . S
C557 C554 1.409 . S
C557 C555 1.415 . S
C558 H548 0.930 . S
C558 C556 1.419 . S
C558 C559 1.362 . S
C559 H549 0.930 . S
C559 C552 1.409 . S
C559 C558 1.362 . S
H560 C566 0.930 . S
H561 C569 0.930 . S
H562 C570 0.930 . S
H563 C571 0.930 . S
H564 C574 0.930 . S
H565 C575 0.930 . S
C566 H560 0.930 . S
C566 C567 1.355 . S
C566 C568 1.415 . S
C567 C566 1.355 . S
C567 C569 1.419 . S
C568 C566 1.415 . S
C568 C573 1.425 . S
C568 C575 1.409 . S
C569 H561 0.930 . S
C569 C567 1.419 . S
C569 C570 1.362 . S
C570 H562 0.930 . S
C570 C569 1.362 . S
C570 C573 1.409 . S
C571 H563 0.930 . S
C571 C572 1.355 . S
C571 C573 1.415 . S
C572 C571 1.355 . S
C572 C574 1.419 . S
C573 C568 1.425 . S
C573 C570 1.409 . S
C573 C571 1.415 . S
C574 H564 0.930 . S
C574 C572 1.419 . S
C574 C575 1.362 . S
C575 H565 0.930 . S
C575 C568 1.409 . S
C575 C574 1.362 . S
H576 C582 0.930 . S
H577 C585 0.930 . S
H578 C586 0.930 . S
H579 C587 0.930 . S
H580 C590 0.930 . S
H581 C591 0.930 . S
C582 H576 0.930 . S
C582 C583 1.355 . S
C582 C584 1.415 . S
C583 C582 1.355 . S
C583 C585 1.419 . S
C584 C582 1.415 . S
C584 C589 1.425 . S
C584 C591 1.409 . S
C585 H577 0.930 . S
C585 C583 1.419 . S
C585 C586 1.362 . S
C586 H578 0.930 . S
C586 C585 1.362 . S
C586 C589 1.409 . S
C587 H579 0.930 . S
C587 C588 1.355 . S
C587 C589 1.415 . S
C588 C587 1.355 . S
C588 C590 1.419 . S
C589 C584 1.425 . S
C589 C586 1.409 . S
C589 C587 1.415 . S
C590 H580 0.930 . S
C590 C588 1.419 . S
C590 C591 1.362 . S
C591 H581 0.930 . S
C591 C584 1.409 . S
C591 C590 1.362 . S
H592 C598 0.930 . S
H593 C601 0.930 . S
H594 C602 0.930 . S
H595 C603 0.930 . S
H596 C606 0.930 . S
H597 C607 0.930 . S
C598 H592 0.930 . S
C598 C599 1.355 . S
C598 C600 1.415 . S
C599 C598 1.355 . S
C599 C601 1.419 . S
C600 C598 1.415 . S
C600 C605 1.425 . S
C600 C607 1.409 . S
C601 H593 0.930 . S
C601 C599 1.419 . S
C601 C602 1.362 . S
C602 H594 0.930 . S
C602 C601 1.362 . S
C602 C605 1.409 . S
C603 H595 0.930 . S
C603 C604 1.355 . S
C603 C605 1.415 . S
C604 C603 1.355 . S
C604 C606 1.419 . S
C605 C600 1.425 . S
C605 C602 1.409 . S
C605 C603 1.415 . S
C606 H596 0.930 . S
C606 C604 1.419 . S
C606 C607 1.362 . S
C607 H597 0.930 . S
C607 C600 1.409 . S
C607 C606 1.362 . S
H608 C614 0.930 . S
H609 C617 0.930 . S
H610 C618 0.930 . S
H611 C619 0.930 . S
H612 C622 0.930 . S
H613 C623 0.930 . S
C614 H608 0.930 . S
C614 C615 1.355 . S
C614 C616 1.415 . S
C615 C614 1.355 . S
C615 C617 1.419 . S
C616 C614 1.415 . S
C616 C621 1.425 . S
C616 C623 1.409 . S
C617 H609 0.930 . S
C617 C615 1.419 . S
C617 C618 1.362 . S
C618 H610 0.930 . S
C618 C617 1.362 . S
C618 C621 1.409 . S
C619 H611 0.930 . S
C619 C620 1.355 . S
C619 C621 1.415 . S
C620 C619 1.355 . S
C620 C622 1.419 . S
C621 C616 1.425 . S
C621 C618 1.409 . S
C621 C619 1.415 . S
C622 H612 0.930 . S
C622 C620 1.419 . S
C622 C623 1.362 . S
C623 H613 0.930 . S
C623 C616 1.409 . S
C623 C622 1.362 . S
H624 C630 0.930 . S
H625 C633 0.930 . S
H626 C634 0.930 . S
H627 C635 0.930 . S
H628 C638 0.930 . S
H629 C639 0.930 . S
C630 H624 0.930 . S
C630 C631 1.355 . S
C630 C632 1.415 . S
C631 C630 1.355 . S
C631 C633 1.419 . S
C632 C630 1.415 . S
C632 C637 1.425 . S
C632 C639 1.409 . S
C633 H625 0.930 . S
C633 C631 1.419 . S
C633 C634 1.362 . S
C634 H626 0.930 . S
C634 C633 1.362 . S
C634 C637 1.409 . S
C635 H627 0.930 . S
C635 C636 1.355 . S
C635 C637 1.415 . S
C636 C635 1.355 . S
C636 C638 1.419 . S
C637 C632 1.425 . S
C637 C634 1.409 . S
C637 C635 1.415 . S
C638 H628 0.930 . S
C638 C636 1.419 . S
C638 C639 1.362 . S
C639 H629 0.930 . S
C639 C632 1.409 . S
C639 C638 1.362 . S
H640 C646 0.930 . S
H641 C649 0.930 . S
H642 C650 0.930 . S
H643 C651 0.930 . S
H644 C654 0.930 . S
H645 C655 0.930 . S
C646 H640 0.930 . S
C646 C647 1.355 . S
C646 C648 1.415 . S
C647 C646 1.355 . S
C647 C649 1.419 . S
C648 C646 1.415 . S
C648 C653 1.425 . S
C648 C655 1.409 . S
C649 H641 0.930 . S
C649 C647 1.419 . S
C649 C650 1.362 . S
C650 H642 0.930 . S
C650 C649 1.362 . S
C650 C653 1.409 . S
C651 H643 0.930 . S
C651 C652 1.355 . S
C651 C653 1.415 . S
C652 C651 1.355 . S
C652 C654 1.419 . S
C653 C648 1.425 . S
C653 C650 1.409 . S
C653 C651 1.415 . S
C654 H644 0.930 . S
C654 C652 1.419 . S
C654 C655 1.362 . S
C655 H645 0.930 . S
C655 C648 1.409 . S
C655 C654 1.362 . S
H656 C662 0.930 . S
H657 C665 0.930 . S
H658 C666 0.915 1_554 S
H659 C667 0.930 . S
H660 C670 0.930 . S
H661 C671 0.915 1_556 S
C662 H656 0.930 . S
C662 C663 1.355 . S
C662 C664 1.415 . S
C663 C662 1.355 . S
C663 C665 1.419 . S
C664 C662 1.415 . S
C664 C669 1.425 1_556 S
C664 C671 1.409 1_556 S
C665 H657 0.930 . S
C665 C663 1.419 . S
C665 C666 1.362 . S
C666 H658 0.915 1_556 S
C666 C665 1.362 . S
C666 C669 1.409 1_556 S
C667 H659 0.930 . S
C667 C668 1.355 . S
C667 C669 1.415 . S
C668 C667 1.355 . S
C668 C670 1.419 . S
C669 C664 1.425 1_554 S
C669 C666 1.409 1_554 S
C669 C667 1.415 . S
C670 H660 0.930 . S
C670 C668 1.419 . S
C670 C671 1.362 . S
C671 H661 0.915 1_554 S
C671 C664 1.409 1_554 S
C671 C670 1.362 . S
H672 C678 0.930 . S
H673 C681 0.930 . S
H674 C682 0.960 . S
H675 C683 0.930 . S
H676 C686 0.930 . S
H677 C687 0.960 . S
C678 H672 0.930 . S
C678 C679 1.355 . S
C678 C680 1.415 . S
C679 C678 1.355 . S
C679 C681 1.419 . S
C680 C678 1.415 . S
C680 C685 1.425 1_554 S
C680 C687 1.409 1_554 S
C681 H673 0.930 . S
C681 C679 1.419 . S
C681 C682 1.362 . S
C682 H674 0.960 . S
C682 C681 1.362 . S
C682 C685 1.409 1_554 S
C683 H675 0.930 . S
C683 C684 1.355 . S
C683 C685 1.415 . S
C684 C683 1.355 . S
C684 C686 1.419 . S
C685 C680 1.425 1_556 S
C685 C682 1.409 1_556 S
C685 C683 1.415 . S
C686 H676 0.930 . S
C686 C684 1.419 . S
C686 C687 1.362 . S
C687 H677 0.960 . S
C687 C680 1.409 1_556 S
C687 C686 1.362 . S
H688 C694 0.930 . S
H689 C697 0.930 . S
H690 C698 0.930 . S
H691 C699 0.930 . S
H692 C702 0.930 . S
H693 C703 0.930 . S
C694 H688 0.930 . S
C694 C695 1.355 . S
C694 C696 1.415 . S
C695 C694 1.355 . S
C695 C697 1.419 . S
C696 C694 1.415 . S
C696 C701 1.425 . S
C696 C703 1.409 . S
C697 H689 0.930 . S
C697 C695 1.419 . S
C697 C698 1.362 . S
C698 H690 0.930 . S
C698 C697 1.362 . S
C698 C701 1.409 . S
C699 H691 0.930 . S
C699 C700 1.355 . S
C699 C701 1.415 . S
C700 C699 1.355 . S
C700 C702 1.419 . S
C701 C696 1.425 . S
C701 C698 1.409 . S
C701 C699 1.415 . S
C702 H692 0.930 . S
C702 C700 1.419 . S
C702 C703 1.362 . S
C703 H693 0.930 . S
C703 C696 1.409 . S
C703 C702 1.362 . S
H704 C710 0.930 . S
H705 C713 0.930 . S
H706 C714 0.930 . S
H707 C715 0.930 . S
H708 C718 0.930 . S
H709 C719 0.930 . S
C710 H704 0.930 . S
C710 C711 1.355 . S
C710 C712 1.415 . S
C711 C710 1.355 . S
C711 C713 1.419 . S
C712 C710 1.415 . S
C712 C717 1.425 . S
C712 C719 1.409 . S
C713 H705 0.930 . S
C713 C711 1.419 . S
C713 C714 1.362 . S
C714 H706 0.930 . S
C714 C713 1.362 . S
C714 C717 1.409 . S
C715 H707 0.930 . S
C715 C716 1.355 . S
C715 C717 1.415 . S
C716 C715 1.355 . S
C716 C718 1.419 . S
C717 C712 1.425 . S
C717 C714 1.409 . S
C717 C715 1.415 . S
C718 H708 0.930 . S
C718 C716 1.419 . S
C718 C719 1.362 . S
C719 H709 0.930 . S
C719 C712 1.409 . S
C719 C718 1.362 . S
H720 C726 0.930 . S
H721 C729 0.930 . S
H722 C730 0.930 . S
H723 C731 0.930 . S
H724 C734 0.930 . S
H725 C735 0.930 . S
C726 H720 0.930 . S
C726 C727 1.355 . S
C726 C728 1.415 . S
C727 C726 1.355 . S
C727 C729 1.419 . S
C728 C726 1.415 . S
C728 C733 1.425 . S
C728 C735 1.409 . S
C729 H721 0.930 . S
C729 C727 1.419 . S
C729 C730 1.362 . S
C730 H722 0.930 . S
C730 C729 1.362 . S
C730 C733 1.409 . S
C731 H723 0.930 . S
C731 C732 1.355 . S
C731 C733 1.415 . S
C732 C731 1.355 . S
C732 C734 1.419 . S
C733 C728 1.425 . S
C733 C730 1.409 . S
C733 C731 1.415 . S
C734 H724 0.930 . S
C734 C732 1.419 . S
C734 C735 1.362 . S
C735 H725 0.930 . S
C735 C728 1.409 . S
C735 C734 1.362 . S
C231 C151 1.524 . S
C236 C11 1.526 . S
C247 C25 1.526 . S
C252 C165 1.524 . S
C263 C123 1.527 . S
C268 C39 1.521 . S
C279 C137 1.527 . S
C284 C53 1.515 . S
C295 C67 1.525 . S
C300 C207 1.525 . S
C311 C221 1.497 . S
C316 C81 1.488 . S
C327 C95 1.527 . S
C332 C179 1.520 . S
C343 C193 1.489 . S
C348 C109 1.502 . S
C359 C145 1.550 . S
C364 C5 1.550 . S
C375 C19 1.550 . S
C380 C159 1.550 . S
C391 C33 1.550 . S
C396 C117 1.550 . S
C407 C47 1.550 . S
C412 C131 1.550 . S
C423 C61 1.550 . S
C428 C201 1.550 . S
C439 C75 1.550 . S
C444 C215 1.550 . S
C455 C173 1.550 . S
C460 C89 1.550 . S
C471 C187 1.550 . S
C476 C103 1.550 . S
C487 C9 1.266 . S
C492 C93 1.298 . S
C503 C23 1.300 . S
C508 C107 1.265 . S
C519 C37 1.262 . S
C524 C65 1.321 . S
C535 C51 1.323 . S
C540 C79 1.258 . S
C551 C121 1.253 . S
C556 C205 1.318 . S
C567 C219 1.261 . S
C572 C135 1.305 . S
C583 C149 1.281 . S
C588 C177 1.308 . S
C599 C191 1.308 . S
C604 C163 1.281 . S
C615 C0 1.278 . S
C620 C210 1.319 . S
C631 C168 1.303 . S
C636 C14 1.289 . S
C647 C182 1.334 . S
C652 C28 1.283 . S
C663 C196 1.307 . S
C668 C42 1.286 . S
C679 C126 1.285 . S
C684 C56 1.308 . S
C695 C140 1.300 . S
C700 C70 1.291 . S
C711 C84 1.317 . S
C716 C154 1.279 . S
C727 C98 1.281 . S
C732 C112 1.334 . S
