# Generated by pormake.
# Topology sml, (6)-cn, num edge types: 1
# Building blocks:
#     Node 0, Type 0, BuildingBlock: CUKXOW_clean_sbu_0, # of connection points: 6
#     Node 1, Type 0, BuildingBlock: CUKXOW_clean_sbu_0, # of connection points: 6
#     Node 2, Type 0, BuildingBlock: CUKXOW_clean_sbu_0, # of connection points: 6
#     Node 3, Type 0, BuildingBlock: CUKXOW_clean_sbu_0, # of connection points: 6
#     Node 4, Type 0, BuildingBlock: CUKXOW_clean_sbu_0, # of connection points: 6
#     Node 5, Type 0, BuildingBlock: CUKXOW_clean_sbu_0, # of connection points: 6
#     Edge 6, Type (0, 0), BuildingBlock: CIFDUS_clean_linker_0, # of connection points: 2
#     Edge 7, Type (0, 0), BuildingBlock: CIFDUS_clean_linker_0, # of connection points: 2
#     Edge 8, Type (0, 0), BuildingBlock: CIFDUS_clean_linker_0, # of connection points: 2
#     Edge 9, Type (0, 0), BuildingBlock: CIFDUS_clean_linker_0, # of connection points: 2
#     Edge 10, Type (0, 0), BuildingBlock: CIFDUS_clean_linker_0, # of connection points: 2
#     Edge 11, Type (0, 0), BuildingBlock: CIFDUS_clean_linker_0, # of connection points: 2
#     Edge 12, Type (0, 0), BuildingBlock: CIFDUS_clean_linker_0, # of connection points: 2
#     Edge 13, Type (0, 0), BuildingBlock: CIFDUS_clean_linker_0, # of connection points: 2
#     Edge 14, Type (0, 0), BuildingBlock: CIFDUS_clean_linker_0, # of connection points: 2
#     Edge 15, Type (0, 0), BuildingBlock: CIFDUS_clean_linker_0, # of connection points: 2
#     Edge 16, Type (0, 0), BuildingBlock: CIFDUS_clean_linker_0, # of connection points: 2
#     Edge 17, Type (0, 0), BuildingBlock: CIFDUS_clean_linker_0, # of connection points: 2
#     Edge 18, Type (0, 0), BuildingBlock: CIFDUS_clean_linker_0, # of connection points: 2
#     Edge 19, Type (0, 0), BuildingBlock: CIFDUS_clean_linker_0, # of connection points: 2
#     Edge 20, Type (0, 0), BuildingBlock: CIFDUS_clean_linker_0, # of connection points: 2
#     Edge 21, Type (0, 0), BuildingBlock: CIFDUS_clean_linker_0, # of connection points: 2
#     Edge 22, Type (0, 0), BuildingBlock: CIFDUS_clean_linker_0, # of connection points: 2
#     Edge 23, Type (0, 0), BuildingBlock: CIFDUS_clean_linker_0, # of connection points: 2
# Relax obj value: 0.150
# Max RMSD: 0.194
# Mean RMSD: 0.194
data_MOF--net-sml--node1-CUKXOW_clean_sbu_0--edge1-CIFDUS_clean_linker_0
_symmetry_space_group_name_H-M    P1
_symmetry_Int_Tables_number       1
_symmetry_cell_setting            triclinic
loop_
_symmetry_equiv_pos_as_xyz
'x, y, z'
_cell_length_a     38.130254
_cell_length_b     38.156048
_cell_length_c     12.499979
_cell_angle_alpha  89.437338
_cell_angle_beta   90.741353
_cell_angle_gamma 119.87412
loop_
_atom_site_label
_atom_site_type_symbol
_atom_site_fract_x
_atom_site_fract_y
_atom_site_fract_z
_atom_type_partial_charge
Tb0 Tb 0.19976 0.38598 1.03579 0.0
C1 C 0.11043 0.3552 0.09689 0.0
Tb2 Tb 0.17355 0.44846 0.06133 0.0
O3 O 0.18888 0.37 0.20485 0.0
O4 O 0.20769 0.4291 0.15432 0.0
O5 O 0.13485 0.34466 0.04974 0.0
C6 C 0.153 0.50106 0.13621 0.0
O7 O 0.12097 0.39333 0.11732 0.0
C8 C 0.17716 0.42918 0.86231 0.0
C9 C 0.26173 0.479 0.99277 0.0
O10 O 0.13991 0.48133 0.04703 0.0
O11 O 0.17665 0.49033 0.18326 0.0
O12 O 0.18251 0.46408 0.89134 0.0
O13 O 0.16606 0.40567 0.94216 0.0
O14 O 0.23751 0.48882 1.04247 0.0
O15 O 0.25144 0.44107 0.97154 0.0
C16 C 0.23545 0.34347 0.98563 0.0
O17 O 0.2449 0.36813 0.06506 0.0
O18 O 0.20502 0.34204 0.93336 0.0
C19 C 0.19596 0.40545 0.23408 0.0
Tb20 Tb 0.81705 0.21039 0.40925 0.0
C21 C 0.74923 0.12135 0.44945 0.0
Tb22 Tb 0.72573 0.19021 0.43518 0.0
O23 O 0.82014 0.19571 0.57832 0.0
O24 O 0.77977 0.21414 0.52805 0.0
O25 O 0.78431 0.14452 0.40043 0.0
C26 C 0.66135 0.18575 0.52954 0.0
O27 O 0.7252 0.13494 0.48358 0.0
C28 C 0.74525 0.18872 0.23266 0.0
C29 C 0.79238 0.27847 0.37175 0.0
O30 O 0.66024 0.15845 0.46571 0.0
O31 O 0.69829 0.21501 0.53923 0.0
O32 O 0.70986 0.18252 0.26148 0.0
O33 O 0.7652 0.19412 0.31731 0.0
O34 O 0.75574 0.25482 0.41076 0.0
O35 O 0.81904 0.26631 0.35412 0.0
C36 C 0.89444 0.2395 0.36111 0.0
O37 O 0.88074 0.25299 0.43508 0.0
O38 O 0.86432 0.20902 0.31302 0.0
C39 C 0.78982 0.1999 0.60642 0.0
Tb40 Tb 0.60204 0.81432 0.6928 0.0
C41 C 0.62823 0.74939 0.73177 0.0
Tb42 Tb 0.535 0.7227 0.7181 0.0
O43 O 0.61985 0.81561 0.86032 0.0
O44 O 0.56051 0.77621 0.8116 0.0
O45 O 0.63882 0.78501 0.6859 0.0
C46 C 0.47505 0.65269 0.78922 0.0
O47 O 0.59071 0.72316 0.7626 0.0
C48 C 0.55819 0.74195 0.5164 0.0
C49 C 0.50931 0.78777 0.67434 0.0
O50 O 0.51265 0.66841 0.81991 0.0
O51 O 0.47183 0.67613 0.71897 0.0
O52 O 0.53081 0.70605 0.54652 0.0
O53 O 0.57021 0.76281 0.59934 0.0
O54 O 0.50056 0.75393 0.72605 0.0
O55 O 0.5463 0.81314 0.63929 0.0
C56 C 0.64473 0.89317 0.65138 0.0
O57 O 0.61945 0.87629 0.72894 0.0
O58 O 0.6465 0.86541 0.59544 0.0
C59 C 0.58495 0.78612 0.88939 0.0
Tb60 Tb 0.77854 0.59763 1.01271 0.0
C61 C 0.87412 0.63202 1.03773 0.0
Tb62 Tb 0.81163 0.53925 1.02951 0.0
O63 O 0.75475 0.58091 0.17502 0.0
O64 O 0.80655 0.57994 0.13181 0.0
O65 O 0.84492 0.64008 1.00892 0.0
C66 C 0.82592 0.48217 0.10776 0.0
O67 O 0.8665 0.59502 0.06295 0.0
C68 C 0.8088 0.5644 0.83566 0.0
C69 C 0.71698 0.50367 0.99579 0.0
O70 O 0.83779 0.49958 1.01502 0.0
O71 O 0.80627 0.49702 0.1556 0.0
O72 O 0.83414 0.55266 0.86564 0.0
O73 O 0.78424 0.55726 0.90997 0.0
O74 O 0.74657 0.49719 1.02804 0.0
O75 O 0.72322 0.54056 0.97395 0.0
C76 C 0.75382 0.65056 0.96472 0.0
O77 O 0.77134 0.63821 0.89832 0.0
O78 O 0.75121 0.63371 0.05689 0.0
C79 C 0.78165 0.57153 0.20574 0.0
Tb80 Tb 0.17292 0.78445 0.34029 0.0
C81 C 0.23417 0.87322 0.40281 0.0
Tb82 Tb 0.26121 0.80712 0.37641 0.0
O83 O 0.16627 0.79477 0.50948 0.0
O84 O 0.20674 0.77604 0.46384 0.0
O85 O 0.19918 0.84958 0.35355 0.0
C86 C 0.33423 0.82573 0.45497 0.0
O87 O 0.26067 0.86139 0.42848 0.0
C88 C 0.23804 0.80223 0.17454 0.0
C89 C 0.19927 0.71765 0.32462 0.0
O90 O 0.32761 0.8381 0.36375 0.0
O91 O 0.29992 0.80382 0.502 0.0
O92 O 0.26612 0.79478 0.20735 0.0
O93 O 0.22711 0.81515 0.25235 0.0
O94 O 0.2335 0.74214 0.37503 0.0
O95 O 0.17414 0.72993 0.28925 0.0
C96 C 0.09795 0.75551 0.26081 0.0
O97 O 0.10817 0.74108 0.34204 0.0
O98 O 0.13021 0.78647 0.22337 0.0
C99 C 0.1949 0.78802 0.54202 0.0
Tb100 Tb 0.3716 0.16696 0.71573 0.0
C101 C 0.35135 0.23498 0.75979 0.0
Tb102 Tb 0.44204 0.25174 0.74386 0.0
O103 O 0.35504 0.16584 0.88278 0.0
O104 O 0.4157 0.19859 0.83772 0.0
O105 O 0.33694 0.19825 0.71852 0.0
C106 C 0.50171 0.32307 0.81348 0.0
O107 O 0.39043 0.25932 0.78188 0.0
C108 C 0.42112 0.2306 0.54322 0.0
C109 C 0.46067 0.18362 0.70034 0.0
O110 O 0.46508 0.30478 0.85016 0.0
O111 O 0.50419 0.30148 0.73807 0.0
O112 O 0.45684 0.2582 0.5734 0.0
O113 O 0.39798 0.22054 0.62228 0.0
O114 O 0.47105 0.21549 0.76142 0.0
O115 O 0.4237 0.16292 0.65954 0.0
C116 C 0.32213 0.08948 0.66582 0.0
O117 O 0.34283 0.10288 0.7535 0.0
O118 O 0.32863 0.12001 0.6052 0.0
C119 C 0.39169 0.19062 0.91448 0.0
H120 H 0.36223 0.28719 0.91535 0.0
H121 H 0.27725 0.21444 0.66969 0.0
H122 H 0.23274 0.24118 0.71786 0.0
H123 H 0.21936 0.28724 0.82884 0.0
H124 H 0.30492 0.35673 0.07793 0.0
H125 H 0.34782 0.32926 1.02926 0.0
C126 C 0.33406 0.27727 0.87174 0.0
C127 C 0.32327 0.24943 0.7881 0.0
C128 C 0.30871 0.29219 0.90074 0.0
C129 C 0.28623 0.23607 0.73419 0.0
C130 C 0.26087 0.25139 0.76162 0.0
C131 C 0.2473 0.29607 0.87239 0.0
C132 C 0.25908 0.32409 0.95644 0.0
C133 C 0.27194 0.27973 0.84457 0.0
C134 C 0.29519 0.33523 1.01288 0.0
C135 C 0.31985 0.31962 0.98507 0.0
H136 H 0.07877 0.35612 0.28426 0.0
H137 H 0.05368 0.28504 0.99849 0.0
H138 H 0.98403 0.23977 0.05912 0.0
H139 H 0.92864 0.2251 0.18726 0.0
H140 H 0.95658 0.29824 0.47111 0.0
H141 H 0.02687 0.33793 0.41782 0.0
C142 C 0.05809 0.33048 0.23562 0.0
C143 C 0.07076 0.32409 0.13661 0.0
C144 C 0.01863 0.30517 0.27057 0.0
C145 C 0.04427 0.29042 0.07507 0.0
C146 C 0.00451 0.26479 0.10948 0.0
C147 C 0.95037 0.24935 0.23781 0.0
C148 C 0.93746 0.25909 0.3323 0.0
C149 C 0.99105 0.2725 0.20608 0.0
C150 C 0.96576 0.29044 0.39753 0.0
C151 C 0.00596 0.3132 0.36718 0.0
H152 H 0.70487 0.0784 0.61633 0.0
H153 H 0.7659 0.06925 0.33919 0.0
H154 H 0.74011 -0.00276 0.37814 0.0
H155 H 0.69686 0.93594 0.48826 0.0
H156 H 0.63805 0.94854 0.76636 0.0
H157 H 0.66634 0.0201 0.72967 0.0
C158 C 0.71254 0.06069 0.56412 0.0
C159 C 0.73666 0.07881 0.47419 0.0
C160 C 0.69791 0.01986 0.58725 0.0
C161 C 0.74718 0.05579 0.40883 0.0
C162 C 0.73235 0.01465 0.43092 0.0
C163 C 0.69062 0.95456 0.54086 0.0
C164 C 0.66517 0.93694 0.62936 0.0
C165 C 0.70721 -0.00381 0.51942 0.0
C166 C 0.65737 0.9613 0.6974 0.0
C167 C 0.67349 0.00228 0.67657 0.0
H168 H 0.63956 0.7245 0.92247 0.0
H169 H 0.68656 0.75062 0.6025 0.0
H170 H 0.73206 0.72401 0.64681 0.0
H171 H 0.75412 0.68796 0.77496 0.0
H172 H 0.70778 0.6657 0.0967 0.0
H173 H 0.66669 0.6964 0.05385 0.0
C174 C 0.66013 0.72472 0.86284 0.0
C175 C 0.6596 0.73893 0.75932 0.0
C176 C 0.68616 0.70989 0.88929 0.0
C177 C 0.68663 0.73975 0.68284 0.0
C178 C 0.7124 0.72436 0.7081 0.0
C179 C 0.73543 0.69041 0.83572 0.0
C180 C 0.73367 0.67417 0.93853 0.0
C181 C 0.71185 0.70856 0.81071 0.0
C182 C 0.70955 0.67775 1.01686 0.0
C183 C 0.68591 0.69522 0.99246 0.0
H184 H 0.04029 0.77594 0.20712 0.0
H185 H 0.07114 0.68191 0.18151 0.0
H186 H 0.0066 0.63793 0.09333 0.0
H187 H 0.93983 0.62377 1.03942 0.0
H188 H 0.90346 0.71327 0.07875 0.0
H189 H 0.97198 0.76201 0.14267 0.0
C190 C 0.03277 0.74598 0.18081 0.0
C191 C 0.06003 0.73184 0.20063 0.0
C192 C -0.00523 0.72021 0.13284 0.0
C193 C 0.0503 0.69306 0.16733 0.0
C194 C 0.01351 0.668 0.11687 0.0
C195 C 0.94679 0.65406 0.06106 0.0
C196 C 0.91641 0.66469 0.05568 0.0
C197 C 0.98525 0.6809 0.1016 0.0
C198 C 0.92631 0.70432 0.08202 0.0
C199 C 0.96537 0.73202 0.11958 0.0
H200 H 0.28197 0.05508 0.47843 0.0
H201 H 0.31533 0.02755 0.78611 0.0
H202 H 0.28965 0.95782 0.73249 0.0
H203 H 0.2628 0.90597 0.59447 0.0
H204 H 0.22576 0.93032 0.28893 0.0
H205 H 0.24753 -0.00012 0.345 0.0
C206 C 0.28298 0.03356 0.5339 0.0
C207 C 0.3009 0.04648 0.63553 0.0
C208 C 0.26794 0.99314 0.50259 0.0
C209 C 0.3019 0.01838 0.70715 0.0
C210 C 0.28736 0.9785 0.67655 0.0
C211 C 0.25938 0.92656 0.54046 0.0
C212 C 0.24352 0.91368 0.43746 0.0
C213 C 0.27125 0.96584 0.57382 0.0
C214 C 0.2382 0.93998 0.36861 0.0
C215 C 0.2507 0.97964 0.40058 0.0
H216 H 0.20569 0.47943 0.69156 0.0
H217 H 0.15228 0.35392 0.78187 0.0
H218 H 0.15295 0.33562 0.59482 0.0
H219 H 0.16789 0.35533 0.4053 0.0
H220 H 0.22405 0.48117 0.31636 0.0
H221 H 0.22257 0.49937 0.5028 0.0
C222 C 0.19419 0.44806 0.67017 0.0
C223 C 0.17876 0.41799 0.75018 0.0
C224 C 0.19484 0.43787 0.56265 0.0
C225 C 0.16431 0.37756 0.72168 0.0
C226 C 0.1646 0.36711 0.61474 0.0
C227 C 0.1798 0.38675 0.42678 0.0
C228 C 0.19535 0.41683 0.34674 0.0
C229 C 0.17963 0.39699 0.53452 0.0
C230 C 0.21096 0.45739 0.37588 0.0
C231 C 0.21046 0.46782 0.48269 0.0
H232 H 0.70133 0.17389 0.04909 0.0
H233 H 0.82163 0.21243 0.16698 0.0
H234 H 0.84589 0.21813 0.98413 0.0
H235 H 0.83289 0.21287 0.78962 0.0
H236 H 0.71274 0.17425 0.67115 0.0
H237 H 0.68827 0.16842 0.85407 0.0
C238 C 0.73284 0.18349 1.03454 0.0
C239 C 0.75968 0.19224 0.12157 0.0
C240 C 0.74654 0.1871 0.92874 0.0
C241 C 0.80038 0.20484 0.10159 0.0
C242 C 0.81425 0.20833 0.99688 0.0
C243 C 0.80135 0.20319 0.80414 0.0
C244 C 0.77476 0.19522 0.71703 0.0
C245 C 0.78761 0.19952 0.90979 0.0
C246 C 0.734 0.18237 0.73668 0.0
C247 C 0.71996 0.17843 0.84145 0.0
H248 H 0.51472 0.70644 0.33843 0.0
H249 H 0.62722 0.80764 0.44582 0.0
H250 H 0.64612 0.82943 0.26001 0.0
H251 H 0.63025 0.81955 0.06723 0.0
H252 H 0.51517 0.72159 0.96125 0.0
H253 H 0.49763 0.6982 0.14619 0.0
C254 C 0.5434 0.73322 0.32086 0.0
C255 C 0.56968 0.75548 0.40508 0.0
C256 C 0.55355 0.74588 0.21427 0.0
C257 C 0.60651 0.79031 0.38197 0.0
C258 C 0.61732 0.8026 0.27589 0.0
C259 C 0.60139 0.793 0.08472 0.0
C260 C 0.57424 0.77185 1.00077 0.0
C261 C 0.59105 0.78062 0.19144 0.0
C262 C 0.53675 0.73791 1.02445 0.0
C263 C 0.52666 0.7247 0.13017 0.0
H264 H 0.84949 0.56325 0.6613 0.0
H265 H 0.74715 0.57407 0.75844 0.0
H266 H 0.72862 0.57557 0.57142 0.0
H267 H 0.74095 0.57273 0.38017 0.0
H268 H 0.84386 0.56289 0.28313 0.0
H269 H 0.8622 0.56108 0.4701 0.0
C270 C 0.82332 0.56622 0.64131 0.0
C271 C 0.79982 0.56872 0.72311 0.0
C272 C 0.81256 0.56654 0.53377 0.0
C273 C 0.76588 0.57241 0.69657 0.0
C274 C 0.7551 0.57298 0.58975 0.0
C275 C 0.7672 0.5699 0.40016 0.0
C276 C 0.79077 0.5675 0.31838 0.0
C277 C 0.77804 0.56974 0.50773 0.0
C278 C 0.82494 0.56423 0.34496 0.0
C279 C 0.83564 0.56352 0.45177 0.0
H280 H 0.17512 0.81755 0.71415 0.0
H281 H 0.23995 0.75664 0.6258 0.0
H282 H 0.25944 0.75609 0.81267 0.0
H283 H 0.25757 0.77239 1.00255 0.0
H284 H 0.19177 0.83227 0.09142 0.0
H285 H 0.17255 0.83311 0.90433 0.0
C286 C 0.19352 0.80417 0.73593 0.0
C287 C 0.20662 0.78775 0.65575 0.0
C288 C 0.2041 0.80342 0.84414 0.0
C289 C 0.23027 0.77034 0.68537 0.0
C290 C 0.24112 0.76969 0.79253 0.0
C291 C 0.23899 0.78558 0.98085 0.0
C292 C 0.22588 0.80199 0.06103 0.0
C293 C 0.22823 0.78614 0.87272 0.0
C294 C 0.20183 0.81897 1.03161 0.0
C295 C 0.19102 0.81967 0.92441 0.0
H296 H 0.46957 0.25387 0.37052 0.0
H297 H 0.34485 0.18202 0.46403 0.0
H298 H 0.32472 0.16363 0.27694 0.0
H299 H 0.34277 0.16816 0.08681 0.0
H300 H 0.46756 0.24022 0.99357 0.0
H301 H 0.48756 0.25881 0.18051 0.0
C302 C 0.43798 0.2342 0.34982 0.0
C303 C 0.4087 0.21915 0.43074 0.0
C304 C 0.42671 0.22401 0.24224 0.0
C305 C 0.36791 0.1937 0.40309 0.0
C306 C 0.35642 0.18334 0.29617 0.0
C307 C 0.37433 0.18798 0.10753 0.0
C308 C 0.4037 0.20275 1.02681 0.0
C309 C 0.38556 0.19833 0.21511 0.0
C310 C 0.44445 0.22843 0.05448 0.0
C311 C 0.45588 0.23902 0.16127 0.0
H312 H 0.18807 0.54803 0.30715 0.0
H313 H 0.11185 0.53386 1.0344 0.0
H314 H 0.11655 0.599 0.07368 0.0
H315 H 0.1481 0.66301 0.17656 0.0
H316 H 0.22771 0.67703 0.4419 0.0
H317 H 0.21601 0.60907 0.41432 0.0
C318 C 0.17195 0.55889 0.2572 0.0
C319 C 0.14976 0.53641 0.16799 0.0
C320 C 0.17589 0.59665 0.27817 0.0
C321 C 0.12907 0.55076 0.10377 0.0
C322 C 0.13199 0.58807 0.12581 0.0
C323 C 0.16248 0.65093 0.22882 0.0
C324 C 0.18909 0.67522 0.31033 0.0
C325 C 0.15621 0.6118 0.21131 0.0
C326 C 0.20757 0.65923 0.37751 0.0
C327 C 0.2008 0.62027 0.36218 0.0
H328 H 0.58078 0.13635 0.48825 0.0
H329 H 0.66502 0.23465 0.68835 0.0
H330 H 0.60966 0.23988 0.76662 0.0
H331 H 0.53856 0.22054 0.76823 0.0
H332 H 0.45333 0.12424 0.56431 0.0
H333 H 0.50764 0.11382 0.49873 0.0
C334 C 0.58676 0.15851 0.54987 0.0
C335 C 0.6268 0.18531 0.58196 0.0
C336 C 0.5547 0.16183 0.59355 0.0
C337 C 0.6344 0.21395 0.66173 0.0
C338 C 0.60279 0.21696 0.70662 0.0
C339 C 0.53162 0.19692 0.71031 0.0
C340 C 0.49198 0.17345 0.6707 0.0
C341 C 0.56298 0.19167 0.67155 0.0
C342 C 0.48364 0.14286 0.59602 0.0
C343 C 0.51472 0.13698 0.55811 0.0
H344 H 0.3391 0.4923 1.00624 0.0
H345 H 0.26589 0.53953 0.87403 0.0
H346 H 0.32547 0.59622 0.79504 0.0
H347 H 0.39787 0.63324 0.76751 0.0
H348 H 0.47401 0.59139 0.90974 0.0
H349 H 0.41394 0.53165 0.98167 0.0
C350 C 0.33651 0.51507 0.95977 0.0
C351 C 0.29849 0.51209 0.94566 0.0
C352 C 0.37126 0.54842 0.9171 0.0
C353 C 0.29508 0.54164 0.8863 0.0
C354 C 0.32903 0.57394 0.84102 0.0
C355 C 0.40138 0.61095 0.81383 0.0
C356 C 0.44004 0.61632 0.83288 0.0
C357 C 0.36719 0.57776 0.85659 0.0
C358 C 0.44432 0.58763 0.89411 0.0
C359 C 0.41006 0.55359 0.93503 0.0
H360 H 0.83616 0.3247 0.20242 0.0
H361 H 0.77078 0.32517 0.48103 0.0
H362 H 0.77905 0.3905 0.42837 0.0
H363 H 0.79908 0.44418 0.29592 0.0
H364 H 0.86091 0.44325 1.01068 0.0
H365 H 0.86021 0.3817 0.07307 0.0
C366 C 0.82448 0.3396 0.25225 0.0
C367 C 0.8028 0.32024 0.34515 0.0
C368 C 0.82834 0.37681 0.21975 0.0
C369 C 0.78732 0.33947 0.40871 0.0
C370 C 0.79199 0.37677 0.37869 0.0
C371 C 0.81281 0.43075 0.24792 0.0
C372 C 0.82977 0.4479 0.14876 0.0
C373 C 0.8115 0.39518 0.28315 0.0
C374 C 0.84757 0.43037 0.08735 0.0
C375 C 0.84707 0.39518 0.12289 0.0
H376 H 0.34633 0.79104 0.62951 0.0
H377 H 0.40844 0.86735 0.36007 0.0
H378 H 0.46998 0.86545 0.4095 0.0
H379 H 0.5041 0.83705 0.52142 0.0
H380 H 0.43923 0.75772 0.78444 0.0
H381 H 0.38103 0.76593 0.74564 0.0
C382 C 0.37352 0.80772 0.58239 0.0
C383 C 0.37291 0.82923 0.49123 0.0
C384 C 0.40824 0.80562 0.6097 0.0
C385 C 0.40825 0.85058 0.43071 0.0
C386 C 0.44335 0.84935 0.45872 0.0
C387 C 0.47742 0.82204 0.571 0.0
C388 C 0.47601 0.79661 0.65531 0.0
C389 C 0.44345 0.82623 0.54686 0.0
C390 C 0.44108 0.77717 0.71843 0.0
C391 C 0.40771 0.78186 0.69644 0.0
H392 H 0.63846 0.48848 1.01043 0.0
H393 H 0.71117 0.43866 0.89884 0.0
H394 H 0.65124 0.37952 0.83094 0.0
H395 H 0.57875 0.34178 0.80145 0.0
H396 H 0.5029 0.38591 0.92347 0.0
H397 H 0.56315 0.44729 0.98943 0.0
C398 C 0.6409 0.46451 0.97156 0.0
C399 C 0.67915 0.46785 0.96006 0.0
C400 C 0.60584 0.42965 0.93449 0.0
C401 C 0.68206 0.43659 0.90995 0.0
C402 C 0.64783 0.40279 0.87049 0.0
C403 C 0.57538 0.36489 0.84234 0.0
C404 C 0.53674 0.35979 0.8567 0.0
C405 C 0.6097 0.39904 0.88214 0.0
C406 C 0.53258 0.38945 0.91143 0.0
C407 C 0.56697 0.42446 0.94888 0.0
loop_
_geom_bond_atom_site_label_1
_geom_bond_atom_site_label_2
_geom_bond_distance
_geom_bond_site_symmetry_2
_ccdc_geom_bond_type
Tb0 O3 2.453 . S
Tb0 O4 2.596 . S
Tb0 O5 2.374 . S
Tb0 O13 2.343 1_554 S
Tb0 O15 2.353 . S
Tb0 O17 2.427 1_554 S
Tb0 O18 2.513 1_554 S
C1 O5 1.251 . S
C1 O7 1.263 . S
Tb2 O4 2.343 1_556 S
Tb2 O7 2.353 1_556 S
Tb2 O10 2.427 1_556 S
Tb2 O11 2.513 1_556 S
Tb2 O12 2.453 . S
Tb2 O13 2.596 . S
Tb2 O14 2.374 . S
O3 Tb0 2.453 . S
O3 C19 1.245 . S
O4 Tb0 2.596 . S
O4 Tb2 2.343 1_554 S
O4 C19 1.259 . S
O5 Tb0 2.374 . S
O5 C1 1.251 . S
C6 O10 1.275 . S
C6 O11 1.246 . S
O7 C1 1.263 . S
O7 Tb2 2.353 1_554 S
C8 O12 1.245 . S
C8 O13 1.259 . S
C9 O14 1.250 . S
C9 O15 1.263 1_556 S
O10 Tb2 2.427 1_554 S
O10 C6 1.275 . S
O11 Tb2 2.513 1_554 S
O11 C6 1.246 . S
O12 Tb2 2.453 . S
O12 C8 1.245 . S
O13 Tb0 2.343 1_556 S
O13 Tb2 2.596 . S
O13 C8 1.259 . S
O14 Tb2 2.374 . S
O14 C9 1.250 . S
O15 Tb0 2.353 . S
O15 C9 1.263 1_554 S
C16 O17 1.275 . S
C16 O18 1.246 . S
O17 Tb0 2.427 1_556 S
O17 C16 1.275 . S
O18 Tb0 2.513 1_556 S
O18 C16 1.246 . S
C19 O3 1.245 . S
C19 O4 1.259 . S
Tb20 O23 2.453 . S
Tb20 O24 2.596 . S
Tb20 O25 2.374 . S
Tb20 O33 2.343 . S
Tb20 O35 2.353 . S
Tb20 O37 2.427 . S
Tb20 O38 2.513 . S
C21 O25 1.251 . S
C21 O27 1.263 . S
Tb22 O24 2.343 . S
Tb22 O27 2.353 . S
Tb22 O30 2.427 . S
Tb22 O31 2.513 . S
Tb22 O32 2.453 . S
Tb22 O33 2.596 . S
Tb22 O34 2.374 . S
O23 Tb20 2.453 . S
O23 C39 1.245 . S
O24 Tb20 2.596 . S
O24 Tb22 2.343 . S
O24 C39 1.259 . S
O25 Tb20 2.374 . S
O25 C21 1.251 . S
C26 O30 1.275 . S
C26 O31 1.246 . S
O27 C21 1.263 . S
O27 Tb22 2.353 . S
C28 O32 1.245 . S
C28 O33 1.259 . S
C29 O34 1.250 . S
C29 O35 1.263 . S
O30 Tb22 2.427 . S
O30 C26 1.275 . S
O31 Tb22 2.513 . S
O31 C26 1.246 . S
O32 Tb22 2.453 . S
O32 C28 1.245 . S
O33 Tb20 2.343 . S
O33 Tb22 2.596 . S
O33 C28 1.259 . S
O34 Tb22 2.374 . S
O34 C29 1.250 . S
O35 Tb20 2.353 . S
O35 C29 1.263 . S
C36 O37 1.275 . S
C36 O38 1.246 . S
O37 Tb20 2.427 . S
O37 C36 1.275 . S
O38 Tb20 2.513 . S
O38 C36 1.246 . S
C39 O23 1.245 . S
C39 O24 1.259 . S
Tb40 O43 2.453 . S
Tb40 O44 2.596 . S
Tb40 O45 2.374 . S
Tb40 O53 2.343 . S
Tb40 O55 2.353 . S
Tb40 O57 2.427 . S
Tb40 O58 2.513 . S
C41 O45 1.251 . S
C41 O47 1.263 . S
Tb42 O44 2.343 . S
Tb42 O47 2.353 . S
Tb42 O50 2.427 . S
Tb42 O51 2.513 . S
Tb42 O52 2.453 . S
Tb42 O53 2.596 . S
Tb42 O54 2.374 . S
O43 Tb40 2.453 . S
O43 C59 1.245 . S
O44 Tb40 2.596 . S
O44 Tb42 2.343 . S
O44 C59 1.259 . S
O45 Tb40 2.374 . S
O45 C41 1.251 . S
C46 O50 1.275 . S
C46 O51 1.246 . S
O47 C41 1.263 . S
O47 Tb42 2.353 . S
C48 O52 1.245 . S
C48 O53 1.259 . S
C49 O54 1.250 . S
C49 O55 1.263 . S
O50 Tb42 2.427 . S
O50 C46 1.275 . S
O51 Tb42 2.513 . S
O51 C46 1.246 . S
O52 Tb42 2.453 . S
O52 C48 1.245 . S
O53 Tb40 2.343 . S
O53 Tb42 2.596 . S
O53 C48 1.259 . S
O54 Tb42 2.374 . S
O54 C49 1.250 . S
O55 Tb40 2.353 . S
O55 C49 1.263 . S
C56 O57 1.275 . S
C56 O58 1.246 . S
O57 Tb40 2.427 . S
O57 C56 1.275 . S
O58 Tb40 2.513 . S
O58 C56 1.246 . S
C59 O43 1.245 . S
C59 O44 1.259 . S
Tb60 O63 2.453 . S
Tb60 O64 2.596 . S
Tb60 O65 2.374 . S
Tb60 O73 2.343 1_554 S
Tb60 O75 2.353 . S
Tb60 O77 2.427 1_554 S
Tb60 O78 2.513 1_554 S
C61 O65 1.251 . S
C61 O67 1.263 . S
Tb62 O64 2.343 1_556 S
Tb62 O67 2.353 1_556 S
Tb62 O70 2.427 1_556 S
Tb62 O71 2.513 1_556 S
Tb62 O72 2.453 . S
Tb62 O73 2.596 . S
Tb62 O74 2.374 . S
O63 Tb60 2.453 . S
O63 C79 1.245 . S
O64 Tb60 2.596 . S
O64 Tb62 2.343 1_554 S
O64 C79 1.259 . S
O65 Tb60 2.374 . S
O65 C61 1.251 . S
C66 O70 1.275 . S
C66 O71 1.246 . S
O67 C61 1.263 . S
O67 Tb62 2.353 1_554 S
C68 O72 1.245 . S
C68 O73 1.259 . S
C69 O74 1.250 . S
C69 O75 1.263 1_556 S
O70 Tb62 2.427 1_554 S
O70 C66 1.275 . S
O71 Tb62 2.513 1_554 S
O71 C66 1.246 . S
O72 Tb62 2.453 . S
O72 C68 1.245 . S
O73 Tb60 2.343 1_556 S
O73 Tb62 2.596 . S
O73 C68 1.259 . S
O74 Tb62 2.374 . S
O74 C69 1.250 . S
O75 Tb60 2.353 . S
O75 C69 1.263 1_554 S
C76 O77 1.275 . S
C76 O78 1.246 . S
O77 Tb60 2.427 1_556 S
O77 C76 1.275 . S
O78 Tb60 2.513 1_556 S
O78 C76 1.246 . S
C79 O63 1.245 . S
C79 O64 1.259 . S
Tb80 O83 2.453 . S
Tb80 O84 2.596 . S
Tb80 O85 2.374 . S
Tb80 O93 2.343 . S
Tb80 O95 2.353 . S
Tb80 O97 2.427 . S
Tb80 O98 2.513 . S
C81 O85 1.251 . S
C81 O87 1.263 . S
Tb82 O84 2.343 . S
Tb82 O87 2.353 . S
Tb82 O90 2.427 . S
Tb82 O91 2.513 . S
Tb82 O92 2.453 . S
Tb82 O93 2.596 . S
Tb82 O94 2.374 . S
O83 Tb80 2.453 . S
O83 C99 1.245 . S
O84 Tb80 2.596 . S
O84 Tb82 2.343 . S
O84 C99 1.259 . S
O85 Tb80 2.374 . S
O85 C81 1.251 . S
C86 O90 1.275 . S
C86 O91 1.246 . S
O87 C81 1.263 . S
O87 Tb82 2.353 . S
C88 O92 1.245 . S
C88 O93 1.259 . S
C89 O94 1.250 . S
C89 O95 1.263 . S
O90 Tb82 2.427 . S
O90 C86 1.275 . S
O91 Tb82 2.513 . S
O91 C86 1.246 . S
O92 Tb82 2.453 . S
O92 C88 1.245 . S
O93 Tb80 2.343 . S
O93 Tb82 2.596 . S
O93 C88 1.259 . S
O94 Tb82 2.374 . S
O94 C89 1.250 . S
O95 Tb80 2.353 . S
O95 C89 1.263 . S
C96 O97 1.275 . S
C96 O98 1.246 . S
O97 Tb80 2.427 . S
O97 C96 1.275 . S
O98 Tb80 2.513 . S
O98 C96 1.246 . S
C99 O83 1.245 . S
C99 O84 1.259 . S
Tb100 O103 2.453 . S
Tb100 O104 2.596 . S
Tb100 O105 2.374 . S
Tb100 O113 2.343 . S
Tb100 O115 2.353 . S
Tb100 O117 2.427 . S
Tb100 O118 2.513 . S
C101 O105 1.251 . S
C101 O107 1.263 . S
Tb102 O104 2.343 . S
Tb102 O107 2.353 . S
Tb102 O110 2.427 . S
Tb102 O111 2.513 . S
Tb102 O112 2.453 . S
Tb102 O113 2.596 . S
Tb102 O114 2.374 . S
O103 Tb100 2.453 . S
O103 C119 1.245 . S
O104 Tb100 2.596 . S
O104 Tb102 2.343 . S
O104 C119 1.259 . S
O105 Tb100 2.374 . S
O105 C101 1.251 . S
C106 O110 1.275 . S
C106 O111 1.246 . S
O107 C101 1.263 . S
O107 Tb102 2.353 . S
C108 O112 1.245 . S
C108 O113 1.259 . S
C109 O114 1.250 . S
C109 O115 1.263 . S
O110 Tb102 2.427 . S
O110 C106 1.275 . S
O111 Tb102 2.513 . S
O111 C106 1.246 . S
O112 Tb102 2.453 . S
O112 C108 1.245 . S
O113 Tb100 2.343 . S
O113 Tb102 2.596 . S
O113 C108 1.259 . S
O114 Tb102 2.374 . S
O114 C109 1.250 . S
O115 Tb100 2.353 . S
O115 C109 1.263 . S
C116 O117 1.275 . S
C116 O118 1.246 . S
O117 Tb100 2.427 . S
O117 C116 1.275 . S
O118 Tb100 2.513 . S
O118 C116 1.246 . S
C119 O103 1.245 . S
C119 O104 1.259 . S
H120 C126 0.930 . S
H121 C129 0.930 . S
H122 C130 0.930 . S
H123 C131 0.930 . S
H124 C134 0.930 . S
H125 C135 0.930 . S
C126 H120 0.930 . S
C126 C127 1.355 . S
C126 C128 1.415 . S
C127 C126 1.355 . S
C127 C129 1.419 . S
C128 C126 1.415 . S
C128 C133 1.425 . S
C128 C135 1.409 . S
C129 H121 0.930 . S
C129 C127 1.419 . S
C129 C130 1.362 . S
C130 H122 0.930 . S
C130 C129 1.362 . S
C130 C133 1.409 . S
C131 H123 0.930 . S
C131 C132 1.355 . S
C131 C133 1.415 . S
C132 C131 1.355 . S
C132 C134 1.419 . S
C133 C128 1.425 . S
C133 C130 1.409 . S
C133 C131 1.415 . S
C134 H124 0.930 . S
C134 C132 1.419 . S
C134 C135 1.362 . S
C135 H125 0.930 . S
C135 C128 1.409 . S
C135 C134 1.362 . S
H136 C142 0.930 . S
H137 C145 0.930 1_556 S
H138 C146 0.930 1_556 S
H139 C147 0.930 . S
H140 C150 0.930 . S
H141 C151 0.930 . S
C142 H136 0.930 . S
C142 C143 1.355 . S
C142 C144 1.415 . S
C143 C142 1.355 . S
C143 C145 1.419 . S
C144 C142 1.415 . S
C144 C149 1.425 . S
C144 C151 1.409 . S
C145 H137 0.930 1_554 S
C145 C143 1.419 . S
C145 C146 1.362 . S
C146 H138 0.930 1_554 S
C146 C145 1.362 . S
C146 C149 1.409 . S
C147 H139 0.930 . S
C147 C148 1.355 . S
C147 C149 1.415 1_655 S
C148 C147 1.355 . S
C148 C150 1.419 . S
C149 C144 1.425 . S
C149 C146 1.409 . S
C149 C147 1.415 1_455 S
C150 H140 0.930 . S
C150 C148 1.419 . S
C150 C151 1.362 1_655 S
C151 H141 0.930 . S
C151 C144 1.409 . S
C151 C150 1.362 1_455 S
H152 C158 0.930 . S
H153 C161 0.930 . S
H154 C162 0.930 . S
H155 C163 0.930 . S
H156 C166 0.930 . S
H157 C167 0.930 . S
C158 H152 0.930 . S
C158 C159 1.355 . S
C158 C160 1.415 . S
C159 C158 1.355 . S
C159 C161 1.419 . S
C160 C158 1.415 . S
C160 C165 1.425 . S
C160 C167 1.409 . S
C161 H153 0.930 . S
C161 C159 1.419 . S
C161 C162 1.362 . S
C162 H154 0.930 . S
C162 C161 1.362 . S
C162 C165 1.409 . S
C163 H155 0.930 . S
C163 C164 1.355 . S
C163 C165 1.415 1_565 S
C164 C163 1.355 . S
C164 C166 1.419 . S
C165 C160 1.425 . S
C165 C162 1.409 . S
C165 C163 1.415 1_545 S
C166 H156 0.930 . S
C166 C164 1.419 . S
C166 C167 1.362 1_565 S
C167 H157 0.930 . S
C167 C160 1.409 . S
C167 C166 1.362 1_545 S
H168 C174 0.930 . S
H169 C177 0.930 . S
H170 C178 0.930 . S
H171 C179 0.930 . S
H172 C182 0.930 . S
H173 C183 0.930 . S
C174 H168 0.930 . S
C174 C175 1.355 . S
C174 C176 1.415 . S
C175 C174 1.355 . S
C175 C177 1.419 . S
C176 C174 1.415 . S
C176 C181 1.425 . S
C176 C183 1.409 . S
C177 H169 0.930 . S
C177 C175 1.419 . S
C177 C178 1.362 . S
C178 H170 0.930 . S
C178 C177 1.362 . S
C178 C181 1.409 . S
C179 H171 0.930 . S
C179 C180 1.355 . S
C179 C181 1.415 . S
C180 C179 1.355 . S
C180 C182 1.419 . S
C181 C176 1.425 . S
C181 C178 1.409 . S
C181 C179 1.415 . S
C182 H172 0.930 . S
C182 C180 1.419 . S
C182 C183 1.362 . S
C183 H173 0.930 . S
C183 C176 1.409 . S
C183 C182 1.362 . S
H184 C190 0.930 . S
H185 C193 0.930 . S
H186 C194 0.930 . S
H187 C195 0.930 . S
H188 C198 0.930 . S
H189 C199 0.930 . S
C190 H184 0.930 . S
C190 C191 1.355 . S
C190 C192 1.415 1_455 S
C191 C190 1.355 . S
C191 C193 1.419 . S
C192 C190 1.415 1_655 S
C192 C197 1.425 . S
C192 C199 1.409 . S
C193 H185 0.930 . S
C193 C191 1.419 . S
C193 C194 1.362 . S
C194 H186 0.930 . S
C194 C193 1.362 . S
C194 C197 1.409 1_455 S
C195 H187 0.930 . S
C195 C196 1.355 . S
C195 C197 1.415 . S
C196 C195 1.355 . S
C196 C198 1.419 . S
C197 C192 1.425 . S
C197 C194 1.409 1_655 S
C197 C195 1.415 . S
C198 H188 0.930 . S
C198 C196 1.419 . S
C198 C199 1.362 . S
C199 H189 0.930 . S
C199 C192 1.409 . S
C199 C198 1.362 . S
H200 C206 0.930 . S
H201 C209 0.930 . S
H202 C210 0.930 . S
H203 C211 0.930 . S
H204 C214 0.930 . S
H205 C215 0.930 . S
C206 H200 0.930 . S
C206 C207 1.355 . S
C206 C208 1.415 1_545 S
C207 C206 1.355 . S
C207 C209 1.419 . S
C208 C206 1.415 1_565 S
C208 C213 1.425 . S
C208 C215 1.409 . S
C209 H201 0.930 . S
C209 C207 1.419 . S
C209 C210 1.362 1_545 S
C210 H202 0.930 . S
C210 C209 1.362 1_565 S
C210 C213 1.409 . S
C211 H203 0.930 . S
C211 C212 1.355 . S
C211 C213 1.415 . S
C212 C211 1.355 . S
C212 C214 1.419 . S
C213 C208 1.425 . S
C213 C210 1.409 . S
C213 C211 1.415 . S
C214 H204 0.930 . S
C214 C212 1.419 . S
C214 C215 1.362 . S
C215 H205 0.930 . S
C215 C208 1.409 . S
C215 C214 1.362 . S
H216 C222 0.930 . S
H217 C225 0.930 . S
H218 C226 0.930 . S
H219 C227 0.930 . S
H220 C230 0.930 . S
H221 C231 0.930 . S
C222 H216 0.930 . S
C222 C223 1.355 . S
C222 C224 1.415 . S
C223 C222 1.355 . S
C223 C225 1.419 . S
C224 C222 1.415 . S
C224 C229 1.425 . S
C224 C231 1.409 . S
C225 H217 0.930 . S
C225 C223 1.419 . S
C225 C226 1.362 . S
C226 H218 0.930 . S
C226 C225 1.362 . S
C226 C229 1.409 . S
C227 H219 0.930 . S
C227 C228 1.355 . S
C227 C229 1.415 . S
C228 C227 1.355 . S
C228 C230 1.419 . S
C229 C224 1.425 . S
C229 C226 1.409 . S
C229 C227 1.415 . S
C230 H220 0.930 . S
C230 C228 1.419 . S
C230 C231 1.362 . S
C231 H221 0.930 . S
C231 C224 1.409 . S
C231 C230 1.362 . S
H232 C238 0.930 . S
H233 C241 0.930 1_554 S
H234 C242 0.930 . S
H235 C243 0.930 . S
H236 C246 0.930 . S
H237 C247 0.930 . S
C238 H232 0.930 . S
C238 C239 1.355 1_556 S
C238 C240 1.415 . S
C239 C238 1.355 1_554 S
C239 C241 1.419 1_554 S
C240 C238 1.415 . S
C240 C245 1.425 . S
C240 C247 1.409 . S
C241 H233 0.930 1_556 S
C241 C239 1.419 1_556 S
C241 C242 1.362 . S
C242 H234 0.930 . S
C242 C241 1.362 . S
C242 C245 1.409 . S
C243 H235 0.930 . S
C243 C244 1.355 . S
C243 C245 1.415 . S
C244 C243 1.355 . S
C244 C246 1.419 . S
C245 C240 1.425 . S
C245 C242 1.409 . S
C245 C243 1.415 . S
C246 H236 0.930 . S
C246 C244 1.419 . S
C246 C247 1.362 . S
C247 H237 0.930 . S
C247 C240 1.409 . S
C247 C246 1.362 . S
H248 C254 0.930 . S
H249 C257 0.930 . S
H250 C258 0.930 . S
H251 C259 0.930 . S
H252 C262 0.930 1_556 S
H253 C263 0.930 . S
C254 H248 0.930 . S
C254 C255 1.355 . S
C254 C256 1.415 . S
C255 C254 1.355 . S
C255 C257 1.419 . S
C256 C254 1.415 . S
C256 C261 1.425 . S
C256 C263 1.409 . S
C257 H249 0.930 . S
C257 C255 1.419 . S
C257 C258 1.362 . S
C258 H250 0.930 . S
C258 C257 1.362 . S
C258 C261 1.409 . S
C259 H251 0.930 . S
C259 C260 1.355 1_554 S
C259 C261 1.415 . S
C260 C259 1.355 1_556 S
C260 C262 1.419 1_556 S
C261 C256 1.425 . S
C261 C258 1.409 . S
C261 C259 1.415 . S
C262 H252 0.930 1_554 S
C262 C260 1.419 1_554 S
C262 C263 1.362 . S
C263 H253 0.930 . S
C263 C256 1.409 . S
C263 C262 1.362 . S
H264 C270 0.930 . S
H265 C273 0.930 . S
H266 C274 0.930 . S
H267 C275 0.930 . S
H268 C278 0.930 . S
H269 C279 0.930 . S
C270 H264 0.930 . S
C270 C271 1.355 . S
C270 C272 1.415 . S
C271 C270 1.355 . S
C271 C273 1.419 . S
C272 C270 1.415 . S
C272 C277 1.425 . S
C272 C279 1.409 . S
C273 H265 0.930 . S
C273 C271 1.419 . S
C273 C274 1.362 . S
C274 H266 0.930 . S
C274 C273 1.362 . S
C274 C277 1.409 . S
C275 H267 0.930 . S
C275 C276 1.355 . S
C275 C277 1.415 . S
C276 C275 1.355 . S
C276 C278 1.419 . S
C277 C272 1.425 . S
C277 C274 1.409 . S
C277 C275 1.415 . S
C278 H268 0.930 . S
C278 C276 1.419 . S
C278 C279 1.362 . S
C279 H269 0.930 . S
C279 C272 1.409 . S
C279 C278 1.362 . S
H280 C286 0.930 . S
H281 C289 0.930 . S
H282 C290 0.930 . S
H283 C291 0.930 . S
H284 C294 0.930 1_554 S
H285 C295 0.930 . S
C286 H280 0.930 . S
C286 C287 1.355 . S
C286 C288 1.415 . S
C287 C286 1.355 . S
C287 C289 1.419 . S
C288 C286 1.415 . S
C288 C293 1.425 . S
C288 C295 1.409 . S
C289 H281 0.930 . S
C289 C287 1.419 . S
C289 C290 1.362 . S
C290 H282 0.930 . S
C290 C289 1.362 . S
C290 C293 1.409 . S
C291 H283 0.930 . S
C291 C292 1.355 1_556 S
C291 C293 1.415 . S
C292 C291 1.355 1_554 S
C292 C294 1.419 1_554 S
C293 C288 1.425 . S
C293 C290 1.409 . S
C293 C291 1.415 . S
C294 H284 0.930 1_556 S
C294 C292 1.419 1_556 S
C294 C295 1.362 . S
C295 H285 0.930 . S
C295 C288 1.409 . S
C295 C294 1.362 . S
H296 C302 0.930 . S
H297 C305 0.930 . S
H298 C306 0.930 . S
H299 C307 0.930 . S
H300 C310 0.930 1_556 S
H301 C311 0.930 . S
C302 H296 0.930 . S
C302 C303 1.355 . S
C302 C304 1.415 . S
C303 C302 1.355 . S
C303 C305 1.419 . S
C304 C302 1.415 . S
C304 C309 1.425 . S
C304 C311 1.409 . S
C305 H297 0.930 . S
C305 C303 1.419 . S
C305 C306 1.362 . S
C306 H298 0.930 . S
C306 C305 1.362 . S
C306 C309 1.409 . S
C307 H299 0.930 . S
C307 C308 1.355 1_554 S
C307 C309 1.415 . S
C308 C307 1.355 1_556 S
C308 C310 1.419 1_556 S
C309 C304 1.425 . S
C309 C306 1.409 . S
C309 C307 1.415 . S
C310 H300 0.930 1_554 S
C310 C308 1.419 1_554 S
C310 C311 1.362 . S
C311 H301 0.930 . S
C311 C304 1.409 . S
C311 C310 1.362 . S
H312 C318 0.930 . S
H313 C321 0.930 . S
H314 C322 0.930 . S
H315 C323 0.930 . S
H316 C326 0.930 . S
H317 C327 0.930 . S
C318 H312 0.930 . S
C318 C319 1.355 . S
C318 C320 1.415 . S
C319 C318 1.355 . S
C319 C321 1.419 . S
C320 C318 1.415 . S
C320 C325 1.425 . S
C320 C327 1.409 . S
C321 H313 0.930 . S
C321 C319 1.419 . S
C321 C322 1.362 . S
C322 H314 0.930 . S
C322 C321 1.362 . S
C322 C325 1.409 . S
C323 H315 0.930 . S
C323 C324 1.355 . S
C323 C325 1.415 . S
C324 C323 1.355 . S
C324 C326 1.419 . S
C325 C320 1.425 . S
C325 C322 1.409 . S
C325 C323 1.415 . S
C326 H316 0.930 . S
C326 C324 1.419 . S
C326 C327 1.362 . S
C327 H317 0.930 . S
C327 C320 1.409 . S
C327 C326 1.362 . S
H328 C334 0.930 . S
H329 C337 0.930 . S
H330 C338 0.930 . S
H331 C339 0.930 . S
H332 C342 0.930 . S
H333 C343 0.930 . S
C334 H328 0.930 . S
C334 C335 1.355 . S
C334 C336 1.415 . S
C335 C334 1.355 . S
C335 C337 1.419 . S
C336 C334 1.415 . S
C336 C341 1.425 . S
C336 C343 1.409 . S
C337 H329 0.930 . S
C337 C335 1.419 . S
C337 C338 1.362 . S
C338 H330 0.930 . S
C338 C337 1.362 . S
C338 C341 1.409 . S
C339 H331 0.930 . S
C339 C340 1.355 . S
C339 C341 1.415 . S
C340 C339 1.355 . S
C340 C342 1.419 . S
C341 C336 1.425 . S
C341 C338 1.409 . S
C341 C339 1.415 . S
C342 H332 0.930 . S
C342 C340 1.419 . S
C342 C343 1.362 . S
C343 H333 0.930 . S
C343 C336 1.409 . S
C343 C342 1.362 . S
H344 C350 0.930 1_554 S
H345 C353 0.930 . S
H346 C354 0.930 . S
H347 C355 0.930 . S
H348 C358 0.930 . S
H349 C359 0.930 1_554 S
C350 H344 0.930 1_556 S
C350 C351 1.355 . S
C350 C352 1.415 . S
C351 C350 1.355 . S
C351 C353 1.419 . S
C352 C350 1.415 . S
C352 C357 1.425 . S
C352 C359 1.409 . S
C353 H345 0.930 . S
C353 C351 1.419 . S
C353 C354 1.362 . S
C354 H346 0.930 . S
C354 C353 1.362 . S
C354 C357 1.409 . S
C355 H347 0.930 . S
C355 C356 1.355 . S
C355 C357 1.415 . S
C356 C355 1.355 . S
C356 C358 1.419 . S
C357 C352 1.425 . S
C357 C354 1.409 . S
C357 C355 1.415 . S
C358 H348 0.930 . S
C358 C356 1.419 . S
C358 C359 1.362 . S
C359 H349 0.930 1_556 S
C359 C352 1.409 . S
C359 C358 1.362 . S
H360 C366 0.930 . S
H361 C369 0.930 . S
H362 C370 0.930 . S
H363 C371 0.930 . S
H364 C374 0.930 . S
H365 C375 0.930 . S
C366 H360 0.930 . S
C366 C367 1.355 . S
C366 C368 1.415 . S
C367 C366 1.355 . S
C367 C369 1.419 . S
C368 C366 1.415 . S
C368 C373 1.425 . S
C368 C375 1.409 . S
C369 H361 0.930 . S
C369 C367 1.419 . S
C369 C370 1.362 . S
C370 H362 0.930 . S
C370 C369 1.362 . S
C370 C373 1.409 . S
C371 H363 0.930 . S
C371 C372 1.355 . S
C371 C373 1.415 . S
C372 C371 1.355 . S
C372 C374 1.419 . S
C373 C368 1.425 . S
C373 C370 1.409 . S
C373 C371 1.415 . S
C374 H364 0.930 . S
C374 C372 1.419 . S
C374 C375 1.362 . S
C375 H365 0.930 . S
C375 C368 1.409 . S
C375 C374 1.362 . S
H376 C382 0.930 . S
H377 C385 0.930 . S
H378 C386 0.930 . S
H379 C387 0.930 . S
H380 C390 0.930 . S
H381 C391 0.930 . S
C382 H376 0.930 . S
C382 C383 1.355 . S
C382 C384 1.415 . S
C383 C382 1.355 . S
C383 C385 1.419 . S
C384 C382 1.415 . S
C384 C389 1.425 . S
C384 C391 1.409 . S
C385 H377 0.930 . S
C385 C383 1.419 . S
C385 C386 1.362 . S
C386 H378 0.930 . S
C386 C385 1.362 . S
C386 C389 1.409 . S
C387 H379 0.930 . S
C387 C388 1.355 . S
C387 C389 1.415 . S
C388 C387 1.355 . S
C388 C390 1.419 . S
C389 C384 1.425 . S
C389 C386 1.409 . S
C389 C387 1.415 . S
C390 H380 0.930 . S
C390 C388 1.419 . S
C390 C391 1.362 . S
C391 H381 0.930 . S
C391 C384 1.409 . S
C391 C390 1.362 . S
H392 C398 0.930 1_554 S
H393 C401 0.930 . S
H394 C402 0.930 . S
H395 C403 0.930 . S
H396 C406 0.930 . S
H397 C407 0.930 1_554 S
C398 H392 0.930 1_556 S
C398 C399 1.355 . S
C398 C400 1.415 . S
C399 C398 1.355 . S
C399 C401 1.419 . S
C400 C398 1.415 . S
C400 C405 1.425 . S
C400 C407 1.409 . S
C401 H393 0.930 . S
C401 C399 1.419 . S
C401 C402 1.362 . S
C402 H394 0.930 . S
C402 C401 1.362 . S
C402 C405 1.409 . S
C403 H395 0.930 . S
C403 C404 1.355 . S
C403 C405 1.415 . S
C404 C403 1.355 . S
C404 C406 1.419 . S
C405 C400 1.425 . S
C405 C402 1.409 . S
C405 C403 1.415 . S
C406 H396 0.930 . S
C406 C404 1.419 . S
C406 C407 1.362 . S
C407 H397 0.930 1_556 S
C407 C400 1.409 . S
C407 C406 1.362 . S
C127 C101 1.535 . S
C132 C16 1.456 . S
C143 C1 1.513 . S
C148 C36 1.420 . S
C159 C21 1.497 . S
C164 C56 1.414 . S
C175 C41 1.521 . S
C180 C76 1.431 . S
C191 C96 1.436 . S
C196 C61 1.524 . S
C207 C116 1.445 . S
C212 C81 1.499 . S
C223 C8 1.828 . S
C228 C19 1.828 . S
C239 C28 1.842 . S
C244 C39 1.842 . S
C255 C48 1.826 . S
C260 C59 1.826 . S
C271 C68 1.801 . S
C276 C79 1.801 . S
C287 C99 1.797 . S
C292 C88 1.797 . S
C303 C108 1.801 . S
C308 C119 1.801 . S
C319 C6 1.446 . S
C324 C89 1.456 . S
C335 C26 1.423 . S
C340 C109 1.485 . S
C351 C9 1.455 . S
C356 C46 1.445 . S
C367 C29 1.432 . S
C372 C66 1.377 . S
C383 C86 1.389 . S
C388 C49 1.429 . S
C399 C69 1.463 . S
C404 C106 1.453 . S
