# Generated by pormake.
# Topology wjy, (5)-cn, num edge types: 1
# Building blocks:
#     Node 0, Type 0, BuildingBlock: XOMCOT_clean_sbu_1, # of connection points: 5
#     Node 1, Type 0, BuildingBlock: XOMCOT_clean_sbu_1, # of connection points: 5
#     Node 2, Type 0, BuildingBlock: XOMCOT_clean_sbu_1, # of connection points: 5
#     Node 3, Type 0, BuildingBlock: XOMCOT_clean_sbu_1, # of connection points: 5
#     Node 4, Type 0, BuildingBlock: XOMCOT_clean_sbu_1, # of connection points: 5
#     Node 5, Type 0, BuildingBlock: XOMCOT_clean_sbu_1, # of connection points: 5
#     Node 6, Type 0, BuildingBlock: XOMCOT_clean_sbu_1, # of connection points: 5
#     Node 7, Type 0, BuildingBlock: XOMCOT_clean_sbu_1, # of connection points: 5
#     Node 8, Type 0, BuildingBlock: XOMCOT_clean_sbu_1, # of connection points: 5
#     Node 9, Type 0, BuildingBlock: XOMCOT_clean_sbu_1, # of connection points: 5
#     Node 10, Type 0, BuildingBlock: XOMCOT_clean_sbu_1, # of connection points: 5
#     Node 11, Type 0, BuildingBlock: XOMCOT_clean_sbu_1, # of connection points: 5
#     Edge 12, Type (0, 0), BuildingBlock: MIFKUJ_clean_linker_0, # of connection points: 2
#     Edge 13, Type (0, 0), BuildingBlock: MIFKUJ_clean_linker_0, # of connection points: 2
#     Edge 14, Type (0, 0), BuildingBlock: MIFKUJ_clean_linker_0, # of connection points: 2
#     Edge 15, Type (0, 0), BuildingBlock: MIFKUJ_clean_linker_0, # of connection points: 2
#     Edge 16, Type (0, 0), BuildingBlock: MIFKUJ_clean_linker_0, # of connection points: 2
#     Edge 17, Type (0, 0), BuildingBlock: MIFKUJ_clean_linker_0, # of connection points: 2
#     Edge 18, Type (0, 0), BuildingBlock: MIFKUJ_clean_linker_0, # of connection points: 2
#     Edge 19, Type (0, 0), BuildingBlock: MIFKUJ_clean_linker_0, # of connection points: 2
#     Edge 20, Type (0, 0), BuildingBlock: MIFKUJ_clean_linker_0, # of connection points: 2
#     Edge 21, Type (0, 0), BuildingBlock: MIFKUJ_clean_linker_0, # of connection points: 2
#     Edge 22, Type (0, 0), BuildingBlock: MIFKUJ_clean_linker_0, # of connection points: 2
#     Edge 23, Type (0, 0), BuildingBlock: MIFKUJ_clean_linker_0, # of connection points: 2
#     Edge 24, Type (0, 0), BuildingBlock: MIFKUJ_clean_linker_0, # of connection points: 2
#     Edge 25, Type (0, 0), BuildingBlock: MIFKUJ_clean_linker_0, # of connection points: 2
#     Edge 26, Type (0, 0), BuildingBlock: MIFKUJ_clean_linker_0, # of connection points: 2
#     Edge 27, Type (0, 0), BuildingBlock: MIFKUJ_clean_linker_0, # of connection points: 2
#     Edge 28, Type (0, 0), BuildingBlock: MIFKUJ_clean_linker_0, # of connection points: 2
#     Edge 29, Type (0, 0), BuildingBlock: MIFKUJ_clean_linker_0, # of connection points: 2
#     Edge 30, Type (0, 0), BuildingBlock: MIFKUJ_clean_linker_0, # of connection points: 2
#     Edge 31, Type (0, 0), BuildingBlock: MIFKUJ_clean_linker_0, # of connection points: 2
#     Edge 32, Type (0, 0), BuildingBlock: MIFKUJ_clean_linker_0, # of connection points: 2
#     Edge 33, Type (0, 0), BuildingBlock: MIFKUJ_clean_linker_0, # of connection points: 2
#     Edge 34, Type (0, 0), BuildingBlock: MIFKUJ_clean_linker_0, # of connection points: 2
#     Edge 35, Type (0, 0), BuildingBlock: MIFKUJ_clean_linker_0, # of connection points: 2
#     Edge 36, Type (0, 0), BuildingBlock: MIFKUJ_clean_linker_0, # of connection points: 2
#     Edge 37, Type (0, 0), BuildingBlock: MIFKUJ_clean_linker_0, # of connection points: 2
#     Edge 38, Type (0, 0), BuildingBlock: MIFKUJ_clean_linker_0, # of connection points: 2
#     Edge 39, Type (0, 0), BuildingBlock: MIFKUJ_clean_linker_0, # of connection points: 2
#     Edge 40, Type (0, 0), BuildingBlock: MIFKUJ_clean_linker_0, # of connection points: 2
#     Edge 41, Type (0, 0), BuildingBlock: MIFKUJ_clean_linker_0, # of connection points: 2
# Relax obj value: 0.189
# Max RMSD: 0.172
# Mean RMSD: 0.172
data_MOF--net-wjy--node1-XOMCOT_clean_sbu_1--edge1-MIFKUJ_clean_linker_0
_symmetry_space_group_name_H-M    P1
_symmetry_Int_Tables_number       1
_symmetry_cell_setting            triclinic
loop_
_symmetry_equiv_pos_as_xyz
'x, y, z'
_cell_length_a     92.237656
_cell_length_b     92.31633
_cell_length_c     21.961679
_cell_angle_alpha  90.060351
_cell_angle_beta   89.942117
_cell_angle_gamma 119.9969
loop_
_atom_site_label
_atom_site_type_symbol
_atom_site_fract_x
_atom_site_fract_y
_atom_site_fract_z
_atom_type_partial_charge
C0 C 0.4227 0.09198 0.16532 0.0
C1 C 0.41917 0.09174 0.22621 0.0
N2 N 0.42804 0.10745 0.24786 0.0
N3 N 0.43358 0.1078 0.14803 0.0
C4 C 0.43666 0.11697 0.19958 0.0
H5 H 0.41801 0.08114 0.13609 0.0
Co6 Co 0.44287 0.1138 0.06994 0.0
C7 C 0.44894 0.14814 0.04652 0.0
O8 O 0.46255 0.15124 0.0167 0.0
N9 N 0.45212 0.11938 0.98979 0.0
C10 C 0.46834 0.12455 0.90814 0.0
C11 C 0.46704 0.1218 0.96978 0.0
C12 C 0.44457 0.12065 0.93862 0.0
N13 N 0.45419 0.12381 0.8883 0.0
O14 O 0.42074 0.10004 0.03547 0.0
H15 H 0.47648 0.12134 0.99718 0.0
H16 H 0.43219 0.11922 0.93835 0.0
O17 O 0.43996 0.13378 0.07151 0.0
C18 C 0.41944 0.08675 0.01209 0.0
O19 O 0.43279 0.08509 0.01072 0.0
N20 N 0.46439 0.12503 0.10534 0.0
C21 C 0.49614 0.13506 0.1519 0.0
C22 C 0.48983 0.14609 0.1523 0.0
C23 C 0.47376 0.14077 0.12902 0.0
C24 C 0.4699 0.11385 0.10973 0.0
C25 C 0.48587 0.11869 0.13141 0.0
H26 H 0.46896 0.14926 0.13119 0.0
H27 H 0.46202 0.1012 0.09354 0.0
H28 H 0.44525 0.13029 0.20207 0.0
H29 H 0.41133 0.08073 0.25319 0.0
H30 H 0.47872 0.12634 0.87984 0.0
H31 H 0.49733 0.1587 0.1696 0.0
H32 H 0.4902 0.10974 0.13179 0.0
C33 C 0.34882 0.43327 0.31322 0.0
C34 C 0.34727 0.42954 0.37427 0.0
N35 N 0.33446 0.431 0.39673 0.0
N36 N 0.33702 0.43703 0.29682 0.0
C37 C 0.32839 0.43546 0.3486 0.0
H38 H 0.35838 0.43385 0.28317 0.0
Co39 Co 0.33592 0.44467 0.21937 0.0
C40 C 0.30714 0.45049 0.22545 0.0
O41 O 0.31707 0.46555 0.20411 0.0
N42 N 0.33504 0.45245 0.13843 0.0
C43 C 0.33811 0.46847 0.05759 0.0
C44 C 0.34086 0.46835 0.11886 0.0
C45 C 0.32879 0.44319 0.08686 0.0
N46 N 0.33062 0.45265 0.03735 0.0
O47 O 0.32732 0.42213 0.18974 0.0
H48 H 0.34658 0.47944 0.14687 0.0
H49 H 0.32292 0.42972 0.08508 0.0
O50 O 0.3129 0.44061 0.23526 0.0
C51 C 0.33969 0.42137 0.16693 0.0
O52 O 0.35395 0.43542 0.1603 0.0
N53 N 0.34691 0.46663 0.25077 0.0
C54 C 0.37015 0.49741 0.30229 0.0
C55 C 0.35342 0.48885 0.32232 0.0
C56 C 0.34201 0.47331 0.29657 0.0
C57 C 0.36317 0.4746 0.23213 0.0
C58 C 0.3748 0.49012 0.25574 0.0
H59 H 0.32955 0.46644 0.31532 0.0
H60 H 0.36716 0.46875 0.1985 0.0
H61 H 0.31816 0.438 0.35136 0.0
H62 H 0.35556 0.42687 0.40068 0.0
H63 H 0.34176 0.47943 0.02972 0.0
H64 H 0.34934 0.4937 0.35937 0.0
H65 H 0.38745 0.4962 0.23804 0.0
C66 C 0.91558 0.33548 0.48968 0.0
C67 C 0.91619 0.33274 0.55078 0.0
N68 N 0.9004 0.32361 0.5719 0.0
N69 N 0.89949 0.32804 0.47164 0.0
C70 C 0.89049 0.3209 0.52269 0.0
H71 H 0.92622 0.34313 0.46088 0.0
Co72 Co 0.89297 0.33071 0.39406 0.0
C73 C 0.85941 0.30089 0.36885 0.0
O74 O 0.85582 0.31015 0.33364 0.0
N75 N 0.88697 0.33404 0.3142 0.0
C76 C 0.87929 0.34378 0.23502 0.0
C77 C 0.88217 0.34507 0.29669 0.0
C78 C 0.88717 0.32641 0.26149 0.0
N79 N 0.88249 0.33209 0.21288 0.0
O80 O 0.90707 0.32273 0.35994 0.0
H81 H 0.88082 0.35366 0.32628 0.0
H82 H 0.8905 0.31674 0.25875 0.0
O83 O 0.87346 0.30757 0.39717 0.0
C84 C 0.92036 0.33465 0.33638 0.0
O85 O 0.92175 0.34949 0.33238 0.0
N86 N 0.88134 0.34042 0.43002 0.0
C87 C 0.87154 0.36103 0.48887 0.0
C88 C 0.86004 0.34397 0.47951 0.0
C89 C 0.86527 0.33375 0.45071 0.0
C90 C 0.89262 0.35689 0.43945 0.0
C91 C 0.88801 0.3674 0.46836 0.0
H92 H 0.85649 0.32056 0.44682 0.0
H93 H 0.90539 0.36189 0.42401 0.0
H94 H 0.87695 0.31436 0.524 0.0
H95 H 0.92745 0.33795 0.57806 0.0
H96 H 0.87553 0.35119 0.20821 0.0
H97 H 0.84727 0.33852 0.49566 0.0
H98 H 0.89728 0.38048 0.47404 0.0
C99 C 0.58622 0.9144 0.68876 0.0
C100 C 0.58935 0.91456 0.74995 0.0
N101 N 0.58118 0.89869 0.77047 0.0
N102 N 0.57632 0.89849 0.67018 0.0
C103 C 0.57338 0.88917 0.72111 0.0
H104 H 0.59022 0.92529 0.66031 0.0
Co105 Co 0.56718 0.89262 0.59223 0.0
C106 C 0.56154 0.8584 0.56661 0.0
O107 O 0.54833 0.8553 0.53423 0.0
N108 N 0.55792 0.88719 0.51233 0.0
C109 C 0.5409 0.88112 0.43265 0.0
C110 C 0.54261 0.88406 0.49421 0.0
C111 C 0.56535 0.8863 0.46013 0.0
N112 N 0.55521 0.88255 0.41114 0.0
O113 O 0.58943 0.90623 0.55858 0.0
H114 H 0.53314 0.88401 0.52319 0.0
H115 H 0.57793 0.88825 0.45813 0.0
O116 O 0.56991 0.87256 0.59365 0.0
C117 C 0.59142 0.91964 0.53377 0.0
O118 O 0.57832 0.92157 0.52759 0.0
N119 N 0.54573 0.88159 0.62758 0.0
C120 C 0.51523 0.87301 0.68341 0.0
C121 C 0.52012 0.86097 0.67487 0.0
C122 C 0.53564 0.86559 0.64772 0.0
C123 C 0.54128 0.89343 0.63699 0.0
C124 C 0.52611 0.88943 0.66424 0.0
H125 H 0.53953 0.85639 0.64475 0.0
H126 H 0.54961 0.90615 0.62229 0.0
H127 H 0.56524 0.87574 0.72238 0.0
H128 H 0.59626 0.9256 0.7779 0.0
H129 H 0.5301 0.8786 0.40546 0.0
H130 H 0.51222 0.84823 0.69036 0.0
H131 H 0.52286 0.89913 0.6695 0.0
C132 C 0.67483 0.58462 0.83778 0.0
C133 C 0.67762 0.5879 0.89902 0.0
N134 N 0.68532 0.57983 0.92069 0.0
N135 N 0.68086 0.57463 0.82028 0.0
C136 C 0.68723 0.57197 0.87185 0.0
H137 H 0.66808 0.58863 0.80862 0.0
Co138 Co 0.67764 0.56489 0.74298 0.0
C139 C 0.7057 0.55836 0.7224 0.0
O140 O 0.69516 0.54455 0.69375 0.0
N141 N 0.67396 0.55507 0.66358 0.0
C142 C 0.66342 0.5377 0.58448 0.0
C143 C 0.66224 0.53948 0.64604 0.0
C144 C 0.68201 0.56251 0.611 0.0
N145 N 0.67581 0.5522 0.56228 0.0
O146 O 0.68612 0.58679 0.70691 0.0
H147 H 0.65319 0.52983 0.67533 0.0
H148 H 0.69224 0.57527 0.6084 0.0
O149 O 0.70042 0.56764 0.7456 0.0
C150 C 0.67387 0.58788 0.68497 0.0
O151 O 0.65896 0.57441 0.68528 0.0
N152 N 0.66719 0.54369 0.78047 0.0
C153 C 0.64525 0.51365 0.83933 0.0
C154 C 0.66251 0.51929 0.83622 0.0
C155 C 0.67335 0.53451 0.80719 0.0
C156 C 0.65061 0.53865 0.7851 0.0
C157 C 0.63943 0.52363 0.81311 0.0
H158 H 0.6866 0.53899 0.80848 0.0
H159 H 0.64599 0.54634 0.76567 0.0
H160 H 0.6927 0.564 0.87395 0.0
H161 H 0.67337 0.59486 0.92613 0.0
H162 H 0.65538 0.52669 0.55779 0.0
H163 H 0.66766 0.51227 0.85738 0.0
H164 H 0.62627 0.51985 0.81348 0.0
C165 C 0.09622 0.65353 0.98023 0.0
C166 C 0.09266 0.65334 0.04109 0.0
N167 N 0.10247 0.66882 0.06383 0.0
N168 N 0.10819 0.66906 0.96426 0.0
C169 C 0.1116 0.67818 0.01599 0.0
H170 H 0.09099 0.64283 0.95014 0.0
Co171 Co 0.118 0.6743 0.88684 0.0
C172 C 0.15027 0.70524 0.92687 0.0
O173 O 0.15858 0.69719 0.93005 0.0
N174 N 0.12763 0.67966 0.80738 0.0
C175 C 0.14597 0.68815 0.73083 0.0
C176 C 0.14389 0.68574 0.79261 0.0
C177 C 0.12011 0.67846 0.75304 0.0
N178 N 0.13099 0.68359 0.7058 0.0
O179 O 0.10228 0.68146 0.86485 0.0
H180 H 0.15368 0.68782 0.82415 0.0
H181 H 0.10693 0.67406 0.74774 0.0
O182 O 0.13474 0.69759 0.91197 0.0
C183 C 0.08901 0.66839 0.84672 0.0
O184 O 0.08953 0.65448 0.84074 0.0
N185 N 0.13139 0.66463 0.90892 0.0
C186 C 0.1419 0.64219 0.94534 0.0
C187 C 0.14297 0.65454 0.98523 0.0
C188 C 0.13753 0.66549 0.96644 0.0
C189 C 0.13033 0.65263 0.86964 0.0
C190 C 0.13585 0.64158 0.88637 0.0
H191 H 0.13776 0.67431 0.99924 0.0
H192 H 0.12419 0.65082 0.82614 0.0
H193 H 0.12116 0.69121 0.01922 0.0
H194 H 0.08427 0.64238 0.06729 0.0
H195 H 0.15758 0.6925 0.70618 0.0
H196 H 0.14743 0.65535 0.03141 0.0
H197 H 0.13431 0.63189 0.85475 0.0
C198 C 0.91701 0.57347 0.6882 0.0
C199 C 0.91934 0.5772 0.62718 0.0
N200 N 0.90472 0.57439 0.60321 0.0
N201 N 0.901 0.56841 0.70317 0.0
C202 C 0.8938 0.56913 0.65042 0.0
H203 H 0.92628 0.57391 0.71934 0.0
Co204 Co 0.89225 0.56074 0.78074 0.0
C205 C 0.85756 0.55461 0.77637 0.0
O206 O 0.85278 0.53989 0.80035 0.0
N207 N 0.88362 0.55295 0.86182 0.0
C208 C 0.87165 0.53702 0.94385 0.0
C209 C 0.87448 0.53703 0.88254 0.0
C210 C 0.88601 0.56233 0.91263 0.0
N211 N 0.87901 0.55296 0.96295 0.0
O212 O 0.90585 0.58333 0.81038 0.0
H213 H 0.8698 0.52583 0.8554 0.0
H214 H 0.89282 0.57585 0.91331 0.0
O215 O 0.8731 0.56443 0.76438 0.0
C216 C 0.91889 0.58436 0.83509 0.0
O217 O 0.91943 0.5705 0.84215 0.0
N218 N 0.88155 0.53876 0.74969 0.0
C219 C 0.87391 0.50762 0.70118 0.0
C220 C 0.86524 0.51575 0.68187 0.0
C221 C 0.86942 0.53146 0.7061 0.0
C222 C 0.89043 0.53131 0.76707 0.0
C223 C 0.88653 0.51564 0.74504 0.0
H224 H 0.86331 0.53791 0.68809 0.0
H225 H 0.90064 0.53763 0.799 0.0
H226 H 0.88075 0.56558 0.6464 0.0
H227 H 0.93075 0.58093 0.60191 0.0
H228 H 0.86512 0.52609 0.97256 0.0
H229 H 0.85576 0.51035 0.64677 0.0
H230 H 0.8935 0.50996 0.76231 0.0
C231 C 0.35168 0.91016 0.82884 0.0
C232 C 0.35246 0.91381 0.76792 0.0
N233 N 0.33698 0.90474 0.74412 0.0
N234 N 0.33581 0.89881 0.84373 0.0
C235 C 0.32707 0.89586 0.79133 0.0
H236 H 0.36216 0.91496 0.85996 0.0
Co237 Co 0.32948 0.88947 0.92138 0.0
C238 C 0.30016 0.85648 0.87596 0.0
O239 O 0.30906 0.84903 0.87355 0.0
N240 N 0.32306 0.8804 1.00049 0.0
C241 C 0.31317 0.86254 0.07803 0.0
C242 C 0.31572 0.8641 0.0163 0.0
C243 C 0.32492 0.8885 0.05395 0.0
N244 N 0.31894 0.87789 0.10189 0.0
O245 O 0.32087 0.90439 0.93641 0.0
H246 H 0.31289 0.85393 0.98558 0.0
H247 H 0.33056 0.90191 0.05781 0.0
O248 O 0.30693 0.87186 0.8924 0.0
C249 C 0.33319 0.91864 0.95106 0.0
O250 O 0.3479 0.91993 0.95944 0.0
N251 N 0.34041 0.87676 0.90674 0.0
C252 C 0.36453 0.86736 0.88278 0.0
C253 C 0.35312 0.86594 0.83779 0.0
C254 C 0.34139 0.87095 0.85031 0.0
C255 C 0.35136 0.87801 0.95112 0.0
C256 C 0.36321 0.87309 0.94055 0.0
H257 H 0.33355 0.87075 0.81348 0.0
H258 H 0.35176 0.88386 0.99418 0.0
H259 H 0.31382 0.88701 0.78749 0.0
H260 H 0.36374 0.92187 0.74259 0.0
H261 H 0.30796 0.85097 0.10351 0.0
H262 H 0.3539 0.86202 0.79199 0.0
H263 H 0.3718 0.8745 0.97673 0.0
C264 C 0.43908 0.34666 0.04081 0.0
C265 C 0.43522 0.3453 0.97992 0.0
N266 N 0.43617 0.33227 0.95692 0.0
N267 N 0.44238 0.3345 0.05657 0.0
C268 C 0.44048 0.32588 1.00443 0.0
H269 H 0.43991 0.35624 0.07133 0.0
Co270 Co 0.44926 0.33262 0.13457 0.0
C271 C 0.45325 0.3027 0.12895 0.0
O272 O 0.46808 0.31175 0.15359 0.0
N273 N 0.45624 0.33099 0.2161 0.0
C274 C 0.47145 0.33328 0.29863 0.0
C275 C 0.4719 0.3362 0.23729 0.0
C276 C 0.44654 0.32487 0.26676 0.0
N277 N 0.4555 0.32624 0.31733 0.0
O278 O 0.42665 0.32477 0.16224 0.0
H279 H 0.48321 0.34162 0.21042 0.0
H280 H 0.4331 0.31946 0.26714 0.0
O281 O 0.44424 0.30937 0.11748 0.0
C282 C 0.42615 0.33727 0.18501 0.0
O283 O 0.44041 0.35125 0.19296 0.0
N284 N 0.47142 0.3428 0.10511 0.0
C285 C 0.50328 0.36427 0.0585 0.0
C286 C 0.49382 0.34788 0.03636 0.0
C287 C 0.47777 0.33729 0.06012 0.0
C288 C 0.48022 0.359 0.12437 0.0
C289 C 0.49634 0.36979 0.10308 0.0
H290 H 0.47034 0.32498 0.04072 0.0
H291 H 0.4746 0.36357 0.1568 0.0
H292 H 0.44249 0.31533 1.00102 0.0
H293 H 0.43266 0.35374 0.95399 0.0
H294 H 0.48215 0.33655 0.32758 0.0
H295 H 0.49866 0.34343 1.00041 0.0
H296 H 0.50311 0.38254 0.11976 0.0
C297 C 0.0955 0.41979 0.15125 0.0
C298 C 0.09551 0.4164 0.09032 0.0
N299 N 0.11124 0.42565 0.06918 0.0
N300 N 0.11119 0.43094 0.16906 0.0
C301 C 0.12053 0.43435 0.11777 0.0
H302 H 0.08455 0.415 0.17993 0.0
Co303 Co 0.1168 0.44056 0.24676 0.0
C304 C 0.15141 0.44752 0.27253 0.0
O305 O 0.15412 0.46098 0.30247 0.0
N306 N 0.12197 0.4502 0.32623 0.0
C307 C 0.12628 0.46669 0.40636 0.0
C308 C 0.12377 0.465 0.34455 0.0
C309 C 0.12333 0.44311 0.37846 0.0
N310 N 0.12596 0.45289 0.42791 0.0
O311 O 0.10344 0.41849 0.28233 0.0
H312 H 0.123 0.47402 0.3157 0.0
H313 H 0.12233 0.43093 0.3801 0.0
O314 O 0.13719 0.43835 0.24682 0.0
C315 C 0.08998 0.41694 0.30521 0.0
O316 O 0.08786 0.43 0.3053 0.0
N317 N 0.12755 0.46187 0.21003 0.0
C318 C 0.13576 0.49205 0.15218 0.0
C319 C 0.14775 0.48699 0.15892 0.0
C320 C 0.14334 0.4717 0.18738 0.0
C321 C 0.11568 0.46635 0.20182 0.0
C322 C 0.11954 0.48141 0.17418 0.0
H323 H 0.15248 0.46772 0.18891 0.0
H324 H 0.1031 0.45818 0.2182 0.0
H325 H 0.13377 0.44335 0.11554 0.0
H326 H 0.08462 0.40851 0.06283 0.0
H327 H 0.1276 0.47706 0.43355 0.0
H328 H 0.16029 0.49455 0.14105 0.0
H329 H 0.10985 0.48473 0.1709 0.0
C330 C 0.66698 0.09186 0.34592 0.0
C331 C 0.66941 0.0903 0.28516 0.0
N332 N 0.68033 0.10556 0.2631 0.0
N333 N 0.67644 0.10798 0.36273 0.0
C334 C 0.68439 0.11611 0.31113 0.0
H335 H 0.65843 0.08193 0.37573 0.0
Co336 Co 0.67553 0.11506 0.44121 0.0
C337 C 0.70374 0.14978 0.45352 0.0
O338 O 0.69345 0.15341 0.48208 0.0
N339 N 0.67411 0.12175 0.52287 0.0
C340 C 0.66674 0.13036 0.6063 0.0
C341 C 0.66426 0.1276 0.54489 0.0
C342 C 0.68247 0.12116 0.57289 0.0
N343 N 0.67812 0.12624 0.62406 0.0
O344 O 0.68499 0.10185 0.47067 0.0
H345 H 0.65582 0.13001 0.51886 0.0
H346 H 0.6916 0.11708 0.57206 0.0
O347 O 0.69825 0.13496 0.43251 0.0
C348 C 0.67421 0.08833 0.49662 0.0
O349 O 0.65909 0.08586 0.50629 0.0
N350 N 0.66436 0.12578 0.40956 0.0
C351 C 0.64213 0.13531 0.36379 0.0
C352 C 0.6594 0.14517 0.35294 0.0
C353 C 0.67037 0.14008 0.37579 0.0
C354 C 0.64753 0.11548 0.416 0.0
C355 C 0.63624 0.12017 0.39498 0.0
H356 H 0.6835 0.14746 0.36498 0.0
H357 H 0.6429 0.10366 0.43935 0.0
H358 H 0.69274 0.12949 0.30855 0.0
H359 H 0.66304 0.07891 0.25863 0.0
H360 H 0.66026 0.13464 0.63595 0.0
H361 H 0.66436 0.15669 0.32721 0.0
H362 H 0.62297 0.1119 0.40233 0.0
C363 C 0.5893 0.67702 0.50961 0.0
C364 C 0.5923 0.68 0.44833 0.0
N365 N 0.58212 0.68529 0.42646 0.0
N366 N 0.57737 0.68057 0.52694 0.0
C367 C 0.57327 0.68563 0.47509 0.0
H368 H 0.59496 0.67182 0.53877 0.0
Co369 Co 0.56742 0.67638 0.60441 0.0
C370 C 0.56194 0.70498 0.6332 0.0
O371 O 0.54874 0.69484 0.66558 0.0
N372 N 0.55747 0.67171 0.68324 0.0
C373 C 0.54022 0.65954 0.7615 0.0
C374 C 0.54224 0.65906 0.69973 0.0
C375 C 0.56451 0.67956 0.73648 0.0
N376 N 0.55424 0.67243 0.78475 0.0
O377 O 0.58924 0.68443 0.64105 0.0
H378 H 0.53314 0.64975 0.6695 0.0
H379 H 0.57695 0.69035 0.73969 0.0
O380 O 0.57022 0.69919 0.60537 0.0
C381 C 0.59013 0.67188 0.66097 0.0
O382 O 0.57667 0.657 0.65739 0.0
N383 N 0.54622 0.66637 0.56702 0.0
C384 C 0.51544 0.64461 0.51249 0.0
C385 C 0.52021 0.66144 0.52347 0.0
C386 C 0.53582 0.67224 0.55023 0.0
C387 C 0.54198 0.65027 0.55469 0.0
C388 C 0.52668 0.63919 0.52823 0.0
H389 H 0.53945 0.68519 0.556 0.0
H390 H 0.55048 0.64591 0.56721 0.0
H391 H 0.56361 0.68899 0.4726 0.0
H392 H 0.60063 0.67749 0.42132 0.0
H393 H 0.52943 0.65069 0.78753 0.0
H394 H 0.51208 0.66625 0.51079 0.0
H395 H 0.52356 0.62632 0.52156 0.0
H396 H 0.47351 0.29086 0.09473 0.0
H397 H 0.46621 0.26204 0.07486 0.0
H398 H 0.41411 0.24574 0.1059 0.0
H399 H 0.42142 0.27502 0.12507 0.0
H400 H 0.42785 0.22684 0.17123 0.0
H401 H 0.42246 0.24291 0.97073 0.0
H402 H 0.43057 0.26141 0.88111 0.0
H403 H 0.47544 0.25865 0.86155 0.0
H404 H 0.46776 0.24036 0.9517 0.0
H405 H 0.42002 0.1468 0.08953 0.0
H406 H 0.41442 0.17016 0.0979 0.0
H407 H 0.46409 0.20403 0.03062 0.0
H408 H 0.46947 0.18099 0.02048 0.0
H409 H 0.44338 0.21078 0.9767 0.0
H410 H 0.45143 0.19976 0.18849 0.0
H411 H 0.44407 0.18192 0.27998 0.0
H412 H 0.39463 0.17549 0.27866 0.0
H413 H 0.40165 0.19315 0.18684 0.0
C414 C 0.46045 0.28121 0.09686 0.0
C415 C 0.44803 0.28523 0.11149 0.0
C416 C 0.4563 0.26471 0.08542 0.0
C417 C 0.43963 0.25171 0.08892 0.0
C418 C 0.42707 0.2556 0.103 0.0
C419 C 0.43122 0.2723 0.11345 0.0
C420 C 0.43585 0.2342 0.07872 0.0
C421 C 0.43083 0.22311 0.12826 0.0
C422 C 0.43992 0.22942 0.02294 0.0
C423 C 0.44456 0.24031 0.96824 0.0
C424 C 0.43412 0.24634 0.9476 0.0
C425 C 0.43863 0.25678 0.89665 0.0
C426 C 0.45352 0.26122 0.86569 0.0
C427 C 0.46391 0.2552 0.88557 0.0
C428 C 0.45947 0.24477 0.93655 0.0
C429 C 0.42971 0.15925 0.07661 0.0
C430 C 0.44517 0.16196 0.05415 0.0
C431 C 0.42653 0.17263 0.08157 0.0
C432 C 0.43885 0.18899 0.06508 0.0
C433 C 0.45428 0.19159 0.04317 0.0
C434 C 0.45737 0.17832 0.0376 0.0
C435 C 0.43613 0.20364 0.07007 0.0
C436 C 0.43998 0.21424 0.01935 0.0
C437 C 0.43107 0.20798 0.12486 0.0
C438 C 0.42699 0.19758 0.18045 0.0
C439 C 0.43896 0.19446 0.20756 0.0
C440 C 0.43486 0.18439 0.25948 0.0
C441 C 0.41887 0.17752 0.28492 0.0
C442 C 0.40699 0.18078 0.25879 0.0
C443 C 0.41103 0.19082 0.20686 0.0
H444 H 0.41566 0.16967 0.32491 0.0
H445 H 0.45699 0.2693 0.82626 0.0
H446 H 0.15086 0.4188 0.23203 0.0
H447 H 0.17496 0.41431 0.22125 0.0
H448 H 0.20795 0.46459 0.28408 0.0
H449 H 0.18428 0.46907 0.29562 0.0
H450 H 0.21891 0.45636 0.1768 0.0
H451 H 0.19757 0.43339 0.378 0.0
H452 H 0.17591 0.41373 0.4489 0.0
H453 H 0.1737 0.37221 0.35226 0.0
H454 H 0.19519 0.39164 0.28023 0.0
H455 H 0.29619 0.47102 0.2649 0.0
H456 H 0.26751 0.46544 0.27087 0.0
H457 H 0.24926 0.41406 0.21988 0.0
H458 H 0.27835 0.41958 0.21521 0.0
H459 H 0.22818 0.41751 0.30518 0.0
H460 H 0.25209 0.4403 0.11222 0.0
H461 H 0.27387 0.45975 0.04128 0.0
H462 H 0.27062 0.50085 0.11789 0.0
H463 H 0.24902 0.48169 0.19001 0.0
C464 C 0.16326 0.42886 0.24353 0.0
C465 C 0.16559 0.44428 0.26475 0.0
C466 C 0.177 0.42626 0.23756 0.0
C467 C 0.19328 0.43912 0.25193 0.0
C468 C 0.19555 0.45449 0.27262 0.0
C469 C 0.18192 0.457 0.27935 0.0
C470 C 0.20824 0.43707 0.24489 0.0
C471 C 0.22092 0.44785 0.20484 0.0
C472 C 0.21067 0.42558 0.27993 0.0
C473 C 0.19781 0.41394 0.32328 0.0
C474 C 0.19234 0.42006 0.37151 0.0
C475 C 0.18013 0.40896 0.41198 0.0
C476 C 0.17339 0.39173 0.40495 0.0
C477 C 0.1789 0.38556 0.35756 0.0
C478 C 0.1911 0.3966 0.31692 0.0
C479 C 0.2861 0.45844 0.25586 0.0
C480 C 0.28954 0.44578 0.23888 0.0
C481 C 0.26967 0.45527 0.25914 0.0
C482 C 0.2562 0.43945 0.24429 0.0
C483 C 0.25946 0.42641 0.2311 0.0
C484 C 0.27606 0.42955 0.22855 0.0
C485 C 0.23908 0.43727 0.23868 0.0
C486 C 0.22603 0.42575 0.27611 0.0
C487 C 0.23617 0.44799 0.20074 0.0
C488 C 0.24897 0.45955 0.15673 0.0
C489 C 0.25608 0.4535 0.11416 0.0
C490 C 0.26839 0.46447 0.07372 0.0
C491 C 0.27363 0.48153 0.07511 0.0
C492 C 0.26654 0.48763 0.11685 0.0
C493 C 0.25424 0.47672 0.15747 0.0
H494 H 0.28318 0.49001 0.0438 0.0
H495 H 0.16394 0.38315 0.43634 0.0
H496 H 0.71576 0.1832 0.46191 0.0
H497 H 0.74441 0.2059 0.4511 0.0
H498 H 0.76073 0.17026 0.41629 0.0
H499 H 0.73162 0.14725 0.42502 0.0
H500 H 0.77132 0.21499 0.51252 0.0
H501 H 0.79681 0.18937 0.33165 0.0
H502 H 0.78656 0.16817 0.24991 0.0
H503 H 0.74443 0.17518 0.22105 0.0
H504 H 0.75454 0.19655 0.30225 0.0
H505 H 0.85642 0.27942 0.46206 0.0
H506 H 0.83286 0.25098 0.47995 0.0
H507 H 0.80933 0.2541 0.31471 0.0
H508 H 0.83263 0.28213 0.2965 0.0
H509 H 0.80512 0.2233 0.32652 0.0
H510 H 0.79885 0.26306 0.45353 0.0
H511 H 0.80805 0.28478 0.53308 0.0
H512 H 0.80978 0.25102 0.66338 0.0
H513 H 0.8008 0.22917 0.58428 0.0
C514 C 0.72538 0.1801 0.45169 0.0
C515 C 0.72134 0.16335 0.4442 0.0
C516 C 0.74186 0.19316 0.44585 0.0
C517 C 0.75488 0.18994 0.43283 0.0
C518 C 0.75094 0.17318 0.42553 0.0
C519 C 0.73429 0.16001 0.43054 0.0
C520 C 0.77235 0.20433 0.4263 0.0
C521 C 0.77875 0.21667 0.47204 0.0
C522 C 0.78222 0.20668 0.37378 0.0
C523 C 0.77632 0.19438 0.3234 0.0
C524 C 0.78541 0.18644 0.30761 0.0
C525 C 0.77962 0.17439 0.26148 0.0
C526 C 0.76482 0.17028 0.23062 0.0
C527 C 0.75586 0.17834 0.24525 0.0
C528 C 0.76161 0.19041 0.29132 0.0
C529 C 0.84633 0.2739 0.42918 0.0
C530 C 0.84634 0.28312 0.37818 0.0
C531 C 0.83284 0.25768 0.43952 0.0
C532 C 0.8192 0.2504 0.39889 0.0
C533 C 0.81966 0.25935 0.34668 0.0
C534 C 0.83299 0.27549 0.33659 0.0
C535 C 0.80381 0.23408 0.41196 0.0
C536 C 0.79783 0.22141 0.36756 0.0
C537 C 0.79417 0.23153 0.46524 0.0
C538 C 0.79936 0.24457 0.5129 0.0
C539 C 0.8013 0.26032 0.49907 0.0
C540 C 0.80646 0.27264 0.54406 0.0
C541 C 0.80955 0.2693 0.6032 0.0
C542 C 0.80742 0.25361 0.61751 0.0
C543 C 0.8023 0.24125 0.57264 0.0
H544 H 0.81355 0.27886 0.63797 0.0
H545 H 0.76029 0.16083 0.19547 0.0
H546 H 0.58747 0.73044 0.5666 0.0
H547 H 0.59351 0.75949 0.55659 0.0
H548 H 0.5516 0.74836 0.67347 0.0
H549 H 0.54579 0.71981 0.68469 0.0
H550 H 0.57641 0.77264 0.51041 0.0
H551 H 0.55746 0.78068 0.75683 0.0
H552 H 0.55942 0.77203 0.86127 0.0
H553 H 0.60109 0.76625 0.80862 0.0
H554 H 0.59956 0.7751 0.7041 0.0
H555 H 0.545 0.82714 0.51768 0.0
H556 H 0.55094 0.80449 0.52892 0.0
H557 H 0.59359 0.8358 0.64171 0.0
H558 H 0.58743 0.85874 0.63167 0.0
H559 H 0.57689 0.80568 0.68959 0.0
H560 H 0.59873 0.8258 0.49389 0.0
H561 H 0.59953 0.83583 0.38926 0.0
H562 H 0.5577 0.78814 0.34033 0.0
H563 H 0.55648 0.7779 0.44491 0.0
C564 C 0.57965 0.73426 0.59053 0.0
C565 C 0.56619 0.72274 0.62666 0.0
C566 C 0.58309 0.75086 0.58469 0.0
C567 C 0.5732 0.75628 0.61515 0.0
C568 C 0.55971 0.74472 0.65072 0.0
C569 C 0.55632 0.72826 0.6567 0.0
C570 C 0.57628 0.77372 0.6083 0.0
C571 C 0.57666 0.77992 0.54961 0.0
C572 C 0.57716 0.78357 0.65934 0.0
C573 C 0.57832 0.77847 0.72245 0.0
C574 C 0.56712 0.77767 0.7676 0.0
C575 C 0.56814 0.7727 0.82681 0.0
C576 C 0.58035 0.76856 0.84154 0.0
C577 C 0.5916 0.76942 0.79711 0.0
C578 C 0.59065 0.77439 0.73785 0.0
C579 C 0.55572 0.82936 0.5448 0.0
C580 C 0.56577 0.84487 0.57363 0.0
C581 C 0.55918 0.81634 0.55079 0.0
C582 C 0.57292 0.81844 0.58514 0.0
C583 C 0.58297 0.83387 0.61454 0.0
C584 C 0.57946 0.84699 0.6087 0.0
C585 C 0.57613 0.80416 0.59174 0.0
C586 C 0.57693 0.79855 0.65037 0.0
C587 C 0.57675 0.79506 0.54063 0.0
C588 C 0.57747 0.80111 0.47743 0.0
C589 C 0.58964 0.81748 0.46094 0.0
C590 C 0.59017 0.8232 0.40161 0.0
C591 C 0.57866 0.81264 0.3582 0.0
C592 C 0.56661 0.79631 0.374 0.0
C593 C 0.56601 0.79053 0.43329 0.0
H594 H 0.57909 0.81709 0.31229 0.0
H595 H 0.5811 0.7647 0.88739 0.0
H596 H 0.7344 0.58855 0.74579 0.0
H597 H 0.76316 0.59345 0.75696 0.0
H598 H 0.74466 0.54071 0.73307 0.0
H599 H 0.71634 0.53582 0.72081 0.0
H600 H 0.76666 0.55557 0.83499 0.0
H601 H 0.76225 0.56458 0.61859 0.0
H602 H 0.75799 0.57911 0.53226 0.0
H603 H 0.79978 0.62566 0.59128 0.0
H604 H 0.80412 0.61142 0.67855 0.0
H605 H 0.82461 0.5332 0.75764 0.0
H606 H 0.80203 0.53944 0.75001 0.0
H607 H 0.83767 0.59225 0.75905 0.0
H608 H 0.86072 0.58601 0.76588 0.0
H609 H 0.81048 0.58418 0.67715 0.0
H610 H 0.81773 0.57441 0.88441 0.0
H611 H 0.82213 0.55985 0.97024 0.0
H612 H 0.77525 0.51562 0.93168 0.0
H613 H 0.77068 0.52982 0.84496 0.0
C614 C 0.73652 0.57804 0.74316 0.0
C615 C 0.72309 0.56181 0.7322 0.0
C616 C 0.75293 0.58086 0.7493 0.0
C617 C 0.75605 0.56743 0.7457 0.0
C618 C 0.74258 0.55125 0.73601 0.0
C619 C 0.72637 0.5485 0.72881 0.0
C620 C 0.77319 0.5698 0.75197 0.0
C621 C 0.77627 0.56189 0.80062 0.0
C622 C 0.78592 0.57848 0.70814 0.0
C623 C 0.78336 0.58699 0.65553 0.0
C624 C 0.77042 0.57794 0.6135 0.0
C625 C 0.76801 0.58612 0.56433 0.0
C626 C 0.77856 0.60331 0.55642 0.0
C627 C 0.79159 0.61235 0.59755 0.0
C628 C 0.79403 0.60423 0.64686 0.0
C629 C 0.82777 0.54619 0.75744 0.0
C630 C 0.84449 0.55911 0.7633 0.0
C631 C 0.81479 0.54974 0.75308 0.0
C632 C 0.81806 0.5663 0.75536 0.0
C633 C 0.83482 0.57937 0.75763 0.0
C634 C 0.84797 0.57579 0.7615 0.0
C635 C 0.80369 0.56941 0.75914 0.0
C636 C 0.80109 0.57828 0.71248 0.0
C637 C 0.79137 0.56172 0.80516 0.0
C638 C 0.7939 0.55318 0.85798 0.0
C639 C 0.80839 0.56155 0.89403 0.0
C640 C 0.81092 0.55336 0.94285 0.0
C641 C 0.79899 0.53682 0.95637 0.0
C642 C 0.78448 0.52844 0.92117 0.0
C643 C 0.7819 0.53657 0.87222 0.0
H644 H 0.80097 0.53049 0.99416 0.0
H645 H 0.77668 0.60962 0.51832 0.0
H646 H 0.27552 0.85808 0.94131 0.0
H647 H 0.24627 0.83542 0.95154 0.0
H648 H 0.25431 0.80763 0.81068 0.0
H649 H 0.28338 0.82994 0.8011 0.0
H650 H 0.21676 0.81501 0.87736 0.0
H651 H 0.24277 0.76965 0.868 0.0
H652 H 0.2694 0.77018 0.8869 0.0
H653 H 0.28393 0.81037 0.01463 0.0
H654 H 0.25727 0.80985 0.99739 0.0
H655 H 0.15245 0.72859 0.84532 0.0
H656 H 0.17493 0.75791 0.84059 0.0
H657 H 0.19326 0.75246 0.01494 0.0
H658 H 0.17134 0.72307 0.01792 0.0
H659 H 0.21729 0.76378 0.94183 0.0
H660 H 0.17668 0.77971 0.98725 0.0
H661 H 0.15033 0.7802 0.97646 0.0
H662 H 0.16441 0.79989 0.79546 0.0
H663 H 0.19076 0.7993 0.80483 0.0
C664 C 0.27083 0.84742 0.91099 0.0
C665 C 0.28175 0.84571 0.8707 0.0
C666 C 0.25412 0.83446 0.91695 0.0
C667 C 0.24817 0.8197 0.88255 0.0
C668 C 0.25865 0.8188 0.83818 0.0
C669 C 0.27528 0.83158 0.83269 0.0
C670 C 0.23218 0.8043 0.89859 0.0
C671 C 0.21679 0.80378 0.89158 0.0
C672 C 0.23224 0.78977 0.91878 0.0
C673 C 0.24809 0.7898 0.93093 0.0
C674 C 0.2516 0.77852 0.90041 0.0
C675 C 0.26671 0.77882 0.91081 0.0
C676 C 0.27837 0.79033 0.9518 0.0
C677 C 0.27491 0.80149 0.98277 0.0
C678 C 0.25981 0.80119 0.97269 0.0
C679 C 0.16091 0.73389 0.88358 0.0
C680 C 0.16011 0.72365 0.93223 0.0
C681 C 0.17383 0.75067 0.88086 0.0
C682 C 0.18596 0.75753 0.92734 0.0
C683 C 0.18423 0.74754 0.97817 0.0
C684 C 0.1716 0.73076 0.98022 0.0
C685 C 0.20154 0.77417 0.91985 0.0
C686 C 0.21702 0.77494 0.92818 0.0
C687 C 0.20146 0.78893 0.90241 0.0
C688 C 0.18564 0.78932 0.89658 0.0
C689 C 0.1741 0.78402 0.94496 0.0
C690 C 0.15918 0.78434 0.93913 0.0
C691 C 0.15568 0.79004 0.88526 0.0
C692 C 0.16713 0.79547 0.83715 0.0
C693 C 0.18207 0.79516 0.84272 0.0
H694 H 0.14412 0.79028 0.88084 0.0
H695 H 0.29007 0.79057 0.95965 0.0
H696 H 0.42317 0.10978 0.83706 0.0
H697 H 0.41669 0.10961 0.72884 0.0
H698 H 0.46937 0.13962 0.68866 0.0
H699 H 0.47586 0.14044 0.79656 0.0
H700 H 0.45211 0.1493 0.61974 0.0
H701 H 0.44721 0.09614 0.67571 0.0
H702 H 0.43556 0.0699 0.73442 0.0
H703 H 0.38632 0.05528 0.66834 0.0
H704 H 0.3976 0.08159 0.61052 0.0
H705 H 0.45594 0.1299 0.30809 0.0
H706 H 0.45872 0.13505 0.41802 0.0
H707 H 0.40574 0.10101 0.44031 0.0
H708 H 0.40315 0.09544 0.33076 0.0
H709 H 0.42106 0.0938 0.5198 0.0
H710 H 0.42524 0.14555 0.45982 0.0
H711 H 0.43603 0.17183 0.40205 0.0
H712 H 0.48524 0.18906 0.47395 0.0
H713 H 0.47479 0.16281 0.53191 0.0
C714 C 0.43335 0.11662 0.80539 0.0
C715 C 0.45007 0.12493 0.8256 0.0
C716 C 0.42964 0.11638 0.74336 0.0
C717 C 0.44257 0.12432 0.70026 0.0
C718 C 0.45917 0.1333 0.72079 0.0
C719 C 0.46288 0.1336 0.7826 0.0
C720 C 0.43904 0.12264 0.63359 0.0
C721 C 0.44539 0.13716 0.59778 0.0
C722 C 0.42994 0.10682 0.60493 0.0
C723 C 0.42322 0.09093 0.63937 0.0
C724 C 0.43387 0.08739 0.67416 0.0
C725 C 0.42733 0.0725 0.70734 0.0
C726 C 0.41018 0.06096 0.70547 0.0
C727 C 0.39957 0.06425 0.67018 0.0
C728 C 0.40603 0.07916 0.63721 0.0
C729 C 0.44486 0.12381 0.33641 0.0
C730 C 0.42933 0.11226 0.31097 0.0
C731 C 0.44643 0.12676 0.39933 0.0
C732 C 0.43241 0.11853 0.43789 0.0
C733 C 0.41677 0.10748 0.41191 0.0
C734 C 0.41528 0.10432 0.34928 0.0
C735 C 0.43418 0.12048 0.50549 0.0
C736 C 0.42758 0.10598 0.54156 0.0
C737 C 0.44294 0.13631 0.53434 0.0
C738 C 0.44925 0.15215 0.49982 0.0
C739 C 0.43839 0.15489 0.46302 0.0
C740 C 0.44443 0.16979 0.43027 0.0
C741 C 0.46131 0.18207 0.43409 0.0
C742 C 0.47217 0.17952 0.47095 0.0
C743 C 0.46619 0.16465 0.50388 0.0
H744 H 0.46596 0.19359 0.40862 0.0
H745 H 0.40513 0.04944 0.73117 0.0
H746 H 0.32018 0.44714 0.45241 0.0
H747 H 0.31557 0.4481 0.56156 0.0
H748 H 0.33459 0.41463 0.59512 0.0
H749 H 0.33865 0.41312 0.48585 0.0
H750 H 0.30859 0.40763 0.66993 0.0
H751 H 0.35983 0.45679 0.60914 0.0
H752 H 0.3768 0.48205 0.54731 0.0
H753 H 0.34723 0.50313 0.6103 0.0
H754 H 0.32992 0.47788 0.67185 0.0
H755 H 0.33378 0.42829 0.98074 0.0
H756 H 0.33097 0.42217 0.87139 0.0
H757 H 0.31612 0.45919 0.84292 0.0
H758 H 0.31942 0.46561 0.95181 0.0
H759 H 0.33875 0.46393 0.76453 0.0
H760 H 0.28824 0.41527 0.83012 0.0
H761 H 0.27115 0.38985 0.89098 0.0
H762 H 0.29899 0.36774 0.81965 0.0
H763 H 0.3164 0.39312 0.75893 0.0
C764 C 0.32304 0.43968 0.48273 0.0
C765 C 0.32998 0.4302 0.46023 0.0
C766 C 0.32053 0.44036 0.54531 0.0
C767 C 0.32503 0.43169 0.58674 0.0
C768 C 0.33112 0.42152 0.56417 0.0
C769 C 0.33359 0.42079 0.50164 0.0
C770 C 0.3244 0.434 0.6536 0.0
C771 C 0.31527 0.41992 0.69077 0.0
C772 C 0.3329 0.45006 0.68074 0.0
C773 C 0.34349 0.46538 0.64462 0.0
C774 C 0.35689 0.46677 0.60953 0.0
C775 C 0.36657 0.48109 0.57455 0.0
C776 C 0.36307 0.49417 0.57474 0.0
C777 C 0.34991 0.49298 0.61012 0.0
C778 C 0.34017 0.47868 0.64509 0.0
C779 C 0.3296 0.43485 0.95119 0.0
C780 C 0.32685 0.44745 0.97467 0.0
C781 C 0.32797 0.43135 0.88865 0.0
C782 C 0.32322 0.44014 0.84858 0.0
C783 C 0.31989 0.45229 0.87259 0.0
C784 C 0.32175 0.45594 0.93482 0.0
C785 C 0.3228 0.43755 0.78136 0.0
C786 C 0.33187 0.45162 0.74396 0.0
C787 C 0.31423 0.42147 0.75417 0.0
C788 C 0.30372 0.40616 0.79037 0.0
C789 C 0.2908 0.40503 0.82772 0.0
C790 C 0.28104 0.39062 0.86215 0.0
C791 C 0.28401 0.37721 0.85929 0.0
C792 C 0.29671 0.37815 0.82186 0.0
C793 C 0.30652 0.39254 0.78738 0.0
H794 H 0.27645 0.36606 0.88599 0.0
H795 H 0.37056 0.50523 0.54757 0.0
H796 H 0.87091 0.31698 0.62492 0.0
H797 H 0.86437 0.31365 0.7336 0.0
H798 H 0.91258 0.31884 0.7721 0.0
H799 H 0.91883 0.32123 0.66358 0.0
H800 H 0.88916 0.29629 0.84748 0.0
H801 H 0.9064 0.3541 0.78458 0.0
H802 H 0.90308 0.37333 0.71537 0.0
H803 H 0.85118 0.35064 0.76462 0.0
H804 H 0.85431 0.33159 0.83489 0.0
H805 H 0.90429 0.32569 0.15269 0.0
H806 H 0.90462 0.3207 0.04323 0.0
H807 H 0.85919 0.32279 0.02115 0.0
H808 H 0.85938 0.32855 0.13002 0.0
H809 H 0.87841 0.33952 0.93581 0.0
H810 H 0.86151 0.28493 0.01113 0.0
H811 H 0.86275 0.2636 0.07481 0.0
H812 H 0.9106 0.27666 0.99815 0.0
H813 H 0.90975 0.29823 0.93457 0.0
C814 C 0.88 0.31706 0.6562 0.0
C815 C 0.89557 0.31972 0.63516 0.0
C816 C 0.8763 0.31532 0.7186 0.0
C817 C 0.88817 0.31644 0.76136 0.0
C818 C 0.90328 0.3181 0.74022 0.0
C819 C 0.90691 0.31967 0.67796 0.0
C820 C 0.88548 0.31707 0.82806 0.0
C821 C 0.88691 0.3058 0.86699 0.0
C822 C 0.88209 0.32916 0.8535 0.0
C823 C 0.88059 0.34147 0.8149 0.0
C824 C 0.89434 0.35338 0.78103 0.0
C825 C 0.89249 0.36425 0.74167 0.0
C826 C 0.87695 0.36328 0.73575 0.0
C827 C 0.86326 0.35153 0.7696 0.0
C828 C 0.86508 0.34076 0.80951 0.0
C829 C 0.89428 0.32483 0.12444 0.0
C830 C 0.88181 0.32748 0.14974 0.0
C831 C 0.89441 0.32193 0.06182 0.0
C832 C 0.8818 0.32113 0.02345 0.0
C833 C 0.86912 0.32339 0.04929 0.0
C834 C 0.86919 0.32664 0.11157 0.0
C835 C 0.88225 0.3188 0.95616 0.0
C836 C 0.88048 0.32985 0.91687 0.0
C837 C 0.88508 0.30631 0.93049 0.0
C838 C 0.88562 0.2933 0.96845 0.0
C839 C 0.87235 0.28333 0.00814 0.0
C840 C 0.87298 0.27119 0.04418 0.0
C841 C 0.88677 0.2688 0.04062 0.0
C842 C 0.89994 0.27853 1.00089 0.0
C843 C 0.89938 0.29071 0.96479 0.0
H844 H 0.88723 0.25939 0.06857 0.0
H845 H 0.8755 0.3716 0.70487 0.0
H846 H 0.60436 0.91308 0.85923 0.0
H847 H 0.60035 0.90709 0.9683 0.0
H848 H 0.55002 0.86708 0.93438 0.0
H849 H 0.55393 0.87321 0.82502 0.0
H850 H 0.55108 0.88833 0.02224 0.0
H851 H 0.58001 0.8585 0.98061 0.0
H852 H 0.60272 0.85454 0.94001 0.0
H853 H 0.63814 0.89383 0.05574 0.0
H854 H 0.61567 0.8982 0.09643 0.0
H855 H 0.53359 0.8619 0.32632 0.0
H856 H 0.5387 0.86177 0.21721 0.0
H857 H 0.59009 0.9004 0.24321 0.0
H858 H 0.58504 0.90032 0.35307 0.0
H859 H 0.58811 0.87843 0.15868 0.0
H860 H 0.56029 0.90976 0.19491 0.0
H861 H 0.53817 0.91475 0.23493 0.0
H862 H 0.50142 0.8739 0.12799 0.0
H863 H 0.5233 0.86852 0.08798 0.0
C864 C 0.5925 0.90289 0.87496 0.0
C865 C 0.57945 0.89366 0.8335 0.0
C866 C 0.59026 0.89939 0.9373 0.0
C867 C 0.57491 0.88657 0.95964 0.0
C868 C 0.56199 0.877 0.91818 0.0
C869 C 0.56428 0.88042 0.85564 0.0
C870 C 0.57198 0.88407 0.02646 0.0
C871 C 0.55898 0.88583 0.05191 0.0
C872 C 0.58262 0.88138 0.06547 0.0
C873 C 0.59617 0.87877 0.04119 0.0
C874 C 0.59266 0.86639 0.99705 0.0
C875 C 0.60549 0.86406 0.97409 0.0
C876 C 0.62187 0.87395 0.99518 0.0
C877 C 0.62544 0.88618 0.0394 0.0
C878 C 0.61266 0.88858 0.06248 0.0
C879 C 0.54601 0.87029 0.30881 0.0
C880 C 0.55886 0.88127 0.34812 0.0
C881 C 0.54892 0.87022 0.24642 0.0
C882 C 0.56469 0.88134 0.22163 0.0
C883 C 0.5778 0.89175 0.26116 0.0
C884 C 0.57492 0.89169 0.32392 0.0
C885 C 0.56718 0.88264 0.15435 0.0
C886 C 0.58013 0.88077 0.12889 0.0
C887 C 0.55658 0.88537 0.11516 0.0
C888 C 0.5434 0.88863 0.13895 0.0
C889 C 0.54747 0.90176 0.18028 0.0
C890 C 0.53498 0.90467 0.20291 0.0
C891 C 0.51839 0.89462 0.18414 0.0
C892 C 0.51427 0.88166 0.14257 0.0
C893 C 0.52671 0.87868 0.11987 0.0
H894 H 0.50874 0.8969 0.2017 0.0
H895 H 0.63178 0.87213 0.97735 0.0
H896 H 0.68544 0.5534 0.9749 0.0
H897 H 0.68744 0.54938 0.08405 0.0
H898 H 0.69356 0.59805 0.1202 0.0
H899 H 0.69199 0.60232 0.01105 0.0
H900 H 0.71365 0.59149 0.19447 0.0
H901 H 0.65548 0.56344 0.13202 0.0
H902 H 0.63162 0.54376 0.06862 0.0
H903 H 0.63779 0.50307 0.13056 0.0
H904 H 0.66184 0.52256 0.19373 0.0
H905 H 0.68695 0.58192 0.5046 0.0
H906 H 0.69176 0.58722 0.39507 0.0
H907 H 0.67971 0.53613 0.3668 0.0
H908 H 0.67465 0.53078 0.47586 0.0
H909 H 0.66375 0.54343 0.28736 0.0
H910 H 0.72051 0.57017 0.354 0.0
H911 H 0.74505 0.58925 0.4158 0.0
H912 H 0.74262 0.63141 0.34583 0.0
H913 H 0.71791 0.61255 0.28429 0.0
C914 C 0.68759 0.56341 0.00586 0.0
C915 C 0.68841 0.57814 0.98413 0.0
C916 C 0.68859 0.56104 0.06839 0.0
C917 C 0.6904 0.57331 0.11052 0.0
C918 C 0.6921 0.58837 0.08871 0.0
C919 C 0.69106 0.59073 0.02627 0.0
C920 C 0.68939 0.57008 0.17731 0.0
C921 C 0.7027 0.58107 0.21495 0.0
C922 C 0.67527 0.55626 0.20394 0.0
C923 C 0.66056 0.54448 0.16713 0.0
C924 C 0.6518 0.55031 0.13187 0.0
C925 C 0.63824 0.53919 0.09599 0.0
C926 C 0.63322 0.52218 0.09541 0.0
C927 C 0.6417 0.51625 0.13098 0.0
C928 C 0.65529 0.52732 0.16686 0.0
C929 C 0.68562 0.57193 0.47511 0.0
C930 C 0.68036 0.55592 0.4989 0.0
C931 C 0.68837 0.57495 0.41241 0.0
C932 C 0.68618 0.5621 0.37232 0.0
C933 C 0.68139 0.54624 0.39645 0.0
C934 C 0.6785 0.54319 0.45887 0.0
C935 C 0.68804 0.56486 0.30506 0.0
C936 C 0.67482 0.5538 0.26718 0.0
C937 C 0.70232 0.57852 0.2783 0.0
C938 C 0.71725 0.58992 0.31494 0.0
C939 C 0.72513 0.5835 0.35212 0.0
C940 C 0.73908 0.59428 0.38706 0.0
C941 C 0.74536 0.61153 0.38485 0.0
C942 C 0.73773 0.61804 0.34755 0.0
C943 C 0.72376 0.60731 0.31259 0.0
H944 H 0.75616 0.61985 0.41194 0.0
H945 H 0.62275 0.5136 0.06749 0.0
H946 H 0.07915 0.65511 0.15296 0.0
H947 H 0.08371 0.6599 0.26241 0.0
H948 H 0.1351 0.69758 0.22941 0.0
H949 H 0.13076 0.69242 0.11992 0.0
H950 H 0.13333 0.67622 0.3138 0.0
H951 H 0.10573 0.70773 0.28007 0.0
H952 H 0.08339 0.71268 0.24265 0.0
H953 H 0.04767 0.67327 0.35718 0.0
H954 H 0.06976 0.66791 0.39466 0.0
H955 H 0.15243 0.70367 0.6185 0.0
H956 H 0.14701 0.70303 0.50956 0.0
H957 H 0.09608 0.66366 0.53789 0.0
H958 H 0.10144 0.66413 0.64721 0.0
H959 H 0.09783 0.68682 0.4561 0.0
H960 H 0.12487 0.65445 0.48572 0.0
H961 H 0.14694 0.64898 0.52249 0.0
H962 H 0.18343 0.68973 0.41459 0.0
H963 H 0.16161 0.69559 0.37782 0.0
C964 C 0.0914 0.66449 0.16895 0.0
C965 C 0.1046 0.67331 0.12756 0.0
C966 C 0.09395 0.66733 0.2316 0.0
C967 C 0.10973 0.67918 0.25433 0.0
C968 C 0.12281 0.68839 0.21301 0.0
C969 C 0.12026 0.68554 0.15029 0.0
C970 C 0.11287 0.68112 0.32116 0.0
C971 C 0.12575 0.67886 0.34472 0.0
C972 C 0.10268 0.68404 0.36188 0.0
C973 C 0.08939 0.68732 0.33978 0.0
C974 C 0.09309 0.70003 0.29695 0.0
C975 C 0.08047 0.70293 0.27578 0.0
C976 C 0.06411 0.69327 0.29741 0.0
C977 C 0.06035 0.68073 0.34041 0.0
C978 C 0.07292 0.67777 0.36169 0.0
C979 C 0.14009 0.6948 0.60171 0.0
C980 C 0.12744 0.68382 0.6418 0.0
C981 C 0.13699 0.6945 0.53931 0.0
C982 C 0.12121 0.68314 0.51535 0.0
C983 C 0.10837 0.67253 0.55533 0.0
C984 C 0.11145 0.67284 0.61791 0.0
C985 C 0.11831 0.682 0.44843 0.0
C986 C 0.10546 0.68433 0.42497 0.0
C987 C 0.1285 0.6791 0.40766 0.0
C988 C 0.14164 0.67556 0.42952 0.0
C989 C 0.13762 0.66232 0.47021 0.0
C990 C 0.15008 0.65914 0.49099 0.0
C991 C 0.16658 0.66903 0.47102 0.0
C992 C 0.17065 0.6821 0.43009 0.0
C993 C 0.15824 0.68535 0.40924 0.0
H994 H 0.17621 0.66654 0.48715 0.0
H995 H 0.05436 0.69552 0.28094 0.0
H996 H 0.90551 0.57975 0.01509 0.0
H997 H 0.90948 0.58664 0.12392 0.0
H998 H 0.86021 0.54514 0.1614 0.0
H999 H 0.85615 0.53832 0.05273 0.0
H1000 H 0.86761 0.57312 0.23183 0.0
H1001 H 0.89286 0.53997 0.1784 0.0
H1002 H 0.91158 0.53333 0.11953 0.0
H1003 H 0.95413 0.57946 0.17734 0.0
H1004 H 0.93561 0.58649 0.2359 0.0
H1005 H 0.87522 0.55586 0.5435 0.0
H1006 H 0.87045 0.55541 0.43379 0.0
H1007 H 0.92185 0.59404 0.40796 0.0
H1008 H 0.92667 0.59454 0.51749 0.0
H1009 H 0.91405 0.56945 0.33035 0.0
H1010 H 0.88917 0.60182 0.39041 0.0
H1011 H 0.87053 0.60859 0.44911 0.0
H1012 H 0.82758 0.56459 0.37962 0.0
H1013 H 0.84598 0.55742 0.32114 0.0
C1014 C 0.8954 0.57234 0.04637 0.0
C1015 C 0.88056 0.55841 0.02543 0.0
C1016 C 0.89771 0.57621 0.10859 0.0
C1017 C 0.88521 0.56628 0.15093 0.0
C1018 C 0.87004 0.55295 0.12967 0.0
C1019 C 0.86778 0.549 0.06763 0.0
C1020 C 0.88834 0.56897 0.21757 0.0
C1021 C 0.87768 0.57221 0.25354 0.0
C1022 C 0.90168 0.56809 0.24575 0.0
C1023 C 0.91284 0.56384 0.21094 0.0
C1024 C 0.90619 0.54876 0.17815 0.0
C1025 C 0.91677 0.54491 0.14492 0.0
C1026 C 0.93403 0.55599 0.14454 0.0
C1027 C 0.94075 0.57091 0.17758 0.0
C1028 C 0.93022 0.57483 0.21082 0.0
C1029 C 0.88542 0.56449 0.51467 0.0
C1030 C 0.90135 0.57519 0.5394 0.0
C1031 C 0.88268 0.56421 0.4518 0.0
C1032 C 0.89578 0.57474 0.41239 0.0
C1033 C 0.91157 0.58573 0.43725 0.0
C1034 C 0.91431 0.58598 0.49994 0.0
C1035 C 0.89332 0.57363 0.34508 0.0
C1036 C 0.90407 0.57057 0.30885 0.0
C1037 C 0.88009 0.57472 0.31682 0.0
C1038 C 0.86897 0.579 0.35183 0.0
C1039 C 0.87576 0.59351 0.38802 0.0
C1040 C 0.86523 0.59744 0.42119 0.0
C1041 C 0.84788 0.58701 0.41822 0.0
C1042 C 0.84102 0.57265 0.38194 0.0
C1043 C 0.85149 0.56865 0.34872 0.0
H1044 H 0.83975 0.59007 0.44393 0.0
H1045 H 0.94219 0.55299 0.11879 0.0
H1046 H 0.31161 0.87805 0.6862 0.0
H1047 H 0.30653 0.87466 0.57659 0.0
H1048 H 0.34798 0.92445 0.54678 0.0
H1049 H 0.35272 0.92816 0.65649 0.0
H1050 H 0.32289 0.91797 0.46977 0.0
H1051 H 0.35299 0.89055 0.53205 0.0
H1052 H 0.35807 0.87117 0.5934 0.0
H1053 H 0.31218 0.82964 0.52821 0.0
H1054 H 0.3067 0.84882 0.46713 0.0
H1055 H 0.34037 0.90706 0.15926 0.0
H1056 H 0.34166 0.91282 0.26857 0.0
H1057 H 0.29944 0.86351 0.29869 0.0
H1058 H 0.29794 0.85775 0.18988 0.0
H1059 H 0.32464 0.87001 0.37551 0.0
H1060 H 0.2957 0.89816 0.30758 0.0
H1061 H 0.29155 0.91813 0.24618 0.0
H1062 H 0.33634 0.95898 0.32133 0.0
H1063 H 0.34099 0.93923 0.38206 0.0
C1064 C 0.31942 0.88842 0.65659 0.0
C1065 C 0.33272 0.90332 0.68028 0.0
C1066 C 0.3166 0.88641 0.59376 0.0
C1067 C 0.32709 0.89918 0.55331 0.0
C1068 C 0.3398 0.91438 0.57701 0.0
C1069 C 0.34259 0.91642 0.63978 0.0
C1070 C 0.32548 0.89638 0.48636 0.0
C1071 C 0.32343 0.90758 0.44904 0.0
C1072 C 0.32601 0.88272 0.45933 0.0
C1073 C 0.32935 0.87114 0.49551 0.0
C1074 C 0.34392 0.8773 0.53112 0.0
C1075 C 0.34688 0.86635 0.56581 0.0
C1076 C 0.33543 0.84919 0.56483 0.0
C1077 C 0.32102 0.84294 0.529 0.0
C1078 C 0.31799 0.85384 0.49431 0.0
C1079 C 0.33119 0.89754 0.18896 0.0
C1080 C 0.31914 0.88188 0.16564 0.0
C1081 C 0.33196 0.90084 0.25153 0.0
C1082 C 0.32063 0.88859 0.29189 0.0
C1083 C 0.30838 0.87311 0.26853 0.0
C1084 C 0.3076 0.86982 0.20621 0.0
C1085 C 0.32191 0.89151 0.35875 0.0
C1086 C 0.324 0.88036 0.39613 0.0
C1087 C 0.32156 0.90528 0.38559 0.0
C1088 C 0.31879 0.91718 0.3489 0.0
C1089 C 0.30477 0.91139 0.31052 0.0
C1090 C 0.30232 0.92267 0.27584 0.0
C1091 C 0.31371 0.93981 0.27964 0.0
C1092 C 0.32755 0.9457 0.31824 0.0
C1093 C 0.33011 0.93446 0.35276 0.0
H1094 H 0.31176 0.94853 0.25283 0.0
H1095 H 0.33774 0.84073 0.59172 0.0
H1096 H 0.46801 0.31559 0.40676 0.0
H1097 H 0.46089 0.3129 0.515 0.0
H1098 H 0.42314 0.32624 0.478 0.0
H1099 H 0.43036 0.3291 0.36939 0.0
H1100 H 0.44442 0.34504 0.56962 0.0
H1101 H 0.41171 0.28697 0.52012 0.0
H1102 H 0.4062 0.26004 0.47684 0.0
H1103 H 0.44289 0.25974 0.5962 0.0
H1104 H 0.44882 0.28681 0.63961 0.0
H1105 H 0.41637 0.33508 0.87264 0.0
H1106 H 0.41627 0.33048 0.76301 0.0
H1107 H 0.45262 0.31457 0.78702 0.0
H1108 H 0.45266 0.31905 0.89706 0.0
H1109 H 0.43009 0.29596 0.70091 0.0
H1110 H 0.46473 0.35445 0.74365 0.0
H1111 H 0.47144 0.38178 0.78678 0.0
H1112 H 0.43257 0.38173 0.67919 0.0
H1113 H 0.42546 0.35426 0.63604 0.0
C1114 C 0.45807 0.31778 0.42162 0.0
C1115 C 0.44979 0.32261 0.37959 0.0
C1116 C 0.45393 0.31612 0.48344 0.0
C1117 C 0.44143 0.3193 0.50468 0.0
C1118 C 0.4328 0.32368 0.46261 0.0
C1119 C 0.43684 0.32519 0.40054 0.0
C1120 C 0.43834 0.31929 0.57121 0.0
C1121 C 0.44094 0.33419 0.59812 0.0
C1122 C 0.43435 0.30531 0.60873 0.0
C1123 C 0.43082 0.28901 0.58275 0.0
C1124 C 0.41872 0.28124 0.53679 0.0
C1125 C 0.41549 0.26593 0.5123 0.0
C1126 C 0.42422 0.2582 0.53365 0.0
C1127 C 0.43615 0.26575 0.57966 0.0
C1128 C 0.43944 0.28107 0.60427 0.0
C1129 C 0.42427 0.33051 0.85462 0.0
C1130 C 0.43468 0.32762 0.89348 0.0
C1131 C 0.4242 0.32788 0.79192 0.0
C1132 C 0.43469 0.3225 0.7665 0.0
C1133 C 0.44445 0.31877 0.80551 0.0
C1134 C 0.44445 0.3213 0.86844 0.0
C1135 C 0.43616 0.32171 0.69918 0.0
C1136 C 0.43337 0.30672 0.67223 0.0
C1137 C 0.44014 0.33567 0.6615 0.0
C1138 C 0.44444 0.35222 0.68713 0.0
C1139 C 0.45752 0.36021 0.72954 0.0
C1140 C 0.46141 0.37573 0.75394 0.0
C1141 C 0.4524 0.38347 0.73587 0.0
C1142 C 0.43952 0.37571 0.69323 0.0
C1143 C 0.43555 0.36017 0.66876 0.0
H1144 H 0.45544 0.39549 0.7548 0.0
H1145 H 0.4217 0.24634 0.51464 0.0
H1146 H 0.14163 0.47515 0.51912 0.0
H1147 H 0.14128 0.46916 0.62729 0.0
H1148 H 0.11281 0.41626 0.58963 0.0
H1149 H 0.11257 0.42222 0.48109 0.0
H1150 H 0.09932 0.42418 0.68168 0.0
H1151 H 0.15479 0.43594 0.63218 0.0
H1152 H 0.18317 0.45237 0.58901 0.0
H1153 H 0.19355 0.49307 0.70964 0.0
H1154 H 0.16515 0.47697 0.75297 0.0
H1155 H 0.10093 0.40114 0.98538 0.0
H1156 H 0.10614 0.40448 0.87557 0.0
H1157 H 0.13696 0.45785 0.89974 0.0
H1158 H 0.13226 0.45436 0.01007 0.0
H1159 H 0.14979 0.44829 0.81315 0.0
H1160 H 0.09433 0.43822 0.85626 0.0
H1161 H 0.06579 0.42275 0.89893 0.0
H1162 H 0.05527 0.38004 0.78935 0.0
H1163 H 0.08383 0.39519 0.74663 0.0
C1164 C 0.13528 0.46223 0.53366 0.0
C1165 C 0.12705 0.44918 0.49117 0.0
C1166 C 0.13526 0.45881 0.59566 0.0
C1167 C 0.12718 0.44224 0.61681 0.0
C1168 C 0.1192 0.42915 0.57445 0.0
C1169 C 0.11919 0.43257 0.51227 0.0
C1170 C 0.12624 0.4387 0.68339 0.0
C1171 C 0.11039 0.42918 0.71019 0.0
C1172 C 0.14063 0.44563 0.72111 0.0
C1173 C 0.15779 0.45528 0.69552 0.0
C1174 C 0.16309 0.44843 0.64924 0.0
C1175 C 0.17919 0.45768 0.62478 0.0
C1176 C 0.19015 0.47376 0.64649 0.0
C1177 C 0.18505 0.48061 0.69284 0.0
C1178 C 0.16895 0.47142 0.71743 0.0
C1179 C 0.10901 0.41354 0.96717 0.0
C1180 C 0.11611 0.42749 0.00604 0.0
C1181 C 0.1119 0.41547 0.90441 0.0
C1182 C 0.12158 0.43148 0.87888 0.0
C1183 C 0.12938 0.44537 0.91809 0.0
C1184 C 0.12673 0.44339 0.98115 0.0
C1185 C 0.12286 0.4338 0.81141 0.0
C1186 C 0.13874 0.44314 0.78451 0.0
C1187 C 0.10849 0.42684 0.7735 0.0
C1188 C 0.09126 0.41778 0.79872 0.0
C1189 C 0.08596 0.42549 0.84155 0.0
C1190 C 0.06978 0.41679 0.86571 0.0
C1191 C 0.05874 0.40041 0.84698 0.0
C1192 C 0.06384 0.39272 0.80389 0.0
C1193 C 0.08002 0.40136 0.77966 0.0
H1194 H 0.04622 0.39369 0.86576 0.0
H1195 H 0.2026 0.48091 0.62747 0.0
H1196 H 0.68573 0.10406 0.67479 0.0
H1197 H 0.69054 0.10162 0.78328 0.0
H1198 H 0.68618 0.14509 0.82218 0.0
H1199 H 0.68162 0.14769 0.71406 0.0
H1200 H 0.71111 0.1447 0.89003 0.0
H1201 H 0.65283 0.10654 0.83975 0.0
H1202 H 0.63001 0.08333 0.78262 0.0
H1203 H 0.6473 0.05023 0.84147 0.0
H1204 H 0.67034 0.07331 0.89847 0.0
H1205 H 0.68669 0.13375 0.20234 0.0
H1206 H 0.69073 0.13847 0.09235 0.0
H1207 H 0.68842 0.09089 0.07075 0.0
H1208 H 0.68416 0.08609 0.18031 0.0
H1209 H 0.66868 0.09274 0.99235 0.0
H1210 H 0.72612 0.12888 0.04215 0.0
H1211 H 0.75042 0.1513 0.09577 0.0
H1212 H 0.73628 0.18698 0.0384 0.0
H1213 H 0.71198 0.16472 0.98338 0.0
C1214 C 0.68617 0.11329 0.70635 0.0
C1215 C 0.68315 0.12598 0.68604 0.0
C1216 C 0.68879 0.11182 0.76835 0.0
C1217 C 0.68848 0.12304 0.81099 0.0
C1218 C 0.6864 0.13625 0.79023 0.0
C1219 C 0.68369 0.13766 0.7285 0.0
C1220 C 0.6892 0.12049 0.87755 0.0
C1221 C 0.70177 0.13339 0.91253 0.0
C1222 C 0.6773 0.10557 0.90677 0.0
C1223 C 0.66339 0.09168 0.87287 0.0
C1224 C 0.65183 0.09434 0.84017 0.0
C1225 C 0.63884 0.08121 0.80788 0.0
C1226 C 0.63722 0.06533 0.80836 0.0
C1227 C 0.64858 0.06254 0.84114 0.0
C1228 C 0.66159 0.07564 0.87349 0.0
C1229 C 0.68742 0.12449 0.17425 0.0
C1230 C 0.68499 0.10949 0.19995 0.0
C1231 C 0.68974 0.12719 0.11129 0.0
C1232 C 0.68992 0.11505 0.07291 0.0
C1233 C 0.68821 0.1004 0.09907 0.0
C1234 C 0.68576 0.09766 0.16175 0.0
C1235 C 0.69059 0.11699 0.00534 0.0
C1236 C 0.67817 0.104 0.97006 0.0
C1237 C 0.70277 0.13172 0.97581 0.0
C1238 C 0.71717 0.14513 0.00926 0.0
C1239 C 0.72813 0.14149 0.04136 0.0
C1240 C 0.74193 0.15418 0.07189 0.0
C1241 C 0.74483 0.17056 0.07107 0.0
C1242 C 0.734 0.17429 0.03917 0.0
C1243 C 0.72026 0.16165 0.008 0.0
H1244 H 0.7555 0.18036 0.0949 0.0
H1245 H 0.62713 0.05516 0.78356 0.0
H1246 H 0.60552 0.6968 0.33748 0.0
H1247 H 0.60085 0.69748 0.22812 0.0
H1248 H 0.54845 0.6793 0.26165 0.0
H1249 H 0.55306 0.67843 0.37118 0.0
H1250 H 0.55339 0.66117 0.17409 0.0
H1251 H 0.57349 0.71901 0.21578 0.0
H1252 H 0.59296 0.74711 0.25604 0.0
H1253 H 0.63194 0.75039 0.13972 0.0
H1254 H 0.61276 0.72219 0.09936 0.0
H1255 H 0.53166 0.66764 0.87254 0.0
H1256 H 0.53681 0.67247 0.98165 0.0
H1257 H 0.58956 0.69193 0.95152 0.0
H1258 H 0.58446 0.68709 0.84181 0.0
H1259 H 0.58424 0.71006 0.0376 0.0
H1260 H 0.56506 0.65215 0.99961 0.0
H1261 H 0.54608 0.6239 0.9594 0.0
H1262 H 0.50604 0.62054 0.06966 0.0
H1263 H 0.52473 0.64889 0.10989 0.0
C1264 C 0.59304 0.69311 0.32157 0.0
C1265 C 0.57966 0.68755 0.36301 0.0
C1266 C 0.5904 0.6936 0.25908 0.0
C1267 C 0.57431 0.68851 0.2366 0.0
C1268 C 0.56098 0.68333 0.27797 0.0
C1269 C 0.56365 0.68297 0.3406 0.0
C1270 C 0.57123 0.68753 0.16979 0.0
C1271 C 0.55991 0.67194 0.14442 0.0
C1272 C 0.58014 0.70145 0.13075 0.0
C1273 C 0.59172 0.71841 0.15497 0.0
C1274 C 0.58625 0.72565 0.19917 0.0
C1275 C 0.59723 0.74162 0.22193 0.0
C1276 C 0.61369 0.75051 0.20057 0.0
C1277 C 0.6192 0.74348 0.15629 0.0
C1278 C 0.60827 0.72751 0.13341 0.0
C1279 C 0.54437 0.67294 0.88902 0.0
C1280 C 0.55761 0.67677 0.84842 0.0
C1281 C 0.5473 0.67574 0.95148 0.0
C1282 C 0.56353 0.68228 0.97503 0.0
C1283 C 0.57692 0.68682 0.93445 0.0
C1284 C 0.57399 0.68408 0.87171 0.0
C1285 C 0.56635 0.68372 0.04207 0.0
C1286 C 0.57765 0.69934 0.0674 0.0
C1287 C 0.55751 0.6698 0.08121 0.0
C1288 C 0.54625 0.65272 0.05728 0.0
C1289 C 0.55217 0.64545 0.01492 0.0
C1290 C 0.54147 0.62941 0.99218 0.0
C1291 C 0.52485 0.62045 0.01184 0.0
C1292 C 0.51891 0.6275 0.0544 0.0
C1293 C 0.52955 0.64355 0.07722 0.0
H1294 H 0.51659 0.60803 0.9942 0.0
H1295 H 0.62217 0.76287 0.21823 0.0
H1296 H 0.50902 0.14262 0.2669 0.0
H1297 H 0.53627 0.14693 0.30065 0.0
H1298 H 0.5492 0.14356 0.11415 0.0
H1299 H 0.52168 0.13846 0.08122 0.0
H1300 H 0.55605 0.12502 0.17776 0.0
H1301 H 0.56837 0.18143 0.20222 0.0
H1302 H 0.56412 0.20439 0.23769 0.0
H1303 H 0.56647 0.1913 0.42352 0.0
H1304 H 0.5705 0.1681 0.38918 0.0
H1305 H 0.63928 0.14513 0.24887 0.0
H1306 H 0.61686 0.14964 0.21009 0.0
H1307 H 0.59517 0.14087 0.38974 0.0
H1308 H 0.61743 0.13625 0.42848 0.0
H1309 H 0.5945 0.16756 0.32555 0.0
H1310 H 0.57998 0.10975 0.29703 0.0
H1311 H 0.58493 0.08741 0.25938 0.0
H1312 H 0.58766 0.10465 0.07591 0.0
H1313 H 0.58297 0.12726 0.11266 0.0
C1314 C 0.51788 0.14314 0.23328 0.0
C1315 C 0.5134 0.14032 0.17157 0.0
C1316 C 0.53347 0.14566 0.25243 0.0
C1317 C 0.54497 0.14574 0.20996 0.0
C1318 C 0.54061 0.14352 0.14794 0.0
C1319 C 0.52495 0.14071 0.12903 0.0
C1320 C 0.5609 0.14677 0.23027 0.0
C1321 C 0.56458 0.13458 0.20909 0.0
C1322 C 0.57199 0.15898 0.27222 0.0
C1323 C 0.56959 0.17293 0.29309 0.0
C1324 C 0.56785 0.18336 0.25065 0.0
C1325 C 0.5655 0.19644 0.27056 0.0
C1326 C 0.56498 0.19928 0.33282 0.0
C1327 C 0.56685 0.18907 0.37531 0.0
C1328 C 0.56919 0.17597 0.35565 0.0
C1329 C 0.62991 0.1445 0.28021 0.0
C1330 C 0.63001 0.14024 0.34156 0.0
C1331 C 0.61709 0.14701 0.25803 0.0
C1332 C 0.60429 0.14548 0.29701 0.0
C1333 C 0.60492 0.14213 0.35893 0.0
C1334 C 0.61757 0.1394 0.38089 0.0
C1335 C 0.5895 0.14592 0.27263 0.0
C1336 C 0.58601 0.15824 0.29343 0.0
C1337 C 0.57865 0.13397 0.2298 0.0
C1338 C 0.58133 0.1203 0.20765 0.0
C1339 C 0.58178 0.10886 0.24872 0.0
C1340 C 0.58451 0.09614 0.22754 0.0
C1341 C 0.58666 0.09464 0.16531 0.0
C1342 C 0.58603 0.10584 0.12411 0.0
C1343 C 0.58333 0.11861 0.14509 0.0
H1344 H 0.58877 0.08478 0.14899 0.0
H1345 H 0.56316 0.2094 0.34813 0.0
H1346 H 0.3667 0.5237 0.34536 0.0
H1347 H 0.38853 0.55018 0.38864 0.0
H1348 H 0.42467 0.53395 0.36479 0.0
H1349 H 0.40292 0.50728 0.32608 0.0
H1350 H 0.43046 0.5487 0.46616 0.0
H1351 H 0.41978 0.56209 0.26375 0.0
H1352 H 0.40241 0.56396 0.18218 0.0
H1353 H 0.39138 0.59512 0.29576 0.0
H1354 H 0.40853 0.59326 0.37828 0.0
H1355 H 0.50852 0.6202 0.42813 0.0
H1356 H 0.48111 0.59722 0.39866 0.0
H1357 H 0.4571 0.61838 0.50588 0.0
H1358 H 0.48465 0.64129 0.53766 0.0
H1359 H 0.44257 0.60294 0.37637 0.0
H1360 H 0.45718 0.59119 0.57497 0.0
H1361 H 0.47678 0.58994 0.64817 0.0
H1362 H 0.48217 0.55554 0.53164 0.0
H1363 H 0.46282 0.55683 0.45723 0.0
C1364 C 0.37925 0.52569 0.35019 0.0
C1365 C 0.38304 0.51338 0.33106 0.0
C1366 C 0.39178 0.54094 0.37429 0.0
C1367 C 0.4084 0.54428 0.379 0.0
C1368 C 0.41203 0.53181 0.36148 0.0
C1369 C 0.39954 0.51657 0.33838 0.0
C1370 C 0.42222 0.56066 0.40153 0.0
C1371 C 0.43302 0.56051 0.4463 0.0
C1372 C 0.42553 0.57624 0.37693 0.0
C1373 C 0.41525 0.57736 0.32739 0.0
C1374 C 0.41354 0.56923 0.27146 0.0
C1375 C 0.40376 0.57031 0.22504 0.0
C1376 C 0.39575 0.5796 0.23386 0.0
C1377 C 0.39756 0.58789 0.28905 0.0
C1378 C 0.40731 0.58684 0.33564 0.0
C1379 C 0.49745 0.62007 0.44536 0.0
C1380 C 0.49881 0.63244 0.4863 0.0
C1381 C 0.48179 0.60699 0.42803 0.0
C1382 C 0.46712 0.60605 0.45055 0.0
C1383 C 0.46832 0.61893 0.48798 0.0
C1384 C 0.48406 0.63202 0.50594 0.0
C1385 C 0.45082 0.59071 0.43925 0.0
C1386 C 0.43967 0.59109 0.39684 0.0
C1387 C 0.44728 0.57527 0.4651 0.0
C1388 C 0.45865 0.5742 0.51036 0.0
C1389 C 0.46264 0.58346 0.56476 0.0
C1390 C 0.47369 0.58273 0.6065 0.0
C1391 C 0.48074 0.57269 0.59452 0.0
C1392 C 0.47671 0.56332 0.54085 0.0
C1393 C 0.46569 0.56403 0.49892 0.0
H1394 H 0.4893 0.57215 0.62686 0.0
H1395 H 0.38819 0.58043 0.19788 0.0
H1396 H 0.88873 0.38403 0.57736 0.0
H1397 H 0.88347 0.40565 0.61659 0.0
H1398 H 0.83818 0.38554 0.51011 0.0
H1399 H 0.84374 0.36403 0.46901 0.0
H1400 H 0.85527 0.41771 0.49386 0.0
H1401 H 0.83655 0.38445 0.67139 0.0
H1402 H 0.83575 0.36713 0.75809 0.0
H1403 H 0.88217 0.4076 0.82472 0.0
H1404 H 0.8832 0.42521 0.73852 0.0
H1405 H 0.8436 0.48092 0.6642 0.0
H1406 H 0.83813 0.45347 0.62759 0.0
H1407 H 0.8905 0.46938 0.64526 0.0
H1408 H 0.89631 0.49694 0.67795 0.0
H1409 H 0.86329 0.43648 0.70911 0.0
H1410 H 0.88191 0.46796 0.51756 0.0
H1411 H 0.87951 0.48488 0.43558 0.0
H1412 H 0.82924 0.44575 0.3991 0.0
H1413 H 0.83128 0.42871 0.48161 0.0
C1414 C 0.87755 0.3841 0.56267 0.0
C1415 C 0.86674 0.37242 0.51956 0.0
C1416 C 0.87444 0.39638 0.58571 0.0
C1417 C 0.86034 0.39724 0.56679 0.0
C1418 C 0.84913 0.38516 0.52553 0.0
C1419 C 0.85225 0.3728 0.50239 0.0
C1420 C 0.85834 0.41164 0.58614 0.0
C1421 C 0.85663 0.42154 0.54119 0.0
C1422 C 0.86012 0.41683 0.64777 0.0
C1423 C 0.85998 0.40611 0.69832 0.0
C1424 C 0.84666 0.38961 0.70424 0.0
C1425 C 0.84612 0.37978 0.75348 0.0
C1426 C 0.85889 0.38627 0.79694 0.0
C1427 C 0.87226 0.40261 0.79113 0.0
C1428 C 0.87279 0.41254 0.74222 0.0
C1429 C 0.85402 0.47871 0.65921 0.0
C1430 C 0.87038 0.49118 0.67521 0.0
C1431 C 0.85083 0.46298 0.63867 0.0
C1432 C 0.86391 0.45941 0.63437 0.0
C1433 C 0.88022 0.47186 0.64894 0.0
C1434 C 0.88347 0.4876 0.66823 0.0
C1435 C 0.86078 0.44258 0.61675 0.0
C1436 C 0.86157 0.43233 0.66208 0.0
C1437 C 0.85784 0.43695 0.55581 0.0
C1438 C 0.85665 0.44718 0.50629 0.0
C1439 C 0.87028 0.46305 0.49255 0.0
C1440 C 0.869 0.47264 0.44587 0.0
C1441 C 0.85421 0.46642 0.41231 0.0
C1442 C 0.84068 0.45057 0.42524 0.0
C1443 C 0.84189 0.44095 0.47194 0.0
H1444 H 0.85325 0.47386 0.37616 0.0
H1445 H 0.85844 0.37864 0.83507 0.0
H1446 H 0.3971 0.88619 0.91933 0.0
H1447 H 0.42103 0.88359 0.88812 0.0
H1448 H 0.3888 0.84066 0.7782 0.0
H1449 H 0.3645 0.84287 0.81073 0.0
H1450 H 0.4137 0.8371 0.83933 0.0
H1451 H 0.41 0.87664 0.70969 0.0
H1452 H 0.40709 0.90113 0.68548 0.0
H1453 H 0.45268 0.93309 0.78153 0.0
H1454 H 0.45573 0.90873 0.80717 0.0
H1455 H 0.48405 0.84617 0.65994 0.0
H1456 H 0.45702 0.84184 0.69695 0.0
H1457 H 0.48277 0.8863 0.80738 0.0
H1458 H 0.50964 0.89064 0.77074 0.0
H1459 H 0.45942 0.88716 0.73787 0.0
H1460 H 0.46245 0.84713 0.87042 0.0
H1461 H 0.46509 0.82245 0.89439 0.0
H1462 H 0.42076 0.79125 0.79062 0.0
H1463 H 0.41799 0.81579 0.76534 0.0
C1464 C 0.39495 0.87592 0.88967 0.0
C1465 C 0.37881 0.86473 0.8676 0.0
C1466 C 0.40871 0.87456 0.8714 0.0
C1467 C 0.40674 0.86206 0.83025 0.0
C1468 C 0.39061 0.85043 0.80987 0.0
C1469 C 0.37677 0.8518 0.82813 0.0
C1470 C 0.42174 0.86193 0.80615 0.0
C1471 C 0.42361 0.84793 0.81632 0.0
C1472 C 0.43472 0.87611 0.77658 0.0
C1473 C 0.43302 0.89083 0.76078 0.0
C1474 C 0.41935 0.88887 0.72604 0.0
C1475 C 0.41768 0.90273 0.712 0.0
C1476 C 0.42967 0.91865 0.73206 0.0
C1477 C 0.44339 0.92074 0.76607 0.0
C1478 C 0.4451 0.90692 0.78032 0.0
C1479 C 0.48391 0.8548 0.69309 0.0
C1480 C 0.49896 0.86885 0.71191 0.0
C1481 C 0.46847 0.85233 0.71413 0.0
C1482 C 0.46785 0.8638 0.75474 0.0
C1483 C 0.48291 0.87737 0.77564 0.0
C1484 C 0.49827 0.87985 0.7546 0.0
C1485 C 0.45167 0.86252 0.7725 0.0
C1486 C 0.44952 0.87627 0.76068 0.0
C1487 C 0.43847 0.84808 0.80021 0.0
C1488 C 0.44012 0.83333 0.81541 0.0
C1489 C 0.45335 0.83503 0.85226 0.0
C1490 C 0.45485 0.82106 0.86618 0.0
C1491 C 0.44313 0.8053 0.84389 0.0
C1492 C 0.42985 0.80347 0.80776 0.0
C1493 C 0.4283 0.8174 0.79366 0.0
H1494 H 0.44431 0.7945 0.85473 0.0
H1495 H 0.42836 0.92937 0.72115 0.0
H1496 H 0.53349 0.37772 0.11493 0.0
H1497 H 0.56022 0.40091 0.07877 0.0
H1498 H 0.53654 0.402 0.91067 0.0
H1499 H 0.51008 0.3782 0.94577 0.0
H1500 H 0.56673 0.41004 0.88573 0.0
H1501 H 0.54168 0.42802 0.03716 0.0
H1502 H 0.52956 0.42799 0.13736 0.0
H1503 H 0.57591 0.43993 0.22438 0.0
H1504 H 0.58822 0.43979 0.12469 0.0
H1505 H 0.61794 0.50702 0.90889 0.0
H1506 H 0.59614 0.4801 0.94633 0.0
H1507 H 0.6238 0.45689 0.88075 0.0
H1508 H 0.6452 0.48374 0.83893 0.0
H1509 H 0.59296 0.45901 0.02436 0.0
H1510 H 0.59714 0.4165 0.84014 0.0
H1511 H 0.60609 0.41809 0.7332 0.0
H1512 H 0.59629 0.45824 0.70009 0.0
H1513 H 0.58709 0.45674 0.80656 0.0
C1514 C 0.53419 0.38268 0.06966 0.0
C1515 C 0.51985 0.37624 0.03291 0.0
C1516 C 0.54939 0.39602 0.04919 0.0
C1517 C 0.55037 0.40354 0.9925 0.0
C1518 C 0.53617 0.39649 0.95457 0.0
C1519 C 0.52106 0.3829 0.97454 0.0
C1520 C 0.56569 0.41942 0.97453 0.0
C1521 C 0.57252 0.4207 0.91624 0.0
C1522 C 0.57314 0.43354 0.01363 0.0
C1523 C 0.5658 0.4337 0.07358 0.0
C1524 C 0.54924 0.43053 0.07772 0.0
C1525 C 0.54235 0.43055 0.1344 0.0
C1526 C 0.55194 0.43391 0.18722 0.0
C1527 C 0.56848 0.43729 0.18344 0.0
C1528 C 0.57542 0.43725 0.12687 0.0
C1529 C 0.61936 0.49618 0.90166 0.0
C1530 C 0.63319 0.49755 0.8694 0.0
C1531 C 0.60693 0.48077 0.92392 0.0
C1532 C 0.60806 0.46628 0.91544 0.0
C1533 C 0.62237 0.46776 0.88661 0.0
C1534 C 0.63474 0.4832 0.86338 0.0
C1535 C 0.59393 0.44973 0.93525 0.0
C1536 C 0.58734 0.44829 0.99406 0.0
C1537 C 0.58628 0.43573 0.89567 0.0
C1538 C 0.59164 0.43664 0.83146 0.0
C1539 C 0.59687 0.42564 0.80996 0.0
C1540 C 0.60198 0.42653 0.74945 0.0
C1541 C 0.60182 0.4383 0.70995 0.0
C1542 C 0.59647 0.44917 0.73079 0.0
C1543 C 0.59132 0.44832 0.79122 0.0
H1544 H 0.6058 0.43898 0.66315 0.0
H1545 H 0.54659 0.43392 0.23107 0.0
H1546 H 0.16483 0.52255 0.16059 0.0
H1547 H 0.17012 0.54943 0.11959 0.0
H1548 H 0.12086 0.52513 0.03905 0.0
H1549 H 0.11596 0.49826 0.07621 0.0
H1550 H 0.14047 0.54765 0.96578 0.0
H1551 H 0.13053 0.54646 0.18152 0.0
H1552 H 0.13563 0.54393 0.29019 0.0
H1553 H 0.18533 0.5861 0.27462 0.0
H1554 H 0.18058 0.58874 0.1656 0.0
H1555 H 0.13072 0.62397 0.04971 0.0
H1556 H 0.13356 0.60012 0.08068 0.0
H1557 H 0.16372 0.6066 0.92155 0.0
H1558 H 0.16032 0.63015 0.88922 0.0
H1559 H 0.15665 0.5942 0.11215 0.0
H1560 H 0.15736 0.56919 0.87161 0.0
H1561 H 0.14759 0.56985 0.76761 0.0
H1562 H 0.10836 0.57693 0.84067 0.0
H1563 H 0.11778 0.57609 0.94503 0.0
C1564 C 0.15527 0.52288 0.13305 0.0
C1565 C 0.13984 0.50822 0.12272 0.0
C1566 C 0.15823 0.53831 0.1102 0.0
C1567 C 0.14575 0.53944 0.0773 0.0
C1568 C 0.13068 0.5247 0.06457 0.0
C1569 C 0.1278 0.50931 0.08663 0.0
C1570 C 0.14786 0.5559 0.05818 0.0
C1571 C 0.14415 0.55786 0.99776 0.0
C1572 C 0.15239 0.56922 0.09985 0.0
C1573 C 0.15527 0.56767 0.16531 0.0
C1574 C 0.14259 0.55511 0.2012 0.0
C1575 C 0.14541 0.55367 0.26285 0.0
C1576 C 0.16082 0.56482 0.28925 0.0
C1577 C 0.17342 0.57746 0.25408 0.0
C1578 C 0.17067 0.57893 0.19237 0.0
C1579 C 0.13815 0.62045 0.02173 0.0
C1580 C 0.14526 0.62889 0.96692 0.0
C1581 C 0.13977 0.60679 0.03947 0.0
C1582 C 0.14866 0.60133 1.00312 0.0
C1583 C 0.15647 0.61028 0.94976 0.0
C1584 C 0.15459 0.62378 0.93141 0.0
C1585 C 0.14898 0.58583 0.02001 0.0
C1586 C 0.15322 0.58408 0.07993 0.0
C1587 C 0.14429 0.57244 0.97851 0.0
C1588 C 0.13842 0.57279 0.91601 0.0
C1589 C 0.14663 0.57085 0.86542 0.0
C1590 C 0.14115 0.57125 0.80644 0.0
C1591 C 0.1274 0.5735 0.79753 0.0
C1592 C 0.11905 0.57526 0.84761 0.0
C1593 C 0.12446 0.57483 0.90667 0.0
H1594 H 0.1232 0.57383 0.75184 0.0
H1595 H 0.16297 0.56369 0.33699 0.0
H1596 H 0.41383 0.06626 0.91667 0.0
H1597 H 0.39018 0.03815 0.90248 0.0
H1598 H 0.36519 0.04511 0.05643 0.0
H1599 H 0.38913 0.07355 0.0707 0.0
H1600 H 0.36755 0.01725 0.06854 0.0
H1601 H 0.34784 0.03872 0.91361 0.0
H1602 H 0.34961 0.05532 0.82316 0.0
H1603 H 0.3651 0.02677 0.71437 0.0
H1604 H 0.36376 0.01022 0.80431 0.0
H1605 H 0.31593 0.92937 0.02304 0.0
H1606 H 0.32145 0.95838 0.02995 0.0
H1607 H 0.35597 0.97223 0.87931 0.0
H1608 H 0.35028 0.94351 0.87211 0.0
H1609 H 0.34057 0.98977 0.87388 0.0
H1610 H 0.36787 0.97465 0.03186 0.0
H1611 H 0.36799 0.95859 0.12138 0.0
H1612 H 0.33985 0.97598 0.22307 0.0
H1613 H 0.33925 0.99183 0.13369 0.0
C1614 C 0.40303 0.06203 0.94617 0.0
C1615 C 0.40326 0.07212 0.99449 0.0
C1616 C 0.38947 0.04592 0.93801 0.0
C1617 C 0.37579 0.03944 0.97819 0.0
C1618 C 0.37555 0.04985 0.02464 0.0
C1619 C 0.38913 0.06615 0.03239 0.0
C1620 C 0.36305 0.02125 0.9755 0.0
C1621 C 0.36122 0.01128 0.02645 0.0
C1622 C 0.35498 0.01336 0.92041 0.0
C1623 C 0.35572 0.02323 0.86589 0.0
C1624 C 0.35173 0.03604 0.87049 0.0
C1625 C 0.35266 0.04545 0.81928 0.0
C1626 C 0.35748 0.04212 0.76306 0.0
C1627 C 0.36137 0.02935 0.75793 0.0
C1628 C 0.3605 0.01993 0.80902 0.0
C1629 C 0.32417 0.93854 0.99012 0.0
C1630 C 0.3326 0.93428 0.94674 0.0
C1631 C 0.32748 0.95513 0.99442 0.0
C1632 C 0.33935 0.96762 0.95569 0.0
C1633 C 0.34676 0.96293 0.90967 0.0
C1634 C 0.34351 0.94649 0.90553 0.0
C1635 C 0.34568 0.98582 0.96609 0.0
C1636 C 0.34639 0.99578 0.91655 0.0
C1637 C 0.3529 0.99373 0.02225 0.0
C1638 C 0.35329 0.9842 0.07589 0.0
C1639 C 0.36157 0.97491 0.07316 0.0
C1640 C 0.36172 0.96584 0.12386 0.0
C1641 C 0.35384 0.96617 0.1778 0.0
C1642 C 0.34585 0.97562 0.18119 0.0
C1643 C 0.34558 0.98463 0.13051 0.0
H1644 H 0.354 0.95916 0.21702 0.0
H1645 H 0.35818 0.04941 0.72347 0.0
H1646 H 0.39472 0.31651 0.13636 0.0
H1647 H 0.37105 0.32175 0.13614 0.0
H1648 H 0.39909 0.36481 0.2516 0.0
H1649 H 0.4221 0.35921 0.25411 0.0
H1650 H 0.36875 0.35293 0.2793 0.0
H1651 H 0.39927 0.36665 0.08847 0.0
H1652 H 0.4102 0.36009 0.9963 0.0
H1653 H 0.36012 0.32428 0.94154 0.0
H1654 H 0.34892 0.33054 0.03387 0.0
H1655 H 0.36008 0.41663 0.09161 0.0
H1656 H 0.36601 0.39383 0.09378 0.0
H1657 H 0.32521 0.36694 0.2198 0.0
H1658 H 0.31968 0.3904 0.21968 0.0
H1659 H 0.35436 0.36306 0.07217 0.0
H1660 H 0.33646 0.34761 0.32348 0.0
H1661 H 0.33166 0.36037 0.41465 0.0
H1662 H 0.3662 0.40938 0.34651 0.0
H1663 H 0.37124 0.3969 0.25536 0.0
C1664 C 0.39554 0.32673 0.16327 0.0
C1665 C 0.41037 0.33756 0.19462 0.0
C1666 C 0.38208 0.32984 0.16264 0.0
C1667 C 0.38335 0.34395 0.1927 0.0
C1668 C 0.39767 0.35388 0.22783 0.0
C1669 C 0.41094 0.35071 0.22892 0.0
C1670 C 0.37097 0.34972 0.18315 0.0
C1671 C 0.36534 0.35483 0.23395 0.0
C1672 C 0.36665 0.35253 0.12414 0.0
C1673 C 0.37329 0.34889 0.06831 0.0
C1674 C 0.39061 0.35732 0.05687 0.0
C1675 C 0.39685 0.35365 1.00465 0.0
C1676 C 0.38587 0.34171 0.96321 0.0
C1677 C 0.36861 0.33348 0.97378 0.0
C1678 C 0.36231 0.33708 0.02603 0.0
C1679 C 0.35209 0.40571 0.11886 0.0
C1680 C 0.33957 0.40544 0.15621 0.0
C1681 C 0.35545 0.39257 0.1198 0.0
C1682 C 0.34634 0.37872 0.15798 0.0
C1683 C 0.33268 0.37763 0.19087 0.0
C1684 C 0.32938 0.39095 0.1903 0.0
C1685 C 0.35274 0.36687 0.16823 0.0
C1686 C 0.35719 0.36058 0.11758 0.0
C1687 C 0.35679 0.36377 0.22726 0.0
C1688 C 0.35404 0.37133 0.28242 0.0
C1689 C 0.34303 0.3611 0.32813 0.0
C1690 C 0.34026 0.36829 0.37974 0.0
C1691 C 0.34854 0.38568 0.38623 0.0
C1692 C 0.3597 0.39592 0.34134 0.0
C1693 C 0.36252 0.3888 0.28972 0.0
H1694 H 0.34635 0.39122 0.42612 0.0
H1695 H 0.39073 0.33888 0.92283 0.0
H1696 H 0.07276 0.40971 0.41053 0.0
H1697 H 0.04374 0.38772 0.4254 0.0
H1698 H 0.04436 0.36682 0.25019 0.0
H1699 H 0.07377 0.38837 0.23705 0.0
H1700 H 0.02111 0.38755 0.36074 0.0
H1701 H 0.01012 0.32755 0.23289 0.0
H1702 H 0.02405 0.31086 0.21986 0.0
H1703 H 0.0497 0.32945 0.3899 0.0
H1704 H 0.03576 0.34607 0.4044 0.0
H1705 H 0.94249 0.3495 0.24502 0.0
H1706 H 0.9715 0.35571 0.24343 0.0
H1707 H 0.96218 0.32459 0.40142 0.0
H1708 H 0.93286 0.31811 0.40265 0.0
H1709 H 0.98887 0.32692 0.31285 0.0
H1710 H 0.97349 0.36039 0.43639 0.0
H1711 H 0.95873 0.37608 0.45439 0.0
H1712 H 0.98642 0.40981 0.30919 0.0
H1713 H 1.00109 0.39407 0.28946 0.0
C1714 C 0.06694 0.3999 0.37668 0.0
C1715 C 0.0755 0.40069 0.3228 0.0
C1716 C 0.05027 0.38742 0.38483 0.0
C1717 C 0.04164 0.37566 0.33861 0.0
C1718 C 0.05066 0.37556 0.28697 0.0
C1719 C 0.06754 0.38789 0.27944 0.0
C1720 C 0.02292 0.36563 0.34018 0.0
C1721 C 0.01419 0.37425 0.35098 0.0
C1722 C 0.01364 0.34823 0.32753 0.0
C1723 C 0.02199 0.33817 0.31942 0.0
C1724 C 0.01868 0.32802 0.26763 0.0
C1725 C 0.02659 0.31858 0.25997 0.0
C1726 C 0.03779 0.31913 0.30393 0.0
C1727 C 0.04107 0.32909 0.35576 0.0
C1728 C 0.03319 0.33854 0.36366 0.0
C1729 C 0.94641 0.34338 0.2778 0.0
C1730 C 0.93546 0.33339 0.32408 0.0
C1731 C 0.96301 0.34694 0.27686 0.0
C1732 C 0.96907 0.3408 0.32275 0.0
C1733 C 0.95774 0.32939 0.36539 0.0
C1734 C 0.94098 0.32567 0.36599 0.0
C1735 C 0.98747 0.34901 0.33266 0.0
C1736 C 0.996 0.34015 0.32356 0.0
C1737 C 0.9967 0.36616 0.34821 0.0
C1738 C 0.98829 0.37598 0.36116 0.0
C1739 C 0.97636 0.37109 0.40807 0.0
C1740 C 0.968 0.37999 0.41858 0.0
C1741 C 0.97162 0.39392 0.3829 0.0
C1742 C 0.98363 0.39901 0.33676 0.0
C1743 C 0.99197 0.39011 0.3259 0.0
H1744 H 0.96513 0.40079 0.39107 0.0
H1745 H 0.0439 0.31182 0.2979 0.0
H1746 H 0.6015 0.9403 0.43641 0.0
H1747 H 0.62467 0.96923 0.43418 0.0
H1748 H 0.64093 0.96245 0.61037 0.0
H1749 H 0.61816 0.93316 0.61145 0.0
H1750 H 0.62859 0.98798 0.59147 0.0
H1751 H 0.66813 0.9723 0.52082 0.0
H1752 H 0.6782 0.95794 0.4528 0.0
H1753 H 0.67552 0.9855 0.30009 0.0
H1754 H 0.66517 0.99985 0.36704 0.0
H1755 H 0.67654 0.07441 0.60242 0.0
H1756 H 0.6715 0.04587 0.6145 0.0
H1757 H 0.66958 0.04015 0.41902 0.0
H1758 H 0.67612 0.0691 0.40739 0.0
H1759 H 0.67838 0.02024 0.46005 0.0
H1760 H 0.63341 0.02997 0.51336 0.0
H1761 H 0.61997 0.04341 0.56873 0.0
H1762 H 0.62864 0.026 0.7386 0.0
H1763 H 0.64226 0.01255 0.68412 0.0
C1764 C 0.61051 0.94474 0.47328 0.0
C1765 C 0.6081 0.93448 0.52393 0.0
C1766 C 0.62369 0.96129 0.4721 0.0
C1767 C 0.63447 0.968 0.52218 0.0
C1768 C 0.6328 0.95747 0.57109 0.0
C1769 C 0.61986 0.94071 0.57148 0.0
C1770 C 0.64537 0.98644 0.52719 0.0
C1771 C 0.63978 0.99506 0.5641 0.0
C1772 C 0.65947 0.99562 0.48933 0.0
C1773 C 0.66575 0.98706 0.44895 0.0
C1774 C 0.66953 0.97519 0.47265 0.0
C1775 C 0.67533 0.96708 0.4343 0.0
C1776 C 0.67747 0.97078 0.37214 0.0
C1777 C 0.67385 0.98264 0.34824 0.0
C1778 C 0.66804 0.99079 0.3864 0.0
C1779 C 0.67586 0.06728 0.56222 0.0
C1780 C 0.67682 0.07394 0.50402 0.0
C1781 C 0.67269 0.05086 0.56901 0.0
C1782 C 0.66945 0.0405 0.51772 0.0
C1783 C 0.67187 0.0477 0.4595 0.0
C1784 C 0.67565 0.06432 0.45277 0.0
C1785 C 0.66156 0.02191 0.5242 0.0
C1786 C 0.66751 0.01323 0.48889 0.0
C1787 C 0.64734 0.01255 0.56189 0.0
C1788 C 0.639 0.02042 0.59479 0.0
C1789 C 0.63249 0.02906 0.56254 0.0
C1790 C 0.62485 0.03667 0.59373 0.0
C1791 C 0.62348 0.03558 0.65713 0.0
C1792 C 0.62973 0.02684 0.68948 0.0
C1793 C 0.63739 0.01921 0.65848 0.0
H1794 H 0.61753 0.04146 0.68113 0.0
H1795 H 0.68196 0.96449 0.34252 0.0
H1796 H 0.62228 0.69395 0.62194 0.0
H1797 H 0.64646 0.68964 0.63043 0.0
H1798 H 0.61732 0.6465 0.74422 0.0
H1799 H 0.59369 0.65113 0.73766 0.0
H1800 H 0.64792 0.65931 0.77698 0.0
H1801 H 0.61847 0.64474 0.58226 0.0
H1802 H 0.60865 0.65166 0.4881 0.0
H1803 H 0.65943 0.68673 0.43848 0.0
H1804 H 0.66952 0.68019 0.53294 0.0
H1805 H 0.65417 0.59243 0.60591 0.0
H1806 H 0.6496 0.61611 0.60131 0.0
H1807 H 0.69113 0.6437 0.72368 0.0
H1808 H 0.69535 0.61945 0.73012 0.0
H1809 H 0.66281 0.64712 0.57374 0.0
H1810 H 0.68035 0.66529 0.82267 0.0
H1811 H 0.68539 0.65385 0.91679 0.0
H1812 H 0.65086 0.60392 0.85673 0.0
H1813 H 0.64546 0.6151 0.76276 0.0
C1814 C 0.62134 0.68399 0.65072 0.0
C1815 C 0.60604 0.67274 0.67854 0.0
C1816 C 0.63509 0.68141 0.65507 0.0
C1817 C 0.63364 0.66745 0.68674 0.0
C1818 C 0.61886 0.6573 0.71926 0.0
C1819 C 0.60526 0.65992 0.71523 0.0
C1820 C 0.64617 0.66177 0.68009 0.0
C1821 C 0.65148 0.657 0.73251 0.0
C1822 C 0.65073 0.65849 0.6222 0.0
C1823 C 0.64473 0.66213 0.56486 0.0
C1824 C 0.62753 0.65397 0.55131 0.0
C1825 C 0.62191 0.65783 0.49798 0.0
C1826 C 0.6334 0.66967 0.45743 0.0
C1827 C 0.65054 0.6776 0.47003 0.0
C1828 C 0.65622 0.67384 0.52346 0.0
C1829 C 0.66264 0.60369 0.63066 0.0
C1830 C 0.67497 0.60399 0.66905 0.0
C1831 C 0.66006 0.61732 0.62778 0.0
C1832 C 0.66974 0.63165 0.66319 0.0
C1833 C 0.68326 0.63268 0.69677 0.0
C1834 C 0.6858 0.61889 0.69995 0.0
C1835 C 0.66395 0.64406 0.67057 0.0
C1836 C 0.65989 0.65009 0.61829 0.0
C1837 C 0.65989 0.64785 0.72852 0.0
C1838 C 0.66269 0.64103 0.7855 0.0
C1839 C 0.6738 0.65188 0.82975 0.0
C1840 C 0.67672 0.64544 0.88301 0.0
C1841 C 0.66851 0.62817 0.8926 0.0
C1842 C 0.65725 0.61729 0.84917 0.0
C1843 C 0.65425 0.62367 0.79595 0.0
H1844 H 0.67083 0.62321 0.93375 0.0
H1845 H 0.62903 0.67266 0.41619 0.0
H1846 H 0.0781 0.68969 0.8885 0.0
H1847 H 0.04923 0.68461 0.88367 0.0
H1848 H 0.03464 0.63999 0.77774 0.0
H1849 H 0.06312 0.64531 0.78043 0.0
H1850 H 0.01733 0.65246 0.74001 0.0
H1851 H 0.03164 0.64066 0.9402 0.0
H1852 H 0.0478 0.64837 0.03596 0.0
H1853 H 0.0323 0.68423 0.07466 0.0
H1854 H 0.01625 0.67688 0.97859 0.0
H1855 H 0.94271 0.58951 0.91729 0.0
H1856 H 0.97129 0.61267 0.92022 0.0
H1857 H 0.95898 0.63901 0.78633 0.0
H1858 H 0.93018 0.61525 0.78159 0.0
H1859 H 0.98991 0.64392 0.94148 0.0
H1860 H 0.9912 0.65787 0.68714 0.0
H1861 H 0.97483 0.64477 0.59396 0.0
H1862 H 0.95891 0.59602 0.66776 0.0
H1863 H 0.97531 0.60884 0.76092 0.0
C1864 C 0.06878 0.67909 0.86278 0.0
C1865 C 0.07286 0.6678 0.8355 0.0
C1866 C 0.05225 0.6761 0.86045 0.0
C1867 C 0.03957 0.66171 0.83126 0.0
C1868 C 0.04404 0.65117 0.8006 0.0
C1869 C 0.06041 0.65419 0.80258 0.0
C1870 C 0.0214 0.65634 0.83674 0.0
C1871 C 0.01139 0.65093 0.78406 0.0
C1872 C 0.01345 0.65408 0.89407 0.0
C1873 C 0.02295 0.6584 0.95195 0.0
C1874 C 0.03177 0.65026 0.96901 0.0
C1875 C 0.0409 0.65456 0.0233 0.0
C1876 C 0.04112 0.66682 0.06127 0.0
C1877 C 0.03216 0.67477 0.04511 0.0
C1878 C 0.02306 0.67055 0.99074 0.0
C1879 C 0.94594 0.6004 0.88945 0.0
C1880 C 0.93426 0.60044 0.84848 0.0
C1881 C 0.96234 0.61374 0.89142 0.0
C1882 C 0.96752 0.62752 0.85253 0.0
C1883 C 0.95541 0.62839 0.816 0.0
C1884 C 0.93889 0.61488 0.81371 0.0
C1885 C 0.98586 0.63941 0.84502 0.0
C1886 C 0.99588 0.64607 0.89724 0.0
C1887 C 0.99383 0.6421 0.78756 0.0
C1888 C 0.98428 0.63431 0.73114 0.0
C1889 C 0.98423 0.64436 0.68329 0.0
C1890 C 0.97494 0.63699 0.63054 0.0
C1891 C 0.96576 0.61957 0.62506 0.0
C1892 C 0.96595 0.60949 0.67213 0.0
C1893 C 0.97525 0.61681 0.72487 0.0
H1894 H 0.95853 0.61388 0.5843 0.0
H1895 H 0.04819 0.67013 0.10329 0.0
loop_
_geom_bond_atom_site_label_1
_geom_bond_atom_site_label_2
_geom_bond_distance
_geom_bond_site_symmetry_2
_ccdc_geom_bond_type
C0 C1 1.351 . S
C0 N3 1.368 . S
C0 H5 0.931 . S
C1 C0 1.351 . S
C1 N2 1.373 . S
C1 H29 0.930 . S
N2 C1 1.373 . S
N2 C4 1.340 . S
N3 C0 1.368 . S
N3 C4 1.321 . S
N3 Co6 2.135 . S
C4 N2 1.340 . S
C4 N3 1.321 . S
C4 H28 0.930 . S
H5 C0 0.931 . S
Co6 N3 2.135 . S
Co6 N9 2.121 . S
Co6 O14 2.055 . S
Co6 O17 2.039 . S
Co6 N20 2.140 . S
C7 O8 1.227 . S
C7 O17 1.265 . S
O8 C7 1.227 . S
N9 Co6 2.121 . S
N9 C11 1.375 1_554 S
N9 C12 1.313 1_554 S
C10 C11 1.338 . S
C10 N13 1.377 . S
C10 H30 0.930 . S
C11 N9 1.375 1_556 S
C11 C10 1.338 . S
C11 H15 0.931 1_556 S
C12 N9 1.313 1_556 S
C12 N13 1.344 . S
C12 H16 0.930 . S
N13 C10 1.377 . S
N13 C12 1.344 . S
O14 Co6 2.055 . S
O14 C18 1.253 . S
H15 C11 0.931 1_554 S
H16 C12 0.930 . S
O17 Co6 2.039 . S
O17 C7 1.265 . S
C18 O14 1.253 . S
C18 O19 1.227 . S
O19 C18 1.227 . S
N20 Co6 2.140 . S
N20 C23 1.346 . S
N20 C24 1.345 . S
C21 C22 1.387 . S
C21 C25 1.391 . S
C22 C21 1.387 . S
C22 C23 1.369 . S
C22 H31 0.929 . S
C23 N20 1.346 . S
C23 C22 1.369 . S
C23 H26 0.928 . S
C24 N20 1.345 . S
C24 C25 1.371 . S
C24 H27 0.931 . S
C25 C21 1.391 . S
C25 C24 1.371 . S
C25 H32 0.930 . S
H26 C23 0.928 . S
H27 C24 0.931 . S
H28 C4 0.930 . S
H29 C1 0.930 . S
H30 C10 0.930 . S
H31 C22 0.929 . S
H32 C25 0.930 . S
C33 C34 1.351 . S
C33 N36 1.368 . S
C33 H38 0.931 . S
C34 C33 1.351 . S
C34 N35 1.373 . S
C34 H62 0.930 . S
N35 C34 1.373 . S
N35 C37 1.340 . S
N36 C33 1.368 . S
N36 C37 1.321 . S
N36 Co39 2.135 . S
C37 N35 1.340 . S
C37 N36 1.321 . S
C37 H61 0.930 . S
H38 C33 0.931 . S
Co39 N36 2.135 . S
Co39 N42 2.121 . S
Co39 O47 2.055 . S
Co39 O50 2.039 . S
Co39 N53 2.140 . S
C40 O41 1.227 . S
C40 O50 1.265 . S
O41 C40 1.227 . S
N42 Co39 2.121 . S
N42 C44 1.375 . S
N42 C45 1.313 . S
C43 C44 1.338 . S
C43 N46 1.377 . S
C43 H63 0.930 . S
C44 N42 1.375 . S
C44 C43 1.338 . S
C44 H48 0.931 . S
C45 N42 1.313 . S
C45 N46 1.344 . S
C45 H49 0.930 . S
N46 C43 1.377 . S
N46 C45 1.344 . S
O47 Co39 2.055 . S
O47 C51 1.253 . S
H48 C44 0.931 . S
H49 C45 0.930 . S
O50 Co39 2.039 . S
O50 C40 1.265 . S
C51 O47 1.253 . S
C51 O52 1.227 . S
O52 C51 1.227 . S
N53 Co39 2.140 . S
N53 C56 1.346 . S
N53 C57 1.345 . S
C54 C55 1.387 . S
C54 C58 1.391 . S
C55 C54 1.387 . S
C55 C56 1.369 . S
C55 H64 0.929 . S
C56 N53 1.346 . S
C56 C55 1.369 . S
C56 H59 0.928 . S
C57 N53 1.345 . S
C57 C58 1.371 . S
C57 H60 0.931 . S
C58 C54 1.391 . S
C58 C57 1.371 . S
C58 H65 0.930 . S
H59 C56 0.928 . S
H60 C57 0.931 . S
H61 C37 0.930 . S
H62 C34 0.930 . S
H63 C43 0.930 . S
H64 C55 0.929 . S
H65 C58 0.930 . S
C66 C67 1.351 . S
C66 N69 1.368 . S
C66 H71 0.931 . S
C67 C66 1.351 . S
C67 N68 1.373 . S
C67 H95 0.930 . S
N68 C67 1.373 . S
N68 C70 1.340 . S
N69 C66 1.368 . S
N69 C70 1.321 . S
N69 Co72 2.135 . S
C70 N68 1.340 . S
C70 N69 1.321 . S
C70 H94 0.930 . S
H71 C66 0.931 . S
Co72 N69 2.135 . S
Co72 N75 2.121 . S
Co72 O80 2.055 . S
Co72 O83 2.039 . S
Co72 N86 2.140 . S
C73 O74 1.227 . S
C73 O83 1.265 . S
O74 C73 1.227 . S
N75 Co72 2.121 . S
N75 C77 1.375 . S
N75 C78 1.313 . S
C76 C77 1.338 . S
C76 N79 1.377 . S
C76 H96 0.930 . S
C77 N75 1.375 . S
C77 C76 1.338 . S
C77 H81 0.931 . S
C78 N75 1.313 . S
C78 N79 1.344 . S
C78 H82 0.930 . S
N79 C76 1.377 . S
N79 C78 1.344 . S
O80 Co72 2.055 . S
O80 C84 1.253 . S
H81 C77 0.931 . S
H82 C78 0.930 . S
O83 Co72 2.039 . S
O83 C73 1.265 . S
C84 O80 1.253 . S
C84 O85 1.227 . S
O85 C84 1.227 . S
N86 Co72 2.140 . S
N86 C89 1.346 . S
N86 C90 1.345 . S
C87 C88 1.387 . S
C87 C91 1.391 . S
C88 C87 1.387 . S
C88 C89 1.369 . S
C88 H97 0.929 . S
C89 N86 1.346 . S
C89 C88 1.369 . S
C89 H92 0.928 . S
C90 N86 1.345 . S
C90 C91 1.371 . S
C90 H93 0.931 . S
C91 C87 1.391 . S
C91 C90 1.371 . S
C91 H98 0.930 . S
H92 C89 0.928 . S
H93 C90 0.931 . S
H94 C70 0.930 . S
H95 C67 0.930 . S
H96 C76 0.930 . S
H97 C88 0.929 . S
H98 C91 0.930 . S
C99 C100 1.351 . S
C99 N102 1.368 . S
C99 H104 0.931 . S
C100 C99 1.351 . S
C100 N101 1.373 . S
C100 H128 0.930 . S
N101 C100 1.373 . S
N101 C103 1.340 . S
N102 C99 1.368 . S
N102 C103 1.321 . S
N102 Co105 2.135 . S
C103 N101 1.340 . S
C103 N102 1.321 . S
C103 H127 0.930 . S
H104 C99 0.931 . S
Co105 N102 2.135 . S
Co105 N108 2.121 . S
Co105 O113 2.055 . S
Co105 O116 2.039 . S
Co105 N119 2.140 . S
C106 O107 1.227 . S
C106 O116 1.265 . S
O107 C106 1.227 . S
N108 Co105 2.121 . S
N108 C110 1.375 . S
N108 C111 1.313 . S
C109 C110 1.338 . S
C109 N112 1.377 . S
C109 H129 0.930 . S
C110 N108 1.375 . S
C110 C109 1.338 . S
C110 H114 0.931 . S
C111 N108 1.313 . S
C111 N112 1.344 . S
C111 H115 0.930 . S
N112 C109 1.377 . S
N112 C111 1.344 . S
O113 Co105 2.055 . S
O113 C117 1.253 . S
H114 C110 0.931 . S
H115 C111 0.930 . S
O116 Co105 2.039 . S
O116 C106 1.265 . S
C117 O113 1.253 . S
C117 O118 1.227 . S
O118 C117 1.227 . S
N119 Co105 2.140 . S
N119 C122 1.346 . S
N119 C123 1.345 . S
C120 C121 1.387 . S
C120 C124 1.391 . S
C121 C120 1.387 . S
C121 C122 1.369 . S
C121 H130 0.929 . S
C122 N119 1.346 . S
C122 C121 1.369 . S
C122 H125 0.928 . S
C123 N119 1.345 . S
C123 C124 1.371 . S
C123 H126 0.931 . S
C124 C120 1.391 . S
C124 C123 1.371 . S
C124 H131 0.930 . S
H125 C122 0.928 . S
H126 C123 0.931 . S
H127 C103 0.930 . S
H128 C100 0.930 . S
H129 C109 0.930 . S
H130 C121 0.929 . S
H131 C124 0.930 . S
C132 C133 1.351 . S
C132 N135 1.368 . S
C132 H137 0.931 . S
C133 C132 1.351 . S
C133 N134 1.373 . S
C133 H161 0.930 . S
N134 C133 1.373 . S
N134 C136 1.340 . S
N135 C132 1.368 . S
N135 C136 1.321 . S
N135 Co138 2.135 . S
C136 N134 1.340 . S
C136 N135 1.321 . S
C136 H160 0.930 . S
H137 C132 0.931 . S
Co138 N135 2.135 . S
Co138 N141 2.121 . S
Co138 O146 2.055 . S
Co138 O149 2.039 . S
Co138 N152 2.140 . S
C139 O140 1.227 . S
C139 O149 1.265 . S
O140 C139 1.227 . S
N141 Co138 2.121 . S
N141 C143 1.375 . S
N141 C144 1.313 . S
C142 C143 1.338 . S
C142 N145 1.377 . S
C142 H162 0.930 . S
C143 N141 1.375 . S
C143 C142 1.338 . S
C143 H147 0.931 . S
C144 N141 1.313 . S
C144 N145 1.344 . S
C144 H148 0.930 . S
N145 C142 1.377 . S
N145 C144 1.344 . S
O146 Co138 2.055 . S
O146 C150 1.253 . S
H147 C143 0.931 . S
H148 C144 0.930 . S
O149 Co138 2.039 . S
O149 C139 1.265 . S
C150 O146 1.253 . S
C150 O151 1.227 . S
O151 C150 1.227 . S
N152 Co138 2.140 . S
N152 C155 1.346 . S
N152 C156 1.345 . S
C153 C154 1.387 . S
C153 C157 1.391 . S
C154 C153 1.387 . S
C154 C155 1.369 . S
C154 H163 0.929 . S
C155 N152 1.346 . S
C155 C154 1.369 . S
C155 H158 0.928 . S
C156 N152 1.345 . S
C156 C157 1.371 . S
C156 H159 0.931 . S
C157 C153 1.391 . S
C157 C156 1.371 . S
C157 H164 0.930 . S
H158 C155 0.928 . S
H159 C156 0.931 . S
H160 C136 0.930 . S
H161 C133 0.930 . S
H162 C142 0.930 . S
H163 C154 0.929 . S
H164 C157 0.930 . S
C165 C166 1.351 . S
C165 N168 1.368 . S
C165 H170 0.931 . S
C166 C165 1.351 . S
C166 N167 1.373 . S
C166 H194 0.930 . S
N167 C166 1.373 . S
N167 C169 1.340 . S
N168 C165 1.368 . S
N168 C169 1.321 . S
N168 Co171 2.135 1_554 S
C169 N167 1.340 . S
C169 N168 1.321 . S
C169 H193 0.930 . S
H170 C165 0.931 . S
Co171 N168 2.135 1_556 S
Co171 N174 2.121 . S
Co171 O179 2.055 . S
Co171 O182 2.039 . S
Co171 N185 2.140 . S
C172 O173 1.227 . S
C172 O182 1.265 . S
O173 C172 1.227 . S
N174 Co171 2.121 . S
N174 C176 1.375 . S
N174 C177 1.313 . S
C175 C176 1.338 . S
C175 N178 1.377 . S
C175 H195 0.930 . S
C176 N174 1.375 . S
C176 C175 1.338 . S
C176 H180 0.931 . S
C177 N174 1.313 . S
C177 N178 1.344 . S
C177 H181 0.930 . S
N178 C175 1.377 . S
N178 C177 1.344 . S
O179 Co171 2.055 . S
O179 C183 1.253 . S
H180 C176 0.931 . S
H181 C177 0.930 . S
O182 Co171 2.039 . S
O182 C172 1.265 . S
C183 O179 1.253 . S
C183 O184 1.227 . S
O184 C183 1.227 . S
N185 Co171 2.140 . S
N185 C188 1.346 1_556 S
N185 C189 1.345 . S
C186 C187 1.387 1_556 S
C186 C190 1.391 . S
C187 C186 1.387 1_554 S
C187 C188 1.369 . S
C187 H196 0.929 . S
C188 N185 1.346 1_554 S
C188 C187 1.369 . S
C188 H191 0.928 . S
C189 N185 1.345 . S
C189 C190 1.371 . S
C189 H192 0.931 . S
C190 C186 1.391 . S
C190 C189 1.371 . S
C190 H197 0.930 . S
H191 C188 0.928 . S
H192 C189 0.931 . S
H193 C169 0.930 . S
H194 C166 0.930 . S
H195 C175 0.930 . S
H196 C187 0.929 . S
H197 C190 0.930 . S
C198 C199 1.351 . S
C198 N201 1.368 . S
C198 H203 0.931 . S
C199 C198 1.351 . S
C199 N200 1.373 . S
C199 H227 0.930 . S
N200 C199 1.373 . S
N200 C202 1.340 . S
N201 C198 1.368 . S
N201 C202 1.321 . S
N201 Co204 2.135 . S
C202 N200 1.340 . S
C202 N201 1.321 . S
C202 H226 0.930 . S
H203 C198 0.931 . S
Co204 N201 2.135 . S
Co204 N207 2.121 . S
Co204 O212 2.055 . S
Co204 O215 2.039 . S
Co204 N218 2.140 . S
C205 O206 1.227 . S
C205 O215 1.265 . S
O206 C205 1.227 . S
N207 Co204 2.121 . S
N207 C209 1.375 . S
N207 C210 1.313 . S
C208 C209 1.338 . S
C208 N211 1.377 . S
C208 H228 0.930 . S
C209 N207 1.375 . S
C209 C208 1.338 . S
C209 H213 0.931 . S
C210 N207 1.313 . S
C210 N211 1.344 . S
C210 H214 0.930 . S
N211 C208 1.377 . S
N211 C210 1.344 . S
O212 Co204 2.055 . S
O212 C216 1.253 . S
H213 C209 0.931 . S
H214 C210 0.930 . S
O215 Co204 2.039 . S
O215 C205 1.265 . S
C216 O212 1.253 . S
C216 O217 1.227 . S
O217 C216 1.227 . S
N218 Co204 2.140 . S
N218 C221 1.346 . S
N218 C222 1.345 . S
C219 C220 1.387 . S
C219 C223 1.391 . S
C220 C219 1.387 . S
C220 C221 1.369 . S
C220 H229 0.929 . S
C221 N218 1.346 . S
C221 C220 1.369 . S
C221 H224 0.928 . S
C222 N218 1.345 . S
C222 C223 1.371 . S
C222 H225 0.931 . S
C223 C219 1.391 . S
C223 C222 1.371 . S
C223 H230 0.930 . S
H224 C221 0.928 . S
H225 C222 0.931 . S
H226 C202 0.930 . S
H227 C199 0.930 . S
H228 C208 0.930 . S
H229 C220 0.929 . S
H230 C223 0.930 . S
C231 C232 1.351 . S
C231 N234 1.368 . S
C231 H236 0.931 . S
C232 C231 1.351 . S
C232 N233 1.373 . S
C232 H260 0.930 . S
N233 C232 1.373 . S
N233 C235 1.340 . S
N234 C231 1.368 . S
N234 C235 1.321 . S
N234 Co237 2.135 . S
C235 N233 1.340 . S
C235 N234 1.321 . S
C235 H259 0.930 . S
H236 C231 0.931 . S
Co237 N234 2.135 . S
Co237 N240 2.121 . S
Co237 O245 2.055 . S
Co237 O248 2.039 . S
Co237 N251 2.140 . S
C238 O239 1.227 . S
C238 O248 1.265 . S
O239 C238 1.227 . S
N240 Co237 2.121 . S
N240 C242 1.380 . S
N240 C243 1.313 1_556 S
C241 C242 1.325 1_554 S
C241 N244 1.377 . S
C241 H261 0.930 . S
C242 N240 1.380 . S
C242 C241 1.325 1_556 S
C242 H246 0.938 . S
C243 N240 1.313 1_554 S
C243 N244 1.344 . S
C243 H247 0.930 . S
N244 C241 1.377 . S
N244 C243 1.344 . S
O245 Co237 2.055 . S
O245 C249 1.253 . S
H246 C242 0.938 . S
H247 C243 0.930 . S
O248 Co237 2.039 . S
O248 C238 1.265 . S
C249 O245 1.253 . S
C249 O250 1.227 . S
O250 C249 1.227 . S
N251 Co237 2.140 . S
N251 C254 1.346 . S
N251 C255 1.345 . S
C252 C253 1.387 . S
C252 C256 1.391 . S
C253 C252 1.387 . S
C253 C254 1.369 . S
C253 H262 0.929 . S
C254 N251 1.346 . S
C254 C253 1.369 . S
C254 H257 0.928 . S
C255 N251 1.345 . S
C255 C256 1.371 . S
C255 H258 0.931 . S
C256 C252 1.391 . S
C256 C255 1.371 . S
C256 H263 0.930 . S
H257 C254 0.928 . S
H258 C255 0.931 . S
H259 C235 0.930 . S
H260 C232 0.930 . S
H261 C241 0.930 . S
H262 C253 0.929 . S
H263 C256 0.930 . S
C264 C265 1.351 . S
C264 N267 1.368 . S
C264 H269 0.931 . S
C265 C264 1.351 . S
C265 N266 1.373 . S
C265 H293 0.930 . S
N266 C265 1.373 . S
N266 C268 1.340 . S
N267 C264 1.368 . S
N267 C268 1.321 . S
N267 Co270 2.135 1_556 S
C268 N266 1.340 . S
C268 N267 1.321 . S
C268 H292 0.930 . S
H269 C264 0.931 . S
Co270 N267 2.135 1_554 S
Co270 N273 2.121 . S
Co270 O278 2.055 . S
Co270 O281 2.039 . S
Co270 N284 2.140 . S
C271 O272 1.227 . S
C271 O281 1.265 . S
O272 C271 1.227 . S
N273 Co270 2.121 . S
N273 C275 1.375 . S
N273 C276 1.313 . S
C274 C275 1.338 . S
C274 N277 1.377 . S
C274 H294 0.930 . S
C275 N273 1.375 . S
C275 C274 1.338 . S
C275 H279 0.931 . S
C276 N273 1.313 . S
C276 N277 1.344 . S
C276 H280 0.930 . S
N277 C274 1.377 . S
N277 C276 1.344 . S
O278 Co270 2.055 . S
O278 C282 1.253 . S
H279 C275 0.931 . S
H280 C276 0.930 . S
O281 Co270 2.039 . S
O281 C271 1.265 . S
C282 O278 1.253 . S
C282 O283 1.227 . S
O283 C282 1.227 . S
N284 Co270 2.140 . S
N284 C287 1.346 1_554 S
N284 C288 1.345 . S
C285 C286 1.387 1_554 S
C285 C289 1.391 . S
C286 C285 1.387 1_556 S
C286 C287 1.369 . S
C286 H295 0.929 . S
C287 N284 1.346 1_556 S
C287 C286 1.369 . S
C287 H290 0.928 . S
C288 N284 1.345 . S
C288 C289 1.371 . S
C288 H291 0.931 . S
C289 C285 1.391 . S
C289 C288 1.371 . S
C289 H296 0.930 . S
H290 C287 0.928 . S
H291 C288 0.931 . S
H292 C268 0.930 . S
H293 C265 0.930 . S
H294 C274 0.930 . S
H295 C286 0.929 . S
H296 C289 0.930 . S
C297 C298 1.351 . S
C297 N300 1.368 . S
C297 H302 0.931 . S
C298 C297 1.351 . S
C298 N299 1.373 . S
C298 H326 0.930 . S
N299 C298 1.373 . S
N299 C301 1.340 . S
N300 C297 1.368 . S
N300 C301 1.321 . S
N300 Co303 2.135 . S
C301 N299 1.340 . S
C301 N300 1.321 . S
C301 H325 0.930 . S
H302 C297 0.931 . S
Co303 N300 2.135 . S
Co303 N306 2.121 . S
Co303 O311 2.055 . S
Co303 O314 2.039 . S
Co303 N317 2.140 . S
C304 O305 1.227 . S
C304 O314 1.265 . S
O305 C304 1.227 . S
N306 Co303 2.121 . S
N306 C308 1.375 . S
N306 C309 1.313 . S
C307 C308 1.338 . S
C307 N310 1.377 . S
C307 H327 0.930 . S
C308 N306 1.375 . S
C308 C307 1.338 . S
C308 H312 0.931 . S
C309 N306 1.313 . S
C309 N310 1.344 . S
C309 H313 0.930 . S
N310 C307 1.377 . S
N310 C309 1.344 . S
O311 Co303 2.055 . S
O311 C315 1.253 . S
H312 C308 0.931 . S
H313 C309 0.930 . S
O314 Co303 2.039 . S
O314 C304 1.265 . S
C315 O311 1.253 . S
C315 O316 1.227 . S
O316 C315 1.227 . S
N317 Co303 2.140 . S
N317 C320 1.346 . S
N317 C321 1.345 . S
C318 C319 1.387 . S
C318 C322 1.391 . S
C319 C318 1.387 . S
C319 C320 1.369 . S
C319 H328 0.929 . S
C320 N317 1.346 . S
C320 C319 1.369 . S
C320 H323 0.928 . S
C321 N317 1.345 . S
C321 C322 1.371 . S
C321 H324 0.931 . S
C322 C318 1.391 . S
C322 C321 1.371 . S
C322 H329 0.930 . S
H323 C320 0.928 . S
H324 C321 0.931 . S
H325 C301 0.930 . S
H326 C298 0.930 . S
H327 C307 0.930 . S
H328 C319 0.929 . S
H329 C322 0.930 . S
C330 C331 1.351 . S
C330 N333 1.368 . S
C330 H335 0.931 . S
C331 C330 1.351 . S
C331 N332 1.373 . S
C331 H359 0.930 . S
N332 C331 1.373 . S
N332 C334 1.340 . S
N333 C330 1.368 . S
N333 C334 1.321 . S
N333 Co336 2.135 . S
C334 N332 1.340 . S
C334 N333 1.321 . S
C334 H358 0.930 . S
H335 C330 0.931 . S
Co336 N333 2.135 . S
Co336 N339 2.121 . S
Co336 O344 2.055 . S
Co336 O347 2.039 . S
Co336 N350 2.140 . S
C337 O338 1.227 . S
C337 O347 1.265 . S
O338 C337 1.227 . S
N339 Co336 2.121 . S
N339 C341 1.375 . S
N339 C342 1.313 . S
C340 C341 1.338 . S
C340 N343 1.377 . S
C340 H360 0.930 . S
C341 N339 1.375 . S
C341 C340 1.338 . S
C341 H345 0.931 . S
C342 N339 1.313 . S
C342 N343 1.344 . S
C342 H346 0.930 . S
N343 C340 1.377 . S
N343 C342 1.344 . S
O344 Co336 2.055 . S
O344 C348 1.253 . S
H345 C341 0.931 . S
H346 C342 0.930 . S
O347 Co336 2.039 . S
O347 C337 1.265 . S
C348 O344 1.253 . S
C348 O349 1.227 . S
O349 C348 1.227 . S
N350 Co336 2.140 . S
N350 C353 1.346 . S
N350 C354 1.345 . S
C351 C352 1.387 . S
C351 C355 1.391 . S
C352 C351 1.387 . S
C352 C353 1.369 . S
C352 H361 0.929 . S
C353 N350 1.346 . S
C353 C352 1.369 . S
C353 H356 0.928 . S
C354 N350 1.345 . S
C354 C355 1.371 . S
C354 H357 0.931 . S
C355 C351 1.391 . S
C355 C354 1.371 . S
C355 H362 0.930 . S
H356 C353 0.928 . S
H357 C354 0.931 . S
H358 C334 0.930 . S
H359 C331 0.930 . S
H360 C340 0.930 . S
H361 C352 0.929 . S
H362 C355 0.930 . S
C363 C364 1.351 . S
C363 N366 1.368 . S
C363 H368 0.931 . S
C364 C363 1.351 . S
C364 N365 1.373 . S
C364 H392 0.930 . S
N365 C364 1.373 . S
N365 C367 1.340 . S
N366 C363 1.368 . S
N366 C367 1.321 . S
N366 Co369 2.135 . S
C367 N365 1.340 . S
C367 N366 1.321 . S
C367 H391 0.930 . S
H368 C363 0.931 . S
Co369 N366 2.135 . S
Co369 N372 2.121 . S
Co369 O377 2.055 . S
Co369 O380 2.039 . S
Co369 N383 2.140 . S
C370 O371 1.227 . S
C370 O380 1.265 . S
O371 C370 1.227 . S
N372 Co369 2.121 . S
N372 C374 1.375 . S
N372 C375 1.313 . S
C373 C374 1.338 . S
C373 N376 1.377 . S
C373 H393 0.930 . S
C374 N372 1.375 . S
C374 C373 1.338 . S
C374 H378 0.931 . S
C375 N372 1.313 . S
C375 N376 1.344 . S
C375 H379 0.930 . S
N376 C373 1.377 . S
N376 C375 1.344 . S
O377 Co369 2.055 . S
O377 C381 1.253 . S
H378 C374 0.931 . S
H379 C375 0.930 . S
O380 Co369 2.039 . S
O380 C370 1.265 . S
C381 O377 1.253 . S
C381 O382 1.227 . S
O382 C381 1.227 . S
N383 Co369 2.140 . S
N383 C386 1.346 . S
N383 C387 1.345 . S
C384 C385 1.387 . S
C384 C388 1.391 . S
C385 C384 1.387 . S
C385 C386 1.369 . S
C385 H394 0.929 . S
C386 N383 1.346 . S
C386 C385 1.369 . S
C386 H389 0.928 . S
C387 N383 1.345 . S
C387 C388 1.371 . S
C387 H390 0.931 . S
C388 C384 1.391 . S
C388 C387 1.371 . S
C388 H395 0.930 . S
H389 C386 0.928 . S
H390 C387 0.931 . S
H391 C367 0.930 . S
H392 C364 0.930 . S
H393 C373 0.930 . S
H394 C385 0.929 . S
H395 C388 0.930 . S
H396 C414 0.951 . S
H397 C416 0.951 . S
H398 C418 0.950 . S
H399 C419 0.950 . S
H400 C421 0.950 . S
H401 C424 0.950 . S
H402 C425 0.950 . S
H403 C427 0.950 . S
H404 C428 0.950 . S
H405 C429 0.951 . S
H406 C431 0.951 . S
H407 C433 0.950 . S
H408 C434 0.950 . S
H409 C436 0.950 . S
H410 C439 0.950 . S
H411 C440 0.950 . S
H412 C442 0.950 . S
H413 C443 0.950 . S
C414 H396 0.951 . S
C414 C415 1.366 . S
C414 C416 1.388 . S
C415 C414 1.366 . S
C415 C419 1.385 . S
C416 H397 0.951 . S
C416 C414 1.388 . S
C416 C417 1.366 . S
C417 C416 1.366 . S
C417 C418 1.414 . S
C417 C420 1.499 . S
C418 H398 0.950 . S
C418 C417 1.414 . S
C418 C419 1.374 . S
C419 H399 0.950 . S
C419 C415 1.385 . S
C419 C418 1.374 . S
C420 C417 1.499 . S
C420 C421 1.373 . S
C420 C422 1.389 . S
C421 H400 0.950 . S
C421 C420 1.373 . S
C421 C437 1.377 . S
C422 C420 1.389 . S
C422 C423 1.524 . S
C422 C436 1.377 . S
C423 C422 1.524 . S
C423 C424 1.397 1_554 S
C423 C428 1.363 . S
C424 H401 0.950 . S
C424 C423 1.397 1_556 S
C424 C425 1.334 . S
C425 H402 0.950 . S
C425 C424 1.334 . S
C425 C426 1.287 . S
C426 C425 1.287 . S
C426 C427 1.524 . S
C426 H445 0.913 . S
C427 H403 0.950 . S
C427 C426 1.524 . S
C427 C428 1.415 1_556 S
C428 H404 0.950 . S
C428 C423 1.363 . S
C428 C427 1.415 1_554 S
C429 H405 0.951 . S
C429 C430 1.366 . S
C429 C431 1.388 . S
C430 C429 1.366 . S
C430 C434 1.385 . S
C431 H406 0.951 . S
C431 C429 1.388 . S
C431 C432 1.366 . S
C432 C431 1.366 . S
C432 C433 1.414 . S
C432 C435 1.499 . S
C433 H407 0.950 . S
C433 C432 1.414 . S
C433 C434 1.374 . S
C434 H408 0.950 . S
C434 C430 1.385 . S
C434 C433 1.374 . S
C435 C432 1.499 . S
C435 C436 1.373 . S
C435 C437 1.389 . S
C436 H409 0.950 . S
C436 C422 1.377 . S
C436 C435 1.373 . S
C437 C421 1.377 . S
C437 C435 1.389 . S
C437 C438 1.524 . S
C438 C437 1.524 . S
C438 C439 1.397 . S
C438 C443 1.363 . S
C439 H410 0.950 . S
C439 C438 1.397 . S
C439 C440 1.334 . S
C440 H411 0.950 . S
C440 C439 1.334 . S
C440 C441 1.287 . S
C441 C440 1.287 . S
C441 C442 1.524 . S
C441 H444 0.999 . S
C442 H412 0.950 . S
C442 C441 1.524 . S
C442 C443 1.415 . S
C443 H413 0.950 . S
C443 C438 1.363 . S
C443 C442 1.415 . S
H444 C441 0.999 . S
H445 C426 0.913 . S
H446 C464 0.951 . S
H447 C466 0.951 . S
H448 C468 0.950 . S
H449 C469 0.950 . S
H450 C471 0.950 . S
H451 C474 0.950 . S
H452 C475 0.950 . S
H453 C477 0.950 . S
H454 C478 0.950 . S
H455 C479 0.951 . S
H456 C481 0.951 . S
H457 C483 0.950 . S
H458 C484 0.950 . S
H459 C486 0.950 . S
H460 C489 0.950 . S
H461 C490 0.950 . S
H462 C492 0.950 . S
H463 C493 0.950 . S
C464 H446 0.951 . S
C464 C465 1.366 . S
C464 C466 1.388 . S
C465 C464 1.366 . S
C465 C469 1.385 . S
C466 H447 0.951 . S
C466 C464 1.388 . S
C466 C467 1.366 . S
C467 C466 1.366 . S
C467 C468 1.414 . S
C467 C470 1.499 . S
C468 H448 0.950 . S
C468 C467 1.414 . S
C468 C469 1.374 . S
C469 H449 0.950 . S
C469 C465 1.385 . S
C469 C468 1.374 . S
C470 C467 1.499 . S
C470 C471 1.373 . S
C470 C472 1.389 . S
C471 H450 0.950 . S
C471 C470 1.373 . S
C471 C487 1.377 . S
C472 C470 1.389 . S
C472 C473 1.524 . S
C472 C486 1.377 . S
C473 C472 1.524 . S
C473 C474 1.397 . S
C473 C478 1.363 . S
C474 H451 0.950 . S
C474 C473 1.397 . S
C474 C475 1.334 . S
C475 H452 0.950 . S
C475 C474 1.334 . S
C475 C476 1.287 . S
C476 C475 1.287 . S
C476 C477 1.524 . S
C476 H495 0.913 . S
C477 H453 0.950 . S
C477 C476 1.524 . S
C477 C478 1.415 . S
C478 H454 0.950 . S
C478 C473 1.363 . S
C478 C477 1.415 . S
C479 H455 0.951 . S
C479 C480 1.366 . S
C479 C481 1.388 . S
C480 C479 1.366 . S
C480 C484 1.385 . S
C481 H456 0.951 . S
C481 C479 1.388 . S
C481 C482 1.366 . S
C482 C481 1.366 . S
C482 C483 1.414 . S
C482 C485 1.499 . S
C483 H457 0.950 . S
C483 C482 1.414 . S
C483 C484 1.374 . S
C484 H458 0.950 . S
C484 C480 1.385 . S
C484 C483 1.374 . S
C485 C482 1.499 . S
C485 C486 1.373 . S
C485 C487 1.389 . S
C486 H459 0.950 . S
C486 C472 1.377 . S
C486 C485 1.373 . S
C487 C471 1.377 . S
C487 C485 1.389 . S
C487 C488 1.524 . S
C488 C487 1.524 . S
C488 C489 1.397 . S
C488 C493 1.363 . S
C489 H460 0.950 . S
C489 C488 1.397 . S
C489 C490 1.334 . S
C490 H461 0.950 . S
C490 C489 1.334 . S
C490 C491 1.287 . S
C491 C490 1.287 . S
C491 C492 1.524 . S
C491 H494 0.999 . S
C492 H462 0.950 . S
C492 C491 1.524 . S
C492 C493 1.415 . S
C493 H463 0.950 . S
C493 C488 1.363 . S
C493 C492 1.415 . S
H494 C491 0.999 . S
H495 C476 0.913 . S
H496 C514 0.951 . S
H497 C516 0.951 . S
H498 C518 0.950 . S
H499 C519 0.950 . S
H500 C521 0.950 . S
H501 C524 0.950 . S
H502 C525 0.950 . S
H503 C527 0.950 . S
H504 C528 0.950 . S
H505 C529 0.951 . S
H506 C531 0.951 . S
H507 C533 0.950 . S
H508 C534 0.950 . S
H509 C536 0.950 . S
H510 C539 0.950 . S
H511 C540 0.950 . S
H512 C542 0.950 . S
H513 C543 0.950 . S
C514 H496 0.951 . S
C514 C515 1.366 . S
C514 C516 1.388 . S
C515 C514 1.366 . S
C515 C519 1.385 . S
C516 H497 0.951 . S
C516 C514 1.388 . S
C516 C517 1.366 . S
C517 C516 1.366 . S
C517 C518 1.414 . S
C517 C520 1.499 . S
C518 H498 0.950 . S
C518 C517 1.414 . S
C518 C519 1.374 . S
C519 H499 0.950 . S
C519 C515 1.385 . S
C519 C518 1.374 . S
C520 C517 1.499 . S
C520 C521 1.373 . S
C520 C522 1.389 . S
C521 H500 0.950 . S
C521 C520 1.373 . S
C521 C537 1.377 . S
C522 C520 1.389 . S
C522 C523 1.524 . S
C522 C536 1.377 . S
C523 C522 1.524 . S
C523 C524 1.397 . S
C523 C528 1.363 . S
C524 H501 0.950 . S
C524 C523 1.397 . S
C524 C525 1.334 . S
C525 H502 0.950 . S
C525 C524 1.334 . S
C525 C526 1.287 . S
C526 C525 1.287 . S
C526 C527 1.524 . S
C526 H545 0.913 . S
C527 H503 0.950 . S
C527 C526 1.524 . S
C527 C528 1.415 . S
C528 H504 0.950 . S
C528 C523 1.363 . S
C528 C527 1.415 . S
C529 H505 0.951 . S
C529 C530 1.366 . S
C529 C531 1.388 . S
C530 C529 1.366 . S
C530 C534 1.385 . S
C531 H506 0.951 . S
C531 C529 1.388 . S
C531 C532 1.366 . S
C532 C531 1.366 . S
C532 C533 1.414 . S
C532 C535 1.499 . S
C533 H507 0.950 . S
C533 C532 1.414 . S
C533 C534 1.374 . S
C534 H508 0.950 . S
C534 C530 1.385 . S
C534 C533 1.374 . S
C535 C532 1.499 . S
C535 C536 1.373 . S
C535 C537 1.389 . S
C536 H509 0.950 . S
C536 C522 1.377 . S
C536 C535 1.373 . S
C537 C521 1.377 . S
C537 C535 1.389 . S
C537 C538 1.524 . S
C538 C537 1.524 . S
C538 C539 1.397 . S
C538 C543 1.363 . S
C539 H510 0.950 . S
C539 C538 1.397 . S
C539 C540 1.334 . S
C540 H511 0.950 . S
C540 C539 1.334 . S
C540 C541 1.287 . S
C541 C540 1.287 . S
C541 C542 1.524 . S
C541 H544 0.999 . S
C542 H512 0.950 . S
C542 C541 1.524 . S
C542 C543 1.415 . S
C543 H513 0.950 . S
C543 C538 1.363 . S
C543 C542 1.415 . S
H544 C541 0.999 . S
H545 C526 0.913 . S
H546 C564 0.951 . S
H547 C566 0.951 . S
H548 C568 0.950 . S
H549 C569 0.950 . S
H550 C571 0.950 . S
H551 C574 0.950 . S
H552 C575 0.950 . S
H553 C577 0.950 . S
H554 C578 0.950 . S
H555 C579 0.951 . S
H556 C581 0.951 . S
H557 C583 0.950 . S
H558 C584 0.950 . S
H559 C586 0.950 . S
H560 C589 0.950 . S
H561 C590 0.950 . S
H562 C592 0.950 . S
H563 C593 0.950 . S
C564 H546 0.951 . S
C564 C565 1.366 . S
C564 C566 1.388 . S
C565 C564 1.366 . S
C565 C569 1.385 . S
C566 H547 0.951 . S
C566 C564 1.388 . S
C566 C567 1.366 . S
C567 C566 1.366 . S
C567 C568 1.414 . S
C567 C570 1.499 . S
C568 H548 0.950 . S
C568 C567 1.414 . S
C568 C569 1.374 . S
C569 H549 0.950 . S
C569 C565 1.385 . S
C569 C568 1.374 . S
C570 C567 1.499 . S
C570 C571 1.373 . S
C570 C572 1.389 . S
C571 H550 0.950 . S
C571 C570 1.373 . S
C571 C587 1.377 . S
C572 C570 1.389 . S
C572 C573 1.524 . S
C572 C586 1.377 . S
C573 C572 1.524 . S
C573 C574 1.397 . S
C573 C578 1.363 . S
C574 H551 0.950 . S
C574 C573 1.397 . S
C574 C575 1.334 . S
C575 H552 0.950 . S
C575 C574 1.334 . S
C575 C576 1.287 . S
C576 C575 1.287 . S
C576 C577 1.524 . S
C576 H595 0.913 . S
C577 H553 0.950 . S
C577 C576 1.524 . S
C577 C578 1.415 . S
C578 H554 0.950 . S
C578 C573 1.363 . S
C578 C577 1.415 . S
C579 H555 0.951 . S
C579 C580 1.366 . S
C579 C581 1.388 . S
C580 C579 1.366 . S
C580 C584 1.385 . S
C581 H556 0.951 . S
C581 C579 1.388 . S
C581 C582 1.366 . S
C582 C581 1.366 . S
C582 C583 1.414 . S
C582 C585 1.499 . S
C583 H557 0.950 . S
C583 C582 1.414 . S
C583 C584 1.374 . S
C584 H558 0.950 . S
C584 C580 1.385 . S
C584 C583 1.374 . S
C585 C582 1.499 . S
C585 C586 1.373 . S
C585 C587 1.389 . S
C586 H559 0.950 . S
C586 C572 1.377 . S
C586 C585 1.373 . S
C587 C571 1.377 . S
C587 C585 1.389 . S
C587 C588 1.524 . S
C588 C587 1.524 . S
C588 C589 1.397 . S
C588 C593 1.363 . S
C589 H560 0.950 . S
C589 C588 1.397 . S
C589 C590 1.334 . S
C590 H561 0.950 . S
C590 C589 1.334 . S
C590 C591 1.287 . S
C591 C590 1.287 . S
C591 C592 1.524 . S
C591 H594 0.999 . S
C592 H562 0.950 . S
C592 C591 1.524 . S
C592 C593 1.415 . S
C593 H563 0.950 . S
C593 C588 1.363 . S
C593 C592 1.415 . S
H594 C591 0.999 . S
H595 C576 0.913 . S
H596 C614 0.951 . S
H597 C616 0.951 . S
H598 C618 0.950 . S
H599 C619 0.950 . S
H600 C621 0.950 . S
H601 C624 0.950 . S
H602 C625 0.950 . S
H603 C627 0.950 . S
H604 C628 0.950 . S
H605 C629 0.951 . S
H606 C631 0.951 . S
H607 C633 0.950 . S
H608 C634 0.950 . S
H609 C636 0.950 . S
H610 C639 0.950 . S
H611 C640 0.950 . S
H612 C642 0.950 . S
H613 C643 0.950 . S
C614 H596 0.951 . S
C614 C615 1.366 . S
C614 C616 1.388 . S
C615 C614 1.366 . S
C615 C619 1.385 . S
C616 H597 0.951 . S
C616 C614 1.388 . S
C616 C617 1.366 . S
C617 C616 1.366 . S
C617 C618 1.414 . S
C617 C620 1.499 . S
C618 H598 0.950 . S
C618 C617 1.414 . S
C618 C619 1.374 . S
C619 H599 0.950 . S
C619 C615 1.385 . S
C619 C618 1.374 . S
C620 C617 1.499 . S
C620 C621 1.373 . S
C620 C622 1.389 . S
C621 H600 0.950 . S
C621 C620 1.373 . S
C621 C637 1.377 . S
C622 C620 1.389 . S
C622 C623 1.524 . S
C622 C636 1.377 . S
C623 C622 1.524 . S
C623 C624 1.397 . S
C623 C628 1.363 . S
C624 H601 0.950 . S
C624 C623 1.397 . S
C624 C625 1.334 . S
C625 H602 0.950 . S
C625 C624 1.334 . S
C625 C626 1.287 . S
C626 C625 1.287 . S
C626 C627 1.524 . S
C626 H645 0.913 . S
C627 H603 0.950 . S
C627 C626 1.524 . S
C627 C628 1.415 . S
C628 H604 0.950 . S
C628 C623 1.363 . S
C628 C627 1.415 . S
C629 H605 0.951 . S
C629 C630 1.366 . S
C629 C631 1.388 . S
C630 C629 1.366 . S
C630 C634 1.385 . S
C631 H606 0.951 . S
C631 C629 1.388 . S
C631 C632 1.366 . S
C632 C631 1.366 . S
C632 C633 1.414 . S
C632 C635 1.499 . S
C633 H607 0.950 . S
C633 C632 1.414 . S
C633 C634 1.374 . S
C634 H608 0.950 . S
C634 C630 1.385 . S
C634 C633 1.374 . S
C635 C632 1.499 . S
C635 C636 1.373 . S
C635 C637 1.389 . S
C636 H609 0.950 . S
C636 C622 1.377 . S
C636 C635 1.373 . S
C637 C621 1.377 . S
C637 C635 1.389 . S
C637 C638 1.524 . S
C638 C637 1.524 . S
C638 C639 1.397 . S
C638 C643 1.363 . S
C639 H610 0.950 . S
C639 C638 1.397 . S
C639 C640 1.334 . S
C640 H611 0.950 . S
C640 C639 1.334 . S
C640 C641 1.287 . S
C641 C640 1.287 . S
C641 C642 1.524 . S
C641 H644 0.999 . S
C642 H612 0.950 . S
C642 C641 1.524 . S
C642 C643 1.415 . S
C643 H613 0.950 . S
C643 C638 1.363 . S
C643 C642 1.415 . S
H644 C641 0.999 . S
H645 C626 0.913 . S
H646 C664 0.951 . S
H647 C666 0.951 . S
H648 C668 0.950 . S
H649 C669 0.950 . S
H650 C671 0.950 . S
H651 C674 0.950 . S
H652 C675 0.950 . S
H653 C677 0.950 1_554 S
H654 C678 0.950 1_554 S
H655 C679 0.951 . S
H656 C681 0.951 . S
H657 C683 0.950 1_554 S
H658 C684 0.950 . S
H659 C686 0.950 . S
H660 C689 0.950 . S
H661 C690 0.950 . S
H662 C692 0.950 . S
H663 C693 0.950 . S
C664 H646 0.951 . S
C664 C665 1.366 . S
C664 C666 1.388 . S
C665 C664 1.366 . S
C665 C669 1.385 . S
C666 H647 0.951 . S
C666 C664 1.388 . S
C666 C667 1.366 . S
C667 C666 1.366 . S
C667 C668 1.414 . S
C667 C670 1.499 . S
C668 H648 0.950 . S
C668 C667 1.414 . S
C668 C669 1.374 . S
C669 H649 0.950 . S
C669 C665 1.385 . S
C669 C668 1.374 . S
C670 C667 1.499 . S
C670 C671 1.373 . S
C670 C672 1.389 . S
C671 H650 0.950 . S
C671 C670 1.373 . S
C671 C687 1.377 . S
C672 C670 1.389 . S
C672 C673 1.524 . S
C672 C686 1.377 . S
C673 C672 1.524 . S
C673 C674 1.397 . S
C673 C678 1.363 . S
C674 H651 0.950 . S
C674 C673 1.397 . S
C674 C675 1.334 . S
C675 H652 0.950 . S
C675 C674 1.334 . S
C675 C676 1.287 . S
C676 C675 1.287 . S
C676 C677 1.524 . S
C676 H695 0.913 . S
C677 H653 0.950 1_556 S
C677 C676 1.524 . S
C677 C678 1.415 . S
C678 H654 0.950 1_556 S
C678 C673 1.363 . S
C678 C677 1.415 . S
C679 H655 0.951 . S
C679 C680 1.366 . S
C679 C681 1.388 . S
C680 C679 1.366 . S
C680 C684 1.385 1_556 S
C681 H656 0.951 . S
C681 C679 1.388 . S
C681 C682 1.366 . S
C682 C681 1.366 . S
C682 C683 1.414 . S
C682 C685 1.499 . S
C683 H657 0.950 1_556 S
C683 C682 1.414 . S
C683 C684 1.374 1_556 S
C684 H658 0.950 . S
C684 C680 1.385 1_554 S
C684 C683 1.374 1_554 S
C685 C682 1.499 . S
C685 C686 1.373 . S
C685 C687 1.389 . S
C686 H659 0.950 . S
C686 C672 1.377 . S
C686 C685 1.373 . S
C687 C671 1.377 . S
C687 C685 1.389 . S
C687 C688 1.524 . S
C688 C687 1.524 . S
C688 C689 1.397 . S
C688 C693 1.363 . S
C689 H660 0.950 . S
C689 C688 1.397 . S
C689 C690 1.334 . S
C690 H661 0.950 . S
C690 C689 1.334 . S
C690 C691 1.287 . S
C691 C690 1.287 . S
C691 C692 1.524 . S
C691 H694 0.999 . S
C692 H662 0.950 . S
C692 C691 1.524 . S
C692 C693 1.415 . S
C693 H663 0.950 . S
C693 C688 1.363 . S
C693 C692 1.415 . S
H694 C691 0.999 . S
H695 C676 0.913 . S
H696 C714 0.951 . S
H697 C716 0.951 . S
H698 C718 0.950 . S
H699 C719 0.950 . S
H700 C721 0.950 . S
H701 C724 0.950 . S
H702 C725 0.950 . S
H703 C727 0.950 . S
H704 C728 0.950 . S
H705 C729 0.951 . S
H706 C731 0.951 . S
H707 C733 0.950 . S
H708 C734 0.950 . S
H709 C736 0.950 . S
H710 C739 0.950 . S
H711 C740 0.950 . S
H712 C742 0.950 . S
H713 C743 0.950 . S
C714 H696 0.951 . S
C714 C715 1.366 . S
C714 C716 1.388 . S
C715 C714 1.366 . S
C715 C719 1.385 . S
C716 H697 0.951 . S
C716 C714 1.388 . S
C716 C717 1.366 . S
C717 C716 1.366 . S
C717 C718 1.414 . S
C717 C720 1.499 . S
C718 H698 0.950 . S
C718 C717 1.414 . S
C718 C719 1.374 . S
C719 H699 0.950 . S
C719 C715 1.385 . S
C719 C718 1.374 . S
C720 C717 1.499 . S
C720 C721 1.373 . S
C720 C722 1.389 . S
C721 H700 0.950 . S
C721 C720 1.373 . S
C721 C737 1.377 . S
C722 C720 1.389 . S
C722 C723 1.524 . S
C722 C736 1.377 . S
C723 C722 1.524 . S
C723 C724 1.397 . S
C723 C728 1.363 . S
C724 H701 0.950 . S
C724 C723 1.397 . S
C724 C725 1.334 . S
C725 H702 0.950 . S
C725 C724 1.334 . S
C725 C726 1.287 . S
C726 C725 1.287 . S
C726 C727 1.524 . S
C726 H745 0.913 . S
C727 H703 0.950 . S
C727 C726 1.524 . S
C727 C728 1.415 . S
C728 H704 0.950 . S
C728 C723 1.363 . S
C728 C727 1.415 . S
C729 H705 0.951 . S
C729 C730 1.366 . S
C729 C731 1.388 . S
C730 C729 1.366 . S
C730 C734 1.385 . S
C731 H706 0.951 . S
C731 C729 1.388 . S
C731 C732 1.366 . S
C732 C731 1.366 . S
C732 C733 1.414 . S
C732 C735 1.499 . S
C733 H707 0.950 . S
C733 C732 1.414 . S
C733 C734 1.374 . S
C734 H708 0.950 . S
C734 C730 1.385 . S
C734 C733 1.374 . S
C735 C732 1.499 . S
C735 C736 1.373 . S
C735 C737 1.389 . S
C736 H709 0.950 . S
C736 C722 1.377 . S
C736 C735 1.373 . S
C737 C721 1.377 . S
C737 C735 1.389 . S
C737 C738 1.524 . S
C738 C737 1.524 . S
C738 C739 1.397 . S
C738 C743 1.363 . S
C739 H710 0.950 . S
C739 C738 1.397 . S
C739 C740 1.334 . S
C740 H711 0.950 . S
C740 C739 1.334 . S
C740 C741 1.287 . S
C741 C740 1.287 . S
C741 C742 1.524 . S
C741 H744 0.999 . S
C742 H712 0.950 . S
C742 C741 1.524 . S
C742 C743 1.415 . S
C743 H713 0.950 . S
C743 C738 1.363 . S
C743 C742 1.415 . S
H744 C741 0.999 . S
H745 C726 0.913 . S
H746 C764 0.951 . S
H747 C766 0.951 . S
H748 C768 0.950 . S
H749 C769 0.950 . S
H750 C771 0.950 . S
H751 C774 0.950 . S
H752 C775 0.950 . S
H753 C777 0.950 . S
H754 C778 0.950 . S
H755 C779 0.945 1_554 S
H756 C781 0.951 . S
H757 C783 0.950 . S
H758 C784 0.950 . S
H759 C786 0.950 . S
H760 C789 0.950 . S
H761 C790 0.950 . S
H762 C792 0.950 . S
H763 C793 0.950 . S
C764 H746 0.951 . S
C764 C765 1.366 . S
C764 C766 1.388 . S
C765 C764 1.366 . S
C765 C769 1.385 . S
C766 H747 0.951 . S
C766 C764 1.388 . S
C766 C767 1.366 . S
C767 C766 1.366 . S
C767 C768 1.414 . S
C767 C770 1.499 . S
C768 H748 0.950 . S
C768 C767 1.414 . S
C768 C769 1.374 . S
C769 H749 0.950 . S
C769 C765 1.385 . S
C769 C768 1.374 . S
C770 C767 1.499 . S
C770 C771 1.373 . S
C770 C772 1.389 . S
C771 H750 0.950 . S
C771 C770 1.373 . S
C771 C787 1.377 . S
C772 C770 1.389 . S
C772 C773 1.524 . S
C772 C786 1.377 . S
C773 C772 1.524 . S
C773 C774 1.397 . S
C773 C778 1.363 . S
C774 H751 0.950 . S
C774 C773 1.397 . S
C774 C775 1.334 . S
C775 H752 0.950 . S
C775 C774 1.334 . S
C775 C776 1.287 . S
C776 C775 1.287 . S
C776 C777 1.524 . S
C776 H795 0.913 . S
C777 H753 0.950 . S
C777 C776 1.524 . S
C777 C778 1.415 . S
C778 H754 0.950 . S
C778 C773 1.363 . S
C778 C777 1.415 . S
C779 H755 0.945 1_556 S
C779 C780 1.358 1_556 S
C779 C781 1.402 . S
C780 C779 1.358 1_554 S
C780 C784 1.385 . S
C781 H756 0.951 . S
C781 C779 1.402 . S
C781 C782 1.366 . S
C782 C781 1.366 . S
C782 C783 1.414 . S
C782 C785 1.499 . S
C783 H757 0.950 . S
C783 C782 1.414 . S
C783 C784 1.374 1_556 S
C784 H758 0.950 . S
C784 C780 1.385 . S
C784 C783 1.374 1_554 S
C785 C782 1.499 . S
C785 C786 1.373 . S
C785 C787 1.389 . S
C786 H759 0.950 . S
C786 C772 1.377 . S
C786 C785 1.373 . S
C787 C771 1.377 . S
C787 C785 1.389 . S
C787 C788 1.524 . S
C788 C787 1.524 . S
C788 C789 1.397 . S
C788 C793 1.363 . S
C789 H760 0.950 . S
C789 C788 1.397 . S
C789 C790 1.334 . S
C790 H761 0.950 . S
C790 C789 1.334 . S
C790 C791 1.287 . S
C791 C790 1.287 . S
C791 C792 1.524 . S
C791 H794 0.999 . S
C792 H762 0.950 . S
C792 C791 1.524 . S
C792 C793 1.415 . S
C793 H763 0.950 . S
C793 C788 1.363 . S
C793 C792 1.415 . S
H794 C791 0.999 . S
H795 C776 0.913 . S
H796 C814 0.951 . S
H797 C816 0.951 . S
H798 C818 0.950 . S
H799 C819 0.950 . S
H800 C821 0.950 . S
H801 C824 0.950 . S
H802 C825 0.950 . S
H803 C827 0.950 . S
H804 C828 0.950 . S
H805 C829 0.951 . S
H806 C831 0.951 . S
H807 C833 0.950 . S
H808 C834 0.950 . S
H809 C836 0.950 . S
H810 C839 0.950 . S
H811 C840 0.950 . S
H812 C842 0.950 . S
H813 C843 0.950 . S
C814 H796 0.951 . S
C814 C815 1.366 . S
C814 C816 1.388 . S
C815 C814 1.366 . S
C815 C819 1.385 . S
C816 H797 0.951 . S
C816 C814 1.388 . S
C816 C817 1.366 . S
C817 C816 1.366 . S
C817 C818 1.414 . S
C817 C820 1.499 . S
C818 H798 0.950 . S
C818 C817 1.414 . S
C818 C819 1.374 . S
C819 H799 0.950 . S
C819 C815 1.385 . S
C819 C818 1.374 . S
C820 C817 1.499 . S
C820 C821 1.373 . S
C820 C822 1.389 . S
C821 H800 0.950 . S
C821 C820 1.373 . S
C821 C837 1.377 . S
C822 C820 1.389 . S
C822 C823 1.524 . S
C822 C836 1.377 . S
C823 C822 1.524 . S
C823 C824 1.397 . S
C823 C828 1.363 . S
C824 H801 0.950 . S
C824 C823 1.397 . S
C824 C825 1.334 . S
C825 H802 0.950 . S
C825 C824 1.334 . S
C825 C826 1.287 . S
C826 C825 1.287 . S
C826 C827 1.524 . S
C826 H845 0.913 . S
C827 H803 0.950 . S
C827 C826 1.524 . S
C827 C828 1.415 . S
C828 H804 0.950 . S
C828 C823 1.363 . S
C828 C827 1.415 . S
C829 H805 0.951 . S
C829 C830 1.366 . S
C829 C831 1.388 . S
C830 C829 1.366 . S
C830 C834 1.385 . S
C831 H806 0.951 . S
C831 C829 1.388 . S
C831 C832 1.366 . S
C832 C831 1.366 . S
C832 C833 1.414 . S
C832 C835 1.499 . S
C833 H807 0.950 . S
C833 C832 1.414 . S
C833 C834 1.374 . S
C834 H808 0.950 . S
C834 C830 1.385 . S
C834 C833 1.374 . S
C835 C832 1.499 . S
C835 C836 1.373 1_554 S
C835 C837 1.389 1_554 S
C836 H809 0.950 . S
C836 C822 1.377 . S
C836 C835 1.373 1_556 S
C837 C821 1.377 . S
C837 C835 1.389 1_556 S
C837 C838 1.524 1_556 S
C838 C837 1.524 1_554 S
C838 C839 1.397 . S
C838 C843 1.363 1_554 S
C839 H810 0.950 . S
C839 C838 1.397 . S
C839 C840 1.334 . S
C840 H811 0.950 . S
C840 C839 1.334 . S
C840 C841 1.287 . S
C841 C840 1.287 . S
C841 C842 1.524 . S
C841 H844 0.999 . S
C842 H812 0.950 . S
C842 C841 1.524 . S
C842 C843 1.415 1_554 S
C843 H813 0.950 . S
C843 C838 1.363 1_556 S
C843 C842 1.415 1_556 S
H844 C841 0.999 . S
H845 C826 0.913 . S
H846 C864 0.951 . S
H847 C866 0.951 . S
H848 C868 0.950 . S
H849 C869 0.950 . S
H850 C871 0.950 . S
H851 C874 0.950 . S
H852 C875 0.950 1_556 S
H853 C877 0.950 . S
H854 C878 0.950 . S
H855 C879 0.951 . S
H856 C881 0.951 . S
H857 C883 0.950 . S
H858 C884 0.950 . S
H859 C886 0.950 . S
H860 C889 0.950 . S
H861 C890 0.950 . S
H862 C892 0.950 . S
H863 C893 0.950 . S
C864 H846 0.951 . S
C864 C865 1.366 . S
C864 C866 1.388 . S
C865 C864 1.366 . S
C865 C869 1.385 . S
C866 H847 0.951 . S
C866 C864 1.388 . S
C866 C867 1.366 . S
C867 C866 1.366 . S
C867 C868 1.414 . S
C867 C870 1.499 1_556 S
C868 H848 0.950 . S
C868 C867 1.414 . S
C868 C869 1.374 . S
C869 H849 0.950 . S
C869 C865 1.385 . S
C869 C868 1.374 . S
C870 C867 1.499 1_554 S
C870 C871 1.373 . S
C870 C872 1.389 . S
C871 H850 0.950 . S
C871 C870 1.373 . S
C871 C887 1.377 . S
C872 C870 1.389 . S
C872 C873 1.524 . S
C872 C886 1.377 . S
C873 C872 1.524 . S
C873 C874 1.397 . S
C873 C878 1.363 . S
C874 H851 0.950 . S
C874 C873 1.397 . S
C874 C875 1.334 . S
C875 H852 0.950 1_554 S
C875 C874 1.334 . S
C875 C876 1.287 . S
C876 C875 1.287 . S
C876 C877 1.524 . S
C876 H895 0.913 . S
C877 H853 0.950 . S
C877 C876 1.524 . S
C877 C878 1.415 . S
C878 H854 0.950 . S
C878 C873 1.363 . S
C878 C877 1.415 . S
C879 H855 0.951 . S
C879 C880 1.366 . S
C879 C881 1.388 . S
C880 C879 1.366 . S
C880 C884 1.385 . S
C881 H856 0.951 . S
C881 C879 1.388 . S
C881 C882 1.366 . S
C882 C881 1.366 . S
C882 C883 1.414 . S
C882 C885 1.499 . S
C883 H857 0.950 . S
C883 C882 1.414 . S
C883 C884 1.374 . S
C884 H858 0.950 . S
C884 C880 1.385 . S
C884 C883 1.374 . S
C885 C882 1.499 . S
C885 C886 1.373 . S
C885 C887 1.389 . S
C886 H859 0.950 . S
C886 C872 1.377 . S
C886 C885 1.373 . S
C887 C871 1.377 . S
C887 C885 1.389 . S
C887 C888 1.524 . S
C888 C887 1.524 . S
C888 C889 1.397 . S
C888 C893 1.363 . S
C889 H860 0.950 . S
C889 C888 1.397 . S
C889 C890 1.334 . S
C890 H861 0.950 . S
C890 C889 1.334 . S
C890 C891 1.287 . S
C891 C890 1.287 . S
C891 C892 1.524 . S
C891 H894 0.999 . S
C892 H862 0.950 . S
C892 C891 1.524 . S
C892 C893 1.415 . S
C893 H863 0.950 . S
C893 C888 1.363 . S
C893 C892 1.415 . S
H894 C891 0.999 . S
H895 C876 0.913 . S
H896 C914 0.951 . S
H897 C916 0.951 . S
H898 C918 0.950 . S
H899 C919 0.950 . S
H900 C921 0.950 . S
H901 C924 0.950 . S
H902 C925 0.950 . S
H903 C927 0.950 . S
H904 C928 0.950 . S
H905 C929 0.951 . S
H906 C931 0.951 . S
H907 C933 0.950 . S
H908 C934 0.950 . S
H909 C936 0.950 . S
H910 C939 0.950 . S
H911 C940 0.950 . S
H912 C942 0.950 . S
H913 C943 0.950 . S
C914 H896 0.951 . S
C914 C915 1.366 . S
C914 C916 1.388 . S
C915 C914 1.366 . S
C915 C919 1.385 . S
C916 H897 0.951 . S
C916 C914 1.388 . S
C916 C917 1.366 . S
C917 C916 1.366 . S
C917 C918 1.414 . S
C917 C920 1.499 . S
C918 H898 0.950 . S
C918 C917 1.414 . S
C918 C919 1.374 . S
C919 H899 0.950 . S
C919 C915 1.385 . S
C919 C918 1.374 . S
C920 C917 1.499 . S
C920 C921 1.373 . S
C920 C922 1.389 . S
C921 H900 0.950 . S
C921 C920 1.373 . S
C921 C937 1.377 . S
C922 C920 1.389 . S
C922 C923 1.524 . S
C922 C936 1.377 . S
C923 C922 1.524 . S
C923 C924 1.397 . S
C923 C928 1.363 . S
C924 H901 0.950 . S
C924 C923 1.397 . S
C924 C925 1.334 . S
C925 H902 0.950 . S
C925 C924 1.334 . S
C925 C926 1.287 . S
C926 C925 1.287 . S
C926 C927 1.524 . S
C926 H945 0.913 . S
C927 H903 0.950 . S
C927 C926 1.524 . S
C927 C928 1.415 . S
C928 H904 0.950 . S
C928 C923 1.363 . S
C928 C927 1.415 . S
C929 H905 0.951 . S
C929 C930 1.366 . S
C929 C931 1.388 . S
C930 C929 1.366 . S
C930 C934 1.385 . S
C931 H906 0.951 . S
C931 C929 1.388 . S
C931 C932 1.366 . S
C932 C931 1.366 . S
C932 C933 1.414 . S
C932 C935 1.499 . S
C933 H907 0.950 . S
C933 C932 1.414 . S
C933 C934 1.374 . S
C934 H908 0.950 . S
C934 C930 1.385 . S
C934 C933 1.374 . S
C935 C932 1.499 . S
C935 C936 1.373 . S
C935 C937 1.389 . S
C936 H909 0.950 . S
C936 C922 1.377 . S
C936 C935 1.373 . S
C937 C921 1.377 . S
C937 C935 1.389 . S
C937 C938 1.524 . S
C938 C937 1.524 . S
C938 C939 1.397 . S
C938 C943 1.363 . S
C939 H910 0.950 . S
C939 C938 1.397 . S
C939 C940 1.334 . S
C940 H911 0.950 . S
C940 C939 1.334 . S
C940 C941 1.287 . S
C941 C940 1.287 . S
C941 C942 1.524 . S
C941 H944 0.999 . S
C942 H912 0.950 . S
C942 C941 1.524 . S
C942 C943 1.415 . S
C943 H913 0.950 . S
C943 C938 1.363 . S
C943 C942 1.415 . S
H944 C941 0.999 . S
H945 C926 0.913 . S
H946 C964 0.951 . S
H947 C966 0.951 . S
H948 C968 0.950 . S
H949 C969 0.950 . S
H950 C971 0.950 . S
H951 C974 0.950 . S
H952 C975 0.950 . S
H953 C977 0.950 . S
H954 C978 0.950 . S
H955 C979 0.951 . S
H956 C981 0.951 . S
H957 C983 0.950 . S
H958 C984 0.950 . S
H959 C986 0.950 . S
H960 C989 0.950 . S
H961 C990 0.950 . S
H962 C992 0.950 . S
H963 C993 0.950 . S
C964 H946 0.951 . S
C964 C965 1.366 . S
C964 C966 1.388 . S
C965 C964 1.366 . S
C965 C969 1.385 . S
C966 H947 0.951 . S
C966 C964 1.388 . S
C966 C967 1.366 . S
C967 C966 1.366 . S
C967 C968 1.414 . S
C967 C970 1.499 . S
C968 H948 0.950 . S
C968 C967 1.414 . S
C968 C969 1.374 . S
C969 H949 0.950 . S
C969 C965 1.385 . S
C969 C968 1.374 . S
C970 C967 1.499 . S
C970 C971 1.373 . S
C970 C972 1.389 . S
C971 H950 0.950 . S
C971 C970 1.373 . S
C971 C987 1.377 . S
C972 C970 1.389 . S
C972 C973 1.524 . S
C972 C986 1.377 . S
C973 C972 1.524 . S
C973 C974 1.397 . S
C973 C978 1.363 . S
C974 H951 0.950 . S
C974 C973 1.397 . S
C974 C975 1.334 . S
C975 H952 0.950 . S
C975 C974 1.334 . S
C975 C976 1.287 . S
C976 C975 1.287 . S
C976 C977 1.524 . S
C976 H995 0.913 . S
C977 H953 0.950 . S
C977 C976 1.524 . S
C977 C978 1.415 . S
C978 H954 0.950 . S
C978 C973 1.363 . S
C978 C977 1.415 . S
C979 H955 0.951 . S
C979 C980 1.366 . S
C979 C981 1.388 . S
C980 C979 1.366 . S
C980 C984 1.385 . S
C981 H956 0.951 . S
C981 C979 1.388 . S
C981 C982 1.366 . S
C982 C981 1.366 . S
C982 C983 1.414 . S
C982 C985 1.499 . S
C983 H957 0.950 . S
C983 C982 1.414 . S
C983 C984 1.374 . S
C984 H958 0.950 . S
C984 C980 1.385 . S
C984 C983 1.374 . S
C985 C982 1.499 . S
C985 C986 1.373 . S
C985 C987 1.389 . S
C986 H959 0.950 . S
C986 C972 1.377 . S
C986 C985 1.373 . S
C987 C971 1.377 . S
C987 C985 1.389 . S
C987 C988 1.524 . S
C988 C987 1.524 . S
C988 C989 1.397 . S
C988 C993 1.363 . S
C989 H960 0.950 . S
C989 C988 1.397 . S
C989 C990 1.334 . S
C990 H961 0.950 . S
C990 C989 1.334 . S
C990 C991 1.287 . S
C991 C990 1.287 . S
C991 C992 1.524 . S
C991 H994 0.999 . S
C992 H962 0.950 . S
C992 C991 1.524 . S
C992 C993 1.415 . S
C993 H963 0.950 . S
C993 C988 1.363 . S
C993 C992 1.415 . S
H994 C991 0.999 . S
H995 C976 0.913 . S
H996 C1014 0.951 . S
H997 C1016 0.951 . S
H998 C1018 0.950 . S
H999 C1019 0.950 . S
H1000 C1021 0.950 . S
H1001 C1024 0.950 . S
H1002 C1025 0.950 . S
H1003 C1027 0.950 . S
H1004 C1028 0.950 . S
H1005 C1029 0.951 . S
H1006 C1031 0.951 . S
H1007 C1033 0.950 . S
H1008 C1034 0.950 . S
H1009 C1036 0.950 . S
H1010 C1039 0.950 . S
H1011 C1040 0.950 . S
H1012 C1042 0.950 . S
H1013 C1043 0.950 . S
C1014 H996 0.951 . S
C1014 C1015 1.366 . S
C1014 C1016 1.388 1_556 S
C1015 C1014 1.366 . S
C1015 C1019 1.385 . S
C1016 H997 0.951 . S
C1016 C1014 1.388 1_554 S
C1016 C1017 1.366 . S
C1017 C1016 1.366 . S
C1017 C1018 1.414 . S
C1017 C1020 1.499 . S
C1018 H998 0.950 . S
C1018 C1017 1.414 . S
C1018 C1019 1.374 1_554 S
C1019 H999 0.950 . S
C1019 C1015 1.385 . S
C1019 C1018 1.374 1_556 S
C1020 C1017 1.499 . S
C1020 C1021 1.373 . S
C1020 C1022 1.389 . S
C1021 H1000 0.950 . S
C1021 C1020 1.373 . S
C1021 C1037 1.377 . S
C1022 C1020 1.389 . S
C1022 C1023 1.524 . S
C1022 C1036 1.377 . S
C1023 C1022 1.524 . S
C1023 C1024 1.397 . S
C1023 C1028 1.363 . S
C1024 H1001 0.950 . S
C1024 C1023 1.397 . S
C1024 C1025 1.334 . S
C1025 H1002 0.950 . S
C1025 C1024 1.334 . S
C1025 C1026 1.287 . S
C1026 C1025 1.287 . S
C1026 C1027 1.524 . S
C1026 H1045 0.913 . S
C1027 H1003 0.950 . S
C1027 C1026 1.524 . S
C1027 C1028 1.415 . S
C1028 H1004 0.950 . S
C1028 C1023 1.363 . S
C1028 C1027 1.415 . S
C1029 H1005 0.951 . S
C1029 C1030 1.366 . S
C1029 C1031 1.388 . S
C1030 C1029 1.366 . S
C1030 C1034 1.385 . S
C1031 H1006 0.951 . S
C1031 C1029 1.388 . S
C1031 C1032 1.366 . S
C1032 C1031 1.366 . S
C1032 C1033 1.414 . S
C1032 C1035 1.499 . S
C1033 H1007 0.950 . S
C1033 C1032 1.414 . S
C1033 C1034 1.374 . S
C1034 H1008 0.950 . S
C1034 C1030 1.385 . S
C1034 C1033 1.374 . S
C1035 C1032 1.499 . S
C1035 C1036 1.373 . S
C1035 C1037 1.389 . S
C1036 H1009 0.950 . S
C1036 C1022 1.377 . S
C1036 C1035 1.373 . S
C1037 C1021 1.377 . S
C1037 C1035 1.389 . S
C1037 C1038 1.524 . S
C1038 C1037 1.524 . S
C1038 C1039 1.397 . S
C1038 C1043 1.363 . S
C1039 H1010 0.950 . S
C1039 C1038 1.397 . S
C1039 C1040 1.334 . S
C1040 H1011 0.950 . S
C1040 C1039 1.334 . S
C1040 C1041 1.287 . S
C1041 C1040 1.287 . S
C1041 C1042 1.524 . S
C1041 H1044 0.999 . S
C1042 H1012 0.950 . S
C1042 C1041 1.524 . S
C1042 C1043 1.415 . S
C1043 H1013 0.950 . S
C1043 C1038 1.363 . S
C1043 C1042 1.415 . S
H1044 C1041 0.999 . S
H1045 C1026 0.913 . S
H1046 C1064 0.951 . S
H1047 C1066 0.951 . S
H1048 C1068 0.950 . S
H1049 C1069 0.950 . S
H1050 C1071 0.950 . S
H1051 C1074 0.950 . S
H1052 C1075 0.950 . S
H1053 C1077 0.950 . S
H1054 C1078 0.950 . S
H1055 C1079 0.951 . S
H1056 C1081 0.951 . S
H1057 C1083 0.950 . S
H1058 C1084 0.950 . S
H1059 C1086 0.950 . S
H1060 C1089 0.950 . S
H1061 C1090 0.950 . S
H1062 C1092 0.950 . S
H1063 C1093 0.950 . S
C1064 H1046 0.951 . S
C1064 C1065 1.366 . S
C1064 C1066 1.388 . S
C1065 C1064 1.366 . S
C1065 C1069 1.385 . S
C1066 H1047 0.951 . S
C1066 C1064 1.388 . S
C1066 C1067 1.366 . S
C1067 C1066 1.366 . S
C1067 C1068 1.414 . S
C1067 C1070 1.499 . S
C1068 H1048 0.950 . S
C1068 C1067 1.414 . S
C1068 C1069 1.374 . S
C1069 H1049 0.950 . S
C1069 C1065 1.385 . S
C1069 C1068 1.374 . S
C1070 C1067 1.499 . S
C1070 C1071 1.373 . S
C1070 C1072 1.389 . S
C1071 H1050 0.950 . S
C1071 C1070 1.373 . S
C1071 C1087 1.377 . S
C1072 C1070 1.389 . S
C1072 C1073 1.524 . S
C1072 C1086 1.377 . S
C1073 C1072 1.524 . S
C1073 C1074 1.397 . S
C1073 C1078 1.363 . S
C1074 H1051 0.950 . S
C1074 C1073 1.397 . S
C1074 C1075 1.334 . S
C1075 H1052 0.950 . S
C1075 C1074 1.334 . S
C1075 C1076 1.287 . S
C1076 C1075 1.287 . S
C1076 C1077 1.524 . S
C1076 H1095 0.913 . S
C1077 H1053 0.950 . S
C1077 C1076 1.524 . S
C1077 C1078 1.415 . S
C1078 H1054 0.950 . S
C1078 C1073 1.363 . S
C1078 C1077 1.415 . S
C1079 H1055 0.951 . S
C1079 C1080 1.366 . S
C1079 C1081 1.388 . S
C1080 C1079 1.366 . S
C1080 C1084 1.385 . S
C1081 H1056 0.951 . S
C1081 C1079 1.388 . S
C1081 C1082 1.366 . S
C1082 C1081 1.366 . S
C1082 C1083 1.414 . S
C1082 C1085 1.499 . S
C1083 H1057 0.950 . S
C1083 C1082 1.414 . S
C1083 C1084 1.374 . S
C1084 H1058 0.950 . S
C1084 C1080 1.385 . S
C1084 C1083 1.374 . S
C1085 C1082 1.499 . S
C1085 C1086 1.373 . S
C1085 C1087 1.389 . S
C1086 H1059 0.950 . S
C1086 C1072 1.377 . S
C1086 C1085 1.373 . S
C1087 C1071 1.377 . S
C1087 C1085 1.389 . S
C1087 C1088 1.524 . S
C1088 C1087 1.524 . S
C1088 C1089 1.397 . S
C1088 C1093 1.363 . S
C1089 H1060 0.950 . S
C1089 C1088 1.397 . S
C1089 C1090 1.334 . S
C1090 H1061 0.950 . S
C1090 C1089 1.334 . S
C1090 C1091 1.287 . S
C1091 C1090 1.287 . S
C1091 C1092 1.524 . S
C1091 H1094 0.999 . S
C1092 H1062 0.950 . S
C1092 C1091 1.524 . S
C1092 C1093 1.415 . S
C1093 H1063 0.950 . S
C1093 C1088 1.363 . S
C1093 C1092 1.415 . S
H1094 C1091 0.999 . S
H1095 C1076 0.913 . S
H1096 C1114 0.951 . S
H1097 C1116 0.951 . S
H1098 C1118 0.950 . S
H1099 C1119 0.950 . S
H1100 C1121 0.950 . S
H1101 C1124 0.950 . S
H1102 C1125 0.950 . S
H1103 C1127 0.950 . S
H1104 C1128 0.950 . S
H1105 C1129 0.951 . S
H1106 C1131 0.951 . S
H1107 C1133 0.950 . S
H1108 C1134 0.950 . S
H1109 C1136 0.950 . S
H1110 C1139 0.950 . S
H1111 C1140 0.950 . S
H1112 C1142 0.950 . S
H1113 C1143 0.950 . S
C1114 H1096 0.951 . S
C1114 C1115 1.366 . S
C1114 C1116 1.388 . S
C1115 C1114 1.366 . S
C1115 C1119 1.385 . S
C1116 H1097 0.951 . S
C1116 C1114 1.388 . S
C1116 C1117 1.366 . S
C1117 C1116 1.366 . S
C1117 C1118 1.414 . S
C1117 C1120 1.499 . S
C1118 H1098 0.950 . S
C1118 C1117 1.414 . S
C1118 C1119 1.374 . S
C1119 H1099 0.950 . S
C1119 C1115 1.385 . S
C1119 C1118 1.374 . S
C1120 C1117 1.499 . S
C1120 C1121 1.373 . S
C1120 C1122 1.389 . S
C1121 H1100 0.950 . S
C1121 C1120 1.373 . S
C1121 C1137 1.377 . S
C1122 C1120 1.389 . S
C1122 C1123 1.524 . S
C1122 C1136 1.377 . S
C1123 C1122 1.524 . S
C1123 C1124 1.397 . S
C1123 C1128 1.363 . S
C1124 H1101 0.950 . S
C1124 C1123 1.397 . S
C1124 C1125 1.334 . S
C1125 H1102 0.950 . S
C1125 C1124 1.334 . S
C1125 C1126 1.287 . S
C1126 C1125 1.287 . S
C1126 C1127 1.524 . S
C1126 H1145 0.913 . S
C1127 H1103 0.950 . S
C1127 C1126 1.524 . S
C1127 C1128 1.415 . S
C1128 H1104 0.950 . S
C1128 C1123 1.363 . S
C1128 C1127 1.415 . S
C1129 H1105 0.951 . S
C1129 C1130 1.366 . S
C1129 C1131 1.388 . S
C1130 C1129 1.366 . S
C1130 C1134 1.385 . S
C1131 H1106 0.951 . S
C1131 C1129 1.388 . S
C1131 C1132 1.366 . S
C1132 C1131 1.366 . S
C1132 C1133 1.414 . S
C1132 C1135 1.499 . S
C1133 H1107 0.950 . S
C1133 C1132 1.414 . S
C1133 C1134 1.374 . S
C1134 H1108 0.950 . S
C1134 C1130 1.385 . S
C1134 C1133 1.374 . S
C1135 C1132 1.499 . S
C1135 C1136 1.373 . S
C1135 C1137 1.389 . S
C1136 H1109 0.950 . S
C1136 C1122 1.377 . S
C1136 C1135 1.373 . S
C1137 C1121 1.377 . S
C1137 C1135 1.389 . S
C1137 C1138 1.524 . S
C1138 C1137 1.524 . S
C1138 C1139 1.397 . S
C1138 C1143 1.363 . S
C1139 H1110 0.950 . S
C1139 C1138 1.397 . S
C1139 C1140 1.334 . S
C1140 H1111 0.950 . S
C1140 C1139 1.334 . S
C1140 C1141 1.287 . S
C1141 C1140 1.287 . S
C1141 C1142 1.524 . S
C1141 H1144 0.999 . S
C1142 H1112 0.950 . S
C1142 C1141 1.524 . S
C1142 C1143 1.415 . S
C1143 H1113 0.950 . S
C1143 C1138 1.363 . S
C1143 C1142 1.415 . S
H1144 C1141 0.999 . S
H1145 C1126 0.913 . S
H1146 C1164 0.951 . S
H1147 C1166 0.951 . S
H1148 C1168 0.950 . S
H1149 C1169 0.950 . S
H1150 C1171 0.950 . S
H1151 C1174 0.950 . S
H1152 C1175 0.950 . S
H1153 C1177 0.950 . S
H1154 C1178 0.950 . S
H1155 C1179 0.951 . S
H1156 C1181 0.951 . S
H1157 C1183 0.950 . S
H1158 C1184 0.950 . S
H1159 C1186 0.950 . S
H1160 C1189 0.950 . S
H1161 C1190 0.950 . S
H1162 C1192 0.950 . S
H1163 C1193 0.950 . S
C1164 H1146 0.951 . S
C1164 C1165 1.366 . S
C1164 C1166 1.388 . S
C1165 C1164 1.366 . S
C1165 C1169 1.385 . S
C1166 H1147 0.951 . S
C1166 C1164 1.388 . S
C1166 C1167 1.366 . S
C1167 C1166 1.366 . S
C1167 C1168 1.414 . S
C1167 C1170 1.499 . S
C1168 H1148 0.950 . S
C1168 C1167 1.414 . S
C1168 C1169 1.374 . S
C1169 H1149 0.950 . S
C1169 C1165 1.385 . S
C1169 C1168 1.374 . S
C1170 C1167 1.499 . S
C1170 C1171 1.373 . S
C1170 C1172 1.389 . S
C1171 H1150 0.950 . S
C1171 C1170 1.373 . S
C1171 C1187 1.377 . S
C1172 C1170 1.389 . S
C1172 C1173 1.524 . S
C1172 C1186 1.377 . S
C1173 C1172 1.524 . S
C1173 C1174 1.397 . S
C1173 C1178 1.363 . S
C1174 H1151 0.950 . S
C1174 C1173 1.397 . S
C1174 C1175 1.334 . S
C1175 H1152 0.950 . S
C1175 C1174 1.334 . S
C1175 C1176 1.287 . S
C1176 C1175 1.287 . S
C1176 C1177 1.524 . S
C1176 H1195 0.913 . S
C1177 H1153 0.950 . S
C1177 C1176 1.524 . S
C1177 C1178 1.415 . S
C1178 H1154 0.950 . S
C1178 C1173 1.363 . S
C1178 C1177 1.415 . S
C1179 H1155 0.951 . S
C1179 C1180 1.366 . S
C1179 C1181 1.388 . S
C1180 C1179 1.366 . S
C1180 C1184 1.385 . S
C1181 H1156 0.951 . S
C1181 C1179 1.388 . S
C1181 C1182 1.366 . S
C1182 C1181 1.366 . S
C1182 C1183 1.414 . S
C1182 C1185 1.499 . S
C1183 H1157 0.950 . S
C1183 C1182 1.414 . S
C1183 C1184 1.374 . S
C1184 H1158 0.950 . S
C1184 C1180 1.385 . S
C1184 C1183 1.374 . S
C1185 C1182 1.499 . S
C1185 C1186 1.373 . S
C1185 C1187 1.389 . S
C1186 H1159 0.950 . S
C1186 C1172 1.377 . S
C1186 C1185 1.373 . S
C1187 C1171 1.377 . S
C1187 C1185 1.389 . S
C1187 C1188 1.524 . S
C1188 C1187 1.524 . S
C1188 C1189 1.397 . S
C1188 C1193 1.363 . S
C1189 H1160 0.950 . S
C1189 C1188 1.397 . S
C1189 C1190 1.334 . S
C1190 H1161 0.950 . S
C1190 C1189 1.334 . S
C1190 C1191 1.287 . S
C1191 C1190 1.287 . S
C1191 C1192 1.524 . S
C1191 H1194 0.999 . S
C1192 H1162 0.950 . S
C1192 C1191 1.524 . S
C1192 C1193 1.415 . S
C1193 H1163 0.950 . S
C1193 C1188 1.363 . S
C1193 C1192 1.415 . S
H1194 C1191 0.999 . S
H1195 C1176 0.913 . S
H1196 C1214 0.951 . S
H1197 C1216 0.951 . S
H1198 C1218 0.950 . S
H1199 C1219 0.950 . S
H1200 C1221 0.950 . S
H1201 C1224 0.950 . S
H1202 C1225 0.950 . S
H1203 C1227 0.950 . S
H1204 C1228 0.950 . S
H1205 C1229 0.951 . S
H1206 C1231 0.951 . S
H1207 C1233 0.950 . S
H1208 C1234 0.950 . S
H1209 C1236 0.950 . S
H1210 C1239 0.950 . S
H1211 C1240 0.950 1_554 S
H1212 C1242 0.950 . S
H1213 C1243 0.950 . S
C1214 H1196 0.951 . S
C1214 C1215 1.366 . S
C1214 C1216 1.388 . S
C1215 C1214 1.366 . S
C1215 C1219 1.385 . S
C1216 H1197 0.951 . S
C1216 C1214 1.388 . S
C1216 C1217 1.366 . S
C1217 C1216 1.366 . S
C1217 C1218 1.414 . S
C1217 C1220 1.499 . S
C1218 H1198 0.950 . S
C1218 C1217 1.414 . S
C1218 C1219 1.374 . S
C1219 H1199 0.950 . S
C1219 C1215 1.385 . S
C1219 C1218 1.374 . S
C1220 C1217 1.499 . S
C1220 C1221 1.373 . S
C1220 C1222 1.389 . S
C1221 H1200 0.950 . S
C1221 C1220 1.373 . S
C1221 C1237 1.377 . S
C1222 C1220 1.389 . S
C1222 C1223 1.524 . S
C1222 C1236 1.377 . S
C1223 C1222 1.524 . S
C1223 C1224 1.397 . S
C1223 C1228 1.363 . S
C1224 H1201 0.950 . S
C1224 C1223 1.397 . S
C1224 C1225 1.334 . S
C1225 H1202 0.950 . S
C1225 C1224 1.334 . S
C1225 C1226 1.287 . S
C1226 C1225 1.287 . S
C1226 C1227 1.524 . S
C1226 H1245 0.913 . S
C1227 H1203 0.950 . S
C1227 C1226 1.524 . S
C1227 C1228 1.415 . S
C1228 H1204 0.950 . S
C1228 C1223 1.363 . S
C1228 C1227 1.415 . S
C1229 H1205 0.951 . S
C1229 C1230 1.366 . S
C1229 C1231 1.388 . S
C1230 C1229 1.366 . S
C1230 C1234 1.385 . S
C1231 H1206 0.951 . S
C1231 C1229 1.388 . S
C1231 C1232 1.366 . S
C1232 C1231 1.366 . S
C1232 C1233 1.414 . S
C1232 C1235 1.499 1_554 S
C1233 H1207 0.950 . S
C1233 C1232 1.414 . S
C1233 C1234 1.374 . S
C1234 H1208 0.950 . S
C1234 C1230 1.385 . S
C1234 C1233 1.374 . S
C1235 C1232 1.499 1_556 S
C1235 C1236 1.373 . S
C1235 C1237 1.389 . S
C1236 H1209 0.950 . S
C1236 C1222 1.377 . S
C1236 C1235 1.373 . S
C1237 C1221 1.377 . S
C1237 C1235 1.389 . S
C1237 C1238 1.524 . S
C1238 C1237 1.524 . S
C1238 C1239 1.397 . S
C1238 C1243 1.363 . S
C1239 H1210 0.950 . S
C1239 C1238 1.397 . S
C1239 C1240 1.334 . S
C1240 H1211 0.950 1_556 S
C1240 C1239 1.334 . S
C1240 C1241 1.287 . S
C1241 C1240 1.287 . S
C1241 C1242 1.524 . S
C1241 H1244 0.999 . S
C1242 H1212 0.950 . S
C1242 C1241 1.524 . S
C1242 C1243 1.415 . S
C1243 H1213 0.950 . S
C1243 C1238 1.363 . S
C1243 C1242 1.415 . S
H1244 C1241 0.999 . S
H1245 C1226 0.913 . S
H1246 C1264 0.951 . S
H1247 C1266 0.951 . S
H1248 C1268 0.950 . S
H1249 C1269 0.950 . S
H1250 C1271 0.950 . S
H1251 C1274 0.950 . S
H1252 C1275 0.950 . S
H1253 C1277 0.950 . S
H1254 C1278 0.950 . S
H1255 C1279 0.951 . S
H1256 C1281 0.951 . S
H1257 C1283 0.950 . S
H1258 C1284 0.950 . S
H1259 C1286 0.950 1_556 S
H1260 C1289 0.950 . S
H1261 C1290 0.950 . S
H1262 C1292 0.950 . S
H1263 C1293 0.950 . S
C1264 H1246 0.951 . S
C1264 C1265 1.366 . S
C1264 C1266 1.388 . S
C1265 C1264 1.366 . S
C1265 C1269 1.385 . S
C1266 H1247 0.951 . S
C1266 C1264 1.388 . S
C1266 C1267 1.366 . S
C1267 C1266 1.366 . S
C1267 C1268 1.414 . S
C1267 C1270 1.499 . S
C1268 H1248 0.950 . S
C1268 C1267 1.414 . S
C1268 C1269 1.374 . S
C1269 H1249 0.950 . S
C1269 C1265 1.385 . S
C1269 C1268 1.374 . S
C1270 C1267 1.499 . S
C1270 C1271 1.373 . S
C1270 C1272 1.389 . S
C1271 H1250 0.950 . S
C1271 C1270 1.373 . S
C1271 C1287 1.377 . S
C1272 C1270 1.389 . S
C1272 C1273 1.524 . S
C1272 C1286 1.377 . S
C1273 C1272 1.524 . S
C1273 C1274 1.397 . S
C1273 C1278 1.363 . S
C1274 H1251 0.950 . S
C1274 C1273 1.397 . S
C1274 C1275 1.334 . S
C1275 H1252 0.950 . S
C1275 C1274 1.334 . S
C1275 C1276 1.287 . S
C1276 C1275 1.287 . S
C1276 C1277 1.524 . S
C1276 H1295 0.913 . S
C1277 H1253 0.950 . S
C1277 C1276 1.524 . S
C1277 C1278 1.415 . S
C1278 H1254 0.950 . S
C1278 C1273 1.363 . S
C1278 C1277 1.415 . S
C1279 H1255 0.951 . S
C1279 C1280 1.366 . S
C1279 C1281 1.388 . S
C1280 C1279 1.366 . S
C1280 C1284 1.385 . S
C1281 H1256 0.951 . S
C1281 C1279 1.388 . S
C1281 C1282 1.366 . S
C1282 C1281 1.366 . S
C1282 C1283 1.414 . S
C1282 C1285 1.499 . S
C1283 H1257 0.950 . S
C1283 C1282 1.414 . S
C1283 C1284 1.374 . S
C1284 H1258 0.950 . S
C1284 C1280 1.385 . S
C1284 C1283 1.374 . S
C1285 C1282 1.499 . S
C1285 C1286 1.373 1_556 S
C1285 C1287 1.389 1_556 S
C1286 H1259 0.950 1_554 S
C1286 C1272 1.377 . S
C1286 C1285 1.373 1_554 S
C1287 C1271 1.377 . S
C1287 C1285 1.389 1_554 S
C1287 C1288 1.524 . S
C1288 C1287 1.524 . S
C1288 C1289 1.397 1_554 S
C1288 C1293 1.363 . S
C1289 H1260 0.950 . S
C1289 C1288 1.397 1_556 S
C1289 C1290 1.334 . S
C1290 H1261 0.950 . S
C1290 C1289 1.334 . S
C1290 C1291 1.287 . S
C1291 C1290 1.287 . S
C1291 C1292 1.524 1_556 S
C1291 H1294 0.999 . S
C1292 H1262 0.950 . S
C1292 C1291 1.524 1_554 S
C1292 C1293 1.415 . S
C1293 H1263 0.950 . S
C1293 C1288 1.363 . S
C1293 C1292 1.415 . S
H1294 C1291 0.999 . S
H1295 C1276 0.913 . S
H1296 C1314 0.951 . S
H1297 C1316 0.951 . S
H1298 C1318 0.950 . S
H1299 C1319 0.950 . S
H1300 C1321 0.950 . S
H1301 C1324 0.950 . S
H1302 C1325 0.950 . S
H1303 C1327 0.950 . S
H1304 C1328 0.950 . S
H1305 C1329 0.951 . S
H1306 C1331 0.951 . S
H1307 C1333 0.950 . S
H1308 C1334 0.950 . S
H1309 C1336 0.950 . S
H1310 C1339 0.950 . S
H1311 C1340 0.950 . S
H1312 C1342 0.950 . S
H1313 C1343 0.950 . S
C1314 H1296 0.951 . S
C1314 C1315 1.366 . S
C1314 C1316 1.388 . S
C1315 C1314 1.366 . S
C1315 C1319 1.385 . S
C1316 H1297 0.951 . S
C1316 C1314 1.388 . S
C1316 C1317 1.366 . S
C1317 C1316 1.366 . S
C1317 C1318 1.414 . S
C1317 C1320 1.499 . S
C1318 H1298 0.950 . S
C1318 C1317 1.414 . S
C1318 C1319 1.374 . S
C1319 H1299 0.950 . S
C1319 C1315 1.385 . S
C1319 C1318 1.374 . S
C1320 C1317 1.499 . S
C1320 C1321 1.373 . S
C1320 C1322 1.389 . S
C1321 H1300 0.950 . S
C1321 C1320 1.373 . S
C1321 C1337 1.377 . S
C1322 C1320 1.389 . S
C1322 C1323 1.524 . S
C1322 C1336 1.377 . S
C1323 C1322 1.524 . S
C1323 C1324 1.397 . S
C1323 C1328 1.363 . S
C1324 H1301 0.950 . S
C1324 C1323 1.397 . S
C1324 C1325 1.334 . S
C1325 H1302 0.950 . S
C1325 C1324 1.334 . S
C1325 C1326 1.287 . S
C1326 C1325 1.287 . S
C1326 C1327 1.524 . S
C1326 H1345 0.913 . S
C1327 H1303 0.950 . S
C1327 C1326 1.524 . S
C1327 C1328 1.415 . S
C1328 H1304 0.950 . S
C1328 C1323 1.363 . S
C1328 C1327 1.415 . S
C1329 H1305 0.951 . S
C1329 C1330 1.366 . S
C1329 C1331 1.388 . S
C1330 C1329 1.366 . S
C1330 C1334 1.385 . S
C1331 H1306 0.951 . S
C1331 C1329 1.388 . S
C1331 C1332 1.366 . S
C1332 C1331 1.366 . S
C1332 C1333 1.414 . S
C1332 C1335 1.499 . S
C1333 H1307 0.950 . S
C1333 C1332 1.414 . S
C1333 C1334 1.374 . S
C1334 H1308 0.950 . S
C1334 C1330 1.385 . S
C1334 C1333 1.374 . S
C1335 C1332 1.499 . S
C1335 C1336 1.373 . S
C1335 C1337 1.389 . S
C1336 H1309 0.950 . S
C1336 C1322 1.377 . S
C1336 C1335 1.373 . S
C1337 C1321 1.377 . S
C1337 C1335 1.389 . S
C1337 C1338 1.524 . S
C1338 C1337 1.524 . S
C1338 C1339 1.397 . S
C1338 C1343 1.363 . S
C1339 H1310 0.950 . S
C1339 C1338 1.397 . S
C1339 C1340 1.334 . S
C1340 H1311 0.950 . S
C1340 C1339 1.334 . S
C1340 C1341 1.287 . S
C1341 C1340 1.287 . S
C1341 C1342 1.524 . S
C1341 H1344 0.999 . S
C1342 H1312 0.950 . S
C1342 C1341 1.524 . S
C1342 C1343 1.415 . S
C1343 H1313 0.950 . S
C1343 C1338 1.363 . S
C1343 C1342 1.415 . S
H1344 C1341 0.999 . S
H1345 C1326 0.913 . S
H1346 C1364 0.951 . S
H1347 C1366 0.951 . S
H1348 C1368 0.950 . S
H1349 C1369 0.950 . S
H1350 C1371 0.950 . S
H1351 C1374 0.950 . S
H1352 C1375 0.950 . S
H1353 C1377 0.950 . S
H1354 C1378 0.950 . S
H1355 C1379 0.951 . S
H1356 C1381 0.951 . S
H1357 C1383 0.950 . S
H1358 C1384 0.950 . S
H1359 C1386 0.950 . S
H1360 C1389 0.950 . S
H1361 C1390 0.950 . S
H1362 C1392 0.950 . S
H1363 C1393 0.950 . S
C1364 H1346 0.951 . S
C1364 C1365 1.366 . S
C1364 C1366 1.388 . S
C1365 C1364 1.366 . S
C1365 C1369 1.385 . S
C1366 H1347 0.951 . S
C1366 C1364 1.388 . S
C1366 C1367 1.366 . S
C1367 C1366 1.366 . S
C1367 C1368 1.414 . S
C1367 C1370 1.499 . S
C1368 H1348 0.950 . S
C1368 C1367 1.414 . S
C1368 C1369 1.374 . S
C1369 H1349 0.950 . S
C1369 C1365 1.385 . S
C1369 C1368 1.374 . S
C1370 C1367 1.499 . S
C1370 C1371 1.373 . S
C1370 C1372 1.389 . S
C1371 H1350 0.950 . S
C1371 C1370 1.373 . S
C1371 C1387 1.377 . S
C1372 C1370 1.389 . S
C1372 C1373 1.524 . S
C1372 C1386 1.377 . S
C1373 C1372 1.524 . S
C1373 C1374 1.397 . S
C1373 C1378 1.363 . S
C1374 H1351 0.950 . S
C1374 C1373 1.397 . S
C1374 C1375 1.334 . S
C1375 H1352 0.950 . S
C1375 C1374 1.334 . S
C1375 C1376 1.287 . S
C1376 C1375 1.287 . S
C1376 C1377 1.524 . S
C1376 H1395 0.913 . S
C1377 H1353 0.950 . S
C1377 C1376 1.524 . S
C1377 C1378 1.415 . S
C1378 H1354 0.950 . S
C1378 C1373 1.363 . S
C1378 C1377 1.415 . S
C1379 H1355 0.951 . S
C1379 C1380 1.366 . S
C1379 C1381 1.388 . S
C1380 C1379 1.366 . S
C1380 C1384 1.385 . S
C1381 H1356 0.951 . S
C1381 C1379 1.388 . S
C1381 C1382 1.366 . S
C1382 C1381 1.366 . S
C1382 C1383 1.414 . S
C1382 C1385 1.499 . S
C1383 H1357 0.950 . S
C1383 C1382 1.414 . S
C1383 C1384 1.374 . S
C1384 H1358 0.950 . S
C1384 C1380 1.385 . S
C1384 C1383 1.374 . S
C1385 C1382 1.499 . S
C1385 C1386 1.373 . S
C1385 C1387 1.389 . S
C1386 H1359 0.950 . S
C1386 C1372 1.377 . S
C1386 C1385 1.373 . S
C1387 C1371 1.377 . S
C1387 C1385 1.389 . S
C1387 C1388 1.524 . S
C1388 C1387 1.524 . S
C1388 C1389 1.397 . S
C1388 C1393 1.363 . S
C1389 H1360 0.950 . S
C1389 C1388 1.397 . S
C1389 C1390 1.334 . S
C1390 H1361 0.950 . S
C1390 C1389 1.334 . S
C1390 C1391 1.287 . S
C1391 C1390 1.287 . S
C1391 C1392 1.524 . S
C1391 H1394 0.999 . S
C1392 H1362 0.950 . S
C1392 C1391 1.524 . S
C1392 C1393 1.415 . S
C1393 H1363 0.950 . S
C1393 C1388 1.363 . S
C1393 C1392 1.415 . S
H1394 C1391 0.999 . S
H1395 C1376 0.913 . S
H1396 C1414 0.951 . S
H1397 C1416 0.951 . S
H1398 C1418 0.950 . S
H1399 C1419 0.950 . S
H1400 C1421 0.950 . S
H1401 C1424 0.950 . S
H1402 C1425 0.950 . S
H1403 C1427 0.950 . S
H1404 C1428 0.950 . S
H1405 C1429 0.951 . S
H1406 C1431 0.951 . S
H1407 C1433 0.950 . S
H1408 C1434 0.950 . S
H1409 C1436 0.950 . S
H1410 C1439 0.950 . S
H1411 C1440 0.950 . S
H1412 C1442 0.950 . S
H1413 C1443 0.950 . S
C1414 H1396 0.951 . S
C1414 C1415 1.366 . S
C1414 C1416 1.388 . S
C1415 C1414 1.366 . S
C1415 C1419 1.385 . S
C1416 H1397 0.951 . S
C1416 C1414 1.388 . S
C1416 C1417 1.366 . S
C1417 C1416 1.366 . S
C1417 C1418 1.414 . S
C1417 C1420 1.499 . S
C1418 H1398 0.950 . S
C1418 C1417 1.414 . S
C1418 C1419 1.374 . S
C1419 H1399 0.950 . S
C1419 C1415 1.385 . S
C1419 C1418 1.374 . S
C1420 C1417 1.499 . S
C1420 C1421 1.373 . S
C1420 C1422 1.389 . S
C1421 H1400 0.950 . S
C1421 C1420 1.373 . S
C1421 C1437 1.377 . S
C1422 C1420 1.389 . S
C1422 C1423 1.524 . S
C1422 C1436 1.377 . S
C1423 C1422 1.524 . S
C1423 C1424 1.397 . S
C1423 C1428 1.363 . S
C1424 H1401 0.950 . S
C1424 C1423 1.397 . S
C1424 C1425 1.334 . S
C1425 H1402 0.950 . S
C1425 C1424 1.334 . S
C1425 C1426 1.287 . S
C1426 C1425 1.287 . S
C1426 C1427 1.524 . S
C1426 H1445 0.913 . S
C1427 H1403 0.950 . S
C1427 C1426 1.524 . S
C1427 C1428 1.415 . S
C1428 H1404 0.950 . S
C1428 C1423 1.363 . S
C1428 C1427 1.415 . S
C1429 H1405 0.951 . S
C1429 C1430 1.366 . S
C1429 C1431 1.388 . S
C1430 C1429 1.366 . S
C1430 C1434 1.385 . S
C1431 H1406 0.951 . S
C1431 C1429 1.388 . S
C1431 C1432 1.366 . S
C1432 C1431 1.366 . S
C1432 C1433 1.414 . S
C1432 C1435 1.499 . S
C1433 H1407 0.950 . S
C1433 C1432 1.414 . S
C1433 C1434 1.374 . S
C1434 H1408 0.950 . S
C1434 C1430 1.385 . S
C1434 C1433 1.374 . S
C1435 C1432 1.499 . S
C1435 C1436 1.373 . S
C1435 C1437 1.389 . S
C1436 H1409 0.950 . S
C1436 C1422 1.377 . S
C1436 C1435 1.373 . S
C1437 C1421 1.377 . S
C1437 C1435 1.389 . S
C1437 C1438 1.524 . S
C1438 C1437 1.524 . S
C1438 C1439 1.397 . S
C1438 C1443 1.363 . S
C1439 H1410 0.950 . S
C1439 C1438 1.397 . S
C1439 C1440 1.334 . S
C1440 H1411 0.950 . S
C1440 C1439 1.334 . S
C1440 C1441 1.287 . S
C1441 C1440 1.287 . S
C1441 C1442 1.524 . S
C1441 H1444 0.999 . S
C1442 H1412 0.950 . S
C1442 C1441 1.524 . S
C1442 C1443 1.415 . S
C1443 H1413 0.950 . S
C1443 C1438 1.363 . S
C1443 C1442 1.415 . S
H1444 C1441 0.999 . S
H1445 C1426 0.913 . S
H1446 C1464 0.951 . S
H1447 C1466 0.951 . S
H1448 C1468 0.950 . S
H1449 C1469 0.950 . S
H1450 C1471 0.950 . S
H1451 C1474 0.950 . S
H1452 C1475 0.950 . S
H1453 C1477 0.950 . S
H1454 C1478 0.950 . S
H1455 C1479 0.951 . S
H1456 C1481 0.951 . S
H1457 C1483 0.950 . S
H1458 C1484 0.950 . S
H1459 C1486 0.950 . S
H1460 C1489 0.950 . S
H1461 C1490 0.950 . S
H1462 C1492 0.950 . S
H1463 C1493 0.950 . S
C1464 H1446 0.951 . S
C1464 C1465 1.366 . S
C1464 C1466 1.388 . S
C1465 C1464 1.366 . S
C1465 C1469 1.385 . S
C1466 H1447 0.951 . S
C1466 C1464 1.388 . S
C1466 C1467 1.366 . S
C1467 C1466 1.366 . S
C1467 C1468 1.414 . S
C1467 C1470 1.499 . S
C1468 H1448 0.950 . S
C1468 C1467 1.414 . S
C1468 C1469 1.374 . S
C1469 H1449 0.950 . S
C1469 C1465 1.385 . S
C1469 C1468 1.374 . S
C1470 C1467 1.499 . S
C1470 C1471 1.373 . S
C1470 C1472 1.389 . S
C1471 H1450 0.950 . S
C1471 C1470 1.373 . S
C1471 C1487 1.377 . S
C1472 C1470 1.389 . S
C1472 C1473 1.524 . S
C1472 C1486 1.377 . S
C1473 C1472 1.524 . S
C1473 C1474 1.397 . S
C1473 C1478 1.363 . S
C1474 H1451 0.950 . S
C1474 C1473 1.397 . S
C1474 C1475 1.334 . S
C1475 H1452 0.950 . S
C1475 C1474 1.334 . S
C1475 C1476 1.287 . S
C1476 C1475 1.287 . S
C1476 C1477 1.524 . S
C1476 H1495 0.913 . S
C1477 H1453 0.950 . S
C1477 C1476 1.524 . S
C1477 C1478 1.415 . S
C1478 H1454 0.950 . S
C1478 C1473 1.363 . S
C1478 C1477 1.415 . S
C1479 H1455 0.951 . S
C1479 C1480 1.366 . S
C1479 C1481 1.388 . S
C1480 C1479 1.366 . S
C1480 C1484 1.385 . S
C1481 H1456 0.951 . S
C1481 C1479 1.388 . S
C1481 C1482 1.366 . S
C1482 C1481 1.366 . S
C1482 C1483 1.414 . S
C1482 C1485 1.499 . S
C1483 H1457 0.950 . S
C1483 C1482 1.414 . S
C1483 C1484 1.374 . S
C1484 H1458 0.950 . S
C1484 C1480 1.385 . S
C1484 C1483 1.374 . S
C1485 C1482 1.499 . S
C1485 C1486 1.373 . S
C1485 C1487 1.389 . S
C1486 H1459 0.950 . S
C1486 C1472 1.377 . S
C1486 C1485 1.373 . S
C1487 C1471 1.377 . S
C1487 C1485 1.389 . S
C1487 C1488 1.524 . S
C1488 C1487 1.524 . S
C1488 C1489 1.397 . S
C1488 C1493 1.363 . S
C1489 H1460 0.950 . S
C1489 C1488 1.397 . S
C1489 C1490 1.334 . S
C1490 H1461 0.950 . S
C1490 C1489 1.334 . S
C1490 C1491 1.287 . S
C1491 C1490 1.287 . S
C1491 C1492 1.524 . S
C1491 H1494 0.999 . S
C1492 H1462 0.950 . S
C1492 C1491 1.524 . S
C1492 C1493 1.415 . S
C1493 H1463 0.950 . S
C1493 C1488 1.363 . S
C1493 C1492 1.415 . S
H1494 C1491 0.999 . S
H1495 C1476 0.913 . S
H1496 C1514 0.951 . S
H1497 C1516 0.951 . S
H1498 C1518 0.950 . S
H1499 C1519 0.950 . S
H1500 C1521 0.950 . S
H1501 C1524 0.950 . S
H1502 C1525 0.950 . S
H1503 C1527 0.950 . S
H1504 C1528 0.950 . S
H1505 C1529 0.951 . S
H1506 C1531 0.951 . S
H1507 C1533 0.950 . S
H1508 C1534 0.950 . S
H1509 C1536 0.950 . S
H1510 C1539 0.950 . S
H1511 C1540 0.950 . S
H1512 C1542 0.950 . S
H1513 C1543 0.950 . S
C1514 H1496 0.951 . S
C1514 C1515 1.366 1_554 S
C1514 C1516 1.388 . S
C1515 C1514 1.366 1_556 S
C1515 C1519 1.385 . S
C1516 H1497 0.951 . S
C1516 C1514 1.388 . S
C1516 C1517 1.366 1_554 S
C1517 C1516 1.366 1_556 S
C1517 C1518 1.414 . S
C1517 C1520 1.499 . S
C1518 H1498 0.950 . S
C1518 C1517 1.414 . S
C1518 C1519 1.374 . S
C1519 H1499 0.950 . S
C1519 C1515 1.385 . S
C1519 C1518 1.374 . S
C1520 C1517 1.499 . S
C1520 C1521 1.373 . S
C1520 C1522 1.389 . S
C1521 H1500 0.950 . S
C1521 C1520 1.373 . S
C1521 C1537 1.377 . S
C1522 C1520 1.389 . S
C1522 C1523 1.524 1_556 S
C1522 C1536 1.377 . S
C1523 C1522 1.524 1_554 S
C1523 C1524 1.397 . S
C1523 C1528 1.363 . S
C1524 H1501 0.950 . S
C1524 C1523 1.397 . S
C1524 C1525 1.334 . S
C1525 H1502 0.950 . S
C1525 C1524 1.334 . S
C1525 C1526 1.287 . S
C1526 C1525 1.287 . S
C1526 C1527 1.524 . S
C1526 H1545 0.913 . S
C1527 H1503 0.950 . S
C1527 C1526 1.524 . S
C1527 C1528 1.415 . S
C1528 H1504 0.950 . S
C1528 C1523 1.363 . S
C1528 C1527 1.415 . S
C1529 H1505 0.951 . S
C1529 C1530 1.366 . S
C1529 C1531 1.388 . S
C1530 C1529 1.366 . S
C1530 C1534 1.385 . S
C1531 H1506 0.951 . S
C1531 C1529 1.388 . S
C1531 C1532 1.366 . S
C1532 C1531 1.366 . S
C1532 C1533 1.414 . S
C1532 C1535 1.499 . S
C1533 H1507 0.950 . S
C1533 C1532 1.414 . S
C1533 C1534 1.374 . S
C1534 H1508 0.950 . S
C1534 C1530 1.385 . S
C1534 C1533 1.374 . S
C1535 C1532 1.499 . S
C1535 C1536 1.373 . S
C1535 C1537 1.389 . S
C1536 H1509 0.950 . S
C1536 C1522 1.377 . S
C1536 C1535 1.373 . S
C1537 C1521 1.377 . S
C1537 C1535 1.389 . S
C1537 C1538 1.524 . S
C1538 C1537 1.524 . S
C1538 C1539 1.397 . S
C1538 C1543 1.363 . S
C1539 H1510 0.950 . S
C1539 C1538 1.397 . S
C1539 C1540 1.334 . S
C1540 H1511 0.950 . S
C1540 C1539 1.334 . S
C1540 C1541 1.287 . S
C1541 C1540 1.287 . S
C1541 C1542 1.524 . S
C1541 H1544 0.999 . S
C1542 H1512 0.950 . S
C1542 C1541 1.524 . S
C1542 C1543 1.415 . S
C1543 H1513 0.950 . S
C1543 C1538 1.363 . S
C1543 C1542 1.415 . S
H1544 C1541 0.999 . S
H1545 C1526 0.913 . S
H1546 C1564 0.951 . S
H1547 C1566 0.951 . S
H1548 C1568 0.950 . S
H1549 C1569 0.950 . S
H1550 C1571 0.950 . S
H1551 C1574 0.950 . S
H1552 C1575 0.950 . S
H1553 C1577 0.950 . S
H1554 C1578 0.950 . S
H1555 C1579 0.951 . S
H1556 C1581 0.951 . S
H1557 C1583 0.950 . S
H1558 C1584 0.950 . S
H1559 C1586 0.950 . S
H1560 C1589 0.950 . S
H1561 C1590 0.950 . S
H1562 C1592 0.950 . S
H1563 C1593 0.950 . S
C1564 H1546 0.951 . S
C1564 C1565 1.366 . S
C1564 C1566 1.388 . S
C1565 C1564 1.366 . S
C1565 C1569 1.385 . S
C1566 H1547 0.951 . S
C1566 C1564 1.388 . S
C1566 C1567 1.366 . S
C1567 C1566 1.366 . S
C1567 C1568 1.414 . S
C1567 C1570 1.499 . S
C1568 H1548 0.950 . S
C1568 C1567 1.414 . S
C1568 C1569 1.374 . S
C1569 H1549 0.950 . S
C1569 C1565 1.385 . S
C1569 C1568 1.374 . S
C1570 C1567 1.499 . S
C1570 C1571 1.373 . S
C1570 C1572 1.389 . S
C1571 H1550 0.950 . S
C1571 C1570 1.373 . S
C1571 C1587 1.377 . S
C1572 C1570 1.389 . S
C1572 C1573 1.524 . S
C1572 C1586 1.377 . S
C1573 C1572 1.524 . S
C1573 C1574 1.397 . S
C1573 C1578 1.363 . S
C1574 H1551 0.950 . S
C1574 C1573 1.397 . S
C1574 C1575 1.334 . S
C1575 H1552 0.950 . S
C1575 C1574 1.334 . S
C1575 C1576 1.287 . S
C1576 C1575 1.287 . S
C1576 C1577 1.524 . S
C1576 H1595 0.913 . S
C1577 H1553 0.950 . S
C1577 C1576 1.524 . S
C1577 C1578 1.415 . S
C1578 H1554 0.950 . S
C1578 C1573 1.363 . S
C1578 C1577 1.415 . S
C1579 H1555 0.951 . S
C1579 C1580 1.366 1_554 S
C1579 C1581 1.388 . S
C1580 C1579 1.366 1_556 S
C1580 C1584 1.385 . S
C1581 H1556 0.951 . S
C1581 C1579 1.388 . S
C1581 C1582 1.366 . S
C1582 C1581 1.366 . S
C1582 C1583 1.414 . S
C1582 C1585 1.499 . S
C1583 H1557 0.950 . S
C1583 C1582 1.414 . S
C1583 C1584 1.374 1_554 S
C1584 H1558 0.950 . S
C1584 C1580 1.385 . S
C1584 C1583 1.374 1_556 S
C1585 C1582 1.499 . S
C1585 C1586 1.373 . S
C1585 C1587 1.389 . S
C1586 H1559 0.950 . S
C1586 C1572 1.377 . S
C1586 C1585 1.373 . S
C1587 C1571 1.377 . S
C1587 C1585 1.389 . S
C1587 C1588 1.524 1_554 S
C1588 C1587 1.524 1_556 S
C1588 C1589 1.397 . S
C1588 C1593 1.363 1_556 S
C1589 H1560 0.950 . S
C1589 C1588 1.397 . S
C1589 C1590 1.334 . S
C1590 H1561 0.950 . S
C1590 C1589 1.334 . S
C1590 C1591 1.287 . S
C1591 C1590 1.287 . S
C1591 C1592 1.524 . S
C1591 H1594 0.999 . S
C1592 H1562 0.950 . S
C1592 C1591 1.524 . S
C1592 C1593 1.415 1_556 S
C1593 H1563 0.950 . S
C1593 C1588 1.363 1_554 S
C1593 C1592 1.415 1_554 S
H1594 C1591 0.999 . S
H1595 C1576 0.913 . S
H1596 C1614 0.951 . S
H1597 C1616 0.951 1_556 S
H1598 C1618 0.950 . S
H1599 C1619 0.950 . S
H1600 C1621 0.950 . S
H1601 C1624 0.950 . S
H1602 C1625 0.950 . S
H1603 C1627 0.950 . S
H1604 C1628 0.950 . S
H1605 C1629 0.951 . S
H1606 C1631 0.951 1_554 S
H1607 C1633 0.950 . S
H1608 C1634 0.950 . S
H1609 C1636 0.950 . S
H1610 C1639 0.950 . S
H1611 C1640 0.950 . S
H1612 C1642 0.950 . S
H1613 C1643 0.950 . S
C1614 H1596 0.951 . S
C1614 C1615 1.366 . S
C1614 C1616 1.388 . S
C1615 C1614 1.366 . S
C1615 C1619 1.385 . S
C1616 H1597 0.951 1_554 S
C1616 C1614 1.388 . S
C1616 C1617 1.366 . S
C1617 C1616 1.366 . S
C1617 C1618 1.414 . S
C1617 C1620 1.499 . S
C1618 H1598 0.950 . S
C1618 C1617 1.414 . S
C1618 C1619 1.374 . S
C1619 H1599 0.950 . S
C1619 C1615 1.385 . S
C1619 C1618 1.374 . S
C1620 C1617 1.499 . S
C1620 C1621 1.373 . S
C1620 C1622 1.389 1_554 S
C1621 H1600 0.950 . S
C1621 C1620 1.373 . S
C1621 C1637 1.377 1_545 S
C1622 C1620 1.389 1_556 S
C1622 C1623 1.524 . S
C1622 C1636 1.377 1_545 S
C1623 C1622 1.524 . S
C1623 C1624 1.397 . S
C1623 C1628 1.363 . S
C1624 H1601 0.950 . S
C1624 C1623 1.397 . S
C1624 C1625 1.334 . S
C1625 H1602 0.950 . S
C1625 C1624 1.334 . S
C1625 C1626 1.287 . S
C1626 C1625 1.287 . S
C1626 C1627 1.524 . S
C1626 H1645 0.913 . S
C1627 H1603 0.950 . S
C1627 C1626 1.524 . S
C1627 C1628 1.415 . S
C1628 H1604 0.950 . S
C1628 C1623 1.363 . S
C1628 C1627 1.415 . S
C1629 H1605 0.951 . S
C1629 C1630 1.366 . S
C1629 C1631 1.388 . S
C1630 C1629 1.366 . S
C1630 C1634 1.385 . S
C1631 H1606 0.951 1_556 S
C1631 C1629 1.388 . S
C1631 C1632 1.366 . S
C1632 C1631 1.366 . S
C1632 C1633 1.414 . S
C1632 C1635 1.499 . S
C1633 H1607 0.950 . S
C1633 C1632 1.414 . S
C1633 C1634 1.374 . S
C1634 H1608 0.950 . S
C1634 C1630 1.385 . S
C1634 C1633 1.374 . S
C1635 C1632 1.499 . S
C1635 C1636 1.373 . S
C1635 C1637 1.389 1_556 S
C1636 H1609 0.950 . S
C1636 C1622 1.377 1_565 S
C1636 C1635 1.373 . S
C1637 C1621 1.377 1_565 S
C1637 C1635 1.389 1_554 S
C1637 C1638 1.524 . S
C1638 C1637 1.524 . S
C1638 C1639 1.397 . S
C1638 C1643 1.363 . S
C1639 H1610 0.950 . S
C1639 C1638 1.397 . S
C1639 C1640 1.334 . S
C1640 H1611 0.950 . S
C1640 C1639 1.334 . S
C1640 C1641 1.287 . S
C1641 C1640 1.287 . S
C1641 C1642 1.524 . S
C1641 H1644 0.999 . S
C1642 H1612 0.950 . S
C1642 C1641 1.524 . S
C1642 C1643 1.415 . S
C1643 H1613 0.950 . S
C1643 C1638 1.363 . S
C1643 C1642 1.415 . S
H1644 C1641 0.999 . S
H1645 C1626 0.913 . S
H1646 C1664 0.951 . S
H1647 C1666 0.951 . S
H1648 C1668 0.950 . S
H1649 C1669 0.950 . S
H1650 C1671 0.950 . S
H1651 C1674 0.950 . S
H1652 C1675 0.950 . S
H1653 C1677 0.950 . S
H1654 C1678 0.950 . S
H1655 C1679 0.951 . S
H1656 C1681 0.951 . S
H1657 C1683 0.950 . S
H1658 C1684 0.950 . S
H1659 C1686 0.950 . S
H1660 C1689 0.950 . S
H1661 C1690 0.950 . S
H1662 C1692 0.950 . S
H1663 C1693 0.950 . S
C1664 H1646 0.951 . S
C1664 C1665 1.366 . S
C1664 C1666 1.388 . S
C1665 C1664 1.366 . S
C1665 C1669 1.385 . S
C1666 H1647 0.951 . S
C1666 C1664 1.388 . S
C1666 C1667 1.366 . S
C1667 C1666 1.366 . S
C1667 C1668 1.414 . S
C1667 C1670 1.499 . S
C1668 H1648 0.950 . S
C1668 C1667 1.414 . S
C1668 C1669 1.374 . S
C1669 H1649 0.950 . S
C1669 C1665 1.385 . S
C1669 C1668 1.374 . S
C1670 C1667 1.499 . S
C1670 C1671 1.373 . S
C1670 C1672 1.389 . S
C1671 H1650 0.950 . S
C1671 C1670 1.373 . S
C1671 C1687 1.377 . S
C1672 C1670 1.389 . S
C1672 C1673 1.524 . S
C1672 C1686 1.377 . S
C1673 C1672 1.524 . S
C1673 C1674 1.397 . S
C1673 C1678 1.363 . S
C1674 H1651 0.950 . S
C1674 C1673 1.397 . S
C1674 C1675 1.334 1_554 S
C1675 H1652 0.950 . S
C1675 C1674 1.334 1_556 S
C1675 C1676 1.287 . S
C1676 C1675 1.287 . S
C1676 C1677 1.524 . S
C1676 H1695 0.913 . S
C1677 H1653 0.950 . S
C1677 C1676 1.524 . S
C1677 C1678 1.415 1_556 S
C1678 H1654 0.950 . S
C1678 C1673 1.363 . S
C1678 C1677 1.415 1_554 S
C1679 H1655 0.951 . S
C1679 C1680 1.366 . S
C1679 C1681 1.388 . S
C1680 C1679 1.366 . S
C1680 C1684 1.385 . S
C1681 H1656 0.951 . S
C1681 C1679 1.388 . S
C1681 C1682 1.366 . S
C1682 C1681 1.366 . S
C1682 C1683 1.414 . S
C1682 C1685 1.499 . S
C1683 H1657 0.950 . S
C1683 C1682 1.414 . S
C1683 C1684 1.374 . S
C1684 H1658 0.950 . S
C1684 C1680 1.385 . S
C1684 C1683 1.374 . S
C1685 C1682 1.499 . S
C1685 C1686 1.373 . S
C1685 C1687 1.389 . S
C1686 H1659 0.950 . S
C1686 C1672 1.377 . S
C1686 C1685 1.373 . S
C1687 C1671 1.377 . S
C1687 C1685 1.389 . S
C1687 C1688 1.524 . S
C1688 C1687 1.524 . S
C1688 C1689 1.397 . S
C1688 C1693 1.363 . S
C1689 H1660 0.950 . S
C1689 C1688 1.397 . S
C1689 C1690 1.334 . S
C1690 H1661 0.950 . S
C1690 C1689 1.334 . S
C1690 C1691 1.287 . S
C1691 C1690 1.287 . S
C1691 C1692 1.524 . S
C1691 H1694 0.999 . S
C1692 H1662 0.950 . S
C1692 C1691 1.524 . S
C1692 C1693 1.415 . S
C1693 H1663 0.950 . S
C1693 C1688 1.363 . S
C1693 C1692 1.415 . S
H1694 C1691 0.999 . S
H1695 C1676 0.913 . S
H1696 C1714 0.951 . S
H1697 C1716 0.951 . S
H1698 C1718 0.950 . S
H1699 C1719 0.950 . S
H1700 C1721 0.950 . S
H1701 C1724 0.950 . S
H1702 C1725 0.950 . S
H1703 C1727 0.950 . S
H1704 C1728 0.950 . S
H1705 C1729 0.951 . S
H1706 C1731 0.951 . S
H1707 C1733 0.950 . S
H1708 C1734 0.950 . S
H1709 C1736 0.950 . S
H1710 C1739 0.950 . S
H1711 C1740 0.950 . S
H1712 C1742 0.950 . S
H1713 C1743 0.950 . S
C1714 H1696 0.951 . S
C1714 C1715 1.366 . S
C1714 C1716 1.388 . S
C1715 C1714 1.366 . S
C1715 C1719 1.385 . S
C1716 H1697 0.951 . S
C1716 C1714 1.388 . S
C1716 C1717 1.366 . S
C1717 C1716 1.366 . S
C1717 C1718 1.414 . S
C1717 C1720 1.499 . S
C1718 H1698 0.950 . S
C1718 C1717 1.414 . S
C1718 C1719 1.374 . S
C1719 H1699 0.950 . S
C1719 C1715 1.385 . S
C1719 C1718 1.374 . S
C1720 C1717 1.499 . S
C1720 C1721 1.373 . S
C1720 C1722 1.389 . S
C1721 H1700 0.950 . S
C1721 C1720 1.373 . S
C1721 C1737 1.377 1_455 S
C1722 C1720 1.389 . S
C1722 C1723 1.524 . S
C1722 C1736 1.377 1_455 S
C1723 C1722 1.524 . S
C1723 C1724 1.397 . S
C1723 C1728 1.363 . S
C1724 H1701 0.950 . S
C1724 C1723 1.397 . S
C1724 C1725 1.334 . S
C1725 H1702 0.950 . S
C1725 C1724 1.334 . S
C1725 C1726 1.287 . S
C1726 C1725 1.287 . S
C1726 C1727 1.524 . S
C1726 H1745 0.913 . S
C1727 H1703 0.950 . S
C1727 C1726 1.524 . S
C1727 C1728 1.415 . S
C1728 H1704 0.950 . S
C1728 C1723 1.363 . S
C1728 C1727 1.415 . S
C1729 H1705 0.951 . S
C1729 C1730 1.366 . S
C1729 C1731 1.388 . S
C1730 C1729 1.366 . S
C1730 C1734 1.385 . S
C1731 H1706 0.951 . S
C1731 C1729 1.388 . S
C1731 C1732 1.366 . S
C1732 C1731 1.366 . S
C1732 C1733 1.414 . S
C1732 C1735 1.499 . S
C1733 H1707 0.950 . S
C1733 C1732 1.414 . S
C1733 C1734 1.374 . S
C1734 H1708 0.950 . S
C1734 C1730 1.385 . S
C1734 C1733 1.374 . S
C1735 C1732 1.499 . S
C1735 C1736 1.373 . S
C1735 C1737 1.389 . S
C1736 H1709 0.950 . S
C1736 C1722 1.377 1_655 S
C1736 C1735 1.373 . S
C1737 C1721 1.377 1_655 S
C1737 C1735 1.389 . S
C1737 C1738 1.524 . S
C1738 C1737 1.524 . S
C1738 C1739 1.397 . S
C1738 C1743 1.363 . S
C1739 H1710 0.950 . S
C1739 C1738 1.397 . S
C1739 C1740 1.334 . S
C1740 H1711 0.950 . S
C1740 C1739 1.334 . S
C1740 C1741 1.287 . S
C1741 C1740 1.287 . S
C1741 C1742 1.524 . S
C1741 H1744 0.999 . S
C1742 H1712 0.950 . S
C1742 C1741 1.524 . S
C1742 C1743 1.415 . S
C1743 H1713 0.950 . S
C1743 C1738 1.363 . S
C1743 C1742 1.415 . S
H1744 C1741 0.999 . S
H1745 C1726 0.913 . S
H1746 C1764 0.951 . S
H1747 C1766 0.951 . S
H1748 C1768 0.950 . S
H1749 C1769 0.950 . S
H1750 C1771 0.950 . S
H1751 C1774 0.950 . S
H1752 C1775 0.950 . S
H1753 C1777 0.950 . S
H1754 C1778 0.950 . S
H1755 C1779 0.951 . S
H1756 C1781 0.951 . S
H1757 C1783 0.950 . S
H1758 C1784 0.950 . S
H1759 C1786 0.950 . S
H1760 C1789 0.950 . S
H1761 C1790 0.950 . S
H1762 C1792 0.950 . S
H1763 C1793 0.950 . S
C1764 H1746 0.951 . S
C1764 C1765 1.366 . S
C1764 C1766 1.388 . S
C1765 C1764 1.366 . S
C1765 C1769 1.385 . S
C1766 H1747 0.951 . S
C1766 C1764 1.388 . S
C1766 C1767 1.366 . S
C1767 C1766 1.366 . S
C1767 C1768 1.414 . S
C1767 C1770 1.499 . S
C1768 H1748 0.950 . S
C1768 C1767 1.414 . S
C1768 C1769 1.374 . S
C1769 H1749 0.950 . S
C1769 C1765 1.385 . S
C1769 C1768 1.374 . S
C1770 C1767 1.499 . S
C1770 C1771 1.373 . S
C1770 C1772 1.389 . S
C1771 H1750 0.950 . S
C1771 C1770 1.373 . S
C1771 C1787 1.377 1_565 S
C1772 C1770 1.389 . S
C1772 C1773 1.524 . S
C1772 C1786 1.377 1_565 S
C1773 C1772 1.524 . S
C1773 C1774 1.397 . S
C1773 C1778 1.363 . S
C1774 H1751 0.950 . S
C1774 C1773 1.397 . S
C1774 C1775 1.334 . S
C1775 H1752 0.950 . S
C1775 C1774 1.334 . S
C1775 C1776 1.287 . S
C1776 C1775 1.287 . S
C1776 C1777 1.524 . S
C1776 H1795 0.913 . S
C1777 H1753 0.950 . S
C1777 C1776 1.524 . S
C1777 C1778 1.415 . S
C1778 H1754 0.950 . S
C1778 C1773 1.363 . S
C1778 C1777 1.415 . S
C1779 H1755 0.951 . S
C1779 C1780 1.366 . S
C1779 C1781 1.388 . S
C1780 C1779 1.366 . S
C1780 C1784 1.385 . S
C1781 H1756 0.951 . S
C1781 C1779 1.388 . S
C1781 C1782 1.366 . S
C1782 C1781 1.366 . S
C1782 C1783 1.414 . S
C1782 C1785 1.499 . S
C1783 H1757 0.950 . S
C1783 C1782 1.414 . S
C1783 C1784 1.374 . S
C1784 H1758 0.950 . S
C1784 C1780 1.385 . S
C1784 C1783 1.374 . S
C1785 C1782 1.499 . S
C1785 C1786 1.373 . S
C1785 C1787 1.389 . S
C1786 H1759 0.950 . S
C1786 C1772 1.377 1_545 S
C1786 C1785 1.373 . S
C1787 C1771 1.377 1_545 S
C1787 C1785 1.389 . S
C1787 C1788 1.524 . S
C1788 C1787 1.524 . S
C1788 C1789 1.397 . S
C1788 C1793 1.363 . S
C1789 H1760 0.950 . S
C1789 C1788 1.397 . S
C1789 C1790 1.334 . S
C1790 H1761 0.950 . S
C1790 C1789 1.334 . S
C1790 C1791 1.287 . S
C1791 C1790 1.287 . S
C1791 C1792 1.524 . S
C1791 H1794 0.999 . S
C1792 H1762 0.950 . S
C1792 C1791 1.524 . S
C1792 C1793 1.415 . S
C1793 H1763 0.950 . S
C1793 C1788 1.363 . S
C1793 C1792 1.415 . S
H1794 C1791 0.999 . S
H1795 C1776 0.913 . S
H1796 C1814 0.951 . S
H1797 C1816 0.951 . S
H1798 C1818 0.950 . S
H1799 C1819 0.950 . S
H1800 C1821 0.950 . S
H1801 C1824 0.950 . S
H1802 C1825 0.950 . S
H1803 C1827 0.950 . S
H1804 C1828 0.950 . S
H1805 C1829 0.951 . S
H1806 C1831 0.951 . S
H1807 C1833 0.950 . S
H1808 C1834 0.950 . S
H1809 C1836 0.950 . S
H1810 C1839 0.950 . S
H1811 C1840 0.950 . S
H1812 C1842 0.950 . S
H1813 C1843 0.950 . S
C1814 H1796 0.951 . S
C1814 C1815 1.366 . S
C1814 C1816 1.388 . S
C1815 C1814 1.366 . S
C1815 C1819 1.385 . S
C1816 H1797 0.951 . S
C1816 C1814 1.388 . S
C1816 C1817 1.366 . S
C1817 C1816 1.366 . S
C1817 C1818 1.414 . S
C1817 C1820 1.499 . S
C1818 H1798 0.950 . S
C1818 C1817 1.414 . S
C1818 C1819 1.374 . S
C1819 H1799 0.950 . S
C1819 C1815 1.385 . S
C1819 C1818 1.374 . S
C1820 C1817 1.499 . S
C1820 C1821 1.373 . S
C1820 C1822 1.389 . S
C1821 H1800 0.950 . S
C1821 C1820 1.373 . S
C1821 C1837 1.377 . S
C1822 C1820 1.389 . S
C1822 C1823 1.524 . S
C1822 C1836 1.377 . S
C1823 C1822 1.524 . S
C1823 C1824 1.397 . S
C1823 C1828 1.363 . S
C1824 H1801 0.950 . S
C1824 C1823 1.397 . S
C1824 C1825 1.334 . S
C1825 H1802 0.950 . S
C1825 C1824 1.334 . S
C1825 C1826 1.287 . S
C1826 C1825 1.287 . S
C1826 C1827 1.524 . S
C1826 H1845 0.913 . S
C1827 H1803 0.950 . S
C1827 C1826 1.524 . S
C1827 C1828 1.415 . S
C1828 H1804 0.950 . S
C1828 C1823 1.363 . S
C1828 C1827 1.415 . S
C1829 H1805 0.951 . S
C1829 C1830 1.366 . S
C1829 C1831 1.388 . S
C1830 C1829 1.366 . S
C1830 C1834 1.385 . S
C1831 H1806 0.951 . S
C1831 C1829 1.388 . S
C1831 C1832 1.366 . S
C1832 C1831 1.366 . S
C1832 C1833 1.414 . S
C1832 C1835 1.499 . S
C1833 H1807 0.950 . S
C1833 C1832 1.414 . S
C1833 C1834 1.374 . S
C1834 H1808 0.950 . S
C1834 C1830 1.385 . S
C1834 C1833 1.374 . S
C1835 C1832 1.499 . S
C1835 C1836 1.373 . S
C1835 C1837 1.389 . S
C1836 H1809 0.950 . S
C1836 C1822 1.377 . S
C1836 C1835 1.373 . S
C1837 C1821 1.377 . S
C1837 C1835 1.389 . S
C1837 C1838 1.524 . S
C1838 C1837 1.524 . S
C1838 C1839 1.397 . S
C1838 C1843 1.363 . S
C1839 H1810 0.950 . S
C1839 C1838 1.397 . S
C1839 C1840 1.334 . S
C1840 H1811 0.950 . S
C1840 C1839 1.334 . S
C1840 C1841 1.287 . S
C1841 C1840 1.287 . S
C1841 C1842 1.524 . S
C1841 H1844 0.999 . S
C1842 H1812 0.950 . S
C1842 C1841 1.524 . S
C1842 C1843 1.415 . S
C1843 H1813 0.950 . S
C1843 C1838 1.363 . S
C1843 C1842 1.415 . S
H1844 C1841 0.999 . S
H1845 C1826 0.913 . S
H1846 C1864 0.951 . S
H1847 C1866 0.951 . S
H1848 C1868 0.950 . S
H1849 C1869 0.950 . S
H1850 C1871 0.950 . S
H1851 C1874 0.950 . S
H1852 C1875 0.950 . S
H1853 C1877 0.950 1_655 S
H1854 C1878 0.932 1_655 S
H1855 C1879 0.951 . S
H1856 C1881 0.951 . S
H1857 C1883 0.950 . S
H1858 C1884 0.950 . S
H1859 C1886 0.950 . S
H1860 C1889 0.950 . S
H1861 C1890 0.950 . S
H1862 C1892 0.950 1_455 S
H1863 C1893 0.933 1_455 S
C1864 H1846 0.951 . S
C1864 C1865 1.366 . S
C1864 C1866 1.388 . S
C1865 C1864 1.366 . S
C1865 C1869 1.385 . S
C1866 H1847 0.951 . S
C1866 C1864 1.388 . S
C1866 C1867 1.366 . S
C1867 C1866 1.366 . S
C1867 C1868 1.414 . S
C1867 C1870 1.499 . S
C1868 H1848 0.950 . S
C1868 C1867 1.414 . S
C1868 C1869 1.374 . S
C1869 H1849 0.950 . S
C1869 C1865 1.385 . S
C1869 C1868 1.374 . S
C1870 C1867 1.499 . S
C1870 C1871 1.373 . S
C1870 C1872 1.389 . S
C1871 H1850 0.950 . S
C1871 C1870 1.373 . S
C1871 C1887 1.377 1_455 S
C1872 C1870 1.389 . S
C1872 C1873 1.524 . S
C1872 C1886 1.377 1_455 S
C1873 C1872 1.524 . S
C1873 C1874 1.397 . S
C1873 C1878 1.382 . S
C1874 H1851 0.950 . S
C1874 C1873 1.397 . S
C1874 C1875 1.334 1_556 S
C1875 H1852 0.950 . S
C1875 C1874 1.334 1_554 S
C1875 C1876 1.287 . S
C1876 C1875 1.287 . S
C1876 C1877 1.524 . S
C1876 H1895 0.913 . S
C1877 H1853 0.950 1_455 S
C1877 C1876 1.524 . S
C1877 C1878 1.414 1_554 S
C1878 H1854 0.932 1_455 S
C1878 C1873 1.382 . S
C1878 C1877 1.414 1_556 S
C1879 H1855 0.951 . S
C1879 C1880 1.366 . S
C1879 C1881 1.388 . S
C1880 C1879 1.366 . S
C1880 C1884 1.385 . S
C1881 H1856 0.951 . S
C1881 C1879 1.388 . S
C1881 C1882 1.366 . S
C1882 C1881 1.366 . S
C1882 C1883 1.414 . S
C1882 C1885 1.499 . S
C1883 H1857 0.950 . S
C1883 C1882 1.414 . S
C1883 C1884 1.374 . S
C1884 H1858 0.950 . S
C1884 C1880 1.385 . S
C1884 C1883 1.374 . S
C1885 C1882 1.499 . S
C1885 C1886 1.373 . S
C1885 C1887 1.389 . S
C1886 H1859 0.950 . S
C1886 C1872 1.377 1_655 S
C1886 C1885 1.373 . S
C1887 C1871 1.377 1_655 S
C1887 C1885 1.389 . S
C1887 C1888 1.524 . S
C1888 C1887 1.524 . S
C1888 C1889 1.397 . S
C1888 C1893 1.382 . S
C1889 H1860 0.950 . S
C1889 C1888 1.397 . S
C1889 C1890 1.334 . S
C1890 H1861 0.950 . S
C1890 C1889 1.334 . S
C1890 C1891 1.287 . S
C1891 C1890 1.287 . S
C1891 C1892 1.524 . S
C1891 H1894 0.999 . S
C1892 H1862 0.950 1_655 S
C1892 C1891 1.524 . S
C1892 C1893 1.414 . S
C1893 H1863 0.933 1_655 S
C1893 C1888 1.382 . S
C1893 C1892 1.414 . S
H1894 C1891 0.999 . S
H1895 C1876 0.913 . S
C415 C271 1.072 . S
C430 C7 1.072 . S
C465 C304 1.072 . S
C480 C40 1.073 . S
C515 C337 1.071 . S
C530 C73 1.071 . S
C565 C370 1.072 . S
C580 C106 1.072 . S
C615 C139 1.072 . S
C630 C205 1.073 . S
C665 C238 1.072 . S
C680 C172 1.071 . S
C715 N13 1.245 . S
C730 N2 1.243 . S
C765 N35 1.244 . S
C780 N46 1.245 . S
C815 N68 1.244 . S
C830 N79 1.246 . S
C865 N101 1.243 . S
C880 N112 1.245 . S
C915 N134 1.245 1_554 S
C930 N145 1.246 . S
C965 N167 1.244 . S
C980 N178 1.246 . S
C1015 N211 1.245 . S
C1030 N200 1.244 . S
C1065 N233 1.244 . S
C1080 N244 1.245 . S
C1115 N277 1.246 . S
C1130 N266 1.244 . S
C1165 N310 1.246 . S
C1180 N299 1.245 1_556 S
C1215 N343 1.245 . S
C1230 N332 1.243 . S
C1265 N365 1.243 . S
C1280 N376 1.245 . S
C1315 C21 1.562 . S
C1330 C351 1.562 . S
C1365 C54 1.562 . S
C1380 C384 1.562 . S
C1415 C87 1.562 . S
C1430 C219 1.562 . S
C1465 C252 1.562 . S
C1480 C120 1.562 . S
C1515 C285 1.562 1_556 S
C1530 C153 1.562 . S
C1565 C318 1.562 . S
C1580 C186 1.562 . S
C1615 C18 1.254 . S
C1630 C249 1.254 . S
C1665 C282 1.254 . S
C1680 C51 1.254 . S
C1715 C315 1.253 . S
C1730 C84 1.254 . S
C1765 C117 1.253 . S
C1780 C348 1.254 . S
C1815 C381 1.254 . S
C1830 C150 1.254 . S
C1865 C183 1.253 . S
C1880 C216 1.253 . S
