# Generated by pormake.
# Topology zfw, (5)-cn, num edge types: 1
# Building blocks:
#     Node 0, Type 0, BuildingBlock: BEQFEK_clean_sbu_0, # of connection points: 5
#     Node 1, Type 0, BuildingBlock: BEQFEK_clean_sbu_0, # of connection points: 5
#     Node 2, Type 0, BuildingBlock: BEQFEK_clean_sbu_0, # of connection points: 5
#     Node 3, Type 0, BuildingBlock: BEQFEK_clean_sbu_0, # of connection points: 5
#     Node 4, Type 0, BuildingBlock: BEQFEK_clean_sbu_0, # of connection points: 5
#     Node 5, Type 0, BuildingBlock: BEQFEK_clean_sbu_0, # of connection points: 5
#     Node 6, Type 0, BuildingBlock: BEQFEK_clean_sbu_0, # of connection points: 5
#     Node 7, Type 0, BuildingBlock: BEQFEK_clean_sbu_0, # of connection points: 5
#     Node 8, Type 0, BuildingBlock: BEQFEK_clean_sbu_0, # of connection points: 5
#     Node 9, Type 0, BuildingBlock: BEQFEK_clean_sbu_0, # of connection points: 5
#     Node 10, Type 0, BuildingBlock: BEQFEK_clean_sbu_0, # of connection points: 5
#     Node 11, Type 0, BuildingBlock: BEQFEK_clean_sbu_0, # of connection points: 5
#     Node 12, Type 0, BuildingBlock: BEQFEK_clean_sbu_0, # of connection points: 5
#     Node 13, Type 0, BuildingBlock: BEQFEK_clean_sbu_0, # of connection points: 5
#     Node 14, Type 0, BuildingBlock: BEQFEK_clean_sbu_0, # of connection points: 5
#     Node 15, Type 0, BuildingBlock: BEQFEK_clean_sbu_0, # of connection points: 5
#     Edge 16, Type (0, 0), BuildingBlock: XUDNAN_clean_linker_2, # of connection points: 2
#     Edge 17, Type (0, 0), BuildingBlock: XUDNAN_clean_linker_2, # of connection points: 2
#     Edge 18, Type (0, 0), BuildingBlock: XUDNAN_clean_linker_2, # of connection points: 2
#     Edge 19, Type (0, 0), BuildingBlock: XUDNAN_clean_linker_2, # of connection points: 2
#     Edge 20, Type (0, 0), BuildingBlock: XUDNAN_clean_linker_2, # of connection points: 2
#     Edge 21, Type (0, 0), BuildingBlock: XUDNAN_clean_linker_2, # of connection points: 2
#     Edge 22, Type (0, 0), BuildingBlock: XUDNAN_clean_linker_2, # of connection points: 2
#     Edge 23, Type (0, 0), BuildingBlock: XUDNAN_clean_linker_2, # of connection points: 2
#     Edge 24, Type (0, 0), BuildingBlock: XUDNAN_clean_linker_2, # of connection points: 2
#     Edge 25, Type (0, 0), BuildingBlock: XUDNAN_clean_linker_2, # of connection points: 2
#     Edge 26, Type (0, 0), BuildingBlock: XUDNAN_clean_linker_2, # of connection points: 2
#     Edge 27, Type (0, 0), BuildingBlock: XUDNAN_clean_linker_2, # of connection points: 2
#     Edge 28, Type (0, 0), BuildingBlock: XUDNAN_clean_linker_2, # of connection points: 2
#     Edge 29, Type (0, 0), BuildingBlock: XUDNAN_clean_linker_2, # of connection points: 2
#     Edge 30, Type (0, 0), BuildingBlock: XUDNAN_clean_linker_2, # of connection points: 2
#     Edge 31, Type (0, 0), BuildingBlock: XUDNAN_clean_linker_2, # of connection points: 2
#     Edge 32, Type (0, 0), BuildingBlock: XUDNAN_clean_linker_2, # of connection points: 2
#     Edge 33, Type (0, 0), BuildingBlock: XUDNAN_clean_linker_2, # of connection points: 2
#     Edge 34, Type (0, 0), BuildingBlock: XUDNAN_clean_linker_2, # of connection points: 2
#     Edge 35, Type (0, 0), BuildingBlock: XUDNAN_clean_linker_2, # of connection points: 2
#     Edge 36, Type (0, 0), BuildingBlock: XUDNAN_clean_linker_2, # of connection points: 2
#     Edge 37, Type (0, 0), BuildingBlock: XUDNAN_clean_linker_2, # of connection points: 2
#     Edge 38, Type (0, 0), BuildingBlock: XUDNAN_clean_linker_2, # of connection points: 2
#     Edge 39, Type (0, 0), BuildingBlock: XUDNAN_clean_linker_2, # of connection points: 2
#     Edge 40, Type (0, 0), BuildingBlock: XUDNAN_clean_linker_2, # of connection points: 2
#     Edge 41, Type (0, 0), BuildingBlock: XUDNAN_clean_linker_2, # of connection points: 2
#     Edge 42, Type (0, 0), BuildingBlock: XUDNAN_clean_linker_2, # of connection points: 2
#     Edge 43, Type (0, 0), BuildingBlock: XUDNAN_clean_linker_2, # of connection points: 2
#     Edge 44, Type (0, 0), BuildingBlock: XUDNAN_clean_linker_2, # of connection points: 2
#     Edge 45, Type (0, 0), BuildingBlock: XUDNAN_clean_linker_2, # of connection points: 2
#     Edge 46, Type (0, 0), BuildingBlock: XUDNAN_clean_linker_2, # of connection points: 2
#     Edge 47, Type (0, 0), BuildingBlock: XUDNAN_clean_linker_2, # of connection points: 2
#     Edge 48, Type (0, 0), BuildingBlock: XUDNAN_clean_linker_2, # of connection points: 2
#     Edge 49, Type (0, 0), BuildingBlock: XUDNAN_clean_linker_2, # of connection points: 2
#     Edge 50, Type (0, 0), BuildingBlock: XUDNAN_clean_linker_2, # of connection points: 2
#     Edge 51, Type (0, 0), BuildingBlock: XUDNAN_clean_linker_2, # of connection points: 2
#     Edge 52, Type (0, 0), BuildingBlock: XUDNAN_clean_linker_2, # of connection points: 2
#     Edge 53, Type (0, 0), BuildingBlock: XUDNAN_clean_linker_2, # of connection points: 2
#     Edge 54, Type (0, 0), BuildingBlock: XUDNAN_clean_linker_2, # of connection points: 2
#     Edge 55, Type (0, 0), BuildingBlock: XUDNAN_clean_linker_2, # of connection points: 2
# Relax obj value: 0.384
# Max RMSD: 0.228
# Mean RMSD: 0.228
data_MOF--net-zfw--node1-BEQFEK_clean_sbu_0--edge1-XUDNAN_clean_linker_2
_symmetry_space_group_name_H-M    P1
_symmetry_Int_Tables_number       1
_symmetry_cell_setting            triclinic
loop_
_symmetry_equiv_pos_as_xyz
'x, y, z'
_cell_length_a     69.182652
_cell_length_b     69.19786
_cell_length_c     17.784782
_cell_angle_alpha  89.999634
_cell_angle_beta   90.016018
_cell_angle_gamma 90.019519
loop_
_atom_site_label
_atom_site_type_symbol
_atom_site_fract_x
_atom_site_fract_y
_atom_site_fract_z
_atom_type_partial_charge
Co0 Co 0.01754 0.09423 0.34041 0.0
Co1 Co 0.0196 0.11937 0.19396 0.0
C2 C 0.98794 0.12457 0.30723 0.0
O3 O 0.99542 0.11139 0.3473 0.0
O4 O 0.99528 0.12921 0.24395 0.0
C5 C 0.00206 0.07679 0.47168 0.0
O6 O 0.98545 0.08253 0.44377 0.0
C7 C 0.01015 0.12484 0.03546 0.0
C8 C 0.0368 0.13885 0.99509 0.0
C9 C 0.02018 0.12957 0.97029 0.0
N10 N 0.02089 0.13007 0.09514 0.0
N11 N 0.03636 0.1393 0.07061 0.0
C12 C 0.99194 0.11318 0.04125 0.0
H13 H 0.99032 0.107 0.09846 0.0
H14 H 0.99151 0.10155 -0.00162 0.0
H15 H 0.97946 0.12284 0.03026 0.0
C16 C 0.01648 0.06228 0.22968 0.0
N17 N 0.01775 0.08112 0.24826 0.0
N18 N 0.0209 0.09147 0.18736 0.0
C19 C 0.02316 0.07922 0.12897 0.0
C20 C 0.01971 0.06054 0.1531 0.0
C21 C 0.01169 0.04653 0.28409 0.0
H22 H 0.02474 0.04317 0.31796 0.0
H23 H 0.00024 0.0515 0.32325 0.0
H24 H 0.00692 0.03322 0.25459 0.0
O25 O 0.04108 0.11029 0.35208 0.0
O26 O 0.04223 0.1291 0.25116 0.0
H27 H 0.04211 0.07287 0.03676 0.0
H28 H 0.02042 0.0849 0.01102 0.0
C29 C 0.03183 0.08432 0.05451 0.0
H30 H 0.03976 0.09818 0.05778 0.0
H31 H 0.04758 0.14407 0.10513 0.0
O32 O 0.01704 0.07739 0.43027 0.0
C33 C 0.04907 0.12372 0.31427 0.0
Co34 Co 0.16482 0.74214 0.56979 0.0
Co35 Co 0.14697 0.75082 0.41384 0.0
C36 C 0.13415 0.7169 0.50689 0.0
O37 O 0.14562 0.72146 0.55967 0.0
O38 O 0.13329 0.7268 0.44663 0.0
C39 C 0.17964 0.721 0.6952 0.0
O40 O 0.17096 0.70611 0.66429 0.0
C41 C 0.14323 0.74318 0.25582 0.0
C42 C 0.1377 0.77233 0.21024 0.0
C43 C 0.14237 0.75358 0.18948 0.0
N44 N 0.1399 0.75535 0.31299 0.0
N45 N 0.13579 0.77259 0.28548 0.0
C46 C 0.15035 0.72288 0.26592 0.0
H47 H 0.15567 0.72058 0.32407 0.0
H48 H 0.16197 0.71942 0.2251 0.0
H49 H 0.13819 0.71278 0.25544 0.0
C50 C 0.20073 0.73995 0.47883 0.0
N51 N 0.18158 0.743 0.48604 0.0
N52 N 0.17443 0.74843 0.42085 0.0
C53 C 0.18911 0.75018 0.37129 0.0
C54 C 0.20611 0.74451 0.40595 0.0
C55 C 0.21353 0.73289 0.54073 0.0
H56 H 0.21343 0.74354 0.58735 0.0
H57 H 0.20776 0.71907 0.56299 0.0
H58 H 0.22861 0.73077 0.52107 0.0
O59 O 0.15128 0.76738 0.58547 0.0
O60 O 0.13877 0.77334 0.47272 0.0
H61 H 0.17523 0.76788 0.2881 0.0
H62 H 0.20069 0.76476 0.27378 0.0
C63 C 0.18727 0.75744 0.29237 0.0
H64 H 0.18481 0.7451 0.25395 0.0
H65 H 0.13357 0.7849 0.31824 0.0
O66 O 0.17956 0.73721 0.66169 0.0
C67 C 0.1416 0.77806 0.5409 0.0
Co68 Co 0.50422 0.90219 0.83132 0.0
Co69 Co 0.51162 0.88151 0.67862 0.0
C70 C 0.5373 0.87442 0.80869 0.0
O71 O 0.52685 0.88578 0.84703 0.0
O72 O 0.5337 0.87138 0.73953 0.0
C73 C 0.51897 0.92271 0.95223 0.0
O74 O 0.53354 0.92542 0.90613 0.0
C75 C 0.52941 0.87596 0.53115 0.0
C76 C 0.50437 0.86563 0.46561 0.0
C77 C 0.52324 0.87221 0.45805 0.0
N78 N 0.51454 0.87278 0.57813 0.0
N79 N 0.49985 0.86592 0.53899 0.0
C80 C 0.54898 0.88245 0.55707 0.0
H81 H 0.55291 0.87469 0.60945 0.0
H82 H 0.5487 0.89808 0.57059 0.0
H83 H 0.56013 0.8796 0.51363 0.0
C84 C 0.50344 0.93683 0.73371 0.0
N85 N 0.50668 0.91785 0.74505 0.0
N86 N 0.5093 0.9092 0.67985 0.0
C87 C 0.50729 0.92248 0.62469 0.0
C88 C 0.50374 0.94036 0.65706 0.0
C89 C 0.49809 0.95076 0.79453 0.0
H90 H 0.48728 0.94404 0.83246 0.0
H91 H 0.51114 0.95409 0.82843 0.0
H92 H 0.49224 0.96442 0.77105 0.0
O93 O 0.48122 0.88528 0.82421 0.0
O94 O 0.48703 0.87027 0.71597 0.0
H95 H 0.49758 0.90554 0.53109 0.0
H96 H 0.50226 0.93043 0.50785 0.0
C97 C 0.50716 0.91803 0.54226 0.0
H98 H 0.52199 0.91452 0.52395 0.0
H99 H 0.48629 0.86282 0.5616 0.0
O100 O 0.503 0.91665 0.92583 0.0
C101 C 0.47653 0.87308 0.77378 0.0
Co102 Co 0.36277 0.24771 0.09359 0.0
Co103 Co 0.38301 0.25258 0.93848 0.0
C104 C 0.39016 0.2806 0.06089 0.0
O105 O 0.37928 0.27048 0.10244 0.0
O106 O 0.39295 0.27598 0.99252 0.0
C107 C 0.34287 0.2653 0.21014 0.0
O108 O 0.343 0.27955 0.16131 0.0
C109 C 0.38759 0.26765 0.78688 0.0
C110 C 0.39995 0.24231 0.72882 0.0
C111 C 0.39193 0.2604 0.71606 0.0
N112 N 0.39198 0.25407 0.83805 0.0
N113 N 0.4001 0.23929 0.80339 0.0
C114 C 0.37718 0.28601 0.80562 0.0
H115 H 0.37073 0.28518 0.86267 0.0
H116 H 0.3658 0.28925 0.76356 0.0
H117 H 0.3877 0.29811 0.80469 0.0
C118 C 0.32761 0.24816 -0.00178 0.0
N119 N 0.34692 0.24902 0.00708 0.0
N120 N 0.35525 0.25002 0.9406 0.0
C121 C 0.34135 0.24884 0.88717 0.0
C122 C 0.3234 0.2481 0.92201 0.0
C123 C 0.31347 0.24692 0.06164 0.0
H124 H 0.31897 0.23691 0.10538 0.0
H125 H 0.31179 0.26143 0.0873 0.0
H126 H 0.29912 0.24186 0.0417 0.0
O127 O 0.37959 0.22443 0.09188 0.0
O128 O 0.39435 0.22885 0.98206 0.0
H129 H 0.35891 0.24072 0.79273 0.0
H130 H 0.33362 0.23985 0.77433 0.0
C131 C 0.34502 0.24798 0.80424 0.0
H132 H 0.34505 0.26279 0.78088 0.0
H133 H 0.40423 0.22649 0.82993 0.0
O134 O 0.34816 0.24859 0.18848 0.0
C135 C 0.39171 0.21914 0.04203 0.0
Co136 Co 0.02438 0.90633 0.66496 0.0
Co137 Co 0.02094 0.88394 0.81603 0.0
C138 C 0.99367 0.87601 0.69269 0.0
O139 O 0.00293 0.88818 0.65344 0.0
O140 O 0.99833 0.87278 0.76081 0.0
C141 C 0.007 0.92438 0.54247 0.0
O142 O 0.99186 0.92497 0.58698 0.0
C143 C 0.00595 0.87421 0.96529 0.0
C144 C 0.03324 0.8711 0.02836 0.0
C145 C 0.01338 0.8726 0.03779 0.0
N146 N 0.02083 0.87479 0.9167 0.0
N147 N 0.03704 0.87217 0.95445 0.0
C148 C 0.98518 0.87509 0.94158 0.0
H149 H 0.98282 0.865 0.89401 0.0
H150 H 0.98159 0.88979 0.92108 0.0
H151 H 0.97538 0.87102 0.98833 0.0
C152 C 0.0214 0.94029 0.76395 0.0
N153 N 0.02184 0.9211 0.75242 0.0
N154 N 0.02058 0.91198 0.81721 0.0
C155 C 0.0194 0.92536 0.87256 0.0
C156 C 0.01979 0.9437 0.8405 0.0
C157 C 0.02319 0.95499 0.70266 0.0
H158 H 0.0336 0.94991 0.6596 0.0
H159 H 0.00891 0.95684 0.67516 0.0
H160 H 0.02801 0.96916 0.72514 0.0
O161 O 0.04858 0.89176 0.66619 0.0
O162 O 0.04543 0.87399 0.76927 0.0
H163 H 0.02872 0.91118 0.97312 0.0
H164 H 0.01651 0.93375 0.9902 0.0
C165 C 0.01685 0.92074 0.95416 0.0
H166 H 0.00293 0.91322 0.96185 0.0
H167 H 0.05079 0.87266 0.93042 0.0
O168 O 0.02353 0.92102 0.57079 0.0
C169 C 0.05485 0.87878 0.71049 0.0
Co170 Co 0.35462 0.74279 0.89538 0.0
Co171 Co 0.37832 0.74717 0.04398 0.0
C172 C 0.38638 0.7153 0.93376 0.0
O173 O 0.37305 0.72174 0.89172 0.0
O174 O 0.39009 0.72325 -0.00311 0.0
C175 C 0.33795 0.72561 0.7654 0.0
O176 O 0.34495 0.70954 0.7937 0.0
C177 C 0.38364 0.73847 0.20245 0.0
C178 C 0.39508 0.76623 0.24394 0.0
C179 C 0.38719 0.74884 0.26785 0.0
N180 N 0.38827 0.74962 0.14328 0.0
N181 N 0.39596 0.76584 0.16846 0.0
C182 C 0.37333 0.71949 0.19572 0.0
H183 H 0.36759 0.71745 0.13799 0.0
H184 H 0.3615 0.71827 0.23752 0.0
H185 H 0.38378 0.70772 0.20765 0.0
C186 C 0.32199 0.74032 0.00122 0.0
N187 N 0.3409 0.74255 0.98582 0.0
N188 N 0.35033 0.74686 0.04786 0.0
C189 C 0.33724 0.74912 0.10362 0.0
C190 C 0.31906 0.74449 0.07644 0.0
C191 C 0.30711 0.73473 0.94427 0.0
H192 H 0.30591 0.74637 0.90161 0.0
H193 H 0.31185 0.72142 0.91471 0.0
H194 H 0.29276 0.73234 0.97061 0.0
O195 O 0.36924 0.76722 0.88288 0.0
O196 O 0.38697 0.77006 0.98624 0.0
H197 H 0.32958 0.76717 0.19736 0.0
H198 H 0.34189 0.74549 0.22173 0.0
C199 C 0.34136 0.7573 0.17979 0.0
H200 H 0.355 0.76561 0.17942 0.0
H201 H 0.39992 0.77744 0.13427 0.0
O202 O 0.33809 0.74086 0.80528 0.0
C203 C 0.38177 0.77623 0.9219 0.0
Co204 Co 0.51543 0.0898 0.16067 0.0
Co205 Co 0.5157 0.11469 0.30787 0.0
C206 C 0.54719 0.11791 0.19233 0.0
O207 O 0.53908 0.10498 0.15278 0.0
O208 O 0.54001 0.1232 0.2551 0.0
C209 C 0.52915 0.07271 0.02809 0.0
O210 O 0.54625 0.07082 0.05925 0.0
C211 C 0.52766 0.12222 0.46345 0.0
C212 C 0.50271 0.13885 0.506 0.0
C213 C 0.51976 0.13007 0.52858 0.0
N214 N 0.51547 0.12569 0.40608 0.0
N215 N 0.50082 0.13602 0.43157 0.0
C216 C 0.54659 0.11197 0.45475 0.0
H217 H 0.55324 0.11588 0.40005 0.0
H218 H 0.54428 0.09613 0.45449 0.0
H219 H 0.55661 0.11573 0.50127 0.0
C220 C 0.51128 0.05793 0.26934 0.0
N221 N 0.51402 0.07671 0.25304 0.0
N222 N 0.51313 0.08701 0.31527 0.0
C223 C 0.50914 0.07496 0.3731 0.0
C224 C 0.50826 0.0562 0.34602 0.0
C225 C 0.51079 0.04218 0.21182 0.0
H226 H 0.52263 0.04433 0.17062 0.0
H227 H 0.51218 0.02772 0.23832 0.0
H228 H 0.49688 0.04291 0.18086 0.0
O229 O 0.49332 0.10748 0.14959 0.0
O230 O 0.49314 0.12556 0.25257 0.0
H231 H 0.49238 0.07074 0.47414 0.0
H232 H 0.51546 0.0817 0.48806 0.0
C233 C 0.50282 0.08122 0.44994 0.0
H234 H 0.49586 0.09559 0.44766 0.0
H235 H 0.48903 0.14028 0.39895 0.0
O236 O 0.51442 0.07301 0.07077 0.0
C237 C 0.48605 0.12101 0.18887 0.0
Co238 Co 0.16839 0.25263 0.44082 0.0
Co239 Co 0.14532 0.25539 0.59159 0.0
C240 C 0.13947 0.28423 0.46901 0.0
O241 O 0.15157 0.275 0.42935 0.0
O242 O 0.13551 0.27881 0.53577 0.0
C243 C 0.18775 0.26787 0.31432 0.0
O244 O 0.18379 0.28443 0.34693 0.0
C245 C 0.14102 0.26694 0.74906 0.0
C246 C 0.12567 0.24153 0.79371 0.0
C247 C 0.13595 0.25779 0.81579 0.0
N248 N 0.1351 0.25593 0.69118 0.0
N249 N 0.12506 0.24128 0.71825 0.0
C250 C 0.15331 0.28464 0.74033 0.0
H251 H 0.16036 0.28489 0.68433 0.0
H252 H 0.16425 0.28574 0.78572 0.0
H253 H 0.14385 0.29754 0.74462 0.0
C254 C 0.20189 0.25452 0.54493 0.0
N255 N 0.18274 0.25426 0.53059 0.0
N256 N 0.17313 0.25346 0.59443 0.0
C257 C 0.18604 0.25171 0.65092 0.0
C258 C 0.20452 0.25309 0.62196 0.0
C259 C 0.21715 0.25645 0.48591 0.0
H260 H 0.21637 0.24383 0.4475 0.0
H261 H 0.21431 0.26959 0.45193 0.0
H262 H 0.23182 0.25732 0.51093 0.0
O263 O 0.15209 0.22884 0.4385 0.0
O264 O 0.13535 0.23158 0.54467 0.0
H265 H 0.16728 0.23764 0.73028 0.0
H266 H 0.19267 0.23462 0.74829 0.0
C267 C 0.18148 0.24498 0.72881 0.0
H268 H 0.18187 0.25734 0.76817 0.0
H269 H 0.11953 0.23003 0.68561 0.0
O270 O 0.18467 0.25224 0.34998 0.0
C271 C 0.13944 0.22256 0.48443 0.0
Co272 Co 0.86444 0.24878 0.42605 0.0
Co273 Co 0.88313 0.25343 0.5832 0.0
C274 C 0.89508 0.22182 0.47874 0.0
O275 O 0.88359 0.22765 0.42804 0.0
O276 O 0.89614 0.23028 0.54196 0.0
C277 C 0.84758 0.22743 0.30957 0.0
O278 O 0.85076 0.21306 0.35626 0.0
C279 C 0.88874 0.24084 0.73531 0.0
C280 C 0.89625 0.26794 0.7941 0.0
C281 C 0.89168 0.24864 0.80607 0.0
N282 N 0.89096 0.25497 0.68444 0.0
N283 N 0.89608 0.271 0.71942 0.0
C284 C 0.88115 0.22113 0.71643 0.0
H285 H 0.87476 0.22092 0.65926 0.0
H286 H 0.87013 0.21642 0.75787 0.0
H287 H 0.89327 0.21064 0.71821 0.0
C288 C 0.82867 0.24569 0.5201 0.0
N289 N 0.84788 0.24831 0.51139 0.0
N290 N 0.85576 0.25135 0.57775 0.0
C291 C 0.84169 0.25139 0.63025 0.0
C292 C 0.82425 0.24741 0.59582 0.0
C293 C 0.81502 0.2409 0.45767 0.0
H294 H 0.81734 0.25099 0.41007 0.0
H295 H 0.81806 0.22605 0.43738 0.0
H296 H 0.79975 0.2417 0.47658 0.0
O297 O 0.87859 0.27383 0.41721 0.0
O298 O 0.89165 0.27691 0.53088 0.0
H299 H 0.83081 0.26269 0.73492 0.0
H300 H 0.84746 0.2431 0.74402 0.0
C301 C 0.84429 0.25638 0.71156 0.0
H302 H 0.85615 0.26694 0.71867 0.0
H303 H 0.89803 0.28431 0.69288 0.0
O304 O 0.85019 0.24465 0.3323 0.0
C305 C 0.88881 0.28316 0.46452 0.0
Co306 Co 0.66496 0.75676 0.9372 0.0
Co307 Co 0.64702 0.74944 0.09383 0.0
C308 C 0.63287 0.78127 0.99346 0.0
O309 O 0.64481 0.77676 0.94233 0.0
O310 O 0.63231 0.77202 0.05516 0.0
C311 C 0.68013 0.77937 0.82026 0.0
O312 O 0.67584 0.79358 0.86634 0.0
C313 C 0.64117 0.76122 0.24618 0.0
C314 C 0.63528 0.73373 0.30496 0.0
C315 C 0.63868 0.75326 0.31686 0.0
N316 N 0.6397 0.74702 0.19527 0.0
N317 N 0.63559 0.73069 0.23022 0.0
C318 C 0.64776 0.7813 0.22746 0.0
H319 H 0.6541 0.78187 0.17028 0.0
H320 H 0.65857 0.78648 0.2689 0.0
H321 H 0.63514 0.79118 0.22943 0.0
C322 C 0.70071 0.76102 0.02962 0.0
N323 N 0.68164 0.75752 0.02169 0.0
N324 N 0.67428 0.75306 0.08767 0.0
C325 C 0.68865 0.7527 0.13899 0.0
C326 C 0.70572 0.75803 0.10415 0.0
C327 C 0.71385 0.76689 0.96695 0.0
H328 H 0.71217 0.7567 0.91923 0.0
H329 H 0.70967 0.78149 0.94696 0.0
H330 H 0.72918 0.76714 0.98536 0.0
O331 O 0.65213 0.73104 0.92606 0.0
O332 O 0.6397 0.72582 0.03957 0.0
H333 H 0.70016 0.74132 0.24297 0.0
H334 H 0.68245 0.75992 0.25341 0.0
C335 C 0.68642 0.74705 0.21982 0.0
H336 H 0.67511 0.73584 0.2258 0.0
H337 H 0.63436 0.71731 0.2036 0.0
O338 O 0.67876 0.76206 0.84349 0.0
C339 C 0.64268 0.72053 0.97204 0.0
Co340 Co 0.66312 0.24696 0.05141 0.0
Co341 Co 0.64422 0.24845 0.89351 0.0
C342 C 0.63464 0.21696 0.00036 0.0
O343 O 0.64555 0.2244 0.04986 0.0
O344 O 0.6329 0.22452 0.93563 0.0
C345 C 0.67805 0.22791 0.17565 0.0
O346 O 0.67895 0.21304 0.13001 0.0
C347 C 0.63572 0.23571 0.74219 0.0
C348 C 0.62576 0.26262 0.6876 0.0
C349 C 0.62954 0.24326 0.67442 0.0
N350 N 0.63577 0.24999 0.7931 0.0
N351 N 0.6295 0.26599 0.76067 0.0
C352 C 0.64091 0.21518 0.75954 0.0
H353 H 0.62763 0.20742 0.77725 0.0
H354 H 0.6514 0.21455 0.80667 0.0
H355 H 0.64683 0.20765 0.70962 0.0
C356 C 0.69898 0.24611 0.95871 0.0
N357 N 0.67964 0.24714 0.96615 0.0
N358 N 0.67171 0.24816 0.89896 0.0
C359 C 0.68582 0.24816 0.84654 0.0
C360 C 0.70357 0.2467 0.88269 0.0
C361 C 0.71271 0.24462 0.02341 0.0
H362 H 0.70824 0.25468 0.0687 0.0
H363 H 0.7122 0.22972 0.04634 0.0
H364 H 0.72774 0.24798 0.00592 0.0
O365 O 0.64747 0.27092 0.05795 0.0
O366 O 0.63402 0.27157 0.94471 0.0
H367 H 0.67113 0.25904 0.74906 0.0
H368 H 0.69547 0.25121 0.73053 0.0
C369 C 0.68226 0.24814 0.7634 0.0
H370 H 0.67701 0.23369 0.74626 0.0
H371 H 0.62831 0.2793 0.78785 0.0
O372 O 0.67714 0.2447 0.14714 0.0
C373 C 0.63647 0.27886 0.00965 0.0
Co374 Co 0.86279 0.76042 0.58072 0.0
Co375 Co 0.88188 0.75115 0.42718 0.0
C376 C 0.89428 0.78503 0.5223 0.0
O377 O 0.88208 0.78118 0.57332 0.0
O378 O 0.89548 0.77474 0.46326 0.0
C379 C 0.84745 0.78226 0.70034 0.0
O380 O 0.85178 0.79692 0.65648 0.0
C381 C 0.88747 0.7625 0.27444 0.0
C382 C 0.8947 0.73521 0.21656 0.0
C383 C 0.89047 0.75457 0.20401 0.0
N384 N 0.88952 0.74849 0.32586 0.0
N385 N 0.89438 0.73229 0.29144 0.0
C386 C 0.87982 0.78225 0.29233 0.0
H387 H 0.8732 0.78258 0.34906 0.0
H388 H 0.86891 0.78683 0.25018 0.0
H389 H 0.89193 0.79276 0.29098 0.0
C390 C 0.8276 0.7625 0.48521 0.0
N391 N 0.84661 0.75926 0.49548 0.0
N392 N 0.85436 0.75365 0.43157 0.0
C393 C 0.84024 0.75224 0.37938 0.0
C394 C 0.82295 0.75811 0.41132 0.0
C395 C 0.81425 0.76964 0.54515 0.0
H396 H 0.81519 0.75999 0.5948 0.0
H397 H 0.8189 0.78428 0.56314 0.0
H398 H 0.79906 0.77023 0.52509 0.0
O399 O 0.87691 0.73573 0.59611 0.0
O400 O 0.89075 0.72876 0.4868 0.0
H401 H 0.85495 0.73502 0.29664 0.0
H402 H 0.82979 0.73902 0.27697 0.0
C403 C 0.8431 0.74572 0.29985 0.0
H404 H 0.84657 0.75835 0.26406 0.0
H405 H 0.89617 0.71903 0.31848 0.0
O406 O 0.84851 0.76523 0.674 0.0
C407 C 0.88749 0.72483 0.55563 0.0
Co408 Co 0.51864 0.59944 0.8147 0.0
Co409 Co 0.52269 0.61989 0.6608 0.0
C410 C 0.49047 0.62914 0.76934 0.0
O411 O 0.49625 0.61698 0.81752 0.0
O412 O 0.49937 0.63149 0.70758 0.0
C413 C 0.49975 0.58013 0.93033 0.0
O414 O 0.48526 0.58033 0.88269 0.0
C415 C 0.50665 0.62137 0.51301 0.0
C416 C 0.53009 0.63347 0.44335 0.0
C417 C 0.51201 0.6248 0.43926 0.0
N418 N 0.52114 0.62702 0.5582 0.0
N419 N 0.53494 0.63472 0.51661 0.0
C420 C 0.48841 0.61206 0.54059 0.0
H421 H 0.49103 0.59653 0.552 0.0
H422 H 0.47662 0.6135 0.49863 0.0
H423 H 0.48371 0.61876 0.59381 0.0
C424 C 0.52016 0.56434 0.71923 0.0
N425 N 0.51926 0.58364 0.72895 0.0
N426 N 0.52261 0.59229 0.66441 0.0
C427 C 0.52635 0.5787 0.61198 0.0
C428 C 0.52441 0.56068 0.64451 0.0
C429 C 0.51865 0.54987 0.78136 0.0
H430 H 0.52915 0.55354 0.82629 0.0
H431 H 0.50395 0.55055 0.80608 0.0
H432 H 0.52142 0.53497 0.76088 0.0
O433 O 0.54276 0.61476 0.82029 0.0
O434 O 0.5463 0.63009 0.71118 0.0
H435 H 0.5437 0.57059 0.51612 0.0
H436 H 0.52226 0.58386 0.49464 0.0
C437 C 0.53431 0.58263 0.5352 0.0
H438 H 0.54283 0.59618 0.53515 0.0
H439 H 0.54812 0.63968 0.5377 0.0
O440 O 0.51652 0.58468 0.90744 0.0
C441 C 0.55219 0.62615 0.77748 0.0
Co442 Co 0.01458 0.40498 0.31864 0.0
Co443 Co 0.01258 0.38266 0.16601 0.0
C444 C 0.04456 0.37534 0.27084 0.0
O445 O 0.03737 0.38728 0.31727 0.0
O446 O 0.03664 0.37215 0.20772 0.0
C447 C 0.03473 0.42125 0.4391 0.0
O448 O 0.04947 0.41937 0.39313 0.0
C449 C 0.02326 0.37262 0.01124 0.0
C450 C 0.99446 0.36831 0.96049 0.0
C451 C 0.01391 0.37013 0.94267 0.0
N452 N 0.00982 0.37317 0.06589 0.0
N453 N 0.99274 0.36979 0.03554 0.0
C454 C 0.04422 0.37718 0.02388 0.0
H455 H 0.04641 0.38415 0.0793 0.0
H456 H 0.04986 0.38688 0.97936 0.0
H457 H 0.05265 0.36355 0.02225 0.0
C458 C 0.00655 0.43843 0.21656 0.0
N459 N 0.01167 0.41988 0.22984 0.0
N460 N 0.01261 0.41052 0.16551 0.0
C461 C 0.00938 0.42311 0.10915 0.0
C462 C 0.00463 0.44106 0.13922 0.0
C463 C 0.00155 0.45256 0.2771 0.0
H464 H 0.99758 0.44487 0.32959 0.0
H465 H 0.01434 0.46178 0.28863 0.0
H466 H 0.98945 0.46202 0.25915 0.0
O467 O 0.99134 0.38943 0.33138 0.0
O468 O 0.98978 0.37274 0.22496 0.0
H469 H 0.00046 0.40947 0.00652 0.0
H470 H 0.01376 0.43171 0.99264 0.0
C471 C 0.01248 0.41855 0.02771 0.0
H472 H 0.02626 0.41079 0.0215 0.0
H473 H 0.97974 0.37006 0.06527 0.0
O474 O 0.01773 0.41994 0.4124 0.0
C475 C 0.98306 0.37702 0.2897 0.0
Co476 Co 0.51368 0.40365 0.18053 0.0
Co477 Co 0.52007 0.38204 0.33193 0.0
C478 C 0.48528 0.37473 0.23447 0.0
O479 O 0.4908 0.38676 0.18518 0.0
O480 O 0.49509 0.37177 0.29379 0.0
C481 C 0.49429 0.42125 0.05953 0.0
O482 O 0.47907 0.41876 0.1026 0.0
C483 C 0.508 0.37736 0.48474 0.0
C484 C 0.53394 0.36587 0.5416 0.0
C485 C 0.51546 0.37291 0.55493 0.0
N486 N 0.52152 0.37348 0.43286 0.0
N487 N 0.53682 0.36608 0.46668 0.0
C488 C 0.48964 0.388 0.46769 0.0
H489 H 0.4901 0.39445 0.41068 0.0
H490 H 0.48706 0.39957 0.50967 0.0
H491 H 0.47734 0.37772 0.47021 0.0
C492 C 0.51861 0.438 0.2784 0.0
N493 N 0.51699 0.4188 0.26757 0.0
N494 N 0.5211 0.40971 0.33057 0.0
C495 C 0.52608 0.42289 0.38306 0.0
C496 C 0.52449 0.44121 0.35194 0.0
C497 C 0.51617 0.45271 0.21754 0.0
H498 H 0.52695 0.44995 0.17262 0.0
H499 H 0.5016 0.45112 0.19213 0.0
H500 H 0.51802 0.46764 0.23915 0.0
O501 O 0.53668 0.38722 0.16531 0.0
O502 O 0.54169 0.37114 0.27165 0.0
H503 H 0.54204 0.40506 0.45995 0.0
H504 H 0.54096 0.43008 0.48712 0.0
C505 C 0.53277 0.41809 0.46104 0.0
H506 H 0.52004 0.41533 0.49716 0.0
H507 H 0.54966 0.36246 0.4393 0.0
O508 O 0.51099 0.41882 0.08773 0.0
C509 C 0.5463 0.37505 0.2039 0.0
Co510 Co 0.00499 0.59544 0.65257 0.0
Co511 Co 0.01557 0.61432 0.8056 0.0
C512 C 0.04139 0.62018 0.67935 0.0
O513 O 0.02974 0.61006 0.64022 0.0
O514 O 0.03834 0.62317 0.74896 0.0
C515 C 0.01725 0.57711 0.52227 0.0
O516 O 0.03276 0.57189 0.55964 0.0
C517 C 0.02976 0.62377 0.96012 0.0
C518 C 0.00178 0.63153 0.01185 0.0
C519 C 0.02122 0.62931 0.02722 0.0
N520 N 0.01584 0.62263 0.90738 0.0
N521 N 0.99925 0.62759 0.93872 0.0
C522 C 0.05084 0.62047 0.94629 0.0
H523 H 0.05351 0.61649 0.88678 0.0
H524 H 0.05631 0.60891 0.98386 0.0
H525 H 0.05895 0.63385 0.96009 0.0
C526 C 0.99844 0.56184 0.75284 0.0
N527 N 0.00485 0.57984 0.73948 0.0
N528 N 0.01245 0.58695 0.80093 0.0
C529 C 0.01299 0.57305 0.85382 0.0
C530 C 0.00352 0.55649 0.82664 0.0
C531 C 0.98579 0.55148 0.69763 0.0
H532 H 0.97961 0.56186 0.6566 0.0
H533 H 0.99454 0.5408 0.6659 0.0
H534 H 0.97372 0.54403 0.72676 0.0
O535 O 0.98394 0.61405 0.6562 0.0
O536 O 0.992 0.62761 0.76461 0.0
H537 H 0.0156 0.5808 0.97013 0.0
H538 H 0.03144 0.56121 0.94046 0.0
C539 C 0.02476 0.57514 0.92388 0.0
H540 H 0.03666 0.58542 0.9135 0.0
H541 H 0.986 0.62763 0.91075 0.0
O542 O 0.00191 0.58057 0.55909 0.0
C543 C 0.98096 0.62643 0.70746 0.0
H544 H 0.12504 0.21007 0.34931 0.0
H545 H 0.12996 0.19467 0.58484 0.0
H546 H 0.11052 0.16529 0.56217 0.0
H547 H 0.07626 0.19766 0.33407 0.0
H548 H 0.07761 0.18857 0.23923 0.0
H549 H 0.0945 0.20663 0.27059 0.0
H550 H 0.12306 0.18442 0.2332 0.0
H551 H 0.10622 0.16626 0.20157 0.0
H552 H 0.12432 0.16024 0.27065 0.0
H553 H 0.08889 0.13917 0.51706 0.0
H554 H 0.06409 0.11923 0.45537 0.0
H555 H 0.07121 0.15245 0.24986 0.0
C556 C 0.12241 0.20019 0.39544 0.0
C557 C 0.12919 0.20436 0.46856 0.0
C558 C 0.12497 0.19156 0.52837 0.0
C559 C 0.11405 0.17483 0.51593 0.0
C560 C 0.10726 0.17125 0.44352 0.0
C561 C 0.11113 0.18361 0.38429 0.0
C562 C 0.10023 0.17754 0.31415 0.0
C563 C 0.08633 0.19355 0.28802 0.0
C564 C 0.1143 0.17177 0.25117 0.0
C565 C 0.08932 0.16012 0.34379 0.0
C566 C 0.09394 0.15654 0.41807 0.0
C567 C 0.08525 0.14172 0.45872 0.0
C568 C 0.07115 0.13046 0.42304 0.0
C569 C 0.06564 0.13425 0.34767 0.0
C570 C 0.07514 0.14911 0.30735 0.0
H571 H 0.12033 0.7849 0.66811 0.0
H572 H 0.14425 0.81247 0.4701 0.0
H573 H 0.12834 0.84311 0.50511 0.0
H574 H 0.07496 0.8053 0.6497 0.0
H575 H 0.07022 0.80825 0.7487 0.0
H576 H 0.08645 0.78964 0.71729 0.0
H577 H 0.11341 0.80337 0.80318 0.0
H578 H 0.0972 0.82207 0.835 0.0
H579 H 0.12027 0.82842 0.79481 0.0
H580 H 0.10744 0.86922 0.55191 0.0
H581 H 0.08084 0.88887 0.60222 0.0
H582 H 0.06859 0.84435 0.76774 0.0
C583 C 0.12266 0.79762 0.63379 0.0
C584 C 0.13373 0.79658 0.56727 0.0
C585 C 0.13594 0.81316 0.52168 0.0
C586 C 0.12707 0.83061 0.54134 0.0
C587 C 0.11586 0.83114 0.60636 0.0
C588 C 0.1135 0.8151 0.65183 0.0
C589 C 0.09861 0.81891 0.7127 0.0
C590 C 0.08156 0.80468 0.70668 0.0
C591 C 0.10793 0.81815 0.79108 0.0
C592 C 0.09253 0.83933 0.69263 0.0
C593 C 0.10303 0.84621 0.63218 0.0
C594 C 0.09927 0.86413 0.59988 0.0
C595 C 0.08406 0.87516 0.6288 0.0
C596 C 0.0726 0.86818 0.68902 0.0
C597 C 0.07725 0.85021 0.72245 0.0
H598 H 0.46144 0.85916 0.90499 0.0
H599 H 0.45258 0.85991 0.66361 0.0
H600 H 0.42451 0.83812 0.6781 0.0
H601 H 0.45304 0.80986 0.92587 0.0
H602 H 0.44121 0.81157 0.01592 0.0
H603 H 0.45851 0.82963 0.9884 0.0
H604 H 0.43296 0.85644 0.00967 0.0
H605 H 0.41554 0.83843 0.03744 0.0
H606 H 0.40998 0.85497 0.9622 0.0
H607 H 0.3991 0.81465 0.71728 0.0
H608 H 0.3798 0.78889 0.7764 0.0
H609 H 0.40641 0.80174 0.99198 0.0
C610 C 0.45324 0.85512 0.85554 0.0
C611 C 0.45891 0.86138 0.78329 0.0
C612 C 0.44832 0.85532 0.71944 0.0
C613 C 0.43232 0.84306 0.72719 0.0
C614 C 0.42727 0.83685 0.79908 0.0
C615 C 0.43748 0.84255 0.86215 0.0
C616 C 0.43044 0.83207 0.93176 0.0
C617 C 0.44677 0.82007 0.96754 0.0
C618 C 0.42171 0.84633 0.98862 0.0
C619 C 0.41501 0.81924 0.89765 0.0
C620 C 0.41313 0.82256 0.82138 0.0
C621 C 0.40032 0.81201 0.77707 0.0
C622 C 0.38941 0.7974 0.81129 0.0
C623 C 0.39159 0.79325 0.88889 0.0
C624 C 0.40435 0.80459 0.93264 0.0
H625 H 0.4635 0.14851 0.25925 0.0
H626 H 0.47213 0.11933 0.04547 0.0
H627 H 0.44701 0.13966 0.98804 0.0
H628 H 0.41055 0.15467 0.23896 0.0
H629 H 0.41075 0.17814 0.28296 0.0
H630 H 0.4284 0.16024 0.30961 0.0
H631 H 0.45596 0.1843 0.27855 0.0
H632 H 0.43843 0.20223 0.25168 0.0
H633 H 0.45703 0.1951 0.18637 0.0
H634 H 0.42404 0.16525 0.94965 0.0
H635 H 0.40276 0.19362 0.93465 0.0
H636 H 0.40717 0.20537 0.17363 0.0
C637 C 0.45989 0.1462 0.20067 0.0
C638 C 0.4698 0.13228 0.15701 0.0
C639 C 0.46471 0.12979 0.08037 0.0
C640 C 0.45044 0.14128 0.04707 0.0
C641 C 0.44118 0.15503 0.09126 0.0
C642 C 0.44549 0.15743 0.16657 0.0
C643 C 0.4338 0.17381 0.20037 0.0
C644 C 0.42006 0.16626 0.2616 0.0
C645 C 0.4471 0.1898 0.23102 0.0
C646 C 0.42271 0.18057 0.13169 0.0
C647 C 0.42722 0.16949 0.06944 0.0
C648 C 0.42008 0.17381 -0.00181 0.0
C649 C 0.40808 0.18996 0.99016 0.0
C650 C 0.40318 0.20144 0.05314 0.0
C651 C 0.41036 0.19652 0.12497 0.0
H652 H 0.9075 0.79941 0.65599 0.0
H653 H 0.91242 0.80636 0.41421 0.0
H654 H 0.93679 0.83203 0.43314 0.0
H655 H 0.91477 0.85012 0.70853 0.0
H656 H 0.92909 0.84415 0.78994 0.0
H657 H 0.91062 0.82774 0.75781 0.0
H658 H 0.936 0.80032 0.74895 0.0
H659 H 0.95455 0.81663 0.78073 0.0
H660 H 0.95744 0.80389 0.69306 0.0
H661 H 0.96113 0.85581 0.47735 0.0
H662 H 0.98561 0.87517 0.54285 0.0
H663 H 0.96652 0.85168 0.75714 0.0
C664 C 0.91346 0.8066 0.60712 0.0
C665 C 0.90797 0.8011 0.53358 0.0
C666 C 0.91641 0.81044 0.47093 0.0
C667 C 0.93019 0.82506 0.48117 0.0
C668 C 0.93547 0.82997 0.55436 0.0
C669 C 0.92749 0.82096 0.61631 0.0
C670 C 0.93681 0.82794 0.68861 0.0
C671 C 0.92193 0.83809 0.7392 0.0
C672 C 0.94679 0.8112 0.73026 0.0
C673 C 0.95144 0.84215 0.65749 0.0
C674 C 0.95016 0.84325 0.57999 0.0
C675 C 0.96223 0.85513 0.53801 0.0
C676 C 0.97611 0.86609 0.57602 0.0
C677 C 0.97804 0.86496 0.65541 0.0
C678 C 0.96541 0.85287 0.69657 0.0
H679 H 0.91093 0.21052 0.34454 0.0
H680 H 0.90707 0.19512 0.5806 0.0
H681 H 0.92795 0.16679 0.55775 0.0
H682 H 0.91286 0.16136 0.26738 0.0
H683 H 0.93052 0.16754 0.19684 0.0
H684 H 0.91363 0.18551 0.22947 0.0
H685 H 0.94206 0.20814 0.26466 0.0
H686 H 0.95902 0.19028 0.23204 0.0
H687 H 0.96076 0.19945 0.32668 0.0
H688 H 0.94945 0.14107 0.51158 0.0
H689 H 0.97353 0.1209 0.44885 0.0
H690 H 0.96583 0.15369 0.24235 0.0
C691 C 0.9143 0.20099 0.39103 0.0
C692 C 0.9073 0.20481 0.46423 0.0
C693 C 0.91231 0.19237 0.5242 0.0
C694 C 0.92402 0.17621 0.51163 0.0
C695 C 0.93078 0.17288 0.43899 0.0
C696 C 0.92635 0.185 0.37978 0.0
C697 C 0.93697 0.179 0.30879 0.0
C698 C 0.92264 0.17299 0.24697 0.0
C699 C 0.95051 0.19518 0.28147 0.0
C700 C 0.94827 0.16175 0.33782 0.0
C701 C 0.94409 0.15834 0.41269 0.0
C702 C 0.95281 0.14354 0.45293 0.0
C703 C 0.9665 0.1321 0.41635 0.0
C704 C 0.97166 0.13563 0.34025 0.0
C705 C 0.96217 0.15055 0.30026 0.0
H706 H 0.5677 0.14885 0.25072 0.0
H707 H 0.56392 0.11098 0.05618 0.0
H708 H 0.58753 0.1311 0.98967 0.0
H709 H 0.57006 0.19204 0.15332 0.0
H710 H 0.58749 0.20371 0.21351 0.0
H711 H 0.57199 0.18517 0.25084 0.0
H712 H 0.60193 0.16583 0.29554 0.0
H713 H 0.6175 0.18447 0.25887 0.0
H714 H 0.62063 0.15978 0.22902 0.0
H715 H 0.60741 0.15759 0.93651 0.0
H716 H 0.6258 0.18722 0.90604 0.0
H717 H 0.61863 0.20713 0.13556 0.0
C718 C 0.57224 0.1445 0.19498 0.0
C719 C 0.56385 0.12831 0.15894 0.0
C720 C 0.57007 0.12326 0.08543 0.0
C721 C 0.58352 0.13461 0.04686 0.0
C722 C 0.59096 0.15082 0.08279 0.0
C723 C 0.58591 0.15558 0.15573 0.0
C724 C 0.59549 0.17433 0.17962 0.0
C725 C 0.58035 0.18971 0.20052 0.0
C726 C 0.60974 0.17089 0.24461 0.0
C727 C 0.60605 0.17961 0.10779 0.0
C728 C 0.60321 0.16584 0.05267 0.0
C729 C 0.61014 0.16827 0.97965 0.0
C730 C 0.62041 0.18517 0.96267 0.0
C731 C 0.62383 0.19925 0.01873 0.0
C732 C 0.61663 0.19635 0.09221 0.0
H733 H 0.56463 0.84971 0.7484 0.0
H734 H 0.54462 0.87432 0.95941 0.0
H735 H 0.56787 0.85426 0.0285 0.0
H736 H 0.57091 0.80215 0.81361 0.0
H737 H 0.59265 0.79739 0.76097 0.0
H738 H 0.57536 0.81467 0.7264 0.0
H739 H 0.60206 0.8409 0.72093 0.0
H740 H 0.61948 0.82364 0.75512 0.0
H741 H 0.616 0.84618 0.80411 0.0
H742 H 0.59076 0.82943 0.07643 0.0
H743 H 0.61407 0.80299 0.09889 0.0
H744 H 0.62063 0.79546 0.85788 0.0
C745 C 0.56535 0.85108 0.80899 0.0
C746 C 0.55274 0.8636 0.84819 0.0
C747 C 0.55411 0.86491 0.92772 0.0
C748 C 0.56728 0.85354 0.96776 0.0
C749 C 0.5792 0.8411 0.92767 0.0
C750 C 0.57861 0.83997 0.85006 0.0
C751 C 0.5928 0.82502 0.82118 0.0
C752 C 0.5823 0.80885 0.77801 0.0
C753 C 0.60852 0.83451 0.77246 0.0
C754 C 0.60106 0.81768 0.89478 0.0
C755 C 0.59298 0.82713 0.95549 0.0
C756 C 0.59744 0.8221 0.02938 0.0
C757 C 0.6106 0.80703 0.0416 0.0
C758 C 0.61924 0.79731 0.9802 0.0
C759 C 0.61446 0.80284 0.90593 0.0
H760 H 0.62633 0.7128 0.8352 0.0
H761 H 0.63867 0.68754 0.05309 0.0
H762 H 0.62055 0.65822 0.01734 0.0
H763 H 0.57881 0.69843 0.82985 0.0
H764 H 0.57766 0.69355 0.73039 0.0
H765 H 0.5948 0.71082 0.76592 0.0
H766 H 0.62279 0.69191 0.70322 0.0
H767 H 0.60569 0.67458 0.66701 0.0
H768 H 0.62581 0.66656 0.72332 0.0
H769 H 0.59817 0.63388 0.96612 0.0
H770 H 0.57161 0.61628 0.90511 0.0
H771 H 0.57213 0.65754 0.72097 0.0
C772 C 0.62575 0.70077 0.87413 0.0
C773 C 0.63411 0.7022 0.94639 0.0
C774 C 0.63248 0.68657 -0.00275 0.0
C775 C 0.62231 0.66986 0.97729 0.0
C776 C 0.61374 0.66907 0.90645 0.0
C777 C 0.6153 0.68409 0.85553 0.0
C778 C 0.60262 0.68059 0.78722 0.0
C779 C 0.58758 0.69681 0.77786 0.0
C780 C 0.61497 0.67827 0.71597 0.0
C781 C 0.59316 0.66164 0.80915 0.0
C782 C 0.60014 0.6551 0.87739 0.0
C783 C 0.59277 0.63867 0.91215 0.0
C784 C 0.57759 0.62883 0.87708 0.0
C785 C 0.56976 0.63551 0.80814 0.0
C786 C 0.57797 0.65192 0.77306 0.0
H787 H 0.56907 0.34584 0.26175 0.0
H788 H 0.55967 0.38042 0.061 0.0
H789 H 0.58406 0.36129 0.99376 0.0
H790 H 0.62192 0.33873 0.23317 0.0
H791 H 0.62116 0.31426 0.26782 0.0
H792 H 0.6044 0.33198 0.30347 0.0
H793 H 0.57576 0.30978 0.26671 0.0
H794 H 0.59238 0.29206 0.23074 0.0
H795 H 0.57358 0.3015 0.17095 0.0
H796 H 0.60605 0.33633 0.94322 0.0
H797 H 0.62592 0.30767 0.91433 0.0
H798 H 0.6226 0.28975 0.14777 0.0
C799 C 0.57242 0.34964 0.20415 0.0
C800 C 0.56241 0.36466 0.16684 0.0
C801 C 0.5671 0.36901 0.09107 0.0
C802 C 0.58099 0.35826 0.05225 0.0
C803 C 0.59027 0.3433 0.09004 0.0
C804 C 0.58638 0.33908 0.16447 0.0
C805 C 0.59769 0.32151 0.19025 0.0
C806 C 0.61215 0.32695 0.25236 0.0
C807 C 0.58403 0.30526 0.21616 0.0
C808 C 0.608 0.3162 0.11793 0.0
C809 C 0.60355 0.32905 0.06101 0.0
C810 C 0.60998 0.32637 0.98757 0.0
C811 C 0.62117 0.31003 0.97164 0.0
C812 C 0.62594 0.29669 0.02901 0.0
C813 C 0.61951 0.29999 0.1033 0.0
H814 H 0.96341 0.34585 0.22937 0.0
H815 H 0.96345 0.38573 0.41819 0.0
H816 H 0.93639 0.36806 0.47495 0.0
H817 H 0.90986 0.33804 0.22499 0.0
H818 H 0.91242 0.3128 0.20206 0.0
H819 H 0.93028 0.32996 0.17046 0.0
H820 H 0.9572 0.30985 0.23469 0.0
H821 H 0.93947 0.29268 0.26644 0.0
H822 H 0.95523 0.30426 0.33343 0.0
H823 H 0.91291 0.34408 0.52047 0.0
H824 H 0.89333 0.31524 0.54996 0.0
H825 H 0.90673 0.29122 0.3309 0.0
C826 C 0.95743 0.3511 0.2818 0.0
C827 C 0.96561 0.36719 0.31918 0.0
C828 C 0.95753 0.37344 0.38831 0.0
C829 C 0.94205 0.36356 0.42101 0.0
C830 C 0.9346 0.34755 0.3837 0.0
C831 C 0.94186 0.3414 0.31534 0.0
C832 C 0.93207 0.32287 0.29022 0.0
C833 C 0.92046 0.32612 0.21762 0.0
C834 C 0.94687 0.30645 0.28068 0.0
C835 C 0.91878 0.31923 0.35659 0.0
C836 C 0.9204 0.33378 0.40947 0.0
C837 C 0.91112 0.33282 0.47885 0.0
C838 C 0.90011 0.31639 0.49521 0.0
C839 C 0.89832 0.30128 0.44217 0.0
C840 C 0.90744 0.30289 0.3714 0.0
H841 H 0.91058 0.69759 0.48784 0.0
H842 H 0.88782 0.71518 0.705 0.0
H843 H 0.90791 0.69048 0.76699 0.0
H844 H 0.914 0.64545 0.53107 0.0
H845 H 0.93614 0.64276 0.47868 0.0
H846 H 0.91863 0.66066 0.45075 0.0
H847 H 0.94499 0.68719 0.45924 0.0
H848 H 0.9625 0.66944 0.48782 0.0
H849 H 0.95815 0.69034 0.54588 0.0
H850 H 0.93335 0.66682 0.80676 0.0
H851 H 0.96026 0.64353 0.82012 0.0
H852 H 0.96524 0.64021 0.5773 0.0
C853 C 0.90951 0.69602 0.54828 0.0
C854 C 0.89761 0.70837 0.59143 0.0
C855 C 0.89676 0.70588 0.67053 0.0
C856 C 0.90815 0.6919 0.7064 0.0
C857 C 0.92011 0.68034 0.66239 0.0
C858 C 0.92065 0.68203 0.58497 0.0
C859 C 0.93533 0.66834 0.55103 0.0
C860 C 0.92543 0.65341 0.49987 0.0
C861 C 0.95118 0.6795 0.50851 0.0
C862 C 0.94323 0.659 0.62159 0.0
C863 C 0.93432 0.66618 0.68527 0.0
C864 C 0.94019 0.66081 0.7573 0.0
C865 C 0.95553 0.64768 0.76436 0.0
C866 C 0.96462 0.63995 0.69976 0.0
C867 C 0.95826 0.64561 0.6276 0.0
H868 H 0.41679 0.30549 0.99628 0.0
H869 H 0.38695 0.29297 0.20582 0.0
H870 H 0.40622 0.31769 0.27009 0.0
H871 H 0.4626 0.31197 0.07285 0.0
H872 H 0.46965 0.33182 0.01324 0.0
H873 H 0.45214 0.31453 0.98051 0.0
H874 H 0.42768 0.34214 0.95561 0.0
H875 H 0.44518 0.35956 0.98799 0.0
H876 H 0.42156 0.35858 0.03054 0.0
H877 H 0.4315 0.3401 0.31636 0.0
H878 H 0.45969 0.36133 0.33862 0.0
H879 H 0.47197 0.36145 0.09945 0.0
C880 C 0.41405 0.30824 0.05526 0.0
C881 C 0.40039 0.29716 0.09579 0.0
C882 C 0.39734 0.30115 0.17322 0.0
C883 C 0.4082 0.31523 0.21049 0.0
C884 C 0.42188 0.3255 0.16958 0.0
C885 C 0.42465 0.32248 0.09347 0.0
C886 C 0.44095 0.33502 0.06391 0.0
C887 C 0.4573 0.32259 0.0307 0.0
C888 C 0.43338 0.3497 0.00609 0.0
C889 C 0.44726 0.34497 0.13584 0.0
C890 C 0.43604 0.33926 0.19609 0.0
C891 C 0.44013 0.34507 0.26946 0.0
C892 C 0.45618 0.35702 0.28166 0.0
C893 C 0.46774 0.3632 0.22067 0.0
C894 C 0.46305 0.3573 0.1468 0.0
H895 H 0.41706 0.69582 0.00162 0.0
H896 H 0.38392 0.69958 0.79414 0.0
H897 H 0.40599 0.67688 0.7339 0.0
H898 H 0.46305 0.69381 0.91909 0.0
H899 H 0.47314 0.67613 0.98235 0.0
H900 H 0.45388 0.69165 0.01362 0.0
H901 H 0.43349 0.6617 0.04997 0.0
H902 H 0.45274 0.64608 0.01888 0.0
H903 H 0.42878 0.6433 0.98056 0.0
H904 H 0.43333 0.65776 0.68931 0.0
H905 H 0.46313 0.63916 0.6674 0.0
H906 H 0.47811 0.64457 0.90346 0.0
C907 C 0.41426 0.69155 0.94408 0.0
C908 C 0.39868 0.69962 0.903 0.0
C909 C 0.39562 0.69368 0.82746 0.0
C910 C 0.40813 0.68075 0.79227 0.0
C911 C 0.42354 0.67349 0.83336 0.0
C912 C 0.42653 0.67827 0.90795 0.0
C913 C 0.44464 0.66845 0.93776 0.0
C914 C 0.45956 0.68341 0.96477 0.0
C915 C 0.43961 0.65402 0.00051 0.0
C916 C 0.45153 0.65806 0.86741 0.0
C917 C 0.43911 0.66132 0.80798 0.0
C918 C 0.44299 0.65469 0.73565 0.0
C919 C 0.45999 0.64425 0.72362 0.0
C920 C 0.47273 0.64027 0.78381 0.0
C921 C 0.46838 0.64714 0.85681 0.0
H922 H 0.12233 0.70109 0.63962 0.0
H923 H 0.11686 0.69486 0.39773 0.0
H924 H 0.09516 0.66681 0.4165 0.0
H925 H 0.12049 0.64981 0.68876 0.0
H926 H 0.10613 0.65402 0.77171 0.0
H927 H 0.12273 0.67229 0.7393 0.0
H928 H 0.09488 0.69723 0.73404 0.0
H929 H 0.07822 0.67914 0.76681 0.0
H930 H 0.07348 0.69179 0.68014 0.0
H931 H 0.07334 0.64019 0.46195 0.0
H932 H 0.05028 0.61937 0.5293 0.0
H933 H 0.06867 0.64433 0.74165 0.0
C934 C 0.1168 0.69365 0.59053 0.0
C935 C 0.12139 0.7 0.51715 0.0
C936 C 0.11352 0.69018 0.45439 0.0
C937 C 0.10132 0.67418 0.46453 0.0
C938 C 0.09705 0.66833 0.53774 0.0
C939 C 0.1044 0.6779 0.59964 0.0
C940 C 0.09628 0.66983 0.67223 0.0
C941 C 0.11237 0.66096 0.72085 0.0
C942 C 0.08504 0.68542 0.71582 0.0
C943 C 0.08292 0.65442 0.64149 0.0
C944 C 0.08387 0.65353 0.5639 0.0
C945 C 0.07249 0.64076 0.52268 0.0
C946 C 0.05938 0.629 0.56157 0.0
C947 C 0.05746 0.63032 0.64082 0.0
C948 C 0.06977 0.64291 0.68117 0.0
H949 H 0.11025 0.30738 0.52731 0.0
H950 H 0.14527 0.29806 0.32753 0.0
H951 H 0.12658 0.32252 0.26007 0.0
H952 H 0.06618 0.31257 0.43522 0.0
H953 H 0.05678 0.33159 0.49403 0.0
H954 H 0.07424 0.31486 0.53125 0.0
H955 H 0.09659 0.34338 0.56804 0.0
H956 H 0.07912 0.36022 0.53108 0.0
H957 H 0.10369 0.36068 0.49747 0.0
H958 H 0.10181 0.3441 0.2077 0.0
H959 H 0.07332 0.36405 0.17673 0.0
H960 H 0.05498 0.36177 0.40984 0.0
C961 C 0.11424 0.31081 0.46998 0.0
C962 C 0.12928 0.30069 0.4331 0.0
C963 C 0.13388 0.30552 0.35756 0.0
C964 C 0.12335 0.31947 0.31842 0.0
C965 C 0.10837 0.3288 0.35555 0.0
C966 C 0.10393 0.32497 0.42989 0.0
C967 C 0.08638 0.33651 0.45459 0.0
C968 C 0.06993 0.32308 0.48025 0.0
C969 C 0.09178 0.35106 0.51647 0.0
C970 C 0.08134 0.34676 0.38168 0.0
C971 C 0.09429 0.34209 0.32546 0.0
C972 C 0.09179 0.34827 0.25152 0.0
C973 C 0.07555 0.35948 0.23435 0.0
C974 C 0.06218 0.3646 0.29106 0.0
C975 C 0.06527 0.35839 0.36587 0.0
H976 H 0.03831 0.02536 0.15175 0.0
H977 H 0.99349 0.0587 0.04152 0.0
H978 H 0.98849 0.03233 0.95 0.0
H979 H 0.05887 0.00625 0.98337 0.0
H980 H 0.06426 0.98281 0.02226 0.0
H981 H 0.06353 0.00369 0.08262 0.0
H982 H 0.03808 0.98687 0.16721 0.0
H983 H 0.03882 0.96587 0.10731 0.0
H984 H 0.01613 0.97776 0.12564 0.0
H985 H 0.98856 0.00286 0.86987 0.0
H986 H 0.99384 0.97171 0.80501 0.0
H987 H 0.04004 0.95809 0.96104 0.0
C988 C 0.02728 0.02685 0.10894 0.0
C989 C 0.01614 0.04385 0.10353 0.0
C990 C 0.00207 0.04566 0.04625 0.0
C991 C 0.99913 0.0308 0.9942 0.0
C992 C 0.0105 0.01429 1e-05 0.0
C993 C 0.02431 0.01218 0.05575 0.0
C994 C 0.03506 0.99322 0.0471 0.0
C995 C 0.05671 0.99671 0.03298 0.0
C996 C 0.03182 0.98016 0.11591 0.0
C997 C 0.02517 0.98512 0.97784 0.0
C998 C 0.01096 0.99746 0.952 0.0
C999 C 0.99967 0.99307 0.88941 0.0
C1000 C 0.00284 0.97545 0.85269 0.0
C1001 C 0.01724 0.96255 0.87838 0.0
C1002 C 0.02873 0.96761 0.94105 0.0
H1003 H 0.29597 0.77107 0.14626 0.0
H1004 H 0.30372 0.70965 0.11047 0.0
H1005 H 0.27683 0.70278 0.19857 0.0
H1006 H 0.2848 0.76869 0.34282 0.0
H1007 H 0.26677 0.78747 0.3396 0.0
H1008 H 0.28648 0.7876 0.27339 0.0
H1009 H 0.2622 0.78817 0.16222 0.0
H1010 H 0.24245 0.78837 0.22811 0.0
H1011 H 0.24366 0.7699 0.15682 0.0
H1012 H 0.24971 0.70271 0.29251 0.0
H1013 H 0.22166 0.70952 0.37504 0.0
H1014 H 0.23138 0.77098 0.3487 0.0
C1015 C 0.29183 0.75622 0.15682 0.0
C1016 C 0.30171 0.74082 0.12208 0.0
C1017 C 0.29607 0.72155 0.13655 0.0
C1018 C 0.28098 0.71755 0.18678 0.0
C1019 C 0.27172 0.73304 0.22156 0.0
C1020 C 0.27672 0.752 0.20644 0.0
C1021 C 0.26413 0.76598 0.24984 0.0
C1022 C 0.27628 0.77815 0.30467 0.0
C1023 C 0.25242 0.77886 0.19603 0.0
C1024 C 0.25122 0.75194 0.29153 0.0
C1025 C 0.25597 0.733 0.27508 0.0
C1026 C 0.24587 0.71747 0.30592 0.0
C1027 C 0.23011 0.72143 0.353 0.0
C1028 C 0.22463 0.74071 0.36807 0.0
C1029 C 0.23551 0.75612 0.33821 0.0
H1030 H 0.52801 0.04112 0.46441 0.0
H1031 H 0.47756 0.03217 0.32433 0.0
H1032 H 0.46894 0.00319 0.39913 0.0
H1033 H 0.54039 0.99115 0.47744 0.0
H1034 H 0.54915 0.9928 0.57269 0.0
H1035 H 0.55023 0.01358 0.51201 0.0
H1036 H 0.53127 0.03314 0.61045 0.0
H1037 H 0.5293 0.01242 0.67121 0.0
H1038 H 0.50781 0.02497 0.64118 0.0
H1039 H 0.46639 0.97493 0.48661 0.0
H1040 H 0.47199 0.9471 0.57137 0.0
H1041 H 0.5249 0.97355 0.6511 0.0
C1042 C 0.51509 0.03306 0.45013 0.0
C1043 C 0.50334 0.03871 0.38919 0.0
C1044 C 0.48669 0.02787 0.3709 0.0
C1045 C 0.48165 0.01155 0.41334 0.0
C1046 C 0.49353 0.00629 0.47331 0.0
C1047 C 0.51006 0.01655 0.49108 0.0
C1048 C 0.5212 0.00693 0.55416 0.0
C1049 C 0.54143 0.00075 0.52745 0.0
C1050 C 0.52244 0.02016 0.62339 0.0
C1051 C 0.5084 0.98959 0.569 0.0
C1052 C 0.49237 0.98966 0.52243 0.0
C1053 C 0.47883 0.97476 0.52353 0.0
C1054 C 0.48207 0.95909 0.57178 0.0
C1055 C 0.49882 0.95837 0.6172 0.0
C1056 C 0.51188 0.974 0.6173 0.0
H1057 H 0.30554 0.22594 0.81322 0.0
H1058 H 0.29825 0.27701 0.9516 0.0
H1059 H 0.2674 0.28413 0.8872 0.0
H1060 H 0.28787 0.24783 0.64175 0.0
H1061 H 0.27609 0.22619 0.60886 0.0
H1062 H 0.29713 0.22446 0.66823 0.0
H1063 H 0.27793 0.20344 0.76303 0.0
H1064 H 0.25689 0.20499 0.70371 0.0
H1065 H 0.25546 0.21238 0.80074 0.0
H1066 H 0.23789 0.2859 0.80833 0.0
H1067 H 0.21046 0.28181 0.72097 0.0
H1068 H 0.23752 0.2308 0.62669 0.0
C1069 C 0.29754 0.23874 0.82917 0.0
C1070 C 0.30431 0.25111 0.8866 0.0
C1071 C 0.29319 0.26735 0.90788 0.0
C1072 C 0.27577 0.27157 0.87131 0.0
C1073 C 0.26978 0.25944 0.8133 0.0
C1074 C 0.28026 0.24333 0.79228 0.0
C1075 C 0.27063 0.23286 0.72735 0.0
C1076 C 0.28371 0.23284 0.65741 0.0
C1077 C 0.26488 0.2122 0.7501 0.0
C1078 C 0.25299 0.24552 0.71566 0.0
C1079 C 0.25287 0.26076 0.76603 0.0
C1080 C 0.23787 0.27413 0.76829 0.0
C1081 C 0.22242 0.27172 0.71851 0.0
C1082 C 0.22214 0.25617 0.66696 0.0
C1083 C 0.23769 0.243 0.6648 0.0
H1084 H 0.72172 0.26987 0.7797 0.0
H1085 H 0.72829 0.21681 0.90663 0.0
H1086 H 0.75936 0.21047 0.84219 0.0
H1087 H 0.7404 0.25105 0.60478 0.0
H1088 H 0.75239 0.27322 0.57902 0.0
H1089 H 0.73098 0.27391 0.6367 0.0
H1090 H 0.74954 0.29312 0.73899 0.0
H1091 H 0.77092 0.29267 0.68132 0.0
H1092 H 0.7718 0.2835 0.77613 0.0
H1093 H 0.78957 0.21009 0.76507 0.0
H1094 H 0.8178 0.21626 0.68313 0.0
H1095 H 0.79089 0.26865 0.60084 0.0
C1096 C 0.72971 0.25689 0.79347 0.0
C1097 C 0.72268 0.24372 0.84754 0.0
C1098 C 0.73358 0.22707 0.86548 0.0
C1099 C 0.75111 0.22331 0.82883 0.0
C1100 C 0.75742 0.23632 0.77426 0.0
C1101 C 0.7471 0.25281 0.75673 0.0
C1102 C 0.7571 0.26443 0.69586 0.0
C1103 C 0.74446 0.26572 0.62489 0.0
C1104 C 0.76268 0.28462 0.72484 0.0
C1105 C 0.77478 0.252 0.68243 0.0
C1106 C 0.77463 0.23583 0.7282 0.0
C1107 C 0.78976 0.22257 0.72841 0.0
C1108 C 0.80564 0.22611 0.68163 0.0
C1109 C 0.80615 0.24266 0.6351 0.0
C1110 C 0.79048 0.25566 0.63473 0.0
H1111 H 0.73142 0.73174 0.15876 0.0
H1112 H 0.72088 0.79314 0.1365 0.0
H1113 H 0.74959 0.80003 0.21575 0.0
H1114 H 0.74609 0.73216 0.34858 0.0
H1115 H 0.76471 0.71415 0.33799 0.0
H1116 H 0.7441 0.71406 0.27611 0.0
H1117 H 0.76669 0.7158 0.15998 0.0
H1118 H 0.78739 0.71556 0.22145 0.0
H1119 H 0.78447 0.7348 0.15412 0.0
H1120 H 0.77811 0.79996 0.30406 0.0
H1121 H 0.80665 0.79305 0.38412 0.0
H1122 H 0.79878 0.7317 0.3469 0.0
C1123 C 0.73548 0.74661 0.16958 0.0
C1124 C 0.72425 0.76199 0.14163 0.0
C1125 C 0.7296 0.78128 0.15714 0.0
C1126 C 0.74574 0.78527 0.20234 0.0
C1127 C 0.75633 0.76977 0.23081 0.0
C1128 C 0.75161 0.75082 0.21407 0.0
C1129 C 0.76528 0.7368 0.25203 0.0
C1130 C 0.75439 0.72351 0.30693 0.0
C1131 C 0.77663 0.72505 0.1934 0.0
C1132 C 0.77829 0.75078 0.29349 0.0
C1133 C 0.77284 0.76973 0.28086 0.0
C1134 C 0.78258 0.78519 0.31396 0.0
C1135 C 0.79862 0.78117 0.35963 0.0
C1136 C 0.80472 0.76191 0.37117 0.0
C1137 C 0.7943 0.74655 0.33858 0.0
H1138 H 0.49901 0.53966 0.56204 0.0
H1139 H 0.5581 0.5406 0.64219 0.0
H1140 H 0.5652 0.51093 0.56873 0.0
H1141 H 0.49315 0.48764 0.56842 0.0
H1142 H 0.47837 0.48684 0.48499 0.0
H1143 H 0.47829 0.50806 0.54357 0.0
H1144 H 0.48755 0.52898 0.4281 0.0
H1145 H 0.48797 0.50776 0.36939 0.0
H1146 H 0.50897 0.52312 0.37512 0.0
H1147 H 0.56588 0.48187 0.48416 0.0
H1148 H 0.55933 0.45313 0.40519 0.0
H1149 H 0.49946 0.47053 0.38328 0.0
C1150 C 0.51334 0.53338 0.56455 0.0
C1151 C 0.52804 0.54203 0.60777 0.0
C1152 C 0.54671 0.53383 0.60973 0.0
C1153 C 0.55085 0.51715 0.56788 0.0
C1154 C 0.5361 0.509 0.52483 0.0
C1155 C 0.51765 0.51667 0.52363 0.0
C1156 C 0.50428 0.50485 0.47429 0.0
C1157 C 0.48754 0.49634 0.52059 0.0
C1158 C 0.49676 0.5169 0.40779 0.0
C1159 C 0.51807 0.48925 0.44809 0.0
C1160 C 0.5364 0.49206 0.47718 0.0
C1161 C 0.55158 0.47948 0.46138 0.0
C1162 C 0.54776 0.46327 0.41654 0.0
C1163 C 0.52891 0.45972 0.3891 0.0
C1164 C 0.514 0.47308 0.40358 0.0
H1165 H 0.00362 0.54898 0.98235 0.0
H1166 H 0.99464 0.52029 0.76726 0.0
H1167 H 0.98533 0.49104 0.83352 0.0
H1168 H 0.03331 0.5089 0.03566 0.0
H1169 H 0.02838 0.51147 0.13471 0.0
H1170 H 0.02771 0.53232 0.07435 0.0
H1171 H 0.99291 0.53947 0.11944 0.0
H1172 H 0.99326 0.51832 0.17857 0.0
H1173 H 0.97446 0.52124 0.10934 0.0
H1174 H 0.97526 0.46522 0.92529 0.0
H1175 H 0.97985 0.43991 0.02034 0.0
H1176 H 0.01069 0.48053 0.16258 0.0
C1177 C 0.0003 0.53674 0.94748 0.0
C1178 C 0.99914 0.53796 0.86776 0.0
C1179 C 0.99411 0.52094 0.82761 0.0
C1180 C 0.98903 0.5039 0.8651 0.0
C1181 C 0.99043 0.50342 0.94301 0.0
C1182 C 0.99724 0.51899 0.98324 0.0
C1183 C 0.00266 0.51311 0.06291 0.0
C1184 C 0.0243 0.51665 0.07774 0.0
C1185 C 0.99006 0.52367 0.12098 0.0
C1186 C 0.99793 0.49169 0.06043 0.0
C1187 C 0.98961 0.48691 0.99226 0.0
C1188 C 0.98256 0.46853 0.97756 0.0
C1189 C 0.98547 0.45422 0.03163 0.0
C1190 C 0.99696 0.45785 0.09615 0.0
C1191 C 0.00235 0.47712 0.11286 0.0
H1192 H 0.99003 0.12645 0.86904 0.0
H1193 H 0.0487 0.1074 0.91293 0.0
H1194 H 0.04784 0.08699 0.79982 0.0
H1195 H 0.97207 0.08075 0.78687 0.0
H1196 H 0.95799 0.09279 0.71557 0.0
H1197 H 0.96208 0.10436 0.80504 0.0
H1198 H 0.97657 0.13429 0.73769 0.0
H1199 H 0.97216 0.12295 0.64833 0.0
H1200 H 0.99617 0.13101 0.67213 0.0
H1201 H 0.04189 0.07041 0.67958 0.0
H1202 H 0.03288 0.06237 0.54921 0.0
H1203 H 0.97827 0.09229 0.57895 0.0
C1204 C 0.00259 0.11787 0.85467 0.0
C1205 C 0.01942 0.11847 0.89945 0.0
C1206 C 0.03571 0.10726 0.87889 0.0
C1207 C 0.03528 0.09541 0.81536 0.0
C1208 C 0.01849 0.095 0.77243 0.0
C1209 C 0.00253 0.10613 0.79029 0.0
C1210 C 0.98715 0.10447 0.7299 0.0
C1211 C 0.96873 0.09503 0.76124 0.0
C1212 C 0.98277 0.12436 0.69494 0.0
C1213 C 0.99727 0.09121 0.6745 0.0
C1214 C 0.01514 0.08554 0.70124 0.0
C1215 C 0.02784 0.07453 0.65818 0.0
C1216 C 0.02258 0.06997 0.58427 0.0
C1217 C 0.00486 0.0766 0.55402 0.0
C1218 C 0.99173 0.08664 0.60092 0.0
H1219 H 0.13535 0.72343 0.09397 0.0
H1220 H 0.17329 0.7723 0.13235 0.0
H1221 H 0.19268 0.7632 0.02165 0.0
H1222 H 0.17274 0.68989 0.01321 0.0
H1223 H 0.1561 0.68053 0.94421 0.0
H1224 H 0.14731 0.68849 0.0345 0.0
H1225 H 0.12342 0.71206 0.96919 0.0
H1226 H 0.13182 0.70373 0.8794 0.0
H1227 H 0.13258 0.72915 0.90145 0.0
H1228 H 0.20512 0.75199 0.90098 0.0
H1229 H 0.20645 0.74279 0.76732 0.0
H1230 H 0.16079 0.70095 0.80375 0.0
C1231 C 0.14789 0.732 0.07904 0.0
C1232 C 0.15291 0.74852 0.1208 0.0
C1233 C 0.16919 0.75966 0.10009 0.0
C1234 C 0.18047 0.75441 0.03828 0.0
C1235 C 0.17522 0.738 -0.00211 0.0
C1236 C 0.15916 0.72708 0.01665 0.0
C1237 C 0.15502 0.71193 0.95749 0.0
C1238 C 0.15798 0.6915 0.98928 0.0
C1239 C 0.13451 0.71439 0.92494 0.0
C1240 C 0.17051 0.71687 0.9004 0.0
C1241 C 0.18245 0.73147 0.9263 0.0
C1242 C 0.1962 0.74027 0.88047 0.0
C1243 C 0.19691 0.73494 0.80475 0.0
C1244 C 0.18384 0.72109 0.77598 0.0
C1245 C 0.17132 0.71114 0.82515 0.0
H1246 H 0.50746 0.89117 0.02929 0.0
H1247 H 0.54137 0.94357 0.05048 0.0
H1248 H 0.55033 0.93412 0.18085 0.0
H1249 H 0.48861 0.88913 0.21127 0.0
H1250 H 0.49055 0.86323 0.21883 0.0
H1251 H 0.4877 0.87427 0.12807 0.0
H1252 H 0.51898 0.85715 0.0823 0.0
H1253 H 0.522 0.84627 0.17366 0.0
H1254 H 0.54119 0.86056 0.13358 0.0
H1255 H 0.55238 0.92017 0.31248 0.0
H1256 H 0.54712 0.90383 0.43284 0.0
H1257 H 0.51493 0.85861 0.31906 0.0
C1258 C 0.51658 0.9008 0.06171 0.0
C1259 C 0.52332 0.91836 0.03126 0.0
C1260 C 0.53581 0.93023 0.07394 0.0
C1261 C 0.54109 0.92488 0.14741 0.0
C1262 C 0.53423 0.90733 0.17566 0.0
C1263 C 0.52239 0.89543 0.13366 0.0
C1264 C 0.51672 0.87745 0.17645 0.0
C1265 C 0.49459 0.87595 0.18414 0.0
C1266 C 0.52523 0.85929 0.13928 0.0
C1267 C 0.52634 0.88154 0.25102 0.0
C1268 C 0.53658 0.8987 0.24934 0.0
C1269 C 0.54491 0.90643 0.31395 0.0
C1270 C 0.54204 0.8968 0.38246 0.0
C1271 C 0.53104 0.8795 0.38573 0.0
C1272 C 0.52378 0.87152 0.31836 0.0
H1273 H 0.34162 0.23964 0.3264 0.0
H1274 H 0.34652 0.30082 0.27646 0.0
H1275 H 0.3568 0.30703 0.40688 0.0
H1276 H 0.32643 0.2457 0.53137 0.0
H1277 H 0.34031 0.22473 0.5576 0.0
H1278 H 0.32907 0.22591 0.46626 0.0
H1279 H 0.36239 0.21943 0.40452 0.0
H1280 H 0.37386 0.21881 0.49508 0.0
H1281 H 0.38231 0.23545 0.4244 0.0
H1282 H 0.37275 0.3056 0.53454 0.0
H1283 H 0.38943 0.29679 0.65331 0.0
H1284 H 0.37383 0.23678 0.61765 0.0
C1285 C 0.34405 0.25444 0.34376 0.0
C1286 C 0.34328 0.26971 0.29133 0.0
C1287 C 0.34684 0.28888 0.31582 0.0
C1288 C 0.35278 0.29257 0.38983 0.0
C1289 C 0.35468 0.27699 0.43885 0.0
C1290 C 0.34991 0.25836 0.41733 0.0
C1291 C 0.35496 0.24388 0.4778 0.0
C1292 C 0.3366 0.23451 0.51018 0.0
C1293 C 0.36923 0.2285 0.44866 0.0
C1294 C 0.36439 0.25709 0.53453 0.0
C1295 C 0.36384 0.27618 0.51201 0.0
C1296 C 0.37285 0.29075 0.55362 0.0
C1297 C 0.38236 0.28564 0.62059 0.0
C1298 C 0.38288 0.26615 0.6444 0.0
C1299 C 0.37377 0.2518 0.60059 0.0
H1300 H 0.02559 0.89633 0.46536 0.0
H1301 H 0.98067 0.93964 0.44336 0.0
H1302 H 0.97411 0.92825 0.31323 0.0
H1303 H 0.04428 0.89825 0.28205 0.0
H1304 H 0.04821 0.87255 0.27582 0.0
H1305 H 0.04869 0.88429 0.36593 0.0
H1306 H 0.02229 0.86063 0.41361 0.0
H1307 H 0.0214 0.84908 0.32284 0.0
H1308 H 0.99967 0.85886 0.3638 0.0
H1309 H 0.97498 0.91372 0.18217 0.0
H1310 H 0.9833 0.89828 0.0625 0.0
H1311 H 0.02515 0.86201 0.17698 0.0
C1312 C 0.01455 0.90364 0.43282 0.0
C1313 C 0.00395 0.91921 0.46315 0.0
C1314 C 0.98914 0.92792 0.42012 0.0
C1315 C 0.98523 0.92142 0.34674 0.0
C1316 C 0.99588 0.90585 0.3188 0.0
C1317 C 0.01013 0.89702 0.36094 0.0
C1318 C 0.01961 0.88065 0.31868 0.0
C1319 C 0.04148 0.88416 0.31008 0.0
C1320 C 0.01549 0.86115 0.35702 0.0
C1321 C 0.00917 0.88219 0.24435 0.0
C1322 C 0.99537 0.89665 0.24562 0.0
C1323 C 0.98531 0.90199 0.18109 0.0
C1324 C 0.98999 0.89285 0.11307 0.0
C1325 C 0.00451 0.87837 0.11023 0.0
C1326 C 0.01365 0.87263 0.17752 0.0
H1327 H 0.3549 0.70312 0.65781 0.0
H1328 H 0.31948 0.75425 0.68857 0.0
H1329 H 0.32574 0.76374 0.55728 0.0
H1330 H 0.39073 0.72461 0.56525 0.0
H1331 H 0.3962 0.70568 0.49896 0.0
H1332 H 0.38526 0.69979 0.58769 0.0
H1333 H 0.35678 0.68278 0.5203 0.0
H1334 H 0.36791 0.68806 0.43095 0.0
H1335 H 0.34339 0.69555 0.44891 0.0
H1336 H 0.34141 0.77146 0.43692 0.0
H1337 H 0.36193 0.77475 0.32465 0.0
H1338 H 0.38714 0.71846 0.368 0.0
C1339 C 0.34764 0.71577 0.63576 0.0
C1340 C 0.3366 0.72792 0.68313 0.0
C1341 C 0.32786 0.7447 0.653 0.0
C1342 C 0.33138 0.75022 0.57855 0.0
C1343 C 0.34347 0.73867 0.53494 0.0
C1344 C 0.3511 0.72153 0.56157 0.0
C1345 C 0.36542 0.71298 0.50608 0.0
C1346 C 0.38559 0.71064 0.54166 0.0
C1347 C 0.35792 0.6937 0.47469 0.0
C1348 C 0.36541 0.72853 0.44619 0.0
C1349 C 0.35251 0.74311 0.46388 0.0
C1350 C 0.35118 0.75993 0.4214 0.0
C1351 C 0.3631 0.76177 0.3584 0.0
C1352 C 0.37607 0.74684 0.33807 0.0
C1353 C 0.3772 0.72997 0.3823 0.0
H1354 H 0.5349 0.09689 0.59093 0.0
H1355 H 0.51442 0.15438 0.64655 0.0
H1356 H 0.51657 0.14641 0.7816 0.0
H1357 H 0.50871 0.07262 0.72613 0.0
H1358 H 0.52708 0.05492 0.74673 0.0
H1359 H 0.52626 0.06625 0.65563 0.0
H1360 H 0.56194 0.0772 0.67254 0.0
H1361 H 0.56258 0.06603 0.76407 0.0
H1362 H 0.56854 0.09125 0.75398 0.0
H1363 H 0.51655 0.13096 0.90785 0.0
H1364 H 0.5173 0.10986 0.01969 0.0
H1365 H 0.53906 0.06262 0.88382 0.0
C1366 C 0.53174 0.10813 0.63125 0.0
C1367 C 0.52491 0.12645 0.60811 0.0
C1368 C 0.51994 0.14036 0.66314 0.0
C1369 C 0.52109 0.13596 0.7399 0.0
C1370 C 0.52731 0.11757 0.76072 0.0
C1371 C 0.53284 0.10396 0.70816 0.0
C1372 C 0.53758 0.08481 0.74529 0.0
C1373 C 0.52411 0.0687 0.71677 0.0
C1374 C 0.55894 0.07952 0.73327 0.0
C1375 C 0.5335 0.08967 0.82682 0.0
C1376 C 0.52753 0.10866 0.83424 0.0
C1377 C 0.52154 0.11619 0.90297 0.0
C1378 C 0.52185 0.10407 0.96596 0.0
C1379 C 0.52822 0.0847 0.95989 0.0
C1380 C 0.53426 0.07744 0.88965 0.0
H1381 H 0.13998 0.28692 0.92081 0.0
H1382 H 0.15878 0.22888 0.86491 0.0
H1383 H 0.17995 0.22845 0.97575 0.0
H1384 H 0.18636 0.30385 0.00644 0.0
H1385 H 0.17423 0.3168 0.08064 0.0
H1386 H 0.16281 0.31416 0.99004 0.0
H1387 H 0.1327 0.29876 0.0531 0.0
H1388 H 0.14391 0.30172 0.14354 0.0
H1389 H 0.13582 0.27815 0.11397 0.0
H1390 H 0.19617 0.23233 0.09688 0.0
H1391 H 0.20295 0.23866 0.23068 0.0
H1392 H 0.17375 0.29395 0.21303 0.0
C1393 C 0.14877 0.27429 0.93188 0.0
C1394 C 0.14788 0.25799 0.88443 0.0
C1395 C 0.15927 0.24152 0.9008 0.0
C1396 C 0.17153 0.24121 0.96306 0.0
C1397 C 0.17216 0.25744 0.00899 0.0
C1398 C 0.16091 0.27359 0.99508 0.0
C1399 C 0.16249 0.28797 0.05906 0.0
C1400 C 0.17204 0.30681 0.03243 0.0
C1401 C 0.14255 0.29186 0.09451 0.0
C1402 C 0.17565 0.27694 0.11218 0.0
C1403 C 0.18149 0.25961 0.08101 0.0
C1404 C 0.19203 0.246 0.12165 0.0
C1405 C 0.19586 0.24972 0.1975 0.0
C1406 C 0.18905 0.26684 0.2318 0.0
C1407 C 0.17961 0.28099 0.18768 0.0
H1408 H 0.83948 0.25333 0.19922 0.0
H1409 H 0.85745 0.19404 0.23642 0.0
H1410 H 0.86805 0.19181 0.10444 0.0
H1411 H 0.82549 0.24743 0.99247 0.0
H1412 H 0.83481 0.27118 0.97191 0.0
H1413 H 0.82405 0.26628 0.06226 0.0
H1414 H 0.85536 0.27849 0.12666 0.0
H1415 H 0.86652 0.28276 0.03704 0.0
H1416 H 0.87811 0.26713 0.10443 0.0
H1417 H 0.88315 0.19841 0.97862 0.0
H1418 H 0.89748 0.21213 0.86255 0.0
H1419 H 0.86991 0.26706 0.90994 0.0
C1420 C 0.84482 0.2396 0.17865 0.0
C1421 C 0.8477 0.22391 0.22792 0.0
C1422 C 0.85496 0.20622 0.19944 0.0
C1423 C 0.86112 0.20484 0.12456 0.0
C1424 C 0.85953 0.22114 0.079 0.0
C1425 C 0.85105 0.23803 0.1044 0.0
C1426 C 0.85305 0.25418 0.04772 0.0
C1427 C 0.83317 0.26011 0.01674 0.0
C1428 C 0.86391 0.27165 0.08099 0.0
C1429 C 0.86495 0.24408 0.98856 0.0
C1430 C 0.86832 0.22496 0.00677 0.0
C1431 C 0.88016 0.21321 0.96275 0.0
C1432 C 0.88832 0.22112 0.89741 0.0
C1433 C 0.88467 0.24056 0.87752 0.0
C1434 C 0.87298 0.25215 0.92406 0.0
H1435 H 0.6905 0.7539 0.71142 0.0
H1436 H 0.6677 0.81164 0.74539 0.0
H1437 H 0.65713 0.81257 0.61311 0.0
H1438 H 0.70415 0.76011 0.50457 0.0
H1439 H 0.69675 0.73564 0.48525 0.0
H1440 H 0.707 0.7417 0.57542 0.0
H1441 H 0.6767 0.72729 0.64015 0.0
H1442 H 0.66598 0.72184 0.55066 0.0
H1443 H 0.65314 0.73674 0.61707 0.0
H1444 H 0.64281 0.80439 0.48751 0.0
H1445 H 0.62983 0.78925 0.37177 0.0
H1446 H 0.66153 0.73679 0.42231 0.0
C1447 C 0.6841 0.76709 0.69007 0.0
C1448 C 0.67988 0.78265 0.73849 0.0
C1449 C 0.67124 0.79959 0.70904 0.0
C1450 C 0.66508 0.80022 0.634 0.0
C1451 C 0.66803 0.78395 0.58932 0.0
C1452 C 0.67782 0.76788 0.61569 0.0
C1453 C 0.67715 0.75142 0.55989 0.0
C1454 C 0.69747 0.74697 0.52946 0.0
C1455 C 0.66767 0.73327 0.59403 0.0
C1456 C 0.66454 0.76033 0.50005 0.0
C1457 C 0.65964 0.77918 0.51724 0.0
C1458 C 0.64698 0.78983 0.47244 0.0
C1459 C 0.63959 0.78111 0.40731 0.0
C1460 C 0.64482 0.76196 0.38838 0.0
C1461 C 0.65727 0.75145 0.43575 0.0
H1462 H 0.66201 0.22814 0.61377 0.0
H1463 H 0.60212 0.24139 0.56566 0.0
H1464 H 0.60735 0.23293 0.43208 0.0
H1465 H 0.68054 0.25024 0.46401 0.0
H1466 H 0.69979 0.23348 0.44392 0.0
H1467 H 0.69051 0.23544 0.53789 0.0
H1468 H 0.68293 0.1988 0.54009 0.0
H1469 H 0.69255 0.19657 0.44624 0.0
H1470 H 0.66838 0.18835 0.46647 0.0
H1471 H 0.62017 0.22963 0.3047 0.0
H1472 H 0.63966 0.23143 0.18944 0.0
H1473 H 0.69168 0.21985 0.31718 0.0
C1474 C 0.6498 0.2282 0.57568 0.0
C1475 C 0.63149 0.23469 0.59959 0.0
C1476 C 0.61607 0.23593 0.54798 0.0
C1477 C 0.61893 0.23111 0.47239 0.0
C1478 C 0.63732 0.22521 0.4499 0.0
C1479 C 0.6525 0.22359 0.50006 0.0
C1480 C 0.67145 0.21985 0.45986 0.0
C1481 C 0.68644 0.2357 0.47747 0.0
C1482 C 0.67929 0.19969 0.47932 0.0
C1483 C 0.66475 0.22079 0.37898 0.0
C1484 C 0.64493 0.22344 0.37482 0.0
C1485 C 0.63556 0.22692 0.30702 0.0
C1486 C 0.64673 0.22789 0.24187 0.0
C1487 C 0.66698 0.22525 0.24485 0.0
C1488 C 0.67613 0.2214 0.31385 0.0
H1489 H 0.86929 0.73726 0.09473 0.0
H1490 H 0.89813 0.79099 0.15106 0.0
H1491 H 0.88498 0.80602 0.03554 0.0
H1492 H 0.8786 0.73904 0.89977 0.0
H1493 H 0.85574 0.72843 0.87401 0.0
H1494 H 0.86638 0.72292 0.96367 0.0
H1495 H 0.83487 0.73437 0.02936 0.0
H1496 H 0.82438 0.74042 0.93962 0.0
H1497 H 0.82602 0.75847 0.01239 0.0
H1498 H 0.87007 0.81446 0.91111 0.0
H1499 H 0.8588 0.81428 0.7796 0.0
H1500 H 0.83946 0.75499 0.8063 0.0
C1501 C 0.87292 0.75216 0.0825 0.0
C1502 C 0.88452 0.76309 0.13179 0.0
C1503 C 0.88897 0.78253 0.11427 0.0
C1504 C 0.88149 0.79118 0.04919 0.0
C1505 C 0.86958 0.78015 0.00273 0.0
C1506 C 0.86553 0.761 0.01818 0.0
C1507 C 0.85354 0.75186 0.95676 0.0
C1508 C 0.86421 0.73456 0.92146 0.0
C1509 C 0.83351 0.74594 0.98632 0.0
C1510 C 0.85207 0.76867 0.9028 0.0
C1511 C 0.86104 0.78499 0.931 0.0
C1512 C 0.86281 0.80185 0.88871 0.0
C1513 C 0.85624 0.80165 0.81414 0.0
C1514 C 0.84831 0.78459 0.78269 0.0
C1515 C 0.84532 0.76829 0.82897 0.0
H1516 H 0.51234 0.64076 0.29975 0.0
H1517 H 0.49387 0.58962 0.42121 0.0
H1518 H 0.4836 0.57459 0.30356 0.0
H1519 H 0.47486 0.63784 0.14429 0.0
H1520 H 0.49224 0.64547 0.07492 0.0
H1521 H 0.49396 0.65427 0.17012 0.0
H1522 H 0.52925 0.64181 0.17802 0.0
H1523 H 0.52766 0.63291 0.08339 0.0
H1524 H 0.53422 0.61672 0.1586 0.0
H1525 H 0.47993 0.56284 0.17173 0.0
H1526 H 0.48411 0.55568 0.03558 0.0
H1527 H 0.50622 0.61357 0.00078 0.0
C1528 C 0.50548 0.6267 0.30165 0.0
C1529 C 0.50326 0.61678 0.37022 0.0
C1530 C 0.4949 0.59805 0.37036 0.0
C1531 C 0.4891 0.58924 0.30334 0.0
C1532 C 0.4918 0.59927 0.23651 0.0
C1533 C 0.49969 0.61766 0.23511 0.0
C1534 C 0.50341 0.6243 0.15554 0.0
C1535 C 0.49034 0.64149 0.13503 0.0
C1536 C 0.52491 0.62921 0.14322 0.0
C1537 C 0.49754 0.60633 0.11312 0.0
C1538 C 0.49037 0.59221 0.16032 0.0
C1539 C 0.48523 0.57388 0.1339 0.0
C1540 C 0.48771 0.56988 0.05709 0.0
C1541 C 0.49565 0.58404 0.00924 0.0
C1542 C 0.50023 0.60252 0.03718 0.0
H1543 H 0.99508 0.392 0.83936 0.0
H1544 H 0.04903 0.36153 0.87679 0.0
H1545 H 0.06188 0.3749 0.75754 0.0
H1546 H 0.9929 0.38388 0.64113 0.0
H1547 H 0.98228 0.40714 0.62194 0.0
H1548 H 0.97811 0.39558 0.71107 0.0
H1549 H 0.99116 0.42611 0.77906 0.0
H1550 H 0.99579 0.43758 0.6899 0.0
H1551 H 0.01506 0.43485 0.75731 0.0
H1552 H 0.06854 0.39173 0.63366 0.0
H1553 H 0.06699 0.40651 0.50769 0.0
H1554 H 0.00819 0.42522 0.55192 0.0
C1555 C 0.00954 0.38793 0.82228 0.0
C1556 C 0.02118 0.37593 0.86779 0.0
C1557 C 0.04003 0.37102 0.84341 0.0
C1558 C 0.04743 0.37857 0.77595 0.0
C1559 C 0.03573 0.3909 0.73368 0.0
C1560 C 0.01708 0.39527 0.75545 0.0
C1561 C 0.00707 0.4081 0.69874 0.0
C1562 C 0.98903 0.39807 0.66629 0.0
C1563 C 0.00197 0.42783 0.73334 0.0
C1564 C 0.02287 0.41001 0.64057 0.0
C1565 C 0.03942 0.40029 0.66228 0.0
C1566 C 0.05569 0.39946 0.6163 0.0
C1567 C 0.05471 0.40807 0.54497 0.0
C1568 C 0.03745 0.41709 0.51997 0.0
C1569 C 0.02162 0.41859 0.56964 0.0
H1570 H 0.53604 0.39009 0.66654 0.0
H1571 H 0.4782 0.3712 0.60772 0.0
H1572 H 0.46553 0.38617 0.72409 0.0
H1573 H 0.53212 0.38063 0.86282 0.0
H1574 H 0.54652 0.40124 0.88938 0.0
H1575 H 0.55037 0.3898 0.79986 0.0
H1576 H 0.54494 0.42281 0.73377 0.0
H1577 H 0.54057 0.43423 0.82324 0.0
H1578 H 0.52273 0.43581 0.74959 0.0
H1579 H 0.4595 0.40242 0.84859 0.0
H1580 H 0.46117 0.41452 0.97885 0.0
H1581 H 0.52307 0.42286 0.95466 0.0
C1582 C 0.52072 0.38897 0.67845 0.0
C1583 C 0.50802 0.37974 0.62794 0.0
C1584 C 0.48808 0.37856 0.64522 0.0
C1585 C 0.48077 0.38706 0.71093 0.0
C1586 C 0.49363 0.39662 0.75846 0.0
C1587 C 0.51322 0.39738 0.74347 0.0
C1588 C 0.52416 0.40757 0.80541 0.0
C1589 C 0.53916 0.394 0.84151 0.0
C1590 C 0.53366 0.42621 0.77623 0.0
C1591 C 0.50773 0.41202 0.85867 0.0
C1592 C 0.49018 0.4059 0.8301 0.0
C1593 C 0.47313 0.40741 0.87134 0.0
C1594 C 0.47421 0.41444 0.94519 0.0
C1595 C 0.49227 0.41961 0.97708 0.0
C1596 C 0.50903 0.41918 0.93181 0.0
H1597 H 0.03231 0.56549 0.38673 0.0
H1598 H 0.00903 0.615 0.50567 0.0
H1599 H 0.01526 0.63562 0.39566 0.0
H1600 H 0.06883 0.59175 0.2705 0.0
H1601 H 0.06383 0.57748 0.18796 0.0
H1602 H 0.06104 0.56701 0.2802 0.0
H1603 H 0.02552 0.55788 0.24961 0.0
H1604 H 0.02843 0.56788 0.15712 0.0
H1605 H 0.0092 0.57637 0.21695 0.0
H1606 H 0.0204 0.65012 0.27224 0.0
H1607 H 0.01893 0.65639 0.13587 0.0
H1608 H 0.03751 0.59773 0.09178 0.0
C1609 C 0.02881 0.58073 0.38942 0.0
C1610 C 0.02035 0.58876 0.45437 0.0
C1611 C 0.0155 0.60862 0.45606 0.0
C1612 C 0.01924 0.6205 0.39432 0.0
C1613 C 0.02759 0.61225 0.33086 0.0
C1614 C 0.03196 0.59275 0.32713 0.0
C1615 C 0.038 0.58706 0.24825 0.0
C1616 C 0.05919 0.58043 0.24667 0.0
C1617 C 0.02448 0.57139 0.21611 0.0
C1618 C 0.03554 0.60623 0.20794 0.0
C1619 C 0.03017 0.62068 0.25742 0.0
C1620 C 0.02503 0.63911 0.23299 0.0
C1621 C 0.02434 0.6426 0.15563 0.0
C1622 C 0.02871 0.62773 0.10404 0.0
C1623 C 0.03509 0.60958 0.13039 0.0
loop_
_geom_bond_atom_site_label_1
_geom_bond_atom_site_label_2
_geom_bond_distance
_geom_bond_site_symmetry_2
_ccdc_geom_bond_type
Co0 O3 1.970 1_455 S
Co0 N17 1.989 . S
Co0 O25 1.967 . S
Co0 O32 1.920 . S
Co1 O4 1.957 1_455 S
Co1 N10 2.022 . S
Co1 N18 1.993 . S
Co1 O26 1.941 . S
C2 O3 1.258 . S
C2 O4 1.269 . S
O3 Co0 1.970 1_655 S
O3 C2 1.258 . S
O4 Co1 1.957 1_655 S
O4 C2 1.269 . S
C5 O6 1.235 1_455 S
C5 O32 1.289 . S
O6 C5 1.235 1_655 S
C7 C9 1.400 . S
C7 N10 1.351 1_556 S
C7 C12 1.501 1_456 S
C8 C9 1.387 . S
C8 N11 1.341 . S
C9 C7 1.400 . S
C9 C8 1.387 . S
N10 Co1 2.022 . S
N10 C7 1.351 1_554 S
N10 N11 1.365 1_554 S
N11 C8 1.341 . S
N11 N10 1.365 1_556 S
N11 H31 0.862 1_556 S
C12 C7 1.501 1_654 S
C12 H13 0.961 . S
C12 H14 0.961 . S
C12 H15 0.960 . S
H13 C12 0.961 . S
H14 C12 0.961 . S
H15 C12 0.960 . S
C16 N17 1.342 . S
C16 C20 1.401 . S
C16 C21 1.499 . S
N17 Co0 1.989 . S
N17 C16 1.342 . S
N17 N18 1.388 . S
N18 Co1 1.993 . S
N18 N17 1.388 . S
N18 C19 1.346 . S
C19 N18 1.346 . S
C19 C20 1.396 . S
C19 C29 1.510 . S
C20 C16 1.401 . S
C20 C19 1.396 . S
C21 C16 1.499 . S
C21 H22 0.959 . S
C21 H23 0.960 . S
C21 H24 0.961 . S
H22 C21 0.959 . S
H23 C21 0.960 . S
H24 C21 0.961 . S
O25 Co0 1.967 . S
O25 C33 1.258 . S
O26 Co1 1.941 . S
O26 C33 1.266 . S
H27 C29 0.959 . S
H28 C29 0.961 . S
C29 C19 1.510 . S
C29 H27 0.959 . S
C29 H28 0.961 . S
C29 H30 0.960 . S
H30 C29 0.960 . S
H31 N11 0.862 1_554 S
O32 Co0 1.920 . S
O32 C5 1.289 . S
C33 O25 1.258 . S
C33 O26 1.266 . S
Co34 O37 1.970 . S
Co34 N51 1.989 . S
Co34 O59 1.967 . S
Co34 O66 1.920 . S
Co35 O38 1.966 . S
Co35 N44 2.022 . S
Co35 N52 1.993 . S
Co35 O60 1.941 . S
C36 O37 1.258 . S
C36 O38 1.263 . S
O37 Co34 1.970 . S
O37 C36 1.258 . S
O38 Co35 1.966 . S
O38 C36 1.263 . S
C39 O40 1.235 . S
C39 O66 1.289 . S
O40 C39 1.235 . S
C41 C43 1.400 . S
C41 N44 1.351 . S
C41 C46 1.501 . S
C42 C43 1.387 . S
C42 N45 1.341 . S
C43 C41 1.400 . S
C43 C42 1.387 . S
N44 Co35 2.022 . S
N44 C41 1.351 . S
N44 N45 1.365 . S
N45 C42 1.341 . S
N45 N44 1.365 . S
N45 H65 0.862 . S
C46 C41 1.501 . S
C46 H47 0.961 . S
C46 H48 0.961 . S
C46 H49 0.960 . S
H47 C46 0.961 . S
H48 C46 0.961 . S
H49 C46 0.960 . S
C50 N51 1.342 . S
C50 C54 1.401 . S
C50 C55 1.499 . S
N51 Co34 1.989 . S
N51 C50 1.342 . S
N51 N52 1.388 . S
N52 Co35 1.993 . S
N52 N51 1.388 . S
N52 C53 1.346 . S
C53 N52 1.346 . S
C53 C54 1.396 . S
C53 C63 1.510 . S
C54 C50 1.401 . S
C54 C53 1.396 . S
C55 C50 1.499 . S
C55 H56 0.959 . S
C55 H57 0.960 . S
C55 H58 0.961 . S
H56 C55 0.959 . S
H57 C55 0.960 . S
H58 C55 0.961 . S
O59 Co34 1.967 . S
O59 C67 1.258 . S
O60 Co35 1.941 . S
O60 C67 1.266 . S
H61 C63 0.959 . S
H62 C63 0.961 . S
C63 C53 1.510 . S
C63 H61 0.959 . S
C63 H62 0.961 . S
C63 H64 0.960 . S
H64 C63 0.960 . S
H65 N45 0.862 . S
O66 Co34 1.920 . S
O66 C39 1.289 . S
C67 O59 1.258 . S
C67 O60 1.266 . S
Co68 O71 1.970 . S
Co68 N85 1.989 . S
Co68 O93 1.967 . S
Co68 O100 1.920 . S
Co69 O72 1.966 . S
Co69 N78 2.022 . S
Co69 N86 1.993 . S
Co69 O94 1.941 . S
C70 O71 1.258 . S
C70 O72 1.263 . S
O71 Co68 1.970 . S
O71 C70 1.258 . S
O72 Co69 1.966 . S
O72 C70 1.263 . S
C73 O74 1.235 . S
C73 O100 1.289 . S
O74 C73 1.235 . S
C75 C77 1.400 . S
C75 N78 1.351 . S
C75 C80 1.501 . S
C76 C77 1.387 . S
C76 N79 1.341 . S
C77 C75 1.400 . S
C77 C76 1.387 . S
N78 Co69 2.022 . S
N78 C75 1.351 . S
N78 N79 1.365 . S
N79 C76 1.341 . S
N79 N78 1.365 . S
N79 H99 0.862 . S
C80 C75 1.501 . S
C80 H81 0.961 . S
C80 H82 0.961 . S
C80 H83 0.960 . S
H81 C80 0.961 . S
H82 C80 0.961 . S
H83 C80 0.960 . S
C84 N85 1.342 . S
C84 C88 1.401 . S
C84 C89 1.499 . S
N85 Co68 1.989 . S
N85 C84 1.342 . S
N85 N86 1.388 . S
N86 Co69 1.993 . S
N86 N85 1.388 . S
N86 C87 1.346 . S
C87 N86 1.346 . S
C87 C88 1.396 . S
C87 C97 1.510 . S
C88 C84 1.401 . S
C88 C87 1.396 . S
C89 C84 1.499 . S
C89 H90 0.959 . S
C89 H91 0.960 . S
C89 H92 0.961 . S
H90 C89 0.959 . S
H91 C89 0.960 . S
H92 C89 0.961 . S
O93 Co68 1.967 . S
O93 C101 1.258 . S
O94 Co69 1.941 . S
O94 C101 1.266 . S
H95 C97 0.959 . S
H96 C97 0.961 . S
C97 C87 1.510 . S
C97 H95 0.959 . S
C97 H96 0.961 . S
C97 H98 0.960 . S
H98 C97 0.960 . S
H99 N79 0.862 . S
O100 Co68 1.920 . S
O100 C73 1.289 . S
C101 O93 1.258 . S
C101 O94 1.266 . S
Co102 O105 1.970 . S
Co102 N119 1.989 . S
Co102 O127 1.967 . S
Co102 O134 1.920 . S
Co103 O106 1.966 . S
Co103 N112 2.022 . S
Co103 N120 1.993 . S
Co103 O128 1.941 . S
C104 O105 1.258 . S
C104 O106 1.263 1_554 S
O105 Co102 1.970 . S
O105 C104 1.258 . S
O106 Co103 1.966 . S
O106 C104 1.263 1_556 S
C107 O108 1.235 . S
C107 O134 1.289 . S
O108 C107 1.235 . S
C109 C111 1.400 . S
C109 N112 1.351 . S
C109 C114 1.501 . S
C110 C111 1.387 . S
C110 N113 1.341 . S
C111 C109 1.400 . S
C111 C110 1.387 . S
N112 Co103 2.022 . S
N112 C109 1.351 . S
N112 N113 1.365 . S
N113 C110 1.341 . S
N113 N112 1.365 . S
N113 H133 0.862 . S
C114 C109 1.501 . S
C114 H115 0.961 . S
C114 H116 0.961 . S
C114 H117 0.960 . S
H115 C114 0.961 . S
H116 C114 0.961 . S
H117 C114 0.960 . S
C118 N119 1.342 . S
C118 C122 1.401 1_554 S
C118 C123 1.499 . S
N119 Co102 1.989 . S
N119 C118 1.342 . S
N119 N120 1.388 1_554 S
N120 Co103 1.993 . S
N120 N119 1.388 1_556 S
N120 C121 1.346 . S
C121 N120 1.346 . S
C121 C122 1.396 . S
C121 C131 1.510 . S
C122 C118 1.401 1_556 S
C122 C121 1.396 . S
C123 C118 1.499 . S
C123 H124 0.959 . S
C123 H125 0.960 . S
C123 H126 0.961 . S
H124 C123 0.959 . S
H125 C123 0.960 . S
H126 C123 0.961 . S
O127 Co102 1.967 . S
O127 C135 1.258 . S
O128 Co103 1.941 . S
O128 C135 1.266 1_556 S
H129 C131 0.959 . S
H130 C131 0.961 . S
C131 C121 1.510 . S
C131 H129 0.959 . S
C131 H130 0.961 . S
C131 H132 0.960 . S
H132 C131 0.960 . S
H133 N113 0.862 . S
O134 Co102 1.920 . S
O134 C107 1.289 . S
C135 O127 1.258 . S
C135 O128 1.266 1_554 S
Co136 O139 1.970 1_455 S
Co136 N153 1.989 . S
Co136 O161 1.967 . S
Co136 O168 1.920 . S
Co137 O140 1.957 1_455 S
Co137 N146 2.022 . S
Co137 N154 1.993 . S
Co137 O162 1.941 . S
C138 O139 1.258 . S
C138 O140 1.269 . S
O139 Co136 1.970 1_655 S
O139 C138 1.258 . S
O140 Co137 1.957 1_655 S
O140 C138 1.269 . S
C141 O142 1.235 1_455 S
C141 O168 1.289 . S
O142 C141 1.235 1_655 S
C143 C145 1.400 . S
C143 N146 1.351 1_554 S
C143 C148 1.501 1_454 S
C144 C145 1.387 . S
C144 N147 1.341 . S
C145 C143 1.400 . S
C145 C144 1.387 . S
N146 Co137 2.022 . S
N146 C143 1.351 1_556 S
N146 N147 1.365 1_556 S
N147 C144 1.341 . S
N147 N146 1.365 1_554 S
N147 H167 0.862 1_554 S
C148 C143 1.501 1_656 S
C148 H149 0.961 . S
C148 H150 0.961 . S
C148 H151 0.960 . S
H149 C148 0.961 . S
H150 C148 0.961 . S
H151 C148 0.960 . S
C152 N153 1.342 . S
C152 C156 1.401 . S
C152 C157 1.499 . S
N153 Co136 1.989 . S
N153 C152 1.342 . S
N153 N154 1.388 . S
N154 Co137 1.993 . S
N154 N153 1.388 . S
N154 C155 1.346 . S
C155 N154 1.346 . S
C155 C156 1.396 . S
C155 C165 1.510 . S
C156 C152 1.401 . S
C156 C155 1.396 . S
C157 C152 1.499 . S
C157 H158 0.959 . S
C157 H159 0.960 . S
C157 H160 0.961 . S
H158 C157 0.959 . S
H159 C157 0.960 . S
H160 C157 0.961 . S
O161 Co136 1.967 . S
O161 C169 1.258 . S
O162 Co137 1.941 . S
O162 C169 1.266 . S
H163 C165 0.959 . S
H164 C165 0.961 . S
C165 C155 1.510 . S
C165 H163 0.959 . S
C165 H164 0.961 . S
C165 H166 0.960 . S
H166 C165 0.960 . S
H167 N147 0.862 1_556 S
O168 Co136 1.920 . S
O168 C141 1.289 . S
C169 O161 1.258 . S
C169 O162 1.266 . S
Co170 O173 1.970 . S
Co170 N187 1.989 . S
Co170 O195 1.967 . S
Co170 O202 1.920 . S
Co171 O174 1.966 . S
Co171 N180 2.022 . S
Co171 N188 1.993 . S
Co171 O196 1.941 . S
C172 O173 1.258 . S
C172 O174 1.263 1_556 S
O173 Co170 1.970 . S
O173 C172 1.258 . S
O174 Co171 1.966 . S
O174 C172 1.263 1_554 S
C175 O176 1.235 . S
C175 O202 1.289 . S
O176 C175 1.235 . S
C177 C179 1.400 . S
C177 N180 1.351 . S
C177 C182 1.501 . S
C178 C179 1.387 . S
C178 N181 1.341 . S
C179 C177 1.400 . S
C179 C178 1.387 . S
N180 Co171 2.022 . S
N180 C177 1.351 . S
N180 N181 1.365 . S
N181 C178 1.341 . S
N181 N180 1.365 . S
N181 H201 0.862 . S
C182 C177 1.501 . S
C182 H183 0.961 . S
C182 H184 0.961 . S
C182 H185 0.960 . S
H183 C182 0.961 . S
H184 C182 0.961 . S
H185 C182 0.960 . S
C186 N187 1.342 . S
C186 C190 1.401 1_556 S
C186 C191 1.499 . S
N187 Co170 1.989 . S
N187 C186 1.342 . S
N187 N188 1.388 1_556 S
N188 Co171 1.993 . S
N188 N187 1.388 1_554 S
N188 C189 1.346 . S
C189 N188 1.346 . S
C189 C190 1.396 . S
C189 C199 1.510 . S
C190 C186 1.401 1_554 S
C190 C189 1.396 . S
C191 C186 1.499 . S
C191 H192 0.959 . S
C191 H193 0.960 . S
C191 H194 0.961 . S
H192 C191 0.959 . S
H193 C191 0.960 . S
H194 C191 0.961 . S
O195 Co170 1.967 . S
O195 C203 1.258 . S
O196 Co171 1.941 . S
O196 C203 1.266 1_554 S
H197 C199 0.959 . S
H198 C199 0.961 . S
C199 C189 1.510 . S
C199 H197 0.959 . S
C199 H198 0.961 . S
C199 H200 0.960 . S
H200 C199 0.960 . S
H201 N181 0.862 . S
O202 Co170 1.920 . S
O202 C175 1.289 . S
C203 O195 1.258 . S
C203 O196 1.266 1_556 S
Co204 O207 1.970 . S
Co204 N221 1.989 . S
Co204 O229 1.967 . S
Co204 O236 1.920 . S
Co205 O208 1.966 . S
Co205 N214 2.022 . S
Co205 N222 1.993 . S
Co205 O230 1.941 . S
C206 O207 1.258 . S
C206 O208 1.263 . S
O207 Co204 1.970 . S
O207 C206 1.258 . S
O208 Co205 1.966 . S
O208 C206 1.263 . S
C209 O210 1.235 . S
C209 O236 1.289 . S
O210 C209 1.235 . S
C211 C213 1.400 . S
C211 N214 1.351 . S
C211 C216 1.501 . S
C212 C213 1.387 . S
C212 N215 1.341 . S
C213 C211 1.400 . S
C213 C212 1.387 . S
N214 Co205 2.022 . S
N214 C211 1.351 . S
N214 N215 1.365 . S
N215 C212 1.341 . S
N215 N214 1.365 . S
N215 H235 0.862 . S
C216 C211 1.501 . S
C216 H217 0.961 . S
C216 H218 0.961 . S
C216 H219 0.960 . S
H217 C216 0.961 . S
H218 C216 0.961 . S
H219 C216 0.960 . S
C220 N221 1.342 . S
C220 C224 1.401 . S
C220 C225 1.499 . S
N221 Co204 1.989 . S
N221 C220 1.342 . S
N221 N222 1.388 . S
N222 Co205 1.993 . S
N222 N221 1.388 . S
N222 C223 1.346 . S
C223 N222 1.346 . S
C223 C224 1.396 . S
C223 C233 1.510 . S
C224 C220 1.401 . S
C224 C223 1.396 . S
C225 C220 1.499 . S
C225 H226 0.959 . S
C225 H227 0.960 . S
C225 H228 0.961 . S
H226 C225 0.959 . S
H227 C225 0.960 . S
H228 C225 0.961 . S
O229 Co204 1.967 . S
O229 C237 1.258 . S
O230 Co205 1.941 . S
O230 C237 1.266 . S
H231 C233 0.959 . S
H232 C233 0.961 . S
C233 C223 1.510 . S
C233 H231 0.959 . S
C233 H232 0.961 . S
C233 H234 0.960 . S
H234 C233 0.960 . S
H235 N215 0.862 . S
O236 Co204 1.920 . S
O236 C209 1.289 . S
C237 O229 1.258 . S
C237 O230 1.266 . S
Co238 O241 1.970 . S
Co238 N255 1.989 . S
Co238 O263 1.967 . S
Co238 O270 1.920 . S
Co239 O242 1.966 . S
Co239 N248 2.022 . S
Co239 N256 1.993 . S
Co239 O264 1.941 . S
C240 O241 1.258 . S
C240 O242 1.263 . S
O241 Co238 1.970 . S
O241 C240 1.258 . S
O242 Co239 1.966 . S
O242 C240 1.263 . S
C243 O244 1.235 . S
C243 O270 1.289 . S
O244 C243 1.235 . S
C245 C247 1.400 . S
C245 N248 1.351 . S
C245 C250 1.501 . S
C246 C247 1.387 . S
C246 N249 1.341 . S
C247 C245 1.400 . S
C247 C246 1.387 . S
N248 Co239 2.022 . S
N248 C245 1.351 . S
N248 N249 1.365 . S
N249 C246 1.341 . S
N249 N248 1.365 . S
N249 H269 0.862 . S
C250 C245 1.501 . S
C250 H251 0.961 . S
C250 H252 0.961 . S
C250 H253 0.960 . S
H251 C250 0.961 . S
H252 C250 0.961 . S
H253 C250 0.960 . S
C254 N255 1.342 . S
C254 C258 1.401 . S
C254 C259 1.499 . S
N255 Co238 1.989 . S
N255 C254 1.342 . S
N255 N256 1.388 . S
N256 Co239 1.993 . S
N256 N255 1.388 . S
N256 C257 1.346 . S
C257 N256 1.346 . S
C257 C258 1.396 . S
C257 C267 1.510 . S
C258 C254 1.401 . S
C258 C257 1.396 . S
C259 C254 1.499 . S
C259 H260 0.959 . S
C259 H261 0.960 . S
C259 H262 0.961 . S
H260 C259 0.959 . S
H261 C259 0.960 . S
H262 C259 0.961 . S
O263 Co238 1.967 . S
O263 C271 1.258 . S
O264 Co239 1.941 . S
O264 C271 1.266 . S
H265 C267 0.959 . S
H266 C267 0.961 . S
C267 C257 1.510 . S
C267 H265 0.959 . S
C267 H266 0.961 . S
C267 H268 0.960 . S
H268 C267 0.960 . S
H269 N249 0.862 . S
O270 Co238 1.920 . S
O270 C243 1.289 . S
C271 O263 1.258 . S
C271 O264 1.266 . S
Co272 O275 1.970 . S
Co272 N289 1.989 . S
Co272 O297 1.967 . S
Co272 O304 1.920 . S
Co273 O276 1.966 . S
Co273 N282 2.022 . S
Co273 N290 1.993 . S
Co273 O298 1.941 . S
C274 O275 1.258 . S
C274 O276 1.263 . S
O275 Co272 1.970 . S
O275 C274 1.258 . S
O276 Co273 1.966 . S
O276 C274 1.263 . S
C277 O278 1.235 . S
C277 O304 1.289 . S
O278 C277 1.235 . S
C279 C281 1.400 . S
C279 N282 1.351 . S
C279 C284 1.501 . S
C280 C281 1.387 . S
C280 N283 1.341 . S
C281 C279 1.400 . S
C281 C280 1.387 . S
N282 Co273 2.022 . S
N282 C279 1.351 . S
N282 N283 1.365 . S
N283 C280 1.341 . S
N283 N282 1.365 . S
N283 H303 0.862 . S
C284 C279 1.501 . S
C284 H285 0.961 . S
C284 H286 0.961 . S
C284 H287 0.960 . S
H285 C284 0.961 . S
H286 C284 0.961 . S
H287 C284 0.960 . S
C288 N289 1.342 . S
C288 C292 1.401 . S
C288 C293 1.499 . S
N289 Co272 1.989 . S
N289 C288 1.342 . S
N289 N290 1.388 . S
N290 Co273 1.993 . S
N290 N289 1.388 . S
N290 C291 1.346 . S
C291 N290 1.346 . S
C291 C292 1.396 . S
C291 C301 1.510 . S
C292 C288 1.401 . S
C292 C291 1.396 . S
C293 C288 1.499 . S
C293 H294 0.959 . S
C293 H295 0.960 . S
C293 H296 0.961 . S
H294 C293 0.959 . S
H295 C293 0.960 . S
H296 C293 0.961 . S
O297 Co272 1.967 . S
O297 C305 1.258 . S
O298 Co273 1.941 . S
O298 C305 1.266 . S
H299 C301 0.959 . S
H300 C301 0.961 . S
C301 C291 1.510 . S
C301 H299 0.959 . S
C301 H300 0.961 . S
C301 H302 0.960 . S
H302 C301 0.960 . S
H303 N283 0.862 . S
O304 Co272 1.920 . S
O304 C277 1.289 . S
C305 O297 1.258 . S
C305 O298 1.266 . S
Co306 O309 1.970 . S
Co306 N323 1.989 . S
Co306 O331 1.967 . S
Co306 O338 1.920 . S
Co307 O310 1.966 . S
Co307 N316 2.022 . S
Co307 N324 1.993 . S
Co307 O332 1.941 . S
C308 O309 1.258 . S
C308 O310 1.263 1_556 S
O309 Co306 1.970 . S
O309 C308 1.258 . S
O310 Co307 1.966 . S
O310 C308 1.263 1_554 S
C311 O312 1.235 . S
C311 O338 1.289 . S
O312 C311 1.235 . S
C313 C315 1.400 . S
C313 N316 1.351 . S
C313 C318 1.501 . S
C314 C315 1.387 . S
C314 N317 1.341 . S
C315 C313 1.400 . S
C315 C314 1.387 . S
N316 Co307 2.022 . S
N316 C313 1.351 . S
N316 N317 1.365 . S
N317 C314 1.341 . S
N317 N316 1.365 . S
N317 H337 0.862 . S
C318 C313 1.501 . S
C318 H319 0.961 . S
C318 H320 0.961 . S
C318 H321 0.960 . S
H319 C318 0.961 . S
H320 C318 0.961 . S
H321 C318 0.960 . S
C322 N323 1.342 . S
C322 C326 1.401 1_556 S
C322 C327 1.499 . S
N323 Co306 1.989 . S
N323 C322 1.342 . S
N323 N324 1.388 1_556 S
N324 Co307 1.993 . S
N324 N323 1.388 1_554 S
N324 C325 1.346 . S
C325 N324 1.346 . S
C325 C326 1.396 . S
C325 C335 1.510 . S
C326 C322 1.401 1_554 S
C326 C325 1.396 . S
C327 C322 1.499 . S
C327 H328 0.959 . S
C327 H329 0.960 . S
C327 H330 0.961 . S
H328 C327 0.959 . S
H329 C327 0.960 . S
H330 C327 0.961 . S
O331 Co306 1.967 . S
O331 C339 1.258 . S
O332 Co307 1.941 . S
O332 C339 1.266 1_554 S
H333 C335 0.959 . S
H334 C335 0.961 . S
C335 C325 1.510 . S
C335 H333 0.959 . S
C335 H334 0.961 . S
C335 H336 0.960 . S
H336 C335 0.960 . S
H337 N317 0.862 . S
O338 Co306 1.920 . S
O338 C311 1.289 . S
C339 O331 1.258 . S
C339 O332 1.266 1_556 S
Co340 O343 1.970 . S
Co340 N357 1.989 . S
Co340 O365 1.967 . S
Co340 O372 1.920 . S
Co341 O344 1.966 . S
Co341 N350 2.022 . S
Co341 N358 1.993 . S
Co341 O366 1.941 . S
C342 O343 1.258 . S
C342 O344 1.263 1_554 S
O343 Co340 1.970 . S
O343 C342 1.258 . S
O344 Co341 1.966 . S
O344 C342 1.263 1_556 S
C345 O346 1.235 . S
C345 O372 1.289 . S
O346 C345 1.235 . S
C347 C349 1.400 . S
C347 N350 1.351 . S
C347 C352 1.501 . S
C348 C349 1.387 . S
C348 N351 1.341 . S
C349 C347 1.400 . S
C349 C348 1.387 . S
N350 Co341 2.022 . S
N350 C347 1.351 . S
N350 N351 1.365 . S
N351 C348 1.341 . S
N351 N350 1.365 . S
N351 H371 0.862 . S
C352 C347 1.501 . S
C352 H353 0.961 . S
C352 H354 0.961 . S
C352 H355 0.960 . S
H353 C352 0.961 . S
H354 C352 0.961 . S
H355 C352 0.960 . S
C356 N357 1.342 . S
C356 C360 1.401 1_554 S
C356 C361 1.499 . S
N357 Co340 1.989 . S
N357 C356 1.342 . S
N357 N358 1.388 1_554 S
N358 Co341 1.993 . S
N358 N357 1.388 1_556 S
N358 C359 1.346 . S
C359 N358 1.346 . S
C359 C360 1.396 . S
C359 C369 1.510 . S
C360 C356 1.401 1_556 S
C360 C359 1.396 . S
C361 C356 1.499 . S
C361 H362 0.959 . S
C361 H363 0.960 . S
C361 H364 0.961 . S
H362 C361 0.959 . S
H363 C361 0.960 . S
H364 C361 0.961 . S
O365 Co340 1.967 . S
O365 C373 1.258 . S
O366 Co341 1.941 . S
O366 C373 1.266 1_556 S
H367 C369 0.959 . S
H368 C369 0.961 . S
C369 C359 1.510 . S
C369 H367 0.959 . S
C369 H368 0.961 . S
C369 H370 0.960 . S
H370 C369 0.960 . S
H371 N351 0.862 . S
O372 Co340 1.920 . S
O372 C345 1.289 . S
C373 O365 1.258 . S
C373 O366 1.266 1_554 S
Co374 O377 1.970 . S
Co374 N391 1.989 . S
Co374 O399 1.967 . S
Co374 O406 1.920 . S
Co375 O378 1.966 . S
Co375 N384 2.022 . S
Co375 N392 1.993 . S
Co375 O400 1.941 . S
C376 O377 1.258 . S
C376 O378 1.263 . S
O377 Co374 1.970 . S
O377 C376 1.258 . S
O378 Co375 1.966 . S
O378 C376 1.263 . S
C379 O380 1.235 . S
C379 O406 1.289 . S
O380 C379 1.235 . S
C381 C383 1.400 . S
C381 N384 1.351 . S
C381 C386 1.501 . S
C382 C383 1.387 . S
C382 N385 1.341 . S
C383 C381 1.400 . S
C383 C382 1.387 . S
N384 Co375 2.022 . S
N384 C381 1.351 . S
N384 N385 1.365 . S
N385 C382 1.341 . S
N385 N384 1.365 . S
N385 H405 0.862 . S
C386 C381 1.501 . S
C386 H387 0.961 . S
C386 H388 0.961 . S
C386 H389 0.960 . S
H387 C386 0.961 . S
H388 C386 0.961 . S
H389 C386 0.960 . S
C390 N391 1.342 . S
C390 C394 1.401 . S
C390 C395 1.499 . S
N391 Co374 1.989 . S
N391 C390 1.342 . S
N391 N392 1.388 . S
N392 Co375 1.993 . S
N392 N391 1.388 . S
N392 C393 1.346 . S
C393 N392 1.346 . S
C393 C394 1.396 . S
C393 C403 1.510 . S
C394 C390 1.401 . S
C394 C393 1.396 . S
C395 C390 1.499 . S
C395 H396 0.959 . S
C395 H397 0.960 . S
C395 H398 0.961 . S
H396 C395 0.959 . S
H397 C395 0.960 . S
H398 C395 0.961 . S
O399 Co374 1.967 . S
O399 C407 1.258 . S
O400 Co375 1.941 . S
O400 C407 1.266 . S
H401 C403 0.959 . S
H402 C403 0.961 . S
C403 C393 1.510 . S
C403 H401 0.959 . S
C403 H402 0.961 . S
C403 H404 0.960 . S
H404 C403 0.960 . S
H405 N385 0.862 . S
O406 Co374 1.920 . S
O406 C379 1.289 . S
C407 O399 1.258 . S
C407 O400 1.266 . S
Co408 O411 1.970 . S
Co408 N425 1.989 . S
Co408 O433 1.967 . S
Co408 O440 1.920 . S
Co409 O412 1.966 . S
Co409 N418 2.022 . S
Co409 N426 1.993 . S
Co409 O434 1.941 . S
C410 O411 1.258 . S
C410 O412 1.263 . S
O411 Co408 1.970 . S
O411 C410 1.258 . S
O412 Co409 1.966 . S
O412 C410 1.263 . S
C413 O414 1.235 . S
C413 O440 1.289 . S
O414 C413 1.235 . S
C415 C417 1.400 . S
C415 N418 1.351 . S
C415 C420 1.501 . S
C416 C417 1.387 . S
C416 N419 1.341 . S
C417 C415 1.400 . S
C417 C416 1.387 . S
N418 Co409 2.022 . S
N418 C415 1.351 . S
N418 N419 1.365 . S
N419 C416 1.341 . S
N419 N418 1.365 . S
N419 H439 0.862 . S
C420 C415 1.501 . S
C420 H421 0.961 . S
C420 H422 0.961 . S
C420 H423 0.960 . S
H421 C420 0.961 . S
H422 C420 0.961 . S
H423 C420 0.960 . S
C424 N425 1.342 . S
C424 C428 1.401 . S
C424 C429 1.499 . S
N425 Co408 1.989 . S
N425 C424 1.342 . S
N425 N426 1.388 . S
N426 Co409 1.993 . S
N426 N425 1.388 . S
N426 C427 1.346 . S
C427 N426 1.346 . S
C427 C428 1.396 . S
C427 C437 1.510 . S
C428 C424 1.401 . S
C428 C427 1.396 . S
C429 C424 1.499 . S
C429 H430 0.959 . S
C429 H431 0.960 . S
C429 H432 0.961 . S
H430 C429 0.959 . S
H431 C429 0.960 . S
H432 C429 0.961 . S
O433 Co408 1.967 . S
O433 C441 1.258 . S
O434 Co409 1.941 . S
O434 C441 1.266 . S
H435 C437 0.959 . S
H436 C437 0.961 . S
C437 C427 1.510 . S
C437 H435 0.959 . S
C437 H436 0.961 . S
C437 H438 0.960 . S
H438 C437 0.960 . S
H439 N419 0.862 . S
O440 Co408 1.920 . S
O440 C413 1.289 . S
C441 O433 1.258 . S
C441 O434 1.266 . S
Co442 O445 1.970 . S
Co442 N459 1.989 . S
Co442 O467 1.967 1_455 S
Co442 O474 1.920 . S
Co443 O446 1.966 . S
Co443 N452 2.022 . S
Co443 N460 1.993 . S
Co443 O468 1.941 1_455 S
C444 O445 1.258 . S
C444 O446 1.263 . S
O445 Co442 1.970 . S
O445 C444 1.258 . S
O446 Co443 1.966 . S
O446 C444 1.263 . S
C447 O448 1.235 . S
C447 O474 1.289 . S
O448 C447 1.235 . S
C449 C451 1.400 . S
C449 N452 1.351 1_556 S
C449 C454 1.501 1_556 S
C450 C451 1.360 1_655 S
C450 N453 1.349 . S
C451 C449 1.400 . S
C451 C450 1.360 1_455 S
N452 Co443 2.022 . S
N452 C449 1.351 1_554 S
N452 N453 1.365 1_454 S
N453 C450 1.349 . S
N453 N452 1.365 1_656 S
N453 H473 0.862 1_556 S
C454 C449 1.501 1_554 S
C454 H455 0.961 . S
C454 H456 0.961 . S
C454 H457 0.960 . S
H455 C454 0.961 . S
H456 C454 0.961 . S
H457 C454 0.960 . S
C458 N459 1.342 . S
C458 C462 1.401 . S
C458 C463 1.499 . S
N459 Co442 1.989 . S
N459 C458 1.342 . S
N459 N460 1.388 . S
N460 Co443 1.993 . S
N460 N459 1.388 . S
N460 C461 1.346 . S
C461 N460 1.346 . S
C461 C462 1.396 . S
C461 C471 1.510 . S
C462 C458 1.401 . S
C462 C461 1.396 . S
C463 C458 1.499 . S
C463 H464 0.959 . S
C463 H465 0.960 . S
C463 H466 0.961 1_455 S
H464 C463 0.959 . S
H465 C463 0.960 . S
H466 C463 0.961 1_655 S
O467 Co442 1.967 1_655 S
O467 C475 1.258 . S
O468 Co443 1.941 1_655 S
O468 C475 1.266 . S
H469 C471 0.959 1_655 S
H470 C471 0.961 . S
C471 C461 1.510 . S
C471 H469 0.959 1_455 S
C471 H470 0.961 . S
C471 H472 0.960 . S
H472 C471 0.960 . S
H473 N453 0.862 1_554 S
O474 Co442 1.920 . S
O474 C447 1.289 . S
C475 O467 1.258 . S
C475 O468 1.266 . S
Co476 O479 1.970 . S
Co476 N493 1.989 . S
Co476 O501 1.967 . S
Co476 O508 1.920 . S
Co477 O480 1.966 . S
Co477 N486 2.022 . S
Co477 N494 1.993 . S
Co477 O502 1.941 . S
C478 O479 1.258 . S
C478 O480 1.263 . S
O479 Co476 1.970 . S
O479 C478 1.258 . S
O480 Co477 1.966 . S
O480 C478 1.263 . S
C481 O482 1.235 . S
C481 O508 1.289 . S
O482 C481 1.235 . S
C483 C485 1.400 . S
C483 N486 1.351 . S
C483 C488 1.501 . S
C484 C485 1.387 . S
C484 N487 1.341 . S
C485 C483 1.400 . S
C485 C484 1.387 . S
N486 Co477 2.022 . S
N486 C483 1.351 . S
N486 N487 1.365 . S
N487 C484 1.341 . S
N487 N486 1.365 . S
N487 H507 0.862 . S
C488 C483 1.501 . S
C488 H489 0.961 . S
C488 H490 0.961 . S
C488 H491 0.960 . S
H489 C488 0.961 . S
H490 C488 0.961 . S
H491 C488 0.960 . S
C492 N493 1.342 . S
C492 C496 1.401 . S
C492 C497 1.499 . S
N493 Co476 1.989 . S
N493 C492 1.342 . S
N493 N494 1.388 . S
N494 Co477 1.993 . S
N494 N493 1.388 . S
N494 C495 1.346 . S
C495 N494 1.346 . S
C495 C496 1.396 . S
C495 C505 1.510 . S
C496 C492 1.401 . S
C496 C495 1.396 . S
C497 C492 1.499 . S
C497 H498 0.959 . S
C497 H499 0.960 . S
C497 H500 0.961 . S
H498 C497 0.959 . S
H499 C497 0.960 . S
H500 C497 0.961 . S
O501 Co476 1.967 . S
O501 C509 1.258 . S
O502 Co477 1.941 . S
O502 C509 1.266 . S
H503 C505 0.959 . S
H504 C505 0.961 . S
C505 C495 1.510 . S
C505 H503 0.959 . S
C505 H504 0.961 . S
C505 H506 0.960 . S
H506 C505 0.960 . S
H507 N487 0.862 . S
O508 Co476 1.920 . S
O508 C481 1.289 . S
C509 O501 1.258 . S
C509 O502 1.266 . S
Co510 O513 1.970 . S
Co510 N527 1.989 . S
Co510 O535 1.967 1_455 S
Co510 O542 1.920 . S
Co511 O514 1.966 . S
Co511 N520 2.022 . S
Co511 N528 1.993 . S
Co511 O536 1.941 1_455 S
C512 O513 1.258 . S
C512 O514 1.263 . S
O513 Co510 1.970 . S
O513 C512 1.258 . S
O514 Co511 1.966 . S
O514 C512 1.263 . S
C515 O516 1.235 . S
C515 O542 1.289 . S
O516 C515 1.235 . S
C517 C519 1.400 . S
C517 N520 1.351 1_554 S
C517 C522 1.501 1_554 S
C518 C519 1.360 1_655 S
C518 N521 1.349 . S
C519 C517 1.400 . S
C519 C518 1.360 1_455 S
N520 Co511 2.022 . S
N520 C517 1.351 1_556 S
N520 N521 1.365 1_456 S
N521 C518 1.349 . S
N521 N520 1.365 1_654 S
N521 H541 0.862 1_554 S
C522 C517 1.501 1_556 S
C522 H523 0.961 . S
C522 H524 0.961 . S
C522 H525 0.960 . S
H523 C522 0.961 . S
H524 C522 0.961 . S
H525 C522 0.960 . S
C526 N527 1.342 . S
C526 C530 1.401 . S
C526 C531 1.499 . S
N527 Co510 1.989 . S
N527 C526 1.342 . S
N527 N528 1.388 . S
N528 Co511 1.993 . S
N528 N527 1.388 . S
N528 C529 1.346 . S
C529 N528 1.346 . S
C529 C530 1.396 . S
C529 C539 1.510 . S
C530 C526 1.401 . S
C530 C529 1.396 . S
C531 C526 1.499 . S
C531 H532 0.959 . S
C531 H533 0.960 . S
C531 H534 0.961 1_455 S
H532 C531 0.959 . S
H533 C531 0.960 . S
H534 C531 0.961 1_655 S
O535 Co510 1.967 1_655 S
O535 C543 1.258 . S
O536 Co511 1.941 1_655 S
O536 C543 1.266 . S
H537 C539 0.959 1_655 S
H538 C539 0.961 . S
C539 C529 1.510 . S
C539 H537 0.959 1_455 S
C539 H538 0.961 . S
C539 H540 0.960 . S
H540 C539 0.960 . S
H541 N521 0.862 1_556 S
O542 Co510 1.920 . S
O542 C515 1.289 . S
C543 O535 1.258 . S
C543 O536 1.266 . S
H544 C556 0.930 . S
H545 C558 0.930 . S
H546 C559 0.930 . S
H547 C563 0.959 . S
H548 C563 0.959 . S
H549 C563 0.961 . S
H550 C564 0.960 . S
H551 C564 0.961 . S
H552 C564 0.959 . S
H553 C567 0.929 . S
H554 C568 0.931 . S
H555 C570 0.930 . S
C556 H544 0.930 . S
C556 C557 1.399 . S
C556 C561 1.399 . S
C557 C556 1.399 . S
C557 C558 1.376 . S
C558 H545 0.930 . S
C558 C557 1.376 . S
C558 C559 1.388 . S
C559 H546 0.930 . S
C559 C558 1.388 . S
C559 C560 1.390 . S
C560 C559 1.390 . S
C560 C561 1.394 . S
C560 C566 1.465 . S
C561 C556 1.399 . S
C561 C560 1.394 . S
C561 C562 1.516 . S
C562 C561 1.516 . S
C562 C563 1.502 . S
C562 C564 1.561 . S
C562 C565 1.526 . S
C563 H547 0.959 . S
C563 H548 0.959 . S
C563 H549 0.961 . S
C563 C562 1.502 . S
C564 H550 0.960 . S
C564 H551 0.961 . S
C564 H552 0.959 . S
C564 C562 1.561 . S
C565 C562 1.526 . S
C565 C566 1.396 . S
C565 C570 1.390 . S
C566 C560 1.465 . S
C566 C565 1.396 . S
C566 C567 1.399 . S
C567 H553 0.929 . S
C567 C566 1.399 . S
C567 C568 1.385 . S
C568 H554 0.931 . S
C568 C567 1.385 . S
C568 C569 1.389 . S
C569 C568 1.389 . S
C569 C570 1.387 . S
C570 H555 0.930 . S
C570 C565 1.390 . S
C570 C569 1.387 . S
H571 C583 0.930 . S
H572 C585 0.930 . S
H573 C586 0.930 . S
H574 C590 0.959 . S
H575 C590 0.959 . S
H576 C590 0.961 . S
H577 C591 0.960 . S
H578 C591 0.961 . S
H579 C591 0.959 . S
H580 C594 0.929 . S
H581 C595 0.931 . S
H582 C597 0.930 . S
C583 H571 0.930 . S
C583 C584 1.399 . S
C583 C588 1.399 . S
C584 C583 1.399 . S
C584 C585 1.376 . S
C585 H572 0.930 . S
C585 C584 1.376 . S
C585 C586 1.388 . S
C586 H573 0.930 . S
C586 C585 1.388 . S
C586 C587 1.390 . S
C587 C586 1.390 . S
C587 C588 1.394 . S
C587 C593 1.465 . S
C588 C583 1.399 . S
C588 C587 1.394 . S
C588 C589 1.516 . S
C589 C588 1.516 . S
C589 C590 1.502 . S
C589 C591 1.561 . S
C589 C592 1.526 . S
C590 H574 0.959 . S
C590 H575 0.959 . S
C590 H576 0.961 . S
C590 C589 1.502 . S
C591 H577 0.960 . S
C591 H578 0.961 . S
C591 H579 0.959 . S
C591 C589 1.561 . S
C592 C589 1.526 . S
C592 C593 1.396 . S
C592 C597 1.390 . S
C593 C587 1.465 . S
C593 C592 1.396 . S
C593 C594 1.399 . S
C594 H580 0.929 . S
C594 C593 1.399 . S
C594 C595 1.385 . S
C595 H581 0.931 . S
C595 C594 1.385 . S
C595 C596 1.389 . S
C596 C595 1.389 . S
C596 C597 1.387 . S
C597 H582 0.930 . S
C597 C592 1.390 . S
C597 C596 1.387 . S
H598 C610 0.930 . S
H599 C612 0.930 . S
H600 C613 0.930 . S
H601 C617 0.959 1_556 S
H602 C617 0.959 . S
H603 C617 0.961 . S
H604 C618 0.960 . S
H605 C618 0.961 1_554 S
H606 C618 0.959 . S
H607 C621 0.929 . S
H608 C622 0.931 . S
H609 C624 0.930 1_554 S
C610 H598 0.930 . S
C610 C611 1.399 . S
C610 C615 1.399 . S
C611 C610 1.399 . S
C611 C612 1.376 . S
C612 H599 0.930 . S
C612 C611 1.376 . S
C612 C613 1.388 . S
C613 H600 0.930 . S
C613 C612 1.388 . S
C613 C614 1.390 . S
C614 C613 1.390 . S
C614 C615 1.394 . S
C614 C620 1.465 . S
C615 C610 1.399 . S
C615 C614 1.394 . S
C615 C616 1.516 . S
C616 C615 1.516 . S
C616 C617 1.502 1_556 S
C616 C618 1.561 . S
C616 C619 1.526 . S
C617 H601 0.959 1_554 S
C617 H602 0.959 . S
C617 H603 0.961 . S
C617 C616 1.502 1_554 S
C618 H604 0.960 . S
C618 H605 0.961 1_556 S
C618 H606 0.959 . S
C618 C616 1.561 . S
C619 C616 1.526 . S
C619 C620 1.396 . S
C619 C624 1.390 . S
C620 C614 1.465 . S
C620 C619 1.396 . S
C620 C621 1.399 . S
C621 H607 0.929 . S
C621 C620 1.399 . S
C621 C622 1.385 . S
C622 H608 0.931 . S
C622 C621 1.385 . S
C622 C623 1.389 . S
C623 C622 1.389 . S
C623 C624 1.387 . S
C624 H609 0.930 1_556 S
C624 C619 1.390 . S
C624 C623 1.387 . S
H625 C637 0.930 . S
H626 C639 0.930 . S
H627 C640 0.930 . S
H628 C644 0.959 . S
H629 C644 0.959 . S
H630 C644 0.961 . S
H631 C645 0.960 . S
H632 C645 0.961 . S
H633 C645 0.959 . S
H634 C648 0.929 . S
H635 C649 0.931 . S
H636 C651 0.930 . S
C637 H625 0.930 . S
C637 C638 1.399 . S
C637 C642 1.399 . S
C638 C637 1.399 . S
C638 C639 1.376 . S
C639 H626 0.930 . S
C639 C638 1.376 . S
C639 C640 1.388 . S
C640 H627 0.930 . S
C640 C639 1.388 . S
C640 C641 1.390 . S
C641 C640 1.390 . S
C641 C642 1.394 . S
C641 C647 1.465 . S
C642 C637 1.399 . S
C642 C641 1.394 . S
C642 C643 1.516 . S
C643 C642 1.516 . S
C643 C644 1.502 . S
C643 C645 1.561 . S
C643 C646 1.526 . S
C644 H628 0.959 . S
C644 H629 0.959 . S
C644 H630 0.961 . S
C644 C643 1.502 . S
C645 H631 0.960 . S
C645 H632 0.961 . S
C645 H633 0.959 . S
C645 C643 1.561 . S
C646 C643 1.526 . S
C646 C647 1.396 . S
C646 C651 1.390 . S
C647 C641 1.465 . S
C647 C646 1.396 . S
C647 C648 1.399 1_554 S
C648 H634 0.929 . S
C648 C647 1.399 1_556 S
C648 C649 1.385 . S
C649 H635 0.931 . S
C649 C648 1.385 . S
C649 C650 1.389 1_556 S
C650 C649 1.389 1_554 S
C650 C651 1.387 . S
C651 H636 0.930 . S
C651 C646 1.390 . S
C651 C650 1.387 . S
H652 C664 0.930 . S
H653 C666 0.930 . S
H654 C667 0.930 . S
H655 C671 0.959 . S
H656 C671 0.959 . S
H657 C671 0.961 . S
H658 C672 0.960 . S
H659 C672 0.961 . S
H660 C672 0.959 . S
H661 C675 0.929 . S
H662 C676 0.931 . S
H663 C678 0.930 . S
C664 H652 0.930 . S
C664 C665 1.399 . S
C664 C669 1.399 . S
C665 C664 1.399 . S
C665 C666 1.376 . S
C666 H653 0.930 . S
C666 C665 1.376 . S
C666 C667 1.388 . S
C667 H654 0.930 . S
C667 C666 1.388 . S
C667 C668 1.390 . S
C668 C667 1.390 . S
C668 C669 1.394 . S
C668 C674 1.465 . S
C669 C664 1.399 . S
C669 C668 1.394 . S
C669 C670 1.516 . S
C670 C669 1.516 . S
C670 C671 1.502 . S
C670 C672 1.561 . S
C670 C673 1.526 . S
C671 H655 0.959 . S
C671 H656 0.959 . S
C671 H657 0.961 . S
C671 C670 1.502 . S
C672 H658 0.960 . S
C672 H659 0.961 . S
C672 H660 0.959 . S
C672 C670 1.561 . S
C673 C670 1.526 . S
C673 C674 1.396 . S
C673 C678 1.390 . S
C674 C668 1.465 . S
C674 C673 1.396 . S
C674 C675 1.399 . S
C675 H661 0.929 . S
C675 C674 1.399 . S
C675 C676 1.385 . S
C676 H662 0.931 . S
C676 C675 1.385 . S
C676 C677 1.389 . S
C677 C676 1.389 . S
C677 C678 1.387 . S
C678 H663 0.930 . S
C678 C673 1.390 . S
C678 C677 1.387 . S
H679 C691 0.930 . S
H680 C693 0.930 . S
H681 C694 0.930 . S
H682 C698 0.959 . S
H683 C698 0.959 . S
H684 C698 0.961 . S
H685 C699 0.960 . S
H686 C699 0.961 . S
H687 C699 0.959 . S
H688 C702 0.929 . S
H689 C703 0.931 . S
H690 C705 0.930 . S
C691 H679 0.930 . S
C691 C692 1.399 . S
C691 C696 1.399 . S
C692 C691 1.399 . S
C692 C693 1.376 . S
C693 H680 0.930 . S
C693 C692 1.376 . S
C693 C694 1.388 . S
C694 H681 0.930 . S
C694 C693 1.388 . S
C694 C695 1.390 . S
C695 C694 1.390 . S
C695 C696 1.394 . S
C695 C701 1.465 . S
C696 C691 1.399 . S
C696 C695 1.394 . S
C696 C697 1.516 . S
C697 C696 1.516 . S
C697 C698 1.502 . S
C697 C699 1.561 . S
C697 C700 1.526 . S
C698 H682 0.959 . S
C698 H683 0.959 . S
C698 H684 0.961 . S
C698 C697 1.502 . S
C699 H685 0.960 . S
C699 H686 0.961 . S
C699 H687 0.959 . S
C699 C697 1.561 . S
C700 C697 1.526 . S
C700 C701 1.396 . S
C700 C705 1.390 . S
C701 C695 1.465 . S
C701 C700 1.396 . S
C701 C702 1.399 . S
C702 H688 0.929 . S
C702 C701 1.399 . S
C702 C703 1.385 . S
C703 H689 0.931 . S
C703 C702 1.385 . S
C703 C704 1.389 . S
C704 C703 1.389 . S
C704 C705 1.387 . S
C705 H690 0.930 . S
C705 C700 1.390 . S
C705 C704 1.387 . S
H706 C718 0.930 . S
H707 C720 0.930 . S
H708 C721 0.930 . S
H709 C725 0.959 . S
H710 C725 0.959 . S
H711 C725 0.961 . S
H712 C726 0.960 . S
H713 C726 0.961 . S
H714 C726 0.959 . S
H715 C729 0.929 . S
H716 C730 0.931 1_556 S
H717 C732 0.930 . S
C718 H706 0.930 . S
C718 C719 1.399 . S
C718 C723 1.399 . S
C719 C718 1.399 . S
C719 C720 1.376 . S
C720 H707 0.930 . S
C720 C719 1.376 . S
C720 C721 1.388 . S
C721 H708 0.930 . S
C721 C720 1.388 . S
C721 C722 1.390 . S
C722 C721 1.390 . S
C722 C723 1.394 . S
C722 C728 1.465 . S
C723 C718 1.399 . S
C723 C722 1.394 . S
C723 C724 1.516 . S
C724 C723 1.516 . S
C724 C725 1.502 . S
C724 C726 1.561 . S
C724 C727 1.526 . S
C725 H709 0.959 . S
C725 H710 0.959 . S
C725 H711 0.961 . S
C725 C724 1.502 . S
C726 H712 0.960 . S
C726 H713 0.961 . S
C726 H714 0.959 . S
C726 C724 1.561 . S
C727 C724 1.526 . S
C727 C728 1.396 . S
C727 C732 1.390 . S
C728 C722 1.465 . S
C728 C727 1.396 . S
C728 C729 1.399 . S
C729 H715 0.929 . S
C729 C728 1.399 . S
C729 C730 1.385 . S
C730 H716 0.931 1_554 S
C730 C729 1.385 . S
C730 C731 1.389 . S
C731 C730 1.389 . S
C731 C732 1.387 . S
C732 H717 0.930 . S
C732 C727 1.390 . S
C732 C731 1.387 . S
H733 C745 0.930 . S
H734 C747 0.930 . S
H735 C748 0.930 . S
H736 C752 0.959 . S
H737 C752 0.959 . S
H738 C752 0.961 . S
H739 C753 0.960 . S
H740 C753 0.961 . S
H741 C753 0.959 1_554 S
H742 C756 0.929 . S
H743 C757 0.931 . S
H744 C759 0.930 . S
C745 H733 0.930 . S
C745 C746 1.399 . S
C745 C750 1.399 . S
C746 C745 1.399 . S
C746 C747 1.376 . S
C747 H734 0.930 . S
C747 C746 1.376 . S
C747 C748 1.388 . S
C748 H735 0.930 . S
C748 C747 1.388 . S
C748 C749 1.390 . S
C749 C748 1.390 . S
C749 C750 1.394 . S
C749 C755 1.465 . S
C750 C745 1.399 . S
C750 C749 1.394 . S
C750 C751 1.516 . S
C751 C750 1.516 . S
C751 C752 1.502 . S
C751 C753 1.561 . S
C751 C754 1.526 . S
C752 H736 0.959 . S
C752 H737 0.959 . S
C752 H738 0.961 . S
C752 C751 1.502 . S
C753 H739 0.960 . S
C753 H740 0.961 . S
C753 H741 0.959 1_556 S
C753 C751 1.561 . S
C754 C751 1.526 . S
C754 C755 1.396 . S
C754 C759 1.390 . S
C755 C749 1.465 . S
C755 C754 1.396 . S
C755 C756 1.399 . S
C756 H742 0.929 . S
C756 C755 1.399 . S
C756 C757 1.385 . S
C757 H743 0.931 . S
C757 C756 1.385 . S
C757 C758 1.389 . S
C758 C757 1.389 . S
C758 C759 1.387 . S
C759 H744 0.930 . S
C759 C754 1.390 . S
C759 C758 1.387 . S
H760 C772 0.930 . S
H761 C774 0.918 1_554 S
H762 C775 0.930 . S
H763 C779 0.959 . S
H764 C779 0.959 . S
H765 C779 0.961 . S
H766 C780 0.960 . S
H767 C780 0.961 . S
H768 C780 0.959 . S
H769 C783 0.929 . S
H770 C784 0.931 . S
H771 C786 0.930 . S
C772 H760 0.930 . S
C772 C773 1.399 . S
C772 C777 1.399 . S
C773 C772 1.399 . S
C773 C774 1.383 . S
C774 H761 0.918 1_556 S
C774 C773 1.383 . S
C774 C775 1.393 . S
C775 H762 0.930 . S
C775 C774 1.393 . S
C775 C776 1.390 . S
C776 C775 1.390 . S
C776 C777 1.394 . S
C776 C782 1.465 . S
C777 C772 1.399 . S
C777 C776 1.394 . S
C777 C778 1.516 . S
C778 C777 1.516 . S
C778 C779 1.502 . S
C778 C780 1.561 . S
C778 C781 1.526 . S
C779 H763 0.959 . S
C779 H764 0.959 . S
C779 H765 0.961 . S
C779 C778 1.502 . S
C780 H766 0.960 . S
C780 H767 0.961 . S
C780 H768 0.959 . S
C780 C778 1.561 . S
C781 C778 1.526 . S
C781 C782 1.396 . S
C781 C786 1.390 . S
C782 C776 1.465 . S
C782 C781 1.396 . S
C782 C783 1.399 . S
C783 H769 0.929 . S
C783 C782 1.399 . S
C783 C784 1.385 . S
C784 H770 0.931 . S
C784 C783 1.385 . S
C784 C785 1.389 . S
C785 C784 1.389 . S
C785 C786 1.387 . S
C786 H771 0.930 . S
C786 C781 1.390 . S
C786 C785 1.387 . S
H787 C799 0.930 . S
H788 C801 0.930 . S
H789 C802 0.930 . S
H790 C806 0.959 . S
H791 C806 0.959 . S
H792 C806 0.961 . S
H793 C807 0.960 . S
H794 C807 0.961 . S
H795 C807 0.959 . S
H796 C810 0.929 1_556 S
H797 C811 0.931 . S
H798 C813 0.930 . S
C799 H787 0.930 . S
C799 C800 1.399 . S
C799 C804 1.399 . S
C800 C799 1.399 . S
C800 C801 1.376 . S
C801 H788 0.930 . S
C801 C800 1.376 . S
C801 C802 1.388 . S
C802 H789 0.930 . S
C802 C801 1.388 . S
C802 C803 1.390 . S
C803 C802 1.390 . S
C803 C804 1.394 . S
C803 C809 1.465 . S
C804 C799 1.399 . S
C804 C803 1.394 . S
C804 C805 1.516 . S
C805 C804 1.516 . S
C805 C806 1.502 . S
C805 C807 1.561 . S
C805 C808 1.526 . S
C806 H790 0.959 . S
C806 H791 0.959 . S
C806 H792 0.961 . S
C806 C805 1.502 . S
C807 H793 0.960 . S
C807 H794 0.961 . S
C807 H795 0.959 . S
C807 C805 1.561 . S
C808 C805 1.526 . S
C808 C809 1.396 . S
C808 C813 1.390 . S
C809 C803 1.465 . S
C809 C808 1.396 . S
C809 C810 1.399 . S
C810 H796 0.929 1_554 S
C810 C809 1.399 . S
C810 C811 1.385 1_554 S
C811 H797 0.931 . S
C811 C810 1.385 1_556 S
C811 C812 1.389 1_556 S
C812 C811 1.389 1_554 S
C812 C813 1.387 . S
C813 H798 0.930 . S
C813 C808 1.390 . S
C813 C812 1.387 . S
H814 C826 0.930 . S
H815 C828 0.930 . S
H816 C829 0.930 . S
H817 C833 0.959 . S
H818 C833 0.959 . S
H819 C833 0.961 . S
H820 C834 0.960 . S
H821 C834 0.961 . S
H822 C834 0.959 . S
H823 C837 0.929 . S
H824 C838 0.931 . S
H825 C840 0.930 . S
C826 H814 0.930 . S
C826 C827 1.399 . S
C826 C831 1.399 . S
C827 C826 1.399 . S
C827 C828 1.376 . S
C828 H815 0.930 . S
C828 C827 1.376 . S
C828 C829 1.388 . S
C829 H816 0.930 . S
C829 C828 1.388 . S
C829 C830 1.390 . S
C830 C829 1.390 . S
C830 C831 1.394 . S
C830 C836 1.465 . S
C831 C826 1.399 . S
C831 C830 1.394 . S
C831 C832 1.516 . S
C832 C831 1.516 . S
C832 C833 1.502 . S
C832 C834 1.561 . S
C832 C835 1.526 . S
C833 H817 0.959 . S
C833 H818 0.959 . S
C833 H819 0.961 . S
C833 C832 1.502 . S
C834 H820 0.960 . S
C834 H821 0.961 . S
C834 H822 0.959 . S
C834 C832 1.561 . S
C835 C832 1.526 . S
C835 C836 1.396 . S
C835 C840 1.390 . S
C836 C830 1.465 . S
C836 C835 1.396 . S
C836 C837 1.399 . S
C837 H823 0.929 . S
C837 C836 1.399 . S
C837 C838 1.385 . S
C838 H824 0.931 . S
C838 C837 1.385 . S
C838 C839 1.389 . S
C839 C838 1.389 . S
C839 C840 1.387 . S
C840 H825 0.930 . S
C840 C835 1.390 . S
C840 C839 1.387 . S
H841 C853 0.930 . S
H842 C855 0.930 . S
H843 C856 0.930 . S
H844 C860 0.959 . S
H845 C860 0.959 . S
H846 C860 0.961 . S
H847 C861 0.960 . S
H848 C861 0.961 . S
H849 C861 0.959 . S
H850 C864 0.929 . S
H851 C865 0.931 . S
H852 C867 0.930 . S
C853 H841 0.930 . S
C853 C854 1.399 . S
C853 C858 1.399 . S
C854 C853 1.399 . S
C854 C855 1.376 . S
C855 H842 0.930 . S
C855 C854 1.376 . S
C855 C856 1.388 . S
C856 H843 0.930 . S
C856 C855 1.388 . S
C856 C857 1.390 . S
C857 C856 1.390 . S
C857 C858 1.394 . S
C857 C863 1.465 . S
C858 C853 1.399 . S
C858 C857 1.394 . S
C858 C859 1.516 . S
C859 C858 1.516 . S
C859 C860 1.502 . S
C859 C861 1.561 . S
C859 C862 1.526 . S
C860 H844 0.959 . S
C860 H845 0.959 . S
C860 H846 0.961 . S
C860 C859 1.502 . S
C861 H847 0.960 . S
C861 H848 0.961 . S
C861 H849 0.959 . S
C861 C859 1.561 . S
C862 C859 1.526 . S
C862 C863 1.396 . S
C862 C867 1.390 . S
C863 C857 1.465 . S
C863 C862 1.396 . S
C863 C864 1.399 . S
C864 H850 0.929 . S
C864 C863 1.399 . S
C864 C865 1.385 . S
C865 H851 0.931 . S
C865 C864 1.385 . S
C865 C866 1.389 . S
C866 C865 1.389 . S
C866 C867 1.387 . S
C867 H852 0.930 . S
C867 C862 1.390 . S
C867 C866 1.387 . S
H868 C880 0.930 1_556 S
H869 C882 0.930 . S
H870 C883 0.930 . S
H871 C887 0.959 1_554 S
H872 C887 0.959 . S
H873 C887 0.961 . S
H874 C888 0.960 1_556 S
H875 C888 0.960 1_556 S
H876 C888 0.959 . S
H877 C891 0.929 . S
H878 C892 0.931 . S
H879 C894 0.930 . S
C880 H868 0.930 1_554 S
C880 C881 1.399 . S
C880 C885 1.399 . S
C881 C880 1.399 . S
C881 C882 1.376 . S
C882 H869 0.930 . S
C882 C881 1.376 . S
C882 C883 1.388 . S
C883 H870 0.930 . S
C883 C882 1.388 . S
C883 C884 1.390 . S
C884 C883 1.390 . S
C884 C885 1.394 . S
C884 C890 1.465 . S
C885 C880 1.399 . S
C885 C884 1.394 . S
C885 C886 1.516 . S
C886 C885 1.516 . S
C886 C887 1.502 1_554 S
C886 C888 1.562 . S
C886 C889 1.526 . S
C887 H871 0.959 1_556 S
C887 H872 0.959 . S
C887 H873 0.961 . S
C887 C886 1.502 1_556 S
C888 H874 0.960 1_554 S
C888 H875 0.960 1_554 S
C888 H876 0.959 . S
C888 C886 1.562 . S
C889 C886 1.526 . S
C889 C890 1.396 . S
C889 C894 1.390 . S
C890 C884 1.465 . S
C890 C889 1.396 . S
C890 C891 1.399 . S
C891 H877 0.929 . S
C891 C890 1.399 . S
C891 C892 1.385 . S
C892 H878 0.931 . S
C892 C891 1.385 . S
C892 C893 1.389 . S
C893 C892 1.389 . S
C893 C894 1.387 . S
C894 H879 0.930 . S
C894 C889 1.390 . S
C894 C893 1.387 . S
H895 C907 0.930 1_554 S
H896 C909 0.930 . S
H897 C910 0.930 . S
H898 C914 0.959 1_556 S
H899 C914 0.959 . S
H900 C914 0.961 . S
H901 C915 0.960 . S
H902 C915 0.961 . S
H903 C915 0.959 1_556 S
H904 C918 0.929 . S
H905 C919 0.931 . S
H906 C921 0.930 . S
C907 H895 0.930 1_556 S
C907 C908 1.399 . S
C907 C912 1.399 . S
C908 C907 1.399 . S
C908 C909 1.376 . S
C909 H896 0.930 . S
C909 C908 1.376 . S
C909 C910 1.388 . S
C910 H897 0.930 . S
C910 C909 1.388 . S
C910 C911 1.390 . S
C911 C910 1.390 . S
C911 C912 1.394 . S
C911 C917 1.465 . S
C912 C907 1.399 . S
C912 C911 1.394 . S
C912 C913 1.516 . S
C913 C912 1.516 . S
C913 C914 1.502 1_556 S
C913 C915 1.561 1_556 S
C913 C916 1.526 . S
C914 H898 0.959 1_554 S
C914 H899 0.959 . S
C914 H900 0.961 . S
C914 C913 1.502 1_554 S
C915 H901 0.960 . S
C915 H902 0.961 . S
C915 H903 0.959 1_554 S
C915 C913 1.561 1_554 S
C916 C913 1.526 . S
C916 C917 1.396 . S
C916 C921 1.390 . S
C917 C911 1.465 . S
C917 C916 1.396 . S
C917 C918 1.399 . S
C918 H904 0.929 . S
C918 C917 1.399 . S
C918 C919 1.385 . S
C919 H905 0.931 . S
C919 C918 1.385 . S
C919 C920 1.389 . S
C920 C919 1.389 . S
C920 C921 1.387 . S
C921 H906 0.930 . S
C921 C916 1.390 . S
C921 C920 1.387 . S
H922 C934 0.930 . S
H923 C936 0.930 . S
H924 C937 0.930 . S
H925 C941 0.959 . S
H926 C941 0.959 . S
H927 C941 0.961 . S
H928 C942 0.960 . S
H929 C942 0.961 . S
H930 C942 0.959 . S
H931 C945 0.929 . S
H932 C946 0.931 . S
H933 C948 0.930 . S
C934 H922 0.930 . S
C934 C935 1.399 . S
C934 C939 1.399 . S
C935 C934 1.399 . S
C935 C936 1.376 . S
C936 H923 0.930 . S
C936 C935 1.376 . S
C936 C937 1.388 . S
C937 H924 0.930 . S
C937 C936 1.388 . S
C937 C938 1.390 . S
C938 C937 1.390 . S
C938 C939 1.394 . S
C938 C944 1.465 . S
C939 C934 1.399 . S
C939 C938 1.394 . S
C939 C940 1.516 . S
C940 C939 1.516 . S
C940 C941 1.502 . S
C940 C942 1.561 . S
C940 C943 1.526 . S
C941 H925 0.959 . S
C941 H926 0.959 . S
C941 H927 0.961 . S
C941 C940 1.502 . S
C942 H928 0.960 . S
C942 H929 0.961 . S
C942 H930 0.959 . S
C942 C940 1.561 . S
C943 C940 1.526 . S
C943 C944 1.396 . S
C943 C948 1.390 . S
C944 C938 1.465 . S
C944 C943 1.396 . S
C944 C945 1.399 . S
C945 H931 0.929 . S
C945 C944 1.399 . S
C945 C946 1.385 . S
C946 H932 0.931 . S
C946 C945 1.385 . S
C946 C947 1.389 . S
C947 C946 1.389 . S
C947 C948 1.387 . S
C948 H933 0.930 . S
C948 C943 1.390 . S
C948 C947 1.387 . S
H949 C961 0.930 . S
H950 C963 0.930 . S
H951 C964 0.930 . S
H952 C968 0.959 . S
H953 C968 0.959 . S
H954 C968 0.961 . S
H955 C969 0.960 . S
H956 C969 0.961 . S
H957 C969 0.959 . S
H958 C972 0.929 . S
H959 C973 0.931 . S
H960 C975 0.930 . S
C961 H949 0.930 . S
C961 C962 1.399 . S
C961 C966 1.399 . S
C962 C961 1.399 . S
C962 C963 1.376 . S
C963 H950 0.930 . S
C963 C962 1.376 . S
C963 C964 1.388 . S
C964 H951 0.930 . S
C964 C963 1.388 . S
C964 C965 1.390 . S
C965 C964 1.390 . S
C965 C966 1.394 . S
C965 C971 1.465 . S
C966 C961 1.399 . S
C966 C965 1.394 . S
C966 C967 1.516 . S
C967 C966 1.516 . S
C967 C968 1.502 . S
C967 C969 1.561 . S
C967 C970 1.526 . S
C968 H952 0.959 . S
C968 H953 0.959 . S
C968 H954 0.961 . S
C968 C967 1.502 . S
C969 H955 0.960 . S
C969 H956 0.961 . S
C969 H957 0.959 . S
C969 C967 1.561 . S
C970 C967 1.526 . S
C970 C971 1.396 . S
C970 C975 1.390 . S
C971 C965 1.465 . S
C971 C970 1.396 . S
C971 C972 1.399 . S
C972 H958 0.929 . S
C972 C971 1.399 . S
C972 C973 1.385 . S
C973 H959 0.931 . S
C973 C972 1.385 . S
C973 C974 1.389 . S
C974 C973 1.389 . S
C974 C975 1.387 . S
C975 H960 0.930 . S
C975 C970 1.390 . S
C975 C974 1.387 . S
H976 C988 0.930 . S
H977 C990 0.930 . S
H978 C991 0.893 1_656 S
H979 C995 0.959 . S
H980 C995 0.959 . S
H981 C995 0.961 . S
H982 C996 0.960 . S
H983 C996 0.961 . S
H984 C996 0.959 . S
H985 C999 0.902 1_645 S
H986 C1000 0.931 . S
H987 C1002 0.930 . S
C988 H976 0.930 . S
C988 C989 1.399 . S
C988 C993 1.399 . S
C989 C988 1.399 . S
C989 C990 1.376 . S
C990 H977 0.930 . S
C990 C989 1.376 . S
C990 C991 1.388 . S
C991 H978 0.893 1_454 S
C991 C990 1.388 . S
C991 C992 1.390 . S
C992 C991 1.390 . S
C992 C993 1.394 . S
C992 C998 1.465 1_544 S
C993 C988 1.399 . S
C993 C992 1.394 . S
C993 C994 1.516 1_545 S
C994 C993 1.516 1_565 S
C994 C995 1.502 . S
C994 C996 1.561 . S
C994 C997 1.526 1_554 S
C995 H979 0.959 . S
C995 H980 0.959 . S
C995 H981 0.961 . S
C995 C994 1.502 . S
C996 H982 0.960 . S
C996 H983 0.961 . S
C996 H984 0.959 . S
C996 C994 1.561 . S
C997 C994 1.526 1_556 S
C997 C998 1.396 . S
C997 C1002 1.390 . S
C998 C992 1.465 1_566 S
C998 C997 1.396 . S
C998 C999 1.399 . S
C999 H985 0.902 1_465 S
C999 C998 1.399 . S
C999 C1000 1.385 . S
C1000 H986 0.931 . S
C1000 C999 1.385 . S
C1000 C1001 1.389 . S
C1001 C1000 1.389 . S
C1001 C1002 1.387 . S
C1002 H987 0.930 . S
C1002 C997 1.390 . S
C1002 C1001 1.387 . S
H1003 C1015 0.930 . S
H1004 C1017 0.930 . S
H1005 C1018 0.930 . S
H1006 C1022 0.959 . S
H1007 C1022 0.959 . S
H1008 C1022 0.961 . S
H1009 C1023 0.960 . S
H1010 C1023 0.961 . S
H1011 C1023 0.959 . S
H1012 C1026 0.929 . S
H1013 C1027 0.931 . S
H1014 C1029 0.930 . S
C1015 H1003 0.930 . S
C1015 C1016 1.399 . S
C1015 C1020 1.399 . S
C1016 C1015 1.399 . S
C1016 C1017 1.376 . S
C1017 H1004 0.930 . S
C1017 C1016 1.376 . S
C1017 C1018 1.388 . S
C1018 H1005 0.930 . S
C1018 C1017 1.388 . S
C1018 C1019 1.390 . S
C1019 C1018 1.390 . S
C1019 C1020 1.394 . S
C1019 C1025 1.465 . S
C1020 C1015 1.399 . S
C1020 C1019 1.394 . S
C1020 C1021 1.516 . S
C1021 C1020 1.516 . S
C1021 C1022 1.502 . S
C1021 C1023 1.561 . S
C1021 C1024 1.526 . S
C1022 H1006 0.959 . S
C1022 H1007 0.959 . S
C1022 H1008 0.961 . S
C1022 C1021 1.502 . S
C1023 H1009 0.960 . S
C1023 H1010 0.961 . S
C1023 H1011 0.959 . S
C1023 C1021 1.561 . S
C1024 C1021 1.526 . S
C1024 C1025 1.396 . S
C1024 C1029 1.390 . S
C1025 C1019 1.465 . S
C1025 C1024 1.396 . S
C1025 C1026 1.399 . S
C1026 H1012 0.929 . S
C1026 C1025 1.399 . S
C1026 C1027 1.385 . S
C1027 H1013 0.931 . S
C1027 C1026 1.385 . S
C1027 C1028 1.389 . S
C1028 C1027 1.389 . S
C1028 C1029 1.387 . S
C1029 H1014 0.930 . S
C1029 C1024 1.390 . S
C1029 C1028 1.387 . S
H1030 C1042 0.930 . S
H1031 C1044 0.930 . S
H1032 C1045 0.930 1_565 S
H1033 C1049 0.959 . S
H1034 C1049 0.959 . S
H1035 C1049 0.961 . S
H1036 C1050 0.960 . S
H1037 C1050 0.961 . S
H1038 C1050 0.959 . S
H1039 C1053 0.929 . S
H1040 C1054 0.931 . S
H1041 C1056 0.930 . S
C1042 H1030 0.930 . S
C1042 C1043 1.399 . S
C1042 C1047 1.399 . S
C1043 C1042 1.399 . S
C1043 C1044 1.376 . S
C1044 H1031 0.930 . S
C1044 C1043 1.376 . S
C1044 C1045 1.388 . S
C1045 H1032 0.930 1_545 S
C1045 C1044 1.388 . S
C1045 C1046 1.390 . S
C1046 C1045 1.390 . S
C1046 C1047 1.394 . S
C1046 C1052 1.465 1_545 S
C1047 C1042 1.399 . S
C1047 C1046 1.394 . S
C1047 C1048 1.516 . S
C1048 C1047 1.516 . S
C1048 C1049 1.502 . S
C1048 C1050 1.561 . S
C1048 C1051 1.526 1_545 S
C1049 H1033 0.959 . S
C1049 H1034 0.959 . S
C1049 H1035 0.961 . S
C1049 C1048 1.502 . S
C1050 H1036 0.960 . S
C1050 H1037 0.961 . S
C1050 H1038 0.959 . S
C1050 C1048 1.561 . S
C1051 C1048 1.526 1_565 S
C1051 C1052 1.396 . S
C1051 C1056 1.390 . S
C1052 C1046 1.465 1_565 S
C1052 C1051 1.396 . S
C1052 C1053 1.399 . S
C1053 H1039 0.929 . S
C1053 C1052 1.399 . S
C1053 C1054 1.385 . S
C1054 H1040 0.931 . S
C1054 C1053 1.385 . S
C1054 C1055 1.389 . S
C1055 C1054 1.389 . S
C1055 C1056 1.387 . S
C1056 H1041 0.930 . S
C1056 C1051 1.390 . S
C1056 C1055 1.387 . S
H1057 C1069 0.930 . S
H1058 C1071 0.930 . S
H1059 C1072 0.930 . S
H1060 C1076 0.959 . S
H1061 C1076 0.959 . S
H1062 C1076 0.961 . S
H1063 C1077 0.960 . S
H1064 C1077 0.961 . S
H1065 C1077 0.959 . S
H1066 C1080 0.929 . S
H1067 C1081 0.931 . S
H1068 C1083 0.930 . S
C1069 H1057 0.930 . S
C1069 C1070 1.399 . S
C1069 C1074 1.399 . S
C1070 C1069 1.399 . S
C1070 C1071 1.376 . S
C1071 H1058 0.930 . S
C1071 C1070 1.376 . S
C1071 C1072 1.388 . S
C1072 H1059 0.930 . S
C1072 C1071 1.388 . S
C1072 C1073 1.390 . S
C1073 C1072 1.390 . S
C1073 C1074 1.394 . S
C1073 C1079 1.465 . S
C1074 C1069 1.399 . S
C1074 C1073 1.394 . S
C1074 C1075 1.516 . S
C1075 C1074 1.516 . S
C1075 C1076 1.502 . S
C1075 C1077 1.561 . S
C1075 C1078 1.526 . S
C1076 H1060 0.959 . S
C1076 H1061 0.959 . S
C1076 H1062 0.961 . S
C1076 C1075 1.502 . S
C1077 H1063 0.960 . S
C1077 H1064 0.961 . S
C1077 H1065 0.959 . S
C1077 C1075 1.561 . S
C1078 C1075 1.526 . S
C1078 C1079 1.396 . S
C1078 C1083 1.390 . S
C1079 C1073 1.465 . S
C1079 C1078 1.396 . S
C1079 C1080 1.399 . S
C1080 H1066 0.929 . S
C1080 C1079 1.399 . S
C1080 C1081 1.385 . S
C1081 H1067 0.931 . S
C1081 C1080 1.385 . S
C1081 C1082 1.389 . S
C1082 C1081 1.389 . S
C1082 C1083 1.387 . S
C1083 H1068 0.930 . S
C1083 C1078 1.390 . S
C1083 C1082 1.387 . S
H1084 C1096 0.930 . S
H1085 C1098 0.930 . S
H1086 C1099 0.930 . S
H1087 C1103 0.959 . S
H1088 C1103 0.959 . S
H1089 C1103 0.961 . S
H1090 C1104 0.960 . S
H1091 C1104 0.961 . S
H1092 C1104 0.959 . S
H1093 C1107 0.929 . S
H1094 C1108 0.931 . S
H1095 C1110 0.930 . S
C1096 H1084 0.930 . S
C1096 C1097 1.399 . S
C1096 C1101 1.399 . S
C1097 C1096 1.399 . S
C1097 C1098 1.376 . S
C1098 H1085 0.930 . S
C1098 C1097 1.376 . S
C1098 C1099 1.388 . S
C1099 H1086 0.930 . S
C1099 C1098 1.388 . S
C1099 C1100 1.390 . S
C1100 C1099 1.390 . S
C1100 C1101 1.394 . S
C1100 C1106 1.465 . S
C1101 C1096 1.399 . S
C1101 C1100 1.394 . S
C1101 C1102 1.516 . S
C1102 C1101 1.516 . S
C1102 C1103 1.502 . S
C1102 C1104 1.561 . S
C1102 C1105 1.526 . S
C1103 H1087 0.959 . S
C1103 H1088 0.959 . S
C1103 H1089 0.961 . S
C1103 C1102 1.502 . S
C1104 H1090 0.960 . S
C1104 H1091 0.961 . S
C1104 H1092 0.959 . S
C1104 C1102 1.561 . S
C1105 C1102 1.526 . S
C1105 C1106 1.396 . S
C1105 C1110 1.390 . S
C1106 C1100 1.465 . S
C1106 C1105 1.396 . S
C1106 C1107 1.399 . S
C1107 H1093 0.929 . S
C1107 C1106 1.399 . S
C1107 C1108 1.385 . S
C1108 H1094 0.931 . S
C1108 C1107 1.385 . S
C1108 C1109 1.389 . S
C1109 C1108 1.389 . S
C1109 C1110 1.387 . S
C1110 H1095 0.930 . S
C1110 C1105 1.390 . S
C1110 C1109 1.387 . S
H1111 C1123 0.930 . S
H1112 C1125 0.930 . S
H1113 C1126 0.930 . S
H1114 C1130 0.959 . S
H1115 C1130 0.959 . S
H1116 C1130 0.961 . S
H1117 C1131 0.960 . S
H1118 C1131 0.961 . S
H1119 C1131 0.959 . S
H1120 C1134 0.929 . S
H1121 C1135 0.931 . S
H1122 C1137 0.930 . S
C1123 H1111 0.930 . S
C1123 C1124 1.399 . S
C1123 C1128 1.399 . S
C1124 C1123 1.399 . S
C1124 C1125 1.376 . S
C1125 H1112 0.930 . S
C1125 C1124 1.376 . S
C1125 C1126 1.388 . S
C1126 H1113 0.930 . S
C1126 C1125 1.388 . S
C1126 C1127 1.390 . S
C1127 C1126 1.390 . S
C1127 C1128 1.394 . S
C1127 C1133 1.465 . S
C1128 C1123 1.399 . S
C1128 C1127 1.394 . S
C1128 C1129 1.516 . S
C1129 C1128 1.516 . S
C1129 C1130 1.502 . S
C1129 C1131 1.561 . S
C1129 C1132 1.526 . S
C1130 H1114 0.959 . S
C1130 H1115 0.959 . S
C1130 H1116 0.961 . S
C1130 C1129 1.502 . S
C1131 H1117 0.960 . S
C1131 H1118 0.961 . S
C1131 H1119 0.959 . S
C1131 C1129 1.561 . S
C1132 C1129 1.526 . S
C1132 C1133 1.396 . S
C1132 C1137 1.390 . S
C1133 C1127 1.465 . S
C1133 C1132 1.396 . S
C1133 C1134 1.399 . S
C1134 H1120 0.929 . S
C1134 C1133 1.399 . S
C1134 C1135 1.385 . S
C1135 H1121 0.931 . S
C1135 C1134 1.385 . S
C1135 C1136 1.389 . S
C1136 C1135 1.389 . S
C1136 C1137 1.387 . S
C1137 H1122 0.930 . S
C1137 C1132 1.390 . S
C1137 C1136 1.387 . S
H1138 C1150 0.930 . S
H1139 C1152 0.930 . S
H1140 C1153 0.930 . S
H1141 C1157 0.959 . S
H1142 C1157 0.959 . S
H1143 C1157 0.961 . S
H1144 C1158 0.960 . S
H1145 C1158 0.961 . S
H1146 C1158 0.959 . S
H1147 C1161 0.929 . S
H1148 C1162 0.931 . S
H1149 C1164 0.930 . S
C1150 H1138 0.930 . S
C1150 C1151 1.399 . S
C1150 C1155 1.399 . S
C1151 C1150 1.399 . S
C1151 C1152 1.376 . S
C1152 H1139 0.930 . S
C1152 C1151 1.376 . S
C1152 C1153 1.388 . S
C1153 H1140 0.930 . S
C1153 C1152 1.388 . S
C1153 C1154 1.390 . S
C1154 C1153 1.390 . S
C1154 C1155 1.394 . S
C1154 C1160 1.465 . S
C1155 C1150 1.399 . S
C1155 C1154 1.394 . S
C1155 C1156 1.516 . S
C1156 C1155 1.516 . S
C1156 C1157 1.502 . S
C1156 C1158 1.561 . S
C1156 C1159 1.526 . S
C1157 H1141 0.959 . S
C1157 H1142 0.959 . S
C1157 H1143 0.961 . S
C1157 C1156 1.502 . S
C1158 H1144 0.960 . S
C1158 H1145 0.961 . S
C1158 H1146 0.959 . S
C1158 C1156 1.561 . S
C1159 C1156 1.526 . S
C1159 C1160 1.396 . S
C1159 C1164 1.390 . S
C1160 C1154 1.465 . S
C1160 C1159 1.396 . S
C1160 C1161 1.399 . S
C1161 H1147 0.929 . S
C1161 C1160 1.399 . S
C1161 C1162 1.385 . S
C1162 H1148 0.931 . S
C1162 C1161 1.385 . S
C1162 C1163 1.389 . S
C1163 C1162 1.389 . S
C1163 C1164 1.387 . S
C1164 H1149 0.930 . S
C1164 C1159 1.390 . S
C1164 C1163 1.387 . S
H1165 C1177 0.930 . S
H1166 C1179 0.930 . S
H1167 C1180 0.930 . S
H1168 C1184 0.959 . S
H1169 C1184 0.959 . S
H1170 C1184 0.961 . S
H1171 C1185 0.960 . S
H1172 C1185 0.961 . S
H1173 C1185 0.959 . S
H1174 C1188 0.929 . S
H1175 C1189 0.931 . S
H1176 C1191 0.930 . S
C1177 H1165 0.930 . S
C1177 C1178 1.410 . S
C1177 C1182 1.399 . S
C1178 C1177 1.410 . S
C1178 C1179 1.364 1_455 S
C1179 H1166 0.930 . S
C1179 C1178 1.364 1_655 S
C1179 C1180 1.388 . S
C1180 H1167 0.930 . S
C1180 C1179 1.388 . S
C1180 C1181 1.390 . S
C1181 C1180 1.390 . S
C1181 C1182 1.394 1_655 S
C1181 C1187 1.465 1_556 S
C1182 C1177 1.399 . S
C1182 C1181 1.394 1_455 S
C1182 C1183 1.516 1_556 S
C1183 C1182 1.516 1_554 S
C1183 C1184 1.502 . S
C1183 C1185 1.561 1_455 S
C1183 C1186 1.526 . S
C1184 H1168 0.959 . S
C1184 H1169 0.959 . S
C1184 H1170 0.961 . S
C1184 C1183 1.502 . S
C1185 H1171 0.960 . S
C1185 H1172 0.961 . S
C1185 H1173 0.959 . S
C1185 C1183 1.561 1_655 S
C1186 C1183 1.526 . S
C1186 C1187 1.396 1_455 S
C1186 C1191 1.390 . S
C1187 C1181 1.465 1_554 S
C1187 C1186 1.396 1_655 S
C1187 C1188 1.399 1_554 S
C1188 H1174 0.929 . S
C1188 C1187 1.399 1_556 S
C1188 C1189 1.385 1_556 S
C1189 H1175 0.931 . S
C1189 C1188 1.385 1_554 S
C1189 C1190 1.389 1_655 S
C1190 C1189 1.389 1_455 S
C1190 C1191 1.387 . S
C1191 H1176 0.930 . S
C1191 C1186 1.390 . S
C1191 C1190 1.387 . S
H1192 C1204 0.930 . S
H1193 C1206 0.930 . S
H1194 C1207 0.930 . S
H1195 C1211 0.959 . S
H1196 C1211 0.959 . S
H1197 C1211 0.961 . S
H1198 C1212 0.960 . S
H1199 C1212 0.961 . S
H1200 C1212 0.959 1_455 S
H1201 C1215 0.929 . S
H1202 C1216 0.931 . S
H1203 C1218 0.930 . S
C1204 H1192 0.930 . S
C1204 C1205 1.399 1_655 S
C1204 C1209 1.399 . S
C1205 C1204 1.399 1_455 S
C1205 C1206 1.376 . S
C1206 H1193 0.930 . S
C1206 C1205 1.376 . S
C1206 C1207 1.388 . S
C1207 H1194 0.930 . S
C1207 C1206 1.388 . S
C1207 C1208 1.390 . S
C1208 C1207 1.390 . S
C1208 C1209 1.394 1_455 S
C1208 C1214 1.465 . S
C1209 C1204 1.399 . S
C1209 C1208 1.394 1_655 S
C1209 C1210 1.516 . S
C1210 C1209 1.516 . S
C1210 C1211 1.502 . S
C1210 C1212 1.561 . S
C1210 C1213 1.519 1_655 S
C1211 H1195 0.959 . S
C1211 H1196 0.959 . S
C1211 H1197 0.961 . S
C1211 C1210 1.502 . S
C1212 H1198 0.960 . S
C1212 H1199 0.961 . S
C1212 H1200 0.959 1_655 S
C1212 C1210 1.561 . S
C1213 C1210 1.519 1_455 S
C1213 C1214 1.405 . S
C1213 C1218 1.388 1_455 S
C1214 C1208 1.465 . S
C1214 C1213 1.405 . S
C1214 C1215 1.399 . S
C1215 H1201 0.929 . S
C1215 C1214 1.399 . S
C1215 C1216 1.385 . S
C1216 H1202 0.931 . S
C1216 C1215 1.385 . S
C1216 C1217 1.389 . S
C1217 C1216 1.389 . S
C1217 C1218 1.387 1_455 S
C1218 H1203 0.930 . S
C1218 C1213 1.388 1_655 S
C1218 C1217 1.387 1_655 S
H1219 C1231 0.930 . S
H1220 C1233 0.930 . S
H1221 C1234 0.930 . S
H1222 C1238 0.959 . S
H1223 C1238 0.959 . S
H1224 C1238 0.961 1_554 S
H1225 C1239 0.960 . S
H1226 C1239 0.961 . S
H1227 C1239 0.959 . S
H1228 C1242 0.929 . S
H1229 C1243 0.931 . S
H1230 C1245 0.930 . S
C1231 H1219 0.930 . S
C1231 C1232 1.399 . S
C1231 C1236 1.399 . S
C1232 C1231 1.399 . S
C1232 C1233 1.376 . S
C1233 H1220 0.930 . S
C1233 C1232 1.376 . S
C1233 C1234 1.388 . S
C1234 H1221 0.930 . S
C1234 C1233 1.388 . S
C1234 C1235 1.390 1_554 S
C1235 C1234 1.390 1_556 S
C1235 C1236 1.394 1_556 S
C1235 C1241 1.465 . S
C1236 C1231 1.399 . S
C1236 C1235 1.394 1_554 S
C1236 C1237 1.516 1_554 S
C1237 C1236 1.516 1_556 S
C1237 C1238 1.502 . S
C1237 C1239 1.561 . S
C1237 C1240 1.526 . S
C1238 H1222 0.959 . S
C1238 H1223 0.959 . S
C1238 H1224 0.961 1_556 S
C1238 C1237 1.502 . S
C1239 H1225 0.960 . S
C1239 H1226 0.961 . S
C1239 H1227 0.959 . S
C1239 C1237 1.561 . S
C1240 C1237 1.526 . S
C1240 C1241 1.396 . S
C1240 C1245 1.390 . S
C1241 C1235 1.465 . S
C1241 C1240 1.396 . S
C1241 C1242 1.399 . S
C1242 H1228 0.929 . S
C1242 C1241 1.399 . S
C1242 C1243 1.385 . S
C1243 H1229 0.931 . S
C1243 C1242 1.385 . S
C1243 C1244 1.389 . S
C1244 C1243 1.389 . S
C1244 C1245 1.387 . S
C1245 H1230 0.930 . S
C1245 C1240 1.390 . S
C1245 C1244 1.387 . S
H1246 C1258 0.930 . S
H1247 C1260 0.930 . S
H1248 C1261 0.930 . S
H1249 C1265 0.959 . S
H1250 C1265 0.959 . S
H1251 C1265 0.961 . S
H1252 C1266 0.960 . S
H1253 C1266 0.961 . S
H1254 C1266 0.959 . S
H1255 C1269 0.929 . S
H1256 C1270 0.931 . S
H1257 C1272 0.930 . S
C1258 H1246 0.930 . S
C1258 C1259 1.399 . S
C1258 C1263 1.399 . S
C1259 C1258 1.399 . S
C1259 C1260 1.376 . S
C1260 H1247 0.930 . S
C1260 C1259 1.376 . S
C1260 C1261 1.388 . S
C1261 H1248 0.930 . S
C1261 C1260 1.388 . S
C1261 C1262 1.390 . S
C1262 C1261 1.390 . S
C1262 C1263 1.394 . S
C1262 C1268 1.465 . S
C1263 C1258 1.399 . S
C1263 C1262 1.394 . S
C1263 C1264 1.516 . S
C1264 C1263 1.516 . S
C1264 C1265 1.502 . S
C1264 C1266 1.561 . S
C1264 C1267 1.526 . S
C1265 H1249 0.959 . S
C1265 H1250 0.959 . S
C1265 H1251 0.961 . S
C1265 C1264 1.502 . S
C1266 H1252 0.960 . S
C1266 H1253 0.961 . S
C1266 H1254 0.959 . S
C1266 C1264 1.561 . S
C1267 C1264 1.526 . S
C1267 C1268 1.396 . S
C1267 C1272 1.390 . S
C1268 C1262 1.465 . S
C1268 C1267 1.396 . S
C1268 C1269 1.399 . S
C1269 H1255 0.929 . S
C1269 C1268 1.399 . S
C1269 C1270 1.385 . S
C1270 H1256 0.931 . S
C1270 C1269 1.385 . S
C1270 C1271 1.389 . S
C1271 C1270 1.389 . S
C1271 C1272 1.387 . S
C1272 H1257 0.930 . S
C1272 C1267 1.390 . S
C1272 C1271 1.387 . S
H1273 C1285 0.930 . S
H1274 C1287 0.930 . S
H1275 C1288 0.930 . S
H1276 C1292 0.959 . S
H1277 C1292 0.959 . S
H1278 C1292 0.961 . S
H1279 C1293 0.960 . S
H1280 C1293 0.961 . S
H1281 C1293 0.959 . S
H1282 C1296 0.929 . S
H1283 C1297 0.931 . S
H1284 C1299 0.930 . S
C1285 H1273 0.930 . S
C1285 C1286 1.399 . S
C1285 C1290 1.399 . S
C1286 C1285 1.399 . S
C1286 C1287 1.376 . S
C1287 H1274 0.930 . S
C1287 C1286 1.376 . S
C1287 C1288 1.388 . S
C1288 H1275 0.930 . S
C1288 C1287 1.388 . S
C1288 C1289 1.390 . S
C1289 C1288 1.390 . S
C1289 C1290 1.394 . S
C1289 C1295 1.465 . S
C1290 C1285 1.399 . S
C1290 C1289 1.394 . S
C1290 C1291 1.516 . S
C1291 C1290 1.516 . S
C1291 C1292 1.502 . S
C1291 C1293 1.561 . S
C1291 C1294 1.526 . S
C1292 H1276 0.959 . S
C1292 H1277 0.959 . S
C1292 H1278 0.961 . S
C1292 C1291 1.502 . S
C1293 H1279 0.960 . S
C1293 H1280 0.961 . S
C1293 H1281 0.959 . S
C1293 C1291 1.561 . S
C1294 C1291 1.526 . S
C1294 C1295 1.396 . S
C1294 C1299 1.390 . S
C1295 C1289 1.465 . S
C1295 C1294 1.396 . S
C1295 C1296 1.399 . S
C1296 H1282 0.929 . S
C1296 C1295 1.399 . S
C1296 C1297 1.385 . S
C1297 H1283 0.931 . S
C1297 C1296 1.385 . S
C1297 C1298 1.389 . S
C1298 C1297 1.389 . S
C1298 C1299 1.387 . S
C1299 H1284 0.930 . S
C1299 C1294 1.390 . S
C1299 C1298 1.387 . S
H1300 C1312 0.930 . S
H1301 C1314 0.930 . S
H1302 C1315 0.930 . S
H1303 C1319 0.959 . S
H1304 C1319 0.959 . S
H1305 C1319 0.961 . S
H1306 C1320 0.960 . S
H1307 C1320 0.961 . S
H1308 C1320 0.959 1_655 S
H1309 C1323 0.929 . S
H1310 C1324 0.931 . S
H1311 C1326 0.930 . S
C1312 H1300 0.930 . S
C1312 C1313 1.399 . S
C1312 C1317 1.399 . S
C1313 C1312 1.399 . S
C1313 C1314 1.376 1_455 S
C1314 H1301 0.930 . S
C1314 C1313 1.376 1_655 S
C1314 C1315 1.388 . S
C1315 H1302 0.930 . S
C1315 C1314 1.388 . S
C1315 C1316 1.402 . S
C1316 C1315 1.402 . S
C1316 C1317 1.376 1_655 S
C1316 C1322 1.467 . S
C1317 C1312 1.399 . S
C1317 C1316 1.376 1_455 S
C1317 C1318 1.516 . S
C1318 C1317 1.516 . S
C1318 C1319 1.502 . S
C1318 C1320 1.561 . S
C1318 C1321 1.526 . S
C1319 H1303 0.959 . S
C1319 H1304 0.959 . S
C1319 H1305 0.961 . S
C1319 C1318 1.502 . S
C1320 H1306 0.960 . S
C1320 H1307 0.961 . S
C1320 H1308 0.959 1_455 S
C1320 C1318 1.561 . S
C1321 C1318 1.526 . S
C1321 C1322 1.396 1_455 S
C1321 C1326 1.390 . S
C1322 C1316 1.467 . S
C1322 C1321 1.396 1_655 S
C1322 C1323 1.399 . S
C1323 H1309 0.929 . S
C1323 C1322 1.399 . S
C1323 C1324 1.385 . S
C1324 H1310 0.931 . S
C1324 C1323 1.385 . S
C1324 C1325 1.389 1_655 S
C1325 C1324 1.389 1_455 S
C1325 C1326 1.387 . S
C1326 H1311 0.930 . S
C1326 C1321 1.390 . S
C1326 C1325 1.387 . S
H1327 C1339 0.930 . S
H1328 C1341 0.930 . S
H1329 C1342 0.930 . S
H1330 C1346 0.959 . S
H1331 C1346 0.959 . S
H1332 C1346 0.961 . S
H1333 C1347 0.960 . S
H1334 C1347 0.961 . S
H1335 C1347 0.959 . S
H1336 C1350 0.929 . S
H1337 C1351 0.931 . S
H1338 C1353 0.930 . S
C1339 H1327 0.930 . S
C1339 C1340 1.399 . S
C1339 C1344 1.399 . S
C1340 C1339 1.399 . S
C1340 C1341 1.376 . S
C1341 H1328 0.930 . S
C1341 C1340 1.376 . S
C1341 C1342 1.388 . S
C1342 H1329 0.930 . S
C1342 C1341 1.388 . S
C1342 C1343 1.390 . S
C1343 C1342 1.390 . S
C1343 C1344 1.394 . S
C1343 C1349 1.465 . S
C1344 C1339 1.399 . S
C1344 C1343 1.394 . S
C1344 C1345 1.516 . S
C1345 C1344 1.516 . S
C1345 C1346 1.502 . S
C1345 C1347 1.561 . S
C1345 C1348 1.526 . S
C1346 H1330 0.959 . S
C1346 H1331 0.959 . S
C1346 H1332 0.961 . S
C1346 C1345 1.502 . S
C1347 H1333 0.960 . S
C1347 H1334 0.961 . S
C1347 H1335 0.959 . S
C1347 C1345 1.561 . S
C1348 C1345 1.526 . S
C1348 C1349 1.396 . S
C1348 C1353 1.390 . S
C1349 C1343 1.465 . S
C1349 C1348 1.396 . S
C1349 C1350 1.399 . S
C1350 H1336 0.929 . S
C1350 C1349 1.399 . S
C1350 C1351 1.385 . S
C1351 H1337 0.931 . S
C1351 C1350 1.385 . S
C1351 C1352 1.389 . S
C1352 C1351 1.389 . S
C1352 C1353 1.387 . S
C1353 H1338 0.930 . S
C1353 C1348 1.390 . S
C1353 C1352 1.387 . S
H1354 C1366 0.930 . S
H1355 C1368 0.930 . S
H1356 C1369 0.930 . S
H1357 C1373 0.959 . S
H1358 C1373 0.959 . S
H1359 C1373 0.961 . S
H1360 C1374 0.960 . S
H1361 C1374 0.961 . S
H1362 C1374 0.959 . S
H1363 C1377 0.929 . S
H1364 C1378 0.931 1_554 S
H1365 C1380 0.930 . S
C1366 H1354 0.930 . S
C1366 C1367 1.399 . S
C1366 C1371 1.399 . S
C1367 C1366 1.399 . S
C1367 C1368 1.376 . S
C1368 H1355 0.930 . S
C1368 C1367 1.376 . S
C1368 C1369 1.388 . S
C1369 H1356 0.930 . S
C1369 C1368 1.388 . S
C1369 C1370 1.390 . S
C1370 C1369 1.390 . S
C1370 C1371 1.394 . S
C1370 C1376 1.465 . S
C1371 C1366 1.399 . S
C1371 C1370 1.394 . S
C1371 C1372 1.516 . S
C1372 C1371 1.516 . S
C1372 C1373 1.502 . S
C1372 C1374 1.561 . S
C1372 C1375 1.526 . S
C1373 H1357 0.959 . S
C1373 H1358 0.959 . S
C1373 H1359 0.961 . S
C1373 C1372 1.502 . S
C1374 H1360 0.960 . S
C1374 H1361 0.961 . S
C1374 H1362 0.959 . S
C1374 C1372 1.561 . S
C1375 C1372 1.526 . S
C1375 C1376 1.396 . S
C1375 C1380 1.390 . S
C1376 C1370 1.465 . S
C1376 C1375 1.396 . S
C1376 C1377 1.399 . S
C1377 H1363 0.929 . S
C1377 C1376 1.399 . S
C1377 C1378 1.385 . S
C1378 H1364 0.931 1_556 S
C1378 C1377 1.385 . S
C1378 C1379 1.389 . S
C1379 C1378 1.389 . S
C1379 C1380 1.387 . S
C1380 H1365 0.930 . S
C1380 C1375 1.390 . S
C1380 C1379 1.387 . S
H1381 C1393 0.930 . S
H1382 C1395 0.930 . S
H1383 C1396 0.930 . S
H1384 C1400 0.959 . S
H1385 C1400 0.959 . S
H1386 C1400 0.961 . S
H1387 C1401 0.960 . S
H1388 C1401 0.961 . S
H1389 C1401 0.959 . S
H1390 C1404 0.929 . S
H1391 C1405 0.931 . S
H1392 C1407 0.930 . S
C1393 H1381 0.930 . S
C1393 C1394 1.399 . S
C1393 C1398 1.399 . S
C1394 C1393 1.399 . S
C1394 C1395 1.376 . S
C1395 H1382 0.930 . S
C1395 C1394 1.376 . S
C1395 C1396 1.388 . S
C1396 H1383 0.930 . S
C1396 C1395 1.388 . S
C1396 C1397 1.390 1_556 S
C1397 C1396 1.390 1_554 S
C1397 C1398 1.394 1_554 S
C1397 C1403 1.465 . S
C1398 C1393 1.399 . S
C1398 C1397 1.394 1_556 S
C1398 C1399 1.516 1_556 S
C1399 C1398 1.516 1_554 S
C1399 C1400 1.502 . S
C1399 C1401 1.561 . S
C1399 C1402 1.526 . S
C1400 H1384 0.959 . S
C1400 H1385 0.959 . S
C1400 H1386 0.961 . S
C1400 C1399 1.502 . S
C1401 H1387 0.960 . S
C1401 H1388 0.961 . S
C1401 H1389 0.959 . S
C1401 C1399 1.561 . S
C1402 C1399 1.526 . S
C1402 C1403 1.396 . S
C1402 C1407 1.390 . S
C1403 C1397 1.465 . S
C1403 C1402 1.396 . S
C1403 C1404 1.399 . S
C1404 H1390 0.929 . S
C1404 C1403 1.399 . S
C1404 C1405 1.385 . S
C1405 H1391 0.931 . S
C1405 C1404 1.385 . S
C1405 C1406 1.389 . S
C1406 C1405 1.389 . S
C1406 C1407 1.387 . S
C1407 H1392 0.930 . S
C1407 C1402 1.390 . S
C1407 C1406 1.387 . S
H1408 C1420 0.930 . S
H1409 C1422 0.930 . S
H1410 C1423 0.930 . S
H1411 C1427 0.959 1_556 S
H1412 C1427 0.959 1_556 S
H1413 C1427 0.961 . S
H1414 C1428 0.960 . S
H1415 C1428 0.961 . S
H1416 C1428 0.959 . S
H1417 C1431 0.929 1_554 S
H1418 C1432 0.931 . S
H1419 C1434 0.930 . S
C1420 H1408 0.930 . S
C1420 C1421 1.399 . S
C1420 C1425 1.399 . S
C1421 C1420 1.399 . S
C1421 C1422 1.376 . S
C1422 H1409 0.930 . S
C1422 C1421 1.376 . S
C1422 C1423 1.388 . S
C1423 H1410 0.930 . S
C1423 C1422 1.388 . S
C1423 C1424 1.390 . S
C1424 C1423 1.390 . S
C1424 C1425 1.394 . S
C1424 C1430 1.465 . S
C1425 C1420 1.399 . S
C1425 C1424 1.394 . S
C1425 C1426 1.516 . S
C1426 C1425 1.516 . S
C1426 C1427 1.502 . S
C1426 C1428 1.561 . S
C1426 C1429 1.526 1_554 S
C1427 H1411 0.959 1_554 S
C1427 H1412 0.959 1_554 S
C1427 H1413 0.961 . S
C1427 C1426 1.502 . S
C1428 H1414 0.960 . S
C1428 H1415 0.961 . S
C1428 H1416 0.959 . S
C1428 C1426 1.561 . S
C1429 C1426 1.526 1_556 S
C1429 C1430 1.396 1_556 S
C1429 C1434 1.390 . S
C1430 C1424 1.465 . S
C1430 C1429 1.396 1_554 S
C1430 C1431 1.399 1_554 S
C1431 H1417 0.929 1_556 S
C1431 C1430 1.399 1_556 S
C1431 C1432 1.385 . S
C1432 H1418 0.931 . S
C1432 C1431 1.385 . S
C1432 C1433 1.389 . S
C1433 C1432 1.389 . S
C1433 C1434 1.387 . S
C1434 H1419 0.930 . S
C1434 C1429 1.390 . S
C1434 C1433 1.387 . S
H1435 C1447 0.930 . S
H1436 C1449 0.930 . S
H1437 C1450 0.930 . S
H1438 C1454 0.959 . S
H1439 C1454 0.959 . S
H1440 C1454 0.961 . S
H1441 C1455 0.960 . S
H1442 C1455 0.961 . S
H1443 C1455 0.959 . S
H1444 C1458 0.929 . S
H1445 C1459 0.931 . S
H1446 C1461 0.930 . S
C1447 H1435 0.930 . S
C1447 C1448 1.399 . S
C1447 C1452 1.399 . S
C1448 C1447 1.399 . S
C1448 C1449 1.376 . S
C1449 H1436 0.930 . S
C1449 C1448 1.376 . S
C1449 C1450 1.388 . S
C1450 H1437 0.930 . S
C1450 C1449 1.388 . S
C1450 C1451 1.390 . S
C1451 C1450 1.390 . S
C1451 C1452 1.394 . S
C1451 C1457 1.465 . S
C1452 C1447 1.399 . S
C1452 C1451 1.394 . S
C1452 C1453 1.516 . S
C1453 C1452 1.516 . S
C1453 C1454 1.502 . S
C1453 C1455 1.561 . S
C1453 C1456 1.526 . S
C1454 H1438 0.959 . S
C1454 H1439 0.959 . S
C1454 H1440 0.961 . S
C1454 C1453 1.502 . S
C1455 H1441 0.960 . S
C1455 H1442 0.961 . S
C1455 H1443 0.959 . S
C1455 C1453 1.561 . S
C1456 C1453 1.526 . S
C1456 C1457 1.396 . S
C1456 C1461 1.390 . S
C1457 C1451 1.465 . S
C1457 C1456 1.396 . S
C1457 C1458 1.399 . S
C1458 H1444 0.929 . S
C1458 C1457 1.399 . S
C1458 C1459 1.385 . S
C1459 H1445 0.931 . S
C1459 C1458 1.385 . S
C1459 C1460 1.389 . S
C1460 C1459 1.389 . S
C1460 C1461 1.387 . S
C1461 H1446 0.930 . S
C1461 C1456 1.390 . S
C1461 C1460 1.387 . S
H1462 C1474 0.930 . S
H1463 C1476 0.930 . S
H1464 C1477 0.930 . S
H1465 C1481 0.959 . S
H1466 C1481 0.959 . S
H1467 C1481 0.961 . S
H1468 C1482 0.960 . S
H1469 C1482 0.961 . S
H1470 C1482 0.959 . S
H1471 C1485 0.929 . S
H1472 C1486 0.931 . S
H1473 C1488 0.930 . S
C1474 H1462 0.930 . S
C1474 C1475 1.399 . S
C1474 C1479 1.399 . S
C1475 C1474 1.399 . S
C1475 C1476 1.376 . S
C1476 H1463 0.930 . S
C1476 C1475 1.376 . S
C1476 C1477 1.388 . S
C1477 H1464 0.930 . S
C1477 C1476 1.388 . S
C1477 C1478 1.390 . S
C1478 C1477 1.390 . S
C1478 C1479 1.394 . S
C1478 C1484 1.465 . S
C1479 C1474 1.399 . S
C1479 C1478 1.394 . S
C1479 C1480 1.516 . S
C1480 C1479 1.516 . S
C1480 C1481 1.502 . S
C1480 C1482 1.561 . S
C1480 C1483 1.526 . S
C1481 H1465 0.959 . S
C1481 H1466 0.959 . S
C1481 H1467 0.961 . S
C1481 C1480 1.502 . S
C1482 H1468 0.960 . S
C1482 H1469 0.961 . S
C1482 H1470 0.959 . S
C1482 C1480 1.561 . S
C1483 C1480 1.526 . S
C1483 C1484 1.396 . S
C1483 C1488 1.390 . S
C1484 C1478 1.465 . S
C1484 C1483 1.396 . S
C1484 C1485 1.399 . S
C1485 H1471 0.929 . S
C1485 C1484 1.399 . S
C1485 C1486 1.385 . S
C1486 H1472 0.931 . S
C1486 C1485 1.385 . S
C1486 C1487 1.389 . S
C1487 C1486 1.389 . S
C1487 C1488 1.387 . S
C1488 H1473 0.930 . S
C1488 C1483 1.390 . S
C1488 C1487 1.387 . S
H1489 C1501 0.930 . S
H1490 C1503 0.930 . S
H1491 C1504 0.930 1_556 S
H1492 C1508 0.959 . S
H1493 C1508 0.959 . S
H1494 C1508 0.961 1_554 S
H1495 C1509 0.960 . S
H1496 C1509 0.961 1_556 S
H1497 C1509 0.959 1_556 S
H1498 C1512 0.929 . S
H1499 C1513 0.931 . S
H1500 C1515 0.930 . S
C1501 H1489 0.930 . S
C1501 C1502 1.399 . S
C1501 C1506 1.399 . S
C1502 C1501 1.399 . S
C1502 C1503 1.376 . S
C1503 H1490 0.930 . S
C1503 C1502 1.376 . S
C1503 C1504 1.388 . S
C1504 H1491 0.930 1_554 S
C1504 C1503 1.388 . S
C1504 C1505 1.390 1_554 S
C1505 C1504 1.390 1_556 S
C1505 C1506 1.394 1_556 S
C1505 C1511 1.465 . S
C1506 C1501 1.399 . S
C1506 C1505 1.394 1_554 S
C1506 C1507 1.516 1_554 S
C1507 C1506 1.516 1_556 S
C1507 C1508 1.502 . S
C1507 C1509 1.561 1_556 S
C1507 C1510 1.526 . S
C1508 H1492 0.959 . S
C1508 H1493 0.959 . S
C1508 H1494 0.961 1_556 S
C1508 C1507 1.502 . S
C1509 H1495 0.960 . S
C1509 H1496 0.961 1_554 S
C1509 H1497 0.959 1_554 S
C1509 C1507 1.561 1_554 S
C1510 C1507 1.526 . S
C1510 C1511 1.396 . S
C1510 C1515 1.390 . S
C1511 C1505 1.465 . S
C1511 C1510 1.396 . S
C1511 C1512 1.399 . S
C1512 H1498 0.929 . S
C1512 C1511 1.399 . S
C1512 C1513 1.385 . S
C1513 H1499 0.931 . S
C1513 C1512 1.385 . S
C1513 C1514 1.389 . S
C1514 C1513 1.389 . S
C1514 C1515 1.387 . S
C1515 H1500 0.930 . S
C1515 C1510 1.390 . S
C1515 C1514 1.387 . S
H1516 C1528 0.930 . S
H1517 C1530 0.930 . S
H1518 C1531 0.930 . S
H1519 C1535 0.959 . S
H1520 C1535 0.959 . S
H1521 C1535 0.961 . S
H1522 C1536 0.960 . S
H1523 C1536 0.961 . S
H1524 C1536 0.959 . S
H1525 C1539 0.929 . S
H1526 C1540 0.931 . S
H1527 C1542 0.930 . S
C1528 H1516 0.930 . S
C1528 C1529 1.399 . S
C1528 C1533 1.399 . S
C1529 C1528 1.399 . S
C1529 C1530 1.376 . S
C1530 H1517 0.930 . S
C1530 C1529 1.376 . S
C1530 C1531 1.388 . S
C1531 H1518 0.930 . S
C1531 C1530 1.388 . S
C1531 C1532 1.390 . S
C1532 C1531 1.390 . S
C1532 C1533 1.394 . S
C1532 C1538 1.465 . S
C1533 C1528 1.399 . S
C1533 C1532 1.394 . S
C1533 C1534 1.516 . S
C1534 C1533 1.516 . S
C1534 C1535 1.502 . S
C1534 C1536 1.561 . S
C1534 C1537 1.526 . S
C1535 H1519 0.959 . S
C1535 H1520 0.959 . S
C1535 H1521 0.961 . S
C1535 C1534 1.502 . S
C1536 H1522 0.960 . S
C1536 H1523 0.961 . S
C1536 H1524 0.959 . S
C1536 C1534 1.561 . S
C1537 C1534 1.526 . S
C1537 C1538 1.396 . S
C1537 C1542 1.390 . S
C1538 C1532 1.465 . S
C1538 C1537 1.396 . S
C1538 C1539 1.399 . S
C1539 H1525 0.929 . S
C1539 C1538 1.399 . S
C1539 C1540 1.385 . S
C1540 H1526 0.931 . S
C1540 C1539 1.385 . S
C1540 C1541 1.389 . S
C1541 C1540 1.389 . S
C1541 C1542 1.387 . S
C1542 H1527 0.930 . S
C1542 C1537 1.390 . S
C1542 C1541 1.387 . S
H1543 C1555 0.930 . S
H1544 C1557 0.930 . S
H1545 C1558 0.930 . S
H1546 C1562 0.959 . S
H1547 C1562 0.959 . S
H1548 C1562 0.961 . S
H1549 C1563 0.960 . S
H1550 C1563 0.961 . S
H1551 C1563 0.959 . S
H1552 C1566 0.929 . S
H1553 C1567 0.931 . S
H1554 C1569 0.930 . S
C1555 H1543 0.930 . S
C1555 C1556 1.399 . S
C1555 C1560 1.399 . S
C1556 C1555 1.399 . S
C1556 C1557 1.376 . S
C1557 H1544 0.930 . S
C1557 C1556 1.376 . S
C1557 C1558 1.388 . S
C1558 H1545 0.930 . S
C1558 C1557 1.388 . S
C1558 C1559 1.390 . S
C1559 C1558 1.390 . S
C1559 C1560 1.394 . S
C1559 C1565 1.465 . S
C1560 C1555 1.399 . S
C1560 C1559 1.394 . S
C1560 C1561 1.516 . S
C1561 C1560 1.516 . S
C1561 C1562 1.502 1_455 S
C1561 C1563 1.561 . S
C1561 C1564 1.526 . S
C1562 H1546 0.959 . S
C1562 H1547 0.959 . S
C1562 H1548 0.961 . S
C1562 C1561 1.502 1_655 S
C1563 H1549 0.960 . S
C1563 H1550 0.961 . S
C1563 H1551 0.959 . S
C1563 C1561 1.561 . S
C1564 C1561 1.526 . S
C1564 C1565 1.396 . S
C1564 C1569 1.390 . S
C1565 C1559 1.465 . S
C1565 C1564 1.396 . S
C1565 C1566 1.399 . S
C1566 H1552 0.929 . S
C1566 C1565 1.399 . S
C1566 C1567 1.385 . S
C1567 H1553 0.931 . S
C1567 C1566 1.385 . S
C1567 C1568 1.389 . S
C1568 C1567 1.389 . S
C1568 C1569 1.387 . S
C1569 H1554 0.930 . S
C1569 C1564 1.390 . S
C1569 C1568 1.387 . S
H1570 C1582 0.930 . S
H1571 C1584 0.930 . S
H1572 C1585 0.930 . S
H1573 C1589 0.959 . S
H1574 C1589 0.959 . S
H1575 C1589 0.961 . S
H1576 C1590 0.960 . S
H1577 C1590 0.961 . S
H1578 C1590 0.959 . S
H1579 C1593 0.929 . S
H1580 C1594 0.931 1_554 S
H1581 C1596 0.930 . S
C1582 H1570 0.930 . S
C1582 C1583 1.399 . S
C1582 C1587 1.399 . S
C1583 C1582 1.399 . S
C1583 C1584 1.376 . S
C1584 H1571 0.930 . S
C1584 C1583 1.376 . S
C1584 C1585 1.388 . S
C1585 H1572 0.930 . S
C1585 C1584 1.388 . S
C1585 C1586 1.390 . S
C1586 C1585 1.390 . S
C1586 C1587 1.394 . S
C1586 C1592 1.465 . S
C1587 C1582 1.399 . S
C1587 C1586 1.394 . S
C1587 C1588 1.516 . S
C1588 C1587 1.516 . S
C1588 C1589 1.502 . S
C1588 C1590 1.561 . S
C1588 C1591 1.526 . S
C1589 H1573 0.959 . S
C1589 H1574 0.959 . S
C1589 H1575 0.961 . S
C1589 C1588 1.502 . S
C1590 H1576 0.960 . S
C1590 H1577 0.961 . S
C1590 H1578 0.959 . S
C1590 C1588 1.561 . S
C1591 C1588 1.526 . S
C1591 C1592 1.396 . S
C1591 C1596 1.390 . S
C1592 C1586 1.465 . S
C1592 C1591 1.396 . S
C1592 C1593 1.399 . S
C1593 H1579 0.929 . S
C1593 C1592 1.399 . S
C1593 C1594 1.385 . S
C1594 H1580 0.931 1_556 S
C1594 C1593 1.385 . S
C1594 C1595 1.389 . S
C1595 C1594 1.389 . S
C1595 C1596 1.387 . S
C1596 H1581 0.930 . S
C1596 C1591 1.390 . S
C1596 C1595 1.387 . S
H1597 C1609 0.930 . S
H1598 C1611 0.930 . S
H1599 C1612 0.930 . S
H1600 C1616 0.959 . S
H1601 C1616 0.959 . S
H1602 C1616 0.961 . S
H1603 C1617 0.960 . S
H1604 C1617 0.961 . S
H1605 C1617 0.959 . S
H1606 C1620 0.929 . S
H1607 C1621 0.931 . S
H1608 C1623 0.930 . S
C1609 H1597 0.930 . S
C1609 C1610 1.399 . S
C1609 C1614 1.399 . S
C1610 C1609 1.399 . S
C1610 C1611 1.376 . S
C1611 H1598 0.930 . S
C1611 C1610 1.376 . S
C1611 C1612 1.388 . S
C1612 H1599 0.930 . S
C1612 C1611 1.388 . S
C1612 C1613 1.390 . S
C1613 C1612 1.390 . S
C1613 C1614 1.394 . S
C1613 C1619 1.465 . S
C1614 C1609 1.399 . S
C1614 C1613 1.394 . S
C1614 C1615 1.516 . S
C1615 C1614 1.516 . S
C1615 C1616 1.502 . S
C1615 C1617 1.561 . S
C1615 C1618 1.526 . S
C1616 H1600 0.959 . S
C1616 H1601 0.959 . S
C1616 H1602 0.961 . S
C1616 C1615 1.502 . S
C1617 H1603 0.960 . S
C1617 H1604 0.961 . S
C1617 H1605 0.959 . S
C1617 C1615 1.561 . S
C1618 C1615 1.526 . S
C1618 C1619 1.396 . S
C1618 C1623 1.390 . S
C1619 C1613 1.465 . S
C1619 C1618 1.396 . S
C1619 C1620 1.399 . S
C1620 H1606 0.929 . S
C1620 C1619 1.399 . S
C1620 C1621 1.385 . S
C1621 H1607 0.931 . S
C1621 C1620 1.385 . S
C1621 C1622 1.389 . S
C1622 C1621 1.389 . S
C1622 C1623 1.387 . S
C1623 H1608 0.930 . S
C1623 C1618 1.390 . S
C1623 C1622 1.387 . S
C557 C271 1.229 . S
C569 C33 1.224 . S
C584 C67 1.218 . S
C596 C169 1.232 . S
C611 C101 1.234 . S
C623 C203 1.196 . S
C638 C237 1.187 . S
C650 C135 1.222 . S
C665 C376 1.677 . S
C677 C138 1.635 . S
C692 C274 1.675 . S
C704 C2 1.634 . S
C719 C206 1.651 . S
C731 C342 1.667 . S
C746 C70 1.648 . S
C758 C308 1.654 . S
C773 C339 1.234 . S
C785 C441 1.215 . S
C800 C509 1.203 . S
C812 C373 1.236 . S
C827 C475 1.193 . S
C839 C305 1.232 . S
C854 C407 1.219 . S
C866 C543 1.232 . S
C881 C104 1.637 . S
C893 C478 1.677 . S
C908 C172 1.637 . S
C920 C410 1.676 . S
C935 C36 1.653 . S
C947 C512 1.650 . S
C962 C240 1.640 . S
C974 C444 1.675 . S
C989 C20 1.644 . S
C1001 C156 1.677 . S
C1016 C190 1.676 . S
C1028 C54 1.646 . S
C1043 C224 1.701 . S
C1055 C88 1.650 . S
C1070 C122 1.685 . S
C1082 C258 1.640 . S
C1097 C360 1.684 . S
C1109 C292 1.641 . S
C1124 C326 1.658 . S
C1136 C394 1.662 . S
C1151 C428 1.669 . S
C1163 C496 1.688 . S
C1178 C530 1.712 . S
C1190 C462 1.646 . S
C1205 C9 0.747 . S
C1217 C5 0.909 . S
C1232 C43 0.789 . S
C1244 C39 0.870 . S
C1259 C73 0.869 1_554 S
C1271 C77 0.872 . S
C1286 C107 0.791 . S
C1298 C111 0.932 . S
C1313 C141 0.867 . S
C1325 C145 0.874 . S
C1340 C175 0.925 . S
C1352 C179 0.748 . S
C1367 C213 0.899 . S
C1379 C209 0.797 1_556 S
C1394 C247 0.771 . S
C1406 C243 0.884 . S
C1421 C277 0.789 . S
C1433 C281 0.931 . S
C1448 C311 0.791 . S
C1460 C315 0.932 . S
C1475 C349 0.804 . S
C1487 C345 0.858 . S
C1502 C383 0.934 . S
C1514 C379 0.793 . S
C1529 C417 0.757 . S
C1541 C413 0.925 1_554 S
C1556 C451 0.933 . S
C1568 C447 0.790 . S
C1583 C485 0.934 . S
C1595 C481 0.798 1_556 S
C1610 C515 0.844 . S
C1622 C519 0.823 . S
