# Generated by pormake.
# Topology rho, (4)-cn, num edge types: 1
# Building blocks:
#     Node 0, Type 0, BuildingBlock: CEKHIL_clean_sbu_0, # of connection points: 4
#     Node 1, Type 0, BuildingBlock: CEKHIL_clean_sbu_0, # of connection points: 4
#     Node 2, Type 0, BuildingBlock: CEKHIL_clean_sbu_0, # of connection points: 4
#     Node 3, Type 0, BuildingBlock: CEKHIL_clean_sbu_0, # of connection points: 4
#     Node 4, Type 0, BuildingBlock: CEKHIL_clean_sbu_0, # of connection points: 4
#     Node 5, Type 0, BuildingBlock: CEKHIL_clean_sbu_0, # of connection points: 4
#     Node 6, Type 0, BuildingBlock: CEKHIL_clean_sbu_0, # of connection points: 4
#     Node 7, Type 0, BuildingBlock: CEKHIL_clean_sbu_0, # of connection points: 4
#     Node 8, Type 0, BuildingBlock: CEKHIL_clean_sbu_0, # of connection points: 4
#     Node 9, Type 0, BuildingBlock: CEKHIL_clean_sbu_0, # of connection points: 4
#     Node 10, Type 0, BuildingBlock: CEKHIL_clean_sbu_0, # of connection points: 4
#     Node 11, Type 0, BuildingBlock: CEKHIL_clean_sbu_0, # of connection points: 4
#     Node 12, Type 0, BuildingBlock: CEKHIL_clean_sbu_0, # of connection points: 4
#     Node 13, Type 0, BuildingBlock: CEKHIL_clean_sbu_0, # of connection points: 4
#     Node 14, Type 0, BuildingBlock: CEKHIL_clean_sbu_0, # of connection points: 4
#     Node 15, Type 0, BuildingBlock: CEKHIL_clean_sbu_0, # of connection points: 4
#     Node 16, Type 0, BuildingBlock: CEKHIL_clean_sbu_0, # of connection points: 4
#     Node 17, Type 0, BuildingBlock: CEKHIL_clean_sbu_0, # of connection points: 4
#     Node 18, Type 0, BuildingBlock: CEKHIL_clean_sbu_0, # of connection points: 4
#     Node 19, Type 0, BuildingBlock: CEKHIL_clean_sbu_0, # of connection points: 4
#     Node 20, Type 0, BuildingBlock: CEKHIL_clean_sbu_0, # of connection points: 4
#     Node 21, Type 0, BuildingBlock: CEKHIL_clean_sbu_0, # of connection points: 4
#     Node 22, Type 0, BuildingBlock: CEKHIL_clean_sbu_0, # of connection points: 4
#     Node 23, Type 0, BuildingBlock: CEKHIL_clean_sbu_0, # of connection points: 4
#     Node 24, Type 0, BuildingBlock: CEKHIL_clean_sbu_0, # of connection points: 4
#     Node 25, Type 0, BuildingBlock: CEKHIL_clean_sbu_0, # of connection points: 4
#     Node 26, Type 0, BuildingBlock: CEKHIL_clean_sbu_0, # of connection points: 4
#     Node 27, Type 0, BuildingBlock: CEKHIL_clean_sbu_0, # of connection points: 4
#     Node 28, Type 0, BuildingBlock: CEKHIL_clean_sbu_0, # of connection points: 4
#     Node 29, Type 0, BuildingBlock: CEKHIL_clean_sbu_0, # of connection points: 4
#     Node 30, Type 0, BuildingBlock: CEKHIL_clean_sbu_0, # of connection points: 4
#     Node 31, Type 0, BuildingBlock: CEKHIL_clean_sbu_0, # of connection points: 4
#     Node 32, Type 0, BuildingBlock: CEKHIL_clean_sbu_0, # of connection points: 4
#     Node 33, Type 0, BuildingBlock: CEKHIL_clean_sbu_0, # of connection points: 4
#     Node 34, Type 0, BuildingBlock: CEKHIL_clean_sbu_0, # of connection points: 4
#     Node 35, Type 0, BuildingBlock: CEKHIL_clean_sbu_0, # of connection points: 4
#     Node 36, Type 0, BuildingBlock: CEKHIL_clean_sbu_0, # of connection points: 4
#     Node 37, Type 0, BuildingBlock: CEKHIL_clean_sbu_0, # of connection points: 4
#     Node 38, Type 0, BuildingBlock: CEKHIL_clean_sbu_0, # of connection points: 4
#     Node 39, Type 0, BuildingBlock: CEKHIL_clean_sbu_0, # of connection points: 4
#     Node 40, Type 0, BuildingBlock: CEKHIL_clean_sbu_0, # of connection points: 4
#     Node 41, Type 0, BuildingBlock: CEKHIL_clean_sbu_0, # of connection points: 4
#     Node 42, Type 0, BuildingBlock: CEKHIL_clean_sbu_0, # of connection points: 4
#     Node 43, Type 0, BuildingBlock: CEKHIL_clean_sbu_0, # of connection points: 4
#     Node 44, Type 0, BuildingBlock: CEKHIL_clean_sbu_0, # of connection points: 4
#     Node 45, Type 0, BuildingBlock: CEKHIL_clean_sbu_0, # of connection points: 4
#     Node 46, Type 0, BuildingBlock: CEKHIL_clean_sbu_0, # of connection points: 4
#     Node 47, Type 0, BuildingBlock: CEKHIL_clean_sbu_0, # of connection points: 4
#     Edge 48, Type (0, 0), BuildingBlock: ZUJKAS_clean_linker_0, # of connection points: 2
#     Edge 49, Type (0, 0), BuildingBlock: ZUJKAS_clean_linker_0, # of connection points: 2
#     Edge 50, Type (0, 0), BuildingBlock: ZUJKAS_clean_linker_0, # of connection points: 2
#     Edge 51, Type (0, 0), BuildingBlock: ZUJKAS_clean_linker_0, # of connection points: 2
#     Edge 52, Type (0, 0), BuildingBlock: ZUJKAS_clean_linker_0, # of connection points: 2
#     Edge 53, Type (0, 0), BuildingBlock: ZUJKAS_clean_linker_0, # of connection points: 2
#     Edge 54, Type (0, 0), BuildingBlock: ZUJKAS_clean_linker_0, # of connection points: 2
#     Edge 55, Type (0, 0), BuildingBlock: ZUJKAS_clean_linker_0, # of connection points: 2
#     Edge 56, Type (0, 0), BuildingBlock: ZUJKAS_clean_linker_0, # of connection points: 2
#     Edge 57, Type (0, 0), BuildingBlock: ZUJKAS_clean_linker_0, # of connection points: 2
#     Edge 58, Type (0, 0), BuildingBlock: ZUJKAS_clean_linker_0, # of connection points: 2
#     Edge 59, Type (0, 0), BuildingBlock: ZUJKAS_clean_linker_0, # of connection points: 2
#     Edge 60, Type (0, 0), BuildingBlock: ZUJKAS_clean_linker_0, # of connection points: 2
#     Edge 61, Type (0, 0), BuildingBlock: ZUJKAS_clean_linker_0, # of connection points: 2
#     Edge 62, Type (0, 0), BuildingBlock: ZUJKAS_clean_linker_0, # of connection points: 2
#     Edge 63, Type (0, 0), BuildingBlock: ZUJKAS_clean_linker_0, # of connection points: 2
#     Edge 64, Type (0, 0), BuildingBlock: ZUJKAS_clean_linker_0, # of connection points: 2
#     Edge 65, Type (0, 0), BuildingBlock: ZUJKAS_clean_linker_0, # of connection points: 2
#     Edge 66, Type (0, 0), BuildingBlock: ZUJKAS_clean_linker_0, # of connection points: 2
#     Edge 67, Type (0, 0), BuildingBlock: ZUJKAS_clean_linker_0, # of connection points: 2
#     Edge 68, Type (0, 0), BuildingBlock: ZUJKAS_clean_linker_0, # of connection points: 2
#     Edge 69, Type (0, 0), BuildingBlock: ZUJKAS_clean_linker_0, # of connection points: 2
#     Edge 70, Type (0, 0), BuildingBlock: ZUJKAS_clean_linker_0, # of connection points: 2
#     Edge 71, Type (0, 0), BuildingBlock: ZUJKAS_clean_linker_0, # of connection points: 2
#     Edge 72, Type (0, 0), BuildingBlock: ZUJKAS_clean_linker_0, # of connection points: 2
#     Edge 73, Type (0, 0), BuildingBlock: ZUJKAS_clean_linker_0, # of connection points: 2
#     Edge 74, Type (0, 0), BuildingBlock: ZUJKAS_clean_linker_0, # of connection points: 2
#     Edge 75, Type (0, 0), BuildingBlock: ZUJKAS_clean_linker_0, # of connection points: 2
#     Edge 76, Type (0, 0), BuildingBlock: ZUJKAS_clean_linker_0, # of connection points: 2
#     Edge 77, Type (0, 0), BuildingBlock: ZUJKAS_clean_linker_0, # of connection points: 2
#     Edge 78, Type (0, 0), BuildingBlock: ZUJKAS_clean_linker_0, # of connection points: 2
#     Edge 79, Type (0, 0), BuildingBlock: ZUJKAS_clean_linker_0, # of connection points: 2
#     Edge 80, Type (0, 0), BuildingBlock: ZUJKAS_clean_linker_0, # of connection points: 2
#     Edge 81, Type (0, 0), BuildingBlock: ZUJKAS_clean_linker_0, # of connection points: 2
#     Edge 82, Type (0, 0), BuildingBlock: ZUJKAS_clean_linker_0, # of connection points: 2
#     Edge 83, Type (0, 0), BuildingBlock: ZUJKAS_clean_linker_0, # of connection points: 2
#     Edge 84, Type (0, 0), BuildingBlock: ZUJKAS_clean_linker_0, # of connection points: 2
#     Edge 85, Type (0, 0), BuildingBlock: ZUJKAS_clean_linker_0, # of connection points: 2
#     Edge 86, Type (0, 0), BuildingBlock: ZUJKAS_clean_linker_0, # of connection points: 2
#     Edge 87, Type (0, 0), BuildingBlock: ZUJKAS_clean_linker_0, # of connection points: 2
#     Edge 88, Type (0, 0), BuildingBlock: ZUJKAS_clean_linker_0, # of connection points: 2
#     Edge 89, Type (0, 0), BuildingBlock: ZUJKAS_clean_linker_0, # of connection points: 2
#     Edge 90, Type (0, 0), BuildingBlock: ZUJKAS_clean_linker_0, # of connection points: 2
#     Edge 91, Type (0, 0), BuildingBlock: ZUJKAS_clean_linker_0, # of connection points: 2
#     Edge 92, Type (0, 0), BuildingBlock: ZUJKAS_clean_linker_0, # of connection points: 2
#     Edge 93, Type (0, 0), BuildingBlock: ZUJKAS_clean_linker_0, # of connection points: 2
#     Edge 94, Type (0, 0), BuildingBlock: ZUJKAS_clean_linker_0, # of connection points: 2
#     Edge 95, Type (0, 0), BuildingBlock: ZUJKAS_clean_linker_0, # of connection points: 2
#     Edge 96, Type (0, 0), BuildingBlock: ZUJKAS_clean_linker_0, # of connection points: 2
#     Edge 97, Type (0, 0), BuildingBlock: ZUJKAS_clean_linker_0, # of connection points: 2
#     Edge 98, Type (0, 0), BuildingBlock: ZUJKAS_clean_linker_0, # of connection points: 2
#     Edge 99, Type (0, 0), BuildingBlock: ZUJKAS_clean_linker_0, # of connection points: 2
#     Edge 100, Type (0, 0), BuildingBlock: ZUJKAS_clean_linker_0, # of connection points: 2
#     Edge 101, Type (0, 0), BuildingBlock: ZUJKAS_clean_linker_0, # of connection points: 2
#     Edge 102, Type (0, 0), BuildingBlock: ZUJKAS_clean_linker_0, # of connection points: 2
#     Edge 103, Type (0, 0), BuildingBlock: ZUJKAS_clean_linker_0, # of connection points: 2
#     Edge 104, Type (0, 0), BuildingBlock: ZUJKAS_clean_linker_0, # of connection points: 2
#     Edge 105, Type (0, 0), BuildingBlock: ZUJKAS_clean_linker_0, # of connection points: 2
#     Edge 106, Type (0, 0), BuildingBlock: ZUJKAS_clean_linker_0, # of connection points: 2
#     Edge 107, Type (0, 0), BuildingBlock: ZUJKAS_clean_linker_0, # of connection points: 2
#     Edge 108, Type (0, 0), BuildingBlock: ZUJKAS_clean_linker_0, # of connection points: 2
#     Edge 109, Type (0, 0), BuildingBlock: ZUJKAS_clean_linker_0, # of connection points: 2
#     Edge 110, Type (0, 0), BuildingBlock: ZUJKAS_clean_linker_0, # of connection points: 2
#     Edge 111, Type (0, 0), BuildingBlock: ZUJKAS_clean_linker_0, # of connection points: 2
#     Edge 112, Type (0, 0), BuildingBlock: ZUJKAS_clean_linker_0, # of connection points: 2
#     Edge 113, Type (0, 0), BuildingBlock: ZUJKAS_clean_linker_0, # of connection points: 2
#     Edge 114, Type (0, 0), BuildingBlock: ZUJKAS_clean_linker_0, # of connection points: 2
#     Edge 115, Type (0, 0), BuildingBlock: ZUJKAS_clean_linker_0, # of connection points: 2
#     Edge 116, Type (0, 0), BuildingBlock: ZUJKAS_clean_linker_0, # of connection points: 2
#     Edge 117, Type (0, 0), BuildingBlock: ZUJKAS_clean_linker_0, # of connection points: 2
#     Edge 118, Type (0, 0), BuildingBlock: ZUJKAS_clean_linker_0, # of connection points: 2
#     Edge 119, Type (0, 0), BuildingBlock: ZUJKAS_clean_linker_0, # of connection points: 2
#     Edge 120, Type (0, 0), BuildingBlock: ZUJKAS_clean_linker_0, # of connection points: 2
#     Edge 121, Type (0, 0), BuildingBlock: ZUJKAS_clean_linker_0, # of connection points: 2
#     Edge 122, Type (0, 0), BuildingBlock: ZUJKAS_clean_linker_0, # of connection points: 2
#     Edge 123, Type (0, 0), BuildingBlock: ZUJKAS_clean_linker_0, # of connection points: 2
#     Edge 124, Type (0, 0), BuildingBlock: ZUJKAS_clean_linker_0, # of connection points: 2
#     Edge 125, Type (0, 0), BuildingBlock: ZUJKAS_clean_linker_0, # of connection points: 2
#     Edge 126, Type (0, 0), BuildingBlock: ZUJKAS_clean_linker_0, # of connection points: 2
#     Edge 127, Type (0, 0), BuildingBlock: ZUJKAS_clean_linker_0, # of connection points: 2
#     Edge 128, Type (0, 0), BuildingBlock: ZUJKAS_clean_linker_0, # of connection points: 2
#     Edge 129, Type (0, 0), BuildingBlock: ZUJKAS_clean_linker_0, # of connection points: 2
#     Edge 130, Type (0, 0), BuildingBlock: ZUJKAS_clean_linker_0, # of connection points: 2
#     Edge 131, Type (0, 0), BuildingBlock: ZUJKAS_clean_linker_0, # of connection points: 2
#     Edge 132, Type (0, 0), BuildingBlock: ZUJKAS_clean_linker_0, # of connection points: 2
#     Edge 133, Type (0, 0), BuildingBlock: ZUJKAS_clean_linker_0, # of connection points: 2
#     Edge 134, Type (0, 0), BuildingBlock: ZUJKAS_clean_linker_0, # of connection points: 2
#     Edge 135, Type (0, 0), BuildingBlock: ZUJKAS_clean_linker_0, # of connection points: 2
#     Edge 136, Type (0, 0), BuildingBlock: ZUJKAS_clean_linker_0, # of connection points: 2
#     Edge 137, Type (0, 0), BuildingBlock: ZUJKAS_clean_linker_0, # of connection points: 2
#     Edge 138, Type (0, 0), BuildingBlock: ZUJKAS_clean_linker_0, # of connection points: 2
#     Edge 139, Type (0, 0), BuildingBlock: ZUJKAS_clean_linker_0, # of connection points: 2
#     Edge 140, Type (0, 0), BuildingBlock: ZUJKAS_clean_linker_0, # of connection points: 2
#     Edge 141, Type (0, 0), BuildingBlock: ZUJKAS_clean_linker_0, # of connection points: 2
#     Edge 142, Type (0, 0), BuildingBlock: ZUJKAS_clean_linker_0, # of connection points: 2
#     Edge 143, Type (0, 0), BuildingBlock: ZUJKAS_clean_linker_0, # of connection points: 2
# Relax obj value: 0.077
# Max RMSD: 0.091
# Mean RMSD: 0.084
data_MOF--net-rho--node1-CEKHIL_clean_sbu_0--edge1-ZUJKAS_clean_linker_0
_symmetry_space_group_name_H-M    P1
_symmetry_Int_Tables_number       1
_symmetry_cell_setting            triclinic
loop_
_symmetry_equiv_pos_as_xyz
'x, y, z'
_cell_length_a     93.17934
_cell_length_b     92.385569
_cell_length_c     92.32757
_cell_angle_alpha  90.174699
_cell_angle_beta   90.05755
_cell_angle_gamma 90.69059
loop_
_atom_site_label
_atom_site_type_symbol
_atom_site_fract_x
_atom_site_fract_y
_atom_site_fract_z
_atom_type_partial_charge
Co0 Co 0.1097 0.25092 0.39346 0.0
O1 O 0.1294 0.24493 0.39319 0.0
O2 O 0.11057 0.23007 0.39396 0.0
C3 C 0.11145 0.26741 0.37564 0.0
O4 O 0.08799 0.25288 0.39316 0.0
Co5 Co 0.1013 0.28236 0.40145 0.0
O6 O 0.08209 0.27637 0.3941 0.0
C7 C 0.11041 0.26232 0.42441 0.0
C8 C 0.12445 0.23173 0.39355 0.0
C9 C 0.07871 0.26306 0.3924 0.0
O10 O 0.11013 0.25178 0.41527 0.0
O11 O 0.10836 0.2755 0.42078 0.0
O12 O 0.10999 0.25373 0.37253 0.0
O13 O 0.11323 0.27045 0.38919 0.0
Co14 Co 0.75269 0.10229 0.39246 0.0
O15 O 0.74683 0.1021 0.37253 0.0
O16 O 0.73201 0.10076 0.39124 0.0
C17 C 0.76831 0.12094 0.39066 0.0
O18 O 0.75482 0.10279 0.41445 0.0
Co19 Co 0.78428 0.09582 0.40069 0.0
O20 O 0.77833 0.10316 0.41995 0.0
C21 C 0.76499 0.07183 0.392 0.0
C22 C 0.73374 0.10116 0.37726 0.0
C23 C 0.76519 0.10416 0.42361 0.0
O24 O 0.75432 0.08055 0.39213 0.0
O25 O 0.77799 0.07601 0.39403 0.0
O26 O 0.75467 0.12332 0.39211 0.0
O27 O 0.77181 0.10756 0.38892 0.0
Co28 Co 0.88947 0.7479 0.39319 0.0
O29 O 0.86962 0.75335 0.39302 0.0
O30 O 0.88803 0.76874 0.39372 0.0
C31 C 0.88801 0.73126 0.37537 0.0
O32 O 0.91126 0.74648 0.39284 0.0
Co33 Co 0.89863 0.71663 0.401 0.0
O34 O 0.9177 0.72313 0.39377 0.0
C35 C 0.88936 0.73659 0.4241 0.0
C36 C 0.8742 0.76668 0.39337 0.0
C37 C 0.92078 0.73651 0.39212 0.0
O38 O 0.88926 0.74713 0.41502 0.0
O39 O 0.89164 0.72345 0.42037 0.0
O40 O 0.88912 0.74494 0.37224 0.0
O41 O 0.88639 0.72831 0.38893 0.0
Co42 Co 0.25012 0.89459 0.39235 0.0
O43 O 0.25772 0.89446 0.37302 0.0
O44 O 0.27084 0.8961 0.39298 0.0
C45 C 0.23458 0.87596 0.38936 0.0
O46 O 0.24619 0.8944 0.41408 0.0
Co47 Co 0.21796 0.9011 0.39794 0.0
O48 O 0.22234 0.89398 0.41769 0.0
C49 C 0.23789 0.92503 0.39073 0.0
C50 C 0.27035 0.89549 0.37891 0.0
C51 C 0.23517 0.89308 0.4224 0.0
O52 O 0.24854 0.91633 0.39168 0.0
O53 O 0.22478 0.92084 0.39181 0.0
O54 O 0.24804 0.87351 0.392 0.0
O55 O 0.23135 0.88933 0.38724 0.0
Co56 Co 0.10776 0.74367 0.60283 0.0
O57 O 0.12789 0.74838 0.60171 0.0
O58 O 0.1104 0.76441 0.6017 0.0
C59 C 0.10935 0.72764 0.62107 0.0
O60 O 0.08595 0.74303 0.6045 0.0
Co61 Co 0.09658 0.71261 0.5962 0.0
O62 O 0.07857 0.71979 0.60499 0.0
C63 C 0.10523 0.73163 0.57208 0.0
C64 C 0.12409 0.76185 0.60135 0.0
C65 C 0.07614 0.73327 0.60637 0.0
O66 O 0.1067 0.74224 0.58105 0.0
O67 O 0.10227 0.71868 0.5761 0.0
O68 O 0.10915 0.74145 0.62377 0.0
O69 O 0.11003 0.7241 0.60754 0.0
Co70 Co 0.25151 0.10685 0.60644 0.0
O71 O 0.24452 0.12636 0.60708 0.0
O72 O 0.23078 0.10662 0.60637 0.0
C73 C 0.26831 0.10936 0.62382 0.0
O74 O 0.25462 0.08508 0.60633 0.0
Co75 Co 0.28292 0.10012 0.59762 0.0
O76 O 0.2781 0.08023 0.60426 0.0
C77 C 0.26206 0.1091 0.57545 0.0
C78 C 0.2317 0.12068 0.60676 0.0
C79 C 0.26515 0.07618 0.60637 0.0
O80 O 0.25178 0.10759 0.58463 0.0
O81 O 0.27531 0.10786 0.57887 0.0
O82 O 0.25495 0.10712 0.62732 0.0
O83 O 0.27074 0.11139 0.61022 0.0
Co84 Co 0.89226 0.25169 0.60205 0.0
O85 O 0.87216 0.24698 0.6008 0.0
O86 O 0.88967 0.23101 0.5997 0.0
C87 C 0.89066 0.26663 0.62127 0.0
O88 O 0.9141 0.25245 0.6036 0.0
Co89 Co 0.903 0.28317 0.59719 0.0
O90 O 0.92111 0.27574 0.60553 0.0
C91 C 0.89433 0.2654 0.57205 0.0
C92 C 0.87597 0.23356 0.59965 0.0
C93 C 0.92375 0.26224 0.60607 0.0
O94 O 0.89309 0.25432 0.58039 0.0
O95 O 0.89718 0.27816 0.57679 0.0
O96 O 0.89106 0.2527 0.62309 0.0
O97 O 0.88983 0.27093 0.60799 0.0
Co98 Co 0.74921 0.89157 0.6062 0.0
O99 O 0.75716 0.87247 0.60663 0.0
O100 O 0.76987 0.89281 0.60478 0.0
C101 C 0.73385 0.88849 0.62477 0.0
O102 O 0.74497 0.91313 0.6061 0.0
Co103 Co 0.71694 0.89645 0.59957 0.0
O104 O 0.72114 0.91656 0.60606 0.0
C105 C 0.73666 0.88844 0.57595 0.0
C106 C 0.76965 0.87875 0.60556 0.0
C107 C 0.73397 0.92138 0.60707 0.0
O108 O 0.74746 0.89036 0.58446 0.0
O109 O 0.72362 0.88918 0.58024 0.0
O110 O 0.74728 0.89156 0.62728 0.0
O111 O 0.73054 0.88608 0.61139 0.0
Co112 Co 0.39093 0.10543 0.24563 0.0
O113 O 0.37109 0.1052 0.25121 0.0
O114 O 0.38941 0.10262 0.26629 0.0
C115 C 0.38997 0.12506 0.23136 0.0
O116 O 0.4127 0.10569 0.24395 0.0
Co117 Co 0.39963 0.10075 0.21358 0.0
O118 O 0.41898 0.10682 0.22048 0.0
C119 C 0.39001 0.07581 0.231 0.0
C120 C 0.3756 0.10334 0.26437 0.0
C121 C 0.42218 0.10716 0.2339 0.0
O122 O 0.39012 0.08387 0.24237 0.0
O123 O 0.39237 0.08073 0.21825 0.0
O124 O 0.39116 0.1265 0.24531 0.0
O125 O 0.38793 0.11198 0.2267 0.0
Co126 Co 0.89101 0.39441 0.25009 0.0
O127 O 0.87123 0.39456 0.24401 0.0
O128 O 0.88992 0.39572 0.22924 0.0
C129 C 0.8891 0.37601 0.26593 0.0
O130 O 0.91276 0.3939 0.2521 0.0
Co131 Co 0.89983 0.40125 0.28183 0.0
O132 O 0.91889 0.39412 0.27564 0.0
C133 C 0.89142 0.42506 0.26255 0.0
C134 C 0.87605 0.39542 0.23084 0.0
C135 C 0.92213 0.39284 0.26229 0.0
O136 O 0.89108 0.41618 0.25178 0.0
O137 O 0.89363 0.42104 0.27562 0.0
O138 O 0.89032 0.3734 0.25214 0.0
O139 O 0.88759 0.38944 0.26946 0.0
Co140 Co 0.6059 0.8955 0.24468 0.0
O141 O 0.62573 0.89569 0.25026 0.0
O142 O 0.60748 0.89734 0.26552 0.0
C143 C 0.60715 0.87652 0.22945 0.0
O144 O 0.58407 0.89505 0.24284 0.0
Co145 Co 0.59756 0.90178 0.21288 0.0
O146 O 0.57844 0.89452 0.21916 0.0
C147 C 0.6064 0.92595 0.23178 0.0
C148 C 0.6213 0.89686 0.26352 0.0
C149 C 0.5749 0.8936 0.23247 0.0
O150 O 0.60649 0.91718 0.24258 0.0
O151 O 0.6041 0.92178 0.21874 0.0
O152 O 0.60589 0.87449 0.2433 0.0
O153 O 0.60909 0.88981 0.22545 0.0
Co154 Co 0.1096 0.60345 0.25269 0.0
O155 O 0.12944 0.60334 0.24683 0.0
O156 O 0.11086 0.60209 0.23187 0.0
C157 C 0.11125 0.6219 0.2686 0.0
O158 O 0.08783 0.60393 0.25441 0.0
Co159 Co 0.10044 0.59659 0.28425 0.0
O160 O 0.08139 0.60359 0.27785 0.0
C161 C 0.10911 0.5728 0.26496 0.0
C162 C 0.12471 0.60241 0.23361 0.0
C163 C 0.07833 0.60491 0.26447 0.0
O164 O 0.10958 0.58169 0.25427 0.0
O165 O 0.1067 0.57679 0.27802 0.0
O166 O 0.1102 0.62445 0.2548 0.0
O167 O 0.11278 0.60848 0.27213 0.0
Co168 Co 0.39042 0.89189 0.75045 0.0
O169 O 0.3708 0.89189 0.74392 0.0
O170 O 0.38981 0.89356 0.72961 0.0
C171 C 0.38829 0.87322 0.76596 0.0
O172 O 0.41212 0.89163 0.75298 0.0
Co173 Co 0.39847 0.89796 0.78263 0.0
O174 O 0.41786 0.89162 0.77663 0.0
C175 C 0.38967 0.92201 0.76375 0.0
C176 C 0.37592 0.89306 0.73089 0.0
C177 C 0.42135 0.89066 0.76332 0.0
O178 O 0.39016 0.91363 0.7526 0.0
O179 O 0.3914 0.91749 0.77673 0.0
O180 O 0.38993 0.87079 0.75218 0.0
O181 O 0.3866 0.88658 0.76959 0.0
Co182 Co 0.10647 0.39509 0.74435 0.0
O183 O 0.12649 0.39627 0.74914 0.0
O184 O 0.10872 0.39753 0.76502 0.0
C185 C 0.10788 0.37582 0.72953 0.0
O186 O 0.08465 0.39362 0.74347 0.0
Co187 Co 0.09639 0.40009 0.71282 0.0
O188 O 0.07811 0.39161 0.7201 0.0
C189 C 0.10509 0.42514 0.73067 0.0
C190 C 0.12246 0.39753 0.76253 0.0
C191 C 0.07519 0.39106 0.73358 0.0
O192 O 0.10603 0.41671 0.74169 0.0
O193 O 0.10234 0.4205 0.71787 0.0
O194 O 0.10732 0.37409 0.74347 0.0
O195 O 0.10908 0.38907 0.72513 0.0
Co196 Co 0.60844 0.10409 0.75224 0.0
O197 O 0.62804 0.10437 0.74571 0.0
O198 O 0.60903 0.10275 0.73134 0.0
C199 C 0.61047 0.12262 0.76806 0.0
O200 O 0.58672 0.10416 0.7549 0.0
Co201 Co 0.60095 0.09723 0.7843 0.0
O202 O 0.58182 0.10464 0.77873 0.0
C203 C 0.60905 0.07349 0.76465 0.0
C204 C 0.62293 0.10343 0.73264 0.0
C205 C 0.5779 0.10556 0.76553 0.0
O206 O 0.60887 0.08232 0.75389 0.0
O207 O 0.60723 0.07754 0.77779 0.0
O208 O 0.60876 0.12514 0.75432 0.0
O209 O 0.61237 0.10924 0.77148 0.0
Co210 Co 0.89096 0.60595 0.7448 0.0
O211 O 0.87107 0.60528 0.75009 0.0
O212 O 0.88921 0.60359 0.76552 0.0
C213 C 0.88963 0.62523 0.73011 0.0
O214 O 0.91275 0.60678 0.7433 0.0
Co215 Co 0.89997 0.60074 0.71291 0.0
O216 O 0.9189 0.60806 0.71979 0.0
C217 C 0.89126 0.57592 0.73095 0.0
C218 C 0.87541 0.6039 0.76336 0.0
C219 C 0.92212 0.60862 0.73321 0.0
O220 O 0.89083 0.58433 0.74206 0.0
O221 O 0.89362 0.58053 0.71809 0.0
O222 O 0.89062 0.62698 0.74405 0.0
O223 O 0.88797 0.61202 0.7257 0.0
Co224 Co 0.24988 0.38959 0.10649 0.0
O225 O 0.25739 0.37033 0.10546 0.0
O226 O 0.27052 0.39045 0.10448 0.0
C227 C 0.23499 0.38568 0.12529 0.0
O228 O 0.24614 0.41124 0.10779 0.0
Co229 Co 0.2175 0.39556 0.10133 0.0
O230 O 0.2224 0.41517 0.10878 0.0
C231 C 0.23637 0.38916 0.07648 0.0
C232 C 0.26999 0.37637 0.10435 0.0
C233 C 0.23536 0.41967 0.10955 0.0
O234 O 0.24747 0.38984 0.08478 0.0
O235 O 0.2235 0.39002 0.08122 0.0
O236 O 0.24854 0.38832 0.12759 0.0
O237 O 0.23128 0.3842 0.1119 0.0
Co238 Co 0.25216 0.60248 0.89242 0.0
O239 O 0.24634 0.60181 0.87247 0.0
O240 O 0.23149 0.60105 0.89119 0.0
C241 C 0.26794 0.62091 0.89013 0.0
O242 O 0.25414 0.60356 0.91439 0.0
Co243 Co 0.28361 0.59611 0.90121 0.0
O244 O 0.27758 0.60415 0.92018 0.0
C245 C 0.26436 0.57206 0.89256 0.0
C246 C 0.23324 0.60107 0.87721 0.0
C247 C 0.26439 0.60527 0.92363 0.0
O248 O 0.25367 0.58075 0.89263 0.0
O249 O 0.27735 0.57629 0.89458 0.0
O250 O 0.25432 0.62349 0.89149 0.0
O251 O 0.27131 0.60745 0.88885 0.0
Co252 Co 0.39018 0.25032 0.89279 0.0
O253 O 0.37042 0.25594 0.89287 0.0
O254 O 0.38895 0.27104 0.8952 0.0
C255 C 0.38874 0.23551 0.87348 0.0
O256 O 0.41194 0.24862 0.89254 0.0
Co257 Co 0.3987 0.21837 0.89795 0.0
O258 O 0.41793 0.22514 0.89145 0.0
C259 C 0.38933 0.23629 0.92258 0.0
C260 C 0.37512 0.26914 0.89446 0.0
C261 C 0.42127 0.23856 0.89099 0.0
O262 O 0.38958 0.24755 0.91441 0.0
O263 O 0.39153 0.22348 0.91781 0.0
O264 O 0.39011 0.24941 0.87169 0.0
O265 O 0.38689 0.23126 0.88667 0.0
Co266 Co 0.75017 0.39568 0.89126 0.0
O267 O 0.75715 0.39591 0.8717 0.0
O268 O 0.77093 0.39715 0.89124 0.0
C269 C 0.73455 0.37712 0.8883 0.0
O270 O 0.74682 0.39511 0.9131 0.0
Co271 Co 0.71814 0.4021 0.89774 0.0
O272 O 0.72305 0.39465 0.91724 0.0
C273 C 0.73789 0.42609 0.89024 0.0
C274 C 0.76997 0.39681 0.87717 0.0
C275 C 0.73597 0.39366 0.92164 0.0
O276 O 0.74859 0.41743 0.89101 0.0
O277 O 0.72482 0.42184 0.89146 0.0
O278 O 0.74807 0.37461 0.89056 0.0
O279 O 0.73128 0.39053 0.88655 0.0
Co280 Co 0.61024 0.75073 0.89355 0.0
O281 O 0.62982 0.74444 0.89318 0.0
O282 O 0.61078 0.72986 0.89408 0.0
C283 C 0.61212 0.76721 0.87573 0.0
O284 O 0.58856 0.75308 0.89346 0.0
Co285 Co 0.60255 0.78233 0.9017 0.0
O286 O 0.58314 0.77669 0.89463 0.0
C287 C 0.61126 0.76201 0.92456 0.0
C288 C 0.62467 0.73132 0.89369 0.0
C289 C 0.57948 0.76345 0.89292 0.0
O290 O 0.61081 0.75155 0.91535 0.0
O291 O 0.60942 0.77526 0.92102 0.0
O292 O 0.61042 0.75356 0.87262 0.0
O293 O 0.61408 0.7702 0.88927 0.0
Co294 Co 0.75003 0.60658 0.10662 0.0
O295 O 0.74275 0.62594 0.10752 0.0
O296 O 0.72934 0.60609 0.10527 0.0
C297 C 0.76561 0.60878 0.12514 0.0
O298 O 0.75352 0.58487 0.106 0.0
Co299 Co 0.78205 0.60069 0.09965 0.0
O300 O 0.7772 0.58055 0.10546 0.0
C301 C 0.76246 0.60985 0.07639 0.0
C302 C 0.73005 0.62012 0.10634 0.0
C303 C 0.76421 0.57619 0.10654 0.0
O304 O 0.75166 0.60809 0.08491 0.0
O305 O 0.77549 0.60863 0.08057 0.0
O306 O 0.7521 0.60616 0.12767 0.0
O307 O 0.7689 0.6113 0.1118 0.0
Co308 Co 0.39171 0.75157 0.10386 0.0
O309 O 0.37159 0.74681 0.10271 0.0
O310 O 0.38917 0.73092 0.1015 0.0
C311 C 0.39031 0.76654 0.12303 0.0
O312 O 0.41357 0.75233 0.10527 0.0
Co313 Co 0.40238 0.78311 0.09874 0.0
O314 O 0.4208 0.77562 0.10621 0.0
C315 C 0.39318 0.7653 0.07386 0.0
C316 C 0.37546 0.73341 0.10149 0.0
C317 C 0.42337 0.76213 0.10708 0.0
O318 O 0.3924 0.75419 0.0822 0.0
O319 O 0.39588 0.7781 0.07856 0.0
O320 O 0.39052 0.75262 0.12493 0.0
O321 O 0.38945 0.77083 0.10976 0.0
Co322 Co 0.60783 0.24312 0.10243 0.0
O323 O 0.62793 0.24807 0.10206 0.0
O324 O 0.61028 0.26391 0.10167 0.0
C325 C 0.60899 0.22683 0.12049 0.0
O326 O 0.58597 0.24215 0.10333 0.0
Co327 Co 0.59741 0.21199 0.09489 0.0
O328 O 0.57892 0.2188 0.10289 0.0
C329 C 0.60665 0.23153 0.07144 0.0
C330 C 0.62401 0.2615 0.10172 0.0
C331 C 0.57623 0.23221 0.10451 0.0
O332 O 0.60753 0.24202 0.08061 0.0
O333 O 0.60384 0.21845 0.07514 0.0
O334 O 0.60854 0.24059 0.12337 0.0
O335 O 0.61021 0.22351 0.10694 0.0
Co336 Co 0.89542 0.75565 0.60786 0.0
O337 O 0.87601 0.76231 0.60784 0.0
O338 O 0.89525 0.77653 0.60624 0.0
C339 C 0.89285 0.74026 0.62657 0.0
O340 O 0.91708 0.75265 0.60822 0.0
Co341 Co 0.90198 0.72324 0.60178 0.0
O342 O 0.92134 0.72876 0.609 0.0
C343 C 0.89366 0.74239 0.57773 0.0
C344 C 0.88133 0.77531 0.60678 0.0
C345 C 0.92562 0.7419 0.60977 0.0
O346 O 0.89479 0.75351 0.58611 0.0
O347 O 0.89492 0.72937 0.58224 0.0
O348 O 0.89507 0.75397 0.62899 0.0
O349 O 0.89096 0.73666 0.61319 0.0
Co350 Co 0.24751 0.89281 0.6075 0.0
O351 O 0.25438 0.89255 0.62712 0.0
O352 O 0.26826 0.89425 0.60772 0.0
C353 C 0.23176 0.87424 0.60953 0.0
O354 O 0.24429 0.89283 0.58564 0.0
Co355 Co 0.21558 0.89975 0.60105 0.0
O356 O 0.22053 0.89281 0.58133 0.0
C357 C 0.23553 0.92339 0.60918 0.0
C358 C 0.26722 0.89367 0.62176 0.0
C359 C 0.23347 0.89178 0.57699 0.0
O360 O 0.24608 0.91457 0.60836 0.0
O361 O 0.2224 0.91936 0.60775 0.0
O362 O 0.24531 0.87175 0.60747 0.0
O363 O 0.22853 0.8876 0.61182 0.0
Co364 Co 0.10507 0.24413 0.60761 0.0
O365 O 0.1247 0.23805 0.60763 0.0
O366 O 0.10589 0.22325 0.60606 0.0
C367 C 0.10714 0.25982 0.62624 0.0
O368 O 0.08331 0.24642 0.60788 0.0
Co369 Co 0.09744 0.27619 0.6013 0.0
O370 O 0.07826 0.27016 0.60855 0.0
C371 C 0.1064 0.25707 0.57738 0.0
C372 C 0.11977 0.2249 0.60655 0.0
C373 C 0.07441 0.25689 0.60937 0.0
O374 O 0.10565 0.24604 0.58584 0.0
O375 O 0.10466 0.27009 0.58178 0.0
O376 O 0.10536 0.24607 0.62873 0.0
O377 O 0.10892 0.26332 0.61284 0.0
Co378 Co 0.75026 0.10518 0.60791 0.0
O379 O 0.74376 0.10583 0.62765 0.0
O380 O 0.72951 0.10423 0.60849 0.0
C381 C 0.76648 0.1234 0.60956 0.0
O382 O 0.75301 0.10488 0.586 0.0
Co383 Co 0.78188 0.09746 0.60084 0.0
O384 O 0.77663 0.10413 0.58115 0.0
C385 C 0.76161 0.07436 0.60949 0.0
C386 C 0.7308 0.10498 0.62251 0.0
C387 C 0.76363 0.10548 0.57709 0.0
O388 O 0.75122 0.0834 0.60885 0.0
O389 O 0.77478 0.07809 0.60777 0.0
O390 O 0.75295 0.12619 0.60774 0.0
O391 O 0.76943 0.10998 0.61184 0.0
Co392 Co 0.89799 0.24497 0.3881 0.0
O393 O 0.89845 0.2501 0.36794 0.0
O394 O 0.90008 0.26572 0.38614 0.0
C395 C 0.87908 0.22969 0.38674 0.0
O396 O 0.89731 0.24383 0.41013 0.0
Co397 Co 0.9034 0.21341 0.39788 0.0
O398 O 0.89638 0.22048 0.41689 0.0
C399 C 0.9278 0.23171 0.38862 0.0
C400 C 0.89968 0.26345 0.37223 0.0
C401 C 0.89571 0.23395 0.41983 0.0
O402 O 0.91946 0.24271 0.38811 0.0
O403 O 0.92326 0.21884 0.39119 0.0
O404 O 0.87711 0.24357 0.3876 0.0
O405 O 0.89224 0.22568 0.38529 0.0
Co406 Co 0.74512 0.88838 0.39221 0.0
O407 O 0.75125 0.86857 0.39166 0.0
O408 O 0.7658 0.88768 0.39287 0.0
C409 C 0.72881 0.88668 0.37426 0.0
O410 O 0.74296 0.91027 0.39232 0.0
Co411 Co 0.71381 0.89643 0.4001 0.0
O412 O 0.71963 0.91605 0.39346 0.0
C413 C 0.73371 0.88716 0.42305 0.0
C414 C 0.76429 0.87368 0.39227 0.0
C415 C 0.7328 0.91958 0.39187 0.0
O416 O 0.74419 0.88766 0.414 0.0
O417 O 0.72063 0.88913 0.41935 0.0
O418 O 0.74236 0.88834 0.37124 0.0
O419 O 0.72581 0.88469 0.38776 0.0
Co420 Co 0.10139 0.7553 0.3889 0.0
O421 O 0.1012 0.74989 0.36877 0.0
O422 O 0.0992 0.73456 0.38708 0.0
C423 C 0.12046 0.77042 0.38774 0.0
O424 O 0.10179 0.7567 0.41092 0.0
Co425 Co 0.09606 0.78694 0.39849 0.0
O426 O 0.10283 0.78008 0.41764 0.0
C427 C 0.0716 0.76869 0.38909 0.0
C428 C 0.09984 0.73661 0.37316 0.0
C429 C 0.10336 0.76664 0.42062 0.0
O430 O 0.07993 0.75769 0.38855 0.0
O431 O 0.07615 0.78155 0.39181 0.0
O432 O 0.12227 0.75654 0.38874 0.0
O433 O 0.10736 0.77455 0.38606 0.0
Co434 Co 0.25189 0.10889 0.39259 0.0
O435 O 0.24541 0.12853 0.39212 0.0
O436 O 0.23114 0.10919 0.39282 0.0
C437 C 0.26845 0.11103 0.375 0.0
O438 O 0.25465 0.08704 0.39252 0.0
Co439 Co 0.28332 0.1019 0.40117 0.0
O440 O 0.27823 0.08229 0.39381 0.0
C441 C 0.26265 0.11048 0.42367 0.0
C442 C 0.23246 0.12322 0.39242 0.0
C443 C 0.26523 0.07821 0.39197 0.0
O444 O 0.25238 0.10955 0.41439 0.0
O445 O 0.27587 0.109 0.42027 0.0
O446 O 0.255 0.10908 0.37168 0.0
O447 O 0.27114 0.11309 0.38857 0.0
Co448 Co 0.60245 0.88999 0.74567 0.0
O449 O 0.60197 0.87003 0.75137 0.0
O450 O 0.60064 0.88863 0.7665 0.0
C451 C 0.62119 0.88829 0.73047 0.0
O452 O 0.60322 0.91196 0.74376 0.0
Co453 Co 0.59651 0.89846 0.71379 0.0
O454 O 0.60383 0.91772 0.72013 0.0
C455 C 0.57235 0.88988 0.73255 0.0
C456 C 0.60095 0.87467 0.7646 0.0
C457 C 0.60475 0.92123 0.73346 0.0
O458 O 0.58093 0.88973 0.74347 0.0
O459 O 0.57663 0.89206 0.71955 0.0
O460 O 0.62328 0.88964 0.74432 0.0
O461 O 0.60798 0.88655 0.72646 0.0
Co462 Co 0.10275 0.60829 0.75533 0.0
O463 O 0.10304 0.62849 0.75017 0.0
O464 O 0.10186 0.61025 0.73457 0.0
C465 C 0.1207 0.60929 0.77162 0.0
O466 O 0.10287 0.58629 0.75624 0.0
Co467 Co 0.09532 0.59797 0.78639 0.0
O468 O 0.10213 0.5789 0.77938 0.0
C469 C 0.07223 0.60798 0.76715 0.0
C470 C 0.10237 0.62415 0.73678 0.0
C471 C 0.10357 0.5763 0.7659 0.0
O472 O 0.08118 0.60855 0.75656 0.0
O473 O 0.07597 0.60507 0.78016 0.0
O474 O 0.12353 0.60855 0.75785 0.0
O475 O 0.10734 0.61081 0.77493 0.0
Co476 Co 0.39477 0.10614 0.7498 0.0
O477 O 0.37501 0.10547 0.74413 0.0
O478 O 0.39333 0.10364 0.72899 0.0
C479 C 0.39299 0.12549 0.76449 0.0
O480 O 0.41658 0.10691 0.75196 0.0
Co481 Co 0.40268 0.10128 0.78214 0.0
O482 O 0.42163 0.10885 0.77574 0.0
C483 C 0.39398 0.07641 0.76395 0.0
C484 C 0.3795 0.10394 0.73094 0.0
C485 C 0.42547 0.10912 0.76248 0.0
O486 O 0.39442 0.08453 0.75266 0.0
O487 O 0.39581 0.08128 0.77683 0.0
O488 O 0.39442 0.12726 0.75061 0.0
O489 O 0.39127 0.11229 0.76873 0.0
Co490 Co 0.89418 0.39199 0.74978 0.0
O491 O 0.87458 0.39316 0.75612 0.0
O492 O 0.89353 0.39422 0.7706 0.0
C493 C 0.89097 0.37301 0.73468 0.0
O494 O 0.91587 0.39053 0.74741 0.0
Co495 Co 0.90252 0.39668 0.71751 0.0
O496 O 0.92122 0.38876 0.72374 0.0
C497 C 0.89494 0.42175 0.73579 0.0
C498 C 0.87964 0.39433 0.76918 0.0
C499 C 0.92482 0.38825 0.73705 0.0
O500 O 0.89495 0.41368 0.74715 0.0
O501 O 0.8966 0.41677 0.72295 0.0
O502 O 0.89259 0.37087 0.74849 0.0
O503 O 0.89008 0.38636 0.73077 0.0
Co504 Co 0.60299 0.10871 0.25564 0.0
O505 O 0.60277 0.12871 0.24984 0.0
O506 O 0.60192 0.10997 0.23482 0.0
C507 C 0.62105 0.11068 0.27175 0.0
O508 O 0.60362 0.08676 0.25733 0.0
Co509 Co 0.59604 0.09938 0.28714 0.0
O510 O 0.60339 0.08031 0.28076 0.0
C511 C 0.57256 0.10807 0.26771 0.0
C512 C 0.60211 0.12394 0.2366 0.0
C513 C 0.60473 0.07721 0.26737 0.0
O514 O 0.58141 0.10848 0.25702 0.0
O515 O 0.57648 0.10575 0.28079 0.0
O516 O 0.62379 0.10955 0.25799 0.0
O517 O 0.60768 0.11202 0.27511 0.0
Co518 Co 0.89803 0.60854 0.24494 0.0
O519 O 0.8985 0.62847 0.25086 0.0
O520 O 0.9001 0.60979 0.26575 0.0
C521 C 0.8791 0.61017 0.22997 0.0
O522 O 0.89729 0.58659 0.24281 0.0
Co523 Co 0.90368 0.60023 0.21294 0.0
O524 O 0.89643 0.58093 0.21913 0.0
C525 C 0.928 0.6088 0.23156 0.0
C526 C 0.89971 0.62375 0.26403 0.0
C527 C 0.89564 0.57736 0.23243 0.0
O528 O 0.91951 0.60888 0.24254 0.0
O529 O 0.92362 0.60665 0.21857 0.0
O530 O 0.87719 0.6088 0.24383 0.0
O531 O 0.89225 0.61202 0.22582 0.0
Co532 Co 0.39284 0.89209 0.25113 0.0
O533 O 0.37369 0.89201 0.25873 0.0
O534 O 0.39335 0.89532 0.27187 0.0
C535 C 0.39003 0.87219 0.23732 0.0
O536 O 0.41437 0.89221 0.24721 0.0
Co537 Co 0.39838 0.89569 0.21821 0.0
O538 O 0.4181 0.88961 0.2233 0.0
C539 C 0.39032 0.92106 0.2358 0.0
C540 C 0.37941 0.89423 0.27136 0.0
C541 C 0.4227 0.89005 0.23631 0.0
O542 O 0.39166 0.91359 0.24747 0.0
O543 O 0.39143 0.91557 0.2231 0.0
O544 O 0.39307 0.87093 0.25099 0.0
O545 O 0.3877 0.88513 0.23277 0.0
Co546 Co 0.10279 0.3895 0.24502 0.0
O547 O 0.10186 0.36955 0.25072 0.0
O548 O 0.10056 0.3882 0.2658 0.0
C549 C 0.12181 0.38746 0.23022 0.0
O550 O 0.104 0.41145 0.24317 0.0
Co551 Co 0.09768 0.39819 0.21308 0.0
O552 O 0.10532 0.41728 0.21959 0.0
C553 C 0.07297 0.39006 0.2313 0.0
C554 C 0.10069 0.37423 0.26393 0.0
C555 C 0.10599 0.42073 0.23295 0.0
O556 O 0.08133 0.38964 0.24238 0.0
O557 O 0.07754 0.39224 0.2184 0.0
O558 O 0.12363 0.38878 0.24411 0.0
O559 O 0.10866 0.38598 0.22592 0.0
Co560 Co 0.75294 0.60978 0.89301 0.0
O561 O 0.74629 0.62939 0.89275 0.0
O562 O 0.73224 0.60991 0.89399 0.0
C563 C 0.76887 0.61193 0.87487 0.0
O564 O 0.75578 0.58798 0.8929 0.0
Co565 Co 0.78463 0.60282 0.90049 0.0
O566 O 0.77934 0.58307 0.89367 0.0
C567 C 0.76477 0.61149 0.9237 0.0
C568 C 0.7334 0.62394 0.89356 0.0
C569 C 0.76628 0.57906 0.8922 0.0
O570 O 0.75419 0.61053 0.91478 0.0
O571 O 0.77787 0.60998 0.91983 0.0
O572 O 0.75532 0.60993 0.87202 0.0
O573 O 0.77203 0.61405 0.88833 0.0
Co574 Co 0.74775 0.39235 0.10674 0.0
O575 O 0.75437 0.39223 0.12646 0.0
O576 O 0.76851 0.39363 0.10724 0.0
C577 C 0.73181 0.37393 0.10881 0.0
O578 O 0.74485 0.39219 0.08482 0.0
Co579 Co 0.71596 0.39939 0.0997 0.0
O580 O 0.72117 0.39229 0.08011 0.0
C581 C 0.73594 0.42301 0.10791 0.0
C582 C 0.76729 0.39319 0.12128 0.0
C583 C 0.73417 0.39116 0.07599 0.0
O584 O 0.74647 0.41413 0.10735 0.0
O585 O 0.72282 0.41902 0.10632 0.0
O586 O 0.74536 0.3713 0.10691 0.0
O587 O 0.72868 0.38735 0.11086 0.0
Co588 Co 0.60459 0.74445 0.10747 0.0
O589 O 0.62417 0.73821 0.10792 0.0
O590 O 0.60523 0.72355 0.10635 0.0
C591 C 0.60656 0.7605 0.1258 0.0
O592 O 0.58286 0.74683 0.10743 0.0
Co593 Co 0.5971 0.77638 0.10047 0.0
O594 O 0.57784 0.77058 0.10771 0.0
C595 C 0.60664 0.75685 0.07711 0.0
C596 C 0.61911 0.72508 0.10706 0.0
C597 C 0.57397 0.75733 0.10873 0.0
O598 O 0.60549 0.74594 0.08569 0.0
O599 O 0.60492 0.76995 0.0813 0.0
O600 O 0.60462 0.74682 0.12855 0.0
O601 O 0.60848 0.76371 0.11235 0.0
Co602 Co 0.25104 0.60358 0.10736 0.0
O603 O 0.24519 0.60345 0.12732 0.0
O604 O 0.23033 0.60252 0.1086 0.0
C605 C 0.26724 0.62179 0.10921 0.0
O606 O 0.25304 0.60414 0.08536 0.0
Co607 Co 0.28238 0.59632 0.09879 0.0
O608 O 0.2765 0.6041 0.07971 0.0
C609 C 0.26257 0.57279 0.10737 0.0
C610 C 0.23208 0.60275 0.12259 0.0
C611 C 0.26336 0.60543 0.07615 0.0
O612 O 0.25212 0.58178 0.10747 0.0
O613 O 0.27564 0.57665 0.10522 0.0
O614 O 0.25366 0.62459 0.10792 0.0
O615 O 0.27032 0.6083 0.11082 0.0
Co616 Co 0.39503 0.25232 0.10626 0.0
O617 O 0.37556 0.25886 0.10593 0.0
O618 O 0.39473 0.27312 0.10379 0.0
C619 C 0.3927 0.23762 0.12552 0.0
O620 O 0.41672 0.24948 0.10671 0.0
Co621 Co 0.40177 0.2198 0.10119 0.0
O622 O 0.42108 0.22565 0.10829 0.0
C623 C 0.39336 0.23804 0.07653 0.0
C624 C 0.38081 0.27182 0.10425 0.0
C625 C 0.42531 0.23882 0.10864 0.0
O626 O 0.39438 0.24939 0.0846 0.0
O627 O 0.39479 0.22516 0.08139 0.0
O628 O 0.39474 0.25144 0.12742 0.0
O629 O 0.39074 0.23351 0.11229 0.0
Co630 Co 0.24508 0.38911 0.89194 0.0
O631 O 0.25154 0.36942 0.8923 0.0
O632 O 0.26572 0.38884 0.89339 0.0
C633 C 0.2295 0.3866 0.87347 0.0
O634 O 0.2426 0.41092 0.89121 0.0
Co635 Co 0.2134 0.39695 0.89834 0.0
O636 O 0.21917 0.41637 0.89109 0.0
C637 C 0.23264 0.3891 0.92241 0.0
C638 C 0.26446 0.37481 0.8932 0.0
C639 C 0.23235 0.42004 0.88994 0.0
O640 O 0.24339 0.38913 0.91368 0.0
O641 O 0.21967 0.39087 0.9182 0.0
O642 O 0.24313 0.38834 0.87091 0.0
O643 O 0.22602 0.38497 0.8869 0.0
Co644 Co 0.60205 0.25578 0.88853 0.0
O645 O 0.60161 0.25018 0.86845 0.0
O646 O 0.59975 0.23503 0.88693 0.0
C647 C 0.62114 0.27082 0.88701 0.0
O648 O 0.60268 0.25735 0.91053 0.0
Co649 Co 0.59694 0.28752 0.89792 0.0
O650 O 0.60352 0.28076 0.91718 0.0
C651 C 0.57237 0.26933 0.88873 0.0
C652 C 0.60022 0.23695 0.87298 0.0
C653 C 0.60415 0.26733 0.92021 0.0
O654 O 0.5806 0.25826 0.88836 0.0
O655 O 0.57703 0.2822 0.89123 0.0
O656 O 0.62293 0.25694 0.88813 0.0
O657 O 0.60802 0.27497 0.88546 0.0
Co658 Co 0.39822 0.74451 0.89012 0.0
O659 O 0.39906 0.74929 0.8699 0.0
O660 O 0.39999 0.76524 0.88787 0.0
C661 C 0.37961 0.72891 0.88857 0.0
O662 O 0.39706 0.74367 0.91214 0.0
Co663 Co 0.40409 0.71323 0.90042 0.0
O664 O 0.39655 0.7204 0.91918 0.0
C665 C 0.42831 0.73194 0.89157 0.0
C666 C 0.39997 0.76273 0.87399 0.0
C667 C 0.3955 0.73388 0.92193 0.0
O668 O 0.41971 0.74268 0.89065 0.0
O669 O 0.42404 0.719 0.89428 0.0
O670 O 0.37741 0.74276 0.88917 0.0
O671 O 0.39286 0.72509 0.88746 0.0
H672 H 0.09905 0.34486 0.2625 0.0
H673 H 0.09996 0.32769 0.28249 0.0
H674 H 0.10255 0.36306 0.31301 0.0
H675 H 0.10143 0.38041 0.293 0.0
H676 H 0.12248 0.32541 0.30205 0.0
H677 H 0.07119 0.3368 0.33036 0.0
H678 H 0.07475 0.34276 0.31209 0.0
H679 H 0.08258 0.3523 0.32718 0.0
C680 C 0.09964 0.34902 0.27347 0.0
C681 C 0.10017 0.364 0.27618 0.0
C682 C 0.10018 0.33918 0.28487 0.0
C683 C 0.10121 0.3441 0.29922 0.0
C684 C 0.1015 0.35905 0.30202 0.0
H685 H 0.11225 0.29666 0.3798 0.0
H686 H 0.10999 0.31558 0.36146 0.0
C687 C 0.10092 0.36894 0.29058 0.0
C688 C 0.10282 0.33348 0.31107 0.0
H689 H 0.08682 0.32022 0.34161 0.0
C690 C 0.11468 0.32426 0.31069 0.0
C691 C 0.09266 0.33208 0.32236 0.0
C692 C 0.0795 0.34142 0.32303 0.0
C693 C 0.11666 0.31365 0.3213 0.0
C694 C 0.10638 0.31209 0.33245 0.0
C695 C 0.09465 0.32145 0.333 0.0
C696 C 0.10756 0.30063 0.34352 0.0
C697 C 0.12981 0.30429 0.32058 0.0
C698 C 0.10676 0.28598 0.3395 0.0
C699 C 0.10804 0.27515 0.34994 0.0
C700 C 0.1101 0.27882 0.36458 0.0
C701 C 0.11073 0.2935 0.36859 0.0
C702 C 0.10942 0.30432 0.35815 0.0
H703 H 0.1383 0.30918 0.31364 0.0
H704 H 0.13431 0.30248 0.33156 0.0
H705 H 0.1268 0.2936 0.3159 0.0
H706 H 0.10511 0.28293 0.32828 0.0
H707 H 0.10743 0.26393 0.34654 0.0
H708 H 0.705 0.10199 0.38358 0.0
H709 H 0.68502 0.1031 0.36631 0.0
H710 H 0.71493 0.10097 0.33077 0.0
H711 H 0.73488 0.10009 0.34785 0.0
H712 H 0.69544 0.12319 0.32816 0.0
H713 H 0.66773 0.0711 0.34065 0.0
H714 H 0.67088 0.08274 0.35598 0.0
H715 H 0.68584 0.07509 0.34652 0.0
C716 C 0.70729 0.10162 0.37208 0.0
C717 C 0.72151 0.10096 0.36707 0.0
C718 C 0.69587 0.10218 0.36224 0.0
C719 C 0.6985 0.10196 0.34727 0.0
C720 C 0.71267 0.10112 0.34228 0.0
H721 H 0.64984 0.10729 0.26762 0.0
H722 H 0.66846 0.10532 0.28621 0.0
C723 C 0.72406 0.10061 0.35207 0.0
C724 C 0.68664 0.10331 0.33669 0.0
H725 H 0.65618 0.08665 0.32408 0.0
C726 C 0.68686 0.11519 0.32725 0.0
C727 C 0.67545 0.09288 0.33559 0.0
C728 C 0.67496 0.07966 0.34513 0.0
C729 C 0.67617 0.11695 0.31672 0.0
C730 C 0.66508 0.10644 0.3155 0.0
C731 C 0.66473 0.09466 0.32506 0.0
C732 C 0.65382 0.10745 0.30425 0.0
C733 C 0.67672 0.13015 0.30713 0.0
C734 C 0.63941 0.10898 0.30827 0.0
C735 C 0.62876 0.11007 0.29768 0.0
C736 C 0.63234 0.10955 0.2829 0.0
C737 C 0.64677 0.10782 0.27891 0.0
C738 C 0.65741 0.10675 0.28951 0.0
H739 H 0.68368 0.13884 0.31179 0.0
H740 H 0.68118 0.12709 0.29643 0.0
H741 H 0.66581 0.13453 0.30539 0.0
H742 H 0.63643 0.10947 0.3196 0.0
H743 H 0.61772 0.11134 0.30109 0.0
H744 H 0.88754 0.70211 0.37976 0.0
H745 H 0.89107 0.68299 0.3618 0.0
H746 H 0.89591 0.71516 0.32835 0.0
H747 H 0.89261 0.7344 0.34631 0.0
H748 H 0.87497 0.67689 0.33729 0.0
H749 H 0.93135 0.6901 0.32275 0.0
H750 H 0.92279 0.69736 0.33868 0.0
H751 H 0.91946 0.70516 0.32119 0.0
C752 C 0.88941 0.70513 0.36859 0.0
C753 C 0.88987 0.71976 0.36443 0.0
C754 C 0.89143 0.69419 0.35835 0.0
C755 C 0.89399 0.69767 0.34381 0.0
C756 C 0.89427 0.71226 0.33959 0.0
H757 H 0.90072 0.65316 0.26292 0.0
H758 H 0.89995 0.67021 0.28314 0.0
C759 C 0.89228 0.72323 0.34983 0.0
C760 C 0.8959 0.68601 0.33297 0.0
H761 H 0.91901 0.67327 0.3074 0.0
C762 C 0.88465 0.67599 0.33085 0.0
C763 C 0.90857 0.68485 0.32465 0.0
C764 C 0.9213 0.69485 0.327 0.0
C765 C 0.88552 0.66514 0.32022 0.0
C766 C 0.89805 0.66421 0.31167 0.0
C767 C 0.90942 0.67405 0.31399 0.0
C768 C 0.8992 0.65367 0.29966 0.0
C769 C 0.87283 0.6551 0.31787 0.0
C770 C 0.89931 0.63872 0.3023 0.0
C771 C 0.89977 0.6289 0.29074 0.0
C772 C 0.90013 0.63393 0.27639 0.0
C773 C 0.90038 0.64893 0.27384 0.0
C774 C 0.89997 0.6587 0.28537 0.0
H775 H 0.86305 0.65897 0.32347 0.0
H776 H 0.87044 0.65393 0.30613 0.0
H777 H 0.87541 0.64422 0.32215 0.0
H778 H 0.89893 0.63465 0.31329 0.0
H779 H 0.89961 0.61741 0.29303 0.0
H780 H 0.35032 0.89308 0.27247 0.0
H781 H 0.335 0.89339 0.29382 0.0
H782 H 0.37229 0.8974 0.3213 0.0
H783 H 0.38786 0.8972 0.2998 0.0
H784 H 0.33643 0.87297 0.31717 0.0
H785 H 0.34484 0.93004 0.33539 0.0
H786 H 0.34905 0.92424 0.3172 0.0
H787 H 0.36044 0.91924 0.33197 0.0
C788 C 0.35532 0.89412 0.28303 0.0
C789 C 0.37032 0.8951 0.28445 0.0
C790 C 0.34653 0.89429 0.29522 0.0
C791 C 0.3525 0.89549 0.30911 0.0
C792 C 0.36747 0.89664 0.31064 0.0
H793 H 0.29845 0.89788 0.38777 0.0
H794 H 0.31999 0.89735 0.37243 0.0
C795 C 0.37633 0.89647 0.29837 0.0
C796 C 0.34285 0.89497 0.32183 0.0
H797 H 0.32758 0.9161 0.34789 0.0
C798 C 0.33464 0.88234 0.32402 0.0
C799 C 0.34063 0.90716 0.33081 0.0
C800 C 0.34912 0.92101 0.32877 0.0
C801 C 0.32383 0.88177 0.33455 0.0
C802 C 0.32102 0.89422 0.34296 0.0
C803 C 0.32975 0.9066 0.34136 0.0
C804 C 0.3082 0.89497 0.35236 0.0
C805 C 0.31524 0.86794 0.33634 0.0
C806 C 0.2945 0.89411 0.3461 0.0
C807 C 0.28226 0.89444 0.35475 0.0
C808 C 0.28346 0.89568 0.36988 0.0
C809 C 0.29719 0.89685 0.37615 0.0
C810 C 0.30949 0.89656 0.36743 0.0
H811 H 0.32122 0.85841 0.3323 0.0
H812 H 0.31238 0.86612 0.34788 0.0
H813 H 0.30515 0.86869 0.33001 0.0
H814 H 0.29329 0.89313 0.33446 0.0
H815 H 0.27185 0.8936 0.34956 0.0
H816 H 0.10279 0.65367 0.73838 0.0
H817 H 0.10315 0.67088 0.71831 0.0
H818 H 0.10211 0.6355 0.68774 0.0
H819 H 0.10186 0.61817 0.70777 0.0
H820 H 0.1233 0.65687 0.68196 0.0
H821 H 0.06987 0.68124 0.69105 0.0
H822 H 0.08127 0.68109 0.70676 0.0
H823 H 0.07502 0.66427 0.69907 0.0
C824 C 0.10256 0.64954 0.72739 0.0
C825 C 0.10227 0.63456 0.72465 0.0
C826 C 0.10268 0.65939 0.71594 0.0
C827 C 0.10245 0.65445 0.70156 0.0
C828 C 0.10221 0.63951 0.69878 0.0
H829 H 0.1081 0.69822 0.61815 0.0
H830 H 0.10627 0.68019 0.63744 0.0
C831 C 0.10206 0.62964 0.71023 0.0
C832 C 0.103 0.66489 0.68942 0.0
H833 H 0.08515 0.69301 0.67406 0.0
C834 C 0.11492 0.66471 0.68015 0.0
C835 C 0.09206 0.67511 0.68714 0.0
C836 C 0.07876 0.67541 0.69644 0.0
C837 C 0.11637 0.67474 0.66884 0.0
C838 C 0.10547 0.68503 0.66661 0.0
C839 C 0.09349 0.68513 0.67582 0.0
C840 C 0.10636 0.6959 0.65488 0.0
C841 C 0.12975 0.67451 0.65965 0.0
C842 C 0.10664 0.71072 0.65827 0.0
C843 C 0.10759 0.72104 0.64727 0.0
C844 C 0.10822 0.71672 0.63268 0.0
C845 C 0.10774 0.70188 0.6293 0.0
C846 C 0.10677 0.69156 0.6403 0.0
H847 H 0.13855 0.6685 0.66498 0.0
H848 H 0.12729 0.66906 0.6492 0.0
H849 H 0.13361 0.68567 0.65728 0.0
H850 H 0.10626 0.71429 0.66945 0.0
H851 H 0.10789 0.7324 0.65021 0.0
H852 H 0.26646 0.10459 0.65299 0.0
H853 H 0.28631 0.10321 0.67035 0.0
H854 H 0.31666 0.11083 0.6359 0.0
H855 H 0.29695 0.11215 0.61849 0.0
H856 H 0.32384 0.0876 0.65488 0.0
H857 H 0.31081 0.13817 0.6845 0.0
H858 H 0.29611 0.12552 0.68272 0.0
H859 H 0.30352 0.13394 0.66683 0.0
C860 C 0.27736 0.106 0.64913 0.0
C861 C 0.28015 0.10855 0.6344 0.0
C862 C 0.28867 0.10525 0.65905 0.0
C863 C 0.30292 0.10709 0.6544 0.0
C864 C 0.30573 0.10944 0.63968 0.0
H865 H 0.38476 0.10546 0.70169 0.0
H866 H 0.36684 0.10581 0.68215 0.0
C867 C 0.29445 0.11022 0.62977 0.0
C868 C 0.3149 0.10654 0.66488 0.0
H869 H 0.32866 0.12334 0.69484 0.0
C870 C 0.32498 0.09544 0.66358 0.0
C871 C 0.31637 0.11686 0.67612 0.0
C872 C 0.30622 0.12939 0.6776 0.0
C873 C 0.33625 0.09409 0.6736 0.0
C874 C 0.33753 0.10426 0.68501 0.0
C875 C 0.32761 0.11553 0.68609 0.0
C876 C 0.3486 0.10309 0.69645 0.0
C877 C 0.34637 0.08154 0.67218 0.0
C878 C 0.34427 0.10151 0.71089 0.0
C879 C 0.3544 0.10145 0.72198 0.0
C880 C 0.36911 0.10297 0.71888 0.0
C881 C 0.37351 0.1042 0.70438 0.0
C882 C 0.3633 0.10434 0.69322 0.0
H883 H 0.34209 0.07303 0.66477 0.0
H884 H 0.35675 0.08551 0.66773 0.0
H885 H 0.3485 0.07662 0.68291 0.0
H886 H 0.33299 0.10052 0.7136 0.0
H887 H 0.35066 0.10041 0.73304 0.0
H888 H 0.89002 0.29613 0.62031 0.0
H889 H 0.89045 0.31301 0.64079 0.0
H890 H 0.89296 0.27717 0.67046 0.0
H891 H 0.89266 0.2602 0.65004 0.0
H892 H 0.87035 0.31368 0.66391 0.0
H893 H 0.92592 0.30447 0.68359 0.0
H894 H 0.91999 0.29903 0.66574 0.0
H895 H 0.91493 0.28851 0.68128 0.0
C896 C 0.89076 0.29185 0.63119 0.0
C897 C 0.89132 0.27685 0.63358 0.0
C898 C 0.891 0.3015 0.64286 0.0
C899 C 0.8919 0.29633 0.65711 0.0
C900 C 0.89252 0.28137 0.65953 0.0
H901 H 0.89307 0.34382 0.73952 0.0
H902 H 0.89278 0.3244 0.72128 0.0
C903 C 0.89226 0.27171 0.64786 0.0
C904 C 0.89159 0.30662 0.66941 0.0
H905 H 0.91151 0.3201 0.69755 0.0
C906 C 0.87933 0.31509 0.67128 0.0
C907 C 0.90329 0.3083 0.67907 0.0
C908 C 0.91684 0.2997 0.67732 0.0
C909 C 0.87848 0.32529 0.68251 0.0
C910 C 0.89033 0.32725 0.69194 0.0
C911 C 0.90246 0.31856 0.69029 0.0
C912 C 0.89059 0.33885 0.70303 0.0
C913 C 0.86487 0.33382 0.68421 0.0
C914 C 0.88971 0.35336 0.69876 0.0
C915 C 0.88983 0.3644 0.70909 0.0
C916 C 0.89097 0.36116 0.72391 0.0
C917 C 0.89212 0.34663 0.72818 0.0
C918 C 0.89197 0.33555 0.7178 0.0
H919 H 0.85556 0.32818 0.6791 0.0
H920 H 0.8624 0.33576 0.69582 0.0
H921 H 0.86624 0.34447 0.67883 0.0
H922 H 0.88897 0.35616 0.6874 0.0
H923 H 0.88904 0.37549 0.70543 0.0
H924 H 0.73763 0.89346 0.65378 0.0
H925 H 0.71909 0.89337 0.67265 0.0
H926 H 0.68677 0.88399 0.64038 0.0
H927 H 0.70515 0.88384 0.62158 0.0
H928 H 0.69452 0.91063 0.6749 0.0
H929 H 0.67987 0.85241 0.67061 0.0
H930 H 0.69612 0.85987 0.66285 0.0
H931 H 0.67924 0.86177 0.65362 0.0
C932 C 0.72657 0.89132 0.65074 0.0
C933 C 0.72284 0.88856 0.63623 0.0
C934 C 0.71602 0.89129 0.66151 0.0
C935 C 0.70162 0.88842 0.65792 0.0
C936 C 0.69786 0.8859 0.64341 0.0
H937 H 0.61972 0.88535 0.70108 0.0
H938 H 0.63967 0.88595 0.68384 0.0
C939 C 0.70838 0.8859 0.63268 0.0
C940 C 0.6904 0.88834 0.66924 0.0
H941 H 0.66396 0.86728 0.6841 0.0
C942 C 0.68792 0.90113 0.67703 0.0
C943 C 0.68182 0.87591 0.67196 0.0
C944 C 0.68446 0.86167 0.66443 0.0
C945 C 0.67675 0.90195 0.68719 0.0
C946 C 0.66801 0.8896 0.68969 0.0
C947 C 0.67064 0.87675 0.68206 0.0
C948 C 0.656 0.88975 0.70013 0.0
C949 C 0.67413 0.91611 0.69486 0.0
C950 C 0.65864 0.89162 0.71497 0.0
C951 C 0.64728 0.89127 0.72484 0.0
C952 C 0.63312 0.88898 0.72 0.0
C953 C 0.63052 0.88715 0.70512 0.0
C954 C 0.64188 0.88748 0.69527 0.0
H955 H 0.67967 0.92532 0.68943 0.0
H956 H 0.66246 0.91839 0.69539 0.0
H957 H 0.67824 0.91544 0.70612 0.0
H958 H 0.66949 0.89315 0.71894 0.0
H959 H 0.64962 0.89267 0.73625 0.0
H960 H 0.38161 0.10272 0.29342 0.0
H961 H 0.36431 0.10242 0.31346 0.0
H962 H 0.32937 0.10183 0.2828 0.0
H963 H 0.34646 0.10209 0.2628 0.0
H964 H 0.3424 0.12381 0.31801 0.0
H965 H 0.31956 0.06845 0.31116 0.0
H966 H 0.33662 0.0739 0.30352 0.0
H967 H 0.32017 0.07896 0.29483 0.0
C968 C 0.37024 0.10237 0.29097 0.0
C969 C 0.36538 0.10242 0.27655 0.0
C970 C 0.3604 0.10222 0.3024 0.0
C971 C 0.3456 0.10192 0.29956 0.0
C972 C 0.34075 0.1018 0.28519 0.0
H973 H 0.26576 0.10715 0.34579 0.0
H974 H 0.2851 0.10494 0.328 0.0
C975 C 0.35054 0.10204 0.27379 0.0
C976 C 0.33512 0.10256 0.31154 0.0
H977 H 0.30666 0.0845 0.32648 0.0
C978 C 0.33468 0.11517 0.32002 0.0
C979 C 0.32506 0.09128 0.314 0.0
C980 C 0.3254 0.07731 0.30549 0.0
C981 C 0.32406 0.11702 0.3306 0.0
C982 C 0.31384 0.10581 0.33292 0.0
C983 C 0.31448 0.09308 0.32462 0.0
C984 C 0.30222 0.10718 0.34374 0.0
C985 C 0.32356 0.13116 0.33881 0.0
C986 C 0.30547 0.10902 0.35846 0.0
C987 C 0.29447 0.11039 0.36861 0.0
C988 C 0.28003 0.10976 0.36421 0.0
C989 C 0.27679 0.10772 0.34948 0.0
C990 C 0.28781 0.10643 0.33932 0.0
H991 H 0.32972 0.13986 0.33322 0.0
H992 H 0.31233 0.13476 0.34026 0.0
H993 H 0.32837 0.12967 0.3497 0.0
H994 H 0.31652 0.10931 0.36213 0.0
H995 H 0.29729 0.11184 0.37991 0.0
H996 H 0.90089 0.26135 0.34284 0.0
H997 H 0.90021 0.28098 0.3252 0.0
H998 H 0.89824 0.31221 0.35994 0.0
H999 H 0.89919 0.2926 0.37771 0.0
H1000 H 0.87846 0.30046 0.32174 0.0
H1001 H 0.92973 0.32913 0.33422 0.0
H1002 H 0.92578 0.31108 0.34064 0.0
H1003 H 0.91819 0.32652 0.34957 0.0
C1004 C 0.90047 0.27241 0.34675 0.0
C1005 C 0.90011 0.27544 0.36167 0.0
C1006 C 0.90007 0.2836 0.33665 0.0
C1007 C 0.89933 0.29806 0.34125 0.0
C1008 C 0.89911 0.30115 0.35615 0.0
H1009 H 0.88838 0.37906 0.29532 0.0
H1010 H 0.89077 0.3601 0.31358 0.0
C1011 C 0.89957 0.28994 0.36629 0.0
C1012 C 0.89798 0.30975 0.33039 0.0
H1013 H 0.91396 0.3407 0.31782 0.0
C1014 C 0.88625 0.30922 0.32084 0.0
C1015 C 0.90814 0.32119 0.32928 0.0
C1016 C 0.92125 0.322 0.33888 0.0
C1017 C 0.88432 0.31992 0.31029 0.0
C1018 C 0.8945 0.33132 0.30914 0.0
C1019 C 0.90618 0.33192 0.31874 0.0
C1020 C 0.89318 0.34275 0.29803 0.0
C1021 C 0.87126 0.31906 0.30063 0.0
C1022 C 0.89391 0.33927 0.28324 0.0
C1023 C 0.89254 0.35007 0.27277 0.0
C1024 C 0.89047 0.36454 0.27694 0.0
C1025 C 0.8899 0.368 0.29177 0.0
C1026 C 0.8913 0.3572 0.30222 0.0
H1027 H 0.86283 0.31178 0.30515 0.0
H1028 H 0.86662 0.32995 0.29899 0.0
H1029 H 0.87442 0.31474 0.28988 0.0
H1030 H 0.8956 0.3282 0.27979 0.0
H1031 H 0.89312 0.34709 0.26144 0.0
H1032 H 0.69986 0.88534 0.37836 0.0
H1033 H 0.68101 0.8875 0.36005 0.0
H1034 H 0.71317 0.8934 0.32697 0.0
H1035 H 0.73212 0.89118 0.34521 0.0
H1036 H 0.67591 0.91101 0.3406 0.0
H1037 H 0.68765 0.85961 0.31182 0.0
H1038 H 0.69432 0.86356 0.32979 0.0
H1039 H 0.70285 0.87153 0.31425 0.0
C1040 C 0.70293 0.88707 0.36718 0.0
C1041 C 0.71747 0.88801 0.36319 0.0
C1042 C 0.69214 0.88833 0.35676 0.0
C1043 C 0.69572 0.89044 0.34217 0.0
C1044 C 0.71022 0.89155 0.33816 0.0
H1045 H 0.65037 0.89848 0.2617 0.0
H1046 H 0.66777 0.89762 0.28141 0.0
C1047 C 0.72102 0.89032 0.34858 0.0
C1048 C 0.68426 0.89153 0.33113 0.0
H1049 H 0.67091 0.87519 0.30073 0.0
C1050 C 0.67474 0.90316 0.33191 0.0
C1051 C 0.68278 0.88122 0.31988 0.0
C1052 C 0.69235 0.86819 0.3189 0.0
C1053 C 0.66398 0.905 0.32142 0.0
C1054 C 0.66261 0.89477 0.31006 0.0
C1055 C 0.67202 0.88303 0.30944 0.0
C1056 C 0.65183 0.89622 0.29838 0.0
C1057 C 0.65448 0.91808 0.32234 0.0
C1058 C 0.63705 0.89579 0.3014 0.0
C1059 C 0.62703 0.89635 0.29011 0.0
C1060 C 0.63165 0.89719 0.27565 0.0
C1061 C 0.64645 0.89779 0.27272 0.0
C1062 C 0.65642 0.8973 0.28397 0.0
H1063 H 0.65909 0.92656 0.32959 0.0
H1064 H 0.65276 0.92284 0.31145 0.0
H1065 H 0.64387 0.91476 0.32674 0.0
H1066 H 0.63329 0.89469 0.31243 0.0
H1067 H 0.6157 0.89579 0.29268 0.0
H1068 H 0.11096 0.61895 0.29802 0.0
H1069 H 0.10816 0.63803 0.31621 0.0
H1070 H 0.10502 0.66986 0.28232 0.0
H1071 H 0.10789 0.65085 0.26404 0.0
H1072 H 0.12464 0.67704 0.30512 0.0
H1073 H 0.07108 0.66026 0.3261 0.0
H1074 H 0.08432 0.64628 0.32554 0.0
H1075 H 0.07796 0.654 0.30893 0.0
C1076 C 0.10963 0.63001 0.29443 0.0
C1077 C 0.10962 0.63341 0.2796 0.0
C1078 C 0.10795 0.64087 0.30484 0.0
C1079 C 0.10618 0.6553 0.30058 0.0
C1080 C 0.10628 0.65875 0.2858 0.0
H1081 H 0.09939 0.73817 0.34371 0.0
H1082 H 0.10059 0.71823 0.32635 0.0
C1083 C 0.10792 0.64789 0.27538 0.0
C1084 C 0.10475 0.6669 0.31157 0.0
H1085 H 0.08308 0.67931 0.33859 0.0
C1086 C 0.11554 0.67758 0.31241 0.0
C1087 C 0.0929 0.66747 0.32111 0.0
C1088 C 0.08082 0.65647 0.32036 0.0
C1089 C 0.11488 0.68879 0.32266 0.0
C1090 C 0.10294 0.6895 0.33209 0.0
C1091 C 0.0922 0.67874 0.33133 0.0
C1092 C 0.10135 0.70147 0.34265 0.0
C1093 C 0.12711 0.69963 0.32347 0.0
C1094 C 0.10079 0.69862 0.35757 0.0
C1095 C 0.09997 0.71002 0.36754 0.0
C1096 C 0.09966 0.72443 0.36273 0.0
C1097 C 0.09975 0.7272 0.34777 0.0
C1098 C 0.10051 0.71582 0.33783 0.0
H1099 H 0.13704 0.69535 0.31845 0.0
H1100 H 0.1241 0.70956 0.31752 0.0
H1101 H 0.1295 0.70268 0.33487 0.0
H1102 H 0.10132 0.6876 0.36149 0.0
H1103 H 0.09988 0.70755 0.379 0.0
H1104 H 0.34668 0.89286 0.73079 0.0
H1105 H 0.33066 0.89406 0.7099 0.0
H1106 H 0.36717 0.89636 0.68131 0.0
H1107 H 0.38337 0.89504 0.70222 0.0
H1108 H 0.32956 0.91649 0.6887 0.0
H1109 H 0.34216 0.86282 0.6645 0.0
H1110 H 0.34668 0.86739 0.683 0.0
H1111 H 0.35708 0.87476 0.66837 0.0
C1112 C 0.35134 0.89358 0.72007 0.0
C1113 C 0.3663 0.89381 0.71816 0.0
C1114 C 0.34216 0.89428 0.70814 0.0
C1115 C 0.34773 0.89515 0.69406 0.0
C1116 C 0.36266 0.89547 0.69208 0.0
H1117 H 0.2957 0.89517 0.61411 0.0
H1118 H 0.31651 0.8966 0.63045 0.0
C1119 C 0.37189 0.89478 0.70404 0.0
C1120 C 0.33775 0.89597 0.6816 0.0
H1121 H 0.32457 0.87665 0.65281 0.0
C1122 C 0.32855 0.90784 0.68077 0.0
C1123 C 0.33657 0.88473 0.67121 0.0
C1124 C 0.34606 0.87163 0.67177 0.0
C1125 C 0.3179 0.90859 0.67007 0.0
C1126 C 0.31625 0.89704 0.6601 0.0
C1127 C 0.32585 0.88546 0.66051 0.0
C1128 C 0.30384 0.89621 0.65007 0.0
C1129 C 0.30837 0.92167 0.66964 0.0
C1130 C 0.2899 0.89528 0.65572 0.0
C1131 C 0.27807 0.89442 0.64648 0.0
C1132 C 0.27993 0.89443 0.63137 0.0
C1133 C 0.29393 0.89519 0.6257 0.0
C1134 C 0.30581 0.89601 0.635 0.0
H1135 H 0.31359 0.93121 0.67489 0.0
H1136 H 0.30554 0.92454 0.65832 0.0
H1137 H 0.29829 0.91924 0.67559 0.0
H1138 H 0.28817 0.89513 0.66732 0.0
H1139 H 0.26745 0.89377 0.65121 0.0
H1140 H 0.10837 0.37641 0.69995 0.0
H1141 H 0.10684 0.35574 0.68335 0.0
H1142 H 0.10313 0.3267 0.71968 0.0
H1143 H 0.10483 0.34728 0.73635 0.0
H1144 H 0.12327 0.31808 0.69925 0.0
H1145 H 0.07142 0.33112 0.67308 0.0
H1146 H 0.08427 0.34576 0.67272 0.0
H1147 H 0.0773 0.33952 0.68978 0.0
C1148 C 0.10716 0.36563 0.70439 0.0
C1149 C 0.1067 0.36345 0.71944 0.0
C1150 C 0.10619 0.35385 0.6949 0.0
C1151 C 0.10465 0.33972 0.7003 0.0
C1152 C 0.10423 0.33753 0.71531 0.0
H1153 H 0.10312 0.25577 0.65536 0.0
H1154 H 0.10195 0.27453 0.6742 0.0
C1155 C 0.1052 0.34929 0.7248 0.0
C1156 C 0.10406 0.3272 0.69028 0.0
H1157 H 0.08542 0.31288 0.66169 0.0
C1158 C 0.11492 0.31684 0.69113 0.0
C1159 C 0.09311 0.32561 0.67976 0.0
C1160 C 0.08078 0.33601 0.67883 0.0
C1161 C 0.11543 0.3052 0.68135 0.0
C1162 C 0.10469 0.30383 0.6706 0.0
C1163 C 0.09365 0.31401 0.66996 0.0
C1164 C 0.10515 0.29238 0.65939 0.0
C1165 C 0.12774 0.29477 0.68224 0.0
C1166 C 0.10707 0.29627 0.64485 0.0
C1167 C 0.10771 0.28564 0.63413 0.0
C1168 C 0.10636 0.27092 0.63773 0.0
C1169 C 0.10427 0.26703 0.65229 0.0
C1170 C 0.10365 0.27771 0.66305 0.0
H1171 H 0.13654 0.29892 0.68931 0.0
H1172 H 0.12381 0.28435 0.68677 0.0
H1173 H 0.13218 0.29259 0.6713 0.0
H1174 H 0.10822 0.30755 0.64183 0.0
H1175 H 0.10931 0.28899 0.62301 0.0
H1176 H 0.73096 0.10664 0.65193 0.0
H1177 H 0.71042 0.10655 0.66829 0.0
H1178 H 0.68163 0.10311 0.63181 0.0
H1179 H 0.70225 0.10306 0.61525 0.0
H1180 H 0.68755 0.12653 0.66864 0.0
H1181 H 0.66836 0.06999 0.65903 0.0
H1182 H 0.6861 0.0761 0.65385 0.0
H1183 H 0.67079 0.08122 0.64332 0.0
C1184 C 0.72027 0.10581 0.64735 0.0
C1185 C 0.71823 0.10483 0.63229 0.0
C1186 C 0.70854 0.10577 0.65672 0.0
C1187 C 0.69452 0.10469 0.65127 0.0
C1188 C 0.69239 0.10374 0.63624 0.0
H1189 H 0.61565 0.1015 0.70387 0.0
H1190 H 0.63193 0.10233 0.68298 0.0
C1191 C 0.70416 0.10378 0.62681 0.0
C1192 C 0.68226 0.10492 0.66148 0.0
H1193 H 0.65566 0.08381 0.67612 0.0
C1194 C 0.6805 0.11724 0.67019 0.0
C1195 C 0.67302 0.09281 0.66341 0.0
C1196 C 0.67464 0.07921 0.6545 0.0
C1197 C 0.66999 0.11766 0.68103 0.0
C1198 C 0.66116 0.10533 0.68339 0.0
C1199 C 0.6625 0.09322 0.6743 0.0
C1200 C 0.65123 0.1045 0.69589 0.0
C1201 C 0.66851 0.13125 0.68998 0.0
C1202 C 0.65672 0.10514 0.71003 0.0
C1203 C 0.64751 0.10465 0.72192 0.0
C1204 C 0.63258 0.10344 0.71993 0.0
C1205 C 0.62709 0.10249 0.70575 0.0
C1206 C 0.63636 0.10296 0.69382 0.0
H1207 H 0.67297 0.14086 0.68427 0.0
H1208 H 0.65709 0.13329 0.69267 0.0
H1209 H 0.67453 0.13 0.70027 0.0
H1210 H 0.66819 0.10605 0.71186 0.0
H1211 H 0.6521 0.10531 0.73268 0.0
H1212 H 0.88947 0.71116 0.62351 0.0
H1213 H 0.89011 0.69277 0.64241 0.0
H1214 H 0.8981 0.72589 0.67454 0.0
H1215 H 0.89736 0.74448 0.65562 0.0
H1216 H 0.91298 0.6868 0.66189 0.0
H1217 H 0.86297 0.70295 0.6903 0.0
H1218 H 0.86724 0.70897 0.67221 0.0
H1219 H 0.87618 0.71702 0.68753 0.0
C1220 C 0.89134 0.71456 0.63459 0.0
C1221 C 0.89331 0.72927 0.63811 0.0
C1222 C 0.89173 0.70404 0.64536 0.0
C1223 C 0.89401 0.708 0.65985 0.0
C1224 C 0.89611 0.72266 0.66342 0.0
H1225 H 0.89383 0.6537 0.73691 0.0
H1226 H 0.89593 0.67412 0.7202 0.0
C1227 C 0.89574 0.73324 0.65262 0.0
C1228 C 0.89425 0.69667 0.6711 0.0
H1229 H 0.8757 0.68339 0.7001 0.0
C1230 C 0.90488 0.68606 0.6703 0.0
C1231 C 0.88367 0.69581 0.68203 0.0
C1232 C 0.87178 0.70671 0.68308 0.0
C1233 C 0.90516 0.67453 0.68012 0.0
C1234 C 0.89437 0.67346 0.69083 0.0
C1235 C 0.88393 0.68425 0.69184 0.0
C1236 C 0.89348 0.66104 0.70086 0.0
C1237 C 0.91705 0.66364 0.67901 0.0
C1238 C 0.89127 0.64696 0.69549 0.0
C1239 C 0.89008 0.63527 0.705 0.0
C1240 C 0.89098 0.63751 0.72003 0.0
C1241 C 0.89312 0.65164 0.72537 0.0
C1242 C 0.89431 0.66331 0.71586 0.0
H1243 H 0.92648 0.66811 0.67309 0.0
H1244 H 0.9206 0.66008 0.68991 0.0
H1245 H 0.91308 0.65398 0.67298 0.0
H1246 H 0.89029 0.64503 0.68396 0.0
H1247 H 0.88837 0.62451 0.70058 0.0
H1248 H 0.27148 0.34699 0.10335 0.0
H1249 H 0.2929 0.33217 0.1016 0.0
H1250 H 0.31948 0.37069 0.1005 0.0
H1251 H 0.298 0.3857 0.10238 0.0
H1252 H 0.31413 0.33243 0.07941 0.0
H1253 H 0.33685 0.34627 0.13363 0.0
H1254 H 0.31842 0.34983 0.12894 0.0
H1255 H 0.33256 0.36109 0.12187 0.0
C1256 C 0.28187 0.35235 0.10275 0.0
C1257 C 0.28305 0.36753 0.10307 0.0
C1258 C 0.2941 0.34385 0.10173 0.0
C1259 C 0.30777 0.35033 0.10106 0.0
C1260 C 0.30903 0.36548 0.10121 0.0
H1261 H 0.38818 0.30065 0.10238 0.0
H1262 H 0.37181 0.32122 0.10022 0.0
C1263 C 0.29675 0.37403 0.10223 0.0
C1264 C 0.32056 0.34102 0.10016 0.0
H1265 H 0.34907 0.32894 0.1198 0.0
C1266 C 0.32188 0.33178 0.08816 0.0
C1267 C 0.3307 0.34029 0.11155 0.0
C1268 C 0.3296 0.34981 0.1248 0.0
C1269 C 0.33277 0.32146 0.08747 0.0
C1270 C 0.34245 0.32022 0.09919 0.0
C1271 C 0.3416 0.32993 0.11086 0.0
C1272 C 0.35251 0.30797 0.10018 0.0
C1273 C 0.33366 0.31178 0.07432 0.0
C1274 C 0.34703 0.29381 0.10108 0.0
C1275 C 0.35628 0.28213 0.10236 0.0
C1276 C 0.37122 0.28437 0.10282 0.0
C1277 C 0.37672 0.29859 0.102 0.0
C1278 C 0.36741 0.31033 0.10077 0.0
H1279 H 0.32857 0.31683 0.06471 0.0
H1280 H 0.34498 0.30925 0.07166 0.0
H1281 H 0.32788 0.30146 0.07655 0.0
H1282 H 0.33555 0.29179 0.10093 0.0
H1283 H 0.35167 0.27133 0.10303 0.0
H1284 H 0.35102 0.73428 0.89135 0.0
H1285 H 0.33131 0.71655 0.89216 0.0
H1286 H 0.36166 0.68184 0.88859 0.0
H1287 H 0.38143 0.69949 0.88764 0.0
H1288 H 0.33813 0.68007 0.86901 0.0
H1289 H 0.32034 0.68916 0.92577 0.0
H1290 H 0.32179 0.70512 0.91475 0.0
H1291 H 0.33765 0.69521 0.9192 0.0
C1292 C 0.3535 0.72287 0.89082 0.0
C1293 C 0.36775 0.71825 0.88944 0.0
C1294 C 0.34224 0.71277 0.89136 0.0
C1295 C 0.34508 0.69791 0.89061 0.0
C1296 C 0.35929 0.69327 0.88925 0.0
H1297 H 0.29689 0.6179 0.88828 0.0
H1298 H 0.31519 0.63704 0.88831 0.0
C1299 C 0.37055 0.70336 0.88872 0.0
C1300 C 0.3332 0.68718 0.89065 0.0
H1301 H 0.30615 0.67322 0.91145 0.0
C1302 C 0.33115 0.67854 0.87829 0.0
C1303 C 0.32407 0.68534 0.90275 0.0
C1304 C 0.32609 0.6941 0.91643 0.0
C1305 C 0.32015 0.66808 0.87767 0.0
C1306 C 0.31118 0.66605 0.88986 0.0
C1307 C 0.31308 0.67483 0.90215 0.0
C1308 C 0.30005 0.65452 0.89019 0.0
C1309 C 0.31813 0.65939 0.86393 0.0
C1310 C 0.28552 0.65803 0.89166 0.0
C1311 C 0.27502 0.64709 0.89173 0.0
C1312 C 0.27894 0.63251 0.89041 0.0
C1313 C 0.29353 0.62904 0.88922 0.0
C1314 C 0.304 0.63996 0.88916 0.0
H1315 H 0.32317 0.66486 0.85448 0.0
H1316 H 0.32326 0.64869 0.86523 0.0
H1317 H 0.30656 0.65754 0.86158 0.0
H1318 H 0.2823 0.66922 0.89257 0.0
H1319 H 0.26385 0.65006 0.89272 0.0
H1320 H 0.26468 0.34535 0.8926 0.0
H1321 H 0.28552 0.32958 0.89311 0.0
H1322 H 0.31365 0.36692 0.89552 0.0
H1323 H 0.29279 0.38285 0.89513 0.0
H1324 H 0.3086 0.33001 0.87265 0.0
H1325 H 0.32715 0.34047 0.92914 0.0
H1326 H 0.30927 0.34481 0.92311 0.0
H1327 H 0.32423 0.35602 0.91787 0.0
C1328 C 0.27528 0.35023 0.89332 0.0
C1329 C 0.2771 0.36534 0.89384 0.0
C1330 C 0.28717 0.3412 0.8936 0.0
C1331 C 0.30108 0.3471 0.89449 0.0
C1332 C 0.30297 0.36218 0.89506 0.0
H1333 H 0.38148 0.29813 0.89675 0.0
H1334 H 0.36449 0.31826 0.89638 0.0
C1335 C 0.29106 0.37125 0.89476 0.0
C1336 C 0.31353 0.33733 0.89427 0.0
H1337 H 0.34046 0.32393 0.91524 0.0
C1338 C 0.31563 0.32875 0.88192 0.0
C1339 C 0.32274 0.33584 0.90634 0.0
C1340 C 0.32076 0.34468 0.91994 0.0
C1341 C 0.32651 0.31842 0.88143 0.0
C1342 C 0.33533 0.31648 0.89372 0.0
C1343 C 0.33362 0.32545 0.90587 0.0
C1344 C 0.34565 0.30448 0.89447 0.0
C1345 C 0.32838 0.30958 0.86781 0.0
C1346 C 0.34061 0.29013 0.89386 0.0
C1347 C 0.35021 0.27869 0.89407 0.0
C1348 C 0.36506 0.28137 0.89498 0.0
C1349 C 0.3701 0.29575 0.89599 0.0
C1350 C 0.36043 0.30724 0.89578 0.0
H1351 H 0.32376 0.31509 0.85822 0.0
H1352 H 0.3399 0.30745 0.8657 0.0
H1353 H 0.32273 0.29902 0.86908 0.0
H1354 H 0.32921 0.28779 0.89314 0.0
H1355 H 0.34597 0.26774 0.89339 0.0
H1356 H 0.64952 0.26487 0.89077 0.0
H1357 H 0.66966 0.28213 0.89138 0.0
H1358 H 0.64032 0.3174 0.88562 0.0
H1359 H 0.62013 0.30022 0.88488 0.0
H1360 H 0.66435 0.31769 0.86662 0.0
H1361 H 0.68054 0.31081 0.92416 0.0
H1362 H 0.67891 0.29442 0.91373 0.0
H1363 H 0.66324 0.30493 0.91738 0.0
C1364 C 0.64736 0.27631 0.88971 0.0
C1365 C 0.63326 0.28121 0.88778 0.0
C1366 C 0.65886 0.28615 0.89014 0.0
C1367 C 0.65643 0.30103 0.88871 0.0
C1368 C 0.64238 0.30594 0.8868 0.0
H1369 H 0.70576 0.38015 0.88479 0.0
H1370 H 0.68733 0.36114 0.8847 0.0
C1371 C 0.63087 0.29613 0.88639 0.0
C1372 C 0.66857 0.31148 0.88865 0.0
H1373 H 0.6953 0.32592 0.9097 0.0
C1374 C 0.67112 0.3195 0.87603 0.0
C1375 C 0.67743 0.3137 0.90092 0.0
C1376 C 0.67488 0.30561 0.91488 0.0
C1377 C 0.68232 0.32975 0.87533 0.0
C1378 C 0.69099 0.3322 0.8877 0.0
C1379 C 0.68861 0.324 0.90025 0.0
C1380 C 0.70223 0.34365 0.88797 0.0
C1381 C 0.68484 0.33777 0.86133 0.0
C1382 C 0.71666 0.34014 0.89025 0.0
C1383 C 0.72724 0.35101 0.89039 0.0
C1384 C 0.72349 0.36556 0.88834 0.0
C1385 C 0.70899 0.36903 0.8863 0.0
C1386 C 0.69846 0.35818 0.88617 0.0
H1387 H 0.68009 0.33187 0.85194 0.0
H1388 H 0.67971 0.34853 0.86198 0.0
H1389 H 0.69649 0.33947 0.85932 0.0
H1390 H 0.71975 0.32898 0.89176 0.0
H1391 H 0.73833 0.34803 0.89205 0.0
H1392 H 0.73323 0.65338 0.89408 0.0
H1393 H 0.71249 0.66919 0.89535 0.0
H1394 H 0.68416 0.63194 0.89571 0.0
H1395 H 0.70497 0.61592 0.89437 0.0
H1396 H 0.67628 0.65457 0.87592 0.0
H1397 H 0.68685 0.67553 0.93125 0.0
H1398 H 0.70221 0.67665 0.91957 0.0
H1399 H 0.69491 0.6592 0.92438 0.0
C1400 C 0.72261 0.64851 0.89446 0.0
C1401 C 0.72074 0.6334 0.89419 0.0
C1402 C 0.71077 0.65757 0.89526 0.0
C1403 C 0.69683 0.65171 0.89586 0.0
C1404 C 0.69486 0.63664 0.89537 0.0
H1405 H 0.6172 0.70254 0.8947 0.0
H1406 H 0.63342 0.68183 0.89566 0.0
C1407 C 0.70674 0.62753 0.89461 0.0
C1408 C 0.68442 0.66151 0.89666 0.0
H1409 H 0.67083 0.68931 0.91658 0.0
C1410 C 0.67489 0.66201 0.8849 0.0
C1411 C 0.68264 0.67112 0.90845 0.0
C1412 C 0.69211 0.67054 0.9217 0.0
C1413 C 0.66413 0.67251 0.88423 0.0
C1414 C 0.66282 0.68258 0.89571 0.0
C1415 C 0.67194 0.68163 0.90775 0.0
C1416 C 0.65284 0.69488 0.89497 0.0
C1417 C 0.65471 0.67324 0.87095 0.0
C1418 C 0.65841 0.70904 0.89447 0.0
C1419 C 0.64923 0.72084 0.89396 0.0
C1420 C 0.63427 0.71871 0.89403 0.0
C1421 C 0.62868 0.70451 0.89458 0.0
C1422 C 0.63791 0.69267 0.89507 0.0
H1423 H 0.65863 0.66619 0.86206 0.0
H1424 H 0.64366 0.66967 0.87381 0.0
H1425 H 0.65415 0.68453 0.86693 0.0
H1426 H 0.66991 0.71095 0.89442 0.0
H1427 H 0.65388 0.73163 0.89357 0.0
H1428 H 0.61213 0.69622 0.10448 0.0
H1429 H 0.62865 0.67567 0.10504 0.0
H1430 H 0.66446 0.70526 0.1101 0.0
H1431 H 0.64818 0.7257 0.10961 0.0
H1432 H 0.65319 0.67036 0.08639 0.0
H1433 H 0.66854 0.67642 0.14412 0.0
H1434 H 0.65263 0.6845 0.13661 0.0
H1435 H 0.66992 0.69298 0.13406 0.0
C1436 C 0.62353 0.69831 0.10573 0.0
C1437 C 0.62885 0.71257 0.10709 0.0
C1438 C 0.63292 0.68659 0.10604 0.0
C1439 C 0.64772 0.68897 0.10784 0.0
C1440 C 0.65304 0.70319 0.10897 0.0
H1441 H 0.72881 0.64943 0.10886 0.0
H1442 H 0.70749 0.6645 0.10921 0.0
C1443 C 0.64371 0.71486 0.10862 0.0
C1444 C 0.65782 0.67675 0.10835 0.0
H1445 H 0.68416 0.66228 0.1293 0.0
C1446 C 0.65981 0.66837 0.09583 0.0
C1447 C 0.66636 0.6742 0.12073 0.0
C1448 C 0.66419 0.6824 0.1347 0.0
C1449 C 0.67075 0.65805 0.09509 0.0
C1450 C 0.67975 0.65602 0.10725 0.0
C1451 C 0.67729 0.66394 0.11997 0.0
C1452 C 0.69248 0.64662 0.10667 0.0
C1453 C 0.67311 0.64995 0.0811 0.0
C1454 C 0.69108 0.63155 0.10518 0.0
C1455 C 0.70329 0.62287 0.10498 0.0
C1456 C 0.71706 0.62915 0.10632 0.0
C1457 C 0.71837 0.64425 0.1078 0.0
C1458 C 0.7062 0.65288 0.10801 0.0
H1459 H 0.6667 0.65442 0.07204 0.0
H1460 H 0.68464 0.65029 0.07806 0.0
H1461 H 0.66994 0.63843 0.08257 0.0
H1462 H 0.68056 0.62651 0.10433 0.0
H1463 H 0.70194 0.61125 0.10386 0.0
H1464 H 0.38009 0.70419 0.10127 0.0
H1465 H 0.36194 0.68475 0.10121 0.0
H1466 H 0.32839 0.71647 0.10005 0.0
H1467 H 0.34639 0.73592 0.10001 0.0
H1468 H 0.34003 0.68095 0.1224 0.0
H1469 H 0.31719 0.68801 0.06734 0.0
H1470 H 0.33442 0.69553 0.0726 0.0
H1471 H 0.31815 0.70429 0.07801 0.0
C1472 C 0.36885 0.70701 0.10084 0.0
C1473 C 0.36466 0.72158 0.10063 0.0
C1474 C 0.35851 0.69591 0.10083 0.0
C1475 C 0.34384 0.69919 0.10045 0.0
C1476 C 0.33965 0.71371 0.10007 0.0
H1477 H 0.26372 0.65093 0.10588 0.0
H1478 H 0.28255 0.66957 0.10386 0.0
C1479 C 0.34996 0.7248 0.10013 0.0
C1480 C 0.33287 0.6875 0.10127 0.0
H1481 H 0.30433 0.67243 0.0833 0.0
C1482 C 0.33229 0.67899 0.11381 0.0
C1483 C 0.32275 0.68508 0.09008 0.0
C1484 C 0.32318 0.69361 0.07618 0.0
C1485 C 0.32163 0.66829 0.11562 0.0
C1486 C 0.31148 0.66587 0.10444 0.0
C1487 C 0.31211 0.67434 0.09186 0.0
C1488 C 0.30012 0.65457 0.1056 0.0
C1489 C 0.32109 0.65997 0.12966 0.0
C1490 C 0.30377 0.63996 0.10706 0.0
C1491 C 0.29307 0.62933 0.10829 0.0
C1492 C 0.2785 0.6331 0.10794 0.0
C1493 C 0.27486 0.64771 0.10624 0.0
C1494 C 0.28559 0.65836 0.10506 0.0
H1495 H 0.32703 0.6657 0.13845 0.0
H1496 H 0.30984 0.65815 0.13323 0.0
H1497 H 0.32612 0.64926 0.12805 0.0
H1498 H 0.31492 0.63676 0.10718 0.0
H1499 H 0.29622 0.61815 0.10946 0.0
H1500 H 0.73544 0.34489 0.10465 0.0
H1501 H 0.7167 0.32611 0.10283 0.0
H1502 H 0.68422 0.35843 0.10885 0.0
H1503 H 0.70283 0.37723 0.11061 0.0
H1504 H 0.69531 0.31922 0.12407 0.0
H1505 H 0.67124 0.33647 0.07188 0.0
H1506 H 0.68885 0.34243 0.07773 0.0
H1507 H 0.6731 0.35046 0.08535 0.0
C1508 C 0.72431 0.34799 0.10553 0.0
C1509 C 0.7206 0.36253 0.10773 0.0
C1510 C 0.71363 0.33727 0.10449 0.0
C1511 C 0.69909 0.34093 0.1055 0.0
C1512 C 0.69537 0.35542 0.10777 0.0
H1513 H 0.61932 0.29071 0.10321 0.0
H1514 H 0.63745 0.31016 0.1043 0.0
C1515 C 0.70602 0.36613 0.10886 0.0
C1516 C 0.68781 0.32952 0.10465 0.0
H1517 H 0.65904 0.31784 0.08467 0.0
C1518 C 0.6874 0.31887 0.11543 0.0
C1519 C 0.67747 0.32919 0.09343 0.0
C1520 C 0.67769 0.34017 0.08135 0.0
C1521 C 0.67682 0.30794 0.11539 0.0
C1522 C 0.66656 0.30749 0.10406 0.0
C1523 C 0.66691 0.31822 0.09333 0.0
C1524 C 0.65558 0.29579 0.10304 0.0
C1525 C 0.67654 0.29715 0.12762 0.0
C1526 C 0.65977 0.28133 0.10165 0.0
C1527 C 0.64948 0.27023 0.10108 0.0
C1528 C 0.63478 0.2734 0.10173 0.0
C1529 C 0.63057 0.28793 0.10272 0.0
C1530 C 0.6409 0.29904 0.10335 0.0
H1531 H 0.68234 0.30133 0.13732 0.0
H1532 H 0.66535 0.29435 0.13078 0.0
H1533 H 0.68189 0.28708 0.12406 0.0
H1534 H 0.67103 0.27861 0.10104 0.0
H1535 H 0.65308 0.25916 0.10018 0.0
H1536 H 0.59908 0.84532 0.7631 0.0
H1537 H 0.60019 0.82806 0.78299 0.0
H1538 H 0.60378 0.86329 0.8136 0.0
H1539 H 0.60242 0.88074 0.79368 0.0
H1540 H 0.62286 0.8252 0.80203 0.0
H1541 H 0.57246 0.83757 0.83152 0.0
H1542 H 0.5758 0.84365 0.81325 0.0
H1543 H 0.58412 0.85285 0.8283 0.0
C1544 C 0.59995 0.84944 0.77407 0.0
C1545 C 0.60067 0.8644 0.77683 0.0
C1546 C 0.6006 0.83954 0.78542 0.0
C1547 C 0.60195 0.84439 0.79976 0.0
C1548 C 0.60247 0.85933 0.80262 0.0
H1549 H 0.61362 0.79644 0.87993 0.0
H1550 H 0.61142 0.81544 0.86168 0.0
C1551 C 0.60176 0.86927 0.79123 0.0
C1552 C 0.6036 0.83369 0.81154 0.0
H1553 H 0.58801 0.82066 0.8424 0.0
C1554 C 0.61523 0.82419 0.81085 0.0
C1555 C 0.59367 0.83247 0.82306 0.0
C1556 C 0.58073 0.84208 0.82408 0.0
C1557 C 0.6172 0.81348 0.82136 0.0
C1558 C 0.60716 0.81211 0.83275 0.0
C1559 C 0.59566 0.82175 0.8336 0.0
C1560 C 0.60834 0.80059 0.84376 0.0
C1561 C 0.63011 0.80382 0.82028 0.0
C1562 C 0.60717 0.78596 0.83972 0.0
C1563 C 0.60842 0.77508 0.85011 0.0
C1564 C 0.61082 0.77867 0.86471 0.0
C1565 C 0.61183 0.79334 0.86875 0.0
C1566 C 0.61055 0.80421 0.85836 0.0
H1567 H 0.63855 0.80854 0.81317 0.0
H1568 H 0.63481 0.80183 0.83114 0.0
H1569 H 0.62675 0.79322 0.81561 0.0
H1570 H 0.60522 0.78297 0.82853 0.0
H1571 H 0.6075 0.76388 0.84669 0.0
H1572 H 0.2343 0.60047 0.84775 0.0
H1573 H 0.21421 0.60078 0.83077 0.0
H1574 H 0.18442 0.60076 0.86648 0.0
H1575 H 0.20453 0.6006 0.88364 0.0
H1576 H 0.19092 0.58092 0.82769 0.0
H1577 H 0.17293 0.63631 0.8422 0.0
H1578 H 0.1903 0.62954 0.84735 0.0
H1579 H 0.17451 0.62386 0.85703 0.0
C1580 C 0.22348 0.60052 0.85202 0.0
C1581 C 0.22099 0.60061 0.86704 0.0
C1582 C 0.21202 0.60066 0.84229 0.0
C1583 C 0.19786 0.60098 0.84738 0.0
C1584 C 0.19529 0.60076 0.86236 0.0
H1585 H 0.11706 0.60877 0.8009 0.0
H1586 H 0.13551 0.60586 0.81949 0.0
C1587 C 0.20678 0.6006 0.87213 0.0
C1588 C 0.18587 0.60168 0.83691 0.0
H1589 H 0.15913 0.62352 0.82486 0.0
C1590 C 0.18393 0.59021 0.82708 0.0
C1591 C 0.17681 0.61382 0.83617 0.0
C1592 C 0.17875 0.62666 0.84615 0.0
C1593 C 0.17311 0.59053 0.81651 0.0
C1594 C 0.16419 0.60278 0.81561 0.0
C1595 C 0.166 0.61416 0.82558 0.0
C1596 C 0.15305 0.60414 0.80427 0.0
C1597 C 0.1712 0.57769 0.80652 0.0
C1598 C 0.15683 0.60428 0.78956 0.0
C1599 C 0.14632 0.60591 0.77891 0.0
C1600 C 0.13186 0.60755 0.78281 0.0
C1601 C 0.12812 0.60751 0.79756 0.0
C1602 C 0.13863 0.60585 0.80819 0.0
H1603 H 0.17605 0.56778 0.81111 0.0
H1604 H 0.15967 0.57548 0.8043 0.0
H1605 H 0.1766 0.58003 0.79606 0.0
H1606 H 0.16795 0.6033 0.78632 0.0
H1607 H 0.14952 0.60597 0.76763 0.0
H1608 H 0.39641 0.15427 0.75845 0.0
H1609 H 0.39751 0.1744 0.77582 0.0
H1610 H 0.39234 0.14428 0.81108 0.0
H1611 H 0.39136 0.12416 0.79388 0.0
H1612 H 0.37627 0.18207 0.79621 0.0
H1613 H 0.42762 0.1686 0.82309 0.0
H1614 H 0.42235 0.16103 0.8058 0.0
H1615 H 0.4151 0.15369 0.82229 0.0
C1616 C 0.3956 0.15195 0.76992 0.0
C1617 C 0.39385 0.13766 0.77483 0.0
C1618 C 0.39623 0.16344 0.7798 0.0
C1619 C 0.39523 0.16077 0.79471 0.0
C1620 C 0.39343 0.14652 0.79962 0.0
H1621 H 0.3872 0.2061 0.8748 0.0
H1622 H 0.38924 0.18888 0.85479 0.0
C1623 C 0.39279 0.13505 0.78978 0.0
C1624 C 0.39543 0.17288 0.8052 0.0
H1625 H 0.41272 0.1856 0.83532 0.0
C1626 C 0.38433 0.18299 0.80465 0.0
C1627 C 0.40599 0.17401 0.81616 0.0
C1628 C 0.41852 0.16384 0.81683 0.0
C1629 C 0.38315 0.19387 0.81521 0.0
C1630 C 0.39347 0.19471 0.82643 0.0
C1631 C 0.4048 0.18485 0.82672 0.0
C1632 C 0.39232 0.20529 0.83838 0.0
C1633 C 0.37056 0.20398 0.81464 0.0
C1634 C 0.39352 0.2202 0.83575 0.0
C1635 C 0.39234 0.23008 0.84717 0.0
C1636 C 0.39001 0.22516 0.86138 0.0
C1637 C 0.38896 0.21021 0.86397 0.0
C1638 C 0.39014 0.20037 0.85256 0.0
H1639 H 0.36211 0.20008 0.80703 0.0
H1640 H 0.36574 0.20529 0.82555 0.0
H1641 H 0.37432 0.21479 0.81094 0.0
H1642 H 0.39543 0.22419 0.82489 0.0
H1643 H 0.39327 0.24155 0.84488 0.0
H1644 H 0.85045 0.39491 0.76885 0.0
H1645 H 0.83419 0.39564 0.78952 0.0
H1646 H 0.87033 0.39661 0.81873 0.0
H1647 H 0.8868 0.39599 0.79799 0.0
H1648 H 0.83308 0.37474 0.81215 0.0
H1649 H 0.84471 0.43035 0.83287 0.0
H1650 H 0.84947 0.42474 0.81476 0.0
H1651 H 0.85981 0.41874 0.82996 0.0
C1652 C 0.85498 0.39538 0.77965 0.0
C1653 C 0.86992 0.39539 0.78179 0.0
C1654 C 0.84566 0.39579 0.79145 0.0
C1655 C 0.85106 0.39629 0.80563 0.0
C1656 C 0.86596 0.39644 0.80785 0.0
H1657 H 0.79843 0.39786 0.88504 0.0
H1658 H 0.81935 0.39728 0.86885 0.0
C1659 C 0.87534 0.39602 0.79601 0.0
C1660 C 0.84091 0.396 0.81797 0.0
H1661 H 0.82715 0.41664 0.84528 0.0
C1662 C 0.83186 0.38385 0.81947 0.0
C1663 C 0.83945 0.40785 0.82757 0.0
C1664 C 0.84879 0.42123 0.82624 0.0
C1665 C 0.82112 0.38338 0.83007 0.0
C1666 C 0.81921 0.39549 0.83925 0.0
C1667 C 0.82864 0.4074 0.83818 0.0
C1668 C 0.80677 0.39636 0.84916 0.0
C1669 C 0.81175 0.37 0.83124 0.0
C1670 C 0.79284 0.39636 0.84341 0.0
C1671 C 0.78095 0.39669 0.85256 0.0
C1672 C 0.78274 0.3971 0.86767 0.0
C1673 C 0.79672 0.39748 0.87344 0.0
C1674 C 0.80866 0.39717 0.86423 0.0
H1675 H 0.81709 0.36037 0.82654 0.0
H1676 H 0.80896 0.36768 0.8427 0.0
H1677 H 0.80164 0.37172 0.82516 0.0
H1678 H 0.79116 0.39603 0.8318 0.0
H1679 H 0.77034 0.3965 0.84774 0.0
H1680 H 0.60653 0.23114 0.14961 0.0
H1681 H 0.60464 0.21274 0.16855 0.0
H1682 H 0.60615 0.1791 0.13612 0.0
H1683 H 0.60827 0.19743 0.11712 0.0
H1684 H 0.58378 0.19102 0.17228 0.0
H1685 H 0.63791 0.16765 0.16441 0.0
H1686 H 0.63286 0.18482 0.15677 0.0
H1687 H 0.62698 0.16819 0.14838 0.0
C1688 C 0.6065 0.21982 0.14651 0.0
C1689 C 0.60765 0.21572 0.1319 0.0
C1690 C 0.6054 0.20933 0.15734 0.0
C1691 C 0.60547 0.19456 0.15375 0.0
C1692 C 0.60637 0.19043 0.13914 0.0
H1693 H 0.60203 0.11716 0.20772 0.0
H1694 H 0.60196 0.13397 0.18723 0.0
C1695 C 0.60751 0.20092 0.1283 0.0
C1696 C 0.60446 0.18353 0.16533 0.0
H1697 H 0.62263 0.15588 0.18121 0.0
C1698 C 0.59227 0.18334 0.17424 0.0
C1699 C 0.61554 0.1735 0.16782 0.0
C1700 C 0.62913 0.17357 0.15894 0.0
C1701 C 0.59083 0.17333 0.18558 0.0
C1702 C 0.60199 0.16343 0.18818 0.0
C1703 C 0.61409 0.16348 0.17915 0.0
C1704 C 0.60156 0.15327 0.20055 0.0
C1705 C 0.57733 0.17336 0.19459 0.0
C1706 C 0.60148 0.15857 0.2148 0.0
C1707 C 0.60154 0.14903 0.22651 0.0
C1708 C 0.60175 0.13399 0.22417 0.0
C1709 C 0.60183 0.12869 0.20987 0.0
C1710 C 0.6018 0.13826 0.19816 0.0
H1711 H 0.56838 0.17878 0.18889 0.0
H1712 H 0.57389 0.16215 0.19736 0.0
H1713 H 0.57943 0.17932 0.20484 0.0
H1714 H 0.60157 0.17012 0.21688 0.0
H1715 H 0.60154 0.15345 0.23738 0.0
H1716 H 0.88012 0.61288 0.20055 0.0
H1717 H 0.85994 0.61171 0.18355 0.0
H1718 H 0.83081 0.60381 0.21901 0.0
H1719 H 0.85087 0.60517 0.23609 0.0
H1720 H 0.84028 0.58888 0.17859 0.0
H1721 H 0.81293 0.63835 0.19821 0.0
H1722 H 0.83124 0.63427 0.20294 0.0
H1723 H 0.81663 0.62518 0.21194 0.0
C1724 C 0.86941 0.61093 0.20472 0.0
C1725 C 0.86704 0.60922 0.21964 0.0
C1726 C 0.85791 0.61025 0.19501 0.0
C1727 C 0.84388 0.6079 0.20007 0.0
C1728 C 0.84153 0.60593 0.21493 0.0
H1729 H 0.76189 0.60347 0.15406 0.0
H1730 H 0.7806 0.60225 0.17273 0.0
C1731 C 0.853 0.60664 0.22465 0.0
C1732 C 0.83175 0.60738 0.18974 0.0
H1733 H 0.80083 0.62445 0.18034 0.0
C1734 C 0.83165 0.59665 0.17896 0.0
C1735 C 0.82049 0.6175 0.19033 0.0
C1736 C 0.82032 0.62956 0.20139 0.0
C1737 C 0.82056 0.59577 0.1687 0.0
C1738 C 0.80943 0.60602 0.16915 0.0
C1739 C 0.80938 0.61659 0.18008 0.0
C1740 C 0.79814 0.60643 0.15792 0.0
C1741 C 0.8208 0.58383 0.15752 0.0
C1742 C 0.80184 0.60937 0.14351 0.0
C1743 C 0.79123 0.61011 0.13288 0.0
C1744 C 0.77671 0.60798 0.1365 0.0
C1745 C 0.773 0.60512 0.15097 0.0
C1746 C 0.78365 0.60442 0.16162 0.0
H1747 H 0.82767 0.57472 0.16099 0.0
H1748 H 0.80981 0.57959 0.15532 0.0
H1749 H 0.82524 0.58818 0.14724 0.0
H1750 H 0.81294 0.61125 0.1405 0.0
H1751 H 0.79442 0.61241 0.12184 0.0
H1752 H 0.37878 0.76302 0.14978 0.0
H1753 H 0.37883 0.78048 0.16977 0.0
H1754 H 0.40482 0.80981 0.14423 0.0
H1755 H 0.40365 0.7929 0.12385 0.0
H1756 H 0.39738 0.79153 0.18634 0.0
H1757 H 0.37499 0.83704 0.15527 0.0
H1758 H 0.37613 0.8191 0.14775 0.0
H1759 H 0.39148 0.8312 0.1474 0.0
C1760 C 0.3844 0.77327 0.14845 0.0
C1761 C 0.39103 0.77675 0.13527 0.0
C1762 C 0.38447 0.78323 0.15988 0.0
C1763 C 0.39151 0.79669 0.15843 0.0
C1764 C 0.39878 0.79981 0.14545 0.0
H1765 H 0.41048 0.85165 0.23393 0.0
H1766 H 0.41123 0.83288 0.21511 0.0
C1767 C 0.39825 0.79008 0.13385 0.0
C1768 C 0.39121 0.8074 0.17051 0.0
H1769 H 0.38503 0.84289 0.17827 0.0
C1770 C 0.39452 0.80273 0.18459 0.0
C1771 C 0.38725 0.82199 0.16835 0.0
C1772 C 0.38211 0.82757 0.1539 0.0
C1773 C 0.39399 0.8122 0.19652 0.0
C1774 C 0.39082 0.82697 0.19421 0.0
C1775 C 0.38757 0.83162 0.18011 0.0
C1776 C 0.39031 0.8378 0.20616 0.0
C1777 C 0.39635 0.80606 0.21145 0.0
C1778 C 0.37857 0.84717 0.2072 0.0
C1779 C 0.37846 0.85823 0.2175 0.0
C1780 C 0.38987 0.85986 0.22728 0.0
C1781 C 0.40144 0.85034 0.22663 0.0
C1782 C 0.40181 0.83956 0.21595 0.0
H1783 H 0.39369 0.79431 0.2118 0.0
H1784 H 0.40784 0.80734 0.21442 0.0
H1785 H 0.38975 0.81166 0.2197 0.0
H1786 H 0.36955 0.84609 0.19984 0.0
H1787 H 0.36946 0.86554 0.21782 0.0
H1788 H 0.23933 0.38996 0.15438 0.0
H1789 H 0.22106 0.3899 0.17353 0.0
H1790 H 0.18815 0.38145 0.14162 0.0
H1791 H 0.20623 0.38129 0.12256 0.0
H1792 H 0.19676 0.40775 0.17606 0.0
H1793 H 0.18096 0.34984 0.17181 0.0
H1794 H 0.19732 0.35698 0.164 0.0
H1795 H 0.18047 0.35916 0.15479 0.0
C1796 C 0.22821 0.388 0.15149 0.0
C1797 C 0.22422 0.38555 0.137 0.0
C1798 C 0.2178 0.38799 0.16241 0.0
C1799 C 0.20331 0.38543 0.15899 0.0
C1800 C 0.19932 0.38313 0.14452 0.0
H1801 H 0.12097 0.38446 0.20081 0.0
H1802 H 0.14133 0.38444 0.18406 0.0
C1803 C 0.20967 0.38313 0.13363 0.0
C1804 C 0.19219 0.38554 0.17041 0.0
H1805 H 0.16512 0.36512 0.18502 0.0
C1806 C 0.18993 0.3984 0.17816 0.0
C1807 C 0.18333 0.3733 0.17309 0.0
C1808 C 0.18571 0.35899 0.16559 0.0
C1809 C 0.17867 0.3995 0.18818 0.0
C1810 C 0.1696 0.38737 0.19058 0.0
C1811 C 0.17205 0.37443 0.18305 0.0
C1812 C 0.15736 0.38789 0.20073 0.0
C1813 C 0.17626 0.41376 0.19577 0.0
C1814 C 0.15968 0.38977 0.21562 0.0
C1815 C 0.14809 0.38977 0.22521 0.0
C1816 C 0.134 0.38782 0.22004 0.0
C1817 C 0.1317 0.38599 0.2051 0.0
C1818 C 0.1433 0.38597 0.19553 0.0
H1819 H 0.18218 0.4228 0.19045 0.0
H1820 H 0.16466 0.41636 0.19602 0.0
H1821 H 0.18009 0.41299 0.20712 0.0
H1822 H 0.17047 0.39103 0.21985 0.0
H1823 H 0.15019 0.39116 0.23667 0.0
H1824 H 0.76523 0.60733 0.84585 0.0
H1825 H 0.78401 0.60501 0.82744 0.0
H1826 H 0.81649 0.61134 0.86024 0.0
H1827 H 0.79784 0.61363 0.87869 0.0
H1828 H 0.80597 0.62627 0.82096 0.0
H1829 H 0.82855 0.57379 0.8388 0.0
H1830 H 0.81098 0.5798 0.84425 0.0
H1831 H 0.82676 0.58735 0.85267 0.0
C1832 C 0.77638 0.60818 0.84913 0.0
C1833 C 0.78008 0.61063 0.8637 0.0
C1834 C 0.78707 0.60685 0.83863 0.0
C1835 C 0.8016 0.6078 0.84255 0.0
C1836 C 0.80532 0.61031 0.85706 0.0
H1837 H 0.88085 0.60482 0.79254 0.0
H1838 H 0.86313 0.60569 0.81217 0.0
C1839 C 0.79466 0.6117 0.86756 0.0
C1840 C 0.81286 0.60673 0.83137 0.0
H1841 H 0.84092 0.58615 0.82006 0.0
C1842 C 0.81359 0.61748 0.82071 0.0
C1843 C 0.82283 0.59532 0.83122 0.0
C1844 C 0.82224 0.58332 0.84227 0.0
C1845 C 0.82413 0.61719 0.8099 0.0
C1846 C 0.83397 0.60565 0.80959 0.0
C1847 C 0.83334 0.59497 0.82035 0.0
C1848 C 0.84471 0.60431 0.7979 0.0
C1849 C 0.82477 0.62937 0.79905 0.0
C1850 C 0.84019 0.60284 0.78349 0.0
C1851 C 0.85023 0.60241 0.77232 0.0
C1852 C 0.865 0.60329 0.77537 0.0
C1853 C 0.86954 0.60417 0.78987 0.0
C1854 C 0.85945 0.60467 0.80107 0.0
H1855 H 0.81931 0.63919 0.80314 0.0
H1856 H 0.83605 0.63228 0.79634 0.0
H1857 H 0.81926 0.62588 0.78895 0.0
H1858 H 0.82887 0.60219 0.78086 0.0
H1859 H 0.84639 0.60156 0.76127 0.0
H1860 H 0.39327 0.84434 0.76171 0.0
H1861 H 0.39584 0.82566 0.78035 0.0
H1862 H 0.38947 0.85777 0.81366 0.0
H1863 H 0.38666 0.87636 0.79521 0.0
H1864 H 0.41588 0.82442 0.80311 0.0
H1865 H 0.36013 0.82633 0.82412 0.0
H1866 H 0.36529 0.83432 0.80706 0.0
H1867 H 0.36912 0.84362 0.82378 0.0
C1868 C 0.39232 0.84738 0.77301 0.0
C1869 C 0.38967 0.86178 0.777 0.0
C1870 C 0.39383 0.83672 0.78363 0.0
C1871 C 0.39263 0.84031 0.79836 0.0
C1872 C 0.39014 0.85472 0.80235 0.0
H1873 H 0.39845 0.79193 0.87887 0.0
H1874 H 0.39776 0.81117 0.86064 0.0
C1875 C 0.3886 0.86534 0.79177 0.0
C1876 C 0.39423 0.82909 0.80963 0.0
H1877 H 0.37682 0.81277 0.83783 0.0
C1878 C 0.40732 0.8218 0.81066 0.0
C1879 C 0.38306 0.82578 0.8195 0.0
C1880 C 0.36856 0.83281 0.81852 0.0
C1881 C 0.40961 0.8114 0.82144 0.0
C1882 C 0.39844 0.80811 0.8313 0.0
C1883 C 0.38538 0.81542 0.8303 0.0
C1884 C 0.39984 0.79666 0.84234 0.0
C1885 C 0.424 0.80415 0.82235 0.0
C1886 C 0.40122 0.78218 0.83805 0.0
C1887 C 0.40155 0.7712 0.84839 0.0
C1888 C 0.40049 0.77451 0.86323 0.0
C1889 C 0.39934 0.78906 0.86753 0.0
C1890 C 0.39892 0.80004 0.85714 0.0
H1891 H 0.43245 0.81037 0.81649 0.0
H1892 H 0.42738 0.80283 0.8338 0.0
H1893 H 0.42317 0.79322 0.81736 0.0
H1894 H 0.40169 0.77933 0.82667 0.0
H1895 H 0.40243 0.7601 0.84473 0.0
H1896 H 0.20045 0.38502 0.87655 0.0
H1897 H 0.18222 0.38765 0.8577 0.0
H1898 H 0.21545 0.39406 0.82579 0.0
H1899 H 0.23379 0.39135 0.84459 0.0
H1900 H 0.17806 0.41178 0.83891 0.0
H1901 H 0.19002 0.36113 0.80883 0.0
H1902 H 0.19625 0.36442 0.82709 0.0
H1903 H 0.2052 0.37289 0.81205 0.0
C1904 C 0.20389 0.38693 0.86551 0.0
C1905 C 0.21855 0.38791 0.86202 0.0
C1906 C 0.19346 0.38846 0.85478 0.0
C1907 C 0.19751 0.3909 0.84037 0.0
C1908 C 0.21213 0.39196 0.83684 0.0
H1909 H 0.15146 0.39992 0.75987 0.0
H1910 H 0.1694 0.39941 0.77913 0.0
C1911 C 0.22258 0.39045 0.84758 0.0
C1912 C 0.1864 0.39247 0.82907 0.0
H1913 H 0.17328 0.37692 0.79816 0.0
C1914 C 0.17696 0.40416 0.83 0.0
C1915 C 0.18504 0.38248 0.81752 0.0
C1916 C 0.19457 0.36944 0.81631 0.0
C1917 C 0.16631 0.40628 0.81949 0.0
C1918 C 0.16495 0.39629 0.80792 0.0
C1919 C 0.17438 0.38458 0.80704 0.0
C1920 C 0.15391 0.39775 0.7965 0.0
C1921 C 0.15683 0.41936 0.82066 0.0
C1922 C 0.13924 0.39709 0.79991 0.0
C1923 C 0.12892 0.39745 0.7889 0.0
C1924 C 0.13315 0.39832 0.77433 0.0
C1925 C 0.14785 0.39922 0.77099 0.0
C1926 C 0.15813 0.39892 0.78198 0.0
H1927 H 0.16161 0.4278 0.82785 0.0
H1928 H 0.15487 0.42417 0.80984 0.0
H1929 H 0.14632 0.41603 0.8253 0.0
H1930 H 0.13577 0.3959 0.81104 0.0
H1931 H 0.11767 0.39666 0.79178 0.0
H1932 H 0.60644 0.15154 0.76379 0.0
H1933 H 0.60406 0.17042 0.7823 0.0
H1934 H 0.60861 0.13838 0.81581 0.0
H1935 H 0.61127 0.11953 0.79742 0.0
H1936 H 0.58373 0.17283 0.80412 0.0
H1937 H 0.63854 0.16879 0.82731 0.0
H1938 H 0.63362 0.16063 0.8102 0.0
H1939 H 0.62869 0.15197 0.82692 0.0
C1940 C 0.60702 0.14854 0.7751 0.0
C1941 C 0.60914 0.13408 0.77915 0.0
C1942 C 0.60563 0.15932 0.78565 0.0
C1943 C 0.60638 0.15583 0.80042 0.0
C1944 C 0.60832 0.14136 0.80448 0.0
H1945 H 0.60035 0.20797 0.8791 0.0
H1946 H 0.60079 0.18782 0.86175 0.0
C1947 C 0.60976 0.13059 0.79395 0.0
C1948 C 0.60487 0.16728 0.81156 0.0
H1949 H 0.62223 0.18386 0.83979 0.0
C1950 C 0.59215 0.17527 0.8119 0.0
C1951 C 0.61587 0.1704 0.82172 0.0
C1952 C 0.63001 0.1626 0.82149 0.0
C1953 C 0.5901 0.18626 0.8222 0.0
C1954 C 0.60113 0.18941 0.8323 0.0
C1955 C 0.61377 0.18134 0.83206 0.0
C1956 C 0.60004 0.20149 0.84279 0.0
C1957 C 0.57611 0.19431 0.82231 0.0
C1958 C 0.5995 0.21581 0.83784 0.0
C1959 C 0.5993 0.2273 0.84768 0.0
C1960 C 0.59966 0.22469 0.86267 0.0
C1961 C 0.60002 0.21032 0.86762 0.0
C1962 C 0.60029 0.19881 0.85774 0.0
H1963 H 0.56751 0.18824 0.81646 0.0
H1964 H 0.5725 0.19641 0.83357 0.0
H1965 H 0.57766 0.2049 0.81686 0.0
H1966 H 0.59955 0.21811 0.82634 0.0
H1967 H 0.59906 0.23825 0.84353 0.0
H1968 H 0.88289 0.39656 0.20198 0.0
H1969 H 0.86628 0.39759 0.18138 0.0
H1970 H 0.83037 0.3965 0.2108 0.0
H1971 H 0.84681 0.39558 0.23137 0.0
H1972 H 0.84429 0.37759 0.17353 0.0
H1973 H 0.8222 0.43177 0.18527 0.0
H1974 H 0.83862 0.42543 0.19334 0.0
H1975 H 0.82152 0.41982 0.20056 0.0
C1976 C 0.87146 0.39661 0.20405 0.0
C1977 C 0.86616 0.39607 0.21831 0.0
C1978 C 0.86199 0.39718 0.19228 0.0
C1979 C 0.84711 0.39736 0.19458 0.0
C1980 C 0.84182 0.39668 0.20879 0.0
H1981 H 0.76721 0.39291 0.15074 0.0
H1982 H 0.78775 0.39427 0.16709 0.0
C1983 C 0.85124 0.39608 0.22054 0.0
C1984 C 0.83697 0.39785 0.18221 0.0
H1985 H 0.80871 0.41682 0.16883 0.0
C1986 C 0.83664 0.38626 0.17234 0.0
C1987 C 0.82708 0.40923 0.18065 0.0
C1988 C 0.82743 0.42234 0.19043 0.0
C1989 C 0.82614 0.38536 0.16142 0.0
C1990 C 0.81586 0.39644 0.16027 0.0
C1991 C 0.81656 0.4083 0.16979 0.0
C1992 C 0.80361 0.39545 0.15004 0.0
C1993 C 0.82569 0.37225 0.15163 0.0
C1994 C 0.80572 0.39573 0.13498 0.0
C1995 C 0.79394 0.39494 0.12554 0.0
C1996 C 0.77989 0.39391 0.13104 0.0
C1997 C 0.77788 0.39368 0.14613 0.0
C1998 C 0.78961 0.39448 0.15551 0.0
H1999 H 0.83281 0.36353 0.15554 0.0
H2000 H 0.81457 0.36788 0.15076 0.0
H2001 H 0.82925 0.37543 0.14061 0.0
H2002 H 0.81644 0.39669 0.13054 0.0
H2003 H 0.79583 0.39521 0.11397 0.0
H2004 H 0.60298 0.84791 0.23542 0.0
H2005 H 0.60256 0.82766 0.21828 0.0
H2006 H 0.60899 0.85739 0.18289 0.0
H2007 H 0.60956 0.87773 0.19998 0.0
H2008 H 0.5843 0.82257 0.19421 0.0
H2009 H 0.64148 0.82791 0.17798 0.0
H2010 H 0.63435 0.83665 0.19389 0.0
H2011 H 0.63135 0.84423 0.17625 0.0
C2012 C 0.6043 0.85015 0.22398 0.0
C2013 C 0.60641 0.86439 0.21903 0.0
C2014 C 0.60404 0.83857 0.21423 0.0
C2015 C 0.60596 0.84103 0.19938 0.0
C2016 C 0.60776 0.85527 0.19436 0.0
H2017 H 0.60939 0.78954 0.12201 0.0
H2018 H 0.60872 0.80848 0.14044 0.0
C2019 C 0.60801 0.86686 0.20411 0.0
C2020 C 0.60608 0.82869 0.18913 0.0
H2021 H 0.62704 0.81148 0.16436 0.0
C2022 C 0.59365 0.82006 0.18773 0.0
C2023 C 0.61834 0.82545 0.18078 0.0
C2024 C 0.6322 0.83395 0.18235 0.0
C2025 C 0.59302 0.80851 0.17783 0.0
C2026 C 0.60522 0.80542 0.16932 0.0
C2027 C 0.6177 0.81392 0.17089 0.0
C2028 C 0.60514 0.79377 0.15829 0.0
C2029 C 0.57919 0.79999 0.17622 0.0
C2030 C 0.6034 0.77919 0.16225 0.0
C2031 C 0.60375 0.76829 0.15169 0.0
C2032 C 0.60593 0.77184 0.13706 0.0
C2033 C 0.60767 0.78645 0.13318 0.0
C2034 C 0.60731 0.7973 0.1437 0.0
H2035 H 0.56997 0.80569 0.18119 0.0
H2036 H 0.57674 0.79789 0.16463 0.0
H2037 H 0.58029 0.78938 0.1817 0.0
H2038 H 0.60196 0.77623 0.1735 0.0
H2039 H 0.60243 0.75711 0.15499 0.0
H2040 H 0.118 0.60101 0.20474 0.0
H2041 H 0.13469 0.59978 0.18425 0.0
H2042 H 0.17049 0.60119 0.21386 0.0
H2043 H 0.15396 0.6023 0.23434 0.0
H2044 H 0.15665 0.61973 0.17649 0.0
H2045 H 0.17872 0.56564 0.18851 0.0
H2046 H 0.16229 0.57206 0.1965 0.0
H2047 H 0.17938 0.57782 0.20369 0.0
C2048 C 0.12943 0.601 0.20688 0.0
C2049 C 0.13467 0.60168 0.22116 0.0
C2050 C 0.13893 0.60031 0.19517 0.0
C2051 C 0.1538 0.60016 0.19756 0.0
C2052 C 0.15905 0.60099 0.2118 0.0
H2053 H 0.23316 0.60297 0.15204 0.0
H2054 H 0.21313 0.60205 0.16903 0.0
C2055 C 0.14958 0.6017 0.22349 0.0
C2056 C 0.16395 0.59954 0.18523 0.0
H2057 H 0.19191 0.5802 0.17168 0.0
C2058 C 0.16424 0.61101 0.17529 0.0
C2059 C 0.17378 0.5881 0.18368 0.0
C2060 C 0.17348 0.57513 0.19357 0.0
C2061 C 0.17461 0.6117 0.16425 0.0
C2062 C 0.18477 0.6005 0.16304 0.0
C2063 C 0.18414 0.5888 0.17268 0.0
C2064 C 0.19671 0.60114 0.15246 0.0
C2065 C 0.175 0.62468 0.15438 0.0
C2066 C 0.19412 0.60083 0.13748 0.0
C2067 C 0.2056 0.60137 0.12769 0.0
C2068 C 0.21983 0.60217 0.13276 0.0
C2069 C 0.22234 0.60238 0.14777 0.0
C2070 C 0.2109 0.60184 0.15751 0.0
H2071 H 0.16825 0.63362 0.15851 0.0
H2072 H 0.18617 0.62879 0.15307 0.0
H2073 H 0.17092 0.62148 0.14353 0.0
H2074 H 0.18325 0.60005 0.13336 0.0
H2075 H 0.20332 0.60112 0.11618 0.0
H2076 H 0.39729 0.24302 0.15437 0.0
H2077 H 0.39883 0.22515 0.17394 0.0
H2078 H 0.39149 0.19071 0.14307 0.0
H2079 H 0.39002 0.20836 0.12356 0.0
H2080 H 0.37753 0.20444 0.1822 0.0
H2081 H 0.42777 0.17801 0.1648 0.0
H2082 H 0.42246 0.19555 0.15824 0.0
H2083 H 0.41467 0.17933 0.15061 0.0
C2084 C 0.39607 0.23163 0.15178 0.0
C2085 C 0.3936 0.22707 0.13744 0.0
C2086 C 0.39696 0.22146 0.16294 0.0
C2087 C 0.39552 0.20662 0.15988 0.0
C2088 C 0.39294 0.20209 0.1456 0.0
H2089 H 0.38806 0.12478 0.20189 0.0
H2090 H 0.39003 0.14545 0.18549 0.0
C2091 C 0.39202 0.21221 0.13448 0.0
C2092 C 0.39612 0.19578 0.1716 0.0
H2093 H 0.4133 0.16508 0.18194 0.0
C2094 C 0.38546 0.19594 0.18231 0.0
C2095 C 0.4065 0.18474 0.17165 0.0
C2096 C 0.41858 0.18444 0.16079 0.0
C2097 C 0.38449 0.18492 0.19271 0.0
C2098 C 0.3946 0.17362 0.19246 0.0
C2099 C 0.40553 0.17373 0.18203 0.0
C2100 C 0.39363 0.16123 0.20252 0.0
C2101 C 0.3723 0.18512 0.20346 0.0
C2102 C 0.39519 0.16326 0.2175 0.0
C2103 C 0.39402 0.15148 0.2269 0.0
C2104 C 0.39138 0.13748 0.22144 0.0
C2105 C 0.39005 0.13545 0.20641 0.0
C2106 C 0.3912 0.14723 0.19703 0.0
H2107 H 0.36379 0.1928 0.20026 0.0
H2108 H 0.36742 0.17416 0.20461 0.0
H2109 H 0.3765 0.18852 0.21421 0.0
H2110 H 0.39733 0.17395 0.22191 0.0
H2111 H 0.39519 0.15335 0.23843 0.0
H2112 H 0.88881 0.80409 0.60438 0.0
H2113 H 0.87256 0.82489 0.6048 0.0
H2114 H 0.83628 0.79581 0.60896 0.0
H2115 H 0.85225 0.77514 0.60859 0.0
H2116 H 0.84792 0.83054 0.5858 0.0
H2117 H 0.83259 0.82456 0.64347 0.0
H2118 H 0.84852 0.81649 0.63595 0.0
H2119 H 0.83124 0.80796 0.63335 0.0
C2120 C 0.87736 0.80217 0.60538 0.0
C2121 C 0.87181 0.78799 0.60655 0.0
C2122 C 0.86813 0.81404 0.60561 0.0
C2123 C 0.85327 0.81185 0.60715 0.0
C2124 C 0.84774 0.79772 0.60803 0.0
H2125 H 0.77187 0.84949 0.60747 0.0
H2126 H 0.79369 0.83518 0.60787 0.0
C2127 C 0.85689 0.78591 0.60775 0.0
C2128 C 0.84331 0.82418 0.60773 0.0
H2129 H 0.81675 0.83841 0.62859 0.0
C2130 C 0.84128 0.83251 0.59523 0.0
C2131 C 0.83475 0.82672 0.62009 0.0
C2132 C 0.83695 0.81856 0.63403 0.0
C2133 C 0.83022 0.8427 0.59446 0.0
C2134 C 0.82114 0.84461 0.60656 0.0
C2135 C 0.82369 0.83683 0.61931 0.0
C2136 C 0.80811 0.85358 0.60586 0.0
C2137 C 0.82778 0.85073 0.58049 0.0
C2138 C 0.80902 0.8687 0.60459 0.0
C2139 C 0.79652 0.87696 0.60436 0.0
C2140 C 0.78295 0.87019 0.60543 0.0
C2141 C 0.78214 0.85504 0.60662 0.0
C2142 C 0.7946 0.84684 0.60687 0.0
H2143 H 0.83454 0.84657 0.57153 0.0
H2144 H 0.81633 0.84988 0.57722 0.0
H2145 H 0.8304 0.86237 0.58212 0.0
H2146 H 0.81938 0.8741 0.60398 0.0
H2147 H 0.79748 0.88862 0.60347 0.0
H2148 H 0.88058 0.20026 0.38574 0.0
H2149 H 0.86074 0.18278 0.3875 0.0
H2150 H 0.83086 0.21772 0.39258 0.0
H2151 H 0.85064 0.23532 0.39066 0.0
H2152 H 0.8409 0.17889 0.41035 0.0
H2153 H 0.81394 0.19382 0.35883 0.0
H2154 H 0.83212 0.19936 0.36302 0.0
H2155 H 0.81728 0.20852 0.37122 0.0
C2156 C 0.86978 0.20423 0.3872 0.0
C2157 C 0.86713 0.21915 0.38797 0.0
C2158 C 0.85848 0.19423 0.38822 0.0
C2159 C 0.84434 0.19898 0.38997 0.0
C2160 C 0.84168 0.21386 0.39097 0.0
H2161 H 0.76377 0.14992 0.3939 0.0
H2162 H 0.78191 0.16934 0.39483 0.0
C2163 C 0.85298 0.22388 0.38993 0.0
C2164 C 0.83245 0.18829 0.39085 0.0
H2165 H 0.80236 0.17618 0.37327 0.0
C2166 C 0.83246 0.17829 0.40226 0.0
C2167 C 0.82144 0.18762 0.38031 0.0
C2168 C 0.82118 0.19781 0.36757 0.0
C2169 C 0.82173 0.16758 0.4034 0.0
C2170 C 0.81089 0.16672 0.3927 0.0
C2171 C 0.81071 0.17689 0.38145 0.0
C2172 C 0.79996 0.15499 0.39264 0.0
C2173 C 0.82204 0.15732 0.41608 0.0
C2174 C 0.80414 0.14054 0.39097 0.0
C2175 C 0.79384 0.12947 0.39042 0.0
C2176 C 0.77917 0.13266 0.39145 0.0
C2177 C 0.775 0.14714 0.39311 0.0
C2178 C 0.78533 0.15823 0.39363 0.0
H2179 H 0.82849 0.16181 0.42521 0.0
H2180 H 0.81102 0.15485 0.42001 0.0
H2181 H 0.82701 0.14701 0.41262 0.0
H2182 H 0.81537 0.13786 0.38989 0.0
H2183 H 0.79737 0.11842 0.38907 0.0
H2184 H 0.76392 0.84422 0.39083 0.0
H2185 H 0.78442 0.828 0.39077 0.0
H2186 H 0.81335 0.8647 0.39349 0.0
H2187 H 0.79283 0.88108 0.3937 0.0
H2188 H 0.80729 0.82758 0.37055 0.0
H2189 H 0.82653 0.8381 0.42676 0.0
H2190 H 0.80883 0.84309 0.42073 0.0
H2191 H 0.82419 0.85371 0.41545 0.0
C2192 C 0.77463 0.84887 0.39147 0.0
C2193 C 0.77676 0.86393 0.39231 0.0
C2194 C 0.78633 0.83958 0.39142 0.0
C2195 C 0.80038 0.84515 0.39228 0.0
C2196 C 0.80257 0.86018 0.39305 0.0
H2197 H 0.8804 0.79575 0.39465 0.0
H2198 H 0.86335 0.81579 0.39377 0.0
C2199 C 0.79085 0.86952 0.3931 0.0
C2200 C 0.81263 0.83509 0.39201 0.0
H2201 H 0.83969 0.82154 0.41273 0.0
C2202 C 0.81443 0.82631 0.37974 0.0
C2203 C 0.82198 0.83355 0.40397 0.0
C2204 C 0.8203 0.84252 0.41754 0.0
C2205 C 0.82517 0.81583 0.3792 0.0
C2206 C 0.83418 0.81392 0.39136 0.0
C2207 C 0.83273 0.82303 0.40345 0.0
C2208 C 0.84455 0.80192 0.39204 0.0
C2209 C 0.82676 0.80683 0.36564 0.0
C2210 C 0.83957 0.78754 0.39163 0.0
C2211 C 0.84923 0.77613 0.39215 0.0
C2212 C 0.86406 0.77887 0.39316 0.0
C2213 C 0.86903 0.7933 0.39382 0.0
C2214 C 0.85933 0.80474 0.39332 0.0
H2215 H 0.82199 0.81225 0.35608 0.0
H2216 H 0.83822 0.80462 0.36335 0.0
H2217 H 0.82109 0.79631 0.36713 0.0
H2218 H 0.82818 0.78514 0.39093 0.0
H2219 H 0.84504 0.76514 0.39171 0.0
H2220 H 0.14877 0.76442 0.39193 0.0
H2221 H 0.16886 0.78168 0.39357 0.0
H2222 H 0.13966 0.81703 0.38753 0.0
H2223 H 0.1195 0.79988 0.38608 0.0
H2224 H 0.17798 0.80147 0.3728 0.0
H2225 H 0.1623 0.82948 0.42348 0.0
H2226 H 0.15447 0.81236 0.41796 0.0
H2227 H 0.14836 0.82895 0.41005 0.0
C2228 C 0.14662 0.77588 0.39104 0.0
C2229 C 0.13256 0.78082 0.38892 0.0
C2230 C 0.1581 0.78571 0.39197 0.0
C2231 C 0.15571 0.80063 0.39089 0.0
C2232 C 0.14169 0.80558 0.38871 0.0
H2233 H 0.20579 0.87889 0.38552 0.0
H2234 H 0.18731 0.85992 0.38618 0.0
C2235 C 0.1302 0.79576 0.38779 0.0
C2236 C 0.16793 0.811 0.39147 0.0
H2237 H 0.18079 0.84076 0.4095 0.0
C2238 C 0.17869 0.80998 0.3809 0.0
C2239 C 0.16881 0.82205 0.40208 0.0
C2240 C 0.15795 0.82323 0.41412 0.0
C2241 C 0.19008 0.82005 0.38036 0.0
C2242 C 0.19078 0.83128 0.39078 0.0
C2243 C 0.18017 0.83214 0.4015 0.0
C2244 C 0.20214 0.8426 0.39041 0.0
C2245 C 0.201 0.81889 0.36837 0.0
C2246 C 0.21658 0.83913 0.39269 0.0
C2247 C 0.2272 0.84996 0.39232 0.0
C2248 C 0.22349 0.86442 0.38971 0.0
C2249 C 0.20899 0.86785 0.38753 0.0
C2250 C 0.19842 0.85704 0.38792 0.0
H2251 H 0.19731 0.81149 0.35957 0.0
H2252 H 0.20337 0.82969 0.36364 0.0
H2253 H 0.21115 0.81459 0.37285 0.0
H2254 H 0.21963 0.82806 0.39485 0.0
H2255 H 0.23827 0.84701 0.39411 0.0
H2256 H 0.23265 0.15263 0.39148 0.0
H2257 H 0.21212 0.16874 0.39124 0.0
H2258 H 0.18329 0.13191 0.39269 0.0
H2259 H 0.2039 0.1156 0.39308 0.0
H2260 H 0.18964 0.16915 0.37041 0.0
H2261 H 0.16949 0.15834 0.42617 0.0
H2262 H 0.18734 0.15351 0.42049 0.0
H2263 H 0.17216 0.14288 0.41463 0.0
C2264 C 0.22196 0.14792 0.3918 0.0
C2265 C 0.21989 0.13283 0.39233 0.0
C2266 C 0.21024 0.15715 0.39164 0.0
C2267 C 0.19621 0.15152 0.39208 0.0
C2268 C 0.19405 0.13646 0.39256 0.0
H2269 H 0.11734 0.20288 0.39448 0.0
H2270 H 0.13374 0.18231 0.39344 0.0
C2271 C 0.20582 0.12717 0.39271 0.0
C2272 C 0.18397 0.16158 0.3917 0.0
H2273 H 0.15708 0.17557 0.41237 0.0
C2274 C 0.18244 0.17048 0.37953 0.0
C2275 C 0.17456 0.1632 0.40359 0.0
C2276 C 0.17595 0.15407 0.41703 0.0
C2277 C 0.17196 0.18122 0.37905 0.0
C2278 C 0.16294 0.18326 0.39118 0.0
C2279 C 0.16407 0.17399 0.40313 0.0
C2280 C 0.15297 0.19558 0.392 0.0
C2281 C 0.1707 0.19038 0.36562 0.0
C2282 C 0.1584 0.2098 0.39181 0.0
C2283 C 0.14911 0.22152 0.39241 0.0
C2284 C 0.1342 0.21924 0.39329 0.0
C2285 C 0.12878 0.20497 0.39375 0.0
C2286 C 0.13811 0.19322 0.39317 0.0
H2287 H 0.17531 0.18488 0.356 0.0
H2288 H 0.15932 0.19299 0.36331 0.0
H2289 H 0.17671 0.2007 0.36729 0.0
H2290 H 0.16986 0.21184 0.3912 0.0
H2291 H 0.15364 0.23237 0.39213 0.0
H2292 H 0.20345 0.11202 0.60632 0.0
H2293 H 0.18226 0.12749 0.60504 0.0
H2294 H 0.20968 0.16543 0.60534 0.0
H2295 H 0.23083 0.15013 0.60652 0.0
H2296 H 0.17357 0.14998 0.62452 0.0
H2297 H 0.1841 0.1708 0.56928 0.0
H2298 H 0.19264 0.15484 0.57632 0.0
H2299 H 0.19927 0.17257 0.58119 0.0
C2300 C 0.20495 0.12366 0.6061 0.0
C2301 C 0.21881 0.12986 0.60644 0.0
C2302 C 0.19285 0.13246 0.60538 0.0
C2303 C 0.19444 0.14757 0.60485 0.0
C2304 C 0.20824 0.15377 0.60545 0.0
H2305 H 0.14893 0.22595 0.60654 0.0
H2306 H 0.16552 0.20577 0.60567 0.0
C2307 C 0.22031 0.14501 0.6062 0.0
C2308 C 0.18175 0.15702 0.60389 0.0
H2309 H 0.16736 0.18406 0.58363 0.0
C2310 C 0.17203 0.15728 0.61549 0.0
C2311 C 0.17976 0.16644 0.59203 0.0
C2312 C 0.18941 0.16609 0.57893 0.0
C2313 C 0.16085 0.16735 0.61594 0.0
C2314 C 0.1593 0.17723 0.60438 0.0
C2315 C 0.16863 0.17651 0.5925 0.0
C2316 C 0.14891 0.18922 0.60495 0.0
C2317 C 0.15123 0.16785 0.62906 0.0
C2318 C 0.13404 0.18659 0.60474 0.0
C2319 C 0.12447 0.19817 0.60523 0.0
C2320 C 0.12966 0.21251 0.60592 0.0
C2321 C 0.14456 0.21504 0.60605 0.0
C2322 C 0.15408 0.20352 0.60553 0.0
H2323 H 0.15526 0.16099 0.63802 0.0
H2324 H 0.15025 0.17914 0.63306 0.0
H2325 H 0.14034 0.16391 0.62603 0.0
H2326 H 0.12985 0.17562 0.6041 0.0
H2327 H 0.11304 0.19589 0.60508 0.0
H2328 H 0.76322 0.15232 0.60459 0.0
H2329 H 0.7822 0.17069 0.60174 0.0
H2330 H 0.81429 0.13805 0.60807 0.0
H2331 H 0.79543 0.11965 0.61087 0.0
H2332 H 0.80412 0.17791 0.62235 0.0
H2333 H 0.82681 0.15853 0.57023 0.0
H2334 H 0.80923 0.15308 0.57655 0.0
H2335 H 0.825 0.14502 0.58409 0.0
C2336 C 0.77432 0.14906 0.60533 0.0
C2337 C 0.77784 0.13455 0.60792 0.0
C2338 C 0.78514 0.15955 0.60369 0.0
C2339 C 0.79963 0.15567 0.60448 0.0
C2340 C 0.80317 0.14121 0.60714 0.0
H2341 H 0.8802 0.20427 0.60084 0.0
H2342 H 0.86171 0.18515 0.6018 0.0
C2343 C 0.79237 0.13073 0.60883 0.0
C2344 C 0.81105 0.16684 0.60309 0.0
H2345 H 0.83963 0.17732 0.58233 0.0
C2346 C 0.81185 0.17784 0.61357 0.0
C2347 C 0.82116 0.16661 0.59168 0.0
C2348 C 0.8205 0.15526 0.57991 0.0
C2349 C 0.82263 0.18855 0.61306 0.0
C2350 C 0.83267 0.18843 0.60156 0.0
C2351 C 0.83191 0.17738 0.59111 0.0
C2352 C 0.84387 0.19984 0.60013 0.0
C2353 C 0.82334 0.19973 0.625 0.0
C2354 C 0.83996 0.21435 0.59846 0.0
C2355 C 0.85044 0.22524 0.59797 0.0
C2356 C 0.86507 0.22183 0.599 0.0
C2357 C 0.86901 0.20723 0.60007 0.0
C2358 C 0.85848 0.19631 0.60062 0.0
H2359 H 0.81756 0.19603 0.63486 0.0
H2360 H 0.83463 0.20233 0.62797 0.0
H2361 H 0.81821 0.20982 0.62123 0.0
H2362 H 0.82875 0.21726 0.59771 0.0
H2363 H 0.84705 0.23637 0.59699 0.0
H2364 H 0.23564 0.84536 0.60462 0.0
H2365 H 0.21707 0.82648 0.60232 0.0
H2366 H 0.1843 0.85829 0.60934 0.0
H2367 H 0.20275 0.87723 0.61158 0.0
H2368 H 0.19588 0.81875 0.62336 0.0
H2369 H 0.17139 0.83727 0.57184 0.0
H2370 H 0.18895 0.84327 0.57779 0.0
H2371 H 0.17313 0.85091 0.58568 0.0
C2372 C 0.22448 0.84834 0.60563 0.0
C2373 C 0.22064 0.86277 0.60824 0.0
C2374 C 0.2139 0.83755 0.60431 0.0
C2375 C 0.19933 0.84104 0.60545 0.0
C2376 C 0.19548 0.85543 0.60815 0.0
H2377 H 0.11967 0.79106 0.60316 0.0
H2378 H 0.13796 0.81035 0.6041 0.0
C2379 C 0.20604 0.86621 0.60952 0.0
C2380 C 0.18816 0.82956 0.60431 0.0
H2381 H 0.15928 0.8183 0.58426 0.0
C2382 C 0.18791 0.81859 0.61478 0.0
C2383 C 0.17776 0.82948 0.59315 0.0
C2384 C 0.17783 0.84078 0.58139 0.0
C2385 C 0.17737 0.80762 0.61451 0.0
C2386 C 0.16701 0.80746 0.60329 0.0
C2387 C 0.16724 0.81846 0.59284 0.0
C2388 C 0.15594 0.79586 0.60216 0.0
C2389 C 0.17724 0.79649 0.62645 0.0
C2390 C 0.15999 0.78139 0.60042 0.0
C2391 C 0.1496 0.77038 0.59994 0.0
C2392 C 0.13495 0.77365 0.60105 0.0
C2393 C 0.13088 0.7882 0.60233 0.0
C2394 C 0.14131 0.79922 0.60286 0.0
H2395 H 0.18323 0.80036 0.63616 0.0
H2396 H 0.16609 0.79366 0.62972 0.0
H2397 H 0.18247 0.78649 0.62251 0.0
H2398 H 0.17121 0.77859 0.59951 0.0
H2399 H 0.15308 0.75929 0.59881 0.0
H2400 H 0.11439 0.28162 0.44659 0.0
H2401 H 0.11691 0.27643 0.47231 0.0
H2402 H 0.11424 0.23063 0.4634 0.0
H2403 H 0.11162 0.23569 0.4375 0.0
H2404 H 0.09558 0.24026 0.48543 0.0
H2405 H 0.15107 0.26012 0.49488 0.0
H2406 H 0.1403 0.27297 0.48536 0.0
H2407 H 0.14426 0.25584 0.47702 0.0
C2408 C 0.11447 0.27042 0.45002 0.0
C2409 C 0.11278 0.25907 0.43994 0.0
C2410 C 0.11602 0.26747 0.46474 0.0
C2411 C 0.11598 0.25315 0.46971 0.0
C2412 C 0.11442 0.24176 0.45973 0.0
H2413 H 0.109 0.23123 0.56273 0.0
H2414 H 0.11264 0.22777 0.53664 0.0
C2415 C 0.11293 0.24469 0.44495 0.0
C2416 C 0.11654 0.2503 0.48546 0.0
H2417 H 0.13576 0.25869 0.51587 0.0
C2418 C 0.10448 0.24397 0.49211 0.0
C2419 C 0.12821 0.25511 0.49408 0.0
C2420 C 0.14176 0.26126 0.48746 0.0
C2421 C 0.10335 0.24329 0.50725 0.0
C2422 C 0.11467 0.2489 0.51588 0.0
C2423 C 0.12708 0.25446 0.5092 0.0
C2424 C 0.11318 0.25065 0.53173 0.0
C2425 C 0.0897 0.23742 0.51392 0.0
C2426 C 0.1126 0.26464 0.53758 0.0
C2427 C 0.11056 0.26667 0.5524 0.0
C2428 C 0.1091 0.25472 0.56172 0.0
C2429 C 0.11 0.24067 0.55586 0.0
C2430 C 0.11203 0.23866 0.54096 0.0
H2431 H 0.08118 0.2354 0.5057 0.0
H2432 H 0.09197 0.22704 0.51944 0.0
H2433 H 0.08556 0.24508 0.52217 0.0
H2434 H 0.11348 0.27403 0.53062 0.0
H2435 H 0.11 0.27765 0.55649 0.0
H2436 H 0.78331 0.10724 0.55525 0.0
H2437 H 0.77886 0.10828 0.5293 0.0
H2438 H 0.73324 0.10846 0.53695 0.0
H2439 H 0.73754 0.10739 0.56317 0.0
H2440 H 0.76047 0.08589 0.51418 0.0
H2441 H 0.74291 0.14297 0.5073 0.0
H2442 H 0.75405 0.13766 0.52236 0.0
H2443 H 0.73553 0.13223 0.52185 0.0
C2444 C 0.7723 0.10761 0.55152 0.0
C2445 C 0.76078 0.10714 0.56136 0.0
C2446 C 0.7698 0.10821 0.53665 0.0
C2447 C 0.75575 0.10848 0.53126 0.0
C2448 C 0.74417 0.10837 0.54096 0.0
H2449 H 0.73875 0.10397 0.43698 0.0
H2450 H 0.73392 0.10533 0.4631 0.0
C2451 C 0.74666 0.10772 0.55592 0.0
C2452 C 0.75348 0.10798 0.51542 0.0
H2453 H 0.74663 0.12926 0.48607 0.0
C2454 C 0.75719 0.09528 0.50804 0.0
C2455 C 0.74917 0.12025 0.50749 0.0
C2456 C 0.7452 0.13412 0.51506 0.0
C2457 C 0.75729 0.09472 0.49288 0.0
C2458 C 0.75374 0.10721 0.48493 0.0
C2459 C 0.74933 0.11971 0.49227 0.0
C2460 C 0.75623 0.10782 0.46915 0.0
C2461 C 0.76175 0.08095 0.48539 0.0
C2462 C 0.77032 0.10907 0.46402 0.0
C2463 C 0.77313 0.10829 0.44921 0.0
C2464 C 0.76188 0.10623 0.4392 0.0
C2465 C 0.74767 0.10552 0.44438 0.0
C2466 C 0.74487 0.10632 0.45927 0.0
H2467 H 0.7615 0.07153 0.49285 0.0
H2468 H 0.75464 0.07859 0.476 0.0
H2469 H 0.77287 0.0823 0.48124 0.0
H2470 H 0.7792 0.11029 0.47153 0.0
H2471 H 0.78419 0.10901 0.44567 0.0
H2472 H 0.88837 0.76319 0.43753 0.0
H2473 H 0.88804 0.76803 0.46368 0.0
H2474 H 0.88596 0.72218 0.47207 0.0
H2475 H 0.88634 0.71718 0.44617 0.0
H2476 H 0.8678 0.75807 0.4869 0.0
H2477 H 0.92329 0.7377 0.4926 0.0
H2478 H 0.91583 0.74305 0.47539 0.0
H2479 H 0.9114 0.72564 0.48293 0.0
C2480 C 0.88768 0.75413 0.44494 0.0
C2481 C 0.88759 0.73978 0.43974 0.0
C2482 C 0.88749 0.75694 0.45985 0.0
C2483 C 0.88721 0.74545 0.46973 0.0
C2484 C 0.8864 0.73118 0.46457 0.0
H2485 H 0.88916 0.72164 0.55707 0.0
H2486 H 0.88711 0.72489 0.53102 0.0
C2487 C 0.88661 0.72836 0.44974 0.0
C2488 C 0.88851 0.74809 0.48546 0.0
H2489 H 0.90969 0.73995 0.51437 0.0
C2490 C 0.87704 0.75437 0.49294 0.0
C2491 C 0.90066 0.74335 0.49321 0.0
C2492 C 0.91357 0.73718 0.48563 0.0
C2493 C 0.87705 0.75518 0.50815 0.0
C2494 C 0.88886 0.74966 0.5159 0.0
C2495 C 0.90062 0.74409 0.50835 0.0
C2496 C 0.88879 0.74824 0.53182 0.0
C2497 C 0.8642 0.76122 0.5159 0.0
C2498 C 0.89027 0.76036 0.54091 0.0
C2499 C 0.89148 0.75856 0.55592 0.0
C2500 C 0.89131 0.7446 0.56201 0.0
C2501 C 0.88944 0.73255 0.55281 0.0
C2502 C 0.88823 0.73437 0.53789 0.0
H2503 H 0.85534 0.76384 0.50833 0.0
H2504 H 0.86017 0.75334 0.52404 0.0
H2505 H 0.86741 0.77124 0.52178 0.0
H2506 H 0.89087 0.77114 0.53636 0.0
H2507 H 0.89291 0.76807 0.56268 0.0
H2508 H 0.2605 0.89386 0.43777 0.0
H2509 H 0.26345 0.89256 0.46413 0.0
H2510 H 0.21776 0.88668 0.46907 0.0
H2511 H 0.21464 0.88805 0.44293 0.0
H2512 H 0.23027 0.90964 0.48582 0.0
H2513 H 0.25926 0.85769 0.4925 0.0
H2514 H 0.26632 0.87041 0.47952 0.0
H2515 H 0.24923 0.86184 0.47631 0.0
C2516 C 0.25109 0.89211 0.44445 0.0
C2517 C 0.23732 0.89115 0.4382 0.0
C2518 C 0.25282 0.89131 0.4595 0.0
C2519 C 0.24083 0.88944 0.46851 0.0
C2520 C 0.22715 0.88812 0.46229 0.0
H2521 H 0.21347 0.88641 0.55597 0.0
H2522 H 0.21704 0.88579 0.52985 0.0
C2523 C 0.2254 0.88892 0.44732 0.0
C2524 C 0.2422 0.88987 0.48449 0.0
H2525 H 0.25381 0.87074 0.51378 0.0
C2526 C 0.23551 0.90119 0.49193 0.0
C2527 C 0.24917 0.87891 0.49239 0.0
C2528 C 0.25636 0.86644 0.48485 0.0
C2529 C 0.23526 0.90165 0.50709 0.0
C2530 C 0.24165 0.89036 0.51502 0.0
C2531 C 0.24887 0.87933 0.50763 0.0
C2532 C 0.23998 0.88943 0.53093 0.0
C2533 C 0.22796 0.91414 0.51452 0.0
C2534 C 0.25181 0.89116 0.54021 0.0
C2535 C 0.24983 0.8915 0.55525 0.0
C2536 C 0.23597 0.89009 0.5612 0.0
C2537 C 0.22427 0.88773 0.55181 0.0
C2538 C 0.22627 0.88737 0.53685 0.0
H2539 H 0.22707 0.92366 0.50725 0.0
H2540 H 0.21695 0.91075 0.51772 0.0
H2541 H 0.23388 0.91748 0.52445 0.0
H2542 H 0.26249 0.89268 0.5358 0.0
H2543 H 0.25908 0.89328 0.56217 0.0
H2544 H 0.11026 0.75775 0.55884 0.0
H2545 H 0.11116 0.76273 0.53287 0.0
H2546 H 0.10438 0.71738 0.52368 0.0
H2547 H 0.10325 0.71227 0.54958 0.0
H2548 H 0.12932 0.75185 0.51118 0.0
H2549 H 0.07228 0.7369 0.50082 0.0
H2550 H 0.07928 0.7399 0.51883 0.0
H2551 H 0.08253 0.72311 0.50959 0.0
C2552 C 0.10897 0.74881 0.55132 0.0
C2553 C 0.10654 0.73461 0.55635 0.0
C2554 C 0.10951 0.75169 0.53648 0.0
C2555 C 0.10759 0.74046 0.52637 0.0
C2556 C 0.10558 0.72624 0.53131 0.0
H2557 H 0.10236 0.7393 0.43216 0.0
H2558 H 0.10448 0.73252 0.45767 0.0
C2559 C 0.10501 0.72334 0.54614 0.0
C2560 C 0.10759 0.74366 0.51065 0.0
H2561 H 0.0866 0.74223 0.48033 0.0
C2562 C 0.11998 0.74976 0.50442 0.0
C2563 C 0.09539 0.74092 0.50188 0.0
C2564 C 0.08156 0.73497 0.50811 0.0
C2565 C 0.12055 0.75308 0.4896 0.0
C2566 C 0.10832 0.7504 0.48086 0.0
C2567 C 0.09597 0.7442 0.48707 0.0
C2568 C 0.10789 0.75444 0.46536 0.0
C2569 C 0.13426 0.75926 0.48337 0.0
C2570 C 0.10906 0.769 0.46126 0.0
C2571 C 0.10783 0.77293 0.44672 0.0
C2572 C 0.10533 0.76235 0.43597 0.0
C2573 C 0.10431 0.74773 0.44012 0.0
C2574 C 0.10551 0.74382 0.45469 0.0
H2575 H 0.14363 0.75708 0.49046 0.0
H2576 H 0.13638 0.75472 0.47244 0.0
H2577 H 0.13326 0.77117 0.48234 0.0
H2578 H 0.11063 0.77739 0.46936 0.0
H2579 H 0.10866 0.78429 0.44395 0.0
H2580 H 0.28125 0.1153 0.44611 0.0
H2581 H 0.27555 0.11805 0.47171 0.0
H2582 H 0.23039 0.11415 0.46206 0.0
H2583 H 0.23594 0.1113 0.43627 0.0
H2584 H 0.25688 0.13916 0.48577 0.0
H2585 H 0.23887 0.08176 0.49249 0.0
H2586 H 0.24947 0.0875 0.47714 0.0
H2587 H 0.23091 0.0923 0.47828 0.0
C2588 C 0.27008 0.11507 0.44935 0.0
C2589 C 0.25906 0.11295 0.43911 0.0
C2590 C 0.26685 0.1167 0.464 0.0
C2591 C 0.25257 0.11618 0.46873 0.0
C2592 C 0.24149 0.11443 0.45858 0.0
H2593 H 0.23557 0.1082 0.5623 0.0
H2594 H 0.23023 0.11195 0.53657 0.0
C2595 C 0.2447 0.11284 0.44386 0.0
C2596 C 0.2496 0.11699 0.48442 0.0
H2597 H 0.24186 0.09568 0.51356 0.0
C2598 C 0.25333 0.12975 0.49185 0.0
C2599 C 0.24484 0.10473 0.49226 0.0
C2600 C 0.24083 0.09073 0.48473 0.0
C2601 C 0.25317 0.13033 0.50702 0.0
C2602 C 0.24945 0.11774 0.51489 0.0
C2603 C 0.24475 0.10529 0.50746 0.0
C2604 C 0.25224 0.11663 0.53061 0.0
C2605 C 0.25745 0.14427 0.5145 0.0
C2606 C 0.26638 0.11793 0.5357 0.0
C2607 C 0.26948 0.11571 0.55028 0.0
C2608 C 0.2585 0.11209 0.56011 0.0
C2609 C 0.24428 0.111 0.55503 0.0
C2610 C 0.24119 0.11315 0.54035 0.0
H2611 H 0.25528 0.15378 0.50754 0.0
H2612 H 0.25165 0.14557 0.52492 0.0
H2613 H 0.26914 0.14416 0.5168 0.0
H2614 H 0.27511 0.12029 0.5283 0.0
H2615 H 0.28055 0.11666 0.55379 0.0
H2616 H 0.88935 0.23996 0.55741 0.0
H2617 H 0.8881 0.23627 0.53123 0.0
H2618 H 0.89437 0.28206 0.52448 0.0
H2619 H 0.89585 0.2859 0.55063 0.0
H2620 H 0.86952 0.248 0.51045 0.0
H2621 H 0.92628 0.26402 0.50013 0.0
H2622 H 0.9196 0.26013 0.51805 0.0
H2623 H 0.91592 0.27723 0.5097 0.0
C2624 C 0.89045 0.24928 0.55039 0.0
C2625 C 0.89284 0.26322 0.55617 0.0
C2626 C 0.88971 0.24713 0.53542 0.0
C2627 C 0.89137 0.25885 0.52592 0.0
C2628 C 0.89335 0.27283 0.53162 0.0
H2629 H 0.8965 0.26136 0.43143 0.0
H2630 H 0.89418 0.26821 0.45695 0.0
C2631 C 0.89412 0.27499 0.54659 0.0
C2632 C 0.89118 0.25638 0.51006 0.0
H2633 H 0.91191 0.25876 0.47966 0.0
C2634 C 0.87877 0.25037 0.5037 0.0
C2635 C 0.90326 0.25952 0.50129 0.0
C2636 C 0.91708 0.26547 0.50761 0.0
C2637 C 0.87812 0.24741 0.48879 0.0
C2638 C 0.89028 0.25034 0.48008 0.0
C2639 C 0.90259 0.25659 0.48638 0.0
C2640 C 0.89076 0.24632 0.46454 0.0
C2641 C 0.86441 0.24124 0.48248 0.0
C2642 C 0.88964 0.23174 0.46038 0.0
C2643 C 0.89099 0.22778 0.44585 0.0
C2644 C 0.89355 0.23832 0.43515 0.0
C2645 C 0.8945 0.25296 0.43935 0.0
C2646 C 0.89319 0.25691 0.45393 0.0
H2647 H 0.85504 0.24346 0.48954 0.0
H2648 H 0.86231 0.24576 0.47156 0.0
H2649 H 0.86539 0.22933 0.48141 0.0
H2650 H 0.88805 0.22337 0.46843 0.0
H2651 H 0.89021 0.2164 0.44305 0.0
H2652 H 0.71452 0.88326 0.44511 0.0
H2653 H 0.71962 0.88062 0.47085 0.0
H2654 H 0.76504 0.88267 0.46216 0.0
H2655 H 0.7601 0.88541 0.43624 0.0
H2656 H 0.73698 0.85909 0.48551 0.0
H2657 H 0.75749 0.91568 0.49218 0.0
H2658 H 0.74702 0.91012 0.47662 0.0
H2659 H 0.76537 0.9047 0.47823 0.0
C2660 C 0.72562 0.88311 0.44859 0.0
C2661 C 0.7369 0.88468 0.43858 0.0
C2662 C 0.7285 0.88155 0.46332 0.0
C2663 C 0.74269 0.8816 0.46837 0.0
C2664 C 0.75401 0.88278 0.45845 0.0
H2665 H 0.76242 0.88877 0.56144 0.0
H2666 H 0.76631 0.88519 0.53542 0.0
C2667 C 0.75115 0.8843 0.44365 0.0
C2668 C 0.74537 0.88086 0.48413 0.0
H2669 H 0.75455 0.90186 0.51324 0.0
C2670 C 0.74103 0.86835 0.49158 0.0
C2671 C 0.75076 0.89293 0.49196 0.0
C2672 C 0.75538 0.90668 0.48443 0.0
C2673 C 0.74138 0.8678 0.50675 0.0
C2674 C 0.74592 0.88019 0.51463 0.0
C2675 C 0.75105 0.8924 0.50715 0.0
C2676 C 0.7439 0.8813 0.53048 0.0
C2677 C 0.73659 0.85408 0.51423 0.0
C2678 C 0.73001 0.88041 0.53625 0.0
C2679 C 0.72773 0.88249 0.55103 0.0
C2680 C 0.7393 0.88561 0.56037 0.0
C2681 C 0.75327 0.88636 0.55457 0.0
C2682 C 0.75552 0.88431 0.53972 0.0
H2683 H 0.73808 0.84447 0.50715 0.0
H2684 H 0.74256 0.85243 0.52449 0.0
H2685 H 0.72498 0.85479 0.5168 0.0
H2686 H 0.72084 0.87844 0.52926 0.0
H2687 H 0.71683 0.88185 0.55506 0.0
H2688 H 0.44544 0.10944 0.21592 0.0
H2689 H 0.47073 0.11102 0.2227 0.0
H2690 H 0.45906 0.11047 0.26788 0.0
H2691 H 0.43369 0.10868 0.26125 0.0
H2692 H 0.48549 0.1318 0.23959 0.0
H2693 H 0.48748 0.07703 0.26424 0.0
H2694 H 0.4728 0.08271 0.25291 0.0
H2695 H 0.47388 0.08864 0.27143 0.0
C2696 C 0.4482 0.10967 0.22731 0.0
C2697 C 0.43749 0.1088 0.23804 0.0
C2698 C 0.46268 0.1106 0.23116 0.0
C2699 C 0.46675 0.11064 0.24577 0.0
C2700 C 0.45613 0.11017 0.25652 0.0
H2701 H 0.55046 0.10889 0.28725 0.0
H2702 H 0.52483 0.11072 0.28217 0.0
C2703 C 0.44163 0.10921 0.2527 0.0
C2704 C 0.48216 0.11106 0.24969 0.0
H2705 H 0.50845 0.09152 0.266 0.0
C2706 C 0.49053 0.12301 0.24537 0.0
C2707 C 0.48867 0.09956 0.25723 0.0
C2708 C 0.48031 0.08619 0.26163 0.0
C2709 C 0.50526 0.12383 0.2485 0.0
C2710 C 0.5118 0.11227 0.25591 0.0
C2711 C 0.50339 0.10038 0.26035 0.0
C2712 C 0.52741 0.11207 0.25893 0.0
C2713 C 0.51365 0.13714 0.244 0.0
C2714 C 0.53735 0.11221 0.24753 0.0
C2715 C 0.55204 0.1112 0.25038 0.0
C2716 C 0.55705 0.10989 0.2647 0.0
C2717 C 0.54702 0.10987 0.2761 0.0
C2718 C 0.53235 0.11092 0.27323 0.0
H2719 H 0.50652 0.14652 0.24219 0.0
H2720 H 0.5218 0.14018 0.25229 0.0
H2721 H 0.51932 0.13488 0.23369 0.0
H2722 H 0.53374 0.11277 0.2364 0.0
H2723 H 0.55942 0.11118 0.24133 0.0
H2724 H 0.89112 0.55487 0.21357 0.0
H2725 H 0.88841 0.52923 0.21922 0.0
H2726 H 0.8923 0.53885 0.26479 0.0
H2727 H 0.89488 0.56465 0.25929 0.0
H2728 H 0.90873 0.51257 0.23355 0.0
H2729 H 0.85672 0.51214 0.26292 0.0
H2730 H 0.86252 0.52714 0.25177 0.0
H2731 H 0.8698 0.52494 0.26965 0.0
C2732 C 0.89128 0.55161 0.22483 0.0
C2733 C 0.89325 0.56187 0.23598 0.0
C2734 C 0.88972 0.53692 0.22802 0.0
C2735 C 0.89001 0.53217 0.24242 0.0
C2736 C 0.89178 0.54234 0.25361 0.0
H2737 H 0.89206 0.44744 0.28212 0.0
H2738 H 0.89115 0.47335 0.27707 0.0
C2739 C 0.89334 0.55707 0.25044 0.0
C2740 C 0.88936 0.51647 0.24556 0.0
H2741 H 0.86987 0.49027 0.26298 0.0
C2742 C 0.9002 0.50768 0.23992 0.0
C2743 C 0.87824 0.51015 0.25393 0.0
C2744 C 0.86607 0.51903 0.25983 0.0
C2745 C 0.90033 0.49275 0.24257 0.0
C2746 C 0.88918 0.48641 0.25087 0.0
C2747 C 0.87836 0.49519 0.25657 0.0
C2748 C 0.88876 0.47069 0.25392 0.0
C2749 C 0.91258 0.48393 0.23672 0.0
C2750 C 0.88738 0.46062 0.24258 0.0
C2751 C 0.88792 0.44579 0.2454 0.0
C2752 C 0.88981 0.44074 0.25964 0.0
C2753 C 0.89068 0.4509 0.27102 0.0
C2754 C 0.89013 0.46573 0.26817 0.0
H2755 H 0.9219 0.49086 0.23361 0.0
H2756 H 0.9162 0.4759 0.24484 0.0
H2757 H 0.90893 0.47793 0.22693 0.0
H2758 H 0.88605 0.46425 0.23152 0.0
H2759 H 0.88709 0.4383 0.23638 0.0
H2760 H 0.553 0.88803 0.21352 0.0
H2761 H 0.52753 0.88536 0.21879 0.0
H2762 H 0.5361 0.89091 0.26437 0.0
H2763 H 0.5618 0.89378 0.25921 0.0
H2764 H 0.51318 0.86497 0.23713 0.0
H2765 H 0.50577 0.92208 0.255 0.0
H2766 H 0.52145 0.91646 0.2451 0.0
H2767 H 0.5195 0.91183 0.26386 0.0
C2768 C 0.54956 0.88868 0.2247 0.0
C2769 C 0.5595 0.89125 0.23593 0.0
C2770 C 0.53496 0.8871 0.22768 0.0
C2771 C 0.52992 0.88809 0.24193 0.0
C2772 C 0.53977 0.89031 0.25327 0.0
H2773 H 0.43757 0.89252 0.26198 0.0
H2774 H 0.46354 0.89054 0.26565 0.0
C2775 C 0.55445 0.89188 0.25029 0.0
C2776 C 0.51427 0.88705 0.24463 0.0
H2777 H 0.48509 0.9075 0.25284 0.0
C2778 C 0.50704 0.8742 0.24076 0.0
C2779 C 0.50632 0.89907 0.24946 0.0
C2780 C 0.51357 0.9132 0.25353 0.0
C2781 C 0.49201 0.87323 0.24107 0.0
C2782 C 0.48401 0.88552 0.24508 0.0
C2783 C 0.49126 0.89811 0.24971 0.0
C2784 C 0.46823 0.88599 0.24316 0.0
C2785 C 0.48482 0.85912 0.23682 0.0
C2786 C 0.4623 0.88423 0.22929 0.0
C2787 C 0.44753 0.88537 0.22714 0.0
C2788 C 0.43834 0.88841 0.23882 0.0
C2789 C 0.44431 0.89013 0.25275 0.0
C2790 C 0.45915 0.88901 0.25488 0.0
H2791 H 0.492 0.8498 0.23869 0.0
H2792 H 0.47471 0.85734 0.24295 0.0
H2793 H 0.48219 0.85937 0.22509 0.0
H2794 H 0.46914 0.88223 0.22004 0.0
H2795 H 0.44337 0.88401 0.21626 0.0
H2796 H 0.11511 0.55979 0.23896 0.0
H2797 H 0.11649 0.53389 0.23381 0.0
H2798 H 0.10834 0.52437 0.27876 0.0
H2799 H 0.1071 0.55023 0.28412 0.0
H2800 H 0.13038 0.50754 0.26618 0.0
H2801 H 0.08081 0.50727 0.23266 0.0
H2802 H 0.09429 0.52015 0.22711 0.0
H2803 H 0.08569 0.52219 0.2444 0.0
C2804 C 0.11366 0.55222 0.24779 0.0
C2805 C 0.11084 0.55713 0.26194 0.0
C2806 C 0.11441 0.53741 0.2448 0.0
C2807 C 0.11227 0.52724 0.25586 0.0
C2808 C 0.10995 0.53207 0.27006 0.0
H2809 H 0.10541 0.43339 0.2599 0.0
H2810 H 0.10796 0.45913 0.26573 0.0
C2811 C 0.10922 0.54687 0.27309 0.0
C2812 C 0.11208 0.51154 0.25256 0.0
H2813 H 0.09393 0.48554 0.23336 0.0
C2814 C 0.12241 0.50269 0.25903 0.0
C2815 C 0.10163 0.50529 0.24327 0.0
C2816 C 0.08989 0.51416 0.23655 0.0
C2817 C 0.12272 0.48775 0.25621 0.0
C2818 C 0.11228 0.48151 0.24689 0.0
C2819 C 0.10195 0.49038 0.24046 0.0
C2820 C 0.11177 0.46581 0.2436 0.0
C2821 C 0.13436 0.47881 0.263 0.0
C2822 C 0.11293 0.46105 0.22923 0.0
C2823 C 0.11137 0.44639 0.22583 0.0
C2824 C 0.10853 0.43616 0.23676 0.0
C2825 C 0.10763 0.44094 0.25122 0.0
C2826 C 0.10918 0.45565 0.25459 0.0
H2827 H 0.14353 0.48565 0.26676 0.0
H2828 H 0.12991 0.47301 0.27253 0.0
H2829 H 0.13842 0.47061 0.25524 0.0
H2830 H 0.11488 0.46874 0.22058 0.0
H2831 H 0.11218 0.44312 0.21459 0.0
H2832 H 0.44417 0.88858 0.78192 0.0
H2833 H 0.46958 0.88697 0.77577 0.0
H2834 H 0.45891 0.88695 0.73032 0.0
H2835 H 0.43344 0.88873 0.73631 0.0
H2836 H 0.48431 0.86596 0.75918 0.0
H2837 H 0.48788 0.92071 0.73454 0.0
H2838 H 0.47295 0.91504 0.74568 0.0
H2839 H 0.47409 0.90908 0.72718 0.0
C2840 C 0.44717 0.88821 0.7706 0.0
C2841 C 0.43672 0.88891 0.75961 0.0
C2842 C 0.46172 0.88726 0.76712 0.0
C2843 C 0.46612 0.88706 0.7526 0.0
C2844 C 0.45573 0.88736 0.7416 0.0
H2845 H 0.55054 0.88907 0.71257 0.0
H2846 H 0.52478 0.88717 0.71718 0.0
C2847 C 0.44117 0.88832 0.74506 0.0
C2848 C 0.48159 0.8867 0.74903 0.0
H2849 H 0.50855 0.90625 0.73311 0.0
C2850 C 0.48963 0.87475 0.75347 0.0
C2851 C 0.48847 0.8982 0.74159 0.0
C2852 C 0.48047 0.91156 0.73706 0.0
C2853 C 0.50439 0.87394 0.75055 0.0
C2854 C 0.51129 0.8855 0.74323 0.0
C2855 C 0.50321 0.89738 0.73868 0.0
C2856 C 0.52695 0.88572 0.74046 0.0
C2857 C 0.5124 0.86062 0.75516 0.0
C2858 C 0.53672 0.88555 0.75203 0.0
C2859 C 0.55147 0.88659 0.74945 0.0
C2860 C 0.55674 0.88798 0.73523 0.0
C2861 C 0.5469 0.88802 0.72365 0.0
C2862 C 0.53215 0.88694 0.72626 0.0
H2863 H 0.50502 0.85123 0.75682 0.0
H2864 H 0.52061 0.85761 0.74702 0.0
H2865 H 0.51795 0.86286 0.76559 0.0
H2866 H 0.53292 0.88494 0.7631 0.0
H2867 H 0.5587 0.88659 0.75864 0.0
H2868 H 0.10352 0.44694 0.71059 0.0
H2869 H 0.10551 0.47303 0.71491 0.0
H2870 H 0.11224 0.46528 0.76043 0.0
H2871 H 0.11051 0.43926 0.75625 0.0
H2872 H 0.08819 0.48951 0.73236 0.0
H2873 H 0.14459 0.49362 0.75109 0.0
H2874 H 0.13751 0.47778 0.74193 0.0
H2875 H 0.13425 0.48045 0.76096 0.0
C2876 C 0.10557 0.45076 0.72151 0.0
C2877 C 0.10687 0.44095 0.73306 0.0
C2878 C 0.1067 0.46568 0.72395 0.0
C2879 C 0.10925 0.47108 0.73795 0.0
C2880 C 0.11061 0.46135 0.74948 0.0
H2881 H 0.10704 0.55233 0.78288 0.0
H2882 H 0.10903 0.52716 0.77503 0.0
C2883 C 0.10951 0.44645 0.74707 0.0
C2884 C 0.10959 0.4869 0.74071 0.0
H2885 H 0.12976 0.51407 0.75591 0.0
C2886 C 0.09735 0.49493 0.73733 0.0
C2887 C 0.12155 0.49393 0.7472 0.0
C2888 C 0.13527 0.48603 0.75038 0.0
C2889 C 0.09653 0.50971 0.74078 0.0
C2890 C 0.10835 0.51664 0.74762 0.0
C2891 C 0.12071 0.50869 0.75071 0.0
C2892 C 0.10783 0.532 0.75216 0.0
C2893 C 0.08284 0.51767 0.73758 0.0
C2894 C 0.10677 0.54307 0.74187 0.0
C2895 C 0.10563 0.55749 0.74631 0.0
C2896 C 0.10554 0.5611 0.76114 0.0
C2897 C 0.10698 0.54997 0.77139 0.0
C2898 C 0.10816 0.53557 0.76693 0.0
H2899 H 0.07381 0.51014 0.73496 0.0
H2900 H 0.07971 0.52449 0.74696 0.0
H2901 H 0.08458 0.52489 0.72815 0.0
H2902 H 0.10672 0.54053 0.73041 0.0
H2903 H 0.10462 0.56577 0.7381 0.0
H2904 H 0.44616 0.11884 0.78109 0.0
H2905 H 0.47201 0.1193 0.77737 0.0
H2906 H 0.46613 0.10439 0.73346 0.0
H2907 H 0.44 0.10388 0.73704 0.0
H2908 H 0.48655 0.09222 0.76849 0.0
H2909 H 0.49683 0.13914 0.73195 0.0
H2910 H 0.48117 0.13824 0.74346 0.0
H2911 H 0.48228 0.12675 0.72785 0.0
C2912 C 0.45027 0.11581 0.77055 0.0
C2913 C 0.44098 0.11115 0.7594 0.0
C2914 C 0.46508 0.11614 0.76845 0.0
C2915 C 0.47094 0.1119 0.75516 0.0
C2916 C 0.46176 0.10784 0.74376 0.0
H2917 H 0.56371 0.10269 0.7395 0.0
H2918 H 0.53774 0.10403 0.73529 0.0
C2919 C 0.44685 0.10753 0.74584 0.0
C2920 C 0.48668 0.11041 0.75398 0.0
H2921 H 0.51702 0.12673 0.74076 0.0
C2922 C 0.49322 0.09966 0.7623 0.0
C2923 C 0.49528 0.12005 0.74579 0.0
C2924 C 0.48864 0.13177 0.73675 0.0
C2925 C 0.50817 0.09857 0.76304 0.0
C2926 C 0.51684 0.1087 0.75549 0.0
C2927 C 0.51032 0.11906 0.74661 0.0
C2928 C 0.5326 0.10916 0.75755 0.0
C2929 C 0.51458 0.08669 0.77208 0.0
C2930 C 0.53828 0.11204 0.77133 0.0
C2931 C 0.55302 0.11122 0.7738 0.0
C2932 C 0.56242 0.10761 0.76247 0.0
C2933 C 0.55676 0.10542 0.74848 0.0
C2934 C 0.54194 0.10619 0.74604 0.0
H2935 H 0.50687 0.07756 0.77364 0.0
H2936 H 0.52449 0.08245 0.76703 0.0
H2937 H 0.5174 0.09108 0.78293 0.0
H2938 H 0.53126 0.11464 0.78029 0.0
H2939 H 0.55699 0.1132 0.78466 0.0
H2940 H 0.88925 0.55456 0.71037 0.0
H2941 H 0.8876 0.52847 0.71425 0.0
H2942 H 0.88771 0.53524 0.76047 0.0
H2943 H 0.88942 0.5614 0.75676 0.0
H2944 H 0.90769 0.51444 0.75038 0.0
H2945 H 0.85307 0.50403 0.72861 0.0
H2946 H 0.86434 0.51445 0.71667 0.0
H2947 H 0.8593 0.52186 0.73394 0.0
C2948 C 0.8888 0.55055 0.72137 0.0
C2949 C 0.88946 0.56012 0.73325 0.0
C2950 C 0.88777 0.53563 0.72356 0.0
C2951 C 0.88735 0.52996 0.73764 0.0
C2952 C 0.88792 0.53943 0.74952 0.0
H2953 H 0.89238 0.43751 0.76101 0.0
H2954 H 0.88975 0.4638 0.76338 0.0
C2955 C 0.88888 0.55438 0.74736 0.0
C2956 C 0.88708 0.51411 0.73984 0.0
H2957 H 0.86822 0.48343 0.73107 0.0
C2958 C 0.89897 0.50764 0.7464 0.0
C2959 C 0.87564 0.50533 0.73467 0.0
C2960 C 0.86229 0.51176 0.7282 0.0
C2961 C 0.9001 0.49252 0.74719 0.0
C2962 C 0.88894 0.48373 0.74144 0.0
C2963 C 0.87678 0.49023 0.73543 0.0
C2964 C 0.89024 0.46783 0.74031 0.0
C2965 C 0.91352 0.48604 0.75346 0.0
C2966 C 0.89114 0.46143 0.72657 0.0
C2967 C 0.89261 0.4465 0.72517 0.0
C2968 C 0.89314 0.4376 0.7375 0.0
C2969 C 0.89206 0.44404 0.75129 0.0
C2970 C 0.89061 0.45905 0.75268 0.0
H2971 H 0.92205 0.49433 0.75541 0.0
H2972 H 0.91092 0.48079 0.76395 0.0
H2973 H 0.91779 0.47761 0.7461 0.0
H2974 H 0.89085 0.46804 0.7169 0.0
H2975 H 0.89336 0.44198 0.71436 0.0
H2976 H 0.28131 0.5502 0.10628 0.0
H2977 H 0.27584 0.52442 0.10856 0.0
H2978 H 0.23122 0.53402 0.11564 0.0
H2979 H 0.23651 0.55989 0.11319 0.0
H2980 H 0.26339 0.5088 0.13151 0.0
H2981 H 0.23012 0.50541 0.08157 0.0
H2982 H 0.2416 0.52078 0.08558 0.0
H2983 H 0.22457 0.51877 0.09451 0.0
C2984 C 0.27032 0.54688 0.10834 0.0
C2985 C 0.25933 0.55716 0.10942 0.0
C2986 C 0.26723 0.53212 0.10967 0.0
C2987 C 0.2531 0.52731 0.11205 0.0
C2988 C 0.24215 0.53751 0.11352 0.0
H2989 H 0.21562 0.44075 0.11486 0.0
H2990 H 0.21987 0.4668 0.11689 0.0
C2991 C 0.24522 0.5523 0.11217 0.0
C2992 C 0.24989 0.5116 0.11281 0.0
H2993 H 0.2317 0.48422 0.09565 0.0
C2994 C 0.25645 0.50341 0.1237 0.0
C2995 C 0.24084 0.50462 0.10258 0.0
C2996 C 0.23395 0.51279 0.09031 0.0
C2997 C 0.25412 0.4884 0.12468 0.0
C2998 C 0.2452 0.4814 0.11435 0.0
C2999 C 0.23851 0.48963 0.10357 0.0
C3000 C 0.24288 0.46551 0.11425 0.0
C3001 C 0.2611 0.48019 0.13685 0.0
C3002 C 0.25443 0.45613 0.11213 0.0
C3003 C 0.25206 0.4412 0.11098 0.0
C3004 C 0.23805 0.43538 0.1118 0.0
C3005 C 0.22654 0.44483 0.11415 0.0
C3006 C 0.22893 0.45974 0.11532 0.0
H3007 H 0.26418 0.48748 0.14597 0.0
H3008 H 0.25384 0.47155 0.14103 0.0
H3009 H 0.271 0.47502 0.13276 0.0
H3010 H 0.26524 0.46039 0.11097 0.0
H3011 H 0.26117 0.43427 0.10911 0.0
H3012 H 0.23828 0.55829 0.88962 0.0
H3013 H 0.23363 0.53229 0.88731 0.0
H3014 H 0.27913 0.52435 0.88801 0.0
H3015 H 0.28394 0.55026 0.89053 0.0
H3016 H 0.24281 0.51213 0.86625 0.0
H3017 H 0.26357 0.49914 0.92109 0.0
H3018 H 0.25959 0.51738 0.91557 0.0
H3019 H 0.27593 0.50898 0.9098 0.0
C3020 C 0.24732 0.55104 0.88927 0.0
C3021 C 0.26149 0.55639 0.89043 0.0
C3022 C 0.24463 0.53619 0.88792 0.0
C3023 C 0.25603 0.52642 0.88774 0.0
C3024 C 0.27018 0.53171 0.88843 0.0
H3025 H 0.25912 0.4325 0.88813 0.0
H3026 H 0.26511 0.45823 0.8861 0.0
C3027 C 0.27289 0.54654 0.88982 0.0
C3028 C 0.25309 0.51066 0.88709 0.0
H3029 H 0.257 0.47936 0.90612 0.0
C3030 C 0.2459 0.50494 0.87496 0.0
C3031 C 0.25715 0.50135 0.89847 0.0
C3032 C 0.26438 0.507 0.91204 0.0
C3033 C 0.24275 0.49008 0.87385 0.0
C3034 C 0.24674 0.4808 0.88528 0.0
C3035 C 0.25403 0.48651 0.89735 0.0
C3036 C 0.24305 0.46519 0.88525 0.0
C3037 C 0.23536 0.48441 0.8604 0.0
C3038 C 0.22865 0.46061 0.88541 0.0
C3039 C 0.22516 0.44591 0.88659 0.0
C3040 C 0.23603 0.43553 0.88773 0.0
C3041 C 0.25047 0.44017 0.88729 0.0
C3042 C 0.25393 0.45487 0.88612 0.0
H3043 H 0.23654 0.49204 0.85119 0.0
H3044 H 0.23971 0.47375 0.85715 0.0
H3045 H 0.22373 0.48299 0.86264 0.0
H3046 H 0.22009 0.46843 0.88503 0.0
H3047 H 0.21394 0.44275 0.88691 0.0
H3048 H 0.44416 0.22055 0.8876 0.0
H3049 H 0.46947 0.22727 0.88546 0.0
H3050 H 0.45853 0.27244 0.88752 0.0
H3051 H 0.43313 0.26587 0.88985 0.0
H3052 H 0.48366 0.24478 0.86463 0.0
H3053 H 0.48813 0.26768 0.92026 0.0
H3054 H 0.47314 0.25647 0.9146 0.0
H3055 H 0.47416 0.27512 0.90922 0.0
C3056 C 0.44708 0.23193 0.88759 0.0
C3057 C 0.43658 0.24267 0.88904 0.0
C3058 C 0.46157 0.23574 0.88633 0.0
C3059 C 0.46586 0.25033 0.88653 0.0
C3060 C 0.45543 0.2611 0.8876 0.0
H3061 H 0.55122 0.28973 0.88873 0.0
H3062 H 0.52534 0.28567 0.88678 0.0
C3063 C 0.44092 0.25731 0.88887 0.0
C3064 C 0.48131 0.25418 0.88585 0.0
H3065 H 0.50869 0.26935 0.90547 0.0
C3066 C 0.48915 0.25019 0.87353 0.0
C3067 C 0.4884 0.26124 0.89749 0.0
C3068 C 0.48059 0.26529 0.91121 0.0
C3069 C 0.50394 0.2531 0.87252 0.0
C3070 C 0.51107 0.25995 0.88426 0.0
C3071 C 0.50317 0.26413 0.89648 0.0
C3072 C 0.5268 0.26244 0.88436 0.0
C3073 C 0.51176 0.24894 0.85885 0.0
C3074 C 0.53619 0.25071 0.88366 0.0
C3075 C 0.55101 0.25297 0.88475 0.0
C3076 C 0.55671 0.26702 0.8867 0.0
C3077 C 0.54724 0.27877 0.88724 0.0
C3078 C 0.53243 0.27648 0.88612 0.0
H3079 H 0.50428 0.24776 0.84953 0.0
H3080 H 0.52015 0.25711 0.85607 0.0
H3081 H 0.51705 0.23838 0.86051 0.0
H3082 H 0.53206 0.23975 0.88262 0.0
H3083 H 0.55795 0.24366 0.88434 0.0
H3084 H 0.73993 0.56582 0.88916 0.0
H3085 H 0.73475 0.5399 0.88699 0.0
H3086 H 0.78003 0.53094 0.88857 0.0
H3087 H 0.78538 0.55681 0.89055 0.0
H3088 H 0.76481 0.51505 0.8671 0.0
H3089 H 0.73852 0.51153 0.92101 0.0
H3090 H 0.73123 0.52489 0.90908 0.0
H3091 H 0.74932 0.52693 0.91561 0.0
C3092 C 0.74881 0.55837 0.889 0.0
C3093 C 0.76307 0.56343 0.89017 0.0
C3094 C 0.74581 0.54355 0.88782 0.0
C3095 C 0.757 0.53353 0.88786 0.0
C3096 C 0.77125 0.53853 0.88859 0.0
H3097 H 0.76401 0.44003 0.88838 0.0
H3098 H 0.76858 0.46608 0.88677 0.0
C3099 C 0.77427 0.55333 0.88976 0.0
C3100 C 0.75389 0.51779 0.88744 0.0
H3101 H 0.73796 0.49041 0.90652 0.0
C3102 C 0.75895 0.50963 0.87571 0.0
C3103 C 0.74627 0.5108 0.89872 0.0
C3104 C 0.74111 0.51893 0.91189 0.0
C3105 C 0.75642 0.49464 0.87485 0.0
C3106 C 0.74884 0.48765 0.88615 0.0
C3107 C 0.74374 0.49583 0.89785 0.0
C3108 C 0.74614 0.47183 0.8862 0.0
C3109 C 0.76167 0.48645 0.86176 0.0
C3110 C 0.73202 0.46645 0.88657 0.0
C3111 C 0.72935 0.45159 0.88759 0.0
C3112 C 0.74078 0.44179 0.88836 0.0
C3113 C 0.75495 0.44723 0.88778 0.0
C3114 C 0.75759 0.46212 0.88676 0.0
H3115 H 0.76392 0.49379 0.85251 0.0
H3116 H 0.77179 0.48088 0.86456 0.0
H3117 H 0.75369 0.47811 0.85829 0.0
H3118 H 0.72304 0.47379 0.88621 0.0
H3119 H 0.71831 0.44783 0.88799 0.0
H3120 H 0.45028 0.71245 0.89282 0.0
H3121 H 0.47607 0.7176 0.89162 0.0
H3122 H 0.46754 0.76291 0.88543 0.0
H3123 H 0.44177 0.75798 0.88667 0.0
H3124 H 0.49275 0.73185 0.86905 0.0
H3125 H 0.49407 0.76133 0.92163 0.0
H3126 H 0.47929 0.74965 0.91634 0.0
H3127 H 0.48093 0.76752 0.90887 0.0
C3128 C 0.45386 0.72352 0.89115 0.0
C3129 C 0.44392 0.73482 0.88998 0.0
C3130 C 0.4686 0.72641 0.89044 0.0
C3131 C 0.47366 0.74065 0.88865 0.0
C3132 C 0.46381 0.75188 0.88705 0.0
H3133 H 0.5572 0.78223 0.88965 0.0
H3134 H 0.53168 0.77633 0.88754 0.0
C3135 C 0.44908 0.74901 0.88772 0.0
C3136 C 0.48924 0.74381 0.88874 0.0
H3137 H 0.51542 0.76164 0.90781 0.0
C3138 C 0.49776 0.73832 0.87753 0.0
C3139 C 0.49566 0.75225 0.89984 0.0
C3140 C 0.48707 0.75795 0.91244 0.0
C3141 C 0.51256 0.7413 0.87696 0.0
C3142 C 0.51898 0.74977 0.88805 0.0
C3143 C 0.51044 0.7552 0.89929 0.0
C3144 C 0.53455 0.75315 0.88831 0.0
C3145 C 0.52113 0.73566 0.86433 0.0
C3146 C 0.54463 0.74205 0.88943 0.0
C3147 C 0.55926 0.74536 0.8906 0.0
C3148 C 0.56406 0.75987 0.89083 0.0
C3149 C 0.55391 0.77094 0.88955 0.0
C3150 C 0.53931 0.76761 0.88833 0.0
H3151 H 0.51412 0.73276 0.85499 0.0
H3152 H 0.52924 0.74377 0.86072 0.0
H3153 H 0.52686 0.72576 0.86771 0.0
H3154 H 0.54116 0.73082 0.88974 0.0
H3155 H 0.56676 0.73656 0.89164 0.0
H3156 H 0.78371 0.55421 0.10677 0.0
H3157 H 0.77884 0.52822 0.10827 0.0
H3158 H 0.7335 0.5364 0.11153 0.0
H3159 H 0.73819 0.56242 0.10984 0.0
H3160 H 0.7649 0.5119 0.12989 0.0
H3161 H 0.73616 0.50823 0.07725 0.0
H3162 H 0.74687 0.52383 0.08239 0.0
H3163 H 0.72908 0.5214 0.08958 0.0
C3164 C 0.77269 0.55053 0.10781 0.0
C3165 C 0.76133 0.56044 0.10804 0.0
C3166 C 0.76994 0.53565 0.10869 0.0
C3167 C 0.75581 0.5304 0.10978 0.0
C3168 C 0.74447 0.54024 0.1104 0.0
H3169 H 0.71677 0.44503 0.11103 0.0
H3170 H 0.72193 0.47094 0.11261 0.0
C3171 C 0.74719 0.55512 0.10949 0.0
C3172 C 0.75294 0.51461 0.11014 0.0
H3173 H 0.73602 0.48718 0.0918 0.0
C3174 C 0.75861 0.50647 0.12156 0.0
C3175 C 0.74478 0.50757 0.09922 0.0
C3176 C 0.73897 0.51566 0.08634 0.0
C3177 C 0.7561 0.49148 0.1225 0.0
C3178 C 0.74789 0.48446 0.11161 0.0
C3179 C 0.74226 0.49261 0.10017 0.0
C3180 C 0.74498 0.46866 0.11175 0.0
C3181 C 0.762 0.48334 0.13529 0.0
C3182 C 0.75626 0.45878 0.11079 0.0
C3183 C 0.75337 0.44391 0.10993 0.0
C3184 C 0.73912 0.43867 0.10985 0.0
C3185 C 0.72787 0.44864 0.11102 0.0
C3186 C 0.73078 0.46347 0.11193 0.0
H3187 H 0.76474 0.49072 0.14444 0.0
H3188 H 0.7542 0.47503 0.13916 0.0
H3189 H 0.77195 0.47774 0.13198 0.0
H3190 H 0.7673 0.46257 0.11034 0.0
H3191 H 0.7623 0.43657 0.10897 0.0
H3192 H 0.55298 0.77625 0.11627 0.0
H3193 H 0.5274 0.77136 0.11891 0.0
H3194 H 0.53408 0.72628 0.10914 0.0
H3195 H 0.5599 0.73107 0.10638 0.0
H3196 H 0.512 0.73946 0.09279 0.0
H3197 H 0.50535 0.75036 0.15129 0.0
H3198 H 0.51523 0.7645 0.14231 0.0
H3199 H 0.52258 0.7466 0.14324 0.0
C3200 C 0.5491 0.76524 0.11478 0.0
C3201 C 0.55853 0.75405 0.11108 0.0
C3202 C 0.53445 0.76245 0.11642 0.0
C3203 C 0.52888 0.74842 0.11445 0.0
C3204 C 0.53822 0.73716 0.11085 0.0
H3205 H 0.43482 0.73477 0.10598 0.0
H3206 H 0.4601 0.72822 0.109 0.0
C3207 C 0.55295 0.73992 0.10929 0.0
C3208 C 0.51316 0.74598 0.11516 0.0
H3209 H 0.48414 0.75294 0.13646 0.0
C3210 C 0.50586 0.74203 0.10242 0.0
C3211 C 0.50523 0.74927 0.12777 0.0
C3212 C 0.51251 0.75278 0.14197 0.0
C3213 C 0.49081 0.74245 0.10163 0.0
C3214 C 0.48294 0.74674 0.11398 0.0
C3215 C 0.49021 0.74972 0.12698 0.0
C3216 C 0.46747 0.75015 0.11309 0.0
C3217 C 0.48352 0.73929 0.08735 0.0
C3218 C 0.46323 0.76456 0.11478 0.0
C3219 C 0.44889 0.76833 0.11311 0.0
C3220 C 0.43841 0.75775 0.10975 0.0
C3221 C 0.44261 0.7432 0.1085 0.0
C3222 C 0.45705 0.73944 0.11015 0.0
H3223 H 0.49133 0.73794 0.07837 0.0
H3224 H 0.47706 0.72917 0.08827 0.0
H3225 H 0.4761 0.74817 0.08451 0.0
H3226 H 0.47111 0.77298 0.11707 0.0
H3227 H 0.44608 0.77961 0.11427 0.0
H3228 H 0.5535 0.21432 0.11054 0.0
H3229 H 0.52846 0.22082 0.11383 0.0
H3230 H 0.53947 0.26592 0.10834 0.0
H3231 H 0.56473 0.25953 0.1049 0.0
H3232 H 0.51585 0.24041 0.13471 0.0
H3233 H 0.50775 0.25738 0.0774 0.0
H3234 H 0.52288 0.24662 0.08282 0.0
H3235 H 0.52239 0.2655 0.08736 0.0
C3236 C 0.55068 0.22565 0.11005 0.0
C3237 C 0.56116 0.23639 0.10733 0.0
C3238 C 0.53634 0.22934 0.11199 0.0
C3239 C 0.53211 0.24382 0.11119 0.0
C3240 C 0.54252 0.25465 0.10883 0.0
H3241 H 0.44003 0.26473 0.10615 0.0
H3242 H 0.46601 0.26884 0.10859 0.0
C3243 C 0.55695 0.25098 0.10693 0.0
C3244 C 0.51668 0.24724 0.11246 0.0
H3245 H 0.48734 0.25571 0.09214 0.0
C3246 C 0.50963 0.244 0.12549 0.0
C3247 C 0.50863 0.25205 0.10044 0.0
C3248 C 0.5157 0.25555 0.08615 0.0
C3249 C 0.49464 0.24476 0.12661 0.0
C3250 C 0.4865 0.24859 0.1143 0.0
C3251 C 0.49361 0.25273 0.10154 0.0
C3252 C 0.4707 0.24659 0.11386 0.0
C3253 C 0.48764 0.24109 0.14088 0.0
C3254 C 0.46477 0.23273 0.11592 0.0
C3255 C 0.45004 0.23034 0.11451 0.0
C3256 C 0.44085 0.24176 0.11089 0.0
C3257 C 0.44678 0.25571 0.10899 0.0
C3258 C 0.46161 0.25808 0.11037 0.0
H3259 H 0.49502 0.24335 0.1501 0.0
H3260 H 0.47763 0.24729 0.1425 0.0
H3261 H 0.48491 0.22937 0.14106 0.0
H3262 H 0.47161 0.22363 0.11828 0.0
H3263 H 0.4459 0.21945 0.11606 0.0
H3264 H 0.60764 0.73089 0.06246 0.0
H3265 H 0.61195 0.7272 0.0365 0.0
H3266 H 0.61694 0.77329 0.03082 0.0
H3267 H 0.61279 0.77711 0.05652 0.0
H3268 H 0.59543 0.73872 0.01384 0.0
H3269 H 0.65192 0.75721 0.00966 0.0
H3270 H 0.64375 0.75218 0.02669 0.0
H3271 H 0.64104 0.76994 0.01927 0.0
C3272 C 0.60982 0.74023 0.05571 0.0
C3273 C 0.60985 0.75431 0.0616 0.0
C3274 C 0.61228 0.73809 0.0409 0.0
C3275 C 0.61501 0.74996 0.03182 0.0
C3276 C 0.61519 0.76396 0.0377 0.0
H3277 H 0.61426 0.78103 0.94715 0.0
H3278 H 0.61649 0.77543 0.97283 0.0
C3279 C 0.61267 0.76612 0.05241 0.0
C3280 C 0.6166 0.74806 0.01598 0.0
H3281 H 0.63787 0.75827 0.98765 0.0
C3282 C 0.60483 0.74264 0.00808 0.0
C3283 C 0.62891 0.75316 0.00855 0.0
C3284 C 0.64218 0.75831 0.0165 0.0
C3285 C 0.60463 0.74321 0.99289 0.0
C3286 C 0.61659 0.74919 0.9855 0.0
C3287 C 0.62869 0.75379 0.99338 0.0
C3288 C 0.6161 0.75221 0.96979 0.0
C3289 C 0.5913 0.73828 0.98489 0.0
C3290 C 0.61539 0.74097 0.95957 0.0
C3291 C 0.6141 0.74412 0.94482 0.0
C3292 C 0.61349 0.75858 0.94007 0.0
C3293 C 0.61461 0.76978 0.95038 0.0
C3294 C 0.61593 0.76661 0.96508 0.0
H3295 H 0.58227 0.73578 0.99236 0.0
H3296 H 0.58782 0.74673 0.97716 0.0
H3297 H 0.59369 0.72837 0.97857 0.0
H3298 H 0.6157 0.72978 0.96302 0.0
H3299 H 0.61335 0.73522 0.93718 0.0
H3300 H 0.23802 0.60363 0.93694 0.0
H3301 H 0.2328 0.60692 0.96278 0.0
H3302 H 0.27752 0.61634 0.97092 0.0
H3303 H 0.28283 0.6132 0.94531 0.0
H3304 H 0.24471 0.59079 0.98545 0.0
H3305 H 0.25727 0.64902 0.99249 0.0
H3306 H 0.2539 0.64094 0.97494 0.0
H3307 H 0.27134 0.63966 0.98324 0.0
C3308 C 0.24671 0.60659 0.94421 0.0
C3309 C 0.26086 0.60812 0.93903 0.0
C3310 C 0.2437 0.60846 0.95896 0.0
C3311 C 0.25473 0.6121 0.96871 0.0
C3312 C 0.26879 0.61385 0.96354 0.0
H3313 H 0.2822 0.61169 0.05438 0.0
H3314 H 0.27711 0.61441 0.02868 0.0
C3315 C 0.27182 0.61192 0.94888 0.0
C3316 C 0.25199 0.61297 0.9845 0.0
H3317 H 0.25864 0.6343 0.01405 0.0
C3318 C 0.2474 0.6004 0.99172 0.0
C3319 C 0.25545 0.62554 0.99262 0.0
C3320 C 0.25962 0.6396 0.9854 0.0
C3321 C 0.24726 0.59973 0.00692 0.0
C3322 C 0.25164 0.61202 0.01503 0.0
C3323 C 0.25536 0.62486 0.00779 0.0
C3324 C 0.25418 0.61123 0.03085 0.0
C3325 C 0.24334 0.58561 0.01418 0.0
C3326 C 0.24291 0.60879 0.04065 0.0
C3327 C 0.24579 0.60719 0.05546 0.0
C3328 C 0.25999 0.608 0.06067 0.0
C3329 C 0.27115 0.61087 0.05079 0.0
C3330 C 0.26827 0.61249 0.03607 0.0
H3331 H 0.24208 0.57659 0.00628 0.0
H3332 H 0.25168 0.58265 0.02221 0.0
H3333 H 0.23305 0.58683 0.02006 0.0
H3334 H 0.23194 0.60796 0.03683 0.0
H3335 H 0.23693 0.60506 0.06276 0.0
H3336 H 0.39148 0.21686 0.05584 0.0
H3337 H 0.388 0.21977 0.02988 0.0
H3338 H 0.38546 0.26603 0.03541 0.0
H3339 H 0.38913 0.26329 0.06152 0.0
H3340 H 0.36515 0.23266 0.01458 0.0
H3341 H 0.4174 0.26095 0.00502 0.0
H3342 H 0.41353 0.25142 0.02163 0.0
H3343 H 0.4058 0.26882 0.01837 0.0
C3344 C 0.39018 0.22768 0.05161 0.0
C3345 C 0.39072 0.23986 0.0608 0.0
C3346 C 0.38814 0.22931 0.03674 0.0
C3347 C 0.38664 0.24311 0.03073 0.0
C3348 C 0.38684 0.2553 0.03984 0.0
H3349 H 0.38604 0.26175 0.93757 0.0
H3350 H 0.38339 0.26486 0.96376 0.0
C3351 C 0.38889 0.25369 0.05476 0.0
C3352 C 0.38515 0.24457 0.01485 0.0
H3353 H 0.40308 0.25589 0.98464 0.0
C3354 C 0.37336 0.23787 0.00802 0.0
C3355 C 0.39586 0.25144 0.00636 0.0
C3356 C 0.40894 0.25849 0.01314 0.0
C3357 C 0.37217 0.2375 0.99288 0.0
C3358 C 0.38319 0.2438 0.98439 0.0
C3359 C 0.39466 0.25106 0.99122 0.0
C3360 C 0.38367 0.24195 0.96848 0.0
C3361 C 0.35922 0.23022 0.98611 0.0
C3362 C 0.38475 0.22804 0.9625 0.0
C3363 C 0.3863 0.2262 0.94758 0.0
C3364 C 0.38689 0.23826 0.93832 0.0
C3365 C 0.38561 0.25221 0.94436 0.0
C3366 C 0.38409 0.25402 0.95932 0.0
H3367 H 0.34994 0.23004 0.99367 0.0
H3368 H 0.35599 0.23575 0.97597 0.0
H3369 H 0.36186 0.21884 0.98343 0.0
H3370 H 0.38476 0.21859 0.96942 0.0
H3371 H 0.38728 0.2153 0.94335 0.0
H3372 H 0.75999 0.39282 0.06153 0.0
H3373 H 0.76375 0.39239 0.03521 0.0
H3374 H 0.71842 0.3852 0.02861 0.0
H3375 H 0.71451 0.38564 0.05468 0.0
H3376 H 0.75535 0.37053 0.01274 0.0
H3377 H 0.72862 0.42351 0.00665 0.0
H3378 H 0.73533 0.41715 0.02382 0.0
H3379 H 0.71845 0.41048 0.01691 0.0
C3380 C 0.75084 0.39099 0.05448 0.0
C3381 C 0.73691 0.38946 0.06024 0.0
C3382 C 0.75302 0.39075 0.03946 0.0
C3383 C 0.74132 0.389 0.03001 0.0
C3384 C 0.72755 0.38679 0.03574 0.0
H3385 H 0.71586 0.38787 0.94236 0.0
H3386 H 0.71932 0.38631 0.96844 0.0
C3387 C 0.72535 0.38705 0.05068 0.0
C3388 C 0.74317 0.39013 0.01413 0.0
H3389 H 0.73188 0.4097 0.98508 0.0
C3390 C 0.75044 0.37919 0.00666 0.0
C3391 C 0.73682 0.40152 0.00629 0.0
C3392 C 0.72948 0.41392 0.01381 0.0
C3393 C 0.7508 0.37893 0.99142 0.0
C3394 C 0.74383 0.38995 0.9836 0.0
C3395 C 0.73713 0.40121 0.99113 0.0
C3396 C 0.74232 0.38956 0.96763 0.0
C3397 C 0.75802 0.36656 0.98376 0.0
C3398 C 0.75418 0.39174 0.95849 0.0
C3399 C 0.75225 0.39266 0.94346 0.0
C3400 C 0.73841 0.3915 0.93738 0.0
C3401 C 0.72666 0.38892 0.94662 0.0
C3402 C 0.7286 0.388 0.96156 0.0
H3403 H 0.76123 0.35788 0.99136 0.0
H3404 H 0.75077 0.36183 0.9754 0.0
H3405 H 0.76779 0.37066 0.97818 0.0
H3406 H 0.76484 0.39315 0.963 0.0
H3407 H 0.76153 0.39467 0.93668 0.0
H3408 H 0.60581 0.23993 0.93144 0.0
H3409 H 0.60796 0.23309 0.95691 0.0
H3410 H 0.60894 0.27814 0.96925 0.0
H3411 H 0.60698 0.28513 0.94386 0.0
H3412 H 0.62963 0.26119 0.98351 0.0
H3413 H 0.5751 0.23629 0.98638 0.0
H3414 H 0.58636 0.22934 0.97226 0.0
H3415 H 0.58067 0.24784 0.97164 0.0
C3416 C 0.60652 0.2484 0.93955 0.0
C3417 C 0.6061 0.26309 0.93557 0.0
C3418 C 0.60768 0.24446 0.95411 0.0
C3419 C 0.60837 0.25511 0.96496 0.0
C3420 C 0.60835 0.26976 0.96103 0.0
H3421 H 0.61028 0.2581 0.05868 0.0
H3422 H 0.61168 0.26349 0.03284 0.0
C3423 C 0.6072 0.27372 0.94649 0.0
C3424 C 0.60892 0.25104 0.98046 0.0
H3425 H 0.58971 0.23429 0.00717 0.0
C3426 C 0.62092 0.2553 0.98871 0.0
C3427 C 0.59752 0.24337 0.98717 0.0
C3428 C 0.58412 0.23903 0.97897 0.0
C3429 C 0.62189 0.25196 0.0035 0.0
C3430 C 0.61043 0.24439 0.01025 0.0
C3431 C 0.59849 0.24005 0.00196 0.0
C3432 C 0.61041 0.24109 0.02595 0.0
C3433 C 0.63525 0.25637 0.01172 0.0
C3434 C 0.60901 0.22673 0.03067 0.0
C3435 C 0.60806 0.2236 0.04543 0.0
C3436 C 0.60844 0.2348 0.05581 0.0
C3437 C 0.61002 0.24918 0.05103 0.0
C3438 C 0.61092 0.2523 0.03624 0.0
H3439 H 0.64448 0.25827 0.00432 0.0
H3440 H 0.63323 0.26661 0.01765 0.0
H3441 H 0.63825 0.248 0.01974 0.0
H3442 H 0.60852 0.21793 0.02289 0.0
H3443 H 0.60686 0.21239 0.04868 0.0
H3444 H 0.78229 0.61632 0.05556 0.0
H3445 H 0.7782 0.62008 0.02983 0.0
H3446 H 0.73264 0.61435 0.03611 0.0
H3447 H 0.7366 0.61041 0.06204 0.0
H3448 H 0.74389 0.59744 0.01383 0.0
H3449 H 0.76164 0.65443 0.00796 0.0
H3450 H 0.77456 0.64382 0.01751 0.0
H3451 H 0.75708 0.64658 0.02529 0.0
C3452 C 0.77136 0.61599 0.05156 0.0
C3453 C 0.75978 0.61302 0.0609 0.0
C3454 C 0.76904 0.61828 0.03684 0.0
C3455 C 0.7551 0.61774 0.03112 0.0
C3456 C 0.74347 0.61494 0.04037 0.0
H3457 H 0.73848 0.61351 0.93696 0.0
H3458 H 0.73368 0.61646 0.96287 0.0
C3459 C 0.74577 0.61269 0.05517 0.0
C3460 C 0.75301 0.61891 0.01529 0.0
H3461 H 0.76233 0.63974 0.98626 0.0
C3462 C 0.74758 0.6068 0.00777 0.0
C3463 C 0.75781 0.63117 0.00747 0.0
C3464 C 0.76296 0.64479 0.01499 0.0
C3465 C 0.74781 0.60623 0.99259 0.0
C3466 C 0.75345 0.61816 0.9848 0.0
C3467 C 0.7581 0.63059 0.99229 0.0
C3468 C 0.75607 0.61732 0.96904 0.0
C3469 C 0.74287 0.59255 0.98502 0.0
C3470 C 0.77024 0.61719 0.96396 0.0
C3471 C 0.77304 0.61552 0.94922 0.0
C3472 C 0.7617 0.61401 0.93924 0.0
C3473 C 0.74747 0.61456 0.94434 0.0
C3474 C 0.74469 0.6162 0.95914 0.0
H3475 H 0.7407 0.58359 0.99274 0.0
H3476 H 0.73284 0.5947 0.97894 0.0
H3477 H 0.75107 0.58896 0.97711 0.0
H3478 H 0.77916 0.61806 0.97147 0.0
H3479 H 0.78412 0.61524 0.94571 0.0
H3480 H 0.39404 0.76148 0.93297 0.0
H3481 H 0.39137 0.76861 0.95837 0.0
H3482 H 0.38882 0.7237 0.97077 0.0
H3483 H 0.39128 0.71643 0.94549 0.0
H3484 H 0.36838 0.74152 0.9846 0.0
H3485 H 0.4238 0.76434 0.98839 0.0
H3486 H 0.41283 0.77152 0.97416 0.0
H3487 H 0.41805 0.75287 0.97357 0.0
C3488 C 0.39284 0.7531 0.94107 0.0
C3489 C 0.39302 0.73837 0.93716 0.0
C3490 C 0.39138 0.75721 0.95559 0.0
C3491 C 0.39013 0.74667 0.96644 0.0
C3492 C 0.38983 0.73199 0.96255 0.0
H3493 H 0.38841 0.73979 0.05928 0.0
H3494 H 0.38648 0.73615 0.03315 0.0
C3495 C 0.39129 0.72787 0.94807 0.0
C3496 C 0.38952 0.7508 0.98194 0.0
H3497 H 0.40942 0.76586 0.00927 0.0
C3498 C 0.37731 0.74691 0.99 0.0
C3499 C 0.4012 0.75783 0.98892 0.0
C3500 C 0.41477 0.76181 0.98089 0.0
C3501 C 0.37649 0.74981 0.00491 0.0
C3502 C 0.38831 0.75654 0.01195 0.0
C3503 C 0.40038 0.76071 0.00383 0.0
C3504 C 0.38865 0.75887 0.02784 0.0
C3505 C 0.36296 0.74573 0.01295 0.0
C3506 C 0.39077 0.77283 0.03353 0.0
C3507 C 0.39202 0.77496 0.04847 0.0
C3508 C 0.39126 0.76313 0.05803 0.0
C3509 C 0.389 0.74916 0.05227 0.0
C3510 C 0.38778 0.74706 0.03733 0.0
H3511 H 0.35361 0.74475 0.00551 0.0
H3512 H 0.36443 0.73508 0.01824 0.0
H3513 H 0.36047 0.75382 0.02148 0.0
H3514 H 0.39156 0.78209 0.02638 0.0
H3515 H 0.39374 0.78587 0.05249 0.0
H3516 H 0.26172 0.38653 0.06143 0.0
H3517 H 0.26484 0.38597 0.03504 0.0
H3518 H 0.21901 0.38839 0.02935 0.0
H3519 H 0.21571 0.38896 0.05548 0.0
H3520 H 0.25084 0.36576 0.01319 0.0
H3521 H 0.23724 0.42369 0.00666 0.0
H3522 H 0.24315 0.4162 0.02368 0.0
H3523 H 0.22491 0.41358 0.01778 0.0
C3524 C 0.25229 0.38688 0.05457 0.0
C3525 C 0.23846 0.38792 0.06061 0.0
C3526 C 0.25411 0.38653 0.03951 0.0
C3527 C 0.24216 0.38733 0.03034 0.0
C3528 C 0.22837 0.38795 0.03631 0.0
H3529 H 0.21296 0.38934 0.94434 0.0
H3530 H 0.21749 0.3884 0.9703 0.0
C3531 C 0.22653 0.38824 0.05127 0.0
C3532 C 0.24384 0.38784 0.01445 0.0
H3533 H 0.23621 0.40902 0.98534 0.0
C3534 C 0.24792 0.37527 0.00704 0.0
C3535 C 0.24008 0.40031 0.00657 0.0
C3536 C 0.23622 0.41427 0.01405 0.0
C3537 C 0.24748 0.3746 0.99184 0.0
C3538 C 0.24296 0.38685 0.984 0.0
C3539 C 0.23958 0.39962 0.99143 0.0
C3540 C 0.24049 0.38639 0.9682 0.0
C3541 C 0.2511 0.36062 0.98427 0.0
C3542 C 0.25196 0.38547 0.95845 0.0
C3543 C 0.24943 0.38602 0.94352 0.0
C3544 C 0.23537 0.38755 0.93814 0.0
C3545 C 0.22392 0.38818 0.94803 0.0
C3546 C 0.22647 0.38765 0.9629 0.0
H3547 H 0.25268 0.3516 0.99201 0.0
H3548 H 0.24244 0.35753 0.97654 0.0
H3549 H 0.26113 0.36214 0.97796 0.0
H3550 H 0.26288 0.38465 0.96238 0.0
H3551 H 0.25851 0.38551 0.93622 0.0
H3552 H 0.05967 0.61391 0.74101 0.0
H3553 H 0.03409 0.61628 0.7358 0.0
H3554 H 0.02424 0.60939 0.78089 0.0
H3555 H 0.04976 0.60713 0.78629 0.0
H3556 H 0.01333 0.59467 0.74085 0.0
H3557 H 0.00051 0.64516 0.7707 0.0
H3558 H 0.01866 0.64019 0.7662 0.0
H3559 H 0.00963 0.63179 0.78124 0.0
C3560 C 0.0521 0.61305 0.74987 0.0
C3561 C 0.05681 0.6103 0.76408 0.0
C3562 C 0.03749 0.61442 0.74686 0.0
C3563 C 0.02731 0.61318 0.75798 0.0
C3564 C 0.03195 0.61066 0.7722 0.0
H3565 H 0.93432 0.60721 0.76025 0.0
H3566 H 0.95987 0.60889 0.76633 0.0
C3567 C 0.04655 0.60928 0.77523 0.0
C3568 C 0.01181 0.61349 0.75455 0.0
H3569 H 0.98072 0.6314 0.76157 0.0
C3570 C 0.00621 0.60275 0.74529 0.0
C3571 C 0.00257 0.62399 0.76047 0.0
C3572 C 0.00813 0.63602 0.77011 0.0
C3573 C 0.99154 0.6021 0.74195 0.0
C3574 C 0.9823 0.61264 0.74781 0.0
C3575 C 0.98787 0.62336 0.7571 0.0
C3576 C 0.96681 0.61267 0.7443 0.0
C3577 C 0.98602 0.58995 0.73242 0.0
C3578 C 0.96227 0.61464 0.72997 0.0
C3579 C 0.94773 0.61364 0.72644 0.0
C3580 C 0.93741 0.61075 0.73721 0.0
C3581 C 0.94196 0.60938 0.75168 0.0
C3582 C 0.95655 0.61034 0.75518 0.0
H3583 H 0.99369 0.58085 0.73186 0.0
H3584 H 0.97554 0.58573 0.73641 0.0
H3585 H 0.98444 0.59407 0.72126 0.0
H3586 H 0.97002 0.61674 0.72147 0.0
H3587 H 0.94462 0.61494 0.71522 0.0
H3588 H 0.39007 0.93726 0.73819 0.0
H3589 H 0.3896 0.96366 0.73533 0.0
H3590 H 0.38461 0.9687 0.78147 0.0
H3591 H 0.38511 0.94254 0.7845 0.0
H3592 H 0.36839 0.98562 0.7456 0.0
H3593 H 0.42252 0.99102 0.77036 0.0
H3594 H 0.41565 0.9741 0.76316 0.0
H3595 H 0.41 0.98032 0.78069 0.0
C3596 C 0.38871 0.94398 0.74771 0.0
C3597 C 0.38784 0.93777 0.7616 0.0
C3598 C 0.38844 0.95904 0.74604 0.0
C3599 C 0.38731 0.96805 0.75822 0.0
C3600 C 0.38571 0.96188 0.77197 0.0
H3601 H 0.39073 0.05589 0.785 0.0
H3602 H 0.38848 0.02976 0.78189 0.0
C3603 C 0.38601 0.94691 0.77366 0.0
C3604 C 0.38852 0.98394 0.75687 0.0
H3605 H 0.40913 0.01264 0.76797 0.0
C3606 C 0.37735 0.99158 0.7503 0.0
C3607 C 0.4003 0.99159 0.76296 0.0
C3608 C 0.41288 0.98386 0.76958 0.0
C3609 C 0.37732 0.0068 0.75034 0.0
C3610 C 0.38885 0.01443 0.75696 0.0
C3611 C 0.40025 0.00674 0.76301 0.0
C3612 C 0.38905 0.03037 0.75848 0.0
C3613 C 0.36473 0.01459 0.74386 0.0
C3614 C 0.39003 0.03937 0.74631 0.0
C3615 C 0.39131 0.05438 0.74804 0.0
C3616 C 0.39174 0.06061 0.76198 0.0
C3617 C 0.3905 0.05151 0.77411 0.0
C3618 C 0.3892 0.03655 0.77236 0.0
H3619 H 0.35552 0.00715 0.74168 0.0
H3620 H 0.36112 0.02338 0.75118 0.0
H3621 H 0.36804 0.01959 0.73346 0.0
H3622 H 0.39018 0.03478 0.73551 0.0
H3623 H 0.39227 0.06106 0.73845 0.0
H3624 H 0.06274 0.39405 0.76041 0.0
H3625 H 0.03741 0.39014 0.7667 0.0
H3626 H 0.02841 0.37713 0.7227 0.0
H3627 H 0.05351 0.38086 0.71634 0.0
H3628 H 0.01442 0.40464 0.75404 0.0
H3629 H 0.00809 0.3456 0.74621 0.0
H3630 H 0.02543 0.3543 0.74849 0.0
H3631 H 0.01677 0.35405 0.73104 0.0
C3632 C 0.0554 0.39016 0.75213 0.0
C3633 C 0.06016 0.38782 0.73785 0.0
C3634 C 0.04095 0.38793 0.75575 0.0
C3635 C 0.0311 0.38312 0.74522 0.0
C3636 C 0.03589 0.38052 0.73107 0.0
H3637 H 0.94617 0.38043 0.71846 0.0
H3638 H 0.97164 0.37801 0.72371 0.0
C3639 C 0.05025 0.38281 0.72743 0.0
C3640 C 0.01555 0.38206 0.74844 0.0
H3641 H 0.98647 0.35972 0.74379 0.0
C3642 C 0.0083 0.39475 0.75219 0.0
C3643 C 0.00763 0.36911 0.74607 0.0
C3644 C 0.01491 0.35496 0.74288 0.0
C3645 C 0.99324 0.39512 0.75246 0.0
C3646 C 0.98531 0.38239 0.74909 0.0
C3647 C 0.99259 0.36948 0.74629 0.0
C3648 C 0.96962 0.38274 0.74657 0.0
C3649 C 0.98593 0.40933 0.75536 0.0
C3650 C 0.95999 0.3859 0.75778 0.0
C3651 C 0.94533 0.38733 0.75481 0.0
C3652 C 0.9401 0.38564 0.74058 0.0
C3653 C 0.94979 0.38195 0.72952 0.0
C3654 C 0.96437 0.38049 0.7325 0.0
H3655 H 0.99367 0.41856 0.75584 0.0
H3656 H 0.97786 0.41153 0.74681 0.0
H3657 H 0.98022 0.40873 0.76588 0.0
H3658 H 0.96383 0.38748 0.76875 0.0
H3659 H 0.93817 0.39009 0.76361 0.0
H3660 H 0.6055 0.93394 0.76042 0.0
H3661 H 0.60777 0.9598 0.76607 0.0
H3662 H 0.61165 0.96941 0.72057 0.0
H3663 H 0.60929 0.94373 0.71477 0.0
H3664 H 0.63002 0.98056 0.75874 0.0
H3665 H 0.57734 0.99388 0.73426 0.0
H3666 H 0.58234 0.97559 0.73868 0.0
H3667 H 0.58915 0.98405 0.72255 0.0
C3668 C 0.60689 0.94154 0.75161 0.0
C3669 C 0.60705 0.93674 0.73713 0.0
C3670 C 0.60821 0.9563 0.75487 0.0
C3671 C 0.60963 0.96649 0.74371 0.0
C3672 C 0.61028 0.96172 0.72931 0.0
H3673 H 0.61193 0.06005 0.73829 0.0
H3674 H 0.61326 0.03407 0.73346 0.0
C3675 C 0.60897 0.94701 0.72604 0.0
C3676 C 0.61012 0.98217 0.74702 0.0
H3677 H 0.5922 0.01365 0.74132 0.0
C3678 C 0.62174 0.98782 0.755 0.0
C3679 C 0.59928 0.99156 0.74212 0.0
C3680 C 0.58625 0.98599 0.73404 0.0
C3681 C 0.62296 0.00271 0.75795 0.0
C3682 C 0.61216 0.0121 0.75295 0.0
C3683 C 0.60052 0.00643 0.74504 0.0
C3684 C 0.6125 0.02785 0.75602 0.0
C3685 C 0.63593 0.00832 0.7661 0.0
C3686 C 0.61166 0.03294 0.77031 0.0
C3687 C 0.61088 0.04777 0.77313 0.0
C3688 C 0.61084 0.05782 0.76168 0.0
C3689 C 0.61193 0.05266 0.74737 0.0
C3690 C 0.61269 0.03781 0.74458 0.0
H3691 H 0.64487 0.00047 0.76586 0.0
H3692 H 0.63979 0.01876 0.76153 0.0
H3693 H 0.63297 0.01018 0.77759 0.0
H3694 H 0.61121 0.02542 0.77927 0.0
H3695 H 0.61002 0.05132 0.78428 0.0
H3696 H 0.93396 0.39148 0.23512 0.0
H3697 H 0.9593 0.3889 0.22886 0.0
H3698 H 0.97022 0.38686 0.27419 0.0
H3699 H 0.94496 0.38929 0.2806 0.0
H3700 H 0.9817 0.4078 0.23722 0.0
H3701 H 0.99126 0.35207 0.25694 0.0
H3702 H 0.97347 0.359 0.25391 0.0
H3703 H 0.98318 0.36376 0.2701 0.0
C3704 C 0.94171 0.39034 0.24378 0.0
C3705 C 0.93738 0.39059 0.25838 0.0
C3706 C 0.9562 0.38887 0.24016 0.0
C3707 C 0.9666 0.38749 0.25105 0.0
C3708 C 0.96232 0.38761 0.26561 0.0
H3709 H 0.05878 0.38688 0.25711 0.0
H3710 H 0.03289 0.3858 0.2611 0.0
C3711 C 0.94787 0.3891 0.26925 0.0
C3712 C 0.98201 0.38681 0.24726 0.0
H3713 H 0.01198 0.36624 0.25105 0.0
C3714 C 0.9883 0.39865 0.2401 0.0
C3715 C 0.99059 0.37488 0.2511 0.0
C3716 C 0.98428 0.36164 0.25832 0.0
C3717 C 0.00305 0.39911 0.23705 0.0
C3718 C 0.01167 0.38724 0.24102 0.0
C3719 C 0.00534 0.37531 0.24802 0.0
C3720 C 0.02735 0.38723 0.23839 0.0
C3721 C 0.00937 0.41249 0.23008 0.0
C3722 C 0.03283 0.38809 0.22427 0.0
C3723 C 0.04764 0.38877 0.22193 0.0
C3724 C 0.05727 0.3885 0.23368 0.0
C3725 C 0.05171 0.38718 0.24779 0.0
C3726 C 0.0369 0.38654 0.25011 0.0
H3727 H 0.00207 0.42188 0.23097 0.0
H3728 H 0.01983 0.41548 0.23509 0.0
H3729 H 0.0112 0.41033 0.2184 0.0
H3730 H 0.02563 0.38833 0.21505 0.0
H3731 H 0.05151 0.38966 0.21091 0.0
H3732 H 0.60474 0.06537 0.24008 0.0
H3733 H 0.60664 0.03978 0.23354 0.0
H3734 H 0.61189 0.02878 0.27857 0.0
H3735 H 0.6098 0.05424 0.28527 0.0
H3736 H 0.62826 0.01926 0.23859 0.0
H3737 H 0.57728 0.00405 0.26597 0.0
H3738 H 0.58229 0.02262 0.26234 0.0
H3739 H 0.58995 0.01328 0.27749 0.0
C3740 C 0.60636 0.05753 0.24861 0.0
C3741 C 0.60693 0.06187 0.26323 0.0
C3742 C 0.60746 0.04291 0.24483 0.0
C3743 C 0.60912 0.03238 0.2556 0.0
C3744 C 0.61028 0.03671 0.27013 0.0
H3745 H 0.61169 0.93905 0.25792 0.0
H3746 H 0.61347 0.96492 0.26309 0.0
C3747 C 0.60913 0.0513 0.27392 0.0
C3748 C 0.60929 0.01682 0.2517 0.0
H3749 H 0.59153 0.9848 0.25732 0.0
C3750 C 0.62021 0.01171 0.24262 0.0
C3751 C 0.59872 0.00704 0.25693 0.0
C3752 C 0.58631 0.01201 0.26611 0.0
C3753 C 0.62104 0.99698 0.23892 0.0
C3754 C 0.61057 0.98719 0.24432 0.0
C3755 C 0.5996 0.99233 0.25329 0.0
C3756 C 0.61068 0.97154 0.24082 0.0
C3757 C 0.63327 0.99193 0.22956 0.0
C3758 C 0.60859 0.96669 0.22656 0.0
C3759 C 0.60754 0.95187 0.22353 0.0
C3760 C 0.60849 0.94163 0.23475 0.0
C3761 C 0.61087 0.94658 0.24899 0.0
C3762 C 0.6119 0.96138 0.25199 0.0
H3763 H 0.64216 5e-05 0.22915 0.0
H3764 H 0.63757 0.98154 0.23359 0.0
H3765 H 0.6293 0.99015 0.21835 0.0
H3766 H 0.60736 0.97437 0.21782 0.0
H3767 H 0.60567 0.94847 0.21244 0.0
H3768 H 0.05499 0.60689 0.28237 0.0
H3769 H 0.02985 0.6094 0.27545 0.0
H3770 H 0.04195 0.61076 0.23042 0.0
H3771 H 0.06716 0.60808 0.23717 0.0
H3772 H 0.01616 0.63134 0.25931 0.0
H3773 H 0.01211 0.57761 0.23219 0.0
H3774 H 0.02683 0.58251 0.24402 0.0
H3775 H 0.02631 0.58926 0.2258 0.0
C3776 C 0.05236 0.60774 0.27098 0.0
C3777 C 0.06313 0.60715 0.26032 0.0
C3778 C 0.03797 0.6092 0.26706 0.0
C3779 C 0.03404 0.61004 0.25243 0.0
C3780 C 0.04475 0.60985 0.24177 0.0
H3781 H 0.94969 0.61004 0.21149 0.0
H3782 H 0.97549 0.61181 0.21606 0.0
C3783 C 0.05916 0.60838 0.24566 0.0
C3784 C 0.0187 0.61092 0.24838 0.0
H3785 H 0.99169 0.5924 0.2312 0.0
C3786 C 0.01079 0.62286 0.25314 0.0
C3787 C 0.01177 0.59983 0.24031 0.0
C3788 C 0.01962 0.58651 0.23536 0.0
C3789 C 0.99611 0.62403 0.25 0.0
C3790 C 0.98912 0.61282 0.24213 0.0
C3791 C 0.99708 0.60099 0.23719 0.0
C3792 C 0.97345 0.61281 0.23937 0.0
C3793 C 0.98825 0.63732 0.25502 0.0
C3794 C 0.96374 0.61277 0.25098 0.0
C3795 C 0.94898 0.61181 0.24842 0.0
C3796 C 0.94362 0.6107 0.23419 0.0
C3797 C 0.9534 0.61088 0.22258 0.0
C3798 C 0.96817 0.61189 0.22516 0.0
H3799 H 0.99575 0.64659 0.25689 0.0
H3800 H 0.98003 0.6406 0.247 0.0
H3801 H 0.98276 0.63492 0.26541 0.0
H3802 H 0.96759 0.61313 0.26205 0.0
H3803 H 0.94181 0.61163 0.25764 0.0
H3804 H 0.38737 0.05524 0.20972 0.0
H3805 H 0.38544 0.02906 0.21267 0.0
H3806 H 0.38592 0.0342 0.2591 0.0
H3807 H 0.38763 0.06047 0.25631 0.0
H3808 H 0.40585 0.01239 0.2265 0.0
H3809 H 0.3525 0.00565 0.25272 0.0
H3810 H 0.35787 0.02211 0.24361 0.0
H3811 H 0.36455 0.01827 0.26142 0.0
C3812 C 0.3869 0.05086 0.22058 0.0
C3813 C 0.38772 0.06 0.23278 0.0
C3814 C 0.38578 0.03588 0.22224 0.0
C3815 C 0.38541 0.0297 0.2361 0.0
C3816 C 0.38592 0.03876 0.24831 0.0
H3817 H 0.39036 0.9381 0.26032 0.0
H3818 H 0.38879 0.96458 0.26151 0.0
C3819 C 0.38699 0.05378 0.24667 0.0
C3820 C 0.38562 0.01376 0.23763 0.0
H3821 H 0.36654 0.98456 0.25017 0.0
C3822 C 0.39725 0.00632 0.23168 0.0
C3823 C 0.37446 0.00589 0.24455 0.0
C3824 C 0.36156 0.01334 0.25086 0.0
C3825 C 0.39797 0.9912 0.23226 0.0
C3826 C 0.38664 0.9833 0.23881 0.0
C3827 C 0.37517 0.99071 0.24514 0.0
C3828 C 0.38629 0.9673 0.2384 0.0
C3829 C 0.41084 0.98378 0.22584 0.0
C3830 C 0.38499 0.96014 0.22506 0.0
C3831 C 0.38589 0.94511 0.22431 0.0
C3832 C 0.38808 0.9369 0.23693 0.0
C3833 C 0.38875 0.94409 0.25039 0.0
C3834 C 0.38784 0.95919 0.25111 0.0
H3835 H 0.42009 0.99136 0.22457 0.0
H3836 H 0.4142 0.97456 0.23269 0.0
H3837 H 0.40798 0.97947 0.21497 0.0
H3838 H 0.38356 0.96623 0.21516 0.0
H3839 H 0.38516 0.93998 0.21377 0.0
H3840 H 0.73503 0.06147 0.612 0.0
H3841 H 0.7295 0.0356 0.61395 0.0
H3842 H 0.7747 0.02613 0.61347 0.0
H3843 H 0.78038 0.05189 0.61168 0.0
H3844 H 0.73723 0.01454 0.59366 0.0
H3845 H 0.7599 0.00219 0.64773 0.0
H3846 H 0.75622 0.02043 0.64192 0.0
H3847 H 0.7722 0.0115 0.63593 0.0
C3848 C 0.74382 0.05392 0.61249 0.0
C3849 C 0.75817 0.0588 0.61167 0.0
C3850 C 0.74063 0.03913 0.6136 0.0
C3851 C 0.75169 0.02898 0.61404 0.0
C3852 C 0.766 0.03381 0.61345 0.0
H3853 H 0.75958 0.93627 0.60861 0.0
H3854 H 0.76324 0.96244 0.61078 0.0
C3855 C 0.76922 0.04856 0.61232 0.0
C3856 C 0.74831 0.01329 0.61408 0.0
H3857 H 0.75401 0.98196 0.63264 0.0
C3858 C 0.74075 0.00742 0.60225 0.0
C3859 C 0.753 0.00405 0.62527 0.0
C3860 C 0.76067 0.00986 0.63851 0.0
C3861 C 0.7381 0.99248 0.6011 0.0
C3862 C 0.74294 0.98323 0.61221 0.0
C3863 C 0.75035 0.9891 0.62413 0.0
C3864 C 0.74062 0.96736 0.61148 0.0
C3865 C 0.73056 0.98669 0.58777 0.0
C3866 C 0.72668 0.96147 0.61144 0.0
C3867 C 0.72453 0.94654 0.61017 0.0
C3868 C 0.73629 0.93718 0.60899 0.0
C3869 C 0.75026 0.94313 0.60942 0.0
C3870 C 0.7524 0.95808 0.61069 0.0
H3871 H 0.7306 0.99469 0.57881 0.0
H3872 H 0.73568 0.9766 0.58388 0.0
H3873 H 0.71922 0.98411 0.59049 0.0
H3874 H 0.71746 0.96845 0.61232 0.0
H3875 H 0.71362 0.94235 0.61 0.0
H3876 H 0.78443 0.04983 0.39075 0.0
H3877 H 0.77946 0.02391 0.38853 0.0
H3878 H 0.73406 0.03223 0.38666 0.0
H3879 H 0.73887 0.0582 0.38866 0.0
H3880 H 0.76358 0.00729 0.40762 0.0
H3881 H 0.73972 0.00465 0.35259 0.0
H3882 H 0.74975 0.02022 0.35905 0.0
H3883 H 0.73134 0.01753 0.36436 0.0
C3884 C 0.77338 0.0462 0.38972 0.0
C3885 C 0.76205 0.05614 0.38989 0.0
C3886 C 0.77057 0.03136 0.38844 0.0
C3887 C 0.75642 0.02617 0.38724 0.0
C3888 C 0.74509 0.03603 0.38726 0.0
H3889 H 0.71454 0.94254 0.39009 0.0
H3890 H 0.72086 0.96822 0.38842 0.0
C3891 C 0.74787 0.05088 0.38851 0.0
C3892 C 0.75347 0.01038 0.3869 0.0
H3893 H 0.73731 0.98346 0.36712 0.0
C3894 C 0.75796 0.00204 0.39871 0.0
C3895 C 0.74609 0.00361 0.37527 0.0
C3896 C 0.74155 0.01192 0.36203 0.0
C3897 C 0.75495 0.98715 0.39939 0.0
C3898 C 0.74746 0.9804 0.38783 0.0
C3899 C 0.74306 0.9887 0.37596 0.0
C3900 C 0.74377 0.96478 0.38808 0.0
C3901 C 0.75945 0.97884 0.41266 0.0
C3902 C 0.75458 0.95435 0.38815 0.0
C3903 C 0.75103 0.93964 0.38913 0.0
C3904 C 0.73658 0.93511 0.39002 0.0
C3905 C 0.72577 0.94562 0.38952 0.0
C3906 C 0.72935 0.96031 0.38853 0.0
H3907 H 0.76217 0.98615 0.42186 0.0
H3908 H 0.75081 0.97124 0.41614 0.0
H3909 H 0.7691 0.97241 0.41006 0.0
H3910 H 0.76577 0.9576 0.38757 0.0
H3911 H 0.75963 0.93187 0.38939 0.0
H3912 H 0.94383 0.71869 0.38886 0.0
H3913 H 0.96908 0.72564 0.38646 0.0
H3914 H 0.95765 0.77071 0.38767 0.0
H3915 H 0.93233 0.76391 0.39021 0.0
H3916 H 0.98302 0.74337 0.36511 0.0
H3917 H 0.98735 0.76637 0.42073 0.0
H3918 H 0.9726 0.75477 0.41519 0.0
H3919 H 0.97316 0.7734 0.4097 0.0
C3920 C 0.94664 0.73009 0.38859 0.0
C3921 C 0.93602 0.74074 0.38986 0.0
C3922 C 0.96108 0.73403 0.38718 0.0
C3923 C 0.96522 0.74867 0.38709 0.0
C3924 C 0.95467 0.75934 0.38796 0.0
H3925 H 0.05026 0.78889 0.3894 0.0
H3926 H 0.0244 0.78461 0.38749 0.0
C3927 C 0.9402 0.75542 0.38934 0.0
C3928 C 0.98063 0.75268 0.38637 0.0
H3929 H 0.0079 0.76809 0.40596 0.0
C3930 C 0.98848 0.74882 0.37401 0.0
C3931 C 0.98767 0.75979 0.398 0.0
C3932 C 0.97984 0.76375 0.41173 0.0
C3933 C 0.00323 0.7519 0.37296 0.0
C3934 C 0.01033 0.75878 0.38471 0.0
C3935 C 0.00242 0.76284 0.39697 0.0
C3936 C 0.02605 0.76142 0.38479 0.0
C3937 C 0.01104 0.7479 0.35925 0.0
C3938 C 0.03556 0.74979 0.38391 0.0
C3939 C 0.05036 0.75218 0.38496 0.0
C3940 C 0.05595 0.76626 0.38706 0.0
C3941 C 0.04637 0.7779 0.38778 0.0
C3942 C 0.03157 0.77549 0.3867 0.0
H3943 H 0.00355 0.74675 0.34994 0.0
H3944 H 0.01938 0.75613 0.35651 0.0
H3945 H 0.0164 0.73736 0.3608 0.0
H3946 H 0.03152 0.73881 0.38276 0.0
H3947 H 0.05739 0.74294 0.38442 0.0
H3948 H 0.28473 0.05658 0.38849 0.0
H3949 H 0.27999 0.03067 0.38611 0.0
H3950 H 0.23447 0.03825 0.3882 0.0
H3951 H 0.23906 0.06429 0.39042 0.0
H3952 H 0.26584 0.01363 0.40638 0.0
H3953 H 0.23802 0.01116 0.35319 0.0
H3954 H 0.24833 0.02679 0.35905 0.0
H3955 H 0.2305 0.02374 0.36588 0.0
C3956 C 0.27368 0.0528 0.38831 0.0
C3957 C 0.26227 0.06256 0.38968 0.0
C3958 C 0.27101 0.03797 0.38694 0.0
C3959 C 0.25689 0.03256 0.38683 0.0
C3960 C 0.24545 0.04224 0.38798 0.0
H3961 H 0.21854 0.94711 0.38992 0.0
H3962 H 0.22357 0.97304 0.38841 0.0
C3963 C 0.2481 0.05711 0.38933 0.0
C3964 C 0.25424 0.01673 0.38646 0.0
H3965 H 0.23788 0.98958 0.36718 0.0
C3966 C 0.25981 0.00835 0.39776 0.0
C3967 C 0.24633 0.00991 0.37523 0.0
C3968 C 0.24054 0.01832 0.36257 0.0
C3969 C 0.25745 0.99334 0.39828 0.0
C3970 C 0.24954 0.98651 0.38705 0.0
C3971 C 0.24398 0.99487 0.37574 0.0
C3972 C 0.2466 0.97073 0.38712 0.0
C3973 C 0.26313 0.98499 0.41106 0.0
C3974 C 0.25789 0.96082 0.38658 0.0
C3975 C 0.25507 0.94595 0.3875 0.0
C3976 C 0.24089 0.94072 0.38888 0.0
C3977 C 0.22959 0.95071 0.38893 0.0
C3978 C 0.23243 0.96556 0.38804 0.0
H3979 H 0.26587 0.99223 0.42031 0.0
H3980 H 0.25516 0.97678 0.41476 0.0
H3981 H 0.27302 0.97927 0.40779 0.0
H3982 H 0.26889 0.9646 0.38558 0.0
H3983 H 0.26403 0.93859 0.38728 0.0
H3984 H 0.06671 0.2359 0.39003 0.0
H3985 H 0.04133 0.22957 0.38695 0.0
H3986 H 0.0307 0.27485 0.3863 0.0
H3987 H 0.056 0.28134 0.38925 0.0
H3988 H 0.01915 0.23727 0.406 0.0
H3989 H 0.00937 0.25848 0.35075 0.0
H3990 H 0.02718 0.25529 0.3577 0.0
H3991 H 0.01767 0.27132 0.36287 0.0
C3992 C 0.05901 0.24454 0.3891 0.0
C3993 C 0.06342 0.25915 0.3899 0.0
C3994 C 0.04451 0.24089 0.38733 0.0
C3995 C 0.03419 0.25174 0.3862 0.0
C3996 C 0.03854 0.26631 0.38686 0.0
H3997 H 0.94218 0.25759 0.38571 0.0
H3998 H 0.9681 0.26162 0.38445 0.0
C3999 C 0.05302 0.26999 0.38865 0.0
C4000 C 0.01876 0.24787 0.38529 0.0
H4001 H 0.98869 0.25211 0.36465 0.0
C4002 C 0.0125 0.24036 0.3969 0.0
C4003 C 0.01014 0.252 0.37341 0.0
C4004 C 0.01643 0.25961 0.36041 0.0
C4005 C 0.99773 0.23726 0.39719 0.0
C4006 C 0.98907 0.24153 0.38539 0.0
C4007 C 0.99537 0.24886 0.37367 0.0
C4008 C 0.97337 0.2389 0.38527 0.0
C4009 C 0.99147 0.2299 0.41036 0.0
C4010 C 0.96774 0.22476 0.3858 0.0
C4011 C 0.95293 0.2224 0.38661 0.0
C4012 C 0.94345 0.23415 0.38677 0.0
C4013 C 0.94913 0.24829 0.38568 0.0
C4014 C 0.96395 0.25063 0.38493 0.0
H4015 H 0.99885 0.23055 0.41981 0.0
H4016 H 0.98108 0.23479 0.41344 0.0
H4017 H 0.9895 0.21828 0.40787 0.0
H4018 H 0.97483 0.21555 0.38575 0.0
H4019 H 0.94894 0.21136 0.38728 0.0
H4020 H 0.28423 0.05382 0.60627 0.0
H4021 H 0.27891 0.02795 0.60843 0.0
H4022 H 0.23394 0.03712 0.61352 0.0
H4023 H 0.23906 0.06302 0.61121 0.0
H4024 H 0.26529 0.01211 0.63091 0.0
H4025 H 0.23489 0.00869 0.57918 0.0
H4026 H 0.24617 0.02403 0.58382 0.0
H4027 H 0.22861 0.02214 0.59167 0.0
C4028 C 0.27319 0.05038 0.60788 0.0
C4029 C 0.26205 0.06053 0.60842 0.0
C4030 C 0.27019 0.03558 0.60914 0.0
C4031 C 0.25602 0.03064 0.61091 0.0
C4032 C 0.24493 0.04072 0.61188 0.0
H4033 H 0.21636 0.94537 0.61278 0.0
H4034 H 0.22152 0.97127 0.6145 0.0
C4035 C 0.2479 0.05553 0.61061 0.0
C4036 C 0.25284 0.01491 0.61148 0.0
H4037 H 0.23512 0.98766 0.59367 0.0
C4038 C 0.2587 0.00673 0.62278 0.0
C4039 C 0.24428 0.00796 0.60082 0.0
C4040 C 0.23821 0.0161 0.5881 0.0
C4041 C 0.25603 0.99178 0.62383 0.0
C4042 C 0.24748 0.98483 0.61315 0.0
C4043 C 0.24162 0.99303 0.60188 0.0
C4044 C 0.24457 0.96903 0.61328 0.0
C4045 C 0.26217 0.98361 0.63648 0.0
C4046 C 0.25584 0.95916 0.61208 0.0
C4047 C 0.25294 0.9443 0.61114 0.0
C4048 C 0.2387 0.93904 0.61122 0.0
C4049 C 0.22746 0.94899 0.61265 0.0
C4050 C 0.23038 0.96382 0.61363 0.0
H4051 H 0.26502 0.99097 0.64561 0.0
H4052 H 0.25446 0.97526 0.64045 0.0
H4053 H 0.27208 0.97807 0.63299 0.0
H4054 H 0.26686 0.96296 0.61148 0.0
H4055 H 0.26187 0.93698 0.60999 0.0
H4056 H 0.93579 0.2354 0.60263 0.0
H4057 H 0.96102 0.22894 0.60616 0.0
H4058 H 0.97071 0.27271 0.61962 0.0
H4059 H 0.94571 0.27923 0.61624 0.0
H4060 H 0.98445 0.24174 0.59166 0.0
H4061 H 0.99027 0.24859 0.65087 0.0
H4062 H 0.973 0.24651 0.64214 0.0
H4063 H 0.98193 0.2639 0.6426 0.0
C4064 C 0.94326 0.24359 0.60654 0.0
C4065 C 0.93871 0.25785 0.60911 0.0
C4066 C 0.95766 0.23988 0.60854 0.0
C4067 C 0.96768 0.25029 0.61337 0.0
C4068 C 0.9631 0.26442 0.61619 0.0
H4069 H 0.05334 0.27578 0.61673 0.0
H4070 H 0.02766 0.27098 0.61863 0.0
C4071 C 0.9488 0.26816 0.61412 0.0
C4072 C 0.98316 0.24695 0.61435 0.0
H4073 H 0.01208 0.25082 0.63681 0.0
C4074 C 0.99049 0.24334 0.60159 0.0
C4075 C 0.99098 0.24901 0.62734 0.0
C4076 C 0.98361 0.25207 0.64154 0.0
C4077 C 0.00555 0.24285 0.60124 0.0
C4078 C 0.01341 0.24587 0.61404 0.0
C4079 C 0.00603 0.24857 0.62699 0.0
C4080 C 0.02916 0.24813 0.61379 0.0
C4081 C 0.01299 0.24009 0.58701 0.0
C4082 C 0.03857 0.23678 0.6107 0.0
C4083 C 0.05336 0.23948 0.60959 0.0
C4084 C 0.05894 0.2536 0.61152 0.0
C4085 C 0.04945 0.2648 0.61504 0.0
C4086 C 0.03475 0.26208 0.6162 0.0
H4087 H 0.00535 0.23975 0.57775 0.0
H4088 H 0.02121 0.24863 0.58492 0.0
H4089 H 0.01855 0.22955 0.58749 0.0
H4090 H 0.03446 0.2259 0.60898 0.0
H4091 H 0.06036 0.23059 0.60692 0.0
H4092 H 0.06471 0.76053 0.60484 0.0
H4093 H 0.03963 0.76731 0.60873 0.0
H4094 H 0.02891 0.72298 0.61894 0.0
H4095 H 0.05378 0.71612 0.6152 0.0
H4096 H 0.01602 0.75599 0.59319 0.0
H4097 H 0.00975 0.74553 0.65177 0.0
H4098 H 0.0271 0.74779 0.64329 0.0
H4099 H 0.0178 0.73061 0.64247 0.0
C4100 C 0.05705 0.75227 0.60812 0.0
C4101 C 0.06127 0.73777 0.60968 0.0
C4102 C 0.04273 0.75617 0.61032 0.0
C4103 C 0.03247 0.74569 0.61434 0.0
C4104 C 0.03672 0.7313 0.61616 0.0
H4105 H 0.94624 0.72219 0.61618 0.0
H4106 H 0.972 0.72626 0.61837 0.0
C4107 C 0.05094 0.72738 0.61388 0.0
C4108 C 0.01707 0.74932 0.61548 0.0
H4109 H 0.98798 0.74482 0.6375 0.0
C4110 C 0.0099 0.75391 0.60296 0.0
C4111 C 0.00915 0.74666 0.62826 0.0
C4112 C 0.01637 0.74252 0.64225 0.0
C4113 C 0.99486 0.7548 0.60258 0.0
C4114 C 0.98688 0.75119 0.61511 0.0
C4115 C 0.99413 0.74751 0.62788 0.0
C4116 C 0.97107 0.74933 0.61465 0.0
C4117 C 0.98758 0.75863 0.58852 0.0
C4118 C 0.96195 0.76103 0.61207 0.0
C4119 C 0.94711 0.75875 0.61077 0.0
C4120 C 0.94118 0.74471 0.61202 0.0
C4121 C 0.95039 0.73313 0.61503 0.0
C4122 C 0.96514 0.73543 0.61635 0.0
H4123 H 0.99525 0.7592 0.57932 0.0
H4124 H 0.97906 0.75053 0.58587 0.0
H4125 H 0.98242 0.76933 0.58964 0.0
H4126 H 0.96632 0.77188 0.61092 0.0
H4127 H 0.94034 0.76792 0.60853 0.0
loop_
_geom_bond_atom_site_label_1
_geom_bond_atom_site_label_2
_geom_bond_distance
_geom_bond_site_symmetry_2
_ccdc_geom_bond_type
Co0 O1 2.216 . S
Co0 O2 2.091 . S
Co0 O4 2.004 . S
Co0 O10 2.021 . S
Co0 O12 2.137 . S
Co0 O13 2.244 . S
O1 Co0 2.216 . S
O1 C8 1.247 . S
O2 Co0 2.091 . S
O2 C8 1.261 . S
C3 O12 1.247 . S
C3 O13 1.272 . S
O4 Co0 2.004 . S
O4 C9 1.259 . S
Co5 O6 2.061 . S
Co5 O11 2.052 . S
Co5 O13 2.135 . S
O6 Co5 2.061 . S
O6 C9 1.235 . S
C7 O10 1.238 . S
C7 O11 1.241 . S
C8 O1 1.247 . S
C8 O2 1.261 . S
C9 O4 1.259 . S
C9 O6 1.235 . S
O10 Co0 2.021 . S
O10 C7 1.238 . S
O11 Co5 2.052 . S
O11 C7 1.241 . S
O12 Co0 2.137 . S
O12 C3 1.247 . S
O13 Co0 2.244 . S
O13 C3 1.272 . S
O13 Co5 2.135 . S
Co14 O15 2.216 . S
Co14 O16 2.091 . S
Co14 O18 2.004 . S
Co14 O24 2.021 . S
Co14 O26 2.137 . S
Co14 O27 2.244 . S
O15 Co14 2.216 . S
O15 C22 1.247 . S
O16 Co14 2.091 . S
O16 C22 1.261 . S
C17 O26 1.247 . S
C17 O27 1.272 . S
O18 Co14 2.004 . S
O18 C23 1.259 . S
Co19 O20 2.061 . S
Co19 O25 2.052 . S
Co19 O27 2.135 . S
O20 Co19 2.061 . S
O20 C23 1.235 . S
C21 O24 1.238 . S
C21 O25 1.241 . S
C22 O15 1.247 . S
C22 O16 1.261 . S
C23 O18 1.259 . S
C23 O20 1.235 . S
O24 Co14 2.021 . S
O24 C21 1.238 . S
O25 Co19 2.052 . S
O25 C21 1.241 . S
O26 Co14 2.137 . S
O26 C17 1.247 . S
O27 Co14 2.244 . S
O27 C17 1.272 . S
O27 Co19 2.135 . S
Co28 O29 2.216 . S
Co28 O30 2.091 . S
Co28 O32 2.004 . S
Co28 O38 2.021 . S
Co28 O40 2.137 . S
Co28 O41 2.244 . S
O29 Co28 2.216 . S
O29 C36 1.247 . S
O30 Co28 2.091 . S
O30 C36 1.261 . S
C31 O40 1.247 . S
C31 O41 1.272 . S
O32 Co28 2.004 . S
O32 C37 1.259 . S
Co33 O34 2.061 . S
Co33 O39 2.052 . S
Co33 O41 2.135 . S
O34 Co33 2.061 . S
O34 C37 1.235 . S
C35 O38 1.238 . S
C35 O39 1.241 . S
C36 O29 1.247 . S
C36 O30 1.261 . S
C37 O32 1.259 . S
C37 O34 1.235 . S
O38 Co28 2.021 . S
O38 C35 1.238 . S
O39 Co33 2.052 . S
O39 C35 1.241 . S
O40 Co28 2.137 . S
O40 C31 1.247 . S
O41 Co28 2.244 . S
O41 C31 1.272 . S
O41 Co33 2.135 . S
Co42 O43 2.216 . S
Co42 O44 2.091 . S
Co42 O46 2.004 . S
Co42 O52 2.021 . S
Co42 O54 2.137 . S
Co42 O55 2.244 . S
O43 Co42 2.216 . S
O43 C50 1.247 . S
O44 Co42 2.091 . S
O44 C50 1.261 . S
C45 O54 1.247 . S
C45 O55 1.272 . S
O46 Co42 2.004 . S
O46 C51 1.259 . S
Co47 O48 2.061 . S
Co47 O53 2.052 . S
Co47 O55 2.135 . S
O48 Co47 2.061 . S
O48 C51 1.235 . S
C49 O52 1.238 . S
C49 O53 1.241 . S
C50 O43 1.247 . S
C50 O44 1.261 . S
C51 O46 1.259 . S
C51 O48 1.235 . S
O52 Co42 2.021 . S
O52 C49 1.238 . S
O53 Co47 2.052 . S
O53 C49 1.241 . S
O54 Co42 2.137 . S
O54 C45 1.247 . S
O55 Co42 2.244 . S
O55 C45 1.272 . S
O55 Co47 2.135 . S
Co56 O57 2.216 . S
Co56 O58 2.091 . S
Co56 O60 2.004 . S
Co56 O66 2.021 . S
Co56 O68 2.137 . S
Co56 O69 2.244 . S
O57 Co56 2.216 . S
O57 C64 1.247 . S
O58 Co56 2.091 . S
O58 C64 1.261 . S
C59 O68 1.247 . S
C59 O69 1.272 . S
O60 Co56 2.004 . S
O60 C65 1.259 . S
Co61 O62 2.061 . S
Co61 O67 2.052 . S
Co61 O69 2.135 . S
O62 Co61 2.061 . S
O62 C65 1.235 . S
C63 O66 1.238 . S
C63 O67 1.241 . S
C64 O57 1.247 . S
C64 O58 1.261 . S
C65 O60 1.259 . S
C65 O62 1.235 . S
O66 Co56 2.021 . S
O66 C63 1.238 . S
O67 Co61 2.052 . S
O67 C63 1.241 . S
O68 Co56 2.137 . S
O68 C59 1.247 . S
O69 Co56 2.244 . S
O69 C59 1.272 . S
O69 Co61 2.135 . S
Co70 O71 2.216 . S
Co70 O72 2.091 . S
Co70 O74 2.004 . S
Co70 O80 2.021 . S
Co70 O82 2.137 . S
Co70 O83 2.244 . S
O71 Co70 2.216 . S
O71 C78 1.247 . S
O72 Co70 2.091 . S
O72 C78 1.261 . S
C73 O82 1.247 . S
C73 O83 1.272 . S
O74 Co70 2.004 . S
O74 C79 1.259 . S
Co75 O76 2.061 . S
Co75 O81 2.052 . S
Co75 O83 2.135 . S
O76 Co75 2.061 . S
O76 C79 1.235 . S
C77 O80 1.238 . S
C77 O81 1.241 . S
C78 O71 1.247 . S
C78 O72 1.261 . S
C79 O74 1.259 . S
C79 O76 1.235 . S
O80 Co70 2.021 . S
O80 C77 1.238 . S
O81 Co75 2.052 . S
O81 C77 1.241 . S
O82 Co70 2.137 . S
O82 C73 1.247 . S
O83 Co70 2.244 . S
O83 C73 1.272 . S
O83 Co75 2.135 . S
Co84 O85 2.216 . S
Co84 O86 2.091 . S
Co84 O88 2.004 . S
Co84 O94 2.021 . S
Co84 O96 2.137 . S
Co84 O97 2.244 . S
O85 Co84 2.216 . S
O85 C92 1.247 . S
O86 Co84 2.091 . S
O86 C92 1.261 . S
C87 O96 1.247 . S
C87 O97 1.272 . S
O88 Co84 2.004 . S
O88 C93 1.259 . S
Co89 O90 2.061 . S
Co89 O95 2.052 . S
Co89 O97 2.135 . S
O90 Co89 2.061 . S
O90 C93 1.235 . S
C91 O94 1.238 . S
C91 O95 1.241 . S
C92 O85 1.247 . S
C92 O86 1.261 . S
C93 O88 1.259 . S
C93 O90 1.235 . S
O94 Co84 2.021 . S
O94 C91 1.238 . S
O95 Co89 2.052 . S
O95 C91 1.241 . S
O96 Co84 2.137 . S
O96 C87 1.247 . S
O97 Co84 2.244 . S
O97 C87 1.272 . S
O97 Co89 2.135 . S
Co98 O99 2.216 . S
Co98 O100 2.091 . S
Co98 O102 2.004 . S
Co98 O108 2.021 . S
Co98 O110 2.137 . S
Co98 O111 2.244 . S
O99 Co98 2.216 . S
O99 C106 1.247 . S
O100 Co98 2.091 . S
O100 C106 1.261 . S
C101 O110 1.247 . S
C101 O111 1.272 . S
O102 Co98 2.004 . S
O102 C107 1.259 . S
Co103 O104 2.061 . S
Co103 O109 2.052 . S
Co103 O111 2.135 . S
O104 Co103 2.061 . S
O104 C107 1.235 . S
C105 O108 1.238 . S
C105 O109 1.241 . S
C106 O99 1.247 . S
C106 O100 1.261 . S
C107 O102 1.259 . S
C107 O104 1.235 . S
O108 Co98 2.021 . S
O108 C105 1.238 . S
O109 Co103 2.052 . S
O109 C105 1.241 . S
O110 Co98 2.137 . S
O110 C101 1.247 . S
O111 Co98 2.244 . S
O111 C101 1.272 . S
O111 Co103 2.135 . S
Co112 O113 2.216 . S
Co112 O114 2.091 . S
Co112 O116 2.004 . S
Co112 O122 2.021 . S
Co112 O124 2.137 . S
Co112 O125 2.244 . S
O113 Co112 2.216 . S
O113 C120 1.247 . S
O114 Co112 2.091 . S
O114 C120 1.261 . S
C115 O124 1.247 . S
C115 O125 1.272 . S
O116 Co112 2.004 . S
O116 C121 1.259 . S
Co117 O118 2.061 . S
Co117 O123 2.052 . S
Co117 O125 2.135 . S
O118 Co117 2.061 . S
O118 C121 1.235 . S
C119 O122 1.238 . S
C119 O123 1.241 . S
C120 O113 1.247 . S
C120 O114 1.261 . S
C121 O116 1.259 . S
C121 O118 1.235 . S
O122 Co112 2.021 . S
O122 C119 1.238 . S
O123 Co117 2.052 . S
O123 C119 1.241 . S
O124 Co112 2.137 . S
O124 C115 1.247 . S
O125 Co112 2.244 . S
O125 C115 1.272 . S
O125 Co117 2.135 . S
Co126 O127 2.216 . S
Co126 O128 2.091 . S
Co126 O130 2.004 . S
Co126 O136 2.021 . S
Co126 O138 2.137 . S
Co126 O139 2.244 . S
O127 Co126 2.216 . S
O127 C134 1.247 . S
O128 Co126 2.091 . S
O128 C134 1.261 . S
C129 O138 1.247 . S
C129 O139 1.272 . S
O130 Co126 2.004 . S
O130 C135 1.259 . S
Co131 O132 2.061 . S
Co131 O137 2.052 . S
Co131 O139 2.135 . S
O132 Co131 2.061 . S
O132 C135 1.235 . S
C133 O136 1.238 . S
C133 O137 1.241 . S
C134 O127 1.247 . S
C134 O128 1.261 . S
C135 O130 1.259 . S
C135 O132 1.235 . S
O136 Co126 2.021 . S
O136 C133 1.238 . S
O137 Co131 2.052 . S
O137 C133 1.241 . S
O138 Co126 2.137 . S
O138 C129 1.247 . S
O139 Co126 2.244 . S
O139 C129 1.272 . S
O139 Co131 2.135 . S
Co140 O141 2.216 . S
Co140 O142 2.091 . S
Co140 O144 2.004 . S
Co140 O150 2.021 . S
Co140 O152 2.137 . S
Co140 O153 2.244 . S
O141 Co140 2.216 . S
O141 C148 1.247 . S
O142 Co140 2.091 . S
O142 C148 1.261 . S
C143 O152 1.247 . S
C143 O153 1.272 . S
O144 Co140 2.004 . S
O144 C149 1.259 . S
Co145 O146 2.061 . S
Co145 O151 2.052 . S
Co145 O153 2.135 . S
O146 Co145 2.061 . S
O146 C149 1.235 . S
C147 O150 1.238 . S
C147 O151 1.241 . S
C148 O141 1.247 . S
C148 O142 1.261 . S
C149 O144 1.259 . S
C149 O146 1.235 . S
O150 Co140 2.021 . S
O150 C147 1.238 . S
O151 Co145 2.052 . S
O151 C147 1.241 . S
O152 Co140 2.137 . S
O152 C143 1.247 . S
O153 Co140 2.244 . S
O153 C143 1.272 . S
O153 Co145 2.135 . S
Co154 O155 2.216 . S
Co154 O156 2.091 . S
Co154 O158 2.004 . S
Co154 O164 2.021 . S
Co154 O166 2.137 . S
Co154 O167 2.244 . S
O155 Co154 2.216 . S
O155 C162 1.247 . S
O156 Co154 2.091 . S
O156 C162 1.261 . S
C157 O166 1.247 . S
C157 O167 1.272 . S
O158 Co154 2.004 . S
O158 C163 1.259 . S
Co159 O160 2.061 . S
Co159 O165 2.052 . S
Co159 O167 2.135 . S
O160 Co159 2.061 . S
O160 C163 1.235 . S
C161 O164 1.238 . S
C161 O165 1.241 . S
C162 O155 1.247 . S
C162 O156 1.261 . S
C163 O158 1.259 . S
C163 O160 1.235 . S
O164 Co154 2.021 . S
O164 C161 1.238 . S
O165 Co159 2.052 . S
O165 C161 1.241 . S
O166 Co154 2.137 . S
O166 C157 1.247 . S
O167 Co154 2.244 . S
O167 C157 1.272 . S
O167 Co159 2.135 . S
Co168 O169 2.216 . S
Co168 O170 2.091 . S
Co168 O172 2.004 . S
Co168 O178 2.021 . S
Co168 O180 2.137 . S
Co168 O181 2.244 . S
O169 Co168 2.216 . S
O169 C176 1.247 . S
O170 Co168 2.091 . S
O170 C176 1.261 . S
C171 O180 1.247 . S
C171 O181 1.272 . S
O172 Co168 2.004 . S
O172 C177 1.259 . S
Co173 O174 2.061 . S
Co173 O179 2.052 . S
Co173 O181 2.135 . S
O174 Co173 2.061 . S
O174 C177 1.235 . S
C175 O178 1.238 . S
C175 O179 1.241 . S
C176 O169 1.247 . S
C176 O170 1.261 . S
C177 O172 1.259 . S
C177 O174 1.235 . S
O178 Co168 2.021 . S
O178 C175 1.238 . S
O179 Co173 2.052 . S
O179 C175 1.241 . S
O180 Co168 2.137 . S
O180 C171 1.247 . S
O181 Co168 2.244 . S
O181 C171 1.272 . S
O181 Co173 2.135 . S
Co182 O183 2.216 . S
Co182 O184 2.091 . S
Co182 O186 2.004 . S
Co182 O192 2.021 . S
Co182 O194 2.137 . S
Co182 O195 2.244 . S
O183 Co182 2.216 . S
O183 C190 1.247 . S
O184 Co182 2.091 . S
O184 C190 1.261 . S
C185 O194 1.247 . S
C185 O195 1.272 . S
O186 Co182 2.004 . S
O186 C191 1.259 . S
Co187 O188 2.061 . S
Co187 O193 2.052 . S
Co187 O195 2.135 . S
O188 Co187 2.061 . S
O188 C191 1.235 . S
C189 O192 1.238 . S
C189 O193 1.241 . S
C190 O183 1.247 . S
C190 O184 1.261 . S
C191 O186 1.259 . S
C191 O188 1.235 . S
O192 Co182 2.021 . S
O192 C189 1.238 . S
O193 Co187 2.052 . S
O193 C189 1.241 . S
O194 Co182 2.137 . S
O194 C185 1.247 . S
O195 Co182 2.244 . S
O195 C185 1.272 . S
O195 Co187 2.135 . S
Co196 O197 2.216 . S
Co196 O198 2.091 . S
Co196 O200 2.004 . S
Co196 O206 2.021 . S
Co196 O208 2.137 . S
Co196 O209 2.244 . S
O197 Co196 2.216 . S
O197 C204 1.247 . S
O198 Co196 2.091 . S
O198 C204 1.261 . S
C199 O208 1.247 . S
C199 O209 1.272 . S
O200 Co196 2.004 . S
O200 C205 1.259 . S
Co201 O202 2.061 . S
Co201 O207 2.052 . S
Co201 O209 2.135 . S
O202 Co201 2.061 . S
O202 C205 1.235 . S
C203 O206 1.238 . S
C203 O207 1.241 . S
C204 O197 1.247 . S
C204 O198 1.261 . S
C205 O200 1.259 . S
C205 O202 1.235 . S
O206 Co196 2.021 . S
O206 C203 1.238 . S
O207 Co201 2.052 . S
O207 C203 1.241 . S
O208 Co196 2.137 . S
O208 C199 1.247 . S
O209 Co196 2.244 . S
O209 C199 1.272 . S
O209 Co201 2.135 . S
Co210 O211 2.216 . S
Co210 O212 2.091 . S
Co210 O214 2.004 . S
Co210 O220 2.021 . S
Co210 O222 2.137 . S
Co210 O223 2.244 . S
O211 Co210 2.216 . S
O211 C218 1.247 . S
O212 Co210 2.091 . S
O212 C218 1.261 . S
C213 O222 1.247 . S
C213 O223 1.272 . S
O214 Co210 2.004 . S
O214 C219 1.259 . S
Co215 O216 2.061 . S
Co215 O221 2.052 . S
Co215 O223 2.135 . S
O216 Co215 2.061 . S
O216 C219 1.235 . S
C217 O220 1.238 . S
C217 O221 1.241 . S
C218 O211 1.247 . S
C218 O212 1.261 . S
C219 O214 1.259 . S
C219 O216 1.235 . S
O220 Co210 2.021 . S
O220 C217 1.238 . S
O221 Co215 2.052 . S
O221 C217 1.241 . S
O222 Co210 2.137 . S
O222 C213 1.247 . S
O223 Co210 2.244 . S
O223 C213 1.272 . S
O223 Co215 2.135 . S
Co224 O225 2.216 . S
Co224 O226 2.091 . S
Co224 O228 2.004 . S
Co224 O234 2.021 . S
Co224 O236 2.137 . S
Co224 O237 2.244 . S
O225 Co224 2.216 . S
O225 C232 1.247 . S
O226 Co224 2.091 . S
O226 C232 1.261 . S
C227 O236 1.247 . S
C227 O237 1.272 . S
O228 Co224 2.004 . S
O228 C233 1.259 . S
Co229 O230 2.061 . S
Co229 O235 2.052 . S
Co229 O237 2.135 . S
O230 Co229 2.061 . S
O230 C233 1.235 . S
C231 O234 1.238 . S
C231 O235 1.241 . S
C232 O225 1.247 . S
C232 O226 1.261 . S
C233 O228 1.259 . S
C233 O230 1.235 . S
O234 Co224 2.021 . S
O234 C231 1.238 . S
O235 Co229 2.052 . S
O235 C231 1.241 . S
O236 Co224 2.137 . S
O236 C227 1.247 . S
O237 Co224 2.244 . S
O237 C227 1.272 . S
O237 Co229 2.135 . S
Co238 O239 2.216 . S
Co238 O240 2.091 . S
Co238 O242 2.004 . S
Co238 O248 2.021 . S
Co238 O250 2.137 . S
Co238 O251 2.244 . S
O239 Co238 2.216 . S
O239 C246 1.247 . S
O240 Co238 2.091 . S
O240 C246 1.261 . S
C241 O250 1.247 . S
C241 O251 1.272 . S
O242 Co238 2.004 . S
O242 C247 1.259 . S
Co243 O244 2.061 . S
Co243 O249 2.052 . S
Co243 O251 2.135 . S
O244 Co243 2.061 . S
O244 C247 1.235 . S
C245 O248 1.238 . S
C245 O249 1.241 . S
C246 O239 1.247 . S
C246 O240 1.261 . S
C247 O242 1.259 . S
C247 O244 1.235 . S
O248 Co238 2.021 . S
O248 C245 1.238 . S
O249 Co243 2.052 . S
O249 C245 1.241 . S
O250 Co238 2.137 . S
O250 C241 1.247 . S
O251 Co238 2.244 . S
O251 C241 1.272 . S
O251 Co243 2.135 . S
Co252 O253 2.216 . S
Co252 O254 2.091 . S
Co252 O256 2.004 . S
Co252 O262 2.021 . S
Co252 O264 2.137 . S
Co252 O265 2.244 . S
O253 Co252 2.216 . S
O253 C260 1.247 . S
O254 Co252 2.091 . S
O254 C260 1.261 . S
C255 O264 1.247 . S
C255 O265 1.272 . S
O256 Co252 2.004 . S
O256 C261 1.259 . S
Co257 O258 2.061 . S
Co257 O263 2.052 . S
Co257 O265 2.135 . S
O258 Co257 2.061 . S
O258 C261 1.235 . S
C259 O262 1.238 . S
C259 O263 1.241 . S
C260 O253 1.247 . S
C260 O254 1.261 . S
C261 O256 1.259 . S
C261 O258 1.235 . S
O262 Co252 2.021 . S
O262 C259 1.238 . S
O263 Co257 2.052 . S
O263 C259 1.241 . S
O264 Co252 2.137 . S
O264 C255 1.247 . S
O265 Co252 2.244 . S
O265 C255 1.272 . S
O265 Co257 2.135 . S
Co266 O267 2.216 . S
Co266 O268 2.091 . S
Co266 O270 2.004 . S
Co266 O276 2.021 . S
Co266 O278 2.137 . S
Co266 O279 2.244 . S
O267 Co266 2.216 . S
O267 C274 1.247 . S
O268 Co266 2.091 . S
O268 C274 1.261 . S
C269 O278 1.247 . S
C269 O279 1.272 . S
O270 Co266 2.004 . S
O270 C275 1.259 . S
Co271 O272 2.061 . S
Co271 O277 2.052 . S
Co271 O279 2.135 . S
O272 Co271 2.061 . S
O272 C275 1.235 . S
C273 O276 1.238 . S
C273 O277 1.241 . S
C274 O267 1.247 . S
C274 O268 1.261 . S
C275 O270 1.259 . S
C275 O272 1.235 . S
O276 Co266 2.021 . S
O276 C273 1.238 . S
O277 Co271 2.052 . S
O277 C273 1.241 . S
O278 Co266 2.137 . S
O278 C269 1.247 . S
O279 Co266 2.244 . S
O279 C269 1.272 . S
O279 Co271 2.135 . S
Co280 O281 2.216 . S
Co280 O282 2.091 . S
Co280 O284 2.004 . S
Co280 O290 2.021 . S
Co280 O292 2.137 . S
Co280 O293 2.244 . S
O281 Co280 2.216 . S
O281 C288 1.247 . S
O282 Co280 2.091 . S
O282 C288 1.261 . S
C283 O292 1.247 . S
C283 O293 1.272 . S
O284 Co280 2.004 . S
O284 C289 1.259 . S
Co285 O286 2.061 . S
Co285 O291 2.052 . S
Co285 O293 2.135 . S
O286 Co285 2.061 . S
O286 C289 1.235 . S
C287 O290 1.238 . S
C287 O291 1.241 . S
C288 O281 1.247 . S
C288 O282 1.261 . S
C289 O284 1.259 . S
C289 O286 1.235 . S
O290 Co280 2.021 . S
O290 C287 1.238 . S
O291 Co285 2.052 . S
O291 C287 1.241 . S
O292 Co280 2.137 . S
O292 C283 1.247 . S
O293 Co280 2.244 . S
O293 C283 1.272 . S
O293 Co285 2.135 . S
Co294 O295 2.216 . S
Co294 O296 2.091 . S
Co294 O298 2.004 . S
Co294 O304 2.021 . S
Co294 O306 2.137 . S
Co294 O307 2.244 . S
O295 Co294 2.216 . S
O295 C302 1.247 . S
O296 Co294 2.091 . S
O296 C302 1.261 . S
C297 O306 1.247 . S
C297 O307 1.272 . S
O298 Co294 2.004 . S
O298 C303 1.259 . S
Co299 O300 2.061 . S
Co299 O305 2.052 . S
Co299 O307 2.135 . S
O300 Co299 2.061 . S
O300 C303 1.235 . S
C301 O304 1.238 . S
C301 O305 1.241 . S
C302 O295 1.247 . S
C302 O296 1.261 . S
C303 O298 1.259 . S
C303 O300 1.235 . S
O304 Co294 2.021 . S
O304 C301 1.238 . S
O305 Co299 2.052 . S
O305 C301 1.241 . S
O306 Co294 2.137 . S
O306 C297 1.247 . S
O307 Co294 2.244 . S
O307 C297 1.272 . S
O307 Co299 2.135 . S
Co308 O309 2.216 . S
Co308 O310 2.091 . S
Co308 O312 2.004 . S
Co308 O318 2.021 . S
Co308 O320 2.137 . S
Co308 O321 2.244 . S
O309 Co308 2.216 . S
O309 C316 1.247 . S
O310 Co308 2.091 . S
O310 C316 1.261 . S
C311 O320 1.247 . S
C311 O321 1.272 . S
O312 Co308 2.004 . S
O312 C317 1.259 . S
Co313 O314 2.061 . S
Co313 O319 2.052 . S
Co313 O321 2.135 . S
O314 Co313 2.061 . S
O314 C317 1.235 . S
C315 O318 1.238 . S
C315 O319 1.241 . S
C316 O309 1.247 . S
C316 O310 1.261 . S
C317 O312 1.259 . S
C317 O314 1.235 . S
O318 Co308 2.021 . S
O318 C315 1.238 . S
O319 Co313 2.052 . S
O319 C315 1.241 . S
O320 Co308 2.137 . S
O320 C311 1.247 . S
O321 Co308 2.244 . S
O321 C311 1.272 . S
O321 Co313 2.135 . S
Co322 O323 2.216 . S
Co322 O324 2.091 . S
Co322 O326 2.004 . S
Co322 O332 2.021 . S
Co322 O334 2.137 . S
Co322 O335 2.244 . S
O323 Co322 2.216 . S
O323 C330 1.247 . S
O324 Co322 2.091 . S
O324 C330 1.261 . S
C325 O334 1.247 . S
C325 O335 1.272 . S
O326 Co322 2.004 . S
O326 C331 1.259 . S
Co327 O328 2.061 . S
Co327 O333 2.052 . S
Co327 O335 2.135 . S
O328 Co327 2.061 . S
O328 C331 1.235 . S
C329 O332 1.238 . S
C329 O333 1.241 . S
C330 O323 1.247 . S
C330 O324 1.261 . S
C331 O326 1.259 . S
C331 O328 1.235 . S
O332 Co322 2.021 . S
O332 C329 1.238 . S
O333 Co327 2.052 . S
O333 C329 1.241 . S
O334 Co322 2.137 . S
O334 C325 1.247 . S
O335 Co322 2.244 . S
O335 C325 1.272 . S
O335 Co327 2.135 . S
Co336 O337 2.216 . S
Co336 O338 2.091 . S
Co336 O340 2.004 . S
Co336 O346 2.021 . S
Co336 O348 2.137 . S
Co336 O349 2.244 . S
O337 Co336 2.216 . S
O337 C344 1.247 . S
O338 Co336 2.091 . S
O338 C344 1.261 . S
C339 O348 1.247 . S
C339 O349 1.272 . S
O340 Co336 2.004 . S
O340 C345 1.259 . S
Co341 O342 2.061 . S
Co341 O347 2.052 . S
Co341 O349 2.135 . S
O342 Co341 2.061 . S
O342 C345 1.235 . S
C343 O346 1.238 . S
C343 O347 1.241 . S
C344 O337 1.247 . S
C344 O338 1.261 . S
C345 O340 1.259 . S
C345 O342 1.235 . S
O346 Co336 2.021 . S
O346 C343 1.238 . S
O347 Co341 2.052 . S
O347 C343 1.241 . S
O348 Co336 2.137 . S
O348 C339 1.247 . S
O349 Co336 2.244 . S
O349 C339 1.272 . S
O349 Co341 2.135 . S
Co350 O351 2.216 . S
Co350 O352 2.091 . S
Co350 O354 2.004 . S
Co350 O360 2.021 . S
Co350 O362 2.137 . S
Co350 O363 2.244 . S
O351 Co350 2.216 . S
O351 C358 1.247 . S
O352 Co350 2.091 . S
O352 C358 1.261 . S
C353 O362 1.247 . S
C353 O363 1.272 . S
O354 Co350 2.004 . S
O354 C359 1.259 . S
Co355 O356 2.061 . S
Co355 O361 2.052 . S
Co355 O363 2.135 . S
O356 Co355 2.061 . S
O356 C359 1.235 . S
C357 O360 1.238 . S
C357 O361 1.241 . S
C358 O351 1.247 . S
C358 O352 1.261 . S
C359 O354 1.259 . S
C359 O356 1.235 . S
O360 Co350 2.021 . S
O360 C357 1.238 . S
O361 Co355 2.052 . S
O361 C357 1.241 . S
O362 Co350 2.137 . S
O362 C353 1.247 . S
O363 Co350 2.244 . S
O363 C353 1.272 . S
O363 Co355 2.135 . S
Co364 O365 2.216 . S
Co364 O366 2.091 . S
Co364 O368 2.004 . S
Co364 O374 2.021 . S
Co364 O376 2.137 . S
Co364 O377 2.244 . S
O365 Co364 2.216 . S
O365 C372 1.247 . S
O366 Co364 2.091 . S
O366 C372 1.261 . S
C367 O376 1.247 . S
C367 O377 1.272 . S
O368 Co364 2.004 . S
O368 C373 1.259 . S
Co369 O370 2.061 . S
Co369 O375 2.052 . S
Co369 O377 2.135 . S
O370 Co369 2.061 . S
O370 C373 1.235 . S
C371 O374 1.238 . S
C371 O375 1.241 . S
C372 O365 1.247 . S
C372 O366 1.261 . S
C373 O368 1.259 . S
C373 O370 1.235 . S
O374 Co364 2.021 . S
O374 C371 1.238 . S
O375 Co369 2.052 . S
O375 C371 1.241 . S
O376 Co364 2.137 . S
O376 C367 1.247 . S
O377 Co364 2.244 . S
O377 C367 1.272 . S
O377 Co369 2.135 . S
Co378 O379 2.216 . S
Co378 O380 2.091 . S
Co378 O382 2.004 . S
Co378 O388 2.021 . S
Co378 O390 2.137 . S
Co378 O391 2.244 . S
O379 Co378 2.216 . S
O379 C386 1.247 . S
O380 Co378 2.091 . S
O380 C386 1.261 . S
C381 O390 1.247 . S
C381 O391 1.272 . S
O382 Co378 2.004 . S
O382 C387 1.259 . S
Co383 O384 2.061 . S
Co383 O389 2.052 . S
Co383 O391 2.135 . S
O384 Co383 2.061 . S
O384 C387 1.235 . S
C385 O388 1.238 . S
C385 O389 1.241 . S
C386 O379 1.247 . S
C386 O380 1.261 . S
C387 O382 1.259 . S
C387 O384 1.235 . S
O388 Co378 2.021 . S
O388 C385 1.238 . S
O389 Co383 2.052 . S
O389 C385 1.241 . S
O390 Co378 2.137 . S
O390 C381 1.247 . S
O391 Co378 2.244 . S
O391 C381 1.272 . S
O391 Co383 2.135 . S
Co392 O393 2.216 . S
Co392 O394 2.091 . S
Co392 O396 2.004 . S
Co392 O402 2.021 . S
Co392 O404 2.137 . S
Co392 O405 2.244 . S
O393 Co392 2.216 . S
O393 C400 1.247 . S
O394 Co392 2.091 . S
O394 C400 1.261 . S
C395 O404 1.247 . S
C395 O405 1.272 . S
O396 Co392 2.004 . S
O396 C401 1.259 . S
Co397 O398 2.061 . S
Co397 O403 2.052 . S
Co397 O405 2.135 . S
O398 Co397 2.061 . S
O398 C401 1.235 . S
C399 O402 1.238 . S
C399 O403 1.241 . S
C400 O393 1.247 . S
C400 O394 1.261 . S
C401 O396 1.259 . S
C401 O398 1.235 . S
O402 Co392 2.021 . S
O402 C399 1.238 . S
O403 Co397 2.052 . S
O403 C399 1.241 . S
O404 Co392 2.137 . S
O404 C395 1.247 . S
O405 Co392 2.244 . S
O405 C395 1.272 . S
O405 Co397 2.135 . S
Co406 O407 2.216 . S
Co406 O408 2.091 . S
Co406 O410 2.004 . S
Co406 O416 2.021 . S
Co406 O418 2.137 . S
Co406 O419 2.244 . S
O407 Co406 2.216 . S
O407 C414 1.247 . S
O408 Co406 2.091 . S
O408 C414 1.261 . S
C409 O418 1.247 . S
C409 O419 1.272 . S
O410 Co406 2.004 . S
O410 C415 1.259 . S
Co411 O412 2.061 . S
Co411 O417 2.052 . S
Co411 O419 2.135 . S
O412 Co411 2.061 . S
O412 C415 1.235 . S
C413 O416 1.238 . S
C413 O417 1.241 . S
C414 O407 1.247 . S
C414 O408 1.261 . S
C415 O410 1.259 . S
C415 O412 1.235 . S
O416 Co406 2.021 . S
O416 C413 1.238 . S
O417 Co411 2.052 . S
O417 C413 1.241 . S
O418 Co406 2.137 . S
O418 C409 1.247 . S
O419 Co406 2.244 . S
O419 C409 1.272 . S
O419 Co411 2.135 . S
Co420 O421 2.216 . S
Co420 O422 2.091 . S
Co420 O424 2.004 . S
Co420 O430 2.021 . S
Co420 O432 2.137 . S
Co420 O433 2.244 . S
O421 Co420 2.216 . S
O421 C428 1.247 . S
O422 Co420 2.091 . S
O422 C428 1.261 . S
C423 O432 1.247 . S
C423 O433 1.272 . S
O424 Co420 2.004 . S
O424 C429 1.259 . S
Co425 O426 2.061 . S
Co425 O431 2.052 . S
Co425 O433 2.135 . S
O426 Co425 2.061 . S
O426 C429 1.235 . S
C427 O430 1.238 . S
C427 O431 1.241 . S
C428 O421 1.247 . S
C428 O422 1.261 . S
C429 O424 1.259 . S
C429 O426 1.235 . S
O430 Co420 2.021 . S
O430 C427 1.238 . S
O431 Co425 2.052 . S
O431 C427 1.241 . S
O432 Co420 2.137 . S
O432 C423 1.247 . S
O433 Co420 2.244 . S
O433 C423 1.272 . S
O433 Co425 2.135 . S
Co434 O435 2.216 . S
Co434 O436 2.091 . S
Co434 O438 2.004 . S
Co434 O444 2.021 . S
Co434 O446 2.137 . S
Co434 O447 2.244 . S
O435 Co434 2.216 . S
O435 C442 1.247 . S
O436 Co434 2.091 . S
O436 C442 1.261 . S
C437 O446 1.247 . S
C437 O447 1.272 . S
O438 Co434 2.004 . S
O438 C443 1.259 . S
Co439 O440 2.061 . S
Co439 O445 2.052 . S
Co439 O447 2.135 . S
O440 Co439 2.061 . S
O440 C443 1.235 . S
C441 O444 1.238 . S
C441 O445 1.241 . S
C442 O435 1.247 . S
C442 O436 1.261 . S
C443 O438 1.259 . S
C443 O440 1.235 . S
O444 Co434 2.021 . S
O444 C441 1.238 . S
O445 Co439 2.052 . S
O445 C441 1.241 . S
O446 Co434 2.137 . S
O446 C437 1.247 . S
O447 Co434 2.244 . S
O447 C437 1.272 . S
O447 Co439 2.135 . S
Co448 O449 2.216 . S
Co448 O450 2.091 . S
Co448 O452 2.004 . S
Co448 O458 2.021 . S
Co448 O460 2.137 . S
Co448 O461 2.244 . S
O449 Co448 2.216 . S
O449 C456 1.247 . S
O450 Co448 2.091 . S
O450 C456 1.261 . S
C451 O460 1.247 . S
C451 O461 1.272 . S
O452 Co448 2.004 . S
O452 C457 1.259 . S
Co453 O454 2.061 . S
Co453 O459 2.052 . S
Co453 O461 2.135 . S
O454 Co453 2.061 . S
O454 C457 1.235 . S
C455 O458 1.238 . S
C455 O459 1.241 . S
C456 O449 1.247 . S
C456 O450 1.261 . S
C457 O452 1.259 . S
C457 O454 1.235 . S
O458 Co448 2.021 . S
O458 C455 1.238 . S
O459 Co453 2.052 . S
O459 C455 1.241 . S
O460 Co448 2.137 . S
O460 C451 1.247 . S
O461 Co448 2.244 . S
O461 C451 1.272 . S
O461 Co453 2.135 . S
Co462 O463 2.216 . S
Co462 O464 2.091 . S
Co462 O466 2.004 . S
Co462 O472 2.021 . S
Co462 O474 2.137 . S
Co462 O475 2.244 . S
O463 Co462 2.216 . S
O463 C470 1.247 . S
O464 Co462 2.091 . S
O464 C470 1.261 . S
C465 O474 1.247 . S
C465 O475 1.272 . S
O466 Co462 2.004 . S
O466 C471 1.259 . S
Co467 O468 2.061 . S
Co467 O473 2.052 . S
Co467 O475 2.135 . S
O468 Co467 2.061 . S
O468 C471 1.235 . S
C469 O472 1.238 . S
C469 O473 1.241 . S
C470 O463 1.247 . S
C470 O464 1.261 . S
C471 O466 1.259 . S
C471 O468 1.235 . S
O472 Co462 2.021 . S
O472 C469 1.238 . S
O473 Co467 2.052 . S
O473 C469 1.241 . S
O474 Co462 2.137 . S
O474 C465 1.247 . S
O475 Co462 2.244 . S
O475 C465 1.272 . S
O475 Co467 2.135 . S
Co476 O477 2.216 . S
Co476 O478 2.091 . S
Co476 O480 2.004 . S
Co476 O486 2.021 . S
Co476 O488 2.137 . S
Co476 O489 2.244 . S
O477 Co476 2.216 . S
O477 C484 1.247 . S
O478 Co476 2.091 . S
O478 C484 1.261 . S
C479 O488 1.247 . S
C479 O489 1.272 . S
O480 Co476 2.004 . S
O480 C485 1.259 . S
Co481 O482 2.061 . S
Co481 O487 2.052 . S
Co481 O489 2.135 . S
O482 Co481 2.061 . S
O482 C485 1.235 . S
C483 O486 1.238 . S
C483 O487 1.241 . S
C484 O477 1.247 . S
C484 O478 1.261 . S
C485 O480 1.259 . S
C485 O482 1.235 . S
O486 Co476 2.021 . S
O486 C483 1.238 . S
O487 Co481 2.052 . S
O487 C483 1.241 . S
O488 Co476 2.137 . S
O488 C479 1.247 . S
O489 Co476 2.244 . S
O489 C479 1.272 . S
O489 Co481 2.135 . S
Co490 O491 2.216 . S
Co490 O492 2.091 . S
Co490 O494 2.004 . S
Co490 O500 2.021 . S
Co490 O502 2.137 . S
Co490 O503 2.244 . S
O491 Co490 2.216 . S
O491 C498 1.247 . S
O492 Co490 2.091 . S
O492 C498 1.261 . S
C493 O502 1.247 . S
C493 O503 1.272 . S
O494 Co490 2.004 . S
O494 C499 1.259 . S
Co495 O496 2.061 . S
Co495 O501 2.052 . S
Co495 O503 2.135 . S
O496 Co495 2.061 . S
O496 C499 1.235 . S
C497 O500 1.238 . S
C497 O501 1.241 . S
C498 O491 1.247 . S
C498 O492 1.261 . S
C499 O494 1.259 . S
C499 O496 1.235 . S
O500 Co490 2.021 . S
O500 C497 1.238 . S
O501 Co495 2.052 . S
O501 C497 1.241 . S
O502 Co490 2.137 . S
O502 C493 1.247 . S
O503 Co490 2.244 . S
O503 C493 1.272 . S
O503 Co495 2.135 . S
Co504 O505 2.216 . S
Co504 O506 2.091 . S
Co504 O508 2.004 . S
Co504 O514 2.021 . S
Co504 O516 2.137 . S
Co504 O517 2.244 . S
O505 Co504 2.216 . S
O505 C512 1.247 . S
O506 Co504 2.091 . S
O506 C512 1.261 . S
C507 O516 1.247 . S
C507 O517 1.272 . S
O508 Co504 2.004 . S
O508 C513 1.259 . S
Co509 O510 2.061 . S
Co509 O515 2.052 . S
Co509 O517 2.135 . S
O510 Co509 2.061 . S
O510 C513 1.235 . S
C511 O514 1.238 . S
C511 O515 1.241 . S
C512 O505 1.247 . S
C512 O506 1.261 . S
C513 O508 1.259 . S
C513 O510 1.235 . S
O514 Co504 2.021 . S
O514 C511 1.238 . S
O515 Co509 2.052 . S
O515 C511 1.241 . S
O516 Co504 2.137 . S
O516 C507 1.247 . S
O517 Co504 2.244 . S
O517 C507 1.272 . S
O517 Co509 2.135 . S
Co518 O519 2.216 . S
Co518 O520 2.091 . S
Co518 O522 2.004 . S
Co518 O528 2.021 . S
Co518 O530 2.137 . S
Co518 O531 2.244 . S
O519 Co518 2.216 . S
O519 C526 1.247 . S
O520 Co518 2.091 . S
O520 C526 1.261 . S
C521 O530 1.247 . S
C521 O531 1.272 . S
O522 Co518 2.004 . S
O522 C527 1.259 . S
Co523 O524 2.061 . S
Co523 O529 2.052 . S
Co523 O531 2.135 . S
O524 Co523 2.061 . S
O524 C527 1.235 . S
C525 O528 1.238 . S
C525 O529 1.241 . S
C526 O519 1.247 . S
C526 O520 1.261 . S
C527 O522 1.259 . S
C527 O524 1.235 . S
O528 Co518 2.021 . S
O528 C525 1.238 . S
O529 Co523 2.052 . S
O529 C525 1.241 . S
O530 Co518 2.137 . S
O530 C521 1.247 . S
O531 Co518 2.244 . S
O531 C521 1.272 . S
O531 Co523 2.135 . S
Co532 O533 2.216 . S
Co532 O534 2.091 . S
Co532 O536 2.004 . S
Co532 O542 2.021 . S
Co532 O544 2.137 . S
Co532 O545 2.244 . S
O533 Co532 2.216 . S
O533 C540 1.247 . S
O534 Co532 2.091 . S
O534 C540 1.261 . S
C535 O544 1.247 . S
C535 O545 1.272 . S
O536 Co532 2.004 . S
O536 C541 1.259 . S
Co537 O538 2.061 . S
Co537 O543 2.052 . S
Co537 O545 2.135 . S
O538 Co537 2.061 . S
O538 C541 1.235 . S
C539 O542 1.238 . S
C539 O543 1.241 . S
C540 O533 1.247 . S
C540 O534 1.261 . S
C541 O536 1.259 . S
C541 O538 1.235 . S
O542 Co532 2.021 . S
O542 C539 1.238 . S
O543 Co537 2.052 . S
O543 C539 1.241 . S
O544 Co532 2.137 . S
O544 C535 1.247 . S
O545 Co532 2.244 . S
O545 C535 1.272 . S
O545 Co537 2.135 . S
Co546 O547 2.216 . S
Co546 O548 2.091 . S
Co546 O550 2.004 . S
Co546 O556 2.021 . S
Co546 O558 2.137 . S
Co546 O559 2.244 . S
O547 Co546 2.216 . S
O547 C554 1.247 . S
O548 Co546 2.091 . S
O548 C554 1.261 . S
C549 O558 1.247 . S
C549 O559 1.272 . S
O550 Co546 2.004 . S
O550 C555 1.259 . S
Co551 O552 2.061 . S
Co551 O557 2.052 . S
Co551 O559 2.135 . S
O552 Co551 2.061 . S
O552 C555 1.235 . S
C553 O556 1.238 . S
C553 O557 1.241 . S
C554 O547 1.247 . S
C554 O548 1.261 . S
C555 O550 1.259 . S
C555 O552 1.235 . S
O556 Co546 2.021 . S
O556 C553 1.238 . S
O557 Co551 2.052 . S
O557 C553 1.241 . S
O558 Co546 2.137 . S
O558 C549 1.247 . S
O559 Co546 2.244 . S
O559 C549 1.272 . S
O559 Co551 2.135 . S
Co560 O561 2.216 . S
Co560 O562 2.091 . S
Co560 O564 2.004 . S
Co560 O570 2.021 . S
Co560 O572 2.137 . S
Co560 O573 2.244 . S
O561 Co560 2.216 . S
O561 C568 1.247 . S
O562 Co560 2.091 . S
O562 C568 1.261 . S
C563 O572 1.247 . S
C563 O573 1.272 . S
O564 Co560 2.004 . S
O564 C569 1.259 . S
Co565 O566 2.061 . S
Co565 O571 2.052 . S
Co565 O573 2.135 . S
O566 Co565 2.061 . S
O566 C569 1.235 . S
C567 O570 1.238 . S
C567 O571 1.241 . S
C568 O561 1.247 . S
C568 O562 1.261 . S
C569 O564 1.259 . S
C569 O566 1.235 . S
O570 Co560 2.021 . S
O570 C567 1.238 . S
O571 Co565 2.052 . S
O571 C567 1.241 . S
O572 Co560 2.137 . S
O572 C563 1.247 . S
O573 Co560 2.244 . S
O573 C563 1.272 . S
O573 Co565 2.135 . S
Co574 O575 2.216 . S
Co574 O576 2.091 . S
Co574 O578 2.004 . S
Co574 O584 2.021 . S
Co574 O586 2.137 . S
Co574 O587 2.244 . S
O575 Co574 2.216 . S
O575 C582 1.247 . S
O576 Co574 2.091 . S
O576 C582 1.261 . S
C577 O586 1.247 . S
C577 O587 1.272 . S
O578 Co574 2.004 . S
O578 C583 1.259 . S
Co579 O580 2.061 . S
Co579 O585 2.052 . S
Co579 O587 2.135 . S
O580 Co579 2.061 . S
O580 C583 1.235 . S
C581 O584 1.238 . S
C581 O585 1.241 . S
C582 O575 1.247 . S
C582 O576 1.261 . S
C583 O578 1.259 . S
C583 O580 1.235 . S
O584 Co574 2.021 . S
O584 C581 1.238 . S
O585 Co579 2.052 . S
O585 C581 1.241 . S
O586 Co574 2.137 . S
O586 C577 1.247 . S
O587 Co574 2.244 . S
O587 C577 1.272 . S
O587 Co579 2.135 . S
Co588 O589 2.216 . S
Co588 O590 2.091 . S
Co588 O592 2.004 . S
Co588 O598 2.021 . S
Co588 O600 2.137 . S
Co588 O601 2.244 . S
O589 Co588 2.216 . S
O589 C596 1.247 . S
O590 Co588 2.091 . S
O590 C596 1.261 . S
C591 O600 1.247 . S
C591 O601 1.272 . S
O592 Co588 2.004 . S
O592 C597 1.259 . S
Co593 O594 2.061 . S
Co593 O599 2.052 . S
Co593 O601 2.135 . S
O594 Co593 2.061 . S
O594 C597 1.235 . S
C595 O598 1.238 . S
C595 O599 1.241 . S
C596 O589 1.247 . S
C596 O590 1.261 . S
C597 O592 1.259 . S
C597 O594 1.235 . S
O598 Co588 2.021 . S
O598 C595 1.238 . S
O599 Co593 2.052 . S
O599 C595 1.241 . S
O600 Co588 2.137 . S
O600 C591 1.247 . S
O601 Co588 2.244 . S
O601 C591 1.272 . S
O601 Co593 2.135 . S
Co602 O603 2.216 . S
Co602 O604 2.091 . S
Co602 O606 2.004 . S
Co602 O612 2.021 . S
Co602 O614 2.137 . S
Co602 O615 2.244 . S
O603 Co602 2.216 . S
O603 C610 1.247 . S
O604 Co602 2.091 . S
O604 C610 1.261 . S
C605 O614 1.247 . S
C605 O615 1.272 . S
O606 Co602 2.004 . S
O606 C611 1.259 . S
Co607 O608 2.061 . S
Co607 O613 2.052 . S
Co607 O615 2.135 . S
O608 Co607 2.061 . S
O608 C611 1.235 . S
C609 O612 1.238 . S
C609 O613 1.241 . S
C610 O603 1.247 . S
C610 O604 1.261 . S
C611 O606 1.259 . S
C611 O608 1.235 . S
O612 Co602 2.021 . S
O612 C609 1.238 . S
O613 Co607 2.052 . S
O613 C609 1.241 . S
O614 Co602 2.137 . S
O614 C605 1.247 . S
O615 Co602 2.244 . S
O615 C605 1.272 . S
O615 Co607 2.135 . S
Co616 O617 2.216 . S
Co616 O618 2.091 . S
Co616 O620 2.004 . S
Co616 O626 2.021 . S
Co616 O628 2.137 . S
Co616 O629 2.244 . S
O617 Co616 2.216 . S
O617 C624 1.247 . S
O618 Co616 2.091 . S
O618 C624 1.261 . S
C619 O628 1.247 . S
C619 O629 1.272 . S
O620 Co616 2.004 . S
O620 C625 1.259 . S
Co621 O622 2.061 . S
Co621 O627 2.052 . S
Co621 O629 2.135 . S
O622 Co621 2.061 . S
O622 C625 1.235 . S
C623 O626 1.238 . S
C623 O627 1.241 . S
C624 O617 1.247 . S
C624 O618 1.261 . S
C625 O620 1.259 . S
C625 O622 1.235 . S
O626 Co616 2.021 . S
O626 C623 1.238 . S
O627 Co621 2.052 . S
O627 C623 1.241 . S
O628 Co616 2.137 . S
O628 C619 1.247 . S
O629 Co616 2.244 . S
O629 C619 1.272 . S
O629 Co621 2.135 . S
Co630 O631 2.216 . S
Co630 O632 2.091 . S
Co630 O634 2.004 . S
Co630 O640 2.021 . S
Co630 O642 2.137 . S
Co630 O643 2.244 . S
O631 Co630 2.216 . S
O631 C638 1.247 . S
O632 Co630 2.091 . S
O632 C638 1.261 . S
C633 O642 1.247 . S
C633 O643 1.272 . S
O634 Co630 2.004 . S
O634 C639 1.259 . S
Co635 O636 2.061 . S
Co635 O641 2.052 . S
Co635 O643 2.135 . S
O636 Co635 2.061 . S
O636 C639 1.235 . S
C637 O640 1.238 . S
C637 O641 1.241 . S
C638 O631 1.247 . S
C638 O632 1.261 . S
C639 O634 1.259 . S
C639 O636 1.235 . S
O640 Co630 2.021 . S
O640 C637 1.238 . S
O641 Co635 2.052 . S
O641 C637 1.241 . S
O642 Co630 2.137 . S
O642 C633 1.247 . S
O643 Co630 2.244 . S
O643 C633 1.272 . S
O643 Co635 2.135 . S
Co644 O645 2.216 . S
Co644 O646 2.091 . S
Co644 O648 2.004 . S
Co644 O654 2.021 . S
Co644 O656 2.137 . S
Co644 O657 2.244 . S
O645 Co644 2.216 . S
O645 C652 1.247 . S
O646 Co644 2.091 . S
O646 C652 1.261 . S
C647 O656 1.247 . S
C647 O657 1.272 . S
O648 Co644 2.004 . S
O648 C653 1.259 . S
Co649 O650 2.061 . S
Co649 O655 2.052 . S
Co649 O657 2.135 . S
O650 Co649 2.061 . S
O650 C653 1.235 . S
C651 O654 1.238 . S
C651 O655 1.241 . S
C652 O645 1.247 . S
C652 O646 1.261 . S
C653 O648 1.259 . S
C653 O650 1.235 . S
O654 Co644 2.021 . S
O654 C651 1.238 . S
O655 Co649 2.052 . S
O655 C651 1.241 . S
O656 Co644 2.137 . S
O656 C647 1.247 . S
O657 Co644 2.244 . S
O657 C647 1.272 . S
O657 Co649 2.135 . S
Co658 O659 2.216 . S
Co658 O660 2.091 . S
Co658 O662 2.004 . S
Co658 O668 2.021 . S
Co658 O670 2.137 . S
Co658 O671 2.244 . S
O659 Co658 2.216 . S
O659 C666 1.247 . S
O660 Co658 2.091 . S
O660 C666 1.261 . S
C661 O670 1.247 . S
C661 O671 1.272 . S
O662 Co658 2.004 . S
O662 C667 1.259 . S
Co663 O664 2.061 . S
Co663 O669 2.052 . S
Co663 O671 2.135 . S
O664 Co663 2.061 . S
O664 C667 1.235 . S
C665 O668 1.238 . S
C665 O669 1.241 . S
C666 O659 1.247 . S
C666 O660 1.261 . S
C667 O662 1.259 . S
C667 O664 1.235 . S
O668 Co658 2.021 . S
O668 C665 1.238 . S
O669 Co663 2.052 . S
O669 C665 1.241 . S
O670 Co658 2.137 . S
O670 C661 1.247 . S
O671 Co658 2.244 . S
O671 C661 1.272 . S
O671 Co663 2.135 . S
H672 C680 0.929 . S
H673 C682 0.930 . S
H674 C684 0.930 . S
H675 C687 0.929 . S
H676 C690 0.930 . S
H677 C692 0.960 . S
H678 C692 0.960 . S
H679 C692 0.960 . S
C680 H672 0.929 . S
C680 C681 1.377 . S
C680 C682 1.384 . S
C681 C680 1.377 . S
C681 C687 1.390 . S
C682 H673 0.930 . S
C682 C680 1.384 . S
C682 C683 1.372 . S
C683 C682 1.372 . S
C683 C684 1.400 . S
C683 C688 1.490 . S
C684 H674 0.930 . S
C684 C683 1.400 . S
C684 C687 1.386 . S
H685 C701 0.930 . S
H686 C702 0.931 . S
C687 H675 0.929 . S
C687 C681 1.390 . S
C687 C684 1.386 . S
C688 C683 1.490 . S
C688 C690 1.395 . S
C688 C691 1.403 . S
H689 C695 0.930 . S
C690 H676 0.930 . S
C690 C688 1.395 . S
C690 C693 1.403 . S
C691 C688 1.403 . S
C691 C692 1.524 . S
C691 C695 1.400 . S
C692 H677 0.960 . S
C692 H678 0.960 . S
C692 H679 0.960 . S
C692 C691 1.524 . S
C693 C690 1.403 . S
C693 C694 1.392 . S
C693 C697 1.495 . S
C694 C693 1.392 . S
C694 C695 1.385 . S
C694 C696 1.478 . S
C695 H689 0.930 . S
C695 C691 1.400 . S
C695 C694 1.385 . S
C696 C694 1.478 . S
C696 C698 1.381 . S
C696 C702 1.383 . S
C697 C693 1.495 . S
C697 H703 0.959 . S
C697 H704 0.961 . S
C697 H705 0.960 . S
C698 C696 1.381 . S
C698 C699 1.394 . S
C698 H706 0.930 . S
C699 C698 1.394 . S
C699 C700 1.383 . S
C699 H707 0.929 . S
C700 C699 1.383 . S
C700 C701 1.377 . S
C701 H685 0.930 . S
C701 C700 1.377 . S
C701 C702 1.379 . S
C702 H686 0.931 . S
C702 C696 1.383 . S
C702 C701 1.379 . S
H703 C697 0.959 . S
H704 C697 0.961 . S
H705 C697 0.960 . S
H706 C698 0.930 . S
H707 C699 0.929 . S
H708 C716 0.929 . S
H709 C718 0.930 . S
H710 C720 0.930 . S
H711 C723 0.929 . S
H712 C726 0.930 . S
H713 C728 0.960 . S
H714 C728 0.960 . S
H715 C728 0.960 . S
C716 H708 0.929 . S
C716 C717 1.377 . S
C716 C718 1.384 . S
C717 C716 1.377 . S
C717 C723 1.390 . S
C718 H709 0.930 . S
C718 C716 1.384 . S
C718 C719 1.372 . S
C719 C718 1.372 . S
C719 C720 1.400 . S
C719 C724 1.490 . S
C720 H710 0.930 . S
C720 C719 1.400 . S
C720 C723 1.386 . S
H721 C737 0.930 . S
H722 C738 0.931 . S
C723 H711 0.929 . S
C723 C717 1.390 . S
C723 C720 1.386 . S
C724 C719 1.490 . S
C724 C726 1.395 . S
C724 C727 1.403 . S
H725 C731 0.930 . S
C726 H712 0.930 . S
C726 C724 1.395 . S
C726 C729 1.403 . S
C727 C724 1.403 . S
C727 C728 1.524 . S
C727 C731 1.400 . S
C728 H713 0.960 . S
C728 H714 0.960 . S
C728 H715 0.960 . S
C728 C727 1.524 . S
C729 C726 1.403 . S
C729 C730 1.392 . S
C729 C733 1.495 . S
C730 C729 1.392 . S
C730 C731 1.385 . S
C730 C732 1.478 . S
C731 H725 0.930 . S
C731 C727 1.400 . S
C731 C730 1.385 . S
C732 C730 1.478 . S
C732 C734 1.381 . S
C732 C738 1.383 . S
C733 C729 1.495 . S
C733 H739 0.959 . S
C733 H740 0.961 . S
C733 H741 0.960 . S
C734 C732 1.381 . S
C734 C735 1.394 . S
C734 H742 0.930 . S
C735 C734 1.394 . S
C735 C736 1.383 . S
C735 H743 0.929 . S
C736 C735 1.383 . S
C736 C737 1.377 . S
C737 H721 0.930 . S
C737 C736 1.377 . S
C737 C738 1.379 . S
C738 H722 0.931 . S
C738 C732 1.383 . S
C738 C737 1.379 . S
H739 C733 0.959 . S
H740 C733 0.961 . S
H741 C733 0.960 . S
H742 C734 0.930 . S
H743 C735 0.929 . S
H744 C752 0.929 . S
H745 C754 0.930 . S
H746 C756 0.930 . S
H747 C759 0.929 . S
H748 C762 0.930 . S
H749 C764 0.960 . S
H750 C764 0.960 . S
H751 C764 0.960 . S
C752 H744 0.929 . S
C752 C753 1.377 . S
C752 C754 1.384 . S
C753 C752 1.377 . S
C753 C759 1.390 . S
C754 H745 0.930 . S
C754 C752 1.384 . S
C754 C755 1.372 . S
C755 C754 1.372 . S
C755 C756 1.400 . S
C755 C760 1.490 . S
C756 H746 0.930 . S
C756 C755 1.400 . S
C756 C759 1.386 . S
H757 C773 0.930 . S
H758 C774 0.931 . S
C759 H747 0.929 . S
C759 C753 1.390 . S
C759 C756 1.386 . S
C760 C755 1.490 . S
C760 C762 1.395 . S
C760 C763 1.403 . S
H761 C767 0.930 . S
C762 H748 0.930 . S
C762 C760 1.395 . S
C762 C765 1.403 . S
C763 C760 1.403 . S
C763 C764 1.524 . S
C763 C767 1.400 . S
C764 H749 0.960 . S
C764 H750 0.960 . S
C764 H751 0.960 . S
C764 C763 1.524 . S
C765 C762 1.403 . S
C765 C766 1.392 . S
C765 C769 1.495 . S
C766 C765 1.392 . S
C766 C767 1.385 . S
C766 C768 1.478 . S
C767 H761 0.930 . S
C767 C763 1.400 . S
C767 C766 1.385 . S
C768 C766 1.478 . S
C768 C770 1.381 . S
C768 C774 1.383 . S
C769 C765 1.495 . S
C769 H775 0.959 . S
C769 H776 0.961 . S
C769 H777 0.960 . S
C770 C768 1.381 . S
C770 C771 1.394 . S
C770 H778 0.930 . S
C771 C770 1.394 . S
C771 C772 1.383 . S
C771 H779 0.929 . S
C772 C771 1.383 . S
C772 C773 1.377 . S
C773 H757 0.930 . S
C773 C772 1.377 . S
C773 C774 1.379 . S
C774 H758 0.931 . S
C774 C768 1.383 . S
C774 C773 1.379 . S
H775 C769 0.959 . S
H776 C769 0.961 . S
H777 C769 0.960 . S
H778 C770 0.930 . S
H779 C771 0.929 . S
H780 C788 0.929 . S
H781 C790 0.930 . S
H782 C792 0.930 . S
H783 C795 0.929 . S
H784 C798 0.930 . S
H785 C800 0.960 . S
H786 C800 0.960 . S
H787 C800 0.960 . S
C788 H780 0.929 . S
C788 C789 1.377 . S
C788 C790 1.384 . S
C789 C788 1.377 . S
C789 C795 1.390 . S
C790 H781 0.930 . S
C790 C788 1.384 . S
C790 C791 1.372 . S
C791 C790 1.372 . S
C791 C792 1.400 . S
C791 C796 1.490 . S
C792 H782 0.930 . S
C792 C791 1.400 . S
C792 C795 1.386 . S
H793 C809 0.930 . S
H794 C810 0.931 . S
C795 H783 0.929 . S
C795 C789 1.390 . S
C795 C792 1.386 . S
C796 C791 1.490 . S
C796 C798 1.395 . S
C796 C799 1.403 . S
H797 C803 0.930 . S
C798 H784 0.930 . S
C798 C796 1.395 . S
C798 C801 1.403 . S
C799 C796 1.403 . S
C799 C800 1.524 . S
C799 C803 1.400 . S
C800 H785 0.960 . S
C800 H786 0.960 . S
C800 H787 0.960 . S
C800 C799 1.524 . S
C801 C798 1.403 . S
C801 C802 1.392 . S
C801 C805 1.495 . S
C802 C801 1.392 . S
C802 C803 1.385 . S
C802 C804 1.478 . S
C803 H797 0.930 . S
C803 C799 1.400 . S
C803 C802 1.385 . S
C804 C802 1.478 . S
C804 C806 1.381 . S
C804 C810 1.383 . S
C805 C801 1.495 . S
C805 H811 0.959 . S
C805 H812 0.961 . S
C805 H813 0.960 . S
C806 C804 1.381 . S
C806 C807 1.394 . S
C806 H814 0.930 . S
C807 C806 1.394 . S
C807 C808 1.383 . S
C807 H815 0.929 . S
C808 C807 1.383 . S
C808 C809 1.377 . S
C809 H793 0.930 . S
C809 C808 1.377 . S
C809 C810 1.379 . S
C810 H794 0.931 . S
C810 C804 1.383 . S
C810 C809 1.379 . S
H811 C805 0.959 . S
H812 C805 0.961 . S
H813 C805 0.960 . S
H814 C806 0.930 . S
H815 C807 0.929 . S
H816 C824 0.929 . S
H817 C826 0.930 . S
H818 C828 0.930 . S
H819 C831 0.929 . S
H820 C834 0.930 . S
H821 C836 0.960 . S
H822 C836 0.960 . S
H823 C836 0.960 . S
C824 H816 0.929 . S
C824 C825 1.377 . S
C824 C826 1.384 . S
C825 C824 1.377 . S
C825 C831 1.390 . S
C826 H817 0.930 . S
C826 C824 1.384 . S
C826 C827 1.372 . S
C827 C826 1.372 . S
C827 C828 1.400 . S
C827 C832 1.490 . S
C828 H818 0.930 . S
C828 C827 1.400 . S
C828 C831 1.386 . S
H829 C845 0.930 . S
H830 C846 0.931 . S
C831 H819 0.929 . S
C831 C825 1.390 . S
C831 C828 1.386 . S
C832 C827 1.490 . S
C832 C834 1.395 . S
C832 C835 1.403 . S
H833 C839 0.930 . S
C834 H820 0.930 . S
C834 C832 1.395 . S
C834 C837 1.403 . S
C835 C832 1.403 . S
C835 C836 1.524 . S
C835 C839 1.400 . S
C836 H821 0.960 . S
C836 H822 0.960 . S
C836 H823 0.960 . S
C836 C835 1.524 . S
C837 C834 1.403 . S
C837 C838 1.392 . S
C837 C841 1.495 . S
C838 C837 1.392 . S
C838 C839 1.385 . S
C838 C840 1.478 . S
C839 H833 0.930 . S
C839 C835 1.400 . S
C839 C838 1.385 . S
C840 C838 1.478 . S
C840 C842 1.381 . S
C840 C846 1.383 . S
C841 C837 1.495 . S
C841 H847 0.959 . S
C841 H848 0.961 . S
C841 H849 0.960 . S
C842 C840 1.381 . S
C842 C843 1.394 . S
C842 H850 0.930 . S
C843 C842 1.394 . S
C843 C844 1.383 . S
C843 H851 0.929 . S
C844 C843 1.383 . S
C844 C845 1.377 . S
C845 H829 0.930 . S
C845 C844 1.377 . S
C845 C846 1.379 . S
C846 H830 0.931 . S
C846 C840 1.383 . S
C846 C845 1.379 . S
H847 C841 0.959 . S
H848 C841 0.961 . S
H849 C841 0.960 . S
H850 C842 0.930 . S
H851 C843 0.929 . S
H852 C860 0.929 . S
H853 C862 0.930 . S
H854 C864 0.930 . S
H855 C867 0.929 . S
H856 C870 0.930 . S
H857 C872 0.960 . S
H858 C872 0.960 . S
H859 C872 0.960 . S
C860 H852 0.929 . S
C860 C861 1.377 . S
C860 C862 1.384 . S
C861 C860 1.377 . S
C861 C867 1.390 . S
C862 H853 0.930 . S
C862 C860 1.384 . S
C862 C863 1.372 . S
C863 C862 1.372 . S
C863 C864 1.400 . S
C863 C868 1.490 . S
C864 H854 0.930 . S
C864 C863 1.400 . S
C864 C867 1.386 . S
H865 C881 0.930 . S
H866 C882 0.931 . S
C867 H855 0.929 . S
C867 C861 1.390 . S
C867 C864 1.386 . S
C868 C863 1.490 . S
C868 C870 1.395 . S
C868 C871 1.403 . S
H869 C875 0.930 . S
C870 H856 0.930 . S
C870 C868 1.395 . S
C870 C873 1.403 . S
C871 C868 1.403 . S
C871 C872 1.524 . S
C871 C875 1.400 . S
C872 H857 0.960 . S
C872 H858 0.960 . S
C872 H859 0.960 . S
C872 C871 1.524 . S
C873 C870 1.403 . S
C873 C874 1.392 . S
C873 C877 1.495 . S
C874 C873 1.392 . S
C874 C875 1.385 . S
C874 C876 1.478 . S
C875 H869 0.930 . S
C875 C871 1.400 . S
C875 C874 1.385 . S
C876 C874 1.478 . S
C876 C878 1.381 . S
C876 C882 1.383 . S
C877 C873 1.495 . S
C877 H883 0.959 . S
C877 H884 0.961 . S
C877 H885 0.960 . S
C878 C876 1.381 . S
C878 C879 1.394 . S
C878 H886 0.930 . S
C879 C878 1.394 . S
C879 C880 1.383 . S
C879 H887 0.929 . S
C880 C879 1.383 . S
C880 C881 1.377 . S
C881 H865 0.930 . S
C881 C880 1.377 . S
C881 C882 1.379 . S
C882 H866 0.931 . S
C882 C876 1.383 . S
C882 C881 1.379 . S
H883 C877 0.959 . S
H884 C877 0.961 . S
H885 C877 0.960 . S
H886 C878 0.930 . S
H887 C879 0.929 . S
H888 C896 0.929 . S
H889 C898 0.930 . S
H890 C900 0.930 . S
H891 C903 0.929 . S
H892 C906 0.930 . S
H893 C908 0.960 . S
H894 C908 0.960 . S
H895 C908 0.960 . S
C896 H888 0.929 . S
C896 C897 1.377 . S
C896 C898 1.384 . S
C897 C896 1.377 . S
C897 C903 1.390 . S
C898 H889 0.930 . S
C898 C896 1.384 . S
C898 C899 1.372 . S
C899 C898 1.372 . S
C899 C900 1.400 . S
C899 C904 1.490 . S
C900 H890 0.930 . S
C900 C899 1.400 . S
C900 C903 1.386 . S
H901 C917 0.930 . S
H902 C918 0.931 . S
C903 H891 0.929 . S
C903 C897 1.390 . S
C903 C900 1.386 . S
C904 C899 1.490 . S
C904 C906 1.395 . S
C904 C907 1.403 . S
H905 C911 0.930 . S
C906 H892 0.930 . S
C906 C904 1.395 . S
C906 C909 1.403 . S
C907 C904 1.403 . S
C907 C908 1.524 . S
C907 C911 1.400 . S
C908 H893 0.960 . S
C908 H894 0.960 . S
C908 H895 0.960 . S
C908 C907 1.524 . S
C909 C906 1.403 . S
C909 C910 1.392 . S
C909 C913 1.495 . S
C910 C909 1.392 . S
C910 C911 1.385 . S
C910 C912 1.478 . S
C911 H905 0.930 . S
C911 C907 1.400 . S
C911 C910 1.385 . S
C912 C910 1.478 . S
C912 C914 1.381 . S
C912 C918 1.383 . S
C913 C909 1.495 . S
C913 H919 0.959 . S
C913 H920 0.961 . S
C913 H921 0.960 . S
C914 C912 1.381 . S
C914 C915 1.394 . S
C914 H922 0.930 . S
C915 C914 1.394 . S
C915 C916 1.383 . S
C915 H923 0.929 . S
C916 C915 1.383 . S
C916 C917 1.377 . S
C917 H901 0.930 . S
C917 C916 1.377 . S
C917 C918 1.379 . S
C918 H902 0.931 . S
C918 C912 1.383 . S
C918 C917 1.379 . S
H919 C913 0.959 . S
H920 C913 0.961 . S
H921 C913 0.960 . S
H922 C914 0.930 . S
H923 C915 0.929 . S
H924 C932 0.929 . S
H925 C934 0.930 . S
H926 C936 0.930 . S
H927 C939 0.929 . S
H928 C942 0.930 . S
H929 C944 0.960 . S
H930 C944 0.960 . S
H931 C944 0.960 . S
C932 H924 0.929 . S
C932 C933 1.377 . S
C932 C934 1.384 . S
C933 C932 1.377 . S
C933 C939 1.390 . S
C934 H925 0.930 . S
C934 C932 1.384 . S
C934 C935 1.372 . S
C935 C934 1.372 . S
C935 C936 1.400 . S
C935 C940 1.490 . S
C936 H926 0.930 . S
C936 C935 1.400 . S
C936 C939 1.386 . S
H937 C953 0.930 . S
H938 C954 0.931 . S
C939 H927 0.929 . S
C939 C933 1.390 . S
C939 C936 1.386 . S
C940 C935 1.490 . S
C940 C942 1.395 . S
C940 C943 1.403 . S
H941 C947 0.930 . S
C942 H928 0.930 . S
C942 C940 1.395 . S
C942 C945 1.403 . S
C943 C940 1.403 . S
C943 C944 1.524 . S
C943 C947 1.400 . S
C944 H929 0.960 . S
C944 H930 0.960 . S
C944 H931 0.960 . S
C944 C943 1.524 . S
C945 C942 1.403 . S
C945 C946 1.392 . S
C945 C949 1.495 . S
C946 C945 1.392 . S
C946 C947 1.385 . S
C946 C948 1.478 . S
C947 H941 0.930 . S
C947 C943 1.400 . S
C947 C946 1.385 . S
C948 C946 1.478 . S
C948 C950 1.381 . S
C948 C954 1.383 . S
C949 C945 1.495 . S
C949 H955 0.959 . S
C949 H956 0.961 . S
C949 H957 0.960 . S
C950 C948 1.381 . S
C950 C951 1.394 . S
C950 H958 0.930 . S
C951 C950 1.394 . S
C951 C952 1.383 . S
C951 H959 0.929 . S
C952 C951 1.383 . S
C952 C953 1.377 . S
C953 H937 0.930 . S
C953 C952 1.377 . S
C953 C954 1.379 . S
C954 H938 0.931 . S
C954 C948 1.383 . S
C954 C953 1.379 . S
H955 C949 0.959 . S
H956 C949 0.961 . S
H957 C949 0.960 . S
H958 C950 0.930 . S
H959 C951 0.929 . S
H960 C968 0.929 . S
H961 C970 0.930 . S
H962 C972 0.930 . S
H963 C975 0.929 . S
H964 C978 0.930 . S
H965 C980 0.960 . S
H966 C980 0.960 . S
H967 C980 0.960 . S
C968 H960 0.929 . S
C968 C969 1.377 . S
C968 C970 1.384 . S
C969 C968 1.377 . S
C969 C975 1.390 . S
C970 H961 0.930 . S
C970 C968 1.384 . S
C970 C971 1.372 . S
C971 C970 1.372 . S
C971 C972 1.400 . S
C971 C976 1.490 . S
C972 H962 0.930 . S
C972 C971 1.400 . S
C972 C975 1.386 . S
H973 C989 0.930 . S
H974 C990 0.931 . S
C975 H963 0.929 . S
C975 C969 1.390 . S
C975 C972 1.386 . S
C976 C971 1.490 . S
C976 C978 1.395 . S
C976 C979 1.403 . S
H977 C983 0.930 . S
C978 H964 0.930 . S
C978 C976 1.395 . S
C978 C981 1.403 . S
C979 C976 1.403 . S
C979 C980 1.524 . S
C979 C983 1.400 . S
C980 H965 0.960 . S
C980 H966 0.960 . S
C980 H967 0.960 . S
C980 C979 1.524 . S
C981 C978 1.403 . S
C981 C982 1.392 . S
C981 C985 1.495 . S
C982 C981 1.392 . S
C982 C983 1.385 . S
C982 C984 1.478 . S
C983 H977 0.930 . S
C983 C979 1.400 . S
C983 C982 1.385 . S
C984 C982 1.478 . S
C984 C986 1.381 . S
C984 C990 1.383 . S
C985 C981 1.495 . S
C985 H991 0.959 . S
C985 H992 0.961 . S
C985 H993 0.960 . S
C986 C984 1.381 . S
C986 C987 1.394 . S
C986 H994 0.930 . S
C987 C986 1.394 . S
C987 C988 1.383 . S
C987 H995 0.929 . S
C988 C987 1.383 . S
C988 C989 1.377 . S
C989 H973 0.930 . S
C989 C988 1.377 . S
C989 C990 1.379 . S
C990 H974 0.931 . S
C990 C984 1.383 . S
C990 C989 1.379 . S
H991 C985 0.959 . S
H992 C985 0.961 . S
H993 C985 0.960 . S
H994 C986 0.930 . S
H995 C987 0.929 . S
H996 C1004 0.929 . S
H997 C1006 0.930 . S
H998 C1008 0.930 . S
H999 C1011 0.929 . S
H1000 C1014 0.930 . S
H1001 C1016 0.960 . S
H1002 C1016 0.960 . S
H1003 C1016 0.960 . S
C1004 H996 0.929 . S
C1004 C1005 1.377 . S
C1004 C1006 1.384 . S
C1005 C1004 1.377 . S
C1005 C1011 1.390 . S
C1006 H997 0.930 . S
C1006 C1004 1.384 . S
C1006 C1007 1.372 . S
C1007 C1006 1.372 . S
C1007 C1008 1.400 . S
C1007 C1012 1.490 . S
C1008 H998 0.930 . S
C1008 C1007 1.400 . S
C1008 C1011 1.386 . S
H1009 C1025 0.930 . S
H1010 C1026 0.931 . S
C1011 H999 0.929 . S
C1011 C1005 1.390 . S
C1011 C1008 1.386 . S
C1012 C1007 1.490 . S
C1012 C1014 1.395 . S
C1012 C1015 1.403 . S
H1013 C1019 0.930 . S
C1014 H1000 0.930 . S
C1014 C1012 1.395 . S
C1014 C1017 1.403 . S
C1015 C1012 1.403 . S
C1015 C1016 1.524 . S
C1015 C1019 1.400 . S
C1016 H1001 0.960 . S
C1016 H1002 0.960 . S
C1016 H1003 0.960 . S
C1016 C1015 1.524 . S
C1017 C1014 1.403 . S
C1017 C1018 1.392 . S
C1017 C1021 1.495 . S
C1018 C1017 1.392 . S
C1018 C1019 1.385 . S
C1018 C1020 1.478 . S
C1019 H1013 0.930 . S
C1019 C1015 1.400 . S
C1019 C1018 1.385 . S
C1020 C1018 1.478 . S
C1020 C1022 1.381 . S
C1020 C1026 1.383 . S
C1021 C1017 1.495 . S
C1021 H1027 0.959 . S
C1021 H1028 0.961 . S
C1021 H1029 0.960 . S
C1022 C1020 1.381 . S
C1022 C1023 1.394 . S
C1022 H1030 0.930 . S
C1023 C1022 1.394 . S
C1023 C1024 1.383 . S
C1023 H1031 0.929 . S
C1024 C1023 1.383 . S
C1024 C1025 1.377 . S
C1025 H1009 0.930 . S
C1025 C1024 1.377 . S
C1025 C1026 1.379 . S
C1026 H1010 0.931 . S
C1026 C1020 1.383 . S
C1026 C1025 1.379 . S
H1027 C1021 0.959 . S
H1028 C1021 0.961 . S
H1029 C1021 0.960 . S
H1030 C1022 0.930 . S
H1031 C1023 0.929 . S
H1032 C1040 0.929 . S
H1033 C1042 0.930 . S
H1034 C1044 0.930 . S
H1035 C1047 0.929 . S
H1036 C1050 0.930 . S
H1037 C1052 0.960 . S
H1038 C1052 0.960 . S
H1039 C1052 0.960 . S
C1040 H1032 0.929 . S
C1040 C1041 1.377 . S
C1040 C1042 1.384 . S
C1041 C1040 1.377 . S
C1041 C1047 1.390 . S
C1042 H1033 0.930 . S
C1042 C1040 1.384 . S
C1042 C1043 1.372 . S
C1043 C1042 1.372 . S
C1043 C1044 1.400 . S
C1043 C1048 1.490 . S
C1044 H1034 0.930 . S
C1044 C1043 1.400 . S
C1044 C1047 1.386 . S
H1045 C1061 0.930 . S
H1046 C1062 0.931 . S
C1047 H1035 0.929 . S
C1047 C1041 1.390 . S
C1047 C1044 1.386 . S
C1048 C1043 1.490 . S
C1048 C1050 1.395 . S
C1048 C1051 1.403 . S
H1049 C1055 0.930 . S
C1050 H1036 0.930 . S
C1050 C1048 1.395 . S
C1050 C1053 1.403 . S
C1051 C1048 1.403 . S
C1051 C1052 1.524 . S
C1051 C1055 1.400 . S
C1052 H1037 0.960 . S
C1052 H1038 0.960 . S
C1052 H1039 0.960 . S
C1052 C1051 1.524 . S
C1053 C1050 1.403 . S
C1053 C1054 1.392 . S
C1053 C1057 1.495 . S
C1054 C1053 1.392 . S
C1054 C1055 1.385 . S
C1054 C1056 1.478 . S
C1055 H1049 0.930 . S
C1055 C1051 1.400 . S
C1055 C1054 1.385 . S
C1056 C1054 1.478 . S
C1056 C1058 1.381 . S
C1056 C1062 1.383 . S
C1057 C1053 1.495 . S
C1057 H1063 0.959 . S
C1057 H1064 0.961 . S
C1057 H1065 0.960 . S
C1058 C1056 1.381 . S
C1058 C1059 1.394 . S
C1058 H1066 0.930 . S
C1059 C1058 1.394 . S
C1059 C1060 1.383 . S
C1059 H1067 0.929 . S
C1060 C1059 1.383 . S
C1060 C1061 1.377 . S
C1061 H1045 0.930 . S
C1061 C1060 1.377 . S
C1061 C1062 1.379 . S
C1062 H1046 0.931 . S
C1062 C1056 1.383 . S
C1062 C1061 1.379 . S
H1063 C1057 0.959 . S
H1064 C1057 0.961 . S
H1065 C1057 0.960 . S
H1066 C1058 0.930 . S
H1067 C1059 0.929 . S
H1068 C1076 0.929 . S
H1069 C1078 0.930 . S
H1070 C1080 0.930 . S
H1071 C1083 0.929 . S
H1072 C1086 0.930 . S
H1073 C1088 0.960 . S
H1074 C1088 0.960 . S
H1075 C1088 0.960 . S
C1076 H1068 0.929 . S
C1076 C1077 1.377 . S
C1076 C1078 1.384 . S
C1077 C1076 1.377 . S
C1077 C1083 1.390 . S
C1078 H1069 0.930 . S
C1078 C1076 1.384 . S
C1078 C1079 1.372 . S
C1079 C1078 1.372 . S
C1079 C1080 1.400 . S
C1079 C1084 1.490 . S
C1080 H1070 0.930 . S
C1080 C1079 1.400 . S
C1080 C1083 1.386 . S
H1081 C1097 0.930 . S
H1082 C1098 0.931 . S
C1083 H1071 0.929 . S
C1083 C1077 1.390 . S
C1083 C1080 1.386 . S
C1084 C1079 1.490 . S
C1084 C1086 1.395 . S
C1084 C1087 1.403 . S
H1085 C1091 0.930 . S
C1086 H1072 0.930 . S
C1086 C1084 1.395 . S
C1086 C1089 1.403 . S
C1087 C1084 1.403 . S
C1087 C1088 1.524 . S
C1087 C1091 1.400 . S
C1088 H1073 0.960 . S
C1088 H1074 0.960 . S
C1088 H1075 0.960 . S
C1088 C1087 1.524 . S
C1089 C1086 1.403 . S
C1089 C1090 1.392 . S
C1089 C1093 1.495 . S
C1090 C1089 1.392 . S
C1090 C1091 1.385 . S
C1090 C1092 1.478 . S
C1091 H1085 0.930 . S
C1091 C1087 1.400 . S
C1091 C1090 1.385 . S
C1092 C1090 1.478 . S
C1092 C1094 1.381 . S
C1092 C1098 1.383 . S
C1093 C1089 1.495 . S
C1093 H1099 0.959 . S
C1093 H1100 0.961 . S
C1093 H1101 0.960 . S
C1094 C1092 1.381 . S
C1094 C1095 1.394 . S
C1094 H1102 0.930 . S
C1095 C1094 1.394 . S
C1095 C1096 1.383 . S
C1095 H1103 0.929 . S
C1096 C1095 1.383 . S
C1096 C1097 1.377 . S
C1097 H1081 0.930 . S
C1097 C1096 1.377 . S
C1097 C1098 1.379 . S
C1098 H1082 0.931 . S
C1098 C1092 1.383 . S
C1098 C1097 1.379 . S
H1099 C1093 0.959 . S
H1100 C1093 0.961 . S
H1101 C1093 0.960 . S
H1102 C1094 0.930 . S
H1103 C1095 0.929 . S
H1104 C1112 0.929 . S
H1105 C1114 0.930 . S
H1106 C1116 0.930 . S
H1107 C1119 0.929 . S
H1108 C1122 0.930 . S
H1109 C1124 0.960 . S
H1110 C1124 0.960 . S
H1111 C1124 0.960 . S
C1112 H1104 0.929 . S
C1112 C1113 1.377 . S
C1112 C1114 1.384 . S
C1113 C1112 1.377 . S
C1113 C1119 1.390 . S
C1114 H1105 0.930 . S
C1114 C1112 1.384 . S
C1114 C1115 1.372 . S
C1115 C1114 1.372 . S
C1115 C1116 1.400 . S
C1115 C1120 1.490 . S
C1116 H1106 0.930 . S
C1116 C1115 1.400 . S
C1116 C1119 1.386 . S
H1117 C1133 0.930 . S
H1118 C1134 0.931 . S
C1119 H1107 0.929 . S
C1119 C1113 1.390 . S
C1119 C1116 1.386 . S
C1120 C1115 1.490 . S
C1120 C1122 1.395 . S
C1120 C1123 1.403 . S
H1121 C1127 0.930 . S
C1122 H1108 0.930 . S
C1122 C1120 1.395 . S
C1122 C1125 1.403 . S
C1123 C1120 1.403 . S
C1123 C1124 1.524 . S
C1123 C1127 1.400 . S
C1124 H1109 0.960 . S
C1124 H1110 0.960 . S
C1124 H1111 0.960 . S
C1124 C1123 1.524 . S
C1125 C1122 1.403 . S
C1125 C1126 1.392 . S
C1125 C1129 1.495 . S
C1126 C1125 1.392 . S
C1126 C1127 1.385 . S
C1126 C1128 1.478 . S
C1127 H1121 0.930 . S
C1127 C1123 1.400 . S
C1127 C1126 1.385 . S
C1128 C1126 1.478 . S
C1128 C1130 1.381 . S
C1128 C1134 1.383 . S
C1129 C1125 1.495 . S
C1129 H1135 0.959 . S
C1129 H1136 0.961 . S
C1129 H1137 0.960 . S
C1130 C1128 1.381 . S
C1130 C1131 1.394 . S
C1130 H1138 0.930 . S
C1131 C1130 1.394 . S
C1131 C1132 1.383 . S
C1131 H1139 0.929 . S
C1132 C1131 1.383 . S
C1132 C1133 1.377 . S
C1133 H1117 0.930 . S
C1133 C1132 1.377 . S
C1133 C1134 1.379 . S
C1134 H1118 0.931 . S
C1134 C1128 1.383 . S
C1134 C1133 1.379 . S
H1135 C1129 0.959 . S
H1136 C1129 0.961 . S
H1137 C1129 0.960 . S
H1138 C1130 0.930 . S
H1139 C1131 0.929 . S
H1140 C1148 0.929 . S
H1141 C1150 0.930 . S
H1142 C1152 0.930 . S
H1143 C1155 0.929 . S
H1144 C1158 0.930 . S
H1145 C1160 0.960 . S
H1146 C1160 0.960 . S
H1147 C1160 0.960 . S
C1148 H1140 0.929 . S
C1148 C1149 1.377 . S
C1148 C1150 1.384 . S
C1149 C1148 1.377 . S
C1149 C1155 1.390 . S
C1150 H1141 0.930 . S
C1150 C1148 1.384 . S
C1150 C1151 1.372 . S
C1151 C1150 1.372 . S
C1151 C1152 1.400 . S
C1151 C1156 1.490 . S
C1152 H1142 0.930 . S
C1152 C1151 1.400 . S
C1152 C1155 1.386 . S
H1153 C1169 0.930 . S
H1154 C1170 0.931 . S
C1155 H1143 0.929 . S
C1155 C1149 1.390 . S
C1155 C1152 1.386 . S
C1156 C1151 1.490 . S
C1156 C1158 1.395 . S
C1156 C1159 1.403 . S
H1157 C1163 0.930 . S
C1158 H1144 0.930 . S
C1158 C1156 1.395 . S
C1158 C1161 1.403 . S
C1159 C1156 1.403 . S
C1159 C1160 1.524 . S
C1159 C1163 1.400 . S
C1160 H1145 0.960 . S
C1160 H1146 0.960 . S
C1160 H1147 0.960 . S
C1160 C1159 1.524 . S
C1161 C1158 1.403 . S
C1161 C1162 1.392 . S
C1161 C1165 1.495 . S
C1162 C1161 1.392 . S
C1162 C1163 1.385 . S
C1162 C1164 1.478 . S
C1163 H1157 0.930 . S
C1163 C1159 1.400 . S
C1163 C1162 1.385 . S
C1164 C1162 1.478 . S
C1164 C1166 1.381 . S
C1164 C1170 1.383 . S
C1165 C1161 1.495 . S
C1165 H1171 0.959 . S
C1165 H1172 0.961 . S
C1165 H1173 0.960 . S
C1166 C1164 1.381 . S
C1166 C1167 1.394 . S
C1166 H1174 0.930 . S
C1167 C1166 1.394 . S
C1167 C1168 1.383 . S
C1167 H1175 0.929 . S
C1168 C1167 1.383 . S
C1168 C1169 1.377 . S
C1169 H1153 0.930 . S
C1169 C1168 1.377 . S
C1169 C1170 1.379 . S
C1170 H1154 0.931 . S
C1170 C1164 1.383 . S
C1170 C1169 1.379 . S
H1171 C1165 0.959 . S
H1172 C1165 0.961 . S
H1173 C1165 0.960 . S
H1174 C1166 0.930 . S
H1175 C1167 0.929 . S
H1176 C1184 0.929 . S
H1177 C1186 0.930 . S
H1178 C1188 0.930 . S
H1179 C1191 0.929 . S
H1180 C1194 0.930 . S
H1181 C1196 0.960 . S
H1182 C1196 0.960 . S
H1183 C1196 0.960 . S
C1184 H1176 0.929 . S
C1184 C1185 1.377 . S
C1184 C1186 1.384 . S
C1185 C1184 1.377 . S
C1185 C1191 1.390 . S
C1186 H1177 0.930 . S
C1186 C1184 1.384 . S
C1186 C1187 1.372 . S
C1187 C1186 1.372 . S
C1187 C1188 1.400 . S
C1187 C1192 1.490 . S
C1188 H1178 0.930 . S
C1188 C1187 1.400 . S
C1188 C1191 1.386 . S
H1189 C1205 0.930 . S
H1190 C1206 0.931 . S
C1191 H1179 0.929 . S
C1191 C1185 1.390 . S
C1191 C1188 1.386 . S
C1192 C1187 1.490 . S
C1192 C1194 1.395 . S
C1192 C1195 1.403 . S
H1193 C1199 0.930 . S
C1194 H1180 0.930 . S
C1194 C1192 1.395 . S
C1194 C1197 1.403 . S
C1195 C1192 1.403 . S
C1195 C1196 1.524 . S
C1195 C1199 1.400 . S
C1196 H1181 0.960 . S
C1196 H1182 0.960 . S
C1196 H1183 0.960 . S
C1196 C1195 1.524 . S
C1197 C1194 1.403 . S
C1197 C1198 1.392 . S
C1197 C1201 1.495 . S
C1198 C1197 1.392 . S
C1198 C1199 1.385 . S
C1198 C1200 1.478 . S
C1199 H1193 0.930 . S
C1199 C1195 1.400 . S
C1199 C1198 1.385 . S
C1200 C1198 1.478 . S
C1200 C1202 1.381 . S
C1200 C1206 1.383 . S
C1201 C1197 1.495 . S
C1201 H1207 0.959 . S
C1201 H1208 0.961 . S
C1201 H1209 0.960 . S
C1202 C1200 1.381 . S
C1202 C1203 1.394 . S
C1202 H1210 0.930 . S
C1203 C1202 1.394 . S
C1203 C1204 1.383 . S
C1203 H1211 0.929 . S
C1204 C1203 1.383 . S
C1204 C1205 1.377 . S
C1205 H1189 0.930 . S
C1205 C1204 1.377 . S
C1205 C1206 1.379 . S
C1206 H1190 0.931 . S
C1206 C1200 1.383 . S
C1206 C1205 1.379 . S
H1207 C1201 0.959 . S
H1208 C1201 0.961 . S
H1209 C1201 0.960 . S
H1210 C1202 0.930 . S
H1211 C1203 0.929 . S
H1212 C1220 0.929 . S
H1213 C1222 0.930 . S
H1214 C1224 0.930 . S
H1215 C1227 0.929 . S
H1216 C1230 0.930 . S
H1217 C1232 0.960 . S
H1218 C1232 0.960 . S
H1219 C1232 0.960 . S
C1220 H1212 0.929 . S
C1220 C1221 1.377 . S
C1220 C1222 1.384 . S
C1221 C1220 1.377 . S
C1221 C1227 1.390 . S
C1222 H1213 0.930 . S
C1222 C1220 1.384 . S
C1222 C1223 1.372 . S
C1223 C1222 1.372 . S
C1223 C1224 1.400 . S
C1223 C1228 1.490 . S
C1224 H1214 0.930 . S
C1224 C1223 1.400 . S
C1224 C1227 1.386 . S
H1225 C1241 0.930 . S
H1226 C1242 0.931 . S
C1227 H1215 0.929 . S
C1227 C1221 1.390 . S
C1227 C1224 1.386 . S
C1228 C1223 1.490 . S
C1228 C1230 1.395 . S
C1228 C1231 1.403 . S
H1229 C1235 0.930 . S
C1230 H1216 0.930 . S
C1230 C1228 1.395 . S
C1230 C1233 1.403 . S
C1231 C1228 1.403 . S
C1231 C1232 1.524 . S
C1231 C1235 1.400 . S
C1232 H1217 0.960 . S
C1232 H1218 0.960 . S
C1232 H1219 0.960 . S
C1232 C1231 1.524 . S
C1233 C1230 1.403 . S
C1233 C1234 1.392 . S
C1233 C1237 1.495 . S
C1234 C1233 1.392 . S
C1234 C1235 1.385 . S
C1234 C1236 1.478 . S
C1235 H1229 0.930 . S
C1235 C1231 1.400 . S
C1235 C1234 1.385 . S
C1236 C1234 1.478 . S
C1236 C1238 1.381 . S
C1236 C1242 1.383 . S
C1237 C1233 1.495 . S
C1237 H1243 0.959 . S
C1237 H1244 0.961 . S
C1237 H1245 0.960 . S
C1238 C1236 1.381 . S
C1238 C1239 1.394 . S
C1238 H1246 0.930 . S
C1239 C1238 1.394 . S
C1239 C1240 1.383 . S
C1239 H1247 0.929 . S
C1240 C1239 1.383 . S
C1240 C1241 1.377 . S
C1241 H1225 0.930 . S
C1241 C1240 1.377 . S
C1241 C1242 1.379 . S
C1242 H1226 0.931 . S
C1242 C1236 1.383 . S
C1242 C1241 1.379 . S
H1243 C1237 0.959 . S
H1244 C1237 0.961 . S
H1245 C1237 0.960 . S
H1246 C1238 0.930 . S
H1247 C1239 0.929 . S
H1248 C1256 0.929 . S
H1249 C1258 0.930 . S
H1250 C1260 0.930 . S
H1251 C1263 0.929 . S
H1252 C1266 0.930 . S
H1253 C1268 0.960 . S
H1254 C1268 0.960 . S
H1255 C1268 0.960 . S
C1256 H1248 0.929 . S
C1256 C1257 1.377 . S
C1256 C1258 1.384 . S
C1257 C1256 1.377 . S
C1257 C1263 1.390 . S
C1258 H1249 0.930 . S
C1258 C1256 1.384 . S
C1258 C1259 1.372 . S
C1259 C1258 1.372 . S
C1259 C1260 1.400 . S
C1259 C1264 1.490 . S
C1260 H1250 0.930 . S
C1260 C1259 1.400 . S
C1260 C1263 1.386 . S
H1261 C1277 0.930 . S
H1262 C1278 0.931 . S
C1263 H1251 0.929 . S
C1263 C1257 1.390 . S
C1263 C1260 1.386 . S
C1264 C1259 1.490 . S
C1264 C1266 1.395 . S
C1264 C1267 1.403 . S
H1265 C1271 0.930 . S
C1266 H1252 0.930 . S
C1266 C1264 1.395 . S
C1266 C1269 1.403 . S
C1267 C1264 1.403 . S
C1267 C1268 1.524 . S
C1267 C1271 1.400 . S
C1268 H1253 0.960 . S
C1268 H1254 0.960 . S
C1268 H1255 0.960 . S
C1268 C1267 1.524 . S
C1269 C1266 1.403 . S
C1269 C1270 1.392 . S
C1269 C1273 1.495 . S
C1270 C1269 1.392 . S
C1270 C1271 1.385 . S
C1270 C1272 1.478 . S
C1271 H1265 0.930 . S
C1271 C1267 1.400 . S
C1271 C1270 1.385 . S
C1272 C1270 1.478 . S
C1272 C1274 1.381 . S
C1272 C1278 1.383 . S
C1273 C1269 1.495 . S
C1273 H1279 0.959 . S
C1273 H1280 0.961 . S
C1273 H1281 0.960 . S
C1274 C1272 1.381 . S
C1274 C1275 1.394 . S
C1274 H1282 0.930 . S
C1275 C1274 1.394 . S
C1275 C1276 1.383 . S
C1275 H1283 0.929 . S
C1276 C1275 1.383 . S
C1276 C1277 1.377 . S
C1277 H1261 0.930 . S
C1277 C1276 1.377 . S
C1277 C1278 1.379 . S
C1278 H1262 0.931 . S
C1278 C1272 1.383 . S
C1278 C1277 1.379 . S
H1279 C1273 0.959 . S
H1280 C1273 0.961 . S
H1281 C1273 0.960 . S
H1282 C1274 0.930 . S
H1283 C1275 0.929 . S
H1284 C1292 0.929 . S
H1285 C1294 0.930 . S
H1286 C1296 0.930 . S
H1287 C1299 0.929 . S
H1288 C1302 0.930 . S
H1289 C1304 0.960 . S
H1290 C1304 0.960 . S
H1291 C1304 0.960 . S
C1292 H1284 0.929 . S
C1292 C1293 1.377 . S
C1292 C1294 1.384 . S
C1293 C1292 1.377 . S
C1293 C1299 1.390 . S
C1294 H1285 0.930 . S
C1294 C1292 1.384 . S
C1294 C1295 1.372 . S
C1295 C1294 1.372 . S
C1295 C1296 1.400 . S
C1295 C1300 1.490 . S
C1296 H1286 0.930 . S
C1296 C1295 1.400 . S
C1296 C1299 1.386 . S
H1297 C1313 0.930 . S
H1298 C1314 0.931 . S
C1299 H1287 0.929 . S
C1299 C1293 1.390 . S
C1299 C1296 1.386 . S
C1300 C1295 1.490 . S
C1300 C1302 1.395 . S
C1300 C1303 1.403 . S
H1301 C1307 0.930 . S
C1302 H1288 0.930 . S
C1302 C1300 1.395 . S
C1302 C1305 1.403 . S
C1303 C1300 1.403 . S
C1303 C1304 1.524 . S
C1303 C1307 1.400 . S
C1304 H1289 0.960 . S
C1304 H1290 0.960 . S
C1304 H1291 0.960 . S
C1304 C1303 1.524 . S
C1305 C1302 1.403 . S
C1305 C1306 1.392 . S
C1305 C1309 1.495 . S
C1306 C1305 1.392 . S
C1306 C1307 1.385 . S
C1306 C1308 1.478 . S
C1307 H1301 0.930 . S
C1307 C1303 1.400 . S
C1307 C1306 1.385 . S
C1308 C1306 1.478 . S
C1308 C1310 1.381 . S
C1308 C1314 1.383 . S
C1309 C1305 1.495 . S
C1309 H1315 0.959 . S
C1309 H1316 0.961 . S
C1309 H1317 0.960 . S
C1310 C1308 1.381 . S
C1310 C1311 1.394 . S
C1310 H1318 0.930 . S
C1311 C1310 1.394 . S
C1311 C1312 1.383 . S
C1311 H1319 0.929 . S
C1312 C1311 1.383 . S
C1312 C1313 1.377 . S
C1313 H1297 0.930 . S
C1313 C1312 1.377 . S
C1313 C1314 1.379 . S
C1314 H1298 0.931 . S
C1314 C1308 1.383 . S
C1314 C1313 1.379 . S
H1315 C1309 0.959 . S
H1316 C1309 0.961 . S
H1317 C1309 0.960 . S
H1318 C1310 0.930 . S
H1319 C1311 0.929 . S
H1320 C1328 0.929 . S
H1321 C1330 0.930 . S
H1322 C1332 0.930 . S
H1323 C1335 0.929 . S
H1324 C1338 0.930 . S
H1325 C1340 0.960 . S
H1326 C1340 0.960 . S
H1327 C1340 0.960 . S
C1328 H1320 0.929 . S
C1328 C1329 1.377 . S
C1328 C1330 1.384 . S
C1329 C1328 1.377 . S
C1329 C1335 1.390 . S
C1330 H1321 0.930 . S
C1330 C1328 1.384 . S
C1330 C1331 1.372 . S
C1331 C1330 1.372 . S
C1331 C1332 1.400 . S
C1331 C1336 1.490 . S
C1332 H1322 0.930 . S
C1332 C1331 1.400 . S
C1332 C1335 1.386 . S
H1333 C1349 0.930 . S
H1334 C1350 0.931 . S
C1335 H1323 0.929 . S
C1335 C1329 1.390 . S
C1335 C1332 1.386 . S
C1336 C1331 1.490 . S
C1336 C1338 1.395 . S
C1336 C1339 1.403 . S
H1337 C1343 0.930 . S
C1338 H1324 0.930 . S
C1338 C1336 1.395 . S
C1338 C1341 1.403 . S
C1339 C1336 1.403 . S
C1339 C1340 1.524 . S
C1339 C1343 1.400 . S
C1340 H1325 0.960 . S
C1340 H1326 0.960 . S
C1340 H1327 0.960 . S
C1340 C1339 1.524 . S
C1341 C1338 1.403 . S
C1341 C1342 1.392 . S
C1341 C1345 1.495 . S
C1342 C1341 1.392 . S
C1342 C1343 1.385 . S
C1342 C1344 1.478 . S
C1343 H1337 0.930 . S
C1343 C1339 1.400 . S
C1343 C1342 1.385 . S
C1344 C1342 1.478 . S
C1344 C1346 1.381 . S
C1344 C1350 1.383 . S
C1345 C1341 1.495 . S
C1345 H1351 0.959 . S
C1345 H1352 0.961 . S
C1345 H1353 0.960 . S
C1346 C1344 1.381 . S
C1346 C1347 1.394 . S
C1346 H1354 0.930 . S
C1347 C1346 1.394 . S
C1347 C1348 1.383 . S
C1347 H1355 0.929 . S
C1348 C1347 1.383 . S
C1348 C1349 1.377 . S
C1349 H1333 0.930 . S
C1349 C1348 1.377 . S
C1349 C1350 1.379 . S
C1350 H1334 0.931 . S
C1350 C1344 1.383 . S
C1350 C1349 1.379 . S
H1351 C1345 0.959 . S
H1352 C1345 0.961 . S
H1353 C1345 0.960 . S
H1354 C1346 0.930 . S
H1355 C1347 0.929 . S
H1356 C1364 0.929 . S
H1357 C1366 0.930 . S
H1358 C1368 0.930 . S
H1359 C1371 0.929 . S
H1360 C1374 0.930 . S
H1361 C1376 0.960 . S
H1362 C1376 0.960 . S
H1363 C1376 0.960 . S
C1364 H1356 0.929 . S
C1364 C1365 1.377 . S
C1364 C1366 1.384 . S
C1365 C1364 1.377 . S
C1365 C1371 1.390 . S
C1366 H1357 0.930 . S
C1366 C1364 1.384 . S
C1366 C1367 1.372 . S
C1367 C1366 1.372 . S
C1367 C1368 1.400 . S
C1367 C1372 1.490 . S
C1368 H1358 0.930 . S
C1368 C1367 1.400 . S
C1368 C1371 1.386 . S
H1369 C1385 0.930 . S
H1370 C1386 0.931 . S
C1371 H1359 0.929 . S
C1371 C1365 1.390 . S
C1371 C1368 1.386 . S
C1372 C1367 1.490 . S
C1372 C1374 1.395 . S
C1372 C1375 1.403 . S
H1373 C1379 0.930 . S
C1374 H1360 0.930 . S
C1374 C1372 1.395 . S
C1374 C1377 1.403 . S
C1375 C1372 1.403 . S
C1375 C1376 1.524 . S
C1375 C1379 1.400 . S
C1376 H1361 0.960 . S
C1376 H1362 0.960 . S
C1376 H1363 0.960 . S
C1376 C1375 1.524 . S
C1377 C1374 1.403 . S
C1377 C1378 1.392 . S
C1377 C1381 1.495 . S
C1378 C1377 1.392 . S
C1378 C1379 1.385 . S
C1378 C1380 1.478 . S
C1379 H1373 0.930 . S
C1379 C1375 1.400 . S
C1379 C1378 1.385 . S
C1380 C1378 1.478 . S
C1380 C1382 1.381 . S
C1380 C1386 1.383 . S
C1381 C1377 1.495 . S
C1381 H1387 0.959 . S
C1381 H1388 0.961 . S
C1381 H1389 0.960 . S
C1382 C1380 1.381 . S
C1382 C1383 1.394 . S
C1382 H1390 0.930 . S
C1383 C1382 1.394 . S
C1383 C1384 1.383 . S
C1383 H1391 0.929 . S
C1384 C1383 1.383 . S
C1384 C1385 1.377 . S
C1385 H1369 0.930 . S
C1385 C1384 1.377 . S
C1385 C1386 1.379 . S
C1386 H1370 0.931 . S
C1386 C1380 1.383 . S
C1386 C1385 1.379 . S
H1387 C1381 0.959 . S
H1388 C1381 0.961 . S
H1389 C1381 0.960 . S
H1390 C1382 0.930 . S
H1391 C1383 0.929 . S
H1392 C1400 0.929 . S
H1393 C1402 0.930 . S
H1394 C1404 0.930 . S
H1395 C1407 0.929 . S
H1396 C1410 0.930 . S
H1397 C1412 0.960 . S
H1398 C1412 0.960 . S
H1399 C1412 0.960 . S
C1400 H1392 0.929 . S
C1400 C1401 1.377 . S
C1400 C1402 1.384 . S
C1401 C1400 1.377 . S
C1401 C1407 1.390 . S
C1402 H1393 0.930 . S
C1402 C1400 1.384 . S
C1402 C1403 1.372 . S
C1403 C1402 1.372 . S
C1403 C1404 1.400 . S
C1403 C1408 1.490 . S
C1404 H1394 0.930 . S
C1404 C1403 1.400 . S
C1404 C1407 1.386 . S
H1405 C1421 0.930 . S
H1406 C1422 0.931 . S
C1407 H1395 0.929 . S
C1407 C1401 1.390 . S
C1407 C1404 1.386 . S
C1408 C1403 1.490 . S
C1408 C1410 1.395 . S
C1408 C1411 1.403 . S
H1409 C1415 0.930 . S
C1410 H1396 0.930 . S
C1410 C1408 1.395 . S
C1410 C1413 1.403 . S
C1411 C1408 1.403 . S
C1411 C1412 1.524 . S
C1411 C1415 1.400 . S
C1412 H1397 0.960 . S
C1412 H1398 0.960 . S
C1412 H1399 0.960 . S
C1412 C1411 1.524 . S
C1413 C1410 1.403 . S
C1413 C1414 1.392 . S
C1413 C1417 1.495 . S
C1414 C1413 1.392 . S
C1414 C1415 1.385 . S
C1414 C1416 1.478 . S
C1415 H1409 0.930 . S
C1415 C1411 1.400 . S
C1415 C1414 1.385 . S
C1416 C1414 1.478 . S
C1416 C1418 1.381 . S
C1416 C1422 1.383 . S
C1417 C1413 1.495 . S
C1417 H1423 0.959 . S
C1417 H1424 0.961 . S
C1417 H1425 0.960 . S
C1418 C1416 1.381 . S
C1418 C1419 1.394 . S
C1418 H1426 0.930 . S
C1419 C1418 1.394 . S
C1419 C1420 1.383 . S
C1419 H1427 0.929 . S
C1420 C1419 1.383 . S
C1420 C1421 1.377 . S
C1421 H1405 0.930 . S
C1421 C1420 1.377 . S
C1421 C1422 1.379 . S
C1422 H1406 0.931 . S
C1422 C1416 1.383 . S
C1422 C1421 1.379 . S
H1423 C1417 0.959 . S
H1424 C1417 0.961 . S
H1425 C1417 0.960 . S
H1426 C1418 0.930 . S
H1427 C1419 0.929 . S
H1428 C1436 0.929 . S
H1429 C1438 0.930 . S
H1430 C1440 0.930 . S
H1431 C1443 0.929 . S
H1432 C1446 0.930 . S
H1433 C1448 0.960 . S
H1434 C1448 0.960 . S
H1435 C1448 0.960 . S
C1436 H1428 0.929 . S
C1436 C1437 1.377 . S
C1436 C1438 1.384 . S
C1437 C1436 1.377 . S
C1437 C1443 1.390 . S
C1438 H1429 0.930 . S
C1438 C1436 1.384 . S
C1438 C1439 1.372 . S
C1439 C1438 1.372 . S
C1439 C1440 1.400 . S
C1439 C1444 1.490 . S
C1440 H1430 0.930 . S
C1440 C1439 1.400 . S
C1440 C1443 1.386 . S
H1441 C1457 0.930 . S
H1442 C1458 0.931 . S
C1443 H1431 0.929 . S
C1443 C1437 1.390 . S
C1443 C1440 1.386 . S
C1444 C1439 1.490 . S
C1444 C1446 1.395 . S
C1444 C1447 1.403 . S
H1445 C1451 0.930 . S
C1446 H1432 0.930 . S
C1446 C1444 1.395 . S
C1446 C1449 1.403 . S
C1447 C1444 1.403 . S
C1447 C1448 1.524 . S
C1447 C1451 1.400 . S
C1448 H1433 0.960 . S
C1448 H1434 0.960 . S
C1448 H1435 0.960 . S
C1448 C1447 1.524 . S
C1449 C1446 1.403 . S
C1449 C1450 1.392 . S
C1449 C1453 1.495 . S
C1450 C1449 1.392 . S
C1450 C1451 1.385 . S
C1450 C1452 1.478 . S
C1451 H1445 0.930 . S
C1451 C1447 1.400 . S
C1451 C1450 1.385 . S
C1452 C1450 1.478 . S
C1452 C1454 1.381 . S
C1452 C1458 1.383 . S
C1453 C1449 1.495 . S
C1453 H1459 0.959 . S
C1453 H1460 0.961 . S
C1453 H1461 0.960 . S
C1454 C1452 1.381 . S
C1454 C1455 1.394 . S
C1454 H1462 0.930 . S
C1455 C1454 1.394 . S
C1455 C1456 1.383 . S
C1455 H1463 0.929 . S
C1456 C1455 1.383 . S
C1456 C1457 1.377 . S
C1457 H1441 0.930 . S
C1457 C1456 1.377 . S
C1457 C1458 1.379 . S
C1458 H1442 0.931 . S
C1458 C1452 1.383 . S
C1458 C1457 1.379 . S
H1459 C1453 0.959 . S
H1460 C1453 0.961 . S
H1461 C1453 0.960 . S
H1462 C1454 0.930 . S
H1463 C1455 0.929 . S
H1464 C1472 0.929 . S
H1465 C1474 0.930 . S
H1466 C1476 0.930 . S
H1467 C1479 0.929 . S
H1468 C1482 0.930 . S
H1469 C1484 0.960 . S
H1470 C1484 0.960 . S
H1471 C1484 0.960 . S
C1472 H1464 0.929 . S
C1472 C1473 1.377 . S
C1472 C1474 1.384 . S
C1473 C1472 1.377 . S
C1473 C1479 1.390 . S
C1474 H1465 0.930 . S
C1474 C1472 1.384 . S
C1474 C1475 1.372 . S
C1475 C1474 1.372 . S
C1475 C1476 1.400 . S
C1475 C1480 1.490 . S
C1476 H1466 0.930 . S
C1476 C1475 1.400 . S
C1476 C1479 1.386 . S
H1477 C1493 0.930 . S
H1478 C1494 0.931 . S
C1479 H1467 0.929 . S
C1479 C1473 1.390 . S
C1479 C1476 1.386 . S
C1480 C1475 1.490 . S
C1480 C1482 1.395 . S
C1480 C1483 1.403 . S
H1481 C1487 0.930 . S
C1482 H1468 0.930 . S
C1482 C1480 1.395 . S
C1482 C1485 1.403 . S
C1483 C1480 1.403 . S
C1483 C1484 1.524 . S
C1483 C1487 1.400 . S
C1484 H1469 0.960 . S
C1484 H1470 0.960 . S
C1484 H1471 0.960 . S
C1484 C1483 1.524 . S
C1485 C1482 1.403 . S
C1485 C1486 1.392 . S
C1485 C1489 1.495 . S
C1486 C1485 1.392 . S
C1486 C1487 1.385 . S
C1486 C1488 1.478 . S
C1487 H1481 0.930 . S
C1487 C1483 1.400 . S
C1487 C1486 1.385 . S
C1488 C1486 1.478 . S
C1488 C1490 1.381 . S
C1488 C1494 1.383 . S
C1489 C1485 1.495 . S
C1489 H1495 0.959 . S
C1489 H1496 0.961 . S
C1489 H1497 0.960 . S
C1490 C1488 1.381 . S
C1490 C1491 1.394 . S
C1490 H1498 0.930 . S
C1491 C1490 1.394 . S
C1491 C1492 1.383 . S
C1491 H1499 0.929 . S
C1492 C1491 1.383 . S
C1492 C1493 1.377 . S
C1493 H1477 0.930 . S
C1493 C1492 1.377 . S
C1493 C1494 1.379 . S
C1494 H1478 0.931 . S
C1494 C1488 1.383 . S
C1494 C1493 1.379 . S
H1495 C1489 0.959 . S
H1496 C1489 0.961 . S
H1497 C1489 0.960 . S
H1498 C1490 0.930 . S
H1499 C1491 0.929 . S
H1500 C1508 0.929 . S
H1501 C1510 0.930 . S
H1502 C1512 0.930 . S
H1503 C1515 0.929 . S
H1504 C1518 0.930 . S
H1505 C1520 0.960 . S
H1506 C1520 0.960 . S
H1507 C1520 0.960 . S
C1508 H1500 0.929 . S
C1508 C1509 1.377 . S
C1508 C1510 1.384 . S
C1509 C1508 1.377 . S
C1509 C1515 1.390 . S
C1510 H1501 0.930 . S
C1510 C1508 1.384 . S
C1510 C1511 1.372 . S
C1511 C1510 1.372 . S
C1511 C1512 1.400 . S
C1511 C1516 1.490 . S
C1512 H1502 0.930 . S
C1512 C1511 1.400 . S
C1512 C1515 1.386 . S
H1513 C1529 0.930 . S
H1514 C1530 0.931 . S
C1515 H1503 0.929 . S
C1515 C1509 1.390 . S
C1515 C1512 1.386 . S
C1516 C1511 1.490 . S
C1516 C1518 1.395 . S
C1516 C1519 1.403 . S
H1517 C1523 0.930 . S
C1518 H1504 0.930 . S
C1518 C1516 1.395 . S
C1518 C1521 1.403 . S
C1519 C1516 1.403 . S
C1519 C1520 1.524 . S
C1519 C1523 1.400 . S
C1520 H1505 0.960 . S
C1520 H1506 0.960 . S
C1520 H1507 0.960 . S
C1520 C1519 1.524 . S
C1521 C1518 1.403 . S
C1521 C1522 1.392 . S
C1521 C1525 1.495 . S
C1522 C1521 1.392 . S
C1522 C1523 1.385 . S
C1522 C1524 1.478 . S
C1523 H1517 0.930 . S
C1523 C1519 1.400 . S
C1523 C1522 1.385 . S
C1524 C1522 1.478 . S
C1524 C1526 1.381 . S
C1524 C1530 1.383 . S
C1525 C1521 1.495 . S
C1525 H1531 0.959 . S
C1525 H1532 0.961 . S
C1525 H1533 0.960 . S
C1526 C1524 1.381 . S
C1526 C1527 1.394 . S
C1526 H1534 0.930 . S
C1527 C1526 1.394 . S
C1527 C1528 1.383 . S
C1527 H1535 0.929 . S
C1528 C1527 1.383 . S
C1528 C1529 1.377 . S
C1529 H1513 0.930 . S
C1529 C1528 1.377 . S
C1529 C1530 1.379 . S
C1530 H1514 0.931 . S
C1530 C1524 1.383 . S
C1530 C1529 1.379 . S
H1531 C1525 0.959 . S
H1532 C1525 0.961 . S
H1533 C1525 0.960 . S
H1534 C1526 0.930 . S
H1535 C1527 0.929 . S
H1536 C1544 0.929 . S
H1537 C1546 0.930 . S
H1538 C1548 0.930 . S
H1539 C1551 0.929 . S
H1540 C1554 0.930 . S
H1541 C1556 0.960 . S
H1542 C1556 0.960 . S
H1543 C1556 0.960 . S
C1544 H1536 0.929 . S
C1544 C1545 1.377 . S
C1544 C1546 1.384 . S
C1545 C1544 1.377 . S
C1545 C1551 1.390 . S
C1546 H1537 0.930 . S
C1546 C1544 1.384 . S
C1546 C1547 1.372 . S
C1547 C1546 1.372 . S
C1547 C1548 1.400 . S
C1547 C1552 1.490 . S
C1548 H1538 0.930 . S
C1548 C1547 1.400 . S
C1548 C1551 1.386 . S
H1549 C1565 0.930 . S
H1550 C1566 0.931 . S
C1551 H1539 0.929 . S
C1551 C1545 1.390 . S
C1551 C1548 1.386 . S
C1552 C1547 1.490 . S
C1552 C1554 1.395 . S
C1552 C1555 1.403 . S
H1553 C1559 0.930 . S
C1554 H1540 0.930 . S
C1554 C1552 1.395 . S
C1554 C1557 1.403 . S
C1555 C1552 1.403 . S
C1555 C1556 1.524 . S
C1555 C1559 1.400 . S
C1556 H1541 0.960 . S
C1556 H1542 0.960 . S
C1556 H1543 0.960 . S
C1556 C1555 1.524 . S
C1557 C1554 1.403 . S
C1557 C1558 1.392 . S
C1557 C1561 1.495 . S
C1558 C1557 1.392 . S
C1558 C1559 1.385 . S
C1558 C1560 1.478 . S
C1559 H1553 0.930 . S
C1559 C1555 1.400 . S
C1559 C1558 1.385 . S
C1560 C1558 1.478 . S
C1560 C1562 1.381 . S
C1560 C1566 1.383 . S
C1561 C1557 1.495 . S
C1561 H1567 0.959 . S
C1561 H1568 0.961 . S
C1561 H1569 0.960 . S
C1562 C1560 1.381 . S
C1562 C1563 1.394 . S
C1562 H1570 0.930 . S
C1563 C1562 1.394 . S
C1563 C1564 1.383 . S
C1563 H1571 0.929 . S
C1564 C1563 1.383 . S
C1564 C1565 1.377 . S
C1565 H1549 0.930 . S
C1565 C1564 1.377 . S
C1565 C1566 1.379 . S
C1566 H1550 0.931 . S
C1566 C1560 1.383 . S
C1566 C1565 1.379 . S
H1567 C1561 0.959 . S
H1568 C1561 0.961 . S
H1569 C1561 0.960 . S
H1570 C1562 0.930 . S
H1571 C1563 0.929 . S
H1572 C1580 0.929 . S
H1573 C1582 0.930 . S
H1574 C1584 0.930 . S
H1575 C1587 0.929 . S
H1576 C1590 0.930 . S
H1577 C1592 0.960 . S
H1578 C1592 0.960 . S
H1579 C1592 0.960 . S
C1580 H1572 0.929 . S
C1580 C1581 1.377 . S
C1580 C1582 1.384 . S
C1581 C1580 1.377 . S
C1581 C1587 1.390 . S
C1582 H1573 0.930 . S
C1582 C1580 1.384 . S
C1582 C1583 1.372 . S
C1583 C1582 1.372 . S
C1583 C1584 1.400 . S
C1583 C1588 1.490 . S
C1584 H1574 0.930 . S
C1584 C1583 1.400 . S
C1584 C1587 1.386 . S
H1585 C1601 0.930 . S
H1586 C1602 0.931 . S
C1587 H1575 0.929 . S
C1587 C1581 1.390 . S
C1587 C1584 1.386 . S
C1588 C1583 1.490 . S
C1588 C1590 1.395 . S
C1588 C1591 1.403 . S
H1589 C1595 0.930 . S
C1590 H1576 0.930 . S
C1590 C1588 1.395 . S
C1590 C1593 1.403 . S
C1591 C1588 1.403 . S
C1591 C1592 1.524 . S
C1591 C1595 1.400 . S
C1592 H1577 0.960 . S
C1592 H1578 0.960 . S
C1592 H1579 0.960 . S
C1592 C1591 1.524 . S
C1593 C1590 1.403 . S
C1593 C1594 1.392 . S
C1593 C1597 1.495 . S
C1594 C1593 1.392 . S
C1594 C1595 1.385 . S
C1594 C1596 1.478 . S
C1595 H1589 0.930 . S
C1595 C1591 1.400 . S
C1595 C1594 1.385 . S
C1596 C1594 1.478 . S
C1596 C1598 1.381 . S
C1596 C1602 1.383 . S
C1597 C1593 1.495 . S
C1597 H1603 0.959 . S
C1597 H1604 0.961 . S
C1597 H1605 0.960 . S
C1598 C1596 1.381 . S
C1598 C1599 1.394 . S
C1598 H1606 0.930 . S
C1599 C1598 1.394 . S
C1599 C1600 1.383 . S
C1599 H1607 0.929 . S
C1600 C1599 1.383 . S
C1600 C1601 1.377 . S
C1601 H1585 0.930 . S
C1601 C1600 1.377 . S
C1601 C1602 1.379 . S
C1602 H1586 0.931 . S
C1602 C1596 1.383 . S
C1602 C1601 1.379 . S
H1603 C1597 0.959 . S
H1604 C1597 0.961 . S
H1605 C1597 0.960 . S
H1606 C1598 0.930 . S
H1607 C1599 0.929 . S
H1608 C1616 0.929 . S
H1609 C1618 0.930 . S
H1610 C1620 0.930 . S
H1611 C1623 0.929 . S
H1612 C1626 0.930 . S
H1613 C1628 0.960 . S
H1614 C1628 0.960 . S
H1615 C1628 0.960 . S
C1616 H1608 0.929 . S
C1616 C1617 1.377 . S
C1616 C1618 1.384 . S
C1617 C1616 1.377 . S
C1617 C1623 1.390 . S
C1618 H1609 0.930 . S
C1618 C1616 1.384 . S
C1618 C1619 1.372 . S
C1619 C1618 1.372 . S
C1619 C1620 1.400 . S
C1619 C1624 1.490 . S
C1620 H1610 0.930 . S
C1620 C1619 1.400 . S
C1620 C1623 1.386 . S
H1621 C1637 0.930 . S
H1622 C1638 0.931 . S
C1623 H1611 0.929 . S
C1623 C1617 1.390 . S
C1623 C1620 1.386 . S
C1624 C1619 1.490 . S
C1624 C1626 1.395 . S
C1624 C1627 1.403 . S
H1625 C1631 0.930 . S
C1626 H1612 0.930 . S
C1626 C1624 1.395 . S
C1626 C1629 1.403 . S
C1627 C1624 1.403 . S
C1627 C1628 1.524 . S
C1627 C1631 1.400 . S
C1628 H1613 0.960 . S
C1628 H1614 0.960 . S
C1628 H1615 0.960 . S
C1628 C1627 1.524 . S
C1629 C1626 1.403 . S
C1629 C1630 1.392 . S
C1629 C1633 1.495 . S
C1630 C1629 1.392 . S
C1630 C1631 1.385 . S
C1630 C1632 1.478 . S
C1631 H1625 0.930 . S
C1631 C1627 1.400 . S
C1631 C1630 1.385 . S
C1632 C1630 1.478 . S
C1632 C1634 1.381 . S
C1632 C1638 1.383 . S
C1633 C1629 1.495 . S
C1633 H1639 0.959 . S
C1633 H1640 0.961 . S
C1633 H1641 0.960 . S
C1634 C1632 1.381 . S
C1634 C1635 1.394 . S
C1634 H1642 0.930 . S
C1635 C1634 1.394 . S
C1635 C1636 1.383 . S
C1635 H1643 0.929 . S
C1636 C1635 1.383 . S
C1636 C1637 1.377 . S
C1637 H1621 0.930 . S
C1637 C1636 1.377 . S
C1637 C1638 1.379 . S
C1638 H1622 0.931 . S
C1638 C1632 1.383 . S
C1638 C1637 1.379 . S
H1639 C1633 0.959 . S
H1640 C1633 0.961 . S
H1641 C1633 0.960 . S
H1642 C1634 0.930 . S
H1643 C1635 0.929 . S
H1644 C1652 0.929 . S
H1645 C1654 0.930 . S
H1646 C1656 0.930 . S
H1647 C1659 0.929 . S
H1648 C1662 0.930 . S
H1649 C1664 0.960 . S
H1650 C1664 0.960 . S
H1651 C1664 0.960 . S
C1652 H1644 0.929 . S
C1652 C1653 1.377 . S
C1652 C1654 1.384 . S
C1653 C1652 1.377 . S
C1653 C1659 1.390 . S
C1654 H1645 0.930 . S
C1654 C1652 1.384 . S
C1654 C1655 1.372 . S
C1655 C1654 1.372 . S
C1655 C1656 1.400 . S
C1655 C1660 1.490 . S
C1656 H1646 0.930 . S
C1656 C1655 1.400 . S
C1656 C1659 1.386 . S
H1657 C1673 0.930 . S
H1658 C1674 0.931 . S
C1659 H1647 0.929 . S
C1659 C1653 1.390 . S
C1659 C1656 1.386 . S
C1660 C1655 1.490 . S
C1660 C1662 1.395 . S
C1660 C1663 1.403 . S
H1661 C1667 0.930 . S
C1662 H1648 0.930 . S
C1662 C1660 1.395 . S
C1662 C1665 1.403 . S
C1663 C1660 1.403 . S
C1663 C1664 1.524 . S
C1663 C1667 1.400 . S
C1664 H1649 0.960 . S
C1664 H1650 0.960 . S
C1664 H1651 0.960 . S
C1664 C1663 1.524 . S
C1665 C1662 1.403 . S
C1665 C1666 1.392 . S
C1665 C1669 1.495 . S
C1666 C1665 1.392 . S
C1666 C1667 1.385 . S
C1666 C1668 1.478 . S
C1667 H1661 0.930 . S
C1667 C1663 1.400 . S
C1667 C1666 1.385 . S
C1668 C1666 1.478 . S
C1668 C1670 1.381 . S
C1668 C1674 1.383 . S
C1669 C1665 1.495 . S
C1669 H1675 0.959 . S
C1669 H1676 0.961 . S
C1669 H1677 0.960 . S
C1670 C1668 1.381 . S
C1670 C1671 1.394 . S
C1670 H1678 0.930 . S
C1671 C1670 1.394 . S
C1671 C1672 1.383 . S
C1671 H1679 0.929 . S
C1672 C1671 1.383 . S
C1672 C1673 1.377 . S
C1673 H1657 0.930 . S
C1673 C1672 1.377 . S
C1673 C1674 1.379 . S
C1674 H1658 0.931 . S
C1674 C1668 1.383 . S
C1674 C1673 1.379 . S
H1675 C1669 0.959 . S
H1676 C1669 0.961 . S
H1677 C1669 0.960 . S
H1678 C1670 0.930 . S
H1679 C1671 0.929 . S
H1680 C1688 0.929 . S
H1681 C1690 0.930 . S
H1682 C1692 0.930 . S
H1683 C1695 0.929 . S
H1684 C1698 0.930 . S
H1685 C1700 0.960 . S
H1686 C1700 0.960 . S
H1687 C1700 0.960 . S
C1688 H1680 0.929 . S
C1688 C1689 1.377 . S
C1688 C1690 1.384 . S
C1689 C1688 1.377 . S
C1689 C1695 1.390 . S
C1690 H1681 0.930 . S
C1690 C1688 1.384 . S
C1690 C1691 1.372 . S
C1691 C1690 1.372 . S
C1691 C1692 1.400 . S
C1691 C1696 1.490 . S
C1692 H1682 0.930 . S
C1692 C1691 1.400 . S
C1692 C1695 1.386 . S
H1693 C1709 0.930 . S
H1694 C1710 0.931 . S
C1695 H1683 0.929 . S
C1695 C1689 1.390 . S
C1695 C1692 1.386 . S
C1696 C1691 1.490 . S
C1696 C1698 1.395 . S
C1696 C1699 1.403 . S
H1697 C1703 0.930 . S
C1698 H1684 0.930 . S
C1698 C1696 1.395 . S
C1698 C1701 1.403 . S
C1699 C1696 1.403 . S
C1699 C1700 1.524 . S
C1699 C1703 1.400 . S
C1700 H1685 0.960 . S
C1700 H1686 0.960 . S
C1700 H1687 0.960 . S
C1700 C1699 1.524 . S
C1701 C1698 1.403 . S
C1701 C1702 1.392 . S
C1701 C1705 1.495 . S
C1702 C1701 1.392 . S
C1702 C1703 1.385 . S
C1702 C1704 1.478 . S
C1703 H1697 0.930 . S
C1703 C1699 1.400 . S
C1703 C1702 1.385 . S
C1704 C1702 1.478 . S
C1704 C1706 1.381 . S
C1704 C1710 1.383 . S
C1705 C1701 1.495 . S
C1705 H1711 0.959 . S
C1705 H1712 0.961 . S
C1705 H1713 0.960 . S
C1706 C1704 1.381 . S
C1706 C1707 1.394 . S
C1706 H1714 0.930 . S
C1707 C1706 1.394 . S
C1707 C1708 1.383 . S
C1707 H1715 0.929 . S
C1708 C1707 1.383 . S
C1708 C1709 1.377 . S
C1709 H1693 0.930 . S
C1709 C1708 1.377 . S
C1709 C1710 1.379 . S
C1710 H1694 0.931 . S
C1710 C1704 1.383 . S
C1710 C1709 1.379 . S
H1711 C1705 0.959 . S
H1712 C1705 0.961 . S
H1713 C1705 0.960 . S
H1714 C1706 0.930 . S
H1715 C1707 0.929 . S
H1716 C1724 0.929 . S
H1717 C1726 0.930 . S
H1718 C1728 0.930 . S
H1719 C1731 0.929 . S
H1720 C1734 0.930 . S
H1721 C1736 0.960 . S
H1722 C1736 0.960 . S
H1723 C1736 0.960 . S
C1724 H1716 0.929 . S
C1724 C1725 1.377 . S
C1724 C1726 1.384 . S
C1725 C1724 1.377 . S
C1725 C1731 1.390 . S
C1726 H1717 0.930 . S
C1726 C1724 1.384 . S
C1726 C1727 1.372 . S
C1727 C1726 1.372 . S
C1727 C1728 1.400 . S
C1727 C1732 1.490 . S
C1728 H1718 0.930 . S
C1728 C1727 1.400 . S
C1728 C1731 1.386 . S
H1729 C1745 0.930 . S
H1730 C1746 0.931 . S
C1731 H1719 0.929 . S
C1731 C1725 1.390 . S
C1731 C1728 1.386 . S
C1732 C1727 1.490 . S
C1732 C1734 1.395 . S
C1732 C1735 1.403 . S
H1733 C1739 0.930 . S
C1734 H1720 0.930 . S
C1734 C1732 1.395 . S
C1734 C1737 1.403 . S
C1735 C1732 1.403 . S
C1735 C1736 1.524 . S
C1735 C1739 1.400 . S
C1736 H1721 0.960 . S
C1736 H1722 0.960 . S
C1736 H1723 0.960 . S
C1736 C1735 1.524 . S
C1737 C1734 1.403 . S
C1737 C1738 1.392 . S
C1737 C1741 1.495 . S
C1738 C1737 1.392 . S
C1738 C1739 1.385 . S
C1738 C1740 1.478 . S
C1739 H1733 0.930 . S
C1739 C1735 1.400 . S
C1739 C1738 1.385 . S
C1740 C1738 1.478 . S
C1740 C1742 1.381 . S
C1740 C1746 1.383 . S
C1741 C1737 1.495 . S
C1741 H1747 0.959 . S
C1741 H1748 0.961 . S
C1741 H1749 0.960 . S
C1742 C1740 1.381 . S
C1742 C1743 1.394 . S
C1742 H1750 0.930 . S
C1743 C1742 1.394 . S
C1743 C1744 1.383 . S
C1743 H1751 0.929 . S
C1744 C1743 1.383 . S
C1744 C1745 1.377 . S
C1745 H1729 0.930 . S
C1745 C1744 1.377 . S
C1745 C1746 1.379 . S
C1746 H1730 0.931 . S
C1746 C1740 1.383 . S
C1746 C1745 1.379 . S
H1747 C1741 0.959 . S
H1748 C1741 0.961 . S
H1749 C1741 0.960 . S
H1750 C1742 0.930 . S
H1751 C1743 0.929 . S
H1752 C1760 0.929 . S
H1753 C1762 0.930 . S
H1754 C1764 0.930 . S
H1755 C1767 0.929 . S
H1756 C1770 0.930 . S
H1757 C1772 0.960 . S
H1758 C1772 0.960 . S
H1759 C1772 0.960 . S
C1760 H1752 0.929 . S
C1760 C1761 1.377 . S
C1760 C1762 1.384 . S
C1761 C1760 1.377 . S
C1761 C1767 1.390 . S
C1762 H1753 0.930 . S
C1762 C1760 1.384 . S
C1762 C1763 1.372 . S
C1763 C1762 1.372 . S
C1763 C1764 1.400 . S
C1763 C1768 1.490 . S
C1764 H1754 0.930 . S
C1764 C1763 1.400 . S
C1764 C1767 1.386 . S
H1765 C1781 0.930 . S
H1766 C1782 0.931 . S
C1767 H1755 0.929 . S
C1767 C1761 1.390 . S
C1767 C1764 1.386 . S
C1768 C1763 1.490 . S
C1768 C1770 1.395 . S
C1768 C1771 1.403 . S
H1769 C1775 0.930 . S
C1770 H1756 0.930 . S
C1770 C1768 1.395 . S
C1770 C1773 1.403 . S
C1771 C1768 1.403 . S
C1771 C1772 1.524 . S
C1771 C1775 1.400 . S
C1772 H1757 0.960 . S
C1772 H1758 0.960 . S
C1772 H1759 0.960 . S
C1772 C1771 1.524 . S
C1773 C1770 1.403 . S
C1773 C1774 1.392 . S
C1773 C1777 1.495 . S
C1774 C1773 1.392 . S
C1774 C1775 1.385 . S
C1774 C1776 1.478 . S
C1775 H1769 0.930 . S
C1775 C1771 1.400 . S
C1775 C1774 1.385 . S
C1776 C1774 1.478 . S
C1776 C1778 1.381 . S
C1776 C1782 1.383 . S
C1777 C1773 1.495 . S
C1777 H1783 0.959 . S
C1777 H1784 0.961 . S
C1777 H1785 0.960 . S
C1778 C1776 1.381 . S
C1778 C1779 1.394 . S
C1778 H1786 0.930 . S
C1779 C1778 1.394 . S
C1779 C1780 1.383 . S
C1779 H1787 0.929 . S
C1780 C1779 1.383 . S
C1780 C1781 1.377 . S
C1781 H1765 0.930 . S
C1781 C1780 1.377 . S
C1781 C1782 1.379 . S
C1782 H1766 0.931 . S
C1782 C1776 1.383 . S
C1782 C1781 1.379 . S
H1783 C1777 0.959 . S
H1784 C1777 0.961 . S
H1785 C1777 0.960 . S
H1786 C1778 0.930 . S
H1787 C1779 0.929 . S
H1788 C1796 0.929 . S
H1789 C1798 0.930 . S
H1790 C1800 0.930 . S
H1791 C1803 0.929 . S
H1792 C1806 0.930 . S
H1793 C1808 0.960 . S
H1794 C1808 0.960 . S
H1795 C1808 0.960 . S
C1796 H1788 0.929 . S
C1796 C1797 1.377 . S
C1796 C1798 1.384 . S
C1797 C1796 1.377 . S
C1797 C1803 1.390 . S
C1798 H1789 0.930 . S
C1798 C1796 1.384 . S
C1798 C1799 1.372 . S
C1799 C1798 1.372 . S
C1799 C1800 1.400 . S
C1799 C1804 1.490 . S
C1800 H1790 0.930 . S
C1800 C1799 1.400 . S
C1800 C1803 1.386 . S
H1801 C1817 0.930 . S
H1802 C1818 0.931 . S
C1803 H1791 0.929 . S
C1803 C1797 1.390 . S
C1803 C1800 1.386 . S
C1804 C1799 1.490 . S
C1804 C1806 1.395 . S
C1804 C1807 1.403 . S
H1805 C1811 0.930 . S
C1806 H1792 0.930 . S
C1806 C1804 1.395 . S
C1806 C1809 1.403 . S
C1807 C1804 1.403 . S
C1807 C1808 1.524 . S
C1807 C1811 1.400 . S
C1808 H1793 0.960 . S
C1808 H1794 0.960 . S
C1808 H1795 0.960 . S
C1808 C1807 1.524 . S
C1809 C1806 1.403 . S
C1809 C1810 1.392 . S
C1809 C1813 1.495 . S
C1810 C1809 1.392 . S
C1810 C1811 1.385 . S
C1810 C1812 1.478 . S
C1811 H1805 0.930 . S
C1811 C1807 1.400 . S
C1811 C1810 1.385 . S
C1812 C1810 1.478 . S
C1812 C1814 1.381 . S
C1812 C1818 1.383 . S
C1813 C1809 1.495 . S
C1813 H1819 0.959 . S
C1813 H1820 0.961 . S
C1813 H1821 0.960 . S
C1814 C1812 1.381 . S
C1814 C1815 1.394 . S
C1814 H1822 0.930 . S
C1815 C1814 1.394 . S
C1815 C1816 1.383 . S
C1815 H1823 0.929 . S
C1816 C1815 1.383 . S
C1816 C1817 1.377 . S
C1817 H1801 0.930 . S
C1817 C1816 1.377 . S
C1817 C1818 1.379 . S
C1818 H1802 0.931 . S
C1818 C1812 1.383 . S
C1818 C1817 1.379 . S
H1819 C1813 0.959 . S
H1820 C1813 0.961 . S
H1821 C1813 0.960 . S
H1822 C1814 0.930 . S
H1823 C1815 0.929 . S
H1824 C1832 0.929 . S
H1825 C1834 0.930 . S
H1826 C1836 0.930 . S
H1827 C1839 0.929 . S
H1828 C1842 0.930 . S
H1829 C1844 0.960 . S
H1830 C1844 0.960 . S
H1831 C1844 0.960 . S
C1832 H1824 0.929 . S
C1832 C1833 1.377 . S
C1832 C1834 1.384 . S
C1833 C1832 1.377 . S
C1833 C1839 1.390 . S
C1834 H1825 0.930 . S
C1834 C1832 1.384 . S
C1834 C1835 1.372 . S
C1835 C1834 1.372 . S
C1835 C1836 1.400 . S
C1835 C1840 1.490 . S
C1836 H1826 0.930 . S
C1836 C1835 1.400 . S
C1836 C1839 1.386 . S
H1837 C1853 0.930 . S
H1838 C1854 0.931 . S
C1839 H1827 0.929 . S
C1839 C1833 1.390 . S
C1839 C1836 1.386 . S
C1840 C1835 1.490 . S
C1840 C1842 1.395 . S
C1840 C1843 1.403 . S
H1841 C1847 0.930 . S
C1842 H1828 0.930 . S
C1842 C1840 1.395 . S
C1842 C1845 1.403 . S
C1843 C1840 1.403 . S
C1843 C1844 1.524 . S
C1843 C1847 1.400 . S
C1844 H1829 0.960 . S
C1844 H1830 0.960 . S
C1844 H1831 0.960 . S
C1844 C1843 1.524 . S
C1845 C1842 1.403 . S
C1845 C1846 1.392 . S
C1845 C1849 1.495 . S
C1846 C1845 1.392 . S
C1846 C1847 1.385 . S
C1846 C1848 1.478 . S
C1847 H1841 0.930 . S
C1847 C1843 1.400 . S
C1847 C1846 1.385 . S
C1848 C1846 1.478 . S
C1848 C1850 1.381 . S
C1848 C1854 1.383 . S
C1849 C1845 1.495 . S
C1849 H1855 0.959 . S
C1849 H1856 0.961 . S
C1849 H1857 0.960 . S
C1850 C1848 1.381 . S
C1850 C1851 1.394 . S
C1850 H1858 0.930 . S
C1851 C1850 1.394 . S
C1851 C1852 1.383 . S
C1851 H1859 0.929 . S
C1852 C1851 1.383 . S
C1852 C1853 1.377 . S
C1853 H1837 0.930 . S
C1853 C1852 1.377 . S
C1853 C1854 1.379 . S
C1854 H1838 0.931 . S
C1854 C1848 1.383 . S
C1854 C1853 1.379 . S
H1855 C1849 0.959 . S
H1856 C1849 0.961 . S
H1857 C1849 0.960 . S
H1858 C1850 0.930 . S
H1859 C1851 0.929 . S
H1860 C1868 0.929 . S
H1861 C1870 0.930 . S
H1862 C1872 0.930 . S
H1863 C1875 0.929 . S
H1864 C1878 0.930 . S
H1865 C1880 0.960 . S
H1866 C1880 0.960 . S
H1867 C1880 0.960 . S
C1868 H1860 0.929 . S
C1868 C1869 1.377 . S
C1868 C1870 1.384 . S
C1869 C1868 1.377 . S
C1869 C1875 1.390 . S
C1870 H1861 0.930 . S
C1870 C1868 1.384 . S
C1870 C1871 1.372 . S
C1871 C1870 1.372 . S
C1871 C1872 1.400 . S
C1871 C1876 1.490 . S
C1872 H1862 0.930 . S
C1872 C1871 1.400 . S
C1872 C1875 1.386 . S
H1873 C1889 0.930 . S
H1874 C1890 0.931 . S
C1875 H1863 0.929 . S
C1875 C1869 1.390 . S
C1875 C1872 1.386 . S
C1876 C1871 1.490 . S
C1876 C1878 1.395 . S
C1876 C1879 1.403 . S
H1877 C1883 0.930 . S
C1878 H1864 0.930 . S
C1878 C1876 1.395 . S
C1878 C1881 1.403 . S
C1879 C1876 1.403 . S
C1879 C1880 1.524 . S
C1879 C1883 1.400 . S
C1880 H1865 0.960 . S
C1880 H1866 0.960 . S
C1880 H1867 0.960 . S
C1880 C1879 1.524 . S
C1881 C1878 1.403 . S
C1881 C1882 1.392 . S
C1881 C1885 1.495 . S
C1882 C1881 1.392 . S
C1882 C1883 1.385 . S
C1882 C1884 1.478 . S
C1883 H1877 0.930 . S
C1883 C1879 1.400 . S
C1883 C1882 1.385 . S
C1884 C1882 1.478 . S
C1884 C1886 1.381 . S
C1884 C1890 1.383 . S
C1885 C1881 1.495 . S
C1885 H1891 0.959 . S
C1885 H1892 0.961 . S
C1885 H1893 0.960 . S
C1886 C1884 1.381 . S
C1886 C1887 1.394 . S
C1886 H1894 0.930 . S
C1887 C1886 1.394 . S
C1887 C1888 1.383 . S
C1887 H1895 0.929 . S
C1888 C1887 1.383 . S
C1888 C1889 1.377 . S
C1889 H1873 0.930 . S
C1889 C1888 1.377 . S
C1889 C1890 1.379 . S
C1890 H1874 0.931 . S
C1890 C1884 1.383 . S
C1890 C1889 1.379 . S
H1891 C1885 0.959 . S
H1892 C1885 0.961 . S
H1893 C1885 0.960 . S
H1894 C1886 0.930 . S
H1895 C1887 0.929 . S
H1896 C1904 0.929 . S
H1897 C1906 0.930 . S
H1898 C1908 0.930 . S
H1899 C1911 0.929 . S
H1900 C1914 0.930 . S
H1901 C1916 0.960 . S
H1902 C1916 0.960 . S
H1903 C1916 0.960 . S
C1904 H1896 0.929 . S
C1904 C1905 1.377 . S
C1904 C1906 1.384 . S
C1905 C1904 1.377 . S
C1905 C1911 1.390 . S
C1906 H1897 0.930 . S
C1906 C1904 1.384 . S
C1906 C1907 1.372 . S
C1907 C1906 1.372 . S
C1907 C1908 1.400 . S
C1907 C1912 1.490 . S
C1908 H1898 0.930 . S
C1908 C1907 1.400 . S
C1908 C1911 1.386 . S
H1909 C1925 0.930 . S
H1910 C1926 0.931 . S
C1911 H1899 0.929 . S
C1911 C1905 1.390 . S
C1911 C1908 1.386 . S
C1912 C1907 1.490 . S
C1912 C1914 1.395 . S
C1912 C1915 1.403 . S
H1913 C1919 0.930 . S
C1914 H1900 0.930 . S
C1914 C1912 1.395 . S
C1914 C1917 1.403 . S
C1915 C1912 1.403 . S
C1915 C1916 1.524 . S
C1915 C1919 1.400 . S
C1916 H1901 0.960 . S
C1916 H1902 0.960 . S
C1916 H1903 0.960 . S
C1916 C1915 1.524 . S
C1917 C1914 1.403 . S
C1917 C1918 1.392 . S
C1917 C1921 1.495 . S
C1918 C1917 1.392 . S
C1918 C1919 1.385 . S
C1918 C1920 1.478 . S
C1919 H1913 0.930 . S
C1919 C1915 1.400 . S
C1919 C1918 1.385 . S
C1920 C1918 1.478 . S
C1920 C1922 1.381 . S
C1920 C1926 1.383 . S
C1921 C1917 1.495 . S
C1921 H1927 0.959 . S
C1921 H1928 0.961 . S
C1921 H1929 0.960 . S
C1922 C1920 1.381 . S
C1922 C1923 1.394 . S
C1922 H1930 0.930 . S
C1923 C1922 1.394 . S
C1923 C1924 1.383 . S
C1923 H1931 0.929 . S
C1924 C1923 1.383 . S
C1924 C1925 1.377 . S
C1925 H1909 0.930 . S
C1925 C1924 1.377 . S
C1925 C1926 1.379 . S
C1926 H1910 0.931 . S
C1926 C1920 1.383 . S
C1926 C1925 1.379 . S
H1927 C1921 0.959 . S
H1928 C1921 0.961 . S
H1929 C1921 0.960 . S
H1930 C1922 0.930 . S
H1931 C1923 0.929 . S
H1932 C1940 0.929 . S
H1933 C1942 0.930 . S
H1934 C1944 0.930 . S
H1935 C1947 0.929 . S
H1936 C1950 0.930 . S
H1937 C1952 0.960 . S
H1938 C1952 0.960 . S
H1939 C1952 0.960 . S
C1940 H1932 0.929 . S
C1940 C1941 1.377 . S
C1940 C1942 1.384 . S
C1941 C1940 1.377 . S
C1941 C1947 1.390 . S
C1942 H1933 0.930 . S
C1942 C1940 1.384 . S
C1942 C1943 1.372 . S
C1943 C1942 1.372 . S
C1943 C1944 1.400 . S
C1943 C1948 1.490 . S
C1944 H1934 0.930 . S
C1944 C1943 1.400 . S
C1944 C1947 1.386 . S
H1945 C1961 0.930 . S
H1946 C1962 0.931 . S
C1947 H1935 0.929 . S
C1947 C1941 1.390 . S
C1947 C1944 1.386 . S
C1948 C1943 1.490 . S
C1948 C1950 1.395 . S
C1948 C1951 1.403 . S
H1949 C1955 0.930 . S
C1950 H1936 0.930 . S
C1950 C1948 1.395 . S
C1950 C1953 1.403 . S
C1951 C1948 1.403 . S
C1951 C1952 1.524 . S
C1951 C1955 1.400 . S
C1952 H1937 0.960 . S
C1952 H1938 0.960 . S
C1952 H1939 0.960 . S
C1952 C1951 1.524 . S
C1953 C1950 1.403 . S
C1953 C1954 1.392 . S
C1953 C1957 1.495 . S
C1954 C1953 1.392 . S
C1954 C1955 1.385 . S
C1954 C1956 1.478 . S
C1955 H1949 0.930 . S
C1955 C1951 1.400 . S
C1955 C1954 1.385 . S
C1956 C1954 1.478 . S
C1956 C1958 1.381 . S
C1956 C1962 1.383 . S
C1957 C1953 1.495 . S
C1957 H1963 0.959 . S
C1957 H1964 0.961 . S
C1957 H1965 0.960 . S
C1958 C1956 1.381 . S
C1958 C1959 1.394 . S
C1958 H1966 0.930 . S
C1959 C1958 1.394 . S
C1959 C1960 1.383 . S
C1959 H1967 0.929 . S
C1960 C1959 1.383 . S
C1960 C1961 1.377 . S
C1961 H1945 0.930 . S
C1961 C1960 1.377 . S
C1961 C1962 1.379 . S
C1962 H1946 0.931 . S
C1962 C1956 1.383 . S
C1962 C1961 1.379 . S
H1963 C1957 0.959 . S
H1964 C1957 0.961 . S
H1965 C1957 0.960 . S
H1966 C1958 0.930 . S
H1967 C1959 0.929 . S
H1968 C1976 0.929 . S
H1969 C1978 0.930 . S
H1970 C1980 0.930 . S
H1971 C1983 0.929 . S
H1972 C1986 0.930 . S
H1973 C1988 0.960 . S
H1974 C1988 0.960 . S
H1975 C1988 0.960 . S
C1976 H1968 0.929 . S
C1976 C1977 1.377 . S
C1976 C1978 1.384 . S
C1977 C1976 1.377 . S
C1977 C1983 1.390 . S
C1978 H1969 0.930 . S
C1978 C1976 1.384 . S
C1978 C1979 1.372 . S
C1979 C1978 1.372 . S
C1979 C1980 1.400 . S
C1979 C1984 1.490 . S
C1980 H1970 0.930 . S
C1980 C1979 1.400 . S
C1980 C1983 1.386 . S
H1981 C1997 0.930 . S
H1982 C1998 0.931 . S
C1983 H1971 0.929 . S
C1983 C1977 1.390 . S
C1983 C1980 1.386 . S
C1984 C1979 1.490 . S
C1984 C1986 1.395 . S
C1984 C1987 1.403 . S
H1985 C1991 0.930 . S
C1986 H1972 0.930 . S
C1986 C1984 1.395 . S
C1986 C1989 1.403 . S
C1987 C1984 1.403 . S
C1987 C1988 1.524 . S
C1987 C1991 1.400 . S
C1988 H1973 0.960 . S
C1988 H1974 0.960 . S
C1988 H1975 0.960 . S
C1988 C1987 1.524 . S
C1989 C1986 1.403 . S
C1989 C1990 1.392 . S
C1989 C1993 1.495 . S
C1990 C1989 1.392 . S
C1990 C1991 1.385 . S
C1990 C1992 1.478 . S
C1991 H1985 0.930 . S
C1991 C1987 1.400 . S
C1991 C1990 1.385 . S
C1992 C1990 1.478 . S
C1992 C1994 1.381 . S
C1992 C1998 1.383 . S
C1993 C1989 1.495 . S
C1993 H1999 0.959 . S
C1993 H2000 0.961 . S
C1993 H2001 0.960 . S
C1994 C1992 1.381 . S
C1994 C1995 1.394 . S
C1994 H2002 0.930 . S
C1995 C1994 1.394 . S
C1995 C1996 1.383 . S
C1995 H2003 0.929 . S
C1996 C1995 1.383 . S
C1996 C1997 1.377 . S
C1997 H1981 0.930 . S
C1997 C1996 1.377 . S
C1997 C1998 1.379 . S
C1998 H1982 0.931 . S
C1998 C1992 1.383 . S
C1998 C1997 1.379 . S
H1999 C1993 0.959 . S
H2000 C1993 0.961 . S
H2001 C1993 0.960 . S
H2002 C1994 0.930 . S
H2003 C1995 0.929 . S
H2004 C2012 0.929 . S
H2005 C2014 0.930 . S
H2006 C2016 0.930 . S
H2007 C2019 0.929 . S
H2008 C2022 0.930 . S
H2009 C2024 0.960 . S
H2010 C2024 0.960 . S
H2011 C2024 0.960 . S
C2012 H2004 0.929 . S
C2012 C2013 1.377 . S
C2012 C2014 1.384 . S
C2013 C2012 1.377 . S
C2013 C2019 1.390 . S
C2014 H2005 0.930 . S
C2014 C2012 1.384 . S
C2014 C2015 1.372 . S
C2015 C2014 1.372 . S
C2015 C2016 1.400 . S
C2015 C2020 1.490 . S
C2016 H2006 0.930 . S
C2016 C2015 1.400 . S
C2016 C2019 1.386 . S
H2017 C2033 0.930 . S
H2018 C2034 0.931 . S
C2019 H2007 0.929 . S
C2019 C2013 1.390 . S
C2019 C2016 1.386 . S
C2020 C2015 1.490 . S
C2020 C2022 1.395 . S
C2020 C2023 1.403 . S
H2021 C2027 0.930 . S
C2022 H2008 0.930 . S
C2022 C2020 1.395 . S
C2022 C2025 1.403 . S
C2023 C2020 1.403 . S
C2023 C2024 1.524 . S
C2023 C2027 1.400 . S
C2024 H2009 0.960 . S
C2024 H2010 0.960 . S
C2024 H2011 0.960 . S
C2024 C2023 1.524 . S
C2025 C2022 1.403 . S
C2025 C2026 1.392 . S
C2025 C2029 1.495 . S
C2026 C2025 1.392 . S
C2026 C2027 1.385 . S
C2026 C2028 1.478 . S
C2027 H2021 0.930 . S
C2027 C2023 1.400 . S
C2027 C2026 1.385 . S
C2028 C2026 1.478 . S
C2028 C2030 1.381 . S
C2028 C2034 1.383 . S
C2029 C2025 1.495 . S
C2029 H2035 0.959 . S
C2029 H2036 0.961 . S
C2029 H2037 0.960 . S
C2030 C2028 1.381 . S
C2030 C2031 1.394 . S
C2030 H2038 0.930 . S
C2031 C2030 1.394 . S
C2031 C2032 1.383 . S
C2031 H2039 0.929 . S
C2032 C2031 1.383 . S
C2032 C2033 1.377 . S
C2033 H2017 0.930 . S
C2033 C2032 1.377 . S
C2033 C2034 1.379 . S
C2034 H2018 0.931 . S
C2034 C2028 1.383 . S
C2034 C2033 1.379 . S
H2035 C2029 0.959 . S
H2036 C2029 0.961 . S
H2037 C2029 0.960 . S
H2038 C2030 0.930 . S
H2039 C2031 0.929 . S
H2040 C2048 0.929 . S
H2041 C2050 0.930 . S
H2042 C2052 0.930 . S
H2043 C2055 0.929 . S
H2044 C2058 0.930 . S
H2045 C2060 0.960 . S
H2046 C2060 0.960 . S
H2047 C2060 0.960 . S
C2048 H2040 0.929 . S
C2048 C2049 1.377 . S
C2048 C2050 1.384 . S
C2049 C2048 1.377 . S
C2049 C2055 1.390 . S
C2050 H2041 0.930 . S
C2050 C2048 1.384 . S
C2050 C2051 1.372 . S
C2051 C2050 1.372 . S
C2051 C2052 1.400 . S
C2051 C2056 1.490 . S
C2052 H2042 0.930 . S
C2052 C2051 1.400 . S
C2052 C2055 1.386 . S
H2053 C2069 0.930 . S
H2054 C2070 0.931 . S
C2055 H2043 0.929 . S
C2055 C2049 1.390 . S
C2055 C2052 1.386 . S
C2056 C2051 1.490 . S
C2056 C2058 1.395 . S
C2056 C2059 1.403 . S
H2057 C2063 0.930 . S
C2058 H2044 0.930 . S
C2058 C2056 1.395 . S
C2058 C2061 1.403 . S
C2059 C2056 1.403 . S
C2059 C2060 1.524 . S
C2059 C2063 1.400 . S
C2060 H2045 0.960 . S
C2060 H2046 0.960 . S
C2060 H2047 0.960 . S
C2060 C2059 1.524 . S
C2061 C2058 1.403 . S
C2061 C2062 1.392 . S
C2061 C2065 1.495 . S
C2062 C2061 1.392 . S
C2062 C2063 1.385 . S
C2062 C2064 1.478 . S
C2063 H2057 0.930 . S
C2063 C2059 1.400 . S
C2063 C2062 1.385 . S
C2064 C2062 1.478 . S
C2064 C2066 1.381 . S
C2064 C2070 1.383 . S
C2065 C2061 1.495 . S
C2065 H2071 0.959 . S
C2065 H2072 0.961 . S
C2065 H2073 0.960 . S
C2066 C2064 1.381 . S
C2066 C2067 1.394 . S
C2066 H2074 0.930 . S
C2067 C2066 1.394 . S
C2067 C2068 1.383 . S
C2067 H2075 0.929 . S
C2068 C2067 1.383 . S
C2068 C2069 1.377 . S
C2069 H2053 0.930 . S
C2069 C2068 1.377 . S
C2069 C2070 1.379 . S
C2070 H2054 0.931 . S
C2070 C2064 1.383 . S
C2070 C2069 1.379 . S
H2071 C2065 0.959 . S
H2072 C2065 0.961 . S
H2073 C2065 0.960 . S
H2074 C2066 0.930 . S
H2075 C2067 0.929 . S
H2076 C2084 0.929 . S
H2077 C2086 0.930 . S
H2078 C2088 0.930 . S
H2079 C2091 0.929 . S
H2080 C2094 0.930 . S
H2081 C2096 0.960 . S
H2082 C2096 0.960 . S
H2083 C2096 0.960 . S
C2084 H2076 0.929 . S
C2084 C2085 1.377 . S
C2084 C2086 1.384 . S
C2085 C2084 1.377 . S
C2085 C2091 1.390 . S
C2086 H2077 0.930 . S
C2086 C2084 1.384 . S
C2086 C2087 1.372 . S
C2087 C2086 1.372 . S
C2087 C2088 1.400 . S
C2087 C2092 1.490 . S
C2088 H2078 0.930 . S
C2088 C2087 1.400 . S
C2088 C2091 1.386 . S
H2089 C2105 0.930 . S
H2090 C2106 0.931 . S
C2091 H2079 0.929 . S
C2091 C2085 1.390 . S
C2091 C2088 1.386 . S
C2092 C2087 1.490 . S
C2092 C2094 1.395 . S
C2092 C2095 1.403 . S
H2093 C2099 0.930 . S
C2094 H2080 0.930 . S
C2094 C2092 1.395 . S
C2094 C2097 1.403 . S
C2095 C2092 1.403 . S
C2095 C2096 1.524 . S
C2095 C2099 1.400 . S
C2096 H2081 0.960 . S
C2096 H2082 0.960 . S
C2096 H2083 0.960 . S
C2096 C2095 1.524 . S
C2097 C2094 1.403 . S
C2097 C2098 1.392 . S
C2097 C2101 1.495 . S
C2098 C2097 1.392 . S
C2098 C2099 1.385 . S
C2098 C2100 1.478 . S
C2099 H2093 0.930 . S
C2099 C2095 1.400 . S
C2099 C2098 1.385 . S
C2100 C2098 1.478 . S
C2100 C2102 1.381 . S
C2100 C2106 1.383 . S
C2101 C2097 1.495 . S
C2101 H2107 0.959 . S
C2101 H2108 0.961 . S
C2101 H2109 0.960 . S
C2102 C2100 1.381 . S
C2102 C2103 1.394 . S
C2102 H2110 0.930 . S
C2103 C2102 1.394 . S
C2103 C2104 1.383 . S
C2103 H2111 0.929 . S
C2104 C2103 1.383 . S
C2104 C2105 1.377 . S
C2105 H2089 0.930 . S
C2105 C2104 1.377 . S
C2105 C2106 1.379 . S
C2106 H2090 0.931 . S
C2106 C2100 1.383 . S
C2106 C2105 1.379 . S
H2107 C2101 0.959 . S
H2108 C2101 0.961 . S
H2109 C2101 0.960 . S
H2110 C2102 0.930 . S
H2111 C2103 0.929 . S
H2112 C2120 0.929 . S
H2113 C2122 0.930 . S
H2114 C2124 0.930 . S
H2115 C2127 0.929 . S
H2116 C2130 0.930 . S
H2117 C2132 0.960 . S
H2118 C2132 0.960 . S
H2119 C2132 0.960 . S
C2120 H2112 0.929 . S
C2120 C2121 1.377 . S
C2120 C2122 1.384 . S
C2121 C2120 1.377 . S
C2121 C2127 1.390 . S
C2122 H2113 0.930 . S
C2122 C2120 1.384 . S
C2122 C2123 1.372 . S
C2123 C2122 1.372 . S
C2123 C2124 1.400 . S
C2123 C2128 1.490 . S
C2124 H2114 0.930 . S
C2124 C2123 1.400 . S
C2124 C2127 1.386 . S
H2125 C2141 0.930 . S
H2126 C2142 0.931 . S
C2127 H2115 0.929 . S
C2127 C2121 1.390 . S
C2127 C2124 1.386 . S
C2128 C2123 1.490 . S
C2128 C2130 1.395 . S
C2128 C2131 1.403 . S
H2129 C2135 0.930 . S
C2130 H2116 0.930 . S
C2130 C2128 1.395 . S
C2130 C2133 1.403 . S
C2131 C2128 1.403 . S
C2131 C2132 1.524 . S
C2131 C2135 1.400 . S
C2132 H2117 0.960 . S
C2132 H2118 0.960 . S
C2132 H2119 0.960 . S
C2132 C2131 1.524 . S
C2133 C2130 1.403 . S
C2133 C2134 1.392 . S
C2133 C2137 1.495 . S
C2134 C2133 1.392 . S
C2134 C2135 1.385 . S
C2134 C2136 1.478 . S
C2135 H2129 0.930 . S
C2135 C2131 1.400 . S
C2135 C2134 1.385 . S
C2136 C2134 1.478 . S
C2136 C2138 1.381 . S
C2136 C2142 1.383 . S
C2137 C2133 1.495 . S
C2137 H2143 0.959 . S
C2137 H2144 0.961 . S
C2137 H2145 0.960 . S
C2138 C2136 1.381 . S
C2138 C2139 1.394 . S
C2138 H2146 0.930 . S
C2139 C2138 1.394 . S
C2139 C2140 1.383 . S
C2139 H2147 0.929 . S
C2140 C2139 1.383 . S
C2140 C2141 1.377 . S
C2141 H2125 0.930 . S
C2141 C2140 1.377 . S
C2141 C2142 1.379 . S
C2142 H2126 0.931 . S
C2142 C2136 1.383 . S
C2142 C2141 1.379 . S
H2143 C2137 0.959 . S
H2144 C2137 0.961 . S
H2145 C2137 0.960 . S
H2146 C2138 0.930 . S
H2147 C2139 0.929 . S
H2148 C2156 0.929 . S
H2149 C2158 0.930 . S
H2150 C2160 0.930 . S
H2151 C2163 0.929 . S
H2152 C2166 0.930 . S
H2153 C2168 0.960 . S
H2154 C2168 0.960 . S
H2155 C2168 0.960 . S
C2156 H2148 0.929 . S
C2156 C2157 1.377 . S
C2156 C2158 1.384 . S
C2157 C2156 1.377 . S
C2157 C2163 1.390 . S
C2158 H2149 0.930 . S
C2158 C2156 1.384 . S
C2158 C2159 1.372 . S
C2159 C2158 1.372 . S
C2159 C2160 1.400 . S
C2159 C2164 1.490 . S
C2160 H2150 0.930 . S
C2160 C2159 1.400 . S
C2160 C2163 1.386 . S
H2161 C2177 0.930 . S
H2162 C2178 0.931 . S
C2163 H2151 0.929 . S
C2163 C2157 1.390 . S
C2163 C2160 1.386 . S
C2164 C2159 1.490 . S
C2164 C2166 1.395 . S
C2164 C2167 1.403 . S
H2165 C2171 0.930 . S
C2166 H2152 0.930 . S
C2166 C2164 1.395 . S
C2166 C2169 1.403 . S
C2167 C2164 1.403 . S
C2167 C2168 1.524 . S
C2167 C2171 1.400 . S
C2168 H2153 0.960 . S
C2168 H2154 0.960 . S
C2168 H2155 0.960 . S
C2168 C2167 1.524 . S
C2169 C2166 1.403 . S
C2169 C2170 1.392 . S
C2169 C2173 1.495 . S
C2170 C2169 1.392 . S
C2170 C2171 1.385 . S
C2170 C2172 1.478 . S
C2171 H2165 0.930 . S
C2171 C2167 1.400 . S
C2171 C2170 1.385 . S
C2172 C2170 1.478 . S
C2172 C2174 1.381 . S
C2172 C2178 1.383 . S
C2173 C2169 1.495 . S
C2173 H2179 0.959 . S
C2173 H2180 0.961 . S
C2173 H2181 0.960 . S
C2174 C2172 1.381 . S
C2174 C2175 1.394 . S
C2174 H2182 0.930 . S
C2175 C2174 1.394 . S
C2175 C2176 1.383 . S
C2175 H2183 0.929 . S
C2176 C2175 1.383 . S
C2176 C2177 1.377 . S
C2177 H2161 0.930 . S
C2177 C2176 1.377 . S
C2177 C2178 1.379 . S
C2178 H2162 0.931 . S
C2178 C2172 1.383 . S
C2178 C2177 1.379 . S
H2179 C2173 0.959 . S
H2180 C2173 0.961 . S
H2181 C2173 0.960 . S
H2182 C2174 0.930 . S
H2183 C2175 0.929 . S
H2184 C2192 0.929 . S
H2185 C2194 0.930 . S
H2186 C2196 0.930 . S
H2187 C2199 0.929 . S
H2188 C2202 0.930 . S
H2189 C2204 0.960 . S
H2190 C2204 0.960 . S
H2191 C2204 0.960 . S
C2192 H2184 0.929 . S
C2192 C2193 1.377 . S
C2192 C2194 1.384 . S
C2193 C2192 1.377 . S
C2193 C2199 1.390 . S
C2194 H2185 0.930 . S
C2194 C2192 1.384 . S
C2194 C2195 1.372 . S
C2195 C2194 1.372 . S
C2195 C2196 1.400 . S
C2195 C2200 1.490 . S
C2196 H2186 0.930 . S
C2196 C2195 1.400 . S
C2196 C2199 1.386 . S
H2197 C2213 0.930 . S
H2198 C2214 0.931 . S
C2199 H2187 0.929 . S
C2199 C2193 1.390 . S
C2199 C2196 1.386 . S
C2200 C2195 1.490 . S
C2200 C2202 1.395 . S
C2200 C2203 1.403 . S
H2201 C2207 0.930 . S
C2202 H2188 0.930 . S
C2202 C2200 1.395 . S
C2202 C2205 1.403 . S
C2203 C2200 1.403 . S
C2203 C2204 1.524 . S
C2203 C2207 1.400 . S
C2204 H2189 0.960 . S
C2204 H2190 0.960 . S
C2204 H2191 0.960 . S
C2204 C2203 1.524 . S
C2205 C2202 1.403 . S
C2205 C2206 1.392 . S
C2205 C2209 1.495 . S
C2206 C2205 1.392 . S
C2206 C2207 1.385 . S
C2206 C2208 1.478 . S
C2207 H2201 0.930 . S
C2207 C2203 1.400 . S
C2207 C2206 1.385 . S
C2208 C2206 1.478 . S
C2208 C2210 1.381 . S
C2208 C2214 1.383 . S
C2209 C2205 1.495 . S
C2209 H2215 0.959 . S
C2209 H2216 0.961 . S
C2209 H2217 0.960 . S
C2210 C2208 1.381 . S
C2210 C2211 1.394 . S
C2210 H2218 0.930 . S
C2211 C2210 1.394 . S
C2211 C2212 1.383 . S
C2211 H2219 0.929 . S
C2212 C2211 1.383 . S
C2212 C2213 1.377 . S
C2213 H2197 0.930 . S
C2213 C2212 1.377 . S
C2213 C2214 1.379 . S
C2214 H2198 0.931 . S
C2214 C2208 1.383 . S
C2214 C2213 1.379 . S
H2215 C2209 0.959 . S
H2216 C2209 0.961 . S
H2217 C2209 0.960 . S
H2218 C2210 0.930 . S
H2219 C2211 0.929 . S
H2220 C2228 0.929 . S
H2221 C2230 0.930 . S
H2222 C2232 0.930 . S
H2223 C2235 0.929 . S
H2224 C2238 0.930 . S
H2225 C2240 0.960 . S
H2226 C2240 0.960 . S
H2227 C2240 0.960 . S
C2228 H2220 0.929 . S
C2228 C2229 1.377 . S
C2228 C2230 1.384 . S
C2229 C2228 1.377 . S
C2229 C2235 1.390 . S
C2230 H2221 0.930 . S
C2230 C2228 1.384 . S
C2230 C2231 1.372 . S
C2231 C2230 1.372 . S
C2231 C2232 1.400 . S
C2231 C2236 1.490 . S
C2232 H2222 0.930 . S
C2232 C2231 1.400 . S
C2232 C2235 1.386 . S
H2233 C2249 0.930 . S
H2234 C2250 0.931 . S
C2235 H2223 0.929 . S
C2235 C2229 1.390 . S
C2235 C2232 1.386 . S
C2236 C2231 1.490 . S
C2236 C2238 1.395 . S
C2236 C2239 1.403 . S
H2237 C2243 0.930 . S
C2238 H2224 0.930 . S
C2238 C2236 1.395 . S
C2238 C2241 1.403 . S
C2239 C2236 1.403 . S
C2239 C2240 1.524 . S
C2239 C2243 1.400 . S
C2240 H2225 0.960 . S
C2240 H2226 0.960 . S
C2240 H2227 0.960 . S
C2240 C2239 1.524 . S
C2241 C2238 1.403 . S
C2241 C2242 1.392 . S
C2241 C2245 1.495 . S
C2242 C2241 1.392 . S
C2242 C2243 1.385 . S
C2242 C2244 1.478 . S
C2243 H2237 0.930 . S
C2243 C2239 1.400 . S
C2243 C2242 1.385 . S
C2244 C2242 1.478 . S
C2244 C2246 1.381 . S
C2244 C2250 1.383 . S
C2245 C2241 1.495 . S
C2245 H2251 0.959 . S
C2245 H2252 0.961 . S
C2245 H2253 0.960 . S
C2246 C2244 1.381 . S
C2246 C2247 1.394 . S
C2246 H2254 0.930 . S
C2247 C2246 1.394 . S
C2247 C2248 1.383 . S
C2247 H2255 0.929 . S
C2248 C2247 1.383 . S
C2248 C2249 1.377 . S
C2249 H2233 0.930 . S
C2249 C2248 1.377 . S
C2249 C2250 1.379 . S
C2250 H2234 0.931 . S
C2250 C2244 1.383 . S
C2250 C2249 1.379 . S
H2251 C2245 0.959 . S
H2252 C2245 0.961 . S
H2253 C2245 0.960 . S
H2254 C2246 0.930 . S
H2255 C2247 0.929 . S
H2256 C2264 0.929 . S
H2257 C2266 0.930 . S
H2258 C2268 0.930 . S
H2259 C2271 0.929 . S
H2260 C2274 0.930 . S
H2261 C2276 0.960 . S
H2262 C2276 0.960 . S
H2263 C2276 0.960 . S
C2264 H2256 0.929 . S
C2264 C2265 1.377 . S
C2264 C2266 1.384 . S
C2265 C2264 1.377 . S
C2265 C2271 1.390 . S
C2266 H2257 0.930 . S
C2266 C2264 1.384 . S
C2266 C2267 1.372 . S
C2267 C2266 1.372 . S
C2267 C2268 1.400 . S
C2267 C2272 1.490 . S
C2268 H2258 0.930 . S
C2268 C2267 1.400 . S
C2268 C2271 1.386 . S
H2269 C2285 0.930 . S
H2270 C2286 0.931 . S
C2271 H2259 0.929 . S
C2271 C2265 1.390 . S
C2271 C2268 1.386 . S
C2272 C2267 1.490 . S
C2272 C2274 1.395 . S
C2272 C2275 1.403 . S
H2273 C2279 0.930 . S
C2274 H2260 0.930 . S
C2274 C2272 1.395 . S
C2274 C2277 1.403 . S
C2275 C2272 1.403 . S
C2275 C2276 1.524 . S
C2275 C2279 1.400 . S
C2276 H2261 0.960 . S
C2276 H2262 0.960 . S
C2276 H2263 0.960 . S
C2276 C2275 1.524 . S
C2277 C2274 1.403 . S
C2277 C2278 1.392 . S
C2277 C2281 1.495 . S
C2278 C2277 1.392 . S
C2278 C2279 1.385 . S
C2278 C2280 1.478 . S
C2279 H2273 0.930 . S
C2279 C2275 1.400 . S
C2279 C2278 1.385 . S
C2280 C2278 1.478 . S
C2280 C2282 1.381 . S
C2280 C2286 1.383 . S
C2281 C2277 1.495 . S
C2281 H2287 0.959 . S
C2281 H2288 0.961 . S
C2281 H2289 0.960 . S
C2282 C2280 1.381 . S
C2282 C2283 1.394 . S
C2282 H2290 0.930 . S
C2283 C2282 1.394 . S
C2283 C2284 1.383 . S
C2283 H2291 0.929 . S
C2284 C2283 1.383 . S
C2284 C2285 1.377 . S
C2285 H2269 0.930 . S
C2285 C2284 1.377 . S
C2285 C2286 1.379 . S
C2286 H2270 0.931 . S
C2286 C2280 1.383 . S
C2286 C2285 1.379 . S
H2287 C2281 0.959 . S
H2288 C2281 0.961 . S
H2289 C2281 0.960 . S
H2290 C2282 0.930 . S
H2291 C2283 0.929 . S
H2292 C2300 0.929 . S
H2293 C2302 0.930 . S
H2294 C2304 0.930 . S
H2295 C2307 0.929 . S
H2296 C2310 0.930 . S
H2297 C2312 0.960 . S
H2298 C2312 0.960 . S
H2299 C2312 0.960 . S
C2300 H2292 0.929 . S
C2300 C2301 1.377 . S
C2300 C2302 1.384 . S
C2301 C2300 1.377 . S
C2301 C2307 1.390 . S
C2302 H2293 0.930 . S
C2302 C2300 1.384 . S
C2302 C2303 1.372 . S
C2303 C2302 1.372 . S
C2303 C2304 1.400 . S
C2303 C2308 1.490 . S
C2304 H2294 0.930 . S
C2304 C2303 1.400 . S
C2304 C2307 1.386 . S
H2305 C2321 0.930 . S
H2306 C2322 0.931 . S
C2307 H2295 0.929 . S
C2307 C2301 1.390 . S
C2307 C2304 1.386 . S
C2308 C2303 1.490 . S
C2308 C2310 1.395 . S
C2308 C2311 1.403 . S
H2309 C2315 0.930 . S
C2310 H2296 0.930 . S
C2310 C2308 1.395 . S
C2310 C2313 1.403 . S
C2311 C2308 1.403 . S
C2311 C2312 1.524 . S
C2311 C2315 1.400 . S
C2312 H2297 0.960 . S
C2312 H2298 0.960 . S
C2312 H2299 0.960 . S
C2312 C2311 1.524 . S
C2313 C2310 1.403 . S
C2313 C2314 1.392 . S
C2313 C2317 1.495 . S
C2314 C2313 1.392 . S
C2314 C2315 1.385 . S
C2314 C2316 1.478 . S
C2315 H2309 0.930 . S
C2315 C2311 1.400 . S
C2315 C2314 1.385 . S
C2316 C2314 1.478 . S
C2316 C2318 1.381 . S
C2316 C2322 1.383 . S
C2317 C2313 1.495 . S
C2317 H2323 0.959 . S
C2317 H2324 0.961 . S
C2317 H2325 0.960 . S
C2318 C2316 1.381 . S
C2318 C2319 1.394 . S
C2318 H2326 0.930 . S
C2319 C2318 1.394 . S
C2319 C2320 1.383 . S
C2319 H2327 0.929 . S
C2320 C2319 1.383 . S
C2320 C2321 1.377 . S
C2321 H2305 0.930 . S
C2321 C2320 1.377 . S
C2321 C2322 1.379 . S
C2322 H2306 0.931 . S
C2322 C2316 1.383 . S
C2322 C2321 1.379 . S
H2323 C2317 0.959 . S
H2324 C2317 0.961 . S
H2325 C2317 0.960 . S
H2326 C2318 0.930 . S
H2327 C2319 0.929 . S
H2328 C2336 0.929 . S
H2329 C2338 0.930 . S
H2330 C2340 0.930 . S
H2331 C2343 0.929 . S
H2332 C2346 0.930 . S
H2333 C2348 0.960 . S
H2334 C2348 0.960 . S
H2335 C2348 0.960 . S
C2336 H2328 0.929 . S
C2336 C2337 1.377 . S
C2336 C2338 1.384 . S
C2337 C2336 1.377 . S
C2337 C2343 1.390 . S
C2338 H2329 0.930 . S
C2338 C2336 1.384 . S
C2338 C2339 1.372 . S
C2339 C2338 1.372 . S
C2339 C2340 1.400 . S
C2339 C2344 1.490 . S
C2340 H2330 0.930 . S
C2340 C2339 1.400 . S
C2340 C2343 1.386 . S
H2341 C2357 0.930 . S
H2342 C2358 0.931 . S
C2343 H2331 0.929 . S
C2343 C2337 1.390 . S
C2343 C2340 1.386 . S
C2344 C2339 1.490 . S
C2344 C2346 1.395 . S
C2344 C2347 1.403 . S
H2345 C2351 0.930 . S
C2346 H2332 0.930 . S
C2346 C2344 1.395 . S
C2346 C2349 1.403 . S
C2347 C2344 1.403 . S
C2347 C2348 1.524 . S
C2347 C2351 1.400 . S
C2348 H2333 0.960 . S
C2348 H2334 0.960 . S
C2348 H2335 0.960 . S
C2348 C2347 1.524 . S
C2349 C2346 1.403 . S
C2349 C2350 1.392 . S
C2349 C2353 1.495 . S
C2350 C2349 1.392 . S
C2350 C2351 1.385 . S
C2350 C2352 1.478 . S
C2351 H2345 0.930 . S
C2351 C2347 1.400 . S
C2351 C2350 1.385 . S
C2352 C2350 1.478 . S
C2352 C2354 1.381 . S
C2352 C2358 1.383 . S
C2353 C2349 1.495 . S
C2353 H2359 0.959 . S
C2353 H2360 0.961 . S
C2353 H2361 0.960 . S
C2354 C2352 1.381 . S
C2354 C2355 1.394 . S
C2354 H2362 0.930 . S
C2355 C2354 1.394 . S
C2355 C2356 1.383 . S
C2355 H2363 0.929 . S
C2356 C2355 1.383 . S
C2356 C2357 1.377 . S
C2357 H2341 0.930 . S
C2357 C2356 1.377 . S
C2357 C2358 1.379 . S
C2358 H2342 0.931 . S
C2358 C2352 1.383 . S
C2358 C2357 1.379 . S
H2359 C2353 0.959 . S
H2360 C2353 0.961 . S
H2361 C2353 0.960 . S
H2362 C2354 0.930 . S
H2363 C2355 0.929 . S
H2364 C2372 0.929 . S
H2365 C2374 0.930 . S
H2366 C2376 0.930 . S
H2367 C2379 0.929 . S
H2368 C2382 0.930 . S
H2369 C2384 0.960 . S
H2370 C2384 0.960 . S
H2371 C2384 0.960 . S
C2372 H2364 0.929 . S
C2372 C2373 1.377 . S
C2372 C2374 1.384 . S
C2373 C2372 1.377 . S
C2373 C2379 1.390 . S
C2374 H2365 0.930 . S
C2374 C2372 1.384 . S
C2374 C2375 1.372 . S
C2375 C2374 1.372 . S
C2375 C2376 1.400 . S
C2375 C2380 1.490 . S
C2376 H2366 0.930 . S
C2376 C2375 1.400 . S
C2376 C2379 1.386 . S
H2377 C2393 0.930 . S
H2378 C2394 0.931 . S
C2379 H2367 0.929 . S
C2379 C2373 1.390 . S
C2379 C2376 1.386 . S
C2380 C2375 1.490 . S
C2380 C2382 1.395 . S
C2380 C2383 1.403 . S
H2381 C2387 0.930 . S
C2382 H2368 0.930 . S
C2382 C2380 1.395 . S
C2382 C2385 1.403 . S
C2383 C2380 1.403 . S
C2383 C2384 1.524 . S
C2383 C2387 1.400 . S
C2384 H2369 0.960 . S
C2384 H2370 0.960 . S
C2384 H2371 0.960 . S
C2384 C2383 1.524 . S
C2385 C2382 1.403 . S
C2385 C2386 1.392 . S
C2385 C2389 1.495 . S
C2386 C2385 1.392 . S
C2386 C2387 1.385 . S
C2386 C2388 1.478 . S
C2387 H2381 0.930 . S
C2387 C2383 1.400 . S
C2387 C2386 1.385 . S
C2388 C2386 1.478 . S
C2388 C2390 1.381 . S
C2388 C2394 1.383 . S
C2389 C2385 1.495 . S
C2389 H2395 0.959 . S
C2389 H2396 0.961 . S
C2389 H2397 0.960 . S
C2390 C2388 1.381 . S
C2390 C2391 1.394 . S
C2390 H2398 0.930 . S
C2391 C2390 1.394 . S
C2391 C2392 1.383 . S
C2391 H2399 0.929 . S
C2392 C2391 1.383 . S
C2392 C2393 1.377 . S
C2393 H2377 0.930 . S
C2393 C2392 1.377 . S
C2393 C2394 1.379 . S
C2394 H2378 0.931 . S
C2394 C2388 1.383 . S
C2394 C2393 1.379 . S
H2395 C2389 0.959 . S
H2396 C2389 0.961 . S
H2397 C2389 0.960 . S
H2398 C2390 0.930 . S
H2399 C2391 0.929 . S
H2400 C2408 0.929 . S
H2401 C2410 0.930 . S
H2402 C2412 0.930 . S
H2403 C2415 0.929 . S
H2404 C2418 0.930 . S
H2405 C2420 0.960 . S
H2406 C2420 0.960 . S
H2407 C2420 0.960 . S
C2408 H2400 0.929 . S
C2408 C2409 1.377 . S
C2408 C2410 1.384 . S
C2409 C2408 1.377 . S
C2409 C2415 1.390 . S
C2410 H2401 0.930 . S
C2410 C2408 1.384 . S
C2410 C2411 1.372 . S
C2411 C2410 1.372 . S
C2411 C2412 1.400 . S
C2411 C2416 1.490 . S
C2412 H2402 0.930 . S
C2412 C2411 1.400 . S
C2412 C2415 1.386 . S
H2413 C2429 0.930 . S
H2414 C2430 0.931 . S
C2415 H2403 0.929 . S
C2415 C2409 1.390 . S
C2415 C2412 1.386 . S
C2416 C2411 1.490 . S
C2416 C2418 1.395 . S
C2416 C2419 1.403 . S
H2417 C2423 0.930 . S
C2418 H2404 0.930 . S
C2418 C2416 1.395 . S
C2418 C2421 1.403 . S
C2419 C2416 1.403 . S
C2419 C2420 1.524 . S
C2419 C2423 1.400 . S
C2420 H2405 0.960 . S
C2420 H2406 0.960 . S
C2420 H2407 0.960 . S
C2420 C2419 1.524 . S
C2421 C2418 1.403 . S
C2421 C2422 1.392 . S
C2421 C2425 1.495 . S
C2422 C2421 1.392 . S
C2422 C2423 1.385 . S
C2422 C2424 1.478 . S
C2423 H2417 0.930 . S
C2423 C2419 1.400 . S
C2423 C2422 1.385 . S
C2424 C2422 1.478 . S
C2424 C2426 1.381 . S
C2424 C2430 1.383 . S
C2425 C2421 1.495 . S
C2425 H2431 0.959 . S
C2425 H2432 0.961 . S
C2425 H2433 0.960 . S
C2426 C2424 1.381 . S
C2426 C2427 1.394 . S
C2426 H2434 0.930 . S
C2427 C2426 1.394 . S
C2427 C2428 1.383 . S
C2427 H2435 0.929 . S
C2428 C2427 1.383 . S
C2428 C2429 1.377 . S
C2429 H2413 0.930 . S
C2429 C2428 1.377 . S
C2429 C2430 1.379 . S
C2430 H2414 0.931 . S
C2430 C2424 1.383 . S
C2430 C2429 1.379 . S
H2431 C2425 0.959 . S
H2432 C2425 0.961 . S
H2433 C2425 0.960 . S
H2434 C2426 0.930 . S
H2435 C2427 0.929 . S
H2436 C2444 0.929 . S
H2437 C2446 0.930 . S
H2438 C2448 0.930 . S
H2439 C2451 0.929 . S
H2440 C2454 0.930 . S
H2441 C2456 0.960 . S
H2442 C2456 0.960 . S
H2443 C2456 0.960 . S
C2444 H2436 0.929 . S
C2444 C2445 1.377 . S
C2444 C2446 1.384 . S
C2445 C2444 1.377 . S
C2445 C2451 1.390 . S
C2446 H2437 0.930 . S
C2446 C2444 1.384 . S
C2446 C2447 1.372 . S
C2447 C2446 1.372 . S
C2447 C2448 1.400 . S
C2447 C2452 1.490 . S
C2448 H2438 0.930 . S
C2448 C2447 1.400 . S
C2448 C2451 1.386 . S
H2449 C2465 0.930 . S
H2450 C2466 0.931 . S
C2451 H2439 0.929 . S
C2451 C2445 1.390 . S
C2451 C2448 1.386 . S
C2452 C2447 1.490 . S
C2452 C2454 1.395 . S
C2452 C2455 1.403 . S
H2453 C2459 0.930 . S
C2454 H2440 0.930 . S
C2454 C2452 1.395 . S
C2454 C2457 1.403 . S
C2455 C2452 1.403 . S
C2455 C2456 1.524 . S
C2455 C2459 1.400 . S
C2456 H2441 0.960 . S
C2456 H2442 0.960 . S
C2456 H2443 0.960 . S
C2456 C2455 1.524 . S
C2457 C2454 1.403 . S
C2457 C2458 1.392 . S
C2457 C2461 1.495 . S
C2458 C2457 1.392 . S
C2458 C2459 1.385 . S
C2458 C2460 1.478 . S
C2459 H2453 0.930 . S
C2459 C2455 1.400 . S
C2459 C2458 1.385 . S
C2460 C2458 1.478 . S
C2460 C2462 1.381 . S
C2460 C2466 1.383 . S
C2461 C2457 1.495 . S
C2461 H2467 0.959 . S
C2461 H2468 0.961 . S
C2461 H2469 0.960 . S
C2462 C2460 1.381 . S
C2462 C2463 1.394 . S
C2462 H2470 0.930 . S
C2463 C2462 1.394 . S
C2463 C2464 1.383 . S
C2463 H2471 0.929 . S
C2464 C2463 1.383 . S
C2464 C2465 1.377 . S
C2465 H2449 0.930 . S
C2465 C2464 1.377 . S
C2465 C2466 1.379 . S
C2466 H2450 0.931 . S
C2466 C2460 1.383 . S
C2466 C2465 1.379 . S
H2467 C2461 0.959 . S
H2468 C2461 0.961 . S
H2469 C2461 0.960 . S
H2470 C2462 0.930 . S
H2471 C2463 0.929 . S
H2472 C2480 0.929 . S
H2473 C2482 0.930 . S
H2474 C2484 0.930 . S
H2475 C2487 0.929 . S
H2476 C2490 0.930 . S
H2477 C2492 0.960 . S
H2478 C2492 0.960 . S
H2479 C2492 0.960 . S
C2480 H2472 0.929 . S
C2480 C2481 1.377 . S
C2480 C2482 1.384 . S
C2481 C2480 1.377 . S
C2481 C2487 1.390 . S
C2482 H2473 0.930 . S
C2482 C2480 1.384 . S
C2482 C2483 1.372 . S
C2483 C2482 1.372 . S
C2483 C2484 1.400 . S
C2483 C2488 1.490 . S
C2484 H2474 0.930 . S
C2484 C2483 1.400 . S
C2484 C2487 1.386 . S
H2485 C2501 0.930 . S
H2486 C2502 0.931 . S
C2487 H2475 0.929 . S
C2487 C2481 1.390 . S
C2487 C2484 1.386 . S
C2488 C2483 1.490 . S
C2488 C2490 1.395 . S
C2488 C2491 1.403 . S
H2489 C2495 0.930 . S
C2490 H2476 0.930 . S
C2490 C2488 1.395 . S
C2490 C2493 1.403 . S
C2491 C2488 1.403 . S
C2491 C2492 1.524 . S
C2491 C2495 1.400 . S
C2492 H2477 0.960 . S
C2492 H2478 0.960 . S
C2492 H2479 0.960 . S
C2492 C2491 1.524 . S
C2493 C2490 1.403 . S
C2493 C2494 1.392 . S
C2493 C2497 1.495 . S
C2494 C2493 1.392 . S
C2494 C2495 1.385 . S
C2494 C2496 1.478 . S
C2495 H2489 0.930 . S
C2495 C2491 1.400 . S
C2495 C2494 1.385 . S
C2496 C2494 1.478 . S
C2496 C2498 1.381 . S
C2496 C2502 1.383 . S
C2497 C2493 1.495 . S
C2497 H2503 0.959 . S
C2497 H2504 0.961 . S
C2497 H2505 0.960 . S
C2498 C2496 1.381 . S
C2498 C2499 1.394 . S
C2498 H2506 0.930 . S
C2499 C2498 1.394 . S
C2499 C2500 1.383 . S
C2499 H2507 0.929 . S
C2500 C2499 1.383 . S
C2500 C2501 1.377 . S
C2501 H2485 0.930 . S
C2501 C2500 1.377 . S
C2501 C2502 1.379 . S
C2502 H2486 0.931 . S
C2502 C2496 1.383 . S
C2502 C2501 1.379 . S
H2503 C2497 0.959 . S
H2504 C2497 0.961 . S
H2505 C2497 0.960 . S
H2506 C2498 0.930 . S
H2507 C2499 0.929 . S
H2508 C2516 0.929 . S
H2509 C2518 0.930 . S
H2510 C2520 0.930 . S
H2511 C2523 0.929 . S
H2512 C2526 0.930 . S
H2513 C2528 0.960 . S
H2514 C2528 0.960 . S
H2515 C2528 0.960 . S
C2516 H2508 0.929 . S
C2516 C2517 1.377 . S
C2516 C2518 1.384 . S
C2517 C2516 1.377 . S
C2517 C2523 1.390 . S
C2518 H2509 0.930 . S
C2518 C2516 1.384 . S
C2518 C2519 1.372 . S
C2519 C2518 1.372 . S
C2519 C2520 1.400 . S
C2519 C2524 1.490 . S
C2520 H2510 0.930 . S
C2520 C2519 1.400 . S
C2520 C2523 1.386 . S
H2521 C2537 0.930 . S
H2522 C2538 0.931 . S
C2523 H2511 0.929 . S
C2523 C2517 1.390 . S
C2523 C2520 1.386 . S
C2524 C2519 1.490 . S
C2524 C2526 1.395 . S
C2524 C2527 1.403 . S
H2525 C2531 0.930 . S
C2526 H2512 0.930 . S
C2526 C2524 1.395 . S
C2526 C2529 1.403 . S
C2527 C2524 1.403 . S
C2527 C2528 1.524 . S
C2527 C2531 1.400 . S
C2528 H2513 0.960 . S
C2528 H2514 0.960 . S
C2528 H2515 0.960 . S
C2528 C2527 1.524 . S
C2529 C2526 1.403 . S
C2529 C2530 1.392 . S
C2529 C2533 1.495 . S
C2530 C2529 1.392 . S
C2530 C2531 1.385 . S
C2530 C2532 1.478 . S
C2531 H2525 0.930 . S
C2531 C2527 1.400 . S
C2531 C2530 1.385 . S
C2532 C2530 1.478 . S
C2532 C2534 1.381 . S
C2532 C2538 1.383 . S
C2533 C2529 1.495 . S
C2533 H2539 0.959 . S
C2533 H2540 0.961 . S
C2533 H2541 0.960 . S
C2534 C2532 1.381 . S
C2534 C2535 1.394 . S
C2534 H2542 0.930 . S
C2535 C2534 1.394 . S
C2535 C2536 1.383 . S
C2535 H2543 0.929 . S
C2536 C2535 1.383 . S
C2536 C2537 1.377 . S
C2537 H2521 0.930 . S
C2537 C2536 1.377 . S
C2537 C2538 1.379 . S
C2538 H2522 0.931 . S
C2538 C2532 1.383 . S
C2538 C2537 1.379 . S
H2539 C2533 0.959 . S
H2540 C2533 0.961 . S
H2541 C2533 0.960 . S
H2542 C2534 0.930 . S
H2543 C2535 0.929 . S
H2544 C2552 0.929 . S
H2545 C2554 0.930 . S
H2546 C2556 0.930 . S
H2547 C2559 0.929 . S
H2548 C2562 0.930 . S
H2549 C2564 0.960 . S
H2550 C2564 0.960 . S
H2551 C2564 0.960 . S
C2552 H2544 0.929 . S
C2552 C2553 1.377 . S
C2552 C2554 1.384 . S
C2553 C2552 1.377 . S
C2553 C2559 1.390 . S
C2554 H2545 0.930 . S
C2554 C2552 1.384 . S
C2554 C2555 1.372 . S
C2555 C2554 1.372 . S
C2555 C2556 1.400 . S
C2555 C2560 1.490 . S
C2556 H2546 0.930 . S
C2556 C2555 1.400 . S
C2556 C2559 1.386 . S
H2557 C2573 0.930 . S
H2558 C2574 0.931 . S
C2559 H2547 0.929 . S
C2559 C2553 1.390 . S
C2559 C2556 1.386 . S
C2560 C2555 1.490 . S
C2560 C2562 1.395 . S
C2560 C2563 1.403 . S
H2561 C2567 0.930 . S
C2562 H2548 0.930 . S
C2562 C2560 1.395 . S
C2562 C2565 1.403 . S
C2563 C2560 1.403 . S
C2563 C2564 1.524 . S
C2563 C2567 1.400 . S
C2564 H2549 0.960 . S
C2564 H2550 0.960 . S
C2564 H2551 0.960 . S
C2564 C2563 1.524 . S
C2565 C2562 1.403 . S
C2565 C2566 1.392 . S
C2565 C2569 1.495 . S
C2566 C2565 1.392 . S
C2566 C2567 1.385 . S
C2566 C2568 1.478 . S
C2567 H2561 0.930 . S
C2567 C2563 1.400 . S
C2567 C2566 1.385 . S
C2568 C2566 1.478 . S
C2568 C2570 1.381 . S
C2568 C2574 1.383 . S
C2569 C2565 1.495 . S
C2569 H2575 0.959 . S
C2569 H2576 0.961 . S
C2569 H2577 0.960 . S
C2570 C2568 1.381 . S
C2570 C2571 1.394 . S
C2570 H2578 0.930 . S
C2571 C2570 1.394 . S
C2571 C2572 1.383 . S
C2571 H2579 0.929 . S
C2572 C2571 1.383 . S
C2572 C2573 1.377 . S
C2573 H2557 0.930 . S
C2573 C2572 1.377 . S
C2573 C2574 1.379 . S
C2574 H2558 0.931 . S
C2574 C2568 1.383 . S
C2574 C2573 1.379 . S
H2575 C2569 0.959 . S
H2576 C2569 0.961 . S
H2577 C2569 0.960 . S
H2578 C2570 0.930 . S
H2579 C2571 0.929 . S
H2580 C2588 0.929 . S
H2581 C2590 0.930 . S
H2582 C2592 0.930 . S
H2583 C2595 0.929 . S
H2584 C2598 0.930 . S
H2585 C2600 0.960 . S
H2586 C2600 0.960 . S
H2587 C2600 0.960 . S
C2588 H2580 0.929 . S
C2588 C2589 1.377 . S
C2588 C2590 1.384 . S
C2589 C2588 1.377 . S
C2589 C2595 1.390 . S
C2590 H2581 0.930 . S
C2590 C2588 1.384 . S
C2590 C2591 1.372 . S
C2591 C2590 1.372 . S
C2591 C2592 1.400 . S
C2591 C2596 1.490 . S
C2592 H2582 0.930 . S
C2592 C2591 1.400 . S
C2592 C2595 1.386 . S
H2593 C2609 0.930 . S
H2594 C2610 0.931 . S
C2595 H2583 0.929 . S
C2595 C2589 1.390 . S
C2595 C2592 1.386 . S
C2596 C2591 1.490 . S
C2596 C2598 1.395 . S
C2596 C2599 1.403 . S
H2597 C2603 0.930 . S
C2598 H2584 0.930 . S
C2598 C2596 1.395 . S
C2598 C2601 1.403 . S
C2599 C2596 1.403 . S
C2599 C2600 1.524 . S
C2599 C2603 1.400 . S
C2600 H2585 0.960 . S
C2600 H2586 0.960 . S
C2600 H2587 0.960 . S
C2600 C2599 1.524 . S
C2601 C2598 1.403 . S
C2601 C2602 1.392 . S
C2601 C2605 1.495 . S
C2602 C2601 1.392 . S
C2602 C2603 1.385 . S
C2602 C2604 1.478 . S
C2603 H2597 0.930 . S
C2603 C2599 1.400 . S
C2603 C2602 1.385 . S
C2604 C2602 1.478 . S
C2604 C2606 1.381 . S
C2604 C2610 1.383 . S
C2605 C2601 1.495 . S
C2605 H2611 0.959 . S
C2605 H2612 0.961 . S
C2605 H2613 0.960 . S
C2606 C2604 1.381 . S
C2606 C2607 1.394 . S
C2606 H2614 0.930 . S
C2607 C2606 1.394 . S
C2607 C2608 1.383 . S
C2607 H2615 0.929 . S
C2608 C2607 1.383 . S
C2608 C2609 1.377 . S
C2609 H2593 0.930 . S
C2609 C2608 1.377 . S
C2609 C2610 1.379 . S
C2610 H2594 0.931 . S
C2610 C2604 1.383 . S
C2610 C2609 1.379 . S
H2611 C2605 0.959 . S
H2612 C2605 0.961 . S
H2613 C2605 0.960 . S
H2614 C2606 0.930 . S
H2615 C2607 0.929 . S
H2616 C2624 0.929 . S
H2617 C2626 0.930 . S
H2618 C2628 0.930 . S
H2619 C2631 0.929 . S
H2620 C2634 0.930 . S
H2621 C2636 0.960 . S
H2622 C2636 0.960 . S
H2623 C2636 0.960 . S
C2624 H2616 0.929 . S
C2624 C2625 1.377 . S
C2624 C2626 1.384 . S
C2625 C2624 1.377 . S
C2625 C2631 1.390 . S
C2626 H2617 0.930 . S
C2626 C2624 1.384 . S
C2626 C2627 1.372 . S
C2627 C2626 1.372 . S
C2627 C2628 1.400 . S
C2627 C2632 1.490 . S
C2628 H2618 0.930 . S
C2628 C2627 1.400 . S
C2628 C2631 1.386 . S
H2629 C2645 0.930 . S
H2630 C2646 0.931 . S
C2631 H2619 0.929 . S
C2631 C2625 1.390 . S
C2631 C2628 1.386 . S
C2632 C2627 1.490 . S
C2632 C2634 1.395 . S
C2632 C2635 1.403 . S
H2633 C2639 0.930 . S
C2634 H2620 0.930 . S
C2634 C2632 1.395 . S
C2634 C2637 1.403 . S
C2635 C2632 1.403 . S
C2635 C2636 1.524 . S
C2635 C2639 1.400 . S
C2636 H2621 0.960 . S
C2636 H2622 0.960 . S
C2636 H2623 0.960 . S
C2636 C2635 1.524 . S
C2637 C2634 1.403 . S
C2637 C2638 1.392 . S
C2637 C2641 1.495 . S
C2638 C2637 1.392 . S
C2638 C2639 1.385 . S
C2638 C2640 1.478 . S
C2639 H2633 0.930 . S
C2639 C2635 1.400 . S
C2639 C2638 1.385 . S
C2640 C2638 1.478 . S
C2640 C2642 1.381 . S
C2640 C2646 1.383 . S
C2641 C2637 1.495 . S
C2641 H2647 0.959 . S
C2641 H2648 0.961 . S
C2641 H2649 0.960 . S
C2642 C2640 1.381 . S
C2642 C2643 1.394 . S
C2642 H2650 0.930 . S
C2643 C2642 1.394 . S
C2643 C2644 1.383 . S
C2643 H2651 0.929 . S
C2644 C2643 1.383 . S
C2644 C2645 1.377 . S
C2645 H2629 0.930 . S
C2645 C2644 1.377 . S
C2645 C2646 1.379 . S
C2646 H2630 0.931 . S
C2646 C2640 1.383 . S
C2646 C2645 1.379 . S
H2647 C2641 0.959 . S
H2648 C2641 0.961 . S
H2649 C2641 0.960 . S
H2650 C2642 0.930 . S
H2651 C2643 0.929 . S
H2652 C2660 0.929 . S
H2653 C2662 0.930 . S
H2654 C2664 0.930 . S
H2655 C2667 0.929 . S
H2656 C2670 0.930 . S
H2657 C2672 0.960 . S
H2658 C2672 0.960 . S
H2659 C2672 0.960 . S
C2660 H2652 0.929 . S
C2660 C2661 1.377 . S
C2660 C2662 1.384 . S
C2661 C2660 1.377 . S
C2661 C2667 1.390 . S
C2662 H2653 0.930 . S
C2662 C2660 1.384 . S
C2662 C2663 1.372 . S
C2663 C2662 1.372 . S
C2663 C2664 1.400 . S
C2663 C2668 1.490 . S
C2664 H2654 0.930 . S
C2664 C2663 1.400 . S
C2664 C2667 1.386 . S
H2665 C2681 0.930 . S
H2666 C2682 0.931 . S
C2667 H2655 0.929 . S
C2667 C2661 1.390 . S
C2667 C2664 1.386 . S
C2668 C2663 1.490 . S
C2668 C2670 1.395 . S
C2668 C2671 1.403 . S
H2669 C2675 0.930 . S
C2670 H2656 0.930 . S
C2670 C2668 1.395 . S
C2670 C2673 1.403 . S
C2671 C2668 1.403 . S
C2671 C2672 1.524 . S
C2671 C2675 1.400 . S
C2672 H2657 0.960 . S
C2672 H2658 0.960 . S
C2672 H2659 0.960 . S
C2672 C2671 1.524 . S
C2673 C2670 1.403 . S
C2673 C2674 1.392 . S
C2673 C2677 1.495 . S
C2674 C2673 1.392 . S
C2674 C2675 1.385 . S
C2674 C2676 1.478 . S
C2675 H2669 0.930 . S
C2675 C2671 1.400 . S
C2675 C2674 1.385 . S
C2676 C2674 1.478 . S
C2676 C2678 1.381 . S
C2676 C2682 1.383 . S
C2677 C2673 1.495 . S
C2677 H2683 0.959 . S
C2677 H2684 0.961 . S
C2677 H2685 0.960 . S
C2678 C2676 1.381 . S
C2678 C2679 1.394 . S
C2678 H2686 0.930 . S
C2679 C2678 1.394 . S
C2679 C2680 1.383 . S
C2679 H2687 0.929 . S
C2680 C2679 1.383 . S
C2680 C2681 1.377 . S
C2681 H2665 0.930 . S
C2681 C2680 1.377 . S
C2681 C2682 1.379 . S
C2682 H2666 0.931 . S
C2682 C2676 1.383 . S
C2682 C2681 1.379 . S
H2683 C2677 0.959 . S
H2684 C2677 0.961 . S
H2685 C2677 0.960 . S
H2686 C2678 0.930 . S
H2687 C2679 0.929 . S
H2688 C2696 0.929 . S
H2689 C2698 0.930 . S
H2690 C2700 0.930 . S
H2691 C2703 0.929 . S
H2692 C2706 0.930 . S
H2693 C2708 0.960 . S
H2694 C2708 0.960 . S
H2695 C2708 0.960 . S
C2696 H2688 0.929 . S
C2696 C2697 1.377 . S
C2696 C2698 1.384 . S
C2697 C2696 1.377 . S
C2697 C2703 1.390 . S
C2698 H2689 0.930 . S
C2698 C2696 1.384 . S
C2698 C2699 1.372 . S
C2699 C2698 1.372 . S
C2699 C2700 1.400 . S
C2699 C2704 1.490 . S
C2700 H2690 0.930 . S
C2700 C2699 1.400 . S
C2700 C2703 1.386 . S
H2701 C2717 0.930 . S
H2702 C2718 0.931 . S
C2703 H2691 0.929 . S
C2703 C2697 1.390 . S
C2703 C2700 1.386 . S
C2704 C2699 1.490 . S
C2704 C2706 1.395 . S
C2704 C2707 1.403 . S
H2705 C2711 0.930 . S
C2706 H2692 0.930 . S
C2706 C2704 1.395 . S
C2706 C2709 1.403 . S
C2707 C2704 1.403 . S
C2707 C2708 1.524 . S
C2707 C2711 1.400 . S
C2708 H2693 0.960 . S
C2708 H2694 0.960 . S
C2708 H2695 0.960 . S
C2708 C2707 1.524 . S
C2709 C2706 1.403 . S
C2709 C2710 1.392 . S
C2709 C2713 1.495 . S
C2710 C2709 1.392 . S
C2710 C2711 1.385 . S
C2710 C2712 1.478 . S
C2711 H2705 0.930 . S
C2711 C2707 1.400 . S
C2711 C2710 1.385 . S
C2712 C2710 1.478 . S
C2712 C2714 1.381 . S
C2712 C2718 1.383 . S
C2713 C2709 1.495 . S
C2713 H2719 0.959 . S
C2713 H2720 0.961 . S
C2713 H2721 0.960 . S
C2714 C2712 1.381 . S
C2714 C2715 1.394 . S
C2714 H2722 0.930 . S
C2715 C2714 1.394 . S
C2715 C2716 1.383 . S
C2715 H2723 0.929 . S
C2716 C2715 1.383 . S
C2716 C2717 1.377 . S
C2717 H2701 0.930 . S
C2717 C2716 1.377 . S
C2717 C2718 1.379 . S
C2718 H2702 0.931 . S
C2718 C2712 1.383 . S
C2718 C2717 1.379 . S
H2719 C2713 0.959 . S
H2720 C2713 0.961 . S
H2721 C2713 0.960 . S
H2722 C2714 0.930 . S
H2723 C2715 0.929 . S
H2724 C2732 0.929 . S
H2725 C2734 0.930 . S
H2726 C2736 0.930 . S
H2727 C2739 0.929 . S
H2728 C2742 0.930 . S
H2729 C2744 0.960 . S
H2730 C2744 0.960 . S
H2731 C2744 0.960 . S
C2732 H2724 0.929 . S
C2732 C2733 1.377 . S
C2732 C2734 1.384 . S
C2733 C2732 1.377 . S
C2733 C2739 1.390 . S
C2734 H2725 0.930 . S
C2734 C2732 1.384 . S
C2734 C2735 1.372 . S
C2735 C2734 1.372 . S
C2735 C2736 1.400 . S
C2735 C2740 1.490 . S
C2736 H2726 0.930 . S
C2736 C2735 1.400 . S
C2736 C2739 1.386 . S
H2737 C2753 0.930 . S
H2738 C2754 0.931 . S
C2739 H2727 0.929 . S
C2739 C2733 1.390 . S
C2739 C2736 1.386 . S
C2740 C2735 1.490 . S
C2740 C2742 1.395 . S
C2740 C2743 1.403 . S
H2741 C2747 0.930 . S
C2742 H2728 0.930 . S
C2742 C2740 1.395 . S
C2742 C2745 1.403 . S
C2743 C2740 1.403 . S
C2743 C2744 1.524 . S
C2743 C2747 1.400 . S
C2744 H2729 0.960 . S
C2744 H2730 0.960 . S
C2744 H2731 0.960 . S
C2744 C2743 1.524 . S
C2745 C2742 1.403 . S
C2745 C2746 1.392 . S
C2745 C2749 1.495 . S
C2746 C2745 1.392 . S
C2746 C2747 1.385 . S
C2746 C2748 1.478 . S
C2747 H2741 0.930 . S
C2747 C2743 1.400 . S
C2747 C2746 1.385 . S
C2748 C2746 1.478 . S
C2748 C2750 1.381 . S
C2748 C2754 1.383 . S
C2749 C2745 1.495 . S
C2749 H2755 0.959 . S
C2749 H2756 0.961 . S
C2749 H2757 0.960 . S
C2750 C2748 1.381 . S
C2750 C2751 1.394 . S
C2750 H2758 0.930 . S
C2751 C2750 1.394 . S
C2751 C2752 1.383 . S
C2751 H2759 0.929 . S
C2752 C2751 1.383 . S
C2752 C2753 1.377 . S
C2753 H2737 0.930 . S
C2753 C2752 1.377 . S
C2753 C2754 1.379 . S
C2754 H2738 0.931 . S
C2754 C2748 1.383 . S
C2754 C2753 1.379 . S
H2755 C2749 0.959 . S
H2756 C2749 0.961 . S
H2757 C2749 0.960 . S
H2758 C2750 0.930 . S
H2759 C2751 0.929 . S
H2760 C2768 0.929 . S
H2761 C2770 0.930 . S
H2762 C2772 0.930 . S
H2763 C2775 0.929 . S
H2764 C2778 0.930 . S
H2765 C2780 0.960 . S
H2766 C2780 0.960 . S
H2767 C2780 0.960 . S
C2768 H2760 0.929 . S
C2768 C2769 1.377 . S
C2768 C2770 1.384 . S
C2769 C2768 1.377 . S
C2769 C2775 1.390 . S
C2770 H2761 0.930 . S
C2770 C2768 1.384 . S
C2770 C2771 1.372 . S
C2771 C2770 1.372 . S
C2771 C2772 1.400 . S
C2771 C2776 1.490 . S
C2772 H2762 0.930 . S
C2772 C2771 1.400 . S
C2772 C2775 1.386 . S
H2773 C2789 0.930 . S
H2774 C2790 0.931 . S
C2775 H2763 0.929 . S
C2775 C2769 1.390 . S
C2775 C2772 1.386 . S
C2776 C2771 1.490 . S
C2776 C2778 1.395 . S
C2776 C2779 1.403 . S
H2777 C2783 0.930 . S
C2778 H2764 0.930 . S
C2778 C2776 1.395 . S
C2778 C2781 1.403 . S
C2779 C2776 1.403 . S
C2779 C2780 1.524 . S
C2779 C2783 1.400 . S
C2780 H2765 0.960 . S
C2780 H2766 0.960 . S
C2780 H2767 0.960 . S
C2780 C2779 1.524 . S
C2781 C2778 1.403 . S
C2781 C2782 1.392 . S
C2781 C2785 1.495 . S
C2782 C2781 1.392 . S
C2782 C2783 1.385 . S
C2782 C2784 1.478 . S
C2783 H2777 0.930 . S
C2783 C2779 1.400 . S
C2783 C2782 1.385 . S
C2784 C2782 1.478 . S
C2784 C2786 1.381 . S
C2784 C2790 1.383 . S
C2785 C2781 1.495 . S
C2785 H2791 0.959 . S
C2785 H2792 0.961 . S
C2785 H2793 0.960 . S
C2786 C2784 1.381 . S
C2786 C2787 1.394 . S
C2786 H2794 0.930 . S
C2787 C2786 1.394 . S
C2787 C2788 1.383 . S
C2787 H2795 0.929 . S
C2788 C2787 1.383 . S
C2788 C2789 1.377 . S
C2789 H2773 0.930 . S
C2789 C2788 1.377 . S
C2789 C2790 1.379 . S
C2790 H2774 0.931 . S
C2790 C2784 1.383 . S
C2790 C2789 1.379 . S
H2791 C2785 0.959 . S
H2792 C2785 0.961 . S
H2793 C2785 0.960 . S
H2794 C2786 0.930 . S
H2795 C2787 0.929 . S
H2796 C2804 0.929 . S
H2797 C2806 0.930 . S
H2798 C2808 0.930 . S
H2799 C2811 0.929 . S
H2800 C2814 0.930 . S
H2801 C2816 0.960 . S
H2802 C2816 0.960 . S
H2803 C2816 0.960 . S
C2804 H2796 0.929 . S
C2804 C2805 1.377 . S
C2804 C2806 1.384 . S
C2805 C2804 1.377 . S
C2805 C2811 1.390 . S
C2806 H2797 0.930 . S
C2806 C2804 1.384 . S
C2806 C2807 1.372 . S
C2807 C2806 1.372 . S
C2807 C2808 1.400 . S
C2807 C2812 1.490 . S
C2808 H2798 0.930 . S
C2808 C2807 1.400 . S
C2808 C2811 1.386 . S
H2809 C2825 0.930 . S
H2810 C2826 0.931 . S
C2811 H2799 0.929 . S
C2811 C2805 1.390 . S
C2811 C2808 1.386 . S
C2812 C2807 1.490 . S
C2812 C2814 1.395 . S
C2812 C2815 1.403 . S
H2813 C2819 0.930 . S
C2814 H2800 0.930 . S
C2814 C2812 1.395 . S
C2814 C2817 1.403 . S
C2815 C2812 1.403 . S
C2815 C2816 1.524 . S
C2815 C2819 1.400 . S
C2816 H2801 0.960 . S
C2816 H2802 0.960 . S
C2816 H2803 0.960 . S
C2816 C2815 1.524 . S
C2817 C2814 1.403 . S
C2817 C2818 1.392 . S
C2817 C2821 1.495 . S
C2818 C2817 1.392 . S
C2818 C2819 1.385 . S
C2818 C2820 1.478 . S
C2819 H2813 0.930 . S
C2819 C2815 1.400 . S
C2819 C2818 1.385 . S
C2820 C2818 1.478 . S
C2820 C2822 1.381 . S
C2820 C2826 1.383 . S
C2821 C2817 1.495 . S
C2821 H2827 0.959 . S
C2821 H2828 0.961 . S
C2821 H2829 0.960 . S
C2822 C2820 1.381 . S
C2822 C2823 1.394 . S
C2822 H2830 0.930 . S
C2823 C2822 1.394 . S
C2823 C2824 1.383 . S
C2823 H2831 0.929 . S
C2824 C2823 1.383 . S
C2824 C2825 1.377 . S
C2825 H2809 0.930 . S
C2825 C2824 1.377 . S
C2825 C2826 1.379 . S
C2826 H2810 0.931 . S
C2826 C2820 1.383 . S
C2826 C2825 1.379 . S
H2827 C2821 0.959 . S
H2828 C2821 0.961 . S
H2829 C2821 0.960 . S
H2830 C2822 0.930 . S
H2831 C2823 0.929 . S
H2832 C2840 0.929 . S
H2833 C2842 0.930 . S
H2834 C2844 0.930 . S
H2835 C2847 0.929 . S
H2836 C2850 0.930 . S
H2837 C2852 0.960 . S
H2838 C2852 0.960 . S
H2839 C2852 0.960 . S
C2840 H2832 0.929 . S
C2840 C2841 1.377 . S
C2840 C2842 1.384 . S
C2841 C2840 1.377 . S
C2841 C2847 1.390 . S
C2842 H2833 0.930 . S
C2842 C2840 1.384 . S
C2842 C2843 1.372 . S
C2843 C2842 1.372 . S
C2843 C2844 1.400 . S
C2843 C2848 1.490 . S
C2844 H2834 0.930 . S
C2844 C2843 1.400 . S
C2844 C2847 1.386 . S
H2845 C2861 0.930 . S
H2846 C2862 0.931 . S
C2847 H2835 0.929 . S
C2847 C2841 1.390 . S
C2847 C2844 1.386 . S
C2848 C2843 1.490 . S
C2848 C2850 1.395 . S
C2848 C2851 1.403 . S
H2849 C2855 0.930 . S
C2850 H2836 0.930 . S
C2850 C2848 1.395 . S
C2850 C2853 1.403 . S
C2851 C2848 1.403 . S
C2851 C2852 1.524 . S
C2851 C2855 1.400 . S
C2852 H2837 0.960 . S
C2852 H2838 0.960 . S
C2852 H2839 0.960 . S
C2852 C2851 1.524 . S
C2853 C2850 1.403 . S
C2853 C2854 1.392 . S
C2853 C2857 1.495 . S
C2854 C2853 1.392 . S
C2854 C2855 1.385 . S
C2854 C2856 1.478 . S
C2855 H2849 0.930 . S
C2855 C2851 1.400 . S
C2855 C2854 1.385 . S
C2856 C2854 1.478 . S
C2856 C2858 1.381 . S
C2856 C2862 1.383 . S
C2857 C2853 1.495 . S
C2857 H2863 0.959 . S
C2857 H2864 0.961 . S
C2857 H2865 0.960 . S
C2858 C2856 1.381 . S
C2858 C2859 1.394 . S
C2858 H2866 0.930 . S
C2859 C2858 1.394 . S
C2859 C2860 1.383 . S
C2859 H2867 0.929 . S
C2860 C2859 1.383 . S
C2860 C2861 1.377 . S
C2861 H2845 0.930 . S
C2861 C2860 1.377 . S
C2861 C2862 1.379 . S
C2862 H2846 0.931 . S
C2862 C2856 1.383 . S
C2862 C2861 1.379 . S
H2863 C2857 0.959 . S
H2864 C2857 0.961 . S
H2865 C2857 0.960 . S
H2866 C2858 0.930 . S
H2867 C2859 0.929 . S
H2868 C2876 0.929 . S
H2869 C2878 0.930 . S
H2870 C2880 0.930 . S
H2871 C2883 0.929 . S
H2872 C2886 0.930 . S
H2873 C2888 0.960 . S
H2874 C2888 0.960 . S
H2875 C2888 0.960 . S
C2876 H2868 0.929 . S
C2876 C2877 1.377 . S
C2876 C2878 1.384 . S
C2877 C2876 1.377 . S
C2877 C2883 1.390 . S
C2878 H2869 0.930 . S
C2878 C2876 1.384 . S
C2878 C2879 1.372 . S
C2879 C2878 1.372 . S
C2879 C2880 1.400 . S
C2879 C2884 1.490 . S
C2880 H2870 0.930 . S
C2880 C2879 1.400 . S
C2880 C2883 1.386 . S
H2881 C2897 0.930 . S
H2882 C2898 0.931 . S
C2883 H2871 0.929 . S
C2883 C2877 1.390 . S
C2883 C2880 1.386 . S
C2884 C2879 1.490 . S
C2884 C2886 1.395 . S
C2884 C2887 1.403 . S
H2885 C2891 0.930 . S
C2886 H2872 0.930 . S
C2886 C2884 1.395 . S
C2886 C2889 1.403 . S
C2887 C2884 1.403 . S
C2887 C2888 1.524 . S
C2887 C2891 1.400 . S
C2888 H2873 0.960 . S
C2888 H2874 0.960 . S
C2888 H2875 0.960 . S
C2888 C2887 1.524 . S
C2889 C2886 1.403 . S
C2889 C2890 1.392 . S
C2889 C2893 1.495 . S
C2890 C2889 1.392 . S
C2890 C2891 1.385 . S
C2890 C2892 1.478 . S
C2891 H2885 0.930 . S
C2891 C2887 1.400 . S
C2891 C2890 1.385 . S
C2892 C2890 1.478 . S
C2892 C2894 1.381 . S
C2892 C2898 1.383 . S
C2893 C2889 1.495 . S
C2893 H2899 0.959 . S
C2893 H2900 0.961 . S
C2893 H2901 0.960 . S
C2894 C2892 1.381 . S
C2894 C2895 1.394 . S
C2894 H2902 0.930 . S
C2895 C2894 1.394 . S
C2895 C2896 1.383 . S
C2895 H2903 0.929 . S
C2896 C2895 1.383 . S
C2896 C2897 1.377 . S
C2897 H2881 0.930 . S
C2897 C2896 1.377 . S
C2897 C2898 1.379 . S
C2898 H2882 0.931 . S
C2898 C2892 1.383 . S
C2898 C2897 1.379 . S
H2899 C2893 0.959 . S
H2900 C2893 0.961 . S
H2901 C2893 0.960 . S
H2902 C2894 0.930 . S
H2903 C2895 0.929 . S
H2904 C2912 0.929 . S
H2905 C2914 0.930 . S
H2906 C2916 0.930 . S
H2907 C2919 0.929 . S
H2908 C2922 0.930 . S
H2909 C2924 0.960 . S
H2910 C2924 0.960 . S
H2911 C2924 0.960 . S
C2912 H2904 0.929 . S
C2912 C2913 1.377 . S
C2912 C2914 1.384 . S
C2913 C2912 1.377 . S
C2913 C2919 1.390 . S
C2914 H2905 0.930 . S
C2914 C2912 1.384 . S
C2914 C2915 1.372 . S
C2915 C2914 1.372 . S
C2915 C2916 1.400 . S
C2915 C2920 1.490 . S
C2916 H2906 0.930 . S
C2916 C2915 1.400 . S
C2916 C2919 1.386 . S
H2917 C2933 0.930 . S
H2918 C2934 0.931 . S
C2919 H2907 0.929 . S
C2919 C2913 1.390 . S
C2919 C2916 1.386 . S
C2920 C2915 1.490 . S
C2920 C2922 1.395 . S
C2920 C2923 1.403 . S
H2921 C2927 0.930 . S
C2922 H2908 0.930 . S
C2922 C2920 1.395 . S
C2922 C2925 1.403 . S
C2923 C2920 1.403 . S
C2923 C2924 1.524 . S
C2923 C2927 1.400 . S
C2924 H2909 0.960 . S
C2924 H2910 0.960 . S
C2924 H2911 0.960 . S
C2924 C2923 1.524 . S
C2925 C2922 1.403 . S
C2925 C2926 1.392 . S
C2925 C2929 1.495 . S
C2926 C2925 1.392 . S
C2926 C2927 1.385 . S
C2926 C2928 1.478 . S
C2927 H2921 0.930 . S
C2927 C2923 1.400 . S
C2927 C2926 1.385 . S
C2928 C2926 1.478 . S
C2928 C2930 1.381 . S
C2928 C2934 1.383 . S
C2929 C2925 1.495 . S
C2929 H2935 0.959 . S
C2929 H2936 0.961 . S
C2929 H2937 0.960 . S
C2930 C2928 1.381 . S
C2930 C2931 1.394 . S
C2930 H2938 0.930 . S
C2931 C2930 1.394 . S
C2931 C2932 1.383 . S
C2931 H2939 0.929 . S
C2932 C2931 1.383 . S
C2932 C2933 1.377 . S
C2933 H2917 0.930 . S
C2933 C2932 1.377 . S
C2933 C2934 1.379 . S
C2934 H2918 0.931 . S
C2934 C2928 1.383 . S
C2934 C2933 1.379 . S
H2935 C2929 0.959 . S
H2936 C2929 0.961 . S
H2937 C2929 0.960 . S
H2938 C2930 0.930 . S
H2939 C2931 0.929 . S
H2940 C2948 0.929 . S
H2941 C2950 0.930 . S
H2942 C2952 0.930 . S
H2943 C2955 0.929 . S
H2944 C2958 0.930 . S
H2945 C2960 0.960 . S
H2946 C2960 0.960 . S
H2947 C2960 0.960 . S
C2948 H2940 0.929 . S
C2948 C2949 1.377 . S
C2948 C2950 1.384 . S
C2949 C2948 1.377 . S
C2949 C2955 1.390 . S
C2950 H2941 0.930 . S
C2950 C2948 1.384 . S
C2950 C2951 1.372 . S
C2951 C2950 1.372 . S
C2951 C2952 1.400 . S
C2951 C2956 1.490 . S
C2952 H2942 0.930 . S
C2952 C2951 1.400 . S
C2952 C2955 1.386 . S
H2953 C2969 0.930 . S
H2954 C2970 0.931 . S
C2955 H2943 0.929 . S
C2955 C2949 1.390 . S
C2955 C2952 1.386 . S
C2956 C2951 1.490 . S
C2956 C2958 1.395 . S
C2956 C2959 1.403 . S
H2957 C2963 0.930 . S
C2958 H2944 0.930 . S
C2958 C2956 1.395 . S
C2958 C2961 1.403 . S
C2959 C2956 1.403 . S
C2959 C2960 1.524 . S
C2959 C2963 1.400 . S
C2960 H2945 0.960 . S
C2960 H2946 0.960 . S
C2960 H2947 0.960 . S
C2960 C2959 1.524 . S
C2961 C2958 1.403 . S
C2961 C2962 1.392 . S
C2961 C2965 1.495 . S
C2962 C2961 1.392 . S
C2962 C2963 1.385 . S
C2962 C2964 1.478 . S
C2963 H2957 0.930 . S
C2963 C2959 1.400 . S
C2963 C2962 1.385 . S
C2964 C2962 1.478 . S
C2964 C2966 1.381 . S
C2964 C2970 1.383 . S
C2965 C2961 1.495 . S
C2965 H2971 0.959 . S
C2965 H2972 0.961 . S
C2965 H2973 0.960 . S
C2966 C2964 1.381 . S
C2966 C2967 1.394 . S
C2966 H2974 0.930 . S
C2967 C2966 1.394 . S
C2967 C2968 1.383 . S
C2967 H2975 0.929 . S
C2968 C2967 1.383 . S
C2968 C2969 1.377 . S
C2969 H2953 0.930 . S
C2969 C2968 1.377 . S
C2969 C2970 1.379 . S
C2970 H2954 0.931 . S
C2970 C2964 1.383 . S
C2970 C2969 1.379 . S
H2971 C2965 0.959 . S
H2972 C2965 0.961 . S
H2973 C2965 0.960 . S
H2974 C2966 0.930 . S
H2975 C2967 0.929 . S
H2976 C2984 0.929 . S
H2977 C2986 0.930 . S
H2978 C2988 0.930 . S
H2979 C2991 0.929 . S
H2980 C2994 0.930 . S
H2981 C2996 0.960 . S
H2982 C2996 0.960 . S
H2983 C2996 0.960 . S
C2984 H2976 0.929 . S
C2984 C2985 1.377 . S
C2984 C2986 1.384 . S
C2985 C2984 1.377 . S
C2985 C2991 1.390 . S
C2986 H2977 0.930 . S
C2986 C2984 1.384 . S
C2986 C2987 1.372 . S
C2987 C2986 1.372 . S
C2987 C2988 1.400 . S
C2987 C2992 1.490 . S
C2988 H2978 0.930 . S
C2988 C2987 1.400 . S
C2988 C2991 1.386 . S
H2989 C3005 0.930 . S
H2990 C3006 0.931 . S
C2991 H2979 0.929 . S
C2991 C2985 1.390 . S
C2991 C2988 1.386 . S
C2992 C2987 1.490 . S
C2992 C2994 1.395 . S
C2992 C2995 1.403 . S
H2993 C2999 0.930 . S
C2994 H2980 0.930 . S
C2994 C2992 1.395 . S
C2994 C2997 1.403 . S
C2995 C2992 1.403 . S
C2995 C2996 1.524 . S
C2995 C2999 1.400 . S
C2996 H2981 0.960 . S
C2996 H2982 0.960 . S
C2996 H2983 0.960 . S
C2996 C2995 1.524 . S
C2997 C2994 1.403 . S
C2997 C2998 1.392 . S
C2997 C3001 1.495 . S
C2998 C2997 1.392 . S
C2998 C2999 1.385 . S
C2998 C3000 1.478 . S
C2999 H2993 0.930 . S
C2999 C2995 1.400 . S
C2999 C2998 1.385 . S
C3000 C2998 1.478 . S
C3000 C3002 1.381 . S
C3000 C3006 1.383 . S
C3001 C2997 1.495 . S
C3001 H3007 0.959 . S
C3001 H3008 0.961 . S
C3001 H3009 0.960 . S
C3002 C3000 1.381 . S
C3002 C3003 1.394 . S
C3002 H3010 0.930 . S
C3003 C3002 1.394 . S
C3003 C3004 1.383 . S
C3003 H3011 0.929 . S
C3004 C3003 1.383 . S
C3004 C3005 1.377 . S
C3005 H2989 0.930 . S
C3005 C3004 1.377 . S
C3005 C3006 1.379 . S
C3006 H2990 0.931 . S
C3006 C3000 1.383 . S
C3006 C3005 1.379 . S
H3007 C3001 0.959 . S
H3008 C3001 0.961 . S
H3009 C3001 0.960 . S
H3010 C3002 0.930 . S
H3011 C3003 0.929 . S
H3012 C3020 0.929 . S
H3013 C3022 0.930 . S
H3014 C3024 0.930 . S
H3015 C3027 0.929 . S
H3016 C3030 0.930 . S
H3017 C3032 0.960 . S
H3018 C3032 0.960 . S
H3019 C3032 0.960 . S
C3020 H3012 0.929 . S
C3020 C3021 1.377 . S
C3020 C3022 1.384 . S
C3021 C3020 1.377 . S
C3021 C3027 1.390 . S
C3022 H3013 0.930 . S
C3022 C3020 1.384 . S
C3022 C3023 1.372 . S
C3023 C3022 1.372 . S
C3023 C3024 1.400 . S
C3023 C3028 1.490 . S
C3024 H3014 0.930 . S
C3024 C3023 1.400 . S
C3024 C3027 1.386 . S
H3025 C3041 0.930 . S
H3026 C3042 0.931 . S
C3027 H3015 0.929 . S
C3027 C3021 1.390 . S
C3027 C3024 1.386 . S
C3028 C3023 1.490 . S
C3028 C3030 1.395 . S
C3028 C3031 1.403 . S
H3029 C3035 0.930 . S
C3030 H3016 0.930 . S
C3030 C3028 1.395 . S
C3030 C3033 1.403 . S
C3031 C3028 1.403 . S
C3031 C3032 1.524 . S
C3031 C3035 1.400 . S
C3032 H3017 0.960 . S
C3032 H3018 0.960 . S
C3032 H3019 0.960 . S
C3032 C3031 1.524 . S
C3033 C3030 1.403 . S
C3033 C3034 1.392 . S
C3033 C3037 1.495 . S
C3034 C3033 1.392 . S
C3034 C3035 1.385 . S
C3034 C3036 1.478 . S
C3035 H3029 0.930 . S
C3035 C3031 1.400 . S
C3035 C3034 1.385 . S
C3036 C3034 1.478 . S
C3036 C3038 1.381 . S
C3036 C3042 1.383 . S
C3037 C3033 1.495 . S
C3037 H3043 0.959 . S
C3037 H3044 0.961 . S
C3037 H3045 0.960 . S
C3038 C3036 1.381 . S
C3038 C3039 1.394 . S
C3038 H3046 0.930 . S
C3039 C3038 1.394 . S
C3039 C3040 1.383 . S
C3039 H3047 0.929 . S
C3040 C3039 1.383 . S
C3040 C3041 1.377 . S
C3041 H3025 0.930 . S
C3041 C3040 1.377 . S
C3041 C3042 1.379 . S
C3042 H3026 0.931 . S
C3042 C3036 1.383 . S
C3042 C3041 1.379 . S
H3043 C3037 0.959 . S
H3044 C3037 0.961 . S
H3045 C3037 0.960 . S
H3046 C3038 0.930 . S
H3047 C3039 0.929 . S
H3048 C3056 0.929 . S
H3049 C3058 0.930 . S
H3050 C3060 0.930 . S
H3051 C3063 0.929 . S
H3052 C3066 0.930 . S
H3053 C3068 0.960 . S
H3054 C3068 0.960 . S
H3055 C3068 0.960 . S
C3056 H3048 0.929 . S
C3056 C3057 1.377 . S
C3056 C3058 1.384 . S
C3057 C3056 1.377 . S
C3057 C3063 1.390 . S
C3058 H3049 0.930 . S
C3058 C3056 1.384 . S
C3058 C3059 1.372 . S
C3059 C3058 1.372 . S
C3059 C3060 1.400 . S
C3059 C3064 1.490 . S
C3060 H3050 0.930 . S
C3060 C3059 1.400 . S
C3060 C3063 1.386 . S
H3061 C3077 0.930 . S
H3062 C3078 0.931 . S
C3063 H3051 0.929 . S
C3063 C3057 1.390 . S
C3063 C3060 1.386 . S
C3064 C3059 1.490 . S
C3064 C3066 1.395 . S
C3064 C3067 1.403 . S
H3065 C3071 0.930 . S
C3066 H3052 0.930 . S
C3066 C3064 1.395 . S
C3066 C3069 1.403 . S
C3067 C3064 1.403 . S
C3067 C3068 1.524 . S
C3067 C3071 1.400 . S
C3068 H3053 0.960 . S
C3068 H3054 0.960 . S
C3068 H3055 0.960 . S
C3068 C3067 1.524 . S
C3069 C3066 1.403 . S
C3069 C3070 1.392 . S
C3069 C3073 1.495 . S
C3070 C3069 1.392 . S
C3070 C3071 1.385 . S
C3070 C3072 1.478 . S
C3071 H3065 0.930 . S
C3071 C3067 1.400 . S
C3071 C3070 1.385 . S
C3072 C3070 1.478 . S
C3072 C3074 1.381 . S
C3072 C3078 1.383 . S
C3073 C3069 1.495 . S
C3073 H3079 0.959 . S
C3073 H3080 0.961 . S
C3073 H3081 0.960 . S
C3074 C3072 1.381 . S
C3074 C3075 1.394 . S
C3074 H3082 0.930 . S
C3075 C3074 1.394 . S
C3075 C3076 1.383 . S
C3075 H3083 0.929 . S
C3076 C3075 1.383 . S
C3076 C3077 1.377 . S
C3077 H3061 0.930 . S
C3077 C3076 1.377 . S
C3077 C3078 1.379 . S
C3078 H3062 0.931 . S
C3078 C3072 1.383 . S
C3078 C3077 1.379 . S
H3079 C3073 0.959 . S
H3080 C3073 0.961 . S
H3081 C3073 0.960 . S
H3082 C3074 0.930 . S
H3083 C3075 0.929 . S
H3084 C3092 0.929 . S
H3085 C3094 0.930 . S
H3086 C3096 0.930 . S
H3087 C3099 0.929 . S
H3088 C3102 0.930 . S
H3089 C3104 0.960 . S
H3090 C3104 0.960 . S
H3091 C3104 0.960 . S
C3092 H3084 0.929 . S
C3092 C3093 1.377 . S
C3092 C3094 1.384 . S
C3093 C3092 1.377 . S
C3093 C3099 1.390 . S
C3094 H3085 0.930 . S
C3094 C3092 1.384 . S
C3094 C3095 1.372 . S
C3095 C3094 1.372 . S
C3095 C3096 1.400 . S
C3095 C3100 1.490 . S
C3096 H3086 0.930 . S
C3096 C3095 1.400 . S
C3096 C3099 1.386 . S
H3097 C3113 0.930 . S
H3098 C3114 0.931 . S
C3099 H3087 0.929 . S
C3099 C3093 1.390 . S
C3099 C3096 1.386 . S
C3100 C3095 1.490 . S
C3100 C3102 1.395 . S
C3100 C3103 1.403 . S
H3101 C3107 0.930 . S
C3102 H3088 0.930 . S
C3102 C3100 1.395 . S
C3102 C3105 1.403 . S
C3103 C3100 1.403 . S
C3103 C3104 1.524 . S
C3103 C3107 1.400 . S
C3104 H3089 0.960 . S
C3104 H3090 0.960 . S
C3104 H3091 0.960 . S
C3104 C3103 1.524 . S
C3105 C3102 1.403 . S
C3105 C3106 1.392 . S
C3105 C3109 1.495 . S
C3106 C3105 1.392 . S
C3106 C3107 1.385 . S
C3106 C3108 1.478 . S
C3107 H3101 0.930 . S
C3107 C3103 1.400 . S
C3107 C3106 1.385 . S
C3108 C3106 1.478 . S
C3108 C3110 1.381 . S
C3108 C3114 1.383 . S
C3109 C3105 1.495 . S
C3109 H3115 0.959 . S
C3109 H3116 0.961 . S
C3109 H3117 0.960 . S
C3110 C3108 1.381 . S
C3110 C3111 1.394 . S
C3110 H3118 0.930 . S
C3111 C3110 1.394 . S
C3111 C3112 1.383 . S
C3111 H3119 0.929 . S
C3112 C3111 1.383 . S
C3112 C3113 1.377 . S
C3113 H3097 0.930 . S
C3113 C3112 1.377 . S
C3113 C3114 1.379 . S
C3114 H3098 0.931 . S
C3114 C3108 1.383 . S
C3114 C3113 1.379 . S
H3115 C3109 0.959 . S
H3116 C3109 0.961 . S
H3117 C3109 0.960 . S
H3118 C3110 0.930 . S
H3119 C3111 0.929 . S
H3120 C3128 0.929 . S
H3121 C3130 0.930 . S
H3122 C3132 0.930 . S
H3123 C3135 0.929 . S
H3124 C3138 0.930 . S
H3125 C3140 0.960 . S
H3126 C3140 0.960 . S
H3127 C3140 0.960 . S
C3128 H3120 0.929 . S
C3128 C3129 1.377 . S
C3128 C3130 1.384 . S
C3129 C3128 1.377 . S
C3129 C3135 1.390 . S
C3130 H3121 0.930 . S
C3130 C3128 1.384 . S
C3130 C3131 1.372 . S
C3131 C3130 1.372 . S
C3131 C3132 1.400 . S
C3131 C3136 1.490 . S
C3132 H3122 0.930 . S
C3132 C3131 1.400 . S
C3132 C3135 1.386 . S
H3133 C3149 0.930 . S
H3134 C3150 0.931 . S
C3135 H3123 0.929 . S
C3135 C3129 1.390 . S
C3135 C3132 1.386 . S
C3136 C3131 1.490 . S
C3136 C3138 1.395 . S
C3136 C3139 1.403 . S
H3137 C3143 0.930 . S
C3138 H3124 0.930 . S
C3138 C3136 1.395 . S
C3138 C3141 1.403 . S
C3139 C3136 1.403 . S
C3139 C3140 1.524 . S
C3139 C3143 1.400 . S
C3140 H3125 0.960 . S
C3140 H3126 0.960 . S
C3140 H3127 0.960 . S
C3140 C3139 1.524 . S
C3141 C3138 1.403 . S
C3141 C3142 1.392 . S
C3141 C3145 1.495 . S
C3142 C3141 1.392 . S
C3142 C3143 1.385 . S
C3142 C3144 1.478 . S
C3143 H3137 0.930 . S
C3143 C3139 1.400 . S
C3143 C3142 1.385 . S
C3144 C3142 1.478 . S
C3144 C3146 1.381 . S
C3144 C3150 1.383 . S
C3145 C3141 1.495 . S
C3145 H3151 0.959 . S
C3145 H3152 0.961 . S
C3145 H3153 0.960 . S
C3146 C3144 1.381 . S
C3146 C3147 1.394 . S
C3146 H3154 0.930 . S
C3147 C3146 1.394 . S
C3147 C3148 1.383 . S
C3147 H3155 0.929 . S
C3148 C3147 1.383 . S
C3148 C3149 1.377 . S
C3149 H3133 0.930 . S
C3149 C3148 1.377 . S
C3149 C3150 1.379 . S
C3150 H3134 0.931 . S
C3150 C3144 1.383 . S
C3150 C3149 1.379 . S
H3151 C3145 0.959 . S
H3152 C3145 0.961 . S
H3153 C3145 0.960 . S
H3154 C3146 0.930 . S
H3155 C3147 0.929 . S
H3156 C3164 0.929 . S
H3157 C3166 0.930 . S
H3158 C3168 0.930 . S
H3159 C3171 0.929 . S
H3160 C3174 0.930 . S
H3161 C3176 0.960 . S
H3162 C3176 0.960 . S
H3163 C3176 0.960 . S
C3164 H3156 0.929 . S
C3164 C3165 1.377 . S
C3164 C3166 1.384 . S
C3165 C3164 1.377 . S
C3165 C3171 1.390 . S
C3166 H3157 0.930 . S
C3166 C3164 1.384 . S
C3166 C3167 1.372 . S
C3167 C3166 1.372 . S
C3167 C3168 1.400 . S
C3167 C3172 1.490 . S
C3168 H3158 0.930 . S
C3168 C3167 1.400 . S
C3168 C3171 1.386 . S
H3169 C3185 0.930 . S
H3170 C3186 0.931 . S
C3171 H3159 0.929 . S
C3171 C3165 1.390 . S
C3171 C3168 1.386 . S
C3172 C3167 1.490 . S
C3172 C3174 1.395 . S
C3172 C3175 1.403 . S
H3173 C3179 0.930 . S
C3174 H3160 0.930 . S
C3174 C3172 1.395 . S
C3174 C3177 1.403 . S
C3175 C3172 1.403 . S
C3175 C3176 1.524 . S
C3175 C3179 1.400 . S
C3176 H3161 0.960 . S
C3176 H3162 0.960 . S
C3176 H3163 0.960 . S
C3176 C3175 1.524 . S
C3177 C3174 1.403 . S
C3177 C3178 1.392 . S
C3177 C3181 1.495 . S
C3178 C3177 1.392 . S
C3178 C3179 1.385 . S
C3178 C3180 1.478 . S
C3179 H3173 0.930 . S
C3179 C3175 1.400 . S
C3179 C3178 1.385 . S
C3180 C3178 1.478 . S
C3180 C3182 1.381 . S
C3180 C3186 1.383 . S
C3181 C3177 1.495 . S
C3181 H3187 0.959 . S
C3181 H3188 0.961 . S
C3181 H3189 0.960 . S
C3182 C3180 1.381 . S
C3182 C3183 1.394 . S
C3182 H3190 0.930 . S
C3183 C3182 1.394 . S
C3183 C3184 1.383 . S
C3183 H3191 0.929 . S
C3184 C3183 1.383 . S
C3184 C3185 1.377 . S
C3185 H3169 0.930 . S
C3185 C3184 1.377 . S
C3185 C3186 1.379 . S
C3186 H3170 0.931 . S
C3186 C3180 1.383 . S
C3186 C3185 1.379 . S
H3187 C3181 0.959 . S
H3188 C3181 0.961 . S
H3189 C3181 0.960 . S
H3190 C3182 0.930 . S
H3191 C3183 0.929 . S
H3192 C3200 0.929 . S
H3193 C3202 0.930 . S
H3194 C3204 0.930 . S
H3195 C3207 0.929 . S
H3196 C3210 0.930 . S
H3197 C3212 0.960 . S
H3198 C3212 0.960 . S
H3199 C3212 0.960 . S
C3200 H3192 0.929 . S
C3200 C3201 1.377 . S
C3200 C3202 1.384 . S
C3201 C3200 1.377 . S
C3201 C3207 1.390 . S
C3202 H3193 0.930 . S
C3202 C3200 1.384 . S
C3202 C3203 1.372 . S
C3203 C3202 1.372 . S
C3203 C3204 1.400 . S
C3203 C3208 1.490 . S
C3204 H3194 0.930 . S
C3204 C3203 1.400 . S
C3204 C3207 1.386 . S
H3205 C3221 0.930 . S
H3206 C3222 0.931 . S
C3207 H3195 0.929 . S
C3207 C3201 1.390 . S
C3207 C3204 1.386 . S
C3208 C3203 1.490 . S
C3208 C3210 1.395 . S
C3208 C3211 1.403 . S
H3209 C3215 0.930 . S
C3210 H3196 0.930 . S
C3210 C3208 1.395 . S
C3210 C3213 1.403 . S
C3211 C3208 1.403 . S
C3211 C3212 1.524 . S
C3211 C3215 1.400 . S
C3212 H3197 0.960 . S
C3212 H3198 0.960 . S
C3212 H3199 0.960 . S
C3212 C3211 1.524 . S
C3213 C3210 1.403 . S
C3213 C3214 1.392 . S
C3213 C3217 1.495 . S
C3214 C3213 1.392 . S
C3214 C3215 1.385 . S
C3214 C3216 1.478 . S
C3215 H3209 0.930 . S
C3215 C3211 1.400 . S
C3215 C3214 1.385 . S
C3216 C3214 1.478 . S
C3216 C3218 1.381 . S
C3216 C3222 1.383 . S
C3217 C3213 1.495 . S
C3217 H3223 0.959 . S
C3217 H3224 0.961 . S
C3217 H3225 0.960 . S
C3218 C3216 1.381 . S
C3218 C3219 1.394 . S
C3218 H3226 0.930 . S
C3219 C3218 1.394 . S
C3219 C3220 1.383 . S
C3219 H3227 0.929 . S
C3220 C3219 1.383 . S
C3220 C3221 1.377 . S
C3221 H3205 0.930 . S
C3221 C3220 1.377 . S
C3221 C3222 1.379 . S
C3222 H3206 0.931 . S
C3222 C3216 1.383 . S
C3222 C3221 1.379 . S
H3223 C3217 0.959 . S
H3224 C3217 0.961 . S
H3225 C3217 0.960 . S
H3226 C3218 0.930 . S
H3227 C3219 0.929 . S
H3228 C3236 0.929 . S
H3229 C3238 0.930 . S
H3230 C3240 0.930 . S
H3231 C3243 0.929 . S
H3232 C3246 0.930 . S
H3233 C3248 0.960 . S
H3234 C3248 0.960 . S
H3235 C3248 0.960 . S
C3236 H3228 0.929 . S
C3236 C3237 1.377 . S
C3236 C3238 1.384 . S
C3237 C3236 1.377 . S
C3237 C3243 1.390 . S
C3238 H3229 0.930 . S
C3238 C3236 1.384 . S
C3238 C3239 1.372 . S
C3239 C3238 1.372 . S
C3239 C3240 1.400 . S
C3239 C3244 1.490 . S
C3240 H3230 0.930 . S
C3240 C3239 1.400 . S
C3240 C3243 1.386 . S
H3241 C3257 0.930 . S
H3242 C3258 0.931 . S
C3243 H3231 0.929 . S
C3243 C3237 1.390 . S
C3243 C3240 1.386 . S
C3244 C3239 1.490 . S
C3244 C3246 1.395 . S
C3244 C3247 1.403 . S
H3245 C3251 0.930 . S
C3246 H3232 0.930 . S
C3246 C3244 1.395 . S
C3246 C3249 1.403 . S
C3247 C3244 1.403 . S
C3247 C3248 1.524 . S
C3247 C3251 1.400 . S
C3248 H3233 0.960 . S
C3248 H3234 0.960 . S
C3248 H3235 0.960 . S
C3248 C3247 1.524 . S
C3249 C3246 1.403 . S
C3249 C3250 1.392 . S
C3249 C3253 1.495 . S
C3250 C3249 1.392 . S
C3250 C3251 1.385 . S
C3250 C3252 1.478 . S
C3251 H3245 0.930 . S
C3251 C3247 1.400 . S
C3251 C3250 1.385 . S
C3252 C3250 1.478 . S
C3252 C3254 1.381 . S
C3252 C3258 1.383 . S
C3253 C3249 1.495 . S
C3253 H3259 0.959 . S
C3253 H3260 0.961 . S
C3253 H3261 0.960 . S
C3254 C3252 1.381 . S
C3254 C3255 1.394 . S
C3254 H3262 0.930 . S
C3255 C3254 1.394 . S
C3255 C3256 1.383 . S
C3255 H3263 0.929 . S
C3256 C3255 1.383 . S
C3256 C3257 1.377 . S
C3257 H3241 0.930 . S
C3257 C3256 1.377 . S
C3257 C3258 1.379 . S
C3258 H3242 0.931 . S
C3258 C3252 1.383 . S
C3258 C3257 1.379 . S
H3259 C3253 0.959 . S
H3260 C3253 0.961 . S
H3261 C3253 0.960 . S
H3262 C3254 0.930 . S
H3263 C3255 0.929 . S
H3264 C3272 0.929 . S
H3265 C3274 0.930 . S
H3266 C3276 0.930 . S
H3267 C3279 0.929 . S
H3268 C3282 0.930 . S
H3269 C3284 0.960 . S
H3270 C3284 0.960 . S
H3271 C3284 0.960 . S
C3272 H3264 0.929 . S
C3272 C3273 1.377 . S
C3272 C3274 1.384 . S
C3273 C3272 1.377 . S
C3273 C3279 1.390 . S
C3274 H3265 0.930 . S
C3274 C3272 1.384 . S
C3274 C3275 1.372 . S
C3275 C3274 1.372 . S
C3275 C3276 1.400 . S
C3275 C3280 1.490 . S
C3276 H3266 0.930 . S
C3276 C3275 1.400 . S
C3276 C3279 1.386 . S
H3277 C3293 0.930 . S
H3278 C3294 0.931 . S
C3279 H3267 0.929 . S
C3279 C3273 1.390 . S
C3279 C3276 1.386 . S
C3280 C3275 1.490 . S
C3280 C3282 1.395 . S
C3280 C3283 1.403 . S
H3281 C3287 0.930 . S
C3282 H3268 0.930 . S
C3282 C3280 1.395 . S
C3282 C3285 1.403 1_554 S
C3283 C3280 1.403 . S
C3283 C3284 1.524 . S
C3283 C3287 1.400 1_554 S
C3284 H3269 0.960 . S
C3284 H3270 0.960 . S
C3284 H3271 0.960 . S
C3284 C3283 1.524 . S
C3285 C3282 1.403 1_556 S
C3285 C3286 1.392 . S
C3285 C3289 1.495 . S
C3286 C3285 1.392 . S
C3286 C3287 1.385 . S
C3286 C3288 1.478 . S
C3287 H3281 0.930 . S
C3287 C3283 1.400 1_556 S
C3287 C3286 1.385 . S
C3288 C3286 1.478 . S
C3288 C3290 1.381 . S
C3288 C3294 1.383 . S
C3289 C3285 1.495 . S
C3289 H3295 0.959 . S
C3289 H3296 0.961 . S
C3289 H3297 0.960 . S
C3290 C3288 1.381 . S
C3290 C3291 1.394 . S
C3290 H3298 0.930 . S
C3291 C3290 1.394 . S
C3291 C3292 1.383 . S
C3291 H3299 0.929 . S
C3292 C3291 1.383 . S
C3292 C3293 1.377 . S
C3293 H3277 0.930 . S
C3293 C3292 1.377 . S
C3293 C3294 1.379 . S
C3294 H3278 0.931 . S
C3294 C3288 1.383 . S
C3294 C3293 1.379 . S
H3295 C3289 0.959 . S
H3296 C3289 0.961 . S
H3297 C3289 0.960 . S
H3298 C3290 0.930 . S
H3299 C3291 0.929 . S
H3300 C3308 0.929 . S
H3301 C3310 0.930 . S
H3302 C3312 0.930 . S
H3303 C3315 0.929 . S
H3304 C3318 0.930 . S
H3305 C3320 0.960 . S
H3306 C3320 0.960 . S
H3307 C3320 0.960 . S
C3308 H3300 0.929 . S
C3308 C3309 1.377 . S
C3308 C3310 1.384 . S
C3309 C3308 1.377 . S
C3309 C3315 1.390 . S
C3310 H3301 0.930 . S
C3310 C3308 1.384 . S
C3310 C3311 1.372 . S
C3311 C3310 1.372 . S
C3311 C3312 1.400 . S
C3311 C3316 1.490 . S
C3312 H3302 0.930 . S
C3312 C3311 1.400 . S
C3312 C3315 1.386 . S
H3313 C3329 0.930 . S
H3314 C3330 0.931 . S
C3315 H3303 0.929 . S
C3315 C3309 1.390 . S
C3315 C3312 1.386 . S
C3316 C3311 1.490 . S
C3316 C3318 1.395 . S
C3316 C3319 1.403 . S
H3317 C3323 0.930 . S
C3318 H3304 0.930 . S
C3318 C3316 1.395 . S
C3318 C3321 1.403 1_556 S
C3319 C3316 1.403 . S
C3319 C3320 1.524 . S
C3319 C3323 1.400 1_556 S
C3320 H3305 0.960 . S
C3320 H3306 0.960 . S
C3320 H3307 0.960 . S
C3320 C3319 1.524 . S
C3321 C3318 1.403 1_554 S
C3321 C3322 1.392 . S
C3321 C3325 1.495 . S
C3322 C3321 1.392 . S
C3322 C3323 1.385 . S
C3322 C3324 1.478 . S
C3323 H3317 0.930 . S
C3323 C3319 1.400 1_554 S
C3323 C3322 1.385 . S
C3324 C3322 1.478 . S
C3324 C3326 1.381 . S
C3324 C3330 1.383 . S
C3325 C3321 1.495 . S
C3325 H3331 0.959 . S
C3325 H3332 0.961 . S
C3325 H3333 0.960 . S
C3326 C3324 1.381 . S
C3326 C3327 1.394 . S
C3326 H3334 0.930 . S
C3327 C3326 1.394 . S
C3327 C3328 1.383 . S
C3327 H3335 0.929 . S
C3328 C3327 1.383 . S
C3328 C3329 1.377 . S
C3329 H3313 0.930 . S
C3329 C3328 1.377 . S
C3329 C3330 1.379 . S
C3330 H3314 0.931 . S
C3330 C3324 1.383 . S
C3330 C3329 1.379 . S
H3331 C3325 0.959 . S
H3332 C3325 0.961 . S
H3333 C3325 0.960 . S
H3334 C3326 0.930 . S
H3335 C3327 0.929 . S
H3336 C3344 0.929 . S
H3337 C3346 0.930 . S
H3338 C3348 0.930 . S
H3339 C3351 0.929 . S
H3340 C3354 0.930 . S
H3341 C3356 0.960 . S
H3342 C3356 0.960 . S
H3343 C3356 0.960 . S
C3344 H3336 0.929 . S
C3344 C3345 1.377 . S
C3344 C3346 1.384 . S
C3345 C3344 1.377 . S
C3345 C3351 1.390 . S
C3346 H3337 0.930 . S
C3346 C3344 1.384 . S
C3346 C3347 1.372 . S
C3347 C3346 1.372 . S
C3347 C3348 1.400 . S
C3347 C3352 1.490 . S
C3348 H3338 0.930 . S
C3348 C3347 1.400 . S
C3348 C3351 1.386 . S
H3349 C3365 0.930 . S
H3350 C3366 0.931 . S
C3351 H3339 0.929 . S
C3351 C3345 1.390 . S
C3351 C3348 1.386 . S
C3352 C3347 1.490 . S
C3352 C3354 1.395 . S
C3352 C3355 1.403 . S
H3353 C3359 0.930 . S
C3354 H3340 0.930 . S
C3354 C3352 1.395 . S
C3354 C3357 1.403 1_554 S
C3355 C3352 1.403 . S
C3355 C3356 1.524 . S
C3355 C3359 1.400 1_554 S
C3356 H3341 0.960 . S
C3356 H3342 0.960 . S
C3356 H3343 0.960 . S
C3356 C3355 1.524 . S
C3357 C3354 1.403 1_556 S
C3357 C3358 1.392 . S
C3357 C3361 1.495 . S
C3358 C3357 1.392 . S
C3358 C3359 1.385 . S
C3358 C3360 1.478 . S
C3359 H3353 0.930 . S
C3359 C3355 1.400 1_556 S
C3359 C3358 1.385 . S
C3360 C3358 1.478 . S
C3360 C3362 1.381 . S
C3360 C3366 1.383 . S
C3361 C3357 1.495 . S
C3361 H3367 0.959 . S
C3361 H3368 0.961 . S
C3361 H3369 0.960 . S
C3362 C3360 1.381 . S
C3362 C3363 1.394 . S
C3362 H3370 0.930 . S
C3363 C3362 1.394 . S
C3363 C3364 1.383 . S
C3363 H3371 0.929 . S
C3364 C3363 1.383 . S
C3364 C3365 1.377 . S
C3365 H3349 0.930 . S
C3365 C3364 1.377 . S
C3365 C3366 1.379 . S
C3366 H3350 0.931 . S
C3366 C3360 1.383 . S
C3366 C3365 1.379 . S
H3367 C3361 0.959 . S
H3368 C3361 0.961 . S
H3369 C3361 0.960 . S
H3370 C3362 0.930 . S
H3371 C3363 0.929 . S
H3372 C3380 0.929 . S
H3373 C3382 0.930 . S
H3374 C3384 0.930 . S
H3375 C3387 0.929 . S
H3376 C3390 0.930 . S
H3377 C3392 0.960 . S
H3378 C3392 0.960 . S
H3379 C3392 0.960 . S
C3380 H3372 0.929 . S
C3380 C3381 1.377 . S
C3380 C3382 1.384 . S
C3381 C3380 1.377 . S
C3381 C3387 1.390 . S
C3382 H3373 0.930 . S
C3382 C3380 1.384 . S
C3382 C3383 1.372 . S
C3383 C3382 1.372 . S
C3383 C3384 1.400 . S
C3383 C3388 1.490 . S
C3384 H3374 0.930 . S
C3384 C3383 1.400 . S
C3384 C3387 1.386 . S
H3385 C3401 0.930 . S
H3386 C3402 0.931 . S
C3387 H3375 0.929 . S
C3387 C3381 1.390 . S
C3387 C3384 1.386 . S
C3388 C3383 1.490 . S
C3388 C3390 1.395 . S
C3388 C3391 1.403 . S
H3389 C3395 0.930 . S
C3390 H3376 0.930 . S
C3390 C3388 1.395 . S
C3390 C3393 1.403 1_554 S
C3391 C3388 1.403 . S
C3391 C3392 1.524 . S
C3391 C3395 1.400 1_554 S
C3392 H3377 0.960 . S
C3392 H3378 0.960 . S
C3392 H3379 0.960 . S
C3392 C3391 1.524 . S
C3393 C3390 1.403 1_556 S
C3393 C3394 1.392 . S
C3393 C3397 1.495 . S
C3394 C3393 1.392 . S
C3394 C3395 1.385 . S
C3394 C3396 1.478 . S
C3395 H3389 0.930 . S
C3395 C3391 1.400 1_556 S
C3395 C3394 1.385 . S
C3396 C3394 1.478 . S
C3396 C3398 1.381 . S
C3396 C3402 1.383 . S
C3397 C3393 1.495 . S
C3397 H3403 0.959 . S
C3397 H3404 0.961 . S
C3397 H3405 0.960 . S
C3398 C3396 1.381 . S
C3398 C3399 1.394 . S
C3398 H3406 0.930 . S
C3399 C3398 1.394 . S
C3399 C3400 1.383 . S
C3399 H3407 0.929 . S
C3400 C3399 1.383 . S
C3400 C3401 1.377 . S
C3401 H3385 0.930 . S
C3401 C3400 1.377 . S
C3401 C3402 1.379 . S
C3402 H3386 0.931 . S
C3402 C3396 1.383 . S
C3402 C3401 1.379 . S
H3403 C3397 0.959 . S
H3404 C3397 0.961 . S
H3405 C3397 0.960 . S
H3406 C3398 0.930 . S
H3407 C3399 0.929 . S
H3408 C3416 0.929 . S
H3409 C3418 0.930 . S
H3410 C3420 0.930 . S
H3411 C3423 0.929 . S
H3412 C3426 0.930 . S
H3413 C3428 0.960 . S
H3414 C3428 0.960 . S
H3415 C3428 0.960 . S
C3416 H3408 0.929 . S
C3416 C3417 1.377 . S
C3416 C3418 1.384 . S
C3417 C3416 1.377 . S
C3417 C3423 1.390 . S
C3418 H3409 0.930 . S
C3418 C3416 1.384 . S
C3418 C3419 1.372 . S
C3419 C3418 1.372 . S
C3419 C3420 1.400 . S
C3419 C3424 1.490 . S
C3420 H3410 0.930 . S
C3420 C3419 1.400 . S
C3420 C3423 1.386 . S
H3421 C3437 0.930 . S
H3422 C3438 0.931 . S
C3423 H3411 0.929 . S
C3423 C3417 1.390 . S
C3423 C3420 1.386 . S
C3424 C3419 1.490 . S
C3424 C3426 1.395 . S
C3424 C3427 1.403 . S
H3425 C3431 0.930 . S
C3426 H3412 0.930 . S
C3426 C3424 1.395 . S
C3426 C3429 1.403 1_556 S
C3427 C3424 1.403 . S
C3427 C3428 1.524 . S
C3427 C3431 1.400 1_556 S
C3428 H3413 0.960 . S
C3428 H3414 0.960 . S
C3428 H3415 0.960 . S
C3428 C3427 1.524 . S
C3429 C3426 1.403 1_554 S
C3429 C3430 1.392 . S
C3429 C3433 1.495 . S
C3430 C3429 1.392 . S
C3430 C3431 1.385 . S
C3430 C3432 1.478 . S
C3431 H3425 0.930 . S
C3431 C3427 1.400 1_554 S
C3431 C3430 1.385 . S
C3432 C3430 1.478 . S
C3432 C3434 1.381 . S
C3432 C3438 1.383 . S
C3433 C3429 1.495 . S
C3433 H3439 0.959 . S
C3433 H3440 0.961 . S
C3433 H3441 0.960 . S
C3434 C3432 1.381 . S
C3434 C3435 1.394 . S
C3434 H3442 0.930 . S
C3435 C3434 1.394 . S
C3435 C3436 1.383 . S
C3435 H3443 0.929 . S
C3436 C3435 1.383 . S
C3436 C3437 1.377 . S
C3437 H3421 0.930 . S
C3437 C3436 1.377 . S
C3437 C3438 1.379 . S
C3438 H3422 0.931 . S
C3438 C3432 1.383 . S
C3438 C3437 1.379 . S
H3439 C3433 0.959 . S
H3440 C3433 0.961 . S
H3441 C3433 0.960 . S
H3442 C3434 0.930 . S
H3443 C3435 0.929 . S
H3444 C3452 0.929 . S
H3445 C3454 0.930 . S
H3446 C3456 0.930 . S
H3447 C3459 0.929 . S
H3448 C3462 0.930 . S
H3449 C3464 0.960 . S
H3450 C3464 0.960 . S
H3451 C3464 0.960 . S
C3452 H3444 0.929 . S
C3452 C3453 1.377 . S
C3452 C3454 1.384 . S
C3453 C3452 1.377 . S
C3453 C3459 1.390 . S
C3454 H3445 0.930 . S
C3454 C3452 1.384 . S
C3454 C3455 1.372 . S
C3455 C3454 1.372 . S
C3455 C3456 1.400 . S
C3455 C3460 1.490 . S
C3456 H3446 0.930 . S
C3456 C3455 1.400 . S
C3456 C3459 1.386 . S
H3457 C3473 0.930 . S
H3458 C3474 0.931 . S
C3459 H3447 0.929 . S
C3459 C3453 1.390 . S
C3459 C3456 1.386 . S
C3460 C3455 1.490 . S
C3460 C3462 1.395 . S
C3460 C3463 1.403 . S
H3461 C3467 0.930 . S
C3462 H3448 0.930 . S
C3462 C3460 1.395 . S
C3462 C3465 1.403 1_554 S
C3463 C3460 1.403 . S
C3463 C3464 1.524 . S
C3463 C3467 1.400 1_554 S
C3464 H3449 0.960 . S
C3464 H3450 0.960 . S
C3464 H3451 0.960 . S
C3464 C3463 1.524 . S
C3465 C3462 1.403 1_556 S
C3465 C3466 1.392 . S
C3465 C3469 1.495 . S
C3466 C3465 1.392 . S
C3466 C3467 1.385 . S
C3466 C3468 1.478 . S
C3467 H3461 0.930 . S
C3467 C3463 1.400 1_556 S
C3467 C3466 1.385 . S
C3468 C3466 1.478 . S
C3468 C3470 1.381 . S
C3468 C3474 1.383 . S
C3469 C3465 1.495 . S
C3469 H3475 0.959 . S
C3469 H3476 0.961 . S
C3469 H3477 0.960 . S
C3470 C3468 1.381 . S
C3470 C3471 1.394 . S
C3470 H3478 0.930 . S
C3471 C3470 1.394 . S
C3471 C3472 1.383 . S
C3471 H3479 0.929 . S
C3472 C3471 1.383 . S
C3472 C3473 1.377 . S
C3473 H3457 0.930 . S
C3473 C3472 1.377 . S
C3473 C3474 1.379 . S
C3474 H3458 0.931 . S
C3474 C3468 1.383 . S
C3474 C3473 1.379 . S
H3475 C3469 0.959 . S
H3476 C3469 0.961 . S
H3477 C3469 0.960 . S
H3478 C3470 0.930 . S
H3479 C3471 0.929 . S
H3480 C3488 0.929 . S
H3481 C3490 0.930 . S
H3482 C3492 0.930 . S
H3483 C3495 0.929 . S
H3484 C3498 0.930 . S
H3485 C3500 0.960 . S
H3486 C3500 0.960 . S
H3487 C3500 0.960 . S
C3488 H3480 0.929 . S
C3488 C3489 1.377 . S
C3488 C3490 1.384 . S
C3489 C3488 1.377 . S
C3489 C3495 1.390 . S
C3490 H3481 0.930 . S
C3490 C3488 1.384 . S
C3490 C3491 1.372 . S
C3491 C3490 1.372 . S
C3491 C3492 1.400 . S
C3491 C3496 1.490 . S
C3492 H3482 0.930 . S
C3492 C3491 1.400 . S
C3492 C3495 1.386 . S
H3493 C3509 0.930 . S
H3494 C3510 0.931 . S
C3495 H3483 0.929 . S
C3495 C3489 1.390 . S
C3495 C3492 1.386 . S
C3496 C3491 1.490 . S
C3496 C3498 1.395 . S
C3496 C3499 1.403 . S
H3497 C3503 0.930 . S
C3498 H3484 0.930 . S
C3498 C3496 1.395 . S
C3498 C3501 1.403 1_556 S
C3499 C3496 1.403 . S
C3499 C3500 1.524 . S
C3499 C3503 1.400 1_556 S
C3500 H3485 0.960 . S
C3500 H3486 0.960 . S
C3500 H3487 0.960 . S
C3500 C3499 1.524 . S
C3501 C3498 1.403 1_554 S
C3501 C3502 1.392 . S
C3501 C3505 1.495 . S
C3502 C3501 1.392 . S
C3502 C3503 1.385 . S
C3502 C3504 1.478 . S
C3503 H3497 0.930 . S
C3503 C3499 1.400 1_554 S
C3503 C3502 1.385 . S
C3504 C3502 1.478 . S
C3504 C3506 1.381 . S
C3504 C3510 1.383 . S
C3505 C3501 1.495 . S
C3505 H3511 0.959 . S
C3505 H3512 0.961 . S
C3505 H3513 0.960 . S
C3506 C3504 1.381 . S
C3506 C3507 1.394 . S
C3506 H3514 0.930 . S
C3507 C3506 1.394 . S
C3507 C3508 1.383 . S
C3507 H3515 0.929 . S
C3508 C3507 1.383 . S
C3508 C3509 1.377 . S
C3509 H3493 0.930 . S
C3509 C3508 1.377 . S
C3509 C3510 1.379 . S
C3510 H3494 0.931 . S
C3510 C3504 1.383 . S
C3510 C3509 1.379 . S
H3511 C3505 0.959 . S
H3512 C3505 0.961 . S
H3513 C3505 0.960 . S
H3514 C3506 0.930 . S
H3515 C3507 0.929 . S
H3516 C3524 0.929 . S
H3517 C3526 0.930 . S
H3518 C3528 0.930 . S
H3519 C3531 0.929 . S
H3520 C3534 0.930 . S
H3521 C3536 0.960 . S
H3522 C3536 0.960 . S
H3523 C3536 0.960 . S
C3524 H3516 0.929 . S
C3524 C3525 1.377 . S
C3524 C3526 1.384 . S
C3525 C3524 1.377 . S
C3525 C3531 1.390 . S
C3526 H3517 0.930 . S
C3526 C3524 1.384 . S
C3526 C3527 1.372 . S
C3527 C3526 1.372 . S
C3527 C3528 1.400 . S
C3527 C3532 1.490 . S
C3528 H3518 0.930 . S
C3528 C3527 1.400 . S
C3528 C3531 1.386 . S
H3529 C3545 0.930 . S
H3530 C3546 0.931 . S
C3531 H3519 0.929 . S
C3531 C3525 1.390 . S
C3531 C3528 1.386 . S
C3532 C3527 1.490 . S
C3532 C3534 1.395 . S
C3532 C3535 1.403 . S
H3533 C3539 0.930 . S
C3534 H3520 0.930 . S
C3534 C3532 1.395 . S
C3534 C3537 1.403 1_554 S
C3535 C3532 1.403 . S
C3535 C3536 1.524 . S
C3535 C3539 1.400 1_554 S
C3536 H3521 0.960 . S
C3536 H3522 0.960 . S
C3536 H3523 0.960 . S
C3536 C3535 1.524 . S
C3537 C3534 1.403 1_556 S
C3537 C3538 1.392 . S
C3537 C3541 1.495 . S
C3538 C3537 1.392 . S
C3538 C3539 1.385 . S
C3538 C3540 1.478 . S
C3539 H3533 0.930 . S
C3539 C3535 1.400 1_556 S
C3539 C3538 1.385 . S
C3540 C3538 1.478 . S
C3540 C3542 1.381 . S
C3540 C3546 1.383 . S
C3541 C3537 1.495 . S
C3541 H3547 0.959 . S
C3541 H3548 0.961 . S
C3541 H3549 0.960 . S
C3542 C3540 1.381 . S
C3542 C3543 1.394 . S
C3542 H3550 0.930 . S
C3543 C3542 1.394 . S
C3543 C3544 1.383 . S
C3543 H3551 0.929 . S
C3544 C3543 1.383 . S
C3544 C3545 1.377 . S
C3545 H3529 0.930 . S
C3545 C3544 1.377 . S
C3545 C3546 1.379 . S
C3546 H3530 0.931 . S
C3546 C3540 1.383 . S
C3546 C3545 1.379 . S
H3547 C3541 0.959 . S
H3548 C3541 0.961 . S
H3549 C3541 0.960 . S
H3550 C3542 0.930 . S
H3551 C3543 0.929 . S
H3552 C3560 0.929 . S
H3553 C3562 0.930 . S
H3554 C3564 0.930 . S
H3555 C3567 0.929 . S
H3556 C3570 0.930 . S
H3557 C3572 0.960 . S
H3558 C3572 0.960 . S
H3559 C3572 0.960 . S
C3560 H3552 0.929 . S
C3560 C3561 1.377 . S
C3560 C3562 1.384 . S
C3561 C3560 1.377 . S
C3561 C3567 1.390 . S
C3562 H3553 0.930 . S
C3562 C3560 1.384 . S
C3562 C3563 1.372 . S
C3563 C3562 1.372 . S
C3563 C3564 1.400 . S
C3563 C3568 1.490 . S
C3564 H3554 0.930 . S
C3564 C3563 1.400 . S
C3564 C3567 1.386 . S
H3565 C3581 0.930 . S
H3566 C3582 0.931 . S
C3567 H3555 0.929 . S
C3567 C3561 1.390 . S
C3567 C3564 1.386 . S
C3568 C3563 1.490 . S
C3568 C3570 1.395 . S
C3568 C3571 1.403 . S
H3569 C3575 0.930 . S
C3570 H3556 0.930 . S
C3570 C3568 1.395 . S
C3570 C3573 1.403 1_455 S
C3571 C3568 1.403 . S
C3571 C3572 1.524 . S
C3571 C3575 1.400 1_455 S
C3572 H3557 0.960 . S
C3572 H3558 0.960 . S
C3572 H3559 0.960 . S
C3572 C3571 1.524 . S
C3573 C3570 1.403 1_655 S
C3573 C3574 1.392 . S
C3573 C3577 1.495 . S
C3574 C3573 1.392 . S
C3574 C3575 1.385 . S
C3574 C3576 1.478 . S
C3575 H3569 0.930 . S
C3575 C3571 1.400 1_655 S
C3575 C3574 1.385 . S
C3576 C3574 1.478 . S
C3576 C3578 1.381 . S
C3576 C3582 1.383 . S
C3577 C3573 1.495 . S
C3577 H3583 0.959 . S
C3577 H3584 0.961 . S
C3577 H3585 0.960 . S
C3578 C3576 1.381 . S
C3578 C3579 1.394 . S
C3578 H3586 0.930 . S
C3579 C3578 1.394 . S
C3579 C3580 1.383 . S
C3579 H3587 0.929 . S
C3580 C3579 1.383 . S
C3580 C3581 1.377 . S
C3581 H3565 0.930 . S
C3581 C3580 1.377 . S
C3581 C3582 1.379 . S
C3582 H3566 0.931 . S
C3582 C3576 1.383 . S
C3582 C3581 1.379 . S
H3583 C3577 0.959 . S
H3584 C3577 0.961 . S
H3585 C3577 0.960 . S
H3586 C3578 0.930 . S
H3587 C3579 0.929 . S
H3588 C3596 0.929 . S
H3589 C3598 0.930 . S
H3590 C3600 0.930 . S
H3591 C3603 0.929 . S
H3592 C3606 0.930 . S
H3593 C3608 0.960 . S
H3594 C3608 0.960 . S
H3595 C3608 0.960 . S
C3596 H3588 0.929 . S
C3596 C3597 1.377 . S
C3596 C3598 1.384 . S
C3597 C3596 1.377 . S
C3597 C3603 1.390 . S
C3598 H3589 0.930 . S
C3598 C3596 1.384 . S
C3598 C3599 1.372 . S
C3599 C3598 1.372 . S
C3599 C3600 1.400 . S
C3599 C3604 1.490 . S
C3600 H3590 0.930 . S
C3600 C3599 1.400 . S
C3600 C3603 1.386 . S
H3601 C3617 0.930 . S
H3602 C3618 0.931 . S
C3603 H3591 0.929 . S
C3603 C3597 1.390 . S
C3603 C3600 1.386 . S
C3604 C3599 1.490 . S
C3604 C3606 1.395 . S
C3604 C3607 1.403 . S
H3605 C3611 0.930 . S
C3606 H3592 0.930 . S
C3606 C3604 1.395 . S
C3606 C3609 1.403 1_565 S
C3607 C3604 1.403 . S
C3607 C3608 1.524 . S
C3607 C3611 1.400 1_565 S
C3608 H3593 0.960 . S
C3608 H3594 0.960 . S
C3608 H3595 0.960 . S
C3608 C3607 1.524 . S
C3609 C3606 1.403 1_545 S
C3609 C3610 1.392 . S
C3609 C3613 1.495 . S
C3610 C3609 1.392 . S
C3610 C3611 1.385 . S
C3610 C3612 1.478 . S
C3611 H3605 0.930 . S
C3611 C3607 1.400 1_545 S
C3611 C3610 1.385 . S
C3612 C3610 1.478 . S
C3612 C3614 1.381 . S
C3612 C3618 1.383 . S
C3613 C3609 1.495 . S
C3613 H3619 0.959 . S
C3613 H3620 0.961 . S
C3613 H3621 0.960 . S
C3614 C3612 1.381 . S
C3614 C3615 1.394 . S
C3614 H3622 0.930 . S
C3615 C3614 1.394 . S
C3615 C3616 1.383 . S
C3615 H3623 0.929 . S
C3616 C3615 1.383 . S
C3616 C3617 1.377 . S
C3617 H3601 0.930 . S
C3617 C3616 1.377 . S
C3617 C3618 1.379 . S
C3618 H3602 0.931 . S
C3618 C3612 1.383 . S
C3618 C3617 1.379 . S
H3619 C3613 0.959 . S
H3620 C3613 0.961 . S
H3621 C3613 0.960 . S
H3622 C3614 0.930 . S
H3623 C3615 0.929 . S
H3624 C3632 0.929 . S
H3625 C3634 0.930 . S
H3626 C3636 0.930 . S
H3627 C3639 0.929 . S
H3628 C3642 0.930 . S
H3629 C3644 0.960 . S
H3630 C3644 0.960 . S
H3631 C3644 0.960 . S
C3632 H3624 0.929 . S
C3632 C3633 1.377 . S
C3632 C3634 1.384 . S
C3633 C3632 1.377 . S
C3633 C3639 1.390 . S
C3634 H3625 0.930 . S
C3634 C3632 1.384 . S
C3634 C3635 1.372 . S
C3635 C3634 1.372 . S
C3635 C3636 1.400 . S
C3635 C3640 1.490 . S
C3636 H3626 0.930 . S
C3636 C3635 1.400 . S
C3636 C3639 1.386 . S
H3637 C3653 0.930 . S
H3638 C3654 0.931 . S
C3639 H3627 0.929 . S
C3639 C3633 1.390 . S
C3639 C3636 1.386 . S
C3640 C3635 1.490 . S
C3640 C3642 1.395 . S
C3640 C3643 1.403 . S
H3641 C3647 0.930 . S
C3642 H3628 0.930 . S
C3642 C3640 1.395 . S
C3642 C3645 1.403 1_455 S
C3643 C3640 1.403 . S
C3643 C3644 1.524 . S
C3643 C3647 1.400 1_455 S
C3644 H3629 0.960 . S
C3644 H3630 0.960 . S
C3644 H3631 0.960 . S
C3644 C3643 1.524 . S
C3645 C3642 1.403 1_655 S
C3645 C3646 1.392 . S
C3645 C3649 1.495 . S
C3646 C3645 1.392 . S
C3646 C3647 1.385 . S
C3646 C3648 1.478 . S
C3647 H3641 0.930 . S
C3647 C3643 1.400 1_655 S
C3647 C3646 1.385 . S
C3648 C3646 1.478 . S
C3648 C3650 1.381 . S
C3648 C3654 1.383 . S
C3649 C3645 1.495 . S
C3649 H3655 0.959 . S
C3649 H3656 0.961 . S
C3649 H3657 0.960 . S
C3650 C3648 1.381 . S
C3650 C3651 1.394 . S
C3650 H3658 0.930 . S
C3651 C3650 1.394 . S
C3651 C3652 1.383 . S
C3651 H3659 0.929 . S
C3652 C3651 1.383 . S
C3652 C3653 1.377 . S
C3653 H3637 0.930 . S
C3653 C3652 1.377 . S
C3653 C3654 1.379 . S
C3654 H3638 0.931 . S
C3654 C3648 1.383 . S
C3654 C3653 1.379 . S
H3655 C3649 0.959 . S
H3656 C3649 0.961 . S
H3657 C3649 0.960 . S
H3658 C3650 0.930 . S
H3659 C3651 0.929 . S
H3660 C3668 0.929 . S
H3661 C3670 0.930 . S
H3662 C3672 0.930 . S
H3663 C3675 0.929 . S
H3664 C3678 0.930 . S
H3665 C3680 0.960 . S
H3666 C3680 0.960 . S
H3667 C3680 0.960 . S
C3668 H3660 0.929 . S
C3668 C3669 1.377 . S
C3668 C3670 1.384 . S
C3669 C3668 1.377 . S
C3669 C3675 1.390 . S
C3670 H3661 0.930 . S
C3670 C3668 1.384 . S
C3670 C3671 1.372 . S
C3671 C3670 1.372 . S
C3671 C3672 1.400 . S
C3671 C3676 1.490 . S
C3672 H3662 0.930 . S
C3672 C3671 1.400 . S
C3672 C3675 1.386 . S
H3673 C3689 0.930 . S
H3674 C3690 0.931 . S
C3675 H3663 0.929 . S
C3675 C3669 1.390 . S
C3675 C3672 1.386 . S
C3676 C3671 1.490 . S
C3676 C3678 1.395 . S
C3676 C3679 1.403 . S
H3677 C3683 0.930 . S
C3678 H3664 0.930 . S
C3678 C3676 1.395 . S
C3678 C3681 1.403 1_565 S
C3679 C3676 1.403 . S
C3679 C3680 1.524 . S
C3679 C3683 1.400 1_565 S
C3680 H3665 0.960 . S
C3680 H3666 0.960 . S
C3680 H3667 0.960 . S
C3680 C3679 1.524 . S
C3681 C3678 1.403 1_545 S
C3681 C3682 1.392 . S
C3681 C3685 1.495 . S
C3682 C3681 1.392 . S
C3682 C3683 1.385 . S
C3682 C3684 1.478 . S
C3683 H3677 0.930 . S
C3683 C3679 1.400 1_545 S
C3683 C3682 1.385 . S
C3684 C3682 1.478 . S
C3684 C3686 1.381 . S
C3684 C3690 1.383 . S
C3685 C3681 1.495 . S
C3685 H3691 0.959 . S
C3685 H3692 0.961 . S
C3685 H3693 0.960 . S
C3686 C3684 1.381 . S
C3686 C3687 1.394 . S
C3686 H3694 0.930 . S
C3687 C3686 1.394 . S
C3687 C3688 1.383 . S
C3687 H3695 0.929 . S
C3688 C3687 1.383 . S
C3688 C3689 1.377 . S
C3689 H3673 0.930 . S
C3689 C3688 1.377 . S
C3689 C3690 1.379 . S
C3690 H3674 0.931 . S
C3690 C3684 1.383 . S
C3690 C3689 1.379 . S
H3691 C3685 0.959 . S
H3692 C3685 0.961 . S
H3693 C3685 0.960 . S
H3694 C3686 0.930 . S
H3695 C3687 0.929 . S
H3696 C3704 0.929 . S
H3697 C3706 0.930 . S
H3698 C3708 0.930 . S
H3699 C3711 0.929 . S
H3700 C3714 0.930 . S
H3701 C3716 0.960 . S
H3702 C3716 0.960 . S
H3703 C3716 0.960 . S
C3704 H3696 0.929 . S
C3704 C3705 1.377 . S
C3704 C3706 1.384 . S
C3705 C3704 1.377 . S
C3705 C3711 1.390 . S
C3706 H3697 0.930 . S
C3706 C3704 1.384 . S
C3706 C3707 1.372 . S
C3707 C3706 1.372 . S
C3707 C3708 1.400 . S
C3707 C3712 1.490 . S
C3708 H3698 0.930 . S
C3708 C3707 1.400 . S
C3708 C3711 1.386 . S
H3709 C3725 0.930 . S
H3710 C3726 0.931 . S
C3711 H3699 0.929 . S
C3711 C3705 1.390 . S
C3711 C3708 1.386 . S
C3712 C3707 1.490 . S
C3712 C3714 1.395 . S
C3712 C3715 1.403 . S
H3713 C3719 0.930 . S
C3714 H3700 0.930 . S
C3714 C3712 1.395 . S
C3714 C3717 1.403 1_655 S
C3715 C3712 1.403 . S
C3715 C3716 1.524 . S
C3715 C3719 1.400 1_655 S
C3716 H3701 0.960 . S
C3716 H3702 0.960 . S
C3716 H3703 0.960 . S
C3716 C3715 1.524 . S
C3717 C3714 1.403 1_455 S
C3717 C3718 1.392 . S
C3717 C3721 1.495 . S
C3718 C3717 1.392 . S
C3718 C3719 1.385 . S
C3718 C3720 1.478 . S
C3719 H3713 0.930 . S
C3719 C3715 1.400 1_455 S
C3719 C3718 1.385 . S
C3720 C3718 1.478 . S
C3720 C3722 1.381 . S
C3720 C3726 1.383 . S
C3721 C3717 1.495 . S
C3721 H3727 0.959 . S
C3721 H3728 0.961 . S
C3721 H3729 0.960 . S
C3722 C3720 1.381 . S
C3722 C3723 1.394 . S
C3722 H3730 0.930 . S
C3723 C3722 1.394 . S
C3723 C3724 1.383 . S
C3723 H3731 0.929 . S
C3724 C3723 1.383 . S
C3724 C3725 1.377 . S
C3725 H3709 0.930 . S
C3725 C3724 1.377 . S
C3725 C3726 1.379 . S
C3726 H3710 0.931 . S
C3726 C3720 1.383 . S
C3726 C3725 1.379 . S
H3727 C3721 0.959 . S
H3728 C3721 0.961 . S
H3729 C3721 0.960 . S
H3730 C3722 0.930 . S
H3731 C3723 0.929 . S
H3732 C3740 0.929 . S
H3733 C3742 0.930 . S
H3734 C3744 0.930 . S
H3735 C3747 0.929 . S
H3736 C3750 0.930 . S
H3737 C3752 0.960 . S
H3738 C3752 0.960 . S
H3739 C3752 0.960 . S
C3740 H3732 0.929 . S
C3740 C3741 1.377 . S
C3740 C3742 1.384 . S
C3741 C3740 1.377 . S
C3741 C3747 1.390 . S
C3742 H3733 0.930 . S
C3742 C3740 1.384 . S
C3742 C3743 1.372 . S
C3743 C3742 1.372 . S
C3743 C3744 1.400 . S
C3743 C3748 1.490 . S
C3744 H3734 0.930 . S
C3744 C3743 1.400 . S
C3744 C3747 1.386 . S
H3745 C3761 0.930 . S
H3746 C3762 0.931 . S
C3747 H3735 0.929 . S
C3747 C3741 1.390 . S
C3747 C3744 1.386 . S
C3748 C3743 1.490 . S
C3748 C3750 1.395 . S
C3748 C3751 1.403 . S
H3749 C3755 0.930 . S
C3750 H3736 0.930 . S
C3750 C3748 1.395 . S
C3750 C3753 1.403 1_545 S
C3751 C3748 1.403 . S
C3751 C3752 1.524 . S
C3751 C3755 1.400 1_545 S
C3752 H3737 0.960 . S
C3752 H3738 0.960 . S
C3752 H3739 0.960 . S
C3752 C3751 1.524 . S
C3753 C3750 1.403 1_565 S
C3753 C3754 1.392 . S
C3753 C3757 1.495 . S
C3754 C3753 1.392 . S
C3754 C3755 1.385 . S
C3754 C3756 1.478 . S
C3755 H3749 0.930 . S
C3755 C3751 1.400 1_565 S
C3755 C3754 1.385 . S
C3756 C3754 1.478 . S
C3756 C3758 1.381 . S
C3756 C3762 1.383 . S
C3757 C3753 1.495 . S
C3757 H3763 0.959 . S
C3757 H3764 0.961 . S
C3757 H3765 0.960 . S
C3758 C3756 1.381 . S
C3758 C3759 1.394 . S
C3758 H3766 0.930 . S
C3759 C3758 1.394 . S
C3759 C3760 1.383 . S
C3759 H3767 0.929 . S
C3760 C3759 1.383 . S
C3760 C3761 1.377 . S
C3761 H3745 0.930 . S
C3761 C3760 1.377 . S
C3761 C3762 1.379 . S
C3762 H3746 0.931 . S
C3762 C3756 1.383 . S
C3762 C3761 1.379 . S
H3763 C3757 0.959 . S
H3764 C3757 0.961 . S
H3765 C3757 0.960 . S
H3766 C3758 0.930 . S
H3767 C3759 0.929 . S
H3768 C3776 0.929 . S
H3769 C3778 0.930 . S
H3770 C3780 0.930 . S
H3771 C3783 0.929 . S
H3772 C3786 0.930 . S
H3773 C3788 0.960 . S
H3774 C3788 0.960 . S
H3775 C3788 0.960 . S
C3776 H3768 0.929 . S
C3776 C3777 1.377 . S
C3776 C3778 1.384 . S
C3777 C3776 1.377 . S
C3777 C3783 1.390 . S
C3778 H3769 0.930 . S
C3778 C3776 1.384 . S
C3778 C3779 1.372 . S
C3779 C3778 1.372 . S
C3779 C3780 1.400 . S
C3779 C3784 1.490 . S
C3780 H3770 0.930 . S
C3780 C3779 1.400 . S
C3780 C3783 1.386 . S
H3781 C3797 0.930 . S
H3782 C3798 0.931 . S
C3783 H3771 0.929 . S
C3783 C3777 1.390 . S
C3783 C3780 1.386 . S
C3784 C3779 1.490 . S
C3784 C3786 1.395 . S
C3784 C3787 1.403 . S
H3785 C3791 0.930 . S
C3786 H3772 0.930 . S
C3786 C3784 1.395 . S
C3786 C3789 1.403 1_455 S
C3787 C3784 1.403 . S
C3787 C3788 1.524 . S
C3787 C3791 1.400 1_455 S
C3788 H3773 0.960 . S
C3788 H3774 0.960 . S
C3788 H3775 0.960 . S
C3788 C3787 1.524 . S
C3789 C3786 1.403 1_655 S
C3789 C3790 1.392 . S
C3789 C3793 1.495 . S
C3790 C3789 1.392 . S
C3790 C3791 1.385 . S
C3790 C3792 1.478 . S
C3791 H3785 0.930 . S
C3791 C3787 1.400 1_655 S
C3791 C3790 1.385 . S
C3792 C3790 1.478 . S
C3792 C3794 1.381 . S
C3792 C3798 1.383 . S
C3793 C3789 1.495 . S
C3793 H3799 0.959 . S
C3793 H3800 0.961 . S
C3793 H3801 0.960 . S
C3794 C3792 1.381 . S
C3794 C3795 1.394 . S
C3794 H3802 0.930 . S
C3795 C3794 1.394 . S
C3795 C3796 1.383 . S
C3795 H3803 0.929 . S
C3796 C3795 1.383 . S
C3796 C3797 1.377 . S
C3797 H3781 0.930 . S
C3797 C3796 1.377 . S
C3797 C3798 1.379 . S
C3798 H3782 0.931 . S
C3798 C3792 1.383 . S
C3798 C3797 1.379 . S
H3799 C3793 0.959 . S
H3800 C3793 0.961 . S
H3801 C3793 0.960 . S
H3802 C3794 0.930 . S
H3803 C3795 0.929 . S
H3804 C3812 0.929 . S
H3805 C3814 0.930 . S
H3806 C3816 0.930 . S
H3807 C3819 0.929 . S
H3808 C3822 0.930 . S
H3809 C3824 0.960 . S
H3810 C3824 0.960 . S
H3811 C3824 0.960 . S
C3812 H3804 0.929 . S
C3812 C3813 1.377 . S
C3812 C3814 1.384 . S
C3813 C3812 1.377 . S
C3813 C3819 1.390 . S
C3814 H3805 0.930 . S
C3814 C3812 1.384 . S
C3814 C3815 1.372 . S
C3815 C3814 1.372 . S
C3815 C3816 1.400 . S
C3815 C3820 1.490 . S
C3816 H3806 0.930 . S
C3816 C3815 1.400 . S
C3816 C3819 1.386 . S
H3817 C3833 0.930 . S
H3818 C3834 0.931 . S
C3819 H3807 0.929 . S
C3819 C3813 1.390 . S
C3819 C3816 1.386 . S
C3820 C3815 1.490 . S
C3820 C3822 1.395 . S
C3820 C3823 1.403 . S
H3821 C3827 0.930 . S
C3822 H3808 0.930 . S
C3822 C3820 1.395 . S
C3822 C3825 1.403 1_545 S
C3823 C3820 1.403 . S
C3823 C3824 1.524 . S
C3823 C3827 1.400 1_545 S
C3824 H3809 0.960 . S
C3824 H3810 0.960 . S
C3824 H3811 0.960 . S
C3824 C3823 1.524 . S
C3825 C3822 1.403 1_565 S
C3825 C3826 1.392 . S
C3825 C3829 1.495 . S
C3826 C3825 1.392 . S
C3826 C3827 1.385 . S
C3826 C3828 1.478 . S
C3827 H3821 0.930 . S
C3827 C3823 1.400 1_565 S
C3827 C3826 1.385 . S
C3828 C3826 1.478 . S
C3828 C3830 1.381 . S
C3828 C3834 1.383 . S
C3829 C3825 1.495 . S
C3829 H3835 0.959 . S
C3829 H3836 0.961 . S
C3829 H3837 0.960 . S
C3830 C3828 1.381 . S
C3830 C3831 1.394 . S
C3830 H3838 0.930 . S
C3831 C3830 1.394 . S
C3831 C3832 1.383 . S
C3831 H3839 0.929 . S
C3832 C3831 1.383 . S
C3832 C3833 1.377 . S
C3833 H3817 0.930 . S
C3833 C3832 1.377 . S
C3833 C3834 1.379 . S
C3834 H3818 0.931 . S
C3834 C3828 1.383 . S
C3834 C3833 1.379 . S
H3835 C3829 0.959 . S
H3836 C3829 0.961 . S
H3837 C3829 0.960 . S
H3838 C3830 0.930 . S
H3839 C3831 0.929 . S
H3840 C3848 0.929 . S
H3841 C3850 0.930 . S
H3842 C3852 0.930 . S
H3843 C3855 0.929 . S
H3844 C3858 0.930 . S
H3845 C3860 0.960 . S
H3846 C3860 0.960 . S
H3847 C3860 0.960 . S
C3848 H3840 0.929 . S
C3848 C3849 1.377 . S
C3848 C3850 1.384 . S
C3849 C3848 1.377 . S
C3849 C3855 1.390 . S
C3850 H3841 0.930 . S
C3850 C3848 1.384 . S
C3850 C3851 1.372 . S
C3851 C3850 1.372 . S
C3851 C3852 1.400 . S
C3851 C3856 1.490 . S
C3852 H3842 0.930 . S
C3852 C3851 1.400 . S
C3852 C3855 1.386 . S
H3853 C3869 0.930 . S
H3854 C3870 0.931 . S
C3855 H3843 0.929 . S
C3855 C3849 1.390 . S
C3855 C3852 1.386 . S
C3856 C3851 1.490 . S
C3856 C3858 1.395 . S
C3856 C3859 1.403 . S
H3857 C3863 0.930 . S
C3858 H3844 0.930 . S
C3858 C3856 1.395 . S
C3858 C3861 1.403 1_545 S
C3859 C3856 1.403 . S
C3859 C3860 1.524 . S
C3859 C3863 1.400 1_545 S
C3860 H3845 0.960 . S
C3860 H3846 0.960 . S
C3860 H3847 0.960 . S
C3860 C3859 1.524 . S
C3861 C3858 1.403 1_565 S
C3861 C3862 1.392 . S
C3861 C3865 1.495 . S
C3862 C3861 1.392 . S
C3862 C3863 1.385 . S
C3862 C3864 1.478 . S
C3863 H3857 0.930 . S
C3863 C3859 1.400 1_565 S
C3863 C3862 1.385 . S
C3864 C3862 1.478 . S
C3864 C3866 1.381 . S
C3864 C3870 1.383 . S
C3865 C3861 1.495 . S
C3865 H3871 0.959 . S
C3865 H3872 0.961 . S
C3865 H3873 0.960 . S
C3866 C3864 1.381 . S
C3866 C3867 1.394 . S
C3866 H3874 0.930 . S
C3867 C3866 1.394 . S
C3867 C3868 1.383 . S
C3867 H3875 0.929 . S
C3868 C3867 1.383 . S
C3868 C3869 1.377 . S
C3869 H3853 0.930 . S
C3869 C3868 1.377 . S
C3869 C3870 1.379 . S
C3870 H3854 0.931 . S
C3870 C3864 1.383 . S
C3870 C3869 1.379 . S
H3871 C3865 0.959 . S
H3872 C3865 0.961 . S
H3873 C3865 0.960 . S
H3874 C3866 0.930 . S
H3875 C3867 0.929 . S
H3876 C3884 0.929 . S
H3877 C3886 0.930 . S
H3878 C3888 0.930 . S
H3879 C3891 0.929 . S
H3880 C3894 0.930 . S
H3881 C3896 0.960 . S
H3882 C3896 0.960 . S
H3883 C3896 0.960 . S
C3884 H3876 0.929 . S
C3884 C3885 1.377 . S
C3884 C3886 1.384 . S
C3885 C3884 1.377 . S
C3885 C3891 1.390 . S
C3886 H3877 0.930 . S
C3886 C3884 1.384 . S
C3886 C3887 1.372 . S
C3887 C3886 1.372 . S
C3887 C3888 1.400 . S
C3887 C3892 1.490 . S
C3888 H3878 0.930 . S
C3888 C3887 1.400 . S
C3888 C3891 1.386 . S
H3889 C3905 0.930 . S
H3890 C3906 0.931 . S
C3891 H3879 0.929 . S
C3891 C3885 1.390 . S
C3891 C3888 1.386 . S
C3892 C3887 1.490 . S
C3892 C3894 1.395 . S
C3892 C3895 1.403 . S
H3893 C3899 0.930 . S
C3894 H3880 0.930 . S
C3894 C3892 1.395 . S
C3894 C3897 1.403 1_545 S
C3895 C3892 1.403 . S
C3895 C3896 1.524 . S
C3895 C3899 1.400 1_545 S
C3896 H3881 0.960 . S
C3896 H3882 0.960 . S
C3896 H3883 0.960 . S
C3896 C3895 1.524 . S
C3897 C3894 1.403 1_565 S
C3897 C3898 1.392 . S
C3897 C3901 1.495 . S
C3898 C3897 1.392 . S
C3898 C3899 1.385 . S
C3898 C3900 1.478 . S
C3899 H3893 0.930 . S
C3899 C3895 1.400 1_565 S
C3899 C3898 1.385 . S
C3900 C3898 1.478 . S
C3900 C3902 1.381 . S
C3900 C3906 1.383 . S
C3901 C3897 1.495 . S
C3901 H3907 0.959 . S
C3901 H3908 0.961 . S
C3901 H3909 0.960 . S
C3902 C3900 1.381 . S
C3902 C3903 1.394 . S
C3902 H3910 0.930 . S
C3903 C3902 1.394 . S
C3903 C3904 1.383 . S
C3903 H3911 0.929 . S
C3904 C3903 1.383 . S
C3904 C3905 1.377 . S
C3905 H3889 0.930 . S
C3905 C3904 1.377 . S
C3905 C3906 1.379 . S
C3906 H3890 0.931 . S
C3906 C3900 1.383 . S
C3906 C3905 1.379 . S
H3907 C3901 0.959 . S
H3908 C3901 0.961 . S
H3909 C3901 0.960 . S
H3910 C3902 0.930 . S
H3911 C3903 0.929 . S
H3912 C3920 0.929 . S
H3913 C3922 0.930 . S
H3914 C3924 0.930 . S
H3915 C3927 0.929 . S
H3916 C3930 0.930 . S
H3917 C3932 0.960 . S
H3918 C3932 0.960 . S
H3919 C3932 0.960 . S
C3920 H3912 0.929 . S
C3920 C3921 1.377 . S
C3920 C3922 1.384 . S
C3921 C3920 1.377 . S
C3921 C3927 1.390 . S
C3922 H3913 0.930 . S
C3922 C3920 1.384 . S
C3922 C3923 1.372 . S
C3923 C3922 1.372 . S
C3923 C3924 1.400 . S
C3923 C3928 1.490 . S
C3924 H3914 0.930 . S
C3924 C3923 1.400 . S
C3924 C3927 1.386 . S
H3925 C3941 0.930 . S
H3926 C3942 0.931 . S
C3927 H3915 0.929 . S
C3927 C3921 1.390 . S
C3927 C3924 1.386 . S
C3928 C3923 1.490 . S
C3928 C3930 1.395 . S
C3928 C3931 1.403 . S
H3929 C3935 0.930 . S
C3930 H3916 0.930 . S
C3930 C3928 1.395 . S
C3930 C3933 1.403 1_655 S
C3931 C3928 1.403 . S
C3931 C3932 1.524 . S
C3931 C3935 1.400 1_655 S
C3932 H3917 0.960 . S
C3932 H3918 0.960 . S
C3932 H3919 0.960 . S
C3932 C3931 1.524 . S
C3933 C3930 1.403 1_455 S
C3933 C3934 1.392 . S
C3933 C3937 1.495 . S
C3934 C3933 1.392 . S
C3934 C3935 1.385 . S
C3934 C3936 1.478 . S
C3935 H3929 0.930 . S
C3935 C3931 1.400 1_455 S
C3935 C3934 1.385 . S
C3936 C3934 1.478 . S
C3936 C3938 1.381 . S
C3936 C3942 1.383 . S
C3937 C3933 1.495 . S
C3937 H3943 0.959 . S
C3937 H3944 0.961 . S
C3937 H3945 0.960 . S
C3938 C3936 1.381 . S
C3938 C3939 1.394 . S
C3938 H3946 0.930 . S
C3939 C3938 1.394 . S
C3939 C3940 1.383 . S
C3939 H3947 0.929 . S
C3940 C3939 1.383 . S
C3940 C3941 1.377 . S
C3941 H3925 0.930 . S
C3941 C3940 1.377 . S
C3941 C3942 1.379 . S
C3942 H3926 0.931 . S
C3942 C3936 1.383 . S
C3942 C3941 1.379 . S
H3943 C3937 0.959 . S
H3944 C3937 0.961 . S
H3945 C3937 0.960 . S
H3946 C3938 0.930 . S
H3947 C3939 0.929 . S
H3948 C3956 0.929 . S
H3949 C3958 0.930 . S
H3950 C3960 0.930 . S
H3951 C3963 0.929 . S
H3952 C3966 0.930 . S
H3953 C3968 0.960 . S
H3954 C3968 0.960 . S
H3955 C3968 0.960 . S
C3956 H3948 0.929 . S
C3956 C3957 1.377 . S
C3956 C3958 1.384 . S
C3957 C3956 1.377 . S
C3957 C3963 1.390 . S
C3958 H3949 0.930 . S
C3958 C3956 1.384 . S
C3958 C3959 1.372 . S
C3959 C3958 1.372 . S
C3959 C3960 1.400 . S
C3959 C3964 1.490 . S
C3960 H3950 0.930 . S
C3960 C3959 1.400 . S
C3960 C3963 1.386 . S
H3961 C3977 0.930 . S
H3962 C3978 0.931 . S
C3963 H3951 0.929 . S
C3963 C3957 1.390 . S
C3963 C3960 1.386 . S
C3964 C3959 1.490 . S
C3964 C3966 1.395 . S
C3964 C3967 1.403 . S
H3965 C3971 0.930 . S
C3966 H3952 0.930 . S
C3966 C3964 1.395 . S
C3966 C3969 1.403 1_545 S
C3967 C3964 1.403 . S
C3967 C3968 1.524 . S
C3967 C3971 1.400 1_545 S
C3968 H3953 0.960 . S
C3968 H3954 0.960 . S
C3968 H3955 0.960 . S
C3968 C3967 1.524 . S
C3969 C3966 1.403 1_565 S
C3969 C3970 1.392 . S
C3969 C3973 1.495 . S
C3970 C3969 1.392 . S
C3970 C3971 1.385 . S
C3970 C3972 1.478 . S
C3971 H3965 0.930 . S
C3971 C3967 1.400 1_565 S
C3971 C3970 1.385 . S
C3972 C3970 1.478 . S
C3972 C3974 1.381 . S
C3972 C3978 1.383 . S
C3973 C3969 1.495 . S
C3973 H3979 0.959 . S
C3973 H3980 0.961 . S
C3973 H3981 0.960 . S
C3974 C3972 1.381 . S
C3974 C3975 1.394 . S
C3974 H3982 0.930 . S
C3975 C3974 1.394 . S
C3975 C3976 1.383 . S
C3975 H3983 0.929 . S
C3976 C3975 1.383 . S
C3976 C3977 1.377 . S
C3977 H3961 0.930 . S
C3977 C3976 1.377 . S
C3977 C3978 1.379 . S
C3978 H3962 0.931 . S
C3978 C3972 1.383 . S
C3978 C3977 1.379 . S
H3979 C3973 0.959 . S
H3980 C3973 0.961 . S
H3981 C3973 0.960 . S
H3982 C3974 0.930 . S
H3983 C3975 0.929 . S
H3984 C3992 0.929 . S
H3985 C3994 0.930 . S
H3986 C3996 0.930 . S
H3987 C3999 0.929 . S
H3988 C4002 0.930 . S
H3989 C4004 0.960 . S
H3990 C4004 0.960 . S
H3991 C4004 0.960 . S
C3992 H3984 0.929 . S
C3992 C3993 1.377 . S
C3992 C3994 1.384 . S
C3993 C3992 1.377 . S
C3993 C3999 1.390 . S
C3994 H3985 0.930 . S
C3994 C3992 1.384 . S
C3994 C3995 1.372 . S
C3995 C3994 1.372 . S
C3995 C3996 1.400 . S
C3995 C4000 1.490 . S
C3996 H3986 0.930 . S
C3996 C3995 1.400 . S
C3996 C3999 1.386 . S
H3997 C4013 0.930 . S
H3998 C4014 0.931 . S
C3999 H3987 0.929 . S
C3999 C3993 1.390 . S
C3999 C3996 1.386 . S
C4000 C3995 1.490 . S
C4000 C4002 1.395 . S
C4000 C4003 1.403 . S
H4001 C4007 0.930 . S
C4002 H3988 0.930 . S
C4002 C4000 1.395 . S
C4002 C4005 1.403 1_455 S
C4003 C4000 1.403 . S
C4003 C4004 1.524 . S
C4003 C4007 1.400 1_455 S
C4004 H3989 0.960 . S
C4004 H3990 0.960 . S
C4004 H3991 0.960 . S
C4004 C4003 1.524 . S
C4005 C4002 1.403 1_655 S
C4005 C4006 1.392 . S
C4005 C4009 1.495 . S
C4006 C4005 1.392 . S
C4006 C4007 1.385 . S
C4006 C4008 1.478 . S
C4007 H4001 0.930 . S
C4007 C4003 1.400 1_655 S
C4007 C4006 1.385 . S
C4008 C4006 1.478 . S
C4008 C4010 1.381 . S
C4008 C4014 1.383 . S
C4009 C4005 1.495 . S
C4009 H4015 0.959 . S
C4009 H4016 0.961 . S
C4009 H4017 0.960 . S
C4010 C4008 1.381 . S
C4010 C4011 1.394 . S
C4010 H4018 0.930 . S
C4011 C4010 1.394 . S
C4011 C4012 1.383 . S
C4011 H4019 0.929 . S
C4012 C4011 1.383 . S
C4012 C4013 1.377 . S
C4013 H3997 0.930 . S
C4013 C4012 1.377 . S
C4013 C4014 1.379 . S
C4014 H3998 0.931 . S
C4014 C4008 1.383 . S
C4014 C4013 1.379 . S
H4015 C4009 0.959 . S
H4016 C4009 0.961 . S
H4017 C4009 0.960 . S
H4018 C4010 0.930 . S
H4019 C4011 0.929 . S
H4020 C4028 0.929 . S
H4021 C4030 0.930 . S
H4022 C4032 0.930 . S
H4023 C4035 0.929 . S
H4024 C4038 0.930 . S
H4025 C4040 0.960 . S
H4026 C4040 0.960 . S
H4027 C4040 0.960 . S
C4028 H4020 0.929 . S
C4028 C4029 1.377 . S
C4028 C4030 1.384 . S
C4029 C4028 1.377 . S
C4029 C4035 1.390 . S
C4030 H4021 0.930 . S
C4030 C4028 1.384 . S
C4030 C4031 1.372 . S
C4031 C4030 1.372 . S
C4031 C4032 1.400 . S
C4031 C4036 1.490 . S
C4032 H4022 0.930 . S
C4032 C4031 1.400 . S
C4032 C4035 1.386 . S
H4033 C4049 0.930 . S
H4034 C4050 0.931 . S
C4035 H4023 0.929 . S
C4035 C4029 1.390 . S
C4035 C4032 1.386 . S
C4036 C4031 1.490 . S
C4036 C4038 1.395 . S
C4036 C4039 1.403 . S
H4037 C4043 0.930 . S
C4038 H4024 0.930 . S
C4038 C4036 1.395 . S
C4038 C4041 1.403 1_545 S
C4039 C4036 1.403 . S
C4039 C4040 1.524 . S
C4039 C4043 1.400 1_545 S
C4040 H4025 0.960 . S
C4040 H4026 0.960 . S
C4040 H4027 0.960 . S
C4040 C4039 1.524 . S
C4041 C4038 1.403 1_565 S
C4041 C4042 1.392 . S
C4041 C4045 1.495 . S
C4042 C4041 1.392 . S
C4042 C4043 1.385 . S
C4042 C4044 1.478 . S
C4043 H4037 0.930 . S
C4043 C4039 1.400 1_565 S
C4043 C4042 1.385 . S
C4044 C4042 1.478 . S
C4044 C4046 1.381 . S
C4044 C4050 1.383 . S
C4045 C4041 1.495 . S
C4045 H4051 0.959 . S
C4045 H4052 0.961 . S
C4045 H4053 0.960 . S
C4046 C4044 1.381 . S
C4046 C4047 1.394 . S
C4046 H4054 0.930 . S
C4047 C4046 1.394 . S
C4047 C4048 1.383 . S
C4047 H4055 0.929 . S
C4048 C4047 1.383 . S
C4048 C4049 1.377 . S
C4049 H4033 0.930 . S
C4049 C4048 1.377 . S
C4049 C4050 1.379 . S
C4050 H4034 0.931 . S
C4050 C4044 1.383 . S
C4050 C4049 1.379 . S
H4051 C4045 0.959 . S
H4052 C4045 0.961 . S
H4053 C4045 0.960 . S
H4054 C4046 0.930 . S
H4055 C4047 0.929 . S
H4056 C4064 0.929 . S
H4057 C4066 0.930 . S
H4058 C4068 0.930 . S
H4059 C4071 0.929 . S
H4060 C4074 0.930 . S
H4061 C4076 0.960 . S
H4062 C4076 0.960 . S
H4063 C4076 0.960 . S
C4064 H4056 0.929 . S
C4064 C4065 1.377 . S
C4064 C4066 1.384 . S
C4065 C4064 1.377 . S
C4065 C4071 1.390 . S
C4066 H4057 0.930 . S
C4066 C4064 1.384 . S
C4066 C4067 1.372 . S
C4067 C4066 1.372 . S
C4067 C4068 1.400 . S
C4067 C4072 1.490 . S
C4068 H4058 0.930 . S
C4068 C4067 1.400 . S
C4068 C4071 1.386 . S
H4069 C4085 0.930 . S
H4070 C4086 0.931 . S
C4071 H4059 0.929 . S
C4071 C4065 1.390 . S
C4071 C4068 1.386 . S
C4072 C4067 1.490 . S
C4072 C4074 1.395 . S
C4072 C4075 1.403 . S
H4073 C4079 0.930 . S
C4074 H4060 0.930 . S
C4074 C4072 1.395 . S
C4074 C4077 1.403 1_655 S
C4075 C4072 1.403 . S
C4075 C4076 1.524 . S
C4075 C4079 1.400 1_655 S
C4076 H4061 0.960 . S
C4076 H4062 0.960 . S
C4076 H4063 0.960 . S
C4076 C4075 1.524 . S
C4077 C4074 1.403 1_455 S
C4077 C4078 1.392 . S
C4077 C4081 1.495 . S
C4078 C4077 1.392 . S
C4078 C4079 1.385 . S
C4078 C4080 1.478 . S
C4079 H4073 0.930 . S
C4079 C4075 1.400 1_455 S
C4079 C4078 1.385 . S
C4080 C4078 1.478 . S
C4080 C4082 1.381 . S
C4080 C4086 1.383 . S
C4081 C4077 1.495 . S
C4081 H4087 0.959 . S
C4081 H4088 0.961 . S
C4081 H4089 0.960 . S
C4082 C4080 1.381 . S
C4082 C4083 1.394 . S
C4082 H4090 0.930 . S
C4083 C4082 1.394 . S
C4083 C4084 1.383 . S
C4083 H4091 0.929 . S
C4084 C4083 1.383 . S
C4084 C4085 1.377 . S
C4085 H4069 0.930 . S
C4085 C4084 1.377 . S
C4085 C4086 1.379 . S
C4086 H4070 0.931 . S
C4086 C4080 1.383 . S
C4086 C4085 1.379 . S
H4087 C4081 0.959 . S
H4088 C4081 0.961 . S
H4089 C4081 0.960 . S
H4090 C4082 0.930 . S
H4091 C4083 0.929 . S
H4092 C4100 0.929 . S
H4093 C4102 0.930 . S
H4094 C4104 0.930 . S
H4095 C4107 0.929 . S
H4096 C4110 0.930 . S
H4097 C4112 0.960 . S
H4098 C4112 0.960 . S
H4099 C4112 0.960 . S
C4100 H4092 0.929 . S
C4100 C4101 1.377 . S
C4100 C4102 1.384 . S
C4101 C4100 1.377 . S
C4101 C4107 1.390 . S
C4102 H4093 0.930 . S
C4102 C4100 1.384 . S
C4102 C4103 1.372 . S
C4103 C4102 1.372 . S
C4103 C4104 1.400 . S
C4103 C4108 1.490 . S
C4104 H4094 0.930 . S
C4104 C4103 1.400 . S
C4104 C4107 1.386 . S
H4105 C4121 0.930 . S
H4106 C4122 0.931 . S
C4107 H4095 0.929 . S
C4107 C4101 1.390 . S
C4107 C4104 1.386 . S
C4108 C4103 1.490 . S
C4108 C4110 1.395 . S
C4108 C4111 1.403 . S
H4109 C4115 0.930 . S
C4110 H4096 0.930 . S
C4110 C4108 1.395 . S
C4110 C4113 1.403 1_455 S
C4111 C4108 1.403 . S
C4111 C4112 1.524 . S
C4111 C4115 1.400 1_455 S
C4112 H4097 0.960 . S
C4112 H4098 0.960 . S
C4112 H4099 0.960 . S
C4112 C4111 1.524 . S
C4113 C4110 1.403 1_655 S
C4113 C4114 1.392 . S
C4113 C4117 1.495 . S
C4114 C4113 1.392 . S
C4114 C4115 1.385 . S
C4114 C4116 1.478 . S
C4115 H4109 0.930 . S
C4115 C4111 1.400 1_655 S
C4115 C4114 1.385 . S
C4116 C4114 1.478 . S
C4116 C4118 1.381 . S
C4116 C4122 1.383 . S
C4117 C4113 1.495 . S
C4117 H4123 0.959 . S
C4117 H4124 0.961 . S
C4117 H4125 0.960 . S
C4118 C4116 1.381 . S
C4118 C4119 1.394 . S
C4118 H4126 0.930 . S
C4119 C4118 1.394 . S
C4119 C4120 1.383 . S
C4119 H4127 0.929 . S
C4120 C4119 1.383 . S
C4120 C4121 1.377 . S
C4121 H4105 0.930 . S
C4121 C4120 1.377 . S
C4121 C4122 1.379 . S
C4122 H4106 0.931 . S
C4122 C4116 1.383 . S
C4122 C4121 1.379 . S
H4123 C4117 0.959 . S
H4124 C4117 0.961 . S
H4125 C4117 0.960 . S
H4126 C4118 0.930 . S
H4127 C4119 0.929 . S
C681 C554 1.205 . S
C700 C3 1.209 . S
C717 C22 1.231 . S
C736 C507 1.226 . S
C753 C31 1.197 . S
C772 C526 1.200 . S
C789 C540 1.187 . S
C808 C50 1.190 . S
C825 C470 1.101 . S
C844 C59 1.107 . S
C861 C73 1.238 . S
C880 C484 1.233 . S
C897 C87 1.125 . S
C916 C493 1.130 . S
C933 C101 1.282 . S
C952 C451 1.270 . S
C969 C120 1.288 . S
C988 C437 1.290 . S
C1005 C400 1.147 . S
C1024 C129 1.140 . S
C1041 C409 1.226 . S
C1060 C148 1.216 . S
C1077 C157 1.146 . S
C1096 C428 1.152 . S
C1113 C176 1.109 . S
C1132 C358 1.110 . S
C1149 C185 1.166 . S
C1168 C367 1.167 . S
C1185 C386 1.042 . S
C1204 C204 1.050 . S
C1221 C339 1.245 . S
C1240 C213 1.246 . S
C1257 C232 1.294 . S
C1276 C624 1.291 . S
C1293 C661 1.261 . S
C1312 C241 1.269 . S
C1329 C638 1.251 . S
C1348 C260 1.255 . S
C1365 C647 1.175 . S
C1384 C269 1.183 . S
C1401 C568 1.223 . S
C1420 C288 1.220 . S
C1437 C596 1.260 . S
C1456 C302 1.249 . S
C1473 C316 1.133 . S
C1492 C605 1.141 . S
C1509 C577 1.065 . S
C1528 C330 1.071 . S
C1545 C456 1.203 . S
C1564 C283 1.198 . S
C1581 C246 1.233 . S
C1600 C465 1.224 . S
C1617 C479 1.216 . S
C1636 C255 1.218 . S
C1653 C498 1.198 . S
C1672 C274 1.205 . S
C1689 C325 1.113 . S
C1708 C512 1.109 . S
C1725 C521 1.268 . S
C1744 C297 1.266 . S
C1761 C311 1.133 . S
C1780 C535 1.121 . S
C1797 C227 1.281 . S
C1816 C549 1.270 . S
C1833 C563 1.284 . S
C1852 C218 1.291 . S
C1869 C171 1.165 . S
C1888 C666 1.158 . S
C1905 C633 1.230 . S
C1924 C190 1.221 . S
C1941 C199 1.075 . S
C1960 C652 1.073 . S
C1977 C134 1.039 . S
C1996 C582 1.032 . S
C2013 C143 1.171 . S
C2032 C591 1.154 . S
C2049 C162 1.061 . S
C2068 C610 1.054 . S
C2085 C619 1.242 . S
C2104 C115 1.236 . S
C2121 C344 1.288 . S
C2140 C106 1.279 . S
C2157 C395 1.250 . S
C2176 C17 1.247 . S
C2193 C414 1.214 . S
C2212 C36 1.219 . S
C2229 C423 1.178 . S
C2248 C45 1.173 . S
C2265 C442 1.215 . S
C2284 C8 1.221 . S
C2301 C78 1.221 . S
C2320 C372 1.218 . S
C2337 C381 1.118 . S
C2356 C92 1.125 . S
C2373 C353 1.068 . S
C2392 C64 1.074 . S
C2409 C7 1.479 . S
C2428 C371 1.470 . S
C2445 C387 1.390 . S
C2464 C23 1.374 . S
C2481 C35 1.481 . S
C2500 C343 1.492 . S
C2517 C51 1.388 . S
C2536 C359 1.361 . S
C2553 C63 1.430 . S
C2572 C429 1.434 . S
C2589 C441 1.488 . S
C2608 C77 1.505 . S
C2625 C91 1.434 . S
C2644 C401 1.435 . S
C2661 C413 1.497 . S
C2680 C105 1.512 . S
C2697 C121 1.531 . S
C2716 C511 1.535 . S
C2733 C527 1.444 . S
C2752 C133 1.432 . S
C2769 C149 1.480 . S
C2788 C541 1.464 . S
C2805 C161 1.459 . S
C2824 C555 1.470 . S
C2841 C177 1.484 . S
C2860 C455 1.495 . S
C2877 C189 1.433 . S
C2896 C471 1.423 . S
C2913 C485 1.432 . S
C2932 C205 1.411 . S
C2949 C217 1.481 . S
C2968 C497 1.471 . S
C2985 C609 1.472 . S
C3004 C233 1.489 . S
C3021 C245 1.468 . S
C3040 C639 1.464 . S
C3057 C261 1.492 . S
C3076 C651 1.504 . S
C3093 C569 1.445 . S
C3112 C273 1.452 . S
C3129 C665 1.490 . S
C3148 C289 1.503 . S
C3165 C303 1.448 . S
C3184 C581 1.450 . S
C3201 C597 1.459 . S
C3220 C317 1.468 . S
C3237 C331 1.445 . S
C3256 C625 1.433 . S
C3273 C595 1.492 . S
C3292 C287 1.474 . S
C3309 C247 1.400 . S
C3328 C611 1.401 . S
C3345 C623 1.487 . S
C3364 C259 1.476 . S
C3381 C583 1.377 . S
C3400 C275 1.396 . S
C3417 C653 1.430 . S
C3436 C329 1.439 . S
C3453 C301 1.492 . S
C3472 C567 1.489 . S
C3489 C667 1.446 . S
C3508 C315 1.456 . S
C3525 C231 1.506 . S
C3544 C637 1.519 . S
C3561 C469 1.533 . S
C3580 C219 1.512 . S
C3597 C175 1.464 . S
C3616 C483 1.469 . S
C3633 C191 1.482 . S
C3652 C499 1.476 . S
C3669 C457 1.424 . S
C3688 C203 1.435 . S
C3705 C135 1.453 . S
C3724 C553 1.426 . S
C3741 C513 1.434 . S
C3760 C147 1.428 . S
C3777 C163 1.449 . S
C3796 C525 1.450 . S
C3813 C119 1.486 . S
C3832 C539 1.469 . S
C3849 C385 1.473 . S
C3868 C107 1.461 . S
C3885 C21 1.464 . S
C3904 C415 1.466 . S
C3921 C37 1.471 . S
C3940 C427 1.482 . S
C3957 C443 1.439 . S
C3976 C49 1.432 . S
C3993 C9 1.492 . S
C4012 C399 1.472 . S
C4029 C79 1.428 . S
C4048 C357 1.434 . S
C4065 C93 1.456 . S
C4084 C373 1.436 . S
C4101 C65 1.448 . S
C4120 C345 1.443 . S
