# Generated by pormake.
# Topology tzs, (4)-cn, num edge types: 1
# Building blocks:
#     Node 0, Type 0, BuildingBlock: AZAVOO_clean_sbu_0, # of connection points: 4
#     Node 1, Type 0, BuildingBlock: AZAVOO_clean_sbu_0, # of connection points: 4
#     Node 2, Type 0, BuildingBlock: AZAVOO_clean_sbu_0, # of connection points: 4
#     Node 3, Type 0, BuildingBlock: AZAVOO_clean_sbu_0, # of connection points: 4
#     Node 4, Type 0, BuildingBlock: AZAVOO_clean_sbu_0, # of connection points: 4
#     Node 5, Type 0, BuildingBlock: AZAVOO_clean_sbu_0, # of connection points: 4
#     Node 6, Type 0, BuildingBlock: AZAVOO_clean_sbu_0, # of connection points: 4
#     Node 7, Type 0, BuildingBlock: AZAVOO_clean_sbu_0, # of connection points: 4
#     Node 8, Type 0, BuildingBlock: AZAVOO_clean_sbu_0, # of connection points: 4
#     Node 9, Type 0, BuildingBlock: AZAVOO_clean_sbu_0, # of connection points: 4
#     Node 10, Type 0, BuildingBlock: AZAVOO_clean_sbu_0, # of connection points: 4
#     Node 11, Type 0, BuildingBlock: AZAVOO_clean_sbu_0, # of connection points: 4
#     Node 12, Type 0, BuildingBlock: AZAVOO_clean_sbu_0, # of connection points: 4
#     Node 13, Type 0, BuildingBlock: AZAVOO_clean_sbu_0, # of connection points: 4
#     Node 14, Type 0, BuildingBlock: AZAVOO_clean_sbu_0, # of connection points: 4
#     Node 15, Type 0, BuildingBlock: AZAVOO_clean_sbu_0, # of connection points: 4
#     Edge 16, Type (0, 0), BuildingBlock: OJICUG_clean_linker_0, # of connection points: 2
#     Edge 17, Type (0, 0), BuildingBlock: OJICUG_clean_linker_0, # of connection points: 2
#     Edge 18, Type (0, 0), BuildingBlock: OJICUG_clean_linker_0, # of connection points: 2
#     Edge 19, Type (0, 0), BuildingBlock: OJICUG_clean_linker_0, # of connection points: 2
#     Edge 20, Type (0, 0), BuildingBlock: OJICUG_clean_linker_0, # of connection points: 2
#     Edge 21, Type (0, 0), BuildingBlock: OJICUG_clean_linker_0, # of connection points: 2
#     Edge 22, Type (0, 0), BuildingBlock: OJICUG_clean_linker_0, # of connection points: 2
#     Edge 23, Type (0, 0), BuildingBlock: OJICUG_clean_linker_0, # of connection points: 2
#     Edge 24, Type (0, 0), BuildingBlock: OJICUG_clean_linker_0, # of connection points: 2
#     Edge 25, Type (0, 0), BuildingBlock: OJICUG_clean_linker_0, # of connection points: 2
#     Edge 26, Type (0, 0), BuildingBlock: OJICUG_clean_linker_0, # of connection points: 2
#     Edge 27, Type (0, 0), BuildingBlock: OJICUG_clean_linker_0, # of connection points: 2
#     Edge 28, Type (0, 0), BuildingBlock: OJICUG_clean_linker_0, # of connection points: 2
#     Edge 29, Type (0, 0), BuildingBlock: OJICUG_clean_linker_0, # of connection points: 2
#     Edge 30, Type (0, 0), BuildingBlock: OJICUG_clean_linker_0, # of connection points: 2
#     Edge 31, Type (0, 0), BuildingBlock: OJICUG_clean_linker_0, # of connection points: 2
#     Edge 32, Type (0, 0), BuildingBlock: OJICUG_clean_linker_0, # of connection points: 2
#     Edge 33, Type (0, 0), BuildingBlock: OJICUG_clean_linker_0, # of connection points: 2
#     Edge 34, Type (0, 0), BuildingBlock: OJICUG_clean_linker_0, # of connection points: 2
#     Edge 35, Type (0, 0), BuildingBlock: OJICUG_clean_linker_0, # of connection points: 2
#     Edge 36, Type (0, 0), BuildingBlock: OJICUG_clean_linker_0, # of connection points: 2
#     Edge 37, Type (0, 0), BuildingBlock: OJICUG_clean_linker_0, # of connection points: 2
#     Edge 38, Type (0, 0), BuildingBlock: OJICUG_clean_linker_0, # of connection points: 2
#     Edge 39, Type (0, 0), BuildingBlock: OJICUG_clean_linker_0, # of connection points: 2
#     Edge 40, Type (0, 0), BuildingBlock: OJICUG_clean_linker_0, # of connection points: 2
#     Edge 41, Type (0, 0), BuildingBlock: OJICUG_clean_linker_0, # of connection points: 2
#     Edge 42, Type (0, 0), BuildingBlock: OJICUG_clean_linker_0, # of connection points: 2
#     Edge 43, Type (0, 0), BuildingBlock: OJICUG_clean_linker_0, # of connection points: 2
#     Edge 44, Type (0, 0), BuildingBlock: OJICUG_clean_linker_0, # of connection points: 2
#     Edge 45, Type (0, 0), BuildingBlock: OJICUG_clean_linker_0, # of connection points: 2
#     Edge 46, Type (0, 0), BuildingBlock: OJICUG_clean_linker_0, # of connection points: 2
#     Edge 47, Type (0, 0), BuildingBlock: OJICUG_clean_linker_0, # of connection points: 2
# Relax obj value: 0.114
# Max RMSD: 0.120
# Mean RMSD: 0.120
data_MOF--net-tzs--node1-AZAVOO_clean_sbu_0--edge1-OJICUG_clean_linker_0
_symmetry_space_group_name_H-M    P1
_symmetry_Int_Tables_number       1
_symmetry_cell_setting            triclinic
loop_
_symmetry_equiv_pos_as_xyz
'x, y, z'
_cell_length_a     34.735002
_cell_length_b     34.717827
_cell_length_c     31.067479
_cell_angle_alpha  90.031105
_cell_angle_beta   90.033053
_cell_angle_gamma 90.053539
loop_
_atom_site_label
_atom_site_type_symbol
_atom_site_fract_x
_atom_site_fract_y
_atom_site_fract_z
_atom_type_partial_charge
Mg0 Mg 0.15841 0.37145 0.14713 0.0
O1 O 0.09735 0.35683 0.16976 0.0
O2 O 0.08306 0.29979 0.14084 0.0
Mg3 Mg 0.12973 0.28497 0.09055 0.0
C4 C 0.07511 0.32778 0.166 0.0
C5 C 0.1942 0.43577 0.19915 0.0
O6 O 0.22344 0.42414 0.17574 0.0
O7 O 0.18245 0.32271 0.1885 0.0
O8 O 0.17147 0.27157 0.14595 0.0
O9 O 0.13725 0.40613 0.09183 0.0
O10 O 0.15223 0.3443 0.08849 0.0
C11 C 0.18647 0.28702 0.17937 0.0
C12 C 0.14132 0.37519 0.06906 0.0
O13 O 0.16316 0.41643 0.1987 0.0
Mg14 Mg 0.64928 0.14924 0.1434 0.0
O15 O 0.65805 0.09019 0.17623 0.0
O16 O 0.71203 0.06525 0.14906 0.0
Mg17 Mg 0.7325 0.10447 0.09403 0.0
C18 C 0.68377 0.06394 0.17528 0.0
C19 C 0.58682 0.19599 0.18749 0.0
O20 O 0.59788 0.22012 0.15738 0.0
O21 O 0.69985 0.1748 0.17956 0.0
O22 O 0.7505 0.14993 0.14468 0.0
O23 O 0.61168 0.12484 0.09341 0.0
O24 O 0.67488 0.13114 0.08671 0.0
C25 C 0.73606 0.17222 0.17321 0.0
C26 C 0.64229 0.12099 0.07011 0.0
O27 O 0.60594 0.16532 0.19368 0.0
Mg28 Mg 0.84701 0.63791 0.1537 0.0
O29 O 0.90806 0.65226 0.17633 0.0
O30 O 0.92393 0.70824 0.14603 0.0
Mg31 Mg 0.87783 0.72209 0.09445 0.0
C32 C 0.93104 0.68062 0.17198 0.0
C33 C 0.8117 0.57416 0.20742 0.0
O34 O 0.78297 0.58324 0.18185 0.0
O35 O 0.82281 0.6884 0.19232 0.0
O36 O 0.83489 0.7379 0.14783 0.0
O37 O 0.86841 0.60118 0.1001 0.0
O38 O 0.85422 0.66306 0.09418 0.0
C39 C 0.81901 0.72372 0.18138 0.0
C40 C 0.865 0.63145 0.07612 0.0
O41 O 0.84175 0.59501 0.20742 0.0
Mg42 Mg 0.3504 0.86653 0.14887 0.0
O43 O 0.34313 0.92743 0.17582 0.0
O44 O 0.28671 0.94892 0.15161 0.0
Mg45 Mg 0.26512 0.90626 0.09962 0.0
C46 C 0.31661 0.95276 0.17518 0.0
C47 C 0.4154 0.82427 0.19255 0.0
O48 O 0.4029 0.79851 0.16486 0.0
O49 O 0.30133 0.84442 0.19116 0.0
O50 O 0.24989 0.86208 0.15213 0.0
O51 O 0.38479 0.88755 0.09353 0.0
O52 O 0.3218 0.87824 0.09199 0.0
C53 C 0.26517 0.84375 0.18346 0.0
C54 C 0.35296 0.88742 0.07189 0.0
O55 O 0.39656 0.85525 0.19768 0.0
Mg56 Mg 0.14982 0.65396 0.31041 0.0
O57 O 0.08853 0.66128 0.28395 0.0
O58 O 0.06616 0.71587 0.31259 0.0
Mg59 Mg 0.10759 0.73478 0.36705 0.0
C60 C 0.06289 0.68749 0.28659 0.0
C61 C 0.1923 0.59063 0.26459 0.0
O62 O 0.2159 0.59946 0.29616 0.0
O63 O 0.16947 0.70655 0.2727 0.0
O64 O 0.1518 0.75496 0.31629 0.0
O65 O 0.13145 0.61419 0.36204 0.0
O66 O 0.13476 0.67752 0.36911 0.0
C67 C 0.16984 0.74207 0.28344 0.0
C68 C 0.12737 0.64439 0.38597 0.0
O69 O 0.16325 0.61193 0.25768 0.0
Mg70 Mg 0.37165 0.16744 0.31021 0.0
O71 O 0.35786 0.1062 0.28657 0.0
O72 O 0.30267 0.08974 0.31855 0.0
Mg73 Mg 0.28964 0.13425 0.37196 0.0
C74 C 0.32949 0.08319 0.29135 0.0
C75 C 0.43357 0.20536 0.25608 0.0
O76 O 0.42574 0.23292 0.2837 0.0
O77 O 0.31967 0.18986 0.27387 0.0
O78 O 0.27113 0.17761 0.31951 0.0
O79 O 0.41158 0.1473 0.36095 0.0
O80 O 0.34905 0.15644 0.37032 0.0
C81 C 0.28454 0.19321 0.28537 0.0
C82 C 0.38191 0.14642 0.38603 0.0
O83 O 0.41222 0.17568 0.25493 0.0
Mg84 Mg 0.86075 0.35199 0.3145 0.0
O85 O 0.92031 0.34298 0.2838 0.0
O86 O 0.94262 0.28654 0.30699 0.0
Mg87 Mg 0.90008 0.26356 0.35747 0.0
C88 C 0.94574 0.31651 0.28351 0.0
C89 C 0.81914 0.41978 0.27378 0.0
O90 O 0.79316 0.40742 0.30121 0.0
O91 O 0.83446 0.30553 0.27182 0.0
O92 O 0.857 0.25169 0.30264 0.0
O93 O 0.88565 0.38326 0.36991 0.0
O94 O 0.87337 0.32064 0.36944 0.0
C95 C 0.83627 0.26883 0.27454 0.0
C96 C 0.88471 0.35077 0.39029 0.0
O97 O 0.84966 0.40031 0.26812 0.0
Mg98 Mg 0.63462 0.84947 0.30952 0.0
O99 O 0.64811 0.91103 0.28794 0.0
O100 O 0.7041 0.92683 0.31825 0.0
Mg101 Mg 0.71858 0.88027 0.36905 0.0
C102 C 0.67632 0.93415 0.29258 0.0
C103 C 0.5702 0.81488 0.25699 0.0
O104 O 0.57905 0.78647 0.28308 0.0
O105 O 0.68514 0.82619 0.2703 0.0
O106 O 0.73456 0.83798 0.31507 0.0
O107 O 0.59792 0.86964 0.36371 0.0
O108 O 0.65993 0.8559 0.36899 0.0
C109 C 0.72046 0.82241 0.28125 0.0
C110 C 0.62832 0.86599 0.38744 0.0
O111 O 0.59159 0.84453 0.25603 0.0
Mg112 Mg 0.85502 0.64242 0.81651 0.0
O113 O 0.84467 0.583 0.78558 0.0
O114 O 0.78866 0.561 0.8105 0.0
Mg115 Mg 0.7675 0.60321 0.86235 0.0
C116 C 0.81793 0.55778 0.78598 0.0
C117 C 0.91973 0.68588 0.77122 0.0
O118 O 0.90625 0.71301 0.79655 0.0
O119 O 0.80755 0.66944 0.77586 0.0
O120 O 0.75463 0.64696 0.80871 0.0
O121 O 0.88754 0.61713 0.87097 0.0
O122 O 0.82502 0.62939 0.87199 0.0
C123 C 0.77098 0.66791 0.78022 0.0
C124 C 0.85546 0.61806 0.89213 0.0
O125 O 0.90206 0.65393 0.76868 0.0
Mg126 Mg 0.34685 0.86635 0.81004 0.0
O127 O 0.40831 0.852 0.78894 0.0
O128 O 0.42313 0.79586 0.8195 0.0
Mg129 Mg 0.37572 0.78154 0.86922 0.0
C130 C 0.431 0.82352 0.79387 0.0
C131 C 0.31131 0.92831 0.75354 0.0
O132 O 0.28114 0.9169 0.77561 0.0
O133 O 0.3237 0.81642 0.7698 0.0
O134 O 0.33467 0.76622 0.81362 0.0
O135 O 0.36735 0.90263 0.86434 0.0
O136 O 0.35267 0.84077 0.86966 0.0
C137 C 0.31989 0.78086 0.77966 0.0
C138 C 0.36347 0.87227 0.88808 0.0
O139 O 0.34261 0.90969 0.75674 0.0
Mg140 Mg 0.15275 0.35995 0.80933 0.0
O141 O 0.16154 0.4196 0.77857 0.0
O142 O 0.21724 0.44271 0.80314 0.0
Mg143 Mg 0.23976 0.40068 0.85446 0.0
C144 C 0.18767 0.44543 0.77896 0.0
C145 C 0.08631 0.31709 0.76797 0.0
O146 O 0.09879 0.29168 0.796 0.0
O147 O 0.20044 0.33377 0.76834 0.0
O148 O 0.2533 0.35704 0.80069 0.0
O149 O 0.11999 0.3848 0.86357 0.0
O150 O 0.18271 0.37343 0.86495 0.0
C151 C 0.23703 0.33582 0.77234 0.0
C152 C 0.15204 0.38454 0.88483 0.0
O153 O 0.10549 0.34776 0.76188 0.0
Mg154 Mg 0.65933 0.13144 0.81011 0.0
O155 O 0.59727 0.14293 0.78774 0.0
O156 O 0.58001 0.19792 0.81967 0.0
Mg157 Mg 0.62473 0.21249 0.87244 0.0
C158 C 0.57362 0.1707 0.79286 0.0
C159 C 0.69757 0.06983 0.75606 0.0
O160 O 0.72479 0.07775 0.78409 0.0
O161 O 0.67986 0.18417 0.77338 0.0
O162 O 0.6674 0.2321 0.81981 0.0
O163 O 0.64152 0.09099 0.86159 0.0
O164 O 0.64871 0.15387 0.87035 0.0
C165 C 0.68286 0.21926 0.78532 0.0
C166 C 0.64023 0.12078 0.88655 0.0
O167 O 0.66784 0.09104 0.75467 0.0
Mg168 Mg 0.86611 0.34232 0.65263 0.0
O169 O 0.85309 0.40403 0.67409 0.0
O170 O 0.79726 0.42017 0.64369 0.0
Mg171 Mg 0.78201 0.37338 0.59348 0.0
C172 C 0.82507 0.42733 0.6694 0.0
C173 C 0.93095 0.30782 0.70485 0.0
O174 O 0.92183 0.27924 0.67904 0.0
O175 O 0.81564 0.31998 0.69271 0.0
O176 O 0.76592 0.33231 0.64864 0.0
O177 O 0.90267 0.36214 0.59824 0.0
O178 O 0.84057 0.34876 0.59299 0.0
C179 C 0.78006 0.31697 0.68254 0.0
C180 C 0.87222 0.35886 0.57453 0.0
O181 O 0.90963 0.33749 0.70579 0.0
Mg182 Mg 0.64572 0.8506 0.64558 0.0
O183 O 0.58706 0.84041 0.67808 0.0
O184 O 0.56389 0.78485 0.65303 0.0
Mg185 Mg 0.60494 0.76366 0.60006 0.0
C186 C 0.5615 0.81399 0.67793 0.0
C187 C 0.68967 0.91602 0.68841 0.0
O188 O 0.71543 0.9037 0.6607 0.0
O189 O 0.67357 0.80278 0.68476 0.0
O190 O 0.65002 0.75012 0.65226 0.0
O191 O 0.61903 0.88392 0.59281 0.0
O192 O 0.63085 0.82131 0.59015 0.0
C193 C 0.67181 0.76624 0.68015 0.0
C194 C 0.61892 0.8521 0.5711 0.0
O195 O 0.65871 0.8971 0.69352 0.0
Mg196 Mg 0.13573 0.66129 0.64653 0.0
O197 O 0.14824 0.5993 0.66833 0.0
O198 O 0.20381 0.58316 0.63696 0.0
Mg199 Mg 0.21833 0.62862 0.58512 0.0
C200 C 0.17645 0.57616 0.66334 0.0
C201 C 0.07179 0.69719 0.69935 0.0
O202 O 0.07845 0.72424 0.67074 0.0
O203 O 0.18761 0.68231 0.68457 0.0
O204 O 0.23636 0.67078 0.63898 0.0
O205 O 0.09643 0.64324 0.59395 0.0
O206 O 0.15929 0.65132 0.58669 0.0
C207 C 0.22285 0.68575 0.67342 0.0
C208 C 0.12662 0.64251 0.56964 0.0
O209 O 0.09429 0.66845 0.70134 0.0
Mg210 Mg 0.35811 0.14804 0.64376 0.0
O211 O 0.41772 0.15548 0.6757 0.0
O212 O 0.44276 0.20997 0.64988 0.0
Mg213 Mg 0.40324 0.2319 0.59579 0.0
C214 C 0.44418 0.18103 0.67517 0.0
C215 C 0.31455 0.08185 0.68452 0.0
O216 O 0.29209 0.09053 0.6519 0.0
O217 O 0.33342 0.19829 0.68149 0.0
O218 O 0.35821 0.24925 0.64695 0.0
O219 O 0.38123 0.11145 0.59194 0.0
O220 O 0.3755 0.17487 0.58754 0.0
C221 C 0.33609 0.2346 0.6755 0.0
C222 C 0.38491 0.14267 0.56959 0.0
O223 O 0.34283 0.10367 0.69334 0.0
C224 C 0.26038 0.21374 0.21358 0.0
C225 C 0.25864 0.21653 0.25855 0.0
H226 H 0.23793 0.23345 0.15331 0.0
C227 C 0.23272 0.24247 0.27762 0.0
H228 H 0.28015 0.19388 0.19825 0.0
C229 C 0.20945 0.26597 0.25193 0.0
C230 C 0.2109 0.26279 0.20694 0.0
H231 H 0.23114 0.2452 0.31231 0.0
H232 H 0.19002 0.28621 0.26716 0.0
C233 C 0.23623 0.23623 0.18799 0.0
C234 C 0.82368 0.20818 0.2335 0.0
C235 C 0.81167 0.24507 0.24635 0.0
H236 H 0.80925 0.15633 0.19955 0.0
C237 C 0.77486 0.25798 0.23454 0.0
H238 H 0.85193 0.19755 0.24226 0.0
C239 C 0.75009 0.234 0.2113 0.0
C240 C 0.76209 0.19711 0.19845 0.0
H241 H 0.76478 0.28616 0.2444 0.0
H242 H 0.72165 0.24446 0.20304 0.0
C243 C 0.79931 0.18462 0.20917 0.0
C244 C 0.76887 0.77474 0.18638 0.0
C245 C 0.79399 0.74897 0.20709 0.0
H246 H 0.72494 0.81769 0.19384 0.0
C247 C 0.79474 0.74752 0.25216 0.0
H248 H 0.76768 0.77612 0.15156 0.0
C249 C 0.77123 0.77207 0.27619 0.0
C250 C 0.7457 0.79743 0.25548 0.0
H251 H 0.81392 0.72791 0.26874 0.0
H252 H 0.77248 0.77074 0.31101 0.0
C253 C 0.74439 0.79834 0.21041 0.0
C254 C 0.24281 0.81849 0.25453 0.0
C255 C 0.24023 0.81867 0.20949 0.0
H256 H 0.22122 0.7946 0.3135 0.0
C257 C 0.21391 0.79401 0.18893 0.0
H258 H 0.26294 0.8373 0.27096 0.0
C259 C 0.19111 0.76884 0.213 0.0
C260 C 0.19329 0.769 0.25804 0.0
H261 H 0.21168 0.79355 0.15414 0.0
H262 H 0.17154 0.74951 0.19649 0.0
C263 C 0.21894 0.79429 0.27871 0.0
C264 C 0.73402 0.75401 0.71829 0.0
C265 C 0.69705 0.74148 0.70639 0.0
H266 H 0.78705 0.73986 0.74995 0.0
C267 C 0.68504 0.70426 0.7179 0.0
H268 H 0.7441 0.78245 0.70936 0.0
C269 C 0.70927 0.68024 0.74162 0.0
C270 C 0.74638 0.69258 0.75317 0.0
H271 H 0.6567 0.69389 0.709 0.0
H272 H 0.69907 0.65189 0.75072 0.0
C273 C 0.75871 0.72954 0.74101 0.0
C274 C 0.27466 0.73501 0.68149 0.0
C275 C 0.24864 0.7091 0.7005 0.0
H276 H 0.31712 0.77904 0.69194 0.0
C277 C 0.24667 0.70655 0.74548 0.0
H278 H 0.27643 0.7376 0.64679 0.0
C279 C 0.27064 0.72932 0.77111 0.0
C280 C 0.29598 0.75592 0.75218 0.0
H281 H 0.22682 0.68673 0.76077 0.0
H282 H 0.2687 0.7268 0.80581 0.0
C283 C 0.29771 0.75877 0.70718 0.0
C284 C 0.24918 0.27363 0.73432 0.0
C285 C 0.26164 0.31076 0.74566 0.0
H286 H 0.26357 0.21997 0.7043 0.0
C287 C 0.29885 0.32268 0.73391 0.0
H288 H 0.22079 0.2636 0.74341 0.0
C289 C 0.32307 0.29799 0.7109 0.0
C290 C 0.31093 0.26054 0.70045 0.0
H291 H 0.30917 0.35115 0.74239 0.0
H292 H 0.35151 0.30795 0.70188 0.0
C293 C 0.2738 0.24855 0.71243 0.0
C294 C 0.73257 0.27088 0.77919 0.0
C295 C 0.70649 0.24555 0.75924 0.0
H296 H 0.77735 0.31284 0.77027 0.0
C297 C 0.70433 0.24442 0.7142 0.0
H298 H 0.73488 0.27195 0.81395 0.0
C299 C 0.72769 0.26849 0.68943 0.0
C300 C 0.75451 0.29308 0.70928 0.0
H301 H 0.68443 0.22509 0.69819 0.0
H302 H 0.72548 0.26715 0.65467 0.0
C303 C 0.75693 0.29402 0.75434 0.0
C304 C 0.17513 0.36071 0.95534 0.0
C305 C 0.15116 0.38575 0.93217 0.0
H306 H 0.18934 0.33652 0.01651 0.0
C307 C 0.12298 0.40701 0.95427 0.0
H308 H 0.19659 0.34339 0.93906 0.0
C309 C 0.11922 0.4035 -0.00098 0.0
C310 C 0.14249 0.37747 0.0218 0.0
H311 H 0.1038 0.42609 0.93694 0.0
H312 H 0.09788 0.42065 0.01569 0.0
C313 C 0.17044 0.35617 -0.00044 0.0
C314 C 0.6669 0.09667 0.95517 0.0
C315 C 0.63728 0.11591 0.93318 0.0
H316 H 0.69212 0.08358 0.01657 0.0
C317 C 0.6075 0.13326 0.95636 0.0
H318 H 0.69033 0.08342 0.93755 0.0
C319 C 0.60776 0.13204 0.00129 0.0
C320 C 0.63861 0.1148 0.02349 0.0
H321 H 0.58464 0.14845 0.93979 0.0
H322 H 0.58506 0.14674 0.01866 0.0
C323 C 0.66796 0.0967 0.00013 0.0
C324 C 0.83147 0.64255 0.96191 0.0
C325 C 0.85609 0.61757 0.93951 0.0
H326 H 0.81645 0.6677 0.02231 0.0
C327 C 0.88446 0.59719 0.96237 0.0
H328 H 0.80978 0.65918 0.94509 0.0
C329 C 0.88784 0.60163 0.00708 0.0
C330 C 0.86401 0.62775 0.02899 0.0
H331 H 0.9041 0.57814 0.94565 0.0
H332 H 0.90939 0.58524 0.02437 0.0
C333 C 0.8358 0.64804 0.00601 0.0
C334 C 0.32971 0.86152 0.00231 0.0
C335 C 0.35412 0.8869 0.02454 0.0
H336 H 0.31499 0.83576 0.94204 0.0
C337 C 0.38267 0.907 0.00168 0.0
H338 H 0.30794 0.84507 0.01924 0.0
C339 C 0.38628 0.90213 0.95707 0.0
C340 C 0.36249 0.87583 0.93524 0.0
H341 H 0.40217 0.92631 0.0183 0.0
H342 H 0.40787 0.91846 0.93975 0.0
C343 C 0.33426 0.85559 0.95827 0.0
C344 C 0.1458 0.61305 0.49984 0.0
C345 C 0.12273 0.6388 0.5229 0.0
H346 H 0.16378 0.59373 0.43756 0.0
C347 C 0.09847 0.66435 0.50068 0.0
H348 H 0.1649 0.59343 0.51653 0.0
C349 C 0.0989 0.66565 0.45573 0.0
C350 C 0.12239 0.64026 0.43262 0.0
H351 H 0.08082 0.68479 0.51814 0.0
H352 H 0.08156 0.68688 0.43911 0.0
C353 C 0.14499 0.61322 0.45489 0.0
C354 C 0.37235 0.11031 0.49969 0.0
C355 C 0.39018 0.14039 0.52273 0.0
H356 H 0.35468 0.08925 0.43764 0.0
C357 C 0.4078 0.17054 0.50018 0.0
H358 H 0.35798 0.08704 0.51647 0.0
C359 C 0.40681 0.17107 0.45524 0.0
C360 C 0.38706 0.1422 0.4325 0.0
H361 H 0.42136 0.19414 0.51728 0.0
H362 H 0.41981 0.19505 0.43829 0.0
C363 C 0.37017 0.1116 0.45481 0.0
C364 C 0.85949 0.32669 0.45983 0.0
C365 C 0.88525 0.35072 0.43769 0.0
H366 H 0.83401 0.3119 0.52018 0.0
C367 C 0.90657 0.37823 0.46086 0.0
H368 H 0.84212 0.30573 0.44272 0.0
C369 C 0.90234 0.38134 0.5056 0.0
C370 C 0.87554 0.3581 0.52732 0.0
H371 H 0.9262 0.39745 0.44435 0.0
H372 H 0.91948 0.40222 0.52307 0.0
C373 C 0.85425 0.33076 0.50405 0.0
C374 C 0.59731 0.88367 0.50261 0.0
C375 C 0.6164 0.85339 0.52381 0.0
H376 H 0.58574 0.91134 0.44197 0.0
C377 C 0.6387 0.82755 0.49967 0.0
H378 H 0.58026 0.9042 0.52064 0.0
C379 C 0.64332 0.83281 0.4556 0.0
C380 C 0.62477 0.86325 0.43443 0.0
H381 H 0.65417 0.80425 0.5151 0.0
H382 H 0.66113 0.81265 0.43792 0.0
C383 C 0.60083 0.88808 0.45793 0.0
C384 C 0.22846 0.53122 0.2437 0.0
C385 C 0.19377 0.55191 0.24542 0.0
H386 H 0.25588 0.47779 0.22728 0.0
C387 C 0.1594 0.53384 0.23278 0.0
H388 H 0.25526 0.54448 0.25367 0.0
C389 C 0.15956 0.4956 0.21934 0.0
C390 C 0.19421 0.47492 0.21724 0.0
H391 H 0.13213 0.54889 0.23441 0.0
H392 H 0.13256 0.48249 0.20975 0.0
C393 C 0.22876 0.49311 0.22904 0.0
C394 C 0.52713 0.16566 0.21494 0.0
C395 C 0.54804 0.1993 0.20598 0.0
H396 H 0.4741 0.14133 0.23618 0.0
C397 C 0.53041 0.23534 0.21157 0.0
H398 H 0.53978 0.13746 0.21017 0.0
C399 C 0.49266 0.2376 0.22713 0.0
C400 C 0.47179 0.20382 0.23582 0.0
H401 H 0.54592 0.26165 0.20439 0.0
H402 H 0.47983 0.26564 0.23237 0.0
C403 C 0.48927 0.16788 0.22917 0.0
C404 C 0.84873 0.51773 0.23379 0.0
C405 C 0.81301 0.53573 0.22733 0.0
H406 H 0.87848 0.46655 0.25219 0.0
C407 C 0.77901 0.51521 0.23598 0.0
H408 H 0.87543 0.53265 0.22689 0.0
C409 C 0.7808 0.47728 0.25102 0.0
C410 C 0.81658 0.45908 0.25636 0.0
H411 H 0.75113 0.52842 0.23096 0.0
H412 H 0.75428 0.46204 0.25791 0.0
C413 C 0.85048 0.47966 0.24766 0.0
C414 C 0.51035 0.78289 0.22989 0.0
C415 C 0.53151 0.81664 0.23784 0.0
H416 H 0.45657 0.75883 0.2089 0.0
C417 C 0.51399 0.85261 0.23146 0.0
H418 H 0.5232 0.75482 0.2349 0.0
C419 C 0.47579 0.85486 0.2182 0.0
C420 C 0.45461 0.8212 0.21002 0.0
H421 H 0.52941 0.87914 0.2379 0.0
H422 H 0.4631 0.88305 0.21358 0.0
C423 C 0.47228 0.78516 0.21543 0.0
C424 C 0.7861 0.50781 0.73966 0.0
C425 C 0.82001 0.52475 0.75567 0.0
H426 H 0.76114 0.46459 0.69896 0.0
C427 C 0.8557 0.51032 0.74172 0.0
H428 H 0.75816 0.51852 0.74944 0.0
C429 C 0.85741 0.47895 0.71333 0.0
C430 C 0.82346 0.46207 0.69727 0.0
H431 H 0.88233 0.52281 0.7534 0.0
H432 H 0.88532 0.46791 0.7039 0.0
C433 C 0.78781 0.47716 0.71039 0.0
C434 C 0.51499 0.85257 0.72246 0.0
C435 C 0.52873 0.81661 0.70845 0.0
H436 H 0.47303 0.88299 0.76006 0.0
C437 C 0.51109 0.78299 0.72426 0.0
H438 H 0.528 0.87898 0.7109 0.0
C439 C 0.48036 0.78527 0.75332 0.0
C440 C 0.4659 0.82122 0.76639 0.0
H441 H 0.52124 0.75485 0.71439 0.0
H442 H 0.46718 0.75883 0.76455 0.0
C443 C 0.48355 0.85486 0.75063 0.0
C444 C 0.14829 0.49265 0.73612 0.0
C445 C 0.18447 0.47867 0.74913 0.0
H446 H 0.11733 0.53482 0.69927 0.0
C447 C 0.2178 0.49628 0.73264 0.0
H448 H 0.1221 0.47964 0.74824 0.0
C449 C 0.21507 0.52706 0.70371 0.0
C450 C 0.17895 0.54164 0.69142 0.0
H451 H 0.24608 0.48596 0.74173 0.0
H452 H 0.24134 0.54008 0.6918 0.0
C453 C 0.14557 0.52419 0.70808 0.0
C454 C 0.49065 0.14188 0.71941 0.0
C455 C 0.47679 0.17796 0.70592 0.0
H456 H 0.53259 0.11121 0.75695 0.0
C457 C 0.49421 0.21143 0.72243 0.0
H458 H 0.4778 0.11558 0.70727 0.0
C459 C 0.52471 0.20894 0.75177 0.0
C460 C 0.53927 0.17292 0.76444 0.0
H461 H 0.48399 0.23966 0.71296 0.0
H462 H 0.5376 0.23532 0.76365 0.0
C463 C 0.52197 0.13938 0.74784 0.0
C464 C 0.6607 0.01442 0.72698 0.0
C465 C 0.69647 0.03169 0.73547 0.0
H466 H 0.63068 0.96391 0.70685 0.0
C467 C 0.73037 0.01057 0.7285 0.0
H468 H 0.63403 0.0298 0.73256 0.0
C469 C 0.72842 0.9727 0.71315 0.0
C470 C 0.69252 0.95522 0.70597 0.0
H471 H 0.75827 0.02322 0.73512 0.0
H472 H 0.75485 0.95694 0.70756 0.0
C473 C 0.65874 0.97645 0.7129 0.0
C474 C 0.98098 0.65631 0.74686 0.0
C475 C 0.9585 0.68948 0.75266 0.0
H476 H 0.03489 0.63299 0.72698 0.0
C477 C 0.97431 0.72572 0.74312 0.0
H478 H 0.96974 0.62804 0.75466 0.0
C479 C 0.01171 0.72855 0.72669 0.0
C480 C 0.03408 0.69527 0.72083 0.0
H481 H 0.95759 0.75172 0.74773 0.0
H482 H 0.02302 0.75666 0.71835 0.0
C483 C 0.01852 0.65921 0.73161 0.0
C484 C 0.34664 0.02575 0.71844 0.0
C485 C 0.31267 0.0432 0.70372 0.0
H486 H 0.37294 0.97531 0.74424 0.0
C487 C 0.27812 0.02214 0.70412 0.0
H488 H 0.37383 0.04107 0.71786 0.0
C489 C 0.27752 0.98437 0.71982 0.0
C490 C 0.31169 0.96688 0.73398 0.0
H491 H 0.25163 0.03494 0.69254 0.0
H492 H 0.25048 0.96882 0.72069 0.0
C493 C 0.34624 0.98785 0.73291 0.0
C494 C 0.02889 0.27807 0.74623 0.0
C495 C 0.0469 0.31405 0.75094 0.0
H496 H 0.97761 0.24779 0.72758 0.0
C497 C 0.02594 0.34773 0.74237 0.0
H498 H 0.04443 0.25172 0.75305 0.0
C499 C 0.98763 0.34555 0.72941 0.0
C500 C 0.96977 0.30961 0.72372 0.0
H501 H 0.03891 0.3759 0.74643 0.0
H502 H 0.97238 0.37207 0.72264 0.0
C503 C 0.99071 0.27584 0.73206 0.0
C504 C 0.35947 0.03196 0.24497 0.0
C505 C 0.32637 0.0492 0.26247 0.0
H506 H 0.38236 0.98766 0.20417 0.0
C507 C 0.29004 0.03478 0.25051 0.0
H508 H 0.38785 0.04247 0.25346 0.0
C509 C 0.28686 0.00414 0.22133 0.0
C510 C 0.31996 0.98657 0.20428 0.0
H511 H 0.26397 0.04767 0.26307 0.0
H512 H 0.25847 0.99375 0.21272 0.0
C513 C 0.35631 1.00063 0.2167 0.0
C514 C 0.99218 0.35583 0.23952 0.0
C515 C 0.97874 0.31967 0.25332 0.0
H516 H 0.03344 0.38681 0.20146 0.0
C517 C 0.99643 0.2863 0.23698 0.0
H518 H 0.9791 0.38207 0.25143 0.0
C519 C 0.02678 0.289 0.20749 0.0
C520 C 0.04081 0.32514 0.19439 0.0
H521 H 0.9865 0.258 0.24661 0.0
H522 H 0.0399 0.26272 0.19578 0.0
C523 C 0.02323 0.35855 0.21085 0.0
C524 C 0.71375 0.98347 0.25097 0.0
C525 C 0.67807 0.96895 0.26483 0.0
H526 H 0.74342 0.02421 0.2111 0.0
C527 C 0.64416 0.98647 0.24966 0.0
H528 H 0.74037 0.97042 0.26175 0.0
C529 C 0.64592 0.01782 0.22127 0.0
C530 C 0.6816 0.03154 0.20639 0.0
H531 H 0.61623 0.97589 0.25973 0.0
H532 H 0.61933 0.03072 0.21013 0.0
C533 C 0.71548 0.01406 0.22165 0.0
C534 C 0.01135 0.71966 0.24276 0.0
C535 C 0.02913 0.68569 0.2573 0.0
H536 H 0.96716 0.74473 0.20345 0.0
C537 C 0.01503 0.65006 0.24256 0.0
H538 H 0.02177 0.74756 0.2532 0.0
C539 C 0.98332 0.64842 0.2147 0.0
C540 C 0.96572 0.68241 0.19991 0.0
H541 H 0.02815 0.62339 0.25312 0.0
H542 H 0.97269 0.62052 0.20453 0.0
C543 C 0.98032 0.71806 0.21394 0.0
loop_
_geom_bond_atom_site_label_1
_geom_bond_atom_site_label_2
_geom_bond_distance
_geom_bond_site_symmetry_2
_ccdc_geom_bond_type
Mg0 O1 2.028 . S
Mg0 O7 1.986 . S
Mg0 O9 2.114 . S
Mg0 O10 2.251 . S
Mg0 O13 2.010 . S
O1 Mg0 2.028 . S
O1 C4 1.250 . S
O2 Mg3 2.028 . S
O2 C4 1.248 . S
Mg3 O2 2.028 . S
Mg3 O8 2.032 . S
Mg3 O10 2.079 . S
C4 O1 1.250 . S
C4 O2 1.248 . S
C5 O6 1.264 . S
C5 O13 1.249 . S
O6 C5 1.264 . S
O7 Mg0 1.986 . S
O7 C11 1.246 . S
O8 Mg3 2.032 . S
O8 C11 1.259 . S
O9 Mg0 2.114 . S
O9 C12 1.252 . S
O10 Mg0 2.251 . S
O10 Mg3 2.079 . S
O10 C12 1.273 . S
C11 O7 1.246 . S
C11 O8 1.259 . S
C12 O9 1.252 . S
C12 O10 1.273 . S
O13 Mg0 2.010 . S
O13 C5 1.249 . S
Mg14 O15 2.028 . S
Mg14 O21 1.986 . S
Mg14 O23 2.114 . S
Mg14 O24 2.251 . S
Mg14 O27 2.010 . S
O15 Mg14 2.028 . S
O15 C18 1.250 . S
O16 Mg17 2.028 . S
O16 C18 1.248 . S
Mg17 O16 2.028 . S
Mg17 O22 2.032 . S
Mg17 O24 2.079 . S
C18 O15 1.250 . S
C18 O16 1.248 . S
C19 O20 1.264 . S
C19 O27 1.249 . S
O20 C19 1.264 . S
O21 Mg14 1.986 . S
O21 C25 1.246 . S
O22 Mg17 2.032 . S
O22 C25 1.259 . S
O23 Mg14 2.114 . S
O23 C26 1.252 . S
O24 Mg14 2.251 . S
O24 Mg17 2.079 . S
O24 C26 1.273 . S
C25 O21 1.246 . S
C25 O22 1.259 . S
C26 O23 1.252 . S
C26 O24 1.273 . S
O27 Mg14 2.010 . S
O27 C19 1.249 . S
Mg28 O29 2.028 . S
Mg28 O35 1.986 . S
Mg28 O37 2.114 . S
Mg28 O38 2.251 . S
Mg28 O41 2.010 . S
O29 Mg28 2.028 . S
O29 C32 1.250 . S
O30 Mg31 2.028 . S
O30 C32 1.248 . S
Mg31 O30 2.028 . S
Mg31 O36 2.032 . S
Mg31 O38 2.079 . S
C32 O29 1.250 . S
C32 O30 1.248 . S
C33 O34 1.264 . S
C33 O41 1.249 . S
O34 C33 1.264 . S
O35 Mg28 1.986 . S
O35 C39 1.246 . S
O36 Mg31 2.032 . S
O36 C39 1.259 . S
O37 Mg28 2.114 . S
O37 C40 1.252 . S
O38 Mg28 2.251 . S
O38 Mg31 2.079 . S
O38 C40 1.273 . S
C39 O35 1.246 . S
C39 O36 1.259 . S
C40 O37 1.252 . S
C40 O38 1.273 . S
O41 Mg28 2.010 . S
O41 C33 1.249 . S
Mg42 O43 2.028 . S
Mg42 O49 1.986 . S
Mg42 O51 2.114 . S
Mg42 O52 2.251 . S
Mg42 O55 2.010 . S
O43 Mg42 2.028 . S
O43 C46 1.250 . S
O44 Mg45 2.028 . S
O44 C46 1.248 . S
Mg45 O44 2.028 . S
Mg45 O50 2.032 . S
Mg45 O52 2.079 . S
C46 O43 1.250 . S
C46 O44 1.248 . S
C47 O48 1.264 . S
C47 O55 1.249 . S
O48 C47 1.264 . S
O49 Mg42 1.986 . S
O49 C53 1.246 . S
O50 Mg45 2.032 . S
O50 C53 1.259 . S
O51 Mg42 2.114 . S
O51 C54 1.252 . S
O52 Mg42 2.251 . S
O52 Mg45 2.079 . S
O52 C54 1.273 . S
C53 O49 1.246 . S
C53 O50 1.259 . S
C54 O51 1.252 . S
C54 O52 1.273 . S
O55 Mg42 2.010 . S
O55 C47 1.249 . S
Mg56 O57 2.028 . S
Mg56 O63 1.986 . S
Mg56 O65 2.114 . S
Mg56 O66 2.251 . S
Mg56 O69 2.010 . S
O57 Mg56 2.028 . S
O57 C60 1.250 . S
O58 Mg59 2.028 . S
O58 C60 1.248 . S
Mg59 O58 2.028 . S
Mg59 O64 2.032 . S
Mg59 O66 2.079 . S
C60 O57 1.250 . S
C60 O58 1.248 . S
C61 O62 1.264 . S
C61 O69 1.249 . S
O62 C61 1.264 . S
O63 Mg56 1.986 . S
O63 C67 1.246 . S
O64 Mg59 2.032 . S
O64 C67 1.259 . S
O65 Mg56 2.114 . S
O65 C68 1.252 . S
O66 Mg56 2.251 . S
O66 Mg59 2.079 . S
O66 C68 1.273 . S
C67 O63 1.246 . S
C67 O64 1.259 . S
C68 O65 1.252 . S
C68 O66 1.273 . S
O69 Mg56 2.010 . S
O69 C61 1.249 . S
Mg70 O71 2.028 . S
Mg70 O77 1.986 . S
Mg70 O79 2.114 . S
Mg70 O80 2.251 . S
Mg70 O83 2.010 . S
O71 Mg70 2.028 . S
O71 C74 1.250 . S
O72 Mg73 2.028 . S
O72 C74 1.248 . S
Mg73 O72 2.028 . S
Mg73 O78 2.032 . S
Mg73 O80 2.079 . S
C74 O71 1.250 . S
C74 O72 1.248 . S
C75 O76 1.264 . S
C75 O83 1.249 . S
O76 C75 1.264 . S
O77 Mg70 1.986 . S
O77 C81 1.246 . S
O78 Mg73 2.032 . S
O78 C81 1.259 . S
O79 Mg70 2.114 . S
O79 C82 1.252 . S
O80 Mg70 2.251 . S
O80 Mg73 2.079 . S
O80 C82 1.273 . S
C81 O77 1.246 . S
C81 O78 1.259 . S
C82 O79 1.252 . S
C82 O80 1.273 . S
O83 Mg70 2.010 . S
O83 C75 1.249 . S
Mg84 O85 2.028 . S
Mg84 O91 1.986 . S
Mg84 O93 2.114 . S
Mg84 O94 2.251 . S
Mg84 O97 2.010 . S
O85 Mg84 2.028 . S
O85 C88 1.250 . S
O86 Mg87 2.028 . S
O86 C88 1.248 . S
Mg87 O86 2.028 . S
Mg87 O92 2.032 . S
Mg87 O94 2.079 . S
C88 O85 1.250 . S
C88 O86 1.248 . S
C89 O90 1.264 . S
C89 O97 1.249 . S
O90 C89 1.264 . S
O91 Mg84 1.986 . S
O91 C95 1.246 . S
O92 Mg87 2.032 . S
O92 C95 1.259 . S
O93 Mg84 2.114 . S
O93 C96 1.252 . S
O94 Mg84 2.251 . S
O94 Mg87 2.079 . S
O94 C96 1.273 . S
C95 O91 1.246 . S
C95 O92 1.259 . S
C96 O93 1.252 . S
C96 O94 1.273 . S
O97 Mg84 2.010 . S
O97 C89 1.249 . S
Mg98 O99 2.028 . S
Mg98 O105 1.986 . S
Mg98 O107 2.114 . S
Mg98 O108 2.251 . S
Mg98 O111 2.010 . S
O99 Mg98 2.028 . S
O99 C102 1.250 . S
O100 Mg101 2.028 . S
O100 C102 1.248 . S
Mg101 O100 2.028 . S
Mg101 O106 2.032 . S
Mg101 O108 2.079 . S
C102 O99 1.250 . S
C102 O100 1.248 . S
C103 O104 1.264 . S
C103 O111 1.249 . S
O104 C103 1.264 . S
O105 Mg98 1.986 . S
O105 C109 1.246 . S
O106 Mg101 2.032 . S
O106 C109 1.259 . S
O107 Mg98 2.114 . S
O107 C110 1.252 . S
O108 Mg98 2.251 . S
O108 Mg101 2.079 . S
O108 C110 1.273 . S
C109 O105 1.246 . S
C109 O106 1.259 . S
C110 O107 1.252 . S
C110 O108 1.273 . S
O111 Mg98 2.010 . S
O111 C103 1.249 . S
Mg112 O113 2.028 . S
Mg112 O119 1.986 . S
Mg112 O121 2.114 . S
Mg112 O122 2.251 . S
Mg112 O125 2.010 . S
O113 Mg112 2.028 . S
O113 C116 1.250 . S
O114 Mg115 2.028 . S
O114 C116 1.248 . S
Mg115 O114 2.028 . S
Mg115 O120 2.032 . S
Mg115 O122 2.079 . S
C116 O113 1.250 . S
C116 O114 1.248 . S
C117 O118 1.264 . S
C117 O125 1.249 . S
O118 C117 1.264 . S
O119 Mg112 1.986 . S
O119 C123 1.246 . S
O120 Mg115 2.032 . S
O120 C123 1.259 . S
O121 Mg112 2.114 . S
O121 C124 1.252 . S
O122 Mg112 2.251 . S
O122 Mg115 2.079 . S
O122 C124 1.273 . S
C123 O119 1.246 . S
C123 O120 1.259 . S
C124 O121 1.252 . S
C124 O122 1.273 . S
O125 Mg112 2.010 . S
O125 C117 1.249 . S
Mg126 O127 2.028 . S
Mg126 O133 1.986 . S
Mg126 O135 2.114 . S
Mg126 O136 2.251 . S
Mg126 O139 2.010 . S
O127 Mg126 2.028 . S
O127 C130 1.250 . S
O128 Mg129 2.028 . S
O128 C130 1.248 . S
Mg129 O128 2.028 . S
Mg129 O134 2.032 . S
Mg129 O136 2.079 . S
C130 O127 1.250 . S
C130 O128 1.248 . S
C131 O132 1.264 . S
C131 O139 1.249 . S
O132 C131 1.264 . S
O133 Mg126 1.986 . S
O133 C137 1.246 . S
O134 Mg129 2.032 . S
O134 C137 1.259 . S
O135 Mg126 2.114 . S
O135 C138 1.252 . S
O136 Mg126 2.251 . S
O136 Mg129 2.079 . S
O136 C138 1.273 . S
C137 O133 1.246 . S
C137 O134 1.259 . S
C138 O135 1.252 . S
C138 O136 1.273 . S
O139 Mg126 2.010 . S
O139 C131 1.249 . S
Mg140 O141 2.028 . S
Mg140 O147 1.986 . S
Mg140 O149 2.114 . S
Mg140 O150 2.251 . S
Mg140 O153 2.010 . S
O141 Mg140 2.028 . S
O141 C144 1.250 . S
O142 Mg143 2.028 . S
O142 C144 1.248 . S
Mg143 O142 2.028 . S
Mg143 O148 2.032 . S
Mg143 O150 2.079 . S
C144 O141 1.250 . S
C144 O142 1.248 . S
C145 O146 1.264 . S
C145 O153 1.249 . S
O146 C145 1.264 . S
O147 Mg140 1.986 . S
O147 C151 1.246 . S
O148 Mg143 2.032 . S
O148 C151 1.259 . S
O149 Mg140 2.114 . S
O149 C152 1.252 . S
O150 Mg140 2.251 . S
O150 Mg143 2.079 . S
O150 C152 1.273 . S
C151 O147 1.246 . S
C151 O148 1.259 . S
C152 O149 1.252 . S
C152 O150 1.273 . S
O153 Mg140 2.010 . S
O153 C145 1.249 . S
Mg154 O155 2.028 . S
Mg154 O161 1.986 . S
Mg154 O163 2.114 . S
Mg154 O164 2.251 . S
Mg154 O167 2.010 . S
O155 Mg154 2.028 . S
O155 C158 1.250 . S
O156 Mg157 2.028 . S
O156 C158 1.248 . S
Mg157 O156 2.028 . S
Mg157 O162 2.032 . S
Mg157 O164 2.079 . S
C158 O155 1.250 . S
C158 O156 1.248 . S
C159 O160 1.264 . S
C159 O167 1.249 . S
O160 C159 1.264 . S
O161 Mg154 1.986 . S
O161 C165 1.246 . S
O162 Mg157 2.032 . S
O162 C165 1.259 . S
O163 Mg154 2.114 . S
O163 C166 1.252 . S
O164 Mg154 2.251 . S
O164 Mg157 2.079 . S
O164 C166 1.273 . S
C165 O161 1.246 . S
C165 O162 1.259 . S
C166 O163 1.252 . S
C166 O164 1.273 . S
O167 Mg154 2.010 . S
O167 C159 1.249 . S
Mg168 O169 2.028 . S
Mg168 O175 1.986 . S
Mg168 O177 2.114 . S
Mg168 O178 2.251 . S
Mg168 O181 2.010 . S
O169 Mg168 2.028 . S
O169 C172 1.250 . S
O170 Mg171 2.028 . S
O170 C172 1.248 . S
Mg171 O170 2.028 . S
Mg171 O176 2.032 . S
Mg171 O178 2.079 . S
C172 O169 1.250 . S
C172 O170 1.248 . S
C173 O174 1.264 . S
C173 O181 1.249 . S
O174 C173 1.264 . S
O175 Mg168 1.986 . S
O175 C179 1.246 . S
O176 Mg171 2.032 . S
O176 C179 1.259 . S
O177 Mg168 2.114 . S
O177 C180 1.252 . S
O178 Mg168 2.251 . S
O178 Mg171 2.079 . S
O178 C180 1.273 . S
C179 O175 1.246 . S
C179 O176 1.259 . S
C180 O177 1.252 . S
C180 O178 1.273 . S
O181 Mg168 2.010 . S
O181 C173 1.249 . S
Mg182 O183 2.028 . S
Mg182 O189 1.986 . S
Mg182 O191 2.114 . S
Mg182 O192 2.251 . S
Mg182 O195 2.010 . S
O183 Mg182 2.028 . S
O183 C186 1.250 . S
O184 Mg185 2.028 . S
O184 C186 1.248 . S
Mg185 O184 2.028 . S
Mg185 O190 2.032 . S
Mg185 O192 2.079 . S
C186 O183 1.250 . S
C186 O184 1.248 . S
C187 O188 1.264 . S
C187 O195 1.249 . S
O188 C187 1.264 . S
O189 Mg182 1.986 . S
O189 C193 1.246 . S
O190 Mg185 2.032 . S
O190 C193 1.259 . S
O191 Mg182 2.114 . S
O191 C194 1.252 . S
O192 Mg182 2.251 . S
O192 Mg185 2.079 . S
O192 C194 1.273 . S
C193 O189 1.246 . S
C193 O190 1.259 . S
C194 O191 1.252 . S
C194 O192 1.273 . S
O195 Mg182 2.010 . S
O195 C187 1.249 . S
Mg196 O197 2.028 . S
Mg196 O203 1.986 . S
Mg196 O205 2.114 . S
Mg196 O206 2.251 . S
Mg196 O209 2.010 . S
O197 Mg196 2.028 . S
O197 C200 1.250 . S
O198 Mg199 2.028 . S
O198 C200 1.248 . S
Mg199 O198 2.028 . S
Mg199 O204 2.032 . S
Mg199 O206 2.079 . S
C200 O197 1.250 . S
C200 O198 1.248 . S
C201 O202 1.264 . S
C201 O209 1.249 . S
O202 C201 1.264 . S
O203 Mg196 1.986 . S
O203 C207 1.246 . S
O204 Mg199 2.032 . S
O204 C207 1.259 . S
O205 Mg196 2.114 . S
O205 C208 1.252 . S
O206 Mg196 2.251 . S
O206 Mg199 2.079 . S
O206 C208 1.273 . S
C207 O203 1.246 . S
C207 O204 1.259 . S
C208 O205 1.252 . S
C208 O206 1.273 . S
O209 Mg196 2.010 . S
O209 C201 1.249 . S
Mg210 O211 2.028 . S
Mg210 O217 1.986 . S
Mg210 O219 2.114 . S
Mg210 O220 2.251 . S
Mg210 O223 2.010 . S
O211 Mg210 2.028 . S
O211 C214 1.250 . S
O212 Mg213 2.028 . S
O212 C214 1.248 . S
Mg213 O212 2.028 . S
Mg213 O218 2.032 . S
Mg213 O220 2.079 . S
C214 O211 1.250 . S
C214 O212 1.248 . S
C215 O216 1.264 . S
C215 O223 1.249 . S
O216 C215 1.264 . S
O217 Mg210 1.986 . S
O217 C221 1.246 . S
O218 Mg213 2.032 . S
O218 C221 1.259 . S
O219 Mg210 2.114 . S
O219 C222 1.252 . S
O220 Mg210 2.251 . S
O220 Mg213 2.079 . S
O220 C222 1.273 . S
C221 O217 1.246 . S
C221 O218 1.259 . S
C222 O219 1.252 . S
C222 O220 1.273 . S
O223 Mg210 2.010 . S
O223 C215 1.249 . S
C224 C225 1.387 . S
C224 H228 0.950 . S
C224 C233 1.390 . S
C225 C224 1.387 . S
C225 C227 1.387 . S
H226 C233 0.950 . S
C227 C225 1.387 . S
C227 C229 1.390 . S
C227 H231 0.950 . S
H228 C224 0.950 . S
C229 C227 1.390 . S
C229 C230 1.387 . S
C229 H232 0.950 . S
C230 C229 1.387 . S
C230 C233 1.387 . S
H231 C227 0.950 . S
H232 C229 0.950 . S
C233 C224 1.390 . S
C233 H226 0.950 . S
C233 C230 1.387 . S
C234 C235 1.387 . S
C234 H238 0.950 . S
C234 C243 1.390 . S
C235 C234 1.387 . S
C235 C237 1.387 . S
H236 C243 0.950 . S
C237 C235 1.387 . S
C237 C239 1.390 . S
C237 H241 0.950 . S
H238 C234 0.950 . S
C239 C237 1.390 . S
C239 C240 1.387 . S
C239 H242 0.950 . S
C240 C239 1.387 . S
C240 C243 1.387 . S
H241 C237 0.950 . S
H242 C239 0.950 . S
C243 C234 1.390 . S
C243 H236 0.950 . S
C243 C240 1.387 . S
C244 C245 1.387 . S
C244 H248 0.950 . S
C244 C253 1.390 . S
C245 C244 1.387 . S
C245 C247 1.387 . S
H246 C253 0.950 . S
C247 C245 1.387 . S
C247 C249 1.390 . S
C247 H251 0.950 . S
H248 C244 0.950 . S
C249 C247 1.390 . S
C249 C250 1.387 . S
C249 H252 0.950 . S
C250 C249 1.387 . S
C250 C253 1.387 . S
H251 C247 0.950 . S
H252 C249 0.950 . S
C253 C244 1.390 . S
C253 H246 0.950 . S
C253 C250 1.387 . S
C254 C255 1.387 . S
C254 H258 0.950 . S
C254 C263 1.390 . S
C255 C254 1.387 . S
C255 C257 1.387 . S
H256 C263 0.950 . S
C257 C255 1.387 . S
C257 C259 1.390 . S
C257 H261 0.950 . S
H258 C254 0.950 . S
C259 C257 1.390 . S
C259 C260 1.387 . S
C259 H262 0.950 . S
C260 C259 1.387 . S
C260 C263 1.387 . S
H261 C257 0.950 . S
H262 C259 0.950 . S
C263 C254 1.390 . S
C263 H256 0.950 . S
C263 C260 1.387 . S
C264 C265 1.387 . S
C264 H268 0.950 . S
C264 C273 1.390 . S
C265 C264 1.387 . S
C265 C267 1.387 . S
H266 C273 0.950 . S
C267 C265 1.387 . S
C267 C269 1.390 . S
C267 H271 0.950 . S
H268 C264 0.950 . S
C269 C267 1.390 . S
C269 C270 1.387 . S
C269 H272 0.950 . S
C270 C269 1.387 . S
C270 C273 1.387 . S
H271 C267 0.950 . S
H272 C269 0.950 . S
C273 C264 1.390 . S
C273 H266 0.950 . S
C273 C270 1.387 . S
C274 C275 1.387 . S
C274 H278 0.950 . S
C274 C283 1.390 . S
C275 C274 1.387 . S
C275 C277 1.387 . S
H276 C283 0.950 . S
C277 C275 1.387 . S
C277 C279 1.390 . S
C277 H281 0.950 . S
H278 C274 0.950 . S
C279 C277 1.390 . S
C279 C280 1.387 . S
C279 H282 0.950 . S
C280 C279 1.387 . S
C280 C283 1.387 . S
H281 C277 0.950 . S
H282 C279 0.950 . S
C283 C274 1.390 . S
C283 H276 0.950 . S
C283 C280 1.387 . S
C284 C285 1.387 . S
C284 H288 0.950 . S
C284 C293 1.390 . S
C285 C284 1.387 . S
C285 C287 1.387 . S
H286 C293 0.950 . S
C287 C285 1.387 . S
C287 C289 1.390 . S
C287 H291 0.950 . S
H288 C284 0.950 . S
C289 C287 1.390 . S
C289 C290 1.387 . S
C289 H292 0.950 . S
C290 C289 1.387 . S
C290 C293 1.387 . S
H291 C287 0.950 . S
H292 C289 0.950 . S
C293 C284 1.390 . S
C293 H286 0.950 . S
C293 C290 1.387 . S
C294 C295 1.387 . S
C294 H298 0.950 . S
C294 C303 1.390 . S
C295 C294 1.387 . S
C295 C297 1.387 . S
H296 C303 0.950 . S
C297 C295 1.387 . S
C297 C299 1.390 . S
C297 H301 0.950 . S
H298 C294 0.950 . S
C299 C297 1.390 . S
C299 C300 1.387 . S
C299 H302 0.950 . S
C300 C299 1.387 . S
C300 C303 1.387 . S
H301 C297 0.950 . S
H302 C299 0.950 . S
C303 C294 1.390 . S
C303 H296 0.950 . S
C303 C300 1.387 . S
C304 C305 1.387 . S
C304 H308 0.950 . S
C304 C313 1.390 1_556 S
C305 C304 1.387 . S
C305 C307 1.387 . S
H306 C313 0.950 . S
C307 C305 1.387 . S
C307 C309 1.390 1_556 S
C307 H311 0.950 . S
H308 C304 0.950 . S
C309 C307 1.390 1_554 S
C309 C310 1.387 . S
C309 H312 0.950 . S
C310 C309 1.387 . S
C310 C313 1.387 . S
H311 C307 0.950 . S
H312 C309 0.950 . S
C313 C304 1.390 1_554 S
C313 H306 0.950 . S
C313 C310 1.387 . S
C314 C315 1.387 . S
C314 H318 0.950 . S
C314 C323 1.390 1_556 S
C315 C314 1.387 . S
C315 C317 1.387 . S
H316 C323 0.950 . S
C317 C315 1.387 . S
C317 C319 1.390 1_556 S
C317 H321 0.950 . S
H318 C314 0.950 . S
C319 C317 1.390 1_554 S
C319 C320 1.387 . S
C319 H322 0.950 . S
C320 C319 1.387 . S
C320 C323 1.387 . S
H321 C317 0.950 . S
H322 C319 0.950 . S
C323 C314 1.390 1_554 S
C323 H316 0.950 . S
C323 C320 1.387 . S
C324 C325 1.387 . S
C324 H328 0.950 . S
C324 C333 1.390 1_556 S
C325 C324 1.387 . S
C325 C327 1.387 . S
H326 C333 0.950 . S
C327 C325 1.387 . S
C327 C329 1.390 1_556 S
C327 H331 0.950 . S
H328 C324 0.950 . S
C329 C327 1.390 1_554 S
C329 C330 1.387 . S
C329 H332 0.950 . S
C330 C329 1.387 . S
C330 C333 1.387 . S
H331 C327 0.950 . S
H332 C329 0.950 . S
C333 C324 1.390 1_554 S
C333 H326 0.950 . S
C333 C330 1.387 . S
C334 C335 1.387 . S
C334 H338 0.950 . S
C334 C343 1.390 1_554 S
C335 C334 1.387 . S
C335 C337 1.387 . S
H336 C343 0.950 . S
C337 C335 1.387 . S
C337 C339 1.390 1_554 S
C337 H341 0.950 . S
H338 C334 0.950 . S
C339 C337 1.390 1_556 S
C339 C340 1.387 . S
C339 H342 0.950 . S
C340 C339 1.387 . S
C340 C343 1.387 . S
H341 C337 0.950 . S
H342 C339 0.950 . S
C343 C334 1.390 1_556 S
C343 H336 0.950 . S
C343 C340 1.387 . S
C344 C345 1.387 . S
C344 H348 0.950 . S
C344 C353 1.390 . S
C345 C344 1.387 . S
C345 C347 1.387 . S
H346 C353 0.950 . S
C347 C345 1.387 . S
C347 C349 1.390 . S
C347 H351 0.950 . S
H348 C344 0.950 . S
C349 C347 1.390 . S
C349 C350 1.387 . S
C349 H352 0.950 . S
C350 C349 1.387 . S
C350 C353 1.387 . S
H351 C347 0.950 . S
H352 C349 0.950 . S
C353 C344 1.390 . S
C353 H346 0.950 . S
C353 C350 1.387 . S
C354 C355 1.387 . S
C354 H358 0.950 . S
C354 C363 1.390 . S
C355 C354 1.387 . S
C355 C357 1.387 . S
H356 C363 0.950 . S
C357 C355 1.387 . S
C357 C359 1.390 . S
C357 H361 0.950 . S
H358 C354 0.950 . S
C359 C357 1.390 . S
C359 C360 1.387 . S
C359 H362 0.950 . S
C360 C359 1.387 . S
C360 C363 1.387 . S
H361 C357 0.950 . S
H362 C359 0.950 . S
C363 C354 1.390 . S
C363 H356 0.950 . S
C363 C360 1.387 . S
C364 C365 1.387 . S
C364 H368 0.950 . S
C364 C373 1.390 . S
C365 C364 1.387 . S
C365 C367 1.387 . S
H366 C373 0.950 . S
C367 C365 1.387 . S
C367 C369 1.390 . S
C367 H371 0.950 . S
H368 C364 0.950 . S
C369 C367 1.390 . S
C369 C370 1.387 . S
C369 H372 0.950 . S
C370 C369 1.387 . S
C370 C373 1.387 . S
H371 C367 0.950 . S
H372 C369 0.950 . S
C373 C364 1.390 . S
C373 H366 0.950 . S
C373 C370 1.387 . S
C374 C375 1.387 . S
C374 H378 0.950 . S
C374 C383 1.390 . S
C375 C374 1.387 . S
C375 C377 1.387 . S
H376 C383 0.950 . S
C377 C375 1.387 . S
C377 C379 1.390 . S
C377 H381 0.950 . S
H378 C374 0.950 . S
C379 C377 1.390 . S
C379 C380 1.387 . S
C379 H382 0.950 . S
C380 C379 1.387 . S
C380 C383 1.387 . S
H381 C377 0.950 . S
H382 C379 0.950 . S
C383 C374 1.390 . S
C383 H376 0.950 . S
C383 C380 1.387 . S
C384 C385 1.387 . S
C384 H388 0.950 . S
C384 C393 1.390 . S
C385 C384 1.387 . S
C385 C387 1.387 . S
H386 C393 0.950 . S
C387 C385 1.387 . S
C387 C389 1.390 . S
C387 H391 0.950 . S
H388 C384 0.950 . S
C389 C387 1.390 . S
C389 C390 1.387 . S
C389 H392 0.950 . S
C390 C389 1.387 . S
C390 C393 1.387 . S
H391 C387 0.950 . S
H392 C389 0.950 . S
C393 C384 1.390 . S
C393 H386 0.950 . S
C393 C390 1.387 . S
C394 C395 1.387 . S
C394 H398 0.950 . S
C394 C403 1.390 . S
C395 C394 1.387 . S
C395 C397 1.387 . S
H396 C403 0.950 . S
C397 C395 1.387 . S
C397 C399 1.390 . S
C397 H401 0.950 . S
H398 C394 0.950 . S
C399 C397 1.390 . S
C399 C400 1.387 . S
C399 H402 0.950 . S
C400 C399 1.387 . S
C400 C403 1.387 . S
H401 C397 0.950 . S
H402 C399 0.950 . S
C403 C394 1.390 . S
C403 H396 0.950 . S
C403 C400 1.387 . S
C404 C405 1.387 . S
C404 H408 0.950 . S
C404 C413 1.390 . S
C405 C404 1.387 . S
C405 C407 1.387 . S
H406 C413 0.950 . S
C407 C405 1.387 . S
C407 C409 1.390 . S
C407 H411 0.950 . S
H408 C404 0.950 . S
C409 C407 1.390 . S
C409 C410 1.387 . S
C409 H412 0.950 . S
C410 C409 1.387 . S
C410 C413 1.387 . S
H411 C407 0.950 . S
H412 C409 0.950 . S
C413 C404 1.390 . S
C413 H406 0.950 . S
C413 C410 1.387 . S
C414 C415 1.387 . S
C414 H418 0.950 . S
C414 C423 1.390 . S
C415 C414 1.387 . S
C415 C417 1.387 . S
H416 C423 0.950 . S
C417 C415 1.387 . S
C417 C419 1.390 . S
C417 H421 0.950 . S
H418 C414 0.950 . S
C419 C417 1.390 . S
C419 C420 1.387 . S
C419 H422 0.950 . S
C420 C419 1.387 . S
C420 C423 1.387 . S
H421 C417 0.950 . S
H422 C419 0.950 . S
C423 C414 1.390 . S
C423 H416 0.950 . S
C423 C420 1.387 . S
C424 C425 1.387 . S
C424 H428 0.950 . S
C424 C433 1.390 . S
C425 C424 1.387 . S
C425 C427 1.387 . S
H426 C433 0.950 . S
C427 C425 1.387 . S
C427 C429 1.390 . S
C427 H431 0.950 . S
H428 C424 0.950 . S
C429 C427 1.390 . S
C429 C430 1.387 . S
C429 H432 0.950 . S
C430 C429 1.387 . S
C430 C433 1.387 . S
H431 C427 0.950 . S
H432 C429 0.950 . S
C433 C424 1.390 . S
C433 H426 0.950 . S
C433 C430 1.387 . S
C434 C435 1.387 . S
C434 H438 0.950 . S
C434 C443 1.390 . S
C435 C434 1.387 . S
C435 C437 1.387 . S
H436 C443 0.950 . S
C437 C435 1.387 . S
C437 C439 1.390 . S
C437 H441 0.950 . S
H438 C434 0.950 . S
C439 C437 1.390 . S
C439 C440 1.387 . S
C439 H442 0.950 . S
C440 C439 1.387 . S
C440 C443 1.387 . S
H441 C437 0.950 . S
H442 C439 0.950 . S
C443 C434 1.390 . S
C443 H436 0.950 . S
C443 C440 1.387 . S
C444 C445 1.387 . S
C444 H448 0.950 . S
C444 C453 1.390 . S
C445 C444 1.387 . S
C445 C447 1.387 . S
H446 C453 0.950 . S
C447 C445 1.387 . S
C447 C449 1.390 . S
C447 H451 0.950 . S
H448 C444 0.950 . S
C449 C447 1.390 . S
C449 C450 1.387 . S
C449 H452 0.950 . S
C450 C449 1.387 . S
C450 C453 1.387 . S
H451 C447 0.950 . S
H452 C449 0.950 . S
C453 C444 1.390 . S
C453 H446 0.950 . S
C453 C450 1.387 . S
C454 C455 1.387 . S
C454 H458 0.950 . S
C454 C463 1.390 . S
C455 C454 1.387 . S
C455 C457 1.387 . S
H456 C463 0.950 . S
C457 C455 1.387 . S
C457 C459 1.390 . S
C457 H461 0.950 . S
H458 C454 0.950 . S
C459 C457 1.390 . S
C459 C460 1.387 . S
C459 H462 0.950 . S
C460 C459 1.387 . S
C460 C463 1.387 . S
H461 C457 0.950 . S
H462 C459 0.950 . S
C463 C454 1.390 . S
C463 H456 0.950 . S
C463 C460 1.387 . S
C464 C465 1.387 . S
C464 H468 0.950 . S
C464 C473 1.390 1_545 S
C465 C464 1.387 . S
C465 C467 1.387 . S
H466 C473 0.950 . S
C467 C465 1.387 . S
C467 C469 1.390 1_545 S
C467 H471 0.950 . S
H468 C464 0.950 . S
C469 C467 1.390 1_565 S
C469 C470 1.387 . S
C469 H472 0.950 . S
C470 C469 1.387 . S
C470 C473 1.387 . S
H471 C467 0.950 . S
H472 C469 0.950 . S
C473 C464 1.390 1_565 S
C473 H466 0.950 . S
C473 C470 1.387 . S
C474 C475 1.387 . S
C474 H478 0.950 . S
C474 C483 1.390 1_655 S
C475 C474 1.387 . S
C475 C477 1.387 . S
H476 C483 0.950 . S
C477 C475 1.387 . S
C477 C479 1.390 1_655 S
C477 H481 0.950 . S
H478 C474 0.950 . S
C479 C477 1.390 1_455 S
C479 C480 1.387 . S
C479 H482 0.950 . S
C480 C479 1.387 . S
C480 C483 1.387 . S
H481 C477 0.950 . S
H482 C479 0.950 . S
C483 C474 1.390 1_455 S
C483 H476 0.950 . S
C483 C480 1.387 . S
C484 C485 1.387 . S
C484 H488 0.950 . S
C484 C493 1.390 1_545 S
C485 C484 1.387 . S
C485 C487 1.387 . S
H486 C493 0.950 . S
C487 C485 1.387 . S
C487 C489 1.390 1_545 S
C487 H491 0.950 . S
H488 C484 0.950 . S
C489 C487 1.390 1_565 S
C489 C490 1.387 . S
C489 H492 0.950 . S
C490 C489 1.387 . S
C490 C493 1.387 . S
H491 C487 0.950 . S
H492 C489 0.950 . S
C493 C484 1.390 1_565 S
C493 H486 0.950 . S
C493 C490 1.387 . S
C494 C495 1.387 . S
C494 H498 0.950 . S
C494 C503 1.390 1_455 S
C495 C494 1.387 . S
C495 C497 1.387 . S
H496 C503 0.950 . S
C497 C495 1.387 . S
C497 C499 1.390 1_455 S
C497 H501 0.950 . S
H498 C494 0.950 . S
C499 C497 1.390 1_655 S
C499 C500 1.387 . S
C499 H502 0.950 . S
C500 C499 1.387 . S
C500 C503 1.387 . S
H501 C497 0.950 . S
H502 C499 0.950 . S
C503 C494 1.390 1_655 S
C503 H496 0.950 . S
C503 C500 1.387 . S
C504 C505 1.387 . S
C504 H508 0.950 . S
C504 C513 1.390 1_545 S
C505 C504 1.387 . S
C505 C507 1.387 . S
H506 C513 0.950 . S
C507 C505 1.387 . S
C507 C509 1.390 1_545 S
C507 H511 0.950 . S
H508 C504 0.950 . S
C509 C507 1.390 1_565 S
C509 C510 1.387 . S
C509 H512 0.950 . S
C510 C509 1.387 . S
C510 C513 1.387 . S
H511 C507 0.950 . S
H512 C509 0.950 . S
C513 C504 1.390 1_565 S
C513 H506 0.950 . S
C513 C510 1.387 . S
C514 C515 1.387 . S
C514 H518 0.950 . S
C514 C523 1.390 1_655 S
C515 C514 1.387 . S
C515 C517 1.387 . S
H516 C523 0.950 . S
C517 C515 1.387 . S
C517 C519 1.390 1_655 S
C517 H521 0.950 . S
H518 C514 0.950 . S
C519 C517 1.390 1_455 S
C519 C520 1.387 . S
C519 H522 0.950 . S
C520 C519 1.387 . S
C520 C523 1.387 . S
H521 C517 0.950 . S
H522 C519 0.950 . S
C523 C514 1.390 1_455 S
C523 H516 0.950 . S
C523 C520 1.387 . S
C524 C525 1.387 . S
C524 H528 0.950 . S
C524 C533 1.390 1_565 S
C525 C524 1.387 . S
C525 C527 1.387 . S
H526 C533 0.950 . S
C527 C525 1.387 . S
C527 C529 1.390 1_565 S
C527 H531 0.950 . S
H528 C524 0.950 . S
C529 C527 1.390 1_545 S
C529 C530 1.387 . S
C529 H532 0.950 . S
C530 C529 1.387 . S
C530 C533 1.387 . S
H531 C527 0.950 . S
H532 C529 0.950 . S
C533 C524 1.390 1_545 S
C533 H526 0.950 . S
C533 C530 1.387 . S
C534 C535 1.387 . S
C534 H538 0.950 . S
C534 C543 1.390 1_455 S
C535 C534 1.387 . S
C535 C537 1.387 . S
H536 C543 0.950 . S
C537 C535 1.387 . S
C537 C539 1.390 1_455 S
C537 H541 0.950 . S
H538 C534 0.950 . S
C539 C537 1.390 1_655 S
C539 C540 1.387 . S
C539 H542 0.950 . S
C540 C539 1.387 . S
C540 C543 1.387 . S
H541 C537 0.950 . S
H542 C539 0.950 . S
C543 C534 1.390 1_655 S
C543 H536 0.950 . S
C543 C540 1.387 . S
C225 C81 1.286 . S
C230 C11 1.284 . S
C235 C95 1.286 . S
C240 C25 1.286 . S
C245 C39 1.284 . S
C250 C109 1.286 . S
C255 C53 1.286 . S
C260 C67 1.284 . S
C265 C193 1.284 . S
C270 C123 1.284 . S
C275 C207 1.284 . S
C280 C137 1.286 . S
C285 C151 1.285 . S
C290 C221 1.284 . S
C295 C165 1.284 . S
C300 C179 1.286 . S
C305 C152 1.547 . S
C310 C12 1.547 . S
C315 C166 1.548 . S
C320 C26 1.548 . S
C325 C124 1.547 . S
C330 C40 1.547 . S
C335 C54 1.547 . S
C340 C138 1.547 . S
C345 C208 1.548 . S
C350 C68 1.548 . S
C355 C222 1.548 . S
C360 C82 1.548 . S
C365 C96 1.547 . S
C370 C180 1.547 . S
C375 C194 1.548 . S
C380 C110 1.548 . S
C385 C61 1.125 . S
C390 C5 1.125 . S
C395 C19 1.121 . S
C400 C75 1.121 . S
C405 C33 1.121 . S
C410 C89 1.121 . S
C415 C103 1.125 . S
C420 C47 1.125 . S
C425 C116 1.646 . S
C430 C172 1.646 . S
C435 C186 1.646 . S
C440 C130 1.646 . S
C445 C144 1.646 . S
C450 C200 1.646 . S
C455 C214 1.646 . S
C460 C158 1.646 . S
C465 C159 1.121 . S
C470 C187 1.121 . S
C475 C117 1.121 . S
C480 C201 1.121 . S
C485 C215 1.121 . S
C490 C131 1.121 . S
C495 C145 1.125 . S
C500 C173 1.125 . S
C505 C74 1.646 . S
C510 C46 1.646 . S
C515 C88 1.646 . S
C520 C4 1.646 . S
C525 C102 1.646 . S
C530 C18 1.646 . S
C535 C60 1.646 . S
C540 C32 1.646 . S
