# Generated by pormake.
# Topology vma, (5)-cn, num edge types: 1
# Building blocks:
#     Node 0, Type 0, BuildingBlock: XOMCOT_clean_sbu_1, # of connection points: 5
#     Node 1, Type 0, BuildingBlock: XOMCOT_clean_sbu_1, # of connection points: 5
#     Node 2, Type 0, BuildingBlock: XOMCOT_clean_sbu_1, # of connection points: 5
#     Node 3, Type 0, BuildingBlock: XOMCOT_clean_sbu_1, # of connection points: 5
#     Node 4, Type 0, BuildingBlock: XOMCOT_clean_sbu_1, # of connection points: 5
#     Node 5, Type 0, BuildingBlock: XOMCOT_clean_sbu_1, # of connection points: 5
#     Node 6, Type 0, BuildingBlock: XOMCOT_clean_sbu_1, # of connection points: 5
#     Node 7, Type 0, BuildingBlock: XOMCOT_clean_sbu_1, # of connection points: 5
#     Edge 8, Type (0, 0), BuildingBlock: XUDNAN_clean_linker_2, # of connection points: 2
#     Edge 9, Type (0, 0), BuildingBlock: XUDNAN_clean_linker_2, # of connection points: 2
#     Edge 10, Type (0, 0), BuildingBlock: XUDNAN_clean_linker_2, # of connection points: 2
#     Edge 11, Type (0, 0), BuildingBlock: XUDNAN_clean_linker_2, # of connection points: 2
#     Edge 12, Type (0, 0), BuildingBlock: XUDNAN_clean_linker_2, # of connection points: 2
#     Edge 13, Type (0, 0), BuildingBlock: XUDNAN_clean_linker_2, # of connection points: 2
#     Edge 14, Type (0, 0), BuildingBlock: XUDNAN_clean_linker_2, # of connection points: 2
#     Edge 15, Type (0, 0), BuildingBlock: XUDNAN_clean_linker_2, # of connection points: 2
#     Edge 16, Type (0, 0), BuildingBlock: XUDNAN_clean_linker_2, # of connection points: 2
#     Edge 17, Type (0, 0), BuildingBlock: XUDNAN_clean_linker_2, # of connection points: 2
#     Edge 18, Type (0, 0), BuildingBlock: XUDNAN_clean_linker_2, # of connection points: 2
#     Edge 19, Type (0, 0), BuildingBlock: XUDNAN_clean_linker_2, # of connection points: 2
#     Edge 20, Type (0, 0), BuildingBlock: XUDNAN_clean_linker_2, # of connection points: 2
#     Edge 21, Type (0, 0), BuildingBlock: XUDNAN_clean_linker_2, # of connection points: 2
#     Edge 22, Type (0, 0), BuildingBlock: XUDNAN_clean_linker_2, # of connection points: 2
#     Edge 23, Type (0, 0), BuildingBlock: XUDNAN_clean_linker_2, # of connection points: 2
#     Edge 24, Type (0, 0), BuildingBlock: XUDNAN_clean_linker_2, # of connection points: 2
#     Edge 25, Type (0, 0), BuildingBlock: XUDNAN_clean_linker_2, # of connection points: 2
#     Edge 26, Type (0, 0), BuildingBlock: XUDNAN_clean_linker_2, # of connection points: 2
#     Edge 27, Type (0, 0), BuildingBlock: XUDNAN_clean_linker_2, # of connection points: 2
# Relax obj value: 0.095
# Max RMSD: 0.173
# Mean RMSD: 0.170
data_MOF--net-vma--node1-XOMCOT_clean_sbu_1--edge1-XUDNAN_clean_linker_2
_symmetry_space_group_name_H-M    P1
_symmetry_Int_Tables_number       1
_symmetry_cell_setting            triclinic
loop_
_symmetry_equiv_pos_as_xyz
'x, y, z'
_cell_length_a     40.711303
_cell_length_b     28.433157
_cell_length_c     36.891178
_cell_angle_alpha  90.062258
_cell_angle_beta   100.40595
_cell_angle_gamma 89.938656
loop_
_atom_site_label
_atom_site_type_symbol
_atom_site_fract_x
_atom_site_fract_y
_atom_site_fract_z
_atom_type_partial_charge
C0 C 0.35314 0.13088 0.29901 0.0
C1 C 0.37676 0.12979 0.27678 0.0
N2 N 0.40689 0.12089 0.2977 0.0
N3 N 0.3679 0.12296 0.33414 0.0
C4 C 0.40086 0.11761 0.33263 0.0
H5 H 0.32663 0.1362 0.28999 0.0
Co6 Co 0.34331 0.11994 0.37307 0.0
C7 C 0.3936 0.05653 0.42005 0.0
O8 O 0.37571 0.01855 0.41111 0.0
N9 N 0.31833 0.1189 0.41282 0.0
C10 C 0.29771 0.0993 0.46297 0.0
C11 C 0.31927 0.08657 0.43986 0.0
C12 C 0.29536 0.15066 0.42021 0.0
N13 N 0.28257 0.13971 0.45056 0.0
O14 O 0.35593 0.18345 0.38465 0.0
H15 H 0.33408 0.05502 0.4427 0.0
H16 H 0.2881 0.18171 0.404 0.0
O17 O 0.38319 0.09677 0.40719 0.0
C18 C 0.33319 0.20712 0.36419 0.0
O19 O 0.30807 0.18446 0.34431 0.0
N20 N 0.32733 0.05922 0.3566 0.0
C21 C 0.29543 0.98779 0.31122 0.0
C22 C 0.33015 0.99287 0.3166 0.0
C23 C 0.34562 0.02874 0.33937 0.0
C24 C 0.29345 0.05379 0.35205 0.0
C25 C 0.27714 0.0177 0.3302 0.0
H26 H 0.37223 0.03331 0.34156 0.0
H27 H 0.27832 0.07955 0.36293 0.0
H28 H 0.41981 0.10963 0.35637 0.0
H29 H 0.37184 0.13496 0.24725 0.0
H30 H 0.2931 0.07974 0.4867 0.0
H31 H 0.34509 0.97028 0.30233 0.0
H32 H 0.25016 0.0153 0.32612 0.0
C33 C 0.68773 0.08374 0.25045 0.0
C34 C 0.65928 0.08334 0.26612 0.0
N35 N 0.63311 0.09648 0.24027 0.0
N36 N 0.67956 0.09697 0.21482 0.0
C37 C 0.64628 0.10511 0.2098 0.0
H38 H 0.71267 0.07419 0.26398 0.0
Co39 Co 0.70711 0.10334 0.1786 0.0
C40 C 0.65951 0.05258 0.11802 0.0
O41 O 0.68024 0.01802 0.11521 0.0
N42 N 0.73444 0.11073 0.14103 0.0
C43 C 0.7634 0.09526 0.0963 0.0
C44 C 0.74294 0.07694 0.11851 0.0
C45 C 0.75102 0.14939 0.13204 0.0
N46 N 0.76862 0.14086 0.10484 0.0
O47 O 0.69606 0.16868 0.17491 0.0
H48 H 0.73672 0.04025 0.11947 0.0
H49 H 0.75056 0.18329 0.14517 0.0
O50 O 0.66829 0.08617 0.14083 0.0
C51 C 0.71834 0.18322 0.20154 0.0
O52 O 0.73838 0.15191 0.22026 0.0
N53 N 0.72245 0.04165 0.18794 0.0
C54 C 0.7563 0.96267 0.22077 0.0
C55 C 0.72138 0.96177 0.20893 0.0
C56 C 0.70475 0.00209 0.19286 0.0
C57 C 0.75613 0.04292 0.19991 0.0
C58 C 0.7735 0.00395 0.21567 0.0
H59 H 0.67777 0.00239 0.18627 0.0
H60 H 0.76967 0.07542 0.19885 0.0
H61 H 0.63187 0.11766 0.18422 0.0
H62 H 0.65782 0.07274 0.29395 0.0
H63 H 0.77486 0.07592 0.07655 0.0
H64 H 0.70701 0.93084 0.21305 0.0
H65 H 0.80008 0.00728 0.22575 0.0
C66 C 0.6498 0.92293 0.58219 0.0
C67 C 0.62311 0.94125 0.55841 0.0
N68 N 0.59871 0.95031 0.57757 0.0
N69 N 0.64225 0.91971 0.6162 0.0
C70 C 0.61082 0.93709 0.61266 0.0
H71 H 0.67342 0.91263 0.57514 0.0
Co72 Co 0.67355 0.89524 0.65446 0.0
C73 C 0.64066 0.88234 0.71855 0.0
O74 O 0.66846 0.89835 0.73848 0.0
N75 N 0.70694 0.8689 0.69175 0.0
C76 C 0.75646 0.84609 0.72318 0.0
C77 C 0.73937 0.88138 0.70235 0.0
C78 C 0.70524 0.8256 0.70665 0.0
N79 N 0.7349 0.81115 0.72577 0.0
O80 O 0.66953 0.83516 0.63001 0.0
H81 H 0.75108 0.91223 0.69363 0.0
H82 H 0.68313 0.80372 0.70152 0.0
O83 O 0.6383 0.87866 0.68342 0.0
C84 C 0.69513 0.82698 0.6155 0.0
O85 O 0.71936 0.85808 0.61945 0.0
N86 N 0.67904 0.95587 0.67548 0.0
C87 C 0.69556 0.04469 0.70581 0.0
C88 C 0.66423 0.02462 0.70688 0.0
C89 C 0.65623 0.98049 0.69101 0.0
C90 C 0.7073 0.97767 0.6696 0.0
C91 C 0.71675 0.02107 0.68568 0.0
H92 H 0.63171 0.96647 0.69143 0.0
H93 H 0.72304 0.9607 0.65283 0.0
H94 H 0.59695 0.93948 0.635 0.0
H95 H 0.62184 0.94817 0.52932 0.0
H96 H 0.78293 0.84539 0.73446 0.0
H97 H 0.64599 0.04262 0.71991 0.0
H98 H 0.74093 0.0349 0.68302 0.0
C99 C 0.3952 0.96793 0.93028 0.0
C100 C 0.41357 0.99275 0.95885 0.0
N101 N 0.44141 0.96805 0.97222 0.0
N102 N 0.41154 0.92803 0.92481 0.0
C103 C 0.43891 0.92819 0.95175 0.0
H104 H 0.3718 0.97913 0.91381 0.0
Co105 Co 0.39735 0.88415 0.88721 0.0
C106 C 0.47097 0.897 0.87689 0.0
O107 O 0.47901 0.93336 0.89863 0.0
N108 N 0.383 0.84035 0.84938 0.0
C109 C 0.37747 0.80751 0.79393 0.0
C110 C 0.38931 0.84556 0.81488 0.0
C111 C 0.36687 0.79857 0.84853 0.0
N112 N 0.36353 0.77782 0.81509 0.0
O113 O 0.40679 0.8345 0.92276 0.0
H114 H 0.40238 0.87497 0.80555 0.0
H115 H 0.35876 0.78275 0.87202 0.0
O116 O 0.44172 0.87919 0.8732 0.0
C117 C 0.38025 0.82986 0.93633 0.0
O118 O 0.35413 0.8558 0.92304 0.0
N119 N 0.3844 0.93313 0.85386 0.0
C120 C 0.35439 0.00716 0.81081 0.0
C121 C 0.38927 0.00506 0.82135 0.0
C122 C 0.40388 0.96766 0.84315 0.0
C123 C 0.35061 0.93421 0.84314 0.0
C124 C 0.33514 0.97048 0.82128 0.0
H125 H 0.43046 0.96782 0.85256 0.0
H126 H 0.33549 0.90708 0.85246 0.0
H127 H 0.45714 0.90009 0.95547 0.0
H128 H 0.40745 0.02741 0.96777 0.0
H129 H 0.37934 0.80179 0.76535 0.0
H130 H 0.40497 0.03307 0.81428 0.0
H131 H 0.30819 0.97031 0.81337 0.0
C132 C 0.85421 0.61307 0.30073 0.0
C133 C 0.87559 0.61438 0.27583 0.0
N134 N 0.90732 0.61302 0.2945 0.0
N135 N 0.87217 0.61079 0.3351 0.0
C136 C 0.90444 0.61137 0.33047 0.0
H137 H 0.82722 0.61334 0.29422 0.0
Co138 Co 0.85408 0.60814 0.37852 0.0
C139 C 0.91102 0.5495 0.42012 0.0
O140 O 0.89304 0.51092 0.41729 0.0
N141 N 0.83578 0.60726 0.42293 0.0
C142 C 0.82555 0.59282 0.47937 0.0
C143 C 0.845 0.58138 0.45389 0.0
C144 C 0.81013 0.63386 0.43058 0.0
N145 N 0.80356 0.6258 0.46464 0.0
O146 O 0.86551 0.67269 0.38638 0.0
H147 H 0.86451 0.55559 0.45857 0.0
H148 H 0.79656 0.65922 0.41187 0.0
O149 O 0.89802 0.5882 0.40659 0.0
C150 C 0.84014 0.69379 0.3681 0.0
O151 O 0.81448 0.66842 0.35242 0.0
N152 N 0.83861 0.5466 0.36626 0.0
C153 C 0.80409 0.47229 0.3268 0.0
C154 C 0.83858 0.4778 0.32833 0.0
C155 C 0.85529 0.5154 0.34788 0.0
C156 C 0.80521 0.54085 0.36568 0.0
C157 C 0.78765 0.50365 0.34669 0.0
H158 H 0.88124 0.52104 0.3463 0.0
H159 H 0.79117 0.56713 0.37749 0.0
H160 H 0.92544 0.60955 0.35301 0.0
H161 H 0.86813 0.61637 0.24621 0.0
H162 H 0.82734 0.57779 0.50661 0.0
H163 H 0.85224 0.455 0.31279 0.0
H164 H 0.76109 0.50068 0.34644 0.0
C165 C 0.18704 0.60962 0.24545 0.0
C166 C 0.15828 0.60838 0.26036 0.0
N167 N 0.13188 0.61484 0.23297 0.0
N168 N 0.17882 0.61675 0.20878 0.0
C169 C 0.14514 0.62036 0.20219 0.0
H170 H 0.21227 0.60464 0.26022 0.0
Co171 Co 0.20725 0.6197 0.17369 0.0
C172 C 0.16018 0.55998 0.11715 0.0
O173 O 0.17852 0.52173 0.12031 0.0
N174 N 0.23519 0.623 0.13752 0.0
C175 C 0.26195 0.60335 0.09205 0.0
C176 C 0.24101 0.58791 0.11473 0.0
C177 C 0.25384 0.6593 0.12858 0.0
N178 N 0.27006 0.64823 0.10074 0.0
O179 O 0.19363 0.68336 0.16319 0.0
H180 H 0.23184 0.55254 0.11525 0.0
H181 H 0.25541 0.69329 0.14194 0.0
O182 O 0.17021 0.59671 0.13602 0.0
C183 C 0.20997 0.70655 0.19016 0.0
O184 O 0.2307 0.68381 0.21564 0.0
N185 N 0.22423 0.56012 0.18859 0.0
C186 C 0.25881 0.48524 0.22722 0.0
C187 C 0.22398 0.48296 0.21501 0.0
C188 C 0.207 0.52134 0.19634 0.0
C189 C 0.25782 0.563 0.20087 0.0
C190 C 0.27555 0.52606 0.21971 0.0
H191 H 0.18003 0.52083 0.18978 0.0
H192 H 0.27089 0.59539 0.19772 0.0
H193 H 0.13053 0.62706 0.1752 0.0
H194 H 0.15692 0.60172 0.28893 0.0
H195 H 0.27127 0.58274 0.07136 0.0
H196 H 0.20983 0.45246 0.22063 0.0
H197 H 0.30199 0.53071 0.22993 0.0
C198 C 0.17276 0.46435 0.61601 0.0
C199 C 0.15345 0.493 0.59064 0.0
N200 N 0.12141 0.47883 0.58683 0.0
N201 N 0.15302 0.43244 0.62845 0.0
C202 C 0.12192 0.44188 0.61003 0.0
H203 H 0.19958 0.46625 0.62459 0.0
Co204 Co 0.16764 0.38447 0.66194 0.0
C205 C 0.10125 0.3659 0.68366 0.0
O206 O 0.09595 0.32839 0.66263 0.0
N207 N 0.18221 0.33627 0.69527 0.0
C208 C 0.19401 0.29254 0.74572 0.0
C209 C 0.1759 0.33026 0.72962 0.0
C210 C 0.20435 0.30221 0.69126 0.0
N211 N 0.21201 0.27495 0.72153 0.0
O212 O 0.14939 0.33814 0.62528 0.0
H213 H 0.16028 0.35296 0.74281 0.0
H214 H 0.21555 0.29865 0.66707 0.0
O215 O 0.12741 0.39062 0.68364 0.0
C216 C 0.17195 0.33286 0.60547 0.0
O217 O 0.19893 0.359 0.61276 0.0
N218 N 0.18951 0.42864 0.69542 0.0
C219 C 0.23207 0.49772 0.73105 0.0
C220 C 0.19727 0.50467 0.72421 0.0
C221 C 0.17621 0.46926 0.70638 0.0
C222 C 0.22301 0.42074 0.70357 0.0
C223 C 0.24448 0.45394 0.72238 0.0
H224 H 0.14968 0.47586 0.69892 0.0
H225 H 0.23355 0.38949 0.69356 0.0
H226 H 0.10012 0.4219 0.61356 0.0
H227 H 0.16251 0.52127 0.57548 0.0
H228 H 0.19488 0.28046 0.77368 0.0
H229 H 0.18664 0.53807 0.73026 0.0
H230 H 0.271 0.4464 0.72788 0.0
C231 C 0.88884 0.47052 0.94575 0.0
C232 C 0.91057 0.49968 0.96821 0.0
N233 N 0.94206 0.48588 0.967 0.0
N234 N 0.90646 0.43867 0.93014 0.0
C235 C 0.93881 0.44858 0.94381 0.0
H236 H 0.86187 0.47213 0.94128 0.0
Co237 Co 0.88795 0.39092 0.89842 0.0
C238 C 0.92924 0.38634 0.8403 0.0
O239 O 0.90085 0.3845 0.81679 0.0
N240 N 0.86945 0.34058 0.86748 0.0
C241 C 0.868 0.27066 0.83963 0.0
C242 C 0.88805 0.30352 0.85989 0.0
C243 C 0.83769 0.32767 0.8532 0.0
N244 N 0.83642 0.286 0.83561 0.0
O245 O 0.90457 0.34489 0.93562 0.0
H246 H 0.91464 0.29987 0.86947 0.0
H247 H 0.81557 0.34682 0.85646 0.0
O248 O 0.92886 0.38932 0.87506 0.0
C249 C 0.8797 0.33881 0.95199 0.0
O250 O 0.85247 0.36358 0.94109 0.0
N251 N 0.86762 0.43729 0.86517 0.0
C252 C 0.8308 0.51465 0.83248 0.0
C253 C 0.86566 0.51232 0.83455 0.0
C254 C 0.88366 0.4735 0.85128 0.0
C255 C 0.83412 0.43989 0.86426 0.0
C256 C 0.81515 0.47667 0.84665 0.0
H257 H 0.91061 0.47434 0.85538 0.0
H258 H 0.82225 0.41539 0.87999 0.0
H259 H 0.95955 0.42887 0.93683 0.0
H260 H 0.90361 0.52813 0.98481 0.0
H261 H 0.87573 0.23707 0.83013 0.0
H262 H 0.8793 0.5413 0.8254 0.0
H263 H 0.78847 0.47602 0.84594 0.0
H264 H 0.20626 0.25098 0.61428 0.0
H265 H 0.1418 0.33509 0.53331 0.0
H266 H 0.15947 0.28852 0.48329 0.0
H267 H 0.27211 0.24964 0.57093 0.0
H268 H 0.28607 0.1905 0.58266 0.0
H269 H 0.26284 0.22207 0.61192 0.0
H270 H 0.21874 0.15587 0.60577 0.0
H271 H 0.24222 0.12315 0.57719 0.0
H272 H 0.19879 0.13636 0.56063 0.0
H273 H 0.1924 0.24249 0.44261 0.0
H274 H 0.23306 0.19632 0.41487 0.0
H275 H 0.27683 0.14334 0.52301 0.0
C276 C 0.19441 0.25779 0.58609 0.0
C277 C 0.17163 0.29544 0.57765 0.0
C278 C 0.15812 0.30508 0.54034 0.0
C279 C 0.16841 0.27914 0.51179 0.0
C280 C 0.19225 0.24366 0.52106 0.0
C281 C 0.20456 0.23235 0.55743 0.0
C282 C 0.23251 0.1964 0.56037 0.0
C283 C 0.2653 0.21585 0.58278 0.0
C284 C 0.22245 0.1502 0.57697 0.0
C285 C 0.23488 0.19033 0.52008 0.0
C286 C 0.21135 0.21762 0.49777 0.0
C287 C 0.21045 0.22034 0.45982 0.0
C288 C 0.2339 0.1943 0.44431 0.0
C289 C 0.25811 0.1658 0.46661 0.0
C290 C 0.25827 0.16384 0.50501 0.0
H291 H 0.77714 0.14418 0.03365 0.0
H292 H 0.80929 0.20858 0.14061 0.0
H293 H 0.84872 0.25909 0.11424 0.0
H294 H 0.85713 0.14512 1.00284 0.0
H295 H 0.83903 0.15997 0.95598 0.0
H296 H 0.81517 0.12681 0.98379 0.0
H297 H 0.76777 0.18893 0.97201 0.0
H298 H 0.79118 0.22148 0.94354 0.0
H299 H 0.77761 0.24993 0.98197 0.0
H300 H 0.88369 0.30439 0.07499 0.0
H301 H 0.9041 0.34805 0.02528 0.0
H302 H 0.84798 0.2551 0.94409 0.0
C303 C 0.79273 0.16863 0.05157 0.0
C304 C 0.79036 0.17219 0.08928 0.0
C305 C 0.8106 0.2054 0.11166 0.0
C306 C 0.83331 0.23383 0.09696 0.0
C307 C 0.83534 0.22894 0.05973 0.0
C308 C 0.81511 0.19765 0.03723 0.0
C309 C 0.81996 0.20175 0.99755 0.0
C310 C 0.83364 0.15566 0.98427 0.0
C311 C 0.7872 0.21642 0.97229 0.0
C312 C 0.84586 0.24055 1.00101 0.0
C313 C 0.85494 0.25525 0.0372 0.0
C314 C 0.87712 0.2926 0.04671 0.0
C315 C 0.88903 0.31682 1.0184 0.0
C316 C 0.8787 0.30367 0.98111 0.0
C317 C 0.85748 0.26441 0.97255 0.0
H318 H 0.74496 0.76356 0.62722 0.0
H319 H 0.65443 0.80034 0.5518 0.0
H320 H 0.66982 0.74519 0.50539 0.0
H321 H 0.79679 0.76204 0.56651 0.0
H322 H 0.82195 0.71235 0.58476 0.0
H323 H 0.80081 0.74652 0.61451 0.0
H324 H 0.77038 0.67235 0.63256 0.0
H325 H 0.79282 0.63763 0.60412 0.0
H326 H 0.74786 0.63527 0.59692 0.0
H327 H 0.70122 0.69885 0.46356 0.0
H328 H 0.74199 0.6569 0.43272 0.0
H329 H 0.81074 0.64851 0.53685 0.0
C330 C 0.72768 0.75814 0.60155 0.0
C331 C 0.69826 0.78511 0.5931 0.0
C332 C 0.67659 0.77874 0.55896 0.0
C333 C 0.68533 0.74786 0.53242 0.0
C334 C 0.71543 0.72318 0.54096 0.0
C335 C 0.73579 0.72701 0.57518 0.0
C336 C 0.76797 0.69977 0.57674 0.0
C337 C 0.79866 0.73212 0.58617 0.0
C338 C 0.76987 0.6588 0.60421 0.0
C339 C 0.76348 0.68209 0.53748 0.0
C340 C 0.73298 0.69564 0.51723 0.0
C341 C 0.72476 0.68703 0.47942 0.0
C342 C 0.74815 0.66364 0.46204 0.0
C343 C 0.77931 0.649 0.4825 0.0
C344 C 0.78678 0.65818 0.52072 0.0
H345 H 0.33962 0.75438 0.93121 0.0
H346 H 0.4105 0.83493 1.0084 0.0
H347 H 0.39138 0.79455 0.06052 0.0
H348 H 0.27476 0.75942 0.97765 0.0
H349 H 0.25942 0.70055 0.9675 0.0
H350 H 0.28205 0.72989 0.93654 0.0
H351 H 0.32478 0.66179 0.94205 0.0
H352 H 0.30185 0.63132 0.97229 0.0
H353 H 0.34574 0.64303 0.987 0.0
H354 H 0.35713 0.75464 0.1036 0.0
H355 H 0.31752 0.70919 0.13392 0.0
H356 H 0.27137 0.6526 0.02796 0.0
C357 C 0.35218 0.76176 0.95909 0.0
C358 C 0.37714 0.79662 0.96601 0.0
C359 C 0.39213 0.8071 1.00274 0.0
C360 C 0.38111 0.78474 0.03241 0.0
C361 C 0.3554 0.75169 0.02468 0.0
C362 C 0.34182 0.73931 0.98882 0.0
C363 C 0.3134 0.7047 0.98757 0.0
C364 C 0.28048 0.72488 0.96605 0.0
C365 C 0.32197 0.6574 0.97128 0.0
C366 C 0.31237 0.70045 0.02823 0.0
C367 C 0.33657 0.72799 0.0493 0.0
C368 C 0.3386 0.7322 0.0874 0.0
C369 C 0.31586 0.70673 0.10436 0.0
C370 C 0.29173 0.67714 0.08328 0.0
C371 C 0.29002 0.67433 0.04477 0.0
H372 H 0.6053 0.11575 0.30128 0.0
H373 H 0.58095 0.07809 0.18549 0.0
H374 H 0.52115 0.07899 0.18879 0.0
H375 H 0.53967 0.04689 0.33134 0.0
H376 H 0.5307 0.09026 0.36388 0.0
H377 H 0.57209 0.08611 0.35316 0.0
H378 H 0.56971 0.17407 0.33483 0.0
H379 H 0.52837 0.17851 0.34556 0.0
H380 H 0.53562 0.19509 0.30053 0.0
H381 H 0.46438 0.08271 0.20391 0.0
H382 H 0.41308 0.09247 0.22898 0.0
H383 H 0.47165 0.13048 0.33539 0.0
C384 C 0.58734 0.10744 0.27673 0.0
C385 C 0.59802 0.0971 0.24299 0.0
C386 C 0.5736 0.08687 0.21144 0.0
C387 C 0.53948 0.08692 0.21312 0.0
C388 C 0.52981 0.09743 0.24656 0.0
C389 C 0.55287 0.10774 0.27784 0.0
C390 C 0.53526 0.11898 0.30996 0.0
C391 C 0.54502 0.08344 0.34145 0.0
C392 C 0.54268 0.16968 0.32352 0.0
C393 C 0.49879 0.1133 0.29174 0.0
C394 C 0.49649 0.10061 0.25521 0.0
C395 C 0.46584 0.09306 0.23239 0.0
C396 C 0.43666 0.09914 0.24697 0.0
C397 C 0.43786 0.11314 0.28415 0.0
C398 C 0.46962 0.11976 0.30692 0.0
H399 H 0.63227 0.9189 0.78433 0.0
H400 H 0.58303 0.83104 0.69458 0.0
H401 H 0.53539 0.8202 0.72751 0.0
H402 H 0.60609 0.8565 0.85925 0.0
H403 H 0.60046 0.90954 0.88424 0.0
H404 H 0.631 0.90775 0.85449 0.0
H405 H 0.60331 0.9802 0.81869 0.0
H406 H 0.57287 0.9824 0.84846 0.0
H407 H 0.55939 0.97858 0.79924 0.0
H408 H 0.49331 0.8191 0.77186 0.0
H409 H 0.45845 0.8344 0.81885 0.0
H410 H 0.53504 0.92695 0.8769 0.0
C411 C 0.61167 0.8969 0.7716 0.0
C412 C 0.61154 0.87528 0.73702 0.0
C413 C 0.5837 0.84774 0.7211 0.0
C414 C 0.55666 0.84127 0.73971 0.0
C415 C 0.5578 0.863 0.77396 0.0
C416 C 0.58452 0.8907 0.78944 0.0
C417 C 0.57919 0.91261 0.82535 0.0
C418 C 0.60576 0.89557 0.85774 0.0
C419 C 0.57864 0.96664 0.82276 0.0
C420 C 0.54511 0.89321 0.82782 0.0
C421 C 0.53331 0.86411 0.79827 0.0
C422 C 0.5023 0.84213 0.79488 0.0
C423 C 0.48261 0.85112 0.82178 0.0
C424 C 0.49363 0.88255 0.85139 0.0
C425 C 0.52566 0.903 0.85459 0.0
H426 H 0.10309 0.63487 0.2928 0.0
H427 H 0.08065 0.58965 0.17854 0.0
H428 H 1.02095 0.58543 0.18207 0.0
H429 H 0.04294 0.56043 0.32543 0.0
H430 H 0.03178 0.60355 0.35696 0.0
H431 H 0.07299 0.60393 0.34557 0.0
H432 H 0.0649 0.69076 0.32467 0.0
H433 H 1.02369 0.69065 0.33604 0.0
H434 H 0.02929 0.70668 0.2903 0.0
H435 H 0.96386 0.58415 0.19797 0.0
H436 H 0.91291 0.58709 0.22476 0.0
H437 H 0.97124 0.63437 0.32883 0.0
C438 C 0.08566 0.6239 0.26857 0.0
C439 C 0.09678 0.61289 0.23529 0.0
C440 C 0.07294 0.5991 0.20415 0.0
C441 C 0.03888 0.59625 0.20595 0.0
C442 C 1.02882 0.60735 0.23906 0.0
C443 C 0.05142 0.62101 0.26983 0.0
C444 C 0.0338 0.6311 0.30198 0.0
C445 C 0.04611 0.59776 0.3344 0.0
C446 C 0.03818 0.68288 0.31394 0.0
C447 C 0.99784 0.62064 0.28448 0.0
C448 C 0.99563 0.60702 0.24819 0.0
C449 C 0.96524 0.59512 0.22631 0.0
C450 C 0.93627 0.59724 0.24183 0.0
C451 C 0.93761 0.61136 0.27899 0.0
C452 C 0.96906 0.62314 0.30048 0.0
H453 H 0.03792 0.33243 0.6851 0.0
H454 H 0.11563 0.42146 0.74538 0.0
H455 H 0.08182 0.43323 0.79395 0.0
H456 H 0.96887 0.40171 0.70515 0.0
H457 H 0.94293 0.35118 0.70863 0.0
H458 H 0.9738 0.34909 0.67933 0.0
H459 H 0.99973 0.27478 0.71384 0.0
H460 H 0.96915 0.27699 0.74352 0.0
H461 H 1.01303 0.27681 0.76316 0.0
H462 H 0.03953 0.43263 0.83792 0.0
H463 H 0.98991 0.42767 0.86835 0.0
H464 H 0.93926 0.34304 0.77741 0.0
C465 C 0.04781 0.35453 0.70844 0.0
C466 C 0.07958 0.37581 0.71135 0.0
C467 C 0.09137 0.40479 0.74233 0.0
C468 C 0.0724 0.41149 0.77026 0.0
C469 C 0.04139 0.38949 0.76678 0.0
C470 C 0.02897 0.36221 0.7363 0.0
C471 C 0.99438 0.34399 0.73835 0.0
C472 C 0.96847 0.36262 0.70595 0.0
C473 C 0.99407 0.28994 0.73981 0.0
C474 C 0.98925 0.3652 0.77466 0.0
C475 C 1.01679 0.39077 0.79105 0.0
C476 C 1.01778 0.41289 0.82515 0.0
C477 C 0.98962 0.40967 0.84241 0.0
C478 C 0.96071 0.38518 0.82523 0.0
C479 C 0.96092 0.3623 0.79116 0.0
H480 H 0.19672 0.7545 0.24832 0.0
H481 H 0.22465 0.77212 0.14148 0.0
H482 H 0.24375 0.85318 0.15861 0.0
H483 H 0.17253 0.88363 0.26148 0.0
H484 H 0.18949 0.87974 0.31002 0.0
H485 H 0.17036 0.82893 0.2856 0.0
H486 H 0.22443 0.7815 0.30836 0.0
H487 H 0.24421 0.83221 0.33177 0.0
H488 H 0.2635 0.80235 0.29791 0.0
H489 H 0.27242 0.92253 0.19314 0.0
H490 H 0.30054 0.9802 0.23876 0.0
H491 H 0.25196 0.91859 0.32254 0.0
C492 C 0.20498 0.77663 0.22781 0.0
C493 C 0.20864 0.75788 0.19339 0.0
C494 C 0.2208 0.7866 0.16756 0.0
C495 C 0.23197 0.83247 0.17726 0.0
C496 C 0.23006 0.84898 0.21253 0.0
C497 C 0.21584 0.82239 0.23701 0.0
C498 C 0.22009 0.84557 0.27456 0.0
C499 C 0.18609 0.86036 0.28342 0.0
C500 C 0.2392 0.81349 0.3049 0.0
C501 C 0.24067 0.88794 0.26818 0.0
C502 C 0.24601 0.88955 0.23219 0.0
C503 C 0.26753 0.92243 0.22102 0.0
C504 C 0.28366 0.95465 0.24715 0.0
C505 C 0.2781 0.95382 0.28393 0.0
C506 C 0.25605 0.92041 0.29437 0.0
H507 H 0.73693 0.90649 0.27393 0.0
H508 H 0.81846 0.92986 0.21475 0.0
H509 H 0.85302 0.87256 0.25492 0.0
H510 H 0.78677 0.88932 0.36448 0.0
H511 H 0.76079 0.84277 0.37667 0.0
H512 H 0.74287 0.88798 0.34493 0.0
H513 H 0.72052 0.82506 0.29562 0.0
H514 H 0.73737 0.77986 0.32771 0.0
H515 H 0.74899 0.7821 0.28285 0.0
H516 H 0.87852 0.81129 0.30071 0.0
H517 H 0.88848 0.74032 0.34012 0.0
H518 H 0.79014 0.75558 0.36788 0.0
C519 C 0.76189 0.8992 0.26908 0.0
C520 C 0.77507 0.92322 0.24144 0.0
C521 C 0.80798 0.91262 0.23622 0.0
C522 C 0.82791 0.88028 0.25901 0.0
C523 C 0.81457 0.85849 0.28684 0.0
C524 C 0.78208 0.86675 0.29142 0.0
C525 C 0.77285 0.83599 0.32145 0.0
C526 C 0.76539 0.86581 0.3538 0.0
C527 C 0.7432 0.80384 0.30598 0.0
C528 C 0.80493 0.80836 0.33238 0.0
C529 C 0.82904 0.82262 0.31278 0.0
C530 C 0.86002 0.80016 0.31659 0.0
C531 C 0.86572 0.76036 0.33943 0.0
C532 C 0.84032 0.74343 0.35748 0.0
C533 C 0.81023 0.76883 0.35507 0.0
H534 H 0.73861 0.11299 0.68879 0.0
H535 H 0.67906 0.07564 0.77113 0.0
H536 H 0.70286 0.14265 0.80913 0.0
H537 H 0.8106 0.13154 0.75219 0.0
H538 H 0.826 0.1788 0.72738 0.0
H539 H 0.79889 0.13505 0.70275 0.0
H540 H 0.75788 0.20032 0.67382 0.0
H541 H 0.78497 0.24442 0.6984 0.0
H542 H 0.74178 0.24159 0.70339 0.0
H543 H 0.73795 0.20833 0.84179 0.0
H544 H 0.78409 0.26262 0.8675 0.0
H545 H 0.82461 0.24988 0.76735 0.0
C546 C 0.73021 0.11876 0.71463 0.0
C547 C 0.70669 0.08864 0.7266 0.0
C548 C 0.69635 0.09853 0.76058 0.0
C549 C 0.70989 0.13652 0.7826 0.0
C550 C 0.73395 0.16423 0.7705 0.0
C551 C 0.74411 0.15561 0.73735 0.0
C552 C 0.77345 0.18619 0.73276 0.0
C553 C 0.80403 0.15609 0.72854 0.0
C554 C 0.76394 0.22015 0.70015 0.0
C555 C 0.77897 0.21224 0.76907 0.0
C556 C 0.75536 0.20017 0.79008 0.0
C557 C 0.75629 0.21846 0.82538 0.0
C558 C 0.78238 0.24922 0.83973 0.0
C559 C 0.8074 0.26021 0.81908 0.0
C560 C 0.80542 0.242 0.78328 0.0
H561 H 0.21476 0.20483 0.77188 0.0
H562 H 0.26387 0.25854 0.68526 0.0
H563 H 0.30538 0.19475 0.69743 0.0
H564 H 0.28906 0.1753 0.83447 0.0
H565 H 0.27149 0.12321 0.85119 0.0
H566 H 0.2448 0.17188 0.83424 0.0
H567 H 0.20818 0.11649 0.78767 0.0
H568 H 0.23477 0.06763 0.80448 0.0
H569 H 0.22742 0.08207 0.75613 0.0
H570 H 0.34315 0.12583 0.72119 0.0
H571 H 0.37224 0.05676 0.7532 0.0
H572 H 0.29888 0.05184 0.82508 0.0
C573 C 0.23428 0.20356 0.75554 0.0
C574 C 0.2359 0.23701 0.72768 0.0
C575 C 0.26168 0.23322 0.70653 0.0
C576 C 0.28558 0.19719 0.71337 0.0
C577 C 0.28341 0.16527 0.74144 0.0
C578 C 0.25832 0.16814 0.76208 0.0
C579 C 0.26163 0.13011 0.79104 0.0
C580 C 0.26708 0.15141 0.83004 0.0
C581 C 0.23119 0.09713 0.78441 0.0
C582 C 0.29264 0.1055 0.78368 0.0
C583 C 0.30492 0.12608 0.75497 0.0
C584 C 0.33368 0.10936 0.74364 0.0
C585 C 0.35013 0.07036 0.76207 0.0
C586 C 0.33764 0.04867 0.79136 0.0
C587 C 0.30867 0.06693 0.80228 0.0
H588 H 0.82378 0.38218 0.31647 0.0
H589 H 0.7416 0.47934 0.28337 0.0
H590 H 0.7106 0.4176 0.24405 0.0
H591 H 0.81897 0.32611 0.22753 0.0
H592 H 0.82972 0.26914 0.24763 0.0
H593 H 0.84517 0.3216 0.27234 0.0
H594 H 0.81928 0.2948 0.32828 0.0
H595 H 0.80393 0.24225 0.30382 0.0
H596 H 0.77541 0.28083 0.32153 0.0
H597 H 0.68788 0.34198 0.20927 0.0
H598 H 0.67622 0.26054 0.18526 0.0
H599 H 0.77522 0.21833 0.24013 0.0
C600 C 0.79948 0.39083 0.30062 0.0
C601 C 0.78516 0.43554 0.30313 0.0
C602 C 0.75292 0.44501 0.28238 0.0
C603 C 0.73523 0.41033 0.25966 0.0
C604 C 0.75023 0.36656 0.25778 0.0
C605 C 0.78169 0.35698 0.27775 0.0
C606 C 0.79225 0.30718 0.27204 0.0
C607 C 0.82337 0.30597 0.25379 0.0
C608 C 0.79803 0.27966 0.30858 0.0
C609 C 0.76172 0.28991 0.2461 0.0
C610 C 0.73761 0.3243 0.23784 0.0
C611 C 0.70675 0.31488 0.21538 0.0
C612 C 0.70033 0.26876 0.20176 0.0
C613 C 0.72469 0.23317 0.21101 0.0
C614 C 0.75587 0.24457 0.2327 0.0
H615 H 0.2378 0.42914 0.27958 0.0
H616 H 0.32277 0.45476 0.22607 0.0
H617 H 0.35558 0.39629 0.26656 0.0
H618 H 0.28417 0.4048 0.37231 0.0
H619 H 0.25651 0.3579 0.38009 0.0
H620 H 0.24084 0.40635 0.35045 0.0
H621 H 0.21938 0.34852 0.29692 0.0
H622 H 0.23407 0.30017 0.32681 0.0
H623 H 0.2479 0.30626 0.2833 0.0
H624 H 0.37814 0.33096 0.30971 0.0
H625 H 0.3845 0.25525 0.34345 0.0
H626 H 0.28453 0.27014 0.3666 0.0
C627 C 0.26325 0.4225 0.2762 0.0
C628 C 0.27772 0.44732 0.24989 0.0
C629 C 0.31124 0.43726 0.24662 0.0
C630 C 0.33019 0.40413 0.26959 0.0
C631 C 0.31534 0.381 0.29567 0.0
C632 C 0.28243 0.38917 0.29862 0.0
C633 C 0.27116 0.35593 0.32589 0.0
C634 C 0.26268 0.38287 0.35916 0.0
C635 C 0.2414 0.32594 0.3071 0.0
C636 C 0.30248 0.32668 0.33681 0.0
C637 C 0.32807 0.34253 0.31996 0.0
C638 C 0.35852 0.31869 0.3236 0.0
C639 C 0.36216 0.27609 0.3432 0.0
C640 C 0.33527 0.25783 0.35817 0.0
C641 C 0.30574 0.28438 0.35627 0.0
H642 H 0.22982 0.56932 0.78248 0.0
H643 H 0.28802 0.51623 0.70329 0.0
H644 H 0.3297 0.57756 0.72146 0.0
H645 H 0.24398 0.6912 0.76478 0.0
H646 H 0.24681 0.71003 0.81192 0.0
H647 H 0.22208 0.65935 0.79532 0.0
H648 H 0.25574 0.60924 0.8479 0.0
H649 H 0.28077 0.65976 0.86445 0.0
H650 H 0.30059 0.6064 0.85307 0.0
H651 H 0.36449 0.64345 0.74555 0.0
H652 H 0.38901 0.71788 0.77124 0.0
H653 H 0.30901 0.73427 0.83363 0.0
C654 C 0.25142 0.5706 0.76916 0.0
C655 C 0.25607 0.53678 0.74227 0.0
C656 C 0.28442 0.54029 0.725 0.0
C657 C 0.30827 0.57526 0.73496 0.0
C658 C 0.30342 0.60719 0.76195 0.0
C659 C 0.27567 0.6059 0.77864 0.0
C660 C 0.2761 0.64699 0.8052 0.0
C661 C 0.24542 0.67877 0.7936 0.0
C662 C 0.27844 0.62954 0.84502 0.0
C663 C 0.30811 0.6716 0.8001 0.0
C664 C 0.32348 0.64732 0.77533 0.0
C665 C 0.35276 0.66295 0.76497 0.0
C666 C 0.36639 0.70533 0.77955 0.0
C667 C 0.35073 0.73192 0.80406 0.0
C668 C 0.32157 0.71433 0.81516 0.0
H669 H 0.78741 0.75508 0.71943 0.0
H670 H 0.6997 0.76597 0.77014 0.0
H671 H 0.71439 0.6903 0.80241 0.0
H672 H 0.78167 0.6282 0.70469 0.0
H673 H 0.82624 0.61924 0.71394 0.0
H674 H 0.80922 0.67423 0.69488 0.0
H675 H 0.84502 0.7197 0.74847 0.0
H676 H 0.86258 0.66515 0.76784 0.0
H677 H 0.84251 0.70458 0.79534 0.0
H678 H 0.74158 0.61871 0.83333 0.0
H679 H 0.77509 0.54996 0.85602 0.0
H680 H 0.8423 0.57944 0.77955 0.0
C681 C 0.7714 0.74129 0.73734 0.0
C682 C 0.74263 0.76618 0.74282 0.0
C683 C 0.72179 0.7471 0.7658 0.0
C684 C 0.73002 0.7044 0.78422 0.0
C685 C 0.75879 0.68093 0.77862 0.0
C686 C 0.77886 0.69817 0.75525 0.0
C687 C 0.80797 0.66536 0.75357 0.0
C688 C 0.80614 0.64557 0.71445 0.0
C689 C 0.8415 0.69019 0.76712 0.0
C690 C 0.80151 0.62745 0.78028 0.0
C691 C 0.77319 0.6375 0.79458 0.0
C692 C 0.76325 0.60965 0.82155 0.0
C693 C 0.78245 0.57009 0.83396 0.0
C694 C 0.81106 0.55764 0.81888 0.0
C695 C 0.82063 0.58725 0.79169 0.0
H696 H 0.43876 0.98608 0.42312 0.0
H697 H 0.41885 0.11548 0.47739 0.0
H698 H 0.46833 0.10071 0.52635 0.0
H699 H 0.46615 0.91705 0.50229 0.0
H700 H 0.4987 0.88759 0.48375 0.0
H701 H 0.46214 0.90881 0.45322 0.0
H702 H 0.4992 0.9577 0.41706 0.0
H703 H 0.53592 0.93598 0.44705 0.0
H704 H 0.52917 -0.00156 0.44157 0.0
H705 H 0.51845 0.06724 0.57189 0.0
H706 H 0.56932 0.02551 0.60378 0.0
H707 H 0.55724 0.92189 0.51647 0.0
C708 C 0.44501 0.01151 0.44517 0.0
C709 C 0.42509 0.05178 0.44675 0.0
C710 C 0.43407 0.08456 0.47572 0.0
C711 C 0.4619 0.07621 0.50372 0.0
C712 C 0.48068 0.03541 0.50179 0.0
C713 C 0.47296 0.00425 0.47269 0.0
C714 C 0.49757 0.96396 0.47594 0.0
C715 C 0.48008 0.91656 0.47899 0.0
C716 C 0.51659 0.96406 0.44349 0.0
C717 C 0.52018 0.97673 0.51173 0.0
C718 C 0.50992 0.01766 0.52665 0.0
C719 C 0.52679 0.03541 0.56023 0.0
C720 C 0.55537 0.0114 0.57833 0.0
C721 C 0.5669 0.97069 0.56244 0.0
C722 C 0.5488 0.95303 0.52903 0.0
H723 H 0.63322 0.98734 0.06581 0.0
H724 H 0.60641 0.11043 0.12389 0.0
H725 H 0.54735 0.09927 0.09545 0.0
H726 H 0.57512 0.01121 0.98076 0.0
H727 H 0.56626 0.94988 0.97124 0.0
H728 H 0.60636 0.96733 0.99677 0.0
H729 H 0.59806 0.91159 0.04993 0.0
H730 H 0.55774 0.89445 0.02476 0.0
H731 H 0.56148 0.91797 0.07072 0.0
H732 H 0.49075 0.0723 0.0629 0.0
H733 H 0.44174 0.03796 1.02294 0.0
H734 H 0.50597 0.93606 0.98221 0.0
C735 C 0.61501 0.01216 0.07248 0.0
C736 C 0.62452 0.04921 0.09788 0.0
C737 C 0.59984 0.08119 0.10528 0.0
C738 C 0.56614 0.07519 0.08915 0.0
C739 C 0.55758 0.03759 0.06503 0.0
C740 C 0.58137 0.00718 0.05612 0.0
C741 C 0.5657 0.97059 0.02837 0.0
C742 C 0.57916 0.97504 0.99214 0.0
C743 C 0.57107 0.9207 0.04442 0.0
C744 C 0.5293 0.98494 1.02332 0.0
C745 C 0.52515 0.02338 0.04498 0.0
C746 C 0.49378 0.04259 0.04543 0.0
C747 C 0.46602 0.02282 1.02243 0.0
C748 C 0.4697 0.98449 0.99878 0.0
C749 C 0.50191 0.96502 0.99989 0.0
H750 H 0.06369 0.43383 0.55705 0.0
H751 H 0.1145 0.56827 0.56043 0.0
H752 H 0.0668 0.60111 0.51694 0.0
H753 H 1.02702 0.43657 0.46133 0.0
H754 H 0.98846 0.4096 0.46784 0.0
H755 H 1.02665 0.39677 0.49927 0.0
H756 H 0.99943 0.42317 0.5543 0.0
H757 H 0.9611 0.43582 0.52306 0.0
H758 H 0.98095 0.48087 0.55381 0.0
H759 H 1.01282 0.61943 0.47279 0.0
H760 H 0.95698 0.62149 0.43279 0.0
H761 H 0.94211 0.4751 0.45904 0.0
C762 C 0.06473 0.4703 0.54901 0.0
C763 C 0.09302 0.49834 0.56221 0.0
C764 C 0.09339 0.54579 0.55039 0.0
C765 C 0.06631 0.56488 0.52579 0.0
C766 C 0.03895 0.53613 0.51315 0.0
C767 C 0.03796 0.48988 0.52444 0.0
C768 C 1.00566 0.46636 0.50683 0.0
C769 C 1.01236 0.42488 0.48236 0.0
C770 C 0.98561 0.45065 0.53626 0.0
C771 C 0.9886 0.5066 0.48395 0.0
C772 C 1.00813 0.5466 0.48788 0.0
C773 C 0.99731 0.58828 0.46953 0.0
C774 C 0.96558 0.58914 0.44685 0.0
C775 C 0.94508 0.54854 0.44272 0.0
C776 C 0.95707 0.5068 0.46143 0.0
H777 H 0.12927 0.48586 0.07692 0.0
H778 H 0.11475 0.63228 0.10379 0.0
H779 H 0.05797 0.62979 0.06639 0.0
H780 H 0.08388 0.49002 0.98259 0.0
H781 H 0.06632 0.43213 0.98473 0.0
H782 H 0.1063 0.44596 1.01241 0.0
H783 H 0.08445 0.4207 0.07122 0.0
H784 H 0.04444 0.40679 0.04375 0.0
H785 H 0.0471 0.44755 0.08162 0.0
H786 H 1.00208 0.61058 0.02756 0.0
H787 H 0.95125 0.57623 0.99055 0.0
H788 H 1.00199 0.44206 0.98952 0.0
C789 C 0.11433 0.5176 0.07473 0.0
C790 C 0.12662 0.55934 0.09331 0.0
C791 C 0.10602 0.5999 0.08983 0.0
C792 C 0.07371 0.59885 0.0686 0.0
C793 C 0.06235 0.55704 0.05088 0.0
C794 C 0.08205 0.51717 0.05366 0.0
C795 C 0.06357 0.47633 0.03274 0.0
C796 C 0.08106 0.46017 1.00125 0.0
C797 C 0.05966 0.43544 0.0589 0.0
C798 C 0.03026 0.49932 1.01796 0.0
C799 C 0.03013 0.54592 0.02865 0.0
C800 C 1.00194 0.57415 1.01902 0.0
C801 C 0.97308 0.55419 0.99816 0.0
C802 C 0.97245 0.50634 0.98713 0.0
C803 C 1.00167 0.47883 0.99702 0.0
loop_
_geom_bond_atom_site_label_1
_geom_bond_atom_site_label_2
_geom_bond_distance
_geom_bond_site_symmetry_2
_ccdc_geom_bond_type
C0 C1 1.351 . S
C0 N3 1.368 . S
C0 H5 0.931 . S
C1 C0 1.351 . S
C1 N2 1.373 . S
C1 H29 0.930 . S
N2 C1 1.373 . S
N2 C4 1.340 . S
N3 C0 1.368 . S
N3 C4 1.321 . S
N3 Co6 2.135 . S
C4 N2 1.340 . S
C4 N3 1.321 . S
C4 H28 0.930 . S
H5 C0 0.931 . S
Co6 N3 2.135 . S
Co6 N9 2.121 . S
Co6 O14 2.055 . S
Co6 O17 2.039 . S
Co6 N20 2.140 . S
C7 O8 1.227 . S
C7 O17 1.265 . S
O8 C7 1.227 . S
N9 Co6 2.121 . S
N9 C11 1.375 . S
N9 C12 1.313 . S
C10 C11 1.338 . S
C10 N13 1.377 . S
C10 H30 0.930 . S
C11 N9 1.375 . S
C11 C10 1.338 . S
C11 H15 0.931 . S
C12 N9 1.313 . S
C12 N13 1.344 . S
C12 H16 0.930 . S
N13 C10 1.377 . S
N13 C12 1.344 . S
O14 Co6 2.055 . S
O14 C18 1.253 . S
H15 C11 0.931 . S
H16 C12 0.930 . S
O17 Co6 2.039 . S
O17 C7 1.265 . S
C18 O14 1.253 . S
C18 O19 1.227 . S
O19 C18 1.227 . S
N20 Co6 2.140 . S
N20 C23 1.346 . S
N20 C24 1.345 . S
C21 C22 1.389 . S
C21 C25 1.391 1_565 S
C22 C21 1.389 . S
C22 C23 1.353 1_565 S
C22 H31 0.945 . S
C23 N20 1.346 . S
C23 C22 1.353 1_545 S
C23 H26 0.928 . S
C24 N20 1.345 . S
C24 C25 1.371 . S
C24 H27 0.931 . S
C25 C21 1.391 1_545 S
C25 C24 1.371 . S
C25 H32 0.930 . S
H26 C23 0.928 . S
H27 C24 0.931 . S
H28 C4 0.930 . S
H29 C1 0.930 . S
H30 C10 0.930 . S
H31 C22 0.945 . S
H32 C25 0.930 . S
C33 C34 1.351 . S
C33 N36 1.368 . S
C33 H38 0.931 . S
C34 C33 1.351 . S
C34 N35 1.373 . S
C34 H62 0.930 . S
N35 C34 1.373 . S
N35 C37 1.340 . S
N36 C33 1.368 . S
N36 C37 1.321 . S
N36 Co39 2.135 . S
C37 N35 1.340 . S
C37 N36 1.321 . S
C37 H61 0.930 . S
H38 C33 0.931 . S
Co39 N36 2.135 . S
Co39 N42 2.121 . S
Co39 O47 2.055 . S
Co39 O50 2.039 . S
Co39 N53 2.140 . S
C40 O41 1.227 . S
C40 O50 1.265 . S
O41 C40 1.227 . S
N42 Co39 2.121 . S
N42 C44 1.375 . S
N42 C45 1.313 . S
C43 C44 1.338 . S
C43 N46 1.377 . S
C43 H63 0.930 . S
C44 N42 1.375 . S
C44 C43 1.338 . S
C44 H48 0.931 . S
C45 N42 1.313 . S
C45 N46 1.344 . S
C45 H49 0.930 . S
N46 C43 1.377 . S
N46 C45 1.344 . S
O47 Co39 2.055 . S
O47 C51 1.253 . S
H48 C44 0.931 . S
H49 C45 0.930 . S
O50 Co39 2.039 . S
O50 C40 1.265 . S
C51 O47 1.253 . S
C51 O52 1.227 . S
O52 C51 1.227 . S
N53 Co39 2.140 . S
N53 C56 1.346 . S
N53 C57 1.345 . S
C54 C55 1.389 . S
C54 C58 1.391 1_565 S
C55 C54 1.389 . S
C55 C56 1.353 1_565 S
C55 H64 0.945 . S
C56 N53 1.346 . S
C56 C55 1.353 1_545 S
C56 H59 0.928 . S
C57 N53 1.345 . S
C57 C58 1.371 . S
C57 H60 0.931 . S
C58 C54 1.391 1_545 S
C58 C57 1.371 . S
C58 H65 0.930 . S
H59 C56 0.928 . S
H60 C57 0.931 . S
H61 C37 0.930 . S
H62 C34 0.930 . S
H63 C43 0.930 . S
H64 C55 0.945 . S
H65 C58 0.930 . S
C66 C67 1.351 . S
C66 N69 1.368 . S
C66 H71 0.931 . S
C67 C66 1.351 . S
C67 N68 1.373 . S
C67 H95 0.930 . S
N68 C67 1.373 . S
N68 C70 1.340 . S
N69 C66 1.368 . S
N69 C70 1.321 . S
N69 Co72 2.135 . S
C70 N68 1.340 . S
C70 N69 1.321 . S
C70 H94 0.930 . S
H71 C66 0.931 . S
Co72 N69 2.135 . S
Co72 N75 2.121 . S
Co72 O80 2.055 . S
Co72 O83 2.039 . S
Co72 N86 2.140 . S
C73 O74 1.227 . S
C73 O83 1.265 . S
O74 C73 1.227 . S
N75 Co72 2.121 . S
N75 C77 1.375 . S
N75 C78 1.313 . S
C76 C77 1.338 . S
C76 N79 1.377 . S
C76 H96 0.930 . S
C77 N75 1.375 . S
C77 C76 1.338 . S
C77 H81 0.931 . S
C78 N75 1.313 . S
C78 N79 1.344 . S
C78 H82 0.930 . S
N79 C76 1.377 . S
N79 C78 1.344 . S
O80 Co72 2.055 . S
O80 C84 1.253 . S
H81 C77 0.931 . S
H82 C78 0.930 . S
O83 Co72 2.039 . S
O83 C73 1.265 . S
C84 O80 1.253 . S
C84 O85 1.227 . S
O85 C84 1.227 . S
N86 Co72 2.140 . S
N86 C89 1.346 . S
N86 C90 1.345 . S
C87 C88 1.387 . S
C87 C91 1.391 1_545 S
C88 C87 1.387 . S
C88 C89 1.369 1_545 S
C88 H97 0.929 . S
C89 N86 1.346 . S
C89 C88 1.369 1_565 S
C89 H92 0.928 . S
C90 N86 1.345 . S
C90 C91 1.371 . S
C90 H93 0.931 . S
C91 C87 1.391 1_565 S
C91 C90 1.371 . S
C91 H98 0.930 . S
H92 C89 0.928 . S
H93 C90 0.931 . S
H94 C70 0.930 . S
H95 C67 0.930 . S
H96 C76 0.930 . S
H97 C88 0.929 . S
H98 C91 0.930 . S
C99 C100 1.351 . S
C99 N102 1.368 . S
C99 H104 0.931 . S
C100 C99 1.351 . S
C100 N101 1.373 . S
C100 H128 0.930 . S
N101 C100 1.373 . S
N101 C103 1.340 . S
N102 C99 1.368 . S
N102 C103 1.321 . S
N102 Co105 2.135 . S
C103 N101 1.340 . S
C103 N102 1.321 . S
C103 H127 0.930 . S
H104 C99 0.931 . S
Co105 N102 2.135 . S
Co105 N108 2.121 . S
Co105 O113 2.055 . S
Co105 O116 2.039 . S
Co105 N119 2.140 . S
C106 O107 1.227 . S
C106 O116 1.265 . S
O107 C106 1.227 . S
N108 Co105 2.121 . S
N108 C110 1.375 . S
N108 C111 1.313 . S
C109 C110 1.338 . S
C109 N112 1.377 . S
C109 H129 0.930 . S
C110 N108 1.375 . S
C110 C109 1.338 . S
C110 H114 0.931 . S
C111 N108 1.313 . S
C111 N112 1.344 . S
C111 H115 0.930 . S
N112 C109 1.377 . S
N112 C111 1.344 . S
O113 Co105 2.055 . S
O113 C117 1.253 . S
H114 C110 0.931 . S
H115 C111 0.930 . S
O116 Co105 2.039 . S
O116 C106 1.265 . S
C117 O113 1.253 . S
C117 O118 1.227 . S
O118 C117 1.227 . S
N119 Co105 2.140 . S
N119 C122 1.346 . S
N119 C123 1.345 . S
C120 C121 1.387 . S
C120 C124 1.391 1_545 S
C121 C120 1.387 . S
C121 C122 1.369 1_545 S
C121 H130 0.929 . S
C122 N119 1.346 . S
C122 C121 1.369 1_565 S
C122 H125 0.928 . S
C123 N119 1.345 . S
C123 C124 1.371 . S
C123 H126 0.931 . S
C124 C120 1.391 1_565 S
C124 C123 1.371 . S
C124 H131 0.930 . S
H125 C122 0.928 . S
H126 C123 0.931 . S
H127 C103 0.930 . S
H128 C100 0.930 . S
H129 C109 0.930 . S
H130 C121 0.929 . S
H131 C124 0.930 . S
C132 C133 1.351 . S
C132 N135 1.368 . S
C132 H137 0.931 . S
C133 C132 1.351 . S
C133 N134 1.373 . S
C133 H161 0.930 . S
N134 C133 1.373 . S
N134 C136 1.340 . S
N135 C132 1.368 . S
N135 C136 1.321 . S
N135 Co138 2.135 . S
C136 N134 1.340 . S
C136 N135 1.321 . S
C136 H160 0.930 . S
H137 C132 0.931 . S
Co138 N135 2.135 . S
Co138 N141 2.121 . S
Co138 O146 2.055 . S
Co138 O149 2.039 . S
Co138 N152 2.140 . S
C139 O140 1.227 . S
C139 O149 1.265 . S
O140 C139 1.227 . S
N141 Co138 2.121 . S
N141 C143 1.375 . S
N141 C144 1.313 . S
C142 C143 1.338 . S
C142 N145 1.377 . S
C142 H162 0.930 . S
C143 N141 1.375 . S
C143 C142 1.338 . S
C143 H147 0.931 . S
C144 N141 1.313 . S
C144 N145 1.344 . S
C144 H148 0.930 . S
N145 C142 1.377 . S
N145 C144 1.344 . S
O146 Co138 2.055 . S
O146 C150 1.253 . S
H147 C143 0.931 . S
H148 C144 0.930 . S
O149 Co138 2.039 . S
O149 C139 1.265 . S
C150 O146 1.253 . S
C150 O151 1.227 . S
O151 C150 1.227 . S
N152 Co138 2.140 . S
N152 C155 1.346 . S
N152 C156 1.345 . S
C153 C154 1.387 . S
C153 C157 1.391 . S
C154 C153 1.387 . S
C154 C155 1.369 . S
C154 H163 0.929 . S
C155 N152 1.346 . S
C155 C154 1.369 . S
C155 H158 0.928 . S
C156 N152 1.345 . S
C156 C157 1.371 . S
C156 H159 0.931 . S
C157 C153 1.391 . S
C157 C156 1.371 . S
C157 H164 0.930 . S
H158 C155 0.928 . S
H159 C156 0.931 . S
H160 C136 0.930 . S
H161 C133 0.930 . S
H162 C142 0.930 . S
H163 C154 0.929 . S
H164 C157 0.930 . S
C165 C166 1.351 . S
C165 N168 1.368 . S
C165 H170 0.931 . S
C166 C165 1.351 . S
C166 N167 1.373 . S
C166 H194 0.930 . S
N167 C166 1.373 . S
N167 C169 1.340 . S
N168 C165 1.368 . S
N168 C169 1.321 . S
N168 Co171 2.135 . S
C169 N167 1.340 . S
C169 N168 1.321 . S
C169 H193 0.930 . S
H170 C165 0.931 . S
Co171 N168 2.135 . S
Co171 N174 2.121 . S
Co171 O179 2.055 . S
Co171 O182 2.039 . S
Co171 N185 2.140 . S
C172 O173 1.227 . S
C172 O182 1.265 . S
O173 C172 1.227 . S
N174 Co171 2.121 . S
N174 C176 1.375 . S
N174 C177 1.313 . S
C175 C176 1.338 . S
C175 N178 1.377 . S
C175 H195 0.930 . S
C176 N174 1.375 . S
C176 C175 1.338 . S
C176 H180 0.931 . S
C177 N174 1.313 . S
C177 N178 1.344 . S
C177 H181 0.930 . S
N178 C175 1.377 . S
N178 C177 1.344 . S
O179 Co171 2.055 . S
O179 C183 1.253 . S
H180 C176 0.931 . S
H181 C177 0.930 . S
O182 Co171 2.039 . S
O182 C172 1.265 . S
C183 O179 1.253 . S
C183 O184 1.227 . S
O184 C183 1.227 . S
N185 Co171 2.140 . S
N185 C188 1.346 . S
N185 C189 1.345 . S
C186 C187 1.387 . S
C186 C190 1.391 . S
C187 C186 1.387 . S
C187 C188 1.369 . S
C187 H196 0.929 . S
C188 N185 1.346 . S
C188 C187 1.369 . S
C188 H191 0.928 . S
C189 N185 1.345 . S
C189 C190 1.371 . S
C189 H192 0.931 . S
C190 C186 1.391 . S
C190 C189 1.371 . S
C190 H197 0.930 . S
H191 C188 0.928 . S
H192 C189 0.931 . S
H193 C169 0.930 . S
H194 C166 0.930 . S
H195 C175 0.930 . S
H196 C187 0.929 . S
H197 C190 0.930 . S
C198 C199 1.351 . S
C198 N201 1.368 . S
C198 H203 0.931 . S
C199 C198 1.351 . S
C199 N200 1.373 . S
C199 H227 0.930 . S
N200 C199 1.373 . S
N200 C202 1.340 . S
N201 C198 1.368 . S
N201 C202 1.321 . S
N201 Co204 2.135 . S
C202 N200 1.340 . S
C202 N201 1.321 . S
C202 H226 0.930 . S
H203 C198 0.931 . S
Co204 N201 2.135 . S
Co204 N207 2.121 . S
Co204 O212 2.055 . S
Co204 O215 2.039 . S
Co204 N218 2.140 . S
C205 O206 1.227 . S
C205 O215 1.265 . S
O206 C205 1.227 . S
N207 Co204 2.121 . S
N207 C209 1.375 . S
N207 C210 1.313 . S
C208 C209 1.338 . S
C208 N211 1.377 . S
C208 H228 0.930 . S
C209 N207 1.375 . S
C209 C208 1.338 . S
C209 H213 0.931 . S
C210 N207 1.313 . S
C210 N211 1.344 . S
C210 H214 0.930 . S
N211 C208 1.377 . S
N211 C210 1.344 . S
O212 Co204 2.055 . S
O212 C216 1.253 . S
H213 C209 0.931 . S
H214 C210 0.930 . S
O215 Co204 2.039 . S
O215 C205 1.265 . S
C216 O212 1.253 . S
C216 O217 1.227 . S
O217 C216 1.227 . S
N218 Co204 2.140 . S
N218 C221 1.346 . S
N218 C222 1.345 . S
C219 C220 1.387 . S
C219 C223 1.391 . S
C220 C219 1.387 . S
C220 C221 1.369 . S
C220 H229 0.929 . S
C221 N218 1.346 . S
C221 C220 1.369 . S
C221 H224 0.928 . S
C222 N218 1.345 . S
C222 C223 1.371 . S
C222 H225 0.931 . S
C223 C219 1.391 . S
C223 C222 1.371 . S
C223 H230 0.930 . S
H224 C221 0.928 . S
H225 C222 0.931 . S
H226 C202 0.930 . S
H227 C199 0.930 . S
H228 C208 0.930 . S
H229 C220 0.929 . S
H230 C223 0.930 . S
C231 C232 1.351 . S
C231 N234 1.368 . S
C231 H236 0.931 . S
C232 C231 1.351 . S
C232 N233 1.373 . S
C232 H260 0.930 . S
N233 C232 1.373 . S
N233 C235 1.340 . S
N234 C231 1.368 . S
N234 C235 1.321 . S
N234 Co237 2.135 . S
C235 N233 1.340 . S
C235 N234 1.321 . S
C235 H259 0.930 . S
H236 C231 0.931 . S
Co237 N234 2.135 . S
Co237 N240 2.121 . S
Co237 O245 2.055 . S
Co237 O248 2.039 . S
Co237 N251 2.140 . S
C238 O239 1.227 . S
C238 O248 1.265 . S
O239 C238 1.227 . S
N240 Co237 2.121 . S
N240 C242 1.375 . S
N240 C243 1.313 . S
C241 C242 1.338 . S
C241 N244 1.377 . S
C241 H261 0.930 . S
C242 N240 1.375 . S
C242 C241 1.338 . S
C242 H246 0.931 . S
C243 N240 1.313 . S
C243 N244 1.344 . S
C243 H247 0.930 . S
N244 C241 1.377 . S
N244 C243 1.344 . S
O245 Co237 2.055 . S
O245 C249 1.253 . S
H246 C242 0.931 . S
H247 C243 0.930 . S
O248 Co237 2.039 . S
O248 C238 1.265 . S
C249 O245 1.253 . S
C249 O250 1.227 . S
O250 C249 1.227 . S
N251 Co237 2.140 . S
N251 C254 1.346 . S
N251 C255 1.345 . S
C252 C253 1.387 . S
C252 C256 1.391 . S
C253 C252 1.387 . S
C253 C254 1.369 . S
C253 H262 0.929 . S
C254 N251 1.346 . S
C254 C253 1.369 . S
C254 H257 0.928 . S
C255 N251 1.345 . S
C255 C256 1.371 . S
C255 H258 0.931 . S
C256 C252 1.391 . S
C256 C255 1.371 . S
C256 H263 0.930 . S
H257 C254 0.928 . S
H258 C255 0.931 . S
H259 C235 0.930 . S
H260 C232 0.930 . S
H261 C241 0.930 . S
H262 C253 0.929 . S
H263 C256 0.930 . S
H264 C276 0.930 . S
H265 C278 0.930 . S
H266 C279 0.930 . S
H267 C283 0.959 . S
H268 C283 0.959 . S
H269 C283 0.961 . S
H270 C284 0.960 . S
H271 C284 0.961 . S
H272 C284 0.959 . S
H273 C287 0.929 . S
H274 C288 0.931 . S
H275 C290 0.930 . S
C276 H264 0.930 . S
C276 C277 1.399 . S
C276 C281 1.399 . S
C277 C276 1.399 . S
C277 C278 1.376 . S
C278 H265 0.930 . S
C278 C277 1.376 . S
C278 C279 1.388 . S
C279 H266 0.930 . S
C279 C278 1.388 . S
C279 C280 1.390 . S
C280 C279 1.390 . S
C280 C281 1.394 . S
C280 C286 1.465 . S
C281 C276 1.399 . S
C281 C280 1.394 . S
C281 C282 1.516 . S
C282 C281 1.516 . S
C282 C283 1.502 . S
C282 C284 1.561 . S
C282 C285 1.526 . S
C283 H267 0.959 . S
C283 H268 0.959 . S
C283 H269 0.961 . S
C283 C282 1.502 . S
C284 H270 0.960 . S
C284 H271 0.961 . S
C284 H272 0.959 . S
C284 C282 1.561 . S
C285 C282 1.526 . S
C285 C286 1.396 . S
C285 C290 1.390 . S
C286 C280 1.465 . S
C286 C285 1.396 . S
C286 C287 1.399 . S
C287 H273 0.929 . S
C287 C286 1.399 . S
C287 C288 1.385 . S
C288 H274 0.931 . S
C288 C287 1.385 . S
C288 C289 1.389 . S
C289 C288 1.389 . S
C289 C290 1.387 . S
C290 H275 0.930 . S
C290 C285 1.390 . S
C290 C289 1.387 . S
H291 C303 0.930 . S
H292 C305 0.930 . S
H293 C306 0.930 . S
H294 C310 0.959 . S
H295 C310 0.959 . S
H296 C310 0.961 . S
H297 C311 0.960 . S
H298 C311 0.961 . S
H299 C311 0.959 . S
H300 C314 0.929 1_554 S
H301 C315 0.931 . S
H302 C317 0.930 . S
C303 H291 0.930 . S
C303 C304 1.399 . S
C303 C308 1.399 . S
C304 C303 1.399 . S
C304 C305 1.376 . S
C305 H292 0.930 . S
C305 C304 1.376 . S
C305 C306 1.388 . S
C306 H293 0.930 . S
C306 C305 1.388 . S
C306 C307 1.390 . S
C307 C306 1.390 . S
C307 C308 1.394 . S
C307 C313 1.465 1_554 S
C308 C303 1.399 . S
C308 C307 1.394 . S
C308 C309 1.516 1_554 S
C309 C308 1.516 1_556 S
C309 C310 1.502 . S
C309 C311 1.561 . S
C309 C312 1.526 . S
C310 H294 0.959 . S
C310 H295 0.959 . S
C310 H296 0.961 . S
C310 C309 1.502 . S
C311 H297 0.960 . S
C311 H298 0.961 . S
C311 H299 0.959 . S
C311 C309 1.561 . S
C312 C309 1.526 . S
C312 C313 1.396 . S
C312 C317 1.390 . S
C313 C307 1.465 1_556 S
C313 C312 1.396 . S
C313 C314 1.399 . S
C314 H300 0.929 1_556 S
C314 C313 1.399 . S
C314 C315 1.385 . S
C315 H301 0.931 . S
C315 C314 1.385 . S
C315 C316 1.389 . S
C316 C315 1.389 . S
C316 C317 1.387 . S
C317 H302 0.930 . S
C317 C312 1.390 . S
C317 C316 1.387 . S
H318 C330 0.930 . S
H319 C332 0.930 . S
H320 C333 0.930 . S
H321 C337 0.959 . S
H322 C337 0.959 . S
H323 C337 0.961 . S
H324 C338 0.960 . S
H325 C338 0.961 . S
H326 C338 0.959 . S
H327 C341 0.929 . S
H328 C342 0.931 . S
H329 C344 0.930 . S
C330 H318 0.930 . S
C330 C331 1.399 . S
C330 C335 1.399 . S
C331 C330 1.399 . S
C331 C332 1.376 . S
C332 H319 0.930 . S
C332 C331 1.376 . S
C332 C333 1.388 . S
C333 H320 0.930 . S
C333 C332 1.388 . S
C333 C334 1.390 . S
C334 C333 1.390 . S
C334 C335 1.394 . S
C334 C340 1.465 . S
C335 C330 1.399 . S
C335 C334 1.394 . S
C335 C336 1.516 . S
C336 C335 1.516 . S
C336 C337 1.502 . S
C336 C338 1.561 . S
C336 C339 1.526 . S
C337 H321 0.959 . S
C337 H322 0.959 . S
C337 H323 0.961 . S
C337 C336 1.502 . S
C338 H324 0.960 . S
C338 H325 0.961 . S
C338 H326 0.959 . S
C338 C336 1.561 . S
C339 C336 1.526 . S
C339 C340 1.396 . S
C339 C344 1.390 . S
C340 C334 1.465 . S
C340 C339 1.396 . S
C340 C341 1.399 . S
C341 H327 0.929 . S
C341 C340 1.399 . S
C341 C342 1.385 . S
C342 H328 0.931 . S
C342 C341 1.385 . S
C342 C343 1.389 . S
C343 C342 1.389 . S
C343 C344 1.387 . S
C344 H329 0.930 . S
C344 C339 1.390 . S
C344 C343 1.387 . S
H345 C357 0.930 . S
H346 C359 0.930 . S
H347 C360 0.930 . S
H348 C364 0.959 . S
H349 C364 0.959 . S
H350 C364 0.961 . S
H351 C365 0.960 . S
H352 C365 0.961 . S
H353 C365 0.959 . S
H354 C368 0.929 . S
H355 C369 0.931 . S
H356 C371 0.930 . S
C357 H345 0.930 . S
C357 C358 1.399 . S
C357 C362 1.399 . S
C358 C357 1.399 . S
C358 C359 1.376 . S
C359 H346 0.930 . S
C359 C358 1.376 . S
C359 C360 1.388 1_556 S
C360 H347 0.930 . S
C360 C359 1.388 1_554 S
C360 C361 1.390 1_554 S
C361 C360 1.390 1_556 S
C361 C362 1.394 . S
C361 C367 1.465 1_556 S
C362 C357 1.399 . S
C362 C361 1.394 . S
C362 C363 1.516 . S
C363 C362 1.516 . S
C363 C364 1.502 . S
C363 C365 1.561 . S
C363 C366 1.526 1_556 S
C364 H348 0.959 . S
C364 H349 0.959 . S
C364 H350 0.961 . S
C364 C363 1.502 . S
C365 H351 0.960 . S
C365 H352 0.961 . S
C365 H353 0.959 . S
C365 C363 1.561 . S
C366 C363 1.526 1_554 S
C366 C367 1.396 . S
C366 C371 1.390 . S
C367 C361 1.465 1_554 S
C367 C366 1.396 . S
C367 C368 1.399 . S
C368 H354 0.929 . S
C368 C367 1.399 . S
C368 C369 1.385 . S
C369 H355 0.931 . S
C369 C368 1.385 . S
C369 C370 1.389 . S
C370 C369 1.389 . S
C370 C371 1.387 . S
C371 H356 0.930 . S
C371 C366 1.390 . S
C371 C370 1.387 . S
H372 C384 0.930 . S
H373 C386 0.930 . S
H374 C387 0.930 . S
H375 C391 0.959 . S
H376 C391 0.959 . S
H377 C391 0.961 . S
H378 C392 0.960 . S
H379 C392 0.961 . S
H380 C392 0.959 . S
H381 C395 0.929 . S
H382 C396 0.931 . S
H383 C398 0.930 . S
C384 H372 0.930 . S
C384 C385 1.399 . S
C384 C389 1.399 . S
C385 C384 1.399 . S
C385 C386 1.376 . S
C386 H373 0.930 . S
C386 C385 1.376 . S
C386 C387 1.388 . S
C387 H374 0.930 . S
C387 C386 1.388 . S
C387 C388 1.390 . S
C388 C387 1.390 . S
C388 C389 1.394 . S
C388 C394 1.465 . S
C389 C384 1.399 . S
C389 C388 1.394 . S
C389 C390 1.516 . S
C390 C389 1.516 . S
C390 C391 1.502 . S
C390 C392 1.561 . S
C390 C393 1.526 . S
C391 H375 0.959 . S
C391 H376 0.959 . S
C391 H377 0.961 . S
C391 C390 1.502 . S
C392 H378 0.960 . S
C392 H379 0.961 . S
C392 H380 0.959 . S
C392 C390 1.561 . S
C393 C390 1.526 . S
C393 C394 1.396 . S
C393 C398 1.390 . S
C394 C388 1.465 . S
C394 C393 1.396 . S
C394 C395 1.399 . S
C395 H381 0.929 . S
C395 C394 1.399 . S
C395 C396 1.385 . S
C396 H382 0.931 . S
C396 C395 1.385 . S
C396 C397 1.389 . S
C397 C396 1.389 . S
C397 C398 1.387 . S
C398 H383 0.930 . S
C398 C393 1.390 . S
C398 C397 1.387 . S
H399 C411 0.930 . S
H400 C413 0.930 . S
H401 C414 0.930 . S
H402 C418 0.959 . S
H403 C418 0.959 . S
H404 C418 0.961 . S
H405 C419 0.960 . S
H406 C419 0.961 . S
H407 C419 0.959 . S
H408 C422 0.929 . S
H409 C423 0.931 . S
H410 C425 0.930 . S
C411 H399 0.930 . S
C411 C412 1.399 . S
C411 C416 1.399 . S
C412 C411 1.399 . S
C412 C413 1.376 . S
C413 H400 0.930 . S
C413 C412 1.376 . S
C413 C414 1.388 . S
C414 H401 0.930 . S
C414 C413 1.388 . S
C414 C415 1.390 . S
C415 C414 1.390 . S
C415 C416 1.394 . S
C415 C421 1.465 . S
C416 C411 1.399 . S
C416 C415 1.394 . S
C416 C417 1.516 . S
C417 C416 1.516 . S
C417 C418 1.502 . S
C417 C419 1.561 . S
C417 C420 1.526 . S
C418 H402 0.959 . S
C418 H403 0.959 . S
C418 H404 0.961 . S
C418 C417 1.502 . S
C419 H405 0.960 . S
C419 H406 0.961 . S
C419 H407 0.959 . S
C419 C417 1.561 . S
C420 C417 1.526 . S
C420 C421 1.396 . S
C420 C425 1.390 . S
C421 C415 1.465 . S
C421 C420 1.396 . S
C421 C422 1.399 . S
C422 H408 0.929 . S
C422 C421 1.399 . S
C422 C423 1.385 . S
C423 H409 0.931 . S
C423 C422 1.385 . S
C423 C424 1.389 . S
C424 C423 1.389 . S
C424 C425 1.387 . S
C425 H410 0.930 . S
C425 C420 1.390 . S
C425 C424 1.387 . S
H426 C438 0.930 . S
H427 C440 0.930 . S
H428 C441 0.930 . S
H429 C445 0.959 . S
H430 C445 0.959 . S
H431 C445 0.961 . S
H432 C446 0.960 1_455 S
H433 C446 0.961 . S
H434 C446 0.959 . S
H435 C449 0.929 . S
H436 C450 0.931 . S
H437 C452 0.930 . S
C438 H426 0.930 . S
C438 C439 1.399 . S
C438 C443 1.399 . S
C439 C438 1.399 . S
C439 C440 1.376 . S
C440 H427 0.930 . S
C440 C439 1.376 . S
C440 C441 1.388 . S
C441 H428 0.930 . S
C441 C440 1.388 . S
C441 C442 1.390 . S
C442 C441 1.390 . S
C442 C443 1.394 . S
C442 C448 1.465 1_455 S
C443 C438 1.399 . S
C443 C442 1.394 . S
C443 C444 1.516 . S
C444 C443 1.516 . S
C444 C445 1.502 . S
C444 C446 1.561 1_455 S
C444 C447 1.526 1_455 S
C445 H429 0.959 . S
C445 H430 0.959 . S
C445 H431 0.961 . S
C445 C444 1.502 . S
C446 H432 0.960 1_655 S
C446 H433 0.961 . S
C446 H434 0.959 . S
C446 C444 1.561 1_655 S
C447 C444 1.526 1_655 S
C447 C448 1.396 . S
C447 C452 1.390 . S
C448 C442 1.465 1_655 S
C448 C447 1.396 . S
C448 C449 1.399 . S
C449 H435 0.929 . S
C449 C448 1.399 . S
C449 C450 1.385 . S
C450 H436 0.931 . S
C450 C449 1.385 . S
C450 C451 1.389 . S
C451 C450 1.389 . S
C451 C452 1.387 . S
C452 H437 0.930 . S
C452 C447 1.390 . S
C452 C451 1.387 . S
H453 C465 0.930 . S
H454 C467 0.930 . S
H455 C468 0.930 . S
H456 C472 0.959 . S
H457 C472 0.959 . S
H458 C472 0.961 1_455 S
H459 C473 0.960 . S
H460 C473 0.961 . S
H461 C473 0.959 . S
H462 C476 0.929 . S
H463 C477 0.931 . S
H464 C479 0.930 . S
C465 H453 0.930 . S
C465 C466 1.399 . S
C465 C470 1.399 . S
C466 C465 1.399 . S
C466 C467 1.376 . S
C467 H454 0.930 . S
C467 C466 1.376 . S
C467 C468 1.388 . S
C468 H455 0.930 . S
C468 C467 1.388 . S
C468 C469 1.390 . S
C469 C468 1.390 . S
C469 C470 1.394 . S
C469 C475 1.465 1_455 S
C470 C465 1.399 . S
C470 C469 1.394 . S
C470 C471 1.516 . S
C471 C470 1.516 . S
C471 C472 1.502 1_455 S
C471 C473 1.561 . S
C471 C474 1.526 1_455 S
C472 H456 0.959 . S
C472 H457 0.959 . S
C472 H458 0.961 1_655 S
C472 C471 1.502 1_655 S
C473 H459 0.960 . S
C473 H460 0.961 . S
C473 H461 0.959 . S
C473 C471 1.561 . S
C474 C471 1.526 1_655 S
C474 C475 1.396 . S
C474 C479 1.390 . S
C475 C469 1.465 1_655 S
C475 C474 1.396 . S
C475 C476 1.399 . S
C476 H462 0.929 . S
C476 C475 1.399 . S
C476 C477 1.385 . S
C477 H463 0.931 . S
C477 C476 1.385 . S
C477 C478 1.389 . S
C478 C477 1.389 . S
C478 C479 1.387 . S
C479 H464 0.930 . S
C479 C474 1.390 . S
C479 C478 1.387 . S
H480 C492 0.930 . S
H481 C494 0.930 . S
H482 C495 0.930 . S
H483 C499 0.959 . S
H484 C499 0.959 . S
H485 C499 0.961 . S
H486 C500 0.960 . S
H487 C500 0.961 . S
H488 C500 0.959 . S
H489 C503 0.929 . S
H490 C504 0.931 . S
H491 C506 0.930 . S
C492 H480 0.930 . S
C492 C493 1.399 . S
C492 C497 1.399 . S
C493 C492 1.399 . S
C493 C494 1.376 . S
C494 H481 0.930 . S
C494 C493 1.376 . S
C494 C495 1.388 . S
C495 H482 0.930 . S
C495 C494 1.388 . S
C495 C496 1.390 . S
C496 C495 1.390 . S
C496 C497 1.394 . S
C496 C502 1.465 . S
C497 C492 1.399 . S
C497 C496 1.394 . S
C497 C498 1.516 . S
C498 C497 1.516 . S
C498 C499 1.502 . S
C498 C500 1.561 . S
C498 C501 1.526 . S
C499 H483 0.959 . S
C499 H484 0.959 . S
C499 H485 0.961 . S
C499 C498 1.502 . S
C500 H486 0.960 . S
C500 H487 0.961 . S
C500 H488 0.959 . S
C500 C498 1.561 . S
C501 C498 1.526 . S
C501 C502 1.396 . S
C501 C506 1.390 . S
C502 C496 1.465 . S
C502 C501 1.396 . S
C502 C503 1.399 . S
C503 H489 0.929 . S
C503 C502 1.399 . S
C503 C504 1.385 . S
C504 H490 0.931 . S
C504 C503 1.385 . S
C504 C505 1.389 . S
C505 C504 1.389 . S
C505 C506 1.387 . S
C506 H491 0.930 . S
C506 C501 1.390 . S
C506 C505 1.387 . S
H507 C519 0.930 . S
H508 C521 0.930 . S
H509 C522 0.930 . S
H510 C526 0.959 . S
H511 C526 0.959 . S
H512 C526 0.961 . S
H513 C527 0.960 . S
H514 C527 0.961 . S
H515 C527 0.959 . S
H516 C530 0.929 . S
H517 C531 0.931 . S
H518 C533 0.930 . S
C519 H507 0.930 . S
C519 C520 1.399 . S
C519 C524 1.399 . S
C520 C519 1.399 . S
C520 C521 1.376 . S
C521 H508 0.930 . S
C521 C520 1.376 . S
C521 C522 1.388 . S
C522 H509 0.930 . S
C522 C521 1.388 . S
C522 C523 1.390 . S
C523 C522 1.390 . S
C523 C524 1.394 . S
C523 C529 1.465 . S
C524 C519 1.399 . S
C524 C523 1.394 . S
C524 C525 1.516 . S
C525 C524 1.516 . S
C525 C526 1.502 . S
C525 C527 1.561 . S
C525 C528 1.526 . S
C526 H510 0.959 . S
C526 H511 0.959 . S
C526 H512 0.961 . S
C526 C525 1.502 . S
C527 H513 0.960 . S
C527 H514 0.961 . S
C527 H515 0.959 . S
C527 C525 1.561 . S
C528 C525 1.526 . S
C528 C529 1.396 . S
C528 C533 1.390 . S
C529 C523 1.465 . S
C529 C528 1.396 . S
C529 C530 1.399 . S
C530 H516 0.929 . S
C530 C529 1.399 . S
C530 C531 1.385 . S
C531 H517 0.931 . S
C531 C530 1.385 . S
C531 C532 1.389 . S
C532 C531 1.389 . S
C532 C533 1.387 . S
C533 H518 0.930 . S
C533 C528 1.390 . S
C533 C532 1.387 . S
H534 C546 0.930 . S
H535 C548 0.930 . S
H536 C549 0.930 . S
H537 C553 0.959 . S
H538 C553 0.959 . S
H539 C553 0.961 . S
H540 C554 0.960 . S
H541 C554 0.961 . S
H542 C554 0.959 . S
H543 C557 0.929 . S
H544 C558 0.931 . S
H545 C560 0.930 . S
C546 H534 0.930 . S
C546 C547 1.399 . S
C546 C551 1.399 . S
C547 C546 1.399 . S
C547 C548 1.376 . S
C548 H535 0.930 . S
C548 C547 1.376 . S
C548 C549 1.388 . S
C549 H536 0.930 . S
C549 C548 1.388 . S
C549 C550 1.390 . S
C550 C549 1.390 . S
C550 C551 1.394 . S
C550 C556 1.465 . S
C551 C546 1.399 . S
C551 C550 1.394 . S
C551 C552 1.516 . S
C552 C551 1.516 . S
C552 C553 1.502 . S
C552 C554 1.561 . S
C552 C555 1.526 . S
C553 H537 0.959 . S
C553 H538 0.959 . S
C553 H539 0.961 . S
C553 C552 1.502 . S
C554 H540 0.960 . S
C554 H541 0.961 . S
C554 H542 0.959 . S
C554 C552 1.561 . S
C555 C552 1.526 . S
C555 C556 1.396 . S
C555 C560 1.390 . S
C556 C550 1.465 . S
C556 C555 1.396 . S
C556 C557 1.399 . S
C557 H543 0.929 . S
C557 C556 1.399 . S
C557 C558 1.385 . S
C558 H544 0.931 . S
C558 C557 1.385 . S
C558 C559 1.389 . S
C559 C558 1.389 . S
C559 C560 1.387 . S
C560 H545 0.930 . S
C560 C555 1.390 . S
C560 C559 1.387 . S
H561 C573 0.930 . S
H562 C575 0.930 . S
H563 C576 0.930 . S
H564 C580 0.959 . S
H565 C580 0.959 . S
H566 C580 0.961 . S
H567 C581 0.960 . S
H568 C581 0.961 . S
H569 C581 0.959 . S
H570 C584 0.929 . S
H571 C585 0.942 . S
H572 C587 0.930 . S
C573 H561 0.930 . S
C573 C574 1.399 . S
C573 C578 1.399 . S
C574 C573 1.399 . S
C574 C575 1.376 . S
C575 H562 0.930 . S
C575 C574 1.376 . S
C575 C576 1.388 . S
C576 H563 0.930 . S
C576 C575 1.388 . S
C576 C577 1.390 . S
C577 C576 1.390 . S
C577 C578 1.394 . S
C577 C583 1.465 . S
C578 C573 1.399 . S
C578 C577 1.394 . S
C578 C579 1.516 . S
C579 C578 1.516 . S
C579 C580 1.502 . S
C579 C581 1.561 . S
C579 C582 1.526 . S
C580 H564 0.959 . S
C580 H565 0.959 . S
C580 H566 0.961 . S
C580 C579 1.502 . S
C581 H567 0.960 . S
C581 H568 0.961 . S
C581 H569 0.959 . S
C581 C579 1.561 . S
C582 C579 1.526 . S
C582 C583 1.396 . S
C582 C587 1.390 . S
C583 C577 1.465 . S
C583 C582 1.396 . S
C583 C584 1.399 . S
C584 H570 0.929 . S
C584 C583 1.399 . S
C584 C585 1.385 . S
C585 H571 0.942 . S
C585 C584 1.385 . S
C585 C586 1.389 . S
C586 C585 1.389 . S
C586 C587 1.387 . S
C587 H572 0.930 . S
C587 C582 1.390 . S
C587 C586 1.387 . S
H588 C600 0.930 . S
H589 C602 0.930 . S
H590 C603 0.930 . S
H591 C607 0.959 . S
H592 C607 0.959 . S
H593 C607 0.961 . S
H594 C608 0.960 . S
H595 C608 0.961 . S
H596 C608 0.959 . S
H597 C611 0.929 . S
H598 C612 0.931 . S
H599 C614 0.930 . S
C600 H588 0.930 . S
C600 C601 1.399 . S
C600 C605 1.399 . S
C601 C600 1.399 . S
C601 C602 1.376 . S
C602 H589 0.930 . S
C602 C601 1.376 . S
C602 C603 1.388 . S
C603 H590 0.930 . S
C603 C602 1.388 . S
C603 C604 1.390 . S
C604 C603 1.390 . S
C604 C605 1.394 . S
C604 C610 1.465 . S
C605 C600 1.399 . S
C605 C604 1.394 . S
C605 C606 1.516 . S
C606 C605 1.516 . S
C606 C607 1.502 . S
C606 C608 1.561 . S
C606 C609 1.526 . S
C607 H591 0.959 . S
C607 H592 0.959 . S
C607 H593 0.961 . S
C607 C606 1.502 . S
C608 H594 0.960 . S
C608 H595 0.961 . S
C608 H596 0.959 . S
C608 C606 1.561 . S
C609 C606 1.526 . S
C609 C610 1.396 . S
C609 C614 1.390 . S
C610 C604 1.465 . S
C610 C609 1.396 . S
C610 C611 1.399 . S
C611 H597 0.929 . S
C611 C610 1.399 . S
C611 C612 1.385 . S
C612 H598 0.931 . S
C612 C611 1.385 . S
C612 C613 1.389 . S
C613 C612 1.389 . S
C613 C614 1.387 . S
C614 H599 0.930 . S
C614 C609 1.390 . S
C614 C613 1.387 . S
H615 C627 0.930 . S
H616 C629 0.930 . S
H617 C630 0.930 . S
H618 C634 0.959 . S
H619 C634 0.959 . S
H620 C634 0.961 . S
H621 C635 0.960 . S
H622 C635 0.961 . S
H623 C635 0.959 . S
H624 C638 0.929 . S
H625 C639 0.931 . S
H626 C641 0.930 . S
C627 H615 0.930 . S
C627 C628 1.399 . S
C627 C632 1.399 . S
C628 C627 1.399 . S
C628 C629 1.376 . S
C629 H616 0.930 . S
C629 C628 1.376 . S
C629 C630 1.388 . S
C630 H617 0.930 . S
C630 C629 1.388 . S
C630 C631 1.390 . S
C631 C630 1.390 . S
C631 C632 1.394 . S
C631 C637 1.465 . S
C632 C627 1.399 . S
C632 C631 1.394 . S
C632 C633 1.516 . S
C633 C632 1.516 . S
C633 C634 1.502 . S
C633 C635 1.561 . S
C633 C636 1.526 . S
C634 H618 0.959 . S
C634 H619 0.959 . S
C634 H620 0.961 . S
C634 C633 1.502 . S
C635 H621 0.960 . S
C635 H622 0.961 . S
C635 H623 0.959 . S
C635 C633 1.561 . S
C636 C633 1.526 . S
C636 C637 1.396 . S
C636 C641 1.390 . S
C637 C631 1.465 . S
C637 C636 1.396 . S
C637 C638 1.399 . S
C638 H624 0.929 . S
C638 C637 1.399 . S
C638 C639 1.385 . S
C639 H625 0.931 . S
C639 C638 1.385 . S
C639 C640 1.389 . S
C640 C639 1.389 . S
C640 C641 1.387 . S
C641 H626 0.930 . S
C641 C636 1.390 . S
C641 C640 1.387 . S
H642 C654 0.930 . S
H643 C656 0.930 . S
H644 C657 0.930 . S
H645 C661 0.959 . S
H646 C661 0.959 . S
H647 C661 0.961 . S
H648 C662 0.960 . S
H649 C662 0.961 . S
H650 C662 0.959 . S
H651 C665 0.929 . S
H652 C666 0.931 . S
H653 C668 0.930 . S
C654 H642 0.930 . S
C654 C655 1.399 . S
C654 C659 1.399 . S
C655 C654 1.399 . S
C655 C656 1.376 . S
C656 H643 0.930 . S
C656 C655 1.376 . S
C656 C657 1.388 . S
C657 H644 0.930 . S
C657 C656 1.388 . S
C657 C658 1.390 . S
C658 C657 1.390 . S
C658 C659 1.394 . S
C658 C664 1.465 . S
C659 C654 1.399 . S
C659 C658 1.394 . S
C659 C660 1.516 . S
C660 C659 1.516 . S
C660 C661 1.502 . S
C660 C662 1.561 . S
C660 C663 1.526 . S
C661 H645 0.959 . S
C661 H646 0.959 . S
C661 H647 0.961 . S
C661 C660 1.502 . S
C662 H648 0.960 . S
C662 H649 0.961 . S
C662 H650 0.959 . S
C662 C660 1.561 . S
C663 C660 1.526 . S
C663 C664 1.396 . S
C663 C668 1.390 . S
C664 C658 1.465 . S
C664 C663 1.396 . S
C664 C665 1.399 . S
C665 H651 0.929 . S
C665 C664 1.399 . S
C665 C666 1.385 . S
C666 H652 0.931 . S
C666 C665 1.385 . S
C666 C667 1.389 . S
C667 C666 1.389 . S
C667 C668 1.387 . S
C668 H653 0.930 . S
C668 C663 1.390 . S
C668 C667 1.387 . S
H669 C681 0.930 . S
H670 C683 0.930 . S
H671 C684 0.930 . S
H672 C688 0.959 . S
H673 C688 0.959 . S
H674 C688 0.961 . S
H675 C689 0.960 . S
H676 C689 0.961 . S
H677 C689 0.959 . S
H678 C692 0.929 . S
H679 C693 0.931 . S
H680 C695 0.930 . S
C681 H669 0.930 . S
C681 C682 1.399 . S
C681 C686 1.399 . S
C682 C681 1.399 . S
C682 C683 1.376 . S
C683 H670 0.930 . S
C683 C682 1.376 . S
C683 C684 1.388 . S
C684 H671 0.930 . S
C684 C683 1.388 . S
C684 C685 1.390 . S
C685 C684 1.390 . S
C685 C686 1.394 . S
C685 C691 1.465 . S
C686 C681 1.399 . S
C686 C685 1.394 . S
C686 C687 1.516 . S
C687 C686 1.516 . S
C687 C688 1.502 . S
C687 C689 1.561 . S
C687 C690 1.526 . S
C688 H672 0.959 . S
C688 H673 0.959 . S
C688 H674 0.961 . S
C688 C687 1.502 . S
C689 H675 0.960 . S
C689 H676 0.961 . S
C689 H677 0.959 . S
C689 C687 1.561 . S
C690 C687 1.526 . S
C690 C691 1.396 . S
C690 C695 1.390 . S
C691 C685 1.465 . S
C691 C690 1.396 . S
C691 C692 1.399 . S
C692 H678 0.929 . S
C692 C691 1.399 . S
C692 C693 1.385 . S
C693 H679 0.931 . S
C693 C692 1.385 . S
C693 C694 1.389 . S
C694 C693 1.389 . S
C694 C695 1.387 . S
C695 H680 0.930 . S
C695 C690 1.390 . S
C695 C694 1.387 . S
H696 C708 0.930 . S
H697 C710 0.930 . S
H698 C711 0.930 . S
H699 C715 0.959 . S
H700 C715 0.959 . S
H701 C715 0.961 . S
H702 C716 0.960 . S
H703 C716 0.961 . S
H704 C716 0.959 1_545 S
H705 C719 0.929 . S
H706 C720 0.931 . S
H707 C722 0.930 . S
C708 H696 0.930 . S
C708 C709 1.399 . S
C708 C713 1.399 . S
C709 C708 1.399 . S
C709 C710 1.376 . S
C710 H697 0.930 . S
C710 C709 1.376 . S
C710 C711 1.388 . S
C711 H698 0.930 . S
C711 C710 1.388 . S
C711 C712 1.390 . S
C712 C711 1.390 . S
C712 C713 1.394 . S
C712 C718 1.465 . S
C713 C708 1.399 . S
C713 C712 1.394 . S
C713 C714 1.516 1_545 S
C714 C713 1.516 1_565 S
C714 C715 1.502 . S
C714 C716 1.561 . S
C714 C717 1.531 . S
C715 H699 0.959 . S
C715 H700 0.959 . S
C715 H701 0.961 . S
C715 C714 1.502 . S
C716 H702 0.960 . S
C716 H703 0.961 . S
C716 H704 0.959 1_565 S
C716 C714 1.561 . S
C717 C714 1.531 . S
C717 C718 1.375 1_565 S
C717 C722 1.403 . S
C718 C712 1.465 . S
C718 C717 1.375 1_545 S
C718 C719 1.399 . S
C719 H705 0.929 . S
C719 C718 1.399 . S
C719 C720 1.385 . S
C720 H706 0.931 . S
C720 C719 1.385 . S
C720 C721 1.389 1_545 S
C721 C720 1.389 1_565 S
C721 C722 1.387 . S
C722 H707 0.930 . S
C722 C717 1.403 . S
C722 C721 1.387 . S
H723 C735 0.930 . S
H724 C737 0.930 . S
H725 C738 0.930 1_556 S
H726 C742 0.959 . S
H727 C742 0.959 . S
H728 C742 0.961 . S
H729 C743 0.960 . S
H730 C743 0.961 . S
H731 C743 0.959 1_545 S
H732 C746 0.929 . S
H733 C747 0.931 . S
H734 C749 0.930 . S
C735 H723 0.930 . S
C735 C736 1.399 . S
C735 C740 1.399 . S
C736 C735 1.399 . S
C736 C737 1.376 . S
C737 H724 0.930 . S
C737 C736 1.376 . S
C737 C738 1.388 . S
C738 H725 0.930 1_554 S
C738 C737 1.388 . S
C738 C739 1.390 . S
C739 C738 1.390 . S
C739 C740 1.394 . S
C739 C745 1.465 1_554 S
C740 C735 1.399 . S
C740 C739 1.394 . S
C740 C741 1.516 1_545 S
C741 C740 1.516 1_565 S
C741 C742 1.502 . S
C741 C743 1.561 . S
C741 C744 1.526 1_554 S
C742 H726 0.959 . S
C742 H727 0.959 . S
C742 H728 0.961 . S
C742 C741 1.502 . S
C743 H729 0.960 . S
C743 H730 0.961 . S
C743 H731 0.959 1_565 S
C743 C741 1.561 . S
C744 C741 1.526 1_556 S
C744 C745 1.396 1_565 S
C744 C749 1.390 . S
C745 C739 1.465 1_556 S
C745 C744 1.396 1_545 S
C745 C746 1.399 . S
C746 H732 0.929 . S
C746 C745 1.399 . S
C746 C747 1.385 . S
C747 H733 0.931 . S
C747 C746 1.385 . S
C747 C748 1.389 1_545 S
C748 C747 1.389 1_565 S
C748 C749 1.387 . S
C749 H734 0.930 . S
C749 C744 1.390 . S
C749 C748 1.387 . S
H750 C762 0.930 . S
H751 C764 0.930 . S
H752 C765 0.930 . S
H753 C769 0.959 . S
H754 C769 0.959 . S
H755 C769 0.961 . S
H756 C770 0.960 . S
H757 C770 0.961 . S
H758 C770 0.959 . S
H759 C773 0.929 . S
H760 C774 0.931 . S
H761 C776 0.930 . S
C762 H750 0.930 . S
C762 C763 1.399 . S
C762 C767 1.399 1_455 S
C763 C762 1.399 . S
C763 C764 1.376 . S
C764 H751 0.930 . S
C764 C763 1.376 . S
C764 C765 1.388 . S
C765 H752 0.930 . S
C765 C764 1.388 . S
C765 C766 1.390 1_455 S
C766 C765 1.390 1_655 S
C766 C767 1.394 . S
C766 C772 1.465 . S
C767 C762 1.399 1_655 S
C767 C766 1.394 . S
C767 C768 1.516 . S
C768 C767 1.516 . S
C768 C769 1.502 . S
C768 C770 1.561 . S
C768 C771 1.526 . S
C769 H753 0.959 . S
C769 H754 0.959 . S
C769 H755 0.961 . S
C769 C768 1.502 . S
C770 H756 0.960 . S
C770 H757 0.961 . S
C770 H758 0.959 . S
C770 C768 1.561 . S
C771 C768 1.526 . S
C771 C772 1.396 . S
C771 C776 1.390 . S
C772 C766 1.465 . S
C772 C771 1.396 . S
C772 C773 1.399 . S
C773 H759 0.929 . S
C773 C772 1.399 . S
C773 C774 1.385 . S
C774 H760 0.931 . S
C774 C773 1.385 . S
C774 C775 1.389 . S
C775 C774 1.389 . S
C775 C776 1.387 . S
C776 H761 0.930 . S
C776 C771 1.390 . S
C776 C775 1.387 . S
H777 C789 0.930 . S
H778 C791 0.930 . S
H779 C792 0.930 . S
H780 C796 0.959 . S
H781 C796 0.959 . S
H782 C796 0.961 . S
H783 C797 0.963 . S
H784 C797 0.961 . S
H785 C797 0.959 1_554 S
H786 C800 0.929 . S
H787 C801 0.931 . S
H788 C803 0.930 1_455 S
C789 H777 0.930 . S
C789 C790 1.399 . S
C789 C794 1.399 . S
C790 C789 1.399 . S
C790 C791 1.376 . S
C791 H778 0.930 . S
C791 C790 1.376 . S
C791 C792 1.388 . S
C792 H779 0.930 . S
C792 C791 1.388 . S
C792 C793 1.390 . S
C793 C792 1.390 . S
C793 C794 1.394 . S
C793 C799 1.465 . S
C794 C789 1.399 . S
C794 C793 1.394 . S
C794 C795 1.516 1_554 S
C795 C794 1.516 1_556 S
C795 C796 1.502 . S
C795 C797 1.561 . S
C795 C798 1.526 . S
C796 H780 0.959 . S
C796 H781 0.959 . S
C796 H782 0.961 . S
C796 C795 1.502 . S
C797 H783 0.963 . S
C797 H784 0.961 . S
C797 H785 0.959 1_556 S
C797 C795 1.561 . S
C798 C795 1.526 . S
C798 C799 1.396 1_556 S
C798 C803 1.390 1_455 S
C799 C793 1.465 . S
C799 C798 1.396 1_554 S
C799 C800 1.399 1_455 S
C800 H786 0.929 . S
C800 C799 1.399 1_655 S
C800 C801 1.385 1_554 S
C801 H787 0.931 . S
C801 C800 1.385 1_556 S
C801 C802 1.389 . S
C802 C801 1.389 . S
C802 C803 1.387 . S
C803 H788 0.930 1_655 S
C803 C798 1.390 1_655 S
C803 C802 1.387 . S
C277 C216 1.663 . S
C289 N13 1.636 . S
C304 N46 1.606 . S
C316 C249 1.644 . S
C331 C84 1.656 . S
C343 N145 1.631 . S
C358 C117 1.661 . S
C370 N178 1.639 . S
C385 N35 1.293 . S
C397 N2 1.295 . S
C412 C73 1.264 . S
C424 C106 1.251 . S
C439 N167 1.286 . S
C451 N134 1.290 . S
C466 C205 1.243 . S
C478 C238 1.247 . S
C493 C183 1.360 . S
C505 C21 1.362 . S
C520 C54 1.375 . S
C532 C150 1.353 . S
C547 C87 1.374 . S
C559 N244 1.380 . S
C574 N211 1.342 . S
C586 C120 1.374 . S
C601 C153 1.371 . S
C613 C51 1.387 . S
C628 C186 1.367 . S
C640 C18 1.353 . S
C655 C219 1.374 . S
C667 N112 1.322 . S
C682 N79 1.321 . S
C694 C252 1.374 . S
C709 C7 1.547 . S
C721 N68 1.530 . S
C736 C40 1.547 . S
C748 N101 1.530 . S
C763 N200 1.485 . S
C775 C139 1.515 . S
C790 C172 1.508 . S
C802 N233 1.477 . S
