# Generated by pormake.
# Topology uno, (4)-cn, num edge types: 1
# Building blocks:
#     Node 0, Type 0, BuildingBlock: QUQFOY_clean_sbu_1, # of connection points: 4
#     Node 1, Type 0, BuildingBlock: QUQFOY_clean_sbu_1, # of connection points: 4
#     Node 2, Type 0, BuildingBlock: QUQFOY_clean_sbu_1, # of connection points: 4
#     Node 3, Type 0, BuildingBlock: QUQFOY_clean_sbu_1, # of connection points: 4
#     Node 4, Type 0, BuildingBlock: QUQFOY_clean_sbu_1, # of connection points: 4
#     Node 5, Type 0, BuildingBlock: QUQFOY_clean_sbu_1, # of connection points: 4
#     Node 6, Type 0, BuildingBlock: QUQFOY_clean_sbu_1, # of connection points: 4
#     Node 7, Type 0, BuildingBlock: QUQFOY_clean_sbu_1, # of connection points: 4
#     Node 8, Type 0, BuildingBlock: QUQFOY_clean_sbu_1, # of connection points: 4
#     Node 9, Type 0, BuildingBlock: QUQFOY_clean_sbu_1, # of connection points: 4
#     Node 10, Type 0, BuildingBlock: QUQFOY_clean_sbu_1, # of connection points: 4
#     Node 11, Type 0, BuildingBlock: QUQFOY_clean_sbu_1, # of connection points: 4
#     Node 12, Type 0, BuildingBlock: QUQFOY_clean_sbu_1, # of connection points: 4
#     Node 13, Type 0, BuildingBlock: QUQFOY_clean_sbu_1, # of connection points: 4
#     Node 14, Type 0, BuildingBlock: QUQFOY_clean_sbu_1, # of connection points: 4
#     Node 15, Type 0, BuildingBlock: QUQFOY_clean_sbu_1, # of connection points: 4
#     Node 16, Type 0, BuildingBlock: QUQFOY_clean_sbu_1, # of connection points: 4
#     Node 17, Type 0, BuildingBlock: QUQFOY_clean_sbu_1, # of connection points: 4
#     Node 18, Type 0, BuildingBlock: QUQFOY_clean_sbu_1, # of connection points: 4
#     Node 19, Type 0, BuildingBlock: QUQFOY_clean_sbu_1, # of connection points: 4
#     Node 20, Type 0, BuildingBlock: QUQFOY_clean_sbu_1, # of connection points: 4
#     Node 21, Type 0, BuildingBlock: QUQFOY_clean_sbu_1, # of connection points: 4
#     Node 22, Type 0, BuildingBlock: QUQFOY_clean_sbu_1, # of connection points: 4
#     Node 23, Type 0, BuildingBlock: QUQFOY_clean_sbu_1, # of connection points: 4
#     Edge 24, Type (0, 0), BuildingBlock: UVAHIK_clean_linker_0, # of connection points: 2
#     Edge 25, Type (0, 0), BuildingBlock: UVAHIK_clean_linker_0, # of connection points: 2
#     Edge 26, Type (0, 0), BuildingBlock: UVAHIK_clean_linker_0, # of connection points: 2
#     Edge 27, Type (0, 0), BuildingBlock: UVAHIK_clean_linker_0, # of connection points: 2
#     Edge 28, Type (0, 0), BuildingBlock: UVAHIK_clean_linker_0, # of connection points: 2
#     Edge 29, Type (0, 0), BuildingBlock: UVAHIK_clean_linker_0, # of connection points: 2
#     Edge 30, Type (0, 0), BuildingBlock: UVAHIK_clean_linker_0, # of connection points: 2
#     Edge 31, Type (0, 0), BuildingBlock: UVAHIK_clean_linker_0, # of connection points: 2
#     Edge 32, Type (0, 0), BuildingBlock: UVAHIK_clean_linker_0, # of connection points: 2
#     Edge 33, Type (0, 0), BuildingBlock: UVAHIK_clean_linker_0, # of connection points: 2
#     Edge 34, Type (0, 0), BuildingBlock: UVAHIK_clean_linker_0, # of connection points: 2
#     Edge 35, Type (0, 0), BuildingBlock: UVAHIK_clean_linker_0, # of connection points: 2
#     Edge 36, Type (0, 0), BuildingBlock: UVAHIK_clean_linker_0, # of connection points: 2
#     Edge 37, Type (0, 0), BuildingBlock: UVAHIK_clean_linker_0, # of connection points: 2
#     Edge 38, Type (0, 0), BuildingBlock: UVAHIK_clean_linker_0, # of connection points: 2
#     Edge 39, Type (0, 0), BuildingBlock: UVAHIK_clean_linker_0, # of connection points: 2
#     Edge 40, Type (0, 0), BuildingBlock: UVAHIK_clean_linker_0, # of connection points: 2
#     Edge 41, Type (0, 0), BuildingBlock: UVAHIK_clean_linker_0, # of connection points: 2
#     Edge 42, Type (0, 0), BuildingBlock: UVAHIK_clean_linker_0, # of connection points: 2
#     Edge 43, Type (0, 0), BuildingBlock: UVAHIK_clean_linker_0, # of connection points: 2
#     Edge 44, Type (0, 0), BuildingBlock: UVAHIK_clean_linker_0, # of connection points: 2
#     Edge 45, Type (0, 0), BuildingBlock: UVAHIK_clean_linker_0, # of connection points: 2
#     Edge 46, Type (0, 0), BuildingBlock: UVAHIK_clean_linker_0, # of connection points: 2
#     Edge 47, Type (0, 0), BuildingBlock: UVAHIK_clean_linker_0, # of connection points: 2
#     Edge 48, Type (0, 0), BuildingBlock: UVAHIK_clean_linker_0, # of connection points: 2
#     Edge 49, Type (0, 0), BuildingBlock: UVAHIK_clean_linker_0, # of connection points: 2
#     Edge 50, Type (0, 0), BuildingBlock: UVAHIK_clean_linker_0, # of connection points: 2
#     Edge 51, Type (0, 0), BuildingBlock: UVAHIK_clean_linker_0, # of connection points: 2
#     Edge 52, Type (0, 0), BuildingBlock: UVAHIK_clean_linker_0, # of connection points: 2
#     Edge 53, Type (0, 0), BuildingBlock: UVAHIK_clean_linker_0, # of connection points: 2
#     Edge 54, Type (0, 0), BuildingBlock: UVAHIK_clean_linker_0, # of connection points: 2
#     Edge 55, Type (0, 0), BuildingBlock: UVAHIK_clean_linker_0, # of connection points: 2
#     Edge 56, Type (0, 0), BuildingBlock: UVAHIK_clean_linker_0, # of connection points: 2
#     Edge 57, Type (0, 0), BuildingBlock: UVAHIK_clean_linker_0, # of connection points: 2
#     Edge 58, Type (0, 0), BuildingBlock: UVAHIK_clean_linker_0, # of connection points: 2
#     Edge 59, Type (0, 0), BuildingBlock: UVAHIK_clean_linker_0, # of connection points: 2
#     Edge 60, Type (0, 0), BuildingBlock: UVAHIK_clean_linker_0, # of connection points: 2
#     Edge 61, Type (0, 0), BuildingBlock: UVAHIK_clean_linker_0, # of connection points: 2
#     Edge 62, Type (0, 0), BuildingBlock: UVAHIK_clean_linker_0, # of connection points: 2
#     Edge 63, Type (0, 0), BuildingBlock: UVAHIK_clean_linker_0, # of connection points: 2
#     Edge 64, Type (0, 0), BuildingBlock: UVAHIK_clean_linker_0, # of connection points: 2
#     Edge 65, Type (0, 0), BuildingBlock: UVAHIK_clean_linker_0, # of connection points: 2
#     Edge 66, Type (0, 0), BuildingBlock: UVAHIK_clean_linker_0, # of connection points: 2
#     Edge 67, Type (0, 0), BuildingBlock: UVAHIK_clean_linker_0, # of connection points: 2
#     Edge 68, Type (0, 0), BuildingBlock: UVAHIK_clean_linker_0, # of connection points: 2
#     Edge 69, Type (0, 0), BuildingBlock: UVAHIK_clean_linker_0, # of connection points: 2
#     Edge 70, Type (0, 0), BuildingBlock: UVAHIK_clean_linker_0, # of connection points: 2
#     Edge 71, Type (0, 0), BuildingBlock: UVAHIK_clean_linker_0, # of connection points: 2
# Relax obj value: 0.249
# Max RMSD: 0.252
# Mean RMSD: 0.227
data_MOF--net-uno--node1-QUQFOY_clean_sbu_1--edge1-UVAHIK_clean_linker_0
_symmetry_space_group_name_H-M    P1
_symmetry_Int_Tables_number       1
_symmetry_cell_setting            triclinic
loop_
_symmetry_equiv_pos_as_xyz
'x, y, z'
_cell_length_a     69.113944
_cell_length_b     69.216091
_cell_length_c     69.151505
_cell_angle_alpha  90.109656
_cell_angle_beta   90.103909
_cell_angle_gamma 90.10419
loop_
_atom_site_label
_atom_site_type_symbol
_atom_site_fract_x
_atom_site_fract_y
_atom_site_fract_z
_atom_type_partial_charge
O0 O 0.10323 0.29459 0.2473 0.0
Cd1 Cd 0.08875 0.28856 0.27254 0.0
Cd2 Cd 0.07607 0.25775 0.25202 0.0
O3 O 0.08924 0.27219 0.22925 0.0
O4 O 0.08365 0.31361 0.28584 0.0
O5 O 0.06057 0.29533 0.27301 0.0
C6 C 0.06562 0.31128 0.28142 0.0
C7 C 0.04758 0.23967 0.24936 0.0
C8 C 0.10077 0.28648 0.23097 0.0
C9 C 0.1026 0.2509 0.28642 0.0
O10 O 0.09412 0.2445 0.27145 0.0
O11 O 0.10186 0.26873 0.2908 0.0
O12 O 0.06311 0.23478 0.24032 0.0
O13 O 0.04763 0.25601 0.25841 0.0
O14 O 0.02713 0.82737 0.51042 0.0
Cd15 Cd 0.01141 0.81108 0.49124 0.0
Cd16 Cd 0.98308 0.82414 0.51532 0.0
O17 O 0.00544 0.83401 0.53286 0.0
O18 O 0.03285 0.79848 0.47672 0.0
O19 O 0.01323 0.78234 0.496 0.0
C20 C 0.02868 0.78264 0.48551 0.0
C21 C 0.95759 0.80414 0.52453 0.0
C22 C 0.02276 0.83457 0.5267 0.0
C23 C 0.98294 0.83883 0.47446 0.0
O24 O 0.9768 0.84089 0.49165 0.0
O25 O 0.99582 0.82627 0.47057 0.0
O26 O 0.95847 0.82193 0.53014 0.0
O27 O 0.97207 0.79728 0.51489 0.0
O28 O 0.41521 0.71174 0.74795 0.0
Cd29 Cd 0.43047 0.71511 0.77328 0.0
Cd30 Cd 0.44247 0.74989 0.75254 0.0
O31 O 0.42674 0.73616 0.73087 0.0
O32 O 0.4314 0.68852 0.78415 0.0
O33 O 0.45752 0.70444 0.77465 0.0
C34 C 0.4498 0.68867 0.78103 0.0
C35 C 0.46506 0.77398 0.74418 0.0
C36 C 0.41599 0.72127 0.73229 0.0
C37 C 0.41956 0.75211 0.79119 0.0
O38 O 0.42772 0.75944 0.77649 0.0
O39 O 0.41892 0.73391 0.79351 0.0
O40 O 0.4469 0.77574 0.74065 0.0
O41 O 0.47088 0.7577 0.75113 0.0
O42 O 0.4898 0.18146 0.00733 0.0
Cd43 Cd 0.50487 0.19797 0.98796 0.0
Cd44 Cd 0.53376 0.18404 0.01085 0.0
O45 O 0.51198 0.17467 0.02925 0.0
O46 O 0.48276 0.20996 0.97385 0.0
O47 O 0.50235 0.22671 0.99274 0.0
C48 C 0.4867 0.22595 0.98253 0.0
C49 C 0.55865 0.20543 0.01821 0.0
C50 C 0.49449 0.17423 0.02352 0.0
C51 C 0.53268 0.17011 0.9699 0.0
O52 O 0.53906 0.16719 0.98691 0.0
O53 O 0.52015 0.18322 0.96675 0.0
O54 O 0.55879 0.18795 0.02474 0.0
O55 O 0.54358 0.21117 0.0087 0.0
O56 O 0.02031 0.05101 0.3703 0.0
Cd57 Cd 0.99517 0.04597 0.3551 0.0
Cd58 Cd 0.01655 0.01798 0.3388 0.0
O59 O 0.03911 0.03184 0.35305 0.0
O60 O 0.98137 0.07108 0.35222 0.0
O61 O 0.99487 0.05537 0.32776 0.0
C62 C 0.98606 0.07057 0.33414 0.0
C63 C 0.01824 0.00385 0.30819 0.0
C64 C 0.03698 0.04426 0.3665 0.0
C65 C 0.98274 0.00645 0.36423 0.0
O66 O 0.99813 1.00179 0.35542 0.0
O67 O 0.97749 0.024 0.36532 0.0
O68 O 0.02834 0.9974 0.32246 0.0
O69 O 0.00882 0.01976 0.31075 0.0
O70 O 0.26616 0.73278 0.59477 0.0
Cd71 Cd 0.25139 0.75217 0.57781 0.0
Cd72 Cd 0.22259 0.72856 0.59023 0.0
O73 O 0.24394 0.71077 0.60129 0.0
O74 O 0.27369 0.7665 0.56646 0.0
O75 O 0.25436 0.74798 0.54901 0.0
C76 C 0.26994 0.75826 0.55017 0.0
C77 C 0.19936 0.72043 0.56723 0.0
C78 C 0.26132 0.71673 0.60219 0.0
C79 C 0.22203 0.76947 0.60447 0.0
O80 O 0.21594 0.75229 0.60676 0.0
O81 O 0.23512 0.77308 0.59202 0.0
O82 O 0.19781 0.71475 0.58495 0.0
O83 O 0.21493 0.72959 0.5623 0.0
O84 O 0.49106 0.97506 0.83933 0.0
Cd85 Cd 0.5171 0.97941 0.82576 0.0
Cd86 Cd 0.49707 0.01124 0.81134 0.0
O87 O 0.47396 0.99789 0.82506 0.0
O88 O 0.52936 0.95342 0.82621 0.0
O89 O 0.5205 0.96805 0.79916 0.0
C90 C 0.52714 0.95281 0.80768 0.0
C91 C 0.49284 0.02985 0.78337 0.0
C92 C 0.47509 0.98371 0.8367 0.0
C93 C 0.5318 0.01757 0.83816 0.0
O94 O 0.51741 0.02414 0.82884 0.0
O95 O 0.53531 0.99955 0.83857 0.0
O96 O 0.48491 0.0345 0.79953 0.0
O97 O 0.50205 0.01366 0.78257 0.0
O98 O 0.24762 0.27499 0.09006 0.0
Cd99 Cd 0.26214 0.25642 0.07189 0.0
Cd100 Cd 0.29114 0.27898 0.08609 0.0
O101 O 0.26993 0.29669 0.09745 0.0
O102 O 0.23972 0.24186 0.06091 0.0
O103 O 0.25761 0.26159 0.04341 0.0
C104 C 0.24248 0.25071 0.0448 0.0
C105 C 0.3147 0.28714 0.06357 0.0
C106 C 0.25254 0.29074 0.09814 0.0
C107 C 0.29129 0.2376 0.09785 0.0
O108 O 0.29702 0.25459 0.10185 0.0
O109 O 0.27884 0.23485 0.08451 0.0
O110 O 0.31623 0.2924 0.08146 0.0
O111 O 0.29897 0.27845 0.05823 0.0
O112 O 0.25092 0.10226 0.28843 0.0
Cd113 Cd 0.27559 0.08695 0.28213 0.0
Cd114 Cd 0.25241 0.07289 0.25318 0.0
O115 O 0.23093 0.08684 0.2688 0.0
O116 O 0.28938 0.0842 0.30725 0.0
O117 O 0.27662 0.05946 0.29125 0.0
C118 C 0.28505 0.06605 0.30664 0.0
C119 C 0.24669 0.04517 0.23454 0.0
C120 C 0.23394 0.09935 0.282 0.0
C121 C 0.28729 0.0983 0.24311 0.0
O122 O 0.27154 0.09007 0.23841 0.0
O123 O 0.2931 0.09821 0.26057 0.0
O124 O 0.2381 0.06125 0.23096 0.0
O125 O 0.25721 0.04422 0.24997 0.0
O126 O 0.18414 0.01598 0.50031 0.0
Cd127 Cd 0.20039 0.99177 0.50593 0.0
Cd128 Cd 0.18868 0.00708 0.54458 0.0
O129 O 0.17484 0.0281 0.52842 0.0
O130 O 0.20419 0.98364 0.47851 0.0
O131 O 0.22852 0.99246 0.49708 0.0
C132 C 0.22231 0.98745 0.48018 0.0
C133 C 0.2053 0.01418 0.57326 0.0
C134 C 0.17512 0.02862 0.51005 0.0
C135 C 0.17656 0.96634 0.53268 0.0
O136 O 0.17592 0.98026 0.54466 0.0
O137 O 0.1861 0.96778 0.51701 0.0
O138 O 0.18669 0.01483 0.57228 0.0
O139 O 0.21471 0.01058 0.55753 0.0
O140 O 0.26508 0.89248 0.8029 0.0
Cd141 Cd 0.24161 0.90957 0.7964 0.0
Cd142 Cd 0.26634 0.92346 0.76954 0.0
O143 O 0.28658 0.90999 0.78715 0.0
O144 O 0.22751 0.91493 0.82092 0.0
O145 O 0.2434 0.93731 0.80435 0.0
C146 C 0.23374 0.93251 0.81962 0.0
C147 C 0.27387 0.95005 0.74999 0.0
C148 C 0.28258 0.89622 0.79867 0.0
C149 C 0.23128 0.89907 0.75715 0.0
O150 O 0.2479 0.90613 0.75378 0.0
O151 O 0.2241 0.90006 0.77402 0.0
O152 O 0.28194 0.9335 0.74753 0.0
O153 O 0.26298 0.9522 0.765 0.0
O154 O 0.35417 0.01873 0.03916 0.0
Cd155 Cd 0.33892 0.99381 0.03384 0.0
Cd156 Cd 0.32219 0.01599 0.00665 0.0
O157 O 0.33492 0.03808 0.0227 0.0
O158 O 0.33604 0.97999 0.05891 0.0
O159 O 0.31153 0.9934 0.04314 0.0
C160 C 0.31796 0.98472 0.05842 0.0
C161 C 0.29318 0.01921 0.9895 0.0
C162 C 0.34918 0.03566 0.03414 0.0
C163 C 0.34884 0.98309 0.9944 0.0
O164 O 0.34014 0.99872 0.99043 0.0
O165 O 0.34931 0.97674 0.01162 0.0
O166 O 0.30816 0.02951 0.98544 0.0
O167 O 0.29396 0.0085 0.00475 0.0
O168 O 0.79383 0.26538 0.90337 0.0
Cd169 Cd 0.78713 0.24099 0.91897 0.0
Cd170 Cd 0.75956 0.26394 0.93259 0.0
O171 O 0.77723 0.28554 0.92158 0.0
O172 O 0.81177 0.22668 0.92319 0.0
O173 O 0.79536 0.24099 0.94672 0.0
C174 C 0.81067 0.23181 0.94113 0.0
C175 C 0.74154 0.26639 0.96102 0.0
C176 C 0.78923 0.28255 0.90795 0.0
C177 C 0.74832 0.23118 0.90568 0.0
O178 O 0.74434 0.2476 0.91288 0.0
O179 O 0.76509 0.22396 0.90791 0.0
O180 O 0.7383 0.2776 0.94654 0.0
O181 O 0.7563 0.25499 0.96012 0.0
O182 O 0.99963 0.48281 0.17727 0.0
Cd183 Cd 0.9779 0.49497 0.1933 0.0
Cd184 Cd 0.99976 0.52577 0.18681 0.0
O185 O 0.02106 0.50647 0.17839 0.0
O186 O 0.96532 0.47161 0.2045 0.0
O187 O 0.98166 0.4928 0.22207 0.0
C188 C 0.97302 0.47626 0.22086 0.0
C189 C 1.00147 0.54906 0.21088 0.0
C190 C 0.01652 0.4892 0.17403 0.0
C191 C 0.9615 0.52444 0.16684 0.0
O192 O 0.97849 0.53151 0.16686 0.0
O193 O 0.95721 0.51057 0.17815 0.0
O194 O 0.01082 0.55113 0.19485 0.0
O195 O 0.99254 0.5329 0.21389 0.0
O196 O 0.71162 0.74392 0.41888 0.0
Cd197 Cd 0.71412 0.76952 0.43376 0.0
Cd198 Cd 0.74977 0.75103 0.44575 0.0
O199 O 0.7367 0.72826 0.43105 0.0
O200 O 0.68737 0.7803 0.43442 0.0
O201 O 0.70293 0.77062 0.46064 0.0
C202 C 0.68725 0.77713 0.4528 0.0
C203 C 0.77353 0.74481 0.46941 0.0
C204 C 0.72185 0.72874 0.42012 0.0
C205 C 0.75049 0.78813 0.42103 0.0
O206 O 0.75877 0.77405 0.42935 0.0
O207 O 0.73219 0.78989 0.42132 0.0
O208 O 0.77572 0.73976 0.45166 0.0
O209 O 0.7571 0.75219 0.47424 0.0
O210 O 0.92501 0.77817 0.23477 0.0
Cd211 Cd 0.92034 0.76413 0.26002 0.0
Cd212 Cd 0.91006 0.81207 0.24033 0.0
O213 O 0.90383 0.79325 0.21787 0.0
O214 O 0.91541 0.73587 0.25771 0.0
O215 O 0.94265 0.74844 0.26936 0.0
C216 C 0.93271 0.73335 0.26438 0.0
C217 C 0.92883 0.83971 0.23703 0.0
C218 C 0.91228 0.77751 0.2216 0.0
C219 C 0.89376 0.79464 0.27988 0.0
O220 O 0.89575 0.80728 0.26652 0.0
O221 O 0.90232 0.77824 0.27948 0.0
O222 O 0.91054 0.83989 0.23301 0.0
O223 O 0.93652 0.82353 0.24238 0.0
O224 O 0.59467 0.26544 0.73009 0.0
Cd225 Cd 0.57792 0.24849 0.74783 0.0
Cd226 Cd 0.5937 0.22238 0.72357 0.0
O227 O 0.60368 0.24525 0.70711 0.0
O228 O 0.56468 0.26912 0.76296 0.0
O229 O 0.54916 0.24999 0.74261 0.0
C230 C 0.54897 0.26492 0.75384 0.0
C231 C 0.57096 0.19926 0.71487 0.0
C232 C 0.60306 0.26224 0.71408 0.0
C233 C 0.60579 0.22022 0.76495 0.0
O234 O 0.60979 0.21559 0.74763 0.0
O235 O 0.59202 0.23191 0.76847 0.0
O236 O 0.58867 0.19804 0.70898 0.0
O237 O 0.56593 0.21451 0.72448 0.0
O238 O 0.49373 0.51064 0.66901 0.0
Cd239 Cd 0.5152 0.49738 0.6846 0.0
Cd240 Cd 0.49262 0.46636 0.67057 0.0
O241 O 0.47361 0.48729 0.66073 0.0
O242 O 0.52894 0.52124 0.69312 0.0
O243 O 0.51433 0.50184 0.71365 0.0
C244 C 0.52318 0.51796 0.71046 0.0
C245 C 0.4838 0.44021 0.68981 0.0
C246 C 0.47808 0.5051 0.66113 0.0
C247 C 0.53385 0.46955 0.65675 0.0
O248 O 0.51727 0.46187 0.65449 0.0
O249 O 0.53642 0.48296 0.66914 0.0
O250 O 0.47921 0.4409 0.67172 0.0
O251 O 0.49239 0.45507 0.69731 0.0
O252 O 0.03995 0.34705 0.02414 0.0
Cd253 Cd 0.03586 0.33381 0.99785 0.0
Cd254 Cd 0.00387 0.31834 0.01731 0.0
O255 O 0.01766 0.33128 0.04071 0.0
O256 O 0.06187 0.33315 0.9855 0.0
O257 O 0.04629 0.30689 0.99512 0.0
C258 C 0.06181 0.31469 0.98816 0.0
C259 C 0.98405 0.29107 0.02113 0.0
C260 C 0.03152 0.34341 0.04003 0.0
C261 C 0.99767 0.34576 0.98308 0.0
O262 O 0.99117 0.33625 0.99734 0.0
O263 O 0.01571 0.34639 0.97958 0.0
O264 O 0.98017 0.30724 0.02942 0.0
O265 O 1.00021 0.28976 0.01189 0.0
O266 O 0.46368 0.65338 0.51564 0.0
Cd267 Cd 0.47077 0.67133 0.49306 0.0
Cd268 Cd 0.49556 0.68501 0.51923 0.0
O269 O 0.47791 0.67039 0.53863 0.0
O270 O 0.44682 0.67505 0.47741 0.0
O271 O 0.46034 0.69822 0.49507 0.0
C272 C 0.44608 0.69238 0.48439 0.0
C273 C 0.51157 0.71424 0.52465 0.0
C274 C 0.46697 0.65646 0.53347 0.0
C275 C 0.51105 0.66222 0.48505 0.0
O276 O 0.51326 0.66845 0.50219 0.0
O277 O 0.49464 0.6633 0.47678 0.0
O278 O 0.51547 0.69908 0.53471 0.0
O279 O 0.49683 0.71346 0.51315 0.0
O280 O 0.67447 0.48862 0.51241 0.0
Cd281 Cd 0.69147 0.50958 0.4998 0.0
Cd282 Cd 0.67759 0.48962 0.46851 0.0
O283 O 0.66621 0.46994 0.4878 0.0
O284 O 0.70214 0.52198 0.52362 0.0
O285 O 0.72039 0.50589 0.50306 0.0
C286 C 0.71875 0.51479 0.51941 0.0
C287 C 0.70029 0.48328 0.4446 0.0
C288 C 0.66615 0.47362 0.50581 0.0
C289 C 0.66469 0.53056 0.47268 0.0
O290 O 0.66165 0.5143 0.46468 0.0
O291 O 0.67747 0.53224 0.48588 0.0
O292 O 0.68238 0.47828 0.44247 0.0
O293 O 0.70551 0.49077 0.46097 0.0
O294 O 0.75408 0.40953 0.71267 0.0
Cd295 Cd 0.77783 0.42637 0.71883 0.0
Cd296 Cd 0.75342 0.44184 0.74474 0.0
O297 O 0.73287 0.42805 0.7276 0.0
O298 O 0.79263 0.4297 0.69437 0.0
O299 O 0.77664 0.45344 0.7088 0.0
C300 C 0.78649 0.44733 0.69411 0.0
C301 C 0.74787 0.47045 0.7619 0.0
C302 C 0.73663 0.41376 0.7166 0.0
C303 C 0.78735 0.41733 0.75873 0.0
O304 O 0.77086 0.42481 0.7617 0.0
O305 O 0.79471 0.41747 0.7419 0.0
O306 O 0.73829 0.4549 0.76549 0.0
O307 O 0.75913 0.4704 0.747 0.0
O308 O 0.84729 0.493 0.96421 0.0
Cd309 Cd 0.8327 0.51865 0.96765 0.0
Cd310 Cd 0.81852 0.49834 1.00049 0.0
O311 O 0.83254 0.47571 0.98665 0.0
O312 O 0.83277 0.53103 0.94165 0.0
O313 O 0.80612 0.52043 0.95585 0.0
C314 C 0.81438 0.52786 0.94083 0.0
C315 C 0.79295 0.49311 0.02217 0.0
C316 C 0.84464 0.47703 0.97284 0.0
C317 C 0.84419 0.53428 0.00562 0.0
O318 O 0.83571 0.51947 0.01227 0.0
O319 O 0.84432 0.53781 0.98759 0.0
O320 O 0.8098 0.4858 0.02494 0.0
O321 O 0.78991 0.50194 0.00602 0.0
O322 O 0.75467 0.5963 0.2703 0.0
Cd323 Cd 0.77646 0.58064 0.2577 0.0
Cd324 Cd 0.75619 0.59366 0.22562 0.0
O325 O 0.73666 0.60495 0.24536 0.0
O326 O 0.78883 0.56951 0.28121 0.0
O327 O 0.77318 0.55165 0.25983 0.0
C328 C 0.78183 0.55296 0.27635 0.0
C329 C 0.74781 0.57254 0.20065 0.0
C330 C 0.73976 0.60451 0.26348 0.0
C331 C 0.79722 0.60767 0.23067 0.0
O332 O 0.78133 0.6091 0.2215 0.0
O333 O 0.79877 0.59617 0.24495 0.0
O334 O 0.74386 0.59074 0.19968 0.0
O335 O 0.75566 0.56614 0.21639 0.0
C336 C 0.24028 0.30283 0.1297 0.0
C337 C 0.23783 0.30082 0.10968 0.0
C338 C 0.22436 0.30691 0.14151 0.0
C339 C 0.17094 0.30079 0.13997 0.0
H340 H 0.17471 0.32127 0.19199 0.0
C341 C 0.12255 0.31049 0.21481 0.0
C342 C 0.1129 0.2926 0.21443 0.0
C343 C 0.13599 0.31525 0.20047 0.0
C344 C 0.17318 0.31581 0.17738 0.0
H345 H 0.21751 0.30309 0.08599 0.0
H346 H 0.19004 0.31168 0.10629 0.0
H347 H 0.20172 0.32516 0.16993 0.0
H348 H 0.10937 0.2659 0.19839 0.0
H349 H 0.13317 0.27379 0.17385 0.0
H350 H 0.14225 0.29193 0.14719 0.0
C351 C 0.2039 0.30921 0.11315 0.0
C352 C 0.18888 0.31778 0.16478 0.0
C353 C 0.21969 0.30462 0.10144 0.0
C354 C 0.11644 0.27987 0.19902 0.0
C355 C 0.13009 0.28448 0.18486 0.0
C356 C 0.15516 0.29912 0.15244 0.0
C357 C 0.20576 0.30938 0.13344 0.0
C358 C 0.1882 0.30984 0.14604 0.0
C359 C 0.14033 0.30209 0.18556 0.0
C360 C 0.15623 0.30609 0.17151 0.0
H361 H 0.2541 0.29961 0.13636 0.0
H362 H 0.22647 0.30672 0.15702 0.0
H363 H 0.16977 0.29419 0.12582 0.0
H364 H 0.12002 0.3207 0.22642 0.0
H365 H 0.1432 0.32913 0.2013 0.0
C366 C 0.98844 0.85727 0.44385 0.0
C367 C 0.97643 0.85266 0.45952 0.0
C368 C 0.98388 0.87274 0.43169 0.0
C369 C 0.96938 0.90301 0.40392 0.0
H370 H 0.94777 0.94798 0.42941 0.0
C371 C 0.96627 0.97469 0.36343 0.0
C372 C 0.97203 0.99099 0.37404 0.0
C373 C 0.96104 0.95766 0.37289 0.0
C374 C 0.95389 0.93561 0.42204 0.0
H375 H 0.94947 0.85963 0.47388 0.0
H376 H 0.94103 0.88599 0.45219 0.0
H377 H 0.95068 0.91785 0.44704 0.0
H378 H 0.97616 0.00278 0.4027 0.0
H379 H 0.96785 0.97291 0.41938 0.0
H380 H 0.9741 0.92108 0.37948 0.0
C381 C 0.95438 0.87824 0.44968 0.0
C382 C 0.95529 0.91814 0.43209 0.0
C383 C 0.95913 0.86299 0.46203 0.0
C384 C 0.97139 0.99045 0.39427 0.0
C385 C 0.96662 0.97325 0.40378 0.0
C386 C 0.96829 0.92053 0.39399 0.0
C387 C 0.96701 0.88375 0.43472 0.0
C388 C 0.96343 0.90168 0.4233 0.0
C389 C 0.96214 0.95638 0.39318 0.0
C390 C 0.96088 0.93721 0.40302 0.0
H391 H 1.00195 0.84967 0.44163 0.0
H392 H 0.99414 0.87661 0.42054 0.0
H393 H 0.97535 0.8906 0.39648 0.0
H394 H 0.96678 0.97482 0.34777 0.0
H395 H 0.95708 0.94524 0.36421 0.0
C396 C 0.274 0.70399 0.63329 0.0
C397 C 0.27614 0.70633 0.61329 0.0
C398 C 0.29016 0.70002 0.64486 0.0
C399 C 0.32635 0.68963 0.66744 0.0
H400 H 0.37162 0.71773 0.64995 0.0
C401 C 0.39402 0.69744 0.71594 0.0
C402 C 0.40301 0.71568 0.71614 0.0
C403 C 0.38016 0.69286 0.70191 0.0
C404 C 0.3591 0.70989 0.65515 0.0
H405 H 0.29615 0.70466 0.58934 0.0
H406 H 0.32405 0.69632 0.60921 0.0
H407 H 0.34382 0.71482 0.62886 0.0
H408 H 0.40482 0.74325 0.70144 0.0
H409 H 0.3803 0.73557 0.67737 0.0
H410 H 0.34122 0.68602 0.69432 0.0
C411 C 0.31023 0.6984 0.61624 0.0
C412 C 0.34318 0.70787 0.64285 0.0
C413 C 0.2942 0.70285 0.60478 0.0
C414 C 0.39828 0.72902 0.70161 0.0
C415 C 0.38423 0.72454 0.68773 0.0
C416 C 0.34221 0.6919 0.67986 0.0
C417 C 0.30868 0.69802 0.63654 0.0
C418 C 0.32642 0.69799 0.64891 0.0
C419 C 0.37476 0.70649 0.68785 0.0
C420 C 0.35867 0.70239 0.67401 0.0
H421 H 0.26025 0.70696 0.64016 0.0
H422 H 0.2883 0.69998 0.6604 0.0
H423 H 0.31388 0.68168 0.67256 0.0
H424 H 0.39747 0.68676 0.72684 0.0
H425 H 0.37352 0.67868 0.70224 0.0
C426 C 0.55557 0.14578 0.95593 0.0
C427 C 0.53877 0.15704 0.95408 0.0
C428 C 0.56019 0.13185 0.94201 0.0
C429 C 0.54621 0.11393 0.89272 0.0
H430 H 0.56667 0.06551 0.91191 0.0
C431 C 0.54348 0.02882 0.87027 0.0
C432 C 0.5428 0.03127 0.85018 0.0
C433 C 0.5484 0.04437 0.8823 0.0
C434 C 0.56085 0.07887 0.90627 0.0
H435 H 0.51387 0.16283 0.93593 0.0
H436 H 0.52139 0.13816 0.91212 0.0
H437 H 0.56354 0.09283 0.93372 0.0
H438 H 0.54843 0.05104 0.82667 0.0
H439 H 0.55853 0.0777 0.84743 0.0
H440 H 0.54195 0.09966 0.86576 0.0
C441 C 0.53142 0.14036 0.92396 0.0
C442 C 0.55934 0.09473 0.91877 0.0
C443 C 0.527 0.1545 0.9377 0.0
C444 C 0.54888 0.04886 0.84218 0.0
C445 C 0.55433 0.06422 0.85414 0.0
C446 C 0.54738 0.09801 0.88035 0.0
C447 C 0.54793 0.12861 0.92605 0.0
C448 C 0.5516 0.11238 0.91227 0.0
C449 C 0.5531 0.06256 0.8744 0.0
C450 C 0.55436 0.0801 0.88701 0.0
H451 H 0.56503 0.14752 0.96833 0.0
H452 H 0.57324 0.12345 0.94394 0.0
H453 H 0.54062 0.12736 0.88699 0.0
H454 H 0.53853 0.01546 0.87675 0.0
H455 H 0.54709 0.04241 0.89777 0.0
C456 C 0.20151 0.11475 0.2773 0.0
C457 C 0.21802 0.11192 0.28879 0.0
C458 C 0.1878 0.12868 0.28237 0.0
C459 C 0.18323 0.17357 0.31157 0.0
H460 H 0.12986 0.16912 0.29504 0.0
C461 C 0.10677 0.21977 0.30349 0.0
C462 C 0.11475 0.23733 0.29731 0.0
C463 C 0.11875 0.20436 0.30854 0.0
C464 C 0.14457 0.17061 0.30023 0.0
H465 H 0.23249 0.12062 0.31527 0.0
H466 H 0.2082 0.14433 0.32455 0.0
H467 H 0.15092 0.14139 0.29263 0.0
H468 H 0.14131 0.25307 0.29241 0.0
H469 H 0.16237 0.22602 0.30035 0.0
H470 H 0.17671 0.20268 0.31963 0.0
C471 C 0.20613 0.13632 0.31124 0.0
C472 C 0.15681 0.15469 0.29846 0.0
C473 C 0.22 0.1226 0.306 0.0
C474 C 0.13488 0.23973 0.29749 0.0
C475 C 0.14692 0.22414 0.30204 0.0
C476 C 0.17087 0.18943 0.31365 0.0
C477 C 0.19009 0.13993 0.29924 0.0
C478 C 0.17646 0.15609 0.30354 0.0
C479 C 0.13899 0.20596 0.3068 0.0
C480 C 0.15149 0.18837 0.30749 0.0
H481 H 0.19963 0.10687 0.26387 0.0
H482 H 0.17585 0.13117 0.27255 0.0
H483 H 0.19828 0.17534 0.31555 0.0
H484 H 0.09123 0.21763 0.30337 0.0
H485 H 0.11206 0.19086 0.31277 0.0
C486 C 0.036 0.86445 0.54193 0.0
C487 C 0.03812 0.84485 0.53728 0.0
C488 C 0.0523 0.87569 0.54639 0.0
C489 C 0.10482 0.87523 0.53585 0.0
H490 H 0.10421 0.92308 0.56494 0.0
C491 C 0.159 0.93673 0.52115 0.0
C492 C 0.16442 0.94907 0.53637 0.0
C493 C 0.14525 0.92219 0.52411 0.0
C494 C 0.10482 0.90961 0.55699 0.0
H495 H 0.05834 0.82111 0.53537 0.0
H496 H 0.08655 0.84028 0.54438 0.0
H497 H 0.07693 0.90095 0.5673 0.0
H498 H 0.16056 0.95504 0.56694 0.0
H499 H 0.13711 0.92931 0.57223 0.0
H500 H 0.13278 0.88368 0.52579 0.0
C501 C 0.07259 0.84732 0.54378 0.0
C502 C 0.089 0.89701 0.55815 0.0
C503 C 0.0564 0.83625 0.53891 0.0
C504 C 0.15656 0.94589 0.55484 0.0
C505 C 0.14297 0.93122 0.55785 0.0
C506 C 0.12068 0.8877 0.53486 0.0
C507 C 0.07093 0.8674 0.54654 0.0
C508 C 0.08861 0.87981 0.54729 0.0
C509 C 0.13675 0.91949 0.54242 0.0
C510 C 0.12074 0.90527 0.54507 0.0
H511 H 0.02206 0.87144 0.54046 0.0
H512 H 0.05039 0.89109 0.54831 0.0
H513 H 0.10503 0.86232 0.52699 0.0
H514 H 0.16467 0.93887 0.50672 0.0
H515 H 0.14068 0.91363 0.51179 0.0
C516 C 0.31766 0.88887 0.8044 0.0
C517 C 0.29815 0.8834 0.80584 0.0
C518 C 0.33235 0.87585 0.80919 0.0
C519 C 0.34197 0.82704 0.83092 0.0
H520 H 0.38444 0.82758 0.79445 0.0
C521 C 0.38992 0.76141 0.80967 0.0
C522 C 0.40901 0.76544 0.80403 0.0
C523 C 0.37784 0.77639 0.81602 0.0
C524 C 0.37292 0.82739 0.80504 0.0
H525 H 0.27874 0.86022 0.81423 0.0
H526 H 0.30424 0.83733 0.82178 0.0
H527 H 0.36066 0.8531 0.79348 0.0
H528 H 0.43118 0.78755 0.8028 0.0
H529 H 0.41038 0.81346 0.81438 0.0
H530 H 0.35396 0.80049 0.84164 0.0
C531 C 0.30832 0.85179 0.81745 0.0
C532 C 0.35923 0.84213 0.80452 0.0
C533 C 0.29365 0.86492 0.81297 0.0
C534 C 0.41645 0.78412 0.80692 0.0
C535 C 0.4045 0.79897 0.81341 0.0
C536 C 0.35563 0.81209 0.83129 0.0
C537 C 0.32789 0.85691 0.81518 0.0
C538 C 0.34341 0.84209 0.81728 0.0
C539 C 0.38479 0.79551 0.81689 0.0
C540 C 0.37117 0.81205 0.81822 0.0
H541 H 0.32161 0.9031 0.79921 0.0
H542 H 0.34724 0.88052 0.80773 0.0
H543 H 0.33014 0.82664 0.84116 0.0
H544 H 0.38381 0.74715 0.80741 0.0
H545 H 0.3627 0.77328 0.8186 0.0
C546 C 0.37918 0.04925 0.04933 0.0
C547 C 0.36122 0.05235 0.04026 0.0
C548 C 0.39183 0.06464 0.05281 0.0
C549 C 0.40255 0.11296 0.03345 0.0
H550 H 0.44053 0.1143 0.07482 0.0
C551 C 0.46019 0.17122 0.03337 0.0
C552 C 0.47923 0.16428 0.03457 0.0
C553 C 0.44469 0.15978 0.03926 0.0
C554 C 0.42999 0.11411 0.06322 0.0
H555 H 0.34188 0.07427 0.02903 0.0
H556 H 0.3637 0.10123 0.03561 0.0
H557 H 0.41448 0.09029 0.07553 0.0
H558 H 0.4972 0.14065 0.04434 0.0
H559 H 0.46994 0.12031 0.05441 0.0
H560 H 0.41812 0.13641 0.02091 0.0
C561 C 0.36828 0.08679 0.0395 0.0
C562 C 0.41509 0.10034 0.06357 0.0
C563 C 0.3557 0.07135 0.03582 0.0
C564 C 0.48264 0.14634 0.04336 0.0
C565 C 0.46703 0.13472 0.0491 0.0
C566 C 0.41729 0.12673 0.03317 0.0
C567 C 0.38676 0.08356 0.04748 0.0
C568 C 0.40135 0.09942 0.04851 0.0
C569 C 0.44786 0.141 0.04623 0.0
C570 C 0.43133 0.12734 0.0479 0.0
H571 H 0.38391 0.0348 0.05297 0.0
H572 H 0.40597 0.0615 0.05878 0.0
H573 H 0.3926 0.11246 0.02135 0.0
H574 H 0.45719 0.18512 0.02683 0.0
H575 H 0.43013 0.16522 0.03732 0.0
C576 C 0.07007 0.03792 0.37986 0.0
C577 C 0.05354 0.04965 0.37904 0.0
C578 C 0.0845 0.04145 0.39362 0.0
C579 C 0.0915 0.06529 0.44124 0.0
H580 H 0.14449 0.04962 0.43238 0.0
C581 C 0.16995 0.05084 0.48246 0.0
C582 C 0.1627 0.04201 0.4992 0.0
C583 C 0.15733 0.05829 0.46856 0.0
C584 C 0.12991 0.05455 0.43516 0.0
H585 H 0.03976 0.07502 0.39122 0.0
H586 H 0.06525 0.08161 0.41472 0.0
H587 H 0.12207 0.05054 0.40554 0.0
H588 H 0.1368 0.03514 0.51527 0.0
H589 H 0.11466 0.04734 0.49077 0.0
H590 H 0.09948 0.06966 0.47084 0.0
C591 C 0.06681 0.06928 0.4052 0.0
C592 C 0.11688 0.0547 0.41971 0.0
C593 C 0.05225 0.06559 0.39161 0.0
C594 C 0.14272 0.04216 0.50259 0.0
C595 C 0.13003 0.04916 0.48845 0.0
C596 C 0.10463 0.06543 0.45668 0.0
C597 C 0.08291 0.05698 0.40673 0.0
C598 C 0.09735 0.05946 0.42262 0.0
C599 C 0.13717 0.05644 0.4708 0.0
C600 C 0.1239 0.05949 0.45399 0.0
H601 H 0.07146 0.02544 0.37049 0.0
H602 H 0.09648 0.03143 0.39448 0.0
H603 H 0.07657 0.06896 0.44416 0.0
H604 H 0.18535 0.05086 0.47956 0.0
H605 H 0.16344 0.06441 0.45553 0.0
C606 C 0.22274 0.80364 0.61685 0.0
C607 C 0.21504 0.78485 0.61768 0.0
C608 C 0.218 0.81731 0.63099 0.0
C609 C 0.20411 0.81927 0.68188 0.0
H610 H 0.19923 0.87417 0.67215 0.0
C611 C 0.20779 0.87413 0.74456 0.0
C612 C 0.22121 0.889 0.74114 0.0
C613 C 0.20105 0.86267 0.72919 0.0
C614 C 0.20052 0.85887 0.67512 0.0
H615 H 0.19535 0.76611 0.63341 0.0
H616 H 0.18716 0.78995 0.65798 0.0
H617 H 0.19895 0.85151 0.64503 0.0
H618 H 0.23687 0.90451 0.71884 0.0
H619 H 0.22536 0.88468 0.69237 0.0
H620 H 0.20672 0.8266 0.71182 0.0
C621 C 0.19704 0.79402 0.64654 0.0
C622 C 0.20038 0.84591 0.65958 0.0
C623 C 0.2017 0.78039 0.63238 0.0
C624 C 0.22668 0.89303 0.722 0.0
C625 C 0.2199 0.88175 0.70673 0.0
C626 C 0.20438 0.83222 0.69741 0.0
C627 C 0.20549 0.81248 0.64628 0.0
C628 C 0.20273 0.82602 0.66275 0.0
C629 C 0.20747 0.86605 0.71015 0.0
C630 C 0.20322 0.85223 0.69417 0.0
H631 H 0.23302 0.80758 0.60573 0.0
H632 H 0.22488 0.83137 0.63047 0.0
H633 H 0.20613 0.80404 0.68481 0.0
H634 H 0.20331 0.87072 0.75916 0.0
H635 H 0.19131 0.85081 0.73228 0.0
C636 C 0.37935 0.9705 0.98003 0.0
C637 C 0.35934 0.97342 0.97866 0.0
C638 C 0.39015 0.96642 0.9634 0.0
C639 C 0.41086 0.95501 0.92652 0.0
H640 H 0.39261 0.9829 0.88149 0.0
C641 C 0.45779 0.96022 0.85803 0.0
C642 C 0.45838 0.97834 0.84892 0.0
C643 C 0.44368 0.95613 0.8719 0.0
C644 C 0.39803 0.97512 0.89393 0.0
H645 H 0.33457 0.97276 0.95951 0.0
H646 H 0.35306 0.96426 0.93079 0.0
H647 H 0.37261 0.98142 0.91011 0.0
H648 H 0.4442 0.00613 0.84665 0.0
H649 H 0.42005 0.99936 0.87123 0.0
H650 H 0.43696 0.95006 0.91081 0.0
C651 C 0.36072 0.966 0.94435 0.0
C652 C 0.38634 0.97393 0.91034 0.0
C653 C 0.35004 0.97058 0.96085 0.0
C654 C 0.44404 0.99198 0.85331 0.0
C655 C 0.43012 0.98802 0.86741 0.0
C656 C 0.4227 0.95648 0.9102 0.0
C657 C 0.38104 0.96484 0.94518 0.0
C658 C 0.39269 0.96412 0.92702 0.0
C659 C 0.43001 0.97019 0.87723 0.0
C660 C 0.41659 0.96687 0.89379 0.0
H661 H 0.38683 0.97293 0.9936 0.0
H662 H 0.40574 0.96582 0.96472 0.0
H663 H 0.41617 0.94705 0.93889 0.0
H664 H 0.46856 0.94933 0.85481 0.0
H665 H 0.44379 0.94207 0.87873 0.0
C666 C 0.30564 0.12734 0.23146 0.0
C667 C 0.29766 0.109 0.22787 0.0
C668 C 0.31061 0.13942 0.21596 0.0
C669 C 0.29345 0.14727 0.16677 0.0
H670 H 0.33477 0.18498 0.16307 0.0
C671 C 0.29348 0.20209 0.10489 0.0
C672 C 0.29784 0.22126 0.11001 0.0
C673 C 0.29766 0.18695 0.11758 0.0
C674 C 0.32308 0.17459 0.16394 0.0
H675 H 0.29065 0.08804 0.20561 0.0
H676 H 0.29976 0.10879 0.17876 0.0
H677 H 0.3353 0.161 0.18907 0.0
H678 H 0.31086 0.23943 0.13213 0.0
H679 H 0.31749 0.21322 0.15443 0.0
H680 H 0.28065 0.16114 0.14244 0.0
C681 C 0.30166 0.11415 0.19337 0.0
C682 C 0.32344 0.16084 0.17881 0.0
C683 C 0.29655 0.10223 0.20875 0.0
C684 C 0.30729 0.22483 0.1277 0.0
C685 C 0.31123 0.20973 0.14049 0.0
C686 C 0.293 0.16104 0.1521 0.0
C687 C 0.30777 0.13321 0.19675 0.0
C688 C 0.30855 0.1471 0.18041 0.0
C689 C 0.30603 0.19063 0.13582 0.0
C690 C 0.3077 0.175 0.15053 0.0
H691 H 0.30654 0.13291 0.24608 0.0
H692 H 0.3153 0.15405 0.219 0.0
H693 H 0.2815 0.13718 0.16785 0.0
H694 H 0.28641 0.19882 0.09128 0.0
H695 H 0.29387 0.17237 0.11327 0.0
C696 C 0.7939 0.41475 0.79387 0.0
C697 C 0.79689 0.40758 0.77511 0.0
C698 C 0.79874 0.40369 0.80997 0.0
C699 C 0.82267 0.35881 0.82716 0.0
H700 H 0.77877 0.35754 0.86199 0.0
C701 C 0.80634 0.29523 0.87869 0.0
C702 C 0.79633 0.29886 0.89602 0.0
C703 C 0.81054 0.31026 0.86589 0.0
C704 C 0.7914 0.35795 0.85276 0.0
H705 H 0.80864 0.3839 0.75839 0.0
H706 H 0.81679 0.36418 0.78668 0.0
H707 H 0.77938 0.38071 0.83587 0.0
H708 H 0.78425 0.32137 0.91417 0.0
H709 H 0.79201 0.34767 0.89207 0.0
H710 H 0.83442 0.3356 0.84396 0.0
C711 C 0.81092 0.37851 0.78893 0.0
C712 C 0.79174 0.37128 0.83768 0.0
C713 C 0.80627 0.38976 0.77272 0.0
C714 C 0.79176 0.31804 0.90084 0.0
C715 C 0.79612 0.3331 0.8881 0.0
C716 C 0.82238 0.34546 0.84238 0.0
C717 C 0.80639 0.38504 0.80769 0.0
C718 C 0.80725 0.37177 0.82456 0.0
C719 C 0.80497 0.32931 0.87016 0.0
C720 C 0.80658 0.34471 0.85522 0.0
H721 H 0.78691 0.42858 0.7961 0.0
H722 H 0.79556 0.40936 0.82422 0.0
H723 H 0.83488 0.35891 0.81737 0.0
H724 H 0.81014 0.28064 0.87452 0.0
H725 H 0.81721 0.30672 0.85218 0.0
C726 C 0.9505 0.54924 0.14295 0.0
C727 C 0.94722 0.53169 0.15263 0.0
C728 C 0.93816 0.55524 0.1281 0.0
C729 C 0.89048 0.54475 0.10485 0.0
H730 H 0.91518 0.56634 0.05943 0.0
C731 C 0.87574 0.54527 0.01864 0.0
C732 C 0.8555 0.54588 0.01937 0.0
C733 C 0.88666 0.54971 0.03513 0.0
C734 C 0.90802 0.56032 0.07197 0.0
H735 H 0.92811 0.50693 0.15468 0.0
H736 H 0.90693 0.51702 0.12845 0.0
H737 H 0.93419 0.56066 0.08849 0.0
H738 H 0.83075 0.55338 0.0369 0.0
H739 H 0.84975 0.5625 0.06524 0.0
H740 H 0.86471 0.54297 0.08802 0.0
C741 C 0.91875 0.52645 0.13257 0.0
C742 C 0.91889 0.55728 0.08878 0.0
C743 C 0.93097 0.52058 0.14758 0.0
C744 C 0.8464 0.55294 0.03604 0.0
C745 C 0.8573 0.55782 0.05235 0.0
C746 C 0.87969 0.54755 0.08801 0.0
C747 C 0.92236 0.54372 0.12241 0.0
C748 C 0.91036 0.54903 0.1053 0.0
C749 C 0.87748 0.55507 0.05252 0.0
C750 C 0.88839 0.55498 0.07117 0.0
H751 H 0.9628 0.55825 0.14664 0.0
H752 H 0.94118 0.5688 0.12092 0.0
H753 H 0.8833 0.53875 0.11738 0.0
H754 H 0.88301 0.53948 0.00603 0.0
H755 H 0.90212 0.54729 0.03463 0.0
C756 C 0.70016 0.71174 0.39645 0.0
C757 C 0.71756 0.7123 0.40703 0.0
C758 C 0.69726 0.69786 0.38201 0.0
C759 C 0.71766 0.65233 0.36143 0.0
H760 H 0.69522 0.67123 0.31365 0.0
C761 C 0.72121 0.60521 0.29405 0.0
C762 C 0.72715 0.61471 0.27718 0.0
C763 C 0.71408 0.61571 0.30974 0.0
C764 C 0.70156 0.6657 0.32685 0.0
H765 H 0.74522 0.69817 0.41125 0.0
H766 H 0.74042 0.67434 0.38586 0.0
H767 H 0.69525 0.69174 0.34226 0.0
H768 H 0.72936 0.64236 0.26286 0.0
H769 H 0.71767 0.66093 0.29048 0.0
H770 H 0.72531 0.62693 0.34582 0.0
C771 C 0.72879 0.68435 0.3889 0.0
C772 C 0.70134 0.67739 0.3434 0.0
C773 C 0.7316 0.6981 0.40346 0.0
C774 C 0.72458 0.63473 0.27567 0.0
C775 C 0.71787 0.64534 0.29156 0.0
C776 C 0.7181 0.64076 0.34488 0.0
C777 C 0.71175 0.6843 0.37768 0.0
C778 C 0.7098 0.67101 0.36079 0.0
C779 C 0.71336 0.63602 0.30912 0.0
C780 C 0.71041 0.64742 0.32723 0.0
H781 H 0.68895 0.72238 0.39895 0.0
H782 H 0.68379 0.69802 0.37397 0.0
H783 H 0.72397 0.64676 0.37463 0.0
H784 H 0.7231 0.58974 0.29549 0.0
H785 H 0.71015 0.60794 0.32273 0.0
C786 C 0.81382 0.63012 0.2077 0.0
C787 C 0.81326 0.62103 0.22584 0.0
C788 C 0.82714 0.64489 0.20406 0.0
C789 C 0.87045 0.67064 0.22447 0.0
H790 H 0.84928 0.71361 0.19552 0.0
C791 C 0.88217 0.75807 0.21646 0.0
C792 C 0.90243 0.75904 0.21729 0.0
C793 C 0.8728 0.74025 0.21473 0.0
C794 C 0.85542 0.70182 0.20375 0.0
H795 H 0.82677 0.61973 0.25411 0.0
H796 H 0.84949 0.64591 0.24807 0.0
H797 H 0.83078 0.68401 0.19835 0.0
H798 H 0.92885 0.74238 0.21593 0.0
H799 H 0.91255 0.71119 0.21224 0.0
H800 H 0.89454 0.68901 0.2309 0.0
C801 C 0.84002 0.6414 0.23642 0.0
C802 C 0.84491 0.68462 0.20511 0.0
C803 C 0.82691 0.62638 0.23994 0.0
C804 C 0.91319 0.74196 0.21541 0.0
C805 C 0.90382 0.72411 0.21347 0.0
C806 C 0.88087 0.68797 0.22331 0.0
C807 C 0.83998 0.65121 0.21858 0.0
C808 C 0.85213 0.66885 0.21572 0.0
C809 C 0.88348 0.72297 0.21349 0.0
C810 C 0.87333 0.70392 0.21321 0.0
H811 H 0.80362 0.62616 0.19646 0.0
H812 H 0.827 0.65167 0.18996 0.0
H813 H 0.87667 0.65876 0.2325 0.0
H814 H 0.8735 0.771 0.21803 0.0
H815 H 0.85715 0.74002 0.21514 0.0
C816 C 0.63148 0.27626 0.69646 0.0
C817 C 0.61312 0.27858 0.70479 0.0
C818 C 0.6429 0.29251 0.6923 0.0
C819 C 0.64876 0.34151 0.71144 0.0
H820 H 0.68682 0.34761 0.67083 0.0
C821 C 0.70138 0.40551 0.71319 0.0
C822 C 0.72085 0.40101 0.70956 0.0
C823 C 0.68673 0.39233 0.70851 0.0
C824 C 0.67629 0.34607 0.6823 0.0
H825 H 0.59142 0.29944 0.71335 0.0
H826 H 0.61095 0.32764 0.70553 0.0
H827 H 0.66368 0.32081 0.66927 0.0
H828 H 0.74008 0.37949 0.69725 0.0
H829 H 0.71468 0.35641 0.6896 0.0
H830 H 0.66162 0.3661 0.72494 0.0
C831 C 0.61688 0.31342 0.70281 0.0
C832 C 0.66304 0.33074 0.68138 0.0
C833 C 0.60565 0.29728 0.70716 0.0
C834 C 0.72524 0.38344 0.7003 0.0
C835 C 0.71062 0.37021 0.69576 0.0
C836 C 0.66198 0.3567 0.71241 0.0
C837 C 0.63599 0.31124 0.69628 0.0
C838 C 0.64922 0.32821 0.69604 0.0
C839 C 0.69122 0.37428 0.70025 0.0
C840 C 0.67607 0.3591 0.69798 0.0
H841 H 0.6376 0.26198 0.6946 0.0
H842 H 0.65757 0.29035 0.68729 0.0
H843 H 0.63863 0.33975 0.72324 0.0
H844 H 0.69747 0.419 0.72011 0.0
H845 H 0.6719 0.39612 0.71179 0.0
C846 C 0.44796 0.62684 0.54199 0.0
C847 C 0.45934 0.64265 0.54797 0.0
C848 C 0.44288 0.61231 0.55502 0.0
C849 C 0.44117 0.59924 0.607 0.0
H850 H 0.45469 0.54814 0.58839 0.0
C851 C 0.46852 0.53935 0.65632 0.0
C852 C 0.46624 0.51984 0.65117 0.0
C853 C 0.46092 0.55395 0.64476 0.0
C854 C 0.4503 0.56217 0.59377 0.0
H855 H 0.47327 0.65613 0.57269 0.0
H856 H 0.46444 0.6307 0.59545 0.0
H857 H 0.45416 0.57513 0.56601 0.0
H858 H 0.45279 0.50023 0.6307 0.0
H859 H 0.43924 0.52589 0.6104 0.0
H860 H 0.43792 0.58634 0.63492 0.0
C861 C 0.4594 0.62961 0.58065 0.0
C862 C 0.45008 0.5777 0.58091 0.0
C863 C 0.46455 0.64414 0.56758 0.0
C864 C 0.45482 0.51516 0.635 0.0
C865 C 0.44722 0.52986 0.62331 0.0
C866 C 0.44126 0.58366 0.61986 0.0
C867 C 0.44896 0.61327 0.57438 0.0
C868 C 0.44614 0.59652 0.5875 0.0
C869 C 0.45082 0.54944 0.62769 0.0
C870 C 0.44652 0.56505 0.61353 0.0
H871 H 0.44351 0.62529 0.52703 0.0
H872 H 0.4346 0.60005 0.54982 0.0
H873 H 0.43775 0.61352 0.61243 0.0
H874 H 0.4771 0.54343 0.66882 0.0
H875 H 0.46417 0.56879 0.64857 0.0
C876 C 0.71385 0.22662 0.89627 0.0
C877 C 0.73332 0.22127 0.89402 0.0
C878 C 0.69971 0.21958 0.88372 0.0
C879 C 0.69474 0.204 0.83378 0.0
H880 H 0.64129 0.19608 0.8489 0.0
C881 C 0.63405 0.20094 0.77691 0.0
C882 C 0.61831 0.21319 0.78088 0.0
C883 C 0.64735 0.19626 0.79139 0.0
C884 C 0.65615 0.19822 0.84445 0.0
H885 H 0.75309 0.20347 0.87752 0.0
H886 H 0.72821 0.19116 0.85531 0.0
H887 H 0.66656 0.19722 0.87361 0.0
H888 H 0.60366 0.22923 0.80349 0.0
H889 H 0.62695 0.22123 0.82868 0.0
H890 H 0.68431 0.20584 0.80472 0.0
C891 C 0.72399 0.20091 0.86682 0.0
C892 C 0.67063 0.19883 0.85858 0.0
C893 C 0.7382 0.20786 0.87957 0.0
C894 C 0.61562 0.2198 0.79991 0.0
C895 C 0.62894 0.2151 0.8144 0.0
C896 C 0.68027 0.20337 0.81964 0.0
C897 C 0.70466 0.20707 0.86851 0.0
C898 C 0.68999 0.2024 0.85346 0.0
C899 C 0.64522 0.20368 0.81019 0.0
C900 C 0.66074 0.20111 0.82488 0.0
H901 H 0.70959 0.23682 0.90738 0.0
H902 H 0.68504 0.22483 0.88533 0.0
H903 H 0.70946 0.207 0.82934 0.0
H904 H 0.63648 0.19544 0.76245 0.0
H905 H 0.65959 0.1872 0.78775 0.0
C906 C 0.03581 0.45917 0.17248 0.0
C907 C 0.02995 0.47646 0.16375 0.0
C908 C 0.04326 0.44411 0.16128 0.0
C909 C 0.05612 0.43 0.11028 0.0
H910 H 0.03342 0.38126 0.12603 0.0
C911 C 0.05431 0.36516 0.05805 0.0
C912 C 0.03679 0.35482 0.0574 0.0
C913 C 0.05816 0.37803 0.07318 0.0
C914 C 0.0398 0.39475 0.12133 0.0
H915 H 0.02795 0.49212 0.13684 0.0
H916 H 0.04023 0.46575 0.11705 0.0
H917 H 0.03271 0.40852 0.14795 0.0
H918 H 0.0099 0.34933 0.07251 0.0
H919 H 0.01622 0.37218 0.09846 0.0
H920 H 0.06168 0.41662 0.08301 0.0
C921 C 0.03984 0.46381 0.13257 0.0
C922 C 0.03974 0.4104 0.13411 0.0
C923 C 0.0328 0.47902 0.14389 0.0
C924 C 0.02359 0.35698 0.07265 0.0
C925 C 0.0273 0.37007 0.08762 0.0
C926 C 0.05588 0.41442 0.09737 0.0
C927 C 0.04434 0.44583 0.14101 0.0
C928 C 0.04743 0.42843 0.1286 0.0
C929 C 0.04446 0.3811 0.08788 0.0
C930 C 0.04722 0.39673 0.10253 0.0
H931 H 0.0335 0.45688 0.18781 0.0
H932 H 0.04709 0.43074 0.16841 0.0
H933 H 0.06254 0.44348 0.10561 0.0
H934 H 0.06488 0.36365 0.0466 0.0
H935 H 0.07172 0.38589 0.07309 0.0
C936 C 0.75825 0.80256 0.38906 0.0
C937 C 0.76264 0.80053 0.40876 0.0
C938 C 0.77269 0.80807 0.37598 0.0
C939 C 0.8059 0.82105 0.3501 0.0
H940 H 0.85361 0.79473 0.36329 0.0
C941 C 0.87103 0.81697 0.29738 0.0
C942 C 0.88026 0.79889 0.29602 0.0
C943 C 0.85748 0.82058 0.31196 0.0
C944 C 0.84039 0.80212 0.35932 0.0
H945 H 0.78465 0.80474 0.43066 0.0
H946 H 0.80947 0.81553 0.40813 0.0
H947 H 0.82789 0.7967 0.38691 0.0
H948 H 0.88251 0.77053 0.30914 0.0
H949 H 0.8588 0.77671 0.33427 0.0
H950 H 0.81818 0.82536 0.32201 0.0
C951 C 0.79524 0.81207 0.40252 0.0
C952 C 0.82568 0.80358 0.37303 0.0
C953 C 0.78096 0.80618 0.41549 0.0
C954 C 0.87581 0.78465 0.30977 0.0
C955 C 0.86225 0.78824 0.32429 0.0
C956 C 0.82063 0.81948 0.3363 0.0
C957 C 0.79166 0.81188 0.38248 0.0
C958 C 0.80808 0.81277 0.36854 0.0
C959 C 0.85283 0.80621 0.32552 0.0
C960 C 0.8379 0.80962 0.34063 0.0
H961 H 0.74428 0.79803 0.38352 0.0
H962 H 0.76934 0.8077 0.36069 0.0
H963 H 0.79264 0.82839 0.34617 0.0
H964 H 0.87412 0.82833 0.28709 0.0
H965 H 0.85068 0.83465 0.31262 0.0
C966 C 0.54874 0.44666 0.6329 0.0
C967 C 0.54986 0.46382 0.64376 0.0
C968 C 0.5629 0.44223 0.61917 0.0
C969 C 0.61179 0.45753 0.60153 0.0
H970 H 0.59382 0.4355 0.55315 0.0
C971 C 0.63461 0.46033 0.51669 0.0
C972 C 0.65464 0.46204 0.51937 0.0
C973 C 0.62273 0.45487 0.53213 0.0
C974 C 0.59912 0.44175 0.56651 0.0
H975 H 0.56696 0.48959 0.64899 0.0
H976 H 0.59117 0.48233 0.6247 0.0
H977 H 0.57165 0.43825 0.5802 0.0
H978 H 0.67829 0.45767 0.53938 0.0
H979 H 0.65786 0.44663 0.56585 0.0
H980 H 0.63869 0.4626 0.58751 0.0
C981 C 0.57972 0.47191 0.62707 0.0
C982 C 0.58643 0.44306 0.58221 0.0
C983 C 0.56574 0.47618 0.64099 0.0
C984 C 0.66283 0.45643 0.53704 0.0
C985 C 0.65104 0.45043 0.55228 0.0
C986 C 0.62434 0.45656 0.58577 0.0
C987 C 0.57838 0.455 0.61576 0.0
C988 C 0.59246 0.45141 0.59981 0.0
C989 C 0.63075 0.45066 0.55042 0.0
C990 C 0.6181 0.44904 0.56786 0.0
H991 H 0.53674 0.43675 0.63482 0.0
H992 H 0.56155 0.42889 0.61108 0.0
H993 H 0.61717 0.4636 0.61495 0.0
H994 H 0.62798 0.4649 0.50325 0.0
H995 H 0.60722 0.45542 0.53001 0.0
C996 C 0.96614 0.3489 0.96628 0.0
C997 C 0.98375 0.35729 0.9719 0.0
C998 C 0.9507 0.36045 0.96034 0.0
C999 C 0.93587 0.41174 0.95049 0.0
H1000 H 0.88742 0.39375 0.97224 0.0
C1001 C 0.86008 0.44545 0.98137 0.0
C1002 C 0.85732 0.46047 0.96803 0.0
C1003 C 0.87425 0.43141 0.97819 0.0
C1004 C 0.90083 0.39909 0.96616 0.0
H1005 H 0.99955 0.38413 0.97485 0.0
H1006 H 0.97242 0.4045 0.96531 0.0
H1007 H 0.91535 0.37277 0.97261 0.0
H1008 H 0.86639 0.4718 0.94026 0.0
H1009 H 0.89055 0.44691 0.93434 0.0
H1010 H 0.92162 0.43863 0.94543 0.0
C1011 C 0.97053 0.38899 0.96482 0.0
C1012 C 0.91687 0.38686 0.96603 0.0
C1013 C 0.98615 0.37734 0.97029 0.0
C1014 C 0.86828 0.46051 0.95092 0.0
C1015 C 0.88227 0.44632 0.94761 0.0
C1016 C 0.91986 0.42409 0.95089 0.0
C1017 C 0.95233 0.38073 0.96053 0.0
C1018 C 0.93475 0.39309 0.95849 0.0
C1019 C 0.88581 0.43186 0.96144 0.0
C1020 C 0.90222 0.41806 0.95909 0.0
H1021 H 0.964 0.33343 0.9674 0.0
H1022 H 0.93719 0.35347 0.95652 0.0
H1023 H 0.94924 0.41699 0.94428 0.0
H1024 H 0.85199 0.44507 0.99477 0.0
H1025 H 0.87667 0.42073 0.98935 0.0
C1026 C 0.63522 0.5442 0.45661 0.0
C1027 C 0.65197 0.54709 0.46785 0.0
C1028 C 0.62173 0.55902 0.45422 0.0
C1029 C 0.60544 0.60289 0.47949 0.0
H1030 H 0.57232 0.60914 0.43458 0.0
C1031 C 0.54649 0.65972 0.48045 0.0
C1032 C 0.52787 0.6531 0.47565 0.0
C1033 C 0.56278 0.64905 0.47539 0.0
C1034 C 0.58146 0.60752 0.44721 0.0
H1035 H 0.66834 0.56831 0.48422 0.0
H1036 H 0.64509 0.59434 0.47961 0.0
H1037 H 0.59954 0.58655 0.43331 0.0
H1038 H 0.51169 0.63092 0.46053 0.0
H1039 H 0.54036 0.61188 0.45187 0.0
H1040 H 0.58735 0.6235 0.49353 0.0
C1041 C 0.64208 0.58041 0.47312 0.0
C1042 C 0.59703 0.59458 0.44652 0.0
C1043 C 0.65549 0.56552 0.47567 0.0
C1044 C 0.52591 0.63634 0.46434 0.0
C1045 C 0.54231 0.62547 0.45941 0.0
C1046 C 0.59003 0.61582 0.48014 0.0
C1047 C 0.62473 0.57717 0.46288 0.0
C1048 C 0.60913 0.592 0.46274 0.0
C1049 C 0.56084 0.63135 0.46563 0.0
C1050 C 0.57778 0.61824 0.46408 0.0
H1051 H 0.63203 0.53019 0.45035 0.0
H1052 H 0.6085 0.5559 0.4464 0.0
H1053 H 0.61405 0.60096 0.49244 0.0
H1054 H 0.54842 0.67276 0.48895 0.0
H1055 H 0.57687 0.65422 0.47995 0.0
C1056 C 0.99172 0.08855 0.30318 0.0
C1057 C 0.98339 0.0878 0.3217 0.0
C1058 C 0.99221 0.1059 0.29283 0.0
C1059 C 0.99302 0.15809 0.30244 0.0
H1060 H 0.99291 0.16193 0.24652 0.0
C1061 C 0.03289 0.2073 0.24275 0.0
C1062 C 0.0318 0.22538 0.252 0.0
C1063 C 0.02127 0.19192 0.2488 0.0
C1064 C 0.99295 0.16112 0.26216 0.0
H1065 H 0.96775 0.10438 0.34322 0.0
H1066 H 0.96832 0.13452 0.32506 0.0
H1067 H 0.98301 0.13175 0.26194 0.0
H1068 H 0.0163 0.24197 0.27359 0.0
H1069 H 0.99574 0.21519 0.28391 0.0
H1070 H 0.00369 0.18706 0.30277 0.0
C1071 C 0.97487 0.12181 0.3187 0.0
C1072 C 0.9873 0.14381 0.27099 0.0
C1073 C 0.97443 0.10448 0.32907 0.0
C1074 C 0.01757 0.22821 0.26622 0.0
C1075 C 0.00592 0.2128 0.27227 0.0
C1076 C 0.99867 0.17535 0.29363 0.0
C1077 C 0.98433 0.1229 0.30074 0.0
C1078 C 0.98771 0.14194 0.29125 0.0
C1079 C 0.00825 0.19424 0.26422 0.0
C1080 C 0.99917 0.17696 0.27337 0.0
H1081 H 0.99877 0.07598 0.29707 0.0
H1082 H 0.99975 0.1062 0.27912 0.0
H1083 H 0.99384 0.15714 0.31805 0.0
H1084 H 0.04364 0.20462 0.23169 0.0
H1085 H 0.02357 0.17787 0.24228 0.0
C1086 C 0.16473 0.71205 0.56038 0.0
C1087 C 0.18279 0.71857 0.55367 0.0
C1088 C 0.1482 0.71359 0.54878 0.0
C1089 C 0.12995 0.7438 0.50898 0.0
H1090 H 0.0849 0.71055 0.51267 0.0
C1091 C 0.05924 0.76733 0.47394 0.0
C1092 C 0.04327 0.767 0.48649 0.0
C1093 C 0.07582 0.75658 0.47811 0.0
C1094 C 0.09737 0.71996 0.51147 0.0
H1095 H 0.19789 0.73041 0.52892 0.0
H1096 H 0.16917 0.73265 0.5085 0.0
H1097 H 0.11547 0.70049 0.52737 0.0
H1098 H 0.03148 0.75368 0.51226 0.0
H1099 H 0.06047 0.73507 0.51967 0.0
H1100 H 0.11188 0.76353 0.49367 0.0
C1101 C 0.16766 0.72683 0.52295 0.0
C1102 C 0.1149 0.71422 0.51992 0.0
C1103 C 0.18418 0.72541 0.5346 0.0
C1104 C 0.04352 0.75422 0.50226 0.0
C1105 C 0.0602 0.74354 0.50652 0.0
C1106 C 0.11252 0.74948 0.50051 0.0
C1107 C 0.14933 0.72159 0.53013 0.0
C1108 C 0.13133 0.72627 0.51912 0.0
C1109 C 0.07688 0.74536 0.49501 0.0
C1110 C 0.09589 0.73783 0.50193 0.0
H1111 H 0.16312 0.7067 0.575 0.0
H1112 H 0.13438 0.70954 0.55492 0.0
H1113 H 0.14209 0.75369 0.50837 0.0
H1114 H 0.05944 0.77689 0.46155 0.0
H1115 H 0.08822 0.75791 0.46865 0.0
C1116 C 0.52958 0.93373 0.77677 0.0
C1117 C 0.52975 0.93438 0.79707 0.0
C1118 C 0.52897 0.91595 0.76701 0.0
C1119 C 0.53009 0.86194 0.77547 0.0
H1120 H 0.49665 0.8615 0.73051 0.0
C1121 C 0.46992 0.80919 0.73845 0.0
C1122 C 0.47796 0.79108 0.74278 0.0
C1123 C 0.48072 0.82608 0.74075 0.0
C1124 C 0.50589 0.86126 0.74316 0.0
H1125 H 0.53022 0.91686 0.82302 0.0
H1126 H 0.52817 0.88627 0.80635 0.0
H1127 H 0.50728 0.89201 0.74383 0.0
H1128 H 0.50424 0.7764 0.7514 0.0
H1129 H 0.52352 0.80588 0.75453 0.0
H1130 H 0.52708 0.83126 0.77595 0.0
C1131 C 0.52918 0.89922 0.79768 0.0
C1132 C 0.51238 0.87891 0.75064 0.0
C1133 C 0.53022 0.91691 0.80736 0.0
C1134 C 0.49757 0.79015 0.74807 0.0
C1135 C 0.50855 0.80712 0.75007 0.0
C1136 C 0.52317 0.8443 0.7683 0.0
C1137 C 0.52806 0.89841 0.77734 0.0
C1138 C 0.52403 0.87958 0.76735 0.0
C1139 C 0.50007 0.82541 0.74711 0.0
C1140 C 0.51037 0.84373 0.75245 0.0
H1141 H 0.52935 0.94695 0.76842 0.0
H1142 H 0.52868 0.91606 0.75136 0.0
H1143 H 0.5396 0.86167 0.78792 0.0
H1144 H 0.45484 0.81051 0.73436 0.0
H1145 H 0.47337 0.8397 0.73859 0.0
C1146 C 0.34946 0.29536 0.05724 0.0
C1147 C 0.33143 0.28894 0.05025 0.0
C1148 C 0.36609 0.29377 0.04585 0.0
C1149 C 0.3847 0.26356 0.00619 0.0
H1150 H 0.42955 0.29709 0.01014 0.0
C1151 C 0.45564 0.24053 0.97125 0.0
C1152 C 0.47174 0.24124 0.98368 0.0
C1153 C 0.43891 0.251 0.97551 0.0
C1154 C 0.41715 0.28758 0.00888 0.0
H1155 H 0.31653 0.27716 0.02524 0.0
H1156 H 0.34545 0.27479 0.00521 0.0
H1157 H 0.3989 0.307 0.0247 0.0
H1158 H 0.48353 0.25489 0.00937 0.0
H1159 H 0.45427 0.27301 0.01694 0.0
H1160 H 0.40291 0.24387 0.99098 0.0
C1161 C 0.34684 0.28061 0.0197 0.0
C1162 C 0.39957 0.29325 0.01725 0.0
C1163 C 0.33021 0.28211 0.03114 0.0
C1164 C 0.4714 0.25407 0.99945 0.0
C1165 C 0.45457 0.26447 0.00381 0.0
C1166 C 0.40219 0.25794 0.99782 0.0
C1167 C 0.36511 0.28579 0.02714 0.0
C1168 C 0.3832 0.28113 0.01632 0.0
C1169 C 0.43781 0.26232 0.99239 0.0
C1170 C 0.41875 0.2697 0.99932 0.0
H1171 H 0.35094 0.3007 0.0719 0.0
H1172 H 0.37987 0.29778 0.05217 0.0
H1173 H 0.3726 0.25362 0.00549 0.0
H1174 H 0.45551 0.23091 0.95887 0.0
H1175 H 0.42646 0.24941 0.96611 0.0
C1176 C 0.26292 0.01719 0.21831 0.0
C1177 C 0.24713 0.0299 0.21952 0.0
C1178 C 0.26632 0.00671 0.20129 0.0
C1179 C 0.25711 0.0128 0.14937 0.0
H1180 H 0.28424 0.96407 0.14463 0.0
C1181 C 0.28631 0.98874 0.07569 0.0
C1182 C 0.30563 0.98245 0.07581 0.0
C1183 C 0.27582 0.98999 0.09294 0.0
C1184 C 0.27668 0.97771 0.14571 0.0
H1185 H 0.22136 0.03994 0.20476 0.0
H1186 H 0.22692 0.02125 0.17542 0.0
H1187 H 0.27143 0.97402 0.17606 0.0
H1188 H 0.32863 0.97129 0.09401 0.0
H1189 H 0.31052 0.97377 0.12402 0.0
H1190 H 0.26292 0.01698 0.11937 0.0
C1191 C 0.23707 0.01984 0.18729 0.0
C1192 C 0.26933 0.9834 0.16373 0.0
C1193 C 0.23377 0.03042 0.20419 0.0
C1194 C 0.31378 0.97622 0.09338 0.0
C1195 C 0.30332 0.97756 0.11063 0.0
C1196 C 0.26445 0.00715 0.13144 0.0
C1197 C 0.25391 0.00864 0.18523 0.0
C1198 C 0.25973 1.00119 0.16584 0.0
C1199 C 0.28443 0.98508 0.11074 0.0
C1200 C 0.27463 0.9897 0.1294 0.0
H1201 H 0.27352 0.01653 0.22984 0.0
H1202 H 0.27946 0.99828 0.20024 0.0
H1203 H 0.25021 0.02679 0.15045 0.0
H1204 H 0.27954 0.99351 0.0624 0.0
H1205 H 0.26115 0.99544 0.09241 0.0
C1206 C 0.2261 0.98646 0.44436 0.0
C1207 C 0.23469 0.98831 0.4627 0.0
C1208 C 0.23658 0.99041 0.42762 0.0
C1209 C 0.27984 0.01794 0.41148 0.0
H1210 H 0.26236 0.99857 0.36185 0.0
C1211 C 0.28868 0.06259 0.34235 0.0
C1212 C 0.28733 0.05384 0.32407 0.0
C1213 C 0.28722 0.05156 0.35919 0.0
C1214 C 0.2679 0.00396 0.37547 0.0
H1215 H 0.26152 0.9945 0.47775 0.0
H1216 H 0.28022 1.00054 0.44839 0.0
H1217 H 0.25145 0.9831 0.39111 0.0
H1218 H 0.28499 0.02646 0.30906 0.0
H1219 H 0.28371 0.00697 0.33838 0.0
H1220 H 0.29703 0.03821 0.39581 0.0
C1221 C 0.2651 0.9967 0.44696 0.0
C1222 C 0.26125 0.99525 0.39243 0.0
C1223 C 0.25444 0.99304 0.46383 0.0
C1224 C 0.2859 0.03363 0.32297 0.0
C1225 C 0.28493 0.02249 0.33985 0.0
C1226 C 0.28692 0.02632 0.39449 0.0
C1227 C 0.25616 0.996 0.42861 0.0
C1228 C 0.26636 0.00269 0.41072 0.0
C1229 C 0.28484 0.03135 0.35825 0.0
C1230 C 0.28036 0.02007 0.3762 0.0
H1231 H 0.21089 0.98292 0.4429 0.0
H1232 H 0.22889 0.99003 0.41398 0.0
H1233 H 0.28424 0.02417 0.42516 0.0
H1234 H 0.28963 0.07816 0.34373 0.0
H1235 H 0.28689 0.05917 0.37286 0.0
C1236 C 0.28168 0.95921 0.71606 0.0
C1237 C 0.27435 0.96456 0.73423 0.0
C1238 C 0.27812 0.97051 0.69976 0.0
C1239 C 0.27113 0.9964 0.66577 0.0
H1240 H 0.22052 0.02022 0.66556 0.0
C1241 C 0.23526 0.01866 0.5936 0.0
C1242 C 0.21521 0.01559 0.59223 0.0
C1243 C 0.24462 0.01793 0.6116 0.0
C1244 C 0.2346 0.01343 0.6652 0.0
H1245 H 0.25921 0.98703 0.74988 0.0
H1246 H 0.25399 0.00747 0.72164 0.0
H1247 H 0.23383 0.0085 0.69559 0.0
H1248 H 0.18922 0.00967 0.6087 0.0
H1249 H 0.20538 0.0073 0.63956 0.0
H1250 H 0.27102 0.99953 0.63509 0.0
C1251 C 0.26169 0.99401 0.71973 0.0
C1252 C 0.24253 0.00705 0.68268 0.0
C1253 C 0.26491 0.98242 0.73604 0.0
C1254 C 0.20467 0.01229 0.60924 0.0
C1255 C 0.21402 0.0111 0.6271 0.0
C1256 C 0.26295 0.00226 0.6482 0.0
C1257 C 0.26746 0.98779 0.70116 0.0
C1258 C 0.26066 0.99781 0.68318 0.0
C1259 C 0.2342 0.01364 0.62861 0.0
C1260 C 0.24426 0.01028 0.64755 0.0
H1261 H 0.28902 0.94553 0.71408 0.0
H1262 H 0.28268 0.96487 0.68591 0.0
H1263 H 0.28542 0.99005 0.66548 0.0
H1264 H 0.24375 0.02136 0.58073 0.0
H1265 H 0.26007 0.02042 0.61207 0.0
C1266 C 0.23817 0.96527 0.83464 0.0
C1267 C 0.23173 0.94607 0.83613 0.0
C1268 C 0.23924 0.97709 0.85106 0.0
C1269 C 0.22626 0.98009 0.9037 0.0
H1270 H 0.27442 0.00869 0.90668 0.0
C1271 C 0.2658 1.00043 0.97484 0.0
C1272 C 0.27754 0.01704 0.97497 0.0
C1273 C 0.25527 0.99537 0.95825 0.0
C1274 C 0.26068 1.00116 0.90603 0.0
H1275 H 0.22032 0.92458 0.85588 0.0
H1276 H 0.22264 0.94492 0.88447 0.0
H1277 H 0.26533 0.99317 0.87661 0.0
H1278 H 0.28564 0.04251 0.95866 0.0
H1279 H 0.26699 0.03394 0.92997 0.0
H1280 H 0.22225 0.98745 0.9336 0.0
C1281 C 0.22658 0.95106 0.87064 0.0
C1282 C 0.25542 0.99223 0.88869 0.0
C1283 C 0.22534 0.93932 0.8542 0.0
C1284 C 0.27691 0.0295 0.95896 0.0
C1285 C 0.26634 0.02451 0.94244 0.0
C1286 C 0.23161 0.98897 0.92116 0.0
C1287 C 0.23409 0.96993 0.8694 0.0
C1288 C 0.23831 0.98128 0.88733 0.0
C1289 C 0.25622 0.00689 0.94152 0.0
C1290 C 0.24905 0.99937 0.9226 0.0
H1291 H 0.24305 0.97098 0.82091 0.0
H1292 H 0.24466 0.99168 0.84944 0.0
H1293 H 0.21283 0.97203 0.90314 0.0
H1294 H 0.266 0.99048 0.98692 0.0
H1295 H 0.24764 0.98169 0.95805 0.0
C1296 C 0.09699 0.31257 0.97974 0.0
C1297 C 0.07981 0.30333 0.98553 0.0
C1298 C 0.11473 0.30293 0.98068 0.0
C1299 C 0.13756 0.2643 0.00881 0.0
H1300 H 0.18149 0.27421 0.97544 0.0
C1301 C 0.21215 0.23691 0.03078 0.0
C1302 C 0.22695 0.25083 0.03002 0.0
C1303 C 0.19489 0.23961 0.0206 0.0
C1304 C 0.16937 0.2713 0.98491 0.0
H1305 H 0.06766 0.27623 0.99549 0.0
H1306 H 0.09858 0.25931 0.99685 0.0
H1307 H 0.14938 0.28572 0.96609 0.0
H1308 H 0.23588 0.27773 0.01675 0.0
H1309 H 0.20563 0.28268 0.99926 0.0
H1310 H 0.15744 0.25061 0.02799 0.0
C1311 C 0.09838 0.27416 0.99195 0.0
C1312 C 0.15096 0.27789 0.97955 0.0
C1313 C 0.08062 0.28381 0.99103 0.0
C1314 C 0.22478 0.26669 0.01756 0.0
C1315 C 0.20738 0.26952 0.00752 0.0
C1316 C 0.1559 0.25775 0.01416 0.0
C1317 C 0.11574 0.2838 0.98742 0.0
C1318 C 0.13487 0.27478 0.99163 0.0
C1319 C 0.1919 0.25644 0.00962 0.0
C1320 C 0.17214 0.26144 0.00248 0.0
H1321 H 0.09691 0.32759 0.97539 0.0
H1322 H 0.12777 0.31089 0.97721 0.0
H1323 H 0.12565 0.26195 0.01869 0.0
H1324 H 0.21347 0.22442 0.04012 0.0
H1325 H 0.1835 0.22896 0.02212 0.0
C1326 C 0.72234 0.24581 0.98341 0.0
C1327 C 0.72667 0.26424 0.9762 0.0
C1328 C 0.70511 0.24251 0.99346 0.0
C1329 C 0.65614 0.26488 0.99901 0.0
H1330 H 0.64758 0.21846 0.02893 0.0
C1331 C 0.58056 0.23057 0.00449 0.0
C1332 C 0.57632 0.21747 0.01935 0.0
C1333 C 0.59884 0.23917 0.00328 0.0
C1334 C 0.64955 0.23176 0.02098 0.0
H1335 H 0.71742 0.29407 0.97545 0.0
H1336 H 0.68821 0.28879 0.9944 0.0
H1337 H 0.68023 0.22846 0.0217 0.0
H1338 H 0.58734 0.20422 0.04546 0.0
H1339 H 0.61872 0.22027 0.04426 0.0
H1340 H 0.62554 0.26881 0.99924 0.0
C1341 C 0.6974 0.27651 0.99138 0.0
C1342 C 0.66848 0.23732 0.01642 0.0
C1343 C 0.71436 0.27967 0.98078 0.0
C1344 C 0.59027 0.21418 0.03375 0.0
C1345 C 0.6084 0.22322 0.03287 0.0
C1346 C 0.63725 0.25964 0.00406 0.0
C1347 C 0.69198 0.2577 0.99704 0.0
C1348 C 0.67209 0.25356 0.00472 0.0
C1349 C 0.61326 0.23531 0.01721 0.0
C1350 C 0.63355 0.24258 0.01448 0.0
H1351 H 0.73144 0.23357 0.97987 0.0
H1352 H 0.70162 0.22775 0.99722 0.0
H1353 H 0.65798 0.2774 0.98987 0.0
H1354 H 0.57019 0.23321 0.99303 0.0
H1355 H 0.60185 0.24802 0.99076 0.0
C1356 C 0.05729 0.34431 0.29372 0.0
C1357 C 0.05169 0.32737 0.28394 0.0
C1358 C 0.0456 0.36077 0.29323 0.0
C1359 C 0.99701 0.37948 0.27839 0.0
H1360 H 0.02633 0.42565 0.2662 0.0
C1361 C 0.9673 0.44294 0.23359 0.0
C1362 C 0.97513 0.46153 0.23626 0.0
C1363 C 0.97354 0.42746 0.24495 0.0
C1364 C 0.01783 0.41308 0.27003 0.0
H1365 H 0.02884 0.3141 0.26697 0.0
H1366 H 0.00863 0.34287 0.26578 0.0
H1367 H 0.04323 0.39658 0.27581 0.0
H1368 H 0.99416 0.47878 0.25435 0.0
H1369 H 0.00478 0.45183 0.27441 0.0
H1370 H 0.9716 0.39596 0.27175 0.0
C1371 C 0.02193 0.34343 0.27407 0.0
C1372 C 0.02757 0.39631 0.27556 0.0
C1373 C 0.03358 0.3269 0.27467 0.0
C1374 C 0.98791 0.46464 0.25181 0.0
C1375 C 0.99415 0.44914 0.26319 0.0
C1376 C 0.98723 0.39631 0.27282 0.0
C1377 C 0.02809 0.36077 0.28281 0.0
C1378 C 0.01735 0.37915 0.27941 0.0
C1379 C 0.98774 0.4302 0.25929 0.0
C1380 C 0.99756 0.41321 0.26815 0.0
H1381 H 0.07108 0.34511 0.30115 0.0
H1382 H 0.05061 0.37373 0.3005 0.0
H1383 H 0.98864 0.36663 0.28154 0.0
H1384 H 0.95736 0.44003 0.2218 0.0
H1385 H 0.96829 0.41312 0.24146 0.0
C1386 C 0.93617 0.77605 0.51606 0.0
C1387 C 0.93946 0.7929 0.52697 0.0
C1388 C 0.91775 0.76762 0.51537 0.0
C1389 C 0.86669 0.78209 0.52088 0.0
H1390 H 0.85684 0.72772 0.51148 0.0
C1391 C 0.8074 0.73495 0.47725 0.0
C1392 C 0.79034 0.7445 0.48276 0.0
C1393 C 0.82464 0.73789 0.48743 0.0
C1394 C 0.85935 0.74295 0.51413 0.0
H1395 H 0.92635 0.81318 0.54694 0.0
H1396 H 0.89443 0.79821 0.54617 0.0
H1397 H 0.88928 0.73835 0.52082 0.0
H1398 H 0.77769 0.76355 0.50417 0.0
H1399 H 0.80783 0.76862 0.52209 0.0
H1400 H 0.83699 0.78681 0.51366 0.0
C1401 C 0.90591 0.79181 0.53768 0.0
C1402 C 0.87796 0.74906 0.51944 0.0
C1403 C 0.92428 0.80031 0.53825 0.0
C1404 C 0.79058 0.75599 0.49954 0.0
C1405 C 0.8079 0.75903 0.5097 0.0
C1406 C 0.84811 0.77598 0.51566 0.0
C1407 C 0.9022 0.77577 0.52568 0.0
C1408 C 0.88199 0.76878 0.52246 0.0
C1409 C 0.82528 0.75053 0.50336 0.0
C1410 C 0.84429 0.7564 0.51177 0.0
H1411 H 0.94753 0.77 0.50715 0.0
H1412 H 0.91547 0.75538 0.50585 0.0
H1413 H 0.86923 0.79742 0.52274 0.0
H1414 H 0.80771 0.72596 0.46441 0.0
H1415 H 0.83772 0.73121 0.48203 0.0
C1416 C 0.28335 0.74494 0.51917 0.0
C1417 C 0.28479 0.75799 0.5347 0.0
C1418 C 0.29943 0.7412 0.50743 0.0
C1419 C 0.35043 0.75667 0.4969 0.0
H1420 H 0.35875 0.70159 0.49131 0.0
C1421 C 0.42602 0.72135 0.49289 0.0
C1422 C 0.42825 0.70412 0.48234 0.0
C1423 C 0.40794 0.73037 0.49407 0.0
C1424 C 0.35658 0.71705 0.49233 0.0
H1425 H 0.3037 0.77864 0.54895 0.0
H1426 H 0.3316 0.77202 0.52877 0.0
H1427 H 0.32757 0.71331 0.50221 0.0
H1428 H 0.41355 0.68371 0.46351 0.0
H1429 H 0.38215 0.69958 0.46536 0.0
H1430 H 0.37987 0.76024 0.4878 0.0
C1431 C 0.31814 0.76467 0.52548 0.0
C1432 C 0.3386 0.72381 0.49857 0.0
C1433 C 0.30209 0.76843 0.53716 0.0
C1434 C 0.41233 0.69689 0.47189 0.0
C1435 C 0.39427 0.70591 0.47306 0.0
C1436 C 0.36848 0.74989 0.49069 0.0
C1437 C 0.31727 0.75042 0.51098 0.0
C1438 C 0.3354 0.74368 0.50139 0.0
C1439 C 0.39168 0.72238 0.48471 0.0
C1440 C 0.3719 0.72995 0.48875 0.0
H1441 H 0.27021 0.7367 0.51682 0.0
H1442 H 0.29811 0.73043 0.49612 0.0
H1443 H 0.3484 0.77209 0.49861 0.0
H1444 H 0.43797 0.72731 0.50113 0.0
H1445 H 0.40649 0.74296 0.50328 0.0
C1446 C 0.99913 0.99537 0.27853 0.0
C1447 C 0.01458 0.99136 0.29114 0.0
C1448 C 0.99199 0.98103 0.26611 0.0
C1449 C 1.00037 0.93077 0.2478 0.0
H1450 H 0.9449 0.92614 0.25463 0.0
C1451 C 0.95953 0.85805 0.24346 0.0
C1452 C 0.94034 0.85781 0.2367 0.0
C1453 C 0.96968 0.87549 0.24516 0.0
C1454 C 0.96032 0.92733 0.25216 0.0
H1455 H 0.03598 0.96987 0.29905 0.0
H1456 H 0.02353 0.94497 0.27758 0.0
H1457 H 0.96134 0.95528 0.26523 0.0
H1458 H 0.91712 0.8756 0.22543 0.0
H1459 H 0.93489 0.90595 0.22815 0.0
H1460 H 0.99933 0.9024 0.23536 0.0
C1461 C 0.01684 0.9591 0.27721 0.0
C1462 C 0.96979 0.94413 0.25823 0.0
C1463 C 0.02397 0.97342 0.28961 0.0
C1464 C 0.93183 0.87529 0.23085 0.0
C1465 C 0.94199 0.89271 0.23249 0.0
C1466 C 0.99087 0.91393 0.2417 0.0
C1467 C 1.00018 0.96242 0.26601 0.0
C1468 C 0.98999 0.9459 0.25656 0.0
C1469 C 0.96089 0.8931 0.24009 0.0
C1470 C 0.97078 0.91182 0.24423 0.0
H1471 H 0.99163 0.00907 0.27926 0.0
H1472 H 0.97939 0.98419 0.25735 0.0
H1473 H 0.01591 0.93176 0.24608 0.0
H1474 H 0.96652 0.84486 0.2481 0.0
H1475 H 0.98411 0.87523 0.25127 0.0
C1476 C 0.48116 0.0601 0.76771 0.0
C1477 C 0.49378 0.04422 0.76757 0.0
C1478 C 0.48492 0.07627 0.75625 0.0
C1479 C 0.51714 0.09663 0.71794 0.0
H1480 H 0.51372 0.14266 0.74977 0.0
C1481 C 0.56462 0.16451 0.70688 0.0
C1482 C 0.55761 0.18258 0.71297 0.0
C1483 C 0.5533 0.14786 0.70891 0.0
C1484 C 0.5144 0.13013 0.7404 0.0
H1485 H 0.51932 0.03213 0.75408 0.0
H1486 H 0.52613 0.06051 0.73431 0.0
H1487 H 0.49993 0.11269 0.76126 0.0
H1488 H 0.53256 0.19758 0.72432 0.0
H1489 H 0.51263 0.16865 0.72736 0.0
H1490 H 0.53228 0.11416 0.69736 0.0
C1491 C 0.51318 0.06043 0.74311 0.0
C1492 C 0.50645 0.11283 0.74704 0.0
C1493 C 0.50929 0.04413 0.75446 0.0
C1494 C 0.53847 0.18386 0.71968 0.0
C1495 C 0.5271 0.16723 0.72156 0.0
C1496 C 0.52509 0.11403 0.71125 0.0
C1497 C 0.50153 0.07704 0.74456 0.0
C1498 C 0.50799 0.09576 0.73608 0.0
C1499 C 0.53465 0.14891 0.71696 0.0
C1500 C 0.52413 0.13094 0.72258 0.0
H1501 H 0.46896 0.06051 0.77752 0.0
H1502 H 0.47534 0.08859 0.75734 0.0
H1503 H 0.51842 0.0838 0.70905 0.0
H1504 H 0.5793 0.163 0.70164 0.0
H1505 H 0.55969 0.13404 0.7053 0.0
C1506 C 0.51788 0.2773 0.73979 0.0
C1507 C 0.53271 0.27886 0.75364 0.0
C1508 C 0.50567 0.29299 0.73608 0.0
C1509 C 0.49279 0.34314 0.75234 0.0
H1510 H 0.49111 0.35298 0.69721 0.0
C1511 C 0.4904 0.41953 0.71885 0.0
C1512 C 0.48126 0.42205 0.70086 0.0
C1513 C 0.49108 0.40126 0.72751 0.0
C1514 C 0.49101 0.35038 0.71265 0.0
H1515 H 0.54503 0.2974 0.77582 0.0
H1516 H 0.52406 0.32466 0.76922 0.0
H1517 H 0.50161 0.3217 0.7088 0.0
H1518 H 0.46429 0.4077 0.67864 0.0
H1519 H 0.4652 0.37601 0.69386 0.0
H1520 H 0.483 0.3723 0.75606 0.0
C1521 C 0.52169 0.31141 0.76122 0.0
C1522 C 0.49702 0.33233 0.71933 0.0
C1523 C 0.53384 0.29573 0.76496 0.0
C1524 C 0.47163 0.40623 0.69241 0.0
C1525 C 0.47225 0.38801 0.70108 0.0
C1526 C 0.48681 0.36127 0.74563 0.0
C1527 C 0.50806 0.31057 0.74612 0.0
C1528 C 0.49847 0.3286 0.73927 0.0
C1529 C 0.48258 0.38515 0.71838 0.0
C1530 C 0.48628 0.36525 0.72569 0.0
H1531 H 0.51654 0.26447 0.7309 0.0
H1532 H 0.49501 0.29168 0.72465 0.0
H1533 H 0.49346 0.3407 0.76779 0.0
H1534 H 0.49797 0.43141 0.72575 0.0
H1535 H 0.49927 0.39959 0.74076 0.0
C1536 C 0.82661 0.2358 0.97353 0.0
C1537 C 0.8275 0.22941 0.95425 0.0
C1538 C 0.8434 0.23693 0.98481 0.0
C1539 C 0.8961 0.22429 0.98638 0.0
H1540 H 0.89998 0.27344 0.01303 0.0
C1541 C 0.96831 0.26335 0.00382 0.0
C1542 C 0.96886 0.27602 0.01971 0.0
C1543 C 0.95139 0.25301 0.99948 0.0
C1544 C 0.89912 0.25943 0.00608 0.0
H1545 H 0.84655 0.21794 0.93215 0.0
H1546 H 0.8758 0.22024 0.95163 0.0
H1547 H 0.86943 0.26378 0.99886 0.0
H1548 H 0.95295 0.28617 0.04471 0.0
H1549 H 0.92376 0.26771 0.03756 0.0
H1550 H 0.92619 0.22043 0.99305 0.0
C1551 C 0.86215 0.22419 0.95818 0.0
C1552 C 0.88149 0.25386 0.99791 0.0
C1553 C 0.84533 0.22295 0.94695 0.0
C1554 C 0.95289 0.27668 0.03223 0.0
C1555 C 0.93609 0.26622 0.02803 0.0
C1556 C 0.91383 0.2299 0.99457 0.0
C1557 C 0.86151 0.23182 0.97704 0.0
C1558 C 0.87978 0.23637 0.98766 0.0
C1559 C 0.93477 0.25504 0.01106 0.0
C1560 C 0.91562 0.2477 0.00427 0.0
H1561 H 0.81308 0.24074 0.97966 0.0
H1562 H 0.84229 0.24247 0.99942 0.0
H1563 H 0.89527 0.21061 0.97879 0.0
H1564 H 0.98036 0.26261 0.99384 0.0
H1565 H 0.95092 0.24458 0.98628 0.0
C1566 C 0.96155 0.71157 0.26598 0.0
C1567 C 0.94137 0.71381 0.26491 0.0
C1568 C 0.96991 0.69327 0.26418 0.0
C1569 C 0.96161 0.64131 0.26826 0.0
H1570 H 0.99749 0.63664 0.22552 0.0
C1571 C 0.98141 0.56763 0.23441 0.0
C1572 C 0.99865 0.56583 0.22385 0.0
C1573 C 0.97647 0.58524 0.24303 0.0
C1574 C 0.98794 0.6376 0.23787 0.0
H1575 H 0.91408 0.69855 0.262 0.0
H1576 H 0.92874 0.66649 0.25931 0.0
H1577 H 0.98492 0.66818 0.23427 0.0
H1578 H 0.02505 0.58043 0.2155 0.0
H1579 H 0.01714 0.61073 0.23159 0.0
H1580 H 0.96478 0.61083 0.27218 0.0
C1581 C 0.93804 0.67894 0.26142 0.0
C1582 C 0.98062 0.65575 0.24276 0.0
C1583 C 0.92968 0.69728 0.26286 0.0
C1584 C 0.01158 0.58147 0.22342 0.0
C1585 C 0.00688 0.59894 0.23245 0.0
C1586 C 0.96926 0.62314 0.26365 0.0
C1587 C 0.95825 0.67682 0.26164 0.0
C1588 C 0.96714 0.65774 0.25776 0.0
C1589 C 0.98885 0.60138 0.24164 0.0
C1590 C 0.98227 0.62094 0.24812 0.0
H1591 H 0.97095 0.72402 0.26747 0.0
H1592 H 0.98553 0.69199 0.26443 0.0
H1593 H 0.95132 0.64252 0.28001 0.0
H1594 H 0.97105 0.55587 0.23483 0.0
H1595 H 0.96239 0.58641 0.24974 0.0
C1596 C 0.52449 0.74413 0.50875 0.0
C1597 C 0.52591 0.73018 0.52342 0.0
C1598 C 0.5405 0.75556 0.5039 0.0
C1599 C 0.59143 0.76823 0.51805 0.0
H1600 H 0.59974 0.76652 0.46267 0.0
C1601 C 0.66724 0.77085 0.48245 0.0
C1602 C 0.66902 0.77905 0.46395 0.0
C1603 C 0.64915 0.76978 0.49151 0.0
C1604 C 0.59759 0.76755 0.47814 0.0
H1605 H 0.54465 0.71875 0.54584 0.0
H1606 H 0.57246 0.73842 0.53732 0.0
H1607 H 0.5687 0.75685 0.47572 0.0
H1608 H 0.65346 0.79384 0.44112 0.0
H1609 H 0.6221 0.79234 0.45704 0.0
H1610 H 0.62073 0.77827 0.52039 0.0
C1611 C 0.55906 0.74065 0.52951 0.0
C1612 C 0.57968 0.76201 0.48567 0.0
C1613 C 0.54305 0.72928 0.53438 0.0
C1614 C 0.65257 0.78725 0.45528 0.0
C1615 C 0.63454 0.78628 0.46437 0.0
C1616 C 0.60941 0.77377 0.5105 0.0
C1617 C 0.55828 0.75327 0.51361 0.0
C1618 C 0.57644 0.76191 0.50574 0.0
C1619 C 0.63246 0.77696 0.48231 0.0
C1620 C 0.61283 0.77316 0.49045 0.0
H1621 H 0.51147 0.74529 0.50008 0.0
H1622 H 0.53924 0.76548 0.49187 0.0
H1623 H 0.58939 0.76854 0.53357 0.0
H1624 H 0.67962 0.76436 0.48951 0.0
H1625 H 0.64811 0.76238 0.50526 0.0
C1626 C 0.70715 0.47678 0.40961 0.0
C1627 C 0.71383 0.48247 0.42799 0.0
C1628 C 0.71876 0.47923 0.39324 0.0
C1629 C 0.75785 0.51099 0.37656 0.0
H1630 H 0.75578 0.47908 0.33044 0.0
C1631 C 0.79291 0.5381 0.30727 0.0
C1632 C 0.78092 0.53729 0.29086 0.0
C1633 C 0.7888 0.52686 0.32352 0.0
C1634 C 0.75651 0.48814 0.3432 0.0
H1635 H 0.7385 0.49384 0.44375 0.0
H1636 H 0.75888 0.4978 0.41525 0.0
H1637 H 0.741 0.46755 0.36041 0.0
H1638 H 0.75621 0.52286 0.27798 0.0
H1639 H 0.74878 0.50348 0.30644 0.0
H1640 H 0.77262 0.53188 0.3594 0.0
C1641 C 0.74449 0.49184 0.41342 0.0
C1642 C 0.74803 0.48155 0.36038 0.0
C1643 C 0.73285 0.48945 0.4298 0.0
C1644 C 0.76577 0.52374 0.29038 0.0
C1645 C 0.76151 0.51262 0.30675 0.0
C1646 C 0.76628 0.51757 0.35946 0.0
C1647 C 0.73735 0.48738 0.39486 0.0
C1648 C 0.74831 0.49306 0.37719 0.0
C1649 C 0.77244 0.51474 0.32383 0.0
C1650 C 0.76546 0.5064 0.34245 0.0
H1651 H 0.69258 0.47133 0.40769 0.0
H1652 H 0.71269 0.47576 0.37921 0.0
H1653 H 0.75802 0.52046 0.38904 0.0
H1654 H 0.80481 0.54828 0.308 0.0
H1655 H 0.79786 0.52845 0.33621 0.0
C1656 C 0.75002 0.50163 0.53239 0.0
C1657 C 0.73425 0.51429 0.53426 0.0
C1658 C 0.762 0.49778 0.54829 0.0
C1659 C 0.7731 0.51253 0.59934 0.0
H1660 H 0.77902 0.4574 0.60692 0.0
C1661 C 0.77816 0.47658 0.67444 0.0
C1662 C 0.78849 0.45922 0.6764 0.0
C1663 C 0.77685 0.48578 0.65647 0.0
C1664 C 0.77793 0.47287 0.60496 0.0
H1665 H 0.71976 0.53411 0.55375 0.0
H1666 H 0.74041 0.52733 0.58133 0.0
H1667 H 0.76768 0.46941 0.576 0.0
H1668 H 0.80686 0.43877 0.66134 0.0
H1669 H 0.80487 0.45498 0.63015 0.0
H1670 H 0.78262 0.51583 0.62869 0.0
C1671 C 0.74368 0.52038 0.56768 0.0
C1672 C 0.77142 0.4798 0.58713 0.0
C1673 C 0.73172 0.5242 0.55183 0.0
C1674 C 0.79864 0.45204 0.66032 0.0
C1675 C 0.79738 0.46126 0.64238 0.0
C1676 C 0.7796 0.50558 0.61722 0.0
C1677 C 0.75848 0.50653 0.56635 0.0
C1678 C 0.76844 0.49967 0.58422 0.0
C1679 C 0.78589 0.47785 0.64006 0.0
C1680 C 0.78165 0.48562 0.6204 0.0
H1681 H 0.7524 0.4938 0.51904 0.0
H1682 H 0.77351 0.48731 0.54666 0.0
H1683 H 0.77124 0.52795 0.59752 0.0
H1684 H 0.77014 0.48251 0.68652 0.0
H1685 H 0.76777 0.49845 0.65524 0.0
C1686 C 0.81281 0.53982 0.90672 0.0
C1687 C 0.80369 0.53077 0.92245 0.0
C1688 C 0.80423 0.53969 0.88839 0.0
C1689 C 0.75892 0.52801 0.8612 0.0
H1690 H 0.79499 0.51253 0.82123 0.0
C1691 C 0.73728 0.48476 0.79333 0.0
C1692 C 0.74868 0.48609 0.77656 0.0
C1693 C 0.74161 0.49592 0.80965 0.0
C1694 C 0.78469 0.51731 0.832 0.0
H1695 H 0.77783 0.51553 0.9315 0.0
H1696 H 0.76298 0.51504 0.89947 0.0
H1697 H 0.80707 0.52136 0.85294 0.0
H1698 H 0.77228 0.50172 0.76309 0.0
H1699 H 0.77957 0.52153 0.79144 0.0
H1700 H 0.73646 0.5232 0.84028 0.0
C1701 C 0.77668 0.52243 0.90131 0.0
C1702 C 0.79166 0.52236 0.8503 0.0
C1703 C 0.78523 0.52265 0.91969 0.0
C1704 C 0.76327 0.50024 0.77581 0.0
C1705 C 0.76759 0.51146 0.79215 0.0
C1706 C 0.75193 0.52295 0.84283 0.0
C1707 C 0.78637 0.53041 0.8853 0.0
C1708 C 0.77886 0.52738 0.86527 0.0
C1709 C 0.75741 0.50875 0.80957 0.0
C1710 C 0.76471 0.51712 0.82811 0.0
H1711 H 0.82696 0.54638 0.90837 0.0
H1712 H 0.81192 0.54635 0.8765 0.0
H1713 H 0.74867 0.53207 0.87231 0.0
H1714 H 0.72586 0.47407 0.79439 0.0
H1715 H 0.73346 0.49336 0.82276 0.0
C1716 C 0.738 0.56753 0.16608 0.0
C1717 C 0.74508 0.55986 0.18353 0.0
C1718 C 0.7381 0.55649 0.14911 0.0
C1719 C 0.76528 0.51641 0.12751 0.0
H1720 H 0.728 0.52138 0.08583 0.0
C1721 C 0.78153 0.48195 0.05447 0.0
C1722 C 0.77921 0.49428 0.03853 0.0
C1723 C 0.77269 0.4862 0.07213 0.0
C1724 C 0.73856 0.51985 0.09732 0.0
H1725 H 0.75665 0.53411 0.19707 0.0
H1726 H 0.75659 0.51475 0.16752 0.0
H1727 H 0.72119 0.53592 0.11736 0.0
H1728 H 0.76448 0.51984 0.02812 0.0
H1729 H 0.74934 0.52751 0.05901 0.0
H1730 H 0.783 0.50107 0.1075 0.0
C1731 C 0.7513 0.52945 0.16688 0.0
C1732 C 0.73466 0.52818 0.11539 0.0
C1733 C 0.75122 0.54051 0.18385 0.0
C1734 C 0.76646 0.50999 0.04011 0.0
C1735 C 0.75779 0.5144 0.05789 0.0
C1736 C 0.76919 0.50814 0.10951 0.0
C1737 C 0.74526 0.53748 0.14917 0.0
C1738 C 0.74814 0.52684 0.13062 0.0
C1739 C 0.76155 0.50305 0.07435 0.0
C1740 C 0.75604 0.50998 0.09405 0.0
H1741 H 0.73313 0.58237 0.1653 0.0
H1742 H 0.7335 0.56323 0.13576 0.0
H1743 H 0.77619 0.51539 0.13872 0.0
H1744 H 0.79113 0.46962 0.05364 0.0
H1745 H 0.77545 0.4768 0.08433 0.0
C1746 C 0.48143 0.67087 0.78342 0.0
C1747 C 0.46114 0.6706 0.78257 0.0
C1748 C 0.49197 0.65361 0.78231 0.0
C1749 C 0.48556 0.59925 0.77956 0.0
H1750 H 0.53323 0.60264 0.7505 0.0
C1751 C 0.51674 0.53097 0.7439 0.0
C1752 C 0.52392 0.53364 0.7251 0.0
C1753 C 0.51375 0.54689 0.75613 0.0
C1754 C 0.51982 0.60132 0.75844 0.0
H1755 H 0.43596 0.65201 0.78038 0.0
H1756 H 0.454 0.62238 0.77726 0.0
H1757 H 0.51793 0.63186 0.76174 0.0
H1758 H 0.53479 0.55499 0.7049 0.0
H1759 H 0.52877 0.5824 0.7254 0.0
H1760 H 0.48634 0.56889 0.77445 0.0
C1761 C 0.46207 0.63558 0.77962 0.0
C1762 C 0.51116 0.61823 0.76532 0.0
C1763 C 0.4516 0.65272 0.78126 0.0
C1764 C 0.52923 0.55234 0.7193 0.0
C1765 C 0.52588 0.56821 0.73127 0.0
C1766 C 0.49388 0.5824 0.77213 0.0
C1767 C 0.48247 0.63571 0.77975 0.0
C1768 C 0.49349 0.61755 0.77541 0.0
C1769 C 0.51749 0.56587 0.74967 0.0
C1770 C 0.51077 0.58322 0.7608 0.0
H1771 H 0.48917 0.68444 0.78458 0.0
H1772 H 0.50759 0.65444 0.78303 0.0
H1773 H 0.47243 0.59787 0.78794 0.0
H1774 H 0.51264 0.51671 0.74887 0.0
H1775 H 0.50784 0.5443 0.77037 0.0
loop_
_geom_bond_atom_site_label_1
_geom_bond_atom_site_label_2
_geom_bond_distance
_geom_bond_site_symmetry_2
_ccdc_geom_bond_type
O0 Cd1 2.223 . S
O0 C8 1.315 . S
Cd1 O0 2.223 . S
Cd1 O4 2.297 . S
Cd1 O5 2.439 . S
Cd1 O11 2.240 . S
Cd2 O3 2.240 . S
Cd2 O10 2.223 . S
Cd2 O12 2.297 . S
Cd2 O13 2.439 . S
O3 Cd2 2.240 . S
O3 C8 1.279 . S
O4 Cd1 2.297 . S
O4 C6 1.247 . S
O5 Cd1 2.439 . S
O5 C6 1.208 . S
C6 O4 1.247 . S
C6 O5 1.208 . S
C7 O12 1.247 . S
C7 O13 1.208 . S
C8 O0 1.315 . S
C8 O3 1.279 . S
C9 O10 1.315 . S
C9 O11 1.279 . S
O10 Cd2 2.223 . S
O10 C9 1.315 . S
O11 Cd1 2.240 . S
O11 C9 1.279 . S
O12 Cd2 2.297 . S
O12 C7 1.247 . S
O13 Cd2 2.439 . S
O13 C7 1.208 . S
O14 Cd15 2.223 . S
O14 C22 1.315 . S
Cd15 O14 2.223 . S
Cd15 O18 2.297 . S
Cd15 O19 2.439 . S
Cd15 O25 2.240 1_455 S
Cd16 O17 2.240 1_655 S
Cd16 O24 2.223 . S
Cd16 O26 2.297 . S
Cd16 O27 2.439 . S
O17 Cd16 2.240 1_455 S
O17 C22 1.279 . S
O18 Cd15 2.297 . S
O18 C20 1.247 . S
O19 Cd15 2.439 . S
O19 C20 1.208 . S
C20 O18 1.247 . S
C20 O19 1.208 . S
C21 O26 1.247 . S
C21 O27 1.208 . S
C22 O14 1.315 . S
C22 O17 1.279 . S
C23 O24 1.315 . S
C23 O25 1.279 . S
O24 Cd16 2.223 . S
O24 C23 1.315 . S
O25 Cd15 2.240 1_655 S
O25 C23 1.279 . S
O26 Cd16 2.297 . S
O26 C21 1.247 . S
O27 Cd16 2.439 . S
O27 C21 1.208 . S
O28 Cd29 2.223 . S
O28 C36 1.315 . S
Cd29 O28 2.223 . S
Cd29 O32 2.297 . S
Cd29 O33 2.439 . S
Cd29 O39 2.240 . S
Cd30 O31 2.240 . S
Cd30 O38 2.223 . S
Cd30 O40 2.297 . S
Cd30 O41 2.439 . S
O31 Cd30 2.240 . S
O31 C36 1.279 . S
O32 Cd29 2.297 . S
O32 C34 1.247 . S
O33 Cd29 2.439 . S
O33 C34 1.208 . S
C34 O32 1.247 . S
C34 O33 1.208 . S
C35 O40 1.247 . S
C35 O41 1.208 . S
C36 O28 1.315 . S
C36 O31 1.279 . S
C37 O38 1.315 . S
C37 O39 1.279 . S
O38 Cd30 2.223 . S
O38 C37 1.315 . S
O39 Cd29 2.240 . S
O39 C37 1.279 . S
O40 Cd30 2.297 . S
O40 C35 1.247 . S
O41 Cd30 2.439 . S
O41 C35 1.208 . S
O42 Cd43 2.230 . S
O42 C50 1.302 1_556 S
Cd43 O42 2.230 . S
Cd43 O46 2.297 1_556 S
Cd43 O47 2.439 1_556 S
Cd43 O53 2.240 . S
Cd44 O45 2.240 . S
Cd44 O52 2.223 1_554 S
Cd44 O54 2.297 1_554 S
Cd44 O55 2.439 . S
O45 Cd44 2.240 . S
O45 C50 1.279 . S
O46 Cd43 2.297 1_554 S
O46 C48 1.247 . S
O47 Cd43 2.439 1_554 S
O47 C48 1.208 . S
C48 O46 1.247 . S
C48 O47 1.208 . S
C49 O54 1.250 . S
C49 O55 1.202 1_556 S
C50 O42 1.302 1_554 S
C50 O45 1.279 . S
C51 O52 1.315 . S
C51 O53 1.279 . S
O52 Cd44 2.223 1_556 S
O52 C51 1.315 . S
O53 Cd43 2.240 . S
O53 C51 1.279 . S
O54 Cd44 2.297 1_556 S
O54 C49 1.250 . S
O55 Cd44 2.439 . S
O55 C49 1.202 1_554 S
O56 Cd57 2.223 1_455 S
O56 C64 1.315 . S
Cd57 O56 2.223 1_655 S
Cd57 O60 2.297 1_655 S
Cd57 O61 2.439 . S
Cd57 O67 2.240 1_545 S
Cd58 O59 2.214 1_565 S
Cd58 O66 2.228 . S
Cd58 O68 2.297 1_455 S
Cd58 O69 2.439 1_455 S
O59 Cd58 2.214 1_545 S
O59 C64 1.285 . S
O60 Cd57 2.297 1_455 S
O60 C62 1.247 . S
O61 Cd57 2.439 . S
O61 C62 1.208 1_655 S
C62 O60 1.247 . S
C62 O61 1.208 1_455 S
C63 O68 1.247 . S
C63 O69 1.208 . S
C64 O56 1.315 . S
C64 O59 1.285 . S
C65 O66 1.305 1_655 S
C65 O67 1.279 . S
O66 Cd58 2.228 . S
O66 C65 1.305 1_455 S
O67 Cd57 2.240 1_565 S
O67 C65 1.279 . S
O68 Cd58 2.297 1_655 S
O68 C63 1.247 . S
O69 Cd58 2.439 1_655 S
O69 C63 1.208 . S
O70 Cd71 2.223 . S
O70 C78 1.315 . S
Cd71 O70 2.223 . S
Cd71 O74 2.297 . S
Cd71 O75 2.439 . S
Cd71 O81 2.240 . S
Cd72 O73 2.240 . S
Cd72 O80 2.223 . S
Cd72 O82 2.297 . S
Cd72 O83 2.439 . S
O73 Cd72 2.240 . S
O73 C78 1.279 . S
O74 Cd71 2.297 . S
O74 C76 1.247 . S
O75 Cd71 2.439 . S
O75 C76 1.208 . S
C76 O74 1.247 . S
C76 O75 1.208 . S
C77 O82 1.247 . S
C77 O83 1.208 . S
C78 O70 1.315 . S
C78 O73 1.279 . S
C79 O80 1.315 . S
C79 O81 1.279 . S
O80 Cd72 2.223 . S
O80 C79 1.315 . S
O81 Cd71 2.240 . S
O81 C79 1.279 . S
O82 Cd72 2.297 . S
O82 C77 1.247 . S
O83 Cd72 2.439 . S
O83 C77 1.208 . S
O84 Cd85 2.223 . S
O84 C92 1.315 . S
Cd85 O84 2.223 . S
Cd85 O88 2.297 . S
Cd85 O89 2.439 . S
Cd85 O95 2.240 1_565 S
Cd86 O87 2.240 1_545 S
Cd86 O94 2.223 . S
Cd86 O96 2.297 . S
Cd86 O97 2.439 . S
O87 Cd86 2.240 1_565 S
O87 C92 1.279 . S
O88 Cd85 2.297 . S
O88 C90 1.247 . S
O89 Cd85 2.439 . S
O89 C90 1.208 . S
C90 O88 1.247 . S
C90 O89 1.208 . S
C91 O96 1.247 . S
C91 O97 1.208 . S
C92 O84 1.315 . S
C92 O87 1.279 . S
C93 O94 1.315 . S
C93 O95 1.279 . S
O94 Cd86 2.223 . S
O94 C93 1.315 . S
O95 Cd85 2.240 1_545 S
O95 C93 1.279 . S
O96 Cd86 2.297 . S
O96 C91 1.247 . S
O97 Cd86 2.439 . S
O97 C91 1.208 . S
O98 Cd99 2.223 . S
O98 C106 1.315 . S
Cd99 O98 2.223 . S
Cd99 O102 2.297 . S
Cd99 O103 2.439 . S
Cd99 O109 2.240 . S
Cd100 O101 2.240 . S
Cd100 O108 2.223 . S
Cd100 O110 2.297 . S
Cd100 O111 2.439 . S
O101 Cd100 2.240 . S
O101 C106 1.279 . S
O102 Cd99 2.297 . S
O102 C104 1.247 . S
O103 Cd99 2.439 . S
O103 C104 1.208 . S
C104 O102 1.247 . S
C104 O103 1.208 . S
C105 O110 1.247 . S
C105 O111 1.208 . S
C106 O98 1.315 . S
C106 O101 1.279 . S
C107 O108 1.315 . S
C107 O109 1.279 . S
O108 Cd100 2.223 . S
O108 C107 1.315 . S
O109 Cd99 2.240 . S
O109 C107 1.279 . S
O110 Cd100 2.297 . S
O110 C105 1.247 . S
O111 Cd100 2.439 . S
O111 C105 1.208 . S
O112 Cd113 2.223 . S
O112 C120 1.315 . S
Cd113 O112 2.223 . S
Cd113 O116 2.297 . S
Cd113 O117 2.439 . S
Cd113 O123 2.240 . S
Cd114 O115 2.240 . S
Cd114 O122 2.223 . S
Cd114 O124 2.297 . S
Cd114 O125 2.439 . S
O115 Cd114 2.240 . S
O115 C120 1.279 . S
O116 Cd113 2.297 . S
O116 C118 1.247 . S
O117 Cd113 2.439 . S
O117 C118 1.208 . S
C118 O116 1.247 . S
C118 O117 1.208 . S
C119 O124 1.247 . S
C119 O125 1.208 . S
C120 O112 1.315 . S
C120 O115 1.279 . S
C121 O122 1.315 . S
C121 O123 1.279 . S
O122 Cd114 2.223 . S
O122 C121 1.315 . S
O123 Cd113 2.240 . S
O123 C121 1.279 . S
O124 Cd114 2.297 . S
O124 C119 1.247 . S
O125 Cd114 2.439 . S
O125 C119 1.208 . S
O126 Cd127 2.230 . S
O126 C134 1.302 1_565 S
Cd127 O126 2.230 . S
Cd127 O130 2.297 1_565 S
Cd127 O131 2.439 1_565 S
Cd127 O137 2.240 . S
Cd128 O129 2.240 . S
Cd128 O136 2.223 1_545 S
Cd128 O138 2.297 1_545 S
Cd128 O139 2.439 . S
O129 Cd128 2.240 . S
O129 C134 1.279 . S
O130 Cd127 2.297 1_545 S
O130 C132 1.247 . S
O131 Cd127 2.439 1_545 S
O131 C132 1.208 . S
C132 O130 1.247 . S
C132 O131 1.208 . S
C133 O138 1.250 . S
C133 O139 1.202 1_565 S
C134 O126 1.302 1_545 S
C134 O129 1.279 . S
C135 O136 1.315 . S
C135 O137 1.279 . S
O136 Cd128 2.223 1_565 S
O136 C135 1.315 . S
O137 Cd127 2.240 . S
O137 C135 1.279 . S
O138 Cd128 2.297 1_565 S
O138 C133 1.250 . S
O139 Cd128 2.439 . S
O139 C133 1.202 1_545 S
O140 Cd141 2.223 . S
O140 C148 1.315 . S
Cd141 O140 2.223 . S
Cd141 O144 2.297 . S
Cd141 O145 2.439 . S
Cd141 O151 2.240 . S
Cd142 O143 2.240 . S
Cd142 O150 2.223 . S
Cd142 O152 2.297 . S
Cd142 O153 2.439 . S
O143 Cd142 2.240 . S
O143 C148 1.279 . S
O144 Cd141 2.297 . S
O144 C146 1.247 . S
O145 Cd141 2.439 . S
O145 C146 1.208 . S
C146 O144 1.247 . S
C146 O145 1.208 . S
C147 O152 1.247 . S
C147 O153 1.208 . S
C148 O140 1.315 . S
C148 O143 1.279 . S
C149 O150 1.315 . S
C149 O151 1.279 . S
O150 Cd142 2.223 . S
O150 C149 1.315 . S
O151 Cd141 2.240 . S
O151 C149 1.279 . S
O152 Cd142 2.297 . S
O152 C147 1.247 . S
O153 Cd142 2.439 . S
O153 C147 1.208 . S
O154 Cd155 2.223 1_545 S
O154 C162 1.315 . S
Cd155 O154 2.223 1_565 S
Cd155 O158 2.297 1_565 S
Cd155 O159 2.439 . S
Cd155 O165 2.240 1_554 S
Cd156 O157 2.214 1_556 S
Cd156 O164 2.228 . S
Cd156 O166 2.297 1_545 S
Cd156 O167 2.439 1_545 S
O157 Cd156 2.214 1_554 S
O157 C162 1.285 . S
O158 Cd155 2.297 1_545 S
O158 C160 1.247 . S
O159 Cd155 2.439 . S
O159 C160 1.208 1_565 S
C160 O158 1.247 . S
C160 O159 1.208 1_545 S
C161 O166 1.247 . S
C161 O167 1.208 . S
C162 O154 1.315 . S
C162 O157 1.285 . S
C163 O164 1.305 1_565 S
C163 O165 1.279 . S
O164 Cd156 2.228 . S
O164 C163 1.305 1_545 S
O165 Cd155 2.240 1_556 S
O165 C163 1.279 . S
O166 Cd156 2.297 1_565 S
O166 C161 1.247 . S
O167 Cd156 2.439 1_565 S
O167 C161 1.208 . S
O168 Cd169 2.223 . S
O168 C176 1.315 . S
Cd169 O168 2.223 . S
Cd169 O172 2.297 . S
Cd169 O173 2.439 . S
Cd169 O179 2.240 . S
Cd170 O171 2.240 . S
Cd170 O178 2.223 . S
Cd170 O180 2.297 . S
Cd170 O181 2.439 . S
O171 Cd170 2.240 . S
O171 C176 1.279 . S
O172 Cd169 2.297 . S
O172 C174 1.247 . S
O173 Cd169 2.439 . S
O173 C174 1.208 . S
C174 O172 1.247 . S
C174 O173 1.208 . S
C175 O180 1.247 . S
C175 O181 1.208 . S
C176 O168 1.315 . S
C176 O171 1.279 . S
C177 O178 1.315 . S
C177 O179 1.279 . S
O178 Cd170 2.223 . S
O178 C177 1.315 . S
O179 Cd169 2.240 . S
O179 C177 1.279 . S
O180 Cd170 2.297 . S
O180 C175 1.247 . S
O181 Cd170 2.439 . S
O181 C175 1.208 . S
O182 Cd183 2.230 . S
O182 C190 1.302 1_655 S
Cd183 O182 2.230 . S
Cd183 O186 2.297 1_655 S
Cd183 O187 2.439 1_655 S
Cd183 O193 2.240 . S
Cd184 O185 2.240 . S
Cd184 O192 2.223 1_455 S
Cd184 O194 2.297 1_455 S
Cd184 O195 2.439 . S
O185 Cd184 2.240 . S
O185 C190 1.279 . S
O186 Cd183 2.297 1_455 S
O186 C188 1.247 . S
O187 Cd183 2.439 1_455 S
O187 C188 1.208 . S
C188 O186 1.247 . S
C188 O187 1.208 . S
C189 O194 1.250 . S
C189 O195 1.202 1_655 S
C190 O182 1.302 1_455 S
C190 O185 1.279 . S
C191 O192 1.315 . S
C191 O193 1.279 . S
O192 Cd184 2.223 1_655 S
O192 C191 1.315 . S
O193 Cd183 2.240 . S
O193 C191 1.279 . S
O194 Cd184 2.297 1_655 S
O194 C189 1.250 . S
O195 Cd184 2.439 . S
O195 C189 1.202 1_455 S
O196 Cd197 2.223 . S
O196 C204 1.315 . S
Cd197 O196 2.223 . S
Cd197 O200 2.297 . S
Cd197 O201 2.439 . S
Cd197 O207 2.240 . S
Cd198 O199 2.240 . S
Cd198 O206 2.223 . S
Cd198 O208 2.297 . S
Cd198 O209 2.439 . S
O199 Cd198 2.240 . S
O199 C204 1.279 . S
O200 Cd197 2.297 . S
O200 C202 1.247 . S
O201 Cd197 2.439 . S
O201 C202 1.208 . S
C202 O200 1.247 . S
C202 O201 1.208 . S
C203 O208 1.247 . S
C203 O209 1.208 . S
C204 O196 1.315 . S
C204 O199 1.279 . S
C205 O206 1.315 . S
C205 O207 1.279 . S
O206 Cd198 2.223 . S
O206 C205 1.315 . S
O207 Cd197 2.240 . S
O207 C205 1.279 . S
O208 Cd198 2.297 . S
O208 C203 1.247 . S
O209 Cd198 2.439 . S
O209 C203 1.208 . S
O210 Cd211 2.223 . S
O210 C218 1.315 . S
Cd211 O210 2.223 . S
Cd211 O214 2.297 . S
Cd211 O215 2.439 . S
Cd211 O221 2.240 . S
Cd212 O213 2.240 . S
Cd212 O220 2.223 . S
Cd212 O222 2.297 . S
Cd212 O223 2.439 . S
O213 Cd212 2.240 . S
O213 C218 1.279 . S
O214 Cd211 2.297 . S
O214 C216 1.247 . S
O215 Cd211 2.439 . S
O215 C216 1.208 . S
C216 O214 1.247 . S
C216 O215 1.208 . S
C217 O222 1.247 . S
C217 O223 1.208 . S
C218 O210 1.315 . S
C218 O213 1.279 . S
C219 O220 1.315 . S
C219 O221 1.279 . S
O220 Cd212 2.223 . S
O220 C219 1.315 . S
O221 Cd211 2.240 . S
O221 C219 1.279 . S
O222 Cd212 2.297 . S
O222 C217 1.247 . S
O223 Cd212 2.439 . S
O223 C217 1.208 . S
O224 Cd225 2.223 . S
O224 C232 1.315 . S
Cd225 O224 2.223 . S
Cd225 O228 2.297 . S
Cd225 O229 2.439 . S
Cd225 O235 2.240 . S
Cd226 O227 2.240 . S
Cd226 O234 2.223 . S
Cd226 O236 2.297 . S
Cd226 O237 2.439 . S
O227 Cd226 2.240 . S
O227 C232 1.279 . S
O228 Cd225 2.297 . S
O228 C230 1.247 . S
O229 Cd225 2.439 . S
O229 C230 1.208 . S
C230 O228 1.247 . S
C230 O229 1.208 . S
C231 O236 1.247 . S
C231 O237 1.208 . S
C232 O224 1.315 . S
C232 O227 1.279 . S
C233 O234 1.315 . S
C233 O235 1.279 . S
O234 Cd226 2.223 . S
O234 C233 1.315 . S
O235 Cd225 2.240 . S
O235 C233 1.279 . S
O236 Cd226 2.297 . S
O236 C231 1.247 . S
O237 Cd226 2.439 . S
O237 C231 1.208 . S
O238 Cd239 2.223 . S
O238 C246 1.315 . S
Cd239 O238 2.223 . S
Cd239 O242 2.297 . S
Cd239 O243 2.439 . S
Cd239 O249 2.240 . S
Cd240 O241 2.240 . S
Cd240 O248 2.223 . S
Cd240 O250 2.297 . S
Cd240 O251 2.439 . S
O241 Cd240 2.240 . S
O241 C246 1.279 . S
O242 Cd239 2.297 . S
O242 C244 1.247 . S
O243 Cd239 2.439 . S
O243 C244 1.208 . S
C244 O242 1.247 . S
C244 O243 1.208 . S
C245 O250 1.247 . S
C245 O251 1.208 . S
C246 O238 1.315 . S
C246 O241 1.279 . S
C247 O248 1.315 . S
C247 O249 1.279 . S
O248 Cd240 2.223 . S
O248 C247 1.315 . S
O249 Cd239 2.240 . S
O249 C247 1.279 . S
O250 Cd240 2.297 . S
O250 C245 1.247 . S
O251 Cd240 2.439 . S
O251 C245 1.208 . S
O252 Cd253 2.223 1_554 S
O252 C260 1.315 . S
Cd253 O252 2.223 1_556 S
Cd253 O256 2.297 1_556 S
Cd253 O257 2.439 . S
Cd253 O263 2.240 1_455 S
Cd254 O255 2.214 1_655 S
Cd254 O262 2.228 . S
Cd254 O264 2.297 1_554 S
Cd254 O265 2.439 1_554 S
O255 Cd254 2.214 1_455 S
O255 C260 1.285 . S
O256 Cd253 2.297 1_554 S
O256 C258 1.247 . S
O257 Cd253 2.439 . S
O257 C258 1.208 1_556 S
C258 O256 1.247 . S
C258 O257 1.208 1_554 S
C259 O264 1.247 . S
C259 O265 1.208 . S
C260 O252 1.315 . S
C260 O255 1.285 . S
C261 O262 1.305 1_556 S
C261 O263 1.279 . S
O262 Cd254 2.228 . S
O262 C261 1.305 1_554 S
O263 Cd253 2.240 1_655 S
O263 C261 1.279 . S
O264 Cd254 2.297 1_556 S
O264 C259 1.247 . S
O265 Cd254 2.439 1_556 S
O265 C259 1.208 . S
O266 Cd267 2.223 . S
O266 C274 1.315 . S
Cd267 O266 2.223 . S
Cd267 O270 2.297 . S
Cd267 O271 2.439 . S
Cd267 O277 2.240 . S
Cd268 O269 2.240 . S
Cd268 O276 2.223 . S
Cd268 O278 2.297 . S
Cd268 O279 2.439 . S
O269 Cd268 2.240 . S
O269 C274 1.279 . S
O270 Cd267 2.297 . S
O270 C272 1.247 . S
O271 Cd267 2.439 . S
O271 C272 1.208 . S
C272 O270 1.247 . S
C272 O271 1.208 . S
C273 O278 1.247 . S
C273 O279 1.208 . S
C274 O266 1.315 . S
C274 O269 1.279 . S
C275 O276 1.315 . S
C275 O277 1.279 . S
O276 Cd268 2.223 . S
O276 C275 1.315 . S
O277 Cd267 2.240 . S
O277 C275 1.279 . S
O278 Cd268 2.297 . S
O278 C273 1.247 . S
O279 Cd268 2.439 . S
O279 C273 1.208 . S
O280 Cd281 2.223 . S
O280 C288 1.315 . S
Cd281 O280 2.223 . S
Cd281 O284 2.297 . S
Cd281 O285 2.439 . S
Cd281 O291 2.240 . S
Cd282 O283 2.240 . S
Cd282 O290 2.223 . S
Cd282 O292 2.297 . S
Cd282 O293 2.439 . S
O283 Cd282 2.240 . S
O283 C288 1.279 . S
O284 Cd281 2.297 . S
O284 C286 1.247 . S
O285 Cd281 2.439 . S
O285 C286 1.208 . S
C286 O284 1.247 . S
C286 O285 1.208 . S
C287 O292 1.247 . S
C287 O293 1.208 . S
C288 O280 1.315 . S
C288 O283 1.279 . S
C289 O290 1.315 . S
C289 O291 1.279 . S
O290 Cd282 2.223 . S
O290 C289 1.315 . S
O291 Cd281 2.240 . S
O291 C289 1.279 . S
O292 Cd282 2.297 . S
O292 C287 1.247 . S
O293 Cd282 2.439 . S
O293 C287 1.208 . S
O294 Cd295 2.223 . S
O294 C302 1.315 . S
Cd295 O294 2.223 . S
Cd295 O298 2.297 . S
Cd295 O299 2.439 . S
Cd295 O305 2.240 . S
Cd296 O297 2.240 . S
Cd296 O304 2.223 . S
Cd296 O306 2.297 . S
Cd296 O307 2.439 . S
O297 Cd296 2.240 . S
O297 C302 1.279 . S
O298 Cd295 2.297 . S
O298 C300 1.247 . S
O299 Cd295 2.439 . S
O299 C300 1.208 . S
C300 O298 1.247 . S
C300 O299 1.208 . S
C301 O306 1.247 . S
C301 O307 1.208 . S
C302 O294 1.315 . S
C302 O297 1.279 . S
C303 O304 1.315 . S
C303 O305 1.279 . S
O304 Cd296 2.223 . S
O304 C303 1.315 . S
O305 Cd295 2.240 . S
O305 C303 1.279 . S
O306 Cd296 2.297 . S
O306 C301 1.247 . S
O307 Cd296 2.439 . S
O307 C301 1.208 . S
O308 Cd309 2.223 . S
O308 C316 1.315 . S
Cd309 O308 2.223 . S
Cd309 O312 2.297 . S
Cd309 O313 2.439 . S
Cd309 O319 2.240 1_556 S
Cd310 O311 2.240 1_554 S
Cd310 O318 2.223 . S
Cd310 O320 2.297 . S
Cd310 O321 2.439 . S
O311 Cd310 2.240 1_556 S
O311 C316 1.279 . S
O312 Cd309 2.297 . S
O312 C314 1.247 . S
O313 Cd309 2.439 . S
O313 C314 1.208 . S
C314 O312 1.247 . S
C314 O313 1.208 . S
C315 O320 1.247 . S
C315 O321 1.208 . S
C316 O308 1.315 . S
C316 O311 1.279 . S
C317 O318 1.315 . S
C317 O319 1.279 . S
O318 Cd310 2.223 . S
O318 C317 1.315 . S
O319 Cd309 2.240 1_554 S
O319 C317 1.279 . S
O320 Cd310 2.297 . S
O320 C315 1.247 . S
O321 Cd310 2.439 . S
O321 C315 1.208 . S
O322 Cd323 2.223 . S
O322 C330 1.315 . S
Cd323 O322 2.223 . S
Cd323 O326 2.297 . S
Cd323 O327 2.439 . S
Cd323 O333 2.240 . S
Cd324 O325 2.240 . S
Cd324 O332 2.223 . S
Cd324 O334 2.297 . S
Cd324 O335 2.439 . S
O325 Cd324 2.240 . S
O325 C330 1.279 . S
O326 Cd323 2.297 . S
O326 C328 1.247 . S
O327 Cd323 2.439 . S
O327 C328 1.208 . S
C328 O326 1.247 . S
C328 O327 1.208 . S
C329 O334 1.247 . S
C329 O335 1.208 . S
C330 O322 1.315 . S
C330 O325 1.279 . S
C331 O332 1.315 . S
C331 O333 1.279 . S
O332 Cd324 2.223 . S
O332 C331 1.315 . S
O333 Cd323 2.240 . S
O333 C331 1.279 . S
O334 Cd324 2.297 . S
O334 C329 1.247 . S
O335 Cd324 2.439 . S
O335 C329 1.208 . S
C336 C337 1.349 . S
C336 C338 1.327 . S
C336 H361 0.950 . S
C337 C336 1.349 . S
C337 C353 1.349 . S
C338 C336 1.327 . S
C338 C357 1.429 . S
C338 H362 0.950 . S
C339 C356 1.574 . S
C339 C358 1.368 . S
C339 H363 0.949 . S
H340 C344 0.949 . S
C341 C342 1.349 . S
C341 C343 1.327 . S
C341 H364 0.950 . S
C342 C341 1.349 . S
C342 C354 1.349 . S
C343 C341 1.327 . S
C343 C359 1.429 . S
C343 H365 0.950 . S
C344 H340 0.949 . S
C344 C352 1.574 . S
C344 C360 1.368 . S
H345 C353 0.950 . S
H346 C351 0.950 . S
H347 C352 0.949 . S
H348 C354 0.950 . S
H349 C355 0.950 . S
H350 C356 0.949 . S
C351 H346 0.950 . S
C351 C353 1.327 . S
C351 C357 1.429 . S
C352 C344 1.574 . S
C352 H347 0.949 . S
C352 C358 1.368 . S
C353 C337 1.349 . S
C353 H345 0.950 . S
C353 C351 1.327 . S
C354 C342 1.349 . S
C354 H348 0.950 . S
C354 C355 1.327 . S
C355 H349 0.950 . S
C355 C354 1.327 . S
C355 C359 1.429 . S
C356 C339 1.574 . S
C356 H350 0.949 . S
C356 C360 1.368 . S
C357 C338 1.429 . S
C357 C351 1.429 . S
C357 C358 1.523 . S
C358 C339 1.368 . S
C358 C352 1.368 . S
C358 C357 1.523 . S
C359 C343 1.429 . S
C359 C355 1.429 . S
C359 C360 1.523 . S
C360 C344 1.368 . S
C360 C356 1.368 . S
C360 C359 1.523 . S
H361 C336 0.950 . S
H362 C338 0.950 . S
H363 C339 0.949 . S
H364 C341 0.950 . S
H365 C343 0.950 . S
C366 C367 1.349 1_455 S
C366 C368 1.334 . S
C366 H391 0.950 . S
C367 C366 1.349 1_655 S
C367 C383 1.349 . S
C368 C366 1.334 . S
C368 C387 1.411 1_455 S
C368 H392 0.965 . S
C369 C386 1.574 . S
C369 C388 1.368 . S
C369 H393 0.949 . S
H370 C374 0.949 . S
C371 C372 1.349 . S
C371 C373 1.327 . S
C371 H394 0.950 . S
C372 C371 1.349 . S
C372 C384 1.349 . S
C373 C371 1.327 . S
C373 C389 1.429 . S
C373 H395 0.950 . S
C374 H370 0.949 . S
C374 C382 1.574 . S
C374 C390 1.368 . S
H375 C383 0.950 . S
H376 C381 0.950 . S
H377 C382 0.949 1_455 S
H378 C384 0.950 . S
H379 C385 0.950 . S
H380 C386 0.949 . S
C381 H376 0.950 . S
C381 C383 1.327 . S
C381 C387 1.429 . S
C382 C374 1.574 . S
C382 H377 0.949 1_655 S
C382 C388 1.368 . S
C383 C367 1.349 . S
C383 H375 0.950 . S
C383 C381 1.327 . S
C384 C372 1.349 . S
C384 H378 0.950 . S
C384 C385 1.327 . S
C385 H379 0.950 . S
C385 C384 1.327 . S
C385 C389 1.429 . S
C386 C369 1.574 . S
C386 H380 0.949 . S
C386 C390 1.368 . S
C387 C368 1.411 1_655 S
C387 C381 1.429 . S
C387 C388 1.523 . S
C388 C369 1.368 . S
C388 C382 1.368 . S
C388 C387 1.523 . S
C389 C373 1.429 . S
C389 C385 1.429 . S
C389 C390 1.523 . S
C390 C374 1.368 . S
C390 C386 1.368 . S
C390 C389 1.523 . S
H391 C366 0.950 . S
H392 C368 0.965 . S
H393 C369 0.949 . S
H394 C371 0.950 . S
H395 C373 0.950 . S
C396 C397 1.349 . S
C396 C398 1.327 . S
C396 H421 0.950 . S
C397 C396 1.349 . S
C397 C413 1.349 . S
C398 C396 1.327 . S
C398 C417 1.429 . S
C398 H422 0.950 . S
C399 C416 1.574 . S
C399 C418 1.368 . S
C399 H423 0.949 . S
H400 C404 0.949 . S
C401 C402 1.349 . S
C401 C403 1.327 . S
C401 H424 0.950 . S
C402 C401 1.349 . S
C402 C414 1.349 . S
C403 C401 1.327 . S
C403 C419 1.429 . S
C403 H425 0.950 . S
C404 H400 0.949 . S
C404 C412 1.574 . S
C404 C420 1.368 . S
H405 C413 0.950 . S
H406 C411 0.950 . S
H407 C412 0.949 . S
H408 C414 0.950 . S
H409 C415 0.950 . S
H410 C416 0.949 . S
C411 H406 0.950 . S
C411 C413 1.327 . S
C411 C417 1.429 . S
C412 C404 1.574 . S
C412 H407 0.949 . S
C412 C418 1.368 . S
C413 C397 1.349 . S
C413 H405 0.950 . S
C413 C411 1.327 . S
C414 C402 1.349 . S
C414 H408 0.950 . S
C414 C415 1.327 . S
C415 H409 0.950 . S
C415 C414 1.327 . S
C415 C419 1.429 . S
C416 C399 1.574 . S
C416 H410 0.949 . S
C416 C420 1.368 . S
C417 C398 1.429 . S
C417 C411 1.429 . S
C417 C418 1.523 . S
C418 C399 1.368 . S
C418 C412 1.368 . S
C418 C417 1.523 . S
C419 C403 1.429 . S
C419 C415 1.429 . S
C419 C420 1.523 . S
C420 C404 1.368 . S
C420 C416 1.368 . S
C420 C419 1.523 . S
H421 C396 0.950 . S
H422 C398 0.950 . S
H423 C399 0.949 . S
H424 C401 0.950 . S
H425 C403 0.950 . S
C426 C427 1.349 . S
C426 C428 1.327 . S
C426 H451 0.950 . S
C427 C426 1.349 . S
C427 C443 1.349 . S
C428 C426 1.327 . S
C428 C447 1.429 . S
C428 H452 0.950 . S
C429 C446 1.574 . S
C429 C448 1.368 . S
C429 H453 0.949 . S
H430 C434 0.949 . S
C431 C432 1.349 . S
C431 C433 1.327 . S
C431 H454 0.950 . S
C432 C431 1.349 . S
C432 C444 1.349 . S
C433 C431 1.327 . S
C433 C449 1.429 . S
C433 H455 0.950 . S
C434 H430 0.949 . S
C434 C442 1.574 . S
C434 C450 1.368 . S
H435 C443 0.950 . S
H436 C441 0.950 . S
H437 C442 0.949 . S
H438 C444 0.950 . S
H439 C445 0.950 . S
H440 C446 0.949 . S
C441 H436 0.950 . S
C441 C443 1.327 . S
C441 C447 1.429 . S
C442 C434 1.574 . S
C442 H437 0.949 . S
C442 C448 1.368 . S
C443 C427 1.349 . S
C443 H435 0.950 . S
C443 C441 1.327 . S
C444 C432 1.349 . S
C444 H438 0.950 . S
C444 C445 1.327 . S
C445 H439 0.950 . S
C445 C444 1.327 . S
C445 C449 1.429 . S
C446 C429 1.574 . S
C446 H440 0.949 . S
C446 C450 1.368 . S
C447 C428 1.429 . S
C447 C441 1.429 . S
C447 C448 1.523 . S
C448 C429 1.368 . S
C448 C442 1.368 . S
C448 C447 1.523 . S
C449 C433 1.429 . S
C449 C445 1.429 . S
C449 C450 1.523 . S
C450 C434 1.368 . S
C450 C446 1.368 . S
C450 C449 1.523 . S
H451 C426 0.950 . S
H452 C428 0.950 . S
H453 C429 0.949 . S
H454 C431 0.950 . S
H455 C433 0.950 . S
C456 C457 1.349 . S
C456 C458 1.327 . S
C456 H481 0.950 . S
C457 C456 1.349 . S
C457 C473 1.349 . S
C458 C456 1.327 . S
C458 C477 1.429 . S
C458 H482 0.950 . S
C459 C476 1.574 . S
C459 C478 1.368 . S
C459 H483 0.949 . S
H460 C464 0.949 . S
C461 C462 1.349 . S
C461 C463 1.327 . S
C461 H484 0.950 . S
C462 C461 1.349 . S
C462 C474 1.349 . S
C463 C461 1.327 . S
C463 C479 1.429 . S
C463 H485 0.950 . S
C464 H460 0.949 . S
C464 C472 1.574 . S
C464 C480 1.368 . S
H465 C473 0.950 . S
H466 C471 0.950 . S
H467 C472 0.949 . S
H468 C474 0.950 . S
H469 C475 0.950 . S
H470 C476 0.949 . S
C471 H466 0.950 . S
C471 C473 1.327 . S
C471 C477 1.429 . S
C472 C464 1.574 . S
C472 H467 0.949 . S
C472 C478 1.368 . S
C473 C457 1.349 . S
C473 H465 0.950 . S
C473 C471 1.327 . S
C474 C462 1.349 . S
C474 H468 0.950 . S
C474 C475 1.327 . S
C475 H469 0.950 . S
C475 C474 1.327 . S
C475 C479 1.429 . S
C476 C459 1.574 . S
C476 H470 0.949 . S
C476 C480 1.368 . S
C477 C458 1.429 . S
C477 C471 1.429 . S
C477 C478 1.523 . S
C478 C459 1.368 . S
C478 C472 1.368 . S
C478 C477 1.523 . S
C479 C463 1.429 . S
C479 C475 1.429 . S
C479 C480 1.523 . S
C480 C464 1.368 . S
C480 C476 1.368 . S
C480 C479 1.523 . S
H481 C456 0.950 . S
H482 C458 0.950 . S
H483 C459 0.949 . S
H484 C461 0.950 . S
H485 C463 0.950 . S
C486 C487 1.349 . S
C486 C488 1.327 . S
C486 H511 0.950 . S
C487 C486 1.349 . S
C487 C503 1.349 . S
C488 C486 1.327 . S
C488 C507 1.429 . S
C488 H512 0.950 . S
C489 C506 1.574 . S
C489 C508 1.368 . S
C489 H513 0.949 . S
H490 C494 0.949 . S
C491 C492 1.349 . S
C491 C493 1.327 . S
C491 H514 0.950 . S
C492 C491 1.349 . S
C492 C504 1.349 . S
C493 C491 1.327 . S
C493 C509 1.429 . S
C493 H515 0.950 . S
C494 H490 0.949 . S
C494 C502 1.574 . S
C494 C510 1.368 . S
H495 C503 0.950 . S
H496 C501 0.950 . S
H497 C502 0.949 . S
H498 C504 0.950 . S
H499 C505 0.950 . S
H500 C506 0.949 . S
C501 H496 0.950 . S
C501 C503 1.327 . S
C501 C507 1.429 . S
C502 C494 1.574 . S
C502 H497 0.949 . S
C502 C508 1.368 . S
C503 C487 1.349 . S
C503 H495 0.950 . S
C503 C501 1.327 . S
C504 C492 1.349 . S
C504 H498 0.950 . S
C504 C505 1.327 . S
C505 H499 0.950 . S
C505 C504 1.327 . S
C505 C509 1.429 . S
C506 C489 1.574 . S
C506 H500 0.949 . S
C506 C510 1.368 . S
C507 C488 1.429 . S
C507 C501 1.429 . S
C507 C508 1.523 . S
C508 C489 1.368 . S
C508 C502 1.368 . S
C508 C507 1.523 . S
C509 C493 1.429 . S
C509 C505 1.429 . S
C509 C510 1.523 . S
C510 C494 1.368 . S
C510 C506 1.368 . S
C510 C509 1.523 . S
H511 C486 0.950 . S
H512 C488 0.950 . S
H513 C489 0.949 . S
H514 C491 0.950 . S
H515 C493 0.950 . S
C516 C517 1.349 . S
C516 C518 1.327 . S
C516 H541 0.950 . S
C517 C516 1.349 . S
C517 C533 1.349 . S
C518 C516 1.327 . S
C518 C537 1.429 . S
C518 H542 0.950 . S
C519 C536 1.574 . S
C519 C538 1.368 . S
C519 H543 0.949 . S
H520 C524 0.949 . S
C521 C522 1.349 . S
C521 C523 1.327 . S
C521 H544 0.950 . S
C522 C521 1.349 . S
C522 C534 1.349 . S
C523 C521 1.327 . S
C523 C539 1.429 . S
C523 H545 0.950 . S
C524 H520 0.949 . S
C524 C532 1.574 . S
C524 C540 1.368 . S
H525 C533 0.950 . S
H526 C531 0.950 . S
H527 C532 0.949 . S
H528 C534 0.950 . S
H529 C535 0.950 . S
H530 C536 0.949 . S
C531 H526 0.950 . S
C531 C533 1.327 . S
C531 C537 1.429 . S
C532 C524 1.574 . S
C532 H527 0.949 . S
C532 C538 1.368 . S
C533 C517 1.349 . S
C533 H525 0.950 . S
C533 C531 1.327 . S
C534 C522 1.349 . S
C534 H528 0.950 . S
C534 C535 1.327 . S
C535 H529 0.950 . S
C535 C534 1.327 . S
C535 C539 1.429 . S
C536 C519 1.574 . S
C536 H530 0.949 . S
C536 C540 1.368 . S
C537 C518 1.429 . S
C537 C531 1.429 . S
C537 C538 1.523 . S
C538 C519 1.368 . S
C538 C532 1.368 . S
C538 C537 1.523 . S
C539 C523 1.429 . S
C539 C535 1.429 . S
C539 C540 1.523 . S
C540 C524 1.368 . S
C540 C536 1.368 . S
C540 C539 1.523 . S
H541 C516 0.950 . S
H542 C518 0.950 . S
H543 C519 0.949 . S
H544 C521 0.950 . S
H545 C523 0.950 . S
C546 C547 1.351 . S
C546 C548 1.327 . S
C546 H571 0.950 . S
C547 C546 1.351 . S
C547 C563 1.347 1_554 S
C548 C546 1.327 . S
C548 C567 1.429 . S
C548 H572 0.950 . S
C549 C566 1.574 . S
C549 C568 1.368 . S
C549 H573 0.949 1_554 S
H550 C554 0.949 . S
C551 C552 1.349 . S
C551 C553 1.327 . S
C551 H574 0.950 . S
C552 C551 1.349 . S
C552 C564 1.349 . S
C553 C551 1.327 . S
C553 C569 1.429 . S
C553 H575 0.950 . S
C554 H550 0.949 . S
C554 C562 1.574 . S
C554 C570 1.368 . S
H555 C563 0.950 . S
H556 C561 0.950 . S
H557 C562 0.949 . S
H558 C564 0.950 . S
H559 C565 0.950 . S
H560 C566 0.959 . S
C561 H556 0.950 . S
C561 C563 1.327 . S
C561 C567 1.429 1_556 S
C562 C554 1.574 . S
C562 H557 0.949 . S
C562 C568 1.368 . S
C563 C547 1.347 1_556 S
C563 H555 0.950 . S
C563 C561 1.327 . S
C564 C552 1.349 . S
C564 H558 0.950 . S
C564 C565 1.327 . S
C565 H559 0.950 . S
C565 C564 1.327 . S
C565 C569 1.429 . S
C566 C549 1.574 . S
C566 H560 0.959 . S
C566 C570 1.368 . S
C567 C548 1.429 . S
C567 C561 1.429 1_554 S
C567 C568 1.523 . S
C568 C549 1.368 . S
C568 C562 1.368 . S
C568 C567 1.523 . S
C569 C553 1.429 . S
C569 C565 1.429 . S
C569 C570 1.523 . S
C570 C554 1.368 . S
C570 C566 1.368 . S
C570 C569 1.523 . S
H571 C546 0.950 . S
H572 C548 0.950 . S
H573 C549 0.949 1_556 S
H574 C551 0.950 . S
H575 C553 0.950 . S
C576 C577 1.345 1_565 S
C576 C578 1.327 . S
C576 H601 0.950 . S
C577 C576 1.345 1_545 S
C577 C593 1.353 . S
C578 C576 1.327 . S
C578 C597 1.429 1_565 S
C578 H602 0.950 . S
C579 C596 1.574 . S
C579 C598 1.368 . S
C579 H603 0.949 . S
H580 C584 0.949 . S
C581 C582 1.349 . S
C581 C583 1.327 . S
C581 H604 0.950 . S
C582 C581 1.349 . S
C582 C594 1.349 . S
C583 C581 1.327 . S
C583 C599 1.429 . S
C583 H605 0.950 . S
C584 H580 0.949 . S
C584 C592 1.574 . S
C584 C600 1.368 1_565 S
H585 C593 0.950 . S
H586 C591 0.950 . S
H587 C592 0.949 . S
H588 C594 0.950 1_565 S
H589 C595 0.947 1_565 S
H590 C596 0.949 . S
C591 H586 0.950 . S
C591 C593 1.327 . S
C591 C597 1.429 . S
C592 C584 1.574 . S
C592 H587 0.949 . S
C592 C598 1.368 1_565 S
C593 C577 1.353 . S
C593 H585 0.950 . S
C593 C591 1.327 . S
C594 C582 1.349 . S
C594 H588 0.950 1_545 S
C594 C595 1.328 . S
C595 H589 0.947 1_545 S
C595 C594 1.328 . S
C595 C599 1.431 . S
C596 C579 1.574 . S
C596 H590 0.949 . S
C596 C600 1.368 . S
C597 C578 1.429 1_545 S
C597 C591 1.429 . S
C597 C598 1.523 . S
C598 C579 1.368 . S
C598 C592 1.368 1_545 S
C598 C597 1.523 . S
C599 C583 1.429 . S
C599 C595 1.431 . S
C599 C600 1.523 . S
C600 C584 1.368 1_545 S
C600 C596 1.368 . S
C600 C599 1.523 . S
H601 C576 0.950 . S
H602 C578 0.950 . S
H603 C579 0.949 . S
H604 C581 0.950 . S
H605 C583 0.950 . S
C606 C607 1.349 . S
C606 C608 1.327 . S
C606 H631 0.950 . S
C607 C606 1.349 . S
C607 C623 1.349 . S
C608 C606 1.327 . S
C608 C627 1.429 . S
C608 H632 0.950 . S
C609 C626 1.574 . S
C609 C628 1.368 . S
C609 H633 0.949 . S
H610 C614 0.949 . S
C611 C612 1.349 . S
C611 C613 1.327 . S
C611 H634 0.950 . S
C612 C611 1.349 . S
C612 C624 1.349 . S
C613 C611 1.327 . S
C613 C629 1.429 . S
C613 H635 0.950 . S
C614 H610 0.949 . S
C614 C622 1.574 . S
C614 C630 1.368 . S
H615 C623 0.950 . S
H616 C621 0.950 . S
H617 C622 0.949 . S
H618 C624 0.950 . S
H619 C625 0.950 . S
H620 C626 0.949 . S
C621 H616 0.950 . S
C621 C623 1.327 . S
C621 C627 1.429 . S
C622 C614 1.574 . S
C622 H617 0.949 . S
C622 C628 1.368 . S
C623 C607 1.349 . S
C623 H615 0.950 . S
C623 C621 1.327 . S
C624 C612 1.349 . S
C624 H618 0.950 . S
C624 C625 1.327 . S
C625 H619 0.950 . S
C625 C624 1.327 . S
C625 C629 1.429 . S
C626 C609 1.574 . S
C626 H620 0.949 . S
C626 C630 1.368 . S
C627 C608 1.429 . S
C627 C621 1.429 . S
C627 C628 1.523 . S
C628 C609 1.368 . S
C628 C622 1.368 . S
C628 C627 1.523 . S
C629 C613 1.429 . S
C629 C625 1.429 . S
C629 C630 1.523 . S
C630 C614 1.368 . S
C630 C626 1.368 . S
C630 C629 1.523 . S
H631 C606 0.950 . S
H632 C608 0.950 . S
H633 C609 0.949 . S
H634 C611 0.950 . S
H635 C613 0.950 . S
C636 C637 1.349 . S
C636 C638 1.327 . S
C636 H661 0.950 1_565 S
C637 C636 1.349 . S
C637 C653 1.349 . S
C638 C636 1.327 . S
C638 C657 1.429 . S
C638 H662 0.950 1_565 S
C639 C656 1.574 . S
C639 C658 1.368 . S
C639 H663 0.949 . S
H640 C644 0.949 . S
C641 C642 1.349 . S
C641 C643 1.327 . S
C641 H664 0.950 . S
C642 C641 1.349 . S
C642 C654 1.349 1_565 S
C643 C641 1.327 . S
C643 C659 1.429 . S
C643 H665 0.950 . S
C644 H640 0.949 . S
C644 C652 1.574 . S
C644 C660 1.368 1_545 S
H645 C653 0.950 . S
H646 C651 0.950 . S
H647 C652 0.949 . S
H648 C654 0.950 . S
H649 C655 0.950 . S
H650 C656 0.949 . S
C651 H646 0.950 . S
C651 C653 1.327 . S
C651 C657 1.429 . S
C652 C644 1.574 . S
C652 H647 0.949 . S
C652 C658 1.368 1_545 S
C653 C637 1.349 . S
C653 H645 0.950 . S
C653 C651 1.327 . S
C654 C642 1.349 1_545 S
C654 H648 0.950 . S
C654 C655 1.327 . S
C655 H649 0.950 . S
C655 C654 1.327 . S
C655 C659 1.429 1_545 S
C656 C639 1.574 . S
C656 H650 0.949 . S
C656 C660 1.368 . S
C657 C638 1.429 . S
C657 C651 1.429 . S
C657 C658 1.523 . S
C658 C639 1.368 . S
C658 C652 1.368 1_565 S
C658 C657 1.523 . S
C659 C643 1.429 . S
C659 C655 1.429 1_565 S
C659 C660 1.523 . S
C660 C644 1.368 1_565 S
C660 C656 1.368 . S
C660 C659 1.523 . S
H661 C636 0.950 1_545 S
H662 C638 0.950 1_545 S
H663 C639 0.949 . S
H664 C641 0.950 . S
H665 C643 0.950 . S
C666 C667 1.349 . S
C666 C668 1.327 . S
C666 H691 0.950 . S
C667 C666 1.349 . S
C667 C683 1.349 . S
C668 C666 1.327 . S
C668 C687 1.429 . S
C668 H692 0.950 . S
C669 C686 1.574 . S
C669 C688 1.368 . S
C669 H693 0.949 . S
H670 C674 0.949 . S
C671 C672 1.349 . S
C671 C673 1.327 . S
C671 H694 0.950 . S
C672 C671 1.349 . S
C672 C684 1.349 . S
C673 C671 1.327 . S
C673 C689 1.429 . S
C673 H695 0.950 . S
C674 H670 0.949 . S
C674 C682 1.574 . S
C674 C690 1.368 . S
H675 C683 0.950 . S
H676 C681 0.950 . S
H677 C682 0.949 . S
H678 C684 0.950 . S
H679 C685 0.950 . S
H680 C686 0.949 . S
C681 H676 0.950 . S
C681 C683 1.327 . S
C681 C687 1.429 . S
C682 C674 1.574 . S
C682 H677 0.949 . S
C682 C688 1.368 . S
C683 C667 1.349 . S
C683 H675 0.950 . S
C683 C681 1.327 . S
C684 C672 1.349 . S
C684 H678 0.950 . S
C684 C685 1.327 . S
C685 H679 0.950 . S
C685 C684 1.327 . S
C685 C689 1.429 . S
C686 C669 1.574 . S
C686 H680 0.949 . S
C686 C690 1.368 . S
C687 C668 1.429 . S
C687 C681 1.429 . S
C687 C688 1.523 . S
C688 C669 1.368 . S
C688 C682 1.368 . S
C688 C687 1.523 . S
C689 C673 1.429 . S
C689 C685 1.429 . S
C689 C690 1.523 . S
C690 C674 1.368 . S
C690 C686 1.368 . S
C690 C689 1.523 . S
H691 C666 0.950 . S
H692 C668 0.950 . S
H693 C669 0.949 . S
H694 C671 0.950 . S
H695 C673 0.950 . S
C696 C697 1.349 . S
C696 C698 1.327 . S
C696 H721 0.950 . S
C697 C696 1.349 . S
C697 C713 1.349 . S
C698 C696 1.327 . S
C698 C717 1.429 . S
C698 H722 0.950 . S
C699 C716 1.574 . S
C699 C718 1.368 . S
C699 H723 0.949 . S
H700 C704 0.949 . S
C701 C702 1.349 . S
C701 C703 1.327 . S
C701 H724 0.950 . S
C702 C701 1.349 . S
C702 C714 1.349 . S
C703 C701 1.327 . S
C703 C719 1.429 . S
C703 H725 0.950 . S
C704 H700 0.949 . S
C704 C712 1.574 . S
C704 C720 1.368 . S
H705 C713 0.950 . S
H706 C711 0.950 . S
H707 C712 0.949 . S
H708 C714 0.950 . S
H709 C715 0.950 . S
H710 C716 0.949 . S
C711 H706 0.950 . S
C711 C713 1.327 . S
C711 C717 1.429 . S
C712 C704 1.574 . S
C712 H707 0.949 . S
C712 C718 1.368 . S
C713 C697 1.349 . S
C713 H705 0.950 . S
C713 C711 1.327 . S
C714 C702 1.349 . S
C714 H708 0.950 . S
C714 C715 1.327 . S
C715 H709 0.950 . S
C715 C714 1.327 . S
C715 C719 1.429 . S
C716 C699 1.574 . S
C716 H710 0.949 . S
C716 C720 1.368 . S
C717 C698 1.429 . S
C717 C711 1.429 . S
C717 C718 1.523 . S
C718 C699 1.368 . S
C718 C712 1.368 . S
C718 C717 1.523 . S
C719 C703 1.429 . S
C719 C715 1.429 . S
C719 C720 1.523 . S
C720 C704 1.368 . S
C720 C716 1.368 . S
C720 C719 1.523 . S
H721 C696 0.950 . S
H722 C698 0.950 . S
H723 C699 0.949 . S
H724 C701 0.950 . S
H725 C703 0.950 . S
C726 C727 1.349 . S
C726 C728 1.327 . S
C726 H751 0.950 . S
C727 C726 1.349 . S
C727 C743 1.349 . S
C728 C726 1.327 . S
C728 C747 1.429 . S
C728 H752 0.950 . S
C729 C746 1.574 . S
C729 C748 1.368 . S
C729 H753 0.949 . S
H730 C734 0.949 . S
C731 C732 1.349 . S
C731 C733 1.327 . S
C731 H754 0.950 . S
C732 C731 1.349 . S
C732 C744 1.349 . S
C733 C731 1.327 . S
C733 C749 1.429 . S
C733 H755 0.950 . S
C734 H730 0.949 . S
C734 C742 1.574 . S
C734 C750 1.368 . S
H735 C743 0.950 . S
H736 C741 0.950 . S
H737 C742 0.949 . S
H738 C744 0.950 . S
H739 C745 0.950 . S
H740 C746 0.949 . S
C741 H736 0.950 . S
C741 C743 1.327 . S
C741 C747 1.429 . S
C742 C734 1.574 . S
C742 H737 0.949 . S
C742 C748 1.368 . S
C743 C727 1.349 . S
C743 H735 0.950 . S
C743 C741 1.327 . S
C744 C732 1.349 . S
C744 H738 0.950 . S
C744 C745 1.327 . S
C745 H739 0.950 . S
C745 C744 1.327 . S
C745 C749 1.429 . S
C746 C729 1.574 . S
C746 H740 0.949 . S
C746 C750 1.368 . S
C747 C728 1.429 . S
C747 C741 1.429 . S
C747 C748 1.523 . S
C748 C729 1.368 . S
C748 C742 1.368 . S
C748 C747 1.523 . S
C749 C733 1.429 . S
C749 C745 1.429 . S
C749 C750 1.523 . S
C750 C734 1.368 . S
C750 C746 1.368 . S
C750 C749 1.523 . S
H751 C726 0.950 . S
H752 C728 0.950 . S
H753 C729 0.949 . S
H754 C731 0.950 . S
H755 C733 0.950 . S
C756 C757 1.349 . S
C756 C758 1.327 . S
C756 H781 0.950 . S
C757 C756 1.349 . S
C757 C773 1.349 . S
C758 C756 1.327 . S
C758 C777 1.429 . S
C758 H782 0.950 . S
C759 C776 1.574 . S
C759 C778 1.368 . S
C759 H783 0.949 . S
H760 C764 0.949 . S
C761 C762 1.349 . S
C761 C763 1.327 . S
C761 H784 0.950 . S
C762 C761 1.349 . S
C762 C774 1.349 . S
C763 C761 1.327 . S
C763 C779 1.429 . S
C763 H785 0.950 . S
C764 H760 0.949 . S
C764 C772 1.574 . S
C764 C780 1.368 . S
H765 C773 0.950 . S
H766 C771 0.950 . S
H767 C772 0.949 . S
H768 C774 0.950 . S
H769 C775 0.950 . S
H770 C776 0.949 . S
C771 H766 0.950 . S
C771 C773 1.327 . S
C771 C777 1.429 . S
C772 C764 1.574 . S
C772 H767 0.949 . S
C772 C778 1.368 . S
C773 C757 1.349 . S
C773 H765 0.950 . S
C773 C771 1.327 . S
C774 C762 1.349 . S
C774 H768 0.950 . S
C774 C775 1.327 . S
C775 H769 0.950 . S
C775 C774 1.327 . S
C775 C779 1.429 . S
C776 C759 1.574 . S
C776 H770 0.949 . S
C776 C780 1.368 . S
C777 C758 1.429 . S
C777 C771 1.429 . S
C777 C778 1.523 . S
C778 C759 1.368 . S
C778 C772 1.368 . S
C778 C777 1.523 . S
C779 C763 1.429 . S
C779 C775 1.429 . S
C779 C780 1.523 . S
C780 C764 1.368 . S
C780 C776 1.368 . S
C780 C779 1.523 . S
H781 C756 0.950 . S
H782 C758 0.950 . S
H783 C759 0.949 . S
H784 C761 0.950 . S
H785 C763 0.950 . S
C786 C787 1.349 . S
C786 C788 1.327 . S
C786 H811 0.950 . S
C787 C786 1.349 . S
C787 C803 1.349 . S
C788 C786 1.327 . S
C788 C807 1.429 . S
C788 H812 0.950 . S
C789 C806 1.574 . S
C789 C808 1.368 . S
C789 H813 0.949 . S
H790 C794 0.949 . S
C791 C792 1.349 . S
C791 C793 1.327 . S
C791 H814 0.950 . S
C792 C791 1.349 . S
C792 C804 1.349 . S
C793 C791 1.327 . S
C793 C809 1.429 . S
C793 H815 0.950 . S
C794 H790 0.949 . S
C794 C802 1.574 . S
C794 C810 1.368 . S
H795 C803 0.950 . S
H796 C801 0.950 . S
H797 C802 0.949 . S
H798 C804 0.950 . S
H799 C805 0.950 . S
H800 C806 0.949 . S
C801 H796 0.950 . S
C801 C803 1.327 . S
C801 C807 1.429 . S
C802 C794 1.574 . S
C802 H797 0.949 . S
C802 C808 1.368 . S
C803 C787 1.349 . S
C803 H795 0.950 . S
C803 C801 1.327 . S
C804 C792 1.349 . S
C804 H798 0.950 . S
C804 C805 1.327 . S
C805 H799 0.950 . S
C805 C804 1.327 . S
C805 C809 1.429 . S
C806 C789 1.574 . S
C806 H800 0.949 . S
C806 C810 1.368 . S
C807 C788 1.429 . S
C807 C801 1.429 . S
C807 C808 1.523 . S
C808 C789 1.368 . S
C808 C802 1.368 . S
C808 C807 1.523 . S
C809 C793 1.429 . S
C809 C805 1.429 . S
C809 C810 1.523 . S
C810 C794 1.368 . S
C810 C806 1.368 . S
C810 C809 1.523 . S
H811 C786 0.950 . S
H812 C788 0.950 . S
H813 C789 0.949 . S
H814 C791 0.950 . S
H815 C793 0.950 . S
C816 C817 1.349 . S
C816 C818 1.327 . S
C816 H841 0.950 . S
C817 C816 1.349 . S
C817 C833 1.349 . S
C818 C816 1.327 . S
C818 C837 1.429 . S
C818 H842 0.950 . S
C819 C836 1.574 . S
C819 C838 1.368 . S
C819 H843 0.949 . S
H820 C824 0.949 . S
C821 C822 1.349 . S
C821 C823 1.327 . S
C821 H844 0.950 . S
C822 C821 1.349 . S
C822 C834 1.349 . S
C823 C821 1.327 . S
C823 C839 1.429 . S
C823 H845 0.950 . S
C824 H820 0.949 . S
C824 C832 1.574 . S
C824 C840 1.368 . S
H825 C833 0.950 . S
H826 C831 0.950 . S
H827 C832 0.949 . S
H828 C834 0.950 . S
H829 C835 0.950 . S
H830 C836 0.949 . S
C831 H826 0.950 . S
C831 C833 1.327 . S
C831 C837 1.429 . S
C832 C824 1.574 . S
C832 H827 0.949 . S
C832 C838 1.368 . S
C833 C817 1.349 . S
C833 H825 0.950 . S
C833 C831 1.327 . S
C834 C822 1.349 . S
C834 H828 0.950 . S
C834 C835 1.327 . S
C835 H829 0.950 . S
C835 C834 1.327 . S
C835 C839 1.429 . S
C836 C819 1.574 . S
C836 H830 0.949 . S
C836 C840 1.368 . S
C837 C818 1.429 . S
C837 C831 1.429 . S
C837 C838 1.523 . S
C838 C819 1.368 . S
C838 C832 1.368 . S
C838 C837 1.523 . S
C839 C823 1.429 . S
C839 C835 1.429 . S
C839 C840 1.523 . S
C840 C824 1.368 . S
C840 C836 1.368 . S
C840 C839 1.523 . S
H841 C816 0.950 . S
H842 C818 0.950 . S
H843 C819 0.949 . S
H844 C821 0.950 . S
H845 C823 0.950 . S
C846 C847 1.349 . S
C846 C848 1.327 . S
C846 H871 0.950 . S
C847 C846 1.349 . S
C847 C863 1.349 . S
C848 C846 1.327 . S
C848 C867 1.429 . S
C848 H872 0.950 . S
C849 C866 1.574 . S
C849 C868 1.368 . S
C849 H873 0.949 . S
H850 C854 0.949 . S
C851 C852 1.349 . S
C851 C853 1.327 . S
C851 H874 0.950 . S
C852 C851 1.349 . S
C852 C864 1.349 . S
C853 C851 1.327 . S
C853 C869 1.429 . S
C853 H875 0.950 . S
C854 H850 0.949 . S
C854 C862 1.574 . S
C854 C870 1.368 . S
H855 C863 0.950 . S
H856 C861 0.950 . S
H857 C862 0.949 . S
H858 C864 0.950 . S
H859 C865 0.950 . S
H860 C866 0.949 . S
C861 H856 0.950 . S
C861 C863 1.327 . S
C861 C867 1.429 . S
C862 C854 1.574 . S
C862 H857 0.949 . S
C862 C868 1.368 . S
C863 C847 1.349 . S
C863 H855 0.950 . S
C863 C861 1.327 . S
C864 C852 1.349 . S
C864 H858 0.950 . S
C864 C865 1.327 . S
C865 H859 0.950 . S
C865 C864 1.327 . S
C865 C869 1.429 . S
C866 C849 1.574 . S
C866 H860 0.949 . S
C866 C870 1.368 . S
C867 C848 1.429 . S
C867 C861 1.429 . S
C867 C868 1.523 . S
C868 C849 1.368 . S
C868 C862 1.368 . S
C868 C867 1.523 . S
C869 C853 1.429 . S
C869 C865 1.429 . S
C869 C870 1.523 . S
C870 C854 1.368 . S
C870 C866 1.368 . S
C870 C869 1.523 . S
H871 C846 0.950 . S
H872 C848 0.950 . S
H873 C849 0.949 . S
H874 C851 0.950 . S
H875 C853 0.950 . S
C876 C877 1.349 . S
C876 C878 1.327 . S
C876 H901 0.950 . S
C877 C876 1.349 . S
C877 C893 1.349 . S
C878 C876 1.327 . S
C878 C897 1.429 . S
C878 H902 0.950 . S
C879 C896 1.574 . S
C879 C898 1.368 . S
C879 H903 0.949 . S
H880 C884 0.949 . S
C881 C882 1.349 . S
C881 C883 1.327 . S
C881 H904 0.950 . S
C882 C881 1.349 . S
C882 C894 1.349 . S
C883 C881 1.327 . S
C883 C899 1.429 . S
C883 H905 0.950 . S
C884 H880 0.949 . S
C884 C892 1.574 . S
C884 C900 1.368 . S
H885 C893 0.950 . S
H886 C891 0.950 . S
H887 C892 0.949 . S
H888 C894 0.950 . S
H889 C895 0.950 . S
H890 C896 0.949 . S
C891 H886 0.950 . S
C891 C893 1.327 . S
C891 C897 1.429 . S
C892 C884 1.574 . S
C892 H887 0.949 . S
C892 C898 1.368 . S
C893 C877 1.349 . S
C893 H885 0.950 . S
C893 C891 1.327 . S
C894 C882 1.349 . S
C894 H888 0.950 . S
C894 C895 1.327 . S
C895 H889 0.950 . S
C895 C894 1.327 . S
C895 C899 1.429 . S
C896 C879 1.574 . S
C896 H890 0.949 . S
C896 C900 1.368 . S
C897 C878 1.429 . S
C897 C891 1.429 . S
C897 C898 1.523 . S
C898 C879 1.368 . S
C898 C892 1.368 . S
C898 C897 1.523 . S
C899 C883 1.429 . S
C899 C895 1.429 . S
C899 C900 1.523 . S
C900 C884 1.368 . S
C900 C896 1.368 . S
C900 C899 1.523 . S
H901 C876 0.950 . S
H902 C878 0.950 . S
H903 C879 0.949 . S
H904 C881 0.950 . S
H905 C883 0.950 . S
C906 C907 1.349 . S
C906 C908 1.327 . S
C906 H931 0.934 1_455 S
C907 C906 1.349 . S
C907 C923 1.349 . S
C908 C906 1.327 . S
C908 C927 1.429 . S
C908 H932 0.950 1_455 S
C909 C926 1.574 . S
C909 C928 1.368 . S
C909 H933 0.949 . S
H910 C914 0.949 . S
C911 C912 1.352 . S
C911 C913 1.327 . S
C911 H934 0.950 . S
C912 C911 1.352 . S
C912 C924 1.346 1_455 S
C913 C911 1.327 . S
C913 C929 1.429 . S
C913 H935 0.950 . S
C914 H910 0.949 . S
C914 C922 1.574 . S
C914 C930 1.368 1_655 S
H915 C923 0.950 . S
H916 C921 0.950 . S
H917 C922 0.949 . S
H918 C924 0.950 . S
H919 C925 0.950 . S
H920 C926 0.949 . S
C921 H916 0.950 . S
C921 C923 1.327 . S
C921 C927 1.429 . S
C922 C914 1.574 . S
C922 H917 0.949 . S
C922 C928 1.368 1_655 S
C923 C907 1.349 . S
C923 H915 0.950 . S
C923 C921 1.327 . S
C924 C912 1.346 1_655 S
C924 H918 0.950 . S
C924 C925 1.327 . S
C925 H919 0.950 . S
C925 C924 1.327 . S
C925 C929 1.429 1_655 S
C926 C909 1.574 . S
C926 H920 0.949 . S
C926 C930 1.368 . S
C927 C908 1.429 . S
C927 C921 1.429 . S
C927 C928 1.523 . S
C928 C909 1.368 . S
C928 C922 1.368 1_455 S
C928 C927 1.523 . S
C929 C913 1.429 . S
C929 C925 1.429 1_455 S
C929 C930 1.523 . S
C930 C914 1.368 1_455 S
C930 C926 1.368 . S
C930 C929 1.523 . S
H931 C906 0.934 1_655 S
H932 C908 0.950 1_655 S
H933 C909 0.949 . S
H934 C911 0.950 . S
H935 C913 0.950 . S
C936 C937 1.349 . S
C936 C938 1.327 . S
C936 H961 0.950 . S
C937 C936 1.349 . S
C937 C953 1.349 . S
C938 C936 1.327 . S
C938 C957 1.429 . S
C938 H962 0.950 . S
C939 C956 1.574 . S
C939 C958 1.368 . S
C939 H963 0.949 . S
H940 C944 0.949 . S
C941 C942 1.349 . S
C941 C943 1.327 . S
C941 H964 0.950 . S
C942 C941 1.349 . S
C942 C954 1.349 . S
C943 C941 1.327 . S
C943 C959 1.429 . S
C943 H965 0.950 . S
C944 H940 0.949 . S
C944 C952 1.574 . S
C944 C960 1.368 . S
H945 C953 0.950 . S
H946 C951 0.950 . S
H947 C952 0.949 . S
H948 C954 0.950 . S
H949 C955 0.950 . S
H950 C956 0.949 . S
C951 H946 0.950 . S
C951 C953 1.327 . S
C951 C957 1.429 . S
C952 C944 1.574 . S
C952 H947 0.949 . S
C952 C958 1.368 . S
C953 C937 1.349 . S
C953 H945 0.950 . S
C953 C951 1.327 . S
C954 C942 1.349 . S
C954 H948 0.950 . S
C954 C955 1.327 . S
C955 H949 0.950 . S
C955 C954 1.327 . S
C955 C959 1.429 . S
C956 C939 1.574 . S
C956 H950 0.949 . S
C956 C960 1.368 . S
C957 C938 1.429 . S
C957 C951 1.429 . S
C957 C958 1.523 . S
C958 C939 1.368 . S
C958 C952 1.368 . S
C958 C957 1.523 . S
C959 C943 1.429 . S
C959 C955 1.429 . S
C959 C960 1.523 . S
C960 C944 1.368 . S
C960 C956 1.368 . S
C960 C959 1.523 . S
H961 C936 0.950 . S
H962 C938 0.950 . S
H963 C939 0.949 . S
H964 C941 0.950 . S
H965 C943 0.950 . S
C966 C967 1.349 . S
C966 C968 1.327 . S
C966 H991 0.950 . S
C967 C966 1.349 . S
C967 C983 1.349 . S
C968 C966 1.327 . S
C968 C987 1.429 . S
C968 H992 0.950 . S
C969 C986 1.574 . S
C969 C988 1.368 . S
C969 H993 0.949 . S
H970 C974 0.949 . S
C971 C972 1.349 . S
C971 C973 1.327 . S
C971 H994 0.950 . S
C972 C971 1.349 . S
C972 C984 1.349 . S
C973 C971 1.327 . S
C973 C989 1.429 . S
C973 H995 0.950 . S
C974 H970 0.949 . S
C974 C982 1.574 . S
C974 C990 1.368 . S
H975 C983 0.950 . S
H976 C981 0.950 . S
H977 C982 0.949 . S
H978 C984 0.950 . S
H979 C985 0.950 . S
H980 C986 0.949 . S
C981 H976 0.950 . S
C981 C983 1.327 . S
C981 C987 1.429 . S
C982 C974 1.574 . S
C982 H977 0.949 . S
C982 C988 1.368 . S
C983 C967 1.349 . S
C983 H975 0.950 . S
C983 C981 1.327 . S
C984 C972 1.349 . S
C984 H978 0.950 . S
C984 C985 1.327 . S
C985 H979 0.950 . S
C985 C984 1.327 . S
C985 C989 1.429 . S
C986 C969 1.574 . S
C986 H980 0.949 . S
C986 C990 1.368 . S
C987 C968 1.429 . S
C987 C981 1.429 . S
C987 C988 1.523 . S
C988 C969 1.368 . S
C988 C982 1.368 . S
C988 C987 1.523 . S
C989 C973 1.429 . S
C989 C985 1.429 . S
C989 C990 1.523 . S
C990 C974 1.368 . S
C990 C986 1.368 . S
C990 C989 1.523 . S
H991 C966 0.950 . S
H992 C968 0.950 . S
H993 C969 0.949 . S
H994 C971 0.950 . S
H995 C973 0.950 . S
C996 C997 1.349 . S
C996 C998 1.327 . S
C996 H1021 0.950 . S
C997 C996 1.349 . S
C997 C1013 1.349 . S
C998 C996 1.327 . S
C998 C1017 1.429 . S
C998 H1022 0.950 . S
C999 C1016 1.574 . S
C999 C1018 1.368 1_554 S
C999 H1023 0.949 . S
H1000 C1004 0.949 . S
C1001 C1002 1.349 1_554 S
C1001 C1003 1.327 . S
C1001 H1024 0.950 . S
C1002 C1001 1.349 1_556 S
C1002 C1014 1.349 . S
C1003 C1001 1.327 . S
C1003 C1019 1.429 1_554 S
C1003 H1025 0.950 . S
C1004 H1000 0.949 . S
C1004 C1012 1.574 . S
C1004 C1020 1.368 . S
H1005 C1013 0.950 1_554 S
H1006 C1011 0.961 . S
H1007 C1012 0.949 . S
H1008 C1014 0.950 . S
H1009 C1015 0.950 . S
H1010 C1016 0.949 . S
C1011 H1006 0.961 . S
C1011 C1013 1.325 1_554 S
C1011 C1017 1.419 1_554 S
C1012 C1004 1.574 . S
C1012 H1007 0.949 . S
C1012 C1018 1.368 . S
C1013 C997 1.349 . S
C1013 H1005 0.950 1_556 S
C1013 C1011 1.325 1_556 S
C1014 C1002 1.349 . S
C1014 H1008 0.950 . S
C1014 C1015 1.327 . S
C1015 H1009 0.950 . S
C1015 C1014 1.327 . S
C1015 C1019 1.429 . S
C1016 C999 1.574 . S
C1016 H1010 0.949 . S
C1016 C1020 1.368 1_554 S
C1017 C998 1.429 . S
C1017 C1011 1.419 1_556 S
C1017 C1018 1.523 . S
C1018 C999 1.368 1_556 S
C1018 C1012 1.368 . S
C1018 C1017 1.523 . S
C1019 C1003 1.429 1_556 S
C1019 C1015 1.429 . S
C1019 C1020 1.523 . S
C1020 C1004 1.368 . S
C1020 C1016 1.368 1_556 S
C1020 C1019 1.523 . S
H1021 C996 0.950 . S
H1022 C998 0.950 . S
H1023 C999 0.949 . S
H1024 C1001 0.950 . S
H1025 C1003 0.950 . S
C1026 C1027 1.349 . S
C1026 C1028 1.327 . S
C1026 H1051 0.950 . S
C1027 C1026 1.349 . S
C1027 C1043 1.349 . S
C1028 C1026 1.327 . S
C1028 C1047 1.429 . S
C1028 H1052 0.950 . S
C1029 C1046 1.574 . S
C1029 C1048 1.368 . S
C1029 H1053 0.949 . S
H1030 C1034 0.949 . S
C1031 C1032 1.349 . S
C1031 C1033 1.327 . S
C1031 H1054 0.950 . S
C1032 C1031 1.349 . S
C1032 C1044 1.349 . S
C1033 C1031 1.327 . S
C1033 C1049 1.429 . S
C1033 H1055 0.950 . S
C1034 H1030 0.949 . S
C1034 C1042 1.574 . S
C1034 C1050 1.368 . S
H1035 C1043 0.950 . S
H1036 C1041 0.950 . S
H1037 C1042 0.949 . S
H1038 C1044 0.950 . S
H1039 C1045 0.950 . S
H1040 C1046 0.949 . S
C1041 H1036 0.950 . S
C1041 C1043 1.327 . S
C1041 C1047 1.429 . S
C1042 C1034 1.574 . S
C1042 H1037 0.949 . S
C1042 C1048 1.368 . S
C1043 C1027 1.349 . S
C1043 H1035 0.950 . S
C1043 C1041 1.327 . S
C1044 C1032 1.349 . S
C1044 H1038 0.950 . S
C1044 C1045 1.327 . S
C1045 H1039 0.950 . S
C1045 C1044 1.327 . S
C1045 C1049 1.429 . S
C1046 C1029 1.574 . S
C1046 H1040 0.949 . S
C1046 C1050 1.368 . S
C1047 C1028 1.429 . S
C1047 C1041 1.429 . S
C1047 C1048 1.523 . S
C1048 C1029 1.368 . S
C1048 C1042 1.368 . S
C1048 C1047 1.523 . S
C1049 C1033 1.429 . S
C1049 C1045 1.429 . S
C1049 C1050 1.523 . S
C1050 C1034 1.368 . S
C1050 C1046 1.368 . S
C1050 C1049 1.523 . S
H1051 C1026 0.950 . S
H1052 C1028 0.950 . S
H1053 C1029 0.949 . S
H1054 C1031 0.950 . S
H1055 C1033 0.950 . S
C1056 C1057 1.349 . S
C1056 C1058 1.327 . S
C1056 H1081 0.950 1_455 S
C1057 C1056 1.349 . S
C1057 C1073 1.349 . S
C1058 C1056 1.327 . S
C1058 C1077 1.429 . S
C1058 H1082 0.950 . S
C1059 C1076 1.574 . S
C1059 C1078 1.368 . S
C1059 H1083 0.949 . S
H1060 C1064 0.949 . S
C1061 C1062 1.349 . S
C1061 C1063 1.327 . S
C1061 H1084 0.950 . S
C1062 C1061 1.349 . S
C1062 C1074 1.349 . S
C1063 C1061 1.327 . S
C1063 C1079 1.429 . S
C1063 H1085 0.950 . S
C1064 H1060 0.949 . S
C1064 C1072 1.574 . S
C1064 C1080 1.368 . S
H1065 C1073 0.950 . S
H1066 C1071 0.950 . S
H1067 C1072 0.949 . S
H1068 C1074 0.950 . S
H1069 C1075 0.950 . S
H1070 C1076 0.949 . S
C1071 H1066 0.950 . S
C1071 C1073 1.327 . S
C1071 C1077 1.429 . S
C1072 C1064 1.574 . S
C1072 H1067 0.949 . S
C1072 C1078 1.368 . S
C1073 C1057 1.349 . S
C1073 H1065 0.950 . S
C1073 C1071 1.327 . S
C1074 C1062 1.349 . S
C1074 H1068 0.950 . S
C1074 C1075 1.327 . S
C1075 H1069 0.950 . S
C1075 C1074 1.327 . S
C1075 C1079 1.429 . S
C1076 C1059 1.574 . S
C1076 H1070 0.949 . S
C1076 C1080 1.368 . S
C1077 C1058 1.429 . S
C1077 C1071 1.429 . S
C1077 C1078 1.523 . S
C1078 C1059 1.368 . S
C1078 C1072 1.368 . S
C1078 C1077 1.523 . S
C1079 C1063 1.429 . S
C1079 C1075 1.429 . S
C1079 C1080 1.523 . S
C1080 C1064 1.368 . S
C1080 C1076 1.368 . S
C1080 C1079 1.523 . S
H1081 C1056 0.950 1_655 S
H1082 C1058 0.950 . S
H1083 C1059 0.949 . S
H1084 C1061 0.950 . S
H1085 C1063 0.950 . S
C1086 C1087 1.349 . S
C1086 C1088 1.327 . S
C1086 H1111 0.950 . S
C1087 C1086 1.349 . S
C1087 C1103 1.349 . S
C1088 C1086 1.327 . S
C1088 C1107 1.429 . S
C1088 H1112 0.950 . S
C1089 C1106 1.574 . S
C1089 C1108 1.368 . S
C1089 H1113 0.949 . S
H1090 C1094 0.949 . S
C1091 C1092 1.349 . S
C1091 C1093 1.327 . S
C1091 H1114 0.950 . S
C1092 C1091 1.349 . S
C1092 C1104 1.349 . S
C1093 C1091 1.327 . S
C1093 C1109 1.429 . S
C1093 H1115 0.950 . S
C1094 H1090 0.949 . S
C1094 C1102 1.574 . S
C1094 C1110 1.368 . S
H1095 C1103 0.950 . S
H1096 C1101 0.950 . S
H1097 C1102 0.949 . S
H1098 C1104 0.950 . S
H1099 C1105 0.950 . S
H1100 C1106 0.949 . S
C1101 H1096 0.950 . S
C1101 C1103 1.327 . S
C1101 C1107 1.429 . S
C1102 C1094 1.574 . S
C1102 H1097 0.949 . S
C1102 C1108 1.368 . S
C1103 C1087 1.349 . S
C1103 H1095 0.950 . S
C1103 C1101 1.327 . S
C1104 C1092 1.349 . S
C1104 H1098 0.950 . S
C1104 C1105 1.327 . S
C1105 H1099 0.950 . S
C1105 C1104 1.327 . S
C1105 C1109 1.429 . S
C1106 C1089 1.574 . S
C1106 H1100 0.949 . S
C1106 C1110 1.368 . S
C1107 C1088 1.429 . S
C1107 C1101 1.429 . S
C1107 C1108 1.523 . S
C1108 C1089 1.368 . S
C1108 C1102 1.368 . S
C1108 C1107 1.523 . S
C1109 C1093 1.429 . S
C1109 C1105 1.429 . S
C1109 C1110 1.523 . S
C1110 C1094 1.368 . S
C1110 C1106 1.368 . S
C1110 C1109 1.523 . S
H1111 C1086 0.950 . S
H1112 C1088 0.950 . S
H1113 C1089 0.949 . S
H1114 C1091 0.950 . S
H1115 C1093 0.950 . S
C1116 C1117 1.349 . S
C1116 C1118 1.327 . S
C1116 H1141 0.950 . S
C1117 C1116 1.349 . S
C1117 C1133 1.349 . S
C1118 C1116 1.327 . S
C1118 C1137 1.429 . S
C1118 H1142 0.950 . S
C1119 C1136 1.574 . S
C1119 C1138 1.368 . S
C1119 H1143 0.949 . S
H1120 C1124 0.949 . S
C1121 C1122 1.349 . S
C1121 C1123 1.327 . S
C1121 H1144 0.950 . S
C1122 C1121 1.349 . S
C1122 C1134 1.349 . S
C1123 C1121 1.327 . S
C1123 C1139 1.429 . S
C1123 H1145 0.950 . S
C1124 H1120 0.949 . S
C1124 C1132 1.574 . S
C1124 C1140 1.368 . S
H1125 C1133 0.950 . S
H1126 C1131 0.950 . S
H1127 C1132 0.949 . S
H1128 C1134 0.950 . S
H1129 C1135 0.950 . S
H1130 C1136 0.949 . S
C1131 H1126 0.950 . S
C1131 C1133 1.327 . S
C1131 C1137 1.429 . S
C1132 C1124 1.574 . S
C1132 H1127 0.949 . S
C1132 C1138 1.368 . S
C1133 C1117 1.349 . S
C1133 H1125 0.950 . S
C1133 C1131 1.327 . S
C1134 C1122 1.349 . S
C1134 H1128 0.950 . S
C1134 C1135 1.327 . S
C1135 H1129 0.950 . S
C1135 C1134 1.327 . S
C1135 C1139 1.429 . S
C1136 C1119 1.574 . S
C1136 H1130 0.949 . S
C1136 C1140 1.368 . S
C1137 C1118 1.429 . S
C1137 C1131 1.429 . S
C1137 C1138 1.523 . S
C1138 C1119 1.368 . S
C1138 C1132 1.368 . S
C1138 C1137 1.523 . S
C1139 C1123 1.429 . S
C1139 C1135 1.429 . S
C1139 C1140 1.523 . S
C1140 C1124 1.368 . S
C1140 C1136 1.368 . S
C1140 C1139 1.523 . S
H1141 C1116 0.950 . S
H1142 C1118 0.950 . S
H1143 C1119 0.949 . S
H1144 C1121 0.950 . S
H1145 C1123 0.950 . S
C1146 C1147 1.349 . S
C1146 C1148 1.327 . S
C1146 H1171 0.950 . S
C1147 C1146 1.349 . S
C1147 C1163 1.349 . S
C1148 C1146 1.327 . S
C1148 C1167 1.429 . S
C1148 H1172 0.950 . S
C1149 C1166 1.574 . S
C1149 C1168 1.368 . S
C1149 H1173 0.949 . S
H1150 C1154 0.949 . S
C1151 C1152 1.349 . S
C1151 C1153 1.327 . S
C1151 H1174 0.950 . S
C1152 C1151 1.349 . S
C1152 C1164 1.349 . S
C1153 C1151 1.327 . S
C1153 C1169 1.429 . S
C1153 H1175 0.950 . S
C1154 H1150 0.949 . S
C1154 C1162 1.574 . S
C1154 C1170 1.368 . S
H1155 C1163 0.950 . S
H1156 C1161 0.950 . S
H1157 C1162 0.949 . S
H1158 C1164 0.950 . S
H1159 C1165 0.950 . S
H1160 C1166 0.949 . S
C1161 H1156 0.950 . S
C1161 C1163 1.327 . S
C1161 C1167 1.429 . S
C1162 C1154 1.574 . S
C1162 H1157 0.949 . S
C1162 C1168 1.368 . S
C1163 C1147 1.349 . S
C1163 H1155 0.950 . S
C1163 C1161 1.327 . S
C1164 C1152 1.349 . S
C1164 H1158 0.950 . S
C1164 C1165 1.327 . S
C1165 H1159 0.950 . S
C1165 C1164 1.327 . S
C1165 C1169 1.429 . S
C1166 C1149 1.574 . S
C1166 H1160 0.949 . S
C1166 C1170 1.368 . S
C1167 C1148 1.429 . S
C1167 C1161 1.429 . S
C1167 C1168 1.523 . S
C1168 C1149 1.368 . S
C1168 C1162 1.368 . S
C1168 C1167 1.523 . S
C1169 C1153 1.429 . S
C1169 C1165 1.429 . S
C1169 C1170 1.523 . S
C1170 C1154 1.368 . S
C1170 C1166 1.368 . S
C1170 C1169 1.523 . S
H1171 C1146 0.950 . S
H1172 C1148 0.950 . S
H1173 C1149 0.949 . S
H1174 C1151 0.950 . S
H1175 C1153 0.950 . S
C1176 C1177 1.349 . S
C1176 C1178 1.327 . S
C1176 H1201 0.950 . S
C1177 C1176 1.349 . S
C1177 C1193 1.349 . S
C1178 C1176 1.327 . S
C1178 C1197 1.429 . S
C1178 H1202 0.950 . S
C1179 C1196 1.574 . S
C1179 C1198 1.368 . S
C1179 H1203 0.949 . S
H1180 C1184 0.949 . S
C1181 C1182 1.349 . S
C1181 C1183 1.327 . S
C1181 H1204 0.950 . S
C1182 C1181 1.349 . S
C1182 C1194 1.349 1_545 S
C1183 C1181 1.327 . S
C1183 C1199 1.429 . S
C1183 H1205 0.950 . S
C1184 H1180 0.949 . S
C1184 C1192 1.574 . S
C1184 C1200 1.368 . S
H1185 C1193 0.950 . S
H1186 C1191 0.950 . S
H1187 C1192 0.949 . S
H1188 C1194 0.950 . S
H1189 C1195 0.950 1_565 S
H1190 C1196 0.949 . S
C1191 H1186 0.950 . S
C1191 C1193 1.327 . S
C1191 C1197 1.429 . S
C1192 C1184 1.574 . S
C1192 H1187 0.949 . S
C1192 C1198 1.368 . S
C1193 C1177 1.349 . S
C1193 H1185 0.950 . S
C1193 C1191 1.327 . S
C1194 C1182 1.349 1_565 S
C1194 H1188 0.950 . S
C1194 C1195 1.327 1_565 S
C1195 H1189 0.950 1_545 S
C1195 C1194 1.327 1_545 S
C1195 C1199 1.429 . S
C1196 C1179 1.574 . S
C1196 H1190 0.949 . S
C1196 C1200 1.368 . S
C1197 C1178 1.429 . S
C1197 C1191 1.429 . S
C1197 C1198 1.523 . S
C1198 C1179 1.368 . S
C1198 C1192 1.368 . S
C1198 C1197 1.523 . S
C1199 C1183 1.429 . S
C1199 C1195 1.429 . S
C1199 C1200 1.523 . S
C1200 C1184 1.368 . S
C1200 C1196 1.368 . S
C1200 C1199 1.523 . S
H1201 C1176 0.950 . S
H1202 C1178 0.950 . S
H1203 C1179 0.949 . S
H1204 C1181 0.950 . S
H1205 C1183 0.950 . S
C1206 C1207 1.349 . S
C1206 C1208 1.327 . S
C1206 H1231 0.950 . S
C1207 C1206 1.349 . S
C1207 C1223 1.349 . S
C1208 C1206 1.327 . S
C1208 C1227 1.429 . S
C1208 H1232 0.950 . S
C1209 C1226 1.574 . S
C1209 C1228 1.368 . S
C1209 H1233 0.949 . S
H1210 C1214 0.949 . S
C1211 C1212 1.349 . S
C1211 C1213 1.327 . S
C1211 H1234 0.950 . S
C1212 C1211 1.349 . S
C1212 C1224 1.349 . S
C1213 C1211 1.327 . S
C1213 C1229 1.429 . S
C1213 H1235 0.950 . S
C1214 H1210 0.949 . S
C1214 C1222 1.574 . S
C1214 C1230 1.368 . S
H1215 C1223 0.950 . S
H1216 C1221 0.950 . S
H1217 C1222 0.949 . S
H1218 C1224 0.950 . S
H1219 C1225 0.950 . S
H1220 C1226 0.949 . S
C1221 H1216 0.950 . S
C1221 C1223 1.327 . S
C1221 C1227 1.429 . S
C1222 C1214 1.574 . S
C1222 H1217 0.949 . S
C1222 C1228 1.368 . S
C1223 C1207 1.349 . S
C1223 H1215 0.950 . S
C1223 C1221 1.327 . S
C1224 C1212 1.349 . S
C1224 H1218 0.950 . S
C1224 C1225 1.327 . S
C1225 H1219 0.950 . S
C1225 C1224 1.327 . S
C1225 C1229 1.429 . S
C1226 C1209 1.574 . S
C1226 H1220 0.949 . S
C1226 C1230 1.368 . S
C1227 C1208 1.429 . S
C1227 C1221 1.429 . S
C1227 C1228 1.523 . S
C1228 C1209 1.368 . S
C1228 C1222 1.368 . S
C1228 C1227 1.523 . S
C1229 C1213 1.429 . S
C1229 C1225 1.429 . S
C1229 C1230 1.523 . S
C1230 C1214 1.368 . S
C1230 C1226 1.368 . S
C1230 C1229 1.523 . S
H1231 C1206 0.950 . S
H1232 C1208 0.950 . S
H1233 C1209 0.949 . S
H1234 C1211 0.950 . S
H1235 C1213 0.950 . S
C1236 C1237 1.349 . S
C1236 C1238 1.327 . S
C1236 H1261 0.950 . S
C1237 C1236 1.349 . S
C1237 C1253 1.349 . S
C1238 C1236 1.327 . S
C1238 C1257 1.429 . S
C1238 H1262 0.950 . S
C1239 C1256 1.574 . S
C1239 C1258 1.368 . S
C1239 H1263 0.949 . S
H1240 C1244 0.949 . S
C1241 C1242 1.364 . S
C1241 C1243 1.346 . S
C1241 H1264 0.917 1_565 S
C1242 C1241 1.364 . S
C1242 C1254 1.349 . S
C1243 C1241 1.346 . S
C1243 C1259 1.429 . S
C1243 H1265 0.950 . S
C1244 H1240 0.949 . S
C1244 C1252 1.574 . S
C1244 C1260 1.368 . S
H1245 C1253 0.950 . S
H1246 C1251 0.950 . S
H1247 C1252 0.949 . S
H1248 C1254 0.950 . S
H1249 C1255 0.950 . S
H1250 C1256 0.949 . S
C1251 H1246 0.950 . S
C1251 C1253 1.327 . S
C1251 C1257 1.429 . S
C1252 C1244 1.574 . S
C1252 H1247 0.949 . S
C1252 C1258 1.368 . S
C1253 C1237 1.349 . S
C1253 H1245 0.950 . S
C1253 C1251 1.327 . S
C1254 C1242 1.349 . S
C1254 H1248 0.950 . S
C1254 C1255 1.327 . S
C1255 H1249 0.950 . S
C1255 C1254 1.327 . S
C1255 C1259 1.429 . S
C1256 C1239 1.574 . S
C1256 H1250 0.949 . S
C1256 C1260 1.368 . S
C1257 C1238 1.429 . S
C1257 C1251 1.429 . S
C1257 C1258 1.523 . S
C1258 C1239 1.368 . S
C1258 C1252 1.368 . S
C1258 C1257 1.523 . S
C1259 C1243 1.429 . S
C1259 C1255 1.429 . S
C1259 C1260 1.523 . S
C1260 C1244 1.368 . S
C1260 C1256 1.368 . S
C1260 C1259 1.523 . S
H1261 C1236 0.950 . S
H1262 C1238 0.950 . S
H1263 C1239 0.949 . S
H1264 C1241 0.917 1_545 S
H1265 C1243 0.950 . S
C1266 C1267 1.349 . S
C1266 C1268 1.327 . S
C1266 H1291 0.950 . S
C1267 C1266 1.349 . S
C1267 C1283 1.349 . S
C1268 C1266 1.327 . S
C1268 C1287 1.429 . S
C1268 H1292 0.950 . S
C1269 C1286 1.574 . S
C1269 C1288 1.368 . S
C1269 H1293 0.949 . S
H1270 C1274 0.949 . S
C1271 C1272 1.349 . S
C1271 C1273 1.327 . S
C1271 H1294 0.950 . S
C1272 C1271 1.349 . S
C1272 C1284 1.349 . S
C1273 C1271 1.327 . S
C1273 C1289 1.429 . S
C1273 H1295 0.950 . S
C1274 H1270 0.949 . S
C1274 C1282 1.574 . S
C1274 C1290 1.368 . S
H1275 C1283 0.950 . S
H1276 C1281 0.950 . S
H1277 C1282 0.949 . S
H1278 C1284 0.950 . S
H1279 C1285 0.950 . S
H1280 C1286 0.949 . S
C1281 H1276 0.950 . S
C1281 C1283 1.327 . S
C1281 C1287 1.429 . S
C1282 C1274 1.574 . S
C1282 H1277 0.949 . S
C1282 C1288 1.368 . S
C1283 C1267 1.349 . S
C1283 H1275 0.950 . S
C1283 C1281 1.327 . S
C1284 C1272 1.349 . S
C1284 H1278 0.950 . S
C1284 C1285 1.327 . S
C1285 H1279 0.950 . S
C1285 C1284 1.327 . S
C1285 C1289 1.429 . S
C1286 C1269 1.574 . S
C1286 H1280 0.949 . S
C1286 C1290 1.368 . S
C1287 C1268 1.429 . S
C1287 C1281 1.429 . S
C1287 C1288 1.523 . S
C1288 C1269 1.368 . S
C1288 C1282 1.368 . S
C1288 C1287 1.523 . S
C1289 C1273 1.429 . S
C1289 C1285 1.429 . S
C1289 C1290 1.523 . S
C1290 C1274 1.368 . S
C1290 C1286 1.368 . S
C1290 C1289 1.523 . S
H1291 C1266 0.950 . S
H1292 C1268 0.950 . S
H1293 C1269 0.949 . S
H1294 C1271 0.950 . S
H1295 C1273 0.950 . S
C1296 C1297 1.349 . S
C1296 C1298 1.327 . S
C1296 H1321 0.950 . S
C1297 C1296 1.349 . S
C1297 C1313 1.349 . S
C1298 C1296 1.327 . S
C1298 C1317 1.429 . S
C1298 H1322 0.950 . S
C1299 C1316 1.574 . S
C1299 C1318 1.368 . S
C1299 H1323 0.949 . S
H1300 C1304 0.949 . S
C1301 C1302 1.349 . S
C1301 C1303 1.327 . S
C1301 H1324 0.950 . S
C1302 C1301 1.349 . S
C1302 C1314 1.349 . S
C1303 C1301 1.327 . S
C1303 C1319 1.429 . S
C1303 H1325 0.950 . S
C1304 H1300 0.949 . S
C1304 C1312 1.574 . S
C1304 C1320 1.368 . S
H1305 C1313 0.950 . S
H1306 C1311 0.950 . S
H1307 C1312 0.949 . S
H1308 C1314 0.950 . S
H1309 C1315 0.950 . S
H1310 C1316 0.949 . S
C1311 H1306 0.950 . S
C1311 C1313 1.327 . S
C1311 C1317 1.429 . S
C1312 C1304 1.574 . S
C1312 H1307 0.949 . S
C1312 C1318 1.368 . S
C1313 C1297 1.349 . S
C1313 H1305 0.950 . S
C1313 C1311 1.327 . S
C1314 C1302 1.349 . S
C1314 H1308 0.950 . S
C1314 C1315 1.327 . S
C1315 H1309 0.950 . S
C1315 C1314 1.327 . S
C1315 C1319 1.429 . S
C1316 C1299 1.574 . S
C1316 H1310 0.949 . S
C1316 C1320 1.368 . S
C1317 C1298 1.429 . S
C1317 C1311 1.429 . S
C1317 C1318 1.523 . S
C1318 C1299 1.368 . S
C1318 C1312 1.368 . S
C1318 C1317 1.523 . S
C1319 C1303 1.429 . S
C1319 C1315 1.429 . S
C1319 C1320 1.523 . S
C1320 C1304 1.368 . S
C1320 C1316 1.368 . S
C1320 C1319 1.523 . S
H1321 C1296 0.950 . S
H1322 C1298 0.950 . S
H1323 C1299 0.949 . S
H1324 C1301 0.950 . S
H1325 C1303 0.950 . S
C1326 C1327 1.349 . S
C1326 C1328 1.327 . S
C1326 H1351 0.950 . S
C1327 C1326 1.349 . S
C1327 C1343 1.349 . S
C1328 C1326 1.327 . S
C1328 C1347 1.429 . S
C1328 H1352 0.950 . S
C1329 C1346 1.574 . S
C1329 C1348 1.368 . S
C1329 H1353 0.949 . S
H1330 C1334 0.949 . S
C1331 C1332 1.349 . S
C1331 C1333 1.327 . S
C1331 H1354 0.950 . S
C1332 C1331 1.349 . S
C1332 C1344 1.349 . S
C1333 C1331 1.327 . S
C1333 C1349 1.429 . S
C1333 H1355 0.950 . S
C1334 H1330 0.949 . S
C1334 C1342 1.574 . S
C1334 C1350 1.368 . S
H1335 C1343 0.950 . S
H1336 C1341 0.950 . S
H1337 C1342 0.949 . S
H1338 C1344 0.950 1_554 S
H1339 C1345 0.950 . S
H1340 C1346 0.949 . S
C1341 H1336 0.950 . S
C1341 C1343 1.327 . S
C1341 C1347 1.429 . S
C1342 C1334 1.574 . S
C1342 H1337 0.949 . S
C1342 C1348 1.368 . S
C1343 C1327 1.349 . S
C1343 H1335 0.950 . S
C1343 C1341 1.327 . S
C1344 C1332 1.349 . S
C1344 H1338 0.950 1_556 S
C1344 C1345 1.327 . S
C1345 H1339 0.950 . S
C1345 C1344 1.327 . S
C1345 C1349 1.429 . S
C1346 C1329 1.574 . S
C1346 H1340 0.949 . S
C1346 C1350 1.368 . S
C1347 C1328 1.429 . S
C1347 C1341 1.429 . S
C1347 C1348 1.523 . S
C1348 C1329 1.368 . S
C1348 C1342 1.368 . S
C1348 C1347 1.523 . S
C1349 C1333 1.429 . S
C1349 C1345 1.429 . S
C1349 C1350 1.523 . S
C1350 C1334 1.368 . S
C1350 C1346 1.368 . S
C1350 C1349 1.523 . S
H1351 C1326 0.950 . S
H1352 C1328 0.950 . S
H1353 C1329 0.949 . S
H1354 C1331 0.950 . S
H1355 C1333 0.950 . S
C1356 C1357 1.349 . S
C1356 C1358 1.327 . S
C1356 H1381 0.950 . S
C1357 C1356 1.349 . S
C1357 C1373 1.349 . S
C1358 C1356 1.327 . S
C1358 C1377 1.429 . S
C1358 H1382 0.950 . S
C1359 C1376 1.574 . S
C1359 C1378 1.368 . S
C1359 H1383 0.949 . S
H1360 C1364 0.949 . S
C1361 C1362 1.349 . S
C1361 C1363 1.327 . S
C1361 H1384 0.950 . S
C1362 C1361 1.349 . S
C1362 C1374 1.349 . S
C1363 C1361 1.327 . S
C1363 C1379 1.429 . S
C1363 H1385 0.950 . S
C1364 H1360 0.949 . S
C1364 C1372 1.574 . S
C1364 C1380 1.368 . S
H1365 C1373 0.950 . S
H1366 C1371 0.950 . S
H1367 C1372 0.949 . S
H1368 C1374 0.950 . S
H1369 C1375 0.950 . S
H1370 C1376 0.949 . S
C1371 H1366 0.950 . S
C1371 C1373 1.327 . S
C1371 C1377 1.429 . S
C1372 C1364 1.574 . S
C1372 H1367 0.949 . S
C1372 C1378 1.368 . S
C1373 C1357 1.349 . S
C1373 H1365 0.950 . S
C1373 C1371 1.327 . S
C1374 C1362 1.349 . S
C1374 H1368 0.950 . S
C1374 C1375 1.327 . S
C1375 H1369 0.950 . S
C1375 C1374 1.327 . S
C1375 C1379 1.429 . S
C1376 C1359 1.574 . S
C1376 H1370 0.949 . S
C1376 C1380 1.368 . S
C1377 C1358 1.429 . S
C1377 C1371 1.429 . S
C1377 C1378 1.523 . S
C1378 C1359 1.368 . S
C1378 C1372 1.368 . S
C1378 C1377 1.523 . S
C1379 C1363 1.429 . S
C1379 C1375 1.429 . S
C1379 C1380 1.523 . S
C1380 C1364 1.368 . S
C1380 C1376 1.368 . S
C1380 C1379 1.523 . S
H1381 C1356 0.950 . S
H1382 C1358 0.950 . S
H1383 C1359 0.949 . S
H1384 C1361 0.950 . S
H1385 C1363 0.950 . S
C1386 C1387 1.349 . S
C1386 C1388 1.327 . S
C1386 H1411 0.950 . S
C1387 C1386 1.349 . S
C1387 C1403 1.349 . S
C1388 C1386 1.327 . S
C1388 C1407 1.429 . S
C1388 H1412 0.950 . S
C1389 C1406 1.574 . S
C1389 C1408 1.368 . S
C1389 H1413 0.949 . S
H1390 C1394 0.949 . S
C1391 C1392 1.349 . S
C1391 C1393 1.327 . S
C1391 H1414 0.950 . S
C1392 C1391 1.349 . S
C1392 C1404 1.349 . S
C1393 C1391 1.327 . S
C1393 C1409 1.429 . S
C1393 H1415 0.950 . S
C1394 H1390 0.949 . S
C1394 C1402 1.574 . S
C1394 C1410 1.368 . S
H1395 C1403 0.950 . S
H1396 C1401 0.950 . S
H1397 C1402 0.949 . S
H1398 C1404 0.950 . S
H1399 C1405 0.950 . S
H1400 C1406 0.949 . S
C1401 H1396 0.950 . S
C1401 C1403 1.327 . S
C1401 C1407 1.429 . S
C1402 C1394 1.574 . S
C1402 H1397 0.949 . S
C1402 C1408 1.368 . S
C1403 C1387 1.349 . S
C1403 H1395 0.950 . S
C1403 C1401 1.327 . S
C1404 C1392 1.349 . S
C1404 H1398 0.950 . S
C1404 C1405 1.327 . S
C1405 H1399 0.950 . S
C1405 C1404 1.327 . S
C1405 C1409 1.429 . S
C1406 C1389 1.574 . S
C1406 H1400 0.949 . S
C1406 C1410 1.368 . S
C1407 C1388 1.429 . S
C1407 C1401 1.429 . S
C1407 C1408 1.523 . S
C1408 C1389 1.368 . S
C1408 C1402 1.368 . S
C1408 C1407 1.523 . S
C1409 C1393 1.429 . S
C1409 C1405 1.429 . S
C1409 C1410 1.523 . S
C1410 C1394 1.368 . S
C1410 C1406 1.368 . S
C1410 C1409 1.523 . S
H1411 C1386 0.950 . S
H1412 C1388 0.950 . S
H1413 C1389 0.949 . S
H1414 C1391 0.950 . S
H1415 C1393 0.950 . S
C1416 C1417 1.349 . S
C1416 C1418 1.327 . S
C1416 H1441 0.950 . S
C1417 C1416 1.349 . S
C1417 C1433 1.349 . S
C1418 C1416 1.327 . S
C1418 C1437 1.429 . S
C1418 H1442 0.950 . S
C1419 C1436 1.574 . S
C1419 C1438 1.368 . S
C1419 H1443 0.949 . S
H1420 C1424 0.949 . S
C1421 C1422 1.349 . S
C1421 C1423 1.327 . S
C1421 H1444 0.950 . S
C1422 C1421 1.349 . S
C1422 C1434 1.349 . S
C1423 C1421 1.327 . S
C1423 C1439 1.429 . S
C1423 H1445 0.950 . S
C1424 H1420 0.949 . S
C1424 C1432 1.574 . S
C1424 C1440 1.368 . S
H1425 C1433 0.950 . S
H1426 C1431 0.950 . S
H1427 C1432 0.949 . S
H1428 C1434 0.950 . S
H1429 C1435 0.950 . S
H1430 C1436 0.949 . S
C1431 H1426 0.950 . S
C1431 C1433 1.327 . S
C1431 C1437 1.429 . S
C1432 C1424 1.574 . S
C1432 H1427 0.949 . S
C1432 C1438 1.368 . S
C1433 C1417 1.349 . S
C1433 H1425 0.950 . S
C1433 C1431 1.327 . S
C1434 C1422 1.349 . S
C1434 H1428 0.950 . S
C1434 C1435 1.327 . S
C1435 H1429 0.950 . S
C1435 C1434 1.327 . S
C1435 C1439 1.429 . S
C1436 C1419 1.574 . S
C1436 H1430 0.949 . S
C1436 C1440 1.368 . S
C1437 C1418 1.429 . S
C1437 C1431 1.429 . S
C1437 C1438 1.523 . S
C1438 C1419 1.368 . S
C1438 C1432 1.368 . S
C1438 C1437 1.523 . S
C1439 C1423 1.429 . S
C1439 C1435 1.429 . S
C1439 C1440 1.523 . S
C1440 C1424 1.368 . S
C1440 C1436 1.368 . S
C1440 C1439 1.523 . S
H1441 C1416 0.950 . S
H1442 C1418 0.950 . S
H1443 C1419 0.949 . S
H1444 C1421 0.950 . S
H1445 C1423 0.950 . S
C1446 C1447 1.349 . S
C1446 C1448 1.327 . S
C1446 H1471 0.950 . S
C1447 C1446 1.349 . S
C1447 C1463 1.349 . S
C1448 C1446 1.327 . S
C1448 C1467 1.429 . S
C1448 H1472 0.950 . S
C1449 C1466 1.574 . S
C1449 C1468 1.368 . S
C1449 H1473 0.949 . S
H1450 C1454 0.949 . S
C1451 C1452 1.349 . S
C1451 C1453 1.327 . S
C1451 H1474 0.950 . S
C1452 C1451 1.349 . S
C1452 C1464 1.349 . S
C1453 C1451 1.327 . S
C1453 C1469 1.429 . S
C1453 H1475 0.950 . S
C1454 H1450 0.949 . S
C1454 C1462 1.574 . S
C1454 C1470 1.368 . S
H1455 C1463 0.950 . S
H1456 C1461 0.950 . S
H1457 C1462 0.949 . S
H1458 C1464 0.950 . S
H1459 C1465 0.950 . S
H1460 C1466 0.949 . S
C1461 H1456 0.950 . S
C1461 C1463 1.327 . S
C1461 C1467 1.429 . S
C1462 C1454 1.574 . S
C1462 H1457 0.949 . S
C1462 C1468 1.368 . S
C1463 C1447 1.349 . S
C1463 H1455 0.950 . S
C1463 C1461 1.327 . S
C1464 C1452 1.349 . S
C1464 H1458 0.950 . S
C1464 C1465 1.327 . S
C1465 H1459 0.950 . S
C1465 C1464 1.327 . S
C1465 C1469 1.429 . S
C1466 C1449 1.574 . S
C1466 H1460 0.949 . S
C1466 C1470 1.368 . S
C1467 C1448 1.429 . S
C1467 C1461 1.429 . S
C1467 C1468 1.523 . S
C1468 C1449 1.368 . S
C1468 C1462 1.368 . S
C1468 C1467 1.523 . S
C1469 C1453 1.429 . S
C1469 C1465 1.429 . S
C1469 C1470 1.523 . S
C1470 C1454 1.368 . S
C1470 C1466 1.368 . S
C1470 C1469 1.523 . S
H1471 C1446 0.950 . S
H1472 C1448 0.950 . S
H1473 C1449 0.949 . S
H1474 C1451 0.950 . S
H1475 C1453 0.950 . S
C1476 C1477 1.349 . S
C1476 C1478 1.327 . S
C1476 H1501 0.950 . S
C1477 C1476 1.349 . S
C1477 C1493 1.349 . S
C1478 C1476 1.327 . S
C1478 C1497 1.429 . S
C1478 H1502 0.950 . S
C1479 C1496 1.574 . S
C1479 C1498 1.368 . S
C1479 H1503 0.949 . S
H1480 C1484 0.949 . S
C1481 C1482 1.349 . S
C1481 C1483 1.327 . S
C1481 H1504 0.950 . S
C1482 C1481 1.349 . S
C1482 C1494 1.349 . S
C1483 C1481 1.327 . S
C1483 C1499 1.429 . S
C1483 H1505 0.950 . S
C1484 H1480 0.949 . S
C1484 C1492 1.574 . S
C1484 C1500 1.368 . S
H1485 C1493 0.950 . S
H1486 C1491 0.950 . S
H1487 C1492 0.949 . S
H1488 C1494 0.950 . S
H1489 C1495 0.950 . S
H1490 C1496 0.949 . S
C1491 H1486 0.950 . S
C1491 C1493 1.327 . S
C1491 C1497 1.429 . S
C1492 C1484 1.574 . S
C1492 H1487 0.949 . S
C1492 C1498 1.368 . S
C1493 C1477 1.349 . S
C1493 H1485 0.950 . S
C1493 C1491 1.327 . S
C1494 C1482 1.349 . S
C1494 H1488 0.950 . S
C1494 C1495 1.327 . S
C1495 H1489 0.950 . S
C1495 C1494 1.327 . S
C1495 C1499 1.429 . S
C1496 C1479 1.574 . S
C1496 H1490 0.949 . S
C1496 C1500 1.368 . S
C1497 C1478 1.429 . S
C1497 C1491 1.429 . S
C1497 C1498 1.523 . S
C1498 C1479 1.368 . S
C1498 C1492 1.368 . S
C1498 C1497 1.523 . S
C1499 C1483 1.429 . S
C1499 C1495 1.429 . S
C1499 C1500 1.523 . S
C1500 C1484 1.368 . S
C1500 C1496 1.368 . S
C1500 C1499 1.523 . S
H1501 C1476 0.950 . S
H1502 C1478 0.950 . S
H1503 C1479 0.949 . S
H1504 C1481 0.950 . S
H1505 C1483 0.950 . S
C1506 C1507 1.349 . S
C1506 C1508 1.327 . S
C1506 H1531 0.950 . S
C1507 C1506 1.349 . S
C1507 C1523 1.349 . S
C1508 C1506 1.327 . S
C1508 C1527 1.429 . S
C1508 H1532 0.950 . S
C1509 C1526 1.574 . S
C1509 C1528 1.368 . S
C1509 H1533 0.949 . S
H1510 C1514 0.949 . S
C1511 C1512 1.349 . S
C1511 C1513 1.327 . S
C1511 H1534 0.950 . S
C1512 C1511 1.349 . S
C1512 C1524 1.349 . S
C1513 C1511 1.327 . S
C1513 C1529 1.429 . S
C1513 H1535 0.950 . S
C1514 H1510 0.949 . S
C1514 C1522 1.574 . S
C1514 C1530 1.368 . S
H1515 C1523 0.950 . S
H1516 C1521 0.950 . S
H1517 C1522 0.949 . S
H1518 C1524 0.950 . S
H1519 C1525 0.950 . S
H1520 C1526 0.949 . S
C1521 H1516 0.950 . S
C1521 C1523 1.327 . S
C1521 C1527 1.429 . S
C1522 C1514 1.574 . S
C1522 H1517 0.949 . S
C1522 C1528 1.368 . S
C1523 C1507 1.349 . S
C1523 H1515 0.950 . S
C1523 C1521 1.327 . S
C1524 C1512 1.349 . S
C1524 H1518 0.950 . S
C1524 C1525 1.327 . S
C1525 H1519 0.950 . S
C1525 C1524 1.327 . S
C1525 C1529 1.429 . S
C1526 C1509 1.574 . S
C1526 H1520 0.949 . S
C1526 C1530 1.368 . S
C1527 C1508 1.429 . S
C1527 C1521 1.429 . S
C1527 C1528 1.523 . S
C1528 C1509 1.368 . S
C1528 C1522 1.368 . S
C1528 C1527 1.523 . S
C1529 C1513 1.429 . S
C1529 C1525 1.429 . S
C1529 C1530 1.523 . S
C1530 C1514 1.368 . S
C1530 C1526 1.368 . S
C1530 C1529 1.523 . S
H1531 C1506 0.950 . S
H1532 C1508 0.950 . S
H1533 C1509 0.949 . S
H1534 C1511 0.950 . S
H1535 C1513 0.950 . S
C1536 C1537 1.349 . S
C1536 C1538 1.327 . S
C1536 H1561 0.950 . S
C1537 C1536 1.349 . S
C1537 C1553 1.349 . S
C1538 C1536 1.327 . S
C1538 C1557 1.429 . S
C1538 H1562 0.950 . S
C1539 C1556 1.574 . S
C1539 C1558 1.368 . S
C1539 H1563 0.949 . S
H1540 C1544 0.949 . S
C1541 C1542 1.349 . S
C1541 C1543 1.327 . S
C1541 H1564 0.950 . S
C1542 C1541 1.349 . S
C1542 C1554 1.349 . S
C1543 C1541 1.327 . S
C1543 C1559 1.429 . S
C1543 H1565 0.950 . S
C1544 H1540 0.949 . S
C1544 C1552 1.574 . S
C1544 C1560 1.368 . S
H1545 C1553 0.950 . S
H1546 C1551 0.950 . S
H1547 C1552 0.949 . S
H1548 C1554 0.950 . S
H1549 C1555 0.950 . S
H1550 C1556 0.949 . S
C1551 H1546 0.950 . S
C1551 C1553 1.327 . S
C1551 C1557 1.429 . S
C1552 C1544 1.574 . S
C1552 H1547 0.949 . S
C1552 C1558 1.368 . S
C1553 C1537 1.349 . S
C1553 H1545 0.950 . S
C1553 C1551 1.327 . S
C1554 C1542 1.349 . S
C1554 H1548 0.950 . S
C1554 C1555 1.327 . S
C1555 H1549 0.950 . S
C1555 C1554 1.327 . S
C1555 C1559 1.429 . S
C1556 C1539 1.574 . S
C1556 H1550 0.949 . S
C1556 C1560 1.368 . S
C1557 C1538 1.429 . S
C1557 C1551 1.429 . S
C1557 C1558 1.523 . S
C1558 C1539 1.368 . S
C1558 C1552 1.368 . S
C1558 C1557 1.523 . S
C1559 C1543 1.429 . S
C1559 C1555 1.429 . S
C1559 C1560 1.523 . S
C1560 C1544 1.368 . S
C1560 C1556 1.368 . S
C1560 C1559 1.523 . S
H1561 C1536 0.950 . S
H1562 C1538 0.950 . S
H1563 C1539 0.949 . S
H1564 C1541 0.950 . S
H1565 C1543 0.950 . S
C1566 C1567 1.349 . S
C1566 C1568 1.327 . S
C1566 H1591 0.950 . S
C1567 C1566 1.349 . S
C1567 C1583 1.349 . S
C1568 C1566 1.327 . S
C1568 C1587 1.429 . S
C1568 H1592 0.950 . S
C1569 C1586 1.574 . S
C1569 C1588 1.368 . S
C1569 H1593 0.949 . S
H1570 C1574 0.949 . S
C1571 C1572 1.349 . S
C1571 C1573 1.327 . S
C1571 H1594 0.950 . S
C1572 C1571 1.349 . S
C1572 C1584 1.349 . S
C1573 C1571 1.327 . S
C1573 C1589 1.429 . S
C1573 H1595 0.950 . S
C1574 H1570 0.949 . S
C1574 C1582 1.574 . S
C1574 C1590 1.368 . S
H1575 C1583 0.950 . S
H1576 C1581 0.950 . S
H1577 C1582 0.949 . S
H1578 C1584 0.950 1_455 S
H1579 C1585 0.950 . S
H1580 C1586 0.949 . S
C1581 H1576 0.950 . S
C1581 C1583 1.327 . S
C1581 C1587 1.429 . S
C1582 C1574 1.574 . S
C1582 H1577 0.949 . S
C1582 C1588 1.368 . S
C1583 C1567 1.349 . S
C1583 H1575 0.950 . S
C1583 C1581 1.327 . S
C1584 C1572 1.349 . S
C1584 H1578 0.950 1_655 S
C1584 C1585 1.327 . S
C1585 H1579 0.950 . S
C1585 C1584 1.327 . S
C1585 C1589 1.429 . S
C1586 C1569 1.574 . S
C1586 H1580 0.949 . S
C1586 C1590 1.368 . S
C1587 C1568 1.429 . S
C1587 C1581 1.429 . S
C1587 C1588 1.523 . S
C1588 C1569 1.368 . S
C1588 C1582 1.368 . S
C1588 C1587 1.523 . S
C1589 C1573 1.429 . S
C1589 C1585 1.429 . S
C1589 C1590 1.523 . S
C1590 C1574 1.368 . S
C1590 C1586 1.368 . S
C1590 C1589 1.523 . S
H1591 C1566 0.950 . S
H1592 C1568 0.950 . S
H1593 C1569 0.949 . S
H1594 C1571 0.950 . S
H1595 C1573 0.950 . S
C1596 C1597 1.349 . S
C1596 C1598 1.327 . S
C1596 H1621 0.950 . S
C1597 C1596 1.349 . S
C1597 C1613 1.349 . S
C1598 C1596 1.327 . S
C1598 C1617 1.429 . S
C1598 H1622 0.950 . S
C1599 C1616 1.574 . S
C1599 C1618 1.368 . S
C1599 H1623 0.949 . S
H1600 C1604 0.949 . S
C1601 C1602 1.349 . S
C1601 C1603 1.327 . S
C1601 H1624 0.950 . S
C1602 C1601 1.349 . S
C1602 C1614 1.349 . S
C1603 C1601 1.327 . S
C1603 C1619 1.429 . S
C1603 H1625 0.950 . S
C1604 H1600 0.949 . S
C1604 C1612 1.574 . S
C1604 C1620 1.368 . S
H1605 C1613 0.950 . S
H1606 C1611 0.950 . S
H1607 C1612 0.949 . S
H1608 C1614 0.950 . S
H1609 C1615 0.950 . S
H1610 C1616 0.949 . S
C1611 H1606 0.950 . S
C1611 C1613 1.327 . S
C1611 C1617 1.429 . S
C1612 C1604 1.574 . S
C1612 H1607 0.949 . S
C1612 C1618 1.368 . S
C1613 C1597 1.349 . S
C1613 H1605 0.950 . S
C1613 C1611 1.327 . S
C1614 C1602 1.349 . S
C1614 H1608 0.950 . S
C1614 C1615 1.327 . S
C1615 H1609 0.950 . S
C1615 C1614 1.327 . S
C1615 C1619 1.429 . S
C1616 C1599 1.574 . S
C1616 H1610 0.949 . S
C1616 C1620 1.368 . S
C1617 C1598 1.429 . S
C1617 C1611 1.429 . S
C1617 C1618 1.523 . S
C1618 C1599 1.368 . S
C1618 C1612 1.368 . S
C1618 C1617 1.523 . S
C1619 C1603 1.429 . S
C1619 C1615 1.429 . S
C1619 C1620 1.523 . S
C1620 C1604 1.368 . S
C1620 C1616 1.368 . S
C1620 C1619 1.523 . S
H1621 C1596 0.950 . S
H1622 C1598 0.950 . S
H1623 C1599 0.949 . S
H1624 C1601 0.950 . S
H1625 C1603 0.950 . S
C1626 C1627 1.349 . S
C1626 C1628 1.327 . S
C1626 H1651 0.950 . S
C1627 C1626 1.349 . S
C1627 C1643 1.349 . S
C1628 C1626 1.327 . S
C1628 C1647 1.429 . S
C1628 H1652 0.950 . S
C1629 C1646 1.574 . S
C1629 C1648 1.368 . S
C1629 H1653 0.949 . S
H1630 C1634 0.949 . S
C1631 C1632 1.349 . S
C1631 C1633 1.327 . S
C1631 H1654 0.950 . S
C1632 C1631 1.349 . S
C1632 C1644 1.349 . S
C1633 C1631 1.327 . S
C1633 C1649 1.429 . S
C1633 H1655 0.950 . S
C1634 H1630 0.949 . S
C1634 C1642 1.574 . S
C1634 C1650 1.368 . S
H1635 C1643 0.950 . S
H1636 C1641 0.950 . S
H1637 C1642 0.949 . S
H1638 C1644 0.950 . S
H1639 C1645 0.950 . S
H1640 C1646 0.949 . S
C1641 H1636 0.950 . S
C1641 C1643 1.327 . S
C1641 C1647 1.429 . S
C1642 C1634 1.574 . S
C1642 H1637 0.949 . S
C1642 C1648 1.368 . S
C1643 C1627 1.349 . S
C1643 H1635 0.950 . S
C1643 C1641 1.327 . S
C1644 C1632 1.349 . S
C1644 H1638 0.950 . S
C1644 C1645 1.327 . S
C1645 H1639 0.950 . S
C1645 C1644 1.327 . S
C1645 C1649 1.429 . S
C1646 C1629 1.574 . S
C1646 H1640 0.949 . S
C1646 C1650 1.368 . S
C1647 C1628 1.429 . S
C1647 C1641 1.429 . S
C1647 C1648 1.523 . S
C1648 C1629 1.368 . S
C1648 C1642 1.368 . S
C1648 C1647 1.523 . S
C1649 C1633 1.429 . S
C1649 C1645 1.429 . S
C1649 C1650 1.523 . S
C1650 C1634 1.368 . S
C1650 C1646 1.368 . S
C1650 C1649 1.523 . S
H1651 C1626 0.950 . S
H1652 C1628 0.950 . S
H1653 C1629 0.949 . S
H1654 C1631 0.950 . S
H1655 C1633 0.950 . S
C1656 C1657 1.349 . S
C1656 C1658 1.327 . S
C1656 H1681 0.950 . S
C1657 C1656 1.349 . S
C1657 C1673 1.349 . S
C1658 C1656 1.327 . S
C1658 C1677 1.429 . S
C1658 H1682 0.950 . S
C1659 C1676 1.574 . S
C1659 C1678 1.368 . S
C1659 H1683 0.949 . S
H1660 C1664 0.949 . S
C1661 C1662 1.349 . S
C1661 C1663 1.327 . S
C1661 H1684 0.950 . S
C1662 C1661 1.349 . S
C1662 C1674 1.349 . S
C1663 C1661 1.327 . S
C1663 C1679 1.429 . S
C1663 H1685 0.950 . S
C1664 H1660 0.949 . S
C1664 C1672 1.574 . S
C1664 C1680 1.368 . S
H1665 C1673 0.950 . S
H1666 C1671 0.950 . S
H1667 C1672 0.949 . S
H1668 C1674 0.950 . S
H1669 C1675 0.950 . S
H1670 C1676 0.949 . S
C1671 H1666 0.950 . S
C1671 C1673 1.327 . S
C1671 C1677 1.429 . S
C1672 C1664 1.574 . S
C1672 H1667 0.949 . S
C1672 C1678 1.368 . S
C1673 C1657 1.349 . S
C1673 H1665 0.950 . S
C1673 C1671 1.327 . S
C1674 C1662 1.349 . S
C1674 H1668 0.950 . S
C1674 C1675 1.327 . S
C1675 H1669 0.950 . S
C1675 C1674 1.327 . S
C1675 C1679 1.429 . S
C1676 C1659 1.574 . S
C1676 H1670 0.949 . S
C1676 C1680 1.368 . S
C1677 C1658 1.429 . S
C1677 C1671 1.429 . S
C1677 C1678 1.523 . S
C1678 C1659 1.368 . S
C1678 C1672 1.368 . S
C1678 C1677 1.523 . S
C1679 C1663 1.429 . S
C1679 C1675 1.429 . S
C1679 C1680 1.523 . S
C1680 C1664 1.368 . S
C1680 C1676 1.368 . S
C1680 C1679 1.523 . S
H1681 C1656 0.950 . S
H1682 C1658 0.950 . S
H1683 C1659 0.949 . S
H1684 C1661 0.950 . S
H1685 C1663 0.950 . S
C1686 C1687 1.349 . S
C1686 C1688 1.327 . S
C1686 H1711 0.950 . S
C1687 C1686 1.349 . S
C1687 C1703 1.349 . S
C1688 C1686 1.327 . S
C1688 C1707 1.429 . S
C1688 H1712 0.950 . S
C1689 C1706 1.574 . S
C1689 C1708 1.368 . S
C1689 H1713 0.949 . S
H1690 C1694 0.949 . S
C1691 C1692 1.349 . S
C1691 C1693 1.327 . S
C1691 H1714 0.950 . S
C1692 C1691 1.349 . S
C1692 C1704 1.349 . S
C1693 C1691 1.327 . S
C1693 C1709 1.429 . S
C1693 H1715 0.950 . S
C1694 H1690 0.949 . S
C1694 C1702 1.574 . S
C1694 C1710 1.368 . S
H1695 C1703 0.950 . S
H1696 C1701 0.950 . S
H1697 C1702 0.949 . S
H1698 C1704 0.950 . S
H1699 C1705 0.950 . S
H1700 C1706 0.949 . S
C1701 H1696 0.950 . S
C1701 C1703 1.327 . S
C1701 C1707 1.429 . S
C1702 C1694 1.574 . S
C1702 H1697 0.949 . S
C1702 C1708 1.368 . S
C1703 C1687 1.349 . S
C1703 H1695 0.950 . S
C1703 C1701 1.327 . S
C1704 C1692 1.349 . S
C1704 H1698 0.950 . S
C1704 C1705 1.327 . S
C1705 H1699 0.950 . S
C1705 C1704 1.327 . S
C1705 C1709 1.429 . S
C1706 C1689 1.574 . S
C1706 H1700 0.949 . S
C1706 C1710 1.368 . S
C1707 C1688 1.429 . S
C1707 C1701 1.429 . S
C1707 C1708 1.523 . S
C1708 C1689 1.368 . S
C1708 C1702 1.368 . S
C1708 C1707 1.523 . S
C1709 C1693 1.429 . S
C1709 C1705 1.429 . S
C1709 C1710 1.523 . S
C1710 C1694 1.368 . S
C1710 C1706 1.368 . S
C1710 C1709 1.523 . S
H1711 C1686 0.950 . S
H1712 C1688 0.950 . S
H1713 C1689 0.949 . S
H1714 C1691 0.950 . S
H1715 C1693 0.950 . S
C1716 C1717 1.349 . S
C1716 C1718 1.327 . S
C1716 H1741 0.950 . S
C1717 C1716 1.349 . S
C1717 C1733 1.349 . S
C1718 C1716 1.327 . S
C1718 C1737 1.429 . S
C1718 H1742 0.950 . S
C1719 C1736 1.574 . S
C1719 C1738 1.368 . S
C1719 H1743 0.949 . S
H1720 C1724 0.949 . S
C1721 C1722 1.349 . S
C1721 C1723 1.327 . S
C1721 H1744 0.950 . S
C1722 C1721 1.349 . S
C1722 C1734 1.349 . S
C1723 C1721 1.327 . S
C1723 C1739 1.429 . S
C1723 H1745 0.950 . S
C1724 H1720 0.949 . S
C1724 C1732 1.574 . S
C1724 C1740 1.368 . S
H1725 C1733 0.950 . S
H1726 C1731 0.950 . S
H1727 C1732 0.949 . S
H1728 C1734 0.950 . S
H1729 C1735 0.950 . S
H1730 C1736 0.949 . S
C1731 H1726 0.950 . S
C1731 C1733 1.327 . S
C1731 C1737 1.429 . S
C1732 C1724 1.574 . S
C1732 H1727 0.949 . S
C1732 C1738 1.368 . S
C1733 C1717 1.349 . S
C1733 H1725 0.950 . S
C1733 C1731 1.327 . S
C1734 C1722 1.349 . S
C1734 H1728 0.950 . S
C1734 C1735 1.327 . S
C1735 H1729 0.950 . S
C1735 C1734 1.327 . S
C1735 C1739 1.429 . S
C1736 C1719 1.574 . S
C1736 H1730 0.949 . S
C1736 C1740 1.368 . S
C1737 C1718 1.429 . S
C1737 C1731 1.429 . S
C1737 C1738 1.523 . S
C1738 C1719 1.368 . S
C1738 C1732 1.368 . S
C1738 C1737 1.523 . S
C1739 C1723 1.429 . S
C1739 C1735 1.429 . S
C1739 C1740 1.523 . S
C1740 C1724 1.368 . S
C1740 C1736 1.368 . S
C1740 C1739 1.523 . S
H1741 C1716 0.950 . S
H1742 C1718 0.950 . S
H1743 C1719 0.949 . S
H1744 C1721 0.950 . S
H1745 C1723 0.950 . S
C1746 C1747 1.349 . S
C1746 C1748 1.327 . S
C1746 H1771 0.950 . S
C1747 C1746 1.349 . S
C1747 C1763 1.349 . S
C1748 C1746 1.327 . S
C1748 C1767 1.429 . S
C1748 H1772 0.950 . S
C1749 C1766 1.574 . S
C1749 C1768 1.368 . S
C1749 H1773 0.949 . S
H1750 C1754 0.949 . S
C1751 C1752 1.349 . S
C1751 C1753 1.327 . S
C1751 H1774 0.950 . S
C1752 C1751 1.349 . S
C1752 C1764 1.349 . S
C1753 C1751 1.327 . S
C1753 C1769 1.429 . S
C1753 H1775 0.950 . S
C1754 H1750 0.949 . S
C1754 C1762 1.574 . S
C1754 C1770 1.368 . S
H1755 C1763 0.950 . S
H1756 C1761 0.950 . S
H1757 C1762 0.949 . S
H1758 C1764 0.950 . S
H1759 C1765 0.950 . S
H1760 C1766 0.949 . S
C1761 H1756 0.950 . S
C1761 C1763 1.327 . S
C1761 C1767 1.429 . S
C1762 C1754 1.574 . S
C1762 H1757 0.949 . S
C1762 C1768 1.368 . S
C1763 C1747 1.349 . S
C1763 H1755 0.950 . S
C1763 C1761 1.327 . S
C1764 C1752 1.349 . S
C1764 H1758 0.950 . S
C1764 C1765 1.327 . S
C1765 H1759 0.950 . S
C1765 C1764 1.327 . S
C1765 C1769 1.429 . S
C1766 C1749 1.574 . S
C1766 H1760 0.949 . S
C1766 C1770 1.368 . S
C1767 C1748 1.429 . S
C1767 C1761 1.429 . S
C1767 C1768 1.523 . S
C1768 C1749 1.368 . S
C1768 C1762 1.368 . S
C1768 C1767 1.523 . S
C1769 C1753 1.429 . S
C1769 C1765 1.429 . S
C1769 C1770 1.523 . S
C1770 C1754 1.368 . S
C1770 C1766 1.368 . S
C1770 C1769 1.523 . S
H1771 C1746 0.950 . S
H1772 C1748 0.950 . S
H1773 C1749 0.949 . S
H1774 C1751 0.950 . S
H1775 C1753 0.950 . S
C337 C106 0.972 . S
C342 C8 1.077 . S
C367 C23 0.574 . S
C372 C65 0.619 . S
C397 C78 0.951 . S
C402 C36 1.069 . S
C427 C51 0.710 . S
C432 C93 0.713 . S
C457 C120 1.077 . S
C462 C9 0.972 . S
C487 C22 0.720 . S
C492 C135 0.702 . S
C517 C148 1.068 . S
C522 C37 0.959 . S
C547 C162 0.559 . S
C552 C50 0.608 . S
C577 C64 0.559 . S
C582 C134 0.608 . S
C607 C79 0.809 . S
C612 C149 0.785 . S
C637 C163 0.619 . S
C642 C92 0.573 . S
C667 C121 0.972 . S
C672 C107 1.077 . S
C697 C303 0.960 . S
C702 C176 1.068 . S
C727 C191 0.710 . S
C732 C317 0.713 . S
C757 C204 1.069 . S
C762 C330 0.951 . S
C787 C331 0.809 . S
C792 C218 0.784 . S
C817 C232 0.951 . S
C822 C302 1.069 . S
C847 C274 0.662 . S
C852 C246 0.702 . S
C877 C177 0.785 . S
C882 C233 0.809 . S
C907 C190 0.613 . S
C912 C260 0.553 . S
C937 C205 0.959 . S
C942 C219 1.068 . S
C967 C247 0.662 . S
C972 C288 0.702 . S
C997 C261 0.619 . S
C1002 C316 0.573 . S
C1027 C289 0.662 . S
C1032 C275 0.702 . S
C1057 C62 1.876 . S
C1062 C7 1.860 . S
C1087 C77 1.320 . S
C1092 C20 1.314 . S
C1117 C90 2.042 . S
C1122 C35 2.035 . S
C1147 C105 1.783 . S
C1152 C48 1.779 . S
C1177 C119 1.858 . S
C1182 C160 1.880 . S
C1207 C132 1.776 . S
C1212 C118 1.787 . S
C1237 C147 1.521 . S
C1242 C133 1.516 . S
C1267 C146 1.151 . S
C1272 C161 1.150 . S
C1297 C258 1.876 . S
C1302 C104 1.860 . S
C1327 C175 1.521 . S
C1332 C49 1.516 . S
C1357 C6 1.783 . S
C1362 C188 1.779 . S
C1387 C21 2.042 . S
C1392 C203 2.035 . S
C1417 C76 1.692 . S
C1422 C272 1.666 . S
C1447 C63 1.149 . S
C1452 C217 1.151 . S
C1477 C91 1.318 . S
C1482 C231 1.315 . S
C1507 C230 1.692 . S
C1512 C245 1.666 . S
C1537 C174 1.151 . S
C1542 C259 1.150 . S
C1567 C216 1.521 . S
C1572 C189 1.516 . S
C1597 C273 1.927 . S
C1602 C202 1.900 . S
C1627 C287 1.666 . S
C1632 C328 1.692 . S
C1657 C286 1.927 . S
C1662 C300 1.900 . S
C1687 C314 2.042 . S
C1692 C301 2.035 . S
C1717 C329 1.320 . S
C1722 C315 1.314 . S
C1747 C34 1.900 . S
C1752 C244 1.927 . S
