# Generated by pormake.
# Topology wgh, (5)-cn, num edge types: 1
# Building blocks:
#     Node 0, Type 0, BuildingBlock: XOMCOT_clean_sbu_0, # of connection points: 5
#     Node 1, Type 0, BuildingBlock: XOMCOT_clean_sbu_0, # of connection points: 5
#     Node 2, Type 0, BuildingBlock: XOMCOT_clean_sbu_0, # of connection points: 5
#     Node 3, Type 0, BuildingBlock: XOMCOT_clean_sbu_0, # of connection points: 5
#     Node 4, Type 0, BuildingBlock: XOMCOT_clean_sbu_0, # of connection points: 5
#     Node 5, Type 0, BuildingBlock: XOMCOT_clean_sbu_0, # of connection points: 5
#     Node 6, Type 0, BuildingBlock: XOMCOT_clean_sbu_0, # of connection points: 5
#     Node 7, Type 0, BuildingBlock: XOMCOT_clean_sbu_0, # of connection points: 5
#     Node 8, Type 0, BuildingBlock: XOMCOT_clean_sbu_0, # of connection points: 5
#     Node 9, Type 0, BuildingBlock: XOMCOT_clean_sbu_0, # of connection points: 5
#     Node 10, Type 0, BuildingBlock: XOMCOT_clean_sbu_0, # of connection points: 5
#     Node 11, Type 0, BuildingBlock: XOMCOT_clean_sbu_0, # of connection points: 5
#     Node 12, Type 0, BuildingBlock: XOMCOT_clean_sbu_0, # of connection points: 5
#     Node 13, Type 0, BuildingBlock: XOMCOT_clean_sbu_0, # of connection points: 5
#     Node 14, Type 0, BuildingBlock: XOMCOT_clean_sbu_0, # of connection points: 5
#     Node 15, Type 0, BuildingBlock: XOMCOT_clean_sbu_0, # of connection points: 5
#     Node 16, Type 0, BuildingBlock: XOMCOT_clean_sbu_0, # of connection points: 5
#     Node 17, Type 0, BuildingBlock: XOMCOT_clean_sbu_0, # of connection points: 5
#     Node 18, Type 0, BuildingBlock: XOMCOT_clean_sbu_0, # of connection points: 5
#     Node 19, Type 0, BuildingBlock: XOMCOT_clean_sbu_0, # of connection points: 5
#     Node 20, Type 0, BuildingBlock: XOMCOT_clean_sbu_0, # of connection points: 5
#     Node 21, Type 0, BuildingBlock: XOMCOT_clean_sbu_0, # of connection points: 5
#     Node 22, Type 0, BuildingBlock: XOMCOT_clean_sbu_0, # of connection points: 5
#     Node 23, Type 0, BuildingBlock: XOMCOT_clean_sbu_0, # of connection points: 5
#     Node 24, Type 0, BuildingBlock: XOMCOT_clean_sbu_0, # of connection points: 5
#     Node 25, Type 0, BuildingBlock: XOMCOT_clean_sbu_0, # of connection points: 5
#     Node 26, Type 0, BuildingBlock: XOMCOT_clean_sbu_0, # of connection points: 5
#     Node 27, Type 0, BuildingBlock: XOMCOT_clean_sbu_0, # of connection points: 5
#     Node 28, Type 0, BuildingBlock: XOMCOT_clean_sbu_0, # of connection points: 5
#     Node 29, Type 0, BuildingBlock: XOMCOT_clean_sbu_0, # of connection points: 5
#     Node 30, Type 0, BuildingBlock: XOMCOT_clean_sbu_0, # of connection points: 5
#     Node 31, Type 0, BuildingBlock: XOMCOT_clean_sbu_0, # of connection points: 5
#     Edge 32, Type (0, 0), BuildingBlock: UVAHIK_clean_linker_0, # of connection points: 2
#     Edge 33, Type (0, 0), BuildingBlock: UVAHIK_clean_linker_0, # of connection points: 2
#     Edge 34, Type (0, 0), BuildingBlock: UVAHIK_clean_linker_0, # of connection points: 2
#     Edge 35, Type (0, 0), BuildingBlock: UVAHIK_clean_linker_0, # of connection points: 2
#     Edge 36, Type (0, 0), BuildingBlock: UVAHIK_clean_linker_0, # of connection points: 2
#     Edge 37, Type (0, 0), BuildingBlock: UVAHIK_clean_linker_0, # of connection points: 2
#     Edge 38, Type (0, 0), BuildingBlock: UVAHIK_clean_linker_0, # of connection points: 2
#     Edge 39, Type (0, 0), BuildingBlock: UVAHIK_clean_linker_0, # of connection points: 2
#     Edge 40, Type (0, 0), BuildingBlock: UVAHIK_clean_linker_0, # of connection points: 2
#     Edge 41, Type (0, 0), BuildingBlock: UVAHIK_clean_linker_0, # of connection points: 2
#     Edge 42, Type (0, 0), BuildingBlock: UVAHIK_clean_linker_0, # of connection points: 2
#     Edge 43, Type (0, 0), BuildingBlock: UVAHIK_clean_linker_0, # of connection points: 2
#     Edge 44, Type (0, 0), BuildingBlock: UVAHIK_clean_linker_0, # of connection points: 2
#     Edge 45, Type (0, 0), BuildingBlock: UVAHIK_clean_linker_0, # of connection points: 2
#     Edge 46, Type (0, 0), BuildingBlock: UVAHIK_clean_linker_0, # of connection points: 2
#     Edge 47, Type (0, 0), BuildingBlock: UVAHIK_clean_linker_0, # of connection points: 2
#     Edge 48, Type (0, 0), BuildingBlock: UVAHIK_clean_linker_0, # of connection points: 2
#     Edge 49, Type (0, 0), BuildingBlock: UVAHIK_clean_linker_0, # of connection points: 2
#     Edge 50, Type (0, 0), BuildingBlock: UVAHIK_clean_linker_0, # of connection points: 2
#     Edge 51, Type (0, 0), BuildingBlock: UVAHIK_clean_linker_0, # of connection points: 2
#     Edge 52, Type (0, 0), BuildingBlock: UVAHIK_clean_linker_0, # of connection points: 2
#     Edge 53, Type (0, 0), BuildingBlock: UVAHIK_clean_linker_0, # of connection points: 2
#     Edge 54, Type (0, 0), BuildingBlock: UVAHIK_clean_linker_0, # of connection points: 2
#     Edge 55, Type (0, 0), BuildingBlock: UVAHIK_clean_linker_0, # of connection points: 2
#     Edge 56, Type (0, 0), BuildingBlock: UVAHIK_clean_linker_0, # of connection points: 2
#     Edge 57, Type (0, 0), BuildingBlock: UVAHIK_clean_linker_0, # of connection points: 2
#     Edge 58, Type (0, 0), BuildingBlock: UVAHIK_clean_linker_0, # of connection points: 2
#     Edge 59, Type (0, 0), BuildingBlock: UVAHIK_clean_linker_0, # of connection points: 2
#     Edge 60, Type (0, 0), BuildingBlock: UVAHIK_clean_linker_0, # of connection points: 2
#     Edge 61, Type (0, 0), BuildingBlock: UVAHIK_clean_linker_0, # of connection points: 2
#     Edge 62, Type (0, 0), BuildingBlock: UVAHIK_clean_linker_0, # of connection points: 2
#     Edge 63, Type (0, 0), BuildingBlock: UVAHIK_clean_linker_0, # of connection points: 2
#     Edge 64, Type (0, 0), BuildingBlock: UVAHIK_clean_linker_0, # of connection points: 2
#     Edge 65, Type (0, 0), BuildingBlock: UVAHIK_clean_linker_0, # of connection points: 2
#     Edge 66, Type (0, 0), BuildingBlock: UVAHIK_clean_linker_0, # of connection points: 2
#     Edge 67, Type (0, 0), BuildingBlock: UVAHIK_clean_linker_0, # of connection points: 2
#     Edge 68, Type (0, 0), BuildingBlock: UVAHIK_clean_linker_0, # of connection points: 2
#     Edge 69, Type (0, 0), BuildingBlock: UVAHIK_clean_linker_0, # of connection points: 2
#     Edge 70, Type (0, 0), BuildingBlock: UVAHIK_clean_linker_0, # of connection points: 2
#     Edge 71, Type (0, 0), BuildingBlock: UVAHIK_clean_linker_0, # of connection points: 2
#     Edge 72, Type (0, 0), BuildingBlock: UVAHIK_clean_linker_0, # of connection points: 2
#     Edge 73, Type (0, 0), BuildingBlock: UVAHIK_clean_linker_0, # of connection points: 2
#     Edge 74, Type (0, 0), BuildingBlock: UVAHIK_clean_linker_0, # of connection points: 2
#     Edge 75, Type (0, 0), BuildingBlock: UVAHIK_clean_linker_0, # of connection points: 2
#     Edge 76, Type (0, 0), BuildingBlock: UVAHIK_clean_linker_0, # of connection points: 2
#     Edge 77, Type (0, 0), BuildingBlock: UVAHIK_clean_linker_0, # of connection points: 2
#     Edge 78, Type (0, 0), BuildingBlock: UVAHIK_clean_linker_0, # of connection points: 2
#     Edge 79, Type (0, 0), BuildingBlock: UVAHIK_clean_linker_0, # of connection points: 2
#     Edge 80, Type (0, 0), BuildingBlock: UVAHIK_clean_linker_0, # of connection points: 2
#     Edge 81, Type (0, 0), BuildingBlock: UVAHIK_clean_linker_0, # of connection points: 2
#     Edge 82, Type (0, 0), BuildingBlock: UVAHIK_clean_linker_0, # of connection points: 2
#     Edge 83, Type (0, 0), BuildingBlock: UVAHIK_clean_linker_0, # of connection points: 2
#     Edge 84, Type (0, 0), BuildingBlock: UVAHIK_clean_linker_0, # of connection points: 2
#     Edge 85, Type (0, 0), BuildingBlock: UVAHIK_clean_linker_0, # of connection points: 2
#     Edge 86, Type (0, 0), BuildingBlock: UVAHIK_clean_linker_0, # of connection points: 2
#     Edge 87, Type (0, 0), BuildingBlock: UVAHIK_clean_linker_0, # of connection points: 2
#     Edge 88, Type (0, 0), BuildingBlock: UVAHIK_clean_linker_0, # of connection points: 2
#     Edge 89, Type (0, 0), BuildingBlock: UVAHIK_clean_linker_0, # of connection points: 2
#     Edge 90, Type (0, 0), BuildingBlock: UVAHIK_clean_linker_0, # of connection points: 2
#     Edge 91, Type (0, 0), BuildingBlock: UVAHIK_clean_linker_0, # of connection points: 2
#     Edge 92, Type (0, 0), BuildingBlock: UVAHIK_clean_linker_0, # of connection points: 2
#     Edge 93, Type (0, 0), BuildingBlock: UVAHIK_clean_linker_0, # of connection points: 2
#     Edge 94, Type (0, 0), BuildingBlock: UVAHIK_clean_linker_0, # of connection points: 2
#     Edge 95, Type (0, 0), BuildingBlock: UVAHIK_clean_linker_0, # of connection points: 2
#     Edge 96, Type (0, 0), BuildingBlock: UVAHIK_clean_linker_0, # of connection points: 2
#     Edge 97, Type (0, 0), BuildingBlock: UVAHIK_clean_linker_0, # of connection points: 2
#     Edge 98, Type (0, 0), BuildingBlock: UVAHIK_clean_linker_0, # of connection points: 2
#     Edge 99, Type (0, 0), BuildingBlock: UVAHIK_clean_linker_0, # of connection points: 2
#     Edge 100, Type (0, 0), BuildingBlock: UVAHIK_clean_linker_0, # of connection points: 2
#     Edge 101, Type (0, 0), BuildingBlock: UVAHIK_clean_linker_0, # of connection points: 2
#     Edge 102, Type (0, 0), BuildingBlock: UVAHIK_clean_linker_0, # of connection points: 2
#     Edge 103, Type (0, 0), BuildingBlock: UVAHIK_clean_linker_0, # of connection points: 2
#     Edge 104, Type (0, 0), BuildingBlock: UVAHIK_clean_linker_0, # of connection points: 2
#     Edge 105, Type (0, 0), BuildingBlock: UVAHIK_clean_linker_0, # of connection points: 2
#     Edge 106, Type (0, 0), BuildingBlock: UVAHIK_clean_linker_0, # of connection points: 2
#     Edge 107, Type (0, 0), BuildingBlock: UVAHIK_clean_linker_0, # of connection points: 2
#     Edge 108, Type (0, 0), BuildingBlock: UVAHIK_clean_linker_0, # of connection points: 2
#     Edge 109, Type (0, 0), BuildingBlock: UVAHIK_clean_linker_0, # of connection points: 2
#     Edge 110, Type (0, 0), BuildingBlock: UVAHIK_clean_linker_0, # of connection points: 2
#     Edge 111, Type (0, 0), BuildingBlock: UVAHIK_clean_linker_0, # of connection points: 2
# Relax obj value: 0.215
# Max RMSD: 0.215
# Mean RMSD: 0.215
data_MOF--net-wgh--node1-XOMCOT_clean_sbu_0--edge1-UVAHIK_clean_linker_0
_symmetry_space_group_name_H-M    P1
_symmetry_Int_Tables_number       1
_symmetry_cell_setting            triclinic
loop_
_symmetry_equiv_pos_as_xyz
'x, y, z'
_cell_length_a     122.27546
_cell_length_b     122.22834
_cell_length_c     24.921717
_cell_angle_alpha  90.001641
_cell_angle_beta   90.012557
_cell_angle_gamma 89.992576
loop_
_atom_site_label
_atom_site_type_symbol
_atom_site_fract_x
_atom_site_fract_y
_atom_site_fract_z
_atom_type_partial_charge
Co0 Co 0.16655 0.18036 0.41308 0.0
C1 C 0.16493 0.19573 0.50536 0.0
C2 C 0.16759 0.1791 0.52951 0.0
C3 C 0.16627 0.18541 0.57479 0.0
N4 N 0.1667 0.18557 0.48611 0.0
N5 N 0.16457 0.19589 0.55962 0.0
H6 H 0.16388 0.20285 0.48032 0.0
H7 H 0.16881 0.17034 0.52821 0.0
C8 C 0.1469 0.1701 0.44055 0.0
O9 O 0.1543 0.16263 0.45128 0.0
N10 N 0.16635 0.17488 0.34059 0.0
C11 C 0.17257 0.17829 0.29927 0.0
C12 C 0.16985 0.17229 0.25438 0.0
C13 C 0.15997 0.16688 0.32061 0.0
N14 N 0.16189 0.16515 0.26796 0.0
C15 C 0.18898 0.18684 0.42191 0.0
C16 C 0.19738 0.16595 0.40973 0.0
C17 C 0.20465 0.17481 0.41414 0.0
C18 C 0.20028 0.18536 0.42059 0.0
C19 C 0.1861 0.16782 0.41078 0.0
N20 N 0.18211 0.17816 0.41591 0.0
H21 H 0.18577 0.195 0.4273 0.0
H22 H 0.18049 0.16102 0.40677 0.0
H23 H 0.17863 0.18473 0.30159 0.0
H24 H 0.1541 0.16233 0.34405 0.0
O25 O 0.16778 0.19551 0.38493 0.0
O26 O 0.1522 0.1883 0.39718 0.0
O27 O 0.15 0.1792 0.41919 0.0
C28 C 0.15758 0.19672 0.38059 0.0
H29 H 0.16626 0.18239 0.61557 0.0
H30 H 0.17329 0.17325 0.21467 0.0
H31 H 0.20036 0.15764 0.40571 0.0
H32 H 0.2055 0.19248 0.42359 0.0
Co33 Co 0.06693 0.91378 0.66806 0.0
C34 C 0.04731 0.91322 0.74063 0.0
C35 C 0.06017 0.90261 0.76616 0.0
C36 C 0.05119 0.90054 0.79706 0.0
N37 N 0.058 0.91085 0.73161 0.0
N38 N 0.04303 0.90716 0.78106 0.0
H39 H 0.04249 0.91857 0.71547 0.0
H40 H 0.0673 0.89743 0.76537 0.0
C41 C 0.08378 0.91052 0.75204 0.0
O42 O 0.07883 0.91847 0.77799 0.0
N43 N 0.07576 0.91555 0.60462 0.0
C44 C 0.07501 0.92293 0.56467 0.0
C45 C 0.08168 0.91953 0.52301 0.0
C46 C 0.08272 0.90784 0.58699 0.0
N47 N 0.08644 0.90996 0.5371 0.0
C48 C 0.06222 0.9355 0.70326 0.0
C49 C 0.08301 0.94394 0.68941 0.0
C50 C 0.07432 0.95112 0.70014 0.0
C51 C 0.06391 0.9467 0.70883 0.0
C52 C 0.08095 0.9327 0.68443 0.0
N53 N 0.0706 0.92861 0.69065 0.0
H54 H 0.05398 0.93253 0.70578 0.0
H55 H 0.08759 0.92733 0.67305 0.0
H56 H 0.06961 0.92994 0.56473 0.0
H57 H 0.08463 0.90056 0.60977 0.0
O58 O 0.05417 0.9176 0.62821 0.0
O59 O 0.06059 0.90068 0.63548 0.0
O60 O 0.08014 0.90746 0.70624 0.0
C61 C 0.05318 0.90734 0.61633 0.0
H62 H 0.05046 0.89387 0.82538 0.0
H63 H 0.08247 0.92348 0.48435 0.0
H64 H 0.09117 0.94703 0.68205 0.0
H65 H 0.05698 0.95191 0.7178 0.0
Co66 Co 0.33802 0.81308 0.92257 0.0
C67 C 0.33662 0.79451 0.00093 0.0
C68 C 0.3401 0.80983 0.03904 0.0
C69 C 0.3405 0.80177 0.07711 0.0
N70 N 0.33763 0.80537 0.991 0.0
N71 N 0.33837 0.79211 0.05327 0.0
H72 H 0.33494 0.78843 0.97056 0.0
H73 H 0.34215 0.81829 0.0462 0.0
C74 C 0.34814 0.83472 0.95119 0.0
O75 O 0.341 0.83966 0.92009 0.0
N76 N 0.33898 0.82078 0.85453 0.0
C77 C 0.33135 0.82288 0.81678 0.0
C78 C 0.33614 0.82871 0.77569 0.0
C79 C 0.34834 0.82498 0.8347 0.0
N80 N 0.34681 0.83011 0.78741 0.0
C81 C 0.3153 0.81812 0.91607 0.0
C82 C 0.31431 0.83423 0.99342 0.0
C83 C 0.30498 0.83195 0.96283 0.0
C84 C 0.30551 0.82361 0.92469 0.0
C85 C 0.32406 0.82858 0.98295 0.0
N86 N 0.32465 0.82099 0.94253 0.0
H87 H 0.31526 0.81159 0.88708 0.0
H88 H 0.33102 0.83045 0.00757 0.0
H89 H 0.3229 0.82041 0.81795 0.0
H90 H 0.35613 0.82437 0.85509 0.0
O91 O 0.33119 0.80096 0.88699 0.0
O92 O 0.34908 0.80292 0.89577 0.0
O93 O 0.34801 0.82432 0.95616 0.0
C94 C 0.3409 0.79729 0.87661 0.0
H95 H 0.34284 0.80289 0.11861 0.0
H96 H 0.332 0.83191 0.74064 0.0
H97 H 0.31412 0.84041 0.02459 0.0
H98 H 0.29834 0.82122 0.90192 0.0
Co99 Co 0.43095 0.08294 0.1488 0.0
C100 C 0.45106 0.08278 0.21797 0.0
C101 C 0.4363 0.08076 0.26328 0.0
C102 C 0.44494 0.08097 0.29836 0.0
N103 N 0.44007 0.08173 0.2126 0.0
N104 N 0.45419 0.08229 0.26992 0.0
H105 H 0.45669 0.08402 0.18516 0.0
H106 H 0.42783 0.08045 0.27487 0.0
C107 C 0.41021 0.09354 0.18868 0.0
O108 O 0.4044 0.08739 0.1561 0.0
N109 N 0.42185 0.08442 0.0854 0.0
C110 C 0.41834 0.07657 0.05148 0.0
C111 C 0.41173 0.08128 0.01326 0.0
C112 C 0.41766 0.09385 0.06601 0.0
N113 N 0.41125 0.09213 0.02271 0.0
C114 C 0.42743 0.05987 0.1431 0.0
C115 C 0.41092 0.05792 0.21791 0.0
C116 C 0.41434 0.04862 0.18987 0.0
C117 C 0.42277 0.04968 0.15253 0.0
C118 C 0.4157 0.06808 0.20653 0.0
N119 N 0.4237 0.06909 0.16823 0.0
H120 H 0.43392 0.06022 0.11406 0.0
H121 H 0.41301 0.07493 0.22993 0.0
H122 H 0.42034 0.068 0.05371 0.0
H123 H 0.41886 0.10174 0.08488 0.0
O124 O 0.44232 0.07695 0.10442 0.0
O125 O 0.44032 0.0946 0.12128 0.0
O126 O 0.42058 0.09238 0.1915 0.0
C127 C 0.44557 0.08688 0.09609 0.0
H128 H 0.44442 0.08071 0.34172 0.0
H129 H 0.40757 0.07704 0.98107 0.0
H130 H 0.40459 0.05736 0.24816 0.0
H131 H 0.4259 0.04262 0.13117 0.0
Co132 Co 0.15942 0.8172 0.10092 0.0
C133 C 0.15889 0.79845 0.02317 0.0
C134 C 0.15613 0.81391 0.98491 0.0
C135 C 0.15518 0.80583 0.94705 0.0
N136 N 0.15856 0.80937 0.03285 0.0
N137 N 0.15686 0.79612 0.97106 0.0
H138 H 0.16036 0.79229 0.05341 0.0
H139 H 0.15457 0.82247 0.97769 0.0
C140 C 0.15125 0.83965 0.07403 0.0
O141 O 0.15917 0.84366 0.10379 0.0
N142 N 0.15974 0.82501 0.16894 0.0
C143 C 0.16785 0.82623 0.20515 0.0
C144 C 0.1641 0.83261 0.24686 0.0
C145 C 0.15108 0.83026 0.19047 0.0
N146 N 0.15356 0.83525 0.23729 0.0
C147 C 0.18258 0.82032 0.10161 0.0
C148 C 0.18403 0.83617 0.02318 0.0
C149 C 0.19353 0.83311 0.05086 0.0
C150 C 0.19272 0.82486 0.08954 0.0
C151 C 0.17401 0.83133 0.0364 0.0
N152 N 0.17322 0.82393 0.07753 0.0
H153 H 0.18239 0.81386 0.13092 0.0
H154 H 0.16699 0.8337 0.01326 0.0
H155 H 0.17591 0.82272 0.20258 0.0
H156 H 0.14321 0.83073 0.17082 0.0
O157 O 0.16558 0.80461 0.13545 0.0
O158 O 0.14784 0.80796 0.13065 0.0
O159 O 0.15015 0.82929 0.06895 0.0
C160 C 0.15573 0.8017 0.14806 0.0
H161 H 0.15284 0.80699 0.90554 0.0
H162 H 0.16881 0.83507 0.28155 0.0
H163 H 0.18429 0.84231 0.9919 0.0
H164 H 0.1999 0.82178 0.11004 0.0
Co165 Co 0.43614 0.90291 0.34878 0.0
C166 C 0.45346 0.90168 0.26383 0.0
C167 C 0.43743 0.89846 0.23293 0.0
C168 C 0.44482 0.89714 0.19215 0.0
N169 N 0.44278 0.90134 0.27815 0.0
N170 N 0.45492 0.89905 0.21156 0.0
H171 H 0.46008 0.90343 0.29123 0.0
H172 H 0.42875 0.89705 0.22943 0.0
C173 C 0.4133 0.8943 0.33209 0.0
O174 O 0.40938 0.90226 0.36187 0.0
N175 N 0.42944 0.90397 0.41915 0.0
C176 C 0.42812 0.9126 0.45237 0.0
C177 C 0.42256 0.90916 0.49746 0.0
C178 C 0.42504 0.8954 0.44545 0.0
N179 N 0.4206 0.89835 0.49281 0.0
C180 C 0.43359 0.92613 0.34457 0.0
C181 C 0.41625 0.92711 0.27392 0.0
C182 C 0.42008 0.93683 0.29713 0.0
C183 C 0.42904 0.93624 0.33189 0.0
C184 C 0.42107 0.91712 0.28778 0.0
N185 N 0.42929 0.91661 0.32509 0.0
H186 H 0.44054 0.92605 0.37109 0.0
H187 H 0.4181 0.90991 0.26798 0.0
H188 H 0.43093 0.92082 0.44531 0.0
H189 H 0.4247 0.88722 0.4289 0.0
O190 O 0.44943 0.90898 0.3772 0.0
O191 O 0.44546 0.8913 0.37698 0.0
O192 O 0.42357 0.89354 0.32354 0.0
C193 C 0.45222 0.89909 0.39017 0.0
H194 H 0.44284 0.89483 0.15137 0.0
H195 H 0.42014 0.91425 0.53097 0.0
H196 H 0.40951 0.9272 0.2457 0.0
H197 H 0.43262 0.94356 0.3489 0.0
Co198 Co 0.34852 0.18701 0.58738 0.0
C199 C 0.34877 0.20339 0.49918 0.0
C200 C 0.36405 0.19494 0.50829 0.0
C201 C 0.3652 0.20262 0.46858 0.0
N202 N 0.35377 0.19539 0.52727 0.0
N203 N 0.3556 0.20797 0.4627 0.0
H204 H 0.34039 0.20588 0.50602 0.0
H205 H 0.37041 0.18964 0.52361 0.0
C206 C 0.35501 0.16421 0.56176 0.0
O207 O 0.34542 0.16122 0.58049 0.0
N208 N 0.34401 0.17848 0.64956 0.0
C209 C 0.33417 0.17566 0.67014 0.0
C210 C 0.33581 0.16899 0.71411 0.0
C211 C 0.3514 0.17369 0.68223 0.0
N212 N 0.34666 0.16781 0.72151 0.0
C213 C 0.32595 0.18564 0.55908 0.0
C214 C 0.3283 0.1734 0.46658 0.0
C215 C 0.3178 0.17586 0.48535 0.0
C216 C 0.31668 0.18228 0.53135 0.0
C217 C 0.33742 0.1768 0.49637 0.0
N218 N 0.33612 0.18221 0.54408 0.0
H219 H 0.32489 0.19093 0.5933 0.0
H220 H 0.34549 0.17513 0.48083 0.0
H221 H 0.32628 0.17799 0.65507 0.0
H222 H 0.36014 0.17414 0.67571 0.0
O223 O 0.34191 0.19983 0.61702 0.0
O224 O 0.35891 0.19459 0.63384 0.0
O225 O 0.35777 0.1743 0.56258 0.0
C226 C 0.35104 0.20162 0.64187 0.0
H227 H 0.37271 0.20441 0.44741 0.0
H228 H 0.32951 0.16525 0.7385 0.0
H229 H 0.32943 0.16882 0.42978 0.0
H230 H 0.30868 0.18475 0.54553 0.0
Co231 Co 0.06584 0.10006 0.85599 0.0
C232 C 0.04433 0.10001 0.79366 0.0
C233 C 0.04811 0.11512 0.833 0.0
C234 C 0.03834 0.11635 0.80686 0.0
N235 N 0.05189 0.10484 0.82567 0.0
N236 N 0.03599 0.10688 0.78207 0.0
H237 H 0.04492 0.09186 0.77748 0.0
H238 H 0.05232 0.1215 0.8548 0.0
C239 C 0.07149 0.11131 0.7548 0.0
O240 O 0.06402 0.10508 0.73246 0.0
N241 N 0.07966 0.09612 0.88755 0.0
C242 C 0.08306 0.08622 0.9044 0.0
C243 C 0.09283 0.08753 0.93136 0.0
C244 C 0.08727 0.10327 0.90451 0.0
N245 N 0.09543 0.09828 0.93157 0.0
C246 C 0.05991 0.07929 0.81339 0.0
C247 C 0.07861 0.07593 0.7533 0.0
C248 C 0.07104 0.06739 0.75862 0.0
C249 C 0.06151 0.06924 0.7883 0.0
C250 C 0.07655 0.08601 0.7781 0.0
N251 N 0.06722 0.08763 0.80748 0.0
H252 H 0.0529 0.08023 0.83936 0.0
H253 H 0.08278 0.09226 0.77654 0.0
H254 H 0.07857 0.07868 0.89923 0.0
H255 H 0.08643 0.11203 0.89995 0.0
O256 O 0.05839 0.09257 0.91309 0.0
O257 O 0.06327 0.11002 0.91574 0.0
O258 O 0.07361 0.11028 0.80483 0.0
C259 C 0.05855 0.10174 0.93913 0.0
H260 H 0.03355 0.12378 0.80445 0.0
H261 H 0.09747 0.08109 0.95055 0.0
H262 H 0.08619 0.07472 0.7316 0.0
H263 H 0.05562 0.06275 0.79475 0.0
Co264 Co 0.83883 0.81748 0.59687 0.0
C265 C 0.83981 0.79846 0.52109 0.0
C266 C 0.84293 0.81378 0.48202 0.0
C267 C 0.84342 0.80563 0.44425 0.0
N268 N 0.84057 0.80936 0.5303 0.0
N269 N 0.84151 0.79603 0.46889 0.0
H270 H 0.83792 0.79241 0.55131 0.0
H271 H 0.84432 0.82236 0.47431 0.0
C272 C 0.84958 0.83927 0.57298 0.0
O273 O 0.84196 0.8445 0.59997 0.0
N274 N 0.83734 0.82563 0.66331 0.0
C275 C 0.8283 0.82761 0.69278 0.0
C276 C 0.83113 0.83403 0.73601 0.0
C277 C 0.84558 0.8305 0.69025 0.0
N278 N 0.84198 0.83594 0.73396 0.0
C279 C 0.81586 0.82045 0.58346 0.0
C280 C 0.81621 0.83805 0.51421 0.0
C281 C 0.80618 0.83458 0.53539 0.0
C282 C 0.80609 0.82541 0.56883 0.0
C283 C 0.82588 0.83278 0.52992 0.0
N284 N 0.82572 0.82449 0.56693 0.0
H285 H 0.81537 0.81352 0.60999 0.0
H286 H 0.83338 0.83551 0.51192 0.0
H287 H 0.82018 0.82471 0.68404 0.0
H288 H 0.85402 0.83025 0.67725 0.0
O289 O 0.83186 0.80516 0.63024 0.0
O290 O 0.84968 0.80826 0.63229 0.0
O291 O 0.84917 0.82888 0.56772 0.0
C292 C 0.84145 0.8022 0.64694 0.0
H293 H 0.84523 0.80663 0.402 0.0
H294 H 0.82556 0.83732 0.76563 0.0
H295 H 0.81662 0.8449 0.48672 0.0
H296 H 0.79849 0.82209 0.58415 0.0
Co297 Co 0.93662 0.09013 0.34023 0.0
C298 C 0.95846 0.09011 0.2838 0.0
C299 C 0.94835 0.10385 0.26444 0.0
C300 C 0.95845 0.10555 0.24225 0.0
N301 N 0.94813 0.09402 0.28942 0.0
N302 N 0.96474 0.09691 0.25431 0.0
H303 H 0.96173 0.08312 0.30477 0.0
H304 H 0.94187 0.10986 0.26576 0.0
C305 C 0.92441 0.09674 0.24331 0.0
O306 O 0.93081 0.08989 0.21745 0.0
N307 N 0.92528 0.08723 0.39192 0.0
C308 C 0.92428 0.07865 0.42552 0.0
C309 C 0.91606 0.08094 0.46186 0.0
C310 C 0.91774 0.09455 0.40793 0.0
N311 N 0.91198 0.09095 0.45054 0.0
C312 C 0.94155 0.06875 0.29966 0.0
C313 C 0.92026 0.06263 0.27746 0.0
C314 C 0.92869 0.05501 0.2704 0.0
C315 C 0.93944 0.05822 0.28117 0.0
C316 C 0.92278 0.07323 0.29487 0.0
N317 N 0.93336 0.07623 0.30525 0.0
H318 H 0.9497 0.0706 0.31257 0.0
H319 H 0.91616 0.07891 0.302 0.0
H320 H 0.92948 0.07149 0.4251 0.0
H321 H 0.917 0.10267 0.39092 0.0
O322 O 0.94726 0.08476 0.38984 0.0
O323 O 0.9418 0.10207 0.38516 0.0
O324 O 0.92557 0.09804 0.29396 0.0
C325 C 0.94795 0.09468 0.40801 0.0
H326 H 0.96117 0.1128 0.22113 0.0
H327 H 0.91351 0.0758 0.49491 0.0
H328 H 0.91182 0.06036 0.27049 0.0
H329 H 0.94612 0.05243 0.27819 0.0
Co330 Co 0.65986 0.18522 0.08602 0.0
C331 C 0.65687 0.20262 0.00263 0.0
C332 C 0.66411 0.18793 0.97169 0.0
C333 C 0.66215 0.19488 0.92954 0.0
N334 N 0.66083 0.19275 0.01766 0.0
N335 N 0.65757 0.20408 0.94901 0.0
H336 H 0.65305 0.20841 0.02948 0.0
H337 H 0.66728 0.17969 0.96865 0.0
C338 C 0.64786 0.16391 0.05569 0.0
O339 O 0.64998 0.15902 0.10137 0.0
N340 N 0.65874 0.17765 0.15391 0.0
C341 C 0.66687 0.17424 0.18636 0.0
C342 C 0.66232 0.16869 0.22905 0.0
C343 C 0.6494 0.17469 0.17861 0.0
N344 N 0.65134 0.16884 0.22357 0.0
C345 C 0.6827 0.18519 0.06857 0.0
C346 C 0.68596 0.16282 0.06399 0.0
C347 C 0.69501 0.16982 0.06386 0.0
C348 C 0.69331 0.18111 0.06532 0.0
C349 C 0.67544 0.16725 0.0683 0.0
N350 N 0.67392 0.17832 0.07156 0.0
H351 H 0.68155 0.19394 0.06979 0.0
H352 H 0.6687 0.1617 0.07101 0.0
H353 H 0.6755 0.17537 0.17881 0.0
H354 H 0.64137 0.17621 0.16201 0.0
O355 O 0.66532 0.19778 0.12371 0.0
O356 O 0.64775 0.19457 0.1081 0.0
O357 O 0.65138 0.17357 0.04602 0.0
C358 C 0.65523 0.20083 0.12935 0.0
H359 H 0.66379 0.19322 0.88764 0.0
H360 H 0.66679 0.16436 0.25994 0.0
H361 H 0.68704 0.15403 0.06288 0.0
H362 H 0.70015 0.18674 0.06452 0.0
Co363 Co 0.56607 0.91376 0.84855 0.0
C364 C 0.54848 0.91065 0.76575 0.0
C365 C 0.56325 0.91755 0.73384 0.0
C366 C 0.55596 0.91617 0.69251 0.0
N367 N 0.55857 0.91418 0.77993 0.0
N368 N 0.54668 0.91184 0.71249 0.0
H369 H 0.54258 0.90725 0.79335 0.0
H370 H 0.57152 0.92059 0.73029 0.0
C371 C 0.58796 0.90268 0.82132 0.0
O372 O 0.59253 0.9052 0.8673 0.0
N373 N 0.57356 0.91329 0.917 0.0
C374 C 0.57634 0.9218 0.94852 0.0
C375 C 0.58183 0.91786 0.99272 0.0
C376 C 0.57679 0.90428 0.94393 0.0
N377 N 0.58221 0.90685 0.9894 0.0
C378 C 0.56475 0.93653 0.83013 0.0
C379 C 0.58687 0.94117 0.82739 0.0
C380 C 0.57932 0.94979 0.82741 0.0
C381 C 0.56816 0.94737 0.82766 0.0
C382 C 0.58309 0.93037 0.83082 0.0
N383 N 0.57213 0.92818 0.83351 0.0
H384 H 0.55608 0.93483 0.83081 0.0
H385 H 0.58902 0.92393 0.83363 0.0
H386 H 0.57471 0.93031 0.93971 0.0
H387 H 0.57595 0.89606 0.92829 0.0
O388 O 0.55316 0.9185 0.88569 0.0
O389 O 0.55751 0.90114 0.87076 0.0
O390 O 0.57828 0.90586 0.8097 0.0
C391 C 0.5508 0.90823 0.89188 0.0
H392 H 0.55753 0.91792 0.65064 0.0
H393 H 0.58548 0.92275 0.0242 0.0
H394 H 0.59558 0.94279 0.8271 0.0
H395 H 0.56211 0.95385 0.82682 0.0
Co396 Co 0.84005 0.18238 0.89568 0.0
C397 C 0.83938 0.2017 0.96992 0.0
C398 C 0.84482 0.1871 0.00946 0.0
C399 C 0.84498 0.1955 0.04589 0.0
N400 N 0.84117 0.19087 0.96174 0.0
N401 N 0.84162 0.20466 0.021 0.0
H402 H 0.83658 0.20735 0.93948 0.0
H403 H 0.84753 0.17887 0.01764 0.0
C404 C 0.8492 0.16054 0.92679 0.0
O405 O 0.84104 0.15588 0.90114 0.0
N406 N 0.83942 0.17395 0.82935 0.0
C407 C 0.83137 0.17329 0.79235 0.0
C408 C 0.83488 0.16688 0.75029 0.0
C409 C 0.84785 0.16829 0.80786 0.0
N410 N 0.84521 0.16366 0.76045 0.0
C411 C 0.81707 0.17806 0.89985 0.0
C412 C 0.81695 0.16456 0.98859 0.0
C413 C 0.80707 0.16675 0.9623 0.0
C414 C 0.80722 0.17366 0.91766 0.0
C415 C 0.82669 0.16904 0.96895 0.0
N416 N 0.82678 0.17539 0.92362 0.0
H417 H 0.81674 0.1839 0.86765 0.0
H418 H 0.83405 0.16742 0.9911 0.0
H419 H 0.82358 0.17738 0.79411 0.0
H420 H 0.85584 0.16768 0.8263 0.0
O421 O 0.83315 0.19439 0.8594 0.0
O422 O 0.85107 0.19167 0.86248 0.0
O423 O 0.85 0.17097 0.92814 0.0
C424 C 0.84286 0.19747 0.84492 0.0
H425 H 0.84775 0.19502 0.0871 0.0
H426 H 0.83015 0.16468 0.71517 0.0
H427 H 0.81715 0.15947 0.02416 0.0
H428 H 0.7997 0.17601 0.89771 0.0
Co429 Co 0.56302 0.09389 0.64954 0.0
C430 C 0.54715 0.09183 0.74016 0.0
C431 C 0.55555 0.10726 0.7382 0.0
C432 C 0.54823 0.10746 0.7797 0.0
N433 N 0.55497 0.09747 0.71366 0.0
N434 N 0.54292 0.09779 0.7811 0.0
H435 H 0.54449 0.0837 0.729 0.0
H436 H 0.5606 0.11402 0.72538 0.0
C437 C 0.58553 0.10209 0.67341 0.0
O438 O 0.58945 0.09322 0.65072 0.0
N439 N 0.57121 0.09122 0.58401 0.0
C440 C 0.57401 0.08211 0.55647 0.0
C441 C 0.58018 0.08514 0.51244 0.0
C442 C 0.57545 0.09956 0.55546 0.0
N443 N 0.58104 0.09613 0.51206 0.0
C444 C 0.56632 0.07108 0.66646 0.0
C445 C 0.57953 0.0725 0.75612 0.0
C446 C 0.57755 0.06222 0.7331 0.0
C447 C 0.57064 0.06158 0.68853 0.0
C448 C 0.57513 0.08189 0.73196 0.0
N449 N 0.56918 0.08114 0.6856 0.0
H450 H 0.56067 0.07029 0.6335 0.0
H451 H 0.57648 0.08973 0.75082 0.0
H452 H 0.5719 0.07382 0.5665 0.0
H453 H 0.57478 0.10802 0.56774 0.0
O454 O 0.55038 0.08691 0.61972 0.0
O455 O 0.55427 0.10449 0.6096 0.0
O456 O 0.5752 0.10366 0.6755 0.0
C457 C 0.54775 0.0963 0.59937 0.0
H458 H 0.54654 0.11444 0.80507 0.0
H459 H 0.58372 0.07967 0.48304 0.0
H460 H 0.58447 0.07326 0.79197 0.0
H461 H 0.56844 0.05374 0.67129 0.0
Co462 Co 0.66255 0.82016 0.40535 0.0
C463 C 0.65975 0.80082 0.47761 0.0
C464 C 0.66251 0.8157 0.52106 0.0
C465 C 0.66057 0.80745 0.55741 0.0
N466 N 0.66196 0.81157 0.47094 0.0
N467 N 0.65883 0.79812 0.52995 0.0
H468 H 0.6584 0.7951 0.44525 0.0
H469 H 0.664 0.82421 0.53054 0.0
C470 C 0.64817 0.84016 0.43138 0.0
O471 O 0.6506 0.84528 0.38675 0.0
N472 N 0.66294 0.82855 0.33936 0.0
C473 C 0.67173 0.83268 0.31368 0.0
C474 C 0.66819 0.8381 0.26838 0.0
C475 C 0.65433 0.83082 0.30738 0.0
N476 N 0.65724 0.837 0.26486 0.0
C477 C 0.68406 0.82149 0.44734 0.0
C478 C 0.68612 0.84402 0.44513 0.0
C479 C 0.69518 0.83763 0.4589 0.0
C480 C 0.69402 0.82625 0.46127 0.0
C481 C 0.67619 0.83893 0.43284 0.0
N482 N 0.67535 0.82778 0.43259 0.0
H483 H 0.68341 0.81267 0.44687 0.0
H484 H 0.66948 0.84397 0.42026 0.0
H485 H 0.6801 0.83197 0.32721 0.0
H486 H 0.64598 0.82872 0.31748 0.0
O487 O 0.67002 0.80861 0.36801 0.0
O488 O 0.65197 0.81051 0.3719 0.0
O489 O 0.65227 0.83079 0.44237 0.0
C490 C 0.66041 0.80515 0.35351 0.0
H491 H 0.66041 0.80826 0.60065 0.0
H492 H 0.67326 0.84271 0.24088 0.0
H493 H 0.68677 0.85285 0.44269 0.0
H494 H 0.7009 0.82106 0.4713 0.0
Co495 Co 0.93878 0.90275 0.14605 0.0
C496 C 0.9596 0.90248 0.21463 0.0
C497 C 0.95292 0.88679 0.19479 0.0
C498 C 0.9622 0.88516 0.22426 0.0
N499 N 0.95123 0.89761 0.18801 0.0
N500 N 0.96643 0.89499 0.23671 0.0
H501 H 0.96079 0.91117 0.2185 0.0
H502 H 0.9476 0.88042 0.17968 0.0
C503 C 0.92944 0.89534 0.24923 0.0
O504 O 0.93726 0.90099 0.27254 0.0
N505 N 0.92628 0.9068 0.10356 0.0
C506 C 0.92474 0.91567 0.07247 0.0
C507 C 0.91572 0.91381 0.04024 0.0
C508 C 0.91831 0.89975 0.09019 0.0
N509 N 0.91178 0.90372 0.05114 0.0
C510 C 0.9458 0.92404 0.1765 0.0
C511 C 0.92611 0.9309 0.21929 0.0
C512 C 0.93437 0.93865 0.21019 0.0
C513 C 0.94444 0.93498 0.1904 0.0
C514 C 0.92787 0.91993 0.20551 0.0
N515 N 0.93762 0.91661 0.1841 0.0
H516 H 0.95323 0.92171 0.15616 0.0
H517 H 0.92106 0.91432 0.20803 0.0
H518 H 0.93016 0.92266 0.07091 0.0
H519 H 0.91774 0.89161 0.10692 0.0
O520 O 0.94825 0.90766 0.0897 0.0
O521 O 0.94157 0.89082 0.09588 0.0
O522 O 0.92873 0.89515 0.19809 0.0
C523 C 0.94751 0.8979 0.06982 0.0
H524 H 0.96545 0.87733 0.23682 0.0
H525 H 0.91278 0.91916 0.00879 0.0
H526 H 0.91811 0.93339 0.2334 0.0
H527 H 0.9511 0.94062 0.18304 0.0
Co528 Co 0.65178 0.68858 0.88995 0.0
C529 C 0.65401 0.70874 0.96146 0.0
C530 C 0.63782 0.70216 0.95395 0.0
C531 C 0.63726 0.71133 0.98505 0.0
N532 N 0.64829 0.7004 0.93918 0.0
N533 N 0.64739 0.71552 0.98967 0.0
H534 H 0.66266 0.71009 0.95657 0.0
H535 H 0.63099 0.69707 0.94233 0.0
C536 C 0.64402 0.67793 0.98929 0.0
O537 O 0.65065 0.68466 0.01445 0.0
N538 N 0.6543 0.67683 0.84012 0.0
C539 C 0.6635 0.67407 0.81359 0.0
C540 C 0.66103 0.66568 0.77844 0.0
C541 C 0.64642 0.67028 0.8207 0.0
N542 N 0.65026 0.66342 0.78285 0.0
C543 C 0.67402 0.69234 0.91986 0.0
C544 C 0.67831 0.67144 0.95672 0.0
C545 C 0.687 0.67882 0.95088 0.0
C546 C 0.6847 0.68944 0.93323 0.0
C547 C 0.66772 0.67466 0.94261 0.0
N548 N 0.66562 0.68506 0.9249 0.0
H549 H 0.67268 0.70024 0.90184 0.0
H550 H 0.66138 0.66852 0.94234 0.0
H551 H 0.67133 0.67806 0.81832 0.0
H552 H 0.63796 0.67072 0.83332 0.0
O553 O 0.65736 0.69879 0.83827 0.0
O554 O 0.63993 0.6939 0.84449 0.0
O555 O 0.64341 0.67817 0.938 0.0
C556 C 0.64743 0.69973 0.82073 0.0
H557 H 0.62993 0.71463 0.00328 0.0
H558 H 0.66659 0.66188 0.75024 0.0
H559 H 0.67978 0.66306 0.96879 0.0
H560 H 0.69119 0.69538 0.92775 0.0
Co561 Co 0.56903 0.41455 0.16505 0.0
C562 C 0.55262 0.41008 0.24895 0.0
C563 C 0.55824 0.42664 0.25596 0.0
C564 C 0.55099 0.42461 0.2969 0.0
N565 N 0.55938 0.41748 0.2259 0.0
N566 N 0.54747 0.41424 0.29215 0.0
H567 H 0.55171 0.40171 0.23552 0.0
H568 H 0.56265 0.43419 0.25116 0.0
C569 C 0.58115 0.40687 0.2615 0.0
O570 O 0.57784 0.4158 0.28569 0.0
N571 N 0.57832 0.41145 0.10459 0.0
C572 C 0.58056 0.41827 0.06363 0.0
C573 C 0.58672 0.41273 0.02633 0.0
C574 C 0.58311 0.40186 0.09191 0.0
N575 N 0.5883 0.40242 0.04412 0.0
C576 C 0.57296 0.43748 0.16489 0.0
C577 C 0.59485 0.4369 0.1925 0.0
C578 C 0.58993 0.44693 0.18041 0.0
C579 C 0.57889 0.44716 0.16631 0.0
C580 C 0.58861 0.42729 0.18961 0.0
N581 N 0.57768 0.4277 0.17792 0.0
H582 H 0.56444 0.4379 0.15376 0.0
H583 H 0.59271 0.41955 0.19495 0.0
H584 H 0.57772 0.42663 0.06062 0.0
H585 H 0.58248 0.39454 0.11618 0.0
O586 O 0.55841 0.42087 0.11751 0.0
O587 O 0.55884 0.40337 0.14008 0.0
O588 O 0.57869 0.40517 0.21231 0.0
C589 C 0.55413 0.41121 0.11313 0.0
H590 H 0.54853 0.43027 0.32806 0.0
H591 H 0.58977 0.41602 0.98889 0.0
H592 H 0.60347 0.43646 0.20238 0.0
H593 H 0.57487 0.4548 0.15651 0.0
Co594 Co 0.84384 0.31513 0.39655 0.0
C595 C 0.84347 0.29894 0.48613 0.0
C596 C 0.8582 0.30848 0.48304 0.0
C597 C 0.85921 0.30096 0.52342 0.0
N598 N 0.84834 0.30728 0.45984 0.0
N599 N 0.84997 0.29492 0.52559 0.0
H600 H 0.83549 0.29576 0.47569 0.0
H601 H 0.86446 0.31413 0.46995 0.0
C602 C 0.84996 0.33828 0.42173 0.0
O603 O 0.84067 0.34142 0.40007 0.0
N604 N 0.84017 0.32323 0.33182 0.0
C605 C 0.83062 0.32567 0.30718 0.0
C606 C 0.83275 0.33246 0.26418 0.0
C607 C 0.8479 0.32831 0.30239 0.0
N608 N 0.84363 0.33408 0.26143 0.0
C609 C 0.82088 0.31591 0.41498 0.0
C610 C 0.82084 0.33034 0.50021 0.0
C611 C 0.81089 0.32743 0.47613 0.0
C612 C 0.81098 0.31977 0.43457 0.0
C613 C 0.83067 0.3263 0.47872 0.0
N614 N 0.83059 0.3199 0.43361 0.0
H615 H 0.82067 0.31003 0.38274 0.0
H616 H 0.83828 0.32848 0.49781 0.0
H617 H 0.82259 0.32299 0.31889 0.0
H618 H 0.8565 0.32822 0.31267 0.0
O619 O 0.83806 0.30193 0.36633 0.0
O620 O 0.85513 0.30753 0.35527 0.0
O621 O 0.85251 0.32814 0.42286 0.0
C622 C 0.84761 0.30024 0.34545 0.0
H623 H 0.86648 0.2997 0.5474 0.0
H624 H 0.82676 0.33601 0.23735 0.0
H625 H 0.82103 0.33591 0.53402 0.0
H626 H 0.80343 0.31693 0.4166 0.0
Co627 Co 0.93904 0.59938 0.65626 0.0
C628 C 0.95896 0.59752 0.72936 0.0
C629 C 0.95174 0.61346 0.72459 0.0
C630 C 0.96087 0.61417 0.75596 0.0
N631 N 0.95032 0.60302 0.70845 0.0
N632 N 0.96546 0.60418 0.75887 0.0
H633 H 0.96085 0.58906 0.72156 0.0
H634 H 0.94654 0.62023 0.71313 0.0
C635 C 0.9272 0.60828 0.74974 0.0
O636 O 0.93345 0.60172 0.77817 0.0
N637 N 0.92793 0.59673 0.60312 0.0
C638 C 0.92524 0.58734 0.57803 0.0
C639 C 0.91719 0.58961 0.54072 0.0
C640 C 0.9217 0.60454 0.58059 0.0
N641 N 0.91508 0.60044 0.54232 0.0
C642 C 0.94145 0.57754 0.69714 0.0
C643 C 0.91978 0.57462 0.72539 0.0
C644 C 0.92702 0.5658 0.73019 0.0
C645 C 0.93801 0.56739 0.71635 0.0
C646 C 0.9236 0.58469 0.70669 0.0
N647 N 0.93439 0.58616 0.69378 0.0
H648 H 0.94963 0.5782 0.68154 0.0
H649 H 0.91771 0.59112 0.69981 0.0
H650 H 0.92897 0.57947 0.58569 0.0
H651 H 0.92211 0.61308 0.59179 0.0
O652 O 0.94971 0.5928 0.60987 0.0
O653 O 0.94546 0.61046 0.60968 0.0
O654 O 0.92826 0.60859 0.6986 0.0
C655 C 0.95127 0.60247 0.58983 0.0
H656 H 0.96393 0.62152 0.77499 0.0
H657 H 0.91345 0.58383 0.51342 0.0
H658 H 0.91118 0.57366 0.73462 0.0
H659 H 0.94377 0.56065 0.71736 0.0
Co660 Co 0.66171 0.31466 0.59159 0.0
C661 C 0.66099 0.29743 0.50606 0.0
C662 C 0.66307 0.31355 0.4739 0.0
C663 C 0.6624 0.3063 0.43194 0.0
N664 N 0.66227 0.30803 0.52062 0.0
N665 N 0.66105 0.29618 0.45218 0.0
H666 H 0.65993 0.29072 0.53379 0.0
H667 H 0.66364 0.32232 0.46996 0.0
C668 C 0.65298 0.33746 0.57052 0.0
O669 O 0.6595 0.3416 0.6072 0.0
N670 N 0.66086 0.32128 0.66216 0.0
C671 C 0.66857 0.3218 0.70079 0.0
C672 C 0.66414 0.32674 0.74545 0.0
C673 C 0.65179 0.32561 0.68443 0.0
N674 N 0.6536 0.32919 0.73488 0.0
C675 C 0.68496 0.31582 0.60068 0.0
C676 C 0.68861 0.3346 0.5421 0.0
C677 C 0.69754 0.32938 0.56648 0.0
C678 C 0.69557 0.31978 0.59536 0.0
C679 C 0.67804 0.33033 0.54843 0.0
N680 N 0.6762 0.3212 0.57904 0.0
H681 H 0.68392 0.3084 0.62332 0.0
H682 H 0.67152 0.33439 0.52756 0.0
H683 H 0.67681 0.31873 0.69763 0.0
H684 H 0.644 0.32611 0.66396 0.0
O685 O 0.66645 0.30122 0.6242 0.0
O686 O 0.64913 0.30562 0.61067 0.0
O687 O 0.65333 0.32727 0.55925 0.0
C688 C 0.65623 0.29869 0.62976 0.0
H689 H 0.66243 0.30838 0.38972 0.0
H690 H 0.66839 0.32856 0.78247 0.0
H691 H 0.68975 0.34194 0.51845 0.0
H692 H 0.70221 0.31519 0.61324 0.0
Co693 Co 0.92955 0.41539 0.84031 0.0
C694 C 0.94833 0.4095 0.76869 0.0
C695 C 0.93503 0.41722 0.72711 0.0
C696 C 0.94249 0.4137 0.68983 0.0
N697 N 0.93864 0.41462 0.77665 0.0
N698 N 0.9508 0.40883 0.71598 0.0
H699 H 0.95317 0.40574 0.79998 0.0
H700 H 0.92718 0.4209 0.71841 0.0
C701 C 0.908 0.40502 0.80265 0.0
O702 O 0.90245 0.40874 0.84386 0.0
N703 N 0.92039 0.41586 0.90355 0.0
C704 C 0.91698 0.42463 0.93181 0.0
C705 C 0.91058 0.42103 0.97384 0.0
C706 C 0.91652 0.40709 0.9302 0.0
N707 N 0.9103 0.41 0.9725 0.0
C708 C 0.93234 0.43741 0.81096 0.0
C709 C 0.91067 0.44362 0.80401 0.0
C710 C 0.91883 0.45167 0.80142 0.0
C711 C 0.92978 0.44837 0.80303 0.0
C712 C 0.91361 0.43264 0.81182 0.0
N713 N 0.92436 0.42972 0.81704 0.0
H714 H 0.94086 0.43513 0.81392 0.0
H715 H 0.90721 0.42675 0.81655 0.0
H716 H 0.91894 0.43305 0.92253 0.0
H717 H 0.91775 0.39874 0.91693 0.0
O718 O 0.94141 0.42063 0.88366 0.0
O719 O 0.93747 0.40308 0.8718 0.0
O720 O 0.91819 0.40712 0.79712 0.0
C721 C 0.94354 0.41051 0.89491 0.0
H722 H 0.94172 0.41437 0.64667 0.0
H723 H 0.90643 0.42612 0.00294 0.0
H724 H 0.9021 0.44585 0.80276 0.0
H725 H 0.93636 0.45426 0.79966 0.0
Co726 Co 0.83475 0.6845 0.09715 0.0
C727 C 0.83449 0.70428 0.02579 0.0
C728 C 0.8366 0.68934 0.98192 0.0
C729 C 0.83664 0.69785 0.94611 0.0
N730 N 0.83513 0.69329 0.03203 0.0
N731 N 0.83537 0.70721 0.97373 0.0
H732 H 0.8334 0.71007 0.05812 0.0
H733 H 0.83786 0.68087 0.97153 0.0
C734 C 0.84462 0.66298 0.06226 0.0
O735 O 0.83752 0.65758 0.09166 0.0
N736 N 0.83474 0.67564 0.16184 0.0
C737 C 0.82633 0.67239 0.19312 0.0
C738 C 0.83032 0.66582 0.23348 0.0
C739 C 0.84374 0.67126 0.18477 0.0
N740 N 0.84125 0.6651 0.22799 0.0
C741 C 0.81161 0.68168 0.09602 0.0
C742 C 0.81 0.6665 0.01445 0.0
C743 C 0.80051 0.66991 0.04097 0.0
C744 C 0.8014 0.67763 0.08186 0.0
C745 C 0.82019 0.67059 0.03088 0.0
N746 N 0.82098 0.6779 0.07245 0.0
H747 H 0.81187 0.68775 0.12727 0.0
H748 H 0.82728 0.66793 0.00909 0.0
H749 H 0.81786 0.67452 0.18791 0.0
H750 H 0.85191 0.67223 0.16872 0.0
O751 O 0.82861 0.6965 0.13683 0.0
O752 O 0.84635 0.6934 0.1288 0.0
O753 O 0.84431 0.67341 0.06003 0.0
C754 C 0.83851 0.69936 0.14879 0.0
H755 H 0.83786 0.69726 0.90317 0.0
H756 H 0.82554 0.6619 0.26458 0.0
H757 H 0.80955 0.66072 0.9816 0.0
H758 H 0.79419 0.68069 0.10226 0.0
Co759 Co 0.56435 0.58808 0.33553 0.0
C760 C 0.54554 0.58849 0.25825 0.0
C761 C 0.56078 0.59272 0.22107 0.0
C762 C 0.55273 0.59316 0.18284 0.0
N763 N 0.55636 0.58969 0.26846 0.0
N764 N 0.54318 0.59055 0.20627 0.0
H765 H 0.53949 0.58613 0.28769 0.0
H766 H 0.56926 0.59473 0.2143 0.0
C767 C 0.58588 0.59935 0.3133 0.0
O768 O 0.5911 0.59178 0.34064 0.0
N769 N 0.57238 0.58681 0.40248 0.0
C770 C 0.57528 0.57781 0.43053 0.0
C771 C 0.58148 0.58098 0.47396 0.0
C772 C 0.57647 0.5953 0.43057 0.0
N773 N 0.58226 0.59197 0.47365 0.0
C774 C 0.5685 0.56522 0.32196 0.0
C775 C 0.58545 0.5666 0.24918 0.0
C776 C 0.58261 0.55635 0.26998 0.0
C777 C 0.57383 0.55572 0.30575 0.0
C778 C 0.57992 0.57596 0.26687 0.0
N779 N 0.57192 0.57531 0.30526 0.0
H780 H 0.56179 0.56438 0.34965 0.0
H781 H 0.58219 0.58362 0.24906 0.0
H782 H 0.57319 0.56949 0.42079 0.0
H783 H 0.57572 0.60374 0.41794 0.0
O784 O 0.55216 0.5806 0.36799 0.0
O785 O 0.55465 0.59852 0.37048 0.0
O786 O 0.57551 0.59885 0.30762 0.0
C787 C 0.54881 0.59008 0.38461 0.0
H788 H 0.55375 0.5955 0.14124 0.0
H789 H 0.58521 0.5756 0.50321 0.0
H790 H 0.59199 0.56741 0.22017 0.0
H791 H 0.57105 0.54791 0.32113 0.0
Co792 Co 0.33687 0.31879 0.08661 0.0
C793 C 0.3375 0.2988 0.01725 0.0
C794 C 0.33426 0.31342 0.97248 0.0
C795 C 0.33475 0.3048 0.93728 0.0
N796 N 0.33585 0.30969 0.02285 0.0
N797 N 0.33683 0.29564 0.96545 0.0
H798 H 0.33925 0.29324 0.04982 0.0
H799 H 0.33323 0.32188 0.96132 0.0
C800 C 0.34775 0.33961 0.04915 0.0
O801 O 0.34201 0.34527 0.08405 0.0
N802 N 0.3381 0.32786 0.15004 0.0
C803 C 0.33011 0.33251 0.17961 0.0
C804 C 0.33486 0.33874 0.21932 0.0
C805 C 0.34755 0.33105 0.17314 0.0
N806 N 0.34581 0.33782 0.215 0.0
C807 C 0.31365 0.32148 0.08782 0.0
C808 C 0.31195 0.33924 0.02008 0.0
C809 C 0.30245 0.33509 0.04393 0.0
C810 C 0.30342 0.32596 0.07746 0.0
C811 C 0.3221 0.33447 0.03146 0.0
N812 N 0.32298 0.32587 0.06653 0.0
H813 H 0.31394 0.31451 0.11414 0.0
H814 H 0.32903 0.33762 0.01023 0.0
H815 H 0.32145 0.33167 0.17275 0.0
H816 H 0.35555 0.32894 0.15771 0.0
O817 O 0.331 0.3073 0.13089 0.0
O818 O 0.34861 0.30956 0.11444 0.0
O819 O 0.34626 0.3293 0.04415 0.0
C820 C 0.34096 0.30416 0.13938 0.0
H821 H 0.33408 0.30529 0.89403 0.0
H822 H 0.33059 0.34367 0.24872 0.0
H823 H 0.31157 0.34615 0.99291 0.0
H824 H 0.29628 0.32218 0.0953 0.0
Co825 Co 0.4317 0.58677 0.83985 0.0
C826 C 0.44954 0.5872 0.75684 0.0
C827 C 0.43356 0.58878 0.72251 0.0
C828 C 0.44111 0.58969 0.68222 0.0
N829 N 0.43875 0.58717 0.76963 0.0
N830 N 0.45119 0.58882 0.70367 0.0
H831 H 0.45606 0.58649 0.78579 0.0
H832 H 0.42485 0.58968 0.71723 0.0
C833 C 0.40876 0.59434 0.81545 0.0
O834 O 0.40482 0.58669 0.84707 0.0
N835 N 0.42456 0.58689 0.90966 0.0
C836 C 0.42416 0.57916 0.9483 0.0
C837 C 0.41804 0.58307 0.99061 0.0
C838 C 0.41907 0.59551 0.93017 0.0
N839 N 0.41475 0.59332 0.97881 0.0
C840 C 0.42965 0.56358 0.84757 0.0
C841 C 0.41303 0.56044 0.77433 0.0
C842 C 0.41686 0.55148 0.80388 0.0
C843 C 0.42543 0.55313 0.84001 0.0
C844 C 0.41743 0.57087 0.78368 0.0
N845 N 0.42532 0.57247 0.82198 0.0
H846 H 0.43642 0.5644 0.87484 0.0
H847 H 0.41439 0.57751 0.75981 0.0
H848 H 0.42801 0.57124 0.94689 0.0
H849 H 0.41817 0.60323 0.90945 0.0
O850 O 0.44492 0.58156 0.87245 0.0
O851 O 0.44059 0.59908 0.86428 0.0
O852 O 0.41907 0.5953 0.80861 0.0
C853 C 0.44741 0.59168 0.88166 0.0
H854 H 0.43926 0.59104 0.6403 0.0
H855 H 0.41595 0.57859 0.02665 0.0
H856 H 0.40661 0.55944 0.7448 0.0
H857 H 0.42897 0.54635 0.86194 0.0
Co858 Co 0.1527 0.6852 0.60899 0.0
C859 C 0.15299 0.70307 0.527 0.0
C860 C 0.1392 0.69228 0.51981 0.0
C861 C 0.13791 0.70066 0.48389 0.0
N862 N 0.14864 0.69373 0.54678 0.0
N863 N 0.1465 0.70749 0.48861 0.0
H864 H 0.16035 0.70686 0.54239 0.0
H865 H 0.1333 0.68591 0.52768 0.0
C866 C 0.14747 0.66218 0.57669 0.0
O867 O 0.15655 0.659 0.60015 0.0
N868 N 0.15587 0.67643 0.67239 0.0
C869 C 0.16524 0.67373 0.69805 0.0
C870 C 0.16281 0.66647 0.73879 0.0
C871 C 0.14795 0.67097 0.6989 0.0
N872 N 0.15193 0.66476 0.73908 0.0
C873 C 0.17586 0.68532 0.59622 0.0
C874 C 0.17707 0.67313 0.50314 0.0
C875 C 0.18677 0.67628 0.52896 0.0
C876 C 0.18606 0.68266 0.5753 0.0
C877 C 0.16695 0.67583 0.52628 0.0
N878 N 0.16647 0.68129 0.57419 0.0
H879 H 0.17558 0.6905 0.63124 0.0
H880 H 0.15954 0.67358 0.50544 0.0
H881 H 0.17334 0.6765 0.68844 0.0
H882 H 0.13943 0.67113 0.68701 0.0
O883 O 0.15771 0.6982 0.64436 0.0
O884 O 0.14071 0.69198 0.64873 0.0
O885 O 0.14477 0.67228 0.57684 0.0
C886 C 0.14785 0.69941 0.66225 0.0
H887 H 0.131 0.70181 0.45731 0.0
H888 H 0.16862 0.66268 0.76577 0.0
H889 H 0.17733 0.66853 0.46602 0.0
H890 H 0.19336 0.68565 0.59508 0.0
Co891 Co 0.05947 0.39837 0.35191 0.0
C892 C 0.04342 0.40113 0.26228 0.0
C893 C 0.0525 0.38611 0.2584 0.0
C894 C 0.04501 0.38615 0.21759 0.0
N895 N 0.05159 0.3955 0.28624 0.0
N896 N 0.03926 0.39556 0.21978 0.0
H897 H 0.04042 0.40893 0.27654 0.0
H898 H 0.05784 0.3794 0.26865 0.0
C899 C 0.08224 0.39079 0.32698 0.0
O900 O 0.08615 0.39932 0.35267 0.0
N901 N 0.06751 0.40037 0.41856 0.0
C902 C 0.07052 0.40934 0.44664 0.0
C903 C 0.07698 0.40612 0.48923 0.0
C904 C 0.07194 0.39188 0.44552 0.0
N905 N 0.07785 0.39513 0.48825 0.0
C906 C 0.0617 0.42149 0.34202 0.0
C907 C 0.07622 0.42184 0.2572 0.0
C908 C 0.07357 0.4317 0.28299 0.0
C909 C 0.06592 0.43144 0.32469 0.0
C910 C 0.07181 0.41197 0.27628 0.0
N911 N 0.06526 0.41184 0.32079 0.0
H912 H 0.05577 0.4216 0.374 0.0
H913 H 0.07371 0.40449 0.25524 0.0
H914 H 0.06847 0.41769 0.43747 0.0
H915 H 0.07131 0.38348 0.43218 0.0
O916 O 0.04655 0.40441 0.3837 0.0
O917 O 0.05108 0.38687 0.3871 0.0
O918 O 0.07193 0.38932 0.32334 0.0
C919 C 0.0442 0.39461 0.39976 0.0
H920 H 0.04354 0.37942 0.1903 0.0
H921 H 0.08084 0.41146 0.51826 0.0
H922 H 0.08178 0.42173 0.22338 0.0
H923 H 0.0632 0.43891 0.34395 0.0
Co924 Co 0.33946 0.68185 0.40606 0.0
C925 C 0.33927 0.701 0.48391 0.0
C926 C 0.35272 0.68992 0.49295 0.0
C927 C 0.35442 0.6986 0.52645 0.0
N928 N 0.34314 0.6912 0.46676 0.0
N929 N 0.34602 0.70559 0.52068 0.0
H930 H 0.33222 0.70513 0.46768 0.0
H931 H 0.35846 0.68334 0.486 0.0
C932 C 0.34264 0.66673 0.49722 0.0
O933 O 0.33578 0.67308 0.52328 0.0
N934 N 0.33685 0.67245 0.34546 0.0
C935 C 0.32916 0.67321 0.30694 0.0
C936 C 0.33163 0.66574 0.26707 0.0
C937 C 0.34382 0.66463 0.32888 0.0
N938 N 0.34085 0.66037 0.28116 0.0
C939 C 0.31741 0.68811 0.42944 0.0
C940 C 0.30912 0.66723 0.44188 0.0
C941 C 0.30188 0.67611 0.44151 0.0
C942 C 0.30618 0.68666 0.43583 0.0
C943 C 0.32034 0.66904 0.43468 0.0
N944 N 0.32442 0.67942 0.42954 0.0
H945 H 0.32032 0.69621 0.42068 0.0
H946 H 0.32565 0.66203 0.4305 0.0
H947 H 0.32254 0.67907 0.30681 0.0
H948 H 0.35131 0.66262 0.34983 0.0
O949 O 0.33673 0.69444 0.36243 0.0
O950 O 0.35304 0.68668 0.37249 0.0
O951 O 0.34498 0.66881 0.4482 0.0
C952 C 0.34706 0.69437 0.35113 0.0
H953 H 0.36145 0.69982 0.55214 0.0
H954 H 0.32715 0.66455 0.23007 0.0
H955 H 0.30609 0.65892 0.44474 0.0
H956 H 0.30085 0.69373 0.43461 0.0
Co957 Co 0.06986 0.58039 0.16867 0.0
C958 C 0.0503 0.58414 0.23894 0.0
C959 C 0.06454 0.57907 0.28273 0.0
C960 C 0.05646 0.58165 0.31891 0.0
N961 N 0.06074 0.58069 0.23251 0.0
N962 N 0.04755 0.58483 0.29129 0.0
H963 H 0.04497 0.58668 0.20666 0.0
H964 H 0.07281 0.57664 0.29248 0.0
C965 C 0.09084 0.59213 0.20446 0.0
O966 O 0.09631 0.58912 0.16164 0.0
N967 N 0.07895 0.58035 0.10489 0.0
C968 C 0.08298 0.57173 0.07751 0.0
C969 C 0.08902 0.57559 0.03474 0.0
C970 C 0.08208 0.58926 0.07683 0.0
N971 N 0.08847 0.58662 0.03464 0.0
C972 C 0.0684 0.55809 0.19663 0.0
C973 C 0.09046 0.55354 0.20604 0.0
C974 C 0.08291 0.54495 0.20751 0.0
C975 C 0.07177 0.54732 0.20407 0.0
C976 C 0.08673 0.56427 0.19826 0.0
N977 N 0.07582 0.56638 0.19191 0.0
H978 H 0.05976 0.55974 0.19266 0.0
H979 H 0.09268 0.57066 0.1944 0.0
H980 H 0.0817 0.56324 0.08782 0.0
H981 H 0.08024 0.59755 0.08908 0.0
O982 O 0.05812 0.57468 0.12591 0.0
O983 O 0.06146 0.59234 0.13749 0.0
O984 O 0.08093 0.58912 0.2116 0.0
C985 C 0.05556 0.58472 0.11485 0.0
H986 H 0.05714 0.58145 0.36222 0.0
H987 H 0.0935 0.57067 0.00611 0.0
H988 H 0.09916 0.55192 0.20853 0.0
H989 H 0.06572 0.54084 0.20543 0.0
Co990 Co 0.15916 0.31029 0.91565 0.0
C991 C 0.158 0.29253 0.99926 0.0
C992 C 0.16062 0.30855 0.03211 0.0
C993 C 0.15991 0.30124 0.07369 0.0
N994 N 0.15951 0.30313 0.98529 0.0
N995 N 0.15826 0.29117 0.05316 0.0
H996 H 0.15674 0.28594 0.97105 0.0
H997 H 0.16173 0.31729 0.03581 0.0
C998 C 0.14443 0.33032 0.93906 0.0
O999 O 0.14646 0.33533 0.89359 0.0
N1000 N 0.15864 0.31742 0.84629 0.0
C1001 C 0.16718 0.32087 0.81662 0.0
C1002 C 0.16323 0.32607 0.77162 0.0
C1003 C 0.14966 0.31989 0.81722 0.0
N1004 N 0.1522 0.32558 0.77246 0.0
C1005 C 0.1808 0.31335 0.95383 0.0
C1006 C 0.18193 0.33581 0.94207 0.0
C1007 C 0.19116 0.33011 0.95992 0.0
C1008 C 0.19049 0.31876 0.96647 0.0
C1009 C 0.17228 0.3301 0.9311 0.0
N1010 N 0.17182 0.31898 0.93653 0.0
H1011 H 0.18051 0.30454 0.95734 0.0
H1012 H 0.16545 0.3346 0.91574 0.0
H1013 H 0.17568 0.31999 0.82773 0.0
H1014 H 0.1414 0.31835 0.83096 0.0
O1015 O 0.16696 0.29849 0.88252 0.0
O1016 O 0.14888 0.2994 0.8891 0.0
O1017 O 0.14866 0.32102 0.94989 0.0
C1018 C 0.15751 0.29415 0.87192 0.0
H1019 H 0.16032 0.30325 0.11594 0.0
H1020 H 0.16809 0.33021 0.74154 0.0
H1021 H 0.18222 0.34459 0.93607 0.0
H1022 H 0.19752 0.31406 0.97943 0.0
Co1023 Co 0.43812 0.4057 0.65695 0.0
C1024 C 0.45488 0.40636 0.74425 0.0
C1025 C 0.43959 0.3998 0.77146 0.0
C1026 C 0.44685 0.39958 0.81341 0.0
N1027 N 0.44457 0.40408 0.72788 0.0
N1028 N 0.45646 0.40366 0.79629 0.0
H1029 H 0.46112 0.4099 0.71891 0.0
H1030 H 0.43128 0.39686 0.77318 0.0
C1031 C 0.41529 0.39726 0.67144 0.0
O1032 O 0.41167 0.40552 0.64265 0.0
N1033 N 0.43165 0.40687 0.58593 0.0
C1034 C 0.43048 0.41558 0.55306 0.0
C1035 C 0.42493 0.41234 0.5077 0.0
C1036 C 0.42721 0.3984 0.55887 0.0
N1037 N 0.42285 0.40155 0.51164 0.0
C1038 C 0.43495 0.42884 0.66174 0.0
C1039 C 0.41813 0.42928 0.73544 0.0
C1040 C 0.42144 0.43909 0.7113 0.0
C1041 C 0.43017 0.43879 0.67516 0.0
C1042 C 0.42316 0.41942 0.7206 0.0
N1043 N 0.43101 0.41919 0.68138 0.0
H1044 H 0.44185 0.42899 0.63492 0.0
H1045 H 0.4207 0.41207 0.74108 0.0
H1046 H 0.43337 0.42375 0.56044 0.0
H1047 H 0.42672 0.39017 0.57474 0.0
O1048 O 0.45133 0.41213 0.62998 0.0
O1049 O 0.44784 0.39437 0.62902 0.0
O1050 O 0.42552 0.39615 0.68024 0.0
C1051 C 0.45447 0.40235 0.61693 0.0
H1052 H 0.44525 0.39635 0.85309 0.0
H1053 H 0.42254 0.41753 0.47452 0.0
H1054 H 0.41166 0.42918 0.76512 0.0
H1055 H 0.43343 0.44623 0.65775 0.0
C1056 C 0.08528 0.12644 0.74331 0.0
C1057 C 0.0777 0.11909 0.72088 0.0
C1058 C 0.09119 0.13361 0.71036 0.0
C1059 C 0.1013 0.13604 0.57267 0.0
H1060 H 0.10601 0.16659 0.60771 0.0
C1061 C 0.12826 0.16218 0.43645 0.0
C1062 C 0.13595 0.16868 0.46321 0.0
C1063 C 0.11927 0.15794 0.46425 0.0
C1064 C 0.10483 0.15806 0.59743 0.0
H1065 H 0.07028 0.11366 0.64631 0.0
H1066 H 0.08062 0.12604 0.58928 0.0
H1067 H 0.09444 0.15531 0.66557 0.0
H1068 H 0.14025 0.17624 0.53872 0.0
H1069 H 0.12474 0.16872 0.58776 0.0
H1070 H 0.11198 0.13852 0.50615 0.0
C1071 C 0.08202 0.12624 0.63219 0.0
C1072 C 0.09821 0.15161 0.63065 0.0
C1073 C 0.07608 0.11917 0.66501 0.0
C1074 C 0.13423 0.17143 0.51713 0.0
C1075 C 0.12534 0.16709 0.54517 0.0
C1076 C 0.108 0.14243 0.53987 0.0
C1077 C 0.0897 0.13349 0.65438 0.0
C1078 C 0.09644 0.14052 0.61874 0.0
C1079 C 0.11799 0.15991 0.51966 0.0
C1080 C 0.10993 0.15351 0.55192 0.0
H1081 H 0.08669 0.12661 0.7862 0.0
H1082 H 0.09712 0.13905 0.72852 0.0
H1083 H 0.10022 0.12748 0.56283 0.0
H1084 H 0.12958 0.15983 0.39503 0.0
H1085 H 0.11365 0.15266 0.44293 0.0
C1086 C 0.09786 0.8955 0.75442 0.0
C1087 C 0.09214 0.90394 0.78046 0.0
C1088 C 0.1051 0.88881 0.78319 0.0
C1089 C 0.11992 0.88701 0.91421 0.0
H1090 H 0.12074 0.85603 0.88158 0.0
C1091 C 0.1349 0.84352 0.01628 0.0
C1092 C 0.14465 0.84711 0.04031 0.0
C1093 C 0.12893 0.85051 0.9828 0.0
C1094 C 0.12052 0.86464 0.8917 0.0
H1095 H 0.08961 0.91203 0.85704 0.0
H1096 H 0.10182 0.90027 0.90701 0.0
H1097 H 0.10968 0.86819 0.82659 0.0
H1098 H 0.15592 0.86074 0.04724 0.0
H1099 H 0.14578 0.87274 0.98767 0.0
H1100 H 0.1302 0.88342 0.98106 0.0
C1101 C 0.10104 0.89893 0.86424 0.0
C1102 C 0.11432 0.87167 0.85945 0.0
C1103 C 0.09394 0.90566 0.83549 0.0
C1104 C 0.14834 0.85778 0.02997 0.0
C1105 C 0.14248 0.86469 0.99586 0.0
C1106 C 0.12597 0.87998 0.94685 0.0
C1107 C 0.10667 0.89036 0.83868 0.0
C1108 C 0.11385 0.88294 0.87057 0.0
C1109 C 0.13266 0.86118 0.9719 0.0
C1110 C 0.12633 0.86868 0.93627 0.0
H1111 H 0.09667 0.89399 0.71199 0.0
H1112 H 0.10942 0.88241 0.76193 0.0
H1113 H 0.11995 0.89566 0.92357 0.0
H1114 H 0.13185 0.83534 0.02358 0.0
H1115 H 0.12131 0.84756 0.966 0.0
C1116 C 0.39535 0.89119 0.28616 0.0
C1117 C 0.40585 0.88745 0.29973 0.0
C1118 C 0.38892 0.8854 0.24942 0.0
C1119 C 0.37483 0.86957 0.18606 0.0
H1120 H 0.38998 0.8553 0.06855 0.0
C1121 C 0.35273 0.85216 0.99894 0.0
C1122 C 0.35529 0.84122 0.98681 0.0
C1123 C 0.35891 0.85796 0.03664 0.0
C1124 C 0.38566 0.85921 0.10128 0.0
H1125 H 0.41762 0.87442 0.28798 0.0
H1126 H 0.40626 0.86404 0.22607 0.0
H1127 H 0.40047 0.86493 0.1369 0.0
H1128 H 0.36652 0.8279 0.00329 0.0
H1129 H 0.37748 0.83815 0.0681 0.0
H1130 H 0.36 0.86406 0.14895 0.0
C1131 C 0.4031 0.87166 0.24193 0.0
C1132 C 0.39165 0.86467 0.14077 0.0
C1133 C 0.40959 0.87754 0.2779 0.0
C1134 C 0.36435 0.83632 0.01183 0.0
C1135 C 0.37064 0.84218 0.04879 0.0
C1136 C 0.36883 0.86425 0.14603 0.0
C1137 C 0.3928 0.87564 0.22607 0.0
C1138 C 0.38634 0.86986 0.18399 0.0
C1139 C 0.36787 0.85299 0.06214 0.0
C1140 C 0.3742 0.85897 0.10349 0.0
H1141 H 0.3923 0.89886 0.30195 0.0
H1142 H 0.3811 0.88881 0.23787 0.0
H1143 H 0.37044 0.87331 0.219 0.0
H1144 H 0.34576 0.85614 0.98055 0.0
H1145 H 0.35667 0.86632 0.04599 0.0
C1146 C 0.41063 0.10912 0.25361 0.0
C1147 C 0.40468 0.10095 0.22684 0.0
C1148 C 0.40551 0.11595 0.2909 0.0
C1149 C 0.3946 0.12532 0.38959 0.0
H1150 H 0.36444 0.1341 0.36845 0.0
C1151 C 0.37215 0.15902 0.51264 0.0
C1152 C 0.36161 0.15629 0.53073 0.0
C1153 C 0.37784 0.15196 0.47834 0.0
C1154 C 0.37285 0.13164 0.37501 0.0
H1155 H 0.38871 0.09346 0.2184 0.0
H1156 H 0.37985 0.10508 0.2847 0.0
H1157 H 0.37342 0.12278 0.30124 0.0
H1158 H 0.34891 0.14387 0.52829 0.0
H1159 H 0.3588 0.1317 0.46795 0.0
H1160 H 0.39402 0.13455 0.46278 0.0
C1161 C 0.3884 0.10647 0.27592 0.0
C1162 C 0.37799 0.12511 0.33663 0.0
C1163 C 0.39349 0.09975 0.23802 0.0
C1164 C 0.35702 0.14623 0.51517 0.0
C1165 C 0.36264 0.13928 0.48034 0.0
C1166 C 0.38949 0.132 0.42759 0.0
C1167 C 0.39435 0.11466 0.30292 0.0
C1168 C 0.38893 0.12179 0.34351 0.0
C1169 C 0.37302 0.14215 0.46096 0.0
C1170 C 0.37854 0.13515 0.42079 0.0
H1171 H 0.41926 0.1103 0.24554 0.0
H1172 H 0.41032 0.1223 0.30995 0.0
H1173 H 0.40296 0.12279 0.39684 0.0
H1174 H 0.3759 0.1667 0.52396 0.0
H1175 H 0.38584 0.15437 0.4638 0.0
C1176 C 0.86626 0.83979 0.51519 0.0
C1177 C 0.85801 0.84544 0.54303 0.0
C1178 C 0.87391 0.84545 0.48434 0.0
C1179 C 0.88444 0.8585 0.39556 0.0
H1180 H 0.89709 0.88584 0.44411 0.0
C1181 C 0.91191 0.88489 0.25871 0.0
C1182 C 0.92114 0.88973 0.28245 0.0
C1183 C 0.904 0.87976 0.29042 0.0
C1184 C 0.89369 0.87818 0.43012 0.0
H1185 H 0.85146 0.86151 0.56109 0.0
H1186 H 0.86476 0.87142 0.50652 0.0
H1187 H 0.88396 0.8763 0.50094 0.0
H1188 H 0.92935 0.89292 0.35808 0.0
H1189 H 0.91567 0.88381 0.41317 0.0
H1190 H 0.89438 0.86019 0.3255 0.0
C1191 C 0.86537 0.8626 0.50907 0.0
C1192 C 0.88606 0.87277 0.46243 0.0
C1193 C 0.85772 0.85692 0.54018 0.0
C1194 C 0.92231 0.88931 0.33851 0.0
C1195 C 0.91442 0.88415 0.37017 0.0
C1196 C 0.89208 0.86388 0.36335 0.0
C1197 C 0.87348 0.85691 0.48033 0.0
C1198 C 0.8814 0.86284 0.44566 0.0
C1199 C 0.90516 0.87933 0.34655 0.0
C1200 C 0.89683 0.87376 0.38033 0.0
H1201 H 0.86679 0.83095 0.5168 0.0
H1202 H 0.88018 0.84084 0.46366 0.0
H1203 H 0.88089 0.85095 0.38103 0.0
H1204 H 0.91073 0.88513 0.21564 0.0
H1205 H 0.8969 0.87626 0.27097 0.0
C1206 C 0.8659 0.1586 0.98422 0.0
C1207 C 0.85685 0.15379 0.95863 0.0
C1208 C 0.87287 0.15231 0.01616 0.0
C1209 C 0.88115 0.12367 0.04279 0.0
H1210 H 0.89327 0.13615 0.17294 0.0
C1211 C 0.90843 0.10964 0.2394 0.0
C1212 C 0.91625 0.10316 0.21296 0.0
C1213 C 0.90077 0.11568 0.20992 0.0
C1214 C 0.88986 0.13249 0.13707 0.0
H1215 H 0.84805 0.13858 0.94655 0.0
H1216 H 0.86008 0.12766 0.00296 0.0
H1217 H 0.88056 0.14685 0.11889 0.0
H1218 H 0.92223 0.09804 0.13491 0.0
H1219 H 0.90911 0.10868 0.08387 0.0
H1220 H 0.8902 0.10922 0.06158 0.0
C1221 C 0.86191 0.13625 0.99763 0.0
C1222 C 0.88269 0.13869 0.10563 0.0
C1223 C 0.85498 0.14253 0.9654 0.0
C1224 C 0.91627 0.10287 0.15661 0.0
C1225 C 0.90868 0.10893 0.12725 0.0
C1226 C 0.88825 0.11746 0.07434 0.0
C1227 C 0.87093 0.14107 0.02354 0.0
C1228 C 0.87832 0.13439 0.05784 0.0
C1229 C 0.90081 0.11538 0.15345 0.0
C1230 C 0.89279 0.12183 0.12157 0.0
H1231 H 0.86759 0.16725 0.9797 0.0
H1232 H 0.87984 0.15626 0.03469 0.0
H1233 H 0.87803 0.12012 0.00603 0.0
H1234 H 0.90818 0.11 0.28282 0.0
H1235 H 0.89474 0.12047 0.23139 0.0
C1236 C 0.58864 0.11868 0.7303 0.0
C1237 C 0.59289 0.10951 0.70339 0.0
C1238 C 0.59532 0.12505 0.76328 0.0
C1239 C 0.61216 0.14006 0.81362 0.0
H1240 H 0.63191 0.12441 0.90816 0.0
C1241 C 0.64091 0.16243 0.96134 0.0
C1242 C 0.64199 0.15789 0.01293 0.0
C1243 C 0.6355 0.15671 0.92074 0.0
C1244 C 0.62639 0.1289 0.88224 0.0
H1245 H 0.60764 0.10013 0.6882 0.0
H1246 H 0.61935 0.11136 0.74529 0.0
H1247 H 0.62148 0.11436 0.84104 0.0
H1248 H 0.63815 0.14379 0.06235 0.0
H1249 H 0.62856 0.13389 0.99177 0.0
H1250 H 0.61678 0.15455 0.85611 0.0
C1251 C 0.61078 0.11349 0.74158 0.0
C1252 C 0.62053 0.12316 0.84324 0.0
C1253 C 0.60409 0.10711 0.70856 0.0
C1254 C 0.63751 0.14751 0.02301 0.0
C1255 C 0.63207 0.1418 0.98242 0.0
C1256 C 0.61802 0.14581 0.85267 0.0
C1257 C 0.60643 0.12242 0.77006 0.0
C1258 C 0.61325 0.12866 0.80882 0.0
C1259 C 0.63101 0.14632 0.93079 0.0
C1260 C 0.62512 0.14028 0.88782 0.0
H1261 H 0.58007 0.12079 0.72714 0.0
H1262 H 0.59167 0.13179 0.78501 0.0
H1263 H 0.60672 0.14456 0.78739 0.0
H1264 H 0.64431 0.17039 0.95207 0.0
H1265 H 0.63494 0.16037 0.88127 0.0
C1266 C 0.63444 0.85445 0.4563 0.0
C1267 C 0.6413 0.84577 0.47166 0.0
C1268 C 0.6283 0.86009 0.49462 0.0
C1269 C 0.6285 0.86804 0.63441 0.0
H1270 H 0.59738 0.87295 0.61671 0.0
C1271 C 0.60289 0.88952 0.79804 0.0
C1272 C 0.59416 0.89619 0.78164 0.0
C1273 C 0.60849 0.88306 0.7608 0.0
C1274 C 0.6061 0.87183 0.62195 0.0
H1275 H 0.64703 0.83614 0.53919 0.0
H1276 H 0.63648 0.84621 0.60632 0.0
H1277 H 0.60733 0.86223 0.55016 0.0
H1278 H 0.58459 0.90154 0.71324 0.0
H1279 H 0.59464 0.89069 0.64794 0.0
H1280 H 0.62747 0.87795 0.7048 0.0
C1281 C 0.63583 0.84856 0.56452 0.0
C1282 C 0.61176 0.86561 0.58396 0.0
C1283 C 0.64181 0.84278 0.52608 0.0
C1284 C 0.59124 0.89641 0.72715 0.0
C1285 C 0.59696 0.8901 0.68976 0.0
C1286 C 0.62289 0.87442 0.67193 0.0
C1287 C 0.62905 0.85729 0.54912 0.0
C1288 C 0.623 0.86366 0.5899 0.0
C1289 C 0.60562 0.88327 0.70608 0.0
C1290 C 0.6116 0.87641 0.66625 0.0
H1291 H 0.63384 0.85691 0.41464 0.0
H1292 H 0.62317 0.86683 0.48183 0.0
H1293 H 0.6372 0.86675 0.63949 0.0
H1294 H 0.60525 0.8891 0.83989 0.0
H1295 H 0.61496 0.87777 0.77521 0.0
C1296 C 0.6375 0.67058 0.07704 0.0
C1297 C 0.63777 0.66979 0.0208 0.0
C1298 C 0.63196 0.6628 0.10766 0.0
C1299 C 0.61078 0.64126 0.1 0.0
H1300 H 0.62352 0.63231 0.23562 0.0
C1301 C 0.60353 0.60703 0.27818 0.0
C1302 C 0.59208 0.60762 0.28229 0.0
C1303 C 0.60925 0.61442 0.24582 0.0
C1304 C 0.61989 0.63462 0.19765 0.0
H1305 H 0.63238 0.66022 0.9525 0.0
H1306 H 0.62281 0.64648 0.00618 0.0
H1307 H 0.63329 0.64515 0.17855 0.0
H1308 H 0.5777 0.61662 0.25668 0.0
H1309 H 0.58768 0.62964 0.20151 0.0
H1310 H 0.59751 0.63051 0.11854 0.0
C1311 C 0.62677 0.65323 0.02653 0.0
C1312 C 0.62543 0.64211 0.16518 0.0
C1313 C 0.63228 0.66108 0.99576 0.0
C1314 C 0.58652 0.6159 0.25422 0.0
C1315 C 0.59224 0.62331 0.22215 0.0
C1316 C 0.60526 0.63373 0.1324 0.0
C1317 C 0.62661 0.65396 0.08293 0.0
C1318 C 0.6209 0.64561 0.11619 0.0
C1319 C 0.60367 0.62261 0.21707 0.0
C1320 C 0.6097 0.63039 0.18187 0.0
H1321 H 0.64156 0.67724 0.09765 0.0
H1322 H 0.63181 0.66378 0.15084 0.0
H1323 H 0.60701 0.64383 0.06276 0.0
H1324 H 0.60807 0.60071 0.29902 0.0
H1325 H 0.61804 0.61356 0.24244 0.0
C1326 C 0.58832 0.39927 0.34733 0.0
C1327 C 0.58833 0.39921 0.291 0.0
C1328 C 0.59537 0.39247 0.37606 0.0
C1329 C 0.61346 0.36811 0.36279 0.0
H1330 H 0.62512 0.37912 0.49701 0.0
C1331 C 0.63714 0.34018 0.50857 0.0
C1332 C 0.64576 0.34467 0.53863 0.0
C1333 C 0.63037 0.34687 0.4776 0.0
C1334 C 0.62209 0.37594 0.45931 0.0
H1335 H 0.59567 0.39194 0.2204 0.0
H1336 H 0.60831 0.38029 0.27053 0.0
H1337 H 0.61328 0.39066 0.44334 0.0
H1338 H 0.65412 0.35972 0.55937 0.0
H1339 H 0.64255 0.3714 0.50394 0.0
H1340 H 0.62267 0.35356 0.37766 0.0
C1341 C 0.60266 0.3854 0.29268 0.0
C1342 C 0.61511 0.38251 0.42882 0.0
C1343 C 0.59545 0.3921 0.26386 0.0
C1344 C 0.64748 0.35602 0.53699 0.0
C1345 C 0.6408 0.36272 0.50533 0.0
C1346 C 0.62057 0.36158 0.39295 0.0
C1347 C 0.60277 0.38556 0.34924 0.0
C1348 C 0.61058 0.37865 0.38046 0.0
C1349 C 0.63214 0.35824 0.47522 0.0
C1350 C 0.62489 0.36536 0.44196 0.0
H1351 H 0.58281 0.40456 0.3694 0.0
H1352 H 0.59497 0.39263 0.41945 0.0
H1353 H 0.61009 0.3648 0.32606 0.0
H1354 H 0.63554 0.33146 0.50932 0.0
H1355 H 0.62366 0.34312 0.45608 0.0
C1356 C 0.89087 0.39924 0.75557 0.0
C1357 C 0.90228 0.39861 0.76082 0.0
C1358 C 0.88544 0.39324 0.71595 0.0
C1359 C 0.87483 0.37551 0.65016 0.0
H1360 H 0.88875 0.36915 0.51384 0.0
C1361 C 0.85181 0.35585 0.47245 0.0
C1362 C 0.85657 0.34617 0.45295 0.0
C1363 C 0.85762 0.36269 0.50719 0.0
C1364 C 0.88479 0.37086 0.55182 0.0
H1365 H 0.91697 0.39112 0.72891 0.0
H1366 H 0.9075 0.38024 0.66151 0.0
H1367 H 0.8983 0.38037 0.58 0.0
H1368 H 0.87132 0.33631 0.45268 0.0
H1369 H 0.88159 0.34848 0.51228 0.0
H1370 H 0.8612 0.36625 0.62087 0.0
C1371 C 0.90271 0.38564 0.68668 0.0
C1372 C 0.89028 0.37722 0.59 0.0
C1373 C 0.90816 0.39182 0.72568 0.0
C1374 C 0.86743 0.34371 0.4671 0.0
C1375 C 0.87332 0.35067 0.50104 0.0
C1376 C 0.86929 0.36934 0.6116 0.0
C1377 C 0.89126 0.38626 0.68118 0.0
C1378 C 0.88539 0.3796 0.6399 0.0
C1379 C 0.86838 0.3601 0.52227 0.0
C1380 C 0.87423 0.36692 0.5622 0.0
H1381 H 0.88611 0.40451 0.78162 0.0
H1382 H 0.87667 0.39418 0.71237 0.0
H1383 H 0.87086 0.37689 0.68838 0.0
H1384 H 0.84344 0.35794 0.46255 0.0
H1385 H 0.85367 0.36995 0.52283 0.0
C1386 C 0.91865 0.61527 0.83372 0.0
C1387 C 0.9185 0.61451 0.77747 0.0
C1388 C 0.91015 0.62038 0.86124 0.0
C1389 C 0.88708 0.63962 0.84573 0.0
H1390 H 0.87794 0.62663 0.98046 0.0
C1391 C 0.86037 0.66289 0.9982 0.0
C1392 C 0.8525 0.65705 0.02771 0.0
C1393 C 0.86776 0.65743 0.96493 0.0
C1394 C 0.88027 0.63031 0.94263 0.0
H1395 H 0.90938 0.61873 0.7058 0.0
H1396 H 0.89438 0.62764 0.75415 0.0
H1397 H 0.89184 0.61763 0.92656 0.0
H1398 H 0.84616 0.64086 0.0449 0.0
H1399 H 0.85897 0.63131 0.98616 0.0
H1400 H 0.87535 0.65222 0.86147 0.0
C1401 C 0.90117 0.62433 0.77687 0.0
C1402 C 0.88837 0.62522 0.91201 0.0
C1403 C 0.90975 0.61923 0.74916 0.0
C1404 C 0.85216 0.6456 0.02299 0.0
C1405 C 0.85953 0.64012 0.98943 0.0
C1406 C 0.87894 0.6447 0.8763 0.0
C1407 C 0.90121 0.62483 0.83335 0.0
C1408 C 0.89202 0.6299 0.86365 0.0
C1409 C 0.86744 0.64597 0.96001 0.0
C1410 C 0.87554 0.64019 0.92556 0.0
H1411 H 0.92532 0.61182 0.85679 0.0
H1412 H 0.91061 0.62086 0.90458 0.0
H1413 H 0.88972 0.64348 0.80881 0.0
H1414 H 0.8609 0.67172 0.00095 0.0
H1415 H 0.87385 0.66219 0.94376 0.0
C1416 C 0.39701 0.3944 0.71425 0.0
C1417 C 0.40751 0.39043 0.70202 0.0
C1418 C 0.39017 0.3886 0.74901 0.0
C1419 C 0.38421 0.36179 0.80547 0.0
H1420 H 0.37431 0.37771 0.93096 0.0
C1421 C 0.35299 0.35652 0.99887 0.0
C1422 C 0.35471 0.34539 0.00986 0.0
C1423 C 0.35922 0.36187 0.95987 0.0
C1424 C 0.3768 0.37316 0.89578 0.0
H1425 H 0.41888 0.37706 0.71453 0.0
H1426 H 0.40674 0.36675 0.77406 0.0
H1427 H 0.38494 0.38712 0.86248 0.0
H1428 H 0.36445 0.33118 0.98961 0.0
H1429 H 0.3757 0.3406 0.9235 0.0
H1430 H 0.37583 0.34791 0.83745 0.0
C1431 C 0.4039 0.3744 0.75717 0.0
C1432 C 0.38294 0.37856 0.85668 0.0
C1433 C 0.41083 0.38031 0.72327 0.0
C1434 C 0.3629 0.33975 0.98172 0.0
C1435 C 0.36928 0.34515 0.94343 0.0
C1436 C 0.37788 0.35642 0.84406 0.0
C1437 C 0.39361 0.37862 0.77127 0.0
C1438 C 0.38675 0.37292 0.81137 0.0
C1439 C 0.36747 0.35628 0.9316 0.0
C1440 C 0.37413 0.36201 0.88999 0.0
H1441 H 0.39425 0.40221 0.69879 0.0
H1442 H 0.38224 0.39197 0.75913 0.0
H1443 H 0.38702 0.35729 0.77065 0.0
H1444 H 0.34664 0.36106 0.01946 0.0
H1445 H 0.35739 0.37036 0.95131 0.0
C1446 C 0.40534 0.6104 0.75572 0.0
C1447 C 0.40129 0.60122 0.78314 0.0
C1448 C 0.39848 0.61664 0.72303 0.0
C1449 C 0.36924 0.62241 0.69492 0.0
H1450 H 0.38125 0.63539 0.56577 0.0
C1451 C 0.35512 0.65039 0.49949 0.0
C1452 C 0.3483 0.65784 0.52641 0.0
C1453 C 0.36094 0.64245 0.52825 0.0
C1454 C 0.37769 0.6317 0.60119 0.0
H1455 H 0.38686 0.59137 0.79782 0.0
H1456 H 0.37492 0.6021 0.73973 0.0
H1457 H 0.39259 0.62342 0.62024 0.0
H1458 H 0.34214 0.6627 0.60453 0.0
H1459 H 0.35242 0.64916 0.65443 0.0
H1460 H 0.35425 0.63045 0.67505 0.0
C1461 C 0.38335 0.60463 0.7443 0.0
C1462 C 0.38427 0.62497 0.63302 0.0
C1463 C 0.3902 0.59845 0.77753 0.0
C1464 C 0.34727 0.65705 0.58242 0.0
C1465 C 0.35313 0.64921 0.61112 0.0
C1466 C 0.36264 0.62906 0.6628 0.0
C1467 C 0.38742 0.61378 0.7164 0.0
C1468 C 0.38019 0.62039 0.68082 0.0
C1469 C 0.36011 0.64185 0.58456 0.0
C1470 C 0.36683 0.63396 0.61602 0.0
H1471 H 0.41384 0.6128 0.75948 0.0
H1472 H 0.40186 0.62377 0.70328 0.0
H1473 H 0.36583 0.6191 0.73156 0.0
H1474 H 0.35605 0.65075 0.4563 0.0
H1475 H 0.36611 0.63681 0.50636 0.0
C1476 C 0.09125 0.60091 0.29555 0.0
C1477 C 0.09639 0.59875 0.2462 0.0
C1478 C 0.09653 0.60716 0.33484 0.0
C1479 C 0.1067 0.62593 0.39731 0.0
H1480 H 0.13804 0.62326 0.41709 0.0
C1481 C 0.13191 0.65784 0.51473 0.0
C1482 C 0.14089 0.65425 0.54526 0.0
C1483 C 0.12615 0.65054 0.48214 0.0
C1484 C 0.12927 0.62403 0.41265 0.0
H1485 H 0.1111 0.60153 0.19942 0.0
H1486 H 0.12017 0.61257 0.26734 0.0
H1487 H 0.12874 0.61136 0.35351 0.0
H1488 H 0.15062 0.64008 0.56682 0.0
H1489 H 0.14043 0.6273 0.51067 0.0
H1490 H 0.10721 0.63848 0.45715 0.0
C1491 C 0.11216 0.60926 0.27623 0.0
C1492 C 0.12395 0.6173 0.37557 0.0
C1493 C 0.10692 0.60298 0.23707 0.0
C1494 C 0.14378 0.64313 0.54356 0.0
C1495 C 0.13798 0.63581 0.51109 0.0
C1496 C 0.11202 0.63264 0.43455 0.0
C1497 C 0.10704 0.61143 0.32565 0.0
C1498 C 0.11262 0.61824 0.36697 0.0
C1499 C 0.12917 0.63945 0.47945 0.0
C1500 C 0.12339 0.63186 0.44228 0.0
H1501 H 0.08317 0.59774 0.30405 0.0
H1502 H 0.09239 0.60854 0.37266 0.0
H1503 H 0.09799 0.62696 0.39147 0.0
H1504 H 0.12944 0.66634 0.51498 0.0
H1505 H 0.11951 0.65368 0.45785 0.0
C1506 C 0.10074 0.38617 0.28959 0.0
C1507 C 0.08961 0.38359 0.29585 0.0
C1508 C 0.10737 0.37992 0.25562 0.0
C1509 C 0.10865 0.3534 0.18298 0.0
H1510 H 0.12778 0.36924 0.08624 0.0
C1511 C 0.13694 0.33135 0.03244 0.0
C1512 C 0.13804 0.336 0.9811 0.0
C1513 C 0.13147 0.33696 0.07318 0.0
C1514 C 0.12242 0.3647 0.11273 0.0
H1515 H 0.07686 0.37213 0.27323 0.0
H1516 H 0.08831 0.36141 0.21372 0.0
H1517 H 0.11767 0.37918 0.15493 0.0
H1518 H 0.13403 0.35011 0.93208 0.0
H1519 H 0.12426 0.35979 0.00288 0.0
H1520 H 0.11307 0.33898 0.13953 0.0
C1521 C 0.09198 0.36818 0.23524 0.0
C1522 C 0.11675 0.37038 0.15264 0.0
C1523 C 0.08537 0.3744 0.26911 0.0
C1524 C 0.13337 0.34631 0.9712 0.0
C1525 C 0.12785 0.35191 0.01194 0.0
C1526 C 0.11429 0.34773 0.14299 0.0
C1527 C 0.10301 0.37096 0.2274 0.0
C1528 C 0.10971 0.36481 0.18786 0.0
C1529 C 0.12691 0.34733 0.06352 0.0
C1530 C 0.12116 0.35333 0.10704 0.0
H1531 H 0.10427 0.39318 0.30978 0.0
H1532 H 0.11588 0.38218 0.25102 0.0
H1533 H 0.10339 0.34885 0.20985 0.0
H1534 H 0.14045 0.32344 0.0416 0.0
H1535 H 0.131 0.33325 0.11257 0.0
C1536 C 0.22136 0.16536 0.3769 0.0
C1537 C 0.21671 0.17319 0.41158 0.0
C1538 C 0.23273 0.16424 0.37306 0.0
C1539 C 0.25808 0.17959 0.39304 0.0
H1540 H 0.27219 0.15153 0.41521 0.0
C1541 C 0.3006 0.16512 0.48475 0.0
C1542 C 0.30785 0.17209 0.45768 0.0
C1543 C 0.29006 0.16342 0.46507 0.0
C1544 C 0.26835 0.15939 0.40824 0.0
H1545 H 0.22048 0.18563 0.47101 0.0
H1546 H 0.24021 0.18386 0.46304 0.0
H1547 H 0.25219 0.15254 0.40964 0.0
H1548 H 0.31013 0.18231 0.38773 0.0
H1549 H 0.29154 0.17942 0.35315 0.0
H1550 H 0.27411 0.18655 0.39369 0.0
C1551 C 0.23504 0.1787 0.43843 0.0
C1552 C 0.25694 0.15996 0.40489 0.0
C1553 C 0.22372 0.17972 0.44284 0.0
C1554 C 0.30467 0.17682 0.40885 0.0
C1555 C 0.29404 0.17522 0.3894 0.0
C1556 C 0.26946 0.17902 0.39573 0.0
C1557 C 0.23966 0.17101 0.40325 0.0
C1558 C 0.2517 0.17012 0.399 0.0
C1559 C 0.28653 0.1688 0.41835 0.0
C1560 C 0.27471 0.16896 0.40498 0.0
H1561 H 0.21624 0.16027 0.35174 0.0
H1562 H 0.23611 0.15825 0.34563 0.0
H1563 H 0.25423 0.18751 0.38792 0.0
H1564 H 0.30291 0.16149 0.52277 0.0
H1565 H 0.28444 0.15854 0.4886 0.0
C1566 C 0.08466 0.9684 0.72338 0.0
C1567 C 0.07574 0.9632 0.69848 0.0
C1568 C 0.08536 0.97986 0.7244 0.0
C1569 C 0.06736 0.00386 0.71838 0.0
H1570 H 0.09373 0.02066 0.69262 0.0
C1571 C 0.06523 0.05044 0.71037 0.0
C1572 C 0.07335 0.05623 0.73825 0.0
C1573 C 0.06654 0.03932 0.6994 0.0
C1574 C 0.08632 0.01608 0.70032 0.0
H1575 H 0.06103 0.96594 0.65158 0.0
H1576 H 0.06221 0.98577 0.6537 0.0
H1577 H 0.09428 0.00064 0.68682 0.0
H1578 H 0.08941 0.05509 0.77439 0.0
H1579 H 0.09165 0.03556 0.75611 0.0
H1580 H 0.05939 0.01909 0.73299 0.0
C1581 C 0.06852 0.98105 0.67361 0.0
C1582 C 0.08664 0.00462 0.69702 0.0
C1583 C 0.06784 0.96968 0.67254 0.0
C1584 C 0.08307 0.05083 0.75238 0.0
C1585 C 0.08434 0.03963 0.74191 0.0
C1586 C 0.06704 0.01523 0.72193 0.0
C1587 C 0.07714 0.98629 0.70051 0.0
C1588 C 0.07712 0.99841 0.7055 0.0
C1589 C 0.07592 0.03367 0.71681 0.0
C1590 C 0.07647 0.02152 0.71243 0.0
H1591 H 0.09089 0.96362 0.74358 0.0
H1592 H 0.09209 0.98368 0.7455 0.0
H1593 H 0.05993 0.9993 0.72635 0.0
H1594 H 0.0577 0.05445 0.69858 0.0
H1595 H 0.06002 0.03507 0.67864 0.0
C1596 C 0.20753 0.84023 0.98556 0.0
C1597 C 0.20435 0.83806 0.03869 0.0
C1598 C 0.21822 0.84353 0.97409 0.0
C1599 C 0.24468 0.85221 0.03744 0.0
H1600 H 0.25714 0.83586 0.9191 0.0
C1601 C 0.28985 0.8386 0.0224 0.0
C1602 C 0.29451 0.83778 0.97108 0.0
C1603 C 0.27901 0.8421 0.02832 0.0
C1604 C 0.25379 0.84068 0.95164 0.0
H1605 H 0.20964 0.8386 0.12176 0.0
H1606 H 0.22833 0.84384 0.10173 0.0
H1607 H 0.23754 0.83573 0.93257 0.0
H1608 H 0.29198 0.84099 0.88647 0.0
H1609 H 0.27313 0.84717 0.89681 0.0
H1610 H 0.26115 0.8566 0.05797 0.0
C1611 C 0.2226 0.84313 0.06879 0.0
C1612 C 0.2425 0.84064 0.95932 0.0
C1613 C 0.2119 0.83994 0.08025 0.0
C1614 C 0.28849 0.84137 0.9264 0.0
C1615 C 0.27772 0.84489 0.9323 0.0
C1616 C 0.25602 0.85217 0.02998 0.0
C1617 C 0.22599 0.84466 0.01544 0.0
C1618 C 0.2378 0.84619 0.00301 0.0
C1619 C 0.27271 0.84485 0.983 0.0
C1620 C 0.2607 0.84622 0.98758 0.0
H1621 H 0.20193 0.83888 0.95256 0.0
H1622 H 0.2205 0.84485 0.9326 0.0
H1623 H 0.24132 0.85673 0.07098 0.0
H1624 H 0.29431 0.83585 0.05744 0.0
H1625 H 0.27536 0.84193 0.0679 0.0
C1626 C 0.40678 0.03088 0.15713 0.0
C1627 C 0.40965 0.03766 0.20036 0.0
C1628 C 0.40432 0.01987 0.16561 0.0
C1629 C 0.399 0.9987 0.26965 0.0
H1630 H 0.41573 0.9803 0.17304 0.0
C1631 C 0.41386 0.95551 0.32498 0.0
C1632 C 0.4151 0.94761 0.28444 0.0
C1633 C 0.41036 0.96608 0.31257 0.0
C1634 C 0.41079 0.98524 0.19973 0.0
H1635 H 0.4115 0.0385 0.28665 0.0
H1636 H 0.40734 0.01918 0.30166 0.0
H1637 H 0.41441 0.99976 0.15568 0.0
H1638 H 0.41304 0.94445 0.19943 0.0
H1639 H 0.4067 0.96287 0.17785 0.0
H1640 H 0.3957 0.98414 0.31464 0.0
C1641 C 0.40686 0.02238 0.26121 0.0
C1642 C 0.41003 0.99644 0.18978 0.0
C1643 C 0.40926 0.03344 0.2527 0.0
C1644 C 0.41216 0.95034 0.2316 0.0
C1645 C 0.40863 0.96093 0.21917 0.0
C1646 C 0.39973 0.98746 0.27956 0.0
C1647 C 0.40477 0.01539 0.21749 0.0
C1648 C 0.40432 0.00335 0.22516 0.0
C1649 C 0.40797 0.969 0.25932 0.0
C1650 C 0.40584 0.98063 0.24531 0.0
H1651 H 0.40687 0.03399 0.11643 0.0
H1652 H 0.4025 0.01476 0.13124 0.0
H1653 H 0.39443 0.00379 0.29729 0.0
H1654 H 0.41585 0.95361 0.36628 0.0
H1655 H 0.41004 0.97209 0.34447 0.0
C1656 C 0.71206 0.84051 0.51334 0.0
C1657 C 0.70607 0.84259 0.46645 0.0
C1658 C 0.72293 0.84392 0.51745 0.0
C1659 C 0.74665 0.84658 0.43571 0.0
H1660 H 0.75971 0.85993 0.5614 0.0
C1661 C 0.79301 0.84357 0.47122 0.0
C1662 C 0.79575 0.84032 0.52358 0.0
C1663 C 0.78251 0.84758 0.45993 0.0
C1664 C 0.75622 0.85617 0.526 0.0
H1665 H 0.70651 0.85005 0.38767 0.0
H1666 H 0.72572 0.85575 0.39423 0.0
H1667 H 0.73985 0.85989 0.5511 0.0
H1668 H 0.79003 0.83962 0.60586 0.0
H1669 H 0.7718 0.8461 0.58622 0.0
H1670 H 0.76282 0.842 0.41252 0.0
C1671 C 0.72193 0.85167 0.42804 0.0
C1672 C 0.74486 0.85623 0.52005 0.0
C1673 C 0.71097 0.84846 0.4244 0.0
C1674 C 0.78808 0.84183 0.56486 0.0
C1675 C 0.77764 0.84575 0.55364 0.0
C1676 C 0.758 0.84633 0.44212 0.0
C1677 C 0.72803 0.84926 0.47427 0.0
C1678 C 0.73998 0.85113 0.47569 0.0
C1679 C 0.77459 0.8484 0.50081 0.0
C1680 C 0.7629 0.85076 0.48839 0.0
H1681 H 0.70843 0.83596 0.54611 0.0
H1682 H 0.72751 0.84186 0.55326 0.0
H1683 H 0.74306 0.84252 0.4013 0.0
H1684 H 0.79877 0.84254 0.43861 0.0
H1685 H 0.78051 0.84972 0.41893 0.0
C1686 C 0.9194 0.03711 0.28803 0.0
C1687 C 0.92645 0.04347 0.25633 0.0
C1688 C 0.9189 0.02575 0.28101 0.0
C1689 C 0.93627 0.00342 0.22902 0.0
H1690 H 0.91049 0.98538 0.24875 0.0
C1691 C 0.93645 0.9579 0.17751 0.0
C1692 C 0.93226 0.95059 0.21594 0.0
C1693 C 0.93485 0.96913 0.18268 0.0
C1694 C 0.91775 0.99034 0.24362 0.0
H1695 H 0.93786 0.04317 0.19002 0.0
H1696 H 0.93671 0.02346 0.1762 0.0
H1697 H 0.90891 0.00535 0.25408 0.0
H1698 H 0.92271 0.9494 0.28902 0.0
H1699 H 0.9198 0.96919 0.29776 0.0
H1700 H 0.94508 0.98849 0.21801 0.0
C1701 C 0.93184 0.02711 0.20778 0.0
C1702 C 0.91687 0.00176 0.24662 0.0
C1703 C 0.93244 0.03841 0.21525 0.0
C1704 C 0.92606 0.9548 0.25878 0.0
C1705 C 0.92438 0.96611 0.26377 0.0
C1706 C 0.93713 0.99207 0.22564 0.0
C1707 C 0.92539 0.02059 0.24186 0.0
C1708 C 0.92611 0.00844 0.23882 0.0
C1709 C 0.92892 0.97338 0.22615 0.0
C1710 C 0.92788 0.9854 0.23242 0.0
H1711 H 0.91477 0.04084 0.3203 0.0
H1712 H 0.91388 0.02099 0.30811 0.0
H1713 H 0.94363 0.00825 0.22447 0.0
H1714 H 0.94095 0.95495 0.14298 0.0
H1715 H 0.93824 0.97451 0.15243 0.0
C1716 C 0.71315 0.16793 0.10771 0.0
C1717 C 0.70626 0.16552 0.06433 0.0
C1718 C 0.7242 0.16512 0.10593 0.0
C1719 C 0.74524 0.14979 0.02707 0.0
H1720 H 0.76408 0.17309 0.07807 0.0
C1721 C 0.78857 0.15857 0.94721 0.0
C1722 C 0.79649 0.16261 0.98295 0.0
C1723 C 0.77799 0.15629 0.965 0.0
C1724 C 0.75897 0.16639 0.06461 0.0
H1725 H 0.70524 0.15797 0.98606 0.0
H1726 H 0.7247 0.15341 0.98161 0.0
H1727 H 0.74458 0.17409 0.09439 0.0
H1728 H 0.79976 0.16681 0.0659 0.0
H1729 H 0.78122 0.16282 0.0971 0.0
H1730 H 0.75974 0.14244 0.99467 0.0
C1731 C 0.72157 0.1572 0.01774 0.0
C1732 C 0.74775 0.16694 0.07403 0.0
C1733 C 0.71045 0.15985 0.02001 0.0
C1734 C 0.79382 0.16368 0.03751 0.0
C1735 C 0.7832 0.16148 0.05526 0.0
C1736 C 0.75649 0.14929 0.01719 0.0
C1737 C 0.72864 0.16006 0.06015 0.0
C1738 C 0.7407 0.15875 0.05467 0.0
C1739 C 0.7751 0.15808 0.01884 0.0
C1740 C 0.76344 0.15768 0.03514 0.0
H1741 H 0.71001 0.17222 0.14251 0.0
H1742 H 0.72931 0.16721 0.1399 0.0
H1743 H 0.74008 0.14324 0.01231 0.0
H1744 H 0.79046 0.15756 0.90503 0.0
H1745 H 0.77191 0.15375 0.93591 0.0
C1746 C 0.58041 0.04919 0.80956 0.0
C1747 C 0.58215 0.052 0.75564 0.0
C1748 C 0.5829 0.03864 0.82773 0.0
C1749 C 0.59698 0.01261 0.7924 0.0
H1750 H 0.57176 0.99916 0.85955 0.0
C1751 C 0.5889 0.96599 0.78772 0.0
C1752 C 0.58288 0.96132 0.82971 0.0
C1753 C 0.5909 0.97728 0.78701 0.0
C1754 C 0.57902 0.00277 0.84202 0.0
H1755 H 0.58862 0.0464 0.67956 0.0
H1756 H 0.59301 0.02804 0.71116 0.0
H1757 H 0.57205 0.01878 0.84566 0.0
H1758 H 0.57487 0.96444 0.90558 0.0
H1759 H 0.57872 0.98401 0.90576 0.0
H1760 H 0.60386 0.99652 0.78782 0.0
C1761 C 0.58973 0.03391 0.73951 0.0
C1762 C 0.57916 0.01406 0.83404 0.0
C1763 C 0.58715 0.04439 0.72128 0.0
C1764 C 0.57944 0.96793 0.87248 0.0
C1765 C 0.58158 0.97914 0.87228 0.0
C1766 C 0.59688 0.00129 0.80083 0.0
C1767 C 0.58728 0.03079 0.79239 0.0
C1768 C 0.58803 0.01909 0.80811 0.0
C1769 C 0.58702 0.98404 0.82871 0.0
C1770 C 0.58779 0.99619 0.82474 0.0
H1771 H 0.57653 0.05492 0.83674 0.0
H1772 H 0.58101 0.03648 0.86886 0.0
H1773 H 0.60396 0.01628 0.77264 0.0
H1774 H 0.59158 0.96101 0.75424 0.0
H1775 H 0.59502 0.98074 0.75252 0.0
C1776 C 0.70153 0.66898 0.00356 0.0
C1777 C 0.69848 0.67524 0.95869 0.0
C1778 C 0.71245 0.66586 0.01095 0.0
C1779 C 0.73888 0.66257 0.94011 0.0
H1780 H 0.75156 0.66864 0.07944 0.0
C1781 C 0.78522 0.66843 0.97487 0.0
C1782 C 0.78952 0.66599 0.02563 0.0
C1783 C 0.77405 0.66701 0.96471 0.0
C1784 C 0.74815 0.66664 0.04056 0.0
H1785 H 0.70436 0.6827 0.88521 0.0
H1786 H 0.72337 0.67736 0.89833 0.0
H1787 H 0.73202 0.67095 0.06618 0.0
H1788 H 0.78588 0.65937 0.10412 0.0
H1789 H 0.7665 0.65643 0.08592 0.0
H1790 H 0.75506 0.65842 0.91423 0.0
C1791 C 0.71736 0.67485 0.9278 0.0
C1792 C 0.73692 0.668 0.03299 0.0
C1793 C 0.7065 0.67804 0.92067 0.0
C1794 C 0.7827 0.66134 0.06471 0.0
C1795 C 0.77159 0.65978 0.0544 0.0
C1796 C 0.75012 0.66113 0.94777 0.0
C1797 C 0.72048 0.66882 0.97325 0.0
C1798 C 0.73219 0.66619 0.98245 0.0
C1799 C 0.76703 0.66303 0.00508 0.0
C1800 C 0.75494 0.66334 0.99787 0.0
H1801 H 0.69553 0.66669 0.03345 0.0
H1802 H 0.71461 0.66116 0.04623 0.0
H1803 H 0.73543 0.66098 0.90084 0.0
H1804 H 0.79034 0.67214 0.94438 0.0
H1805 H 0.77084 0.66968 0.92641 0.0
C1806 C 0.59733 0.46341 0.13481 0.0
C1807 C 0.59601 0.45733 0.18208 0.0
C1808 C 0.60041 0.47439 0.13722 0.0
C1809 C 0.60876 0.49693 0.23043 0.0
H1810 H 0.58865 0.51384 0.14319 0.0
C1811 C 0.59124 0.53844 0.29357 0.0
C1812 C 0.58854 0.54625 0.25437 0.0
C1813 C 0.59563 0.52834 0.27889 0.0
C1814 C 0.59453 0.50932 0.16698 0.0
H1815 H 0.59745 0.45758 0.26849 0.0
H1816 H 0.60258 0.47687 0.27323 0.0
H1817 H 0.5905 0.49438 0.12764 0.0
H1818 H 0.58892 0.54987 0.16928 0.0
H1819 H 0.59667 0.53217 0.14345 0.0
H1820 H 0.61228 0.51192 0.27167 0.0
C1821 C 0.60152 0.47317 0.2341 0.0
C1822 C 0.59562 0.49811 0.15803 0.0
C1823 C 0.59857 0.46213 0.23156 0.0
C1824 C 0.59091 0.544 0.20034 0.0
C1825 C 0.59528 0.53385 0.18557 0.0
C1826 C 0.60764 0.50818 0.23951 0.0
C1827 C 0.60199 0.47956 0.18708 0.0
C1828 C 0.60249 0.4917 0.19068 0.0
C1829 C 0.59743 0.52581 0.22461 0.0
C1830 C 0.60025 0.51442 0.20895 0.0
H1831 H 0.59536 0.45982 0.09624 0.0
H1832 H 0.60094 0.479 0.10019 0.0
H1833 H 0.61426 0.49228 0.25572 0.0
H1834 H 0.58965 0.54002 0.33563 0.0
H1835 H 0.59708 0.52232 0.30996 0.0
C1836 C 0.71277 0.33737 0.51089 0.0
C1837 C 0.70894 0.33348 0.56049 0.0
C1838 C 0.72386 0.33979 0.50374 0.0
C1839 C 0.7505 0.34322 0.57625 0.0
H1840 H 0.76237 0.33163 0.44378 0.0
C1841 C 0.79602 0.33085 0.54358 0.0
C1842 C 0.80033 0.33234 0.49192 0.0
C1843 C 0.78508 0.33356 0.55422 0.0
C1844 C 0.7592 0.33509 0.48064 0.0
H1845 H 0.71363 0.32994 0.64267 0.0
H1846 H 0.73294 0.33374 0.62974 0.0
H1847 H 0.74275 0.33186 0.45712 0.0
H1848 H 0.79705 0.33863 0.41232 0.0
H1849 H 0.77811 0.34356 0.43102 0.0
H1850 H 0.76714 0.34602 0.6003 0.0
C1851 C 0.72742 0.33503 0.59635 0.0
C1852 C 0.74791 0.33526 0.48826 0.0
C1853 C 0.71634 0.33269 0.60357 0.0
C1854 C 0.79384 0.33732 0.45236 0.0
C1855 C 0.783 0.34007 0.46299 0.0
C1856 C 0.76186 0.34299 0.56871 0.0
C1857 C 0.73139 0.33831 0.54594 0.0
C1858 C 0.74339 0.33921 0.53635 0.0
C1859 C 0.77835 0.33782 0.51334 0.0
C1860 C 0.76633 0.33884 0.52093 0.0
H1861 H 0.70731 0.33808 0.47685 0.0
H1862 H 0.72659 0.34252 0.46463 0.0
H1863 H 0.74731 0.34645 0.61356 0.0
H1864 H 0.80087 0.32697 0.57456 0.0
H1865 H 0.78173 0.3317 0.59339 0.0
C1866 C 0.91377 0.55029 0.72 0.0
C1867 C 0.92305 0.55476 0.74513 0.0
C1868 C 0.91063 0.53948 0.73025 0.0
C1869 C 0.91398 0.51666 0.82566 0.0
H1870 H 0.91059 0.498 0.70087 0.0
C1871 C 0.92206 0.47072 0.8335 0.0
C1872 C 0.91618 0.46351 0.80038 0.0
C1873 C 0.92038 0.48197 0.83036 0.0
C1874 C 0.91125 0.50311 0.73624 0.0
H1875 H 0.93605 0.55161 0.80212 0.0
H1876 H 0.93052 0.53277 0.82042 0.0
H1877 H 0.91225 0.51775 0.68924 0.0
H1878 H 0.90355 0.46241 0.73966 0.0
H1879 H 0.9005 0.48222 0.73439 0.0
H1880 H 0.91318 0.50205 0.87269 0.0
C1881 C 0.92567 0.53761 0.79282 0.0
C1882 C 0.91223 0.51443 0.72953 0.0
C1883 C 0.92889 0.54835 0.78208 0.0
C1884 C 0.90821 0.46778 0.76557 0.0
C1885 C 0.90653 0.47912 0.76232 0.0
C1886 C 0.9129 0.50537 0.83241 0.0
C1887 C 0.91662 0.533 0.76636 0.0
C1888 C 0.91395 0.52127 0.77407 0.0
C1889 C 0.91272 0.48634 0.7942 0.0
C1890 C 0.91189 0.49842 0.78767 0.0
H1891 H 0.90917 0.55501 0.69094 0.0
H1892 H 0.9036 0.53615 0.70946 0.0
H1893 H 0.9151 0.52177 0.86076 0.0
H1894 H 0.92812 0.46767 0.86144 0.0
H1895 H 0.9254 0.48726 0.85502 0.0
C1896 C 0.20745 0.33421 0.01676 0.0
C1897 C 0.20171 0.33573 0.96861 0.0
C1898 C 0.21805 0.33828 0.02245 0.0
C1899 C 0.24211 0.34243 0.94326 0.0
H1900 H 0.25373 0.35591 0.072 0.0
C1901 C 0.28843 0.34307 0.98101 0.0
C1902 C 0.29148 0.33984 0.03305 0.0
C1903 C 0.27764 0.34616 0.97001 0.0
C1904 C 0.25064 0.35212 0.0358 0.0
H1905 H 0.20229 0.34293 0.88927 0.0
H1906 H 0.22104 0.34984 0.89874 0.0
H1907 H 0.23396 0.35463 0.05949 0.0
H1908 H 0.28581 0.33823 0.11513 0.0
H1909 H 0.26704 0.34308 0.09577 0.0
H1910 H 0.25864 0.3391 0.92115 0.0
C1911 C 0.21726 0.34564 0.93223 0.0
C1912 C 0.23932 0.35146 0.02857 0.0
C1913 C 0.20656 0.34174 0.92692 0.0
C1914 C 0.28368 0.34043 0.07435 0.0
C1915 C 0.27291 0.3434 0.06332 0.0
C1916 C 0.25342 0.34292 0.95084 0.0
C1917 C 0.22316 0.34376 0.97971 0.0
C1918 C 0.23497 0.34632 0.98298 0.0
C1919 C 0.26966 0.34603 0.01074 0.0
C1920 C 0.25783 0.34743 0.99808 0.0
H1921 H 0.20385 0.3296 0.0494 0.0
H1922 H 0.22247 0.33662 0.05925 0.0
H1923 H 0.23896 0.33833 0.90795 0.0
H1924 H 0.29424 0.34272 0.94826 0.0
H1925 H 0.27548 0.34832 0.92922 0.0
C1926 C 0.41402 0.45269 0.77779 0.0
C1927 C 0.41624 0.44974 0.72443 0.0
C1928 C 0.4106 0.46333 0.79016 0.0
C1929 C 0.401 0.48965 0.72949 0.0
H1930 H 0.41765 0.50251 0.84581 0.0
C1931 C 0.41135 0.53571 0.74528 0.0
C1932 C 0.41238 0.54031 0.79663 0.0
C1933 C 0.40889 0.52458 0.73943 0.0
C1934 C 0.41274 0.49904 0.81386 0.0
H1935 H 0.41577 0.45532 0.64187 0.0
H1936 H 0.4101 0.47386 0.66337 0.0
H1937 H 0.4184 0.48291 0.83129 0.0
H1938 H 0.4107 0.53721 0.88185 0.0
H1939 H 0.40628 0.51787 0.8717 0.0
H1940 H 0.39573 0.50595 0.71088 0.0
C1941 C 0.41091 0.46802 0.6958 0.0
C1942 C 0.41316 0.48776 0.80558 0.0
C1943 C 0.41431 0.45742 0.6835 0.0
C1944 C 0.41015 0.53381 0.8418 0.0
C1945 C 0.40765 0.52274 0.83599 0.0
C1946 C 0.40061 0.50097 0.73769 0.0
C1947 C 0.40932 0.47121 0.7494 0.0
C1948 C 0.40749 0.48294 0.7626 0.0
C1949 C 0.40737 0.5179 0.78486 0.0
C1950 C 0.40665 0.50581 0.77936 0.0
H1951 H 0.41543 0.44696 0.81021 0.0
H1952 H 0.40928 0.46548 0.83182 0.0
H1953 H 0.3964 0.48617 0.69648 0.0
H1954 H 0.41308 0.54053 0.70983 0.0
H1955 H 0.40881 0.52109 0.69948 0.0
C1956 C 0.28504 0.66771 0.48219 0.0
C1957 C 0.28986 0.67443 0.44314 0.0
C1958 C 0.27365 0.66659 0.48472 0.0
C1959 C 0.24812 0.68056 0.44045 0.0
H1960 H 0.2344 0.65379 0.48977 0.0
C1961 C 0.2012 0.67663 0.45741 0.0
C1962 C 0.19771 0.67324 0.50842 0.0
C1963 C 0.21217 0.6754 0.4423 0.0
C1964 C 0.23813 0.66131 0.47579 0.0
H1965 H 0.28662 0.68479 0.3744 0.0
H1966 H 0.26685 0.6826 0.37763 0.0
H1967 H 0.2542 0.65437 0.47722 0.0
H1968 H 0.20268 0.66538 0.58235 0.0
H1969 H 0.22175 0.66303 0.5557 0.0
H1970 H 0.23203 0.68747 0.43913 0.0
C1971 C 0.27176 0.67849 0.40765 0.0
C1972 C 0.24949 0.66168 0.46896 0.0
C1973 C 0.28311 0.67972 0.40563 0.0
C1974 C 0.20519 0.66804 0.54275 0.0
C1975 C 0.21609 0.66667 0.5274 0.0
C1976 C 0.23677 0.68014 0.44669 0.0
C1977 C 0.26684 0.67205 0.44773 0.0
C1978 C 0.25467 0.67137 0.45196 0.0
C1979 C 0.21977 0.67061 0.47765 0.0
C1980 C 0.23166 0.67057 0.4652 0.0
H1981 H 0.29006 0.66357 0.5117 0.0
H1982 H 0.27019 0.66168 0.51663 0.0
H1983 H 0.25177 0.68823 0.42829 0.0
H1984 H 0.19558 0.68074 0.43046 0.0
H1985 H 0.21478 0.67845 0.40355 0.0
C1986 C 0.0821 0.4496 0.30714 0.0
C1987 C 0.07852 0.44231 0.26722 0.0
C1988 C 0.08547 0.46016 0.29387 0.0
C1989 C 0.08053 0.48103 0.19177 0.0
H1990 H 0.10268 0.49707 0.27072 0.0
C1991 C 0.08571 0.52722 0.16106 0.0
C1992 C 0.08641 0.53342 0.20826 0.0
C1993 C 0.08722 0.5159 0.16249 0.0
C1994 C 0.09645 0.49271 0.24841 0.0
H1995 H 0.07623 0.44016 0.1817 0.0
H1996 H 0.08221 0.45869 0.15818 0.0
H1997 H 0.10107 0.47729 0.28241 0.0
H1998 H 0.08952 0.5329 0.29357 0.0
H1999 H 0.09203 0.51301 0.29664 0.0
H2000 H 0.07563 0.49643 0.15917 0.0
C2001 C 0.08228 0.45624 0.19994 0.0
C2002 C 0.09554 0.48138 0.25502 0.0
C2003 C 0.07894 0.44561 0.21328 0.0
C2004 C 0.08909 0.52824 0.25666 0.0
C2005 C 0.09054 0.51688 0.25823 0.0
C2006 C 0.08143 0.49234 0.18519 0.0
C2007 C 0.08534 0.46371 0.24027 0.0
C2008 C 0.08741 0.47544 0.22765 0.0
C2009 C 0.08932 0.51054 0.21135 0.0
C2010 C 0.08925 0.49836 0.21422 0.0
H2011 H 0.08199 0.44723 0.34903 0.0
H2012 H 0.08767 0.4657 0.32603 0.0
H2013 H 0.07406 0.47676 0.17073 0.0
H2014 H 0.08361 0.53111 0.12336 0.0
H2015 H 0.08641 0.51131 0.12553 0.0
C2016 C 0.15751 0.21675 0.3712 0.0
C2017 C 0.15295 0.20666 0.3566 0.0
C2018 C 0.15608 0.22591 0.33877 0.0
C2019 C 0.14189 0.23803 0.22229 0.0
H2020 H 0.17034 0.25132 0.19964 0.0
C2021 C 0.15061 0.27248 0.06436 0.0
C2022 C 0.15703 0.2812 0.08353 0.0
C2023 C 0.14919 0.263 0.09541 0.0
C2024 C 0.16231 0.24778 0.20574 0.0
H2025 H 0.14271 0.1983 0.29889 0.0
H2026 H 0.14025 0.21445 0.24116 0.0
H2027 H 0.16858 0.23598 0.26076 0.0
H2028 H 0.16715 0.28668 0.14973 0.0
H2029 H 0.1646 0.27037 0.20364 0.0
H2030 H 0.13567 0.25002 0.16698 0.0
C2031 C 0.14481 0.21528 0.27818 0.0
C2032 C 0.16129 0.23899 0.24093 0.0
C2033 C 0.14615 0.20607 0.31129 0.0
C2034 C 0.16205 0.28019 0.13397 0.0
C2035 C 0.16068 0.27077 0.1647 0.0
C2036 C 0.14291 0.24692 0.18688 0.0
C2037 C 0.15024 0.22513 0.29036 0.0
C2038 C 0.15105 0.23416 0.2506 0.0
C2039 C 0.15426 0.26205 0.14586 0.0
C2040 C 0.15312 0.25201 0.17915 0.0
H2041 H 0.16281 0.21738 0.40593 0.0
H2042 H 0.16013 0.23346 0.34994 0.0
H2043 H 0.13391 0.23442 0.22871 0.0
H2044 H 0.14655 0.27305 0.02586 0.0
H2045 H 0.14424 0.25639 0.07973 0.0
C2046 C 0.98465 0.88916 0.26773 0.0
C2047 C 0.97601 0.89675 0.26919 0.0
C2048 C 0.99342 0.89001 0.30327 0.0
C2049 C 0.0073 0.90898 0.39695 0.0
H2050 H 0.0176 0.8822 0.46385 0.0
C2051 C 0.03448 0.91039 0.58216 0.0
C2052 C 0.04395 0.9039 0.58226 0.0
C2053 C 0.02631 0.90873 0.54419 0.0
C2054 C 0.01489 0.88972 0.44507 0.0
H2055 H 0.96996 0.91138 0.30791 0.0
H2056 H 0.98529 0.9129 0.37059 0.0
H2057 H 0.0033 0.88137 0.39545 0.0
H2058 H 0.05207 0.89014 0.5448 0.0
H2059 H 0.03762 0.88716 0.47749 0.0
H2060 H 0.01877 0.91734 0.44703 0.0
C2061 C 0.98533 0.90632 0.34149 0.0
C2062 C 0.00671 0.88926 0.40582 0.0
C2063 C 0.97655 0.90549 0.3056 0.0
C2064 C 0.04481 0.89522 0.54561 0.0
C2065 C 0.03658 0.89356 0.50712 0.0
C2066 C 0.01543 0.90943 0.43622 0.0
C2067 C 0.99377 0.89847 0.34135 0.0
C2068 C 0.00275 0.89891 0.38163 0.0
C2069 C 0.02742 0.90056 0.50506 0.0
C2070 C 0.01922 0.89983 0.46122 0.0
H2071 H 0.98455 0.88245 0.23936 0.0
H2072 H -0.0001 0.88399 0.30111 0.0
H2073 H 0.00462 0.91653 0.37844 0.0
H2074 H 0.03352 0.91704 0.61055 0.0
H2075 H 0.01922 0.91405 0.54465 0.0
C2076 C 0.33292 0.7811 0.83096 0.0
C2077 C 0.34221 0.78738 0.84332 0.0
C2078 C 0.3336 0.77231 0.7956 0.0
C2079 C 0.35007 0.76159 0.68404 0.0
H2080 H 0.33306 0.73528 0.70894 0.0
C2081 C 0.35449 0.72215 0.55833 0.0
C2082 C 0.34505 0.71598 0.54733 0.0
C2083 C 0.35396 0.7314 0.59093 0.0
C2084 C 0.33772 0.74264 0.701 0.0
H2085 H 0.35959 0.7892 0.82937 0.0
H2086 H 0.36085 0.77362 0.76745 0.0
H2087 H 0.33325 0.7497 0.77634 0.0
H2088 H 0.32758 0.71494 0.55944 0.0
H2089 H 0.32658 0.73126 0.61673 0.0
H2090 H 0.3546 0.75443 0.60878 0.0
C2091 C 0.35299 0.77564 0.78488 0.0
C2092 C 0.33788 0.75089 0.73975 0.0
C2093 C 0.35231 0.78448 0.82064 0.0
C2094 C 0.33495 0.71958 0.56731 0.0
C2095 C 0.33442 0.72883 0.60044 0.0
C2096 C 0.34993 0.7533 0.64529 0.0
C2097 C 0.3436 0.76952 0.7716 0.0
C2098 C 0.34401 0.76049 0.73167 0.0
C2099 C 0.34398 0.73469 0.61355 0.0
C2100 C 0.34373 0.74375 0.65329 0.0
H2101 H 0.32499 0.7831 0.84778 0.0
H2102 H 0.32618 0.7679 0.78582 0.0
H2103 H 0.35473 0.76895 0.67615 0.0
H2104 H 0.36237 0.71963 0.5428 0.0
H2105 H 0.36147 0.73569 0.60036 0.0
C2106 C 0.45723 0.08149 0.01929 0.0
C2107 C 0.45501 0.08891 0.06085 0.0
C2108 C 0.46665 0.08253 0.98836 0.0
C2109 C 0.48942 0.1015 0.95454 0.0
H2110 H 0.50363 0.07453 0.91062 0.0
C2111 C 0.53273 0.10066 0.86531 0.0
C2112 C 0.53384 0.09523 0.81581 0.0
C2113 C 0.52327 0.09948 0.89594 0.0
C2114 C 0.4997 0.08211 0.92234 0.0
H2115 H 0.46076 0.10334 0.10241 0.0
H2116 H 0.47756 0.105 0.04947 0.0
H2117 H 0.48679 0.07375 0.96277 0.0
H2118 H 0.52607 0.08378 0.76133 0.0
H2119 H 0.50958 0.08149 0.81598 0.0
H2120 H 0.50261 0.1098 0.91529 0.0
C2121 C 0.47187 0.09852 0.03978 0.0
C2122 C 0.49002 0.0817 0.952 0.0
C2123 C 0.46227 0.09758 0.07021 0.0
C2124 C 0.52551 0.08804 0.79929 0.0
C2125 C 0.51605 0.08677 0.83041 0.0
C2126 C 0.4992 0.1019 0.92556 0.0
C2127 C 0.47425 0.09088 0.99896 0.0
C2128 C 0.4847 0.09139 0.9682 0.0
C2129 C 0.51475 0.09272 0.87829 0.0
C2130 C 0.5044 0.09221 0.90905 0.0
H2131 H 0.45168 0.0748 0.01088 0.0
H2132 H 0.468 0.0767 0.95633 0.0
H2133 H 0.48551 0.10912 0.96549 0.0
H2134 H 0.5391 0.10602 0.88001 0.0
H2135 H 0.52257 0.10397 0.93328 0.0
C2136 C 0.15799 0.72138 0.44337 0.0
C2137 C 0.14771 0.71775 0.46089 0.0
C2138 C 0.15885 0.73078 0.41138 0.0
C2139 C 0.14394 0.75578 0.36894 0.0
H2140 H 0.16189 0.7535 0.24128 0.0
C2141 C 0.14369 0.78896 0.20162 0.0
C2142 C 0.154 0.79179 0.18106 0.0
C2143 C 0.14257 0.77984 0.23551 0.0
C2144 C 0.15691 0.75433 0.277 0.0
H2145 H 0.13037 0.72146 0.46171 0.0
H2146 H 0.13185 0.73775 0.40613 0.0
H2147 H 0.16128 0.73832 0.3045 0.0
H2148 H 0.17116 0.78719 0.1792 0.0
H2149 H 0.16922 0.77159 0.23802 0.0
H2150 H 0.13963 0.77183 0.34154 0.0
C2151 C 0.13925 0.73337 0.41663 0.0
C2152 C 0.15661 0.74563 0.31334 0.0
C2153 C 0.13839 0.72397 0.44803 0.0
C2154 C 0.16308 0.78525 0.19422 0.0
C2155 C 0.16196 0.77622 0.22778 0.0
C2156 C 0.14429 0.76451 0.33266 0.0
C2157 C 0.14945 0.73678 0.39704 0.0
C2158 C 0.15013 0.74625 0.35977 0.0
C2159 C 0.15172 0.7734 0.24913 0.0
C2160 C 0.15082 0.76391 0.28633 0.0
H2161 H 0.16528 0.71673 0.45272 0.0
H2162 H 0.16685 0.73329 0.39737 0.0
H2163 H 0.13892 0.75653 0.40455 0.0
H2164 H 0.13656 0.79385 0.19223 0.0
H2165 H 0.13454 0.77783 0.25093 0.0
C2166 C 0.46384 0.88845 0.455 0.0
C2167 C 0.46262 0.89712 0.41848 0.0
C2168 C 0.47333 0.88764 0.48643 0.0
C2169 C 0.50201 0.89694 0.49423 0.0
H2170 H 0.49822 0.89658 0.64873 0.0
C2171 C 0.53467 0.91424 0.63386 0.0
C2172 C 0.5371 0.90881 0.6821 0.0
C2173 C 0.52579 0.91103 0.60249 0.0
C2174 C 0.49945 0.89649 0.60571 0.0
H2175 H 0.47048 0.9114 0.38423 0.0
H2176 H 0.48703 0.90985 0.43774 0.0
H2177 H 0.48246 0.89342 0.59014 0.0
H2178 H 0.53193 0.89582 0.73562 0.0
H2179 H 0.5163 0.89021 0.68064 0.0
H2180 H 0.5189 0.90023 0.50931 0.0
C2181 C 0.4807 0.90372 0.44261 0.0
C2182 C 0.49043 0.89466 0.57219 0.0
C2183 C 0.4712 0.90464 0.41216 0.0
C2184 C 0.53024 0.90023 0.69888 0.0
C2185 C 0.52131 0.89699 0.66732 0.0
C2186 C 0.511 0.89871 0.52758 0.0
C2187 C 0.48181 0.89534 0.48074 0.0
C2188 C 0.49157 0.89522 0.51613 0.0
C2189 C 0.51908 0.90228 0.61837 0.0
C2190 C 0.50977 0.89888 0.58368 0.0
H2191 H 0.45729 0.8826 0.46083 0.0
H2192 H 0.47401 0.88109 0.51552 0.0
H2193 H 0.50316 0.89725 0.45115 0.0
H2194 H 0.53961 0.92105 0.62034 0.0
H2195 H 0.52413 0.91549 0.56583 0.0
C2196 C 0.35949 0.21131 0.72106 0.0
C2197 C 0.35187 0.211 0.67886 0.0
C2198 C 0.35892 0.21962 0.75992 0.0
C2199 C 0.33855 0.23833 0.81786 0.0
H2200 H 0.36285 0.25637 0.86432 0.0
C2201 C 0.33264 0.28151 0.89838 0.0
C2202 C 0.3386 0.2849 0.94351 0.0
C2203 C 0.33473 0.2714 0.87464 0.0
C2204 C 0.35603 0.25126 0.85244 0.0
H2205 H 0.33822 0.21951 0.64199 0.0
H2206 H 0.33733 0.2339 0.70863 0.0
H2207 H 0.36622 0.24067 0.80507 0.0
H2208 H 0.35138 0.28039 0.99949 0.0
H2209 H 0.35515 0.26261 0.95725 0.0
H2210 H 0.32831 0.24908 0.86318 0.0
C2211 C 0.34354 0.22764 0.71291 0.0
C2212 C 0.35796 0.2423 0.8186 0.0
C2213 C 0.3441 0.21941 0.67453 0.0
C2214 C 0.34662 0.2779 0.96497 0.0
C2215 C 0.34883 0.26781 0.94063 0.0
C2216 C 0.33664 0.24725 0.85133 0.0
C2217 C 0.35071 0.22767 0.75688 0.0
C2218 C 0.34917 0.236 0.79949 0.0
C2219 C 0.3429 0.26448 0.89516 0.0
C2220 C 0.34529 0.25402 0.8675 0.0
H2221 H 0.36555 0.2049 0.72531 0.0
H2222 H 0.36459 0.21952 0.79331 0.0
H2223 H 0.33165 0.23346 0.80478 0.0
H2224 H 0.32639 0.28672 0.8813 0.0
H2225 H 0.33011 0.26911 0.83929 0.0
C2226 C 0.04529 0.11144 0.99806 0.0
C2227 C 0.05252 0.10271 0.98989 0.0
C2228 C 0.03758 0.11098 0.03951 0.0
C2229 C 0.02354 0.08998 0.1231 0.0
H2230 H 0.00896 0.11557 0.18014 0.0
C2231 C 0.97963 0.08802 0.20508 0.0
C2232 C 0.97612 0.09591 0.24186 0.0
C2233 C 0.99027 0.08839 0.18463 0.0
C2234 C 0.01303 0.10828 0.16573 0.0
H2235 H 0.05814 0.08715 0.02065 0.0
H2236 H 0.04532 0.08667 0.09537 0.0
H2237 H 0.02573 0.11776 0.12959 0.0
H2238 H 0.98089 0.10993 0.28899 0.0
H2239 H -0.00027 0.11025 0.25626 0.0
H2240 H 0.01109 0.08047 0.16092 0.0
C2241 C 0.0451 0.09363 0.06852 0.0
C2242 C 0.0226 0.10957 0.13567 0.0
C2243 C 0.05257 0.09396 0.0262 0.0
C2244 C 0.98353 0.10378 0.26053 0.0
C2245 C 0.99425 0.10402 0.24114 0.0
C2246 C 0.01412 0.08868 0.15412 0.0
C2247 C 0.03714 0.10187 0.0743 0.0
C2248 C 0.02783 0.10047 0.11257 0.0
C2249 C 0.99767 0.09656 0.20143 0.0
C2250 C 0.00852 0.09782 0.17457 0.0
H2251 H 0.04501 0.1182 0.96995 0.0
H2252 H 0.03156 0.11745 0.04191 0.0
H2253 H 0.02717 0.08273 0.10568 0.0
H2254 H 0.97392 0.08201 0.18976 0.0
H2255 H 0.99246 0.0826 0.15357 0.0
C2256 C 0.82983 0.72009 0.90338 0.0
C2257 C 0.83551 0.718 0.95116 0.0
C2258 C 0.83075 0.7302 0.87795 0.0
C2259 C 0.84944 0.75226 0.85361 0.0
H2260 H 0.8236 0.76771 0.80474 0.0
C2261 C 0.85081 0.79169 0.72048 0.0
C2262 C 0.84255 0.79249 0.68155 0.0
C2263 C 0.85062 0.78316 0.75818 0.0
C2264 C 0.83091 0.76345 0.8176 0.0
H2265 H 0.84656 0.72477 0.01032 0.0
H2266 H 0.84843 0.74257 0.96471 0.0
H2267 H 0.82164 0.75205 0.86428 0.0
H2268 H 0.8281 0.78468 0.64884 0.0
H2269 H 0.82801 0.76969 0.71252 0.0
H2270 H 0.85869 0.76334 0.80473 0.0
C2271 C 0.84315 0.73637 0.94755 0.0
C2272 C 0.82977 0.75455 0.85208 0.0
C2273 C 0.84202 0.72628 0.97373 0.0
C2274 C 0.83449 0.78435 0.67896 0.0
C2275 C 0.83438 0.77581 0.71586 0.0
C2276 C 0.85059 0.76112 0.8184 0.0
C2277 C 0.83756 0.73836 0.89928 0.0
C2278 C 0.83899 0.74872 0.86943 0.0
C2279 C 0.84222 0.77528 0.75704 0.0
C2280 C 0.8413 0.76663 0.79883 0.0
H2281 H 0.82478 0.7138 0.8854 0.0
H2282 H 0.82642 0.73151 0.84059 0.0
H2283 H 0.85666 0.74783 0.86629 0.0
H2284 H 0.85708 0.79793 0.72339 0.0
H2285 H 0.8568 0.78298 0.78931 0.0
C2286 C 0.02794 0.09887 0.70008 0.0
C2287 C 0.0268 0.10504 0.74724 0.0
C2288 C 0.01923 0.09802 0.66391 0.0
C2289 C 0.99307 0.1116 0.6269 0.0
H2290 H 0.98788 0.08449 0.55058 0.0
C2291 C 0.961 0.10721 0.4555 0.0
C2292 C 0.95562 0.09711 0.45187 0.0
C2293 C 0.96946 0.10866 0.49283 0.0
C2294 C 0.98913 0.0921 0.57196 0.0
H2295 H 0.01559 0.1147 0.79491 0.0
H2296 H 0.0003 0.11296 0.73288 0.0
H2297 H 0.00296 0.08564 0.61364 0.0
H2298 H 0.95422 0.08089 0.48629 0.0
H2299 H 0.96856 0.08353 0.55239 0.0
H2300 H 0.97896 0.11792 0.58646 0.0
C2301 C 0.00799 0.10909 0.72267 0.0
C2302 C 0.9979 0.09281 0.60758 0.0
C2303 C 0.01671 0.11003 0.75842 0.0
C2304 C 0.95837 0.08872 0.48784 0.0
C2305 C 0.96665 0.0902 0.5254 0.0
C2306 C 0.98422 0.11087 0.59151 0.0
C2307 C 0.00918 0.10321 0.67455 0.0
C2308 C -4e-05 0.10254 0.63574 0.0
C2309 C 0.97255 0.10006 0.52733 0.0
C2310 C 0.9821 0.10107 0.56395 0.0
H2311 H 0.03568 0.09507 0.69024 0.0
H2312 H 0.02049 0.09352 0.62697 0.0
H2313 H 0.99452 0.1193 0.6472 0.0
H2314 H 0.95905 0.11377 0.42786 0.0
H2315 H 0.97386 0.11635 0.49315 0.0
C2316 C 0.64379 0.21205 0.19229 0.0
C2317 C 0.65272 0.21114 0.15718 0.0
C2318 C 0.6425 0.22148 0.2238 0.0
C2319 C 0.65012 0.25044 0.23311 0.0
H2320 H 0.65112 0.24641 0.38737 0.0
C2321 C 0.66415 0.28503 0.3713 0.0
C2322 C 0.6592 0.28634 0.42168 0.0
C2323 C 0.66188 0.27588 0.33976 0.0
C2324 C 0.65062 0.24772 0.34448 0.0
H2325 H 0.66696 0.21942 0.12516 0.0
H2326 H 0.6645 0.23596 0.17845 0.0
H2327 H 0.64883 0.23054 0.32866 0.0
H2328 H 0.64803 0.27904 0.47881 0.0
H2329 H 0.64389 0.26306 0.42331 0.0
H2330 H 0.65194 0.26753 0.24825 0.0
C2331 C 0.65859 0.22941 0.18236 0.0
C2332 C 0.6493 0.23862 0.31091 0.0
C2333 C 0.66001 0.21994 0.15206 0.0
C2334 C 0.65205 0.27818 0.44035 0.0
C2335 C 0.64968 0.26904 0.40848 0.0
C2336 C 0.65129 0.25952 0.26653 0.0
C2337 C 0.64996 0.2302 0.21931 0.0
C2338 C 0.64935 0.23988 0.25491 0.0
C2339 C 0.65448 0.26784 0.35746 0.0
C2340 C 0.65192 0.25826 0.3226 0.0
H2341 H 0.63813 0.20531 0.19712 0.0
H2342 H 0.63579 0.22192 0.25207 0.0
H2343 H 0.65008 0.25163 0.19002 0.0
H2344 H 0.66984 0.2911 0.3563 0.0
H2345 H 0.666 0.2751 0.30149 0.0
C2346 C 0.47456 0.90353 0.19889 0.0
C2347 C 0.46507 0.89793 0.18248 0.0
C2348 C 0.48418 0.90286 0.16856 0.0
C2349 C 0.49294 0.89861 0.0305 0.0
H2350 H 0.52203 0.8952 0.09036 0.0
C2351 C 0.53199 0.91235 0.92294 0.0
C2352 C 0.54083 0.90504 0.92104 0.0
C2353 C 0.52277 0.90995 0.95351 0.0
C2354 C 0.51394 0.89603 0.07315 0.0
H2355 H 0.45857 0.88667 0.12301 0.0
H2356 H 0.47518 0.88576 0.0699 0.0
H2357 H 0.50599 0.89391 0.14926 0.0
H2358 H 0.547 0.88945 0.94911 0.0
H2359 H 0.5308 0.88531 0.00422 0.0
H2360 H 0.50085 0.90108 0.95484 0.0
C2361 C 0.47513 0.89077 0.10578 0.0
C2362 C 0.5048 0.8954 0.10682 0.0
C2363 C 0.46558 0.89136 0.13615 0.0
C2364 C 0.54023 0.89517 0.94973 0.0
C2365 C 0.53104 0.89285 0.9814 0.0
C2366 C 0.50206 0.89939 0.99711 0.0
C2367 C 0.48447 0.89663 0.12114 0.0
C2368 C 0.49422 0.89677 0.0858 0.0
C2369 C 0.52226 0.90026 0.98359 0.0
C2370 C 0.51264 0.89823 0.01818 0.0
H2371 H 0.47447 0.90869 0.23416 0.0
H2372 H 0.49126 0.90753 0.1811 0.0
H2373 H 0.48489 0.89979 0.01326 0.0
H2374 H 0.53224 0.92001 0.90107 0.0
H2375 H 0.51614 0.91583 0.95484 0.0
C2376 C 0.85348 0.21371 0.81191 0.0
C2377 C 0.84416 0.20705 0.80966 0.0
C2378 C 0.85406 0.22325 0.78078 0.0
C2379 C 0.83604 0.2424 0.70384 0.0
H2380 H 0.86362 0.25303 0.64772 0.0
C2381 C 0.84061 0.27735 0.546 0.0
C2382 C 0.84821 0.28553 0.55977 0.0
C2383 C 0.83973 0.26782 0.57698 0.0
C2384 C 0.85587 0.25014 0.66333 0.0
H2385 H 0.8284 0.20474 0.77156 0.0
H2386 H 0.8296 0.22092 0.71559 0.0
H2387 H 0.86322 0.23607 0.69934 0.0
H2388 H 0.8603 0.29031 0.61932 0.0
H2389 H 0.859 0.27361 0.67162 0.0
H2390 H 0.82871 0.25637 0.6661 0.0
C2391 C 0.83628 0.21919 0.74281 0.0
C2392 C 0.85563 0.24047 0.69324 0.0
C2393 C 0.83562 0.20984 0.77459 0.0
C2394 C 0.85459 0.2841 0.60631 0.0
C2395 C 0.85384 0.27454 0.63657 0.0
C2396 C 0.83626 0.25196 0.67309 0.0
C2397 C 0.8454 0.22617 0.74614 0.0
C2398 C 0.84572 0.23647 0.71409 0.0
C2399 C 0.84652 0.26625 0.62182 0.0
C2400 C 0.84618 0.25594 0.65287 0.0
H2401 H 0.86013 0.21175 0.83896 0.0
H2402 H 0.86116 0.22846 0.78499 0.0
H2403 H 0.82827 0.23977 0.72017 0.0
H2404 H 0.83559 0.27811 0.51046 0.0
H2405 H 0.834 0.26152 0.5649 0.0
C2406 C 0.53734 0.10498 0.52318 0.0
C2407 C 0.53809 0.0971 0.56408 0.0
C2408 C 0.52893 0.10433 0.48485 0.0
C2409 C 0.51066 0.08355 0.42572 0.0
H2410 H 0.49286 0.10781 0.37655 0.0
C2411 C 0.46805 0.07766 0.33746 0.0
C2412 C 0.46494 0.08371 0.29215 0.0
C2413 C 0.47802 0.07965 0.36275 0.0
C2414 C 0.49791 0.101 0.38923 0.0
H2415 H 0.53027 0.08291 0.59947 0.0
H2416 H 0.51563 0.08192 0.53401 0.0
H2417 H 0.50816 0.11122 0.43816 0.0
H2418 H 0.46984 0.09653 0.2372 0.0
H2419 H 0.48738 0.10016 0.28222 0.0
H2420 H 0.50026 0.07328 0.37862 0.0
C2421 C 0.52165 0.08839 0.53013 0.0
C2422 C 0.50664 0.10295 0.4245 0.0
C2423 C 0.53 0.089 0.56792 0.0
C2424 C 0.47212 0.09169 0.27182 0.0
C2425 C 0.48207 0.09382 0.29778 0.0
C2426 C 0.50196 0.08161 0.39087 0.0
C2427 C 0.5212 0.09579 0.48713 0.0
C2428 C 0.51287 0.09418 0.44444 0.0
C2429 C 0.48507 0.08785 0.34369 0.0
C2430 C 0.4953 0.09025 0.37349 0.0
H2431 H 0.54351 0.11128 0.51928 0.0
H2432 H 0.52875 0.11019 0.45227 0.0
H2433 H 0.5155 0.07665 0.43917 0.0
H2434 H 0.46267 0.07145 0.35373 0.0
H2435 H 0.48006 0.07499 0.39835 0.0
C2436 C 0.66015 0.72603 0.04724 0.0
C2437 C 0.65017 0.7252 0.01957 0.0
C2438 C 0.66203 0.73481 0.08228 0.0
C2439 C 0.6466 0.75374 0.16684 0.0
H2440 H 0.67306 0.77114 0.17209 0.0
C2441 C 0.64933 0.79318 0.29279 0.0
C2442 C 0.65931 0.79557 0.31793 0.0
C2443 C 0.64855 0.78442 0.2569 0.0
C2444 C 0.66567 0.76625 0.17172 0.0
H2445 H 0.63477 0.73336 0.00326 0.0
H2446 H 0.638 0.74851 0.06439 0.0
H2447 H 0.67156 0.75622 0.10716 0.0
H2448 H 0.67623 0.79053 0.3265 0.0
H2449 H 0.67481 0.7751 0.26526 0.0
H2450 H 0.64072 0.76355 0.23161 0.0
C2451 C 0.64426 0.7423 0.06011 0.0
C2452 C 0.66482 0.75774 0.13442 0.0
C2453 C 0.64242 0.73362 0.02514 0.0
C2454 C 0.66844 0.78893 0.30738 0.0
C2455 C 0.66765 0.78012 0.27195 0.0
C2456 C 0.64747 0.76215 0.20438 0.0
C2457 C 0.65394 0.74284 0.09015 0.0
C2458 C 0.65522 0.7515 0.13119 0.0
C2459 C 0.65773 0.77781 0.24584 0.0
C2460 C 0.65697 0.7686 0.20695 0.0
H2461 H 0.66625 0.71965 0.04375 0.0
H2462 H 0.66959 0.73507 0.10496 0.0
H2463 H 0.63916 0.74892 0.16583 0.0
H2464 H 0.64218 0.79821 0.29991 0.0
H2465 H 0.64082 0.78298 0.23696 0.0
C2466 C 0.02306 0.9095 0.76516 0.0
C2467 C 0.0318 0.9063 0.79849 0.0
C2468 C 0.01221 0.90764 0.7811 0.0
C2469 C 0.99561 0.88952 0.86233 0.0
H2470 H 0.97657 0.91404 0.89326 0.0
C2471 C 0.96206 0.88762 0.02229 0.0
C2472 C 0.95354 0.89525 0.0208 0.0
C2473 C 0.96989 0.88747 0.98136 0.0
C2474 C 0.98157 0.90701 0.88349 0.0
H2475 H 0.03587 0.89926 0.87601 0.0
H2476 H 0.01711 0.8957 0.90234 0.0
H2477 H 0.99371 0.91714 0.84622 0.0
H2478 H 0.94579 0.90801 0.97425 0.0
H2479 H 0.95897 0.90727 0.90091 0.0
H2480 H 0.98362 0.87936 0.89991 0.0
C2481 C 0.01866 0.89949 0.86378 0.0
C2482 C 0.99143 0.90884 0.8567 0.0
C2483 C 0.02941 0.90153 0.84853 0.0
C2484 C 0.95234 0.90204 0.97587 0.0
C2485 C 0.95998 0.90171 0.93435 0.0
C2486 C 0.98565 0.88764 0.88822 0.0
C2487 C 0.00999 0.9024 0.83004 0.0
C2488 C 0.99869 0.90018 0.84774 0.0
C2489 C 0.9692 0.89486 0.93793 0.0
C2490 C 0.97869 0.89642 0.9011 0.0
H2491 H 0.02454 0.91314 0.72629 0.0
H2492 H 0.00559 0.91005 0.75476 0.0
H2493 H 0.00109 0.88271 0.8554 0.0
H2494 H 0.96321 0.88247 0.05722 0.0
H2495 H 0.97689 0.88214 0.9861 0.0
C2496 C 0.65971 0.77793 0.52657 0.0
C2497 C 0.6561 0.78756 0.55183 0.0
C2498 C 0.65734 0.7677 0.54874 0.0
C2499 C 0.63882 0.75308 0.64019 0.0
H2500 H 0.66358 0.73389 0.66356 0.0
C2501 C 0.63771 0.71622 0.78656 0.0
C2502 C 0.64504 0.70759 0.77782 0.0
C2503 C 0.63761 0.72523 0.7518 0.0
C2504 C 0.65648 0.73896 0.6563 0.0
H2505 H 0.64685 0.79399 0.61889 0.0
H2506 H 0.64264 0.77608 0.6575 0.0
H2507 H 0.66618 0.75102 0.61621 0.0
H2508 H 0.65736 0.70104 0.72455 0.0
H2509 H 0.65668 0.71631 0.66182 0.0
H2510 H 0.62908 0.74099 0.67999 0.0
C2511 C 0.64733 0.77648 0.62069 0.0
C2512 C 0.65802 0.74885 0.62935 0.0
C2513 C 0.64984 0.78672 0.59896 0.0
C2514 C 0.65164 0.70765 0.73189 0.0
C2515 C 0.65135 0.71649 0.69649 0.0
C2516 C 0.63723 0.74308 0.66652 0.0
C2517 C 0.65117 0.76687 0.59615 0.0
C2518 C 0.64925 0.75607 0.62158 0.0
C2519 C 0.64474 0.72565 0.70731 0.0
C2520 C 0.64608 0.73592 0.67549 0.0
H2521 H 0.66458 0.77834 0.49038 0.0
H2522 H 0.66036 0.76041 0.52892 0.0
H2523 H 0.6319 0.75848 0.63433 0.0
H2524 H 0.63269 0.71639 0.82238 0.0
H2525 H 0.63246 0.73213 0.76188 0.0
C2526 C 0.53963 0.39916 0.07224 0.0
C2527 C 0.54429 0.40956 0.07969 0.0
C2528 C 0.53016 0.39794 0.04099 0.0
C2529 C 0.5064 0.41367 0.99382 0.0
H2530 H 0.50354 0.3913 0.88437 0.0
C2531 C 0.46588 0.40592 0.88306 0.0
C2532 C 0.46639 0.40442 0.82721 0.0
C2533 C 0.47541 0.40616 0.91378 0.0
C2534 C 0.50426 0.39762 0.91466 0.0
H2535 H 0.54278 0.42679 0.05967 0.0
H2536 H 0.52641 0.42466 0.00583 0.0
H2537 H 0.5202 0.39216 0.93895 0.0
H2538 H 0.4773 0.40197 0.75979 0.0
H2539 H 0.49405 0.40251 0.81362 0.0
H2540 H 0.4906 0.41924 0.96941 0.0
C2541 C 0.52995 0.41746 0.02431 0.0
C2542 C 0.51373 0.39803 0.94623 0.0
C2543 C 0.53938 0.41866 0.05502 0.0
C2544 C 0.47667 0.40325 0.80265 0.0
C2545 C 0.48623 0.40342 0.83353 0.0
C2546 C 0.49695 0.41322 0.96264 0.0
C2547 C 0.52518 0.40713 0.01725 0.0
C2548 C 0.51493 0.40613 0.98576 0.0
C2549 C 0.48569 0.40487 0.88945 0.0
C2550 C 0.49578 0.40523 0.92251 0.0
H2551 H 0.54325 0.392 0.09072 0.0
H2552 H 0.52662 0.38988 0.03629 0.0
H2553 H 0.50706 0.41995 0.02433 0.0
H2554 H 0.4581 0.40694 0.90307 0.0
H2555 H 0.47472 0.40722 0.9568 0.0
C2556 C 0.85559 0.29099 0.26419 0.0
C2557 C 0.84929 0.29055 0.31125 0.0
C2558 C 0.85523 0.28231 0.22722 0.0
C2559 C 0.83675 0.25949 0.18943 0.0
H2560 H 0.86151 0.24805 0.11015 0.0
C2561 C 0.83738 0.21665 0.09716 0.0
C2562 C 0.84132 0.21537 0.04468 0.0
C2563 C 0.8381 0.22674 0.12307 0.0
C2564 C 0.8545 0.2513 0.13146 0.0
H2565 H 0.83842 0.28048 0.35883 0.0
H2566 H 0.83814 0.26529 0.29615 0.0
H2567 H 0.86404 0.26375 0.17031 0.0
H2568 H 0.84902 0.22359 0.97772 0.0
H2569 H 0.85049 0.24138 0.02376 0.0
H2570 H 0.82732 0.24682 0.15238 0.0
C2571 C 0.843 0.27241 0.28622 0.0
C2572 C 0.85594 0.26026 0.16592 0.0
C2573 C 0.84325 0.28107 0.32247 0.0
C2574 C 0.84582 0.22445 0.01803 0.0
C2575 C 0.84676 0.23454 0.04446 0.0
C2576 C 0.83535 0.25052 0.15558 0.0
C2577 C 0.84863 0.27307 0.23717 0.0
C2578 C 0.84713 0.26427 0.19642 0.0
C2579 C 0.84295 0.23574 0.09738 0.0
C2580 C 0.84424 0.24617 0.12718 0.0
H2581 H 0.86024 0.29827 0.25453 0.0
H2582 H 0.8597 0.28306 0.18989 0.0
H2583 H 0.82969 0.26257 0.21092 0.0
H2584 H 0.83389 0.20976 0.1184 0.0
H2585 H 0.83518 0.2274 0.16398 0.0
C2586 C 0.96108 0.59585 0.50905 0.0
C2587 C 0.95958 0.60404 0.54784 0.0
C2588 C 0.96998 0.59624 0.47406 0.0
C2589 C 0.99806 0.60366 0.47449 0.0
H2590 H 0.99719 0.59915 0.32056 0.0
C2591 C 0.03787 0.59637 0.3568 0.0
C2592 C 0.03755 0.58901 0.31366 0.0
C2593 C 0.0282 0.60011 0.38039 0.0
C2594 C 0.99761 0.60027 0.36359 0.0
H2595 H 0.96596 0.6192 0.57994 0.0
H2596 H 0.9819 0.61968 0.51962 0.0
H2597 H 0.98023 0.60249 0.3697 0.0
H2598 H 0.02699 0.57986 0.26067 0.0
H2599 H 0.01004 0.58582 0.30353 0.0
H2600 H 0.0152 0.60065 0.46998 0.0
C2601 C 0.97601 0.6131 0.51571 0.0
C2602 C 0.98789 0.60231 0.39153 0.0
C2603 C 0.96691 0.61287 0.54988 0.0
C2604 C 0.02739 0.58558 0.29381 0.0
C2605 C 0.01769 0.58909 0.31827 0.0
C2606 C 0.00774 0.60137 0.44687 0.0
C2607 C 0.97771 0.60468 0.47815 0.0
C2608 C 0.98803 0.60393 0.44729 0.0
C2609 C 0.01795 0.59633 0.36236 0.0
C2610 C 0.00767 0.59952 0.39102 0.0
H2611 H 0.95553 0.58895 0.50689 0.0
H2612 H 0.97116 0.5896 0.44583 0.0
H2613 H 0.99836 0.60468 0.51766 0.0
H2614 H 0.04563 0.59927 0.37211 0.0
H2615 H 0.02882 0.60592 0.413 0.0
C2616 C 0.64945 0.21158 0.86635 0.0
C2617 C 0.65374 0.21324 0.91799 0.0
C2618 C 0.64663 0.22047 0.83405 0.0
C2619 C 0.64263 0.25074 0.83281 0.0
H2620 H 0.65348 0.2479 0.68727 0.0
C2621 C 0.64284 0.28678 0.67941 0.0
C2622 C 0.65316 0.28831 0.6558 0.0
C2623 C 0.64059 0.27719 0.70841 0.0
C2624 C 0.65033 0.2488 0.72766 0.0
H2625 H 0.65797 0.22544 0.97735 0.0
H2626 H 0.65335 0.24106 0.92036 0.0
H2627 H 0.65373 0.23214 0.74643 0.0
H2628 H 0.66904 0.28092 0.64207 0.0
H2629 H 0.66513 0.26432 0.69173 0.0
H2630 H 0.63984 0.26766 0.81428 0.0
C2631 C 0.65196 0.23288 0.90509 0.0
C2632 C 0.65037 0.23973 0.76154 0.0
C2633 C 0.65467 0.22395 0.9377 0.0
C2634 C 0.66102 0.27999 0.65997 0.0
C2635 C 0.65875 0.27043 0.68813 0.0
C2636 C 0.6426 0.25986 0.79874 0.0
C2637 C 0.64816 0.23124 0.85236 0.0
C2638 C 0.64677 0.24063 0.81497 0.0
C2639 C 0.64858 0.26896 0.71324 0.0
C2640 C 0.64675 0.25904 0.74632 0.0
H2641 H 0.64839 0.20339 0.85068 0.0
H2642 H 0.64347 0.21888 0.7942 0.0
H2643 H 0.63966 0.25168 0.87348 0.0
H2644 H 0.63666 0.29311 0.67693 0.0
H2645 H 0.63268 0.27625 0.7273 0.0
C2646 C 0.95918 0.39875 0.9259 0.0
C2647 C 0.95244 0.40792 0.93273 0.0
C2648 C 0.96839 0.39731 0.95876 0.0
C2649 C 0.98665 0.41333 0.0502 0.0
H2650 H 0.99785 0.38467 0.08753 0.0
C2651 C 0.02166 0.4053 0.20464 0.0
C2652 C 0.02994 0.39819 0.18654 0.0
C2653 C 0.01213 0.40683 0.17426 0.0
C2654 C 0.99481 0.39273 0.07726 0.0
H2655 H 0.94952 0.42238 0.9809 0.0
H2656 H 0.96508 0.41959 0.03977 0.0
H2657 H 0.98105 0.38615 0.03518 0.0
H2658 H 0.0349 0.38775 0.12029 0.0
H2659 H 0.01821 0.39016 0.06875 0.0
H2660 H 0.00033 0.41984 0.09367 0.0
C2661 C 0.96371 0.41376 0.00779 0.0
C2662 C 0.98521 0.39359 0.04695 0.0
C2663 C 0.9547 0.41531 0.97437 0.0
C2664 C 0.0286 0.39302 0.13645 0.0
C2665 C 0.01905 0.39441 0.10669 0.0
C2666 C 0.99613 0.41246 0.08128 0.0
C2667 C 0.97087 0.40492 0.99965 0.0
C2668 C 0.98102 0.40391 0.03273 0.0
C2669 C 0.01065 0.40118 0.12563 0.0
C2670 C 0.00034 0.40215 0.09472 0.0
H2671 H 0.95762 0.39299 0.89374 0.0
H2672 H 0.97374 0.39045 0.95082 0.0
H2673 H 0.98388 0.42143 0.03911 0.0
H2674 H 0.02236 0.40938 0.243 0.0
H2675 H 0.00575 0.41212 0.18963 0.0
C2676 C 0.8494 0.70992 0.21712 0.0
C2677 C 0.84041 0.70912 0.18226 0.0
C2678 C 0.85019 0.71874 0.25308 0.0
C2679 C 0.83249 0.74017 0.3152 0.0
H2680 H 0.85988 0.75423 0.35243 0.0
C2681 C 0.83634 0.78419 0.39339 0.0
C2682 C 0.84134 0.78546 0.44367 0.0
C2683 C 0.83656 0.77411 0.36722 0.0
C2684 C 0.8522 0.75026 0.34277 0.0
H2685 H 0.82563 0.71716 0.15495 0.0
H2686 H 0.82726 0.73265 0.21498 0.0
H2687 H 0.85997 0.73818 0.29334 0.0
H2688 H 0.85057 0.7773 0.50605 0.0
H2689 H 0.85124 0.75955 0.45907 0.0
H2690 H 0.82472 0.75262 0.36216 0.0
C2691 C 0.83345 0.72632 0.21694 0.0
C2692 C 0.85224 0.74107 0.30908 0.0
C2693 C 0.83256 0.71749 0.18201 0.0
C2694 C 0.84658 0.77645 0.46747 0.0
C2695 C 0.84703 0.76638 0.44059 0.0
C2696 C 0.83246 0.74942 0.34792 0.0
C2697 C 0.84208 0.72694 0.25411 0.0
C2698 C 0.84234 0.73606 0.29386 0.0
C2699 C 0.842 0.76516 0.3903 0.0
C2700 C 0.84228 0.75464 0.36124 0.0
H2701 H 0.85553 0.70353 0.21815 0.0
H2702 H 0.85695 0.71893 0.28112 0.0
H2703 H 0.82473 0.73634 0.30593 0.0
H2704 H 0.83223 0.79102 0.37446 0.0
H2705 H 0.83263 0.77333 0.32842 0.0
C2706 C 0.53667 0.60035 0.44864 0.0
C2707 C 0.53881 0.591 0.41759 0.0
C2708 C 0.5274 0.60078 0.4817 0.0
C2709 C 0.49995 0.58917 0.49612 0.0
H2710 H 0.50202 0.59734 0.64623 0.0
C2711 C 0.46176 0.59556 0.62572 0.0
C2712 C 0.46145 0.59007 0.67536 0.0
C2713 C 0.47145 0.59632 0.59651 0.0
C2714 C 0.50135 0.59503 0.60441 0.0
H2715 H 0.53289 0.57486 0.39612 0.0
H2716 H 0.51668 0.5757 0.4527 0.0
H2717 H 0.51846 0.59765 0.58957 0.0
H2718 H 0.47134 0.58142 0.73389 0.0
H2719 H 0.48839 0.5829 0.68281 0.0
H2720 H 0.48291 0.58652 0.51054 0.0
C2721 C 0.52216 0.58267 0.45185 0.0
C2722 C 0.51071 0.5953 0.57195 0.0
C2723 C 0.53146 0.58218 0.41959 0.0
C2724 C 0.47125 0.58572 0.69596 0.0
C2725 C 0.48102 0.58657 0.66674 0.0
C2726 C 0.4906 0.58904 0.52825 0.0
C2727 C 0.52004 0.59194 0.48343 0.0
C2728 C 0.5101 0.59229 0.51757 0.0
C2729 C 0.48116 0.59171 0.61625 0.0
C2730 C 0.4912 0.59192 0.58277 0.0
H2731 H 0.54224 0.60724 0.44806 0.0
H2732 H 0.52591 0.60805 0.50545 0.0
H2733 H 0.49922 0.58686 0.4543 0.0
H2734 H 0.45451 0.59932 0.60909 0.0
H2735 H 0.47135 0.60052 0.55822 0.0
C2736 C 0.35283 0.28853 0.16935 0.0
C2737 C 0.34316 0.29463 0.17407 0.0
C2738 C 0.35431 0.27902 0.20002 0.0
C2739 C 0.33831 0.2586 0.27886 0.0
H2740 H 0.36678 0.25035 0.33409 0.0
C2741 C 0.345 0.22455 0.43778 0.0
C2742 C 0.35358 0.21716 0.42756 0.0
C2743 C 0.34358 0.23382 0.40553 0.0
C2744 C 0.35879 0.25253 0.31858 0.0
H2745 H 0.32768 0.29592 0.21597 0.0
H2746 H 0.3304 0.27972 0.27063 0.0
H2747 H 0.3649 0.26707 0.28136 0.0
H2748 H 0.36702 0.21354 0.37327 0.0
H2749 H 0.36468 0.22979 0.31836 0.0
H2750 H 0.3322 0.24416 0.31736 0.0
C2751 C 0.3367 0.28193 0.24208 0.0
C2752 C 0.35772 0.26209 0.28816 0.0
C2753 C 0.33517 0.29129 0.21102 0.0
C2754 C 0.3605 0.21915 0.38344 0.0
C2755 C 0.35916 0.22846 0.35173 0.0
C2756 C 0.33937 0.24913 0.30982 0.0
C2757 C 0.34619 0.27555 0.2364 0.0
C2758 C 0.34745 0.26527 0.26799 0.0
C2759 C 0.35076 0.23595 0.36273 0.0
C2760 C 0.34962 0.246 0.32997 0.0
H2761 H 0.35909 0.2909 0.14088 0.0
H2762 H 0.36168 0.27427 0.19418 0.0
H2763 H 0.33032 0.26062 0.26302 0.0
H2764 H 0.33956 0.22338 0.47147 0.0
H2765 H 0.33706 0.2395 0.415 0.0
C2766 C 0.45759 0.60176 0.95364 0.0
C2767 C 0.45751 0.59422 0.91119 0.0
C2768 C 0.46654 0.60218 0.98891 0.0
C2769 C 0.48915 0.58411 0.03403 0.0
H2770 H 0.50091 0.61018 0.10119 0.0
C2771 C 0.53178 0.58604 0.12831 0.0
C2772 C 0.5327 0.59039 0.18018 0.0
C2773 C 0.52189 0.58662 0.10058 0.0
C2774 C 0.49758 0.60284 0.08316 0.0
H2775 H 0.46691 0.58185 0.86946 0.0
H2776 H 0.48266 0.583 0.92842 0.0
H2777 H 0.4853 0.61173 0.03971 0.0
H2778 H 0.52411 0.59875 0.24403 0.0
H2779 H 0.50669 0.6 0.19462 0.0
H2780 H 0.50166 0.57529 0.07566 0.0
C2781 C 0.47572 0.58826 0.93645 0.0
C2782 C 0.48867 0.60371 0.04799 0.0
C2783 C 0.46676 0.5877 0.90214 0.0
C2784 C 0.52352 0.59526 0.20422 0.0
C2785 C 0.51364 0.59605 0.17591 0.0
C2786 C 0.49809 0.58327 0.06844 0.0
C2787 C 0.47555 0.59513 0.98167 0.0
C2788 C 0.48451 0.59437 0.02204 0.0
C2789 C 0.51277 0.59175 0.12378 0.0
C2790 C 0.50251 0.59263 0.09258 0.0
H2791 H 0.45047 0.60678 0.96166 0.0
H2792 H 0.46614 0.60759 0.02326 0.0
H2793 H 0.48594 0.57668 0.01633 0.0
H2794 H 0.53876 0.58225 0.10912 0.0
H2795 H 0.52145 0.58329 0.06034 0.0
C2796 C 0.13902 0.70843 0.74189 0.0
C2797 C 0.14516 0.70914 0.69442 0.0
C2798 C 0.13814 0.71755 0.77592 0.0
C2799 C 0.14088 0.74754 0.77853 0.0
H2800 H 0.152 0.74432 0.92344 0.0
C2801 C 0.15796 0.78425 0.89149 0.0
C2802 C 0.15547 0.78557 0.94609 0.0
C2803 C 0.15545 0.77454 0.86492 0.0
C2804 C 0.1487 0.74534 0.88344 0.0
H2805 H 0.15473 0.71988 0.64376 0.0
H2806 H 0.1529 0.73579 0.70172 0.0
H2807 H 0.14865 0.72803 0.86845 0.0
H2808 H 0.14874 0.77756 0.01624 0.0
H2809 H 0.1443 0.76046 0.96958 0.0
H2810 H 0.14108 0.76478 0.79258 0.0
C2811 C 0.14886 0.72826 0.71325 0.0
C2812 C 0.14675 0.73602 0.85206 0.0
C2813 C 0.14993 0.71915 0.68015 0.0
C2814 C 0.15082 0.77675 0.97421 0.0
C2815 C 0.14825 0.76698 0.94744 0.0
C2816 C 0.14275 0.75682 0.80983 0.0
C2817 C 0.14315 0.72752 0.76198 0.0
C2818 C 0.14316 0.73707 0.79873 0.0
C2819 C 0.15031 0.76587 0.89213 0.0
C2820 C 0.14704 0.75587 0.862 0.0
H2821 H 0.13539 0.70072 0.75387 0.0
H2822 H 0.1337 0.71679 0.81332 0.0
H2823 H 0.13798 0.74858 0.73776 0.0
H2824 H 0.16173 0.79083 0.86906 0.0
H2825 H 0.15747 0.77385 0.82275 0.0
C2826 C 0.95816 0.39697 0.6451 0.0
C2827 C 0.95985 0.40327 0.69139 0.0
C2828 C 0.96701 0.39266 0.61687 0.0
C2829 C 0.99734 0.38874 0.61881 0.0
H2830 H 0.99414 0.39385 0.46603 0.0
C2831 C 0.03285 0.3834 0.46376 0.0
C2832 C 0.03414 0.39267 0.43095 0.0
C2833 C 0.0235 0.38228 0.49595 0.0
C2834 C 0.99514 0.3923 0.50855 0.0
H2835 H 0.97198 0.40952 0.74649 0.0
H2836 H 0.98762 0.40236 0.69598 0.0
H2837 H 0.97849 0.39618 0.52454 0.0
H2838 H 0.02659 0.40782 0.40481 0.0
H2839 H 0.01041 0.40584 0.46004 0.0
H2840 H 0.01427 0.38551 0.6023 0.0
C2841 C 0.97944 0.40052 0.68197 0.0
C2842 C 0.98613 0.39351 0.54219 0.0
C2843 C 0.97052 0.40468 0.7108 0.0
C2844 C 0.02585 0.4006 0.42977 0.0
C2845 C 0.01652 0.39943 0.46117 0.0
C2846 C 0.00641 0.38753 0.58492 0.0
C2847 C 0.97778 0.39475 0.63368 0.0
C2848 C 0.98715 0.39201 0.59794 0.0
C2849 C 0.01526 0.39032 0.49488 0.0
C2850 C 0.00545 0.38963 0.52967 0.0
H2851 H 0.94996 0.39558 0.63011 0.0
H2852 H 0.9654 0.388 0.58078 0.0
H2853 H 0.99837 0.38738 0.66145 0.0
H2854 H 0.03917 0.3772 0.46555 0.0
H2855 H 0.0227 0.37517 0.52159 0.0
C2856 C 0.34209 0.77214 0.04889 0.0
C2857 C 0.33916 0.7815 0.07844 0.0
C2858 C 0.34381 0.7621 0.07486 0.0
C2859 C 0.33838 0.74786 0.20435 0.0
H2860 H 0.3626 0.72922 0.16245 0.0
C2861 C 0.35217 0.71369 0.34176 0.0
C2862 C 0.35151 0.70327 0.31856 0.0
C2863 C 0.35246 0.72299 0.30939 0.0
C2864 C 0.35581 0.73436 0.17437 0.0
H2865 H 0.3353 0.78749 0.15813 0.0
H2866 H 0.33864 0.7703 0.20324 0.0
H2867 H 0.3586 0.74581 0.11061 0.0
H2868 H 0.35118 0.69422 0.24402 0.0
H2869 H 0.35194 0.71059 0.18681 0.0
H2870 H 0.33575 0.73662 0.26871 0.0
C2871 C 0.33948 0.77057 0.16001 0.0
C2872 C 0.35345 0.74381 0.14454 0.0
C2873 C 0.3377 0.78051 0.13415 0.0
C2874 C 0.352 0.7022 0.26256 0.0
C2875 C 0.35235 0.71154 0.22998 0.0
C2876 C 0.34083 0.73857 0.23439 0.0
C2877 C 0.34262 0.76123 0.13089 0.0
C2878 C 0.34477 0.75075 0.15965 0.0
C2879 C 0.35203 0.72202 0.25324 0.0
C2880 C 0.34964 0.7318 0.22018 0.0
H2881 H 0.34337 0.77261 0.006 0.0
H2882 H 0.34609 0.75505 0.05106 0.0
H2883 H 0.33144 0.7528 0.21636 0.0
H2884 H 0.35156 0.71467 0.3849 0.0
H2885 H 0.3523 0.73098 0.32826 0.0
C2886 C 0.03918 0.5786 0.06387 0.0
C2887 C 0.04631 0.5871 0.07858 0.0
C2888 C 0.03068 0.58045 0.02777 0.0
C2889 C 0.014 0.60234 0.96624 0.0
H2890 H 0.00719 0.57972 0.86213 0.0
C2891 C 0.98338 0.60961 0.79552 0.0
C2892 C 0.97535 0.60154 0.78754 0.0
C2893 C 0.99239 0.60762 0.82836 0.0
C2894 C 0.00894 0.58606 0.89124 0.0
H2895 H 0.05007 0.60426 0.06744 0.0
H2896 H 0.03524 0.60752 0.00327 0.0
H2897 H 0.02226 0.57705 0.92495 0.0
H2898 H 0.97077 0.58484 0.80578 0.0
H2899 H 0.98666 0.58126 0.86319 0.0
H2900 H 0.00073 0.61138 0.9321 0.0
C2901 C 0.03616 0.59943 0.02036 0.0
C2902 C 0.01756 0.58454 0.92733 0.0
C2903 C 0.04466 0.59757 0.05697 0.0
C2904 C 0.97684 0.59119 0.81103 0.0
C2905 C 0.98591 0.58917 0.84393 0.0
C2906 C 0.00543 0.60388 0.92993 0.0
C2907 C 0.02911 0.59085 0.00501 0.0
C2908 C 0.02016 0.59264 0.9655 0.0
C2909 C 0.99364 0.59746 0.85388 0.0
C2910 C 0.00279 0.59575 0.89212 0.0
H2911 H 0.04016 0.57044 0.08023 0.0
H2912 H 0.02528 0.57372 0.01795 0.0
H2913 H 0.01564 0.60866 0.99559 0.0
H2914 H 0.98264 0.61757 0.77686 0.0
H2915 H 0.99834 0.61408 0.83418 0.0
C2916 C 0.14695 0.27813 0.83476 0.0
C2917 C 0.15689 0.28369 0.84232 0.0
C2918 C 0.14672 0.26813 0.80709 0.0
C2919 C 0.16506 0.24544 0.76525 0.0
H2920 H 0.14251 0.23903 0.6606 0.0
C2921 C 0.16506 0.20478 0.6491 0.0
C2922 C 0.16251 0.20521 0.59406 0.0
C2923 C 0.16324 0.21381 0.68228 0.0
C2924 C 0.1489 0.24072 0.6895 0.0
H2925 H 0.17432 0.28324 0.82588 0.0
H2926 H 0.17388 0.2661 0.77737 0.0
H2927 H 0.14153 0.25592 0.71281 0.0
H2928 H 0.1557 0.21558 0.5316 0.0
H2929 H 0.15299 0.2314 0.58881 0.0
H2930 H 0.17272 0.23059 0.7406 0.0
C2931 C 0.16629 0.26924 0.79368 0.0
C2932 C 0.14826 0.25034 0.71993 0.0
C2933 C 0.16653 0.27913 0.82128 0.0
C2934 C 0.15795 0.21492 0.57341 0.0
C2935 C 0.15622 0.22399 0.60655 0.0
C2936 C 0.16573 0.2359 0.73475 0.0
C2937 C 0.15642 0.26354 0.78659 0.0
C2938 C 0.15644 0.2529 0.75751 0.0
C2939 C 0.15892 0.22358 0.66136 0.0
C2940 C 0.15774 0.23346 0.69599 0.0
H2941 H 0.13939 0.28145 0.85056 0.0
H2942 H 0.13898 0.26392 0.80249 0.0
H2943 H 0.17141 0.24705 0.79451 0.0
H2944 H 0.16863 0.19753 0.66675 0.0
H2945 H 0.16526 0.21312 0.72445 0.0
C2946 C 0.54186 0.40849 0.38224 0.0
C2947 C 0.53985 0.40888 0.32698 0.0
C2948 C 0.53384 0.40464 0.4174 0.0
C2949 C 0.5057 0.39212 0.42363 0.0
H2950 H 0.50408 0.40957 0.55319 0.0
C2951 C 0.46863 0.39043 0.57174 0.0
C2952 C 0.46504 0.40077 0.58915 0.0
C2953 C 0.47857 0.38939 0.54388 0.0
C2954 C 0.50438 0.40462 0.51717 0.0
H2955 H 0.52822 0.40529 0.2643 0.0
H2956 H 0.51386 0.39912 0.3256 0.0
H2957 H 0.51983 0.41124 0.49546 0.0
H2958 H 0.46906 0.41807 0.59102 0.0
H2959 H 0.48601 0.4163 0.54238 0.0
H2960 H 0.48972 0.38618 0.44413 0.0
C2961 C 0.52172 0.40137 0.3422 0.0
C2962 C 0.51355 0.40543 0.48424 0.0
C2963 C 0.52989 0.40496 0.30694 0.0
C2964 C 0.47158 0.40997 0.57853 0.0
C2965 C 0.4814 0.40893 0.5509 0.0
C2966 C 0.4964 0.39143 0.45642 0.0
C2967 C 0.52348 0.40146 0.39815 0.0
C2968 C 0.51427 0.3994 0.43628 0.0
C2969 C 0.48507 0.39866 0.53328 0.0
C2970 C 0.49551 0.39793 0.50274 0.0
H2971 H 0.54957 0.4114 0.39818 0.0
H2972 H 0.53569 0.4045 0.45988 0.0
H2973 H 0.50602 0.38716 0.38767 0.0
H2974 H 0.46375 0.38321 0.57926 0.0
H2975 H 0.48119 0.38135 0.53092 0.0
C2976 C 0.16163 0.15303 0.18841 0.0
C2977 C 0.15632 0.15752 0.23333 0.0
C2978 C 0.15618 0.14567 0.15478 0.0
C2979 C 0.13195 0.12733 0.14992 0.0
H2980 H 0.13567 0.12975 0.9959 0.0
C2981 C 0.109 0.0986 0.0055 0.0
C2982 C 0.10417 0.1036 0.96051 0.0
C2983 C 0.11665 0.10426 0.03667 0.0
C2984 C 0.13451 0.12898 0.03881 0.0
H2985 H 0.14106 0.15796 0.27748 0.0
H2986 H 0.13152 0.14528 0.21871 0.0
H2987 H 0.14617 0.1416 0.05528 0.0
H2988 H 0.10418 0.11824 0.91129 0.0
H2989 H 0.11719 0.12819 0.96639 0.0
H2990 H 0.11993 0.1151 0.13353 0.0
C2991 C 0.13998 0.14721 0.21008 0.0
C2992 C 0.14063 0.13569 0.07292 0.0
C2993 C 0.14545 0.1545 0.2438 0.0
C2994 C 0.10755 0.1142 0.94619 0.0
C2995 C 0.11515 0.11987 0.97747 0.0
C2996 C 0.1258 0.12067 0.11585 0.0
C2997 C 0.14527 0.14268 0.16516 0.0
C2998 C 0.13932 0.13506 0.1289 0.0
C2999 C 0.11965 0.11505 0.0237 0.0
C3000 C 0.12689 0.1215 0.05982 0.0
H3001 H 0.17005 0.1551 0.17967 0.0
H3002 H 0.16055 0.14224 0.12095 0.0
H3003 H 0.13086 0.12648 0.19284 0.0
H3004 H 0.10661 0.09048 0.01795 0.0
H3005 H 0.12009 0.10022 0.07148 0.0
C3006 C 0.09906 0.90684 0.46039 0.0
C3007 C 0.09308 0.9028 0.50437 0.0
C3008 C 0.10548 0.89979 0.42908 0.0
C3009 C 0.10917 0.87024 0.39767 0.0
H3010 H 0.13769 0.87938 0.3469 0.0
C3011 C 0.13526 0.84272 0.25991 0.0
C3012 C 0.14666 0.84262 0.26766 0.0
C3013 C 0.12866 0.85027 0.2868 0.0
C3014 C 0.12978 0.87666 0.36118 0.0
H3015 H 0.08906 0.88801 0.54867 0.0
H3016 H 0.10045 0.87599 0.49607 0.0
H3017 H 0.12636 0.8922 0.39721 0.0
H3018 H 0.15996 0.85047 0.31076 0.0
H3019 H 0.14843 0.86328 0.35913 0.0
H3020 H 0.11272 0.85459 0.36376 0.0
C3021 C 0.10009 0.88455 0.48502 0.0
C3022 C 0.12321 0.88407 0.38937 0.0
C3023 C 0.09366 0.89154 0.51595 0.0
C3024 C 0.15123 0.85018 0.30392 0.0
C3025 C 0.14461 0.85768 0.33116 0.0
C3026 C 0.11575 0.86282 0.3699 0.0
C3027 C 0.10605 0.88854 0.44104 0.0
C3028 C 0.11285 0.88092 0.4084 0.0
C3029 C 0.13324 0.85788 0.3227 0.0
C3030 C 0.12617 0.8659 0.35151 0.0
H3031 H 0.09885 0.91545 0.4504 0.0
H3032 H 0.10989 0.90314 0.39519 0.0
H3033 H 0.10117 0.86756 0.41089 0.0
H3034 H 0.13137 0.83699 0.23297 0.0
H3035 H 0.11996 0.85023 0.27876 0.0
C3036 C 0.36353 0.84147 0.78538 0.0
C3037 C 0.35471 0.83655 0.75831 0.0
C3038 C 0.37099 0.84802 0.75777 0.0
C3039 C 0.38152 0.85406 0.62223 0.0
H3040 H 0.39145 0.881 0.68857 0.0
C3041 C 0.41582 0.88015 0.52899 0.0
C3042 C 0.41414 0.89153 0.5277 0.0
C3043 C 0.40895 0.8734 0.55913 0.0
C3044 C 0.38872 0.87354 0.66939 0.0
H3045 H 0.34694 0.83456 0.68075 0.0
H3046 H 0.35989 0.84615 0.63257 0.0
H3047 H 0.37845 0.86934 0.73576 0.0
H3048 H 0.40403 0.90473 0.5579 0.0
H3049 H 0.39205 0.89296 0.61054 0.0
H3050 H 0.39159 0.85839 0.55532 0.0
C3051 C 0.36107 0.84484 0.67516 0.0
C3052 C 0.38136 0.86679 0.69666 0.0
C3053 C 0.35359 0.83828 0.70283 0.0
C3054 C 0.40563 0.89603 0.55855 0.0
C3055 C 0.39875 0.88927 0.58867 0.0
C3056 C 0.38889 0.8608 0.59498 0.0
C3057 C 0.36983 0.84983 0.7024 0.0
C3058 C 0.37767 0.85698 0.67338 0.0
C3059 C 0.40024 0.87786 0.5887 0.0
C3060 C 0.39257 0.87062 0.61822 0.0
H3061 H 0.36456 0.84046 0.82821 0.0
H3062 H 0.37771 0.85165 0.77985 0.0
H3063 H 0.37892 0.84651 0.6034 0.0
H3064 H 0.42241 0.87645 0.50646 0.0
H3065 H 0.41046 0.86467 0.55917 0.0
C3066 C 0.40778 0.11097 0.99069 0.0
C3067 C 0.4045 0.1 0.9953 0.0
C3068 C 0.40116 0.11857 0.96405 0.0
C3069 C 0.37809 0.12012 0.86712 0.0
H3070 H 0.37612 0.15012 0.91678 0.0
C3071 C 0.34763 0.15085 0.77525 0.0
C3072 C 0.35219 0.1609 0.75962 0.0
C3073 C 0.35354 0.14366 0.80784 0.0
C3074 C 0.37663 0.14177 0.90242 0.0
H3075 H 0.39154 0.08848 0.97737 0.0
H3076 H 0.37991 0.10169 0.93201 0.0
H3077 H 0.38746 0.13705 0.96578 0.0
H3078 H 0.36624 0.17155 0.76798 0.0
H3079 H 0.37656 0.15902 0.82522 0.0
H3080 H 0.36717 0.12484 0.80411 0.0
C3081 C 0.38774 0.10441 0.94736 0.0
C3082 C 0.38317 0.13429 0.93027 0.0
C3083 C 0.3944 0.09682 0.97343 0.0
C3084 C 0.36259 0.16381 0.77901 0.0
C3085 C 0.36844 0.15668 0.81208 0.0
C3086 C 0.37148 0.12756 0.83967 0.0
C3087 C 0.39105 0.11537 0.94194 0.0
C3088 C 0.38402 0.12337 0.91284 0.0
C3089 C 0.36407 0.14644 0.82597 0.0
C3090 C 0.37071 0.13847 0.85687 0.0
H3091 H 0.41556 0.11362 0.00686 0.0
H3092 H 0.40406 0.12689 0.96001 0.0
H3093 H 0.37871 0.11185 0.85179 0.0
H3094 H 0.33967 0.14837 0.7606 0.0
H3095 H 0.34994 0.13585 0.81833 0.0
C3096 C 0.90373 0.88618 0.0213 0.0
C3097 C 0.90352 0.89769 0.02204 0.0
C3098 C 0.89595 0.88027 0.99254 0.0
C3099 C 0.87721 0.88217 0.8786 0.0
H3100 H 0.86556 0.85529 0.93851 0.0
C3101 C 0.85747 0.84863 0.74792 0.0
C3102 C 0.84819 0.8432 0.76793 0.0
C3103 C 0.86329 0.85595 0.78014 0.0
C3104 C 0.86863 0.86283 0.92135 0.0
H3105 H 0.89485 0.91197 0.99284 0.0
H3106 H 0.88124 0.90157 0.94181 0.0
H3107 H 0.87699 0.8671 0.99376 0.0
H3108 H 0.8378 0.84118 0.83766 0.0
H3109 H 0.8479 0.85403 0.89385 0.0
H3110 H 0.86886 0.87785 0.80606 0.0
C3111 C 0.88751 0.89718 0.96374 0.0
C3112 C 0.87526 0.86955 0.95286 0.0
C3113 C 0.8953 0.90313 0.9929 0.0
C3114 C 0.84487 0.84526 0.82096 0.0
C3115 C 0.85071 0.85257 0.85327 0.0
C3116 C 0.87059 0.87542 0.84698 0.0
C3117 C 0.88776 0.88567 0.96339 0.0
C3118 C 0.87979 0.87919 0.93157 0.0
C3119 C 0.85997 0.85802 0.83319 0.0
C3120 C 0.86636 0.86559 0.86776 0.0
H3121 H 0.91006 0.88164 0.04181 0.0
H3122 H 0.89654 0.87143 0.99208 0.0
H3123 H 0.88062 0.88951 0.86095 0.0
H3124 H 0.86016 0.84738 0.70701 0.0
H3125 H 0.87047 0.8599 0.76364 0.0
C3126 C 0.85936 0.1493 0.75364 0.0
C3127 C 0.85184 0.15637 0.72874 0.0
C3128 C 0.86551 0.14192 0.72319 0.0
C3129 C 0.87609 0.1371 0.58747 0.0
H3130 H 0.87865 0.10692 0.63386 0.0
C3131 C 0.89746 0.10493 0.45536 0.0
C3132 C 0.90418 0.09722 0.48106 0.0
C3133 C 0.89054 0.1117 0.48513 0.0
C3134 C 0.87814 0.11534 0.62062 0.0
H3135 H 0.84501 0.16137 0.65239 0.0
H3136 H 0.85581 0.14852 0.59903 0.0
H3137 H 0.86793 0.11981 0.687 0.0
H3138 H 0.90881 0.09045 0.55809 0.0
H3139 H 0.8969 0.1024 0.61036 0.0
H3140 H 0.88647 0.13278 0.52187 0.0
C3141 C 0.85692 0.14868 0.64215 0.0
C3142 C 0.87197 0.12272 0.65105 0.0
C3143 C 0.85069 0.15598 0.67268 0.0
C3144 C 0.90363 0.09623 0.53714 0.0
C3145 C 0.89678 0.10308 0.56705 0.0
C3146 C 0.88233 0.12976 0.55731 0.0
C3147 C 0.86435 0.14152 0.66712 0.0
C3148 C 0.87087 0.13368 0.63478 0.0
C3149 C 0.89025 0.11102 0.54148 0.0
C3150 C 0.88344 0.11877 0.5734 0.0
H3151 H 0.86033 0.14932 0.79681 0.0
H3152 H 0.87123 0.13657 0.7435 0.0
H3153 H 0.87551 0.14553 0.5743 0.0
H3154 H 0.89761 0.10575 0.41211 0.0
H3155 H 0.88545 0.11751 0.46388 0.0
C3156 C 0.58431 0.11394 0.46838 0.0
C3157 C 0.58728 0.10295 0.47619 0.0
C3158 C 0.5909 0.12093 0.43827 0.0
C3159 C 0.61938 0.12422 0.39306 0.0
H3160 H 0.60687 0.14684 0.30281 0.0
C3161 C 0.64557 0.15934 0.3065 0.0
C3162 C 0.64357 0.16231 0.25293 0.0
C3163 C 0.63846 0.15225 0.33342 0.0
C3164 C 0.61051 0.14053 0.32754 0.0
H3165 H 0.59935 0.09058 0.45683 0.0
H3166 H 0.61079 0.10275 0.403 0.0
H3167 H 0.59491 0.13359 0.34606 0.0
H3168 H 0.63251 0.16008 0.18564 0.0
H3169 H 0.6202 0.14777 0.23229 0.0
H3170 H 0.63501 0.13102 0.37356 0.0
C3171 C 0.60343 0.106 0.42112 0.0
C3172 C 0.60364 0.13299 0.35276 0.0
C3173 C 0.59681 0.09899 0.45137 0.0
C3174 C 0.6342 0.15817 0.2272 0.0
C3175 C 0.62713 0.15107 0.25398 0.0
C3176 C 0.62626 0.13175 0.36771 0.0
C3177 C 0.60063 0.11709 0.41494 0.0
C3178 C 0.60798 0.12478 0.38602 0.0
C3179 C 0.62922 0.14794 0.30724 0.0
C3180 C 0.6219 0.14001 0.33478 0.0
H3181 H 0.57693 0.11721 0.48624 0.0
H3182 H 0.58853 0.12944 0.43473 0.0
H3183 H 0.62299 0.11809 0.41894 0.0
H3184 H 0.65266 0.16247 0.32751 0.0
H3185 H 0.64021 0.15015 0.37476 0.0
C3186 C 0.65253 0.85366 0.21401 0.0
C3187 C 0.64989 0.84299 0.23053 0.0
C3188 C 0.64484 0.86008 0.18712 0.0
C3189 C 0.61965 0.85953 0.1076 0.0
H3190 H 0.61538 0.88867 0.16556 0.0
C3191 C 0.58591 0.88849 0.02714 0.0
C3192 C 0.58878 0.89956 0.02146 0.0
C3193 C 0.59279 0.88125 0.05462 0.0
C3194 C 0.61654 0.88061 0.14839 0.0
H3195 H 0.63735 0.83048 0.22935 0.0
H3196 H 0.62389 0.8417 0.18153 0.0
H3197 H 0.62888 0.87657 0.20596 0.0
H3198 H 0.60117 0.91168 0.03987 0.0
H3199 H 0.61318 0.89913 0.08685 0.0
H3200 H 0.60751 0.86365 0.04907 0.0
C3201 C 0.6319 0.84509 0.18985 0.0
C3202 C 0.62427 0.87368 0.17165 0.0
C3203 C 0.63957 0.8387 0.21737 0.0
C3204 C 0.59859 0.90326 0.04448 0.0
C3205 C 0.6055 0.89604 0.07148 0.0
C3206 C 0.61198 0.86652 0.08385 0.0
C3207 C 0.63438 0.85593 0.17565 0.0
C3208 C 0.62597 0.86311 0.15123 0.0
C3209 C 0.60274 0.88491 0.07665 0.0
C3210 C 0.6104 0.8772 0.10366 0.0
H3211 H 0.66036 0.85725 0.22404 0.0
H3212 H 0.647 0.86837 0.17606 0.0
H3213 H 0.62083 0.85143 0.09099 0.0
H3214 H 0.57836 0.88542 0.01015 0.0
H3215 H 0.59032 0.87278 0.05855 0.0
C3216 C 0.5859 0.60951 0.51929 0.0
C3217 C 0.58895 0.59869 0.50788 0.0
C3218 C 0.59272 0.61626 0.54972 0.0
C3219 C 0.61658 0.61578 0.64239 0.0
H3220 H 0.61869 0.64632 0.60157 0.0
C3221 C 0.6483 0.64601 0.7332 0.0
C3222 C 0.64389 0.656 0.75075 0.0
C3223 C 0.64194 0.63875 0.70295 0.0
C3224 C 0.61815 0.63782 0.61352 0.0
H3225 H 0.60155 0.58644 0.51931 0.0
H3226 H 0.61357 0.59824 0.57154 0.0
H3227 H 0.60682 0.63411 0.55088 0.0
H3228 H 0.62952 0.66637 0.74916 0.0
H3229 H 0.61846 0.65378 0.69626 0.0
H3230 H 0.6281 0.61955 0.70464 0.0
C3231 C 0.60579 0.60147 0.55814 0.0
C3232 C 0.6113 0.63083 0.58472 0.0
C3233 C 0.5989 0.5947 0.52817 0.0
C3234 C 0.63308 0.65867 0.7368 0.0
C3235 C 0.62679 0.65151 0.70608 0.0
C3236 C 0.62353 0.62277 0.67087 0.0
C3237 C 0.60283 0.61238 0.56892 0.0
C3238 C 0.61033 0.61974 0.59911 0.0
C3239 C 0.63113 0.64147 0.68901 0.0
C3240 C 0.62429 0.63388 0.65704 0.0
H3241 H 0.57821 0.61275 0.50471 0.0
H3242 H 0.59005 0.62452 0.55822 0.0
H3243 H 0.61595 0.60733 0.65504 0.0
H3244 H 0.6566 0.64375 0.74364 0.0
H3245 H 0.64549 0.63107 0.69002 0.0
C3246 C 0.64697 0.3344 0.8251 0.0
C3247 C 0.64609 0.33504 0.76897 0.0
C3248 C 0.64 0.34049 0.85807 0.0
C3249 C 0.61401 0.35638 0.85669 0.0
H3250 H 0.62658 0.37073 0.98103 0.0
C3251 C 0.594 0.39341 0.96009 0.0
C3252 C 0.59396 0.39377 0.01644 0.0
C3253 C 0.59971 0.38522 0.93291 0.0
C3254 C 0.62291 0.36665 0.94689 0.0
H3255 H 0.63723 0.34261 0.70345 0.0
H3256 H 0.6252 0.35334 0.76063 0.0
H3257 H 0.63778 0.3583 0.92774 0.0
H3258 H 0.59982 0.38579 0.08852 0.0
H3259 H 0.60992 0.37145 0.04083 0.0
H3260 H 0.59925 0.36505 0.87502 0.0
C3261 C 0.63108 0.34794 0.77942 0.0
C3262 C 0.62932 0.35951 0.91635 0.0
C3263 C 0.638 0.34179 0.74653 0.0
C3264 C 0.59967 0.38567 0.0451 0.0
C3265 C 0.6055 0.37753 0.01783 0.0
C3266 C 0.60764 0.36359 0.88699 0.0
C3267 C 0.63203 0.34742 0.83564 0.0
C3268 C 0.62499 0.3544 0.8704 0.0
C3269 C 0.60559 0.37724 0.96142 0.0
C3270 C 0.61207 0.36891 0.93198 0.0
H3271 H 0.65303 0.32915 0.84354 0.0
H3272 H 0.64085 0.33975 0.90117 0.0
H3273 H 0.61033 0.35242 0.82227 0.0
H3274 H 0.58957 0.39945 0.93694 0.0
H3275 H 0.59971 0.38528 0.88944 0.0
C3276 C 0.89346 0.40613 0.02385 0.0
C3277 C 0.90375 0.40278 0.00492 0.0
C3278 C 0.88666 0.39877 0.05095 0.0
C3279 C 0.88231 0.36896 0.0694 0.0
H3280 H 0.86401 0.37823 0.18804 0.0
C3281 C 0.86032 0.33885 0.2113 0.0
C3282 C 0.84954 0.34132 0.22638 0.0
C3283 C 0.86647 0.3463 0.18138 0.0
C3284 C 0.86898 0.37556 0.15453 0.0
H3285 H 0.91521 0.3893 0.00171 0.0
H3286 H 0.90351 0.37652 0.0501 0.0
H3287 H 0.876 0.39146 0.1443 0.0
H3288 H 0.83665 0.35344 0.22127 0.0
H3289 H 0.84742 0.36652 0.16884 0.0
H3290 H 0.87545 0.35301 0.08057 0.0
C3291 C 0.90052 0.38472 0.04265 0.0
C3292 C 0.87585 0.38314 0.12943 0.0
C3293 C 0.90725 0.39205 0.01517 0.0
C3294 C 0.84491 0.35129 0.2098 0.0
C3295 C 0.85111 0.35881 0.18033 0.0
C3296 C 0.87551 0.36138 0.09478 0.0
C3297 C 0.89005 0.38793 0.0601 0.0
C3298 C 0.88265 0.37992 0.0867 0.0
C3299 C 0.86199 0.35642 0.16631 0.0
C3300 C 0.86881 0.36459 0.13773 0.0
H3301 H 0.89048 0.41431 0.01589 0.0
H3302 H 0.87862 0.4015 0.06322 0.0
H3303 H 0.88724 0.36624 0.03587 0.0
H3304 H 0.86405 0.3312 0.22323 0.0
H3305 H 0.87485 0.34426 0.17145 0.0
C3306 C 0.89778 0.60204 0.49156 0.0
C3307 C 0.90773 0.60658 0.50868 0.0
C3308 C 0.89049 0.60823 0.46064 0.0
C3309 C 0.88424 0.63707 0.42353 0.0
H3310 H 0.86688 0.62357 0.31139 0.0
C3311 C 0.85945 0.66197 0.26815 0.0
C3312 C 0.84863 0.65855 0.25954 0.0
C3313 C 0.86662 0.65555 0.29854 0.0
C3314 C 0.87163 0.62742 0.34284 0.0
H3315 H 0.9181 0.62092 0.50494 0.0
H3316 H 0.9056 0.6316 0.44999 0.0
H3317 H 0.87956 0.61241 0.36363 0.0
H3318 H 0.83687 0.64567 0.27504 0.0
H3319 H 0.84941 0.63443 0.32789 0.0
H3320 H 0.87644 0.65213 0.40177 0.0
C3321 C 0.90318 0.62343 0.46185 0.0
C3322 C 0.87887 0.62103 0.37295 0.0
C3323 C 0.91038 0.6173 0.49323 0.0
C3324 C 0.84513 0.64856 0.28156 0.0
C3325 C 0.85233 0.64208 0.31133 0.0
C3326 C 0.8771 0.64347 0.39302 0.0
C3327 C 0.89308 0.61903 0.44564 0.0
C3328 C 0.88528 0.62577 0.41369 0.0
C3329 C 0.86313 0.64553 0.32026 0.0
C3330 C 0.87073 0.63871 0.35241 0.0
H3331 H 0.89552 0.59382 0.5033 0.0
H3332 H 0.88273 0.60461 0.4495 0.0
H3333 H 0.88884 0.64098 0.45529 0.0
H3334 H 0.86234 0.66965 0.2519 0.0
H3335 H 0.87493 0.65837 0.30455 0.0
C3336 C 0.36416 0.33899 0.25594 0.0
C3337 C 0.35395 0.34375 0.24477 0.0
C3338 C 0.3722 0.34493 0.2833 0.0
C3339 C 0.38135 0.37281 0.30914 0.0
H3340 H 0.39567 0.36083 0.43489 0.0
C3341 C 0.40717 0.39967 0.45015 0.0
C3342 C 0.4162 0.39501 0.47644 0.0
C3343 C 0.4002 0.39318 0.41925 0.0
C3344 C 0.39192 0.36424 0.39926 0.0
H3345 H 0.34417 0.35844 0.25282 0.0
H3346 H 0.35825 0.36885 0.3001 0.0
H3347 H 0.38233 0.3498 0.38617 0.0
H3348 H 0.42525 0.38003 0.48951 0.0
H3349 H 0.41328 0.36871 0.4341 0.0
H3350 H 0.391 0.38717 0.32121 0.0
C3351 C 0.36 0.36052 0.28799 0.0
C3352 C 0.38424 0.35792 0.37158 0.0
C3353 C 0.35192 0.35454 0.26145 0.0
C3354 C 0.41828 0.38379 0.47009 0.0
C3355 C 0.41138 0.37731 0.43857 0.0
C3356 C 0.38914 0.37908 0.33629 0.0
C3357 C 0.37022 0.35578 0.29905 0.0
C3358 C 0.37878 0.36222 0.32675 0.0
C3359 C 0.40216 0.3819 0.41327 0.0
C3360 C 0.39441 0.37494 0.38222 0.0
H3361 H 0.36589 0.33067 0.2437 0.0
H3362 H 0.38002 0.3411 0.29126 0.0
H3363 H 0.37736 0.37625 0.27417 0.0
H3364 H 0.40527 0.40825 0.4551 0.0
H3365 H 0.39308 0.39699 0.40139 0.0
C3366 C 0.34718 0.65315 0.1936 0.0
C3367 C 0.34711 0.65265 0.24994 0.0
C3368 C 0.35413 0.64635 0.16384 0.0
C3369 C 0.37971 0.63042 0.17817 0.0
H3370 H 0.37104 0.61765 0.04228 0.0
C3371 C 0.4066 0.59901 0.06537 0.0
C3372 C 0.40738 0.60012 0.00936 0.0
C3373 C 0.39916 0.60534 0.09464 0.0
C3374 C 0.37362 0.62125 0.07992 0.0
H3375 H 0.35381 0.64422 0.319 0.0
H3376 H 0.3658 0.6323 0.2673 0.0
H3377 H 0.35792 0.62854 0.09323 0.0
H3378 H 0.40084 0.6087 0.94022 0.0
H3379 H 0.38802 0.61984 0.99131 0.0
H3380 H 0.3954 0.62314 0.16491 0.0
C3381 C 0.36072 0.63813 0.24604 0.0
C3382 C 0.3661 0.62749 0.10913 0.0
C3383 C 0.35382 0.64494 0.2757 0.0
C3384 C 0.40057 0.60774 0.98337 0.0
C3385 C 0.39311 0.61402 0.01258 0.0
C3386 C 0.38721 0.62417 0.14905 0.0
C3387 C 0.36112 0.63889 0.18979 0.0
C3388 C 0.36904 0.63215 0.15866 0.0
C3389 C 0.39228 0.61288 0.06855 0.0
C3390 C 0.38427 0.61951 0.09956 0.0
H3391 H 0.34219 0.65908 0.1726 0.0
H3392 H 0.35429 0.64723 0.1206 0.0
H3393 H 0.38234 0.63406 0.21563 0.0
H3394 H 0.41176 0.59327 0.08664 0.0
H3395 H 0.39867 0.60418 0.13766 0.0
C3396 C 0.09023 0.60456 0.98973 0.0
C3397 C 0.09444 0.59411 0.00095 0.0
C3398 C 0.09637 0.61213 0.96034 0.0
C3399 C 0.12062 0.61461 0.87051 0.0
H3400 H 0.11941 0.64506 0.91392 0.0
C3401 C 0.15057 0.6473 0.78887 0.0
C3402 C 0.14583 0.65717 0.7717 0.0
C3403 C 0.14439 0.63961 0.81739 0.0
C3404 C 0.11977 0.6366 0.90111 0.0
H3405 H 0.10839 0.58341 0.98998 0.0
H3406 H 0.11918 0.59663 0.93954 0.0
H3407 H 0.10835 0.63155 0.96111 0.0
H3408 H 0.13101 0.66688 0.77245 0.0
H3409 H 0.12022 0.65351 0.82252 0.0
H3410 H 0.13221 0.6197 0.81105 0.0
C3411 C 0.11103 0.59894 0.95234 0.0
C3412 C 0.11339 0.62885 0.92797 0.0
C3413 C 0.10485 0.59134 0.9813 0.0
C3414 C 0.13485 0.6593 0.78477 0.0
C3415 C 0.12871 0.65169 0.81377 0.0
C3416 C 0.12707 0.62236 0.84397 0.0
C3417 C 0.10692 0.60948 0.94188 0.0
C3418 C 0.11369 0.61774 0.91294 0.0
C3419 C 0.13337 0.6417 0.8299 0.0
C3420 C 0.12669 0.63344 0.85888 0.0
H3421 H 0.08218 0.60688 0.00373 0.0
H3422 H 0.09282 0.62007 0.95211 0.0
H3423 H 0.12095 0.60619 0.85719 0.0
H3424 H 0.15897 0.64538 0.77897 0.0
H3425 H 0.14823 0.63203 0.8297 0.0
C3426 C 0.13398 0.32816 0.73103 0.0
C3427 C 0.14473 0.33182 0.73984 0.0
C3428 C 0.12646 0.33473 0.70359 0.0
C3429 C 0.12058 0.3635 0.67447 0.0
H3430 H 0.10224 0.35235 0.56006 0.0
C3431 C 0.09471 0.3921 0.5408 0.0
C3432 C 0.08462 0.38828 0.52152 0.0
C3433 C 0.1017 0.38513 0.56916 0.0
C3434 C 0.10715 0.35557 0.59255 0.0
H3435 H 0.156 0.34526 0.72653 0.0
H3436 H 0.1429 0.35669 0.67875 0.0
H3437 H 0.11507 0.34012 0.60506 0.0
H3438 H 0.07372 0.37434 0.51875 0.0
H3439 H 0.08574 0.36224 0.56956 0.0
H3440 H 0.11261 0.37888 0.66297 0.0
C3441 C 0.1403 0.34873 0.69301 0.0
C3442 C 0.11454 0.34855 0.61812 0.0
C3443 C 0.14784 0.34212 0.7198 0.0
C3444 C 0.08152 0.37745 0.53256 0.0
C3445 C 0.08845 0.37051 0.56143 0.0
C3446 C 0.11312 0.37048 0.64938 0.0
C3447 C 0.1295 0.34517 0.68515 0.0
C3448 C 0.1214 0.35248 0.65897 0.0
C3449 C 0.09871 0.37421 0.57947 0.0
C3450 C 0.10636 0.36665 0.60772 0.0
H3451 H 0.13138 0.32025 0.74589 0.0
H3452 H 0.11817 0.3318 0.69819 0.0
H3453 H 0.12566 0.3667 0.70646 0.0
H3454 H 0.09738 0.40036 0.53221 0.0
H3455 H 0.1096 0.38824 0.58157 0.0
loop_
_geom_bond_atom_site_label_1
_geom_bond_atom_site_label_2
_geom_bond_distance
_geom_bond_site_symmetry_2
_ccdc_geom_bond_type
Co0 N4 2.148 . S
Co0 N10 2.128 . S
Co0 N20 2.194 . S
Co0 O25 2.351 . S
Co0 O26 2.155 . S
Co0 O27 2.096 . S
C1 N4 1.301 . S
C1 N5 1.328 . S
C1 H6 0.930 . S
C2 C3 1.333 . S
C2 N4 1.317 . S
C2 H7 0.930 . S
C3 C2 1.333 . S
C3 N5 1.350 . S
C3 H29 0.931 . S
N4 Co0 2.148 . S
N4 C1 1.301 . S
N4 C2 1.317 . S
N5 C1 1.328 . S
N5 C3 1.350 . S
H6 C1 0.930 . S
H7 C2 0.930 . S
C8 O9 1.224 . S
C8 O27 1.247 . S
O9 C8 1.224 . S
N10 Co0 2.128 . S
N10 C11 1.355 . S
N10 C13 1.311 . S
C11 N10 1.355 . S
C11 C12 1.363 . S
C11 H23 0.929 . S
C12 C11 1.363 . S
C12 N14 1.375 . S
C12 H30 0.931 . S
C13 N10 1.311 . S
C13 N14 1.347 . S
C13 H24 0.929 . S
N14 C12 1.375 . S
N14 C13 1.347 . S
C15 C18 1.365 . S
C15 N20 1.328 . S
C15 H21 0.929 . S
C16 C17 1.362 . S
C16 C19 1.378 . S
C16 H31 0.929 . S
C17 C16 1.362 . S
C17 C18 1.366 . S
C18 C15 1.365 . S
C18 C17 1.366 . S
C18 H32 0.930 . S
C19 C16 1.378 . S
C19 N20 1.315 . S
C19 H22 0.930 . S
N20 Co0 2.194 . S
N20 C15 1.328 . S
N20 C19 1.315 . S
H21 C15 0.929 . S
H22 C19 0.930 . S
H23 C11 0.929 . S
H24 C13 0.929 . S
O25 Co0 2.351 . S
O25 C28 1.244 . S
O26 Co0 2.155 . S
O26 C28 1.240 . S
O27 Co0 2.096 . S
O27 C8 1.247 . S
C28 O25 1.244 . S
C28 O26 1.240 . S
H29 C3 0.931 . S
H30 C12 0.931 . S
H31 C16 0.929 . S
H32 C18 0.930 . S
Co33 N37 2.148 . S
Co33 N43 2.128 . S
Co33 N53 2.194 . S
Co33 O58 2.351 . S
Co33 O59 2.155 . S
Co33 O60 2.096 . S
C34 N37 1.301 . S
C34 N38 1.328 . S
C34 H39 0.930 . S
C35 C36 1.333 . S
C35 N37 1.317 . S
C35 H40 0.930 . S
C36 C35 1.333 . S
C36 N38 1.350 . S
C36 H62 0.931 . S
N37 Co33 2.148 . S
N37 C34 1.301 . S
N37 C35 1.317 . S
N38 C34 1.328 . S
N38 C36 1.350 . S
H39 C34 0.930 . S
H40 C35 0.930 . S
C41 O42 1.224 . S
C41 O60 1.247 . S
O42 C41 1.224 . S
N43 Co33 2.128 . S
N43 C44 1.355 . S
N43 C46 1.311 . S
C44 N43 1.355 . S
C44 C45 1.363 . S
C44 H56 0.929 . S
C45 C44 1.363 . S
C45 N47 1.375 . S
C45 H63 0.931 . S
C46 N43 1.311 . S
C46 N47 1.347 . S
C46 H57 0.929 . S
N47 C45 1.375 . S
N47 C46 1.347 . S
C48 C51 1.365 . S
C48 N53 1.328 . S
C48 H54 0.929 . S
C49 C50 1.362 . S
C49 C52 1.378 . S
C49 H64 0.929 . S
C50 C49 1.362 . S
C50 C51 1.366 . S
C51 C48 1.365 . S
C51 C50 1.366 . S
C51 H65 0.930 . S
C52 C49 1.378 . S
C52 N53 1.315 . S
C52 H55 0.930 . S
N53 Co33 2.194 . S
N53 C48 1.328 . S
N53 C52 1.315 . S
H54 C48 0.929 . S
H55 C52 0.930 . S
H56 C44 0.929 . S
H57 C46 0.929 . S
O58 Co33 2.351 . S
O58 C61 1.244 . S
O59 Co33 2.155 . S
O59 C61 1.240 . S
O60 Co33 2.096 . S
O60 C41 1.247 . S
C61 O58 1.244 . S
C61 O59 1.240 . S
H62 C36 0.931 . S
H63 C45 0.931 . S
H64 C49 0.929 . S
H65 C51 0.930 . S
Co66 N70 2.148 1_556 S
Co66 N76 2.128 . S
Co66 N86 2.194 . S
Co66 O91 2.351 . S
Co66 O92 2.155 . S
Co66 O93 2.096 . S
C67 N70 1.301 . S
C67 N71 1.328 . S
C67 H72 0.930 . S
C68 C69 1.333 . S
C68 N70 1.317 . S
C68 H73 0.930 . S
C69 C68 1.333 . S
C69 N71 1.350 . S
C69 H95 0.931 . S
N70 Co66 2.148 1_554 S
N70 C67 1.301 . S
N70 C68 1.317 . S
N71 C67 1.328 . S
N71 C69 1.350 . S
H72 C67 0.930 . S
H73 C68 0.930 . S
C74 O75 1.224 . S
C74 O93 1.247 1_554 S
O75 C74 1.224 . S
N76 Co66 2.128 . S
N76 C77 1.355 . S
N76 C79 1.311 . S
C77 N76 1.355 . S
C77 C78 1.363 . S
C77 H89 0.929 . S
C78 C77 1.363 . S
C78 N80 1.375 . S
C78 H96 0.931 . S
C79 N76 1.311 . S
C79 N80 1.347 . S
C79 H90 0.929 . S
N80 C78 1.375 . S
N80 C79 1.347 . S
C81 C84 1.365 . S
C81 N86 1.328 . S
C81 H87 0.929 . S
C82 C83 1.367 . S
C82 C85 1.379 . S
C82 H97 0.924 1_556 S
C83 C82 1.367 . S
C83 C84 1.366 . S
C84 C81 1.365 . S
C84 C83 1.366 . S
C84 H98 0.930 . S
C85 C82 1.379 . S
C85 N86 1.315 . S
C85 H88 0.930 1_556 S
N86 Co66 2.194 . S
N86 C81 1.328 . S
N86 C85 1.315 . S
H87 C81 0.929 . S
H88 C85 0.930 1_554 S
H89 C77 0.929 . S
H90 C79 0.929 . S
O91 Co66 2.351 . S
O91 C94 1.244 . S
O92 Co66 2.155 . S
O92 C94 1.240 . S
O93 Co66 2.096 . S
O93 C74 1.247 1_556 S
C94 O91 1.244 . S
C94 O92 1.240 . S
H95 C69 0.931 . S
H96 C78 0.931 . S
H97 C82 0.924 1_554 S
H98 C84 0.930 . S
Co99 N103 2.148 . S
Co99 N109 2.128 . S
Co99 N119 2.194 . S
Co99 O124 2.351 . S
Co99 O125 2.155 . S
Co99 O126 2.096 . S
C100 N103 1.301 . S
C100 N104 1.328 . S
C100 H105 0.930 . S
C101 C102 1.333 . S
C101 N103 1.317 . S
C101 H106 0.930 . S
C102 C101 1.333 . S
C102 N104 1.350 . S
C102 H128 0.931 . S
N103 Co99 2.148 . S
N103 C100 1.301 . S
N103 C101 1.317 . S
N104 C100 1.328 . S
N104 C102 1.350 . S
H105 C100 0.930 . S
H106 C101 0.930 . S
C107 O108 1.224 . S
C107 O126 1.247 . S
O108 C107 1.224 . S
N109 Co99 2.128 . S
N109 C110 1.355 . S
N109 C112 1.311 . S
C110 N109 1.355 . S
C110 C111 1.363 . S
C110 H122 0.929 . S
C111 C110 1.363 . S
C111 N113 1.375 . S
C111 H129 0.931 . S
C112 N109 1.311 . S
C112 N113 1.347 . S
C112 H123 0.929 . S
N113 C111 1.375 . S
N113 C112 1.347 . S
C114 C117 1.365 . S
C114 N119 1.328 . S
C114 H120 0.929 . S
C115 C116 1.362 . S
C115 C118 1.378 . S
C115 H130 0.929 . S
C116 C115 1.362 . S
C116 C117 1.366 . S
C117 C114 1.365 . S
C117 C116 1.366 . S
C117 H131 0.930 . S
C118 C115 1.378 . S
C118 N119 1.315 . S
C118 H121 0.930 . S
N119 Co99 2.194 . S
N119 C114 1.328 . S
N119 C118 1.315 . S
H120 C114 0.929 . S
H121 C118 0.930 . S
H122 C110 0.929 . S
H123 C112 0.929 . S
O124 Co99 2.351 . S
O124 C127 1.244 . S
O125 Co99 2.155 . S
O125 C127 1.240 . S
O126 Co99 2.096 . S
O126 C107 1.247 . S
C127 O124 1.244 . S
C127 O125 1.240 . S
H128 C102 0.931 . S
H129 C111 0.931 . S
H130 C115 0.929 . S
H131 C117 0.930 . S
Co132 N136 2.148 1_554 S
Co132 N142 2.128 . S
Co132 N152 2.194 . S
Co132 O157 2.351 . S
Co132 O158 2.155 . S
Co132 O159 2.096 . S
C133 N136 1.301 . S
C133 N137 1.328 . S
C133 H138 0.930 . S
C134 C135 1.333 . S
C134 N136 1.317 . S
C134 H139 0.930 . S
C135 C134 1.333 . S
C135 N137 1.350 . S
C135 H161 0.931 . S
N136 Co132 2.148 1_556 S
N136 C133 1.301 . S
N136 C134 1.317 . S
N137 C133 1.328 . S
N137 C135 1.350 . S
H138 C133 0.930 . S
H139 C134 0.930 . S
C140 O141 1.224 . S
C140 O159 1.247 1_556 S
O141 C140 1.224 . S
N142 Co132 2.128 . S
N142 C143 1.355 . S
N142 C145 1.311 . S
C143 N142 1.355 . S
C143 C144 1.363 . S
C143 H155 0.929 . S
C144 C143 1.363 . S
C144 N146 1.375 . S
C144 H162 0.931 . S
C145 N142 1.311 . S
C145 N146 1.347 . S
C145 H156 0.929 . S
N146 C144 1.375 . S
N146 C145 1.347 . S
C147 C150 1.365 . S
C147 N152 1.328 . S
C147 H153 0.929 . S
C148 C149 1.367 . S
C148 C151 1.379 . S
C148 H163 0.924 1_554 S
C149 C148 1.367 . S
C149 C150 1.366 . S
C150 C147 1.365 . S
C150 C149 1.366 . S
C150 H164 0.930 . S
C151 C148 1.379 . S
C151 N152 1.315 . S
C151 H154 0.930 1_554 S
N152 Co132 2.194 . S
N152 C147 1.328 . S
N152 C151 1.315 . S
H153 C147 0.929 . S
H154 C151 0.930 1_556 S
H155 C143 0.929 . S
H156 C145 0.929 . S
O157 Co132 2.351 . S
O157 C160 1.244 . S
O158 Co132 2.155 . S
O158 C160 1.240 . S
O159 Co132 2.096 . S
O159 C140 1.247 1_554 S
C160 O157 1.244 . S
C160 O158 1.240 . S
H161 C135 0.931 . S
H162 C144 0.931 . S
H163 C148 0.924 1_556 S
H164 C150 0.930 . S
Co165 N169 2.148 . S
Co165 N175 2.128 . S
Co165 N185 2.194 . S
Co165 O190 2.351 . S
Co165 O191 2.155 . S
Co165 O192 2.096 . S
C166 N169 1.301 . S
C166 N170 1.328 . S
C166 H171 0.930 . S
C167 C168 1.333 . S
C167 N169 1.317 . S
C167 H172 0.930 . S
C168 C167 1.333 . S
C168 N170 1.350 . S
C168 H194 0.931 . S
N169 Co165 2.148 . S
N169 C166 1.301 . S
N169 C167 1.317 . S
N170 C166 1.328 . S
N170 C168 1.350 . S
H171 C166 0.930 . S
H172 C167 0.930 . S
C173 O174 1.224 . S
C173 O192 1.247 . S
O174 C173 1.224 . S
N175 Co165 2.128 . S
N175 C176 1.355 . S
N175 C178 1.311 . S
C176 N175 1.355 . S
C176 C177 1.363 . S
C176 H188 0.929 . S
C177 C176 1.363 . S
C177 N179 1.375 . S
C177 H195 0.931 . S
C178 N175 1.311 . S
C178 N179 1.347 . S
C178 H189 0.929 . S
N179 C177 1.375 . S
N179 C178 1.347 . S
C180 C183 1.365 . S
C180 N185 1.328 . S
C180 H186 0.929 . S
C181 C182 1.362 . S
C181 C184 1.378 . S
C181 H196 0.929 . S
C182 C181 1.362 . S
C182 C183 1.366 . S
C183 C180 1.365 . S
C183 C182 1.366 . S
C183 H197 0.930 . S
C184 C181 1.378 . S
C184 N185 1.315 . S
C184 H187 0.930 . S
N185 Co165 2.194 . S
N185 C180 1.328 . S
N185 C184 1.315 . S
H186 C180 0.929 . S
H187 C184 0.930 . S
H188 C176 0.929 . S
H189 C178 0.929 . S
O190 Co165 2.351 . S
O190 C193 1.244 . S
O191 Co165 2.155 . S
O191 C193 1.240 . S
O192 Co165 2.096 . S
O192 C173 1.247 . S
C193 O190 1.244 . S
C193 O191 1.240 . S
H194 C168 0.931 . S
H195 C177 0.931 . S
H196 C181 0.929 . S
H197 C183 0.930 . S
Co198 N202 2.148 . S
Co198 N208 2.128 . S
Co198 N218 2.194 . S
Co198 O223 2.351 . S
Co198 O224 2.155 . S
Co198 O225 2.096 . S
C199 N202 1.301 . S
C199 N203 1.328 . S
C199 H204 0.930 . S
C200 C201 1.333 . S
C200 N202 1.317 . S
C200 H205 0.930 . S
C201 C200 1.333 . S
C201 N203 1.350 . S
C201 H227 0.931 . S
N202 Co198 2.148 . S
N202 C199 1.301 . S
N202 C200 1.317 . S
N203 C199 1.328 . S
N203 C201 1.350 . S
H204 C199 0.930 . S
H205 C200 0.930 . S
C206 O207 1.224 . S
C206 O225 1.247 . S
O207 C206 1.224 . S
N208 Co198 2.128 . S
N208 C209 1.355 . S
N208 C211 1.311 . S
C209 N208 1.355 . S
C209 C210 1.363 . S
C209 H221 0.929 . S
C210 C209 1.363 . S
C210 N212 1.375 . S
C210 H228 0.931 . S
C211 N208 1.311 . S
C211 N212 1.347 . S
C211 H222 0.929 . S
N212 C210 1.375 . S
N212 C211 1.347 . S
C213 C216 1.365 . S
C213 N218 1.328 . S
C213 H219 0.929 . S
C214 C215 1.362 . S
C214 C217 1.378 . S
C214 H229 0.929 . S
C215 C214 1.362 . S
C215 C216 1.366 . S
C216 C213 1.365 . S
C216 C215 1.366 . S
C216 H230 0.930 . S
C217 C214 1.378 . S
C217 N218 1.315 . S
C217 H220 0.930 . S
N218 Co198 2.194 . S
N218 C213 1.328 . S
N218 C217 1.315 . S
H219 C213 0.929 . S
H220 C217 0.930 . S
H221 C209 0.929 . S
H222 C211 0.929 . S
O223 Co198 2.351 . S
O223 C226 1.244 . S
O224 Co198 2.155 . S
O224 C226 1.240 . S
O225 Co198 2.096 . S
O225 C206 1.247 . S
C226 O223 1.244 . S
C226 O224 1.240 . S
H227 C201 0.931 . S
H228 C210 0.931 . S
H229 C214 0.929 . S
H230 C216 0.930 . S
Co231 N235 2.148 . S
Co231 N241 2.128 . S
Co231 N251 2.194 . S
Co231 O256 2.351 . S
Co231 O257 2.155 . S
Co231 O258 2.096 . S
C232 N235 1.301 . S
C232 N236 1.328 . S
C232 H237 0.930 . S
C233 C234 1.333 . S
C233 N235 1.317 . S
C233 H238 0.930 . S
C234 C233 1.333 . S
C234 N236 1.350 . S
C234 H260 0.931 . S
N235 Co231 2.148 . S
N235 C232 1.301 . S
N235 C233 1.317 . S
N236 C232 1.328 . S
N236 C234 1.350 . S
H237 C232 0.930 . S
H238 C233 0.930 . S
C239 O240 1.224 . S
C239 O258 1.247 . S
O240 C239 1.224 . S
N241 Co231 2.128 . S
N241 C242 1.355 . S
N241 C244 1.311 . S
C242 N241 1.355 . S
C242 C243 1.363 . S
C242 H254 0.929 . S
C243 C242 1.363 . S
C243 N245 1.375 . S
C243 H261 0.931 . S
C244 N241 1.311 . S
C244 N245 1.347 . S
C244 H255 0.929 . S
N245 C243 1.375 . S
N245 C244 1.347 . S
C246 C249 1.365 . S
C246 N251 1.328 . S
C246 H252 0.929 . S
C247 C248 1.362 . S
C247 C250 1.378 . S
C247 H262 0.929 . S
C248 C247 1.362 . S
C248 C249 1.366 . S
C249 C246 1.365 . S
C249 C248 1.366 . S
C249 H263 0.930 . S
C250 C247 1.378 . S
C250 N251 1.315 . S
C250 H253 0.930 . S
N251 Co231 2.194 . S
N251 C246 1.328 . S
N251 C250 1.315 . S
H252 C246 0.929 . S
H253 C250 0.930 . S
H254 C242 0.929 . S
H255 C244 0.929 . S
O256 Co231 2.351 . S
O256 C259 1.244 . S
O257 Co231 2.155 . S
O257 C259 1.240 . S
O258 Co231 2.096 . S
O258 C239 1.247 . S
C259 O256 1.244 . S
C259 O257 1.240 . S
H260 C234 0.931 . S
H261 C243 0.931 . S
H262 C247 0.929 . S
H263 C249 0.930 . S
Co264 N268 2.148 . S
Co264 N274 2.128 . S
Co264 N284 2.194 . S
Co264 O289 2.351 . S
Co264 O290 2.155 . S
Co264 O291 2.096 . S
C265 N268 1.301 . S
C265 N269 1.328 . S
C265 H270 0.930 . S
C266 C267 1.333 . S
C266 N268 1.317 . S
C266 H271 0.930 . S
C267 C266 1.333 . S
C267 N269 1.350 . S
C267 H293 0.931 . S
N268 Co264 2.148 . S
N268 C265 1.301 . S
N268 C266 1.317 . S
N269 C265 1.328 . S
N269 C267 1.350 . S
H270 C265 0.930 . S
H271 C266 0.930 . S
C272 O273 1.224 . S
C272 O291 1.247 . S
O273 C272 1.224 . S
N274 Co264 2.128 . S
N274 C275 1.355 . S
N274 C277 1.311 . S
C275 N274 1.355 . S
C275 C276 1.363 . S
C275 H287 0.929 . S
C276 C275 1.363 . S
C276 N278 1.375 . S
C276 H294 0.931 . S
C277 N274 1.311 . S
C277 N278 1.347 . S
C277 H288 0.929 . S
N278 C276 1.375 . S
N278 C277 1.347 . S
C279 C282 1.365 . S
C279 N284 1.328 . S
C279 H285 0.929 . S
C280 C281 1.362 . S
C280 C283 1.378 . S
C280 H295 0.929 . S
C281 C280 1.362 . S
C281 C282 1.366 . S
C282 C279 1.365 . S
C282 C281 1.366 . S
C282 H296 0.930 . S
C283 C280 1.378 . S
C283 N284 1.315 . S
C283 H286 0.930 . S
N284 Co264 2.194 . S
N284 C279 1.328 . S
N284 C283 1.315 . S
H285 C279 0.929 . S
H286 C283 0.930 . S
H287 C275 0.929 . S
H288 C277 0.929 . S
O289 Co264 2.351 . S
O289 C292 1.244 . S
O290 Co264 2.155 . S
O290 C292 1.240 . S
O291 Co264 2.096 . S
O291 C272 1.247 . S
C292 O289 1.244 . S
C292 O290 1.240 . S
H293 C267 0.931 . S
H294 C276 0.931 . S
H295 C280 0.929 . S
H296 C282 0.930 . S
Co297 N301 2.148 . S
Co297 N307 2.128 . S
Co297 N317 2.194 . S
Co297 O322 2.351 . S
Co297 O323 2.155 . S
Co297 O324 2.096 . S
C298 N301 1.301 . S
C298 N302 1.328 . S
C298 H303 0.930 . S
C299 C300 1.333 . S
C299 N301 1.317 . S
C299 H304 0.930 . S
C300 C299 1.333 . S
C300 N302 1.350 . S
C300 H326 0.931 . S
N301 Co297 2.148 . S
N301 C298 1.301 . S
N301 C299 1.317 . S
N302 C298 1.328 . S
N302 C300 1.350 . S
H303 C298 0.930 . S
H304 C299 0.930 . S
C305 O306 1.224 . S
C305 O324 1.247 . S
O306 C305 1.224 . S
N307 Co297 2.128 . S
N307 C308 1.355 . S
N307 C310 1.311 . S
C308 N307 1.355 . S
C308 C309 1.363 . S
C308 H320 0.929 . S
C309 C308 1.363 . S
C309 N311 1.375 . S
C309 H327 0.931 . S
C310 N307 1.311 . S
C310 N311 1.347 . S
C310 H321 0.929 . S
N311 C309 1.375 . S
N311 C310 1.347 . S
C312 C315 1.365 . S
C312 N317 1.328 . S
C312 H318 0.929 . S
C313 C314 1.362 . S
C313 C316 1.378 . S
C313 H328 0.929 . S
C314 C313 1.362 . S
C314 C315 1.366 . S
C315 C312 1.365 . S
C315 C314 1.366 . S
C315 H329 0.930 . S
C316 C313 1.378 . S
C316 N317 1.315 . S
C316 H319 0.930 . S
N317 Co297 2.194 . S
N317 C312 1.328 . S
N317 C316 1.315 . S
H318 C312 0.929 . S
H319 C316 0.930 . S
H320 C308 0.929 . S
H321 C310 0.929 . S
O322 Co297 2.351 . S
O322 C325 1.244 . S
O323 Co297 2.155 . S
O323 C325 1.240 . S
O324 Co297 2.096 . S
O324 C305 1.247 . S
C325 O322 1.244 . S
C325 O323 1.240 . S
H326 C300 0.931 . S
H327 C309 0.931 . S
H328 C313 0.929 . S
H329 C315 0.930 . S
Co330 N334 2.148 1_554 S
Co330 N340 2.128 . S
Co330 N350 2.194 . S
Co330 O355 2.351 . S
Co330 O356 2.155 . S
Co330 O357 2.096 . S
C331 N334 1.301 . S
C331 N335 1.328 . S
C331 H336 0.930 . S
C332 C333 1.333 . S
C332 N334 1.317 . S
C332 H337 0.930 . S
C333 C332 1.333 . S
C333 N335 1.350 . S
C333 H359 0.931 . S
N334 Co330 2.148 1_556 S
N334 C331 1.301 . S
N334 C332 1.317 . S
N335 C331 1.328 . S
N335 C333 1.350 . S
H336 C331 0.930 . S
H337 C332 0.930 . S
C338 O339 1.224 . S
C338 O357 1.247 1_556 S
O339 C338 1.224 . S
N340 Co330 2.128 . S
N340 C341 1.355 . S
N340 C343 1.311 . S
C341 N340 1.355 . S
C341 C342 1.363 . S
C341 H353 0.929 . S
C342 C341 1.363 . S
C342 N344 1.375 . S
C342 H360 0.931 . S
C343 N340 1.311 . S
C343 N344 1.347 . S
C343 H354 0.929 . S
N344 C342 1.375 . S
N344 C343 1.347 . S
C345 C348 1.365 . S
C345 N350 1.328 . S
C345 H351 0.929 . S
C346 C347 1.367 . S
C346 C349 1.379 . S
C346 H361 0.924 1_554 S
C347 C346 1.367 . S
C347 C348 1.366 . S
C348 C345 1.365 . S
C348 C347 1.366 . S
C348 H362 0.930 . S
C349 C346 1.379 . S
C349 N350 1.315 . S
C349 H352 0.930 1_554 S
N350 Co330 2.194 . S
N350 C345 1.328 . S
N350 C349 1.315 . S
H351 C345 0.929 . S
H352 C349 0.930 1_556 S
H353 C341 0.929 . S
H354 C343 0.929 . S
O355 Co330 2.351 . S
O355 C358 1.244 . S
O356 Co330 2.155 . S
O356 C358 1.240 . S
O357 Co330 2.096 . S
O357 C338 1.247 1_554 S
C358 O355 1.244 . S
C358 O356 1.240 . S
H359 C333 0.931 . S
H360 C342 0.931 . S
H361 C346 0.924 1_556 S
H362 C348 0.930 . S
Co363 N367 2.148 . S
Co363 N373 2.128 . S
Co363 N383 2.194 . S
Co363 O388 2.351 . S
Co363 O389 2.155 . S
Co363 O390 2.096 . S
C364 N367 1.301 . S
C364 N368 1.328 . S
C364 H369 0.930 . S
C365 C366 1.333 . S
C365 N367 1.317 . S
C365 H370 0.930 . S
C366 C365 1.333 . S
C366 N368 1.350 . S
C366 H392 0.931 . S
N367 Co363 2.148 . S
N367 C364 1.301 . S
N367 C365 1.317 . S
N368 C364 1.328 . S
N368 C366 1.350 . S
H369 C364 0.930 . S
H370 C365 0.930 . S
C371 O372 1.224 . S
C371 O390 1.247 . S
O372 C371 1.224 . S
N373 Co363 2.128 . S
N373 C374 1.355 . S
N373 C376 1.311 . S
C374 N373 1.355 . S
C374 C375 1.363 . S
C374 H386 0.929 . S
C375 C374 1.363 . S
C375 N377 1.375 . S
C375 H393 0.931 . S
C376 N373 1.311 . S
C376 N377 1.347 . S
C376 H387 0.929 . S
N377 C375 1.375 . S
N377 C376 1.347 . S
C378 C381 1.365 . S
C378 N383 1.328 . S
C378 H384 0.929 . S
C379 C380 1.362 . S
C379 C382 1.378 . S
C379 H394 0.929 . S
C380 C379 1.362 . S
C380 C381 1.366 . S
C381 C378 1.365 . S
C381 C380 1.366 . S
C381 H395 0.930 . S
C382 C379 1.378 . S
C382 N383 1.315 . S
C382 H385 0.930 . S
N383 Co363 2.194 . S
N383 C378 1.328 . S
N383 C382 1.315 . S
H384 C378 0.929 . S
H385 C382 0.930 . S
H386 C374 0.929 . S
H387 C376 0.929 . S
O388 Co363 2.351 . S
O388 C391 1.244 . S
O389 Co363 2.155 . S
O389 C391 1.240 . S
O390 Co363 2.096 . S
O390 C371 1.247 . S
C391 O388 1.244 . S
C391 O389 1.240 . S
H392 C366 0.931 . S
H393 C375 0.931 . S
H394 C379 0.929 . S
H395 C381 0.930 . S
Co396 N400 2.148 1_556 S
Co396 N406 2.128 . S
Co396 N416 2.194 . S
Co396 O421 2.351 . S
Co396 O422 2.155 . S
Co396 O423 2.096 . S
C397 N400 1.301 . S
C397 N401 1.328 . S
C397 H402 0.930 . S
C398 C399 1.333 . S
C398 N400 1.317 . S
C398 H403 0.930 . S
C399 C398 1.333 . S
C399 N401 1.350 . S
C399 H425 0.931 . S
N400 Co396 2.148 1_554 S
N400 C397 1.301 . S
N400 C398 1.317 . S
N401 C397 1.328 . S
N401 C399 1.350 . S
H402 C397 0.930 . S
H403 C398 0.930 . S
C404 O405 1.224 . S
C404 O423 1.247 1_554 S
O405 C404 1.224 . S
N406 Co396 2.128 . S
N406 C407 1.355 . S
N406 C409 1.311 . S
C407 N406 1.355 . S
C407 C408 1.363 . S
C407 H419 0.929 . S
C408 C407 1.363 . S
C408 N410 1.375 . S
C408 H426 0.931 . S
C409 N406 1.311 . S
C409 N410 1.347 . S
C409 H420 0.929 . S
N410 C408 1.375 . S
N410 C409 1.347 . S
C411 C414 1.365 . S
C411 N416 1.328 . S
C411 H417 0.929 . S
C412 C413 1.367 . S
C412 C415 1.379 . S
C412 H427 0.924 1_556 S
C413 C412 1.367 . S
C413 C414 1.366 . S
C414 C411 1.365 . S
C414 C413 1.366 . S
C414 H428 0.930 . S
C415 C412 1.379 . S
C415 N416 1.315 . S
C415 H418 0.930 1_556 S
N416 Co396 2.194 . S
N416 C411 1.328 . S
N416 C415 1.315 . S
H417 C411 0.929 . S
H418 C415 0.930 1_554 S
H419 C407 0.929 . S
H420 C409 0.929 . S
O421 Co396 2.351 . S
O421 C424 1.244 . S
O422 Co396 2.155 . S
O422 C424 1.240 . S
O423 Co396 2.096 . S
O423 C404 1.247 1_556 S
C424 O421 1.244 . S
C424 O422 1.240 . S
H425 C399 0.931 . S
H426 C408 0.931 . S
H427 C412 0.924 1_554 S
H428 C414 0.930 . S
Co429 N433 2.148 . S
Co429 N439 2.128 . S
Co429 N449 2.194 . S
Co429 O454 2.351 . S
Co429 O455 2.155 . S
Co429 O456 2.096 . S
C430 N433 1.301 . S
C430 N434 1.328 . S
C430 H435 0.930 . S
C431 C432 1.333 . S
C431 N433 1.317 . S
C431 H436 0.930 . S
C432 C431 1.333 . S
C432 N434 1.350 . S
C432 H458 0.931 . S
N433 Co429 2.148 . S
N433 C430 1.301 . S
N433 C431 1.317 . S
N434 C430 1.328 . S
N434 C432 1.350 . S
H435 C430 0.930 . S
H436 C431 0.930 . S
C437 O438 1.224 . S
C437 O456 1.247 . S
O438 C437 1.224 . S
N439 Co429 2.128 . S
N439 C440 1.355 . S
N439 C442 1.311 . S
C440 N439 1.355 . S
C440 C441 1.363 . S
C440 H452 0.929 . S
C441 C440 1.363 . S
C441 N443 1.375 . S
C441 H459 0.931 . S
C442 N439 1.311 . S
C442 N443 1.347 . S
C442 H453 0.929 . S
N443 C441 1.375 . S
N443 C442 1.347 . S
C444 C447 1.365 . S
C444 N449 1.328 . S
C444 H450 0.929 . S
C445 C446 1.362 . S
C445 C448 1.378 . S
C445 H460 0.929 . S
C446 C445 1.362 . S
C446 C447 1.366 . S
C447 C444 1.365 . S
C447 C446 1.366 . S
C447 H461 0.930 . S
C448 C445 1.378 . S
C448 N449 1.315 . S
C448 H451 0.930 . S
N449 Co429 2.194 . S
N449 C444 1.328 . S
N449 C448 1.315 . S
H450 C444 0.929 . S
H451 C448 0.930 . S
H452 C440 0.929 . S
H453 C442 0.929 . S
O454 Co429 2.351 . S
O454 C457 1.244 . S
O455 Co429 2.155 . S
O455 C457 1.240 . S
O456 Co429 2.096 . S
O456 C437 1.247 . S
C457 O454 1.244 . S
C457 O455 1.240 . S
H458 C432 0.931 . S
H459 C441 0.931 . S
H460 C445 0.929 . S
H461 C447 0.930 . S
Co462 N466 2.148 . S
Co462 N472 2.128 . S
Co462 N482 2.194 . S
Co462 O487 2.351 . S
Co462 O488 2.155 . S
Co462 O489 2.096 . S
C463 N466 1.301 . S
C463 N467 1.328 . S
C463 H468 0.930 . S
C464 C465 1.333 . S
C464 N466 1.317 . S
C464 H469 0.930 . S
C465 C464 1.333 . S
C465 N467 1.350 . S
C465 H491 0.931 . S
N466 Co462 2.148 . S
N466 C463 1.301 . S
N466 C464 1.317 . S
N467 C463 1.328 . S
N467 C465 1.350 . S
H468 C463 0.930 . S
H469 C464 0.930 . S
C470 O471 1.224 . S
C470 O489 1.247 . S
O471 C470 1.224 . S
N472 Co462 2.128 . S
N472 C473 1.355 . S
N472 C475 1.311 . S
C473 N472 1.355 . S
C473 C474 1.363 . S
C473 H485 0.929 . S
C474 C473 1.363 . S
C474 N476 1.375 . S
C474 H492 0.931 . S
C475 N472 1.311 . S
C475 N476 1.347 . S
C475 H486 0.929 . S
N476 C474 1.375 . S
N476 C475 1.347 . S
C477 C480 1.365 . S
C477 N482 1.328 . S
C477 H483 0.929 . S
C478 C479 1.362 . S
C478 C481 1.378 . S
C478 H493 0.929 . S
C479 C478 1.362 . S
C479 C480 1.366 . S
C480 C477 1.365 . S
C480 C479 1.366 . S
C480 H494 0.930 . S
C481 C478 1.378 . S
C481 N482 1.315 . S
C481 H484 0.930 . S
N482 Co462 2.194 . S
N482 C477 1.328 . S
N482 C481 1.315 . S
H483 C477 0.929 . S
H484 C481 0.930 . S
H485 C473 0.929 . S
H486 C475 0.929 . S
O487 Co462 2.351 . S
O487 C490 1.244 . S
O488 Co462 2.155 . S
O488 C490 1.240 . S
O489 Co462 2.096 . S
O489 C470 1.247 . S
C490 O487 1.244 . S
C490 O488 1.240 . S
H491 C465 0.931 . S
H492 C474 0.931 . S
H493 C478 0.929 . S
H494 C480 0.930 . S
Co495 N499 2.148 . S
Co495 N505 2.128 . S
Co495 N515 2.194 . S
Co495 O520 2.351 . S
Co495 O521 2.155 . S
Co495 O522 2.096 . S
C496 N499 1.301 . S
C496 N500 1.328 . S
C496 H501 0.930 . S
C497 C498 1.333 . S
C497 N499 1.317 . S
C497 H502 0.930 . S
C498 C497 1.333 . S
C498 N500 1.350 . S
C498 H524 0.931 . S
N499 Co495 2.148 . S
N499 C496 1.301 . S
N499 C497 1.317 . S
N500 C496 1.328 . S
N500 C498 1.350 . S
H501 C496 0.930 . S
H502 C497 0.930 . S
C503 O504 1.224 . S
C503 O522 1.247 . S
O504 C503 1.224 . S
N505 Co495 2.128 . S
N505 C506 1.355 . S
N505 C508 1.311 . S
C506 N505 1.355 . S
C506 C507 1.363 . S
C506 H518 0.929 . S
C507 C506 1.363 . S
C507 N509 1.375 . S
C507 H525 0.931 . S
C508 N505 1.311 . S
C508 N509 1.347 . S
C508 H519 0.929 . S
N509 C507 1.375 . S
N509 C508 1.347 . S
C510 C513 1.365 . S
C510 N515 1.328 . S
C510 H516 0.929 . S
C511 C512 1.362 . S
C511 C514 1.378 . S
C511 H526 0.929 . S
C512 C511 1.362 . S
C512 C513 1.366 . S
C513 C510 1.365 . S
C513 C512 1.366 . S
C513 H527 0.930 . S
C514 C511 1.378 . S
C514 N515 1.315 . S
C514 H517 0.930 . S
N515 Co495 2.194 . S
N515 C510 1.328 . S
N515 C514 1.315 . S
H516 C510 0.929 . S
H517 C514 0.930 . S
H518 C506 0.929 . S
H519 C508 0.929 . S
O520 Co495 2.351 . S
O520 C523 1.244 . S
O521 Co495 2.155 . S
O521 C523 1.240 . S
O522 Co495 2.096 . S
O522 C503 1.247 . S
C523 O520 1.244 . S
C523 O521 1.240 . S
H524 C498 0.931 . S
H525 C507 0.931 . S
H526 C511 0.929 . S
H527 C513 0.930 . S
Co528 N532 2.148 1_556 S
Co528 N538 2.128 . S
Co528 N548 2.194 . S
Co528 O553 2.351 . S
Co528 O554 2.155 . S
Co528 O555 2.096 . S
C529 N532 1.301 . S
C529 N533 1.328 . S
C529 H534 0.930 . S
C530 C531 1.333 . S
C530 N532 1.317 . S
C530 H535 0.930 . S
C531 C530 1.333 . S
C531 N533 1.350 . S
C531 H557 0.931 . S
N532 Co528 2.148 1_554 S
N532 C529 1.301 . S
N532 C530 1.317 . S
N533 C529 1.328 . S
N533 C531 1.350 . S
H534 C529 0.930 . S
H535 C530 0.930 . S
C536 O537 1.224 . S
C536 O555 1.247 1_554 S
O537 C536 1.224 . S
N538 Co528 2.128 . S
N538 C539 1.355 . S
N538 C541 1.311 . S
C539 N538 1.355 . S
C539 C540 1.363 . S
C539 H551 0.929 . S
C540 C539 1.363 . S
C540 N542 1.375 . S
C540 H558 0.931 . S
C541 N538 1.311 . S
C541 N542 1.347 . S
C541 H552 0.929 . S
N542 C540 1.375 . S
N542 C541 1.347 . S
C543 C546 1.365 . S
C543 N548 1.328 . S
C543 H549 0.929 . S
C544 C545 1.367 . S
C544 C547 1.379 . S
C544 H559 0.924 1_556 S
C545 C544 1.367 . S
C545 C546 1.366 . S
C546 C543 1.365 . S
C546 C545 1.366 . S
C546 H560 0.930 . S
C547 C544 1.379 . S
C547 N548 1.315 . S
C547 H550 0.930 1_556 S
N548 Co528 2.194 . S
N548 C543 1.328 . S
N548 C547 1.315 . S
H549 C543 0.929 . S
H550 C547 0.930 1_554 S
H551 C539 0.929 . S
H552 C541 0.929 . S
O553 Co528 2.351 . S
O553 C556 1.244 . S
O554 Co528 2.155 . S
O554 C556 1.240 . S
O555 Co528 2.096 . S
O555 C536 1.247 1_556 S
C556 O553 1.244 . S
C556 O554 1.240 . S
H557 C531 0.931 . S
H558 C540 0.931 . S
H559 C544 0.924 1_554 S
H560 C546 0.930 . S
Co561 N565 2.148 . S
Co561 N571 2.128 . S
Co561 N581 2.194 . S
Co561 O586 2.351 . S
Co561 O587 2.155 . S
Co561 O588 2.096 . S
C562 N565 1.301 . S
C562 N566 1.328 . S
C562 H567 0.930 . S
C563 C564 1.333 . S
C563 N565 1.317 . S
C563 H568 0.930 . S
C564 C563 1.333 . S
C564 N566 1.350 . S
C564 H590 0.931 . S
N565 Co561 2.148 . S
N565 C562 1.301 . S
N565 C563 1.317 . S
N566 C562 1.328 . S
N566 C564 1.350 . S
H567 C562 0.930 . S
H568 C563 0.930 . S
C569 O570 1.224 . S
C569 O588 1.247 . S
O570 C569 1.224 . S
N571 Co561 2.128 . S
N571 C572 1.355 . S
N571 C574 1.311 . S
C572 N571 1.355 . S
C572 C573 1.363 . S
C572 H584 0.929 . S
C573 C572 1.363 . S
C573 N575 1.375 . S
C573 H591 0.931 . S
C574 N571 1.311 . S
C574 N575 1.347 . S
C574 H585 0.929 . S
N575 C573 1.375 . S
N575 C574 1.347 . S
C576 C579 1.365 . S
C576 N581 1.328 . S
C576 H582 0.929 . S
C577 C578 1.362 . S
C577 C580 1.378 . S
C577 H592 0.929 . S
C578 C577 1.362 . S
C578 C579 1.366 . S
C579 C576 1.365 . S
C579 C578 1.366 . S
C579 H593 0.930 . S
C580 C577 1.378 . S
C580 N581 1.315 . S
C580 H583 0.930 . S
N581 Co561 2.194 . S
N581 C576 1.328 . S
N581 C580 1.315 . S
H582 C576 0.929 . S
H583 C580 0.930 . S
H584 C572 0.929 . S
H585 C574 0.929 . S
O586 Co561 2.351 . S
O586 C589 1.244 . S
O587 Co561 2.155 . S
O587 C589 1.240 . S
O588 Co561 2.096 . S
O588 C569 1.247 . S
C589 O586 1.244 . S
C589 O587 1.240 . S
H590 C564 0.931 . S
H591 C573 0.931 . S
H592 C577 0.929 . S
H593 C579 0.930 . S
Co594 N598 2.148 . S
Co594 N604 2.128 . S
Co594 N614 2.194 . S
Co594 O619 2.351 . S
Co594 O620 2.155 . S
Co594 O621 2.096 . S
C595 N598 1.301 . S
C595 N599 1.328 . S
C595 H600 0.930 . S
C596 C597 1.333 . S
C596 N598 1.317 . S
C596 H601 0.930 . S
C597 C596 1.333 . S
C597 N599 1.350 . S
C597 H623 0.931 . S
N598 Co594 2.148 . S
N598 C595 1.301 . S
N598 C596 1.317 . S
N599 C595 1.328 . S
N599 C597 1.350 . S
H600 C595 0.930 . S
H601 C596 0.930 . S
C602 O603 1.224 . S
C602 O621 1.247 . S
O603 C602 1.224 . S
N604 Co594 2.128 . S
N604 C605 1.355 . S
N604 C607 1.311 . S
C605 N604 1.355 . S
C605 C606 1.363 . S
C605 H617 0.929 . S
C606 C605 1.363 . S
C606 N608 1.375 . S
C606 H624 0.931 . S
C607 N604 1.311 . S
C607 N608 1.347 . S
C607 H618 0.929 . S
N608 C606 1.375 . S
N608 C607 1.347 . S
C609 C612 1.365 . S
C609 N614 1.328 . S
C609 H615 0.929 . S
C610 C611 1.362 . S
C610 C613 1.378 . S
C610 H625 0.929 . S
C611 C610 1.362 . S
C611 C612 1.366 . S
C612 C609 1.365 . S
C612 C611 1.366 . S
C612 H626 0.930 . S
C613 C610 1.378 . S
C613 N614 1.315 . S
C613 H616 0.930 . S
N614 Co594 2.194 . S
N614 C609 1.328 . S
N614 C613 1.315 . S
H615 C609 0.929 . S
H616 C613 0.930 . S
H617 C605 0.929 . S
H618 C607 0.929 . S
O619 Co594 2.351 . S
O619 C622 1.244 . S
O620 Co594 2.155 . S
O620 C622 1.240 . S
O621 Co594 2.096 . S
O621 C602 1.247 . S
C622 O619 1.244 . S
C622 O620 1.240 . S
H623 C597 0.931 . S
H624 C606 0.931 . S
H625 C610 0.929 . S
H626 C612 0.930 . S
Co627 N631 2.148 . S
Co627 N637 2.128 . S
Co627 N647 2.194 . S
Co627 O652 2.351 . S
Co627 O653 2.155 . S
Co627 O654 2.096 . S
C628 N631 1.301 . S
C628 N632 1.328 . S
C628 H633 0.930 . S
C629 C630 1.333 . S
C629 N631 1.317 . S
C629 H634 0.930 . S
C630 C629 1.333 . S
C630 N632 1.350 . S
C630 H656 0.931 . S
N631 Co627 2.148 . S
N631 C628 1.301 . S
N631 C629 1.317 . S
N632 C628 1.328 . S
N632 C630 1.350 . S
H633 C628 0.930 . S
H634 C629 0.930 . S
C635 O636 1.224 . S
C635 O654 1.247 . S
O636 C635 1.224 . S
N637 Co627 2.128 . S
N637 C638 1.355 . S
N637 C640 1.311 . S
C638 N637 1.355 . S
C638 C639 1.363 . S
C638 H650 0.929 . S
C639 C638 1.363 . S
C639 N641 1.375 . S
C639 H657 0.931 . S
C640 N637 1.311 . S
C640 N641 1.347 . S
C640 H651 0.929 . S
N641 C639 1.375 . S
N641 C640 1.347 . S
C642 C645 1.365 . S
C642 N647 1.328 . S
C642 H648 0.929 . S
C643 C644 1.362 . S
C643 C646 1.378 . S
C643 H658 0.929 . S
C644 C643 1.362 . S
C644 C645 1.366 . S
C645 C642 1.365 . S
C645 C644 1.366 . S
C645 H659 0.930 . S
C646 C643 1.378 . S
C646 N647 1.315 . S
C646 H649 0.930 . S
N647 Co627 2.194 . S
N647 C642 1.328 . S
N647 C646 1.315 . S
H648 C642 0.929 . S
H649 C646 0.930 . S
H650 C638 0.929 . S
H651 C640 0.929 . S
O652 Co627 2.351 . S
O652 C655 1.244 . S
O653 Co627 2.155 . S
O653 C655 1.240 . S
O654 Co627 2.096 . S
O654 C635 1.247 . S
C655 O652 1.244 . S
C655 O653 1.240 . S
H656 C630 0.931 . S
H657 C639 0.931 . S
H658 C643 0.929 . S
H659 C645 0.930 . S
Co660 N664 2.148 . S
Co660 N670 2.128 . S
Co660 N680 2.194 . S
Co660 O685 2.351 . S
Co660 O686 2.155 . S
Co660 O687 2.096 . S
C661 N664 1.301 . S
C661 N665 1.328 . S
C661 H666 0.930 . S
C662 C663 1.333 . S
C662 N664 1.317 . S
C662 H667 0.930 . S
C663 C662 1.333 . S
C663 N665 1.350 . S
C663 H689 0.931 . S
N664 Co660 2.148 . S
N664 C661 1.301 . S
N664 C662 1.317 . S
N665 C661 1.328 . S
N665 C663 1.350 . S
H666 C661 0.930 . S
H667 C662 0.930 . S
C668 O669 1.224 . S
C668 O687 1.247 . S
O669 C668 1.224 . S
N670 Co660 2.128 . S
N670 C671 1.355 . S
N670 C673 1.311 . S
C671 N670 1.355 . S
C671 C672 1.363 . S
C671 H683 0.929 . S
C672 C671 1.363 . S
C672 N674 1.375 . S
C672 H690 0.931 . S
C673 N670 1.311 . S
C673 N674 1.347 . S
C673 H684 0.929 . S
N674 C672 1.375 . S
N674 C673 1.347 . S
C675 C678 1.365 . S
C675 N680 1.328 . S
C675 H681 0.929 . S
C676 C677 1.362 . S
C676 C679 1.378 . S
C676 H691 0.929 . S
C677 C676 1.362 . S
C677 C678 1.366 . S
C678 C675 1.365 . S
C678 C677 1.366 . S
C678 H692 0.930 . S
C679 C676 1.378 . S
C679 N680 1.315 . S
C679 H682 0.930 . S
N680 Co660 2.194 . S
N680 C675 1.328 . S
N680 C679 1.315 . S
H681 C675 0.929 . S
H682 C679 0.930 . S
H683 C671 0.929 . S
H684 C673 0.929 . S
O685 Co660 2.351 . S
O685 C688 1.244 . S
O686 Co660 2.155 . S
O686 C688 1.240 . S
O687 Co660 2.096 . S
O687 C668 1.247 . S
C688 O685 1.244 . S
C688 O686 1.240 . S
H689 C663 0.931 . S
H690 C672 0.931 . S
H691 C676 0.929 . S
H692 C678 0.930 . S
Co693 N697 2.148 . S
Co693 N703 2.128 . S
Co693 N713 2.194 . S
Co693 O718 2.351 . S
Co693 O719 2.155 . S
Co693 O720 2.096 . S
C694 N697 1.301 . S
C694 N698 1.328 . S
C694 H699 0.930 . S
C695 C696 1.333 . S
C695 N697 1.317 . S
C695 H700 0.930 . S
C696 C695 1.333 . S
C696 N698 1.350 . S
C696 H722 0.931 . S
N697 Co693 2.148 . S
N697 C694 1.301 . S
N697 C695 1.317 . S
N698 C694 1.328 . S
N698 C696 1.350 . S
H699 C694 0.930 . S
H700 C695 0.930 . S
C701 O702 1.224 . S
C701 O720 1.247 . S
O702 C701 1.224 . S
N703 Co693 2.128 . S
N703 C704 1.355 . S
N703 C706 1.311 . S
C704 N703 1.355 . S
C704 C705 1.363 . S
C704 H716 0.929 . S
C705 C704 1.363 . S
C705 N707 1.375 . S
C705 H723 0.931 . S
C706 N703 1.311 . S
C706 N707 1.347 . S
C706 H717 0.929 . S
N707 C705 1.375 . S
N707 C706 1.347 . S
C708 C711 1.365 . S
C708 N713 1.328 . S
C708 H714 0.929 . S
C709 C710 1.362 . S
C709 C712 1.378 . S
C709 H724 0.929 . S
C710 C709 1.362 . S
C710 C711 1.366 . S
C711 C708 1.365 . S
C711 C710 1.366 . S
C711 H725 0.930 . S
C712 C709 1.378 . S
C712 N713 1.315 . S
C712 H715 0.930 . S
N713 Co693 2.194 . S
N713 C708 1.328 . S
N713 C712 1.315 . S
H714 C708 0.929 . S
H715 C712 0.930 . S
H716 C704 0.929 . S
H717 C706 0.929 . S
O718 Co693 2.351 . S
O718 C721 1.244 . S
O719 Co693 2.155 . S
O719 C721 1.240 . S
O720 Co693 2.096 . S
O720 C701 1.247 . S
C721 O718 1.244 . S
C721 O719 1.240 . S
H722 C696 0.931 . S
H723 C705 0.931 . S
H724 C709 0.929 . S
H725 C711 0.930 . S
Co726 N730 2.148 1_554 S
Co726 N736 2.128 . S
Co726 N746 2.194 . S
Co726 O751 2.351 . S
Co726 O752 2.155 . S
Co726 O753 2.096 . S
C727 N730 1.301 . S
C727 N731 1.328 . S
C727 H732 0.930 . S
C728 C729 1.333 . S
C728 N730 1.317 . S
C728 H733 0.930 . S
C729 C728 1.333 . S
C729 N731 1.350 . S
C729 H755 0.931 . S
N730 Co726 2.148 1_556 S
N730 C727 1.301 . S
N730 C728 1.317 . S
N731 C727 1.328 . S
N731 C729 1.350 . S
H732 C727 0.930 . S
H733 C728 0.930 . S
C734 O735 1.224 . S
C734 O753 1.247 1_556 S
O735 C734 1.224 . S
N736 Co726 2.128 . S
N736 C737 1.355 . S
N736 C739 1.311 . S
C737 N736 1.355 . S
C737 C738 1.363 . S
C737 H749 0.929 . S
C738 C737 1.363 . S
C738 N740 1.375 . S
C738 H756 0.931 . S
C739 N736 1.311 . S
C739 N740 1.347 . S
C739 H750 0.929 . S
N740 C738 1.375 . S
N740 C739 1.347 . S
C741 C744 1.365 . S
C741 N746 1.328 . S
C741 H747 0.929 . S
C742 C743 1.367 . S
C742 C745 1.379 . S
C742 H757 0.924 1_554 S
C743 C742 1.367 . S
C743 C744 1.366 . S
C744 C741 1.365 . S
C744 C743 1.366 . S
C744 H758 0.930 . S
C745 C742 1.379 . S
C745 N746 1.315 . S
C745 H748 0.930 1_554 S
N746 Co726 2.194 . S
N746 C741 1.328 . S
N746 C745 1.315 . S
H747 C741 0.929 . S
H748 C745 0.930 1_556 S
H749 C737 0.929 . S
H750 C739 0.929 . S
O751 Co726 2.351 . S
O751 C754 1.244 . S
O752 Co726 2.155 . S
O752 C754 1.240 . S
O753 Co726 2.096 . S
O753 C734 1.247 1_554 S
C754 O751 1.244 . S
C754 O752 1.240 . S
H755 C729 0.931 . S
H756 C738 0.931 . S
H757 C742 0.924 1_556 S
H758 C744 0.930 . S
Co759 N763 2.148 . S
Co759 N769 2.128 . S
Co759 N779 2.194 . S
Co759 O784 2.351 . S
Co759 O785 2.155 . S
Co759 O786 2.096 . S
C760 N763 1.301 . S
C760 N764 1.328 . S
C760 H765 0.930 . S
C761 C762 1.333 . S
C761 N763 1.317 . S
C761 H766 0.930 . S
C762 C761 1.333 . S
C762 N764 1.350 . S
C762 H788 0.931 . S
N763 Co759 2.148 . S
N763 C760 1.301 . S
N763 C761 1.317 . S
N764 C760 1.328 . S
N764 C762 1.350 . S
H765 C760 0.930 . S
H766 C761 0.930 . S
C767 O768 1.224 . S
C767 O786 1.247 . S
O768 C767 1.224 . S
N769 Co759 2.128 . S
N769 C770 1.355 . S
N769 C772 1.311 . S
C770 N769 1.355 . S
C770 C771 1.363 . S
C770 H782 0.929 . S
C771 C770 1.363 . S
C771 N773 1.375 . S
C771 H789 0.931 . S
C772 N769 1.311 . S
C772 N773 1.347 . S
C772 H783 0.929 . S
N773 C771 1.375 . S
N773 C772 1.347 . S
C774 C777 1.365 . S
C774 N779 1.328 . S
C774 H780 0.929 . S
C775 C776 1.362 . S
C775 C778 1.378 . S
C775 H790 0.929 . S
C776 C775 1.362 . S
C776 C777 1.366 . S
C777 C774 1.365 . S
C777 C776 1.366 . S
C777 H791 0.930 . S
C778 C775 1.378 . S
C778 N779 1.315 . S
C778 H781 0.930 . S
N779 Co759 2.194 . S
N779 C774 1.328 . S
N779 C778 1.315 . S
H780 C774 0.929 . S
H781 C778 0.930 . S
H782 C770 0.929 . S
H783 C772 0.929 . S
O784 Co759 2.351 . S
O784 C787 1.244 . S
O785 Co759 2.155 . S
O785 C787 1.240 . S
O786 Co759 2.096 . S
O786 C767 1.247 . S
C787 O784 1.244 . S
C787 O785 1.240 . S
H788 C762 0.931 . S
H789 C771 0.931 . S
H790 C775 0.929 . S
H791 C777 0.930 . S
Co792 N796 2.148 1_554 S
Co792 N802 2.128 . S
Co792 N812 2.194 . S
Co792 O817 2.351 . S
Co792 O818 2.155 . S
Co792 O819 2.096 . S
C793 N796 1.301 . S
C793 N797 1.328 . S
C793 H798 0.930 . S
C794 C795 1.333 . S
C794 N796 1.317 . S
C794 H799 0.930 . S
C795 C794 1.333 . S
C795 N797 1.350 . S
C795 H821 0.931 . S
N796 Co792 2.148 1_556 S
N796 C793 1.301 . S
N796 C794 1.317 . S
N797 C793 1.328 . S
N797 C795 1.350 . S
H798 C793 0.930 . S
H799 C794 0.930 . S
C800 O801 1.224 . S
C800 O819 1.247 1_556 S
O801 C800 1.224 . S
N802 Co792 2.128 . S
N802 C803 1.355 . S
N802 C805 1.311 . S
C803 N802 1.355 . S
C803 C804 1.363 . S
C803 H815 0.929 . S
C804 C803 1.363 . S
C804 N806 1.375 . S
C804 H822 0.931 . S
C805 N802 1.311 . S
C805 N806 1.347 . S
C805 H816 0.929 . S
N806 C804 1.375 . S
N806 C805 1.347 . S
C807 C810 1.365 . S
C807 N812 1.328 . S
C807 H813 0.929 . S
C808 C809 1.367 . S
C808 C811 1.379 . S
C808 H823 0.924 1_554 S
C809 C808 1.367 . S
C809 C810 1.366 . S
C810 C807 1.365 . S
C810 C809 1.366 . S
C810 H824 0.930 . S
C811 C808 1.379 . S
C811 N812 1.315 . S
C811 H814 0.930 1_554 S
N812 Co792 2.194 . S
N812 C807 1.328 . S
N812 C811 1.315 . S
H813 C807 0.929 . S
H814 C811 0.930 1_556 S
H815 C803 0.929 . S
H816 C805 0.929 . S
O817 Co792 2.351 . S
O817 C820 1.244 . S
O818 Co792 2.155 . S
O818 C820 1.240 . S
O819 Co792 2.096 . S
O819 C800 1.247 1_554 S
C820 O817 1.244 . S
C820 O818 1.240 . S
H821 C795 0.931 . S
H822 C804 0.931 . S
H823 C808 0.924 1_556 S
H824 C810 0.930 . S
Co825 N829 2.148 . S
Co825 N835 2.128 . S
Co825 N845 2.194 . S
Co825 O850 2.351 . S
Co825 O851 2.155 . S
Co825 O852 2.096 . S
C826 N829 1.301 . S
C826 N830 1.328 . S
C826 H831 0.930 . S
C827 C828 1.333 . S
C827 N829 1.317 . S
C827 H832 0.930 . S
C828 C827 1.333 . S
C828 N830 1.350 . S
C828 H854 0.931 . S
N829 Co825 2.148 . S
N829 C826 1.301 . S
N829 C827 1.317 . S
N830 C826 1.328 . S
N830 C828 1.350 . S
H831 C826 0.930 . S
H832 C827 0.930 . S
C833 O834 1.224 . S
C833 O852 1.247 . S
O834 C833 1.224 . S
N835 Co825 2.128 . S
N835 C836 1.355 . S
N835 C838 1.311 . S
C836 N835 1.355 . S
C836 C837 1.363 . S
C836 H848 0.929 . S
C837 C836 1.363 . S
C837 N839 1.375 . S
C837 H855 0.931 . S
C838 N835 1.311 . S
C838 N839 1.347 . S
C838 H849 0.929 . S
N839 C837 1.375 . S
N839 C838 1.347 . S
C840 C843 1.365 . S
C840 N845 1.328 . S
C840 H846 0.929 . S
C841 C842 1.362 . S
C841 C844 1.378 . S
C841 H856 0.929 . S
C842 C841 1.362 . S
C842 C843 1.366 . S
C843 C840 1.365 . S
C843 C842 1.366 . S
C843 H857 0.930 . S
C844 C841 1.378 . S
C844 N845 1.315 . S
C844 H847 0.930 . S
N845 Co825 2.194 . S
N845 C840 1.328 . S
N845 C844 1.315 . S
H846 C840 0.929 . S
H847 C844 0.930 . S
H848 C836 0.929 . S
H849 C838 0.929 . S
O850 Co825 2.351 . S
O850 C853 1.244 . S
O851 Co825 2.155 . S
O851 C853 1.240 . S
O852 Co825 2.096 . S
O852 C833 1.247 . S
C853 O850 1.244 . S
C853 O851 1.240 . S
H854 C828 0.931 . S
H855 C837 0.931 . S
H856 C841 0.929 . S
H857 C843 0.930 . S
Co858 N862 2.148 . S
Co858 N868 2.128 . S
Co858 N878 2.194 . S
Co858 O883 2.351 . S
Co858 O884 2.155 . S
Co858 O885 2.096 . S
C859 N862 1.301 . S
C859 N863 1.328 . S
C859 H864 0.930 . S
C860 C861 1.333 . S
C860 N862 1.317 . S
C860 H865 0.930 . S
C861 C860 1.333 . S
C861 N863 1.350 . S
C861 H887 0.931 . S
N862 Co858 2.148 . S
N862 C859 1.301 . S
N862 C860 1.317 . S
N863 C859 1.328 . S
N863 C861 1.350 . S
H864 C859 0.930 . S
H865 C860 0.930 . S
C866 O867 1.224 . S
C866 O885 1.247 . S
O867 C866 1.224 . S
N868 Co858 2.128 . S
N868 C869 1.355 . S
N868 C871 1.311 . S
C869 N868 1.355 . S
C869 C870 1.363 . S
C869 H881 0.929 . S
C870 C869 1.363 . S
C870 N872 1.375 . S
C870 H888 0.931 . S
C871 N868 1.311 . S
C871 N872 1.347 . S
C871 H882 0.929 . S
N872 C870 1.375 . S
N872 C871 1.347 . S
C873 C876 1.365 . S
C873 N878 1.328 . S
C873 H879 0.929 . S
C874 C875 1.362 . S
C874 C877 1.378 . S
C874 H889 0.929 . S
C875 C874 1.362 . S
C875 C876 1.366 . S
C876 C873 1.365 . S
C876 C875 1.366 . S
C876 H890 0.930 . S
C877 C874 1.378 . S
C877 N878 1.315 . S
C877 H880 0.930 . S
N878 Co858 2.194 . S
N878 C873 1.328 . S
N878 C877 1.315 . S
H879 C873 0.929 . S
H880 C877 0.930 . S
H881 C869 0.929 . S
H882 C871 0.929 . S
O883 Co858 2.351 . S
O883 C886 1.244 . S
O884 Co858 2.155 . S
O884 C886 1.240 . S
O885 Co858 2.096 . S
O885 C866 1.247 . S
C886 O883 1.244 . S
C886 O884 1.240 . S
H887 C861 0.931 . S
H888 C870 0.931 . S
H889 C874 0.929 . S
H890 C876 0.930 . S
Co891 N895 2.148 . S
Co891 N901 2.128 . S
Co891 N911 2.194 . S
Co891 O916 2.351 . S
Co891 O917 2.155 . S
Co891 O918 2.096 . S
C892 N895 1.301 . S
C892 N896 1.328 . S
C892 H897 0.930 . S
C893 C894 1.333 . S
C893 N895 1.317 . S
C893 H898 0.930 . S
C894 C893 1.333 . S
C894 N896 1.350 . S
C894 H920 0.931 . S
N895 Co891 2.148 . S
N895 C892 1.301 . S
N895 C893 1.317 . S
N896 C892 1.328 . S
N896 C894 1.350 . S
H897 C892 0.930 . S
H898 C893 0.930 . S
C899 O900 1.224 . S
C899 O918 1.247 . S
O900 C899 1.224 . S
N901 Co891 2.128 . S
N901 C902 1.355 . S
N901 C904 1.311 . S
C902 N901 1.355 . S
C902 C903 1.363 . S
C902 H914 0.929 . S
C903 C902 1.363 . S
C903 N905 1.375 . S
C903 H921 0.931 . S
C904 N901 1.311 . S
C904 N905 1.347 . S
C904 H915 0.929 . S
N905 C903 1.375 . S
N905 C904 1.347 . S
C906 C909 1.365 . S
C906 N911 1.328 . S
C906 H912 0.929 . S
C907 C908 1.362 . S
C907 C910 1.378 . S
C907 H922 0.929 . S
C908 C907 1.362 . S
C908 C909 1.366 . S
C909 C906 1.365 . S
C909 C908 1.366 . S
C909 H923 0.930 . S
C910 C907 1.378 . S
C910 N911 1.315 . S
C910 H913 0.930 . S
N911 Co891 2.194 . S
N911 C906 1.328 . S
N911 C910 1.315 . S
H912 C906 0.929 . S
H913 C910 0.930 . S
H914 C902 0.929 . S
H915 C904 0.929 . S
O916 Co891 2.351 . S
O916 C919 1.244 . S
O917 Co891 2.155 . S
O917 C919 1.240 . S
O918 Co891 2.096 . S
O918 C899 1.247 . S
C919 O916 1.244 . S
C919 O917 1.240 . S
H920 C894 0.931 . S
H921 C903 0.931 . S
H922 C907 0.929 . S
H923 C909 0.930 . S
Co924 N928 2.148 . S
Co924 N934 2.128 . S
Co924 N944 2.194 . S
Co924 O949 2.351 . S
Co924 O950 2.155 . S
Co924 O951 2.096 . S
C925 N928 1.301 . S
C925 N929 1.328 . S
C925 H930 0.930 . S
C926 C927 1.333 . S
C926 N928 1.317 . S
C926 H931 0.930 . S
C927 C926 1.333 . S
C927 N929 1.350 . S
C927 H953 0.931 . S
N928 Co924 2.148 . S
N928 C925 1.301 . S
N928 C926 1.317 . S
N929 C925 1.328 . S
N929 C927 1.350 . S
H930 C925 0.930 . S
H931 C926 0.930 . S
C932 O933 1.224 . S
C932 O951 1.247 . S
O933 C932 1.224 . S
N934 Co924 2.128 . S
N934 C935 1.355 . S
N934 C937 1.311 . S
C935 N934 1.355 . S
C935 C936 1.363 . S
C935 H947 0.929 . S
C936 C935 1.363 . S
C936 N938 1.375 . S
C936 H954 0.931 . S
C937 N934 1.311 . S
C937 N938 1.347 . S
C937 H948 0.929 . S
N938 C936 1.375 . S
N938 C937 1.347 . S
C939 C942 1.365 . S
C939 N944 1.328 . S
C939 H945 0.929 . S
C940 C941 1.362 . S
C940 C943 1.378 . S
C940 H955 0.929 . S
C941 C940 1.362 . S
C941 C942 1.366 . S
C942 C939 1.365 . S
C942 C941 1.366 . S
C942 H956 0.930 . S
C943 C940 1.378 . S
C943 N944 1.315 . S
C943 H946 0.930 . S
N944 Co924 2.194 . S
N944 C939 1.328 . S
N944 C943 1.315 . S
H945 C939 0.929 . S
H946 C943 0.930 . S
H947 C935 0.929 . S
H948 C937 0.929 . S
O949 Co924 2.351 . S
O949 C952 1.244 . S
O950 Co924 2.155 . S
O950 C952 1.240 . S
O951 Co924 2.096 . S
O951 C932 1.247 . S
C952 O949 1.244 . S
C952 O950 1.240 . S
H953 C927 0.931 . S
H954 C936 0.931 . S
H955 C940 0.929 . S
H956 C942 0.930 . S
Co957 N961 2.148 . S
Co957 N967 2.128 . S
Co957 N977 2.194 . S
Co957 O982 2.351 . S
Co957 O983 2.155 . S
Co957 O984 2.096 . S
C958 N961 1.301 . S
C958 N962 1.328 . S
C958 H963 0.930 . S
C959 C960 1.333 . S
C959 N961 1.317 . S
C959 H964 0.930 . S
C960 C959 1.333 . S
C960 N962 1.350 . S
C960 H986 0.931 . S
N961 Co957 2.148 . S
N961 C958 1.301 . S
N961 C959 1.317 . S
N962 C958 1.328 . S
N962 C960 1.350 . S
H963 C958 0.930 . S
H964 C959 0.930 . S
C965 O966 1.224 . S
C965 O984 1.247 . S
O966 C965 1.224 . S
N967 Co957 2.128 . S
N967 C968 1.355 . S
N967 C970 1.311 . S
C968 N967 1.355 . S
C968 C969 1.363 . S
C968 H980 0.929 . S
C969 C968 1.363 . S
C969 N971 1.375 . S
C969 H987 0.931 . S
C970 N967 1.311 . S
C970 N971 1.347 . S
C970 H981 0.929 . S
N971 C969 1.375 . S
N971 C970 1.347 . S
C972 C975 1.365 . S
C972 N977 1.328 . S
C972 H978 0.929 . S
C973 C974 1.362 . S
C973 C976 1.378 . S
C973 H988 0.929 . S
C974 C973 1.362 . S
C974 C975 1.366 . S
C975 C972 1.365 . S
C975 C974 1.366 . S
C975 H989 0.930 . S
C976 C973 1.378 . S
C976 N977 1.315 . S
C976 H979 0.930 . S
N977 Co957 2.194 . S
N977 C972 1.328 . S
N977 C976 1.315 . S
H978 C972 0.929 . S
H979 C976 0.930 . S
H980 C968 0.929 . S
H981 C970 0.929 . S
O982 Co957 2.351 . S
O982 C985 1.244 . S
O983 Co957 2.155 . S
O983 C985 1.240 . S
O984 Co957 2.096 . S
O984 C965 1.247 . S
C985 O982 1.244 . S
C985 O983 1.240 . S
H986 C960 0.931 . S
H987 C969 0.931 . S
H988 C973 0.929 . S
H989 C975 0.930 . S
Co990 N994 2.148 1_556 S
Co990 N1000 2.128 . S
Co990 N1010 2.194 . S
Co990 O1015 2.351 . S
Co990 O1016 2.155 . S
Co990 O1017 2.096 . S
C991 N994 1.301 . S
C991 N995 1.328 . S
C991 H996 0.930 . S
C992 C993 1.333 . S
C992 N994 1.317 . S
C992 H997 0.930 . S
C993 C992 1.333 . S
C993 N995 1.350 . S
C993 H1019 0.931 . S
N994 Co990 2.148 1_554 S
N994 C991 1.301 . S
N994 C992 1.317 . S
N995 C991 1.328 . S
N995 C993 1.350 . S
H996 C991 0.930 . S
H997 C992 0.930 . S
C998 O999 1.224 . S
C998 O1017 1.247 1_554 S
O999 C998 1.224 . S
N1000 Co990 2.128 . S
N1000 C1001 1.355 . S
N1000 C1003 1.311 . S
C1001 N1000 1.355 . S
C1001 C1002 1.363 . S
C1001 H1013 0.929 . S
C1002 C1001 1.363 . S
C1002 N1004 1.375 . S
C1002 H1020 0.931 . S
C1003 N1000 1.311 . S
C1003 N1004 1.347 . S
C1003 H1014 0.929 . S
N1004 C1002 1.375 . S
N1004 C1003 1.347 . S
C1005 C1008 1.365 . S
C1005 N1010 1.328 . S
C1005 H1011 0.929 . S
C1006 C1007 1.367 . S
C1006 C1009 1.379 . S
C1006 H1021 0.924 1_556 S
C1007 C1006 1.367 . S
C1007 C1008 1.366 . S
C1008 C1005 1.365 . S
C1008 C1007 1.366 . S
C1008 H1022 0.930 . S
C1009 C1006 1.379 . S
C1009 N1010 1.315 . S
C1009 H1012 0.930 1_556 S
N1010 Co990 2.194 . S
N1010 C1005 1.328 . S
N1010 C1009 1.315 . S
H1011 C1005 0.929 . S
H1012 C1009 0.930 1_554 S
H1013 C1001 0.929 . S
H1014 C1003 0.929 . S
O1015 Co990 2.351 . S
O1015 C1018 1.244 . S
O1016 Co990 2.155 . S
O1016 C1018 1.240 . S
O1017 Co990 2.096 . S
O1017 C998 1.247 1_556 S
C1018 O1015 1.244 . S
C1018 O1016 1.240 . S
H1019 C993 0.931 . S
H1020 C1002 0.931 . S
H1021 C1006 0.924 1_554 S
H1022 C1008 0.930 . S
Co1023 N1027 2.148 . S
Co1023 N1033 2.128 . S
Co1023 N1043 2.194 . S
Co1023 O1048 2.351 . S
Co1023 O1049 2.155 . S
Co1023 O1050 2.096 . S
C1024 N1027 1.301 . S
C1024 N1028 1.328 . S
C1024 H1029 0.930 . S
C1025 C1026 1.333 . S
C1025 N1027 1.317 . S
C1025 H1030 0.930 . S
C1026 C1025 1.333 . S
C1026 N1028 1.350 . S
C1026 H1052 0.931 . S
N1027 Co1023 2.148 . S
N1027 C1024 1.301 . S
N1027 C1025 1.317 . S
N1028 C1024 1.328 . S
N1028 C1026 1.350 . S
H1029 C1024 0.930 . S
H1030 C1025 0.930 . S
C1031 O1032 1.224 . S
C1031 O1050 1.247 . S
O1032 C1031 1.224 . S
N1033 Co1023 2.128 . S
N1033 C1034 1.355 . S
N1033 C1036 1.311 . S
C1034 N1033 1.355 . S
C1034 C1035 1.363 . S
C1034 H1046 0.929 . S
C1035 C1034 1.363 . S
C1035 N1037 1.375 . S
C1035 H1053 0.931 . S
C1036 N1033 1.311 . S
C1036 N1037 1.347 . S
C1036 H1047 0.929 . S
N1037 C1035 1.375 . S
N1037 C1036 1.347 . S
C1038 C1041 1.365 . S
C1038 N1043 1.328 . S
C1038 H1044 0.929 . S
C1039 C1040 1.362 . S
C1039 C1042 1.378 . S
C1039 H1054 0.929 . S
C1040 C1039 1.362 . S
C1040 C1041 1.366 . S
C1041 C1038 1.365 . S
C1041 C1040 1.366 . S
C1041 H1055 0.930 . S
C1042 C1039 1.378 . S
C1042 N1043 1.315 . S
C1042 H1045 0.930 . S
N1043 Co1023 2.194 . S
N1043 C1038 1.328 . S
N1043 C1042 1.315 . S
H1044 C1038 0.929 . S
H1045 C1042 0.930 . S
H1046 C1034 0.929 . S
H1047 C1036 0.929 . S
O1048 Co1023 2.351 . S
O1048 C1051 1.244 . S
O1049 Co1023 2.155 . S
O1049 C1051 1.240 . S
O1050 Co1023 2.096 . S
O1050 C1031 1.247 . S
C1051 O1048 1.244 . S
C1051 O1049 1.240 . S
H1052 C1026 0.931 . S
H1053 C1035 0.931 . S
H1054 C1039 0.929 . S
H1055 C1041 0.930 . S
C1056 C1057 1.349 . S
C1056 C1058 1.327 . S
C1056 H1081 0.950 . S
C1057 C1056 1.349 . S
C1057 C1073 1.349 . S
C1058 C1056 1.327 . S
C1058 C1077 1.429 . S
C1058 H1082 0.950 . S
C1059 C1076 1.574 . S
C1059 C1078 1.368 . S
C1059 H1083 0.949 . S
H1060 C1064 0.949 . S
C1061 C1062 1.349 . S
C1061 C1063 1.327 . S
C1061 H1084 0.950 . S
C1062 C1061 1.349 . S
C1062 C1074 1.349 . S
C1063 C1061 1.327 . S
C1063 C1079 1.429 . S
C1063 H1085 0.950 . S
C1064 H1060 0.949 . S
C1064 C1072 1.574 . S
C1064 C1080 1.368 . S
H1065 C1073 0.950 . S
H1066 C1071 0.950 . S
H1067 C1072 0.949 . S
H1068 C1074 0.950 . S
H1069 C1075 0.950 . S
H1070 C1076 0.949 . S
C1071 H1066 0.950 . S
C1071 C1073 1.327 . S
C1071 C1077 1.429 . S
C1072 C1064 1.574 . S
C1072 H1067 0.949 . S
C1072 C1078 1.368 . S
C1073 C1057 1.349 . S
C1073 H1065 0.950 . S
C1073 C1071 1.327 . S
C1074 C1062 1.349 . S
C1074 H1068 0.950 . S
C1074 C1075 1.327 . S
C1075 H1069 0.950 . S
C1075 C1074 1.327 . S
C1075 C1079 1.429 . S
C1076 C1059 1.574 . S
C1076 H1070 0.949 . S
C1076 C1080 1.368 . S
C1077 C1058 1.429 . S
C1077 C1071 1.429 . S
C1077 C1078 1.523 . S
C1078 C1059 1.368 . S
C1078 C1072 1.368 . S
C1078 C1077 1.523 . S
C1079 C1063 1.429 . S
C1079 C1075 1.429 . S
C1079 C1080 1.523 . S
C1080 C1064 1.368 . S
C1080 C1076 1.368 . S
C1080 C1079 1.523 . S
H1081 C1056 0.950 . S
H1082 C1058 0.950 . S
H1083 C1059 0.949 . S
H1084 C1061 0.950 . S
H1085 C1063 0.950 . S
C1086 C1087 1.349 . S
C1086 C1088 1.327 . S
C1086 H1111 0.950 . S
C1087 C1086 1.349 . S
C1087 C1103 1.349 . S
C1088 C1086 1.327 . S
C1088 C1107 1.429 . S
C1088 H1112 0.950 . S
C1089 C1106 1.574 . S
C1089 C1108 1.368 . S
C1089 H1113 0.949 . S
H1090 C1094 0.949 . S
C1091 C1092 1.349 1_554 S
C1091 C1093 1.327 1_554 S
C1091 H1114 0.950 . S
C1092 C1091 1.349 1_556 S
C1092 C1104 1.349 . S
C1093 C1091 1.327 1_556 S
C1093 C1109 1.429 . S
C1093 H1115 0.950 . S
C1094 H1090 0.949 . S
C1094 C1102 1.574 . S
C1094 C1110 1.368 . S
H1095 C1103 0.950 . S
H1096 C1101 0.950 . S
H1097 C1102 0.949 . S
H1098 C1104 0.950 . S
H1099 C1105 0.950 . S
H1100 C1106 0.949 . S
C1101 H1096 0.950 . S
C1101 C1103 1.327 . S
C1101 C1107 1.429 . S
C1102 C1094 1.574 . S
C1102 H1097 0.949 . S
C1102 C1108 1.368 . S
C1103 C1087 1.349 . S
C1103 H1095 0.950 . S
C1103 C1101 1.327 . S
C1104 C1092 1.349 . S
C1104 H1098 0.950 . S
C1104 C1105 1.327 . S
C1105 H1099 0.950 . S
C1105 C1104 1.327 . S
C1105 C1109 1.429 . S
C1106 C1089 1.574 . S
C1106 H1100 0.949 . S
C1106 C1110 1.368 . S
C1107 C1088 1.429 . S
C1107 C1101 1.429 . S
C1107 C1108 1.523 . S
C1108 C1089 1.368 . S
C1108 C1102 1.368 . S
C1108 C1107 1.523 . S
C1109 C1093 1.429 . S
C1109 C1105 1.429 . S
C1109 C1110 1.523 . S
C1110 C1094 1.368 . S
C1110 C1106 1.368 . S
C1110 C1109 1.523 . S
H1111 C1086 0.950 . S
H1112 C1088 0.950 . S
H1113 C1089 0.949 . S
H1114 C1091 0.950 . S
H1115 C1093 0.950 . S
C1116 C1117 1.349 . S
C1116 C1118 1.327 . S
C1116 H1141 0.950 . S
C1117 C1116 1.349 . S
C1117 C1133 1.349 . S
C1118 C1116 1.327 . S
C1118 C1137 1.429 . S
C1118 H1142 0.950 . S
C1119 C1136 1.574 . S
C1119 C1138 1.368 . S
C1119 H1143 0.949 . S
H1120 C1124 0.949 . S
C1121 C1122 1.349 . S
C1121 C1123 1.327 . S
C1121 H1144 0.950 . S
C1122 C1121 1.349 . S
C1122 C1134 1.349 1_554 S
C1123 C1121 1.327 . S
C1123 C1139 1.429 . S
C1123 H1145 0.950 . S
C1124 H1120 0.949 . S
C1124 C1132 1.574 . S
C1124 C1140 1.368 . S
H1125 C1133 0.950 . S
H1126 C1131 0.950 . S
H1127 C1132 0.949 . S
H1128 C1134 0.950 . S
H1129 C1135 0.950 1_556 S
H1130 C1136 0.949 . S
C1131 H1126 0.950 . S
C1131 C1133 1.327 . S
C1131 C1137 1.429 . S
C1132 C1124 1.574 . S
C1132 H1127 0.949 . S
C1132 C1138 1.368 . S
C1133 C1117 1.349 . S
C1133 H1125 0.950 . S
C1133 C1131 1.327 . S
C1134 C1122 1.349 1_556 S
C1134 H1128 0.950 . S
C1134 C1135 1.327 1_556 S
C1135 H1129 0.950 1_554 S
C1135 C1134 1.327 1_554 S
C1135 C1139 1.429 . S
C1136 C1119 1.574 . S
C1136 H1130 0.949 . S
C1136 C1140 1.368 . S
C1137 C1118 1.429 . S
C1137 C1131 1.429 . S
C1137 C1138 1.523 . S
C1138 C1119 1.368 . S
C1138 C1132 1.368 . S
C1138 C1137 1.523 . S
C1139 C1123 1.429 . S
C1139 C1135 1.429 . S
C1139 C1140 1.523 . S
C1140 C1124 1.368 . S
C1140 C1136 1.368 . S
C1140 C1139 1.523 . S
H1141 C1116 0.950 . S
H1142 C1118 0.950 . S
H1143 C1119 0.949 . S
H1144 C1121 0.950 . S
H1145 C1123 0.950 . S
C1146 C1147 1.349 . S
C1146 C1148 1.327 . S
C1146 H1171 0.950 . S
C1147 C1146 1.349 . S
C1147 C1163 1.349 . S
C1148 C1146 1.327 . S
C1148 C1167 1.429 . S
C1148 H1172 0.950 . S
C1149 C1166 1.574 . S
C1149 C1168 1.368 . S
C1149 H1173 0.949 . S
H1150 C1154 0.949 . S
C1151 C1152 1.349 . S
C1151 C1153 1.327 . S
C1151 H1174 0.950 . S
C1152 C1151 1.349 . S
C1152 C1164 1.349 . S
C1153 C1151 1.327 . S
C1153 C1169 1.429 . S
C1153 H1175 0.950 . S
C1154 H1150 0.949 . S
C1154 C1162 1.574 . S
C1154 C1170 1.368 . S
H1155 C1163 0.950 . S
H1156 C1161 0.950 . S
H1157 C1162 0.949 . S
H1158 C1164 0.950 . S
H1159 C1165 0.950 . S
H1160 C1166 0.949 . S
C1161 H1156 0.950 . S
C1161 C1163 1.327 . S
C1161 C1167 1.429 . S
C1162 C1154 1.574 . S
C1162 H1157 0.949 . S
C1162 C1168 1.368 . S
C1163 C1147 1.349 . S
C1163 H1155 0.950 . S
C1163 C1161 1.327 . S
C1164 C1152 1.349 . S
C1164 H1158 0.950 . S
C1164 C1165 1.327 . S
C1165 H1159 0.950 . S
C1165 C1164 1.327 . S
C1165 C1169 1.429 . S
C1166 C1149 1.574 . S
C1166 H1160 0.949 . S
C1166 C1170 1.368 . S
C1167 C1148 1.429 . S
C1167 C1161 1.429 . S
C1167 C1168 1.523 . S
C1168 C1149 1.368 . S
C1168 C1162 1.368 . S
C1168 C1167 1.523 . S
C1169 C1153 1.429 . S
C1169 C1165 1.429 . S
C1169 C1170 1.523 . S
C1170 C1154 1.368 . S
C1170 C1166 1.368 . S
C1170 C1169 1.523 . S
H1171 C1146 0.950 . S
H1172 C1148 0.950 . S
H1173 C1149 0.949 . S
H1174 C1151 0.950 . S
H1175 C1153 0.950 . S
C1176 C1177 1.349 . S
C1176 C1178 1.327 . S
C1176 H1201 0.950 . S
C1177 C1176 1.349 . S
C1177 C1193 1.349 . S
C1178 C1176 1.327 . S
C1178 C1197 1.429 . S
C1178 H1202 0.950 . S
C1179 C1196 1.574 . S
C1179 C1198 1.368 . S
C1179 H1203 0.949 . S
H1180 C1184 0.949 . S
C1181 C1182 1.349 . S
C1181 C1183 1.327 . S
C1181 H1204 0.950 . S
C1182 C1181 1.349 . S
C1182 C1194 1.349 . S
C1183 C1181 1.327 . S
C1183 C1199 1.429 . S
C1183 H1205 0.950 . S
C1184 H1180 0.949 . S
C1184 C1192 1.574 . S
C1184 C1200 1.368 . S
H1185 C1193 0.950 . S
H1186 C1191 0.950 . S
H1187 C1192 0.949 . S
H1188 C1194 0.950 . S
H1189 C1195 0.950 . S
H1190 C1196 0.949 . S
C1191 H1186 0.950 . S
C1191 C1193 1.327 . S
C1191 C1197 1.429 . S
C1192 C1184 1.574 . S
C1192 H1187 0.949 . S
C1192 C1198 1.368 . S
C1193 C1177 1.349 . S
C1193 H1185 0.950 . S
C1193 C1191 1.327 . S
C1194 C1182 1.349 . S
C1194 H1188 0.950 . S
C1194 C1195 1.327 . S
C1195 H1189 0.950 . S
C1195 C1194 1.327 . S
C1195 C1199 1.429 . S
C1196 C1179 1.574 . S
C1196 H1190 0.949 . S
C1196 C1200 1.368 . S
C1197 C1178 1.429 . S
C1197 C1191 1.429 . S
C1197 C1198 1.523 . S
C1198 C1179 1.368 . S
C1198 C1192 1.368 . S
C1198 C1197 1.523 . S
C1199 C1183 1.429 . S
C1199 C1195 1.429 . S
C1199 C1200 1.523 . S
C1200 C1184 1.368 . S
C1200 C1196 1.368 . S
C1200 C1199 1.523 . S
H1201 C1176 0.950 . S
H1202 C1178 0.950 . S
H1203 C1179 0.949 . S
H1204 C1181 0.950 . S
H1205 C1183 0.950 . S
C1206 C1207 1.349 . S
C1206 C1208 1.327 . S
C1206 H1231 0.950 1_554 S
C1207 C1206 1.349 . S
C1207 C1223 1.349 . S
C1208 C1206 1.327 . S
C1208 C1227 1.429 . S
C1208 H1232 0.950 . S
C1209 C1226 1.574 . S
C1209 C1228 1.368 . S
C1209 H1233 0.949 . S
H1210 C1214 0.949 . S
C1211 C1212 1.349 . S
C1211 C1213 1.327 . S
C1211 H1234 0.950 . S
C1212 C1211 1.349 . S
C1212 C1224 1.349 . S
C1213 C1211 1.327 . S
C1213 C1229 1.429 . S
C1213 H1235 0.950 . S
C1214 H1210 0.949 . S
C1214 C1222 1.574 . S
C1214 C1230 1.368 . S
H1215 C1223 0.950 . S
H1216 C1221 0.950 . S
H1217 C1222 0.949 . S
H1218 C1224 0.950 . S
H1219 C1225 0.950 . S
H1220 C1226 0.949 . S
C1221 H1216 0.950 . S
C1221 C1223 1.327 . S
C1221 C1227 1.429 . S
C1222 C1214 1.574 . S
C1222 H1217 0.949 . S
C1222 C1228 1.368 . S
C1223 C1207 1.349 . S
C1223 H1215 0.950 . S
C1223 C1221 1.327 . S
C1224 C1212 1.349 . S
C1224 H1218 0.950 . S
C1224 C1225 1.327 . S
C1225 H1219 0.950 . S
C1225 C1224 1.327 . S
C1225 C1229 1.429 . S
C1226 C1209 1.574 . S
C1226 H1220 0.949 . S
C1226 C1230 1.368 . S
C1227 C1208 1.429 . S
C1227 C1221 1.429 . S
C1227 C1228 1.523 . S
C1228 C1209 1.368 . S
C1228 C1222 1.368 . S
C1228 C1227 1.523 . S
C1229 C1213 1.429 . S
C1229 C1225 1.429 . S
C1229 C1230 1.523 . S
C1230 C1214 1.368 . S
C1230 C1226 1.368 . S
C1230 C1229 1.523 . S
H1231 C1206 0.950 1_556 S
H1232 C1208 0.950 . S
H1233 C1209 0.949 . S
H1234 C1211 0.950 . S
H1235 C1213 0.950 . S
C1236 C1237 1.349 . S
C1236 C1238 1.327 . S
C1236 H1261 0.950 . S
C1237 C1236 1.349 . S
C1237 C1253 1.349 . S
C1238 C1236 1.327 . S
C1238 C1257 1.429 . S
C1238 H1262 0.950 . S
C1239 C1256 1.574 . S
C1239 C1258 1.368 . S
C1239 H1263 0.949 . S
H1240 C1244 0.949 . S
C1241 C1242 1.349 . S
C1241 C1243 1.327 . S
C1241 H1264 0.950 . S
C1242 C1241 1.349 . S
C1242 C1254 1.349 1_556 S
C1243 C1241 1.327 . S
C1243 C1259 1.429 . S
C1243 H1265 0.950 . S
C1244 H1240 0.949 . S
C1244 C1252 1.574 . S
C1244 C1260 1.368 . S
H1245 C1253 0.950 . S
H1246 C1251 0.950 . S
H1247 C1252 0.949 . S
H1248 C1254 0.950 . S
H1249 C1255 0.950 1_554 S
H1250 C1256 0.949 . S
C1251 H1246 0.950 . S
C1251 C1253 1.327 . S
C1251 C1257 1.429 . S
C1252 C1244 1.574 . S
C1252 H1247 0.949 . S
C1252 C1258 1.368 . S
C1253 C1237 1.349 . S
C1253 H1245 0.950 . S
C1253 C1251 1.327 . S
C1254 C1242 1.349 1_554 S
C1254 H1248 0.950 . S
C1254 C1255 1.327 1_554 S
C1255 H1249 0.950 1_556 S
C1255 C1254 1.327 1_556 S
C1255 C1259 1.429 . S
C1256 C1239 1.574 . S
C1256 H1250 0.949 . S
C1256 C1260 1.368 . S
C1257 C1238 1.429 . S
C1257 C1251 1.429 . S
C1257 C1258 1.523 . S
C1258 C1239 1.368 . S
C1258 C1252 1.368 . S
C1258 C1257 1.523 . S
C1259 C1243 1.429 . S
C1259 C1255 1.429 . S
C1259 C1260 1.523 . S
C1260 C1244 1.368 . S
C1260 C1256 1.368 . S
C1260 C1259 1.523 . S
H1261 C1236 0.950 . S
H1262 C1238 0.950 . S
H1263 C1239 0.949 . S
H1264 C1241 0.950 . S
H1265 C1243 0.950 . S
C1266 C1267 1.349 . S
C1266 C1268 1.327 . S
C1266 H1291 0.950 . S
C1267 C1266 1.349 . S
C1267 C1283 1.349 . S
C1268 C1266 1.327 . S
C1268 C1287 1.429 . S
C1268 H1292 0.950 . S
C1269 C1286 1.574 . S
C1269 C1288 1.368 . S
C1269 H1293 0.949 . S
H1270 C1274 0.949 . S
C1271 C1272 1.349 . S
C1271 C1273 1.327 . S
C1271 H1294 0.950 . S
C1272 C1271 1.349 . S
C1272 C1284 1.349 . S
C1273 C1271 1.327 . S
C1273 C1289 1.429 . S
C1273 H1295 0.950 . S
C1274 H1270 0.949 . S
C1274 C1282 1.574 . S
C1274 C1290 1.368 . S
H1275 C1283 0.950 . S
H1276 C1281 0.950 . S
H1277 C1282 0.949 . S
H1278 C1284 0.950 . S
H1279 C1285 0.950 . S
H1280 C1286 0.949 . S
C1281 H1276 0.950 . S
C1281 C1283 1.327 . S
C1281 C1287 1.429 . S
C1282 C1274 1.574 . S
C1282 H1277 0.949 . S
C1282 C1288 1.368 . S
C1283 C1267 1.349 . S
C1283 H1275 0.950 . S
C1283 C1281 1.327 . S
C1284 C1272 1.349 . S
C1284 H1278 0.950 . S
C1284 C1285 1.327 . S
C1285 H1279 0.950 . S
C1285 C1284 1.327 . S
C1285 C1289 1.429 . S
C1286 C1269 1.574 . S
C1286 H1280 0.949 . S
C1286 C1290 1.368 . S
C1287 C1268 1.429 . S
C1287 C1281 1.429 . S
C1287 C1288 1.523 . S
C1288 C1269 1.368 . S
C1288 C1282 1.368 . S
C1288 C1287 1.523 . S
C1289 C1273 1.429 . S
C1289 C1285 1.429 . S
C1289 C1290 1.523 . S
C1290 C1274 1.368 . S
C1290 C1286 1.368 . S
C1290 C1289 1.523 . S
H1291 C1266 0.950 . S
H1292 C1268 0.950 . S
H1293 C1269 0.949 . S
H1294 C1271 0.950 . S
H1295 C1273 0.950 . S
C1296 C1297 1.349 . S
C1296 C1298 1.327 . S
C1296 H1321 0.950 . S
C1297 C1296 1.349 . S
C1297 C1313 1.349 1_554 S
C1298 C1296 1.327 . S
C1298 C1317 1.429 . S
C1298 H1322 0.950 . S
C1299 C1316 1.574 . S
C1299 C1318 1.368 . S
C1299 H1323 0.949 . S
H1300 C1304 0.949 . S
C1301 C1302 1.349 . S
C1301 C1303 1.327 . S
C1301 H1324 0.950 . S
C1302 C1301 1.349 . S
C1302 C1314 1.349 . S
C1303 C1301 1.327 . S
C1303 C1319 1.429 . S
C1303 H1325 0.950 . S
C1304 H1300 0.949 . S
C1304 C1312 1.574 . S
C1304 C1320 1.368 . S
H1305 C1313 0.950 . S
H1306 C1311 0.950 . S
H1307 C1312 0.949 . S
H1308 C1314 0.950 . S
H1309 C1315 0.950 . S
H1310 C1316 0.949 . S
C1311 H1306 0.950 . S
C1311 C1313 1.327 1_554 S
C1311 C1317 1.429 . S
C1312 C1304 1.574 . S
C1312 H1307 0.949 . S
C1312 C1318 1.368 . S
C1313 C1297 1.349 1_556 S
C1313 H1305 0.950 . S
C1313 C1311 1.327 1_556 S
C1314 C1302 1.349 . S
C1314 H1308 0.950 . S
C1314 C1315 1.327 . S
C1315 H1309 0.950 . S
C1315 C1314 1.327 . S
C1315 C1319 1.429 . S
C1316 C1299 1.574 . S
C1316 H1310 0.949 . S
C1316 C1320 1.368 . S
C1317 C1298 1.429 . S
C1317 C1311 1.429 . S
C1317 C1318 1.523 . S
C1318 C1299 1.368 . S
C1318 C1312 1.368 . S
C1318 C1317 1.523 . S
C1319 C1303 1.429 . S
C1319 C1315 1.429 . S
C1319 C1320 1.523 . S
C1320 C1304 1.368 . S
C1320 C1316 1.368 . S
C1320 C1319 1.523 . S
H1321 C1296 0.950 . S
H1322 C1298 0.950 . S
H1323 C1299 0.949 . S
H1324 C1301 0.950 . S
H1325 C1303 0.950 . S
C1326 C1327 1.349 . S
C1326 C1328 1.327 . S
C1326 H1351 0.950 . S
C1327 C1326 1.349 . S
C1327 C1343 1.349 . S
C1328 C1326 1.327 . S
C1328 C1347 1.429 . S
C1328 H1352 0.950 . S
C1329 C1346 1.574 . S
C1329 C1348 1.368 . S
C1329 H1353 0.949 . S
H1330 C1334 0.949 . S
C1331 C1332 1.349 . S
C1331 C1333 1.327 . S
C1331 H1354 0.950 . S
C1332 C1331 1.349 . S
C1332 C1344 1.349 . S
C1333 C1331 1.327 . S
C1333 C1349 1.429 . S
C1333 H1355 0.950 . S
C1334 H1330 0.949 . S
C1334 C1342 1.574 . S
C1334 C1350 1.368 . S
H1335 C1343 0.950 . S
H1336 C1341 0.950 . S
H1337 C1342 0.949 . S
H1338 C1344 0.950 . S
H1339 C1345 0.950 . S
H1340 C1346 0.949 . S
C1341 H1336 0.950 . S
C1341 C1343 1.327 . S
C1341 C1347 1.429 . S
C1342 C1334 1.574 . S
C1342 H1337 0.949 . S
C1342 C1348 1.368 . S
C1343 C1327 1.349 . S
C1343 H1335 0.950 . S
C1343 C1341 1.327 . S
C1344 C1332 1.349 . S
C1344 H1338 0.950 . S
C1344 C1345 1.327 . S
C1345 H1339 0.950 . S
C1345 C1344 1.327 . S
C1345 C1349 1.429 . S
C1346 C1329 1.574 . S
C1346 H1340 0.949 . S
C1346 C1350 1.368 . S
C1347 C1328 1.429 . S
C1347 C1341 1.429 . S
C1347 C1348 1.523 . S
C1348 C1329 1.368 . S
C1348 C1342 1.368 . S
C1348 C1347 1.523 . S
C1349 C1333 1.429 . S
C1349 C1345 1.429 . S
C1349 C1350 1.523 . S
C1350 C1334 1.368 . S
C1350 C1346 1.368 . S
C1350 C1349 1.523 . S
H1351 C1326 0.950 . S
H1352 C1328 0.950 . S
H1353 C1329 0.949 . S
H1354 C1331 0.950 . S
H1355 C1333 0.950 . S
C1356 C1357 1.349 . S
C1356 C1358 1.327 . S
C1356 H1381 0.950 . S
C1357 C1356 1.349 . S
C1357 C1373 1.349 . S
C1358 C1356 1.327 . S
C1358 C1377 1.429 . S
C1358 H1382 0.950 . S
C1359 C1376 1.574 . S
C1359 C1378 1.368 . S
C1359 H1383 0.949 . S
H1360 C1364 0.949 . S
C1361 C1362 1.349 . S
C1361 C1363 1.327 . S
C1361 H1384 0.950 . S
C1362 C1361 1.349 . S
C1362 C1374 1.349 . S
C1363 C1361 1.327 . S
C1363 C1379 1.429 . S
C1363 H1385 0.950 . S
C1364 H1360 0.949 . S
C1364 C1372 1.574 . S
C1364 C1380 1.368 . S
H1365 C1373 0.950 . S
H1366 C1371 0.950 . S
H1367 C1372 0.949 . S
H1368 C1374 0.950 . S
H1369 C1375 0.950 . S
H1370 C1376 0.949 . S
C1371 H1366 0.950 . S
C1371 C1373 1.327 . S
C1371 C1377 1.429 . S
C1372 C1364 1.574 . S
C1372 H1367 0.949 . S
C1372 C1378 1.368 . S
C1373 C1357 1.349 . S
C1373 H1365 0.950 . S
C1373 C1371 1.327 . S
C1374 C1362 1.349 . S
C1374 H1368 0.950 . S
C1374 C1375 1.327 . S
C1375 H1369 0.950 . S
C1375 C1374 1.327 . S
C1375 C1379 1.429 . S
C1376 C1359 1.574 . S
C1376 H1370 0.949 . S
C1376 C1380 1.368 . S
C1377 C1358 1.429 . S
C1377 C1371 1.429 . S
C1377 C1378 1.523 . S
C1378 C1359 1.368 . S
C1378 C1372 1.368 . S
C1378 C1377 1.523 . S
C1379 C1363 1.429 . S
C1379 C1375 1.429 . S
C1379 C1380 1.523 . S
C1380 C1364 1.368 . S
C1380 C1376 1.368 . S
C1380 C1379 1.523 . S
H1381 C1356 0.950 . S
H1382 C1358 0.950 . S
H1383 C1359 0.949 . S
H1384 C1361 0.950 . S
H1385 C1363 0.950 . S
C1386 C1387 1.349 . S
C1386 C1388 1.327 . S
C1386 H1411 0.950 . S
C1387 C1386 1.349 . S
C1387 C1403 1.349 . S
C1388 C1386 1.327 . S
C1388 C1407 1.429 . S
C1388 H1412 0.950 . S
C1389 C1406 1.574 . S
C1389 C1408 1.368 . S
C1389 H1413 0.949 . S
H1390 C1394 0.949 . S
C1391 C1392 1.349 . S
C1391 C1393 1.327 . S
C1391 H1414 0.950 1_556 S
C1392 C1391 1.349 . S
C1392 C1404 1.349 . S
C1393 C1391 1.327 . S
C1393 C1409 1.429 . S
C1393 H1415 0.950 . S
C1394 H1390 0.949 . S
C1394 C1402 1.574 . S
C1394 C1410 1.368 . S
H1395 C1403 0.950 . S
H1396 C1401 0.950 . S
H1397 C1402 0.949 . S
H1398 C1404 0.950 . S
H1399 C1405 0.950 . S
H1400 C1406 0.949 . S
C1401 H1396 0.950 . S
C1401 C1403 1.327 . S
C1401 C1407 1.429 . S
C1402 C1394 1.574 . S
C1402 H1397 0.949 . S
C1402 C1408 1.368 . S
C1403 C1387 1.349 . S
C1403 H1395 0.950 . S
C1403 C1401 1.327 . S
C1404 C1392 1.349 . S
C1404 H1398 0.950 . S
C1404 C1405 1.327 . S
C1405 H1399 0.950 . S
C1405 C1404 1.327 . S
C1405 C1409 1.429 . S
C1406 C1389 1.574 . S
C1406 H1400 0.949 . S
C1406 C1410 1.368 . S
C1407 C1388 1.429 . S
C1407 C1401 1.429 . S
C1407 C1408 1.523 . S
C1408 C1389 1.368 . S
C1408 C1402 1.368 . S
C1408 C1407 1.523 . S
C1409 C1393 1.429 . S
C1409 C1405 1.429 . S
C1409 C1410 1.523 . S
C1410 C1394 1.368 . S
C1410 C1406 1.368 . S
C1410 C1409 1.523 . S
H1411 C1386 0.950 . S
H1412 C1388 0.950 . S
H1413 C1389 0.949 . S
H1414 C1391 0.950 1_554 S
H1415 C1393 0.950 . S
C1416 C1417 1.349 . S
C1416 C1418 1.327 . S
C1416 H1441 0.950 . S
C1417 C1416 1.349 . S
C1417 C1433 1.349 . S
C1418 C1416 1.327 . S
C1418 C1437 1.429 . S
C1418 H1442 0.950 . S
C1419 C1436 1.574 . S
C1419 C1438 1.368 . S
C1419 H1443 0.949 . S
H1420 C1424 0.949 . S
C1421 C1422 1.349 . S
C1421 C1423 1.327 . S
C1421 H1444 0.950 . S
C1422 C1421 1.349 . S
C1422 C1434 1.349 1_556 S
C1423 C1421 1.327 . S
C1423 C1439 1.429 . S
C1423 H1445 0.950 . S
C1424 H1420 0.949 . S
C1424 C1432 1.574 . S
C1424 C1440 1.368 . S
H1425 C1433 0.950 . S
H1426 C1431 0.950 . S
H1427 C1432 0.949 . S
H1428 C1434 0.950 . S
H1429 C1435 0.950 1_554 S
H1430 C1436 0.949 . S
C1431 H1426 0.950 . S
C1431 C1433 1.327 . S
C1431 C1437 1.429 . S
C1432 C1424 1.574 . S
C1432 H1427 0.949 . S
C1432 C1438 1.368 . S
C1433 C1417 1.349 . S
C1433 H1425 0.950 . S
C1433 C1431 1.327 . S
C1434 C1422 1.349 1_554 S
C1434 H1428 0.950 . S
C1434 C1435 1.327 1_554 S
C1435 H1429 0.950 1_556 S
C1435 C1434 1.327 1_556 S
C1435 C1439 1.429 . S
C1436 C1419 1.574 . S
C1436 H1430 0.949 . S
C1436 C1440 1.368 . S
C1437 C1418 1.429 . S
C1437 C1431 1.429 . S
C1437 C1438 1.523 . S
C1438 C1419 1.368 . S
C1438 C1432 1.368 . S
C1438 C1437 1.523 . S
C1439 C1423 1.429 . S
C1439 C1435 1.429 . S
C1439 C1440 1.523 . S
C1440 C1424 1.368 . S
C1440 C1436 1.368 . S
C1440 C1439 1.523 . S
H1441 C1416 0.950 . S
H1442 C1418 0.950 . S
H1443 C1419 0.949 . S
H1444 C1421 0.950 . S
H1445 C1423 0.950 . S
C1446 C1447 1.349 . S
C1446 C1448 1.327 . S
C1446 H1471 0.950 . S
C1447 C1446 1.349 . S
C1447 C1463 1.349 . S
C1448 C1446 1.327 . S
C1448 C1467 1.429 . S
C1448 H1472 0.950 . S
C1449 C1466 1.574 . S
C1449 C1468 1.368 . S
C1449 H1473 0.949 . S
H1450 C1454 0.949 . S
C1451 C1452 1.349 . S
C1451 C1453 1.327 . S
C1451 H1474 0.950 . S
C1452 C1451 1.349 . S
C1452 C1464 1.349 . S
C1453 C1451 1.327 . S
C1453 C1469 1.429 . S
C1453 H1475 0.950 . S
C1454 H1450 0.949 . S
C1454 C1462 1.574 . S
C1454 C1470 1.368 . S
H1455 C1463 0.950 . S
H1456 C1461 0.950 . S
H1457 C1462 0.949 . S
H1458 C1464 0.950 . S
H1459 C1465 0.950 . S
H1460 C1466 0.949 . S
C1461 H1456 0.950 . S
C1461 C1463 1.327 . S
C1461 C1467 1.429 . S
C1462 C1454 1.574 . S
C1462 H1457 0.949 . S
C1462 C1468 1.368 . S
C1463 C1447 1.349 . S
C1463 H1455 0.950 . S
C1463 C1461 1.327 . S
C1464 C1452 1.349 . S
C1464 H1458 0.950 . S
C1464 C1465 1.327 . S
C1465 H1459 0.950 . S
C1465 C1464 1.327 . S
C1465 C1469 1.429 . S
C1466 C1449 1.574 . S
C1466 H1460 0.949 . S
C1466 C1470 1.368 . S
C1467 C1448 1.429 . S
C1467 C1461 1.429 . S
C1467 C1468 1.523 . S
C1468 C1449 1.368 . S
C1468 C1462 1.368 . S
C1468 C1467 1.523 . S
C1469 C1453 1.429 . S
C1469 C1465 1.429 . S
C1469 C1470 1.523 . S
C1470 C1454 1.368 . S
C1470 C1466 1.368 . S
C1470 C1469 1.523 . S
H1471 C1446 0.950 . S
H1472 C1448 0.950 . S
H1473 C1449 0.949 . S
H1474 C1451 0.950 . S
H1475 C1453 0.950 . S
C1476 C1477 1.349 . S
C1476 C1478 1.327 . S
C1476 H1501 0.950 . S
C1477 C1476 1.349 . S
C1477 C1493 1.349 . S
C1478 C1476 1.327 . S
C1478 C1497 1.429 . S
C1478 H1502 0.950 . S
C1479 C1496 1.574 . S
C1479 C1498 1.368 . S
C1479 H1503 0.949 . S
H1480 C1484 0.949 . S
C1481 C1482 1.349 . S
C1481 C1483 1.327 . S
C1481 H1504 0.950 . S
C1482 C1481 1.349 . S
C1482 C1494 1.349 . S
C1483 C1481 1.327 . S
C1483 C1499 1.429 . S
C1483 H1505 0.950 . S
C1484 H1480 0.949 . S
C1484 C1492 1.574 . S
C1484 C1500 1.368 . S
H1485 C1493 0.950 . S
H1486 C1491 0.950 . S
H1487 C1492 0.949 . S
H1488 C1494 0.950 . S
H1489 C1495 0.950 . S
H1490 C1496 0.949 . S
C1491 H1486 0.950 . S
C1491 C1493 1.327 . S
C1491 C1497 1.429 . S
C1492 C1484 1.574 . S
C1492 H1487 0.949 . S
C1492 C1498 1.368 . S
C1493 C1477 1.349 . S
C1493 H1485 0.950 . S
C1493 C1491 1.327 . S
C1494 C1482 1.349 . S
C1494 H1488 0.950 . S
C1494 C1495 1.327 . S
C1495 H1489 0.950 . S
C1495 C1494 1.327 . S
C1495 C1499 1.429 . S
C1496 C1479 1.574 . S
C1496 H1490 0.949 . S
C1496 C1500 1.368 . S
C1497 C1478 1.429 . S
C1497 C1491 1.429 . S
C1497 C1498 1.523 . S
C1498 C1479 1.368 . S
C1498 C1492 1.368 . S
C1498 C1497 1.523 . S
C1499 C1483 1.429 . S
C1499 C1495 1.429 . S
C1499 C1500 1.523 . S
C1500 C1484 1.368 . S
C1500 C1496 1.368 . S
C1500 C1499 1.523 . S
H1501 C1476 0.950 . S
H1502 C1478 0.950 . S
H1503 C1479 0.949 . S
H1504 C1481 0.950 . S
H1505 C1483 0.950 . S
C1506 C1507 1.349 . S
C1506 C1508 1.327 . S
C1506 H1531 0.950 . S
C1507 C1506 1.349 . S
C1507 C1523 1.349 . S
C1508 C1506 1.327 . S
C1508 C1527 1.429 . S
C1508 H1532 0.950 . S
C1509 C1526 1.574 . S
C1509 C1528 1.368 . S
C1509 H1533 0.949 . S
H1510 C1514 0.949 . S
C1511 C1512 1.349 . S
C1511 C1513 1.327 . S
C1511 H1534 0.950 . S
C1512 C1511 1.349 . S
C1512 C1524 1.349 1_554 S
C1513 C1511 1.327 . S
C1513 C1529 1.429 . S
C1513 H1535 0.950 . S
C1514 H1510 0.949 . S
C1514 C1522 1.574 . S
C1514 C1530 1.368 . S
H1515 C1523 0.950 . S
H1516 C1521 0.950 . S
H1517 C1522 0.949 . S
H1518 C1524 0.950 . S
H1519 C1525 0.950 1_556 S
H1520 C1526 0.949 . S
C1521 H1516 0.950 . S
C1521 C1523 1.327 . S
C1521 C1527 1.429 . S
C1522 C1514 1.574 . S
C1522 H1517 0.949 . S
C1522 C1528 1.368 . S
C1523 C1507 1.349 . S
C1523 H1515 0.950 . S
C1523 C1521 1.327 . S
C1524 C1512 1.349 1_556 S
C1524 H1518 0.950 . S
C1524 C1525 1.327 1_556 S
C1525 H1519 0.950 1_554 S
C1525 C1524 1.327 1_554 S
C1525 C1529 1.429 . S
C1526 C1509 1.574 . S
C1526 H1520 0.949 . S
C1526 C1530 1.368 . S
C1527 C1508 1.429 . S
C1527 C1521 1.429 . S
C1527 C1528 1.523 . S
C1528 C1509 1.368 . S
C1528 C1522 1.368 . S
C1528 C1527 1.523 . S
C1529 C1513 1.429 . S
C1529 C1525 1.429 . S
C1529 C1530 1.523 . S
C1530 C1514 1.368 . S
C1530 C1526 1.368 . S
C1530 C1529 1.523 . S
H1531 C1506 0.950 . S
H1532 C1508 0.950 . S
H1533 C1509 0.949 . S
H1534 C1511 0.950 . S
H1535 C1513 0.950 . S
C1536 C1537 1.349 . S
C1536 C1538 1.327 . S
C1536 H1561 0.950 . S
C1537 C1536 1.349 . S
C1537 C1553 1.349 . S
C1538 C1536 1.327 . S
C1538 C1557 1.429 . S
C1538 H1562 0.950 . S
C1539 C1556 1.574 . S
C1539 C1558 1.368 . S
C1539 H1563 0.949 . S
H1540 C1544 0.949 . S
C1541 C1542 1.349 . S
C1541 C1543 1.327 . S
C1541 H1564 0.950 . S
C1542 C1541 1.349 . S
C1542 C1554 1.349 . S
C1543 C1541 1.327 . S
C1543 C1559 1.429 . S
C1543 H1565 0.950 . S
C1544 H1540 0.949 . S
C1544 C1552 1.574 . S
C1544 C1560 1.368 . S
H1545 C1553 0.950 . S
H1546 C1551 0.950 . S
H1547 C1552 0.949 . S
H1548 C1554 0.950 . S
H1549 C1555 0.950 . S
H1550 C1556 0.949 . S
C1551 H1546 0.950 . S
C1551 C1553 1.327 . S
C1551 C1557 1.429 . S
C1552 C1544 1.574 . S
C1552 H1547 0.949 . S
C1552 C1558 1.368 . S
C1553 C1537 1.349 . S
C1553 H1545 0.950 . S
C1553 C1551 1.327 . S
C1554 C1542 1.349 . S
C1554 H1548 0.950 . S
C1554 C1555 1.327 . S
C1555 H1549 0.950 . S
C1555 C1554 1.327 . S
C1555 C1559 1.429 . S
C1556 C1539 1.574 . S
C1556 H1550 0.949 . S
C1556 C1560 1.368 . S
C1557 C1538 1.429 . S
C1557 C1551 1.429 . S
C1557 C1558 1.523 . S
C1558 C1539 1.368 . S
C1558 C1552 1.368 . S
C1558 C1557 1.523 . S
C1559 C1543 1.429 . S
C1559 C1555 1.429 . S
C1559 C1560 1.523 . S
C1560 C1544 1.368 . S
C1560 C1556 1.368 . S
C1560 C1559 1.523 . S
H1561 C1536 0.950 . S
H1562 C1538 0.950 . S
H1563 C1539 0.949 . S
H1564 C1541 0.950 . S
H1565 C1543 0.950 . S
C1566 C1567 1.349 . S
C1566 C1568 1.327 . S
C1566 H1591 0.950 . S
C1567 C1566 1.349 . S
C1567 C1583 1.349 . S
C1568 C1566 1.327 . S
C1568 C1587 1.429 . S
C1568 H1592 0.950 . S
C1569 C1586 1.574 1_565 S
C1569 C1588 1.368 . S
C1569 H1593 0.949 . S
H1570 C1574 0.949 . S
C1571 C1572 1.349 . S
C1571 C1573 1.327 . S
C1571 H1594 0.950 . S
C1572 C1571 1.349 . S
C1572 C1584 1.349 . S
C1573 C1571 1.327 . S
C1573 C1589 1.429 . S
C1573 H1595 0.950 . S
C1574 H1570 0.949 . S
C1574 C1582 1.574 1_545 S
C1574 C1590 1.368 . S
H1575 C1583 0.950 . S
H1576 C1581 0.950 . S
H1577 C1582 0.949 . S
H1578 C1584 0.950 . S
H1579 C1585 0.950 . S
H1580 C1586 0.949 . S
C1581 H1576 0.950 . S
C1581 C1583 1.327 . S
C1581 C1587 1.429 . S
C1582 C1574 1.574 1_565 S
C1582 H1577 0.949 . S
C1582 C1588 1.368 . S
C1583 C1567 1.349 . S
C1583 H1575 0.950 . S
C1583 C1581 1.327 . S
C1584 C1572 1.349 . S
C1584 H1578 0.950 . S
C1584 C1585 1.327 . S
C1585 H1579 0.950 . S
C1585 C1584 1.327 . S
C1585 C1589 1.429 . S
C1586 C1569 1.574 1_545 S
C1586 H1580 0.949 . S
C1586 C1590 1.368 . S
C1587 C1568 1.429 . S
C1587 C1581 1.429 . S
C1587 C1588 1.523 . S
C1588 C1569 1.368 . S
C1588 C1582 1.368 . S
C1588 C1587 1.523 . S
C1589 C1573 1.429 . S
C1589 C1585 1.429 . S
C1589 C1590 1.523 . S
C1590 C1574 1.368 . S
C1590 C1586 1.368 . S
C1590 C1589 1.523 . S
H1591 C1566 0.950 . S
H1592 C1568 0.950 . S
H1593 C1569 0.949 . S
H1594 C1571 0.950 . S
H1595 C1573 0.950 . S
C1596 C1597 1.349 1_556 S
C1596 C1598 1.327 . S
C1596 H1621 0.950 . S
C1597 C1596 1.349 1_554 S
C1597 C1613 1.349 . S
C1598 C1596 1.327 . S
C1598 C1617 1.429 1_556 S
C1598 H1622 0.950 . S
C1599 C1616 1.574 . S
C1599 C1618 1.368 . S
C1599 H1623 0.949 . S
H1600 C1604 0.949 . S
C1601 C1602 1.349 1_554 S
C1601 C1603 1.327 . S
C1601 H1624 0.950 . S
C1602 C1601 1.349 1_556 S
C1602 C1614 1.349 . S
C1603 C1601 1.327 . S
C1603 C1619 1.429 1_554 S
C1603 H1625 0.950 . S
C1604 H1600 0.949 . S
C1604 C1612 1.574 . S
C1604 C1620 1.368 . S
H1605 C1613 0.950 . S
H1606 C1611 0.950 . S
H1607 C1612 0.949 . S
H1608 C1614 0.950 . S
H1609 C1615 0.950 . S
H1610 C1616 0.949 . S
C1611 H1606 0.950 . S
C1611 C1613 1.327 . S
C1611 C1617 1.429 . S
C1612 C1604 1.574 . S
C1612 H1607 0.949 . S
C1612 C1618 1.368 1_556 S
C1613 C1597 1.349 . S
C1613 H1605 0.950 . S
C1613 C1611 1.327 . S
C1614 C1602 1.349 . S
C1614 H1608 0.950 . S
C1614 C1615 1.327 . S
C1615 H1609 0.950 . S
C1615 C1614 1.327 . S
C1615 C1619 1.429 . S
C1616 C1599 1.574 . S
C1616 H1610 0.949 . S
C1616 C1620 1.368 1_554 S
C1617 C1598 1.429 1_554 S
C1617 C1611 1.429 . S
C1617 C1618 1.523 . S
C1618 C1599 1.368 . S
C1618 C1612 1.368 1_554 S
C1618 C1617 1.523 . S
C1619 C1603 1.429 1_556 S
C1619 C1615 1.429 . S
C1619 C1620 1.523 . S
C1620 C1604 1.368 . S
C1620 C1616 1.368 1_556 S
C1620 C1619 1.523 . S
H1621 C1596 0.950 . S
H1622 C1598 0.950 . S
H1623 C1599 0.949 . S
H1624 C1601 0.950 . S
H1625 C1603 0.950 . S
C1626 C1627 1.349 . S
C1626 C1628 1.327 . S
C1626 H1651 0.950 . S
C1627 C1626 1.349 . S
C1627 C1643 1.349 . S
C1628 C1626 1.327 . S
C1628 C1647 1.429 . S
C1628 H1652 0.950 . S
C1629 C1646 1.574 1_545 S
C1629 C1648 1.368 . S
C1629 H1653 0.949 . S
H1630 C1634 0.949 . S
C1631 C1632 1.349 . S
C1631 C1633 1.327 . S
C1631 H1654 0.950 . S
C1632 C1631 1.349 . S
C1632 C1644 1.349 . S
C1633 C1631 1.327 . S
C1633 C1649 1.429 . S
C1633 H1655 0.950 . S
C1634 H1630 0.949 . S
C1634 C1642 1.574 1_565 S
C1634 C1650 1.368 . S
H1635 C1643 0.950 . S
H1636 C1641 0.950 . S
H1637 C1642 0.949 . S
H1638 C1644 0.950 . S
H1639 C1645 0.950 . S
H1640 C1646 0.949 . S
C1641 H1636 0.950 . S
C1641 C1643 1.327 . S
C1641 C1647 1.429 . S
C1642 C1634 1.574 1_545 S
C1642 H1637 0.949 . S
C1642 C1648 1.368 . S
C1643 C1627 1.349 . S
C1643 H1635 0.950 . S
C1643 C1641 1.327 . S
C1644 C1632 1.349 . S
C1644 H1638 0.950 . S
C1644 C1645 1.327 . S
C1645 H1639 0.950 . S
C1645 C1644 1.327 . S
C1645 C1649 1.429 . S
C1646 C1629 1.574 1_565 S
C1646 H1640 0.949 . S
C1646 C1650 1.368 . S
C1647 C1628 1.429 . S
C1647 C1641 1.429 . S
C1647 C1648 1.523 . S
C1648 C1629 1.368 . S
C1648 C1642 1.368 . S
C1648 C1647 1.523 . S
C1649 C1633 1.429 . S
C1649 C1645 1.429 . S
C1649 C1650 1.523 . S
C1650 C1634 1.368 . S
C1650 C1646 1.368 . S
C1650 C1649 1.523 . S
H1651 C1626 0.950 . S
H1652 C1628 0.950 . S
H1653 C1629 0.949 . S
H1654 C1631 0.950 . S
H1655 C1633 0.950 . S
C1656 C1657 1.349 . S
C1656 C1658 1.327 . S
C1656 H1681 0.950 . S
C1657 C1656 1.349 . S
C1657 C1673 1.349 . S
C1658 C1656 1.327 . S
C1658 C1677 1.429 . S
C1658 H1682 0.950 . S
C1659 C1676 1.574 . S
C1659 C1678 1.368 . S
C1659 H1683 0.949 . S
H1660 C1664 0.949 . S
C1661 C1662 1.349 . S
C1661 C1663 1.327 . S
C1661 H1684 0.950 . S
C1662 C1661 1.349 . S
C1662 C1674 1.349 . S
C1663 C1661 1.327 . S
C1663 C1679 1.429 . S
C1663 H1685 0.950 . S
C1664 H1660 0.949 . S
C1664 C1672 1.574 . S
C1664 C1680 1.368 . S
H1665 C1673 0.950 . S
H1666 C1671 0.950 . S
H1667 C1672 0.949 . S
H1668 C1674 0.950 . S
H1669 C1675 0.950 . S
H1670 C1676 0.949 . S
C1671 H1666 0.950 . S
C1671 C1673 1.327 . S
C1671 C1677 1.429 . S
C1672 C1664 1.574 . S
C1672 H1667 0.949 . S
C1672 C1678 1.368 . S
C1673 C1657 1.349 . S
C1673 H1665 0.950 . S
C1673 C1671 1.327 . S
C1674 C1662 1.349 . S
C1674 H1668 0.950 . S
C1674 C1675 1.327 . S
C1675 H1669 0.950 . S
C1675 C1674 1.327 . S
C1675 C1679 1.429 . S
C1676 C1659 1.574 . S
C1676 H1670 0.949 . S
C1676 C1680 1.368 . S
C1677 C1658 1.429 . S
C1677 C1671 1.429 . S
C1677 C1678 1.523 . S
C1678 C1659 1.368 . S
C1678 C1672 1.368 . S
C1678 C1677 1.523 . S
C1679 C1663 1.429 . S
C1679 C1675 1.429 . S
C1679 C1680 1.523 . S
C1680 C1664 1.368 . S
C1680 C1676 1.368 . S
C1680 C1679 1.523 . S
H1681 C1656 0.950 . S
H1682 C1658 0.950 . S
H1683 C1659 0.949 . S
H1684 C1661 0.950 . S
H1685 C1663 0.950 . S
C1686 C1687 1.349 . S
C1686 C1688 1.327 . S
C1686 H1711 0.950 . S
C1687 C1686 1.349 . S
C1687 C1703 1.349 . S
C1688 C1686 1.327 . S
C1688 C1707 1.429 . S
C1688 H1712 0.950 . S
C1689 C1706 1.574 1_545 S
C1689 C1708 1.368 . S
C1689 H1713 0.949 . S
H1690 C1694 0.949 . S
C1691 C1692 1.349 . S
C1691 C1693 1.327 . S
C1691 H1714 0.950 . S
C1692 C1691 1.349 . S
C1692 C1704 1.349 . S
C1693 C1691 1.327 . S
C1693 C1709 1.429 . S
C1693 H1715 0.950 . S
C1694 H1690 0.949 . S
C1694 C1702 1.574 1_565 S
C1694 C1710 1.368 . S
H1695 C1703 0.950 . S
H1696 C1701 0.950 . S
H1697 C1702 0.949 . S
H1698 C1704 0.950 . S
H1699 C1705 0.950 . S
H1700 C1706 0.949 . S
C1701 H1696 0.950 . S
C1701 C1703 1.327 . S
C1701 C1707 1.429 . S
C1702 C1694 1.574 1_545 S
C1702 H1697 0.949 . S
C1702 C1708 1.368 . S
C1703 C1687 1.349 . S
C1703 H1695 0.950 . S
C1703 C1701 1.327 . S
C1704 C1692 1.349 . S
C1704 H1698 0.950 . S
C1704 C1705 1.327 . S
C1705 H1699 0.950 . S
C1705 C1704 1.327 . S
C1705 C1709 1.429 . S
C1706 C1689 1.574 1_565 S
C1706 H1700 0.949 . S
C1706 C1710 1.368 . S
C1707 C1688 1.429 . S
C1707 C1701 1.429 . S
C1707 C1708 1.523 . S
C1708 C1689 1.368 . S
C1708 C1702 1.368 . S
C1708 C1707 1.523 . S
C1709 C1693 1.429 . S
C1709 C1705 1.429 . S
C1709 C1710 1.523 . S
C1710 C1694 1.368 . S
C1710 C1706 1.368 . S
C1710 C1709 1.523 . S
H1711 C1686 0.950 . S
H1712 C1688 0.950 . S
H1713 C1689 0.949 . S
H1714 C1691 0.950 . S
H1715 C1693 0.950 . S
C1716 C1717 1.349 . S
C1716 C1718 1.327 . S
C1716 H1741 0.950 . S
C1717 C1716 1.349 . S
C1717 C1733 1.349 1_554 S
C1718 C1716 1.327 . S
C1718 C1737 1.429 . S
C1718 H1742 0.950 . S
C1719 C1736 1.574 . S
C1719 C1738 1.368 1_556 S
C1719 H1743 0.949 . S
H1720 C1724 0.949 . S
C1721 C1722 1.349 . S
C1721 C1723 1.327 . S
C1721 H1744 0.950 . S
C1722 C1721 1.349 . S
C1722 C1734 1.349 1_556 S
C1723 C1721 1.327 . S
C1723 C1739 1.429 . S
C1723 H1745 0.950 . S
C1724 H1720 0.949 . S
C1724 C1732 1.574 . S
C1724 C1740 1.368 1_554 S
H1725 C1733 0.950 . S
H1726 C1731 0.950 . S
H1727 C1732 0.949 . S
H1728 C1734 0.950 . S
H1729 C1735 0.950 . S
H1730 C1736 0.949 . S
C1731 H1726 0.950 . S
C1731 C1733 1.327 . S
C1731 C1737 1.429 1_556 S
C1732 C1724 1.574 . S
C1732 H1727 0.949 . S
C1732 C1738 1.368 . S
C1733 C1717 1.349 1_556 S
C1733 H1725 0.950 . S
C1733 C1731 1.327 . S
C1734 C1722 1.349 1_554 S
C1734 H1728 0.950 . S
C1734 C1735 1.327 . S
C1735 H1729 0.950 . S
C1735 C1734 1.327 . S
C1735 C1739 1.429 1_554 S
C1736 C1719 1.574 . S
C1736 H1730 0.949 . S
C1736 C1740 1.368 . S
C1737 C1718 1.429 . S
C1737 C1731 1.429 1_554 S
C1737 C1738 1.523 . S
C1738 C1719 1.368 1_554 S
C1738 C1732 1.368 . S
C1738 C1737 1.523 . S
C1739 C1723 1.429 . S
C1739 C1735 1.429 1_556 S
C1739 C1740 1.523 . S
C1740 C1724 1.368 1_556 S
C1740 C1736 1.368 . S
C1740 C1739 1.523 . S
H1741 C1716 0.950 . S
H1742 C1718 0.950 . S
H1743 C1719 0.949 . S
H1744 C1721 0.950 . S
H1745 C1723 0.950 . S
C1746 C1747 1.349 . S
C1746 C1748 1.327 . S
C1746 H1771 0.950 . S
C1747 C1746 1.349 . S
C1747 C1763 1.349 . S
C1748 C1746 1.327 . S
C1748 C1767 1.429 . S
C1748 H1772 0.950 . S
C1749 C1766 1.574 1_545 S
C1749 C1768 1.368 . S
C1749 H1773 0.949 . S
H1750 C1754 0.949 . S
C1751 C1752 1.349 . S
C1751 C1753 1.327 . S
C1751 H1774 0.950 . S
C1752 C1751 1.349 . S
C1752 C1764 1.349 . S
C1753 C1751 1.327 . S
C1753 C1769 1.429 . S
C1753 H1775 0.950 . S
C1754 H1750 0.949 . S
C1754 C1762 1.574 1_565 S
C1754 C1770 1.368 . S
H1755 C1763 0.950 . S
H1756 C1761 0.950 . S
H1757 C1762 0.949 . S
H1758 C1764 0.950 . S
H1759 C1765 0.950 . S
H1760 C1766 0.949 . S
C1761 H1756 0.950 . S
C1761 C1763 1.327 . S
C1761 C1767 1.429 . S
C1762 C1754 1.574 1_545 S
C1762 H1757 0.949 . S
C1762 C1768 1.368 . S
C1763 C1747 1.349 . S
C1763 H1755 0.950 . S
C1763 C1761 1.327 . S
C1764 C1752 1.349 . S
C1764 H1758 0.950 . S
C1764 C1765 1.327 . S
C1765 H1759 0.950 . S
C1765 C1764 1.327 . S
C1765 C1769 1.429 . S
C1766 C1749 1.574 1_565 S
C1766 H1760 0.949 . S
C1766 C1770 1.368 . S
C1767 C1748 1.429 . S
C1767 C1761 1.429 . S
C1767 C1768 1.523 . S
C1768 C1749 1.368 . S
C1768 C1762 1.368 . S
C1768 C1767 1.523 . S
C1769 C1753 1.429 . S
C1769 C1765 1.429 . S
C1769 C1770 1.523 . S
C1770 C1754 1.368 . S
C1770 C1766 1.368 . S
C1770 C1769 1.523 . S
H1771 C1746 0.950 . S
H1772 C1748 0.950 . S
H1773 C1749 0.949 . S
H1774 C1751 0.950 . S
H1775 C1753 0.950 . S
C1776 C1777 1.349 1_554 S
C1776 C1778 1.327 . S
C1776 H1801 0.950 . S
C1777 C1776 1.349 1_556 S
C1777 C1793 1.349 . S
C1778 C1776 1.327 . S
C1778 C1797 1.429 1_554 S
C1778 H1802 0.950 . S
C1779 C1796 1.574 . S
C1779 C1798 1.368 . S
C1779 H1803 0.949 . S
H1780 C1784 0.949 . S
C1781 C1782 1.349 1_556 S
C1781 C1783 1.327 . S
C1781 H1804 0.950 . S
C1782 C1781 1.349 1_554 S
C1782 C1794 1.349 . S
C1783 C1781 1.327 . S
C1783 C1799 1.429 1_556 S
C1783 H1805 0.950 . S
C1784 H1780 0.949 . S
C1784 C1792 1.574 . S
C1784 C1800 1.368 . S
H1785 C1793 0.950 . S
H1786 C1791 0.950 . S
H1787 C1792 0.949 . S
H1788 C1794 0.950 . S
H1789 C1795 0.950 . S
H1790 C1796 0.949 . S
C1791 H1786 0.950 . S
C1791 C1793 1.327 . S
C1791 C1797 1.429 . S
C1792 C1784 1.574 . S
C1792 H1787 0.949 . S
C1792 C1798 1.368 1_554 S
C1793 C1777 1.349 . S
C1793 H1785 0.950 . S
C1793 C1791 1.327 . S
C1794 C1782 1.349 . S
C1794 H1788 0.950 . S
C1794 C1795 1.327 . S
C1795 H1789 0.950 . S
C1795 C1794 1.327 . S
C1795 C1799 1.429 . S
C1796 C1779 1.574 . S
C1796 H1790 0.949 . S
C1796 C1800 1.368 1_556 S
C1797 C1778 1.429 1_556 S
C1797 C1791 1.429 . S
C1797 C1798 1.523 . S
C1798 C1779 1.368 . S
C1798 C1792 1.368 1_556 S
C1798 C1797 1.523 . S
C1799 C1783 1.429 1_554 S
C1799 C1795 1.429 . S
C1799 C1800 1.523 . S
C1800 C1784 1.368 . S
C1800 C1796 1.368 1_554 S
C1800 C1799 1.523 . S
H1801 C1776 0.950 . S
H1802 C1778 0.950 . S
H1803 C1779 0.949 . S
H1804 C1781 0.950 . S
H1805 C1783 0.950 . S
C1806 C1807 1.349 . S
C1806 C1808 1.327 . S
C1806 H1831 0.950 . S
C1807 C1806 1.349 . S
C1807 C1823 1.349 . S
C1808 C1806 1.327 . S
C1808 C1827 1.429 . S
C1808 H1832 0.950 . S
C1809 C1826 1.574 . S
C1809 C1828 1.368 . S
C1809 H1833 0.949 . S
H1810 C1814 0.949 . S
C1811 C1812 1.349 . S
C1811 C1813 1.327 . S
C1811 H1834 0.950 . S
C1812 C1811 1.349 . S
C1812 C1824 1.349 . S
C1813 C1811 1.327 . S
C1813 C1829 1.429 . S
C1813 H1835 0.950 . S
C1814 H1810 0.949 . S
C1814 C1822 1.574 . S
C1814 C1830 1.368 . S
H1815 C1823 0.950 . S
H1816 C1821 0.950 . S
H1817 C1822 0.949 . S
H1818 C1824 0.950 . S
H1819 C1825 0.950 . S
H1820 C1826 0.949 . S
C1821 H1816 0.950 . S
C1821 C1823 1.327 . S
C1821 C1827 1.429 . S
C1822 C1814 1.574 . S
C1822 H1817 0.949 . S
C1822 C1828 1.368 . S
C1823 C1807 1.349 . S
C1823 H1815 0.950 . S
C1823 C1821 1.327 . S
C1824 C1812 1.349 . S
C1824 H1818 0.950 . S
C1824 C1825 1.327 . S
C1825 H1819 0.950 . S
C1825 C1824 1.327 . S
C1825 C1829 1.429 . S
C1826 C1809 1.574 . S
C1826 H1820 0.949 . S
C1826 C1830 1.368 . S
C1827 C1808 1.429 . S
C1827 C1821 1.429 . S
C1827 C1828 1.523 . S
C1828 C1809 1.368 . S
C1828 C1822 1.368 . S
C1828 C1827 1.523 . S
C1829 C1813 1.429 . S
C1829 C1825 1.429 . S
C1829 C1830 1.523 . S
C1830 C1814 1.368 . S
C1830 C1826 1.368 . S
C1830 C1829 1.523 . S
H1831 C1806 0.950 . S
H1832 C1808 0.950 . S
H1833 C1809 0.949 . S
H1834 C1811 0.950 . S
H1835 C1813 0.950 . S
C1836 C1837 1.349 . S
C1836 C1838 1.327 . S
C1836 H1861 0.950 . S
C1837 C1836 1.349 . S
C1837 C1853 1.349 . S
C1838 C1836 1.327 . S
C1838 C1857 1.429 . S
C1838 H1862 0.950 . S
C1839 C1856 1.574 . S
C1839 C1858 1.368 . S
C1839 H1863 0.949 . S
H1840 C1844 0.949 . S
C1841 C1842 1.349 . S
C1841 C1843 1.327 . S
C1841 H1864 0.950 . S
C1842 C1841 1.349 . S
C1842 C1854 1.349 . S
C1843 C1841 1.327 . S
C1843 C1859 1.429 . S
C1843 H1865 0.950 . S
C1844 H1840 0.949 . S
C1844 C1852 1.574 . S
C1844 C1860 1.368 . S
H1845 C1853 0.950 . S
H1846 C1851 0.950 . S
H1847 C1852 0.949 . S
H1848 C1854 0.950 . S
H1849 C1855 0.950 . S
H1850 C1856 0.949 . S
C1851 H1846 0.950 . S
C1851 C1853 1.327 . S
C1851 C1857 1.429 . S
C1852 C1844 1.574 . S
C1852 H1847 0.949 . S
C1852 C1858 1.368 . S
C1853 C1837 1.349 . S
C1853 H1845 0.950 . S
C1853 C1851 1.327 . S
C1854 C1842 1.349 . S
C1854 H1848 0.950 . S
C1854 C1855 1.327 . S
C1855 H1849 0.950 . S
C1855 C1854 1.327 . S
C1855 C1859 1.429 . S
C1856 C1839 1.574 . S
C1856 H1850 0.949 . S
C1856 C1860 1.368 . S
C1857 C1838 1.429 . S
C1857 C1851 1.429 . S
C1857 C1858 1.523 . S
C1858 C1839 1.368 . S
C1858 C1852 1.368 . S
C1858 C1857 1.523 . S
C1859 C1843 1.429 . S
C1859 C1855 1.429 . S
C1859 C1860 1.523 . S
C1860 C1844 1.368 . S
C1860 C1856 1.368 . S
C1860 C1859 1.523 . S
H1861 C1836 0.950 . S
H1862 C1838 0.950 . S
H1863 C1839 0.949 . S
H1864 C1841 0.950 . S
H1865 C1843 0.950 . S
C1866 C1867 1.349 . S
C1866 C1868 1.327 . S
C1866 H1891 0.950 . S
C1867 C1866 1.349 . S
C1867 C1883 1.349 . S
C1868 C1866 1.327 . S
C1868 C1887 1.429 . S
C1868 H1892 0.950 . S
C1869 C1886 1.574 . S
C1869 C1888 1.368 . S
C1869 H1893 0.949 . S
H1870 C1874 0.949 . S
C1871 C1872 1.349 . S
C1871 C1873 1.327 . S
C1871 H1894 0.950 . S
C1872 C1871 1.349 . S
C1872 C1884 1.349 . S
C1873 C1871 1.327 . S
C1873 C1889 1.429 . S
C1873 H1895 0.950 . S
C1874 H1870 0.949 . S
C1874 C1882 1.574 . S
C1874 C1890 1.368 . S
H1875 C1883 0.950 . S
H1876 C1881 0.950 . S
H1877 C1882 0.949 . S
H1878 C1884 0.950 . S
H1879 C1885 0.950 . S
H1880 C1886 0.949 . S
C1881 H1876 0.950 . S
C1881 C1883 1.327 . S
C1881 C1887 1.429 . S
C1882 C1874 1.574 . S
C1882 H1877 0.949 . S
C1882 C1888 1.368 . S
C1883 C1867 1.349 . S
C1883 H1875 0.950 . S
C1883 C1881 1.327 . S
C1884 C1872 1.349 . S
C1884 H1878 0.950 . S
C1884 C1885 1.327 . S
C1885 H1879 0.950 . S
C1885 C1884 1.327 . S
C1885 C1889 1.429 . S
C1886 C1869 1.574 . S
C1886 H1880 0.949 . S
C1886 C1890 1.368 . S
C1887 C1868 1.429 . S
C1887 C1881 1.429 . S
C1887 C1888 1.523 . S
C1888 C1869 1.368 . S
C1888 C1882 1.368 . S
C1888 C1887 1.523 . S
C1889 C1873 1.429 . S
C1889 C1885 1.429 . S
C1889 C1890 1.523 . S
C1890 C1874 1.368 . S
C1890 C1886 1.368 . S
C1890 C1889 1.523 . S
H1891 C1866 0.950 . S
H1892 C1868 0.950 . S
H1893 C1869 0.949 . S
H1894 C1871 0.950 . S
H1895 C1873 0.950 . S
C1896 C1897 1.349 1_554 S
C1896 C1898 1.327 . S
C1896 H1921 0.950 . S
C1897 C1896 1.349 1_556 S
C1897 C1913 1.349 . S
C1898 C1896 1.327 . S
C1898 C1917 1.429 1_554 S
C1898 H1922 0.950 . S
C1899 C1916 1.574 . S
C1899 C1918 1.368 . S
C1899 H1923 0.949 . S
H1900 C1904 0.949 . S
C1901 C1902 1.349 1_556 S
C1901 C1903 1.327 . S
C1901 H1924 0.950 . S
C1902 C1901 1.349 1_554 S
C1902 C1914 1.349 . S
C1903 C1901 1.327 . S
C1903 C1919 1.429 1_556 S
C1903 H1925 0.950 . S
C1904 H1900 0.949 . S
C1904 C1912 1.574 . S
C1904 C1920 1.368 . S
H1905 C1913 0.950 . S
H1906 C1911 0.950 . S
H1907 C1912 0.949 . S
H1908 C1914 0.950 . S
H1909 C1915 0.950 . S
H1910 C1916 0.949 . S
C1911 H1906 0.950 . S
C1911 C1913 1.327 . S
C1911 C1917 1.429 . S
C1912 C1904 1.574 . S
C1912 H1907 0.949 . S
C1912 C1918 1.368 1_554 S
C1913 C1897 1.349 . S
C1913 H1905 0.950 . S
C1913 C1911 1.327 . S
C1914 C1902 1.349 . S
C1914 H1908 0.950 . S
C1914 C1915 1.327 . S
C1915 H1909 0.950 . S
C1915 C1914 1.327 . S
C1915 C1919 1.429 . S
C1916 C1899 1.574 . S
C1916 H1910 0.949 . S
C1916 C1920 1.368 1_556 S
C1917 C1898 1.429 1_556 S
C1917 C1911 1.429 . S
C1917 C1918 1.523 . S
C1918 C1899 1.368 . S
C1918 C1912 1.368 1_556 S
C1918 C1917 1.523 . S
C1919 C1903 1.429 1_554 S
C1919 C1915 1.429 . S
C1919 C1920 1.523 . S
C1920 C1904 1.368 . S
C1920 C1916 1.368 1_554 S
C1920 C1919 1.523 . S
H1921 C1896 0.950 . S
H1922 C1898 0.950 . S
H1923 C1899 0.949 . S
H1924 C1901 0.950 . S
H1925 C1903 0.950 . S
C1926 C1927 1.349 . S
C1926 C1928 1.327 . S
C1926 H1951 0.950 . S
C1927 C1926 1.349 . S
C1927 C1943 1.349 . S
C1928 C1926 1.327 . S
C1928 C1947 1.429 . S
C1928 H1952 0.950 . S
C1929 C1946 1.574 . S
C1929 C1948 1.368 . S
C1929 H1953 0.949 . S
H1930 C1934 0.949 . S
C1931 C1932 1.349 . S
C1931 C1933 1.327 . S
C1931 H1954 0.950 . S
C1932 C1931 1.349 . S
C1932 C1944 1.349 . S
C1933 C1931 1.327 . S
C1933 C1949 1.429 . S
C1933 H1955 0.950 . S
C1934 H1930 0.949 . S
C1934 C1942 1.574 . S
C1934 C1950 1.368 . S
H1935 C1943 0.950 . S
H1936 C1941 0.950 . S
H1937 C1942 0.949 . S
H1938 C1944 0.950 . S
H1939 C1945 0.950 . S
H1940 C1946 0.949 . S
C1941 H1936 0.950 . S
C1941 C1943 1.327 . S
C1941 C1947 1.429 . S
C1942 C1934 1.574 . S
C1942 H1937 0.949 . S
C1942 C1948 1.368 . S
C1943 C1927 1.349 . S
C1943 H1935 0.950 . S
C1943 C1941 1.327 . S
C1944 C1932 1.349 . S
C1944 H1938 0.950 . S
C1944 C1945 1.327 . S
C1945 H1939 0.950 . S
C1945 C1944 1.327 . S
C1945 C1949 1.429 . S
C1946 C1929 1.574 . S
C1946 H1940 0.949 . S
C1946 C1950 1.368 . S
C1947 C1928 1.429 . S
C1947 C1941 1.429 . S
C1947 C1948 1.523 . S
C1948 C1929 1.368 . S
C1948 C1942 1.368 . S
C1948 C1947 1.523 . S
C1949 C1933 1.429 . S
C1949 C1945 1.429 . S
C1949 C1950 1.523 . S
C1950 C1934 1.368 . S
C1950 C1946 1.368 . S
C1950 C1949 1.523 . S
H1951 C1926 0.950 . S
H1952 C1928 0.950 . S
H1953 C1929 0.949 . S
H1954 C1931 0.950 . S
H1955 C1933 0.950 . S
C1956 C1957 1.349 . S
C1956 C1958 1.327 . S
C1956 H1981 0.950 . S
C1957 C1956 1.349 . S
C1957 C1973 1.349 . S
C1958 C1956 1.327 . S
C1958 C1977 1.429 . S
C1958 H1982 0.950 . S
C1959 C1976 1.574 . S
C1959 C1978 1.368 . S
C1959 H1983 0.949 . S
H1960 C1964 0.949 . S
C1961 C1962 1.349 . S
C1961 C1963 1.327 . S
C1961 H1984 0.950 . S
C1962 C1961 1.349 . S
C1962 C1974 1.349 . S
C1963 C1961 1.327 . S
C1963 C1979 1.429 . S
C1963 H1985 0.950 . S
C1964 H1960 0.949 . S
C1964 C1972 1.574 . S
C1964 C1980 1.368 . S
H1965 C1973 0.950 . S
H1966 C1971 0.950 . S
H1967 C1972 0.949 . S
H1968 C1974 0.950 . S
H1969 C1975 0.950 . S
H1970 C1976 0.949 . S
C1971 H1966 0.950 . S
C1971 C1973 1.327 . S
C1971 C1977 1.429 . S
C1972 C1964 1.574 . S
C1972 H1967 0.949 . S
C1972 C1978 1.368 . S
C1973 C1957 1.349 . S
C1973 H1965 0.950 . S
C1973 C1971 1.327 . S
C1974 C1962 1.349 . S
C1974 H1968 0.950 . S
C1974 C1975 1.327 . S
C1975 H1969 0.950 . S
C1975 C1974 1.327 . S
C1975 C1979 1.429 . S
C1976 C1959 1.574 . S
C1976 H1970 0.949 . S
C1976 C1980 1.368 . S
C1977 C1958 1.429 . S
C1977 C1971 1.429 . S
C1977 C1978 1.523 . S
C1978 C1959 1.368 . S
C1978 C1972 1.368 . S
C1978 C1977 1.523 . S
C1979 C1963 1.429 . S
C1979 C1975 1.429 . S
C1979 C1980 1.523 . S
C1980 C1964 1.368 . S
C1980 C1976 1.368 . S
C1980 C1979 1.523 . S
H1981 C1956 0.950 . S
H1982 C1958 0.950 . S
H1983 C1959 0.949 . S
H1984 C1961 0.950 . S
H1985 C1963 0.950 . S
C1986 C1987 1.349 . S
C1986 C1988 1.327 . S
C1986 H2011 0.950 . S
C1987 C1986 1.349 . S
C1987 C2003 1.349 . S
C1988 C1986 1.327 . S
C1988 C2007 1.429 . S
C1988 H2012 0.950 . S
C1989 C2006 1.574 . S
C1989 C2008 1.368 . S
C1989 H2013 0.949 . S
H1990 C1994 0.949 . S
C1991 C1992 1.349 . S
C1991 C1993 1.327 . S
C1991 H2014 0.950 . S
C1992 C1991 1.349 . S
C1992 C2004 1.349 . S
C1993 C1991 1.327 . S
C1993 C2009 1.429 . S
C1993 H2015 0.950 . S
C1994 H1990 0.949 . S
C1994 C2002 1.574 . S
C1994 C2010 1.368 . S
H1995 C2003 0.950 . S
H1996 C2001 0.950 . S
H1997 C2002 0.949 . S
H1998 C2004 0.950 . S
H1999 C2005 0.950 . S
H2000 C2006 0.949 . S
C2001 H1996 0.950 . S
C2001 C2003 1.327 . S
C2001 C2007 1.429 . S
C2002 C1994 1.574 . S
C2002 H1997 0.949 . S
C2002 C2008 1.368 . S
C2003 C1987 1.349 . S
C2003 H1995 0.950 . S
C2003 C2001 1.327 . S
C2004 C1992 1.349 . S
C2004 H1998 0.950 . S
C2004 C2005 1.327 . S
C2005 H1999 0.950 . S
C2005 C2004 1.327 . S
C2005 C2009 1.429 . S
C2006 C1989 1.574 . S
C2006 H2000 0.949 . S
C2006 C2010 1.368 . S
C2007 C1988 1.429 . S
C2007 C2001 1.429 . S
C2007 C2008 1.523 . S
C2008 C1989 1.368 . S
C2008 C2002 1.368 . S
C2008 C2007 1.523 . S
C2009 C1993 1.429 . S
C2009 C2005 1.429 . S
C2009 C2010 1.523 . S
C2010 C1994 1.368 . S
C2010 C2006 1.368 . S
C2010 C2009 1.523 . S
H2011 C1986 0.950 . S
H2012 C1988 0.950 . S
H2013 C1989 0.949 . S
H2014 C1991 0.950 . S
H2015 C1993 0.950 . S
C2016 C2017 1.349 . S
C2016 C2018 1.327 . S
C2016 H2041 0.950 . S
C2017 C2016 1.349 . S
C2017 C2033 1.349 . S
C2018 C2016 1.327 . S
C2018 C2037 1.429 . S
C2018 H2042 0.950 . S
C2019 C2036 1.574 . S
C2019 C2038 1.368 . S
C2019 H2043 0.949 . S
H2020 C2024 0.949 . S
C2021 C2022 1.349 . S
C2021 C2023 1.327 . S
C2021 H2044 0.950 . S
C2022 C2021 1.349 . S
C2022 C2034 1.349 . S
C2023 C2021 1.327 . S
C2023 C2039 1.429 . S
C2023 H2045 0.950 . S
C2024 H2020 0.949 . S
C2024 C2032 1.574 . S
C2024 C2040 1.368 . S
H2025 C2033 0.950 . S
H2026 C2031 0.950 . S
H2027 C2032 0.949 . S
H2028 C2034 0.950 . S
H2029 C2035 0.950 . S
H2030 C2036 0.949 . S
C2031 H2026 0.950 . S
C2031 C2033 1.327 . S
C2031 C2037 1.429 . S
C2032 C2024 1.574 . S
C2032 H2027 0.949 . S
C2032 C2038 1.368 . S
C2033 C2017 1.349 . S
C2033 H2025 0.950 . S
C2033 C2031 1.327 . S
C2034 C2022 1.349 . S
C2034 H2028 0.950 . S
C2034 C2035 1.327 . S
C2035 H2029 0.950 . S
C2035 C2034 1.327 . S
C2035 C2039 1.429 . S
C2036 C2019 1.574 . S
C2036 H2030 0.949 . S
C2036 C2040 1.368 . S
C2037 C2018 1.429 . S
C2037 C2031 1.429 . S
C2037 C2038 1.523 . S
C2038 C2019 1.368 . S
C2038 C2032 1.368 . S
C2038 C2037 1.523 . S
C2039 C2023 1.429 . S
C2039 C2035 1.429 . S
C2039 C2040 1.523 . S
C2040 C2024 1.368 . S
C2040 C2036 1.368 . S
C2040 C2039 1.523 . S
H2041 C2016 0.950 . S
H2042 C2018 0.950 . S
H2043 C2019 0.949 . S
H2044 C2021 0.950 . S
H2045 C2023 0.950 . S
C2046 C2047 1.349 . S
C2046 C2048 1.327 . S
C2046 H2071 0.950 . S
C2047 C2046 1.349 . S
C2047 C2063 1.349 . S
C2048 C2046 1.327 . S
C2048 C2067 1.429 . S
C2048 H2072 0.950 . S
C2049 C2066 1.574 1_655 S
C2049 C2068 1.368 . S
C2049 H2073 0.949 . S
H2050 C2054 0.949 . S
C2051 C2052 1.349 . S
C2051 C2053 1.327 . S
C2051 H2074 0.950 . S
C2052 C2051 1.349 . S
C2052 C2064 1.349 . S
C2053 C2051 1.327 . S
C2053 C2069 1.429 . S
C2053 H2075 0.950 . S
C2054 H2050 0.949 . S
C2054 C2062 1.630 . S
C2054 C2070 1.368 . S
H2055 C2063 0.950 . S
H2056 C2061 0.950 . S
H2057 C2062 0.930 1_655 S
H2058 C2064 0.950 . S
H2059 C2065 0.950 . S
H2060 C2066 0.949 . S
C2061 H2056 0.950 . S
C2061 C2063 1.327 . S
C2061 C2067 1.429 . S
C2062 C2054 1.630 . S
C2062 H2057 0.930 1_455 S
C2062 C2068 1.329 1_455 S
C2063 C2047 1.349 . S
C2063 H2055 0.950 . S
C2063 C2061 1.327 . S
C2064 C2052 1.349 . S
C2064 H2058 0.950 . S
C2064 C2065 1.327 . S
C2065 H2059 0.950 . S
C2065 C2064 1.327 . S
C2065 C2069 1.429 . S
C2066 C2049 1.574 1_455 S
C2066 H2060 0.949 . S
C2066 C2070 1.368 . S
C2067 C2048 1.429 . S
C2067 C2061 1.429 . S
C2067 C2068 1.523 . S
C2068 C2049 1.368 . S
C2068 C2062 1.329 1_655 S
C2068 C2067 1.523 . S
C2069 C2053 1.429 . S
C2069 C2065 1.429 . S
C2069 C2070 1.523 . S
C2070 C2054 1.368 . S
C2070 C2066 1.368 . S
C2070 C2069 1.523 . S
H2071 C2046 0.950 . S
H2072 C2048 0.950 . S
H2073 C2049 0.949 . S
H2074 C2051 0.950 . S
H2075 C2053 0.950 . S
C2076 C2077 1.349 . S
C2076 C2078 1.327 . S
C2076 H2101 0.950 . S
C2077 C2076 1.349 . S
C2077 C2093 1.349 . S
C2078 C2076 1.327 . S
C2078 C2097 1.429 . S
C2078 H2102 0.950 . S
C2079 C2096 1.574 . S
C2079 C2098 1.368 . S
C2079 H2103 0.949 . S
H2080 C2084 0.949 . S
C2081 C2082 1.349 . S
C2081 C2083 1.327 . S
C2081 H2104 0.950 . S
C2082 C2081 1.349 . S
C2082 C2094 1.349 . S
C2083 C2081 1.327 . S
C2083 C2099 1.429 . S
C2083 H2105 0.950 . S
C2084 H2080 0.949 . S
C2084 C2092 1.574 . S
C2084 C2100 1.368 . S
H2085 C2093 0.950 . S
H2086 C2091 0.950 . S
H2087 C2092 0.949 . S
H2088 C2094 0.950 . S
H2089 C2095 0.950 . S
H2090 C2096 0.949 . S
C2091 H2086 0.950 . S
C2091 C2093 1.327 . S
C2091 C2097 1.429 . S
C2092 C2084 1.574 . S
C2092 H2087 0.949 . S
C2092 C2098 1.368 . S
C2093 C2077 1.349 . S
C2093 H2085 0.950 . S
C2093 C2091 1.327 . S
C2094 C2082 1.349 . S
C2094 H2088 0.950 . S
C2094 C2095 1.327 . S
C2095 H2089 0.950 . S
C2095 C2094 1.327 . S
C2095 C2099 1.429 . S
C2096 C2079 1.574 . S
C2096 H2090 0.949 . S
C2096 C2100 1.368 . S
C2097 C2078 1.429 . S
C2097 C2091 1.429 . S
C2097 C2098 1.523 . S
C2098 C2079 1.368 . S
C2098 C2092 1.368 . S
C2098 C2097 1.523 . S
C2099 C2083 1.429 . S
C2099 C2095 1.429 . S
C2099 C2100 1.523 . S
C2100 C2084 1.368 . S
C2100 C2096 1.368 . S
C2100 C2099 1.523 . S
H2101 C2076 0.950 . S
H2102 C2078 0.950 . S
H2103 C2079 0.949 . S
H2104 C2081 0.950 . S
H2105 C2083 0.950 . S
C2106 C2107 1.349 . S
C2106 C2108 1.327 . S
C2106 H2131 0.950 . S
C2107 C2106 1.349 . S
C2107 C2123 1.349 . S
C2108 C2106 1.327 . S
C2108 C2127 1.429 . S
C2108 H2132 0.950 . S
C2109 C2126 1.574 . S
C2109 C2128 1.368 . S
C2109 H2133 0.949 . S
H2110 C2114 0.949 . S
C2111 C2112 1.349 . S
C2111 C2113 1.327 . S
C2111 H2134 0.950 . S
C2112 C2111 1.349 . S
C2112 C2124 1.349 . S
C2113 C2111 1.327 . S
C2113 C2129 1.429 . S
C2113 H2135 0.950 . S
C2114 H2110 0.949 . S
C2114 C2122 1.574 . S
C2114 C2130 1.368 . S
H2115 C2123 0.950 . S
H2116 C2121 0.950 . S
H2117 C2122 0.949 . S
H2118 C2124 0.950 . S
H2119 C2125 0.950 . S
H2120 C2126 0.949 . S
C2121 H2116 0.950 . S
C2121 C2123 1.327 . S
C2121 C2127 1.429 . S
C2122 C2114 1.574 . S
C2122 H2117 0.949 . S
C2122 C2128 1.368 1_556 S
C2123 C2107 1.349 . S
C2123 H2115 0.950 . S
C2123 C2121 1.327 . S
C2124 C2112 1.349 . S
C2124 H2118 0.950 . S
C2124 C2125 1.327 . S
C2125 H2119 0.950 . S
C2125 C2124 1.327 . S
C2125 C2129 1.429 . S
C2126 C2109 1.574 . S
C2126 H2120 0.949 . S
C2126 C2130 1.368 1_554 S
C2127 C2108 1.429 . S
C2127 C2121 1.429 . S
C2127 C2128 1.523 . S
C2128 C2109 1.368 . S
C2128 C2122 1.368 1_554 S
C2128 C2127 1.523 . S
C2129 C2113 1.429 . S
C2129 C2125 1.429 . S
C2129 C2130 1.523 . S
C2130 C2114 1.368 . S
C2130 C2126 1.368 1_556 S
C2130 C2129 1.523 . S
H2131 C2106 0.950 . S
H2132 C2108 0.950 . S
H2133 C2109 0.949 . S
H2134 C2111 0.950 . S
H2135 C2113 0.950 . S
C2136 C2137 1.349 . S
C2136 C2138 1.327 . S
C2136 H2161 0.950 . S
C2137 C2136 1.349 . S
C2137 C2153 1.349 . S
C2138 C2136 1.327 . S
C2138 C2157 1.429 . S
C2138 H2162 0.950 . S
C2139 C2156 1.574 . S
C2139 C2158 1.368 . S
C2139 H2163 0.949 . S
H2140 C2144 0.949 . S
C2141 C2142 1.349 . S
C2141 C2143 1.327 . S
C2141 H2164 0.950 . S
C2142 C2141 1.349 . S
C2142 C2154 1.349 . S
C2143 C2141 1.327 . S
C2143 C2159 1.429 . S
C2143 H2165 0.950 . S
C2144 H2140 0.949 . S
C2144 C2152 1.574 . S
C2144 C2160 1.368 . S
H2145 C2153 0.950 . S
H2146 C2151 0.950 . S
H2147 C2152 0.949 . S
H2148 C2154 0.950 . S
H2149 C2155 0.950 . S
H2150 C2156 0.949 . S
C2151 H2146 0.950 . S
C2151 C2153 1.327 . S
C2151 C2157 1.429 . S
C2152 C2144 1.574 . S
C2152 H2147 0.949 . S
C2152 C2158 1.368 . S
C2153 C2137 1.349 . S
C2153 H2145 0.950 . S
C2153 C2151 1.327 . S
C2154 C2142 1.349 . S
C2154 H2148 0.950 . S
C2154 C2155 1.327 . S
C2155 H2149 0.950 . S
C2155 C2154 1.327 . S
C2155 C2159 1.429 . S
C2156 C2139 1.574 . S
C2156 H2150 0.949 . S
C2156 C2160 1.368 . S
C2157 C2138 1.429 . S
C2157 C2151 1.429 . S
C2157 C2158 1.523 . S
C2158 C2139 1.368 . S
C2158 C2152 1.368 . S
C2158 C2157 1.523 . S
C2159 C2143 1.429 . S
C2159 C2155 1.429 . S
C2159 C2160 1.523 . S
C2160 C2144 1.368 . S
C2160 C2156 1.368 . S
C2160 C2159 1.523 . S
H2161 C2136 0.950 . S
H2162 C2138 0.950 . S
H2163 C2139 0.949 . S
H2164 C2141 0.950 . S
H2165 C2143 0.950 . S
C2166 C2167 1.349 . S
C2166 C2168 1.327 . S
C2166 H2191 0.950 . S
C2167 C2166 1.349 . S
C2167 C2183 1.349 . S
C2168 C2166 1.327 . S
C2168 C2187 1.429 . S
C2168 H2192 0.950 . S
C2169 C2186 1.574 . S
C2169 C2188 1.368 . S
C2169 H2193 0.949 . S
H2170 C2174 0.949 . S
C2171 C2172 1.349 . S
C2171 C2173 1.327 . S
C2171 H2194 0.950 . S
C2172 C2171 1.349 . S
C2172 C2184 1.349 . S
C2173 C2171 1.327 . S
C2173 C2189 1.429 . S
C2173 H2195 0.950 . S
C2174 H2170 0.949 . S
C2174 C2182 1.574 . S
C2174 C2190 1.368 . S
H2175 C2183 0.950 . S
H2176 C2181 0.950 . S
H2177 C2182 0.949 . S
H2178 C2184 0.950 . S
H2179 C2185 0.950 . S
H2180 C2186 0.949 . S
C2181 H2176 0.950 . S
C2181 C2183 1.327 . S
C2181 C2187 1.429 . S
C2182 C2174 1.574 . S
C2182 H2177 0.949 . S
C2182 C2188 1.368 . S
C2183 C2167 1.349 . S
C2183 H2175 0.950 . S
C2183 C2181 1.327 . S
C2184 C2172 1.349 . S
C2184 H2178 0.950 . S
C2184 C2185 1.327 . S
C2185 H2179 0.950 . S
C2185 C2184 1.327 . S
C2185 C2189 1.429 . S
C2186 C2169 1.574 . S
C2186 H2180 0.949 . S
C2186 C2190 1.368 . S
C2187 C2168 1.429 . S
C2187 C2181 1.429 . S
C2187 C2188 1.523 . S
C2188 C2169 1.368 . S
C2188 C2182 1.368 . S
C2188 C2187 1.523 . S
C2189 C2173 1.429 . S
C2189 C2185 1.429 . S
C2189 C2190 1.523 . S
C2190 C2174 1.368 . S
C2190 C2186 1.368 . S
C2190 C2189 1.523 . S
H2191 C2166 0.950 . S
H2192 C2168 0.950 . S
H2193 C2169 0.949 . S
H2194 C2171 0.950 . S
H2195 C2173 0.950 . S
C2196 C2197 1.349 . S
C2196 C2198 1.327 . S
C2196 H2221 0.950 . S
C2197 C2196 1.349 . S
C2197 C2213 1.349 . S
C2198 C2196 1.327 . S
C2198 C2217 1.429 . S
C2198 H2222 0.950 . S
C2199 C2216 1.574 . S
C2199 C2218 1.368 . S
C2199 H2223 0.949 . S
H2200 C2204 0.949 . S
C2201 C2202 1.349 . S
C2201 C2203 1.327 . S
C2201 H2224 0.950 . S
C2202 C2201 1.349 . S
C2202 C2214 1.349 . S
C2203 C2201 1.327 . S
C2203 C2219 1.429 . S
C2203 H2225 0.950 . S
C2204 H2200 0.949 . S
C2204 C2212 1.574 . S
C2204 C2220 1.368 . S
H2205 C2213 0.950 . S
H2206 C2211 0.950 . S
H2207 C2212 0.949 . S
H2208 C2214 0.950 . S
H2209 C2215 0.950 . S
H2210 C2216 0.949 . S
C2211 H2206 0.950 . S
C2211 C2213 1.327 . S
C2211 C2217 1.429 . S
C2212 C2204 1.574 . S
C2212 H2207 0.949 . S
C2212 C2218 1.368 . S
C2213 C2197 1.349 . S
C2213 H2205 0.950 . S
C2213 C2211 1.327 . S
C2214 C2202 1.349 . S
C2214 H2208 0.950 . S
C2214 C2215 1.327 . S
C2215 H2209 0.950 . S
C2215 C2214 1.327 . S
C2215 C2219 1.429 . S
C2216 C2199 1.574 . S
C2216 H2210 0.949 . S
C2216 C2220 1.368 . S
C2217 C2198 1.429 . S
C2217 C2211 1.429 . S
C2217 C2218 1.523 . S
C2218 C2199 1.368 . S
C2218 C2212 1.368 . S
C2218 C2217 1.523 . S
C2219 C2203 1.429 . S
C2219 C2215 1.429 . S
C2219 C2220 1.523 . S
C2220 C2204 1.368 . S
C2220 C2216 1.368 . S
C2220 C2219 1.523 . S
H2221 C2196 0.950 . S
H2222 C2198 0.950 . S
H2223 C2199 0.949 . S
H2224 C2201 0.950 . S
H2225 C2203 0.950 . S
C2226 C2227 1.349 . S
C2226 C2228 1.327 . S
C2226 H2251 0.950 . S
C2227 C2226 1.349 . S
C2227 C2243 1.349 . S
C2228 C2226 1.327 . S
C2228 C2247 1.429 . S
C2228 H2252 0.950 . S
C2229 C2246 1.574 . S
C2229 C2248 1.368 1_554 S
C2229 H2253 0.949 . S
H2230 C2234 0.951 . S
C2231 C2232 1.349 . S
C2231 C2233 1.327 . S
C2231 H2254 0.950 . S
C2232 C2231 1.349 . S
C2232 C2244 1.349 . S
C2233 C2231 1.327 . S
C2233 C2249 1.429 . S
C2233 H2255 0.950 . S
C2234 H2230 0.951 . S
C2234 C2242 1.574 1_654 S
C2234 C2250 1.368 . S
H2235 C2243 0.950 . S
H2236 C2241 0.950 . S
H2237 C2242 0.949 . S
H2238 C2244 0.950 . S
H2239 C2245 0.950 . S
H2240 C2246 0.949 . S
C2241 H2236 0.950 . S
C2241 C2243 1.327 . S
C2241 C2247 1.429 . S
C2242 C2234 1.574 1_456 S
C2242 H2237 0.949 . S
C2242 C2248 1.368 . S
C2243 C2227 1.349 . S
C2243 H2235 0.950 . S
C2243 C2241 1.327 . S
C2244 C2232 1.349 . S
C2244 H2238 0.950 . S
C2244 C2245 1.327 . S
C2245 H2239 0.950 . S
C2245 C2244 1.327 . S
C2245 C2249 1.429 . S
C2246 C2229 1.574 . S
C2246 H2240 0.949 . S
C2246 C2250 1.368 1_455 S
C2247 C2228 1.429 . S
C2247 C2241 1.429 . S
C2247 C2248 1.523 . S
C2248 C2229 1.368 1_556 S
C2248 C2242 1.368 . S
C2248 C2247 1.523 . S
C2249 C2233 1.429 . S
C2249 C2245 1.429 . S
C2249 C2250 1.523 . S
C2250 C2234 1.368 . S
C2250 C2246 1.368 1_655 S
C2250 C2249 1.523 . S
H2251 C2226 0.950 . S
H2252 C2228 0.950 . S
H2253 C2229 0.949 . S
H2254 C2231 0.950 . S
H2255 C2233 0.950 . S
C2256 C2257 1.349 . S
C2256 C2258 1.327 . S
C2256 H2281 0.950 . S
C2257 C2256 1.349 . S
C2257 C2273 1.349 . S
C2258 C2256 1.327 . S
C2258 C2277 1.429 . S
C2258 H2282 0.950 . S
C2259 C2276 1.574 . S
C2259 C2278 1.368 . S
C2259 H2283 0.949 . S
H2260 C2264 0.949 . S
C2261 C2262 1.349 . S
C2261 C2263 1.327 . S
C2261 H2284 0.950 . S
C2262 C2261 1.349 . S
C2262 C2274 1.349 . S
C2263 C2261 1.327 . S
C2263 C2279 1.429 . S
C2263 H2285 0.950 . S
C2264 H2260 0.949 . S
C2264 C2272 1.574 . S
C2264 C2280 1.368 . S
H2265 C2273 0.950 . S
H2266 C2271 0.950 . S
H2267 C2272 0.949 . S
H2268 C2274 0.950 . S
H2269 C2275 0.950 . S
H2270 C2276 0.949 . S
C2271 H2266 0.950 . S
C2271 C2273 1.327 . S
C2271 C2277 1.429 . S
C2272 C2264 1.574 . S
C2272 H2267 0.949 . S
C2272 C2278 1.368 . S
C2273 C2257 1.349 . S
C2273 H2265 0.950 . S
C2273 C2271 1.327 . S
C2274 C2262 1.349 . S
C2274 H2268 0.950 . S
C2274 C2275 1.327 . S
C2275 H2269 0.950 . S
C2275 C2274 1.327 . S
C2275 C2279 1.429 . S
C2276 C2259 1.574 . S
C2276 H2270 0.949 . S
C2276 C2280 1.368 . S
C2277 C2258 1.429 . S
C2277 C2271 1.429 . S
C2277 C2278 1.523 . S
C2278 C2259 1.368 . S
C2278 C2272 1.368 . S
C2278 C2277 1.523 . S
C2279 C2263 1.429 . S
C2279 C2275 1.429 . S
C2279 C2280 1.523 . S
C2280 C2264 1.368 . S
C2280 C2276 1.368 . S
C2280 C2279 1.523 . S
H2281 C2256 0.950 . S
H2282 C2258 0.950 . S
H2283 C2259 0.949 . S
H2284 C2261 0.950 . S
H2285 C2263 0.950 . S
C2286 C2287 1.349 . S
C2286 C2288 1.327 . S
C2286 H2311 0.950 . S
C2287 C2286 1.349 . S
C2287 C2303 1.349 . S
C2288 C2286 1.327 . S
C2288 C2307 1.429 . S
C2288 H2312 0.950 . S
C2289 C2306 1.574 1_455 S
C2289 C2308 1.368 . S
C2289 H2313 0.949 . S
H2290 C2294 0.949 . S
C2291 C2292 1.349 . S
C2291 C2293 1.327 . S
C2291 H2314 0.950 . S
C2292 C2291 1.349 . S
C2292 C2304 1.349 . S
C2293 C2291 1.327 . S
C2293 C2309 1.429 . S
C2293 H2315 0.950 . S
C2294 H2290 0.949 . S
C2294 C2302 1.574 . S
C2294 C2310 1.368 . S
H2295 C2303 0.950 . S
H2296 C2301 0.950 . S
H2297 C2302 0.951 . S
H2298 C2304 0.950 . S
H2299 C2305 0.950 . S
H2300 C2306 0.949 . S
C2301 H2296 0.950 . S
C2301 C2303 1.327 . S
C2301 C2307 1.429 . S
C2302 C2294 1.574 . S
C2302 H2297 0.951 . S
C2302 C2308 1.368 1_655 S
C2303 C2287 1.349 . S
C2303 H2295 0.950 . S
C2303 C2301 1.327 . S
C2304 C2292 1.349 . S
C2304 H2298 0.950 . S
C2304 C2305 1.327 . S
C2305 H2299 0.950 . S
C2305 C2304 1.327 . S
C2305 C2309 1.429 . S
C2306 C2289 1.574 1_655 S
C2306 H2300 0.949 . S
C2306 C2310 1.368 . S
C2307 C2288 1.429 . S
C2307 C2301 1.429 . S
C2307 C2308 1.523 . S
C2308 C2289 1.368 . S
C2308 C2302 1.368 1_455 S
C2308 C2307 1.523 . S
C2309 C2293 1.429 . S
C2309 C2305 1.429 . S
C2309 C2310 1.523 . S
C2310 C2294 1.368 . S
C2310 C2306 1.368 . S
C2310 C2309 1.523 . S
H2311 C2286 0.950 . S
H2312 C2288 0.950 . S
H2313 C2289 0.949 . S
H2314 C2291 0.950 . S
H2315 C2293 0.950 . S
C2316 C2317 1.349 . S
C2316 C2318 1.327 . S
C2316 H2341 0.950 . S
C2317 C2316 1.349 . S
C2317 C2333 1.349 . S
C2318 C2316 1.327 . S
C2318 C2337 1.429 . S
C2318 H2342 0.950 . S
C2319 C2336 1.574 . S
C2319 C2338 1.368 . S
C2319 H2343 0.949 . S
H2320 C2324 0.949 . S
C2321 C2322 1.349 . S
C2321 C2323 1.327 . S
C2321 H2344 0.950 . S
C2322 C2321 1.349 . S
C2322 C2334 1.349 . S
C2323 C2321 1.327 . S
C2323 C2339 1.429 . S
C2323 H2345 0.950 . S
C2324 H2320 0.949 . S
C2324 C2332 1.574 . S
C2324 C2340 1.368 . S
H2325 C2333 0.950 . S
H2326 C2331 0.950 . S
H2327 C2332 0.949 . S
H2328 C2334 0.950 . S
H2329 C2335 0.950 . S
H2330 C2336 0.949 . S
C2331 H2326 0.950 . S
C2331 C2333 1.327 . S
C2331 C2337 1.429 . S
C2332 C2324 1.574 . S
C2332 H2327 0.949 . S
C2332 C2338 1.368 . S
C2333 C2317 1.349 . S
C2333 H2325 0.950 . S
C2333 C2331 1.327 . S
C2334 C2322 1.349 . S
C2334 H2328 0.950 . S
C2334 C2335 1.327 . S
C2335 H2329 0.950 . S
C2335 C2334 1.327 . S
C2335 C2339 1.429 . S
C2336 C2319 1.574 . S
C2336 H2330 0.949 . S
C2336 C2340 1.368 . S
C2337 C2318 1.429 . S
C2337 C2331 1.429 . S
C2337 C2338 1.523 . S
C2338 C2319 1.368 . S
C2338 C2332 1.368 . S
C2338 C2337 1.523 . S
C2339 C2323 1.429 . S
C2339 C2335 1.429 . S
C2339 C2340 1.523 . S
C2340 C2324 1.368 . S
C2340 C2336 1.368 . S
C2340 C2339 1.523 . S
H2341 C2316 0.950 . S
H2342 C2318 0.950 . S
H2343 C2319 0.949 . S
H2344 C2321 0.950 . S
H2345 C2323 0.950 . S
C2346 C2347 1.349 . S
C2346 C2348 1.327 . S
C2346 H2371 0.950 . S
C2347 C2346 1.349 . S
C2347 C2363 1.349 . S
C2348 C2346 1.327 . S
C2348 C2367 1.429 . S
C2348 H2372 0.950 . S
C2349 C2366 1.574 1_554 S
C2349 C2368 1.368 . S
C2349 H2373 0.949 . S
H2350 C2354 0.949 . S
C2351 C2352 1.349 . S
C2351 C2353 1.327 . S
C2351 H2374 0.950 . S
C2352 C2351 1.349 . S
C2352 C2364 1.349 . S
C2353 C2351 1.327 . S
C2353 C2369 1.429 . S
C2353 H2375 0.950 . S
C2354 H2350 0.949 . S
C2354 C2362 1.574 . S
C2354 C2370 1.368 1_554 S
H2355 C2363 0.950 . S
H2356 C2361 0.950 . S
H2357 C2362 0.949 . S
H2358 C2364 0.950 . S
H2359 C2365 0.950 . S
H2360 C2366 0.949 . S
C2361 H2356 0.950 . S
C2361 C2363 1.327 . S
C2361 C2367 1.429 . S
C2362 C2354 1.574 . S
C2362 H2357 0.949 . S
C2362 C2368 1.368 . S
C2363 C2347 1.349 . S
C2363 H2355 0.950 . S
C2363 C2361 1.327 . S
C2364 C2352 1.349 . S
C2364 H2358 0.950 . S
C2364 C2365 1.327 . S
C2365 H2359 0.950 . S
C2365 C2364 1.327 . S
C2365 C2369 1.429 . S
C2366 C2349 1.574 1_556 S
C2366 H2360 0.949 . S
C2366 C2370 1.368 . S
C2367 C2348 1.429 . S
C2367 C2361 1.429 . S
C2367 C2368 1.523 . S
C2368 C2349 1.368 . S
C2368 C2362 1.368 . S
C2368 C2367 1.523 . S
C2369 C2353 1.429 . S
C2369 C2365 1.429 . S
C2369 C2370 1.523 . S
C2370 C2354 1.368 1_556 S
C2370 C2366 1.368 . S
C2370 C2369 1.523 . S
H2371 C2346 0.950 . S
H2372 C2348 0.950 . S
H2373 C2349 0.949 . S
H2374 C2351 0.950 . S
H2375 C2353 0.950 . S
C2376 C2377 1.349 . S
C2376 C2378 1.327 . S
C2376 H2401 0.950 . S
C2377 C2376 1.349 . S
C2377 C2393 1.349 . S
C2378 C2376 1.327 . S
C2378 C2397 1.429 . S
C2378 H2402 0.950 . S
C2379 C2396 1.574 . S
C2379 C2398 1.368 . S
C2379 H2403 0.949 . S
H2380 C2384 0.949 . S
C2381 C2382 1.349 . S
C2381 C2383 1.327 . S
C2381 H2404 0.950 . S
C2382 C2381 1.349 . S
C2382 C2394 1.349 . S
C2383 C2381 1.327 . S
C2383 C2399 1.429 . S
C2383 H2405 0.950 . S
C2384 H2380 0.949 . S
C2384 C2392 1.574 . S
C2384 C2400 1.368 . S
H2385 C2393 0.950 . S
H2386 C2391 0.950 . S
H2387 C2392 0.949 . S
H2388 C2394 0.950 . S
H2389 C2395 0.950 . S
H2390 C2396 0.949 . S
C2391 H2386 0.950 . S
C2391 C2393 1.327 . S
C2391 C2397 1.429 . S
C2392 C2384 1.574 . S
C2392 H2387 0.949 . S
C2392 C2398 1.368 . S
C2393 C2377 1.349 . S
C2393 H2385 0.950 . S
C2393 C2391 1.327 . S
C2394 C2382 1.349 . S
C2394 H2388 0.950 . S
C2394 C2395 1.327 . S
C2395 H2389 0.950 . S
C2395 C2394 1.327 . S
C2395 C2399 1.429 . S
C2396 C2379 1.574 . S
C2396 H2390 0.949 . S
C2396 C2400 1.368 . S
C2397 C2378 1.429 . S
C2397 C2391 1.429 . S
C2397 C2398 1.523 . S
C2398 C2379 1.368 . S
C2398 C2392 1.368 . S
C2398 C2397 1.523 . S
C2399 C2383 1.429 . S
C2399 C2395 1.429 . S
C2399 C2400 1.523 . S
C2400 C2384 1.368 . S
C2400 C2396 1.368 . S
C2400 C2399 1.523 . S
H2401 C2376 0.950 . S
H2402 C2378 0.950 . S
H2403 C2379 0.949 . S
H2404 C2381 0.950 . S
H2405 C2383 0.950 . S
C2406 C2407 1.349 . S
C2406 C2408 1.327 . S
C2406 H2431 0.950 . S
C2407 C2406 1.349 . S
C2407 C2423 1.349 . S
C2408 C2406 1.327 . S
C2408 C2427 1.429 . S
C2408 H2432 0.950 . S
C2409 C2426 1.574 . S
C2409 C2428 1.368 . S
C2409 H2433 0.949 . S
H2410 C2414 0.949 . S
C2411 C2412 1.349 . S
C2411 C2413 1.327 . S
C2411 H2434 0.950 . S
C2412 C2411 1.349 . S
C2412 C2424 1.349 . S
C2413 C2411 1.327 . S
C2413 C2429 1.429 . S
C2413 H2435 0.950 . S
C2414 H2410 0.949 . S
C2414 C2422 1.574 . S
C2414 C2430 1.368 . S
H2415 C2423 0.950 . S
H2416 C2421 0.950 . S
H2417 C2422 0.949 . S
H2418 C2424 0.950 . S
H2419 C2425 0.950 . S
H2420 C2426 0.949 . S
C2421 H2416 0.950 . S
C2421 C2423 1.327 . S
C2421 C2427 1.429 . S
C2422 C2414 1.574 . S
C2422 H2417 0.949 . S
C2422 C2428 1.368 . S
C2423 C2407 1.349 . S
C2423 H2415 0.950 . S
C2423 C2421 1.327 . S
C2424 C2412 1.349 . S
C2424 H2418 0.950 . S
C2424 C2425 1.327 . S
C2425 H2419 0.950 . S
C2425 C2424 1.327 . S
C2425 C2429 1.429 . S
C2426 C2409 1.574 . S
C2426 H2420 0.949 . S
C2426 C2430 1.368 . S
C2427 C2408 1.429 . S
C2427 C2421 1.429 . S
C2427 C2428 1.523 . S
C2428 C2409 1.368 . S
C2428 C2422 1.368 . S
C2428 C2427 1.523 . S
C2429 C2413 1.429 . S
C2429 C2425 1.429 . S
C2429 C2430 1.523 . S
C2430 C2414 1.368 . S
C2430 C2426 1.368 . S
C2430 C2429 1.523 . S
H2431 C2406 0.950 . S
H2432 C2408 0.950 . S
H2433 C2409 0.949 . S
H2434 C2411 0.950 . S
H2435 C2413 0.950 . S
C2436 C2437 1.349 . S
C2436 C2438 1.327 . S
C2436 H2461 0.950 . S
C2437 C2436 1.349 . S
C2437 C2453 1.349 . S
C2438 C2436 1.327 . S
C2438 C2457 1.429 . S
C2438 H2462 0.950 . S
C2439 C2456 1.574 . S
C2439 C2458 1.368 . S
C2439 H2463 0.949 . S
H2440 C2444 0.949 . S
C2441 C2442 1.349 . S
C2441 C2443 1.327 . S
C2441 H2464 0.950 . S
C2442 C2441 1.349 . S
C2442 C2454 1.349 . S
C2443 C2441 1.327 . S
C2443 C2459 1.429 . S
C2443 H2465 0.950 . S
C2444 H2440 0.949 . S
C2444 C2452 1.574 . S
C2444 C2460 1.368 . S
H2445 C2453 0.950 . S
H2446 C2451 0.950 . S
H2447 C2452 0.949 . S
H2448 C2454 0.950 . S
H2449 C2455 0.950 . S
H2450 C2456 0.949 . S
C2451 H2446 0.950 . S
C2451 C2453 1.327 . S
C2451 C2457 1.429 . S
C2452 C2444 1.574 . S
C2452 H2447 0.949 . S
C2452 C2458 1.368 . S
C2453 C2437 1.349 . S
C2453 H2445 0.950 . S
C2453 C2451 1.327 . S
C2454 C2442 1.349 . S
C2454 H2448 0.950 . S
C2454 C2455 1.327 . S
C2455 H2449 0.950 . S
C2455 C2454 1.327 . S
C2455 C2459 1.429 . S
C2456 C2439 1.574 . S
C2456 H2450 0.949 . S
C2456 C2460 1.368 . S
C2457 C2438 1.429 . S
C2457 C2451 1.429 . S
C2457 C2458 1.523 . S
C2458 C2439 1.368 . S
C2458 C2452 1.368 . S
C2458 C2457 1.523 . S
C2459 C2443 1.429 . S
C2459 C2455 1.429 . S
C2459 C2460 1.523 . S
C2460 C2444 1.368 . S
C2460 C2456 1.368 . S
C2460 C2459 1.523 . S
H2461 C2436 0.950 . S
H2462 C2438 0.950 . S
H2463 C2439 0.949 . S
H2464 C2441 0.950 . S
H2465 C2443 0.950 . S
C2466 C2467 1.349 . S
C2466 C2468 1.327 . S
C2466 H2491 0.950 . S
C2467 C2466 1.349 . S
C2467 C2483 1.349 . S
C2468 C2466 1.327 . S
C2468 C2487 1.429 . S
C2468 H2492 0.950 . S
C2469 C2486 1.574 1_456 S
C2469 C2488 1.368 . S
C2469 H2493 0.949 1_556 S
H2470 C2474 0.949 . S
C2471 C2472 1.349 . S
C2471 C2473 1.327 . S
C2471 H2494 0.950 . S
C2472 C2471 1.349 . S
C2472 C2484 1.349 . S
C2473 C2471 1.327 . S
C2473 C2489 1.429 . S
C2473 H2495 0.950 . S
C2474 H2470 0.949 . S
C2474 C2482 1.574 . S
C2474 C2490 1.368 1_556 S
H2475 C2483 0.950 . S
H2476 C2481 0.950 . S
H2477 C2482 0.949 . S
H2478 C2484 0.950 . S
H2479 C2485 0.950 . S
H2480 C2486 0.949 . S
C2481 H2476 0.950 . S
C2481 C2483 1.327 . S
C2481 C2487 1.429 . S
C2482 C2474 1.574 . S
C2482 H2477 0.949 . S
C2482 C2488 1.368 1_655 S
C2483 C2467 1.349 . S
C2483 H2475 0.950 . S
C2483 C2481 1.327 . S
C2484 C2472 1.349 . S
C2484 H2478 0.950 . S
C2484 C2485 1.327 . S
C2485 H2479 0.950 . S
C2485 C2484 1.327 . S
C2485 C2489 1.429 . S
C2486 C2469 1.574 1_654 S
C2486 H2480 0.949 . S
C2486 C2490 1.368 . S
C2487 C2468 1.429 . S
C2487 C2481 1.429 . S
C2487 C2488 1.523 . S
C2488 C2469 1.368 . S
C2488 C2482 1.368 1_455 S
C2488 C2487 1.523 . S
C2489 C2473 1.429 . S
C2489 C2485 1.429 . S
C2489 C2490 1.523 . S
C2490 C2474 1.368 1_554 S
C2490 C2486 1.368 . S
C2490 C2489 1.523 . S
H2491 C2466 0.950 . S
H2492 C2468 0.950 . S
H2493 C2469 0.949 1_554 S
H2494 C2471 0.950 . S
H2495 C2473 0.950 . S
C2496 C2497 1.349 . S
C2496 C2498 1.327 . S
C2496 H2521 0.950 . S
C2497 C2496 1.349 . S
C2497 C2513 1.349 . S
C2498 C2496 1.327 . S
C2498 C2517 1.429 . S
C2498 H2522 0.950 . S
C2499 C2516 1.574 . S
C2499 C2518 1.368 . S
C2499 H2523 0.949 . S
H2500 C2504 0.949 . S
C2501 C2502 1.349 . S
C2501 C2503 1.327 . S
C2501 H2524 0.950 . S
C2502 C2501 1.349 . S
C2502 C2514 1.349 . S
C2503 C2501 1.327 . S
C2503 C2519 1.429 . S
C2503 H2525 0.950 . S
C2504 H2500 0.949 . S
C2504 C2512 1.574 . S
C2504 C2520 1.368 . S
H2505 C2513 0.950 . S
H2506 C2511 0.950 . S
H2507 C2512 0.949 . S
H2508 C2514 0.950 . S
H2509 C2515 0.950 . S
H2510 C2516 0.949 . S
C2511 H2506 0.950 . S
C2511 C2513 1.327 . S
C2511 C2517 1.429 . S
C2512 C2504 1.574 . S
C2512 H2507 0.949 . S
C2512 C2518 1.368 . S
C2513 C2497 1.349 . S
C2513 H2505 0.950 . S
C2513 C2511 1.327 . S
C2514 C2502 1.349 . S
C2514 H2508 0.950 . S
C2514 C2515 1.327 . S
C2515 H2509 0.950 . S
C2515 C2514 1.327 . S
C2515 C2519 1.429 . S
C2516 C2499 1.574 . S
C2516 H2510 0.949 . S
C2516 C2520 1.368 . S
C2517 C2498 1.429 . S
C2517 C2511 1.429 . S
C2517 C2518 1.523 . S
C2518 C2499 1.368 . S
C2518 C2512 1.368 . S
C2518 C2517 1.523 . S
C2519 C2503 1.429 . S
C2519 C2515 1.429 . S
C2519 C2520 1.523 . S
C2520 C2504 1.368 . S
C2520 C2516 1.368 . S
C2520 C2519 1.523 . S
H2521 C2496 0.950 . S
H2522 C2498 0.950 . S
H2523 C2499 0.949 . S
H2524 C2501 0.950 . S
H2525 C2503 0.950 . S
C2526 C2527 1.349 . S
C2526 C2528 1.327 . S
C2526 H2551 0.950 . S
C2527 C2526 1.349 . S
C2527 C2543 1.349 . S
C2528 C2526 1.327 . S
C2528 C2547 1.429 . S
C2528 H2552 0.950 . S
C2529 C2546 1.574 . S
C2529 C2548 1.368 1_556 S
C2529 H2553 0.949 . S
H2530 C2534 0.949 . S
C2531 C2532 1.349 . S
C2531 C2533 1.327 . S
C2531 H2554 0.950 . S
C2532 C2531 1.349 . S
C2532 C2544 1.349 . S
C2533 C2531 1.327 . S
C2533 C2549 1.429 . S
C2533 H2555 0.950 . S
C2534 H2530 0.949 . S
C2534 C2542 1.574 1_556 S
C2534 C2550 1.368 . S
H2535 C2543 0.950 . S
H2536 C2541 0.950 . S
H2537 C2542 0.949 . S
H2538 C2544 0.950 . S
H2539 C2545 0.950 . S
H2540 C2546 0.949 . S
C2541 H2536 0.950 . S
C2541 C2543 1.327 . S
C2541 C2547 1.429 . S
C2542 C2534 1.574 1_554 S
C2542 H2537 0.949 . S
C2542 C2548 1.368 . S
C2543 C2527 1.349 . S
C2543 H2535 0.950 . S
C2543 C2541 1.327 . S
C2544 C2532 1.349 . S
C2544 H2538 0.950 . S
C2544 C2545 1.327 . S
C2545 H2539 0.950 . S
C2545 C2544 1.327 . S
C2545 C2549 1.429 . S
C2546 C2529 1.574 . S
C2546 H2540 0.949 . S
C2546 C2550 1.368 . S
C2547 C2528 1.429 . S
C2547 C2541 1.429 . S
C2547 C2548 1.523 . S
C2548 C2529 1.368 1_554 S
C2548 C2542 1.368 . S
C2548 C2547 1.523 . S
C2549 C2533 1.429 . S
C2549 C2545 1.429 . S
C2549 C2550 1.523 . S
C2550 C2534 1.368 . S
C2550 C2546 1.368 . S
C2550 C2549 1.523 . S
H2551 C2526 0.950 . S
H2552 C2528 0.950 . S
H2553 C2529 0.949 . S
H2554 C2531 0.950 . S
H2555 C2533 0.950 . S
C2556 C2557 1.349 . S
C2556 C2558 1.327 . S
C2556 H2581 0.950 . S
C2557 C2556 1.349 . S
C2557 C2573 1.349 . S
C2558 C2556 1.327 . S
C2558 C2577 1.429 . S
C2558 H2582 0.950 . S
C2559 C2576 1.574 . S
C2559 C2578 1.368 . S
C2559 H2583 0.949 . S
H2560 C2564 0.949 . S
C2561 C2562 1.349 . S
C2561 C2563 1.327 . S
C2561 H2584 0.950 . S
C2562 C2561 1.349 . S
C2562 C2574 1.349 . S
C2563 C2561 1.327 . S
C2563 C2579 1.429 . S
C2563 H2585 0.950 . S
C2564 H2560 0.949 . S
C2564 C2572 1.574 . S
C2564 C2580 1.368 . S
H2565 C2573 0.950 . S
H2566 C2571 0.950 . S
H2567 C2572 0.949 . S
H2568 C2574 0.950 . S
H2569 C2575 0.950 . S
H2570 C2576 0.949 . S
C2571 H2566 0.950 . S
C2571 C2573 1.327 . S
C2571 C2577 1.429 . S
C2572 C2564 1.574 . S
C2572 H2567 0.949 . S
C2572 C2578 1.368 . S
C2573 C2557 1.349 . S
C2573 H2565 0.950 . S
C2573 C2571 1.327 . S
C2574 C2562 1.349 . S
C2574 H2568 0.950 . S
C2574 C2575 1.327 . S
C2575 H2569 0.950 . S
C2575 C2574 1.327 . S
C2575 C2579 1.429 . S
C2576 C2559 1.574 . S
C2576 H2570 0.949 . S
C2576 C2580 1.368 . S
C2577 C2558 1.429 . S
C2577 C2571 1.429 . S
C2577 C2578 1.523 . S
C2578 C2559 1.368 . S
C2578 C2572 1.368 . S
C2578 C2577 1.523 . S
C2579 C2563 1.429 . S
C2579 C2575 1.429 . S
C2579 C2580 1.523 . S
C2580 C2564 1.368 . S
C2580 C2576 1.368 . S
C2580 C2579 1.523 . S
H2581 C2556 0.950 . S
H2582 C2558 0.950 . S
H2583 C2559 0.949 . S
H2584 C2561 0.950 . S
H2585 C2563 0.950 . S
C2586 C2587 1.349 . S
C2586 C2588 1.327 . S
C2586 H2611 0.950 . S
C2587 C2586 1.349 . S
C2587 C2603 1.349 . S
C2588 C2586 1.327 . S
C2588 C2607 1.429 . S
C2588 H2612 0.950 . S
C2589 C2606 1.574 1_655 S
C2589 C2608 1.368 . S
C2589 H2613 0.949 . S
H2590 C2594 0.948 . S
C2591 C2592 1.349 . S
C2591 C2593 1.327 . S
C2591 H2614 0.950 . S
C2592 C2591 1.349 . S
C2592 C2604 1.349 . S
C2593 C2591 1.327 . S
C2593 C2609 1.429 . S
C2593 H2615 0.950 . S
C2594 H2590 0.948 . S
C2594 C2602 1.576 1_455 S
C2594 C2610 1.367 . S
H2595 C2603 0.950 . S
H2596 C2601 0.950 . S
H2597 C2602 0.949 . S
H2598 C2604 0.950 . S
H2599 C2605 0.950 . S
H2600 C2606 0.949 . S
C2601 H2596 0.950 . S
C2601 C2603 1.327 . S
C2601 C2607 1.429 . S
C2602 C2594 1.576 1_655 S
C2602 H2597 0.949 . S
C2602 C2608 1.368 . S
C2603 C2587 1.349 . S
C2603 H2595 0.950 . S
C2603 C2601 1.327 . S
C2604 C2592 1.349 . S
C2604 H2598 0.950 . S
C2604 C2605 1.327 . S
C2605 H2599 0.950 . S
C2605 C2604 1.327 . S
C2605 C2609 1.429 . S
C2606 C2589 1.574 1_455 S
C2606 H2600 0.949 . S
C2606 C2610 1.368 . S
C2607 C2588 1.429 . S
C2607 C2601 1.429 . S
C2607 C2608 1.523 . S
C2608 C2589 1.368 . S
C2608 C2602 1.368 . S
C2608 C2607 1.523 . S
C2609 C2593 1.429 . S
C2609 C2605 1.429 . S
C2609 C2610 1.523 . S
C2610 C2594 1.367 . S
C2610 C2606 1.368 . S
C2610 C2609 1.523 . S
H2611 C2586 0.950 . S
H2612 C2588 0.950 . S
H2613 C2589 0.949 . S
H2614 C2591 0.950 . S
H2615 C2593 0.950 . S
C2616 C2617 1.349 . S
C2616 C2618 1.327 . S
C2616 H2641 0.950 . S
C2617 C2616 1.349 . S
C2617 C2633 1.349 . S
C2618 C2616 1.327 . S
C2618 C2637 1.429 . S
C2618 H2642 0.950 . S
C2619 C2636 1.574 . S
C2619 C2638 1.368 . S
C2619 H2643 0.949 . S
H2620 C2624 0.949 . S
C2621 C2622 1.349 . S
C2621 C2623 1.327 . S
C2621 H2644 0.950 . S
C2622 C2621 1.349 . S
C2622 C2634 1.349 . S
C2623 C2621 1.327 . S
C2623 C2639 1.429 . S
C2623 H2645 0.950 . S
C2624 H2620 0.949 . S
C2624 C2632 1.574 . S
C2624 C2640 1.368 . S
H2625 C2633 0.950 . S
H2626 C2631 0.950 . S
H2627 C2632 0.949 . S
H2628 C2634 0.950 . S
H2629 C2635 0.950 . S
H2630 C2636 0.949 . S
C2631 H2626 0.950 . S
C2631 C2633 1.327 . S
C2631 C2637 1.429 . S
C2632 C2624 1.574 . S
C2632 H2627 0.949 . S
C2632 C2638 1.368 . S
C2633 C2617 1.349 . S
C2633 H2625 0.950 . S
C2633 C2631 1.327 . S
C2634 C2622 1.349 . S
C2634 H2628 0.950 . S
C2634 C2635 1.327 . S
C2635 H2629 0.950 . S
C2635 C2634 1.327 . S
C2635 C2639 1.429 . S
C2636 C2619 1.574 . S
C2636 H2630 0.949 . S
C2636 C2640 1.368 . S
C2637 C2618 1.429 . S
C2637 C2631 1.429 . S
C2637 C2638 1.523 . S
C2638 C2619 1.368 . S
C2638 C2632 1.368 . S
C2638 C2637 1.523 . S
C2639 C2623 1.429 . S
C2639 C2635 1.429 . S
C2639 C2640 1.523 . S
C2640 C2624 1.368 . S
C2640 C2636 1.368 . S
C2640 C2639 1.523 . S
H2641 C2616 0.950 . S
H2642 C2618 0.950 . S
H2643 C2619 0.949 . S
H2644 C2621 0.950 . S
H2645 C2623 0.950 . S
C2646 C2647 1.349 . S
C2646 C2648 1.327 . S
C2646 H2671 0.950 . S
C2647 C2646 1.349 . S
C2647 C2663 1.349 . S
C2648 C2646 1.327 . S
C2648 C2667 1.429 . S
C2648 H2672 0.950 . S
C2649 C2666 1.574 . S
C2649 C2668 1.368 1_554 S
C2649 H2673 0.949 . S
H2650 C2654 0.949 1_556 S
C2651 C2652 1.349 . S
C2651 C2653 1.327 . S
C2651 H2674 0.950 . S
C2652 C2651 1.349 . S
C2652 C2664 1.349 . S
C2653 C2651 1.327 . S
C2653 C2669 1.429 . S
C2653 H2675 0.950 . S
C2654 H2650 0.949 1_554 S
C2654 C2662 1.574 1_454 S
C2654 C2670 1.368 . S
H2655 C2663 0.950 . S
H2656 C2661 0.950 . S
H2657 C2662 0.949 . S
H2658 C2664 0.950 . S
H2659 C2665 0.950 . S
H2660 C2666 0.949 . S
C2661 H2656 0.950 . S
C2661 C2663 1.327 . S
C2661 C2667 1.429 . S
C2662 C2654 1.574 1_656 S
C2662 H2657 0.949 . S
C2662 C2668 1.368 . S
C2663 C2647 1.349 . S
C2663 H2655 0.950 . S
C2663 C2661 1.327 . S
C2664 C2652 1.349 . S
C2664 H2658 0.950 . S
C2664 C2665 1.327 . S
C2665 H2659 0.950 . S
C2665 C2664 1.327 . S
C2665 C2669 1.429 . S
C2666 C2649 1.574 . S
C2666 H2660 0.949 . S
C2666 C2670 1.368 1_655 S
C2667 C2648 1.429 . S
C2667 C2661 1.429 . S
C2667 C2668 1.523 . S
C2668 C2649 1.368 1_556 S
C2668 C2662 1.368 . S
C2668 C2667 1.523 . S
C2669 C2653 1.429 . S
C2669 C2665 1.429 . S
C2669 C2670 1.523 . S
C2670 C2654 1.368 . S
C2670 C2666 1.368 1_455 S
C2670 C2669 1.523 . S
H2671 C2646 0.950 . S
H2672 C2648 0.950 . S
H2673 C2649 0.949 . S
H2674 C2651 0.950 . S
H2675 C2653 0.950 . S
C2676 C2677 1.349 . S
C2676 C2678 1.327 . S
C2676 H2701 0.950 . S
C2677 C2676 1.349 . S
C2677 C2693 1.349 . S
C2678 C2676 1.327 . S
C2678 C2697 1.429 . S
C2678 H2702 0.950 . S
C2679 C2696 1.574 . S
C2679 C2698 1.368 . S
C2679 H2703 0.949 . S
H2680 C2684 0.949 . S
C2681 C2682 1.349 . S
C2681 C2683 1.327 . S
C2681 H2704 0.950 . S
C2682 C2681 1.349 . S
C2682 C2694 1.349 . S
C2683 C2681 1.327 . S
C2683 C2699 1.429 . S
C2683 H2705 0.950 . S
C2684 H2680 0.949 . S
C2684 C2692 1.574 . S
C2684 C2700 1.368 . S
H2685 C2693 0.950 . S
H2686 C2691 0.950 . S
H2687 C2692 0.949 . S
H2688 C2694 0.950 . S
H2689 C2695 0.950 . S
H2690 C2696 0.949 . S
C2691 H2686 0.950 . S
C2691 C2693 1.327 . S
C2691 C2697 1.429 . S
C2692 C2684 1.574 . S
C2692 H2687 0.949 . S
C2692 C2698 1.368 . S
C2693 C2677 1.349 . S
C2693 H2685 0.950 . S
C2693 C2691 1.327 . S
C2694 C2682 1.349 . S
C2694 H2688 0.950 . S
C2694 C2695 1.327 . S
C2695 H2689 0.950 . S
C2695 C2694 1.327 . S
C2695 C2699 1.429 . S
C2696 C2679 1.574 . S
C2696 H2690 0.949 . S
C2696 C2700 1.368 . S
C2697 C2678 1.429 . S
C2697 C2691 1.429 . S
C2697 C2698 1.523 . S
C2698 C2679 1.368 . S
C2698 C2692 1.368 . S
C2698 C2697 1.523 . S
C2699 C2683 1.429 . S
C2699 C2695 1.429 . S
C2699 C2700 1.523 . S
C2700 C2684 1.368 . S
C2700 C2696 1.368 . S
C2700 C2699 1.523 . S
H2701 C2676 0.950 . S
H2702 C2678 0.950 . S
H2703 C2679 0.949 . S
H2704 C2681 0.950 . S
H2705 C2683 0.950 . S
C2706 C2707 1.349 . S
C2706 C2708 1.327 . S
C2706 H2731 0.950 . S
C2707 C2706 1.349 . S
C2707 C2723 1.349 . S
C2708 C2706 1.327 . S
C2708 C2727 1.429 . S
C2708 H2732 0.950 . S
C2709 C2726 1.574 . S
C2709 C2728 1.368 . S
C2709 H2733 0.949 . S
H2710 C2714 0.949 . S
C2711 C2712 1.349 . S
C2711 C2713 1.327 . S
C2711 H2734 0.950 . S
C2712 C2711 1.349 . S
C2712 C2724 1.349 . S
C2713 C2711 1.327 . S
C2713 C2729 1.429 . S
C2713 H2735 0.950 . S
C2714 H2710 0.949 . S
C2714 C2722 1.574 . S
C2714 C2730 1.368 . S
H2715 C2723 0.950 . S
H2716 C2721 0.950 . S
H2717 C2722 0.949 . S
H2718 C2724 0.950 . S
H2719 C2725 0.950 . S
H2720 C2726 0.949 . S
C2721 H2716 0.950 . S
C2721 C2723 1.327 . S
C2721 C2727 1.429 . S
C2722 C2714 1.574 . S
C2722 H2717 0.949 . S
C2722 C2728 1.368 . S
C2723 C2707 1.349 . S
C2723 H2715 0.950 . S
C2723 C2721 1.327 . S
C2724 C2712 1.349 . S
C2724 H2718 0.950 . S
C2724 C2725 1.327 . S
C2725 H2719 0.950 . S
C2725 C2724 1.327 . S
C2725 C2729 1.429 . S
C2726 C2709 1.574 . S
C2726 H2720 0.949 . S
C2726 C2730 1.368 . S
C2727 C2708 1.429 . S
C2727 C2721 1.429 . S
C2727 C2728 1.523 . S
C2728 C2709 1.368 . S
C2728 C2722 1.368 . S
C2728 C2727 1.523 . S
C2729 C2713 1.429 . S
C2729 C2725 1.429 . S
C2729 C2730 1.523 . S
C2730 C2714 1.368 . S
C2730 C2726 1.368 . S
C2730 C2729 1.523 . S
H2731 C2706 0.950 . S
H2732 C2708 0.950 . S
H2733 C2709 0.949 . S
H2734 C2711 0.950 . S
H2735 C2713 0.950 . S
C2736 C2737 1.349 . S
C2736 C2738 1.327 . S
C2736 H2761 0.950 . S
C2737 C2736 1.349 . S
C2737 C2753 1.349 . S
C2738 C2736 1.327 . S
C2738 C2757 1.429 . S
C2738 H2762 0.950 . S
C2739 C2756 1.574 . S
C2739 C2758 1.368 . S
C2739 H2763 0.949 . S
H2740 C2744 0.949 . S
C2741 C2742 1.349 . S
C2741 C2743 1.327 . S
C2741 H2764 0.950 . S
C2742 C2741 1.349 . S
C2742 C2754 1.349 . S
C2743 C2741 1.327 . S
C2743 C2759 1.429 . S
C2743 H2765 0.950 . S
C2744 H2740 0.949 . S
C2744 C2752 1.574 . S
C2744 C2760 1.368 . S
H2745 C2753 0.950 . S
H2746 C2751 0.950 . S
H2747 C2752 0.949 . S
H2748 C2754 0.950 . S
H2749 C2755 0.950 . S
H2750 C2756 0.949 . S
C2751 H2746 0.950 . S
C2751 C2753 1.327 . S
C2751 C2757 1.429 . S
C2752 C2744 1.574 . S
C2752 H2747 0.949 . S
C2752 C2758 1.368 . S
C2753 C2737 1.349 . S
C2753 H2745 0.950 . S
C2753 C2751 1.327 . S
C2754 C2742 1.349 . S
C2754 H2748 0.950 . S
C2754 C2755 1.327 . S
C2755 H2749 0.950 . S
C2755 C2754 1.327 . S
C2755 C2759 1.429 . S
C2756 C2739 1.574 . S
C2756 H2750 0.949 . S
C2756 C2760 1.368 . S
C2757 C2738 1.429 . S
C2757 C2751 1.429 . S
C2757 C2758 1.523 . S
C2758 C2739 1.368 . S
C2758 C2752 1.368 . S
C2758 C2757 1.523 . S
C2759 C2743 1.429 . S
C2759 C2755 1.429 . S
C2759 C2760 1.523 . S
C2760 C2744 1.368 . S
C2760 C2756 1.368 . S
C2760 C2759 1.523 . S
H2761 C2736 0.950 . S
H2762 C2738 0.950 . S
H2763 C2739 0.949 . S
H2764 C2741 0.950 . S
H2765 C2743 0.950 . S
C2766 C2767 1.349 . S
C2766 C2768 1.327 . S
C2766 H2791 0.950 . S
C2767 C2766 1.349 . S
C2767 C2783 1.349 . S
C2768 C2766 1.327 . S
C2768 C2787 1.429 . S
C2768 H2792 0.950 . S
C2769 C2786 1.574 . S
C2769 C2788 1.368 . S
C2769 H2793 0.949 . S
H2770 C2774 0.949 . S
C2771 C2772 1.349 . S
C2771 C2773 1.327 . S
C2771 H2794 0.950 . S
C2772 C2771 1.349 . S
C2772 C2784 1.349 . S
C2773 C2771 1.327 . S
C2773 C2789 1.429 . S
C2773 H2795 0.950 . S
C2774 H2770 0.949 . S
C2774 C2782 1.574 . S
C2774 C2790 1.368 . S
H2775 C2783 0.950 . S
H2776 C2781 0.950 . S
H2777 C2782 0.949 . S
H2778 C2784 0.950 . S
H2779 C2785 0.950 . S
H2780 C2786 0.949 . S
C2781 H2776 0.950 . S
C2781 C2783 1.327 . S
C2781 C2787 1.429 . S
C2782 C2774 1.574 . S
C2782 H2777 0.949 . S
C2782 C2788 1.368 1_554 S
C2783 C2767 1.349 . S
C2783 H2775 0.950 . S
C2783 C2781 1.327 . S
C2784 C2772 1.349 . S
C2784 H2778 0.950 . S
C2784 C2785 1.327 . S
C2785 H2779 0.950 . S
C2785 C2784 1.327 . S
C2785 C2789 1.429 . S
C2786 C2769 1.574 . S
C2786 H2780 0.949 . S
C2786 C2790 1.368 1_556 S
C2787 C2768 1.429 . S
C2787 C2781 1.429 . S
C2787 C2788 1.523 . S
C2788 C2769 1.368 . S
C2788 C2782 1.368 1_556 S
C2788 C2787 1.523 . S
C2789 C2773 1.429 . S
C2789 C2785 1.429 . S
C2789 C2790 1.523 . S
C2790 C2774 1.368 . S
C2790 C2786 1.368 1_554 S
C2790 C2789 1.523 . S
H2791 C2766 0.950 . S
H2792 C2768 0.950 . S
H2793 C2769 0.949 . S
H2794 C2771 0.950 . S
H2795 C2773 0.950 . S
C2796 C2797 1.349 . S
C2796 C2798 1.327 . S
C2796 H2821 0.950 . S
C2797 C2796 1.349 . S
C2797 C2813 1.349 . S
C2798 C2796 1.327 . S
C2798 C2817 1.429 . S
C2798 H2822 0.950 . S
C2799 C2816 1.574 . S
C2799 C2818 1.368 . S
C2799 H2823 0.949 . S
H2800 C2804 0.949 . S
C2801 C2802 1.349 . S
C2801 C2803 1.327 . S
C2801 H2824 0.950 . S
C2802 C2801 1.349 . S
C2802 C2814 1.349 . S
C2803 C2801 1.327 . S
C2803 C2819 1.429 . S
C2803 H2825 0.950 . S
C2804 H2800 0.949 . S
C2804 C2812 1.574 . S
C2804 C2820 1.368 . S
H2805 C2813 0.950 . S
H2806 C2811 0.950 . S
H2807 C2812 0.949 . S
H2808 C2814 0.950 . S
H2809 C2815 0.950 . S
H2810 C2816 0.949 . S
C2811 H2806 0.950 . S
C2811 C2813 1.327 . S
C2811 C2817 1.429 . S
C2812 C2804 1.574 . S
C2812 H2807 0.949 . S
C2812 C2818 1.368 . S
C2813 C2797 1.349 . S
C2813 H2805 0.950 . S
C2813 C2811 1.327 . S
C2814 C2802 1.349 . S
C2814 H2808 0.950 . S
C2814 C2815 1.327 . S
C2815 H2809 0.950 . S
C2815 C2814 1.327 . S
C2815 C2819 1.429 . S
C2816 C2799 1.574 . S
C2816 H2810 0.949 . S
C2816 C2820 1.368 . S
C2817 C2798 1.429 . S
C2817 C2811 1.429 . S
C2817 C2818 1.523 . S
C2818 C2799 1.368 . S
C2818 C2812 1.368 . S
C2818 C2817 1.523 . S
C2819 C2803 1.429 . S
C2819 C2815 1.429 . S
C2819 C2820 1.523 . S
C2820 C2804 1.368 . S
C2820 C2816 1.368 . S
C2820 C2819 1.523 . S
H2821 C2796 0.950 . S
H2822 C2798 0.950 . S
H2823 C2799 0.949 . S
H2824 C2801 0.950 . S
H2825 C2803 0.950 . S
C2826 C2827 1.349 . S
C2826 C2828 1.327 . S
C2826 H2851 0.950 . S
C2827 C2826 1.349 . S
C2827 C2843 1.349 . S
C2828 C2826 1.327 . S
C2828 C2847 1.429 . S
C2828 H2852 0.950 . S
C2829 C2846 1.662 . S
C2829 C2848 1.305 1_455 S
C2829 H2853 0.934 1_455 S
H2830 C2834 0.949 . S
C2831 C2832 1.349 . S
C2831 C2833 1.327 . S
C2831 H2854 0.950 . S
C2832 C2831 1.349 . S
C2832 C2844 1.349 . S
C2833 C2831 1.327 . S
C2833 C2849 1.429 . S
C2833 H2855 0.950 . S
C2834 H2830 0.949 . S
C2834 C2842 1.574 1_455 S
C2834 C2850 1.368 . S
H2835 C2843 0.950 . S
H2836 C2841 0.950 . S
H2837 C2842 0.949 . S
H2838 C2844 0.950 . S
H2839 C2845 0.950 . S
H2840 C2846 0.949 . S
C2841 H2836 0.950 . S
C2841 C2843 1.327 . S
C2841 C2847 1.429 . S
C2842 C2834 1.574 1_655 S
C2842 H2837 0.949 . S
C2842 C2848 1.368 . S
C2843 C2827 1.349 . S
C2843 H2835 0.950 . S
C2843 C2841 1.327 . S
C2844 C2832 1.349 . S
C2844 H2838 0.950 . S
C2844 C2845 1.327 . S
C2845 H2839 0.950 . S
C2845 C2844 1.327 . S
C2845 C2849 1.429 . S
C2846 C2829 1.662 . S
C2846 H2840 0.949 . S
C2846 C2850 1.368 . S
C2847 C2828 1.429 . S
C2847 C2841 1.429 . S
C2847 C2848 1.523 . S
C2848 C2829 1.305 1_655 S
C2848 C2842 1.368 . S
C2848 C2847 1.523 . S
C2849 C2833 1.429 . S
C2849 C2845 1.429 . S
C2849 C2850 1.523 . S
C2850 C2834 1.368 . S
C2850 C2846 1.368 . S
C2850 C2849 1.523 . S
H2851 C2826 0.950 . S
H2852 C2828 0.950 . S
H2853 C2829 0.934 1_655 S
H2854 C2831 0.950 . S
H2855 C2833 0.950 . S
C2856 C2857 1.349 . S
C2856 C2858 1.327 . S
C2856 H2881 0.950 . S
C2857 C2856 1.349 . S
C2857 C2873 1.349 . S
C2858 C2856 1.327 . S
C2858 C2877 1.429 . S
C2858 H2882 0.950 . S
C2859 C2876 1.574 . S
C2859 C2878 1.368 . S
C2859 H2883 0.949 . S
H2860 C2864 0.949 . S
C2861 C2862 1.349 . S
C2861 C2863 1.327 . S
C2861 H2884 0.950 . S
C2862 C2861 1.349 . S
C2862 C2874 1.349 . S
C2863 C2861 1.327 . S
C2863 C2879 1.429 . S
C2863 H2885 0.950 . S
C2864 H2860 0.949 . S
C2864 C2872 1.574 . S
C2864 C2880 1.368 . S
H2865 C2873 0.950 . S
H2866 C2871 0.950 . S
H2867 C2872 0.949 . S
H2868 C2874 0.950 . S
H2869 C2875 0.950 . S
H2870 C2876 0.949 . S
C2871 H2866 0.950 . S
C2871 C2873 1.327 . S
C2871 C2877 1.429 . S
C2872 C2864 1.574 . S
C2872 H2867 0.949 . S
C2872 C2878 1.368 . S
C2873 C2857 1.349 . S
C2873 H2865 0.950 . S
C2873 C2871 1.327 . S
C2874 C2862 1.349 . S
C2874 H2868 0.950 . S
C2874 C2875 1.327 . S
C2875 H2869 0.950 . S
C2875 C2874 1.327 . S
C2875 C2879 1.429 . S
C2876 C2859 1.574 . S
C2876 H2870 0.949 . S
C2876 C2880 1.368 . S
C2877 C2858 1.429 . S
C2877 C2871 1.429 . S
C2877 C2878 1.523 . S
C2878 C2859 1.368 . S
C2878 C2872 1.368 . S
C2878 C2877 1.523 . S
C2879 C2863 1.429 . S
C2879 C2875 1.429 . S
C2879 C2880 1.523 . S
C2880 C2864 1.368 . S
C2880 C2876 1.368 . S
C2880 C2879 1.523 . S
H2881 C2856 0.950 . S
H2882 C2858 0.950 . S
H2883 C2859 0.949 . S
H2884 C2861 0.950 . S
H2885 C2863 0.950 . S
C2886 C2887 1.349 . S
C2886 C2888 1.327 . S
C2886 H2911 0.950 . S
C2887 C2886 1.349 . S
C2887 C2903 1.349 . S
C2888 C2886 1.327 . S
C2888 C2907 1.429 . S
C2888 H2912 0.950 . S
C2889 C2906 1.574 . S
C2889 C2908 1.368 1_556 S
C2889 H2913 0.949 . S
H2890 C2894 0.949 . S
C2891 C2892 1.349 . S
C2891 C2893 1.327 . S
C2891 H2914 0.950 . S
C2892 C2891 1.349 . S
C2892 C2904 1.349 . S
C2893 C2891 1.327 . S
C2893 C2909 1.429 . S
C2893 H2915 0.950 . S
C2894 H2890 0.949 . S
C2894 C2902 1.574 1_655 S
C2894 C2910 1.368 1_554 S
H2895 C2903 0.950 . S
H2896 C2901 0.950 . S
H2897 C2902 0.949 . S
H2898 C2904 0.950 . S
H2899 C2905 0.950 . S
H2900 C2906 0.965 . S
C2901 H2896 0.950 . S
C2901 C2903 1.327 . S
C2901 C2907 1.429 . S
C2902 C2894 1.574 1_455 S
C2902 H2897 0.949 . S
C2902 C2908 1.368 . S
C2903 C2887 1.349 . S
C2903 H2895 0.950 . S
C2903 C2901 1.327 . S
C2904 C2892 1.349 . S
C2904 H2898 0.950 . S
C2904 C2905 1.327 . S
C2905 H2899 0.950 . S
C2905 C2904 1.327 . S
C2905 C2909 1.429 . S
C2906 C2889 1.574 . S
C2906 H2900 0.965 . S
C2906 C2910 1.368 1_455 S
C2907 C2888 1.429 . S
C2907 C2901 1.429 . S
C2907 C2908 1.523 . S
C2908 C2889 1.368 1_554 S
C2908 C2902 1.368 . S
C2908 C2907 1.523 . S
C2909 C2893 1.429 . S
C2909 C2905 1.429 . S
C2909 C2910 1.523 . S
C2910 C2894 1.368 1_556 S
C2910 C2906 1.368 1_655 S
C2910 C2909 1.523 . S
H2911 C2886 0.950 . S
H2912 C2888 0.950 . S
H2913 C2889 0.949 . S
H2914 C2891 0.950 . S
H2915 C2893 0.950 . S
C2916 C2917 1.349 . S
C2916 C2918 1.327 . S
C2916 H2941 0.950 . S
C2917 C2916 1.349 . S
C2917 C2933 1.349 . S
C2918 C2916 1.327 . S
C2918 C2937 1.429 . S
C2918 H2942 0.950 . S
C2919 C2936 1.574 . S
C2919 C2938 1.368 . S
C2919 H2943 0.949 . S
H2920 C2924 0.949 . S
C2921 C2922 1.349 . S
C2921 C2923 1.327 . S
C2921 H2944 0.950 . S
C2922 C2921 1.349 . S
C2922 C2934 1.349 . S
C2923 C2921 1.327 . S
C2923 C2939 1.429 . S
C2923 H2945 0.950 . S
C2924 H2920 0.949 . S
C2924 C2932 1.574 . S
C2924 C2940 1.368 . S
H2925 C2933 0.950 . S
H2926 C2931 0.950 . S
H2927 C2932 0.949 . S
H2928 C2934 0.950 . S
H2929 C2935 0.950 . S
H2930 C2936 0.949 . S
C2931 H2926 0.950 . S
C2931 C2933 1.327 . S
C2931 C2937 1.429 . S
C2932 C2924 1.574 . S
C2932 H2927 0.949 . S
C2932 C2938 1.368 . S
C2933 C2917 1.349 . S
C2933 H2925 0.950 . S
C2933 C2931 1.327 . S
C2934 C2922 1.349 . S
C2934 H2928 0.950 . S
C2934 C2935 1.327 . S
C2935 H2929 0.950 . S
C2935 C2934 1.327 . S
C2935 C2939 1.429 . S
C2936 C2919 1.574 . S
C2936 H2930 0.949 . S
C2936 C2940 1.368 . S
C2937 C2918 1.429 . S
C2937 C2931 1.429 . S
C2937 C2938 1.523 . S
C2938 C2919 1.368 . S
C2938 C2932 1.368 . S
C2938 C2937 1.523 . S
C2939 C2923 1.429 . S
C2939 C2935 1.429 . S
C2939 C2940 1.523 . S
C2940 C2924 1.368 . S
C2940 C2936 1.368 . S
C2940 C2939 1.523 . S
H2941 C2916 0.950 . S
H2942 C2918 0.950 . S
H2943 C2919 0.949 . S
H2944 C2921 0.950 . S
H2945 C2923 0.950 . S
C2946 C2947 1.349 . S
C2946 C2948 1.327 . S
C2946 H2971 0.950 . S
C2947 C2946 1.349 . S
C2947 C2963 1.349 . S
C2948 C2946 1.327 . S
C2948 C2967 1.429 . S
C2948 H2972 0.950 . S
C2949 C2966 1.574 . S
C2949 C2968 1.368 . S
C2949 H2973 0.949 . S
H2950 C2954 0.949 . S
C2951 C2952 1.349 . S
C2951 C2953 1.327 . S
C2951 H2974 0.950 . S
C2952 C2951 1.349 . S
C2952 C2964 1.349 . S
C2953 C2951 1.327 . S
C2953 C2969 1.429 . S
C2953 H2975 0.950 . S
C2954 H2950 0.949 . S
C2954 C2962 1.574 . S
C2954 C2970 1.368 . S
H2955 C2963 0.950 . S
H2956 C2961 0.950 . S
H2957 C2962 0.949 . S
H2958 C2964 0.950 . S
H2959 C2965 0.950 . S
H2960 C2966 0.949 . S
C2961 H2956 0.950 . S
C2961 C2963 1.327 . S
C2961 C2967 1.429 . S
C2962 C2954 1.574 . S
C2962 H2957 0.949 . S
C2962 C2968 1.368 . S
C2963 C2947 1.349 . S
C2963 H2955 0.950 . S
C2963 C2961 1.327 . S
C2964 C2952 1.349 . S
C2964 H2958 0.950 . S
C2964 C2965 1.327 . S
C2965 H2959 0.950 . S
C2965 C2964 1.327 . S
C2965 C2969 1.429 . S
C2966 C2949 1.574 . S
C2966 H2960 0.949 . S
C2966 C2970 1.368 . S
C2967 C2948 1.429 . S
C2967 C2961 1.429 . S
C2967 C2968 1.523 . S
C2968 C2949 1.368 . S
C2968 C2962 1.368 . S
C2968 C2967 1.523 . S
C2969 C2953 1.429 . S
C2969 C2965 1.429 . S
C2969 C2970 1.523 . S
C2970 C2954 1.368 . S
C2970 C2966 1.368 . S
C2970 C2969 1.523 . S
H2971 C2946 0.950 . S
H2972 C2948 0.950 . S
H2973 C2949 0.949 . S
H2974 C2951 0.950 . S
H2975 C2953 0.950 . S
C2976 C2977 1.349 . S
C2976 C2978 1.327 . S
C2976 H3001 0.950 . S
C2977 C2976 1.349 . S
C2977 C2993 1.349 . S
C2978 C2976 1.327 . S
C2978 C2997 1.429 . S
C2978 H3002 0.950 . S
C2979 C2996 1.574 . S
C2979 C2998 1.368 . S
C2979 H3003 0.949 . S
H2980 C2984 0.949 . S
C2981 C2982 1.349 1_554 S
C2981 C2983 1.327 . S
C2981 H3004 0.950 . S
C2982 C2981 1.349 1_556 S
C2982 C2994 1.349 . S
C2983 C2981 1.327 . S
C2983 C2999 1.429 . S
C2983 H3005 0.950 . S
C2984 H2980 0.949 . S
C2984 C2992 1.574 . S
C2984 C3000 1.368 . S
H2985 C2993 0.950 . S
H2986 C2991 0.950 . S
H2987 C2992 0.949 . S
H2988 C2994 0.950 . S
H2989 C2995 0.950 . S
H2990 C2996 0.949 . S
C2991 H2986 0.950 . S
C2991 C2993 1.327 . S
C2991 C2997 1.429 . S
C2992 C2984 1.574 . S
C2992 H2987 0.949 . S
C2992 C2998 1.368 . S
C2993 C2977 1.349 . S
C2993 H2985 0.950 . S
C2993 C2991 1.327 . S
C2994 C2982 1.349 . S
C2994 H2988 0.950 . S
C2994 C2995 1.327 . S
C2995 H2989 0.950 . S
C2995 C2994 1.327 . S
C2995 C2999 1.429 1_556 S
C2996 C2979 1.574 . S
C2996 H2990 0.949 . S
C2996 C3000 1.368 . S
C2997 C2978 1.429 . S
C2997 C2991 1.429 . S
C2997 C2998 1.523 . S
C2998 C2979 1.368 . S
C2998 C2992 1.368 . S
C2998 C2997 1.523 . S
C2999 C2983 1.429 . S
C2999 C2995 1.429 1_554 S
C2999 C3000 1.523 . S
C3000 C2984 1.368 . S
C3000 C2996 1.368 . S
C3000 C2999 1.523 . S
H3001 C2976 0.950 . S
H3002 C2978 0.950 . S
H3003 C2979 0.949 . S
H3004 C2981 0.950 . S
H3005 C2983 0.950 . S
C3006 C3007 1.349 . S
C3006 C3008 1.327 . S
C3006 H3031 0.950 . S
C3007 C3006 1.349 . S
C3007 C3023 1.349 . S
C3008 C3006 1.327 . S
C3008 C3027 1.429 . S
C3008 H3032 0.950 . S
C3009 C3026 1.574 . S
C3009 C3028 1.368 . S
C3009 H3033 0.949 . S
H3010 C3014 0.949 . S
C3011 C3012 1.349 . S
C3011 C3013 1.327 . S
C3011 H3034 0.950 . S
C3012 C3011 1.349 . S
C3012 C3024 1.349 . S
C3013 C3011 1.327 . S
C3013 C3029 1.429 . S
C3013 H3035 0.950 . S
C3014 H3010 0.949 . S
C3014 C3022 1.574 . S
C3014 C3030 1.368 . S
H3015 C3023 0.950 . S
H3016 C3021 0.950 . S
H3017 C3022 0.949 . S
H3018 C3024 0.950 . S
H3019 C3025 0.950 . S
H3020 C3026 0.949 . S
C3021 H3016 0.950 . S
C3021 C3023 1.327 . S
C3021 C3027 1.429 . S
C3022 C3014 1.574 . S
C3022 H3017 0.949 . S
C3022 C3028 1.368 . S
C3023 C3007 1.349 . S
C3023 H3015 0.950 . S
C3023 C3021 1.327 . S
C3024 C3012 1.349 . S
C3024 H3018 0.950 . S
C3024 C3025 1.327 . S
C3025 H3019 0.950 . S
C3025 C3024 1.327 . S
C3025 C3029 1.429 . S
C3026 C3009 1.574 . S
C3026 H3020 0.949 . S
C3026 C3030 1.368 . S
C3027 C3008 1.429 . S
C3027 C3021 1.429 . S
C3027 C3028 1.523 . S
C3028 C3009 1.368 . S
C3028 C3022 1.368 . S
C3028 C3027 1.523 . S
C3029 C3013 1.429 . S
C3029 C3025 1.429 . S
C3029 C3030 1.523 . S
C3030 C3014 1.368 . S
C3030 C3026 1.368 . S
C3030 C3029 1.523 . S
H3031 C3006 0.950 . S
H3032 C3008 0.950 . S
H3033 C3009 0.949 . S
H3034 C3011 0.950 . S
H3035 C3013 0.950 . S
C3036 C3037 1.349 . S
C3036 C3038 1.327 . S
C3036 H3061 0.950 . S
C3037 C3036 1.349 . S
C3037 C3053 1.349 . S
C3038 C3036 1.327 . S
C3038 C3057 1.429 . S
C3038 H3062 0.950 . S
C3039 C3056 1.574 . S
C3039 C3058 1.368 . S
C3039 H3063 0.949 . S
H3040 C3044 0.949 . S
C3041 C3042 1.349 . S
C3041 C3043 1.327 . S
C3041 H3064 0.950 . S
C3042 C3041 1.349 . S
C3042 C3054 1.349 . S
C3043 C3041 1.327 . S
C3043 C3059 1.429 . S
C3043 H3065 0.950 . S
C3044 H3040 0.949 . S
C3044 C3052 1.574 . S
C3044 C3060 1.368 . S
H3045 C3053 0.950 . S
H3046 C3051 0.950 . S
H3047 C3052 0.949 . S
H3048 C3054 0.950 . S
H3049 C3055 0.950 . S
H3050 C3056 0.949 . S
C3051 H3046 0.950 . S
C3051 C3053 1.327 . S
C3051 C3057 1.429 . S
C3052 C3044 1.574 . S
C3052 H3047 0.949 . S
C3052 C3058 1.368 . S
C3053 C3037 1.349 . S
C3053 H3045 0.950 . S
C3053 C3051 1.327 . S
C3054 C3042 1.349 . S
C3054 H3048 0.950 . S
C3054 C3055 1.327 . S
C3055 H3049 0.950 . S
C3055 C3054 1.327 . S
C3055 C3059 1.429 . S
C3056 C3039 1.574 . S
C3056 H3050 0.949 . S
C3056 C3060 1.368 . S
C3057 C3038 1.429 . S
C3057 C3051 1.429 . S
C3057 C3058 1.523 . S
C3058 C3039 1.368 . S
C3058 C3052 1.368 . S
C3058 C3057 1.523 . S
C3059 C3043 1.429 . S
C3059 C3055 1.429 . S
C3059 C3060 1.523 . S
C3060 C3044 1.368 . S
C3060 C3056 1.368 . S
C3060 C3059 1.523 . S
H3061 C3036 0.950 . S
H3062 C3038 0.950 . S
H3063 C3039 0.949 . S
H3064 C3041 0.950 . S
H3065 C3043 0.950 . S
C3066 C3067 1.349 . S
C3066 C3068 1.327 1_554 S
C3066 H3091 0.950 . S
C3067 C3066 1.349 . S
C3067 C3083 1.349 . S
C3068 C3066 1.327 1_556 S
C3068 C3087 1.429 . S
C3068 H3092 0.950 . S
C3069 C3086 1.574 . S
C3069 C3088 1.368 . S
C3069 H3093 0.949 . S
H3070 C3074 0.949 . S
C3071 C3072 1.349 . S
C3071 C3073 1.327 . S
C3071 H3094 0.950 . S
C3072 C3071 1.349 . S
C3072 C3084 1.349 . S
C3073 C3071 1.327 . S
C3073 C3089 1.429 . S
C3073 H3095 0.950 . S
C3074 H3070 0.949 . S
C3074 C3082 1.574 . S
C3074 C3090 1.368 . S
H3075 C3083 0.950 . S
H3076 C3081 0.950 . S
H3077 C3082 0.949 . S
H3078 C3084 0.950 . S
H3079 C3085 0.950 . S
H3080 C3086 0.949 . S
C3081 H3076 0.950 . S
C3081 C3083 1.327 1_556 S
C3081 C3087 1.429 . S
C3082 C3074 1.574 . S
C3082 H3077 0.949 . S
C3082 C3088 1.368 . S
C3083 C3067 1.349 . S
C3083 H3075 0.950 . S
C3083 C3081 1.327 1_554 S
C3084 C3072 1.349 . S
C3084 H3078 0.950 . S
C3084 C3085 1.327 . S
C3085 H3079 0.950 . S
C3085 C3084 1.327 . S
C3085 C3089 1.429 . S
C3086 C3069 1.574 . S
C3086 H3080 0.949 . S
C3086 C3090 1.368 . S
C3087 C3068 1.429 . S
C3087 C3081 1.429 . S
C3087 C3088 1.523 . S
C3088 C3069 1.368 . S
C3088 C3082 1.368 . S
C3088 C3087 1.523 . S
C3089 C3073 1.429 . S
C3089 C3085 1.429 . S
C3089 C3090 1.523 . S
C3090 C3074 1.368 . S
C3090 C3086 1.368 . S
C3090 C3089 1.523 . S
H3091 C3066 0.950 . S
H3092 C3068 0.950 . S
H3093 C3069 0.949 . S
H3094 C3071 0.950 . S
H3095 C3073 0.950 . S
C3096 C3097 1.349 . S
C3096 C3098 1.327 . S
C3096 H3121 0.950 . S
C3097 C3096 1.349 . S
C3097 C3113 1.349 1_554 S
C3098 C3096 1.327 . S
C3098 C3117 1.429 1_554 S
C3098 H3122 0.950 . S
C3099 C3116 1.574 . S
C3099 C3118 1.368 . S
C3099 H3123 0.949 . S
H3100 C3104 0.949 . S
C3101 C3102 1.349 . S
C3101 C3103 1.327 . S
C3101 H3124 0.950 . S
C3102 C3101 1.349 . S
C3102 C3114 1.349 . S
C3103 C3101 1.327 . S
C3103 C3119 1.429 . S
C3103 H3125 0.950 . S
C3104 H3100 0.949 . S
C3104 C3112 1.574 . S
C3104 C3120 1.368 . S
H3105 C3113 0.950 . S
H3106 C3111 0.950 . S
H3107 C3112 0.949 . S
H3108 C3114 0.950 . S
H3109 C3115 0.950 . S
H3110 C3116 0.949 . S
C3111 H3106 0.950 . S
C3111 C3113 1.327 . S
C3111 C3117 1.429 . S
C3112 C3104 1.574 . S
C3112 H3107 0.949 . S
C3112 C3118 1.368 . S
C3113 C3097 1.349 1_556 S
C3113 H3105 0.950 . S
C3113 C3111 1.327 . S
C3114 C3102 1.349 . S
C3114 H3108 0.950 . S
C3114 C3115 1.327 . S
C3115 H3109 0.950 . S
C3115 C3114 1.327 . S
C3115 C3119 1.429 . S
C3116 C3099 1.574 . S
C3116 H3110 0.949 . S
C3116 C3120 1.368 . S
C3117 C3098 1.429 1_556 S
C3117 C3111 1.429 . S
C3117 C3118 1.523 . S
C3118 C3099 1.368 . S
C3118 C3112 1.368 . S
C3118 C3117 1.523 . S
C3119 C3103 1.429 . S
C3119 C3115 1.429 . S
C3119 C3120 1.523 . S
C3120 C3104 1.368 . S
C3120 C3116 1.368 . S
C3120 C3119 1.523 . S
H3121 C3096 0.950 . S
H3122 C3098 0.950 . S
H3123 C3099 0.949 . S
H3124 C3101 0.950 . S
H3125 C3103 0.950 . S
C3126 C3127 1.349 . S
C3126 C3128 1.327 . S
C3126 H3151 0.950 . S
C3127 C3126 1.349 . S
C3127 C3143 1.349 . S
C3128 C3126 1.327 . S
C3128 C3147 1.429 . S
C3128 H3152 0.950 . S
C3129 C3146 1.574 . S
C3129 C3148 1.368 . S
C3129 H3153 0.949 . S
H3130 C3134 0.949 . S
C3131 C3132 1.349 . S
C3131 C3133 1.327 . S
C3131 H3154 0.950 . S
C3132 C3131 1.349 . S
C3132 C3144 1.349 . S
C3133 C3131 1.327 . S
C3133 C3149 1.429 . S
C3133 H3155 0.950 . S
C3134 H3130 0.949 . S
C3134 C3142 1.574 . S
C3134 C3150 1.368 . S
H3135 C3143 0.950 . S
H3136 C3141 0.950 . S
H3137 C3142 0.949 . S
H3138 C3144 0.950 . S
H3139 C3145 0.950 . S
H3140 C3146 0.949 . S
C3141 H3136 0.950 . S
C3141 C3143 1.327 . S
C3141 C3147 1.429 . S
C3142 C3134 1.574 . S
C3142 H3137 0.949 . S
C3142 C3148 1.368 . S
C3143 C3127 1.349 . S
C3143 H3135 0.950 . S
C3143 C3141 1.327 . S
C3144 C3132 1.349 . S
C3144 H3138 0.950 . S
C3144 C3145 1.327 . S
C3145 H3139 0.950 . S
C3145 C3144 1.327 . S
C3145 C3149 1.429 . S
C3146 C3129 1.574 . S
C3146 H3140 0.949 . S
C3146 C3150 1.368 . S
C3147 C3128 1.429 . S
C3147 C3141 1.429 . S
C3147 C3148 1.523 . S
C3148 C3129 1.368 . S
C3148 C3142 1.368 . S
C3148 C3147 1.523 . S
C3149 C3133 1.429 . S
C3149 C3145 1.429 . S
C3149 C3150 1.523 . S
C3150 C3134 1.368 . S
C3150 C3146 1.368 . S
C3150 C3149 1.523 . S
H3151 C3126 0.950 . S
H3152 C3128 0.950 . S
H3153 C3129 0.949 . S
H3154 C3131 0.950 . S
H3155 C3133 0.950 . S
C3156 C3157 1.349 . S
C3156 C3158 1.327 . S
C3156 H3181 0.950 . S
C3157 C3156 1.349 . S
C3157 C3173 1.349 . S
C3158 C3156 1.327 . S
C3158 C3177 1.429 . S
C3158 H3182 0.950 . S
C3159 C3176 1.574 . S
C3159 C3178 1.368 . S
C3159 H3183 0.949 . S
H3160 C3164 0.949 . S
C3161 C3162 1.349 . S
C3161 C3163 1.327 . S
C3161 H3184 0.950 . S
C3162 C3161 1.349 . S
C3162 C3174 1.349 . S
C3163 C3161 1.327 . S
C3163 C3179 1.429 . S
C3163 H3185 0.950 . S
C3164 H3160 0.949 . S
C3164 C3172 1.574 . S
C3164 C3180 1.368 . S
H3165 C3173 0.950 . S
H3166 C3171 0.950 . S
H3167 C3172 0.949 . S
H3168 C3174 0.950 . S
H3169 C3175 0.950 . S
H3170 C3176 0.949 . S
C3171 H3166 0.950 . S
C3171 C3173 1.327 . S
C3171 C3177 1.429 . S
C3172 C3164 1.574 . S
C3172 H3167 0.949 . S
C3172 C3178 1.368 . S
C3173 C3157 1.349 . S
C3173 H3165 0.950 . S
C3173 C3171 1.327 . S
C3174 C3162 1.349 . S
C3174 H3168 0.950 . S
C3174 C3175 1.327 . S
C3175 H3169 0.950 . S
C3175 C3174 1.327 . S
C3175 C3179 1.429 . S
C3176 C3159 1.574 . S
C3176 H3170 0.949 . S
C3176 C3180 1.368 . S
C3177 C3158 1.429 . S
C3177 C3171 1.429 . S
C3177 C3178 1.523 . S
C3178 C3159 1.368 . S
C3178 C3172 1.368 . S
C3178 C3177 1.523 . S
C3179 C3163 1.429 . S
C3179 C3175 1.429 . S
C3179 C3180 1.523 . S
C3180 C3164 1.368 . S
C3180 C3176 1.368 . S
C3180 C3179 1.523 . S
H3181 C3156 0.950 . S
H3182 C3158 0.950 . S
H3183 C3159 0.949 . S
H3184 C3161 0.950 . S
H3185 C3163 0.950 . S
C3186 C3187 1.349 . S
C3186 C3188 1.327 . S
C3186 H3211 0.950 . S
C3187 C3186 1.349 . S
C3187 C3203 1.349 . S
C3188 C3186 1.327 . S
C3188 C3207 1.429 . S
C3188 H3212 0.950 . S
C3189 C3206 1.574 . S
C3189 C3208 1.368 . S
C3189 H3213 0.949 . S
H3190 C3194 0.949 . S
C3191 C3192 1.349 . S
C3191 C3193 1.327 . S
C3191 H3214 0.950 . S
C3192 C3191 1.349 . S
C3192 C3204 1.349 1_556 S
C3193 C3191 1.327 . S
C3193 C3209 1.429 1_556 S
C3193 H3215 0.950 . S
C3194 H3190 0.949 . S
C3194 C3202 1.574 . S
C3194 C3210 1.368 . S
H3195 C3203 0.950 . S
H3196 C3201 0.950 . S
H3197 C3202 0.949 . S
H3198 C3204 0.950 . S
H3199 C3205 0.950 . S
H3200 C3206 0.949 . S
C3201 H3196 0.950 . S
C3201 C3203 1.327 . S
C3201 C3207 1.429 . S
C3202 C3194 1.574 . S
C3202 H3197 0.949 . S
C3202 C3208 1.368 . S
C3203 C3187 1.349 . S
C3203 H3195 0.950 . S
C3203 C3201 1.327 . S
C3204 C3192 1.349 1_554 S
C3204 H3198 0.950 . S
C3204 C3205 1.327 . S
C3205 H3199 0.950 . S
C3205 C3204 1.327 . S
C3205 C3209 1.429 . S
C3206 C3189 1.574 . S
C3206 H3200 0.949 . S
C3206 C3210 1.368 . S
C3207 C3188 1.429 . S
C3207 C3201 1.429 . S
C3207 C3208 1.523 . S
C3208 C3189 1.368 . S
C3208 C3202 1.368 . S
C3208 C3207 1.523 . S
C3209 C3193 1.429 1_554 S
C3209 C3205 1.429 . S
C3209 C3210 1.523 . S
C3210 C3194 1.368 . S
C3210 C3206 1.368 . S
C3210 C3209 1.523 . S
H3211 C3186 0.950 . S
H3212 C3188 0.950 . S
H3213 C3189 0.949 . S
H3214 C3191 0.950 . S
H3215 C3193 0.950 . S
C3216 C3217 1.349 . S
C3216 C3218 1.327 . S
C3216 H3241 0.950 . S
C3217 C3216 1.349 . S
C3217 C3233 1.349 . S
C3218 C3216 1.327 . S
C3218 C3237 1.429 . S
C3218 H3242 0.950 . S
C3219 C3236 1.574 . S
C3219 C3238 1.368 . S
C3219 H3243 0.949 . S
H3220 C3224 0.949 . S
C3221 C3222 1.349 . S
C3221 C3223 1.327 . S
C3221 H3244 0.950 . S
C3222 C3221 1.349 . S
C3222 C3234 1.349 . S
C3223 C3221 1.327 . S
C3223 C3239 1.429 . S
C3223 H3245 0.950 . S
C3224 H3220 0.949 . S
C3224 C3232 1.574 . S
C3224 C3240 1.368 . S
H3225 C3233 0.950 . S
H3226 C3231 0.950 . S
H3227 C3232 0.949 . S
H3228 C3234 0.950 . S
H3229 C3235 0.950 . S
H3230 C3236 0.949 . S
C3231 H3226 0.950 . S
C3231 C3233 1.327 . S
C3231 C3237 1.429 . S
C3232 C3224 1.574 . S
C3232 H3227 0.949 . S
C3232 C3238 1.368 . S
C3233 C3217 1.349 . S
C3233 H3225 0.950 . S
C3233 C3231 1.327 . S
C3234 C3222 1.349 . S
C3234 H3228 0.950 . S
C3234 C3235 1.327 . S
C3235 H3229 0.950 . S
C3235 C3234 1.327 . S
C3235 C3239 1.429 . S
C3236 C3219 1.574 . S
C3236 H3230 0.949 . S
C3236 C3240 1.368 . S
C3237 C3218 1.429 . S
C3237 C3231 1.429 . S
C3237 C3238 1.523 . S
C3238 C3219 1.368 . S
C3238 C3232 1.368 . S
C3238 C3237 1.523 . S
C3239 C3223 1.429 . S
C3239 C3235 1.429 . S
C3239 C3240 1.523 . S
C3240 C3224 1.368 . S
C3240 C3236 1.368 . S
C3240 C3239 1.523 . S
H3241 C3216 0.950 . S
H3242 C3218 0.950 . S
H3243 C3219 0.949 . S
H3244 C3221 0.950 . S
H3245 C3223 0.950 . S
C3246 C3247 1.349 . S
C3246 C3248 1.327 . S
C3246 H3271 0.950 . S
C3247 C3246 1.349 . S
C3247 C3263 1.349 . S
C3248 C3246 1.327 . S
C3248 C3267 1.429 . S
C3248 H3272 0.950 . S
C3249 C3266 1.574 . S
C3249 C3268 1.368 . S
C3249 H3273 0.949 . S
H3250 C3254 0.949 . S
C3251 C3252 1.349 1_556 S
C3251 C3253 1.327 . S
C3251 H3274 0.950 . S
C3252 C3251 1.349 1_554 S
C3252 C3264 1.349 . S
C3253 C3251 1.327 . S
C3253 C3269 1.429 . S
C3253 H3275 0.950 . S
C3254 H3250 0.949 . S
C3254 C3262 1.574 . S
C3254 C3270 1.368 . S
H3255 C3263 0.950 . S
H3256 C3261 0.950 . S
H3257 C3262 0.949 . S
H3258 C3264 0.950 . S
H3259 C3265 0.950 . S
H3260 C3266 0.949 . S
C3261 H3256 0.950 . S
C3261 C3263 1.327 . S
C3261 C3267 1.429 . S
C3262 C3254 1.574 . S
C3262 H3257 0.949 . S
C3262 C3268 1.368 . S
C3263 C3247 1.349 . S
C3263 H3255 0.950 . S
C3263 C3261 1.327 . S
C3264 C3252 1.349 . S
C3264 H3258 0.950 . S
C3264 C3265 1.327 . S
C3265 H3259 0.950 . S
C3265 C3264 1.327 . S
C3265 C3269 1.429 1_554 S
C3266 C3249 1.574 . S
C3266 H3260 0.949 . S
C3266 C3270 1.368 . S
C3267 C3248 1.429 . S
C3267 C3261 1.429 . S
C3267 C3268 1.523 . S
C3268 C3249 1.368 . S
C3268 C3262 1.368 . S
C3268 C3267 1.523 . S
C3269 C3253 1.429 . S
C3269 C3265 1.429 1_556 S
C3269 C3270 1.523 . S
C3270 C3254 1.368 . S
C3270 C3266 1.368 . S
C3270 C3269 1.523 . S
H3271 C3246 0.950 . S
H3272 C3248 0.950 . S
H3273 C3249 0.949 . S
H3274 C3251 0.950 . S
H3275 C3253 0.950 . S
C3276 C3277 1.349 . S
C3276 C3278 1.327 1_556 S
C3276 H3301 0.950 . S
C3277 C3276 1.349 . S
C3277 C3293 1.349 . S
C3278 C3276 1.327 1_554 S
C3278 C3297 1.429 . S
C3278 H3302 0.950 . S
C3279 C3296 1.574 . S
C3279 C3298 1.368 . S
C3279 H3303 0.949 . S
H3280 C3284 0.949 . S
C3281 C3282 1.349 . S
C3281 C3283 1.327 . S
C3281 H3304 0.950 . S
C3282 C3281 1.349 . S
C3282 C3294 1.349 . S
C3283 C3281 1.327 . S
C3283 C3299 1.429 . S
C3283 H3305 0.950 . S
C3284 H3280 0.949 . S
C3284 C3292 1.574 . S
C3284 C3300 1.368 . S
H3285 C3293 0.950 . S
H3286 C3291 0.950 . S
H3287 C3292 0.949 . S
H3288 C3294 0.950 . S
H3289 C3295 0.950 . S
H3290 C3296 0.949 . S
C3291 H3286 0.950 . S
C3291 C3293 1.326 1_554 S
C3291 C3297 1.430 . S
C3292 C3284 1.574 . S
C3292 H3287 0.949 . S
C3292 C3298 1.368 . S
C3293 C3277 1.349 . S
C3293 H3285 0.950 . S
C3293 C3291 1.326 1_556 S
C3294 C3282 1.349 . S
C3294 H3288 0.950 . S
C3294 C3295 1.327 . S
C3295 H3289 0.950 . S
C3295 C3294 1.327 . S
C3295 C3299 1.429 . S
C3296 C3279 1.574 . S
C3296 H3290 0.949 . S
C3296 C3300 1.368 . S
C3297 C3278 1.429 . S
C3297 C3291 1.430 . S
C3297 C3298 1.523 . S
C3298 C3279 1.368 . S
C3298 C3292 1.368 . S
C3298 C3297 1.523 . S
C3299 C3283 1.429 . S
C3299 C3295 1.429 . S
C3299 C3300 1.523 . S
C3300 C3284 1.368 . S
C3300 C3296 1.368 . S
C3300 C3299 1.523 . S
H3301 C3276 0.950 . S
H3302 C3278 0.950 . S
H3303 C3279 0.949 . S
H3304 C3281 0.950 . S
H3305 C3283 0.950 . S
C3306 C3307 1.349 . S
C3306 C3308 1.327 . S
C3306 H3331 0.950 . S
C3307 C3306 1.349 . S
C3307 C3323 1.349 . S
C3308 C3306 1.327 . S
C3308 C3327 1.429 . S
C3308 H3332 0.950 . S
C3309 C3326 1.574 . S
C3309 C3328 1.368 . S
C3309 H3333 0.949 . S
H3310 C3314 0.949 . S
C3311 C3312 1.349 . S
C3311 C3313 1.327 . S
C3311 H3334 0.950 . S
C3312 C3311 1.349 . S
C3312 C3324 1.349 . S
C3313 C3311 1.327 . S
C3313 C3329 1.429 . S
C3313 H3335 0.950 . S
C3314 H3310 0.949 . S
C3314 C3322 1.574 . S
C3314 C3330 1.368 . S
H3315 C3323 0.950 . S
H3316 C3321 0.950 . S
H3317 C3322 0.949 . S
H3318 C3324 0.950 . S
H3319 C3325 0.950 . S
H3320 C3326 0.949 . S
C3321 H3316 0.950 . S
C3321 C3323 1.327 . S
C3321 C3327 1.429 . S
C3322 C3314 1.574 . S
C3322 H3317 0.949 . S
C3322 C3328 1.368 . S
C3323 C3307 1.349 . S
C3323 H3315 0.950 . S
C3323 C3321 1.327 . S
C3324 C3312 1.349 . S
C3324 H3318 0.950 . S
C3324 C3325 1.327 . S
C3325 H3319 0.950 . S
C3325 C3324 1.327 . S
C3325 C3329 1.429 . S
C3326 C3309 1.574 . S
C3326 H3320 0.949 . S
C3326 C3330 1.368 . S
C3327 C3308 1.429 . S
C3327 C3321 1.429 . S
C3327 C3328 1.523 . S
C3328 C3309 1.368 . S
C3328 C3322 1.368 . S
C3328 C3327 1.523 . S
C3329 C3313 1.429 . S
C3329 C3325 1.429 . S
C3329 C3330 1.523 . S
C3330 C3314 1.368 . S
C3330 C3326 1.368 . S
C3330 C3329 1.523 . S
H3331 C3306 0.950 . S
H3332 C3308 0.950 . S
H3333 C3309 0.949 . S
H3334 C3311 0.950 . S
H3335 C3313 0.950 . S
C3336 C3337 1.349 . S
C3336 C3338 1.327 . S
C3336 H3361 0.950 . S
C3337 C3336 1.349 . S
C3337 C3353 1.349 . S
C3338 C3336 1.327 . S
C3338 C3357 1.429 . S
C3338 H3362 0.950 . S
C3339 C3356 1.574 . S
C3339 C3358 1.368 . S
C3339 H3363 0.949 . S
H3340 C3344 0.949 . S
C3341 C3342 1.349 . S
C3341 C3343 1.327 . S
C3341 H3364 0.950 . S
C3342 C3341 1.349 . S
C3342 C3354 1.349 . S
C3343 C3341 1.327 . S
C3343 C3359 1.429 . S
C3343 H3365 0.950 . S
C3344 H3340 0.949 . S
C3344 C3352 1.574 . S
C3344 C3360 1.368 . S
H3345 C3353 0.950 . S
H3346 C3351 0.950 . S
H3347 C3352 0.949 . S
H3348 C3354 0.950 . S
H3349 C3355 0.950 . S
H3350 C3356 0.949 . S
C3351 H3346 0.950 . S
C3351 C3353 1.327 . S
C3351 C3357 1.429 . S
C3352 C3344 1.574 . S
C3352 H3347 0.949 . S
C3352 C3358 1.368 . S
C3353 C3337 1.349 . S
C3353 H3345 0.950 . S
C3353 C3351 1.327 . S
C3354 C3342 1.349 . S
C3354 H3348 0.950 . S
C3354 C3355 1.327 . S
C3355 H3349 0.950 . S
C3355 C3354 1.327 . S
C3355 C3359 1.429 . S
C3356 C3339 1.574 . S
C3356 H3350 0.949 . S
C3356 C3360 1.368 . S
C3357 C3338 1.429 . S
C3357 C3351 1.429 . S
C3357 C3358 1.523 . S
C3358 C3339 1.368 . S
C3358 C3352 1.368 . S
C3358 C3357 1.523 . S
C3359 C3343 1.429 . S
C3359 C3355 1.429 . S
C3359 C3360 1.523 . S
C3360 C3344 1.368 . S
C3360 C3356 1.368 . S
C3360 C3359 1.523 . S
H3361 C3336 0.950 . S
H3362 C3338 0.950 . S
H3363 C3339 0.949 . S
H3364 C3341 0.950 . S
H3365 C3343 0.950 . S
C3366 C3367 1.349 . S
C3366 C3368 1.327 . S
C3366 H3391 0.950 . S
C3367 C3366 1.349 . S
C3367 C3383 1.349 . S
C3368 C3366 1.327 . S
C3368 C3387 1.429 . S
C3368 H3392 0.950 . S
C3369 C3386 1.574 . S
C3369 C3388 1.368 . S
C3369 H3393 0.949 . S
H3370 C3374 0.949 . S
C3371 C3372 1.349 1_554 S
C3371 C3373 1.327 . S
C3371 H3394 0.950 . S
C3372 C3371 1.349 1_556 S
C3372 C3384 1.349 . S
C3373 C3371 1.327 . S
C3373 C3389 1.429 . S
C3373 H3395 0.950 . S
C3374 H3370 0.949 . S
C3374 C3382 1.574 . S
C3374 C3390 1.368 . S
H3375 C3383 0.950 . S
H3376 C3381 0.950 . S
H3377 C3382 0.949 . S
H3378 C3384 0.950 . S
H3379 C3385 0.950 . S
H3380 C3386 0.949 . S
C3381 H3376 0.950 . S
C3381 C3383 1.327 . S
C3381 C3387 1.429 . S
C3382 C3374 1.574 . S
C3382 H3377 0.949 . S
C3382 C3388 1.368 . S
C3383 C3367 1.349 . S
C3383 H3375 0.950 . S
C3383 C3381 1.327 . S
C3384 C3372 1.349 . S
C3384 H3378 0.950 . S
C3384 C3385 1.327 . S
C3385 H3379 0.950 . S
C3385 C3384 1.327 . S
C3385 C3389 1.429 1_556 S
C3386 C3369 1.574 . S
C3386 H3380 0.949 . S
C3386 C3390 1.368 . S
C3387 C3368 1.429 . S
C3387 C3381 1.429 . S
C3387 C3388 1.523 . S
C3388 C3369 1.368 . S
C3388 C3382 1.368 . S
C3388 C3387 1.523 . S
C3389 C3373 1.429 . S
C3389 C3385 1.429 1_554 S
C3389 C3390 1.523 . S
C3390 C3374 1.368 . S
C3390 C3386 1.368 . S
C3390 C3389 1.523 . S
H3391 C3366 0.950 . S
H3392 C3368 0.950 . S
H3393 C3369 0.949 . S
H3394 C3371 0.950 . S
H3395 C3373 0.950 . S
C3396 C3397 1.349 . S
C3396 C3398 1.327 . S
C3396 H3421 0.950 . S
C3397 C3396 1.349 . S
C3397 C3413 1.349 1_554 S
C3398 C3396 1.327 . S
C3398 C3417 1.429 1_554 S
C3398 H3422 0.950 . S
C3399 C3416 1.574 . S
C3399 C3418 1.368 . S
C3399 H3423 0.949 . S
H3400 C3404 0.949 . S
C3401 C3402 1.349 . S
C3401 C3403 1.327 . S
C3401 H3424 0.950 . S
C3402 C3401 1.349 . S
C3402 C3414 1.349 . S
C3403 C3401 1.327 . S
C3403 C3419 1.429 . S
C3403 H3425 0.950 . S
C3404 H3400 0.949 . S
C3404 C3412 1.574 . S
C3404 C3420 1.368 . S
H3405 C3413 0.950 . S
H3406 C3411 0.950 . S
H3407 C3412 0.949 . S
H3408 C3414 0.950 . S
H3409 C3415 0.950 . S
H3410 C3416 0.949 . S
C3411 H3406 0.950 . S
C3411 C3413 1.327 . S
C3411 C3417 1.429 . S
C3412 C3404 1.574 . S
C3412 H3407 0.949 . S
C3412 C3418 1.368 . S
C3413 C3397 1.349 1_556 S
C3413 H3405 0.950 . S
C3413 C3411 1.327 . S
C3414 C3402 1.349 . S
C3414 H3408 0.950 . S
C3414 C3415 1.327 . S
C3415 H3409 0.950 . S
C3415 C3414 1.327 . S
C3415 C3419 1.429 . S
C3416 C3399 1.574 . S
C3416 H3410 0.949 . S
C3416 C3420 1.368 . S
C3417 C3398 1.429 1_556 S
C3417 C3411 1.429 . S
C3417 C3418 1.523 . S
C3418 C3399 1.368 . S
C3418 C3412 1.368 . S
C3418 C3417 1.523 . S
C3419 C3403 1.429 . S
C3419 C3415 1.429 . S
C3419 C3420 1.523 . S
C3420 C3404 1.368 . S
C3420 C3416 1.368 . S
C3420 C3419 1.523 . S
H3421 C3396 0.950 . S
H3422 C3398 0.950 . S
H3423 C3399 0.949 . S
H3424 C3401 0.950 . S
H3425 C3403 0.950 . S
C3426 C3427 1.349 . S
C3426 C3428 1.327 . S
C3426 H3451 0.950 . S
C3427 C3426 1.349 . S
C3427 C3443 1.349 . S
C3428 C3426 1.327 . S
C3428 C3447 1.429 . S
C3428 H3452 0.950 . S
C3429 C3446 1.574 . S
C3429 C3448 1.368 . S
C3429 H3453 0.949 . S
H3430 C3434 0.949 . S
C3431 C3432 1.349 . S
C3431 C3433 1.327 . S
C3431 H3454 0.950 . S
C3432 C3431 1.349 . S
C3432 C3444 1.349 . S
C3433 C3431 1.327 . S
C3433 C3449 1.429 . S
C3433 H3455 0.950 . S
C3434 H3430 0.949 . S
C3434 C3442 1.574 . S
C3434 C3450 1.368 . S
H3435 C3443 0.950 . S
H3436 C3441 0.950 . S
H3437 C3442 0.949 . S
H3438 C3444 0.950 . S
H3439 C3445 0.950 . S
H3440 C3446 0.949 . S
C3441 H3436 0.950 . S
C3441 C3443 1.327 . S
C3441 C3447 1.429 . S
C3442 C3434 1.574 . S
C3442 H3437 0.949 . S
C3442 C3448 1.368 . S
C3443 C3427 1.349 . S
C3443 H3435 0.950 . S
C3443 C3441 1.327 . S
C3444 C3432 1.349 . S
C3444 H3438 0.950 . S
C3444 C3445 1.327 . S
C3445 H3439 0.950 . S
C3445 C3444 1.327 . S
C3445 C3449 1.429 . S
C3446 C3429 1.574 . S
C3446 H3440 0.949 . S
C3446 C3450 1.368 . S
C3447 C3428 1.429 . S
C3447 C3441 1.429 . S
C3447 C3448 1.523 . S
C3448 C3429 1.368 . S
C3448 C3442 1.368 . S
C3448 C3447 1.523 . S
C3449 C3433 1.429 . S
C3449 C3445 1.429 . S
C3449 C3450 1.523 . S
C3450 C3434 1.368 . S
C3450 C3446 1.368 . S
C3450 C3449 1.523 . S
H3451 C3426 0.950 . S
H3452 C3428 0.950 . S
H3453 C3429 0.949 . S
H3454 C3431 0.950 . S
H3455 C3433 0.950 . S
C1057 C239 0.401 . S
C1062 C8 0.401 . S
C1087 C41 0.401 . S
C1092 C140 0.401 . S
C1117 C173 0.401 . S
C1122 C74 0.401 . S
C1147 C107 0.401 . S
C1152 C206 0.401 . S
C1177 C272 0.401 . S
C1182 C503 0.401 . S
C1207 C404 0.401 . S
C1212 C305 0.401 . S
C1237 C437 0.401 . S
C1242 C338 0.401 . S
C1267 C470 0.401 . S
C1272 C371 0.401 . S
C1297 C536 0.401 . S
C1302 C767 0.401 . S
C1327 C569 0.401 . S
C1332 C668 0.401 . S
C1357 C701 0.401 . S
C1362 C602 0.401 . S
C1387 C635 0.401 . S
C1392 C734 0.401 . S
C1417 C1031 0.401 . S
C1422 C800 0.401 . S
C1447 C833 0.401 . S
C1452 C932 0.401 . S
C1477 C965 0.401 . S
C1482 C866 0.401 . S
C1507 C899 0.401 . S
C1512 C998 0.401 . S
C1537 C17 1.113 . S
C1542 C215 1.113 . S
C1567 C50 1.113 . S
C1572 C248 1.113 . S
C1597 C149 1.113 . S
C1602 C83 1.113 . S
C1627 C116 1.113 . S
C1632 C182 1.113 . S
C1657 C479 1.113 . S
C1662 C281 1.113 . S
C1687 C314 1.113 . S
C1692 C512 1.113 . S
C1717 C347 1.113 . S
C1722 C413 1.113 . S
C1747 C446 1.113 . S
C1752 C380 1.113 . S
C1777 C545 1.113 . S
C1782 C743 1.113 . S
C1807 C578 1.113 . S
C1812 C776 1.113 . S
C1837 C677 1.113 . S
C1842 C611 1.113 . S
C1867 C644 1.113 . S
C1872 C710 1.113 . S
C1897 C1007 1.113 . S
C1902 C809 1.113 . S
C1927 C1040 1.113 . S
C1932 C842 1.113 . S
C1957 C941 1.113 . S
C1962 C875 1.113 . S
C1987 C908 1.113 . S
C1992 C974 1.113 . S
C2017 C28 1.462 . S
C2022 N995 1.427 . S
C2047 N500 1.427 . S
C2052 C61 1.462 . S
C2077 C94 1.462 . S
C2082 N929 1.427 . S
C2107 C127 1.461 . S
C2112 N434 1.426 . S
C2137 N863 1.427 . S
C2142 C160 1.462 . S
C2167 C193 1.462 . S
C2172 N368 1.427 . S
C2197 C226 1.462 . S
C2202 N797 1.427 . S
C2227 C259 1.461 . S
C2232 N302 1.426 . S
C2257 N731 1.427 . S
C2262 C292 1.462 . S
C2287 N236 1.427 . S
C2292 C325 1.462 . S
C2317 C358 1.462 . S
C2322 N665 1.427 . S
C2347 N170 1.426 . S
C2352 C391 1.461 . S
C2377 C424 1.462 . S
C2382 N599 1.427 . S
C2407 C457 1.462 . S
C2412 N104 1.427 . S
C2437 N533 1.427 . S
C2442 C490 1.462 . S
C2467 N38 1.426 . S
C2472 C523 1.461 . S
C2497 N467 1.427 . S
C2502 C556 1.462 . S
C2527 C589 1.461 . S
C2532 N1028 1.426 . S
C2557 C622 1.462 . S
C2562 N401 1.427 . S
C2587 C655 1.462 . S
C2592 N962 1.427 . S
C2617 N335 1.427 . S
C2622 C688 1.462 . S
C2647 C721 1.461 . S
C2652 N896 1.426 . S
C2677 C754 1.462 . S
C2682 N269 1.427 . S
C2707 C787 1.462 . S
C2712 N830 1.427 . S
C2737 C820 1.462 . S
C2742 N203 1.427 . S
C2767 C853 1.461 . S
C2772 N764 1.426 . S
C2797 C886 1.462 . S
C2802 N137 1.427 . S
C2827 N698 1.427 . S
C2832 C919 1.462 . S
C2857 N71 1.427 . S
C2862 C952 1.462 . S
C2887 C985 1.462 . S
C2892 N632 1.426 . S
C2917 C1018 1.462 . S
C2922 N5 1.427 . S
C2947 N566 1.427 . S
C2952 C1051 1.462 . S
C2977 N14 1.828 . S
C2982 N245 1.828 . S
C3007 N47 1.828 . S
C3012 N146 1.828 . S
C3037 N80 1.828 . S
C3042 N179 1.828 . S
C3067 N113 1.828 . S
C3072 N212 1.828 . S
C3097 N509 1.828 . S
C3102 N278 1.828 . S
C3127 N410 1.828 . S
C3132 N311 1.828 . S
C3157 N443 1.828 . S
C3162 N344 1.828 . S
C3187 N476 1.828 . S
C3192 N377 1.828 . S
C3217 N773 1.828 . S
C3222 N542 1.828 . S
C3247 N674 1.828 . S
C3252 N575 1.828 . S
C3277 N707 1.828 . S
C3282 N608 1.828 . S
C3307 N641 1.828 . S
C3312 N740 1.828 . S
C3337 N806 1.828 . S
C3342 N1037 1.828 . S
C3367 N938 1.828 . S
C3372 N839 1.828 . S
C3397 N971 1.828 . S
C3402 N872 1.828 . S
C3427 N1004 1.828 . S
C3432 N905 1.828 . S
