# Generated by pormake.
# Topology ato, (4)-cn, num edge types: 1
# Building blocks:
#     Node 0, Type 0, BuildingBlock: NAHDIM_clean_sbu_0, # of connection points: 4
#     Node 1, Type 0, BuildingBlock: NAHDIM_clean_sbu_0, # of connection points: 4
#     Node 2, Type 0, BuildingBlock: NAHDIM_clean_sbu_0, # of connection points: 4
#     Node 3, Type 0, BuildingBlock: NAHDIM_clean_sbu_0, # of connection points: 4
#     Node 4, Type 0, BuildingBlock: NAHDIM_clean_sbu_0, # of connection points: 4
#     Node 5, Type 0, BuildingBlock: NAHDIM_clean_sbu_0, # of connection points: 4
#     Node 6, Type 0, BuildingBlock: NAHDIM_clean_sbu_0, # of connection points: 4
#     Node 7, Type 0, BuildingBlock: NAHDIM_clean_sbu_0, # of connection points: 4
#     Node 8, Type 0, BuildingBlock: NAHDIM_clean_sbu_0, # of connection points: 4
#     Node 9, Type 0, BuildingBlock: NAHDIM_clean_sbu_0, # of connection points: 4
#     Node 10, Type 0, BuildingBlock: NAHDIM_clean_sbu_0, # of connection points: 4
#     Node 11, Type 0, BuildingBlock: NAHDIM_clean_sbu_0, # of connection points: 4
#     Node 12, Type 0, BuildingBlock: NAHDIM_clean_sbu_0, # of connection points: 4
#     Node 13, Type 0, BuildingBlock: NAHDIM_clean_sbu_0, # of connection points: 4
#     Node 14, Type 0, BuildingBlock: NAHDIM_clean_sbu_0, # of connection points: 4
#     Node 15, Type 0, BuildingBlock: NAHDIM_clean_sbu_0, # of connection points: 4
#     Node 16, Type 0, BuildingBlock: NAHDIM_clean_sbu_0, # of connection points: 4
#     Node 17, Type 0, BuildingBlock: NAHDIM_clean_sbu_0, # of connection points: 4
#     Node 18, Type 0, BuildingBlock: NAHDIM_clean_sbu_0, # of connection points: 4
#     Node 19, Type 0, BuildingBlock: NAHDIM_clean_sbu_0, # of connection points: 4
#     Node 20, Type 0, BuildingBlock: NAHDIM_clean_sbu_0, # of connection points: 4
#     Node 21, Type 0, BuildingBlock: NAHDIM_clean_sbu_0, # of connection points: 4
#     Node 22, Type 0, BuildingBlock: NAHDIM_clean_sbu_0, # of connection points: 4
#     Node 23, Type 0, BuildingBlock: NAHDIM_clean_sbu_0, # of connection points: 4
#     Node 24, Type 0, BuildingBlock: NAHDIM_clean_sbu_0, # of connection points: 4
#     Node 25, Type 0, BuildingBlock: NAHDIM_clean_sbu_0, # of connection points: 4
#     Node 26, Type 0, BuildingBlock: NAHDIM_clean_sbu_0, # of connection points: 4
#     Node 27, Type 0, BuildingBlock: NAHDIM_clean_sbu_0, # of connection points: 4
#     Node 28, Type 0, BuildingBlock: NAHDIM_clean_sbu_0, # of connection points: 4
#     Node 29, Type 0, BuildingBlock: NAHDIM_clean_sbu_0, # of connection points: 4
#     Node 30, Type 0, BuildingBlock: NAHDIM_clean_sbu_0, # of connection points: 4
#     Node 31, Type 0, BuildingBlock: NAHDIM_clean_sbu_0, # of connection points: 4
#     Node 32, Type 0, BuildingBlock: NAHDIM_clean_sbu_0, # of connection points: 4
#     Node 33, Type 0, BuildingBlock: NAHDIM_clean_sbu_0, # of connection points: 4
#     Node 34, Type 0, BuildingBlock: NAHDIM_clean_sbu_0, # of connection points: 4
#     Node 35, Type 0, BuildingBlock: NAHDIM_clean_sbu_0, # of connection points: 4
#     Edge 36, Type (0, 0), BuildingBlock: KIFKEQ_clean_linker_1, # of connection points: 2
#     Edge 37, Type (0, 0), BuildingBlock: KIFKEQ_clean_linker_1, # of connection points: 2
#     Edge 38, Type (0, 0), BuildingBlock: KIFKEQ_clean_linker_1, # of connection points: 2
#     Edge 39, Type (0, 0), BuildingBlock: KIFKEQ_clean_linker_1, # of connection points: 2
#     Edge 40, Type (0, 0), BuildingBlock: KIFKEQ_clean_linker_1, # of connection points: 2
#     Edge 41, Type (0, 0), BuildingBlock: KIFKEQ_clean_linker_1, # of connection points: 2
#     Edge 42, Type (0, 0), BuildingBlock: KIFKEQ_clean_linker_1, # of connection points: 2
#     Edge 43, Type (0, 0), BuildingBlock: KIFKEQ_clean_linker_1, # of connection points: 2
#     Edge 44, Type (0, 0), BuildingBlock: KIFKEQ_clean_linker_1, # of connection points: 2
#     Edge 45, Type (0, 0), BuildingBlock: KIFKEQ_clean_linker_1, # of connection points: 2
#     Edge 46, Type (0, 0), BuildingBlock: KIFKEQ_clean_linker_1, # of connection points: 2
#     Edge 47, Type (0, 0), BuildingBlock: KIFKEQ_clean_linker_1, # of connection points: 2
#     Edge 48, Type (0, 0), BuildingBlock: KIFKEQ_clean_linker_1, # of connection points: 2
#     Edge 49, Type (0, 0), BuildingBlock: KIFKEQ_clean_linker_1, # of connection points: 2
#     Edge 50, Type (0, 0), BuildingBlock: KIFKEQ_clean_linker_1, # of connection points: 2
#     Edge 51, Type (0, 0), BuildingBlock: KIFKEQ_clean_linker_1, # of connection points: 2
#     Edge 52, Type (0, 0), BuildingBlock: KIFKEQ_clean_linker_1, # of connection points: 2
#     Edge 53, Type (0, 0), BuildingBlock: KIFKEQ_clean_linker_1, # of connection points: 2
#     Edge 54, Type (0, 0), BuildingBlock: KIFKEQ_clean_linker_1, # of connection points: 2
#     Edge 55, Type (0, 0), BuildingBlock: KIFKEQ_clean_linker_1, # of connection points: 2
#     Edge 56, Type (0, 0), BuildingBlock: KIFKEQ_clean_linker_1, # of connection points: 2
#     Edge 57, Type (0, 0), BuildingBlock: KIFKEQ_clean_linker_1, # of connection points: 2
#     Edge 58, Type (0, 0), BuildingBlock: KIFKEQ_clean_linker_1, # of connection points: 2
#     Edge 59, Type (0, 0), BuildingBlock: KIFKEQ_clean_linker_1, # of connection points: 2
#     Edge 60, Type (0, 0), BuildingBlock: KIFKEQ_clean_linker_1, # of connection points: 2
#     Edge 61, Type (0, 0), BuildingBlock: KIFKEQ_clean_linker_1, # of connection points: 2
#     Edge 62, Type (0, 0), BuildingBlock: KIFKEQ_clean_linker_1, # of connection points: 2
#     Edge 63, Type (0, 0), BuildingBlock: KIFKEQ_clean_linker_1, # of connection points: 2
#     Edge 64, Type (0, 0), BuildingBlock: KIFKEQ_clean_linker_1, # of connection points: 2
#     Edge 65, Type (0, 0), BuildingBlock: KIFKEQ_clean_linker_1, # of connection points: 2
#     Edge 66, Type (0, 0), BuildingBlock: KIFKEQ_clean_linker_1, # of connection points: 2
#     Edge 67, Type (0, 0), BuildingBlock: KIFKEQ_clean_linker_1, # of connection points: 2
#     Edge 68, Type (0, 0), BuildingBlock: KIFKEQ_clean_linker_1, # of connection points: 2
#     Edge 69, Type (0, 0), BuildingBlock: KIFKEQ_clean_linker_1, # of connection points: 2
#     Edge 70, Type (0, 0), BuildingBlock: KIFKEQ_clean_linker_1, # of connection points: 2
#     Edge 71, Type (0, 0), BuildingBlock: KIFKEQ_clean_linker_1, # of connection points: 2
#     Edge 72, Type (0, 0), BuildingBlock: KIFKEQ_clean_linker_1, # of connection points: 2
#     Edge 73, Type (0, 0), BuildingBlock: KIFKEQ_clean_linker_1, # of connection points: 2
#     Edge 74, Type (0, 0), BuildingBlock: KIFKEQ_clean_linker_1, # of connection points: 2
#     Edge 75, Type (0, 0), BuildingBlock: KIFKEQ_clean_linker_1, # of connection points: 2
#     Edge 76, Type (0, 0), BuildingBlock: KIFKEQ_clean_linker_1, # of connection points: 2
#     Edge 77, Type (0, 0), BuildingBlock: KIFKEQ_clean_linker_1, # of connection points: 2
#     Edge 78, Type (0, 0), BuildingBlock: KIFKEQ_clean_linker_1, # of connection points: 2
#     Edge 79, Type (0, 0), BuildingBlock: KIFKEQ_clean_linker_1, # of connection points: 2
#     Edge 80, Type (0, 0), BuildingBlock: KIFKEQ_clean_linker_1, # of connection points: 2
#     Edge 81, Type (0, 0), BuildingBlock: KIFKEQ_clean_linker_1, # of connection points: 2
#     Edge 82, Type (0, 0), BuildingBlock: KIFKEQ_clean_linker_1, # of connection points: 2
#     Edge 83, Type (0, 0), BuildingBlock: KIFKEQ_clean_linker_1, # of connection points: 2
#     Edge 84, Type (0, 0), BuildingBlock: KIFKEQ_clean_linker_1, # of connection points: 2
#     Edge 85, Type (0, 0), BuildingBlock: KIFKEQ_clean_linker_1, # of connection points: 2
#     Edge 86, Type (0, 0), BuildingBlock: KIFKEQ_clean_linker_1, # of connection points: 2
#     Edge 87, Type (0, 0), BuildingBlock: KIFKEQ_clean_linker_1, # of connection points: 2
#     Edge 88, Type (0, 0), BuildingBlock: KIFKEQ_clean_linker_1, # of connection points: 2
#     Edge 89, Type (0, 0), BuildingBlock: KIFKEQ_clean_linker_1, # of connection points: 2
#     Edge 90, Type (0, 0), BuildingBlock: KIFKEQ_clean_linker_1, # of connection points: 2
#     Edge 91, Type (0, 0), BuildingBlock: KIFKEQ_clean_linker_1, # of connection points: 2
#     Edge 92, Type (0, 0), BuildingBlock: KIFKEQ_clean_linker_1, # of connection points: 2
#     Edge 93, Type (0, 0), BuildingBlock: KIFKEQ_clean_linker_1, # of connection points: 2
#     Edge 94, Type (0, 0), BuildingBlock: KIFKEQ_clean_linker_1, # of connection points: 2
#     Edge 95, Type (0, 0), BuildingBlock: KIFKEQ_clean_linker_1, # of connection points: 2
#     Edge 96, Type (0, 0), BuildingBlock: KIFKEQ_clean_linker_1, # of connection points: 2
#     Edge 97, Type (0, 0), BuildingBlock: KIFKEQ_clean_linker_1, # of connection points: 2
#     Edge 98, Type (0, 0), BuildingBlock: KIFKEQ_clean_linker_1, # of connection points: 2
#     Edge 99, Type (0, 0), BuildingBlock: KIFKEQ_clean_linker_1, # of connection points: 2
#     Edge 100, Type (0, 0), BuildingBlock: KIFKEQ_clean_linker_1, # of connection points: 2
#     Edge 101, Type (0, 0), BuildingBlock: KIFKEQ_clean_linker_1, # of connection points: 2
#     Edge 102, Type (0, 0), BuildingBlock: KIFKEQ_clean_linker_1, # of connection points: 2
#     Edge 103, Type (0, 0), BuildingBlock: KIFKEQ_clean_linker_1, # of connection points: 2
#     Edge 104, Type (0, 0), BuildingBlock: KIFKEQ_clean_linker_1, # of connection points: 2
#     Edge 105, Type (0, 0), BuildingBlock: KIFKEQ_clean_linker_1, # of connection points: 2
#     Edge 106, Type (0, 0), BuildingBlock: KIFKEQ_clean_linker_1, # of connection points: 2
#     Edge 107, Type (0, 0), BuildingBlock: KIFKEQ_clean_linker_1, # of connection points: 2
# Relax obj value: 0.059
# Max RMSD: 0.065
# Mean RMSD: 0.064
data_MOF--net-ato--node1-NAHDIM_clean_sbu_0--edge1-KIFKEQ_clean_linker_1
_symmetry_space_group_name_H-M    P1
_symmetry_Int_Tables_number       1
_symmetry_cell_setting            triclinic
loop_
_symmetry_equiv_pos_as_xyz
'x, y, z'
_cell_length_a     102.75699
_cell_length_b     102.76245
_cell_length_c     24.827296
_cell_angle_alpha  89.997875
_cell_angle_beta   90.012722
_cell_angle_gamma 119.99501
loop_
_atom_site_label
_atom_site_type_symbol
_atom_site_fract_x
_atom_site_fract_y
_atom_site_fract_z
_atom_type_partial_charge
C0 C 0.23035 0.02779 0.31861 0.0
O1 O 0.22005 0.02595 0.28326 0.0
O2 O 0.24429 0.06511 0.24336 0.0
Zn3 Zn 0.24889 0.04826 0.23806 0.0
O4 O 0.23694 0.03351 0.17967 0.0
C5 C 0.27657 0.06826 0.1876 0.0
O6 O 0.26777 0.07258 0.16518 0.0
O7 O 0.24405 0.03711 0.30843 0.0
C8 C 0.23302 0.03682 0.13556 0.0
O9 O 0.23675 0.05083 0.12595 0.0
C10 C 0.23159 0.06426 0.23788 0.0
O11 O 0.21962 0.05118 0.22813 0.0
O12 O 0.27096 0.05749 0.22127 0.0
C13 C 0.97178 0.2003 0.32025 0.0
O14 O 0.97342 0.19171 0.28487 0.0
O15 O 0.93385 0.1732 0.25603 0.0
Zn16 Zn 0.94842 0.1953 0.24768 0.0
O17 O 0.96216 0.19921 0.18459 0.0
C18 C 0.92932 0.20406 0.19342 0.0
O19 O 0.92958 0.19512 0.15614 0.0
O20 O 0.9613 0.20331 0.31361 0.0
C21 C 0.9682 0.21194 0.16149 0.0
O22 O 0.96512 0.22219 0.17864 0.0
C23 C 0.93001 0.16422 0.21631 0.0
O24 O 0.93615 0.16939 0.16899 0.0
O25 O 0.93663 0.20594 0.23681 0.0
C26 C 0.79529 0.76267 0.35375 0.0
O27 O 0.80085 0.77262 0.31476 0.0
O28 O 0.81894 0.74838 0.27114 0.0
Zn29 Zn 0.79764 0.74417 0.27268 0.0
O30 O 0.79427 0.75614 0.21592 0.0
C31 C 0.78584 0.71665 0.2147 0.0
O32 O 0.79664 0.72552 0.18165 0.0
O33 O 0.79292 0.74946 0.34533 0.0
C34 C 0.80173 0.76067 0.17242 0.0
O35 O 0.8125 0.75762 0.16277 0.0
C36 C 0.83038 0.76133 0.27773 0.0
O37 O 0.82851 0.77291 0.28608 0.0
O38 O 0.78391 0.72213 0.25785 0.0
C39 C 0.04373 0.24306 0.633 0.0
O40 O 0.05796 0.24704 0.6275 0.0
O41 O 0.06654 0.24177 0.73851 0.0
Zn42 Zn 0.05137 0.24864 0.74611 0.0
O43 O 0.03743 0.23899 0.80852 0.0
C44 C 0.07506 0.2777 0.77967 0.0
O45 O 0.08173 0.26996 0.79086 0.0
O46 O 0.03868 0.24322 0.67952 0.0
C47 C 0.04183 0.23993 0.8569 0.0
O48 O 0.0563 0.24681 0.86742 0.0
C49 C 0.06628 0.23071 0.76247 0.0
O50 O 0.05513 0.22235 0.79511 0.0
O51 O 0.06203 0.27102 0.75861 0.0
C52 C 0.76763 0.79121 0.70666 0.0
O53 O 0.76782 0.78478 0.75216 0.0
O54 O 0.76453 0.82971 0.76793 0.0
Zn55 Zn 0.75852 0.80795 0.7753 0.0
O56 O 0.76898 0.8048 0.83836 0.0
C57 C 0.72733 0.80056 0.77432 0.0
O58 O 0.73296 0.81407 0.75353 0.0
O59 O 0.764 0.80136 0.7071 0.0
C60 C 0.76208 0.79998 0.8828 0.0
O61 O 0.74836 0.79769 0.88753 0.0
C62 C 0.76818 0.83871 0.80748 0.0
O63 O 0.76864 0.83392 0.8561 0.0
O64 O 0.73607 0.79555 0.7858 0.0
C65 C 0.19884 0.96674 0.66079 0.0
O66 O 0.18843 0.96677 0.69139 0.0
O67 O 0.17567 0.93037 0.73211 0.0
Zn68 Zn 0.19697 0.94701 0.74337 0.0
O69 O 0.19884 0.96137 0.80186 0.0
C70 C 0.2034 0.92589 0.7932 0.0
O71 O 0.1895 0.92063 0.80959 0.0
O72 O 0.20455 0.95877 0.6747 0.0
C73 C 0.19254 0.95762 0.8477 0.0
O74 O 0.18366 0.94333 0.85883 0.0
C75 C 0.16355 0.93045 0.74152 0.0
O76 O 0.16414 0.94263 0.76076 0.0
O77 O 0.20941 0.93753 0.76346 0.0
C78 C 0.76627 0.96813 0.66998 0.0
O79 O 0.77625 0.96935 0.7057 0.0
O80 O 0.75254 0.93247 0.75036 0.0
Zn81 Zn 0.74646 0.94827 0.74991 0.0
O82 O 0.75637 0.96307 0.81018 0.0
C83 C 0.71745 0.94176 0.79304 0.0
O84 O 0.72557 0.95363 0.82309 0.0
O85 O 0.75241 0.95946 0.67979 0.0
C86 C 0.75714 0.95916 0.8581 0.0
O87 O 0.75163 0.94485 0.86923 0.0
C88 C 0.7649 0.93417 0.76816 0.0
O89 O 0.77503 0.94726 0.78752 0.0
O90 O 0.72392 0.93773 0.75867 0.0
C91 C 0.02697 0.79235 0.66841 0.0
O92 O 0.02338 0.79708 0.71205 0.0
O93 O 0.06832 0.81949 0.73214 0.0
Zn94 Zn 0.05212 0.79777 0.73413 0.0
O95 O 0.0394 0.79316 0.80045 0.0
C96 C 0.07202 0.79 0.77963 0.0
O97 O 0.07416 0.80155 0.809 0.0
O98 O 0.03908 0.79184 0.66783 0.0
C99 C 0.03871 0.80269 0.8311 0.0
O100 O 0.04655 0.81706 0.81937 0.0
C101 C 0.06757 0.83082 0.71592 0.0
O102 O 0.0548 0.829 0.69728 0.0
O103 O 0.06255 0.78571 0.74133 0.0
C104 C 0.19756 0.22739 0.66895 0.0
O105 O 0.18787 0.21713 0.70196 0.0
O106 O 0.17493 0.24122 0.74356 0.0
Zn107 Zn 0.19646 0.24629 0.75 0.0
O108 O 0.19915 0.23465 0.80962 0.0
C109 C 0.20326 0.27567 0.7851 0.0
O110 O 0.18878 0.26839 0.79537 0.0
O111 O 0.20297 0.24117 0.68074 0.0
C112 C 0.19839 0.23749 0.85892 0.0
O113 O 0.19523 0.24802 0.87155 0.0
C114 C 0.16336 0.22923 0.75896 0.0
O115 O 0.16489 0.21837 0.78025 0.0
O116 O 0.2093 0.26853 0.76534 0.0
C117 C 0.95728 0.75662 0.34777 0.0
O118 O 0.94306 0.74628 0.35293 0.0
O119 O 0.93313 0.75956 0.23485 0.0
Zn120 Zn 0.95004 0.75513 0.23381 0.0
O121 O 0.96366 0.76566 0.17151 0.0
C122 C 0.93695 0.72721 0.17735 0.0
O123 O 0.93964 0.73627 0.13627 0.0
O124 O 0.96239 0.76191 0.3014 0.0
C125 C 0.97456 0.76335 0.16371 0.0
O126 O 0.97639 0.75438 0.19667 0.0
C127 C 0.93167 0.76842 0.26669 0.0
O128 O 0.94216 0.77603 0.30262 0.0
O129 O 0.94075 0.73275 0.22435 0.0
C130 C 0.22982 0.19597 0.33261 0.0
O131 O 0.21972 0.18533 0.30169 0.0
O132 O 0.24229 0.17334 0.25896 0.0
Zn133 Zn 0.24839 0.19517 0.25055 0.0
O134 O 0.23699 0.19826 0.19067 0.0
C135 C 0.27714 0.20085 0.21222 0.0
O136 O 0.26913 0.18657 0.19932 0.0
O137 O 0.24358 0.20221 0.31916 0.0
C138 C 0.24069 0.19893 0.14149 0.0
O139 O 0.25208 0.19712 0.12866 0.0
C140 C 0.23256 0.16264 0.23032 0.0
O141 O 0.22533 0.16549 0.19276 0.0
O142 O 0.2707 0.20719 0.23518 0.0
C143 C 0.79966 0.03161 0.33363 0.0
O144 O 0.81033 0.03213 0.30294 0.0
O145 O 0.82243 0.06702 0.25956 0.0
Zn146 Zn 0.80052 0.05157 0.25296 0.0
O147 O 0.7969 0.03772 0.19025 0.0
C148 C 0.79454 0.07359 0.20905 0.0
O149 O 0.80739 0.07751 0.18519 0.0
O150 O 0.79358 0.03929 0.32046 0.0
C151 C 0.78518 0.03322 0.16157 0.0
O152 O 0.77563 0.03777 0.1732 0.0
C153 C 0.83292 0.06667 0.23376 0.0
O154 O 0.82969 0.0553 0.20161 0.0
O155 O 0.7891 0.06254 0.24151 0.0
C156 C 0.8927 0.36342 0.67294 0.0
O157 O 0.8822 0.36327 0.64228 0.0
O158 O 0.90526 0.39876 0.595 0.0
Zn159 Zn 0.91131 0.38298 0.5896 0.0
O160 O 0.90034 0.36883 0.52869 0.0
C161 C 0.93866 0.3968 0.5281 0.0
O162 O 0.92917 0.39374 0.48819 0.0
O163 O 0.90636 0.37129 0.65866 0.0
C164 C 0.90291 0.3582 0.51892 0.0
O165 O 0.9124 0.35658 0.54975 0.0
C166 C 0.90134 0.40321 0.55354 0.0
O167 O 0.90095 0.39714 0.50658 0.0
O168 O 0.93361 0.39317 0.57579 0.0
C169 C 0.63245 0.53063 0.64648 0.0
O170 O 0.63194 0.52035 0.61368 0.0
O171 O 0.59714 0.50861 0.56921 0.0
Zn172 Zn 0.6119 0.53081 0.56886 0.0
O173 O 0.62507 0.53668 0.50326 0.0
C174 C 0.5926 0.5399 0.52276 0.0
O175 O 0.5924 0.53079 0.48522 0.0
O176 O 0.6247 0.5368 0.63555 0.0
C177 C 0.62742 0.52773 0.47509 0.0
O178 O 0.62124 0.51356 0.4894 0.0
C179 C 0.59068 0.50217 0.61287 0.0
O180 O 0.59415 0.51013 0.6574 0.0
O181 O 0.60033 0.54181 0.56507 0.0
C182 C 0.4696 0.10525 0.66167 0.0
O183 O 0.47811 0.11549 0.62626 0.0
O184 O 0.49102 0.08916 0.5824 0.0
Zn185 Zn 0.47001 0.08583 0.58029 0.0
O186 O 0.46784 0.09819 0.52227 0.0
C187 C 0.45977 0.05582 0.54122 0.0
O188 O 0.47397 0.06176 0.52762 0.0
O189 O 0.46482 0.09149 0.65118 0.0
C190 C 0.46923 0.09593 0.47287 0.0
O191 O 0.4728 0.08572 0.45976 0.0
C192 C 0.50291 0.10164 0.57408 0.0
O193 O 0.50192 0.11366 0.56388 0.0
O194 O 0.45542 0.06396 0.56486 0.0
C195 C 0.69562 0.55989 0.98424 0.0
O196 O 0.6957 0.54957 0.01526 0.0
O197 O 0.73216 0.57592 0.06384 0.0
Zn198 Zn 0.71449 0.57919 0.06832 0.0
O199 O 0.70072 0.56726 0.12894 0.0
C200 C 0.72779 0.60592 0.13054 0.0
O201 O 0.72728 0.59636 0.1668 0.0
O202 O 0.70306 0.57358 -0.00142 0.0
C203 C 0.6895 0.56895 0.13812 0.0
O204 O 0.68723 0.57795 0.10688 0.0
C205 C 0.73276 0.5651 0.08614 0.0
O206 O 0.72101 0.55487 0.11259 0.0
O207 O 0.72264 0.60112 0.08367 0.0
C208 C 0.43692 0.13559 -0.00083 0.0
O209 O 0.44687 0.14605 0.03098 0.0
O210 O 0.42242 0.15689 0.07458 0.0
Zn211 Zn 0.41756 0.13541 0.08079 0.0
O212 O 0.42935 0.13304 0.14059 0.0
C213 C 0.38799 0.12802 0.1155 0.0
O214 O 0.39507 0.14244 0.12668 0.0
O215 O 0.4231 0.1292 0.0119 0.0
C216 C 0.4262 0.13335 0.18986 0.0
O217 O 0.41505 0.13559 0.20245 0.0
C218 C 0.43413 0.16822 0.09314 0.0
O219 O 0.44442 0.1663 0.11726 0.0
O220 O 0.39532 0.12224 0.09533 0.0
C221 C 0.86476 0.30059 0.0112 0.0
O222 O 0.85451 0.30006 0.04415 0.0
O223 O 0.84249 0.26578 0.0886 0.0
Zn224 Zn 0.8648 0.28004 0.08865 0.0
O225 O 0.87102 0.29326 0.15419 0.0
C226 C 0.87336 0.26034 0.13471 0.0
O227 O 0.86466 0.26066 0.1729 0.0
O228 O 0.87094 0.29283 0.02195 0.0
C229 C 0.86203 0.29532 0.18329 0.0
O230 O 0.84777 0.28883 0.16993 0.0
C231 C 0.83589 0.25932 0.04515 0.0
O232 O 0.84378 0.26239 0.00058 0.0
O233 O 0.87524 0.26793 0.09207 0.0
C234 C 0.43145 0.30705 0.01702 0.0
O235 O 0.43962 0.31351 0.05996 0.0
O236 O 0.42356 0.26645 0.07844 0.0
Zn237 Zn 0.41657 0.28147 0.08833 0.0
O238 O 0.42714 0.2954 0.15048 0.0
C239 C 0.38789 0.25727 0.12359 0.0
O240 O 0.39606 0.25105 0.1347 0.0
O241 O 0.42088 0.29347 0.01986 0.0
C242 C 0.42363 0.29145 0.19923 0.0
O243 O 0.41296 0.27768 0.20999 0.0
C244 C 0.43274 0.26515 0.1092 0.0
O245 O 0.43872 0.27437 0.1501 0.0
O246 O 0.3942 0.27034 0.10287 0.0
C247 C 0.6951 0.13005 0.99616 0.0
O248 O 0.69463 0.14015 0.02728 0.0
O249 O 0.73334 0.15579 0.05778 0.0
Zn250 Zn 0.71718 0.13451 0.07279 0.0
O251 O 0.70325 0.13281 0.13247 0.0
C252 C 0.73962 0.12907 0.11768 0.0
O253 O 0.74569 0.14341 0.12942 0.0
O254 O 0.70449 0.12579 0.00682 0.0
C255 C 0.70696 0.13829 0.17951 0.0
O256 O 0.72125 0.14642 0.19211 0.0
C257 C 0.73374 0.16782 0.07264 0.0
O258 O 0.72242 0.16707 0.09982 0.0
O259 O 0.72711 0.12254 0.09296 0.0
C260 C 0.86564 0.56613 -0.00083 0.0
O261 O 0.85537 0.55622 0.03165 0.0
O262 O 0.84394 0.57993 0.07377 0.0
Zn263 Zn 0.86577 0.58581 0.07959 0.0
O264 O 0.86926 0.5749 0.14043 0.0
C265 C 0.87367 0.61557 0.11619 0.0
O266 O 0.86003 0.6084 0.13643 0.0
O267 O 0.87186 0.57999 0.01108 0.0
C268 C 0.87214 0.57998 0.18825 0.0
O269 O 0.87254 0.59266 0.19937 0.0
C270 C 0.83432 0.57318 0.11075 0.0
O271 O 0.83853 0.56961 0.15568 0.0
O272 O 0.87852 0.60824 0.08998 0.0
C273 C 0.62305 0.0879 0.68408 0.0
O274 O 0.60912 0.08503 0.68866 0.0
O275 O 0.60014 0.08911 0.58054 0.0
Zn276 Zn 0.61607 0.08336 0.5701 0.0
O277 O 0.6306 0.09541 0.51163 0.0
C278 C 0.59309 0.05469 0.53046 0.0
O279 O 0.58606 0.06226 0.52279 0.0
O280 O 0.6281 0.08744 0.63788 0.0
C281 C 0.62688 0.09678 0.46409 0.0
O282 O 0.61258 0.09026 0.45119 0.0
C283 C 0.60064 0.10109 0.56445 0.0
O284 O 0.61262 0.11134 0.53914 0.0
O285 O 0.60621 0.06136 0.55076 0.0
C286 C 0.89648 0.53264 0.66455 0.0
O287 O 0.88625 0.52235 0.63294 0.0
O288 O 0.90916 0.51015 0.58827 0.0
Zn289 Zn 0.91518 0.53199 0.58221 0.0
O290 O 0.90423 0.53564 0.52234 0.0
C291 C 0.94393 0.53778 0.54445 0.0
O292 O 0.9359 0.52355 0.53104 0.0
O293 O 0.91023 0.53862 0.65138 0.0
C294 C 0.90688 0.53462 0.47301 0.0
O295 O 0.91668 0.53046 0.46034 0.0
C296 C 0.89836 0.49932 0.56346 0.0
O297 O 0.88966 0.50198 0.53205 0.0
O298 O 0.9375 0.54409 0.5677 0.0
C299 C 0.45838 0.3624 0.66268 0.0
O300 O 0.46171 0.35662 0.62138 0.0
O301 O 0.48591 0.40083 0.58122 0.0
Zn302 Zn 0.46394 0.3852 0.58482 0.0
O303 O 0.45824 0.36981 0.52625 0.0
C304 C 0.45652 0.40524 0.53443 0.0
O305 O 0.4683 0.40768 0.50592 0.0
O306 O 0.45868 0.37484 0.65698 0.0
C307 C 0.46731 0.3695 0.49218 0.0
O308 O 0.48158 0.37986 0.49404 0.0
C309 C 0.49588 0.40219 0.61461 0.0
O310 O 0.49214 0.39253 0.65437 0.0
O311 O 0.45215 0.39571 0.5725 0.0
C312 C 0.57082 0.69617 0.97507 0.0
O313 O 0.56297 0.68998 0.93125 0.0
O314 O 0.58197 0.7355 0.89652 0.0
Zn315 Zn 0.58863 0.72017 0.90127 0.0
O316 O 0.58051 0.70563 0.83929 0.0
C317 C 0.61613 0.73896 0.85072 0.0
O318 O 0.60651 0.73879 0.8154 0.0
O319 O 0.58239 0.70917 0.97218 0.0
C320 C 0.571 0.70512 0.80538 0.0
O321 O 0.56562 0.71426 0.81086 0.0
C322 C 0.57097 0.73502 0.92162 0.0
O323 O 0.56267 0.72354 0.95314 0.0
O324 O 0.61111 0.73143 0.89393 0.0
C325 C 0.30004 0.86412 -0.00109 0.0
O326 O 0.29835 0.85245 0.97136 0.0
O327 O 0.26621 0.84175 0.92339 0.0
Zn328 Zn 0.28118 0.86384 0.91528 0.0
O329 O 0.29536 0.86738 0.85387 0.0
C330 C 0.25706 0.869 0.88388 0.0
O331 O 0.25035 0.85458 0.87295 0.0
O332 O 0.29346 0.87108 0.98275 0.0
C333 C 0.29347 0.87145 0.80759 0.0
O334 O 0.28175 0.87308 0.79904 0.0
C335 C 0.26331 0.83227 0.88584 0.0
O336 O 0.27045 0.83686 0.83974 0.0
O337 O 0.27032 0.87546 0.90294 0.0
C338 C 0.13275 0.43384 0.99075 0.0
O339 O 0.14403 0.44432 0.9631 0.0
O340 O 0.15486 0.42155 0.9114 0.0
Zn341 Zn 0.13343 0.41668 0.90323 0.0
O342 O 0.13106 0.42911 0.84614 0.0
C343 C 0.12304 0.3852 0.9072 0.0
O344 O 0.1324 0.38952 0.94812 0.0
O345 O 0.12612 0.42044 0.97315 0.0
C346 C 0.13491 0.42908 0.79758 0.0
O347 O 0.14126 0.42114 0.78452 0.0
C348 C 0.16658 0.43327 0.89508 0.0
O349 O 0.1653 0.44388 0.87038 0.0
O350 O 0.12122 0.39494 0.88207 0.0
C351 C 0.36305 0.89773 0.33629 0.0
O352 O 0.35968 0.88822 0.37633 0.0
O353 O 0.40114 0.91337 0.41705 0.0
Zn354 Zn 0.38411 0.91764 0.41385 0.0
O355 O 0.36917 0.90661 0.47252 0.0
C356 C 0.38982 0.94617 0.46081 0.0
O357 O 0.37902 0.93768 0.4945 0.0
O358 O 0.37349 0.91126 0.34249 0.0
C359 C 0.37286 0.90551 0.52039 0.0
O360 O 0.38717 0.91173 0.53295 0.0
C361 C 0.40009 0.90052 0.41665 0.0
O362 O 0.38678 0.88839 0.41359 0.0
O363 O 0.39331 0.94004 0.42332 0.0
C364 C 0.09801 0.46159 0.3293 0.0
O365 O 0.10781 0.46961 0.36672 0.0
O366 O 0.08364 0.48508 0.40043 0.0
Zn367 Zn 0.07849 0.46347 0.40565 0.0
O368 O 0.08947 0.46004 0.46616 0.0
C369 C 0.05026 0.45443 0.45553 0.0
O370 O 0.05883 0.46648 0.48422 0.0
O371 O 0.08424 0.45747 0.33656 0.0
C372 C 0.09326 0.46707 0.5107 0.0
O373 O 0.08998 0.47768 0.52015 0.0
C374 C 0.09637 0.49655 0.41 0.0
O375 O 0.10765 0.49479 0.42501 0.0
O376 O 0.0562 0.45067 0.41822 0.0
C377 C 0.53754 0.64049 0.32833 0.0
O378 O 0.53416 0.64636 0.36924 0.0
O379 O 0.50669 0.60086 0.39556 0.0
Zn380 Zn 0.52877 0.61569 0.40209 0.0
O381 O 0.53278 0.62957 0.4648 0.0
C382 C 0.53868 0.59807 0.45988 0.0
O383 O 0.53056 0.59938 0.49806 0.0
O384 O 0.53612 0.62752 0.33323 0.0
C385 C 0.54624 0.63785 0.48057 0.0
O386 O 0.55711 0.63725 0.45491 0.0
C387 C 0.49769 0.59744 0.43502 0.0
O388 O 0.50281 0.60407 0.48171 0.0
O389 O 0.53965 0.6042 0.41444 0.0
C390 C 0.10242 0.63413 0.33982 0.0
O391 O 0.11253 0.63601 0.37605 0.0
O392 O 0.08767 0.59609 0.41309 0.0
Zn393 Zn 0.08355 0.6132 0.41876 0.0
O394 O 0.09586 0.62754 0.47749 0.0
C395 C 0.05488 0.59205 0.46185 0.0
O396 O 0.06262 0.58562 0.47627 0.0
O397 O 0.0887 0.62459 0.34878 0.0
C398 C 0.09466 0.62378 0.52674 0.0
O399 O 0.08529 0.6098 0.5405 0.0
C400 C 0.10021 0.59648 0.41544 0.0
O401 O 0.11266 0.60942 0.42106 0.0
O402 O 0.06146 0.60439 0.43599 0.0
C403 C 0.36315 0.46922 0.32484 0.0
O404 O 0.36421 0.48067 0.35216 0.0
O405 O 0.39776 0.49154 0.4024 0.0
Zn406 Zn 0.3816 0.46991 0.41085 0.0
O407 O 0.36716 0.46732 0.46975 0.0
C408 C 0.40442 0.46385 0.44927 0.0
O409 O 0.41149 0.47839 0.45815 0.0
O410 O 0.36996 0.46259 0.34204 0.0
C411 C 0.37133 0.47095 0.51823 0.0
O412 O 0.38566 0.47705 0.53029 0.0
C413 C 0.3975 0.50289 0.42139 0.0
O414 O 0.38557 0.50099 0.4476 0.0
O415 O 0.39131 0.45755 0.42891 0.0
C416 C 0.52994 0.89542 0.34238 0.0
O417 O 0.51952 0.88539 0.37409 0.0
O418 O 0.5089 0.91022 0.41891 0.0
Zn419 Zn 0.53011 0.91428 0.42544 0.0
O420 O 0.53215 0.90192 0.48373 0.0
C421 C 0.54168 0.94584 0.41642 0.0
O422 O 0.53183 0.94124 0.37702 0.0
O423 O 0.53638 0.9092 0.35571 0.0
C424 C 0.52681 0.90067 0.53078 0.0
O425 O 0.51934 0.90759 0.54257 0.0
C426 C 0.49699 0.89828 0.43248 0.0
O427 O 0.49792 0.88698 0.45289 0.0
O428 O 0.54333 0.93618 0.44296 0.0
C429 C 0.30144 0.43438 0.98467 0.0
O430 O 0.30459 0.44392 0.94485 0.0
O431 O 0.26302 0.41927 0.90788 0.0
Zn432 Zn 0.28005 0.41489 0.90777 0.0
O433 O 0.29487 0.42594 0.84873 0.0
C434 C 0.26143 0.38711 0.85713 0.0
O435 O 0.25815 0.39599 0.82946 0.0
O436 O 0.29099 0.42085 0.97865 0.0
C437 C 0.29244 0.43175 0.80757 0.0
O438 O 0.27924 0.43067 0.8013 0.0
C439 C 0.26393 0.43203 0.91215 0.0
O440 O 0.27717 0.44416 0.91729 0.0
O441 O 0.27109 0.39271 0.89474 0.0
C442 C 0.55956 0.86296 0.00277 0.0
O443 O 0.54926 0.85473 0.96706 0.0
O444 O 0.57581 0.84143 0.92285 0.0
Zn445 Zn 0.5786 0.86224 0.9209 0.0
O446 O 0.56595 0.86441 0.86415 0.0
C447 C 0.6075 0.8728 0.87315 0.0
O448 O 0.6007 0.85906 0.85385 0.0
O449 O 0.57327 0.86745 0.99235 0.0
C450 C 0.56261 0.8577 0.81903 0.0
O451 O 0.56724 0.84818 0.8078 0.0
C452 C 0.56347 0.82907 0.92068 0.0
O453 O 0.55076 0.82917 0.91727 0.0
O454 O 0.60026 0.87688 0.90367 0.0
C455 C 0.13522 0.69661 0.00084 0.0
O456 O 0.1463 0.69738 0.97197 0.0
O457 O 0.15775 0.73176 0.92568 0.0
Zn458 Zn 0.13619 0.7155 0.91646 0.0
O459 O 0.13409 0.70118 0.85758 0.0
C460 C 0.13018 0.73828 0.87732 0.0
O461 O 0.1448 0.74542 0.87018 0.0
O462 O 0.12881 0.70379 0.98523 0.0
C463 C 0.13433 0.70459 0.80828 0.0
O464 O 0.13649 0.71794 0.79562 0.0
C465 C 0.16899 0.73188 0.90386 0.0
O466 O 0.16695 0.72037 0.87456 0.0
O467 O 0.12376 0.72511 0.89727 0.0
H468 H 0.18744 0.98331 0.61722 0.0
H469 H 0.22139 0.97083 0.59188 0.0
H470 H 0.1954 0.99829 0.5352 0.0
H471 H 0.22924 0.98575 0.50932 0.0
H472 H 0.24881 0.02713 0.39688 0.0
H473 H 0.24141 0.01249 0.48013 0.0
H474 H 0.19469 0.99384 0.43731 0.0
H475 H 0.20201 0.00853 0.35457 0.0
C476 C 0.19659 0.98374 0.59413 0.0
C477 C 0.20377 0.97585 0.61102 0.0
C478 C 0.20109 0.99227 0.54698 0.0
C479 C 0.21291 0.99316 0.51577 0.0
C480 C 0.22019 0.98538 0.53284 0.0
C481 C 0.21563 0.97677 0.57993 0.0
C482 C 0.23696 0.01992 0.40529 0.0
C483 C 0.226 0.01901 0.36916 0.0
C484 C 0.23274 0.01148 0.45279 0.0
C485 C 0.21747 0.00204 0.46524 0.0
C486 C 0.20653 0.00116 0.42912 0.0
C487 C 0.21074 0.00952 0.38157 0.0
H488 H 0.05049 0.24062 0.5282 0.0
H489 H 0.01363 0.23317 0.63209 0.0
H490 H 0.03322 0.23076 0.45201 0.0
H491 H 0.99638 0.22306 0.55632 0.0
H492 H 0.97234 0.21946 0.39783 0.0
H493 H 0.99007 0.23056 0.47206 0.0
H494 H 0.01266 0.20674 0.4209 0.0
H495 H 0.99513 0.19589 0.34602 0.0
C496 C 0.03872 0.2369 0.53479 0.0
C497 C 0.03344 0.23766 0.58622 0.0
C498 C 0.02881 0.23116 0.49121 0.0
C499 C 0.01342 0.22608 0.49816 0.0
C500 C 0.0082 0.22704 0.54946 0.0
C501 C 0.01809 0.23278 0.59297 0.0
C502 C 0.98108 0.21658 0.40243 0.0
C503 C 0.98231 0.20678 0.36605 0.0
C504 C 0.99121 0.2229 0.4451 0.0
C505 C 0.00279 0.21955 0.45235 0.0
C506 C 0.004 0.20973 0.41597 0.0
C507 C 0.99388 0.20342 0.37328 0.0
H508 H 0.80091 0.79034 0.3865 0.0
H509 H 0.78133 0.74428 0.4399 0.0
H510 H 0.79454 0.79713 0.47237 0.0
H511 H 0.77459 0.75102 0.52542 0.0
H512 H 0.77839 0.7719 0.69205 0.0
H513 H 0.78546 0.76505 0.60743 0.0
H514 H 0.77267 0.79341 0.52077 0.0
H515 H 0.766 0.80056 0.60526 0.0
C516 C 0.79519 0.78164 0.4165 0.0
C517 C 0.79159 0.76676 0.40633 0.0
C518 C 0.79146 0.78552 0.46564 0.0
C519 C 0.78397 0.7746 0.50567 0.0
C520 C 0.7805 0.75974 0.49568 0.0
C521 C 0.78429 0.75586 0.44655 0.0
C522 C 0.77709 0.77667 0.65492 0.0
C523 C 0.77168 0.78681 0.6554 0.0
C524 C 0.78107 0.77268 0.60639 0.0
C525 C 0.77967 0.77871 0.55733 0.0
C526 C 0.77414 0.78876 0.5579 0.0
C527 C 0.77023 0.79279 0.60636 0.0
H528 H 0.79497 0.98691 0.63563 0.0
H529 H 0.74852 0.96953 0.59073 0.0
H530 H 0.80297 0.00211 0.55401 0.0
H531 H 0.75656 0.98461 0.50875 0.0
H532 H 0.77702 0.02696 0.40269 0.0
H533 H 0.76895 0.01138 0.48343 0.0
H534 H 0.80291 0.99909 0.45554 0.0
H535 H 0.81114 0.01482 0.37514 0.0
C536 C 0.78646 0.98627 0.60825 0.0
C537 C 0.77111 0.97703 0.61973 0.0
C538 C 0.79106 0.99493 0.56135 0.0
C539 C 0.7804 0.99457 0.52502 0.0
C540 C 0.76504 0.98526 0.53632 0.0
C541 C 0.76044 0.97656 0.58313 0.0
C542 C 0.78278 0.02094 0.41377 0.0
C543 C 0.79474 0.02214 0.38254 0.0
C544 C 0.77809 0.01194 0.45984 0.0
C545 C 0.78529 0.004 0.47577 0.0
C546 C 0.79725 0.00521 0.44458 0.0
C547 C 0.80191 0.01416 0.39838 0.0
H548 H -0.00068 0.78989 0.66011 0.0
H549 H 0.03162 0.78339 0.57001 0.0
H550 H 0.98242 0.78132 0.58279 0.0
H551 H 0.01462 0.77467 0.49291 0.0
H552 H 0.98751 0.77618 0.34877 0.0
H553 H 0.00428 0.78493 0.42625 0.0
H554 H 0.96683 0.75786 0.53133 0.0
H555 H 0.94994 0.74919 0.45375 0.0
C556 C 0.00282 0.78663 0.62384 0.0
C557 C 0.01683 0.78733 0.6212 0.0
C558 C 0.99309 0.78163 0.57968 0.0
C559 C 0.99719 0.7773 0.53183 0.0
C560 C 0.01122 0.77808 0.52908 0.0
C561 C 0.02093 0.78301 0.57333 0.0
C562 C 0.98282 0.7721 0.38838 0.0
C563 C 0.96738 0.76198 0.39509 0.0
C564 C 0.99246 0.77705 0.43272 0.0
C565 C 0.98688 0.77206 0.48484 0.0
C566 C 0.97143 0.76202 0.49167 0.0
C567 C 0.96177 0.75699 0.44722 0.0
H568 H 0.20144 0.18455 0.37259 0.0
H569 H 0.24769 0.21803 0.40407 0.0
H570 H 0.19367 0.19235 0.45324 0.0
H571 H 0.23991 0.22567 0.48534 0.0
H572 H 0.21802 0.24566 0.59365 0.0
H573 H 0.22581 0.23815 0.51212 0.0
H574 H 0.19577 0.19148 0.55109 0.0
H575 H 0.1878 0.19896 0.63204 0.0
C576 C 0.20996 0.19354 0.3968 0.0
C577 C 0.22519 0.20066 0.38191 0.0
C578 C 0.20551 0.19796 0.44319 0.0
C579 C 0.21618 0.20961 0.47572 0.0
C580 C 0.2314 0.21677 0.46077 0.0
C581 C 0.23587 0.21233 0.41439 0.0
C582 C 0.21306 0.2338 0.58477 0.0
C583 C 0.20227 0.22291 0.6193 0.0
C584 C 0.21759 0.2295 0.53823 0.0
C585 C 0.21141 0.21422 0.52517 0.0
C586 C 0.20061 0.20334 0.55968 0.0
C587 C 0.1961 0.20764 0.60623 0.0
H588 H 0.86468 0.34569 0.71525 0.0
H589 H 0.9116 0.36078 0.74396 0.0
H590 H 0.858 0.33057 0.79702 0.0
H591 H 0.90492 0.34585 0.8262 0.0
H592 H 0.88557 0.30423 0.93511 0.0
H593 H 0.89227 0.31947 0.85363 0.0
H594 H 0.86035 0.33358 0.89489 0.0
H595 H 0.85345 0.31815 0.97595 0.0
C596 C 0.87358 0.34584 0.7391 0.0
C597 C 0.88867 0.35443 0.72304 0.0
C598 C 0.86975 0.33723 0.78614 0.0
C599 C 0.88093 0.33701 0.81811 0.0
C600 C 0.89603 0.34563 0.8021 0.0
C601 C 0.89986 0.35426 0.75511 0.0
C602 C 0.87998 0.31058 0.92684 0.0
C603 C 0.86896 0.30996 0.96202 0.0
C604 C 0.88388 0.31938 0.88028 0.0
C605 C 0.87685 0.32774 0.86781 0.0
C606 C 0.86585 0.32713 0.90303 0.0
C607 C 0.86196 0.31835 0.94964 0.0
H608 H 0.65037 0.51968 0.68145 0.0
H609 H 0.63582 0.55128 0.72274 0.0
H610 H 0.66595 0.52686 0.76223 0.0
H611 H 0.65119 0.55824 0.80389 0.0
H612 H 0.69254 0.57839 0.91264 0.0
H613 H 0.67757 0.57133 0.83049 0.0
H614 H 0.66332 0.52467 0.86021 0.0
H615 H 0.6785 0.53173 0.94195 0.0
C616 C 0.65045 0.52812 0.70781 0.0
C617 C 0.64186 0.53492 0.69561 0.0
C618 C 0.65932 0.53217 0.75426 0.0
C619 C 0.65982 0.54312 0.78947 0.0
C620 C 0.65122 0.54991 0.77722 0.0
C621 C 0.64234 0.54586 0.73084 0.0
C622 C 0.68625 0.56662 0.90161 0.0
C623 C 0.68671 0.55562 0.9339 0.0
C624 C 0.6776 0.56257 0.85468 0.0
C625 C 0.66922 0.54743 0.8389 0.0
C626 C 0.66977 0.53644 0.87094 0.0
C627 C 0.67842 0.54049 0.91795 0.0
H628 H 0.47872 0.13364 0.69769 0.0
H629 H 0.45045 0.08684 0.73967 0.0
H630 H 0.47082 0.14093 0.77937 0.0
H631 H 0.44271 0.09418 0.82171 0.0
H632 H 0.4195 0.11323 0.92812 0.0
H633 H 0.42764 0.1059 0.84702 0.0
H634 H 0.47347 0.14045 0.87797 0.0
H635 H 0.46535 0.14792 0.95868 0.0
C636 C 0.47088 0.12491 0.72445 0.0
C637 C 0.46519 0.10966 0.71214 0.0
C638 C 0.46642 0.1291 0.77138 0.0
C639 C 0.45613 0.11813 0.80688 0.0
C640 C 0.45052 0.10288 0.79476 0.0
C641 C 0.45503 0.09869 0.74794 0.0
C642 C 0.43131 0.11928 0.9176 0.0
C643 C 0.44178 0.13117 0.94981 0.0
C644 C 0.43598 0.11501 0.87134 0.0
C645 C 0.45119 0.12259 0.85619 0.0
C646 C 0.46165 0.1345 0.88831 0.0
C647 C 0.457 0.13873 0.93468 0.0
H648 H 0.45368 0.37241 0.75888 0.0
H649 H 0.45365 0.33434 0.68461 0.0
H650 H 0.44668 0.35908 0.84485 0.0
H651 H 0.44677 0.32112 0.77055 0.0
H652 H 0.41876 0.29623 0.9184 0.0
H653 H 0.42496 0.30977 0.83301 0.0
H654 H 0.4581 0.3501 0.91349 0.0
H655 H 0.45185 0.33663 -0.00097 0.0
C656 C 0.45219 0.36121 0.76088 0.0
C657 C 0.45421 0.35443 0.71493 0.0
C658 C 0.44825 0.35362 0.81016 0.0
C659 C 0.44615 0.33905 0.81435 0.0
C660 C 0.44814 0.33227 0.76837 0.0
C661 C 0.45217 0.33989 0.71924 0.0
C662 C 0.42733 0.308 0.91796 0.0
C663 C 0.43484 0.31535 0.9655 0.0
C664 C 0.43093 0.31572 0.869 0.0
C665 C 0.44204 0.33098 0.86658 0.0
C666 C 0.44939 0.33839 0.91422 0.0
C667 C 0.44586 0.33064 0.96315 0.0
H668 H 0.6734 0.13636 0.96477 0.0
H669 H 0.69268 0.10859 0.92507 0.0
H670 H 0.65568 0.12525 0.89063 0.0
H671 H 0.67474 0.09729 0.85138 0.0
H672 H 0.65239 0.09484 0.68746 0.0
H673 H 0.66958 0.1045 0.76357 0.0
H674 H 0.6338 0.10137 0.86405 0.0
H675 H 0.61661 0.09194 0.78757 0.0
C676 C 0.67384 0.12785 0.94032 0.0
C677 C 0.68448 0.12338 0.95073 0.0
C678 C 0.6636 0.1214 0.8981 0.0
C679 C 0.66377 0.11035 0.8653 0.0
C680 C 0.67442 0.10588 0.87565 0.0
C681 C 0.68466 0.11233 0.91796 0.0
C682 C 0.64814 0.09612 0.72585 0.0
C683 C 0.63314 0.09269 0.73138 0.0
C684 C 0.65799 0.10158 0.76955 0.0
C685 C 0.65307 0.10376 0.81975 0.0
C686 C 0.63798 0.10002 0.82563 0.0
C687 C 0.62811 0.09452 0.78191 0.0
H688 H 0.9147 0.55395 0.73752 0.0
H689 H 0.86809 0.52209 0.70356 0.0
H690 H 0.90722 0.56191 0.81863 0.0
H691 H 0.86062 0.53024 0.78413 0.0
H692 H 0.85454 0.53743 0.96246 0.0
H693 H 0.86212 0.52925 0.88219 0.0
H694 H 0.89419 0.57546 0.84392 0.0
H695 H 0.8868 0.58365 0.92467 0.0
C696 C 0.90286 0.54866 0.74729 0.0
C697 C 0.89199 0.53738 0.71409 0.0
C698 C 0.89857 0.55329 0.79359 0.0
C699 C 0.88333 0.54672 0.80774 0.0
C700 C 0.87247 0.53539 0.77467 0.0
C701 C 0.87676 0.53078 0.72834 0.0
C702 C 0.8632 0.54586 0.93693 0.0
C703 C 0.87007 0.56119 0.94998 0.0
C704 C 0.86749 0.54117 0.89079 0.0
C705 C 0.87876 0.55171 0.85672 0.0
C706 C 0.88561 0.56705 0.86974 0.0
C707 C 0.88131 0.57174 0.91584 0.0
H708 H 0.54257 0.63043 0.23299 0.0
H709 H 0.54435 0.66933 0.30729 0.0
H710 H 0.5509 0.64402 0.14794 0.0
H711 H 0.55259 0.68286 0.22202 0.0
H712 H 0.58256 0.7068 0.07505 0.0
H713 H 0.57479 0.69339 0.16075 0.0
H714 H 0.54072 0.65397 0.07849 0.0
H715 H 0.54853 0.66729 0.99281 0.0
C716 C 0.54474 0.64187 0.23121 0.0
C717 C 0.54277 0.64879 0.2769 0.0
C718 C 0.54944 0.64963 0.18241 0.0
C719 C 0.55237 0.66449 0.17832 0.0
C720 C 0.55054 0.67146 0.2241 0.0
C721 C 0.54574 0.66367 0.27284 0.0
C722 C 0.57343 0.69526 0.07523 0.0
C723 C 0.56617 0.6881 0.02711 0.0
C724 C 0.56893 0.68762 0.12434 0.0
C725 C 0.55716 0.67264 0.12629 0.0
C726 C 0.54994 0.66547 0.07816 0.0
C727 C 0.55436 0.67313 0.02913 0.0
H728 H 0.36498 0.91506 0.2496 0.0
H729 H 0.34151 0.86933 0.3082 0.0
H730 H 0.35009 0.90698 0.16706 0.0
H731 H 0.32656 0.86133 0.22599 0.0
H732 H 0.3139 0.85051 0.04798 0.0
H733 H 0.32967 0.85879 0.12829 0.0
H734 H 0.32346 0.89726 0.14065 0.0
H735 H 0.30779 0.88908 0.06004 0.0
C736 C 0.35668 0.90329 0.24484 0.0
C737 C 0.35441 0.89284 0.28548 0.0
C738 C 0.34809 0.89869 0.19772 0.0
C739 C 0.33714 0.88353 0.19015 0.0
C740 C 0.33502 0.87306 0.23046 0.0
C741 C 0.34354 0.87767 0.27768 0.0
C742 C 0.3159 0.86074 0.06777 0.0
C743 C 0.30957 0.86913 0.04768 0.0
C744 C 0.32488 0.86544 0.1139 0.0
C745 C 0.3278 0.87867 0.14072 0.0
C746 C 0.32155 0.88711 0.12046 0.0
C747 C 0.31249 0.88236 0.0745 0.0
H748 H 0.12669 0.46965 0.3005 0.0
H749 H 0.08063 0.44397 0.24615 0.0
H750 H 0.135 0.46265 0.21927 0.0
H751 H 0.08903 0.43713 0.16444 0.0
H752 H 0.1088 0.4153 0.05433 0.0
H753 H 0.10035 0.42187 0.1365 0.0
H754 H 0.13662 0.46772 0.12205 0.0
H755 H 0.14519 0.46115 0.04043 0.0
C756 C 0.11833 0.46254 0.27117 0.0
C757 C 0.103 0.45737 0.27976 0.0
C758 C 0.12312 0.45859 0.2245 0.0
C759 C 0.11267 0.44936 0.18545 0.0
C760 C 0.09732 0.44413 0.1941 0.0
C761 C 0.09253 0.44812 0.24074 0.0
C762 C 0.11499 0.42677 0.06876 0.0
C763 C 0.12767 0.4377 0.04089 0.0
C764 C 0.11009 0.43055 0.11563 0.0
C765 C 0.11782 0.44531 0.1357 0.0
C766 C 0.13054 0.45621 0.10792 0.0
C767 C 0.1354 0.45245 0.061 0.0
H768 H 0.13088 0.65425 0.30732 0.0
H769 H 0.08436 0.63442 0.25916 0.0
H770 H 0.13858 0.66933 0.22554 0.0
H771 H 0.09214 0.64944 0.1768 0.0
H772 H 0.11171 0.69129 0.06684 0.0
H773 H 0.10361 0.67607 0.14861 0.0
H774 H 0.13917 0.66567 0.12796 0.0
H775 H 0.14739 0.681 0.04674 0.0
C776 C 0.12229 0.65307 0.27922 0.0
C777 C 0.107 0.64313 0.28975 0.0
C778 C 0.12672 0.66166 0.2322 0.0
C779 C 0.11597 0.66055 0.19469 0.0
C780 C 0.10067 0.65064 0.20523 0.0
C781 C 0.09623 0.64199 0.25224 0.0
C782 C 0.11781 0.68577 0.07978 0.0
C783 C 0.13022 0.68739 0.05036 0.0
C784 C 0.1131 0.67697 0.12642 0.0
C785 C 0.12076 0.66969 0.14473 0.0
C786 C 0.13315 0.6713 0.11524 0.0
C787 C 0.13782 0.68003 0.06854 0.0
H788 H 0.34895 0.48217 0.27369 0.0
H789 H 0.35653 0.44447 0.26405 0.0
H790 H 0.33366 0.47352 0.19231 0.0
H791 H 0.34132 0.43592 0.18233 0.0
H792 H 0.29991 0.41715 0.0712 0.0
H793 H 0.31465 0.4255 0.15411 0.0
H794 H 0.33749 0.47114 0.09507 0.0
H795 H 0.32271 0.46288 0.01255 0.0
C796 C 0.34738 0.47206 0.25419 0.0
C797 C 0.35397 0.46402 0.27528 0.0
C798 C 0.33868 0.46715 0.20745 0.0
C799 C 0.33631 0.45406 0.18098 0.0
C800 C 0.34283 0.44597 0.20221 0.0
C801 C 0.35161 0.45092 0.2488 0.0
C802 C 0.30805 0.42897 0.07599 0.0
C803 C 0.31015 0.43935 0.03531 0.0
C804 C 0.31654 0.43372 0.12331 0.0
C805 C 0.32722 0.44897 0.13101 0.0
C806 C 0.32923 0.45935 0.0905 0.0
C807 C 0.32081 0.45459 0.04311 0.0
H808 H 0.5174 0.86711 0.30074 0.0
H809 H 0.55229 0.91295 0.27143 0.0
H810 H 0.52471 0.85912 0.21938 0.0
H811 H 0.55947 0.90494 0.18962 0.0
H812 H 0.57815 0.88188 0.08095 0.0
H813 H 0.57099 0.88967 0.16334 0.0
H814 H 0.52416 0.8621 0.12093 0.0
H815 H 0.53126 0.85417 0.03892 0.0
C816 C 0.5266 0.8755 0.27687 0.0
C817 C 0.53427 0.89067 0.29254 0.0
C818 C 0.53073 0.87092 0.23013 0.0
C819 C 0.54266 0.8814 0.19816 0.0
C820 C 0.55035 0.89658 0.21381 0.0
C821 C 0.54617 0.90118 0.26047 0.0
C822 C 0.56632 0.87744 0.08929 0.0
C823 C 0.55527 0.86741 0.0534 0.0
C824 C 0.56224 0.88198 0.1363 0.0
C825 C 0.54702 0.87652 0.1485 0.0
C826 C 0.53597 0.86638 0.11286 0.0
C827 C 0.54005 0.8619 0.06576 0.0
H828 H 0.21102 0.98791 0.83773 0.0
H829 H 0.18237 0.9537 0.95171 0.0
H830 H 0.21896 0.00685 0.90791 0.0
H831 H 0.19009 0.9728 0.02186 0.0
H832 H 0.22452 0.0071 0.14228 0.0
H833 H 0.21289 0.98801 0.07282 0.0
H834 H 0.21124 0.02053 0.9669 0.0
H835 H 0.22324 0.0398 0.03617 0.0
C836 C 0.20625 0.98445 0.87762 0.0
C837 C 0.19617 0.96926 0.88926 0.0
C838 C 0.21073 0.99535 0.9178 0.0
C839 C 0.20521 0.99134 0.97057 0.0
C840 C 0.19471 0.97622 0.98177 0.0
C841 C 0.19024 0.96529 0.94152 0.0
C842 C 0.22159 0.01019 0.10433 0.0
C843 C 0.22494 0.02502 0.09458 0.0
C844 C 0.2148 0.99919 0.06462 0.0
C845 C 0.21116 0.00275 0.01424 0.0
C846 C 0.2141 0.01748 0.00505 0.0
C847 C 0.22092 0.0285 0.0448 0.0
H848 H 0.97661 0.23393 0.08609 0.0
H849 H 0.98361 0.19754 0.13527 0.0
H850 H 0.99424 0.23969 0.01176 0.0
H851 H 0.00147 0.20353 0.06117 0.0
H852 H 0.04611 0.23496 0.96205 0.0
H853 H 0.0279 0.22727 0.03586 0.0
H854 H 0.99446 0.22508 0.92525 0.0
H855 H 0.01245 0.23251 0.85146 0.0
C856 C 0.98193 0.22718 0.08105 0.0
C857 C 0.97873 0.21528 0.11635 0.0
C858 C 0.99195 0.23044 0.03845 0.0
C859 C -0.00085 0.22203 0.03093 0.0
C860 C 0.99608 0.2102 0.0664 0.0
C861 C 0.98583 0.20675 0.10849 0.0
C862 C 0.03484 0.23271 0.95347 0.0
C863 C 0.03072 0.23438 0.90104 0.0
C864 C 0.02444 0.22826 0.99558 0.0
C865 C 0.00986 0.22568 0.98605 0.0
C866 C 0.00568 0.22712 0.93357 0.0
C867 C 0.01597 0.23131 0.89139 0.0
H868 H 0.79113 0.80599 0.89128 0.0
H869 H 0.7486 0.78501 0.97517 0.0
H870 H 0.80206 0.79837 0.96336 0.0
H871 H 0.75928 0.77693 0.04592 0.0
H872 H 0.7845 0.77368 0.18704 0.0
H873 H 0.77627 0.7851 0.11915 0.0
H874 H 0.80096 0.77618 0.99766 0.0
H875 H 0.80965 0.7653 0.06614 0.0
C876 C 0.78412 0.79976 0.92512 0.0
C877 C 0.769 0.79608 0.92751 0.0
C878 C 0.79036 0.79532 0.96627 0.0
C879 C 0.78156 0.787 0.01046 0.0
C880 C 0.76649 0.78354 0.01306 0.0
C881 C 0.76031 0.7881 0.97224 0.0
C882 C 0.78826 0.77427 0.14589 0.0
C883 C 0.79763 0.76849 0.13181 0.0
C884 C 0.78348 0.78074 0.10689 0.0
C885 C 0.7878 0.78142 0.05275 0.0
C886 C 0.79754 0.77602 0.03902 0.0
C887 C 0.80246 0.76969 0.07822 0.0
H888 H 0.76305 0.95552 0.96279 0.0
H889 H 0.7644 0.98852 0.8514 0.0
H890 H 0.771 0.97398 0.03562 0.0
H891 H 0.77228 0.00684 0.92412 0.0
H892 H 0.76444 0.02592 0.08197 0.0
H893 H 0.75896 0.00841 0.00774 0.0
H894 H 0.79344 -0.00061 0.06394 0.0
H895 H 0.79903 0.01702 0.13847 0.0
C896 C 0.76515 0.96672 0.95377 0.0
C897 C 0.76301 0.97053 0.90144 0.0
C898 C 0.76977 0.97729 0.99536 0.0
C899 C 0.77215 0.99178 0.98545 0.0
C900 C 0.77036 0.99569 0.93292 0.0
C901 C 0.76591 0.9852 0.89129 0.0
C902 C 0.77089 0.02025 0.0785 0.0
C903 C 0.78216 0.02284 0.11606 0.0
C904 C 0.76781 0.0103 0.03582 0.0
C905 C 0.77581 0.0026 0.03012 0.0
C906 C 0.78707 0.00514 0.06765 0.0
C907 C 0.7903 0.01527 0.11006 0.0
H908 H 0.02349 0.77416 0.87061 0.0
H909 H 0.03288 0.8194 0.90294 0.0
H910 H 0.00845 0.76543 0.95216 0.0
H911 H 0.01781 0.81057 0.98519 0.0
H912 H 0.97491 0.78361 0.09136 0.0
H913 H 0.99078 0.79375 0.01164 0.0
H914 H 0.01282 0.76854 0.0509 0.0
H915 H 0.99693 0.75831 0.13023 0.0
C916 C 0.02235 0.78226 0.89512 0.0
C917 C 0.0294 0.79749 0.88031 0.0
C918 C 0.01381 0.77726 0.94205 0.0
C919 C 0.01204 0.78734 0.97516 0.0
C920 C 0.01893 0.80255 0.9602 0.0
C921 C 0.02759 0.8076 0.91327 0.0
C922 C 0.98319 0.78029 0.08309 0.0
C923 C 0.98461 0.77009 0.11691 0.0
C924 C 0.99232 0.78616 0.03764 0.0
C925 C 0.00297 0.78187 0.02498 0.0
C926 C 0.00457 0.77189 0.05933 0.0
C927 C 0.99551 0.76609 0.1049 0.0
H928 H 0.2473 0.20367 0.03425 0.0
H929 H 0.21627 0.2026 0.15409 0.0
H930 H 0.23551 0.21156 0.96663 0.0
H931 H 0.20424 0.21016 0.08604 0.0
H932 H 0.2015 0.24339 0.96698 0.0
H933 H 0.21038 0.23259 0.03507 0.0
H934 H 0.21284 0.20349 0.91483 0.0
H935 H 0.20431 0.21454 0.84645 0.0
C936 C 0.23784 0.20493 0.04603 0.0
C937 C 0.23279 0.20261 0.09962 0.0
C938 C 0.23101 0.20937 0.00716 0.0
C939 C 0.21895 0.21153 0.02095 0.0
C940 C 0.21365 0.20881 0.07428 0.0
C941 C 0.2205 0.2044 0.1132 0.0
C942 C 0.2038 0.23459 0.95516 0.0
C943 C 0.20233 0.22992 0.90122 0.0
C944 C 0.20882 0.22834 0.99427 0.0
C945 C 0.21242 0.21724 0.98032 0.0
C946 C 0.21042 0.2122 0.92671 0.0
C947 C 0.20545 0.21848 0.88759 0.0
H948 H 0.88306 0.35873 0.44673 0.0
H949 H 0.90716 0.33539 0.48414 0.0
H950 H 0.87277 0.34334 0.36611 0.0
H951 H 0.89671 0.3199 0.40401 0.0
H952 H 0.89048 0.3089 0.22423 0.0
H953 H 0.89969 0.32369 0.30627 0.0
H954 H 0.85547 0.31723 0.33714 0.0
H955 H 0.84623 0.30254 0.25437 0.0
C956 C 0.88607 0.35024 0.43801 0.0
C957 C 0.89599 0.34833 0.4717 0.0
C958 C 0.88011 0.34138 0.39196 0.0
C959 C 0.88399 0.33047 0.37857 0.0
C960 C 0.89369 0.32838 0.41283 0.0
C961 C 0.89961 0.3372 0.45892 0.0
C962 C 0.8827 0.31064 0.24837 0.0
C963 C 0.86761 0.30453 0.23274 0.0
C964 C 0.88797 0.31903 0.29563 0.0
C965 C 0.87829 0.32155 0.32834 0.0
C966 C 0.86322 0.31557 0.31253 0.0
C967 C 0.85792 0.30711 0.26525 0.0
H968 H 0.6657 0.57168 0.17163 0.0
H969 H 0.69119 0.54992 0.2114 0.0
H970 H 0.65045 0.56101 0.25206 0.0
H971 H 0.67599 0.53939 0.29241 0.0
H972 H 0.63545 0.51213 0.40595 0.0
H973 H 0.64999 0.52129 0.32275 0.0
H974 H 0.65471 0.56497 0.34956 0.0
H975 H 0.64011 0.55586 0.43196 0.0
C976 C 0.66802 0.56458 0.19741 0.0
C977 C 0.67971 0.56172 0.18526 0.0
C978 C 0.65933 0.55854 0.24367 0.0
C979 C 0.66211 0.54947 0.27879 0.0
C980 C 0.67353 0.54626 0.26593 0.0
C981 C 0.68227 0.55235 0.21967 0.0
C982 C 0.63961 0.52369 0.39408 0.0
C983 C 0.63658 0.53325 0.42552 0.0
C984 C 0.64798 0.52894 0.34656 0.0
C985 C 0.6534 0.54382 0.32946 0.0
C986 C 0.65047 0.55338 0.3612 0.0
C987 C 0.64219 0.54817 0.40866 0.0
H988 H 0.41969 0.12889 0.29727 0.0
H989 H 0.45115 0.13061 0.17801 0.0
H990 H 0.43182 0.12153 0.36535 0.0
H991 H 0.46356 0.12366 0.24647 0.0
H992 H 0.46684 0.09067 0.36451 0.0
H993 H 0.4579 0.10144 0.29666 0.0
H994 H 0.45425 0.1296 0.41799 0.0
H995 H 0.4628 0.11852 0.48621 0.0
C996 C 0.42933 0.12791 0.28575 0.0
C997 C 0.43437 0.1302 0.23216 0.0
C998 C 0.43636 0.12378 0.32487 0.0
C999 C 0.44863 0.12193 0.31132 0.0
C1000 C 0.45398 0.12473 0.25805 0.0
C1001 C 0.4469 0.12879 0.21888 0.0
C1002 C 0.46428 0.09927 0.37663 0.0
C1003 C 0.4654 0.10364 0.43081 0.0
C1004 C 0.45923 0.10551 0.33765 0.0
C1005 C 0.45527 0.11632 0.35194 0.0
C1006 C 0.45695 0.12111 0.40582 0.0
C1007 C 0.46194 0.11482 0.44485 0.0
H1008 H 0.41877 0.28678 0.30749 0.0
H1009 H 0.44548 0.32094 0.19032 0.0
H1010 H 0.43025 0.3052 0.37954 0.0
H1011 H 0.45673 0.3394 0.26232 0.0
H1012 H 0.48309 0.36588 0.41027 0.0
H1013 H 0.47341 0.34646 0.34074 0.0
H1014 H 0.42902 0.32707 0.41018 0.0
H1015 H 0.43867 0.34622 0.47995 0.0
C1016 C 0.42711 0.2982 0.2971 0.0
C1017 C 0.43114 0.30241 0.24316 0.0
C1018 C 0.43364 0.30877 0.33837 0.0
C1019 C 0.44433 0.32377 0.32659 0.0
C1020 C 0.44864 0.32789 0.27276 0.0
C1021 C 0.44212 0.31733 0.23148 0.0
C1022 C 0.47129 0.35743 0.4108 0.0
C1023 C 0.46165 0.35762 0.45056 0.0
C1024 C 0.46573 0.34635 0.37085 0.0
C1025 C 0.45046 0.33522 0.37 0.0
C1026 C 0.44089 0.33535 0.41015 0.0
C1027 C 0.44641 0.34641 0.44994 0.0
H1028 H 0.6769 0.11891 0.1689 0.0
H1029 H 0.71024 0.14897 0.28272 0.0
H1030 H 0.6577 0.11071 0.2379 0.0
H1031 H 0.69081 0.14114 0.35167 0.0
H1032 H 0.65699 0.10761 0.47411 0.0
H1033 H 0.67621 0.11943 0.40536 0.0
H1034 H 0.64285 0.11702 0.29335 0.0
H1035 H 0.62345 0.10463 0.36189 0.0
C1036 C 0.6801 0.12396 0.2085 0.0
C1037 C 0.69515 0.13449 0.22048 0.0
C1038 C 0.66903 0.11933 0.24805 0.0
C1039 C 0.67268 0.12521 0.3005 0.0
C1040 C 0.68765 0.13619 0.31194 0.0
C1041 C 0.69878 0.14074 0.27238 0.0
C1042 C 0.65375 0.10969 0.43494 0.0
C1043 C 0.63866 0.10504 0.42328 0.0
C1044 C 0.66482 0.1166 0.39556 0.0
C1045 C 0.6611 0.11916 0.34367 0.0
C1046 C 0.64607 0.11498 0.33261 0.0
C1047 C 0.63496 0.10794 0.37194 0.0
H1048 H 0.91185 0.53612 0.36443 0.0
H1049 H 0.88618 0.54366 0.48585 0.0
H1050 H 0.90209 0.54594 0.2958 0.0
H1051 H 0.87621 0.5532 0.41701 0.0
H1052 H 0.87932 0.58812 0.29346 0.0
H1053 H 0.8863 0.57575 0.36177 0.0
H1054 H 0.87945 0.5412 0.24733 0.0
H1055 H 0.87272 0.55375 0.1785 0.0
C1056 C 0.90397 0.53968 0.37638 0.0
C1057 C 0.8999 0.53923 0.43066 0.0
C1058 C 0.89832 0.54524 0.33699 0.0
C1059 C 0.88845 0.55044 0.35104 0.0
C1060 C 0.88399 0.54951 0.40506 0.0
C1061 C 0.88964 0.54397 0.44444 0.0
C1062 C 0.87921 0.57784 0.28289 0.0
C1063 C 0.87554 0.57197 0.23046 0.0
C1064 C 0.88312 0.57069 0.32218 0.0
C1065 C 0.88344 0.55749 0.30996 0.0
C1066 C 0.87949 0.55145 0.2578 0.0
C1067 C 0.87556 0.55861 0.21846 0.0
H1068 H 0.57357 0.65598 0.52686 0.0
H1069 H 0.52649 0.6422 0.54115 0.0
H1070 H 0.5791 0.67209 0.60549 0.0
H1071 H 0.53204 0.65819 0.62037 0.0
H1072 H 0.55135 0.7013 0.72423 0.0
H1073 H 0.54515 0.68505 0.64539 0.0
H1074 H 0.5745 0.66926 0.70287 0.0
H1075 H 0.58086 0.6856 0.78111 0.0
C1076 C 0.56439 0.65637 0.54678 0.0
C1077 C 0.54959 0.6478 0.52779 0.0
C1078 C 0.56756 0.66554 0.59204 0.0
C1079 C 0.55599 0.66635 0.61926 0.0
C1080 C 0.5412 0.65789 0.59997 0.0
C1081 C 0.53802 0.64868 0.55475 0.0
C1082 C 0.55643 0.69432 0.72013 0.0
C1083 C 0.56664 0.69479 0.75883 0.0
C1084 C 0.55283 0.68497 0.67509 0.0
C1085 C 0.5594 0.67594 0.66779 0.0
C1086 C 0.56943 0.67626 0.70693 0.0
C1087 C 0.573 0.68556 0.75194 0.0
H1088 H 0.29429 0.8831 0.70811 0.0
H1089 H 0.31795 0.86758 0.80969 0.0
H1090 H 0.31335 0.88997 0.63883 0.0
H1091 H 0.33685 0.8741 0.73959 0.0
H1092 H 0.37663 0.90586 0.6296 0.0
H1093 H 0.3571 0.89638 0.69847 0.0
H1094 H 0.32304 0.87956 0.57434 0.0
H1095 H 0.34253 0.88938 0.50564 0.0
C1096 C 0.30347 0.88099 0.71543 0.0
C1097 C 0.30463 0.87485 0.76448 0.0
C1098 C 0.31436 0.88485 0.67553 0.0
C1099 C 0.32663 0.88258 0.68363 0.0
C1100 C 0.32765 0.87618 0.73237 0.0
C1101 C 0.31678 0.87238 0.77241 0.0
C1102 C 0.36497 0.90002 0.61705 0.0
C1103 C 0.36113 0.8985 0.56221 0.0
C1104 C 0.35377 0.89452 0.65652 0.0
C1105 C 0.33851 0.88733 0.64191 0.0
C1106 C 0.33469 0.88531 0.58698 0.0
C1107 C 0.34587 0.89087 0.54759 0.0
H1108 H 0.1187 0.44332 0.80985 0.0
H1109 H 0.14231 0.43229 0.69065 0.0
H1110 H 0.11014 0.45381 0.73984 0.0
H1111 H 0.13412 0.44325 0.62062 0.0
H1112 H 0.09924 0.44405 0.50694 0.0
H1113 H 0.11095 0.43654 0.57583 0.0
H1114 H 0.11714 0.47367 0.67571 0.0
H1115 H 0.10495 0.48094 0.60718 0.0
C1116 C 0.12227 0.44335 0.76878 0.0
C1117 C 0.13106 0.43683 0.75572 0.0
C1118 C 0.11743 0.44947 0.72863 0.0
C1119 C 0.12135 0.44929 0.67451 0.0
C1120 C 0.13066 0.44331 0.66178 0.0
C1121 C 0.13543 0.43711 0.70194 0.0
C1122 C 0.10315 0.45067 0.54348 0.0
C1123 C 0.10107 0.46303 0.55175 0.0
C1124 C 0.11 0.44643 0.58285 0.0
C1125 C 0.11501 0.4545 0.63134 0.0
C1126 C 0.11322 0.46708 0.63912 0.0
C1127 C 0.10629 0.47128 0.59978 0.0
H1128 H 0.12924 0.70648 0.70145 0.0
H1129 H 0.13178 0.67695 0.81966 0.0
H1130 H 0.12138 0.68688 0.63366 0.0
H1131 H 0.12436 0.65747 0.75132 0.0
H1132 H 0.09053 0.62098 0.6357 0.0
H1133 H 0.10194 0.64075 0.70311 0.0
H1134 H 0.12878 0.67248 0.57938 0.0
H1135 H 0.117 0.65279 0.5117 0.0
C1136 C 0.12836 0.69588 0.71275 0.0
C1137 C 0.131 0.69322 0.76602 0.0
C1138 C 0.12393 0.68466 0.67377 0.0
C1139 C 0.12217 0.67056 0.68707 0.0
C1140 C 0.12535 0.6681 0.73995 0.0
C1141 C 0.12968 0.6793 0.77904 0.0
C1142 C 0.09898 0.63214 0.62296 0.0
C1143 C 0.10274 0.63535 0.56832 0.0
C1144 C 0.10559 0.64347 0.66168 0.0
C1145 C 0.11621 0.65825 0.64664 0.0
C1146 C 0.12043 0.6613 0.59221 0.0
C1147 C 0.11373 0.64999 0.55346 0.0
H1148 H 0.32045 0.43501 0.80795 0.0
H1149 H 0.29139 0.44552 0.71449 0.0
H1150 H 0.33964 0.44617 0.73877 0.0
H1151 H 0.31085 0.45708 0.64557 0.0
H1152 H 0.34083 0.45661 0.50711 0.0
H1153 H 0.32208 0.44873 0.57807 0.0
H1154 H 0.35739 0.46966 0.69685 0.0
H1155 H 0.3762 0.47722 0.62586 0.0
C1156 C 0.3182 0.43984 0.77286 0.0
C1157 C 0.30434 0.43928 0.76655 0.0
C1158 C 0.32928 0.44637 0.73336 0.0
C1159 C 0.32679 0.45253 0.68665 0.0
C1160 C 0.31304 0.45226 0.68082 0.0
C1161 C 0.30192 0.44569 0.72038 0.0
C1162 C 0.34461 0.45964 0.54831 0.0
C1163 C 0.36002 0.46741 0.56091 0.0
C1164 C 0.33385 0.45521 0.58898 0.0
C1165 C 0.33823 0.45849 0.64316 0.0
C1166 C 0.35365 0.46674 0.65557 0.0
C1167 C 0.36443 0.47114 0.61487 0.0
H1168 H 0.55384 0.87865 0.82748 0.0
H1169 H 0.55356 0.8458 0.71804 0.0
H1170 H 0.54326 0.88712 0.75773 0.0
H1171 H 0.54246 0.85399 0.6484 0.0
H1172 H 0.5445 0.88795 0.52196 0.0
H1173 H 0.55098 0.87568 0.59203 0.0
H1174 H 0.52181 0.88128 0.70336 0.0
H1175 H 0.51569 0.89404 0.63345 0.0
C1176 C 0.5513 0.87306 0.78874 0.0
C1177 C 0.5547 0.86165 0.77812 0.0
C1178 C 0.5451 0.87785 0.74879 0.0
C1179 C 0.54206 0.87129 0.69732 0.0
C1180 C 0.5449 0.85945 0.68736 0.0
C1181 C 0.55118 0.8547 0.72733 0.0
C1182 C 0.53937 0.88647 0.56126 0.0
C1183 C 0.5297 0.89212 0.57232 0.0
C1184 C 0.543 0.87931 0.60138 0.0
C1185 C 0.53696 0.87753 0.65344 0.0
C1186 C 0.52685 0.88269 0.66393 0.0
C1187 C 0.52329 0.88995 0.62383 0.0
H1188 H 0.37022 0.09738 0.10863 0.0
H1189 H 0.36885 0.13774 0.14626 0.0
H1190 H 0.34316 0.08235 0.12523 0.0
H1191 H 0.34196 0.12275 0.16293 0.0
H1192 H 0.29211 0.0934 0.12629 0.0
H1193 H 0.31898 0.10729 0.10818 0.0
H1194 H 0.32485 0.07532 0.20276 0.0
H1195 H 0.29783 0.06129 0.22087 0.0
C1196 C 0.36417 0.10303 0.12046 0.0
C1197 C 0.37167 0.11876 0.12597 0.0
C1198 C 0.34871 0.09442 0.13022 0.0
C1199 C 0.34046 0.10139 0.14511 0.0
C1200 C 0.34799 0.11709 0.15082 0.0
C1201 C 0.36342 0.12566 0.14153 0.0
C1202 C 0.29909 0.08927 0.14312 0.0
C1203 C 0.29283 0.07627 0.17524 0.0
C1204 C 0.3145 0.09728 0.13293 0.0
C1205 C 0.32402 0.09244 0.15433 0.0
C1206 C 0.31776 0.07926 0.18549 0.0
C1207 C 0.30231 0.07128 0.19606 0.0
H1208 H 0.87273 0.24429 0.2232 0.0
H1209 H 0.89166 0.25676 0.06336 0.0
H1210 H 0.88597 0.23042 0.23677 0.0
H1211 H 0.90507 0.24302 0.07734 0.0
H1212 H 0.91398 0.20381 0.10308 0.0
H1213 H 0.90015 0.21708 0.08833 0.0
H1214 H 0.91197 0.23589 0.24843 0.0
H1215 H 0.92563 0.22249 0.26352 0.0
C1216 C 0.87972 0.24408 0.19093 0.0
C1217 C 0.88116 0.25166 0.14222 0.0
C1218 C 0.88737 0.2362 0.19887 0.0
C1219 C 0.89661 0.23567 0.15822 0.0
C1220 C 0.89792 0.2431 0.10924 0.0
C1221 C 0.8903 0.25103 0.10134 0.0
C1222 C 0.91361 0.21076 0.13518 0.0
C1223 C 0.9209 0.21208 0.18451 0.0
C1224 C 0.90576 0.21843 0.12659 0.0
C1225 C 0.90496 0.22752 0.16721 0.0
C1226 C 0.91222 0.22881 0.21657 0.0
C1227 C 0.92012 0.2212 0.2251 0.0
H1228 H 0.7325 0.62895 0.06316 0.0
H1229 H 0.73932 0.61953 0.22715 0.0
H1230 H 0.74545 0.65576 0.08362 0.0
H1231 H 0.75244 0.64633 0.24728 0.0
H1232 H 0.76372 0.69473 0.27691 0.0
H1233 H 0.74852 0.66797 0.25647 0.0
H1234 H 0.77137 0.67529 0.10393 0.0
H1235 H 0.7864 0.702 0.12388 0.0
C1236 C 0.7367 0.63259 0.1036 0.0
C1237 C 0.73494 0.62211 0.14345 0.0
C1238 C 0.74419 0.64795 0.11523 0.0
C1239 C 0.75003 0.65317 0.167 0.0
C1240 C 0.74795 0.64266 0.20716 0.0
C1241 C 0.7405 0.62731 0.1955 0.0
C1242 C 0.76545 0.69063 0.23891 0.0
C1243 C 0.7763 0.70049 0.20209 0.0
C1244 C 0.75679 0.6753 0.22733 0.0
C1245 C 0.75875 0.66952 0.1786 0.0
C1246 C 0.76945 0.67942 0.14151 0.0
C1247 C 0.77814 0.69472 0.15315 0.0
H1248 H 0.10337 0.2956 0.81893 0.0
H1249 H 0.06286 0.29605 0.77552 0.0
H1250 H 0.11475 0.3216 0.84857 0.0
H1251 H 0.07413 0.32197 0.80653 0.0
H1252 H 0.10498 0.3731 0.81887 0.0
H1253 H 0.09356 0.34735 0.78594 0.0
H1254 H 0.11229 0.33577 0.92117 0.0
H1255 H 0.124 0.36158 0.95334 0.0
C1256 C 0.09688 0.30124 0.81572 0.0
C1257 C 0.08219 0.29373 0.79499 0.0
C1258 C 0.10337 0.31612 0.8331 0.0
C1259 C 0.09531 0.32384 0.83039 0.0
C1260 C 0.08071 0.31641 0.80873 0.0
C1261 C 0.07423 0.30153 0.79113 0.0
C1262 C 0.10662 0.36504 0.84168 0.0
C1263 C 0.11544 0.3694 0.88867 0.0
C1264 C 0.10002 0.35026 0.8229 0.0
C1265 C 0.10207 0.3395 0.85074 0.0
C1266 C 0.11071 0.34383 0.89819 0.0
C1267 C 0.11733 0.35861 0.91688 0.0
H1268 H 0.70573 0.80818 0.75694 0.0
H1269 H 0.71207 0.77228 0.8174 0.0
H1270 H 0.67898 0.79332 0.77661 0.0
H1271 H 0.68523 0.7573 0.83609 0.0
H1272 H 0.6392 0.74182 0.91447 0.0
H1273 H 0.66612 0.75674 0.89646 0.0
H1274 H 0.65681 0.77084 0.7443 0.0
H1275 H 0.63 0.7562 0.76262 0.0
C1276 C 0.70141 0.79709 0.77416 0.0
C1277 C 0.71104 0.79141 0.78548 0.0
C1278 C 0.68606 0.78854 0.78521 0.0
C1279 C 0.67997 0.77411 0.80782 0.0
C1280 C 0.6896 0.76844 0.81926 0.0
C1281 C 0.70497 0.77699 0.8082 0.0
C1282 C 0.64291 0.74811 0.87721 0.0
C1283 C 0.63246 0.74784 0.84004 0.0
C1284 C 0.65833 0.7566 0.86676 0.0
C1285 C 0.66361 0.765 0.81898 0.0
C1286 C 0.65313 0.76467 0.78183 0.0
C1287 C 0.63775 0.75619 0.79222 0.0
H1288 H 0.23256 0.93401 0.76942 0.0
H1289 H 0.19295 0.90008 0.85141 0.0
H1290 H 0.24578 0.92053 0.79263 0.0
H1291 H 0.20619 0.88678 0.87499 0.0
H1292 H 0.22833 0.85818 0.8486 0.0
H1293 H 0.21577 0.87232 0.82756 0.0
H1294 H 0.2558 0.91355 0.87189 0.0
H1295 H 0.2685 0.8994 0.89245 0.0
C1296 C 0.2267 0.92373 0.79256 0.0
C1297 C 0.21168 0.91809 0.80834 0.0
C1298 C 0.2343 0.91606 0.80611 0.0
C1299 C 0.227 0.90256 0.83544 0.0
C1300 C 0.21205 0.89704 0.8517 0.0
C1301 C 0.20449 0.90472 0.83839 0.0
C1302 C 0.23447 0.87026 0.85398 0.0
C1303 C 0.24941 0.87766 0.87228 0.0
C1304 C 0.22724 0.87835 0.84217 0.0
C1305 C 0.23478 0.89405 0.84819 0.0
C1306 C 0.24974 0.90148 0.86639 0.0
C1307 C 0.25697 0.89336 0.87848 0.0
H1308 H 0.7011 0.94344 0.87659 0.0
H1309 H 0.69677 0.91915 0.72944 0.0
H1310 H 0.67446 0.92709 0.89459 0.0
H1311 H 0.66998 0.90314 0.74626 0.0
H1312 H 0.6274 0.86625 0.8251 0.0
H1313 H 0.6537 0.88337 0.8043 0.0
H1314 H 0.64974 0.92042 0.86779 0.0
H1315 H 0.62354 0.90314 0.89052 0.0
C1316 C 0.6944 0.93474 0.84766 0.0
C1317 C 0.70106 0.93254 0.80174 0.0
C1318 C 0.67909 0.9254 0.85784 0.0
C1319 C 0.67003 0.91372 0.82203 0.0
C1320 C 0.67665 0.91181 0.7753 0.0
C1321 C 0.69199 0.92106 0.76542 0.0
C1322 C 0.63214 0.87805 0.83457 0.0
C1323 C 0.6234 0.88333 0.85962 0.0
C1324 C 0.64721 0.88791 0.82227 0.0
C1325 C 0.65388 0.90332 0.83419 0.0
C1326 C 0.64506 0.9086 0.85877 0.0
C1327 C 0.63002 0.89871 0.87159 0.0
H1328 H 0.09586 0.79931 0.84731 0.0
H1329 H 0.06717 0.76298 0.74031 0.0
H1330 H 0.10961 0.78644 0.86969 0.0
H1331 H 0.08104 0.75006 0.76293 0.0
H1332 H 0.09955 0.72553 0.87131 0.0
H1333 H 0.08529 0.7378 0.84554 0.0
H1334 H 0.12678 0.77955 0.82172 0.0
H1335 H 0.14101 0.7674 0.8474 0.0
C1336 C 0.09249 0.78858 0.82847 0.0
C1337 C 0.08043 0.78217 0.79197 0.0
C1338 C 0.10043 0.78125 0.84114 0.0
C1339 C 0.09641 0.76727 0.81796 0.0
C1340 C 0.0843 0.76078 0.78164 0.0
C1341 C 0.07644 0.76821 0.76847 0.0
C1342 C 0.10561 0.73732 0.86057 0.0
C1343 C 0.12141 0.74551 0.86162 0.0
C1344 C 0.09746 0.7443 0.84548 0.0
C1345 C 0.10494 0.75962 0.83178 0.0
C1346 C 0.12072 0.76776 0.83261 0.0
C1347 C 0.12886 0.76077 0.84714 0.0
H1348 H 0.1929 0.2946 0.81131 0.0
H1349 H 0.23393 0.29362 0.78364 0.0
H1350 H 0.20748 0.3215 0.82845 0.0
H1351 H 0.24855 0.32068 0.80093 0.0
H1352 H 0.26764 0.36592 0.89717 0.0
H1353 H 0.25398 0.33886 0.87936 0.0
H1354 H 0.22387 0.34452 0.77328 0.0
H1355 H 0.23742 0.37144 0.79084 0.0
C1356 C 0.20504 0.30011 0.80894 0.0
C1357 C 0.21226 0.29198 0.79596 0.0
C1358 C 0.21337 0.31554 0.8185 0.0
C1359 C 0.22913 0.32317 0.81579 0.0
C1360 C 0.23641 0.31504 0.80356 0.0
C1361 C 0.22804 0.29959 0.7934 0.0
C1362 C 0.25813 0.36138 0.86994 0.0
C1363 C 0.25357 0.37081 0.84557 0.0
C1364 C 0.25038 0.34592 0.85956 0.0
C1365 C 0.23784 0.33961 0.82515 0.0
C1366 C 0.2334 0.34906 0.80045 0.0
C1367 C 0.24121 0.36449 0.81035 0.0
H1368 H 0.93051 0.71202 0.08197 0.0
H1369 H 0.92477 0.70517 0.25406 0.0
H1370 H 0.9157 0.68493 0.06785 0.0
H1371 H 0.90997 0.67805 0.23975 0.0
H1372 H 0.86858 0.6335 0.18384 0.0
H1373 H 0.88466 0.66039 0.19946 0.0
H1374 H 0.91692 0.66146 0.08554 0.0
H1375 H 0.90084 0.63453 0.06974 0.0
C1376 C 0.92617 0.70473 0.1168 0.0
C1377 C 0.92877 0.71074 0.16913 0.0
C1378 C 0.91776 0.68922 0.10868 0.0
C1379 C 0.91164 0.6794 0.15268 0.0
C1380 C 0.91442 0.68538 0.20507 0.0
C1381 C 0.92297 0.70089 0.21324 0.0
C1382 C 0.8791 0.63946 0.1621 0.0
C1383 C 0.88342 0.63189 0.12546 0.0
C1384 C 0.88835 0.65483 0.17136 0.0
C1385 C 0.90205 0.663 0.14381 0.0
C1386 C 0.90637 0.65545 0.10706 0.0
C1387 C 0.89719 0.64004 0.09819 0.0
H1388 H 0.36773 0.26709 0.10941 0.0
H1389 H 0.37128 0.22928 0.16697 0.0
H1390 H 0.34093 0.25365 0.13067 0.0
H1391 H 0.34464 0.21602 0.18894 0.0
H1392 H 0.29394 0.19031 0.16448 0.0
H1393 H 0.32056 0.20417 0.14241 0.0
H1394 H 0.32384 0.24457 0.20875 0.0
H1395 H 0.29705 0.23072 0.23015 0.0
C1396 C 0.36282 0.25594 0.12667 0.0
C1397 C 0.37164 0.24924 0.13631 0.0
C1398 C 0.34749 0.24828 0.13917 0.0
C1399 C 0.34066 0.23376 0.16139 0.0
C1400 C 0.34951 0.22711 0.17115 0.0
C1401 C 0.36481 0.23475 0.15878 0.0
C1402 C 0.30031 0.20215 0.1744 0.0
C1403 C 0.29337 0.2094 0.19921 0.0
C1404 C 0.3156 0.21008 0.16198 0.0
C1405 C 0.32434 0.22546 0.17401 0.0
C1406 C 0.31739 0.23276 0.1985 0.0
C1407 C 0.30206 0.2248 0.21106 0.0
H1408 H 0.72894 0.09879 0.11081 0.0
H1409 H 0.76796 0.14061 0.15799 0.0
H1410 H 0.74212 0.08529 0.13416 0.0
H1411 H 0.78105 0.12709 0.18137 0.0
H1412 H 0.80478 0.09972 0.15296 0.0
H1413 H 0.79127 0.11296 0.13174 0.0
H1414 H 0.75233 0.07908 0.2166 0.0
H1415 H 0.76582 0.06575 0.2378 0.0
C1416 C 0.7403 0.10509 0.12623 0.0
C1417 C 0.74742 0.12077 0.13243 0.0
C1418 C 0.74781 0.09735 0.13986 0.0
C1419 C 0.76261 0.10516 0.15947 0.0
C1420 C 0.7697 0.12081 0.16582 0.0
C1421 C 0.76216 0.12853 0.15266 0.0
C1422 C 0.79335 0.09509 0.16718 0.0
C1423 C 0.78638 0.0817 0.19712 0.0
C1424 C 0.78564 0.10272 0.15524 0.0
C1425 C 0.77076 0.09705 0.17257 0.0
C1426 C 0.76375 0.08364 0.20237 0.0
C1427 C 0.77151 0.07607 0.21476 0.0
H1428 H 0.03458 0.45888 0.53515 0.0
H1429 H 0.02898 0.42978 0.40078 0.0
H1430 H 0.00768 0.44451 0.55267 0.0
H1431 H 0.00204 0.41527 0.41888 0.0
H1432 H 0.95295 0.40504 0.43079 0.0
H1433 H 0.97991 0.41854 0.41362 0.0
H1434 H 0.98842 0.41958 0.5844 0.0
H1435 H 0.96144 0.40624 0.60175 0.0
C1436 C 0.02763 0.44938 0.50945 0.0
C1437 C 0.03393 0.44549 0.46649 0.0
C1438 C 0.01221 0.44108 0.51975 0.0
C1439 C 0.00273 0.42874 0.48722 0.0
C1440 C 0.00903 0.42482 0.44432 0.0
C1441 C 0.02448 0.43309 0.43413 0.0
C1442 C 0.96056 0.40811 0.46471 0.0
C1443 C 0.95504 0.40461 0.51767 0.0
C1444 C 0.97601 0.41577 0.45481 0.0
C1445 C 0.9863 0.42015 0.49765 0.0
C1446 C 0.98078 0.41652 0.55058 0.0
C1447 C 0.96532 0.40881 0.56048 0.0
H1448 H 0.57595 0.53886 0.43552 0.0
H1449 H 0.59063 0.55963 0.59188 0.0
H1450 H 0.56281 0.55278 0.42114 0.0
H1451 H 0.57765 0.57376 0.57702 0.0
H1452 H 0.53938 0.58418 0.55287 0.0
H1453 H 0.55216 0.56993 0.56874 0.0
H1454 H 0.56884 0.57868 0.40536 0.0
H1455 H 0.55588 0.59273 0.38915 0.0
C1456 C 0.57639 0.5464 0.46684 0.0
C1457 C 0.58436 0.54815 0.51483 0.0
C1458 C 0.56893 0.55446 0.45842 0.0
C1459 C 0.56924 0.56443 0.49782 0.0
C1460 C 0.57708 0.56606 0.54609 0.0
C1461 C 0.58458 0.55802 0.55449 0.0
C1462 C 0.54577 0.58306 0.52031 0.0
C1463 C 0.54658 0.58956 0.4697 0.0
C1464 C 0.55316 0.57496 0.52953 0.0
C1465 C 0.56149 0.57315 0.4883 0.0
C1466 C 0.56234 0.5797 0.43774 0.0
C1467 C 0.55498 0.58782 0.42855 0.0
H1468 H 0.46577 0.03529 0.49527 0.0
H1469 H 0.42933 0.0404 0.5578 0.0
H1470 H 0.44817 0.00913 0.47417 0.0
H1471 H 0.41161 0.01425 0.53541 0.0
H1472 H 0.38834 0.96242 0.54545 0.0
H1473 H 0.4048 0.98908 0.56365 0.0
H1474 H 0.42797 0.99379 0.41337 0.0
H1475 H 0.41178 0.96708 0.39583 0.0
C1476 C 0.45399 0.03086 0.50425 0.0
C1477 C 0.44897 0.03993 0.52831 0.0
C1478 C 0.44386 0.01587 0.49176 0.0
C1479 C 0.42845 0.0096 0.50283 0.0
C1480 C 0.42342 0.01868 0.52685 0.0
C1481 C 0.43357 0.03369 0.53949 0.0
C1482 C 0.39686 0.96917 0.51606 0.0
C1483 C 0.39882 0.9626 0.46938 0.0
C1484 C 0.40626 0.98448 0.5264 0.0
C1485 C 0.41779 0.99356 0.49018 0.0
C1486 C 0.4194 0.98706 0.44262 0.0
C1487 C 0.41005 0.97176 0.4324 0.0
H1488 H 0.60552 0.03651 0.52891 0.0
H1489 H 0.56428 0.03665 0.49622 0.0
H1490 H 0.59366 0.01032 0.50009 0.0
H1491 H 0.55235 0.01045 0.46879 0.0
H1492 H 0.54037 0.9691 0.36877 0.0
H1493 H 0.55323 0.99536 0.39604 0.0
H1494 H 0.57447 0.98522 0.52685 0.0
H1495 H 0.56186 0.95896 0.49881 0.0
C1496 C 0.5939 0.03093 0.51593 0.0
C1497 C 0.58586 0.03868 0.51463 0.0
C1498 C 0.58708 0.0159 0.49963 0.0
C1499 C 0.57208 0.00831 0.48184 0.0
C1500 C 0.56401 0.01604 0.48124 0.0
C1501 C 0.57083 0.03105 0.4973 0.0
C1502 C 0.54785 0.97247 0.40316 0.0
C1503 C 0.55006 0.96192 0.43168 0.0
C1504 C 0.55514 0.98752 0.41904 0.0
C1505 C 0.5648 0.99239 0.46388 0.0
C1506 C 0.56722 0.98188 0.49184 0.0
C1507 C 0.55993 0.96681 0.47591 0.0
H1508 H 0.96375 0.5678 0.56023 0.0
H1509 H 0.96089 0.52693 0.50057 0.0
H1510 H 0.99069 0.58148 0.54056 0.0
H1511 H 0.98762 0.54059 0.48055 0.0
H1512 H 0.03783 0.5652 0.51204 0.0
H1513 H 0.01115 0.5527 0.53251 0.0
H1514 H 0.0084 0.58967 0.46193 0.0
H1515 H 0.03531 0.60237 0.44176 0.0
C1516 C 0.96884 0.56175 0.54286 0.0
C1517 C 0.96019 0.54626 0.53223 0.0
C1518 C 0.98424 0.5696 0.53131 0.0
C1519 C 0.99127 0.56208 0.50928 0.0
C1520 C 0.98257 0.54664 0.49826 0.0
C1521 C 0.96722 0.53883 0.50952 0.0
C1522 C 0.03159 0.57072 0.5009 0.0
C1523 C 0.03869 0.58476 0.47501 0.0
C1524 C 0.01627 0.5635 0.51243 0.0
C1525 C 0.00766 0.57015 0.49848 0.0
C1526 C 0.01478 0.58432 0.47343 0.0
C1527 C 0.03015 0.59155 0.46164 0.0
H1528 H 0.43367 0.47451 0.47734 0.0
H1529 H 0.39178 0.43322 0.45126 0.0
H1530 H 0.44596 0.46009 0.49852 0.0
H1531 H 0.40417 0.4188 0.47257 0.0
H1532 H 0.42942 0.40003 0.57375 0.0
H1533 H 0.4165 0.41401 0.55338 0.0
H1534 H 0.45279 0.44318 0.44738 0.0
H1535 H 0.46569 0.42929 0.46753 0.0
C1536 C 0.42707 0.46236 0.47618 0.0
C1537 C 0.41175 0.45501 0.46248 0.0
C1538 C 0.43414 0.45412 0.48807 0.0
C1539 C 0.42602 0.43834 0.48704 0.0
C1540 C 0.41066 0.43096 0.47401 0.0
C1541 C 0.40361 0.43921 0.46153 0.0
C1542 C 0.43463 0.40943 0.54612 0.0
C1543 C 0.44859 0.41358 0.52232 0.0
C1544 C 0.4272 0.41736 0.53426 0.0
C1545 C 0.43367 0.42969 0.49892 0.0
C1546 C 0.44761 0.43382 0.47519 0.0
C1547 C 0.45496 0.42581 0.48656 0.0
H1548 H 0.25432 0.09275 0.25736 0.0
H1549 H 0.20668 0.06721 0.22407 0.0
H1550 H 0.25315 0.11575 0.25879 0.0
H1551 H 0.20548 0.09038 0.22648 0.0
H1552 H 0.21557 0.13782 0.16778 0.0
H1553 H 0.21425 0.11346 0.17296 0.0
H1554 H 0.24327 0.12856 0.31245 0.0
H1555 H 0.24486 0.15294 0.30669 0.0
C1556 C 0.24355 0.09201 0.25078 0.0
C1557 C 0.23058 0.07812 0.24057 0.0
C1558 C 0.24286 0.10522 0.25197 0.0
C1559 C 0.2292 0.1049 0.24305 0.0
C1560 C 0.21619 0.091 0.23312 0.0
C1561 C 0.21687 0.07773 0.232 0.0
C1562 C 0.22155 0.13589 0.19985 0.0
C1563 C 0.23045 0.14738 0.23644 0.0
C1564 C 0.22073 0.1219 0.20297 0.0
C1565 C 0.22878 0.11914 0.24278 0.0
C1566 C 0.23717 0.13044 0.28067 0.0
C1567 C 0.23801 0.14439 0.2775 0.0
H1568 H 0.84287 0.09209 0.29397 0.0
H1569 H 0.85794 0.0707 0.17969 0.0
H1570 H 0.86756 0.11446 0.29258 0.0
H1571 H 0.88288 0.09309 0.17926 0.0
H1572 H 0.9162 0.14328 0.13696 0.0
H1573 H 0.89383 0.11859 0.14512 0.0
H1574 H 0.89358 0.12484 0.31716 0.0
H1575 H 0.91572 0.1497 0.30884 0.0
C1576 C 0.85152 0.09207 0.26911 0.0
C1577 C 0.84839 0.07964 0.23662 0.0
C1578 C 0.86574 0.10488 0.26863 0.0
C1579 C 0.87721 0.10558 0.23575 0.0
C1580 C 0.87423 0.09297 0.20453 0.0
C1581 C 0.85996 0.08011 0.20499 0.0
C1582 C 0.91148 0.13932 0.17662 0.0
C1583 C 0.91762 0.14854 0.22215 0.0
C1584 C 0.8987 0.12511 0.18135 0.0
C1585 C 0.89183 0.1198 0.23175 0.0
C1586 C 0.89844 0.12872 0.27762 0.0
C1587 C 0.91117 0.14295 0.27287 0.0
H1588 H 0.92277 0.78321 0.33635 0.0
H1589 H 0.90884 0.75524 0.19396 0.0
H1590 H 0.89856 0.78235 0.33797 0.0
H1591 H 0.8849 0.75462 0.19517 0.0
H1592 H 0.83784 0.73983 0.25708 0.0
H1593 H 0.86279 0.74276 0.25319 0.0
H1594 H 0.8825 0.79007 0.28839 0.0
H1595 H 0.85739 0.78712 0.29315 0.0
C1596 C 0.91464 0.77704 0.30508 0.0
C1597 C 0.91767 0.76916 0.26538 0.0
C1598 C 0.9008 0.7766 0.30589 0.0
C1599 C 0.88977 0.76827 0.26705 0.0
C1600 C 0.89305 0.76088 0.22628 0.0
C1601 C 0.90682 0.76131 0.22547 0.0
C1602 C 0.84747 0.75088 0.264 0.0
C1603 C 0.84562 0.76325 0.27536 0.0
C1604 C 0.86178 0.75257 0.26141 0.0
C1605 C 0.87462 0.76667 0.2701 0.0
C1606 C 0.87281 0.77905 0.28184 0.0
C1607 C 0.85844 0.77737 0.28431 0.0
H1608 H 0.07404 0.2142 0.82776 0.0
H1609 H 0.08766 0.24159 0.68412 0.0
H1610 H 0.09693 0.21259 0.82355 0.0
H1611 H 0.11018 0.23952 0.67865 0.0
H1612 H 0.15724 0.25111 0.72929 0.0
H1613 H 0.13309 0.24988 0.72702 0.0
H1614 H 0.11127 0.20337 0.7769 0.0
H1615 H 0.13572 0.20476 0.78089 0.0
C1616 C 0.08179 0.21964 0.79473 0.0
C1617 C 0.07916 0.22819 0.75668 0.0
C1618 C 0.09487 0.21866 0.79215 0.0
C1619 C 0.10551 0.22609 0.75115 0.0
C1620 C 0.10243 0.23398 0.71156 0.0
C1621 C 0.08947 0.2351 0.7145 0.0
C1622 C 0.14731 0.24056 0.73951 0.0
C1623 C 0.14842 0.22803 0.7553 0.0
C1624 C 0.13341 0.23983 0.73781 0.0
C1625 C 0.12018 0.22649 0.7514 0.0
C1626 C 0.12125 0.21386 0.76667 0.0
C1627 C 0.13524 0.21463 0.7687 0.0
H1628 H 0.7662 0.85124 0.71308 0.0
H1629 H 0.77515 0.86065 0.88303 0.0
H1630 H 0.76742 0.87532 0.70055 0.0
H1631 H 0.77619 0.88472 0.87038 0.0
H1632 H 0.78744 0.93207 0.81916 0.0
H1633 H 0.79034 0.90991 0.82608 0.0
H1634 H 0.7506 0.88475 0.72861 0.0
H1635 H 0.74775 0.90679 0.72128 0.0
C1636 C 0.76856 0.85849 0.74772 0.0
C1637 C 0.77043 0.85396 0.79919 0.0
C1638 C 0.7692 0.87226 0.74051 0.0
C1639 C 0.77176 0.88183 0.78455 0.0
C1640 C 0.77429 0.87762 0.83562 0.0
C1641 C 0.77361 0.86379 0.8429 0.0
C1642 C 0.77941 0.92184 0.7988 0.0
C1643 C 0.76733 0.92116 0.76982 0.0
C1644 C 0.78104 0.90915 0.80302 0.0
C1645 C 0.77071 0.89561 0.77787 0.0
C1646 C 0.75886 0.89507 0.74787 0.0
C1647 C 0.75717 0.90769 0.74399 0.0
H1648 H 0.13524 0.92523 0.76569 0.0
H1649 H 0.15889 0.9041 0.69844 0.0
H1650 H 0.11151 0.90146 0.75756 0.0
H1651 H 0.13532 0.88062 0.68967 0.0
H1652 H 0.0954 0.83769 0.75055 0.0
H1653 H 0.11797 0.86216 0.75438 0.0
H1654 H 0.09344 0.88275 0.69077 0.0
H1655 H 0.07055 0.85806 0.68748 0.0
C1656 C 0.13537 0.91559 0.74871 0.0
C1657 C 0.14898 0.91652 0.73326 0.0
C1658 C 0.12178 0.90201 0.74383 0.0
C1659 C 0.12159 0.88914 0.72355 0.0
C1660 C 0.13514 0.89026 0.70644 0.0
C1661 C 0.14866 0.90376 0.71128 0.0
C1662 C 0.09474 0.84739 0.73731 0.0
C1663 C 0.08116 0.84589 0.71841 0.0
C1664 C 0.10773 0.86143 0.73924 0.0
C1665 C 0.10752 0.87436 0.72235 0.0
C1666 C 0.09391 0.87297 0.70422 0.0
C1667 C 0.08085 0.85884 0.70211 0.0
H1668 H 0.90083 0.41797 0.64443 0.0
H1669 H 0.89506 0.41704 0.47175 0.0
H1670 H 0.89785 0.44 0.65022 0.0
H1671 H 0.8924 0.43926 0.47748 0.0
H1672 H 0.87826 0.4739 0.50904 0.0
H1673 H 0.87678 0.44942 0.50966 0.0
H1674 H 0.91319 0.46615 0.62464 0.0
H1675 H 0.91449 0.49039 0.62487 0.0
C1676 C 0.89885 0.42241 0.60773 0.0
C1677 C 0.89832 0.41583 0.55756 0.0
C1678 C 0.8972 0.43508 0.61104 0.0
C1679 C 0.89501 0.44146 0.56428 0.0
C1680 C 0.89393 0.43454 0.51433 0.0
C1681 C 0.89556 0.42185 0.51102 0.0
C1682 C 0.88582 0.47228 0.5349 0.0
C1683 C 0.89653 0.48412 0.56671 0.0
C1684 C 0.88503 0.45829 0.53502 0.0
C1685 C 0.89489 0.45584 0.56708 0.0
C1686 C 0.90529 0.46757 0.60002 0.0
C1687 C 0.9061 0.48153 0.59986 0.0
H1688 H 0.50705 0.42392 0.53713 0.0
H1689 H 0.51937 0.41039 0.68452 0.0
H1690 H 0.53126 0.44695 0.53603 0.0
H1691 H 0.54381 0.43342 0.68281 0.0
H1692 H 0.57411 0.48539 0.69853 0.0
H1693 H 0.55248 0.46008 0.69699 0.0
H1694 H 0.55824 0.4575 0.52568 0.0
H1695 H 0.57974 0.48296 0.52697 0.0
C1696 C 0.51501 0.42575 0.56893 0.0
C1697 C 0.51121 0.41537 0.6112 0.0
C1698 C 0.52895 0.43893 0.56807 0.0
C1699 C 0.53945 0.44206 0.60945 0.0
C1700 C 0.53588 0.43142 0.65072 0.0
C1701 C 0.52191 0.41819 0.65154 0.0
C1702 C 0.57087 0.47938 0.6606 0.0
C1703 C 0.57855 0.48626 0.61278 0.0
C1704 C 0.55852 0.46481 0.6598 0.0
C1705 C 0.55358 0.4568 0.61115 0.0
C1706 C 0.56163 0.46346 0.56367 0.0
C1707 C 0.57399 0.47803 0.56448 0.0
H1708 H 0.59439 0.12095 0.51328 0.0
H1709 H 0.57662 0.08498 0.63011 0.0
H1710 H 0.5711 0.12184 0.51763 0.0
H1711 H 0.55364 0.0862 0.6359 0.0
H1712 H 0.50828 0.07828 0.58 0.0
H1713 H 0.53235 0.07924 0.58016 0.0
H1714 H 0.5552 0.12772 0.57165 0.0
H1715 H 0.53093 0.12672 0.56978 0.0
C1716 C 0.58561 0.11341 0.54052 0.0
C1717 C 0.58726 0.10279 0.5709 0.0
C1718 C 0.57229 0.11395 0.5432 0.0
C1719 C 0.56041 0.10396 0.57663 0.0
C1720 C 0.56239 0.0938 0.60872 0.0
C1721 C 0.57561 0.09317 0.60566 0.0
C1722 C 0.51842 0.08917 0.57831 0.0
C1723 C 0.51768 0.10243 0.57499 0.0
C1724 C 0.53226 0.08973 0.57877 0.0
C1725 C 0.54575 0.10357 0.5764 0.0
C1726 C 0.54503 0.11687 0.57306 0.0
C1727 C 0.53113 0.1163 0.57224 0.0
H1728 H 0.73848 0.54413 0.13133 0.0
H1729 H 0.7593 0.5854 0.03955 0.0
H1730 H 0.76244 0.54453 0.13407 0.0
H1731 H 0.78319 0.58598 0.04344 0.0
H1732 H 0.82152 0.57727 0.02068 0.0
H1733 H 0.79634 0.57367 0.01123 0.0
H1734 H 0.78681 0.55904 0.17694 0.0
H1735 H 0.81187 0.56227 0.186 0.0
C1736 C 0.74814 0.55325 0.11159 0.0
C1737 C 0.74698 0.56475 0.08534 0.0
C1738 C 0.76188 0.55352 0.11343 0.0
C1739 C 0.77474 0.5653 0.08906 0.0
C1740 C 0.77348 0.57662 0.06195 0.0
C1741 C 0.75977 0.57633 0.06002 0.0
C1742 C 0.81402 0.57318 0.05501 0.0
C1743 C 0.81874 0.57016 0.10422 0.0
C1744 C 0.79961 0.57118 0.04965 0.0
C1745 C 0.78959 0.56618 0.09344 0.0
C1746 C 0.79417 0.56276 0.14223 0.0
C1747 C 0.80858 0.5647 0.14753 0.0
H1748 H 0.45784 0.1952 0.12565 0.0
H1749 H 0.41356 0.17523 0.05462 0.0
H1750 H 0.45945 0.21975 0.12458 0.0
H1751 H 0.41499 0.19951 0.05496 0.0
H1752 H 0.42492 0.24622 0.02304 0.0
H1753 H 0.42713 0.22382 0.01431 0.0
H1754 H 0.44834 0.23252 0.17074 0.0
H1755 H 0.44656 0.25522 0.17869 0.0
C1756 C 0.44848 0.19605 0.1097 0.0
C1757 C 0.43557 0.18326 0.0903 0.0
C1758 C 0.44937 0.21009 0.10933 0.0
C1759 C 0.43736 0.21161 0.08965 0.0
C1760 C 0.42457 0.19883 0.06951 0.0
C1761 C 0.42371 0.18485 0.06968 0.0
C1762 C 0.43021 0.24345 0.05532 0.0
C1763 C 0.43543 0.25241 0.10179 0.0
C1764 C 0.43141 0.23056 0.05044 0.0
C1765 C 0.43773 0.22625 0.09212 0.0
C1766 C 0.44352 0.23556 0.13766 0.0
C1767 C 0.44243 0.24854 0.14236 0.0
H1768 H 0.75774 0.17313 0.01049 0.0
H1769 H 0.74099 0.19549 0.11307 0.0
H1770 H 0.78141 0.19648 0.0007 0.0
H1771 H 0.76478 0.21905 0.10258 0.0
H1772 H 0.81662 0.24955 0.13103 0.0
H1773 H 0.7909 0.22855 0.13334 0.0
H1774 H 0.79297 0.22178 0.96254 0.0
H1775 H 0.81877 0.24262 0.96028 0.0
C1776 C 0.75904 0.18308 0.03044 0.0
C1777 C 0.74751 0.18242 0.06286 0.0
C1778 C 0.77259 0.19651 0.02448 0.0
C1779 C 0.77497 0.20961 0.05089 0.0
C1780 C 0.7633 0.20909 0.08213 0.0
C1781 C 0.74967 0.19562 0.08789 0.0
C1782 C 0.81154 0.24369 0.09384 0.0
C1783 C 0.81981 0.24764 0.04559 0.0
C1784 C 0.79676 0.23172 0.09512 0.0
C1785 C 0.78994 0.22344 0.04819 0.0
C1786 C 0.798 0.22781 -0.00048 0.0
C1787 C 0.81276 0.23978 -0.00178 0.0
H1788 H 0.5502 0.73932 0.97628 0.0
H1789 H 0.58573 0.75983 0.85808 0.0
H1790 H 0.5475 0.76166 0.97482 0.0
H1791 H 0.58287 0.7819 0.8562 0.0
H1792 H 0.58799 0.82549 0.92188 0.0
H1793 H 0.58863 0.8022 0.9203 0.0
H1794 H 0.54012 0.77683 0.91674 0.0
H1795 H 0.53942 0.80029 0.91903 0.0
C1796 C 0.55731 0.7485 0.9496 0.0
C1797 C 0.5683 0.74786 0.91776 0.0
C1798 C 0.55571 0.76125 0.94861 0.0
C1799 C 0.56509 0.7736 0.91586 0.0
C1800 C 0.57567 0.77269 0.88263 0.0
C1801 C 0.57726 0.75999 0.88357 0.0
C1802 C 0.57742 0.81497 0.92081 0.0
C1803 C 0.56364 0.81476 0.92045 0.0
C1804 C 0.57781 0.80161 0.91954 0.0
C1805 C 0.56443 0.78768 0.9179 0.0
C1806 C 0.55061 0.7874 0.91823 0.0
C1807 C 0.55022 0.80083 0.91932 0.0
H1808 H 0.17642 0.75792 0.95693 0.0
H1809 H 0.19542 0.7369 0.85832 0.0
H1810 H 0.20028 0.78126 0.95583 0.0
H1811 H 0.21954 0.76031 0.85832 0.0
H1812 H 0.25148 0.81014 0.80953 0.0
H1813 H 0.22971 0.78506 0.81834 0.0
H1814 H 0.22592 0.7936 0.98641 0.0
H1815 H 0.24744 0.81883 0.97725 0.0
C1816 C 0.18576 0.7582 0.93566 0.0
C1817 C 0.18397 0.74556 0.9074 0.0
C1818 C 0.1995 0.77159 0.93534 0.0
C1819 C 0.21183 0.77267 0.90691 0.0
C1820 C 0.2102 0.75989 0.88003 0.0
C1821 C 0.1964 0.74646 0.88029 0.0
C1822 C 0.24609 0.80662 0.84849 0.0
C1823 C 0.25108 0.81655 0.89252 0.0
C1824 C 0.23366 0.79219 0.85365 0.0
C1825 C 0.226 0.78735 0.903 0.0
C1826 C 0.2314 0.79708 0.94758 0.0
C1827 C 0.24378 0.81152 0.94238 0.0
H1828 H 0.17299 0.41443 0.95144 0.0
H1829 H 0.19373 0.45459 0.85357 0.0
H1830 H 0.19688 0.41506 0.95782 0.0
H1831 H 0.21771 0.45503 0.85911 0.0
H1832 H 0.26119 0.45716 0.92231 0.0
H1833 H 0.23802 0.45839 0.92099 0.0
H1834 H 0.21232 0.41039 0.89601 0.0
H1835 H 0.23525 0.4091 0.8983 0.0
C1836 C 0.18266 0.42342 0.93129 0.0
C1837 C 0.18142 0.43439 0.90157 0.0
C1838 C 0.19635 0.42373 0.93475 0.0
C1839 C 0.20914 0.43498 0.90839 0.0
C1840 C 0.20806 0.44626 0.88009 0.0
C1841 C 0.19431 0.44597 0.87673 0.0
C1842 C 0.25058 0.44688 0.91662 0.0
C1843 C 0.25007 0.43302 0.91072 0.0
C1844 C 0.23733 0.4476 0.91561 0.0
C1845 C 0.22333 0.43447 0.90883 0.0
C1846 C 0.22289 0.42067 0.90238 0.0
C1847 C 0.23607 0.41995 0.90338 0.0
H1848 H 0.40278 0.87541 0.40483 0.0
H1849 H 0.42864 0.9232 0.43482 0.0
H1850 H 0.42589 0.87409 0.40656 0.0
H1851 H 0.45151 0.92181 0.4379 0.0
H1852 H 0.49115 0.91833 0.38199 0.0
H1853 H 0.4674 0.91802 0.37677 0.0
H1854 H 0.4458 0.87649 0.46692 0.0
H1855 H 0.46962 0.87659 0.47095 0.0
C1856 C 0.41336 0.8856 0.41211 0.0
C1857 C 0.41388 0.89942 0.41929 0.0
C1858 C 0.42658 0.88483 0.41333 0.0
C1859 C 0.44056 0.89787 0.42188 0.0
C1860 C 0.44099 0.91161 0.43002 0.0
C1861 C 0.42784 0.91239 0.42858 0.0
C1862 C 0.48134 0.90908 0.40053 0.0
C1863 C 0.4823 0.89753 0.42725 0.0
C1864 C 0.46773 0.90895 0.39779 0.0
C1865 C 0.45474 0.89733 0.42202 0.0
C1866 C 0.45558 0.88556 0.44756 0.0
C1867 C 0.46924 0.88565 0.45008 0.0
H1868 H 0.12461 0.59256 0.40366 0.0
H1869 H 0.07634 0.56813 0.42258 0.0
H1870 H 0.12457 0.56876 0.39865 0.0
H1871 H 0.07634 0.54458 0.41953 0.0
H1872 H 0.0778 0.50445 0.35987 0.0
H1873 H 0.07971 0.52897 0.35788 0.0
H1874 H 0.12054 0.54742 0.45188 0.0
H1875 H 0.11891 0.52287 0.45203 0.0
C1876 C 0.11402 0.58214 0.407 0.0
C1877 C 0.10048 0.58223 0.41312 0.0
C1878 C 0.114 0.56851 0.4044 0.0
C1879 C 0.10044 0.55474 0.40819 0.0
C1880 C 0.08696 0.55493 0.4151 0.0
C1881 C 0.08697 0.56848 0.41722 0.0
C1882 C 0.08724 0.51375 0.37987 0.0
C1883 C 0.09814 0.5117 0.4065 0.0
C1884 C 0.0883 0.52781 0.379 0.0
C1885 C 0.10016 0.54015 0.40541 0.0
C1886 C 0.11132 0.5382 0.43079 0.0
C1887 C 0.11035 0.52412 0.43111 0.0
H1888 H 0.48355 0.58182 0.34399 0.0
H1889 H 0.47613 0.5854 0.51338 0.0
H1890 H 0.45831 0.56021 0.33642 0.0
H1891 H 0.45098 0.56359 0.50594 0.0
H1892 H 0.40245 0.52926 0.46727 0.0
H1893 H 0.42578 0.55348 0.46678 0.0
H1894 H 0.4467 0.53442 0.36807 0.0
H1895 H 0.42346 0.51044 0.36774 0.0
C1896 C 0.4765 0.57806 0.37956 0.0
C1897 C 0.48191 0.58524 0.42943 0.0
C1898 C 0.46206 0.56564 0.37523 0.0
C1899 C 0.4527 0.5601 0.42067 0.0
C1900 C 0.45787 0.56766 0.47007 0.0
C1901 C 0.47232 0.58011 0.4744 0.0
C1902 C 0.41198 0.53031 0.44494 0.0
C1903 C 0.41111 0.51791 0.41774 0.0
C1904 C 0.42536 0.54416 0.44492 0.0
C1905 C 0.43809 0.54587 0.41747 0.0
C1906 C 0.43705 0.53356 0.389 0.0
C1907 C 0.42373 0.51976 0.38913 0.0
loop_
_geom_bond_atom_site_label_1
_geom_bond_atom_site_label_2
_geom_bond_distance
_geom_bond_site_symmetry_2
_ccdc_geom_bond_type
C0 O1 1.160 . S
C0 O7 1.185 . S
O1 C0 1.160 . S
O2 Zn3 1.899 . S
O2 C10 1.284 . S
Zn3 O2 1.899 . S
Zn3 O4 2.032 . S
Zn3 O7 2.086 . S
Zn3 O12 1.977 . S
O4 Zn3 2.032 . S
O4 C8 1.278 . S
C5 O6 1.203 . S
C5 O12 1.267 . S
O6 C5 1.203 . S
O7 C0 1.185 . S
O7 Zn3 2.086 . S
C8 O4 1.278 . S
C8 O9 1.211 . S
O9 C8 1.211 . S
C10 O2 1.284 . S
C10 O11 1.273 . S
O11 C10 1.273 . S
O12 Zn3 1.977 . S
O12 C5 1.267 . S
C13 O14 1.160 . S
C13 O20 1.185 . S
O14 C13 1.160 . S
O15 Zn16 1.899 . S
O15 C23 1.284 . S
Zn16 O15 1.899 . S
Zn16 O17 2.032 . S
Zn16 O20 2.086 . S
Zn16 O25 1.977 . S
O17 Zn16 2.032 . S
O17 C21 1.278 . S
C18 O19 1.203 . S
C18 O25 1.267 . S
O19 C18 1.203 . S
O20 C13 1.185 . S
O20 Zn16 2.086 . S
C21 O17 1.278 . S
C21 O22 1.211 . S
O22 C21 1.211 . S
C23 O15 1.284 . S
C23 O24 1.273 . S
O24 C23 1.273 . S
O25 Zn16 1.977 . S
O25 C18 1.267 . S
C26 O27 1.160 . S
C26 O33 1.185 . S
O27 C26 1.160 . S
O28 Zn29 1.899 . S
O28 C36 1.284 . S
Zn29 O28 1.899 . S
Zn29 O30 2.032 . S
Zn29 O33 2.086 . S
Zn29 O38 1.977 . S
O30 Zn29 2.032 . S
O30 C34 1.278 . S
C31 O32 1.203 . S
C31 O38 1.267 . S
O32 C31 1.203 . S
O33 C26 1.185 . S
O33 Zn29 2.086 . S
C34 O30 1.278 . S
C34 O35 1.211 . S
O35 C34 1.211 . S
C36 O28 1.284 . S
C36 O37 1.273 . S
O37 C36 1.273 . S
O38 Zn29 1.977 . S
O38 C31 1.267 . S
C39 O40 1.160 . S
C39 O46 1.185 . S
O40 C39 1.160 . S
O41 Zn42 1.899 . S
O41 C49 1.284 . S
Zn42 O41 1.899 . S
Zn42 O43 2.032 . S
Zn42 O46 2.086 . S
Zn42 O51 1.977 . S
O43 Zn42 2.032 . S
O43 C47 1.278 . S
C44 O45 1.203 . S
C44 O51 1.267 . S
O45 C44 1.203 . S
O46 C39 1.185 . S
O46 Zn42 2.086 . S
C47 O43 1.278 . S
C47 O48 1.211 . S
O48 C47 1.211 . S
C49 O41 1.284 . S
C49 O50 1.273 . S
O50 C49 1.273 . S
O51 Zn42 1.977 . S
O51 C44 1.267 . S
C52 O53 1.160 . S
C52 O59 1.185 . S
O53 C52 1.160 . S
O54 Zn55 1.899 . S
O54 C62 1.284 . S
Zn55 O54 1.899 . S
Zn55 O56 2.032 . S
Zn55 O59 2.086 . S
Zn55 O64 1.977 . S
O56 Zn55 2.032 . S
O56 C60 1.278 . S
C57 O58 1.203 . S
C57 O64 1.267 . S
O58 C57 1.203 . S
O59 C52 1.185 . S
O59 Zn55 2.086 . S
C60 O56 1.278 . S
C60 O61 1.211 . S
O61 C60 1.211 . S
C62 O54 1.284 . S
C62 O63 1.273 . S
O63 C62 1.273 . S
O64 Zn55 1.977 . S
O64 C57 1.267 . S
C65 O66 1.160 . S
C65 O72 1.185 . S
O66 C65 1.160 . S
O67 Zn68 1.899 . S
O67 C75 1.284 . S
Zn68 O67 1.899 . S
Zn68 O69 2.032 . S
Zn68 O72 2.086 . S
Zn68 O77 1.977 . S
O69 Zn68 2.032 . S
O69 C73 1.278 . S
C70 O71 1.203 . S
C70 O77 1.267 . S
O71 C70 1.203 . S
O72 C65 1.185 . S
O72 Zn68 2.086 . S
C73 O69 1.278 . S
C73 O74 1.211 . S
O74 C73 1.211 . S
C75 O67 1.284 . S
C75 O76 1.273 . S
O76 C75 1.273 . S
O77 Zn68 1.977 . S
O77 C70 1.267 . S
C78 O79 1.160 . S
C78 O85 1.185 . S
O79 C78 1.160 . S
O80 Zn81 1.899 . S
O80 C88 1.284 . S
Zn81 O80 1.899 . S
Zn81 O82 2.032 . S
Zn81 O85 2.086 . S
Zn81 O90 1.977 . S
O82 Zn81 2.032 . S
O82 C86 1.278 . S
C83 O84 1.203 . S
C83 O90 1.267 . S
O84 C83 1.203 . S
O85 C78 1.185 . S
O85 Zn81 2.086 . S
C86 O82 1.278 . S
C86 O87 1.211 . S
O87 C86 1.211 . S
C88 O80 1.284 . S
C88 O89 1.273 . S
O89 C88 1.273 . S
O90 Zn81 1.977 . S
O90 C83 1.267 . S
C91 O92 1.160 . S
C91 O98 1.185 . S
O92 C91 1.160 . S
O93 Zn94 1.899 . S
O93 C101 1.284 . S
Zn94 O93 1.899 . S
Zn94 O95 2.032 . S
Zn94 O98 2.086 . S
Zn94 O103 1.977 . S
O95 Zn94 2.032 . S
O95 C99 1.278 . S
C96 O97 1.203 . S
C96 O103 1.267 . S
O97 C96 1.203 . S
O98 C91 1.185 . S
O98 Zn94 2.086 . S
C99 O95 1.278 . S
C99 O100 1.211 . S
O100 C99 1.211 . S
C101 O93 1.284 . S
C101 O102 1.273 . S
O102 C101 1.273 . S
O103 Zn94 1.977 . S
O103 C96 1.267 . S
C104 O105 1.160 . S
C104 O111 1.185 . S
O105 C104 1.160 . S
O106 Zn107 1.899 . S
O106 C114 1.284 . S
Zn107 O106 1.899 . S
Zn107 O108 2.032 . S
Zn107 O111 2.086 . S
Zn107 O116 1.977 . S
O108 Zn107 2.032 . S
O108 C112 1.278 . S
C109 O110 1.203 . S
C109 O116 1.267 . S
O110 C109 1.203 . S
O111 C104 1.185 . S
O111 Zn107 2.086 . S
C112 O108 1.278 . S
C112 O113 1.211 . S
O113 C112 1.211 . S
C114 O106 1.284 . S
C114 O115 1.273 . S
O115 C114 1.273 . S
O116 Zn107 1.977 . S
O116 C109 1.267 . S
C117 O118 1.160 . S
C117 O124 1.185 . S
O118 C117 1.160 . S
O119 Zn120 1.899 . S
O119 C127 1.284 . S
Zn120 O119 1.899 . S
Zn120 O121 2.032 . S
Zn120 O124 2.086 . S
Zn120 O129 1.977 . S
O121 Zn120 2.032 . S
O121 C125 1.278 . S
C122 O123 1.203 . S
C122 O129 1.267 . S
O123 C122 1.203 . S
O124 C117 1.185 . S
O124 Zn120 2.086 . S
C125 O121 1.278 . S
C125 O126 1.211 . S
O126 C125 1.211 . S
C127 O119 1.284 . S
C127 O128 1.273 . S
O128 C127 1.273 . S
O129 Zn120 1.977 . S
O129 C122 1.267 . S
C130 O131 1.160 . S
C130 O137 1.185 . S
O131 C130 1.160 . S
O132 Zn133 1.899 . S
O132 C140 1.284 . S
Zn133 O132 1.899 . S
Zn133 O134 2.032 . S
Zn133 O137 2.086 . S
Zn133 O142 1.977 . S
O134 Zn133 2.032 . S
O134 C138 1.278 . S
C135 O136 1.203 . S
C135 O142 1.267 . S
O136 C135 1.203 . S
O137 C130 1.185 . S
O137 Zn133 2.086 . S
C138 O134 1.278 . S
C138 O139 1.211 . S
O139 C138 1.211 . S
C140 O132 1.284 . S
C140 O141 1.273 . S
O141 C140 1.273 . S
O142 Zn133 1.977 . S
O142 C135 1.267 . S
C143 O144 1.160 . S
C143 O150 1.185 . S
O144 C143 1.160 . S
O145 Zn146 1.899 . S
O145 C153 1.284 . S
Zn146 O145 1.899 . S
Zn146 O147 2.032 . S
Zn146 O150 2.086 . S
Zn146 O155 1.977 . S
O147 Zn146 2.032 . S
O147 C151 1.278 . S
C148 O149 1.203 . S
C148 O155 1.267 . S
O149 C148 1.203 . S
O150 C143 1.185 . S
O150 Zn146 2.086 . S
C151 O147 1.278 . S
C151 O152 1.211 . S
O152 C151 1.211 . S
C153 O145 1.284 . S
C153 O154 1.273 . S
O154 C153 1.273 . S
O155 Zn146 1.977 . S
O155 C148 1.267 . S
C156 O157 1.160 . S
C156 O163 1.185 . S
O157 C156 1.160 . S
O158 Zn159 1.899 . S
O158 C166 1.284 . S
Zn159 O158 1.899 . S
Zn159 O160 2.032 . S
Zn159 O163 2.086 . S
Zn159 O168 1.977 . S
O160 Zn159 2.032 . S
O160 C164 1.278 . S
C161 O162 1.203 . S
C161 O168 1.267 . S
O162 C161 1.203 . S
O163 C156 1.185 . S
O163 Zn159 2.086 . S
C164 O160 1.278 . S
C164 O165 1.211 . S
O165 C164 1.211 . S
C166 O158 1.284 . S
C166 O167 1.273 . S
O167 C166 1.273 . S
O168 Zn159 1.977 . S
O168 C161 1.267 . S
C169 O170 1.160 . S
C169 O176 1.185 . S
O170 C169 1.160 . S
O171 Zn172 1.899 . S
O171 C179 1.284 . S
Zn172 O171 1.899 . S
Zn172 O173 2.032 . S
Zn172 O176 2.086 . S
Zn172 O181 1.977 . S
O173 Zn172 2.032 . S
O173 C177 1.278 . S
C174 O175 1.203 . S
C174 O181 1.267 . S
O175 C174 1.203 . S
O176 C169 1.185 . S
O176 Zn172 2.086 . S
C177 O173 1.278 . S
C177 O178 1.211 . S
O178 C177 1.211 . S
C179 O171 1.284 . S
C179 O180 1.273 . S
O180 C179 1.273 . S
O181 Zn172 1.977 . S
O181 C174 1.267 . S
C182 O183 1.160 . S
C182 O189 1.185 . S
O183 C182 1.160 . S
O184 Zn185 1.899 . S
O184 C192 1.284 . S
Zn185 O184 1.899 . S
Zn185 O186 2.032 . S
Zn185 O189 2.086 . S
Zn185 O194 1.977 . S
O186 Zn185 2.032 . S
O186 C190 1.278 . S
C187 O188 1.203 . S
C187 O194 1.267 . S
O188 C187 1.203 . S
O189 C182 1.185 . S
O189 Zn185 2.086 . S
C190 O186 1.278 . S
C190 O191 1.211 . S
O191 C190 1.211 . S
C192 O184 1.284 . S
C192 O193 1.273 . S
O193 C192 1.273 . S
O194 Zn185 1.977 . S
O194 C187 1.267 . S
C195 O196 1.158 1_556 S
C195 O202 1.180 1_556 S
O196 C195 1.158 1_554 S
O197 Zn198 1.899 . S
O197 C205 1.284 . S
Zn198 O197 1.899 . S
Zn198 O199 2.032 . S
Zn198 O202 2.086 . S
Zn198 O207 1.977 . S
O199 Zn198 2.032 . S
O199 C203 1.278 . S
C200 O201 1.203 . S
C200 O207 1.267 . S
O201 C200 1.203 . S
O202 C195 1.180 1_554 S
O202 Zn198 2.086 . S
C203 O199 1.278 . S
C203 O204 1.211 . S
O204 C203 1.211 . S
C205 O197 1.284 . S
C205 O206 1.273 . S
O206 C205 1.273 . S
O207 Zn198 1.977 . S
O207 C200 1.267 . S
C208 O209 1.157 1_556 S
C208 O215 1.179 1_556 S
O209 C208 1.157 1_554 S
O210 Zn211 1.899 . S
O210 C218 1.284 . S
Zn211 O210 1.899 . S
Zn211 O212 2.032 . S
Zn211 O215 2.086 . S
Zn211 O220 1.977 . S
O212 Zn211 2.032 . S
O212 C216 1.278 . S
C213 O214 1.203 . S
C213 O220 1.267 . S
O214 C213 1.203 . S
O215 C208 1.179 1_554 S
O215 Zn211 2.086 . S
C216 O212 1.278 . S
C216 O217 1.211 . S
O217 C216 1.211 . S
C218 O210 1.284 . S
C218 O219 1.273 . S
O219 C218 1.273 . S
O220 Zn211 1.977 . S
O220 C213 1.267 . S
C221 O222 1.157 1_556 S
C221 O228 1.179 1_556 S
O222 C221 1.157 1_554 S
O223 Zn224 1.899 . S
O223 C231 1.284 . S
Zn224 O223 1.899 . S
Zn224 O225 2.032 . S
Zn224 O228 2.086 . S
Zn224 O233 1.977 . S
O225 Zn224 2.032 . S
O225 C229 1.278 . S
C226 O227 1.203 . S
C226 O233 1.267 . S
O227 C226 1.203 . S
O228 C221 1.179 1_554 S
O228 Zn224 2.086 . S
C229 O225 1.278 . S
C229 O230 1.211 . S
O230 C229 1.211 . S
C231 O223 1.284 . S
C231 O232 1.273 . S
O232 C231 1.273 . S
O233 Zn224 1.977 . S
O233 C226 1.267 . S
C234 O235 1.158 1_556 S
C234 O241 1.180 1_556 S
O235 C234 1.158 1_554 S
O236 Zn237 1.899 . S
O236 C244 1.284 . S
Zn237 O236 1.899 . S
Zn237 O238 2.032 . S
Zn237 O241 2.086 . S
Zn237 O246 1.977 . S
O238 Zn237 2.032 . S
O238 C242 1.278 . S
C239 O240 1.203 . S
C239 O246 1.267 . S
O240 C239 1.203 . S
O241 C234 1.180 1_554 S
O241 Zn237 2.086 . S
C242 O238 1.278 . S
C242 O243 1.211 . S
O243 C242 1.211 . S
C244 O236 1.284 . S
C244 O245 1.273 . S
O245 C244 1.273 . S
O246 Zn237 1.977 . S
O246 C239 1.267 . S
C247 O248 1.157 1_556 S
C247 O254 1.179 1_556 S
O248 C247 1.157 1_554 S
O249 Zn250 1.899 . S
O249 C257 1.284 . S
Zn250 O249 1.899 . S
Zn250 O251 2.032 . S
Zn250 O254 2.086 . S
Zn250 O259 1.977 . S
O251 Zn250 2.032 . S
O251 C255 1.278 . S
C252 O253 1.203 . S
C252 O259 1.267 . S
O253 C252 1.203 . S
O254 C247 1.179 1_554 S
O254 Zn250 2.086 . S
C255 O251 1.278 . S
C255 O256 1.211 . S
O256 C255 1.211 . S
C257 O249 1.284 . S
C257 O258 1.273 . S
O258 C257 1.273 . S
O259 Zn250 1.977 . S
O259 C252 1.267 . S
C260 O261 1.157 1_556 S
C260 O267 1.179 1_556 S
O261 C260 1.157 1_554 S
O262 Zn263 1.899 . S
O262 C270 1.284 . S
Zn263 O262 1.899 . S
Zn263 O264 2.032 . S
Zn263 O267 2.086 . S
Zn263 O272 1.977 . S
O264 Zn263 2.032 . S
O264 C268 1.278 . S
C265 O266 1.203 . S
C265 O272 1.267 . S
O266 C265 1.203 . S
O267 C260 1.179 1_554 S
O267 Zn263 2.086 . S
C268 O264 1.278 . S
C268 O269 1.211 . S
O269 C268 1.211 . S
C270 O262 1.284 . S
C270 O271 1.273 . S
O271 C270 1.273 . S
O272 Zn263 1.977 . S
O272 C265 1.267 . S
C273 O274 1.160 . S
C273 O280 1.185 . S
O274 C273 1.160 . S
O275 Zn276 1.899 . S
O275 C283 1.284 . S
Zn276 O275 1.899 . S
Zn276 O277 2.032 . S
Zn276 O280 2.086 . S
Zn276 O285 1.977 . S
O277 Zn276 2.032 . S
O277 C281 1.278 . S
C278 O279 1.203 . S
C278 O285 1.267 . S
O279 C278 1.203 . S
O280 C273 1.185 . S
O280 Zn276 2.086 . S
C281 O277 1.278 . S
C281 O282 1.211 . S
O282 C281 1.211 . S
C283 O275 1.284 . S
C283 O284 1.273 . S
O284 C283 1.273 . S
O285 Zn276 1.977 . S
O285 C278 1.267 . S
C286 O287 1.160 . S
C286 O293 1.185 . S
O287 C286 1.160 . S
O288 Zn289 1.899 . S
O288 C296 1.284 . S
Zn289 O288 1.899 . S
Zn289 O290 2.032 . S
Zn289 O293 2.086 . S
Zn289 O298 1.977 . S
O290 Zn289 2.032 . S
O290 C294 1.278 . S
C291 O292 1.203 . S
C291 O298 1.267 . S
O292 C291 1.203 . S
O293 C286 1.185 . S
O293 Zn289 2.086 . S
C294 O290 1.278 . S
C294 O295 1.211 . S
O295 C294 1.211 . S
C296 O288 1.284 . S
C296 O297 1.273 . S
O297 C296 1.273 . S
O298 Zn289 1.977 . S
O298 C291 1.267 . S
C299 O300 1.160 . S
C299 O306 1.185 . S
O300 C299 1.160 . S
O301 Zn302 1.899 . S
O301 C309 1.284 . S
Zn302 O301 1.899 . S
Zn302 O303 2.032 . S
Zn302 O306 2.086 . S
Zn302 O311 1.977 . S
O303 Zn302 2.032 . S
O303 C307 1.278 . S
C304 O305 1.203 . S
C304 O311 1.267 . S
O305 C304 1.203 . S
O306 C299 1.185 . S
O306 Zn302 2.086 . S
C307 O303 1.278 . S
C307 O308 1.211 . S
O308 C307 1.211 . S
C309 O301 1.284 . S
C309 O310 1.273 . S
O310 C309 1.273 . S
O311 Zn302 1.977 . S
O311 C304 1.267 . S
C312 O313 1.158 1_554 S
C312 O319 1.180 1_554 S
O313 C312 1.158 1_556 S
O314 Zn315 1.899 . S
O314 C322 1.284 . S
Zn315 O314 1.899 . S
Zn315 O316 2.032 . S
Zn315 O319 2.086 . S
Zn315 O324 1.977 . S
O316 Zn315 2.032 . S
O316 C320 1.278 . S
C317 O318 1.203 . S
C317 O324 1.267 . S
O318 C317 1.203 . S
O319 C312 1.180 1_556 S
O319 Zn315 2.086 . S
C320 O316 1.278 . S
C320 O321 1.211 . S
O321 C320 1.211 . S
C322 O314 1.284 . S
C322 O323 1.273 . S
O323 C322 1.273 . S
O324 Zn315 1.977 . S
O324 C317 1.267 . S
C325 O326 1.157 1_554 S
C325 O332 1.179 1_554 S
O326 C325 1.157 1_556 S
O327 Zn328 1.899 . S
O327 C335 1.284 . S
Zn328 O327 1.899 . S
Zn328 O329 2.032 . S
Zn328 O332 2.086 . S
Zn328 O337 1.977 . S
O329 Zn328 2.032 . S
O329 C333 1.278 . S
C330 O331 1.203 . S
C330 O337 1.267 . S
O331 C330 1.203 . S
O332 C325 1.179 1_556 S
O332 Zn328 2.086 . S
C333 O329 1.278 . S
C333 O334 1.211 . S
O334 C333 1.211 . S
C335 O327 1.284 . S
C335 O336 1.273 . S
O336 C335 1.273 . S
O337 Zn328 1.977 . S
O337 C330 1.267 . S
C338 O339 1.157 1_554 S
C338 O345 1.179 1_554 S
O339 C338 1.157 1_556 S
O340 Zn341 1.899 . S
O340 C348 1.284 . S
Zn341 O340 1.899 . S
Zn341 O342 2.032 . S
Zn341 O345 2.086 . S
Zn341 O350 1.977 . S
O342 Zn341 2.032 . S
O342 C346 1.278 . S
C343 O344 1.203 . S
C343 O350 1.267 . S
O344 C343 1.203 . S
O345 C338 1.179 1_556 S
O345 Zn341 2.086 . S
C346 O342 1.278 . S
C346 O347 1.211 . S
O347 C346 1.211 . S
C348 O340 1.284 . S
C348 O349 1.273 . S
O349 C348 1.273 . S
O350 Zn341 1.977 . S
O350 C343 1.267 . S
C351 O352 1.160 . S
C351 O358 1.185 . S
O352 C351 1.160 . S
O353 Zn354 1.899 . S
O353 C361 1.284 . S
Zn354 O353 1.899 . S
Zn354 O355 2.032 . S
Zn354 O358 2.086 . S
Zn354 O363 1.977 . S
O355 Zn354 2.032 . S
O355 C359 1.278 . S
C356 O357 1.203 . S
C356 O363 1.267 . S
O357 C356 1.203 . S
O358 C351 1.185 . S
O358 Zn354 2.086 . S
C359 O355 1.278 . S
C359 O360 1.211 . S
O360 C359 1.211 . S
C361 O353 1.284 . S
C361 O362 1.273 . S
O362 C361 1.273 . S
O363 Zn354 1.977 . S
O363 C356 1.267 . S
C364 O365 1.160 . S
C364 O371 1.185 . S
O365 C364 1.160 . S
O366 Zn367 1.899 . S
O366 C374 1.284 . S
Zn367 O366 1.899 . S
Zn367 O368 2.032 . S
Zn367 O371 2.086 . S
Zn367 O376 1.977 . S
O368 Zn367 2.032 . S
O368 C372 1.278 . S
C369 O370 1.203 . S
C369 O376 1.267 . S
O370 C369 1.203 . S
O371 C364 1.185 . S
O371 Zn367 2.086 . S
C372 O368 1.278 . S
C372 O373 1.211 . S
O373 C372 1.211 . S
C374 O366 1.284 . S
C374 O375 1.273 . S
O375 C374 1.273 . S
O376 Zn367 1.977 . S
O376 C369 1.267 . S
C377 O378 1.160 . S
C377 O384 1.185 . S
O378 C377 1.160 . S
O379 Zn380 1.899 . S
O379 C387 1.284 . S
Zn380 O379 1.899 . S
Zn380 O381 2.032 . S
Zn380 O384 2.086 . S
Zn380 O389 1.977 . S
O381 Zn380 2.032 . S
O381 C385 1.278 . S
C382 O383 1.203 . S
C382 O389 1.267 . S
O383 C382 1.203 . S
O384 C377 1.185 . S
O384 Zn380 2.086 . S
C385 O381 1.278 . S
C385 O386 1.211 . S
O386 C385 1.211 . S
C387 O379 1.284 . S
C387 O388 1.273 . S
O388 C387 1.273 . S
O389 Zn380 1.977 . S
O389 C382 1.267 . S
C390 O391 1.160 . S
C390 O397 1.185 . S
O391 C390 1.160 . S
O392 Zn393 1.899 . S
O392 C400 1.284 . S
Zn393 O392 1.899 . S
Zn393 O394 2.032 . S
Zn393 O397 2.086 . S
Zn393 O402 1.977 . S
O394 Zn393 2.032 . S
O394 C398 1.278 . S
C395 O396 1.203 . S
C395 O402 1.267 . S
O396 C395 1.203 . S
O397 C390 1.185 . S
O397 Zn393 2.086 . S
C398 O394 1.278 . S
C398 O399 1.211 . S
O399 C398 1.211 . S
C400 O392 1.284 . S
C400 O401 1.273 . S
O401 C400 1.273 . S
O402 Zn393 1.977 . S
O402 C395 1.267 . S
C403 O404 1.160 . S
C403 O410 1.185 . S
O404 C403 1.160 . S
O405 Zn406 1.899 . S
O405 C413 1.284 . S
Zn406 O405 1.899 . S
Zn406 O407 2.032 . S
Zn406 O410 2.086 . S
Zn406 O415 1.977 . S
O407 Zn406 2.032 . S
O407 C411 1.278 . S
C408 O409 1.203 . S
C408 O415 1.267 . S
O409 C408 1.203 . S
O410 C403 1.185 . S
O410 Zn406 2.086 . S
C411 O407 1.278 . S
C411 O412 1.211 . S
O412 C411 1.211 . S
C413 O405 1.284 . S
C413 O414 1.273 . S
O414 C413 1.273 . S
O415 Zn406 1.977 . S
O415 C408 1.267 . S
C416 O417 1.160 . S
C416 O423 1.185 . S
O417 C416 1.160 . S
O418 Zn419 1.899 . S
O418 C426 1.284 . S
Zn419 O418 1.899 . S
Zn419 O420 2.032 . S
Zn419 O423 2.086 . S
Zn419 O428 1.977 . S
O420 Zn419 2.032 . S
O420 C424 1.278 . S
C421 O422 1.203 . S
C421 O428 1.267 . S
O422 C421 1.203 . S
O423 C416 1.185 . S
O423 Zn419 2.086 . S
C424 O420 1.278 . S
C424 O425 1.211 . S
O425 C424 1.211 . S
C426 O418 1.284 . S
C426 O427 1.273 . S
O427 C426 1.273 . S
O428 Zn419 1.977 . S
O428 C421 1.267 . S
C429 O430 1.158 1_554 S
C429 O436 1.180 1_554 S
O430 C429 1.158 1_556 S
O431 Zn432 1.899 . S
O431 C439 1.284 . S
Zn432 O431 1.899 . S
Zn432 O433 2.032 . S
Zn432 O436 2.086 . S
Zn432 O441 1.977 . S
O433 Zn432 2.032 . S
O433 C437 1.278 . S
C434 O435 1.203 . S
C434 O441 1.267 . S
O435 C434 1.203 . S
O436 C429 1.180 1_556 S
O436 Zn432 2.086 . S
C437 O433 1.278 . S
C437 O438 1.211 . S
O438 C437 1.211 . S
C439 O431 1.284 . S
C439 O440 1.273 . S
O440 C439 1.273 . S
O441 Zn432 1.977 . S
O441 C434 1.267 . S
C442 O443 1.157 1_554 S
C442 O449 1.179 1_554 S
O443 C442 1.157 1_556 S
O444 Zn445 1.899 . S
O444 C452 1.284 . S
Zn445 O444 1.899 . S
Zn445 O446 2.032 . S
Zn445 O449 2.086 . S
Zn445 O454 1.977 . S
O446 Zn445 2.032 . S
O446 C450 1.278 . S
C447 O448 1.203 . S
C447 O454 1.267 . S
O448 C447 1.203 . S
O449 C442 1.179 1_556 S
O449 Zn445 2.086 . S
C450 O446 1.278 . S
C450 O451 1.211 . S
O451 C450 1.211 . S
C452 O444 1.284 . S
C452 O453 1.273 . S
O453 C452 1.273 . S
O454 Zn445 1.977 . S
O454 C447 1.267 . S
C455 O456 1.157 1_554 S
C455 O462 1.179 1_554 S
O456 C455 1.157 1_556 S
O457 Zn458 1.899 . S
O457 C465 1.284 . S
Zn458 O457 1.899 . S
Zn458 O459 2.032 . S
Zn458 O462 2.086 . S
Zn458 O467 1.977 . S
O459 Zn458 2.032 . S
O459 C463 1.278 . S
C460 O461 1.203 . S
C460 O467 1.267 . S
O461 C460 1.203 . S
O462 C455 1.179 1_556 S
O462 Zn458 2.086 . S
C463 O459 1.278 . S
C463 O464 1.211 . S
O464 C463 1.211 . S
C465 O457 1.284 . S
C465 O466 1.273 . S
O466 C465 1.273 . S
O467 Zn458 1.977 . S
O467 C460 1.267 . S
H468 C476 0.950 . S
H469 C481 0.950 . S
H470 C478 0.950 . S
H471 C480 0.950 . S
H472 C482 0.950 . S
H473 C484 0.950 . S
H474 C486 0.950 . S
H475 C487 0.950 . S
C476 H468 0.950 . S
C476 C477 1.386 . S
C476 C478 1.391 . S
C477 C476 1.386 . S
C477 C481 1.393 . S
C478 H470 0.950 . S
C478 C476 1.391 . S
C478 C479 1.400 . S
C479 C478 1.400 . S
C479 C480 1.398 . S
C479 C485 1.491 1_565 S
C480 H471 0.950 . S
C480 C479 1.398 . S
C480 C481 1.391 . S
C481 H469 0.950 . S
C481 C477 1.393 . S
C481 C480 1.391 . S
C482 H472 0.950 . S
C482 C483 1.386 . S
C482 C484 1.391 . S
C483 C482 1.386 . S
C483 C487 1.393 . S
C484 H473 0.950 . S
C484 C482 1.391 . S
C484 C485 1.400 . S
C485 C479 1.491 1_545 S
C485 C484 1.400 . S
C485 C486 1.398 . S
C486 H474 0.950 . S
C486 C485 1.398 . S
C486 C487 1.391 . S
C487 H475 0.950 . S
C487 C483 1.393 . S
C487 C486 1.391 . S
H488 C496 0.950 . S
H489 C501 0.950 . S
H490 C498 0.950 . S
H491 C500 0.950 . S
H492 C502 0.950 . S
H493 C504 0.950 . S
H494 C506 0.950 . S
H495 C507 0.950 . S
C496 H488 0.950 . S
C496 C497 1.386 . S
C496 C498 1.391 . S
C497 C496 1.386 . S
C497 C501 1.393 . S
C498 H490 0.950 . S
C498 C496 1.391 . S
C498 C499 1.400 . S
C499 C498 1.400 . S
C499 C500 1.398 1_455 S
C499 C505 1.491 1_455 S
C500 H491 0.950 . S
C500 C499 1.398 1_655 S
C500 C501 1.391 1_655 S
C501 H489 0.950 . S
C501 C497 1.393 . S
C501 C500 1.391 1_455 S
C502 H492 0.950 . S
C502 C503 1.386 . S
C502 C504 1.391 . S
C503 C502 1.386 . S
C503 C507 1.393 . S
C504 H493 0.950 . S
C504 C502 1.391 . S
C504 C505 1.400 . S
C505 C499 1.491 1_655 S
C505 C504 1.400 . S
C505 C506 1.398 1_655 S
C506 H494 0.950 . S
C506 C505 1.398 1_455 S
C506 C507 1.391 1_455 S
C507 H495 0.950 . S
C507 C503 1.393 . S
C507 C506 1.391 1_655 S
H508 C516 0.950 . S
H509 C521 0.950 . S
H510 C518 0.950 . S
H511 C520 0.950 . S
H512 C522 0.950 . S
H513 C524 0.950 . S
H514 C526 0.950 . S
H515 C527 0.950 . S
C516 H508 0.950 . S
C516 C517 1.386 . S
C516 C518 1.391 . S
C517 C516 1.386 . S
C517 C521 1.393 . S
C518 H510 0.950 . S
C518 C516 1.391 . S
C518 C519 1.400 . S
C519 C518 1.400 . S
C519 C520 1.398 . S
C519 C525 1.491 . S
C520 H511 0.950 . S
C520 C519 1.398 . S
C520 C521 1.391 . S
C521 H509 0.950 . S
C521 C517 1.393 . S
C521 C520 1.391 . S
C522 H512 0.950 . S
C522 C523 1.386 . S
C522 C524 1.391 . S
C523 C522 1.386 . S
C523 C527 1.393 . S
C524 H513 0.950 . S
C524 C522 1.391 . S
C524 C525 1.400 . S
C525 C519 1.491 . S
C525 C524 1.400 . S
C525 C526 1.398 . S
C526 H514 0.950 . S
C526 C525 1.398 . S
C526 C527 1.391 . S
C527 H515 0.950 . S
C527 C523 1.393 . S
C527 C526 1.391 . S
H528 C536 0.950 . S
H529 C541 0.950 . S
H530 C538 0.950 1_545 S
H531 C540 0.950 . S
H532 C542 0.950 . S
H533 C544 0.950 1_565 S
H534 C546 0.950 . S
H535 C547 0.950 . S
C536 H528 0.950 . S
C536 C537 1.386 . S
C536 C538 1.391 . S
C537 C536 1.386 . S
C537 C541 1.393 . S
C538 H530 0.950 1_565 S
C538 C536 1.391 . S
C538 C539 1.400 . S
C539 C538 1.400 . S
C539 C540 1.398 . S
C539 C545 1.491 1_565 S
C540 H531 0.950 . S
C540 C539 1.398 . S
C540 C541 1.391 . S
C541 H529 0.950 . S
C541 C537 1.393 . S
C541 C540 1.391 . S
C542 H532 0.950 . S
C542 C543 1.386 . S
C542 C544 1.391 . S
C543 C542 1.386 . S
C543 C547 1.393 . S
C544 H533 0.950 1_545 S
C544 C542 1.391 . S
C544 C545 1.400 . S
C545 C539 1.491 1_545 S
C545 C544 1.400 . S
C545 C546 1.398 . S
C546 H534 0.950 . S
C546 C545 1.398 . S
C546 C547 1.391 . S
C547 H535 0.950 . S
C547 C543 1.393 . S
C547 C546 1.391 . S
H548 C556 0.950 . S
H549 C561 0.950 . S
H550 C558 0.974 . S
H551 C560 0.950 . S
H552 C562 0.950 . S
H553 C564 0.974 . S
H554 C566 0.950 . S
H555 C567 0.950 . S
C556 H548 0.950 . S
C556 C557 1.386 . S
C556 C558 1.380 1_455 S
C557 C556 1.386 . S
C557 C561 1.393 . S
C558 H550 0.974 . S
C558 C556 1.380 1_655 S
C558 C559 1.388 1_655 S
C559 C558 1.388 1_455 S
C559 C560 1.398 . S
C559 C565 1.491 1_455 S
C560 H551 0.950 . S
C560 C559 1.398 . S
C560 C561 1.391 . S
C561 H549 0.950 . S
C561 C557 1.393 . S
C561 C560 1.391 . S
C562 H552 0.950 . S
C562 C563 1.386 . S
C562 C564 1.380 1_655 S
C563 C562 1.386 . S
C563 C567 1.393 . S
C564 H553 0.974 . S
C564 C562 1.380 1_455 S
C564 C565 1.388 1_455 S
C565 C559 1.491 1_655 S
C565 C564 1.388 1_655 S
C565 C566 1.398 . S
C566 H554 0.950 . S
C566 C565 1.398 . S
C566 C567 1.391 . S
C567 H555 0.950 . S
C567 C563 1.393 . S
C567 C566 1.391 . S
H568 C576 0.950 . S
H569 C581 0.950 . S
H570 C578 0.950 . S
H571 C580 0.950 . S
H572 C582 0.950 . S
H573 C584 0.950 . S
H574 C586 0.950 . S
H575 C587 0.950 . S
C576 H568 0.950 . S
C576 C577 1.386 . S
C576 C578 1.391 . S
C577 C576 1.386 . S
C577 C581 1.393 . S
C578 H570 0.950 . S
C578 C576 1.391 . S
C578 C579 1.400 . S
C579 C578 1.400 . S
C579 C580 1.398 . S
C579 C585 1.491 . S
C580 H571 0.950 . S
C580 C579 1.398 . S
C580 C581 1.391 . S
C581 H569 0.950 . S
C581 C577 1.393 . S
C581 C580 1.391 . S
C582 H572 0.950 . S
C582 C583 1.386 . S
C582 C584 1.391 . S
C583 C582 1.386 . S
C583 C587 1.393 . S
C584 H573 0.950 . S
C584 C582 1.391 . S
C584 C585 1.400 . S
C585 C579 1.491 . S
C585 C584 1.400 . S
C585 C586 1.398 . S
C586 H574 0.950 . S
C586 C585 1.398 . S
C586 C587 1.391 . S
C587 H575 0.950 . S
C587 C583 1.393 . S
C587 C586 1.391 . S
H588 C596 0.950 . S
H589 C601 0.950 . S
H590 C598 0.950 . S
H591 C600 0.950 . S
H592 C602 0.950 . S
H593 C604 0.950 . S
H594 C606 0.950 . S
H595 C607 0.950 . S
C596 H588 0.950 . S
C596 C597 1.386 . S
C596 C598 1.391 . S
C597 C596 1.386 . S
C597 C601 1.393 . S
C598 H590 0.950 . S
C598 C596 1.391 . S
C598 C599 1.400 . S
C599 C598 1.400 . S
C599 C600 1.398 . S
C599 C605 1.491 . S
C600 H591 0.950 . S
C600 C599 1.398 . S
C600 C601 1.391 . S
C601 H589 0.950 . S
C601 C597 1.393 . S
C601 C600 1.391 . S
C602 H592 0.950 . S
C602 C603 1.386 . S
C602 C604 1.391 . S
C603 C602 1.386 . S
C603 C607 1.393 . S
C604 H593 0.950 . S
C604 C602 1.391 . S
C604 C605 1.400 . S
C605 C599 1.491 . S
C605 C604 1.400 . S
C605 C606 1.398 . S
C606 H594 0.950 . S
C606 C605 1.398 . S
C606 C607 1.391 . S
C607 H595 0.950 . S
C607 C603 1.393 . S
C607 C606 1.391 . S
H608 C616 0.950 . S
H609 C621 0.950 . S
H610 C618 0.950 . S
H611 C620 0.950 . S
H612 C622 0.950 . S
H613 C624 0.950 . S
H614 C626 0.950 . S
H615 C627 0.950 . S
C616 H608 0.950 . S
C616 C617 1.386 . S
C616 C618 1.391 . S
C617 C616 1.386 . S
C617 C621 1.393 . S
C618 H610 0.950 . S
C618 C616 1.391 . S
C618 C619 1.400 . S
C619 C618 1.400 . S
C619 C620 1.398 . S
C619 C625 1.491 . S
C620 H611 0.950 . S
C620 C619 1.398 . S
C620 C621 1.391 . S
C621 H609 0.950 . S
C621 C617 1.393 . S
C621 C620 1.391 . S
C622 H612 0.950 . S
C622 C623 1.386 . S
C622 C624 1.391 . S
C623 C622 1.386 . S
C623 C627 1.393 . S
C624 H613 0.950 . S
C624 C622 1.391 . S
C624 C625 1.400 . S
C625 C619 1.491 . S
C625 C624 1.400 . S
C625 C626 1.398 . S
C626 H614 0.950 . S
C626 C625 1.398 . S
C626 C627 1.391 . S
C627 H615 0.950 . S
C627 C623 1.393 . S
C627 C626 1.391 . S
H628 C636 0.950 . S
H629 C641 0.950 . S
H630 C638 0.950 . S
H631 C640 0.950 . S
H632 C642 0.950 . S
H633 C644 0.950 . S
H634 C646 0.950 . S
H635 C647 0.950 . S
C636 H628 0.950 . S
C636 C637 1.386 . S
C636 C638 1.391 . S
C637 C636 1.386 . S
C637 C641 1.393 . S
C638 H630 0.950 . S
C638 C636 1.391 . S
C638 C639 1.400 . S
C639 C638 1.400 . S
C639 C640 1.398 . S
C639 C645 1.491 . S
C640 H631 0.950 . S
C640 C639 1.398 . S
C640 C641 1.391 . S
C641 H629 0.950 . S
C641 C637 1.393 . S
C641 C640 1.391 . S
C642 H632 0.950 . S
C642 C643 1.386 . S
C642 C644 1.391 . S
C643 C642 1.386 . S
C643 C647 1.393 . S
C644 H633 0.950 . S
C644 C642 1.391 . S
C644 C645 1.400 . S
C645 C639 1.491 . S
C645 C644 1.400 . S
C645 C646 1.398 . S
C646 H634 0.950 . S
C646 C645 1.398 . S
C646 C647 1.391 . S
C647 H635 0.950 . S
C647 C643 1.393 . S
C647 C646 1.391 . S
H648 C656 0.950 . S
H649 C661 0.950 . S
H650 C658 0.950 . S
H651 C660 0.950 . S
H652 C662 0.950 . S
H653 C664 0.950 . S
H654 C666 0.950 . S
H655 C667 0.950 . S
C656 H648 0.950 . S
C656 C657 1.386 . S
C656 C658 1.391 . S
C657 C656 1.386 . S
C657 C661 1.393 . S
C658 H650 0.950 . S
C658 C656 1.391 . S
C658 C659 1.400 . S
C659 C658 1.400 . S
C659 C660 1.398 . S
C659 C665 1.491 . S
C660 H651 0.950 . S
C660 C659 1.398 . S
C660 C661 1.391 . S
C661 H649 0.950 . S
C661 C657 1.393 . S
C661 C660 1.391 . S
C662 H652 0.950 . S
C662 C663 1.386 . S
C662 C664 1.391 . S
C663 C662 1.386 . S
C663 C667 1.393 . S
C664 H653 0.950 . S
C664 C662 1.391 . S
C664 C665 1.400 . S
C665 C659 1.491 . S
C665 C664 1.400 . S
C665 C666 1.398 . S
C666 H654 0.950 . S
C666 C665 1.398 . S
C666 C667 1.391 . S
C667 H655 0.950 . S
C667 C663 1.393 . S
C667 C666 1.391 . S
H668 C676 0.950 . S
H669 C681 0.950 . S
H670 C678 0.950 . S
H671 C680 0.950 . S
H672 C682 0.950 . S
H673 C684 0.950 . S
H674 C686 0.950 . S
H675 C687 0.950 . S
C676 H668 0.950 . S
C676 C677 1.386 . S
C676 C678 1.391 . S
C677 C676 1.386 . S
C677 C681 1.393 . S
C678 H670 0.950 . S
C678 C676 1.391 . S
C678 C679 1.400 . S
C679 C678 1.400 . S
C679 C680 1.398 . S
C679 C685 1.491 . S
C680 H671 0.950 . S
C680 C679 1.398 . S
C680 C681 1.391 . S
C681 H669 0.950 . S
C681 C677 1.393 . S
C681 C680 1.391 . S
C682 H672 0.950 . S
C682 C683 1.386 . S
C682 C684 1.391 . S
C683 C682 1.386 . S
C683 C687 1.393 . S
C684 H673 0.950 . S
C684 C682 1.391 . S
C684 C685 1.400 . S
C685 C679 1.491 . S
C685 C684 1.400 . S
C685 C686 1.398 . S
C686 H674 0.950 . S
C686 C685 1.398 . S
C686 C687 1.391 . S
C687 H675 0.950 . S
C687 C683 1.393 . S
C687 C686 1.391 . S
H688 C696 0.950 . S
H689 C701 0.950 . S
H690 C698 0.950 . S
H691 C700 0.950 . S
H692 C702 0.950 . S
H693 C704 0.950 . S
H694 C706 0.950 . S
H695 C707 0.950 . S
C696 H688 0.950 . S
C696 C697 1.386 . S
C696 C698 1.391 . S
C697 C696 1.386 . S
C697 C701 1.393 . S
C698 H690 0.950 . S
C698 C696 1.391 . S
C698 C699 1.400 . S
C699 C698 1.400 . S
C699 C700 1.398 . S
C699 C705 1.491 . S
C700 H691 0.950 . S
C700 C699 1.398 . S
C700 C701 1.391 . S
C701 H689 0.950 . S
C701 C697 1.393 . S
C701 C700 1.391 . S
C702 H692 0.950 . S
C702 C703 1.386 . S
C702 C704 1.391 . S
C703 C702 1.386 . S
C703 C707 1.393 . S
C704 H693 0.950 . S
C704 C702 1.391 . S
C704 C705 1.400 . S
C705 C699 1.491 . S
C705 C704 1.400 . S
C705 C706 1.398 . S
C706 H694 0.950 . S
C706 C705 1.398 . S
C706 C707 1.391 . S
C707 H695 0.950 . S
C707 C703 1.393 . S
C707 C706 1.391 . S
H708 C716 0.950 . S
H709 C721 0.950 . S
H710 C718 0.950 . S
H711 C720 0.950 . S
H712 C722 0.950 . S
H713 C724 0.950 . S
H714 C726 0.950 . S
H715 C727 0.950 . S
C716 H708 0.950 . S
C716 C717 1.386 . S
C716 C718 1.391 . S
C717 C716 1.386 . S
C717 C721 1.393 . S
C718 H710 0.950 . S
C718 C716 1.391 . S
C718 C719 1.400 . S
C719 C718 1.400 . S
C719 C720 1.398 . S
C719 C725 1.491 . S
C720 H711 0.950 . S
C720 C719 1.398 . S
C720 C721 1.391 . S
C721 H709 0.950 . S
C721 C717 1.393 . S
C721 C720 1.391 . S
C722 H712 0.950 . S
C722 C723 1.386 . S
C722 C724 1.391 . S
C723 C722 1.386 . S
C723 C727 1.393 . S
C724 H713 0.950 . S
C724 C722 1.391 . S
C724 C725 1.400 . S
C725 C719 1.491 . S
C725 C724 1.400 . S
C725 C726 1.398 . S
C726 H714 0.950 . S
C726 C725 1.398 . S
C726 C727 1.391 . S
C727 H715 0.950 . S
C727 C723 1.393 . S
C727 C726 1.391 . S
H728 C736 0.950 . S
H729 C741 0.950 . S
H730 C738 0.950 . S
H731 C740 0.950 . S
H732 C742 0.950 . S
H733 C744 0.950 . S
H734 C746 0.950 . S
H735 C747 0.950 . S
C736 H728 0.950 . S
C736 C737 1.386 . S
C736 C738 1.391 . S
C737 C736 1.386 . S
C737 C741 1.393 . S
C738 H730 0.950 . S
C738 C736 1.391 . S
C738 C739 1.400 . S
C739 C738 1.400 . S
C739 C740 1.398 . S
C739 C745 1.491 . S
C740 H731 0.950 . S
C740 C739 1.398 . S
C740 C741 1.391 . S
C741 H729 0.950 . S
C741 C737 1.393 . S
C741 C740 1.391 . S
C742 H732 0.950 . S
C742 C743 1.386 . S
C742 C744 1.391 . S
C743 C742 1.386 . S
C743 C747 1.393 . S
C744 H733 0.950 . S
C744 C742 1.391 . S
C744 C745 1.400 . S
C745 C739 1.491 . S
C745 C744 1.400 . S
C745 C746 1.398 . S
C746 H734 0.950 . S
C746 C745 1.398 . S
C746 C747 1.391 . S
C747 H735 0.950 . S
C747 C743 1.393 . S
C747 C746 1.391 . S
H748 C756 0.950 . S
H749 C761 0.950 . S
H750 C758 0.950 . S
H751 C760 0.950 . S
H752 C762 0.950 . S
H753 C764 0.950 . S
H754 C766 0.950 . S
H755 C767 0.950 . S
C756 H748 0.950 . S
C756 C757 1.386 . S
C756 C758 1.391 . S
C757 C756 1.386 . S
C757 C761 1.393 . S
C758 H750 0.950 . S
C758 C756 1.391 . S
C758 C759 1.400 . S
C759 C758 1.400 . S
C759 C760 1.398 . S
C759 C765 1.491 . S
C760 H751 0.950 . S
C760 C759 1.398 . S
C760 C761 1.391 . S
C761 H749 0.950 . S
C761 C757 1.393 . S
C761 C760 1.391 . S
C762 H752 0.950 . S
C762 C763 1.386 . S
C762 C764 1.391 . S
C763 C762 1.386 . S
C763 C767 1.393 . S
C764 H753 0.950 . S
C764 C762 1.391 . S
C764 C765 1.400 . S
C765 C759 1.491 . S
C765 C764 1.400 . S
C765 C766 1.398 . S
C766 H754 0.950 . S
C766 C765 1.398 . S
C766 C767 1.391 . S
C767 H755 0.950 . S
C767 C763 1.393 . S
C767 C766 1.391 . S
H768 C776 0.950 . S
H769 C781 0.950 . S
H770 C778 0.950 . S
H771 C780 0.950 . S
H772 C782 0.950 . S
H773 C784 0.950 . S
H774 C786 0.950 . S
H775 C787 0.950 . S
C776 H768 0.950 . S
C776 C777 1.386 . S
C776 C778 1.391 . S
C777 C776 1.386 . S
C777 C781 1.393 . S
C778 H770 0.950 . S
C778 C776 1.391 . S
C778 C779 1.400 . S
C779 C778 1.400 . S
C779 C780 1.398 . S
C779 C785 1.491 . S
C780 H771 0.950 . S
C780 C779 1.398 . S
C780 C781 1.391 . S
C781 H769 0.950 . S
C781 C777 1.393 . S
C781 C780 1.391 . S
C782 H772 0.950 . S
C782 C783 1.386 . S
C782 C784 1.391 . S
C783 C782 1.386 . S
C783 C787 1.393 . S
C784 H773 0.950 . S
C784 C782 1.391 . S
C784 C785 1.400 . S
C785 C779 1.491 . S
C785 C784 1.400 . S
C785 C786 1.398 . S
C786 H774 0.950 . S
C786 C785 1.398 . S
C786 C787 1.391 . S
C787 H775 0.950 . S
C787 C783 1.393 . S
C787 C786 1.391 . S
H788 C796 0.950 . S
H789 C801 0.950 . S
H790 C798 0.950 . S
H791 C800 0.950 . S
H792 C802 0.950 . S
H793 C804 0.950 . S
H794 C806 0.950 . S
H795 C807 0.950 . S
C796 H788 0.950 . S
C796 C797 1.386 . S
C796 C798 1.391 . S
C797 C796 1.386 . S
C797 C801 1.393 . S
C798 H790 0.950 . S
C798 C796 1.391 . S
C798 C799 1.400 . S
C799 C798 1.400 . S
C799 C800 1.398 . S
C799 C805 1.491 . S
C800 H791 0.950 . S
C800 C799 1.398 . S
C800 C801 1.391 . S
C801 H789 0.950 . S
C801 C797 1.393 . S
C801 C800 1.391 . S
C802 H792 0.950 . S
C802 C803 1.386 . S
C802 C804 1.391 . S
C803 C802 1.386 . S
C803 C807 1.393 . S
C804 H793 0.950 . S
C804 C802 1.391 . S
C804 C805 1.400 . S
C805 C799 1.491 . S
C805 C804 1.400 . S
C805 C806 1.398 . S
C806 H794 0.950 . S
C806 C805 1.398 . S
C806 C807 1.391 . S
C807 H795 0.950 . S
C807 C803 1.393 . S
C807 C806 1.391 . S
H808 C816 0.950 . S
H809 C821 0.950 . S
H810 C818 0.950 . S
H811 C820 0.950 . S
H812 C822 0.950 . S
H813 C824 0.950 . S
H814 C826 0.950 . S
H815 C827 0.950 . S
C816 H808 0.950 . S
C816 C817 1.386 . S
C816 C818 1.391 . S
C817 C816 1.386 . S
C817 C821 1.393 . S
C818 H810 0.950 . S
C818 C816 1.391 . S
C818 C819 1.400 . S
C819 C818 1.400 . S
C819 C820 1.398 . S
C819 C825 1.491 . S
C820 H811 0.950 . S
C820 C819 1.398 . S
C820 C821 1.391 . S
C821 H809 0.950 . S
C821 C817 1.393 . S
C821 C820 1.391 . S
C822 H812 0.950 . S
C822 C823 1.386 . S
C822 C824 1.391 . S
C823 C822 1.386 . S
C823 C827 1.393 . S
C824 H813 0.950 . S
C824 C822 1.391 . S
C824 C825 1.400 . S
C825 C819 1.491 . S
C825 C824 1.400 . S
C825 C826 1.398 . S
C826 H814 0.950 . S
C826 C825 1.398 . S
C826 C827 1.391 . S
C827 H815 0.950 . S
C827 C823 1.393 . S
C827 C826 1.391 . S
H828 C836 0.950 . S
H829 C841 0.950 . S
H830 C838 0.970 . S
H831 C840 0.950 1_554 S
H832 C842 0.950 . S
H833 C844 0.969 . S
H834 C846 0.950 1_556 S
H835 C847 0.950 . S
C836 H828 0.950 . S
C836 C837 1.386 . S
C836 C838 1.379 1_565 S
C837 C836 1.386 . S
C837 C841 1.393 . S
C838 H830 0.970 . S
C838 C836 1.379 1_545 S
C838 C839 1.393 1_545 S
C839 C838 1.393 1_565 S
C839 C840 1.398 . S
C839 C845 1.491 1_566 S
C840 H831 0.950 1_556 S
C840 C839 1.398 . S
C840 C841 1.391 . S
C841 H829 0.950 . S
C841 C837 1.393 . S
C841 C840 1.391 . S
C842 H832 0.950 . S
C842 C843 1.386 . S
C842 C844 1.379 1_545 S
C843 C842 1.386 . S
C843 C847 1.393 . S
C844 H833 0.969 . S
C844 C842 1.379 1_565 S
C844 C845 1.393 1_565 S
C845 C839 1.491 1_544 S
C845 C844 1.393 1_545 S
C845 C846 1.398 . S
C846 H834 0.950 1_554 S
C846 C845 1.398 . S
C846 C847 1.391 . S
C847 H835 0.950 . S
C847 C843 1.393 . S
C847 C846 1.391 . S
H848 C856 0.950 . S
H849 C861 0.950 . S
H850 C858 0.950 . S
H851 C860 0.941 1_455 S
H852 C862 0.950 . S
H853 C864 0.950 . S
H854 C866 0.941 1_655 S
H855 C867 0.950 . S
C856 H848 0.950 . S
C856 C857 1.386 . S
C856 C858 1.391 . S
C857 C856 1.386 . S
C857 C861 1.393 . S
C858 H850 0.950 . S
C858 C856 1.391 . S
C858 C859 1.400 . S
C859 C858 1.400 . S
C859 C860 1.398 . S
C859 C865 1.491 1_654 S
C860 H851 0.941 1_655 S
C860 C859 1.398 . S
C860 C861 1.391 . S
C861 H849 0.950 . S
C861 C857 1.393 . S
C861 C860 1.391 . S
C862 H852 0.950 . S
C862 C863 1.386 . S
C862 C864 1.391 . S
C863 C862 1.386 . S
C863 C867 1.393 . S
C864 H853 0.950 . S
C864 C862 1.391 . S
C864 C865 1.400 . S
C865 C859 1.491 1_456 S
C865 C864 1.400 . S
C865 C866 1.398 . S
C866 H854 0.941 1_455 S
C866 C865 1.398 . S
C866 C867 1.391 . S
C867 H855 0.950 . S
C867 C863 1.393 . S
C867 C866 1.391 . S
H868 C876 0.950 . S
H869 C881 0.950 . S
H870 C878 0.950 . S
H871 C880 0.950 1_554 S
H872 C882 0.950 . S
H873 C884 0.950 . S
H874 C886 0.950 1_556 S
H875 C887 0.950 . S
C876 H868 0.950 . S
C876 C877 1.386 . S
C876 C878 1.391 . S
C877 C876 1.386 . S
C877 C881 1.393 . S
C878 H870 0.950 . S
C878 C876 1.391 . S
C878 C879 1.400 . S
C879 C878 1.400 . S
C879 C880 1.398 . S
C879 C885 1.491 1_556 S
C880 H871 0.950 1_556 S
C880 C879 1.398 . S
C880 C881 1.391 . S
C881 H869 0.950 . S
C881 C877 1.393 . S
C881 C880 1.391 . S
C882 H872 0.950 . S
C882 C883 1.386 . S
C882 C884 1.391 . S
C883 C882 1.386 . S
C883 C887 1.393 . S
C884 H873 0.950 . S
C884 C882 1.391 . S
C884 C885 1.400 . S
C885 C879 1.491 1_554 S
C885 C884 1.400 . S
C885 C886 1.398 . S
C886 H874 0.950 1_554 S
C886 C885 1.398 . S
C886 C887 1.391 . S
C887 H875 0.950 . S
C887 C883 1.393 . S
C887 C886 1.391 . S
H888 C896 0.950 . S
H889 C901 0.950 . S
H890 C898 0.950 . S
H891 C900 0.950 1_545 S
H892 C902 0.950 . S
H893 C904 0.950 . S
H894 C906 0.950 1_565 S
H895 C907 0.950 . S
C896 H888 0.950 . S
C896 C897 1.386 . S
C896 C898 1.391 . S
C897 C896 1.386 . S
C897 C901 1.393 . S
C898 H890 0.950 . S
C898 C896 1.391 . S
C898 C899 1.400 . S
C899 C898 1.400 . S
C899 C900 1.398 . S
C899 C905 1.491 1_566 S
C900 H891 0.950 1_565 S
C900 C899 1.398 . S
C900 C901 1.391 . S
C901 H889 0.950 . S
C901 C897 1.393 . S
C901 C900 1.391 . S
C902 H892 0.950 . S
C902 C903 1.386 . S
C902 C904 1.391 . S
C903 C902 1.386 . S
C903 C907 1.393 . S
C904 H893 0.950 . S
C904 C902 1.391 . S
C904 C905 1.400 . S
C905 C899 1.491 1_544 S
C905 C904 1.400 . S
C905 C906 1.398 . S
C906 H894 0.950 1_545 S
C906 C905 1.398 . S
C906 C907 1.391 . S
C907 H895 0.950 . S
C907 C903 1.393 . S
C907 C906 1.391 . S
H908 C916 0.950 . S
H909 C921 0.950 . S
H910 C918 0.950 1_655 S
H911 C920 0.950 1_554 S
H912 C922 0.950 . S
H913 C924 0.950 1_455 S
H914 C926 0.950 1_556 S
H915 C927 0.950 . S
C916 H908 0.950 . S
C916 C917 1.386 . S
C916 C918 1.391 . S
C917 C916 1.386 . S
C917 C921 1.393 . S
C918 H910 0.950 1_455 S
C918 C916 1.391 . S
C918 C919 1.400 . S
C919 C918 1.400 . S
C919 C920 1.398 . S
C919 C925 1.491 1_456 S
C920 H911 0.950 1_556 S
C920 C919 1.398 . S
C920 C921 1.391 . S
C921 H909 0.950 . S
C921 C917 1.393 . S
C921 C920 1.391 . S
C922 H912 0.950 . S
C922 C923 1.386 . S
C922 C924 1.391 . S
C923 C922 1.386 . S
C923 C927 1.393 . S
C924 H913 0.950 1_655 S
C924 C922 1.391 . S
C924 C925 1.400 . S
C925 C919 1.491 1_654 S
C925 C924 1.400 . S
C925 C926 1.398 . S
C926 H914 0.950 1_554 S
C926 C925 1.398 . S
C926 C927 1.391 . S
C927 H915 0.950 . S
C927 C923 1.393 . S
C927 C926 1.391 . S
H928 C936 0.950 . S
H929 C941 0.950 . S
H930 C938 0.950 . S
H931 C940 0.950 . S
H932 C942 0.950 . S
H933 C944 0.950 . S
H934 C946 0.950 . S
H935 C947 0.950 . S
C936 H928 0.950 . S
C936 C937 1.386 . S
C936 C938 1.391 . S
C937 C936 1.386 . S
C937 C941 1.393 . S
C938 H930 0.950 . S
C938 C936 1.391 . S
C938 C939 1.400 . S
C939 C938 1.400 . S
C939 C940 1.398 . S
C939 C945 1.491 1_554 S
C940 H931 0.950 . S
C940 C939 1.398 . S
C940 C941 1.391 . S
C941 H929 0.950 . S
C941 C937 1.393 . S
C941 C940 1.391 . S
C942 H932 0.950 . S
C942 C943 1.386 . S
C942 C944 1.391 . S
C943 C942 1.386 . S
C943 C947 1.393 . S
C944 H933 0.950 . S
C944 C942 1.391 . S
C944 C945 1.400 . S
C945 C939 1.491 1_556 S
C945 C944 1.400 . S
C945 C946 1.398 . S
C946 H934 0.950 . S
C946 C945 1.398 . S
C946 C947 1.391 . S
C947 H935 0.950 . S
C947 C943 1.393 . S
C947 C946 1.391 . S
H948 C956 0.950 . S
H949 C961 0.950 . S
H950 C958 0.950 . S
H951 C960 0.950 . S
H952 C962 0.950 . S
H953 C964 0.950 . S
H954 C966 0.950 . S
H955 C967 0.950 . S
C956 H948 0.950 . S
C956 C957 1.386 . S
C956 C958 1.391 . S
C957 C956 1.386 . S
C957 C961 1.393 . S
C958 H950 0.950 . S
C958 C956 1.391 . S
C958 C959 1.400 . S
C959 C958 1.400 . S
C959 C960 1.398 . S
C959 C965 1.491 . S
C960 H951 0.950 . S
C960 C959 1.398 . S
C960 C961 1.391 . S
C961 H949 0.950 . S
C961 C957 1.393 . S
C961 C960 1.391 . S
C962 H952 0.950 . S
C962 C963 1.386 . S
C962 C964 1.391 . S
C963 C962 1.386 . S
C963 C967 1.393 . S
C964 H953 0.950 . S
C964 C962 1.391 . S
C964 C965 1.400 . S
C965 C959 1.491 . S
C965 C964 1.400 . S
C965 C966 1.398 . S
C966 H954 0.950 . S
C966 C965 1.398 . S
C966 C967 1.391 . S
C967 H955 0.950 . S
C967 C963 1.393 . S
C967 C966 1.391 . S
H968 C976 0.950 . S
H969 C981 0.950 . S
H970 C978 0.950 . S
H971 C980 0.950 . S
H972 C982 0.950 . S
H973 C984 0.950 . S
H974 C986 0.950 . S
H975 C987 0.950 . S
C976 H968 0.950 . S
C976 C977 1.386 . S
C976 C978 1.391 . S
C977 C976 1.386 . S
C977 C981 1.393 . S
C978 H970 0.950 . S
C978 C976 1.391 . S
C978 C979 1.400 . S
C979 C978 1.400 . S
C979 C980 1.398 . S
C979 C985 1.491 . S
C980 H971 0.950 . S
C980 C979 1.398 . S
C980 C981 1.391 . S
C981 H969 0.950 . S
C981 C977 1.393 . S
C981 C980 1.391 . S
C982 H972 0.950 . S
C982 C983 1.386 . S
C982 C984 1.391 . S
C983 C982 1.386 . S
C983 C987 1.393 . S
C984 H973 0.950 . S
C984 C982 1.391 . S
C984 C985 1.400 . S
C985 C979 1.491 . S
C985 C984 1.400 . S
C985 C986 1.398 . S
C986 H974 0.950 . S
C986 C985 1.398 . S
C986 C987 1.391 . S
C987 H975 0.950 . S
C987 C983 1.393 . S
C987 C986 1.391 . S
H988 C996 0.950 . S
H989 C1001 0.950 . S
H990 C998 0.950 . S
H991 C1000 0.950 . S
H992 C1002 0.950 . S
H993 C1004 0.950 . S
H994 C1006 0.950 . S
H995 C1007 0.950 . S
C996 H988 0.950 . S
C996 C997 1.386 . S
C996 C998 1.391 . S
C997 C996 1.386 . S
C997 C1001 1.393 . S
C998 H990 0.950 . S
C998 C996 1.391 . S
C998 C999 1.400 . S
C999 C998 1.400 . S
C999 C1000 1.398 . S
C999 C1005 1.491 . S
C1000 H991 0.950 . S
C1000 C999 1.398 . S
C1000 C1001 1.391 . S
C1001 H989 0.950 . S
C1001 C997 1.393 . S
C1001 C1000 1.391 . S
C1002 H992 0.950 . S
C1002 C1003 1.386 . S
C1002 C1004 1.391 . S
C1003 C1002 1.386 . S
C1003 C1007 1.393 . S
C1004 H993 0.950 . S
C1004 C1002 1.391 . S
C1004 C1005 1.400 . S
C1005 C999 1.491 . S
C1005 C1004 1.400 . S
C1005 C1006 1.398 . S
C1006 H994 0.950 . S
C1006 C1005 1.398 . S
C1006 C1007 1.391 . S
C1007 H995 0.950 . S
C1007 C1003 1.393 . S
C1007 C1006 1.391 . S
H1008 C1016 0.950 . S
H1009 C1021 0.950 . S
H1010 C1018 0.950 . S
H1011 C1020 0.950 . S
H1012 C1022 0.950 . S
H1013 C1024 0.950 . S
H1014 C1026 0.950 . S
H1015 C1027 0.950 . S
C1016 H1008 0.950 . S
C1016 C1017 1.386 . S
C1016 C1018 1.391 . S
C1017 C1016 1.386 . S
C1017 C1021 1.393 . S
C1018 H1010 0.950 . S
C1018 C1016 1.391 . S
C1018 C1019 1.400 . S
C1019 C1018 1.400 . S
C1019 C1020 1.398 . S
C1019 C1025 1.491 . S
C1020 H1011 0.950 . S
C1020 C1019 1.398 . S
C1020 C1021 1.391 . S
C1021 H1009 0.950 . S
C1021 C1017 1.393 . S
C1021 C1020 1.391 . S
C1022 H1012 0.950 . S
C1022 C1023 1.386 . S
C1022 C1024 1.391 . S
C1023 C1022 1.386 . S
C1023 C1027 1.393 . S
C1024 H1013 0.950 . S
C1024 C1022 1.391 . S
C1024 C1025 1.400 . S
C1025 C1019 1.491 . S
C1025 C1024 1.400 . S
C1025 C1026 1.398 . S
C1026 H1014 0.950 . S
C1026 C1025 1.398 . S
C1026 C1027 1.391 . S
C1027 H1015 0.950 . S
C1027 C1023 1.393 . S
C1027 C1026 1.391 . S
H1028 C1036 0.950 . S
H1029 C1041 0.950 . S
H1030 C1038 0.950 . S
H1031 C1040 0.950 . S
H1032 C1042 0.950 . S
H1033 C1044 0.950 . S
H1034 C1046 0.950 . S
H1035 C1047 0.950 . S
C1036 H1028 0.950 . S
C1036 C1037 1.386 . S
C1036 C1038 1.391 . S
C1037 C1036 1.386 . S
C1037 C1041 1.393 . S
C1038 H1030 0.950 . S
C1038 C1036 1.391 . S
C1038 C1039 1.400 . S
C1039 C1038 1.400 . S
C1039 C1040 1.398 . S
C1039 C1045 1.491 . S
C1040 H1031 0.950 . S
C1040 C1039 1.398 . S
C1040 C1041 1.391 . S
C1041 H1029 0.950 . S
C1041 C1037 1.393 . S
C1041 C1040 1.391 . S
C1042 H1032 0.950 . S
C1042 C1043 1.386 . S
C1042 C1044 1.391 . S
C1043 C1042 1.386 . S
C1043 C1047 1.393 . S
C1044 H1033 0.950 . S
C1044 C1042 1.391 . S
C1044 C1045 1.400 . S
C1045 C1039 1.491 . S
C1045 C1044 1.400 . S
C1045 C1046 1.398 . S
C1046 H1034 0.950 . S
C1046 C1045 1.398 . S
C1046 C1047 1.391 . S
C1047 H1035 0.950 . S
C1047 C1043 1.393 . S
C1047 C1046 1.391 . S
H1048 C1056 0.950 . S
H1049 C1061 0.950 . S
H1050 C1058 0.950 . S
H1051 C1060 0.950 . S
H1052 C1062 0.950 . S
H1053 C1064 0.950 . S
H1054 C1066 0.950 . S
H1055 C1067 0.950 . S
C1056 H1048 0.950 . S
C1056 C1057 1.386 . S
C1056 C1058 1.391 . S
C1057 C1056 1.386 . S
C1057 C1061 1.393 . S
C1058 H1050 0.950 . S
C1058 C1056 1.391 . S
C1058 C1059 1.400 . S
C1059 C1058 1.400 . S
C1059 C1060 1.398 . S
C1059 C1065 1.491 . S
C1060 H1051 0.950 . S
C1060 C1059 1.398 . S
C1060 C1061 1.391 . S
C1061 H1049 0.950 . S
C1061 C1057 1.393 . S
C1061 C1060 1.391 . S
C1062 H1052 0.950 . S
C1062 C1063 1.386 . S
C1062 C1064 1.391 . S
C1063 C1062 1.386 . S
C1063 C1067 1.393 . S
C1064 H1053 0.950 . S
C1064 C1062 1.391 . S
C1064 C1065 1.400 . S
C1065 C1059 1.491 . S
C1065 C1064 1.400 . S
C1065 C1066 1.398 . S
C1066 H1054 0.950 . S
C1066 C1065 1.398 . S
C1066 C1067 1.391 . S
C1067 H1055 0.950 . S
C1067 C1063 1.393 . S
C1067 C1066 1.391 . S
H1068 C1076 0.950 . S
H1069 C1081 0.950 . S
H1070 C1078 0.950 . S
H1071 C1080 0.950 . S
H1072 C1082 0.950 . S
H1073 C1084 0.950 . S
H1074 C1086 0.950 . S
H1075 C1087 0.950 . S
C1076 H1068 0.950 . S
C1076 C1077 1.386 . S
C1076 C1078 1.391 . S
C1077 C1076 1.386 . S
C1077 C1081 1.393 . S
C1078 H1070 0.950 . S
C1078 C1076 1.391 . S
C1078 C1079 1.400 . S
C1079 C1078 1.400 . S
C1079 C1080 1.398 . S
C1079 C1085 1.491 . S
C1080 H1071 0.950 . S
C1080 C1079 1.398 . S
C1080 C1081 1.391 . S
C1081 H1069 0.950 . S
C1081 C1077 1.393 . S
C1081 C1080 1.391 . S
C1082 H1072 0.950 . S
C1082 C1083 1.386 . S
C1082 C1084 1.391 . S
C1083 C1082 1.386 . S
C1083 C1087 1.393 . S
C1084 H1073 0.950 . S
C1084 C1082 1.391 . S
C1084 C1085 1.400 . S
C1085 C1079 1.491 . S
C1085 C1084 1.400 . S
C1085 C1086 1.398 . S
C1086 H1074 0.950 . S
C1086 C1085 1.398 . S
C1086 C1087 1.391 . S
C1087 H1075 0.950 . S
C1087 C1083 1.393 . S
C1087 C1086 1.391 . S
H1088 C1096 0.950 . S
H1089 C1101 0.950 . S
H1090 C1098 0.950 . S
H1091 C1100 0.950 . S
H1092 C1102 0.950 . S
H1093 C1104 0.950 . S
H1094 C1106 0.950 . S
H1095 C1107 0.950 . S
C1096 H1088 0.950 . S
C1096 C1097 1.386 . S
C1096 C1098 1.391 . S
C1097 C1096 1.386 . S
C1097 C1101 1.393 . S
C1098 H1090 0.950 . S
C1098 C1096 1.391 . S
C1098 C1099 1.400 . S
C1099 C1098 1.400 . S
C1099 C1100 1.398 . S
C1099 C1105 1.491 . S
C1100 H1091 0.950 . S
C1100 C1099 1.398 . S
C1100 C1101 1.391 . S
C1101 H1089 0.950 . S
C1101 C1097 1.393 . S
C1101 C1100 1.391 . S
C1102 H1092 0.950 . S
C1102 C1103 1.386 . S
C1102 C1104 1.391 . S
C1103 C1102 1.386 . S
C1103 C1107 1.393 . S
C1104 H1093 0.950 . S
C1104 C1102 1.391 . S
C1104 C1105 1.400 . S
C1105 C1099 1.491 . S
C1105 C1104 1.400 . S
C1105 C1106 1.398 . S
C1106 H1094 0.950 . S
C1106 C1105 1.398 . S
C1106 C1107 1.391 . S
C1107 H1095 0.950 . S
C1107 C1103 1.393 . S
C1107 C1106 1.391 . S
H1108 C1116 0.950 . S
H1109 C1121 0.950 . S
H1110 C1118 0.950 . S
H1111 C1120 0.950 . S
H1112 C1122 0.950 . S
H1113 C1124 0.950 . S
H1114 C1126 0.950 . S
H1115 C1127 0.950 . S
C1116 H1108 0.950 . S
C1116 C1117 1.386 . S
C1116 C1118 1.391 . S
C1117 C1116 1.386 . S
C1117 C1121 1.393 . S
C1118 H1110 0.950 . S
C1118 C1116 1.391 . S
C1118 C1119 1.400 . S
C1119 C1118 1.400 . S
C1119 C1120 1.398 . S
C1119 C1125 1.491 . S
C1120 H1111 0.950 . S
C1120 C1119 1.398 . S
C1120 C1121 1.391 . S
C1121 H1109 0.950 . S
C1121 C1117 1.393 . S
C1121 C1120 1.391 . S
C1122 H1112 0.950 . S
C1122 C1123 1.386 . S
C1122 C1124 1.391 . S
C1123 C1122 1.386 . S
C1123 C1127 1.393 . S
C1124 H1113 0.950 . S
C1124 C1122 1.391 . S
C1124 C1125 1.400 . S
C1125 C1119 1.491 . S
C1125 C1124 1.400 . S
C1125 C1126 1.398 . S
C1126 H1114 0.950 . S
C1126 C1125 1.398 . S
C1126 C1127 1.391 . S
C1127 H1115 0.950 . S
C1127 C1123 1.393 . S
C1127 C1126 1.391 . S
H1128 C1136 0.950 . S
H1129 C1141 0.950 . S
H1130 C1138 0.950 . S
H1131 C1140 0.950 . S
H1132 C1142 0.950 . S
H1133 C1144 0.950 . S
H1134 C1146 0.950 . S
H1135 C1147 0.950 . S
C1136 H1128 0.950 . S
C1136 C1137 1.386 . S
C1136 C1138 1.391 . S
C1137 C1136 1.386 . S
C1137 C1141 1.393 . S
C1138 H1130 0.950 . S
C1138 C1136 1.391 . S
C1138 C1139 1.400 . S
C1139 C1138 1.400 . S
C1139 C1140 1.398 . S
C1139 C1145 1.491 . S
C1140 H1131 0.950 . S
C1140 C1139 1.398 . S
C1140 C1141 1.391 . S
C1141 H1129 0.950 . S
C1141 C1137 1.393 . S
C1141 C1140 1.391 . S
C1142 H1132 0.950 . S
C1142 C1143 1.386 . S
C1142 C1144 1.391 . S
C1143 C1142 1.386 . S
C1143 C1147 1.393 . S
C1144 H1133 0.950 . S
C1144 C1142 1.391 . S
C1144 C1145 1.400 . S
C1145 C1139 1.491 . S
C1145 C1144 1.400 . S
C1145 C1146 1.398 . S
C1146 H1134 0.950 . S
C1146 C1145 1.398 . S
C1146 C1147 1.391 . S
C1147 H1135 0.950 . S
C1147 C1143 1.393 . S
C1147 C1146 1.391 . S
H1148 C1156 0.950 . S
H1149 C1161 0.950 . S
H1150 C1158 0.950 . S
H1151 C1160 0.950 . S
H1152 C1162 0.950 . S
H1153 C1164 0.950 . S
H1154 C1166 0.950 . S
H1155 C1167 0.950 . S
C1156 H1148 0.950 . S
C1156 C1157 1.386 . S
C1156 C1158 1.391 . S
C1157 C1156 1.386 . S
C1157 C1161 1.393 . S
C1158 H1150 0.950 . S
C1158 C1156 1.391 . S
C1158 C1159 1.400 . S
C1159 C1158 1.400 . S
C1159 C1160 1.398 . S
C1159 C1165 1.491 . S
C1160 H1151 0.950 . S
C1160 C1159 1.398 . S
C1160 C1161 1.391 . S
C1161 H1149 0.950 . S
C1161 C1157 1.393 . S
C1161 C1160 1.391 . S
C1162 H1152 0.950 . S
C1162 C1163 1.386 . S
C1162 C1164 1.391 . S
C1163 C1162 1.386 . S
C1163 C1167 1.393 . S
C1164 H1153 0.950 . S
C1164 C1162 1.391 . S
C1164 C1165 1.400 . S
C1165 C1159 1.491 . S
C1165 C1164 1.400 . S
C1165 C1166 1.398 . S
C1166 H1154 0.950 . S
C1166 C1165 1.398 . S
C1166 C1167 1.391 . S
C1167 H1155 0.950 . S
C1167 C1163 1.393 . S
C1167 C1166 1.391 . S
H1168 C1176 0.950 . S
H1169 C1181 0.950 . S
H1170 C1178 0.950 . S
H1171 C1180 0.950 . S
H1172 C1182 0.950 . S
H1173 C1184 0.950 . S
H1174 C1186 0.950 . S
H1175 C1187 0.950 . S
C1176 H1168 0.950 . S
C1176 C1177 1.386 . S
C1176 C1178 1.391 . S
C1177 C1176 1.386 . S
C1177 C1181 1.393 . S
C1178 H1170 0.950 . S
C1178 C1176 1.391 . S
C1178 C1179 1.400 . S
C1179 C1178 1.400 . S
C1179 C1180 1.398 . S
C1179 C1185 1.491 . S
C1180 H1171 0.950 . S
C1180 C1179 1.398 . S
C1180 C1181 1.391 . S
C1181 H1169 0.950 . S
C1181 C1177 1.393 . S
C1181 C1180 1.391 . S
C1182 H1172 0.950 . S
C1182 C1183 1.386 . S
C1182 C1184 1.391 . S
C1183 C1182 1.386 . S
C1183 C1187 1.393 . S
C1184 H1173 0.950 . S
C1184 C1182 1.391 . S
C1184 C1185 1.400 . S
C1185 C1179 1.491 . S
C1185 C1184 1.400 . S
C1185 C1186 1.398 . S
C1186 H1174 0.950 . S
C1186 C1185 1.398 . S
C1186 C1187 1.391 . S
C1187 H1175 0.950 . S
C1187 C1183 1.393 . S
C1187 C1186 1.391 . S
H1188 C1196 0.950 . S
H1189 C1201 0.950 . S
H1190 C1198 0.950 . S
H1191 C1200 0.950 . S
H1192 C1202 0.950 . S
H1193 C1204 0.950 . S
H1194 C1206 0.950 . S
H1195 C1207 0.950 . S
C1196 H1188 0.950 . S
C1196 C1197 1.386 . S
C1196 C1198 1.391 . S
C1197 C1196 1.386 . S
C1197 C1201 1.393 . S
C1198 H1190 0.950 . S
C1198 C1196 1.391 . S
C1198 C1199 1.400 . S
C1199 C1198 1.400 . S
C1199 C1200 1.398 . S
C1199 C1205 1.491 . S
C1200 H1191 0.950 . S
C1200 C1199 1.398 . S
C1200 C1201 1.391 . S
C1201 H1189 0.950 . S
C1201 C1197 1.393 . S
C1201 C1200 1.391 . S
C1202 H1192 0.950 . S
C1202 C1203 1.386 . S
C1202 C1204 1.391 . S
C1203 C1202 1.386 . S
C1203 C1207 1.393 . S
C1204 H1193 0.950 . S
C1204 C1202 1.391 . S
C1204 C1205 1.400 . S
C1205 C1199 1.491 . S
C1205 C1204 1.400 . S
C1205 C1206 1.398 . S
C1206 H1194 0.950 . S
C1206 C1205 1.398 . S
C1206 C1207 1.391 . S
C1207 H1195 0.950 . S
C1207 C1203 1.393 . S
C1207 C1206 1.391 . S
H1208 C1216 0.950 . S
H1209 C1221 0.950 . S
H1210 C1218 0.950 . S
H1211 C1220 0.950 . S
H1212 C1222 0.950 . S
H1213 C1224 0.950 . S
H1214 C1226 0.950 . S
H1215 C1227 0.950 . S
C1216 H1208 0.950 . S
C1216 C1217 1.386 . S
C1216 C1218 1.391 . S
C1217 C1216 1.386 . S
C1217 C1221 1.393 . S
C1218 H1210 0.950 . S
C1218 C1216 1.391 . S
C1218 C1219 1.400 . S
C1219 C1218 1.400 . S
C1219 C1220 1.398 . S
C1219 C1225 1.491 . S
C1220 H1211 0.950 . S
C1220 C1219 1.398 . S
C1220 C1221 1.391 . S
C1221 H1209 0.950 . S
C1221 C1217 1.393 . S
C1221 C1220 1.391 . S
C1222 H1212 0.950 . S
C1222 C1223 1.386 . S
C1222 C1224 1.391 . S
C1223 C1222 1.386 . S
C1223 C1227 1.393 . S
C1224 H1213 0.950 . S
C1224 C1222 1.391 . S
C1224 C1225 1.400 . S
C1225 C1219 1.491 . S
C1225 C1224 1.400 . S
C1225 C1226 1.398 . S
C1226 H1214 0.950 . S
C1226 C1225 1.398 . S
C1226 C1227 1.391 . S
C1227 H1215 0.950 . S
C1227 C1223 1.393 . S
C1227 C1226 1.391 . S
H1228 C1236 0.950 . S
H1229 C1241 0.950 . S
H1230 C1238 0.950 . S
H1231 C1240 0.950 . S
H1232 C1242 0.950 . S
H1233 C1244 0.950 . S
H1234 C1246 0.950 . S
H1235 C1247 0.950 . S
C1236 H1228 0.950 . S
C1236 C1237 1.386 . S
C1236 C1238 1.391 . S
C1237 C1236 1.386 . S
C1237 C1241 1.393 . S
C1238 H1230 0.950 . S
C1238 C1236 1.391 . S
C1238 C1239 1.400 . S
C1239 C1238 1.400 . S
C1239 C1240 1.398 . S
C1239 C1245 1.491 . S
C1240 H1231 0.950 . S
C1240 C1239 1.398 . S
C1240 C1241 1.391 . S
C1241 H1229 0.950 . S
C1241 C1237 1.393 . S
C1241 C1240 1.391 . S
C1242 H1232 0.950 . S
C1242 C1243 1.386 . S
C1242 C1244 1.391 . S
C1243 C1242 1.386 . S
C1243 C1247 1.393 . S
C1244 H1233 0.950 . S
C1244 C1242 1.391 . S
C1244 C1245 1.400 . S
C1245 C1239 1.491 . S
C1245 C1244 1.400 . S
C1245 C1246 1.398 . S
C1246 H1234 0.950 . S
C1246 C1245 1.398 . S
C1246 C1247 1.391 . S
C1247 H1235 0.950 . S
C1247 C1243 1.393 . S
C1247 C1246 1.391 . S
H1248 C1256 0.950 . S
H1249 C1261 0.950 . S
H1250 C1258 0.950 . S
H1251 C1260 0.950 . S
H1252 C1262 0.950 . S
H1253 C1264 0.950 . S
H1254 C1266 0.950 . S
H1255 C1267 0.950 . S
C1256 H1248 0.950 . S
C1256 C1257 1.386 . S
C1256 C1258 1.391 . S
C1257 C1256 1.386 . S
C1257 C1261 1.393 . S
C1258 H1250 0.950 . S
C1258 C1256 1.391 . S
C1258 C1259 1.400 . S
C1259 C1258 1.400 . S
C1259 C1260 1.398 . S
C1259 C1265 1.491 . S
C1260 H1251 0.950 . S
C1260 C1259 1.398 . S
C1260 C1261 1.391 . S
C1261 H1249 0.950 . S
C1261 C1257 1.393 . S
C1261 C1260 1.391 . S
C1262 H1252 0.950 . S
C1262 C1263 1.386 . S
C1262 C1264 1.391 . S
C1263 C1262 1.386 . S
C1263 C1267 1.393 . S
C1264 H1253 0.950 . S
C1264 C1262 1.391 . S
C1264 C1265 1.400 . S
C1265 C1259 1.491 . S
C1265 C1264 1.400 . S
C1265 C1266 1.398 . S
C1266 H1254 0.950 . S
C1266 C1265 1.398 . S
C1266 C1267 1.391 . S
C1267 H1255 0.950 . S
C1267 C1263 1.393 . S
C1267 C1266 1.391 . S
H1268 C1276 0.950 . S
H1269 C1281 0.950 . S
H1270 C1278 0.950 . S
H1271 C1280 0.950 . S
H1272 C1282 0.950 . S
H1273 C1284 0.950 . S
H1274 C1286 0.950 . S
H1275 C1287 0.950 . S
C1276 H1268 0.950 . S
C1276 C1277 1.386 . S
C1276 C1278 1.391 . S
C1277 C1276 1.386 . S
C1277 C1281 1.393 . S
C1278 H1270 0.950 . S
C1278 C1276 1.391 . S
C1278 C1279 1.400 . S
C1279 C1278 1.400 . S
C1279 C1280 1.398 . S
C1279 C1285 1.491 . S
C1280 H1271 0.950 . S
C1280 C1279 1.398 . S
C1280 C1281 1.391 . S
C1281 H1269 0.950 . S
C1281 C1277 1.393 . S
C1281 C1280 1.391 . S
C1282 H1272 0.950 . S
C1282 C1283 1.386 . S
C1282 C1284 1.391 . S
C1283 C1282 1.386 . S
C1283 C1287 1.393 . S
C1284 H1273 0.950 . S
C1284 C1282 1.391 . S
C1284 C1285 1.400 . S
C1285 C1279 1.491 . S
C1285 C1284 1.400 . S
C1285 C1286 1.398 . S
C1286 H1274 0.950 . S
C1286 C1285 1.398 . S
C1286 C1287 1.391 . S
C1287 H1275 0.950 . S
C1287 C1283 1.393 . S
C1287 C1286 1.391 . S
H1288 C1296 0.950 . S
H1289 C1301 0.950 . S
H1290 C1298 0.950 . S
H1291 C1300 0.950 . S
H1292 C1302 0.950 . S
H1293 C1304 0.950 . S
H1294 C1306 0.950 . S
H1295 C1307 0.950 . S
C1296 H1288 0.950 . S
C1296 C1297 1.386 . S
C1296 C1298 1.391 . S
C1297 C1296 1.386 . S
C1297 C1301 1.393 . S
C1298 H1290 0.950 . S
C1298 C1296 1.391 . S
C1298 C1299 1.400 . S
C1299 C1298 1.400 . S
C1299 C1300 1.398 . S
C1299 C1305 1.491 . S
C1300 H1291 0.950 . S
C1300 C1299 1.398 . S
C1300 C1301 1.391 . S
C1301 H1289 0.950 . S
C1301 C1297 1.393 . S
C1301 C1300 1.391 . S
C1302 H1292 0.950 . S
C1302 C1303 1.386 . S
C1302 C1304 1.391 . S
C1303 C1302 1.386 . S
C1303 C1307 1.393 . S
C1304 H1293 0.950 . S
C1304 C1302 1.391 . S
C1304 C1305 1.400 . S
C1305 C1299 1.491 . S
C1305 C1304 1.400 . S
C1305 C1306 1.398 . S
C1306 H1294 0.950 . S
C1306 C1305 1.398 . S
C1306 C1307 1.391 . S
C1307 H1295 0.950 . S
C1307 C1303 1.393 . S
C1307 C1306 1.391 . S
H1308 C1316 0.950 . S
H1309 C1321 0.950 . S
H1310 C1318 0.950 . S
H1311 C1320 0.950 . S
H1312 C1322 0.950 . S
H1313 C1324 0.950 . S
H1314 C1326 0.950 . S
H1315 C1327 0.950 . S
C1316 H1308 0.950 . S
C1316 C1317 1.386 . S
C1316 C1318 1.391 . S
C1317 C1316 1.386 . S
C1317 C1321 1.393 . S
C1318 H1310 0.950 . S
C1318 C1316 1.391 . S
C1318 C1319 1.400 . S
C1319 C1318 1.400 . S
C1319 C1320 1.398 . S
C1319 C1325 1.491 . S
C1320 H1311 0.950 . S
C1320 C1319 1.398 . S
C1320 C1321 1.391 . S
C1321 H1309 0.950 . S
C1321 C1317 1.393 . S
C1321 C1320 1.391 . S
C1322 H1312 0.950 . S
C1322 C1323 1.386 . S
C1322 C1324 1.391 . S
C1323 C1322 1.386 . S
C1323 C1327 1.393 . S
C1324 H1313 0.950 . S
C1324 C1322 1.391 . S
C1324 C1325 1.400 . S
C1325 C1319 1.491 . S
C1325 C1324 1.400 . S
C1325 C1326 1.398 . S
C1326 H1314 0.950 . S
C1326 C1325 1.398 . S
C1326 C1327 1.391 . S
C1327 H1315 0.950 . S
C1327 C1323 1.393 . S
C1327 C1326 1.391 . S
H1328 C1336 0.950 . S
H1329 C1341 0.950 . S
H1330 C1338 0.950 . S
H1331 C1340 0.950 . S
H1332 C1342 0.950 . S
H1333 C1344 0.950 . S
H1334 C1346 0.950 . S
H1335 C1347 0.950 . S
C1336 H1328 0.950 . S
C1336 C1337 1.386 . S
C1336 C1338 1.391 . S
C1337 C1336 1.386 . S
C1337 C1341 1.393 . S
C1338 H1330 0.950 . S
C1338 C1336 1.391 . S
C1338 C1339 1.400 . S
C1339 C1338 1.400 . S
C1339 C1340 1.398 . S
C1339 C1345 1.491 . S
C1340 H1331 0.950 . S
C1340 C1339 1.398 . S
C1340 C1341 1.391 . S
C1341 H1329 0.950 . S
C1341 C1337 1.393 . S
C1341 C1340 1.391 . S
C1342 H1332 0.950 . S
C1342 C1343 1.386 . S
C1342 C1344 1.391 . S
C1343 C1342 1.386 . S
C1343 C1347 1.393 . S
C1344 H1333 0.950 . S
C1344 C1342 1.391 . S
C1344 C1345 1.400 . S
C1345 C1339 1.491 . S
C1345 C1344 1.400 . S
C1345 C1346 1.398 . S
C1346 H1334 0.950 . S
C1346 C1345 1.398 . S
C1346 C1347 1.391 . S
C1347 H1335 0.950 . S
C1347 C1343 1.393 . S
C1347 C1346 1.391 . S
H1348 C1356 0.950 . S
H1349 C1361 0.950 . S
H1350 C1358 0.950 . S
H1351 C1360 0.950 . S
H1352 C1362 0.950 . S
H1353 C1364 0.950 . S
H1354 C1366 0.950 . S
H1355 C1367 0.950 . S
C1356 H1348 0.950 . S
C1356 C1357 1.386 . S
C1356 C1358 1.391 . S
C1357 C1356 1.386 . S
C1357 C1361 1.393 . S
C1358 H1350 0.950 . S
C1358 C1356 1.391 . S
C1358 C1359 1.400 . S
C1359 C1358 1.400 . S
C1359 C1360 1.398 . S
C1359 C1365 1.491 . S
C1360 H1351 0.950 . S
C1360 C1359 1.398 . S
C1360 C1361 1.391 . S
C1361 H1349 0.950 . S
C1361 C1357 1.393 . S
C1361 C1360 1.391 . S
C1362 H1352 0.950 . S
C1362 C1363 1.386 . S
C1362 C1364 1.391 . S
C1363 C1362 1.386 . S
C1363 C1367 1.393 . S
C1364 H1353 0.950 . S
C1364 C1362 1.391 . S
C1364 C1365 1.400 . S
C1365 C1359 1.491 . S
C1365 C1364 1.400 . S
C1365 C1366 1.398 . S
C1366 H1354 0.950 . S
C1366 C1365 1.398 . S
C1366 C1367 1.391 . S
C1367 H1355 0.950 . S
C1367 C1363 1.393 . S
C1367 C1366 1.391 . S
H1368 C1376 0.950 . S
H1369 C1381 0.950 . S
H1370 C1378 0.950 . S
H1371 C1380 0.950 . S
H1372 C1382 0.950 . S
H1373 C1384 0.950 . S
H1374 C1386 0.950 . S
H1375 C1387 0.950 . S
C1376 H1368 0.950 . S
C1376 C1377 1.386 . S
C1376 C1378 1.391 . S
C1377 C1376 1.386 . S
C1377 C1381 1.393 . S
C1378 H1370 0.950 . S
C1378 C1376 1.391 . S
C1378 C1379 1.400 . S
C1379 C1378 1.400 . S
C1379 C1380 1.398 . S
C1379 C1385 1.491 . S
C1380 H1371 0.950 . S
C1380 C1379 1.398 . S
C1380 C1381 1.391 . S
C1381 H1369 0.950 . S
C1381 C1377 1.393 . S
C1381 C1380 1.391 . S
C1382 H1372 0.950 . S
C1382 C1383 1.386 . S
C1382 C1384 1.391 . S
C1383 C1382 1.386 . S
C1383 C1387 1.393 . S
C1384 H1373 0.950 . S
C1384 C1382 1.391 . S
C1384 C1385 1.400 . S
C1385 C1379 1.491 . S
C1385 C1384 1.400 . S
C1385 C1386 1.398 . S
C1386 H1374 0.950 . S
C1386 C1385 1.398 . S
C1386 C1387 1.391 . S
C1387 H1375 0.950 . S
C1387 C1383 1.393 . S
C1387 C1386 1.391 . S
H1388 C1396 0.950 . S
H1389 C1401 0.950 . S
H1390 C1398 0.950 . S
H1391 C1400 0.950 . S
H1392 C1402 0.950 . S
H1393 C1404 0.950 . S
H1394 C1406 0.950 . S
H1395 C1407 0.950 . S
C1396 H1388 0.950 . S
C1396 C1397 1.386 . S
C1396 C1398 1.391 . S
C1397 C1396 1.386 . S
C1397 C1401 1.393 . S
C1398 H1390 0.950 . S
C1398 C1396 1.391 . S
C1398 C1399 1.400 . S
C1399 C1398 1.400 . S
C1399 C1400 1.398 . S
C1399 C1405 1.491 . S
C1400 H1391 0.950 . S
C1400 C1399 1.398 . S
C1400 C1401 1.391 . S
C1401 H1389 0.950 . S
C1401 C1397 1.393 . S
C1401 C1400 1.391 . S
C1402 H1392 0.950 . S
C1402 C1403 1.386 . S
C1402 C1404 1.391 . S
C1403 C1402 1.386 . S
C1403 C1407 1.393 . S
C1404 H1393 0.950 . S
C1404 C1402 1.391 . S
C1404 C1405 1.400 . S
C1405 C1399 1.491 . S
C1405 C1404 1.400 . S
C1405 C1406 1.398 . S
C1406 H1394 0.950 . S
C1406 C1405 1.398 . S
C1406 C1407 1.391 . S
C1407 H1395 0.950 . S
C1407 C1403 1.393 . S
C1407 C1406 1.391 . S
H1408 C1416 0.950 . S
H1409 C1421 0.950 . S
H1410 C1418 0.950 . S
H1411 C1420 0.950 . S
H1412 C1422 0.950 . S
H1413 C1424 0.950 . S
H1414 C1426 0.950 . S
H1415 C1427 0.950 . S
C1416 H1408 0.950 . S
C1416 C1417 1.386 . S
C1416 C1418 1.391 . S
C1417 C1416 1.386 . S
C1417 C1421 1.393 . S
C1418 H1410 0.950 . S
C1418 C1416 1.391 . S
C1418 C1419 1.400 . S
C1419 C1418 1.400 . S
C1419 C1420 1.398 . S
C1419 C1425 1.491 . S
C1420 H1411 0.950 . S
C1420 C1419 1.398 . S
C1420 C1421 1.391 . S
C1421 H1409 0.950 . S
C1421 C1417 1.393 . S
C1421 C1420 1.391 . S
C1422 H1412 0.950 . S
C1422 C1423 1.386 . S
C1422 C1424 1.391 . S
C1423 C1422 1.386 . S
C1423 C1427 1.393 . S
C1424 H1413 0.950 . S
C1424 C1422 1.391 . S
C1424 C1425 1.400 . S
C1425 C1419 1.491 . S
C1425 C1424 1.400 . S
C1425 C1426 1.398 . S
C1426 H1414 0.950 . S
C1426 C1425 1.398 . S
C1426 C1427 1.391 . S
C1427 H1415 0.950 . S
C1427 C1423 1.393 . S
C1427 C1426 1.391 . S
H1428 C1436 0.950 . S
H1429 C1441 0.950 . S
H1430 C1438 0.950 . S
H1431 C1440 0.950 . S
H1432 C1442 0.950 . S
H1433 C1444 0.950 . S
H1434 C1446 0.950 . S
H1435 C1447 0.950 . S
C1436 H1428 0.950 . S
C1436 C1437 1.386 . S
C1436 C1438 1.391 . S
C1437 C1436 1.386 . S
C1437 C1441 1.393 . S
C1438 H1430 0.950 . S
C1438 C1436 1.391 . S
C1438 C1439 1.400 . S
C1439 C1438 1.400 . S
C1439 C1440 1.398 . S
C1439 C1445 1.491 1_455 S
C1440 H1431 0.950 . S
C1440 C1439 1.398 . S
C1440 C1441 1.391 . S
C1441 H1429 0.950 . S
C1441 C1437 1.393 . S
C1441 C1440 1.391 . S
C1442 H1432 0.950 . S
C1442 C1443 1.386 . S
C1442 C1444 1.391 . S
C1443 C1442 1.386 . S
C1443 C1447 1.393 . S
C1444 H1433 0.950 . S
C1444 C1442 1.391 . S
C1444 C1445 1.400 . S
C1445 C1439 1.491 1_655 S
C1445 C1444 1.400 . S
C1445 C1446 1.398 . S
C1446 H1434 0.950 . S
C1446 C1445 1.398 . S
C1446 C1447 1.391 . S
C1447 H1435 0.950 . S
C1447 C1443 1.393 . S
C1447 C1446 1.391 . S
H1448 C1456 0.950 . S
H1449 C1461 0.950 . S
H1450 C1458 0.950 . S
H1451 C1460 0.950 . S
H1452 C1462 0.950 . S
H1453 C1464 0.950 . S
H1454 C1466 0.950 . S
H1455 C1467 0.950 . S
C1456 H1448 0.950 . S
C1456 C1457 1.386 . S
C1456 C1458 1.391 . S
C1457 C1456 1.386 . S
C1457 C1461 1.393 . S
C1458 H1450 0.950 . S
C1458 C1456 1.391 . S
C1458 C1459 1.400 . S
C1459 C1458 1.400 . S
C1459 C1460 1.398 . S
C1459 C1465 1.491 . S
C1460 H1451 0.950 . S
C1460 C1459 1.398 . S
C1460 C1461 1.391 . S
C1461 H1449 0.950 . S
C1461 C1457 1.393 . S
C1461 C1460 1.391 . S
C1462 H1452 0.950 . S
C1462 C1463 1.386 . S
C1462 C1464 1.391 . S
C1463 C1462 1.386 . S
C1463 C1467 1.393 . S
C1464 H1453 0.950 . S
C1464 C1462 1.391 . S
C1464 C1465 1.400 . S
C1465 C1459 1.491 . S
C1465 C1464 1.400 . S
C1465 C1466 1.398 . S
C1466 H1454 0.950 . S
C1466 C1465 1.398 . S
C1466 C1467 1.391 . S
C1467 H1455 0.950 . S
C1467 C1463 1.393 . S
C1467 C1466 1.391 . S
H1468 C1476 0.950 . S
H1469 C1481 0.950 . S
H1470 C1478 0.950 . S
H1471 C1480 0.950 . S
H1472 C1482 0.950 . S
H1473 C1484 0.950 . S
H1474 C1486 0.950 . S
H1475 C1487 0.950 . S
C1476 H1468 0.950 . S
C1476 C1477 1.386 . S
C1476 C1478 1.391 . S
C1477 C1476 1.386 . S
C1477 C1481 1.393 . S
C1478 H1470 0.950 . S
C1478 C1476 1.391 . S
C1478 C1479 1.400 . S
C1479 C1478 1.400 . S
C1479 C1480 1.398 . S
C1479 C1485 1.491 1_545 S
C1480 H1471 0.950 . S
C1480 C1479 1.398 . S
C1480 C1481 1.391 . S
C1481 H1469 0.950 . S
C1481 C1477 1.393 . S
C1481 C1480 1.391 . S
C1482 H1472 0.950 . S
C1482 C1483 1.386 . S
C1482 C1484 1.391 . S
C1483 C1482 1.386 . S
C1483 C1487 1.393 . S
C1484 H1473 0.950 . S
C1484 C1482 1.391 . S
C1484 C1485 1.400 . S
C1485 C1479 1.491 1_565 S
C1485 C1484 1.400 . S
C1485 C1486 1.398 . S
C1486 H1474 0.950 . S
C1486 C1485 1.398 . S
C1486 C1487 1.391 . S
C1487 H1475 0.950 . S
C1487 C1483 1.393 . S
C1487 C1486 1.391 . S
H1488 C1496 0.950 . S
H1489 C1501 0.950 . S
H1490 C1498 0.950 . S
H1491 C1500 0.950 . S
H1492 C1502 0.950 . S
H1493 C1504 0.950 . S
H1494 C1506 0.950 . S
H1495 C1507 0.950 . S
C1496 H1488 0.950 . S
C1496 C1497 1.386 . S
C1496 C1498 1.391 . S
C1497 C1496 1.386 . S
C1497 C1501 1.393 . S
C1498 H1490 0.950 . S
C1498 C1496 1.391 . S
C1498 C1499 1.400 . S
C1499 C1498 1.400 . S
C1499 C1500 1.398 . S
C1499 C1505 1.491 1_545 S
C1500 H1491 0.950 . S
C1500 C1499 1.398 . S
C1500 C1501 1.391 . S
C1501 H1489 0.950 . S
C1501 C1497 1.393 . S
C1501 C1500 1.391 . S
C1502 H1492 0.950 . S
C1502 C1503 1.386 . S
C1502 C1504 1.391 . S
C1503 C1502 1.386 . S
C1503 C1507 1.393 . S
C1504 H1493 0.950 . S
C1504 C1502 1.391 . S
C1504 C1505 1.400 . S
C1505 C1499 1.491 1_565 S
C1505 C1504 1.400 . S
C1505 C1506 1.398 . S
C1506 H1494 0.950 . S
C1506 C1505 1.398 . S
C1506 C1507 1.391 . S
C1507 H1495 0.950 . S
C1507 C1503 1.393 . S
C1507 C1506 1.391 . S
H1508 C1516 0.950 . S
H1509 C1521 0.950 . S
H1510 C1518 0.950 . S
H1511 C1520 0.950 . S
H1512 C1522 0.950 . S
H1513 C1524 0.950 . S
H1514 C1526 0.950 . S
H1515 C1527 0.950 . S
C1516 H1508 0.950 . S
C1516 C1517 1.386 . S
C1516 C1518 1.391 . S
C1517 C1516 1.386 . S
C1517 C1521 1.393 . S
C1518 H1510 0.950 . S
C1518 C1516 1.391 . S
C1518 C1519 1.400 . S
C1519 C1518 1.400 . S
C1519 C1520 1.398 . S
C1519 C1525 1.491 1_655 S
C1520 H1511 0.950 . S
C1520 C1519 1.398 . S
C1520 C1521 1.391 . S
C1521 H1509 0.950 . S
C1521 C1517 1.393 . S
C1521 C1520 1.391 . S
C1522 H1512 0.950 . S
C1522 C1523 1.386 . S
C1522 C1524 1.391 . S
C1523 C1522 1.386 . S
C1523 C1527 1.393 . S
C1524 H1513 0.950 . S
C1524 C1522 1.391 . S
C1524 C1525 1.400 . S
C1525 C1519 1.491 1_455 S
C1525 C1524 1.400 . S
C1525 C1526 1.398 . S
C1526 H1514 0.950 . S
C1526 C1525 1.398 . S
C1526 C1527 1.391 . S
C1527 H1515 0.950 . S
C1527 C1523 1.393 . S
C1527 C1526 1.391 . S
H1528 C1536 0.950 . S
H1529 C1541 0.950 . S
H1530 C1538 0.950 . S
H1531 C1540 0.950 . S
H1532 C1542 0.950 . S
H1533 C1544 0.950 . S
H1534 C1546 0.950 . S
H1535 C1547 0.950 . S
C1536 H1528 0.950 . S
C1536 C1537 1.386 . S
C1536 C1538 1.391 . S
C1537 C1536 1.386 . S
C1537 C1541 1.393 . S
C1538 H1530 0.950 . S
C1538 C1536 1.391 . S
C1538 C1539 1.400 . S
C1539 C1538 1.400 . S
C1539 C1540 1.398 . S
C1539 C1545 1.491 . S
C1540 H1531 0.950 . S
C1540 C1539 1.398 . S
C1540 C1541 1.391 . S
C1541 H1529 0.950 . S
C1541 C1537 1.393 . S
C1541 C1540 1.391 . S
C1542 H1532 0.950 . S
C1542 C1543 1.386 . S
C1542 C1544 1.391 . S
C1543 C1542 1.386 . S
C1543 C1547 1.393 . S
C1544 H1533 0.950 . S
C1544 C1542 1.391 . S
C1544 C1545 1.400 . S
C1545 C1539 1.491 . S
C1545 C1544 1.400 . S
C1545 C1546 1.398 . S
C1546 H1534 0.950 . S
C1546 C1545 1.398 . S
C1546 C1547 1.391 . S
C1547 H1535 0.950 . S
C1547 C1543 1.393 . S
C1547 C1546 1.391 . S
H1548 C1556 0.950 . S
H1549 C1561 0.950 . S
H1550 C1558 0.950 . S
H1551 C1560 0.950 . S
H1552 C1562 0.950 . S
H1553 C1564 0.950 . S
H1554 C1566 0.950 . S
H1555 C1567 0.950 . S
C1556 H1548 0.950 . S
C1556 C1557 1.386 . S
C1556 C1558 1.391 . S
C1557 C1556 1.386 . S
C1557 C1561 1.393 . S
C1558 H1550 0.950 . S
C1558 C1556 1.391 . S
C1558 C1559 1.400 . S
C1559 C1558 1.400 . S
C1559 C1560 1.398 . S
C1559 C1565 1.491 . S
C1560 H1551 0.950 . S
C1560 C1559 1.398 . S
C1560 C1561 1.391 . S
C1561 H1549 0.950 . S
C1561 C1557 1.393 . S
C1561 C1560 1.391 . S
C1562 H1552 0.950 . S
C1562 C1563 1.386 . S
C1562 C1564 1.391 . S
C1563 C1562 1.386 . S
C1563 C1567 1.393 . S
C1564 H1553 0.950 . S
C1564 C1562 1.391 . S
C1564 C1565 1.400 . S
C1565 C1559 1.491 . S
C1565 C1564 1.400 . S
C1565 C1566 1.398 . S
C1566 H1554 0.950 . S
C1566 C1565 1.398 . S
C1566 C1567 1.391 . S
C1567 H1555 0.950 . S
C1567 C1563 1.393 . S
C1567 C1566 1.391 . S
H1568 C1576 0.950 . S
H1569 C1581 0.950 . S
H1570 C1578 0.950 . S
H1571 C1580 0.950 . S
H1572 C1582 0.950 . S
H1573 C1584 0.950 . S
H1574 C1586 0.950 . S
H1575 C1587 0.950 . S
C1576 H1568 0.950 . S
C1576 C1577 1.386 . S
C1576 C1578 1.391 . S
C1577 C1576 1.386 . S
C1577 C1581 1.393 . S
C1578 H1570 0.950 . S
C1578 C1576 1.391 . S
C1578 C1579 1.400 . S
C1579 C1578 1.400 . S
C1579 C1580 1.398 . S
C1579 C1585 1.491 . S
C1580 H1571 0.950 . S
C1580 C1579 1.398 . S
C1580 C1581 1.391 . S
C1581 H1569 0.950 . S
C1581 C1577 1.393 . S
C1581 C1580 1.391 . S
C1582 H1572 0.950 . S
C1582 C1583 1.386 . S
C1582 C1584 1.391 . S
C1583 C1582 1.386 . S
C1583 C1587 1.393 . S
C1584 H1573 0.950 . S
C1584 C1582 1.391 . S
C1584 C1585 1.400 . S
C1585 C1579 1.491 . S
C1585 C1584 1.400 . S
C1585 C1586 1.398 . S
C1586 H1574 0.950 . S
C1586 C1585 1.398 . S
C1586 C1587 1.391 . S
C1587 H1575 0.950 . S
C1587 C1583 1.393 . S
C1587 C1586 1.391 . S
H1588 C1596 0.950 . S
H1589 C1601 0.950 . S
H1590 C1598 0.950 . S
H1591 C1600 0.950 . S
H1592 C1602 0.950 . S
H1593 C1604 0.950 . S
H1594 C1606 0.950 . S
H1595 C1607 0.950 . S
C1596 H1588 0.950 . S
C1596 C1597 1.386 . S
C1596 C1598 1.391 . S
C1597 C1596 1.386 . S
C1597 C1601 1.393 . S
C1598 H1590 0.950 . S
C1598 C1596 1.391 . S
C1598 C1599 1.400 . S
C1599 C1598 1.400 . S
C1599 C1600 1.398 . S
C1599 C1605 1.491 . S
C1600 H1591 0.950 . S
C1600 C1599 1.398 . S
C1600 C1601 1.391 . S
C1601 H1589 0.950 . S
C1601 C1597 1.393 . S
C1601 C1600 1.391 . S
C1602 H1592 0.950 . S
C1602 C1603 1.386 . S
C1602 C1604 1.391 . S
C1603 C1602 1.386 . S
C1603 C1607 1.393 . S
C1604 H1593 0.950 . S
C1604 C1602 1.391 . S
C1604 C1605 1.400 . S
C1605 C1599 1.491 . S
C1605 C1604 1.400 . S
C1605 C1606 1.398 . S
C1606 H1594 0.950 . S
C1606 C1605 1.398 . S
C1606 C1607 1.391 . S
C1607 H1595 0.950 . S
C1607 C1603 1.393 . S
C1607 C1606 1.391 . S
H1608 C1616 0.950 . S
H1609 C1621 0.950 . S
H1610 C1618 0.950 . S
H1611 C1620 0.950 . S
H1612 C1622 0.950 . S
H1613 C1624 0.950 . S
H1614 C1626 0.950 . S
H1615 C1627 0.950 . S
C1616 H1608 0.950 . S
C1616 C1617 1.386 . S
C1616 C1618 1.391 . S
C1617 C1616 1.386 . S
C1617 C1621 1.393 . S
C1618 H1610 0.950 . S
C1618 C1616 1.391 . S
C1618 C1619 1.400 . S
C1619 C1618 1.400 . S
C1619 C1620 1.398 . S
C1619 C1625 1.491 . S
C1620 H1611 0.950 . S
C1620 C1619 1.398 . S
C1620 C1621 1.391 . S
C1621 H1609 0.950 . S
C1621 C1617 1.393 . S
C1621 C1620 1.391 . S
C1622 H1612 0.950 . S
C1622 C1623 1.386 . S
C1622 C1624 1.391 . S
C1623 C1622 1.386 . S
C1623 C1627 1.393 . S
C1624 H1613 0.950 . S
C1624 C1622 1.391 . S
C1624 C1625 1.400 . S
C1625 C1619 1.491 . S
C1625 C1624 1.400 . S
C1625 C1626 1.398 . S
C1626 H1614 0.950 . S
C1626 C1625 1.398 . S
C1626 C1627 1.391 . S
C1627 H1615 0.950 . S
C1627 C1623 1.393 . S
C1627 C1626 1.391 . S
H1628 C1636 0.950 . S
H1629 C1641 0.950 . S
H1630 C1638 0.950 . S
H1631 C1640 0.950 . S
H1632 C1642 0.950 . S
H1633 C1644 0.950 . S
H1634 C1646 0.950 . S
H1635 C1647 0.950 . S
C1636 H1628 0.950 . S
C1636 C1637 1.386 . S
C1636 C1638 1.391 . S
C1637 C1636 1.386 . S
C1637 C1641 1.393 . S
C1638 H1630 0.950 . S
C1638 C1636 1.391 . S
C1638 C1639 1.400 . S
C1639 C1638 1.400 . S
C1639 C1640 1.398 . S
C1639 C1645 1.491 . S
C1640 H1631 0.950 . S
C1640 C1639 1.398 . S
C1640 C1641 1.391 . S
C1641 H1629 0.950 . S
C1641 C1637 1.393 . S
C1641 C1640 1.391 . S
C1642 H1632 0.950 . S
C1642 C1643 1.386 . S
C1642 C1644 1.391 . S
C1643 C1642 1.386 . S
C1643 C1647 1.393 . S
C1644 H1633 0.950 . S
C1644 C1642 1.391 . S
C1644 C1645 1.400 . S
C1645 C1639 1.491 . S
C1645 C1644 1.400 . S
C1645 C1646 1.398 . S
C1646 H1634 0.950 . S
C1646 C1645 1.398 . S
C1646 C1647 1.391 . S
C1647 H1635 0.950 . S
C1647 C1643 1.393 . S
C1647 C1646 1.391 . S
H1648 C1656 0.950 . S
H1649 C1661 0.950 . S
H1650 C1658 0.950 . S
H1651 C1660 0.950 . S
H1652 C1662 0.950 . S
H1653 C1664 0.950 . S
H1654 C1666 0.950 . S
H1655 C1667 0.950 . S
C1656 H1648 0.950 . S
C1656 C1657 1.386 . S
C1656 C1658 1.391 . S
C1657 C1656 1.386 . S
C1657 C1661 1.393 . S
C1658 H1650 0.950 . S
C1658 C1656 1.391 . S
C1658 C1659 1.400 . S
C1659 C1658 1.400 . S
C1659 C1660 1.398 . S
C1659 C1665 1.491 . S
C1660 H1651 0.950 . S
C1660 C1659 1.398 . S
C1660 C1661 1.391 . S
C1661 H1649 0.950 . S
C1661 C1657 1.393 . S
C1661 C1660 1.391 . S
C1662 H1652 0.950 . S
C1662 C1663 1.386 . S
C1662 C1664 1.391 . S
C1663 C1662 1.386 . S
C1663 C1667 1.393 . S
C1664 H1653 0.950 . S
C1664 C1662 1.391 . S
C1664 C1665 1.400 . S
C1665 C1659 1.491 . S
C1665 C1664 1.400 . S
C1665 C1666 1.398 . S
C1666 H1654 0.950 . S
C1666 C1665 1.398 . S
C1666 C1667 1.391 . S
C1667 H1655 0.950 . S
C1667 C1663 1.393 . S
C1667 C1666 1.391 . S
H1668 C1676 0.950 . S
H1669 C1681 0.950 . S
H1670 C1678 0.950 . S
H1671 C1680 0.950 . S
H1672 C1682 0.950 . S
H1673 C1684 0.950 . S
H1674 C1686 0.950 . S
H1675 C1687 0.950 . S
C1676 H1668 0.950 . S
C1676 C1677 1.386 . S
C1676 C1678 1.391 . S
C1677 C1676 1.386 . S
C1677 C1681 1.393 . S
C1678 H1670 0.950 . S
C1678 C1676 1.391 . S
C1678 C1679 1.400 . S
C1679 C1678 1.400 . S
C1679 C1680 1.398 . S
C1679 C1685 1.491 . S
C1680 H1671 0.950 . S
C1680 C1679 1.398 . S
C1680 C1681 1.391 . S
C1681 H1669 0.950 . S
C1681 C1677 1.393 . S
C1681 C1680 1.391 . S
C1682 H1672 0.950 . S
C1682 C1683 1.386 . S
C1682 C1684 1.391 . S
C1683 C1682 1.386 . S
C1683 C1687 1.393 . S
C1684 H1673 0.950 . S
C1684 C1682 1.391 . S
C1684 C1685 1.400 . S
C1685 C1679 1.491 . S
C1685 C1684 1.400 . S
C1685 C1686 1.398 . S
C1686 H1674 0.950 . S
C1686 C1685 1.398 . S
C1686 C1687 1.391 . S
C1687 H1675 0.950 . S
C1687 C1683 1.393 . S
C1687 C1686 1.391 . S
H1688 C1696 0.950 . S
H1689 C1701 0.950 . S
H1690 C1698 0.950 . S
H1691 C1700 0.950 . S
H1692 C1702 0.950 . S
H1693 C1704 0.950 . S
H1694 C1706 0.950 . S
H1695 C1707 0.950 . S
C1696 H1688 0.950 . S
C1696 C1697 1.386 . S
C1696 C1698 1.391 . S
C1697 C1696 1.386 . S
C1697 C1701 1.393 . S
C1698 H1690 0.950 . S
C1698 C1696 1.391 . S
C1698 C1699 1.400 . S
C1699 C1698 1.400 . S
C1699 C1700 1.398 . S
C1699 C1705 1.491 . S
C1700 H1691 0.950 . S
C1700 C1699 1.398 . S
C1700 C1701 1.391 . S
C1701 H1689 0.950 . S
C1701 C1697 1.393 . S
C1701 C1700 1.391 . S
C1702 H1692 0.950 . S
C1702 C1703 1.386 . S
C1702 C1704 1.391 . S
C1703 C1702 1.386 . S
C1703 C1707 1.393 . S
C1704 H1693 0.950 . S
C1704 C1702 1.391 . S
C1704 C1705 1.400 . S
C1705 C1699 1.491 . S
C1705 C1704 1.400 . S
C1705 C1706 1.398 . S
C1706 H1694 0.950 . S
C1706 C1705 1.398 . S
C1706 C1707 1.391 . S
C1707 H1695 0.950 . S
C1707 C1703 1.393 . S
C1707 C1706 1.391 . S
H1708 C1716 0.950 . S
H1709 C1721 0.950 . S
H1710 C1718 0.950 . S
H1711 C1720 0.950 . S
H1712 C1722 0.950 . S
H1713 C1724 0.950 . S
H1714 C1726 0.950 . S
H1715 C1727 0.950 . S
C1716 H1708 0.950 . S
C1716 C1717 1.386 . S
C1716 C1718 1.391 . S
C1717 C1716 1.386 . S
C1717 C1721 1.393 . S
C1718 H1710 0.950 . S
C1718 C1716 1.391 . S
C1718 C1719 1.400 . S
C1719 C1718 1.400 . S
C1719 C1720 1.398 . S
C1719 C1725 1.491 . S
C1720 H1711 0.950 . S
C1720 C1719 1.398 . S
C1720 C1721 1.391 . S
C1721 H1709 0.950 . S
C1721 C1717 1.393 . S
C1721 C1720 1.391 . S
C1722 H1712 0.950 . S
C1722 C1723 1.386 . S
C1722 C1724 1.391 . S
C1723 C1722 1.386 . S
C1723 C1727 1.393 . S
C1724 H1713 0.950 . S
C1724 C1722 1.391 . S
C1724 C1725 1.400 . S
C1725 C1719 1.491 . S
C1725 C1724 1.400 . S
C1725 C1726 1.398 . S
C1726 H1714 0.950 . S
C1726 C1725 1.398 . S
C1726 C1727 1.391 . S
C1727 H1715 0.950 . S
C1727 C1723 1.393 . S
C1727 C1726 1.391 . S
H1728 C1736 0.950 . S
H1729 C1741 0.950 . S
H1730 C1738 0.950 . S
H1731 C1740 0.950 . S
H1732 C1742 0.950 . S
H1733 C1744 0.950 . S
H1734 C1746 0.950 . S
H1735 C1747 0.950 . S
C1736 H1728 0.950 . S
C1736 C1737 1.386 . S
C1736 C1738 1.391 . S
C1737 C1736 1.386 . S
C1737 C1741 1.393 . S
C1738 H1730 0.950 . S
C1738 C1736 1.391 . S
C1738 C1739 1.400 . S
C1739 C1738 1.400 . S
C1739 C1740 1.398 . S
C1739 C1745 1.491 . S
C1740 H1731 0.950 . S
C1740 C1739 1.398 . S
C1740 C1741 1.391 . S
C1741 H1729 0.950 . S
C1741 C1737 1.393 . S
C1741 C1740 1.391 . S
C1742 H1732 0.950 . S
C1742 C1743 1.386 . S
C1742 C1744 1.391 . S
C1743 C1742 1.386 . S
C1743 C1747 1.393 . S
C1744 H1733 0.950 . S
C1744 C1742 1.391 . S
C1744 C1745 1.400 . S
C1745 C1739 1.491 . S
C1745 C1744 1.400 . S
C1745 C1746 1.398 . S
C1746 H1734 0.950 . S
C1746 C1745 1.398 . S
C1746 C1747 1.391 . S
C1747 H1735 0.950 . S
C1747 C1743 1.393 . S
C1747 C1746 1.391 . S
H1748 C1756 0.950 . S
H1749 C1761 0.950 . S
H1750 C1758 0.950 . S
H1751 C1760 0.950 . S
H1752 C1762 0.950 . S
H1753 C1764 0.950 . S
H1754 C1766 0.950 . S
H1755 C1767 0.950 . S
C1756 H1748 0.950 . S
C1756 C1757 1.386 . S
C1756 C1758 1.391 . S
C1757 C1756 1.386 . S
C1757 C1761 1.393 . S
C1758 H1750 0.950 . S
C1758 C1756 1.391 . S
C1758 C1759 1.400 . S
C1759 C1758 1.400 . S
C1759 C1760 1.398 . S
C1759 C1765 1.491 . S
C1760 H1751 0.950 . S
C1760 C1759 1.398 . S
C1760 C1761 1.391 . S
C1761 H1749 0.950 . S
C1761 C1757 1.393 . S
C1761 C1760 1.391 . S
C1762 H1752 0.950 . S
C1762 C1763 1.386 . S
C1762 C1764 1.391 . S
C1763 C1762 1.386 . S
C1763 C1767 1.393 . S
C1764 H1753 0.950 . S
C1764 C1762 1.391 . S
C1764 C1765 1.400 . S
C1765 C1759 1.491 . S
C1765 C1764 1.400 . S
C1765 C1766 1.398 . S
C1766 H1754 0.950 . S
C1766 C1765 1.398 . S
C1766 C1767 1.391 . S
C1767 H1755 0.950 . S
C1767 C1763 1.393 . S
C1767 C1766 1.391 . S
H1768 C1776 0.950 . S
H1769 C1781 0.950 . S
H1770 C1778 0.950 . S
H1771 C1780 0.950 . S
H1772 C1782 0.950 . S
H1773 C1784 0.950 . S
H1774 C1786 0.950 . S
H1775 C1787 0.950 . S
C1776 H1768 0.950 . S
C1776 C1777 1.386 . S
C1776 C1778 1.391 . S
C1777 C1776 1.386 . S
C1777 C1781 1.393 . S
C1778 H1770 0.950 . S
C1778 C1776 1.391 . S
C1778 C1779 1.400 . S
C1779 C1778 1.400 . S
C1779 C1780 1.398 . S
C1779 C1785 1.491 . S
C1780 H1771 0.950 . S
C1780 C1779 1.398 . S
C1780 C1781 1.391 . S
C1781 H1769 0.950 . S
C1781 C1777 1.393 . S
C1781 C1780 1.391 . S
C1782 H1772 0.950 . S
C1782 C1783 1.386 . S
C1782 C1784 1.391 . S
C1783 C1782 1.386 . S
C1783 C1787 1.393 . S
C1784 H1773 0.950 . S
C1784 C1782 1.391 . S
C1784 C1785 1.400 . S
C1785 C1779 1.491 . S
C1785 C1784 1.400 . S
C1785 C1786 1.398 . S
C1786 H1774 0.950 . S
C1786 C1785 1.398 . S
C1786 C1787 1.391 . S
C1787 H1775 0.950 . S
C1787 C1783 1.393 . S
C1787 C1786 1.391 . S
H1788 C1796 0.950 . S
H1789 C1801 0.950 . S
H1790 C1798 0.950 . S
H1791 C1800 0.950 . S
H1792 C1802 0.950 . S
H1793 C1804 0.950 . S
H1794 C1806 0.950 . S
H1795 C1807 0.950 . S
C1796 H1788 0.950 . S
C1796 C1797 1.386 . S
C1796 C1798 1.391 . S
C1797 C1796 1.386 . S
C1797 C1801 1.393 . S
C1798 H1790 0.950 . S
C1798 C1796 1.391 . S
C1798 C1799 1.400 . S
C1799 C1798 1.400 . S
C1799 C1800 1.398 . S
C1799 C1805 1.491 . S
C1800 H1791 0.950 . S
C1800 C1799 1.398 . S
C1800 C1801 1.391 . S
C1801 H1789 0.950 . S
C1801 C1797 1.393 . S
C1801 C1800 1.391 . S
C1802 H1792 0.950 . S
C1802 C1803 1.386 . S
C1802 C1804 1.391 . S
C1803 C1802 1.386 . S
C1803 C1807 1.393 . S
C1804 H1793 0.950 . S
C1804 C1802 1.391 . S
C1804 C1805 1.400 . S
C1805 C1799 1.491 . S
C1805 C1804 1.400 . S
C1805 C1806 1.398 . S
C1806 H1794 0.950 . S
C1806 C1805 1.398 . S
C1806 C1807 1.391 . S
C1807 H1795 0.950 . S
C1807 C1803 1.393 . S
C1807 C1806 1.391 . S
H1808 C1816 0.950 . S
H1809 C1821 0.950 . S
H1810 C1818 0.950 . S
H1811 C1820 0.950 . S
H1812 C1822 0.950 . S
H1813 C1824 0.950 . S
H1814 C1826 0.950 . S
H1815 C1827 0.950 . S
C1816 H1808 0.950 . S
C1816 C1817 1.386 . S
C1816 C1818 1.391 . S
C1817 C1816 1.386 . S
C1817 C1821 1.393 . S
C1818 H1810 0.950 . S
C1818 C1816 1.391 . S
C1818 C1819 1.400 . S
C1819 C1818 1.400 . S
C1819 C1820 1.398 . S
C1819 C1825 1.491 . S
C1820 H1811 0.950 . S
C1820 C1819 1.398 . S
C1820 C1821 1.391 . S
C1821 H1809 0.950 . S
C1821 C1817 1.393 . S
C1821 C1820 1.391 . S
C1822 H1812 0.950 . S
C1822 C1823 1.386 . S
C1822 C1824 1.391 . S
C1823 C1822 1.386 . S
C1823 C1827 1.393 . S
C1824 H1813 0.950 . S
C1824 C1822 1.391 . S
C1824 C1825 1.400 . S
C1825 C1819 1.491 . S
C1825 C1824 1.400 . S
C1825 C1826 1.398 . S
C1826 H1814 0.950 . S
C1826 C1825 1.398 . S
C1826 C1827 1.391 . S
C1827 H1815 0.950 . S
C1827 C1823 1.393 . S
C1827 C1826 1.391 . S
H1828 C1836 0.950 . S
H1829 C1841 0.950 . S
H1830 C1838 0.950 . S
H1831 C1840 0.950 . S
H1832 C1842 0.950 . S
H1833 C1844 0.950 . S
H1834 C1846 0.950 . S
H1835 C1847 0.950 . S
C1836 H1828 0.950 . S
C1836 C1837 1.386 . S
C1836 C1838 1.391 . S
C1837 C1836 1.386 . S
C1837 C1841 1.393 . S
C1838 H1830 0.950 . S
C1838 C1836 1.391 . S
C1838 C1839 1.400 . S
C1839 C1838 1.400 . S
C1839 C1840 1.398 . S
C1839 C1845 1.491 . S
C1840 H1831 0.950 . S
C1840 C1839 1.398 . S
C1840 C1841 1.391 . S
C1841 H1829 0.950 . S
C1841 C1837 1.393 . S
C1841 C1840 1.391 . S
C1842 H1832 0.950 . S
C1842 C1843 1.386 . S
C1842 C1844 1.391 . S
C1843 C1842 1.386 . S
C1843 C1847 1.393 . S
C1844 H1833 0.950 . S
C1844 C1842 1.391 . S
C1844 C1845 1.400 . S
C1845 C1839 1.491 . S
C1845 C1844 1.400 . S
C1845 C1846 1.398 . S
C1846 H1834 0.950 . S
C1846 C1845 1.398 . S
C1846 C1847 1.391 . S
C1847 H1835 0.950 . S
C1847 C1843 1.393 . S
C1847 C1846 1.391 . S
H1848 C1856 0.950 . S
H1849 C1861 0.950 . S
H1850 C1858 0.950 . S
H1851 C1860 0.950 . S
H1852 C1862 0.950 . S
H1853 C1864 0.950 . S
H1854 C1866 0.950 . S
H1855 C1867 0.950 . S
C1856 H1848 0.950 . S
C1856 C1857 1.386 . S
C1856 C1858 1.391 . S
C1857 C1856 1.386 . S
C1857 C1861 1.393 . S
C1858 H1850 0.950 . S
C1858 C1856 1.391 . S
C1858 C1859 1.400 . S
C1859 C1858 1.400 . S
C1859 C1860 1.398 . S
C1859 C1865 1.491 . S
C1860 H1851 0.950 . S
C1860 C1859 1.398 . S
C1860 C1861 1.391 . S
C1861 H1849 0.950 . S
C1861 C1857 1.393 . S
C1861 C1860 1.391 . S
C1862 H1852 0.950 . S
C1862 C1863 1.386 . S
C1862 C1864 1.391 . S
C1863 C1862 1.386 . S
C1863 C1867 1.393 . S
C1864 H1853 0.950 . S
C1864 C1862 1.391 . S
C1864 C1865 1.400 . S
C1865 C1859 1.491 . S
C1865 C1864 1.400 . S
C1865 C1866 1.398 . S
C1866 H1854 0.950 . S
C1866 C1865 1.398 . S
C1866 C1867 1.391 . S
C1867 H1855 0.950 . S
C1867 C1863 1.393 . S
C1867 C1866 1.391 . S
H1868 C1876 0.950 . S
H1869 C1881 0.950 . S
H1870 C1878 0.950 . S
H1871 C1880 0.950 . S
H1872 C1882 0.950 . S
H1873 C1884 0.950 . S
H1874 C1886 0.950 . S
H1875 C1887 0.950 . S
C1876 H1868 0.950 . S
C1876 C1877 1.386 . S
C1876 C1878 1.391 . S
C1877 C1876 1.386 . S
C1877 C1881 1.393 . S
C1878 H1870 0.950 . S
C1878 C1876 1.391 . S
C1878 C1879 1.400 . S
C1879 C1878 1.400 . S
C1879 C1880 1.398 . S
C1879 C1885 1.491 . S
C1880 H1871 0.950 . S
C1880 C1879 1.398 . S
C1880 C1881 1.391 . S
C1881 H1869 0.950 . S
C1881 C1877 1.393 . S
C1881 C1880 1.391 . S
C1882 H1872 0.950 . S
C1882 C1883 1.386 . S
C1882 C1884 1.391 . S
C1883 C1882 1.386 . S
C1883 C1887 1.393 . S
C1884 H1873 0.950 . S
C1884 C1882 1.391 . S
C1884 C1885 1.400 . S
C1885 C1879 1.491 . S
C1885 C1884 1.400 . S
C1885 C1886 1.398 . S
C1886 H1874 0.950 . S
C1886 C1885 1.398 . S
C1886 C1887 1.391 . S
C1887 H1875 0.950 . S
C1887 C1883 1.393 . S
C1887 C1886 1.391 . S
H1888 C1896 0.950 . S
H1889 C1901 0.950 . S
H1890 C1898 0.950 . S
H1891 C1900 0.950 . S
H1892 C1902 0.950 . S
H1893 C1904 0.950 . S
H1894 C1906 0.950 . S
H1895 C1907 0.950 . S
C1896 H1888 0.950 . S
C1896 C1897 1.386 . S
C1896 C1898 1.391 . S
C1897 C1896 1.386 . S
C1897 C1901 1.393 . S
C1898 H1890 0.950 . S
C1898 C1896 1.391 . S
C1898 C1899 1.400 . S
C1899 C1898 1.400 . S
C1899 C1900 1.398 . S
C1899 C1905 1.491 . S
C1900 H1891 0.950 . S
C1900 C1899 1.398 . S
C1900 C1901 1.391 . S
C1901 H1889 0.950 . S
C1901 C1897 1.393 . S
C1901 C1900 1.391 . S
C1902 H1892 0.950 . S
C1902 C1903 1.386 . S
C1902 C1904 1.391 . S
C1903 C1902 1.386 . S
C1903 C1907 1.393 . S
C1904 H1893 0.950 . S
C1904 C1902 1.391 . S
C1904 C1905 1.400 . S
C1905 C1899 1.491 . S
C1905 C1904 1.400 . S
C1905 C1906 1.398 . S
C1906 H1894 0.950 . S
C1906 C1905 1.398 . S
C1906 C1907 1.391 . S
C1907 H1895 0.950 . S
C1907 C1903 1.393 . S
C1907 C1906 1.391 . S
C477 C65 1.540 . S
C483 C0 1.541 . S
C497 C39 1.533 . S
C503 C13 1.541 . S
C517 C26 1.538 . S
C523 C52 1.529 . S
C537 C78 1.527 . S
C543 C143 1.531 . S
C557 C91 1.527 . S
C563 C117 1.535 . S
C577 C130 1.529 . S
C583 C104 1.527 . S
C597 C156 1.538 . S
C603 C221 1.552 . S
C617 C169 1.542 . S
C623 C195 1.545 . S
C637 C182 1.535 . S
C643 C208 1.550 . S
C657 C299 1.540 . S
C663 C234 1.538 . S
C677 C247 1.537 . S
C683 C273 1.534 . S
C697 C286 1.541 . S
C703 C260 1.543 . S
C717 C377 1.531 . S
C723 C312 1.547 . S
C737 C351 1.528 . S
C743 C325 1.546 . S
C757 C364 1.538 . S
C763 C338 1.550 . S
C777 C390 1.527 . S
C783 C455 1.541 . S
C797 C403 1.530 . S
C803 C429 1.535 . S
C817 C416 1.528 . S
C823 C442 1.537 . S
C837 C73 1.206 . S
C843 C8 1.179 . S
C857 C21 1.199 . S
C863 C47 1.205 . S
C877 C60 1.207 . S
C883 C34 1.180 . S
C897 C86 1.206 . S
C903 C151 1.196 . S
C917 C99 1.179 . S
C923 C125 1.197 . S
C937 C138 1.197 . S
C943 C112 1.178 . S
C957 C164 1.185 . S
C963 C229 1.188 . S
C977 C203 1.195 . S
C983 C177 1.207 . S
C997 C216 1.188 . S
C1003 C190 1.209 . S
C1017 C242 1.207 . S
C1023 C307 1.180 . S
C1037 C255 1.178 . S
C1043 C281 1.204 . S
C1057 C294 1.198 . S
C1063 C268 1.178 . S
C1077 C385 1.198 . S
C1083 C320 1.205 . S
C1097 C333 1.186 . S
C1103 C359 1.210 . S
C1117 C346 1.207 . S
C1123 C372 1.180 . S
C1137 C463 1.209 . S
C1143 C398 1.189 . S
C1157 C437 1.178 . S
C1163 C411 1.201 . S
C1177 C450 1.180 . S
C1183 C424 1.207 . S
C1197 C213 1.567 . S
C1203 C5 1.570 . S
C1217 C226 1.571 . S
C1223 C18 1.583 . S
C1237 C200 1.579 . S
C1243 C31 1.564 . S
C1257 C44 1.581 . S
C1263 C343 1.577 . S
C1277 C57 1.577 . S
C1283 C317 1.581 . S
C1297 C70 1.573 . S
C1303 C330 1.565 . S
C1317 C83 1.583 . S
C1323 C447 1.573 . S
C1337 C96 1.576 . S
C1343 C460 1.564 . S
C1357 C109 1.567 . S
C1363 C434 1.569 . S
C1377 C122 1.583 . S
C1383 C265 1.569 . S
C1397 C239 1.582 . S
C1403 C135 1.575 . S
C1417 C252 1.581 . S
C1423 C148 1.577 . S
C1437 C369 1.565 . S
C1443 C161 1.580 . S
C1457 C174 1.569 . S
C1463 C382 1.583 . S
C1477 C187 1.571 . S
C1483 C356 1.583 . S
C1497 C278 1.576 . S
C1503 C421 1.581 . S
C1517 C291 1.582 . S
C1523 C395 1.574 . S
C1537 C408 1.576 . S
C1543 C304 1.564 . S
C1557 C10 1.286 . S
C1563 C140 1.293 . S
C1577 C153 1.289 . S
C1583 C23 1.292 . S
C1597 C127 1.285 . S
C1603 C36 1.295 . S
C1617 C49 1.296 . S
C1623 C114 1.284 . S
C1637 C62 1.289 . S
C1643 C88 1.290 . S
C1657 C75 1.296 . S
C1663 C101 1.285 . S
C1677 C166 1.291 . S
C1683 C296 1.289 . S
C1697 C309 1.297 . S
C1703 C179 1.284 . S
C1717 C283 1.290 . S
C1723 C192 1.290 . S
C1737 C205 1.295 . S
C1743 C270 1.285 . S
C1757 C218 1.292 . S
C1763 C244 1.288 . S
C1777 C257 1.287 . S
C1783 C231 1.294 . S
C1797 C322 1.295 . S
C1803 C452 1.285 . S
C1817 C465 1.293 . S
C1823 C335 1.288 . S
C1837 C348 1.283 . S
C1843 C439 1.296 . S
C1857 C361 1.296 . S
C1863 C426 1.284 . S
C1877 C400 1.284 . S
C1883 C374 1.296 . S
C1897 C387 1.289 . S
C1903 C413 1.292 . S
