# Generated by pormake.
# Topology wgc, (5)-cn, num edge types: 1
# Building blocks:
#     Node 0, Type 0, BuildingBlock: BEQFEK_clean_sbu_0, # of connection points: 5
#     Node 1, Type 0, BuildingBlock: BEQFEK_clean_sbu_0, # of connection points: 5
#     Node 2, Type 0, BuildingBlock: BEQFEK_clean_sbu_0, # of connection points: 5
#     Node 3, Type 0, BuildingBlock: BEQFEK_clean_sbu_0, # of connection points: 5
#     Node 4, Type 0, BuildingBlock: BEQFEK_clean_sbu_0, # of connection points: 5
#     Node 5, Type 0, BuildingBlock: BEQFEK_clean_sbu_0, # of connection points: 5
#     Node 6, Type 0, BuildingBlock: BEQFEK_clean_sbu_0, # of connection points: 5
#     Node 7, Type 0, BuildingBlock: BEQFEK_clean_sbu_0, # of connection points: 5
#     Node 8, Type 0, BuildingBlock: BEQFEK_clean_sbu_0, # of connection points: 5
#     Node 9, Type 0, BuildingBlock: BEQFEK_clean_sbu_0, # of connection points: 5
#     Node 10, Type 0, BuildingBlock: BEQFEK_clean_sbu_0, # of connection points: 5
#     Node 11, Type 0, BuildingBlock: BEQFEK_clean_sbu_0, # of connection points: 5
#     Node 12, Type 0, BuildingBlock: BEQFEK_clean_sbu_0, # of connection points: 5
#     Node 13, Type 0, BuildingBlock: BEQFEK_clean_sbu_0, # of connection points: 5
#     Node 14, Type 0, BuildingBlock: BEQFEK_clean_sbu_0, # of connection points: 5
#     Node 15, Type 0, BuildingBlock: BEQFEK_clean_sbu_0, # of connection points: 5
#     Edge 16, Type (0, 0), BuildingBlock: XUDNAN_clean_linker_2, # of connection points: 2
#     Edge 17, Type (0, 0), BuildingBlock: XUDNAN_clean_linker_2, # of connection points: 2
#     Edge 18, Type (0, 0), BuildingBlock: XUDNAN_clean_linker_2, # of connection points: 2
#     Edge 19, Type (0, 0), BuildingBlock: XUDNAN_clean_linker_2, # of connection points: 2
#     Edge 20, Type (0, 0), BuildingBlock: XUDNAN_clean_linker_2, # of connection points: 2
#     Edge 21, Type (0, 0), BuildingBlock: XUDNAN_clean_linker_2, # of connection points: 2
#     Edge 22, Type (0, 0), BuildingBlock: XUDNAN_clean_linker_2, # of connection points: 2
#     Edge 23, Type (0, 0), BuildingBlock: XUDNAN_clean_linker_2, # of connection points: 2
#     Edge 24, Type (0, 0), BuildingBlock: XUDNAN_clean_linker_2, # of connection points: 2
#     Edge 25, Type (0, 0), BuildingBlock: XUDNAN_clean_linker_2, # of connection points: 2
#     Edge 26, Type (0, 0), BuildingBlock: XUDNAN_clean_linker_2, # of connection points: 2
#     Edge 27, Type (0, 0), BuildingBlock: XUDNAN_clean_linker_2, # of connection points: 2
#     Edge 28, Type (0, 0), BuildingBlock: XUDNAN_clean_linker_2, # of connection points: 2
#     Edge 29, Type (0, 0), BuildingBlock: XUDNAN_clean_linker_2, # of connection points: 2
#     Edge 30, Type (0, 0), BuildingBlock: XUDNAN_clean_linker_2, # of connection points: 2
#     Edge 31, Type (0, 0), BuildingBlock: XUDNAN_clean_linker_2, # of connection points: 2
#     Edge 32, Type (0, 0), BuildingBlock: XUDNAN_clean_linker_2, # of connection points: 2
#     Edge 33, Type (0, 0), BuildingBlock: XUDNAN_clean_linker_2, # of connection points: 2
#     Edge 34, Type (0, 0), BuildingBlock: XUDNAN_clean_linker_2, # of connection points: 2
#     Edge 35, Type (0, 0), BuildingBlock: XUDNAN_clean_linker_2, # of connection points: 2
#     Edge 36, Type (0, 0), BuildingBlock: XUDNAN_clean_linker_2, # of connection points: 2
#     Edge 37, Type (0, 0), BuildingBlock: XUDNAN_clean_linker_2, # of connection points: 2
#     Edge 38, Type (0, 0), BuildingBlock: XUDNAN_clean_linker_2, # of connection points: 2
#     Edge 39, Type (0, 0), BuildingBlock: XUDNAN_clean_linker_2, # of connection points: 2
#     Edge 40, Type (0, 0), BuildingBlock: XUDNAN_clean_linker_2, # of connection points: 2
#     Edge 41, Type (0, 0), BuildingBlock: XUDNAN_clean_linker_2, # of connection points: 2
#     Edge 42, Type (0, 0), BuildingBlock: XUDNAN_clean_linker_2, # of connection points: 2
#     Edge 43, Type (0, 0), BuildingBlock: XUDNAN_clean_linker_2, # of connection points: 2
#     Edge 44, Type (0, 0), BuildingBlock: XUDNAN_clean_linker_2, # of connection points: 2
#     Edge 45, Type (0, 0), BuildingBlock: XUDNAN_clean_linker_2, # of connection points: 2
#     Edge 46, Type (0, 0), BuildingBlock: XUDNAN_clean_linker_2, # of connection points: 2
#     Edge 47, Type (0, 0), BuildingBlock: XUDNAN_clean_linker_2, # of connection points: 2
#     Edge 48, Type (0, 0), BuildingBlock: XUDNAN_clean_linker_2, # of connection points: 2
#     Edge 49, Type (0, 0), BuildingBlock: XUDNAN_clean_linker_2, # of connection points: 2
#     Edge 50, Type (0, 0), BuildingBlock: XUDNAN_clean_linker_2, # of connection points: 2
#     Edge 51, Type (0, 0), BuildingBlock: XUDNAN_clean_linker_2, # of connection points: 2
#     Edge 52, Type (0, 0), BuildingBlock: XUDNAN_clean_linker_2, # of connection points: 2
#     Edge 53, Type (0, 0), BuildingBlock: XUDNAN_clean_linker_2, # of connection points: 2
#     Edge 54, Type (0, 0), BuildingBlock: XUDNAN_clean_linker_2, # of connection points: 2
#     Edge 55, Type (0, 0), BuildingBlock: XUDNAN_clean_linker_2, # of connection points: 2
# Relax obj value: 0.141
# Max RMSD: 0.131
# Mean RMSD: 0.131
data_MOF--net-wgc--node1-BEQFEK_clean_sbu_0--edge1-XUDNAN_clean_linker_2
_symmetry_space_group_name_H-M    P1
_symmetry_Int_Tables_number       1
_symmetry_cell_setting            triclinic
loop_
_symmetry_equiv_pos_as_xyz
'x, y, z'
_cell_length_a     40.205345
_cell_length_b     40.142116
_cell_length_c     55.082806
_cell_angle_alpha  89.947174
_cell_angle_beta   89.982825
_cell_angle_gamma 89.915909
loop_
_atom_site_label
_atom_site_type_symbol
_atom_site_fract_x
_atom_site_fract_y
_atom_site_fract_z
_atom_type_partial_charge
Co0 Co 0.2325 0.12231 0.01993 0.0
Co1 Co 0.3062 0.0998 0.01086 0.0
C2 C 0.26714 0.1257 0.97035 0.0
O3 O 0.24349 0.12831 0.98556 0.0
O4 O 0.29573 0.11494 0.97684 0.0
C5 C 0.16657 0.13983 0.01002 0.0
O6 O 0.16978 0.11457 0.99504 0.0
C7 C 0.37683 0.07823 0.00149 0.0
C8 C 0.38707 0.05619 0.03752 0.0
C9 C 0.40101 0.06105 0.0148 0.0
N10 N 0.35008 0.08287 0.01587 0.0
N11 N 0.35655 0.06963 0.03731 0.0
C12 C 0.37903 0.09076 0.97598 0.0
H13 H 0.36226 0.11246 0.97344 0.0
H14 H 0.40495 0.09803 0.97151 0.0
H15 H 0.37107 0.07076 0.96337 0.0
C16 C 0.26531 0.16531 0.05605 0.0
N17 N 0.26641 0.14157 0.03886 0.0
N18 N 0.2976 0.13411 0.03407 0.0
C19 C 0.31749 0.15334 0.04796 0.0
C20 C 0.29765 0.17357 0.06251 0.0
C21 C 0.23377 0.18149 0.06447 0.0
H22 H 0.2223 0.19499 0.04899 0.0
H23 H 0.23804 0.19943 0.07942 0.0
H24 H 0.21597 0.16203 0.07043 0.0
O25 O 0.22644 0.07425 0.02638 0.0
O26 O 0.27857 0.06008 0.01823 0.0
H27 H 0.3629 0.1311 0.05974 0.0
H28 H 0.36594 0.17507 0.05447 0.0
C29 C 0.35467 0.15168 0.04771 0.0
H30 H 0.36372 0.14653 0.02906 0.0
H31 H 0.33972 0.06926 0.05173 0.0
O32 O 0.19046 0.1469 0.02417 0.0
C33 C 0.249 0.05223 0.02412 0.0
Co34 Co 0.12428 0.77327 0.0018 0.0
Co35 Co 0.1086 0.69643 0.99862 0.0
C36 C 0.12307 0.72794 0.04586 0.0
O37 O 0.12523 0.75621 0.03554 0.0
O38 O 0.11778 0.70148 0.03372 0.0
C39 C 0.17038 0.82114 0.01605 0.0
O40 O 0.18385 0.79382 0.02483 0.0
C41 C 0.08949 0.62597 0.00537 0.0
C42 C 0.07817 0.61153 0.9676 0.0
C43 C 0.07649 0.60026 0.99135 0.0
N44 N 0.098 0.65127 0.99054 0.0
N45 N 0.0913 0.64231 0.96799 0.0
C46 C 0.09396 0.62669 0.03232 0.0
H47 H 0.0744 0.64263 0.04052 0.0
H48 H 0.1185 0.63766 0.03675 0.0
H49 H 0.09268 0.60131 0.04025 0.0
C50 C 0.17613 0.75274 0.96602 0.0
N51 N 0.15027 0.74568 0.98073 0.0
N52 N 0.14454 0.71335 0.97996 0.0
C53 C 0.16696 0.6989 0.96506 0.0
C54 C 0.18757 0.72339 0.95571 0.0
C55 C 0.18902 0.78707 0.96123 0.0
H56 H 0.1684 0.80542 0.9619 0.0
H57 H 0.20758 0.79357 0.97533 0.0
H58 H 0.20138 0.78841 0.94323 0.0
O59 O 0.07719 0.77532 0.9914 0.0
O60 O 0.06741 0.72092 0.99069 0.0
H61 H 0.15464 0.6549 0.94533 0.0
H62 H 0.19635 0.65536 0.95692 0.0
C63 C 0.17019 0.66218 0.96107 0.0
H64 H 0.16173 0.6483 0.97734 0.0
H65 H 0.09405 0.65792 0.95296 0.0
O66 O 0.14341 0.81887 0.0041 0.0
C67 C 0.05757 0.75085 0.98816 0.0
Co68 Co 0.77906 0.86982 0.00278 0.0
Co69 Co 0.70954 0.90515 0.00534 0.0
C70 C 0.73134 0.87187 0.96026 0.0
O71 O 0.75884 0.86451 0.97039 0.0
O72 O 0.70822 0.88681 0.97179 0.0
C73 C 0.82289 0.81579 0.99187 0.0
O74 O 0.79643 0.8028 0.98161 0.0
C75 C 0.6399 0.93009 0.00213 0.0
C76 C 0.63996 0.96537 0.03289 0.0
C77 C 0.62049 0.95406 0.01384 0.0
N78 N 0.66941 0.92803 0.01362 0.0
N79 N 0.6691 0.94903 0.03205 0.0
C80 C 0.63055 0.90845 0.98114 0.0
H81 H 0.64431 0.8845 0.98202 0.0
H82 H 0.60342 0.90336 0.98114 0.0
H83 H 0.63734 0.9212 0.96396 0.0
C84 C 0.75261 0.83598 0.04648 0.0
N85 N 0.74949 0.85755 0.0279 0.0
N86 N 0.71982 0.87139 0.02865 0.0
C87 C 0.70274 0.85839 0.04749 0.0
C88 C 0.72298 0.83553 0.05955 0.0
C89 C 0.78431 0.81815 0.05246 0.0
H90 H 0.80593 0.8341 0.04793 0.0
H91 H 0.78593 0.79509 0.04142 0.0
H92 H 0.7855 0.81141 0.07198 0.0
O93 O 0.79262 0.91627 0.00559 0.0
O94 O 0.74348 0.94125 0.00549 0.0
H95 H 0.66629 0.89003 0.06372 0.0
H96 H 0.65518 0.84646 0.06359 0.0
C97 C 0.66723 0.86665 0.05301 0.0
H98 H 0.65326 0.87063 0.0359 0.0
H99 H 0.6892 0.95281 0.04371 0.0
O100 O 0.82039 0.84343 0.00291 0.0
C101 C 0.7751 0.94259 0.00565 0.0
Co102 Co 0.88532 0.23103 0.97675 0.0
Co103 Co 0.90085 0.30589 0.98742 0.0
C104 C 0.87083 0.2652 0.02544 0.0
O105 O 0.8726 0.2411 0.01047 0.0
O106 O 0.88016 0.29456 0.01951 0.0
C107 C 0.84288 0.17416 0.97873 0.0
O108 O 0.82218 0.19449 0.98976 0.0
C109 C 0.92781 0.37298 0.99961 0.0
C110 C 0.93809 0.39117 0.96248 0.0
C111 C 0.94242 0.39905 0.98672 0.0
N112 N 0.91525 0.35103 0.98353 0.0
N113 N 0.92164 0.36218 0.96144 0.0
C114 C 0.93025 0.3664 0.02628 0.0
H115 H 0.92783 0.33936 0.03007 0.0
H116 H 0.90976 0.37971 0.03568 0.0
H117 H 0.95425 0.37569 0.03356 0.0
C118 C 0.84574 0.26002 0.93712 0.0
N119 N 0.86679 0.26287 0.95597 0.0
N120 N 0.87118 0.29456 0.96117 0.0
C121 C 0.85204 0.31291 0.94602 0.0
C122 C 0.83571 0.29164 0.93015 0.0
C123 C 0.83555 0.22756 0.92608 0.0
H124 H 0.85642 0.20951 0.92697 0.0
H125 H 0.81431 0.21726 0.93651 0.0
H126 H 0.82773 0.2309 0.90691 0.0
O127 O 0.93371 0.22955 0.97479 0.0
O128 O 0.94397 0.28129 0.98613 0.0
H129 H 0.86082 0.36308 0.9346 0.0
H130 H 0.81937 0.3553 0.9449 0.0
C131 C 0.84597 0.34956 0.94841 0.0
H132 H 0.85281 0.3584 0.9668 0.0
H133 H 0.91696 0.34879 0.94559 0.0
O134 O 0.86998 0.18547 0.97027 0.0
C135 C 0.95409 0.25224 0.98063 0.0
Co136 Co 0.23134 0.37069 0.24298 0.0
Co137 Co 0.30329 0.39603 0.25433 0.0
C138 C 0.26585 0.36232 0.29233 0.0
O139 O 0.24216 0.36096 0.27705 0.0
O140 O 0.29418 0.37432 0.28645 0.0
C141 C 0.16336 0.35629 0.24522 0.0
O142 O 0.16322 0.38461 0.25717 0.0
C143 C 0.37627 0.41194 0.26023 0.0
C144 C 0.37607 0.46131 0.24238 0.0
C145 C 0.39636 0.43895 0.25437 0.0
N146 N 0.34525 0.41837 0.25215 0.0
N147 N 0.3456 0.44785 0.24141 0.0
C148 C 0.38596 0.38167 0.27438 0.0
H149 H 0.36384 0.36611 0.27844 0.0
H150 H 0.40415 0.36683 0.26377 0.0
H151 H 0.39832 0.38928 0.29152 0.0
C152 C 0.26615 0.33676 0.20329 0.0
N153 N 0.2662 0.35708 0.22263 0.0
N154 N 0.29683 0.36645 0.22744 0.0
C155 C 0.31746 0.35209 0.21112 0.0
C156 C 0.29865 0.33254 0.19537 0.0
C157 C 0.23519 0.32268 0.19223 0.0
H158 H 0.21495 0.34146 0.19286 0.0
H159 H 0.2272 0.30064 0.2029 0.0
H160 H 0.23932 0.31505 0.1731 0.0
O161 O 0.22203 0.4185 0.2401 0.0
O162 O 0.27182 0.43409 0.25263 0.0
H163 H 0.36108 0.38198 0.20757 0.0
H164 H 0.36673 0.33908 0.19821 0.0
C165 C 0.35445 0.35572 0.21156 0.0
H166 H 0.36371 0.34975 0.23 0.0
H167 H 0.32485 0.45903 0.23345 0.0
O168 O 0.1905 0.3455 0.23644 0.0
C169 C 0.24211 0.44114 0.24663 0.0
Co170 Co 0.37381 0.77463 0.76225 0.0
Co171 Co 0.39393 0.69915 0.75595 0.0
C172 C 0.35909 0.73346 0.71672 0.0
O173 O 0.36011 0.75925 0.73004 0.0
O174 O 0.37088 0.70567 0.72403 0.0
C175 C 0.32157 0.82004 0.75975 0.0
O176 O 0.30608 0.79228 0.75417 0.0
C177 C 0.41672 0.62962 0.74495 0.0
C178 C 0.43713 0.61558 0.78076 0.0
C179 C 0.43336 0.60418 0.75722 0.0
N180 N 0.41089 0.65472 0.76068 0.0
N181 N 0.42343 0.64609 0.78195 0.0
C182 C 0.40674 0.63034 0.7188 0.0
H183 H 0.42491 0.64557 0.70847 0.0
H184 H 0.38193 0.64217 0.7169 0.0
H185 H 0.40598 0.60486 0.71103 0.0
C186 C 0.34359 0.74899 0.80688 0.0
N187 N 0.36016 0.74413 0.786 0.0
N188 N 0.36581 0.71207 0.78291 0.0
C189 C 0.35145 0.69541 0.80155 0.0
C190 C 0.33739 0.71835 0.81741 0.0
C191 C 0.33373 0.78251 0.81639 0.0
H192 H 0.31026 0.79036 0.80747 0.0
H193 H 0.32941 0.78196 0.83627 0.0
H194 H 0.35323 0.8011 0.81204 0.0
O195 O 0.42199 0.77979 0.76227 0.0
O196 O 0.43516 0.72705 0.75487 0.0
H197 H 0.37078 0.65064 0.81709 0.0
H198 H 0.32677 0.65034 0.81229 0.0
C199 C 0.35084 0.65837 0.80435 0.0
H200 H 0.35455 0.64598 0.78658 0.0
H201 H 0.42368 0.66158 0.79715 0.0
O202 O 0.35208 0.81866 0.7657 0.0
C203 C 0.44353 0.75739 0.75787 0.0
Co204 Co 0.76667 0.61791 0.24288 0.0
Co205 Co 0.69102 0.60036 0.24122 0.0
C206 C 0.72148 0.61791 0.28749 0.0
O207 O 0.74926 0.61943 0.27652 0.0
O208 O 0.6945 0.61228 0.27608 0.0
C209 C 0.81096 0.66727 0.2564 0.0
O210 O 0.78265 0.68065 0.2633 0.0
C211 C 0.62559 0.56963 0.24672 0.0
C212 C 0.61242 0.56037 0.20837 0.0
C213 C 0.60289 0.55335 0.23195 0.0
N214 N 0.64749 0.58573 0.23244 0.0
N215 N 0.63922 0.58034 0.20955 0.0
C216 C 0.63007 0.56521 0.27349 0.0
H217 H 0.6549 0.55413 0.27706 0.0
H218 H 0.62939 0.58997 0.28241 0.0
H219 H 0.61054 0.54903 0.28143 0.0
C220 C 0.745 0.66604 0.20478 0.0
N221 N 0.73857 0.6416 0.22091 0.0
N222 N 0.70627 0.63616 0.22149 0.0
C223 C 0.69104 0.65813 0.2066 0.0
C224 C 0.71512 0.67745 0.19531 0.0
C225 C 0.779 0.67917 0.19932 0.0
H226 H 0.79777 0.65906 0.20121 0.0
H227 H 0.78499 0.6993 0.21239 0.0
H228 H 0.78027 0.68981 0.18076 0.0
O229 O 0.77163 0.571 0.23356 0.0
O230 O 0.71772 0.5598 0.23487 0.0
H231 H 0.64693 0.64762 0.18648 0.0
H232 H 0.64664 0.68729 0.20128 0.0
C233 C 0.65421 0.66086 0.20333 0.0
H234 H 0.64095 0.64976 0.21902 0.0
H235 H 0.65357 0.58776 0.19473 0.0
O236 O 0.8106 0.63934 0.24555 0.0
C237 C 0.74768 0.55052 0.23182 0.0
Co238 Co 0.62512 0.22819 0.75179 0.0
Co239 Co 0.60175 0.30274 0.74539 0.0
C240 C 0.63069 0.26803 0.70417 0.0
O241 O 0.63251 0.24292 0.71821 0.0
O242 O 0.61937 0.29594 0.71169 0.0
C243 C 0.67753 0.18271 0.74497 0.0
O244 O 0.69187 0.20996 0.73691 0.0
C245 C 0.57092 0.36997 0.73684 0.0
C246 C 0.56097 0.38427 0.77487 0.0
C247 C 0.55626 0.39473 0.75115 0.0
N248 N 0.58387 0.34647 0.75164 0.0
N249 N 0.57754 0.35526 0.77428 0.0
C250 C 0.56893 0.36635 0.70986 0.0
H251 H 0.57113 0.33978 0.70461 0.0
H252 H 0.58975 0.38029 0.70142 0.0
H253 H 0.54513 0.37662 0.7029 0.0
C254 C 0.66563 0.25818 0.79073 0.0
N255 N 0.64266 0.26049 0.77304 0.0
N256 N 0.63544 0.29206 0.76911 0.0
C257 C 0.65486 0.31098 0.78363 0.0
C258 C 0.67424 0.2901 0.79806 0.0
C259 C 0.68125 0.22605 0.79864 0.0
H260 H 0.66306 0.20543 0.79712 0.0
H261 H 0.70277 0.22056 0.78668 0.0
H262 H 0.69055 0.2273 0.81752 0.0
O263 O 0.57731 0.22161 0.75676 0.0
O264 O 0.562 0.27363 0.74918 0.0
H265 H 0.63989 0.35771 0.79865 0.0
H266 H 0.68076 0.35803 0.78608 0.0
C267 C 0.65529 0.34829 0.78342 0.0
H268 H 0.64543 0.358 0.76601 0.0
H269 H 0.5832 0.3406 0.78938 0.0
O270 O 0.64837 0.1846 0.75381 0.0
C271 C 0.55473 0.24343 0.75386 0.0
Co272 Co 0.7178 0.63247 0.51173 0.0
Co273 Co 0.7867 0.59667 0.50487 0.0
C274 C 0.75489 0.62994 0.46339 0.0
O275 O 0.73119 0.63691 0.47779 0.0
O276 O 0.7808 0.61452 0.47086 0.0
C277 C 0.67556 0.68841 0.50508 0.0
O278 O 0.70152 0.7004 0.49353 0.0
C279 C 0.85672 0.57132 0.49857 0.0
C280 C 0.85659 0.53366 0.52786 0.0
C281 C 0.87636 0.5469 0.50967 0.0
N282 N 0.82693 0.57206 0.50982 0.0
N283 N 0.82719 0.54943 0.52723 0.0
C284 C 0.86619 0.59461 0.47855 0.0
H285 H 0.8503 0.61724 0.47904 0.0
H286 H 0.89277 0.60175 0.4801 0.0
H287 H 0.86235 0.58202 0.46085 0.0
C288 C 0.75429 0.66641 0.55076 0.0
N289 N 0.75286 0.64449 0.53238 0.0
N290 N 0.78221 0.63054 0.52931 0.0
C291 C 0.80349 0.64346 0.54576 0.0
C292 C 0.7864 0.66646 0.56004 0.0
C293 C 0.72573 0.6883 0.55796 0.0
H294 H 0.72009 0.70557 0.54281 0.0
H295 H 0.73106 0.70344 0.57429 0.0
H296 H 0.70334 0.67277 0.56117 0.0
O297 O 0.70409 0.58636 0.51676 0.0
O298 O 0.75227 0.56169 0.50923 0.0
H299 H 0.83971 0.60661 0.55482 0.0
H300 H 0.85271 0.64853 0.56146 0.0
C301 C 0.83897 0.63277 0.54835 0.0
H302 H 0.85138 0.63366 0.53037 0.0
H303 H 0.8071 0.54471 0.53873 0.0
O304 O 0.67781 0.66037 0.51566 0.0
C305 C 0.72137 0.56014 0.51405 0.0
Co306 Co 0.61385 0.27094 0.48304 0.0
Co307 Co 0.5993 0.19492 0.48799 0.0
C308 C 0.62561 0.23215 0.52961 0.0
O309 O 0.6241 0.25882 0.51713 0.0
O310 O 0.61814 0.20393 0.52054 0.0
C311 C 0.65453 0.32865 0.48816 0.0
O312 O 0.67618 0.30784 0.49764 0.0
C313 C 0.58045 0.12575 0.5003 0.0
C314 C 0.56573 0.10719 0.46413 0.0
C315 C 0.56641 0.09859 0.48847 0.0
N316 N 0.58763 0.14921 0.48361 0.0
N317 N 0.5787 0.13788 0.46207 0.0
C318 C 0.58623 0.12992 0.52694 0.0
H319 H 0.56711 0.147 0.53447 0.0
H320 H 0.61097 0.14132 0.53003 0.0
H321 H 0.58513 0.10568 0.5366 0.0
C322 C 0.65524 0.24709 0.44199 0.0
N323 N 0.63451 0.24172 0.46079 0.0
N324 N 0.62967 0.20948 0.46337 0.0
C325 C 0.64831 0.19323 0.44677 0.0
C326 C 0.66473 0.2165 0.43243 0.0
C327 C 0.66428 0.28094 0.43273 0.0
H328 H 0.64326 0.29846 0.43545 0.0
H329 H 0.68602 0.29032 0.44305 0.0
H330 H 0.67082 0.28015 0.41316 0.0
O331 O 0.5658 0.27113 0.4789 0.0
O332 O 0.55534 0.21789 0.4858 0.0
H333 H 0.63587 0.14514 0.43278 0.0
H334 H 0.67893 0.1501 0.44032 0.0
C335 C 0.6532 0.15627 0.44614 0.0
H336 H 0.64849 0.14524 0.46428 0.0
H337 H 0.57967 0.15187 0.44612 0.0
O338 O 0.62764 0.31749 0.4793 0.0
C339 C 0.54533 0.24743 0.48169 0.0
Co340 Co 0.26369 0.37459 0.51231 0.0
Co341 Co 0.19003 0.39989 0.50979 0.0
C342 C 0.22163 0.37207 0.46635 0.0
O343 O 0.24841 0.36929 0.47849 0.0
O344 O 0.19466 0.38215 0.47615 0.0
C345 C 0.32913 0.35589 0.50008 0.0
O346 O 0.3266 0.38187 0.48567 0.0
C347 C 0.12013 0.42354 0.50243 0.0
C348 C 0.11205 0.44843 0.53771 0.0
C349 C 0.09723 0.44271 0.5154 0.0
N350 N 0.14714 0.41863 0.5165 0.0
N351 N 0.14199 0.43357 0.53752 0.0
C352 C 0.11637 0.40942 0.47748 0.0
H353 H 0.12984 0.38536 0.47611 0.0
H354 H 0.08976 0.40549 0.47298 0.0
H355 H 0.12735 0.42696 0.46413 0.0
C356 C 0.2357 0.33394 0.55194 0.0
N357 N 0.23239 0.35719 0.53449 0.0
N358 N 0.20111 0.36665 0.53319 0.0
C359 C 0.1833 0.34921 0.54964 0.0
C360 C 0.20474 0.32812 0.56225 0.0
C361 C 0.26758 0.31593 0.55707 0.0
H362 H 0.28727 0.33429 0.56151 0.0
H363 H 0.27548 0.30235 0.54051 0.0
H364 H 0.26513 0.29777 0.57213 0.0
O365 O 0.27239 0.42219 0.51787 0.0
O366 O 0.22032 0.43882 0.51255 0.0
H367 H 0.14226 0.37544 0.56502 0.0
H368 H 0.13568 0.33139 0.56275 0.0
C369 C 0.14666 0.35327 0.55347 0.0
H370 H 0.13404 0.35731 0.5358 0.0
H371 H 0.1594 0.43436 0.55156 0.0
O372 O 0.30522 0.34887 0.51422 0.0
C373 C 0.25094 0.44536 0.51599 0.0
Co374 Co 0.37417 0.73258 0.49746 0.0
Co375 Co 0.38719 0.80932 0.50079 0.0
C376 C 0.36283 0.77386 0.54339 0.0
O377 O 0.36478 0.74706 0.53111 0.0
O378 O 0.3693 0.80219 0.53399 0.0
C379 C 0.36372 0.66169 0.50437 0.0
O380 O 0.39218 0.66168 0.51608 0.0
C381 C 0.41353 0.87721 0.50879 0.0
C382 C 0.42287 0.89216 0.47078 0.0
C383 C 0.42782 0.90204 0.49456 0.0
N384 N 0.40045 0.85402 0.49392 0.0
N385 N 0.40625 0.86322 0.47127 0.0
C386 C 0.41719 0.87264 0.53562 0.0
H387 H 0.3958 0.88467 0.54487 0.0
H388 H 0.44047 0.8843 0.54228 0.0
H389 H 0.4172 0.84577 0.54031 0.0
C390 C 0.33477 0.7547 0.45522 0.0
N391 N 0.35396 0.76142 0.4746 0.0
N392 N 0.35632 0.7939 0.47725 0.0
C393 C 0.33712 0.80882 0.46028 0.0
C394 C 0.32341 0.78449 0.44557 0.0
C395 C 0.32735 0.7203 0.44632 0.0
H396 H 0.30949 0.70832 0.45895 0.0
H397 H 0.31629 0.72065 0.42787 0.0
H398 H 0.35048 0.70518 0.44629 0.0
O399 O 0.42261 0.73061 0.49322 0.0
O400 O 0.43002 0.78499 0.49768 0.0
H401 H 0.34538 0.8555 0.44255 0.0
H402 H 0.30446 0.85038 0.4546 0.0
C403 C 0.33119 0.84551 0.45822 0.0
H404 H 0.33861 0.8585 0.47511 0.0
H405 H 0.40135 0.84841 0.45615 0.0
O406 O 0.35329 0.6884 0.49461 0.0
C407 C 0.44166 0.75581 0.49459 0.0
Co408 Co 0.72734 0.88143 0.73281 0.0
Co409 Co 0.80155 0.89685 0.74531 0.0
C410 C 0.75723 0.87441 0.78384 0.0
O411 O 0.7343 0.87422 0.7679 0.0
O412 O 0.78715 0.88179 0.77822 0.0
C413 C 0.65883 0.86844 0.73806 0.0
O414 O 0.66089 0.89333 0.75346 0.0
C415 C 0.86698 0.92471 0.75949 0.0
C416 C 0.88995 0.92933 0.72319 0.0
C417 C 0.89468 0.93721 0.74739 0.0
N418 N 0.84707 0.90991 0.74306 0.0
N419 N 0.86107 0.91283 0.72146 0.0
C420 C 0.85707 0.93129 0.78523 0.0
H421 H 0.82959 0.93111 0.78705 0.0
H422 H 0.86744 0.91134 0.79696 0.0
H423 H 0.86702 0.95556 0.79153 0.0
C424 C 0.75927 0.83707 0.69705 0.0
N425 N 0.76106 0.85988 0.71488 0.0
N426 N 0.79224 0.86362 0.7215 0.0
C427 C 0.81125 0.84223 0.70859 0.0
C428 C 0.79105 0.825 0.69244 0.0
C429 C 0.7277 0.82789 0.68431 0.0
H430 H 0.71083 0.84975 0.68342 0.0
H431 H 0.71506 0.80786 0.69469 0.0
H432 H 0.73272 0.81881 0.66564 0.0
O433 O 0.72561 0.92983 0.727 0.0
O434 O 0.77786 0.93921 0.73783 0.0
H435 H 0.86273 0.84829 0.69968 0.0
H436 H 0.85241 0.80832 0.71191 0.0
C437 C 0.84726 0.83542 0.71345 0.0
H438 H 0.85434 0.84419 0.73182 0.0
H439 H 0.84969 0.9059 0.70522 0.0
O440 O 0.68436 0.86018 0.72592 0.0
C441 C 0.74954 0.9498 0.73092 0.0
Co442 Co 0.87165 0.27222 0.24494 0.0
Co443 Co 0.89307 0.19734 0.24483 0.0
C444 C 0.86818 0.22691 0.20024 0.0
O445 O 0.86677 0.25449 0.21159 0.0
O446 O 0.87634 0.19993 0.21097 0.0
C447 C 0.82153 0.31811 0.2337 0.0
O448 O 0.808 0.29108 0.22461 0.0
C449 C 0.91325 0.12558 0.24234 0.0
C450 C 0.94355 0.12379 0.27575 0.0
C451 C 0.93455 0.1049 0.25573 0.0
N452 N 0.91071 0.15504 0.25393 0.0
N453 N 0.92865 0.15354 0.27394 0.0
C454 C 0.8951 0.11796 0.21933 0.0
H455 H 0.87372 0.13516 0.21702 0.0
H456 H 0.88583 0.09194 0.21956 0.0
H457 H 0.91219 0.12123 0.20369 0.0
C458 C 0.82912 0.24803 0.28546 0.0
N459 N 0.8522 0.2432 0.26807 0.0
N460 N 0.86029 0.21145 0.26744 0.0
C461 C 0.84215 0.19488 0.28409 0.0
C462 C 0.82187 0.21753 0.29618 0.0
C463 C 0.81263 0.28084 0.29027 0.0
H464 H 0.8313 0.30113 0.28947 0.0
H465 H 0.79375 0.28549 0.27598 0.0
H466 H 0.79992 0.28133 0.3081 0.0
O467 O 0.91931 0.27886 0.25101 0.0
O468 O 0.93307 0.22582 0.24665 0.0
H469 H 0.86856 0.1531 0.29832 0.0
H470 H 0.82419 0.14861 0.29978 0.0
C471 C 0.84497 0.15819 0.28857 0.0
H472 H 0.84582 0.14474 0.27099 0.0
H473 H 0.93163 0.17339 0.28597 0.0
O474 O 0.84933 0.31591 0.24454 0.0
C475 C 0.94123 0.25612 0.24956 0.0
Co476 Co 0.26632 0.12091 0.74805 0.0
Co477 Co 0.19083 0.10299 0.75257 0.0
C478 C 0.2272 0.12704 0.79522 0.0
O479 O 0.25377 0.12788 0.78263 0.0
O480 O 0.19931 0.11913 0.78588 0.0
C481 C 0.33683 0.13325 0.75283 0.0
O482 O 0.33786 0.10468 0.76446 0.0
C483 C 0.12078 0.08374 0.76297 0.0
C484 C 0.10563 0.06689 0.72644 0.0
C485 C 0.09462 0.06938 0.75019 0.0
N486 N 0.14597 0.08934 0.74736 0.0
N487 N 0.13665 0.07913 0.72561 0.0
C488 C 0.12204 0.09213 0.7894 0.0
H489 H 0.13513 0.11615 0.79202 0.0
H490 H 0.09668 0.09394 0.79724 0.0
H491 H 0.13624 0.07251 0.79913 0.0
C492 C 0.23953 0.16237 0.70773 0.0
N493 N 0.23531 0.1411 0.72643 0.0
N494 N 0.20336 0.13541 0.72934 0.0
C495 C 0.18614 0.15375 0.7131 0.0
C496 C 0.20846 0.17118 0.69862 0.0
C497 C 0.27283 0.1722 0.69791 0.0
H498 H 0.28268 0.19327 0.70876 0.0
H499 H 0.27113 0.17998 0.67862 0.0
H500 H 0.29048 0.15104 0.69946 0.0
O501 O 0.27019 0.07239 0.74259 0.0
O502 O 0.21657 0.06143 0.74765 0.0
H503 H 0.13884 0.13809 0.69955 0.0
H504 H 0.14128 0.1817 0.70645 0.0
C505 C 0.14901 0.1565 0.71256 0.0
H506 H 0.13847 0.15153 0.73082 0.0
H507 H 0.15198 0.0795 0.71032 0.0
O508 O 0.30945 0.14344 0.74406 0.0
C509 C 0.24626 0.05172 0.74381 0.0
Co510 Co 0.10873 0.72146 0.27264 0.0
Co511 Co 0.09082 0.79628 0.2629 0.0
C512 C 0.11362 0.75436 0.22273 0.0
O513 O 0.115 0.7306 0.23799 0.0
O514 O 0.10506 0.78369 0.22923 0.0
C515 C 0.12273 0.65274 0.26598 0.0
O516 O 0.09739 0.65424 0.25096 0.0
C517 C 0.0689 0.86569 0.251 0.0
C518 C 0.05433 0.88151 0.28791 0.0
C519 C 0.05392 0.89173 0.26386 0.0
N520 N 0.07709 0.84145 0.26688 0.0
N521 N 0.06846 0.85129 0.28885 0.0
C522 C 0.07575 0.86357 0.22436 0.0
H523 H 0.09694 0.84654 0.22086 0.0
H524 H 0.08166 0.88855 0.21687 0.0
H525 H 0.0535 0.85356 0.21497 0.0
C526 C 0.15471 0.75213 0.30738 0.0
N527 N 0.13007 0.75453 0.29099 0.0
N528 N 0.12452 0.78612 0.28605 0.0
C529 C 0.14599 0.80487 0.29903 0.0
C530 C 0.16554 0.78385 0.31305 0.0
C531 C 0.169 0.71992 0.31628 0.0
H532 H 0.14863 0.70223 0.32049 0.0
H533 H 0.18462 0.70889 0.30174 0.0
H534 H 0.18457 0.72368 0.33269 0.0
O535 O 0.06092 0.71877 0.27934 0.0
O536 O 0.04946 0.7715 0.27061 0.0
H537 H 0.13318 0.8541 0.31016 0.0
H538 H 0.17558 0.84955 0.30044 0.0
C539 C 0.14959 0.8418 0.29668 0.0
H540 H 0.14221 0.85007 0.27823 0.0
H541 H 0.07103 0.8367 0.30443 0.0
O542 O 0.13062 0.67838 0.27814 0.0
C543 C 0.04017 0.74245 0.27688 0.0
H544 H 0.30383 0.11251 0.92857 0.0
H545 H 0.21216 0.15816 0.95414 0.0
H546 H 0.1941 0.16673 0.91219 0.0
H547 H 0.31305 0.16756 0.87412 0.0
H548 H 0.3289 0.13416 0.85555 0.0
H549 H 0.33665 0.13424 0.88779 0.0
H550 H 0.31057 0.07545 0.8912 0.0
H551 H 0.30253 0.07529 0.85906 0.0
H552 H 0.2689 0.06868 0.88017 0.0
H553 H 0.18187 0.16374 0.86838 0.0
H554 H 0.17919 0.15423 0.82409 0.0
H555 H 0.27947 0.11415 0.82559 0.0
C556 C 0.28036 0.12499 0.9253 0.0
C557 C 0.25945 0.13442 0.94477 0.0
C558 C 0.22868 0.1504 0.93966 0.0
C559 C 0.2181 0.15553 0.91582 0.0
C560 C 0.23866 0.14504 0.89708 0.0
C561 C 0.26939 0.13063 0.9014 0.0
C562 C 0.28581 0.12052 0.87771 0.0
C563 C 0.31801 0.14031 0.87355 0.0
C564 C 0.29232 0.08274 0.87701 0.0
C565 C 0.25903 0.1306 0.85969 0.0
C566 C 0.23205 0.14467 0.87132 0.0
C567 C 0.20311 0.15346 0.85891 0.0
C568 C 0.20172 0.14784 0.83383 0.0
C569 C 0.22926 0.13399 0.82146 0.0
C570 C 0.25835 0.12554 0.83456 0.0
H571 H 0.11409 0.77857 0.07852 0.0
H572 H 0.13826 0.67333 0.07347 0.0
H573 H 0.14228 0.67033 0.11814 0.0
H574 H 0.16699 0.79817 0.1304 0.0
H575 H 0.13708 0.82622 0.14373 0.0
H576 H 0.1385 0.82088 0.11126 0.0
H577 H 0.07608 0.80494 0.11112 0.0
H578 H 0.07445 0.81028 0.14355 0.0
H579 H 0.06188 0.77131 0.13018 0.0
H580 H 0.14246 0.67817 0.16268 0.0
H581 H 0.13497 0.69474 0.20509 0.0
H582 H 0.10825 0.79492 0.18205 0.0
C583 C 0.12064 0.75498 0.0868 0.0
C584 C 0.12613 0.72618 0.07254 0.0
C585 C 0.13399 0.69565 0.08405 0.0
C586 C 0.13649 0.69377 0.10938 0.0
C587 C 0.13082 0.72257 0.12288 0.0
C588 C 0.1228 0.75256 0.11208 0.0
C589 C 0.11585 0.77923 0.13093 0.0
C590 C 0.14112 0.80781 0.12896 0.0
C591 C 0.07993 0.79219 0.12881 0.0
C592 C 0.12087 0.7594 0.15406 0.0
C593 C 0.12992 0.72693 0.14887 0.0
C594 C 0.13543 0.70352 0.16699 0.0
C595 C 0.13104 0.7133 0.1911 0.0
C596 C 0.12087 0.74622 0.19703 0.0
C597 C 0.11616 0.76968 0.17818 0.0
H598 H 0.78159 0.86656 0.92735 0.0
H599 H 0.67398 0.86585 0.93355 0.0
H600 H 0.6695 0.86086 0.88885 0.0
H601 H 0.78432 0.9186 0.87662 0.0
H602 H 0.81971 0.89865 0.86274 0.0
H603 H 0.81463 0.89739 0.89517 0.0
H604 H 0.81749 0.83291 0.89437 0.0
H605 H 0.82276 0.83395 0.86188 0.0
H606 H 0.78942 0.81003 0.87509 0.0
H607 H 0.67683 0.85911 0.84379 0.0
H608 H 0.69447 0.86472 0.80133 0.0
H609 H 0.79772 0.87018 0.82435 0.0
C610 C 0.75706 0.8645 0.91938 0.0
C611 C 0.72807 0.86601 0.93391 0.0
C612 C 0.69644 0.8644 0.92274 0.0
C613 C 0.69371 0.86147 0.89742 0.0
C614 C 0.72283 0.86056 0.88363 0.0
C615 C 0.7539 0.86224 0.8942 0.0
C616 C 0.78119 0.86406 0.87524 0.0
C617 C 0.80112 0.89661 0.87759 0.0
C618 C 0.80406 0.8334 0.87673 0.0
C619 C 0.76059 0.86368 0.85226 0.0
C620 C 0.72705 0.86105 0.85755 0.0
C621 C 0.703 0.86102 0.83944 0.0
C622 C 0.7134 0.86424 0.81531 0.0
C623 C 0.74759 0.86795 0.8094 0.0
C624 C 0.77147 0.86726 0.8282 0.0
H625 H 0.87769 0.30318 0.06705 0.0
H626 H 0.84127 0.20795 0.0408 0.0
H627 H 0.83291 0.18911 0.08273 0.0
H628 H 0.92318 0.27256 0.11523 0.0
H629 H 0.91334 0.30535 0.13638 0.0
H630 H 0.91257 0.31356 0.10428 0.0
H631 H 0.85159 0.33408 0.10744 0.0
H632 H 0.85229 0.32632 0.13968 0.0
H633 H 0.82066 0.30747 0.12104 0.0
H634 H 0.83676 0.17699 0.12708 0.0
H635 H 0.84628 0.17553 0.17151 0.0
H636 H 0.87679 0.27915 0.16936 0.0
C637 C 0.867 0.27879 0.07012 0.0
C638 C 0.86031 0.25709 0.05056 0.0
C639 C 0.84681 0.22509 0.05541 0.0
C640 C 0.84188 0.21406 0.07923 0.0
C641 C 0.85003 0.23544 0.09811 0.0
C642 C 0.86163 0.26739 0.09391 0.0
C643 C 0.87003 0.28463 0.11756 0.0
C644 C 0.90697 0.2946 0.1184 0.0
C645 C 0.84728 0.31492 0.12167 0.0
C646 C 0.86245 0.25698 0.13549 0.0
C647 C 0.85095 0.22879 0.12392 0.0
C648 C 0.84498 0.19916 0.13648 0.0
C649 C 0.85063 0.19845 0.16163 0.0
C650 C 0.86177 0.2273 0.17386 0.0
C651 C 0.86754 0.25689 0.16056 0.0
H652 H 0.30183 0.37553 0.33413 0.0
H653 H 0.21078 0.32949 0.30822 0.0
H654 H 0.19074 0.32435 0.35011 0.0
H655 H 0.30763 0.32441 0.39127 0.0
H656 H 0.32352 0.35913 0.40843 0.0
H657 H 0.33265 0.35567 0.37649 0.0
H658 H 0.30834 0.41473 0.3696 0.0
H659 H 0.29863 0.41816 0.40139 0.0
H660 H 0.26631 0.42359 0.37906 0.0
H661 H 0.1762 0.3326 0.39377 0.0
H662 H 0.17247 0.34583 0.43765 0.0
H663 H 0.2739 0.38245 0.43598 0.0
C664 C 0.27819 0.3634 0.33733 0.0
C665 C 0.2579 0.35315 0.31778 0.0
C666 C 0.22683 0.33778 0.3228 0.0
C667 C 0.2151 0.33471 0.34659 0.0
C668 C 0.23492 0.34649 0.36535 0.0
C669 C 0.26617 0.35974 0.36113 0.0
C670 C 0.28176 0.37169 0.3846 0.0
C671 C 0.31325 0.35151 0.39055 0.0
C672 C 0.28918 0.40927 0.38358 0.0
C673 C 0.25395 0.36408 0.40236 0.0
C674 C 0.22707 0.3497 0.39088 0.0
C675 C 0.19739 0.34308 0.40314 0.0
C676 C 0.19536 0.35087 0.42795 0.0
C677 C 0.22301 0.36463 0.44016 0.0
C678 C 0.25261 0.37123 0.42715 0.0
H679 H 0.37419 0.69656 0.6759 0.0
H680 H 0.31775 0.78227 0.70077 0.0
H681 H 0.30828 0.79945 0.65853 0.0
H682 H 0.41609 0.73562 0.63062 0.0
H683 H 0.41485 0.70246 0.6086 0.0
H684 H 0.41246 0.69291 0.64045 0.0
H685 H 0.35695 0.66157 0.63382 0.0
H686 H 0.35946 0.67044 0.60178 0.0
H687 H 0.32298 0.68236 0.61872 0.0
H688 H 0.31457 0.81376 0.61486 0.0
H689 H 0.32893 0.81909 0.57128 0.0
H690 H 0.37792 0.72281 0.57396 0.0
C691 C 0.35868 0.71811 0.67239 0.0
C692 C 0.34683 0.73809 0.69163 0.0
C693 C 0.32724 0.76661 0.68632 0.0
C694 C 0.32166 0.77663 0.66236 0.0
C695 C 0.33528 0.75756 0.64381 0.0
C696 C 0.35262 0.7284 0.64843 0.0
C697 C 0.36658 0.71391 0.62516 0.0
C698 C 0.40475 0.71108 0.62629 0.0
C699 C 0.35052 0.68006 0.61954 0.0
C700 C 0.35568 0.74026 0.6071 0.0
C701 C 0.33763 0.76523 0.61821 0.0
C702 C 0.32783 0.7939 0.60574 0.0
C703 C 0.33631 0.7969 0.58112 0.0
C704 C 0.35402 0.77118 0.56929 0.0
C705 C 0.36363 0.7425 0.58247 0.0
H706 H 0.7911 0.60842 0.42329 0.0
H707 H 0.70481 0.66717 0.44423 0.0
H708 H 0.68758 0.67085 0.4017 0.0
H709 H 0.80583 0.65461 0.36517 0.0
H710 H 0.81882 0.61745 0.34945 0.0
H711 H 0.82616 0.62147 0.38159 0.0
H712 H 0.7949 0.56597 0.3889 0.0
H713 H 0.78695 0.56207 0.35687 0.0
H714 H 0.75282 0.56151 0.37809 0.0
H715 H 0.67479 0.66168 0.35813 0.0
H716 H 0.67309 0.64853 0.31424 0.0
H717 H 0.7693 0.60011 0.32019 0.0
C718 C 0.76911 0.62279 0.41884 0.0
C719 C 0.74924 0.63715 0.43727 0.0
C720 C 0.72044 0.65559 0.43061 0.0
C721 C 0.71029 0.65787 0.40642 0.0
C722 C 0.72947 0.6422 0.38886 0.0
C723 C 0.75876 0.62582 0.39456 0.0
C724 C 0.77439 0.61097 0.37195 0.0
C725 C 0.80831 0.6271 0.36673 0.0
C726 C 0.77743 0.57287 0.37409 0.0
C727 C 0.74879 0.62082 0.353 0.0
C728 C 0.72293 0.63855 0.36322 0.0
C729 C 0.69522 0.64842 0.34974 0.0
C730 C 0.6943 0.64063 0.32493 0.0
C731 C 0.72115 0.62367 0.31391 0.0
C732 C 0.74864 0.61356 0.32817 0.0
H733 H 0.61123 0.28297 0.56071 0.0
H734 H 0.65921 0.18626 0.55682 0.0
H735 H 0.67259 0.18969 0.60058 0.0
H736 H 0.66548 0.32096 0.60735 0.0
H737 H 0.6312 0.34145 0.62226 0.0
H738 H 0.62969 0.3339 0.59002 0.0
H739 H 0.57389 0.30247 0.59522 0.0
H740 H 0.57516 0.31004 0.62739 0.0
H741 H 0.57155 0.26802 0.61618 0.0
H742 H 0.67794 0.20184 0.64437 0.0
H743 H 0.66908 0.21779 0.68681 0.0
H744 H 0.61398 0.30538 0.66356 0.0
C745 C 0.62522 0.26288 0.56902 0.0
C746 C 0.63475 0.23455 0.55543 0.0
C747 C 0.65197 0.20822 0.56696 0.0
C748 C 0.65985 0.2101 0.5917 0.0
C749 C 0.64993 0.23829 0.60463 0.0
C750 C 0.63261 0.26404 0.59381 0.0
C751 C 0.62141 0.28958 0.61242 0.0
C752 C 0.63794 0.32348 0.60773 0.0
C753 C 0.58324 0.29268 0.61282 0.0
C754 C 0.63447 0.27375 0.63552 0.0
C755 C 0.65153 0.24461 0.63041 0.0
C756 C 0.66476 0.22464 0.6486 0.0
C757 C 0.65947 0.23397 0.6727 0.0
C758 C 0.64063 0.2628 0.67857 0.0
C759 C 0.62878 0.28346 0.65966 0.0
H760 H 0.19006 0.01985 0.01486 0.0
H761 H 0.29106 0.00411 0.04022 0.0
H762 H 0.28081 0.94364 0.04246 0.0
H763 H 0.15056 0.953 0.05051 0.0
H764 H 0.12284 0.94143 0.02624 0.0
H765 H 0.1369 0.98388 0.0289 0.0
H766 H 0.15899 0.98169 0.98475 0.0
H767 H 0.14527 0.93919 0.98201 0.0
H768 H 0.18815 0.94959 0.97625 0.0
H769 H 0.261 0.88523 0.04031 0.0
H770 H 0.2329 0.83163 0.03339 0.0
H771 H 0.1452 0.88409 0.00757 0.0
C772 C 0.2097 0.00368 0.02139 0.0
C773 C 0.24125 0.01661 0.02762 0.0
C774 C 0.26669 0.99467 0.03546 0.0
C775 C 0.2611 0.96032 0.03682 0.0
C776 C 0.23002 0.94824 0.03008 0.0
C777 C 0.20471 0.96913 0.02249 0.0
C778 C 0.17439 0.9493 0.01479 0.0
C779 C 0.1444 0.95739 0.03109 0.0
C780 C 0.16624 0.95531 0.98785 0.0
C781 C 0.1868 0.91407 0.01905 0.0
C782 C 0.21884 0.91416 0.02809 0.0
C783 C 0.23585 0.8848 0.03333 0.0
C784 C 0.21966 0.85446 0.0293 0.0
C785 C 0.18687 0.85363 0.01991 0.0
C786 C 0.1703 0.88392 0.01469 0.0
H787 H 0.02067 0.8064 0.99894 0.0
H788 H 0.01387 0.70773 0.96716 0.0
H789 H 0.95305 0.71421 0.96349 0.0
H790 H 0.94926 0.79956 0.03506 0.0
H791 H 0.93615 0.84223 0.0314 0.0
H792 H 0.97955 0.83163 0.02914 0.0
H793 H 0.98241 0.85847 0.98637 0.0
H794 H 0.93908 0.86958 0.98864 0.0
H795 H 0.95358 0.8453 0.96323 0.0
H796 H 0.89272 0.72997 0.96549 0.0
H797 H 0.83712 0.75465 0.97227 0.0
H798 H 0.88339 0.84202 0.00408 0.0
C799 C 0.00648 0.78652 0.99066 0.0
C800 C 0.02197 0.75668 0.98316 0.0
C801 C 0.00246 0.73086 0.97296 0.0
C802 C 0.96792 0.73429 0.97079 0.0
C803 C 0.95327 0.76362 0.97899 0.0
C804 C 0.97191 0.78936 0.98862 0.0
C805 C 0.94985 0.81745 0.99741 0.0
C806 C 0.95395 0.82302 0.02488 0.0
C807 C 0.95663 0.8496 0.98305 0.0
C808 C 0.91595 0.80329 0.99148 0.0
C809 C 0.91845 0.77234 0.9807 0.0
C810 C 0.89042 0.75428 0.97381 0.0
C811 C 0.85897 0.76843 0.97781 0.0
C812 C 0.8559 0.80018 0.98876 0.0
C813 C 0.88486 0.81763 0.99577 0.0
H814 H 0.74771 0.00511 0.01049 0.0
H815 H 0.84017 0.95362 0.99406 0.0
H816 H 0.86665 0.00724 0.98439 0.0
H817 H 0.75263 0.06575 0.96398 0.0
H818 H 0.7363 0.09948 0.98201 0.0
H819 H 0.72443 0.0572 0.98867 0.0
H820 H 0.74486 0.06389 0.03301 0.0
H821 H 0.7563 0.10637 0.0266 0.0
H822 H 0.78677 0.07781 0.03864 0.0
H823 H 0.88197 0.0652 0.97356 0.0
H824 H 0.88789 0.12564 0.96754 0.0
H825 H 0.78644 0.14045 0.99258 0.0
C826 C 0.77364 0.00515 0.00515 0.0
C827 C 0.79182 0.97513 0.00298 0.0
C828 C 0.82573 0.97626 0.99597 0.0
C829 C 0.84098 0.00658 0.99029 0.0
C830 C 0.82211 0.03556 0.99197 0.0
C831 C 0.78942 0.03527 0.99967 0.0
C832 C 0.77497 0.07016 1.00016 0.0
C833 C 0.74533 0.07331 0.98266 0.0
C834 C 0.76516 0.08015 0.02615 0.0
C835 C 0.8046 0.08997 0.99125 0.0
C836 C 0.83137 0.06941 0.98642 0.0
C837 C 0.86132 0.08166 0.97749 0.0
C838 C 0.86433 0.11603 0.97399 0.0
C839 C 0.83766 0.1378 0.97968 0.0
C840 C 0.80728 0.12446 0.98813 0.0
H841 H 0.1081 0.12791 0.98617 0.0
H842 H 0.15911 0.20198 0.02979 0.0
H843 H 0.11178 0.24058 0.02438 0.0
H844 H 0.0708 0.18441 0.94338 0.0
H845 H 0.03229 0.16161 0.94153 0.0
H846 H 0.07049 0.14001 0.94831 0.0
H847 H 0.04452 0.11629 0.9878 0.0
H848 H 0.00614 0.13744 0.98095 0.0
H849 H 0.02653 0.14449 0.00963 0.0
H850 H 0.05916 0.27132 0.01374 0.0
H851 H 0.00249 0.28954 0.00268 0.0
H852 H 0.9856 0.19465 0.96693 0.0
C853 C 0.10932 0.15222 0.99462 0.0
C854 C 0.13731 0.16199 0.00833 0.0
C855 C 0.13785 0.19393 0.01926 0.0
C856 C 0.11121 0.21612 0.01615 0.0
C857 C 0.0842 0.20588 0.0022 0.0
C858 C 0.08287 0.17453 0.99189 0.0
C859 C 0.0504 0.16911 0.97861 0.0
C860 C 0.05637 0.16346 0.95134 0.0
C861 C 0.03074 0.14013 0.98993 0.0
C862 C 0.03355 0.20223 0.98319 0.0
C863 C 0.05362 0.22327 0.99655 0.0
C864 C 0.0432 0.25507 0.00328 0.0
C865 C 0.01102 0.26525 0.9968 0.0
C866 C 0.98955 0.24352 0.98395 0.0
C867 C 0.00138 0.21189 0.9767 0.0
H868 H 0.11067 0.5908 0.24664 0.0
H869 H 0.18465 0.64822 0.28592 0.0
H870 H 0.22357 0.60097 0.28365 0.0
H871 H 0.1299 0.51171 0.27566 0.0
H872 H 0.12286 0.48774 0.24849 0.0
H873 H 0.10063 0.52618 0.2532 0.0
H874 H 0.12239 0.54818 0.2119 0.0
H875 H 0.145 0.50995 0.2072 0.0
H876 H 0.16655 0.54928 0.20629 0.0
H877 H 0.25534 0.54922 0.27561 0.0
H878 H 0.27628 0.49303 0.26653 0.0
H879 H 0.18121 0.46758 0.23391 0.0
C880 C 0.13498 0.59332 0.25489 0.0
C881 C 0.14466 0.62324 0.26638 0.0
C882 C 0.17662 0.62554 0.27707 0.0
C883 C 0.19901 0.59891 0.27577 0.0
C884 C 0.18893 0.57004 0.26394 0.0
C885 C 0.15755 0.56678 0.25403 0.0
C886 C 0.15287 0.5326 0.24288 0.0
C887 C 0.12491 0.51342 0.25584 0.0
C888 C 0.14632 0.53518 0.21544 0.0
C889 C 0.18661 0.5173 0.24801 0.0
C890 C 0.20707 0.53953 0.25994 0.0
C891 C 0.23952 0.53146 0.26641 0.0
C892 C 0.2512 0.49948 0.26106 0.0
C893 C 0.23035 0.47579 0.24957 0.0
C894 C 0.19775 0.48508 0.24271 0.0
H895 H 0.59781 0.88185 0.758 0.0
H896 H 0.65197 0.80744 0.71657 0.0
H897 H 0.60332 0.77016 0.71836 0.0
H898 H 0.55553 0.82587 0.79753 0.0
H899 H 0.51714 0.84911 0.7977 0.0
H900 H 0.55604 0.87034 0.79295 0.0
H901 H 0.53396 0.89487 0.75248 0.0
H902 H 0.49486 0.87405 0.75726 0.0
H903 H 0.51781 0.8672 0.72959 0.0
H904 H 0.54988 0.73992 0.72636 0.0
H905 H 0.49294 0.72121 0.73607 0.0
H906 H 0.4731 0.81615 0.77101 0.0
C907 C 0.59936 0.85782 0.74915 0.0
C908 C 0.62869 0.84752 0.73721 0.0
C909 C 0.6297 0.81591 0.72577 0.0
C910 C 0.60228 0.79447 0.72679 0.0
C911 C 0.57397 0.80514 0.73912 0.0
C912 C 0.57212 0.83625 0.74978 0.0
C913 C 0.53854 0.84189 0.76151 0.0
C914 C 0.54204 0.8471 0.78906 0.0
C915 C 0.52021 0.87124 0.74948 0.0
C916 C 0.52187 0.80904 0.75585 0.0
C917 C 0.54284 0.78806 0.74315 0.0
C918 C 0.53313 0.75618 0.73618 0.0
C919 C 0.50082 0.74572 0.74191 0.0
C920 C 0.47855 0.76726 0.75423 0.0
C921 C 0.48948 0.79916 0.76149 0.0
H922 H 0.84699 0.37973 0.24417 0.0
H923 H 0.75896 0.33013 0.21638 0.0
H924 H 0.73166 0.38471 0.21079 0.0
H925 H 0.80476 0.44332 0.2772 0.0
H926 H 0.83473 0.47523 0.27009 0.0
H927 H 0.84751 0.43227 0.2714 0.0
H928 H 0.87069 0.4367 0.2276 0.0
H929 H 0.85777 0.47965 0.22609 0.0
H930 H 0.84374 0.45049 0.20344 0.0
H931 H 0.71315 0.44405 0.20988 0.0
H932 H 0.70442 0.50464 0.21373 0.0
H933 H 0.80523 0.51585 0.24075 0.0
C934 C 0.82197 0.38032 0.23692 0.0
C935 C 0.80504 0.3507 0.23075 0.0
C936 C 0.77239 0.35253 0.22121 0.0
C937 C 0.75671 0.38339 0.21793 0.0
C938 C 0.77415 0.41211 0.22408 0.0
C939 C 0.80606 0.41089 0.23333 0.0
C940 C 0.81912 0.44544 0.23879 0.0
C941 C 0.82698 0.44928 0.26599 0.0
C942 C 0.84964 0.45354 0.22304 0.0
C943 C 0.78936 0.46625 0.23147 0.0
C944 C 0.76372 0.44651 0.22301 0.0
C945 C 0.73312 0.45982 0.21625 0.0
C946 C 0.72841 0.49423 0.21853 0.0
C947 C 0.75425 0.51491 0.22736 0.0
C948 C 0.78525 0.50072 0.23355 0.0
H949 H 0.40151 0.11752 0.76464 0.0
H950 H 0.3391 0.19804 0.73792 0.0
H951 H 0.38766 0.23528 0.73703 0.0
H952 H 0.45431 0.16751 0.80285 0.0
H953 H 0.49165 0.14463 0.79569 0.0
H954 H 0.45186 0.12408 0.79475 0.0
H955 H 0.46271 0.10635 0.7502 0.0
H956 H 0.5026 0.12664 0.75108 0.0
H957 H 0.47288 0.13764 0.72792 0.0
H958 H 0.44225 0.26411 0.73956 0.0
H959 H 0.50076 0.28171 0.74218 0.0
H960 H 0.52858 0.18227 0.76606 0.0
C961 C 0.39808 0.14298 0.75861 0.0
C962 C 0.36647 0.15488 0.75144 0.0
C963 C 0.36305 0.18831 0.74349 0.0
C964 C 0.39046 0.20974 0.74301 0.0
C965 C 0.42117 0.19734 0.75038 0.0
C966 C 0.42528 0.1647 0.75779 0.0
C967 C 0.46129 0.1575 0.76404 0.0
C968 C 0.46498 0.14787 0.79093 0.0
C969 C 0.47571 0.13044 0.74731 0.0
C970 C 0.47669 0.19121 0.75892 0.0
C971 C 0.45301 0.21387 0.75129 0.0
C972 C 0.46108 0.24661 0.74547 0.0
C973 C 0.49442 0.25637 0.74709 0.0
C974 C 0.51934 0.23338 0.75429 0.0
C975 C 0.51016 0.20045 0.7605 0.0
H976 H 0.75047 0.49832 0.51546 0.0
H977 H 0.65463 0.54809 0.51103 0.0
H978 H 0.62734 0.49397 0.50429 0.0
H979 H 0.73694 0.43996 0.46951 0.0
H980 H 0.75776 0.40583 0.48445 0.0
H981 H 0.7699 0.44806 0.49089 0.0
H982 H 0.7594 0.43854 0.53678 0.0
H983 H 0.74776 0.39607 0.53056 0.0
H984 H 0.71959 0.42306 0.54674 0.0
H985 H 0.61134 0.43602 0.49361 0.0
H986 H 0.60613 0.37604 0.48519 0.0
H987 H 0.71188 0.36305 0.49833 0.0
C988 C 0.72367 0.49778 0.5135 0.0
C989 C 0.70468 0.52743 0.5137 0.0
C990 C 0.66968 0.52569 0.51106 0.0
C991 C 0.65395 0.49509 0.5071 0.0
C992 C 0.67353 0.4665 0.5062 0.0
C993 C 0.70751 0.46741 0.50981 0.0
C994 C 0.72277 0.43301 0.50764 0.0
C995 C 0.74835 0.43166 0.48688 0.0
C996 C 0.73829 0.42202 0.53188 0.0
C997 C 0.69211 0.41277 0.50169 0.0
C998 C 0.66405 0.43267 0.50081 0.0
C999 C 0.63301 0.42006 0.49459 0.0
C1000 C 0.63039 0.386 0.48964 0.0
C1001 C 0.65861 0.36489 0.49119 0.0
C1002 C 0.68988 0.37856 0.49717 0.0
H1003 H 0.51465 0.30464 0.4666 0.0
H1004 H 0.49513 0.20829 0.49952 0.0
H1005 H 0.43671 0.22487 0.50644 0.0
H1006 H 0.46773 0.35223 0.50651 0.0
H1007 H 0.45211 0.38096 0.48406 0.0
H1008 H 0.49143 0.36048 0.47938 0.0
H1009 H 0.47082 0.33725 0.43816 0.0
H1010 H 0.43154 0.35808 0.44253 0.0
H1011 H 0.43261 0.31384 0.437 0.0
H1012 H 0.38256 0.25437 0.51405 0.0
H1013 H 0.33462 0.2925 0.51788 0.0
H1014 H 0.38925 0.36881 0.47878 0.0
C1015 C 0.49796 0.28675 0.47484 0.0
C1016 C 0.50944 0.25519 0.48256 0.0
C1017 C 0.48683 0.23253 0.49333 0.0
C1018 C 0.45364 0.24176 0.49742 0.0
C1019 C 0.44345 0.2735 0.49031 0.0
C1020 C 0.46478 0.29542 0.47885 0.0
C1021 C 0.44798 0.32843 0.47369 0.0
C1022 C 0.46588 0.35721 0.48669 0.0
C1023 C 0.44559 0.33476 0.44621 0.0
C1024 C 0.41411 0.32199 0.48464 0.0
C1025 C 0.412 0.29018 0.49415 0.0
C1026 C 0.38373 0.27914 0.50633 0.0
C1027 C 0.35674 0.30106 0.50856 0.0
C1028 C 0.3582 0.33355 0.49852 0.0
C1029 C 0.3873 0.34402 0.48642 0.0
H1030 H 0.37998 0.59715 0.51686 0.0
H1031 H 0.29792 0.65948 0.49276 0.0
H1032 H 0.26015 0.61146 0.49526 0.0
H1033 H 0.3551 0.5242 0.4831 0.0
H1034 H 0.36802 0.49529 0.50632 0.0
H1035 H 0.38871 0.53483 0.50331 0.0
H1036 H 0.37584 0.54791 0.54842 0.0
H1037 H 0.35484 0.5085 0.5515 0.0
H1038 H 0.3334 0.54661 0.55897 0.0
H1039 H 0.23092 0.55787 0.50116 0.0
H1040 H 0.21265 0.49985 0.50599 0.0
H1041 H 0.31366 0.47071 0.52464 0.0
C1042 C 0.35408 0.60064 0.51209 0.0
C1043 C 0.3419 0.6321 0.5047 0.0
C1044 C 0.30788 0.63562 0.49842 0.0
C1045 C 0.28615 0.60854 0.49991 0.0
C1046 C 0.29882 0.578 0.50749 0.0
C1047 C 0.33201 0.57368 0.51318 0.0
C1048 C 0.33925 0.53775 0.51991 0.0
C1049 C 0.36424 0.5221 0.5021 0.0
C1050 C 0.35156 0.53505 0.54627 0.0
C1051 C 0.30491 0.52267 0.51707 0.0
C1052 C 0.28197 0.54651 0.51019 0.0
C1053 C 0.24863 0.53889 0.50647 0.0
C1054 C 0.2385 0.50581 0.50934 0.0
C1055 C 0.26171 0.48061 0.51564 0.0
C1056 C 0.2953 0.48935 0.51983 0.0
H1057 H 0.47775 0.69943 0.5046 0.0
H1058 H 0.48778 0.80299 0.48303 0.0
H1059 H 0.5489 0.79734 0.48388 0.0
H1060 H 0.54552 0.69954 0.5465 0.0
H1061 H 0.55875 0.65773 0.53943 0.0
H1062 H 0.51572 0.6693 0.53597 0.0
H1063 H 0.51707 0.65043 0.49098 0.0
H1064 H 0.56001 0.63848 0.49438 0.0
H1065 H 0.54812 0.66739 0.47086 0.0
H1066 H 0.60887 0.78039 0.48687 0.0
H1067 H 0.66363 0.75319 0.49219 0.0
H1068 H 0.61422 0.66176 0.51383 0.0
C1069 C 0.49282 0.72077 0.49974 0.0
C1070 C 0.47808 0.75156 0.49358 0.0
C1071 C 0.49861 0.77912 0.48778 0.0
C1072 C 0.53332 0.77619 0.48821 0.0
C1073 C 0.54708 0.74563 0.49472 0.0
C1074 C 0.52751 0.71842 0.50043 0.0
C1075 C 0.54856 0.6887 0.50752 0.0
C1076 C 0.54173 0.67822 0.53393 0.0
C1077 C 0.54312 0.65953 0.48988 0.0
C1078 C 0.58299 0.70342 0.50479 0.0
C1079 C 0.58162 0.73623 0.49728 0.0
C1080 C 0.61029 0.75475 0.49287 0.0
C1081 C 0.64124 0.73913 0.49596 0.0
C1082 C 0.64314 0.70551 0.50361 0.0
C1083 C 0.61358 0.68765 0.5083 0.0
H1084 H 0.69097 0.98432 0.73622 0.0
H1085 H 0.79658 0.99739 0.72298 0.0
H1086 H 0.78937 0.05841 0.72455 0.0
H1087 H 0.66205 0.05724 0.70207 0.0
H1088 H 0.62999 0.067 0.72382 0.0
H1089 H 0.64301 0.02444 0.71959 0.0
H1090 H 0.65564 0.0198 0.76559 0.0
H1091 H 0.64305 0.06245 0.76992 0.0
H1092 H 0.68383 0.04905 0.77944 0.0
H1093 H 0.77125 0.11772 0.72885 0.0
H1094 H 0.74325 0.17171 0.73549 0.0
H1095 H 0.64984 0.12026 0.74788 0.0
C1096 C 0.71242 7e-05 0.73313 0.0
C1097 C 0.74428 0.98617 0.72923 0.0
C1098 C 0.77192 0.00755 0.72589 0.0
C1099 C 0.76808 0.04222 0.72675 0.0
C1100 C 0.7365 0.05513 0.73118 0.0
C1101 C 0.70911 0.03478 0.7343 0.0
C1102 C 0.67827 0.05504 0.74006 0.0
C1103 C 0.65177 0.05067 0.72019 0.0
C1104 C 0.66439 0.04605 0.76525 0.0
C1105 C 0.69265 0.08991 0.73979 0.0
C1106 C 0.72623 0.08938 0.73447 0.0
C1107 C 0.74495 0.11848 0.73302 0.0
C1108 C 0.72884 0.14901 0.73686 0.0
C1109 C 0.69443 0.15019 0.74231 0.0
C1110 C 0.67624 0.12015 0.74396 0.0
H1111 H 0.09958 0.37555 0.2557 0.0
H1112 H 0.15857 0.29101 0.23172 0.0
H1113 H 0.10825 0.25593 0.23172 0.0
H1114 H 0.04488 0.33068 0.29525 0.0
H1115 H 0.00856 0.35472 0.28734 0.0
H1116 H 0.04921 0.3734 0.28564 0.0
H1117 H 0.03905 0.38876 0.24053 0.0
H1118 H 0.99826 0.3704 0.24215 0.0
H1119 H 0.02736 0.3566 0.21937 0.0
H1120 H 0.05246 0.22974 0.23558 0.0
H1121 H 0.99335 0.21489 0.2392 0.0
H1122 H 0.9699 0.31697 0.25925 0.0
C1123 C 0.10189 0.34968 0.2504 0.0
C1124 C 0.13296 0.33593 0.24381 0.0
C1125 C 0.13498 0.30205 0.2368 0.0
C1126 C 0.1066 0.2819 0.23685 0.0
C1127 C 0.07644 0.29611 0.24375 0.0
C1128 C 0.07377 0.32929 0.2501 0.0
C1129 C 0.03818 0.33853 0.25613 0.0
C1130 C 0.03504 0.35 0.28267 0.0
C1131 C 0.02494 0.36514 0.23849 0.0
C1132 C 0.02129 0.30531 0.25221 0.0
C1133 C 0.04392 0.28115 0.24531 0.0
C1134 C 0.03444 0.24844 0.24085 0.0
C1135 C 0.00078 0.24026 0.24305 0.0
C1136 C 0.97692 0.26481 0.24944 0.0
C1137 C 0.98748 0.29768 0.25429 0.0
H1138 H 0.34833 0.88292 0.76355 0.0
H1139 H 0.25606 0.83031 0.74925 0.0
H1140 H 0.22778 0.88384 0.74182 0.0
H1141 H 0.31139 0.95305 0.79457 0.0
H1142 H 0.33988 0.98292 0.78176 0.0
H1143 H 0.35286 0.94039 0.78615 0.0
H1144 H 0.36857 0.93653 0.74061 0.0
H1145 H 0.35527 0.97895 0.73602 0.0
H1146 H 0.3377 0.94603 0.71789 0.0
H1147 H 0.20938 0.94239 0.736 0.0
H1148 H 0.20111 0.00312 0.73394 0.0
H1149 H 0.30535 0.0184 0.75129 0.0
C1150 C 0.32213 0.88267 0.75903 0.0
C1151 C 0.30439 0.8524 0.757 0.0
C1152 C 0.27017 0.85315 0.75092 0.0
C1153 C 0.25389 0.88343 0.74659 0.0
C1154 C 0.27218 0.91274 0.74835 0.0
C1155 C 0.30547 0.91271 0.75454 0.0
C1156 C 0.3192 0.94786 0.75533 0.0
C1157 C 0.33155 0.95656 0.78098 0.0
C1158 C 0.34682 0.95261 0.73633 0.0
C1159 C 0.28834 0.9676 0.74873 0.0
C1160 C 0.26157 0.94676 0.74473 0.0
C1161 C 0.23014 0.959 0.73903 0.0
C1162 C 0.22572 0.99354 0.7379 0.0
C1163 C 0.25261 0.0155 0.74237 0.0
C1164 C 0.28445 0.00225 0.74746 0.0
H1165 H 0.00768 0.68358 0.26941 0.0
H1166 H 0.99173 0.7872 0.2886 0.0
H1167 H 0.93099 0.7783 0.28757 0.0
H1168 H 0.94401 0.67953 0.2266 0.0
H1169 H 0.93159 0.63744 0.23349 0.0
H1170 H 0.97375 0.65044 0.23894 0.0
H1171 H 0.96891 0.63248 0.284 0.0
H1172 H 0.92682 0.61899 0.27863 0.0
H1173 H 0.93544 0.64868 0.30233 0.0
H1174 H 0.87243 0.7593 0.28177 0.0
H1175 H 0.8196 0.7314 0.27155 0.0
H1176 H 0.8738 0.64085 0.2542 0.0
C1177 C 0.99138 0.70412 0.27405 0.0
C1178 C 0.00428 0.73597 0.27935 0.0
C1179 C 0.98225 0.76256 0.28462 0.0
C1180 C 0.94777 0.75774 0.28411 0.0
C1181 C 0.93581 0.72626 0.27814 0.0
C1182 C 0.9569 0.69987 0.27326 0.0
C1183 C 0.93767 0.6693 0.26546 0.0
C1184 C 0.94733 0.65857 0.23959 0.0
C1185 C 0.94249 0.64067 0.2837 0.0
C1186 C 0.90254 0.68282 0.26633 0.0
C1187 C 0.902 0.71559 0.27397 0.0
C1188 C 0.87248 0.73358 0.2759 0.0
C1189 C 0.84264 0.71755 0.27 0.0
C1190 C 0.84265 0.68403 0.26201 0.0
C1191 C 0.87304 0.66655 0.26013 0.0
H1192 H 0.45292 0.04937 0.04491 0.0
H1193 H 0.42359 0.04018 0.96939 0.0
H1194 H 0.47724 0.01291 0.96025 0.0
H1195 H 0.54103 0.06306 0.0355 0.0
H1196 H 0.55245 0.03825 0.06149 0.0
H1197 H 0.51327 0.06005 0.06112 0.0
H1198 H 0.48256 0.00444 0.06949 0.0
H1199 H 0.52158 0.98241 0.06958 0.0
H1200 H 0.48881 0.96967 0.04929 0.0
H1201 H 0.53473 0.98473 0.96007 0.0
H1202 H 0.58923 0.95908 0.96881 0.0
H1203 H 0.57683 0.98237 0.04522 0.0
C1204 C 0.45782 0.0421 0.02632 0.0
C1205 C 0.43419 0.04783 0.00779 0.0
C1206 C 0.4416 0.03742 0.9838 0.0
C1207 C 0.47194 0.02142 0.97848 0.0
C1208 C 0.49436 0.01571 0.99738 0.0
C1209 C 0.48753 0.02582 0.02082 0.0
C1210 C 0.51461 0.0154 0.03827 0.0
C1211 C 0.53133 0.04601 0.04976 0.0
C1212 C 0.50107 0.99156 0.0578 0.0
C1213 C 0.53786 0.99763 0.02106 0.0
C1214 C 0.52603 0.99817 0.99752 0.0
C1215 C 0.54393 0.98379 0.97852 0.0
C1216 C 0.57474 0.96871 0.98376 0.0
C1217 C 0.58703 0.9676 0.00788 0.0
C1218 C 0.5681 0.98236 0.02662 0.0
H1219 H 0.07605 0.54106 0.96767 0.0
H1220 H 0.03495 0.59092 0.0307 0.0
H1221 H 0.00064 0.54148 0.03961 0.0
H1222 H 0.00188 0.5078 0.94805 0.0
H1223 H 0.01915 0.4692 0.93703 0.0
H1224 H 0.04459 0.50595 0.93814 0.0
H1225 H 0.08796 0.47473 0.96457 0.0
H1226 H 0.0627 0.43771 0.96342 0.0
H1227 H 0.07486 0.45483 0.99232 0.0
H1228 H 0.96573 0.48853 0.03872 0.0
H1229 H 0.9336 0.43814 0.02754 0.0
H1230 H 0.99701 0.42447 0.96462 0.0
C1231 C 0.06053 0.54119 0.98375 0.0
C1232 C 0.05914 0.56941 0.99896 0.0
C1233 C 0.03772 0.56906 0.0194 0.0
C1234 C 0.01781 0.54116 0.02448 0.0
C1235 C 0.01949 0.51386 0.00888 0.0
C1236 C 0.04047 0.5137 0.98897 0.0
C1237 C 0.03555 0.48287 0.97367 0.0
C1238 C 0.02463 0.49202 0.9477 0.0
C1239 C 0.06715 0.46126 0.97349 0.0
C1240 C 0.0078 0.46617 0.9876 0.0
C1241 C -0.00091 0.48402 0.00807 0.0
C1242 C 0.97276 0.47406 0.02296 0.0
C1243 C 0.95474 0.44533 0.01656 0.0
C1244 C 0.96302 0.4272 0.99538 0.0
C1245 C 0.99014 0.43771 0.981 0.0
H1246 H 0.54744 0.56199 0.25973 0.0
H1247 H 0.60237 0.48826 0.2187 0.0
H1248 H 0.55877 0.4464 0.22731 0.0
H1249 H 0.50929 0.50384 0.30547 0.0
H1250 H 0.47032 0.52608 0.30495 0.0
H1251 H 0.50877 0.54808 0.29982 0.0
H1252 H 0.48609 0.57041 0.25884 0.0
H1253 H 0.44765 0.54879 0.26397 0.0
H1254 H 0.47093 0.54131 0.23653 0.0
H1255 H 0.50646 0.41466 0.23633 0.0
H1256 H 0.44743 0.39817 0.24059 0.0
H1257 H 0.42541 0.49332 0.27389 0.0
C1258 C 0.55057 0.53672 0.25323 0.0
C1259 C 0.57827 0.52795 0.23895 0.0
C1260 C 0.58131 0.49513 0.22991 0.0
C1261 C 0.55684 0.4712 0.23487 0.0
C1262 C 0.52941 0.48063 0.24877 0.0
C1263 C 0.52604 0.51272 0.25767 0.0
C1264 C 0.49217 0.51788 0.26906 0.0
C1265 C 0.49534 0.52435 0.29645 0.0
C1266 C 0.4731 0.54626 0.25632 0.0
C1267 C 0.47649 0.48427 0.26419 0.0
C1268 C 0.49869 0.46271 0.2532 0.0
C1269 C 0.48905 0.43106 0.24538 0.0
C1270 C 0.45557 0.42173 0.24804 0.0
C1271 C 0.43225 0.44426 0.258 0.0
C1272 C 0.44307 0.47544 0.26673 0.0
H1273 H 0.50647 0.42344 0.7771 0.0
H1274 H 0.56299 0.43552 0.71059 0.0
H1275 H 0.53246 0.48781 0.70205 0.0
H1276 H 0.4277 0.45925 0.75561 0.0
H1277 H 0.41967 0.47915 0.78435 0.0
H1278 H 0.44289 0.44075 0.78331 0.0
H1279 H 0.49147 0.46881 0.80648 0.0
H1280 H 0.46844 0.50719 0.80761 0.0
H1281 H 0.50954 0.5065 0.79454 0.0
H1282 H 0.49866 0.54216 0.70309 0.0
H1283 H 0.46732 0.59301 0.7144 0.0
H1284 H 0.43459 0.54481 0.78062 0.0
C1285 C 0.51217 0.43671 0.76049 0.0
C1286 C 0.53671 0.42483 0.74427 0.0
C1287 C 0.54358 0.44335 0.72293 0.0
C1288 C 0.52648 0.47328 0.71802 0.0
C1289 C 0.5026 0.48435 0.7346 0.0
C1290 C 0.49552 0.46647 0.75541 0.0
C1291 C 0.47087 0.48461 0.77141 0.0
C1292 C 0.43835 0.46475 0.7738 0.0
C1293 C 0.486 0.49223 0.79648 0.0
C1294 C 0.46571 0.51602 0.75674 0.0
C1295 C 0.48375 0.51537 0.73537 0.0
C1296 C 0.48401 0.5426 0.71957 0.0
C1297 C 0.46587 0.57131 0.72602 0.0
C1298 C 0.44792 0.57258 0.74814 0.0
C1299 C 0.44766 0.54436 0.76342 0.0
H1300 H 0.91936 0.51995 0.54206 0.0
H1301 H 0.9108 0.54551 0.46575 0.0
H1302 H 0.96653 0.52142 0.45835 0.0
H1303 H 0.00701 0.53533 0.54871 0.0
H1304 H 0.0129 0.50048 0.56892 0.0
H1305 H 0.97341 0.52163 0.56795 0.0
H1306 H 0.94412 0.46553 0.55877 0.0
H1307 H 0.98356 0.44426 0.55942 0.0
H1308 H 0.95729 0.4412 0.533 0.0
H1309 H 0.02401 0.49296 0.45974 0.0
H1310 H 0.07699 0.4649 0.46995 0.0
H1311 H 0.04459 0.4553 0.54475 0.0
C1312 C 0.92919 0.52083 0.52376 0.0
C1313 C 0.91081 0.53534 0.50461 0.0
C1314 C 0.92467 0.53564 0.48094 0.0
C1315 C 0.95622 0.52157 0.4765 0.0
C1316 C 0.97341 0.50709 0.49586 0.0
C1317 C 0.96026 0.50677 0.51903 0.0
C1318 C 0.98295 0.48913 0.53675 0.0
C1319 C 0.99477 0.51308 0.55676 0.0
C1320 C 0.96596 0.4582 0.54761 0.0
C1321 C 0.0111 0.47949 0.52001 0.0
C1322 C 0.00533 0.48998 0.49648 0.0
C1323 C 0.02851 0.48431 0.47807 0.0
C1324 C 0.0584 0.46787 0.48397 0.0
C1325 C 0.06467 0.45701 0.50804 0.0
C1326 C 0.04048 0.46293 0.52612 0.0
H1327 H 0.56624 0.03675 0.4691 0.0
H1328 H 0.52613 0.0943 0.52887 0.0
H1329 H 0.49078 0.04666 0.54063 0.0
H1330 H 0.49246 0.00378 0.45094 0.0
H1331 H 0.50839 0.96348 0.44235 0.0
H1332 H 0.53526 0.99919 0.44172 0.0
H1333 H 0.57683 0.96937 0.47044 0.0
H1334 H 0.55021 0.93328 0.47095 0.0
H1335 H 0.56236 0.95288 0.499 0.0
H1336 H 0.45389 0.99522 0.54209 0.0
H1337 H 0.41978 0.94529 0.53304 0.0
H1338 H 0.48366 0.92297 0.47174 0.0
C1339 C 0.55084 0.03888 0.48517 0.0
C1340 C 0.54971 0.0688 0.49851 0.0
C1341 C 0.5285 0.07114 0.51898 0.0
C1342 C 0.50806 0.04427 0.52566 0.0
C1343 C 0.50919 0.01531 0.5117 0.0
C1344 C 0.53033 0.01244 0.49198 0.0
C1345 C 0.52457 0.98034 0.47833 0.0
C1346 C 0.51456 0.98713 0.45178 0.0
C1347 C 0.55532 0.95762 0.47978 0.0
C1348 C 0.49594 0.96619 0.49277 0.0
C1349 C 0.48768 0.98628 0.51222 0.0
C1350 C 0.46059 0.97898 0.52719 0.0
C1351 C 0.44141 0.95058 0.52198 0.0
C1352 C 0.4493 0.93018 0.50185 0.0
C1353 C 0.47711 0.93804 0.48733 0.0
H1354 H 0.92014 0.99051 0.72393 0.0
H1355 H 0.9301 0.93315 0.79022 0.0
H1356 H 0.97909 0.96722 0.80175 0.0
H1357 H 0.00282 0.99433 0.71005 0.0
H1358 H 0.00188 0.036 0.69784 0.0
H1359 H 0.96501 0.01083 0.69714 0.0
H1360 H 0.93259 0.05676 0.72033 0.0
H1361 H 0.9695 0.08217 0.72109 0.0
H1362 H 0.9483 0.07183 0.74893 0.0
H1363 H 0.03198 0.00231 0.80247 0.0
H1364 H 0.08263 0.03438 0.7925 0.0
H1365 H 0.03604 0.06932 0.72625 0.0
C1366 C 0.9322 0.98554 0.74114 0.0
C1367 C 0.92129 0.95942 0.7563 0.0
C1368 C 0.93778 0.95348 0.77857 0.0
C1369 C 0.96561 0.97267 0.78521 0.0
C1370 C 0.97617 0.99788 0.7695 0.0
C1371 C 0.95962 0.00449 0.74803 0.0
C1372 C 0.97717 0.03078 0.73317 0.0
C1373 C 0.98732 0.01715 0.70809 0.0
C1374 C 0.9556 0.06225 0.73075 0.0
C1375 C 0.0071 0.03703 0.74906 0.0
C1376 C 0.006 0.01829 0.77013 0.0
C1377 C 0.03262 0.01781 0.78639 0.0
C1378 C 0.06122 0.03639 0.78069 0.0
C1379 C 0.06289 0.0551 0.75891 0.0
C1380 C 0.03517 0.0558 0.74327 0.0
H1381 H 0.96631 0.06489 0.28796 0.0
H1382 H 0.93779 0.06885 0.2119 0.0
H1383 H 0.96488 0.01472 0.20525 0.0
H1384 H 0.04752 0.03355 0.27655 0.0
H1385 H 0.04844 0.00855 0.30374 0.0
H1386 H 0.02403 0.04616 0.30288 0.0
H1387 H 0.97133 0.01291 0.31509 0.0
H1388 H 0.99563 0.97526 0.31625 0.0
H1389 H 0.95913 0.97727 0.29732 0.0
H1390 H 0.9951 0.95807 0.20766 0.0
H1391 H 0.02623 0.90734 0.21851 0.0
H1392 H 0.0412 0.94627 0.29123 0.0
C1393 C 0.96532 0.05452 0.26983 0.0
C1394 C 0.94869 0.07121 0.25072 0.0
C1395 C 0.94878 0.05647 0.22729 0.0
C1396 C 0.96469 0.02571 0.22319 0.0
C1397 C 0.98106 0.01033 0.24251 0.0
C1398 C 0.98167 0.02455 0.2653 0.0
C1399 C 0.00224 0.00432 0.28289 0.0
C1400 C 0.03234 0.02434 0.29204 0.0
C1401 C 0.98079 0.99169 0.30413 0.0
C1402 C 0.01295 0.97615 0.26653 0.0
C1403 C 0.00039 0.97972 0.24335 0.0
C1404 C 0.00569 0.95547 0.22563 0.0
C1405 C 0.024 0.9268 0.2319 0.0
C1406 C 0.03741 0.92296 0.25558 0.0
C1407 C 0.03185 0.94836 0.27286 0.0
H1408 H 0.28292 0.26751 0.1884 0.0
H1409 H 0.33798 0.34927 0.15658 0.0
H1410 H 0.34941 0.31479 0.12014 0.0
H1411 H 0.33334 0.19844 0.16291 0.0
H1412 H 0.29711 0.17291 0.15805 0.0
H1413 H 0.29789 0.20228 0.18278 0.0
H1414 H 0.2436 0.22932 0.16665 0.0
H1415 H 0.24274 0.20024 0.14184 0.0
H1416 H 0.24213 0.24438 0.13583 0.0
H1417 H 0.34842 0.27348 0.08517 0.0
H1418 H 0.3359 0.22903 0.05529 0.0
H1419 H 0.28121 0.17486 0.11031 0.0
C1420 C 0.29798 0.27785 0.17394 0.0
C1421 C 0.3098 0.31086 0.17523 0.0
C1422 C 0.32919 0.32379 0.156 0.0
C1423 C 0.33566 0.30443 0.13525 0.0
C1424 C 0.32269 0.2722 0.13421 0.0
C1425 C 0.30447 0.25897 0.15319 0.0
C1426 C 0.29086 0.22491 0.14695 0.0
C1427 C 0.3057 0.19805 0.16367 0.0
C1428 C 0.25258 0.22472 0.14787 0.0
C1429 C 0.30349 0.22129 0.12124 0.0
C1430 C 0.32209 0.24862 0.11422 0.0
C1431 C 0.33446 0.2517 0.09065 0.0
C1432 C 0.32737 0.22636 0.07384 0.0
C1433 C 0.30804 0.1985 0.08072 0.0
C1434 C 0.29639 0.19581 0.10477 0.0
H1435 H 0.27574 0.69361 0.82809 0.0
H1436 H 0.36565 0.73251 0.86062 0.0
H1437 H 0.33837 0.7329 0.90088 0.0
H1438 H 0.22057 0.74207 0.86049 0.0
H1439 H 0.1888 0.71087 0.86435 0.0
H1440 H 0.21663 0.70866 0.83882 0.0
H1441 H 0.23412 0.64889 0.85124 0.0
H1442 H 0.20601 0.65075 0.87672 0.0
H1443 H 0.24935 0.64125 0.88153 0.0
H1444 H 0.29927 0.73723 0.9358 0.0
H1445 H 0.25166 0.74109 0.96418 0.0
H1446 H 0.18718 0.69745 0.90988 0.0
C1447 C 0.28986 0.70103 0.84392 0.0
C1448 C 0.32279 0.71262 0.84158 0.0
C1449 C 0.34049 0.72316 0.86235 0.0
C1450 C 0.32519 0.72351 0.88519 0.0
C1451 C 0.29229 0.71293 0.88691 0.0
C1452 C 0.27492 0.70139 0.86694 0.0
C1453 C 0.23908 0.69378 0.87348 0.0
C1454 C 0.21486 0.71512 0.85839 0.0
C1455 C 0.23171 0.65644 0.87057 0.0
C1456 C 0.23875 0.70395 0.89998 0.0
C1457 C 0.26977 0.71479 0.90737 0.0
C1458 C 0.27506 0.7281 0.93042 0.0
C1459 C 0.24796 0.73037 0.94634 0.0
C1460 C 0.21614 0.71921 0.93917 0.0
C1461 C 0.21155 0.70549 0.91584 0.0
H1462 H 0.73691 0.76978 0.06821 0.0
H1463 H 0.69288 0.85737 0.10124 0.0
H1464 H 0.68286 0.82543 0.13896 0.0
H1465 H 0.68423 0.70765 0.09671 0.0
H1466 H 0.71781 0.67839 0.10084 0.0
H1467 H 0.71882 0.70739 0.07587 0.0
H1468 H 0.77633 0.72881 0.09023 0.0
H1469 H 0.7755 0.6999 0.11523 0.0
H1470 H 0.78101 0.74376 0.12089 0.0
H1471 H 0.67997 0.78432 0.17378 0.0
H1472 H 0.6858 0.73772 0.20311 0.0
H1473 H 0.73412 0.67814 0.14786 0.0
C1474 C 0.72512 0.78222 0.08337 0.0
C1475 C 0.71546 0.81599 0.08177 0.0
C1476 C 0.69989 0.83134 0.10193 0.0
C1477 C 0.69429 0.81345 0.12347 0.0
C1478 C 0.70457 0.78029 0.12456 0.0
C1479 C 0.71974 0.76486 0.10505 0.0
C1480 C 0.73002 0.72955 0.11126 0.0
C1481 C 0.71161 0.70426 0.09521 0.0
C1482 C 0.76797 0.72527 0.10929 0.0
C1483 C 0.71848 0.72755 0.13737 0.0
C1484 C 0.7036 0.75696 0.14468 0.0
C1485 C 0.69142 0.76114 0.1682 0.0
C1486 C 0.69472 0.73463 0.18469 0.0
C1487 C 0.71024 0.70458 0.17756 0.0
C1488 C 0.72211 0.70097 0.15362 0.0
H1489 H 0.67687 0.27092 0.84546 0.0
H1490 H 0.72983 0.3282 0.79115 0.0
H1491 H 0.77402 0.34055 0.82104 0.0
H1492 H 0.70099 0.3186 0.89947 0.0
H1493 H 0.70638 0.28173 0.91776 0.0
H1494 H 0.67648 0.28197 0.89338 0.0
H1495 H 0.70474 0.22992 0.8746 0.0
H1496 H 0.73467 0.22952 0.89889 0.0
H1497 H 0.74859 0.23106 0.8678 0.0
H1498 H 0.81401 0.34376 0.85624 0.0
H1499 H 0.84902 0.33334 0.89249 0.0
H1500 H 0.77253 0.2693 0.92224 0.0
C1501 C 0.69763 0.28638 0.84001 0.0
C1502 C 0.69966 0.29932 0.81624 0.0
C1503 C 0.72727 0.31911 0.80956 0.0
C1504 C 0.75258 0.32601 0.82636 0.0
C1505 C 0.75006 0.31248 0.84961 0.0
C1506 C 0.72343 0.29277 0.85635 0.0
C1507 C 0.72833 0.27825 0.88148 0.0
C1508 C 0.70144 0.2909 0.89906 0.0
C1509 C 0.72914 0.23992 0.88063 0.0
C1510 C 0.7621 0.29244 0.88771 0.0
C1511 C 0.77393 0.31268 0.86931 0.0
C1512 C 0.80493 0.32809 0.87078 0.0
C1513 C 0.82457 0.32215 0.8914 0.0
C1514 C 0.81332 0.30055 0.90994 0.0
C1515 C 0.78158 0.28588 0.9082 0.0
H1516 H 0.76133 0.67036 0.60577 0.0
H1517 H 0.83837 0.71025 0.55919 0.0
H1518 H 0.85335 0.75112 0.59105 0.0
H1519 H 0.73239 0.74634 0.62526 0.0
H1520 H 0.72247 0.7336 0.6558 0.0
H1521 H 0.72234 0.70347 0.63166 0.0
H1522 H 0.76463 0.66694 0.65525 0.0
H1523 H 0.76469 0.69686 0.67964 0.0
H1524 H 0.80326 0.68495 0.66537 0.0
H1525 H 0.8545 0.79229 0.62561 0.0
H1526 H 0.84145 0.83053 0.6595 0.0
H1527 H 0.76253 0.76455 0.683 0.0
C1528 C 0.78194 0.68718 0.60263 0.0
C1529 C 0.79897 0.68713 0.58025 0.0
C1530 C 0.82547 0.70965 0.57645 0.0
C1531 C 0.83402 0.73295 0.5944 0.0
C1532 C 0.81583 0.73324 0.61599 0.0
C1533 C 0.79042 0.71078 0.6202 0.0
C1534 C 0.7722 0.71853 0.64358 0.0
C1535 C 0.73517 0.72593 0.63878 0.0
C1536 C 0.77647 0.69013 0.66206 0.0
C1537 C 0.7906 0.74949 0.65154 0.0
C1538 C 0.81603 0.7573 0.63563 0.0
C1539 C 0.83506 0.78606 0.63842 0.0
C1540 C 0.82758 0.80757 0.65776 0.0
C1541 C 0.80111 0.80035 0.67385 0.0
C1542 C 0.78288 0.77063 0.67092 0.0
H1543 H 0.8174 0.24412 0.34172 0.0
H1544 H 0.76873 0.17597 0.29225 0.0
H1545 H 0.72455 0.16592 0.32274 0.0
H1546 H 0.7979 0.20007 0.3978 0.0
H1547 H 0.79076 0.23778 0.41477 0.0
H1548 H 0.8196 0.23776 0.38972 0.0
H1549 H 0.78709 0.28634 0.36968 0.0
H1550 H 0.75813 0.28647 0.39463 0.0
H1551 H 0.74318 0.28178 0.36398 0.0
H1552 H 0.6846 0.16537 0.35779 0.0
H1553 H 0.65101 0.17493 0.39471 0.0
H1554 H 0.72528 0.24406 0.42129 0.0
C1555 C 0.79747 0.22698 0.33744 0.0
C1556 C 0.79638 0.21057 0.31482 0.0
C1557 C 0.77007 0.18835 0.30969 0.0
C1558 C 0.7449 0.18262 0.32682 0.0
C1559 C 0.74647 0.19943 0.34893 0.0
C1560 C 0.77205 0.22119 0.35429 0.0
C1561 C 0.76716 0.23713 0.37895 0.0
C1562 C 0.79554 0.2276 0.39634 0.0
C1563 C 0.76368 0.27518 0.37666 0.0
C1564 C 0.73466 0.22119 0.38654 0.0
C1565 C 0.72327 0.19936 0.36903 0.0
C1566 C 0.69341 0.18218 0.37171 0.0
C1567 C 0.67461 0.1876 0.39278 0.0
C1568 C 0.68569 0.21006 0.41083 0.0
C1569 C 0.71619 0.22688 0.40769 0.0
H1570 H 0.2345 0.23242 0.68719 0.0
H1571 H 0.16577 0.15717 0.66153 0.0
H1572 H 0.15388 0.19129 0.62521 0.0
H1573 H 0.1889 0.30495 0.66508 0.0
H1574 H 0.22604 0.32702 0.65634 0.0
H1575 H 0.22729 0.29781 0.68119 0.0
H1576 H 0.27511 0.2656 0.66003 0.0
H1577 H 0.27408 0.29475 0.63519 0.0
H1578 H 0.2694 0.25082 0.62941 0.0
H1579 H 0.15221 0.23192 0.59039 0.0
H1580 H 0.16161 0.27583 0.5595 0.0
H1581 H 0.23137 0.32457 0.60767 0.0
C1582 C 0.21689 0.22323 0.67394 0.0
C1583 C 0.20081 0.19231 0.67723 0.0
C1584 C 0.17784 0.1811 0.65958 0.0
C1585 C 0.17106 0.20023 0.63883 0.0
C1586 C 0.18747 0.23054 0.63603 0.0
C1587 C 0.20992 0.24199 0.65309 0.0
C1588 C 0.2253 0.27469 0.64522 0.0
C1589 C 0.21634 0.30278 0.66302 0.0
C1590 C 0.26322 0.27124 0.64228 0.0
C1591 C 0.20833 0.27961 0.62093 0.0
C1592 C 0.18645 0.25397 0.61601 0.0
C1593 C 0.16894 0.25236 0.59418 0.0
C1594 C 0.17424 0.27744 0.57683 0.0
C1595 C 0.19678 0.30366 0.58146 0.0
C1596 C 0.21373 0.30488 0.60388 0.0
H1597 H 0.25912 0.80451 0.43853 0.0
H1598 H 0.34864 0.77424 0.40077 0.0
H1599 H 0.3192 0.77867 0.36143 0.0
H1600 H 0.20429 0.75784 0.40337 0.0
H1601 H 0.17099 0.78796 0.40343 0.0
H1602 H 0.20027 0.78699 0.42809 0.0
H1603 H 0.21391 0.84929 0.42073 0.0
H1604 H 0.18469 0.85038 0.39591 0.0
H1605 H 0.22727 0.86271 0.39105 0.0
H1606 H 0.27907 0.78032 0.32717 0.0
H1607 H 0.23 0.77698 0.30015 0.0
H1608 H 0.16603 0.80616 0.35968 0.0
C1609 C 0.27251 0.79957 0.42185 0.0
C1610 C 0.30603 0.78934 0.42235 0.0
C1611 C 0.32291 0.78229 0.40046 0.0
C1612 C 0.30647 0.78491 0.37813 0.0
C1613 C 0.27319 0.79468 0.37812 0.0
C1614 C 0.25633 0.80189 0.39939 0.0
C1615 C 0.21988 0.80879 0.39448 0.0
C1616 C 0.19756 0.78391 0.40815 0.0
C1617 C 0.21092 0.84495 0.40093 0.0
C1618 C 0.21866 0.8032 0.3673 0.0
C1619 C 0.24984 0.79563 0.35818 0.0
C1620 C 0.25467 0.7869 0.33395 0.0
C1621 C 0.22682 0.78514 0.31875 0.0
C1622 C 0.19474 0.79208 0.32789 0.0
C1623 C 0.19061 0.80178 0.35227 0.0
loop_
_geom_bond_atom_site_label_1
_geom_bond_atom_site_label_2
_geom_bond_distance
_geom_bond_site_symmetry_2
_ccdc_geom_bond_type
Co0 O3 1.970 1_554 S
Co0 N17 1.989 . S
Co0 O25 1.967 . S
Co0 O32 1.920 . S
Co1 O4 1.966 1_554 S
Co1 N10 2.022 . S
Co1 N18 1.993 . S
Co1 O26 1.941 . S
C2 O3 1.258 . S
C2 O4 1.263 . S
O3 Co0 1.970 1_556 S
O3 C2 1.258 . S
O4 Co1 1.966 1_556 S
O4 C2 1.263 . S
C5 O6 1.228 1_554 S
C5 O32 1.296 . S
O6 C5 1.228 1_556 S
C7 C9 1.400 . S
C7 N10 1.351 . S
C7 C12 1.501 1_554 S
C8 C9 1.387 . S
C8 N11 1.341 . S
C9 C7 1.400 . S
C9 C8 1.387 . S
N10 Co1 2.022 . S
N10 C7 1.351 . S
N10 N11 1.365 . S
N11 C8 1.341 . S
N11 N10 1.365 . S
N11 H31 0.862 . S
C12 C7 1.501 1_556 S
C12 H13 0.961 . S
C12 H14 0.961 . S
C12 H15 0.960 . S
H13 C12 0.961 . S
H14 C12 0.961 . S
H15 C12 0.960 . S
C16 N17 1.342 . S
C16 C20 1.401 . S
C16 C21 1.499 . S
N17 Co0 1.989 . S
N17 C16 1.342 . S
N17 N18 1.388 . S
N18 Co1 1.993 . S
N18 N17 1.388 . S
N18 C19 1.346 . S
C19 N18 1.346 . S
C19 C20 1.396 . S
C19 C29 1.510 . S
C20 C16 1.401 . S
C20 C19 1.396 . S
C21 C16 1.499 . S
C21 H22 0.959 . S
C21 H23 0.960 . S
C21 H24 0.961 . S
H22 C21 0.959 . S
H23 C21 0.960 . S
H24 C21 0.961 . S
O25 Co0 1.967 . S
O25 C33 1.258 . S
O26 Co1 1.941 . S
O26 C33 1.266 . S
H27 C29 0.959 . S
H28 C29 0.961 . S
C29 C19 1.510 . S
C29 H27 0.959 . S
C29 H28 0.961 . S
C29 H30 0.960 . S
H30 C29 0.960 . S
H31 N11 0.862 . S
O32 Co0 1.920 . S
O32 C5 1.296 . S
C33 O25 1.258 . S
C33 O26 1.266 . S
Co34 O37 1.970 1_556 S
Co34 N51 1.989 . S
Co34 O59 1.967 . S
Co34 O66 1.920 . S
Co35 O38 1.966 1_556 S
Co35 N44 2.022 . S
Co35 N52 1.993 . S
Co35 O60 1.941 . S
C36 O37 1.258 . S
C36 O38 1.263 . S
O37 Co34 1.970 1_554 S
O37 C36 1.258 . S
O38 Co35 1.966 1_554 S
O38 C36 1.263 . S
C39 O40 1.228 1_556 S
C39 O66 1.296 . S
O40 C39 1.228 1_554 S
C41 C43 1.400 . S
C41 N44 1.351 . S
C41 C46 1.501 1_556 S
C42 C43 1.387 . S
C42 N45 1.341 . S
C43 C41 1.400 . S
C43 C42 1.387 . S
N44 Co35 2.022 . S
N44 C41 1.351 . S
N44 N45 1.365 . S
N45 C42 1.341 . S
N45 N44 1.365 . S
N45 H65 0.862 . S
C46 C41 1.501 1_554 S
C46 H47 0.961 . S
C46 H48 0.961 . S
C46 H49 0.960 . S
H47 C46 0.961 . S
H48 C46 0.961 . S
H49 C46 0.960 . S
C50 N51 1.342 . S
C50 C54 1.401 . S
C50 C55 1.499 . S
N51 Co34 1.989 . S
N51 C50 1.342 . S
N51 N52 1.388 . S
N52 Co35 1.993 . S
N52 N51 1.388 . S
N52 C53 1.346 . S
C53 N52 1.346 . S
C53 C54 1.396 . S
C53 C63 1.510 . S
C54 C50 1.401 . S
C54 C53 1.396 . S
C55 C50 1.499 . S
C55 H56 0.959 . S
C55 H57 0.960 . S
C55 H58 0.961 . S
H56 C55 0.959 . S
H57 C55 0.960 . S
H58 C55 0.961 . S
O59 Co34 1.967 . S
O59 C67 1.258 . S
O60 Co35 1.941 . S
O60 C67 1.266 . S
H61 C63 0.959 . S
H62 C63 0.961 . S
C63 C53 1.510 . S
C63 H61 0.959 . S
C63 H62 0.961 . S
C63 H64 0.960 . S
H64 C63 0.960 . S
H65 N45 0.862 . S
O66 Co34 1.920 . S
O66 C39 1.296 . S
C67 O59 1.258 . S
C67 O60 1.266 . S
Co68 O71 1.970 1_554 S
Co68 N85 1.989 . S
Co68 O93 1.967 . S
Co68 O100 1.920 . S
Co69 O72 1.966 1_554 S
Co69 N78 2.022 . S
Co69 N86 1.993 . S
Co69 O94 1.941 . S
C70 O71 1.258 . S
C70 O72 1.263 . S
O71 Co68 1.970 1_556 S
O71 C70 1.258 . S
O72 Co69 1.966 1_556 S
O72 C70 1.263 . S
C73 O74 1.228 1_554 S
C73 O100 1.296 . S
O74 C73 1.228 1_556 S
C75 C77 1.400 . S
C75 N78 1.351 . S
C75 C80 1.501 1_554 S
C76 C77 1.387 . S
C76 N79 1.341 . S
C77 C75 1.400 . S
C77 C76 1.387 . S
N78 Co69 2.022 . S
N78 C75 1.351 . S
N78 N79 1.365 . S
N79 C76 1.341 . S
N79 N78 1.365 . S
N79 H99 0.862 . S
C80 C75 1.501 1_556 S
C80 H81 0.961 . S
C80 H82 0.961 . S
C80 H83 0.960 . S
H81 C80 0.961 . S
H82 C80 0.961 . S
H83 C80 0.960 . S
C84 N85 1.342 . S
C84 C88 1.401 . S
C84 C89 1.499 . S
N85 Co68 1.989 . S
N85 C84 1.342 . S
N85 N86 1.388 . S
N86 Co69 1.993 . S
N86 N85 1.388 . S
N86 C87 1.346 . S
C87 N86 1.346 . S
C87 C88 1.396 . S
C87 C97 1.510 . S
C88 C84 1.401 . S
C88 C87 1.396 . S
C89 C84 1.499 . S
C89 H90 0.959 . S
C89 H91 0.960 . S
C89 H92 0.961 . S
H90 C89 0.959 . S
H91 C89 0.960 . S
H92 C89 0.961 . S
O93 Co68 1.967 . S
O93 C101 1.258 . S
O94 Co69 1.941 . S
O94 C101 1.266 . S
H95 C97 0.959 . S
H96 C97 0.961 . S
C97 C87 1.510 . S
C97 H95 0.959 . S
C97 H96 0.961 . S
C97 H98 0.960 . S
H98 C97 0.960 . S
H99 N79 0.862 . S
O100 Co68 1.920 . S
O100 C73 1.296 . S
C101 O93 1.258 . S
C101 O94 1.266 . S
Co102 O105 1.970 1_556 S
Co102 N119 1.989 . S
Co102 O127 1.967 . S
Co102 O134 1.920 . S
Co103 O106 1.966 1_556 S
Co103 N112 2.022 . S
Co103 N120 1.993 . S
Co103 O128 1.941 . S
C104 O105 1.258 . S
C104 O106 1.263 . S
O105 Co102 1.970 1_554 S
O105 C104 1.258 . S
O106 Co103 1.966 1_554 S
O106 C104 1.263 . S
C107 O108 1.228 1_556 S
C107 O134 1.296 . S
O108 C107 1.228 1_554 S
C109 C111 1.400 . S
C109 N112 1.351 . S
C109 C114 1.501 1_556 S
C110 C111 1.387 . S
C110 N113 1.341 . S
C111 C109 1.400 . S
C111 C110 1.387 . S
N112 Co103 2.022 . S
N112 C109 1.351 . S
N112 N113 1.365 . S
N113 C110 1.341 . S
N113 N112 1.365 . S
N113 H133 0.862 . S
C114 C109 1.501 1_554 S
C114 H115 0.961 . S
C114 H116 0.961 . S
C114 H117 0.960 . S
H115 C114 0.961 . S
H116 C114 0.961 . S
H117 C114 0.960 . S
C118 N119 1.342 . S
C118 C122 1.401 . S
C118 C123 1.499 . S
N119 Co102 1.989 . S
N119 C118 1.342 . S
N119 N120 1.388 . S
N120 Co103 1.993 . S
N120 N119 1.388 . S
N120 C121 1.346 . S
C121 N120 1.346 . S
C121 C122 1.396 . S
C121 C131 1.510 . S
C122 C118 1.401 . S
C122 C121 1.396 . S
C123 C118 1.499 . S
C123 H124 0.959 . S
C123 H125 0.960 . S
C123 H126 0.961 . S
H124 C123 0.959 . S
H125 C123 0.960 . S
H126 C123 0.961 . S
O127 Co102 1.967 . S
O127 C135 1.258 . S
O128 Co103 1.941 . S
O128 C135 1.266 . S
H129 C131 0.959 . S
H130 C131 0.961 . S
C131 C121 1.510 . S
C131 H129 0.959 . S
C131 H130 0.961 . S
C131 H132 0.960 . S
H132 C131 0.960 . S
H133 N113 0.862 . S
O134 Co102 1.920 . S
O134 C107 1.296 . S
C135 O127 1.258 . S
C135 O128 1.266 . S
Co136 O139 1.970 . S
Co136 N153 1.989 . S
Co136 O161 1.967 . S
Co136 O168 1.920 . S
Co137 O140 1.966 . S
Co137 N146 2.022 . S
Co137 N154 1.993 . S
Co137 O162 1.941 . S
C138 O139 1.258 . S
C138 O140 1.263 . S
O139 Co136 1.970 . S
O139 C138 1.258 . S
O140 Co137 1.966 . S
O140 C138 1.263 . S
C141 O142 1.235 . S
C141 O168 1.289 . S
O142 C141 1.235 . S
C143 C145 1.400 . S
C143 N146 1.351 . S
C143 C148 1.501 . S
C144 C145 1.387 . S
C144 N147 1.341 . S
C145 C143 1.400 . S
C145 C144 1.387 . S
N146 Co137 2.022 . S
N146 C143 1.351 . S
N146 N147 1.365 . S
N147 C144 1.341 . S
N147 N146 1.365 . S
N147 H167 0.862 . S
C148 C143 1.501 . S
C148 H149 0.961 . S
C148 H150 0.961 . S
C148 H151 0.960 . S
H149 C148 0.961 . S
H150 C148 0.961 . S
H151 C148 0.960 . S
C152 N153 1.342 . S
C152 C156 1.401 . S
C152 C157 1.499 . S
N153 Co136 1.989 . S
N153 C152 1.342 . S
N153 N154 1.388 . S
N154 Co137 1.993 . S
N154 N153 1.388 . S
N154 C155 1.346 . S
C155 N154 1.346 . S
C155 C156 1.396 . S
C155 C165 1.510 . S
C156 C152 1.401 . S
C156 C155 1.396 . S
C157 C152 1.499 . S
C157 H158 0.959 . S
C157 H159 0.960 . S
C157 H160 0.961 . S
H158 C157 0.959 . S
H159 C157 0.960 . S
H160 C157 0.961 . S
O161 Co136 1.967 . S
O161 C169 1.258 . S
O162 Co137 1.941 . S
O162 C169 1.266 . S
H163 C165 0.959 . S
H164 C165 0.961 . S
C165 C155 1.510 . S
C165 H163 0.959 . S
C165 H164 0.961 . S
C165 H166 0.960 . S
H166 C165 0.960 . S
H167 N147 0.862 . S
O168 Co136 1.920 . S
O168 C141 1.289 . S
C169 O161 1.258 . S
C169 O162 1.266 . S
Co170 O173 1.970 . S
Co170 N187 1.989 . S
Co170 O195 1.967 . S
Co170 O202 1.920 . S
Co171 O174 1.966 . S
Co171 N180 2.022 . S
Co171 N188 1.993 . S
Co171 O196 1.941 . S
C172 O173 1.258 . S
C172 O174 1.263 . S
O173 Co170 1.970 . S
O173 C172 1.258 . S
O174 Co171 1.966 . S
O174 C172 1.263 . S
C175 O176 1.235 . S
C175 O202 1.289 . S
O176 C175 1.235 . S
C177 C179 1.400 . S
C177 N180 1.351 . S
C177 C182 1.501 . S
C178 C179 1.387 . S
C178 N181 1.341 . S
C179 C177 1.400 . S
C179 C178 1.387 . S
N180 Co171 2.022 . S
N180 C177 1.351 . S
N180 N181 1.365 . S
N181 C178 1.341 . S
N181 N180 1.365 . S
N181 H201 0.862 . S
C182 C177 1.501 . S
C182 H183 0.961 . S
C182 H184 0.961 . S
C182 H185 0.960 . S
H183 C182 0.961 . S
H184 C182 0.961 . S
H185 C182 0.960 . S
C186 N187 1.342 . S
C186 C190 1.401 . S
C186 C191 1.499 . S
N187 Co170 1.989 . S
N187 C186 1.342 . S
N187 N188 1.388 . S
N188 Co171 1.993 . S
N188 N187 1.388 . S
N188 C189 1.346 . S
C189 N188 1.346 . S
C189 C190 1.396 . S
C189 C199 1.510 . S
C190 C186 1.401 . S
C190 C189 1.396 . S
C191 C186 1.499 . S
C191 H192 0.959 . S
C191 H193 0.960 . S
C191 H194 0.961 . S
H192 C191 0.959 . S
H193 C191 0.960 . S
H194 C191 0.961 . S
O195 Co170 1.967 . S
O195 C203 1.258 . S
O196 Co171 1.941 . S
O196 C203 1.266 . S
H197 C199 0.959 . S
H198 C199 0.961 . S
C199 C189 1.510 . S
C199 H197 0.959 . S
C199 H198 0.961 . S
C199 H200 0.960 . S
H200 C199 0.960 . S
H201 N181 0.862 . S
O202 Co170 1.920 . S
O202 C175 1.289 . S
C203 O195 1.258 . S
C203 O196 1.266 . S
Co204 O207 1.970 . S
Co204 N221 1.989 . S
Co204 O229 1.967 . S
Co204 O236 1.920 . S
Co205 O208 1.966 . S
Co205 N214 2.022 . S
Co205 N222 1.993 . S
Co205 O230 1.941 . S
C206 O207 1.258 . S
C206 O208 1.263 . S
O207 Co204 1.970 . S
O207 C206 1.258 . S
O208 Co205 1.966 . S
O208 C206 1.263 . S
C209 O210 1.235 . S
C209 O236 1.289 . S
O210 C209 1.235 . S
C211 C213 1.400 . S
C211 N214 1.351 . S
C211 C216 1.501 . S
C212 C213 1.387 . S
C212 N215 1.341 . S
C213 C211 1.400 . S
C213 C212 1.387 . S
N214 Co205 2.022 . S
N214 C211 1.351 . S
N214 N215 1.365 . S
N215 C212 1.341 . S
N215 N214 1.365 . S
N215 H235 0.862 . S
C216 C211 1.501 . S
C216 H217 0.961 . S
C216 H218 0.961 . S
C216 H219 0.960 . S
H217 C216 0.961 . S
H218 C216 0.961 . S
H219 C216 0.960 . S
C220 N221 1.342 . S
C220 C224 1.401 . S
C220 C225 1.499 . S
N221 Co204 1.989 . S
N221 C220 1.342 . S
N221 N222 1.388 . S
N222 Co205 1.993 . S
N222 N221 1.388 . S
N222 C223 1.346 . S
C223 N222 1.346 . S
C223 C224 1.396 . S
C223 C233 1.510 . S
C224 C220 1.401 . S
C224 C223 1.396 . S
C225 C220 1.499 . S
C225 H226 0.959 . S
C225 H227 0.960 . S
C225 H228 0.961 . S
H226 C225 0.959 . S
H227 C225 0.960 . S
H228 C225 0.961 . S
O229 Co204 1.967 . S
O229 C237 1.258 . S
O230 Co205 1.941 . S
O230 C237 1.266 . S
H231 C233 0.959 . S
H232 C233 0.961 . S
C233 C223 1.510 . S
C233 H231 0.959 . S
C233 H232 0.961 . S
C233 H234 0.960 . S
H234 C233 0.960 . S
H235 N215 0.862 . S
O236 Co204 1.920 . S
O236 C209 1.289 . S
C237 O229 1.258 . S
C237 O230 1.266 . S
Co238 O241 1.970 . S
Co238 N255 1.989 . S
Co238 O263 1.967 . S
Co238 O270 1.920 . S
Co239 O242 1.966 . S
Co239 N248 2.022 . S
Co239 N256 1.993 . S
Co239 O264 1.941 . S
C240 O241 1.258 . S
C240 O242 1.263 . S
O241 Co238 1.970 . S
O241 C240 1.258 . S
O242 Co239 1.966 . S
O242 C240 1.263 . S
C243 O244 1.235 . S
C243 O270 1.289 . S
O244 C243 1.235 . S
C245 C247 1.400 . S
C245 N248 1.351 . S
C245 C250 1.501 . S
C246 C247 1.387 . S
C246 N249 1.341 . S
C247 C245 1.400 . S
C247 C246 1.387 . S
N248 Co239 2.022 . S
N248 C245 1.351 . S
N248 N249 1.365 . S
N249 C246 1.341 . S
N249 N248 1.365 . S
N249 H269 0.862 . S
C250 C245 1.501 . S
C250 H251 0.961 . S
C250 H252 0.961 . S
C250 H253 0.960 . S
H251 C250 0.961 . S
H252 C250 0.961 . S
H253 C250 0.960 . S
C254 N255 1.342 . S
C254 C258 1.401 . S
C254 C259 1.499 . S
N255 Co238 1.989 . S
N255 C254 1.342 . S
N255 N256 1.388 . S
N256 Co239 1.993 . S
N256 N255 1.388 . S
N256 C257 1.346 . S
C257 N256 1.346 . S
C257 C258 1.396 . S
C257 C267 1.510 . S
C258 C254 1.401 . S
C258 C257 1.396 . S
C259 C254 1.499 . S
C259 H260 0.959 . S
C259 H261 0.960 . S
C259 H262 0.961 . S
H260 C259 0.959 . S
H261 C259 0.960 . S
H262 C259 0.961 . S
O263 Co238 1.967 . S
O263 C271 1.258 . S
O264 Co239 1.941 . S
O264 C271 1.266 . S
H265 C267 0.959 . S
H266 C267 0.961 . S
C267 C257 1.510 . S
C267 H265 0.959 . S
C267 H266 0.961 . S
C267 H268 0.960 . S
H268 C267 0.960 . S
H269 N249 0.862 . S
O270 Co238 1.920 . S
O270 C243 1.289 . S
C271 O263 1.258 . S
C271 O264 1.266 . S
Co272 O275 1.970 . S
Co272 N289 1.989 . S
Co272 O297 1.967 . S
Co272 O304 1.920 . S
Co273 O276 1.966 . S
Co273 N282 2.022 . S
Co273 N290 1.993 . S
Co273 O298 1.941 . S
C274 O275 1.258 . S
C274 O276 1.263 . S
O275 Co272 1.970 . S
O275 C274 1.258 . S
O276 Co273 1.966 . S
O276 C274 1.263 . S
C277 O278 1.235 . S
C277 O304 1.289 . S
O278 C277 1.235 . S
C279 C281 1.400 . S
C279 N282 1.351 . S
C279 C284 1.501 . S
C280 C281 1.387 . S
C280 N283 1.341 . S
C281 C279 1.400 . S
C281 C280 1.387 . S
N282 Co273 2.022 . S
N282 C279 1.351 . S
N282 N283 1.365 . S
N283 C280 1.341 . S
N283 N282 1.365 . S
N283 H303 0.862 . S
C284 C279 1.501 . S
C284 H285 0.961 . S
C284 H286 0.961 . S
C284 H287 0.960 . S
H285 C284 0.961 . S
H286 C284 0.961 . S
H287 C284 0.960 . S
C288 N289 1.342 . S
C288 C292 1.401 . S
C288 C293 1.499 . S
N289 Co272 1.989 . S
N289 C288 1.342 . S
N289 N290 1.388 . S
N290 Co273 1.993 . S
N290 N289 1.388 . S
N290 C291 1.346 . S
C291 N290 1.346 . S
C291 C292 1.396 . S
C291 C301 1.510 . S
C292 C288 1.401 . S
C292 C291 1.396 . S
C293 C288 1.499 . S
C293 H294 0.959 . S
C293 H295 0.960 . S
C293 H296 0.961 . S
H294 C293 0.959 . S
H295 C293 0.960 . S
H296 C293 0.961 . S
O297 Co272 1.967 . S
O297 C305 1.258 . S
O298 Co273 1.941 . S
O298 C305 1.266 . S
H299 C301 0.959 . S
H300 C301 0.961 . S
C301 C291 1.510 . S
C301 H299 0.959 . S
C301 H300 0.961 . S
C301 H302 0.960 . S
H302 C301 0.960 . S
H303 N283 0.862 . S
O304 Co272 1.920 . S
O304 C277 1.289 . S
C305 O297 1.258 . S
C305 O298 1.266 . S
Co306 O309 1.970 . S
Co306 N323 1.989 . S
Co306 O331 1.967 . S
Co306 O338 1.920 . S
Co307 O310 1.966 . S
Co307 N316 2.022 . S
Co307 N324 1.993 . S
Co307 O332 1.941 . S
C308 O309 1.258 . S
C308 O310 1.263 . S
O309 Co306 1.970 . S
O309 C308 1.258 . S
O310 Co307 1.966 . S
O310 C308 1.263 . S
C311 O312 1.235 . S
C311 O338 1.289 . S
O312 C311 1.235 . S
C313 C315 1.400 . S
C313 N316 1.351 . S
C313 C318 1.501 . S
C314 C315 1.387 . S
C314 N317 1.341 . S
C315 C313 1.400 . S
C315 C314 1.387 . S
N316 Co307 2.022 . S
N316 C313 1.351 . S
N316 N317 1.365 . S
N317 C314 1.341 . S
N317 N316 1.365 . S
N317 H337 0.862 . S
C318 C313 1.501 . S
C318 H319 0.961 . S
C318 H320 0.961 . S
C318 H321 0.960 . S
H319 C318 0.961 . S
H320 C318 0.961 . S
H321 C318 0.960 . S
C322 N323 1.342 . S
C322 C326 1.401 . S
C322 C327 1.499 . S
N323 Co306 1.989 . S
N323 C322 1.342 . S
N323 N324 1.388 . S
N324 Co307 1.993 . S
N324 N323 1.388 . S
N324 C325 1.346 . S
C325 N324 1.346 . S
C325 C326 1.396 . S
C325 C335 1.510 . S
C326 C322 1.401 . S
C326 C325 1.396 . S
C327 C322 1.499 . S
C327 H328 0.959 . S
C327 H329 0.960 . S
C327 H330 0.961 . S
H328 C327 0.959 . S
H329 C327 0.960 . S
H330 C327 0.961 . S
O331 Co306 1.967 . S
O331 C339 1.258 . S
O332 Co307 1.941 . S
O332 C339 1.266 . S
H333 C335 0.959 . S
H334 C335 0.961 . S
C335 C325 1.510 . S
C335 H333 0.959 . S
C335 H334 0.961 . S
C335 H336 0.960 . S
H336 C335 0.960 . S
H337 N317 0.862 . S
O338 Co306 1.920 . S
O338 C311 1.289 . S
C339 O331 1.258 . S
C339 O332 1.266 . S
Co340 O343 1.970 . S
Co340 N357 1.989 . S
Co340 O365 1.967 . S
Co340 O372 1.920 . S
Co341 O344 1.966 . S
Co341 N350 2.022 . S
Co341 N358 1.993 . S
Co341 O366 1.941 . S
C342 O343 1.258 . S
C342 O344 1.263 . S
O343 Co340 1.970 . S
O343 C342 1.258 . S
O344 Co341 1.966 . S
O344 C342 1.263 . S
C345 O346 1.235 . S
C345 O372 1.289 . S
O346 C345 1.235 . S
C347 C349 1.400 . S
C347 N350 1.351 . S
C347 C352 1.501 . S
C348 C349 1.387 . S
C348 N351 1.341 . S
C349 C347 1.400 . S
C349 C348 1.387 . S
N350 Co341 2.022 . S
N350 C347 1.351 . S
N350 N351 1.365 . S
N351 C348 1.341 . S
N351 N350 1.365 . S
N351 H371 0.862 . S
C352 C347 1.501 . S
C352 H353 0.961 . S
C352 H354 0.961 . S
C352 H355 0.960 . S
H353 C352 0.961 . S
H354 C352 0.961 . S
H355 C352 0.960 . S
C356 N357 1.342 . S
C356 C360 1.401 . S
C356 C361 1.499 . S
N357 Co340 1.989 . S
N357 C356 1.342 . S
N357 N358 1.388 . S
N358 Co341 1.993 . S
N358 N357 1.388 . S
N358 C359 1.346 . S
C359 N358 1.346 . S
C359 C360 1.396 . S
C359 C369 1.510 . S
C360 C356 1.401 . S
C360 C359 1.396 . S
C361 C356 1.499 . S
C361 H362 0.959 . S
C361 H363 0.960 . S
C361 H364 0.961 . S
H362 C361 0.959 . S
H363 C361 0.960 . S
H364 C361 0.961 . S
O365 Co340 1.967 . S
O365 C373 1.258 . S
O366 Co341 1.941 . S
O366 C373 1.266 . S
H367 C369 0.959 . S
H368 C369 0.961 . S
C369 C359 1.510 . S
C369 H367 0.959 . S
C369 H368 0.961 . S
C369 H370 0.960 . S
H370 C369 0.960 . S
H371 N351 0.862 . S
O372 Co340 1.920 . S
O372 C345 1.289 . S
C373 O365 1.258 . S
C373 O366 1.266 . S
Co374 O377 1.970 . S
Co374 N391 1.989 . S
Co374 O399 1.967 . S
Co374 O406 1.920 . S
Co375 O378 1.966 . S
Co375 N384 2.022 . S
Co375 N392 1.993 . S
Co375 O400 1.941 . S
C376 O377 1.258 . S
C376 O378 1.263 . S
O377 Co374 1.970 . S
O377 C376 1.258 . S
O378 Co375 1.966 . S
O378 C376 1.263 . S
C379 O380 1.235 . S
C379 O406 1.289 . S
O380 C379 1.235 . S
C381 C383 1.400 . S
C381 N384 1.351 . S
C381 C386 1.501 . S
C382 C383 1.387 . S
C382 N385 1.341 . S
C383 C381 1.400 . S
C383 C382 1.387 . S
N384 Co375 2.022 . S
N384 C381 1.351 . S
N384 N385 1.365 . S
N385 C382 1.341 . S
N385 N384 1.365 . S
N385 H405 0.862 . S
C386 C381 1.501 . S
C386 H387 0.961 . S
C386 H388 0.961 . S
C386 H389 0.960 . S
H387 C386 0.961 . S
H388 C386 0.961 . S
H389 C386 0.960 . S
C390 N391 1.342 . S
C390 C394 1.401 . S
C390 C395 1.499 . S
N391 Co374 1.989 . S
N391 C390 1.342 . S
N391 N392 1.388 . S
N392 Co375 1.993 . S
N392 N391 1.388 . S
N392 C393 1.346 . S
C393 N392 1.346 . S
C393 C394 1.396 . S
C393 C403 1.510 . S
C394 C390 1.401 . S
C394 C393 1.396 . S
C395 C390 1.499 . S
C395 H396 0.959 . S
C395 H397 0.960 . S
C395 H398 0.961 . S
H396 C395 0.959 . S
H397 C395 0.960 . S
H398 C395 0.961 . S
O399 Co374 1.967 . S
O399 C407 1.258 . S
O400 Co375 1.941 . S
O400 C407 1.266 . S
H401 C403 0.959 . S
H402 C403 0.961 . S
C403 C393 1.510 . S
C403 H401 0.959 . S
C403 H402 0.961 . S
C403 H404 0.960 . S
H404 C403 0.960 . S
H405 N385 0.862 . S
O406 Co374 1.920 . S
O406 C379 1.289 . S
C407 O399 1.258 . S
C407 O400 1.266 . S
Co408 O411 1.970 . S
Co408 N425 1.989 . S
Co408 O433 1.967 . S
Co408 O440 1.920 . S
Co409 O412 1.966 . S
Co409 N418 2.022 . S
Co409 N426 1.993 . S
Co409 O434 1.941 . S
C410 O411 1.258 . S
C410 O412 1.263 . S
O411 Co408 1.970 . S
O411 C410 1.258 . S
O412 Co409 1.966 . S
O412 C410 1.263 . S
C413 O414 1.235 . S
C413 O440 1.289 . S
O414 C413 1.235 . S
C415 C417 1.400 . S
C415 N418 1.351 . S
C415 C420 1.501 . S
C416 C417 1.387 . S
C416 N419 1.341 . S
C417 C415 1.400 . S
C417 C416 1.387 . S
N418 Co409 2.022 . S
N418 C415 1.351 . S
N418 N419 1.365 . S
N419 C416 1.341 . S
N419 N418 1.365 . S
N419 H439 0.862 . S
C420 C415 1.501 . S
C420 H421 0.961 . S
C420 H422 0.961 . S
C420 H423 0.960 . S
H421 C420 0.961 . S
H422 C420 0.961 . S
H423 C420 0.960 . S
C424 N425 1.342 . S
C424 C428 1.401 . S
C424 C429 1.499 . S
N425 Co408 1.989 . S
N425 C424 1.342 . S
N425 N426 1.388 . S
N426 Co409 1.993 . S
N426 N425 1.388 . S
N426 C427 1.346 . S
C427 N426 1.346 . S
C427 C428 1.396 . S
C427 C437 1.510 . S
C428 C424 1.401 . S
C428 C427 1.396 . S
C429 C424 1.499 . S
C429 H430 0.959 . S
C429 H431 0.960 . S
C429 H432 0.961 . S
H430 C429 0.959 . S
H431 C429 0.960 . S
H432 C429 0.961 . S
O433 Co408 1.967 . S
O433 C441 1.258 . S
O434 Co409 1.941 . S
O434 C441 1.266 . S
H435 C437 0.959 . S
H436 C437 0.961 . S
C437 C427 1.510 . S
C437 H435 0.959 . S
C437 H436 0.961 . S
C437 H438 0.960 . S
H438 C437 0.960 . S
H439 N419 0.862 . S
O440 Co408 1.920 . S
O440 C413 1.289 . S
C441 O433 1.258 . S
C441 O434 1.266 . S
Co442 O445 1.970 . S
Co442 N459 1.989 . S
Co442 O467 1.967 . S
Co442 O474 1.920 . S
Co443 O446 1.966 . S
Co443 N452 2.022 . S
Co443 N460 1.993 . S
Co443 O468 1.941 . S
C444 O445 1.258 . S
C444 O446 1.263 . S
O445 Co442 1.970 . S
O445 C444 1.258 . S
O446 Co443 1.966 . S
O446 C444 1.263 . S
C447 O448 1.235 . S
C447 O474 1.289 . S
O448 C447 1.235 . S
C449 C451 1.400 . S
C449 N452 1.351 . S
C449 C454 1.501 . S
C450 C451 1.387 . S
C450 N453 1.341 . S
C451 C449 1.400 . S
C451 C450 1.387 . S
N452 Co443 2.022 . S
N452 C449 1.351 . S
N452 N453 1.365 . S
N453 C450 1.341 . S
N453 N452 1.365 . S
N453 H473 0.862 . S
C454 C449 1.501 . S
C454 H455 0.961 . S
C454 H456 0.961 . S
C454 H457 0.960 . S
H455 C454 0.961 . S
H456 C454 0.961 . S
H457 C454 0.960 . S
C458 N459 1.342 . S
C458 C462 1.401 . S
C458 C463 1.499 . S
N459 Co442 1.989 . S
N459 C458 1.342 . S
N459 N460 1.388 . S
N460 Co443 1.993 . S
N460 N459 1.388 . S
N460 C461 1.346 . S
C461 N460 1.346 . S
C461 C462 1.396 . S
C461 C471 1.510 . S
C462 C458 1.401 . S
C462 C461 1.396 . S
C463 C458 1.499 . S
C463 H464 0.959 . S
C463 H465 0.960 . S
C463 H466 0.961 . S
H464 C463 0.959 . S
H465 C463 0.960 . S
H466 C463 0.961 . S
O467 Co442 1.967 . S
O467 C475 1.258 . S
O468 Co443 1.941 . S
O468 C475 1.266 . S
H469 C471 0.959 . S
H470 C471 0.961 . S
C471 C461 1.510 . S
C471 H469 0.959 . S
C471 H470 0.961 . S
C471 H472 0.960 . S
H472 C471 0.960 . S
H473 N453 0.862 . S
O474 Co442 1.920 . S
O474 C447 1.289 . S
C475 O467 1.258 . S
C475 O468 1.266 . S
Co476 O479 1.970 . S
Co476 N493 1.989 . S
Co476 O501 1.967 . S
Co476 O508 1.920 . S
Co477 O480 1.966 . S
Co477 N486 2.022 . S
Co477 N494 1.993 . S
Co477 O502 1.941 . S
C478 O479 1.258 . S
C478 O480 1.263 . S
O479 Co476 1.970 . S
O479 C478 1.258 . S
O480 Co477 1.966 . S
O480 C478 1.263 . S
C481 O482 1.235 . S
C481 O508 1.289 . S
O482 C481 1.235 . S
C483 C485 1.400 . S
C483 N486 1.351 . S
C483 C488 1.501 . S
C484 C485 1.387 . S
C484 N487 1.341 . S
C485 C483 1.400 . S
C485 C484 1.387 . S
N486 Co477 2.022 . S
N486 C483 1.351 . S
N486 N487 1.365 . S
N487 C484 1.341 . S
N487 N486 1.365 . S
N487 H507 0.862 . S
C488 C483 1.501 . S
C488 H489 0.961 . S
C488 H490 0.961 . S
C488 H491 0.960 . S
H489 C488 0.961 . S
H490 C488 0.961 . S
H491 C488 0.960 . S
C492 N493 1.342 . S
C492 C496 1.401 . S
C492 C497 1.499 . S
N493 Co476 1.989 . S
N493 C492 1.342 . S
N493 N494 1.388 . S
N494 Co477 1.993 . S
N494 N493 1.388 . S
N494 C495 1.346 . S
C495 N494 1.346 . S
C495 C496 1.396 . S
C495 C505 1.510 . S
C496 C492 1.401 . S
C496 C495 1.396 . S
C497 C492 1.499 . S
C497 H498 0.959 . S
C497 H499 0.960 . S
C497 H500 0.961 . S
H498 C497 0.959 . S
H499 C497 0.960 . S
H500 C497 0.961 . S
O501 Co476 1.967 . S
O501 C509 1.258 . S
O502 Co477 1.941 . S
O502 C509 1.266 . S
H503 C505 0.959 . S
H504 C505 0.961 . S
C505 C495 1.510 . S
C505 H503 0.959 . S
C505 H504 0.961 . S
C505 H506 0.960 . S
H506 C505 0.960 . S
H507 N487 0.862 . S
O508 Co476 1.920 . S
O508 C481 1.289 . S
C509 O501 1.258 . S
C509 O502 1.266 . S
Co510 O513 1.970 . S
Co510 N527 1.989 . S
Co510 O535 1.967 . S
Co510 O542 1.920 . S
Co511 O514 1.966 . S
Co511 N520 2.022 . S
Co511 N528 1.993 . S
Co511 O536 1.941 . S
C512 O513 1.258 . S
C512 O514 1.263 . S
O513 Co510 1.970 . S
O513 C512 1.258 . S
O514 Co511 1.966 . S
O514 C512 1.263 . S
C515 O516 1.235 . S
C515 O542 1.289 . S
O516 C515 1.235 . S
C517 C519 1.400 . S
C517 N520 1.351 . S
C517 C522 1.501 . S
C518 C519 1.387 . S
C518 N521 1.341 . S
C519 C517 1.400 . S
C519 C518 1.387 . S
N520 Co511 2.022 . S
N520 C517 1.351 . S
N520 N521 1.365 . S
N521 C518 1.341 . S
N521 N520 1.365 . S
N521 H541 0.862 . S
C522 C517 1.501 . S
C522 H523 0.961 . S
C522 H524 0.961 . S
C522 H525 0.960 . S
H523 C522 0.961 . S
H524 C522 0.961 . S
H525 C522 0.960 . S
C526 N527 1.342 . S
C526 C530 1.401 . S
C526 C531 1.499 . S
N527 Co510 1.989 . S
N527 C526 1.342 . S
N527 N528 1.388 . S
N528 Co511 1.993 . S
N528 N527 1.388 . S
N528 C529 1.346 . S
C529 N528 1.346 . S
C529 C530 1.396 . S
C529 C539 1.510 . S
C530 C526 1.401 . S
C530 C529 1.396 . S
C531 C526 1.499 . S
C531 H532 0.959 . S
C531 H533 0.960 . S
C531 H534 0.961 . S
H532 C531 0.959 . S
H533 C531 0.960 . S
H534 C531 0.961 . S
O535 Co510 1.967 . S
O535 C543 1.258 . S
O536 Co511 1.941 . S
O536 C543 1.266 . S
H537 C539 0.959 . S
H538 C539 0.961 . S
C539 C529 1.510 . S
C539 H537 0.959 . S
C539 H538 0.961 . S
C539 H540 0.960 . S
H540 C539 0.960 . S
H541 N521 0.862 . S
O542 Co510 1.920 . S
O542 C515 1.289 . S
C543 O535 1.258 . S
C543 O536 1.266 . S
H544 C556 0.930 . S
H545 C558 0.930 . S
H546 C559 0.930 . S
H547 C563 0.959 . S
H548 C563 0.959 . S
H549 C563 0.961 . S
H550 C564 0.960 . S
H551 C564 0.961 . S
H552 C564 0.959 . S
H553 C567 0.929 . S
H554 C568 0.931 . S
H555 C570 0.930 . S
C556 H544 0.930 . S
C556 C557 1.399 . S
C556 C561 1.399 . S
C557 C556 1.399 . S
C557 C558 1.376 . S
C558 H545 0.930 . S
C558 C557 1.376 . S
C558 C559 1.388 . S
C559 H546 0.930 . S
C559 C558 1.388 . S
C559 C560 1.390 . S
C560 C559 1.390 . S
C560 C561 1.394 . S
C560 C566 1.465 . S
C561 C556 1.399 . S
C561 C560 1.394 . S
C561 C562 1.516 . S
C562 C561 1.516 . S
C562 C563 1.502 . S
C562 C564 1.561 . S
C562 C565 1.526 . S
C563 H547 0.959 . S
C563 H548 0.959 . S
C563 H549 0.961 . S
C563 C562 1.502 . S
C564 H550 0.960 . S
C564 H551 0.961 . S
C564 H552 0.959 . S
C564 C562 1.561 . S
C565 C562 1.526 . S
C565 C566 1.396 . S
C565 C570 1.390 . S
C566 C560 1.465 . S
C566 C565 1.396 . S
C566 C567 1.399 . S
C567 H553 0.929 . S
C567 C566 1.399 . S
C567 C568 1.385 . S
C568 H554 0.931 . S
C568 C567 1.385 . S
C568 C569 1.389 . S
C569 C568 1.389 . S
C569 C570 1.387 . S
C570 H555 0.930 . S
C570 C565 1.390 . S
C570 C569 1.387 . S
H571 C583 0.930 . S
H572 C585 0.930 . S
H573 C586 0.930 . S
H574 C590 0.959 . S
H575 C590 0.959 . S
H576 C590 0.961 . S
H577 C591 0.960 . S
H578 C591 0.961 . S
H579 C591 0.959 . S
H580 C594 0.929 . S
H581 C595 0.931 . S
H582 C597 0.930 . S
C583 H571 0.930 . S
C583 C584 1.399 . S
C583 C588 1.399 . S
C584 C583 1.399 . S
C584 C585 1.376 . S
C585 H572 0.930 . S
C585 C584 1.376 . S
C585 C586 1.388 . S
C586 H573 0.930 . S
C586 C585 1.388 . S
C586 C587 1.390 . S
C587 C586 1.390 . S
C587 C588 1.394 . S
C587 C593 1.465 . S
C588 C583 1.399 . S
C588 C587 1.394 . S
C588 C589 1.516 . S
C589 C588 1.516 . S
C589 C590 1.502 . S
C589 C591 1.561 . S
C589 C592 1.526 . S
C590 H574 0.959 . S
C590 H575 0.959 . S
C590 H576 0.961 . S
C590 C589 1.502 . S
C591 H577 0.960 . S
C591 H578 0.961 . S
C591 H579 0.959 . S
C591 C589 1.561 . S
C592 C589 1.526 . S
C592 C593 1.396 . S
C592 C597 1.390 . S
C593 C587 1.465 . S
C593 C592 1.396 . S
C593 C594 1.399 . S
C594 H580 0.929 . S
C594 C593 1.399 . S
C594 C595 1.385 . S
C595 H581 0.931 . S
C595 C594 1.385 . S
C595 C596 1.389 . S
C596 C595 1.389 . S
C596 C597 1.387 . S
C597 H582 0.930 . S
C597 C592 1.390 . S
C597 C596 1.387 . S
H598 C610 0.930 . S
H599 C612 0.930 . S
H600 C613 0.930 . S
H601 C617 0.959 . S
H602 C617 0.959 . S
H603 C617 0.961 . S
H604 C618 0.960 . S
H605 C618 0.961 . S
H606 C618 0.959 . S
H607 C621 0.929 . S
H608 C622 0.931 . S
H609 C624 0.930 . S
C610 H598 0.930 . S
C610 C611 1.399 . S
C610 C615 1.399 . S
C611 C610 1.399 . S
C611 C612 1.376 . S
C612 H599 0.930 . S
C612 C611 1.376 . S
C612 C613 1.388 . S
C613 H600 0.930 . S
C613 C612 1.388 . S
C613 C614 1.390 . S
C614 C613 1.390 . S
C614 C615 1.394 . S
C614 C620 1.465 . S
C615 C610 1.399 . S
C615 C614 1.394 . S
C615 C616 1.516 . S
C616 C615 1.516 . S
C616 C617 1.502 . S
C616 C618 1.561 . S
C616 C619 1.526 . S
C617 H601 0.959 . S
C617 H602 0.959 . S
C617 H603 0.961 . S
C617 C616 1.502 . S
C618 H604 0.960 . S
C618 H605 0.961 . S
C618 H606 0.959 . S
C618 C616 1.561 . S
C619 C616 1.526 . S
C619 C620 1.396 . S
C619 C624 1.390 . S
C620 C614 1.465 . S
C620 C619 1.396 . S
C620 C621 1.399 . S
C621 H607 0.929 . S
C621 C620 1.399 . S
C621 C622 1.385 . S
C622 H608 0.931 . S
C622 C621 1.385 . S
C622 C623 1.389 . S
C623 C622 1.389 . S
C623 C624 1.387 . S
C624 H609 0.930 . S
C624 C619 1.390 . S
C624 C623 1.387 . S
H625 C637 0.930 . S
H626 C639 0.930 . S
H627 C640 0.930 . S
H628 C644 0.959 . S
H629 C644 0.959 . S
H630 C644 0.961 . S
H631 C645 0.960 . S
H632 C645 0.961 . S
H633 C645 0.959 . S
H634 C648 0.929 . S
H635 C649 0.931 . S
H636 C651 0.930 . S
C637 H625 0.930 . S
C637 C638 1.399 . S
C637 C642 1.399 . S
C638 C637 1.399 . S
C638 C639 1.376 . S
C639 H626 0.930 . S
C639 C638 1.376 . S
C639 C640 1.388 . S
C640 H627 0.930 . S
C640 C639 1.388 . S
C640 C641 1.390 . S
C641 C640 1.390 . S
C641 C642 1.394 . S
C641 C647 1.465 . S
C642 C637 1.399 . S
C642 C641 1.394 . S
C642 C643 1.516 . S
C643 C642 1.516 . S
C643 C644 1.502 . S
C643 C645 1.561 . S
C643 C646 1.526 . S
C644 H628 0.959 . S
C644 H629 0.959 . S
C644 H630 0.961 . S
C644 C643 1.502 . S
C645 H631 0.960 . S
C645 H632 0.961 . S
C645 H633 0.959 . S
C645 C643 1.561 . S
C646 C643 1.526 . S
C646 C647 1.396 . S
C646 C651 1.390 . S
C647 C641 1.465 . S
C647 C646 1.396 . S
C647 C648 1.399 . S
C648 H634 0.929 . S
C648 C647 1.399 . S
C648 C649 1.385 . S
C649 H635 0.931 . S
C649 C648 1.385 . S
C649 C650 1.389 . S
C650 C649 1.389 . S
C650 C651 1.387 . S
C651 H636 0.930 . S
C651 C646 1.390 . S
C651 C650 1.387 . S
H652 C664 0.930 . S
H653 C666 0.930 . S
H654 C667 0.930 . S
H655 C671 0.959 . S
H656 C671 0.959 . S
H657 C671 0.961 . S
H658 C672 0.960 . S
H659 C672 0.961 . S
H660 C672 0.959 . S
H661 C675 0.929 . S
H662 C676 0.931 . S
H663 C678 0.930 . S
C664 H652 0.930 . S
C664 C665 1.399 . S
C664 C669 1.399 . S
C665 C664 1.399 . S
C665 C666 1.376 . S
C666 H653 0.930 . S
C666 C665 1.376 . S
C666 C667 1.388 . S
C667 H654 0.930 . S
C667 C666 1.388 . S
C667 C668 1.390 . S
C668 C667 1.390 . S
C668 C669 1.394 . S
C668 C674 1.465 . S
C669 C664 1.399 . S
C669 C668 1.394 . S
C669 C670 1.516 . S
C670 C669 1.516 . S
C670 C671 1.502 . S
C670 C672 1.561 . S
C670 C673 1.526 . S
C671 H655 0.959 . S
C671 H656 0.959 . S
C671 H657 0.961 . S
C671 C670 1.502 . S
C672 H658 0.960 . S
C672 H659 0.961 . S
C672 H660 0.959 . S
C672 C670 1.561 . S
C673 C670 1.526 . S
C673 C674 1.396 . S
C673 C678 1.390 . S
C674 C668 1.465 . S
C674 C673 1.396 . S
C674 C675 1.399 . S
C675 H661 0.929 . S
C675 C674 1.399 . S
C675 C676 1.385 . S
C676 H662 0.931 . S
C676 C675 1.385 . S
C676 C677 1.389 . S
C677 C676 1.389 . S
C677 C678 1.387 . S
C678 H663 0.930 . S
C678 C673 1.390 . S
C678 C677 1.387 . S
H679 C691 0.930 . S
H680 C693 0.930 . S
H681 C694 0.930 . S
H682 C698 0.959 . S
H683 C698 0.959 . S
H684 C698 0.961 . S
H685 C699 0.960 . S
H686 C699 0.961 . S
H687 C699 0.959 . S
H688 C702 0.929 . S
H689 C703 0.931 . S
H690 C705 0.930 . S
C691 H679 0.930 . S
C691 C692 1.399 . S
C691 C696 1.399 . S
C692 C691 1.399 . S
C692 C693 1.376 . S
C693 H680 0.930 . S
C693 C692 1.376 . S
C693 C694 1.388 . S
C694 H681 0.930 . S
C694 C693 1.388 . S
C694 C695 1.390 . S
C695 C694 1.390 . S
C695 C696 1.394 . S
C695 C701 1.465 . S
C696 C691 1.399 . S
C696 C695 1.394 . S
C696 C697 1.516 . S
C697 C696 1.516 . S
C697 C698 1.502 . S
C697 C699 1.561 . S
C697 C700 1.526 . S
C698 H682 0.959 . S
C698 H683 0.959 . S
C698 H684 0.961 . S
C698 C697 1.502 . S
C699 H685 0.960 . S
C699 H686 0.961 . S
C699 H687 0.959 . S
C699 C697 1.561 . S
C700 C697 1.526 . S
C700 C701 1.396 . S
C700 C705 1.390 . S
C701 C695 1.465 . S
C701 C700 1.396 . S
C701 C702 1.399 . S
C702 H688 0.929 . S
C702 C701 1.399 . S
C702 C703 1.385 . S
C703 H689 0.931 . S
C703 C702 1.385 . S
C703 C704 1.389 . S
C704 C703 1.389 . S
C704 C705 1.387 . S
C705 H690 0.930 . S
C705 C700 1.390 . S
C705 C704 1.387 . S
H706 C718 0.930 . S
H707 C720 0.930 . S
H708 C721 0.930 . S
H709 C725 0.959 . S
H710 C725 0.959 . S
H711 C725 0.961 . S
H712 C726 0.960 . S
H713 C726 0.961 . S
H714 C726 0.959 . S
H715 C729 0.929 . S
H716 C730 0.931 . S
H717 C732 0.930 . S
C718 H706 0.930 . S
C718 C719 1.399 . S
C718 C723 1.399 . S
C719 C718 1.399 . S
C719 C720 1.376 . S
C720 H707 0.930 . S
C720 C719 1.376 . S
C720 C721 1.388 . S
C721 H708 0.930 . S
C721 C720 1.388 . S
C721 C722 1.390 . S
C722 C721 1.390 . S
C722 C723 1.394 . S
C722 C728 1.465 . S
C723 C718 1.399 . S
C723 C722 1.394 . S
C723 C724 1.516 . S
C724 C723 1.516 . S
C724 C725 1.502 . S
C724 C726 1.561 . S
C724 C727 1.526 . S
C725 H709 0.959 . S
C725 H710 0.959 . S
C725 H711 0.961 . S
C725 C724 1.502 . S
C726 H712 0.960 . S
C726 H713 0.961 . S
C726 H714 0.959 . S
C726 C724 1.561 . S
C727 C724 1.526 . S
C727 C728 1.396 . S
C727 C732 1.390 . S
C728 C722 1.465 . S
C728 C727 1.396 . S
C728 C729 1.399 . S
C729 H715 0.929 . S
C729 C728 1.399 . S
C729 C730 1.385 . S
C730 H716 0.931 . S
C730 C729 1.385 . S
C730 C731 1.389 . S
C731 C730 1.389 . S
C731 C732 1.387 . S
C732 H717 0.930 . S
C732 C727 1.390 . S
C732 C731 1.387 . S
H733 C745 0.930 . S
H734 C747 0.930 . S
H735 C748 0.930 . S
H736 C752 0.959 . S
H737 C752 0.959 . S
H738 C752 0.961 . S
H739 C753 0.960 . S
H740 C753 0.961 . S
H741 C753 0.959 . S
H742 C756 0.929 . S
H743 C757 0.931 . S
H744 C759 0.930 . S
C745 H733 0.930 . S
C745 C746 1.399 . S
C745 C750 1.399 . S
C746 C745 1.399 . S
C746 C747 1.376 . S
C747 H734 0.930 . S
C747 C746 1.376 . S
C747 C748 1.388 . S
C748 H735 0.930 . S
C748 C747 1.388 . S
C748 C749 1.390 . S
C749 C748 1.390 . S
C749 C750 1.394 . S
C749 C755 1.465 . S
C750 C745 1.399 . S
C750 C749 1.394 . S
C750 C751 1.516 . S
C751 C750 1.516 . S
C751 C752 1.502 . S
C751 C753 1.561 . S
C751 C754 1.526 . S
C752 H736 0.959 . S
C752 H737 0.959 . S
C752 H738 0.961 . S
C752 C751 1.502 . S
C753 H739 0.960 . S
C753 H740 0.961 . S
C753 H741 0.959 . S
C753 C751 1.561 . S
C754 C751 1.526 . S
C754 C755 1.396 . S
C754 C759 1.390 . S
C755 C749 1.465 . S
C755 C754 1.396 . S
C755 C756 1.399 . S
C756 H742 0.929 . S
C756 C755 1.399 . S
C756 C757 1.385 . S
C757 H743 0.931 . S
C757 C756 1.385 . S
C757 C758 1.389 . S
C758 C757 1.389 . S
C758 C759 1.387 . S
C759 H744 0.930 . S
C759 C754 1.390 . S
C759 C758 1.387 . S
H760 C772 0.951 1_545 S
H761 C774 0.930 . S
H762 C775 0.930 . S
H763 C779 0.959 . S
H764 C779 0.959 . S
H765 C779 0.961 . S
H766 C780 0.960 . S
H767 C780 0.961 . S
H768 C780 0.959 . S
H769 C783 0.929 . S
H770 C784 0.931 . S
H771 C786 0.930 . S
C772 H760 0.951 1_565 S
C772 C773 1.379 1_566 S
C772 C777 1.399 . S
C773 C772 1.379 1_544 S
C773 C774 1.376 1_545 S
C774 H761 0.930 . S
C774 C773 1.376 1_565 S
C774 C775 1.388 . S
C775 H762 0.930 . S
C775 C774 1.388 . S
C775 C776 1.390 . S
C776 C775 1.390 . S
C776 C777 1.379 1_554 S
C776 C782 1.465 . S
C777 C772 1.399 . S
C777 C776 1.379 1_556 S
C777 C778 1.530 . S
C778 C777 1.530 . S
C778 C779 1.502 . S
C778 C780 1.561 . S
C778 C781 1.526 . S
C779 H763 0.959 . S
C779 H764 0.959 . S
C779 H765 0.961 . S
C779 C778 1.502 . S
C780 H766 0.960 . S
C780 H767 0.961 . S
C780 H768 0.959 . S
C780 C778 1.561 . S
C781 C778 1.526 . S
C781 C782 1.396 1_556 S
C781 C786 1.390 . S
C782 C776 1.465 . S
C782 C781 1.396 1_554 S
C782 C783 1.399 . S
C783 H769 0.929 . S
C783 C782 1.399 . S
C783 C784 1.385 . S
C784 H770 0.931 . S
C784 C783 1.385 . S
C784 C785 1.389 . S
C785 C784 1.389 . S
C785 C786 1.387 1_554 S
C786 H771 0.930 . S
C786 C781 1.390 . S
C786 C785 1.387 1_556 S
H787 C799 0.930 1_455 S
H788 C801 0.930 1_455 S
H789 C802 0.930 . S
H790 C806 0.959 . S
H791 C806 0.959 . S
H792 C806 0.961 . S
H793 C807 0.960 . S
H794 C807 0.961 . S
H795 C807 0.959 . S
H796 C810 0.929 . S
H797 C811 0.931 . S
H798 C813 0.930 . S
C799 H787 0.930 1_655 S
C799 C800 1.399 1_654 S
C799 C804 1.401 . S
C800 C799 1.399 1_456 S
C800 C801 1.376 1_455 S
C801 H788 0.930 1_655 S
C801 C800 1.376 1_655 S
C801 C802 1.388 . S
C802 H789 0.930 . S
C802 C801 1.388 . S
C802 C803 1.390 . S
C803 C802 1.390 . S
C803 C804 1.372 1_556 S
C803 C809 1.465 . S
C804 C799 1.401 . S
C804 C803 1.372 1_554 S
C804 C805 1.533 . S
C805 C804 1.533 . S
C805 C806 1.502 . S
C805 C807 1.561 . S
C805 C808 1.526 . S
C806 H790 0.959 . S
C806 H791 0.959 . S
C806 H792 0.961 . S
C806 C805 1.502 . S
C807 H793 0.960 . S
C807 H794 0.961 . S
C807 H795 0.959 . S
C807 C805 1.561 . S
C808 C805 1.526 . S
C808 C809 1.396 1_554 S
C808 C813 1.390 . S
C809 C803 1.465 . S
C809 C808 1.396 1_556 S
C809 C810 1.399 . S
C810 H796 0.929 . S
C810 C809 1.399 . S
C810 C811 1.385 . S
C811 H797 0.931 . S
C811 C810 1.385 . S
C811 C812 1.389 . S
C812 C811 1.389 . S
C812 C813 1.387 1_556 S
C813 H798 0.930 . S
C813 C808 1.390 . S
C813 C812 1.387 1_554 S
H814 C826 0.930 . S
H815 C828 0.930 . S
H816 C829 0.930 . S
H817 C833 0.959 . S
H818 C833 0.959 . S
H819 C833 0.961 . S
H820 C834 0.960 . S
H821 C834 0.961 . S
H822 C834 0.959 . S
H823 C837 0.929 . S
H824 C838 0.931 . S
H825 C840 0.930 . S
C826 H814 0.930 . S
C826 C827 1.399 1_545 S
C826 C831 1.399 . S
C827 C826 1.399 1_565 S
C827 C828 1.376 1_554 S
C828 H815 0.930 . S
C828 C827 1.376 1_556 S
C828 C829 1.388 1_565 S
C829 H816 0.930 . S
C829 C828 1.388 1_545 S
C829 C830 1.390 . S
C830 C829 1.390 . S
C830 C831 1.394 1_556 S
C830 C836 1.465 . S
C831 C826 1.399 . S
C831 C830 1.394 1_554 S
C831 C832 1.516 . S
C832 C831 1.516 . S
C832 C833 1.502 . S
C832 C834 1.561 . S
C832 C835 1.526 . S
C833 H817 0.959 . S
C833 H818 0.959 . S
C833 H819 0.961 . S
C833 C832 1.502 . S
C834 H820 0.960 . S
C834 H821 0.961 . S
C834 H822 0.959 . S
C834 C832 1.561 . S
C835 C832 1.526 . S
C835 C836 1.396 1_554 S
C835 C840 1.390 . S
C836 C830 1.465 . S
C836 C835 1.396 1_556 S
C836 C837 1.399 . S
C837 H823 0.929 . S
C837 C836 1.399 . S
C837 C838 1.385 . S
C838 H824 0.931 . S
C838 C837 1.385 . S
C838 C839 1.389 . S
C839 C838 1.389 . S
C839 C840 1.387 1_556 S
C840 H825 0.930 . S
C840 C835 1.390 . S
C840 C839 1.387 1_554 S
H841 C853 0.930 . S
H842 C855 0.930 . S
H843 C856 0.930 . S
H844 C860 0.959 . S
H845 C860 0.959 . S
H846 C860 0.961 . S
H847 C861 0.960 . S
H848 C861 0.961 . S
H849 C861 0.959 . S
H850 C864 0.929 . S
H851 C865 0.931 . S
H852 C867 0.930 . S
C853 H841 0.930 . S
C853 C854 1.399 1_556 S
C853 C858 1.399 . S
C854 C853 1.399 1_554 S
C854 C855 1.376 . S
C855 H842 0.930 . S
C855 C854 1.376 . S
C855 C856 1.388 . S
C856 H843 0.930 . S
C856 C855 1.388 . S
C856 C857 1.390 . S
C857 C856 1.390 . S
C857 C858 1.394 1_554 S
C857 C863 1.465 . S
C858 C853 1.399 . S
C858 C857 1.394 1_556 S
C858 C859 1.516 . S
C859 C858 1.516 . S
C859 C860 1.502 . S
C859 C861 1.561 . S
C859 C862 1.526 . S
C860 H844 0.959 . S
C860 H845 0.959 . S
C860 H846 0.961 . S
C860 C859 1.502 . S
C861 H847 0.960 . S
C861 H848 0.961 . S
C861 H849 0.959 . S
C861 C859 1.561 . S
C862 C859 1.526 . S
C862 C863 1.396 1_556 S
C862 C867 1.390 . S
C863 C857 1.465 . S
C863 C862 1.396 1_554 S
C863 C864 1.399 . S
C864 H850 0.929 . S
C864 C863 1.399 . S
C864 C865 1.385 1_455 S
C865 H851 0.931 . S
C865 C864 1.385 1_655 S
C865 C866 1.389 1_554 S
C866 C865 1.389 1_556 S
C866 C867 1.387 1_655 S
C867 H852 0.930 . S
C867 C862 1.390 . S
C867 C866 1.387 1_455 S
H868 C880 0.930 . S
H869 C882 0.930 . S
H870 C883 0.930 . S
H871 C887 0.959 . S
H872 C887 0.959 . S
H873 C887 0.961 . S
H874 C888 0.960 . S
H875 C888 0.961 . S
H876 C888 0.959 . S
H877 C891 0.929 . S
H878 C892 0.931 . S
H879 C894 0.930 . S
C880 H868 0.930 . S
C880 C881 1.399 . S
C880 C885 1.399 . S
C881 C880 1.399 . S
C881 C882 1.376 . S
C882 H869 0.930 . S
C882 C881 1.376 . S
C882 C883 1.388 . S
C883 H870 0.930 . S
C883 C882 1.388 . S
C883 C884 1.390 . S
C884 C883 1.390 . S
C884 C885 1.394 . S
C884 C890 1.465 . S
C885 C880 1.399 . S
C885 C884 1.394 . S
C885 C886 1.516 . S
C886 C885 1.516 . S
C886 C887 1.502 . S
C886 C888 1.561 . S
C886 C889 1.526 . S
C887 H871 0.959 . S
C887 H872 0.959 . S
C887 H873 0.961 . S
C887 C886 1.502 . S
C888 H874 0.960 . S
C888 H875 0.961 . S
C888 H876 0.959 . S
C888 C886 1.561 . S
C889 C886 1.526 . S
C889 C890 1.396 . S
C889 C894 1.390 . S
C890 C884 1.465 . S
C890 C889 1.396 . S
C890 C891 1.399 . S
C891 H877 0.929 . S
C891 C890 1.399 . S
C891 C892 1.385 . S
C892 H878 0.931 . S
C892 C891 1.385 . S
C892 C893 1.389 . S
C893 C892 1.389 . S
C893 C894 1.387 . S
C894 H879 0.930 . S
C894 C889 1.390 . S
C894 C893 1.387 . S
H895 C907 0.930 . S
H896 C909 0.930 . S
H897 C910 0.930 . S
H898 C914 0.959 . S
H899 C914 0.959 . S
H900 C914 0.961 . S
H901 C915 0.960 . S
H902 C915 0.961 . S
H903 C915 0.959 . S
H904 C918 0.929 . S
H905 C919 0.931 . S
H906 C921 0.930 . S
C907 H895 0.930 . S
C907 C908 1.399 . S
C907 C912 1.399 . S
C908 C907 1.399 . S
C908 C909 1.376 . S
C909 H896 0.930 . S
C909 C908 1.376 . S
C909 C910 1.388 . S
C910 H897 0.930 . S
C910 C909 1.388 . S
C910 C911 1.390 . S
C911 C910 1.390 . S
C911 C912 1.394 . S
C911 C917 1.465 . S
C912 C907 1.399 . S
C912 C911 1.394 . S
C912 C913 1.516 . S
C913 C912 1.516 . S
C913 C914 1.502 . S
C913 C915 1.561 . S
C913 C916 1.526 . S
C914 H898 0.959 . S
C914 H899 0.959 . S
C914 H900 0.961 . S
C914 C913 1.502 . S
C915 H901 0.960 . S
C915 H902 0.961 . S
C915 H903 0.959 . S
C915 C913 1.561 . S
C916 C913 1.526 . S
C916 C917 1.396 . S
C916 C921 1.390 . S
C917 C911 1.465 . S
C917 C916 1.396 . S
C917 C918 1.399 . S
C918 H904 0.929 . S
C918 C917 1.399 . S
C918 C919 1.385 . S
C919 H905 0.931 . S
C919 C918 1.385 . S
C919 C920 1.389 . S
C920 C919 1.389 . S
C920 C921 1.387 . S
C921 H906 0.930 . S
C921 C916 1.390 . S
C921 C920 1.387 . S
H922 C934 0.930 . S
H923 C936 0.930 . S
H924 C937 0.930 . S
H925 C941 0.959 . S
H926 C941 0.959 . S
H927 C941 0.961 . S
H928 C942 0.960 . S
H929 C942 0.961 . S
H930 C942 0.959 . S
H931 C945 0.929 . S
H932 C946 0.931 . S
H933 C948 0.930 . S
C934 H922 0.930 . S
C934 C935 1.399 . S
C934 C939 1.399 . S
C935 C934 1.399 . S
C935 C936 1.376 . S
C936 H923 0.930 . S
C936 C935 1.376 . S
C936 C937 1.388 . S
C937 H924 0.930 . S
C937 C936 1.388 . S
C937 C938 1.390 . S
C938 C937 1.390 . S
C938 C939 1.394 . S
C938 C944 1.465 . S
C939 C934 1.399 . S
C939 C938 1.394 . S
C939 C940 1.516 . S
C940 C939 1.516 . S
C940 C941 1.502 . S
C940 C942 1.561 . S
C940 C943 1.526 . S
C941 H925 0.959 . S
C941 H926 0.959 . S
C941 H927 0.961 . S
C941 C940 1.502 . S
C942 H928 0.960 . S
C942 H929 0.961 . S
C942 H930 0.959 . S
C942 C940 1.561 . S
C943 C940 1.526 . S
C943 C944 1.396 . S
C943 C948 1.390 . S
C944 C938 1.465 . S
C944 C943 1.396 . S
C944 C945 1.399 . S
C945 H931 0.929 . S
C945 C944 1.399 . S
C945 C946 1.385 . S
C946 H932 0.931 . S
C946 C945 1.385 . S
C946 C947 1.389 . S
C947 C946 1.389 . S
C947 C948 1.387 . S
C948 H933 0.930 . S
C948 C943 1.390 . S
C948 C947 1.387 . S
H949 C961 0.930 . S
H950 C963 0.930 . S
H951 C964 0.930 . S
H952 C968 0.959 . S
H953 C968 0.959 . S
H954 C968 0.961 . S
H955 C969 0.960 . S
H956 C969 0.961 . S
H957 C969 0.959 . S
H958 C972 0.929 . S
H959 C973 0.931 . S
H960 C975 0.930 . S
C961 H949 0.930 . S
C961 C962 1.399 . S
C961 C966 1.399 . S
C962 C961 1.399 . S
C962 C963 1.376 . S
C963 H950 0.930 . S
C963 C962 1.376 . S
C963 C964 1.388 . S
C964 H951 0.930 . S
C964 C963 1.388 . S
C964 C965 1.390 . S
C965 C964 1.390 . S
C965 C966 1.394 . S
C965 C971 1.465 . S
C966 C961 1.399 . S
C966 C965 1.394 . S
C966 C967 1.516 . S
C967 C966 1.516 . S
C967 C968 1.502 . S
C967 C969 1.561 . S
C967 C970 1.526 . S
C968 H952 0.959 . S
C968 H953 0.959 . S
C968 H954 0.961 . S
C968 C967 1.502 . S
C969 H955 0.960 . S
C969 H956 0.961 . S
C969 H957 0.959 . S
C969 C967 1.561 . S
C970 C967 1.526 . S
C970 C971 1.396 . S
C970 C975 1.390 . S
C971 C965 1.465 . S
C971 C970 1.396 . S
C971 C972 1.399 . S
C972 H958 0.929 . S
C972 C971 1.399 . S
C972 C973 1.385 . S
C973 H959 0.931 . S
C973 C972 1.385 . S
C973 C974 1.389 . S
C974 C973 1.389 . S
C974 C975 1.387 . S
C975 H960 0.930 . S
C975 C970 1.390 . S
C975 C974 1.387 . S
H976 C988 0.930 . S
H977 C990 0.930 . S
H978 C991 0.930 . S
H979 C995 0.959 . S
H980 C995 0.959 . S
H981 C995 0.961 . S
H982 C996 0.960 . S
H983 C996 0.961 . S
H984 C996 0.959 . S
H985 C999 0.929 . S
H986 C1000 0.931 . S
H987 C1002 0.930 . S
C988 H976 0.930 . S
C988 C989 1.399 . S
C988 C993 1.399 . S
C989 C988 1.399 . S
C989 C990 1.376 . S
C990 H977 0.930 . S
C990 C989 1.376 . S
C990 C991 1.388 . S
C991 H978 0.930 . S
C991 C990 1.388 . S
C991 C992 1.390 . S
C992 C991 1.390 . S
C992 C993 1.394 . S
C992 C998 1.465 . S
C993 C988 1.399 . S
C993 C992 1.394 . S
C993 C994 1.516 . S
C994 C993 1.516 . S
C994 C995 1.502 . S
C994 C996 1.561 . S
C994 C997 1.526 . S
C995 H979 0.959 . S
C995 H980 0.959 . S
C995 H981 0.961 . S
C995 C994 1.502 . S
C996 H982 0.960 . S
C996 H983 0.961 . S
C996 H984 0.959 . S
C996 C994 1.561 . S
C997 C994 1.526 . S
C997 C998 1.396 . S
C997 C1002 1.390 . S
C998 C992 1.465 . S
C998 C997 1.396 . S
C998 C999 1.399 . S
C999 H985 0.929 . S
C999 C998 1.399 . S
C999 C1000 1.385 . S
C1000 H986 0.931 . S
C1000 C999 1.385 . S
C1000 C1001 1.389 . S
C1001 C1000 1.389 . S
C1001 C1002 1.387 . S
C1002 H987 0.930 . S
C1002 C997 1.390 . S
C1002 C1001 1.387 . S
H1003 C1015 0.930 . S
H1004 C1017 0.930 . S
H1005 C1018 0.930 . S
H1006 C1022 0.959 . S
H1007 C1022 0.959 . S
H1008 C1022 0.961 . S
H1009 C1023 0.960 . S
H1010 C1023 0.961 . S
H1011 C1023 0.959 . S
H1012 C1026 0.929 . S
H1013 C1027 0.931 . S
H1014 C1029 0.930 . S
C1015 H1003 0.930 . S
C1015 C1016 1.399 . S
C1015 C1020 1.399 . S
C1016 C1015 1.399 . S
C1016 C1017 1.376 . S
C1017 H1004 0.930 . S
C1017 C1016 1.376 . S
C1017 C1018 1.388 . S
C1018 H1005 0.930 . S
C1018 C1017 1.388 . S
C1018 C1019 1.390 . S
C1019 C1018 1.390 . S
C1019 C1020 1.394 . S
C1019 C1025 1.465 . S
C1020 C1015 1.399 . S
C1020 C1019 1.394 . S
C1020 C1021 1.516 . S
C1021 C1020 1.516 . S
C1021 C1022 1.502 . S
C1021 C1023 1.561 . S
C1021 C1024 1.526 . S
C1022 H1006 0.959 . S
C1022 H1007 0.959 . S
C1022 H1008 0.961 . S
C1022 C1021 1.502 . S
C1023 H1009 0.960 . S
C1023 H1010 0.961 . S
C1023 H1011 0.959 . S
C1023 C1021 1.561 . S
C1024 C1021 1.526 . S
C1024 C1025 1.396 . S
C1024 C1029 1.390 . S
C1025 C1019 1.465 . S
C1025 C1024 1.396 . S
C1025 C1026 1.399 . S
C1026 H1012 0.929 . S
C1026 C1025 1.399 . S
C1026 C1027 1.385 . S
C1027 H1013 0.931 . S
C1027 C1026 1.385 . S
C1027 C1028 1.389 . S
C1028 C1027 1.389 . S
C1028 C1029 1.387 . S
C1029 H1014 0.930 . S
C1029 C1024 1.390 . S
C1029 C1028 1.387 . S
H1030 C1042 0.930 . S
H1031 C1044 0.930 . S
H1032 C1045 0.930 . S
H1033 C1049 0.959 . S
H1034 C1049 0.959 . S
H1035 C1049 0.961 . S
H1036 C1050 0.960 . S
H1037 C1050 0.961 . S
H1038 C1050 0.959 . S
H1039 C1053 0.929 . S
H1040 C1054 0.931 . S
H1041 C1056 0.930 . S
C1042 H1030 0.930 . S
C1042 C1043 1.399 . S
C1042 C1047 1.399 . S
C1043 C1042 1.399 . S
C1043 C1044 1.376 . S
C1044 H1031 0.930 . S
C1044 C1043 1.376 . S
C1044 C1045 1.388 . S
C1045 H1032 0.930 . S
C1045 C1044 1.388 . S
C1045 C1046 1.390 . S
C1046 C1045 1.390 . S
C1046 C1047 1.394 . S
C1046 C1052 1.465 . S
C1047 C1042 1.399 . S
C1047 C1046 1.394 . S
C1047 C1048 1.516 . S
C1048 C1047 1.516 . S
C1048 C1049 1.502 . S
C1048 C1050 1.561 . S
C1048 C1051 1.526 . S
C1049 H1033 0.959 . S
C1049 H1034 0.959 . S
C1049 H1035 0.961 . S
C1049 C1048 1.502 . S
C1050 H1036 0.960 . S
C1050 H1037 0.961 . S
C1050 H1038 0.959 . S
C1050 C1048 1.561 . S
C1051 C1048 1.526 . S
C1051 C1052 1.396 . S
C1051 C1056 1.390 . S
C1052 C1046 1.465 . S
C1052 C1051 1.396 . S
C1052 C1053 1.399 . S
C1053 H1039 0.929 . S
C1053 C1052 1.399 . S
C1053 C1054 1.385 . S
C1054 H1040 0.931 . S
C1054 C1053 1.385 . S
C1054 C1055 1.389 . S
C1055 C1054 1.389 . S
C1055 C1056 1.387 . S
C1056 H1041 0.930 . S
C1056 C1051 1.390 . S
C1056 C1055 1.387 . S
H1057 C1069 0.930 . S
H1058 C1071 0.930 . S
H1059 C1072 0.930 . S
H1060 C1076 0.959 . S
H1061 C1076 0.959 . S
H1062 C1076 0.961 . S
H1063 C1077 0.960 . S
H1064 C1077 0.961 . S
H1065 C1077 0.959 . S
H1066 C1080 0.929 . S
H1067 C1081 0.931 . S
H1068 C1083 0.930 . S
C1069 H1057 0.930 . S
C1069 C1070 1.399 . S
C1069 C1074 1.399 . S
C1070 C1069 1.399 . S
C1070 C1071 1.376 . S
C1071 H1058 0.930 . S
C1071 C1070 1.376 . S
C1071 C1072 1.388 . S
C1072 H1059 0.930 . S
C1072 C1071 1.388 . S
C1072 C1073 1.390 . S
C1073 C1072 1.390 . S
C1073 C1074 1.394 . S
C1073 C1079 1.465 . S
C1074 C1069 1.399 . S
C1074 C1073 1.394 . S
C1074 C1075 1.516 . S
C1075 C1074 1.516 . S
C1075 C1076 1.502 . S
C1075 C1077 1.561 . S
C1075 C1078 1.526 . S
C1076 H1060 0.959 . S
C1076 H1061 0.959 . S
C1076 H1062 0.961 . S
C1076 C1075 1.502 . S
C1077 H1063 0.960 . S
C1077 H1064 0.961 . S
C1077 H1065 0.959 . S
C1077 C1075 1.561 . S
C1078 C1075 1.526 . S
C1078 C1079 1.396 . S
C1078 C1083 1.390 . S
C1079 C1073 1.465 . S
C1079 C1078 1.396 . S
C1079 C1080 1.399 . S
C1080 H1066 0.929 . S
C1080 C1079 1.399 . S
C1080 C1081 1.385 . S
C1081 H1067 0.931 . S
C1081 C1080 1.385 . S
C1081 C1082 1.389 . S
C1082 C1081 1.389 . S
C1082 C1083 1.387 . S
C1083 H1068 0.930 . S
C1083 C1078 1.390 . S
C1083 C1082 1.387 . S
H1084 C1096 0.930 1_565 S
H1085 C1098 0.930 1_565 S
H1086 C1099 0.930 . S
H1087 C1103 0.959 . S
H1088 C1103 0.959 . S
H1089 C1103 0.961 . S
H1090 C1104 0.960 . S
H1091 C1104 0.961 . S
H1092 C1104 0.959 . S
H1093 C1107 0.929 . S
H1094 C1108 0.931 . S
H1095 C1110 0.930 . S
C1096 H1084 0.930 1_545 S
C1096 C1097 1.399 1_545 S
C1096 C1101 1.399 . S
C1097 C1096 1.399 1_565 S
C1097 C1098 1.376 1_565 S
C1098 H1085 0.930 1_545 S
C1098 C1097 1.376 1_545 S
C1098 C1099 1.388 . S
C1099 H1086 0.930 . S
C1099 C1098 1.388 . S
C1099 C1100 1.390 . S
C1100 C1099 1.390 . S
C1100 C1101 1.394 . S
C1100 C1106 1.465 . S
C1101 C1096 1.399 . S
C1101 C1100 1.394 . S
C1101 C1102 1.516 . S
C1102 C1101 1.516 . S
C1102 C1103 1.502 . S
C1102 C1104 1.561 . S
C1102 C1105 1.526 . S
C1103 H1087 0.959 . S
C1103 H1088 0.959 . S
C1103 H1089 0.961 . S
C1103 C1102 1.502 . S
C1104 H1090 0.960 . S
C1104 H1091 0.961 . S
C1104 H1092 0.959 . S
C1104 C1102 1.561 . S
C1105 C1102 1.526 . S
C1105 C1106 1.396 . S
C1105 C1110 1.390 . S
C1106 C1100 1.465 . S
C1106 C1105 1.396 . S
C1106 C1107 1.399 . S
C1107 H1093 0.929 . S
C1107 C1106 1.399 . S
C1107 C1108 1.385 . S
C1108 H1094 0.931 . S
C1108 C1107 1.385 . S
C1108 C1109 1.389 . S
C1109 C1108 1.389 . S
C1109 C1110 1.387 . S
C1110 H1095 0.930 . S
C1110 C1105 1.390 . S
C1110 C1109 1.387 . S
H1111 C1123 0.930 . S
H1112 C1125 0.930 . S
H1113 C1126 0.930 . S
H1114 C1130 0.959 . S
H1115 C1130 0.959 . S
H1116 C1130 0.961 . S
H1117 C1131 0.960 . S
H1118 C1131 0.961 . S
H1119 C1131 0.959 . S
H1120 C1134 0.929 . S
H1121 C1135 0.931 . S
H1122 C1137 0.930 . S
C1123 H1111 0.930 . S
C1123 C1124 1.399 . S
C1123 C1128 1.399 . S
C1124 C1123 1.399 . S
C1124 C1125 1.376 . S
C1125 H1112 0.930 . S
C1125 C1124 1.376 . S
C1125 C1126 1.388 . S
C1126 H1113 0.930 . S
C1126 C1125 1.388 . S
C1126 C1127 1.390 . S
C1127 C1126 1.390 . S
C1127 C1128 1.394 . S
C1127 C1133 1.465 . S
C1128 C1123 1.399 . S
C1128 C1127 1.394 . S
C1128 C1129 1.516 . S
C1129 C1128 1.516 . S
C1129 C1130 1.502 . S
C1129 C1131 1.561 . S
C1129 C1132 1.526 . S
C1130 H1114 0.959 . S
C1130 H1115 0.959 . S
C1130 H1116 0.961 . S
C1130 C1129 1.502 . S
C1131 H1117 0.960 . S
C1131 H1118 0.961 . S
C1131 H1119 0.959 . S
C1131 C1129 1.561 . S
C1132 C1129 1.526 . S
C1132 C1133 1.396 . S
C1132 C1137 1.390 . S
C1133 C1127 1.465 . S
C1133 C1132 1.396 . S
C1133 C1134 1.399 . S
C1134 H1120 0.929 . S
C1134 C1133 1.399 . S
C1134 C1135 1.385 1_455 S
C1135 H1121 0.931 . S
C1135 C1134 1.385 1_655 S
C1135 C1136 1.389 . S
C1136 C1135 1.389 . S
C1136 C1137 1.387 1_655 S
C1137 H1122 0.930 . S
C1137 C1132 1.390 . S
C1137 C1136 1.387 1_455 S
H1138 C1150 0.930 . S
H1139 C1152 0.930 . S
H1140 C1153 0.930 . S
H1141 C1157 0.959 . S
H1142 C1157 0.959 . S
H1143 C1157 0.961 . S
H1144 C1158 0.960 . S
H1145 C1158 0.961 . S
H1146 C1158 0.959 . S
H1147 C1161 0.929 . S
H1148 C1162 0.931 1_545 S
H1149 C1164 0.930 1_545 S
C1150 H1138 0.930 . S
C1150 C1151 1.399 . S
C1150 C1155 1.399 . S
C1151 C1150 1.399 . S
C1151 C1152 1.376 . S
C1152 H1139 0.930 . S
C1152 C1151 1.376 . S
C1152 C1153 1.388 . S
C1153 H1140 0.930 . S
C1153 C1152 1.388 . S
C1153 C1154 1.390 . S
C1154 C1153 1.390 . S
C1154 C1155 1.394 . S
C1154 C1160 1.465 . S
C1155 C1150 1.399 . S
C1155 C1154 1.394 . S
C1155 C1156 1.516 . S
C1156 C1155 1.516 . S
C1156 C1157 1.502 . S
C1156 C1158 1.561 . S
C1156 C1159 1.526 . S
C1157 H1141 0.959 . S
C1157 H1142 0.959 . S
C1157 H1143 0.961 . S
C1157 C1156 1.502 . S
C1158 H1144 0.960 . S
C1158 H1145 0.961 . S
C1158 H1146 0.959 . S
C1158 C1156 1.561 . S
C1159 C1156 1.526 . S
C1159 C1160 1.396 . S
C1159 C1164 1.390 . S
C1160 C1154 1.465 . S
C1160 C1159 1.396 . S
C1160 C1161 1.399 . S
C1161 H1147 0.929 . S
C1161 C1160 1.399 . S
C1161 C1162 1.385 . S
C1162 H1148 0.931 1_565 S
C1162 C1161 1.385 . S
C1162 C1163 1.389 1_565 S
C1163 C1162 1.389 1_545 S
C1163 C1164 1.387 1_545 S
C1164 H1149 0.930 1_565 S
C1164 C1159 1.390 . S
C1164 C1163 1.387 1_565 S
H1165 C1177 0.930 1_455 S
H1166 C1179 0.930 1_455 S
H1167 C1180 0.930 . S
H1168 C1184 0.959 . S
H1169 C1184 0.959 . S
H1170 C1184 0.961 . S
H1171 C1185 0.960 . S
H1172 C1185 0.961 . S
H1173 C1185 0.959 . S
H1174 C1188 0.929 . S
H1175 C1189 0.931 . S
H1176 C1191 0.930 . S
C1177 H1165 0.930 1_655 S
C1177 C1178 1.399 1_655 S
C1177 C1182 1.399 . S
C1178 C1177 1.399 1_455 S
C1178 C1179 1.376 1_455 S
C1179 H1166 0.930 1_655 S
C1179 C1178 1.376 1_655 S
C1179 C1180 1.388 . S
C1180 H1167 0.930 . S
C1180 C1179 1.388 . S
C1180 C1181 1.390 . S
C1181 C1180 1.390 . S
C1181 C1182 1.394 . S
C1181 C1187 1.465 . S
C1182 C1177 1.399 . S
C1182 C1181 1.394 . S
C1182 C1183 1.516 . S
C1183 C1182 1.516 . S
C1183 C1184 1.502 . S
C1183 C1185 1.561 . S
C1183 C1186 1.526 . S
C1184 H1168 0.959 . S
C1184 H1169 0.959 . S
C1184 H1170 0.961 . S
C1184 C1183 1.502 . S
C1185 H1171 0.960 . S
C1185 H1172 0.961 . S
C1185 H1173 0.959 . S
C1185 C1183 1.561 . S
C1186 C1183 1.526 . S
C1186 C1187 1.396 . S
C1186 C1191 1.390 . S
C1187 C1181 1.465 . S
C1187 C1186 1.396 . S
C1187 C1188 1.399 . S
C1188 H1174 0.929 . S
C1188 C1187 1.399 . S
C1188 C1189 1.385 . S
C1189 H1175 0.931 . S
C1189 C1188 1.385 . S
C1189 C1190 1.389 . S
C1190 C1189 1.389 . S
C1190 C1191 1.387 . S
C1191 H1176 0.930 . S
C1191 C1186 1.390 . S
C1191 C1190 1.387 . S
H1192 C1204 0.930 . S
H1193 C1206 0.930 . S
H1194 C1207 0.930 1_565 S
H1195 C1211 0.959 . S
H1196 C1211 0.959 . S
H1197 C1211 0.961 . S
H1198 C1212 0.959 1_545 S
H1199 C1212 0.961 . S
H1200 C1212 0.959 . S
H1201 C1215 0.929 . S
H1202 C1216 0.931 . S
H1203 C1218 0.930 . S
C1204 H1192 0.930 . S
C1204 C1205 1.399 . S
C1204 C1209 1.399 . S
C1205 C1204 1.399 . S
C1205 C1206 1.376 1_554 S
C1206 H1193 0.930 . S
C1206 C1205 1.376 1_556 S
C1206 C1207 1.388 . S
C1207 H1194 0.930 1_545 S
C1207 C1206 1.388 . S
C1207 C1208 1.390 1_556 S
C1208 C1207 1.390 1_554 S
C1208 C1209 1.394 . S
C1208 C1214 1.465 1_545 S
C1209 C1204 1.399 . S
C1209 C1208 1.394 . S
C1209 C1210 1.516 . S
C1210 C1209 1.516 . S
C1210 C1211 1.502 . S
C1210 C1212 1.561 1_545 S
C1210 C1213 1.526 1_545 S
C1211 H1195 0.959 . S
C1211 H1196 0.959 . S
C1211 H1197 0.961 . S
C1211 C1210 1.502 . S
C1212 H1198 0.959 1_565 S
C1212 H1199 0.961 . S
C1212 H1200 0.959 . S
C1212 C1210 1.561 1_565 S
C1213 C1210 1.526 1_565 S
C1213 C1214 1.396 . S
C1213 C1218 1.390 . S
C1214 C1208 1.465 1_565 S
C1214 C1213 1.396 . S
C1214 C1215 1.399 1_554 S
C1215 H1201 0.929 . S
C1215 C1214 1.399 1_556 S
C1215 C1216 1.385 . S
C1216 H1202 0.931 . S
C1216 C1215 1.385 . S
C1216 C1217 1.389 1_556 S
C1217 C1216 1.389 1_554 S
C1217 C1218 1.387 . S
C1218 H1203 0.930 . S
C1218 C1213 1.390 . S
C1218 C1217 1.387 . S
H1219 C1231 0.930 . S
H1220 C1233 0.930 . S
H1221 C1234 0.941 . S
H1222 C1238 0.959 . S
H1223 C1238 0.959 . S
H1224 C1238 0.961 . S
H1225 C1239 0.960 . S
H1226 C1239 0.961 . S
H1227 C1239 0.959 . S
H1228 C1242 0.929 . S
H1229 C1243 0.931 . S
H1230 C1245 0.930 . S
C1231 H1219 0.930 . S
C1231 C1232 1.399 . S
C1231 C1236 1.399 . S
C1232 C1231 1.399 . S
C1232 C1233 1.376 1_556 S
C1233 H1220 0.930 . S
C1233 C1232 1.376 1_554 S
C1233 C1234 1.378 1_455 S
C1234 H1221 0.941 . S
C1234 C1233 1.378 1_655 S
C1234 C1235 1.389 1_654 S
C1235 C1234 1.389 1_456 S
C1235 C1236 1.394 . S
C1235 C1241 1.465 1_455 S
C1236 C1231 1.399 . S
C1236 C1235 1.394 . S
C1236 C1237 1.516 . S
C1237 C1236 1.516 . S
C1237 C1238 1.502 . S
C1237 C1239 1.561 . S
C1237 C1240 1.526 1_455 S
C1238 H1222 0.959 . S
C1238 H1223 0.959 . S
C1238 H1224 0.961 . S
C1238 C1237 1.502 . S
C1239 H1225 0.960 . S
C1239 H1226 0.961 . S
C1239 H1227 0.959 . S
C1239 C1237 1.561 . S
C1240 C1237 1.526 1_655 S
C1240 C1241 1.396 . S
C1240 C1245 1.390 . S
C1241 C1235 1.465 1_655 S
C1241 C1240 1.396 . S
C1241 C1242 1.399 1_556 S
C1242 H1228 0.929 . S
C1242 C1241 1.399 1_554 S
C1242 C1243 1.385 . S
C1243 H1229 0.931 . S
C1243 C1242 1.385 . S
C1243 C1244 1.389 1_554 S
C1244 C1243 1.389 1_556 S
C1244 C1245 1.387 . S
C1245 H1230 0.930 . S
C1245 C1240 1.390 . S
C1245 C1244 1.387 . S
H1246 C1258 0.930 . S
H1247 C1260 0.930 . S
H1248 C1261 0.930 . S
H1249 C1265 0.959 . S
H1250 C1265 0.959 . S
H1251 C1265 0.961 . S
H1252 C1266 0.960 . S
H1253 C1266 0.961 . S
H1254 C1266 0.959 . S
H1255 C1269 0.929 . S
H1256 C1270 0.931 . S
H1257 C1272 0.930 . S
C1258 H1246 0.930 . S
C1258 C1259 1.399 . S
C1258 C1263 1.399 . S
C1259 C1258 1.399 . S
C1259 C1260 1.376 . S
C1260 H1247 0.930 . S
C1260 C1259 1.376 . S
C1260 C1261 1.388 . S
C1261 H1248 0.930 . S
C1261 C1260 1.388 . S
C1261 C1262 1.390 . S
C1262 C1261 1.390 . S
C1262 C1263 1.394 . S
C1262 C1268 1.465 . S
C1263 C1258 1.399 . S
C1263 C1262 1.394 . S
C1263 C1264 1.516 . S
C1264 C1263 1.516 . S
C1264 C1265 1.502 . S
C1264 C1266 1.561 . S
C1264 C1267 1.526 . S
C1265 H1249 0.959 . S
C1265 H1250 0.959 . S
C1265 H1251 0.961 . S
C1265 C1264 1.502 . S
C1266 H1252 0.960 . S
C1266 H1253 0.961 . S
C1266 H1254 0.959 . S
C1266 C1264 1.561 . S
C1267 C1264 1.526 . S
C1267 C1268 1.396 . S
C1267 C1272 1.390 . S
C1268 C1262 1.465 . S
C1268 C1267 1.396 . S
C1268 C1269 1.399 . S
C1269 H1255 0.929 . S
C1269 C1268 1.399 . S
C1269 C1270 1.385 . S
C1270 H1256 0.931 . S
C1270 C1269 1.385 . S
C1270 C1271 1.389 . S
C1271 C1270 1.389 . S
C1271 C1272 1.387 . S
C1272 H1257 0.930 . S
C1272 C1267 1.390 . S
C1272 C1271 1.387 . S
H1273 C1285 0.930 . S
H1274 C1287 0.930 . S
H1275 C1288 0.930 . S
H1276 C1292 0.959 . S
H1277 C1292 0.959 . S
H1278 C1292 0.961 . S
H1279 C1293 0.960 . S
H1280 C1293 0.961 . S
H1281 C1293 0.959 . S
H1282 C1296 0.929 . S
H1283 C1297 0.931 . S
H1284 C1299 0.930 . S
C1285 H1273 0.930 . S
C1285 C1286 1.399 . S
C1285 C1290 1.399 . S
C1286 C1285 1.399 . S
C1286 C1287 1.376 . S
C1287 H1274 0.930 . S
C1287 C1286 1.376 . S
C1287 C1288 1.388 . S
C1288 H1275 0.930 . S
C1288 C1287 1.388 . S
C1288 C1289 1.390 . S
C1289 C1288 1.390 . S
C1289 C1290 1.394 . S
C1289 C1295 1.465 . S
C1290 C1285 1.399 . S
C1290 C1289 1.394 . S
C1290 C1291 1.516 . S
C1291 C1290 1.516 . S
C1291 C1292 1.502 . S
C1291 C1293 1.561 . S
C1291 C1294 1.526 . S
C1292 H1276 0.959 . S
C1292 H1277 0.959 . S
C1292 H1278 0.961 . S
C1292 C1291 1.502 . S
C1293 H1279 0.960 . S
C1293 H1280 0.961 . S
C1293 H1281 0.959 . S
C1293 C1291 1.561 . S
C1294 C1291 1.526 . S
C1294 C1295 1.396 . S
C1294 C1299 1.390 . S
C1295 C1289 1.465 . S
C1295 C1294 1.396 . S
C1295 C1296 1.399 . S
C1296 H1282 0.929 . S
C1296 C1295 1.399 . S
C1296 C1297 1.385 . S
C1297 H1283 0.931 . S
C1297 C1296 1.385 . S
C1297 C1298 1.389 . S
C1298 C1297 1.389 . S
C1298 C1299 1.387 . S
C1299 H1284 0.930 . S
C1299 C1294 1.390 . S
C1299 C1298 1.387 . S
H1300 C1312 0.930 . S
H1301 C1314 0.930 . S
H1302 C1315 0.930 . S
H1303 C1319 0.959 . S
H1304 C1319 0.959 . S
H1305 C1319 0.961 . S
H1306 C1320 0.960 . S
H1307 C1320 0.961 1_455 S
H1308 C1320 0.959 . S
H1309 C1323 0.929 . S
H1310 C1324 0.931 . S
H1311 C1326 0.930 . S
C1312 H1300 0.930 . S
C1312 C1313 1.399 . S
C1312 C1317 1.399 . S
C1313 C1312 1.399 . S
C1313 C1314 1.376 . S
C1314 H1301 0.930 . S
C1314 C1313 1.376 . S
C1314 C1315 1.388 . S
C1315 H1302 0.930 . S
C1315 C1314 1.388 . S
C1315 C1316 1.390 . S
C1316 C1315 1.390 . S
C1316 C1317 1.394 . S
C1316 C1322 1.465 1_655 S
C1317 C1312 1.399 . S
C1317 C1316 1.394 . S
C1317 C1318 1.516 1_655 S
C1318 C1317 1.516 1_455 S
C1318 C1319 1.502 . S
C1318 C1320 1.561 1_455 S
C1318 C1321 1.526 . S
C1319 H1303 0.959 . S
C1319 H1304 0.959 . S
C1319 H1305 0.961 . S
C1319 C1318 1.502 . S
C1320 H1306 0.960 . S
C1320 H1307 0.961 1_655 S
C1320 H1308 0.959 . S
C1320 C1318 1.561 1_655 S
C1321 C1318 1.526 . S
C1321 C1322 1.396 . S
C1321 C1326 1.390 . S
C1322 C1316 1.465 1_455 S
C1322 C1321 1.396 . S
C1322 C1323 1.399 . S
C1323 H1309 0.929 . S
C1323 C1322 1.399 . S
C1323 C1324 1.385 . S
C1324 H1310 0.931 . S
C1324 C1323 1.385 . S
C1324 C1325 1.389 . S
C1325 C1324 1.389 . S
C1325 C1326 1.387 . S
C1326 H1311 0.930 . S
C1326 C1321 1.390 . S
C1326 C1325 1.387 . S
H1327 C1339 0.930 . S
H1328 C1341 0.930 . S
H1329 C1342 0.930 . S
H1330 C1346 0.959 . S
H1331 C1346 0.959 . S
H1332 C1346 0.961 . S
H1333 C1347 0.960 . S
H1334 C1347 0.961 1_565 S
H1335 C1347 0.959 . S
H1336 C1350 0.929 . S
H1337 C1351 0.931 . S
H1338 C1353 0.930 . S
C1339 H1327 0.930 . S
C1339 C1340 1.399 . S
C1339 C1344 1.399 . S
C1340 C1339 1.399 . S
C1340 C1341 1.376 . S
C1341 H1328 0.930 . S
C1341 C1340 1.376 . S
C1341 C1342 1.388 . S
C1342 H1329 0.930 . S
C1342 C1341 1.388 . S
C1342 C1343 1.390 . S
C1343 C1342 1.390 . S
C1343 C1344 1.394 . S
C1343 C1349 1.465 1_545 S
C1344 C1339 1.399 . S
C1344 C1343 1.394 . S
C1344 C1345 1.516 1_545 S
C1345 C1344 1.516 1_565 S
C1345 C1346 1.502 . S
C1345 C1347 1.561 1_565 S
C1345 C1348 1.526 . S
C1346 H1330 0.959 . S
C1346 H1331 0.959 . S
C1346 H1332 0.961 . S
C1346 C1345 1.502 . S
C1347 H1333 0.960 . S
C1347 H1334 0.961 1_545 S
C1347 H1335 0.959 . S
C1347 C1345 1.561 1_545 S
C1348 C1345 1.526 . S
C1348 C1349 1.396 . S
C1348 C1353 1.390 . S
C1349 C1343 1.465 1_565 S
C1349 C1348 1.396 . S
C1349 C1350 1.399 . S
C1350 H1336 0.929 . S
C1350 C1349 1.399 . S
C1350 C1351 1.385 . S
C1351 H1337 0.931 . S
C1351 C1350 1.385 . S
C1351 C1352 1.389 . S
C1352 C1351 1.389 . S
C1352 C1353 1.387 . S
C1353 H1338 0.930 . S
C1353 C1348 1.390 . S
C1353 C1352 1.387 . S
H1354 C1366 0.930 . S
H1355 C1368 0.930 . S
H1356 C1369 0.930 . S
H1357 C1373 0.959 . S
H1358 C1373 0.959 . S
H1359 C1373 0.961 . S
H1360 C1374 0.960 . S
H1361 C1374 0.961 1_455 S
H1362 C1374 0.959 . S
H1363 C1377 0.929 . S
H1364 C1378 0.931 . S
H1365 C1380 0.930 . S
C1366 H1354 0.930 . S
C1366 C1367 1.399 . S
C1366 C1371 1.399 . S
C1367 C1366 1.399 . S
C1367 C1368 1.376 . S
C1368 H1355 0.930 . S
C1368 C1367 1.376 . S
C1368 C1369 1.388 . S
C1369 H1356 0.930 . S
C1369 C1368 1.388 . S
C1369 C1370 1.390 . S
C1370 C1369 1.390 . S
C1370 C1371 1.394 . S
C1370 C1376 1.465 1_665 S
C1371 C1366 1.399 . S
C1371 C1370 1.394 . S
C1371 C1372 1.516 1_655 S
C1372 C1371 1.516 1_455 S
C1372 C1373 1.502 . S
C1372 C1374 1.561 1_465 S
C1372 C1375 1.526 1_565 S
C1373 H1357 0.959 . S
C1373 H1358 0.959 . S
C1373 H1359 0.961 . S
C1373 C1372 1.502 . S
C1374 H1360 0.960 . S
C1374 H1361 0.961 1_655 S
C1374 H1362 0.959 . S
C1374 C1372 1.561 1_645 S
C1375 C1372 1.526 1_545 S
C1375 C1376 1.396 . S
C1375 C1380 1.390 . S
C1376 C1370 1.465 1_445 S
C1376 C1375 1.396 . S
C1376 C1377 1.399 . S
C1377 H1363 0.929 . S
C1377 C1376 1.399 . S
C1377 C1378 1.385 . S
C1378 H1364 0.931 . S
C1378 C1377 1.385 . S
C1378 C1379 1.389 . S
C1379 C1378 1.389 . S
C1379 C1380 1.387 . S
C1380 H1365 0.930 . S
C1380 C1375 1.390 . S
C1380 C1379 1.387 . S
H1381 C1393 0.930 . S
H1382 C1395 0.930 . S
H1383 C1396 0.930 . S
H1384 C1400 0.959 . S
H1385 C1400 0.959 . S
H1386 C1400 0.961 . S
H1387 C1401 0.960 1_545 S
H1388 C1401 0.961 1_455 S
H1389 C1401 0.959 . S
H1390 C1404 0.929 1_655 S
H1391 C1405 0.931 . S
H1392 C1407 0.930 . S
C1393 H1381 0.930 . S
C1393 C1394 1.399 . S
C1393 C1398 1.399 . S
C1394 C1393 1.399 . S
C1394 C1395 1.376 . S
C1395 H1382 0.930 . S
C1395 C1394 1.376 . S
C1395 C1396 1.388 . S
C1396 H1383 0.930 . S
C1396 C1395 1.388 . S
C1396 C1397 1.390 . S
C1397 C1396 1.390 . S
C1397 C1398 1.394 . S
C1397 C1403 1.465 1_645 S
C1398 C1393 1.399 . S
C1398 C1397 1.394 . S
C1398 C1399 1.516 1_655 S
C1399 C1398 1.516 1_455 S
C1399 C1400 1.502 . S
C1399 C1401 1.561 1_445 S
C1399 C1402 1.526 1_545 S
C1400 H1384 0.959 . S
C1400 H1385 0.959 . S
C1400 H1386 0.961 . S
C1400 C1399 1.502 . S
C1401 H1387 0.960 1_565 S
C1401 H1388 0.961 1_655 S
C1401 H1389 0.959 . S
C1401 C1399 1.561 1_665 S
C1402 C1399 1.526 1_565 S
C1402 C1403 1.396 . S
C1402 C1407 1.390 . S
C1403 C1397 1.465 1_465 S
C1403 C1402 1.396 . S
C1403 C1404 1.399 . S
C1404 H1390 0.929 1_455 S
C1404 C1403 1.399 . S
C1404 C1405 1.385 . S
C1405 H1391 0.931 . S
C1405 C1404 1.385 . S
C1405 C1406 1.389 . S
C1406 C1405 1.389 . S
C1406 C1407 1.387 . S
C1407 H1392 0.930 . S
C1407 C1402 1.390 . S
C1407 C1406 1.387 . S
H1408 C1420 0.930 . S
H1409 C1422 0.930 . S
H1410 C1423 0.930 . S
H1411 C1427 0.959 . S
H1412 C1427 0.959 . S
H1413 C1427 0.961 . S
H1414 C1428 0.960 . S
H1415 C1428 0.961 . S
H1416 C1428 0.959 . S
H1417 C1431 0.929 . S
H1418 C1432 0.931 . S
H1419 C1434 0.930 . S
C1420 H1408 0.930 . S
C1420 C1421 1.399 . S
C1420 C1425 1.399 . S
C1421 C1420 1.399 . S
C1421 C1422 1.376 . S
C1422 H1409 0.930 . S
C1422 C1421 1.376 . S
C1422 C1423 1.388 . S
C1423 H1410 0.930 . S
C1423 C1422 1.388 . S
C1423 C1424 1.390 . S
C1424 C1423 1.390 . S
C1424 C1425 1.394 . S
C1424 C1430 1.465 . S
C1425 C1420 1.399 . S
C1425 C1424 1.394 . S
C1425 C1426 1.516 . S
C1426 C1425 1.516 . S
C1426 C1427 1.502 . S
C1426 C1428 1.561 . S
C1426 C1429 1.526 . S
C1427 H1411 0.959 . S
C1427 H1412 0.959 . S
C1427 H1413 0.961 . S
C1427 C1426 1.502 . S
C1428 H1414 0.960 . S
C1428 H1415 0.961 . S
C1428 H1416 0.959 . S
C1428 C1426 1.561 . S
C1429 C1426 1.526 . S
C1429 C1430 1.396 . S
C1429 C1434 1.390 . S
C1430 C1424 1.465 . S
C1430 C1429 1.396 . S
C1430 C1431 1.399 . S
C1431 H1417 0.929 . S
C1431 C1430 1.399 . S
C1431 C1432 1.385 . S
C1432 H1418 0.931 . S
C1432 C1431 1.385 . S
C1432 C1433 1.389 . S
C1433 C1432 1.389 . S
C1433 C1434 1.387 . S
C1434 H1419 0.930 . S
C1434 C1429 1.390 . S
C1434 C1433 1.387 . S
H1435 C1447 0.930 . S
H1436 C1449 0.930 . S
H1437 C1450 0.930 . S
H1438 C1454 0.959 . S
H1439 C1454 0.959 . S
H1440 C1454 0.961 . S
H1441 C1455 0.960 . S
H1442 C1455 0.961 . S
H1443 C1455 0.959 . S
H1444 C1458 0.929 . S
H1445 C1459 0.931 . S
H1446 C1461 0.930 . S
C1447 H1435 0.930 . S
C1447 C1448 1.399 . S
C1447 C1452 1.399 . S
C1448 C1447 1.399 . S
C1448 C1449 1.376 . S
C1449 H1436 0.930 . S
C1449 C1448 1.376 . S
C1449 C1450 1.388 . S
C1450 H1437 0.930 . S
C1450 C1449 1.388 . S
C1450 C1451 1.390 . S
C1451 C1450 1.390 . S
C1451 C1452 1.394 . S
C1451 C1457 1.465 . S
C1452 C1447 1.399 . S
C1452 C1451 1.394 . S
C1452 C1453 1.516 . S
C1453 C1452 1.516 . S
C1453 C1454 1.502 . S
C1453 C1455 1.561 . S
C1453 C1456 1.526 . S
C1454 H1438 0.959 . S
C1454 H1439 0.959 . S
C1454 H1440 0.961 . S
C1454 C1453 1.502 . S
C1455 H1441 0.960 . S
C1455 H1442 0.961 . S
C1455 H1443 0.959 . S
C1455 C1453 1.561 . S
C1456 C1453 1.526 . S
C1456 C1457 1.396 . S
C1456 C1461 1.390 . S
C1457 C1451 1.465 . S
C1457 C1456 1.396 . S
C1457 C1458 1.399 . S
C1458 H1444 0.929 . S
C1458 C1457 1.399 . S
C1458 C1459 1.385 . S
C1459 H1445 0.931 . S
C1459 C1458 1.385 . S
C1459 C1460 1.389 . S
C1460 C1459 1.389 . S
C1460 C1461 1.387 . S
C1461 H1446 0.930 . S
C1461 C1456 1.390 . S
C1461 C1460 1.387 . S
H1462 C1474 0.930 . S
H1463 C1476 0.930 . S
H1464 C1477 0.930 . S
H1465 C1481 0.959 . S
H1466 C1481 0.959 . S
H1467 C1481 0.961 . S
H1468 C1482 0.960 . S
H1469 C1482 0.961 . S
H1470 C1482 0.959 . S
H1471 C1485 0.929 . S
H1472 C1486 0.931 . S
H1473 C1488 0.930 . S
C1474 H1462 0.930 . S
C1474 C1475 1.399 . S
C1474 C1479 1.399 . S
C1475 C1474 1.399 . S
C1475 C1476 1.376 . S
C1476 H1463 0.930 . S
C1476 C1475 1.376 . S
C1476 C1477 1.388 . S
C1477 H1464 0.930 . S
C1477 C1476 1.388 . S
C1477 C1478 1.390 . S
C1478 C1477 1.390 . S
C1478 C1479 1.394 . S
C1478 C1484 1.465 . S
C1479 C1474 1.399 . S
C1479 C1478 1.394 . S
C1479 C1480 1.516 . S
C1480 C1479 1.516 . S
C1480 C1481 1.502 . S
C1480 C1482 1.561 . S
C1480 C1483 1.526 . S
C1481 H1465 0.959 . S
C1481 H1466 0.959 . S
C1481 H1467 0.961 . S
C1481 C1480 1.502 . S
C1482 H1468 0.960 . S
C1482 H1469 0.961 . S
C1482 H1470 0.959 . S
C1482 C1480 1.561 . S
C1483 C1480 1.526 . S
C1483 C1484 1.396 . S
C1483 C1488 1.390 . S
C1484 C1478 1.465 . S
C1484 C1483 1.396 . S
C1484 C1485 1.399 . S
C1485 H1471 0.929 . S
C1485 C1484 1.399 . S
C1485 C1486 1.385 . S
C1486 H1472 0.931 . S
C1486 C1485 1.385 . S
C1486 C1487 1.389 . S
C1487 C1486 1.389 . S
C1487 C1488 1.387 . S
C1488 H1473 0.930 . S
C1488 C1483 1.390 . S
C1488 C1487 1.387 . S
H1489 C1501 0.930 . S
H1490 C1503 0.930 . S
H1491 C1504 0.930 . S
H1492 C1508 0.959 . S
H1493 C1508 0.959 . S
H1494 C1508 0.961 . S
H1495 C1509 0.960 . S
H1496 C1509 0.961 . S
H1497 C1509 0.959 . S
H1498 C1512 0.929 . S
H1499 C1513 0.931 . S
H1500 C1515 0.930 . S
C1501 H1489 0.930 . S
C1501 C1502 1.399 . S
C1501 C1506 1.399 . S
C1502 C1501 1.399 . S
C1502 C1503 1.376 . S
C1503 H1490 0.930 . S
C1503 C1502 1.376 . S
C1503 C1504 1.388 . S
C1504 H1491 0.930 . S
C1504 C1503 1.388 . S
C1504 C1505 1.390 . S
C1505 C1504 1.390 . S
C1505 C1506 1.394 . S
C1505 C1511 1.465 . S
C1506 C1501 1.399 . S
C1506 C1505 1.394 . S
C1506 C1507 1.516 . S
C1507 C1506 1.516 . S
C1507 C1508 1.502 . S
C1507 C1509 1.561 . S
C1507 C1510 1.526 . S
C1508 H1492 0.959 . S
C1508 H1493 0.959 . S
C1508 H1494 0.961 . S
C1508 C1507 1.502 . S
C1509 H1495 0.960 . S
C1509 H1496 0.961 . S
C1509 H1497 0.959 . S
C1509 C1507 1.561 . S
C1510 C1507 1.526 . S
C1510 C1511 1.396 . S
C1510 C1515 1.390 . S
C1511 C1505 1.465 . S
C1511 C1510 1.396 . S
C1511 C1512 1.399 . S
C1512 H1498 0.929 . S
C1512 C1511 1.399 . S
C1512 C1513 1.385 . S
C1513 H1499 0.931 . S
C1513 C1512 1.385 . S
C1513 C1514 1.389 . S
C1514 C1513 1.389 . S
C1514 C1515 1.387 . S
C1515 H1500 0.930 . S
C1515 C1510 1.390 . S
C1515 C1514 1.387 . S
H1516 C1528 0.930 . S
H1517 C1530 0.930 . S
H1518 C1531 0.930 . S
H1519 C1535 0.959 . S
H1520 C1535 0.959 . S
H1521 C1535 0.961 . S
H1522 C1536 0.960 . S
H1523 C1536 0.961 . S
H1524 C1536 0.959 . S
H1525 C1539 0.929 . S
H1526 C1540 0.931 . S
H1527 C1542 0.930 . S
C1528 H1516 0.930 . S
C1528 C1529 1.399 . S
C1528 C1533 1.399 . S
C1529 C1528 1.399 . S
C1529 C1530 1.376 . S
C1530 H1517 0.930 . S
C1530 C1529 1.376 . S
C1530 C1531 1.388 . S
C1531 H1518 0.930 . S
C1531 C1530 1.388 . S
C1531 C1532 1.390 . S
C1532 C1531 1.390 . S
C1532 C1533 1.394 . S
C1532 C1538 1.465 . S
C1533 C1528 1.399 . S
C1533 C1532 1.394 . S
C1533 C1534 1.516 . S
C1534 C1533 1.516 . S
C1534 C1535 1.502 . S
C1534 C1536 1.561 . S
C1534 C1537 1.526 . S
C1535 H1519 0.959 . S
C1535 H1520 0.959 . S
C1535 H1521 0.961 . S
C1535 C1534 1.502 . S
C1536 H1522 0.960 . S
C1536 H1523 0.961 . S
C1536 H1524 0.959 . S
C1536 C1534 1.561 . S
C1537 C1534 1.526 . S
C1537 C1538 1.396 . S
C1537 C1542 1.390 . S
C1538 C1532 1.465 . S
C1538 C1537 1.396 . S
C1538 C1539 1.399 . S
C1539 H1525 0.929 . S
C1539 C1538 1.399 . S
C1539 C1540 1.385 . S
C1540 H1526 0.931 . S
C1540 C1539 1.385 . S
C1540 C1541 1.389 . S
C1541 C1540 1.389 . S
C1541 C1542 1.387 . S
C1542 H1527 0.930 . S
C1542 C1537 1.390 . S
C1542 C1541 1.387 . S
H1543 C1555 0.930 . S
H1544 C1557 0.930 . S
H1545 C1558 0.930 . S
H1546 C1562 0.959 . S
H1547 C1562 0.959 . S
H1548 C1562 0.961 . S
H1549 C1563 0.960 . S
H1550 C1563 0.961 . S
H1551 C1563 0.959 . S
H1552 C1566 0.929 . S
H1553 C1567 0.931 . S
H1554 C1569 0.930 . S
C1555 H1543 0.930 . S
C1555 C1556 1.399 . S
C1555 C1560 1.399 . S
C1556 C1555 1.399 . S
C1556 C1557 1.376 . S
C1557 H1544 0.930 . S
C1557 C1556 1.376 . S
C1557 C1558 1.388 . S
C1558 H1545 0.930 . S
C1558 C1557 1.388 . S
C1558 C1559 1.390 . S
C1559 C1558 1.390 . S
C1559 C1560 1.394 . S
C1559 C1565 1.465 . S
C1560 C1555 1.399 . S
C1560 C1559 1.394 . S
C1560 C1561 1.516 . S
C1561 C1560 1.516 . S
C1561 C1562 1.502 . S
C1561 C1563 1.561 . S
C1561 C1564 1.526 . S
C1562 H1546 0.959 . S
C1562 H1547 0.959 . S
C1562 H1548 0.961 . S
C1562 C1561 1.502 . S
C1563 H1549 0.960 . S
C1563 H1550 0.961 . S
C1563 H1551 0.959 . S
C1563 C1561 1.561 . S
C1564 C1561 1.526 . S
C1564 C1565 1.396 . S
C1564 C1569 1.390 . S
C1565 C1559 1.465 . S
C1565 C1564 1.396 . S
C1565 C1566 1.399 . S
C1566 H1552 0.929 . S
C1566 C1565 1.399 . S
C1566 C1567 1.385 . S
C1567 H1553 0.931 . S
C1567 C1566 1.385 . S
C1567 C1568 1.389 . S
C1568 C1567 1.389 . S
C1568 C1569 1.387 . S
C1569 H1554 0.930 . S
C1569 C1564 1.390 . S
C1569 C1568 1.387 . S
H1570 C1582 0.930 . S
H1571 C1584 0.930 . S
H1572 C1585 0.930 . S
H1573 C1589 0.959 . S
H1574 C1589 0.959 . S
H1575 C1589 0.961 . S
H1576 C1590 0.960 . S
H1577 C1590 0.961 . S
H1578 C1590 0.959 . S
H1579 C1593 0.929 . S
H1580 C1594 0.931 . S
H1581 C1596 0.930 . S
C1582 H1570 0.930 . S
C1582 C1583 1.399 . S
C1582 C1587 1.399 . S
C1583 C1582 1.399 . S
C1583 C1584 1.376 . S
C1584 H1571 0.930 . S
C1584 C1583 1.376 . S
C1584 C1585 1.388 . S
C1585 H1572 0.930 . S
C1585 C1584 1.388 . S
C1585 C1586 1.390 . S
C1586 C1585 1.390 . S
C1586 C1587 1.394 . S
C1586 C1592 1.465 . S
C1587 C1582 1.399 . S
C1587 C1586 1.394 . S
C1587 C1588 1.516 . S
C1588 C1587 1.516 . S
C1588 C1589 1.502 . S
C1588 C1590 1.561 . S
C1588 C1591 1.526 . S
C1589 H1573 0.959 . S
C1589 H1574 0.959 . S
C1589 H1575 0.961 . S
C1589 C1588 1.502 . S
C1590 H1576 0.960 . S
C1590 H1577 0.961 . S
C1590 H1578 0.959 . S
C1590 C1588 1.561 . S
C1591 C1588 1.526 . S
C1591 C1592 1.396 . S
C1591 C1596 1.390 . S
C1592 C1586 1.465 . S
C1592 C1591 1.396 . S
C1592 C1593 1.399 . S
C1593 H1579 0.929 . S
C1593 C1592 1.399 . S
C1593 C1594 1.385 . S
C1594 H1580 0.931 . S
C1594 C1593 1.385 . S
C1594 C1595 1.389 . S
C1595 C1594 1.389 . S
C1595 C1596 1.387 . S
C1596 H1581 0.930 . S
C1596 C1591 1.390 . S
C1596 C1595 1.387 . S
H1597 C1609 0.930 . S
H1598 C1611 0.930 . S
H1599 C1612 0.930 . S
H1600 C1616 0.959 . S
H1601 C1616 0.959 . S
H1602 C1616 0.961 . S
H1603 C1617 0.960 . S
H1604 C1617 0.961 . S
H1605 C1617 0.959 . S
H1606 C1620 0.929 . S
H1607 C1621 0.931 . S
H1608 C1623 0.930 . S
C1609 H1597 0.930 . S
C1609 C1610 1.399 . S
C1609 C1614 1.399 . S
C1610 C1609 1.399 . S
C1610 C1611 1.376 . S
C1611 H1598 0.930 . S
C1611 C1610 1.376 . S
C1611 C1612 1.388 . S
C1612 H1599 0.930 . S
C1612 C1611 1.388 . S
C1612 C1613 1.390 . S
C1613 C1612 1.390 . S
C1613 C1614 1.394 . S
C1613 C1619 1.465 . S
C1614 C1609 1.399 . S
C1614 C1613 1.394 . S
C1614 C1615 1.516 . S
C1615 C1614 1.516 . S
C1615 C1616 1.502 . S
C1615 C1617 1.561 . S
C1615 C1618 1.526 . S
C1616 H1600 0.959 . S
C1616 H1601 0.959 . S
C1616 H1602 0.961 . S
C1616 C1615 1.502 . S
C1617 H1603 0.960 . S
C1617 H1604 0.961 . S
C1617 H1605 0.959 . S
C1617 C1615 1.561 . S
C1618 C1615 1.526 . S
C1618 C1619 1.396 . S
C1618 C1623 1.390 . S
C1619 C1613 1.465 . S
C1619 C1618 1.396 . S
C1619 C1620 1.399 . S
C1620 H1606 0.929 . S
C1620 C1619 1.399 . S
C1620 C1621 1.385 . S
C1621 H1607 0.931 . S
C1621 C1620 1.385 . S
C1621 C1622 1.389 . S
C1622 C1621 1.389 . S
C1622 C1623 1.387 . S
C1623 H1608 0.930 . S
C1623 C1618 1.390 . S
C1623 C1622 1.387 . S
C557 C2 1.491 . S
C569 C478 1.511 . S
C584 C36 1.517 . S
C596 C512 1.490 . S
C611 C70 1.519 . S
C623 C410 1.497 . S
C638 C104 1.488 . S
C650 C444 1.522 . S
C665 C138 1.492 . S
C677 C342 1.510 . S
C692 C172 1.484 . S
C704 C376 1.523 . S
C719 C274 1.484 . S
C731 C206 1.522 . S
C746 C308 1.519 . S
C758 C240 1.488 . S
C773 C33 0.920 . S
C785 C39 0.898 1_554 S
C800 C67 0.953 . S
C812 C73 0.901 1_556 S
C827 C101 0.915 . S
C839 C107 0.952 . S
C854 C5 0.953 . S
C866 C135 0.898 . S
C881 C515 0.931 . S
C893 C169 0.890 . S
C908 C413 0.950 . S
C920 C203 0.902 . S
C935 C447 0.916 . S
C947 C237 0.890 . S
C962 C481 0.947 . S
C974 C271 0.893 . S
C989 C305 0.935 . S
C1001 C311 0.948 . S
C1016 C339 0.890 . S
C1028 C345 0.932 . S
C1043 C379 0.918 . S
C1055 C373 0.890 . S
C1070 C407 0.955 . S
C1082 C277 0.907 . S
C1097 C441 0.930 . S
C1109 C243 0.902 . S
C1124 C141 0.949 . S
C1136 C475 0.899 . S
C1151 C175 0.914 . S
C1163 C509 0.892 . S
C1178 C543 0.896 . S
C1190 C209 0.923 . S
C1205 C9 1.461 . S
C1217 C77 1.528 . S
C1232 C43 1.481 . S
C1244 C111 1.536 . S
C1259 C213 1.500 . S
C1271 C145 1.450 . S
C1286 C247 1.480 . S
C1298 C179 1.440 . S
C1313 C281 1.462 . S
C1325 C349 1.526 . S
C1340 C315 1.434 . S
C1352 C383 1.488 . S
C1367 C417 1.468 . S
C1379 C485 1.522 . S
C1394 C451 1.538 . S
C1406 C519 1.478 . S
C1421 C156 2.013 . S
C1433 C20 1.977 . S
C1448 C190 2.002 . S
C1460 C54 1.966 . S
C1475 C88 2.007 . S
C1487 C224 1.965 . S
C1502 C258 1.962 . S
C1514 C122 2.008 . S
C1529 C292 1.999 . S
C1541 C428 2.004 . S
C1556 C462 1.977 . S
C1568 C326 2.008 . S
C1583 C496 1.978 . S
C1595 C360 1.972 . S
C1610 C394 1.996 . S
C1622 C530 1.970 . S
