# Generated by pormake.
# Topology whw, (6)-cn, num edge types: 1
# Building blocks:
#     Node 0, Type 0, BuildingBlock: CUWYAW_clean_sbu_0, # of connection points: 6
#     Node 1, Type 0, BuildingBlock: CUWYAW_clean_sbu_0, # of connection points: 6
#     Node 2, Type 0, BuildingBlock: CUWYAW_clean_sbu_0, # of connection points: 6
#     Node 3, Type 0, BuildingBlock: CUWYAW_clean_sbu_0, # of connection points: 6
#     Node 4, Type 0, BuildingBlock: CUWYAW_clean_sbu_0, # of connection points: 6
#     Node 5, Type 0, BuildingBlock: CUWYAW_clean_sbu_0, # of connection points: 6
#     Node 6, Type 0, BuildingBlock: CUWYAW_clean_sbu_0, # of connection points: 6
#     Node 7, Type 0, BuildingBlock: CUWYAW_clean_sbu_0, # of connection points: 6
#     Node 8, Type 0, BuildingBlock: CUWYAW_clean_sbu_0, # of connection points: 6
#     Node 9, Type 0, BuildingBlock: CUWYAW_clean_sbu_0, # of connection points: 6
#     Node 10, Type 0, BuildingBlock: CUWYAW_clean_sbu_0, # of connection points: 6
#     Node 11, Type 0, BuildingBlock: CUWYAW_clean_sbu_0, # of connection points: 6
#     Node 12, Type 0, BuildingBlock: CUWYAW_clean_sbu_0, # of connection points: 6
#     Node 13, Type 0, BuildingBlock: CUWYAW_clean_sbu_0, # of connection points: 6
#     Node 14, Type 0, BuildingBlock: CUWYAW_clean_sbu_0, # of connection points: 6
#     Node 15, Type 0, BuildingBlock: CUWYAW_clean_sbu_0, # of connection points: 6
#     Edge 16, Type (0, 0), BuildingBlock: OJICUG_clean_linker_0, # of connection points: 2
#     Edge 17, Type (0, 0), BuildingBlock: OJICUG_clean_linker_0, # of connection points: 2
#     Edge 18, Type (0, 0), BuildingBlock: OJICUG_clean_linker_0, # of connection points: 2
#     Edge 19, Type (0, 0), BuildingBlock: OJICUG_clean_linker_0, # of connection points: 2
#     Edge 20, Type (0, 0), BuildingBlock: OJICUG_clean_linker_0, # of connection points: 2
#     Edge 21, Type (0, 0), BuildingBlock: OJICUG_clean_linker_0, # of connection points: 2
#     Edge 22, Type (0, 0), BuildingBlock: OJICUG_clean_linker_0, # of connection points: 2
#     Edge 23, Type (0, 0), BuildingBlock: OJICUG_clean_linker_0, # of connection points: 2
#     Edge 24, Type (0, 0), BuildingBlock: OJICUG_clean_linker_0, # of connection points: 2
#     Edge 25, Type (0, 0), BuildingBlock: OJICUG_clean_linker_0, # of connection points: 2
#     Edge 26, Type (0, 0), BuildingBlock: OJICUG_clean_linker_0, # of connection points: 2
#     Edge 27, Type (0, 0), BuildingBlock: OJICUG_clean_linker_0, # of connection points: 2
#     Edge 28, Type (0, 0), BuildingBlock: OJICUG_clean_linker_0, # of connection points: 2
#     Edge 29, Type (0, 0), BuildingBlock: OJICUG_clean_linker_0, # of connection points: 2
#     Edge 30, Type (0, 0), BuildingBlock: OJICUG_clean_linker_0, # of connection points: 2
#     Edge 31, Type (0, 0), BuildingBlock: OJICUG_clean_linker_0, # of connection points: 2
#     Edge 32, Type (0, 0), BuildingBlock: OJICUG_clean_linker_0, # of connection points: 2
#     Edge 33, Type (0, 0), BuildingBlock: OJICUG_clean_linker_0, # of connection points: 2
#     Edge 34, Type (0, 0), BuildingBlock: OJICUG_clean_linker_0, # of connection points: 2
#     Edge 35, Type (0, 0), BuildingBlock: OJICUG_clean_linker_0, # of connection points: 2
#     Edge 36, Type (0, 0), BuildingBlock: OJICUG_clean_linker_0, # of connection points: 2
#     Edge 37, Type (0, 0), BuildingBlock: OJICUG_clean_linker_0, # of connection points: 2
#     Edge 38, Type (0, 0), BuildingBlock: OJICUG_clean_linker_0, # of connection points: 2
#     Edge 39, Type (0, 0), BuildingBlock: OJICUG_clean_linker_0, # of connection points: 2
#     Edge 40, Type (0, 0), BuildingBlock: OJICUG_clean_linker_0, # of connection points: 2
#     Edge 41, Type (0, 0), BuildingBlock: OJICUG_clean_linker_0, # of connection points: 2
#     Edge 42, Type (0, 0), BuildingBlock: OJICUG_clean_linker_0, # of connection points: 2
#     Edge 43, Type (0, 0), BuildingBlock: OJICUG_clean_linker_0, # of connection points: 2
#     Edge 44, Type (0, 0), BuildingBlock: OJICUG_clean_linker_0, # of connection points: 2
#     Edge 45, Type (0, 0), BuildingBlock: OJICUG_clean_linker_0, # of connection points: 2
#     Edge 46, Type (0, 0), BuildingBlock: OJICUG_clean_linker_0, # of connection points: 2
#     Edge 47, Type (0, 0), BuildingBlock: OJICUG_clean_linker_0, # of connection points: 2
#     Edge 48, Type (0, 0), BuildingBlock: OJICUG_clean_linker_0, # of connection points: 2
#     Edge 49, Type (0, 0), BuildingBlock: OJICUG_clean_linker_0, # of connection points: 2
#     Edge 50, Type (0, 0), BuildingBlock: OJICUG_clean_linker_0, # of connection points: 2
#     Edge 51, Type (0, 0), BuildingBlock: OJICUG_clean_linker_0, # of connection points: 2
#     Edge 52, Type (0, 0), BuildingBlock: OJICUG_clean_linker_0, # of connection points: 2
#     Edge 53, Type (0, 0), BuildingBlock: OJICUG_clean_linker_0, # of connection points: 2
#     Edge 54, Type (0, 0), BuildingBlock: OJICUG_clean_linker_0, # of connection points: 2
#     Edge 55, Type (0, 0), BuildingBlock: OJICUG_clean_linker_0, # of connection points: 2
#     Edge 56, Type (0, 0), BuildingBlock: OJICUG_clean_linker_0, # of connection points: 2
#     Edge 57, Type (0, 0), BuildingBlock: OJICUG_clean_linker_0, # of connection points: 2
#     Edge 58, Type (0, 0), BuildingBlock: OJICUG_clean_linker_0, # of connection points: 2
#     Edge 59, Type (0, 0), BuildingBlock: OJICUG_clean_linker_0, # of connection points: 2
#     Edge 60, Type (0, 0), BuildingBlock: OJICUG_clean_linker_0, # of connection points: 2
#     Edge 61, Type (0, 0), BuildingBlock: OJICUG_clean_linker_0, # of connection points: 2
#     Edge 62, Type (0, 0), BuildingBlock: OJICUG_clean_linker_0, # of connection points: 2
#     Edge 63, Type (0, 0), BuildingBlock: OJICUG_clean_linker_0, # of connection points: 2
# Relax obj value: 0.595
# Max RMSD: 0.300
# Mean RMSD: 0.251
data_MOF--net-whw--node1-CUWYAW_clean_sbu_0--edge1-OJICUG_clean_linker_0
_symmetry_space_group_name_H-M    P1
_symmetry_Int_Tables_number       1
_symmetry_cell_setting            triclinic
loop_
_symmetry_equiv_pos_as_xyz
'x, y, z'
_cell_length_a     33.489183
_cell_length_b     33.302672
_cell_length_c     26.275071
_cell_angle_alpha  99.388509
_cell_angle_beta   82.133779
_cell_angle_gamma 92.574715
loop_
_atom_site_label
_atom_site_type_symbol
_atom_site_fract_x
_atom_site_fract_y
_atom_site_fract_z
_atom_type_partial_charge
C0 C 0.88803 0.15263 0.22278 0.0
Eu1 Eu 0.95783 0.15961 0.257 0.0
C2 C 0.87059 0.13272 0.1761 0.0
C3 C 0.86568 0.1553 0.13684 0.0
C4 C 0.85348 0.13605 0.09015 0.0
C5 C 0.84556 0.09381 0.08189 0.0
C6 C 0.8473 0.0718 0.12271 0.0
C7 C 0.85969 0.09105 0.16948 0.0
C8 C -0.00024 0.22903 0.2902 0.0
C9 C 0.03621 0.16829 0.16716 0.0
C10 C 0.10731 0.13365 0.31617 0.0
Eu11 Eu 0.04023 0.14233 0.28035 0.0
C12 C 0.11861 0.1318 0.36769 0.0
C13 C 0.15049 0.10731 0.37221 0.0
C14 C 0.16181 0.10557 0.42106 0.0
C15 C 0.14137 0.12841 0.4661 0.0
C16 C 0.10809 0.15133 0.46137 0.0
C17 C 0.09678 0.15292 0.41264 0.0
C18 C 0.01025 0.08155 0.21487 0.0
C19 C 0.96604 0.15969 0.37909 0.0
O20 O 0.8995 0.12873 0.25276 0.0
O21 O 0.91347 0.18308 0.2168 0.0
O22 O 0.96104 0.22381 0.30196 0.0
O23 O 0.01309 0.19631 0.2644 0.0
O24 O -0.00356 0.16132 0.17673 0.0
O25 O 0.05946 0.16782 0.20444 0.0
O26 O 0.09542 0.16889 0.30821 0.0
O27 O 0.08475 0.10304 0.29807 0.0
O28 O 0.04796 0.09129 0.21466 0.0
O29 O -0.01106 0.10159 0.25422 0.0
O30 O 0.00436 0.15107 0.36261 0.0
O31 O 0.94088 0.16277 0.34523 0.0
H32 H 0.87298 0.18761 0.14126 0.0
H33 H 0.85284 0.15391 1.05933 0.0
H34 H 0.84054 0.03946 0.11764 0.0
H35 H 0.86216 0.07294 0.19956 0.0
H36 H 0.16708 0.0901 0.33787 0.0
H37 H 0.18737 0.08748 0.42342 0.0
H38 H 0.09208 0.16998 0.49495 0.0
H39 H 0.07164 0.17151 0.41005 0.0
C40 C 0.16444 0.60071 0.41505 0.0
Eu41 Eu 0.15355 0.67051 0.47511 0.0
C42 C 0.18967 0.58675 0.36542 0.0
C43 C 0.17119 0.56738 0.32308 0.0
C44 C 0.19306 0.5603 0.27354 0.0
C45 C 0.23408 0.57222 0.26538 0.0
C46 C 0.25341 0.58818 0.30882 0.0
C47 C 0.23135 0.59566 0.35837 0.0
C48 C 0.08543 0.7102 0.5214 0.0
C49 C 0.14435 0.74911 0.41367 0.0
C50 C 0.18224 0.82224 0.59193 0.0
Eu51 Eu 0.17214 0.75473 0.52875 0.0
C52 C 0.17901 0.83453 0.64878 0.0
C53 C 0.19987 0.86946 0.66967 0.0
C54 C 0.19641 0.88193 0.7236 0.0
C55 C 0.17215 0.85949 0.75761 0.0
C56 C 0.15246 0.82363 0.73639 0.0
C57 C 0.15583 0.81133 0.68254 0.0
C58 C 0.23271 0.72184 0.45735 0.0
C59 C 0.14843 0.68032 0.59995 0.0
O60 O 0.18354 0.61252 0.45538 0.0
O61 O 0.13504 0.6248 0.41285 0.0
O62 O 0.08991 0.67108 0.51778 0.0
O63 O 0.11789 0.72503 0.50177 0.0
O64 O 0.14921 0.70894 0.40944 0.0
O65 O 0.14802 0.77346 0.45857 0.0
O66 O 0.14852 0.81202 0.57242 0.0
O67 O 0.21152 0.79758 0.57138 0.0
O68 O 0.22384 0.75991 0.46586 0.0
O69 O 0.21115 0.70271 0.48975 0.0
O70 O 0.1583 0.71907 0.59772 0.0
O71 O 0.14625 0.65406 0.55684 0.0
H72 H 0.13918 0.56 0.32775 0.0
H73 H 0.17676 0.54846 0.24125 0.0
H74 H 0.28503 0.59711 0.30416 0.0
H75 H 0.24655 0.61036 0.3905 0.0
H76 H 0.21832 0.88748 0.64421 0.0
H77 H 0.21202 0.90959 0.73866 0.0
H78 H 0.13285 0.80604 0.76124 0.0
H79 H 0.13954 0.7842 0.66731 0.0
C80 C 0.678 0.85108 0.51503 0.0
Eu81 Eu 0.60657 0.84936 0.56783 0.0
C82 C 0.69702 0.87975 0.48182 0.0
C83 C 0.7257 0.86613 0.43954 0.0
C84 C 0.73896 0.89157 0.40319 0.0
C85 C 0.72318 0.9309 0.40827 0.0
C86 C 0.69756 0.94579 0.45368 0.0
C87 C 0.68447 0.9203 0.49011 0.0
C88 C 0.56985 0.79359 0.6238 0.0
C89 C 0.52923 0.8243 0.50038 0.0
C90 C 0.45645 0.89345 0.67518 0.0
Eu91 Eu 0.52388 0.87319 0.6163 0.0
C92 C 0.44346 0.89349 0.73076 0.0
C93 C 0.41107 0.91704 0.75719 0.0
C94 C 0.40155 0.91967 0.81125 0.0
C95 C 0.42478 0.89916 0.83917 0.0
C96 C 0.45646 0.87485 0.81215 0.0
C97 C 0.46568 0.87213 0.75856 0.0
C98 C 0.56206 0.9241 0.55237 0.0
C99 C 0.59523 0.87408 0.69245 0.0
O100 O 0.66993 0.86655 0.56402 0.0
O101 O 0.64825 0.82839 0.49769 0.0
O102 O 0.60866 0.79746 0.61353 0.0
O103 O 0.55336 0.81415 0.59674 0.0
O104 O 0.56868 0.83341 0.49839 0.0
O105 O 0.50526 0.832 0.54514 0.0
O106 O 0.46228 0.85759 0.64669 0.0
O107 O 0.4856 0.91953 0.66487 0.0
O108 O 0.52475 0.9122 0.55318 0.0
O109 O 0.57784 0.90951 0.58619 0.0
O110 O 0.55614 0.87334 0.68859 0.0
O111 O 0.62169 0.87147 0.64994 0.0
H112 H 0.73591 0.83505 0.43286 0.0
H113 H 0.75829 0.87864 0.36843 0.0
H114 H 0.6849 0.97578 0.45866 0.0
H115 H 0.66274 0.93152 0.52323 0.0
H116 H 0.39374 0.93394 0.73625 0.0
H117 H 0.37686 0.93847 0.83133 0.0
H118 H 0.4743 0.85801 0.83255 0.0
H119 H 0.49072 0.85392 0.739 0.0
C120 C 0.46113 0.38784 0.81215 0.0
Eu121 Eu 0.45938 0.31543 0.83815 0.0
C122 C 0.4317 0.40892 0.79027 0.0
C123 C 0.44493 0.43679 0.75686 0.0
C124 C 0.41847 0.44919 0.72614 0.0
C125 C 0.37868 0.43307 0.72779 0.0
C126 C 0.36425 0.40969 0.76664 0.0
C127 C 0.39071 0.39737 0.79738 0.0
C128 C 0.51395 0.27899 0.88174 0.0
C129 C 0.48292 0.23789 0.7425 0.0
C130 C 0.41309 0.16239 0.88759 0.0
Eu131 Eu 0.43436 0.23106 0.8551 0.0
C132 C 0.41258 0.1486 0.93783 0.0
C133 C 0.39099 0.1132 0.94845 0.0
C134 C 0.38786 0.10235 0.99819 0.0
C135 C 0.40586 0.12725 1.03773 0.0
C136 C 0.42826 0.16205 1.02633 0.0
C137 C 0.43159 0.17256 0.97686 0.0
C138 C 0.38509 0.26629 0.80164 0.0
C139 C 0.43328 0.30433 0.95739 0.0
O140 O 0.44973 0.38047 0.85917 0.0
O141 O 0.47768 0.35633 0.78164 0.0
O142 O 0.51095 0.31811 0.88699 0.0
O143 O 0.4931 0.26255 0.84761 0.0
O144 O 0.47512 0.27758 0.75521 0.0
O145 O 0.47463 0.21346 0.77795 0.0
O146 O 0.44877 0.16936 0.86298 0.0
O147 O 0.38786 0.19127 0.88771 0.0
O148 O 0.39629 0.22895 0.79035 0.0
O149 O 0.39939 0.28402 0.84189 0.0
O150 O 0.43488 0.26473 0.93955 0.0
O151 O 0.43471 0.33031 0.92414 0.0
H152 H 0.47641 0.44625 0.75128 0.0
H153 H 0.43084 0.46702 0.69647 0.0
H154 H 0.33395 0.39681 0.76882 0.0
H155 H 0.37986 0.37613 0.82358 0.0
H156 H 0.376 0.09445 0.91867 0.0
H157 H 0.37059 0.07527 1.00614 0.0
H158 H 0.44317 0.18129 1.05581 0.0
H159 H 0.44851 0.19979 0.96941 0.0
C160 C 0.96774 0.9016 0.84205 0.0
Eu161 Eu 0.98213 0.91721 0.93935 0.0
C162 C 0.9615 0.88875 0.78559 0.0
C163 C 0.94127 0.91289 0.75836 0.0
C164 C 0.93418 0.89892 0.70632 0.0
C165 C 0.94721 0.86031 0.67939 0.0
C166 C 0.96802 0.8367 0.70681 0.0
C167 C 0.97484 0.85051 0.75863 0.0
C168 C -0.00583 0.97884 1.01868 0.0
C169 C 0.07965 0.90737 0.94518 0.0
C170 C 0.02739 0.88027 0.13656 0.0
Eu171 Eu 0.01429 0.892 1.04303 0.0
C172 C 0.04823 0.85988 0.17274 0.0
C173 C 0.06022 0.81899 0.16147 0.0
C174 C 0.07703 0.80056 0.19854 0.0
C175 C 0.08201 0.82215 0.24861 0.0
C176 C 0.06976 0.86314 0.25919 0.0
C177 C 0.05354 0.88151 0.22205 0.0
C178 C 0.00225 0.83264 0.96446 0.0
C179 C 0.91936 0.9164 1.038 0.0
O180 O 0.978 0.87458 0.86851 0.0
O181 O 0.96498 0.93873 0.86876 0.0
O182 O 0.96944 0.98156 0.98471 0.0
O183 O 0.014 0.9465 1.00484 0.0
O184 O 0.04984 0.91536 0.9201 0.0
O185 O 0.07457 0.89889 0.99348 0.0
O186 O 0.04664 0.90805 0.11183 0.0
O187 O 0.00091 0.85941 0.10981 0.0
O188 O 0.02845 0.83073 0.996 0.0
O189 O 0.98125 0.86373 0.97887 0.0
O190 O 0.95009 0.91552 1.06528 0.0
O191 O 0.92275 0.90996 0.98678 0.0
H192 H 0.93028 0.94236 0.77754 0.0
H193 H 0.91771 0.91829 0.68764 0.0
H194 H 0.97967 0.80739 0.68815 0.0
H195 H -0.0092 0.83091 0.77769 0.0
H196 H 0.05646 0.80112 0.12405 0.0
H197 H 0.08632 0.76933 0.18747 0.0
H198 H 0.07147 0.88125 0.29694 0.0
H199 H 0.04401 0.91278 0.23265 0.0
C200 C 0.42431 0.60688 0.2444 0.0
Eu201 Eu 0.42685 0.68072 0.22365 0.0
C202 C 0.4017 0.58844 0.28658 0.0
C203 C 0.40259 0.54653 0.28718 0.0
C204 C 0.3812 0.52997 0.3288 0.0
C205 C 0.35867 0.55527 0.36995 0.0
C206 C 0.35601 0.59684 0.36692 0.0
C207 C 0.37751 0.61317 0.32576 0.0
C208 C 0.48334 0.72362 0.16957 0.0
C209 C 0.45171 0.75574 0.31411 0.0
C210 C 0.38287 0.83435 0.19718 0.0
Eu211 Eu 0.40244 0.76511 0.21911 0.0
C212 C 0.39007 0.85259 0.14959 0.0
C213 C 0.36268 0.88006 0.13969 0.0
C214 C 0.36772 0.89458 0.09211 0.0
C215 C 0.4004 0.8819 1.05417 0.0
C216 C 0.42807 0.85485 1.06478 0.0
C217 C 0.42284 0.84017 0.11193 0.0
C218 C 0.35239 0.72693 0.28742 0.0
C219 C 0.4135 0.697 0.10949 0.0
O220 O 0.40138 0.61943 0.21402 0.0
O221 O 0.4525 0.63372 0.25756 0.0
O222 O 0.4817 0.68406 0.16174 0.0
O223 O 0.46029 0.73665 0.20975 0.0
O224 O 0.44253 0.71602 0.30298 0.0
O225 O 0.44386 0.78106 0.28259 0.0
O226 O 0.41488 0.82976 0.21907 0.0
O227 O 0.35883 0.80218 0.19476 0.0
O228 O 0.36308 0.76483 0.29526 0.0
O229 O 0.36684 0.71017 0.24197 0.0
O230 O 0.40954 0.73589 0.13129 0.0
O231 O 0.41559 0.66879 0.13899 0.0
H232 H 0.42056 0.52695 0.25633 0.0
H233 H 0.38375 0.49787 0.33012 0.0
H234 H 0.33973 0.61754 0.39816 0.0
H235 H 0.37646 0.64546 0.32518 0.0
H236 H 0.33698 0.88956 0.16826 0.0
H237 H 0.34598 0.91535 0.08476 0.0
H238 H 0.45303 0.84384 1.03583 0.0
H239 H 0.44385 0.81832 0.11843 0.0
C240 C 0.69169 0.15361 0.45132 0.0
Eu241 Eu 0.6184 0.14511 0.42799 0.0
C242 C 0.71448 0.13988 0.48936 0.0
C243 C 0.71663 0.16399 0.53796 0.0
C244 C 0.73357 0.14876 0.57627 0.0
C245 C 0.74896 0.10919 0.56665 0.0
C246 C 0.74969 0.08635 0.51668 0.0
C247 C 0.73275 0.10162 0.4783 0.0
C248 C 0.57046 0.19722 0.3969 0.0
C249 C 0.54613 0.16214 0.52774 0.0
C250 C 0.46774 0.08644 0.38216 0.0
Eu251 Eu 0.53607 0.11259 0.41315 0.0
C252 C 0.4489 0.09254 0.33696 0.0
C253 C 0.4243 0.06187 0.31331 0.0
C254 C 0.41 0.06602 0.26687 0.0
C255 C 0.42 0.10105 0.24392 0.0
C256 C 0.44403 0.13198 0.26846 0.0
C257 C 0.45851 0.12766 0.31437 0.0
C258 C 0.57854 0.06438 0.45953 0.0
C259 C 0.6015 0.1287 0.30885 0.0
O260 O 0.68009 0.125 0.41564 0.0
O261 O 0.66381 0.18064 0.46933 0.0
O262 O 0.60947 0.19906 0.38611 0.0
O263 O 0.5609 0.1732 0.42826 0.0
O264 O 0.58551 0.15625 0.51301 0.0
O265 O 0.52027 0.15223 0.49319 0.0
O266 O 0.47126 0.1188 0.41706 0.0
O267 O 0.50058 0.06518 0.37112 0.0
O268 O 0.54096 0.07276 0.47239 0.0
O269 O 0.59279 0.08111 0.42045 0.0
O270 O 0.56334 0.1218 0.32848 0.0
O271 O 0.62986 0.13383 0.33977 0.0
H272 H 0.70353 0.19388 0.54731 0.0
H273 H 0.73206 0.16705 0.61452 0.0
H274 H 0.76177 0.056 0.50796 0.0
H275 H 0.7325 0.08268 0.44069 0.0
H276 H 0.41707 0.03434 0.33 0.0
H277 H 0.39161 0.04174 0.24859 0.0
H278 H 0.45303 0.15887 0.25106 0.0
H279 H 0.47824 0.15127 0.33134 0.0
C280 C 0.19554 0.33426 0.53056 0.0
Eu281 Eu 0.20844 0.31736 0.62102 0.0
C282 C 0.18517 0.34551 0.48036 0.0
C283 C 0.20632 0.33029 0.43132 0.0
C284 C 0.1935 0.33802 0.38464 0.0
C285 C 0.15899 0.36129 0.38516 0.0
C286 C 0.13857 0.37718 0.43452 0.0
C287 C 0.15126 0.36935 0.48091 0.0
C288 C 0.267 0.31091 0.68131 0.0
C289 C 0.19448 0.22137 0.63106 0.0
C290 C 0.15684 0.26179 0.82195 0.0
Eu291 Eu 0.17858 0.29085 0.73492 0.0
C292 C 0.14277 0.24406 0.87094 0.0
C293 C 0.10892 0.21733 0.87359 0.0
C294 C 0.09249 0.20431 0.92075 0.0
C295 C 0.10926 0.21738 0.96734 0.0
C296 C 0.14413 0.24295 0.96407 0.0
C297 C 0.16057 0.25598 0.91677 0.0
C298 C 0.12383 0.3193 0.68229 0.0
C299 C 0.20413 0.3843 0.7248 0.0
O300 O 0.1723 0.34551 0.57456 0.0
O301 O 0.228 0.31499 0.53573 0.0
O302 O 0.27175 0.33222 0.64297 0.0
O303 O 0.23485 0.28969 0.68012 0.0
O304 O 0.2038 0.24954 0.60088 0.0
O305 O 0.18508 0.22933 0.68244 0.0
O306 O 0.1916 0.28115 0.81273 0.0
O307 O 0.13527 0.2574 0.78332 0.0
O308 O 0.12367 0.32798 0.73236 0.0
O309 O 0.15305 0.29696 0.66447 0.0
O310 O 0.20179 0.35508 0.75404 0.0
O311 O 0.20156 0.37798 0.67428 0.0
H312 H 0.23225 0.31144 0.42888 0.0
H313 H 0.21014 0.32464 0.34802 0.0
H314 H 0.11251 0.39593 0.43766 0.0
H315 H 0.13391 0.38174 0.51753 0.0
H316 H 0.0943 0.20715 0.8393 0.0
H317 H 0.06637 0.18397 0.92048 0.0
H318 H 0.15819 0.25417 0.99851 0.0
H319 H 0.18656 0.27654 0.91657 0.0
C320 C 0.94655 0.10745 0.74138 0.0
Eu321 Eu 0.93665 0.18023 0.72203 0.0
C322 C 0.92612 0.08396 0.78077 0.0
C323 C 0.94761 0.07337 0.81856 0.0
C324 C 0.92716 0.05866 0.86191 0.0
C325 C 0.88483 0.05416 0.86799 0.0
C326 C 0.86395 0.06051 0.82736 0.0
C327 C 0.88432 0.07553 0.78422 0.0
C328 C 0.98549 0.2335 0.6739 0.0
C329 C 0.94949 0.25622 0.81787 0.0
C330 C 0.87159 0.32478 0.69863 0.0
Eu331 Eu 0.89844 0.25891 0.72153 0.0
C332 C 0.8788 0.34249 0.65049 0.0
C333 C 0.84956 0.36624 0.63704 0.0
C334 C 0.85555 0.38051 0.58922 0.0
C335 C 0.89096 0.37127 0.55448 0.0
C336 C 0.92023 0.34769 0.56852 0.0
C337 C 0.91416 0.33336 0.61594 0.0
C338 C 0.85445 0.21182 0.7852 0.0
C339 C 0.9199 0.19463 0.60887 0.0
O340 O 0.92458 0.1152 0.70687 0.0
O341 O 0.9686 0.13901 0.75846 0.0
O342 O -0.0103 0.19429 0.66237 0.0
O343 O 0.96051 0.24134 0.71372 0.0
O344 O 0.95133 0.21617 0.80106 0.0
O345 O 0.93288 0.28037 0.79129 0.0
O346 O 0.903 0.32442 0.72325 0.0
O347 O 0.85113 0.2902 0.69526 0.0
O348 O 0.8575 0.251 0.79423 0.0
O349 O 0.87199 0.19848 0.73979 0.0
O350 O 0.90902 0.23171 0.63278 0.0
O351 O 0.92811 0.16711 0.63661 0.0
H352 H 0.97986 0.07912 0.81639 0.0
H353 H 0.94422 0.0543 0.89268 0.0
H354 H 0.83152 0.05648 0.83073 0.0
H355 H 0.86681 0.08272 0.75528 0.0
H356 H 0.82191 0.3732 0.6631 0.0
H357 H 0.83253 0.39864 0.57936 0.0
H358 H 0.94741 0.33929 0.54215 0.0
H359 H 0.93684 0.31448 0.62521 0.0
C360 C 0.68304 0.82766 1.04118 0.0
Eu361 Eu 0.69787 0.81409 0.13284 0.0
C362 C 0.67198 0.83444 0.98907 0.0
C363 C 0.69852 0.85393 0.95377 0.0
C364 C 0.68682 0.86161 0.9064 0.0
C365 C 0.64805 0.85011 0.89231 0.0
C366 C 0.62185 0.83016 0.92764 0.0
C367 C 0.6335 0.82261 0.97486 0.0
C368 C 0.76109 0.80011 0.18248 0.0
C369 C 0.68551 0.71591 0.14442 0.0
C370 C 0.67021 0.77157 0.34421 0.0
Eu371 Eu 0.6771 0.78406 0.2467 0.0
C372 C 0.6494 0.74915 0.38642 0.0
C373 C 0.60723 0.7492 0.40053 0.0
C374 C 0.58893 0.7326 0.44454 0.0
C375 C 0.61202 0.7154 0.47646 0.0
C376 C 0.65421 0.71448 0.46109 0.0
C377 C 0.67244 0.73116 0.41724 0.0
C378 C 0.61546 0.79528 0.19579 0.0
C379 C 0.70204 0.87935 0.23206 0.0
O380 O 0.6565 0.81292 0.07516 0.0
O381 O 0.71888 0.83456 1.05655 0.0
O382 O 0.76347 0.82526 0.14869 0.0
O383 O 0.72789 0.78097 0.18329 0.0
O384 O 0.69212 0.74532 0.11532 0.0
O385 O 0.68011 0.72224 0.19608 0.0
O386 O 0.69646 0.75287 0.30706 0.0
O387 O 0.64971 0.79837 0.3277 0.0
O388 O 0.61433 0.76924 0.22773 0.0
O389 O 0.64732 0.81656 0.196 0.0
O390 O 0.70357 0.84874 0.25864 0.0
O391 O 0.69296 0.87463 0.18413 0.0
H392 H 0.72829 0.86383 0.96305 0.0
H393 H 0.70812 0.87739 0.8813 0.0
H394 H 0.59213 0.81978 0.91875 0.0
H395 H 0.612 0.80743 1.00049 0.0
H396 H 0.5883 0.76291 0.37817 0.0
H397 H 0.55661 0.73438 0.45422 0.0
H398 H 0.6736 0.70086 0.48292 0.0
H399 H 0.70497 0.73078 0.40807 0.0
C400 C 0.65787 0.08639 0.91192 0.0
Eu401 Eu 0.65024 0.15714 0.97024 0.0
C402 C 0.68335 0.07227 0.86262 0.0
C403 C 0.66524 0.05286 0.81997 0.0
C404 C 0.68714 0.04711 0.77035 0.0
C405 C 0.72772 0.06057 0.76252 0.0
C406 C 0.74673 0.07653 0.80622 0.0
C407 C 0.72473 0.08248 0.8558 0.0
C408 C 0.58409 0.20051 1.01636 0.0
C409 C 0.64313 0.23418 0.90539 0.0
C410 C 0.68596 0.30981 0.07891 0.0
Eu411 Eu 0.67255 0.24112 1.01983 0.0
C412 C 0.68134 0.32434 0.13523 0.0
C413 C 0.70098 0.36043 0.15495 0.0
C414 C 0.69578 0.37495 0.20847 0.0
C415 C 0.67108 0.35335 0.24301 0.0
C416 C 0.6526 0.31643 0.22302 0.0
C417 C 0.65759 0.30216 0.16965 0.0
C418 C 0.73142 0.2053 0.94768 0.0
C419 C 0.64576 0.16968 0.09546 0.0
O420 O 0.67675 0.09732 0.95263 0.0
O421 O 0.62968 0.1117 0.90918 0.0
O422 O 0.58647 0.16117 1.01322 0.0
O423 O 0.61704 0.21323 0.9954 0.0
O424 O 0.64717 0.194 0.90258 0.0
O425 O 0.6477 0.25912 0.94955 0.0
O426 O 0.65253 0.30119 1.05817 0.0
O427 O 0.71349 0.28243 1.06185 0.0
O428 O 0.72319 0.24347 0.95493 0.0
O429 O 0.70975 0.18733 0.98135 0.0
O430 O 0.65688 0.20793 0.09129 0.0
O431 O 0.64287 0.14264 1.05317 0.0
H432 H 0.63341 0.04468 0.82445 0.0
H433 H 0.67106 0.03524 0.73787 0.0
H434 H 0.7779 0.0869 0.80182 0.0
H435 H 0.73965 0.09726 0.88818 0.0
H436 H 0.71973 0.37773 0.1289 0.0
H437 H 0.71035 0.40348 0.22272 0.0
H438 H 0.63263 0.29949 0.24831 0.0
H439 H 0.64204 0.27433 0.15525 0.0
C440 C 0.94531 0.88499 0.31601 0.0
Eu441 Eu 0.95221 0.81352 0.3399 0.0
C442 C 0.92307 0.89777 0.27763 0.0
C443 C 0.89578 0.9297 0.29281 0.0
C444 C 0.86933 0.93761 0.25905 0.0
C445 C 0.86963 0.91329 0.2101 0.0
C446 C 0.89722 0.88137 0.19539 0.0
C447 C 0.9235 0.87365 0.22878 0.0
C448 C 0.00891 0.78261 0.38572 0.0
C449 C 0.9814 0.73948 0.24339 0.0
C450 C 0.92033 0.65628 0.38512 0.0
Eu451 Eu 0.9348 0.72685 0.35505 0.0
C452 C 0.91972 0.64276 0.43543 0.0
C453 C 0.89921 0.60667 0.44552 0.0
C454 C 0.8945 0.59673 0.4958 0.0
C455 C 0.90978 0.62321 0.53628 0.0
C456 C 0.93139 0.65857 0.5254 0.0
C457 C 0.93626 0.66822 0.47545 0.0
C458 C 0.88239 0.75676 0.30074 0.0
C459 C 0.92783 0.79966 0.45859 0.0
O460 O 0.97696 0.86247 0.29837 0.0
O461 O 0.92174 0.87093 0.35322 0.0
O462 O 0.00167 0.82114 0.39219 0.0
O463 O -0.00972 0.76409 0.3502 0.0
O464 O 0.96934 0.77791 0.25652 0.0
O465 O 0.97644 0.71436 0.27827 0.0
O466 O 0.95562 0.66732 0.36295 0.0
O467 O 0.89221 0.68198 0.3839 0.0
O468 O 0.89579 0.72018 0.29096 0.0
O469 O 0.89568 0.77615 0.34089 0.0
O470 O 0.93065 0.7602 0.44006 0.0
O471 O 0.92965 0.82637 0.42632 0.0
H472 H 0.89451 0.94799 0.33106 0.0
H473 H 0.84922 0.96302 0.27066 0.0
H474 H 0.8996 0.86289 0.1572 0.0
H475 H 0.94358 0.84825 0.21659 0.0
H476 H 0.88599 0.58685 0.41498 0.0
H477 H 0.87792 0.56918 0.50341 0.0
H478 H 0.94425 0.67903 0.55573 0.0
H479 H 0.95204 0.69617 0.46846 0.0
C480 C 0.38898 0.63945 0.72045 0.0
Eu481 Eu 0.45724 0.64921 0.75827 0.0
C482 C 0.37624 0.61851 0.67148 0.0
C483 C 0.40104 0.62004 0.6243 0.0
C484 C 0.39063 0.59768 0.57843 0.0
C485 C 0.35528 0.57335 0.57872 0.0
C486 C 0.32987 0.57235 0.62557 0.0
C487 C 0.34054 0.59464 0.67194 0.0
C488 C 0.49757 0.71986 0.79011 0.0
C489 C 0.537 0.65761 0.6705 0.0
C490 C 0.60531 0.62828 0.82453 0.0
Eu491 Eu 0.53888 0.63428 0.78576 0.0
C492 C 0.61584 0.62655 0.8765 0.0
C493 C 0.64829 0.60305 0.88168 0.0
C494 C 0.65901 0.60147 0.93087 0.0
C495 C 0.63739 0.62346 0.97565 0.0
C496 C 0.60362 0.6454 0.97027 0.0
C497 C 0.5929 0.64684 0.92116 0.0
C498 C 0.50986 0.5703 0.72339 0.0
C499 C 0.46291 0.65354 0.88163 0.0
O500 O 0.40041 0.61565 0.75053 0.0
O501 O 0.41276 0.67152 0.71735 0.0
O502 O 0.45882 0.71418 0.80098 0.0
O503 O 0.51183 0.68697 0.76591 0.0
O504 O 0.49734 0.64962 0.67864 0.0
O505 O 0.55923 0.65852 0.70915 0.0
O506 O 0.59221 0.66301 0.81661 0.0
O507 O 0.58442 0.59687 0.80496 0.0
O508 O 0.54746 0.5807 0.72304 0.0
O509 O 0.48832 0.5921 0.76089 0.0
O510 O 0.50141 0.64477 0.86695 0.0
O511 O 0.43851 0.6552 0.84641 0.0
H512 H 0.42891 0.63787 0.6229 0.0
H513 H 0.41028 0.5995 0.54245 0.0
H514 H 0.30226 0.55411 0.62631 0.0
H515 H 0.32119 0.59296 0.70816 0.0
H516 H 0.66579 0.58651 0.84757 0.0
H517 H 0.68501 0.58417 0.93374 0.0
H518 H 0.58673 0.66341 1.00369 0.0
H519 H 0.56734 0.66468 0.91806 0.0
C520 C 0.17634 0.35791 1.00861 0.0
Eu521 Eu 0.10627 0.35707 0.0655 0.0
C522 C 0.19575 0.3872 0.97659 0.0
C523 C 0.22599 0.37449 0.93582 0.0
C524 C 0.23908 0.39989 0.89935 0.0
C525 C 0.2214 0.43813 0.9026 0.0
C526 C 0.19436 0.45244 0.94695 0.0
C527 C 0.1816 0.42705 0.98368 0.0
C528 C 0.07014 0.30215 0.12315 0.0
C529 C 0.02655 0.33232 1.00154 0.0
C530 C 0.9581 0.40192 0.17987 0.0
Eu531 Eu 0.02425 0.38232 0.1176 0.0
C532 C 0.94518 0.39983 0.23507 0.0
C533 C 0.90981 0.41852 0.2612 0.0
C534 C 0.89884 0.41759 0.31445 0.0
C535 C 0.92345 0.39831 0.34203 0.0
C536 C 0.95848 0.37919 0.31529 0.0
C537 C 0.96915 0.37998 0.26242 0.0
C538 C 0.0615 0.43273 1.05263 0.0
C539 C 0.09866 0.38277 0.1893 0.0
O540 O 0.14467 0.33836 0.9921 0.0
O541 O 0.17059 0.37124 1.05838 0.0
O542 O 0.10894 0.30516 0.11115 0.0
O543 O 0.0532 0.32303 0.09689 0.0
O544 O 0.06662 0.33711 0.99891 0.0
O545 O 0.00305 0.34427 1.04584 0.0
O546 O 0.96296 0.36683 0.14926 0.0
O547 O 0.98772 0.42783 0.17065 0.0
O548 O 0.02371 0.42236 1.05595 0.0
O549 O 0.07806 0.4175 0.0852 0.0
O550 O 0.05927 0.38199 0.18742 0.0
O551 O 0.12401 0.38008 0.14582 0.0
H552 H 0.23753 0.34397 0.93018 0.0
H553 H 0.2598 0.38752 0.86569 0.0
H554 H 0.18037 0.48168 0.95073 0.0
H555 H 0.15882 0.43752 1.01585 0.0
H556 H 0.89096 0.43406 0.24061 0.0
H557 H 0.87164 0.43251 0.33421 0.0
H558 H 0.97759 0.36332 0.3352 0.0
H559 H -0.00374 0.36516 0.24293 0.0
C560 C 0.45261 0.41438 0.34717 0.0
Eu561 Eu 0.47931 0.41695 0.43782 0.0
C562 C 0.45578 0.39879 0.28907 0.0
C563 C 0.44416 0.42365 0.25536 0.0
C564 C 0.44089 0.40846 0.20248 0.0
C565 C 0.44938 0.3675 0.18034 0.0
C566 C 0.46201 0.34284 0.21417 0.0
C567 C 0.46489 0.35806 0.26735 0.0
C568 C 0.48809 0.47002 0.52715 0.0
C569 C 0.57591 0.40523 0.43001 0.0
C570 C 0.55394 0.36082 0.60469 0.0
Eu571 Eu 0.51546 0.38048 0.53082 0.0
C572 C 0.56041 0.33908 0.64948 0.0
C573 C 0.57634 0.2996 0.6407 0.0
C574 C 0.58832 0.28192 0.68164 0.0
C575 C 0.58509 0.30292 0.73341 0.0
C576 C 0.5682 0.3421 0.7421 0.0
C577 C 0.55638 0.35979 0.70113 0.0
C578 C 0.48434 0.32796 0.45423 0.0
C579 C 0.42043 0.39933 0.53989 0.0
O580 O 0.44242 0.38809 0.37917 0.0
O581 O 0.47667 0.44382 0.36627 0.0
O582 O 0.46272 0.47535 0.49523 0.0
O583 O 0.5104 0.44049 0.50684 0.0
O584 O 0.54529 0.41628 0.40886 0.0
O585 O 0.57216 0.3923 0.47582 0.0
O586 O 0.5302 0.39217 0.61171 0.0
O587 O 0.55631 0.3407 0.55718 0.0
O588 O 0.48063 0.32283 0.50282 0.0
O589 O 0.50394 0.36029 0.45042 0.0
O590 O 0.45181 0.39625 0.56485 0.0
O591 O 0.42311 0.40134 0.48964 0.0
H592 H 0.43623 0.45488 0.27042 0.0
H593 H 0.43036 0.42898 0.17955 0.0
H594 H 0.46971 0.31147 0.19983 0.0
H595 H 0.47361 0.33759 0.29175 0.0
H596 H 0.5808 0.28259 0.60163 0.0
H597 H 0.60143 0.25211 0.67193 0.0
H598 H 0.56401 0.35959 0.78084 0.0
H599 H 0.54484 0.39036 0.70992 0.0
C600 C 0.19355 0.66024 0.95336 0.0
Eu601 Eu 0.12037 0.65303 0.92929 0.0
C602 C 0.21639 0.6467 0.99153 0.0
C603 C 0.21918 0.67128 1.03969 0.0
C604 C 0.23703 0.65663 0.07774 0.0
C605 C 0.25267 0.61718 0.06834 0.0
C606 C 0.25255 0.5938 1.01882 0.0
C607 C 0.23473 0.60848 0.98069 0.0
C608 C 0.07557 0.70649 0.89537 0.0
C609 C 0.0477 0.67107 1.02797 0.0
C610 C 0.96875 0.59707 0.88452 0.0
Eu611 Eu 0.03778 0.62273 0.91381 0.0
C612 C 0.94905 0.60108 0.83929 0.0
C613 C 0.9252 0.56888 0.8174 0.0
C614 C 0.91031 0.57068 0.77065 0.0
C615 C 0.91891 0.60489 0.74572 0.0
C616 C 0.94192 0.63749 0.76865 0.0
C617 C 0.95708 0.63549 0.81484 0.0
C618 C 0.07893 0.57358 0.96066 0.0
C619 C 0.1039 0.63581 0.81013 0.0
O620 O 0.18154 0.63152 0.91812 0.0
O621 O 0.1661 0.68777 0.97094 0.0
O622 O 0.11464 0.70654 0.8859 0.0
O623 O 0.06393 0.68335 0.92755 0.0
O624 O 0.08689 0.66398 1.01383 0.0
O625 O 0.02212 0.66259 0.99303 0.0
O626 O 0.97328 0.6306 0.91714 0.0
O627 O 0.00115 0.57513 0.87413 0.0
O628 O 0.04172 0.58326 0.97393 0.0
O629 O 0.09351 0.58981 0.92141 0.0
O630 O 0.06541 0.63072 0.82939 0.0
O631 O 0.1321 0.63969 0.84124 0.0
H632 H 0.20608 0.70117 1.04884 0.0
H633 H 0.23614 0.67533 0.11568 0.0
H634 H 0.26476 0.5635 1.01025 0.0
H635 H 0.23403 0.58919 0.94339 0.0
H636 H 0.91917 0.54191 0.8356 0.0
H637 H 0.89276 0.54514 0.75354 0.0
H638 H 0.94981 0.66382 0.74964 0.0
H639 H 0.97619 0.66026 0.83044 0.0
C640 C 0.03084 0.18592 0.0773 0.0
C641 C 0.05469 0.18021 0.11569 0.0
H642 H 0.02845 0.20265 1.00222 0.0
C643 C 0.09664 0.18722 0.10484 0.0
H644 H -0.00157 0.18143 0.08402 0.0
C645 C 0.11411 0.1991 1.05739 0.0
C646 C 0.09038 0.20467 1.01869 0.0
H647 H 0.11628 0.18345 0.13314 0.0
H648 H 0.14652 0.20334 1.05092 0.0
C649 C 0.04829 0.19797 1.02986 0.0
C650 C 0.11263 0.74262 0.32905 0.0
C651 C 0.13044 0.76692 0.36958 0.0
H652 H 0.08263 0.74002 0.26127 0.0
C653 C 0.1329 0.8092 0.36904 0.0
H654 H 0.10949 0.71001 0.32811 0.0
C655 C 0.11823 0.82656 0.32983 0.0
C656 C 0.09945 0.80263 0.28965 0.0
H657 H 0.14644 0.82921 0.39911 0.0
H658 H 0.1221 0.85911 0.33126 0.0
C659 C 0.0972 0.76009 0.29019 0.0
C660 C 0.46235 0.75781 0.40921 0.0
C661 C 0.47256 0.77222 0.3614 0.0
H662 H 0.47106 0.76334 0.48996 0.0
C663 C 0.50265 0.80336 0.35957 0.0
H664 H 0.43944 0.73405 0.41259 0.0
C665 C 0.52191 0.81925 0.40368 0.0
C666 C 0.51084 0.80565 0.45188 0.0
H667 H 0.51166 0.81525 0.32363 0.0
H668 H 0.54486 0.84299 0.40036 0.0
C669 C 0.48051 0.77479 0.45381 0.0
C670 C 0.48969 0.23394 0.64336 0.0
C671 C 0.50039 0.21981 0.68738 0.0
H672 H 0.49441 0.22643 0.5595 0.0
C673 C 0.52696 0.18681 0.67794 0.0
H674 H 0.46928 0.25904 0.64852 0.0
C675 C 0.54263 0.16904 0.62671 0.0
C676 C 0.53091 0.18229 0.58276 0.0
H677 H 0.536 0.1748 0.71042 0.0
H678 H 0.56317 0.14404 0.62151 0.0
C679 C 0.50403 0.21502 0.59209 0.0
C680 C 0.86173 0.963 0.15465 0.0
C681 C 0.84855 0.9256 0.16953 0.0
H682 H 0.89832 0.98869 0.09503 0.0
C683 C 0.83714 0.89444 0.13093 0.0
H684 H 0.86841 0.98868 0.18352 0.0
C685 C 0.85425 0.89448 0.07943 0.0
C686 C 0.88032 0.92673 0.06803 0.0
H687 H 0.82572 0.86579 0.14166 0.0
H688 H 0.8541 0.86628 1.05221 0.0
C689 C 0.87905 0.96312 0.10346 0.0
C690 C 0.83245 0.08035 0.941 0.0
C691 C 0.86281 0.05212 0.92035 0.0
H692 H 0.80216 0.11538 1.0098 0.0
C693 C 0.87803 0.02956 0.95376 0.0
H694 H 0.81968 0.09793 0.91624 0.0
C695 C 0.86803 0.03976 1.00746 0.0
C696 C 0.84279 0.07266 1.02834 0.0
H697 H 0.90071 0.00691 0.93874 0.0
H698 H 0.8837 0.02497 1.03223 0.0
C699 C 0.82255 0.0906 0.99471 0.0
C700 C 0.73595 0.03883 0.66563 0.0
C701 C 0.7468 0.06529 0.70923 0.0
H702 H 0.72792 0.03224 0.58552 0.0
C703 C 0.76905 0.10113 0.70126 0.0
H704 H 0.72023 0.0102 0.66997 0.0
C705 C 0.77444 0.11331 0.65246 0.0
C706 C 0.75744 0.09004 0.61096 0.0
H707 H 0.77867 0.12205 0.73343 0.0
H708 H 0.78852 0.14278 0.64853 0.0
C709 C 0.7409 0.05126 0.61691 0.0
C710 C 0.75669 0.94294 0.32169 0.0
C711 C 0.72326 0.94918 0.3605 0.0
H712 H 0.77534 0.9149 0.24343 0.0
C713 C 0.68529 0.95376 0.34506 0.0
H714 H 0.78663 0.94119 0.33233 0.0
C715 C 0.67888 0.93846 0.29411 0.0
C716 C 0.71066 0.91992 0.25933 0.0
H717 H 0.65899 0.96048 0.3737 0.0
H718 H 0.64811 0.93375 0.28551 0.0
C719 C 0.75023 0.92775 0.27067 0.0
C720 C 0.6142 0.69936 0.56834 0.0
C721 C 0.5926 0.69945 0.52573 0.0
H722 H 0.61439 0.68644 0.64572 0.0
C723 C 0.55217 0.68463 0.53149 0.0
H724 H 0.64483 0.71128 0.56723 0.0
C725 C 0.53431 0.67068 0.57765 0.0
C726 C 0.55614 0.67068 0.61991 0.0
H727 H 0.5341 0.68331 0.50013 0.0
H728 H 0.50321 0.65992 0.58016 0.0
C729 C 0.59646 0.68519 0.61417 0.0
C730 C 0.6164 0.22597 0.81706 0.0
C731 C 0.6294 0.25133 0.8605 0.0
H732 H 0.59184 0.22126 0.74488 0.0
C733 C 0.62743 0.29371 0.8616 0.0
H734 H 0.61675 0.1932 0.81456 0.0
C735 C 0.61339 0.31007 0.82105 0.0
C736 C 0.60012 0.28488 0.77745 0.0
H737 H 0.63691 0.31461 0.89404 0.0
H738 H 0.61359 0.34284 0.82394 0.0
C739 C 0.60201 0.24233 0.77658 0.0
C740 C 0.02887 0.28813 0.91154 0.0
C741 C 0.0071 0.31292 0.95405 0.0
H742 H 0.02794 0.24987 0.83685 0.0
C743 C 0.96596 0.31863 0.95089 0.0
H744 H 0.06054 0.28347 0.91185 0.0
C745 C 0.94755 0.30065 0.90694 0.0
C746 C 0.96907 0.27496 0.86522 0.0
H747 H 0.94791 0.33761 0.98226 0.0
H748 H 0.91612 0.30645 0.90595 0.0
C749 C 0.01006 0.26884 0.86843 0.0
C750 C 0.98684 0.73677 0.14498 0.0
C751 C -0.00023 0.7235 0.18821 0.0
H752 H -0.00925 0.73017 1.06139 0.0
C753 C 0.02957 0.69347 0.17794 0.0
H754 H 0.96399 0.7597 0.15095 0.0
C755 C 0.04601 0.67752 0.12643 0.0
C756 C 0.03207 0.68977 0.08321 0.0
H757 H 0.04046 0.6824 0.20994 0.0
H758 H 0.06889 0.65462 0.1204 0.0
C759 C 0.00215 0.71966 0.09344 0.0
C760 C 0.37543 0.44853 0.59468 0.0
C761 C 0.38207 0.40763 0.57293 0.0
H762 H 0.36741 0.49041 0.66608 0.0
C763 C 0.36634 0.37726 0.60138 0.0
H764 H 0.3864 0.47243 0.57274 0.0
C765 C 0.35474 0.38749 0.6547 0.0
C766 C 0.35989 0.42785 0.67924 0.0
H767 H 0.37048 0.34543 0.58504 0.0
H768 H 0.35051 0.36294 0.67721 0.0
C769 C 0.36454 0.45884 0.64835 0.0
C770 C 0.31212 0.56429 0.50792 0.0
C771 C 0.34497 0.55168 0.52864 0.0
H772 H 0.28953 0.5733 0.43841 0.0
C773 C 0.37424 0.52754 0.49586 0.0
H774 H 0.289 0.58273 0.53266 0.0
C775 C 0.37479 0.52227 0.44219 0.0
C776 C 0.34623 0.54175 0.42085 0.0
H777 H 0.3997 0.51759 0.51123 0.0
H778 H 0.40094 0.50835 0.41803 0.0
C779 C 0.31259 0.55904 0.45398 0.0
C780 C 0.27579 0.61084 0.20229 0.0
C781 C 0.25333 0.57544 0.21171 0.0
H782 H 0.29425 0.65168 0.1481 0.0
C783 C 0.24181 0.54841 0.16901 0.0
H784 H 0.28619 0.63196 0.23377 0.0
C785 C 0.24594 0.56007 0.11989 0.0
C786 C 0.2623 0.59867 0.11266 0.0
H787 H 0.22591 0.52007 0.17451 0.0
H788 H 0.23234 0.5407 0.08933 0.0
C789 C 0.28022 0.62238 0.1531 0.0
C790 C 0.17841 0.44288 0.78581 0.0
C791 C 0.21111 0.42538 0.75173 0.0
H792 H 0.15671 0.46408 0.86507 0.0
C793 C 0.25019 0.43439 0.76435 0.0
H794 H 0.14798 0.43717 0.77622 0.0
C795 C 0.25547 0.44975 0.81581 0.0
C796 C 0.22142 0.45513 0.85381 0.0
H797 H 0.27594 0.42212 0.73776 0.0
H798 H 0.28527 0.44919 0.82729 0.0
C799 C 0.1836 0.45825 0.83719 0.0
C800 C 0.07472 0.28242 0.20985 0.0
C801 C 0.05101 0.29022 0.17256 0.0
H802 H 0.07578 0.26004 0.2815 0.0
C803 C 0.00893 0.28841 0.18394 0.0
H804 H 0.10731 0.2845 0.20255 0.0
C805 C -0.00915 0.2761 0.23019 0.0
C806 C 0.01465 0.26401 0.265 0.0
H807 H -0.00999 0.29468 0.15604 0.0
H808 H 0.95843 0.27129 0.23534 0.0
C809 C 0.05666 0.26991 0.256 0.0
C810 C 0.02656 0.72046 0.4179 0.0
C811 C 0.02248 0.76273 0.42619 0.0
H812 H 0.04556 0.66903 0.44608 0.0
C813 C 0.02954 0.78539 0.47422 0.0
H814 H 0.02173 0.70246 0.38103 0.0
C815 C 0.04348 0.76628 0.51178 0.0
C816 C 0.05061 0.72431 0.5017 0.0
H817 H 0.02589 0.81806 0.48195 0.0
H818 H 0.05287 0.78491 0.5461 0.0
C819 C 0.03942 0.70124 0.45583 0.0
C820 C 0.55431 0.76128 0.75659 0.0
C821 C 0.5124 0.75446 0.76413 0.0
H822 H 0.60554 0.77696 0.70484 0.0
C823 C 0.48912 0.76563 0.72811 0.0
H824 H 0.57303 0.75208 0.78301 0.0
C825 C 0.50781 0.77832 0.68236 0.0
C826 C 0.54991 0.78126 0.6726 0.0
H827 H 0.45682 0.75999 0.73211 0.0
H828 H 0.4894 0.78411 0.65365 0.0
C829 C 0.57295 0.77411 0.71094 0.0
C830 C 0.53658 0.19496 0.95295 0.0
C831 C 0.54979 0.21702 0.99819 0.0
H832 H 0.51899 0.19777 0.87844 0.0
C833 C 0.54589 0.25952 1.00797 0.0
H834 H 0.54003 0.16229 0.94359 0.0
C835 C 0.53385 0.27986 0.97028 0.0
C836 C 0.52523 0.25791 0.92255 0.0
H837 H 0.55674 0.27731 1.0419 0.0
H838 H 0.533 0.31279 0.9776 0.0
C839 C 0.52543 0.21532 0.91493 0.0
C840 C 0.98507 0.76858 0.91595 0.0
C841 C 0.00473 0.80626 0.9143 0.0
H842 H -0.00581 0.70532 0.91185 0.0
C843 C 0.04189 0.8079 0.88246 0.0
H844 H 0.95562 0.76659 0.93851 0.0
C845 C 0.06495 0.77299 0.86871 0.0
C846 C 0.04905 0.7367 0.88423 0.0
H847 H 0.05637 0.83691 0.87764 0.0
H848 H 0.09639 0.77569 0.85294 0.0
C849 C 0.0076 0.73352 0.90163 0.0
C850 C 0.58765 0.75312 0.12436 0.0
C851 C 0.58819 0.79113 0.15664 0.0
H852 H 0.55181 0.69948 0.10425 0.0
C853 C 0.55238 0.81229 0.17149 0.0
H854 H 0.61528 0.73718 0.11012 0.0
C855 C 0.51595 0.79107 0.16748 0.0
C856 C 0.51601 0.7491 0.14839 0.0
H857 H 0.55222 0.84213 0.19528 0.0
H858 H 0.48861 0.80579 0.18684 0.0
C859 C 0.55132 0.73141 0.12116 0.0
C860 C 0.55412 0.26092 0.36697 0.0
C861 C 0.54142 0.2256 0.38731 0.0
H862 H 0.54168 0.32328 0.36883 0.0
C863 C 0.50106 0.22135 0.40947 0.0
H864 H 0.58464 0.26427 0.34797 0.0
C865 C 0.4769 0.25517 0.42282 0.0
C866 C 0.49326 0.2929 0.41347 0.0
H867 H 0.49002 0.19369 0.42357 0.0
H868 H 0.44864 0.25303 0.44796 0.0
C869 C 0.52925 0.29453 0.37877 0.0
C870 C 0.08372 0.27652 0.62135 0.0
C871 C 0.08584 0.31074 0.66044 0.0
H872 H 0.04913 0.22301 0.59641 0.0
C873 C 0.05027 0.32636 0.68964 0.0
H874 H 0.11063 0.26468 0.59676 0.0
C875 C 0.01484 0.30305 0.68814 0.0
C876 C 0.01544 0.26392 0.65825 0.0
H877 H 0.05099 0.35335 0.71882 0.0
H878 H -0.01126 0.31332 0.71551 0.0
C879 C 0.04865 0.25243 0.62119 0.0
C880 C 0.96879 0.05967 0.14049 0.0
C881 C -0.00224 0.05143 0.1713 0.0
H882 H 0.94533 0.04403 0.06701 0.0
C883 C 0.02429 0.01943 0.15141 0.0
H884 H 0.94929 0.0854 0.15347 0.0
C885 C 0.02314 0.99722 0.10183 0.0
C886 C -0.00547 0.00492 0.07069 0.0
H887 H 0.04803 0.01321 0.17306 0.0
H888 H 0.04604 0.97498 0.08686 0.0
C889 C 0.96717 0.03653 0.09051 0.0
C890 C 0.30433 0.71067 0.42047 0.0
C891 C 0.26352 0.70546 0.4136 0.0
H892 H 0.36475 0.72077 0.38498 0.0
C893 C 0.25357 0.69895 0.36241 0.0
H894 H 0.31288 0.71722 0.45934 0.0
C895 C 0.28345 0.70073 0.31947 0.0
C896 C 0.32385 0.70936 0.32696 0.0
H897 H 0.22228 0.69632 0.35586 0.0
H898 H 0.27431 0.69971 0.2813 0.0
C899 C 0.33404 0.71293 0.37777 0.0
C900 C 0.57792 0.98921 0.44633 0.0
C901 C 0.59198 0.0261 0.47278 0.0
H902 H 0.55714 0.92791 0.45146 0.0
C903 C 0.60367 0.02648 0.52234 0.0
H904 H 0.56758 0.98827 0.40882 0.0
C905 C 0.59803 0.99164 0.54674 0.0
C906 C 0.5796 0.95627 0.52241 0.0
H907 H 0.61343 0.05478 0.54428 0.0
H908 H 0.60439 0.99369 0.58642 0.0
C909 C 0.57138 0.95482 0.4711 0.0
C910 C 0.36206 0.27188 0.71706 0.0
C911 C 0.35752 0.28334 0.77145 0.0
H912 H 0.33734 0.2725 0.64593 0.0
C913 C 0.32395 0.30615 0.79589 0.0
H914 H 0.38754 0.25403 0.6973 0.0
C915 C 0.29461 0.31573 0.76647 0.0
C916 C 0.29902 0.30364 0.71216 0.0
H917 H 0.31942 0.31486 0.83779 0.0
H918 H 0.26829 0.33213 0.78625 0.0
C919 C 0.33335 0.28227 0.68767 0.0
C920 C 0.75182 0.19021 0.85206 0.0
C921 C 0.76047 0.18752 0.90236 0.0
H922 H 0.77528 0.19844 0.77408 0.0
C923 C 0.80079 0.18226 0.90879 0.0
H924 H 0.7213 0.19551 0.84595 0.0
C925 C 0.83194 0.18381 0.86714 0.0
C926 C 0.82347 0.19058 0.81818 0.0
H927 H 0.8087 0.18148 0.94723 0.0
H928 H 0.86294 0.18414 0.87483 0.0
C929 C 0.78287 0.19175 0.81055 0.0
C930 C 0.82974 0.73958 0.24198 0.0
C931 C 0.85103 0.76977 0.27219 0.0
H932 H 0.78468 0.72576 0.19085 0.0
C933 C 0.84287 0.81086 0.27228 0.0
H934 H 0.83504 0.7076 0.24108 0.0
C935 C 0.81467 0.82129 0.24159 0.0
C936 C 0.79347 0.79076 0.21169 0.0
H937 H 0.8585 0.83476 0.29546 0.0
H938 H 0.80865 0.853 0.24233 0.0
C939 C 0.80096 0.74991 0.21291 0.0
C940 C 0.52522 0.50959 0.65653 0.0
C941 C 0.49738 0.53971 0.68009 0.0
H942 H 0.54477 0.46551 0.59008 0.0
C943 C 0.46428 0.5449 0.65448 0.0
H944 H 0.55141 0.505 0.67482 0.0
C945 C 0.46054 0.522 0.60503 0.0
C946 C 0.48968 0.49328 0.58059 0.0
H947 H 0.44282 0.56815 0.67118 0.0
H948 H 0.43555 0.52761 0.5854 0.0
C949 C 0.52152 0.48691 0.60767 0.0
C950 C 0.0764 0.49846 0.9474 0.0
C951 C 0.09136 0.53493 0.97375 0.0
H952 H 0.0549 0.43738 0.95247 0.0
C953 C 0.10365 0.53486 1.02285 0.0
H954 H 0.06562 0.49794 0.91024 0.0
C955 C 0.09788 0.49993 1.04696 0.0
C956 C 0.07874 0.46497 1.02277 0.0
H957 H 0.11412 0.5629 1.04467 0.0
H958 H 0.10482 0.50158 0.08634 0.0
C959 C 0.06974 0.46397 0.97191 0.0
C960 C 0.2001 0.14384 0.51534 0.0
C961 C 0.15863 0.13484 0.51598 0.0
H962 H 0.24513 0.17832 0.55497 0.0
C963 C 0.13325 0.14211 0.56373 0.0
H964 H 0.22066 0.13843 0.47948 0.0
C965 C 0.14761 0.16488 0.60733 0.0
C966 C 0.18729 0.18053 0.60314 0.0
H967 H 0.10134 0.13449 0.56573 0.0
H968 H 0.12618 0.17533 0.64121 0.0
C969 C 0.21433 0.16658 0.55882 0.0
C970 C 0.15175 0.91699 0.82901 0.0
C971 C 0.16244 0.87602 0.81393 0.0
H972 H 0.11767 0.96006 0.8858 0.0
C973 C 0.15659 0.84994 0.85159 0.0
H974 H 0.15587 0.93801 0.80121 0.0
C975 C 0.1352 0.86302 0.90078 0.0
C976 C 0.11886 0.90203 0.91233 0.0
H977 H 0.16531 0.81842 0.84146 0.0
H978 H 0.12667 0.84088 0.92654 0.0
C979 C 0.13011 0.92985 0.87782 0.0
C980 C 0.37183 0.89092 0.97362 0.0
C981 C 0.40475 0.89426 1.00213 0.0
H982 H 0.35245 0.8899 0.89888 0.0
C983 C 0.44301 0.90486 0.97832 0.0
H984 H 0.34205 0.88256 0.99104 0.0
C985 C 0.4489 0.90889 0.92591 0.0
C986 C 0.41665 0.90246 0.89633 0.0
H987 H 0.46873 0.90834 0.99972 0.0
H988 H 0.47908 0.9154 0.90791 0.0
C989 C 0.37774 0.89505 0.92098 0.0
C990 C 0.41489 0.07266 0.15064 0.0
C991 C 0.40833 0.10474 0.19265 0.0
H992 H 0.41917 0.05475 0.06786 0.0
C993 C 0.39536 0.14222 0.18388 0.0
H994 H 0.42511 0.04351 0.15634 0.0
C995 C 0.39222 0.14864 0.13356 0.0
C996 C 0.40184 0.11764 0.09109 0.0
H997 H 0.38939 0.1672 0.21573 0.0
H998 H 0.38389 0.17843 0.12759 0.0
C999 C 0.4116 0.07907 0.1001 0.0
C1000 C 0.93007 0.78811 0.5521 0.0
C1001 C 0.92881 0.815 0.51611 0.0
H1002 H 0.93573 0.78047 0.63031 0.0
C1003 C 0.93233 0.85705 0.53501 0.0
H1004 H 0.92767 0.75558 0.53964 0.0
C1005 C 0.93765 0.87159 0.58734 0.0
C1006 C 0.93968 0.84474 0.62332 0.0
H1007 H 0.93205 0.87904 0.50892 0.0
H1008 H 0.94138 0.90408 0.59901 0.0
C1009 C 0.93526 0.80262 0.60452 0.0
C1010 C 0.91053 0.20417 0.51536 0.0
C1011 C 0.92935 0.18492 0.54964 0.0
H1012 H 0.90592 0.21062 0.43572 0.0
C1013 C 0.9595 0.15671 0.52656 0.0
H1014 H 0.88749 0.22629 0.531 0.0
C1015 C 0.97093 0.14863 0.47204 0.0
C1016 C 0.95189 0.16732 0.43759 0.0
H1017 H 0.97536 0.14147 0.55093 0.0
H1018 H -0.00508 0.12747 0.45679 0.0
C1019 C 0.9211 0.195 0.46038 0.0
C1020 C 0.60483 0.12764 0.15976 0.0
C1021 C 0.63491 0.15763 0.14942 0.0
H1022 H 0.56971 0.09572 0.21701 0.0
C1023 C 0.65339 0.17737 0.19216 0.0
H1024 H 0.58933 0.11196 0.12843 0.0
C1025 C 0.64302 0.16709 0.24261 0.0
C1026 C 0.61262 0.13758 0.25333 0.0
H1027 H 0.67635 0.20079 0.18659 0.0
H1028 H 0.65841 0.1832 0.27381 0.0
C1029 C 0.59337 0.11834 0.21088 0.0
C1030 C 0.58167 0.87202 0.79024 0.0
C1031 C 0.60932 0.87182 0.74455 0.0
H1032 H 0.57146 0.8663 0.87122 0.0
C1033 C 0.65016 0.86564 0.74855 0.0
H1034 H 0.55 0.87653 0.78941 0.0
C1035 C 0.66268 0.85923 0.79591 0.0
C1036 C 0.63491 0.8586 0.8415 0.0
H1037 H 0.6726 0.86471 0.71457 0.0
H1038 H 0.69421 0.85357 0.79614 0.0
C1039 C 0.59414 0.86561 0.83755 0.0
C1040 C 0.6277 0.63565 0.07339 0.0
C1041 C 0.65378 0.63006 1.02613 0.0
H1042 H 0.61884 0.66704 0.15184 0.0
C1043 C 0.69486 0.64055 1.02677 0.0
H1044 H 0.59608 0.62692 0.07434 0.0
C1045 C 0.70783 0.66303 0.07125 0.0
C1046 C 0.67993 0.67516 0.11537 0.0
H1047 H 0.71593 0.63648 0.99129 0.0
H1048 H 0.73818 0.67599 0.06853 0.0
C1049 C 0.64087 0.65797 0.11811 0.0
C1050 C 0.63139 0.36065 0.38552 0.0
C1051 C 0.61379 0.39904 0.3945 0.0
H1052 H 0.66404 0.3157 0.32948 0.0
C1053 C 0.62402 0.42557 0.35811 0.0
H1054 H 0.6236 0.33944 0.41272 0.0
C1055 C 0.6469 0.41198 0.31041 0.0
C1056 C 0.65961 0.3715 0.29828 0.0
H1057 H 0.61061 0.45528 0.36417 0.0
H1058 H 0.6507 0.43178 0.28115 0.0
C1059 C 0.654 0.34684 0.3375 0.0
C1060 C 0.9432 0.40485 0.43125 0.0
C1061 C 0.91304 0.39736 0.39841 0.0
H1062 H 0.95952 0.4034 0.50676 0.0
C1063 C 0.8741 0.38574 0.41901 0.0
H1064 H 0.97329 0.4146 0.4166 0.0
C1065 C 0.86621 0.37919 0.47075 0.0
C1066 C 0.89714 0.38427 0.5026 0.0
H1067 H 0.85036 0.37963 0.39444 0.0
H1068 H 0.83654 0.36808 0.48492 0.0
C1069 C 0.93533 0.39843 0.48279 0.0
C1070 C 0.89286 0.64166 0.68232 0.0
C1071 C 0.90751 0.60574 0.69362 0.0
H1072 H 0.88157 0.67499 0.62302 0.0
C1073 C 0.91676 0.573 0.65317 0.0
H1074 H 0.88493 0.66706 0.71297 0.0
C1075 C 0.91477 0.57752 0.60163 0.0
C1076 C 0.90364 0.61483 0.59018 0.0
H1077 H 0.92832 0.54505 0.66092 0.0
H1078 H 0.92465 0.55297 0.57065 0.0
C1079 C 0.89099 0.64618 0.63101 0.0
C1080 C 0.43691 0.30907 0.10539 0.0
C1081 C 0.44462 0.35091 0.12308 0.0
H1082 H 0.4271 0.26181 1.04132 0.0
C1083 C 0.44739 0.37685 0.08495 0.0
H1084 H 0.43382 0.28748 0.13237 0.0
C1085 C 0.44255 0.36197 1.03245 0.0
C1086 C 0.43506 0.32028 1.01494 0.0
H1087 H 0.45418 0.40898 0.09508 0.0
H1088 H 0.44561 0.38337 1.00516 0.0
C1089 C 0.43248 0.29412 1.0526 0.0
C1090 C 0.45148 0.65411 1.03004 0.0
C1091 C 0.42348 0.68505 1.05069 0.0
H1092 H 0.48623 0.62083 0.96245 0.0
C1093 C 0.40763 0.70488 1.01451 0.0
H1094 H 0.46506 0.63835 1.05605 0.0
C1095 C 0.41891 0.69363 0.95994 0.0
C1096 C 0.44766 0.66326 0.93958 0.0
H1097 H 0.38637 0.72906 1.02834 0.0
H1098 H 0.40607 0.70975 0.93367 0.0
C1099 C 0.46383 0.64399 0.97591 0.0
C1100 C 0.15699 0.68532 0.69559 0.0
C1101 C 0.13795 0.66685 0.6528 0.0
H1102 H 0.16221 0.68933 0.77687 0.0
C1103 C 0.10745 0.63711 0.66212 0.0
H1104 H 0.18028 0.70852 0.69057 0.0
C1105 C 0.09593 0.62694 0.71265 0.0
C1106 C 0.11562 0.645 0.75519 0.0
H1107 H 0.09158 0.62251 0.63056 0.0
H1108 H 0.07179 0.60471 0.71831 0.0
C1109 C 0.14657 0.67411 0.74539 0.0
C1110 C 0.15601 0.37714 0.24267 0.0
C1111 C 0.11446 0.3807 0.24029 0.0
H1112 H 0.20256 0.36895 0.28864 0.0
C1113 C 0.08796 0.3785 0.2864 0.0
H1114 H 0.17765 0.37834 0.20829 0.0
C1115 C 0.10226 0.37242 0.33266 0.0
C1116 C 0.14382 0.36845 0.33513 0.0
H1117 H 0.05581 0.38053 0.28666 0.0
H1118 H 0.08026 0.36981 0.36627 0.0
C1119 C 0.17038 0.3712 0.28905 0.0
loop_
_geom_bond_atom_site_label_1
_geom_bond_atom_site_label_2
_geom_bond_distance
_geom_bond_site_symmetry_2
_ccdc_geom_bond_type
C0 Eu1 2.835 1_655 S
C0 C2 1.500 . S
C0 O20 1.257 1_655 S
C0 O21 1.260 . S
Eu1 C0 2.835 1_455 S
Eu1 O20 2.473 . S
Eu1 O21 2.480 1_455 S
Eu1 O22 2.430 . S
Eu1 O23 2.670 . S
Eu1 O24 2.394 . S
Eu1 O29 2.355 . S
Eu1 O31 2.374 . S
C2 C0 1.500 . S
C2 C3 1.377 1_554 S
C2 C7 1.377 1_554 S
C3 C2 1.377 1_556 S
C3 C4 1.395 . S
C3 H32 0.931 1_556 S
C4 C3 1.395 . S
C4 C5 1.383 . S
C4 H33 0.931 . S
C5 C4 1.383 . S
C5 C6 1.394 . S
C6 C5 1.394 . S
C6 C7 1.378 . S
C6 H34 0.931 . S
C7 C2 1.377 1_556 S
C7 C6 1.378 . S
C7 H35 0.931 . S
C8 O22 1.259 . S
C8 O23 1.270 . S
C9 O24 1.251 . S
C9 O25 1.251 . S
C10 Eu11 2.835 . S
C10 C12 1.500 . S
C10 O26 1.257 . S
C10 O27 1.260 . S
Eu11 C10 2.835 . S
Eu11 O23 2.355 . S
Eu11 O25 2.374 . S
Eu11 O26 2.473 . S
Eu11 O27 2.480 . S
Eu11 O28 2.430 . S
Eu11 O29 2.670 . S
Eu11 O30 2.394 . S
C12 C10 1.500 . S
C12 C13 1.377 . S
C12 C17 1.377 . S
C13 C12 1.377 . S
C13 C14 1.395 . S
C13 H36 0.931 . S
C14 C13 1.395 . S
C14 C15 1.383 . S
C14 H37 0.931 . S
C15 C14 1.383 . S
C15 C16 1.394 . S
C16 C15 1.394 . S
C16 C17 1.378 . S
C16 H38 0.931 . S
C17 C12 1.377 . S
C17 C16 1.378 . S
C17 H39 0.931 . S
C18 O28 1.259 . S
C18 O29 1.270 . S
C19 O30 1.251 . S
C19 O31 1.251 . S
O20 C0 1.257 1_455 S
O20 Eu1 2.473 . S
O21 C0 1.260 . S
O21 Eu1 2.480 1_655 S
O22 Eu1 2.430 . S
O22 C8 1.259 . S
O23 Eu1 2.670 . S
O23 C8 1.270 . S
O23 Eu11 2.355 . S
O24 Eu1 2.394 . S
O24 C9 1.251 . S
O25 C9 1.251 . S
O25 Eu11 2.374 . S
O26 C10 1.257 . S
O26 Eu11 2.473 . S
O27 C10 1.260 . S
O27 Eu11 2.480 . S
O28 Eu11 2.430 . S
O28 C18 1.259 . S
O29 Eu1 2.355 . S
O29 Eu11 2.670 . S
O29 C18 1.270 . S
O30 Eu11 2.394 . S
O30 C19 1.251 . S
O31 Eu1 2.374 . S
O31 C19 1.251 . S
H32 C3 0.931 1_554 S
H33 C4 0.931 . S
H34 C6 0.931 . S
H35 C7 0.931 . S
H36 C13 0.931 . S
H37 C14 0.931 . S
H38 C16 0.931 . S
H39 C17 0.931 . S
C40 Eu41 2.835 . S
C40 C42 1.500 . S
C40 O60 1.257 . S
C40 O61 1.260 . S
Eu41 C40 2.835 . S
Eu41 O60 2.473 . S
Eu41 O61 2.480 . S
Eu41 O62 2.430 . S
Eu41 O63 2.670 . S
Eu41 O64 2.394 . S
Eu41 O69 2.355 . S
Eu41 O71 2.374 . S
C42 C40 1.500 . S
C42 C43 1.377 . S
C42 C47 1.377 . S
C43 C42 1.377 . S
C43 C44 1.395 . S
C43 H72 0.931 . S
C44 C43 1.395 . S
C44 C45 1.383 . S
C44 H73 0.931 . S
C45 C44 1.383 . S
C45 C46 1.394 . S
C46 C45 1.394 . S
C46 C47 1.378 . S
C46 H74 0.931 . S
C47 C42 1.377 . S
C47 C46 1.378 . S
C47 H75 0.931 . S
C48 O62 1.259 . S
C48 O63 1.270 . S
C49 O64 1.251 . S
C49 O65 1.251 . S
C50 Eu51 2.835 . S
C50 C52 1.500 . S
C50 O66 1.257 . S
C50 O67 1.260 . S
Eu51 C50 2.835 . S
Eu51 O63 2.355 . S
Eu51 O65 2.374 . S
Eu51 O66 2.473 . S
Eu51 O67 2.480 . S
Eu51 O68 2.430 . S
Eu51 O69 2.670 . S
Eu51 O70 2.394 . S
C52 C50 1.500 . S
C52 C53 1.377 . S
C52 C57 1.377 . S
C53 C52 1.377 . S
C53 C54 1.395 . S
C53 H76 0.931 . S
C54 C53 1.395 . S
C54 C55 1.383 . S
C54 H77 0.931 . S
C55 C54 1.383 . S
C55 C56 1.394 . S
C56 C55 1.394 . S
C56 C57 1.378 . S
C56 H78 0.931 . S
C57 C52 1.377 . S
C57 C56 1.378 . S
C57 H79 0.931 . S
C58 O68 1.259 . S
C58 O69 1.270 . S
C59 O70 1.251 . S
C59 O71 1.251 . S
O60 C40 1.257 . S
O60 Eu41 2.473 . S
O61 C40 1.260 . S
O61 Eu41 2.480 . S
O62 Eu41 2.430 . S
O62 C48 1.259 . S
O63 Eu41 2.670 . S
O63 C48 1.270 . S
O63 Eu51 2.355 . S
O64 Eu41 2.394 . S
O64 C49 1.251 . S
O65 C49 1.251 . S
O65 Eu51 2.374 . S
O66 C50 1.257 . S
O66 Eu51 2.473 . S
O67 C50 1.260 . S
O67 Eu51 2.480 . S
O68 Eu51 2.430 . S
O68 C58 1.259 . S
O69 Eu41 2.355 . S
O69 Eu51 2.670 . S
O69 C58 1.270 . S
O70 Eu51 2.394 . S
O70 C59 1.251 . S
O71 Eu41 2.374 . S
O71 C59 1.251 . S
H72 C43 0.931 . S
H73 C44 0.931 . S
H74 C46 0.931 . S
H75 C47 0.931 . S
H76 C53 0.931 . S
H77 C54 0.931 . S
H78 C56 0.931 . S
H79 C57 0.931 . S
C80 Eu81 2.835 . S
C80 C82 1.500 . S
C80 O100 1.257 . S
C80 O101 1.260 . S
Eu81 C80 2.835 . S
Eu81 O100 2.473 . S
Eu81 O101 2.480 . S
Eu81 O102 2.430 . S
Eu81 O103 2.670 . S
Eu81 O104 2.394 . S
Eu81 O109 2.355 . S
Eu81 O111 2.374 . S
C82 C80 1.500 . S
C82 C83 1.377 . S
C82 C87 1.377 . S
C83 C82 1.377 . S
C83 C84 1.395 . S
C83 H112 0.931 . S
C84 C83 1.395 . S
C84 C85 1.383 . S
C84 H113 0.931 . S
C85 C84 1.383 . S
C85 C86 1.394 . S
C86 C85 1.394 . S
C86 C87 1.378 . S
C86 H114 0.931 . S
C87 C82 1.377 . S
C87 C86 1.378 . S
C87 H115 0.931 . S
C88 O102 1.259 . S
C88 O103 1.270 . S
C89 O104 1.251 . S
C89 O105 1.251 . S
C90 Eu91 2.835 . S
C90 C92 1.500 . S
C90 O106 1.257 . S
C90 O107 1.260 . S
Eu91 C90 2.835 . S
Eu91 O103 2.355 . S
Eu91 O105 2.374 . S
Eu91 O106 2.473 . S
Eu91 O107 2.480 . S
Eu91 O108 2.430 . S
Eu91 O109 2.670 . S
Eu91 O110 2.394 . S
C92 C90 1.500 . S
C92 C93 1.377 . S
C92 C97 1.377 . S
C93 C92 1.377 . S
C93 C94 1.395 . S
C93 H116 0.931 . S
C94 C93 1.395 . S
C94 C95 1.383 . S
C94 H117 0.931 . S
C95 C94 1.383 . S
C95 C96 1.394 . S
C96 C95 1.394 . S
C96 C97 1.378 . S
C96 H118 0.931 . S
C97 C92 1.377 . S
C97 C96 1.378 . S
C97 H119 0.931 . S
C98 O108 1.259 . S
C98 O109 1.270 . S
C99 O110 1.251 . S
C99 O111 1.251 . S
O100 C80 1.257 . S
O100 Eu81 2.473 . S
O101 C80 1.260 . S
O101 Eu81 2.480 . S
O102 Eu81 2.430 . S
O102 C88 1.259 . S
O103 Eu81 2.670 . S
O103 C88 1.270 . S
O103 Eu91 2.355 . S
O104 Eu81 2.394 . S
O104 C89 1.251 . S
O105 C89 1.251 . S
O105 Eu91 2.374 . S
O106 C90 1.257 . S
O106 Eu91 2.473 . S
O107 C90 1.260 . S
O107 Eu91 2.480 . S
O108 Eu91 2.430 . S
O108 C98 1.259 . S
O109 Eu81 2.355 . S
O109 Eu91 2.670 . S
O109 C98 1.270 . S
O110 Eu91 2.394 . S
O110 C99 1.251 . S
O111 Eu81 2.374 . S
O111 C99 1.251 . S
H112 C83 0.931 . S
H113 C84 0.931 . S
H114 C86 0.931 . S
H115 C87 0.931 . S
H116 C93 0.931 . S
H117 C94 0.931 . S
H118 C96 0.931 . S
H119 C97 0.931 . S
C120 Eu121 2.835 . S
C120 C122 1.500 . S
C120 O140 1.257 . S
C120 O141 1.260 . S
Eu121 C120 2.835 . S
Eu121 O140 2.473 . S
Eu121 O141 2.480 . S
Eu121 O142 2.430 . S
Eu121 O143 2.670 . S
Eu121 O144 2.394 . S
Eu121 O149 2.355 . S
Eu121 O151 2.374 . S
C122 C120 1.500 . S
C122 C123 1.377 . S
C122 C127 1.377 . S
C123 C122 1.377 . S
C123 C124 1.395 . S
C123 H152 0.931 . S
C124 C123 1.395 . S
C124 C125 1.383 . S
C124 H153 0.931 . S
C125 C124 1.383 . S
C125 C126 1.394 . S
C126 C125 1.394 . S
C126 C127 1.378 . S
C126 H154 0.931 . S
C127 C122 1.377 . S
C127 C126 1.378 . S
C127 H155 0.931 . S
C128 O142 1.259 . S
C128 O143 1.270 . S
C129 O144 1.251 . S
C129 O145 1.251 . S
C130 Eu131 2.835 . S
C130 C132 1.500 . S
C130 O146 1.257 . S
C130 O147 1.260 . S
Eu131 C130 2.835 . S
Eu131 O143 2.355 . S
Eu131 O145 2.374 . S
Eu131 O146 2.473 . S
Eu131 O147 2.480 . S
Eu131 O148 2.430 . S
Eu131 O149 2.670 . S
Eu131 O150 2.394 . S
C132 C130 1.500 . S
C132 C133 1.377 . S
C132 C137 1.377 . S
C133 C132 1.377 . S
C133 C134 1.395 1_556 S
C133 H156 0.931 . S
C134 C133 1.395 1_554 S
C134 C135 1.383 . S
C134 H157 0.931 . S
C135 C134 1.383 . S
C135 C136 1.394 . S
C136 C135 1.394 . S
C136 C137 1.378 1_554 S
C136 H158 0.931 . S
C137 C132 1.377 . S
C137 C136 1.378 1_556 S
C137 H159 0.931 . S
C138 O148 1.259 . S
C138 O149 1.270 . S
C139 O150 1.251 . S
C139 O151 1.251 . S
O140 C120 1.257 . S
O140 Eu121 2.473 . S
O141 C120 1.260 . S
O141 Eu121 2.480 . S
O142 Eu121 2.430 . S
O142 C128 1.259 . S
O143 Eu121 2.670 . S
O143 C128 1.270 . S
O143 Eu131 2.355 . S
O144 Eu121 2.394 . S
O144 C129 1.251 . S
O145 C129 1.251 . S
O145 Eu131 2.374 . S
O146 C130 1.257 . S
O146 Eu131 2.473 . S
O147 C130 1.260 . S
O147 Eu131 2.480 . S
O148 Eu131 2.430 . S
O148 C138 1.259 . S
O149 Eu121 2.355 . S
O149 Eu131 2.670 . S
O149 C138 1.270 . S
O150 Eu131 2.394 . S
O150 C139 1.251 . S
O151 Eu121 2.374 . S
O151 C139 1.251 . S
H152 C123 0.931 . S
H153 C124 0.931 . S
H154 C126 0.931 . S
H155 C127 0.931 . S
H156 C133 0.931 . S
H157 C134 0.931 . S
H158 C136 0.931 . S
H159 C137 0.931 . S
C160 Eu161 2.835 . S
C160 C162 1.500 . S
C160 O180 1.257 . S
C160 O181 1.260 . S
Eu161 C160 2.835 . S
Eu161 O180 2.473 . S
Eu161 O181 2.480 . S
Eu161 O182 2.430 . S
Eu161 O183 2.670 1_655 S
Eu161 O184 2.394 1_655 S
Eu161 O189 2.349 1_655 S
Eu161 O191 2.374 . S
C162 C160 1.500 . S
C162 C163 1.377 . S
C162 C167 1.377 . S
C163 C162 1.377 . S
C163 C164 1.395 . S
C163 H192 0.931 . S
C164 C163 1.395 . S
C164 C165 1.383 . S
C164 H193 0.931 . S
C165 C164 1.383 . S
C165 C166 1.394 . S
C166 C165 1.394 . S
C166 C167 1.378 . S
C166 H194 0.931 . S
C167 C162 1.377 . S
C167 C166 1.378 . S
C167 H195 0.931 . S
C168 O182 1.259 . S
C168 O183 1.270 1_655 S
C169 O184 1.251 . S
C169 O185 1.251 . S
C170 Eu171 2.835 1_554 S
C170 C172 1.500 . S
C170 O186 1.257 . S
C170 O187 1.260 . S
Eu171 C170 2.835 1_556 S
Eu171 O183 2.355 . S
Eu171 O185 2.374 . S
Eu171 O186 2.473 1_556 S
Eu171 O187 2.480 1_556 S
Eu171 O188 2.430 . S
Eu171 O189 2.677 . S
Eu171 O190 2.394 1_455 S
C172 C170 1.500 . S
C172 C173 1.377 . S
C172 C177 1.377 . S
C173 C172 1.377 . S
C173 C174 1.395 . S
C173 H196 0.931 . S
C174 C173 1.395 . S
C174 C175 1.383 . S
C174 H197 0.931 . S
C175 C174 1.383 . S
C175 C176 1.394 . S
C176 C175 1.394 . S
C176 C177 1.378 . S
C176 H198 0.931 . S
C177 C172 1.377 . S
C177 C176 1.378 . S
C177 H199 0.931 . S
C178 O188 1.259 . S
C178 O189 1.273 . S
C179 O190 1.251 . S
C179 O191 1.251 . S
O180 C160 1.257 . S
O180 Eu161 2.473 . S
O181 C160 1.260 . S
O181 Eu161 2.480 . S
O182 Eu161 2.430 . S
O182 C168 1.259 . S
O183 Eu161 2.670 1_455 S
O183 C168 1.270 1_455 S
O183 Eu171 2.355 . S
O184 Eu161 2.394 1_455 S
O184 C169 1.251 . S
O185 C169 1.251 . S
O185 Eu171 2.374 . S
O186 C170 1.257 . S
O186 Eu171 2.473 1_554 S
O187 C170 1.260 . S
O187 Eu171 2.480 1_554 S
O188 Eu171 2.430 . S
O188 C178 1.259 . S
O189 Eu161 2.349 1_455 S
O189 Eu171 2.677 . S
O189 C178 1.273 . S
O190 Eu171 2.394 1_655 S
O190 C179 1.251 . S
O191 Eu161 2.374 . S
O191 C179 1.251 . S
H192 C163 0.931 . S
H193 C164 0.931 . S
H194 C166 0.931 . S
H195 C167 0.931 . S
H196 C173 0.931 . S
H197 C174 0.931 . S
H198 C176 0.931 . S
H199 C177 0.931 . S
C200 Eu201 2.835 . S
C200 C202 1.500 . S
C200 O220 1.257 . S
C200 O221 1.260 . S
Eu201 C200 2.835 . S
Eu201 O220 2.473 . S
Eu201 O221 2.480 . S
Eu201 O222 2.430 . S
Eu201 O223 2.670 . S
Eu201 O224 2.394 . S
Eu201 O229 2.355 . S
Eu201 O231 2.374 . S
C202 C200 1.500 . S
C202 C203 1.377 . S
C202 C207 1.377 . S
C203 C202 1.377 . S
C203 C204 1.395 . S
C203 H232 0.931 . S
C204 C203 1.395 . S
C204 C205 1.383 . S
C204 H233 0.931 . S
C205 C204 1.383 . S
C205 C206 1.394 . S
C206 C205 1.394 . S
C206 C207 1.378 . S
C206 H234 0.931 . S
C207 C202 1.377 . S
C207 C206 1.378 . S
C207 H235 0.931 . S
C208 O222 1.259 . S
C208 O223 1.270 . S
C209 O224 1.251 . S
C209 O225 1.251 . S
C210 Eu211 2.835 . S
C210 C212 1.499 . S
C210 O226 1.257 . S
C210 O227 1.260 . S
Eu211 C210 2.835 . S
Eu211 O223 2.355 . S
Eu211 O225 2.374 . S
Eu211 O226 2.473 . S
Eu211 O227 2.480 . S
Eu211 O228 2.430 . S
Eu211 O229 2.670 . S
Eu211 O230 2.394 . S
C212 C210 1.499 . S
C212 C213 1.377 1_554 S
C212 C217 1.378 1_554 S
C213 C212 1.377 1_556 S
C213 C214 1.395 . S
C213 H236 0.931 1_556 S
C214 C213 1.395 . S
C214 C215 1.383 . S
C214 H237 0.931 . S
C215 C214 1.383 . S
C215 C216 1.394 . S
C216 C215 1.394 . S
C216 C217 1.378 . S
C216 H238 0.931 . S
C217 C212 1.378 1_556 S
C217 C216 1.378 . S
C217 H239 0.931 . S
C218 O228 1.259 . S
C218 O229 1.270 . S
C219 O230 1.251 . S
C219 O231 1.251 . S
O220 C200 1.257 . S
O220 Eu201 2.473 . S
O221 C200 1.260 . S
O221 Eu201 2.480 . S
O222 Eu201 2.430 . S
O222 C208 1.259 . S
O223 Eu201 2.670 . S
O223 C208 1.270 . S
O223 Eu211 2.355 . S
O224 Eu201 2.394 . S
O224 C209 1.251 . S
O225 C209 1.251 . S
O225 Eu211 2.374 . S
O226 C210 1.257 . S
O226 Eu211 2.473 . S
O227 C210 1.260 . S
O227 Eu211 2.480 . S
O228 Eu211 2.430 . S
O228 C218 1.259 . S
O229 Eu201 2.355 . S
O229 Eu211 2.670 . S
O229 C218 1.270 . S
O230 Eu211 2.394 . S
O230 C219 1.251 . S
O231 Eu201 2.374 . S
O231 C219 1.251 . S
H232 C203 0.931 . S
H233 C204 0.931 . S
H234 C206 0.931 . S
H235 C207 0.931 . S
H236 C213 0.931 1_554 S
H237 C214 0.931 . S
H238 C216 0.931 . S
H239 C217 0.931 . S
C240 Eu241 2.835 . S
C240 C242 1.500 . S
C240 O260 1.257 . S
C240 O261 1.260 . S
Eu241 C240 2.835 . S
Eu241 O260 2.473 . S
Eu241 O261 2.480 . S
Eu241 O262 2.430 . S
Eu241 O263 2.670 . S
Eu241 O264 2.394 . S
Eu241 O269 2.355 . S
Eu241 O271 2.374 . S
C242 C240 1.500 . S
C242 C243 1.377 . S
C242 C247 1.377 . S
C243 C242 1.377 . S
C243 C244 1.395 . S
C243 H272 0.931 . S
C244 C243 1.395 . S
C244 C245 1.383 . S
C244 H273 0.931 . S
C245 C244 1.383 . S
C245 C246 1.394 . S
C246 C245 1.394 . S
C246 C247 1.378 . S
C246 H274 0.931 . S
C247 C242 1.377 . S
C247 C246 1.378 . S
C247 H275 0.931 . S
C248 O262 1.259 . S
C248 O263 1.270 . S
C249 O264 1.251 . S
C249 O265 1.251 . S
C250 Eu251 2.835 . S
C250 C252 1.500 . S
C250 O266 1.257 . S
C250 O267 1.260 . S
Eu251 C250 2.835 . S
Eu251 O263 2.355 . S
Eu251 O265 2.374 . S
Eu251 O266 2.473 . S
Eu251 O267 2.480 . S
Eu251 O268 2.430 1_545 S
Eu251 O269 2.670 . S
Eu251 O270 2.394 . S
C252 C250 1.500 . S
C252 C253 1.377 . S
C252 C257 1.377 . S
C253 C252 1.377 . S
C253 C254 1.395 . S
C253 H276 0.931 1_545 S
C254 C253 1.395 . S
C254 C255 1.383 . S
C254 H277 0.931 1_545 S
C255 C254 1.383 . S
C255 C256 1.394 . S
C256 C255 1.394 . S
C256 C257 1.378 . S
C256 H278 0.931 . S
C257 C252 1.377 . S
C257 C256 1.378 . S
C257 H279 0.931 . S
C258 O268 1.259 1_545 S
C258 O269 1.270 . S
C259 O270 1.251 . S
C259 O271 1.251 . S
O260 C240 1.257 . S
O260 Eu241 2.473 . S
O261 C240 1.260 . S
O261 Eu241 2.480 . S
O262 Eu241 2.430 . S
O262 C248 1.259 . S
O263 Eu241 2.670 . S
O263 C248 1.270 . S
O263 Eu251 2.355 . S
O264 Eu241 2.394 . S
O264 C249 1.251 . S
O265 C249 1.251 . S
O265 Eu251 2.374 . S
O266 C250 1.257 . S
O266 Eu251 2.473 . S
O267 C250 1.260 . S
O267 Eu251 2.480 . S
O268 Eu251 2.430 1_565 S
O268 C258 1.259 1_565 S
O269 Eu241 2.355 . S
O269 Eu251 2.670 . S
O269 C258 1.270 . S
O270 Eu251 2.394 . S
O270 C259 1.251 . S
O271 Eu241 2.374 . S
O271 C259 1.251 . S
H272 C243 0.931 . S
H273 C244 0.931 . S
H274 C246 0.931 . S
H275 C247 0.931 . S
H276 C253 0.931 1_565 S
H277 C254 0.931 1_565 S
H278 C256 0.931 . S
H279 C257 0.931 . S
C280 Eu281 2.835 . S
C280 C282 1.500 . S
C280 O300 1.257 . S
C280 O301 1.260 . S
Eu281 C280 2.835 . S
Eu281 O300 2.473 . S
Eu281 O301 2.480 . S
Eu281 O302 2.430 . S
Eu281 O303 2.670 . S
Eu281 O304 2.394 . S
Eu281 O309 2.355 . S
Eu281 O311 2.374 . S
C282 C280 1.500 . S
C282 C283 1.377 . S
C282 C287 1.377 . S
C283 C282 1.377 . S
C283 C284 1.395 . S
C283 H312 0.931 . S
C284 C283 1.395 . S
C284 C285 1.383 . S
C284 H313 0.931 . S
C285 C284 1.383 . S
C285 C286 1.394 . S
C286 C285 1.394 . S
C286 C287 1.378 . S
C286 H314 0.931 . S
C287 C282 1.377 . S
C287 C286 1.378 . S
C287 H315 0.931 . S
C288 O302 1.259 . S
C288 O303 1.270 . S
C289 O304 1.251 . S
C289 O305 1.251 . S
C290 Eu291 2.835 . S
C290 C292 1.500 . S
C290 O306 1.257 . S
C290 O307 1.260 . S
Eu291 C290 2.835 . S
Eu291 O303 2.355 . S
Eu291 O305 2.374 . S
Eu291 O306 2.473 . S
Eu291 O307 2.480 . S
Eu291 O308 2.430 . S
Eu291 O309 2.670 . S
Eu291 O310 2.394 . S
C292 C290 1.500 . S
C292 C293 1.377 . S
C292 C297 1.377 . S
C293 C292 1.377 . S
C293 C294 1.395 . S
C293 H316 0.931 . S
C294 C293 1.395 . S
C294 C295 1.383 . S
C294 H317 0.931 . S
C295 C294 1.383 . S
C295 C296 1.394 . S
C296 C295 1.394 . S
C296 C297 1.378 . S
C296 H318 0.931 . S
C297 C292 1.377 . S
C297 C296 1.378 . S
C297 H319 0.931 . S
C298 O308 1.259 . S
C298 O309 1.270 . S
C299 O310 1.251 . S
C299 O311 1.251 . S
O300 C280 1.257 . S
O300 Eu281 2.473 . S
O301 C280 1.260 . S
O301 Eu281 2.480 . S
O302 Eu281 2.430 . S
O302 C288 1.259 . S
O303 Eu281 2.670 . S
O303 C288 1.270 . S
O303 Eu291 2.355 . S
O304 Eu281 2.394 . S
O304 C289 1.251 . S
O305 C289 1.251 . S
O305 Eu291 2.374 . S
O306 C290 1.257 . S
O306 Eu291 2.473 . S
O307 C290 1.260 . S
O307 Eu291 2.480 . S
O308 Eu291 2.430 . S
O308 C298 1.259 . S
O309 Eu281 2.355 . S
O309 Eu291 2.670 . S
O309 C298 1.270 . S
O310 Eu291 2.394 . S
O310 C299 1.251 . S
O311 Eu281 2.374 . S
O311 C299 1.251 . S
H312 C283 0.931 . S
H313 C284 0.931 . S
H314 C286 0.931 . S
H315 C287 0.931 . S
H316 C293 0.931 . S
H317 C294 0.931 . S
H318 C296 0.931 . S
H319 C297 0.931 . S
C320 Eu321 2.835 . S
C320 C322 1.500 . S
C320 O340 1.257 . S
C320 O341 1.260 . S
Eu321 C320 2.835 . S
Eu321 O340 2.473 . S
Eu321 O341 2.480 . S
Eu321 O342 2.430 . S
Eu321 O343 2.670 . S
Eu321 O344 2.394 . S
Eu321 O349 2.355 . S
Eu321 O351 2.374 . S
C322 C320 1.500 . S
C322 C323 1.377 . S
C322 C327 1.377 . S
C323 C322 1.377 . S
C323 C324 1.395 . S
C323 H352 0.931 . S
C324 C323 1.395 . S
C324 C325 1.383 . S
C324 H353 0.931 . S
C325 C324 1.383 . S
C325 C326 1.394 . S
C326 C325 1.394 . S
C326 C327 1.378 . S
C326 H354 0.931 . S
C327 C322 1.377 . S
C327 C326 1.378 . S
C327 H355 0.931 . S
C328 O342 1.259 . S
C328 O343 1.270 . S
C329 O344 1.251 . S
C329 O345 1.251 . S
C330 Eu331 2.835 . S
C330 C332 1.500 . S
C330 O346 1.257 . S
C330 O347 1.260 . S
Eu331 C330 2.835 . S
Eu331 O343 2.355 . S
Eu331 O345 2.374 . S
Eu331 O346 2.473 . S
Eu331 O347 2.480 . S
Eu331 O348 2.430 . S
Eu331 O349 2.670 . S
Eu331 O350 2.394 . S
C332 C330 1.500 . S
C332 C333 1.377 . S
C332 C337 1.377 . S
C333 C332 1.377 . S
C333 C334 1.395 . S
C333 H356 0.931 . S
C334 C333 1.395 . S
C334 C335 1.383 . S
C334 H357 0.931 . S
C335 C334 1.383 . S
C335 C336 1.394 . S
C336 C335 1.394 . S
C336 C337 1.378 . S
C336 H358 0.931 . S
C337 C332 1.377 . S
C337 C336 1.378 . S
C337 H359 0.931 . S
C338 O348 1.259 . S
C338 O349 1.270 . S
C339 O350 1.251 . S
C339 O351 1.251 . S
O340 C320 1.257 . S
O340 Eu321 2.473 . S
O341 C320 1.260 . S
O341 Eu321 2.480 . S
O342 Eu321 2.430 . S
O342 C328 1.259 . S
O343 Eu321 2.670 . S
O343 C328 1.270 . S
O343 Eu331 2.355 . S
O344 Eu321 2.394 . S
O344 C329 1.251 . S
O345 C329 1.251 . S
O345 Eu331 2.374 . S
O346 C330 1.257 . S
O346 Eu331 2.473 . S
O347 C330 1.260 . S
O347 Eu331 2.480 . S
O348 Eu331 2.430 . S
O348 C338 1.259 . S
O349 Eu321 2.355 . S
O349 Eu331 2.670 . S
O349 C338 1.270 . S
O350 Eu331 2.394 . S
O350 C339 1.251 . S
O351 Eu321 2.374 . S
O351 C339 1.251 . S
H352 C323 0.931 . S
H353 C324 0.931 . S
H354 C326 0.931 . S
H355 C327 0.931 . S
H356 C333 0.931 . S
H357 C334 0.931 . S
H358 C336 0.931 . S
H359 C337 0.931 . S
C360 Eu361 2.835 . S
C360 C362 1.500 1_554 S
C360 O380 1.257 . S
C360 O381 1.260 . S
Eu361 C360 2.835 . S
Eu361 O380 2.473 . S
Eu361 O381 2.480 . S
Eu361 O382 2.430 . S
Eu361 O383 2.670 . S
Eu361 O384 2.394 . S
Eu361 O389 2.355 . S
Eu361 O391 2.374 . S
C362 C360 1.500 1_556 S
C362 C363 1.377 . S
C362 C367 1.377 . S
C363 C362 1.377 . S
C363 C364 1.395 . S
C363 H392 0.931 . S
C364 C363 1.395 . S
C364 C365 1.383 . S
C364 H393 0.931 . S
C365 C364 1.383 . S
C365 C366 1.394 . S
C366 C365 1.394 . S
C366 C367 1.378 . S
C366 H394 0.931 . S
C367 C362 1.377 . S
C367 C366 1.378 . S
C367 H395 0.931 . S
C368 O382 1.259 . S
C368 O383 1.270 . S
C369 O384 1.251 . S
C369 O385 1.251 . S
C370 Eu371 2.835 . S
C370 C372 1.500 . S
C370 O386 1.257 . S
C370 O387 1.260 . S
Eu371 C370 2.835 . S
Eu371 O383 2.355 . S
Eu371 O385 2.374 . S
Eu371 O386 2.473 . S
Eu371 O387 2.480 . S
Eu371 O388 2.430 . S
Eu371 O389 2.670 . S
Eu371 O390 2.394 . S
C372 C370 1.500 . S
C372 C373 1.377 . S
C372 C377 1.377 . S
C373 C372 1.377 . S
C373 C374 1.395 . S
C373 H396 0.931 . S
C374 C373 1.395 . S
C374 C375 1.383 . S
C374 H397 0.931 . S
C375 C374 1.383 . S
C375 C376 1.394 . S
C376 C375 1.394 . S
C376 C377 1.378 . S
C376 H398 0.931 . S
C377 C372 1.377 . S
C377 C376 1.378 . S
C377 H399 0.931 . S
C378 O388 1.259 . S
C378 O389 1.270 . S
C379 O390 1.251 . S
C379 O391 1.251 . S
O380 C360 1.257 . S
O380 Eu361 2.473 . S
O381 C360 1.260 . S
O381 Eu361 2.480 . S
O382 Eu361 2.430 . S
O382 C368 1.259 . S
O383 Eu361 2.670 . S
O383 C368 1.270 . S
O383 Eu371 2.355 . S
O384 Eu361 2.394 . S
O384 C369 1.251 . S
O385 C369 1.251 . S
O385 Eu371 2.374 . S
O386 C370 1.257 . S
O386 Eu371 2.473 . S
O387 C370 1.260 . S
O387 Eu371 2.480 . S
O388 Eu371 2.430 . S
O388 C378 1.259 . S
O389 Eu361 2.355 . S
O389 Eu371 2.670 . S
O389 C378 1.270 . S
O390 Eu371 2.394 . S
O390 C379 1.251 . S
O391 Eu361 2.374 . S
O391 C379 1.251 . S
H392 C363 0.931 . S
H393 C364 0.931 . S
H394 C366 0.931 . S
H395 C367 0.931 . S
H396 C373 0.931 . S
H397 C374 0.931 . S
H398 C376 0.931 . S
H399 C377 0.931 . S
C400 Eu401 2.835 . S
C400 C402 1.500 . S
C400 O420 1.257 . S
C400 O421 1.260 . S
Eu401 C400 2.835 . S
Eu401 O420 2.473 . S
Eu401 O421 2.480 . S
Eu401 O422 2.430 . S
Eu401 O423 2.670 . S
Eu401 O424 2.394 . S
Eu401 O429 2.355 . S
Eu401 O431 2.374 . S
C402 C400 1.500 . S
C402 C403 1.377 . S
C402 C407 1.377 . S
C403 C402 1.377 . S
C403 C404 1.395 . S
C403 H432 0.931 . S
C404 C403 1.395 . S
C404 C405 1.383 . S
C404 H433 0.931 . S
C405 C404 1.383 . S
C405 C406 1.394 . S
C406 C405 1.394 . S
C406 C407 1.378 . S
C406 H434 0.931 . S
C407 C402 1.377 . S
C407 C406 1.378 . S
C407 H435 0.931 . S
C408 O422 1.259 . S
C408 O423 1.270 . S
C409 O424 1.251 . S
C409 O425 1.251 . S
C410 Eu411 2.835 1_554 S
C410 C412 1.500 . S
C410 O426 1.257 . S
C410 O427 1.260 . S
Eu411 C410 2.835 1_556 S
Eu411 O423 2.355 . S
Eu411 O425 2.374 . S
Eu411 O426 2.473 1_556 S
Eu411 O427 2.480 1_556 S
Eu411 O428 2.430 . S
Eu411 O429 2.670 . S
Eu411 O430 2.394 . S
C412 C410 1.500 . S
C412 C413 1.377 . S
C412 C417 1.377 . S
C413 C412 1.377 . S
C413 C414 1.395 . S
C413 H436 0.931 . S
C414 C413 1.395 . S
C414 C415 1.383 . S
C414 H437 0.931 . S
C415 C414 1.383 . S
C415 C416 1.394 . S
C416 C415 1.394 . S
C416 C417 1.378 . S
C416 H438 0.931 . S
C417 C412 1.377 . S
C417 C416 1.378 . S
C417 H439 0.931 . S
C418 O428 1.259 . S
C418 O429 1.270 . S
C419 O430 1.251 . S
C419 O431 1.251 . S
O420 C400 1.257 . S
O420 Eu401 2.473 . S
O421 C400 1.260 . S
O421 Eu401 2.480 . S
O422 Eu401 2.430 . S
O422 C408 1.259 . S
O423 Eu401 2.670 . S
O423 C408 1.270 . S
O423 Eu411 2.355 . S
O424 Eu401 2.394 . S
O424 C409 1.251 . S
O425 C409 1.251 . S
O425 Eu411 2.374 . S
O426 C410 1.257 . S
O426 Eu411 2.473 1_554 S
O427 C410 1.260 . S
O427 Eu411 2.480 1_554 S
O428 Eu411 2.430 . S
O428 C418 1.259 . S
O429 Eu401 2.355 . S
O429 Eu411 2.670 . S
O429 C418 1.270 . S
O430 Eu411 2.394 . S
O430 C419 1.251 . S
O431 Eu401 2.374 . S
O431 C419 1.251 . S
H432 C403 0.931 . S
H433 C404 0.931 . S
H434 C406 0.931 . S
H435 C407 0.931 . S
H436 C413 0.931 . S
H437 C414 0.931 . S
H438 C416 0.931 . S
H439 C417 0.931 . S
C440 Eu441 2.835 . S
C440 C442 1.500 . S
C440 O460 1.257 . S
C440 O461 1.260 . S
Eu441 C440 2.835 . S
Eu441 O460 2.473 . S
Eu441 O461 2.480 . S
Eu441 O462 2.430 . S
Eu441 O463 2.670 . S
Eu441 O464 2.394 . S
Eu441 O469 2.355 . S
Eu441 O471 2.374 . S
C442 C440 1.500 . S
C442 C443 1.377 . S
C442 C447 1.377 . S
C443 C442 1.377 . S
C443 C444 1.395 . S
C443 H472 0.931 . S
C444 C443 1.395 . S
C444 C445 1.383 . S
C444 H473 0.931 . S
C445 C444 1.383 . S
C445 C446 1.394 . S
C446 C445 1.394 . S
C446 C447 1.378 . S
C446 H474 0.931 . S
C447 C442 1.377 . S
C447 C446 1.378 . S
C447 H475 0.931 . S
C448 O462 1.259 . S
C448 O463 1.270 . S
C449 O464 1.251 . S
C449 O465 1.251 . S
C450 Eu451 2.835 . S
C450 C452 1.500 . S
C450 O466 1.257 . S
C450 O467 1.260 . S
Eu451 C450 2.835 . S
Eu451 O463 2.355 . S
Eu451 O465 2.374 . S
Eu451 O466 2.473 . S
Eu451 O467 2.480 . S
Eu451 O468 2.430 . S
Eu451 O469 2.670 . S
Eu451 O470 2.394 . S
C452 C450 1.500 . S
C452 C453 1.377 . S
C452 C457 1.377 . S
C453 C452 1.377 . S
C453 C454 1.395 . S
C453 H476 0.931 . S
C454 C453 1.395 . S
C454 C455 1.383 . S
C454 H477 0.931 . S
C455 C454 1.383 . S
C455 C456 1.394 . S
C456 C455 1.394 . S
C456 C457 1.378 . S
C456 H478 0.931 . S
C457 C452 1.377 . S
C457 C456 1.378 . S
C457 H479 0.931 . S
C458 O468 1.259 . S
C458 O469 1.270 . S
C459 O470 1.251 . S
C459 O471 1.251 . S
O460 C440 1.257 . S
O460 Eu441 2.473 . S
O461 C440 1.260 . S
O461 Eu441 2.480 . S
O462 Eu441 2.430 . S
O462 C448 1.259 . S
O463 Eu441 2.670 . S
O463 C448 1.270 . S
O463 Eu451 2.355 . S
O464 Eu441 2.394 . S
O464 C449 1.251 . S
O465 C449 1.251 . S
O465 Eu451 2.374 . S
O466 C450 1.257 . S
O466 Eu451 2.473 . S
O467 C450 1.260 . S
O467 Eu451 2.480 . S
O468 Eu451 2.430 . S
O468 C458 1.259 . S
O469 Eu441 2.355 . S
O469 Eu451 2.670 . S
O469 C458 1.270 . S
O470 Eu451 2.394 . S
O470 C459 1.251 . S
O471 Eu441 2.374 . S
O471 C459 1.251 . S
H472 C443 0.931 . S
H473 C444 0.931 . S
H474 C446 0.931 . S
H475 C447 0.931 . S
H476 C453 0.931 . S
H477 C454 0.931 . S
H478 C456 0.931 . S
H479 C457 0.931 . S
C480 Eu481 2.835 . S
C480 C482 1.500 . S
C480 O500 1.257 . S
C480 O501 1.260 . S
Eu481 C480 2.835 . S
Eu481 O500 2.473 . S
Eu481 O501 2.480 . S
Eu481 O502 2.430 . S
Eu481 O503 2.670 . S
Eu481 O504 2.394 . S
Eu481 O509 2.355 . S
Eu481 O511 2.374 . S
C482 C480 1.500 . S
C482 C483 1.377 . S
C482 C487 1.377 . S
C483 C482 1.377 . S
C483 C484 1.395 . S
C483 H512 0.931 . S
C484 C483 1.395 . S
C484 C485 1.383 . S
C484 H513 0.931 . S
C485 C484 1.383 . S
C485 C486 1.394 . S
C486 C485 1.394 . S
C486 C487 1.378 . S
C486 H514 0.931 . S
C487 C482 1.377 . S
C487 C486 1.378 . S
C487 H515 0.931 . S
C488 O502 1.259 . S
C488 O503 1.270 . S
C489 O504 1.251 . S
C489 O505 1.251 . S
C490 Eu491 2.835 . S
C490 C492 1.500 . S
C490 O506 1.257 . S
C490 O507 1.260 . S
Eu491 C490 2.835 . S
Eu491 O503 2.355 . S
Eu491 O505 2.374 . S
Eu491 O506 2.473 . S
Eu491 O507 2.480 . S
Eu491 O508 2.430 . S
Eu491 O509 2.670 . S
Eu491 O510 2.394 . S
C492 C490 1.500 . S
C492 C493 1.377 . S
C492 C497 1.377 . S
C493 C492 1.377 . S
C493 C494 1.395 . S
C493 H516 0.931 . S
C494 C493 1.395 . S
C494 C495 1.383 . S
C494 H517 0.931 . S
C495 C494 1.383 . S
C495 C496 1.394 . S
C496 C495 1.394 . S
C496 C497 1.378 . S
C496 H518 0.931 . S
C497 C492 1.377 . S
C497 C496 1.378 . S
C497 H519 0.931 . S
C498 O508 1.259 . S
C498 O509 1.270 . S
C499 O510 1.251 . S
C499 O511 1.251 . S
O500 C480 1.257 . S
O500 Eu481 2.473 . S
O501 C480 1.260 . S
O501 Eu481 2.480 . S
O502 Eu481 2.430 . S
O502 C488 1.259 . S
O503 Eu481 2.670 . S
O503 C488 1.270 . S
O503 Eu491 2.355 . S
O504 Eu481 2.394 . S
O504 C489 1.251 . S
O505 C489 1.251 . S
O505 Eu491 2.374 . S
O506 C490 1.257 . S
O506 Eu491 2.473 . S
O507 C490 1.260 . S
O507 Eu491 2.480 . S
O508 Eu491 2.430 . S
O508 C498 1.259 . S
O509 Eu481 2.355 . S
O509 Eu491 2.670 . S
O509 C498 1.270 . S
O510 Eu491 2.394 . S
O510 C499 1.251 . S
O511 Eu481 2.374 . S
O511 C499 1.251 . S
H512 C483 0.931 . S
H513 C484 0.931 . S
H514 C486 0.931 . S
H515 C487 0.931 . S
H516 C493 0.931 . S
H517 C494 0.931 . S
H518 C496 0.931 . S
H519 C497 0.931 . S
C520 Eu521 2.835 1_556 S
C520 C522 1.500 . S
C520 O540 1.257 . S
C520 O541 1.260 . S
Eu521 C520 2.835 1_554 S
Eu521 O540 2.473 1_554 S
Eu521 O541 2.480 1_554 S
Eu521 O542 2.430 . S
Eu521 O543 2.670 . S
Eu521 O544 2.394 1_554 S
Eu521 O549 2.355 . S
Eu521 O551 2.374 . S
C522 C520 1.500 . S
C522 C523 1.377 . S
C522 C527 1.377 . S
C523 C522 1.377 . S
C523 C524 1.395 . S
C523 H552 0.931 . S
C524 C523 1.395 . S
C524 C525 1.383 . S
C524 H553 0.931 . S
C525 C524 1.383 . S
C525 C526 1.394 . S
C526 C525 1.394 . S
C526 C527 1.378 . S
C526 H554 0.931 . S
C527 C522 1.377 . S
C527 C526 1.378 . S
C527 H555 0.931 . S
C528 O542 1.259 . S
C528 O543 1.270 . S
C529 O544 1.251 . S
C529 O545 1.251 1_556 S
C530 Eu531 2.835 1_655 S
C530 C532 1.500 . S
C530 O546 1.257 1_655 S
C530 O547 1.260 . S
Eu531 C530 2.835 1_455 S
Eu531 O543 2.355 . S
Eu531 O545 2.374 . S
Eu531 O546 2.473 . S
Eu531 O547 2.480 1_455 S
Eu531 O548 2.430 . S
Eu531 O549 2.670 . S
Eu531 O550 2.394 . S
C532 C530 1.500 . S
C532 C533 1.377 . S
C532 C537 1.377 . S
C533 C532 1.377 . S
C533 C534 1.395 . S
C533 H556 0.931 . S
C534 C533 1.395 . S
C534 C535 1.383 . S
C534 H557 0.931 . S
C535 C534 1.383 . S
C535 C536 1.394 . S
C536 C535 1.394 . S
C536 C537 1.378 . S
C536 H558 0.931 . S
C537 C532 1.377 . S
C537 C536 1.378 . S
C537 H559 0.931 1_655 S
C538 O548 1.259 . S
C538 O549 1.270 . S
C539 O550 1.251 . S
C539 O551 1.251 . S
O540 C520 1.257 . S
O540 Eu521 2.473 1_556 S
O541 C520 1.260 . S
O541 Eu521 2.480 1_556 S
O542 Eu521 2.430 . S
O542 C528 1.259 . S
O543 Eu521 2.670 . S
O543 C528 1.270 . S
O543 Eu531 2.355 . S
O544 Eu521 2.394 1_556 S
O544 C529 1.251 . S
O545 C529 1.251 1_554 S
O545 Eu531 2.374 . S
O546 C530 1.257 1_455 S
O546 Eu531 2.473 . S
O547 C530 1.260 . S
O547 Eu531 2.480 1_655 S
O548 Eu531 2.430 . S
O548 C538 1.259 . S
O549 Eu521 2.355 . S
O549 Eu531 2.670 . S
O549 C538 1.270 . S
O550 Eu531 2.394 . S
O550 C539 1.251 . S
O551 Eu521 2.374 . S
O551 C539 1.251 . S
H552 C523 0.931 . S
H553 C524 0.931 . S
H554 C526 0.931 . S
H555 C527 0.931 . S
H556 C533 0.931 . S
H557 C534 0.931 . S
H558 C536 0.931 . S
H559 C537 0.931 1_455 S
C560 Eu561 2.835 . S
C560 C562 1.500 . S
C560 O580 1.257 . S
C560 O581 1.260 . S
Eu561 C560 2.835 . S
Eu561 O580 2.473 . S
Eu561 O581 2.480 . S
Eu561 O582 2.430 . S
Eu561 O583 2.670 . S
Eu561 O584 2.394 . S
Eu561 O589 2.355 . S
Eu561 O591 2.374 . S
C562 C560 1.500 . S
C562 C563 1.377 . S
C562 C567 1.377 . S
C563 C562 1.377 . S
C563 C564 1.395 . S
C563 H592 0.931 . S
C564 C563 1.395 . S
C564 C565 1.383 . S
C564 H593 0.931 . S
C565 C564 1.383 . S
C565 C566 1.394 . S
C566 C565 1.394 . S
C566 C567 1.378 . S
C566 H594 0.931 . S
C567 C562 1.377 . S
C567 C566 1.378 . S
C567 H595 0.931 . S
C568 O582 1.259 . S
C568 O583 1.270 . S
C569 O584 1.251 . S
C569 O585 1.251 . S
C570 Eu571 2.835 . S
C570 C572 1.500 . S
C570 O586 1.257 . S
C570 O587 1.260 . S
Eu571 C570 2.835 . S
Eu571 O583 2.355 . S
Eu571 O585 2.374 . S
Eu571 O586 2.473 . S
Eu571 O587 2.480 . S
Eu571 O588 2.430 . S
Eu571 O589 2.670 . S
Eu571 O590 2.394 . S
C572 C570 1.500 . S
C572 C573 1.377 . S
C572 C577 1.377 . S
C573 C572 1.377 . S
C573 C574 1.395 . S
C573 H596 0.931 . S
C574 C573 1.395 . S
C574 C575 1.383 . S
C574 H597 0.931 . S
C575 C574 1.383 . S
C575 C576 1.394 . S
C576 C575 1.394 . S
C576 C577 1.378 . S
C576 H598 0.931 . S
C577 C572 1.377 . S
C577 C576 1.378 . S
C577 H599 0.931 . S
C578 O588 1.259 . S
C578 O589 1.270 . S
C579 O590 1.251 . S
C579 O591 1.251 . S
O580 C560 1.257 . S
O580 Eu561 2.473 . S
O581 C560 1.260 . S
O581 Eu561 2.480 . S
O582 Eu561 2.430 . S
O582 C568 1.259 . S
O583 Eu561 2.670 . S
O583 C568 1.270 . S
O583 Eu571 2.355 . S
O584 Eu561 2.394 . S
O584 C569 1.251 . S
O585 C569 1.251 . S
O585 Eu571 2.374 . S
O586 C570 1.257 . S
O586 Eu571 2.473 . S
O587 C570 1.260 . S
O587 Eu571 2.480 . S
O588 Eu571 2.430 . S
O588 C578 1.259 . S
O589 Eu561 2.355 . S
O589 Eu571 2.670 . S
O589 C578 1.270 . S
O590 Eu571 2.394 . S
O590 C579 1.251 . S
O591 Eu561 2.374 . S
O591 C579 1.251 . S
H592 C563 0.931 . S
H593 C564 0.931 . S
H594 C566 0.931 . S
H595 C567 0.931 . S
H596 C573 0.931 . S
H597 C574 0.931 . S
H598 C576 0.931 . S
H599 C577 0.931 . S
C600 Eu601 2.835 . S
C600 C602 1.500 1_556 S
C600 O620 1.257 . S
C600 O621 1.260 . S
Eu601 C600 2.835 . S
Eu601 O620 2.473 . S
Eu601 O621 2.480 . S
Eu601 O622 2.430 . S
Eu601 O623 2.670 . S
Eu601 O624 2.394 . S
Eu601 O629 2.355 . S
Eu601 O631 2.374 . S
C602 C600 1.500 1_554 S
C602 C603 1.377 . S
C602 C607 1.377 . S
C603 C602 1.377 . S
C603 C604 1.395 . S
C603 H632 0.931 . S
C604 C603 1.395 . S
C604 C605 1.383 . S
C604 H633 0.931 . S
C605 C604 1.383 . S
C605 C606 1.394 . S
C606 C605 1.394 . S
C606 C607 1.378 . S
C606 H634 0.931 . S
C607 C602 1.377 . S
C607 C606 1.378 . S
C607 H635 0.931 . S
C608 O622 1.259 . S
C608 O623 1.270 . S
C609 O624 1.251 . S
C609 O625 1.251 . S
C610 Eu611 2.835 1_655 S
C610 C612 1.500 . S
C610 O626 1.257 1_655 S
C610 O627 1.260 . S
Eu611 C610 2.835 1_455 S
Eu611 O623 2.355 . S
Eu611 O625 2.374 . S
Eu611 O626 2.473 . S
Eu611 O627 2.480 1_455 S
Eu611 O628 2.430 . S
Eu611 O629 2.670 . S
Eu611 O630 2.394 . S
C612 C610 1.500 . S
C612 C613 1.377 . S
C612 C617 1.377 . S
C613 C612 1.377 . S
C613 C614 1.395 . S
C613 H636 0.931 . S
C614 C613 1.395 . S
C614 C615 1.383 . S
C614 H637 0.931 . S
C615 C614 1.383 . S
C615 C616 1.394 . S
C616 C615 1.394 . S
C616 C617 1.378 . S
C616 H638 0.931 . S
C617 C612 1.377 . S
C617 C616 1.378 . S
C617 H639 0.931 . S
C618 O628 1.259 . S
C618 O629 1.270 . S
C619 O630 1.251 . S
C619 O631 1.251 . S
O620 C600 1.257 . S
O620 Eu601 2.473 . S
O621 C600 1.260 . S
O621 Eu601 2.480 . S
O622 Eu601 2.430 . S
O622 C608 1.259 . S
O623 Eu601 2.670 . S
O623 C608 1.270 . S
O623 Eu611 2.355 . S
O624 Eu601 2.394 . S
O624 C609 1.251 . S
O625 C609 1.251 . S
O625 Eu611 2.374 . S
O626 C610 1.257 1_455 S
O626 Eu611 2.473 . S
O627 C610 1.260 . S
O627 Eu611 2.480 1_655 S
O628 Eu611 2.430 . S
O628 C618 1.259 . S
O629 Eu601 2.355 . S
O629 Eu611 2.670 . S
O629 C618 1.270 . S
O630 Eu611 2.394 . S
O630 C619 1.251 . S
O631 Eu601 2.374 . S
O631 C619 1.251 . S
H632 C603 0.931 . S
H633 C604 0.931 . S
H634 C606 0.931 . S
H635 C607 0.931 . S
H636 C613 0.931 . S
H637 C614 0.931 . S
H638 C616 0.931 . S
H639 C617 0.931 . S
C640 C641 1.387 1_556 S
C640 H644 0.950 . S
C640 C649 1.390 . S
C641 C640 1.387 1_554 S
C641 C643 1.387 . S
H642 C649 0.950 . S
C643 C641 1.387 . S
C643 C645 1.390 1_554 S
C643 H647 0.950 . S
H644 C640 0.950 . S
C645 C643 1.390 1_556 S
C645 C646 1.387 . S
C645 H648 0.950 . S
C646 C645 1.387 . S
C646 C649 1.387 . S
H647 C643 0.950 . S
H648 C645 0.950 . S
C649 C640 1.390 . S
C649 H642 0.950 . S
C649 C646 1.387 . S
C650 C651 1.387 . S
C650 H654 0.950 . S
C650 C659 1.390 . S
C651 C650 1.387 . S
C651 C653 1.387 . S
H652 C659 0.950 . S
C653 C651 1.387 . S
C653 C655 1.390 . S
C653 H657 0.950 . S
H654 C650 0.950 . S
C655 C653 1.390 . S
C655 C656 1.387 . S
C655 H658 0.950 . S
C656 C655 1.387 . S
C656 C659 1.387 . S
H657 C653 0.950 . S
H658 C655 0.950 . S
C659 C650 1.390 . S
C659 H652 0.950 . S
C659 C656 1.387 . S
C660 C661 1.387 . S
C660 H664 0.950 . S
C660 C669 1.390 . S
C661 C660 1.387 . S
C661 C663 1.387 . S
H662 C669 0.950 . S
C663 C661 1.387 . S
C663 C665 1.390 . S
C663 H667 0.950 . S
H664 C660 0.950 . S
C665 C663 1.390 . S
C665 C666 1.387 . S
C665 H668 0.950 . S
C666 C665 1.387 . S
C666 C669 1.387 . S
H667 C663 0.950 . S
H668 C665 0.950 . S
C669 C660 1.390 . S
C669 H662 0.950 . S
C669 C666 1.387 . S
C670 C671 1.387 . S
C670 H674 0.950 . S
C670 C679 1.390 . S
C671 C670 1.387 . S
C671 C673 1.387 . S
H672 C679 0.950 . S
C673 C671 1.387 . S
C673 C675 1.390 . S
C673 H677 0.950 . S
H674 C670 0.950 . S
C675 C673 1.390 . S
C675 C676 1.387 . S
C675 H678 0.950 . S
C676 C675 1.387 . S
C676 C679 1.387 . S
H677 C673 0.950 . S
H678 C675 0.950 . S
C679 C670 1.390 . S
C679 H672 0.950 . S
C679 C676 1.387 . S
C680 C681 1.387 . S
C680 H684 0.950 . S
C680 C689 1.390 . S
C681 C680 1.387 . S
C681 C683 1.387 . S
H682 C689 0.950 1_556 S
C683 C681 1.387 . S
C683 C685 1.390 . S
C683 H687 0.950 . S
H684 C680 0.950 . S
C685 C683 1.390 . S
C685 C686 1.387 1_554 S
C685 H688 0.950 1_554 S
C686 C685 1.387 1_556 S
C686 C689 1.387 1_556 S
H687 C683 0.950 . S
H688 C685 0.950 1_556 S
C689 C680 1.390 . S
C689 H682 0.950 1_554 S
C689 C686 1.387 1_554 S
C690 C691 1.387 . S
C690 H694 0.950 . S
C690 C699 1.390 . S
C691 C690 1.387 . S
C691 C693 1.387 . S
H692 C699 0.950 . S
C693 C691 1.387 . S
C693 C695 1.390 . S
C693 H697 0.950 . S
H694 C690 0.950 . S
C695 C693 1.390 . S
C695 C696 1.387 . S
C695 H698 0.950 . S
C696 C695 1.387 . S
C696 C699 1.387 . S
H697 C693 0.950 . S
H698 C695 0.950 . S
C699 C690 1.390 . S
C699 H692 0.950 . S
C699 C696 1.387 . S
C700 C701 1.387 . S
C700 H704 0.950 . S
C700 C709 1.390 . S
C701 C700 1.387 . S
C701 C703 1.387 . S
H702 C709 0.950 . S
C703 C701 1.387 . S
C703 C705 1.390 . S
C703 H707 0.950 . S
H704 C700 0.950 . S
C705 C703 1.390 . S
C705 C706 1.387 . S
C705 H708 0.950 . S
C706 C705 1.387 . S
C706 C709 1.387 . S
H707 C703 0.950 . S
H708 C705 0.950 . S
C709 C700 1.390 . S
C709 H702 0.950 . S
C709 C706 1.387 . S
C710 C711 1.387 . S
C710 H714 0.950 . S
C710 C719 1.390 . S
C711 C710 1.387 . S
C711 C713 1.387 . S
H712 C719 0.950 . S
C713 C711 1.387 . S
C713 C715 1.390 . S
C713 H717 0.950 . S
H714 C710 0.950 . S
C715 C713 1.390 . S
C715 C716 1.387 . S
C715 H718 0.950 . S
C716 C715 1.387 . S
C716 C719 1.387 . S
H717 C713 0.950 . S
H718 C715 0.950 . S
C719 C710 1.390 . S
C719 H712 0.950 . S
C719 C716 1.387 . S
C720 C721 1.387 . S
C720 H724 0.950 . S
C720 C729 1.390 . S
C721 C720 1.387 . S
C721 C723 1.387 . S
H722 C729 0.950 . S
C723 C721 1.387 . S
C723 C725 1.390 . S
C723 H727 0.950 . S
H724 C720 0.950 . S
C725 C723 1.390 . S
C725 C726 1.387 . S
C725 H728 0.950 . S
C726 C725 1.387 . S
C726 C729 1.387 . S
H727 C723 0.950 . S
H728 C725 0.950 . S
C729 C720 1.390 . S
C729 H722 0.950 . S
C729 C726 1.387 . S
C730 C731 1.387 . S
C730 H734 0.950 . S
C730 C739 1.390 . S
C731 C730 1.387 . S
C731 C733 1.387 . S
H732 C739 0.950 . S
C733 C731 1.387 . S
C733 C735 1.390 . S
C733 H737 0.950 . S
H734 C730 0.950 . S
C735 C733 1.390 . S
C735 C736 1.387 . S
C735 H738 0.950 . S
C736 C735 1.387 . S
C736 C739 1.387 . S
H737 C733 0.950 . S
H738 C735 0.950 . S
C739 C730 1.390 . S
C739 H732 0.950 . S
C739 C736 1.387 . S
C740 C741 1.387 . S
C740 H744 0.950 1_655 S
C740 C749 1.390 . S
C741 C740 1.387 . S
C741 C743 1.387 . S
H742 C749 0.950 . S
C743 C741 1.387 . S
C743 C745 1.390 . S
C743 H747 0.950 . S
H744 C740 0.950 1_455 S
C745 C743 1.390 . S
C745 C746 1.387 . S
C745 H748 0.950 . S
C746 C745 1.387 . S
C746 C749 1.387 . S
H747 C743 0.950 . S
H748 C745 0.950 . S
C749 C740 1.390 . S
C749 H742 0.950 . S
C749 C746 1.387 . S
C750 C751 1.387 . S
C750 H754 0.950 . S
C750 C759 1.390 . S
C751 C750 1.387 . S
C751 C753 1.387 . S
H752 C759 0.950 . S
C753 C751 1.387 . S
C753 C755 1.390 . S
C753 H757 0.950 . S
H754 C750 0.950 . S
C755 C753 1.390 . S
C755 C756 1.387 . S
C755 H758 0.950 . S
C756 C755 1.387 . S
C756 C759 1.387 . S
H757 C753 0.950 . S
H758 C755 0.950 . S
C759 C750 1.390 . S
C759 H752 0.950 . S
C759 C756 1.387 . S
C760 C761 1.387 . S
C760 H764 0.950 . S
C760 C769 1.390 . S
C761 C760 1.387 . S
C761 C763 1.387 . S
H762 C769 0.950 . S
C763 C761 1.387 . S
C763 C765 1.390 . S
C763 H767 0.950 . S
H764 C760 0.950 . S
C765 C763 1.390 . S
C765 C766 1.387 . S
C765 H768 0.950 . S
C766 C765 1.387 . S
C766 C769 1.387 . S
H767 C763 0.950 . S
H768 C765 0.950 . S
C769 C760 1.390 . S
C769 H762 0.950 . S
C769 C766 1.387 . S
C770 C771 1.387 . S
C770 H774 0.950 . S
C770 C779 1.390 . S
C771 C770 1.387 . S
C771 C773 1.387 . S
H772 C779 0.950 . S
C773 C771 1.387 . S
C773 C775 1.390 . S
C773 H777 0.950 . S
H774 C770 0.950 . S
C775 C773 1.390 . S
C775 C776 1.387 . S
C775 H778 0.950 . S
C776 C775 1.387 . S
C776 C779 1.387 . S
H777 C773 0.950 . S
H778 C775 0.950 . S
C779 C770 1.390 . S
C779 H772 0.950 . S
C779 C776 1.387 . S
C780 C781 1.387 . S
C780 H784 0.950 . S
C780 C789 1.390 . S
C781 C780 1.387 . S
C781 C783 1.387 . S
H782 C789 0.950 . S
C783 C781 1.387 . S
C783 C785 1.390 . S
C783 H787 0.950 . S
H784 C780 0.950 . S
C785 C783 1.390 . S
C785 C786 1.387 . S
C785 H788 0.950 . S
C786 C785 1.387 . S
C786 C789 1.387 . S
H787 C783 0.950 . S
H788 C785 0.950 . S
C789 C780 1.390 . S
C789 H782 0.950 . S
C789 C786 1.387 . S
C790 C791 1.387 . S
C790 H794 0.950 . S
C790 C799 1.390 . S
C791 C790 1.387 . S
C791 C793 1.387 . S
H792 C799 0.950 . S
C793 C791 1.387 . S
C793 C795 1.390 . S
C793 H797 0.950 . S
H794 C790 0.950 . S
C795 C793 1.390 . S
C795 C796 1.387 . S
C795 H798 0.950 . S
C796 C795 1.387 . S
C796 C799 1.387 . S
H797 C793 0.950 . S
H798 C795 0.950 . S
C799 C790 1.390 . S
C799 H792 0.950 . S
C799 C796 1.387 . S
C800 C801 1.387 . S
C800 H804 0.950 . S
C800 C809 1.390 . S
C801 C800 1.387 . S
C801 C803 1.387 . S
H802 C809 0.950 . S
C803 C801 1.387 . S
C803 C805 1.390 . S
C803 H807 0.950 . S
H804 C800 0.950 . S
C805 C803 1.390 . S
C805 C806 1.387 . S
C805 H808 0.950 . S
C806 C805 1.387 . S
C806 C809 1.387 . S
H807 C803 0.950 . S
H808 C805 0.950 . S
C809 C800 1.390 . S
C809 H802 0.950 . S
C809 C806 1.387 . S
C810 C811 1.387 . S
C810 H814 0.950 1_455 S
C810 C819 1.390 . S
C811 C810 1.387 . S
C811 C813 1.387 . S
H812 C819 0.950 . S
C813 C811 1.387 . S
C813 C815 1.390 . S
C813 H817 0.950 . S
H814 C810 0.950 1_655 S
C815 C813 1.390 . S
C815 C816 1.387 . S
C815 H818 0.950 . S
C816 C815 1.387 . S
C816 C819 1.387 . S
H817 C813 0.950 . S
H818 C815 0.950 . S
C819 C810 1.390 . S
C819 H812 0.950 . S
C819 C816 1.387 . S
C820 C821 1.387 . S
C820 H824 0.950 . S
C820 C829 1.390 . S
C821 C820 1.387 . S
C821 C823 1.387 . S
H822 C829 0.950 . S
C823 C821 1.387 . S
C823 C825 1.390 . S
C823 H827 0.950 . S
H824 C820 0.950 . S
C825 C823 1.390 . S
C825 C826 1.387 . S
C825 H828 0.950 . S
C826 C825 1.387 . S
C826 C829 1.387 . S
H827 C823 0.950 . S
H828 C825 0.950 . S
C829 C820 1.390 . S
C829 H822 0.950 . S
C829 C826 1.387 . S
C830 C831 1.387 . S
C830 H834 0.950 . S
C830 C839 1.390 . S
C831 C830 1.387 . S
C831 C833 1.387 . S
H832 C839 0.950 . S
C833 C831 1.387 . S
C833 C835 1.390 . S
C833 H837 0.950 . S
H834 C830 0.950 . S
C835 C833 1.390 . S
C835 C836 1.387 . S
C835 H838 0.950 . S
C836 C835 1.387 . S
C836 C839 1.387 . S
H837 C833 0.950 . S
H838 C835 0.950 . S
C839 C830 1.390 . S
C839 H832 0.950 . S
C839 C836 1.387 . S
C840 C841 1.387 . S
C840 H844 0.950 . S
C840 C849 1.390 . S
C841 C840 1.387 . S
C841 C843 1.387 . S
H842 C849 0.950 . S
C843 C841 1.387 . S
C843 C845 1.390 . S
C843 H847 0.950 . S
H844 C840 0.950 . S
C845 C843 1.390 . S
C845 C846 1.387 . S
C845 H848 0.950 . S
C846 C845 1.387 . S
C846 C849 1.387 . S
H847 C843 0.950 . S
H848 C845 0.950 . S
C849 C840 1.390 . S
C849 H842 0.950 . S
C849 C846 1.387 . S
C850 C851 1.387 . S
C850 H854 0.950 . S
C850 C859 1.390 . S
C851 C850 1.387 . S
C851 C853 1.387 . S
H852 C859 0.950 . S
C853 C851 1.387 . S
C853 C855 1.390 . S
C853 H857 0.950 . S
H854 C850 0.950 . S
C855 C853 1.390 . S
C855 C856 1.387 . S
C855 H858 0.950 . S
C856 C855 1.387 . S
C856 C859 1.387 . S
H857 C853 0.950 . S
H858 C855 0.950 . S
C859 C850 1.390 . S
C859 H852 0.950 . S
C859 C856 1.387 . S
C860 C861 1.387 . S
C860 H864 0.950 . S
C860 C869 1.390 . S
C861 C860 1.387 . S
C861 C863 1.387 . S
H862 C869 0.950 . S
C863 C861 1.387 . S
C863 C865 1.390 . S
C863 H867 0.950 . S
H864 C860 0.950 . S
C865 C863 1.390 . S
C865 C866 1.387 . S
C865 H868 0.950 . S
C866 C865 1.387 . S
C866 C869 1.387 . S
H867 C863 0.950 . S
H868 C865 0.950 . S
C869 C860 1.390 . S
C869 H862 0.950 . S
C869 C866 1.387 . S
C870 C871 1.387 . S
C870 H874 0.950 . S
C870 C879 1.390 . S
C871 C870 1.387 . S
C871 C873 1.387 . S
H872 C879 0.950 . S
C873 C871 1.387 . S
C873 C875 1.390 . S
C873 H877 0.950 . S
H874 C870 0.950 . S
C875 C873 1.390 . S
C875 C876 1.387 . S
C875 H878 0.950 . S
C876 C875 1.387 . S
C876 C879 1.387 . S
H877 C873 0.950 . S
H878 C875 0.950 . S
C879 C870 1.390 . S
C879 H872 0.950 . S
C879 C876 1.387 . S
C880 C881 1.387 . S
C880 H884 0.950 1_455 S
C880 C889 1.390 1_445 S
C881 C880 1.387 . S
C881 C883 1.387 1_545 S
H882 C889 0.950 . S
C883 C881 1.387 1_565 S
C883 C885 1.390 . S
C883 H887 0.950 . S
H884 C880 0.950 1_655 S
C885 C883 1.390 . S
C885 C886 1.387 . S
C885 H888 0.950 1_554 S
C886 C885 1.387 . S
C886 C889 1.387 1_455 S
H887 C883 0.950 . S
H888 C885 0.950 1_556 S
C889 C880 1.390 1_665 S
C889 H882 0.950 . S
C889 C886 1.387 1_655 S
C890 C891 1.387 . S
C890 H894 0.950 . S
C890 C899 1.390 . S
C891 C890 1.387 . S
C891 C893 1.387 . S
H892 C899 0.950 . S
C893 C891 1.387 . S
C893 C895 1.390 . S
C893 H897 0.950 . S
H894 C890 0.950 . S
C895 C893 1.390 . S
C895 C896 1.387 . S
C895 H898 0.950 . S
C896 C895 1.387 . S
C896 C899 1.387 . S
H897 C893 0.950 . S
H898 C895 0.950 . S
C899 C890 1.390 . S
C899 H892 0.950 . S
C899 C896 1.387 . S
C900 C901 1.387 . S
C900 H904 0.950 . S
C900 C909 1.390 . S
C901 C900 1.387 . S
C901 C903 1.387 1_565 S
H902 C909 0.950 . S
C903 C901 1.387 1_545 S
C903 C905 1.390 . S
C903 H907 0.950 . S
H904 C900 0.950 . S
C905 C903 1.390 . S
C905 C906 1.387 1_545 S
C905 H908 0.950 . S
C906 C905 1.387 1_565 S
C906 C909 1.387 . S
H907 C903 0.950 . S
H908 C905 0.950 . S
C909 C900 1.390 . S
C909 H902 0.950 . S
C909 C906 1.387 . S
C910 C911 1.387 . S
C910 H914 0.950 . S
C910 C919 1.390 . S
C911 C910 1.387 . S
C911 C913 1.387 . S
H912 C919 0.950 . S
C913 C911 1.387 . S
C913 C915 1.390 . S
C913 H917 0.950 . S
H914 C910 0.950 . S
C915 C913 1.390 . S
C915 C916 1.387 . S
C915 H918 0.950 . S
C916 C915 1.387 . S
C916 C919 1.387 . S
H917 C913 0.950 . S
H918 C915 0.950 . S
C919 C910 1.390 . S
C919 H912 0.950 . S
C919 C916 1.387 . S
C920 C921 1.387 . S
C920 H924 0.950 . S
C920 C929 1.390 . S
C921 C920 1.387 . S
C921 C923 1.387 . S
H922 C929 0.950 . S
C923 C921 1.387 . S
C923 C925 1.390 . S
C923 H927 0.950 . S
H924 C920 0.950 . S
C925 C923 1.390 . S
C925 C926 1.387 . S
C925 H928 0.950 . S
C926 C925 1.387 . S
C926 C929 1.387 . S
H927 C923 0.950 . S
H928 C925 0.950 . S
C929 C920 1.390 . S
C929 H922 0.950 . S
C929 C926 1.387 . S
C930 C931 1.387 . S
C930 H934 0.950 . S
C930 C939 1.390 . S
C931 C930 1.387 . S
C931 C933 1.387 . S
H932 C939 0.950 . S
C933 C931 1.387 . S
C933 C935 1.390 . S
C933 H937 0.950 . S
H934 C930 0.950 . S
C935 C933 1.390 . S
C935 C936 1.387 . S
C935 H938 0.950 . S
C936 C935 1.387 . S
C936 C939 1.387 . S
H937 C933 0.950 . S
H938 C935 0.950 . S
C939 C930 1.390 . S
C939 H932 0.950 . S
C939 C936 1.387 . S
C940 C941 1.387 . S
C940 H944 0.950 . S
C940 C949 1.390 . S
C941 C940 1.387 . S
C941 C943 1.387 . S
H942 C949 0.950 . S
C943 C941 1.387 . S
C943 C945 1.390 . S
C943 H947 0.950 . S
H944 C940 0.950 . S
C945 C943 1.390 . S
C945 C946 1.387 . S
C945 H948 0.950 . S
C946 C945 1.387 . S
C946 C949 1.387 . S
H947 C943 0.950 . S
H948 C945 0.950 . S
C949 C940 1.390 . S
C949 H942 0.950 . S
C949 C946 1.387 . S
C950 C951 1.387 . S
C950 H954 0.950 . S
C950 C959 1.390 . S
C951 C950 1.387 . S
C951 C953 1.387 . S
H952 C959 0.950 . S
C953 C951 1.387 . S
C953 C955 1.390 . S
C953 H957 0.950 . S
H954 C950 0.950 . S
C955 C953 1.390 . S
C955 C956 1.387 . S
C955 H958 0.950 . S
C956 C955 1.387 . S
C956 C959 1.387 . S
H957 C953 0.950 . S
H958 C955 0.950 . S
C959 C950 1.390 . S
C959 H952 0.950 . S
C959 C956 1.387 . S
C960 C961 1.387 . S
C960 H964 0.950 . S
C960 C969 1.390 . S
C961 C960 1.387 . S
C961 C963 1.387 . S
H962 C969 0.950 . S
C963 C961 1.387 . S
C963 C965 1.390 . S
C963 H967 0.950 . S
H964 C960 0.950 . S
C965 C963 1.390 . S
C965 C966 1.387 . S
C965 H968 0.950 . S
C966 C965 1.387 . S
C966 C969 1.387 . S
H967 C963 0.950 . S
H968 C965 0.950 . S
C969 C960 1.390 . S
C969 H962 0.950 . S
C969 C966 1.387 . S
C970 C971 1.387 . S
C970 H974 0.950 . S
C970 C979 1.390 . S
C971 C970 1.387 . S
C971 C973 1.387 . S
H972 C979 0.950 . S
C973 C971 1.387 . S
C973 C975 1.390 . S
C973 H977 0.950 . S
H974 C970 0.950 . S
C975 C973 1.390 . S
C975 C976 1.387 . S
C975 H978 0.950 . S
C976 C975 1.387 . S
C976 C979 1.387 . S
H977 C973 0.950 . S
H978 C975 0.950 . S
C979 C970 1.390 . S
C979 H972 0.950 . S
C979 C976 1.387 . S
C980 C981 1.387 . S
C980 H984 0.950 . S
C980 C989 1.390 . S
C981 C980 1.387 . S
C981 C983 1.387 . S
H982 C989 0.950 . S
C983 C981 1.387 . S
C983 C985 1.390 . S
C983 H987 0.950 . S
H984 C980 0.950 . S
C985 C983 1.390 . S
C985 C986 1.387 . S
C985 H988 0.950 . S
C986 C985 1.387 . S
C986 C989 1.387 . S
H987 C983 0.950 . S
H988 C985 0.950 . S
C989 C980 1.390 . S
C989 H982 0.950 . S
C989 C986 1.387 . S
C990 C991 1.387 . S
C990 H994 0.950 . S
C990 C999 1.390 . S
C991 C990 1.387 . S
C991 C993 1.387 . S
H992 C999 0.950 1_556 S
C993 C991 1.387 . S
C993 C995 1.390 . S
C993 H997 0.950 . S
H994 C990 0.950 . S
C995 C993 1.390 . S
C995 C996 1.387 . S
C995 H998 0.950 . S
C996 C995 1.387 . S
C996 C999 1.387 . S
H997 C993 0.950 . S
H998 C995 0.950 . S
C999 C990 1.390 . S
C999 H992 0.950 1_554 S
C999 C996 1.387 . S
C1000 C1001 1.387 . S
C1000 H1004 0.950 . S
C1000 C1009 1.390 . S
C1001 C1000 1.387 . S
C1001 C1003 1.387 . S
H1002 C1009 0.950 . S
C1003 C1001 1.387 . S
C1003 C1005 1.390 . S
C1003 H1007 0.950 . S
H1004 C1000 0.950 . S
C1005 C1003 1.390 . S
C1005 C1006 1.387 . S
C1005 H1008 0.950 . S
C1006 C1005 1.387 . S
C1006 C1009 1.387 . S
H1007 C1003 0.950 . S
H1008 C1005 0.950 . S
C1009 C1000 1.390 . S
C1009 H1002 0.950 . S
C1009 C1006 1.387 . S
C1010 C1011 1.387 . S
C1010 H1014 0.950 . S
C1010 C1019 1.390 . S
C1011 C1010 1.387 . S
C1011 C1013 1.387 . S
H1012 C1019 0.950 . S
C1013 C1011 1.387 . S
C1013 C1015 1.390 . S
C1013 H1017 0.950 . S
H1014 C1010 0.950 . S
C1015 C1013 1.390 . S
C1015 C1016 1.387 . S
C1015 H1018 0.950 . S
C1016 C1015 1.387 . S
C1016 C1019 1.387 . S
H1017 C1013 0.950 . S
H1018 C1015 0.950 . S
C1019 C1010 1.390 . S
C1019 H1012 0.950 . S
C1019 C1016 1.387 . S
C1020 C1021 1.387 . S
C1020 H1024 0.950 . S
C1020 C1029 1.390 . S
C1021 C1020 1.387 . S
C1021 C1023 1.387 . S
H1022 C1029 0.950 . S
C1023 C1021 1.387 . S
C1023 C1025 1.390 . S
C1023 H1027 0.950 . S
H1024 C1020 0.950 . S
C1025 C1023 1.390 . S
C1025 C1026 1.387 . S
C1025 H1028 0.950 . S
C1026 C1025 1.387 . S
C1026 C1029 1.387 . S
H1027 C1023 0.950 . S
H1028 C1025 0.950 . S
C1029 C1020 1.390 . S
C1029 H1022 0.950 . S
C1029 C1026 1.387 . S
C1030 C1031 1.387 . S
C1030 H1034 0.950 . S
C1030 C1039 1.390 . S
C1031 C1030 1.387 . S
C1031 C1033 1.387 . S
H1032 C1039 0.950 . S
C1033 C1031 1.387 . S
C1033 C1035 1.390 . S
C1033 H1037 0.950 . S
H1034 C1030 0.950 . S
C1035 C1033 1.390 . S
C1035 C1036 1.387 . S
C1035 H1038 0.950 . S
C1036 C1035 1.387 . S
C1036 C1039 1.387 . S
H1037 C1033 0.950 . S
H1038 C1035 0.950 . S
C1039 C1030 1.390 . S
C1039 H1032 0.950 . S
C1039 C1036 1.387 . S
C1040 C1041 1.387 . S
C1040 H1044 0.950 . S
C1040 C1049 1.390 1_556 S
C1041 C1040 1.387 . S
C1041 C1043 1.387 . S
H1042 C1049 0.950 . S
C1043 C1041 1.387 . S
C1043 C1045 1.390 . S
C1043 H1047 0.950 . S
H1044 C1040 0.950 . S
C1045 C1043 1.390 . S
C1045 C1046 1.389 . S
C1045 H1048 0.950 . S
C1046 C1045 1.389 . S
C1046 C1049 1.387 1_556 S
H1047 C1043 0.950 . S
H1048 C1045 0.950 . S
C1049 C1040 1.390 1_554 S
C1049 H1042 0.950 . S
C1049 C1046 1.387 1_554 S
C1050 C1051 1.387 . S
C1050 H1054 0.950 . S
C1050 C1059 1.390 . S
C1051 C1050 1.387 . S
C1051 C1053 1.387 . S
H1052 C1059 0.950 . S
C1053 C1051 1.387 . S
C1053 C1055 1.390 . S
C1053 H1057 0.950 . S
H1054 C1050 0.950 . S
C1055 C1053 1.390 . S
C1055 C1056 1.387 . S
C1055 H1058 0.950 . S
C1056 C1055 1.387 . S
C1056 C1059 1.387 . S
H1057 C1053 0.950 . S
H1058 C1055 0.950 . S
C1059 C1050 1.390 . S
C1059 H1052 0.950 . S
C1059 C1056 1.387 . S
C1060 C1061 1.387 . S
C1060 H1064 0.950 . S
C1060 C1069 1.390 . S
C1061 C1060 1.387 . S
C1061 C1063 1.387 . S
H1062 C1069 0.950 . S
C1063 C1061 1.387 . S
C1063 C1065 1.390 . S
C1063 H1067 0.950 . S
H1064 C1060 0.950 . S
C1065 C1063 1.390 . S
C1065 C1066 1.387 . S
C1065 H1068 0.950 . S
C1066 C1065 1.387 . S
C1066 C1069 1.387 . S
H1067 C1063 0.950 . S
H1068 C1065 0.950 . S
C1069 C1060 1.390 . S
C1069 H1062 0.950 . S
C1069 C1066 1.387 . S
C1070 C1071 1.387 . S
C1070 H1074 0.950 . S
C1070 C1079 1.390 . S
C1071 C1070 1.387 . S
C1071 C1073 1.387 . S
H1072 C1079 0.950 . S
C1073 C1071 1.387 . S
C1073 C1075 1.390 . S
C1073 H1077 0.950 . S
H1074 C1070 0.950 . S
C1075 C1073 1.390 . S
C1075 C1076 1.387 . S
C1075 H1078 0.950 . S
C1076 C1075 1.387 . S
C1076 C1079 1.387 . S
H1077 C1073 0.950 . S
H1078 C1075 0.950 . S
C1079 C1070 1.390 . S
C1079 H1072 0.950 . S
C1079 C1076 1.387 . S
C1080 C1081 1.387 . S
C1080 H1084 0.950 . S
C1080 C1089 1.390 . S
C1081 C1080 1.387 . S
C1081 C1083 1.387 . S
H1082 C1089 0.955 . S
C1083 C1081 1.387 . S
C1083 C1085 1.393 . S
C1083 H1087 0.950 . S
H1084 C1080 0.950 . S
C1085 C1083 1.393 . S
C1085 C1086 1.386 1_554 S
C1085 H1088 0.948 1_554 S
C1086 C1085 1.386 1_556 S
C1086 C1089 1.387 1_556 S
H1087 C1083 0.950 . S
H1088 C1085 0.948 1_556 S
C1089 C1080 1.390 . S
C1089 H1082 0.955 . S
C1089 C1086 1.387 1_554 S
C1090 C1091 1.387 . S
C1090 H1094 0.950 . S
C1090 C1099 1.390 . S
C1091 C1090 1.387 . S
C1091 C1093 1.387 . S
H1092 C1099 0.950 . S
C1093 C1091 1.387 . S
C1093 C1095 1.390 . S
C1093 H1097 0.950 . S
H1094 C1090 0.950 . S
C1095 C1093 1.390 . S
C1095 C1096 1.387 . S
C1095 H1098 0.950 . S
C1096 C1095 1.387 . S
C1096 C1099 1.387 . S
H1097 C1093 0.950 . S
H1098 C1095 0.950 . S
C1099 C1090 1.390 . S
C1099 H1092 0.950 . S
C1099 C1096 1.387 . S
C1100 C1101 1.387 . S
C1100 H1104 0.950 . S
C1100 C1109 1.390 . S
C1101 C1100 1.387 . S
C1101 C1103 1.387 . S
H1102 C1109 0.950 . S
C1103 C1101 1.387 . S
C1103 C1105 1.390 . S
C1103 H1107 0.950 . S
H1104 C1100 0.950 . S
C1105 C1103 1.390 . S
C1105 C1106 1.387 . S
C1105 H1108 0.950 . S
C1106 C1105 1.387 . S
C1106 C1109 1.387 . S
H1107 C1103 0.950 . S
H1108 C1105 0.950 . S
C1109 C1100 1.390 . S
C1109 H1102 0.950 . S
C1109 C1106 1.387 . S
C1110 C1111 1.387 . S
C1110 H1114 0.950 . S
C1110 C1119 1.390 . S
C1111 C1110 1.387 . S
C1111 C1113 1.387 . S
H1112 C1119 0.950 . S
C1113 C1111 1.387 . S
C1113 C1115 1.390 . S
C1113 H1117 0.950 . S
H1114 C1110 0.950 . S
C1115 C1113 1.390 . S
C1115 C1116 1.387 . S
C1115 H1118 0.950 . S
C1116 C1115 1.387 . S
C1116 C1119 1.387 . S
H1117 C1113 0.950 . S
H1118 C1115 0.950 . S
C1119 C1110 1.390 . S
C1119 H1112 0.950 . S
C1119 C1116 1.387 . S
C641 C9 2.097 . S
C646 C295 2.103 . S
C651 C49 2.071 . S
C656 C175 2.079 . S
C661 C209 2.793 . S
C666 C89 2.866 . S
C671 C129 2.842 . S
C676 C249 2.784 . S
C681 C445 0.823 . S
C686 C179 0.363 . S
C691 C325 1.192 . S
C696 C5 1.252 . S
C701 C405 1.218 . S
C706 C245 1.100 . S
C711 C85 0.920 . S
C716 C379 0.487 . S
C721 C375 2.104 . S
C726 C489 2.097 . S
C731 C409 2.070 . S
C736 C575 2.080 . S
C741 C529 2.866 1_655 S
C746 C329 2.794 . S
C751 C449 2.842 . S
C756 C609 2.784 1_654 S
C761 C579 0.363 . S
C766 C125 0.824 . S
C771 C485 1.252 . S
C776 C205 1.191 . S
C781 C45 1.215 . S
C786 C605 1.097 . S
C791 C299 0.479 . S
C796 C525 0.914 . S
C801 C528 1.698 . S
C806 C8 1.464 . S
C811 C448 1.684 1_455 S
C816 C48 1.468 . S
C821 C488 1.464 . S
C826 C88 1.698 . S
C831 C408 1.468 . S
C836 C128 1.684 . S
C841 C178 1.065 . S
C846 C608 1.168 . S
C851 C378 1.051 . S
C856 C208 1.142 . S
C861 C248 1.166 . S
C866 C578 1.071 . S
C871 C298 1.051 . S
C876 C328 1.143 1_455 S
C881 C18 2.261 . S
C886 C168 2.309 1_454 S
C891 C58 2.183 . S
C896 C218 2.137 . S
C901 C258 1.728 1_565 S
C906 C98 1.823 . S
C911 C138 1.938 . S
C916 C288 1.920 . S
C921 C418 2.183 . S
C926 C338 2.134 . S
C931 C458 1.937 . S
C936 C368 1.918 . S
C941 C498 2.261 . S
C946 C568 2.308 . S
C951 C618 1.732 . S
C956 C538 1.827 1_556 S
C961 C15 1.134 . S
C966 C289 1.218 . S
C971 C55 1.141 . S
C976 C169 1.227 . S
C981 C215 0.660 . S
C986 C95 0.679 . S
C991 C255 0.784 . S
C996 C135 0.782 . S
C1001 C459 2.970 . S
C1006 C165 2.876 . S
C1011 C339 3.683 . S
C1016 C19 3.725 1_655 S
C1021 C419 3.793 1_554 S
C1026 C259 3.753 . S
C1031 C99 2.978 . S
C1036 C365 2.899 . S
C1041 C495 1.130 . S
C1046 C369 1.215 1_556 S
C1051 C569 1.224 . S
C1056 C415 1.136 . S
C1061 C535 0.675 . S
C1066 C335 0.664 . S
C1071 C615 0.785 . S
C1076 C455 0.776 . S
C1081 C565 2.875 . S
C1086 C139 2.970 . S
C1091 C219 3.683 1_556 S
C1096 C499 3.724 . S
C1101 C59 3.793 . S
C1106 C619 3.752 . S
C1111 C539 2.978 . S
C1116 C285 2.900 . S
