# Generated by pormake.
# Topology qtz-e, (6)-cn, num edge types: 1
# Building blocks:
#     Node 0, Type 0, BuildingBlock: KUMBOL_clean_sbu_1, # of connection points: 6
#     Node 1, Type 0, BuildingBlock: KUMBOL_clean_sbu_1, # of connection points: 6
#     Node 2, Type 0, BuildingBlock: KUMBOL_clean_sbu_1, # of connection points: 6
#     Node 3, Type 0, BuildingBlock: KUMBOL_clean_sbu_1, # of connection points: 6
#     Node 4, Type 0, BuildingBlock: KUMBOL_clean_sbu_1, # of connection points: 6
#     Node 5, Type 0, BuildingBlock: KUMBOL_clean_sbu_1, # of connection points: 6
#     Edge 6, Type (0, 0), BuildingBlock: TEMPAE_clean_linker_10, # of connection points: 2
#     Edge 7, Type (0, 0), BuildingBlock: TEMPAE_clean_linker_10, # of connection points: 2
#     Edge 8, Type (0, 0), BuildingBlock: TEMPAE_clean_linker_10, # of connection points: 2
#     Edge 9, Type (0, 0), BuildingBlock: TEMPAE_clean_linker_10, # of connection points: 2
#     Edge 10, Type (0, 0), BuildingBlock: TEMPAE_clean_linker_10, # of connection points: 2
#     Edge 11, Type (0, 0), BuildingBlock: TEMPAE_clean_linker_10, # of connection points: 2
#     Edge 12, Type (0, 0), BuildingBlock: TEMPAE_clean_linker_10, # of connection points: 2
#     Edge 13, Type (0, 0), BuildingBlock: TEMPAE_clean_linker_10, # of connection points: 2
#     Edge 14, Type (0, 0), BuildingBlock: TEMPAE_clean_linker_10, # of connection points: 2
#     Edge 15, Type (0, 0), BuildingBlock: TEMPAE_clean_linker_10, # of connection points: 2
#     Edge 16, Type (0, 0), BuildingBlock: TEMPAE_clean_linker_10, # of connection points: 2
#     Edge 17, Type (0, 0), BuildingBlock: TEMPAE_clean_linker_10, # of connection points: 2
#     Edge 18, Type (0, 0), BuildingBlock: TEMPAE_clean_linker_10, # of connection points: 2
#     Edge 19, Type (0, 0), BuildingBlock: TEMPAE_clean_linker_10, # of connection points: 2
#     Edge 20, Type (0, 0), BuildingBlock: TEMPAE_clean_linker_10, # of connection points: 2
#     Edge 21, Type (0, 0), BuildingBlock: TEMPAE_clean_linker_10, # of connection points: 2
#     Edge 22, Type (0, 0), BuildingBlock: TEMPAE_clean_linker_10, # of connection points: 2
#     Edge 23, Type (0, 0), BuildingBlock: TEMPAE_clean_linker_10, # of connection points: 2
# Relax obj value: 0.147
# Max RMSD: 0.210
# Mean RMSD: 0.210
data_MOF--net-qtz-e--node1-KUMBOL_clean_sbu_1--edge1-TEMPAE_clean_linker_10
_symmetry_space_group_name_H-M    P1
_symmetry_Int_Tables_number       1
_symmetry_cell_setting            triclinic
loop_
_symmetry_equiv_pos_as_xyz
'x, y, z'
_cell_length_a     28.41065
_cell_length_b     28.466821
_cell_length_c     49.035993
_cell_angle_alpha  90.056814
_cell_angle_beta   89.819332
_cell_angle_gamma 120.13736
loop_
_atom_site_label
_atom_site_type_symbol
_atom_site_fract_x
_atom_site_fract_y
_atom_site_fract_z
_atom_type_partial_charge
C0 C 0.28915 0.60612 0.0294 0.0
C1 C 0.22892 0.64242 0.02332 0.0
C2 C 0.23717 0.59888 0.02999 0.0
C3 C 0.27285 0.69151 0.0138 0.0
C4 C 0.33401 0.65648 0.02164 0.0
C5 C 0.32532 0.69851 0.01293 0.0
N6 N 0.29623 0.56477 0.03811 0.0
C7 C 0.34732 0.57343 0.04287 0.0
C8 C 0.38639 0.66375 0.02394 0.0
C9 C 0.39312 0.62241 0.03519 0.0
Gd10 Gd 0.15606 0.3536 0.98254 0.0
Gd11 Gd 0.21627 0.48194 0.04767 0.0
N12 N 0.19582 0.55133 0.03984 0.0
C13 C 0.17756 0.63642 0.02799 0.0
C14 C 0.14786 0.5478 0.04731 0.0
C15 C 0.13744 0.58955 0.04086 0.0
H16 H 0.11792 0.51313 0.05868 0.0
H17 H 0.09899 0.58612 0.04636 0.0
H18 H 0.23241 0.29861 0.00148 0.0
H19 H 0.35237 0.54209 0.05199 0.0
H20 H 0.21883 0.20786 0.01096 0.0
H21 H 0.16955 0.66894 0.02329 0.0
H22 H 0.26709 0.7251 0.00819 0.0
H23 H 0.03193 0.33558 0.96984 0.0
H24 H 0.42192 0.70182 0.01818 0.0
H25 H 0.43351 0.62837 0.03811 0.0
H26 H 0.0274 0.08758 0.99807 0.0
H27 H 0.35916 0.73729 0.00655 0.0
H28 H 0.91726 0.16533 0.97484 0.0
H29 H 0.93748 0.25948 0.9669 0.0
N30 N 0.06464 0.28525 0.98039 0.0
C31 C 0.05464 0.23372 0.98442 0.0
C32 C 0.02356 0.29486 0.97396 0.0
C33 C 0.95881 0.19861 0.97637 0.0
C34 C 0.97002 0.25174 0.97198 0.0
C35 C 0.0013 0.18902 0.98267 0.0
H36 H 0.95126 0.10152 0.98616 0.0
N37 N 0.14856 0.27003 0.99378 0.0
C38 C 0.0978 0.22584 0.99119 0.0
C39 C 0.1325 0.16678 0.00359 0.0
C40 C 0.08838 0.17308 0.99632 0.0
C41 C 0.19186 0.26404 0.00042 0.0
C42 C 0.18442 0.21243 0.00559 0.0
O43 O 0.2668 0.50759 0.00915 0.0
O44 O 0.19342 0.44373 0.98819 0.0
O45 O 0.20509 0.34935 0.94864 0.0
O46 O 0.12803 0.34715 0.94117 0.0
O47 O 0.12776 0.44444 0.0327 0.0
O48 O 0.11818 0.40868 0.98777 0.0
O49 O 0.11807 0.31323 0.02313 0.0
O50 O 0.16323 0.39719 0.03435 0.0
O51 O 0.19249 0.49678 0.0881 0.0
O52 O 0.25504 0.47382 0.08366 0.0
O53 O 0.24244 0.387 0.99876 0.0
O54 O 0.23819 0.41562 0.04252 0.0
C55 C 0.24464 0.48121 0.98667 0.0
C56 C 0.10395 0.43057 0.0082 0.0
C57 C 0.1749 0.34242 0.90094 0.0
C58 C 0.21121 0.32023 0.86081 0.0
C59 C 0.14635 0.35138 0.85548 0.0
C60 C 0.1434 0.35511 0.88368 0.0
C61 C 0.17975 0.33378 0.84409 0.0
C62 C 0.20952 0.32547 0.88935 0.0
C63 C 0.16949 0.34575 0.9308 0.0
C64 C 0.03536 0.12843 0.99426 0.0
C65 C 0.99197 0.13637 0.98747 0.0
H66 H 0.12694 0.12689 0.00766 0.0
C67 C 0.13044 0.34774 0.0428 0.0
C68 C 0.26563 0.40961 0.02236 0.0
C69 C 0.23241 0.48447 0.12962 0.0
C70 C 0.23519 0.52206 0.17463 0.0
C71 C 0.24544 0.44252 0.16963 0.0
C72 C 0.24073 0.44441 0.14143 0.0
C73 C 0.2424 0.48078 0.18618 0.0
C74 C 0.22952 0.52311 0.1462 0.0
C75 C 0.22652 0.48562 0.10002 0.0
H76 H 0.12213 0.36156 0.8424 0.0
H77 H 0.11665 0.36842 0.89197 0.0
H78 H 0.18062 0.33008 0.82211 0.0
H79 H 0.23335 0.31461 0.90236 0.0
H80 H 0.25125 0.41115 0.17871 0.0
H81 H 0.2428 0.41414 0.12888 0.0
H82 H 0.24546 0.47784 0.20804 0.0
H83 H 0.22433 0.55469 0.13684 0.0
C84 C 0.79107 0.36964 0.40442 0.0
C85 C 0.72814 0.38763 0.37955 0.0
C86 C 0.74788 0.35267 0.38652 0.0
C87 C 0.75408 0.44078 0.38998 0.0
C88 C 0.81542 0.42188 0.41607 0.0
C89 C 0.79757 0.45784 0.40825 0.0
N90 N 0.80722 0.33393 0.41162 0.0
C91 C 0.84506 0.34623 0.43149 0.0
C92 C 0.85584 0.43574 0.43581 0.0
C93 C 0.87008 0.39741 0.44387 0.0
Gd94 Gd 0.82919 0.19999 0.32772 0.0
Gd95 Gd 0.76564 0.25089 0.38876 0.0
N96 N 0.72378 0.30109 0.37679 0.0
C97 C 0.68214 0.36765 0.36283 0.0
C98 C 0.67679 0.28016 0.36201 0.0
C99 C 0.65588 0.31343 0.35438 0.0
H100 H 0.65688 0.23847 0.35516 0.0
H101 H 0.61967 0.29732 0.34192 0.0
H102 H 0.95991 0.29961 0.34146 0.0
H103 H 0.85622 0.31657 0.43749 0.0
H104 H 0.0364 0.31033 0.36916 0.0
H105 H 0.66582 0.3933 0.3569 0.0
H106 H 0.73994 0.46852 0.38461 0.0
H107 H 0.74776 0.06705 0.31933 0.0
H108 H 0.87542 0.47541 0.44537 0.0
H109 H 0.90052 0.4074 0.45947 0.0
H110 H 0.98158 0.12962 0.39893 0.0
H111 H 0.81627 0.49845 0.41669 0.0
H112 H 0.8135 0.98429 0.36444 0.0
H113 H 0.74144 0.98129 0.33499 0.0
N114 N 0.82282 0.11723 0.33941 0.0
C115 C 0.86371 0.11987 0.35482 0.0
C116 C 0.77978 0.0684 0.33176 0.0
C117 C 0.81678 0.02186 0.35734 0.0
C118 C 0.77601 0.01998 0.3407 0.0
C119 C 0.86149 0.07217 0.36448 0.0
H120 H 0.90252 0.04002 0.38876 0.0
N121 N 0.9084 0.21579 0.35131 0.0
C122 C 0.90749 0.1706 0.36116 0.0
C123 C 0.99722 0.22581 0.38028 0.0
C124 C 0.95129 0.17456 0.3765 0.0
C125 C 0.95548 0.2649 0.35252 0.0
C126 C -0.00016 0.27096 0.36765 0.0
O127 O 0.77323 0.29008 0.34802 0.0
O128 O 0.78366 0.24096 0.31247 0.0
O129 O 0.88778 0.23866 0.29501 0.0
O130 O 0.82138 0.15718 0.28951 0.0
O131 O 0.70561 0.18254 0.36181 0.0
O132 O 0.73763 0.15638 0.32373 0.0
O133 O 0.78814 0.15156 0.366 0.0
O134 O 0.82279 0.22016 0.39639 0.0
O135 O 0.70445 0.17512 0.40691 0.0
O136 O 0.73608 0.25014 0.42979 0.0
O137 O 0.87068 0.28883 0.33933 0.0
O138 O 0.8555 0.28325 0.38521 0.0
C139 C 0.77414 0.27879 0.32207 0.0
C140 C 0.69837 0.15245 0.33991 0.0
C141 C 0.90419 0.1832 0.26587 0.0
C142 C 0.96817 0.19926 0.2286 0.0
C143 C 0.95911 0.13999 0.26652 0.0
C144 C 0.91991 0.1492 0.27863 0.0
C145 C 0.98324 0.16489 0.24175 0.0
C146 C 0.92821 0.20794 0.24084 0.0
C147 C 0.86585 0.19661 0.27912 0.0
C148 C 0.94863 0.12724 0.38681 0.0
C149 C 0.90375 0.07618 0.38089 0.0
H150 H 0.03179 0.23059 0.39185 0.0
C151 C 0.80487 0.16921 0.39076 0.0
C152 C 0.88094 0.3117 0.36352 0.0
C153 C 0.6433 0.18577 0.4355 0.0
C154 C 0.57731 0.17675 0.47002 0.0
C155 C 0.55114 0.1604 0.42233 0.0
C156 C 0.60384 0.17303 0.41523 0.0
C157 C 0.53775 0.16203 0.4496 0.0
C158 C 0.6299 0.18789 0.46281 0.0
C159 C 0.69904 0.19897 0.42845 0.0
H160 H 0.9711 0.11367 0.27644 0.0
H161 H 0.90235 0.13028 0.29802 0.0
H162 H 0.01336 0.15685 0.23276 0.0
H163 H 0.91677 0.23507 0.23127 0.0
H164 H 0.52084 0.15012 0.40661 0.0
H165 H 0.61376 0.17327 0.39393 0.0
H166 H 0.497 0.15337 0.45463 0.0
H167 H 0.66054 0.19856 0.47845 0.0
C168 C 0.41349 0.77165 0.70892 0.0
C169 C 0.34537 0.69761 0.68167 0.0
C170 C 0.39801 0.72555 0.69315 0.0
C171 C 0.30802 0.71499 0.68728 0.0
C172 C 0.37568 0.78866 0.71491 0.0
C173 C 0.323 0.76012 0.70402 0.0
N174 N 0.46519 0.79965 0.71858 0.0
C175 C 0.48098 0.84345 0.73521 0.0
C176 C 0.3917 0.83353 0.73199 0.0
C177 C 0.44459 0.86103 0.74217 0.0
Gd178 Gd 0.64237 0.79981 0.65352 0.0
Gd179 Gd 0.51907 0.76006 0.71115 0.0
N180 N 0.43485 0.70918 0.68826 0.0
C181 C 0.33194 0.65346 0.66449 0.0
C182 C 0.4224 0.66753 0.67048 0.0
C183 C 0.37089 0.63886 0.65861 0.0
H184 H 0.45212 0.65701 0.66438 0.0
H185 H 0.36147 0.6058 0.64466 0.0
H186 H 0.71689 0.93016 0.67321 0.0
H187 H 0.52101 0.86359 0.74411 0.0
H188 H 0.80658 0.99071 0.69376 0.0
H189 H 0.29208 0.63117 0.6552 0.0
H190 H 0.26742 0.69381 0.67873 0.0
H191 H 0.64971 0.69377 0.62912 0.0
H192 H 0.36359 0.84729 0.7374 0.0
H193 H 0.45706 0.89534 0.75567 0.0
H194 H 0.88979 0.88013 0.69995 0.0
H195 H 0.2936 0.77281 0.70832 0.0
H196 H 0.79544 0.70314 0.65936 0.0
H197 H 0.70912 0.65384 0.63371 0.0
N198 N 0.69889 0.76156 0.6543 0.0
C199 C 0.74777 0.79101 0.6668 0.0
C200 C 0.68604 0.71418 0.6414 0.0
C201 C 0.76884 0.72007 0.65796 0.0
C202 C 0.72013 0.69208 0.64351 0.0
C203 C 0.78391 0.77088 0.66923 0.0
H204 H 0.86261 0.7878 0.68424 0.0
N205 N 0.72803 0.86164 0.6719 0.0
C206 C 0.76322 0.84301 0.67551 0.0
C207 C 0.83023 0.92968 0.69412 0.0
C208 C 0.81501 0.87626 0.68706 0.0
C209 C 0.74372 0.91455 0.67743 0.0
C210 C 0.79469 0.94909 0.68894 0.0
O211 O 0.50749 0.79024 0.67074 0.0
O212 O 0.5516 0.75382 0.6494 0.0
O213 O 0.65539 0.85836 0.62167 0.0
O214 O 0.66323 0.78868 0.61227 0.0
O215 O 0.5249 0.68772 0.69659 0.0
O216 O 0.58593 0.7076 0.65959 0.0
O217 O 0.66209 0.81357 0.69835 0.0
O218 O 0.58716 0.74214 0.71823 0.0
O219 O 0.46601 0.70555 0.74283 0.0
O220 O 0.53312 0.78546 0.75329 0.0
O221 O 0.61997 0.86349 0.66298 0.0
O222 O 0.59212 0.84512 0.7078 0.0
C223 C 0.52339 0.77848 0.64797 0.0
C224 C 0.54811 0.67352 0.67718 0.0
C225 C 0.72079 0.86998 0.5888 0.0
C226 C 0.76827 0.93048 0.55047 0.0
C227 C 0.81907 0.9141 0.58546 0.0
C228 C 0.77078 0.87949 0.59916 0.0
C229 C 0.81799 0.9396 0.56137 0.0
C230 C 0.7196 0.89532 0.56445 0.0
C231 C 0.66987 0.83469 0.60353 0.0
C232 C 0.8501 0.85545 0.69078 0.0
C233 C 0.83456 0.80282 0.6819 0.0
H234 H 0.86967 0.95653 0.70305 0.0
C235 C 0.64008 0.77478 0.71661 0.0
C236 C 0.60526 0.87631 0.68598 0.0
C237 C 0.50895 0.71501 0.78537 0.0
C238 C 0.48096 0.65503 0.82491 0.0
C239 C 0.57628 0.70782 0.81265 0.0
C240 C 0.56342 0.73049 0.79072 0.0
C241 C 0.53534 0.66979 0.82947 0.0
C242 C 0.46785 0.67766 0.80278 0.0
C243 C 0.49456 0.73872 0.76241 0.0
H244 H 0.85755 0.92155 0.59367 0.0
H245 H 0.7725 0.86029 0.61784 0.0
H246 H 0.85629 0.96726 0.55156 0.0
H247 H 0.68075 0.88737 0.55642 0.0
H248 H 0.61814 0.72028 0.81698 0.0
H249 H 0.59606 0.76057 0.77821 0.0
H250 H 0.54633 0.65352 0.84671 0.0
H251 H 0.42586 0.66668 0.79933 0.0
C252 C 0.67038 0.36446 0.02901 0.0
C253 C 0.73517 0.33275 0.02688 0.0
C254 C 0.72346 0.37472 0.03167 0.0
C255 C 0.69375 0.28165 0.01802 0.0
C256 C 0.62846 0.31287 0.02061 0.0
C257 C 0.64059 0.2718 0.0148 0.0
N258 N 0.65966 0.4049 0.03478 0.0
C259 C 0.60782 0.39601 0.03342 0.0
C260 C 0.57542 0.30391 0.01854 0.0
C261 C 0.56505 0.34563 0.02509 0.0
Gd262 Gd 0.7873 0.63786 0.0002 0.0
Gd263 Gd 0.73454 0.48763 0.04857 0.0
N264 N 0.76302 0.4247 0.04011 0.0
C265 C 0.78771 0.3427 0.03212 0.0
C266 C 0.81366 0.43382 0.04647 0.0
C267 C 0.82664 0.39293 0.04254 0.0
H268 H 0.84383 0.47233 0.05499 0.0
H269 H 0.86635 0.39959 0.0478 0.0
H270 H 0.70452 0.67485 0.03287 0.0
H271 H 0.59978 0.42816 0.03805 0.0
H272 H 0.71394 0.7505 0.06058 0.0
H273 H 0.79817 0.31133 0.02902 0.0
H274 H 0.70222 0.24915 0.01406 0.0
H275 H 0.91138 0.67505 0.97794 0.0
H276 H 0.54216 0.26486 0.01212 0.0
H277 H 0.52415 0.33904 0.02367 0.0
H278 H 0.90578 0.87737 0.06126 0.0
H279 H 0.60897 0.23199 0.00823 0.0
H280 H 0.02233 0.83195 0.01077 0.0
H281 H 0.00522 0.75241 0.98285 0.0
N282 N 0.87667 0.70989 0.00354 0.0
C283 C 0.88481 0.75364 0.01835 0.0
C284 C 0.91876 0.7093 0.99046 0.0
C285 C 0.98123 0.79801 0.0088 0.0
C286 C 0.97176 0.75315 0.99305 0.0
C287 C 0.93746 0.79881 0.02156 0.0
H288 H 0.98483 0.87828 0.04004 0.0
N289 N 0.78988 0.70854 0.0266 0.0
C290 C 0.84013 0.75282 0.03035 0.0
C291 C 0.80124 0.79632 0.05711 0.0
C292 C 0.84718 0.79769 0.04584 0.0
C293 C 0.7448 0.70798 0.03683 0.0
C294 C 0.74984 0.75145 0.0524 0.0
O295 O 0.70254 0.46467 0.00539 0.0
O296 O 0.74102 0.55097 0.00644 0.0
O297 O 0.74928 0.66714 0.97182 0.0
O298 O 0.80524 0.64275 0.95679 0.0
O299 O 0.81894 0.53272 0.02909 0.0
O300 O 0.82606 0.5862 0.99035 0.0
O301 O 0.83931 0.64802 0.03664 0.0
O302 O 0.76659 0.57714 0.05548 0.0
O303 O 0.77447 0.49003 0.08675 0.0
O304 O 0.68641 0.44806 0.08436 0.0
O305 O 0.70007 0.59499 0.01788 0.0
O306 O 0.67833 0.52286 0.0492 0.0
C307 C 0.71343 0.50777 0.99187 0.0
C308 C 0.83733 0.55297 0.0044 0.0
C309 C 0.80313 0.71428 0.93386 0.0
C310 C 0.81105 0.76011 0.89071 0.0
C311 C 0.86715 0.81085 0.92922 0.0
C312 C 0.84312 0.76373 0.94504 0.0
C313 C 0.85096 0.80923 0.90223 0.0
C314 C 0.78749 0.71246 0.90654 0.0
C315 C 0.77633 0.66508 0.95081 0.0
C316 C 0.89964 0.84265 0.04936 0.0
C317 C 0.94467 0.84321 0.03726 0.0
H318 H 0.80491 0.82997 0.06911 0.0
C319 C 0.81819 0.61428 0.05705 0.0
C320 C 0.6677 0.55756 0.03618 0.0
C321 C 0.7261 0.49163 0.12552 0.0
C322 C 0.73533 0.49852 0.17482 0.0
C323 C 0.70106 0.54946 0.15059 0.0
C324 C 0.70604 0.52778 0.12589 0.0
C325 C 0.71509 0.5345 0.17506 0.0
C326 C 0.74137 0.47779 0.14992 0.0
C327 C 0.72864 0.46569 0.10017 0.0
H328 H 0.89781 0.84889 0.93802 0.0
H329 H 0.85522 0.76612 0.96607 0.0
H330 H 0.86924 0.84638 0.89037 0.0
H331 H 0.75595 0.67458 0.89792 0.0
H332 H 0.68557 0.57729 0.15081 0.0
H333 H 0.69408 0.539 0.10715 0.0
H334 H 0.70989 0.55065 0.19412 0.0
H335 H 0.75572 0.44894 0.14963 0.0
C336 C 0.2003 0.65755 0.41178 0.0
C337 C 0.26025 0.62483 0.39696 0.0
C338 C 0.24528 0.6651 0.39703 0.0
C339 C 0.22716 0.57536 0.41049 0.0
C340 C 0.16834 0.60901 0.4264 0.0
C341 C 0.1812 0.56741 0.42511 0.0
N342 N 0.18934 0.69874 0.41286 0.0
C343 C 0.14923 0.69564 0.42944 0.0
C344 C 0.12526 0.60436 0.4424 0.0
C345 C 0.11603 0.64809 0.44414 0.0
Gd346 Gd 0.17227 0.81965 0.3171 0.0
Gd347 Gd 0.24325 0.77377 0.38509 0.0
N348 N 0.27624 0.71319 0.38408 0.0
C349 C 0.30898 0.63629 0.38408 0.0
C350 C 0.32574 0.7263 0.37329 0.0
C351 C 0.34236 0.68763 0.37264 0.0
H352 H 0.3513 0.76604 0.36442 0.0
H353 H 0.38083 0.69742 0.36334 0.0
H354 H 0.03872 0.72321 0.328 0.0
H355 H 0.14241 0.72966 0.43103 0.0
H356 H 0.95549 0.71984 0.34404 0.0
H357 H 0.322 0.60646 0.38362 0.0
H358 H 0.23754 0.54357 0.41036 0.0
H359 H 0.25571 0.94692 0.29903 0.0
H360 H 0.0998 0.56778 0.454 0.0
H361 H 0.08352 0.64526 0.45687 0.0
H362 H 0.00244 0.90665 0.34909 0.0
H363 H 0.15672 0.52953 0.43594 0.0
H364 H 0.18046 0.04109 0.31833 0.0
H365 H 0.25952 0.03582 0.30079 0.0
N366 N 0.17601 0.90344 0.31565 0.0
C367 C 0.13172 0.90508 0.3246 0.0
C368 C 0.22116 0.94919 0.3066 0.0
C369 C 0.17868 0.00219 0.31756 0.0
C370 C 0.22337 -0.00062 0.30761 0.0
C371 C 0.13186 0.95461 0.32597 0.0
H372 H 0.08461 0.99257 0.33671 0.0
N373 N 0.08715 0.80984 0.32944 0.0
C374 C 0.08593 0.8568 0.33191 0.0
C375 C 0.99138 0.80676 0.3455 0.0
C376 C 0.03828 0.85663 0.3403 0.0
C377 C 0.04025 0.76097 0.33257 0.0
C378 C 0.99216 0.75872 0.34115 0.0
O379 O 0.24523 0.72968 0.34671 0.0
O380 O 0.20858 0.77579 0.33449 0.0
O381 O 0.1251 0.77898 0.28045 0.0
O382 O 0.21172 0.83868 0.27748 0.0
O383 O 0.30335 0.83262 0.35362 0.0
O384 O 0.26575 0.86735 0.32097 0.0
O385 O 0.20319 0.87885 0.35248 0.0
O386 O 0.1906 0.81172 0.38084 0.0
O387 O 0.30472 0.85414 0.39797 0.0
O388 O 0.27513 0.78757 0.42656 0.0
O389 O 0.12423 0.73394 0.33582 0.0
O390 O 0.15312 0.74928 0.38058 0.0
C391 C 0.22389 0.74202 0.32677 0.0
C392 C 0.30689 0.86618 0.33368 0.0
C393 C 0.16649 0.79688 0.23489 0.0
C394 C 0.11725 0.75939 0.19229 0.0
C395 C 0.21565 0.81639 0.19188 0.0
C396 C 0.21555 0.82254 0.22009 0.0
C397 C 0.16682 0.78534 0.17801 0.0
C398 C 0.11721 0.76457 0.22086 0.0
C399 C 0.16756 0.80455 0.26477 0.0
C400 C 0.03852 0.90599 0.34246 0.0
C401 C 0.08525 0.9549 0.33534 0.0
H402 H 0.95394 0.80484 0.35194 0.0
C403 C 0.20954 0.86367 0.3768 0.0
C404 C 0.11958 0.71692 0.36145 0.0
C405 C 0.36861 0.85424 0.42854 0.0
C406 C 0.43511 0.86415 0.46277 0.0
C407 C 0.4632 0.88936 0.41567 0.0
C408 C 0.40989 0.87417 0.40857 0.0
C409 C 0.47589 0.88451 0.4426 0.0
C410 C 0.38157 0.84955 0.45558 0.0
C411 C 0.31197 0.83773 0.42147 0.0
H412 H 0.25369 0.83625 0.1807 0.0
H413 H 0.25401 0.84749 0.2303 0.0
H414 H 0.16763 0.78179 0.15603 0.0
H415 H 0.07894 0.7449 0.23191 0.0
H416 H 0.49469 0.90442 0.4002 0.0
H417 H 0.4011 0.8779 0.38748 0.0
H418 H 0.5173 0.89542 0.44752 0.0
H419 H 0.34985 0.83438 0.471 0.0
C420 C 0.5835 0.19679 0.73766 0.0
C421 C 0.66477 0.27908 0.72307 0.0
C422 C 0.60773 0.24784 0.72568 0.0
C423 C 0.69696 0.25732 0.73175 0.0
C424 C 0.61582 0.17601 0.74766 0.0
C425 C 0.67256 0.20599 0.74412 0.0
N426 N 0.52868 0.16934 0.74139 0.0
C427 C 0.50347 0.12118 0.75512 0.0
C428 C 0.59032 0.12668 0.76183 0.0
C429 C 0.53389 0.09904 0.76549 0.0
Gd430 Gd 0.35754 0.15044 0.65925 0.0
Gd431 Gd 0.48234 0.21284 0.72639 0.0
N432 N 0.57565 0.26835 0.71825 0.0
C433 C 0.68781 0.33207 0.71285 0.0
C434 C 0.59792 0.32113 0.70999 0.0
C435 C 0.65425 0.3534 0.70659 0.0
H436 H 0.57186 0.33771 0.70558 0.0
H437 H 0.6718 0.39481 0.69942 0.0
H438 H 0.33281 0.02006 0.66032 0.0
H439 H 0.46001 0.10052 0.75857 0.0
H440 H 0.25899 0.93003 0.67358 0.0
H441 H 0.7315 0.35739 0.71054 0.0
H442 H 0.74087 0.28056 0.72976 0.0
H443 H 0.30269 0.22863 0.65463 0.0
H444 H 0.61398 0.11016 0.7705 0.0
H445 H 0.51394 0.06109 0.77663 0.0
H446 H 0.10854 0.95704 0.69232 0.0
H447 H 0.69803 0.1904 0.75144 0.0
H448 H 0.13407 0.13476 0.67681 0.0
H449 H 0.21325 0.22209 0.66219 0.0
N450 N 0.27386 0.14624 0.6651 0.0
C451 C 0.23084 0.09772 0.67246 0.0
C452 C 0.26807 0.19045 0.66091 0.0
C453 C 0.17309 0.13748 0.6735 0.0
C454 C 0.21767 0.18685 0.66522 0.0
C455 C 0.17922 0.09201 0.67704 0.0
H456 H 0.09548 0.03595 0.68841 0.0
N457 N 0.28864 0.06061 0.66944 0.0
C458 C 0.23857 0.05364 0.67497 0.0
C459 C 0.20235 0.95751 0.68203 0.0
C460 C 0.19424 0.00206 0.68168 0.0
C461 C 0.29543 0.01643 0.66771 0.0
C462 C 0.25294 0.96462 0.67456 0.0
O463 O 0.52554 0.2276 0.68532 0.0
O464 O 0.4415 0.19243 0.67412 0.0
O465 O 0.34966 0.11349 0.61916 0.0
O466 O 0.36608 0.19572 0.62237 0.0
O467 O 0.46208 0.27199 0.70563 0.0
O468 O 0.39977 0.24171 0.66819 0.0
O469 O 0.32965 0.16983 0.69869 0.0
O470 O 0.39244 0.15914 0.72038 0.0
O471 O 0.48334 0.27676 0.75126 0.0
O472 O 0.4798 0.20695 0.77056 0.0
O473 O 0.40501 0.10687 0.66925 0.0
O474 O 0.4236 0.12354 0.71547 0.0
C475 C 0.49115 0.2124 0.66538 0.0
C476 C 0.43398 0.27905 0.68591 0.0
C477 C 0.31386 0.14482 0.58448 0.0
C478 C 0.27313 0.10385 0.5405 0.0
C479 C 0.24518 0.16094 0.5644 0.0
C480 C 0.28113 0.16888 0.58552 0.0
C481 C 0.24135 0.12901 0.54199 0.0
C482 C 0.30949 0.11214 0.56196 0.0
C483 C 0.3541 0.15524 0.60611 0.0
C484 C 0.14293 0.99628 0.68697 0.0
C485 C 0.13545 0.04117 0.68466 0.0
H486 H 0.16935 0.91722 0.68704 0.0
C487 C 0.35651 0.17506 0.72118 0.0
C488 C 0.42428 0.09915 0.69247 0.0
C489 C 0.53794 0.29289 0.78993 0.0
C490 C 0.59027 0.37492 0.81699 0.0
C491 C 0.63119 0.32171 0.80266 0.0
C492 C 0.5827 0.28459 0.79021 0.0
C493 C 0.63516 0.36675 0.81587 0.0
C494 C 0.54159 0.33795 0.80373 0.0
C495 C 0.4893 0.25637 0.77386 0.0
H496 H 0.2205 0.18003 0.56527 0.0
H497 H 0.28364 0.19439 0.60247 0.0
H498 H 0.21385 0.1246 0.52566 0.0
H499 H 0.33404 0.09287 0.56132 0.0
H500 H 0.66545 0.31497 0.80252 0.0
H501 H 0.58037 0.24928 0.7809 0.0
H502 H 0.67266 0.3938 0.82642 0.0
H503 H 0.50684 0.344 0.8043 0.0
C504 C 0.25054 0.74926 0.27795 0.0
C505 C 0.21675 0.71855 0.2995 0.0
C506 C 0.25147 0.72388 0.25352 0.0
C507 C 0.21818 0.66677 0.25104 0.0
C508 C 0.18125 0.63655 0.27216 0.0
C509 C 0.18125 0.66294 0.29617 0.0
C510 C 0.29064 0.75733 0.23118 0.0
C511 C 0.1452 0.57556 0.27053 0.0
C512 C 0.19819 0.58314 0.18743 0.0
C513 C 0.23447 0.56411 0.19234 0.0
C514 C 0.195 0.62 0.20536 0.0
C515 C 0.22797 0.63707 0.22896 0.0
C516 C 0.26637 0.62002 0.2333 0.0
C517 C 0.26955 0.58433 0.21478 0.0
C518 C 0.15451 0.63843 0.19978 0.0
C519 C 0.30212 0.63702 0.25834 0.0
H520 H 0.27836 0.79235 0.28078 0.0
H521 H 0.15506 0.63937 0.31278 0.0
H522 H 0.32268 0.74618 0.22898 0.0
H523 H 0.26899 0.74863 0.21139 0.0
H524 H 0.31066 0.80158 0.23537 0.0
H525 H 0.11475 0.55917 0.28732 0.0
H526 H 0.12332 0.5636 0.2508 0.0
H527 H 0.17069 0.55622 0.27173 0.0
H528 H 0.17088 0.5678 0.17015 0.0
H529 H 0.29892 0.5713 0.21824 0.0
H530 H 0.17262 0.68246 0.20403 0.0
H531 H 0.11876 0.6164 0.21344 0.0
H532 H 0.13998 0.63045 0.17835 0.0
H533 H 0.32451 0.68187 0.26043 0.0
H534 H 0.33214 0.6229 0.25777 0.0
H535 H 0.27642 0.61996 0.27684 0.0
C536 C 0.53814 0.18772 0.6303 0.0
C537 C 0.50604 0.21061 0.63688 0.0
C538 C 0.54915 0.18169 0.60307 0.0
C539 C 0.52877 0.20054 0.58204 0.0
C540 C 0.49823 0.22588 0.58871 0.0
C541 C 0.48776 0.2311 0.6162 0.0
C542 C 0.58197 0.15453 0.59683 0.0
C543 C 0.47609 0.24679 0.56687 0.0
C544 C 0.59997 0.22919 0.51349 0.0
C545 C 0.56449 0.18259 0.49867 0.0
C546 C 0.58847 0.23582 0.54056 0.0
C547 C 0.54044 0.19471 0.5531 0.0
C548 C 0.50426 0.14766 0.53818 0.0
C549 C 0.51676 0.14217 0.51109 0.0
C550 C 0.62772 0.28679 0.55574 0.0
C551 C 0.45299 0.10267 0.55099 0.0
H552 H 0.55393 0.17361 0.64636 0.0
H553 H 0.46607 0.25199 0.62159 0.0
H554 H 0.55795 0.11837 0.58378 0.0
H555 H 0.61925 0.18276 0.58528 0.0
H556 H 0.5941 0.14146 0.61559 0.0
H557 H 0.45409 0.26647 0.57555 0.0
H558 H 0.50973 0.27657 0.55373 0.0
H559 H 0.44765 0.2127 0.55361 0.0
H560 H 0.63653 0.26082 0.50377 0.0
H561 H 0.48969 0.10583 0.49973 0.0
H562 H 0.64361 0.27612 0.57391 0.0
H563 H 0.60635 0.308 0.56314 0.0
H564 H 0.66272 0.31533 0.54285 0.0
H565 H 0.46392 0.08169 0.56664 0.0
H566 H 0.42593 0.0722 0.53575 0.0
H567 H 0.43009 0.11953 0.56148 0.0
C568 C 0.2505 0.48139 0.93599 0.0
C569 C 0.27655 0.49378 0.96133 0.0
C570 C 0.28066 0.50064 0.91177 0.0
C571 C 0.33803 0.53311 0.91313 0.0
C572 C 0.36457 0.54379 0.93867 0.0
C573 C 0.33344 0.5238 0.96249 0.0
C574 C 0.25106 0.48781 0.88486 0.0
C575 C 0.42563 0.57884 0.94101 0.0
C576 C 0.43089 0.56885 0.85151 0.0
C577 C 0.43917 0.62037 0.84497 0.0
C578 C 0.39569 0.53842 0.87285 0.0
C579 C 0.36995 0.56111 0.88839 0.0
C580 C 0.37727 0.61262 0.88133 0.0
C581 C 0.41136 0.64136 0.85944 0.0
C582 C 0.38731 0.48289 0.87926 0.0
C583 C 0.35089 0.63837 0.8976 0.0
H584 H 0.20645 0.45903 0.93515 0.0
H585 H 0.35363 0.53335 0.98212 0.0
H586 H 0.25867 0.4586 0.87343 0.0
H587 H 0.2065 0.46993 0.88764 0.0
H588 H 0.2662 0.52479 0.87209 0.0
H589 H 0.43951 0.5848 0.96252 0.0
H590 H 0.44574 0.55997 0.92967 0.0
H591 H 0.43939 0.6193 0.93178 0.0
H592 H 0.45255 0.55282 0.84017 0.0
H593 H 0.41841 0.68151 0.85445 0.0
H594 H 0.34333 0.45316 0.8819 0.0
H595 H 0.40778 0.48438 0.89873 0.0
H596 H 0.404 0.46808 0.86301 0.0
H597 H 0.30609 0.61112 0.89806 0.0
H598 H 0.36001 0.67826 0.88911 0.0
H599 H 0.36541 0.64443 0.91901 0.0
C600 C 0.78279 0.36755 0.30979 0.0
C601 C 0.76795 0.31426 0.30234 0.0
C602 C 0.7795 0.40294 0.29112 0.0
C603 C 0.76056 0.38437 0.26444 0.0
C604 C 0.74491 0.3304 0.2569 0.0
C605 C 0.74918 0.29604 0.27593 0.0
C606 C 0.79734 0.46039 0.29981 0.0
C607 C 0.72392 0.30904 0.22866 0.0
C608 C 0.70361 0.45189 0.21956 0.0
C609 C 0.74558 0.47809 0.20042 0.0
C610 C 0.70887 0.4231 0.24138 0.0
C611 C 0.75749 0.42125 0.24414 0.0
C612 C 0.8014 0.45087 0.22591 0.0
C613 C 0.79469 0.4786 0.20406 0.0
C614 C 0.66115 0.39181 0.26039 0.0
C615 C 0.85431 0.45082 0.22859 0.0
H616 H 0.79834 0.38218 0.33007 0.0
H617 H 0.73756 0.25482 0.27018 0.0
H618 H 0.83305 0.48933 0.28749 0.0
H619 H 0.7644 0.4697 0.29604 0.0
H620 H 0.80855 0.46749 0.32174 0.0
H621 H 0.68809 0.31343 0.22409 0.0
H622 H 0.75568 0.33316 0.21326 0.0
H623 H 0.71198 0.26563 0.22633 0.0
H624 H 0.66547 0.45118 0.21652 0.0
H625 H 0.82714 0.4992 0.18923 0.0
H626 H 0.67445 0.40043 0.28196 0.0
H627 H 0.64395 0.3476 0.25709 0.0
H628 H 0.6284 0.40168 0.25709 0.0
H629 H 0.8693 0.45993 0.24989 0.0
H630 H 0.88639 0.4809 0.2148 0.0
H631 H 0.84758 0.40989 0.22354 0.0
C632 C 0.48233 0.82215 0.62015 0.0
C633 C 0.51226 0.79527 0.62146 0.0
C634 C 0.4705 0.83711 0.59496 0.0
C635 C 0.48943 0.82522 0.57065 0.0
C636 C 0.52057 0.79909 0.57193 0.0
C637 C 0.53099 0.7838 0.59732 0.0
C638 C 0.4373 0.86508 0.59432 0.0
C639 C 0.54206 0.78636 0.54645 0.0
C640 C 0.41345 0.80709 0.50465 0.0
C641 C 0.44786 0.85585 0.49102 0.0
C642 C 0.42601 0.7972 0.53084 0.0
C643 C 0.4741 0.83713 0.54373 0.0
C644 C 0.5084 0.88703 0.53038 0.0
C645 C 0.49502 0.89566 0.50405 0.0
C646 C 0.38852 0.74342 0.54443 0.0
C647 C 0.56002 0.93067 0.54346 0.0
H648 H 0.46769 0.83111 0.63878 0.0
H649 H 0.55353 0.76243 0.59819 0.0
H650 H 0.40003 0.84102 0.58198 0.0
H651 H 0.42503 0.87073 0.61504 0.0
H652 H 0.46112 0.90541 0.5844 0.0
H653 H 0.56765 0.76803 0.55109 0.0
H654 H 0.50758 0.75775 0.53345 0.0
H655 H 0.56672 0.82395 0.53441 0.0
H656 H 0.37736 0.77592 0.49449 0.0
H657 H 0.52151 0.93359 0.49364 0.0
H658 H 0.3757 0.75018 0.56476 0.0
H659 H 0.41043 0.72079 0.5477 0.0
H660 H 0.35154 0.7177 0.53213 0.0
H661 H 0.55356 0.93524 0.5654 0.0
H662 H 0.57538 0.97058 0.53326 0.0
H663 H 0.59191 0.91916 0.54198 0.0
C664 C 0.67489 0.53736 0.95444 0.0
C665 C 0.6977 0.50643 0.96332 0.0
C666 C 0.65328 0.53071 0.92806 0.0
C667 C 0.65377 0.49138 0.91058 0.0
C668 C 0.6784 0.46124 0.91937 0.0
C669 C 0.69972 0.46898 0.94571 0.0
C670 C 0.6277 0.56387 0.91977 0.0
C671 C 0.68059 0.41922 0.90135 0.0
C672 C 0.5573 0.40182 0.85762 0.0
C673 C 0.59348 0.41739 0.83555 0.0
C674 C 0.57304 0.43193 0.88188 0.0
C675 C 0.62594 0.47789 0.88374 0.0
C676 C 0.65741 0.49951 0.85981 0.0
C677 C 0.64081 0.46869 0.83581 0.0
C678 C 0.53674 0.40965 0.90662 0.0
C679 C 0.71241 0.55054 0.86056 0.0
H680 H 0.67146 0.56486 0.96844 0.0
H681 H 0.71706 0.44484 0.95281 0.0
H682 H 0.62925 0.57018 0.89739 0.0
H683 H 0.58438 0.54231 0.92625 0.0
H684 H 0.64815 0.60414 0.92999 0.0
H685 H 0.70292 0.40088 0.91103 0.0
H686 H 0.63868 0.38617 0.89669 0.0
H687 H 0.70088 0.43787 0.88173 0.0
H688 H 0.52004 0.36273 0.85727 0.0
H689 H 0.66801 0.48157 0.81835 0.0
H690 H 0.53865 0.44304 0.91914 0.0
H691 H 0.55087 0.38702 0.91944 0.0
H692 H 0.49374 0.38145 0.90082 0.0
H693 H 0.71234 0.58069 0.87488 0.0
H694 H 0.72486 0.56926 0.84 0.0
H695 H 0.74323 0.54035 0.86774 0.0
C696 C 0.35673 0.43102 0.00422 0.0
C697 C 0.3242 0.42925 0.02618 0.0
C698 C 0.41324 0.45448 0.00715 0.0
C699 C 0.43811 0.4799 0.03216 0.0
C700 C 0.40517 0.47819 0.05431 0.0
C701 C 0.34859 0.45004 0.05145 0.0
C702 C 0.44553 0.45216 0.98317 0.0
C703 C 0.42862 0.50661 0.0811 0.0
C704 C 0.57462 0.50259 0.05566 0.0
C705 C 0.61102 0.54629 0.03924 0.0
C706 C 0.51847 0.47931 0.0527 0.0
C707 C 0.49783 0.50502 0.03576 0.0
C708 C 0.53465 0.554 0.02212 0.0
C709 C 0.59077 0.5728 0.02313 0.0
C710 C 0.48245 0.42582 0.06699 0.0
C711 C 0.5158 0.58617 0.00563 0.0
H712 H 0.33826 0.41437 0.98463 0.0
H713 H 0.32384 0.44739 0.06883 0.0
H714 H 0.45699 0.48768 0.96976 0.0
H715 H 0.48314 0.45253 0.98957 0.0
H716 H 0.42069 0.41511 0.97076 0.0
H717 H 0.4049 0.52502 0.0891 0.0
H718 H 0.42502 0.47633 0.09641 0.0
H719 H 0.47187 0.53908 0.07943 0.0
H720 H 0.58956 0.48327 0.06942 0.0
H721 H 0.61831 0.60738 0.01075 0.0
H722 H 0.44166 0.40196 0.05758 0.0
H723 H 0.47756 0.43374 0.08866 0.0
H724 H 0.50186 0.40027 0.06687 0.0
H725 H 0.51963 0.57969 0.98361 0.0
H726 H 0.54254 0.63029 0.00958 0.0
H727 H 0.47317 0.57509 0.01015 0.0
C728 C 0.03098 0.63553 0.37347 0.0
C729 C 0.08607 0.65852 0.36684 0.0
C730 C 0.99757 0.57887 0.37569 0.0
C731 C 0.01979 0.54494 0.37029 0.0
C732 C 0.07597 0.56854 0.36437 0.0
C733 C 0.10852 0.62516 0.36328 0.0
C734 C 0.93843 0.55524 0.38331 0.0
C735 C 0.10127 0.53421 0.35769 0.0
C736 C 0.94518 0.39528 0.38955 0.0
C737 C 0.91711 0.37113 0.36545 0.0
C738 C 0.97762 0.45199 0.39175 0.0
C739 C 0.98377 0.48499 0.3689 0.0
C740 C 0.95673 0.46056 0.34422 0.0
C741 C 0.92339 0.40398 0.34288 0.0
C742 C 0.00528 0.47656 0.41848 0.0
C743 C 0.96333 0.4941 0.31911 0.0
H744 H 0.01396 0.66177 0.37647 0.0
H745 H 0.15143 0.64339 0.35881 0.0
H746 H 0.91195 0.52906 0.36662 0.0
H747 H 0.92917 0.52921 0.40162 0.0
H748 H 0.92786 0.58715 0.38767 0.0
H749 H 0.0933 0.50467 0.37426 0.0
H750 H 0.08258 0.51056 0.33885 0.0
H751 H 0.14598 0.55913 0.35451 0.0
H752 H 0.94197 0.36981 0.40667 0.0
H753 H 0.90194 0.38547 0.32412 0.0
H754 H 0.99467 0.50728 0.42532 0.0
H755 H 0.05003 0.4977 0.41578 0.0
H756 H 0.99383 0.44554 0.43475 0.0
H757 H 0.94849 0.52275 0.32332 0.0
H758 H 0.94067 0.46862 0.30132 0.0
H759 H 0.00707 0.51872 0.31358 0.0
C760 C 0.42791 0.01404 0.68854 0.0
C761 C 0.4551 0.07049 0.69103 0.0
C762 C 0.4571 0.98656 0.6857 0.0
C763 C 0.5149 0.01661 0.68547 0.0
C764 C 0.54227 0.07391 0.68684 0.0
C765 C 0.51185 0.09998 0.6896 0.0
C766 C 0.42528 0.92572 0.68197 0.0
C767 C 0.60349 0.10775 0.68487 0.0
C768 C 0.58862 0.94417 0.7094 0.0
C769 C 0.59214 0.92025 0.68523 0.0
C770 C 0.56435 0.97649 0.70978 0.0
C771 C 0.54651 0.988 0.68502 0.0
C772 C 0.55591 0.96902 0.66008 0.0
C773 C 0.57821 0.93486 0.66049 0.0
C774 C 0.55744 0.99723 0.7369 0.0
C775 C 0.54079 0.98333 0.63313 0.0
H776 H 0.38381 0.99129 0.68876 0.0
H777 H 0.53261 0.14366 0.69035 0.0
H778 H 0.44863 0.9057 0.68775 0.0
H779 H 0.38678 0.90756 0.69388 0.0
H780 H 0.4139 0.9166 0.66019 0.0
H781 H 0.6222 0.10057 0.703 0.0
H782 H 0.6182 0.09567 0.66666 0.0
H783 H 0.61797 0.15192 0.68355 0.0
H784 H 0.60247 0.93545 0.72829 0.0
H785 H 0.58253 0.91786 0.6415 0.0
H786 H 0.52003 0.00024 0.7377 0.0
H787 H 0.5932 0.038 0.7402 0.0
H788 H 0.55618 0.97102 0.75398 0.0
H789 H 0.49605 0.96535 0.63197 0.0
H790 H 0.55435 0.9685 0.6155 0.0
H791 H 0.55917 0.02804 0.63139 0.0
C792 C 0.47543 0.57739 0.68524 0.0
C793 C 0.52715 0.61443 0.67472 0.0
C794 C 0.45528 0.52139 0.68432 0.0
C795 C 0.48833 0.50192 0.67344 0.0
C796 C 0.54011 0.53869 0.66245 0.0
C797 C 0.55874 0.59452 0.66317 0.0
C798 C 0.39963 0.48332 0.69612 0.0
C799 C 0.57707 0.51936 0.65129 0.0
C800 C 0.47166 0.37288 0.7038 0.0
C801 C 0.44438 0.33505 0.68295 0.0
C802 C 0.48576 0.42715 0.70094 0.0
C803 C 0.47171 0.44403 0.67673 0.0
C804 C 0.44261 0.40597 0.65592 0.0
C805 C 0.42928 0.3517 0.65925 0.0
C806 C 0.51658 0.46658 0.72369 0.0
C807 C 0.42642 0.4228 0.63004 0.0
H808 H 0.45064 0.59195 0.69466 0.0
H809 H 0.59902 0.62232 0.65589 0.0
H810 H 0.37575 0.449 0.68199 0.0
H811 H 0.40401 0.46585 0.71551 0.0
H812 H 0.37625 0.50424 0.70032 0.0
H813 H 0.61382 0.55253 0.64119 0.0
H814 H 0.59039 0.50281 0.66816 0.0
H815 H 0.55493 0.48608 0.63638 0.0
H816 H 0.48271 0.36039 0.72242 0.0
H817 H 0.40807 0.32272 0.64308 0.0
H818 H 0.49331 0.4857 0.73124 0.0
H819 H 0.5562 0.49962 0.71593 0.0
H820 H 0.52445 0.44668 0.74117 0.0
H821 H 0.40269 0.44298 0.63499 0.0
H822 H 0.40173 0.38776 0.61639 0.0
H823 H 0.4634 0.45275 0.61882 0.0
C824 C 0.05794 0.46211 0.9758 0.0
C825 C 0.06316 0.4466 0.00225 0.0
C826 C 0.02387 0.48359 0.97064 0.0
C827 C 0.99475 0.48974 0.99247 0.0
C828 C 0.00017 0.47424 0.01922 0.0
C829 C 0.033 0.45135 0.02355 0.0
C830 C 0.02106 0.50213 0.94218 0.0
C831 C 0.97438 0.48442 0.04384 0.0
C832 C 0.93361 0.58034 0.9962 0.0
C833 C 0.87848 0.54182 0.99343 0.0
C834 C 0.97329 0.56522 0.9931 0.0
C835 C 0.95678 0.5102 0.98757 0.0
C836 C 0.90126 0.47237 0.98248 0.0
C837 C 0.86264 0.48882 0.98545 0.0
C838 C 0.03185 0.60707 0.99868 0.0
C839 C 0.88205 0.41339 0.97654 0.0
H840 H 0.08182 0.45917 0.95931 0.0
H841 H 0.03642 0.43874 0.04396 0.0
H842 H 0.97826 0.48206 0.93512 0.0
H843 H 0.03663 0.54654 0.9423 0.0
H844 H 0.0453 0.49342 0.92732 0.0
H845 H 0.00465 0.52312 0.05352 0.0
H846 H 0.93841 0.48804 0.03877 0.0
H847 H 0.96263 0.45189 0.05932 0.0
H848 H 0.94548 0.62113 0.00285 0.0
H849 H 0.81964 0.45927 0.98352 0.0
H850 H 0.03909 0.60864 0.02096 0.0
H851 H 0.04068 0.6481 0.99219 0.0
H852 H 0.06063 0.59738 0.98823 0.0
H853 H 0.90373 0.41001 0.95848 0.0
H854 H 0.83754 0.38946 0.9727 0.0
H855 H 0.89169 0.39497 0.99402 0.0
C856 C 0.37751 0.96013 0.31954 0.0
C857 C 0.36307 0.90636 0.32535 0.0
C858 C 0.43254 0.00083 0.31717 0.0
C859 C 0.47378 0.98714 0.32045 0.0
C860 C 0.45901 0.93208 0.32414 0.0
C861 C 0.40388 0.89245 0.32663 0.0
C862 C 0.4465 0.05903 0.31337 0.0
C863 C 0.50147 0.91553 0.3277 0.0
C864 C 0.62349 0.09143 0.30751 0.0
C865 C 0.64139 0.11015 0.33405 0.0
C866 C 0.56879 0.05172 0.30253 0.0
C867 C 0.53148 0.03055 0.32461 0.0
C868 C 0.5497 0.04919 0.3514 0.0
C869 C 0.60435 0.088 0.35575 0.0
C870 C 0.55093 0.0323 0.27376 0.0
C871 C 0.51151 0.02808 0.37561 0.0
H872 H 0.34613 0.97112 0.31874 0.0
H873 H 0.39279 0.85074 0.33082 0.0
H874 H 0.46178 0.08124 0.33291 0.0
H875 H 0.47929 0.07967 0.29797 0.0
H876 H 0.41062 0.06201 0.30694 0.0
H877 H 0.48358 0.87075 0.32676 0.0
H878 H 0.53348 0.9346 0.3118 0.0
H879 H 0.5215 0.92989 0.3478 0.0
H880 H 0.65203 0.1081 0.29067 0.0
H881 H 0.61834 0.10029 0.37642 0.0
H882 H 0.51708 0.03906 0.26794 0.0
H883 H 0.53528 0.98797 0.27248 0.0
H884 H 0.58461 0.05335 0.25879 0.0
H885 H 0.47872 0.03809 0.37314 0.0
H886 H 0.53261 0.04553 0.39522 0.0
H887 H 0.49179 0.98324 0.37679 0.0
C888 C 0.33388 0.24209 0.74065 0.0
C889 C 0.35025 0.20373 0.74482 0.0
C890 C 0.3205 0.26465 0.7627 0.0
C891 C 0.3227 0.2478 0.78962 0.0
C892 C 0.34231 0.21142 0.79402 0.0
C893 C 0.35565 0.18959 0.7715 0.0
C894 C 0.3007 0.30395 0.75697 0.0
C895 C 0.34592 0.19287 0.82234 0.0
C896 C 0.29884 0.32793 0.84491 0.0
C897 C 0.24214 0.29719 0.84769 0.0
C898 C 0.32668 0.31082 0.82732 0.0
C899 C 0.2968 0.26203 0.81225 0.0
C900 C 0.23996 0.22927 0.81656 0.0
C901 C 0.21338 0.24741 0.83412 0.0
C902 C 0.38732 0.34668 0.82353 0.0
C903 C 0.20645 0.17675 0.8012 0.0
H904 H 0.33001 0.2534 0.72002 0.0
H905 H 0.3678 0.1595 0.77473 0.0
H906 H 0.25643 0.28399 0.76135 0.0
H907 H 0.32152 0.34001 0.77043 0.0
H908 H 0.30766 0.31788 0.73541 0.0
H909 H 0.37092 0.17288 0.82275 0.0
H910 H 0.3636 0.22759 0.83674 0.0
H911 H 0.30441 0.16338 0.82974 0.0
H912 H 0.32091 0.36668 0.85525 0.0
H913 H 0.16946 0.22386 0.83625 0.0
H914 H 0.39558 0.36786 0.8036 0.0
H915 H 0.40771 0.32212 0.82326 0.0
H916 H 0.40572 0.37779 0.83985 0.0
H917 H 0.20562 0.18564 0.77923 0.0
H918 H 0.16384 0.15364 0.80878 0.0
H919 H 0.22497 0.15063 0.80293 0.0
C920 C 0.96273 0.22666 0.18047 0.0
C921 C 0.99429 0.22598 0.20225 0.0
C922 C 0.98655 0.24934 0.15511 0.0
C923 C 0.04348 0.27255 0.15144 0.0
C924 C 0.07575 0.27341 0.17362 0.0
C925 C 0.05076 0.24979 0.19863 0.0
C926 C 0.95053 0.24703 0.13196 0.0
C927 C 0.13649 0.29763 0.17083 0.0
C928 C 0.09498 0.27706 0.07916 0.0
C929 C 0.11175 0.3305 0.07119 0.0
C930 C 0.0733 0.25795 0.10527 0.0
C931 C 0.06859 0.29325 0.12403 0.0
C932 C 0.08638 0.34759 0.11622 0.0
C933 C 0.10668 0.36512 0.08969 0.0
C934 C 0.0546 0.19967 0.1126 0.0
C935 C 0.08358 0.38704 0.13581 0.0
H936 H 0.91904 0.20795 0.18302 0.0
H937 H 0.07558 0.25002 0.21544 0.0
H938 H 0.96493 0.28843 0.12383 0.0
H939 H 0.9528 0.22231 0.11504 0.0
H940 H 0.90731 0.22915 0.13831 0.0
H941 H 0.15705 0.30884 0.19097 0.0
H942 H 0.14504 0.26737 0.16124 0.0
H943 H 0.15448 0.33415 0.15762 0.0
H944 H 0.09821 0.2498 0.06481 0.0
H945 H 0.11652 0.40512 0.08308 0.0
H946 H 0.01075 0.17823 0.1181 0.0
H947 H 0.07719 0.19825 0.13069 0.0
H948 H 0.0607 0.17735 0.09564 0.0
H949 H 0.09968 0.42806 0.12673 0.0
H950 H 0.10746 0.39079 0.1544 0.0
H951 H 0.04087 0.37163 0.14233 0.0
C952 C 0.73295 0.98035 0.52261 0.0
C953 C 0.76782 0.95898 0.52505 0.0
C954 C 0.7354 0.01113 0.49971 0.0
C955 C 0.77377 0.02101 0.47879 0.0
C956 C 0.80775 0.99805 0.48065 0.0
C957 C 0.80414 0.96709 0.50365 0.0
C958 C 0.69794 0.03434 0.49825 0.0
C959 C 0.84932 0.00784 0.45879 0.0
C960 C 0.76062 0.07508 0.41 0.0
C961 C 0.79667 0.13094 0.41305 0.0
C962 C 0.75238 0.03866 0.43126 0.0
C963 C 0.78128 0.05867 0.456 0.0
C964 C 0.81805 0.11504 0.45904 0.0
C965 C 0.82506 0.1505 0.43758 0.0
C966 C 0.71256 0.97892 0.42732 0.0
C967 C 0.85016 0.13794 0.48496 0.0
H968 H 0.70499 0.9747 0.53905 0.0
H969 H 0.83039 0.94975 0.50503 0.0
H970 H 0.72202 0.07919 0.49619 0.0
H971 H 0.67173 0.01839 0.47993 0.0
H972 H 0.6715 0.02421 0.51656 0.0
H973 H 0.87056 0.98466 0.46253 0.0
H974 H 0.82957 0.99634 0.4385 0.0
H975 H 0.88017 0.05174 0.45792 0.0
H976 H 0.73828 0.05985 0.39113 0.0
H977 H 0.85329 0.19363 0.43993 0.0
H978 H 0.67959 0.96486 0.44277 0.0
H979 H 0.73326 0.95509 0.43039 0.0
H980 H 0.69401 0.96987 0.40668 0.0
H981 H 0.82199 0.12834 0.5025 0.0
H982 H 0.87747 0.18268 0.48395 0.0
H983 H 0.8752 0.11886 0.48907 0.0
C984 C 0.72572 0.81263 0.74404 0.0
C985 C 0.67482 0.76865 0.73705 0.0
C986 C 0.75543 0.80893 0.76593 0.0
C987 C 0.73237 0.76108 0.78203 0.0
C988 C 0.68332 0.71488 0.77344 0.0
C989 C 0.65552 0.71918 0.75085 0.0
C990 C 0.81005 0.85747 0.77264 0.0
C991 C 0.65875 0.66116 0.78833 0.0
C992 C 0.80057 0.73248 0.84161 0.0
C993 C 0.79149 0.75989 0.86283 0.0
C994 C 0.7837 0.73424 0.81487 0.0
C995 C 0.75491 0.76212 0.8096 0.0
C996 C 0.74554 0.78961 0.83133 0.0
C997 C 0.76476 0.78876 0.85748 0.0
C998 C 0.79724 0.70612 0.79269 0.0
C999 C 0.71564 0.82065 0.82773 0.0
H1000 H 0.74128 0.85085 0.73333 0.0
H1001 H 0.61716 0.68431 0.74479 0.0
H1002 H 0.80447 0.88346 0.78764 0.0
H1003 H 0.83781 0.84482 0.78161 0.0
H1004 H 0.82963 0.88243 0.75418 0.0
H1005 H 0.6143 0.63602 0.78458 0.0
H1006 H 0.67797 0.63806 0.7807 0.0
H1007 H 0.66545 0.66648 0.81067 0.0
H1008 H 0.82188 0.71061 0.84581 0.0
H1009 H 0.75809 0.8102 0.87399 0.0
H1010 H 0.79371 0.71933 0.7719 0.0
H1011 H 0.7695 0.6616 0.79446 0.0
H1012 H 0.83933 0.71375 0.79538 0.0
H1013 H 0.74549 0.86484 0.82844 0.0
H1014 H 0.68677 0.81175 0.84492 0.0
H1015 H 0.69261 0.81169 0.80842 0.0
C1016 C 0.05279 0.75885 0.15809 0.0
C1017 C 0.06594 0.73005 0.17672 0.0
C1018 C 0.00748 0.73197 0.14098 0.0
C1019 C 0.97494 0.67459 0.14215 0.0
C1020 C 0.98722 0.64531 0.1615 0.0
C1021 C 0.03264 0.67355 0.17871 0.0
C1022 C 0.99533 0.76503 0.1211 0.0
C1023 C 0.95429 0.58417 0.16313 0.0
C1024 C 0.8395 0.62325 0.10653 0.0
C1025 C 0.85312 0.61719 0.07984 0.0
C1026 C 0.87749 0.63785 0.12775 0.0
C1027 C 0.93008 0.64618 0.122 0.0
C1028 C 0.94222 0.63569 0.0954 0.0
C1029 C 0.90392 0.62236 0.07451 0.0
C1030 C 0.86282 0.64839 0.15581 0.0
C1031 C 0.99706 0.64235 0.08848 0.0
H1032 H 0.07866 0.8026 0.15667 0.0
H1033 H 0.04334 0.65134 0.19296 0.0
H1034 H 0.00074 0.75487 0.09989 0.0
H1035 H 0.9524 0.75506 0.12331 0.0
H1036 H 0.02226 0.80943 0.12411 0.0
H1037 H 0.96162 0.56867 0.1825 0.0
H1038 H 0.91013 0.56937 0.16128 0.0
H1039 H 0.96589 0.56666 0.14592 0.0
H1040 H 0.80078 0.62078 0.11037 0.0
H1041 H 0.91447 0.61793 0.05378 0.0
H1042 H 0.88959 0.69176 0.16125 0.0
H1043 H 0.86947 0.62378 0.17119 0.0
H1044 H 0.81982 0.63866 0.1571 0.0
H1045 H 0.02791 0.68624 0.08755 0.0
H1046 H 0.99668 0.62373 0.06849 0.0
H1047 H 0.00998 0.62368 0.10448 0.0
C1048 C 0.21666 0.03524 0.50491 0.0
C1049 C 0.26794 0.0692 0.51653 0.0
C1050 C 0.2108 0.00384 0.48174 0.0
C1051 C 0.25722 0.00554 0.47002 0.0
C1052 C 0.3091 0.03911 0.48177 0.0
C1053 C 0.31388 0.07068 0.50484 0.0
C1054 C 0.15474 0.96876 0.46982 0.0
C1055 C 0.35945 0.04141 0.4701 0.0
C1056 C 0.22406 0.88208 0.42685 0.0
C1057 C 0.22593 0.90141 0.40032 0.0
C1058 C 0.23724 0.91638 0.44955 0.0
C1059 C 0.25066 0.97101 0.44582 0.0
C1060 C 0.25315 0.99103 0.41908 0.0
C1061 C 0.24121 0.9561 0.39661 0.0
C1062 C 0.23509 0.89355 0.47761 0.0
C1063 C 0.2665 0.0488 0.41425 0.0
H1064 H 0.18075 0.03285 0.51406 0.0
H1065 H 0.35375 0.09716 0.51344 0.0
H1066 H 0.15465 0.97911 0.44801 0.0
H1067 H 0.1434 0.92539 0.47076 0.0
H1068 H 0.12312 0.97362 0.48073 0.0
H1069 H 0.39712 0.07228 0.48044 0.0
H1070 H 0.35627 0.00112 0.47227 0.0
H1071 H 0.36311 0.05095 0.448 0.0
H1072 H 0.21157 0.83972 0.42999 0.0
H1073 H 0.24252 0.97133 0.3762 0.0
H1074 H 0.20047 0.89125 0.48927 0.0
H1075 H 0.27281 0.92062 0.48905 0.0
H1076 H 0.23006 0.85226 0.47677 0.0
H1077 H 0.23433 0.05506 0.42346 0.0
H1078 H 0.26972 0.05896 0.3922 0.0
H1079 H 0.30543 0.07756 0.42431 0.0
loop_
_geom_bond_atom_site_label_1
_geom_bond_atom_site_label_2
_geom_bond_distance
_geom_bond_site_symmetry_2
_ccdc_geom_bond_type
C0 C2 1.422 . S
C0 C4 1.415 . S
C0 N6 1.369 . S
C1 C2 1.421 . S
C1 C3 1.417 . S
C1 C13 1.420 1_554 S
C2 C0 1.422 . S
C2 C1 1.421 . S
C2 N12 1.359 . S
C3 C1 1.417 . S
C3 C5 1.329 . S
C3 H22 0.930 1_554 S
C4 C0 1.415 . S
C4 C5 1.437 . S
C4 C8 1.413 . S
C5 C3 1.329 . S
C5 C4 1.437 . S
C5 H27 0.929 . S
N6 C0 1.369 . S
N6 C7 1.338 . S
N6 Gd11 2.622 . S
C7 N6 1.338 . S
C7 C9 1.378 . S
C7 H19 0.929 . S
C8 C4 1.413 . S
C8 C9 1.348 . S
C8 H24 0.931 . S
C9 C7 1.378 . S
C9 C8 1.348 . S
C9 H25 0.930 . S
Gd10 N30 2.622 . S
Gd10 N37 2.570 1_556 S
Gd10 O44 2.353 . S
Gd10 O45 2.468 . S
Gd10 O46 2.427 . S
Gd10 O48 2.388 . S
Gd10 O49 2.386 1_556 S
Gd10 O53 2.307 1_556 S
Gd10 C63 2.805 . S
Gd11 N6 2.622 . S
Gd11 N12 2.570 . S
Gd11 O43 2.386 1_554 S
Gd11 O47 2.307 . S
Gd11 O50 2.353 . S
Gd11 O51 2.468 . S
Gd11 O52 2.427 . S
Gd11 O54 2.388 . S
Gd11 C75 2.805 . S
N12 C2 1.359 . S
N12 Gd11 2.570 . S
N12 C14 1.343 . S
C13 C1 1.420 1_556 S
C13 C15 1.320 1_556 S
C13 H21 0.934 . S
C14 N12 1.343 . S
C14 C15 1.390 . S
C14 H16 0.931 . S
C15 C13 1.320 1_554 S
C15 C14 1.390 . S
C15 H17 0.925 1_554 S
H16 C14 0.931 . S
H17 C15 0.925 1_556 S
H18 C41 0.931 . S
H19 C7 0.929 . S
H20 C42 0.930 . S
H21 C13 0.934 . S
H22 C3 0.930 1_556 S
H23 C32 0.929 . S
H24 C8 0.931 . S
H25 C9 0.930 . S
H26 C64 0.930 . S
H27 C5 0.929 . S
H28 C33 0.931 . S
H29 C34 0.930 . S
N30 Gd10 2.622 . S
N30 C31 1.368 1_556 S
N30 C32 1.338 . S
C31 N30 1.368 1_554 S
C31 C35 1.415 . S
C31 C38 1.422 . S
C32 H23 0.929 . S
C32 N30 1.338 . S
C32 C34 1.378 1_455 S
C33 H28 0.931 . S
C33 C34 1.348 1_554 S
C33 C35 1.413 1_655 S
C34 H29 0.930 . S
C34 C32 1.378 1_655 S
C34 C33 1.348 1_556 S
C35 C31 1.415 . S
C35 C33 1.413 1_455 S
C35 C65 1.437 1_455 S
H36 C65 0.929 . S
N37 Gd10 2.570 1_554 S
N37 C38 1.359 . S
N37 C41 1.343 . S
C38 C31 1.422 . S
C38 N37 1.359 . S
C38 C40 1.421 . S
C39 C40 1.422 . S
C39 C42 1.321 . S
C39 H66 0.931 . S
C40 C38 1.421 . S
C40 C39 1.422 . S
C40 C64 1.417 . S
C41 H18 0.931 . S
C41 N37 1.343 . S
C41 C42 1.390 . S
C42 H20 0.930 . S
C42 C39 1.321 . S
C42 C41 1.390 . S
O43 Gd11 2.386 1_556 S
O43 C55 1.265 . S
O44 Gd10 2.353 . S
O44 C55 1.242 . S
O45 Gd10 2.468 . S
O45 C63 1.263 . S
O46 Gd10 2.427 . S
O46 C63 1.252 . S
O47 Gd11 2.307 . S
O47 C56 1.261 . S
O48 Gd10 2.388 . S
O48 C56 1.252 1_556 S
O49 Gd10 2.386 1_554 S
O49 C67 1.265 . S
O50 Gd11 2.353 . S
O50 C67 1.242 . S
O51 Gd11 2.468 . S
O51 C75 1.263 . S
O52 Gd11 2.427 . S
O52 C75 1.252 . S
O53 Gd10 2.307 1_554 S
O53 C68 1.261 . S
O54 Gd11 2.388 . S
O54 C68 1.252 . S
C55 O43 1.265 . S
C55 O44 1.242 . S
C56 O47 1.261 . S
C56 O48 1.252 1_554 S
C57 C60 1.394 . S
C57 C62 1.370 . S
C57 C63 1.500 . S
C58 C61 1.383 . S
C58 C62 1.395 . S
C59 C60 1.396 . S
C59 C61 1.365 . S
C59 H76 0.929 . S
C60 C57 1.394 . S
C60 C59 1.396 . S
C60 H77 0.930 . S
C61 C58 1.383 . S
C61 C59 1.365 . S
C61 H78 0.931 . S
C62 C57 1.370 . S
C62 C58 1.395 . S
C62 H79 0.930 . S
C63 Gd10 2.805 . S
C63 O45 1.263 . S
C63 O46 1.252 . S
C63 C57 1.500 . S
C64 H26 0.930 . S
C64 C40 1.417 . S
C64 C65 1.329 1_455 S
C65 C35 1.437 1_655 S
C65 H36 0.929 . S
C65 C64 1.329 1_655 S
H66 C39 0.931 . S
C67 O49 1.265 . S
C67 O50 1.242 . S
C68 O53 1.261 . S
C68 O54 1.252 . S
C69 C72 1.394 . S
C69 C74 1.370 . S
C69 C75 1.500 . S
C70 C73 1.383 . S
C70 C74 1.395 . S
C71 C72 1.396 . S
C71 C73 1.365 . S
C71 H80 0.929 . S
C72 C69 1.394 . S
C72 C71 1.396 . S
C72 H81 0.930 . S
C73 C70 1.383 . S
C73 C71 1.365 . S
C73 H82 0.931 . S
C74 C69 1.370 . S
C74 C70 1.395 . S
C74 H83 0.930 . S
C75 Gd11 2.805 . S
C75 O51 1.263 . S
C75 O52 1.252 . S
C75 C69 1.500 . S
H76 C59 0.929 . S
H77 C60 0.930 . S
H78 C61 0.931 . S
H79 C62 0.930 . S
H80 C71 0.929 . S
H81 C72 0.930 . S
H82 C73 0.931 . S
H83 C74 0.930 . S
C84 C86 1.422 . S
C84 C88 1.415 . S
C84 N90 1.369 . S
C85 C86 1.421 . S
C85 C87 1.417 . S
C85 C97 1.422 . S
C86 C84 1.422 . S
C86 C85 1.421 . S
C86 N96 1.359 . S
C87 C85 1.417 . S
C87 C89 1.329 . S
C87 H106 0.930 . S
C88 C84 1.415 . S
C88 C89 1.437 . S
C88 C92 1.413 . S
C89 C87 1.329 . S
C89 C88 1.437 . S
C89 H111 0.929 . S
N90 C84 1.369 . S
N90 C91 1.338 . S
N90 Gd95 2.622 . S
C91 N90 1.338 . S
C91 C93 1.378 . S
C91 H103 0.929 . S
C92 C88 1.413 . S
C92 C93 1.348 . S
C92 H108 0.931 . S
C93 C91 1.378 . S
C93 C92 1.348 . S
C93 H109 0.930 . S
Gd94 N114 2.622 . S
Gd94 N121 2.570 . S
Gd94 O128 2.353 . S
Gd94 O129 2.468 . S
Gd94 O130 2.427 . S
Gd94 O132 2.388 . S
Gd94 O133 2.386 . S
Gd94 O137 2.307 . S
Gd94 C147 2.805 . S
Gd95 N90 2.622 . S
Gd95 N96 2.570 . S
Gd95 O127 2.386 . S
Gd95 O131 2.307 . S
Gd95 O134 2.353 . S
Gd95 O135 2.468 . S
Gd95 O136 2.427 . S
Gd95 O138 2.388 . S
Gd95 C159 2.805 . S
N96 C86 1.359 . S
N96 Gd95 2.570 . S
N96 C98 1.343 . S
C97 C85 1.422 . S
C97 C99 1.321 . S
C97 H105 0.931 . S
C98 N96 1.343 . S
C98 C99 1.390 . S
C98 H100 0.931 . S
C99 C97 1.321 . S
C99 C98 1.390 . S
C99 H101 0.930 . S
H100 C98 0.931 . S
H101 C99 0.930 . S
H102 C125 0.931 . S
H103 C91 0.929 . S
H104 C126 0.930 1_455 S
H105 C97 0.931 . S
H106 C87 0.930 . S
H107 C116 0.929 . S
H108 C92 0.931 . S
H109 C93 0.930 . S
H110 C148 0.930 . S
H111 C89 0.929 . S
H112 C117 0.931 . S
H113 C118 0.930 . S
N114 Gd94 2.622 . S
N114 C115 1.369 . S
N114 C116 1.338 . S
C115 N114 1.369 . S
C115 C119 1.415 . S
C115 C122 1.422 . S
C116 H107 0.929 . S
C116 N114 1.338 . S
C116 C118 1.378 1_545 S
C117 H112 0.931 . S
C117 C118 1.348 . S
C117 C119 1.413 1_565 S
C118 H113 0.930 . S
C118 C116 1.378 1_565 S
C118 C117 1.348 . S
C119 C115 1.415 . S
C119 C117 1.413 1_545 S
C119 C149 1.437 1_545 S
H120 C149 0.929 . S
N121 Gd94 2.570 . S
N121 C122 1.359 . S
N121 C125 1.343 . S
C122 C115 1.422 . S
C122 N121 1.359 . S
C122 C124 1.421 . S
C123 C124 1.422 . S
C123 C126 1.321 . S
C123 H150 0.931 1_655 S
C124 C122 1.421 . S
C124 C123 1.422 . S
C124 C148 1.417 . S
C125 H102 0.931 . S
C125 N121 1.343 . S
C125 C126 1.390 . S
C126 H104 0.930 1_655 S
C126 C123 1.321 . S
C126 C125 1.390 . S
O127 Gd95 2.386 . S
O127 C139 1.265 . S
O128 Gd94 2.353 . S
O128 C139 1.242 . S
O129 Gd94 2.468 . S
O129 C147 1.263 . S
O130 Gd94 2.427 . S
O130 C147 1.252 . S
O131 Gd95 2.307 . S
O131 C140 1.261 . S
O132 Gd94 2.388 . S
O132 C140 1.252 . S
O133 Gd94 2.386 . S
O133 C151 1.265 . S
O134 Gd95 2.353 . S
O134 C151 1.242 . S
O135 Gd95 2.468 . S
O135 C159 1.263 . S
O136 Gd95 2.427 . S
O136 C159 1.252 . S
O137 Gd94 2.307 . S
O137 C152 1.261 . S
O138 Gd95 2.388 . S
O138 C152 1.252 . S
C139 O127 1.265 . S
C139 O128 1.242 . S
C140 O131 1.261 . S
C140 O132 1.252 . S
C141 C144 1.394 . S
C141 C146 1.370 . S
C141 C147 1.500 . S
C142 C145 1.383 . S
C142 C146 1.395 . S
C143 C144 1.396 . S
C143 C145 1.365 . S
C143 H160 0.929 . S
C144 C141 1.394 . S
C144 C143 1.396 . S
C144 H161 0.930 . S
C145 C142 1.383 . S
C145 C143 1.365 . S
C145 H162 0.931 . S
C146 C141 1.370 . S
C146 C142 1.395 . S
C146 H163 0.930 . S
C147 Gd94 2.805 . S
C147 O129 1.263 . S
C147 O130 1.252 . S
C147 C141 1.500 . S
C148 H110 0.930 . S
C148 C124 1.417 . S
C148 C149 1.329 1_545 S
C149 C119 1.437 1_565 S
C149 H120 0.929 . S
C149 C148 1.329 1_565 S
H150 C123 0.931 1_455 S
C151 O133 1.265 . S
C151 O134 1.242 . S
C152 O137 1.261 . S
C152 O138 1.252 . S
C153 C156 1.394 . S
C153 C158 1.370 . S
C153 C159 1.500 . S
C154 C157 1.383 . S
C154 C158 1.395 . S
C155 C156 1.396 . S
C155 C157 1.365 . S
C155 H164 0.929 . S
C156 C153 1.394 . S
C156 C155 1.396 . S
C156 H165 0.930 . S
C157 C154 1.383 . S
C157 C155 1.365 . S
C157 H166 0.931 . S
C158 C153 1.370 . S
C158 C154 1.395 . S
C158 H167 0.930 . S
C159 Gd95 2.805 . S
C159 O135 1.263 . S
C159 O136 1.252 . S
C159 C153 1.500 . S
H160 C143 0.929 . S
H161 C144 0.930 . S
H162 C145 0.931 . S
H163 C146 0.930 . S
H164 C155 0.929 . S
H165 C156 0.930 . S
H166 C157 0.931 . S
H167 C158 0.930 . S
C168 C170 1.422 . S
C168 C172 1.415 . S
C168 N174 1.369 . S
C169 C170 1.421 . S
C169 C171 1.417 . S
C169 C181 1.422 . S
C170 C168 1.422 . S
C170 C169 1.421 . S
C170 N180 1.359 . S
C171 C169 1.417 . S
C171 C173 1.329 . S
C171 H190 0.930 . S
C172 C168 1.415 . S
C172 C173 1.437 . S
C172 C176 1.413 . S
C173 C171 1.329 . S
C173 C172 1.437 . S
C173 H195 0.929 . S
N174 C168 1.369 . S
N174 C175 1.338 . S
N174 Gd179 2.622 . S
C175 N174 1.338 . S
C175 C177 1.378 . S
C175 H187 0.929 . S
C176 C172 1.413 . S
C176 C177 1.348 . S
C176 H192 0.931 . S
C177 C175 1.378 . S
C177 C176 1.348 . S
C177 H193 0.930 . S
Gd178 N198 2.622 . S
Gd178 N205 2.570 . S
Gd178 O212 2.353 . S
Gd178 O213 2.468 . S
Gd178 O214 2.427 . S
Gd178 O216 2.388 . S
Gd178 O217 2.386 . S
Gd178 O221 2.307 . S
Gd178 C231 2.805 . S
Gd179 N174 2.622 . S
Gd179 N180 2.570 . S
Gd179 O211 2.386 . S
Gd179 O215 2.307 . S
Gd179 O218 2.353 . S
Gd179 O219 2.468 . S
Gd179 O220 2.427 . S
Gd179 O222 2.388 . S
Gd179 C243 2.805 . S
N180 C170 1.359 . S
N180 Gd179 2.570 . S
N180 C182 1.343 . S
C181 C169 1.422 . S
C181 C183 1.321 . S
C181 H189 0.931 . S
C182 N180 1.343 . S
C182 C183 1.390 . S
C182 H184 0.931 . S
C183 C181 1.321 . S
C183 C182 1.390 . S
C183 H185 0.930 . S
H184 C182 0.931 . S
H185 C183 0.930 . S
H186 C209 0.931 . S
H187 C175 0.929 . S
H188 C210 0.930 1_545 S
H189 C181 0.931 . S
H190 C171 0.930 . S
H191 C200 0.929 . S
H192 C176 0.931 . S
H193 C177 0.930 . S
H194 C232 0.930 . S
H195 C173 0.929 . S
H196 C201 0.931 . S
H197 C202 0.930 . S
N198 Gd178 2.622 . S
N198 C199 1.369 . S
N198 C200 1.338 . S
C199 N198 1.369 . S
C199 C203 1.415 . S
C199 C206 1.422 . S
C200 H191 0.929 . S
C200 N198 1.338 . S
C200 C202 1.378 . S
C201 H196 0.931 . S
C201 C202 1.348 . S
C201 C203 1.413 . S
C202 H197 0.930 . S
C202 C200 1.378 . S
C202 C201 1.348 . S
C203 C199 1.415 . S
C203 C201 1.413 . S
C203 C233 1.437 . S
H204 C233 0.929 . S
N205 Gd178 2.570 . S
N205 C206 1.359 . S
N205 C209 1.343 . S
C206 C199 1.422 . S
C206 N205 1.359 . S
C206 C208 1.421 . S
C207 C208 1.422 . S
C207 C210 1.321 . S
C207 H234 0.931 1_565 S
C208 C206 1.421 . S
C208 C207 1.422 . S
C208 C232 1.417 . S
C209 H186 0.931 . S
C209 N205 1.343 . S
C209 C210 1.390 . S
C210 H188 0.930 1_565 S
C210 C207 1.321 . S
C210 C209 1.390 . S
O211 Gd179 2.386 . S
O211 C223 1.265 . S
O212 Gd178 2.353 . S
O212 C223 1.242 . S
O213 Gd178 2.468 . S
O213 C231 1.263 . S
O214 Gd178 2.427 . S
O214 C231 1.252 . S
O215 Gd179 2.307 . S
O215 C224 1.261 . S
O216 Gd178 2.388 . S
O216 C224 1.252 . S
O217 Gd178 2.386 . S
O217 C235 1.265 . S
O218 Gd179 2.353 . S
O218 C235 1.242 . S
O219 Gd179 2.468 . S
O219 C243 1.263 . S
O220 Gd179 2.427 . S
O220 C243 1.252 . S
O221 Gd178 2.307 . S
O221 C236 1.261 . S
O222 Gd179 2.388 . S
O222 C236 1.252 . S
C223 O211 1.265 . S
C223 O212 1.242 . S
C224 O215 1.261 . S
C224 O216 1.252 . S
C225 C228 1.394 . S
C225 C230 1.370 . S
C225 C231 1.500 . S
C226 C229 1.383 . S
C226 C230 1.395 . S
C227 C228 1.396 . S
C227 C229 1.365 . S
C227 H244 0.929 . S
C228 C225 1.394 . S
C228 C227 1.396 . S
C228 H245 0.930 . S
C229 C226 1.383 . S
C229 C227 1.365 . S
C229 H246 0.931 . S
C230 C225 1.370 . S
C230 C226 1.395 . S
C230 H247 0.930 . S
C231 Gd178 2.805 . S
C231 O213 1.263 . S
C231 O214 1.252 . S
C231 C225 1.500 . S
C232 H194 0.930 . S
C232 C208 1.417 . S
C232 C233 1.329 . S
C233 C203 1.437 . S
C233 H204 0.929 . S
C233 C232 1.329 . S
H234 C207 0.931 1_545 S
C235 O217 1.265 . S
C235 O218 1.242 . S
C236 O221 1.261 . S
C236 O222 1.252 . S
C237 C240 1.394 . S
C237 C242 1.370 . S
C237 C243 1.500 . S
C238 C241 1.383 . S
C238 C242 1.395 . S
C239 C240 1.396 . S
C239 C241 1.365 . S
C239 H248 0.929 . S
C240 C237 1.394 . S
C240 C239 1.396 . S
C240 H249 0.930 . S
C241 C238 1.383 . S
C241 C239 1.365 . S
C241 H250 0.931 . S
C242 C237 1.370 . S
C242 C238 1.395 . S
C242 H251 0.930 . S
C243 Gd179 2.805 . S
C243 O219 1.263 . S
C243 O220 1.252 . S
C243 C237 1.500 . S
H244 C227 0.929 . S
H245 C228 0.930 . S
H246 C229 0.931 . S
H247 C230 0.930 . S
H248 C239 0.929 . S
H249 C240 0.930 . S
H250 C241 0.931 . S
H251 C242 0.930 . S
C252 C254 1.422 . S
C252 C256 1.415 . S
C252 N258 1.369 . S
C253 C254 1.421 . S
C253 C255 1.417 . S
C253 C265 1.420 1_554 S
C254 C252 1.422 . S
C254 C253 1.421 . S
C254 N264 1.359 . S
C255 C253 1.417 . S
C255 C257 1.329 . S
C255 H274 0.930 1_554 S
C256 C252 1.415 . S
C256 C257 1.437 . S
C256 C260 1.413 . S
C257 C255 1.329 . S
C257 C256 1.437 . S
C257 H279 0.929 . S
N258 C252 1.369 . S
N258 C259 1.338 . S
N258 Gd263 2.622 . S
C259 N258 1.338 . S
C259 C261 1.378 . S
C259 H271 0.929 . S
C260 C256 1.413 . S
C260 C261 1.348 . S
C260 H276 0.931 . S
C261 C259 1.378 . S
C261 C260 1.348 . S
C261 H277 0.930 . S
Gd262 N282 2.622 . S
Gd262 N289 2.570 1_556 S
Gd262 O296 2.353 . S
Gd262 O297 2.468 . S
Gd262 O298 2.427 . S
Gd262 O300 2.388 . S
Gd262 O301 2.386 1_556 S
Gd262 O305 2.307 1_556 S
Gd262 C315 2.805 . S
Gd263 N258 2.622 . S
Gd263 N264 2.570 . S
Gd263 O295 2.386 1_554 S
Gd263 O299 2.307 . S
Gd263 O302 2.353 . S
Gd263 O303 2.468 . S
Gd263 O304 2.427 . S
Gd263 O306 2.388 . S
Gd263 C327 2.805 . S
N264 C254 1.359 . S
N264 Gd263 2.570 . S
N264 C266 1.343 . S
C265 C253 1.420 1_556 S
C265 C267 1.320 1_556 S
C265 H273 0.934 . S
C266 N264 1.343 . S
C266 C267 1.390 . S
C266 H268 0.931 . S
C267 C265 1.320 1_554 S
C267 C266 1.390 . S
C267 H269 0.925 1_554 S
H268 C266 0.931 . S
H269 C267 0.925 1_556 S
H270 C293 0.931 . S
H271 C259 0.929 . S
H272 C294 0.930 . S
H273 C265 0.934 . S
H274 C255 0.930 1_556 S
H275 C284 0.929 . S
H276 C260 0.931 . S
H277 C261 0.930 . S
H278 C316 0.930 . S
H279 C257 0.929 . S
H280 C285 0.931 . S
H281 C286 0.930 . S
N282 Gd262 2.622 . S
N282 C283 1.368 1_556 S
N282 C284 1.338 . S
C283 N282 1.368 1_554 S
C283 C287 1.415 . S
C283 C290 1.422 . S
C284 H275 0.929 . S
C284 N282 1.338 . S
C284 C286 1.378 1_655 S
C285 H280 0.931 . S
C285 C286 1.348 1_554 S
C285 C287 1.413 1_455 S
C286 H281 0.930 . S
C286 C284 1.378 1_455 S
C286 C285 1.348 1_556 S
C287 C283 1.415 . S
C287 C285 1.413 1_655 S
C287 C317 1.437 1_655 S
H288 C317 0.929 . S
N289 Gd262 2.570 1_554 S
N289 C290 1.359 . S
N289 C293 1.343 . S
C290 C283 1.422 . S
C290 N289 1.359 . S
C290 C292 1.421 . S
C291 C292 1.422 . S
C291 C294 1.321 . S
C291 H318 0.931 . S
C292 C290 1.421 . S
C292 C291 1.422 . S
C292 C316 1.417 . S
C293 H270 0.931 . S
C293 N289 1.343 . S
C293 C294 1.390 . S
C294 H272 0.930 . S
C294 C291 1.321 . S
C294 C293 1.390 . S
O295 Gd263 2.386 1_556 S
O295 C307 1.265 . S
O296 Gd262 2.353 . S
O296 C307 1.242 . S
O297 Gd262 2.468 . S
O297 C315 1.263 . S
O298 Gd262 2.427 . S
O298 C315 1.252 . S
O299 Gd263 2.307 . S
O299 C308 1.261 . S
O300 Gd262 2.388 . S
O300 C308 1.252 1_556 S
O301 Gd262 2.386 1_554 S
O301 C319 1.265 . S
O302 Gd263 2.353 . S
O302 C319 1.242 . S
O303 Gd263 2.468 . S
O303 C327 1.263 . S
O304 Gd263 2.427 . S
O304 C327 1.252 . S
O305 Gd262 2.307 1_554 S
O305 C320 1.261 . S
O306 Gd263 2.388 . S
O306 C320 1.252 . S
C307 O295 1.265 . S
C307 O296 1.242 . S
C308 O299 1.261 . S
C308 O300 1.252 1_554 S
C309 C312 1.394 . S
C309 C314 1.370 . S
C309 C315 1.500 . S
C310 C313 1.383 . S
C310 C314 1.395 . S
C311 C312 1.396 . S
C311 C313 1.365 . S
C311 H328 0.929 . S
C312 C309 1.394 . S
C312 C311 1.396 . S
C312 H329 0.930 . S
C313 C310 1.383 . S
C313 C311 1.365 . S
C313 H330 0.931 . S
C314 C309 1.370 . S
C314 C310 1.395 . S
C314 H331 0.930 . S
C315 Gd262 2.805 . S
C315 O297 1.263 . S
C315 O298 1.252 . S
C315 C309 1.500 . S
C316 H278 0.930 . S
C316 C292 1.417 . S
C316 C317 1.329 1_655 S
C317 C287 1.437 1_455 S
C317 H288 0.929 . S
C317 C316 1.329 1_455 S
H318 C291 0.931 . S
C319 O301 1.265 . S
C319 O302 1.242 . S
C320 O305 1.261 . S
C320 O306 1.252 . S
C321 C324 1.394 . S
C321 C326 1.370 . S
C321 C327 1.500 . S
C322 C325 1.383 . S
C322 C326 1.395 . S
C323 C324 1.396 . S
C323 C325 1.365 . S
C323 H332 0.929 . S
C324 C321 1.394 . S
C324 C323 1.396 . S
C324 H333 0.930 . S
C325 C322 1.383 . S
C325 C323 1.365 . S
C325 H334 0.931 . S
C326 C321 1.370 . S
C326 C322 1.395 . S
C326 H335 0.930 . S
C327 Gd263 2.805 . S
C327 O303 1.263 . S
C327 O304 1.252 . S
C327 C321 1.500 . S
H328 C311 0.929 . S
H329 C312 0.930 . S
H330 C313 0.931 . S
H331 C314 0.930 . S
H332 C323 0.929 . S
H333 C324 0.930 . S
H334 C325 0.931 . S
H335 C326 0.930 . S
C336 C338 1.422 . S
C336 C340 1.415 . S
C336 N342 1.369 . S
C337 C338 1.421 . S
C337 C339 1.417 . S
C337 C349 1.422 . S
C338 C336 1.422 . S
C338 C337 1.421 . S
C338 N348 1.359 . S
C339 C337 1.417 . S
C339 C341 1.329 . S
C339 H358 0.930 . S
C340 C336 1.415 . S
C340 C341 1.437 . S
C340 C344 1.413 . S
C341 C339 1.329 . S
C341 C340 1.437 . S
C341 H363 0.929 . S
N342 C336 1.369 . S
N342 C343 1.338 . S
N342 Gd347 2.622 . S
C343 N342 1.338 . S
C343 C345 1.378 . S
C343 H355 0.929 . S
C344 C340 1.413 . S
C344 C345 1.348 . S
C344 H360 0.931 . S
C345 C343 1.378 . S
C345 C344 1.348 . S
C345 H361 0.930 . S
Gd346 N366 2.622 . S
Gd346 N373 2.570 . S
Gd346 O380 2.353 . S
Gd346 O381 2.468 . S
Gd346 O382 2.427 . S
Gd346 O384 2.388 . S
Gd346 O385 2.386 . S
Gd346 O389 2.307 . S
Gd346 C399 2.805 . S
Gd347 N342 2.622 . S
Gd347 N348 2.570 . S
Gd347 O379 2.386 . S
Gd347 O383 2.307 . S
Gd347 O386 2.353 . S
Gd347 O387 2.468 . S
Gd347 O388 2.427 . S
Gd347 O390 2.388 . S
Gd347 C411 2.805 . S
N348 C338 1.359 . S
N348 Gd347 2.570 . S
N348 C350 1.343 . S
C349 C337 1.422 . S
C349 C351 1.321 . S
C349 H357 0.931 . S
C350 N348 1.343 . S
C350 C351 1.390 . S
C350 H352 0.931 . S
C351 C349 1.321 . S
C351 C350 1.390 . S
C351 H353 0.930 . S
H352 C350 0.931 . S
H353 C351 0.930 . S
H354 C377 0.931 . S
H355 C343 0.929 . S
H356 C378 0.930 1_655 S
H357 C349 0.931 . S
H358 C339 0.930 . S
H359 C368 0.929 . S
H360 C344 0.931 . S
H361 C345 0.930 . S
H362 C400 0.930 . S
H363 C341 0.929 . S
H364 C369 0.931 . S
H365 C370 0.930 . S
N366 Gd346 2.622 . S
N366 C367 1.369 . S
N366 C368 1.338 . S
C367 N366 1.369 . S
C367 C371 1.415 . S
C367 C374 1.422 . S
C368 H359 0.929 . S
C368 N366 1.338 . S
C368 C370 1.378 1_565 S
C369 H364 0.931 . S
C369 C370 1.348 . S
C369 C371 1.413 1_545 S
C370 H365 0.930 . S
C370 C368 1.378 1_545 S
C370 C369 1.348 . S
C371 C367 1.415 . S
C371 C369 1.413 1_565 S
C371 C401 1.437 1_565 S
H372 C401 0.929 . S
N373 Gd346 2.570 . S
N373 C374 1.359 . S
N373 C377 1.343 . S
C374 C367 1.422 . S
C374 N373 1.359 . S
C374 C376 1.421 . S
C375 C376 1.422 . S
C375 C378 1.321 . S
C375 H402 0.931 1_455 S
C376 C374 1.421 . S
C376 C375 1.422 . S
C376 C400 1.417 . S
C377 H354 0.931 . S
C377 N373 1.343 . S
C377 C378 1.390 . S
C378 H356 0.930 1_455 S
C378 C375 1.321 . S
C378 C377 1.390 . S
O379 Gd347 2.386 . S
O379 C391 1.265 . S
O380 Gd346 2.353 . S
O380 C391 1.242 . S
O381 Gd346 2.468 . S
O381 C399 1.263 . S
O382 Gd346 2.427 . S
O382 C399 1.252 . S
O383 Gd347 2.307 . S
O383 C392 1.261 . S
O384 Gd346 2.388 . S
O384 C392 1.252 . S
O385 Gd346 2.386 . S
O385 C403 1.265 . S
O386 Gd347 2.353 . S
O386 C403 1.242 . S
O387 Gd347 2.468 . S
O387 C411 1.263 . S
O388 Gd347 2.427 . S
O388 C411 1.252 . S
O389 Gd346 2.307 . S
O389 C404 1.261 . S
O390 Gd347 2.388 . S
O390 C404 1.252 . S
C391 O379 1.265 . S
C391 O380 1.242 . S
C392 O383 1.261 . S
C392 O384 1.252 . S
C393 C396 1.394 . S
C393 C398 1.370 . S
C393 C399 1.500 . S
C394 C397 1.383 . S
C394 C398 1.395 . S
C395 C396 1.396 . S
C395 C397 1.365 . S
C395 H412 0.929 . S
C396 C393 1.394 . S
C396 C395 1.396 . S
C396 H413 0.930 . S
C397 C394 1.383 . S
C397 C395 1.365 . S
C397 H414 0.931 . S
C398 C393 1.370 . S
C398 C394 1.395 . S
C398 H415 0.930 . S
C399 Gd346 2.805 . S
C399 O381 1.263 . S
C399 O382 1.252 . S
C399 C393 1.500 . S
C400 H362 0.930 . S
C400 C376 1.417 . S
C400 C401 1.329 1_565 S
C401 C371 1.437 1_545 S
C401 H372 0.929 . S
C401 C400 1.329 1_545 S
H402 C375 0.931 1_655 S
C403 O385 1.265 . S
C403 O386 1.242 . S
C404 O389 1.261 . S
C404 O390 1.252 . S
C405 C408 1.394 . S
C405 C410 1.370 . S
C405 C411 1.500 . S
C406 C409 1.383 . S
C406 C410 1.395 . S
C407 C408 1.396 . S
C407 C409 1.365 . S
C407 H416 0.929 . S
C408 C405 1.394 . S
C408 C407 1.396 . S
C408 H417 0.930 . S
C409 C406 1.383 . S
C409 C407 1.365 . S
C409 H418 0.931 . S
C410 C405 1.370 . S
C410 C406 1.395 . S
C410 H419 0.930 . S
C411 Gd347 2.805 . S
C411 O387 1.263 . S
C411 O388 1.252 . S
C411 C405 1.500 . S
H412 C395 0.929 . S
H413 C396 0.930 . S
H414 C397 0.931 . S
H415 C398 0.930 . S
H416 C407 0.929 . S
H417 C408 0.930 . S
H418 C409 0.931 . S
H419 C410 0.930 . S
C420 C422 1.422 . S
C420 C424 1.415 . S
C420 N426 1.369 . S
C421 C422 1.421 . S
C421 C423 1.417 . S
C421 C433 1.422 . S
C422 C420 1.422 . S
C422 C421 1.421 . S
C422 N432 1.359 . S
C423 C421 1.417 . S
C423 C425 1.329 . S
C423 H442 0.930 . S
C424 C420 1.415 . S
C424 C425 1.437 . S
C424 C428 1.413 . S
C425 C423 1.329 . S
C425 C424 1.437 . S
C425 H447 0.929 . S
N426 C420 1.369 . S
N426 C427 1.338 . S
N426 Gd431 2.622 . S
C427 N426 1.338 . S
C427 C429 1.378 . S
C427 H439 0.929 . S
C428 C424 1.413 . S
C428 C429 1.348 . S
C428 H444 0.931 . S
C429 C427 1.378 . S
C429 C428 1.348 . S
C429 H445 0.930 . S
Gd430 N450 2.622 . S
Gd430 N457 2.570 . S
Gd430 O464 2.353 . S
Gd430 O465 2.468 . S
Gd430 O466 2.427 . S
Gd430 O468 2.388 . S
Gd430 O469 2.386 . S
Gd430 O473 2.307 . S
Gd430 C483 2.805 . S
Gd431 N426 2.622 . S
Gd431 N432 2.570 . S
Gd431 O463 2.386 . S
Gd431 O467 2.307 . S
Gd431 O470 2.353 . S
Gd431 O471 2.468 . S
Gd431 O472 2.427 . S
Gd431 O474 2.388 . S
Gd431 C495 2.805 . S
N432 C422 1.359 . S
N432 Gd431 2.570 . S
N432 C434 1.343 . S
C433 C421 1.422 . S
C433 C435 1.321 . S
C433 H441 0.931 . S
C434 N432 1.343 . S
C434 C435 1.390 . S
C434 H436 0.931 . S
C435 C433 1.321 . S
C435 C434 1.390 . S
C435 H437 0.930 . S
H436 C434 0.931 . S
H437 C435 0.930 . S
H438 C461 0.931 . S
H439 C427 0.929 . S
H440 C462 0.930 1_565 S
H441 C433 0.931 . S
H442 C423 0.930 . S
H443 C452 0.929 . S
H444 C428 0.931 . S
H445 C429 0.930 . S
H446 C484 0.930 . S
H447 C425 0.929 . S
H448 C453 0.931 . S
H449 C454 0.930 . S
N450 Gd430 2.622 . S
N450 C451 1.369 . S
N450 C452 1.338 . S
C451 N450 1.369 . S
C451 C455 1.415 . S
C451 C458 1.422 . S
C452 H443 0.929 . S
C452 N450 1.338 . S
C452 C454 1.378 . S
C453 H448 0.931 . S
C453 C454 1.348 . S
C453 C455 1.413 . S
C454 H449 0.930 . S
C454 C452 1.378 . S
C454 C453 1.348 . S
C455 C451 1.415 . S
C455 C453 1.413 . S
C455 C485 1.437 . S
H456 C485 0.929 . S
N457 Gd430 2.570 . S
N457 C458 1.359 . S
N457 C461 1.343 . S
C458 C451 1.422 . S
C458 N457 1.359 . S
C458 C460 1.421 . S
C459 C460 1.422 . S
C459 C462 1.321 . S
C459 H486 0.931 1_545 S
C460 C458 1.421 . S
C460 C459 1.422 . S
C460 C484 1.417 . S
C461 H438 0.931 . S
C461 N457 1.343 . S
C461 C462 1.390 . S
C462 H440 0.930 1_545 S
C462 C459 1.321 . S
C462 C461 1.390 . S
O463 Gd431 2.386 . S
O463 C475 1.265 . S
O464 Gd430 2.353 . S
O464 C475 1.242 . S
O465 Gd430 2.468 . S
O465 C483 1.263 . S
O466 Gd430 2.427 . S
O466 C483 1.252 . S
O467 Gd431 2.307 . S
O467 C476 1.261 . S
O468 Gd430 2.388 . S
O468 C476 1.252 . S
O469 Gd430 2.386 . S
O469 C487 1.265 . S
O470 Gd431 2.353 . S
O470 C487 1.242 . S
O471 Gd431 2.468 . S
O471 C495 1.263 . S
O472 Gd431 2.427 . S
O472 C495 1.252 . S
O473 Gd430 2.307 . S
O473 C488 1.261 . S
O474 Gd431 2.388 . S
O474 C488 1.252 . S
C475 O463 1.265 . S
C475 O464 1.242 . S
C476 O467 1.261 . S
C476 O468 1.252 . S
C477 C480 1.394 . S
C477 C482 1.370 . S
C477 C483 1.500 . S
C478 C481 1.383 . S
C478 C482 1.395 . S
C479 C480 1.396 . S
C479 C481 1.365 . S
C479 H496 0.929 . S
C480 C477 1.394 . S
C480 C479 1.396 . S
C480 H497 0.930 . S
C481 C478 1.383 . S
C481 C479 1.365 . S
C481 H498 0.931 . S
C482 C477 1.370 . S
C482 C478 1.395 . S
C482 H499 0.930 . S
C483 Gd430 2.805 . S
C483 O465 1.263 . S
C483 O466 1.252 . S
C483 C477 1.500 . S
C484 H446 0.930 . S
C484 C460 1.417 . S
C484 C485 1.329 . S
C485 C455 1.437 . S
C485 H456 0.929 . S
C485 C484 1.329 . S
H486 C459 0.931 1_565 S
C487 O469 1.265 . S
C487 O470 1.242 . S
C488 O473 1.261 . S
C488 O474 1.252 . S
C489 C492 1.394 . S
C489 C494 1.370 . S
C489 C495 1.500 . S
C490 C493 1.383 . S
C490 C494 1.395 . S
C491 C492 1.396 . S
C491 C493 1.365 . S
C491 H500 0.929 . S
C492 C489 1.394 . S
C492 C491 1.396 . S
C492 H501 0.930 . S
C493 C490 1.383 . S
C493 C491 1.365 . S
C493 H502 0.931 . S
C494 C489 1.370 . S
C494 C490 1.395 . S
C494 H503 0.930 . S
C495 Gd431 2.805 . S
C495 O471 1.263 . S
C495 O472 1.252 . S
C495 C489 1.500 . S
H496 C479 0.929 . S
H497 C480 0.930 . S
H498 C481 0.931 . S
H499 C482 0.930 . S
H500 C491 0.929 . S
H501 C492 0.930 . S
H502 C493 0.931 . S
H503 C494 0.930 . S
C504 C505 1.391 . S
C504 C506 1.394 . S
C504 H520 0.931 . S
C505 C504 1.391 . S
C505 C509 1.376 . S
C506 C504 1.394 . S
C506 C507 1.369 . S
C506 C510 1.531 . S
C507 C506 1.369 . S
C507 C508 1.410 . S
C507 C515 1.503 . S
C508 C507 1.410 . S
C508 C509 1.392 . S
C508 C511 1.511 . S
C509 C505 1.376 . S
C509 C508 1.392 . S
C509 H521 0.929 . S
C510 C506 1.531 . S
C510 H522 0.960 . S
C510 H523 0.962 . S
C510 H524 0.960 . S
C511 C508 1.511 . S
C511 H525 0.961 . S
C511 H526 0.961 . S
C511 H527 0.961 . S
C512 C513 1.370 . S
C512 C514 1.363 . S
C512 H528 0.931 . S
C513 C512 1.370 . S
C513 C517 1.408 . S
C514 C512 1.363 . S
C514 C515 1.370 . S
C514 C518 1.524 . S
C515 C507 1.503 . S
C515 C514 1.370 . S
C515 C516 1.403 . S
C516 C515 1.403 . S
C516 C517 1.404 . S
C516 C519 1.539 . S
C517 C513 1.408 . S
C517 C516 1.404 . S
C517 H529 0.930 . S
C518 C514 1.524 . S
C518 H530 0.956 . S
C518 H531 0.961 . S
C518 H532 0.961 . S
C519 C516 1.539 . S
C519 H533 0.958 . S
C519 H534 0.961 . S
C519 H535 0.960 . S
H520 C504 0.931 . S
H521 C509 0.929 . S
H522 C510 0.960 . S
H523 C510 0.962 . S
H524 C510 0.960 . S
H525 C511 0.961 . S
H526 C511 0.961 . S
H527 C511 0.961 . S
H528 C512 0.931 . S
H529 C517 0.930 . S
H530 C518 0.956 . S
H531 C518 0.961 . S
H532 C518 0.961 . S
H533 C519 0.958 . S
H534 C519 0.961 . S
H535 C519 0.960 . S
C536 C537 1.391 . S
C536 C538 1.394 . S
C536 H552 0.931 . S
C537 C536 1.391 . S
C537 C541 1.376 . S
C538 C536 1.394 . S
C538 C539 1.369 . S
C538 C542 1.531 . S
C539 C538 1.369 . S
C539 C540 1.410 . S
C539 C547 1.503 . S
C540 C539 1.410 . S
C540 C541 1.392 . S
C540 C543 1.511 . S
C541 C537 1.376 . S
C541 C540 1.392 . S
C541 H553 0.929 . S
C542 C538 1.531 . S
C542 H554 0.960 . S
C542 H555 0.962 . S
C542 H556 0.960 . S
C543 C540 1.511 . S
C543 H557 0.961 . S
C543 H558 0.961 . S
C543 H559 0.961 . S
C544 C545 1.370 . S
C544 C546 1.363 . S
C544 H560 0.931 . S
C545 C544 1.370 . S
C545 C549 1.408 . S
C546 C544 1.363 . S
C546 C547 1.370 . S
C546 C550 1.524 . S
C547 C539 1.503 . S
C547 C546 1.370 . S
C547 C548 1.403 . S
C548 C547 1.403 . S
C548 C549 1.404 . S
C548 C551 1.539 . S
C549 C545 1.408 . S
C549 C548 1.404 . S
C549 H561 0.930 . S
C550 C546 1.524 . S
C550 H562 0.956 . S
C550 H563 0.961 . S
C550 H564 0.961 . S
C551 C548 1.539 . S
C551 H565 0.958 . S
C551 H566 0.961 . S
C551 H567 0.960 . S
H552 C536 0.931 . S
H553 C541 0.929 . S
H554 C542 0.960 . S
H555 C542 0.962 . S
H556 C542 0.960 . S
H557 C543 0.961 . S
H558 C543 0.961 . S
H559 C543 0.961 . S
H560 C544 0.931 . S
H561 C549 0.930 . S
H562 C550 0.956 . S
H563 C550 0.961 . S
H564 C550 0.961 . S
H565 C551 0.958 . S
H566 C551 0.961 . S
H567 C551 0.960 . S
C568 C569 1.391 . S
C568 C570 1.394 . S
C568 H584 0.931 . S
C569 C568 1.391 . S
C569 C573 1.376 . S
C570 C568 1.394 . S
C570 C571 1.369 . S
C570 C574 1.531 . S
C571 C570 1.369 . S
C571 C572 1.410 . S
C571 C579 1.503 . S
C572 C571 1.410 . S
C572 C573 1.392 . S
C572 C575 1.511 . S
C573 C569 1.376 . S
C573 C572 1.392 . S
C573 H585 0.929 . S
C574 C570 1.531 . S
C574 H586 0.960 . S
C574 H587 0.962 . S
C574 H588 0.960 . S
C575 C572 1.511 . S
C575 H589 0.961 . S
C575 H590 0.961 . S
C575 H591 0.961 . S
C576 C577 1.370 . S
C576 C578 1.363 . S
C576 H592 0.931 . S
C577 C576 1.370 . S
C577 C581 1.408 . S
C578 C576 1.363 . S
C578 C579 1.370 . S
C578 C582 1.524 . S
C579 C571 1.503 . S
C579 C578 1.370 . S
C579 C580 1.403 . S
C580 C579 1.403 . S
C580 C581 1.404 . S
C580 C583 1.539 . S
C581 C577 1.408 . S
C581 C580 1.404 . S
C581 H593 0.930 . S
C582 C578 1.524 . S
C582 H594 0.956 . S
C582 H595 0.961 . S
C582 H596 0.961 . S
C583 C580 1.539 . S
C583 H597 0.958 . S
C583 H598 0.961 . S
C583 H599 0.960 . S
H584 C568 0.931 . S
H585 C573 0.929 . S
H586 C574 0.960 . S
H587 C574 0.962 . S
H588 C574 0.960 . S
H589 C575 0.961 . S
H590 C575 0.961 . S
H591 C575 0.961 . S
H592 C576 0.931 . S
H593 C581 0.930 . S
H594 C582 0.956 . S
H595 C582 0.961 . S
H596 C582 0.961 . S
H597 C583 0.958 . S
H598 C583 0.961 . S
H599 C583 0.960 . S
C600 C601 1.391 . S
C600 C602 1.394 . S
C600 H616 0.931 . S
C601 C600 1.391 . S
C601 C605 1.376 . S
C602 C600 1.394 . S
C602 C603 1.369 . S
C602 C606 1.531 . S
C603 C602 1.369 . S
C603 C604 1.410 . S
C603 C611 1.503 . S
C604 C603 1.410 . S
C604 C605 1.392 . S
C604 C607 1.511 . S
C605 C601 1.376 . S
C605 C604 1.392 . S
C605 H617 0.929 . S
C606 C602 1.531 . S
C606 H618 0.960 . S
C606 H619 0.962 . S
C606 H620 0.960 . S
C607 C604 1.511 . S
C607 H621 0.961 . S
C607 H622 0.961 . S
C607 H623 0.961 . S
C608 C609 1.370 . S
C608 C610 1.363 . S
C608 H624 0.931 . S
C609 C608 1.370 . S
C609 C613 1.408 . S
C610 C608 1.363 . S
C610 C611 1.370 . S
C610 C614 1.524 . S
C611 C603 1.503 . S
C611 C610 1.370 . S
C611 C612 1.403 . S
C612 C611 1.403 . S
C612 C613 1.404 . S
C612 C615 1.539 . S
C613 C609 1.408 . S
C613 C612 1.404 . S
C613 H625 0.930 . S
C614 C610 1.524 . S
C614 H626 0.956 . S
C614 H627 0.961 . S
C614 H628 0.961 . S
C615 C612 1.539 . S
C615 H629 0.958 . S
C615 H630 0.961 . S
C615 H631 0.960 . S
H616 C600 0.931 . S
H617 C605 0.929 . S
H618 C606 0.960 . S
H619 C606 0.962 . S
H620 C606 0.960 . S
H621 C607 0.961 . S
H622 C607 0.961 . S
H623 C607 0.961 . S
H624 C608 0.931 . S
H625 C613 0.930 . S
H626 C614 0.956 . S
H627 C614 0.961 . S
H628 C614 0.961 . S
H629 C615 0.958 . S
H630 C615 0.961 . S
H631 C615 0.960 . S
C632 C633 1.391 . S
C632 C634 1.394 . S
C632 H648 0.931 . S
C633 C632 1.391 . S
C633 C637 1.376 . S
C634 C632 1.394 . S
C634 C635 1.369 . S
C634 C638 1.531 . S
C635 C634 1.369 . S
C635 C636 1.410 . S
C635 C643 1.503 . S
C636 C635 1.410 . S
C636 C637 1.392 . S
C636 C639 1.511 . S
C637 C633 1.376 . S
C637 C636 1.392 . S
C637 H649 0.929 . S
C638 C634 1.531 . S
C638 H650 0.960 . S
C638 H651 0.962 . S
C638 H652 0.960 . S
C639 C636 1.511 . S
C639 H653 0.961 . S
C639 H654 0.961 . S
C639 H655 0.961 . S
C640 C641 1.370 . S
C640 C642 1.363 . S
C640 H656 0.931 . S
C641 C640 1.370 . S
C641 C645 1.408 . S
C642 C640 1.363 . S
C642 C643 1.370 . S
C642 C646 1.524 . S
C643 C635 1.503 . S
C643 C642 1.370 . S
C643 C644 1.403 . S
C644 C643 1.403 . S
C644 C645 1.404 . S
C644 C647 1.539 . S
C645 C641 1.408 . S
C645 C644 1.404 . S
C645 H657 0.930 . S
C646 C642 1.524 . S
C646 H658 0.956 . S
C646 H659 0.961 . S
C646 H660 0.961 . S
C647 C644 1.539 . S
C647 H661 0.958 . S
C647 H662 0.961 . S
C647 H663 0.960 . S
H648 C632 0.931 . S
H649 C637 0.929 . S
H650 C638 0.960 . S
H651 C638 0.962 . S
H652 C638 0.960 . S
H653 C639 0.961 . S
H654 C639 0.961 . S
H655 C639 0.961 . S
H656 C640 0.931 . S
H657 C645 0.930 . S
H658 C646 0.956 . S
H659 C646 0.961 . S
H660 C646 0.961 . S
H661 C647 0.958 . S
H662 C647 0.961 . S
H663 C647 0.960 . S
C664 C665 1.391 . S
C664 C666 1.394 . S
C664 H680 0.931 . S
C665 C664 1.391 . S
C665 C669 1.376 . S
C666 C664 1.394 . S
C666 C667 1.369 . S
C666 C670 1.531 . S
C667 C666 1.369 . S
C667 C668 1.410 . S
C667 C675 1.503 . S
C668 C667 1.410 . S
C668 C669 1.392 . S
C668 C671 1.511 . S
C669 C665 1.376 . S
C669 C668 1.392 . S
C669 H681 0.929 . S
C670 C666 1.531 . S
C670 H682 0.960 . S
C670 H683 0.962 . S
C670 H684 0.960 . S
C671 C668 1.511 . S
C671 H685 0.961 . S
C671 H686 0.961 . S
C671 H687 0.961 . S
C672 C673 1.370 . S
C672 C674 1.363 . S
C672 H688 0.931 . S
C673 C672 1.370 . S
C673 C677 1.408 . S
C674 C672 1.363 . S
C674 C675 1.370 . S
C674 C678 1.524 . S
C675 C667 1.503 . S
C675 C674 1.370 . S
C675 C676 1.403 . S
C676 C675 1.403 . S
C676 C677 1.404 . S
C676 C679 1.539 . S
C677 C673 1.408 . S
C677 C676 1.404 . S
C677 H689 0.930 . S
C678 C674 1.524 . S
C678 H690 0.956 . S
C678 H691 0.961 . S
C678 H692 0.961 . S
C679 C676 1.539 . S
C679 H693 0.958 . S
C679 H694 0.961 . S
C679 H695 0.960 . S
H680 C664 0.931 . S
H681 C669 0.929 . S
H682 C670 0.960 . S
H683 C670 0.962 . S
H684 C670 0.960 . S
H685 C671 0.961 . S
H686 C671 0.961 . S
H687 C671 0.961 . S
H688 C672 0.931 . S
H689 C677 0.930 . S
H690 C678 0.956 . S
H691 C678 0.961 . S
H692 C678 0.961 . S
H693 C679 0.958 . S
H694 C679 0.961 . S
H695 C679 0.960 . S
C696 C697 1.391 . S
C696 C698 1.394 . S
C696 H712 0.931 1_554 S
C697 C696 1.391 . S
C697 C701 1.376 . S
C698 C696 1.394 . S
C698 C699 1.369 . S
C698 C702 1.531 1_554 S
C699 C698 1.369 . S
C699 C700 1.410 . S
C699 C707 1.503 . S
C700 C699 1.410 . S
C700 C701 1.392 . S
C700 C703 1.511 . S
C701 C697 1.376 . S
C701 C700 1.392 . S
C701 H713 0.929 . S
C702 C698 1.531 1_556 S
C702 H714 0.960 . S
C702 H715 0.962 . S
C702 H716 0.960 . S
C703 C700 1.511 . S
C703 H717 0.961 . S
C703 H718 0.961 . S
C703 H719 0.961 . S
C704 C705 1.370 . S
C704 C706 1.363 . S
C704 H720 0.931 . S
C705 C704 1.370 . S
C705 C709 1.408 . S
C706 C704 1.363 . S
C706 C707 1.370 . S
C706 C710 1.524 . S
C707 C699 1.503 . S
C707 C706 1.370 . S
C707 C708 1.403 . S
C708 C707 1.403 . S
C708 C709 1.404 . S
C708 C711 1.539 1_554 S
C709 C705 1.408 . S
C709 C708 1.404 . S
C709 H721 0.930 1_554 S
C710 C706 1.524 . S
C710 H722 0.956 . S
C710 H723 0.961 . S
C710 H724 0.961 . S
C711 C708 1.539 1_556 S
C711 H725 0.958 . S
C711 H726 0.961 . S
C711 H727 0.960 . S
H712 C696 0.931 1_556 S
H713 C701 0.929 . S
H714 C702 0.960 . S
H715 C702 0.962 . S
H716 C702 0.960 . S
H717 C703 0.961 . S
H718 C703 0.961 . S
H719 C703 0.961 . S
H720 C704 0.931 . S
H721 C709 0.930 1_556 S
H722 C710 0.956 . S
H723 C710 0.961 . S
H724 C710 0.961 . S
H725 C711 0.958 . S
H726 C711 0.961 . S
H727 C711 0.960 . S
C728 C729 1.391 . S
C728 C730 1.394 1_455 S
C728 H744 0.931 1_455 S
C729 C728 1.391 . S
C729 C733 1.376 . S
C730 C728 1.394 1_655 S
C730 C731 1.369 1_655 S
C730 C734 1.531 . S
C731 C730 1.369 1_455 S
C731 C732 1.410 . S
C731 C739 1.503 1_455 S
C732 C731 1.410 . S
C732 C733 1.392 . S
C732 C735 1.511 . S
C733 C729 1.376 . S
C733 C732 1.392 . S
C733 H745 0.929 . S
C734 C730 1.531 . S
C734 H746 0.960 . S
C734 H747 0.962 . S
C734 H748 0.960 . S
C735 C732 1.511 . S
C735 H749 0.961 . S
C735 H750 0.961 . S
C735 H751 0.961 . S
C736 C737 1.370 . S
C736 C738 1.363 . S
C736 H752 0.931 . S
C737 C736 1.370 . S
C737 C741 1.408 . S
C738 C736 1.363 . S
C738 C739 1.370 . S
C738 C742 1.524 . S
C739 C731 1.503 1_655 S
C739 C738 1.370 . S
C739 C740 1.414 . S
C740 C739 1.414 . S
C740 C741 1.402 . S
C740 C743 1.529 1_655 S
C741 C737 1.408 . S
C741 C740 1.402 . S
C741 H753 0.930 . S
C742 C738 1.524 . S
C742 H754 0.956 . S
C742 H755 0.961 . S
C742 H756 0.961 . S
C743 C740 1.529 1_455 S
C743 H757 0.958 . S
C743 H758 0.961 . S
C743 H759 0.960 . S
H744 C728 0.931 1_655 S
H745 C733 0.929 . S
H746 C734 0.960 . S
H747 C734 0.962 . S
H748 C734 0.960 . S
H749 C735 0.961 . S
H750 C735 0.961 . S
H751 C735 0.961 . S
H752 C736 0.931 . S
H753 C741 0.930 . S
H754 C742 0.956 . S
H755 C742 0.961 . S
H756 C742 0.961 . S
H757 C743 0.958 . S
H758 C743 0.961 . S
H759 C743 0.960 . S
C760 C761 1.391 . S
C760 C762 1.394 1_545 S
C760 H776 0.931 1_545 S
C761 C760 1.391 . S
C761 C765 1.376 . S
C762 C760 1.394 1_565 S
C762 C763 1.369 1_565 S
C762 C766 1.531 . S
C763 C762 1.369 1_545 S
C763 C764 1.410 . S
C763 C771 1.503 1_545 S
C764 C763 1.410 . S
C764 C765 1.392 . S
C764 C767 1.511 . S
C765 C761 1.376 . S
C765 C764 1.392 . S
C765 H777 0.929 . S
C766 C762 1.531 . S
C766 H778 0.960 . S
C766 H779 0.962 . S
C766 H780 0.960 . S
C767 C764 1.511 . S
C767 H781 0.961 . S
C767 H782 0.961 . S
C767 H783 0.961 . S
C768 C769 1.370 . S
C768 C770 1.363 . S
C768 H784 0.931 . S
C769 C768 1.370 . S
C769 C773 1.408 . S
C770 C768 1.363 . S
C770 C771 1.370 . S
C770 C774 1.524 . S
C771 C763 1.503 1_565 S
C771 C770 1.370 . S
C771 C772 1.406 1_565 S
C772 C771 1.406 1_545 S
C772 C773 1.388 1_545 S
C772 C775 1.552 . S
C773 C769 1.408 . S
C773 C772 1.388 1_565 S
C773 H785 0.930 . S
C774 C770 1.524 . S
C774 H786 0.956 . S
C774 H787 0.961 . S
C774 H788 0.961 . S
C775 C772 1.552 . S
C775 H789 0.958 . S
C775 H790 0.961 . S
C775 H791 0.960 . S
H776 C760 0.931 1_565 S
H777 C765 0.929 . S
H778 C766 0.960 . S
H779 C766 0.962 . S
H780 C766 0.960 . S
H781 C767 0.961 . S
H782 C767 0.961 . S
H783 C767 0.961 . S
H784 C768 0.931 . S
H785 C773 0.930 . S
H786 C774 0.956 . S
H787 C774 0.961 . S
H788 C774 0.961 . S
H789 C775 0.958 . S
H790 C775 0.961 . S
H791 C775 0.960 . S
C792 C793 1.391 . S
C792 C794 1.394 . S
C792 H808 0.931 . S
C793 C792 1.391 . S
C793 C797 1.376 . S
C794 C792 1.394 . S
C794 C795 1.369 . S
C794 C798 1.531 . S
C795 C794 1.369 . S
C795 C796 1.410 . S
C795 C803 1.503 . S
C796 C795 1.410 . S
C796 C797 1.392 . S
C796 C799 1.511 . S
C797 C793 1.376 . S
C797 C796 1.392 . S
C797 H809 0.929 . S
C798 C794 1.531 . S
C798 H810 0.960 . S
C798 H811 0.962 . S
C798 H812 0.960 . S
C799 C796 1.511 . S
C799 H813 0.961 . S
C799 H814 0.961 . S
C799 H815 0.961 . S
C800 C801 1.370 . S
C800 C802 1.363 . S
C800 H816 0.931 . S
C801 C800 1.370 . S
C801 C805 1.408 . S
C802 C800 1.363 . S
C802 C803 1.370 . S
C802 C806 1.524 . S
C803 C795 1.503 . S
C803 C802 1.370 . S
C803 C804 1.403 . S
C804 C803 1.403 . S
C804 C805 1.404 . S
C804 C807 1.539 . S
C805 C801 1.408 . S
C805 C804 1.404 . S
C805 H817 0.930 . S
C806 C802 1.524 . S
C806 H818 0.956 . S
C806 H819 0.961 . S
C806 H820 0.961 . S
C807 C804 1.539 . S
C807 H821 0.958 . S
C807 H822 0.961 . S
C807 H823 0.960 . S
H808 C792 0.931 . S
H809 C797 0.929 . S
H810 C798 0.960 . S
H811 C798 0.962 . S
H812 C798 0.960 . S
H813 C799 0.961 . S
H814 C799 0.961 . S
H815 C799 0.961 . S
H816 C800 0.931 . S
H817 C805 0.930 . S
H818 C806 0.956 . S
H819 C806 0.961 . S
H820 C806 0.961 . S
H821 C807 0.958 . S
H822 C807 0.961 . S
H823 C807 0.960 . S
C824 C825 1.391 1_556 S
C824 C826 1.394 . S
C824 H840 0.931 . S
C825 C824 1.391 1_554 S
C825 C829 1.376 . S
C826 C824 1.394 . S
C826 C827 1.369 1_556 S
C826 C830 1.531 . S
C827 C826 1.369 1_554 S
C827 C828 1.410 1_455 S
C827 C835 1.503 1_455 S
C828 C827 1.410 1_655 S
C828 C829 1.392 1_655 S
C828 C831 1.511 . S
C829 C825 1.376 . S
C829 C828 1.392 1_455 S
C829 H841 0.929 . S
C830 C826 1.531 . S
C830 H842 0.960 . S
C830 H843 0.962 . S
C830 H844 0.960 . S
C831 C828 1.511 . S
C831 H845 0.961 . S
C831 H846 0.961 . S
C831 H847 0.961 . S
C832 C833 1.370 . S
C832 C834 1.363 . S
C832 H848 0.931 . S
C833 C832 1.370 . S
C833 C837 1.408 1_554 S
C834 C832 1.363 . S
C834 C835 1.370 . S
C834 C838 1.524 1_655 S
C835 C827 1.503 1_655 S
C835 C834 1.370 . S
C835 C836 1.403 1_554 S
C836 C835 1.403 1_556 S
C836 C837 1.404 . S
C836 C839 1.539 . S
C837 C833 1.408 1_556 S
C837 C836 1.404 . S
C837 H849 0.930 . S
C838 C834 1.524 1_455 S
C838 H850 0.956 . S
C838 H851 0.961 . S
C838 H852 0.961 . S
C839 C836 1.539 . S
C839 H853 0.958 . S
C839 H854 0.961 . S
C839 H855 0.960 . S
H840 C824 0.931 . S
H841 C829 0.929 . S
H842 C830 0.960 . S
H843 C830 0.962 . S
H844 C830 0.960 . S
H845 C831 0.961 . S
H846 C831 0.961 . S
H847 C831 0.961 . S
H848 C832 0.931 . S
H849 C837 0.930 . S
H850 C838 0.956 . S
H851 C838 0.961 . S
H852 C838 0.961 . S
H853 C839 0.958 . S
H854 C839 0.961 . S
H855 C839 0.960 . S
C856 C857 1.391 . S
C856 C858 1.394 1_565 S
C856 H872 0.931 . S
C857 C856 1.391 . S
C857 C861 1.376 . S
C858 C856 1.394 1_545 S
C858 C859 1.369 1_545 S
C858 C862 1.531 . S
C859 C858 1.369 1_565 S
C859 C860 1.410 . S
C859 C867 1.503 1_565 S
C860 C859 1.410 . S
C860 C861 1.392 . S
C860 C863 1.511 . S
C861 C857 1.376 . S
C861 C860 1.392 . S
C861 H873 0.929 . S
C862 C858 1.531 . S
C862 H874 0.960 . S
C862 H875 0.962 . S
C862 H876 0.960 . S
C863 C860 1.511 . S
C863 H877 0.961 . S
C863 H878 0.961 . S
C863 H879 0.961 . S
C864 C865 1.370 . S
C864 C866 1.363 . S
C864 H880 0.931 . S
C865 C864 1.370 . S
C865 C869 1.408 . S
C866 C864 1.363 . S
C866 C867 1.370 . S
C866 C870 1.524 . S
C867 C859 1.503 1_545 S
C867 C866 1.370 . S
C867 C868 1.403 . S
C868 C867 1.403 . S
C868 C869 1.404 . S
C868 C871 1.539 . S
C869 C865 1.408 . S
C869 C868 1.404 . S
C869 H881 0.930 . S
C870 C866 1.524 . S
C870 H882 0.956 . S
C870 H883 0.961 1_545 S
C870 H884 0.961 . S
C871 C868 1.539 . S
C871 H885 0.958 . S
C871 H886 0.961 . S
C871 H887 0.960 1_545 S
H872 C856 0.931 . S
H873 C861 0.929 . S
H874 C862 0.960 . S
H875 C862 0.962 . S
H876 C862 0.960 . S
H877 C863 0.961 . S
H878 C863 0.961 . S
H879 C863 0.961 . S
H880 C864 0.931 . S
H881 C869 0.930 . S
H882 C870 0.956 . S
H883 C870 0.961 1_565 S
H884 C870 0.961 . S
H885 C871 0.958 . S
H886 C871 0.961 . S
H887 C871 0.960 1_565 S
C888 C889 1.391 . S
C888 C890 1.394 . S
C888 H904 0.931 . S
C889 C888 1.391 . S
C889 C893 1.376 . S
C890 C888 1.394 . S
C890 C891 1.369 . S
C890 C894 1.531 . S
C891 C890 1.369 . S
C891 C892 1.410 . S
C891 C899 1.503 . S
C892 C891 1.410 . S
C892 C893 1.392 . S
C892 C895 1.511 . S
C893 C889 1.376 . S
C893 C892 1.392 . S
C893 H905 0.929 . S
C894 C890 1.531 . S
C894 H906 0.960 . S
C894 H907 0.962 . S
C894 H908 0.960 . S
C895 C892 1.511 . S
C895 H909 0.961 . S
C895 H910 0.961 . S
C895 H911 0.961 . S
C896 C897 1.370 . S
C896 C898 1.363 . S
C896 H912 0.931 . S
C897 C896 1.370 . S
C897 C901 1.408 . S
C898 C896 1.363 . S
C898 C899 1.370 . S
C898 C902 1.524 . S
C899 C891 1.503 . S
C899 C898 1.370 . S
C899 C900 1.403 . S
C900 C899 1.403 . S
C900 C901 1.404 . S
C900 C903 1.539 . S
C901 C897 1.408 . S
C901 C900 1.404 . S
C901 H913 0.930 . S
C902 C898 1.524 . S
C902 H914 0.956 . S
C902 H915 0.961 . S
C902 H916 0.961 . S
C903 C900 1.539 . S
C903 H917 0.958 . S
C903 H918 0.961 . S
C903 H919 0.960 . S
H904 C888 0.931 . S
H905 C893 0.929 . S
H906 C894 0.960 . S
H907 C894 0.962 . S
H908 C894 0.960 . S
H909 C895 0.961 . S
H910 C895 0.961 . S
H911 C895 0.961 . S
H912 C896 0.931 . S
H913 C901 0.930 . S
H914 C902 0.956 . S
H915 C902 0.961 . S
H916 C902 0.961 . S
H917 C903 0.958 . S
H918 C903 0.961 . S
H919 C903 0.960 . S
C920 C921 1.391 . S
C920 C922 1.394 . S
C920 H936 0.931 1_455 S
C921 C920 1.391 . S
C921 C925 1.376 . S
C922 C920 1.394 . S
C922 C923 1.369 . S
C922 C926 1.531 . S
C923 C922 1.369 . S
C923 C924 1.410 . S
C923 C931 1.503 . S
C924 C923 1.410 . S
C924 C925 1.392 . S
C924 C927 1.511 . S
C925 C921 1.376 . S
C925 C924 1.392 . S
C925 H937 0.929 . S
C926 C922 1.531 . S
C926 H938 0.960 . S
C926 H939 0.962 1_455 S
C926 H940 0.960 1_455 S
C927 C924 1.511 . S
C927 H941 0.961 . S
C927 H942 0.961 . S
C927 H943 0.961 . S
C928 C929 1.370 . S
C928 C930 1.363 . S
C928 H944 0.931 . S
C929 C928 1.370 . S
C929 C933 1.408 . S
C930 C928 1.363 . S
C930 C931 1.370 . S
C930 C934 1.524 . S
C931 C923 1.503 . S
C931 C930 1.370 . S
C931 C932 1.403 . S
C932 C931 1.403 . S
C932 C933 1.404 . S
C932 C935 1.539 . S
C933 C929 1.408 . S
C933 C932 1.404 . S
C933 H945 0.930 . S
C934 C930 1.524 . S
C934 H946 0.956 . S
C934 H947 0.961 . S
C934 H948 0.961 . S
C935 C932 1.539 . S
C935 H949 0.958 . S
C935 H950 0.961 . S
C935 H951 0.960 . S
H936 C920 0.931 1_655 S
H937 C925 0.929 . S
H938 C926 0.960 . S
H939 C926 0.962 1_655 S
H940 C926 0.960 1_655 S
H941 C927 0.961 . S
H942 C927 0.961 . S
H943 C927 0.961 . S
H944 C928 0.931 . S
H945 C933 0.930 . S
H946 C934 0.956 . S
H947 C934 0.961 . S
H948 C934 0.961 . S
H949 C935 0.958 . S
H950 C935 0.961 . S
H951 C935 0.960 . S
C952 C953 1.391 . S
C952 C954 1.394 . S
C952 H968 0.931 . S
C953 C952 1.391 . S
C953 C957 1.376 . S
C954 C952 1.394 . S
C954 C955 1.369 . S
C954 C958 1.531 . S
C955 C954 1.369 . S
C955 C956 1.410 . S
C955 C963 1.503 . S
C956 C955 1.410 . S
C956 C957 1.392 . S
C956 C959 1.511 . S
C957 C953 1.376 . S
C957 C956 1.392 . S
C957 H969 0.929 1_545 S
C958 C954 1.531 . S
C958 H970 0.960 . S
C958 H971 0.962 . S
C958 H972 0.960 . S
C959 C956 1.511 . S
C959 H973 0.961 1_545 S
C959 H974 0.961 . S
C959 H975 0.961 . S
C960 C961 1.370 . S
C960 C962 1.363 . S
C960 H976 0.931 . S
C961 C960 1.370 . S
C961 C965 1.408 . S
C962 C960 1.363 . S
C962 C963 1.370 . S
C962 C966 1.524 . S
C963 C955 1.503 . S
C963 C962 1.370 . S
C963 C964 1.403 . S
C964 C963 1.403 . S
C964 C965 1.404 . S
C964 C967 1.539 . S
C965 C961 1.408 . S
C965 C964 1.404 . S
C965 H977 0.930 . S
C966 C962 1.524 . S
C966 H978 0.956 . S
C966 H979 0.961 . S
C966 H980 0.961 . S
C967 C964 1.539 . S
C967 H981 0.958 . S
C967 H982 0.961 . S
C967 H983 0.960 . S
H968 C952 0.931 . S
H969 C957 0.929 1_565 S
H970 C958 0.960 . S
H971 C958 0.962 . S
H972 C958 0.960 . S
H973 C959 0.961 1_565 S
H974 C959 0.961 . S
H975 C959 0.961 . S
H976 C960 0.931 . S
H977 C965 0.930 . S
H978 C966 0.956 . S
H979 C966 0.961 . S
H980 C966 0.961 . S
H981 C967 0.958 . S
H982 C967 0.961 . S
H983 C967 0.960 . S
C984 C985 1.391 . S
C984 C986 1.394 . S
C984 H1000 0.931 . S
C985 C984 1.391 . S
C985 C989 1.376 . S
C986 C984 1.394 . S
C986 C987 1.369 . S
C986 C990 1.531 . S
C987 C986 1.369 . S
C987 C988 1.410 . S
C987 C995 1.503 . S
C988 C987 1.410 . S
C988 C989 1.392 . S
C988 C991 1.511 . S
C989 C985 1.376 . S
C989 C988 1.392 . S
C989 H1001 0.929 . S
C990 C986 1.531 . S
C990 H1002 0.960 . S
C990 H1003 0.962 . S
C990 H1004 0.960 . S
C991 C988 1.511 . S
C991 H1005 0.961 . S
C991 H1006 0.961 . S
C991 H1007 0.961 . S
C992 C993 1.370 . S
C992 C994 1.363 . S
C992 H1008 0.931 . S
C993 C992 1.370 . S
C993 C997 1.408 . S
C994 C992 1.363 . S
C994 C995 1.370 . S
C994 C998 1.524 . S
C995 C987 1.503 . S
C995 C994 1.370 . S
C995 C996 1.403 . S
C996 C995 1.403 . S
C996 C997 1.404 . S
C996 C999 1.539 . S
C997 C993 1.408 . S
C997 C996 1.404 . S
C997 H1009 0.930 . S
C998 C994 1.524 . S
C998 H1010 0.956 . S
C998 H1011 0.961 . S
C998 H1012 0.961 . S
C999 C996 1.539 . S
C999 H1013 0.958 . S
C999 H1014 0.961 . S
C999 H1015 0.960 . S
H1000 C984 0.931 . S
H1001 C989 0.929 . S
H1002 C990 0.960 . S
H1003 C990 0.962 . S
H1004 C990 0.960 . S
H1005 C991 0.961 . S
H1006 C991 0.961 . S
H1007 C991 0.961 . S
H1008 C992 0.931 . S
H1009 C997 0.930 . S
H1010 C998 0.956 . S
H1011 C998 0.961 . S
H1012 C998 0.961 . S
H1013 C999 0.958 . S
H1014 C999 0.961 . S
H1015 C999 0.960 . S
C1016 C1017 1.391 . S
C1016 C1018 1.394 . S
C1016 H1032 0.931 1_655 S
C1017 C1016 1.391 . S
C1017 C1021 1.376 . S
C1018 C1016 1.394 . S
C1018 C1019 1.369 . S
C1018 C1022 1.531 . S
C1019 C1018 1.369 . S
C1019 C1020 1.410 . S
C1019 C1027 1.503 . S
C1020 C1019 1.410 . S
C1020 C1021 1.392 . S
C1020 C1023 1.511 . S
C1021 C1017 1.376 . S
C1021 C1020 1.392 . S
C1021 H1033 0.929 . S
C1022 C1018 1.531 . S
C1022 H1034 0.960 . S
C1022 H1035 0.962 . S
C1022 H1036 0.960 1_655 S
C1023 C1020 1.511 . S
C1023 H1037 0.961 . S
C1023 H1038 0.961 . S
C1023 H1039 0.961 . S
C1024 C1025 1.370 . S
C1024 C1026 1.363 . S
C1024 H1040 0.931 . S
C1025 C1024 1.370 . S
C1025 C1029 1.408 . S
C1026 C1024 1.363 . S
C1026 C1027 1.370 . S
C1026 C1030 1.524 . S
C1027 C1019 1.503 . S
C1027 C1026 1.370 . S
C1027 C1028 1.403 . S
C1028 C1027 1.403 . S
C1028 C1029 1.404 . S
C1028 C1031 1.539 . S
C1029 C1025 1.408 . S
C1029 C1028 1.404 . S
C1029 H1041 0.930 . S
C1030 C1026 1.524 . S
C1030 H1042 0.956 . S
C1030 H1043 0.961 . S
C1030 H1044 0.961 . S
C1031 C1028 1.539 . S
C1031 H1045 0.958 1_655 S
C1031 H1046 0.961 . S
C1031 H1047 0.960 . S
H1032 C1016 0.931 1_455 S
H1033 C1021 0.929 . S
H1034 C1022 0.960 . S
H1035 C1022 0.962 . S
H1036 C1022 0.960 1_455 S
H1037 C1023 0.961 . S
H1038 C1023 0.961 . S
H1039 C1023 0.961 . S
H1040 C1024 0.931 . S
H1041 C1029 0.930 . S
H1042 C1030 0.956 . S
H1043 C1030 0.961 . S
H1044 C1030 0.961 . S
H1045 C1031 0.958 1_455 S
H1046 C1031 0.961 . S
H1047 C1031 0.960 . S
C1048 C1049 1.391 . S
C1048 C1050 1.394 . S
C1048 H1064 0.931 . S
C1049 C1048 1.391 . S
C1049 C1053 1.376 . S
C1050 C1048 1.394 . S
C1050 C1051 1.369 . S
C1050 C1054 1.531 . S
C1051 C1050 1.369 . S
C1051 C1052 1.410 . S
C1051 C1059 1.503 . S
C1052 C1051 1.410 . S
C1052 C1053 1.392 . S
C1052 C1055 1.511 . S
C1053 C1049 1.376 . S
C1053 C1052 1.392 . S
C1053 H1065 0.929 1_565 S
C1054 C1050 1.531 . S
C1054 H1066 0.960 . S
C1054 H1067 0.962 . S
C1054 H1068 0.960 . S
C1055 C1052 1.511 . S
C1055 H1069 0.961 . S
C1055 H1070 0.961 . S
C1055 H1071 0.961 1_565 S
C1056 C1057 1.370 . S
C1056 C1058 1.363 . S
C1056 H1072 0.931 . S
C1057 C1056 1.370 . S
C1057 C1061 1.408 . S
C1058 C1056 1.363 . S
C1058 C1059 1.370 . S
C1058 C1062 1.524 . S
C1059 C1051 1.503 . S
C1059 C1058 1.370 . S
C1059 C1060 1.403 . S
C1060 C1059 1.403 . S
C1060 C1061 1.404 . S
C1060 C1063 1.539 . S
C1061 C1057 1.408 . S
C1061 C1060 1.404 . S
C1061 H1073 0.930 . S
C1062 C1058 1.524 . S
C1062 H1074 0.956 . S
C1062 H1075 0.961 . S
C1062 H1076 0.961 . S
C1063 C1060 1.539 . S
C1063 H1077 0.958 . S
C1063 H1078 0.961 1_565 S
C1063 H1079 0.960 1_565 S
H1064 C1048 0.931 . S
H1065 C1053 0.929 1_545 S
H1066 C1054 0.960 . S
H1067 C1054 0.962 . S
H1068 C1054 0.960 . S
H1069 C1055 0.961 . S
H1070 C1055 0.961 . S
H1071 C1055 0.961 1_545 S
H1072 C1056 0.931 . S
H1073 C1061 0.930 . S
H1074 C1062 0.956 . S
H1075 C1062 0.961 . S
H1076 C1062 0.961 . S
H1077 C1063 0.958 . S
H1078 C1063 0.961 1_545 S
H1079 C1063 0.960 1_545 S
C505 C391 1.178 . S
C513 C70 0.941 . S
C537 C475 1.120 . S
C545 C154 1.011 . S
C569 C55 1.174 . S
C577 C238 0.950 . S
C601 C139 1.124 . S
C609 C322 0.997 . S
C633 C223 1.126 . S
C641 C406 1.006 . S
C665 C307 1.162 . S
C673 C490 0.967 . S
C697 C68 1.443 . S
C705 C320 1.484 . S
C729 C404 1.454 . S
C737 C152 1.482 . S
C761 C488 1.453 . S
C769 C236 1.482 . S
C793 C224 1.645 . S
C801 C476 1.660 . S
C825 C56 1.657 . S
C833 C308 1.657 . S
C857 C392 1.674 . S
C865 C140 1.670 . S
C889 C487 1.106 . S
C897 C58 0.985 . S
C921 C142 1.071 1_455 S
C929 C67 1.077 . S
C953 C226 1.010 1_545 S
C961 C151 1.100 . S
C985 C235 1.115 . S
C993 C310 1.022 . S
C1017 C394 0.966 1_655 S
C1025 C319 1.071 . S
C1049 C478 0.935 1_565 S
C1057 C403 1.082 . S
