# Generated by pormake.
# Topology zfp, (5)-cn, num edge types: 1
# Building blocks:
#     Node 0, Type 0, BuildingBlock: XOMCOT_clean_sbu_0, # of connection points: 5
#     Node 1, Type 0, BuildingBlock: XOMCOT_clean_sbu_0, # of connection points: 5
#     Node 2, Type 0, BuildingBlock: XOMCOT_clean_sbu_0, # of connection points: 5
#     Node 3, Type 0, BuildingBlock: XOMCOT_clean_sbu_0, # of connection points: 5
#     Node 4, Type 0, BuildingBlock: XOMCOT_clean_sbu_0, # of connection points: 5
#     Node 5, Type 0, BuildingBlock: XOMCOT_clean_sbu_0, # of connection points: 5
#     Node 6, Type 0, BuildingBlock: XOMCOT_clean_sbu_0, # of connection points: 5
#     Node 7, Type 0, BuildingBlock: XOMCOT_clean_sbu_0, # of connection points: 5
#     Node 8, Type 0, BuildingBlock: XOMCOT_clean_sbu_0, # of connection points: 5
#     Node 9, Type 0, BuildingBlock: XOMCOT_clean_sbu_0, # of connection points: 5
#     Node 10, Type 0, BuildingBlock: XOMCOT_clean_sbu_0, # of connection points: 5
#     Node 11, Type 0, BuildingBlock: XOMCOT_clean_sbu_0, # of connection points: 5
#     Node 12, Type 0, BuildingBlock: XOMCOT_clean_sbu_0, # of connection points: 5
#     Node 13, Type 0, BuildingBlock: XOMCOT_clean_sbu_0, # of connection points: 5
#     Node 14, Type 0, BuildingBlock: XOMCOT_clean_sbu_0, # of connection points: 5
#     Node 15, Type 0, BuildingBlock: XOMCOT_clean_sbu_0, # of connection points: 5
#     Edge 16, Type (0, 0), BuildingBlock: TEMPAE_clean_linker_10, # of connection points: 2
#     Edge 17, Type (0, 0), BuildingBlock: TEMPAE_clean_linker_10, # of connection points: 2
#     Edge 18, Type (0, 0), BuildingBlock: TEMPAE_clean_linker_10, # of connection points: 2
#     Edge 19, Type (0, 0), BuildingBlock: TEMPAE_clean_linker_10, # of connection points: 2
#     Edge 20, Type (0, 0), BuildingBlock: TEMPAE_clean_linker_10, # of connection points: 2
#     Edge 21, Type (0, 0), BuildingBlock: TEMPAE_clean_linker_10, # of connection points: 2
#     Edge 22, Type (0, 0), BuildingBlock: TEMPAE_clean_linker_10, # of connection points: 2
#     Edge 23, Type (0, 0), BuildingBlock: TEMPAE_clean_linker_10, # of connection points: 2
#     Edge 24, Type (0, 0), BuildingBlock: TEMPAE_clean_linker_10, # of connection points: 2
#     Edge 25, Type (0, 0), BuildingBlock: TEMPAE_clean_linker_10, # of connection points: 2
#     Edge 26, Type (0, 0), BuildingBlock: TEMPAE_clean_linker_10, # of connection points: 2
#     Edge 27, Type (0, 0), BuildingBlock: TEMPAE_clean_linker_10, # of connection points: 2
#     Edge 28, Type (0, 0), BuildingBlock: TEMPAE_clean_linker_10, # of connection points: 2
#     Edge 29, Type (0, 0), BuildingBlock: TEMPAE_clean_linker_10, # of connection points: 2
#     Edge 30, Type (0, 0), BuildingBlock: TEMPAE_clean_linker_10, # of connection points: 2
#     Edge 31, Type (0, 0), BuildingBlock: TEMPAE_clean_linker_10, # of connection points: 2
#     Edge 32, Type (0, 0), BuildingBlock: TEMPAE_clean_linker_10, # of connection points: 2
#     Edge 33, Type (0, 0), BuildingBlock: TEMPAE_clean_linker_10, # of connection points: 2
#     Edge 34, Type (0, 0), BuildingBlock: TEMPAE_clean_linker_10, # of connection points: 2
#     Edge 35, Type (0, 0), BuildingBlock: TEMPAE_clean_linker_10, # of connection points: 2
#     Edge 36, Type (0, 0), BuildingBlock: TEMPAE_clean_linker_10, # of connection points: 2
#     Edge 37, Type (0, 0), BuildingBlock: TEMPAE_clean_linker_10, # of connection points: 2
#     Edge 38, Type (0, 0), BuildingBlock: TEMPAE_clean_linker_10, # of connection points: 2
#     Edge 39, Type (0, 0), BuildingBlock: TEMPAE_clean_linker_10, # of connection points: 2
#     Edge 40, Type (0, 0), BuildingBlock: TEMPAE_clean_linker_10, # of connection points: 2
#     Edge 41, Type (0, 0), BuildingBlock: TEMPAE_clean_linker_10, # of connection points: 2
#     Edge 42, Type (0, 0), BuildingBlock: TEMPAE_clean_linker_10, # of connection points: 2
#     Edge 43, Type (0, 0), BuildingBlock: TEMPAE_clean_linker_10, # of connection points: 2
#     Edge 44, Type (0, 0), BuildingBlock: TEMPAE_clean_linker_10, # of connection points: 2
#     Edge 45, Type (0, 0), BuildingBlock: TEMPAE_clean_linker_10, # of connection points: 2
#     Edge 46, Type (0, 0), BuildingBlock: TEMPAE_clean_linker_10, # of connection points: 2
#     Edge 47, Type (0, 0), BuildingBlock: TEMPAE_clean_linker_10, # of connection points: 2
#     Edge 48, Type (0, 0), BuildingBlock: TEMPAE_clean_linker_10, # of connection points: 2
#     Edge 49, Type (0, 0), BuildingBlock: TEMPAE_clean_linker_10, # of connection points: 2
#     Edge 50, Type (0, 0), BuildingBlock: TEMPAE_clean_linker_10, # of connection points: 2
#     Edge 51, Type (0, 0), BuildingBlock: TEMPAE_clean_linker_10, # of connection points: 2
#     Edge 52, Type (0, 0), BuildingBlock: TEMPAE_clean_linker_10, # of connection points: 2
#     Edge 53, Type (0, 0), BuildingBlock: TEMPAE_clean_linker_10, # of connection points: 2
#     Edge 54, Type (0, 0), BuildingBlock: TEMPAE_clean_linker_10, # of connection points: 2
#     Edge 55, Type (0, 0), BuildingBlock: TEMPAE_clean_linker_10, # of connection points: 2
# Relax obj value: 0.349
# Max RMSD: 0.236
# Mean RMSD: 0.236
data_MOF--net-zfp--node1-XOMCOT_clean_sbu_0--edge1-TEMPAE_clean_linker_10
_symmetry_space_group_name_H-M    P1
_symmetry_Int_Tables_number       1
_symmetry_cell_setting            triclinic
loop_
_symmetry_equiv_pos_as_xyz
'x, y, z'
_cell_length_a     29.772288
_cell_length_b     29.903078
_cell_length_c     71.131111
_cell_angle_alpha  90.14305
_cell_angle_beta   90.286294
_cell_angle_gamma 90.055976
loop_
_atom_site_label
_atom_site_type_symbol
_atom_site_fract_x
_atom_site_fract_y
_atom_site_fract_z
_atom_type_partial_charge
Co0 Co 0.26016 0.30298 0.13642 0.0
C1 C 0.2686 0.28334 0.17694 0.0
C2 C 0.24793 0.22559 0.16113 0.0
C3 C 0.24865 0.21474 0.17993 0.0
N4 N 0.26013 0.26861 0.15934 0.0
N5 N 0.26159 0.25111 0.18997 0.0
H6 H 0.27883 0.31729 0.17998 0.0
H7 H 0.23796 0.20397 0.14963 0.0
C8 C 0.17095 0.28653 0.11826 0.0
O9 O 0.17328 0.32854 0.11302 0.0
N10 N 0.26179 0.33613 0.11285 0.0
C11 C 0.27044 0.3798 0.10957 0.0
C12 C 0.27021 0.38717 0.0905 0.0
C13 C 0.25898 0.31729 0.09556 0.0
N14 N 0.263 0.34788 0.08177 0.0
C15 C 0.23205 0.38986 0.15131 0.0
C16 C 0.14752 0.3605 0.16135 0.0
C17 C 0.15575 0.40639 0.1605 0.0
C18 C 0.19948 0.42117 0.15667 0.0
C19 C 0.18102 0.3309 0.15602 0.0
N20 N 0.22059 0.34607 0.14875 0.0
H21 H 0.26603 0.40088 0.14902 0.0
H22 H 0.17424 0.29561 0.15692 0.0
H23 H 0.27856 0.40484 0.11986 0.0
H24 H 0.25347 0.28194 0.09314 0.0
O25 O 0.31798 0.32833 0.14305 0.0
O26 O 0.30865 0.26579 0.12677 0.0
O27 O 0.20421 0.2688 0.1272 0.0
C28 C 0.33619 0.29518 0.13402 0.0
H29 H 0.23892 0.18272 0.18563 0.0
H30 H 0.27639 0.41872 0.08353 0.0
H31 H 0.11489 0.34766 0.16536 0.0
H32 H 0.20777 0.45644 0.15694 0.0
Co33 Co 0.73809 0.2442 0.63233 0.0
C34 C 0.74798 0.25204 0.67494 0.0
C35 C 0.80994 0.25405 0.65978 0.0
C36 C 0.81944 0.25788 0.67862 0.0
N37 N 0.76518 0.24995 0.65732 0.0
N38 N 0.78054 0.25638 0.68821 0.0
H39 H 0.71294 0.24946 0.67828 0.0
H40 H 0.83422 0.25395 0.64853 0.0
C41 C 0.78125 0.15657 0.64006 0.0
O42 O 0.7662 0.16342 0.65714 0.0
N43 N 0.71291 0.24068 0.60723 0.0
C44 C 0.67056 0.25238 0.60264 0.0
C45 C 0.66633 0.25232 0.5834 0.0
C46 C 0.734 0.23341 0.59071 0.0
N47 N 0.70608 0.2404 0.57594 0.0
C48 C 0.6566 0.22169 0.65274 0.0
C49 C 0.6476 0.13782 0.63674 0.0
C50 C 0.61612 0.15156 0.65006 0.0
C51 C 0.62054 0.1943 0.65804 0.0
C52 C 0.68255 0.16604 0.63189 0.0
N53 N 0.68878 0.20622 0.64074 0.0
H54 H 0.65797 0.25566 0.65788 0.0
H55 H 0.70411 0.15563 0.62055 0.0
H56 H 0.64503 0.26209 0.61261 0.0
H57 H 0.76935 0.22556 0.58949 0.0
O58 O 0.70982 0.30195 0.63544 0.0
O59 O 0.77795 0.29241 0.62397 0.0
O60 O 0.77593 0.1875 0.6276 0.0
C61 C 0.74578 0.31998 0.62855 0.0
H62 H 0.85256 0.26192 0.68472 0.0
H63 H 0.63667 0.26143 0.57542 0.0
H64 H 0.64515 0.10548 0.62991 0.0
H65 H 0.59573 0.20689 0.6678 0.0
Co66 Co 0.79148 0.72528 0.13326 0.0
C67 C 0.78321 0.74222 0.17418 0.0
C68 C 0.8055 0.80048 0.1593 0.0
C69 C 0.80417 0.81032 0.17821 0.0
N70 N 0.79269 0.75775 0.15683 0.0
N71 N 0.79018 0.77367 0.18765 0.0
H72 H 0.77194 0.70842 0.17679 0.0
H73 H 0.81604 0.82265 0.14817 0.0
C74 C 0.8831 0.73962 0.11727 0.0
O75 O 0.87982 0.69806 0.11139 0.0
N76 N 0.78791 0.69397 0.10901 0.0
C77 C 0.76443 0.65628 0.10525 0.0
C78 C 0.76312 0.64917 0.08619 0.0
C79 C 0.79792 0.71066 0.09178 0.0
N80 N 0.78432 0.68324 0.07764 0.0
C81 C 0.82145 0.63516 0.14367 0.0
C82 C 0.90125 0.66443 0.15955 0.0
C83 C 0.89517 0.61883 0.15632 0.0
C84 C 0.85386 0.60382 0.1492 0.0
C85 C 0.86794 0.69422 0.15411 0.0
N86 N 0.83035 0.67991 0.14469 0.0
H87 H 0.78982 0.62319 0.13844 0.0
H88 H 0.87378 0.72934 0.1565 0.0
H89 H 0.74572 0.63699 0.11534 0.0
H90 H 0.81398 0.7427 0.08962 0.0
O91 O 0.73323 0.70111 0.13971 0.0
O92 O 0.7432 0.76445 0.12435 0.0
O93 O 0.84887 0.75839 0.12506 0.0
C94 C 0.71521 0.73529 0.13135 0.0
H95 H 0.81407 0.84184 0.18448 0.0
H96 H 0.7454 0.6223 0.07911 0.0
H97 H 0.93223 0.67711 0.16562 0.0
H98 H 0.84752 0.56847 0.14713 0.0
Co99 Co 0.30338 0.78905 0.63593 0.0
C100 C 0.28428 0.7795 0.67647 0.0
C101 C 0.22484 0.79529 0.66059 0.0
C102 C 0.21366 0.79244 0.67932 0.0
N103 N 0.26914 0.78764 0.6589 0.0
N104 N 0.25112 0.78278 0.68933 0.0
H105 H 0.3192 0.77304 0.67975 0.0
H106 H 0.20239 0.8028 0.64903 0.0
C107 C 0.28724 0.87976 0.61988 0.0
O108 O 0.32966 0.87813 0.61498 0.0
N109 N 0.33612 0.78744 0.61219 0.0
C110 C 0.37391 0.76397 0.6086 0.0
C111 C 0.38007 0.76112 0.58954 0.0
C112 C 0.31858 0.79609 0.59495 0.0
N113 N 0.34514 0.78111 0.58091 0.0
C114 C 0.39199 0.8257 0.64606 0.0
C115 C 0.35766 0.89759 0.66576 0.0
C116 C 0.4036 0.8973 0.66166 0.0
C117 C 0.42091 0.8597 0.65222 0.0
C118 C 0.32997 0.86395 0.65874 0.0
N119 N 0.34663 0.82958 0.64812 0.0
H120 H 0.40646 0.79714 0.63936 0.0
H121 H 0.29444 0.86673 0.66129 0.0
H122 H 0.39366 0.74598 0.61884 0.0
H123 H 0.28556 0.81026 0.59274 0.0
O124 O 0.32944 0.73175 0.64243 0.0
O125 O 0.26644 0.73979 0.62622 0.0
O126 O 0.26877 0.84527 0.62754 0.0
C127 C 0.29629 0.71284 0.63349 0.0
H128 H 0.1804 0.79704 0.68507 0.0
H129 H 0.40727 0.74377 0.58262 0.0
H130 H 0.34255 0.92433 0.67382 0.0
H131 H 0.4562 0.85703 0.64886 0.0
Co132 Co 0.74413 0.22867 0.88215 0.0
C133 C 0.75876 0.24773 0.8418 0.0
C134 C 0.74106 0.30692 0.85723 0.0
C135 C 0.74527 0.31786 0.83849 0.0
N136 N 0.74911 0.26292 0.85921 0.0
N137 N 0.75599 0.28051 0.82879 0.0
H138 H 0.76636 0.21311 0.83869 0.0
H139 H 0.7316 0.3292 0.86853 0.0
C140 C 0.66357 0.28804 0.89659 0.0
O141 O 0.68737 0.31593 0.9069 0.0
N142 N 0.74053 0.19562 0.90579 0.0
C143 C 0.76527 0.15958 0.91072 0.0
C144 C 0.76056 0.15174 0.92963 0.0
C145 C 0.72292 0.21035 0.92223 0.0
N146 N 0.73419 0.18385 0.9369 0.0
C147 C 0.71559 0.13863 0.87086 0.0
C148 C 0.64356 0.16826 0.84968 0.0
C149 C 0.64568 0.12291 0.85438 0.0
C150 C 0.68364 0.10781 0.86434 0.0
C151 C 0.67506 0.19784 0.85708 0.0
N152 N 0.70906 0.18344 0.86856 0.0
H153 H 0.7445 0.12619 0.87819 0.0
H154 H 0.67065 0.23297 0.85417 0.0
H155 H 0.78874 0.14235 0.90173 0.0
H156 H 0.70473 0.24124 0.92379 0.0
O157 O 0.80423 0.20614 0.87815 0.0
O158 O 0.78976 0.26776 0.89398 0.0
O159 O 0.68297 0.25673 0.88746 0.0
C160 C 0.81989 0.23968 0.8877 0.0
H161 H 0.73909 0.35042 0.83239 0.0
H162 H 0.77844 0.12675 0.93771 0.0
H163 H 0.61646 0.18147 0.84115 0.0
H164 H 0.68772 0.07294 0.86799 0.0
Co165 Co 0.80447 0.74313 0.38284 0.0
C166 C 0.78894 0.75115 0.34175 0.0
C167 C 0.73026 0.72799 0.35622 0.0
C168 C 0.721 0.72927 0.33725 0.0
N169 N 0.7729 0.74138 0.359 0.0
N170 N 0.7579 0.7438 0.32807 0.0
H171 H 0.82279 0.76291 0.33937 0.0
H172 H 0.70776 0.71716 0.3672 0.0
C173 C 0.7907 0.65212 0.39896 0.0
O174 O 0.8326 0.65542 0.40466 0.0
N175 N 0.83467 0.74708 0.40736 0.0
C176 C 0.87074 0.77276 0.41167 0.0
C177 C 0.87545 0.77552 0.43085 0.0
C178 C 0.81689 0.73644 0.42433 0.0
N179 N 0.84166 0.75265 0.43882 0.0
C180 C 0.89569 0.71701 0.37293 0.0
C181 C 0.87036 0.63858 0.35511 0.0
C182 C 0.91603 0.64736 0.35783 0.0
C183 C 0.92873 0.68779 0.36635 0.0
C184 C 0.83871 0.66844 0.36199 0.0
N185 N 0.85133 0.70576 0.37186 0.0
H186 H 0.90605 0.74846 0.37878 0.0
H187 H 0.80369 0.66076 0.35982 0.0
H188 H 0.89018 0.79203 0.40183 0.0
H189 H 0.785 0.7196 0.42609 0.0
O190 O 0.8283 0.80115 0.37651 0.0
O191 O 0.76406 0.79054 0.39136 0.0
O192 O 0.77174 0.68573 0.39085 0.0
C193 C 0.79354 0.81862 0.38463 0.0
H194 H 0.68971 0.71898 0.33076 0.0
H195 H 0.90079 0.79453 0.43837 0.0
H196 H 0.85899 0.60793 0.34846 0.0
H197 H 0.96383 0.69648 0.36809 0.0
Co198 Co 0.29415 0.79004 0.88509 0.0
C199 C 0.28386 0.78178 0.84275 0.0
C200 C 0.2859 0.71919 0.85732 0.0
C201 C 0.28011 0.71065 0.83848 0.0
N202 N 0.28881 0.76374 0.86009 0.0
N203 N 0.27893 0.75001 0.82933 0.0
H204 H 0.28265 0.81695 0.83977 0.0
H205 H 0.28801 0.69447 0.86837 0.0
C206 C 0.38229 0.74533 0.87831 0.0
O207 O 0.37604 0.75871 0.86093 0.0
N208 N 0.29738 0.81406 0.91025 0.0
C209 C 0.29409 0.85745 0.91518 0.0
C210 C 0.2948 0.86044 0.93447 0.0
C211 C 0.2991 0.79109 0.92654 0.0
N212 N 0.2978 0.81876 0.94159 0.0
C213 C 0.32016 0.87066 0.86492 0.0
C214 C 0.4044 0.87649 0.88123 0.0
C215 C 0.39211 0.90821 0.86776 0.0
C216 C 0.3491 0.90546 0.85967 0.0
C217 C 0.37454 0.84298 0.8861 0.0
N218 N 0.33421 0.8381 0.87703 0.0
H219 H 0.286 0.87097 0.85981 0.0
H220 H 0.38376 0.82157 0.89766 0.0
H221 H 0.29037 0.88491 0.90543 0.0
H222 H 0.30054 0.75498 0.92734 0.0
O223 O 0.23717 0.82006 0.88154 0.0
O224 O 0.24355 0.75184 0.89286 0.0
O225 O 0.35032 0.75106 0.89034 0.0
C226 C 0.21717 0.78489 0.88808 0.0
H227 H 0.27753 0.67795 0.832 0.0
H228 H 0.29151 0.89083 0.94265 0.0
H229 H 0.43682 0.87765 0.88819 0.0
H230 H 0.33747 0.93066 0.84989 0.0
Co231 Co 0.2315 0.29639 0.38513 0.0
C232 C 0.24775 0.28132 0.34356 0.0
C233 C 0.30733 0.29539 0.35945 0.0
C234 C 0.31899 0.29011 0.34092 0.0
N235 N 0.26246 0.29121 0.36112 0.0
N236 N 0.28148 0.28134 0.33082 0.0
H237 H 0.21366 0.27299 0.34007 0.0
H238 H 0.33001 0.30279 0.37098 0.0
C239 C 0.27207 0.38636 0.37869 0.0
O240 O 0.25963 0.37902 0.36121 0.0
N241 N 0.2029 0.29977 0.40935 0.0
C242 C 0.16003 0.28867 0.41308 0.0
C243 C 0.1541 0.28937 0.43224 0.0
C244 C 0.22259 0.30713 0.42621 0.0
N245 N 0.19343 0.30082 0.44046 0.0
C246 C 0.15421 0.31683 0.36144 0.0
C247 C 0.14258 0.40223 0.37548 0.0
C248 C 0.11714 0.38844 0.36001 0.0
C249 C 0.12151 0.3446 0.35339 0.0
C250 C 0.17404 0.37333 0.38315 0.0
N251 N 0.18282 0.33287 0.37495 0.0
H252 H 0.1558 0.28234 0.35709 0.0
H253 H 0.19185 0.38395 0.39565 0.0
H254 H 0.13528 0.27921 0.40262 0.0
H255 H 0.25791 0.31467 0.42803 0.0
O256 O 0.20478 0.23815 0.38125 0.0
O257 O 0.27068 0.2484 0.39481 0.0
O258 O 0.2668 0.35475 0.39089 0.0
C259 C 0.23951 0.22033 0.3893 0.0
H260 H 0.3526 0.29346 0.33541 0.0
H261 H 0.12342 0.28128 0.43961 0.0
H262 H 0.13795 0.43508 0.38165 0.0
H263 H 0.10011 0.33213 0.34219 0.0
Co264 Co 0.7949 0.73844 0.88229 0.0
C265 C 0.77228 0.75081 0.84155 0.0
C266 C 0.77589 0.81265 0.85689 0.0
C267 C 0.76883 0.8221 0.83819 0.0
N268 N 0.77852 0.76806 0.85899 0.0
N269 N 0.76718 0.78328 0.82844 0.0
H270 H 0.77416 0.71544 0.83841 0.0
H271 H 0.78033 0.8367 0.86813 0.0
C272 C 0.87458 0.78918 0.89839 0.0
O273 O 0.85592 0.79041 0.91508 0.0
N274 N 0.81191 0.70984 0.90612 0.0
C275 C 0.85157 0.68948 0.90963 0.0
C276 C 0.85575 0.68172 0.92856 0.0
C277 C 0.79278 0.71451 0.92333 0.0
N278 N 0.81913 0.69796 0.93729 0.0
C279 C 0.82717 0.65124 0.8712 0.0
C280 C 0.8948 0.68369 0.8484 0.0
C281 C 0.89571 0.63856 0.85358 0.0
C282 C 0.85992 0.62188 0.86441 0.0
C283 C 0.86255 0.71188 0.85599 0.0
N284 N 0.83111 0.69608 0.86821 0.0
H285 H 0.80114 0.63871 0.88035 0.0
H286 H 0.86382 0.74697 0.85249 0.0
H287 H 0.87776 0.68384 0.89943 0.0
H288 H 0.76198 0.73262 0.92584 0.0
O289 O 0.73816 0.7067 0.88204 0.0
O290 O 0.74769 0.7733 0.8949 0.0
O291 O 0.85104 0.77753 0.88408 0.0
C292 C 0.72028 0.74054 0.89063 0.0
H293 H 0.76603 0.85525 0.83224 0.0
H294 H 0.88465 0.66695 0.93541 0.0
H295 H 0.9201 0.6978 0.83927 0.0
H296 H 0.8587 0.58724 0.86873 0.0
Co297 Co 0.29712 0.7997 0.38573 0.0
C298 C 0.2797 0.78836 0.34406 0.0
C299 C 0.22047 0.79945 0.36042 0.0
C300 C 0.20809 0.79638 0.34183 0.0
N301 N 0.26537 0.7949 0.3619 0.0
N302 N 0.24533 0.78957 0.33152 0.0
H303 H 0.31425 0.7837 0.34012 0.0
H304 H 0.1982 0.80518 0.37215 0.0
C305 C 0.24631 0.88015 0.40382 0.0
O306 O 0.24277 0.86201 0.42049 0.0
N307 N 0.32783 0.80397 0.4099 0.0
C308 C 0.37235 0.80948 0.41268 0.0
C309 C 0.38122 0.80909 0.43163 0.0
C310 C 0.3107 0.79794 0.42728 0.0
N311 N 0.34239 0.80232 0.44088 0.0
C312 C 0.37592 0.81871 0.36297 0.0
C313 C 0.38467 0.90646 0.3747 0.0
C314 C 0.41714 0.88869 0.36276 0.0
C315 C 0.41236 0.84437 0.35659 0.0
C316 C 0.34953 0.87996 0.38078 0.0
N317 N 0.34434 0.83684 0.37465 0.0
H318 H 0.37429 0.78374 0.35922 0.0
H319 H 0.32902 0.89382 0.39167 0.0
H320 H 0.39722 0.81269 0.40177 0.0
H321 H 0.27583 0.79016 0.4299 0.0
O322 O 0.32378 0.74109 0.38241 0.0
O323 O 0.2579 0.7522 0.39563 0.0
O324 O 0.26136 0.85731 0.38995 0.0
C325 C 0.28878 0.72381 0.39039 0.0
H326 H 0.17423 0.79901 0.33634 0.0
H327 H 0.4141 0.8125 0.43803 0.0
H328 H 0.38745 0.94035 0.38004 0.0
H329 H 0.43752 0.82917 0.34768 0.0
Co330 Co 0.24289 0.30804 0.88679 0.0
C331 C 0.25282 0.29475 0.84499 0.0
C332 C 0.23186 0.23587 0.85968 0.0
C333 C 0.23479 0.22575 0.84088 0.0
N334 N 0.24261 0.27923 0.86231 0.0
N335 N 0.2478 0.2628 0.83163 0.0
H336 H 0.26481 0.32799 0.84208 0.0
H337 H 0.22243 0.213 0.87074 0.0
C338 C 0.16097 0.25973 0.9058 0.0
O339 O 0.17798 0.25931 0.92282 0.0
N340 N 0.24405 0.33586 0.91145 0.0
C341 C 0.24517 0.38022 0.91503 0.0
C342 C 0.25213 0.3868 0.93397 0.0
C343 C 0.25203 0.31616 0.92821 0.0
N344 N 0.2561 0.34649 0.94217 0.0
C345 C 0.22089 0.3876 0.86516 0.0
C346 C 0.13604 0.39789 0.88009 0.0
C347 C 0.15091 0.42873 0.86678 0.0
C348 C 0.19396 0.42342 0.8592 0.0
C349 C 0.16384 0.36325 0.88567 0.0
N350 N 0.20503 0.35688 0.8777 0.0
H351 H 0.25506 0.38576 0.86028 0.0
H352 H 0.1526 0.34334 0.89725 0.0
H353 H 0.24244 0.40623 0.90457 0.0
H354 H 0.25657 0.28056 0.9301 0.0
O355 O 0.30149 0.33379 0.88211 0.0
O356 O 0.29161 0.26741 0.89474 0.0
O357 O 0.18462 0.27319 0.89187 0.0
C358 C 0.31974 0.29822 0.88916 0.0
H359 H 0.22713 0.19375 0.83447 0.0
H360 H 0.25404 0.41866 0.9412 0.0
H361 H 0.10328 0.40094 0.88654 0.0
H362 H 0.20722 0.44749 0.84932 0.0
Co363 Co 0.73779 0.24355 0.38087 0.0
C364 C 0.75613 0.25445 0.33999 0.0
C365 C 0.8159 0.24167 0.35612 0.0
C366 C 0.82742 0.24533 0.33748 0.0
N367 N 0.77125 0.24692 0.35765 0.0
N368 N 0.78981 0.25293 0.32724 0.0
H369 H 0.72102 0.25921 0.33657 0.0
H370 H 0.83846 0.23533 0.36777 0.0
C371 C 0.75368 0.15177 0.39538 0.0
O372 O 0.71121 0.15315 0.40024 0.0
N373 N 0.70654 0.24284 0.40503 0.0
C374 C 0.6678 0.2637 0.40957 0.0
C375 C 0.66163 0.26158 0.42869 0.0
C376 C 0.72495 0.23163 0.42187 0.0
N377 N 0.69758 0.24136 0.43641 0.0
C378 C 0.64844 0.20837 0.37064 0.0
C379 C 0.68188 0.13734 0.35011 0.0
C380 C 0.63611 0.13752 0.3545 0.0
C381 C 0.61919 0.17475 0.36432 0.0
C382 C 0.70987 0.17062 0.35724 0.0
N383 N 0.69372 0.20437 0.36834 0.0
H384 H 0.63435 0.23675 0.37763 0.0
H385 H 0.7453 0.16796 0.35442 0.0
H386 H 0.64711 0.2829 0.40006 0.0
H387 H 0.75827 0.2177 0.4235 0.0
O388 O 0.71177 0.30161 0.37562 0.0
O389 O 0.77569 0.29126 0.39103 0.0
O390 O 0.77233 0.18656 0.38809 0.0
C391 C 0.74587 0.31916 0.38442 0.0
H392 H 0.86113 0.24267 0.332 0.0
H393 H 0.63429 0.2765 0.43647 0.0
H394 H 0.69663 0.11092 0.34176 0.0
H395 H 0.58398 0.17736 0.36783 0.0
Co396 Co 0.29245 0.80536 0.1353 0.0
C397 C 0.27487 0.79006 0.17667 0.0
C398 C 0.3447 0.79342 0.16949 0.0
C399 C 0.34152 0.79087 0.18862 0.0
N400 N 0.30317 0.79284 0.16181 0.0
N401 N 0.2978 0.78893 0.19317 0.0
H402 H 0.23866 0.79184 0.17562 0.0
H403 H 0.37523 0.79975 0.16187 0.0
C404 C 0.37552 0.76124 0.11585 0.0
O405 O 0.36129 0.77047 0.09886 0.0
N406 N 0.28123 0.81918 0.10903 0.0
C407 C 0.27191 0.86056 0.10261 0.0
C408 C 0.26126 0.85802 0.08386 0.0
C409 C 0.27377 0.79164 0.09422 0.0
N410 N 0.26287 0.8148 0.07854 0.0
C411 C 0.3205 0.88808 0.15231 0.0
C412 C 0.393 0.90202 0.12891 0.0
C413 C 0.38726 0.93026 0.14445 0.0
C414 C 0.34978 0.92367 0.15602 0.0
C415 C 0.36301 0.86723 0.12572 0.0
N416 N 0.32858 0.85922 0.13782 0.0
H417 H 0.29224 0.88254 0.16151 0.0
H418 H 0.36777 0.84677 0.11348 0.0
H419 H 0.27262 0.89069 0.11104 0.0
H420 H 0.27688 0.7556 0.09479 0.0
O421 O 0.23406 0.83081 0.14042 0.0
O422 O 0.24542 0.75938 0.13399 0.0
O423 O 0.35052 0.76957 0.13015 0.0
C424 C 0.2168 0.79162 0.13722 0.0
H425 H 0.36917 0.79274 0.19854 0.0
H426 H 0.25439 0.88599 0.07464 0.0
H427 H 0.42128 0.90572 0.11952 0.0
H428 H 0.34348 0.94535 0.16793 0.0
Co429 Co 0.23285 0.289 0.63551 0.0
C430 C 0.24318 0.28169 0.67801 0.0
C431 C 0.30458 0.2747 0.66271 0.0
C432 C 0.3142 0.27173 0.68156 0.0
N433 N 0.26011 0.28124 0.66033 0.0
N434 N 0.27565 0.27643 0.69122 0.0
H435 H 0.20859 0.28756 0.68143 0.0
H436 H 0.32871 0.27301 0.65142 0.0
C437 C 0.2769 0.3762 0.6443 0.0
O438 O 0.2632 0.36813 0.66146 0.0
N439 N 0.20738 0.29495 0.61061 0.0
C440 C 0.16368 0.2896 0.60613 0.0
C441 C 0.15831 0.29659 0.58718 0.0
C442 C 0.22833 0.30414 0.59426 0.0
N443 N 0.19886 0.30567 0.57974 0.0
C444 C 0.15114 0.30962 0.65616 0.0
C445 C 0.14197 0.39454 0.64139 0.0
C446 C 0.10953 0.37904 0.6539 0.0
C447 C 0.1142 0.33596 0.6614 0.0
C448 C 0.17782 0.36744 0.63662 0.0
N449 N 0.18381 0.32643 0.64472 0.0
H450 H 0.1529 0.27538 0.66092 0.0
H451 H 0.19968 0.37908 0.62562 0.0
H452 H 0.13751 0.28105 0.61599 0.0
H453 H 0.26413 0.30966 0.59304 0.0
O454 O 0.20443 0.23083 0.63762 0.0
O455 O 0.27244 0.24147 0.62625 0.0
O456 O 0.27097 0.34593 0.63153 0.0
C457 C 0.24042 0.2134 0.63045 0.0
H458 H 0.34716 0.2665 0.68763 0.0
H459 H 0.12713 0.29403 0.57935 0.0
H460 H 0.13925 0.42724 0.63495 0.0
H461 H 0.08885 0.32226 0.67061 0.0
Co462 Co 0.7614 0.23468 0.13204 0.0
C463 C 0.7728 0.24915 0.1732 0.0
C464 C 0.75831 0.31007 0.15842 0.0
C465 C 0.7624 0.31966 0.1773 0.0
N466 N 0.76444 0.26588 0.1559 0.0
N467 N 0.77118 0.28132 0.18658 0.0
H468 H 0.77914 0.21412 0.17593 0.0
H469 H 0.75077 0.33354 0.1473 0.0
C470 C 0.6688 0.25271 0.11798 0.0
O471 O 0.66919 0.21096 0.11223 0.0
N472 N 0.76128 0.2053 0.10731 0.0
C473 C 0.7868 0.16979 0.10235 0.0
C474 C 0.78639 0.16501 0.08317 0.0
C475 C 0.74764 0.22286 0.09062 0.0
N476 N 0.76167 0.19827 0.07579 0.0
C477 C 0.72505 0.1451 0.13912 0.0
C478 C 0.65581 0.17505 0.16156 0.0
C479 C 0.65476 0.13067 0.15527 0.0
C480 C 0.69113 0.11539 0.14445 0.0
C481 C 0.68905 0.20384 0.15521 0.0
N482 N 0.7221 0.18953 0.14334 0.0
H483 H 0.75253 0.1322 0.13112 0.0
H484 H 0.68673 0.2385 0.15924 0.0
H485 H 0.80725 0.15017 0.11182 0.0
H486 H 0.73017 0.25438 0.08923 0.0
O487 O 0.81937 0.20829 0.13731 0.0
O488 O 0.80957 0.27322 0.12294 0.0
O489 O 0.70448 0.27001 0.12533 0.0
C490 C 0.83728 0.24285 0.12924 0.0
H491 H 0.75788 0.35215 0.18376 0.0
H492 H 0.80418 0.13982 0.07518 0.0
H493 H 0.63019 0.18837 0.17074 0.0
H494 H 0.69275 0.08134 0.13933 0.0
Co495 Co 0.80478 0.74499 0.63395 0.0
C496 C 0.78547 0.75794 0.67465 0.0
C497 C 0.72592 0.74354 0.65856 0.0
C498 C 0.71431 0.74768 0.67721 0.0
N499 N 0.77052 0.74958 0.657 0.0
N500 N 0.75178 0.75645 0.68736 0.0
H501 H 0.82039 0.76408 0.67811 0.0
H502 H 0.70357 0.73574 0.64698 0.0
C503 C 0.78751 0.65332 0.61933 0.0
O504 O 0.83024 0.65389 0.61486 0.0
N505 N 0.83726 0.74324 0.61005 0.0
C506 C 0.87653 0.76364 0.60595 0.0
C507 C 0.88372 0.76164 0.5869 0.0
C508 C 0.81966 0.73232 0.59299 0.0
N509 N 0.84797 0.74189 0.57873 0.0
C510 C 0.89252 0.70707 0.64473 0.0
C511 C 0.85583 0.63822 0.66547 0.0
C512 C 0.90163 0.63644 0.66123 0.0
C513 C 0.92025 0.6726 0.6513 0.0
C514 C 0.82933 0.6721 0.65802 0.0
N515 N 0.84706 0.70485 0.64686 0.0
H516 H 0.90792 0.73454 0.63763 0.0
H517 H 0.79372 0.67057 0.66058 0.0
H518 H 0.89695 0.78253 0.61573 0.0
H519 H 0.78621 0.71888 0.59099 0.0
O520 O 0.83218 0.80236 0.63942 0.0
O521 O 0.76882 0.79372 0.62345 0.0
O522 O 0.76918 0.6886 0.62643 0.0
C523 C 0.79926 0.82084 0.63025 0.0
H524 H 0.68099 0.74309 0.68292 0.0
H525 H 0.91165 0.7765 0.57948 0.0
H526 H 0.83982 0.61276 0.67391 0.0
H527 H 0.95558 0.6737 0.64786 0.0
C528 C 0.26294 0.21686 0.22178 0.0
C529 C 0.26482 0.25506 0.21029 0.0
C530 C 0.26477 0.22019 0.24147 0.0
C531 C 0.26953 0.26267 0.25005 0.0
C532 C 0.27203 0.30133 0.23867 0.0
C533 C 0.26928 0.29713 0.21901 0.0
C534 C 0.26148 0.17816 0.25313 0.0
C535 C 0.27773 0.34723 0.24727 0.0
C536 C 0.23649 0.27827 0.3013 0.0
C537 C 0.27816 0.27518 0.31062 0.0
C538 C 0.23311 0.27363 0.28167 0.0
C539 C 0.27239 0.2666 0.27093 0.0
C540 C 0.31448 0.26344 0.28014 0.0
C541 C 0.31679 0.26725 0.29981 0.0
C542 C 0.18747 0.27653 0.2724 0.0
C543 C 0.35726 0.25645 0.26918 0.0
H544 H 0.26018 0.18404 0.2155 0.0
H545 H 0.27032 0.32712 0.21058 0.0
H546 H 0.29253 0.17382 0.2616 0.0
H547 H 0.23309 0.18094 0.26311 0.0
H548 H 0.25644 0.14777 0.24435 0.0
H549 H 0.27999 0.37392 0.23648 0.0
H550 H 0.24902 0.35475 0.25663 0.0
H551 H 0.30863 0.34817 0.25606 0.0
H552 H 0.20635 0.28497 0.30923 0.0
H553 H 0.34914 0.26401 0.30663 0.0
H554 H 0.18098 0.24595 0.26394 0.0
H555 H 0.18651 0.30535 0.26262 0.0
H556 H 0.15998 0.28045 0.28278 0.0
H557 H 0.35537 0.22461 0.26118 0.0
H558 H 0.38746 0.25553 0.27841 0.0
H559 H 0.36147 0.28376 0.2588 0.0
C560 C 0.74673 0.23623 0.79959 0.0
C561 C 0.7595 0.27608 0.80862 0.0
C562 C 0.74861 0.23202 0.77991 0.0
C563 C 0.76393 0.26843 0.76896 0.0
C564 C 0.77701 0.30869 0.778 0.0
C565 C 0.77448 0.31206 0.79768 0.0
C566 C 0.73403 0.18865 0.77083 0.0
C567 C 0.79401 0.34813 0.76689 0.0
C568 C 0.81106 0.24518 0.72029 0.0
C569 C 0.77554 0.25825 0.70844 0.0
C570 C 0.80759 0.24807 0.73994 0.0
C571 C 0.76743 0.2641 0.74809 0.0
C572 C 0.73109 0.27662 0.73629 0.0
C573 C 0.73559 0.27363 0.71663 0.0
C574 C 0.84713 0.23429 0.75198 0.0
C575 C 0.68763 0.29372 0.74443 0.0
H576 H 0.73437 0.20856 0.80789 0.0
H577 H 0.78477 0.34278 0.80457 0.0
H578 H 0.70648 0.19501 0.76063 0.0
H579 H 0.76236 0.17393 0.76287 0.0
H580 H 0.72226 0.16377 0.78129 0.0
H581 H 0.80234 0.37723 0.776 0.0
H582 H 0.82452 0.33844 0.75897 0.0
H583 H 0.76835 0.35861 0.75643 0.0
H584 H 0.84173 0.23235 0.71422 0.0
H585 H 0.70809 0.2842 0.70768 0.0
H586 H 0.837 0.20729 0.76175 0.0
H587 H 0.85854 0.26301 0.76069 0.0
H588 H 0.87591 0.22228 0.74347 0.0
H589 H 0.67374 0.26895 0.75444 0.0
H590 H 0.66199 0.30055 0.73341 0.0
H591 H 0.69395 0.325 0.75244 0.0
C592 C 0.80598 0.74966 0.29969 0.0
C593 C 0.76314 0.74856 0.3079 0.0
C594 C 0.81128 0.7536 0.2801 0.0
C595 C 0.77287 0.756 0.26831 0.0
C596 C 0.7296 0.7548 0.27645 0.0
C597 C 0.72528 0.75146 0.29606 0.0
C598 C 0.85804 0.75522 0.27202 0.0
C599 C 0.68773 0.75702 0.26441 0.0
C600 C 0.78255 0.80704 0.21948 0.0
C601 C 0.78552 0.76903 0.20786 0.0
C602 C 0.77909 0.80326 0.23911 0.0
C603 C 0.7778 0.7604 0.24749 0.0
C604 C 0.78039 0.72186 0.23593 0.0
C605 C 0.78448 0.72661 0.21633 0.0
C606 C 0.7767 0.84526 0.25091 0.0
C607 C 0.7787 0.67552 0.24428 0.0
H608 H 0.83556 0.74689 0.3085 0.0
H609 H 0.692 0.75145 0.30208 0.0
H610 H 0.86289 0.72699 0.2621 0.0
H611 H 0.8626 0.78658 0.26393 0.0
H612 H 0.88448 0.75351 0.28307 0.0
H613 H 0.65652 0.75446 0.27284 0.0
H614 H 0.68699 0.78896 0.25652 0.0
H615 H 0.6879 0.72954 0.2539 0.0
H616 H 0.78255 0.84001 0.21327 0.0
H617 H 0.78733 0.69691 0.20771 0.0
H618 H 0.80402 0.84527 0.26158 0.0
H619 H 0.74441 0.8463 0.2586 0.0
H620 H 0.7796 0.8761 0.24232 0.0
H621 H 0.80678 0.67105 0.2544 0.0
H622 H 0.78082 0.6489 0.23339 0.0
H623 H 0.74699 0.67109 0.2522 0.0
C624 C 0.29432 0.79276 0.80035 0.0
C625 C 0.27387 0.75638 0.80932 0.0
C626 C 0.29108 0.79823 0.78076 0.0
C627 C 0.26655 0.76671 0.76991 0.0
C628 C 0.24534 0.73027 0.77893 0.0
C629 C 0.24935 0.72551 0.79849 0.0
C630 C 0.3144 0.83739 0.77166 0.0
C631 C 0.21849 0.69619 0.7679 0.0
C632 C 0.22397 0.79979 0.72141 0.0
C633 C 0.25518 0.7789 0.70953 0.0
C634 C 0.22742 0.79634 0.74105 0.0
C635 C 0.26313 0.77162 0.7491 0.0
C636 C 0.295 0.75077 0.73726 0.0
C637 C 0.29056 0.75453 0.71765 0.0
C638 C 0.19272 0.81903 0.75319 0.0
C639 C 0.3336 0.72414 0.7453 0.0
H640 H 0.31377 0.81641 0.8086 0.0
H641 H 0.23293 0.6977 0.80536 0.0
H642 H 0.33959 0.8251 0.76143 0.0
H643 H 0.28973 0.8578 0.76371 0.0
H644 H 0.33165 0.85922 0.78209 0.0
H645 H 0.20366 0.67006 0.77706 0.0
H646 H 0.19095 0.71302 0.7601 0.0
H647 H 0.24025 0.67967 0.75735 0.0
H648 H 0.19698 0.81937 0.71538 0.0
H649 H 0.31456 0.73781 0.70867 0.0
H650 H 0.2093 0.84316 0.76286 0.0
H651 H 0.17539 0.79386 0.76201 0.0
H652 H 0.1671 0.83717 0.74475 0.0
H653 H 0.3535 0.74523 0.75514 0.0
H654 H 0.35631 0.71114 0.73422 0.0
H655 H 0.32048 0.69544 0.75348 0.0
C656 C 0.74999 0.7385 0.7998 0.0
C657 C 0.76536 0.7783 0.80816 0.0
C658 C 0.74833 0.73354 0.78009 0.0
C659 C 0.76229 0.76923 0.7684 0.0
C660 C 0.7781 0.80931 0.77674 0.0
C661 C 0.77957 0.81328 0.79642 0.0
C662 C 0.73128 0.69022 0.77177 0.0
C663 C 0.79339 0.8482 0.76485 0.0
C664 C 0.79403 0.74724 0.71724 0.0
C665 C 0.75493 0.76034 0.70761 0.0
C666 C 0.79673 0.74938 0.737 0.0
C667 C 0.75955 0.76525 0.74744 0.0
C668 C 0.72009 0.77869 0.73779 0.0
C669 C 0.71826 0.776 0.71806 0.0
C670 C 0.83936 0.73455 0.74671 0.0
C671 C 0.67984 0.79626 0.74831 0.0
H672 H 0.73867 0.71137 0.80864 0.0
H673 H 0.79249 0.84383 0.80258 0.0
H674 H 0.7008 0.69665 0.76316 0.0
H675 H 0.75692 0.6757 0.76229 0.0
H676 H 0.7229 0.6652 0.78273 0.0
H677 H 0.80499 0.87703 0.77349 0.0
H678 H 0.82127 0.83759 0.75557 0.0
H679 H 0.76547 0.85952 0.75564 0.0
H680 H 0.82227 0.73446 0.70934 0.0
H681 H 0.68813 0.78669 0.71077 0.0
H682 H 0.8318 0.70741 0.75682 0.0
H683 H 0.8539 0.76275 0.75488 0.0
H684 H 0.86498 0.72233 0.73662 0.0
H685 H 0.66826 0.7711 0.75865 0.0
H686 H 0.65139 0.80456 0.73878 0.0
H687 H 0.68931 0.82677 0.75631 0.0
C688 C 0.28149 0.76215 0.30244 0.0
C689 C 0.24777 0.78714 0.31126 0.0
C690 C 0.28496 0.76086 0.28273 0.0
C691 C 0.25423 0.78552 0.27154 0.0
C692 C 0.21955 0.81004 0.28035 0.0
C693 C 0.2167 0.81048 0.30006 0.0
C694 C 0.32227 0.73403 0.27389 0.0
C695 C 0.18649 0.83726 0.269 0.0
C696 C 0.29981 0.82315 0.22448 0.0
C697 C 0.28108 0.79174 0.21207 0.0
C698 C 0.29003 0.82239 0.24372 0.0
C699 C 0.26106 0.78898 0.25083 0.0
C700 C 0.24046 0.75822 0.23822 0.0
C701 C 0.25056 0.76015 0.21889 0.0
C702 C 0.31216 0.85634 0.25653 0.0
C703 C 0.20947 0.72208 0.24526 0.0
H704 H 0.30518 0.74354 0.31096 0.0
H705 H 0.19088 0.83035 0.30673 0.0
H706 H 0.3084 0.71115 0.26301 0.0
H707 H 0.34613 0.75688 0.26679 0.0
H708 H 0.34117 0.71396 0.2844 0.0
H709 H 0.15931 0.85146 0.27783 0.0
H710 H 0.20433 0.8652 0.26201 0.0
H711 H 0.17108 0.81639 0.25777 0.0
H712 H 0.32322 0.84772 0.2191 0.0
H713 H 0.2365 0.73566 0.20927 0.0
H714 H 0.33543 0.83914 0.26636 0.0
H715 H 0.28651 0.87367 0.26514 0.0
H716 H 0.33147 0.88184 0.2486 0.0
H717 H 0.2287 0.69842 0.25419 0.0
H718 H 0.19353 0.70302 0.23357 0.0
H719 H 0.18272 0.73677 0.25414 0.0
C720 C 0.30729 0.28979 0.72298 0.0
C721 C 0.27087 0.2774 0.71145 0.0
C722 C 0.30386 0.28949 0.74266 0.0
C723 C 0.26288 0.27682 0.75112 0.0
C724 C 0.22564 0.26526 0.73961 0.0
C725 C 0.2301 0.26559 0.71994 0.0
C726 C 0.34437 0.30207 0.7544 0.0
C727 C 0.18132 0.25166 0.7481 0.0
C728 C 0.26683 0.23025 0.80077 0.0
C729 C 0.25338 0.26715 0.81157 0.0
C730 C 0.27022 0.23305 0.78114 0.0
C731 C 0.25969 0.27374 0.772 0.0
C732 C 0.24649 0.31131 0.78281 0.0
C733 C 0.24367 0.30761 0.80248 0.0
C734 C 0.28497 0.19236 0.77017 0.0
C735 C 0.23476 0.3552 0.77358 0.0
H736 H 0.33864 0.29993 0.71664 0.0
H737 H 0.20189 0.25561 0.71123 0.0
H738 H 0.33587 0.32992 0.76407 0.0
H739 H 0.35469 0.27325 0.76321 0.0
H740 H 0.37341 0.31236 0.74566 0.0
H741 H 0.15491 0.24604 0.73726 0.0
H742 H 0.18566 0.22041 0.75628 0.0
H743 H 0.16953 0.27781 0.758 0.0
H744 H 0.27498 0.19909 0.80773 0.0
H745 H 0.23272 0.33606 0.81072 0.0
H746 H 0.31561 0.20025 0.762 0.0
H747 H 0.25844 0.18259 0.75995 0.0
H748 H 0.29222 0.16333 0.77941 0.0
H749 H 0.26362 0.36744 0.76524 0.0
H750 H 0.22548 0.38134 0.78398 0.0
H751 H 0.20622 0.35035 0.76369 0.0
C752 C 0.82094 0.23975 0.29542 0.0
C753 C 0.78648 0.25635 0.30695 0.0
C754 C 0.81862 0.24312 0.27575 0.0
C755 C 0.78061 0.26303 0.26721 0.0
C756 C 0.74537 0.27931 0.27864 0.0
C757 C 0.74881 0.276 0.29833 0.0
C758 C 0.85707 0.22553 0.2641 0.0
C759 C 0.7041 0.30051 0.27006 0.0
C760 C 0.79294 0.3103 0.21785 0.0
C761 C 0.77476 0.27597 0.2067 0.0
C762 C 0.79514 0.30648 0.23752 0.0
C763 C 0.77826 0.26753 0.24632 0.0
C764 C 0.75985 0.2327 0.23513 0.0
C765 C 0.75858 0.23723 0.21545 0.0
C766 C 0.81568 0.34408 0.24887 0.0
C767 C 0.74106 0.19086 0.24396 0.0
H768 H 0.84982 0.22364 0.3017 0.0
H769 H 0.72212 0.28935 0.30695 0.0
H770 H 0.84479 0.19931 0.25428 0.0
H771 H 0.87129 0.25288 0.25545 0.0
H772 H 0.8844 0.21118 0.27289 0.0
H773 H 0.67892 0.31003 0.28082 0.0
H774 H 0.71375 0.33088 0.26212 0.0
H775 H 0.68814 0.27705 0.25992 0.0
H776 H 0.80588 0.3401 0.21114 0.0
H777 H 0.74388 0.2109 0.20692 0.0
H778 H 0.84461 0.33139 0.25717 0.0
H779 H 0.79077 0.35731 0.25901 0.0
H780 H 0.82743 0.37205 0.23989 0.0
H781 H 0.76759 0.17368 0.25221 0.0
H782 H 0.72748 0.1671 0.23332 0.0
H783 H 0.7138 0.19977 0.25387 0.0
C784 C 0.284 0.30583 0.05327 0.0
C785 C 0.26041 0.34086 0.06181 0.0
C786 C 0.28481 0.30142 0.03358 0.0
C787 C 0.26049 0.33213 0.02231 0.0
C788 C 0.23499 0.36631 0.03101 0.0
C789 C 0.2358 0.37059 0.05064 0.0
C790 C 0.31314 0.26517 0.02483 0.0
C791 C 0.20765 0.39905 0.01958 0.0
C792 C 0.29276 0.36235 0.97245 0.0
C793 C 0.26117 0.33817 0.96193 0.0
C794 C 0.29482 0.35834 0.99209 0.0
C795 C 0.26347 0.33061 1.00143 0.0
C796 C 0.23235 0.30502 0.99076 0.0
C797 C 0.23202 0.30868 0.97106 0.0
C798 C 0.32935 0.38525 1.00287 0.0
C799 C 0.19766 0.27595 1.00016 0.0
H800 H 0.30326 0.28312 0.062 0.0
H801 H 0.21722 0.39732 0.05735 0.0
H802 H 0.29287 0.24519 0.01473 0.0
H803 H 0.34098 0.28062 0.01681 0.0
H804 H 0.32772 0.24231 0.03553 0.0
H805 H 0.18674 0.42115 0.02856 0.0
H806 H 0.23035 0.42032 0.0111 0.0
H807 H 0.18529 0.38085 0.00965 0.0
H808 H 0.31541 0.38489 0.96527 0.0
H809 H 0.20734 0.29041 0.96283 0.0
H810 H 0.34711 0.36371 0.01319 0.0
H811 H 0.31238 0.4122 0.01088 0.0
H812 H 0.35457 0.40079 0.99346 0.0
H813 H 0.21374 0.25369 0.01066 0.0
H814 H 0.17871 0.25509 0.98989 0.0
H815 H 0.17346 0.29744 1.00782 0.0
C816 C 0.748 0.24397 0.46418 0.0
C817 C 0.70568 0.23521 0.45624 0.0
C818 C 0.75457 0.24263 0.48381 0.0
C819 C 0.71814 0.23144 0.49569 0.0
C820 C 0.67602 0.22028 0.48757 0.0
C821 C 0.67024 0.22278 0.46801 0.0
C822 C 0.79977 0.2554 0.49187 0.0
C823 C 0.63647 0.20731 0.49961 0.0
C824 C 0.73214 0.20104 0.5475 0.0
C825 C 0.71626 0.23993 0.5562 0.0
C826 C 0.73488 0.19817 0.52774 0.0
C827 C 0.72225 0.23543 0.51659 0.0
C828 C 0.70899 0.27567 0.52552 0.0
C829 C 0.70561 0.27718 0.54518 0.0
C830 C 0.74857 0.15448 0.51882 0.0
C831 C 0.69616 0.31655 0.51429 0.0
H832 H 0.77535 0.25388 0.45511 0.0
H833 H 0.63769 0.21546 0.46184 0.0
H834 H 0.79693 0.28785 0.49937 0.0
H835 H 0.81112 0.23023 0.50229 0.0
H836 H 0.82577 0.25866 0.48081 0.0
H837 H 0.60747 0.19537 0.49107 0.0
H838 H 0.64624 0.18057 0.50961 0.0
H839 H 0.62549 0.23656 0.50803 0.0
H840 H 0.73994 0.17218 0.5561 0.0
H841 H 0.69352 0.30725 0.55202 0.0
H842 H 0.77407 0.16016 0.50776 0.0
H843 H 0.71889 0.1389 0.51193 0.0
H844 H 0.76236 0.13059 0.5293 0.0
H845 H 0.72226 0.32402 0.50367 0.0
H846 H 0.69157 0.3465 0.52335 0.0
H847 H 0.66426 0.31012 0.50661 0.0
C848 C 0.7696 0.70204 0.96527 0.0
C849 C 0.81278 0.70131 0.95744 0.0
C850 C 0.7635 0.70279 0.98492 0.0
C851 C 0.80144 0.70282 0.99707 0.0
C852 C 0.84502 0.70366 0.98922 0.0
C853 C 0.85011 0.70304 0.9696 0.0
C854 C 0.71644 0.70209 0.99269 0.0
C855 C 0.88647 0.70382 1.00156 0.0
C856 C 0.79072 0.73155 0.04935 0.0
C857 C 0.78915 0.6889 0.05753 0.0
C858 C 0.79391 0.73676 0.02968 0.0
C859 C 0.79597 0.69844 0.01792 0.0
C860 C 0.79468 0.6554 0.02614 0.0
C861 C 0.79128 0.65121 0.04575 0.0
C862 C 0.79505 0.78323 0.02149 0.0
C863 C 0.7974 0.61358 0.01424 0.0
H864 H 0.74058 0.70071 0.95604 0.0
H865 H 0.88363 0.70379 0.9638 0.0
H866 H 0.71051 0.66998 1.00006 0.0
H867 H 0.71216 0.72928 1.00317 0.0
H868 H 0.69057 0.70593 0.9815 0.0
H869 H 0.91788 0.70706 0.99331 0.0
H870 H 0.88491 0.73176 0.01182 0.0
H871 H 0.88808 0.67229 0.00973 0.0
H872 H 0.78865 0.76085 0.05828 0.0
H873 H 0.79086 0.61815 0.05191 0.0
H874 H 0.7672 0.78735 0.01122 0.0
H875 H 0.8269 0.78836 0.01375 0.0
H876 H 0.79215 0.80959 0.03245 0.0
H877 H 0.77001 0.61339 1.00361 0.0
H878 H 0.79493 0.58259 0.02276 0.0
H879 H 0.82967 0.61303 1.00651 0.0
C880 C 0.36781 0.82265 0.47288 0.0
C881 C 0.33663 0.80112 0.46105 0.0
C882 C 0.36437 0.82029 0.49249 0.0
C883 C 0.32848 0.79624 0.50064 0.0
C884 C 0.2958 0.77587 0.48887 0.0
C885 C 0.30035 0.77839 0.46921 0.0
C886 C 0.40005 0.84246 0.5045 0.0
C887 C 0.25679 0.75033 0.49704 0.0
C888 C 0.35511 0.7501 0.549 0.0
C889 C 0.33684 0.78281 0.5609 0.0
C890 C 0.35099 0.75319 0.52941 0.0
C891 C 0.32762 0.78972 0.52141 0.0
C892 C 0.30713 0.82173 0.53332 0.0
C893 C 0.31207 0.81796 0.55294 0.0
C894 C 0.37336 0.71828 0.51725 0.0
C895 C 0.28154 0.86092 0.52533 0.0
H896 H 0.39524 0.84138 0.46681 0.0
H897 H 0.27609 0.76156 0.46028 0.0
H898 H 0.38433 0.86561 0.51474 0.0
H899 H 0.41847 0.81671 0.51268 0.0
H900 H 0.42468 0.86153 0.496 0.0
H901 H 0.23186 0.74042 0.48612 0.0
H902 H 0.26929 0.71966 0.50407 0.0
H903 H 0.23961 0.77077 0.50787 0.0
H904 H 0.37323 0.72215 0.55499 0.0
H905 H 0.29791 0.84338 0.56201 0.0
H906 H 0.40074 0.734 0.50905 0.0
H907 H 0.34891 0.7041 0.50704 0.0
H908 H 0.38784 0.6905 0.52566 0.0
H909 H 0.30522 0.88402 0.51826 0.0
H910 H 0.26332 0.87986 0.53637 0.0
H911 H 0.25702 0.84937 0.51457 0.0
C912 C 0.71149 0.21671 0.04911 0.0
C913 C 0.75436 0.20618 0.05602 0.0
C914 C 0.7029 0.21805 0.02961 0.0
C915 C 0.73824 0.20943 0.01679 0.0
C916 C 0.78212 0.20144 0.02381 0.0
C917 C 0.78949 0.19951 0.04329 0.0
C918 C 0.6556 0.2263 0.02276 0.0
C919 C 0.82106 0.19299 0.01075 0.0
C920 C 0.72091 0.15578 0.96888 0.0
C921 C 0.72767 0.1919 0.95671 0.0
C922 C 0.72119 0.16165 0.98847 0.0
C923 C 0.7293 0.20468 0.99617 0.0
C924 C 0.7339 0.24175 0.98393 0.0
C925 C 0.73272 0.23495 0.96432 0.0
C926 C 0.71527 0.12128 1.00093 0.0
C927 C 0.74299 0.28808 0.99149 0.0
H928 H 0.68429 0.22159 0.05897 0.0
H929 H 0.82276 0.19195 0.04865 0.0
H930 H 0.65531 0.25184 0.01148 0.0
H931 H 0.64175 0.19497 0.01665 0.0
H932 H 0.63313 0.23749 0.03427 0.0
H933 H 0.85367 0.19144 0.01837 0.0
H934 H 0.81589 0.16082 1.00323 0.0
H935 H 0.82299 0.21971 0.99999 0.0
H936 H 0.71662 0.12258 0.96299 0.0
H937 H 0.7384 0.2629 0.95496 0.0
H938 H 0.6903 0.12833 0.01207 0.0
H939 H 0.74761 0.11337 1.00799 0.0
H940 H 0.70415 0.09133 0.99288 0.0
H941 H 0.71969 0.29617 1.00313 0.0
H942 H 0.73968 0.31405 0.98043 0.0
H943 H 0.77764 0.2895 0.99729 0.0
C944 C 0.79859 0.74391 0.55057 0.0
C945 C 0.84089 0.73648 0.55875 0.0
C946 C 0.79295 0.74362 0.53087 0.0
C947 C 0.83038 0.73511 0.51913 0.0
C948 C 0.87256 0.72527 0.52744 0.0
C949 C 0.87732 0.7264 0.54708 0.0
C950 C 0.74752 0.75465 0.52263 0.0
C951 C 0.91325 0.71531 0.51555 0.0
C952 C 0.81962 0.70867 0.46672 0.0
C953 C 0.83307 0.7493 0.45872 0.0
C954 C 0.81683 0.70378 0.48639 0.0
C955 C 0.82703 0.74065 0.49827 0.0
C956 C 0.83811 0.78238 0.49012 0.0
C957 C 0.84133 0.78605 0.47051 0.0
C958 C 0.80526 0.65863 0.49446 0.0
C959 C 0.84846 0.82282 0.50216 0.0
H960 H 0.77041 0.75199 0.55952 0.0
H961 H 0.90988 0.71999 0.55338 0.0
H962 H 0.749 0.78782 0.5157 0.0
H963 H 0.73799 0.7298 0.51171 0.0
H964 H 0.72088 0.7556 0.53351 0.0
H965 H 0.94245 0.70427 0.52414 0.0
H966 H 0.90531 0.68888 0.50507 0.0
H967 H 0.92306 0.74573 0.50766 0.0
H968 H 0.81342 0.68019 0.45761 0.0
H969 H 0.85102 0.81769 0.46433 0.0
H970 H 0.77878 0.66192 0.50529 0.0
H971 H 0.83536 0.64434 0.50147 0.0
H972 H 0.79356 0.63479 0.48348 0.0
H973 H 0.82136 0.82825 0.51256 0.0
H974 H 0.85236 0.8537 0.49366 0.0
H975 H 0.88006 0.81714 0.51013 0.0
C976 C 0.2307 0.81849 0.04678 0.0
C977 C 0.26144 0.79943 0.05937 0.0
C978 C 0.23531 0.81274 0.02732 0.0
C979 C 0.27202 0.7878 0.02028 0.0
C980 C 0.30101 0.76538 0.033 0.0
C981 C 0.2952 0.77131 0.05246 0.0
C982 C 0.20309 0.83657 0.01432 0.0
C983 C 0.34045 0.7384 0.02611 0.0
C984 C 0.27217 0.7694 0.96727 0.0
C985 C 0.29606 0.80715 0.96121 0.0
C986 C 0.26564 0.76124 0.98655 0.0
C987 C 0.2837 0.79141 0.99999 0.0
C988 C 0.30996 0.8281 0.9939 0.0
C989 C 0.31563 0.83556 0.97462 0.0
C990 C 0.23748 0.72178 0.99245 0.0
C991 C 0.33043 0.86079 1.00774 0.0
H992 H 0.2044 0.83991 0.0522 0.0
H993 H 0.31918 0.75682 0.0622 0.0
H994 H 0.22041 0.86536 1.00771 0.0
H995 H 0.19177 0.81393 1.00286 0.0
H996 H 0.1731 0.84928 0.02187 0.0
H997 H 0.35464 0.7168 0.03735 0.0
H998 H 0.33063 0.7171 0.01397 0.0
H999 H 0.36721 0.76145 0.02127 0.0
H1000 H 0.25679 0.74749 0.95693 0.0
H1001 H 0.33474 0.86429 0.96996 0.0
H1002 H 0.20451 0.73382 0.99761 0.0
H1003 H 0.25387 0.70354 1.00418 0.0
H1004 H 0.23145 0.69809 0.98065 0.0
H1005 H 0.30336 0.87933 0.01505 0.0
H1006 H 0.35282 0.88542 1.0008 0.0
H1007 H 0.35009 0.84268 0.0186 0.0
C1008 C 0.17713 0.33688 0.54912 0.0
C1009 C 0.20771 0.31258 0.56008 0.0
C1010 C 0.18094 0.33847 0.5295 0.0
C1011 C 0.21587 0.31454 0.52055 0.0
C1012 C 0.24844 0.29202 0.53163 0.0
C1013 C 0.24412 0.29157 0.55133 0.0
C1014 C 0.14591 0.36356 0.5183 0.0
C1015 C 0.28604 0.26592 0.52265 0.0
C1016 C 0.18216 0.27139 0.47234 0.0
C1017 C 0.20253 0.3024 0.46036 0.0
C1018 C 0.18807 0.27384 0.49188 0.0
C1019 C 0.21455 0.30863 0.49972 0.0
C1020 C 0.23641 0.33932 0.48766 0.0
C1021 C 0.2304 0.3356 0.46806 0.0
C1022 C 0.16472 0.23995 0.50416 0.0
C1023 C 0.26452 0.37711 0.49547 0.0
H1024 H 0.14934 0.35363 0.55595 0.0
H1025 H 0.26764 0.27258 0.55981 0.0
H1026 H 0.16213 0.38517 0.50765 0.0
H1027 H 0.12416 0.33937 0.51067 0.0
H1028 H 0.1243 0.3847 0.52739 0.0
H1029 H 0.31191 0.25565 0.53309 0.0
H1030 H 0.27209 0.23539 0.51591 0.0
H1031 H 0.30239 0.2859 0.51149 0.0
H1032 H 0.16131 0.24519 0.46638 0.0
H1033 H 0.24605 0.35966 0.45879 0.0
H1034 H 0.13871 0.25686 0.51273 0.0
H1035 H 0.1891 0.22448 0.51403 0.0
H1036 H 0.1483 0.21301 0.49582 0.0
H1037 H 0.24256 0.4011 0.50299 0.0
H1038 H 0.28273 0.3954 0.48426 0.0
H1039 H 0.2893 0.36425 0.50582 0.0
C1040 C 0.11833 0.47417 0.17413 0.0
C1041 C 0.11767 0.43779 0.16172 0.0
C1042 C 0.08173 0.50376 0.17498 0.0
C1043 C 0.04451 0.49721 0.16277 0.0
C1044 C 0.04409 0.46068 0.15011 0.0
C1045 C 0.08041 0.43109 0.14993 0.0
C1046 C 0.08296 0.54214 0.18879 0.0
C1047 C 1.00583 0.45343 0.13639 0.0
C1048 C 0.93061 0.55099 0.17059 0.0
C1049 C 0.93345 0.58816 0.15875 0.0
C1050 C 0.96737 0.52198 0.1727 0.0
C1051 C 1.00705 0.52986 0.16229 0.0
C1052 C 1.00975 0.56733 0.15023 0.0
C1053 C 0.97314 0.59645 0.14886 0.0
C1054 C 0.96361 0.48267 0.18587 0.0
C1055 C 0.05082 0.57606 0.13839 0.0
H1056 H 0.14717 0.47912 0.18327 0.0
H1057 H 0.08024 0.40314 0.14017 0.0
H1058 H 0.08393 0.57431 0.18107 0.0
H1059 H 0.05202 0.54218 0.19743 0.0
H1060 H 0.11263 0.54052 0.19829 0.0
H1061 H 0.99905 0.4845 0.12837 0.0
H1062 H 1.01295 0.42617 0.12621 0.0
H1063 H 0.97481 0.44491 0.14417 0.0
H1064 H 0.89986 0.54494 0.17828 0.0
H1065 H 0.97504 0.62521 0.13962 0.0
H1066 H 0.99266 0.48215 0.1957 0.0
H1067 H 0.96441 0.45104 0.1777 0.0
H1068 H 0.93211 0.48351 0.19417 0.0
H1069 H 0.07936 0.58581 0.1476 0.0
H1070 H 0.04512 0.60305 0.12796 0.0
H1071 H 0.06083 0.54536 0.13069 0.0
C1072 C 0.47861 0.93306 0.66875 0.0
C1073 C 0.43213 0.93733 0.66579 0.0
C1074 C 0.50663 0.97081 0.66934 0.0
C1075 C 0.48757 1.01396 0.66761 0.0
C1076 C 0.44046 0.01879 0.6666 0.0
C1077 C 0.41339 0.98055 0.66526 0.0
C1078 C 0.55687 0.96431 0.67034 0.0
C1079 C 0.41886 0.06439 0.6656 0.0
C1080 C 0.56703 0.11282 0.67358 0.0
C1081 C 0.57856 0.12115 0.65483 0.0
C1082 C 0.536 0.07905 0.67809 0.0
C1083 C 0.51685 0.05288 0.66347 0.0
C1084 C 0.52682 0.06275 0.6445 0.0
C1085 C 0.55706 0.09709 0.64043 0.0
C1086 C 0.52523 0.07029 0.69845 0.0
C1087 C 0.50694 0.03588 0.62845 0.0
H1088 H 0.49354 0.90018 0.6699 0.0
H1089 H 0.37777 0.98498 0.66278 0.0
H1090 H 0.57196 0.97344 0.65663 0.0
H1091 H 0.57188 0.98654 0.68117 0.0
H1092 H 0.56616 0.92918 0.67359 0.0
H1093 H 0.4338 0.08711 0.6763 0.0
H1094 H 0.42522 0.07935 0.65162 0.0
H1095 H 0.382 0.06278 0.66785 0.0
H1096 H 0.5836 0.13138 0.68475 0.0
H1097 H 0.56503 0.10425 0.62589 0.0
H1098 H 0.5434 0.03999 0.70322 0.0
H1099 H 0.48878 0.06401 0.70032 0.0
H1100 H 0.53543 0.0987 0.70763 0.0
H1101 H 0.51642 1.00017 0.62993 0.0
H1102 H 0.51847 0.04782 0.6145 0.0
H1103 H 0.46975 0.03771 0.62879 0.0
C1104 C 0.43159 0.95684 0.8443 0.0
C1105 C 0.42404 0.94448 0.86302 0.0
C1106 C 0.4657 0.98749 0.83977 0.0
C1107 C 0.49294 1.0055 0.85431 0.0
C1108 C 0.48429 0.9943 0.87325 0.0
C1109 C 0.44961 0.96446 0.87737 0.0
C1110 C 0.47325 0.99981 0.81947 0.0
C1111 C 0.51246 1.01288 0.88921 0.0
C1112 C 0.61185 0.04706 0.84783 0.0
C1113 C 0.60635 0.09315 0.85078 0.0
C1114 C 0.5747 0.01811 0.84766 0.0
C1115 C 0.53099 0.03583 0.85006 0.0
C1116 C 0.52488 0.08255 0.85143 0.0
C1117 C 0.56256 0.1105 0.85208 0.0
C1118 C 0.58255 0.96832 0.84636 0.0
C1119 C 0.47882 0.10296 0.85372 0.0
H1120 H 0.4119 0.94147 0.83317 0.0
H1121 H 0.44308 0.95598 0.89191 0.0
H1122 H 0.47364 0.03671 0.81787 0.0
H1123 H 0.50647 0.98726 0.81485 0.0
H1124 H 0.44698 0.98566 0.81003 0.0
H1125 H 0.54823 1.00379 0.88715 0.0
H1126 H 0.51042 0.0499 0.8894 0.0
H1127 H 0.50162 1.00019 0.90314 0.0
H1128 H 0.64529 0.03329 0.84636 0.0
H1129 H 0.55744 0.14578 0.85473 0.0
H1130 H 0.55929 0.95291 0.83598 0.0
H1131 H 0.57562 0.95277 0.86021 0.0
H1132 H 0.61761 0.96021 0.84233 0.0
H1133 H 0.45384 0.08604 0.84451 0.0
H1134 H 0.47887 0.13927 0.85044 0.0
H1135 H 0.46769 0.09881 0.86848 0.0
C1136 C 0.03989 0.41798 0.35669 0.0
C1137 C 0.08521 0.42028 0.3518 0.0
C1138 C 1.01167 0.45492 0.35395 0.0
C1139 C 0.02957 0.4946 0.34608 0.0
C1140 C 0.07429 0.49529 0.33946 0.0
C1141 C 0.10182 0.45809 0.34259 0.0
C1142 C 0.96415 0.45296 0.36124 0.0
C1143 C 0.09439 0.53665 0.33074 0.0
C1144 C 0.94619 0.58771 0.33659 0.0
C1145 C 0.94951 0.61251 0.35331 0.0
C1146 C 0.97343 0.55013 0.33358 0.0
C1147 C 1.00415 0.53699 0.34774 0.0
C1148 C 1.00905 0.56316 0.36426 0.0
C1149 C 0.98175 0.60073 0.3668 0.0
C1150 C 0.96811 0.52357 0.31564 0.0
C1151 C 0.04159 0.55025 0.3797 0.0
H1152 H 0.02754 0.38874 0.36404 0.0
H1153 H 0.13716 0.45966 0.33901 0.0
H1154 H 0.94028 0.46706 0.35081 0.0
H1155 H 0.95365 0.41824 0.3646 0.0
H1156 H 0.96163 0.47348 0.37422 0.0
H1157 H 0.12574 0.52892 0.32297 0.0
H1158 H 0.07019 0.55275 0.32097 0.0
H1159 H 0.10261 0.56119 0.34197 0.0
H1160 H 0.92152 0.5971 0.32606 0.0
H1161 H 0.984 0.61951 0.37983 0.0
H1162 H 0.95253 0.49075 0.31879 0.0
H1163 H 1.0014 0.51686 0.30929 0.0
H1164 H 0.94672 0.54112 0.30516 0.0
H1165 H 0.0321 0.51718 0.38552 0.0
H1166 H 0.04224 0.575 0.39137 0.0
H1167 H 0.07604 0.54713 0.37399 0.0
C1168 C 0.97916 0.63046 0.8502 0.0
C1169 C 0.93617 0.61084 0.84965 0.0
C1170 C 1.01809 0.60431 0.84934 0.0
C1171 C 1.0141 0.55728 0.84854 0.0
C1172 C 0.97109 0.53733 0.84682 0.0
C1173 C 0.93265 0.56442 0.84716 0.0
C1174 C 0.06338 0.62694 0.85074 0.0
C1175 C 0.96544 0.48716 0.84616 0.0
C1176 C 0.11325 0.47831 0.84301 0.0
C1177 C 0.12142 0.46682 0.86181 0.0
C1178 C 0.07972 0.50956 0.83837 0.0
C1179 C 0.05366 0.52891 0.85287 0.0
C1180 C 0.06369 0.51924 0.8719 0.0
C1181 C 0.09784 0.48884 0.87611 0.0
C1182 C 0.07094 0.52037 0.81797 0.0
C1183 C 0.03685 0.5392 0.88784 0.0
H1184 H 0.98277 0.66614 0.85241 0.0
H1185 H 0.89979 0.54896 0.84624 0.0
H1186 H 0.06121 0.66324 0.84757 0.0
H1187 H 0.07694 0.62313 0.8652 0.0
H1188 H 0.08767 0.61125 0.84096 0.0
H1189 H 0.93034 0.47712 0.84285 0.0
H1190 H 0.98805 0.47226 0.83551 0.0
H1191 H 0.97483 0.47281 0.86001 0.0
H1192 H 0.13158 0.46145 0.83194 0.0
H1193 H 0.10499 0.48093 0.89069 0.0
H1194 H 0.06694 0.55696 0.81604 0.0
H1195 H 0.03916 0.50425 0.81336 0.0
H1196 H 0.09843 0.50835 0.80875 0.0
H1197 H 0.04928 0.52831 0.90185 0.0
H1198 H 1.00106 0.52923 0.88645 0.0
H1199 H 0.03822 0.57623 0.88728 0.0
C1200 C 0.6259 0.05442 0.35038 0.0
C1201 C 0.60738 0.09775 0.35012 0.0
C1202 C 0.5987 1.01633 0.34857 0.0
C1203 C 0.55163 0.02139 0.34728 0.0
C1204 C 0.53284 0.06476 0.34589 0.0
C1205 C 0.561 0.10237 0.34703 0.0
C1206 C 0.62009 0.97061 0.34933 0.0
C1207 C 0.48267 0.07156 0.34462 0.0
C1208 C 0.46991 0.92473 0.33984 0.0
C1209 C 0.457 0.91634 0.35842 0.0
C1210 C 0.50252 0.95748 0.33587 0.0
C1211 C 0.52187 0.98242 0.35085 0.0
C1212 C 0.51077 0.97192 0.36965 0.0
C1213 C 0.47889 0.93873 0.37317 0.0
C1214 C 0.5145 0.96681 0.31568 0.0
C1215 C 0.5307 0.9974 0.38608 0.0
H1216 H 0.66146 0.04978 0.35296 0.0
H1217 H 0.54628 0.1354 0.34614 0.0
H1218 H 0.65703 0.97219 0.34731 0.0
H1219 H 0.61329 0.95505 0.36317 0.0
H1220 H 0.60538 0.94842 0.33839 0.0
H1221 H 0.47366 0.10697 0.34179 0.0
H1222 H 0.46807 0.05028 0.33336 0.0
H1223 H 0.46696 0.06139 0.35807 0.0
H1224 H 0.45302 0.90734 0.32843 0.0
H1225 H 0.4695 0.93156 0.38757 0.0
H1226 H 0.55113 0.97261 0.31419 0.0
H1227 H 0.497 0.99754 0.31095 0.0
H1228 H 0.50433 0.93887 0.30625 0.0
H1229 H 0.51888 0.98453 0.39984 0.0
H1230 H 0.52151 0.03328 0.38505 0.0
H1231 H 0.56788 0.99532 0.38582 0.0
C1232 C 0.44258 0.98792 0.13412 0.0
C1233 C 0.42165 0.96475 0.14879 0.0
C1234 C 0.47965 1.01555 0.13755 0.0
C1235 C 0.49544 0.02124 0.15621 0.0
C1236 C 0.47286 1.00021 0.17125 0.0
C1237 C 0.43644 0.97175 0.16734 0.0
C1238 C 0.50279 0.03752 0.12111 0.0
C1239 C 0.48799 1.00653 0.19136 0.0
C1240 C 0.61773 0.05528 0.15898 0.0
C1241 C 0.61436 0.10213 0.15857 0.0
C1242 C 0.57918 0.02826 0.15909 0.0
C1243 C 0.53628 0.04853 0.15961 0.0
C1244 C 0.53262 0.09548 0.16092 0.0
C1245 C 0.57148 0.12173 0.1599 0.0
C1246 C 0.58433 0.97816 0.15743 0.0
C1247 C 0.48741 0.11807 0.16241 0.0
H1248 H 0.43061 0.9836 0.11982 0.0
H1249 H 0.42067 0.95373 0.17874 0.0
H1250 H 0.50232 0.0744 0.1228 0.0
H1251 H 0.53851 0.02698 0.12064 0.0
H1252 H 0.4867 0.02894 0.10744 0.0
H1253 H 0.51991 0.98824 0.19372 0.0
H1254 H 0.4945 0.04238 0.19439 0.0
H1255 H 0.46277 0.99386 0.20151 0.0
H1256 H 0.65041 0.03947 0.15861 0.0
H1257 H 0.56766 0.15769 0.1593 0.0
H1258 H 0.57093 0.96685 0.14362 0.0
H1259 H 0.56463 0.96104 0.16847 0.0
H1260 H 0.61994 0.96741 0.1586 0.0
H1261 H 0.4905 0.15443 0.16541 0.0
H1262 H 0.46729 0.10242 0.17371 0.0
H1263 H 0.46844 0.11361 0.14908 0.0
C1264 C 0.0584 0.41787 0.67662 0.0
C1265 C 0.07055 0.408 0.65806 0.0
C1266 C 0.0271 0.45187 0.68046 0.0
C1267 C 1.00836 0.47661 0.66538 0.0
C1268 C 1.01845 0.46462 0.64661 0.0
C1269 C 0.049 0.43015 0.64321 0.0
C1270 C 1.01609 0.46275 0.70064 0.0
C1271 C 0.999 0.48984 0.63007 0.0
C1272 C 0.90794 0.55317 0.66581 0.0
C1273 C 0.9285 0.59564 0.66578 0.0
C1274 C 0.93333 0.514 0.66774 0.0
C1275 C 0.9806 0.51702 0.66879 0.0
C1276 C 1.00148 0.55952 0.66986 0.0
C1277 C 0.97511 0.59829 0.66869 0.0
C1278 C 0.90982 0.46922 0.66748 0.0
C1279 C 0.05196 0.5641 0.67085 0.0
H1280 H 0.075 0.40068 0.68811 0.0
H1281 H 0.05768 0.42179 0.62884 0.0
H1282 H 0.03585 0.49233 0.7052 0.0
H1283 H 0.97999 0.47108 0.70223 0.0
H1284 H 0.02446 0.43452 0.71016 0.0
H1285 H 1.00992 0.47577 0.61637 0.0
H1286 H 0.96178 0.4891 0.63053 0.0
H1287 H 1.00956 0.52542 0.63077 0.0
H1288 H 0.87216 0.54997 0.66337 0.0
H1289 H 0.99141 0.63064 0.66937 0.0
H1290 H 0.91721 0.45151 0.65414 0.0
H1291 H 0.87282 0.4726 0.66884 0.0
H1292 H 0.92249 0.44794 0.67911 0.0
H1293 H 0.0658 0.54298 0.68228 0.0
H1294 H 0.06276 0.59923 0.67326 0.0
H1295 H 0.06682 0.55224 0.65745 0.0
C1296 C 0.59567 0.27541 0.1038 0.0
C1297 C 0.62409 0.27417 0.11957 0.0
C1298 C 0.54929 0.28354 0.10563 0.0
C1299 C 0.5303 0.28797 0.12379 0.0
C1300 C 0.55917 0.28815 0.13972 0.0
C1301 C 0.60579 0.28243 0.13736 0.0
C1302 C 0.52039 0.28523 0.08816 0.0
C1303 C 0.54054 0.29086 0.15939 0.0
C1304 C 0.41116 0.33239 0.13084 0.0
C1305 C 0.38567 0.29288 0.13133 0.0
C1306 C 0.45792 0.33139 0.12796 0.0
C1307 C 0.48024 0.28977 0.1262 0.0
C1308 C 0.45464 0.24971 0.12687 0.0
C1309 C 0.40762 0.25178 0.1291 0.0
C1310 C 0.48336 0.37493 0.12653 0.0
C1311 C 0.47699 0.20455 0.12541 0.0
H1312 H 0.60954 0.26836 0.09004 0.0
H1313 H 0.62732 0.28096 0.14962 0.0
H1314 H 0.50036 0.25406 0.08698 0.0
H1315 H 0.49645 0.3136 0.08892 0.0
H1316 H 0.54083 0.28871 0.07522 0.0
H1317 H 0.56745 0.29299 0.17023 0.0
H1318 H 0.51825 0.32032 0.16086 0.0
H1319 H 0.51992 0.26067 0.16219 0.0
H1320 H 0.39431 0.36433 0.13229 0.0
H1321 H 0.38813 0.22116 0.1295 0.0
H1322 H 0.50202 0.37607 0.11306 0.0
H1323 H 0.5085 0.37741 0.13804 0.0
H1324 H 0.46083 0.40447 0.12728 0.0
H1325 H 0.45282 0.17664 0.1273 0.0
H1326 H 0.50401 0.20171 0.13615 0.0
H1327 H 0.49296 0.2008 0.11146 0.0
C1328 C 0.79017 0.39166 0.62549 0.0
C1329 C 0.74871 0.3694 0.62604 0.0
C1330 C 0.79238 0.43875 0.62417 0.0
C1331 C 0.7522 0.46422 0.62287 0.0
C1332 C 0.71036 0.44165 0.6229 0.0
C1333 C 0.70913 0.39479 0.62473 0.0
C1334 C 0.83773 0.46134 0.6244 0.0
C1335 C 0.66678 0.46703 0.62096 0.0
C1336 C 0.75674 0.58791 0.63684 0.0
C1337 C 0.7658 0.60864 0.61961 0.0
C1338 C 0.75171 0.5411 0.6381 0.0
C1339 C 0.75395 0.51439 0.6216 0.0
C1340 C 0.75955 0.5357 0.60399 0.0
C1341 C 0.76649 0.5823 0.60327 0.0
C1342 C 0.74732 0.51999 0.65725 0.0
C1343 C 0.76048 0.50909 0.58594 0.0
H1344 H 0.82087 0.37236 0.62658 0.0
H1345 H 0.67691 0.37788 0.62497 0.0
H1346 H 0.86561 0.4372 0.62651 0.0
H1347 H 0.8432 0.47905 0.61093 0.0
H1348 H 0.83905 0.48685 0.63575 0.0
H1349 H 0.63715 0.44445 0.62036 0.0
H1350 H 0.66269 0.49022 0.63302 0.0
H1351 H 0.66731 0.48764 0.60801 0.0
H1352 H 0.75702 0.60773 0.64958 0.0
H1353 H 0.77445 0.59798 0.58996 0.0
H1354 H 0.77763 0.49958 0.66026 0.0
H1355 H 0.71794 0.49718 0.6576 0.0
H1356 H 0.74365 0.54532 0.66859 0.0
H1357 H 0.79182 0.48915 0.58531 0.0
H1358 H 0.75899 0.53095 0.57334 0.0
H1359 H 0.73186 0.4853 0.58538 0.0
C1360 C 0.44436 0.75006 0.13652 0.0
C1361 C 0.42459 0.7511 0.11854 0.0
C1362 C 0.49143 0.74793 0.13894 0.0
C1363 C 0.51983 0.74506 0.12303 0.0
C1364 C 0.50001 0.74363 0.10488 0.0
C1365 C 0.45298 0.74706 0.10286 0.0
C1366 C 0.51082 0.74995 0.15857 0.0
C1367 C 0.52859 0.73919 0.0875 0.0
C1368 C 0.64391 0.77986 0.12633 0.0
C1369 C 0.66539 0.73868 0.1292 0.0
C1370 C 0.59663 0.78258 0.12467 0.0
C1371 C 0.57013 0.74305 0.12533 0.0
C1372 C 0.59189 0.70138 0.12794 0.0
C1373 C 0.63894 0.6998 0.13008 0.0
C1374 C 0.57495 0.82784 0.12235 0.0
C1375 C 0.56552 0.65824 0.12823 0.0
H1376 H 0.42324 0.7519 0.14877 0.0
H1377 H 0.43853 0.74739 0.08884 0.0
H1378 H 0.53086 0.71947 0.16146 0.0
H1379 H 0.53389 0.77899 0.15984 0.0
H1380 H 0.48441 0.75301 0.16948 0.0
H1381 H 0.50806 0.73609 0.07448 0.0
H1382 H 0.55074 0.76885 0.08617 0.0
H1383 H 0.55062 0.7094 0.08867 0.0
H1384 H 0.664 0.81007 0.12573 0.0
H1385 H 0.65519 0.66774 0.13212 0.0
H1386 H 0.54978 0.83324 0.13358 0.0
H1387 H 0.55682 0.82933 0.1087 0.0
H1388 H 0.59985 0.85552 0.12288 0.0
H1389 H 0.54083 0.65889 0.13985 0.0
H1390 H 0.58745 0.6285 0.13004 0.0
H1391 H 0.54628 0.65444 0.11492 0.0
C1392 C 0.28695 0.44082 0.62133 0.0
C1393 C 0.28748 0.42402 0.63976 0.0
C1394 C 0.28966 0.48744 0.61788 0.0
C1395 C 0.29197 0.51807 0.63319 0.0
C1396 C 0.29367 0.50103 0.65172 0.0
C1397 C 0.29212 0.45466 0.65471 0.0
C1398 C 0.28903 0.50399 0.59787 0.0
C1399 C 0.29563 0.5319 0.66857 0.0
C1400 C 0.33446 0.63842 0.63114 0.0
C1401 C 0.29443 0.66321 0.63132 0.0
C1402 C 0.33411 0.59134 0.63031 0.0
C1403 C 0.29267 0.56796 0.63026 0.0
C1404 C 0.25206 0.59291 0.62989 0.0
C1405 C 0.25344 0.64019 0.63013 0.0
C1406 C 0.37827 0.56659 0.63022 0.0
C1407 C 0.20706 0.56967 0.6303 0.0
H1408 H 0.28305 0.41776 0.60965 0.0
H1409 H 0.29286 0.44248 0.66905 0.0
H1410 H 0.25744 0.52256 0.59517 0.0
H1411 H 0.31725 0.52757 0.59554 0.0
H1412 H 0.29148 0.47618 0.58755 0.0
H1413 H 0.29568 0.51342 0.68209 0.0
H1414 H 0.32632 0.55287 0.668 0.0
H1415 H 0.26633 0.55482 0.66838 0.0
H1416 H 0.36634 0.65594 0.63178 0.0
H1417 H 0.22238 0.65908 0.63027 0.0
H1418 H 0.3779 0.53996 0.61933 0.0
H1419 H 0.3836 0.55015 0.64401 0.0
H1420 H 0.40714 0.58923 0.62755 0.0
H1421 H 0.20514 0.54381 0.61912 0.0
H1422 H 0.1787 0.59339 0.62842 0.0
H1423 H 0.20299 0.55238 0.64397 0.0
C1424 C 0.09015 0.26545 0.88604 0.0
C1425 C 0.11107 0.25369 0.90312 0.0
C1426 C 0.04293 0.26486 0.88391 0.0
C1427 C 1.01526 0.25148 0.89908 0.0
C1428 C 0.03614 0.23874 0.91624 0.0
C1429 C 0.08347 0.24026 0.91808 0.0
C1430 C 0.02259 0.27905 0.86538 0.0
C1431 C 1.00839 0.22359 0.93274 0.0
C1432 C 0.88945 0.28272 0.8985 0.0
C1433 C 0.86955 0.24366 0.89126 0.0
C1434 C 0.93663 0.28586 0.90114 0.0
C1435 C 0.96477 0.24891 0.8967 0.0
C1436 C 0.94459 0.20929 0.88967 0.0
C1437 C 0.89769 0.20728 0.88697 0.0
C1438 C 0.95647 0.32895 0.90849 0.0
C1439 C 0.97264 0.16881 0.88489 0.0
H1440 H 0.11066 0.2763 0.87436 0.0
H1441 H 0.09883 0.23126 0.93138 0.0
H1442 H 1.00317 0.25097 0.85915 0.0
H1443 H 0.9988 0.30707 0.86766 0.0
H1444 H 0.04841 0.28986 0.85512 0.0
H1445 H 0.02945 0.21472 0.94512 0.0
H1446 H 0.98469 0.25041 0.9369 0.0
H1447 H 0.98796 0.194 0.9287 0.0
H1448 H 0.86827 0.31108 0.90183 0.0
H1449 H 0.88299 0.17672 0.88149 0.0
H1450 H 0.98048 0.34268 0.8981 0.0
H1451 H 0.9756 0.32256 0.92163 0.0
H1452 H 0.93037 0.35455 0.91138 0.0
H1453 H 0.99688 0.17732 0.87366 0.0
H1454 H 0.95187 0.14008 0.88005 0.0
H1455 H 0.99245 0.15827 0.89736 0.0
C1456 C 0.749 0.89002 0.38796 0.0
C1457 C 0.79044 0.86795 0.38709 0.0
C1458 C 0.74687 0.93709 0.38945 0.0
C1459 C 0.78711 0.96256 0.39074 0.0
C1460 C 0.82894 0.94009 0.39043 0.0
C1461 C 0.83007 0.89333 0.38831 0.0
C1462 C 0.70155 0.95965 0.38941 0.0
C1463 C 0.87259 0.96544 0.39247 0.0
C1464 C 0.78355 0.08643 0.37749 0.0
C1465 C 0.77452 0.10679 0.39484 0.0
C1466 C 0.78804 0.03963 0.37595 0.0
C1467 C 0.78551 1.01263 0.39229 0.0
C1468 C 0.78005 0.03355 0.41004 0.0
C1469 C 0.77347 0.08014 0.41102 0.0
C1470 C 0.79224 0.0189 0.35667 0.0
C1471 C 0.77907 1.00658 0.42794 0.0
H1472 H 0.7183 0.87062 0.38697 0.0
H1473 H 0.86226 0.87644 0.38788 0.0
H1474 H 0.67367 0.93555 0.38704 0.0
H1475 H 0.69604 0.97674 0.40305 0.0
H1476 H 0.7003 0.98564 0.37831 0.0
H1477 H 0.90218 0.94286 0.39291 0.0
H1478 H 0.87666 0.98889 0.38054 0.0
H1479 H 0.87218 0.98577 0.40554 0.0
H1480 H 0.78369 0.10655 0.36489 0.0
H1481 H 0.76566 0.09561 0.42442 0.0
H1482 H 0.76195 0.99837 0.35363 0.0
H1483 H 0.82167 0.99626 0.35614 0.0
H1484 H 0.79568 0.04444 0.34546 0.0
H1485 H 0.74756 0.98684 0.42851 0.0
H1486 H 0.78088 0.02817 0.44065 0.0
H1487 H 0.80748 0.98259 0.42831 0.0
C1488 C 0.95219 0.79616 0.91283 0.0
C1489 C 0.9249 0.79172 0.89673 0.0
C1490 C 0.99953 0.79368 0.91178 0.0
C1491 C 0.02066 0.78613 0.89422 0.0
C1492 C 0.99337 0.78179 0.87791 0.0
C1493 C 0.94619 0.78512 0.87933 0.0
C1494 C 0.02698 0.79889 0.92954 0.0
C1495 C 1.01399 0.7734 0.85888 0.0
C1496 C 0.14257 0.82398 0.88794 0.0
C1497 C 0.16701 0.78404 0.88999 0.0
C1498 C 0.0954 0.825 0.88937 0.0
C1499 C 0.07125 0.785 0.89277 0.0
C1500 C 0.0956 0.74437 0.89475 0.0
C1501 C 0.14311 0.74442 0.89349 0.0
C1502 C 0.07135 0.86916 0.88723 0.0
C1503 C 0.07139 0.70078 0.89809 0.0
H1504 H 0.93656 0.80093 0.92641 0.0
H1505 H 0.92598 0.78192 0.86673 0.0
H1506 H 0.0478 0.76862 0.93183 0.0
H1507 H 0.0503 0.82765 0.92815 0.0
H1508 H 1.00569 0.8043 0.94213 0.0
H1509 H 0.98823 0.76758 0.84779 0.0
H1510 H 0.03484 0.80252 0.85478 0.0
H1511 H 0.03648 0.74387 0.85948 0.0
H1512 H 0.16043 0.8549 0.88528 0.0
H1513 H 0.16145 0.71334 0.895 0.0
H1514 H 0.05146 0.87638 0.90003 0.0
H1515 H 0.04747 0.86742 0.87523 0.0
H1516 H 0.0949 0.89739 0.88484 0.0
H1517 H 0.05267 0.70255 0.91152 0.0
H1518 H 0.09475 0.67186 0.89868 0.0
H1519 H 0.04638 0.69475 0.88674 0.0
C1520 C 0.20304 0.14464 0.38838 0.0
C1521 C 0.24149 0.17065 0.39213 0.0
C1522 C 0.20301 0.09785 0.39059 0.0
C1523 C 0.24256 0.07566 0.39658 0.0
C1524 C 0.28161 0.10162 0.40044 0.0
C1525 C 0.28056 0.14874 0.39828 0.0
C1526 C 0.16043 0.07208 0.38643 0.0
C1527 C 0.32467 0.07952 0.40668 0.0
C1528 C 0.2308 0.95741 0.41708 0.0
C1529 C 0.24138 0.92998 0.40163 0.0
C1530 C 0.23118 1.00458 0.41567 0.0
C1531 C 0.24285 0.02536 0.39845 0.0
C1532 C 0.25305 0.99788 0.38276 0.0
C1533 C 0.2518 0.95087 0.38448 0.0
C1534 C 0.21936 0.03225 0.43271 0.0
C1535 C 0.2659 0.01817 0.36413 0.0
H1536 H 0.17248 0.16095 0.38371 0.0
H1537 H 0.31046 0.1683 0.4012 0.0
H1538 H 0.16633 0.04795 0.37483 0.0
H1539 H 0.15038 0.05247 0.39894 0.0
H1540 H 0.13213 0.09428 0.38236 0.0
H1541 H 0.35205 0.1041 0.40921 0.0
H1542 H 0.31894 0.06039 0.4198 0.0
H1543 H 0.33583 0.05529 0.39582 0.0
H1544 H 0.22287 0.94205 0.43044 0.0
H1545 H 0.26021 0.93044 0.3724 0.0
H1546 H 0.19038 0.05425 0.42944 0.0
H1547 H 0.248 0.05425 0.43656 0.0
H1548 H 0.21076 1.01126 0.44504 0.0
H1549 H 0.23799 0.03913 0.35872 0.0
H1550 H 0.27403 0.9924 0.3534 0.0
H1551 H 0.29551 0.04034 0.366 0.0
C1552 C 0.44631 0.74285 0.90236 0.0
C1553 C 0.43014 0.73611 0.88396 0.0
C1554 C 0.49311 0.743 0.90634 0.0
C1555 C 0.52466 0.73689 0.89159 0.0
C1556 C 0.50824 0.72842 0.8732 0.0
C1557 C 0.46169 0.72764 0.86971 0.0
C1558 C 0.50883 0.7511 0.92624 0.0
C1559 C 0.53997 0.72185 0.8569 0.0
C1560 C 0.6459 0.78118 0.8928 0.0
C1561 C 0.67077 0.74147 0.89421 0.0
C1562 C 0.59832 0.7806 0.89289 0.0
C1563 C 0.57481 0.73946 0.89493 0.0
C1564 C 0.60006 0.69979 0.89767 0.0
C1565 C 0.64741 0.70119 0.89697 0.0
C1566 C 0.57321 0.82369 0.88956 0.0
C1567 C 0.57704 0.65531 0.90039 0.0
H1568 H 0.4226 0.74989 0.91349 0.0
H1569 H 0.44998 0.72215 0.85544 0.0
H1570 H 0.53404 0.72561 0.93038 0.0
H1571 H 0.52543 0.78426 0.92718 0.0
H1572 H 0.48064 0.75032 0.93641 0.0
H1573 H 0.52196 0.71591 0.84341 0.0
H1574 H 0.56158 0.75185 0.85532 0.0
H1575 H 0.56241 0.69299 0.85963 0.0
H1576 H 0.66355 0.8124 0.89048 0.0
H1577 H 0.66626 0.67031 0.89818 0.0
H1578 H 0.54646 0.82805 0.90021 0.0
H1579 H 0.5566 0.82244 0.87557 0.0
H1580 H 0.59575 0.85331 0.89003 0.0
H1581 H 0.54964 0.65836 0.91083 0.0
H1582 H 0.60081 0.62901 0.90515 0.0
H1583 H 0.56163 0.6443 0.88692 0.0
C1584 C 0.27539 0.45112 0.40222 0.0
C1585 C 0.28114 0.43429 0.38392 0.0
C1586 C 0.27652 0.49785 0.40588 0.0
C1587 C 0.28281 0.52864 0.39088 0.0
C1588 C 0.28975 0.51154 0.37255 0.0
C1589 C 0.28936 0.46509 0.36939 0.0
C1590 C 0.26994 0.51434 0.42571 0.0
C1591 C 0.29633 0.54243 0.356 0.0
C1592 C 0.24438 0.65143 0.39199 0.0
C1593 C 0.28553 0.67426 0.39313 0.0
C1594 C 0.24262 0.60406 0.39211 0.0
C1595 C 0.28283 0.57872 0.39396 0.0
C1596 C 0.32404 0.60193 0.3963 0.0
C1597 C 0.32494 0.64907 0.39556 0.0
C1598 C 0.19797 0.58112 0.38915 0.0
C1599 C 0.36769 0.57693 0.39874 0.0
H1600 H 0.26849 0.42799 0.41356 0.0
H1601 H 0.29407 0.45291 0.35518 0.0
H1602 H 0.29734 0.53776 0.42969 0.0
H1603 H 0.23791 0.53311 0.42664 0.0
H1604 H 0.2691 0.4865 0.43602 0.0
H1605 H 0.30039 0.52395 0.34255 0.0
H1606 H 0.26707 0.56518 0.35463 0.0
H1607 H 0.3265 0.56357 0.35828 0.0
H1608 H 0.21379 0.67051 0.39001 0.0
H1609 H 0.3569 0.66633 0.39664 0.0
H1610 H 0.19286 0.55486 0.39991 0.0
H1611 H 0.19761 0.56437 0.37521 0.0
H1612 H 0.1694 0.60496 0.38973 0.0
H1613 H 0.36403 0.55028 0.40946 0.0
H1614 H 0.39568 0.5994 0.40303 0.0
H1615 H 0.37686 0.56049 0.3853 0.0
C1616 C 0.58846 0.31404 0.90978 0.0
C1617 C 0.61293 0.29013 0.89621 0.0
C1618 C 0.54081 0.31416 0.90972 0.0
C1619 C 0.51658 0.29043 0.89558 0.0
C1620 C 0.54116 0.2666 0.88181 0.0
C1621 C 0.58852 0.26644 0.88242 0.0
C1622 C 0.51631 0.3397 0.92482 0.0
C1623 C 0.51749 0.2412 0.86627 0.0
C1624 C 0.39116 0.2606 0.90112 0.0
C1625 C 0.36997 0.29486 0.89092 0.0
C1626 C 0.43859 0.25906 0.90307 0.0
C1627 C 0.46582 0.29231 0.8945 0.0
C1628 C 0.44445 0.32672 0.88411 0.0
C1629 C 0.39722 0.32766 0.88255 0.0
C1630 C 0.45961 0.22178 0.9143 0.0
C1631 C 0.47159 0.36238 0.87435 0.0
H1632 H 0.60652 0.33218 0.92065 0.0
H1633 H 0.60638 0.24784 0.87183 0.0
H1634 H 0.49602 0.36677 0.91838 0.0
H1635 H 0.49269 0.31713 0.93223 0.0
H1636 H 0.53963 0.35477 0.93531 0.0
H1637 H 0.54121 0.22853 0.8555 0.0
H1638 H 0.49922 0.21231 0.87231 0.0
H1639 H 0.49232 0.26283 0.8592 0.0
H1640 H 0.37068 0.23519 0.90774 0.0
H1641 H 0.38157 0.35431 0.87457 0.0
H1642 H 0.48184 0.23586 0.9254 0.0
H1643 H 0.48083 0.20085 0.90501 0.0
H1644 H 0.43406 0.20001 0.92101 0.0
H1645 H 0.49302 0.38035 0.88469 0.0
H1646 H 0.45007 0.38716 0.86698 0.0
H1647 H 0.49428 0.34667 0.86391 0.0
C1648 C 0.71062 0.3933 0.3914 0.0
C1649 C 0.74922 0.36838 0.38721 0.0
C1650 C 0.71266 0.44 0.39403 0.0
C1651 C 0.75399 0.46284 0.39163 0.0
C1652 C 0.79297 0.43777 0.38703 0.0
C1653 C 0.79029 0.39079 0.38528 0.0
C1654 C 0.67069 0.46479 0.3997 0.0
C1655 C 0.83746 0.46063 0.38371 0.0
C1656 C 0.75372 0.58877 0.38149 0.0
C1657 C 0.77106 0.60635 0.39833 0.0
C1658 C 0.74742 0.54226 0.37915 0.0
C1659 C 0.75676 0.51272 0.39427 0.0
C1660 C 0.77077 0.53091 0.41177 0.0
C1661 C 0.7787 0.5772 0.41344 0.0
C1662 C 0.73375 0.52453 0.36008 0.0
C1663 C 0.77925 0.50128 0.42857 0.0
H1664 H 0.67884 0.37602 0.39303 0.0
H1665 H 0.8201 0.37169 0.38186 0.0
H1666 H 0.67676 0.48312 0.41306 0.0
H1667 H 0.66184 0.48998 0.38889 0.0
H1668 H 0.64156 0.44202 0.40161 0.0
H1669 H 0.86386 0.43686 0.37907 0.0
H1670 H 0.83355 0.48697 0.37285 0.0
H1671 H 0.84907 0.47731 0.3968 0.0
H1672 H 0.74808 0.6109 0.36969 0.0
H1673 H 0.79236 0.59053 0.42646 0.0
H1674 H 0.70417 0.5022 0.36129 0.0
H1675 H 0.76158 0.50429 0.35417 0.0
H1676 H 0.72558 0.55176 0.35003 0.0
H1677 H 0.75074 0.47786 0.43057 0.0
H1678 H 0.78415 0.52092 0.4417 0.0
H1679 H 0.80976 0.48085 0.42616 0.0
C1680 C 0.96175 0.74662 0.10549 0.0
C1681 C 0.92949 0.75834 0.11897 0.0
C1682 C 1.0079 0.75446 0.10851 0.0
C1683 C 0.02285 0.7731 0.12579 0.0
C1684 C 0.99033 0.78634 0.13925 0.0
C1685 C 0.94408 0.77965 0.13553 0.0
C1686 C 0.04081 0.74134 0.09339 0.0
C1687 C 1.00449 0.80535 0.15804 0.0
C1688 C 0.14508 0.74605 0.13927 0.0
C1689 C 0.16711 0.78631 0.13516 0.0
C1690 C 0.098 0.74182 0.13697 0.0
C1691 C 0.07245 0.77812 0.12972 0.0
C1692 C 0.09482 0.81863 0.12541 0.0
C1693 C 0.14147 0.82241 0.12846 0.0
C1694 C 0.0755 0.69849 0.1423 0.0
C1695 C 0.0697 0.85767 0.11701 0.0
H1696 H 0.95088 0.72995 0.0927 0.0
H1697 H 0.91963 0.78855 0.14612 0.0
H1698 H 0.06396 0.76951 0.0904 0.0
H1699 H 0.06156 0.71285 0.0983 0.0
H1700 H 0.02369 0.7314 0.08011 0.0
H1701 H 0.9753 0.81549 0.16673 0.0
H1702 H 0.02416 0.77994 0.16588 0.0
H1703 H 0.02662 0.83479 0.15606 0.0
H1704 H 0.16454 0.71809 0.14453 0.0
H1705 H 0.15823 0.8535 0.125 0.0
H1706 H 0.0584 0.68382 0.12986 0.0
H1707 H 0.0493 0.70494 0.15302 0.0
H1708 H 0.09969 0.67364 0.14799 0.0
H1709 H 0.05424 0.84751 0.10342 0.0
H1710 H 0.09185 0.88696 0.11452 0.0
H1711 H 0.04203 0.86808 0.12643 0.0
C1712 C 0.20502 0.13809 0.62519 0.0
C1713 C 0.24404 0.16405 0.62751 0.0
C1714 C 0.20714 0.09125 0.623 0.0
C1715 C 0.24924 0.06921 0.62376 0.0
C1716 C 0.28881 0.0953 0.62612 0.0
C1717 C 0.28579 0.14234 0.62768 0.0
C1718 C 0.16425 0.06533 0.61978 0.0
C1719 C 0.33438 0.07342 0.62732 0.0
C1720 C 0.25376 0.94498 0.63704 0.0
C1721 C 0.2661 0.92487 0.62 0.0
C1722 C 0.24768 0.99171 0.63845 0.0
C1723 C 0.25198 0.01898 0.62223 0.0
C1724 C 0.2609 0.99819 0.6047 0.0
C1725 C 0.26898 0.95175 0.6039 0.0
C1726 C 0.23982 1.0122 0.65756 0.0
C1727 C 0.26389 0.02522 0.58686 0.0
H1728 H 0.17261 0.15456 0.62488 0.0
H1729 H 0.31606 0.16204 0.6296 0.0
H1730 H 0.16699 0.04496 0.60678 0.0
H1731 H 0.1586 0.04188 0.63159 0.0
H1732 H 0.1345 0.08754 0.6185 0.0
H1733 H 0.33453 0.04788 0.63861 0.0
H1734 H 0.34189 0.05589 0.61395 0.0
H1735 H 0.36157 0.09802 0.63013 0.0
H1736 H 0.25209 0.92477 0.64961 0.0
H1737 H 0.27917 0.93658 0.59074 0.0
H1738 H 0.2098 0.03409 0.65726 0.0
H1739 H 0.26902 0.03346 0.66147 0.0
H1740 H 0.23521 0.9865 0.66864 0.0
H1741 H 0.23511 0.04865 0.58577 0.0
H1742 H 0.26433 1.00361 0.57414 0.0
H1743 H 0.29505 0.04556 0.58707 0.0
C1744 C 0.90992 0.28571 0.12992 0.0
C1745 C 0.88665 0.24568 0.12671 0.0
C1746 C 0.95715 0.28752 0.12856 0.0
C1747 C 0.98153 0.24885 0.12305 0.0
C1748 C 0.95781 0.20866 0.11934 0.0
C1749 C 0.91087 0.20734 0.12161 0.0
C1750 C 0.98105 0.33071 0.13322 0.0
C1751 C 0.98192 0.16719 0.11268 0.0
C1752 C 0.09674 0.27513 0.10269 0.0
C1753 C 0.12556 0.26576 0.11785 0.0
C1754 C 0.05027 0.26707 0.10378 0.0
C1755 C 0.0316 0.25096 0.12075 0.0
C1756 C 0.06083 0.23931 0.13579 0.0
C1757 C 0.10757 0.24584 0.13398 0.0
C1758 C 0.02092 0.27804 0.08705 0.0
C1759 C 0.04252 0.22315 0.15432 0.0
H1760 H 0.89131 0.31525 0.13407 0.0
H1761 H 0.89288 0.17638 0.11901 0.0
H1762 H 0.99847 0.34346 0.12057 0.0
H1763 H 0.95765 0.3569 0.13834 0.0
H1764 H 1.00709 0.3248 0.14415 0.0
H1765 H 0.95849 0.13899 0.10988 0.0
H1766 H 1.00065 0.17463 0.0996 0.0
H1767 H 1.00688 0.15642 0.12337 0.0
H1768 H 0.11041 0.29059 0.09018 0.0
H1769 H 0.12947 0.23846 0.14576 0.0
H1770 H 1.00103 0.30855 0.09007 0.0
H1771 H 0.99683 0.25045 0.08424 0.0
H1772 H 0.04096 0.28404 0.07417 0.0
H1773 H 0.02302 0.25044 0.16102 0.0
H1774 H 0.06958 0.21263 0.16416 0.0
H1775 H 1.01921 0.19466 0.15211 0.0
C1776 C 0.78982 0.09215 0.61685 0.0
C1777 C 0.79312 0.10929 0.63521 0.0
C1778 C 0.79253 0.04551 0.6134 0.0
C1779 C 0.79773 1.01528 0.62867 0.0
C1780 C 0.80273 0.03277 0.64706 0.0
C1781 C 0.80104 0.07916 0.65002 0.0
C1782 C 0.7884 0.02851 0.5935 0.0
C1783 C 0.80793 1.00233 0.66387 0.0
C1784 C 0.75711 0.8937 0.62738 0.0
C1785 C 0.79786 0.87023 0.62752 0.0
C1786 C 0.75637 0.94095 0.62689 0.0
C1787 C 0.79729 0.96534 0.62588 0.0
C1788 C 0.83828 0.94143 0.62477 0.0
C1789 C 0.8381 0.8944 0.62595 0.0
C1790 C 0.71192 0.96479 0.62859 0.0
C1791 C 0.88261 0.96558 0.6231 0.0
H1792 H 0.78336 0.11487 0.60531 0.0
H1793 H 0.80401 0.09177 0.66428 0.0
H1794 H 0.81535 1.00394 0.59048 0.0
H1795 H 0.7558 1.011 0.59167 0.0
H1796 H 0.79023 0.05602 0.58306 0.0
H1797 H 0.8109 0.02118 0.6773 0.0
H1798 H 0.77852 0.97962 0.6648 0.0
H1799 H 0.83821 0.98114 0.66228 0.0
H1800 H 0.72592 0.87524 0.62864 0.0
H1801 H 0.86972 0.87643 0.62578 0.0
H1802 H 0.7083 0.99015 0.61734 0.0
H1803 H 0.71061 0.98277 0.64225 0.0
H1804 H 0.68298 0.94138 0.62779 0.0
H1805 H 0.88049 0.99201 0.61221 0.0
H1806 H 0.91047 0.94247 0.61948 0.0
H1807 H 0.89091 0.98219 0.63664 0.0
loop_
_geom_bond_atom_site_label_1
_geom_bond_atom_site_label_2
_geom_bond_distance
_geom_bond_site_symmetry_2
_ccdc_geom_bond_type
Co0 N4 2.148 . S
Co0 N10 2.128 . S
Co0 N20 2.194 . S
Co0 O25 2.351 . S
Co0 O26 2.155 . S
Co0 O27 2.096 . S
C1 N4 1.301 . S
C1 N5 1.328 . S
C1 H6 0.930 . S
C2 C3 1.333 . S
C2 N4 1.317 . S
C2 H7 0.930 . S
C3 C2 1.333 . S
C3 N5 1.350 . S
C3 H29 0.931 . S
N4 Co0 2.148 . S
N4 C1 1.301 . S
N4 C2 1.317 . S
N5 C1 1.328 . S
N5 C3 1.350 . S
H6 C1 0.930 . S
H7 C2 0.930 . S
C8 O9 1.224 1_455 S
C8 O27 1.247 . S
O9 C8 1.224 1_655 S
N10 Co0 2.128 . S
N10 C11 1.355 . S
N10 C13 1.311 . S
C11 N10 1.355 . S
C11 C12 1.363 . S
C11 H23 0.929 . S
C12 C11 1.363 . S
C12 N14 1.375 . S
C12 H30 0.931 . S
C13 N10 1.311 . S
C13 N14 1.347 . S
C13 H24 0.929 . S
N14 C12 1.375 . S
N14 C13 1.347 . S
C15 C18 1.365 . S
C15 N20 1.328 . S
C15 H21 0.929 . S
C16 C17 1.362 . S
C16 C19 1.378 . S
C16 H31 0.929 1_455 S
C17 C16 1.362 . S
C17 C18 1.366 . S
C18 C15 1.365 . S
C18 C17 1.366 . S
C18 H32 0.930 . S
C19 C16 1.378 . S
C19 N20 1.315 . S
C19 H22 0.930 . S
N20 Co0 2.194 . S
N20 C15 1.328 . S
N20 C19 1.315 . S
H21 C15 0.929 . S
H22 C19 0.930 . S
H23 C11 0.929 . S
H24 C13 0.929 . S
O25 Co0 2.351 . S
O25 C28 1.244 . S
O26 Co0 2.155 . S
O26 C28 1.240 . S
O27 Co0 2.096 . S
O27 C8 1.247 . S
C28 O25 1.244 . S
C28 O26 1.240 . S
H29 C3 0.931 . S
H30 C12 0.931 . S
H31 C16 0.929 1_655 S
H32 C18 0.930 . S
Co33 N37 2.148 . S
Co33 N43 2.128 . S
Co33 N53 2.194 . S
Co33 O58 2.351 . S
Co33 O59 2.155 . S
Co33 O60 2.096 . S
C34 N37 1.301 . S
C34 N38 1.328 . S
C34 H39 0.930 . S
C35 C36 1.333 . S
C35 N37 1.317 . S
C35 H40 0.930 . S
C36 C35 1.333 . S
C36 N38 1.350 . S
C36 H62 0.931 . S
N37 Co33 2.148 . S
N37 C34 1.301 . S
N37 C35 1.317 . S
N38 C34 1.328 . S
N38 C36 1.350 . S
H39 C34 0.930 . S
H40 C35 0.930 . S
C41 O42 1.224 1_545 S
C41 O60 1.247 . S
O42 C41 1.224 1_565 S
N43 Co33 2.128 . S
N43 C44 1.355 . S
N43 C46 1.311 . S
C44 N43 1.355 . S
C44 C45 1.363 . S
C44 H56 0.929 . S
C45 C44 1.363 . S
C45 N47 1.375 . S
C45 H63 0.931 . S
C46 N43 1.311 . S
C46 N47 1.347 . S
C46 H57 0.929 . S
N47 C45 1.375 . S
N47 C46 1.347 . S
C48 C51 1.365 . S
C48 N53 1.328 . S
C48 H54 0.929 . S
C49 C50 1.362 . S
C49 C52 1.378 . S
C49 H64 0.929 1_545 S
C50 C49 1.362 . S
C50 C51 1.366 . S
C51 C48 1.365 . S
C51 C50 1.366 . S
C51 H65 0.930 . S
C52 C49 1.378 . S
C52 N53 1.315 . S
C52 H55 0.930 . S
N53 Co33 2.194 . S
N53 C48 1.328 . S
N53 C52 1.315 . S
H54 C48 0.929 . S
H55 C52 0.930 . S
H56 C44 0.929 . S
H57 C46 0.929 . S
O58 Co33 2.351 . S
O58 C61 1.244 . S
O59 Co33 2.155 . S
O59 C61 1.240 . S
O60 Co33 2.096 . S
O60 C41 1.247 . S
C61 O58 1.244 . S
C61 O59 1.240 . S
H62 C36 0.931 . S
H63 C45 0.931 . S
H64 C49 0.929 1_565 S
H65 C51 0.930 . S
Co66 N70 2.148 . S
Co66 N76 2.128 . S
Co66 N86 2.194 . S
Co66 O91 2.351 . S
Co66 O92 2.155 . S
Co66 O93 2.096 . S
C67 N70 1.301 . S
C67 N71 1.328 . S
C67 H72 0.930 . S
C68 C69 1.333 . S
C68 N70 1.317 . S
C68 H73 0.930 . S
C69 C68 1.333 . S
C69 N71 1.350 . S
C69 H95 0.931 . S
N70 Co66 2.148 . S
N70 C67 1.301 . S
N70 C68 1.317 . S
N71 C67 1.328 . S
N71 C69 1.350 . S
H72 C67 0.930 . S
H73 C68 0.930 . S
C74 O75 1.224 1_655 S
C74 O93 1.247 . S
O75 C74 1.224 1_455 S
N76 Co66 2.128 . S
N76 C77 1.355 . S
N76 C79 1.311 . S
C77 N76 1.355 . S
C77 C78 1.363 . S
C77 H89 0.929 . S
C78 C77 1.363 . S
C78 N80 1.375 . S
C78 H96 0.931 . S
C79 N76 1.311 . S
C79 N80 1.347 . S
C79 H90 0.929 . S
N80 C78 1.375 . S
N80 C79 1.347 . S
C81 C84 1.365 . S
C81 N86 1.328 . S
C81 H87 0.929 . S
C82 C83 1.362 . S
C82 C85 1.378 . S
C82 H97 0.929 1_655 S
C83 C82 1.362 . S
C83 C84 1.366 . S
C84 C81 1.365 . S
C84 C83 1.366 . S
C84 H98 0.930 . S
C85 C82 1.378 . S
C85 N86 1.315 . S
C85 H88 0.930 . S
N86 Co66 2.194 . S
N86 C81 1.328 . S
N86 C85 1.315 . S
H87 C81 0.929 . S
H88 C85 0.930 . S
H89 C77 0.929 . S
H90 C79 0.929 . S
O91 Co66 2.351 . S
O91 C94 1.244 . S
O92 Co66 2.155 . S
O92 C94 1.240 . S
O93 Co66 2.096 . S
O93 C74 1.247 . S
C94 O91 1.244 . S
C94 O92 1.240 . S
H95 C69 0.931 . S
H96 C78 0.931 . S
H97 C82 0.929 1_455 S
H98 C84 0.930 . S
Co99 N103 2.148 . S
Co99 N109 2.128 . S
Co99 N119 2.194 . S
Co99 O124 2.351 . S
Co99 O125 2.155 . S
Co99 O126 2.096 . S
C100 N103 1.301 . S
C100 N104 1.328 . S
C100 H105 0.930 . S
C101 C102 1.333 . S
C101 N103 1.317 . S
C101 H106 0.930 . S
C102 C101 1.333 . S
C102 N104 1.350 . S
C102 H128 0.931 . S
N103 Co99 2.148 . S
N103 C100 1.301 . S
N103 C101 1.317 . S
N104 C100 1.328 . S
N104 C102 1.350 . S
H105 C100 0.930 . S
H106 C101 0.930 . S
C107 O108 1.224 1_565 S
C107 O126 1.247 . S
O108 C107 1.224 1_545 S
N109 Co99 2.128 . S
N109 C110 1.355 . S
N109 C112 1.311 . S
C110 N109 1.355 . S
C110 C111 1.363 . S
C110 H122 0.929 . S
C111 C110 1.363 . S
C111 N113 1.375 . S
C111 H129 0.931 . S
C112 N109 1.311 . S
C112 N113 1.347 . S
C112 H123 0.929 . S
N113 C111 1.375 . S
N113 C112 1.347 . S
C114 C117 1.365 . S
C114 N119 1.328 . S
C114 H120 0.929 . S
C115 C116 1.362 . S
C115 C118 1.378 . S
C115 H130 0.929 1_565 S
C116 C115 1.362 . S
C116 C117 1.366 . S
C117 C114 1.365 . S
C117 C116 1.366 . S
C117 H131 0.930 . S
C118 C115 1.378 . S
C118 N119 1.315 . S
C118 H121 0.930 . S
N119 Co99 2.194 . S
N119 C114 1.328 . S
N119 C118 1.315 . S
H120 C114 0.929 . S
H121 C118 0.930 . S
H122 C110 0.929 . S
H123 C112 0.929 . S
O124 Co99 2.351 . S
O124 C127 1.244 . S
O125 Co99 2.155 . S
O125 C127 1.240 . S
O126 Co99 2.096 . S
O126 C107 1.247 . S
C127 O124 1.244 . S
C127 O125 1.240 . S
H128 C102 0.931 . S
H129 C111 0.931 . S
H130 C115 0.929 1_545 S
H131 C117 0.930 . S
Co132 N136 2.148 . S
Co132 N142 2.128 . S
Co132 N152 2.194 . S
Co132 O157 2.351 . S
Co132 O158 2.155 . S
Co132 O159 2.096 . S
C133 N136 1.301 . S
C133 N137 1.328 . S
C133 H138 0.930 . S
C134 C135 1.333 . S
C134 N136 1.317 . S
C134 H139 0.930 . S
C135 C134 1.333 . S
C135 N137 1.350 . S
C135 H161 0.931 . S
N136 Co132 2.148 . S
N136 C133 1.301 . S
N136 C134 1.317 . S
N137 C133 1.328 . S
N137 C135 1.350 . S
H138 C133 0.930 . S
H139 C134 0.930 . S
C140 O141 1.224 . S
C140 O159 1.247 . S
O141 C140 1.224 . S
N142 Co132 2.128 . S
N142 C143 1.355 . S
N142 C145 1.311 . S
C143 N142 1.355 . S
C143 C144 1.363 . S
C143 H155 0.929 . S
C144 C143 1.363 . S
C144 N146 1.375 . S
C144 H162 0.931 . S
C145 N142 1.311 . S
C145 N146 1.347 . S
C145 H156 0.929 . S
N146 C144 1.375 . S
N146 C145 1.347 . S
C147 C150 1.365 . S
C147 N152 1.328 . S
C147 H153 0.929 . S
C148 C149 1.362 . S
C148 C151 1.378 . S
C148 H163 0.929 . S
C149 C148 1.362 . S
C149 C150 1.366 . S
C150 C147 1.365 . S
C150 C149 1.366 . S
C150 H164 0.930 . S
C151 C148 1.378 . S
C151 N152 1.315 . S
C151 H154 0.930 . S
N152 Co132 2.194 . S
N152 C147 1.328 . S
N152 C151 1.315 . S
H153 C147 0.929 . S
H154 C151 0.930 . S
H155 C143 0.929 . S
H156 C145 0.929 . S
O157 Co132 2.351 . S
O157 C160 1.244 . S
O158 Co132 2.155 . S
O158 C160 1.240 . S
O159 Co132 2.096 . S
O159 C140 1.247 . S
C160 O157 1.244 . S
C160 O158 1.240 . S
H161 C135 0.931 . S
H162 C144 0.931 . S
H163 C148 0.929 . S
H164 C150 0.930 . S
Co165 N169 2.148 . S
Co165 N175 2.128 . S
Co165 N185 2.194 . S
Co165 O190 2.351 . S
Co165 O191 2.155 . S
Co165 O192 2.096 . S
C166 N169 1.301 . S
C166 N170 1.328 . S
C166 H171 0.930 . S
C167 C168 1.333 . S
C167 N169 1.317 . S
C167 H172 0.930 . S
C168 C167 1.333 . S
C168 N170 1.350 . S
C168 H194 0.931 . S
N169 Co165 2.148 . S
N169 C166 1.301 . S
N169 C167 1.317 . S
N170 C166 1.328 . S
N170 C168 1.350 . S
H171 C166 0.930 . S
H172 C167 0.930 . S
C173 O174 1.224 . S
C173 O192 1.247 . S
O174 C173 1.224 . S
N175 Co165 2.128 . S
N175 C176 1.355 . S
N175 C178 1.311 . S
C176 N175 1.355 . S
C176 C177 1.363 . S
C176 H188 0.929 . S
C177 C176 1.363 . S
C177 N179 1.375 . S
C177 H195 0.931 . S
C178 N175 1.311 . S
C178 N179 1.347 . S
C178 H189 0.929 . S
N179 C177 1.375 . S
N179 C178 1.347 . S
C180 C183 1.365 . S
C180 N185 1.328 . S
C180 H186 0.929 . S
C181 C182 1.362 . S
C181 C184 1.378 . S
C181 H196 0.929 . S
C182 C181 1.362 . S
C182 C183 1.366 . S
C183 C180 1.365 . S
C183 C182 1.366 . S
C183 H197 0.930 . S
C184 C181 1.378 . S
C184 N185 1.315 . S
C184 H187 0.930 . S
N185 Co165 2.194 . S
N185 C180 1.328 . S
N185 C184 1.315 . S
H186 C180 0.929 . S
H187 C184 0.930 . S
H188 C176 0.929 . S
H189 C178 0.929 . S
O190 Co165 2.351 . S
O190 C193 1.244 . S
O191 Co165 2.155 . S
O191 C193 1.240 . S
O192 Co165 2.096 . S
O192 C173 1.247 . S
C193 O190 1.244 . S
C193 O191 1.240 . S
H194 C168 0.931 . S
H195 C177 0.931 . S
H196 C181 0.929 . S
H197 C183 0.930 . S
Co198 N202 2.148 . S
Co198 N208 2.128 . S
Co198 N218 2.194 . S
Co198 O223 2.351 . S
Co198 O224 2.155 . S
Co198 O225 2.096 . S
C199 N202 1.301 . S
C199 N203 1.328 . S
C199 H204 0.930 . S
C200 C201 1.333 . S
C200 N202 1.317 . S
C200 H205 0.930 . S
C201 C200 1.333 . S
C201 N203 1.350 . S
C201 H227 0.931 . S
N202 Co198 2.148 . S
N202 C199 1.301 . S
N202 C200 1.317 . S
N203 C199 1.328 . S
N203 C201 1.350 . S
H204 C199 0.930 . S
H205 C200 0.930 . S
C206 O207 1.224 . S
C206 O225 1.247 . S
O207 C206 1.224 . S
N208 Co198 2.128 . S
N208 C209 1.355 . S
N208 C211 1.311 . S
C209 N208 1.355 . S
C209 C210 1.363 . S
C209 H221 0.929 . S
C210 C209 1.363 . S
C210 N212 1.375 . S
C210 H228 0.931 . S
C211 N208 1.311 . S
C211 N212 1.347 . S
C211 H222 0.929 . S
N212 C210 1.375 . S
N212 C211 1.347 . S
C213 C216 1.365 . S
C213 N218 1.328 . S
C213 H219 0.929 . S
C214 C215 1.362 . S
C214 C217 1.378 . S
C214 H229 0.929 . S
C215 C214 1.362 . S
C215 C216 1.366 . S
C216 C213 1.365 . S
C216 C215 1.366 . S
C216 H230 0.930 . S
C217 C214 1.378 . S
C217 N218 1.315 . S
C217 H220 0.930 . S
N218 Co198 2.194 . S
N218 C213 1.328 . S
N218 C217 1.315 . S
H219 C213 0.929 . S
H220 C217 0.930 . S
H221 C209 0.929 . S
H222 C211 0.929 . S
O223 Co198 2.351 . S
O223 C226 1.244 . S
O224 Co198 2.155 . S
O224 C226 1.240 . S
O225 Co198 2.096 . S
O225 C206 1.247 . S
C226 O223 1.244 . S
C226 O224 1.240 . S
H227 C201 0.931 . S
H228 C210 0.931 . S
H229 C214 0.929 . S
H230 C216 0.930 . S
Co231 N235 2.148 . S
Co231 N241 2.128 . S
Co231 N251 2.194 . S
Co231 O256 2.351 . S
Co231 O257 2.155 . S
Co231 O258 2.096 . S
C232 N235 1.301 . S
C232 N236 1.328 . S
C232 H237 0.930 . S
C233 C234 1.333 . S
C233 N235 1.317 . S
C233 H238 0.930 . S
C234 C233 1.333 . S
C234 N236 1.350 . S
C234 H260 0.931 . S
N235 Co231 2.148 . S
N235 C232 1.301 . S
N235 C233 1.317 . S
N236 C232 1.328 . S
N236 C234 1.350 . S
H237 C232 0.930 . S
H238 C233 0.930 . S
C239 O240 1.224 . S
C239 O258 1.247 . S
O240 C239 1.224 . S
N241 Co231 2.128 . S
N241 C242 1.355 . S
N241 C244 1.311 . S
C242 N241 1.355 . S
C242 C243 1.363 . S
C242 H254 0.929 . S
C243 C242 1.363 . S
C243 N245 1.375 . S
C243 H261 0.931 . S
C244 N241 1.311 . S
C244 N245 1.347 . S
C244 H255 0.929 . S
N245 C243 1.375 . S
N245 C244 1.347 . S
C246 C249 1.365 . S
C246 N251 1.328 . S
C246 H252 0.929 . S
C247 C248 1.362 . S
C247 C250 1.378 . S
C247 H262 0.929 . S
C248 C247 1.362 . S
C248 C249 1.366 . S
C249 C246 1.365 . S
C249 C248 1.366 . S
C249 H263 0.930 . S
C250 C247 1.378 . S
C250 N251 1.315 . S
C250 H253 0.930 . S
N251 Co231 2.194 . S
N251 C246 1.328 . S
N251 C250 1.315 . S
H252 C246 0.929 . S
H253 C250 0.930 . S
H254 C242 0.929 . S
H255 C244 0.929 . S
O256 Co231 2.351 . S
O256 C259 1.244 . S
O257 Co231 2.155 . S
O257 C259 1.240 . S
O258 Co231 2.096 . S
O258 C239 1.247 . S
C259 O256 1.244 . S
C259 O257 1.240 . S
H260 C234 0.931 . S
H261 C243 0.931 . S
H262 C247 0.929 . S
H263 C249 0.930 . S
Co264 N268 2.148 . S
Co264 N274 2.128 . S
Co264 N284 2.194 . S
Co264 O289 2.351 . S
Co264 O290 2.155 . S
Co264 O291 2.096 . S
C265 N268 1.301 . S
C265 N269 1.328 . S
C265 H270 0.930 . S
C266 C267 1.333 . S
C266 N268 1.317 . S
C266 H271 0.930 . S
C267 C266 1.333 . S
C267 N269 1.350 . S
C267 H293 0.931 . S
N268 Co264 2.148 . S
N268 C265 1.301 . S
N268 C266 1.317 . S
N269 C265 1.328 . S
N269 C267 1.350 . S
H270 C265 0.930 . S
H271 C266 0.930 . S
C272 O273 1.224 1_655 S
C272 O291 1.247 . S
O273 C272 1.224 1_455 S
N274 Co264 2.128 . S
N274 C275 1.355 . S
N274 C277 1.311 . S
C275 N274 1.355 . S
C275 C276 1.363 . S
C275 H287 0.929 . S
C276 C275 1.363 . S
C276 N278 1.375 . S
C276 H294 0.931 . S
C277 N274 1.311 . S
C277 N278 1.347 . S
C277 H288 0.929 . S
N278 C276 1.375 . S
N278 C277 1.347 . S
C279 C282 1.365 . S
C279 N284 1.328 . S
C279 H285 0.929 . S
C280 C281 1.362 . S
C280 C283 1.378 . S
C280 H295 0.929 1_655 S
C281 C280 1.362 . S
C281 C282 1.366 . S
C282 C279 1.365 . S
C282 C281 1.366 . S
C282 H296 0.930 . S
C283 C280 1.378 . S
C283 N284 1.315 . S
C283 H286 0.930 . S
N284 Co264 2.194 . S
N284 C279 1.328 . S
N284 C283 1.315 . S
H285 C279 0.929 . S
H286 C283 0.930 . S
H287 C275 0.929 . S
H288 C277 0.929 . S
O289 Co264 2.351 . S
O289 C292 1.244 . S
O290 Co264 2.155 . S
O290 C292 1.240 . S
O291 Co264 2.096 . S
O291 C272 1.247 . S
C292 O289 1.244 . S
C292 O290 1.240 . S
H293 C267 0.931 . S
H294 C276 0.931 . S
H295 C280 0.929 1_455 S
H296 C282 0.930 . S
Co297 N301 2.148 . S
Co297 N307 2.128 . S
Co297 N317 2.194 . S
Co297 O322 2.351 . S
Co297 O323 2.155 . S
Co297 O324 2.096 . S
C298 N301 1.301 . S
C298 N302 1.328 . S
C298 H303 0.930 . S
C299 C300 1.333 . S
C299 N301 1.317 . S
C299 H304 0.930 . S
C300 C299 1.333 . S
C300 N302 1.350 . S
C300 H326 0.931 . S
N301 Co297 2.148 . S
N301 C298 1.301 . S
N301 C299 1.317 . S
N302 C298 1.328 . S
N302 C300 1.350 . S
H303 C298 0.930 . S
H304 C299 0.930 . S
C305 O306 1.224 1_565 S
C305 O324 1.247 . S
O306 C305 1.224 1_545 S
N307 Co297 2.128 . S
N307 C308 1.355 . S
N307 C310 1.311 . S
C308 N307 1.355 . S
C308 C309 1.363 . S
C308 H320 0.929 . S
C309 C308 1.363 . S
C309 N311 1.375 . S
C309 H327 0.931 . S
C310 N307 1.311 . S
C310 N311 1.347 . S
C310 H321 0.929 . S
N311 C309 1.375 . S
N311 C310 1.347 . S
C312 C315 1.365 . S
C312 N317 1.328 . S
C312 H318 0.929 . S
C313 C314 1.362 . S
C313 C316 1.378 . S
C313 H328 0.929 1_565 S
C314 C313 1.362 . S
C314 C315 1.366 . S
C315 C312 1.365 . S
C315 C314 1.366 . S
C315 H329 0.930 . S
C316 C313 1.378 . S
C316 N317 1.315 . S
C316 H319 0.930 . S
N317 Co297 2.194 . S
N317 C312 1.328 . S
N317 C316 1.315 . S
H318 C312 0.929 . S
H319 C316 0.930 . S
H320 C308 0.929 . S
H321 C310 0.929 . S
O322 Co297 2.351 . S
O322 C325 1.244 . S
O323 Co297 2.155 . S
O323 C325 1.240 . S
O324 Co297 2.096 . S
O324 C305 1.247 . S
C325 O322 1.244 . S
C325 O323 1.240 . S
H326 C300 0.931 . S
H327 C309 0.931 . S
H328 C313 0.929 1_545 S
H329 C315 0.930 . S
Co330 N334 2.148 . S
Co330 N340 2.128 . S
Co330 N350 2.194 . S
Co330 O355 2.351 . S
Co330 O356 2.155 . S
Co330 O357 2.096 . S
C331 N334 1.301 . S
C331 N335 1.328 . S
C331 H336 0.930 . S
C332 C333 1.333 . S
C332 N334 1.317 . S
C332 H337 0.930 . S
C333 C332 1.333 . S
C333 N335 1.350 . S
C333 H359 0.931 . S
N334 Co330 2.148 . S
N334 C331 1.301 . S
N334 C332 1.317 . S
N335 C331 1.328 . S
N335 C333 1.350 . S
H336 C331 0.930 . S
H337 C332 0.930 . S
C338 O339 1.224 1_455 S
C338 O357 1.247 . S
O339 C338 1.224 1_655 S
N340 Co330 2.128 . S
N340 C341 1.355 . S
N340 C343 1.311 . S
C341 N340 1.355 . S
C341 C342 1.363 . S
C341 H353 0.929 . S
C342 C341 1.363 . S
C342 N344 1.375 . S
C342 H360 0.931 . S
C343 N340 1.311 . S
C343 N344 1.347 . S
C343 H354 0.929 . S
N344 C342 1.375 . S
N344 C343 1.347 . S
C345 C348 1.365 . S
C345 N350 1.328 . S
C345 H351 0.929 . S
C346 C347 1.362 . S
C346 C349 1.378 . S
C346 H361 0.929 1_455 S
C347 C346 1.362 . S
C347 C348 1.366 . S
C348 C345 1.365 . S
C348 C347 1.366 . S
C348 H362 0.930 . S
C349 C346 1.378 . S
C349 N350 1.315 . S
C349 H352 0.930 . S
N350 Co330 2.194 . S
N350 C345 1.328 . S
N350 C349 1.315 . S
H351 C345 0.929 . S
H352 C349 0.930 . S
H353 C341 0.929 . S
H354 C343 0.929 . S
O355 Co330 2.351 . S
O355 C358 1.244 . S
O356 Co330 2.155 . S
O356 C358 1.240 . S
O357 Co330 2.096 . S
O357 C338 1.247 . S
C358 O355 1.244 . S
C358 O356 1.240 . S
H359 C333 0.931 . S
H360 C342 0.931 . S
H361 C346 0.929 1_655 S
H362 C348 0.930 . S
Co363 N367 2.148 . S
Co363 N373 2.128 . S
Co363 N383 2.194 . S
Co363 O388 2.351 . S
Co363 O389 2.155 . S
Co363 O390 2.096 . S
C364 N367 1.301 . S
C364 N368 1.328 . S
C364 H369 0.930 . S
C365 C366 1.333 . S
C365 N367 1.317 . S
C365 H370 0.930 . S
C366 C365 1.333 . S
C366 N368 1.350 . S
C366 H392 0.931 . S
N367 Co363 2.148 . S
N367 C364 1.301 . S
N367 C365 1.317 . S
N368 C364 1.328 . S
N368 C366 1.350 . S
H369 C364 0.930 . S
H370 C365 0.930 . S
C371 O372 1.224 1_545 S
C371 O390 1.247 . S
O372 C371 1.224 1_565 S
N373 Co363 2.128 . S
N373 C374 1.355 . S
N373 C376 1.311 . S
C374 N373 1.355 . S
C374 C375 1.363 . S
C374 H386 0.929 . S
C375 C374 1.363 . S
C375 N377 1.375 . S
C375 H393 0.931 . S
C376 N373 1.311 . S
C376 N377 1.347 . S
C376 H387 0.929 . S
N377 C375 1.375 . S
N377 C376 1.347 . S
C378 C381 1.365 . S
C378 N383 1.328 . S
C378 H384 0.929 . S
C379 C380 1.362 . S
C379 C382 1.378 . S
C379 H394 0.929 1_545 S
C380 C379 1.362 . S
C380 C381 1.366 . S
C381 C378 1.365 . S
C381 C380 1.366 . S
C381 H395 0.930 . S
C382 C379 1.378 . S
C382 N383 1.315 . S
C382 H385 0.930 . S
N383 Co363 2.194 . S
N383 C378 1.328 . S
N383 C382 1.315 . S
H384 C378 0.929 . S
H385 C382 0.930 . S
H386 C374 0.929 . S
H387 C376 0.929 . S
O388 Co363 2.351 . S
O388 C391 1.244 . S
O389 Co363 2.155 . S
O389 C391 1.240 . S
O390 Co363 2.096 . S
O390 C371 1.247 . S
C391 O388 1.244 . S
C391 O389 1.240 . S
H392 C366 0.931 . S
H393 C375 0.931 . S
H394 C379 0.929 1_565 S
H395 C381 0.930 . S
Co396 N400 2.148 . S
Co396 N406 2.128 . S
Co396 N416 2.194 . S
Co396 O421 2.351 . S
Co396 O422 2.155 . S
Co396 O423 2.096 . S
C397 N400 1.301 . S
C397 N401 1.328 . S
C397 H402 0.930 . S
C398 C399 1.333 . S
C398 N400 1.317 . S
C398 H403 0.930 . S
C399 C398 1.333 . S
C399 N401 1.350 . S
C399 H425 0.931 . S
N400 Co396 2.148 . S
N400 C397 1.301 . S
N400 C398 1.317 . S
N401 C397 1.328 . S
N401 C399 1.350 . S
H402 C397 0.930 . S
H403 C398 0.930 . S
C404 O405 1.224 . S
C404 O423 1.247 . S
O405 C404 1.224 . S
N406 Co396 2.128 . S
N406 C407 1.355 . S
N406 C409 1.311 . S
C407 N406 1.355 . S
C407 C408 1.363 . S
C407 H419 0.929 . S
C408 C407 1.363 . S
C408 N410 1.375 . S
C408 H426 0.931 . S
C409 N406 1.311 . S
C409 N410 1.347 . S
C409 H420 0.929 . S
N410 C408 1.375 . S
N410 C409 1.347 . S
C411 C414 1.365 . S
C411 N416 1.328 . S
C411 H417 0.929 . S
C412 C413 1.362 . S
C412 C415 1.378 . S
C412 H427 0.929 . S
C413 C412 1.362 . S
C413 C414 1.366 . S
C414 C411 1.365 . S
C414 C413 1.366 . S
C414 H428 0.930 . S
C415 C412 1.378 . S
C415 N416 1.315 . S
C415 H418 0.930 . S
N416 Co396 2.194 . S
N416 C411 1.328 . S
N416 C415 1.315 . S
H417 C411 0.929 . S
H418 C415 0.930 . S
H419 C407 0.929 . S
H420 C409 0.929 . S
O421 Co396 2.351 . S
O421 C424 1.244 . S
O422 Co396 2.155 . S
O422 C424 1.240 . S
O423 Co396 2.096 . S
O423 C404 1.247 . S
C424 O421 1.244 . S
C424 O422 1.240 . S
H425 C399 0.931 . S
H426 C408 0.931 . S
H427 C412 0.929 . S
H428 C414 0.930 . S
Co429 N433 2.148 . S
Co429 N439 2.128 . S
Co429 N449 2.194 . S
Co429 O454 2.351 . S
Co429 O455 2.155 . S
Co429 O456 2.096 . S
C430 N433 1.301 . S
C430 N434 1.328 . S
C430 H435 0.930 . S
C431 C432 1.333 . S
C431 N433 1.317 . S
C431 H436 0.930 . S
C432 C431 1.333 . S
C432 N434 1.350 . S
C432 H458 0.931 . S
N433 Co429 2.148 . S
N433 C430 1.301 . S
N433 C431 1.317 . S
N434 C430 1.328 . S
N434 C432 1.350 . S
H435 C430 0.930 . S
H436 C431 0.930 . S
C437 O438 1.224 . S
C437 O456 1.247 . S
O438 C437 1.224 . S
N439 Co429 2.128 . S
N439 C440 1.355 . S
N439 C442 1.311 . S
C440 N439 1.355 . S
C440 C441 1.363 . S
C440 H452 0.929 . S
C441 C440 1.363 . S
C441 N443 1.375 . S
C441 H459 0.931 . S
C442 N439 1.311 . S
C442 N443 1.347 . S
C442 H453 0.929 . S
N443 C441 1.375 . S
N443 C442 1.347 . S
C444 C447 1.365 . S
C444 N449 1.328 . S
C444 H450 0.929 . S
C445 C446 1.362 . S
C445 C448 1.378 . S
C445 H460 0.929 . S
C446 C445 1.362 . S
C446 C447 1.366 . S
C447 C444 1.365 . S
C447 C446 1.366 . S
C447 H461 0.930 . S
C448 C445 1.378 . S
C448 N449 1.315 . S
C448 H451 0.930 . S
N449 Co429 2.194 . S
N449 C444 1.328 . S
N449 C448 1.315 . S
H450 C444 0.929 . S
H451 C448 0.930 . S
H452 C440 0.929 . S
H453 C442 0.929 . S
O454 Co429 2.351 . S
O454 C457 1.244 . S
O455 Co429 2.155 . S
O455 C457 1.240 . S
O456 Co429 2.096 . S
O456 C437 1.247 . S
C457 O454 1.244 . S
C457 O455 1.240 . S
H458 C432 0.931 . S
H459 C441 0.931 . S
H460 C445 0.929 . S
H461 C447 0.930 . S
Co462 N466 2.148 . S
Co462 N472 2.128 . S
Co462 N482 2.194 . S
Co462 O487 2.351 . S
Co462 O488 2.155 . S
Co462 O489 2.096 . S
C463 N466 1.301 . S
C463 N467 1.328 . S
C463 H468 0.930 . S
C464 C465 1.333 . S
C464 N466 1.317 . S
C464 H469 0.930 . S
C465 C464 1.333 . S
C465 N467 1.350 . S
C465 H491 0.931 . S
N466 Co462 2.148 . S
N466 C463 1.301 . S
N466 C464 1.317 . S
N467 C463 1.328 . S
N467 C465 1.350 . S
H468 C463 0.930 . S
H469 C464 0.930 . S
C470 O471 1.224 . S
C470 O489 1.247 . S
O471 C470 1.224 . S
N472 Co462 2.128 . S
N472 C473 1.355 . S
N472 C475 1.311 . S
C473 N472 1.355 . S
C473 C474 1.363 . S
C473 H485 0.929 . S
C474 C473 1.363 . S
C474 N476 1.375 . S
C474 H492 0.931 . S
C475 N472 1.311 . S
C475 N476 1.347 . S
C475 H486 0.929 . S
N476 C474 1.375 . S
N476 C475 1.347 . S
C477 C480 1.365 . S
C477 N482 1.328 . S
C477 H483 0.929 . S
C478 C479 1.362 . S
C478 C481 1.378 . S
C478 H493 0.929 . S
C479 C478 1.362 . S
C479 C480 1.366 . S
C480 C477 1.365 . S
C480 C479 1.366 . S
C480 H494 0.930 . S
C481 C478 1.378 . S
C481 N482 1.315 . S
C481 H484 0.930 . S
N482 Co462 2.194 . S
N482 C477 1.328 . S
N482 C481 1.315 . S
H483 C477 0.929 . S
H484 C481 0.930 . S
H485 C473 0.929 . S
H486 C475 0.929 . S
O487 Co462 2.351 . S
O487 C490 1.244 . S
O488 Co462 2.155 . S
O488 C490 1.240 . S
O489 Co462 2.096 . S
O489 C470 1.247 . S
C490 O487 1.244 . S
C490 O488 1.240 . S
H491 C465 0.931 . S
H492 C474 0.931 . S
H493 C478 0.929 . S
H494 C480 0.930 . S
Co495 N499 2.148 . S
Co495 N505 2.128 . S
Co495 N515 2.194 . S
Co495 O520 2.351 . S
Co495 O521 2.155 . S
Co495 O522 2.096 . S
C496 N499 1.301 . S
C496 N500 1.328 . S
C496 H501 0.930 . S
C497 C498 1.333 . S
C497 N499 1.317 . S
C497 H502 0.930 . S
C498 C497 1.333 . S
C498 N500 1.350 . S
C498 H524 0.931 . S
N499 Co495 2.148 . S
N499 C496 1.301 . S
N499 C497 1.317 . S
N500 C496 1.328 . S
N500 C498 1.350 . S
H501 C496 0.930 . S
H502 C497 0.930 . S
C503 O504 1.224 . S
C503 O522 1.247 . S
O504 C503 1.224 . S
N505 Co495 2.128 . S
N505 C506 1.355 . S
N505 C508 1.311 . S
C506 N505 1.355 . S
C506 C507 1.363 . S
C506 H518 0.929 . S
C507 C506 1.363 . S
C507 N509 1.375 . S
C507 H525 0.931 . S
C508 N505 1.311 . S
C508 N509 1.347 . S
C508 H519 0.929 . S
N509 C507 1.375 . S
N509 C508 1.347 . S
C510 C513 1.365 . S
C510 N515 1.328 . S
C510 H516 0.929 . S
C511 C512 1.362 . S
C511 C514 1.378 . S
C511 H526 0.929 . S
C512 C511 1.362 . S
C512 C513 1.366 . S
C513 C510 1.365 . S
C513 C512 1.366 . S
C513 H527 0.930 . S
C514 C511 1.378 . S
C514 N515 1.315 . S
C514 H517 0.930 . S
N515 Co495 2.194 . S
N515 C510 1.328 . S
N515 C514 1.315 . S
H516 C510 0.929 . S
H517 C514 0.930 . S
H518 C506 0.929 . S
H519 C508 0.929 . S
O520 Co495 2.351 . S
O520 C523 1.244 . S
O521 Co495 2.155 . S
O521 C523 1.240 . S
O522 Co495 2.096 . S
O522 C503 1.247 . S
C523 O520 1.244 . S
C523 O521 1.240 . S
H524 C498 0.931 . S
H525 C507 0.931 . S
H526 C511 0.929 . S
H527 C513 0.930 . S
C528 C529 1.391 . S
C528 C530 1.394 . S
C528 H544 0.931 . S
C529 C528 1.391 . S
C529 C533 1.376 . S
C530 C528 1.394 . S
C530 C531 1.369 . S
C530 C534 1.531 . S
C531 C530 1.369 . S
C531 C532 1.410 . S
C531 C539 1.503 . S
C532 C531 1.410 . S
C532 C533 1.392 . S
C532 C535 1.511 . S
C533 C529 1.376 . S
C533 C532 1.392 . S
C533 H545 0.929 . S
C534 C530 1.531 . S
C534 H546 0.960 . S
C534 H547 0.962 . S
C534 H548 0.960 . S
C535 C532 1.511 . S
C535 H549 0.961 . S
C535 H550 0.961 . S
C535 H551 0.961 . S
C536 C537 1.370 . S
C536 C538 1.363 . S
C536 H552 0.931 . S
C537 C536 1.370 . S
C537 C541 1.408 . S
C538 C536 1.363 . S
C538 C539 1.370 . S
C538 C542 1.524 . S
C539 C531 1.503 . S
C539 C538 1.370 . S
C539 C540 1.403 . S
C540 C539 1.403 . S
C540 C541 1.404 . S
C540 C543 1.539 . S
C541 C537 1.408 . S
C541 C540 1.404 . S
C541 H553 0.930 . S
C542 C538 1.524 . S
C542 H554 0.956 . S
C542 H555 0.961 . S
C542 H556 0.961 . S
C543 C540 1.539 . S
C543 H557 0.958 . S
C543 H558 0.961 . S
C543 H559 0.960 . S
H544 C528 0.931 . S
H545 C533 0.929 . S
H546 C534 0.960 . S
H547 C534 0.962 . S
H548 C534 0.960 . S
H549 C535 0.961 . S
H550 C535 0.961 . S
H551 C535 0.961 . S
H552 C536 0.931 . S
H553 C541 0.930 . S
H554 C542 0.956 . S
H555 C542 0.961 . S
H556 C542 0.961 . S
H557 C543 0.958 . S
H558 C543 0.961 . S
H559 C543 0.960 . S
C560 C561 1.391 . S
C560 C562 1.394 . S
C560 H576 0.931 . S
C561 C560 1.391 . S
C561 C565 1.376 . S
C562 C560 1.394 . S
C562 C563 1.369 . S
C562 C566 1.531 . S
C563 C562 1.369 . S
C563 C564 1.410 . S
C563 C571 1.503 . S
C564 C563 1.410 . S
C564 C565 1.392 . S
C564 C567 1.511 . S
C565 C561 1.376 . S
C565 C564 1.392 . S
C565 H577 0.929 . S
C566 C562 1.531 . S
C566 H578 0.960 . S
C566 H579 0.962 . S
C566 H580 0.960 . S
C567 C564 1.511 . S
C567 H581 0.961 . S
C567 H582 0.961 . S
C567 H583 0.961 . S
C568 C569 1.370 . S
C568 C570 1.363 . S
C568 H584 0.931 . S
C569 C568 1.370 . S
C569 C573 1.408 . S
C570 C568 1.363 . S
C570 C571 1.370 . S
C570 C574 1.524 . S
C571 C563 1.503 . S
C571 C570 1.370 . S
C571 C572 1.403 . S
C572 C571 1.403 . S
C572 C573 1.404 . S
C572 C575 1.539 . S
C573 C569 1.408 . S
C573 C572 1.404 . S
C573 H585 0.930 . S
C574 C570 1.524 . S
C574 H586 0.956 . S
C574 H587 0.961 . S
C574 H588 0.961 . S
C575 C572 1.539 . S
C575 H589 0.958 . S
C575 H590 0.961 . S
C575 H591 0.960 . S
H576 C560 0.931 . S
H577 C565 0.929 . S
H578 C566 0.960 . S
H579 C566 0.962 . S
H580 C566 0.960 . S
H581 C567 0.961 . S
H582 C567 0.961 . S
H583 C567 0.961 . S
H584 C568 0.931 . S
H585 C573 0.930 . S
H586 C574 0.956 . S
H587 C574 0.961 . S
H588 C574 0.961 . S
H589 C575 0.958 . S
H590 C575 0.961 . S
H591 C575 0.960 . S
C592 C593 1.391 . S
C592 C594 1.394 . S
C592 H608 0.931 . S
C593 C592 1.391 . S
C593 C597 1.376 . S
C594 C592 1.394 . S
C594 C595 1.369 . S
C594 C598 1.531 . S
C595 C594 1.369 . S
C595 C596 1.410 . S
C595 C603 1.503 . S
C596 C595 1.410 . S
C596 C597 1.392 . S
C596 C599 1.511 . S
C597 C593 1.376 . S
C597 C596 1.392 . S
C597 H609 0.929 . S
C598 C594 1.531 . S
C598 H610 0.960 . S
C598 H611 0.962 . S
C598 H612 0.960 . S
C599 C596 1.511 . S
C599 H613 0.961 . S
C599 H614 0.961 . S
C599 H615 0.961 . S
C600 C601 1.370 . S
C600 C602 1.363 . S
C600 H616 0.931 . S
C601 C600 1.370 . S
C601 C605 1.408 . S
C602 C600 1.363 . S
C602 C603 1.370 . S
C602 C606 1.524 . S
C603 C595 1.503 . S
C603 C602 1.370 . S
C603 C604 1.403 . S
C604 C603 1.403 . S
C604 C605 1.404 . S
C604 C607 1.539 . S
C605 C601 1.408 . S
C605 C604 1.404 . S
C605 H617 0.930 . S
C606 C602 1.524 . S
C606 H618 0.956 . S
C606 H619 0.961 . S
C606 H620 0.961 . S
C607 C604 1.539 . S
C607 H621 0.958 . S
C607 H622 0.961 . S
C607 H623 0.960 . S
H608 C592 0.931 . S
H609 C597 0.929 . S
H610 C598 0.960 . S
H611 C598 0.962 . S
H612 C598 0.960 . S
H613 C599 0.961 . S
H614 C599 0.961 . S
H615 C599 0.961 . S
H616 C600 0.931 . S
H617 C605 0.930 . S
H618 C606 0.956 . S
H619 C606 0.961 . S
H620 C606 0.961 . S
H621 C607 0.958 . S
H622 C607 0.961 . S
H623 C607 0.960 . S
C624 C625 1.391 . S
C624 C626 1.394 . S
C624 H640 0.931 . S
C625 C624 1.391 . S
C625 C629 1.376 . S
C626 C624 1.394 . S
C626 C627 1.369 . S
C626 C630 1.531 . S
C627 C626 1.369 . S
C627 C628 1.410 . S
C627 C635 1.503 . S
C628 C627 1.410 . S
C628 C629 1.392 . S
C628 C631 1.511 . S
C629 C625 1.376 . S
C629 C628 1.392 . S
C629 H641 0.929 . S
C630 C626 1.531 . S
C630 H642 0.960 . S
C630 H643 0.962 . S
C630 H644 0.960 . S
C631 C628 1.511 . S
C631 H645 0.961 . S
C631 H646 0.961 . S
C631 H647 0.961 . S
C632 C633 1.370 . S
C632 C634 1.363 . S
C632 H648 0.931 . S
C633 C632 1.370 . S
C633 C637 1.408 . S
C634 C632 1.363 . S
C634 C635 1.370 . S
C634 C638 1.524 . S
C635 C627 1.503 . S
C635 C634 1.370 . S
C635 C636 1.403 . S
C636 C635 1.403 . S
C636 C637 1.404 . S
C636 C639 1.539 . S
C637 C633 1.408 . S
C637 C636 1.404 . S
C637 H649 0.930 . S
C638 C634 1.524 . S
C638 H650 0.956 . S
C638 H651 0.961 . S
C638 H652 0.961 . S
C639 C636 1.539 . S
C639 H653 0.958 . S
C639 H654 0.961 . S
C639 H655 0.960 . S
H640 C624 0.931 . S
H641 C629 0.929 . S
H642 C630 0.960 . S
H643 C630 0.962 . S
H644 C630 0.960 . S
H645 C631 0.961 . S
H646 C631 0.961 . S
H647 C631 0.961 . S
H648 C632 0.931 . S
H649 C637 0.930 . S
H650 C638 0.956 . S
H651 C638 0.961 . S
H652 C638 0.961 . S
H653 C639 0.958 . S
H654 C639 0.961 . S
H655 C639 0.960 . S
C656 C657 1.391 . S
C656 C658 1.394 . S
C656 H672 0.931 . S
C657 C656 1.391 . S
C657 C661 1.376 . S
C658 C656 1.394 . S
C658 C659 1.369 . S
C658 C662 1.531 . S
C659 C658 1.369 . S
C659 C660 1.410 . S
C659 C667 1.503 . S
C660 C659 1.410 . S
C660 C661 1.392 . S
C660 C663 1.511 . S
C661 C657 1.376 . S
C661 C660 1.392 . S
C661 H673 0.929 . S
C662 C658 1.531 . S
C662 H674 0.960 . S
C662 H675 0.962 . S
C662 H676 0.960 . S
C663 C660 1.511 . S
C663 H677 0.961 . S
C663 H678 0.961 . S
C663 H679 0.961 . S
C664 C665 1.370 . S
C664 C666 1.363 . S
C664 H680 0.931 . S
C665 C664 1.370 . S
C665 C669 1.408 . S
C666 C664 1.363 . S
C666 C667 1.370 . S
C666 C670 1.524 . S
C667 C659 1.503 . S
C667 C666 1.370 . S
C667 C668 1.403 . S
C668 C667 1.403 . S
C668 C669 1.404 . S
C668 C671 1.539 . S
C669 C665 1.408 . S
C669 C668 1.404 . S
C669 H681 0.930 . S
C670 C666 1.524 . S
C670 H682 0.956 . S
C670 H683 0.961 . S
C670 H684 0.961 . S
C671 C668 1.539 . S
C671 H685 0.958 . S
C671 H686 0.961 . S
C671 H687 0.960 . S
H672 C656 0.931 . S
H673 C661 0.929 . S
H674 C662 0.960 . S
H675 C662 0.962 . S
H676 C662 0.960 . S
H677 C663 0.961 . S
H678 C663 0.961 . S
H679 C663 0.961 . S
H680 C664 0.931 . S
H681 C669 0.930 . S
H682 C670 0.956 . S
H683 C670 0.961 . S
H684 C670 0.961 . S
H685 C671 0.958 . S
H686 C671 0.961 . S
H687 C671 0.960 . S
C688 C689 1.391 . S
C688 C690 1.394 . S
C688 H704 0.931 . S
C689 C688 1.391 . S
C689 C693 1.376 . S
C690 C688 1.394 . S
C690 C691 1.369 . S
C690 C694 1.531 . S
C691 C690 1.369 . S
C691 C692 1.410 . S
C691 C699 1.503 . S
C692 C691 1.410 . S
C692 C693 1.392 . S
C692 C695 1.511 . S
C693 C689 1.376 . S
C693 C692 1.392 . S
C693 H705 0.929 . S
C694 C690 1.531 . S
C694 H706 0.960 . S
C694 H707 0.962 . S
C694 H708 0.960 . S
C695 C692 1.511 . S
C695 H709 0.961 . S
C695 H710 0.961 . S
C695 H711 0.961 . S
C696 C697 1.370 . S
C696 C698 1.363 . S
C696 H712 0.931 . S
C697 C696 1.370 . S
C697 C701 1.408 . S
C698 C696 1.363 . S
C698 C699 1.370 . S
C698 C702 1.524 . S
C699 C691 1.503 . S
C699 C698 1.370 . S
C699 C700 1.403 . S
C700 C699 1.403 . S
C700 C701 1.404 . S
C700 C703 1.539 . S
C701 C697 1.408 . S
C701 C700 1.404 . S
C701 H713 0.930 . S
C702 C698 1.524 . S
C702 H714 0.956 . S
C702 H715 0.961 . S
C702 H716 0.961 . S
C703 C700 1.539 . S
C703 H717 0.958 . S
C703 H718 0.961 . S
C703 H719 0.960 . S
H704 C688 0.931 . S
H705 C693 0.929 . S
H706 C694 0.960 . S
H707 C694 0.962 . S
H708 C694 0.960 . S
H709 C695 0.961 . S
H710 C695 0.961 . S
H711 C695 0.961 . S
H712 C696 0.931 . S
H713 C701 0.930 . S
H714 C702 0.956 . S
H715 C702 0.961 . S
H716 C702 0.961 . S
H717 C703 0.958 . S
H718 C703 0.961 . S
H719 C703 0.960 . S
C720 C721 1.391 . S
C720 C722 1.394 . S
C720 H736 0.931 . S
C721 C720 1.391 . S
C721 C725 1.376 . S
C722 C720 1.394 . S
C722 C723 1.369 . S
C722 C726 1.531 . S
C723 C722 1.369 . S
C723 C724 1.410 . S
C723 C731 1.503 . S
C724 C723 1.410 . S
C724 C725 1.392 . S
C724 C727 1.511 . S
C725 C721 1.376 . S
C725 C724 1.392 . S
C725 H737 0.929 . S
C726 C722 1.531 . S
C726 H738 0.960 . S
C726 H739 0.962 . S
C726 H740 0.960 . S
C727 C724 1.511 . S
C727 H741 0.961 . S
C727 H742 0.961 . S
C727 H743 0.961 . S
C728 C729 1.370 . S
C728 C730 1.363 . S
C728 H744 0.931 . S
C729 C728 1.370 . S
C729 C733 1.408 . S
C730 C728 1.363 . S
C730 C731 1.370 . S
C730 C734 1.524 . S
C731 C723 1.503 . S
C731 C730 1.370 . S
C731 C732 1.403 . S
C732 C731 1.403 . S
C732 C733 1.404 . S
C732 C735 1.539 . S
C733 C729 1.408 . S
C733 C732 1.404 . S
C733 H745 0.930 . S
C734 C730 1.524 . S
C734 H746 0.956 . S
C734 H747 0.961 . S
C734 H748 0.961 . S
C735 C732 1.539 . S
C735 H749 0.958 . S
C735 H750 0.961 . S
C735 H751 0.960 . S
H736 C720 0.931 . S
H737 C725 0.929 . S
H738 C726 0.960 . S
H739 C726 0.962 . S
H740 C726 0.960 . S
H741 C727 0.961 . S
H742 C727 0.961 . S
H743 C727 0.961 . S
H744 C728 0.931 . S
H745 C733 0.930 . S
H746 C734 0.956 . S
H747 C734 0.961 . S
H748 C734 0.961 . S
H749 C735 0.958 . S
H750 C735 0.961 . S
H751 C735 0.960 . S
C752 C753 1.391 . S
C752 C754 1.394 . S
C752 H768 0.931 . S
C753 C752 1.391 . S
C753 C757 1.376 . S
C754 C752 1.394 . S
C754 C755 1.369 . S
C754 C758 1.531 . S
C755 C754 1.369 . S
C755 C756 1.410 . S
C755 C763 1.503 . S
C756 C755 1.410 . S
C756 C757 1.392 . S
C756 C759 1.511 . S
C757 C753 1.376 . S
C757 C756 1.392 . S
C757 H769 0.929 . S
C758 C754 1.531 . S
C758 H770 0.960 . S
C758 H771 0.962 . S
C758 H772 0.960 . S
C759 C756 1.511 . S
C759 H773 0.961 . S
C759 H774 0.961 . S
C759 H775 0.961 . S
C760 C761 1.370 . S
C760 C762 1.363 . S
C760 H776 0.931 . S
C761 C760 1.370 . S
C761 C765 1.408 . S
C762 C760 1.363 . S
C762 C763 1.370 . S
C762 C766 1.524 . S
C763 C755 1.503 . S
C763 C762 1.370 . S
C763 C764 1.403 . S
C764 C763 1.403 . S
C764 C765 1.404 . S
C764 C767 1.539 . S
C765 C761 1.408 . S
C765 C764 1.404 . S
C765 H777 0.930 . S
C766 C762 1.524 . S
C766 H778 0.956 . S
C766 H779 0.961 . S
C766 H780 0.961 . S
C767 C764 1.539 . S
C767 H781 0.958 . S
C767 H782 0.961 . S
C767 H783 0.960 . S
H768 C752 0.931 . S
H769 C757 0.929 . S
H770 C758 0.960 . S
H771 C758 0.962 . S
H772 C758 0.960 . S
H773 C759 0.961 . S
H774 C759 0.961 . S
H775 C759 0.961 . S
H776 C760 0.931 . S
H777 C765 0.930 . S
H778 C766 0.956 . S
H779 C766 0.961 . S
H780 C766 0.961 . S
H781 C767 0.958 . S
H782 C767 0.961 . S
H783 C767 0.960 . S
C784 C785 1.391 . S
C784 C786 1.394 . S
C784 H800 0.931 . S
C785 C784 1.391 . S
C785 C789 1.376 . S
C786 C784 1.394 . S
C786 C787 1.369 . S
C786 C790 1.531 . S
C787 C786 1.369 . S
C787 C788 1.410 . S
C787 C795 1.503 1_554 S
C788 C787 1.410 . S
C788 C789 1.392 . S
C788 C791 1.511 1_455 S
C789 C785 1.376 . S
C789 C788 1.392 . S
C789 H801 0.929 1_455 S
C790 C786 1.531 . S
C790 H802 0.960 1_554 S
C790 H803 0.962 . S
C790 H804 0.960 . S
C791 C788 1.511 1_655 S
C791 H805 0.961 . S
C791 H806 0.961 1_554 S
C791 H807 0.961 . S
C792 C793 1.370 . S
C792 C794 1.363 . S
C792 H808 0.931 . S
C793 C792 1.370 . S
C793 C797 1.408 . S
C794 C792 1.363 . S
C794 C795 1.370 . S
C794 C798 1.524 . S
C795 C787 1.503 1_556 S
C795 C794 1.370 . S
C795 C796 1.403 . S
C796 C795 1.403 . S
C796 C797 1.404 . S
C796 C799 1.535 1_455 S
C797 C793 1.408 . S
C797 C796 1.404 . S
C797 H809 0.930 . S
C798 C794 1.524 . S
C798 H810 0.983 . S
C798 H811 0.961 1_556 S
C798 H812 0.961 . S
C799 C796 1.535 1_655 S
C799 H813 0.954 1_655 S
C799 H814 0.968 . S
C799 H815 0.972 . S
H800 C784 0.931 . S
H801 C789 0.929 1_655 S
H802 C790 0.960 1_556 S
H803 C790 0.962 . S
H804 C790 0.960 . S
H805 C791 0.961 . S
H806 C791 0.961 1_556 S
H807 C791 0.961 . S
H808 C792 0.931 . S
H809 C797 0.930 . S
H810 C798 0.983 . S
H811 C798 0.961 1_554 S
H812 C798 0.961 . S
H813 C799 0.954 1_455 S
H814 C799 0.968 . S
H815 C799 0.972 . S
C816 C817 1.391 . S
C816 C818 1.394 . S
C816 H832 0.931 . S
C817 C816 1.391 . S
C817 C821 1.376 . S
C818 C816 1.394 . S
C818 C819 1.369 . S
C818 C822 1.531 . S
C819 C818 1.369 . S
C819 C820 1.410 . S
C819 C827 1.503 . S
C820 C819 1.410 . S
C820 C821 1.392 . S
C820 C823 1.511 . S
C821 C817 1.376 . S
C821 C820 1.392 . S
C821 H833 0.929 . S
C822 C818 1.531 . S
C822 H834 0.960 . S
C822 H835 0.962 . S
C822 H836 0.960 . S
C823 C820 1.511 . S
C823 H837 0.961 1_545 S
C823 H838 0.961 1_545 S
C823 H839 0.961 . S
C824 C825 1.370 . S
C824 C826 1.363 . S
C824 H840 0.931 . S
C825 C824 1.370 . S
C825 C829 1.408 . S
C826 C824 1.363 . S
C826 C827 1.370 . S
C826 C830 1.524 . S
C827 C819 1.503 . S
C827 C826 1.370 . S
C827 C828 1.403 . S
C828 C827 1.403 . S
C828 C829 1.404 . S
C828 C831 1.539 . S
C829 C825 1.408 . S
C829 C828 1.404 . S
C829 H841 0.930 . S
C830 C826 1.524 . S
C830 H842 0.956 . S
C830 H843 0.961 1_545 S
C830 H844 0.961 1_545 S
C831 C828 1.539 . S
C831 H845 0.958 . S
C831 H846 0.961 . S
C831 H847 0.960 . S
H832 C816 0.931 . S
H833 C821 0.929 . S
H834 C822 0.960 . S
H835 C822 0.962 . S
H836 C822 0.960 . S
H837 C823 0.961 1_565 S
H838 C823 0.961 1_565 S
H839 C823 0.961 . S
H840 C824 0.931 . S
H841 C829 0.930 . S
H842 C830 0.956 . S
H843 C830 0.961 1_565 S
H844 C830 0.961 1_565 S
H845 C831 0.958 . S
H846 C831 0.961 . S
H847 C831 0.960 . S
C848 C849 1.391 . S
C848 C850 1.394 . S
C848 H864 0.931 . S
C849 C848 1.391 . S
C849 C853 1.376 . S
C850 C848 1.394 . S
C850 C851 1.369 . S
C850 C854 1.531 . S
C851 C850 1.369 . S
C851 C852 1.410 . S
C851 C859 1.503 1_556 S
C852 C851 1.410 . S
C852 C853 1.392 . S
C852 C855 1.511 1_655 S
C853 C849 1.376 . S
C853 C852 1.392 . S
C853 H865 0.929 1_655 S
C854 C850 1.531 . S
C854 H866 0.960 1_556 S
C854 H867 0.962 . S
C854 H868 0.960 . S
C855 C852 1.511 1_455 S
C855 H869 0.961 . S
C855 H870 0.961 1_556 S
C855 H871 0.961 . S
C856 C857 1.370 . S
C856 C858 1.363 . S
C856 H872 0.931 . S
C857 C856 1.370 . S
C857 C861 1.408 . S
C858 C856 1.363 . S
C858 C859 1.370 . S
C858 C862 1.524 . S
C859 C851 1.503 1_554 S
C859 C858 1.370 . S
C859 C860 1.403 . S
C860 C859 1.403 . S
C860 C861 1.404 . S
C860 C863 1.539 . S
C861 C857 1.408 . S
C861 C860 1.404 . S
C861 H873 0.930 . S
C862 C858 1.524 . S
C862 H874 0.983 . S
C862 H875 0.961 1_554 S
C862 H876 0.961 . S
C863 C860 1.539 . S
C863 H877 0.958 . S
C863 H878 0.961 . S
C863 H879 0.969 . S
H864 C848 0.931 . S
H865 C853 0.929 1_455 S
H866 C854 0.960 1_554 S
H867 C854 0.962 . S
H868 C854 0.960 . S
H869 C855 0.961 . S
H870 C855 0.961 1_554 S
H871 C855 0.961 . S
H872 C856 0.931 . S
H873 C861 0.930 . S
H874 C862 0.983 . S
H875 C862 0.961 1_556 S
H876 C862 0.961 . S
H877 C863 0.958 . S
H878 C863 0.961 . S
H879 C863 0.969 . S
C880 C881 1.391 . S
C880 C882 1.394 . S
C880 H896 0.931 . S
C881 C880 1.391 . S
C881 C885 1.376 . S
C882 C880 1.394 . S
C882 C883 1.369 . S
C882 C886 1.531 . S
C883 C882 1.369 . S
C883 C884 1.410 . S
C883 C891 1.503 . S
C884 C883 1.410 . S
C884 C885 1.392 . S
C884 C887 1.511 . S
C885 C881 1.376 . S
C885 C884 1.392 . S
C885 H897 0.929 . S
C886 C882 1.531 . S
C886 H898 0.960 . S
C886 H899 0.962 . S
C886 H900 0.960 1_565 S
C887 C884 1.511 . S
C887 H901 0.961 . S
C887 H902 0.961 . S
C887 H903 0.961 . S
C888 C889 1.370 . S
C888 C890 1.363 . S
C888 H904 0.931 . S
C889 C888 1.370 . S
C889 C893 1.408 . S
C890 C888 1.363 . S
C890 C891 1.370 . S
C890 C894 1.524 . S
C891 C883 1.503 . S
C891 C890 1.370 . S
C891 C892 1.403 . S
C892 C891 1.403 . S
C892 C893 1.404 . S
C892 C895 1.539 1_565 S
C893 C889 1.408 . S
C893 C892 1.404 . S
C893 H905 0.930 1_565 S
C894 C890 1.524 . S
C894 H906 0.956 . S
C894 H907 0.961 . S
C894 H908 0.961 . S
C895 C892 1.539 1_545 S
C895 H909 0.958 . S
C895 H910 0.961 . S
C895 H911 0.960 . S
H896 C880 0.931 . S
H897 C885 0.929 . S
H898 C886 0.960 . S
H899 C886 0.962 . S
H900 C886 0.960 1_545 S
H901 C887 0.961 . S
H902 C887 0.961 . S
H903 C887 0.961 . S
H904 C888 0.931 . S
H905 C893 0.930 1_545 S
H906 C894 0.956 . S
H907 C894 0.961 . S
H908 C894 0.961 . S
H909 C895 0.958 . S
H910 C895 0.961 . S
H911 C895 0.960 . S
C912 C913 1.391 . S
C912 C914 1.394 . S
C912 H928 0.931 . S
C913 C912 1.391 . S
C913 C917 1.376 . S
C914 C912 1.394 . S
C914 C915 1.369 . S
C914 C918 1.531 . S
C915 C914 1.369 . S
C915 C916 1.410 . S
C915 C923 1.503 1_554 S
C916 C915 1.410 . S
C916 C917 1.392 . S
C916 C919 1.511 . S
C917 C913 1.376 . S
C917 C916 1.392 . S
C917 H929 0.929 . S
C918 C914 1.531 . S
C918 H930 0.960 1_554 S
C918 H931 0.962 . S
C918 H932 0.960 . S
C919 C916 1.511 . S
C919 H933 0.961 . S
C919 H934 0.961 1_554 S
C919 H935 0.961 . S
C920 C921 1.370 . S
C920 C922 1.363 . S
C920 H936 0.931 . S
C921 C920 1.370 . S
C921 C925 1.408 . S
C922 C920 1.363 . S
C922 C923 1.370 . S
C922 C926 1.524 . S
C923 C915 1.503 1_556 S
C923 C922 1.370 . S
C923 C924 1.403 . S
C924 C923 1.403 . S
C924 C925 1.404 . S
C924 C927 1.539 . S
C925 C921 1.408 . S
C925 C924 1.404 . S
C925 H937 0.930 . S
C926 C922 1.524 . S
C926 H938 0.983 . S
C926 H939 0.961 1_556 S
C926 H940 0.961 . S
C927 C924 1.539 . S
C927 H941 0.958 . S
C927 H942 0.961 . S
C927 H943 0.969 . S
H928 C912 0.931 . S
H929 C917 0.929 . S
H930 C918 0.960 1_556 S
H931 C918 0.962 . S
H932 C918 0.960 . S
H933 C919 0.961 . S
H934 C919 0.961 1_556 S
H935 C919 0.961 . S
H936 C920 0.931 . S
H937 C925 0.930 . S
H938 C926 0.983 . S
H939 C926 0.961 1_554 S
H940 C926 0.961 . S
H941 C927 0.958 . S
H942 C927 0.961 . S
H943 C927 0.969 . S
C944 C945 1.391 . S
C944 C946 1.394 . S
C944 H960 0.931 . S
C945 C944 1.391 . S
C945 C949 1.376 . S
C946 C944 1.394 . S
C946 C947 1.369 . S
C946 C950 1.531 . S
C947 C946 1.369 . S
C947 C948 1.410 . S
C947 C955 1.503 . S
C948 C947 1.410 . S
C948 C949 1.392 . S
C948 C951 1.511 . S
C949 C945 1.376 . S
C949 C948 1.392 . S
C949 H961 0.929 . S
C950 C946 1.531 . S
C950 H962 0.960 . S
C950 H963 0.962 . S
C950 H964 0.960 . S
C951 C948 1.511 . S
C951 H965 0.961 . S
C951 H966 0.961 . S
C951 H967 0.961 . S
C952 C953 1.370 . S
C952 C954 1.363 . S
C952 H968 0.931 . S
C953 C952 1.370 . S
C953 C957 1.408 . S
C954 C952 1.363 . S
C954 C955 1.370 . S
C954 C958 1.524 . S
C955 C947 1.503 . S
C955 C954 1.370 . S
C955 C956 1.403 . S
C956 C955 1.403 . S
C956 C957 1.404 . S
C956 C959 1.539 . S
C957 C953 1.408 . S
C957 C956 1.404 . S
C957 H969 0.930 . S
C958 C954 1.524 . S
C958 H970 0.956 . S
C958 H971 0.961 . S
C958 H972 0.961 . S
C959 C956 1.539 . S
C959 H973 0.958 . S
C959 H974 0.961 . S
C959 H975 0.960 . S
H960 C944 0.931 . S
H961 C949 0.929 . S
H962 C950 0.960 . S
H963 C950 0.962 . S
H964 C950 0.960 . S
H965 C951 0.961 . S
H966 C951 0.961 . S
H967 C951 0.961 . S
H968 C952 0.931 . S
H969 C957 0.930 . S
H970 C958 0.956 . S
H971 C958 0.961 . S
H972 C958 0.961 . S
H973 C959 0.958 . S
H974 C959 0.961 . S
H975 C959 0.960 . S
C976 C977 1.391 . S
C976 C978 1.394 . S
C976 H992 0.931 . S
C977 C976 1.391 . S
C977 C981 1.376 . S
C978 C976 1.394 . S
C978 C979 1.369 . S
C978 C982 1.531 . S
C979 C978 1.369 . S
C979 C980 1.410 . S
C979 C987 1.503 1_554 S
C980 C979 1.410 . S
C980 C981 1.392 . S
C980 C983 1.511 . S
C981 C977 1.376 . S
C981 C980 1.392 . S
C981 H993 0.929 . S
C982 C978 1.531 . S
C982 H994 0.960 1_554 S
C982 H995 0.962 . S
C982 H996 0.960 . S
C983 C980 1.511 . S
C983 H997 0.961 . S
C983 H998 0.961 1_554 S
C983 H999 0.961 . S
C984 C985 1.370 . S
C984 C986 1.363 . S
C984 H1000 0.931 . S
C985 C984 1.370 . S
C985 C989 1.408 . S
C986 C984 1.363 . S
C986 C987 1.370 . S
C986 C990 1.524 . S
C987 C979 1.503 1_556 S
C987 C986 1.370 . S
C987 C988 1.403 . S
C988 C987 1.403 . S
C988 C989 1.404 . S
C988 C991 1.539 . S
C989 C985 1.408 . S
C989 C988 1.404 . S
C989 H1001 0.930 . S
C990 C986 1.524 . S
C990 H1002 0.983 . S
C990 H1003 0.961 1_556 S
C990 H1004 0.961 . S
C991 C988 1.539 . S
C991 H1005 0.958 . S
C991 H1006 0.961 . S
C991 H1007 0.969 . S
H992 C976 0.931 . S
H993 C981 0.929 . S
H994 C982 0.960 1_556 S
H995 C982 0.962 . S
H996 C982 0.960 . S
H997 C983 0.961 . S
H998 C983 0.961 1_556 S
H999 C983 0.961 . S
H1000 C984 0.931 . S
H1001 C989 0.930 . S
H1002 C990 0.983 . S
H1003 C990 0.961 1_554 S
H1004 C990 0.961 . S
H1005 C991 0.958 . S
H1006 C991 0.961 . S
H1007 C991 0.969 . S
C1008 C1009 1.391 . S
C1008 C1010 1.394 . S
C1008 H1024 0.931 . S
C1009 C1008 1.391 . S
C1009 C1013 1.376 . S
C1010 C1008 1.394 . S
C1010 C1011 1.369 . S
C1010 C1014 1.531 . S
C1011 C1010 1.369 . S
C1011 C1012 1.410 . S
C1011 C1019 1.503 . S
C1012 C1011 1.410 . S
C1012 C1013 1.392 . S
C1012 C1015 1.511 . S
C1013 C1009 1.376 . S
C1013 C1012 1.392 . S
C1013 H1025 0.929 . S
C1014 C1010 1.531 . S
C1014 H1026 0.960 . S
C1014 H1027 0.962 . S
C1014 H1028 0.960 . S
C1015 C1012 1.511 . S
C1015 H1029 0.961 . S
C1015 H1030 0.961 . S
C1015 H1031 0.961 . S
C1016 C1017 1.370 . S
C1016 C1018 1.363 . S
C1016 H1032 0.931 . S
C1017 C1016 1.370 . S
C1017 C1021 1.408 . S
C1018 C1016 1.363 . S
C1018 C1019 1.370 . S
C1018 C1022 1.524 . S
C1019 C1011 1.503 . S
C1019 C1018 1.370 . S
C1019 C1020 1.403 . S
C1020 C1019 1.403 . S
C1020 C1021 1.404 . S
C1020 C1023 1.539 . S
C1021 C1017 1.408 . S
C1021 C1020 1.404 . S
C1021 H1033 0.930 . S
C1022 C1018 1.524 . S
C1022 H1034 0.956 . S
C1022 H1035 0.961 . S
C1022 H1036 0.961 . S
C1023 C1020 1.539 . S
C1023 H1037 0.958 . S
C1023 H1038 0.961 . S
C1023 H1039 0.960 . S
H1024 C1008 0.931 . S
H1025 C1013 0.929 . S
H1026 C1014 0.960 . S
H1027 C1014 0.962 . S
H1028 C1014 0.960 . S
H1029 C1015 0.961 . S
H1030 C1015 0.961 . S
H1031 C1015 0.961 . S
H1032 C1016 0.931 . S
H1033 C1021 0.930 . S
H1034 C1022 0.956 . S
H1035 C1022 0.961 . S
H1036 C1022 0.961 . S
H1037 C1023 0.958 . S
H1038 C1023 0.961 . S
H1039 C1023 0.960 . S
C1040 C1041 1.391 . S
C1040 C1042 1.394 . S
C1040 H1056 0.931 . S
C1041 C1040 1.391 . S
C1041 C1045 1.376 . S
C1042 C1040 1.394 . S
C1042 C1043 1.369 . S
C1042 C1046 1.531 . S
C1043 C1042 1.369 . S
C1043 C1044 1.410 . S
C1043 C1051 1.503 1_455 S
C1044 C1043 1.410 . S
C1044 C1045 1.392 . S
C1044 C1047 1.511 1_455 S
C1045 C1041 1.376 . S
C1045 C1044 1.392 . S
C1045 H1057 0.929 . S
C1046 C1042 1.531 . S
C1046 H1058 0.960 . S
C1046 H1059 0.962 . S
C1046 H1060 0.960 . S
C1047 C1044 1.511 1_655 S
C1047 H1061 0.961 . S
C1047 H1062 0.961 . S
C1047 H1063 0.961 . S
C1048 C1049 1.370 . S
C1048 C1050 1.363 . S
C1048 H1064 0.931 . S
C1049 C1048 1.370 . S
C1049 C1053 1.408 . S
C1050 C1048 1.363 . S
C1050 C1051 1.370 . S
C1050 C1054 1.524 . S
C1051 C1043 1.503 1_655 S
C1051 C1050 1.370 . S
C1051 C1052 1.403 . S
C1052 C1051 1.403 . S
C1052 C1053 1.404 . S
C1052 C1055 1.539 . S
C1053 C1049 1.408 . S
C1053 C1052 1.404 . S
C1053 H1065 0.930 . S
C1054 C1050 1.524 . S
C1054 H1066 0.956 1_655 S
C1054 H1067 0.961 . S
C1054 H1068 0.961 . S
C1055 C1052 1.539 . S
C1055 H1069 0.958 1_655 S
C1055 H1070 0.961 . S
C1055 H1071 0.960 1_655 S
H1056 C1040 0.931 . S
H1057 C1045 0.929 . S
H1058 C1046 0.960 . S
H1059 C1046 0.962 . S
H1060 C1046 0.960 . S
H1061 C1047 0.961 . S
H1062 C1047 0.961 . S
H1063 C1047 0.961 . S
H1064 C1048 0.931 . S
H1065 C1053 0.930 . S
H1066 C1054 0.956 1_455 S
H1067 C1054 0.961 . S
H1068 C1054 0.961 . S
H1069 C1055 0.958 1_455 S
H1070 C1055 0.961 . S
H1071 C1055 0.960 1_455 S
C1072 C1073 1.391 . S
C1072 C1074 1.394 . S
C1072 H1088 0.931 . S
C1073 C1072 1.391 . S
C1073 C1077 1.376 . S
C1074 C1072 1.394 . S
C1074 C1075 1.369 . S
C1074 C1078 1.531 . S
C1075 C1074 1.369 . S
C1075 C1076 1.410 . S
C1075 C1083 1.503 1_565 S
C1076 C1075 1.410 . S
C1076 C1077 1.392 . S
C1076 C1079 1.511 1_565 S
C1077 C1073 1.376 . S
C1077 C1076 1.392 . S
C1077 H1089 0.929 . S
C1078 C1074 1.531 . S
C1078 H1090 0.960 . S
C1078 H1091 0.962 . S
C1078 H1092 0.960 . S
C1079 C1076 1.511 1_545 S
C1079 H1093 0.961 . S
C1079 H1094 0.961 . S
C1079 H1095 0.961 . S
C1080 C1081 1.370 . S
C1080 C1082 1.363 . S
C1080 H1096 0.931 . S
C1081 C1080 1.370 . S
C1081 C1085 1.408 . S
C1082 C1080 1.363 . S
C1082 C1083 1.370 . S
C1082 C1086 1.524 . S
C1083 C1075 1.503 1_545 S
C1083 C1082 1.370 . S
C1083 C1084 1.403 . S
C1084 C1083 1.403 . S
C1084 C1085 1.404 . S
C1084 C1087 1.539 . S
C1085 C1081 1.408 . S
C1085 C1084 1.404 . S
C1085 H1097 0.930 . S
C1086 C1082 1.524 . S
C1086 H1098 0.956 1_545 S
C1086 H1099 0.961 . S
C1086 H1100 0.961 . S
C1087 C1084 1.539 . S
C1087 H1101 0.958 1_545 S
C1087 H1102 0.961 . S
C1087 H1103 0.960 . S
H1088 C1072 0.931 . S
H1089 C1077 0.929 . S
H1090 C1078 0.960 . S
H1091 C1078 0.962 . S
H1092 C1078 0.960 . S
H1093 C1079 0.961 . S
H1094 C1079 0.961 . S
H1095 C1079 0.961 . S
H1096 C1080 0.931 . S
H1097 C1085 0.930 . S
H1098 C1086 0.956 1_565 S
H1099 C1086 0.961 . S
H1100 C1086 0.961 . S
H1101 C1087 0.958 1_565 S
H1102 C1087 0.961 . S
H1103 C1087 0.960 . S
C1104 C1105 1.391 . S
C1104 C1106 1.394 . S
C1104 H1120 0.931 . S
C1105 C1104 1.391 . S
C1105 C1109 1.376 . S
C1106 C1104 1.394 . S
C1106 C1107 1.369 . S
C1106 C1110 1.531 1_565 S
C1107 C1106 1.369 . S
C1107 C1108 1.410 . S
C1107 C1115 1.503 1_565 S
C1108 C1107 1.410 . S
C1108 C1109 1.392 . S
C1108 C1111 1.511 . S
C1109 C1105 1.376 . S
C1109 C1108 1.392 . S
C1109 H1121 0.929 . S
C1110 C1106 1.531 1_545 S
C1110 H1122 0.960 . S
C1110 H1123 0.962 . S
C1110 H1124 0.960 . S
C1111 C1108 1.511 . S
C1111 H1125 0.961 . S
C1111 H1126 0.961 . S
C1111 H1127 0.961 . S
C1112 C1113 1.370 . S
C1112 C1114 1.363 . S
C1112 H1128 0.931 . S
C1113 C1112 1.370 . S
C1113 C1117 1.408 . S
C1114 C1112 1.363 . S
C1114 C1115 1.370 . S
C1114 C1118 1.524 1_545 S
C1115 C1107 1.503 1_545 S
C1115 C1114 1.370 . S
C1115 C1116 1.403 . S
C1116 C1115 1.403 . S
C1116 C1117 1.404 . S
C1116 C1119 1.539 . S
C1117 C1113 1.408 . S
C1117 C1116 1.404 . S
C1117 H1129 0.930 . S
C1118 C1114 1.524 1_565 S
C1118 H1130 0.956 . S
C1118 H1131 0.961 . S
C1118 H1132 0.961 . S
C1119 C1116 1.539 . S
C1119 H1133 0.958 . S
C1119 H1134 0.961 . S
C1119 H1135 0.960 . S
H1120 C1104 0.931 . S
H1121 C1109 0.929 . S
H1122 C1110 0.960 . S
H1123 C1110 0.962 . S
H1124 C1110 0.960 . S
H1125 C1111 0.961 . S
H1126 C1111 0.961 . S
H1127 C1111 0.961 . S
H1128 C1112 0.931 . S
H1129 C1117 0.930 . S
H1130 C1118 0.956 . S
H1131 C1118 0.961 . S
H1132 C1118 0.961 . S
H1133 C1119 0.958 . S
H1134 C1119 0.961 . S
H1135 C1119 0.960 . S
C1136 C1137 1.391 . S
C1136 C1138 1.394 . S
C1136 H1152 0.931 . S
C1137 C1136 1.391 . S
C1137 C1141 1.376 . S
C1138 C1136 1.394 . S
C1138 C1139 1.369 . S
C1138 C1142 1.531 1_455 S
C1139 C1138 1.369 . S
C1139 C1140 1.410 . S
C1139 C1147 1.503 1_455 S
C1140 C1139 1.410 . S
C1140 C1141 1.392 . S
C1140 C1143 1.511 . S
C1141 C1137 1.376 . S
C1141 C1140 1.392 . S
C1141 H1153 0.929 . S
C1142 C1138 1.531 1_655 S
C1142 H1154 0.960 . S
C1142 H1155 0.962 . S
C1142 H1156 0.960 . S
C1143 C1140 1.511 . S
C1143 H1157 0.961 . S
C1143 H1158 0.961 . S
C1143 H1159 0.961 . S
C1144 C1145 1.370 . S
C1144 C1146 1.363 . S
C1144 H1160 0.931 . S
C1145 C1144 1.370 . S
C1145 C1149 1.408 . S
C1146 C1144 1.363 . S
C1146 C1147 1.370 . S
C1146 C1150 1.524 . S
C1147 C1139 1.503 1_655 S
C1147 C1146 1.370 . S
C1147 C1148 1.403 . S
C1148 C1147 1.403 . S
C1148 C1149 1.404 . S
C1148 C1151 1.539 1_655 S
C1149 C1145 1.408 . S
C1149 C1148 1.404 . S
C1149 H1161 0.930 . S
C1150 C1146 1.524 . S
C1150 H1162 0.956 . S
C1150 H1163 0.961 . S
C1150 H1164 0.961 . S
C1151 C1148 1.539 1_455 S
C1151 H1165 0.958 . S
C1151 H1166 0.961 . S
C1151 H1167 0.960 . S
H1152 C1136 0.931 . S
H1153 C1141 0.929 . S
H1154 C1142 0.960 . S
H1155 C1142 0.962 . S
H1156 C1142 0.960 . S
H1157 C1143 0.961 . S
H1158 C1143 0.961 . S
H1159 C1143 0.961 . S
H1160 C1144 0.931 . S
H1161 C1149 0.930 . S
H1162 C1150 0.956 . S
H1163 C1150 0.961 . S
H1164 C1150 0.961 . S
H1165 C1151 0.958 . S
H1166 C1151 0.961 . S
H1167 C1151 0.960 . S
C1168 C1169 1.391 . S
C1168 C1170 1.394 . S
C1168 H1184 0.931 . S
C1169 C1168 1.391 . S
C1169 C1173 1.376 . S
C1170 C1168 1.394 . S
C1170 C1171 1.369 . S
C1170 C1174 1.531 1_655 S
C1171 C1170 1.369 . S
C1171 C1172 1.410 . S
C1171 C1179 1.503 1_655 S
C1172 C1171 1.410 . S
C1172 C1173 1.392 . S
C1172 C1175 1.511 . S
C1173 C1169 1.376 . S
C1173 C1172 1.392 . S
C1173 H1185 0.929 . S
C1174 C1170 1.531 1_455 S
C1174 H1186 0.960 . S
C1174 H1187 0.962 . S
C1174 H1188 0.960 . S
C1175 C1172 1.511 . S
C1175 H1189 0.961 . S
C1175 H1190 0.961 . S
C1175 H1191 0.961 . S
C1176 C1177 1.370 . S
C1176 C1178 1.363 . S
C1176 H1192 0.931 . S
C1177 C1176 1.370 . S
C1177 C1181 1.408 . S
C1178 C1176 1.363 . S
C1178 C1179 1.370 . S
C1178 C1182 1.524 . S
C1179 C1171 1.503 1_455 S
C1179 C1178 1.370 . S
C1179 C1180 1.403 . S
C1180 C1179 1.403 . S
C1180 C1181 1.404 . S
C1180 C1183 1.539 1_455 S
C1181 C1177 1.408 . S
C1181 C1180 1.404 . S
C1181 H1193 0.930 . S
C1182 C1178 1.524 . S
C1182 H1194 0.956 . S
C1182 H1195 0.968 . S
C1182 H1196 0.961 . S
C1183 C1180 1.539 1_655 S
C1183 H1197 0.958 1_655 S
C1183 H1198 0.961 . S
C1183 H1199 0.960 . S
H1184 C1168 0.931 . S
H1185 C1173 0.929 . S
H1186 C1174 0.960 . S
H1187 C1174 0.962 . S
H1188 C1174 0.960 . S
H1189 C1175 0.961 . S
H1190 C1175 0.961 . S
H1191 C1175 0.961 . S
H1192 C1176 0.931 . S
H1193 C1181 0.930 . S
H1194 C1182 0.956 . S
H1195 C1182 0.968 . S
H1196 C1182 0.961 . S
H1197 C1183 0.958 1_455 S
H1198 C1183 0.961 . S
H1199 C1183 0.960 . S
C1200 C1201 1.391 . S
C1200 C1202 1.394 . S
C1200 H1216 0.931 . S
C1201 C1200 1.391 . S
C1201 C1205 1.376 . S
C1202 C1200 1.394 . S
C1202 C1203 1.369 . S
C1202 C1206 1.531 1_545 S
C1203 C1202 1.369 . S
C1203 C1204 1.410 . S
C1203 C1211 1.503 1_545 S
C1204 C1203 1.410 . S
C1204 C1205 1.392 . S
C1204 C1207 1.511 . S
C1205 C1201 1.376 . S
C1205 C1204 1.392 . S
C1205 H1217 0.929 . S
C1206 C1202 1.531 1_565 S
C1206 H1218 0.960 . S
C1206 H1219 0.962 . S
C1206 H1220 0.960 . S
C1207 C1204 1.511 . S
C1207 H1221 0.961 . S
C1207 H1222 0.961 . S
C1207 H1223 0.961 . S
C1208 C1209 1.370 . S
C1208 C1210 1.363 . S
C1208 H1224 0.931 . S
C1209 C1208 1.370 . S
C1209 C1213 1.408 . S
C1210 C1208 1.363 . S
C1210 C1211 1.370 . S
C1210 C1214 1.524 . S
C1211 C1203 1.503 1_565 S
C1211 C1210 1.370 . S
C1211 C1212 1.403 . S
C1212 C1211 1.403 . S
C1212 C1213 1.404 . S
C1212 C1215 1.539 1_565 S
C1213 C1209 1.408 . S
C1213 C1212 1.404 . S
C1213 H1225 0.930 . S
C1214 C1210 1.524 . S
C1214 H1226 0.956 . S
C1214 H1227 0.961 . S
C1214 H1228 0.961 . S
C1215 C1212 1.539 1_545 S
C1215 H1229 0.958 . S
C1215 H1230 0.961 . S
C1215 H1231 0.960 . S
H1216 C1200 0.931 . S
H1217 C1205 0.929 . S
H1218 C1206 0.960 . S
H1219 C1206 0.962 . S
H1220 C1206 0.960 . S
H1221 C1207 0.961 . S
H1222 C1207 0.961 . S
H1223 C1207 0.961 . S
H1224 C1208 0.931 . S
H1225 C1213 0.930 . S
H1226 C1214 0.956 . S
H1227 C1214 0.961 . S
H1228 C1214 0.961 . S
H1229 C1215 0.958 . S
H1230 C1215 0.961 . S
H1231 C1215 0.960 . S
C1232 C1233 1.391 . S
C1232 C1234 1.394 . S
C1232 H1248 0.931 . S
C1233 C1232 1.391 . S
C1233 C1237 1.376 . S
C1234 C1232 1.394 . S
C1234 C1235 1.369 . S
C1234 C1238 1.531 . S
C1235 C1234 1.369 . S
C1235 C1236 1.410 . S
C1235 C1243 1.503 1_565 S
C1236 C1235 1.410 . S
C1236 C1237 1.392 . S
C1236 C1239 1.511 1_565 S
C1237 C1233 1.376 . S
C1237 C1236 1.392 . S
C1237 H1249 0.929 . S
C1238 C1234 1.531 . S
C1238 H1250 0.960 1_565 S
C1238 H1251 0.962 . S
C1238 H1252 0.960 . S
C1239 C1236 1.511 1_545 S
C1239 H1253 0.961 1_545 S
C1239 H1254 0.961 . S
C1239 H1255 0.961 . S
C1240 C1241 1.370 . S
C1240 C1242 1.363 . S
C1240 H1256 0.931 . S
C1241 C1240 1.370 . S
C1241 C1245 1.408 . S
C1242 C1240 1.363 . S
C1242 C1243 1.370 . S
C1242 C1246 1.524 1_545 S
C1243 C1235 1.503 1_545 S
C1243 C1242 1.370 . S
C1243 C1244 1.403 . S
C1244 C1243 1.403 . S
C1244 C1245 1.404 . S
C1244 C1247 1.539 . S
C1245 C1241 1.408 . S
C1245 C1244 1.404 . S
C1245 H1257 0.930 . S
C1246 C1242 1.524 1_565 S
C1246 H1258 0.956 . S
C1246 H1259 0.961 . S
C1246 H1260 0.961 . S
C1247 C1244 1.539 . S
C1247 H1261 0.958 . S
C1247 H1262 0.961 . S
C1247 H1263 0.960 . S
H1248 C1232 0.931 . S
H1249 C1237 0.929 . S
H1250 C1238 0.960 1_545 S
H1251 C1238 0.962 . S
H1252 C1238 0.960 . S
H1253 C1239 0.961 1_565 S
H1254 C1239 0.961 . S
H1255 C1239 0.961 . S
H1256 C1240 0.931 . S
H1257 C1245 0.930 . S
H1258 C1246 0.956 . S
H1259 C1246 0.961 . S
H1260 C1246 0.961 . S
H1261 C1247 0.958 . S
H1262 C1247 0.961 . S
H1263 C1247 0.960 . S
C1264 C1265 1.391 . S
C1264 C1266 1.394 . S
C1264 H1280 0.931 . S
C1265 C1264 1.391 . S
C1265 C1269 1.376 . S
C1266 C1264 1.394 . S
C1266 C1267 1.369 . S
C1266 C1270 1.531 1_455 S
C1267 C1266 1.369 . S
C1267 C1268 1.410 . S
C1267 C1275 1.503 1_455 S
C1268 C1267 1.410 . S
C1268 C1269 1.392 . S
C1268 C1271 1.511 . S
C1269 C1265 1.376 . S
C1269 C1268 1.392 . S
C1269 H1281 0.929 . S
C1270 C1266 1.531 1_655 S
C1270 H1282 0.960 . S
C1270 H1283 0.962 . S
C1270 H1284 0.960 . S
C1271 C1268 1.511 . S
C1271 H1285 0.961 . S
C1271 H1286 0.961 . S
C1271 H1287 0.961 . S
C1272 C1273 1.370 . S
C1272 C1274 1.363 . S
C1272 H1288 0.931 . S
C1273 C1272 1.370 . S
C1273 C1277 1.408 . S
C1274 C1272 1.363 . S
C1274 C1275 1.370 . S
C1274 C1278 1.524 . S
C1275 C1267 1.503 1_655 S
C1275 C1274 1.370 . S
C1275 C1276 1.403 . S
C1276 C1275 1.403 . S
C1276 C1277 1.404 . S
C1276 C1279 1.543 . S
C1277 C1273 1.408 . S
C1277 C1276 1.404 . S
C1277 H1289 0.930 . S
C1278 C1274 1.524 . S
C1278 H1290 0.956 . S
C1278 H1291 0.961 1_655 S
C1278 H1292 0.961 . S
C1279 C1276 1.543 . S
C1279 H1293 0.961 . S
C1279 H1294 0.961 1_655 S
C1279 H1295 0.953 1_655 S
H1280 C1264 0.931 . S
H1281 C1269 0.929 . S
H1282 C1270 0.960 . S
H1283 C1270 0.962 . S
H1284 C1270 0.960 . S
H1285 C1271 0.961 . S
H1286 C1271 0.961 . S
H1287 C1271 0.961 . S
H1288 C1272 0.931 . S
H1289 C1277 0.930 . S
H1290 C1278 0.956 . S
H1291 C1278 0.961 1_455 S
H1292 C1278 0.961 . S
H1293 C1279 0.961 . S
H1294 C1279 0.961 1_455 S
H1295 C1279 0.953 1_455 S
C1296 C1297 1.391 . S
C1296 C1298 1.394 . S
C1296 H1312 0.931 . S
C1297 C1296 1.391 . S
C1297 C1301 1.376 . S
C1298 C1296 1.394 . S
C1298 C1299 1.369 . S
C1298 C1302 1.531 . S
C1299 C1298 1.369 . S
C1299 C1300 1.410 . S
C1299 C1307 1.503 . S
C1300 C1299 1.410 . S
C1300 C1301 1.392 . S
C1300 C1303 1.511 . S
C1301 C1297 1.376 . S
C1301 C1300 1.392 . S
C1301 H1313 0.929 . S
C1302 C1298 1.531 . S
C1302 H1314 0.960 . S
C1302 H1315 0.962 . S
C1302 H1316 0.960 . S
C1303 C1300 1.511 . S
C1303 H1317 0.961 . S
C1303 H1318 0.961 . S
C1303 H1319 0.961 . S
C1304 C1305 1.370 . S
C1304 C1306 1.363 . S
C1304 H1320 0.931 . S
C1305 C1304 1.370 . S
C1305 C1309 1.408 . S
C1306 C1304 1.363 . S
C1306 C1307 1.370 . S
C1306 C1310 1.524 . S
C1307 C1299 1.503 . S
C1307 C1306 1.370 . S
C1307 C1308 1.403 . S
C1308 C1307 1.403 . S
C1308 C1309 1.404 . S
C1308 C1311 1.539 . S
C1309 C1305 1.408 . S
C1309 C1308 1.404 . S
C1309 H1321 0.930 . S
C1310 C1306 1.524 . S
C1310 H1322 0.956 . S
C1310 H1323 0.961 . S
C1310 H1324 0.961 . S
C1311 C1308 1.539 . S
C1311 H1325 0.958 . S
C1311 H1326 0.961 . S
C1311 H1327 0.960 . S
H1312 C1296 0.931 . S
H1313 C1301 0.929 . S
H1314 C1302 0.960 . S
H1315 C1302 0.962 . S
H1316 C1302 0.960 . S
H1317 C1303 0.961 . S
H1318 C1303 0.961 . S
H1319 C1303 0.961 . S
H1320 C1304 0.931 . S
H1321 C1309 0.930 . S
H1322 C1310 0.956 . S
H1323 C1310 0.961 . S
H1324 C1310 0.961 . S
H1325 C1311 0.958 . S
H1326 C1311 0.961 . S
H1327 C1311 0.960 . S
C1328 C1329 1.391 . S
C1328 C1330 1.394 . S
C1328 H1344 0.931 . S
C1329 C1328 1.391 . S
C1329 C1333 1.376 . S
C1330 C1328 1.394 . S
C1330 C1331 1.369 . S
C1330 C1334 1.531 . S
C1331 C1330 1.369 . S
C1331 C1332 1.410 . S
C1331 C1339 1.503 . S
C1332 C1331 1.410 . S
C1332 C1333 1.392 . S
C1332 C1335 1.511 . S
C1333 C1329 1.376 . S
C1333 C1332 1.392 . S
C1333 H1345 0.929 . S
C1334 C1330 1.531 . S
C1334 H1346 0.960 . S
C1334 H1347 0.962 . S
C1334 H1348 0.960 . S
C1335 C1332 1.511 . S
C1335 H1349 0.961 . S
C1335 H1350 0.961 . S
C1335 H1351 0.961 . S
C1336 C1337 1.370 . S
C1336 C1338 1.363 . S
C1336 H1352 0.931 . S
C1337 C1336 1.370 . S
C1337 C1341 1.408 . S
C1338 C1336 1.363 . S
C1338 C1339 1.370 . S
C1338 C1342 1.524 . S
C1339 C1331 1.503 . S
C1339 C1338 1.370 . S
C1339 C1340 1.403 . S
C1340 C1339 1.403 . S
C1340 C1341 1.404 . S
C1340 C1343 1.539 . S
C1341 C1337 1.408 . S
C1341 C1340 1.404 . S
C1341 H1353 0.930 . S
C1342 C1338 1.524 . S
C1342 H1354 0.956 . S
C1342 H1355 0.961 . S
C1342 H1356 0.961 . S
C1343 C1340 1.539 . S
C1343 H1357 0.958 . S
C1343 H1358 0.961 . S
C1343 H1359 0.960 . S
H1344 C1328 0.931 . S
H1345 C1333 0.929 . S
H1346 C1334 0.960 . S
H1347 C1334 0.962 . S
H1348 C1334 0.960 . S
H1349 C1335 0.961 . S
H1350 C1335 0.961 . S
H1351 C1335 0.961 . S
H1352 C1336 0.931 . S
H1353 C1341 0.930 . S
H1354 C1342 0.956 . S
H1355 C1342 0.961 . S
H1356 C1342 0.961 . S
H1357 C1343 0.958 . S
H1358 C1343 0.961 . S
H1359 C1343 0.960 . S
C1360 C1361 1.391 . S
C1360 C1362 1.394 . S
C1360 H1376 0.931 . S
C1361 C1360 1.391 . S
C1361 C1365 1.376 . S
C1362 C1360 1.394 . S
C1362 C1363 1.369 . S
C1362 C1366 1.531 . S
C1363 C1362 1.369 . S
C1363 C1364 1.410 . S
C1363 C1371 1.503 . S
C1364 C1363 1.410 . S
C1364 C1365 1.392 . S
C1364 C1367 1.511 . S
C1365 C1361 1.376 . S
C1365 C1364 1.392 . S
C1365 H1377 0.929 . S
C1366 C1362 1.531 . S
C1366 H1378 0.960 . S
C1366 H1379 0.962 . S
C1366 H1380 0.960 . S
C1367 C1364 1.511 . S
C1367 H1381 0.961 . S
C1367 H1382 0.961 . S
C1367 H1383 0.961 . S
C1368 C1369 1.370 . S
C1368 C1370 1.363 . S
C1368 H1384 0.931 . S
C1369 C1368 1.370 . S
C1369 C1373 1.408 . S
C1370 C1368 1.363 . S
C1370 C1371 1.370 . S
C1370 C1374 1.524 . S
C1371 C1363 1.503 . S
C1371 C1370 1.370 . S
C1371 C1372 1.403 . S
C1372 C1371 1.403 . S
C1372 C1373 1.404 . S
C1372 C1375 1.539 . S
C1373 C1369 1.408 . S
C1373 C1372 1.404 . S
C1373 H1385 0.930 . S
C1374 C1370 1.524 . S
C1374 H1386 0.956 . S
C1374 H1387 0.961 . S
C1374 H1388 0.961 . S
C1375 C1372 1.539 . S
C1375 H1389 0.958 . S
C1375 H1390 0.961 . S
C1375 H1391 0.960 . S
H1376 C1360 0.931 . S
H1377 C1365 0.929 . S
H1378 C1366 0.960 . S
H1379 C1366 0.962 . S
H1380 C1366 0.960 . S
H1381 C1367 0.961 . S
H1382 C1367 0.961 . S
H1383 C1367 0.961 . S
H1384 C1368 0.931 . S
H1385 C1373 0.930 . S
H1386 C1374 0.956 . S
H1387 C1374 0.961 . S
H1388 C1374 0.961 . S
H1389 C1375 0.958 . S
H1390 C1375 0.961 . S
H1391 C1375 0.960 . S
C1392 C1393 1.391 . S
C1392 C1394 1.394 . S
C1392 H1408 0.931 . S
C1393 C1392 1.391 . S
C1393 C1397 1.376 . S
C1394 C1392 1.394 . S
C1394 C1395 1.369 . S
C1394 C1398 1.531 . S
C1395 C1394 1.369 . S
C1395 C1396 1.410 . S
C1395 C1403 1.503 . S
C1396 C1395 1.410 . S
C1396 C1397 1.392 . S
C1396 C1399 1.511 . S
C1397 C1393 1.376 . S
C1397 C1396 1.392 . S
C1397 H1409 0.929 . S
C1398 C1394 1.531 . S
C1398 H1410 0.960 . S
C1398 H1411 0.962 . S
C1398 H1412 0.960 . S
C1399 C1396 1.511 . S
C1399 H1413 0.961 . S
C1399 H1414 0.961 . S
C1399 H1415 0.961 . S
C1400 C1401 1.370 . S
C1400 C1402 1.363 . S
C1400 H1416 0.931 . S
C1401 C1400 1.370 . S
C1401 C1405 1.408 . S
C1402 C1400 1.363 . S
C1402 C1403 1.370 . S
C1402 C1406 1.524 . S
C1403 C1395 1.503 . S
C1403 C1402 1.370 . S
C1403 C1404 1.403 . S
C1404 C1403 1.403 . S
C1404 C1405 1.404 . S
C1404 C1407 1.539 . S
C1405 C1401 1.408 . S
C1405 C1404 1.404 . S
C1405 H1417 0.930 . S
C1406 C1402 1.524 . S
C1406 H1418 0.956 . S
C1406 H1419 0.961 . S
C1406 H1420 0.961 . S
C1407 C1404 1.539 . S
C1407 H1421 0.958 . S
C1407 H1422 0.961 . S
C1407 H1423 0.960 . S
H1408 C1392 0.931 . S
H1409 C1397 0.929 . S
H1410 C1398 0.960 . S
H1411 C1398 0.962 . S
H1412 C1398 0.960 . S
H1413 C1399 0.961 . S
H1414 C1399 0.961 . S
H1415 C1399 0.961 . S
H1416 C1400 0.931 . S
H1417 C1405 0.930 . S
H1418 C1406 0.956 . S
H1419 C1406 0.961 . S
H1420 C1406 0.961 . S
H1421 C1407 0.958 . S
H1422 C1407 0.961 . S
H1423 C1407 0.960 . S
C1424 C1425 1.391 . S
C1424 C1426 1.394 . S
C1424 H1440 0.931 . S
C1425 C1424 1.391 . S
C1425 C1429 1.376 . S
C1426 C1424 1.394 . S
C1426 C1427 1.369 . S
C1426 C1430 1.531 . S
C1427 C1426 1.369 . S
C1427 C1428 1.410 . S
C1427 C1435 1.503 . S
C1428 C1427 1.410 . S
C1428 C1429 1.392 . S
C1428 C1431 1.511 . S
C1429 C1425 1.376 . S
C1429 C1428 1.392 . S
C1429 H1441 0.929 . S
C1430 C1426 1.531 . S
C1430 H1442 0.960 . S
C1430 H1443 0.962 . S
C1430 H1444 0.960 . S
C1431 C1428 1.511 . S
C1431 H1445 0.961 . S
C1431 H1446 0.961 . S
C1431 H1447 0.961 . S
C1432 C1433 1.370 . S
C1432 C1434 1.363 . S
C1432 H1448 0.931 . S
C1433 C1432 1.370 . S
C1433 C1437 1.408 . S
C1434 C1432 1.363 . S
C1434 C1435 1.370 . S
C1434 C1438 1.524 . S
C1435 C1427 1.503 . S
C1435 C1434 1.370 . S
C1435 C1436 1.403 . S
C1436 C1435 1.403 . S
C1436 C1437 1.404 . S
C1436 C1439 1.539 . S
C1437 C1433 1.408 . S
C1437 C1436 1.404 . S
C1437 H1449 0.930 . S
C1438 C1434 1.524 . S
C1438 H1450 0.956 . S
C1438 H1451 0.961 . S
C1438 H1452 0.961 . S
C1439 C1436 1.539 . S
C1439 H1453 0.958 . S
C1439 H1454 0.961 . S
C1439 H1455 0.960 . S
H1440 C1424 0.931 . S
H1441 C1429 0.929 . S
H1442 C1430 0.960 . S
H1443 C1430 0.962 . S
H1444 C1430 0.960 . S
H1445 C1431 0.961 . S
H1446 C1431 0.961 . S
H1447 C1431 0.961 . S
H1448 C1432 0.931 . S
H1449 C1437 0.930 . S
H1450 C1438 0.956 . S
H1451 C1438 0.961 . S
H1452 C1438 0.961 . S
H1453 C1439 0.958 . S
H1454 C1439 0.961 . S
H1455 C1439 0.960 . S
C1456 C1457 1.391 . S
C1456 C1458 1.394 . S
C1456 H1472 0.931 . S
C1457 C1456 1.391 . S
C1457 C1461 1.376 . S
C1458 C1456 1.394 . S
C1458 C1459 1.369 . S
C1458 C1462 1.531 . S
C1459 C1458 1.369 . S
C1459 C1460 1.410 . S
C1459 C1467 1.503 . S
C1460 C1459 1.410 . S
C1460 C1461 1.392 . S
C1460 C1463 1.511 . S
C1461 C1457 1.376 . S
C1461 C1460 1.392 . S
C1461 H1473 0.929 . S
C1462 C1458 1.531 . S
C1462 H1474 0.960 . S
C1462 H1475 0.962 . S
C1462 H1476 0.960 . S
C1463 C1460 1.511 . S
C1463 H1477 0.961 . S
C1463 H1478 0.961 . S
C1463 H1479 0.961 . S
C1464 C1465 1.370 . S
C1464 C1466 1.363 . S
C1464 H1480 0.931 . S
C1465 C1464 1.370 . S
C1465 C1469 1.408 . S
C1466 C1464 1.363 . S
C1466 C1467 1.370 . S
C1466 C1470 1.524 . S
C1467 C1459 1.503 . S
C1467 C1466 1.370 . S
C1467 C1468 1.403 . S
C1468 C1467 1.403 . S
C1468 C1469 1.404 . S
C1468 C1471 1.539 . S
C1469 C1465 1.408 . S
C1469 C1468 1.404 . S
C1469 H1481 0.930 . S
C1470 C1466 1.524 . S
C1470 H1482 0.956 . S
C1470 H1483 0.961 . S
C1470 H1484 0.961 . S
C1471 C1468 1.539 . S
C1471 H1485 0.958 . S
C1471 H1486 0.961 . S
C1471 H1487 0.960 . S
H1472 C1456 0.931 . S
H1473 C1461 0.929 . S
H1474 C1462 0.960 . S
H1475 C1462 0.962 . S
H1476 C1462 0.960 . S
H1477 C1463 0.961 . S
H1478 C1463 0.961 . S
H1479 C1463 0.961 . S
H1480 C1464 0.931 . S
H1481 C1469 0.930 . S
H1482 C1470 0.956 . S
H1483 C1470 0.961 . S
H1484 C1470 0.961 . S
H1485 C1471 0.958 . S
H1486 C1471 0.961 . S
H1487 C1471 0.960 . S
C1488 C1489 1.391 . S
C1488 C1490 1.394 . S
C1488 H1504 0.931 . S
C1489 C1488 1.391 . S
C1489 C1493 1.376 . S
C1490 C1488 1.394 . S
C1490 C1491 1.369 . S
C1490 C1494 1.531 . S
C1491 C1490 1.369 . S
C1491 C1492 1.410 . S
C1491 C1499 1.503 . S
C1492 C1491 1.410 . S
C1492 C1493 1.392 . S
C1492 C1495 1.511 . S
C1493 C1489 1.376 . S
C1493 C1492 1.392 . S
C1493 H1505 0.929 . S
C1494 C1490 1.531 . S
C1494 H1506 0.960 . S
C1494 H1507 0.962 . S
C1494 H1508 0.960 . S
C1495 C1492 1.511 . S
C1495 H1509 0.961 . S
C1495 H1510 0.961 . S
C1495 H1511 0.961 . S
C1496 C1497 1.370 . S
C1496 C1498 1.363 . S
C1496 H1512 0.931 . S
C1497 C1496 1.370 . S
C1497 C1501 1.408 . S
C1498 C1496 1.363 . S
C1498 C1499 1.370 . S
C1498 C1502 1.524 . S
C1499 C1491 1.503 . S
C1499 C1498 1.370 . S
C1499 C1500 1.403 . S
C1500 C1499 1.403 . S
C1500 C1501 1.404 . S
C1500 C1503 1.539 . S
C1501 C1497 1.408 . S
C1501 C1500 1.404 . S
C1501 H1513 0.930 . S
C1502 C1498 1.524 . S
C1502 H1514 0.956 . S
C1502 H1515 0.961 . S
C1502 H1516 0.961 . S
C1503 C1500 1.539 . S
C1503 H1517 0.958 . S
C1503 H1518 0.961 . S
C1503 H1519 0.960 . S
H1504 C1488 0.931 . S
H1505 C1493 0.929 . S
H1506 C1494 0.960 . S
H1507 C1494 0.962 . S
H1508 C1494 0.960 . S
H1509 C1495 0.961 . S
H1510 C1495 0.961 . S
H1511 C1495 0.961 . S
H1512 C1496 0.931 . S
H1513 C1501 0.930 . S
H1514 C1502 0.956 . S
H1515 C1502 0.961 . S
H1516 C1502 0.961 . S
H1517 C1503 0.958 . S
H1518 C1503 0.961 . S
H1519 C1503 0.960 . S
C1520 C1521 1.391 . S
C1520 C1522 1.394 . S
C1520 H1536 0.931 . S
C1521 C1520 1.391 . S
C1521 C1525 1.376 . S
C1522 C1520 1.394 . S
C1522 C1523 1.369 . S
C1522 C1526 1.531 . S
C1523 C1522 1.369 . S
C1523 C1524 1.410 . S
C1523 C1531 1.503 . S
C1524 C1523 1.410 . S
C1524 C1525 1.392 . S
C1524 C1527 1.511 . S
C1525 C1521 1.376 . S
C1525 C1524 1.392 . S
C1525 H1537 0.929 . S
C1526 C1522 1.531 . S
C1526 H1538 0.960 . S
C1526 H1539 0.962 . S
C1526 H1540 0.960 . S
C1527 C1524 1.511 . S
C1527 H1541 0.961 . S
C1527 H1542 0.961 . S
C1527 H1543 0.961 . S
C1528 C1529 1.370 . S
C1528 C1530 1.363 . S
C1528 H1544 0.931 . S
C1529 C1528 1.370 . S
C1529 C1533 1.408 . S
C1530 C1528 1.363 . S
C1530 C1531 1.370 . S
C1530 C1534 1.524 . S
C1531 C1523 1.503 . S
C1531 C1530 1.370 . S
C1531 C1532 1.403 . S
C1532 C1531 1.403 . S
C1532 C1533 1.404 . S
C1532 C1535 1.539 . S
C1533 C1529 1.408 . S
C1533 C1532 1.404 . S
C1533 H1545 0.930 . S
C1534 C1530 1.524 . S
C1534 H1546 0.956 . S
C1534 H1547 0.961 . S
C1534 H1548 0.961 . S
C1535 C1532 1.539 . S
C1535 H1549 0.958 . S
C1535 H1550 0.961 . S
C1535 H1551 0.960 . S
H1536 C1520 0.931 . S
H1537 C1525 0.929 . S
H1538 C1526 0.960 . S
H1539 C1526 0.962 . S
H1540 C1526 0.960 . S
H1541 C1527 0.961 . S
H1542 C1527 0.961 . S
H1543 C1527 0.961 . S
H1544 C1528 0.931 . S
H1545 C1533 0.930 . S
H1546 C1534 0.956 . S
H1547 C1534 0.961 . S
H1548 C1534 0.961 . S
H1549 C1535 0.958 . S
H1550 C1535 0.961 . S
H1551 C1535 0.960 . S
C1552 C1553 1.391 . S
C1552 C1554 1.394 . S
C1552 H1568 0.931 . S
C1553 C1552 1.391 . S
C1553 C1557 1.376 . S
C1554 C1552 1.394 . S
C1554 C1555 1.369 . S
C1554 C1558 1.531 . S
C1555 C1554 1.369 . S
C1555 C1556 1.410 . S
C1555 C1563 1.503 . S
C1556 C1555 1.410 . S
C1556 C1557 1.392 . S
C1556 C1559 1.511 . S
C1557 C1553 1.376 . S
C1557 C1556 1.392 . S
C1557 H1569 0.929 . S
C1558 C1554 1.531 . S
C1558 H1570 0.960 . S
C1558 H1571 0.962 . S
C1558 H1572 0.960 . S
C1559 C1556 1.511 . S
C1559 H1573 0.961 . S
C1559 H1574 0.961 . S
C1559 H1575 0.961 . S
C1560 C1561 1.370 . S
C1560 C1562 1.363 . S
C1560 H1576 0.931 . S
C1561 C1560 1.370 . S
C1561 C1565 1.408 . S
C1562 C1560 1.363 . S
C1562 C1563 1.370 . S
C1562 C1566 1.524 . S
C1563 C1555 1.503 . S
C1563 C1562 1.370 . S
C1563 C1564 1.403 . S
C1564 C1563 1.403 . S
C1564 C1565 1.404 . S
C1564 C1567 1.539 . S
C1565 C1561 1.408 . S
C1565 C1564 1.404 . S
C1565 H1577 0.930 . S
C1566 C1562 1.524 . S
C1566 H1578 0.956 . S
C1566 H1579 0.961 . S
C1566 H1580 0.961 . S
C1567 C1564 1.539 . S
C1567 H1581 0.958 . S
C1567 H1582 0.961 . S
C1567 H1583 0.960 . S
H1568 C1552 0.931 . S
H1569 C1557 0.929 . S
H1570 C1558 0.960 . S
H1571 C1558 0.962 . S
H1572 C1558 0.960 . S
H1573 C1559 0.961 . S
H1574 C1559 0.961 . S
H1575 C1559 0.961 . S
H1576 C1560 0.931 . S
H1577 C1565 0.930 . S
H1578 C1566 0.956 . S
H1579 C1566 0.961 . S
H1580 C1566 0.961 . S
H1581 C1567 0.958 . S
H1582 C1567 0.961 . S
H1583 C1567 0.960 . S
C1584 C1585 1.391 . S
C1584 C1586 1.394 . S
C1584 H1600 0.931 . S
C1585 C1584 1.391 . S
C1585 C1589 1.376 . S
C1586 C1584 1.394 . S
C1586 C1587 1.369 . S
C1586 C1590 1.531 . S
C1587 C1586 1.369 . S
C1587 C1588 1.410 . S
C1587 C1595 1.503 . S
C1588 C1587 1.410 . S
C1588 C1589 1.392 . S
C1588 C1591 1.511 . S
C1589 C1585 1.376 . S
C1589 C1588 1.392 . S
C1589 H1601 0.929 . S
C1590 C1586 1.531 . S
C1590 H1602 0.960 . S
C1590 H1603 0.962 . S
C1590 H1604 0.960 . S
C1591 C1588 1.511 . S
C1591 H1605 0.961 . S
C1591 H1606 0.961 . S
C1591 H1607 0.961 . S
C1592 C1593 1.370 . S
C1592 C1594 1.363 . S
C1592 H1608 0.931 . S
C1593 C1592 1.370 . S
C1593 C1597 1.408 . S
C1594 C1592 1.363 . S
C1594 C1595 1.370 . S
C1594 C1598 1.524 . S
C1595 C1587 1.503 . S
C1595 C1594 1.370 . S
C1595 C1596 1.403 . S
C1596 C1595 1.403 . S
C1596 C1597 1.404 . S
C1596 C1599 1.539 . S
C1597 C1593 1.408 . S
C1597 C1596 1.404 . S
C1597 H1609 0.930 . S
C1598 C1594 1.524 . S
C1598 H1610 0.956 . S
C1598 H1611 0.961 . S
C1598 H1612 0.961 . S
C1599 C1596 1.539 . S
C1599 H1613 0.958 . S
C1599 H1614 0.961 . S
C1599 H1615 0.960 . S
H1600 C1584 0.931 . S
H1601 C1589 0.929 . S
H1602 C1590 0.960 . S
H1603 C1590 0.962 . S
H1604 C1590 0.960 . S
H1605 C1591 0.961 . S
H1606 C1591 0.961 . S
H1607 C1591 0.961 . S
H1608 C1592 0.931 . S
H1609 C1597 0.930 . S
H1610 C1598 0.956 . S
H1611 C1598 0.961 . S
H1612 C1598 0.961 . S
H1613 C1599 0.958 . S
H1614 C1599 0.961 . S
H1615 C1599 0.960 . S
C1616 C1617 1.391 . S
C1616 C1618 1.394 . S
C1616 H1632 0.931 . S
C1617 C1616 1.391 . S
C1617 C1621 1.376 . S
C1618 C1616 1.394 . S
C1618 C1619 1.369 . S
C1618 C1622 1.531 . S
C1619 C1618 1.369 . S
C1619 C1620 1.410 . S
C1619 C1627 1.503 . S
C1620 C1619 1.410 . S
C1620 C1621 1.392 . S
C1620 C1623 1.511 . S
C1621 C1617 1.376 . S
C1621 C1620 1.392 . S
C1621 H1633 0.929 . S
C1622 C1618 1.531 . S
C1622 H1634 0.960 . S
C1622 H1635 0.962 . S
C1622 H1636 0.960 . S
C1623 C1620 1.511 . S
C1623 H1637 0.961 . S
C1623 H1638 0.961 . S
C1623 H1639 0.961 . S
C1624 C1625 1.370 . S
C1624 C1626 1.363 . S
C1624 H1640 0.931 . S
C1625 C1624 1.370 . S
C1625 C1629 1.408 . S
C1626 C1624 1.363 . S
C1626 C1627 1.370 . S
C1626 C1630 1.524 . S
C1627 C1619 1.503 . S
C1627 C1626 1.370 . S
C1627 C1628 1.403 . S
C1628 C1627 1.403 . S
C1628 C1629 1.404 . S
C1628 C1631 1.539 . S
C1629 C1625 1.408 . S
C1629 C1628 1.404 . S
C1629 H1641 0.930 . S
C1630 C1626 1.524 . S
C1630 H1642 0.956 . S
C1630 H1643 0.961 . S
C1630 H1644 0.961 . S
C1631 C1628 1.539 . S
C1631 H1645 0.958 . S
C1631 H1646 0.961 . S
C1631 H1647 0.960 . S
H1632 C1616 0.931 . S
H1633 C1621 0.929 . S
H1634 C1622 0.960 . S
H1635 C1622 0.962 . S
H1636 C1622 0.960 . S
H1637 C1623 0.961 . S
H1638 C1623 0.961 . S
H1639 C1623 0.961 . S
H1640 C1624 0.931 . S
H1641 C1629 0.930 . S
H1642 C1630 0.956 . S
H1643 C1630 0.961 . S
H1644 C1630 0.961 . S
H1645 C1631 0.958 . S
H1646 C1631 0.961 . S
H1647 C1631 0.960 . S
C1648 C1649 1.391 . S
C1648 C1650 1.394 . S
C1648 H1664 0.931 . S
C1649 C1648 1.391 . S
C1649 C1653 1.376 . S
C1650 C1648 1.394 . S
C1650 C1651 1.369 . S
C1650 C1654 1.531 . S
C1651 C1650 1.369 . S
C1651 C1652 1.410 . S
C1651 C1659 1.503 . S
C1652 C1651 1.410 . S
C1652 C1653 1.392 . S
C1652 C1655 1.511 . S
C1653 C1649 1.376 . S
C1653 C1652 1.392 . S
C1653 H1665 0.929 . S
C1654 C1650 1.531 . S
C1654 H1666 0.960 . S
C1654 H1667 0.962 . S
C1654 H1668 0.960 . S
C1655 C1652 1.511 . S
C1655 H1669 0.961 . S
C1655 H1670 0.961 . S
C1655 H1671 0.961 . S
C1656 C1657 1.370 . S
C1656 C1658 1.363 . S
C1656 H1672 0.931 . S
C1657 C1656 1.370 . S
C1657 C1661 1.408 . S
C1658 C1656 1.363 . S
C1658 C1659 1.370 . S
C1658 C1662 1.524 . S
C1659 C1651 1.503 . S
C1659 C1658 1.370 . S
C1659 C1660 1.403 . S
C1660 C1659 1.403 . S
C1660 C1661 1.404 . S
C1660 C1663 1.539 . S
C1661 C1657 1.408 . S
C1661 C1660 1.404 . S
C1661 H1673 0.930 . S
C1662 C1658 1.524 . S
C1662 H1674 0.956 . S
C1662 H1675 0.961 . S
C1662 H1676 0.961 . S
C1663 C1660 1.539 . S
C1663 H1677 0.958 . S
C1663 H1678 0.961 . S
C1663 H1679 0.960 . S
H1664 C1648 0.931 . S
H1665 C1653 0.929 . S
H1666 C1654 0.960 . S
H1667 C1654 0.962 . S
H1668 C1654 0.960 . S
H1669 C1655 0.961 . S
H1670 C1655 0.961 . S
H1671 C1655 0.961 . S
H1672 C1656 0.931 . S
H1673 C1661 0.930 . S
H1674 C1662 0.956 . S
H1675 C1662 0.961 . S
H1676 C1662 0.961 . S
H1677 C1663 0.958 . S
H1678 C1663 0.961 . S
H1679 C1663 0.960 . S
C1680 C1681 1.391 . S
C1680 C1682 1.394 . S
C1680 H1696 0.931 . S
C1681 C1680 1.391 . S
C1681 C1685 1.376 . S
C1682 C1680 1.394 . S
C1682 C1683 1.369 . S
C1682 C1686 1.531 . S
C1683 C1682 1.369 . S
C1683 C1684 1.410 . S
C1683 C1691 1.503 . S
C1684 C1683 1.410 . S
C1684 C1685 1.392 . S
C1684 C1687 1.511 . S
C1685 C1681 1.376 . S
C1685 C1684 1.392 . S
C1685 H1697 0.929 . S
C1686 C1682 1.531 . S
C1686 H1698 0.960 . S
C1686 H1699 0.962 . S
C1686 H1700 0.960 . S
C1687 C1684 1.511 . S
C1687 H1701 0.961 . S
C1687 H1702 0.961 . S
C1687 H1703 0.961 . S
C1688 C1689 1.370 . S
C1688 C1690 1.363 . S
C1688 H1704 0.931 . S
C1689 C1688 1.370 . S
C1689 C1693 1.408 . S
C1690 C1688 1.363 . S
C1690 C1691 1.370 . S
C1690 C1694 1.524 . S
C1691 C1683 1.503 . S
C1691 C1690 1.370 . S
C1691 C1692 1.403 . S
C1692 C1691 1.403 . S
C1692 C1693 1.404 . S
C1692 C1695 1.539 . S
C1693 C1689 1.408 . S
C1693 C1692 1.404 . S
C1693 H1705 0.930 . S
C1694 C1690 1.524 . S
C1694 H1706 0.956 . S
C1694 H1707 0.961 . S
C1694 H1708 0.961 . S
C1695 C1692 1.539 . S
C1695 H1709 0.958 . S
C1695 H1710 0.961 . S
C1695 H1711 0.960 . S
H1696 C1680 0.931 . S
H1697 C1685 0.929 . S
H1698 C1686 0.960 . S
H1699 C1686 0.962 . S
H1700 C1686 0.960 . S
H1701 C1687 0.961 . S
H1702 C1687 0.961 . S
H1703 C1687 0.961 . S
H1704 C1688 0.931 . S
H1705 C1693 0.930 . S
H1706 C1694 0.956 . S
H1707 C1694 0.961 . S
H1708 C1694 0.961 . S
H1709 C1695 0.958 . S
H1710 C1695 0.961 . S
H1711 C1695 0.960 . S
C1712 C1713 1.391 . S
C1712 C1714 1.394 . S
C1712 H1728 0.931 . S
C1713 C1712 1.391 . S
C1713 C1717 1.376 . S
C1714 C1712 1.394 . S
C1714 C1715 1.369 . S
C1714 C1718 1.531 . S
C1715 C1714 1.369 . S
C1715 C1716 1.410 . S
C1715 C1723 1.503 . S
C1716 C1715 1.410 . S
C1716 C1717 1.392 . S
C1716 C1719 1.511 . S
C1717 C1713 1.376 . S
C1717 C1716 1.392 . S
C1717 H1729 0.929 . S
C1718 C1714 1.531 . S
C1718 H1730 0.960 . S
C1718 H1731 0.962 . S
C1718 H1732 0.960 . S
C1719 C1716 1.511 . S
C1719 H1733 0.961 . S
C1719 H1734 0.961 . S
C1719 H1735 0.961 . S
C1720 C1721 1.370 . S
C1720 C1722 1.363 . S
C1720 H1736 0.931 . S
C1721 C1720 1.370 . S
C1721 C1725 1.408 . S
C1722 C1720 1.363 . S
C1722 C1723 1.370 . S
C1722 C1726 1.524 . S
C1723 C1715 1.503 . S
C1723 C1722 1.370 . S
C1723 C1724 1.403 . S
C1724 C1723 1.403 . S
C1724 C1725 1.404 . S
C1724 C1727 1.539 . S
C1725 C1721 1.408 . S
C1725 C1724 1.404 . S
C1725 H1737 0.930 . S
C1726 C1722 1.524 . S
C1726 H1738 0.956 . S
C1726 H1739 0.961 . S
C1726 H1740 0.961 . S
C1727 C1724 1.539 . S
C1727 H1741 0.958 . S
C1727 H1742 0.961 . S
C1727 H1743 0.960 . S
H1728 C1712 0.931 . S
H1729 C1717 0.929 . S
H1730 C1718 0.960 . S
H1731 C1718 0.962 . S
H1732 C1718 0.960 . S
H1733 C1719 0.961 . S
H1734 C1719 0.961 . S
H1735 C1719 0.961 . S
H1736 C1720 0.931 . S
H1737 C1725 0.930 . S
H1738 C1726 0.956 . S
H1739 C1726 0.961 . S
H1740 C1726 0.961 . S
H1741 C1727 0.958 . S
H1742 C1727 0.961 . S
H1743 C1727 0.960 . S
C1744 C1745 1.391 . S
C1744 C1746 1.394 . S
C1744 H1760 0.931 . S
C1745 C1744 1.391 . S
C1745 C1749 1.376 . S
C1746 C1744 1.394 . S
C1746 C1747 1.369 . S
C1746 C1750 1.531 . S
C1747 C1746 1.369 . S
C1747 C1748 1.410 . S
C1747 C1755 1.503 . S
C1748 C1747 1.410 . S
C1748 C1749 1.392 . S
C1748 C1751 1.511 . S
C1749 C1745 1.376 . S
C1749 C1748 1.392 . S
C1749 H1761 0.929 . S
C1750 C1746 1.531 . S
C1750 H1762 0.960 . S
C1750 H1763 0.962 . S
C1750 H1764 0.960 . S
C1751 C1748 1.511 . S
C1751 H1765 0.961 . S
C1751 H1766 0.961 . S
C1751 H1767 0.961 . S
C1752 C1753 1.370 . S
C1752 C1754 1.363 . S
C1752 H1768 0.931 . S
C1753 C1752 1.370 . S
C1753 C1757 1.408 . S
C1754 C1752 1.363 . S
C1754 C1755 1.370 . S
C1754 C1758 1.524 . S
C1755 C1747 1.503 . S
C1755 C1754 1.370 . S
C1755 C1756 1.403 . S
C1756 C1755 1.403 . S
C1756 C1757 1.404 . S
C1756 C1759 1.539 . S
C1757 C1753 1.408 . S
C1757 C1756 1.404 . S
C1757 H1769 0.930 . S
C1758 C1754 1.524 . S
C1758 H1770 0.956 . S
C1758 H1771 0.961 . S
C1758 H1772 0.961 . S
C1759 C1756 1.539 . S
C1759 H1773 0.958 . S
C1759 H1774 0.961 . S
C1759 H1775 0.960 . S
H1760 C1744 0.931 . S
H1761 C1749 0.929 . S
H1762 C1750 0.960 . S
H1763 C1750 0.962 . S
H1764 C1750 0.960 . S
H1765 C1751 0.961 . S
H1766 C1751 0.961 . S
H1767 C1751 0.961 . S
H1768 C1752 0.931 . S
H1769 C1757 0.930 . S
H1770 C1758 0.956 . S
H1771 C1758 0.961 . S
H1772 C1758 0.961 . S
H1773 C1759 0.958 . S
H1774 C1759 0.961 . S
H1775 C1759 0.960 . S
C1776 C1777 1.391 . S
C1776 C1778 1.394 . S
C1776 H1792 0.931 . S
C1777 C1776 1.391 . S
C1777 C1781 1.376 . S
C1778 C1776 1.394 . S
C1778 C1779 1.369 . S
C1778 C1782 1.531 . S
C1779 C1778 1.369 . S
C1779 C1780 1.410 . S
C1779 C1787 1.503 . S
C1780 C1779 1.410 . S
C1780 C1781 1.392 . S
C1780 C1783 1.511 . S
C1781 C1777 1.376 . S
C1781 C1780 1.392 . S
C1781 H1793 0.929 . S
C1782 C1778 1.531 . S
C1782 H1794 0.960 . S
C1782 H1795 0.962 . S
C1782 H1796 0.960 . S
C1783 C1780 1.511 . S
C1783 H1797 0.961 . S
C1783 H1798 0.961 . S
C1783 H1799 0.961 . S
C1784 C1785 1.370 . S
C1784 C1786 1.363 . S
C1784 H1800 0.931 . S
C1785 C1784 1.370 . S
C1785 C1789 1.408 . S
C1786 C1784 1.363 . S
C1786 C1787 1.370 . S
C1786 C1790 1.524 . S
C1787 C1779 1.503 . S
C1787 C1786 1.370 . S
C1787 C1788 1.403 . S
C1788 C1787 1.403 . S
C1788 C1789 1.404 . S
C1788 C1791 1.539 . S
C1789 C1785 1.408 . S
C1789 C1788 1.404 . S
C1789 H1801 0.930 . S
C1790 C1786 1.524 . S
C1790 H1802 0.956 . S
C1790 H1803 0.961 . S
C1790 H1804 0.961 . S
C1791 C1788 1.539 . S
C1791 H1805 0.958 . S
C1791 H1806 0.961 . S
C1791 H1807 0.960 . S
H1792 C1776 0.931 . S
H1793 C1781 0.929 . S
H1794 C1782 0.960 . S
H1795 C1782 0.962 . S
H1796 C1782 0.960 . S
H1797 C1783 0.961 . S
H1798 C1783 0.961 . S
H1799 C1783 0.961 . S
H1800 C1784 0.931 . S
H1801 C1789 0.930 . S
H1802 C1790 0.956 . S
H1803 C1790 0.961 . S
H1804 C1790 0.961 . S
H1805 C1791 0.958 . S
H1806 C1791 0.961 . S
H1807 C1791 0.960 . S
C529 N5 1.816 . S
C537 N236 1.817 . S
C561 N137 1.814 . S
C569 N38 1.817 . S
C593 N170 1.806 . S
C601 N71 1.814 . S
C625 N203 1.810 . S
C633 N104 1.816 . S
C657 N269 1.816 . S
C665 N500 1.818 . S
C689 N302 1.816 . S
C697 N401 1.818 . S
C721 N434 1.805 . S
C729 N335 1.813 . S
C753 N368 1.805 . S
C761 N467 1.813 . S
C785 N14 1.645 . S
C793 N344 1.632 . S
C817 N377 1.583 . S
C825 N47 1.606 . S
C849 N278 1.590 . S
C857 N80 1.610 . S
C881 N311 1.644 . S
C889 N113 1.632 . S
C913 N476 1.621 . S
C921 N146 1.619 . S
C945 N509 1.584 . S
C953 N179 1.607 . S
C977 N410 1.606 . S
C985 N212 1.617 . S
C1009 N443 1.645 . S
C1017 N245 1.632 . S
C1041 C17 0.826 . S
C1049 C83 0.784 . S
C1073 C116 0.813 . S
C1081 C50 0.790 . S
C1105 C215 0.850 . S
C1113 C149 0.768 . S
C1137 C248 0.775 . S
C1145 C182 0.802 . S
C1169 C281 0.830 . S
C1177 C347 0.773 . S
C1201 C380 0.842 . S
C1209 C314 0.766 . S
C1233 C413 0.855 . S
C1241 C479 0.754 . S
C1265 C446 0.760 . S
C1273 C512 0.786 . S
C1297 C470 1.692 . S
C1305 C28 1.866 . S
C1329 C61 1.849 . S
C1337 C503 1.736 . S
C1361 C404 1.769 . S
C1369 C94 1.848 . S
C1393 C437 1.738 . S
C1401 C127 1.854 . S
C1425 C338 1.743 1_655 S
C1433 C160 1.855 . S
C1457 C193 1.845 . S
C1465 C371 1.739 1_565 S
C1489 C272 1.706 1_455 S
C1497 C226 1.862 . S
C1521 C259 1.874 . S
C1529 C305 1.719 1_545 S
C1553 C206 1.750 . S
C1561 C292 1.849 . S
C1585 C239 1.764 . S
C1593 C325 1.848 . S
C1617 C140 1.746 . S
C1625 C358 1.857 . S
C1649 C391 1.850 . S
C1657 C173 1.730 . S
C1681 C74 1.768 1_455 S
C1689 C424 1.847 . S
C1713 C457 1.849 . S
C1721 C107 1.730 1_545 S
C1745 C490 1.859 . S
C1753 C8 1.737 1_655 S
C1777 C41 1.762 1_565 S
C1785 C523 1.848 . S
