# Generated by pormake.
# Topology umh, (4)-cn, num edge types: 1
# Building blocks:
#     Node 0, Type 0, BuildingBlock: ICAMEG_clean_sbu_1, # of connection points: 4
#     Node 1, Type 0, BuildingBlock: ICAMEG_clean_sbu_1, # of connection points: 4
#     Node 2, Type 0, BuildingBlock: ICAMEG_clean_sbu_1, # of connection points: 4
#     Node 3, Type 0, BuildingBlock: ICAMEG_clean_sbu_1, # of connection points: 4
#     Node 4, Type 0, BuildingBlock: ICAMEG_clean_sbu_1, # of connection points: 4
#     Node 5, Type 0, BuildingBlock: ICAMEG_clean_sbu_1, # of connection points: 4
#     Node 6, Type 0, BuildingBlock: ICAMEG_clean_sbu_1, # of connection points: 4
#     Node 7, Type 0, BuildingBlock: ICAMEG_clean_sbu_1, # of connection points: 4
#     Node 8, Type 0, BuildingBlock: ICAMEG_clean_sbu_1, # of connection points: 4
#     Node 9, Type 0, BuildingBlock: ICAMEG_clean_sbu_1, # of connection points: 4
#     Node 10, Type 0, BuildingBlock: ICAMEG_clean_sbu_1, # of connection points: 4
#     Node 11, Type 0, BuildingBlock: ICAMEG_clean_sbu_1, # of connection points: 4
#     Node 12, Type 0, BuildingBlock: ICAMEG_clean_sbu_1, # of connection points: 4
#     Node 13, Type 0, BuildingBlock: ICAMEG_clean_sbu_1, # of connection points: 4
#     Node 14, Type 0, BuildingBlock: ICAMEG_clean_sbu_1, # of connection points: 4
#     Node 15, Type 0, BuildingBlock: ICAMEG_clean_sbu_1, # of connection points: 4
#     Edge 16, Type (0, 0), BuildingBlock: XUDNAN_clean_linker_2, # of connection points: 2
#     Edge 17, Type (0, 0), BuildingBlock: XUDNAN_clean_linker_2, # of connection points: 2
#     Edge 18, Type (0, 0), BuildingBlock: XUDNAN_clean_linker_2, # of connection points: 2
#     Edge 19, Type (0, 0), BuildingBlock: XUDNAN_clean_linker_2, # of connection points: 2
#     Edge 20, Type (0, 0), BuildingBlock: XUDNAN_clean_linker_2, # of connection points: 2
#     Edge 21, Type (0, 0), BuildingBlock: XUDNAN_clean_linker_2, # of connection points: 2
#     Edge 22, Type (0, 0), BuildingBlock: XUDNAN_clean_linker_2, # of connection points: 2
#     Edge 23, Type (0, 0), BuildingBlock: XUDNAN_clean_linker_2, # of connection points: 2
#     Edge 24, Type (0, 0), BuildingBlock: XUDNAN_clean_linker_2, # of connection points: 2
#     Edge 25, Type (0, 0), BuildingBlock: XUDNAN_clean_linker_2, # of connection points: 2
#     Edge 26, Type (0, 0), BuildingBlock: XUDNAN_clean_linker_2, # of connection points: 2
#     Edge 27, Type (0, 0), BuildingBlock: XUDNAN_clean_linker_2, # of connection points: 2
#     Edge 28, Type (0, 0), BuildingBlock: XUDNAN_clean_linker_2, # of connection points: 2
#     Edge 29, Type (0, 0), BuildingBlock: XUDNAN_clean_linker_2, # of connection points: 2
#     Edge 30, Type (0, 0), BuildingBlock: XUDNAN_clean_linker_2, # of connection points: 2
#     Edge 31, Type (0, 0), BuildingBlock: XUDNAN_clean_linker_2, # of connection points: 2
#     Edge 32, Type (0, 0), BuildingBlock: XUDNAN_clean_linker_2, # of connection points: 2
#     Edge 33, Type (0, 0), BuildingBlock: XUDNAN_clean_linker_2, # of connection points: 2
#     Edge 34, Type (0, 0), BuildingBlock: XUDNAN_clean_linker_2, # of connection points: 2
#     Edge 35, Type (0, 0), BuildingBlock: XUDNAN_clean_linker_2, # of connection points: 2
#     Edge 36, Type (0, 0), BuildingBlock: XUDNAN_clean_linker_2, # of connection points: 2
#     Edge 37, Type (0, 0), BuildingBlock: XUDNAN_clean_linker_2, # of connection points: 2
#     Edge 38, Type (0, 0), BuildingBlock: XUDNAN_clean_linker_2, # of connection points: 2
#     Edge 39, Type (0, 0), BuildingBlock: XUDNAN_clean_linker_2, # of connection points: 2
#     Edge 40, Type (0, 0), BuildingBlock: XUDNAN_clean_linker_2, # of connection points: 2
#     Edge 41, Type (0, 0), BuildingBlock: XUDNAN_clean_linker_2, # of connection points: 2
#     Edge 42, Type (0, 0), BuildingBlock: XUDNAN_clean_linker_2, # of connection points: 2
#     Edge 43, Type (0, 0), BuildingBlock: XUDNAN_clean_linker_2, # of connection points: 2
#     Edge 44, Type (0, 0), BuildingBlock: XUDNAN_clean_linker_2, # of connection points: 2
#     Edge 45, Type (0, 0), BuildingBlock: XUDNAN_clean_linker_2, # of connection points: 2
#     Edge 46, Type (0, 0), BuildingBlock: XUDNAN_clean_linker_2, # of connection points: 2
#     Edge 47, Type (0, 0), BuildingBlock: XUDNAN_clean_linker_2, # of connection points: 2
# Relax obj value: 0.087
# Max RMSD: 0.247
# Mean RMSD: 0.247
data_MOF--net-umh--node1-ICAMEG_clean_sbu_1--edge1-XUDNAN_clean_linker_2
_symmetry_space_group_name_H-M    P1
_symmetry_Int_Tables_number       1
_symmetry_cell_setting            triclinic
loop_
_symmetry_equiv_pos_as_xyz
'x, y, z'
_cell_length_a     42.57976
_cell_length_b     42.598003
_cell_length_c     56.815083
_cell_angle_alpha  90.004516
_cell_angle_beta   89.993963
_cell_angle_gamma 90.160675
loop_
_atom_site_label
_atom_site_type_symbol
_atom_site_fract_x
_atom_site_fract_y
_atom_site_fract_z
_atom_type_partial_charge
Co0 Co 0.29267 0.08727 0.13067 0.0
Co1 Co 0.35301 0.10109 0.16952 0.0
O2 O 0.33629 0.08377 0.14029 0.0
C3 C 0.32647 0.11193 0.08843 0.0
O4 O 0.34127 0.13208 0.102 0.0
C5 C 0.36895 0.03444 0.17125 0.0
O6 O 0.33906 0.02952 0.16692 0.0
O7 O 0.31897 0.0813 0.18841 0.0
O8 O 0.27766 0.08165 0.16386 0.0
H9 H 0.34758 0.15362 0.24863 0.0
H10 H 0.33417 0.04144 0.10682 0.0
O11 O 0.3066 0.09276 0.0972 0.0
H12 H 0.24799 0.97854 0.14081 0.0
H13 H 0.20093 0.06852 0.0765 0.0
H14 H 0.23686 0.12053 0.14926 0.0
H15 H 0.24878 0.03612 0.14528 0.0
H16 H 0.2557 0.0628 0.08999 0.0
O17 O 0.37932 0.06242 0.17316 0.0
H18 H 0.32623 0.13327 0.21127 0.0
H19 H 0.41711 0.1033 0.19042 0.0
H20 H 0.18191 0.12683 0.13645 0.0
H21 H 0.33417 0.98393 0.10176 0.0
H22 H 0.16361 0.10068 0.09984 0.0
H23 H 0.29091 0.95207 0.11891 0.0
O24 O 0.29388 0.13333 0.13554 0.0
H25 H 0.43782 0.10433 0.10805 0.0
H26 H 0.37974 0.16574 0.16729 0.0
H27 H 0.4206 0.19171 0.14337 0.0
H28 H 0.44999 0.16092 0.11352 0.0
H29 H 0.39661 0.07937 0.13221 0.0
H30 H 0.43948 0.12324 0.22761 0.0
H31 H 0.40463 0.14869 0.25699 0.0
O32 O 0.32637 0.13959 0.16646 0.0
C33 C 0.28972 0.07801 0.18426 0.0
C34 C 0.36305 0.14277 0.2359 0.0
C35 C 0.41462 0.12566 0.22413 0.0
N36 N 0.37048 0.11755 0.19854 0.0
C37 C 0.35111 0.13133 0.21467 0.0
C38 C 0.40183 0.11442 0.2031 0.0
C39 C 0.39505 0.13994 0.2406 0.0
C40 C 0.31509 0.02776 0.11411 0.0
N41 N 0.29143 0.04213 0.12624 0.0
C42 C 0.31529 0.9952 0.11128 0.0
C43 C 0.29104 0.97733 0.12094 0.0
C44 C 0.26696 0.99217 0.13325 0.0
C45 C 0.26757 0.02478 0.13576 0.0
C46 C 0.2086 0.07995 0.09252 0.0
C47 C 0.22903 0.10892 0.13339 0.0
C48 C 0.23958 0.07682 0.10023 0.0
N49 N 0.24938 0.09108 0.1205 0.0
C50 C 0.1979 0.11264 0.12619 0.0
C51 C 0.18767 0.098 0.10563 0.0
C52 C 0.30565 0.14979 0.15211 0.0
C53 C 0.42525 0.11797 0.12105 0.0
C54 C 0.39239 0.15222 0.1543 0.0
C55 C 0.41554 0.16703 0.14084 0.0
C56 C 0.43203 0.14974 0.12411 0.0
N57 N 0.38593 0.12104 0.15124 0.0
C58 C 0.40197 0.10394 0.13484 0.0
Co59 Co 0.40226 0.30476 0.62885 0.0
Co60 Co 0.38907 0.3645 0.66878 0.0
O61 O 0.40557 0.34804 0.63938 0.0
C62 C 0.36801 0.34246 0.5941 0.0
O63 O 0.35545 0.35575 0.61264 0.0
C64 C 0.45714 0.37424 0.67066 0.0
O65 O 0.45929 0.34458 0.66471 0.0
O66 O 0.40458 0.32757 0.6867 0.0
O67 O 0.41539 0.28906 0.66075 0.0
H68 H 0.3322 0.3595 0.74619 0.0
H69 H 0.43975 0.35048 0.60114 0.0
O70 O 0.38801 0.32044 0.59688 0.0
H71 H 0.5143 0.26798 0.62494 0.0
H72 H 0.41399 0.21792 0.5695 0.0
H73 H 0.37863 0.24521 0.64955 0.0
H74 H 0.45837 0.26436 0.63602 0.0
H75 H 0.41873 0.27226 0.58416 0.0
O76 O 0.43023 0.38662 0.67384 0.0
H77 H 0.35168 0.3387 0.70842 0.0
H78 H 0.39341 0.42679 0.69234 0.0
H79 H 0.37351 0.1906 0.63565 0.0
H80 H 0.49543 0.35497 0.58956 0.0
H81 H 0.39129 0.17665 0.59535 0.0
H82 H 0.53314 0.31356 0.60155 0.0
O83 O 0.3579 0.3018 0.63925 0.0
H84 H 0.39654 0.45252 0.61011 0.0
H85 H 0.32769 0.39775 0.66667 0.0
H86 H 0.30672 0.44205 0.64359 0.0
H87 H 0.34125 0.46975 0.61507 0.0
H88 H 0.41645 0.40794 0.63337 0.0
H89 H 0.37442 0.44858 0.72998 0.0
H90 H 0.34352 0.41484 0.75717 0.0
O91 O 0.34816 0.34215 0.6639 0.0
C92 C 0.41364 0.29979 0.68178 0.0
C93 C 0.34551 0.37448 0.73445 0.0
C94 C 0.36926 0.42446 0.72537 0.0
N95 N 0.3734 0.38161 0.69812 0.0
C96 C 0.35652 0.36286 0.713 0.0
C97 C 0.37997 0.412 0.7041 0.0
C98 C 0.35192 0.40552 0.74061 0.0
C99 C 0.45596 0.33221 0.60619 0.0
N100 N 0.44581 0.30707 0.61907 0.0
C101 C 0.48748 0.33494 0.59968 0.0
C102 C 0.50864 0.31172 0.60644 0.0
C103 C 0.49808 0.28615 0.61958 0.0
C104 C 0.46641 0.28423 0.62581 0.0
C105 C 0.4062 0.2237 0.5871 0.0
C106 C 0.38653 0.2393 0.63204 0.0
C107 C 0.40877 0.25442 0.59548 0.0
N108 N 0.39909 0.26184 0.61772 0.0
C109 C 0.38352 0.20835 0.62424 0.0
C110 C 0.39347 0.20055 0.60162 0.0
C111 C 0.33989 0.31738 0.65281 0.0
C112 C 0.38129 0.4407 0.62253 0.0
C113 C 0.34285 0.40971 0.65429 0.0
C114 C 0.33086 0.43479 0.6413 0.0
C115 C 0.35026 0.45033 0.6253 0.0
N116 N 0.37331 0.4004 0.65147 0.0
C117 C 0.39248 0.41554 0.63584 0.0
Co118 Co 0.16616 0.39603 0.13474 0.0
Co119 Co 0.11344 0.37147 0.17702 0.0
O120 O 0.12378 0.38977 0.14666 0.0
C121 C 0.13358 0.35779 0.09939 0.0
O122 O 0.12525 0.34029 0.11735 0.0
C123 C 0.08315 0.43297 0.17663 0.0
O124 O 0.11076 0.44369 0.17019 0.0
O125 O 0.14333 0.39979 0.19316 0.0
O126 O 0.18179 0.40959 0.16681 0.0
H127 H 0.13656 0.32606 0.25677 0.0
H128 H 0.11235 0.42612 0.11054 0.0
O129 O 0.15109 0.38179 0.10273 0.0
H130 H 0.18049 0.51333 0.13639 0.0
H131 H 0.24484 0.43013 0.07376 0.0
H132 H 0.23037 0.38177 0.1519 0.0
H133 H 0.19581 0.45836 0.14369 0.0
H134 H 0.1917 0.42275 0.09027 0.0
O135 O 0.07946 0.40373 0.18067 0.0
H136 H 0.14993 0.34855 0.21802 0.0
H137 H 0.05313 0.35729 0.20137 0.0
H138 H 0.28392 0.38892 0.13617 0.0
H139 H 0.09619 0.48072 0.1028 0.0
H140 H 0.2914 0.41326 0.09682 0.0
H141 H 0.13027 0.52477 0.1159 0.0
O142 O 0.17764 0.35224 0.14246 0.0
H143 H 0.02661 0.34488 0.12048 0.0
H144 H 0.10188 0.30245 0.17818 0.0
H145 H 0.06613 0.26631 0.15725 0.0
H146 H 0.02814 0.28751 0.12817 0.0
H147 H 0.06299 0.38012 0.14161 0.0
H148 H 0.03867 0.33511 0.24003 0.0
H149 H 0.08057 0.31919 0.26798 0.0
O150 O 0.14781 0.33954 0.17388 0.0
C151 C 0.1701 0.41094 0.18756 0.0
C152 C 0.1181 0.33277 0.24471 0.0
C153 C 0.06315 0.33789 0.23532 0.0
N154 N 0.10234 0.35384 0.20737 0.0
C155 C 0.12553 0.3454 0.22271 0.0
C156 C 0.07147 0.35046 0.21348 0.0
C157 C 0.08667 0.32896 0.25099 0.0
C158 C 0.12753 0.44516 0.11599 0.0
N159 N 0.15507 0.43907 0.12744 0.0
C160 C 0.11817 0.47603 0.11167 0.0
C161 C 0.13729 0.50074 0.11906 0.0
C162 C 0.16545 0.49433 0.13058 0.0
C163 C 0.17399 0.46317 0.13467 0.0
C164 C 0.24189 0.41958 0.09095 0.0
C165 C 0.23346 0.3926 0.13485 0.0
C166 C 0.21187 0.4153 0.10037 0.0
N167 N 0.208 0.40214 0.12211 0.0
C168 C 0.26383 0.39648 0.12599 0.0
C169 C 0.268 0.41011 0.1039 0.0
C170 C 0.17009 0.33411 0.15938 0.0
C171 C 0.04296 0.33538 0.13318 0.0
C172 C 0.08544 0.31183 0.16553 0.0
C173 C 0.06522 0.29127 0.15377 0.0
C174 C 0.04388 0.30318 0.13747 0.0
N175 N 0.08439 0.34337 0.16122 0.0
C176 C 0.06352 0.35524 0.14528 0.0
Co177 Co 0.08071 0.18211 0.63314 0.0
Co178 Co 0.11784 0.13665 0.67511 0.0
O179 O 0.09456 0.1422 0.64605 0.0
C180 C 0.12243 0.15385 0.59794 0.0
O181 O 0.14138 0.14907 0.61577 0.0
C182 C 0.05917 0.10177 0.68089 0.0
O183 O 0.04558 0.12772 0.67386 0.0
O184 O 0.09006 0.16638 0.69202 0.0
O185 O 0.06605 0.19673 0.66502 0.0
H186 H 0.1722 0.17207 0.74901 0.0
H187 H 0.0596 0.12225 0.61138 0.0
O188 O 0.09634 0.16794 0.60123 0.0
H189 H 0.96281 0.17588 0.63665 0.0
H190 H 0.03155 0.24945 0.57052 0.0
H191 H 0.0829 0.24882 0.6483 0.0
H192 H 0.01462 0.2007 0.64269 0.0
H193 H 0.049 0.19968 0.58842 0.0
O194 O 0.08892 0.10095 0.68336 0.0
H195 H 0.14402 0.17927 0.71148 0.0
H196 H 0.13982 0.08052 0.70161 0.0
H197 H 0.06564 0.2991 0.63118 0.0
H198 H 0.00827 0.0966 0.60497 0.0
H199 H 0.03975 0.29961 0.592 0.0
H200 H 0.95943 0.12352 0.6176 0.0
O201 O 0.12194 0.20211 0.63967 0.0
H202 H 0.14236 0.04627 0.62133 0.0
H203 H 0.18724 0.12976 0.67129 0.0
H204 H 0.22269 0.09452 0.64943 0.0
H205 H 0.20025 0.05238 0.62426 0.0
H206 H 0.10778 0.08225 0.64328 0.0
H207 H 0.16798 0.07222 0.73906 0.0
H208 H 0.18443 0.11822 0.763 0.0
O209 O 0.14641 0.17252 0.66703 0.0
C210 C 0.07201 0.189 0.68634 0.0
C211 C 0.16531 0.15184 0.73868 0.0
C212 C 0.16288 0.0958 0.73311 0.0
N213 N 0.14059 0.13035 0.70427 0.0
C214 C 0.14943 0.15578 0.71738 0.0
C215 C 0.14694 0.10063 0.71194 0.0
C216 C 0.17211 0.12162 0.74653 0.0
C217 C 0.03842 0.13421 0.61673 0.0
N218 N 0.04006 0.16305 0.62721 0.0
C219 C 0.00944 0.11952 0.61315 0.0
C220 C 0.98205 0.13459 0.6203 0.0
C221 C 0.98392 0.16399 0.63098 0.0
C222 C 0.01331 0.17792 0.63436 0.0
C223 C 0.04277 0.24953 0.58762 0.0
C224 C 0.07153 0.24885 0.63131 0.0
C225 C 0.05277 0.22144 0.59781 0.0
N226 N 0.0668 0.22136 0.61943 0.0
C227 C 0.06186 0.27739 0.62167 0.0
C228 C 0.04736 0.27766 0.59968 0.0
C229 C 0.1448 0.19649 0.65354 0.0
C230 C 0.15241 0.06446 0.63232 0.0
C231 C 0.17732 0.11151 0.66035 0.0
C232 C 0.1975 0.09159 0.64805 0.0
C233 C 0.1849 0.06793 0.63394 0.0
N234 N 0.14549 0.10794 0.65867 0.0
C235 C 0.13295 0.08481 0.64488 0.0
Co236 Co 0.29099 0.4161 0.38518 0.0
Co237 Co 0.35411 0.39496 0.35036 0.0
O238 O 0.33546 0.41628 0.37732 0.0
C239 C 0.3217 0.38911 0.42758 0.0
O240 O 0.33809 0.3711 0.41345 0.0
C241 C 0.36821 0.46176 0.34364 0.0
O242 O 0.33823 0.46647 0.34756 0.0
O243 O 0.32011 0.40951 0.3287 0.0
O244 O 0.27939 0.42355 0.35156 0.0
H245 H 0.35426 0.32658 0.27831 0.0
H246 H 0.33511 0.45767 0.41092 0.0
O247 O 0.30187 0.40851 0.41913 0.0
H248 H 0.25722 0.52846 0.37498 0.0
H249 H 0.19754 0.44151 0.43594 0.0
H250 H 0.23366 0.38899 0.36352 0.0
H251 H 0.25279 0.47109 0.37001 0.0
H252 H 0.25356 0.44245 0.42485 0.0
O253 O 0.37904 0.4339 0.34336 0.0
H254 H 0.33064 0.35274 0.31274 0.0
H255 H 0.41884 0.39309 0.33047 0.0
H256 H 0.17742 0.38756 0.37387 0.0
H257 H 0.34034 0.51489 0.41648 0.0
H258 H 0.15904 0.41397 0.41032 0.0
H259 H 0.30128 0.5507 0.39835 0.0
O260 O 0.2881 0.37008 0.3799 0.0
H261 H 0.43563 0.40728 0.4137 0.0
H262 H 0.38445 0.3331 0.35912 0.0
H263 H 0.42516 0.31386 0.38639 0.0
H264 H 0.45105 0.35109 0.41394 0.0
H265 H 0.39459 0.42543 0.38631 0.0
H266 H 0.44342 0.36748 0.29617 0.0
H267 H 0.41106 0.33388 0.26985 0.0
O268 O 0.32938 0.35614 0.35735 0.0
C269 C 0.29219 0.41971 0.33144 0.0
C270 C 0.36863 0.34106 0.28969 0.0
C271 C 0.41866 0.36406 0.2997 0.0
N272 N 0.3734 0.37421 0.32368 0.0
C273 C 0.35541 0.35586 0.30925 0.0
C274 C 0.40461 0.37854 0.31906 0.0
C275 C 0.40049 0.3452 0.28494 0.0
C276 C 0.31786 0.4731 0.40316 0.0
N277 N 0.29363 0.46107 0.3902 0.0
C278 C 0.32101 0.50548 0.40629 0.0
C279 C 0.29911 0.52556 0.39609 0.0
C280 C 0.27439 0.5131 0.38296 0.0
C281 C 0.27203 0.4806 0.38016 0.0
C282 C 0.20525 0.42996 0.42 0.0
C283 C 0.22581 0.40068 0.37934 0.0
C284 C 0.23694 0.43037 0.41365 0.0
N285 N 0.24682 0.41595 0.39349 0.0
C286 C 0.19395 0.39973 0.38514 0.0
C287 C 0.18366 0.41452 0.40561 0.0
C288 C 0.30426 0.3498 0.36871 0.0
C289 C 0.42454 0.39083 0.40177 0.0
C290 C 0.39553 0.34939 0.37112 0.0
C291 C 0.41862 0.33839 0.38647 0.0
C292 C 0.43316 0.3593 0.40191 0.0
N293 N 0.38717 0.38034 0.37111 0.0
C294 C 0.40137 0.401 0.38615 0.0
Co295 Co 0.06247 0.29783 0.88672 0.0
Co296 Co 0.10981 0.35188 0.85825 0.0
O297 O 0.07864 0.34008 0.88169 0.0
C298 C 0.09037 0.31712 0.93196 0.0
O299 O 0.11444 0.32692 0.91953 0.0
C300 C 0.05414 0.3886 0.84719 0.0
O301 O 0.03878 0.36199 0.84916 0.0
O302 O 0.08782 0.32732 0.83338 0.0
O303 O 0.05851 0.29067 0.85189 0.0
H304 H 0.18691 0.33273 0.79289 0.0
H305 H 0.03318 0.35191 0.91115 0.0
O306 O 0.06693 0.3043 0.92169 0.0
H307 H 0.94905 0.30562 0.86253 0.0
H308 H 0.997 0.21707 0.92897 0.0
H309 H 0.07235 0.23557 0.8645 0.0
H310 H 0.00178 0.28178 0.86344 0.0
H311 H 0.01774 0.27025 0.92133 0.0
O312 O 0.0838 0.38932 0.85002 0.0
H313 H 0.14735 0.31769 0.82258 0.0
H314 H 0.1381 0.41287 0.84365 0.0
H315 H 0.05201 0.18208 0.87135 0.0
H316 H 0.98078 0.37647 0.91079 0.0
H317 H 0.01406 0.17256 0.90381 0.0
H318 H 0.93834 0.3534 0.88625 0.0
O319 O 0.10529 0.27971 0.88563 0.0
H320 H 0.116 0.42673 0.92647 0.0
H321 H 0.17634 0.35679 0.87426 0.0
H322 H 0.2036 0.38497 0.90626 0.0
H323 H 0.17334 0.42016 0.93269 0.0
H324 H 0.08965 0.39793 0.89436 0.0
H325 H 0.17731 0.42902 0.814 0.0
H326 H 0.20211 0.38876 0.78846 0.0
O327 O 0.1357 0.31439 0.8661 0.0
C328 C 0.06926 0.30376 0.8333 0.0
C329 C 0.17634 0.35048 0.80396 0.0
C330 C 0.17092 0.40453 0.81579 0.0
N331 N 0.14065 0.36435 0.83494 0.0
C332 C 0.154 0.34209 0.82085 0.0
C333 C 0.14868 0.39526 0.8325 0.0
C334 C 0.18484 0.38192 0.80147 0.0
C335 C 0.01471 0.34149 0.90068 0.0
N336 N 0.02047 0.31533 0.88745 0.0
C337 C 0.98513 0.35559 0.90046 0.0
C338 C 0.96134 0.34266 0.88665 0.0
C339 C 0.96734 0.31587 0.87332 0.0
C340 C -0.00276 0.30247 0.87391 0.0
C341 C 0.01348 0.22093 0.91475 0.0
C342 C 0.05568 0.23165 0.87854 0.0
C343 C 0.02535 0.25097 0.91038 0.0
N344 N 0.04605 0.25602 0.89238 0.0
C345 C 0.04432 0.20129 0.88239 0.0
C346 C 0.02305 0.19597 0.90062 0.0
C347 C 0.13135 0.28821 0.87654 0.0
C348 C 0.12945 0.41152 0.91504 0.0
C349 C 0.16303 0.37208 0.88567 0.0
C350 C 0.1786 0.38802 0.90374 0.0
C351 C 0.16161 0.40779 0.91854 0.0
N352 N 0.13146 0.37576 0.88242 0.0
C353 C 0.11468 0.39527 0.89676 0.0
Co354 Co 0.18629 0.07942 0.38672 0.0
Co355 Co 0.12837 0.12341 0.35992 0.0
O356 O 0.14318 0.09346 0.38312 0.0
C357 C 0.16832 0.10802 0.43184 0.0
O358 O 0.15748 0.13127 0.41912 0.0
C359 C 0.09376 0.06525 0.35127 0.0
O360 O 0.12144 0.05187 0.35195 0.0
O361 O 0.15236 0.10226 0.33444 0.0
O362 O 0.19131 0.0748 0.35169 0.0
H363 H 0.13901 0.19957 0.29285 0.0
H364 H 0.13512 0.04835 0.41362 0.0
O365 O 0.1817 0.08476 0.42182 0.0
H366 H 0.18203 0.96503 0.36481 0.0
H367 H 0.27227 0.01912 0.42705 0.0
H368 H 0.24659 0.09117 0.36197 0.0
H369 H 0.20336 0.01892 0.36382 0.0
H370 H 0.21788 0.03735 0.42111 0.0
O371 O 0.09153 0.09495 0.35359 0.0
H372 H 0.15811 0.16178 0.32244 0.0
H373 H 0.06512 0.14795 0.34747 0.0
H374 H 0.30121 0.07332 0.36709 0.0
H375 H 0.1131 0.99475 0.41518 0.0
H376 H 0.31435 0.03703 0.39985 0.0
H377 H 0.13655 0.95269 0.3906 0.0
O378 O 0.20252 0.12293 0.3842 0.0
H379 H 0.05828 0.12736 0.43104 0.0
H380 H 0.1216 0.1899 0.3754 0.0
H381 H 0.09462 0.21642 0.40825 0.0
H382 H 0.06279 0.18505 0.43641 0.0
H383 H 0.0858 0.10178 0.39803 0.0
H384 H 0.04493 0.18537 0.318 0.0
H385 H 0.08204 0.21158 0.29051 0.0
O386 O 0.16532 0.15159 0.36597 0.0
C387 C 0.17666 0.08481 0.33353 0.0
C388 C 0.12262 0.18839 0.30478 0.0
C389 C 0.06982 0.18038 0.31888 0.0
N390 N 0.11277 0.15292 0.33678 0.0
C391 C 0.13331 0.16705 0.32162 0.0
C392 C 0.08136 0.15917 0.33549 0.0
C393 C 0.09065 0.19509 0.30346 0.0
C394 C 0.14569 0.03008 0.40309 0.0
N395 N 0.17064 0.0367 0.38878 0.0
C396 C 0.13303 -0.00019 0.40397 0.0
C397 C 0.14615 0.97623 0.39013 0.0
C398 C 0.17166 0.98314 0.37565 0.0
C399 C 0.18364 0.0137 0.37516 0.0
C400 C 0.26684 0.03489 0.41269 0.0
C401 C 0.25209 0.07522 0.37614 0.0
C402 C 0.23611 0.04534 0.40928 0.0
N403 N 0.22907 0.06511 0.3911 0.0
C404 C 0.28308 0.06527 0.37901 0.0
C405 C 0.29043 0.04494 0.39741 0.0
C406 C 0.19251 0.14845 0.37522 0.0
C407 C 0.07199 0.14129 0.41884 0.0
C408 C 0.10771 0.17612 0.38753 0.0
C409 C 0.09246 0.19127 0.40609 0.0
C410 C 0.07457 0.17366 0.42187 0.0
N411 N 0.10518 0.14435 0.38474 0.0
C412 C 0.08751 0.12696 0.40005 0.0
Co413 Co 0.39486 0.17927 0.88012 0.0
Co414 Co 0.36868 0.11854 0.84464 0.0
O415 O 0.39174 0.13499 0.87152 0.0
C416 C 0.36347 0.14733 0.91935 0.0
O417 O 0.34617 0.13486 0.9027 0.0
C418 C 0.43379 0.0981 0.83786 0.0
O419 O 0.4425 0.12669 0.8435 0.0
O420 O 0.38693 0.15117 0.82388 0.0
O421 O 0.4044 0.19118 0.84645 0.0
H422 H 0.30085 0.1262 0.77255 0.0
H423 H 0.43175 0.13145 0.90608 0.0
O424 O 0.38476 0.16728 0.9139 0.0
H425 H 0.51006 0.20342 0.87152 0.0
H426 H 0.42646 0.26831 0.93333 0.0
H427 H 0.37381 0.23935 0.8591 0.0
H428 H 0.45338 0.21284 0.866 0.0
H429 H 0.42263 0.21281 0.92112 0.0
O430 O 0.40482 0.09073 0.83717 0.0
H431 H 0.32932 0.14659 0.80718 0.0
H432 H 0.36061 0.05469 0.82393 0.0
H433 H 0.37726 0.29513 0.87053 0.0
H434 H 0.48817 0.12117 0.91205 0.0
H435 H 0.40375 0.3099 0.9079 0.0
H436 H 0.52776 0.15722 0.89461 0.0
O437 O 0.34943 0.18633 0.8741 0.0
H438 H 0.37343 0.03509 0.90701 0.0
H439 H 0.30432 0.09277 0.85256 0.0
H440 H 0.28147 0.05307 0.8792 0.0
H441 H 0.31615 0.02387 0.90665 0.0
H442 H 0.39519 0.07527 0.88029 0.0
H443 H 0.33272 0.03333 0.78937 0.0
H444 H 0.30245 0.06919 0.76347 0.0
O445 O 0.33223 0.14609 0.85181 0.0
C446 C 0.40001 0.17791 0.82647 0.0
C447 C 0.31385 0.11033 0.78376 0.0
C448 C 0.33178 0.05821 0.79318 0.0
N449 N 0.34632 0.1018 0.81767 0.0
C450 C 0.32992 0.12172 0.80343 0.0
C451 C 0.34757 0.07044 0.81269 0.0
C452 C 0.31479 0.07834 0.77866 0.0
C453 C 0.44882 0.14746 0.89868 0.0
N454 N 0.43929 0.17283 0.88584 0.0
C455 C 0.48074 0.14144 0.90203 0.0
C456 C 0.50295 0.16165 0.89221 0.0
C457 C 0.49303 0.18756 0.87923 0.0
C458 C 0.46091 0.19278 0.87617 0.0
C459 C 0.41493 0.26217 0.91698 0.0
C460 C 0.38556 0.24564 0.87529 0.0
C461 C 0.41265 0.23081 0.91001 0.0
N462 N 0.39826 0.22294 0.88933 0.0
C463 C 0.38736 0.27724 0.88172 0.0
C464 C 0.40219 0.2855 0.9027 0.0
C465 C 0.32794 0.1717 0.86293 0.0
C466 C 0.35808 0.04761 0.8951 0.0
C467 C 0.31949 0.08031 0.86457 0.0
C468 C 0.30646 0.05776 0.87954 0.0
C469 C 0.32594 0.04136 0.89491 0.0
N470 N 0.35102 0.08636 0.8649 0.0
C471 C 0.37028 0.07032 0.87988 0.0
Co472 Co 0.70124 0.91747 0.88424 0.0
Co473 Co 0.63825 0.88819 0.85331 0.0
O474 O 0.65622 0.91165 0.87949 0.0
C475 C 0.67864 0.88991 0.92887 0.0
O476 O 0.66512 0.86815 0.916 0.0
C477 C 0.60625 0.94895 0.85057 0.0
O478 O 0.6337 0.96246 0.85361 0.0
O479 O 0.66306 0.91317 0.83045 0.0
O480 O 0.70842 0.92322 0.84939 0.0
H481 H 0.64084 0.83009 0.77635 0.0
H482 H 0.65615 0.956 0.91154 0.0
O483 O 0.69466 0.91162 0.91902 0.0
H484 H 0.72011 0.03178 0.86656 0.0
H485 H 0.79593 0.95892 0.92733 0.0
H486 H 0.75893 0.89531 0.86026 0.0
H487 H 0.73026 0.97494 0.86351 0.0
H488 H 0.73922 0.95167 0.9201 0.0
O489 O 0.60368 0.91921 0.85091 0.0
H490 H 0.6636 0.85896 0.80993 0.0
H491 H 0.57309 0.86924 0.84028 0.0
H492 H 0.81582 0.9022 0.86668 0.0
H493 H 0.64535 0.01265 0.91526 0.0
H494 H 0.83465 0.93419 0.90044 0.0
H495 H 0.67739 0.05095 0.89259 0.0
O496 O 0.70904 0.87172 0.88086 0.0
H497 H 0.56908 0.87378 0.92413 0.0
H498 H 0.62715 0.8197 0.86097 0.0
H499 H 0.59848 0.78845 0.8906 0.0
H500 H 0.56922 0.81552 0.92249 0.0
H501 H 0.59823 0.90411 0.89422 0.0
H502 H 0.54927 0.84074 0.80693 0.0
H503 H 0.58326 0.82081 0.77472 0.0
O504 O 0.67253 0.85672 0.85459 0.0
C505 C 0.69139 0.92292 0.83083 0.0
C506 C 0.6258 0.83849 0.79035 0.0
C507 C 0.57441 0.8445 0.80749 0.0
N508 N 0.61977 0.86533 0.82722 0.0
C509 C 0.63859 0.85472 0.80946 0.0
C510 C 0.58802 0.86063 0.82633 0.0
C511 C 0.59349 0.83333 0.78943 0.0
C512 C 0.6704 0.97254 0.90181 0.0
N513 N 0.69389 0.96219 0.88741 0.0
C514 C 0.66409 0.00458 0.90391 0.0
C515 C 0.68204 0.02606 0.89116 0.0
C516 C 0.70599 0.01532 0.87653 0.0
C517 C 0.71159 0.9831 0.87484 0.0
C518 C 0.78802 0.94499 0.91253 0.0
C519 C 0.76695 0.90948 0.87487 0.0
C520 C 0.75595 0.94076 0.90838 0.0
N521 N 0.74581 0.92335 0.88965 0.0
C522 C 0.79919 0.91319 0.87847 0.0
C523 C 0.80973 0.93112 0.89743 0.0
C524 C 0.69724 0.85183 0.86663 0.0
C525 C 0.58165 0.86173 0.91028 0.0
C526 C 0.61445 0.83164 0.87479 0.0
C527 C 0.59822 0.81383 0.89149 0.0
C528 C 0.58179 0.82903 0.90937 0.0
N529 N 0.61423 0.8637 0.87581 0.0
C530 C 0.59807 0.87877 0.89323 0.0
Co531 Co 0.59976 0.68704 0.38167 0.0
Co532 Co 0.60946 0.62327 0.34475 0.0
O533 O 0.59447 0.643 0.37349 0.0
C534 C 0.63246 0.65136 0.4182 0.0
O535 O 0.64452 0.63616 0.40031 0.0
C536 C 0.54128 0.61423 0.34487 0.0
O537 O 0.54 0.64427 0.34981 0.0
O538 O 0.59275 0.65799 0.32541 0.0
O539 O 0.5875 0.70052 0.34877 0.0
H540 H 0.66218 0.61942 0.26568 0.0
H541 H 0.55981 0.64617 0.41158 0.0
O542 O 0.61302 0.67364 0.41442 0.0
H543 H 0.48974 0.72979 0.38284 0.0
H544 H 0.59159 0.77987 0.43604 0.0
H545 H 0.62754 0.74288 0.35835 0.0
H546 H 0.54581 0.72942 0.37188 0.0
H547 H 0.58417 0.72457 0.42425 0.0
O548 O 0.56787 0.60096 0.34208 0.0
H549 H 0.64427 0.64458 0.3024 0.0
H550 H 0.60395 0.55859 0.32536 0.0
H551 H 0.63523 0.79841 0.36931 0.0
H552 H 0.50395 0.64574 0.42312 0.0
H553 H 0.6172 0.81722 0.40843 0.0
H554 H 0.46848 0.68772 0.40865 0.0
O555 O 0.64425 0.68654 0.37185 0.0
H556 H 0.60487 0.54167 0.40852 0.0
H557 H 0.671 0.59026 0.34719 0.0
H558 H 0.69306 0.54843 0.37221 0.0
H559 H 0.6599 0.52387 0.40315 0.0
H560 H 0.58385 0.58373 0.38324 0.0
H561 H 0.62118 0.53252 0.28879 0.0
H562 H 0.65064 0.56298 0.2587 0.0
O563 O 0.65089 0.646 0.34686 0.0
C564 C 0.58584 0.68675 0.32873 0.0
C565 C 0.6495 0.60586 0.27871 0.0
C566 C 0.62645 0.5571 0.29167 0.0
N567 N 0.62347 0.60295 0.31611 0.0
C568 C 0.63942 0.61995 0.29957 0.0
C569 C 0.61673 0.57198 0.31232 0.0
C570 C 0.64298 0.5742 0.27479 0.0
C571 C 0.54458 0.66469 0.40542 0.0
N572 N 0.55606 0.68789 0.3912 0.0
C573 C 0.51295 0.66425 0.41192 0.0
C574 C 0.49306 0.68779 0.40377 0.0
C575 C 0.50496 0.71139 0.38928 0.0
C576 C 0.53671 0.71104 0.38311 0.0
C577 C 0.59946 0.77198 0.41892 0.0
C578 C 0.61937 0.75098 0.3753 0.0
C579 C 0.59534 0.74071 0.41217 0.0
N580 N 0.60509 0.73065 0.39054 0.0
C581 C 0.62391 0.78241 0.38146 0.0
C582 C 0.61382 0.79293 0.40342 0.0
C583 C 0.66102 0.67002 0.35806 0.0
C584 C 0.61952 0.55213 0.39505 0.0
C585 C 0.65644 0.57966 0.36061 0.0
C586 C 0.66904 0.55597 0.3747 0.0
C587 C 0.65041 0.54218 0.39205 0.0
N588 N 0.62612 0.58929 0.36367 0.0
C589 C 0.60769 0.57584 0.38061 0.0
Co590 Co 0.818 0.59093 0.88306 0.0
Co591 Co 0.87323 0.62105 0.84479 0.0
O592 O 0.86118 0.59824 0.87322 0.0
C593 C 0.84705 0.62001 0.92536 0.0
O594 O 0.86 0.64106 0.91152 0.0
C595 C 0.90244 0.55972 0.83985 0.0
O596 O 0.87438 0.54827 0.84417 0.0
O597 O 0.8434 0.59654 0.82496 0.0
O598 O 0.80438 0.58378 0.84978 0.0
H599 H 0.85474 0.67936 0.76916 0.0
H600 H 0.86968 0.55524 0.90534 0.0
O601 O 0.83024 0.59806 0.91669 0.0
H602 H 0.80135 0.4754 0.86869 0.0
H603 H 0.73399 0.54694 0.93609 0.0
H604 H 0.75557 0.6107 0.86543 0.0
H605 H 0.78751 0.53153 0.86682 0.0
H606 H 0.78843 0.55592 0.92277 0.0
O607 O 0.90666 0.58928 0.83897 0.0
H608 H 0.83916 0.65141 0.80533 0.0
H609 H 0.93492 0.63808 0.82354 0.0
H610 H 0.70076 0.60208 0.878 0.0
H611 H 0.88439 0.49933 0.90768 0.0
H612 H 0.6897 0.57001 0.91357 0.0
H613 H 0.85018 0.45901 0.88915 0.0
O614 O 0.80818 0.63634 0.87975 0.0
H615 H 0.95737 0.63608 0.90583 0.0
H616 H 0.88608 0.68943 0.85044 0.0
H617 H 0.92127 0.72101 0.8756 0.0
H618 H 0.95725 0.69431 0.90353 0.0
H619 H 0.92162 0.60543 0.88049 0.0
H620 H 0.9516 0.66583 0.7875 0.0
H621 H 0.91135 0.68677 0.76006 0.0
O622 O 0.83961 0.65251 0.85013 0.0
C623 C 0.81608 0.58556 0.82914 0.0
C624 C 0.87251 0.6705 0.78104 0.0
C625 C 0.92686 0.66285 0.79131 0.0
N626 N 0.88609 0.64343 0.81665 0.0
C627 C 0.86382 0.65474 0.80159 0.0
C628 C 0.91729 0.64714 0.81167 0.0
C629 C 0.90427 0.6746 0.77592 0.0
C630 C 0.85447 0.53778 0.8975 0.0
N631 N 0.82771 0.54663 0.88605 0.0
C632 C 0.86299 0.50618 0.89879 0.0
C633 C 0.84382 0.48357 0.88835 0.0
C634 C 0.81643 0.49275 0.87685 0.0
C635 C 0.80873 0.52458 0.87583 0.0
C636 C 0.73851 0.56092 0.92054 0.0
C637 C 0.75092 0.59657 0.88086 0.0
C638 C 0.76928 0.56615 0.91295 0.0
N639 N 0.77514 0.58365 0.89327 0.0
C640 C 0.71985 0.59184 0.88792 0.0
C641 C 0.71367 0.57386 0.90789 0.0
C642 C 0.81709 0.65656 0.86458 0.0
C643 C 0.94187 0.64798 0.89367 0.0
C644 C 0.90166 0.67765 0.86257 0.0
C645 C 0.92156 0.69565 0.87674 0.0
C646 C 0.94176 0.68065 0.8924 0.0
N647 N 0.90193 0.64562 0.86391 0.0
C648 C 0.92168 0.63074 0.8792 0.0
Co649 Co 0.91586 0.80329 0.38424 0.0
Co650 Co 0.88058 0.85759 0.34809 0.0
O651 O 0.90353 0.84601 0.37653 0.0
C652 C 0.88393 0.82593 0.42775 0.0
O653 O 0.8615 0.83747 0.4145 0.0
C654 C 0.93734 0.89614 0.34712 0.0
O655 O 0.95231 0.86957 0.35021 0.0
O656 O 0.91029 0.83414 0.32767 0.0
O657 O 0.92519 0.79372 0.35039 0.0
H658 H 0.8292 0.83888 0.26966 0.0
H659 H 0.9449 0.85683 0.40957 0.0
O660 O 0.90705 0.81163 0.41839 0.0
H661 H 0.03279 0.80216 0.37086 0.0
H662 H 0.96855 0.72064 0.43362 0.0
H663 H 0.90395 0.7407 0.36319 0.0
H664 H 0.9787 0.78183 0.36743 0.0
H665 H 0.95344 0.77466 0.42293 0.0
O666 O 0.9075 0.89614 0.34545 0.0
H667 H 0.85732 0.82372 0.30583 0.0
H668 H 0.85597 0.91819 0.32971 0.0
H669 H 0.91874 0.68633 0.37311 0.0
H670 H -0.00134 0.8779 0.41356 0.0
H671 H 0.95126 0.67603 0.40855 0.0
H672 H 0.04302 0.85062 0.39399 0.0
O673 O 0.87194 0.78832 0.37971 0.0
H674 H 0.84995 0.93173 0.41292 0.0
H675 H 0.81081 0.85919 0.35188 0.0
H676 H 0.77303 0.88641 0.37766 0.0
H677 H 0.79257 0.92299 0.40843 0.0
H678 H 0.88691 0.90383 0.3869 0.0
H679 H 0.8279 0.93442 0.29373 0.0
H680 H 0.81427 0.8946 0.26344 0.0
O681 O 0.85405 0.81884 0.35019 0.0
C682 C 0.9237 0.8077 0.33054 0.0
C683 C 0.83489 0.85643 0.28278 0.0
C684 C 0.83421 0.91006 0.29627 0.0
N685 N 0.85802 0.87 0.31996 0.0
C686 C 0.85072 0.84797 0.30333 0.0
C687 C 0.85013 0.90074 0.31659 0.0
C688 C 0.82656 0.8877 0.27928 0.0
C689 C 0.96414 0.84458 0.40127 0.0
N690 N 0.95867 0.81806 0.38836 0.0
C691 C 0.99451 0.85671 0.4035 0.0
C692 C 0.01939 0.84142 0.39248 0.0
C693 C 0.01366 0.81425 0.37948 0.0
C694 C 0.98296 0.80287 0.37757 0.0
C695 C 0.95441 0.72483 0.41811 0.0
C696 C 0.91825 0.73641 0.37857 0.0
C697 C 0.94572 0.75535 0.412 0.0
N698 N 0.928 0.76082 0.39238 0.0
C699 C 0.92649 0.70558 0.38413 0.0
C700 C 0.94471 0.69981 0.40403 0.0
C701 C 0.85202 0.79496 0.3637 0.0
C702 C 0.84115 0.91593 0.39952 0.0
C703 C 0.81948 0.87504 0.36526 0.0
C704 C 0.79798 0.89043 0.37977 0.0
C705 C 0.80896 0.91098 0.39702 0.0
N706 N 0.85102 0.88004 0.36781 0.0
C707 C 0.86196 0.90018 0.38466 0.0
Co708 Co 0.70221 0.59053 0.63068 0.0
Co709 Co 0.6331 0.6032 0.66082 0.0
O710 O 0.65716 0.58551 0.63486 0.0
C711 C 0.67485 0.61468 0.58647 0.0
O712 O 0.65618 0.63178 0.59961 0.0
C713 C 0.6214 0.5356 0.6631 0.0
O714 O 0.65199 0.53267 0.66149 0.0
O715 O 0.66363 0.58704 0.68422 0.0
O716 O 0.71003 0.58474 0.66532 0.0
H717 H 0.61734 0.66172 0.73669 0.0
H718 H 0.66761 0.54405 0.60166 0.0
O719 O 0.69507 0.59668 0.59605 0.0
H720 H 0.74651 0.48288 0.64545 0.0
H721 H 0.80457 0.57514 0.58795 0.0
H722 H 0.75266 0.62471 0.65601 0.0
H723 H 0.74342 0.54035 0.65015 0.0
H724 H 0.7477 0.56809 0.59459 0.0
O725 O 0.60901 0.56281 0.66304 0.0
H726 H 0.64807 0.64025 0.70361 0.0
H727 H 0.56532 0.60138 0.67361 0.0
H728 H 0.80959 0.6322 0.65016 0.0
H729 H 0.67004 0.48664 0.59629 0.0
H730 H 0.83591 0.60731 0.61591 0.0
H731 H 0.70963 0.45565 0.61835 0.0
O732 O 0.69903 0.63636 0.63551 0.0
H733 H 0.56344 0.59596 0.58963 0.0
H734 H 0.60303 0.66535 0.65254 0.0
H735 H 0.56684 0.68658 0.62263 0.0
H736 H 0.54683 0.65178 0.59088 0.0
H737 H 0.59983 0.57577 0.61979 0.0
H738 H 0.53369 0.62217 0.70647 0.0
H739 H 0.5597 0.65271 0.73825 0.0
O740 O 0.65734 0.64355 0.6593 0.0
C741 C 0.69324 0.58265 0.6839 0.0
C742 C 0.60571 0.6486 0.72288 0.0
C743 C 0.55877 0.62636 0.70594 0.0
N744 N 0.60843 0.62 0.68655 0.0
C745 C 0.62297 0.63652 0.70406 0.0
C746 C 0.57679 0.61463 0.6874 0.0
C747 C 0.57338 0.6435 0.72376 0.0
C748 C 0.68513 0.53076 0.61112 0.0
N749 N 0.70545 0.54554 0.6261 0.0
C750 C 0.6863 0.49825 0.60809 0.0
C751 C 0.70849 0.48087 0.6205 0.0
C752 C 0.72917 0.49613 0.63572 0.0
C753 C 0.72728 0.52867 0.63834 0.0
C754 C 0.79339 0.58602 0.60297 0.0
C755 C 0.764 0.61359 0.64118 0.0
C756 C 0.76121 0.58214 0.6068 0.0
N757 N 0.74699 0.59568 0.62581 0.0
C758 C 0.79622 0.61801 0.63791 0.0
C759 C 0.81096 0.60407 0.61867 0.0
C760 C 0.68152 0.65356 0.64829 0.0
C761 C 0.57193 0.61133 0.60342 0.0
C762 C 0.59441 0.65007 0.63877 0.0
C763 C 0.57389 0.66221 0.62191 0.0
C764 C 0.56265 0.64267 0.60411 0.0
N765 N 0.6034 0.61932 0.63797 0.0
C766 C 0.59243 0.59999 0.6206 0.0
Co767 Co 0.92037 0.69698 0.12982 0.0
Co768 Co 0.87993 0.64888 0.16848 0.0
O769 O 0.9044 0.65637 0.14021 0.0
C770 C 0.87954 0.67363 0.09223 0.0
O771 O 0.85915 0.66929 0.10923 0.0
C772 C 0.93587 0.6095 0.1731 0.0
O773 O 0.95174 0.63485 0.16744 0.0
O774 O 0.9093 0.67464 0.18752 0.0
O775 O 0.93382 0.70817 0.16273 0.0
H776 H 0.82423 0.67951 0.24295 0.0
H777 H 0.94042 0.63853 0.10565 0.0
O778 O 0.90616 0.68607 0.09684 0.0
H779 H 0.03756 0.68571 0.13719 0.0
H780 H 0.97542 0.76819 0.0724 0.0
H781 H 0.91978 0.76217 0.1484 0.0
H782 H 0.98659 0.71229 0.1423 0.0
H783 H 0.9552 0.71751 0.08711 0.0
O784 O 0.90606 0.61067 0.17495 0.0
H785 H 0.85497 0.68893 0.20681 0.0
H786 H 0.85371 0.59144 0.19117 0.0
H787 H 0.93977 0.81328 0.13445 0.0
H788 H 0.99088 0.61121 0.10009 0.0
H789 H 0.96782 0.81651 0.09618 0.0
H790 H 0.03988 0.63472 0.11605 0.0
O791 O 0.87952 0.71781 0.13618 0.0
H792 H 0.85135 0.5661 0.10914 0.0
H793 H 0.81029 0.64631 0.16354 0.0
H794 H 0.77333 0.61546 0.13932 0.0
H795 H 0.79384 0.57492 0.11195 0.0
H796 H 0.88748 0.59787 0.1334 0.0
H797 H 0.82319 0.58091 0.22726 0.0
H798 H 0.80812 0.62517 0.25336 0.0
O799 O 0.85396 0.68714 0.16233 0.0
C800 C 0.92793 0.69743 0.1833 0.0
C801 C 0.83055 0.66005 0.23167 0.0
C802 C 0.83001 0.6047 0.22289 0.0
N803 N 0.85585 0.64079 0.19681 0.0
C804 C 0.84786 0.66525 0.21115 0.0
C805 C 0.84735 0.61079 0.20251 0.0
C806 C 0.82155 0.62954 0.23752 0.0
C807 C 0.9617 0.64914 0.11235 0.0
N808 N 0.9606 0.67708 0.12414 0.0
C809 C 0.99018 0.63348 0.10925 0.0
C810 C 0.01766 0.64666 0.11824 0.0
C811 C 0.01637 0.67526 0.13012 0.0
C812 C 0.98746 0.6902 0.13296 0.0
C813 C 0.96326 0.76708 0.08911 0.0
C814 C 0.93209 0.76336 0.13179 0.0
C815 C 0.9517 0.73847 0.09749 0.0
N816 N 0.93646 0.73689 0.11863 0.0
C817 C 0.94329 0.79238 0.12395 0.0
C818 C 0.959 0.79418 0.10247 0.0
C819 C 0.85642 0.71198 0.14983 0.0
C820 C 0.84213 0.58361 0.12107 0.0
C821 C 0.81938 0.62887 0.15155 0.0
C822 C 0.79834 0.61138 0.13795 0.0
C823 C 0.80986 0.58861 0.12262 0.0
N824 N 0.85098 0.62383 0.14993 0.0
C825 C 0.86246 0.60159 0.1349 0.0
Co826 Co 0.81599 0.90742 0.63205 0.0
Co827 Co 0.86498 0.87681 0.67468 0.0
O828 O 0.85729 0.89736 0.64462 0.0
C829 C 0.84595 0.86822 0.59605 0.0
O830 O 0.85297 0.84966 0.61371 0.0
C831 C 0.89931 0.93611 0.67723 0.0
O832 O 0.87287 0.94892 0.67033 0.0
O833 O 0.83613 0.90576 0.69119 0.0
O834 O 0.80064 0.92079 0.66412 0.0
H835 H 0.83513 0.82895 0.75242 0.0
H836 H 0.87295 0.93401 0.6095 0.0
O837 O 0.83055 0.89338 0.59987 0.0
H838 H 0.8118 0.02534 0.63645 0.0
H839 H 0.74242 0.95061 0.57088 0.0
H840 H 0.75026 0.89767 0.64785 0.0
H841 H 0.79154 0.97153 0.6421 0.0
H842 H 0.79421 0.93811 0.58794 0.0
O843 O 0.90081 0.90652 0.68031 0.0
H844 H 0.82511 0.85395 0.71402 0.0
H845 H 0.92302 0.85735 0.69995 0.0
H846 H 0.69802 0.90997 0.63156 0.0
H847 H 0.89406 0.9874 0.60341 0.0
H848 H 0.69388 0.93663 0.5928 0.0
H849 H 0.86349 0.0335 0.61707 0.0
O850 O 0.80048 0.8643 0.63856 0.0
H851 H 0.95216 0.84819 0.61912 0.0
H852 H 0.87189 0.80724 0.67375 0.0
H853 H 0.90593 0.77019 0.65231 0.0
H854 H 0.94642 0.79064 0.62477 0.0
H855 H 0.91744 0.88437 0.64075 0.0
H856 H 0.93415 0.83249 0.73828 0.0
H857 H 0.88999 0.81804 0.76477 0.0
O858 O 0.82883 0.8475 0.66965 0.0
C859 C 0.81066 0.91935 0.68535 0.0
C860 C 0.85457 0.835 0.74099 0.0
C861 C 0.91014 0.83703 0.73306 0.0
N862 N 0.87344 0.85676 0.70465 0.0
C863 C 0.84903 0.84906 0.71918 0.0
C864 C 0.90371 0.85112 0.7114 0.0
C865 C 0.88535 0.82892 0.74792 0.0
C866 C 0.85932 0.95398 0.61518 0.0
N867 N 0.83097 0.94969 0.62601 0.0
C868 C 0.87146 0.98415 0.6118 0.0
C869 C 0.85431 0.01 0.61951 0.0
C870 C 0.82532 0.00544 0.6304 0.0
C871 C 0.81397 0.97492 0.63356 0.0
C872 C 0.74392 0.93906 0.58781 0.0
C873 C 0.74864 0.90947 0.63105 0.0
C874 C 0.77316 0.93188 0.59753 0.0
N875 N 0.77522 0.91745 0.61895 0.0
C876 C 0.719 0.91628 0.62188 0.0
C877 C 0.71669 0.93121 0.60012 0.0
C878 C 0.80637 0.8447 0.65491 0.0
C879 C 0.93469 0.839 0.63114 0.0
C880 C 0.88945 0.8163 0.66178 0.0
C881 C 0.90869 0.79522 0.64972 0.0
C882 C 0.93142 0.80671 0.63429 0.0
N883 N 0.89281 0.84793 0.6586 0.0
C884 C 0.91507 0.85938 0.64353 0.0
Co885 Co 0.59894 0.81628 0.1321 0.0
Co886 Co 0.61098 0.8768 0.17167 0.0
O887 O 0.59474 0.85963 0.14232 0.0
C888 C 0.63228 0.85437 0.09681 0.0
O889 O 0.64425 0.86905 0.11501 0.0
C890 C 0.54258 0.88376 0.1739 0.0
O891 O 0.54161 0.85424 0.16741 0.0
O892 O 0.59686 0.83933 0.18982 0.0
O893 O 0.58577 0.80073 0.164 0.0
H894 H 0.66918 0.87433 0.24857 0.0
H895 H 0.56073 0.86073 0.104 0.0
O896 O 0.61307 0.83168 0.10008 0.0
H897 H 0.48772 0.77649 0.12789 0.0
H898 H 0.58952 0.72825 0.07344 0.0
H899 H 0.62386 0.75777 0.15334 0.0
H900 H 0.54363 0.77443 0.13921 0.0
H901 H 0.58332 0.78263 0.08767 0.0
O902 O 0.56903 0.89729 0.17707 0.0
H903 H 0.64989 0.85266 0.21098 0.0
H904 H 0.60469 0.93888 0.19523 0.0
H905 H 0.63046 0.70316 0.13988 0.0
H906 H 0.50507 0.86364 0.09216 0.0
H907 H 0.6132 0.68809 0.09965 0.0
H908 H 0.46813 0.82136 0.1042 0.0
O909 O 0.64329 0.81471 0.1426 0.0
H910 H 0.59967 0.9645 0.11313 0.0
H911 H 0.67118 0.9124 0.16903 0.0
H912 H 0.69027 0.95757 0.14586 0.0
H913 H 0.65439 0.98394 0.11768 0.0
H914 H 0.58165 0.91909 0.13648 0.0
H915 H 0.62342 0.96151 0.2327 0.0
H916 H 0.65597 0.92916 0.25963 0.0
O917 O 0.65264 0.85606 0.16645 0.0
C918 C 0.58774 0.8115 0.18499 0.0
C919 C 0.65513 0.88871 0.23694 0.0
C920 C 0.6294 0.93762 0.22805 0.0
N921 N 0.62643 0.89459 0.20086 0.0
C922 C 0.64422 0.8766 0.2156 0.0
C923 C 0.61884 0.92469 0.20688 0.0
C924 C 0.64767 0.91946 0.24315 0.0
C925 C 0.54486 0.84208 0.10908 0.0
N926 N 0.55542 0.81733 0.12213 0.0
C927 C 0.51334 0.84392 0.10242 0.0
C928 C 0.49262 0.82021 0.10921 0.0
C929 C 0.5036 0.79503 0.12251 0.0
C930 C 0.53526 0.794 0.12888 0.0
C931 C 0.59708 0.73452 0.09102 0.0
C932 C 0.61616 0.75137 0.13586 0.0
C933 C 0.59367 0.76527 0.09915 0.0
N934 N 0.60307 0.7733 0.12135 0.0
C935 C 0.62001 0.72041 0.12832 0.0
C936 C 0.61036 0.71199 0.10574 0.0
C937 C 0.66125 0.83121 0.15564 0.0
C938 C 0.6155 0.95327 0.12541 0.0
C939 C 0.65544 0.92376 0.15679 0.0
C940 C 0.66636 0.94934 0.14375 0.0
C941 C 0.64621 0.96414 0.12794 0.0
N942 N 0.62528 0.91325 0.15421 0.0
C943 C 0.60538 0.92764 0.13876 0.0
H944 H 0.38156 0.17573 0.96144 0.0
H945 H 0.3337 0.09408 0.93268 0.0
H946 H 0.32219 0.07547 0.97256 0.0
H947 H 0.41498 0.13576 0.01337 0.0
H948 H 0.40874 0.16872 0.03269 0.0
H949 H 0.41563 0.17514 1.00175 0.0
H950 H 0.36375 0.20647 0.99887 0.0
H951 H 0.35668 0.20011 0.02976 0.0
H952 H 0.32756 0.18846 1.00843 0.0
H953 H 0.31302 0.06643 0.01458 0.0
H954 H 0.30633 0.0675 0.05749 0.0
H955 H 0.35925 0.15479 0.06092 0.0
C956 C 0.36904 0.15377 0.96363 0.0
C957 C 0.35857 0.13639 0.94385 0.0
C958 C 0.3419 0.10793 0.94744 0.0
C959 C 0.3353 0.09702 0.97008 0.0
C960 C 0.34541 0.11478 0.98915 0.0
C961 C 0.36193 0.14251 0.98634 0.0
C962 C 0.36858 0.15752 0.01013 0.0
C963 C 0.4041 0.15939 0.01475 0.0
C964 C 0.35322 0.19007 0.01189 0.0
C965 C 0.35279 0.13406 0.02654 0.0
C966 C 0.33984 0.10954 0.01391 0.0
C967 C 0.32321 0.08538 0.02474 0.0
C968 C 0.31946 0.08628 0.04917 0.0
C969 C 0.33222 0.11122 0.06267 0.0
C970 C 0.34939 0.1353 0.05114 0.0
H971 H 0.35978 0.34861 0.45267 0.0
H972 H 0.29295 0.42469 0.46119 0.0
H973 H 0.29867 0.42112 0.50419 0.0
H974 H 0.33391 0.30323 0.50233 0.0
H975 H 0.37273 0.29077 0.51077 0.0
H976 H 0.36431 0.29957 0.48041 0.0
H977 H 0.40997 0.33985 0.4797 0.0
H978 H 0.41858 0.33113 0.51006 0.0
H979 H 0.41088 0.37099 0.50118 0.0
H980 H 0.3106 0.40946 0.54583 0.0
H981 H 0.3277 0.39008 0.58438 0.0
H982 H 0.38693 0.32078 0.55014 0.0
C983 C 0.34643 0.36458 0.46358 0.0
C984 C 0.32588 0.38695 0.45346 0.0
C985 C 0.30881 0.40735 0.46841 0.0
C986 C 0.31192 0.40554 0.49291 0.0
C987 C 0.33219 0.38322 0.50229 0.0
C988 C 0.3492 0.36307 0.48819 0.0
C989 C 0.36901 0.34098 0.50303 0.0
C990 C 0.3594 0.3066 0.49888 0.0
C991 C 0.4042 0.34605 0.4982 0.0
C992 C 0.36022 0.35177 0.52765 0.0
C993 C 0.33903 0.37627 0.52666 0.0
C994 C 0.32717 0.3903 0.54686 0.0
C995 C 0.33707 0.37901 0.56873 0.0
C996 C 0.35863 0.35377 0.5704 0.0
C997 C 0.37043 0.34006 0.54949 0.0
H998 H 0.13113 0.35248 0.9585 0.0
H999 H 0.05046 0.2903 0.96405 0.0
H1000 H 0.05215 0.29527 1.00735 0.0
H1001 H 0.17237 0.32428 1.00873 0.0
H1002 H 0.18654 0.36236 0.01769 0.0
H1003 H 0.17857 0.35464 0.9871 0.0
H1004 H 0.1408 0.40214 0.98571 0.0
H1005 H 0.14871 0.4101 0.0163 0.0
H1006 H 0.10885 0.4044 1.00646 0.0
H1007 H 0.06419 0.30466 0.04987 0.0
H1008 H 0.08417 0.31961 0.08897 0.0
H1009 H 0.15603 0.37741 0.05616 0.0
C1010 C 0.11376 0.33994 0.96881 0.0
C1011 C 0.09072 0.32085 0.95788 0.0
C1012 C 0.0683 0.30505 0.97201 0.0
C1013 C 0.06909 0.30771 0.99662 0.0
C1014 C 0.09224 0.32651 1.00682 0.0
C1015 C 0.11403 0.34256 0.99338 0.0
C1016 C 0.1365 0.36114 1.00878 0.0
C1017 C 0.1705 0.34992 1.00537 0.0
C1018 C 0.13352 0.39655 1.00403 0.0
C1019 C 0.12422 0.35266 0.03302 0.0
C1020 C 0.09871 0.3326 0.03142 0.0
C1021 C 0.08397 0.32055 0.05134 0.0
C1022 C 0.09559 0.32913 0.07349 0.0
C1023 C 0.12161 0.34976 0.07565 0.0
C1024 C 0.13593 0.36184 0.05508 0.0
H1025 H 0.1012 0.17258 0.55419 0.0
H1026 H 0.16423 0.10733 0.58884 0.0
H1027 H 0.18105 0.087 0.55029 0.0
H1028 H 0.07871 0.12138 0.50527 0.0
H1029 H 0.07868 0.15276 0.48398 0.0
H1030 H 0.06974 0.16089 0.51438 0.0
H1031 H 0.11409 0.20264 0.51549 0.0
H1032 H 0.12311 0.19459 0.48512 0.0
H1033 H 0.15341 0.19164 0.50716 0.0
H1034 H 0.19187 0.07406 0.50808 0.0
H1035 H 0.19772 0.07142 0.46482 0.0
H1036 H 0.12971 0.14653 0.45734 0.0
C1037 C 0.11827 0.15379 0.55361 0.0
C1038 C 0.13131 0.14146 0.57453 0.0
C1039 C 0.15394 0.1172 0.57306 0.0
C1040 C 0.16359 0.10538 0.55124 0.0
C1041 C 0.15061 0.1182 0.53094 0.0
C1042 C 0.12856 0.14197 0.53187 0.0
C1043 C 0.11962 0.15267 0.50731 0.0
C1044 C 0.08461 0.14655 0.50246 0.0
C1045 C 0.12808 0.18744 0.50356 0.0
C1046 C 0.14026 0.13139 0.49256 0.0
C1047 C 0.15767 0.11143 0.50653 0.0
C1048 C 0.17838 0.08959 0.49693 0.0
C1049 C 0.18155 0.08823 0.47235 0.0
C1050 C 0.16436 0.10887 0.45771 0.0
C1051 C 0.14338 0.13059 0.46805 0.0
H1052 H 0.61714 0.82718 0.05393 0.0
H1053 H 0.66816 0.90511 0.08534 0.0
H1054 H 0.68493 0.9225 0.04605 0.0
H1055 H 0.67356 0.8105 1.00864 0.0
H1056 H 0.64464 0.80134 0.98649 0.0
H1057 H 0.63576 0.79504 0.01713 0.0
H1058 H 0.58642 0.8301 0.01327 0.0
H1059 H 0.59514 0.83648 0.9826 0.0
H1060 H 0.59045 0.86952 1.0021 0.0
H1061 H 0.69715 0.93138 1.00374 0.0
H1062 H 0.70359 0.93133 0.96062 0.0
H1063 H 0.64487 0.84798 0.95591 0.0
C1064 C 0.63172 0.84796 0.05251 0.0
C1065 C 0.64137 0.86468 0.0728 0.0
C1066 C 0.66053 0.89175 0.07015 0.0
C1067 C 0.67018 0.90191 0.04786 0.0
C1068 C 0.66052 0.88485 0.02827 0.0
C1069 C 0.64168 0.8585 0.03028 0.0
C1070 C 0.63499 0.84439 1.00626 0.0
C1071 C 0.64802 0.81083 1.00453 0.0
C1072 C 0.59965 0.84518 1.00073 0.0
C1073 C 0.65316 0.86684 0.99055 0.0
C1074 C 0.66765 0.89001 1.00367 0.0
C1075 C 0.68589 0.91338 0.99324 0.0
C1076 C 0.68943 0.91314 0.96871 0.0
C1077 C 0.67482 0.88965 0.95482 0.0
C1078 C 0.65642 0.86623 0.966 0.0
H1079 H 0.63664 0.65267 0.55959 0.0
H1080 H 0.70729 0.57956 0.55449 0.0
H1081 H 0.70339 0.58125 0.51127 0.0
H1082 H 0.58878 0.62627 0.51093 0.0
H1083 H 0.57965 0.66531 0.50084 0.0
H1084 H 0.58762 0.65841 0.53155 0.0
H1085 H 0.63154 0.70059 0.53056 0.0
H1086 H 0.62373 0.7076 0.49984 0.0
H1087 H 0.66277 0.69727 0.50928 0.0
H1088 H 0.69214 0.59022 0.46915 0.0
H1089 H 0.67497 0.60654 0.42983 0.0
H1090 H 0.61177 0.67481 0.46113 0.0
C1091 C 0.65128 0.63701 0.54939 0.0
C1092 C 0.67231 0.61596 0.56049 0.0
C1093 C 0.69106 0.5959 0.54646 0.0
C1094 C 0.689 0.59665 0.52187 0.0
C1095 C 0.66813 0.61764 0.51152 0.0
C1096 C 0.64963 0.63753 0.52473 0.0
C1097 C 0.62936 0.65799 0.50899 0.0
C1098 C 0.59427 0.6516 0.51334 0.0
C1099 C 0.63734 0.69293 0.51237 0.0
C1100 C 0.63946 0.64647 0.48487 0.0
C1101 C 0.66178 0.62311 0.48689 0.0
C1102 C 0.67474 0.60853 0.46731 0.0
C1103 C 0.66476 0.61805 0.445 0.0
C1104 C 0.64204 0.64209 0.44229 0.0
C1105 C 0.62921 0.65645 0.46259 0.0
H1106 H 0.88603 0.65906 0.95124 0.0
H1107 H 0.81425 0.58694 0.95827 0.0
H1108 H 0.81617 0.59244 1.00127 0.0
H1109 H 0.93111 0.63559 1.00335 0.0
H1110 H 0.94078 0.67536 0.01148 0.0
H1111 H 0.93466 0.66541 0.98099 0.0
H1112 H 0.89217 0.70858 0.97784 0.0
H1113 H 0.89805 0.71857 1.00833 0.0
H1114 H 0.8594 0.70815 0.99794 0.0
H1115 H 0.8226 0.60767 0.04282 0.0
H1116 H 0.83602 0.62936 0.08158 0.0
H1117 H 0.9059 0.69007 0.04927 0.0
C1118 C 0.87089 0.64431 0.96185 0.0
C1119 C 0.84992 0.62261 0.95129 0.0
C1120 C 0.83055 0.60368 0.96583 0.0
C1121 C 0.83141 0.60664 0.99034 0.0
C1122 C 0.852 0.6284 1.00016 0.0
C1123 C 0.87168 0.6467 0.98651 0.0
C1124 C 0.89149 0.6683 1.00183 0.0
C1125 C 0.92659 0.6607 0.99926 0.0
C1126 C 0.88487 0.70296 0.99614 0.0
C1127 C 0.87942 0.65955 0.02613 0.0
C1128 C 0.85655 0.63656 0.02459 0.0
C1129 C 0.84072 0.62542 0.04431 0.0
C1130 C 0.84848 0.63801 0.06628 0.0
C1131 C 0.87213 0.66128 0.06851 0.0
C1132 C 0.88795 0.67207 0.04813 0.0
H1133 H 0.84443 0.86307 0.45461 0.0
H1134 H 0.92098 0.7962 0.45986 0.0
H1135 H 0.91986 0.80089 0.50299 0.0
H1136 H 0.8705 0.91323 0.50249 0.0
H1137 H 0.83139 0.92126 0.51298 0.0
H1138 H 0.83787 0.91286 0.48228 0.0
H1139 H 0.79723 0.86761 0.48429 0.0
H1140 H 0.79059 0.87589 0.51498 0.0
H1141 H 0.80203 0.83701 0.50591 0.0
H1142 H 0.90989 0.81109 0.54527 0.0
H1143 H 0.89245 0.82741 0.5847 0.0
H1144 H 0.82336 0.88931 0.55317 0.0
C1145 C 0.86091 0.84939 0.46485 0.0
C1146 C 0.88275 0.82918 0.45376 0.0
C1147 C 0.90405 0.81187 0.46784 0.0
C1148 C 0.90361 0.81434 0.49241 0.0
C1149 C 0.88189 0.83441 0.50276 0.0
C1150 C 0.86099 0.85178 0.48953 0.0
C1151 C 0.8402 0.87169 0.50531 0.0
C1152 C 0.84531 0.90685 0.50047 0.0
C1153 C 0.80545 0.86249 0.50245 0.0
C1154 C 0.85256 0.86253 0.52943 0.0
C1155 C 0.87656 0.84091 0.52743 0.0
C1156 C 0.89124 0.82813 0.54709 0.0
C1157 C 0.88109 0.83752 0.56943 0.0
C1158 C 0.8566 0.85969 0.57206 0.0
C1159 C 0.84233 0.87254 0.55172 0.0
H1160 H 0.191 0.29305 0.12621 0.0
H1161 H 0.19434 0.31379 0.20087 0.0
H1162 H 0.23301 0.27114 0.20659 0.0
H1163 H 0.19484 0.20828 0.13334 0.0
H1164 H 0.21786 0.20281 0.10705 0.0
H1165 H 0.19108 0.23534 0.10911 0.0
H1166 H 0.23689 0.27364 0.09977 0.0
H1167 H 0.26392 0.24125 0.09816 0.0
H1168 H 0.27151 0.27337 0.11804 0.0
H1169 H 0.27329 0.22833 0.20358 0.0
H1170 H 0.30526 0.18202 0.19373 0.0
H1171 H 0.27261 0.18678 0.12141 0.0
C1172 C 0.19974 0.28833 0.14376 0.0
C1173 C 0.18988 0.30645 0.16315 0.0
C1174 C 0.2015 0.29976 0.18591 0.0
C1175 C 0.22365 0.27588 0.18925 0.0
C1176 C 0.23337 0.25873 0.16967 0.0
C1177 C 0.22122 0.26411 0.14748 0.0
C1178 C 0.23428 0.2412 0.12965 0.0
C1179 C 0.20795 0.22069 0.11918 0.0
C1180 C 0.25274 0.2584 0.11026 0.0
C1181 C 0.25586 0.22223 0.14524 0.0
C1182 C 0.25543 0.23308 0.16817 0.0
C1183 C 0.27366 0.21946 0.18573 0.0
C1184 C 0.29194 0.19329 0.1799 0.0
C1185 C 0.29136 0.1807 0.15681 0.0
C1186 C 0.27354 0.19584 0.13921 0.0
H1187 H 0.32162 0.25671 0.65689 0.0
H1188 H 0.28582 0.35184 0.6545 0.0
H1189 H 0.23133 0.33107 0.65547 0.0
H1190 H 0.26522 0.22114 0.62065 0.0
H1191 H 0.26248 0.18538 0.63751 0.0
H1192 H 0.29837 0.20782 0.63765 0.0
H1193 H 0.29634 0.21118 0.68316 0.0
H1194 H 0.26052 0.18854 0.6832 0.0
H1195 H 0.26169 0.22642 0.69733 0.0
H1196 H 0.18147 0.2995 0.6525 0.0
H1197 H 0.13915 0.25986 0.65066 0.0
H1198 H 0.2078 0.18551 0.65816 0.0
C1199 C 0.30227 0.27314 0.65675 0.0
C1200 C 0.30762 0.30578 0.65544 0.0
C1201 C 0.28195 0.32673 0.65558 0.0
C1202 C 0.25107 0.31515 0.65604 0.0
C1203 C 0.24658 0.2827 0.6569 0.0
C1204 C 0.27149 0.26203 0.65774 0.0
C1205 C 0.26043 0.22827 0.65874 0.0
C1206 C 0.27233 0.20957 0.63736 0.0
C1207 C 0.27033 0.2127 0.682 0.0
C1208 C 0.22531 0.23306 0.65771 0.0
C1209 C 0.21782 0.26461 0.65648 0.0
C1210 C 0.187 0.27478 0.65386 0.0
C1211 C 0.16318 0.25212 0.65268 0.0
C1212 C 0.17032 0.21975 0.65445 0.0
C1213 C 0.20175 0.21015 0.65714 0.0
H1214 H 0.24365 0.32884 0.37041 0.0
H1215 H 0.34029 0.2969 0.36814 0.0
H1216 H 0.32198 0.24187 0.37021 0.0
H1217 H 0.21377 0.27082 0.4101 0.0
H1218 H 0.17684 0.26624 0.39496 0.0
H1219 H 0.1975 0.30317 0.39371 0.0
H1220 H 0.197 0.30096 0.34815 0.0
H1221 H 0.17625 0.26407 0.34922 0.0
H1222 H 0.2128 0.26704 0.33336 0.0
H1223 H 0.29343 0.19092 0.37439 0.0
H1224 H 0.25643 0.14651 0.37646 0.0
H1225 H 0.17797 0.21129 0.37319 0.0
C1226 C 0.26093 0.31023 0.37042 0.0
C1227 C 0.29338 0.31699 0.36928 0.0
C1228 C 0.31533 0.29212 0.36893 0.0
C1229 C 0.30516 0.26086 0.37021 0.0
C1230 C 0.27299 0.255 0.37143 0.0
C1231 C 0.25116 0.27892 0.37118 0.0
C1232 C 0.21793 0.26615 0.37178 0.0
C1233 C 0.20049 0.27726 0.39396 0.0
C1234 C 0.19994 0.27509 0.34928 0.0
C1235 C 0.22451 0.23128 0.37267 0.0
C1236 C 0.25643 0.22543 0.3727 0.0
C1237 C 0.26839 0.19515 0.37418 0.0
C1238 C 0.24714 0.1701 0.37544 0.0
C1239 C 0.2143 0.17544 0.37487 0.0
C1240 C 0.20292 0.20648 0.37346 0.0
H1241 H 0.3092 0.23292 0.86412 0.0
H1242 H 0.27435 0.13715 0.86635 0.0
H1243 H 0.22039 0.15675 0.87187 0.0
H1244 H 0.25697 0.26563 0.90702 0.0
H1245 H 0.25143 0.30203 0.8914 0.0
H1246 H 0.28758 0.28058 0.88814 0.0
H1247 H 0.2799 0.27927 0.84289 0.0
H1248 H 0.24387 0.30092 0.84599 0.0
H1249 H 0.24389 0.26374 0.83085 0.0
H1250 H 0.17092 0.18646 0.8787 0.0
H1251 H 0.12764 0.22457 0.88152 0.0
H1252 H 0.19418 0.30109 0.87235 0.0
C1253 C 0.29014 0.21616 0.86575 0.0
C1254 C 0.29575 0.18358 0.86483 0.0
C1255 C 0.27037 0.16222 0.86678 0.0
C1256 C 0.23974 0.17311 0.87011 0.0
C1257 C 0.23497 0.20538 0.87112 0.0
C1258 C 0.25934 0.22664 0.86861 0.0
C1259 C 0.24757 0.2601 0.86928 0.0
C1260 C 0.26173 0.27814 0.89021 0.0
C1261 C 0.25419 0.27699 0.84586 0.0
C1262 C 0.21281 0.25427 0.8727 0.0
C1263 C 0.20614 0.22257 0.87405 0.0
C1264 C 0.17576 0.21137 0.87753 0.0
C1265 C 0.15138 0.2332 0.87922 0.0
C1266 C 0.15756 0.26577 0.87705 0.0
C1267 C 0.18873 0.27635 0.87396 0.0
H1268 H 0.73094 0.81676 0.89842 0.0
H1269 H 0.70056 0.82015 0.82551 0.0
H1270 H 0.72803 0.77061 0.81758 0.0
H1271 H 0.80748 0.78368 0.88801 0.0
H1272 H 0.80659 0.7584 0.91344 0.0
H1273 H 0.78504 0.79473 0.91359 0.0
H1274 H 0.73389 0.76441 0.92355 0.0
H1275 H 0.75528 0.72798 0.92342 0.0
H1276 H 0.72137 0.73263 0.90477 0.0
H1277 H 0.75991 0.72288 0.81672 0.0
H1278 H 0.79211 0.67582 0.82378 0.0
H1279 H 0.79943 0.69997 0.89775 0.0
C1280 C 0.73024 0.807 0.88082 0.0
C1281 C 0.71373 0.82215 0.86254 0.0
C1282 C 0.71291 0.80871 0.83977 0.0
C1283 C 0.72853 0.78069 0.83506 0.0
C1284 C 0.74448 0.76622 0.8534 0.0
C1285 C 0.74525 0.77856 0.87589 0.0
C1286 C 0.76347 0.75746 0.89244 0.0
C1287 C 0.79236 0.77459 0.90245 0.0
C1288 C 0.74222 0.74487 0.91221 0.0
C1289 C 0.77294 0.73156 0.87561 0.0
C1290 C 0.76194 0.73743 0.85315 0.0
C1291 C 0.76851 0.71781 0.83423 0.0
C1292 C 0.78687 0.69133 0.83837 0.0
C1293 C 0.798 0.6846 0.86124 0.0
C1294 C 0.79081 0.70471 0.88018 0.0
H1295 H 0.6989 0.6951 0.39154 0.0
H1296 H 0.69631 0.66915 0.31777 0.0
H1297 H 0.74754 0.6957 0.31168 0.0
H1298 H 0.72842 0.76953 0.38468 0.0
H1299 H 0.7535 0.76925 0.41024 0.0
H1300 H 0.71893 0.7449 0.4095 0.0
H1301 H 0.75256 0.69551 0.41775 0.0
H1302 H 0.78728 0.71976 0.41894 0.0
H1303 H 0.78561 0.68685 0.39903 0.0
H1304 H 0.79392 0.73245 0.31259 0.0
H1305 H 0.83636 0.77047 0.32137 0.0
H1306 H 0.81068 0.76924 0.39517 0.0
C1307 C 0.70956 0.69433 0.37423 0.0
C1308 C 0.69384 0.68017 0.35508 0.0
C1309 C 0.70825 0.67963 0.33267 0.0
C1310 C 0.7372 0.69477 0.32906 0.0
C1311 C 0.75154 0.70958 0.34819 0.0
C1312 C 0.73857 0.70878 0.37046 0.0
C1313 C 0.75791 0.72756 0.38787 0.0
C1314 C 0.73853 0.75439 0.3987 0.0
C1315 C 0.77166 0.70613 0.40703 0.0
C1316 C 0.7833 0.74003 0.37176 0.0
C1317 C 0.77911 0.72952 0.34891 0.0
C1318 C 0.79787 0.74021 0.33048 0.0
C1319 C 0.82167 0.76195 0.33558 0.0
C1320 C 0.82671 0.77238 0.35893 0.0
C1321 C 0.80752 0.76108 0.37726 0.0
H1322 H 0.78774 0.80267 0.62156 0.0
H1323 H 0.77645 0.82779 0.69498 0.0
H1324 H 0.73773 0.78482 0.7 0.0
H1325 H 0.70749 0.77773 0.60972 0.0
H1326 H 0.71921 0.7449 0.59177 0.0
H1327 H 0.74369 0.77942 0.5933 0.0
H1328 H 0.79096 0.74544 0.60656 0.0
H1329 H 0.76674 0.71085 0.60473 0.0
H1330 H 0.78679 0.7201 0.6318 0.0
H1331 H 0.70055 0.73927 0.69693 0.0
H1332 H 0.67433 0.68884 0.68801 0.0
H1333 H 0.71329 0.69099 0.61746 0.0
C1334 C 0.77686 0.79911 0.6386 0.0
C1335 C 0.78466 0.81834 0.65789 0.0
C1336 C 0.77064 0.81298 0.68009 0.0
C1337 C 0.74848 0.78894 0.68301 0.0
C1338 C 0.7411 0.77033 0.66361 0.0
C1339 C 0.75534 0.7747 0.64196 0.0
C1340 C 0.74564 0.74953 0.62463 0.0
C1341 C 0.72795 0.76376 0.60361 0.0
C1342 C 0.77423 0.73035 0.61646 0.0
C1343 C 0.72394 0.73019 0.63998 0.0
C1344 C 0.72102 0.743 0.66221 0.0
C1345 C 0.70261 0.72899 0.67958 0.0
C1346 C 0.68765 0.70049 0.67432 0.0
C1347 C 0.69186 0.68613 0.65209 0.0
C1348 C 0.70966 0.70156 0.63459 0.0
H1349 H 0.7941 0.70153 0.15835 0.0
H1350 H 0.86183 0.77552 0.14457 0.0
H1351 H 0.81974 0.81513 0.1479 0.0
H1352 H 0.73317 0.73442 0.12372 0.0
H1353 H 0.70208 0.7217 0.14306 0.0
H1354 H 0.73805 0.69972 0.14151 0.0
H1355 H 0.74506 0.70546 0.18665 0.0
H1356 H 0.70915 0.72764 0.1883 0.0
H1357 H 0.74515 0.74404 0.19968 0.0
H1358 H 0.76972 0.84671 0.1528 0.0
H1359 H 0.71498 0.86671 0.15396 0.0
H1360 H 0.68055 0.77145 0.16184 0.0
C1361 C 0.80012 0.72607 0.15626 0.0
C1362 C 0.8312 0.73552 0.15139 0.0
C1363 C 0.8381 0.76782 0.14829 0.0
C1364 C 0.81441 0.79048 0.15031 0.0
C1365 C 0.78395 0.78038 0.15516 0.0
C1366 C 0.77671 0.74888 0.15775 0.0
C1367 C 0.74186 0.7439 0.16114 0.0
C1368 C 0.72798 0.72375 0.14117 0.0
C1369 C 0.73491 0.72941 0.18539 0.0
C1370 C 0.73057 0.77745 0.15979 0.0
C1371 C 0.75518 0.79829 0.15683 0.0
C1372 C 0.75026 0.83061 0.1551 0.0
C1373 C 0.71925 0.84178 0.15589 0.0
C1374 C 0.69385 0.82052 0.15786 0.0
C1375 C 0.69968 0.78811 0.16017 0.0
H1376 H 0.2379 0.0788 0.31921 0.0
H1377 H 0.14172 0.07327 0.29441 0.0
H1378 H 0.16076 0.06489 0.25385 0.0
H1379 H 0.26534 0.12379 0.27213 0.0
H1380 H 0.3035 0.10574 0.27042 0.0
H1381 H 0.28271 0.10647 0.29798 0.0
H1382 H 0.28689 0.04594 0.30099 0.0
H1383 H 0.30786 0.04503 0.27343 0.0
H1384 H 0.27272 0.02186 0.27713 0.0
H1385 H 0.18967 0.06201 0.21582 0.0
H1386 H 0.22634 0.06674 0.18252 0.0
H1387 H 0.30417 0.07593 0.23155 0.0
C1388 C 0.22093 0.07491 0.30533 0.0
C1389 C 0.18835 0.07624 0.30993 0.0
C1390 C 0.16678 0.07213 0.29122 0.0
C1391 C 0.17737 0.06725 0.26816 0.0
C1392 C 0.20962 0.06677 0.26407 0.0
C1393 C 0.23114 0.07056 0.28209 0.0
C1394 C 0.26438 0.07227 0.27255 0.0
C1395 C 0.27988 0.10395 0.27863 0.0
C1396 C 0.28412 0.04462 0.28156 0.0
C1397 C 0.25809 0.06945 0.24636 0.0
C1398 C 0.22638 0.06587 0.24191 0.0
C1399 C 0.2146 0.06444 0.21907 0.0
C1400 C 0.23568 0.0672 0.20024 0.0
C1401 C 0.26826 0.0716 0.20431 0.0
C1402 C 0.27952 0.07221 0.22776 0.0
H1403 H 0.40486 0.31132 0.72889 0.0
H1404 H 0.43741 0.23983 0.68016 0.0
H1405 H 0.44341 0.20288 0.71332 0.0
H1406 H 0.45468 0.28852 0.77967 0.0
H1407 H 0.42383 0.29652 0.80054 0.0
H1408 H 0.4262 0.31868 0.77356 0.0
H1409 H 0.36895 0.30304 0.76351 0.0
H1410 H 0.36638 0.2808 0.79036 0.0
H1411 H 0.35828 0.26207 0.76255 0.0
H1412 H 0.43981 0.17206 0.75049 0.0
H1413 H 0.42702 0.1492 0.78919 0.0
H1414 H 0.39718 0.24052 0.81429 0.0
C1415 C 0.41401 0.28816 0.72517 0.0
C1416 C 0.42088 0.27862 0.70182 0.0
C1417 C 0.43217 0.24783 0.69783 0.0
C1418 C 0.43572 0.22668 0.71658 0.0
C1419 C 0.42803 0.23668 0.73924 0.0
C1420 C 0.41756 0.26674 0.74364 0.0
C1421 C 0.40831 0.27078 0.76927 0.0
C1422 C 0.42953 0.29506 0.78148 0.0
C1423 C 0.37342 0.27968 0.77154 0.0
C1424 C 0.41441 0.23798 0.77851 0.0
C1425 C 0.42606 0.21881 0.76089 0.0
C1426 C 0.43123 0.18694 0.76451 0.0
C1427 C 0.4238 0.17417 0.78652 0.0
C1428 C 0.41141 0.19319 0.80474 0.0
C1429 C 0.40731 0.22566 0.80083 0.0
H1430 H 0.23042 0.3965 0.19992 0.0
H1431 H 0.15022 0.45281 0.22003 0.0
H1432 H 0.17626 0.46634 0.25753 0.0
H1433 H 0.24067 0.36257 0.25407 0.0
H1434 H 0.28299 0.36145 0.25373 0.0
H1435 H 0.26151 0.36122 0.22647 0.0
H1436 H 0.29205 0.41038 0.21232 0.0
H1437 H 0.314 0.41052 0.23946 0.0
H1438 H 0.29281 0.44509 0.23048 0.0
H1439 H 0.20644 0.46708 0.29475 0.0
H1440 H 0.23997 0.45679 0.32914 0.0
H1441 H 0.30117 0.39937 0.28585 0.0
C1442 C 0.21913 0.41285 0.2118 0.0
C1443 C 0.18873 0.42435 0.20696 0.0
C1444 C 0.17379 0.44436 0.22333 0.0
C1445 C 0.18838 0.45209 0.24466 0.0
C1446 C 0.21785 0.43946 0.2494 0.0
C1447 C 0.23327 0.42046 0.2334 0.0
C1448 C 0.26308 0.40707 0.24406 0.0
C1449 C 0.26197 0.37095 0.24461 0.0
C1450 C 0.29221 0.41899 0.23079 0.0
C1451 C 0.26147 0.42079 0.26869 0.0
C1452 C 0.23532 0.43962 0.27126 0.0
C1453 C 0.22734 0.45291 0.29284 0.0
C1454 C 0.24649 0.44678 0.31234 0.0
C1455 C 0.27342 0.42751 0.31023 0.0
C1456 C 0.28112 0.41469 0.28797 0.0
H1457 H 0.07153 0.17496 0.73335 0.0
H1458 H 0.04663 0.24827 0.68371 0.0
H1459 H 0.0372 0.28457 0.71684 0.0
H1460 H 0.0153 0.19836 0.78088 0.0
H1461 H 0.04318 0.18849 0.80356 0.0
H1462 H 0.04306 0.16711 0.77617 0.0
H1463 H 0.10197 0.18039 0.77036 0.0
H1464 H 0.10226 0.20207 0.79751 0.0
H1465 H 0.11441 0.22087 0.77057 0.0
H1466 H 0.04031 0.31524 0.75469 0.0
H1467 H 0.05028 0.33629 0.79464 0.0
H1468 H 0.07008 0.2424 0.81975 0.0
C1469 C 0.06318 0.19836 0.72938 0.0
C1470 C 0.05991 0.20874 0.70584 0.0
C1471 C 0.04918 0.23966 0.70153 0.0
C1472 C 0.04381 0.26049 0.72027 0.0
C1473 C 0.04866 0.24986 0.74321 0.0
C1474 C 0.05747 0.21929 0.74784 0.0
C1475 C 0.06343 0.21425 0.77386 0.0
C1476 C 0.03982 0.19065 0.78423 0.0
C1477 C 0.09753 0.20379 0.77832 0.0
C1478 C 0.05764 0.24704 0.78311 0.0
C1479 C 0.04914 0.26728 0.76516 0.0
C1480 C 0.04602 0.29946 0.76898 0.0
C1481 C 0.05184 0.31123 0.79164 0.0
C1482 C 0.06022 0.2908 0.81023 0.0
C1483 C 0.06266 0.25829 0.80596 0.0
H1484 H 0.75335 0.91982 0.81797 0.0
H1485 H 0.66117 0.94553 0.79195 0.0
H1486 H 0.68362 0.95485 0.75248 0.0
H1487 H 0.8004 0.97398 0.7803 0.0
H1488 H 0.83073 0.94513 0.77595 0.0
H1489 H 0.80849 0.94548 0.80295 0.0
H1490 H 0.793 0.88721 0.79637 0.0
H1491 H 0.81527 0.88678 0.76949 0.0
H1492 H 0.77433 0.87594 0.76915 0.0
H1493 H 0.71481 0.95551 0.71487 0.0
H1494 H 0.75156 0.94521 0.68215 0.0
H1495 H 0.82312 0.91824 0.73271 0.0
C1496 C 0.73809 0.92837 0.80415 0.0
C1497 C 0.70559 0.93234 0.8081 0.0
C1498 C 0.68619 0.94253 0.78935 0.0
C1499 C 0.69875 0.948 0.76688 0.0
C1500 C 0.73076 0.94311 0.7634 0.0
C1501 C 0.75018 0.93351 0.78153 0.0
C1502 C 0.78296 0.92658 0.77263 0.0
C1503 C 0.80707 0.94915 0.78361 0.0
C1504 C 0.79188 0.89209 0.77717 0.0
C1505 C 0.77872 0.93301 0.74659 0.0
C1506 C 0.74861 0.94297 0.74164 0.0
C1507 C 0.73861 0.94817 0.71858 0.0
C1508 C 0.75969 0.94228 0.70007 0.0
C1509 C 0.79035 0.931 0.70473 0.0
C1510 C 0.80003 0.92718 0.72841 0.0
H1511 H 0.59899 0.74814 0.3169 0.0
H1512 H 0.55134 0.66415 0.29242 0.0
H1513 H 0.54212 0.6891 0.25393 0.0
H1514 H 0.55018 0.80603 0.28301 0.0
H1515 H 0.58376 0.83052 0.27678 0.0
H1516 H 0.58227 0.80807 0.30366 0.0
H1517 H 0.63554 0.78247 0.29305 0.0
H1518 H 0.637 0.80455 0.26607 0.0
H1519 H 0.63967 0.76233 0.26531 0.0
H1520 H 0.54438 0.71971 0.21665 0.0
H1521 H 0.55571 0.75547 0.18349 0.0
H1522 H 0.60156 0.82005 0.23176 0.0
C1523 C 0.58563 0.73554 0.3037 0.0
C1524 C 0.57562 0.70435 0.30767 0.0
C1525 C 0.5591 0.68813 0.28973 0.0
C1526 C 0.55371 0.70211 0.26782 0.0
C1527 C 0.5649 0.7324 0.26406 0.0
C1528 C 0.58024 0.74913 0.28154 0.0
C1529 C 0.59227 0.78025 0.27214 0.0
C1530 C 0.57615 0.80785 0.28464 0.0
C1531 C 0.62825 0.78251 0.27427 0.0
C1532 C 0.58204 0.77792 0.24662 0.0
C1533 C 0.56611 0.75023 0.24237 0.0
C1534 C 0.55631 0.74178 0.21981 0.0
C1535 C 0.56297 0.76217 0.20106 0.0
C1536 C 0.57925 0.79073 0.20497 0.0
C1537 C 0.58858 0.79868 0.22817 0.0
H1538 H 0.82648 0.59601 0.78189 0.0
H1539 H 0.7592 0.55544 0.8308 0.0
H1540 H 0.72257 0.54599 0.79806 0.0
H1541 H 0.77196 0.63704 0.74838 0.0
H1542 H 0.79097 0.63084 0.72042 0.0
H1543 H 0.8138 0.63089 0.74708 0.0
H1544 H 0.83512 0.57559 0.73705 0.0
H1545 H 0.81245 0.57542 0.71025 0.0
H1546 H 0.80794 0.544 0.73125 0.0
H1547 H 0.69084 0.54643 0.76131 0.0
H1548 H 0.6667 0.5551 0.72241 0.0
H1549 H 0.75441 0.59449 0.69678 0.0
C1550 C 0.80438 0.58442 0.78567 0.0
C1551 C 0.79589 0.57633 0.809 0.0
C1552 C 0.76642 0.56176 0.81315 0.0
C1553 C 0.7454 0.55624 0.79463 0.0
C1554 C 0.75416 0.56523 0.772 0.0
C1555 C 0.78303 0.57877 0.76738 0.0
C1556 C 0.7857 0.58823 0.74171 0.0
C1557 C 0.79091 0.62386 0.73927 0.0
C1558 C 0.81186 0.5697 0.72934 0.0
C1559 C 0.75354 0.57854 0.73279 0.0
C1560 C 0.73582 0.56518 0.75057 0.0
C1561 C 0.70463 0.55636 0.74714 0.0
C1562 C 0.6911 0.56151 0.72501 0.0
C1563 C 0.70874 0.57523 0.70652 0.0
C1564 C 0.74052 0.58341 0.71043 0.0
H1565 H 0.91442 0.82256 0.28396 0.0
H1566 H 0.9597 0.75445 0.3295 0.0
H1567 H 0.97389 0.72288 0.29482 0.0
H1568 H 0.87904 0.76879 0.24787 0.0
H1569 H 0.88331 0.79079 0.22095 0.0
H1570 H 0.88184 0.81102 0.24868 0.0
H1571 H 0.93515 0.8378 0.23952 0.0
H1572 H 0.93684 0.81757 0.21167 0.0
H1573 H 0.96877 0.81402 0.23232 0.0
H1574 H 0.975 0.69429 0.25673 0.0
H1575 H 0.96324 0.67126 0.21772 0.0
H1576 H 0.919 0.75801 0.19625 0.0
C1577 C 0.92818 0.80152 0.28662 0.0
C1578 C 0.93611 0.79118 0.30953 0.0
C1579 C 0.95348 0.76306 0.31219 0.0
C1580 C 0.96177 0.74497 0.29255 0.0
C1581 C 0.95277 0.75535 0.27031 0.0
C1582 C 0.93655 0.7831 0.2672 0.0
C1583 C 0.92658 0.7872 0.24176 0.0
C1584 C 0.89057 0.78957 0.23971 0.0
C1585 C 0.94282 0.81585 0.23066 0.0
C1586 C 0.93871 0.75687 0.23124 0.0
C1587 C 0.95408 0.73899 0.24797 0.0
C1588 C 0.96394 0.70844 0.24327 0.0
C1589 C 0.95727 0.69556 0.22112 0.0
C1590 C 0.94127 0.71334 0.20392 0.0
C1591 C 0.93257 0.74458 0.20883 0.0
H1592 H 0.43309 0.03564 0.17706 0.0
H1593 H 0.35362 0.97222 0.16955 0.0
H1594 H 0.3894 0.92698 0.17166 0.0
H1595 H 0.4857 0.99208 0.14126 0.0
H1596 H 0.51984 0.00014 0.15904 0.0
H1597 H 0.48788 0.02771 0.15833 0.0
H1598 H 0.48332 0.02473 0.20376 0.0
H1599 H 0.51529 -0.00288 0.20461 0.0
H1600 H 0.47806 0.9871 0.21776 0.0
H1601 H 0.43337 0.88887 0.17277 0.0
H1602 H 0.48323 0.85983 0.17234 0.0
H1603 H 0.53473 0.94756 0.17919 0.0
C1604 C 0.42318 0.01223 0.17609 0.0
C1605 C 0.39052 0.00747 0.17325 0.0
C1606 C 0.37852 0.97648 0.17181 0.0
C1607 C 0.39865 0.9506 0.17303 0.0
C1608 C 0.43069 0.9561 0.17571 0.0
C1609 C 0.44296 0.98609 0.17723 0.0
C1610 C 0.47846 0.98541 0.17917 0.0
C1611 C 0.49387 0.00233 0.1582 0.0
C1612 C 0.48942 -0.00058 0.20273 0.0
C1613 C 0.4842 0.95034 0.17824 0.0
C1614 C 0.45626 0.93394 0.17636 0.0
C1615 C 0.45541 0.9014 0.17441 0.0
C1616 C 0.4839 0.88513 0.17417 0.0
C1617 C 0.51289 0.90141 0.17585 0.0
C1618 C 0.51294 0.93445 0.17814 0.0
H1619 H 0.55732 0.53268 0.66836 0.0
H1620 H 0.64053 0.47448 0.66197 0.0
H1621 H 0.60758 0.427 0.665 0.0
H1622 H 0.5163 0.48347 0.71036 0.0
H1623 H 0.47826 0.49028 0.69744 0.0
H1624 H 0.50842 0.51991 0.69537 0.0
H1625 H 0.50284 0.52018 0.64994 0.0
H1626 H 0.47262 0.49064 0.65188 0.0
H1627 H 0.50682 0.4839 0.63389 0.0
H1628 H 0.56588 0.386 0.66746 0.0
H1629 H 0.51775 0.35381 0.66875 0.0
H1630 H 0.46149 0.43846 0.67398 0.0
C1631 C 0.56864 0.50996 0.66768 0.0
C1632 C 0.60152 0.50728 0.665 0.0
C1633 C 0.6154 0.47712 0.6641 0.0
C1634 C 0.5969 0.45 0.66583 0.0
C1635 C 0.5646 0.45345 0.66851 0.0
C1636 C 0.55054 0.48262 0.66942 0.0
C1637 C 0.51522 0.47972 0.67186 0.0
C1638 C 0.50389 0.4942 0.69515 0.0
C1639 C 0.49839 0.49448 0.65063 0.0
C1640 C 0.51165 0.44435 0.672 0.0
C1641 C 0.54045 0.42969 0.6701 0.0
C1642 C 0.54319 0.39717 0.66911 0.0
C1643 C 0.5157 0.37911 0.66986 0.0
C1644 C 0.48589 0.39362 0.67162 0.0
C1645 C 0.48396 0.42668 0.67292 0.0
H1646 H 0.08304 0.49552 0.16621 0.0
H1647 H 0.02273 0.41992 0.19073 0.0
H1648 H 0.97817 0.45698 0.19299 0.0
H1649 H 0.05077 0.55623 0.20255 0.0
H1650 H 0.05437 0.586 0.18015 0.0
H1651 H 0.08129 0.55347 0.18064 0.0
H1652 H 0.06652 0.53989 0.13755 0.0
H1653 H 0.03957 0.57239 0.13693 0.0
H1654 H 0.0259 0.53339 0.13 0.0
H1655 H 0.94005 0.50267 0.19204 0.0
H1656 H 0.91173 0.55305 0.18808 0.0
H1657 H -0.00216 0.5979 0.16442 0.0
C1658 C 0.06053 0.48668 0.17217 0.0
C1659 C 0.05638 0.45484 0.17838 0.0
C1660 C 0.02645 0.44425 0.18592 0.0
C1661 C 0.00102 0.46511 0.18726 0.0
C1662 C 0.00598 0.49638 0.18098 0.0
C1663 C 0.03501 0.50707 0.17358 0.0
C1664 C 0.03427 0.54166 0.16762 0.0
C1665 C 0.05649 0.56044 0.18371 0.0
C1666 C 0.04202 0.54714 0.14148 0.0
C1667 C 0.00026 0.54886 0.17289 0.0
C1668 C 0.98425 0.5225 0.18053 0.0
C1669 C 0.95239 0.52348 0.18614 0.0
C1670 C 0.93651 0.55217 0.18384 0.0
C1671 C 0.9526 0.57943 0.17608 0.0
C1672 C 0.98489 0.57758 0.1706 0.0
H1673 H 0.90446 -0.00112 0.66863 0.0
H1674 H 0.95759 0.91844 0.69322 0.0
H1675 H 0.00446 0.95234 0.69811 0.0
H1676 H 0.96616 0.03382 0.63537 0.0
H1677 H 0.95481 0.07336 0.64263 0.0
H1678 H 0.92567 0.0427 0.64176 0.0
H1679 H 0.90946 0.0561 0.68462 0.0
H1680 H 0.93871 0.08669 0.68558 0.0
H1681 H 0.9388 0.05609 0.7075 0.0
H1682 H 0.04592 0.99543 0.69934 0.0
H1683 H 0.07823 0.04373 0.69653 0.0
H1684 H 0.99683 0.09488 0.6713 0.0
C1685 C 0.92585 0.98832 0.6752 0.0
C1686 C 0.92735 0.95605 0.68065 0.0
C1687 C 0.95591 0.94317 0.68899 0.0
C1688 C 0.98262 0.96222 0.69184 0.0
C1689 C 0.98029 0.994 0.68626 0.0
C1690 C 0.95259 0.00689 0.67811 0.0
C1691 C 0.95619 0.04146 0.67284 0.0
C1692 C 0.95037 0.04821 0.64659 0.0
C1693 C 0.9345 0.06124 0.68858 0.0
C1694 C 0.99029 0.04612 0.6793 0.0
C1695 C 0.00389 0.01856 0.68701 0.0
C1696 C 0.03547 0.01718 0.69344 0.0
C1697 C 0.05361 0.04469 0.69181 0.0
C1698 C 0.04002 0.0731 0.68385 0.0
C1699 C 0.00791 0.07366 0.67768 0.0
H1700 H 0.5339 0.55019 0.34038 0.0
H1701 H 0.48172 0.63744 0.3456 0.0
H1702 H 0.43204 0.60791 0.34375 0.0
H1703 H 0.48013 0.51039 0.30018 0.0
H1704 H 0.48468 0.47274 0.31424 0.0
H1705 H 0.51647 0.50075 0.31474 0.0
H1706 H 0.51804 0.49769 0.36028 0.0
H1707 H 0.4863 0.46968 0.35991 0.0
H1708 H 0.48276 0.50527 0.37686 0.0
H1709 H 0.38813 0.56942 0.34289 0.0
H1710 H 0.35242 0.52384 0.3438 0.0
H1711 H 0.43256 0.46118 0.33932 0.0
C1712 C 0.51202 0.56308 0.3409 0.0
C1713 C 0.51172 0.59614 0.34303 0.0
C1714 C 0.4826 0.61213 0.34393 0.0
C1715 C 0.4542 0.59559 0.34284 0.0
C1716 C 0.45528 0.56306 0.34086 0.0
C1717 C 0.48336 0.54691 0.33993 0.0
C1718 C 0.47777 0.51179 0.33873 0.0
C1719 C 0.49052 0.49812 0.31559 0.0
C1720 C 0.49206 0.49514 0.36023 0.0
C1721 C 0.4422 0.51081 0.33937 0.0
C1722 C 0.42975 0.54068 0.34046 0.0
C1723 C 0.39754 0.54589 0.34187 0.0
C1724 C 0.37746 0.51982 0.34236 0.0
C1725 C 0.38966 0.48894 0.3415 0.0
C1726 C 0.42248 0.48449 0.33979 0.0
H1727 H 0.99078 0.39659 0.8495 0.0
H1728 H 0.07803 0.44656 0.83613 0.0
H1729 H 0.04823 0.49579 0.83073 0.0
H1730 H 0.94227 0.43915 0.80804 0.0
H1731 H 0.90852 0.43891 0.8272 0.0
H1732 H 0.93663 0.40745 0.82865 0.0
H1733 H 0.94421 0.41772 0.87326 0.0
H1734 H 0.91616 0.4492 0.87197 0.0
H1735 H 0.95511 0.45645 0.88316 0.0
H1736 H 0.00904 0.53969 0.82834 0.0
H1737 H 0.96346 0.57535 0.82987 0.0
H1738 H 0.90245 0.49605 0.84526 0.0
C1739 C 0.00365 0.41778 0.84514 0.0
C1740 C 0.03666 0.41781 0.84306 0.0
C1741 C 0.05268 0.4461 0.83773 0.0
C1742 C 0.03599 0.4741 0.83459 0.0
C1743 C 0.00342 0.47327 0.83692 0.0
C1744 C 0.98745 0.44585 0.84211 0.0
C1745 C 0.9526 0.45142 0.84474 0.0
C1746 C 0.93391 0.43315 0.82604 0.0
C1747 C 0.94138 0.44322 0.86977 0.0
C1748 C 0.95144 0.48635 0.84033 0.0
C1749 C 0.98093 0.49852 0.83574 0.0
C1750 C 0.98579 0.53043 0.83177 0.0
C1751 C 0.95979 0.55046 0.83269 0.0
C1752 C 0.92943 0.53842 0.83759 0.0
C1753 C 0.9253 0.50593 0.84127 0.0
H1754 H 0.00066 0.90363 0.35192 0.0
H1755 H 0.9145 0.95589 0.34086 0.0
H1756 H 0.94501 0.00544 0.34035 0.0
H1757 H 0.03718 0.95897 0.39047 0.0
H1758 H 0.07597 0.9524 0.37883 0.0
H1759 H 0.04721 0.92135 0.37807 0.0
H1760 H 0.05476 0.91621 0.33294 0.0
H1761 H 0.08356 0.94724 0.33359 0.0
H1762 H 0.04989 0.95031 0.31451 0.0
H1763 H 0.98556 0.04951 0.34175 0.0
H1764 H 0.03254 0.08383 0.34439 0.0
H1765 H 0.09107 0.00151 0.35401 0.0
C1766 C 0.98811 0.92543 0.34928 0.0
C1767 C 0.95521 0.92589 0.34636 0.0
C1768 C 0.93974 0.95499 0.34309 0.0
C1769 C 0.95685 0.98323 0.34278 0.0
C1770 C 0.98933 0.98189 0.34576 0.0
C1771 C 0.00474 0.95368 0.34891 0.0
C1772 C 0.03969 0.95839 0.35188 0.0
C1773 C 0.05064 0.94711 0.37626 0.0
C1774 C 0.05804 0.94208 0.33204 0.0
C1775 C 0.04165 0.99369 0.3498 0.0
C1776 C 0.01243 0.00695 0.34636 0.0
C1777 C 0.00857 0.03935 0.34434 0.0
C1778 C 0.03534 0.05864 0.34587 0.0
C1779 C 0.06545 0.04534 0.34924 0.0
C1780 C 0.06844 0.01245 0.35119 0.0
H1781 H 0.59726 0.01202 0.85815 0.0
H1782 H 0.55209 0.9281 0.83065 0.0
H1783 H 0.50486 0.95868 0.82134 0.0
H1784 H 0.52931 0.04245 0.88607 0.0
H1785 H 0.53795 0.08297 0.87953 0.0
H1786 H 0.56945 0.05514 0.88243 0.0
H1787 H 0.58956 0.07008 0.84083 0.0
H1788 H 0.55799 0.09789 0.83779 0.0
H1789 H 0.56323 0.06753 0.81605 0.0
H1790 H 0.462 0.99667 0.81676 0.0
H1791 H 0.42424 0.04021 0.81889 0.0
H1792 H 0.49621 0.09999 0.84963 0.0
C1793 C 0.57752 0.00024 0.84995 0.0
C1794 C 0.57831 0.96776 0.84507 0.0
C1795 C 0.55193 0.95296 0.83464 0.0
C1796 C 0.52506 0.97014 0.82912 0.0
C1797 C 0.52493 0.00205 0.83421 0.0
C1798 C 0.55029 0.01702 0.84449 0.0
C1799 C 0.54306 0.0512 0.84942 0.0
C1800 C 0.54506 0.05834 0.87593 0.0
C1801 C 0.56475 0.07296 0.83517 0.0
C1802 C 0.50953 0.0528 0.84061 0.0
C1803 C 0.49975 0.02423 0.83169 0.0
C1804 C 0.46936 0.01928 0.8235 0.0
C1805 C 0.4481 0.04412 0.82484 0.0
C1806 C 0.45737 0.07343 0.83436 0.0
C1807 C 0.48863 0.07795 0.84197 0.0
loop_
_geom_bond_atom_site_label_1
_geom_bond_atom_site_label_2
_geom_bond_distance
_geom_bond_site_symmetry_2
_ccdc_geom_bond_type
Co0 O2 2.143 . S
Co0 O8 2.074 . S
Co0 O11 2.093 . S
Co0 O24 2.097 . S
Co0 N41 2.151 . S
Co0 N49 2.214 . S
Co1 O2 2.160 . S
Co1 O7 2.058 . S
Co1 O17 2.057 . S
Co1 O32 2.037 . S
Co1 N36 2.145 . S
Co1 N57 2.257 . S
O2 Co0 2.143 . S
O2 Co1 2.160 . S
C3 O4 1.278 . S
C3 O11 1.224 . S
O4 C3 1.278 . S
C5 O6 1.245 . S
C5 O17 1.232 . S
O6 C5 1.245 . S
O7 Co1 2.058 . S
O7 C33 1.269 . S
O8 Co0 2.074 . S
O8 C33 1.257 . S
H9 C34 0.930 . S
H10 C40 0.930 . S
O11 Co0 2.093 . S
O11 C3 1.224 . S
H12 C44 0.926 1_565 S
H13 C46 0.930 . S
H14 C47 0.930 . S
H15 C45 0.929 . S
H16 C48 0.928 . S
O17 Co1 2.057 . S
O17 C5 1.232 . S
H18 C37 0.929 . S
H19 C38 0.929 . S
H20 C50 0.931 . S
H21 C42 0.908 1_565 S
H22 C51 0.930 . S
H23 C43 0.931 . S
O24 Co0 2.097 . S
O24 C52 1.214 . S
H25 C53 0.929 . S
H26 C54 0.929 . S
H27 C55 0.930 . S
H28 C56 0.929 . S
H29 C58 0.930 . S
H30 C35 0.930 . S
H31 C39 0.930 . S
O32 Co1 2.037 . S
O32 C52 1.234 . S
C33 O7 1.269 . S
C33 O8 1.257 . S
C34 H9 0.930 . S
C34 C37 1.388 . S
C34 C39 1.418 . S
C35 H30 0.930 . S
C35 C38 1.404 . S
C35 C39 1.353 . S
N36 Co1 2.145 . S
N36 C37 1.397 . S
N36 C38 1.334 . S
C37 H18 0.929 . S
C37 C34 1.388 . S
C37 N36 1.397 . S
C38 H19 0.929 . S
C38 C35 1.404 . S
C38 N36 1.334 . S
C39 H31 0.930 . S
C39 C34 1.418 . S
C39 C35 1.353 . S
C40 H10 0.930 . S
C40 N41 1.330 . S
C40 C42 1.479 . S
N41 Co0 2.151 . S
N41 C40 1.330 . S
N41 C45 1.418 . S
C42 H21 0.908 1_545 S
C42 C40 1.479 . S
C42 C43 1.322 1_545 S
C43 H23 0.931 . S
C43 C42 1.322 1_565 S
C43 C44 1.267 1_565 S
C44 H12 0.926 1_545 S
C44 C43 1.267 1_545 S
C44 C45 1.251 . S
C45 H15 0.929 . S
C45 N41 1.418 . S
C45 C44 1.251 . S
C46 H13 0.930 . S
C46 C48 1.406 . S
C46 C51 1.261 . S
C47 H14 0.930 . S
C47 N49 1.325 . S
C47 C50 1.357 . S
C48 H16 0.928 . S
C48 C46 1.406 . S
C48 N49 1.261 . S
N49 Co0 2.214 . S
N49 C47 1.325 . S
N49 C48 1.261 . S
C50 H20 0.931 . S
C50 C47 1.357 . S
C50 C51 1.312 . S
C51 H22 0.930 . S
C51 C46 1.261 . S
C51 C50 1.312 . S
C52 O24 1.214 . S
C52 O32 1.234 . S
C53 H25 0.929 . S
C53 C56 1.391 . S
C53 C58 1.391 . S
C54 H26 0.929 . S
C54 C55 1.390 . S
C54 N57 1.391 . S
C55 H27 0.930 . S
C55 C54 1.390 . S
C55 C56 1.392 . S
C56 H28 0.929 . S
C56 C53 1.391 . S
C56 C55 1.392 . S
N57 Co1 2.257 . S
N57 C54 1.391 . S
N57 C58 1.388 . S
C58 H29 0.930 . S
C58 C53 1.391 . S
C58 N57 1.388 . S
Co59 O61 2.143 . S
Co59 O67 2.074 . S
Co59 O70 2.093 . S
Co59 O83 2.097 . S
Co59 N100 2.151 . S
Co59 N108 2.214 . S
Co60 O61 2.160 . S
Co60 O66 2.058 . S
Co60 O76 2.057 . S
Co60 O91 2.037 . S
Co60 N95 2.145 . S
Co60 N116 2.257 . S
O61 Co59 2.143 . S
O61 Co60 2.160 . S
C62 O63 1.278 . S
C62 O70 1.224 . S
O63 C62 1.278 . S
C64 O65 1.245 . S
C64 O76 1.232 . S
O65 C64 1.245 . S
O66 Co60 2.058 . S
O66 C92 1.269 . S
O67 Co59 2.074 . S
O67 C92 1.257 . S
H68 C93 0.930 . S
H69 C99 0.930 . S
O70 Co59 2.093 . S
O70 C62 1.224 . S
H71 C103 0.929 . S
H72 C105 0.930 . S
H73 C106 0.930 . S
H74 C104 0.929 . S
H75 C107 0.928 . S
O76 Co60 2.057 . S
O76 C64 1.232 . S
H77 C96 0.929 . S
H78 C97 0.929 . S
H79 C109 0.931 . S
H80 C101 0.929 . S
H81 C110 0.930 . S
H82 C102 0.931 . S
O83 Co59 2.097 . S
O83 C111 1.214 . S
H84 C112 0.929 . S
H85 C113 0.929 . S
H86 C114 0.930 . S
H87 C115 0.929 . S
H88 C117 0.930 . S
H89 C94 0.930 . S
H90 C98 0.930 . S
O91 Co60 2.037 . S
O91 C111 1.234 . S
C92 O66 1.269 . S
C92 O67 1.257 . S
C93 H68 0.930 . S
C93 C96 1.388 . S
C93 C98 1.418 . S
C94 H89 0.930 . S
C94 C97 1.404 . S
C94 C98 1.353 . S
N95 Co60 2.145 . S
N95 C96 1.397 . S
N95 C97 1.334 . S
C96 H77 0.929 . S
C96 C93 1.388 . S
C96 N95 1.397 . S
C97 H78 0.929 . S
C97 C94 1.404 . S
C97 N95 1.334 . S
C98 H90 0.930 . S
C98 C93 1.418 . S
C98 C94 1.353 . S
C99 H69 0.930 . S
C99 N100 1.330 . S
C99 C101 1.446 . S
N100 Co59 2.151 . S
N100 C99 1.330 . S
N100 C104 1.418 . S
C101 H80 0.929 . S
C101 C99 1.446 . S
C101 C102 1.332 . S
C102 H82 0.931 . S
C102 C101 1.332 . S
C102 C103 1.267 . S
C103 H71 0.929 . S
C103 C102 1.267 . S
C103 C104 1.251 . S
C104 H74 0.929 . S
C104 N100 1.418 . S
C104 C103 1.251 . S
C105 H72 0.930 . S
C105 C107 1.406 . S
C105 C110 1.261 . S
C106 H73 0.930 . S
C106 N108 1.325 . S
C106 C109 1.357 . S
C107 H75 0.928 . S
C107 C105 1.406 . S
C107 N108 1.261 . S
N108 Co59 2.214 . S
N108 C106 1.325 . S
N108 C107 1.261 . S
C109 H79 0.931 . S
C109 C106 1.357 . S
C109 C110 1.312 . S
C110 H81 0.930 . S
C110 C105 1.261 . S
C110 C109 1.312 . S
C111 O83 1.214 . S
C111 O91 1.234 . S
C112 H84 0.929 . S
C112 C115 1.391 . S
C112 C117 1.391 . S
C113 H85 0.929 . S
C113 C114 1.390 . S
C113 N116 1.391 . S
C114 H86 0.930 . S
C114 C113 1.390 . S
C114 C115 1.392 . S
C115 H87 0.929 . S
C115 C112 1.391 . S
C115 C114 1.392 . S
N116 Co60 2.257 . S
N116 C113 1.391 . S
N116 C117 1.388 . S
C117 H88 0.930 . S
C117 C112 1.391 . S
C117 N116 1.388 . S
Co118 O120 2.143 . S
Co118 O126 2.074 . S
Co118 O129 2.093 . S
Co118 O142 2.097 . S
Co118 N159 2.151 . S
Co118 N167 2.214 . S
Co119 O120 2.160 . S
Co119 O125 2.058 . S
Co119 O135 2.057 . S
Co119 O150 2.037 . S
Co119 N154 2.145 . S
Co119 N175 2.257 . S
O120 Co118 2.143 . S
O120 Co119 2.160 . S
C121 O122 1.278 . S
C121 O129 1.224 . S
O122 C121 1.278 . S
C123 O124 1.245 . S
C123 O135 1.232 . S
O124 C123 1.245 . S
O125 Co119 2.058 . S
O125 C151 1.269 . S
O126 Co118 2.074 . S
O126 C151 1.257 . S
H127 C152 0.930 . S
H128 C158 0.930 . S
O129 Co118 2.093 . S
O129 C121 1.224 . S
H130 C162 0.929 . S
H131 C164 0.930 . S
H132 C165 0.930 . S
H133 C163 0.929 . S
H134 C166 0.928 . S
O135 Co119 2.057 . S
O135 C123 1.232 . S
H136 C155 0.929 . S
H137 C156 0.929 . S
H138 C168 0.931 . S
H139 C160 0.929 . S
H140 C169 0.930 . S
H141 C161 0.931 . S
O142 Co118 2.097 . S
O142 C170 1.214 . S
H143 C171 0.929 . S
H144 C172 0.929 . S
H145 C173 0.930 . S
H146 C174 0.929 . S
H147 C176 0.930 . S
H148 C153 0.930 . S
H149 C157 0.930 . S
O150 Co119 2.037 . S
O150 C170 1.234 . S
C151 O125 1.269 . S
C151 O126 1.257 . S
C152 H127 0.930 . S
C152 C155 1.388 . S
C152 C157 1.418 . S
C153 H148 0.930 . S
C153 C156 1.404 . S
C153 C157 1.353 . S
N154 Co119 2.145 . S
N154 C155 1.397 . S
N154 C156 1.334 . S
C155 H136 0.929 . S
C155 C152 1.388 . S
C155 N154 1.397 . S
C156 H137 0.929 . S
C156 C153 1.404 . S
C156 N154 1.334 . S
C157 H149 0.930 . S
C157 C152 1.418 . S
C157 C153 1.353 . S
C158 H128 0.930 . S
C158 N159 1.330 . S
C158 C160 1.446 . S
N159 Co118 2.151 . S
N159 C158 1.330 . S
N159 C163 1.418 . S
C160 H139 0.929 . S
C160 C158 1.446 . S
C160 C161 1.332 . S
C161 H141 0.931 . S
C161 C160 1.332 . S
C161 C162 1.267 . S
C162 H130 0.929 . S
C162 C161 1.267 . S
C162 C163 1.251 . S
C163 H133 0.929 . S
C163 N159 1.418 . S
C163 C162 1.251 . S
C164 H131 0.930 . S
C164 C166 1.406 . S
C164 C169 1.261 . S
C165 H132 0.930 . S
C165 N167 1.325 . S
C165 C168 1.357 . S
C166 H134 0.928 . S
C166 C164 1.406 . S
C166 N167 1.261 . S
N167 Co118 2.214 . S
N167 C165 1.325 . S
N167 C166 1.261 . S
C168 H138 0.931 . S
C168 C165 1.357 . S
C168 C169 1.312 . S
C169 H140 0.930 . S
C169 C164 1.261 . S
C169 C168 1.312 . S
C170 O142 1.214 . S
C170 O150 1.234 . S
C171 H143 0.929 . S
C171 C174 1.391 . S
C171 C176 1.391 . S
C172 H144 0.929 . S
C172 C173 1.390 . S
C172 N175 1.391 . S
C173 H145 0.930 . S
C173 C172 1.390 . S
C173 C174 1.392 . S
C174 H146 0.929 . S
C174 C171 1.391 . S
C174 C173 1.392 . S
N175 Co119 2.257 . S
N175 C172 1.391 . S
N175 C176 1.388 . S
C176 H147 0.930 . S
C176 C171 1.391 . S
C176 N175 1.388 . S
Co177 O179 2.143 . S
Co177 O185 2.074 . S
Co177 O188 2.093 . S
Co177 O201 2.097 . S
Co177 N218 2.151 . S
Co177 N226 2.214 . S
Co178 O179 2.160 . S
Co178 O184 2.058 . S
Co178 O194 2.057 . S
Co178 O209 2.037 . S
Co178 N213 2.145 . S
Co178 N234 2.257 . S
O179 Co177 2.143 . S
O179 Co178 2.160 . S
C180 O181 1.278 . S
C180 O188 1.224 . S
O181 C180 1.278 . S
C182 O183 1.245 . S
C182 O194 1.232 . S
O183 C182 1.245 . S
O184 Co178 2.058 . S
O184 C210 1.269 . S
O185 Co177 2.074 . S
O185 C210 1.257 . S
H186 C211 0.930 . S
H187 C217 0.930 . S
O188 Co177 2.093 . S
O188 C180 1.224 . S
H189 C221 0.926 1_655 S
H190 C223 0.930 . S
H191 C224 0.930 . S
H192 C222 0.929 . S
H193 C225 0.928 . S
O194 Co178 2.057 . S
O194 C182 1.232 . S
H195 C214 0.929 . S
H196 C215 0.929 . S
H197 C227 0.931 . S
H198 C219 0.908 1_655 S
H199 C228 0.930 . S
H200 C220 0.931 . S
O201 Co177 2.097 . S
O201 C229 1.214 . S
H202 C230 0.929 . S
H203 C231 0.929 . S
H204 C232 0.930 . S
H205 C233 0.929 . S
H206 C235 0.930 . S
H207 C212 0.930 . S
H208 C216 0.930 . S
O209 Co178 2.037 . S
O209 C229 1.234 . S
C210 O184 1.269 . S
C210 O185 1.257 . S
C211 H186 0.930 . S
C211 C214 1.388 . S
C211 C216 1.418 . S
C212 H207 0.930 . S
C212 C215 1.404 . S
C212 C216 1.353 . S
N213 Co178 2.145 . S
N213 C214 1.397 . S
N213 C215 1.334 . S
C214 H195 0.929 . S
C214 C211 1.388 . S
C214 N213 1.397 . S
C215 H196 0.929 . S
C215 C212 1.404 . S
C215 N213 1.334 . S
C216 H208 0.930 . S
C216 C211 1.418 . S
C216 C212 1.353 . S
C217 H187 0.930 . S
C217 N218 1.330 . S
C217 C219 1.479 . S
N218 Co177 2.151 . S
N218 C217 1.330 . S
N218 C222 1.418 . S
C219 H198 0.908 1_455 S
C219 C217 1.479 . S
C219 C220 1.322 1_455 S
C220 H200 0.931 . S
C220 C219 1.322 1_655 S
C220 C221 1.267 1_655 S
C221 H189 0.926 1_455 S
C221 C220 1.267 1_455 S
C221 C222 1.251 . S
C222 H192 0.929 . S
C222 N218 1.418 . S
C222 C221 1.251 . S
C223 H190 0.930 . S
C223 C225 1.406 . S
C223 C228 1.261 . S
C224 H191 0.930 . S
C224 N226 1.325 . S
C224 C227 1.357 . S
C225 H193 0.928 . S
C225 C223 1.406 . S
C225 N226 1.261 . S
N226 Co177 2.214 . S
N226 C224 1.325 . S
N226 C225 1.261 . S
C227 H197 0.931 . S
C227 C224 1.357 . S
C227 C228 1.312 . S
C228 H199 0.930 . S
C228 C223 1.261 . S
C228 C227 1.312 . S
C229 O201 1.214 . S
C229 O209 1.234 . S
C230 H202 0.929 . S
C230 C233 1.391 . S
C230 C235 1.391 . S
C231 H203 0.929 . S
C231 C232 1.390 . S
C231 N234 1.391 . S
C232 H204 0.930 . S
C232 C231 1.390 . S
C232 C233 1.392 . S
C233 H205 0.929 . S
C233 C230 1.391 . S
C233 C232 1.392 . S
N234 Co178 2.257 . S
N234 C231 1.391 . S
N234 C235 1.388 . S
C235 H206 0.930 . S
C235 C230 1.391 . S
C235 N234 1.388 . S
Co236 O238 2.143 . S
Co236 O244 2.074 . S
Co236 O247 2.093 . S
Co236 O260 2.097 . S
Co236 N277 2.151 . S
Co236 N285 2.214 . S
Co237 O238 2.160 . S
Co237 O243 2.058 . S
Co237 O253 2.057 . S
Co237 O268 2.037 . S
Co237 N272 2.145 . S
Co237 N293 2.257 . S
O238 Co236 2.143 . S
O238 Co237 2.160 . S
C239 O240 1.278 . S
C239 O247 1.224 . S
O240 C239 1.278 . S
C241 O242 1.245 . S
C241 O253 1.232 . S
O242 C241 1.245 . S
O243 Co237 2.058 . S
O243 C269 1.269 . S
O244 Co236 2.074 . S
O244 C269 1.257 . S
H245 C270 0.930 . S
H246 C276 0.930 . S
O247 Co236 2.093 . S
O247 C239 1.224 . S
H248 C280 0.929 . S
H249 C282 0.930 . S
H250 C283 0.930 . S
H251 C281 0.929 . S
H252 C284 0.928 . S
O253 Co237 2.057 . S
O253 C241 1.232 . S
H254 C273 0.929 . S
H255 C274 0.929 . S
H256 C286 0.931 . S
H257 C278 0.929 . S
H258 C287 0.930 . S
H259 C279 0.931 . S
O260 Co236 2.097 . S
O260 C288 1.214 . S
H261 C289 0.929 . S
H262 C290 0.929 . S
H263 C291 0.930 . S
H264 C292 0.929 . S
H265 C294 0.930 . S
H266 C271 0.930 . S
H267 C275 0.930 . S
O268 Co237 2.037 . S
O268 C288 1.234 . S
C269 O243 1.269 . S
C269 O244 1.257 . S
C270 H245 0.930 . S
C270 C273 1.388 . S
C270 C275 1.418 . S
C271 H266 0.930 . S
C271 C274 1.404 . S
C271 C275 1.353 . S
N272 Co237 2.145 . S
N272 C273 1.397 . S
N272 C274 1.334 . S
C273 H254 0.929 . S
C273 C270 1.388 . S
C273 N272 1.397 . S
C274 H255 0.929 . S
C274 C271 1.404 . S
C274 N272 1.334 . S
C275 H267 0.930 . S
C275 C270 1.418 . S
C275 C271 1.353 . S
C276 H246 0.930 . S
C276 N277 1.330 . S
C276 C278 1.446 . S
N277 Co236 2.151 . S
N277 C276 1.330 . S
N277 C281 1.418 . S
C278 H257 0.929 . S
C278 C276 1.446 . S
C278 C279 1.332 . S
C279 H259 0.931 . S
C279 C278 1.332 . S
C279 C280 1.267 . S
C280 H248 0.929 . S
C280 C279 1.267 . S
C280 C281 1.251 . S
C281 H251 0.929 . S
C281 N277 1.418 . S
C281 C280 1.251 . S
C282 H249 0.930 . S
C282 C284 1.406 . S
C282 C287 1.261 . S
C283 H250 0.930 . S
C283 N285 1.325 . S
C283 C286 1.357 . S
C284 H252 0.928 . S
C284 C282 1.406 . S
C284 N285 1.261 . S
N285 Co236 2.214 . S
N285 C283 1.325 . S
N285 C284 1.261 . S
C286 H256 0.931 . S
C286 C283 1.357 . S
C286 C287 1.312 . S
C287 H258 0.930 . S
C287 C282 1.261 . S
C287 C286 1.312 . S
C288 O260 1.214 . S
C288 O268 1.234 . S
C289 H261 0.929 . S
C289 C292 1.391 . S
C289 C294 1.391 . S
C290 H262 0.929 . S
C290 C291 1.390 . S
C290 N293 1.391 . S
C291 H263 0.930 . S
C291 C290 1.390 . S
C291 C292 1.392 . S
C292 H264 0.929 . S
C292 C289 1.391 . S
C292 C291 1.392 . S
N293 Co237 2.257 . S
N293 C290 1.391 . S
N293 C294 1.388 . S
C294 H265 0.930 . S
C294 C289 1.391 . S
C294 N293 1.388 . S
Co295 O297 2.143 . S
Co295 O303 2.074 . S
Co295 O306 2.093 . S
Co295 O319 2.097 . S
Co295 N336 2.151 . S
Co295 N344 2.214 . S
Co296 O297 2.160 . S
Co296 O302 2.058 . S
Co296 O312 2.057 . S
Co296 O327 2.037 . S
Co296 N331 2.145 . S
Co296 N352 2.257 . S
O297 Co295 2.143 . S
O297 Co296 2.160 . S
C298 O299 1.278 . S
C298 O306 1.224 . S
O299 C298 1.278 . S
C300 O301 1.245 . S
C300 O312 1.232 . S
O301 C300 1.245 . S
O302 Co296 2.058 . S
O302 C328 1.269 . S
O303 Co295 2.074 . S
O303 C328 1.257 . S
H304 C329 0.930 . S
H305 C335 0.930 . S
O306 Co295 2.093 . S
O306 C298 1.224 . S
H307 C339 0.926 1_655 S
H308 C341 0.930 . S
H309 C342 0.930 . S
H310 C340 0.929 . S
H311 C343 0.928 . S
O312 Co296 2.057 . S
O312 C300 1.232 . S
H313 C332 0.929 . S
H314 C333 0.929 . S
H315 C345 0.931 . S
H316 C337 0.908 1_655 S
H317 C346 0.930 . S
H318 C338 0.931 . S
O319 Co295 2.097 . S
O319 C347 1.214 . S
H320 C348 0.929 . S
H321 C349 0.929 . S
H322 C350 0.930 . S
H323 C351 0.929 . S
H324 C353 0.930 . S
H325 C330 0.930 . S
H326 C334 0.930 . S
O327 Co296 2.037 . S
O327 C347 1.234 . S
C328 O302 1.269 . S
C328 O303 1.257 . S
C329 H304 0.930 . S
C329 C332 1.388 . S
C329 C334 1.418 . S
C330 H325 0.930 . S
C330 C333 1.404 . S
C330 C334 1.353 . S
N331 Co296 2.145 . S
N331 C332 1.397 . S
N331 C333 1.334 . S
C332 H313 0.929 . S
C332 C329 1.388 . S
C332 N331 1.397 . S
C333 H314 0.929 . S
C333 C330 1.404 . S
C333 N331 1.334 . S
C334 H326 0.930 . S
C334 C329 1.418 . S
C334 C330 1.353 . S
C335 H305 0.930 . S
C335 N336 1.330 . S
C335 C337 1.479 . S
N336 Co295 2.151 . S
N336 C335 1.330 . S
N336 C340 1.418 . S
C337 H316 0.908 1_455 S
C337 C335 1.479 . S
C337 C338 1.322 1_455 S
C338 H318 0.931 . S
C338 C337 1.322 1_655 S
C338 C339 1.267 1_655 S
C339 H307 0.926 1_455 S
C339 C338 1.267 1_455 S
C339 C340 1.251 . S
C340 H310 0.929 . S
C340 N336 1.418 . S
C340 C339 1.251 . S
C341 H308 0.930 . S
C341 C343 1.406 . S
C341 C346 1.261 . S
C342 H309 0.930 . S
C342 N344 1.325 . S
C342 C345 1.357 . S
C343 H311 0.928 . S
C343 C341 1.406 . S
C343 N344 1.261 . S
N344 Co295 2.214 . S
N344 C342 1.325 . S
N344 C343 1.261 . S
C345 H315 0.931 . S
C345 C342 1.357 . S
C345 C346 1.312 . S
C346 H317 0.930 . S
C346 C341 1.261 . S
C346 C345 1.312 . S
C347 O319 1.214 . S
C347 O327 1.234 . S
C348 H320 0.929 . S
C348 C351 1.391 . S
C348 C353 1.391 . S
C349 H321 0.929 . S
C349 C350 1.390 . S
C349 N352 1.391 . S
C350 H322 0.930 . S
C350 C349 1.390 . S
C350 C351 1.392 . S
C351 H323 0.929 . S
C351 C348 1.391 . S
C351 C350 1.392 . S
N352 Co296 2.257 . S
N352 C349 1.391 . S
N352 C353 1.388 . S
C353 H324 0.930 . S
C353 C348 1.391 . S
C353 N352 1.388 . S
Co354 O356 2.143 . S
Co354 O362 2.074 . S
Co354 O365 2.093 . S
Co354 O378 2.097 . S
Co354 N395 2.151 . S
Co354 N403 2.214 . S
Co355 O356 2.160 . S
Co355 O361 2.058 . S
Co355 O371 2.057 . S
Co355 O386 2.037 . S
Co355 N390 2.145 . S
Co355 N411 2.257 . S
O356 Co354 2.143 . S
O356 Co355 2.160 . S
C357 O358 1.278 . S
C357 O365 1.224 . S
O358 C357 1.278 . S
C359 O360 1.245 . S
C359 O371 1.232 . S
O360 C359 1.245 . S
O361 Co355 2.058 . S
O361 C387 1.269 . S
O362 Co354 2.074 . S
O362 C387 1.257 . S
H363 C388 0.930 . S
H364 C394 0.930 . S
O365 Co354 2.093 . S
O365 C357 1.224 . S
H366 C398 0.926 1_565 S
H367 C400 0.930 . S
H368 C401 0.930 . S
H369 C399 0.929 . S
H370 C402 0.928 . S
O371 Co355 2.057 . S
O371 C359 1.232 . S
H372 C391 0.929 . S
H373 C392 0.929 . S
H374 C404 0.931 . S
H375 C396 0.908 1_565 S
H376 C405 0.930 . S
H377 C397 0.931 . S
O378 Co354 2.097 . S
O378 C406 1.214 . S
H379 C407 0.929 . S
H380 C408 0.929 . S
H381 C409 0.930 . S
H382 C410 0.929 . S
H383 C412 0.930 . S
H384 C389 0.930 . S
H385 C393 0.930 . S
O386 Co355 2.037 . S
O386 C406 1.234 . S
C387 O361 1.269 . S
C387 O362 1.257 . S
C388 H363 0.930 . S
C388 C391 1.388 . S
C388 C393 1.418 . S
C389 H384 0.930 . S
C389 C392 1.404 . S
C389 C393 1.353 . S
N390 Co355 2.145 . S
N390 C391 1.397 . S
N390 C392 1.334 . S
C391 H372 0.929 . S
C391 C388 1.388 . S
C391 N390 1.397 . S
C392 H373 0.929 . S
C392 C389 1.404 . S
C392 N390 1.334 . S
C393 H385 0.930 . S
C393 C388 1.418 . S
C393 C389 1.353 . S
C394 H364 0.930 . S
C394 N395 1.330 . S
C394 C396 1.479 . S
N395 Co354 2.151 . S
N395 C394 1.330 . S
N395 C399 1.418 . S
C396 H375 0.908 1_545 S
C396 C394 1.479 . S
C396 C397 1.322 1_545 S
C397 H377 0.931 . S
C397 C396 1.322 1_565 S
C397 C398 1.267 1_565 S
C398 H366 0.926 1_545 S
C398 C397 1.267 1_545 S
C398 C399 1.251 . S
C399 H369 0.929 . S
C399 N395 1.418 . S
C399 C398 1.251 . S
C400 H367 0.930 . S
C400 C402 1.406 . S
C400 C405 1.261 . S
C401 H368 0.930 . S
C401 N403 1.325 . S
C401 C404 1.357 . S
C402 H370 0.928 . S
C402 C400 1.406 . S
C402 N403 1.261 . S
N403 Co354 2.214 . S
N403 C401 1.325 . S
N403 C402 1.261 . S
C404 H374 0.931 . S
C404 C401 1.357 . S
C404 C405 1.312 . S
C405 H376 0.930 . S
C405 C400 1.261 . S
C405 C404 1.312 . S
C406 O378 1.214 . S
C406 O386 1.234 . S
C407 H379 0.929 . S
C407 C410 1.391 . S
C407 C412 1.391 . S
C408 H380 0.929 . S
C408 C409 1.390 . S
C408 N411 1.391 . S
C409 H381 0.930 . S
C409 C408 1.390 . S
C409 C410 1.392 . S
C410 H382 0.929 . S
C410 C407 1.391 . S
C410 C409 1.392 . S
N411 Co355 2.257 . S
N411 C408 1.391 . S
N411 C412 1.388 . S
C412 H383 0.930 . S
C412 C407 1.391 . S
C412 N411 1.388 . S
Co413 O415 2.143 . S
Co413 O421 2.074 . S
Co413 O424 2.093 . S
Co413 O437 2.097 . S
Co413 N454 2.151 . S
Co413 N462 2.214 . S
Co414 O415 2.160 . S
Co414 O420 2.058 . S
Co414 O430 2.057 . S
Co414 O445 2.037 . S
Co414 N449 2.145 . S
Co414 N470 2.257 . S
O415 Co413 2.143 . S
O415 Co414 2.160 . S
C416 O417 1.278 . S
C416 O424 1.224 . S
O417 C416 1.278 . S
C418 O419 1.245 . S
C418 O430 1.232 . S
O419 C418 1.245 . S
O420 Co414 2.058 . S
O420 C446 1.269 . S
O421 Co413 2.074 . S
O421 C446 1.257 . S
H422 C447 0.930 . S
H423 C453 0.930 . S
O424 Co413 2.093 . S
O424 C416 1.224 . S
H425 C457 0.929 . S
H426 C459 0.930 . S
H427 C460 0.930 . S
H428 C458 0.929 . S
H429 C461 0.928 . S
O430 Co414 2.057 . S
O430 C418 1.232 . S
H431 C450 0.929 . S
H432 C451 0.929 . S
H433 C463 0.931 . S
H434 C455 0.929 . S
H435 C464 0.930 . S
H436 C456 0.931 . S
O437 Co413 2.097 . S
O437 C465 1.214 . S
H438 C466 0.929 . S
H439 C467 0.929 . S
H440 C468 0.930 . S
H441 C469 0.929 . S
H442 C471 0.930 . S
H443 C448 0.930 . S
H444 C452 0.930 . S
O445 Co414 2.037 . S
O445 C465 1.234 . S
C446 O420 1.269 . S
C446 O421 1.257 . S
C447 H422 0.930 . S
C447 C450 1.388 . S
C447 C452 1.418 . S
C448 H443 0.930 . S
C448 C451 1.404 . S
C448 C452 1.353 . S
N449 Co414 2.145 . S
N449 C450 1.397 . S
N449 C451 1.334 . S
C450 H431 0.929 . S
C450 C447 1.388 . S
C450 N449 1.397 . S
C451 H432 0.929 . S
C451 C448 1.404 . S
C451 N449 1.334 . S
C452 H444 0.930 . S
C452 C447 1.418 . S
C452 C448 1.353 . S
C453 H423 0.930 . S
C453 N454 1.330 . S
C453 C455 1.446 . S
N454 Co413 2.151 . S
N454 C453 1.330 . S
N454 C458 1.418 . S
C455 H434 0.929 . S
C455 C453 1.446 . S
C455 C456 1.332 . S
C456 H436 0.931 . S
C456 C455 1.332 . S
C456 C457 1.267 . S
C457 H425 0.929 . S
C457 C456 1.267 . S
C457 C458 1.251 . S
C458 H428 0.929 . S
C458 N454 1.418 . S
C458 C457 1.251 . S
C459 H426 0.930 . S
C459 C461 1.406 . S
C459 C464 1.261 . S
C460 H427 0.930 . S
C460 N462 1.325 . S
C460 C463 1.357 . S
C461 H429 0.928 . S
C461 C459 1.406 . S
C461 N462 1.261 . S
N462 Co413 2.214 . S
N462 C460 1.325 . S
N462 C461 1.261 . S
C463 H433 0.931 . S
C463 C460 1.357 . S
C463 C464 1.312 . S
C464 H435 0.930 . S
C464 C459 1.261 . S
C464 C463 1.312 . S
C465 O437 1.214 . S
C465 O445 1.234 . S
C466 H438 0.929 . S
C466 C469 1.391 . S
C466 C471 1.391 . S
C467 H439 0.929 . S
C467 C468 1.390 . S
C467 N470 1.391 . S
C468 H440 0.930 . S
C468 C467 1.390 . S
C468 C469 1.392 . S
C469 H441 0.929 . S
C469 C466 1.391 . S
C469 C468 1.392 . S
N470 Co414 2.257 . S
N470 C467 1.391 . S
N470 C471 1.388 . S
C471 H442 0.930 . S
C471 C466 1.391 . S
C471 N470 1.388 . S
Co472 O474 2.143 . S
Co472 O480 2.074 . S
Co472 O483 2.093 . S
Co472 O496 2.097 . S
Co472 N513 2.151 . S
Co472 N521 2.214 . S
Co473 O474 2.160 . S
Co473 O479 2.058 . S
Co473 O489 2.057 . S
Co473 O504 2.037 . S
Co473 N508 2.145 . S
Co473 N529 2.257 . S
O474 Co472 2.143 . S
O474 Co473 2.160 . S
C475 O476 1.278 . S
C475 O483 1.224 . S
O476 C475 1.278 . S
C477 O478 1.245 . S
C477 O489 1.232 . S
O478 C477 1.245 . S
O479 Co473 2.058 . S
O479 C505 1.269 . S
O480 Co472 2.074 . S
O480 C505 1.257 . S
H481 C506 0.930 . S
H482 C512 0.930 . S
O483 Co472 2.093 . S
O483 C475 1.224 . S
H484 C516 0.926 1_545 S
H485 C518 0.930 . S
H486 C519 0.930 . S
H487 C517 0.929 . S
H488 C520 0.928 . S
O489 Co473 2.057 . S
O489 C477 1.232 . S
H490 C509 0.929 . S
H491 C510 0.929 . S
H492 C522 0.931 . S
H493 C514 0.908 1_545 S
H494 C523 0.930 . S
H495 C515 0.931 . S
O496 Co472 2.097 . S
O496 C524 1.214 . S
H497 C525 0.929 . S
H498 C526 0.929 . S
H499 C527 0.930 . S
H500 C528 0.929 . S
H501 C530 0.930 . S
H502 C507 0.930 . S
H503 C511 0.930 . S
O504 Co473 2.037 . S
O504 C524 1.234 . S
C505 O479 1.269 . S
C505 O480 1.257 . S
C506 H481 0.930 . S
C506 C509 1.388 . S
C506 C511 1.418 . S
C507 H502 0.930 . S
C507 C510 1.404 . S
C507 C511 1.353 . S
N508 Co473 2.145 . S
N508 C509 1.397 . S
N508 C510 1.334 . S
C509 H490 0.929 . S
C509 C506 1.388 . S
C509 N508 1.397 . S
C510 H491 0.929 . S
C510 C507 1.404 . S
C510 N508 1.334 . S
C511 H503 0.930 . S
C511 C506 1.418 . S
C511 C507 1.353 . S
C512 H482 0.930 . S
C512 N513 1.330 . S
C512 C514 1.479 . S
N513 Co472 2.151 . S
N513 C512 1.330 . S
N513 C517 1.418 . S
C514 H493 0.908 1_565 S
C514 C512 1.479 . S
C514 C515 1.322 1_565 S
C515 H495 0.931 . S
C515 C514 1.322 1_545 S
C515 C516 1.267 1_545 S
C516 H484 0.926 1_565 S
C516 C515 1.267 1_565 S
C516 C517 1.251 . S
C517 H487 0.929 . S
C517 N513 1.418 . S
C517 C516 1.251 . S
C518 H485 0.930 . S
C518 C520 1.406 . S
C518 C523 1.261 . S
C519 H486 0.930 . S
C519 N521 1.325 . S
C519 C522 1.357 . S
C520 H488 0.928 . S
C520 C518 1.406 . S
C520 N521 1.261 . S
N521 Co472 2.214 . S
N521 C519 1.325 . S
N521 C520 1.261 . S
C522 H492 0.931 . S
C522 C519 1.357 . S
C522 C523 1.312 . S
C523 H494 0.930 . S
C523 C518 1.261 . S
C523 C522 1.312 . S
C524 O496 1.214 . S
C524 O504 1.234 . S
C525 H497 0.929 . S
C525 C528 1.391 . S
C525 C530 1.391 . S
C526 H498 0.929 . S
C526 C527 1.390 . S
C526 N529 1.391 . S
C527 H499 0.930 . S
C527 C526 1.390 . S
C527 C528 1.392 . S
C528 H500 0.929 . S
C528 C525 1.391 . S
C528 C527 1.392 . S
N529 Co473 2.257 . S
N529 C526 1.391 . S
N529 C530 1.388 . S
C530 H501 0.930 . S
C530 C525 1.391 . S
C530 N529 1.388 . S
Co531 O533 2.143 . S
Co531 O539 2.074 . S
Co531 O542 2.093 . S
Co531 O555 2.097 . S
Co531 N572 2.151 . S
Co531 N580 2.214 . S
Co532 O533 2.160 . S
Co532 O538 2.058 . S
Co532 O548 2.057 . S
Co532 O563 2.037 . S
Co532 N567 2.145 . S
Co532 N588 2.257 . S
O533 Co531 2.143 . S
O533 Co532 2.160 . S
C534 O535 1.278 . S
C534 O542 1.224 . S
O535 C534 1.278 . S
C536 O537 1.245 . S
C536 O548 1.232 . S
O537 C536 1.245 . S
O538 Co532 2.058 . S
O538 C564 1.269 . S
O539 Co531 2.074 . S
O539 C564 1.257 . S
H540 C565 0.930 . S
H541 C571 0.930 . S
O542 Co531 2.093 . S
O542 C534 1.224 . S
H543 C575 0.929 . S
H544 C577 0.930 . S
H545 C578 0.930 . S
H546 C576 0.929 . S
H547 C579 0.928 . S
O548 Co532 2.057 . S
O548 C536 1.232 . S
H549 C568 0.929 . S
H550 C569 0.929 . S
H551 C581 0.931 . S
H552 C573 0.929 . S
H553 C582 0.930 . S
H554 C574 0.931 . S
O555 Co531 2.097 . S
O555 C583 1.214 . S
H556 C584 0.929 . S
H557 C585 0.929 . S
H558 C586 0.930 . S
H559 C587 0.929 . S
H560 C589 0.930 . S
H561 C566 0.930 . S
H562 C570 0.930 . S
O563 Co532 2.037 . S
O563 C583 1.234 . S
C564 O538 1.269 . S
C564 O539 1.257 . S
C565 H540 0.930 . S
C565 C568 1.388 . S
C565 C570 1.418 . S
C566 H561 0.930 . S
C566 C569 1.404 . S
C566 C570 1.353 . S
N567 Co532 2.145 . S
N567 C568 1.397 . S
N567 C569 1.334 . S
C568 H549 0.929 . S
C568 C565 1.388 . S
C568 N567 1.397 . S
C569 H550 0.929 . S
C569 C566 1.404 . S
C569 N567 1.334 . S
C570 H562 0.930 . S
C570 C565 1.418 . S
C570 C566 1.353 . S
C571 H541 0.930 . S
C571 N572 1.330 . S
C571 C573 1.446 . S
N572 Co531 2.151 . S
N572 C571 1.330 . S
N572 C576 1.418 . S
C573 H552 0.929 . S
C573 C571 1.446 . S
C573 C574 1.332 . S
C574 H554 0.931 . S
C574 C573 1.332 . S
C574 C575 1.267 . S
C575 H543 0.929 . S
C575 C574 1.267 . S
C575 C576 1.251 . S
C576 H546 0.929 . S
C576 N572 1.418 . S
C576 C575 1.251 . S
C577 H544 0.930 . S
C577 C579 1.406 . S
C577 C582 1.261 . S
C578 H545 0.930 . S
C578 N580 1.325 . S
C578 C581 1.357 . S
C579 H547 0.928 . S
C579 C577 1.406 . S
C579 N580 1.261 . S
N580 Co531 2.214 . S
N580 C578 1.325 . S
N580 C579 1.261 . S
C581 H551 0.931 . S
C581 C578 1.357 . S
C581 C582 1.312 . S
C582 H553 0.930 . S
C582 C577 1.261 . S
C582 C581 1.312 . S
C583 O555 1.214 . S
C583 O563 1.234 . S
C584 H556 0.929 . S
C584 C587 1.391 . S
C584 C589 1.391 . S
C585 H557 0.929 . S
C585 C586 1.390 . S
C585 N588 1.391 . S
C586 H558 0.930 . S
C586 C585 1.390 . S
C586 C587 1.392 . S
C587 H559 0.929 . S
C587 C584 1.391 . S
C587 C586 1.392 . S
N588 Co532 2.257 . S
N588 C585 1.391 . S
N588 C589 1.388 . S
C589 H560 0.930 . S
C589 C584 1.391 . S
C589 N588 1.388 . S
Co590 O592 2.143 . S
Co590 O598 2.074 . S
Co590 O601 2.093 . S
Co590 O614 2.097 . S
Co590 N631 2.151 . S
Co590 N639 2.214 . S
Co591 O592 2.160 . S
Co591 O597 2.058 . S
Co591 O607 2.057 . S
Co591 O622 2.037 . S
Co591 N626 2.145 . S
Co591 N647 2.257 . S
O592 Co590 2.143 . S
O592 Co591 2.160 . S
C593 O594 1.278 . S
C593 O601 1.224 . S
O594 C593 1.278 . S
C595 O596 1.245 . S
C595 O607 1.232 . S
O596 C595 1.245 . S
O597 Co591 2.058 . S
O597 C623 1.269 . S
O598 Co590 2.074 . S
O598 C623 1.257 . S
H599 C624 0.930 . S
H600 C630 0.930 . S
O601 Co590 2.093 . S
O601 C593 1.224 . S
H602 C634 0.929 . S
H603 C636 0.930 . S
H604 C637 0.930 . S
H605 C635 0.929 . S
H606 C638 0.928 . S
O607 Co591 2.057 . S
O607 C595 1.232 . S
H608 C627 0.929 . S
H609 C628 0.929 . S
H610 C640 0.931 . S
H611 C632 0.929 . S
H612 C641 0.930 . S
H613 C633 0.931 . S
O614 Co590 2.097 . S
O614 C642 1.214 . S
H615 C643 0.929 . S
H616 C644 0.929 . S
H617 C645 0.930 . S
H618 C646 0.929 . S
H619 C648 0.930 . S
H620 C625 0.930 . S
H621 C629 0.930 . S
O622 Co591 2.037 . S
O622 C642 1.234 . S
C623 O597 1.269 . S
C623 O598 1.257 . S
C624 H599 0.930 . S
C624 C627 1.388 . S
C624 C629 1.418 . S
C625 H620 0.930 . S
C625 C628 1.404 . S
C625 C629 1.353 . S
N626 Co591 2.145 . S
N626 C627 1.397 . S
N626 C628 1.334 . S
C627 H608 0.929 . S
C627 C624 1.388 . S
C627 N626 1.397 . S
C628 H609 0.929 . S
C628 C625 1.404 . S
C628 N626 1.334 . S
C629 H621 0.930 . S
C629 C624 1.418 . S
C629 C625 1.353 . S
C630 H600 0.930 . S
C630 N631 1.330 . S
C630 C632 1.446 . S
N631 Co590 2.151 . S
N631 C630 1.330 . S
N631 C635 1.418 . S
C632 H611 0.929 . S
C632 C630 1.446 . S
C632 C633 1.332 . S
C633 H613 0.931 . S
C633 C632 1.332 . S
C633 C634 1.267 . S
C634 H602 0.929 . S
C634 C633 1.267 . S
C634 C635 1.251 . S
C635 H605 0.929 . S
C635 N631 1.418 . S
C635 C634 1.251 . S
C636 H603 0.930 . S
C636 C638 1.406 . S
C636 C641 1.261 . S
C637 H604 0.930 . S
C637 N639 1.325 . S
C637 C640 1.357 . S
C638 H606 0.928 . S
C638 C636 1.406 . S
C638 N639 1.261 . S
N639 Co590 2.214 . S
N639 C637 1.325 . S
N639 C638 1.261 . S
C640 H610 0.931 . S
C640 C637 1.357 . S
C640 C641 1.312 . S
C641 H612 0.930 . S
C641 C636 1.261 . S
C641 C640 1.312 . S
C642 O614 1.214 . S
C642 O622 1.234 . S
C643 H615 0.929 . S
C643 C646 1.391 . S
C643 C648 1.391 . S
C644 H616 0.929 . S
C644 C645 1.390 . S
C644 N647 1.391 . S
C645 H617 0.930 . S
C645 C644 1.390 . S
C645 C646 1.392 . S
C646 H618 0.929 . S
C646 C643 1.391 . S
C646 C645 1.392 . S
N647 Co591 2.257 . S
N647 C644 1.391 . S
N647 C648 1.388 . S
C648 H619 0.930 . S
C648 C643 1.391 . S
C648 N647 1.388 . S
Co649 O651 2.143 . S
Co649 O657 2.074 . S
Co649 O660 2.093 . S
Co649 O673 2.097 . S
Co649 N690 2.151 . S
Co649 N698 2.214 . S
Co650 O651 2.160 . S
Co650 O656 2.058 . S
Co650 O666 2.057 . S
Co650 O681 2.037 . S
Co650 N685 2.145 . S
Co650 N706 2.257 . S
O651 Co649 2.143 . S
O651 Co650 2.160 . S
C652 O653 1.278 . S
C652 O660 1.224 . S
O653 C652 1.278 . S
C654 O655 1.245 . S
C654 O666 1.232 . S
O655 C654 1.245 . S
O656 Co650 2.058 . S
O656 C682 1.269 . S
O657 Co649 2.074 . S
O657 C682 1.257 . S
H658 C683 0.930 . S
H659 C689 0.930 . S
O660 Co649 2.093 . S
O660 C652 1.224 . S
H661 C693 0.926 1_455 S
H662 C695 0.930 . S
H663 C696 0.930 . S
H664 C694 0.929 . S
H665 C697 0.928 . S
O666 Co650 2.057 . S
O666 C654 1.232 . S
H667 C686 0.929 . S
H668 C687 0.929 . S
H669 C699 0.931 . S
H670 C691 0.908 1_455 S
H671 C700 0.930 . S
H672 C692 0.931 . S
O673 Co649 2.097 . S
O673 C701 1.214 . S
H674 C702 0.929 . S
H675 C703 0.929 . S
H676 C704 0.930 . S
H677 C705 0.929 . S
H678 C707 0.930 . S
H679 C684 0.930 . S
H680 C688 0.930 . S
O681 Co650 2.037 . S
O681 C701 1.234 . S
C682 O656 1.269 . S
C682 O657 1.257 . S
C683 H658 0.930 . S
C683 C686 1.388 . S
C683 C688 1.418 . S
C684 H679 0.930 . S
C684 C687 1.404 . S
C684 C688 1.353 . S
N685 Co650 2.145 . S
N685 C686 1.397 . S
N685 C687 1.334 . S
C686 H667 0.929 . S
C686 C683 1.388 . S
C686 N685 1.397 . S
C687 H668 0.929 . S
C687 C684 1.404 . S
C687 N685 1.334 . S
C688 H680 0.930 . S
C688 C683 1.418 . S
C688 C684 1.353 . S
C689 H659 0.930 . S
C689 N690 1.330 . S
C689 C691 1.479 . S
N690 Co649 2.151 . S
N690 C689 1.330 . S
N690 C694 1.418 . S
C691 H670 0.908 1_655 S
C691 C689 1.479 . S
C691 C692 1.322 1_655 S
C692 H672 0.931 . S
C692 C691 1.322 1_455 S
C692 C693 1.267 1_455 S
C693 H661 0.926 1_655 S
C693 C692 1.267 1_655 S
C693 C694 1.251 . S
C694 H664 0.929 . S
C694 N690 1.418 . S
C694 C693 1.251 . S
C695 H662 0.930 . S
C695 C697 1.406 . S
C695 C700 1.261 . S
C696 H663 0.930 . S
C696 N698 1.325 . S
C696 C699 1.357 . S
C697 H665 0.928 . S
C697 C695 1.406 . S
C697 N698 1.261 . S
N698 Co649 2.214 . S
N698 C696 1.325 . S
N698 C697 1.261 . S
C699 H669 0.931 . S
C699 C696 1.357 . S
C699 C700 1.312 . S
C700 H671 0.930 . S
C700 C695 1.261 . S
C700 C699 1.312 . S
C701 O673 1.214 . S
C701 O681 1.234 . S
C702 H674 0.929 . S
C702 C705 1.391 . S
C702 C707 1.391 . S
C703 H675 0.929 . S
C703 C704 1.390 . S
C703 N706 1.391 . S
C704 H676 0.930 . S
C704 C703 1.390 . S
C704 C705 1.392 . S
C705 H677 0.929 . S
C705 C702 1.391 . S
C705 C704 1.392 . S
N706 Co650 2.257 . S
N706 C703 1.391 . S
N706 C707 1.388 . S
C707 H678 0.930 . S
C707 C702 1.391 . S
C707 N706 1.388 . S
Co708 O710 2.143 . S
Co708 O716 2.074 . S
Co708 O719 2.093 . S
Co708 O732 2.097 . S
Co708 N749 2.151 . S
Co708 N757 2.214 . S
Co709 O710 2.160 . S
Co709 O715 2.058 . S
Co709 O725 2.057 . S
Co709 O740 2.037 . S
Co709 N744 2.145 . S
Co709 N765 2.257 . S
O710 Co708 2.143 . S
O710 Co709 2.160 . S
C711 O712 1.278 . S
C711 O719 1.224 . S
O712 C711 1.278 . S
C713 O714 1.245 . S
C713 O725 1.232 . S
O714 C713 1.245 . S
O715 Co709 2.058 . S
O715 C741 1.269 . S
O716 Co708 2.074 . S
O716 C741 1.257 . S
H717 C742 0.930 . S
H718 C748 0.930 . S
O719 Co708 2.093 . S
O719 C711 1.224 . S
H720 C752 0.929 . S
H721 C754 0.930 . S
H722 C755 0.930 . S
H723 C753 0.929 . S
H724 C756 0.928 . S
O725 Co709 2.057 . S
O725 C713 1.232 . S
H726 C745 0.929 . S
H727 C746 0.929 . S
H728 C758 0.931 . S
H729 C750 0.929 . S
H730 C759 0.930 . S
H731 C751 0.931 . S
O732 Co708 2.097 . S
O732 C760 1.214 . S
H733 C761 0.929 . S
H734 C762 0.929 . S
H735 C763 0.930 . S
H736 C764 0.929 . S
H737 C766 0.930 . S
H738 C743 0.930 . S
H739 C747 0.930 . S
O740 Co709 2.037 . S
O740 C760 1.234 . S
C741 O715 1.269 . S
C741 O716 1.257 . S
C742 H717 0.930 . S
C742 C745 1.388 . S
C742 C747 1.418 . S
C743 H738 0.930 . S
C743 C746 1.404 . S
C743 C747 1.353 . S
N744 Co709 2.145 . S
N744 C745 1.397 . S
N744 C746 1.334 . S
C745 H726 0.929 . S
C745 C742 1.388 . S
C745 N744 1.397 . S
C746 H727 0.929 . S
C746 C743 1.404 . S
C746 N744 1.334 . S
C747 H739 0.930 . S
C747 C742 1.418 . S
C747 C743 1.353 . S
C748 H718 0.930 . S
C748 N749 1.330 . S
C748 C750 1.446 . S
N749 Co708 2.151 . S
N749 C748 1.330 . S
N749 C753 1.418 . S
C750 H729 0.929 . S
C750 C748 1.446 . S
C750 C751 1.332 . S
C751 H731 0.931 . S
C751 C750 1.332 . S
C751 C752 1.267 . S
C752 H720 0.929 . S
C752 C751 1.267 . S
C752 C753 1.251 . S
C753 H723 0.929 . S
C753 N749 1.418 . S
C753 C752 1.251 . S
C754 H721 0.930 . S
C754 C756 1.406 . S
C754 C759 1.261 . S
C755 H722 0.930 . S
C755 N757 1.325 . S
C755 C758 1.357 . S
C756 H724 0.928 . S
C756 C754 1.406 . S
C756 N757 1.261 . S
N757 Co708 2.214 . S
N757 C755 1.325 . S
N757 C756 1.261 . S
C758 H728 0.931 . S
C758 C755 1.357 . S
C758 C759 1.312 . S
C759 H730 0.930 . S
C759 C754 1.261 . S
C759 C758 1.312 . S
C760 O732 1.214 . S
C760 O740 1.234 . S
C761 H733 0.929 . S
C761 C764 1.391 . S
C761 C766 1.391 . S
C762 H734 0.929 . S
C762 C763 1.390 . S
C762 N765 1.391 . S
C763 H735 0.930 . S
C763 C762 1.390 . S
C763 C764 1.392 . S
C764 H736 0.929 . S
C764 C761 1.391 . S
C764 C763 1.392 . S
N765 Co709 2.257 . S
N765 C762 1.391 . S
N765 C766 1.388 . S
C766 H737 0.930 . S
C766 C761 1.391 . S
C766 N765 1.388 . S
Co767 O769 2.143 . S
Co767 O775 2.074 . S
Co767 O778 2.093 . S
Co767 O791 2.097 . S
Co767 N808 2.151 . S
Co767 N816 2.214 . S
Co768 O769 2.160 . S
Co768 O774 2.058 . S
Co768 O784 2.057 . S
Co768 O799 2.037 . S
Co768 N803 2.145 . S
Co768 N824 2.257 . S
O769 Co767 2.143 . S
O769 Co768 2.160 . S
C770 O771 1.278 . S
C770 O778 1.224 . S
O771 C770 1.278 . S
C772 O773 1.245 . S
C772 O784 1.232 . S
O773 C772 1.245 . S
O774 Co768 2.058 . S
O774 C800 1.269 . S
O775 Co767 2.074 . S
O775 C800 1.257 . S
H776 C801 0.930 . S
H777 C807 0.930 . S
O778 Co767 2.093 . S
O778 C770 1.224 . S
H779 C811 0.926 1_455 S
H780 C813 0.930 . S
H781 C814 0.930 . S
H782 C812 0.929 . S
H783 C815 0.928 . S
O784 Co768 2.057 . S
O784 C772 1.232 . S
H785 C804 0.929 . S
H786 C805 0.929 . S
H787 C817 0.931 . S
H788 C809 0.908 1_455 S
H789 C818 0.930 . S
H790 C810 0.931 . S
O791 Co767 2.097 . S
O791 C819 1.214 . S
H792 C820 0.929 . S
H793 C821 0.929 . S
H794 C822 0.930 . S
H795 C823 0.929 . S
H796 C825 0.930 . S
H797 C802 0.930 . S
H798 C806 0.930 . S
O799 Co768 2.037 . S
O799 C819 1.234 . S
C800 O774 1.269 . S
C800 O775 1.257 . S
C801 H776 0.930 . S
C801 C804 1.388 . S
C801 C806 1.418 . S
C802 H797 0.930 . S
C802 C805 1.404 . S
C802 C806 1.353 . S
N803 Co768 2.145 . S
N803 C804 1.397 . S
N803 C805 1.334 . S
C804 H785 0.929 . S
C804 C801 1.388 . S
C804 N803 1.397 . S
C805 H786 0.929 . S
C805 C802 1.404 . S
C805 N803 1.334 . S
C806 H798 0.930 . S
C806 C801 1.418 . S
C806 C802 1.353 . S
C807 H777 0.930 . S
C807 N808 1.330 . S
C807 C809 1.479 . S
N808 Co767 2.151 . S
N808 C807 1.330 . S
N808 C812 1.418 . S
C809 H788 0.908 1_655 S
C809 C807 1.479 . S
C809 C810 1.322 1_655 S
C810 H790 0.931 . S
C810 C809 1.322 1_455 S
C810 C811 1.267 1_455 S
C811 H779 0.926 1_655 S
C811 C810 1.267 1_655 S
C811 C812 1.251 . S
C812 H782 0.929 . S
C812 N808 1.418 . S
C812 C811 1.251 . S
C813 H780 0.930 . S
C813 C815 1.406 . S
C813 C818 1.261 . S
C814 H781 0.930 . S
C814 N816 1.325 . S
C814 C817 1.357 . S
C815 H783 0.928 . S
C815 C813 1.406 . S
C815 N816 1.261 . S
N816 Co767 2.214 . S
N816 C814 1.325 . S
N816 C815 1.261 . S
C817 H787 0.931 . S
C817 C814 1.357 . S
C817 C818 1.312 . S
C818 H789 0.930 . S
C818 C813 1.261 . S
C818 C817 1.312 . S
C819 O791 1.214 . S
C819 O799 1.234 . S
C820 H792 0.929 . S
C820 C823 1.391 . S
C820 C825 1.391 . S
C821 H793 0.929 . S
C821 C822 1.390 . S
C821 N824 1.391 . S
C822 H794 0.930 . S
C822 C821 1.390 . S
C822 C823 1.392 . S
C823 H795 0.929 . S
C823 C820 1.391 . S
C823 C822 1.392 . S
N824 Co768 2.257 . S
N824 C821 1.391 . S
N824 C825 1.388 . S
C825 H796 0.930 . S
C825 C820 1.391 . S
C825 N824 1.388 . S
Co826 O828 2.143 . S
Co826 O834 2.074 . S
Co826 O837 2.093 . S
Co826 O850 2.097 . S
Co826 N867 2.151 . S
Co826 N875 2.214 . S
Co827 O828 2.160 . S
Co827 O833 2.058 . S
Co827 O843 2.057 . S
Co827 O858 2.037 . S
Co827 N862 2.145 . S
Co827 N883 2.257 . S
O828 Co826 2.143 . S
O828 Co827 2.160 . S
C829 O830 1.278 . S
C829 O837 1.224 . S
O830 C829 1.278 . S
C831 O832 1.245 . S
C831 O843 1.232 . S
O832 C831 1.245 . S
O833 Co827 2.058 . S
O833 C859 1.269 . S
O834 Co826 2.074 . S
O834 C859 1.257 . S
H835 C860 0.930 . S
H836 C866 0.930 . S
O837 Co826 2.093 . S
O837 C829 1.224 . S
H838 C870 0.926 1_545 S
H839 C872 0.930 . S
H840 C873 0.930 . S
H841 C871 0.929 . S
H842 C874 0.928 . S
O843 Co827 2.057 . S
O843 C831 1.232 . S
H844 C863 0.929 . S
H845 C864 0.929 . S
H846 C876 0.931 . S
H847 C868 0.908 1_545 S
H848 C877 0.930 . S
H849 C869 0.931 . S
O850 Co826 2.097 . S
O850 C878 1.214 . S
H851 C879 0.929 . S
H852 C880 0.929 . S
H853 C881 0.930 . S
H854 C882 0.929 . S
H855 C884 0.930 . S
H856 C861 0.930 . S
H857 C865 0.930 . S
O858 Co827 2.037 . S
O858 C878 1.234 . S
C859 O833 1.269 . S
C859 O834 1.257 . S
C860 H835 0.930 . S
C860 C863 1.388 . S
C860 C865 1.418 . S
C861 H856 0.930 . S
C861 C864 1.404 . S
C861 C865 1.353 . S
N862 Co827 2.145 . S
N862 C863 1.397 . S
N862 C864 1.334 . S
C863 H844 0.929 . S
C863 C860 1.388 . S
C863 N862 1.397 . S
C864 H845 0.929 . S
C864 C861 1.404 . S
C864 N862 1.334 . S
C865 H857 0.930 . S
C865 C860 1.418 . S
C865 C861 1.353 . S
C866 H836 0.930 . S
C866 N867 1.330 . S
C866 C868 1.479 . S
N867 Co826 2.151 . S
N867 C866 1.330 . S
N867 C871 1.418 . S
C868 H847 0.908 1_565 S
C868 C866 1.479 . S
C868 C869 1.322 1_565 S
C869 H849 0.931 . S
C869 C868 1.322 1_545 S
C869 C870 1.267 1_545 S
C870 H838 0.926 1_565 S
C870 C869 1.267 1_565 S
C870 C871 1.251 . S
C871 H841 0.929 . S
C871 N867 1.418 . S
C871 C870 1.251 . S
C872 H839 0.930 . S
C872 C874 1.406 . S
C872 C877 1.261 . S
C873 H840 0.930 . S
C873 N875 1.325 . S
C873 C876 1.357 . S
C874 H842 0.928 . S
C874 C872 1.406 . S
C874 N875 1.261 . S
N875 Co826 2.214 . S
N875 C873 1.325 . S
N875 C874 1.261 . S
C876 H846 0.931 . S
C876 C873 1.357 . S
C876 C877 1.312 . S
C877 H848 0.930 . S
C877 C872 1.261 . S
C877 C876 1.312 . S
C878 O850 1.214 . S
C878 O858 1.234 . S
C879 H851 0.929 . S
C879 C882 1.391 . S
C879 C884 1.391 . S
C880 H852 0.929 . S
C880 C881 1.390 . S
C880 N883 1.391 . S
C881 H853 0.930 . S
C881 C880 1.390 . S
C881 C882 1.392 . S
C882 H854 0.929 . S
C882 C879 1.391 . S
C882 C881 1.392 . S
N883 Co827 2.257 . S
N883 C880 1.391 . S
N883 C884 1.388 . S
C884 H855 0.930 . S
C884 C879 1.391 . S
C884 N883 1.388 . S
Co885 O887 2.143 . S
Co885 O893 2.074 . S
Co885 O896 2.093 . S
Co885 O909 2.097 . S
Co885 N926 2.151 . S
Co885 N934 2.214 . S
Co886 O887 2.160 . S
Co886 O892 2.058 . S
Co886 O902 2.057 . S
Co886 O917 2.037 . S
Co886 N921 2.145 . S
Co886 N942 2.257 . S
O887 Co885 2.143 . S
O887 Co886 2.160 . S
C888 O889 1.278 . S
C888 O896 1.224 . S
O889 C888 1.278 . S
C890 O891 1.245 . S
C890 O902 1.232 . S
O891 C890 1.245 . S
O892 Co886 2.058 . S
O892 C918 1.269 . S
O893 Co885 2.074 . S
O893 C918 1.257 . S
H894 C919 0.930 . S
H895 C925 0.930 . S
O896 Co885 2.093 . S
O896 C888 1.224 . S
H897 C929 0.929 . S
H898 C931 0.930 . S
H899 C932 0.930 . S
H900 C930 0.929 . S
H901 C933 0.928 . S
O902 Co886 2.057 . S
O902 C890 1.232 . S
H903 C922 0.929 . S
H904 C923 0.929 . S
H905 C935 0.931 . S
H906 C927 0.929 . S
H907 C936 0.930 . S
H908 C928 0.931 . S
O909 Co885 2.097 . S
O909 C937 1.214 . S
H910 C938 0.929 . S
H911 C939 0.929 . S
H912 C940 0.930 . S
H913 C941 0.929 . S
H914 C943 0.930 . S
H915 C920 0.930 . S
H916 C924 0.930 . S
O917 Co886 2.037 . S
O917 C937 1.234 . S
C918 O892 1.269 . S
C918 O893 1.257 . S
C919 H894 0.930 . S
C919 C922 1.388 . S
C919 C924 1.418 . S
C920 H915 0.930 . S
C920 C923 1.404 . S
C920 C924 1.353 . S
N921 Co886 2.145 . S
N921 C922 1.397 . S
N921 C923 1.334 . S
C922 H903 0.929 . S
C922 C919 1.388 . S
C922 N921 1.397 . S
C923 H904 0.929 . S
C923 C920 1.404 . S
C923 N921 1.334 . S
C924 H916 0.930 . S
C924 C919 1.418 . S
C924 C920 1.353 . S
C925 H895 0.930 . S
C925 N926 1.330 . S
C925 C927 1.446 . S
N926 Co885 2.151 . S
N926 C925 1.330 . S
N926 C930 1.418 . S
C927 H906 0.929 . S
C927 C925 1.446 . S
C927 C928 1.332 . S
C928 H908 0.931 . S
C928 C927 1.332 . S
C928 C929 1.267 . S
C929 H897 0.929 . S
C929 C928 1.267 . S
C929 C930 1.251 . S
C930 H900 0.929 . S
C930 N926 1.418 . S
C930 C929 1.251 . S
C931 H898 0.930 . S
C931 C933 1.406 . S
C931 C936 1.261 . S
C932 H899 0.930 . S
C932 N934 1.325 . S
C932 C935 1.357 . S
C933 H901 0.928 . S
C933 C931 1.406 . S
C933 N934 1.261 . S
N934 Co885 2.214 . S
N934 C932 1.325 . S
N934 C933 1.261 . S
C935 H905 0.931 . S
C935 C932 1.357 . S
C935 C936 1.312 . S
C936 H907 0.930 . S
C936 C931 1.261 . S
C936 C935 1.312 . S
C937 O909 1.214 . S
C937 O917 1.234 . S
C938 H910 0.929 . S
C938 C941 1.391 . S
C938 C943 1.391 . S
C939 H911 0.929 . S
C939 C940 1.390 . S
C939 N942 1.391 . S
C940 H912 0.930 . S
C940 C939 1.390 . S
C940 C941 1.392 . S
C941 H913 0.929 . S
C941 C938 1.391 . S
C941 C940 1.392 . S
N942 Co886 2.257 . S
N942 C939 1.391 . S
N942 C943 1.388 . S
C943 H914 0.930 . S
C943 C938 1.391 . S
C943 N942 1.388 . S
H944 C956 0.930 . S
H945 C958 0.930 . S
H946 C959 0.930 . S
H947 C963 0.959 . S
H948 C963 0.959 . S
H949 C963 0.961 . S
H950 C964 0.960 1_556 S
H951 C964 0.961 . S
H952 C964 0.959 1_556 S
H953 C967 0.953 . S
H954 C968 0.931 . S
H955 C970 0.930 . S
C956 H944 0.930 . S
C956 C957 1.399 . S
C956 C961 1.399 . S
C957 C956 1.399 . S
C957 C958 1.376 . S
C958 H945 0.930 . S
C958 C957 1.376 . S
C958 C959 1.388 . S
C959 H946 0.930 . S
C959 C958 1.388 . S
C959 C960 1.390 . S
C960 C959 1.390 . S
C960 C961 1.394 . S
C960 C966 1.465 1_556 S
C961 C956 1.399 . S
C961 C960 1.394 . S
C961 C962 1.516 1_556 S
C962 C961 1.516 1_554 S
C962 C963 1.502 . S
C962 C964 1.561 . S
C962 C965 1.526 . S
C963 H947 0.959 . S
C963 H948 0.959 . S
C963 H949 0.961 . S
C963 C962 1.502 . S
C964 H950 0.960 1_554 S
C964 H951 0.961 . S
C964 H952 0.959 1_554 S
C964 C962 1.561 . S
C965 C962 1.526 . S
C965 C966 1.396 . S
C965 C970 1.390 . S
C966 C960 1.465 1_554 S
C966 C965 1.396 . S
C966 C967 1.399 . S
C967 H953 0.953 . S
C967 C966 1.399 . S
C967 C968 1.385 . S
C968 H954 0.931 . S
C968 C967 1.385 . S
C968 C969 1.389 . S
C969 C968 1.389 . S
C969 C970 1.387 . S
C970 H955 0.930 . S
C970 C965 1.390 . S
C970 C969 1.387 . S
H971 C983 0.930 . S
H972 C985 0.930 . S
H973 C986 0.930 . S
H974 C990 0.959 . S
H975 C990 0.959 . S
H976 C990 0.961 . S
H977 C991 0.960 . S
H978 C991 0.961 . S
H979 C991 0.959 . S
H980 C994 0.929 . S
H981 C995 0.931 . S
H982 C997 0.930 . S
C983 H971 0.930 . S
C983 C984 1.399 . S
C983 C988 1.399 . S
C984 C983 1.399 . S
C984 C985 1.376 . S
C985 H972 0.930 . S
C985 C984 1.376 . S
C985 C986 1.388 . S
C986 H973 0.930 . S
C986 C985 1.388 . S
C986 C987 1.390 . S
C987 C986 1.390 . S
C987 C988 1.394 . S
C987 C993 1.465 . S
C988 C983 1.399 . S
C988 C987 1.394 . S
C988 C989 1.516 . S
C989 C988 1.516 . S
C989 C990 1.502 . S
C989 C991 1.561 . S
C989 C992 1.526 . S
C990 H974 0.959 . S
C990 H975 0.959 . S
C990 H976 0.961 . S
C990 C989 1.502 . S
C991 H977 0.960 . S
C991 H978 0.961 . S
C991 H979 0.959 . S
C991 C989 1.561 . S
C992 C989 1.526 . S
C992 C993 1.396 . S
C992 C997 1.390 . S
C993 C987 1.465 . S
C993 C992 1.396 . S
C993 C994 1.399 . S
C994 H980 0.929 . S
C994 C993 1.399 . S
C994 C995 1.385 . S
C995 H981 0.931 . S
C995 C994 1.385 . S
C995 C996 1.389 . S
C996 C995 1.389 . S
C996 C997 1.387 . S
C997 H982 0.930 . S
C997 C992 1.390 . S
C997 C996 1.387 . S
H998 C1010 0.930 . S
H999 C1012 0.930 . S
H1000 C1013 0.930 1_554 S
H1001 C1017 0.959 . S
H1002 C1017 0.959 . S
H1003 C1017 0.961 . S
H1004 C1018 0.960 . S
H1005 C1018 0.961 . S
H1006 C1018 0.959 . S
H1007 C1021 0.929 . S
H1008 C1022 0.931 . S
H1009 C1024 0.930 . S
C1010 H998 0.930 . S
C1010 C1011 1.399 . S
C1010 C1015 1.399 . S
C1011 C1010 1.399 . S
C1011 C1012 1.376 . S
C1012 H999 0.930 . S
C1012 C1011 1.376 . S
C1012 C1013 1.388 . S
C1013 H1000 0.930 1_556 S
C1013 C1012 1.388 . S
C1013 C1014 1.390 . S
C1014 C1013 1.390 . S
C1014 C1015 1.394 . S
C1014 C1020 1.465 1_556 S
C1015 C1010 1.399 . S
C1015 C1014 1.394 . S
C1015 C1016 1.516 . S
C1016 C1015 1.516 . S
C1016 C1017 1.502 . S
C1016 C1018 1.561 . S
C1016 C1019 1.526 1_556 S
C1017 H1001 0.959 . S
C1017 H1002 0.959 . S
C1017 H1003 0.961 . S
C1017 C1016 1.502 . S
C1018 H1004 0.960 . S
C1018 H1005 0.961 . S
C1018 H1006 0.959 . S
C1018 C1016 1.561 . S
C1019 C1016 1.526 1_554 S
C1019 C1020 1.396 . S
C1019 C1024 1.390 . S
C1020 C1014 1.465 1_554 S
C1020 C1019 1.396 . S
C1020 C1021 1.399 . S
C1021 H1007 0.929 . S
C1021 C1020 1.399 . S
C1021 C1022 1.385 . S
C1022 H1008 0.931 . S
C1022 C1021 1.385 . S
C1022 C1023 1.389 . S
C1023 C1022 1.389 . S
C1023 C1024 1.387 . S
C1024 H1009 0.930 . S
C1024 C1019 1.390 . S
C1024 C1023 1.387 . S
H1025 C1037 0.930 . S
H1026 C1039 0.930 . S
H1027 C1040 0.930 . S
H1028 C1044 0.959 . S
H1029 C1044 0.959 . S
H1030 C1044 0.961 . S
H1031 C1045 0.960 . S
H1032 C1045 0.961 . S
H1033 C1045 0.959 . S
H1034 C1048 0.929 . S
H1035 C1049 0.931 . S
H1036 C1051 0.930 . S
C1037 H1025 0.930 . S
C1037 C1038 1.399 . S
C1037 C1042 1.399 . S
C1038 C1037 1.399 . S
C1038 C1039 1.376 . S
C1039 H1026 0.930 . S
C1039 C1038 1.376 . S
C1039 C1040 1.388 . S
C1040 H1027 0.930 . S
C1040 C1039 1.388 . S
C1040 C1041 1.390 . S
C1041 C1040 1.390 . S
C1041 C1042 1.394 . S
C1041 C1047 1.465 . S
C1042 C1037 1.399 . S
C1042 C1041 1.394 . S
C1042 C1043 1.516 . S
C1043 C1042 1.516 . S
C1043 C1044 1.502 . S
C1043 C1045 1.561 . S
C1043 C1046 1.526 . S
C1044 H1028 0.959 . S
C1044 H1029 0.959 . S
C1044 H1030 0.961 . S
C1044 C1043 1.502 . S
C1045 H1031 0.960 . S
C1045 H1032 0.961 . S
C1045 H1033 0.959 . S
C1045 C1043 1.561 . S
C1046 C1043 1.526 . S
C1046 C1047 1.396 . S
C1046 C1051 1.390 . S
C1047 C1041 1.465 . S
C1047 C1046 1.396 . S
C1047 C1048 1.399 . S
C1048 H1034 0.929 . S
C1048 C1047 1.399 . S
C1048 C1049 1.385 . S
C1049 H1035 0.931 . S
C1049 C1048 1.385 . S
C1049 C1050 1.389 . S
C1050 C1049 1.389 . S
C1050 C1051 1.387 . S
C1051 H1036 0.930 . S
C1051 C1046 1.390 . S
C1051 C1050 1.387 . S
H1052 C1064 0.930 . S
H1053 C1066 0.930 . S
H1054 C1067 0.930 . S
H1055 C1071 0.959 . S
H1056 C1071 0.959 . S
H1057 C1071 0.961 . S
H1058 C1072 0.960 . S
H1059 C1072 0.961 . S
H1060 C1072 0.959 . S
H1061 C1075 0.929 . S
H1062 C1076 0.931 . S
H1063 C1078 0.930 . S
C1064 H1052 0.930 . S
C1064 C1065 1.399 . S
C1064 C1069 1.399 . S
C1065 C1064 1.399 . S
C1065 C1066 1.376 . S
C1066 H1053 0.930 . S
C1066 C1065 1.376 . S
C1066 C1067 1.388 . S
C1067 H1054 0.930 . S
C1067 C1066 1.388 . S
C1067 C1068 1.390 . S
C1068 C1067 1.390 . S
C1068 C1069 1.394 . S
C1068 C1074 1.465 1_554 S
C1069 C1064 1.399 . S
C1069 C1068 1.394 . S
C1069 C1070 1.516 1_554 S
C1070 C1069 1.516 1_556 S
C1070 C1071 1.502 . S
C1070 C1072 1.561 . S
C1070 C1073 1.526 . S
C1071 H1055 0.959 . S
C1071 H1056 0.959 . S
C1071 H1057 0.961 . S
C1071 C1070 1.502 . S
C1072 H1058 0.960 . S
C1072 H1059 0.961 . S
C1072 H1060 0.959 . S
C1072 C1070 1.561 . S
C1073 C1070 1.526 . S
C1073 C1074 1.396 . S
C1073 C1078 1.390 . S
C1074 C1068 1.465 1_556 S
C1074 C1073 1.396 . S
C1074 C1075 1.399 . S
C1075 H1061 0.929 . S
C1075 C1074 1.399 . S
C1075 C1076 1.385 . S
C1076 H1062 0.931 . S
C1076 C1075 1.385 . S
C1076 C1077 1.389 . S
C1077 C1076 1.389 . S
C1077 C1078 1.387 . S
C1078 H1063 0.930 . S
C1078 C1073 1.390 . S
C1078 C1077 1.387 . S
H1079 C1091 0.930 . S
H1080 C1093 0.930 . S
H1081 C1094 0.930 . S
H1082 C1098 0.959 . S
H1083 C1098 0.959 . S
H1084 C1098 0.961 . S
H1085 C1099 0.960 . S
H1086 C1099 0.961 . S
H1087 C1099 0.959 . S
H1088 C1102 0.929 . S
H1089 C1103 0.931 . S
H1090 C1105 0.930 . S
C1091 H1079 0.930 . S
C1091 C1092 1.399 . S
C1091 C1096 1.399 . S
C1092 C1091 1.399 . S
C1092 C1093 1.376 . S
C1093 H1080 0.930 . S
C1093 C1092 1.376 . S
C1093 C1094 1.388 . S
C1094 H1081 0.930 . S
C1094 C1093 1.388 . S
C1094 C1095 1.390 . S
C1095 C1094 1.390 . S
C1095 C1096 1.394 . S
C1095 C1101 1.465 . S
C1096 C1091 1.399 . S
C1096 C1095 1.394 . S
C1096 C1097 1.516 . S
C1097 C1096 1.516 . S
C1097 C1098 1.502 . S
C1097 C1099 1.561 . S
C1097 C1100 1.526 . S
C1098 H1082 0.959 . S
C1098 H1083 0.959 . S
C1098 H1084 0.961 . S
C1098 C1097 1.502 . S
C1099 H1085 0.960 . S
C1099 H1086 0.961 . S
C1099 H1087 0.959 . S
C1099 C1097 1.561 . S
C1100 C1097 1.526 . S
C1100 C1101 1.396 . S
C1100 C1105 1.390 . S
C1101 C1095 1.465 . S
C1101 C1100 1.396 . S
C1101 C1102 1.399 . S
C1102 H1088 0.929 . S
C1102 C1101 1.399 . S
C1102 C1103 1.385 . S
C1103 H1089 0.931 . S
C1103 C1102 1.385 . S
C1103 C1104 1.389 . S
C1104 C1103 1.389 . S
C1104 C1105 1.387 . S
C1105 H1090 0.930 . S
C1105 C1100 1.390 . S
C1105 C1104 1.387 . S
H1106 C1118 0.930 . S
H1107 C1120 0.930 . S
H1108 C1121 0.930 1_554 S
H1109 C1125 0.959 . S
H1110 C1125 0.959 . S
H1111 C1125 0.961 . S
H1112 C1126 0.960 . S
H1113 C1126 0.961 . S
H1114 C1126 0.959 . S
H1115 C1129 0.929 . S
H1116 C1130 0.931 . S
H1117 C1132 0.930 . S
C1118 H1106 0.930 . S
C1118 C1119 1.399 . S
C1118 C1123 1.399 . S
C1119 C1118 1.399 . S
C1119 C1120 1.376 . S
C1120 H1107 0.930 . S
C1120 C1119 1.376 . S
C1120 C1121 1.388 . S
C1121 H1108 0.930 1_556 S
C1121 C1120 1.388 . S
C1121 C1122 1.390 . S
C1122 C1121 1.390 . S
C1122 C1123 1.394 . S
C1122 C1128 1.465 1_556 S
C1123 C1118 1.399 . S
C1123 C1122 1.394 . S
C1123 C1124 1.516 . S
C1124 C1123 1.516 . S
C1124 C1125 1.502 . S
C1124 C1126 1.561 . S
C1124 C1127 1.526 1_556 S
C1125 H1109 0.959 . S
C1125 H1110 0.959 . S
C1125 H1111 0.961 . S
C1125 C1124 1.502 . S
C1126 H1112 0.960 . S
C1126 H1113 0.961 . S
C1126 H1114 0.959 . S
C1126 C1124 1.561 . S
C1127 C1124 1.526 1_554 S
C1127 C1128 1.396 . S
C1127 C1132 1.390 . S
C1128 C1122 1.465 1_554 S
C1128 C1127 1.396 . S
C1128 C1129 1.399 . S
C1129 H1115 0.929 . S
C1129 C1128 1.399 . S
C1129 C1130 1.385 . S
C1130 H1116 0.931 . S
C1130 C1129 1.385 . S
C1130 C1131 1.389 . S
C1131 C1130 1.389 . S
C1131 C1132 1.387 . S
C1132 H1117 0.930 . S
C1132 C1127 1.390 . S
C1132 C1131 1.387 . S
H1133 C1145 0.930 . S
H1134 C1147 0.930 . S
H1135 C1148 0.930 . S
H1136 C1152 0.959 . S
H1137 C1152 0.959 . S
H1138 C1152 0.961 . S
H1139 C1153 0.960 . S
H1140 C1153 0.961 . S
H1141 C1153 0.959 . S
H1142 C1156 0.929 . S
H1143 C1157 0.931 . S
H1144 C1159 0.930 . S
C1145 H1133 0.930 . S
C1145 C1146 1.399 . S
C1145 C1150 1.399 . S
C1146 C1145 1.399 . S
C1146 C1147 1.376 . S
C1147 H1134 0.930 . S
C1147 C1146 1.376 . S
C1147 C1148 1.388 . S
C1148 H1135 0.930 . S
C1148 C1147 1.388 . S
C1148 C1149 1.390 . S
C1149 C1148 1.390 . S
C1149 C1150 1.394 . S
C1149 C1155 1.465 . S
C1150 C1145 1.399 . S
C1150 C1149 1.394 . S
C1150 C1151 1.516 . S
C1151 C1150 1.516 . S
C1151 C1152 1.502 . S
C1151 C1153 1.561 . S
C1151 C1154 1.526 . S
C1152 H1136 0.959 . S
C1152 H1137 0.959 . S
C1152 H1138 0.961 . S
C1152 C1151 1.502 . S
C1153 H1139 0.960 . S
C1153 H1140 0.961 . S
C1153 H1141 0.959 . S
C1153 C1151 1.561 . S
C1154 C1151 1.526 . S
C1154 C1155 1.396 . S
C1154 C1159 1.390 . S
C1155 C1149 1.465 . S
C1155 C1154 1.396 . S
C1155 C1156 1.399 . S
C1156 H1142 0.929 . S
C1156 C1155 1.399 . S
C1156 C1157 1.385 . S
C1157 H1143 0.931 . S
C1157 C1156 1.385 . S
C1157 C1158 1.389 . S
C1158 C1157 1.389 . S
C1158 C1159 1.387 . S
C1159 H1144 0.930 . S
C1159 C1154 1.390 . S
C1159 C1158 1.387 . S
H1160 C1172 0.930 . S
H1161 C1174 0.930 . S
H1162 C1175 0.930 . S
H1163 C1179 0.959 . S
H1164 C1179 0.959 . S
H1165 C1179 0.961 . S
H1166 C1180 0.960 . S
H1167 C1180 0.961 . S
H1168 C1180 0.959 . S
H1169 C1183 0.929 . S
H1170 C1184 0.931 . S
H1171 C1186 0.930 . S
C1172 H1160 0.930 . S
C1172 C1173 1.399 . S
C1172 C1177 1.399 . S
C1173 C1172 1.399 . S
C1173 C1174 1.376 . S
C1174 H1161 0.930 . S
C1174 C1173 1.376 . S
C1174 C1175 1.388 . S
C1175 H1162 0.930 . S
C1175 C1174 1.388 . S
C1175 C1176 1.390 . S
C1176 C1175 1.390 . S
C1176 C1177 1.394 . S
C1176 C1182 1.465 . S
C1177 C1172 1.399 . S
C1177 C1176 1.394 . S
C1177 C1178 1.516 . S
C1178 C1177 1.516 . S
C1178 C1179 1.502 . S
C1178 C1180 1.561 . S
C1178 C1181 1.526 . S
C1179 H1163 0.959 . S
C1179 H1164 0.959 . S
C1179 H1165 0.961 . S
C1179 C1178 1.502 . S
C1180 H1166 0.960 . S
C1180 H1167 0.961 . S
C1180 H1168 0.959 . S
C1180 C1178 1.561 . S
C1181 C1178 1.526 . S
C1181 C1182 1.396 . S
C1181 C1186 1.390 . S
C1182 C1176 1.465 . S
C1182 C1181 1.396 . S
C1182 C1183 1.399 . S
C1183 H1169 0.929 . S
C1183 C1182 1.399 . S
C1183 C1184 1.385 . S
C1184 H1170 0.931 . S
C1184 C1183 1.385 . S
C1184 C1185 1.389 . S
C1185 C1184 1.389 . S
C1185 C1186 1.387 . S
C1186 H1171 0.930 . S
C1186 C1181 1.390 . S
C1186 C1185 1.387 . S
H1187 C1199 0.930 . S
H1188 C1201 0.930 . S
H1189 C1202 0.930 . S
H1190 C1206 0.959 . S
H1191 C1206 0.959 . S
H1192 C1206 0.961 . S
H1193 C1207 0.960 . S
H1194 C1207 0.961 . S
H1195 C1207 0.959 . S
H1196 C1210 0.929 . S
H1197 C1211 0.931 . S
H1198 C1213 0.930 . S
C1199 H1187 0.930 . S
C1199 C1200 1.399 . S
C1199 C1204 1.399 . S
C1200 C1199 1.399 . S
C1200 C1201 1.376 . S
C1201 H1188 0.930 . S
C1201 C1200 1.376 . S
C1201 C1202 1.388 . S
C1202 H1189 0.930 . S
C1202 C1201 1.388 . S
C1202 C1203 1.390 . S
C1203 C1202 1.390 . S
C1203 C1204 1.394 . S
C1203 C1209 1.465 . S
C1204 C1199 1.399 . S
C1204 C1203 1.394 . S
C1204 C1205 1.516 . S
C1205 C1204 1.516 . S
C1205 C1206 1.502 . S
C1205 C1207 1.561 . S
C1205 C1208 1.526 . S
C1206 H1190 0.959 . S
C1206 H1191 0.959 . S
C1206 H1192 0.961 . S
C1206 C1205 1.502 . S
C1207 H1193 0.960 . S
C1207 H1194 0.961 . S
C1207 H1195 0.959 . S
C1207 C1205 1.561 . S
C1208 C1205 1.526 . S
C1208 C1209 1.396 . S
C1208 C1213 1.390 . S
C1209 C1203 1.465 . S
C1209 C1208 1.396 . S
C1209 C1210 1.399 . S
C1210 H1196 0.929 . S
C1210 C1209 1.399 . S
C1210 C1211 1.385 . S
C1211 H1197 0.931 . S
C1211 C1210 1.385 . S
C1211 C1212 1.389 . S
C1212 C1211 1.389 . S
C1212 C1213 1.387 . S
C1213 H1198 0.930 . S
C1213 C1208 1.390 . S
C1213 C1212 1.387 . S
H1214 C1226 0.930 . S
H1215 C1228 0.930 . S
H1216 C1229 0.930 . S
H1217 C1233 0.959 . S
H1218 C1233 0.959 . S
H1219 C1233 0.961 . S
H1220 C1234 0.960 . S
H1221 C1234 0.961 . S
H1222 C1234 0.959 . S
H1223 C1237 0.929 . S
H1224 C1238 0.931 . S
H1225 C1240 0.930 . S
C1226 H1214 0.930 . S
C1226 C1227 1.399 . S
C1226 C1231 1.399 . S
C1227 C1226 1.399 . S
C1227 C1228 1.376 . S
C1228 H1215 0.930 . S
C1228 C1227 1.376 . S
C1228 C1229 1.388 . S
C1229 H1216 0.930 . S
C1229 C1228 1.388 . S
C1229 C1230 1.390 . S
C1230 C1229 1.390 . S
C1230 C1231 1.394 . S
C1230 C1236 1.465 . S
C1231 C1226 1.399 . S
C1231 C1230 1.394 . S
C1231 C1232 1.516 . S
C1232 C1231 1.516 . S
C1232 C1233 1.502 . S
C1232 C1234 1.561 . S
C1232 C1235 1.526 . S
C1233 H1217 0.959 . S
C1233 H1218 0.959 . S
C1233 H1219 0.961 . S
C1233 C1232 1.502 . S
C1234 H1220 0.960 . S
C1234 H1221 0.961 . S
C1234 H1222 0.959 . S
C1234 C1232 1.561 . S
C1235 C1232 1.526 . S
C1235 C1236 1.396 . S
C1235 C1240 1.390 . S
C1236 C1230 1.465 . S
C1236 C1235 1.396 . S
C1236 C1237 1.399 . S
C1237 H1223 0.929 . S
C1237 C1236 1.399 . S
C1237 C1238 1.385 . S
C1238 H1224 0.931 . S
C1238 C1237 1.385 . S
C1238 C1239 1.389 . S
C1239 C1238 1.389 . S
C1239 C1240 1.387 . S
C1240 H1225 0.930 . S
C1240 C1235 1.390 . S
C1240 C1239 1.387 . S
H1241 C1253 0.930 . S
H1242 C1255 0.930 . S
H1243 C1256 0.930 . S
H1244 C1260 0.959 . S
H1245 C1260 0.959 . S
H1246 C1260 0.961 . S
H1247 C1261 0.960 . S
H1248 C1261 0.961 . S
H1249 C1261 0.959 . S
H1250 C1264 0.929 . S
H1251 C1265 0.931 . S
H1252 C1267 0.930 . S
C1253 H1241 0.930 . S
C1253 C1254 1.399 . S
C1253 C1258 1.399 . S
C1254 C1253 1.399 . S
C1254 C1255 1.376 . S
C1255 H1242 0.930 . S
C1255 C1254 1.376 . S
C1255 C1256 1.388 . S
C1256 H1243 0.930 . S
C1256 C1255 1.388 . S
C1256 C1257 1.390 . S
C1257 C1256 1.390 . S
C1257 C1258 1.394 . S
C1257 C1263 1.465 . S
C1258 C1253 1.399 . S
C1258 C1257 1.394 . S
C1258 C1259 1.516 . S
C1259 C1258 1.516 . S
C1259 C1260 1.502 . S
C1259 C1261 1.561 . S
C1259 C1262 1.526 . S
C1260 H1244 0.959 . S
C1260 H1245 0.959 . S
C1260 H1246 0.961 . S
C1260 C1259 1.502 . S
C1261 H1247 0.960 . S
C1261 H1248 0.961 . S
C1261 H1249 0.959 . S
C1261 C1259 1.561 . S
C1262 C1259 1.526 . S
C1262 C1263 1.396 . S
C1262 C1267 1.390 . S
C1263 C1257 1.465 . S
C1263 C1262 1.396 . S
C1263 C1264 1.399 . S
C1264 H1250 0.929 . S
C1264 C1263 1.399 . S
C1264 C1265 1.385 . S
C1265 H1251 0.931 . S
C1265 C1264 1.385 . S
C1265 C1266 1.389 . S
C1266 C1265 1.389 . S
C1266 C1267 1.387 . S
C1267 H1252 0.930 . S
C1267 C1262 1.390 . S
C1267 C1266 1.387 . S
H1268 C1280 0.930 . S
H1269 C1282 0.930 . S
H1270 C1283 0.930 . S
H1271 C1287 0.959 . S
H1272 C1287 0.959 . S
H1273 C1287 0.961 . S
H1274 C1288 0.960 . S
H1275 C1288 0.961 . S
H1276 C1288 0.959 . S
H1277 C1291 0.929 . S
H1278 C1292 0.931 . S
H1279 C1294 0.930 . S
C1280 H1268 0.930 . S
C1280 C1281 1.399 . S
C1280 C1285 1.399 . S
C1281 C1280 1.399 . S
C1281 C1282 1.376 . S
C1282 H1269 0.930 . S
C1282 C1281 1.376 . S
C1282 C1283 1.388 . S
C1283 H1270 0.930 . S
C1283 C1282 1.388 . S
C1283 C1284 1.390 . S
C1284 C1283 1.390 . S
C1284 C1285 1.394 . S
C1284 C1290 1.465 . S
C1285 C1280 1.399 . S
C1285 C1284 1.394 . S
C1285 C1286 1.516 . S
C1286 C1285 1.516 . S
C1286 C1287 1.502 . S
C1286 C1288 1.561 . S
C1286 C1289 1.526 . S
C1287 H1271 0.959 . S
C1287 H1272 0.959 . S
C1287 H1273 0.961 . S
C1287 C1286 1.502 . S
C1288 H1274 0.960 . S
C1288 H1275 0.961 . S
C1288 H1276 0.959 . S
C1288 C1286 1.561 . S
C1289 C1286 1.526 . S
C1289 C1290 1.396 . S
C1289 C1294 1.390 . S
C1290 C1284 1.465 . S
C1290 C1289 1.396 . S
C1290 C1291 1.399 . S
C1291 H1277 0.929 . S
C1291 C1290 1.399 . S
C1291 C1292 1.385 . S
C1292 H1278 0.931 . S
C1292 C1291 1.385 . S
C1292 C1293 1.389 . S
C1293 C1292 1.389 . S
C1293 C1294 1.387 . S
C1294 H1279 0.930 . S
C1294 C1289 1.390 . S
C1294 C1293 1.387 . S
H1295 C1307 0.930 . S
H1296 C1309 0.930 . S
H1297 C1310 0.930 . S
H1298 C1314 0.959 . S
H1299 C1314 0.959 . S
H1300 C1314 0.961 . S
H1301 C1315 0.960 . S
H1302 C1315 0.961 . S
H1303 C1315 0.959 . S
H1304 C1318 0.929 . S
H1305 C1319 0.931 . S
H1306 C1321 0.930 . S
C1307 H1295 0.930 . S
C1307 C1308 1.399 . S
C1307 C1312 1.399 . S
C1308 C1307 1.399 . S
C1308 C1309 1.376 . S
C1309 H1296 0.930 . S
C1309 C1308 1.376 . S
C1309 C1310 1.388 . S
C1310 H1297 0.930 . S
C1310 C1309 1.388 . S
C1310 C1311 1.390 . S
C1311 C1310 1.390 . S
C1311 C1312 1.394 . S
C1311 C1317 1.465 . S
C1312 C1307 1.399 . S
C1312 C1311 1.394 . S
C1312 C1313 1.516 . S
C1313 C1312 1.516 . S
C1313 C1314 1.502 . S
C1313 C1315 1.561 . S
C1313 C1316 1.526 . S
C1314 H1298 0.959 . S
C1314 H1299 0.959 . S
C1314 H1300 0.961 . S
C1314 C1313 1.502 . S
C1315 H1301 0.960 . S
C1315 H1302 0.961 . S
C1315 H1303 0.959 . S
C1315 C1313 1.561 . S
C1316 C1313 1.526 . S
C1316 C1317 1.396 . S
C1316 C1321 1.390 . S
C1317 C1311 1.465 . S
C1317 C1316 1.396 . S
C1317 C1318 1.399 . S
C1318 H1304 0.929 . S
C1318 C1317 1.399 . S
C1318 C1319 1.385 . S
C1319 H1305 0.931 . S
C1319 C1318 1.385 . S
C1319 C1320 1.389 . S
C1320 C1319 1.389 . S
C1320 C1321 1.387 . S
C1321 H1306 0.930 . S
C1321 C1316 1.390 . S
C1321 C1320 1.387 . S
H1322 C1334 0.930 . S
H1323 C1336 0.930 . S
H1324 C1337 0.930 . S
H1325 C1341 0.959 . S
H1326 C1341 0.959 . S
H1327 C1341 0.961 . S
H1328 C1342 0.960 . S
H1329 C1342 0.961 . S
H1330 C1342 0.959 . S
H1331 C1345 0.929 . S
H1332 C1346 0.931 . S
H1333 C1348 0.930 . S
C1334 H1322 0.930 . S
C1334 C1335 1.399 . S
C1334 C1339 1.399 . S
C1335 C1334 1.399 . S
C1335 C1336 1.376 . S
C1336 H1323 0.930 . S
C1336 C1335 1.376 . S
C1336 C1337 1.388 . S
C1337 H1324 0.930 . S
C1337 C1336 1.388 . S
C1337 C1338 1.390 . S
C1338 C1337 1.390 . S
C1338 C1339 1.394 . S
C1338 C1344 1.465 . S
C1339 C1334 1.399 . S
C1339 C1338 1.394 . S
C1339 C1340 1.516 . S
C1340 C1339 1.516 . S
C1340 C1341 1.502 . S
C1340 C1342 1.561 . S
C1340 C1343 1.526 . S
C1341 H1325 0.959 . S
C1341 H1326 0.959 . S
C1341 H1327 0.961 . S
C1341 C1340 1.502 . S
C1342 H1328 0.960 . S
C1342 H1329 0.961 . S
C1342 H1330 0.959 . S
C1342 C1340 1.561 . S
C1343 C1340 1.526 . S
C1343 C1344 1.396 . S
C1343 C1348 1.390 . S
C1344 C1338 1.465 . S
C1344 C1343 1.396 . S
C1344 C1345 1.399 . S
C1345 H1331 0.929 . S
C1345 C1344 1.399 . S
C1345 C1346 1.385 . S
C1346 H1332 0.931 . S
C1346 C1345 1.385 . S
C1346 C1347 1.389 . S
C1347 C1346 1.389 . S
C1347 C1348 1.387 . S
C1348 H1333 0.930 . S
C1348 C1343 1.390 . S
C1348 C1347 1.387 . S
H1349 C1361 0.930 . S
H1350 C1363 0.930 . S
H1351 C1364 0.930 . S
H1352 C1368 0.959 . S
H1353 C1368 0.959 . S
H1354 C1368 0.961 . S
H1355 C1369 0.960 . S
H1356 C1369 0.961 . S
H1357 C1369 0.959 . S
H1358 C1372 0.929 . S
H1359 C1373 0.931 . S
H1360 C1375 0.930 . S
C1361 H1349 0.930 . S
C1361 C1362 1.399 . S
C1361 C1366 1.399 . S
C1362 C1361 1.399 . S
C1362 C1363 1.376 . S
C1363 H1350 0.930 . S
C1363 C1362 1.376 . S
C1363 C1364 1.388 . S
C1364 H1351 0.930 . S
C1364 C1363 1.388 . S
C1364 C1365 1.390 . S
C1365 C1364 1.390 . S
C1365 C1366 1.394 . S
C1365 C1371 1.465 . S
C1366 C1361 1.399 . S
C1366 C1365 1.394 . S
C1366 C1367 1.516 . S
C1367 C1366 1.516 . S
C1367 C1368 1.502 . S
C1367 C1369 1.561 . S
C1367 C1370 1.526 . S
C1368 H1352 0.959 . S
C1368 H1353 0.959 . S
C1368 H1354 0.961 . S
C1368 C1367 1.502 . S
C1369 H1355 0.960 . S
C1369 H1356 0.961 . S
C1369 H1357 0.959 . S
C1369 C1367 1.561 . S
C1370 C1367 1.526 . S
C1370 C1371 1.396 . S
C1370 C1375 1.390 . S
C1371 C1365 1.465 . S
C1371 C1370 1.396 . S
C1371 C1372 1.399 . S
C1372 H1358 0.929 . S
C1372 C1371 1.399 . S
C1372 C1373 1.385 . S
C1373 H1359 0.931 . S
C1373 C1372 1.385 . S
C1373 C1374 1.389 . S
C1374 C1373 1.389 . S
C1374 C1375 1.387 . S
C1375 H1360 0.930 . S
C1375 C1370 1.390 . S
C1375 C1374 1.387 . S
H1376 C1388 0.930 . S
H1377 C1390 0.930 . S
H1378 C1391 0.930 . S
H1379 C1395 0.959 . S
H1380 C1395 0.959 . S
H1381 C1395 0.961 . S
H1382 C1396 0.960 . S
H1383 C1396 0.942 1_565 S
H1384 C1396 0.959 . S
H1385 C1399 0.929 . S
H1386 C1400 0.931 . S
H1387 C1402 0.930 . S
C1388 H1376 0.930 . S
C1388 C1389 1.399 . S
C1388 C1393 1.399 . S
C1389 C1388 1.399 . S
C1389 C1390 1.376 . S
C1390 H1377 0.930 . S
C1390 C1389 1.376 . S
C1390 C1391 1.388 . S
C1391 H1378 0.930 . S
C1391 C1390 1.388 . S
C1391 C1392 1.390 . S
C1392 C1391 1.390 . S
C1392 C1393 1.394 . S
C1392 C1398 1.465 . S
C1393 C1388 1.399 . S
C1393 C1392 1.394 . S
C1393 C1394 1.516 . S
C1394 C1393 1.516 . S
C1394 C1395 1.502 . S
C1394 C1396 1.561 . S
C1394 C1397 1.526 . S
C1395 H1379 0.959 . S
C1395 H1380 0.959 . S
C1395 H1381 0.961 . S
C1395 C1394 1.502 . S
C1396 H1382 0.960 . S
C1396 H1383 0.942 1_545 S
C1396 H1384 0.959 . S
C1396 C1394 1.561 . S
C1397 C1394 1.526 . S
C1397 C1398 1.396 . S
C1397 C1402 1.390 . S
C1398 C1392 1.465 . S
C1398 C1397 1.396 . S
C1398 C1399 1.399 . S
C1399 H1385 0.929 . S
C1399 C1398 1.399 . S
C1399 C1400 1.385 . S
C1400 H1386 0.931 . S
C1400 C1399 1.385 . S
C1400 C1401 1.389 . S
C1401 C1400 1.389 . S
C1401 C1402 1.387 . S
C1402 H1387 0.930 . S
C1402 C1397 1.390 . S
C1402 C1401 1.387 . S
H1403 C1415 0.930 . S
H1404 C1417 0.930 . S
H1405 C1418 0.930 . S
H1406 C1422 0.959 . S
H1407 C1422 0.959 . S
H1408 C1422 0.961 . S
H1409 C1423 0.960 . S
H1410 C1423 0.961 . S
H1411 C1423 0.959 . S
H1412 C1426 0.929 . S
H1413 C1427 0.931 . S
H1414 C1429 0.930 . S
C1415 H1403 0.930 . S
C1415 C1416 1.399 . S
C1415 C1420 1.399 . S
C1416 C1415 1.399 . S
C1416 C1417 1.376 . S
C1417 H1404 0.930 . S
C1417 C1416 1.376 . S
C1417 C1418 1.388 . S
C1418 H1405 0.930 . S
C1418 C1417 1.388 . S
C1418 C1419 1.390 . S
C1419 C1418 1.390 . S
C1419 C1420 1.394 . S
C1419 C1425 1.465 . S
C1420 C1415 1.399 . S
C1420 C1419 1.394 . S
C1420 C1421 1.516 . S
C1421 C1420 1.516 . S
C1421 C1422 1.502 . S
C1421 C1423 1.561 . S
C1421 C1424 1.526 . S
C1422 H1406 0.959 . S
C1422 H1407 0.959 . S
C1422 H1408 0.961 . S
C1422 C1421 1.502 . S
C1423 H1409 0.960 . S
C1423 H1410 0.961 . S
C1423 H1411 0.959 . S
C1423 C1421 1.561 . S
C1424 C1421 1.526 . S
C1424 C1425 1.396 . S
C1424 C1429 1.390 . S
C1425 C1419 1.465 . S
C1425 C1424 1.396 . S
C1425 C1426 1.399 . S
C1426 H1412 0.929 . S
C1426 C1425 1.399 . S
C1426 C1427 1.385 . S
C1427 H1413 0.931 . S
C1427 C1426 1.385 . S
C1427 C1428 1.389 . S
C1428 C1427 1.389 . S
C1428 C1429 1.387 . S
C1429 H1414 0.930 . S
C1429 C1424 1.390 . S
C1429 C1428 1.387 . S
H1430 C1442 0.930 . S
H1431 C1444 0.930 . S
H1432 C1445 0.930 . S
H1433 C1449 0.959 . S
H1434 C1449 0.959 . S
H1435 C1449 0.961 . S
H1436 C1450 0.960 . S
H1437 C1450 0.961 . S
H1438 C1450 0.959 . S
H1439 C1453 0.929 . S
H1440 C1454 0.931 . S
H1441 C1456 0.930 . S
C1442 H1430 0.930 . S
C1442 C1443 1.399 . S
C1442 C1447 1.399 . S
C1443 C1442 1.399 . S
C1443 C1444 1.376 . S
C1444 H1431 0.930 . S
C1444 C1443 1.376 . S
C1444 C1445 1.388 . S
C1445 H1432 0.930 . S
C1445 C1444 1.388 . S
C1445 C1446 1.390 . S
C1446 C1445 1.390 . S
C1446 C1447 1.394 . S
C1446 C1452 1.465 . S
C1447 C1442 1.399 . S
C1447 C1446 1.394 . S
C1447 C1448 1.516 . S
C1448 C1447 1.516 . S
C1448 C1449 1.502 . S
C1448 C1450 1.561 . S
C1448 C1451 1.526 . S
C1449 H1433 0.959 . S
C1449 H1434 0.959 . S
C1449 H1435 0.961 . S
C1449 C1448 1.502 . S
C1450 H1436 0.960 . S
C1450 H1437 0.961 . S
C1450 H1438 0.959 . S
C1450 C1448 1.561 . S
C1451 C1448 1.526 . S
C1451 C1452 1.396 . S
C1451 C1456 1.390 . S
C1452 C1446 1.465 . S
C1452 C1451 1.396 . S
C1452 C1453 1.399 . S
C1453 H1439 0.929 . S
C1453 C1452 1.399 . S
C1453 C1454 1.385 . S
C1454 H1440 0.931 . S
C1454 C1453 1.385 . S
C1454 C1455 1.389 . S
C1455 C1454 1.389 . S
C1455 C1456 1.387 . S
C1456 H1441 0.930 . S
C1456 C1451 1.390 . S
C1456 C1455 1.387 . S
H1457 C1469 0.930 . S
H1458 C1471 0.930 . S
H1459 C1472 0.930 . S
H1460 C1476 0.959 . S
H1461 C1476 0.959 . S
H1462 C1476 0.961 . S
H1463 C1477 0.960 . S
H1464 C1477 0.961 . S
H1465 C1477 0.959 . S
H1466 C1480 0.929 . S
H1467 C1481 0.931 . S
H1468 C1483 0.930 . S
C1469 H1457 0.930 . S
C1469 C1470 1.399 . S
C1469 C1474 1.399 . S
C1470 C1469 1.399 . S
C1470 C1471 1.376 . S
C1471 H1458 0.930 . S
C1471 C1470 1.376 . S
C1471 C1472 1.388 . S
C1472 H1459 0.930 . S
C1472 C1471 1.388 . S
C1472 C1473 1.390 . S
C1473 C1472 1.390 . S
C1473 C1474 1.394 . S
C1473 C1479 1.465 . S
C1474 C1469 1.399 . S
C1474 C1473 1.394 . S
C1474 C1475 1.516 . S
C1475 C1474 1.516 . S
C1475 C1476 1.502 . S
C1475 C1477 1.561 . S
C1475 C1478 1.526 . S
C1476 H1460 0.959 . S
C1476 H1461 0.959 . S
C1476 H1462 0.961 . S
C1476 C1475 1.502 . S
C1477 H1463 0.960 . S
C1477 H1464 0.961 . S
C1477 H1465 0.959 . S
C1477 C1475 1.561 . S
C1478 C1475 1.526 . S
C1478 C1479 1.396 . S
C1478 C1483 1.390 . S
C1479 C1473 1.465 . S
C1479 C1478 1.396 . S
C1479 C1480 1.399 . S
C1480 H1466 0.929 . S
C1480 C1479 1.399 . S
C1480 C1481 1.385 . S
C1481 H1467 0.931 . S
C1481 C1480 1.385 . S
C1481 C1482 1.389 . S
C1482 C1481 1.389 . S
C1482 C1483 1.387 . S
C1483 H1468 0.930 . S
C1483 C1478 1.390 . S
C1483 C1482 1.387 . S
H1484 C1496 0.930 . S
H1485 C1498 0.930 . S
H1486 C1499 0.930 . S
H1487 C1503 0.959 . S
H1488 C1503 0.959 . S
H1489 C1503 0.961 . S
H1490 C1504 0.960 . S
H1491 C1504 0.961 . S
H1492 C1504 0.959 . S
H1493 C1507 0.929 . S
H1494 C1508 0.931 . S
H1495 C1510 0.930 . S
C1496 H1484 0.930 . S
C1496 C1497 1.399 . S
C1496 C1501 1.399 . S
C1497 C1496 1.399 . S
C1497 C1498 1.376 . S
C1498 H1485 0.930 . S
C1498 C1497 1.376 . S
C1498 C1499 1.388 . S
C1499 H1486 0.930 . S
C1499 C1498 1.388 . S
C1499 C1500 1.390 . S
C1500 C1499 1.390 . S
C1500 C1501 1.394 . S
C1500 C1506 1.465 . S
C1501 C1496 1.399 . S
C1501 C1500 1.394 . S
C1501 C1502 1.516 . S
C1502 C1501 1.516 . S
C1502 C1503 1.502 . S
C1502 C1504 1.561 . S
C1502 C1505 1.526 . S
C1503 H1487 0.959 . S
C1503 H1488 0.959 . S
C1503 H1489 0.961 . S
C1503 C1502 1.502 . S
C1504 H1490 0.960 . S
C1504 H1491 0.961 . S
C1504 H1492 0.959 . S
C1504 C1502 1.561 . S
C1505 C1502 1.526 . S
C1505 C1506 1.396 . S
C1505 C1510 1.390 . S
C1506 C1500 1.465 . S
C1506 C1505 1.396 . S
C1506 C1507 1.399 . S
C1507 H1493 0.929 . S
C1507 C1506 1.399 . S
C1507 C1508 1.385 . S
C1508 H1494 0.931 . S
C1508 C1507 1.385 . S
C1508 C1509 1.389 . S
C1509 C1508 1.389 . S
C1509 C1510 1.387 . S
C1510 H1495 0.930 . S
C1510 C1505 1.390 . S
C1510 C1509 1.387 . S
H1511 C1523 0.930 . S
H1512 C1525 0.930 . S
H1513 C1526 0.930 . S
H1514 C1530 0.959 . S
H1515 C1530 0.959 . S
H1516 C1530 0.961 . S
H1517 C1531 0.960 . S
H1518 C1531 0.961 . S
H1519 C1531 0.959 . S
H1520 C1534 0.929 . S
H1521 C1535 0.931 . S
H1522 C1537 0.930 . S
C1523 H1511 0.930 . S
C1523 C1524 1.399 . S
C1523 C1528 1.399 . S
C1524 C1523 1.399 . S
C1524 C1525 1.376 . S
C1525 H1512 0.930 . S
C1525 C1524 1.376 . S
C1525 C1526 1.388 . S
C1526 H1513 0.930 . S
C1526 C1525 1.388 . S
C1526 C1527 1.390 . S
C1527 C1526 1.390 . S
C1527 C1528 1.394 . S
C1527 C1533 1.465 . S
C1528 C1523 1.399 . S
C1528 C1527 1.394 . S
C1528 C1529 1.516 . S
C1529 C1528 1.516 . S
C1529 C1530 1.502 . S
C1529 C1531 1.561 . S
C1529 C1532 1.526 . S
C1530 H1514 0.959 . S
C1530 H1515 0.959 . S
C1530 H1516 0.961 . S
C1530 C1529 1.502 . S
C1531 H1517 0.960 . S
C1531 H1518 0.961 . S
C1531 H1519 0.959 . S
C1531 C1529 1.561 . S
C1532 C1529 1.526 . S
C1532 C1533 1.396 . S
C1532 C1537 1.390 . S
C1533 C1527 1.465 . S
C1533 C1532 1.396 . S
C1533 C1534 1.399 . S
C1534 H1520 0.929 . S
C1534 C1533 1.399 . S
C1534 C1535 1.385 . S
C1535 H1521 0.931 . S
C1535 C1534 1.385 . S
C1535 C1536 1.389 . S
C1536 C1535 1.389 . S
C1536 C1537 1.387 . S
C1537 H1522 0.930 . S
C1537 C1532 1.390 . S
C1537 C1536 1.387 . S
H1538 C1550 0.930 . S
H1539 C1552 0.930 . S
H1540 C1553 0.930 . S
H1541 C1557 0.959 . S
H1542 C1557 0.959 . S
H1543 C1557 0.961 . S
H1544 C1558 0.960 . S
H1545 C1558 0.961 . S
H1546 C1558 0.959 . S
H1547 C1561 0.929 . S
H1548 C1562 0.931 . S
H1549 C1564 0.930 . S
C1550 H1538 0.930 . S
C1550 C1551 1.399 . S
C1550 C1555 1.399 . S
C1551 C1550 1.399 . S
C1551 C1552 1.376 . S
C1552 H1539 0.930 . S
C1552 C1551 1.376 . S
C1552 C1553 1.388 . S
C1553 H1540 0.930 . S
C1553 C1552 1.388 . S
C1553 C1554 1.390 . S
C1554 C1553 1.390 . S
C1554 C1555 1.394 . S
C1554 C1560 1.465 . S
C1555 C1550 1.399 . S
C1555 C1554 1.394 . S
C1555 C1556 1.516 . S
C1556 C1555 1.516 . S
C1556 C1557 1.502 . S
C1556 C1558 1.561 . S
C1556 C1559 1.526 . S
C1557 H1541 0.959 . S
C1557 H1542 0.959 . S
C1557 H1543 0.961 . S
C1557 C1556 1.502 . S
C1558 H1544 0.960 . S
C1558 H1545 0.961 . S
C1558 H1546 0.959 . S
C1558 C1556 1.561 . S
C1559 C1556 1.526 . S
C1559 C1560 1.396 . S
C1559 C1564 1.390 . S
C1560 C1554 1.465 . S
C1560 C1559 1.396 . S
C1560 C1561 1.399 . S
C1561 H1547 0.929 . S
C1561 C1560 1.399 . S
C1561 C1562 1.385 . S
C1562 H1548 0.931 . S
C1562 C1561 1.385 . S
C1562 C1563 1.389 . S
C1563 C1562 1.389 . S
C1563 C1564 1.387 . S
C1564 H1549 0.930 . S
C1564 C1559 1.390 . S
C1564 C1563 1.387 . S
H1565 C1577 0.930 . S
H1566 C1579 0.930 . S
H1567 C1580 0.930 . S
H1568 C1584 0.959 . S
H1569 C1584 0.959 . S
H1570 C1584 0.961 . S
H1571 C1585 0.960 . S
H1572 C1585 0.961 . S
H1573 C1585 0.959 . S
H1574 C1588 0.929 . S
H1575 C1589 0.931 . S
H1576 C1591 0.930 . S
C1577 H1565 0.930 . S
C1577 C1578 1.399 . S
C1577 C1582 1.399 . S
C1578 C1577 1.399 . S
C1578 C1579 1.376 . S
C1579 H1566 0.930 . S
C1579 C1578 1.376 . S
C1579 C1580 1.388 . S
C1580 H1567 0.930 . S
C1580 C1579 1.388 . S
C1580 C1581 1.390 . S
C1581 C1580 1.390 . S
C1581 C1582 1.394 . S
C1581 C1587 1.465 . S
C1582 C1577 1.399 . S
C1582 C1581 1.394 . S
C1582 C1583 1.516 . S
C1583 C1582 1.516 . S
C1583 C1584 1.502 . S
C1583 C1585 1.561 . S
C1583 C1586 1.526 . S
C1584 H1568 0.959 . S
C1584 H1569 0.959 . S
C1584 H1570 0.961 . S
C1584 C1583 1.502 . S
C1585 H1571 0.960 . S
C1585 H1572 0.961 . S
C1585 H1573 0.959 . S
C1585 C1583 1.561 . S
C1586 C1583 1.526 . S
C1586 C1587 1.396 . S
C1586 C1591 1.390 . S
C1587 C1581 1.465 . S
C1587 C1586 1.396 . S
C1587 C1588 1.399 . S
C1588 H1574 0.929 . S
C1588 C1587 1.399 . S
C1588 C1589 1.385 . S
C1589 H1575 0.931 . S
C1589 C1588 1.385 . S
C1589 C1590 1.389 . S
C1590 C1589 1.389 . S
C1590 C1591 1.387 . S
C1591 H1576 0.930 . S
C1591 C1586 1.390 . S
C1591 C1590 1.387 . S
H1592 C1604 0.930 . S
H1593 C1606 0.930 . S
H1594 C1607 0.930 . S
H1595 C1611 0.959 . S
H1596 C1611 0.959 . S
H1597 C1611 0.961 . S
H1598 C1612 0.960 . S
H1599 C1612 0.961 . S
H1600 C1612 0.959 . S
H1601 C1615 0.929 . S
H1602 C1616 0.931 . S
H1603 C1618 0.930 . S
C1604 H1592 0.930 . S
C1604 C1605 1.399 . S
C1604 C1609 1.399 1_545 S
C1605 C1604 1.399 . S
C1605 C1606 1.376 . S
C1606 H1593 0.930 . S
C1606 C1605 1.376 . S
C1606 C1607 1.388 1_545 S
C1607 H1594 0.930 . S
C1607 C1606 1.388 1_565 S
C1607 C1608 1.390 . S
C1608 C1607 1.390 . S
C1608 C1609 1.394 . S
C1608 C1614 1.465 . S
C1609 C1604 1.399 1_565 S
C1609 C1608 1.394 . S
C1609 C1610 1.516 . S
C1610 C1609 1.516 . S
C1610 C1611 1.502 . S
C1610 C1612 1.561 . S
C1610 C1613 1.526 . S
C1611 H1595 0.959 . S
C1611 H1596 0.959 . S
C1611 H1597 0.961 . S
C1611 C1610 1.502 . S
C1612 H1598 0.960 . S
C1612 H1599 0.961 . S
C1612 H1600 0.959 . S
C1612 C1610 1.561 . S
C1613 C1610 1.526 . S
C1613 C1614 1.396 . S
C1613 C1618 1.390 . S
C1614 C1608 1.465 . S
C1614 C1613 1.396 . S
C1614 C1615 1.399 . S
C1615 H1601 0.929 . S
C1615 C1614 1.399 . S
C1615 C1616 1.385 . S
C1616 H1602 0.931 . S
C1616 C1615 1.385 . S
C1616 C1617 1.389 . S
C1617 C1616 1.389 . S
C1617 C1618 1.387 . S
C1618 H1603 0.930 . S
C1618 C1613 1.390 . S
C1618 C1617 1.387 . S
H1619 C1631 0.930 . S
H1620 C1633 0.930 . S
H1621 C1634 0.930 . S
H1622 C1638 0.959 . S
H1623 C1638 0.959 . S
H1624 C1638 0.961 . S
H1625 C1639 0.960 . S
H1626 C1639 0.961 . S
H1627 C1639 0.959 . S
H1628 C1642 0.929 . S
H1629 C1643 0.931 . S
H1630 C1645 0.930 . S
C1631 H1619 0.930 . S
C1631 C1632 1.399 . S
C1631 C1636 1.399 . S
C1632 C1631 1.399 . S
C1632 C1633 1.376 . S
C1633 H1620 0.930 . S
C1633 C1632 1.376 . S
C1633 C1634 1.388 . S
C1634 H1621 0.930 . S
C1634 C1633 1.388 . S
C1634 C1635 1.390 . S
C1635 C1634 1.390 . S
C1635 C1636 1.394 . S
C1635 C1641 1.465 . S
C1636 C1631 1.399 . S
C1636 C1635 1.394 . S
C1636 C1637 1.516 . S
C1637 C1636 1.516 . S
C1637 C1638 1.502 . S
C1637 C1639 1.561 . S
C1637 C1640 1.526 . S
C1638 H1622 0.959 . S
C1638 H1623 0.959 . S
C1638 H1624 0.961 . S
C1638 C1637 1.502 . S
C1639 H1625 0.960 . S
C1639 H1626 0.961 . S
C1639 H1627 0.959 . S
C1639 C1637 1.561 . S
C1640 C1637 1.526 . S
C1640 C1641 1.396 . S
C1640 C1645 1.390 . S
C1641 C1635 1.465 . S
C1641 C1640 1.396 . S
C1641 C1642 1.399 . S
C1642 H1628 0.929 . S
C1642 C1641 1.399 . S
C1642 C1643 1.385 . S
C1643 H1629 0.931 . S
C1643 C1642 1.385 . S
C1643 C1644 1.389 . S
C1644 C1643 1.389 . S
C1644 C1645 1.387 . S
C1645 H1630 0.930 . S
C1645 C1640 1.390 . S
C1645 C1644 1.387 . S
H1646 C1658 0.930 . S
H1647 C1660 0.930 . S
H1648 C1661 0.930 . S
H1649 C1665 0.959 . S
H1650 C1665 0.959 . S
H1651 C1665 0.961 . S
H1652 C1666 0.960 . S
H1653 C1666 0.961 . S
H1654 C1666 0.959 . S
H1655 C1669 0.929 . S
H1656 C1670 0.931 . S
H1657 C1672 0.930 . S
C1658 H1646 0.930 . S
C1658 C1659 1.399 . S
C1658 C1663 1.399 . S
C1659 C1658 1.399 . S
C1659 C1660 1.376 . S
C1660 H1647 0.930 . S
C1660 C1659 1.376 . S
C1660 C1661 1.388 . S
C1661 H1648 0.930 . S
C1661 C1660 1.388 . S
C1661 C1662 1.390 . S
C1662 C1661 1.390 . S
C1662 C1663 1.394 . S
C1662 C1668 1.465 . S
C1663 C1658 1.399 . S
C1663 C1662 1.394 . S
C1663 C1664 1.516 . S
C1664 C1663 1.516 . S
C1664 C1665 1.502 . S
C1664 C1666 1.561 . S
C1664 C1667 1.526 . S
C1665 H1649 0.959 . S
C1665 H1650 0.959 . S
C1665 H1651 0.961 . S
C1665 C1664 1.502 . S
C1666 H1652 0.960 . S
C1666 H1653 0.961 . S
C1666 H1654 0.959 . S
C1666 C1664 1.561 . S
C1667 C1664 1.526 . S
C1667 C1668 1.396 . S
C1667 C1672 1.390 1_455 S
C1668 C1662 1.465 . S
C1668 C1667 1.396 . S
C1668 C1669 1.399 1_455 S
C1669 H1655 0.929 . S
C1669 C1668 1.399 1_655 S
C1669 C1670 1.385 . S
C1670 H1656 0.931 . S
C1670 C1669 1.385 . S
C1670 C1671 1.389 . S
C1671 C1670 1.389 . S
C1671 C1672 1.387 . S
C1672 H1657 0.930 . S
C1672 C1667 1.390 1_655 S
C1672 C1671 1.387 . S
H1673 C1685 0.930 . S
H1674 C1687 0.930 . S
H1675 C1688 0.930 . S
H1676 C1692 0.959 . S
H1677 C1692 0.959 . S
H1678 C1692 0.961 . S
H1679 C1693 0.960 . S
H1680 C1693 0.961 . S
H1681 C1693 0.959 . S
H1682 C1696 0.929 . S
H1683 C1697 0.931 . S
H1684 C1699 0.930 . S
C1685 H1673 0.930 . S
C1685 C1686 1.399 1_545 S
C1685 C1690 1.399 . S
C1686 C1685 1.399 1_565 S
C1686 C1687 1.376 . S
C1687 H1674 0.930 . S
C1687 C1686 1.376 . S
C1687 C1688 1.388 . S
C1688 H1675 0.930 . S
C1688 C1687 1.388 . S
C1688 C1689 1.390 1_565 S
C1689 C1688 1.390 1_545 S
C1689 C1690 1.394 . S
C1689 C1695 1.465 . S
C1690 C1685 1.399 . S
C1690 C1689 1.394 . S
C1690 C1691 1.516 . S
C1691 C1690 1.516 . S
C1691 C1692 1.502 . S
C1691 C1693 1.561 . S
C1691 C1694 1.526 . S
C1692 H1676 0.959 . S
C1692 H1677 0.959 . S
C1692 H1678 0.961 . S
C1692 C1691 1.502 . S
C1693 H1679 0.960 . S
C1693 H1680 0.961 . S
C1693 H1681 0.959 . S
C1693 C1691 1.561 . S
C1694 C1691 1.526 . S
C1694 C1695 1.396 . S
C1694 C1699 1.390 . S
C1695 C1689 1.465 . S
C1695 C1694 1.396 . S
C1695 C1696 1.399 1_655 S
C1696 H1682 0.929 . S
C1696 C1695 1.399 1_455 S
C1696 C1697 1.385 . S
C1697 H1683 0.931 . S
C1697 C1696 1.385 . S
C1697 C1698 1.389 . S
C1698 C1697 1.389 . S
C1698 C1699 1.387 1_455 S
C1699 H1684 0.930 . S
C1699 C1694 1.390 . S
C1699 C1698 1.387 1_655 S
H1700 C1712 0.930 . S
H1701 C1714 0.930 . S
H1702 C1715 0.930 . S
H1703 C1719 0.959 . S
H1704 C1719 0.959 . S
H1705 C1719 0.961 . S
H1706 C1720 0.960 . S
H1707 C1720 0.961 . S
H1708 C1720 0.959 . S
H1709 C1723 0.929 . S
H1710 C1724 0.931 . S
H1711 C1726 0.930 . S
C1712 H1700 0.930 . S
C1712 C1713 1.399 . S
C1712 C1717 1.399 . S
C1713 C1712 1.399 . S
C1713 C1714 1.376 . S
C1714 H1701 0.930 . S
C1714 C1713 1.376 . S
C1714 C1715 1.388 . S
C1715 H1702 0.930 . S
C1715 C1714 1.388 . S
C1715 C1716 1.390 . S
C1716 C1715 1.390 . S
C1716 C1717 1.394 . S
C1716 C1722 1.465 . S
C1717 C1712 1.399 . S
C1717 C1716 1.394 . S
C1717 C1718 1.516 . S
C1718 C1717 1.516 . S
C1718 C1719 1.502 . S
C1718 C1720 1.561 . S
C1718 C1721 1.526 . S
C1719 H1703 0.959 . S
C1719 H1704 0.959 . S
C1719 H1705 0.961 . S
C1719 C1718 1.502 . S
C1720 H1706 0.960 . S
C1720 H1707 0.961 . S
C1720 H1708 0.959 . S
C1720 C1718 1.561 . S
C1721 C1718 1.526 . S
C1721 C1722 1.396 . S
C1721 C1726 1.390 . S
C1722 C1716 1.465 . S
C1722 C1721 1.396 . S
C1722 C1723 1.399 . S
C1723 H1709 0.929 . S
C1723 C1722 1.399 . S
C1723 C1724 1.385 . S
C1724 H1710 0.931 . S
C1724 C1723 1.385 . S
C1724 C1725 1.389 . S
C1725 C1724 1.389 . S
C1725 C1726 1.387 . S
C1726 H1711 0.930 . S
C1726 C1721 1.390 . S
C1726 C1725 1.387 . S
H1727 C1739 0.930 . S
H1728 C1741 0.930 . S
H1729 C1742 0.933 . S
H1730 C1746 0.959 . S
H1731 C1746 0.959 . S
H1732 C1746 0.961 . S
H1733 C1747 0.973 . S
H1734 C1747 0.961 . S
H1735 C1747 0.959 . S
H1736 C1750 0.929 . S
H1737 C1751 0.931 . S
H1738 C1753 0.930 . S
C1739 H1727 0.930 . S
C1739 C1740 1.399 . S
C1739 C1744 1.399 1_455 S
C1740 C1739 1.399 . S
C1740 C1741 1.376 . S
C1741 H1728 0.930 . S
C1741 C1740 1.376 . S
C1741 C1742 1.373 1_455 S
C1742 H1729 0.933 . S
C1742 C1741 1.373 1_655 S
C1742 C1743 1.403 . S
C1743 C1742 1.403 . S
C1743 C1744 1.394 . S
C1743 C1749 1.465 . S
C1744 C1739 1.399 1_655 S
C1744 C1743 1.394 . S
C1744 C1745 1.516 . S
C1745 C1744 1.516 . S
C1745 C1746 1.502 . S
C1745 C1747 1.561 . S
C1745 C1748 1.526 . S
C1746 H1730 0.959 . S
C1746 H1731 0.959 . S
C1746 H1732 0.961 . S
C1746 C1745 1.502 . S
C1747 H1733 0.973 . S
C1747 H1734 0.961 . S
C1747 H1735 0.959 . S
C1747 C1745 1.561 . S
C1748 C1745 1.526 . S
C1748 C1749 1.396 . S
C1748 C1753 1.390 . S
C1749 C1743 1.465 . S
C1749 C1748 1.396 . S
C1749 C1750 1.399 . S
C1750 H1736 0.929 . S
C1750 C1749 1.399 . S
C1750 C1751 1.385 . S
C1751 H1737 0.931 . S
C1751 C1750 1.385 . S
C1751 C1752 1.389 . S
C1752 C1751 1.389 . S
C1752 C1753 1.387 . S
C1753 H1738 0.930 . S
C1753 C1748 1.390 . S
C1753 C1752 1.387 . S
H1754 C1766 0.930 . S
H1755 C1768 0.930 . S
H1756 C1769 0.930 . S
H1757 C1773 0.974 1_545 S
H1758 C1773 0.959 1_545 S
H1759 C1773 0.961 1_655 S
H1760 C1774 0.960 . S
H1761 C1774 0.961 . S
H1762 C1774 0.959 . S
H1763 C1777 0.929 . S
H1764 C1778 0.931 . S
H1765 C1780 0.930 . S
C1766 H1754 0.930 . S
C1766 C1767 1.399 . S
C1766 C1771 1.399 1_655 S
C1767 C1766 1.399 . S
C1767 C1768 1.376 . S
C1768 H1755 0.930 . S
C1768 C1767 1.376 . S
C1768 C1769 1.388 1_655 S
C1769 H1756 0.930 . S
C1769 C1768 1.388 1_455 S
C1769 C1770 1.390 . S
C1770 C1769 1.390 . S
C1770 C1771 1.394 . S
C1770 C1776 1.465 . S
C1771 C1766 1.399 1_455 S
C1771 C1770 1.394 . S
C1771 C1772 1.516 . S
C1772 C1771 1.516 . S
C1772 C1773 1.502 . S
C1772 C1774 1.561 . S
C1772 C1775 1.526 . S
C1773 H1757 0.974 1_565 S
C1773 H1758 0.959 1_565 S
C1773 H1759 0.961 1_455 S
C1773 C1772 1.502 . S
C1774 H1760 0.960 . S
C1774 H1761 0.961 . S
C1774 H1762 0.959 . S
C1774 C1772 1.561 . S
C1775 C1772 1.526 . S
C1775 C1776 1.396 . S
C1775 C1780 1.390 1_565 S
C1776 C1770 1.465 . S
C1776 C1775 1.396 . S
C1776 C1777 1.399 . S
C1777 H1763 0.929 . S
C1777 C1776 1.399 . S
C1777 C1778 1.385 1_565 S
C1778 H1764 0.931 . S
C1778 C1777 1.385 1_545 S
C1778 C1779 1.389 . S
C1779 C1778 1.389 . S
C1779 C1780 1.387 . S
C1780 H1765 0.930 . S
C1780 C1775 1.390 1_545 S
C1780 C1779 1.387 . S
H1781 C1793 0.930 . S
H1782 C1795 0.930 . S
H1783 C1796 0.930 . S
H1784 C1800 0.959 . S
H1785 C1800 0.959 . S
H1786 C1800 0.961 . S
H1787 C1801 0.960 . S
H1788 C1801 0.961 . S
H1789 C1801 0.959 . S
H1790 C1804 0.929 . S
H1791 C1805 0.931 . S
H1792 C1807 0.930 . S
C1793 H1781 0.930 . S
C1793 C1794 1.399 1_545 S
C1793 C1798 1.399 . S
C1794 C1793 1.399 1_565 S
C1794 C1795 1.376 . S
C1795 H1782 0.930 . S
C1795 C1794 1.376 . S
C1795 C1796 1.388 . S
C1796 H1783 0.930 . S
C1796 C1795 1.388 . S
C1796 C1797 1.390 1_565 S
C1797 C1796 1.390 1_545 S
C1797 C1798 1.394 . S
C1797 C1803 1.465 . S
C1798 C1793 1.399 . S
C1798 C1797 1.394 . S
C1798 C1799 1.516 . S
C1799 C1798 1.516 . S
C1799 C1800 1.502 . S
C1799 C1801 1.561 . S
C1799 C1802 1.526 . S
C1800 H1784 0.959 . S
C1800 H1785 0.959 . S
C1800 H1786 0.961 . S
C1800 C1799 1.502 . S
C1801 H1787 0.960 . S
C1801 H1788 0.961 . S
C1801 H1789 0.959 . S
C1801 C1799 1.561 . S
C1802 C1799 1.526 . S
C1802 C1803 1.396 . S
C1802 C1807 1.390 . S
C1803 C1797 1.465 . S
C1803 C1802 1.396 . S
C1803 C1804 1.399 . S
C1804 H1790 0.929 . S
C1804 C1803 1.399 . S
C1804 C1805 1.385 . S
C1805 H1791 0.931 . S
C1805 C1804 1.385 . S
C1805 C1806 1.389 . S
C1806 C1805 1.389 . S
C1806 C1807 1.387 . S
C1807 H1792 0.930 . S
C1807 C1802 1.390 . S
C1807 C1806 1.387 . S
C957 C416 1.536 . S
C969 C3 1.612 . S
C984 C239 1.566 . S
C996 C62 1.564 . S
C1011 C298 1.611 . S
C1023 C121 1.539 . S
C1038 C180 1.526 . S
C1050 C357 1.615 . S
C1065 C888 1.571 . S
C1077 C475 1.606 . S
C1092 C711 1.612 . S
C1104 C534 1.531 . S
C1119 C593 1.614 . S
C1131 C770 1.535 . S
C1146 C652 1.587 . S
C1158 C829 1.528 . S
C1173 C170 1.144 . S
C1185 C52 1.188 . S
C1200 C111 1.156 . S
C1212 C229 1.128 . S
C1227 C288 1.166 . S
C1239 C406 1.125 . S
C1254 C465 1.168 . S
C1266 C347 1.125 . S
C1281 C524 1.187 . S
C1293 C642 1.171 . S
C1308 C583 1.189 . S
C1320 C701 1.164 . S
C1335 C878 1.185 . S
C1347 C760 1.146 . S
C1362 C819 1.124 . S
C1374 C937 1.148 . S
C1389 C387 1.329 . S
C1401 C33 1.361 . S
C1416 C92 1.375 . S
C1428 C446 1.329 . S
C1443 C151 1.328 . S
C1455 C269 1.364 . S
C1470 C210 1.377 . S
C1482 C328 1.330 . S
C1497 C505 1.363 . S
C1509 C859 1.402 . S
C1524 C564 1.328 . S
C1536 C918 1.395 . S
C1551 C623 1.366 . S
C1563 C741 1.338 . S
C1578 C682 1.406 . S
C1590 C800 1.351 . S
C1605 C5 1.355 . S
C1617 C890 1.360 . S
C1632 C713 1.361 . S
C1644 C64 1.357 . S
C1659 C123 1.384 . S
C1671 C772 1.382 . S
C1686 C831 1.382 . S
C1698 C182 1.379 . S
C1713 C536 1.371 . S
C1725 C241 1.366 . S
C1740 C300 1.383 . S
C1752 C595 1.381 . S
C1767 C654 1.368 . S
C1779 C359 1.373 . S
C1794 C477 1.374 . S
C1806 C418 1.369 . S
