# Generated by pormake.
# Topology uop, (4)-cn, num edge types: 1
# Building blocks:
#     Node 0, Type 0, BuildingBlock: QUQFOY_clean_sbu_3, # of connection points: 4
#     Node 1, Type 0, BuildingBlock: QUQFOY_clean_sbu_3, # of connection points: 4
#     Node 2, Type 0, BuildingBlock: QUQFOY_clean_sbu_3, # of connection points: 4
#     Node 3, Type 0, BuildingBlock: QUQFOY_clean_sbu_3, # of connection points: 4
#     Node 4, Type 0, BuildingBlock: QUQFOY_clean_sbu_3, # of connection points: 4
#     Node 5, Type 0, BuildingBlock: QUQFOY_clean_sbu_3, # of connection points: 4
#     Node 6, Type 0, BuildingBlock: QUQFOY_clean_sbu_3, # of connection points: 4
#     Node 7, Type 0, BuildingBlock: QUQFOY_clean_sbu_3, # of connection points: 4
#     Node 8, Type 0, BuildingBlock: QUQFOY_clean_sbu_3, # of connection points: 4
#     Node 9, Type 0, BuildingBlock: QUQFOY_clean_sbu_3, # of connection points: 4
#     Node 10, Type 0, BuildingBlock: QUQFOY_clean_sbu_3, # of connection points: 4
#     Node 11, Type 0, BuildingBlock: QUQFOY_clean_sbu_3, # of connection points: 4
#     Edge 12, Type (0, 0), BuildingBlock: XIVTED_clean_linker_0, # of connection points: 2
#     Edge 13, Type (0, 0), BuildingBlock: XIVTED_clean_linker_0, # of connection points: 2
#     Edge 14, Type (0, 0), BuildingBlock: XIVTED_clean_linker_0, # of connection points: 2
#     Edge 15, Type (0, 0), BuildingBlock: XIVTED_clean_linker_0, # of connection points: 2
#     Edge 16, Type (0, 0), BuildingBlock: XIVTED_clean_linker_0, # of connection points: 2
#     Edge 17, Type (0, 0), BuildingBlock: XIVTED_clean_linker_0, # of connection points: 2
#     Edge 18, Type (0, 0), BuildingBlock: XIVTED_clean_linker_0, # of connection points: 2
#     Edge 19, Type (0, 0), BuildingBlock: XIVTED_clean_linker_0, # of connection points: 2
#     Edge 20, Type (0, 0), BuildingBlock: XIVTED_clean_linker_0, # of connection points: 2
#     Edge 21, Type (0, 0), BuildingBlock: XIVTED_clean_linker_0, # of connection points: 2
#     Edge 22, Type (0, 0), BuildingBlock: XIVTED_clean_linker_0, # of connection points: 2
#     Edge 23, Type (0, 0), BuildingBlock: XIVTED_clean_linker_0, # of connection points: 2
#     Edge 24, Type (0, 0), BuildingBlock: XIVTED_clean_linker_0, # of connection points: 2
#     Edge 25, Type (0, 0), BuildingBlock: XIVTED_clean_linker_0, # of connection points: 2
#     Edge 26, Type (0, 0), BuildingBlock: XIVTED_clean_linker_0, # of connection points: 2
#     Edge 27, Type (0, 0), BuildingBlock: XIVTED_clean_linker_0, # of connection points: 2
#     Edge 28, Type (0, 0), BuildingBlock: XIVTED_clean_linker_0, # of connection points: 2
#     Edge 29, Type (0, 0), BuildingBlock: XIVTED_clean_linker_0, # of connection points: 2
#     Edge 30, Type (0, 0), BuildingBlock: XIVTED_clean_linker_0, # of connection points: 2
#     Edge 31, Type (0, 0), BuildingBlock: XIVTED_clean_linker_0, # of connection points: 2
#     Edge 32, Type (0, 0), BuildingBlock: XIVTED_clean_linker_0, # of connection points: 2
#     Edge 33, Type (0, 0), BuildingBlock: XIVTED_clean_linker_0, # of connection points: 2
#     Edge 34, Type (0, 0), BuildingBlock: XIVTED_clean_linker_0, # of connection points: 2
#     Edge 35, Type (0, 0), BuildingBlock: XIVTED_clean_linker_0, # of connection points: 2
# Relax obj value: 0.157
# Max RMSD: 0.166
# Mean RMSD: 0.161
data_MOF--net-uop--node1-QUQFOY_clean_sbu_3--edge1-XIVTED_clean_linker_0
_symmetry_space_group_name_H-M    P1
_symmetry_Int_Tables_number       1
_symmetry_cell_setting            triclinic
loop_
_symmetry_equiv_pos_as_xyz
'x, y, z'
_cell_length_a     33.002682
_cell_length_b     34.053914
_cell_length_c     48.973006
_cell_angle_alpha  89.734786
_cell_angle_beta   90.127649
_cell_angle_gamma 119.30051
loop_
_atom_site_label
_atom_site_type_symbol
_atom_site_fract_x
_atom_site_fract_y
_atom_site_fract_z
_atom_type_partial_charge
C0 C 0.13292 0.29487 0.14264 0.0
O1 O 0.14646 0.31318 0.11938 0.0
Cd2 Cd 0.21082 0.38737 0.11457 0.0
O3 O 0.15449 0.31517 0.16417 0.0
Cd4 Cd 0.22421 0.38419 0.17847 0.0
C5 C 0.18234 0.45155 0.1568 0.0
O6 O 0.27359 0.39001 0.14012 0.0
O7 O 0.29695 0.44938 0.16522 0.0
O8 O 0.24925 0.3394 0.20451 0.0
C9 C 0.30529 0.42936 0.14609 0.0
O10 O 0.18893 0.44085 0.13298 0.0
C11 C 0.24943 0.35544 0.22782 0.0
O12 O 0.18963 0.43388 0.17796 0.0
O13 O 0.23706 0.38541 0.22879 0.0
C14 C 0.85238 0.26712 0.59441 0.0
O15 O 0.82427 0.28254 0.5945 0.0
Cd16 Cd 0.76918 0.27167 0.55897 0.0
O17 O 0.85249 0.24279 0.57473 0.0
Cd18 Cd 0.81035 0.21411 0.53067 0.0
C19 C 0.85053 0.3214 0.50831 0.0
O20 O 0.73111 0.19595 0.54343 0.0
O21 O 0.74631 0.19977 0.50035 0.0
O22 O 0.80431 0.1416 0.54129 0.0
C23 C 0.71647 0.19096 0.51899 0.0
O24 O 0.81811 0.32052 0.52282 0.0
C25 C 0.81811 0.136 0.51821 0.0
O26 O 0.859 0.28857 0.50875 0.0
O27 O 0.83132 0.16828 0.50116 0.0
C28 C 0.67069 0.84148 0.82044 0.0
O29 O 0.65607 0.84356 0.79681 0.0
Cd30 Cd 0.58189 0.83845 0.79116 0.0
O31 O 0.64742 0.83974 0.84154 0.0
Cd32 Cd 0.57755 0.8435 0.85458 0.0
C33 C 0.51156 0.74113 0.82783 0.0
O34 O 0.57818 0.89427 0.81881 0.0
O35 O 0.51276 0.85195 0.83912 0.0
O36 O 0.62902 0.89845 0.88786 0.0
C37 C 0.53632 0.8843 0.82291 0.0
O38 O 0.52401 0.76196 0.80506 0.0
C39 C 0.60011 0.88519 0.90738 0.0
O40 O 0.52824 0.76188 0.85021 0.0
O41 O 0.56036 0.85152 0.90277 0.0
C42 C 0.80644 0.66232 0.1484 0.0
O43 O 0.79321 0.64725 0.12449 0.0
Cd44 Cd 0.72572 0.57603 0.11768 0.0
O45 O 0.78337 0.63998 0.16913 0.0
Cd46 Cd 0.71079 0.57121 0.18063 0.0
C47 C 0.74779 0.50263 0.15573 0.0
O48 O 0.66521 0.57805 0.14336 0.0
O49 O 0.63589 0.51359 0.16383 0.0
O50 O 0.7069 0.62257 0.21367 0.0
C51 C 0.63072 0.53926 0.1471 0.0
O52 O 0.74167 0.51612 0.13257 0.0
C53 C 0.68848 0.59409 0.2328 0.0
O54 O 0.74256 0.51961 0.1777 0.0
O55 O 0.68121 0.55447 0.22817 0.0
C56 C 0.07637 0.68299 0.59542 0.0
O57 O 0.10493 0.6681 0.595 0.0
Cd58 Cd 0.15938 0.68044 0.55891 0.0
O59 O 0.07569 0.70788 0.57609 0.0
Cd60 Cd 0.11744 0.73906 0.53209 0.0
C61 C 0.07678 0.63267 0.50864 0.0
O62 O 0.19681 0.75661 0.54397 0.0
O63 O 0.18083 0.7541 0.50105 0.0
O64 O 0.12349 0.81091 0.54426 0.0
C65 C 0.21097 0.76215 0.51942 0.0
O66 O 0.10944 0.63302 0.52273 0.0
C67 C 0.1095 0.81779 0.52151 0.0
O68 O 0.06836 0.6655 0.50965 0.0
O69 O 0.09631 0.78654 0.50389 0.0
C70 C 0.24815 0.09835 0.81968 0.0
O71 O 0.26457 0.0983 0.7963 0.0
Cd72 Cd 0.34024 0.10634 0.79079 0.0
O73 O 0.27062 0.09994 0.84118 0.0
Cd74 Cd 0.34198 0.09967 0.85508 0.0
C75 C 0.40814 0.20296 0.82791 0.0
O76 O 0.34784 0.05327 0.81921 0.0
O77 O 0.41059 0.09637 0.84175 0.0
O78 O 0.30021 0.03647 0.88625 0.0
C79 C 0.38999 0.06527 0.82439 0.0
O80 O 0.39642 0.18281 0.80499 0.0
C81 C 0.32081 0.05699 0.90785 0.0
O82 O 0.39109 0.18151 0.85014 0.0
O83 O 0.35133 0.09823 0.90522 0.0
C84 C 0.56109 0.68753 0.38962 0.0
O85 O 0.5174 0.67208 0.38987 0.0
Cd86 Cd 0.47431 0.68229 0.42612 0.0
O87 O 0.58628 0.71189 0.40918 0.0
Cd88 Cd 0.57428 0.74083 0.45341 0.0
C89 C 0.50888 0.63327 0.47562 0.0
O90 O 0.51215 0.7579 0.44181 0.0
O91 O 0.52439 0.75294 0.48467 0.0
O92 O 0.64009 0.81396 0.4423 0.0
C93 C 0.50285 0.76199 0.46644 0.0
O94 O 0.47641 0.63367 0.46173 0.0
C95 C 0.66048 0.82 0.46515 0.0
O96 O 0.5502 0.66658 0.47486 0.0
O97 O 0.64228 0.78772 0.48227 0.0
C98 C 0.8072 0.65312 0.84005 0.0
O99 O 0.80526 0.63631 0.8635 0.0
Cd100 Cd 0.79961 0.56415 0.8684 0.0
O101 O 0.80719 0.63214 0.81862 0.0
Cd102 Cd 0.80873 0.56364 0.80458 0.0
C103 C 0.70223 0.4957 0.82993 0.0
O104 O 0.86025 0.56551 0.84113 0.0
O105 O 0.8239 0.50361 0.81838 0.0
O106 O 0.86511 0.61687 0.77223 0.0
C107 C 0.85462 0.52678 0.83588 0.0
O108 O 0.72243 0.50732 0.85303 0.0
C109 C 0.85399 0.58983 0.75236 0.0
O110 O 0.72451 0.51342 0.80795 0.0
O111 O 0.82046 0.55027 0.75625 0.0
C112 C 0.12957 0.84857 0.17542 0.0
O113 O 0.14533 0.84722 0.19885 0.0
Cd114 Cd 0.21281 0.83894 0.20429 0.0
O115 O 0.15077 0.84776 0.15396 0.0
Cd116 Cd 0.22174 0.84753 0.13973 0.0
C117 C 0.18342 0.74346 0.16611 0.0
O118 O 0.27362 0.893 0.17616 0.0
O119 O 0.29437 0.85186 0.15286 0.0
O120 O 0.24308 0.91108 0.10891 0.0
C121 C 0.30427 0.88196 0.17079 0.0
O122 O 0.19202 0.76291 0.18925 0.0
C123 C 0.24246 0.89079 0.08713 0.0
O124 O 0.18806 0.76558 0.14414 0.0
O125 O 0.23167 0.8496 0.08952 0.0
C126 C 0.36564 0.25932 0.39051 0.0
O127 O 0.4079 0.26871 0.38942 0.0
Cd128 Cd 0.45113 0.2638 0.42753 0.0
O129 O 0.34151 0.24141 0.41192 0.0
Cd130 Cd 0.35177 0.21182 0.45683 0.0
C131 C 0.42052 0.31987 0.47513 0.0
O132 O 0.41102 0.19048 0.44644 0.0
O133 O 0.40107 0.19971 0.48896 0.0
O134 O 0.28432 0.14025 0.44564 0.0
C135 C 0.42113 0.18821 0.47121 0.0
O136 O 0.45085 0.31717 0.46039 0.0
C137 C 0.26432 0.1341 0.46861 0.0
O138 O 0.37894 0.28715 0.47656 0.0
O139 O 0.28344 0.16587 0.48587 0.0
C140 C 0.11393 0.28696 0.84003 0.0
O141 O 0.11488 0.30286 0.86354 0.0
Cd142 Cd 0.12261 0.37581 0.86865 0.0
O143 O 0.11563 0.30916 0.81868 0.0
Cd144 Cd 0.11577 0.37893 0.8052 0.0
C145 C 0.22166 0.44479 0.83144 0.0
O146 O 0.06386 0.37807 0.84113 0.0
O147 O 0.10432 0.44081 0.81946 0.0
O148 O 0.0586 0.32836 0.77239 0.0
C149 C 0.07212 0.41788 0.83627 0.0
O150 O 0.20071 0.43258 0.85432 0.0
C151 C 0.07169 0.35594 0.75259 0.0
O152 O 0.2 0.42783 0.80922 0.0
O153 O 0.10655 0.39456 0.75678 0.0
C154 C 0.80816 0.11103 0.16696 0.0
O155 O 0.79276 0.11018 0.19078 0.0
Cd156 Cd 0.72302 0.11363 0.19719 0.0
O157 O 0.78525 0.11117 0.14606 0.0
Cd158 Cd 0.71037 0.10539 0.13362 0.0
C159 C 0.74504 0.20823 0.15906 0.0
O160 O 0.66353 0.05518 0.17058 0.0
O161 O 0.63613 0.0934 0.14989 0.0
O162 O 0.70821 0.05087 0.1007 0.0
C163 C 0.62996 0.06269 0.16678 0.0
O164 O 0.73839 0.18854 0.18214 0.0
C165 C 0.69033 0.06198 0.08131 0.0
O166 O 0.7407 0.18681 0.13697 0.0
O167 O 0.68226 0.09425 0.08581 0.0
H168 H 0.16534 0.69014 0.12077 0.0
H169 H 0.17625 0.49282 0.20363 0.0
H170 H 0.17491 0.68737 0.20865 0.0
H171 H 0.16138 0.49383 0.11603 0.0
H172 H 0.16678 0.5596 0.20647 0.0
H173 H 0.15499 0.61407 0.11914 0.0
C174 C 0.16477 0.67342 0.13975 0.0
C175 C 0.17156 0.6955 0.16485 0.0
C176 C 0.16508 0.54488 0.18666 0.0
C177 C 0.16007 0.6084 0.16313 0.0
C178 C 0.17037 0.50665 0.18503 0.0
C179 C 0.17021 0.48793 0.15953 0.0
C180 C 0.15975 0.56463 0.16261 0.0
C181 C 0.16231 0.50732 0.13614 0.0
C182 C 0.1589 0.62994 0.13881 0.0
C183 C 0.17023 0.67192 0.18878 0.0
N184 N 0.15789 0.54479 0.13822 0.0
N185 N 0.16513 0.6299 0.1873 0.0
H186 H 0.67648 0.17734 0.4686 0.0
H187 H 0.45165 0.1841 0.52253 0.0
H188 H 0.64879 0.18517 0.55391 0.0
H189 H 0.47916 0.17469 0.43738 0.0
H190 H 0.52009 0.17788 0.53473 0.0
H191 H 0.60099 0.16968 0.45715 0.0
C192 C 0.65436 0.17714 0.48496 0.0
C193 C 0.66913 0.18231 0.51225 0.0
C194 C 0.511 0.17683 0.51339 0.0
C195 C 0.5826 0.17375 0.49924 0.0
C196 C 0.4719 0.18037 0.50639 0.0
C197 C 0.45991 0.18031 0.47886 0.0
C198 C 0.53847 0.17337 0.49271 0.0
C199 C 0.48725 0.17512 0.45884 0.0
C200 C 0.61121 0.17275 0.4784 0.0
C201 C 0.63886 0.18148 0.5326 0.0
N202 N 0.52545 0.17221 0.46616 0.0
N203 N 0.59717 0.17767 0.52566 0.0
H204 H 0.46998 0.68627 0.78398 0.0
H205 H 0.27907 0.48616 0.87486 0.0
H206 H 0.46974 0.68621 0.87216 0.0
H207 H 0.27514 0.4893 0.78677 0.0
H208 H 0.35469 0.55425 0.87402 0.0
H209 H 0.40469 0.60968 0.78454 0.0
C210 C 0.4565 0.67006 0.8035 0.0
C211 C 0.47516 0.69304 0.82809 0.0
C212 C 0.33754 0.53983 0.85485 0.0
C213 C 0.40004 0.6051 0.82881 0.0
C214 C 0.29431 0.50083 0.85529 0.0
C215 C 0.27032 0.48216 0.83084 0.0
C216 C 0.35705 0.56059 0.8298 0.0
C217 C 0.29213 0.50258 0.80613 0.0
C218 C 0.41914 0.62624 0.80377 0.0
C219 C 0.45635 0.67002 0.8527 0.0
N220 N 0.33402 0.54095 0.80627 0.0
N221 N 0.41958 0.62749 0.85243 0.0
H222 H 0.75686 0.45953 0.20106 0.0
H223 H 0.75686 0.26123 0.11396 0.0
H224 H 0.76017 0.45807 0.11294 0.0
H225 H 0.75541 0.26349 0.2021 0.0
H226 H 0.76567 0.33681 0.11324 0.0
H227 H 0.76407 0.39142 0.20195 0.0
C228 C 0.7596 0.44523 0.1819 0.0
C229 C 0.75745 0.46443 0.15689 0.0
C230 C 0.7638 0.3209 0.13275 0.0
C231 C 0.76537 0.38615 0.15776 0.0
C232 C 0.75881 0.27771 0.13317 0.0
C233 C 0.75494 0.25568 0.15812 0.0
C234 C 0.76477 0.34223 0.15745 0.0
C235 C 0.75789 0.27891 0.18235 0.0
C236 C 0.76362 0.40624 0.18242 0.0
C237 C 0.7613 0.44436 0.13272 0.0
N238 N 0.76224 0.32069 0.1814 0.0
N239 N 0.76467 0.40618 0.13377 0.0
H240 H 0.44297 0.77241 0.43211 0.0
H241 H 0.28014 0.76999 0.55391 0.0
H242 H 0.47381 0.76887 0.51749 0.0
H243 H 0.24844 0.77185 0.46851 0.0
H244 H 0.35477 0.77643 0.54105 0.0
H245 H 0.37501 0.77903 0.44507 0.0
C246 C 0.43566 0.77338 0.45357 0.0
C247 C 0.46387 0.7697 0.47374 0.0
C248 C 0.33162 0.77575 0.52513 0.0
C249 C 0.3861 0.77708 0.48875 0.0
C250 C 0.28904 0.77214 0.53247 0.0
C251 C 0.25787 0.77 0.51225 0.0
C252 C 0.34305 0.77715 0.49737 0.0
C253 C 0.27127 0.77305 0.48479 0.0
C254 C 0.39683 0.77711 0.46097 0.0
C255 C 0.45283 0.77128 0.50125 0.0
N256 N 0.31268 0.77617 0.47815 0.0
N257 N 0.41467 0.77456 0.50793 0.0
H258 H 0.44802 0.25681 0.87266 0.0
H259 H 0.64899 0.45421 0.7847 0.0
H260 H 0.45239 0.25856 0.78452 0.0
H261 H 0.64419 0.45221 0.87283 0.0
H262 H 0.57209 0.38718 0.78403 0.0
H263 H 0.51477 0.33283 0.87297 0.0
C264 C 0.46262 0.2733 0.85337 0.0
C265 C 0.4448 0.25094 0.82855 0.0
C266 C 0.58769 0.4017 0.80351 0.0
C267 C 0.52154 0.33795 0.82874 0.0
C268 C 0.6316 0.44006 0.8039 0.0
C269 C 0.65343 0.45865 0.82886 0.0
C270 C 0.56548 0.38168 0.82825 0.0
C271 C 0.62903 0.43886 0.85308 0.0
C272 C 0.50083 0.31673 0.85355 0.0
C273 C 0.46514 0.27421 0.80418 0.0
N274 N 0.58664 0.40128 0.85217 0.0
N275 N 0.50264 0.3162 0.8049 0.0
H276 H 0.59756 0.59344 0.12801 0.0
H277 H 0.34142 0.38609 0.11656 0.0
H278 H 0.56161 0.45403 0.13725 0.0
H279 H 0.37415 0.51704 0.14716 0.0
H280 H 0.42318 0.41594 0.10439 0.0
H281 H 0.51678 0.56937 0.11546 0.0
C282 C 0.57293 0.55779 0.12668 0.0
C283 C 0.58563 0.52555 0.13425 0.0
C284 C 0.41209 0.4383 0.11314 0.0
C285 C 0.49427 0.49814 0.11968 0.0
C286 C 0.36559 0.42138 0.12009 0.0
C287 C 0.35152 0.44896 0.13354 0.0
C288 C 0.44428 0.48304 0.11949 0.0
C289 C 0.38399 0.49448 0.1374 0.0
C290 C 0.52704 0.54417 0.11956 0.0
C291 C 0.55272 0.47984 0.1321 0.0
N292 N 0.42919 0.51005 0.13075 0.0
N293 N 0.50825 0.46743 0.12529 0.0
H294 H -0.01321 0.60306 0.49199 0.0
H295 H 0.94009 0.35155 0.49068 0.0
H296 H 0.09418 0.56556 0.49308 0.0
H297 H 0.83278 0.38901 0.49402 0.0
H298 H -0.00376 0.42926 0.47835 0.0
H299 H 0.9303 0.52569 0.47952 0.0
C300 C -0.00127 0.57891 0.4889 0.0
C301 C 0.045 0.59047 0.49428 0.0
C302 C 0.96019 0.42025 0.48123 0.0
C303 C -0.01942 0.50184 0.48044 0.0
C304 C 0.92807 0.37578 0.48813 0.0
C305 C 0.88197 0.36407 0.49409 0.0
C306 C 0.946 0.45308 0.4804 0.0
C307 C 0.86828 0.39684 0.49028 0.0
C308 C -0.03357 0.53463 0.48192 0.0
C309 C 0.05858 0.55782 0.4898 0.0
N310 N 0.90029 0.43998 0.48419 0.0
N311 N 0.02639 0.51484 0.48366 0.0
H312 H 0.48312 0.09625 0.82145 0.0
H313 H 0.44495 0.85505 0.81324 0.0
H314 H 0.35074 -0.0161 0.79871 0.0
H315 H 0.58116 0.97092 0.80407 0.0
H316 H 0.4102 0.90146 0.80097 0.0
H317 H 0.52099 0.05308 0.80838 0.0
C318 C 0.46215 0.0627 0.81327 0.0
C319 C 0.41369 0.04302 0.81181 0.0
C320 C 0.4477 0.91662 0.80098 0.0
C321 C 0.45655 -0.00662 0.79716 0.0
C322 C 0.4675 0.89019 0.80816 0.0
C323 C 0.51584 0.90964 0.81028 0.0
C324 C 0.47652 0.96299 0.79671 0.0
C325 C 0.54364 0.95496 0.80301 0.0
C326 C 0.48379 0.03818 0.80563 0.0
C327 C 0.38816 -8e-05 0.80057 0.0
N328 N 0.52353 -0.01947 0.79721 0.0
N329 N 0.40981 -0.02399 0.79427 0.0
H330 H 0.56979 0.60355 0.49025 0.0
H331 H 0.36308 0.35074 0.49456 0.0
H332 H 0.42433 0.5652 0.49157 0.0
H333 H 0.50779 0.38925 0.4848 0.0
H334 H 0.38615 0.42867 0.50643 0.0
H335 H 0.54896 0.52578 0.50148 0.0
C336 C 0.53361 0.5791 0.49363 0.0
C337 C 0.49867 0.59059 0.48932 0.0
C338 C 0.41288 0.41986 0.50218 0.0
C339 C 0.47452 0.50157 0.50175 0.0
C340 C 0.3997 0.37531 0.49549 0.0
C341 C 0.43348 0.36371 0.48802 0.0
C342 C 0.46012 0.4529 0.50133 0.0
C343 C 0.48048 0.39691 0.48978 0.0
C344 C 0.52166 0.53461 0.49987 0.0
C345 C 0.45233 0.55754 0.49408 0.0
N346 N 0.49235 0.44009 0.49582 0.0
N347 N 0.44155 0.5144 0.49955 0.0
H348 H 0.93558 0.57519 0.86423 0.0
H349 H 0.09436 0.50582 0.84012 0.0
H350 H 0.84157 0.44144 0.83495 0.0
H351 H -0.0142 0.37111 0.85898 0.0
H352 H 0.04187 0.53436 0.85164 0.0
H353 H -0.00861 0.55022 0.87642 0.0
C354 C 0.92646 0.54044 0.86072 0.0
C355 C 0.88464 0.5106 0.84782 0.0
C356 C 0.02991 0.49878 0.85426 0.0
C357 C 0.94814 0.48224 0.86125 0.0
C358 C 0.05973 0.48241 0.84734 0.0
C359 C 0.04397 0.43603 0.84817 0.0
C360 C -0.01616 0.46834 0.8616 0.0
C361 C -0.00096 0.40711 0.85785 0.0
C362 C 0.95839 0.52635 0.86751 0.0
C363 C 0.87403 0.46578 0.8442 0.0
N364 N -0.02999 0.42364 0.86351 0.0
N365 N 0.90591 0.45306 0.85057 0.0
H366 H 0.34488 0.96187 0.19813 0.0
H367 H 0.5925 -0.02245 0.18765 0.0
H368 H 0.36801 0.85317 0.17283 0.0
H369 H 0.56651 0.08927 0.17787 0.0
H370 H 0.51159 0.93021 0.20217 0.0
H371 H 0.42697 0.00562 0.21079 0.0
C372 C 0.36699 0.94683 0.19586 0.0
C373 C 0.35029 0.90455 0.18366 0.0
C374 C 0.5241 0.96542 0.19752 0.0
C375 C 0.44335 0.95392 0.19822 0.0
C376 C 0.57007 -0.00766 0.18926 0.0
C377 C 0.58541 0.0368 0.18087 0.0
C378 C 0.49395 -0.01648 0.1976 0.0
C379 C 0.5554 0.05469 0.18351 0.0
C380 C 0.41367 0.97174 0.2031 0.0
C381 C 0.38004 0.88625 0.18148 0.0
N382 N 0.51077 0.02776 0.19132 0.0
N383 N 0.42547 0.91139 0.18828 0.0
H384 H 0.29679 0.3089 0.22871 0.0
H385 H 0.28999 0.27277 0.38981 0.0
H386 H 0.23679 0.36695 0.28233 0.0
H387 H 0.39513 0.27279 0.33756 0.0
H388 H 0.25995 0.29602 0.35056 0.0
H389 H 0.32283 0.28393 0.26843 0.0
C390 C 0.28893 0.3163 0.24888 0.0
C391 C 0.26466 0.34019 0.2522 0.0
C392 C 0.28953 0.29082 0.34779 0.0
C393 C 0.2942 0.31123 0.29788 0.0
C394 C 0.30648 0.27727 0.37007 0.0
C395 C 0.34514 0.27083 0.36694 0.0
C396 C 0.31085 0.29705 0.32216 0.0
C397 C 0.36539 0.2775 0.34096 0.0
C398 C 0.30398 0.30213 0.27155 0.0
C399 C 0.2556 0.34883 0.27887 0.0
N400 N 0.34787 0.28999 0.31959 0.0
N401 N 0.2702 0.33413 0.30077 0.0
H402 H 0.89612 0.22111 0.61267 0.0
H403 H 0.06591 0.41284 0.71507 0.0
H404 H 0.88772 0.34198 0.62649 0.0
H405 H 0.01666 0.27211 0.7316 0.0
H406 H 0.01451 0.39151 0.67506 0.0
H407 H 0.9537 0.24343 0.64961 0.0
C408 C 0.90646 0.25234 0.62342 0.0
C409 C 0.88684 0.27955 0.6167 0.0
C410 C 0.01537 0.36542 0.68737 0.0
C411 C 0.95321 0.30564 0.6583 0.0
C412 C 0.04486 0.37753 0.71002 0.0
C413 C 0.04531 0.34415 0.72669 0.0
C414 C -0.01301 0.3197 0.68106 0.0
C415 C 0.0171 0.29886 0.71935 0.0
C416 C 0.93919 0.26498 0.64445 0.0
C417 C 0.90156 0.31975 0.63123 0.0
N418 N -0.01087 0.28792 0.69702 0.0
N419 N 0.93409 0.33174 0.65122 0.0
H420 H 0.54165 0.89192 0.94437 0.0
H421 H 0.73173 0.01794 0.05826 0.0
H422 H 0.68606 0.93352 0.93011 0.0
H423 H 0.62122 0.04911 0.04532 0.0
H424 H 0.70941 0.97406 0.01593 0.0
H425 H 0.5638 0.93637 0.98668 0.0
C426 C 0.57789 0.91001 0.9503 0.0
C427 C 0.61213 0.90912 0.93379 0.0
C428 C 0.6902 -0.00935 0.02236 0.0
C429 C 0.6374 0.95927 0.982 0.0
C430 C 0.70282 0.01558 0.04646 0.0
C431 C 0.6784 0.03734 0.05516 0.0
C432 C 0.65208 -0.01362 0.00728 0.0
C433 C 0.64117 0.03316 0.03915 0.0
C434 C 0.59048 0.93555 0.97425 0.0
C435 C 0.65864 0.93345 0.94225 0.0
N436 N 0.62874 0.0077 0.01609 0.0
N437 N 0.66991 0.95723 0.9659 0.0
H438 H 0.65153 0.73162 0.37177 0.0
H439 H 0.62128 0.53828 0.2688 0.0
H440 H 0.51907 0.61347 0.35693 0.0
H441 H 0.72145 0.67789 0.2546 0.0
H442 H 0.59168 0.56081 0.30825 0.0
H443 H 0.68559 0.70805 0.33508 0.0
C444 C 0.62966 0.70077 0.36082 0.0
C445 C 0.58232 0.67467 0.36723 0.0
C446 C 0.62038 0.58638 0.29657 0.0
C447 C 0.62121 0.64712 0.32588 0.0
C448 C 0.63747 0.57355 0.27423 0.0
C449 C 0.67369 0.60631 0.25837 0.0
C450 C 0.6403 0.63215 0.30338 0.0
C451 C 0.69326 0.65161 0.2662 0.0
C452 C 0.64909 0.6874 0.33994 0.0
C453 C 0.55559 0.63489 0.35245 0.0
N454 N 0.67639 0.66322 0.2882 0.0
N455 N 0.57546 0.62217 0.3326 0.0
H456 H 0.04395 0.60788 0.62752 0.0
H457 H 0.90637 0.67477 0.73183 0.0
H458 H 0.02986 0.72596 0.61404 0.0
H459 H 0.86481 0.53583 0.71522 0.0
H460 H 0.9582 0.6974 0.69211 0.0
H461 H -0.01444 0.58405 0.66374 0.0
C462 C 0.02877 0.62894 0.63229 0.0
C463 C 0.04193 0.66909 0.61782 0.0
C464 C 0.93734 0.66196 0.69702 0.0
C465 C -0.02467 0.64205 0.65933 0.0
C466 C 0.90785 0.64902 0.71966 0.0
C467 C 0.88128 0.60335 0.72678 0.0
C468 C 0.9412 0.6291 0.68186 0.0
C469 C 0.88452 0.57136 0.71034 0.0
C470 C -0.00481 0.6151 0.65279 0.0
C471 C 0.02071 0.69478 0.62469 0.0
N472 N 0.9145 0.58489 0.68886 0.0
N473 N -0.01122 0.68107 0.64518 0.0
H474 H 0.23217 0.85472 0.03585 0.0
H475 H 0.34923 0.0933 0.95893 0.0
H476 H 0.27961 -0.01894 0.07763 0.0
H477 H 0.26781 0.9667 0.91758 0.0
H478 H 0.33063 0.05281 0.00264 0.0
H479 H 0.25164 0.89526 0.99214 0.0
C480 C 0.24673 0.89095 0.03584 0.0
C481 C 0.25415 0.9145 0.06043 0.0
C482 C 0.31679 0.03394 0.98399 0.0
C483 C 0.27679 0.96113 0.01055 0.0
C484 C 0.32748 0.05703 0.95904 0.0
C485 C 0.30996 0.03339 0.93457 0.0
C486 C 0.28884 -0.01318 0.98445 0.0
C487 C 0.28193 -0.01365 0.93594 0.0
C488 C 0.25773 0.91407 0.0109 0.0
C489 C 0.27311 0.96148 0.05918 0.0
N490 N 0.2724 0.96463 0.96042 0.0
N491 N 0.28391 -0.01676 0.0347 0.0
H492 H 0.87063 0.11923 0.20657 0.0
H493 H 0.07529 0.24275 0.10164 0.0
H494 H 0.85318 0.11691 0.11905 0.0
H495 H 0.09229 0.24749 0.18925 0.0
H496 H -0.00276 0.17896 0.10703 0.0
H497 H 0.95347 0.14707 0.19996 0.0
C498 C 0.88403 0.12374 0.18594 0.0
C499 C 0.8553 0.11732 0.16334 0.0
C500 C 0.01835 0.19343 0.12505 0.0
C501 C 0.94999 0.14959 0.15567 0.0
C502 C 0.06291 0.22995 0.12199 0.0
C503 C 0.08971 0.2514 0.14509 0.0
C504 C 0.00042 0.17871 0.1514 0.0
C505 C 0.07232 0.23275 0.1709 0.0
C506 C 0.93137 0.13963 0.18218 0.0
C507 C 0.87434 0.1227 0.1371 0.0
N508 N 0.02837 0.19802 0.1734 0.0
N509 N 0.92073 0.1395 0.13399 0.0
H510 H 0.8263 0.10693 0.46741 0.0
H511 H 0.69979 0.84965 0.51559 0.0
H512 H 0.79625 0.06354 0.55142 0.0
H513 H 0.70925 0.89277 0.43173 0.0
H514 H 0.75239 0.92774 0.52872 0.0
H515 H 0.80114 0.02916 0.45406 0.0
C516 C 0.8154 0.08126 0.48312 0.0
C517 C 0.8127 0.09165 0.51052 0.0
C518 C 0.74357 0.91999 0.50738 0.0
C519 C 0.78344 0.00253 0.49536 0.0
C520 C 0.71372 0.87535 0.49985 0.0
C521 C 0.69952 0.86475 0.47258 0.0
C522 C 0.75936 0.95424 0.48749 0.0
C523 C 0.71878 0.89948 0.45305 0.0
C524 C 0.8008 0.0368 0.47547 0.0
C525 C 0.79835 0.05698 0.53 0.0
N526 N 0.7472 0.9427 0.46093 0.0
N527 N 0.7837 0.01391 0.52202 0.0
H528 H 0.81479 0.7006 0.79334 0.0
H529 H 0.7136 0.83883 0.86771 0.0
H530 H 0.79915 0.70383 0.88072 0.0
H531 H 0.72022 0.82835 0.78016 0.0
H532 H 0.76648 0.80852 0.87293 0.0
H533 H 0.80139 0.76461 0.78864 0.0
C534 C 0.80911 0.71511 0.81159 0.0
C535 C 0.80666 0.696 0.83741 0.0
C536 C 0.75711 0.81367 0.85255 0.0
C537 C 0.7912 0.76914 0.83213 0.0
C538 C 0.7269 0.83101 0.84954 0.0
C539 C 0.71125 0.83463 0.82348 0.0
C540 C 0.77123 0.79945 0.82936 0.0
C541 C 0.7305 0.82505 0.80067 0.0
C542 C 0.80163 0.75179 0.80889 0.0
C543 C 0.80028 0.71684 0.86036 0.0
N544 N 0.7587 0.80689 0.80417 0.0
N545 N 0.7919 0.75181 0.85713 0.0
H546 H 0.86447 0.72009 0.10927 0.0
H547 H 0.06707 0.83522 0.2161 0.0
H548 H 0.84688 0.70265 0.19666 0.0
H549 H 0.08526 0.85062 0.12867 0.0
H550 H -0.01612 0.80584 0.20991 0.0
H551 H 0.94132 0.78478 0.1165 0.0
C552 C 0.87654 0.73015 0.12998 0.0
C553 C 0.84987 0.7051 0.15238 0.0
C554 C 0.0062 0.81656 0.19211 0.0
C555 C 0.93774 0.77895 0.16079 0.0
C556 C 0.05378 0.83348 0.19564 0.0
C557 C 0.08283 0.84371 0.17279 0.0
C558 C -0.01223 0.8095 0.16556 0.0
C559 C 0.06386 0.84173 0.14683 0.0
C560 C 0.92035 0.76725 0.13411 0.0
C561 C 0.86677 0.72031 0.17877 0.0
N562 N 0.01729 0.8238 0.14386 0.0
N563 N 0.91003 0.75577 0.18224 0.0
H564 H 0.1301 0.88776 0.55624 0.0
H565 H 0.21135 0.06408 0.43455 0.0
H566 H 0.10185 0.85012 0.47146 0.0
H567 H 0.22872 0.10177 0.51952 0.0
H568 H 0.1593 -0.01398 0.44777 0.0
H569 H 0.15409 0.96555 0.54364 0.0
C570 C 0.1281 0.89569 0.53501 0.0
C571 C 0.11458 0.86246 0.51482 0.0
C572 C 0.17376 0.01141 0.46354 0.0
C573 C 0.14275 0.95178 0.50016 0.0
C574 C 0.20345 0.05609 0.45599 0.0
C575 C 0.22497 0.08944 0.47599 0.0
C576 C 0.16597 -0.00021 0.49134 0.0
C577 C 0.21316 0.07713 0.50342 0.0
C578 C 0.14189 0.94021 0.52781 0.0
C579 C 0.11236 0.87468 0.48767 0.0
N580 N 0.18514 0.03317 0.51033 0.0
N581 N 0.12709 0.91848 0.48109 0.0
H582 H 0.11289 0.23107 0.8808 0.0
H583 H 0.19754 0.10836 0.77845 0.0
H584 H 0.11331 0.24371 0.79299 0.0
H585 H 0.20431 0.1014 0.8663 0.0
H586 H 0.1444 0.13843 0.78334 0.0
H587 H 0.1247 0.16617 0.87567 0.0
C588 C 0.11485 0.21986 0.86043 0.0
C589 C 0.11357 0.24368 0.8373 0.0
C590 C 0.15673 0.12943 0.80155 0.0
C591 C 0.12722 0.16959 0.83129 0.0
C592 C 0.18702 0.11213 0.79877 0.0
C593 C 0.20672 0.10395 0.82202 0.0
C594 C 0.14656 0.13891 0.82773 0.0
C595 C 0.19105 0.10855 0.8478 0.0
C596 C 0.12144 0.18269 0.85751 0.0
C597 C 0.11529 0.22705 0.81142 0.0
N598 N 0.16271 0.12675 0.84998 0.0
N599 N 0.1229 0.19151 0.80912 0.0
loop_
_geom_bond_atom_site_label_1
_geom_bond_atom_site_label_2
_geom_bond_distance
_geom_bond_site_symmetry_2
_ccdc_geom_bond_type
C0 O1 1.306 . S
C0 O3 1.160 . S
O1 C0 1.306 . S
O1 Cd2 2.228 . S
Cd2 O1 2.228 . S
Cd2 O6 2.273 . S
Cd2 O10 2.277 . S
O3 C0 1.160 . S
O3 Cd4 2.203 . S
Cd4 O3 2.203 . S
Cd4 O6 2.411 . S
Cd4 O7 2.333 . S
Cd4 O8 2.352 . S
Cd4 O12 2.277 . S
Cd4 O13 2.356 . S
C5 O10 1.209 . S
C5 O12 1.226 . S
O6 Cd2 2.273 . S
O6 Cd4 2.411 . S
O6 C9 1.320 . S
O7 Cd4 2.333 . S
O7 C9 1.214 . S
O8 Cd4 2.352 . S
O8 C11 1.258 . S
C9 O6 1.320 . S
C9 O7 1.214 . S
O10 Cd2 2.277 . S
O10 C5 1.209 . S
C11 O8 1.258 . S
C11 O13 1.282 . S
O12 Cd4 2.277 . S
O12 C5 1.226 . S
O13 Cd4 2.356 . S
O13 C11 1.282 . S
C14 O15 1.306 . S
C14 O17 1.160 . S
O15 C14 1.306 . S
O15 Cd16 2.228 . S
Cd16 O15 2.228 . S
Cd16 O20 2.273 . S
Cd16 O24 2.277 . S
O17 C14 1.160 . S
O17 Cd18 2.203 . S
Cd18 O17 2.203 . S
Cd18 O20 2.411 . S
Cd18 O21 2.333 . S
Cd18 O22 2.352 . S
Cd18 O26 2.277 . S
Cd18 O27 2.356 . S
C19 O24 1.209 . S
C19 O26 1.226 . S
O20 Cd16 2.273 . S
O20 Cd18 2.411 . S
O20 C23 1.320 . S
O21 Cd18 2.333 . S
O21 C23 1.214 . S
O22 Cd18 2.352 . S
O22 C25 1.258 . S
C23 O20 1.320 . S
C23 O21 1.214 . S
O24 Cd16 2.277 . S
O24 C19 1.209 . S
C25 O22 1.258 . S
C25 O27 1.282 . S
O26 Cd18 2.277 . S
O26 C19 1.226 . S
O27 Cd18 2.356 . S
O27 C25 1.282 . S
C28 O29 1.306 . S
C28 O31 1.160 . S
O29 C28 1.306 . S
O29 Cd30 2.228 . S
Cd30 O29 2.228 . S
Cd30 O34 2.273 . S
Cd30 O38 2.277 . S
O31 C28 1.160 . S
O31 Cd32 2.203 . S
Cd32 O31 2.203 . S
Cd32 O34 2.411 . S
Cd32 O35 2.333 . S
Cd32 O36 2.352 . S
Cd32 O40 2.277 . S
Cd32 O41 2.356 . S
C33 O38 1.209 . S
C33 O40 1.226 . S
O34 Cd30 2.273 . S
O34 Cd32 2.411 . S
O34 C37 1.320 . S
O35 Cd32 2.333 . S
O35 C37 1.214 . S
O36 Cd32 2.352 . S
O36 C39 1.258 . S
C37 O34 1.320 . S
C37 O35 1.214 . S
O38 Cd30 2.277 . S
O38 C33 1.209 . S
C39 O36 1.258 . S
C39 O41 1.282 . S
O40 Cd32 2.277 . S
O40 C33 1.226 . S
O41 Cd32 2.356 . S
O41 C39 1.282 . S
C42 O43 1.306 . S
C42 O45 1.160 . S
O43 C42 1.306 . S
O43 Cd44 2.228 . S
Cd44 O43 2.228 . S
Cd44 O48 2.273 . S
Cd44 O52 2.277 . S
O45 C42 1.160 . S
O45 Cd46 2.203 . S
Cd46 O45 2.203 . S
Cd46 O48 2.411 . S
Cd46 O49 2.333 . S
Cd46 O50 2.352 . S
Cd46 O54 2.277 . S
Cd46 O55 2.356 . S
C47 O52 1.209 . S
C47 O54 1.226 . S
O48 Cd44 2.273 . S
O48 Cd46 2.411 . S
O48 C51 1.320 . S
O49 Cd46 2.333 . S
O49 C51 1.214 . S
O50 Cd46 2.352 . S
O50 C53 1.258 . S
C51 O48 1.320 . S
C51 O49 1.214 . S
O52 Cd44 2.277 . S
O52 C47 1.209 . S
C53 O50 1.258 . S
C53 O55 1.282 . S
O54 Cd46 2.277 . S
O54 C47 1.226 . S
O55 Cd46 2.356 . S
O55 C53 1.282 . S
C56 O57 1.306 . S
C56 O59 1.160 . S
O57 C56 1.306 . S
O57 Cd58 2.228 . S
Cd58 O57 2.228 . S
Cd58 O62 2.273 . S
Cd58 O66 2.277 . S
O59 C56 1.160 . S
O59 Cd60 2.203 . S
Cd60 O59 2.203 . S
Cd60 O62 2.411 . S
Cd60 O63 2.333 . S
Cd60 O64 2.352 . S
Cd60 O68 2.277 . S
Cd60 O69 2.356 . S
C61 O66 1.209 . S
C61 O68 1.226 . S
O62 Cd58 2.273 . S
O62 Cd60 2.411 . S
O62 C65 1.320 . S
O63 Cd60 2.333 . S
O63 C65 1.214 . S
O64 Cd60 2.352 . S
O64 C67 1.258 . S
C65 O62 1.320 . S
C65 O63 1.214 . S
O66 Cd58 2.277 . S
O66 C61 1.209 . S
C67 O64 1.258 . S
C67 O69 1.282 . S
O68 Cd60 2.277 . S
O68 C61 1.226 . S
O69 Cd60 2.356 . S
O69 C67 1.282 . S
C70 O71 1.306 . S
C70 O73 1.160 . S
O71 C70 1.306 . S
O71 Cd72 2.228 . S
Cd72 O71 2.228 . S
Cd72 O76 2.273 . S
Cd72 O80 2.277 . S
O73 C70 1.160 . S
O73 Cd74 2.203 . S
Cd74 O73 2.203 . S
Cd74 O76 2.411 . S
Cd74 O77 2.333 . S
Cd74 O78 2.352 . S
Cd74 O82 2.277 . S
Cd74 O83 2.356 . S
C75 O80 1.209 . S
C75 O82 1.226 . S
O76 Cd72 2.273 . S
O76 Cd74 2.411 . S
O76 C79 1.320 . S
O77 Cd74 2.333 . S
O77 C79 1.214 . S
O78 Cd74 2.352 . S
O78 C81 1.258 . S
C79 O76 1.320 . S
C79 O77 1.214 . S
O80 Cd72 2.277 . S
O80 C75 1.209 . S
C81 O78 1.258 . S
C81 O83 1.282 . S
O82 Cd74 2.277 . S
O82 C75 1.226 . S
O83 Cd74 2.356 . S
O83 C81 1.282 . S
C84 O85 1.306 . S
C84 O87 1.160 . S
O85 C84 1.306 . S
O85 Cd86 2.228 . S
Cd86 O85 2.228 . S
Cd86 O90 2.273 . S
Cd86 O94 2.277 . S
O87 C84 1.160 . S
O87 Cd88 2.203 . S
Cd88 O87 2.203 . S
Cd88 O90 2.411 . S
Cd88 O91 2.333 . S
Cd88 O92 2.352 . S
Cd88 O96 2.277 . S
Cd88 O97 2.356 . S
C89 O94 1.209 . S
C89 O96 1.226 . S
O90 Cd86 2.273 . S
O90 Cd88 2.411 . S
O90 C93 1.320 . S
O91 Cd88 2.333 . S
O91 C93 1.214 . S
O92 Cd88 2.352 . S
O92 C95 1.258 . S
C93 O90 1.320 . S
C93 O91 1.214 . S
O94 Cd86 2.277 . S
O94 C89 1.209 . S
C95 O92 1.258 . S
C95 O97 1.282 . S
O96 Cd88 2.277 . S
O96 C89 1.226 . S
O97 Cd88 2.356 . S
O97 C95 1.282 . S
C98 O99 1.306 . S
C98 O101 1.160 . S
O99 C98 1.306 . S
O99 Cd100 2.228 . S
Cd100 O99 2.228 . S
Cd100 O104 2.273 . S
Cd100 O108 2.277 . S
O101 C98 1.160 . S
O101 Cd102 2.203 . S
Cd102 O101 2.203 . S
Cd102 O104 2.411 . S
Cd102 O105 2.333 . S
Cd102 O106 2.352 . S
Cd102 O110 2.277 . S
Cd102 O111 2.356 . S
C103 O108 1.209 . S
C103 O110 1.226 . S
O104 Cd100 2.273 . S
O104 Cd102 2.411 . S
O104 C107 1.320 . S
O105 Cd102 2.333 . S
O105 C107 1.214 . S
O106 Cd102 2.352 . S
O106 C109 1.258 . S
C107 O104 1.320 . S
C107 O105 1.214 . S
O108 Cd100 2.277 . S
O108 C103 1.209 . S
C109 O106 1.258 . S
C109 O111 1.282 . S
O110 Cd102 2.277 . S
O110 C103 1.226 . S
O111 Cd102 2.356 . S
O111 C109 1.282 . S
C112 O113 1.306 . S
C112 O115 1.160 . S
O113 C112 1.306 . S
O113 Cd114 2.228 . S
Cd114 O113 2.228 . S
Cd114 O118 2.273 . S
Cd114 O122 2.277 . S
O115 C112 1.160 . S
O115 Cd116 2.203 . S
Cd116 O115 2.203 . S
Cd116 O118 2.411 . S
Cd116 O119 2.333 . S
Cd116 O120 2.352 . S
Cd116 O124 2.277 . S
Cd116 O125 2.356 . S
C117 O122 1.209 . S
C117 O124 1.226 . S
O118 Cd114 2.273 . S
O118 Cd116 2.411 . S
O118 C121 1.320 . S
O119 Cd116 2.333 . S
O119 C121 1.214 . S
O120 Cd116 2.352 . S
O120 C123 1.258 . S
C121 O118 1.320 . S
C121 O119 1.214 . S
O122 Cd114 2.277 . S
O122 C117 1.209 . S
C123 O120 1.258 . S
C123 O125 1.282 . S
O124 Cd116 2.277 . S
O124 C117 1.226 . S
O125 Cd116 2.356 . S
O125 C123 1.282 . S
C126 O127 1.306 . S
C126 O129 1.160 . S
O127 C126 1.306 . S
O127 Cd128 2.228 . S
Cd128 O127 2.228 . S
Cd128 O132 2.273 . S
Cd128 O136 2.277 . S
O129 C126 1.160 . S
O129 Cd130 2.203 . S
Cd130 O129 2.203 . S
Cd130 O132 2.411 . S
Cd130 O133 2.333 . S
Cd130 O134 2.352 . S
Cd130 O138 2.277 . S
Cd130 O139 2.356 . S
C131 O136 1.209 . S
C131 O138 1.226 . S
O132 Cd128 2.273 . S
O132 Cd130 2.411 . S
O132 C135 1.320 . S
O133 Cd130 2.333 . S
O133 C135 1.214 . S
O134 Cd130 2.352 . S
O134 C137 1.258 . S
C135 O132 1.320 . S
C135 O133 1.214 . S
O136 Cd128 2.277 . S
O136 C131 1.209 . S
C137 O134 1.258 . S
C137 O139 1.282 . S
O138 Cd130 2.277 . S
O138 C131 1.226 . S
O139 Cd130 2.356 . S
O139 C137 1.282 . S
C140 O141 1.306 . S
C140 O143 1.160 . S
O141 C140 1.306 . S
O141 Cd142 2.228 . S
Cd142 O141 2.228 . S
Cd142 O146 2.273 . S
Cd142 O150 2.277 . S
O143 C140 1.160 . S
O143 Cd144 2.203 . S
Cd144 O143 2.203 . S
Cd144 O146 2.411 . S
Cd144 O147 2.333 . S
Cd144 O148 2.352 . S
Cd144 O152 2.277 . S
Cd144 O153 2.356 . S
C145 O150 1.209 . S
C145 O152 1.226 . S
O146 Cd142 2.273 . S
O146 Cd144 2.411 . S
O146 C149 1.320 . S
O147 Cd144 2.333 . S
O147 C149 1.214 . S
O148 Cd144 2.352 . S
O148 C151 1.258 . S
C149 O146 1.320 . S
C149 O147 1.214 . S
O150 Cd142 2.277 . S
O150 C145 1.209 . S
C151 O148 1.258 . S
C151 O153 1.282 . S
O152 Cd144 2.277 . S
O152 C145 1.226 . S
O153 Cd144 2.356 . S
O153 C151 1.282 . S
C154 O155 1.306 . S
C154 O157 1.160 . S
O155 C154 1.306 . S
O155 Cd156 2.228 . S
Cd156 O155 2.228 . S
Cd156 O160 2.273 . S
Cd156 O164 2.277 . S
O157 C154 1.160 . S
O157 Cd158 2.203 . S
Cd158 O157 2.203 . S
Cd158 O160 2.411 . S
Cd158 O161 2.333 . S
Cd158 O162 2.352 . S
Cd158 O166 2.277 . S
Cd158 O167 2.356 . S
C159 O164 1.209 . S
C159 O166 1.226 . S
O160 Cd156 2.273 . S
O160 Cd158 2.411 . S
O160 C163 1.320 . S
O161 Cd158 2.333 . S
O161 C163 1.214 . S
O162 Cd158 2.352 . S
O162 C165 1.258 . S
C163 O160 1.320 . S
C163 O161 1.214 . S
O164 Cd156 2.277 . S
O164 C159 1.209 . S
C165 O162 1.258 . S
C165 O167 1.282 . S
O166 Cd158 2.277 . S
O166 C159 1.226 . S
O167 Cd158 2.356 . S
O167 C165 1.282 . S
H168 C174 0.930 . S
H169 C178 0.930 . S
H170 C183 0.929 . S
H171 C181 0.929 . S
H172 C176 0.929 . S
H173 C182 0.929 . S
C174 H168 0.930 . S
C174 C175 1.367 . S
C174 C182 1.378 . S
C175 C174 1.367 . S
C175 C183 1.433 . S
C176 H172 0.929 . S
C176 C178 1.378 . S
C176 C180 1.350 . S
C177 C180 1.463 . S
C177 C182 1.350 . S
C177 N185 1.427 . S
C178 H169 0.930 . S
C178 C176 1.378 . S
C178 C179 1.367 . S
C179 C178 1.367 . S
C179 C181 1.433 . S
C180 C176 1.350 . S
C180 C177 1.463 . S
C180 N184 1.427 . S
C181 H171 0.929 . S
C181 C179 1.433 . S
C181 N184 1.384 . S
C182 H173 0.929 . S
C182 C174 1.378 . S
C182 C177 1.350 . S
C183 H170 0.929 . S
C183 C175 1.433 . S
C183 N185 1.384 . S
N184 C180 1.427 . S
N184 C181 1.384 . S
N185 C177 1.427 . S
N185 C183 1.384 . S
H186 C192 0.930 . S
H187 C196 0.930 . S
H188 C201 0.929 . S
H189 C199 0.929 . S
H190 C194 0.929 . S
H191 C200 0.929 . S
C192 H186 0.930 . S
C192 C193 1.367 . S
C192 C200 1.378 . S
C193 C192 1.367 . S
C193 C201 1.433 . S
C194 H190 0.929 . S
C194 C196 1.378 . S
C194 C198 1.350 . S
C195 C198 1.463 . S
C195 C200 1.350 . S
C195 N203 1.427 . S
C196 H187 0.930 . S
C196 C194 1.378 . S
C196 C197 1.367 . S
C197 C196 1.367 . S
C197 C199 1.433 . S
C198 C194 1.350 . S
C198 C195 1.463 . S
C198 N202 1.427 . S
C199 H189 0.929 . S
C199 C197 1.433 . S
C199 N202 1.384 . S
C200 H191 0.929 . S
C200 C192 1.378 . S
C200 C195 1.350 . S
C201 H188 0.929 . S
C201 C193 1.433 . S
C201 N203 1.384 . S
N202 C198 1.427 . S
N202 C199 1.384 . S
N203 C195 1.427 . S
N203 C201 1.384 . S
H204 C210 0.930 . S
H205 C214 0.930 . S
H206 C219 0.929 . S
H207 C217 0.929 . S
H208 C212 0.929 . S
H209 C218 0.929 . S
C210 H204 0.930 . S
C210 C211 1.367 . S
C210 C218 1.378 . S
C211 C210 1.367 . S
C211 C219 1.433 . S
C212 H208 0.929 . S
C212 C214 1.378 . S
C212 C216 1.350 . S
C213 C216 1.463 . S
C213 C218 1.350 . S
C213 N221 1.427 . S
C214 H205 0.930 . S
C214 C212 1.378 . S
C214 C215 1.367 . S
C215 C214 1.367 . S
C215 C217 1.433 . S
C216 C212 1.350 . S
C216 C213 1.463 . S
C216 N220 1.427 . S
C217 H207 0.929 . S
C217 C215 1.433 . S
C217 N220 1.384 . S
C218 H209 0.929 . S
C218 C210 1.378 . S
C218 C213 1.350 . S
C219 H206 0.929 . S
C219 C211 1.433 . S
C219 N221 1.384 . S
N220 C216 1.427 . S
N220 C217 1.384 . S
N221 C213 1.427 . S
N221 C219 1.384 . S
H222 C228 0.930 . S
H223 C232 0.930 . S
H224 C237 0.929 . S
H225 C235 0.929 . S
H226 C230 0.929 . S
H227 C236 0.929 . S
C228 H222 0.930 . S
C228 C229 1.367 . S
C228 C236 1.378 . S
C229 C228 1.367 . S
C229 C237 1.433 . S
C230 H226 0.929 . S
C230 C232 1.378 . S
C230 C234 1.350 . S
C231 C234 1.463 . S
C231 C236 1.350 . S
C231 N239 1.427 . S
C232 H223 0.930 . S
C232 C230 1.378 . S
C232 C233 1.367 . S
C233 C232 1.367 . S
C233 C235 1.433 . S
C234 C230 1.350 . S
C234 C231 1.463 . S
C234 N238 1.427 . S
C235 H225 0.929 . S
C235 C233 1.433 . S
C235 N238 1.384 . S
C236 H227 0.929 . S
C236 C228 1.378 . S
C236 C231 1.350 . S
C237 H224 0.929 . S
C237 C229 1.433 . S
C237 N239 1.384 . S
N238 C234 1.427 . S
N238 C235 1.384 . S
N239 C231 1.427 . S
N239 C237 1.384 . S
H240 C246 0.930 . S
H241 C250 0.930 . S
H242 C255 0.929 . S
H243 C253 0.929 . S
H244 C248 0.929 . S
H245 C254 0.929 . S
C246 H240 0.930 . S
C246 C247 1.367 . S
C246 C254 1.378 . S
C247 C246 1.367 . S
C247 C255 1.433 . S
C248 H244 0.929 . S
C248 C250 1.378 . S
C248 C252 1.350 . S
C249 C252 1.463 . S
C249 C254 1.350 . S
C249 N257 1.427 . S
C250 H241 0.930 . S
C250 C248 1.378 . S
C250 C251 1.367 . S
C251 C250 1.367 . S
C251 C253 1.433 . S
C252 C248 1.350 . S
C252 C249 1.463 . S
C252 N256 1.427 . S
C253 H243 0.929 . S
C253 C251 1.433 . S
C253 N256 1.384 . S
C254 H245 0.929 . S
C254 C246 1.378 . S
C254 C249 1.350 . S
C255 H242 0.929 . S
C255 C247 1.433 . S
C255 N257 1.384 . S
N256 C252 1.427 . S
N256 C253 1.384 . S
N257 C249 1.427 . S
N257 C255 1.384 . S
H258 C264 0.930 . S
H259 C268 0.930 . S
H260 C273 0.929 . S
H261 C271 0.929 . S
H262 C266 0.929 . S
H263 C272 0.929 . S
C264 H258 0.930 . S
C264 C265 1.367 . S
C264 C272 1.378 . S
C265 C264 1.367 . S
C265 C273 1.433 . S
C266 H262 0.929 . S
C266 C268 1.378 . S
C266 C270 1.350 . S
C267 C270 1.463 . S
C267 C272 1.350 . S
C267 N275 1.427 . S
C268 H259 0.930 . S
C268 C266 1.378 . S
C268 C269 1.367 . S
C269 C268 1.367 . S
C269 C271 1.433 . S
C270 C266 1.350 . S
C270 C267 1.463 . S
C270 N274 1.427 . S
C271 H261 0.929 . S
C271 C269 1.433 . S
C271 N274 1.384 . S
C272 H263 0.929 . S
C272 C264 1.378 . S
C272 C267 1.350 . S
C273 H260 0.929 . S
C273 C265 1.433 . S
C273 N275 1.384 . S
N274 C270 1.427 . S
N274 C271 1.384 . S
N275 C267 1.427 . S
N275 C273 1.384 . S
H276 C282 0.930 . S
H277 C286 0.930 . S
H278 C291 0.929 . S
H279 C289 0.929 . S
H280 C284 0.929 . S
H281 C290 0.929 . S
C282 H276 0.930 . S
C282 C283 1.367 . S
C282 C290 1.378 . S
C283 C282 1.367 . S
C283 C291 1.433 . S
C284 H280 0.929 . S
C284 C286 1.378 . S
C284 C288 1.350 . S
C285 C288 1.463 . S
C285 C290 1.350 . S
C285 N293 1.427 . S
C286 H277 0.930 . S
C286 C284 1.378 . S
C286 C287 1.367 . S
C287 C286 1.367 . S
C287 C289 1.433 . S
C288 C284 1.350 . S
C288 C285 1.463 . S
C288 N292 1.427 . S
C289 H279 0.929 . S
C289 C287 1.433 . S
C289 N292 1.384 . S
C290 H281 0.929 . S
C290 C282 1.378 . S
C290 C285 1.350 . S
C291 H278 0.929 . S
C291 C283 1.433 . S
C291 N293 1.384 . S
N292 C288 1.427 . S
N292 C289 1.384 . S
N293 C285 1.427 . S
N293 C291 1.384 . S
H294 C300 0.930 1_655 S
H295 C304 0.930 1_455 S
H296 C309 0.929 . S
H297 C307 0.929 . S
H298 C302 0.929 . S
H299 C308 0.929 . S
C300 H294 0.930 1_455 S
C300 C301 1.367 . S
C300 C308 1.378 1_455 S
C301 C300 1.367 . S
C301 C309 1.433 . S
C302 H298 0.929 . S
C302 C304 1.378 1_455 S
C302 C306 1.350 1_455 S
C303 C306 1.463 1_455 S
C303 C308 1.350 1_455 S
C303 N311 1.427 . S
C304 H295 0.930 1_655 S
C304 C302 1.378 1_655 S
C304 C305 1.367 . S
C305 C304 1.367 . S
C305 C307 1.433 . S
C306 C302 1.350 1_655 S
C306 C303 1.463 1_655 S
C306 N310 1.427 . S
C307 H297 0.929 . S
C307 C305 1.433 . S
C307 N310 1.384 . S
C308 H299 0.929 . S
C308 C300 1.378 1_655 S
C308 C303 1.350 1_655 S
C309 H296 0.929 . S
C309 C301 1.433 . S
C309 N311 1.384 . S
N310 C306 1.427 . S
N310 C307 1.384 . S
N311 C303 1.427 . S
N311 C309 1.384 . S
H312 C318 0.930 . S
H313 C322 0.930 . S
H314 C327 0.929 . S
H315 C325 0.929 . S
H316 C320 0.929 . S
H317 C326 0.929 . S
C318 H312 0.930 . S
C318 C319 1.367 . S
C318 C326 1.378 . S
C319 C318 1.367 . S
C319 C327 1.433 . S
C320 H316 0.929 . S
C320 C322 1.378 . S
C320 C324 1.350 . S
C321 C324 1.463 1_545 S
C321 C326 1.350 . S
C321 N329 1.427 1_545 S
C322 H313 0.930 . S
C322 C320 1.378 . S
C322 C323 1.367 . S
C323 C322 1.367 . S
C323 C325 1.433 . S
C324 C320 1.350 . S
C324 C321 1.463 1_565 S
C324 N328 1.427 1_565 S
C325 H315 0.929 . S
C325 C323 1.433 . S
C325 N328 1.386 1_565 S
C326 H317 0.929 . S
C326 C318 1.378 . S
C326 C321 1.350 . S
C327 H314 0.929 . S
C327 C319 1.433 . S
C327 N329 1.386 1_545 S
N328 C324 1.427 1_545 S
N328 C325 1.386 1_545 S
N329 C321 1.427 1_565 S
N329 C327 1.386 1_565 S
H330 C336 0.930 . S
H331 C340 0.930 . S
H332 C345 0.929 . S
H333 C343 0.929 . S
H334 C338 0.929 . S
H335 C344 0.929 . S
C336 H330 0.930 . S
C336 C337 1.367 . S
C336 C344 1.378 . S
C337 C336 1.367 . S
C337 C345 1.433 . S
C338 H334 0.929 . S
C338 C340 1.378 . S
C338 C342 1.350 . S
C339 C342 1.463 . S
C339 C344 1.350 . S
C339 N347 1.427 . S
C340 H331 0.930 . S
C340 C338 1.378 . S
C340 C341 1.367 . S
C341 C340 1.367 . S
C341 C343 1.433 . S
C342 C338 1.350 . S
C342 C339 1.463 . S
C342 N346 1.427 . S
C343 H333 0.929 . S
C343 C341 1.433 . S
C343 N346 1.384 . S
C344 H335 0.929 . S
C344 C336 1.378 . S
C344 C339 1.350 . S
C345 H332 0.929 . S
C345 C337 1.433 . S
C345 N347 1.384 . S
N346 C342 1.427 . S
N346 C343 1.384 . S
N347 C339 1.427 . S
N347 C345 1.384 . S
H348 C354 0.930 . S
H349 C358 0.930 . S
H350 C363 0.929 . S
H351 C361 0.929 . S
H352 C356 0.929 . S
H353 C362 0.929 . S
C354 H348 0.930 . S
C354 C355 1.367 . S
C354 C362 1.378 . S
C355 C354 1.367 . S
C355 C363 1.433 . S
C356 H352 0.929 . S
C356 C358 1.378 . S
C356 C360 1.350 . S
C357 C360 1.463 1_655 S
C357 C362 1.350 . S
C357 N365 1.427 . S
C358 H349 0.930 . S
C358 C356 1.378 . S
C358 C359 1.367 . S
C359 C358 1.367 . S
C359 C361 1.433 . S
C360 C356 1.350 . S
C360 C357 1.463 1_455 S
C360 N364 1.427 . S
C361 H351 0.929 . S
C361 C359 1.433 . S
C361 N364 1.384 . S
C362 H353 0.929 . S
C362 C354 1.378 . S
C362 C357 1.350 . S
C363 H350 0.929 . S
C363 C355 1.433 . S
C363 N365 1.384 . S
N364 C360 1.427 . S
N364 C361 1.384 . S
N365 C357 1.427 . S
N365 C363 1.384 . S
H366 C372 0.930 1_545 S
H367 C376 0.930 1_565 S
H368 C381 0.929 . S
H369 C379 0.929 . S
H370 C374 0.929 . S
H371 C380 0.929 . S
C372 H366 0.930 1_565 S
C372 C373 1.367 . S
C372 C380 1.378 1_565 S
C373 C372 1.367 . S
C373 C381 1.433 . S
C374 H370 0.929 . S
C374 C376 1.378 1_565 S
C374 C378 1.350 1_565 S
C375 C378 1.463 1_565 S
C375 C380 1.350 1_565 S
C375 N383 1.427 . S
C376 H367 0.930 1_545 S
C376 C374 1.378 1_545 S
C376 C377 1.367 . S
C377 C376 1.367 . S
C377 C379 1.433 . S
C378 C374 1.350 1_545 S
C378 C375 1.463 1_545 S
C378 N382 1.427 . S
C379 H369 0.929 . S
C379 C377 1.433 . S
C379 N382 1.384 . S
C380 H371 0.929 . S
C380 C372 1.378 1_545 S
C380 C375 1.350 1_545 S
C381 H368 0.929 . S
C381 C373 1.433 . S
C381 N383 1.384 . S
N382 C378 1.427 . S
N382 C379 1.384 . S
N383 C375 1.427 . S
N383 C381 1.384 . S
H384 C390 0.930 . S
H385 C394 0.930 . S
H386 C399 0.929 . S
H387 C397 0.929 . S
H388 C392 0.929 . S
H389 C398 0.929 . S
C390 H384 0.930 . S
C390 C391 1.367 . S
C390 C398 1.378 . S
C391 C390 1.367 . S
C391 C399 1.433 . S
C392 H388 0.929 . S
C392 C394 1.378 . S
C392 C396 1.350 . S
C393 C396 1.463 . S
C393 C398 1.350 . S
C393 N401 1.427 . S
C394 H385 0.930 . S
C394 C392 1.378 . S
C394 C395 1.367 . S
C395 C394 1.367 . S
C395 C397 1.433 . S
C396 C392 1.350 . S
C396 C393 1.463 . S
C396 N400 1.427 . S
C397 H387 0.929 . S
C397 C395 1.433 . S
C397 N400 1.384 . S
C398 H389 0.929 . S
C398 C390 1.378 . S
C398 C393 1.350 . S
C399 H386 0.929 . S
C399 C391 1.433 . S
C399 N401 1.384 . S
N400 C396 1.427 . S
N400 C397 1.384 . S
N401 C393 1.427 . S
N401 C399 1.384 . S
H402 C408 0.930 . S
H403 C412 0.930 . S
H404 C417 0.929 . S
H405 C415 0.929 . S
H406 C410 0.929 . S
H407 C416 0.929 . S
C408 H402 0.930 . S
C408 C409 1.367 . S
C408 C416 1.378 . S
C409 C408 1.367 . S
C409 C417 1.433 . S
C410 H406 0.929 . S
C410 C412 1.378 . S
C410 C414 1.350 . S
C411 C414 1.463 1_655 S
C411 C416 1.350 . S
C411 N419 1.427 . S
C412 H403 0.930 . S
C412 C410 1.378 . S
C412 C413 1.367 . S
C413 C412 1.367 . S
C413 C415 1.433 . S
C414 C410 1.350 . S
C414 C411 1.463 1_455 S
C414 N418 1.427 . S
C415 H405 0.929 . S
C415 C413 1.433 . S
C415 N418 1.384 . S
C416 H407 0.929 . S
C416 C408 1.378 . S
C416 C411 1.350 . S
C417 H404 0.929 . S
C417 C409 1.433 . S
C417 N419 1.384 . S
N418 C414 1.427 . S
N418 C415 1.384 . S
N419 C411 1.427 . S
N419 C417 1.384 . S
H420 C426 0.930 . S
H421 C430 0.930 . S
H422 C435 0.929 . S
H423 C433 0.929 . S
H424 C428 0.929 . S
H425 C434 0.929 . S
C426 H420 0.930 . S
C426 C427 1.367 . S
C426 C434 1.378 . S
C427 C426 1.367 . S
C427 C435 1.433 . S
C428 H424 0.929 . S
C428 C430 1.378 . S
C428 C432 1.350 . S
C429 C432 1.463 1_566 S
C429 C434 1.350 . S
C429 N437 1.427 . S
C430 H421 0.930 . S
C430 C428 1.378 . S
C430 C431 1.367 . S
C431 C430 1.367 . S
C431 C433 1.433 . S
C432 C428 1.350 . S
C432 C429 1.463 1_544 S
C432 N436 1.427 . S
C433 H423 0.929 . S
C433 C431 1.433 . S
C433 N436 1.384 . S
C434 H425 0.929 . S
C434 C426 1.378 . S
C434 C429 1.350 . S
C435 H422 0.929 . S
C435 C427 1.433 . S
C435 N437 1.384 . S
N436 C432 1.427 . S
N436 C433 1.384 . S
N437 C429 1.427 . S
N437 C435 1.384 . S
H438 C444 0.930 . S
H439 C448 0.930 . S
H440 C453 0.929 . S
H441 C451 0.929 . S
H442 C446 0.929 . S
H443 C452 0.929 . S
C444 H438 0.930 . S
C444 C445 1.367 . S
C444 C452 1.378 . S
C445 C444 1.367 . S
C445 C453 1.433 . S
C446 H442 0.929 . S
C446 C448 1.378 . S
C446 C450 1.350 . S
C447 C450 1.463 . S
C447 C452 1.350 . S
C447 N455 1.427 . S
C448 H439 0.930 . S
C448 C446 1.378 . S
C448 C449 1.367 . S
C449 C448 1.367 . S
C449 C451 1.433 . S
C450 C446 1.350 . S
C450 C447 1.463 . S
C450 N454 1.427 . S
C451 H441 0.929 . S
C451 C449 1.433 . S
C451 N454 1.384 . S
C452 H443 0.929 . S
C452 C444 1.378 . S
C452 C447 1.350 . S
C453 H440 0.929 . S
C453 C445 1.433 . S
C453 N455 1.384 . S
N454 C450 1.427 . S
N454 C451 1.384 . S
N455 C447 1.427 . S
N455 C453 1.384 . S
H456 C462 0.930 . S
H457 C466 0.930 . S
H458 C471 0.929 . S
H459 C469 0.929 . S
H460 C464 0.929 . S
H461 C470 0.929 . S
C462 H456 0.930 . S
C462 C463 1.367 . S
C462 C470 1.378 . S
C463 C462 1.367 . S
C463 C471 1.433 . S
C464 H460 0.929 . S
C464 C466 1.378 . S
C464 C468 1.350 . S
C465 C468 1.463 1_455 S
C465 C470 1.350 . S
C465 N473 1.427 . S
C466 H457 0.930 . S
C466 C464 1.378 . S
C466 C467 1.367 . S
C467 C466 1.367 . S
C467 C469 1.433 . S
C468 C464 1.350 . S
C468 C465 1.463 1_655 S
C468 N472 1.427 . S
C469 H459 0.929 . S
C469 C467 1.433 . S
C469 N472 1.384 . S
C470 H461 0.929 . S
C470 C462 1.378 . S
C470 C465 1.350 . S
C471 H458 0.929 . S
C471 C463 1.433 . S
C471 N473 1.384 . S
N472 C468 1.427 . S
N472 C469 1.384 . S
N473 C465 1.427 . S
N473 C471 1.384 . S
H474 C480 0.930 . S
H475 C484 0.930 . S
H476 C489 0.929 1_545 S
H477 C487 0.929 1_565 S
H478 C482 0.909 1_554 S
H479 C488 0.908 1_556 S
C480 H474 0.930 . S
C480 C481 1.367 . S
C480 C488 1.378 . S
C481 C480 1.367 . S
C481 C489 1.433 . S
C482 H478 0.909 1_556 S
C482 C484 1.378 . S
C482 C486 1.350 . S
C483 C486 1.463 1_564 S
C483 C488 1.350 . S
C483 N491 1.427 1_565 S
C484 H475 0.930 . S
C484 C482 1.378 . S
C484 C485 1.367 . S
C485 C484 1.367 . S
C485 C487 1.433 . S
C486 C482 1.350 . S
C486 C483 1.463 1_546 S
C486 N490 1.427 1_545 S
C487 H477 0.929 1_545 S
C487 C485 1.433 . S
C487 N490 1.384 1_545 S
C488 H479 0.908 1_554 S
C488 C480 1.378 . S
C488 C483 1.350 . S
C489 H476 0.929 1_565 S
C489 C481 1.433 . S
C489 N491 1.384 1_565 S
N490 C486 1.427 1_565 S
N490 C487 1.384 1_565 S
N491 C483 1.427 1_545 S
N491 C489 1.384 1_545 S
H492 C498 0.930 . S
H493 C502 0.930 . S
H494 C507 0.929 . S
H495 C505 0.929 . S
H496 C500 0.929 . S
H497 C506 0.929 . S
C498 H492 0.930 . S
C498 C499 1.367 . S
C498 C506 1.378 . S
C499 C498 1.367 . S
C499 C507 1.433 . S
C500 H496 0.929 . S
C500 C502 1.378 . S
C500 C504 1.350 . S
C501 C504 1.463 1_655 S
C501 C506 1.350 . S
C501 N509 1.427 . S
C502 H493 0.930 . S
C502 C500 1.378 . S
C502 C503 1.367 . S
C503 C502 1.367 . S
C503 C505 1.433 . S
C504 C500 1.350 . S
C504 C501 1.463 1_455 S
C504 N508 1.427 . S
C505 H495 0.929 . S
C505 C503 1.433 . S
C505 N508 1.384 . S
C506 H497 0.929 . S
C506 C498 1.378 . S
C506 C501 1.350 . S
C507 H494 0.929 . S
C507 C499 1.433 . S
C507 N509 1.384 . S
N508 C504 1.427 . S
N508 C505 1.384 . S
N509 C501 1.427 . S
N509 C507 1.384 . S
H510 C516 0.930 . S
H511 C520 0.930 . S
H512 C525 0.929 . S
H513 C523 0.929 . S
H514 C518 0.929 . S
H515 C524 0.929 . S
C516 H510 0.930 . S
C516 C517 1.367 . S
C516 C524 1.378 . S
C517 C516 1.367 . S
C517 C525 1.433 . S
C518 H514 0.929 . S
C518 C520 1.378 . S
C518 C522 1.350 . S
C519 C522 1.463 1_545 S
C519 C524 1.350 . S
C519 N527 1.427 . S
C520 H511 0.930 . S
C520 C518 1.378 . S
C520 C521 1.367 . S
C521 C520 1.367 . S
C521 C523 1.433 . S
C522 C518 1.350 . S
C522 C519 1.463 1_565 S
C522 N526 1.427 . S
C523 H513 0.929 . S
C523 C521 1.433 . S
C523 N526 1.384 . S
C524 H515 0.929 . S
C524 C516 1.378 . S
C524 C519 1.350 . S
C525 H512 0.929 . S
C525 C517 1.433 . S
C525 N527 1.384 . S
N526 C522 1.427 . S
N526 C523 1.384 . S
N527 C519 1.427 . S
N527 C525 1.384 . S
H528 C534 0.930 . S
H529 C538 0.930 . S
H530 C543 0.929 . S
H531 C541 0.929 . S
H532 C536 0.929 . S
H533 C542 0.929 . S
C534 H528 0.930 . S
C534 C535 1.367 . S
C534 C542 1.378 . S
C535 C534 1.367 . S
C535 C543 1.433 . S
C536 H532 0.929 . S
C536 C538 1.378 . S
C536 C540 1.350 . S
C537 C540 1.463 . S
C537 C542 1.350 . S
C537 N545 1.427 . S
C538 H529 0.930 . S
C538 C536 1.378 . S
C538 C539 1.367 . S
C539 C538 1.367 . S
C539 C541 1.433 . S
C540 C536 1.350 . S
C540 C537 1.463 . S
C540 N544 1.427 . S
C541 H531 0.929 . S
C541 C539 1.433 . S
C541 N544 1.384 . S
C542 H533 0.929 . S
C542 C534 1.378 . S
C542 C537 1.350 . S
C543 H530 0.929 . S
C543 C535 1.433 . S
C543 N545 1.384 . S
N544 C540 1.427 . S
N544 C541 1.384 . S
N545 C537 1.427 . S
N545 C543 1.384 . S
H546 C552 0.930 . S
H547 C556 0.930 . S
H548 C561 0.929 . S
H549 C559 0.929 . S
H550 C554 0.929 . S
H551 C560 0.929 . S
C552 H546 0.930 . S
C552 C553 1.367 . S
C552 C560 1.378 . S
C553 C552 1.367 . S
C553 C561 1.433 . S
C554 H550 0.929 . S
C554 C556 1.378 . S
C554 C558 1.350 . S
C555 C558 1.463 1_655 S
C555 C560 1.350 . S
C555 N563 1.427 . S
C556 H547 0.930 . S
C556 C554 1.378 . S
C556 C557 1.367 . S
C557 C556 1.367 . S
C557 C559 1.433 . S
C558 C554 1.350 . S
C558 C555 1.463 1_455 S
C558 N562 1.427 . S
C559 H549 0.929 . S
C559 C557 1.433 . S
C559 N562 1.384 . S
C560 H551 0.929 . S
C560 C552 1.378 . S
C560 C555 1.350 . S
C561 H548 0.929 . S
C561 C553 1.433 . S
C561 N563 1.384 . S
N562 C558 1.427 . S
N562 C559 1.384 . S
N563 C555 1.427 . S
N563 C561 1.384 . S
H564 C570 0.930 . S
H565 C574 0.930 . S
H566 C579 0.929 . S
H567 C577 0.929 . S
H568 C572 0.929 . S
H569 C578 0.929 . S
C570 H564 0.930 . S
C570 C571 1.367 . S
C570 C578 1.378 . S
C571 C570 1.367 . S
C571 C579 1.433 . S
C572 H568 0.929 . S
C572 C574 1.378 . S
C572 C576 1.350 . S
C573 C576 1.463 1_565 S
C573 C578 1.350 . S
C573 N581 1.427 . S
C574 H565 0.930 . S
C574 C572 1.378 . S
C574 C575 1.367 . S
C575 C574 1.367 . S
C575 C577 1.433 . S
C576 C572 1.350 . S
C576 C573 1.463 1_545 S
C576 N580 1.427 . S
C577 H567 0.929 . S
C577 C575 1.433 . S
C577 N580 1.384 . S
C578 H569 0.929 . S
C578 C570 1.378 . S
C578 C573 1.350 . S
C579 H566 0.929 . S
C579 C571 1.433 . S
C579 N581 1.384 . S
N580 C576 1.427 . S
N580 C577 1.384 . S
N581 C573 1.427 . S
N581 C579 1.384 . S
H582 C588 0.930 . S
H583 C592 0.930 . S
H584 C597 0.929 . S
H585 C595 0.929 . S
H586 C590 0.929 . S
H587 C596 0.929 . S
C588 H582 0.930 . S
C588 C589 1.367 . S
C588 C596 1.378 . S
C589 C588 1.367 . S
C589 C597 1.433 . S
C590 H586 0.929 . S
C590 C592 1.378 . S
C590 C594 1.350 . S
C591 C594 1.463 . S
C591 C596 1.350 . S
C591 N599 1.427 . S
C592 H583 0.930 . S
C592 C590 1.378 . S
C592 C593 1.367 . S
C593 C592 1.367 . S
C593 C595 1.433 . S
C594 C590 1.350 . S
C594 C591 1.463 . S
C594 N598 1.427 . S
C595 H585 0.929 . S
C595 C593 1.433 . S
C595 N598 1.384 . S
C596 H587 0.929 . S
C596 C588 1.378 . S
C596 C591 1.350 . S
C597 H584 0.929 . S
C597 C589 1.433 . S
C597 N599 1.384 . S
N598 C594 1.427 . S
N598 C595 1.384 . S
N599 C591 1.427 . S
N599 C597 1.384 . S
C175 C117 1.818 . S
C179 C5 1.818 . S
C193 C23 1.764 . S
C197 C135 1.762 . S
C211 C33 1.820 . S
C215 C145 1.819 . S
C229 C47 1.817 . S
C233 C159 1.818 . S
C247 C93 1.762 . S
C251 C65 1.764 . S
C265 C75 1.819 . S
C269 C103 1.819 . S
C283 C51 0.944 . S
C287 C9 0.936 . S
C301 C61 0.940 . S
C305 C19 0.953 . S
C319 C79 1.063 . S
C323 C37 1.045 . S
C337 C89 0.937 . S
C341 C131 0.953 . S
C355 C107 0.921 . S
C359 C149 0.944 . S
C373 C121 1.055 . S
C377 C163 1.068 . S
C391 C11 1.554 . S
C395 C126 1.547 . S
C409 C14 1.553 . S
C413 C151 1.548 . S
C427 C39 1.561 . S
C431 C165 1.568 . S
C445 C84 1.553 . S
C449 C53 1.548 . S
C463 C56 1.544 . S
C467 C109 1.555 . S
C481 C123 1.565 . S
C485 C81 1.563 . S
C499 C154 1.260 . S
C503 C0 1.266 . S
C517 C25 1.189 . S
C521 C95 1.194 . S
C535 C98 1.257 . S
C539 C28 1.256 . S
C553 C42 1.269 . S
C557 C112 1.253 . S
C571 C67 1.181 . S
C575 C137 1.188 . S
C589 C140 1.269 . S
C593 C70 1.254 . S
