# Generated by pormake.
# Topology wme, (6)-cn, num edge types: 1
# Building blocks:
#     Node 0, Type 0, BuildingBlock: UKALOJ_clean_sbu_0, # of connection points: 6
#     Node 1, Type 0, BuildingBlock: UKALOJ_clean_sbu_0, # of connection points: 6
#     Node 2, Type 0, BuildingBlock: UKALOJ_clean_sbu_0, # of connection points: 6
#     Node 3, Type 0, BuildingBlock: UKALOJ_clean_sbu_0, # of connection points: 6
#     Node 4, Type 0, BuildingBlock: UKALOJ_clean_sbu_0, # of connection points: 6
#     Node 5, Type 0, BuildingBlock: UKALOJ_clean_sbu_0, # of connection points: 6
#     Node 6, Type 0, BuildingBlock: UKALOJ_clean_sbu_0, # of connection points: 6
#     Node 7, Type 0, BuildingBlock: UKALOJ_clean_sbu_0, # of connection points: 6
#     Node 8, Type 0, BuildingBlock: UKALOJ_clean_sbu_0, # of connection points: 6
#     Node 9, Type 0, BuildingBlock: UKALOJ_clean_sbu_0, # of connection points: 6
#     Node 10, Type 0, BuildingBlock: UKALOJ_clean_sbu_0, # of connection points: 6
#     Node 11, Type 0, BuildingBlock: UKALOJ_clean_sbu_0, # of connection points: 6
#     Edge 12, Type (0, 0), BuildingBlock: AJUNOK_clean_linker_0, # of connection points: 2
#     Edge 13, Type (0, 0), BuildingBlock: AJUNOK_clean_linker_0, # of connection points: 2
#     Edge 14, Type (0, 0), BuildingBlock: AJUNOK_clean_linker_0, # of connection points: 2
#     Edge 15, Type (0, 0), BuildingBlock: AJUNOK_clean_linker_0, # of connection points: 2
#     Edge 16, Type (0, 0), BuildingBlock: AJUNOK_clean_linker_0, # of connection points: 2
#     Edge 17, Type (0, 0), BuildingBlock: AJUNOK_clean_linker_0, # of connection points: 2
#     Edge 18, Type (0, 0), BuildingBlock: AJUNOK_clean_linker_0, # of connection points: 2
#     Edge 19, Type (0, 0), BuildingBlock: AJUNOK_clean_linker_0, # of connection points: 2
#     Edge 20, Type (0, 0), BuildingBlock: AJUNOK_clean_linker_0, # of connection points: 2
#     Edge 21, Type (0, 0), BuildingBlock: AJUNOK_clean_linker_0, # of connection points: 2
#     Edge 22, Type (0, 0), BuildingBlock: AJUNOK_clean_linker_0, # of connection points: 2
#     Edge 23, Type (0, 0), BuildingBlock: AJUNOK_clean_linker_0, # of connection points: 2
#     Edge 24, Type (0, 0), BuildingBlock: AJUNOK_clean_linker_0, # of connection points: 2
#     Edge 25, Type (0, 0), BuildingBlock: AJUNOK_clean_linker_0, # of connection points: 2
#     Edge 26, Type (0, 0), BuildingBlock: AJUNOK_clean_linker_0, # of connection points: 2
#     Edge 27, Type (0, 0), BuildingBlock: AJUNOK_clean_linker_0, # of connection points: 2
#     Edge 28, Type (0, 0), BuildingBlock: AJUNOK_clean_linker_0, # of connection points: 2
#     Edge 29, Type (0, 0), BuildingBlock: AJUNOK_clean_linker_0, # of connection points: 2
#     Edge 30, Type (0, 0), BuildingBlock: AJUNOK_clean_linker_0, # of connection points: 2
#     Edge 31, Type (0, 0), BuildingBlock: AJUNOK_clean_linker_0, # of connection points: 2
#     Edge 32, Type (0, 0), BuildingBlock: AJUNOK_clean_linker_0, # of connection points: 2
#     Edge 33, Type (0, 0), BuildingBlock: AJUNOK_clean_linker_0, # of connection points: 2
#     Edge 34, Type (0, 0), BuildingBlock: AJUNOK_clean_linker_0, # of connection points: 2
#     Edge 35, Type (0, 0), BuildingBlock: AJUNOK_clean_linker_0, # of connection points: 2
#     Edge 36, Type (0, 0), BuildingBlock: AJUNOK_clean_linker_0, # of connection points: 2
#     Edge 37, Type (0, 0), BuildingBlock: AJUNOK_clean_linker_0, # of connection points: 2
#     Edge 38, Type (0, 0), BuildingBlock: AJUNOK_clean_linker_0, # of connection points: 2
#     Edge 39, Type (0, 0), BuildingBlock: AJUNOK_clean_linker_0, # of connection points: 2
#     Edge 40, Type (0, 0), BuildingBlock: AJUNOK_clean_linker_0, # of connection points: 2
#     Edge 41, Type (0, 0), BuildingBlock: AJUNOK_clean_linker_0, # of connection points: 2
#     Edge 42, Type (0, 0), BuildingBlock: AJUNOK_clean_linker_0, # of connection points: 2
#     Edge 43, Type (0, 0), BuildingBlock: AJUNOK_clean_linker_0, # of connection points: 2
#     Edge 44, Type (0, 0), BuildingBlock: AJUNOK_clean_linker_0, # of connection points: 2
#     Edge 45, Type (0, 0), BuildingBlock: AJUNOK_clean_linker_0, # of connection points: 2
#     Edge 46, Type (0, 0), BuildingBlock: AJUNOK_clean_linker_0, # of connection points: 2
#     Edge 47, Type (0, 0), BuildingBlock: AJUNOK_clean_linker_0, # of connection points: 2
# Relax obj value: 0.102
# Max RMSD: 0.174
# Mean RMSD: 0.174
data_MOF--net-wme--node1-UKALOJ_clean_sbu_0--edge1-AJUNOK_clean_linker_0
_symmetry_space_group_name_H-M    P1
_symmetry_Int_Tables_number       1
_symmetry_cell_setting            triclinic
loop_
_symmetry_equiv_pos_as_xyz
'x, y, z'
_cell_length_a     21.684542
_cell_length_b     21.77297
_cell_length_c     62.8833
_cell_angle_alpha  89.517283
_cell_angle_beta   90.247119
_cell_angle_gamma 119.80525
loop_
_atom_site_label
_atom_site_type_symbol
_atom_site_fract_x
_atom_site_fract_y
_atom_site_fract_z
_atom_type_partial_charge
Zn0 Zn 0.15134 0.29097 0.16965 0.0
O1 O 0.12015 0.36685 0.16856 0.0
C2 C 0.29078 0.39405 0.15419 0.0
Zn3 Zn 0.15236 0.28863 0.13417 0.0
C4 C 0.11055 0.38927 0.15083 0.0
O5 O 0.12312 0.36736 0.13357 0.0
C6 C 0.18685 0.18564 0.15364 0.0
O7 O 0.04474 0.21303 0.13205 0.0
O8 O 0.04473 0.21312 0.16696 0.0
N9 N 0.16472 0.29419 0.10169 0.0
C10 C 0.15412 0.24471 0.0871 0.0
C11 C 0.21025 0.3452 0.07173 0.0
N12 N 0.19921 0.35652 0.09203 0.0
N13 N 0.18285 0.27542 0.06817 0.0
C14 C 0.15625 0.32438 0.21874 0.0
C15 C 0.10226 0.21872 0.2309 0.0
N16 N 0.13946 0.28043 0.202 0.0
N17 N 0.10606 0.21501 0.20968 0.0
N18 N 0.13303 0.28667 0.23711 0.0
H19 H 0.23983 0.41988 0.2047 0.0
H20 H 0.16256 0.42378 0.21209 0.0
H21 H 0.22379 0.42756 0.23239 0.0
C22 C 0.19832 0.40346 0.21702 0.0
C23 C 0.11372 0.16648 0.09118 0.0
H24 H 0.07448 0.1529 0.10409 0.0
H25 H 0.08603 0.13784 0.07653 0.0
H26 H 0.15122 0.14843 0.09603 0.0
O27 O 0.17957 0.20835 0.13568 0.0
O28 O 0.18053 0.21379 0.1704 0.0
C29 C 0.01163 0.19074 0.14953 0.0
O30 O 0.25775 0.37019 0.17164 0.0
O31 O 0.25936 0.36692 0.13681 0.0
Zn32 Zn 0.83381 0.17731 0.63373 0.0
O33 O 0.80299 0.06977 0.63204 0.0
C34 C -0.02615 0.21372 0.65092 0.0
Zn35 Zn 0.83435 0.17799 0.66937 0.0
C36 C 0.79309 0.03764 0.64974 0.0
O37 O 0.80539 0.07195 0.66689 0.0
C38 C 0.86732 0.31589 0.65372 0.0
O39 O 0.72675 0.14703 0.66993 0.0
O40 O 0.7257 0.14716 0.63489 0.0
N41 N 0.83786 0.16712 0.70183 0.0
C42 C 0.81168 0.18318 0.71905 0.0
C43 C 0.86589 0.13 0.73018 0.0
N44 N 0.87157 0.13433 0.70889 0.0
N45 N 0.82827 0.15988 0.73711 0.0
C46 C 0.87459 0.17821 0.58592 0.0
C47 C 0.83463 0.24048 0.57174 0.0
N48 N 0.83698 0.18925 0.60102 0.0
N49 N 0.81176 0.22747 0.59205 0.0
N50 N 0.87483 0.21072 0.56744 0.0
H51 H 0.87986 0.09161 0.60111 0.0
H52 H 0.90928 0.10822 0.57377 0.0
H53 H 0.96381 0.16662 0.59437 0.0
C54 C 0.90844 0.13325 0.58899 0.0
C55 C 0.77366 0.22477 0.71801 0.0
H56 H 0.79717 0.26622 0.70556 0.0
H57 H 0.71734 0.18899 0.7136 0.0
H58 H 0.77609 0.24994 0.7335 0.0
O59 O 0.86116 0.28379 0.67122 0.0
O60 O 0.86103 0.28403 0.63632 0.0
C61 C 0.69289 0.1358 0.6525 0.0
O62 O 0.94127 0.20549 0.63346 0.0
O63 O 0.94129 0.20695 0.66823 0.0
Zn64 Zn 0.6173 0.82331 0.16867 0.0
O65 O 0.53836 0.71708 0.16854 0.0
C66 C 0.51683 0.85763 0.14706 0.0
Zn67 Zn 0.62399 0.82183 0.13309 0.0
C68 C 0.51991 0.68239 0.15129 0.0
O69 O 0.54653 0.7139 0.13375 0.0
C70 C 0.72465 0.96119 0.15086 0.0
O71 O 0.70159 0.79206 0.13667 0.0
O72 O 0.69343 0.79236 0.1716 0.0
N73 N 0.62918 0.82257 0.1002 0.0
C74 C 0.68244 0.86289 0.08655 0.0
C75 C 0.58696 0.81285 0.06848 0.0
N76 N 0.57004 0.79108 0.08883 0.0
N77 N 0.65726 0.85842 0.06654 0.0
C78 C 0.60945 0.79332 0.21841 0.0
C79 C 0.60222 0.88178 0.2294 0.0
N80 N 0.61028 0.83096 0.2011 0.0
N81 N 0.60576 0.88575 0.20807 0.0
N82 N 0.60404 0.82411 0.23648 0.0
H83 H 0.66783 0.73813 0.21879 0.0
H84 H 0.58068 0.68966 0.23059 0.0
H85 H 0.59116 0.69912 0.20198 0.0
C86 C 0.61184 0.72584 0.21738 0.0
C87 C 0.75942 0.90349 0.09256 0.0
H88 H 0.77011 0.8796 0.10671 0.0
H89 H 0.79299 0.90491 0.07908 0.0
H90 H 0.77435 0.95856 0.09636 0.0
O91 O 0.70195 0.92904 0.13337 0.0
O92 O 0.69745 0.92895 0.16818 0.0
C93 C 0.71987 0.78155 0.15501 0.0
O94 O 0.54014 0.85253 0.16512 0.0
O95 O 0.54411 0.84868 0.13042 0.0
Zn96 Zn 0.76427 0.64436 0.63377 0.0
O97 O 0.87205 0.72095 0.63154 0.0
C98 C 0.72934 0.74841 0.65131 0.0
Zn99 Zn 0.76559 0.6446 0.66945 0.0
C100 C 0.9055 0.74303 0.64898 0.0
O101 O 0.87229 0.72117 0.66643 0.0
C102 C 0.62628 0.53974 0.65453 0.0
O103 O 0.79608 0.56795 0.6698 0.0
O104 O 0.79484 0.56618 0.63477 0.0
N105 N 0.77691 0.65743 0.70187 0.0
C106 C 0.76057 0.61451 0.71908 0.0
C107 C 0.81226 0.72075 0.73028 0.0
N108 N 0.80888 0.72322 0.70897 0.0
N109 N 0.78262 0.65325 0.73715 0.0
C110 C 0.76118 0.68726 0.58625 0.0
C111 C 0.70393 0.58702 0.57125 0.0
N112 N 0.75187 0.6377 0.60098 0.0
N113 N 0.71666 0.57549 0.5915 0.0
N114 N 0.73097 0.65681 0.56754 0.0
H115 H 0.8341 0.77903 0.60458 0.0
H116 H 0.83941 0.79127 0.57602 0.0
H117 H 0.76668 0.7874 0.59023 0.0
C118 C 0.80299 0.7656 0.58968 0.0
C119 C 0.71999 0.53531 0.71809 0.0
H120 H 0.681 0.51726 0.70496 0.0
H121 H 0.75732 0.51569 0.7148 0.0
H122 H 0.69207 0.51202 0.73331 0.0
O123 O 0.65917 0.5661 0.67178 0.0
O124 O 0.65741 0.56507 0.63689 0.0
C125 C 0.80655 0.54485 0.65248 0.0
O126 O 0.73566 0.7234 0.63384 0.0
O127 O 0.73717 0.72281 0.6686 0.0
Zn128 Zn 0.08405 0.75949 0.13453 0.0
O129 O 0.11332 0.86656 0.13676 0.0
C130 C 0.94952 0.72314 0.15605 0.0
Zn131 Zn 0.09265 0.7572 0.16999 0.0
C132 C 0.12823 0.898 0.15459 0.0
O133 O 0.12247 0.86363 0.17161 0.0
C134 C 0.05408 0.61999 0.15015 0.0
O135 O 0.19928 0.78602 0.16686 0.0
O136 O 0.19164 0.79063 0.13204 0.0
N137 N 0.09443 0.74734 0.20251 0.0
C138 C 0.13549 0.78745 0.2187 0.0
C139 C 0.05153 0.69296 0.23226 0.0
N140 N 0.04254 0.68873 0.21107 0.0
N141 N 0.10966 0.75423 0.23765 0.0
C142 C 0.03198 0.77203 0.08899 0.0
C143 C 0.08093 0.72788 0.06993 0.0
N144 N 0.07477 0.75977 0.10189 0.0
N145 N 0.10555 0.73294 0.08992 0.0
N146 N 0.03416 0.75151 0.06889 0.0
H147 H 0.02169 0.84807 0.10809 0.0
H148 H -0.01868 0.83364 0.08197 0.0
H149 H 0.94011 0.76861 0.10271 0.0
C150 C -0.0083 0.80797 0.09578 0.0
C151 C 0.20168 0.85748 0.21571 0.0
H152 H 0.18833 0.90029 0.21693 0.0
H153 H 0.24141 0.86551 0.22815 0.0
H154 H 0.22483 0.86138 0.19976 0.0
O155 O 0.06442 0.65137 0.16777 0.0
O156 O 0.05781 0.65295 0.13304 0.0
C157 C 0.22856 0.79912 0.14864 0.0
O158 O -0.02307 0.72977 0.1378 0.0
O159 O -0.0135 0.73042 0.17248 0.0
Zn160 Zn 0.29887 0.10713 0.66947 0.0
O161 O 0.37709 0.21387 0.67122 0.0
C162 C 0.40261 0.07245 0.65412 0.0
Zn163 Zn 0.30058 0.1116 0.63393 0.0
C164 C 0.40062 0.24934 0.65408 0.0
O165 O 0.37921 0.21862 0.63623 0.0
C166 C 0.19431 0.97103 0.64967 0.0
O167 O 0.22473 0.1442 0.63194 0.0
O168 O 0.22357 0.13907 0.6668 0.0
N169 N 0.31217 0.11352 0.60135 0.0
C170 C 0.26519 0.07642 0.58588 0.0
C171 C 0.36827 0.12402 0.57203 0.0
N172 N 0.3762 0.14355 0.59261 0.0
N173 N 0.29902 0.08159 0.56742 0.0
C174 C 0.3241 0.12332 0.71917 0.0
C175 C 0.21649 0.06601 0.72972 0.0
N176 N 0.28263 0.09935 0.70169 0.0
N177 N 0.21596 0.06371 0.70837 0.0
N178 N 0.2836 0.10323 0.73699 0.0
H179 H 0.42328 0.14251 0.70578 0.0
H180 H 0.42292 0.21931 0.71525 0.0
H181 H 0.42601 0.15778 0.73408 0.0
C182 C 0.40368 0.16264 0.71865 0.0
C183 C 0.18609 0.03727 0.58842 0.0
H184 H 0.16951 0.05082 0.60346 0.0
H185 H 0.16149 0.04996 0.5748 0.0
H186 H 0.16625 -0.02028 0.58799 0.0
O187 O 0.22056 0.00495 0.63251 0.0
O188 O 0.2192 0.00138 0.66727 0.0
C189 C 0.20238 0.15332 0.64963 0.0
O190 O 0.37608 0.07718 0.67157 0.0
O191 O 0.3787 0.08214 0.6367 0.0
Zn192 Zn 0.63339 0.78922 0.42896 0.0
O193 O 0.71147 0.89648 0.43042 0.0
C194 C 0.73778 0.75118 0.41291 0.0
Zn195 Zn 0.63629 0.78822 0.3933 0.0
C196 C 0.73581 0.9284 0.41281 0.0
O197 O 0.71485 0.89446 0.39551 0.0
C198 C 0.52836 0.65062 0.40929 0.0
O199 O 0.56026 0.82061 0.39195 0.0
O200 O 0.55629 0.82124 0.42695 0.0
N201 N 0.64982 0.79618 0.36075 0.0
C202 C 0.60686 0.77877 0.34355 0.0
C203 C 0.71348 0.82777 0.33219 0.0
N204 N 0.71586 0.82641 0.35355 0.0
N205 N 0.6458 0.79853 0.32539 0.0
C206 C 0.67415 0.78747 0.47659 0.0
C207 C 0.57251 0.72654 0.49102 0.0
N208 N 0.62511 0.77858 0.46174 0.0
N209 N 0.56203 0.74113 0.47087 0.0
N210 N 0.64245 0.75467 0.49499 0.0
H211 H 0.76751 0.85479 0.45756 0.0
H212 H 0.77343 0.87628 0.48535 0.0
H213 H 0.77958 0.80131 0.47752 0.0
C214 C 0.753 0.83224 0.47378 0.0
C215 C 0.52732 0.73915 0.34467 0.0
H216 H 0.50806 0.77709 0.34708 0.0
H217 H 0.50391 0.70932 0.32981 0.0
H218 H 0.50872 0.70227 0.35837 0.0
O219 O 0.55611 0.68219 0.39188 0.0
O220 O 0.55276 0.68283 0.42672 0.0
C221 C 0.53642 0.83257 0.40893 0.0
O222 O 0.71155 0.75915 0.42994 0.0
O223 O 0.71388 0.75825 0.39519 0.0
Zn224 Zn 0.82103 0.62828 0.8933 0.0
O225 O 0.7146 0.5499 0.89445 0.0
C226 C 0.85675 0.52758 0.91445 0.0
Zn227 Zn 0.82266 0.63508 0.92881 0.0
C228 C 0.6815 0.53171 0.91206 0.0
O229 O 0.71475 0.55844 0.92925 0.0
C230 C 0.96099 0.73587 0.90968 0.0
O231 O 0.79274 0.71263 0.9256 0.0
O232 O 0.78993 0.70433 0.89067 0.0
N233 N 0.8243 0.64035 0.96153 0.0
C234 C 0.86406 0.69302 0.9752 0.0
C235 C 0.81056 0.59782 0.99335 0.0
N236 N 0.79063 0.58141 0.97293 0.0
N237 N 0.85697 0.6676 0.9953 0.0
C238 C 0.7865 0.61883 0.84396 0.0
C239 C 0.87363 0.61019 0.83204 0.0
N240 N 0.82579 0.62001 0.86086 0.0
N241 N 0.87973 0.61457 0.85331 0.0
N242 N 0.81538 0.61234 0.82558 0.0
H243 H 0.73184 0.67772 0.84422 0.0
H244 H 0.68152 0.59063 0.83289 0.0
H245 H 0.69375 0.60189 0.86139 0.0
C246 C 0.71919 0.62187 0.84572 0.0
C247 C 0.9068 0.76957 0.96906 0.0
H248 H 0.88419 0.78106 0.95475 0.0
H249 H 0.90864 0.80353 0.98239 0.0
H250 H 0.96182 0.7828 0.96541 0.0
O251 O 0.93053 0.71311 0.92752 0.0
O252 O 0.92711 0.70824 0.8927 0.0
C253 C 0.78073 0.73093 0.90745 0.0
O254 O 0.8502 0.551 0.89657 0.0
O255 O 0.8494 0.55478 0.93133 0.0
Zn256 Zn 0.16739 0.85737 0.3922 0.0
O257 O 0.14173 0.75142 0.39334 0.0
C258 C 0.30916 0.89703 0.40659 0.0
Zn259 Zn 0.17017 0.85902 0.42784 0.0
C260 C 0.13345 0.71979 0.41109 0.0
O261 O 0.14534 0.75391 0.42832 0.0
C262 C 0.19421 -0.00663 0.40903 0.0
O263 O 0.06163 0.82436 0.43088 0.0
O264 O 0.05943 0.82346 0.39595 0.0
N265 N 0.18654 0.86666 0.46034 0.0
C266 C 0.18052 0.90836 0.475 0.0
C267 C 0.23641 0.86195 0.48967 0.0
N268 N 0.22089 0.83753 0.46959 0.0
N269 N 0.21218 0.90705 0.4934 0.0
C270 C 0.1693 0.82577 0.3432 0.0
C271 C 0.11437 0.87656 0.33073 0.0
N272 N 0.15303 0.8542 0.35978 0.0
N273 N 0.11898 0.88563 0.35191 0.0
N274 N 0.14522 0.83892 0.32473 0.0
H275 H 0.17516 0.73225 0.34952 0.0
H276 H 0.23851 0.79091 0.33 0.0
H277 H 0.2513 0.8118 0.35799 0.0
C278 C 0.2114 0.78842 0.34517 0.0
C279 C 0.14012 0.94688 0.4718 0.0
H280 H 0.09242 0.91442 0.46198 0.0
H281 H 0.12344 0.95806 0.48727 0.0
H282 H 0.17414 -0.00203 0.46355 0.0
O283 O 0.19146 0.9627 0.4265 0.0
O284 O 0.18979 0.96275 0.3916 0.0
C285 C 0.02698 0.81161 0.41358 0.0
O286 O 0.2754 0.88911 0.38933 0.0
O287 O 0.27793 0.89064 0.42418 0.0
Zn288 Zn 0.28511 0.16298 0.928 0.0
O289 O 0.20686 0.05612 0.92699 0.0
C290 C 0.18546 0.20042 0.9082 0.0
Zn291 Zn 0.29166 0.16385 0.89251 0.0
C292 C 0.18796 0.02367 0.90935 0.0
O293 O 0.21353 0.05703 0.89198 0.0
C294 C 0.39371 0.30134 0.91124 0.0
O295 O 0.36903 0.13361 0.89409 0.0
O296 O 0.36146 0.13117 0.92897 0.0
N297 N 0.29585 0.17179 0.85995 0.0
C298 C 0.30929 0.13963 0.8438 0.0
C299 C 0.29157 0.21957 0.83019 0.0
N300 N 0.28491 0.22129 0.85137 0.0
N301 N 0.30746 0.16924 0.82493 0.0
C302 C 0.2338 0.15847 0.97461 0.0
C303 C 0.33111 0.19927 0.99174 0.0
N304 N 0.28401 0.16541 0.96066 0.0
N305 N 0.34428 0.19013 0.97142 0.0
N306 N 0.26217 0.18007 0.99414 0.0
H307 H 0.14169 0.09239 0.95553 0.0
H308 H 0.12357 0.09844 0.98335 0.0
H309 H 0.14559 0.17124 0.96569 0.0
C310 C 0.15664 0.12799 0.96943 0.0
C311 C 0.33117 0.08493 0.84695 0.0
H312 H 0.38854 0.11243 0.85094 0.0
H313 H 0.30135 0.04932 0.86041 0.0
H314 H 0.32365 0.05353 0.83245 0.0
O315 O 0.37088 0.26985 0.89366 0.0
O316 O 0.36536 0.26875 0.9284 0.0
C317 C 0.38744 0.12129 0.91215 0.0
O318 O 0.20762 0.19365 0.92629 0.0
O319 O 0.2128 0.19182 0.89155 0.0
Zn320 Zn 0.09713 0.32474 0.39232 0.0
O321 O 0.20381 0.40258 0.3924 0.0
C322 C 0.06501 0.42917 0.41148 0.0
Zn323 Zn 0.09564 0.3213 0.42789 0.0
C324 C 0.23835 0.42149 0.40974 0.0
O325 O 0.20609 0.3962 0.4273 0.0
C326 C 0.95654 0.21996 0.40989 0.0
O327 O 0.11969 0.24012 0.42636 0.0
O328 O 0.12718 0.24751 0.39128 0.0
N329 N 0.09413 0.32025 0.46079 0.0
C330 C 0.05149 0.26987 0.47489 0.0
C331 C 0.10467 0.367 0.49173 0.0
N332 N 0.1276 0.38044 0.47141 0.0
N333 N 0.05668 0.29793 0.49432 0.0
C334 C 0.12863 0.32634 0.3433 0.0
C335 C 0.04488 0.33996 0.33066 0.0
N336 N 0.09086 0.3291 0.3599 0.0
N337 N 0.03892 0.33747 0.35194 0.0
N338 N 0.10101 0.3336 0.32465 0.0
H339 H 0.23259 0.34875 0.33307 0.0
H340 H 0.21732 0.33564 0.3615 0.0
H341 H 0.1769 0.26146 0.34417 0.0
C342 C 0.19298 0.31822 0.34562 0.0
C343 C 0.0064 0.19279 0.47003 0.0
H344 H 0.01963 0.17981 0.45435 0.0
H345 H 0.01422 0.16111 0.48256 0.0
H346 H 0.9497 0.1778 0.4704 0.0
O347 O -0.01337 0.24609 0.42748 0.0
O348 O -0.00928 0.2449 0.39271 0.0
C349 C 0.13194 0.22017 0.40869 0.0
O350 O 0.06894 0.4032 0.39392 0.0
O351 O 0.07314 0.40335 0.42867 0.0
Zn352 Zn 0.75603 0.10246 0.89295 0.0
O353 O 0.78569 0.20917 0.89547 0.0
C354 C 0.61854 0.06424 0.91337 0.0
Zn355 Zn 0.75915 0.09641 0.92856 0.0
C356 C 0.7978 0.23976 0.91338 0.0
O357 O 0.78813 0.20418 0.93044 0.0
C358 C 0.72362 0.96127 0.90751 0.0
O359 O 0.8669 0.12821 0.92609 0.0
O360 O 0.86284 0.13157 0.89104 0.0
N361 N 0.75911 0.08712 0.96138 0.0
C362 C 0.77078 0.04386 0.97426 0.0
C363 C 0.72306 0.08957 0.99317 0.0
N364 N 0.73003 0.11586 0.97328 0.0
N365 N 0.74763 0.04366 0.99423 0.0
C366 C 0.78613 0.14226 0.84396 0.0
C367 C 0.68763 0.06334 0.83109 0.0
N368 N 0.74514 0.10329 0.86043 0.0
N369 N 0.68414 0.05436 0.85229 0.0
N370 N 0.75087 0.11846 0.82523 0.0
H371 H 0.89876 0.18602 0.84422 0.0
H372 H 0.86968 0.24607 0.83475 0.0
H373 H 0.86713 0.22529 0.86285 0.0
C374 C 0.85951 0.20393 0.84657 0.0
C375 C 0.80876 0.00547 0.96762 0.0
H376 H 0.8484 0.03567 0.95509 0.0
H377 H 0.83553 -0.00314 0.98148 0.0
H378 H 0.77029 0.95324 0.9611 0.0
O379 O 0.73187 -0.01031 0.92562 0.0
O380 O 0.72863 -0.00316 0.89093 0.0
C381 C 0.89791 0.14114 0.90813 0.0
O382 O 0.64974 0.07483 0.89561 0.0
O383 O 0.652 0.0677 0.9303 0.0
C384 C 0.1735 0.01454 0.13651 0.0
C385 C 0.15267 -0.02577 0.15539 0.0
C386 C 0.1913 0.08556 0.13643 0.0
C387 C 0.18789 0.11855 0.15513 0.0
H388 H 0.1744 -0.00928 0.12154 0.0
H389 H 0.20481 0.11376 0.12141 0.0
S390 S 0.14694 0.03895 0.20937 0.0
N391 N 0.13755 -0.02556 0.19372 0.0
N392 N 0.17103 0.10809 0.1936 0.0
C393 C 0.17282 0.08045 0.17444 0.0
C394 C 0.1548 0.00807 0.17453 0.0
C395 C 0.12738 0.19517 0.63155 0.0
C396 C 0.15212 0.18022 0.65048 0.0
C397 C 0.07432 0.2137 0.63195 0.0
C398 C 0.04314 0.21642 0.65122 0.0
H399 H 0.14725 0.19023 0.61626 0.0
H400 H 0.05537 0.22249 0.61697 0.0
S401 S 0.10074 0.19796 0.70547 0.0
N402 N 0.15053 0.18183 0.68927 0.0
N403 N 0.04978 0.21528 0.6899 0.0
C404 C 0.07252 0.20876 0.67036 0.0
C405 C 0.12697 0.19049 0.67 0.0
C406 C 0.83544 0.0448 0.1693 0.0
C407 C 0.7915 0.029 0.15134 0.0
C408 C 0.90614 0.09857 0.16864 0.0
C409 C 0.93549 0.1384 0.14998 0.0
H410 H 0.81662 0.01271 0.18362 0.0
H411 H 0.93871 0.10676 0.18261 0.0
S412 S 0.83835 0.12811 0.10024 0.0
N413 N 0.77847 0.065 0.11565 0.0
N414 N 0.91281 0.16558 0.11415 0.0
C415 C 0.89081 0.12687 0.13242 0.0
C416 C 0.81831 0.07238 0.1332 0.0
C417 C 0.73304 0.85072 0.63218 0.0
C418 C 0.72822 0.8156 0.65149 0.0
C419 C 0.7525 0.92224 0.63173 0.0
C420 C 0.76656 0.96084 0.65063 0.0
H421 H 0.72516 0.82392 0.61722 0.0
H422 H 0.75866 0.94779 0.61641 0.0
S423 S 0.74499 0.88902 0.70566 0.0
N424 N 0.72747 0.82156 0.69015 0.0
N425 N 0.763 0.95573 0.68942 0.0
C426 C 0.75492 0.92451 0.67018 0.0
C427 C 0.73554 0.85178 0.67059 0.0
C428 C 0.83899 0.70901 0.1397 0.0
C429 C 0.88119 0.72167 0.15793 0.0
C430 C 0.78543 0.72675 0.13912 0.0
C431 C 0.77138 0.75657 0.15689 0.0
H432 H 0.84956 0.68843 0.12541 0.0
H433 H 0.75623 0.71881 0.12442 0.0
S434 S 0.85839 0.78864 0.20976 0.0
N435 N 0.89942 0.75739 0.19511 0.0
N436 N 0.79777 0.78982 0.19409 0.0
C437 C 0.80871 0.76342 0.17587 0.0
C438 C 0.8637 0.7458 0.17641 0.0
C439 C 0.01751 0.82616 0.63012 0.0
C440 C -0.01759 0.79376 0.64916 0.0
C441 C 0.08868 0.87949 0.63021 0.0
C442 C 0.12714 0.90286 0.64931 0.0
H443 H -0.01076 0.81237 0.61511 0.0
H444 H 0.11222 0.90501 0.6153 0.0
S445 S 0.06376 0.82479 0.70297 0.0
N446 N -0.00559 0.78093 0.68729 0.0
N447 N 0.12814 0.88184 0.68738 0.0
C448 C 0.0945 0.86651 0.66823 0.0
C449 C 0.02203 0.81199 0.66818 0.0
C450 C 0.91551 0.78398 0.43265 0.0
C451 C 0.94967 0.78427 0.4137 0.0
C452 C 0.84411 0.76622 0.43262 0.0
C453 C 0.80462 0.74894 0.41363 0.0
H454 H 0.94477 0.80066 0.44747 0.0
H455 H 0.82128 0.77041 0.44739 0.0
S456 S 0.86522 0.72706 0.36057 0.0
N457 N 0.93557 0.75435 0.37604 0.0
N458 N 0.80152 0.72196 0.37603 0.0
C459 C 0.83628 0.7426 0.39495 0.0
C460 C 0.90891 0.76035 0.39496 0.0
C461 C 0.04245 0.84657 0.89042 0.0
C462 C 0.02849 0.80317 0.90852 0.0
C463 C 0.09576 0.91749 0.89063 0.0
C464 C 0.13666 0.94746 0.90897 0.0
H465 H 0.00922 0.82708 0.8764 0.0
H466 H 0.10264 0.94975 0.87666 0.0
S467 S 0.13174 0.85225 0.95873 0.0
N468 N 0.06783 0.79173 0.94384 0.0
N469 N 0.16724 0.92609 0.94452 0.0
C470 C 0.1271 0.90335 0.92658 0.0
C471 C 0.07328 0.8308 0.92625 0.0
C472 C 0.20507 0.16831 0.39651 0.0
C473 C 0.14798 0.16277 0.40853 0.0
C474 C 0.22144 0.1136 0.39687 0.0
C475 C 0.18089 0.05268 0.40925 0.0
H476 H 0.23754 0.21536 0.38706 0.0
H477 H 0.26579 0.11892 0.38756 0.0
S478 S 0.01795 0.00813 0.43994 0.0
N479 N 0.04652 0.08934 0.43101 0.0
N480 N 0.07548 -0.01434 0.43109 0.0
C481 C 0.12176 0.04558 0.42044 0.0
C482 C 0.10576 0.10111 0.42026 0.0
C483 C 0.07424 0.16958 0.88892 0.0
C484 C 0.11871 0.20192 0.90653 0.0
C485 C 0.00315 0.15249 0.88921 0.0
C486 C -0.02561 0.16697 0.90714 0.0
H487 H 0.09289 0.15288 0.87539 0.0
H488 H -0.03025 0.12441 0.87578 0.0
S489 S 0.07296 0.26717 0.9548 0.0
N490 N 0.13272 0.26007 0.94046 0.0
N491 N -0.002 0.22641 0.94125 0.0
C492 C 0.01973 0.20505 0.92399 0.0
C493 C 0.09236 0.22311 0.92359 0.0
C494 C 0.87911 0.1054 0.3924 0.0
C495 C 0.89073 0.15081 0.4096 0.0
C496 C 0.82829 0.03378 0.39359 0.0
C497 C 0.78709 0.00474 0.412 0.0
H498 H 0.91222 0.12415 0.37832 0.0
H499 H 0.8231 0.00053 0.38019 0.0
S500 S 0.78683 0.10363 0.45964 0.0
N501 N 0.84962 0.16403 0.44426 0.0
N502 N 0.75434 0.02826 0.44667 0.0
C503 C 0.79468 0.05025 0.42876 0.0
C504 C 0.84626 0.12363 0.42747 0.0
C505 C 0.72948 0.79837 0.92433 0.0
C506 C 0.7562 0.78286 0.90606 0.0
C507 C 0.71224 0.85217 0.9241 0.0
C508 C 0.72236 0.89323 0.90572 0.0
H509 H 0.72348 0.77002 0.93912 0.0
H510 H 0.69372 0.86355 0.9387 0.0
S511 S 0.78063 0.86655 0.85279 0.0
N512 N 0.78373 0.80681 0.86838 0.0
N513 N 0.7523 0.90886 0.86799 0.0
C514 C 0.74345 0.87441 0.88685 0.0
C515 C 0.76052 0.81918 0.88705 0.0
C516 C 0.0732 0.53169 0.13093 0.0
C517 C 0.05208 0.55152 0.14955 0.0
C518 C 0.08967 0.47729 0.13132 0.0
C519 C 0.08541 0.44086 0.15031 0.0
H520 H 0.08154 0.56121 0.11625 0.0
H521 H 0.10894 0.46603 0.11683 0.0
S522 S 0.01923 0.46353 0.20239 0.0
N523 N 0.01794 0.52409 0.18674 0.0
N524 N 0.04852 0.42144 0.18747 0.0
C525 C 0.0586 0.45623 0.16862 0.0
C526 C 0.04183 0.51159 0.16821 0.0
C527 C 0.58222 0.10685 0.67219 0.0
C528 C 0.61573 0.1093 0.65285 0.0
C529 C 0.51062 0.08807 0.67278 0.0
C530 C 0.47002 0.0714 0.65404 0.0
H531 H 0.61202 0.1223 0.68692 0.0
H532 H 0.48846 0.091 0.68788 0.0
S533 S 0.52874 0.05569 0.59998 0.0
N534 N 0.60019 0.08303 0.61497 0.0
N535 N 0.46535 0.04781 0.61611 0.0
C536 C 0.50113 0.06746 0.63489 0.0
C537 C 0.57416 0.08668 0.63427 0.0
C538 C 0.43634 0.57329 0.17132 0.0
C539 C 0.46804 0.60585 0.15186 0.0
C540 C 0.38294 0.5024 0.17223 0.0
C541 C 0.3589 0.46138 0.15371 0.0
H542 H 0.45099 0.60327 0.18594 0.0
H543 H 0.35786 0.481 0.18744 0.0
S544 S 0.43341 0.51783 0.09936 0.0
N545 N 0.47817 0.5891 0.11405 0.0
N546 N 0.37761 0.45559 0.11577 0.0
C547 C 0.3941 0.49159 0.13441 0.0
C548 C 0.44854 0.56396 0.13347 0.0
C549 C 0.83266 0.45961 0.63404 0.0
C550 C 0.83186 0.49321 0.65292 0.0
C551 C 0.85013 0.40596 0.63424 0.0
C552 C 0.8671 0.38354 0.65335 0.0
H553 H 0.81704 0.47278 0.61906 0.0
H554 H 0.84625 0.37931 0.6194 0.0
S555 S 0.88567 0.46358 0.70652 0.0
N556 N 0.85945 0.50729 0.69081 0.0
N557 N 0.89156 0.40563 0.69116 0.0
C558 C 0.87194 0.42042 0.67208 0.0
C559 C 0.85432 0.47534 0.67188 0.0
C560 C 0.41775 0.86197 0.16504 0.0
C561 C 0.44991 0.85943 0.14595 0.0
C562 C 0.34668 0.84451 0.16556 0.0
C563 C 0.30519 0.82453 0.14699 0.0
H564 H 0.44629 0.87347 0.17999 0.0
H565 H 0.32365 0.84443 0.18083 0.0
S566 S 0.36774 0.8223 0.09227 0.0
N567 N 0.43782 0.8448 0.10752 0.0
N568 N 0.30369 0.81234 0.10848 0.0
C569 C 0.33825 0.82792 0.12746 0.0
C570 C 0.4109 0.84556 0.12694 0.0
C571 C 0.53517 0.43345 0.63558 0.0
C572 C 0.55912 0.47142 0.65469 0.0
C573 C 0.48284 0.36219 0.63559 0.0
C574 C 0.45194 0.32601 0.65466 0.0
H575 H 0.55962 0.4576 0.62052 0.0
H576 H 0.46841 0.33484 0.6205 0.0
S577 S 0.48614 0.40475 0.70859 0.0
N578 N 0.54113 0.47025 0.69291 0.0
N579 N 0.44198 0.33598 0.69291 0.0
C580 C 0.47128 0.36466 0.67373 0.0
C581 C 0.52488 0.43749 0.67373 0.0
C582 C 0.40307 0.88607 0.42614 0.0
C583 C 0.37748 0.89732 0.40671 0.0
C584 C 0.45587 0.86721 0.42667 0.0
C585 C 0.48577 0.8594 0.40782 0.0
H586 H 0.37933 0.88759 0.44111 0.0
H587 H 0.47129 0.85611 0.442 0.0
S588 S 0.448 0.89734 0.35304 0.0
N589 N 0.39333 0.90946 0.36833 0.0
N590 N 0.49366 0.87502 0.36931 0.0
C591 C 0.46528 0.87666 0.38838 0.0
C592 C 0.41105 0.8956 0.38783 0.0
C593 C 0.56989 0.45056 0.89304 0.0
C594 C 0.60492 0.4797 0.91233 0.0
C595 C 0.49917 0.39659 0.89275 0.0
C596 C 0.4608 0.36938 0.91175 0.0
H597 H 0.59782 0.46766 0.87801 0.0
H598 H 0.47587 0.37357 0.87754 0.0
S599 S 0.52417 0.43604 0.96622 0.0
N600 N 0.59329 0.48398 0.95074 0.0
N601 N 0.45988 0.38197 0.95019 0.0
C602 C 0.4933 0.40188 0.93104 0.0
C603 C 0.56558 0.45705 0.93134 0.0
C604 C 0.10057 0.6075 0.39246 0.0
C605 C 0.10772 0.64326 0.41161 0.0
C606 C 0.08031 0.53594 0.39245 0.0
C607 C 0.06681 0.49755 0.4116 0.0
H608 H 0.11291 0.63532 0.37735 0.0
H609 H 0.07929 0.51185 0.37735 0.0
S610 S 0.06519 0.56324 0.46575 0.0
N611 N 0.09029 0.63273 0.45003 0.0
N612 N 0.05233 0.49774 0.44997 0.0
C613 C 0.06819 0.53112 0.43074 0.0
C614 C 0.08892 0.60421 0.43076 0.0
C615 C 0.5166 0.06293 0.89505 0.0
C616 C 0.54963 0.06204 0.91424 0.0
C617 C 0.46246 0.07972 0.89468 0.0
C618 C 0.43895 0.09594 0.91347 0.0
H619 H 0.53525 0.0545 0.87998 0.0
H620 H 0.44079 0.08236 0.8794 0.0
S621 S 0.49893 0.08798 0.96834 0.0
N622 N 0.54844 0.06912 0.95286 0.0
N623 N 0.446 0.10055 0.95218 0.0
C624 C 0.46708 0.0891 0.933 0.0
C625 C 0.52247 0.07193 0.93338 0.0
C626 C 0.35063 0.50447 0.42851 0.0
C627 C 0.31531 0.47325 0.40945 0.0
C628 C 0.42171 0.55832 0.42846 0.0
C629 C 0.4603 0.58299 0.40934 0.0
H630 H 0.32252 0.48936 0.44354 0.0
H631 H 0.44522 0.58316 0.44347 0.0
S632 S 0.39609 0.50994 0.35551 0.0
N633 N 0.32685 0.46484 0.37119 0.0
N634 N 0.46081 0.56522 0.37121 0.0
C635 C 0.42735 0.54831 0.39037 0.0
C636 C 0.35472 0.49381 0.39039 0.0
C637 C 0.83369 0.41769 0.93366 0.0
C638 C 0.8581 0.46063 0.91531 0.0
C639 C 0.81663 0.34671 0.93315 0.0
C640 C 0.82319 0.31635 0.91426 0.0
H641 H 0.82338 0.43756 0.94817 0.0
H642 H 0.79498 0.3147 0.94737 0.0
S643 S 0.89795 0.41024 0.86307 0.0
N644 N 0.89795 0.47075 0.87869 0.0
N645 N 0.86528 0.33737 0.87763 0.0
C646 C 0.85292 0.36032 0.89631 0.0
C647 C 0.87075 0.43256 0.89688 0.0
C648 C 0.14199 0.28275 0.29659 0.0
C649 C 0.1201 0.33083 0.30282 0.0
C650 C 0.15035 0.27225 0.27507 0.0
C651 C 0.13597 0.3083 0.25885 0.0
H652 H 0.14876 0.24974 0.30818 0.0
H653 H 0.16524 0.23314 0.27099 0.0
S654 S 0.075 0.43836 0.26657 0.0
N655 N 0.08587 0.41631 0.29091 0.0
N656 N 0.09611 0.3921 0.2505 0.0
C657 C 0.11459 0.35693 0.26479 0.0
C658 C 0.1078 0.36903 0.28673 0.0
C659 C 0.86072 0.17274 0.77503 0.0
C660 C 0.81005 0.16063 0.75913 0.0
C661 C 0.8423 0.16201 0.79666 0.0
C662 C 0.7725 0.13991 0.80339 0.0
H663 H 0.91461 0.18771 0.77059 0.0
H664 H 0.88235 0.16716 0.80788 0.0
S665 S 0.61922 0.09981 0.76812 0.0
N666 N 0.68622 0.12224 0.75164 0.0
N667 N 0.65268 0.10793 0.79224 0.0
C668 C 0.72179 0.12988 0.78764 0.0
C669 C 0.7402 0.13895 0.76557 0.0
C670 C 0.65085 0.7826 0.26606 0.0
C671 C 0.60517 0.80672 0.2587 0.0
C672 C 0.66036 0.77619 0.2879 0.0
C673 C 0.62542 0.79441 0.30333 0.0
H674 H 0.68273 0.77245 0.25503 0.0
H675 H 0.69772 0.75951 0.29284 0.0
S676 S 0.50186 0.86248 0.29249 0.0
N677 N 0.52343 0.84754 0.26871 0.0
N678 N 0.54542 0.84024 0.30961 0.0
C679 C 0.57915 0.81797 0.29624 0.0
C680 C 0.56826 0.8231 0.274 0.0
C681 C 0.76347 0.66829 0.77485 0.0
C682 C 0.77989 0.63288 0.75917 0.0
C683 C 0.77178 0.65909 0.79659 0.0
C684 C 0.796 0.6132 0.80358 0.0
H685 H 0.74687 0.70586 0.77018 0.0
H686 H 0.76311 0.6914 0.80777 0.0
S687 S 0.84726 0.50846 0.76897 0.0
N688 N 0.82396 0.55202 0.75218 0.0
N689 N 0.83488 0.53068 0.79295 0.0
C690 C 0.81051 0.57575 0.78803 0.0
C691 C 0.80344 0.58633 0.76588 0.0
C692 C 0.15304 0.84788 0.26511 0.0
C693 C 0.13062 0.77761 0.25929 0.0
C694 C 0.16184 0.86805 0.28653 0.0
C695 C 0.14769 0.81881 0.30307 0.0
H696 H 0.1597 0.88683 0.25323 0.0
H697 H 0.17692 0.92219 0.29028 0.0
S698 S 0.08616 0.62781 0.29644 0.0
N699 N 0.09635 0.65902 0.27192 0.0
N700 N 0.108 0.69606 0.31211 0.0
C701 C 0.12617 0.74863 0.29753 0.0
C702 C 0.11869 0.72834 0.27569 0.0
C703 C 0.27189 0.08137 0.79624 0.0
C704 C 0.31399 0.15113 0.80341 0.0
C705 C 0.26645 0.06561 0.77449 0.0
C706 C 0.302 0.11905 0.75908 0.0
H707 H 0.23919 0.0395 0.80733 0.0
H708 H 0.23119 0.01164 0.76955 0.0
S709 S 0.41729 0.31053 0.76971 0.0
N710 N 0.39283 0.27387 0.79352 0.0
N711 N 0.37932 0.24486 0.75261 0.0
C712 C 0.34532 0.18882 0.76608 0.0
C713 C 0.35184 0.20465 0.78824 0.0
C714 C 0.23487 0.17051 0.03238 0.0
C715 C 0.23331 0.19742 1.01216 0.0
C716 C 0.21558 0.19393 0.0506 0.0
C717 C 0.19392 0.24512 0.04921 0.0
H718 H 0.25329 0.13273 0.03413 0.0
H719 H 0.22145 0.17449 0.06589 0.0
S720 S 0.18745 0.33675 1.00005 0.0
N721 N 0.21345 0.28132 0.99189 0.0
N722 N 0.17502 0.32376 1.02595 0.0
C723 C 0.19235 0.27234 1.029 0.0
C724 C 0.21234 0.24879 1.01051 0.0
C725 C 0.03433 0.26342 0.53216 0.0
C726 C 0.0088 0.26839 0.51206 0.0
C727 C -0.01027 0.24184 0.55011 0.0
C728 C 0.91783 0.22429 0.54856 0.0
H729 H 0.08966 0.27822 0.53407 0.0
H730 H 0.01296 0.24253 0.56539 0.0
S731 S 0.82777 0.2355 0.49966 0.0
N732 N 0.90919 0.25908 0.49178 0.0
N733 N 0.82476 0.21667 0.52526 0.0
C734 C 0.89213 0.22953 0.52845 0.0
C735 C 0.93762 0.25181 0.51027 0.0
C736 C 0.7318 -0.02264 0.05044 0.0
C737 C 0.69057 0.90333 0.04821 0.0
C738 C 0.75372 0.02273 0.03261 0.0
C739 C 0.73554 -0.004 1.01185 0.0
H740 H 0.74338 0.00084 0.06605 0.0
H741 H 0.78268 0.07941 0.03506 0.0
S742 S 0.62707 0.80659 0.9974 0.0
N743 N 0.63297 0.80562 1.02359 0.0
N744 N 0.67224 0.89073 0.9902 0.0
C745 C 0.69552 0.92213 1.00938 0.0
C746 C 0.67344 0.87597 1.02752 0.0
C747 C 0.68433 0.72988 0.55141 0.0
C748 C 0.7163 0.68756 0.54912 0.0
C749 C 0.66261 0.75386 0.5336 0.0
C750 C 0.67212 0.73649 0.51289 0.0
H751 H 0.67276 0.74165 0.56707 0.0
H752 H 0.63656 0.7847 0.53601 0.0
S753 S 0.74775 0.62277 0.4983 0.0
N754 N 0.75374 0.6273 0.52451 0.0
N755 N 0.71133 0.67077 0.49112 0.0
C756 C 0.70326 0.6937 0.51037 0.0
C757 C 0.72554 0.66951 0.52847 0.0
C758 C -0.02559 0.74088 1.01229 0.0
C759 C 0.89986 0.70005 1.01392 0.0
C760 C 0.0178 0.7612 1.03047 0.0
C761 C -0.01153 0.74156 0.05096 0.0
H762 H -0.00014 0.75326 0.99688 0.0
H763 H 0.07497 0.78983 1.02849 0.0
S764 S 0.79657 0.63399 0.06386 0.0
N765 N 0.79875 0.64187 0.03769 0.0
N766 N 0.88021 0.67773 0.07176 0.0
C767 C 0.91403 0.70216 0.05285 0.0
C768 C 0.86988 0.68191 0.03436 0.0
C769 C 0.21362 0.92157 0.53223 0.0
C770 C 0.22876 0.95165 0.51175 0.0
C771 C 0.23463 0.96435 0.5504 0.0
C772 C 0.27178 0.03872 0.54868 0.0
H773 H 0.18642 0.86458 0.53415 0.0
H774 H 0.22436 0.9391 0.56587 0.0
S775 S 0.32908 0.14334 0.49875 0.0
N776 N 0.28657 0.06017 0.49082 0.0
N777 N 0.32515 0.1404 0.525 0.0
C778 C 0.2878 0.06933 0.52832 0.0
C779 C 0.26632 0.02587 0.50983 0.0
loop_
_geom_bond_atom_site_label_1
_geom_bond_atom_site_label_2
_geom_bond_distance
_geom_bond_site_symmetry_2
_ccdc_geom_bond_type
Zn0 O1 2.055 . S
Zn0 O8 2.046 . S
Zn0 N16 2.036 . S
Zn0 O28 2.053 . S
Zn0 O30 2.066 . S
O1 Zn0 2.055 . S
O1 C4 1.259 . S
C2 O30 1.256 . S
C2 O31 1.244 . S
Zn3 O5 2.046 . S
Zn3 O7 2.055 . S
Zn3 N9 2.036 . S
Zn3 O27 2.066 . S
Zn3 O31 2.053 . S
C4 O1 1.259 . S
C4 O5 1.254 . S
O5 Zn3 2.046 . S
O5 C4 1.254 . S
C6 O27 1.256 . S
C6 O28 1.244 . S
O7 Zn3 2.055 . S
O7 C29 1.259 . S
O8 Zn0 2.046 . S
O8 C29 1.254 . S
N9 Zn3 2.036 . S
N9 C10 1.298 . S
N9 N12 1.398 . S
C10 N9 1.298 . S
C10 N13 1.367 . S
C10 C23 1.481 . S
C11 N12 1.299 . S
C11 N13 1.379 . S
N12 N9 1.398 . S
N12 C11 1.299 . S
N13 C10 1.367 . S
N13 C11 1.379 . S
C14 N16 1.298 . S
C14 N18 1.367 . S
C14 C22 1.481 . S
C15 N17 1.299 . S
C15 N18 1.379 . S
N16 Zn0 2.036 . S
N16 C14 1.298 . S
N16 N17 1.398 . S
N17 C15 1.299 . S
N17 N16 1.398 . S
N18 C14 1.367 . S
N18 C15 1.379 . S
H19 C22 0.980 . S
H20 C22 0.981 . S
H21 C22 0.981 . S
C22 C14 1.481 . S
C22 H19 0.980 . S
C22 H20 0.981 . S
C22 H21 0.981 . S
C23 C10 1.481 . S
C23 H24 0.980 . S
C23 H25 0.981 . S
C23 H26 0.981 . S
H24 C23 0.980 . S
H25 C23 0.981 . S
H26 C23 0.981 . S
O27 Zn3 2.066 . S
O27 C6 1.256 . S
O28 Zn0 2.053 . S
O28 C6 1.244 . S
C29 O7 1.259 . S
C29 O8 1.254 . S
O30 Zn0 2.066 . S
O30 C2 1.256 . S
O31 C2 1.244 . S
O31 Zn3 2.053 . S
Zn32 O33 2.055 . S
Zn32 O40 2.046 . S
Zn32 N48 2.036 . S
Zn32 O60 2.053 . S
Zn32 O62 2.066 . S
O33 Zn32 2.055 . S
O33 C36 1.259 . S
C34 O62 1.256 . S
C34 O63 1.244 . S
Zn35 O37 2.046 . S
Zn35 O39 2.055 . S
Zn35 N41 2.036 . S
Zn35 O59 2.066 . S
Zn35 O63 2.053 . S
C36 O33 1.259 . S
C36 O37 1.254 . S
O37 Zn35 2.046 . S
O37 C36 1.254 . S
C38 O59 1.256 . S
C38 O60 1.244 . S
O39 Zn35 2.055 . S
O39 C61 1.259 . S
O40 Zn32 2.046 . S
O40 C61 1.254 . S
N41 Zn35 2.036 . S
N41 C42 1.298 . S
N41 N44 1.398 . S
C42 N41 1.298 . S
C42 N45 1.367 . S
C42 C55 1.481 . S
C43 N44 1.299 . S
C43 N45 1.379 . S
N44 N41 1.398 . S
N44 C43 1.299 . S
N45 C42 1.367 . S
N45 C43 1.379 . S
C46 N48 1.298 . S
C46 N50 1.367 . S
C46 C54 1.481 . S
C47 N49 1.299 . S
C47 N50 1.379 . S
N48 Zn32 2.036 . S
N48 C46 1.298 . S
N48 N49 1.398 . S
N49 C47 1.299 . S
N49 N48 1.398 . S
N50 C46 1.367 . S
N50 C47 1.379 . S
H51 C54 0.980 . S
H52 C54 0.981 . S
H53 C54 0.981 . S
C54 C46 1.481 . S
C54 H51 0.980 . S
C54 H52 0.981 . S
C54 H53 0.981 . S
C55 C42 1.481 . S
C55 H56 0.980 . S
C55 H57 0.981 . S
C55 H58 0.981 . S
H56 C55 0.980 . S
H57 C55 0.981 . S
H58 C55 0.981 . S
O59 Zn35 2.066 . S
O59 C38 1.256 . S
O60 Zn32 2.053 . S
O60 C38 1.244 . S
C61 O39 1.259 . S
C61 O40 1.254 . S
O62 Zn32 2.066 . S
O62 C34 1.256 . S
O63 C34 1.244 . S
O63 Zn35 2.053 . S
Zn64 O65 2.055 . S
Zn64 O72 2.046 . S
Zn64 N80 2.036 . S
Zn64 O92 2.053 . S
Zn64 O94 2.066 . S
O65 Zn64 2.055 . S
O65 C68 1.259 . S
C66 O94 1.256 . S
C66 O95 1.244 . S
Zn67 O69 2.046 . S
Zn67 O71 2.055 . S
Zn67 N73 2.036 . S
Zn67 O91 2.066 . S
Zn67 O95 2.053 . S
C68 O65 1.259 . S
C68 O69 1.254 . S
O69 Zn67 2.046 . S
O69 C68 1.254 . S
C70 O91 1.256 . S
C70 O92 1.244 . S
O71 Zn67 2.055 . S
O71 C93 1.259 . S
O72 Zn64 2.046 . S
O72 C93 1.254 . S
N73 Zn67 2.036 . S
N73 C74 1.298 . S
N73 N76 1.398 . S
C74 N73 1.298 . S
C74 N77 1.367 . S
C74 C87 1.481 . S
C75 N76 1.299 . S
C75 N77 1.379 . S
N76 N73 1.398 . S
N76 C75 1.299 . S
N77 C74 1.367 . S
N77 C75 1.379 . S
C78 N80 1.298 . S
C78 N82 1.367 . S
C78 C86 1.481 . S
C79 N81 1.299 . S
C79 N82 1.379 . S
N80 Zn64 2.036 . S
N80 C78 1.298 . S
N80 N81 1.398 . S
N81 C79 1.299 . S
N81 N80 1.398 . S
N82 C78 1.367 . S
N82 C79 1.379 . S
H83 C86 0.980 . S
H84 C86 0.981 . S
H85 C86 0.981 . S
C86 C78 1.481 . S
C86 H83 0.980 . S
C86 H84 0.981 . S
C86 H85 0.981 . S
C87 C74 1.481 . S
C87 H88 0.980 . S
C87 H89 0.981 . S
C87 H90 0.981 . S
H88 C87 0.980 . S
H89 C87 0.981 . S
H90 C87 0.981 . S
O91 Zn67 2.066 . S
O91 C70 1.256 . S
O92 Zn64 2.053 . S
O92 C70 1.244 . S
C93 O71 1.259 . S
C93 O72 1.254 . S
O94 Zn64 2.066 . S
O94 C66 1.256 . S
O95 C66 1.244 . S
O95 Zn67 2.053 . S
Zn96 O97 2.055 . S
Zn96 O104 2.046 . S
Zn96 N112 2.036 . S
Zn96 O124 2.053 . S
Zn96 O126 2.066 . S
O97 Zn96 2.055 . S
O97 C100 1.259 . S
C98 O126 1.256 . S
C98 O127 1.244 . S
Zn99 O101 2.046 . S
Zn99 O103 2.055 . S
Zn99 N105 2.036 . S
Zn99 O123 2.066 . S
Zn99 O127 2.053 . S
C100 O97 1.259 . S
C100 O101 1.254 . S
O101 Zn99 2.046 . S
O101 C100 1.254 . S
C102 O123 1.256 . S
C102 O124 1.244 . S
O103 Zn99 2.055 . S
O103 C125 1.259 . S
O104 Zn96 2.046 . S
O104 C125 1.254 . S
N105 Zn99 2.036 . S
N105 C106 1.298 . S
N105 N108 1.398 . S
C106 N105 1.298 . S
C106 N109 1.367 . S
C106 C119 1.481 . S
C107 N108 1.299 . S
C107 N109 1.379 . S
N108 N105 1.398 . S
N108 C107 1.299 . S
N109 C106 1.367 . S
N109 C107 1.379 . S
C110 N112 1.298 . S
C110 N114 1.367 . S
C110 C118 1.481 . S
C111 N113 1.299 . S
C111 N114 1.379 . S
N112 Zn96 2.036 . S
N112 C110 1.298 . S
N112 N113 1.398 . S
N113 C111 1.299 . S
N113 N112 1.398 . S
N114 C110 1.367 . S
N114 C111 1.379 . S
H115 C118 0.980 . S
H116 C118 0.981 . S
H117 C118 0.981 . S
C118 C110 1.481 . S
C118 H115 0.980 . S
C118 H116 0.981 . S
C118 H117 0.981 . S
C119 C106 1.481 . S
C119 H120 0.980 . S
C119 H121 0.981 . S
C119 H122 0.981 . S
H120 C119 0.980 . S
H121 C119 0.981 . S
H122 C119 0.981 . S
O123 Zn99 2.066 . S
O123 C102 1.256 . S
O124 Zn96 2.053 . S
O124 C102 1.244 . S
C125 O103 1.259 . S
C125 O104 1.254 . S
O126 Zn96 2.066 . S
O126 C98 1.256 . S
O127 C98 1.244 . S
O127 Zn99 2.053 . S
Zn128 O129 2.055 . S
Zn128 O136 2.046 . S
Zn128 N144 2.036 . S
Zn128 O156 2.053 . S
Zn128 O158 2.066 . S
O129 Zn128 2.055 . S
O129 C132 1.259 . S
C130 O158 1.256 . S
C130 O159 1.244 . S
Zn131 O133 2.046 . S
Zn131 O135 2.055 . S
Zn131 N137 2.036 . S
Zn131 O155 2.066 . S
Zn131 O159 2.053 . S
C132 O129 1.259 . S
C132 O133 1.254 . S
O133 Zn131 2.046 . S
O133 C132 1.254 . S
C134 O155 1.256 . S
C134 O156 1.244 . S
O135 Zn131 2.055 . S
O135 C157 1.259 . S
O136 Zn128 2.046 . S
O136 C157 1.254 . S
N137 Zn131 2.036 . S
N137 C138 1.298 . S
N137 N140 1.398 . S
C138 N137 1.298 . S
C138 N141 1.367 . S
C138 C151 1.481 . S
C139 N140 1.299 . S
C139 N141 1.379 . S
N140 N137 1.398 . S
N140 C139 1.299 . S
N141 C138 1.367 . S
N141 C139 1.379 . S
C142 N144 1.298 . S
C142 N146 1.367 . S
C142 C150 1.481 . S
C143 N145 1.299 . S
C143 N146 1.379 . S
N144 Zn128 2.036 . S
N144 C142 1.298 . S
N144 N145 1.398 . S
N145 C143 1.299 . S
N145 N144 1.398 . S
N146 C142 1.367 . S
N146 C143 1.379 . S
H147 C150 0.980 . S
H148 C150 0.981 . S
H149 C150 0.981 . S
C150 C142 1.481 . S
C150 H147 0.980 . S
C150 H148 0.981 . S
C150 H149 0.981 . S
C151 C138 1.481 . S
C151 H152 0.980 . S
C151 H153 0.981 . S
C151 H154 0.981 . S
H152 C151 0.980 . S
H153 C151 0.981 . S
H154 C151 0.981 . S
O155 Zn131 2.066 . S
O155 C134 1.256 . S
O156 Zn128 2.053 . S
O156 C134 1.244 . S
C157 O135 1.259 . S
C157 O136 1.254 . S
O158 Zn128 2.066 . S
O158 C130 1.256 . S
O159 C130 1.244 . S
O159 Zn131 2.053 . S
Zn160 O161 2.055 . S
Zn160 O168 2.046 . S
Zn160 N176 2.036 . S
Zn160 O188 2.053 . S
Zn160 O190 2.066 . S
O161 Zn160 2.055 . S
O161 C164 1.259 . S
C162 O190 1.256 . S
C162 O191 1.244 . S
Zn163 O165 2.046 . S
Zn163 O167 2.055 . S
Zn163 N169 2.036 . S
Zn163 O187 2.066 . S
Zn163 O191 2.053 . S
C164 O161 1.259 . S
C164 O165 1.254 . S
O165 Zn163 2.046 . S
O165 C164 1.254 . S
C166 O187 1.256 . S
C166 O188 1.244 . S
O167 Zn163 2.055 . S
O167 C189 1.259 . S
O168 Zn160 2.046 . S
O168 C189 1.254 . S
N169 Zn163 2.036 . S
N169 C170 1.298 . S
N169 N172 1.398 . S
C170 N169 1.298 . S
C170 N173 1.367 . S
C170 C183 1.481 . S
C171 N172 1.299 . S
C171 N173 1.379 . S
N172 N169 1.398 . S
N172 C171 1.299 . S
N173 C170 1.367 . S
N173 C171 1.379 . S
C174 N176 1.298 . S
C174 N178 1.367 . S
C174 C182 1.481 . S
C175 N177 1.299 . S
C175 N178 1.379 . S
N176 Zn160 2.036 . S
N176 C174 1.298 . S
N176 N177 1.398 . S
N177 C175 1.299 . S
N177 N176 1.398 . S
N178 C174 1.367 . S
N178 C175 1.379 . S
H179 C182 0.980 . S
H180 C182 0.981 . S
H181 C182 0.981 . S
C182 C174 1.481 . S
C182 H179 0.980 . S
C182 H180 0.981 . S
C182 H181 0.981 . S
C183 C170 1.481 . S
C183 H184 0.980 . S
C183 H185 0.981 . S
C183 H186 0.981 . S
H184 C183 0.980 . S
H185 C183 0.981 . S
H186 C183 0.981 . S
O187 Zn163 2.066 . S
O187 C166 1.256 . S
O188 Zn160 2.053 . S
O188 C166 1.244 . S
C189 O167 1.259 . S
C189 O168 1.254 . S
O190 Zn160 2.066 . S
O190 C162 1.256 . S
O191 C162 1.244 . S
O191 Zn163 2.053 . S
Zn192 O193 2.055 . S
Zn192 O200 2.046 . S
Zn192 N208 2.036 . S
Zn192 O220 2.053 . S
Zn192 O222 2.066 . S
O193 Zn192 2.055 . S
O193 C196 1.259 . S
C194 O222 1.256 . S
C194 O223 1.244 . S
Zn195 O197 2.046 . S
Zn195 O199 2.055 . S
Zn195 N201 2.036 . S
Zn195 O219 2.066 . S
Zn195 O223 2.053 . S
C196 O193 1.259 . S
C196 O197 1.254 . S
O197 Zn195 2.046 . S
O197 C196 1.254 . S
C198 O219 1.256 . S
C198 O220 1.244 . S
O199 Zn195 2.055 . S
O199 C221 1.259 . S
O200 Zn192 2.046 . S
O200 C221 1.254 . S
N201 Zn195 2.036 . S
N201 C202 1.298 . S
N201 N204 1.398 . S
C202 N201 1.298 . S
C202 N205 1.367 . S
C202 C215 1.481 . S
C203 N204 1.299 . S
C203 N205 1.379 . S
N204 N201 1.398 . S
N204 C203 1.299 . S
N205 C202 1.367 . S
N205 C203 1.379 . S
C206 N208 1.298 . S
C206 N210 1.367 . S
C206 C214 1.481 . S
C207 N209 1.299 . S
C207 N210 1.379 . S
N208 Zn192 2.036 . S
N208 C206 1.298 . S
N208 N209 1.398 . S
N209 C207 1.299 . S
N209 N208 1.398 . S
N210 C206 1.367 . S
N210 C207 1.379 . S
H211 C214 0.980 . S
H212 C214 0.981 . S
H213 C214 0.981 . S
C214 C206 1.481 . S
C214 H211 0.980 . S
C214 H212 0.981 . S
C214 H213 0.981 . S
C215 C202 1.481 . S
C215 H216 0.980 . S
C215 H217 0.981 . S
C215 H218 0.981 . S
H216 C215 0.980 . S
H217 C215 0.981 . S
H218 C215 0.981 . S
O219 Zn195 2.066 . S
O219 C198 1.256 . S
O220 Zn192 2.053 . S
O220 C198 1.244 . S
C221 O199 1.259 . S
C221 O200 1.254 . S
O222 Zn192 2.066 . S
O222 C194 1.256 . S
O223 C194 1.244 . S
O223 Zn195 2.053 . S
Zn224 O225 2.055 . S
Zn224 O232 2.046 . S
Zn224 N240 2.036 . S
Zn224 O252 2.053 . S
Zn224 O254 2.066 . S
O225 Zn224 2.055 . S
O225 C228 1.259 . S
C226 O254 1.256 . S
C226 O255 1.244 . S
Zn227 O229 2.046 . S
Zn227 O231 2.055 . S
Zn227 N233 2.036 . S
Zn227 O251 2.066 . S
Zn227 O255 2.053 . S
C228 O225 1.259 . S
C228 O229 1.254 . S
O229 Zn227 2.046 . S
O229 C228 1.254 . S
C230 O251 1.256 . S
C230 O252 1.244 . S
O231 Zn227 2.055 . S
O231 C253 1.259 . S
O232 Zn224 2.046 . S
O232 C253 1.254 . S
N233 Zn227 2.036 . S
N233 C234 1.298 . S
N233 N236 1.398 . S
C234 N233 1.298 . S
C234 N237 1.367 . S
C234 C247 1.481 . S
C235 N236 1.299 . S
C235 N237 1.379 . S
N236 N233 1.398 . S
N236 C235 1.299 . S
N237 C234 1.367 . S
N237 C235 1.379 . S
C238 N240 1.298 . S
C238 N242 1.367 . S
C238 C246 1.481 . S
C239 N241 1.299 . S
C239 N242 1.379 . S
N240 Zn224 2.036 . S
N240 C238 1.298 . S
N240 N241 1.398 . S
N241 C239 1.299 . S
N241 N240 1.398 . S
N242 C238 1.367 . S
N242 C239 1.379 . S
H243 C246 0.980 . S
H244 C246 0.981 . S
H245 C246 0.981 . S
C246 C238 1.481 . S
C246 H243 0.980 . S
C246 H244 0.981 . S
C246 H245 0.981 . S
C247 C234 1.481 . S
C247 H248 0.980 . S
C247 H249 0.981 . S
C247 H250 0.981 . S
H248 C247 0.980 . S
H249 C247 0.981 . S
H250 C247 0.981 . S
O251 Zn227 2.066 . S
O251 C230 1.256 . S
O252 Zn224 2.053 . S
O252 C230 1.244 . S
C253 O231 1.259 . S
C253 O232 1.254 . S
O254 Zn224 2.066 . S
O254 C226 1.256 . S
O255 C226 1.244 . S
O255 Zn227 2.053 . S
Zn256 O257 2.055 . S
Zn256 O264 2.046 . S
Zn256 N272 2.036 . S
Zn256 O284 2.053 . S
Zn256 O286 2.066 . S
O257 Zn256 2.055 . S
O257 C260 1.259 . S
C258 O286 1.256 . S
C258 O287 1.244 . S
Zn259 O261 2.046 . S
Zn259 O263 2.055 . S
Zn259 N265 2.036 . S
Zn259 O283 2.066 . S
Zn259 O287 2.053 . S
C260 O257 1.259 . S
C260 O261 1.254 . S
O261 Zn259 2.046 . S
O261 C260 1.254 . S
C262 O283 1.256 . S
C262 O284 1.244 . S
O263 Zn259 2.055 . S
O263 C285 1.259 . S
O264 Zn256 2.046 . S
O264 C285 1.254 . S
N265 Zn259 2.036 . S
N265 C266 1.298 . S
N265 N268 1.398 . S
C266 N265 1.298 . S
C266 N269 1.367 . S
C266 C279 1.481 . S
C267 N268 1.299 . S
C267 N269 1.379 . S
N268 N265 1.398 . S
N268 C267 1.299 . S
N269 C266 1.367 . S
N269 C267 1.379 . S
C270 N272 1.298 . S
C270 N274 1.367 . S
C270 C278 1.481 . S
C271 N273 1.299 . S
C271 N274 1.379 . S
N272 Zn256 2.036 . S
N272 C270 1.298 . S
N272 N273 1.398 . S
N273 C271 1.299 . S
N273 N272 1.398 . S
N274 C270 1.367 . S
N274 C271 1.379 . S
H275 C278 0.980 . S
H276 C278 0.981 . S
H277 C278 0.981 . S
C278 C270 1.481 . S
C278 H275 0.980 . S
C278 H276 0.981 . S
C278 H277 0.981 . S
C279 C266 1.481 . S
C279 H280 0.980 . S
C279 H281 0.981 . S
C279 H282 0.981 . S
H280 C279 0.980 . S
H281 C279 0.981 . S
H282 C279 0.981 . S
O283 Zn259 2.066 . S
O283 C262 1.256 . S
O284 Zn256 2.053 . S
O284 C262 1.244 . S
C285 O263 1.259 . S
C285 O264 1.254 . S
O286 Zn256 2.066 . S
O286 C258 1.256 . S
O287 C258 1.244 . S
O287 Zn259 2.053 . S
Zn288 O289 2.055 . S
Zn288 O296 2.046 . S
Zn288 N304 2.036 . S
Zn288 O316 2.053 . S
Zn288 O318 2.066 . S
O289 Zn288 2.055 . S
O289 C292 1.259 . S
C290 O318 1.256 . S
C290 O319 1.244 . S
Zn291 O293 2.046 . S
Zn291 O295 2.055 . S
Zn291 N297 2.036 . S
Zn291 O315 2.066 . S
Zn291 O319 2.053 . S
C292 O289 1.259 . S
C292 O293 1.254 . S
O293 Zn291 2.046 . S
O293 C292 1.254 . S
C294 O315 1.256 . S
C294 O316 1.244 . S
O295 Zn291 2.055 . S
O295 C317 1.259 . S
O296 Zn288 2.046 . S
O296 C317 1.254 . S
N297 Zn291 2.036 . S
N297 C298 1.298 . S
N297 N300 1.398 . S
C298 N297 1.298 . S
C298 N301 1.367 . S
C298 C311 1.481 . S
C299 N300 1.299 . S
C299 N301 1.379 . S
N300 N297 1.398 . S
N300 C299 1.299 . S
N301 C298 1.367 . S
N301 C299 1.379 . S
C302 N304 1.298 . S
C302 N306 1.367 . S
C302 C310 1.481 . S
C303 N305 1.299 . S
C303 N306 1.379 . S
N304 Zn288 2.036 . S
N304 C302 1.298 . S
N304 N305 1.398 . S
N305 C303 1.299 . S
N305 N304 1.398 . S
N306 C302 1.367 . S
N306 C303 1.379 . S
H307 C310 0.980 . S
H308 C310 0.981 . S
H309 C310 0.981 . S
C310 C302 1.481 . S
C310 H307 0.980 . S
C310 H308 0.981 . S
C310 H309 0.981 . S
C311 C298 1.481 . S
C311 H312 0.980 . S
C311 H313 0.981 . S
C311 H314 0.981 . S
H312 C311 0.980 . S
H313 C311 0.981 . S
H314 C311 0.981 . S
O315 Zn291 2.066 . S
O315 C294 1.256 . S
O316 Zn288 2.053 . S
O316 C294 1.244 . S
C317 O295 1.259 . S
C317 O296 1.254 . S
O318 Zn288 2.066 . S
O318 C290 1.256 . S
O319 C290 1.244 . S
O319 Zn291 2.053 . S
Zn320 O321 2.055 . S
Zn320 O328 2.046 . S
Zn320 N336 2.036 . S
Zn320 O348 2.053 . S
Zn320 O350 2.066 . S
O321 Zn320 2.055 . S
O321 C324 1.259 . S
C322 O350 1.256 . S
C322 O351 1.244 . S
Zn323 O325 2.046 . S
Zn323 O327 2.055 . S
Zn323 N329 2.036 . S
Zn323 O347 2.066 . S
Zn323 O351 2.053 . S
C324 O321 1.259 . S
C324 O325 1.254 . S
O325 Zn323 2.046 . S
O325 C324 1.254 . S
C326 O347 1.256 . S
C326 O348 1.244 . S
O327 Zn323 2.055 . S
O327 C349 1.259 . S
O328 Zn320 2.046 . S
O328 C349 1.254 . S
N329 Zn323 2.036 . S
N329 C330 1.298 . S
N329 N332 1.398 . S
C330 N329 1.298 . S
C330 N333 1.367 . S
C330 C343 1.481 . S
C331 N332 1.299 . S
C331 N333 1.379 . S
N332 N329 1.398 . S
N332 C331 1.299 . S
N333 C330 1.367 . S
N333 C331 1.379 . S
C334 N336 1.298 . S
C334 N338 1.367 . S
C334 C342 1.481 . S
C335 N337 1.299 . S
C335 N338 1.379 . S
N336 Zn320 2.036 . S
N336 C334 1.298 . S
N336 N337 1.398 . S
N337 C335 1.299 . S
N337 N336 1.398 . S
N338 C334 1.367 . S
N338 C335 1.379 . S
H339 C342 0.980 . S
H340 C342 0.981 . S
H341 C342 0.981 . S
C342 C334 1.481 . S
C342 H339 0.980 . S
C342 H340 0.981 . S
C342 H341 0.981 . S
C343 C330 1.481 . S
C343 H344 0.980 . S
C343 H345 0.981 . S
C343 H346 0.981 . S
H344 C343 0.980 . S
H345 C343 0.981 . S
H346 C343 0.981 . S
O347 Zn323 2.066 . S
O347 C326 1.256 . S
O348 Zn320 2.053 . S
O348 C326 1.244 . S
C349 O327 1.259 . S
C349 O328 1.254 . S
O350 Zn320 2.066 . S
O350 C322 1.256 . S
O351 C322 1.244 . S
O351 Zn323 2.053 . S
Zn352 O353 2.055 . S
Zn352 O360 2.046 . S
Zn352 N368 2.036 . S
Zn352 O380 2.053 . S
Zn352 O382 2.066 . S
O353 Zn352 2.055 . S
O353 C356 1.259 . S
C354 O382 1.256 . S
C354 O383 1.244 . S
Zn355 O357 2.046 . S
Zn355 O359 2.055 . S
Zn355 N361 2.036 . S
Zn355 O379 2.066 . S
Zn355 O383 2.053 . S
C356 O353 1.259 . S
C356 O357 1.254 . S
O357 Zn355 2.046 . S
O357 C356 1.254 . S
C358 O379 1.256 . S
C358 O380 1.244 . S
O359 Zn355 2.055 . S
O359 C381 1.259 . S
O360 Zn352 2.046 . S
O360 C381 1.254 . S
N361 Zn355 2.036 . S
N361 C362 1.298 . S
N361 N364 1.398 . S
C362 N361 1.298 . S
C362 N365 1.367 . S
C362 C375 1.481 . S
C363 N364 1.299 . S
C363 N365 1.379 . S
N364 N361 1.398 . S
N364 C363 1.299 . S
N365 C362 1.367 . S
N365 C363 1.379 . S
C366 N368 1.298 . S
C366 N370 1.367 . S
C366 C374 1.481 . S
C367 N369 1.299 . S
C367 N370 1.379 . S
N368 Zn352 2.036 . S
N368 C366 1.298 . S
N368 N369 1.398 . S
N369 C367 1.299 . S
N369 N368 1.398 . S
N370 C366 1.367 . S
N370 C367 1.379 . S
H371 C374 0.980 . S
H372 C374 0.981 . S
H373 C374 0.981 . S
C374 C366 1.481 . S
C374 H371 0.980 . S
C374 H372 0.981 . S
C374 H373 0.981 . S
C375 C362 1.481 . S
C375 H376 0.980 . S
C375 H377 0.981 . S
C375 H378 0.981 . S
H376 C375 0.980 . S
H377 C375 0.981 . S
H378 C375 0.981 . S
O379 Zn355 2.066 . S
O379 C358 1.256 . S
O380 Zn352 2.053 . S
O380 C358 1.244 . S
C381 O359 1.259 . S
C381 O360 1.254 . S
O382 Zn352 2.066 . S
O382 C354 1.256 . S
O383 C354 1.244 . S
O383 Zn355 2.053 . S
C384 C385 1.369 . S
C384 C386 1.419 . S
C384 H388 0.930 . S
C385 C384 1.369 . S
C385 C394 1.429 . S
C386 C384 1.419 . S
C386 C387 1.363 . S
C386 H389 0.929 . S
C387 C386 1.363 . S
C387 C393 1.428 . S
H388 C384 0.930 . S
H389 C386 0.929 . S
S390 N391 1.613 . S
S390 N392 1.610 . S
N391 S390 1.613 . S
N391 C394 1.350 . S
N392 S390 1.610 . S
N392 C393 1.351 . S
C393 C387 1.428 . S
C393 N392 1.351 . S
C393 C394 1.434 . S
C394 C385 1.429 . S
C394 N391 1.350 . S
C394 C393 1.434 . S
C395 C396 1.369 . S
C395 C397 1.419 . S
C395 H399 0.930 . S
C396 C395 1.369 . S
C396 C405 1.429 . S
C397 C395 1.419 . S
C397 C398 1.363 . S
C397 H400 0.929 . S
C398 C397 1.363 . S
C398 C404 1.428 . S
H399 C395 0.930 . S
H400 C397 0.929 . S
S401 N402 1.613 . S
S401 N403 1.610 1_455 S
N402 S401 1.613 . S
N402 C405 1.350 . S
N403 S401 1.610 1_655 S
N403 C404 1.351 1_655 S
C404 C398 1.428 . S
C404 N403 1.351 1_455 S
C404 C405 1.434 . S
C405 C396 1.429 . S
C405 N402 1.350 . S
C405 C404 1.434 . S
C406 C407 1.369 . S
C406 C408 1.419 . S
C406 H410 0.930 . S
C407 C406 1.369 . S
C407 C416 1.429 . S
C408 C406 1.419 . S
C408 C409 1.363 . S
C408 H411 0.929 1_655 S
C409 C408 1.363 . S
C409 C415 1.428 . S
H410 C406 0.930 . S
H411 C408 0.929 1_455 S
S412 N413 1.613 . S
S412 N414 1.610 . S
N413 S412 1.613 . S
N413 C416 1.350 . S
N414 S412 1.610 . S
N414 C415 1.351 . S
C415 C409 1.428 . S
C415 N414 1.351 . S
C415 C416 1.434 . S
C416 C407 1.429 . S
C416 N413 1.350 . S
C416 C415 1.434 . S
C417 C418 1.369 . S
C417 C419 1.419 . S
C417 H421 0.930 . S
C418 C417 1.369 . S
C418 C427 1.429 . S
C419 C417 1.419 . S
C419 C420 1.363 . S
C419 H422 0.929 . S
C420 C419 1.363 . S
C420 C426 1.428 . S
H421 C417 0.930 . S
H422 C419 0.929 . S
S423 N424 1.613 . S
S423 N425 1.610 1_565 S
N424 S423 1.613 . S
N424 C427 1.350 . S
N425 S423 1.610 1_545 S
N425 C426 1.351 1_545 S
C426 C420 1.428 . S
C426 N425 1.351 1_565 S
C426 C427 1.434 . S
C427 C418 1.429 . S
C427 N424 1.350 . S
C427 C426 1.434 . S
C428 C429 1.369 . S
C428 C430 1.419 . S
C428 H432 0.930 . S
C429 C428 1.369 . S
C429 C438 1.429 . S
C430 C428 1.419 . S
C430 C431 1.363 . S
C430 H433 0.929 . S
C431 C430 1.363 . S
C431 C437 1.428 . S
H432 C428 0.930 . S
H433 C430 0.929 . S
S434 N435 1.613 . S
S434 N436 1.610 . S
N435 S434 1.613 . S
N435 C438 1.350 . S
N436 S434 1.610 . S
N436 C437 1.351 . S
C437 C431 1.428 . S
C437 N436 1.351 . S
C437 C438 1.434 . S
C438 C429 1.429 . S
C438 N435 1.350 . S
C438 C437 1.434 . S
C439 C440 1.369 . S
C439 C441 1.419 . S
C439 H443 0.930 . S
C440 C439 1.369 . S
C440 C449 1.429 . S
C441 C439 1.419 . S
C441 C442 1.363 . S
C441 H444 0.929 . S
C442 C441 1.363 . S
C442 C448 1.428 . S
H443 C439 0.930 . S
H444 C441 0.929 . S
S445 N446 1.613 . S
S445 N447 1.610 . S
N446 S445 1.613 . S
N446 C449 1.350 . S
N447 S445 1.610 . S
N447 C448 1.351 . S
C448 C442 1.428 . S
C448 N447 1.351 . S
C448 C449 1.434 . S
C449 C440 1.429 . S
C449 N446 1.350 . S
C449 C448 1.434 . S
C450 C451 1.369 . S
C450 C452 1.419 . S
C450 H454 0.930 . S
C451 C450 1.369 . S
C451 C460 1.429 . S
C452 C450 1.419 . S
C452 C453 1.363 . S
C452 H455 0.929 . S
C453 C452 1.363 . S
C453 C459 1.428 . S
H454 C450 0.930 . S
H455 C452 0.929 . S
S456 N457 1.613 1_655 S
S456 N458 1.610 . S
N457 S456 1.613 1_455 S
N457 C460 1.350 1_455 S
N458 S456 1.610 . S
N458 C459 1.351 . S
C459 C453 1.428 . S
C459 N458 1.351 . S
C459 C460 1.434 . S
C460 C451 1.429 . S
C460 N457 1.350 1_655 S
C460 C459 1.434 . S
C461 C462 1.369 . S
C461 C463 1.419 . S
C461 H465 0.930 . S
C462 C461 1.369 . S
C462 C471 1.429 . S
C463 C461 1.419 . S
C463 C464 1.363 . S
C463 H466 0.929 . S
C464 C463 1.363 . S
C464 C470 1.428 . S
H465 C461 0.930 . S
H466 C463 0.929 . S
S467 N468 1.613 . S
S467 N469 1.610 . S
N468 S467 1.613 . S
N468 C471 1.350 . S
N469 S467 1.610 . S
N469 C470 1.351 . S
C470 C464 1.428 . S
C470 N469 1.351 . S
C470 C471 1.434 . S
C471 C462 1.429 . S
C471 N468 1.350 . S
C471 C470 1.434 . S
C472 C473 1.369 . S
C472 C474 1.419 . S
C472 H476 0.930 . S
C473 C472 1.369 . S
C473 C482 1.429 . S
C474 C472 1.419 . S
C474 C475 1.363 . S
C474 H477 0.929 . S
C475 C474 1.363 . S
C475 C481 1.428 . S
H476 C472 0.930 . S
H477 C474 0.929 . S
S478 N479 1.613 1_565 S
S478 N480 1.610 . S
N479 S478 1.613 1_545 S
N479 C482 1.350 . S
N480 S478 1.610 . S
N480 C481 1.351 1_565 S
C481 C475 1.428 . S
C481 N480 1.351 1_545 S
C481 C482 1.434 . S
C482 C473 1.429 . S
C482 N479 1.350 . S
C482 C481 1.434 . S
C483 C484 1.369 . S
C483 C485 1.419 . S
C483 H487 0.930 . S
C484 C483 1.369 . S
C484 C493 1.429 . S
C485 C483 1.419 . S
C485 C486 1.363 . S
C485 H488 0.929 . S
C486 C485 1.363 . S
C486 C492 1.428 . S
H487 C483 0.930 . S
H488 C485 0.929 . S
S489 N490 1.613 . S
S489 N491 1.610 . S
N490 S489 1.613 . S
N490 C493 1.350 . S
N491 S489 1.610 . S
N491 C492 1.351 . S
C492 C486 1.428 . S
C492 N491 1.351 . S
C492 C493 1.434 . S
C493 C484 1.429 . S
C493 N490 1.350 . S
C493 C492 1.434 . S
C494 C495 1.369 . S
C494 C496 1.419 . S
C494 H498 0.930 . S
C495 C494 1.369 . S
C495 C504 1.429 . S
C496 C494 1.419 . S
C496 C497 1.363 . S
C496 H499 0.929 . S
C497 C496 1.363 . S
C497 C503 1.428 . S
H498 C494 0.930 . S
H499 C496 0.929 . S
S500 N501 1.613 . S
S500 N502 1.610 . S
N501 S500 1.613 . S
N501 C504 1.350 . S
N502 S500 1.610 . S
N502 C503 1.351 . S
C503 C497 1.428 . S
C503 N502 1.351 . S
C503 C504 1.434 . S
C504 C495 1.429 . S
C504 N501 1.350 . S
C504 C503 1.434 . S
C505 C506 1.369 . S
C505 C507 1.419 . S
C505 H509 0.930 . S
C506 C505 1.369 . S
C506 C515 1.429 . S
C507 C505 1.419 . S
C507 C508 1.363 . S
C507 H510 0.929 1_565 S
C508 C507 1.363 . S
C508 C514 1.428 . S
H509 C505 0.930 . S
H510 C507 0.929 1_545 S
S511 N512 1.613 . S
S511 N513 1.610 . S
N512 S511 1.613 . S
N512 C515 1.350 . S
N513 S511 1.610 . S
N513 C514 1.351 . S
C514 C508 1.428 . S
C514 N513 1.351 . S
C514 C515 1.434 . S
C515 C506 1.429 . S
C515 N512 1.350 . S
C515 C514 1.434 . S
C516 C517 1.369 . S
C516 C518 1.419 . S
C516 H520 0.930 . S
C517 C516 1.369 . S
C517 C526 1.429 . S
C518 C516 1.419 . S
C518 C519 1.363 . S
C518 H521 0.929 . S
C519 C518 1.363 . S
C519 C525 1.428 . S
H520 C516 0.930 . S
H521 C518 0.929 . S
S522 N523 1.613 . S
S522 N524 1.610 . S
N523 S522 1.613 . S
N523 C526 1.350 . S
N524 S522 1.610 . S
N524 C525 1.351 . S
C525 C519 1.428 . S
C525 N524 1.351 . S
C525 C526 1.434 . S
C526 C517 1.429 . S
C526 N523 1.350 . S
C526 C525 1.434 . S
C527 C528 1.369 . S
C527 C529 1.419 . S
C527 H531 0.930 . S
C528 C527 1.369 . S
C528 C537 1.429 . S
C529 C527 1.419 . S
C529 C530 1.363 . S
C529 H532 0.929 . S
C530 C529 1.363 . S
C530 C536 1.428 . S
H531 C527 0.930 . S
H532 C529 0.929 . S
S533 N534 1.613 . S
S533 N535 1.610 . S
N534 S533 1.613 . S
N534 C537 1.350 . S
N535 S533 1.610 . S
N535 C536 1.351 . S
C536 C530 1.428 . S
C536 N535 1.351 . S
C536 C537 1.434 . S
C537 C528 1.429 . S
C537 N534 1.350 . S
C537 C536 1.434 . S
C538 C539 1.369 . S
C538 C540 1.419 . S
C538 H542 0.930 . S
C539 C538 1.369 . S
C539 C548 1.429 . S
C540 C538 1.419 . S
C540 C541 1.363 . S
C540 H543 0.929 . S
C541 C540 1.363 . S
C541 C547 1.428 . S
H542 C538 0.930 . S
H543 C540 0.929 . S
S544 N545 1.613 . S
S544 N546 1.610 . S
N545 S544 1.613 . S
N545 C548 1.350 . S
N546 S544 1.610 . S
N546 C547 1.351 . S
C547 C541 1.428 . S
C547 N546 1.351 . S
C547 C548 1.434 . S
C548 C539 1.429 . S
C548 N545 1.350 . S
C548 C547 1.434 . S
C549 C550 1.369 . S
C549 C551 1.419 . S
C549 H553 0.930 . S
C550 C549 1.369 . S
C550 C559 1.429 . S
C551 C549 1.419 . S
C551 C552 1.363 . S
C551 H554 0.929 . S
C552 C551 1.363 . S
C552 C558 1.428 . S
H553 C549 0.930 . S
H554 C551 0.929 . S
S555 N556 1.613 . S
S555 N557 1.610 . S
N556 S555 1.613 . S
N556 C559 1.350 . S
N557 S555 1.610 . S
N557 C558 1.351 . S
C558 C552 1.428 . S
C558 N557 1.351 . S
C558 C559 1.434 . S
C559 C550 1.429 . S
C559 N556 1.350 . S
C559 C558 1.434 . S
C560 C561 1.369 . S
C560 C562 1.419 . S
C560 H564 0.930 . S
C561 C560 1.369 . S
C561 C570 1.429 . S
C562 C560 1.419 . S
C562 C563 1.363 . S
C562 H565 0.929 . S
C563 C562 1.363 . S
C563 C569 1.428 . S
H564 C560 0.930 . S
H565 C562 0.929 . S
S566 N567 1.613 . S
S566 N568 1.610 . S
N567 S566 1.613 . S
N567 C570 1.350 . S
N568 S566 1.610 . S
N568 C569 1.351 . S
C569 C563 1.428 . S
C569 N568 1.351 . S
C569 C570 1.434 . S
C570 C561 1.429 . S
C570 N567 1.350 . S
C570 C569 1.434 . S
C571 C572 1.369 . S
C571 C573 1.419 . S
C571 H575 0.930 . S
C572 C571 1.369 . S
C572 C581 1.429 . S
C573 C571 1.419 . S
C573 C574 1.363 . S
C573 H576 0.929 . S
C574 C573 1.363 . S
C574 C580 1.428 . S
H575 C571 0.930 . S
H576 C573 0.929 . S
S577 N578 1.613 . S
S577 N579 1.610 . S
N578 S577 1.613 . S
N578 C581 1.350 . S
N579 S577 1.610 . S
N579 C580 1.351 . S
C580 C574 1.428 . S
C580 N579 1.351 . S
C580 C581 1.434 . S
C581 C572 1.429 . S
C581 N578 1.350 . S
C581 C580 1.434 . S
C582 C583 1.369 . S
C582 C584 1.419 . S
C582 H586 0.930 . S
C583 C582 1.369 . S
C583 C592 1.429 . S
C584 C582 1.419 . S
C584 C585 1.363 . S
C584 H587 0.929 . S
C585 C584 1.363 . S
C585 C591 1.428 . S
H586 C582 0.930 . S
H587 C584 0.929 . S
S588 N589 1.613 . S
S588 N590 1.610 1_545 S
N589 S588 1.613 . S
N589 C592 1.350 1_545 S
N590 S588 1.610 1_565 S
N590 C591 1.351 . S
C591 C585 1.428 . S
C591 N590 1.351 . S
C591 C592 1.434 . S
C592 C583 1.429 . S
C592 N589 1.350 1_565 S
C592 C591 1.434 . S
C593 C594 1.369 . S
C593 C595 1.419 . S
C593 H597 0.930 . S
C594 C593 1.369 . S
C594 C603 1.429 . S
C595 C593 1.419 . S
C595 C596 1.363 . S
C595 H598 0.929 . S
C596 C595 1.363 . S
C596 C602 1.428 . S
H597 C593 0.930 . S
H598 C595 0.929 . S
S599 N600 1.613 . S
S599 N601 1.610 . S
N600 S599 1.613 . S
N600 C603 1.350 . S
N601 S599 1.610 . S
N601 C602 1.351 . S
C602 C596 1.428 . S
C602 N601 1.351 . S
C602 C603 1.434 . S
C603 C594 1.429 . S
C603 N600 1.350 . S
C603 C602 1.434 . S
C604 C605 1.369 . S
C604 C606 1.419 . S
C604 H608 0.930 . S
C605 C604 1.369 . S
C605 C614 1.429 . S
C606 C604 1.419 . S
C606 C607 1.363 . S
C606 H609 0.929 . S
C607 C606 1.363 . S
C607 C613 1.428 . S
H608 C604 0.930 . S
H609 C606 0.929 . S
S610 N611 1.613 1_655 S
S610 N612 1.610 1_655 S
N611 S610 1.613 1_455 S
N611 C614 1.350 . S
N612 S610 1.610 1_455 S
N612 C613 1.351 . S
C613 C607 1.428 . S
C613 N612 1.351 . S
C613 C614 1.434 . S
C614 C605 1.429 . S
C614 N611 1.350 . S
C614 C613 1.434 . S
C615 C616 1.369 . S
C615 C617 1.419 . S
C615 H619 0.930 . S
C616 C615 1.369 . S
C616 C625 1.429 . S
C617 C615 1.419 . S
C617 C618 1.363 . S
C617 H620 0.929 . S
C618 C617 1.363 . S
C618 C624 1.428 . S
H619 C615 0.930 . S
H620 C617 0.929 . S
S621 N622 1.613 . S
S621 N623 1.610 . S
N622 S621 1.613 . S
N622 C625 1.350 . S
N623 S621 1.610 . S
N623 C624 1.351 . S
C624 C618 1.428 . S
C624 N623 1.351 . S
C624 C625 1.434 . S
C625 C616 1.429 . S
C625 N622 1.350 . S
C625 C624 1.434 . S
C626 C627 1.369 . S
C626 C628 1.419 . S
C626 H630 0.930 . S
C627 C626 1.369 . S
C627 C636 1.429 . S
C628 C626 1.419 . S
C628 C629 1.363 . S
C628 H631 0.929 . S
C629 C628 1.363 . S
C629 C635 1.428 . S
H630 C626 0.930 . S
H631 C628 0.929 . S
S632 N633 1.613 . S
S632 N634 1.610 . S
N633 S632 1.613 . S
N633 C636 1.350 . S
N634 S632 1.610 . S
N634 C635 1.351 . S
C635 C629 1.428 . S
C635 N634 1.351 . S
C635 C636 1.434 . S
C636 C627 1.429 . S
C636 N633 1.350 . S
C636 C635 1.434 . S
C637 C638 1.369 . S
C637 C639 1.419 . S
C637 H641 0.930 . S
C638 C637 1.369 . S
C638 C647 1.429 . S
C639 C637 1.419 . S
C639 C640 1.363 . S
C639 H642 0.929 . S
C640 C639 1.363 . S
C640 C646 1.428 . S
H641 C637 0.930 . S
H642 C639 0.929 . S
S643 N644 1.613 . S
S643 N645 1.610 . S
N644 S643 1.613 . S
N644 C647 1.350 . S
N645 S643 1.610 . S
N645 C646 1.351 . S
C646 C640 1.428 . S
C646 N645 1.351 . S
C646 C647 1.434 . S
C647 C638 1.429 . S
C647 N644 1.350 . S
C647 C646 1.434 . S
C648 C649 1.369 . S
C648 C650 1.419 . S
C648 H652 0.930 . S
C649 C648 1.369 . S
C649 C658 1.429 . S
C650 C648 1.419 . S
C650 C651 1.363 . S
C650 H653 0.929 . S
C651 C650 1.363 . S
C651 C657 1.428 . S
H652 C648 0.930 . S
H653 C650 0.929 . S
S654 N655 1.613 . S
S654 N656 1.610 . S
N655 S654 1.613 . S
N655 C658 1.350 . S
N656 S654 1.610 . S
N656 C657 1.351 . S
C657 C651 1.428 . S
C657 N656 1.351 . S
C657 C658 1.434 . S
C658 C649 1.429 . S
C658 N655 1.350 . S
C658 C657 1.434 . S
C659 C660 1.369 . S
C659 C661 1.419 . S
C659 H663 0.930 . S
C660 C659 1.369 . S
C660 C669 1.429 . S
C661 C659 1.419 . S
C661 C662 1.363 . S
C661 H664 0.929 . S
C662 C661 1.363 . S
C662 C668 1.428 . S
H663 C659 0.930 . S
H664 C661 0.929 . S
S665 N666 1.613 . S
S665 N667 1.610 . S
N666 S665 1.613 . S
N666 C669 1.350 . S
N667 S665 1.610 . S
N667 C668 1.351 . S
C668 C662 1.428 . S
C668 N667 1.351 . S
C668 C669 1.434 . S
C669 C660 1.429 . S
C669 N666 1.350 . S
C669 C668 1.434 . S
C670 C671 1.369 . S
C670 C672 1.419 . S
C670 H674 0.930 . S
C671 C670 1.369 . S
C671 C680 1.429 . S
C672 C670 1.419 . S
C672 C673 1.363 . S
C672 H675 0.929 . S
C673 C672 1.363 . S
C673 C679 1.428 . S
H674 C670 0.930 . S
H675 C672 0.929 . S
S676 N677 1.613 1_545 S
S676 N678 1.610 1_545 S
N677 S676 1.613 1_565 S
N677 C680 1.350 . S
N678 S676 1.610 1_565 S
N678 C679 1.351 . S
C679 C673 1.428 . S
C679 N678 1.351 . S
C679 C680 1.434 . S
C680 C671 1.429 . S
C680 N677 1.350 . S
C680 C679 1.434 . S
C681 C682 1.369 . S
C681 C683 1.419 . S
C681 H685 0.930 . S
C682 C681 1.369 . S
C682 C691 1.429 . S
C683 C681 1.419 . S
C683 C684 1.363 . S
C683 H686 0.929 . S
C684 C683 1.363 . S
C684 C690 1.428 . S
H685 C681 0.930 . S
H686 C683 0.929 . S
S687 N688 1.613 . S
S687 N689 1.610 . S
N688 S687 1.613 . S
N688 C691 1.350 . S
N689 S687 1.610 . S
N689 C690 1.351 . S
C690 C684 1.428 . S
C690 N689 1.351 . S
C690 C691 1.434 . S
C691 C682 1.429 . S
C691 N688 1.350 . S
C691 C690 1.434 . S
C692 C693 1.369 . S
C692 C694 1.419 . S
C692 H696 0.930 . S
C693 C692 1.369 . S
C693 C702 1.429 . S
C694 C692 1.419 . S
C694 C695 1.363 . S
C694 H697 0.929 . S
C695 C694 1.363 . S
C695 C701 1.428 . S
H696 C692 0.930 . S
H697 C694 0.929 . S
S698 N699 1.613 . S
S698 N700 1.610 . S
N699 S698 1.613 . S
N699 C702 1.350 . S
N700 S698 1.610 . S
N700 C701 1.351 . S
C701 C695 1.428 . S
C701 N700 1.351 . S
C701 C702 1.434 . S
C702 C693 1.429 . S
C702 N699 1.350 . S
C702 C701 1.434 . S
C703 C704 1.369 . S
C703 C705 1.419 . S
C703 H707 0.930 . S
C704 C703 1.369 . S
C704 C713 1.429 . S
C705 C703 1.419 . S
C705 C706 1.363 . S
C705 H708 0.929 . S
C706 C705 1.363 . S
C706 C712 1.428 . S
H707 C703 0.930 . S
H708 C705 0.929 . S
S709 N710 1.613 . S
S709 N711 1.610 . S
N710 S709 1.613 . S
N710 C713 1.350 . S
N711 S709 1.610 . S
N711 C712 1.351 . S
C712 C706 1.428 . S
C712 N711 1.351 . S
C712 C713 1.434 . S
C713 C704 1.429 . S
C713 N710 1.350 . S
C713 C712 1.434 . S
C714 C715 1.369 . S
C714 C716 1.419 1_556 S
C714 H718 0.930 . S
C715 C714 1.369 . S
C715 C724 1.429 . S
C716 C714 1.419 1_554 S
C716 C717 1.363 . S
C716 H719 0.929 . S
C717 C716 1.363 . S
C717 C723 1.428 . S
H718 C714 0.930 . S
H719 C716 0.929 . S
S720 N721 1.613 . S
S720 N722 1.606 1_556 S
N721 S720 1.613 . S
N721 C724 1.350 . S
N722 S720 1.606 1_554 S
N722 C723 1.351 . S
C723 C717 1.428 . S
C723 N722 1.351 . S
C723 C724 1.434 1_554 S
C724 C715 1.429 . S
C724 N721 1.350 . S
C724 C723 1.434 1_556 S
C725 C726 1.369 . S
C725 C727 1.419 . S
C725 H729 0.930 . S
C726 C725 1.369 . S
C726 C735 1.429 1_455 S
C727 C725 1.419 . S
C727 C728 1.363 1_455 S
C727 H730 0.929 . S
C728 C727 1.363 1_655 S
C728 C734 1.428 . S
H729 C725 0.930 . S
H730 C727 0.929 . S
S731 N732 1.613 . S
S731 N733 1.610 . S
N732 S731 1.613 . S
N732 C735 1.350 . S
N733 S731 1.610 . S
N733 C734 1.351 . S
C734 C728 1.428 . S
C734 N733 1.351 . S
C734 C735 1.434 . S
C735 C726 1.429 1_655 S
C735 N732 1.350 . S
C735 C734 1.434 . S
C736 C737 1.369 1_545 S
C736 C738 1.419 1_554 S
C736 H740 0.930 . S
C737 C736 1.369 1_565 S
C737 C746 1.429 . S
C738 C736 1.419 1_556 S
C738 C739 1.363 . S
C738 H741 0.929 . S
C739 C738 1.363 . S
C739 C745 1.428 1_545 S
H740 C736 0.930 . S
H741 C738 0.929 . S
S742 N743 1.613 1_556 S
S742 N744 1.610 . S
N743 S742 1.613 1_554 S
N743 C746 1.350 . S
N744 S742 1.610 . S
N744 C745 1.351 . S
C745 C739 1.428 1_565 S
C745 N744 1.351 . S
C745 C746 1.434 1_556 S
C746 C737 1.429 . S
C746 N743 1.350 . S
C746 C745 1.434 1_554 S
C747 C748 1.369 . S
C747 C749 1.419 . S
C747 H751 0.930 . S
C748 C747 1.369 . S
C748 C757 1.429 . S
C749 C747 1.419 . S
C749 C750 1.363 . S
C749 H752 0.929 . S
C750 C749 1.363 . S
C750 C756 1.428 . S
H751 C747 0.930 . S
H752 C749 0.929 . S
S753 N754 1.613 . S
S753 N755 1.610 . S
N754 S753 1.613 . S
N754 C757 1.350 . S
N755 S753 1.610 . S
N755 C756 1.351 . S
C756 C750 1.428 . S
C756 N755 1.351 . S
C756 C757 1.434 . S
C757 C748 1.429 . S
C757 N754 1.350 . S
C757 C756 1.434 . S
C758 C759 1.369 1_455 S
C758 C760 1.419 1_556 S
C758 H762 0.930 . S
C759 C758 1.369 1_655 S
C759 C768 1.429 . S
C760 C758 1.419 1_554 S
C760 C761 1.363 . S
C760 H763 0.929 . S
C761 C760 1.363 . S
C761 C767 1.428 1_455 S
H762 C758 0.930 . S
H763 C760 0.929 . S
S764 N765 1.599 1_554 S
S764 N766 1.610 . S
N765 S764 1.599 1_556 S
N765 C768 1.351 . S
N766 S764 1.610 . S
N766 C767 1.351 . S
C767 C761 1.428 1_655 S
C767 N766 1.351 . S
C767 C768 1.434 1_554 S
C768 C759 1.429 . S
C768 N765 1.351 . S
C768 C767 1.434 1_556 S
C769 C770 1.369 . S
C769 C771 1.419 1_565 S
C769 H773 0.930 . S
C770 C769 1.369 . S
C770 C779 1.429 . S
C771 C769 1.419 1_545 S
C771 C772 1.363 . S
C771 H774 0.929 . S
C772 C771 1.363 . S
C772 C778 1.428 . S
H773 C769 0.930 . S
H774 C771 0.929 . S
S775 N776 1.613 1_545 S
S775 N777 1.610 . S
N776 S775 1.613 1_565 S
N776 C779 1.350 . S
N777 S775 1.610 . S
N777 C778 1.351 . S
C778 C772 1.428 . S
C778 N777 1.351 . S
C778 C779 1.434 1_545 S
C779 C770 1.429 . S
C779 N776 1.350 . S
C779 C778 1.434 1_565 S
C385 C132 1.199 1_545 S
C387 C6 1.196 . S
C396 C189 1.201 . S
C398 C34 1.192 1_455 S
C407 C70 1.194 1_545 S
C409 C29 1.201 1_655 S
C418 C98 1.193 . S
C420 C36 1.200 1_565 S
C429 C130 1.196 1_655 S
C431 C93 1.199 . S
C440 C100 1.199 1_455 S
C442 C166 1.196 1_565 S
C451 C285 1.201 1_655 S
C453 C194 1.193 . S
C462 C230 1.193 1_455 S
C464 C292 1.201 1_565 S
C473 C349 1.201 . S
C475 C262 1.192 1_545 S
C484 C290 1.192 . S
C486 C381 1.201 1_455 S
C495 C326 1.192 1_655 S
C497 C196 1.201 1_545 S
C506 C253 1.199 . S
C508 C358 1.196 1_565 S
C517 C134 1.276 . S
C519 C4 1.281 . S
C528 C61 1.283 . S
C530 C162 1.272 . S
C539 C68 1.284 . S
C541 C2 1.272 . S
C550 C125 1.280 . S
C552 C38 1.276 . S
C561 C66 1.271 . S
C563 C157 1.283 . S
C572 C102 1.276 . S
C574 C164 1.280 . S
C583 C258 1.277 . S
C585 C221 1.281 . S
C594 C228 1.283 . S
C596 C294 1.273 . S
C605 C260 1.283 . S
C607 C322 1.273 . S
C616 C354 1.274 . S
C618 C317 1.283 . S
C627 C324 1.281 . S
C629 C198 1.274 . S
C638 C226 1.273 . S
C640 C356 1.282 . S
C649 N338 1.523 . S
C651 N18 1.524 . S
C660 N45 1.532 . S
C662 N370 1.531 . S
C671 N82 1.525 . S
C673 N205 1.525 . S
C682 N109 1.528 . S
C684 N242 1.528 . S
C693 N141 1.527 . S
C695 N274 1.526 . S
C704 N301 1.523 . S
C706 N178 1.524 . S
C715 N306 1.659 . S
C717 N13 1.660 . S
C726 N333 1.655 . S
C728 N50 1.657 . S
C737 N77 1.657 . S
C739 N365 1.656 . S
C748 N114 1.657 . S
C750 N210 1.656 . S
C759 N237 1.658 . S
C761 N146 1.656 . S
C770 N269 1.655 . S
C772 N173 1.656 . S
