# Generated by pormake.
# Topology sxc, (6)-cn, num edge types: 1
# Building blocks:
#     Node 0, Type 0, BuildingBlock: KUMJIN_clean_sbu_1, # of connection points: 6
#     Node 1, Type 0, BuildingBlock: KUMJIN_clean_sbu_1, # of connection points: 6
#     Node 2, Type 0, BuildingBlock: KUMJIN_clean_sbu_1, # of connection points: 6
#     Edge 3, Type (0, 0), BuildingBlock: UVAHIK_clean_linker_0, # of connection points: 2
#     Edge 4, Type (0, 0), BuildingBlock: UVAHIK_clean_linker_0, # of connection points: 2
#     Edge 5, Type (0, 0), BuildingBlock: UVAHIK_clean_linker_0, # of connection points: 2
#     Edge 6, Type (0, 0), BuildingBlock: UVAHIK_clean_linker_0, # of connection points: 2
#     Edge 7, Type (0, 0), BuildingBlock: UVAHIK_clean_linker_0, # of connection points: 2
#     Edge 8, Type (0, 0), BuildingBlock: UVAHIK_clean_linker_0, # of connection points: 2
#     Edge 9, Type (0, 0), BuildingBlock: UVAHIK_clean_linker_0, # of connection points: 2
#     Edge 10, Type (0, 0), BuildingBlock: UVAHIK_clean_linker_0, # of connection points: 2
#     Edge 11, Type (0, 0), BuildingBlock: UVAHIK_clean_linker_0, # of connection points: 2
# Relax obj value: 0.179
# Max RMSD: 0.148
# Mean RMSD: 0.106
data_MOF--net-sxc--node1-KUMJIN_clean_sbu_1--edge1-UVAHIK_clean_linker_0
_symmetry_space_group_name_H-M    P1
_symmetry_Int_Tables_number       1
_symmetry_cell_setting            triclinic
loop_
_symmetry_equiv_pos_as_xyz
'x, y, z'
_cell_length_a     19.748859
_cell_length_b     20.543669
_cell_length_c     57.690449
_cell_angle_alpha  109.16048
_cell_angle_beta   100.72293
_cell_angle_gamma 98.895463
loop_
_atom_site_label
_atom_site_type_symbol
_atom_site_fract_x
_atom_site_fract_y
_atom_site_fract_z
_atom_type_partial_charge
Eu0 Eu 0.97028 0.17333 -0.0007 0.0
C1 C 0.27061 0.1297 0.03548 0.0
N2 N 0.21997 0.15832 0.04546 0.0
C3 C 0.23321 0.10192 0.07582 0.0
C4 C 0.3028 1.08358 0.04485 0.0
C5 C 0.20275 0.14734 0.06592 0.0
C6 C 0.28303 1.06944 0.06512 0.0
C7 C 0.34092 0.11584 0.00459 0.0
C8 C 0.28944 0.1458 0.01556 0.0
C9 C 0.37224 1.06899 0.01362 0.0
C10 C 0.35332 1.05299 0.0337 0.0
Eu11 Eu 0.17439 0.23664 0.02828 0.0
N12 N 0.25862 0.19167 0.00726 0.0
C13 C 0.36009 0.13451 0.98504 0.0
C14 C 0.27912 0.21212 0.98887 0.0
C15 C 0.32941 0.18323 0.97729 0.0
H16 H 0.16507 0.17314 0.0744 0.0
H17 H 0.34507 0.19916 0.96258 0.0
H18 H 0.98423 0.23766 0.95355 0.0
H19 H 0.79338 0.20944 0.06272 0.0
H20 H 0.25789 0.25175 0.98336 0.0
H21 H 0.39938 0.11259 0.97612 0.0
H22 H 0.88234 0.15721 0.04289 0.0
H23 H 0.21846 0.09218 0.09175 0.0
H24 H 0.41169 1.04532 0.00534 0.0
H25 H 0.37831 1.0171 0.04055 0.0
H26 H 0.93311 0.3192 0.93594 0.0
H27 H 0.30641 1.03414 0.07281 0.0
H28 H 0.74085 0.29639 0.04881 0.0
N29 N 0.92684 0.252 0.98178 0.0
C30 C 0.87532 0.28045 0.99119 0.0
C31 C 0.91679 0.30913 0.95159 0.0
C32 C 0.84432 0.32686 0.98163 0.0
C33 C 0.94602 0.26339 0.96166 0.0
C34 C 0.86615 0.34146 0.96174 0.0
N35 N 0.88421 0.21785 0.01927 0.0
C36 C 0.86188 0.19706 0.0373 0.0
C37 C 0.80207 0.29372 0.02115 0.0
C38 C 0.85445 0.26392 0.01075 0.0
C39 C 0.7809 0.27463 0.04034 0.0
C40 C 0.81058 0.22571 0.0483 0.0
H41 H 0.84373 0.37701 0.95393 0.0
H42 H 0.76879 0.39339 0.98522 0.0
H43 H 0.73179 0.36439 0.01977 0.0
O44 O 0.86652 0.10015 0.98678 0.0
O45 O 1.01567 0.29689 0.01355 0.0
O46 O 0.1331 0.31645 0.01251 0.0
O47 O 0.93001 0.10025 0.96001 0.0
O48 O 1.00349 0.17248 0.03882 0.0
O49 O 0.09672 0.26664 0.0522 0.0
O50 O 0.27811 0.30981 0.04028 0.0
O51 O 0.12891 0.11329 0.01471 0.0
O52 O 1.01095 0.09352 0.01524 0.0
O53 O 0.21597 0.3101 0.06745 0.0
O54 O 0.13924 0.23797 0.98895 0.0
O55 O 1.04851 0.1419 0.97578 0.0
C56 C 0.07438 0.33945 0.01383 0.0
C57 C 0.86659 0.98878 0.95709 0.0
C58 C 0.81341 0.87832 0.96084 0.0
C59 C 0.8566 0.84348 0.94666 0.0
C60 C 0.90862 0.95263 0.94259 0.0
C61 C 0.90353 0.88048 0.93746 0.0
C62 C 0.81847 0.95086 0.96582 0.0
C63 C 1.05147 0.22315 0.05732 0.0
C64 C 0.87549 1.06635 0.96451 0.0
C65 C 0.79289 0.35728 0.99221 0.0
C66 C 0.7719 0.34084 0.01193 0.0
C67 C 0.06999 1.07082 0.01434 0.0
C68 C 0.2785 0.42138 0.06989 0.0
C69 C 0.33374 0.53201 0.06673 0.0
C70 C 0.28849 0.56647 0.07992 0.0
C71 C 0.2341 0.45709 0.08327 0.0
C72 C 0.32873 0.45957 0.06198 0.0
C73 C 0.23929 0.52917 0.08824 0.0
C74 C 0.09337 0.1853 0.97054 0.0
C75 C 0.26989 0.3439 0.06263 0.0
H76 H 0.85351 0.78754 0.94246 0.0
H77 H 0.94615 0.98011 0.93549 0.0
H78 H 0.93644 0.85324 0.92646 0.0
H79 H 0.78638 0.97838 0.97722 0.0
H80 H 0.2915 0.62234 0.08395 0.0
H81 H 0.19459 0.42937 0.08959 0.0
H82 H 0.36239 0.43222 0.05134 0.0
H83 H 0.20464 0.55608 0.0984 0.0
Eu84 Eu 0.07395 0.12118 0.33236 0.0
C85 C 0.27114 0.41974 0.39101 0.0
N86 N 0.23216 0.36563 0.39503 0.0
C87 C 0.33127 0.3679 0.42655 0.0
C88 C 0.34312 0.44827 0.4041 0.0
C89 C 0.26007 0.34124 0.41312 0.0
C90 C 0.37317 0.42116 0.42186 0.0
C91 C 0.27847 0.50144 0.36871 0.0
C92 C 0.23907 0.44605 0.37349 0.0
C93 C 0.35046 0.52932 0.38149 0.0
C94 C 0.38267 0.50284 0.39912 0.0
Eu95 Eu 0.11304 0.32493 0.37134 0.0
N96 N 0.16932 0.41818 0.36137 0.0
C97 C 0.24422 0.52741 0.35129 0.0
C98 C 0.13526 0.44404 0.34472 0.0
C99 C 0.17226 0.49874 0.33933 0.0
H100 H 0.22772 0.30072 0.41696 0.0
H101 H 0.14522 0.51888 0.32602 0.0
H102 H 0.97014 0.15161 0.28534 0.0
H103 H 1.01472 0.93219 0.37806 0.0
H104 H 0.07927 0.42312 0.33582 0.0
H105 H 0.27267 0.56993 0.3471 0.0
H106 H 0.09101 1.02312 0.36899 0.0
H107 H 0.35374 0.34749 0.44055 0.0
H108 H 0.38162 0.57171 0.37798 0.0
H109 H 0.43814 0.52519 0.40891 0.0
H110 H 0.8453 0.11308 0.26073 0.0
H111 H 0.42835 0.44159 0.43226 0.0
H112 H 0.88769 0.8891 0.35544 0.0
N113 N 0.95632 0.08814 0.3074 0.0
C114 C 0.91197 1.03663 0.31103 0.0
C115 C 0.86325 0.09164 0.27496 0.0
C116 C 0.84027 1.01265 0.29725 0.0
C117 C 0.93388 0.11393 0.28909 0.0
C118 C 0.81607 1.04129 0.27921 0.0
N119 N 1.00734 1.03313 0.34223 0.0
C120 C 1.03529 1.00587 0.35946 0.0
C121 C 0.89271 0.9568 0.33356 0.0
C122 C 0.93798 1.00908 0.3291 0.0
C123 C 0.92075 0.92945 0.35154 0.0
C124 C 0.99241 0.9538 0.36442 0.0
H125 H 0.76133 1.02431 0.26826 0.0
H126 H 0.73972 0.94235 0.29155 0.0
H127 H 0.78558 0.89339 0.32323 0.0
O128 O 0.08565 1.01334 0.3163 0.0
O129 O 0.98372 0.16714 0.34677 0.0
O130 O 1.00161 0.27939 0.34626 0.0
O131 O 0.1105 0.08634 0.29765 0.0
O132 O 0.12861 0.14862 0.37374 0.0
O133 O 0.08329 0.24518 0.38941 0.0
O134 O 0.09259 0.42881 0.38873 0.0
O135 O 0.20574 0.28139 0.35829 0.0
O136 O 0.18699 0.16624 0.35637 0.0
O137 O 0.0787 0.35159 0.40649 0.0
O138 O 0.06116 0.2954 0.32962 0.0
O139 O 0.10681 0.1988 0.31385 0.0
C140 C 0.96006 0.22374 0.34674 0.0
C141 C 0.17974 1.0007 0.29706 0.0
C142 C 0.24536 0.91298 0.30178 0.0
C143 C 0.30838 0.95801 0.30327 0.0
C144 C 0.24268 1.04523 0.29796 0.0
C145 C 0.30653 1.02317 0.3006 0.0
C146 C 0.18132 0.93372 0.29773 0.0
C147 C 0.11226 0.19447 0.39261 0.0
C148 C 0.11354 1.02447 0.2988 0.0
C149 C 0.79503 0.96116 0.30189 0.0
C150 C 0.82116 0.93331 0.31996 0.0
C151 C 0.22873 0.22369 0.35711 0.0
C152 C 0.99776 0.42654 0.4081 0.0
C153 C 0.91524 0.50034 0.40292 0.0
C154 C 0.86003 0.45008 0.40377 0.0
C155 C 0.94263 0.37696 0.40962 0.0
C156 C 0.98395 0.48907 0.40587 0.0
C157 C 0.87432 0.3894 0.40782 0.0
C158 C 0.08302 0.25304 0.31148 0.0
C159 C 0.06781 0.41216 0.40599 0.0
H160 H 0.35865 0.94368 0.30713 0.0
H161 H 0.24315 0.09764 0.29757 0.0
H162 H 0.35516 1.05813 0.30182 0.0
H163 H 0.13301 0.90004 0.29764 0.0
H164 H 0.80623 0.45696 0.40075 0.0
H165 H 0.95154 0.32782 0.41132 0.0
H166 H 1.02604 0.52683 0.40423 0.0
H167 H 0.83172 0.35036 0.40841 0.0
Eu168 Eu 0.169 0.21877 0.69987 0.0
C169 C 0.22805 0.93491 0.64316 0.0
N170 N 0.18797 0.97175 0.63309 0.0
C171 C 0.24451 0.95296 0.59888 0.0
C172 C 0.28121 0.90895 0.63218 0.0
C173 C 0.193 0.9784 0.61065 0.0
C174 C 0.28976 0.91927 0.60997 0.0
C175 C 0.25223 0.87988 0.67408 0.0
C176 C 0.21345 0.92053 0.66378 0.0
C177 C 0.30814 0.85747 0.66419 0.0
C178 C 0.32249 0.87183 0.64324 0.0
Eu179 Eu 0.10317 1.01458 0.65413 0.0
N180 N 0.15804 0.9417 0.67253 0.0
C181 C 0.23187 0.86053 0.69331 0.0
C182 C 0.13434 0.91759 0.68971 0.0
C183 C 0.17181 0.8783 0.70079 0.0
H184 H 0.1584 1.00516 0.60231 0.0
H185 H 0.15372 0.8609 0.71485 0.0
H186 H 0.20475 0.22204 0.75987 0.0
H187 H 1.01254 0.37111 0.66021 0.0
H188 H 0.08614 0.92786 0.69487 0.0
H189 H 0.26029 0.82937 0.70173 0.0
H190 H 0.09851 0.29549 0.66166 0.0
H191 H 0.24967 0.95984 0.58143 0.0
H192 H 0.33901 0.82692 0.67206 0.0
H193 H 0.36429 0.8523 0.63531 0.0
H194 H 0.15407 0.2552 0.79695 0.0
H195 H 0.3299 0.89995 0.60091 0.0
H196 H 0.95288 0.40677 0.69499 0.0
N197 N 0.12811 0.25289 0.73714 0.0
C198 C 0.07657 0.28974 0.73696 0.0
C199 C 0.13096 0.2642 0.78006 0.0
C200 C 1.04805 0.3127 0.75812 0.0
C201 C 0.15848 0.2439 0.7588 0.0
C202 C 0.07452 0.29752 0.77954 0.0
N203 N 0.0853 0.28734 0.69637 0.0
C204 C 0.07215 0.31069 0.67676 0.0
C205 C 1.00653 0.35185 0.71625 0.0
C206 C 1.05579 0.30895 0.71625 0.0
C207 C 0.99037 0.37369 0.69568 0.0
C208 C 1.02385 0.35356 0.67597 0.0
H209 H 1.0539 0.31404 0.79616 0.0
H210 H 0.97337 0.36999 0.77365 0.0
H211 H 0.93714 0.40438 0.73701 0.0
O212 O 0.24756 0.29157 0.69249 0.0
O213 O 1.04917 0.1767 0.67952 0.0
O214 O 1.02495 1.05975 0.67553 0.0
O215 O 0.23659 0.31308 0.73069 0.0
O216 O 0.17361 0.19589 0.6589 0.0
O217 O 0.0816 0.09837 0.63816 0.0
O218 O 1.03314 0.90841 0.637 0.0
O219 O 0.21472 1.07684 0.65819 0.0
O220 O 0.24669 0.14737 0.69996 0.0
O221 O 1.03161 0.97922 0.61656 0.0
O222 O 0.08953 1.04349 0.69446 0.0
O223 O 0.18681 0.13491 0.71663 0.0
C224 C 1.00405 0.11856 0.67708 0.0
C225 C 0.35151 0.34143 0.7255 0.0
C226 C 0.46971 0.39793 0.72595 0.0
C227 C 0.49891 0.35854 0.73934 0.0
C228 C 0.38123 0.30299 0.7392 0.0
C229 C 0.4547 0.31168 0.74609 0.0
C230 C 0.39588 0.38893 0.71908 0.0
C231 C 0.1289 0.15017 0.63787 0.0
C232 C 0.2745 0.32987 0.71646 0.0
C233 C 0.99629 0.35243 0.75765 0.0
C234 C 0.9758 0.37221 0.73681 0.0
C235 C 0.26428 0.11224 0.67934 0.0
C236 C 0.92154 0.90762 0.61267 0.0
C237 C 0.81068 0.84992 0.61777 0.0
C238 C 0.7742 0.88887 0.60601 0.0
C239 C 0.8839 0.94532 0.60053 0.0
C240 C 0.88424 0.8594 0.62092 0.0
C241 C 0.81074 0.93596 0.5973 0.0
C242 C 0.1366 1.08363 0.71579 0.0
C243 C 0.9996 0.92063 0.61773 0.0
H244 H 0.55571 0.36446 0.74475 0.0
H245 H 0.34771 0.26557 0.74423 0.0
H246 H 0.47736 0.28152 0.75645 0.0
H247 H 0.37266 0.4176 0.70812 0.0
H248 H 0.71747 0.8824 0.60335 0.0
H249 H 0.91099 0.98272 0.5938 0.0
H250 H 0.91281 0.83062 0.63051 0.0
H251 H 0.78233 0.9656 0.58814 0.0
C252 C 0.13276 0.45842 0.01169 0.0
C253 C 0.0738 0.41499 0.01432 0.0
C254 C 0.1325 0.52786 0.01182 0.0
C255 C 1.0091 0.65379 0.00668 0.0
H256 H 0.18533 0.79501 0.02825 0.0
C257 C 1.01151 0.95202 0.01661 0.0
C258 C 0.07052 0.99539 0.01398 0.0
C259 C 1.01175 0.88263 0.01655 0.0
C260 C 0.13512 0.75669 0.02178 0.0
H261 H 0.96907 0.41606 0.02038 0.0
H262 H 0.96784 0.53467 0.02027 0.0
H263 H 0.18621 0.67697 0.0286 0.0
H264 H 0.17531 0.99422 0.008 0.0
H265 H 0.17648 0.87572 0.00819 0.0
H266 H 0.95801 0.73352 -0.00014 0.0
C267 C 1.01452 0.51482 0.0175 0.0
C268 C 0.13563 0.68754 0.02198 0.0
C269 C 1.01503 0.44551 0.01753 0.0
C270 C 0.12931 0.96485 0.01085 0.0
C271 C 0.12979 0.89559 0.01093 0.0
C272 C 1.00858 0.72294 0.00648 0.0
C273 C 0.07319 0.55823 0.01457 0.0
C274 C 0.07263 0.63378 0.01444 0.0
C275 C 0.07106 0.85223 0.01385 0.0
C276 C 0.07159 0.7767 0.01402 0.0
H277 H 0.17975 0.4386 0.00936 0.0
H278 H 0.17913 0.5572 0.00927 0.0
H279 H 0.9589 0.61547 0.00021 0.0
H280 H 0.96451 0.97186 0.0189 0.0
H281 H 0.96511 0.85335 0.01912 0.0
C282 C 0.33421 0.16779 0.35882 0.0
C283 C 0.30457 0.22455 0.357 0.0
C284 C 0.40493 0.16811 0.35797 0.0
C285 C 0.57726 0.28817 0.36517 0.0
H286 H 0.62474 0.11281 0.32927 0.0
C287 C 0.85512 0.28046 0.34506 0.0
C288 C 0.88471 0.22406 0.34734 0.0
C289 C 0.78466 0.28091 0.34616 0.0
C290 C 0.61276 0.16223 0.33962 0.0
H291 H 0.32697 0.32595 0.35258 0.0
H292 H 0.44937 0.32658 0.35117 0.0
H293 H 0.50288 0.11281 0.33176 0.0
H294 H 0.86272 0.12444 0.35305 0.0
H295 H 0.74072 0.12498 0.35477 0.0
H296 H 0.68724 0.33757 0.37295 0.0
C297 C 0.41852 0.28212 0.35365 0.0
C298 C 0.54257 0.16221 0.3411 0.0
C299 C 0.34788 0.2817 0.35443 0.0
C300 C 0.8418 0.16826 0.35077 0.0
C301 C 0.77141 0.16853 0.35174 0.0
C302 C 0.64747 0.28821 0.36366 0.0
C303 C 0.44824 0.22521 0.35529 0.0
C304 C 0.52359 0.22517 0.35391 0.0
C305 C 0.74165 0.2249 0.34952 0.0
C306 C 0.6664 0.22521 0.35088 0.0
H307 H 0.30271 0.12275 0.36078 0.0
H308 H 0.42574 0.12359 0.35959 0.0
H309 H 0.56535 0.3376 0.37555 0.0
H310 H 0.88645 0.32461 0.34253 0.0
H311 H 0.76376 0.32507 0.34418 0.0
C312 C 0.78879 0.73432 0.6239 0.0
C313 C 0.77316 0.80086 0.62758 0.0
C314 C 0.75805 0.69022 0.63489 0.0
C315 C 0.67709 0.69668 0.68772 0.0
H316 H 0.61041 0.49382 0.65125 0.0
C317 C 0.50283 0.51481 0.72173 0.0
C318 C 0.51516 0.44721 0.71836 0.0
C319 C 0.54007 0.55888 0.71216 0.0
C320 C 0.62985 0.55024 0.66179 0.0
H321 H 0.71195 0.87289 0.64512 0.0
H322 H 0.6569 0.79505 0.66396 0.0
H323 H 0.65979 0.56811 0.63022 0.0
H324 H 0.57748 0.3733 0.70314 0.0
H325 H 0.64343 0.45097 0.68648 0.0
H326 H 0.64635 0.67885 0.71919 0.0
C327 C 0.69381 0.77752 0.65288 0.0
C328 C 0.65786 0.59278 0.64973 0.0
C329 C 0.72458 0.82167 0.64185 0.0
C330 C 0.56734 0.42539 0.70608 0.0
C331 C 0.60444 0.46945 0.69636 0.0
C332 C 0.64899 0.65416 0.69976 0.0
C333 C 0.71099 0.71177 0.64978 0.0
C334 C 0.68133 0.66649 0.66253 0.0
C335 C 0.59028 0.53615 0.69896 0.0
C336 C 0.62466 0.58061 0.68685 0.0
H337 H 0.82552 0.71669 0.61274 0.0
H338 H 0.77264 0.64008 0.63229 0.0
H339 H 0.69607 0.75315 0.69822 0.0
H340 H 0.46321 0.53299 0.73132 0.0
H341 H 0.52761 0.60973 0.71427 0.0
C342 C 0.89999 0.17793 0.67711 0.0
C343 C 0.92748 0.11836 0.67659 0.0
C344 C 0.82904 0.17808 0.6777 0.0
C345 C 0.65094 1.05937 0.66133 0.0
H346 H 0.6059 0.22051 0.70849 0.0
C347 C 0.36179 0.09532 0.65659 0.0
C348 C 0.34076 0.1145 0.67947 0.0
C349 C 0.43289 0.09553 0.65641 0.0
C350 C 0.61749 0.17496 0.69525 0.0
H351 H 0.89875 1.01008 0.6748 0.0
H352 H 0.77525 1.00959 0.67499 0.0
H353 H 0.72956 0.22113 0.7074 0.0
H354 H 0.37967 0.14998 0.72026 0.0
H355 H 0.50434 0.15371 0.72007 0.0
H356 H 0.53885 1.01362 0.64894 0.0
C357 C 0.80919 1.05716 0.67557 0.0
C358 C 0.68848 0.17555 0.69447 0.0
C359 C 0.8805 1.05763 0.67555 0.0
C360 C 0.39366 0.1356 0.70227 0.0
C361 C 0.46525 0.13745 0.70215 0.0
C362 C 0.57991 1.05936 0.66178 0.0
C363 C 0.78244 0.11769 0.67698 0.0
C364 C 0.70641 0.11762 0.67757 0.0
C365 C 0.48589 0.11675 0.67917 0.0
C366 C 0.56202 0.117 0.67881 0.0
H367 H 0.93301 0.22436 0.67677 0.0
H368 H 0.81027 0.22526 0.67824 0.0
H369 H 0.66234 1.01397 0.64795 0.0
H370 H 0.32332 1.08086 0.63871 0.0
H371 H 0.44661 1.08025 0.63835 0.0
C372 C 0.69505 0.8507 0.96959 0.0
C373 C 0.76397 0.8399 0.97095 0.0
C374 C 0.64931 0.81722 0.98012 0.0
C375 C 0.61842 0.66717 0.00144 0.0
H376 H 0.50413 0.77592 0.03933 0.0
C377 C 0.45399 0.56002 0.0593 0.0
C378 C 0.38487 0.57067 0.05723 0.0
C379 C 0.50126 0.59387 0.04934 0.0
C380 C 0.53519 0.74469 0.0286 0.0
H381 H 0.83906 0.78542 0.98431 0.0
H382 H 0.75901 0.72678 0.00279 0.0
H383 H 0.58478 0.83199 0.02049 0.0
H384 H 0.31101 0.6251 0.0431 0.0
H385 H 0.39373 0.68448 0.02574 0.0
H386 H 0.56874 0.57984 0.00955 0.0
C387 C 0.74012 0.76054 0.9933 0.0
C388 C 0.58134 0.77675 0.0178 0.0
C389 C 0.78591 0.79403 0.98272 0.0
C390 C 0.36428 0.61668 0.0453 0.0
C391 C 0.4116 0.6506 0.03534 0.0
C392 C 0.57229 0.63511 0.01226 0.0
C393 C 0.6715 0.77224 0.99227 0.0
C394 C 0.62326 0.73827 0.00402 0.0
C395 C 0.48043 0.63913 0.0371 0.0
C396 C 0.53006 0.67349 0.0259 0.0
H397 H 0.67637 0.88495 0.96028 0.0
H398 H 0.59633 0.82624 0.97859 0.0
H399 H 0.64932 0.63588 0.99065 0.0
H400 H 0.47165 0.52563 0.06872 0.0
H401 H 0.55432 0.58492 0.05136 0.0
C402 C 0.94358 0.62647 0.40882 0.0
C403 C 0.90302 0.55775 0.39396 0.0
C404 C 0.9717 0.67021 0.39718 0.0
C405 C 1.03687 0.6325 0.34072 0.0
H406 H 0.10757 0.83602 0.3654 0.0
C407 C 0.19794 0.78714 0.29372 0.0
C408 C 0.24415 0.85209 0.30986 0.0
C409 C 0.16167 0.74396 0.30391 0.0
C410 C 0.08907 0.77897 0.35862 0.0
H411 H 0.84754 0.48629 0.35586 0.0
H412 H 0.89419 0.56375 0.33547 0.0
H413 H 1.01423 0.78635 0.38136 0.0
H414 H 0.29834 0.91705 0.34885 0.0
H415 H 0.23659 0.8406 0.3667 0.0
H416 H 0.11161 0.62533 0.31792 0.0
C417 C 0.90694 0.58282 0.356 0.0
C418 C 1.03501 0.75069 0.36752 0.0
C419 C 0.87891 0.5391 0.36767 0.0
C420 C 0.26312 0.86703 0.33605 0.0
C421 C 0.22661 0.8241 0.34627 0.0
C422 C 0.09065 0.66084 0.33174 0.0
C423 C 0.95856 0.64572 0.3706 0.0
C424 C 1.00859 0.6771 0.35879 0.0
C425 C 0.17173 0.76532 0.33031 0.0
C426 C 0.11786 0.73426 0.34081 0.0
H427 H 0.96282 0.64172 0.42915 0.0
H428 H 1.01067 0.71874 0.40902 0.0
H429 H 1.01913 0.57541 0.33411 0.0
H430 H 0.18223 0.77501 0.27346 0.0
H431 H 0.12011 0.69857 0.29114 0.0
C432 C 1.03443 0.30127 0.2785 0.0
C433 C 0.08166 0.26505 0.28743 0.0
C434 C 1.02988 0.30598 0.25452 0.0
C435 C 0.12863 0.29209 0.20513 0.0
H436 H 0.94389 0.2374 0.15782 0.0
C437 C 0.09524 0.2957 0.10396 0.0
C438 C 1.05013 0.23571 0.08411 0.0
C439 C 0.09666 0.30617 0.12927 0.0
C440 C 0.99584 0.25279 0.17082 0.0
H441 H 0.16294 0.20782 0.27865 0.0
H442 H 0.15567 0.21688 0.23737 0.0
H443 H 0.95267 0.24603 0.2017 0.0
H444 H 0.97083 0.13966 0.07551 0.0
H445 H 0.97284 0.15831 0.1197 0.0
H446 H 0.17207 0.29734 0.17428 0.0
C447 C 0.12191 0.24141 0.24868 0.0
C448 C 1.00082 0.25849 0.19602 0.0
C449 C 0.12573 0.23586 0.27232 0.0
C450 C 1.0056 0.18694 0.09025 0.0
C451 C 1.00666 0.19767 0.11561 0.0
C452 C 0.12366 0.28704 0.18007 0.0
C453 C 0.07341 0.27569 0.2393 0.0
C454 C 0.06736 0.27706 0.21334 0.0
C455 C 1.05276 0.25708 0.13545 0.0
C456 C 1.05728 0.26635 0.16249 0.0
H457 H 0.99959 0.324 0.28967 0.0
H458 H 0.99224 0.33307 0.24785 0.0
H459 H 0.18066 0.30696 0.21805 0.0
H460 H 0.13002 0.33459 0.10001 0.0
H461 H 0.13224 0.35289 0.14405 0.0
C462 C 0.09098 0.22858 0.43596 0.0
C463 C 0.11952 0.18594 0.41752 0.0
C464 C 0.09882 0.22359 0.45979 0.0
C465 C 0.12998 0.10579 0.49454 0.0
H466 H 0.17129 0.27968 0.55339 0.0
C467 C 0.08173 0.11016 0.59071 0.0
C468 C 0.132 0.15625 0.6131 0.0
C469 C 0.08645 0.11273 0.56713 0.0
C470 C 0.16048 0.23061 0.53724 0.0
H471 H 0.17849 0.10392 0.40986 0.0
H472 H 0.19133 0.09439 0.4517 0.0
H473 H 0.17027 0.28534 0.51178 0.0
H474 H 0.22655 0.24168 0.62814 0.0
H475 H 0.23441 0.24657 0.58694 0.0
H476 H 0.11974 1.05108 0.52006 0.0
C477 C 0.16285 0.13183 0.44748 0.0
C478 C 0.15923 0.23382 0.51333 0.0
C479 C 0.15543 0.13723 0.42351 0.0
C480 C 0.18666 0.20567 0.61132 0.0
C481 C 0.19118 0.20847 0.58769 0.0
C482 C 0.13085 0.10255 0.51849 0.0
C483 C 0.13516 0.17558 0.46597 0.0
C484 C 0.14285 0.1715 0.49162 0.0
C485 C 0.14132 0.16172 0.56528 0.0
C486 C 0.14513 0.16495 0.54008 0.0
H487 H 0.06213 0.26611 0.43209 0.0
H488 H 0.07549 0.25698 0.47334 0.0
H489 H 0.11692 1.05683 0.47821 0.0
H490 H 1.03862 1.07162 0.59128 0.0
H491 H 1.04639 1.07685 0.55035 0.0
C492 C 0.18767 1.08262 0.75863 0.0
C493 C 0.12814 1.07702 0.73986 0.0
C494 C 0.18131 0.08707 0.78284 0.0
C495 C 0.08032 0.1545 0.82784 0.0
H496 H 0.15574 1.03947 0.86309 0.0
C497 C 0.1268 0.22485 0.9366 0.0
C498 C 0.09769 0.17024 0.94398 0.0
C499 C 0.12874 0.21103 0.91131 0.0
C500 C 0.13437 1.07187 0.85344 0.0
H501 H 1.01515 1.06997 0.73127 0.0
H502 H 1.00425 1.07949 0.7739 0.0
H503 H 0.16117 1.01635 0.81903 0.0
H504 H 1.04908 1.05816 0.93076 0.0
H505 H 1.05427 1.03372 0.88673 0.0
H506 H 1.05527 0.2113 0.86244 0.0
C507 C 1.05558 1.07961 0.76978 0.0
C508 C 0.13767 1.05879 0.82832 0.0
C509 C 0.06166 1.07348 0.74539 0.0
C510 C 0.07153 0.10138 0.92563 0.0
C511 C 0.0748 0.08729 0.90047 0.0
C512 C 0.07836 0.16853 0.85313 0.0
C513 C 0.11554 0.08745 0.78884 0.0
C514 C 0.11044 0.09981 0.81524 0.0
C515 C 0.10296 0.14205 0.893 0.0
C516 C 0.10522 0.12727 0.86618 0.0
H517 H 0.23948 1.08575 0.75478 0.0
H518 H 0.22838 0.09338 0.79721 0.0
H519 H 1.05955 0.18733 0.81827 0.0
H520 H 0.14699 0.27852 0.95029 0.0
H521 H 0.15107 0.25416 0.90609 0.0
loop_
_geom_bond_atom_site_label_1
_geom_bond_atom_site_label_2
_geom_bond_distance
_geom_bond_site_symmetry_2
_ccdc_geom_bond_type
Eu0 N29 2.600 1_554 S
Eu0 N35 2.562 . S
Eu0 O44 2.462 . S
Eu0 O45 2.373 . S
Eu0 O47 2.432 1_544 S
Eu0 O48 2.291 . S
Eu0 O52 2.335 . S
Eu0 O55 2.372 1_554 S
Eu0 C64 2.787 1_544 S
C1 N2 1.365 . S
C1 C4 1.405 . S
C1 C8 1.448 . S
N2 C1 1.365 . S
N2 C5 1.319 . S
N2 Eu11 2.600 . S
C3 C5 1.397 . S
C3 C6 1.367 . S
C3 H23 0.931 . S
C4 C1 1.405 . S
C4 C6 1.403 . S
C4 C10 1.439 . S
C5 N2 1.319 . S
C5 C3 1.397 . S
C5 H16 0.930 . S
C6 C3 1.367 . S
C6 C4 1.403 . S
C6 H27 0.929 . S
C7 C8 1.430 . S
C7 C9 1.387 . S
C7 C13 1.404 1_554 S
C8 C1 1.448 . S
C8 C7 1.430 . S
C8 N12 1.351 . S
C9 C7 1.387 . S
C9 C10 1.374 . S
C9 H24 0.931 . S
C10 C4 1.439 . S
C10 C9 1.374 . S
C10 H25 0.931 . S
Eu11 N2 2.600 . S
Eu11 N12 2.562 . S
Eu11 O46 2.335 . S
Eu11 O49 2.372 . S
Eu11 O50 2.462 . S
Eu11 O51 2.373 . S
Eu11 O53 2.432 . S
Eu11 O54 2.291 1_554 S
Eu11 C75 2.787 . S
N12 C8 1.351 . S
N12 Eu11 2.562 . S
N12 C14 1.325 1_554 S
C13 C7 1.404 1_556 S
C13 C15 1.366 . S
C13 H21 0.930 . S
C14 N12 1.325 1_556 S
C14 C15 1.416 . S
C14 H20 0.929 . S
C15 C13 1.366 . S
C15 C14 1.416 . S
C15 H17 0.930 . S
H16 C5 0.930 . S
H17 C15 0.930 . S
H18 C33 0.930 . S
H19 C40 0.930 . S
H20 C14 0.929 . S
H21 C13 0.930 . S
H22 C36 0.929 . S
H23 C3 0.931 . S
H24 C9 0.931 . S
H25 C10 0.931 . S
H26 C31 0.931 . S
H27 C6 0.929 . S
H28 C39 0.930 . S
N29 Eu0 2.600 1_556 S
N29 C30 1.365 . S
N29 C33 1.319 . S
C30 N29 1.365 . S
C30 C32 1.405 . S
C30 C38 1.448 1_556 S
C31 H26 0.931 . S
C31 C33 1.397 . S
C31 C34 1.367 . S
C32 C30 1.405 . S
C32 C34 1.403 . S
C32 C65 1.439 . S
C33 H18 0.930 . S
C33 N29 1.319 . S
C33 C31 1.397 . S
C34 C31 1.367 . S
C34 C32 1.403 . S
C34 H41 0.929 . S
N35 Eu0 2.562 . S
N35 C36 1.325 . S
N35 C38 1.351 . S
C36 H22 0.929 . S
C36 N35 1.325 . S
C36 C40 1.416 . S
C37 C38 1.430 . S
C37 C39 1.404 . S
C37 C66 1.387 1_554 S
C38 C30 1.448 1_554 S
C38 N35 1.351 . S
C38 C37 1.430 . S
C39 H28 0.930 . S
C39 C37 1.404 . S
C39 C40 1.366 . S
C40 H19 0.930 . S
C40 C36 1.416 . S
C40 C39 1.366 . S
H41 C34 0.929 . S
H42 C65 0.931 . S
H43 C66 0.932 . S
O44 Eu0 2.462 . S
O44 C64 1.252 1_544 S
O45 Eu0 2.373 . S
O45 C56 1.249 . S
O46 Eu11 2.335 . S
O46 C56 1.264 1_455 S
O47 Eu0 2.432 1_566 S
O47 C64 1.268 . S
O48 Eu0 2.291 . S
O48 C63 1.255 1_655 S
O49 Eu11 2.372 . S
O49 C63 1.257 . S
O50 Eu11 2.462 . S
O50 C75 1.252 . S
O51 Eu11 2.373 . S
O51 C67 1.249 . S
O52 Eu0 2.335 . S
O52 C67 1.264 1_655 S
O53 Eu11 2.432 . S
O53 C75 1.268 . S
O54 Eu11 2.291 1_556 S
O54 C74 1.255 . S
O55 Eu0 2.372 1_556 S
O55 C74 1.257 1_655 S
C56 O45 1.249 . S
C56 O46 1.264 1_655 S
C57 C60 1.382 . S
C57 C62 1.390 1_556 S
C57 C64 1.506 . S
C58 C59 1.398 1_554 S
C58 C62 1.392 . S
C59 C58 1.398 1_556 S
C59 C61 1.372 . S
C59 H76 0.931 . S
C60 C57 1.382 . S
C60 C61 1.390 . S
C60 H77 0.931 . S
C61 C59 1.372 . S
C61 C60 1.390 . S
C61 H78 0.929 . S
C62 C57 1.390 1_554 S
C62 C58 1.392 . S
C62 H79 0.930 . S
C63 O48 1.255 1_455 S
C63 O49 1.257 . S
C64 Eu0 2.787 1_566 S
C64 O44 1.252 1_566 S
C64 O47 1.268 . S
C64 C57 1.506 . S
C65 C32 1.439 . S
C65 H42 0.931 . S
C65 C66 1.374 . S
C66 C37 1.387 1_556 S
C66 H43 0.932 . S
C66 C65 1.374 . S
C67 O51 1.249 . S
C67 O52 1.264 1_455 S
C68 C71 1.382 . S
C68 C72 1.390 . S
C68 C75 1.506 . S
C69 C70 1.398 . S
C69 C72 1.392 . S
C70 C69 1.398 . S
C70 C73 1.372 . S
C70 H80 0.931 . S
C71 C68 1.382 . S
C71 C73 1.390 . S
C71 H81 0.931 . S
C72 C68 1.390 . S
C72 C69 1.392 . S
C72 H82 0.930 1_554 S
C73 C70 1.372 . S
C73 C71 1.390 . S
C73 H83 0.929 . S
C74 O54 1.255 . S
C74 O55 1.257 1_455 S
C75 Eu11 2.787 . S
C75 O50 1.252 . S
C75 O53 1.268 . S
C75 C68 1.506 . S
H76 C59 0.931 . S
H77 C60 0.931 . S
H78 C61 0.929 . S
H79 C62 0.930 . S
H80 C70 0.931 . S
H81 C71 0.931 . S
H82 C72 0.930 1_556 S
H83 C73 0.929 . S
Eu84 N113 2.600 1_545 S
Eu84 N119 2.562 1_545 S
Eu84 O128 2.462 1_645 S
Eu84 O129 2.373 . S
Eu84 O131 2.432 1_645 S
Eu84 O132 2.291 1_655 S
Eu84 O136 2.335 1_655 S
Eu84 O139 2.372 1_655 S
Eu84 C148 2.787 1_645 S
C85 N86 1.365 . S
C85 C88 1.405 . S
C85 C92 1.448 . S
N86 C85 1.365 . S
N86 C89 1.319 . S
N86 Eu95 2.600 . S
C87 C89 1.397 . S
C87 C90 1.367 . S
C87 H107 0.931 . S
C88 C85 1.405 . S
C88 C90 1.403 . S
C88 C94 1.439 . S
C89 N86 1.319 . S
C89 C87 1.397 . S
C89 H100 0.930 . S
C90 C87 1.367 . S
C90 C88 1.403 . S
C90 H111 0.929 . S
C91 C92 1.430 . S
C91 C93 1.387 . S
C91 C97 1.404 . S
C92 C85 1.448 . S
C92 C91 1.430 . S
C92 N96 1.351 . S
C93 C91 1.387 . S
C93 C94 1.374 . S
C93 H108 0.931 . S
C94 C88 1.439 . S
C94 C93 1.374 . S
C94 H109 0.931 . S
Eu95 N86 2.600 . S
Eu95 N96 2.562 . S
Eu95 O130 2.335 1_455 S
Eu95 O133 2.372 . S
Eu95 O134 2.462 . S
Eu95 O135 2.373 . S
Eu95 O137 2.432 . S
Eu95 O138 2.291 . S
Eu95 C159 2.787 . S
N96 C92 1.351 . S
N96 Eu95 2.562 . S
N96 C98 1.325 . S
C97 C91 1.404 . S
C97 C99 1.366 . S
C97 H105 0.930 . S
C98 N96 1.325 . S
C98 C99 1.416 . S
C98 H104 0.929 . S
C99 C97 1.366 . S
C99 C98 1.416 . S
C99 H101 0.930 . S
H100 C89 0.930 . S
H101 C99 0.930 . S
H102 C117 0.931 . S
H103 C124 0.930 . S
H104 C98 0.929 . S
H105 C97 0.930 . S
H106 C120 0.929 1_545 S
H107 C87 0.931 . S
H108 C93 0.931 . S
H109 C94 0.931 . S
H110 C115 0.931 . S
H111 C90 0.929 . S
H112 C123 0.930 . S
N113 Eu84 2.600 1_565 S
N113 C114 1.365 . S
N113 C117 1.319 . S
C114 N113 1.365 . S
C114 C116 1.405 . S
C114 C122 1.448 . S
C115 H110 0.931 . S
C115 C117 1.397 . S
C115 C118 1.367 . S
C116 C114 1.405 . S
C116 C118 1.403 . S
C116 C149 1.439 . S
C117 H102 0.931 . S
C117 N113 1.319 . S
C117 C115 1.397 . S
C118 C115 1.367 . S
C118 C116 1.403 . S
C118 H125 0.929 . S
N119 Eu84 2.562 1_565 S
N119 C120 1.325 . S
N119 C122 1.351 . S
C120 H106 0.929 1_565 S
C120 N119 1.325 . S
C120 C124 1.416 . S
C121 C122 1.430 . S
C121 C123 1.404 . S
C121 C150 1.387 . S
C122 C114 1.448 . S
C122 N119 1.351 . S
C122 C121 1.430 . S
C123 H112 0.930 . S
C123 C121 1.404 . S
C123 C124 1.366 . S
C124 H103 0.930 . S
C124 C120 1.416 . S
C124 C123 1.366 . S
H125 C118 0.929 . S
H126 C149 0.931 . S
H127 C150 0.931 . S
O128 Eu84 2.462 1_465 S
O128 C148 1.252 . S
O129 Eu84 2.373 . S
O129 C140 1.249 . S
O130 Eu95 2.335 1_655 S
O130 C140 1.264 . S
O131 Eu84 2.432 1_465 S
O131 C148 1.268 . S
O132 Eu84 2.291 1_455 S
O132 C147 1.255 . S
O133 Eu95 2.372 . S
O133 C147 1.257 . S
O134 Eu95 2.462 . S
O134 C159 1.252 . S
O135 Eu95 2.373 . S
O135 C151 1.249 . S
O136 Eu84 2.335 1_455 S
O136 C151 1.264 . S
O137 Eu95 2.432 . S
O137 C159 1.268 . S
O138 Eu95 2.291 . S
O138 C158 1.255 . S
O139 Eu84 2.372 1_455 S
O139 C158 1.257 . S
C140 O129 1.249 . S
C140 O130 1.264 . S
C141 C144 1.382 . S
C141 C146 1.390 . S
C141 C148 1.506 . S
C142 C143 1.398 . S
C142 C146 1.392 . S
C143 C142 1.398 . S
C143 C145 1.372 . S
C143 H160 0.931 . S
C144 C141 1.382 . S
C144 C145 1.390 . S
C144 H161 0.931 . S
C145 C143 1.372 . S
C145 C144 1.390 . S
C145 H162 0.929 . S
C146 C141 1.390 . S
C146 C142 1.392 . S
C146 H163 0.930 . S
C147 O132 1.255 . S
C147 O133 1.257 . S
C148 Eu84 2.787 1_465 S
C148 O128 1.252 . S
C148 O131 1.268 . S
C148 C141 1.506 . S
C149 C116 1.439 . S
C149 H126 0.931 . S
C149 C150 1.374 . S
C150 C121 1.387 . S
C150 H127 0.931 . S
C150 C149 1.374 . S
C151 O135 1.249 . S
C151 O136 1.264 . S
C152 C155 1.382 . S
C152 C156 1.390 . S
C152 C159 1.506 . S
C153 C154 1.398 . S
C153 C156 1.392 . S
C154 C153 1.398 . S
C154 C157 1.372 . S
C154 H164 0.931 . S
C155 C152 1.382 . S
C155 C157 1.390 . S
C155 H165 0.931 . S
C156 C152 1.390 . S
C156 C153 1.392 . S
C156 H166 0.930 . S
C157 C154 1.372 . S
C157 C155 1.390 . S
C157 H167 0.929 . S
C158 O138 1.255 . S
C158 O139 1.257 . S
C159 Eu95 2.787 . S
C159 O134 1.252 . S
C159 O137 1.268 . S
C159 C152 1.506 . S
H160 C143 0.931 . S
H161 C144 0.931 . S
H162 C145 0.929 . S
H163 C146 0.930 . S
H164 C154 0.931 . S
H165 C155 0.931 . S
H166 C156 0.930 . S
H167 C157 0.929 . S
Eu168 N197 2.600 . S
Eu168 N203 2.562 . S
Eu168 O212 2.462 . S
Eu168 O213 2.373 . S
Eu168 O215 2.432 . S
Eu168 O216 2.291 . S
Eu168 O220 2.335 . S
Eu168 O223 2.372 . S
Eu168 C232 2.787 . S
C169 N170 1.365 . S
C169 C172 1.405 . S
C169 C176 1.448 . S
N170 C169 1.365 . S
N170 C173 1.319 . S
N170 Eu179 2.600 . S
C171 C173 1.397 . S
C171 C174 1.367 . S
C171 H191 0.931 . S
C172 C169 1.405 . S
C172 C174 1.403 . S
C172 C178 1.439 . S
C173 N170 1.319 . S
C173 C171 1.397 . S
C173 H184 0.930 . S
C174 C171 1.367 . S
C174 C172 1.403 . S
C174 H195 0.929 . S
C175 C176 1.430 . S
C175 C177 1.387 . S
C175 C181 1.404 . S
C176 C169 1.448 . S
C176 C175 1.430 . S
C176 N180 1.351 . S
C177 C175 1.387 . S
C177 C178 1.374 . S
C177 H192 0.931 . S
C178 C172 1.439 . S
C178 C177 1.374 . S
C178 H193 0.931 . S
Eu179 N170 2.600 . S
Eu179 N180 2.562 . S
Eu179 O214 2.335 1_455 S
Eu179 O217 2.372 . S
Eu179 O218 2.462 1_455 S
Eu179 O219 2.373 . S
Eu179 O221 2.432 1_455 S
Eu179 O222 2.291 . S
Eu179 C243 2.787 1_455 S
N180 C176 1.351 . S
N180 Eu179 2.562 . S
N180 C182 1.325 . S
C181 C175 1.404 . S
C181 C183 1.366 . S
C181 H189 0.930 . S
C182 N180 1.325 . S
C182 C183 1.416 . S
C182 H188 0.929 . S
C183 C181 1.366 . S
C183 C182 1.416 . S
C183 H185 0.930 . S
H184 C173 0.930 . S
H185 C183 0.930 . S
H186 C201 0.930 . S
H187 C208 0.930 1_655 S
H188 C182 0.929 . S
H189 C181 0.930 . S
H190 C204 0.929 . S
H191 C171 0.931 . S
H192 C177 0.931 . S
H193 C178 0.931 . S
H194 C199 0.931 . S
H195 C174 0.929 . S
H196 C207 0.930 . S
N197 Eu168 2.600 . S
N197 C198 1.365 . S
N197 C201 1.319 . S
C198 N197 1.365 . S
C198 C200 1.405 . S
C198 C206 1.448 . S
C199 H194 0.931 . S
C199 C201 1.397 . S
C199 C202 1.367 . S
C200 C198 1.405 . S
C200 C202 1.403 . S
C200 C233 1.439 1_455 S
C201 H186 0.930 . S
C201 N197 1.319 . S
C201 C199 1.397 . S
C202 C199 1.367 . S
C202 C200 1.403 . S
C202 H209 0.929 . S
N203 Eu168 2.562 . S
N203 C204 1.325 . S
N203 C206 1.351 . S
C204 H190 0.929 . S
C204 N203 1.325 . S
C204 C208 1.416 . S
C205 C206 1.416 1_655 S
C205 C207 1.407 . S
C205 C234 1.399 . S
C206 C198 1.448 . S
C206 N203 1.351 . S
C206 C205 1.416 1_455 S
C207 H196 0.930 . S
C207 C205 1.407 . S
C207 C208 1.366 1_655 S
C208 H187 0.930 1_455 S
C208 C204 1.416 . S
C208 C207 1.366 1_455 S
H209 C202 0.929 . S
H210 C233 0.931 . S
H211 C234 0.931 . S
O212 Eu168 2.462 . S
O212 C232 1.252 . S
O213 Eu168 2.373 . S
O213 C224 1.249 1_455 S
O214 Eu179 2.335 1_655 S
O214 C224 1.264 1_565 S
O215 Eu168 2.432 . S
O215 C232 1.268 . S
O216 Eu168 2.291 . S
O216 C231 1.255 . S
O217 Eu179 2.372 . S
O217 C231 1.257 1_565 S
O218 Eu179 2.462 1_655 S
O218 C243 1.252 . S
O219 Eu179 2.373 . S
O219 C235 1.249 1_565 S
O220 Eu168 2.335 . S
O220 C235 1.264 . S
O221 Eu179 2.432 1_655 S
O221 C243 1.268 . S
O222 Eu179 2.291 . S
O222 C242 1.255 1_565 S
O223 Eu168 2.372 . S
O223 C242 1.257 . S
C224 O213 1.249 1_655 S
C224 O214 1.264 1_545 S
C225 C228 1.382 . S
C225 C230 1.390 . S
C225 C232 1.506 . S
C226 C227 1.398 . S
C226 C230 1.392 . S
C227 C226 1.398 . S
C227 C229 1.372 . S
C227 H244 0.931 . S
C228 C225 1.382 . S
C228 C229 1.390 . S
C228 H245 0.931 . S
C229 C227 1.372 . S
C229 C228 1.390 . S
C229 H246 0.929 . S
C230 C225 1.390 . S
C230 C226 1.392 . S
C230 H247 0.930 . S
C231 O216 1.255 . S
C231 O217 1.257 1_545 S
C232 Eu168 2.787 . S
C232 O212 1.252 . S
C232 O215 1.268 . S
C232 C225 1.506 . S
C233 C200 1.439 1_655 S
C233 H210 0.931 . S
C233 C234 1.374 . S
C234 C205 1.399 . S
C234 H211 0.931 . S
C234 C233 1.374 . S
C235 O219 1.249 1_545 S
C235 O220 1.264 . S
C236 C239 1.382 . S
C236 C240 1.390 . S
C236 C243 1.506 . S
C237 C238 1.398 . S
C237 C240 1.392 . S
C238 C237 1.398 . S
C238 C241 1.372 . S
C238 H248 0.931 . S
C239 C236 1.382 . S
C239 C241 1.390 . S
C239 H249 0.931 . S
C240 C236 1.390 . S
C240 C237 1.392 . S
C240 H250 0.930 . S
C241 C238 1.372 . S
C241 C239 1.390 . S
C241 H251 0.929 . S
C242 O222 1.255 1_545 S
C242 O223 1.257 . S
C243 Eu179 2.787 1_655 S
C243 O218 1.252 . S
C243 O221 1.268 . S
C243 C236 1.506 . S
H244 C227 0.931 . S
H245 C228 0.931 . S
H246 C229 0.929 . S
H247 C230 0.930 . S
H248 C238 0.931 . S
H249 C239 0.931 . S
H250 C240 0.930 . S
H251 C241 0.929 . S
C252 C253 1.349 1_455 S
C252 C254 1.327 . S
C252 H277 0.950 . S
C253 C252 1.349 1_655 S
C253 C269 1.349 . S
C254 C252 1.327 . S
C254 C273 1.437 . S
C254 H278 0.950 . S
C255 C272 1.574 . S
C255 C274 1.368 1_656 S
C255 H279 0.949 . S
H256 C260 0.949 . S
C257 C258 1.349 1_656 S
C257 C259 1.327 . S
C257 H280 0.950 . S
C258 C257 1.349 1_454 S
C258 C270 1.349 . S
C259 C257 1.327 . S
C259 C275 1.429 1_656 S
C259 H281 0.950 . S
C260 H256 0.949 . S
C260 C268 1.574 . S
C260 C276 1.368 . S
H261 C269 0.950 1_556 S
H262 C267 0.920 1_556 S
H263 C268 0.949 . S
H264 C270 0.950 . S
H265 C271 0.950 . S
H266 C272 0.949 . S
C267 H262 0.920 1_554 S
C267 C269 1.345 . S
C267 C273 1.437 1_655 S
C268 C260 1.574 . S
C268 H263 0.949 . S
C268 C274 1.368 . S
C269 C253 1.349 . S
C269 H261 0.950 1_554 S
C269 C267 1.345 . S
C270 C258 1.349 . S
C270 H264 0.950 . S
C270 C271 1.327 . S
C271 H265 0.950 . S
C271 C270 1.327 . S
C271 C275 1.429 . S
C272 C255 1.574 . S
C272 H266 0.949 . S
C272 C276 1.368 1_656 S
C273 C254 1.437 . S
C273 C267 1.437 1_455 S
C273 C274 1.519 . S
C274 C255 1.368 1_454 S
C274 C268 1.368 . S
C274 C273 1.519 . S
C275 C259 1.429 1_454 S
C275 C271 1.429 . S
C275 C276 1.523 . S
C276 C260 1.368 . S
C276 C272 1.368 1_454 S
C276 C275 1.523 . S
H277 C252 0.950 . S
H278 C254 0.950 . S
H279 C255 0.949 . S
H280 C257 0.950 . S
H281 C259 0.950 . S
C282 C283 1.349 . S
C282 C284 1.327 . S
C282 H307 0.950 . S
C283 C282 1.349 . S
C283 C299 1.349 . S
C284 C282 1.327 . S
C284 C303 1.429 . S
C284 H308 0.950 . S
C285 C302 1.574 . S
C285 C304 1.368 . S
C285 H309 0.949 . S
H286 C290 0.949 . S
C287 C288 1.349 . S
C287 C289 1.327 . S
C287 H310 0.950 . S
C288 C287 1.349 . S
C288 C300 1.349 . S
C289 C287 1.327 . S
C289 C305 1.429 . S
C289 H311 0.950 . S
C290 H286 0.949 . S
C290 C298 1.574 . S
C290 C306 1.368 . S
H291 C299 0.950 . S
H292 C297 0.950 . S
H293 C298 0.949 . S
H294 C300 0.950 . S
H295 C301 0.950 . S
H296 C302 0.949 . S
C297 H292 0.950 . S
C297 C299 1.327 . S
C297 C303 1.429 . S
C298 C290 1.574 . S
C298 H293 0.949 . S
C298 C304 1.368 . S
C299 C283 1.349 . S
C299 H291 0.950 . S
C299 C297 1.327 . S
C300 C288 1.349 . S
C300 H294 0.950 . S
C300 C301 1.327 . S
C301 H295 0.950 . S
C301 C300 1.327 . S
C301 C305 1.429 . S
C302 C285 1.574 . S
C302 H296 0.949 . S
C302 C306 1.368 . S
C303 C284 1.429 . S
C303 C297 1.429 . S
C303 C304 1.523 . S
C304 C285 1.368 . S
C304 C298 1.368 . S
C304 C303 1.523 . S
C305 C289 1.429 . S
C305 C301 1.429 . S
C305 C306 1.523 . S
C306 C290 1.368 . S
C306 C302 1.368 . S
C306 C305 1.523 . S
H307 C282 0.950 . S
H308 C284 0.950 . S
H309 C285 0.949 . S
H310 C287 0.950 . S
H311 C289 0.950 . S
C312 C313 1.349 . S
C312 C314 1.327 . S
C312 H337 0.950 . S
C313 C312 1.349 . S
C313 C329 1.349 . S
C314 C312 1.327 . S
C314 C333 1.429 . S
C314 H338 0.950 . S
C315 C332 1.574 . S
C315 C334 1.368 . S
C315 H339 0.949 . S
H316 C320 0.949 . S
C317 C318 1.349 . S
C317 C319 1.327 . S
C317 H340 0.950 . S
C318 C317 1.349 . S
C318 C330 1.349 . S
C319 C317 1.327 . S
C319 C335 1.429 . S
C319 H341 0.950 . S
C320 H316 0.949 . S
C320 C328 1.574 . S
C320 C336 1.368 . S
H321 C329 0.950 . S
H322 C327 0.950 . S
H323 C328 0.949 . S
H324 C330 0.950 . S
H325 C331 0.950 . S
H326 C332 0.949 . S
C327 H322 0.950 . S
C327 C329 1.327 . S
C327 C333 1.429 . S
C328 C320 1.574 . S
C328 H323 0.949 . S
C328 C334 1.368 . S
C329 C313 1.349 . S
C329 H321 0.950 . S
C329 C327 1.327 . S
C330 C318 1.349 . S
C330 H324 0.950 . S
C330 C331 1.327 . S
C331 H325 0.950 . S
C331 C330 1.327 . S
C331 C335 1.429 . S
C332 C315 1.574 . S
C332 H326 0.949 . S
C332 C336 1.368 . S
C333 C314 1.429 . S
C333 C327 1.429 . S
C333 C334 1.523 . S
C334 C315 1.368 . S
C334 C328 1.368 . S
C334 C333 1.523 . S
C335 C319 1.429 . S
C335 C331 1.429 . S
C335 C336 1.523 . S
C336 C320 1.368 . S
C336 C332 1.368 . S
C336 C335 1.523 . S
H337 C312 0.950 . S
H338 C314 0.950 . S
H339 C315 0.949 . S
H340 C317 0.950 . S
H341 C319 0.950 . S
C342 C343 1.349 . S
C342 C344 1.327 . S
C342 H367 0.950 . S
C343 C342 1.349 . S
C343 C359 1.349 1_545 S
C344 C342 1.327 . S
C344 C363 1.429 . S
C344 H368 0.950 . S
C345 C362 1.574 . S
C345 C364 1.368 1_565 S
C345 H369 0.949 . S
H346 C350 0.949 . S
C347 C348 1.349 1_565 S
C347 C349 1.327 . S
C347 H370 0.950 . S
C348 C347 1.349 1_545 S
C348 C360 1.349 . S
C349 C347 1.327 . S
C349 C365 1.429 1_565 S
C349 H371 0.950 . S
C350 H346 0.949 . S
C350 C358 1.574 . S
C350 C366 1.368 . S
H351 C359 0.950 . S
H352 C357 0.950 . S
H353 C358 0.949 . S
H354 C360 0.950 . S
H355 C361 0.950 . S
H356 C362 0.949 . S
C357 H352 0.950 . S
C357 C359 1.327 . S
C357 C363 1.429 1_565 S
C358 C350 1.574 . S
C358 H353 0.949 . S
C358 C364 1.368 . S
C359 C343 1.349 1_565 S
C359 H351 0.950 . S
C359 C357 1.327 . S
C360 C348 1.349 . S
C360 H354 0.950 . S
C360 C361 1.327 . S
C361 H355 0.950 . S
C361 C360 1.327 . S
C361 C365 1.429 . S
C362 C345 1.574 . S
C362 H356 0.949 . S
C362 C366 1.368 1_565 S
C363 C344 1.429 . S
C363 C357 1.429 1_545 S
C363 C364 1.523 . S
C364 C345 1.368 1_545 S
C364 C358 1.368 . S
C364 C363 1.523 . S
C365 C349 1.429 1_545 S
C365 C361 1.429 . S
C365 C366 1.523 . S
C366 C350 1.368 . S
C366 C362 1.368 1_545 S
C366 C365 1.523 . S
H367 C342 0.950 . S
H368 C344 0.950 . S
H369 C345 0.949 . S
H370 C347 0.950 . S
H371 C349 0.950 . S
C372 C373 1.349 . S
C372 C374 1.327 . S
C372 H397 0.950 . S
C373 C372 1.349 . S
C373 C389 1.349 . S
C374 C372 1.327 . S
C374 C393 1.429 . S
C374 H398 0.950 . S
C375 C392 1.583 1_554 S
C375 C394 1.368 . S
C375 H399 0.949 1_554 S
H376 C380 0.949 . S
C377 C378 1.349 1_556 S
C377 C379 1.327 . S
C377 H400 0.950 . S
C378 C377 1.349 1_554 S
C378 C390 1.349 . S
C379 C377 1.327 . S
C379 C395 1.429 1_556 S
C379 H401 0.950 . S
C380 H376 0.949 . S
C380 C388 1.574 . S
C380 C396 1.368 . S
H381 C389 0.950 . S
H382 C387 0.950 1_556 S
H383 C388 0.949 . S
H384 C390 0.950 . S
H385 C391 0.950 . S
H386 C392 0.959 . S
C387 H382 0.950 1_554 S
C387 C389 1.327 . S
C387 C393 1.429 . S
C388 C380 1.574 . S
C388 H383 0.949 . S
C388 C394 1.368 . S
C389 C373 1.349 . S
C389 H381 0.950 . S
C389 C387 1.327 . S
C390 C378 1.349 . S
C390 H384 0.950 . S
C390 C391 1.327 . S
C391 H385 0.950 . S
C391 C390 1.327 . S
C391 C395 1.429 . S
C392 C375 1.583 1_556 S
C392 H386 0.959 . S
C392 C396 1.349 1_556 S
C393 C374 1.429 . S
C393 C387 1.429 . S
C393 C394 1.523 . S
C394 C375 1.368 . S
C394 C388 1.368 . S
C394 C393 1.523 . S
C395 C379 1.429 1_554 S
C395 C391 1.429 . S
C395 C396 1.523 . S
C396 C380 1.368 . S
C396 C392 1.349 1_554 S
C396 C395 1.523 . S
H397 C372 0.950 . S
H398 C374 0.950 . S
H399 C375 0.949 1_556 S
H400 C377 0.950 . S
H401 C379 0.950 . S
C402 C403 1.349 1_455 S
C402 C404 1.327 . S
C402 H427 0.950 . S
C403 C402 1.349 1_655 S
C403 C419 1.349 . S
C404 C402 1.327 . S
C404 C423 1.429 . S
C404 H428 0.950 . S
C405 C422 1.574 . S
C405 C424 1.368 1_655 S
C405 H429 0.949 . S
H406 C410 0.949 . S
C407 C408 1.349 . S
C407 C409 1.327 . S
C407 H430 0.950 . S
C408 C407 1.349 . S
C408 C420 1.349 . S
C409 C407 1.327 . S
C409 C425 1.429 . S
C409 H431 0.950 1_455 S
C410 H406 0.949 . S
C410 C418 1.574 . S
C410 C426 1.368 . S
H411 C419 0.950 . S
H412 C417 0.950 . S
H413 C418 0.949 . S
H414 C420 0.950 . S
H415 C421 0.950 . S
H416 C422 0.949 . S
C417 H412 0.950 . S
C417 C419 1.327 . S
C417 C423 1.429 1_655 S
C418 C410 1.574 . S
C418 H413 0.949 . S
C418 C424 1.368 . S
C419 C403 1.349 . S
C419 H411 0.950 . S
C419 C417 1.327 . S
C420 C408 1.349 . S
C420 H414 0.950 . S
C420 C421 1.327 . S
C421 H415 0.950 . S
C421 C420 1.327 . S
C421 C425 1.429 . S
C422 C405 1.574 . S
C422 H416 0.949 . S
C422 C426 1.368 1_655 S
C423 C404 1.429 . S
C423 C417 1.429 1_455 S
C423 C424 1.523 . S
C424 C405 1.368 1_455 S
C424 C418 1.368 . S
C424 C423 1.523 . S
C425 C409 1.429 . S
C425 C421 1.429 . S
C425 C426 1.523 . S
C426 C410 1.368 . S
C426 C422 1.368 1_455 S
C426 C425 1.523 . S
H427 C402 0.950 . S
H428 C404 0.950 . S
H429 C405 0.949 . S
H430 C407 0.950 . S
H431 C409 0.950 1_655 S
C432 C433 1.349 1_655 S
C432 C434 1.327 . S
C432 H457 0.950 . S
C433 C432 1.349 1_455 S
C433 C449 1.349 . S
C434 C432 1.327 . S
C434 C453 1.429 1_655 S
C434 H458 0.950 . S
C435 C452 1.574 . S
C435 C454 1.368 . S
C435 H459 0.949 . S
H436 C440 0.949 . S
C437 C438 1.349 1_455 S
C437 C439 1.327 . S
C437 H460 0.950 . S
C438 C437 1.349 1_655 S
C438 C450 1.349 . S
C439 C437 1.327 . S
C439 C455 1.429 . S
C439 H461 0.950 . S
C440 H436 0.949 . S
C440 C448 1.574 . S
C440 C456 1.368 1_655 S
H441 C449 0.950 . S
H442 C447 0.950 . S
H443 C448 0.949 . S
H444 C450 0.950 . S
H445 C451 0.950 . S
H446 C452 0.949 . S
C447 H442 0.950 . S
C447 C449 1.327 . S
C447 C453 1.429 . S
C448 C440 1.574 . S
C448 H443 0.949 . S
C448 C454 1.368 1_655 S
C449 C433 1.349 . S
C449 H441 0.950 . S
C449 C447 1.327 . S
C450 C438 1.349 . S
C450 H444 0.950 . S
C450 C451 1.327 . S
C451 H445 0.950 . S
C451 C450 1.327 . S
C451 C455 1.429 1_655 S
C452 C435 1.574 . S
C452 H446 0.949 . S
C452 C456 1.368 . S
C453 C434 1.429 1_455 S
C453 C447 1.429 . S
C453 C454 1.523 . S
C454 C435 1.368 . S
C454 C448 1.368 1_455 S
C454 C453 1.523 . S
C455 C439 1.429 . S
C455 C451 1.429 1_455 S
C455 C456 1.523 . S
C456 C440 1.368 1_455 S
C456 C452 1.368 . S
C456 C455 1.523 . S
H457 C432 0.950 . S
H458 C434 0.950 . S
H459 C435 0.949 . S
H460 C437 0.950 . S
H461 C439 0.950 . S
C462 C463 1.349 . S
C462 C464 1.327 . S
C462 H487 0.950 . S
C463 C462 1.349 . S
C463 C479 1.349 . S
C464 C462 1.327 . S
C464 C483 1.429 . S
C464 H488 0.950 . S
C465 C482 1.574 . S
C465 C484 1.368 . S
C465 H489 0.949 . S
H466 C470 0.949 . S
C467 C468 1.349 1_565 S
C467 C469 1.327 . S
C467 H490 0.950 . S
C468 C467 1.349 1_545 S
C468 C480 1.349 . S
C469 C467 1.327 . S
C469 C485 1.429 1_565 S
C469 H491 0.950 . S
C470 H466 0.949 . S
C470 C478 1.574 . S
C470 C486 1.368 . S
H471 C479 0.950 . S
H472 C477 0.950 . S
H473 C478 0.949 . S
H474 C480 0.950 . S
H475 C481 0.950 . S
H476 C482 0.949 1_565 S
C477 H472 0.950 . S
C477 C479 1.327 . S
C477 C483 1.429 . S
C478 C470 1.574 . S
C478 H473 0.949 . S
C478 C484 1.368 . S
C479 C463 1.349 . S
C479 H471 0.950 . S
C479 C477 1.327 . S
C480 C468 1.349 . S
C480 H474 0.950 . S
C480 C481 1.327 . S
C481 H475 0.950 . S
C481 C480 1.327 . S
C481 C485 1.429 . S
C482 C465 1.574 . S
C482 H476 0.949 1_545 S
C482 C486 1.368 . S
C483 C464 1.429 . S
C483 C477 1.429 . S
C483 C484 1.523 . S
C484 C465 1.368 . S
C484 C478 1.368 . S
C484 C483 1.523 . S
C485 C469 1.429 1_545 S
C485 C481 1.429 . S
C485 C486 1.523 . S
C486 C470 1.368 . S
C486 C482 1.368 . S
C486 C485 1.523 . S
H487 C462 0.950 . S
H488 C464 0.950 . S
H489 C465 0.949 . S
H490 C467 0.950 . S
H491 C469 0.950 . S
C492 C493 1.349 1_565 S
C492 C494 1.327 . S
C492 H517 0.950 . S
C493 C492 1.349 1_545 S
C493 C509 1.349 . S
C494 C492 1.327 . S
C494 C513 1.429 1_565 S
C494 H518 0.950 . S
C495 C512 1.574 . S
C495 C514 1.368 . S
C495 H519 0.949 . S
H496 C500 0.949 1_565 S
C497 C498 1.349 . S
C497 C499 1.327 . S
C497 H520 0.950 . S
C498 C497 1.349 . S
C498 C510 1.349 . S
C499 C497 1.327 . S
C499 C515 1.429 . S
C499 H521 0.950 . S
C500 H496 0.949 1_545 S
C500 C508 1.574 . S
C500 C516 1.368 . S
H501 C509 0.950 . S
H502 C507 0.950 . S
H503 C508 0.949 1_565 S
H504 C510 0.950 . S
H505 C511 0.950 1_565 S
H506 C512 0.949 . S
C507 H502 0.950 . S
C507 C509 1.327 . S
C507 C513 1.429 . S
C508 C500 1.574 . S
C508 H503 0.949 1_545 S
C508 C514 1.368 . S
C509 C493 1.349 . S
C509 H501 0.950 . S
C509 C507 1.327 . S
C510 C498 1.349 . S
C510 H504 0.950 . S
C510 C511 1.327 . S
C511 H505 0.950 1_545 S
C511 C510 1.327 . S
C511 C515 1.429 . S
C512 C495 1.574 . S
C512 H506 0.949 . S
C512 C516 1.368 . S
C513 C494 1.429 1_545 S
C513 C507 1.429 . S
C513 C514 1.523 . S
C514 C495 1.368 . S
C514 C508 1.368 . S
C514 C513 1.523 . S
C515 C499 1.429 . S
C515 C511 1.429 . S
C515 C516 1.523 . S
C516 C500 1.368 . S
C516 C512 1.368 . S
C516 C515 1.523 . S
H517 C492 0.950 . S
H518 C494 0.950 . S
H519 C495 0.949 . S
H520 C497 0.950 . S
H521 C499 0.950 . S
C253 C56 4.218 . S
C258 C67 4.218 1_565 S
C283 C151 2.551 . S
C288 C140 2.551 . S
C313 C237 0.623 . S
C318 C226 0.623 . S
C343 C224 2.530 . S
C348 C235 2.530 . S
C373 C58 0.707 . S
C378 C69 0.707 . S
C403 C153 1.342 1_655 S
C408 C142 1.342 . S
C433 C158 1.520 . S
C438 C63 1.535 1_655 S
C463 C147 1.598 . S
C468 C231 1.581 . S
C493 C242 1.569 . S
C498 C74 1.577 . S
