# Generated by pormake.
# Topology wgh, (5)-cn, num edge types: 1
# Building blocks:
#     Node 0, Type 0, BuildingBlock: BEQFEK_clean_sbu_0, # of connection points: 5
#     Node 1, Type 0, BuildingBlock: BEQFEK_clean_sbu_0, # of connection points: 5
#     Node 2, Type 0, BuildingBlock: BEQFEK_clean_sbu_0, # of connection points: 5
#     Node 3, Type 0, BuildingBlock: BEQFEK_clean_sbu_0, # of connection points: 5
#     Node 4, Type 0, BuildingBlock: BEQFEK_clean_sbu_0, # of connection points: 5
#     Node 5, Type 0, BuildingBlock: BEQFEK_clean_sbu_0, # of connection points: 5
#     Node 6, Type 0, BuildingBlock: BEQFEK_clean_sbu_0, # of connection points: 5
#     Node 7, Type 0, BuildingBlock: BEQFEK_clean_sbu_0, # of connection points: 5
#     Node 8, Type 0, BuildingBlock: BEQFEK_clean_sbu_0, # of connection points: 5
#     Node 9, Type 0, BuildingBlock: BEQFEK_clean_sbu_0, # of connection points: 5
#     Node 10, Type 0, BuildingBlock: BEQFEK_clean_sbu_0, # of connection points: 5
#     Node 11, Type 0, BuildingBlock: BEQFEK_clean_sbu_0, # of connection points: 5
#     Node 12, Type 0, BuildingBlock: BEQFEK_clean_sbu_0, # of connection points: 5
#     Node 13, Type 0, BuildingBlock: BEQFEK_clean_sbu_0, # of connection points: 5
#     Node 14, Type 0, BuildingBlock: BEQFEK_clean_sbu_0, # of connection points: 5
#     Node 15, Type 0, BuildingBlock: BEQFEK_clean_sbu_0, # of connection points: 5
#     Node 16, Type 0, BuildingBlock: BEQFEK_clean_sbu_0, # of connection points: 5
#     Node 17, Type 0, BuildingBlock: BEQFEK_clean_sbu_0, # of connection points: 5
#     Node 18, Type 0, BuildingBlock: BEQFEK_clean_sbu_0, # of connection points: 5
#     Node 19, Type 0, BuildingBlock: BEQFEK_clean_sbu_0, # of connection points: 5
#     Node 20, Type 0, BuildingBlock: BEQFEK_clean_sbu_0, # of connection points: 5
#     Node 21, Type 0, BuildingBlock: BEQFEK_clean_sbu_0, # of connection points: 5
#     Node 22, Type 0, BuildingBlock: BEQFEK_clean_sbu_0, # of connection points: 5
#     Node 23, Type 0, BuildingBlock: BEQFEK_clean_sbu_0, # of connection points: 5
#     Node 24, Type 0, BuildingBlock: BEQFEK_clean_sbu_0, # of connection points: 5
#     Node 25, Type 0, BuildingBlock: BEQFEK_clean_sbu_0, # of connection points: 5
#     Node 26, Type 0, BuildingBlock: BEQFEK_clean_sbu_0, # of connection points: 5
#     Node 27, Type 0, BuildingBlock: BEQFEK_clean_sbu_0, # of connection points: 5
#     Node 28, Type 0, BuildingBlock: BEQFEK_clean_sbu_0, # of connection points: 5
#     Node 29, Type 0, BuildingBlock: BEQFEK_clean_sbu_0, # of connection points: 5
#     Node 30, Type 0, BuildingBlock: BEQFEK_clean_sbu_0, # of connection points: 5
#     Node 31, Type 0, BuildingBlock: BEQFEK_clean_sbu_0, # of connection points: 5
#     Edge 32, Type (0, 0), BuildingBlock: AJUNOK_clean_linker_0, # of connection points: 2
#     Edge 33, Type (0, 0), BuildingBlock: AJUNOK_clean_linker_0, # of connection points: 2
#     Edge 34, Type (0, 0), BuildingBlock: AJUNOK_clean_linker_0, # of connection points: 2
#     Edge 35, Type (0, 0), BuildingBlock: AJUNOK_clean_linker_0, # of connection points: 2
#     Edge 36, Type (0, 0), BuildingBlock: AJUNOK_clean_linker_0, # of connection points: 2
#     Edge 37, Type (0, 0), BuildingBlock: AJUNOK_clean_linker_0, # of connection points: 2
#     Edge 38, Type (0, 0), BuildingBlock: AJUNOK_clean_linker_0, # of connection points: 2
#     Edge 39, Type (0, 0), BuildingBlock: AJUNOK_clean_linker_0, # of connection points: 2
#     Edge 40, Type (0, 0), BuildingBlock: AJUNOK_clean_linker_0, # of connection points: 2
#     Edge 41, Type (0, 0), BuildingBlock: AJUNOK_clean_linker_0, # of connection points: 2
#     Edge 42, Type (0, 0), BuildingBlock: AJUNOK_clean_linker_0, # of connection points: 2
#     Edge 43, Type (0, 0), BuildingBlock: AJUNOK_clean_linker_0, # of connection points: 2
#     Edge 44, Type (0, 0), BuildingBlock: AJUNOK_clean_linker_0, # of connection points: 2
#     Edge 45, Type (0, 0), BuildingBlock: AJUNOK_clean_linker_0, # of connection points: 2
#     Edge 46, Type (0, 0), BuildingBlock: AJUNOK_clean_linker_0, # of connection points: 2
#     Edge 47, Type (0, 0), BuildingBlock: AJUNOK_clean_linker_0, # of connection points: 2
#     Edge 48, Type (0, 0), BuildingBlock: AJUNOK_clean_linker_0, # of connection points: 2
#     Edge 49, Type (0, 0), BuildingBlock: AJUNOK_clean_linker_0, # of connection points: 2
#     Edge 50, Type (0, 0), BuildingBlock: AJUNOK_clean_linker_0, # of connection points: 2
#     Edge 51, Type (0, 0), BuildingBlock: AJUNOK_clean_linker_0, # of connection points: 2
#     Edge 52, Type (0, 0), BuildingBlock: AJUNOK_clean_linker_0, # of connection points: 2
#     Edge 53, Type (0, 0), BuildingBlock: AJUNOK_clean_linker_0, # of connection points: 2
#     Edge 54, Type (0, 0), BuildingBlock: AJUNOK_clean_linker_0, # of connection points: 2
#     Edge 55, Type (0, 0), BuildingBlock: AJUNOK_clean_linker_0, # of connection points: 2
#     Edge 56, Type (0, 0), BuildingBlock: AJUNOK_clean_linker_0, # of connection points: 2
#     Edge 57, Type (0, 0), BuildingBlock: AJUNOK_clean_linker_0, # of connection points: 2
#     Edge 58, Type (0, 0), BuildingBlock: AJUNOK_clean_linker_0, # of connection points: 2
#     Edge 59, Type (0, 0), BuildingBlock: AJUNOK_clean_linker_0, # of connection points: 2
#     Edge 60, Type (0, 0), BuildingBlock: AJUNOK_clean_linker_0, # of connection points: 2
#     Edge 61, Type (0, 0), BuildingBlock: AJUNOK_clean_linker_0, # of connection points: 2
#     Edge 62, Type (0, 0), BuildingBlock: AJUNOK_clean_linker_0, # of connection points: 2
#     Edge 63, Type (0, 0), BuildingBlock: AJUNOK_clean_linker_0, # of connection points: 2
#     Edge 64, Type (0, 0), BuildingBlock: AJUNOK_clean_linker_0, # of connection points: 2
#     Edge 65, Type (0, 0), BuildingBlock: AJUNOK_clean_linker_0, # of connection points: 2
#     Edge 66, Type (0, 0), BuildingBlock: AJUNOK_clean_linker_0, # of connection points: 2
#     Edge 67, Type (0, 0), BuildingBlock: AJUNOK_clean_linker_0, # of connection points: 2
#     Edge 68, Type (0, 0), BuildingBlock: AJUNOK_clean_linker_0, # of connection points: 2
#     Edge 69, Type (0, 0), BuildingBlock: AJUNOK_clean_linker_0, # of connection points: 2
#     Edge 70, Type (0, 0), BuildingBlock: AJUNOK_clean_linker_0, # of connection points: 2
#     Edge 71, Type (0, 0), BuildingBlock: AJUNOK_clean_linker_0, # of connection points: 2
#     Edge 72, Type (0, 0), BuildingBlock: AJUNOK_clean_linker_0, # of connection points: 2
#     Edge 73, Type (0, 0), BuildingBlock: AJUNOK_clean_linker_0, # of connection points: 2
#     Edge 74, Type (0, 0), BuildingBlock: AJUNOK_clean_linker_0, # of connection points: 2
#     Edge 75, Type (0, 0), BuildingBlock: AJUNOK_clean_linker_0, # of connection points: 2
#     Edge 76, Type (0, 0), BuildingBlock: AJUNOK_clean_linker_0, # of connection points: 2
#     Edge 77, Type (0, 0), BuildingBlock: AJUNOK_clean_linker_0, # of connection points: 2
#     Edge 78, Type (0, 0), BuildingBlock: AJUNOK_clean_linker_0, # of connection points: 2
#     Edge 79, Type (0, 0), BuildingBlock: AJUNOK_clean_linker_0, # of connection points: 2
#     Edge 80, Type (0, 0), BuildingBlock: AJUNOK_clean_linker_0, # of connection points: 2
#     Edge 81, Type (0, 0), BuildingBlock: AJUNOK_clean_linker_0, # of connection points: 2
#     Edge 82, Type (0, 0), BuildingBlock: AJUNOK_clean_linker_0, # of connection points: 2
#     Edge 83, Type (0, 0), BuildingBlock: AJUNOK_clean_linker_0, # of connection points: 2
#     Edge 84, Type (0, 0), BuildingBlock: AJUNOK_clean_linker_0, # of connection points: 2
#     Edge 85, Type (0, 0), BuildingBlock: AJUNOK_clean_linker_0, # of connection points: 2
#     Edge 86, Type (0, 0), BuildingBlock: AJUNOK_clean_linker_0, # of connection points: 2
#     Edge 87, Type (0, 0), BuildingBlock: AJUNOK_clean_linker_0, # of connection points: 2
#     Edge 88, Type (0, 0), BuildingBlock: AJUNOK_clean_linker_0, # of connection points: 2
#     Edge 89, Type (0, 0), BuildingBlock: AJUNOK_clean_linker_0, # of connection points: 2
#     Edge 90, Type (0, 0), BuildingBlock: AJUNOK_clean_linker_0, # of connection points: 2
#     Edge 91, Type (0, 0), BuildingBlock: AJUNOK_clean_linker_0, # of connection points: 2
#     Edge 92, Type (0, 0), BuildingBlock: AJUNOK_clean_linker_0, # of connection points: 2
#     Edge 93, Type (0, 0), BuildingBlock: AJUNOK_clean_linker_0, # of connection points: 2
#     Edge 94, Type (0, 0), BuildingBlock: AJUNOK_clean_linker_0, # of connection points: 2
#     Edge 95, Type (0, 0), BuildingBlock: AJUNOK_clean_linker_0, # of connection points: 2
#     Edge 96, Type (0, 0), BuildingBlock: AJUNOK_clean_linker_0, # of connection points: 2
#     Edge 97, Type (0, 0), BuildingBlock: AJUNOK_clean_linker_0, # of connection points: 2
#     Edge 98, Type (0, 0), BuildingBlock: AJUNOK_clean_linker_0, # of connection points: 2
#     Edge 99, Type (0, 0), BuildingBlock: AJUNOK_clean_linker_0, # of connection points: 2
#     Edge 100, Type (0, 0), BuildingBlock: AJUNOK_clean_linker_0, # of connection points: 2
#     Edge 101, Type (0, 0), BuildingBlock: AJUNOK_clean_linker_0, # of connection points: 2
#     Edge 102, Type (0, 0), BuildingBlock: AJUNOK_clean_linker_0, # of connection points: 2
#     Edge 103, Type (0, 0), BuildingBlock: AJUNOK_clean_linker_0, # of connection points: 2
#     Edge 104, Type (0, 0), BuildingBlock: AJUNOK_clean_linker_0, # of connection points: 2
#     Edge 105, Type (0, 0), BuildingBlock: AJUNOK_clean_linker_0, # of connection points: 2
#     Edge 106, Type (0, 0), BuildingBlock: AJUNOK_clean_linker_0, # of connection points: 2
#     Edge 107, Type (0, 0), BuildingBlock: AJUNOK_clean_linker_0, # of connection points: 2
#     Edge 108, Type (0, 0), BuildingBlock: AJUNOK_clean_linker_0, # of connection points: 2
#     Edge 109, Type (0, 0), BuildingBlock: AJUNOK_clean_linker_0, # of connection points: 2
#     Edge 110, Type (0, 0), BuildingBlock: AJUNOK_clean_linker_0, # of connection points: 2
#     Edge 111, Type (0, 0), BuildingBlock: AJUNOK_clean_linker_0, # of connection points: 2
# Relax obj value: 0.206
# Max RMSD: 0.136
# Mean RMSD: 0.136
data_MOF--net-wgh--node1-BEQFEK_clean_sbu_0--edge1-AJUNOK_clean_linker_0
_symmetry_space_group_name_H-M    P1
_symmetry_Int_Tables_number       1
_symmetry_cell_setting            triclinic
loop_
_symmetry_equiv_pos_as_xyz
'x, y, z'
_cell_length_a     68.392285
_cell_length_b     68.372143
_cell_length_c     17.272837
_cell_angle_alpha  90.253621
_cell_angle_beta   90.12969
_cell_angle_gamma 90.049031
loop_
_atom_site_label
_atom_site_type_symbol
_atom_site_fract_x
_atom_site_fract_y
_atom_site_fract_z
_atom_type_partial_charge
Co0 Co 0.20388 0.21986 0.30776 0.0
Co1 Co 0.19596 0.18877 0.43287 0.0
C2 C 0.18492 0.22846 0.46844 0.0
O3 O 0.19195 0.23285 0.40206 0.0
O4 O 0.18331 0.21061 0.48961 0.0
C5 C 0.18703 0.24983 0.21118 0.0
O6 O 0.17312 0.24898 0.2634 0.0
C7 C 0.1896 0.1559 0.53941 0.0
C8 C 0.21072 0.13495 0.48821 0.0
C9 C 0.19712 0.13726 0.54614 0.0
N10 N 0.19862 0.1645 0.48017 0.0
N11 N 0.21144 0.15207 0.45069 0.0
C12 C 0.17286 0.16452 0.58342 0.0
H13 H 0.16955 0.17951 0.56301 0.0
H14 H 0.15975 0.15511 0.57612 0.0
H15 H 0.1765 0.16487 0.64607 0.0
C16 C 0.17925 0.18973 0.21281 0.0
N17 N 0.18894 0.19617 0.27731 0.0
N18 N 0.18494 0.18404 0.3337 0.0
C19 C 0.17258 0.16992 0.30808 0.0
C20 C 0.16839 0.17279 0.23015 0.0
C21 C 0.17955 0.20009 0.13687 0.0
H22 H 0.19438 0.20601 0.1258 0.0
H23 H 0.16919 0.21256 0.13923 0.0
H24 H 0.17508 0.19014 0.08904 0.0
O25 O 0.23263 0.21666 0.34748 0.0
O26 O 0.22323 0.19637 0.43821 0.0
H27 H 0.17602 0.14281 0.36744 0.0
H28 H 0.15167 0.14686 0.33109 0.0
C29 C 0.16456 0.15403 0.35816 0.0
H30 H 0.1604 0.16016 0.41535 0.0
H31 H 0.22019 0.15507 0.40272 0.0
O32 O 0.20205 0.23894 0.21914 0.0
C33 C 0.23649 0.20662 0.40815 0.0
Co34 Co 0.06915 0.94849 0.5759 0.0
Co35 Co 0.10051 0.94159 0.70135 0.0
C36 C 0.06166 0.92926 0.73738 0.0
O37 O 0.05695 0.93656 0.67173 0.0
O38 O 0.07961 0.92752 0.75724 0.0
C39 C 0.03776 0.93139 0.48469 0.0
O40 O 0.03877 0.91788 0.53834 0.0
C41 C 0.1328 0.93659 0.81175 0.0
C42 C 0.15373 0.95793 0.76223 0.0
C43 C 0.15125 0.94461 0.82114 0.0
N44 N 0.12461 0.94503 0.75014 0.0
N45 N 0.13701 0.95794 0.72144 0.0
C46 C 0.12375 0.92009 0.8557 0.0
H47 H 0.11307 0.91214 0.81872 0.0
H48 H 0.13511 0.90983 0.87691 0.0
H49 H 0.11582 0.92612 0.90642 0.0
C50 C 0.09966 0.92428 0.48129 0.0
N51 N 0.09309 0.93412 0.54517 0.0
N52 N 0.10571 0.9312 0.60118 0.0
C53 C 0.12048 0.91969 0.57564 0.0
C54 C 0.11751 0.91482 0.49803 0.0
C55 C 0.08886 0.9235 0.40608 0.0
H56 H 0.08153 0.9377 0.39518 0.0
H57 H 0.0774 0.91203 0.40947 0.0
H58 H 0.09888 0.91987 0.35763 0.0
O59 O 0.07193 0.97751 0.61463 0.0
O60 O 0.09099 0.96826 0.70982 0.0
H61 H 0.14764 0.92345 0.63522 0.0
H62 H 0.14333 0.89879 0.60173 0.0
C63 C 0.13633 0.91198 0.62702 0.0
H64 H 0.13022 0.90828 0.6845 0.0
H65 H 0.1342 0.96642 0.67263 0.0
O66 O 0.04934 0.94603 0.48887 0.0
C67 C 0.08058 0.98131 0.67902 0.0
Co68 Co 0.33915 0.81909 0.81201 0.0
Co69 Co 0.3326 0.8545 0.91038 0.0
C70 C 0.34917 0.81505 0.96941 0.0
O71 O 0.35361 0.80898 0.90177 0.0
O72 O 0.34065 0.83157 0.97908 0.0
C73 C 0.35518 0.78727 0.71912 0.0
O74 O 0.36889 0.78746 0.77246 0.0
C75 C 0.34216 0.88395 0.02286 0.0
C76 C 0.31945 0.9064 1.0017 0.0
C77 C 0.33593 0.90231 0.04495 0.0
N78 N 0.32993 0.87737 0.96852 0.0
N79 N 0.31617 0.89062 0.95672 0.0
C80 C 0.35982 0.873 0.05007 0.0
H81 H 0.36607 0.86428 1.00174 0.0
H82 H 0.37108 0.88297 0.07445 0.0
H83 H 0.3553 0.86266 0.09604 0.0
C84 C 0.36524 0.84924 0.7239 0.0
N85 N 0.35218 0.84388 0.77963 0.0
N86 N 0.3496 0.85896 0.82566 0.0
C87 C 0.36039 0.87432 0.80055 0.0
C88 C 0.37094 0.86889 0.73477 0.0
C89 C 0.37236 0.83572 0.66193 0.0
H90 H 0.35976 0.82797 0.63524 0.0
H91 H 0.38201 0.82453 0.68835 0.0
H92 H 0.38062 0.84374 0.61682 0.0
O93 O 0.31113 0.81857 0.86645 0.0
O94 O 0.3061 0.84984 0.87487 0.0
H95 H 0.34647 0.89957 0.84907 0.0
H96 H 0.37054 0.90437 0.81014 0.0
C97 C 0.36142 0.89362 0.84158 0.0
H98 H 0.3679 0.89146 0.89972 0.0
H99 H 0.30504 0.88924 0.91565 0.0
O100 O 0.34102 0.79935 0.7247 0.0
C101 C 0.30015 0.83272 0.88834 0.0
Co102 Co 0.47312 0.0888 0.06316 0.0
Co103 Co 0.43666 0.08314 0.15437 0.0
C104 C 0.47551 0.10017 0.21952 0.0
O105 O 0.48225 0.10413 0.15258 0.0
O106 O 0.4589 0.09168 0.22697 0.0
C107 C 0.50364 0.1044 0.96372 0.0
O108 O 0.4988 0.1211 0.99622 0.0
C109 C 0.40515 0.09344 0.25684 0.0
C110 C 0.38433 0.069 0.23793 0.0
C111 C 0.38694 0.08648 0.27668 0.0
N112 N 0.41309 0.0807 0.20753 0.0
N113 N 0.40076 0.06598 0.19691 0.0
C114 C 0.41476 0.11202 0.28294 0.0
H115 H 0.42787 0.11516 0.24736 0.0
H116 H 0.4044 0.12445 0.27919 0.0
H117 H 0.41919 0.11053 0.34448 0.0
C118 C 0.44377 0.1142 0.96465 0.0
N119 N 0.44873 0.10162 0.0228 0.0
N120 N 0.43321 0.09935 0.06648 0.0
C121 C 0.41806 0.10984 0.03756 0.0
C122 C 0.42408 0.11997 0.97197 0.0
C123 C 0.45747 0.12075 0.90268 0.0
H124 H 0.46742 0.10863 0.88632 0.0
H125 H 0.46634 0.13315 0.92489 0.0
H126 H 0.44928 0.12578 0.8509 0.0
O127 O 0.47269 0.0614 0.12089 0.0
O128 O 0.44138 0.05632 0.1236 0.0
H129 H 0.38755 0.1187 0.03776 0.0
H130 H 0.39957 0.11898 0.13011 0.0
C131 C 0.39832 0.11095 0.07452 0.0
H132 H 0.39288 0.096 0.08656 0.0
H133 H 0.40328 0.05419 0.15976 0.0
O134 O 0.49461 0.08885 0.9831 0.0
C135 C 0.45833 0.05049 0.14037 0.0
Co136 Co 0.20263 0.81556 0.2198 0.0
Co137 Co 0.20712 0.852 0.12672 0.0
C138 C 0.18957 0.81342 0.06401 0.0
O139 O 0.18668 0.80669 0.13176 0.0
O140 O 0.19812 0.82993 0.05418 0.0
C141 C 0.1866 0.78506 0.3184 0.0
O142 O 0.16993 0.79071 0.28797 0.0
C143 C 0.19765 0.88363 0.02221 0.0
C144 C 0.22048 0.90539 0.0525 0.0
C145 C 0.20424 0.90225 1.00663 0.0
N146 N 0.20951 0.8759 0.07529 0.0
N147 N 0.22333 0.88879 0.0924 0.0
C148 C 0.17967 0.87382 0.9912 0.0
H149 H 0.17528 0.86151 0.02901 0.0
H150 H 0.16747 0.88443 0.98619 0.0
H151 H 0.18281 0.86805 0.93239 0.0
C152 C 0.17767 0.84494 0.32091 0.0
N153 N 0.18986 0.83993 0.26129 0.0
N154 N 0.19123 0.85522 0.21584 0.0
C155 C 0.1804 0.87017 0.24448 0.0
C156 C 0.17116 0.86437 0.31243 0.0
C157 C 0.17212 0.83151 0.38521 0.0
H158 H 0.18434 0.82139 0.39831 0.0
H159 H 0.15917 0.82282 0.36729 0.0
H160 H 0.1682 0.83997 0.43796 0.0
O161 O 0.2299 0.81591 0.15967 0.0
O162 O 0.2341 0.84732 0.15595 0.0
H163 H 0.1924 0.89643 0.19727 0.0
H164 H 0.16816 0.89943 0.23709 0.0
C165 C 0.17792 0.8894 0.20468 0.0
H166 H 0.17149 0.88683 0.14666 0.0
H167 H 0.23425 0.88655 0.13369 0.0
O168 O 0.20234 0.79377 0.29884 0.0
C169 C 0.24037 0.83051 0.13909 0.0
Co170 Co 0.47266 0.95425 0.47179 0.0
Co171 Co 0.44036 0.94611 0.35018 0.0
C172 C 0.47947 0.93386 0.31258 0.0
O173 O 0.48454 0.94129 0.37775 0.0
O174 O 0.46146 0.93257 0.29324 0.0
C175 C 0.50037 0.93718 0.57917 0.0
O176 O 0.49288 0.9208 0.55236 0.0
C177 C 0.40774 0.93806 0.24362 0.0
C178 C 0.38635 0.95956 0.28931 0.0
C179 C 0.38892 0.94511 0.23424 0.0
N180 N 0.41596 0.94794 0.30218 0.0
N181 N 0.40325 0.96092 0.32852 0.0
C182 C 0.41721 0.92126 0.20248 0.0
H183 H 0.42937 0.91523 0.23758 0.0
H184 H 0.40633 0.90959 0.19 0.0
H185 H 0.42323 0.92645 0.14662 0.0
C186 C 0.44224 0.93036 0.5714 0.0
N187 N 0.44879 0.93972 0.50644 0.0
N188 N 0.43616 0.93604 0.45087 0.0
C189 C 0.4217 0.92433 0.47728 0.0
C190 C 0.42465 0.92028 0.55524 0.0
C191 C 0.45244 0.9309 0.6479 0.0
H192 H 0.46219 0.94384 0.65196 0.0
H193 H 0.46132 0.91743 0.6543 0.0
H194 H 0.4416 0.93119 0.69562 0.0
O195 O 0.46957 0.98274 0.42914 0.0
O196 O 0.44814 0.97329 0.34191 0.0
H197 H 0.39947 0.9025 0.45321 0.0
H198 H 0.41255 0.9114 0.36992 0.0
C199 C 0.40617 0.91561 0.42646 0.0
H200 H 0.39456 0.92662 0.41625 0.0
H201 H 0.40603 0.97043 0.3747 0.0
O202 O 0.49377 0.95342 0.55412 0.0
C203 C 0.45902 0.9865 0.36961 0.0
Co204 Co 0.3384 0.22106 0.71166 0.0
Co205 Co 0.34563 0.18941 0.58635 0.0
C206 C 0.35646 0.22912 0.54944 0.0
O207 O 0.34987 0.23356 0.6165 0.0
O208 O 0.35803 0.21122 0.5283 0.0
C209 C 0.35498 0.25262 0.80235 0.0
O210 O 0.36855 0.2515 0.74882 0.0
C211 C 0.3519 0.15697 0.47703 0.0
C212 C 0.3307 0.13578 0.52579 0.0
C213 C 0.34432 0.13832 0.46788 0.0
N214 N 0.34306 0.16515 0.53794 0.0
N215 N 0.33028 0.15255 0.56625 0.0
C216 C 0.36836 0.16626 0.4336 0.0
H217 H 0.37472 0.17854 0.46745 0.0
H218 H 0.37986 0.15529 0.42047 0.0
H219 H 0.36271 0.17204 0.37796 0.0
C220 C 0.36345 0.19125 0.80547 0.0
N221 N 0.35345 0.19748 0.74162 0.0
N222 N 0.35667 0.18486 0.68571 0.0
C223 C 0.36854 0.17041 0.71133 0.0
C224 C 0.3734 0.17364 0.78873 0.0
C225 C 0.36362 0.20202 0.88092 0.0
H226 H 0.34908 0.20869 0.89165 0.0
H227 H 0.37454 0.214 0.87798 0.0
H228 H 0.36759 0.19213 0.92928 0.0
O229 O 0.30952 0.21758 0.67313 0.0
O230 O 0.31835 0.1968 0.5824 0.0
H231 H 0.36521 0.14284 0.65413 0.0
H232 H 0.3899 0.14799 0.68494 0.0
C233 C 0.3764 0.15449 0.6604 0.0
H234 H 0.37967 0.16041 0.60222 0.0
H235 H 0.32156 0.15531 0.61455 0.0
O236 O 0.34042 0.24094 0.79859 0.0
C237 C 0.30531 0.20725 0.61317 0.0
Co238 Co 0.06796 0.08567 0.97387 0.0
Co239 Co 0.09794 0.09277 0.84509 0.0
C240 C 0.05934 0.1052 0.8129 0.0
O241 O 0.05513 0.09753 0.87838 0.0
O242 O 0.07711 0.10717 0.79151 0.0
C243 C 0.03768 0.10336 0.06738 0.0
O244 O 0.0394 0.1172 1.01535 0.0
C245 C 0.13009 0.09752 0.73459 0.0
C246 C 0.15071 0.0758 0.78363 0.0
C247 C 0.14845 0.08942 0.72567 0.0
N248 N 0.12171 0.08893 0.79531 0.0
N249 N 0.1339 0.07574 0.82347 0.0
C250 C 0.12155 0.11442 0.69139 0.0
H251 H 0.10852 0.12029 0.72166 0.0
H252 H 0.13265 0.12616 0.68487 0.0
H253 H 0.11722 0.10948 0.63252 0.0
C254 C 0.09916 0.10993 0.06526 0.0
N255 N 0.09204 0.10007 1.00229 0.0
N256 N 0.10391 0.10333 0.94435 0.0
C257 C 0.11858 0.11534 0.96724 0.0
C258 C 0.11656 0.11993 0.04575 0.0
C259 C 0.08925 0.1102 0.14226 0.0
H260 H 0.08111 0.09636 0.15125 0.0
H261 H 0.07863 0.12246 0.14366 0.0
H262 H 0.10005 0.11242 0.18957 0.0
O263 O 0.07086 0.05666 0.93694 0.0
O264 O 0.08811 0.06612 0.83681 0.0
H265 H 0.14477 0.11369 0.90012 0.0
H266 H 0.13917 0.138 0.93508 0.0
C267 C 0.13281 0.12425 0.91179 0.0
H268 H 0.12537 0.1274 0.85616 0.0
H269 H 0.13094 0.06712 0.87185 0.0
O270 O 0.04855 0.08824 0.06175 0.0
C271 C 0.07841 0.05301 0.87051 0.0
Co272 Co 0.83961 0.81602 0.71653 0.0
Co273 Co 0.83423 0.85232 0.62264 0.0
C274 C 0.85094 0.81298 0.56023 0.0
O275 O 0.85469 0.80636 0.62765 0.0
O276 O 0.84273 0.82971 0.55156 0.0
C277 C 0.84605 0.77844 0.79653 0.0
O278 O 0.8509 0.77174 0.72784 0.0
C279 C 0.84417 0.884 0.51986 0.0
C280 C 0.81994 0.90483 0.54139 0.0
C281 C 0.83717 0.90228 0.50134 0.0
N282 N 0.83164 0.8759 0.56931 0.0
N283 N 0.81704 0.88825 0.58139 0.0
C284 C 0.86287 0.87472 0.49396 0.0
H285 H 0.86134 0.87011 0.43257 0.0
H286 H 0.86631 0.86174 0.52986 0.0
H287 H 0.87508 0.88539 0.49728 0.0
C288 C 0.86548 0.84504 0.81182 0.0
N289 N 0.85266 0.8404 0.75393 0.0
N290 N 0.85048 0.85594 0.71055 0.0
C291 C 0.86119 0.87094 0.73998 0.0
C292 C 0.87138 0.86473 0.80541 0.0
C293 C 0.87188 0.83091 0.87251 0.0
H294 H 0.85985 0.82909 0.91483 0.0
H295 H 0.87479 0.81641 0.84576 0.0
H296 H 0.88506 0.83622 0.90372 0.0
O297 O 0.81212 0.81616 0.65864 0.0
O298 O 0.80748 0.84753 0.65356 0.0
H299 H 0.84767 0.89621 0.69042 0.0
H300 H 0.8703 0.90137 0.74088 0.0
C301 C 0.86253 0.89068 0.70343 0.0
H302 H 0.87068 0.88931 0.64834 0.0
H303 H 0.80547 0.88568 0.61926 0.0
O304 O 0.84039 0.79616 0.80302 0.0
C305 C 0.80146 0.83056 0.6374 0.0
Co306 Co 0.97038 0.0862 0.47339 0.0
Co307 Co 0.94004 0.09321 0.34553 0.0
C308 C 0.97879 0.10546 0.31222 0.0
O309 O 0.98311 0.09792 0.37787 0.0
O310 O 0.96096 0.1075 0.29125 0.0
C311 C 1.00054 0.10386 0.56748 0.0
O312 O 0.99876 0.11781 0.51591 0.0
C313 C 0.90678 0.09952 0.24133 0.0
C314 C 0.88807 0.07469 0.27762 0.0
C315 C 0.88893 0.09062 0.22931 0.0
N316 N 0.91631 0.08921 0.29484 0.0
N317 N 0.90523 0.07424 0.31542 0.0
C318 C 0.91404 0.11809 0.20601 0.0
H319 H 0.92867 0.12204 0.22909 0.0
H320 H 0.90358 0.13011 0.21815 0.0
H321 H 0.9148 0.11628 0.14219 0.0
C322 C 0.93981 0.11054 0.5659 0.0
N323 N 0.94644 0.10063 0.50237 0.0
N324 N 0.93418 0.10385 0.44537 0.0
C325 C 0.91964 0.11583 0.47003 0.0
C326 C 0.92246 0.12064 0.54769 0.0
C327 C 0.95053 0.11146 0.64128 0.0
H328 H 0.95747 0.09714 0.65356 0.0
H329 H 0.96226 0.12262 0.63722 0.0
H330 H 0.94052 0.11562 0.68913 0.0
O331 O 0.96756 0.05721 0.43694 0.0
O332 O 0.95009 0.0666 0.33712 0.0
H333 H 0.89416 0.11095 0.40092 0.0
H334 H 0.89457 0.13446 0.44876 0.0
C335 C 0.90366 0.12331 0.41893 0.0
H336 H 0.91016 0.12979 0.36622 0.0
H337 H 0.90916 0.06406 0.3576 0.0
O338 O 0.98977 0.08867 0.56114 0.0
C339 C 0.95997 0.05354 0.3705 0.0
Co340 Co 0.69775 0.21938 0.20929 0.0
Co341 Co 0.70108 0.18384 0.10452 0.0
C342 C 0.68596 0.22385 0.05003 0.0
O343 O 0.6839 0.2303 0.11899 0.0
O344 O 0.69262 0.20664 0.03726 0.0
C345 C 0.682 0.25154 0.30139 0.0
O346 O 0.66826 0.25112 0.2482 0.0
C347 C 0.69095 0.15296 0.9955 0.0
C348 C 0.71491 0.13183 0.01692 0.0
C349 C 0.698 0.13477 0.97497 0.0
N350 N 0.70313 0.16054 0.04817 0.0
N351 N 0.71758 0.14803 0.06 0.0
C352 C 0.67283 0.16283 0.96674 0.0
H353 H 0.66961 0.1761 1.00163 0.0
H354 H 0.66018 0.15269 0.96897 0.0
H355 H 0.67495 0.16703 0.90534 0.0
C356 C 0.67249 0.18923 0.30184 0.0
N357 N 0.68441 0.1947 0.24235 0.0
N358 N 0.68544 0.17993 0.19374 0.0
C359 C 0.67458 0.16478 0.22021 0.0
C360 C 0.66583 0.16987 0.29045 0.0
C361 C 0.66741 0.20234 0.36825 0.0
H362 H 0.68073 0.21004 0.38898 0.0
H363 H 0.65689 0.21358 0.34813 0.0
H364 H 0.66075 0.19398 0.41644 0.0
O365 O 0.72566 0.21914 0.15567 0.0
O366 O 0.72831 0.1879 0.13155 0.0
H367 H 0.6857 0.13876 0.16681 0.0
H368 H 0.66124 0.13609 0.20535 0.0
C369 C 0.67146 0.14617 0.17582 0.0
H370 H 0.66518 0.14968 0.11849 0.0
H371 H 0.72895 0.15025 0.09942 0.0
O372 O 0.69613 0.23938 0.29647 0.0
C373 C 0.73545 0.20487 0.12703 0.0
Co374 Co 0.56808 0.94907 0.96998 0.0
Co375 Co 0.60253 0.95293 0.86608 0.0
C376 C 0.56215 0.93771 0.8132 0.0
O377 O 0.55666 0.93448 0.88243 0.0
O378 O 0.5788 0.94555 0.79962 0.0
C379 C 0.53703 0.93311 0.06357 0.0
O380 O 0.53799 0.91903 1.01181 0.0
C381 C 0.62788 0.95112 0.73288 0.0
C382 C 0.65661 0.9573 0.78628 0.0
C383 C 0.64775 0.95189 0.71716 0.0
N384 N 0.62539 0.95483 0.80813 0.0
N385 N 0.64244 0.95945 0.83917 0.0
C386 C 0.61128 0.94868 0.67697 0.0
H387 H 0.59996 0.95991 0.68897 0.0
H388 H 0.60447 0.93409 0.68502 0.0
H389 H 0.61624 0.9503 0.6162 0.0
C390 C 0.59797 0.92233 0.0579 0.0
N391 N 0.59255 0.93498 1.00069 0.0
N392 N 0.60678 0.93555 0.94992 0.0
C393 C 0.62139 0.92337 0.97218 0.0
C394 C 0.61663 0.91453 0.04209 0.0
C395 C 0.58537 0.91738 0.12556 0.0
H396 H 0.57831 0.93083 0.1483 0.0
H397 H 0.57363 0.90726 0.10615 0.0
H398 H 0.59399 0.91021 0.17196 0.0
O399 O 0.56812 0.97683 0.91287 0.0
O400 O 0.59949 0.97963 0.90304 0.0
H401 H 0.65088 0.92969 0.94041 0.0
H402 H 0.64489 0.90417 0.93814 0.0
C403 C 0.63925 0.91902 0.92527 0.0
H404 H 0.63592 0.92003 0.86259 0.0
H405 H 0.64446 0.96321 0.89724 0.0
O406 O 0.5486 0.94771 0.05765 0.0
C407 C 0.58284 0.98661 0.88858 0.0
Co408 Co 0.83451 0.22043 0.80849 0.0
Co409 Co 0.84271 0.18951 0.93345 0.0
C410 C 0.85368 0.22879 0.97028 0.0
O411 O 0.84636 0.23296 0.90414 0.0
O412 O 0.85572 0.21098 0.9912 0.0
C413 C 0.85226 0.25111 0.71945 0.0
O414 O 0.86591 0.24899 0.77232 0.0
C415 C 0.84828 0.15712 0.042 0.0
C416 C 0.8269 0.13615 0.9919 0.0
C417 C 0.84043 0.1386 0.05044 0.0
N418 N 0.83962 0.16536 0.98104 0.0
N419 N 0.82667 0.15294 0.95208 0.0
C420 C 0.86492 0.16608 0.08607 0.0
H421 H 0.87088 0.1789 0.05485 0.0
H422 H 0.87665 0.15511 0.09523 0.0
H423 H 0.85964 0.17091 0.14375 0.0
C424 C 0.85929 0.19026 0.71351 0.0
N425 N 0.84956 0.19674 0.7777 0.0
N426 N 0.85353 0.18466 0.83426 0.0
C427 C 0.86579 0.17046 0.80922 0.0
C428 C 0.87006 0.17312 0.73094 0.0
C429 C 0.85818 0.20027 0.63689 0.0
H430 H 0.84348 0.20684 0.62889 0.0
H431 H 0.86908 0.21229 0.63563 0.0
H432 H 0.86132 0.18989 0.58892 0.0
O433 O 0.80549 0.21733 0.84703 0.0
O434 O 0.81562 0.19751 0.93786 0.0
H435 H 0.86446 0.14299 0.86753 0.0
H436 H 0.88883 0.15013 0.83919 0.0
C437 C 0.87465 0.15553 0.86186 0.0
H438 H 0.87703 0.16198 0.92011 0.0
H439 H 0.81799 0.15581 0.90362 0.0
O440 O 0.83704 0.24031 0.72275 0.0
C441 C 0.80202 0.20749 0.90856 0.0
Co442 Co 0.56512 0.08523 0.56294 0.0
Co443 Co 0.601 0.0823 0.66174 0.0
C444 C 0.56202 0.09876 0.71964 0.0
O445 O 0.55547 0.10092 0.65103 0.0
O446 O 0.57872 0.09089 0.73179 0.0
C447 C 0.53528 0.10141 0.46127 0.0
O448 O 0.54151 0.1181 0.4901 0.0
C449 C 0.63143 0.09117 0.77372 0.0
C450 C 0.65427 0.06992 0.73885 0.0
C451 C 0.65021 0.08493 0.79016 0.0
N452 N 0.62469 0.08035 0.71495 0.0
N453 N 0.63821 0.06747 0.69504 0.0
C454 C 0.62083 0.10842 0.80687 0.0
H455 H 0.60926 0.11345 0.76649 0.0
H456 H 0.63115 0.12061 0.81887 0.0
H457 H 0.61387 0.10412 0.8622 0.0
C458 C 0.59507 0.10994 0.46307 0.0
N459 N 0.5896 0.09832 0.52366 0.0
N460 N 0.60431 0.09794 0.57259 0.0
C461 C 0.61922 0.10908 0.54613 0.0
C462 C 0.6142 0.11719 0.47485 0.0
C463 C 0.58242 0.11412 0.39452 0.0
H464 H 0.57227 0.10175 0.38362 0.0
H465 H 0.57375 0.12751 0.40615 0.0
H466 H 0.5915 0.11676 0.34241 0.0
O467 O 0.56568 0.05761 0.62041 0.0
O468 O 0.59717 0.05514 0.63393 0.0
H469 H 0.6462 0.12517 0.56626 0.0
H470 H 0.63348 0.1174 0.6515 0.0
C471 C 0.63745 0.11316 0.59169 0.0
H472 H 0.64648 0.09971 0.59431 0.0
H473 H 0.63671 0.05742 0.64976 0.0
O474 O 0.54351 0.08555 0.48247 0.0
C475 C 0.58048 0.04776 0.64361 0.0
Co476 Co 0.70617 0.81538 0.29982 0.0
Co477 Co 0.69748 0.84724 0.42151 0.0
C478 C 0.68635 0.80792 0.4591 0.0
O479 O 0.69359 0.80331 0.39332 0.0
O480 O 0.68461 0.82584 0.47944 0.0
C481 C 0.68947 0.78698 0.19521 0.0
O482 O 0.67313 0.794 0.22389 0.0
C483 C 0.68795 0.87973 0.52444 0.0
C484 C 0.705 0.90327 0.46782 0.0
C485 C 0.69152 0.89971 0.52551 0.0
N486 N 0.6983 0.87202 0.46655 0.0
N487 N 0.70887 0.88596 0.43432 0.0
C488 C 0.67504 0.86796 0.57646 0.0
H489 H 0.68202 0.85366 0.5888 0.0
H490 H 0.66094 0.86499 0.54676 0.0
H491 H 0.67224 0.87577 0.63177 0.0
C492 C 0.68097 0.8448 0.20045 0.0
N493 N 0.69082 0.83864 0.26505 0.0
N494 N 0.68667 0.85094 0.32116 0.0
C495 C 0.67407 0.86476 0.29548 0.0
C496 C 0.67002 0.8618 0.21746 0.0
C497 C 0.68166 0.83465 0.1238 0.0
H498 H 0.69498 0.82547 0.11927 0.0
H499 H 0.66857 0.82517 0.11767 0.0
H500 H 0.68132 0.84552 0.07624 0.0
O501 O 0.73454 0.81906 0.34373 0.0
O502 O 0.72491 0.84044 0.43087 0.0
H503 H 0.67399 0.8923 0.35462 0.0
H504 H 0.65027 0.88457 0.32141 0.0
C505 C 0.66427 0.87946 0.34686 0.0
H506 H 0.66129 0.87292 0.40418 0.0
H507 H 0.718 0.88378 0.38668 0.0
O508 O 0.70571 0.79418 0.2181 0.0
C509 C 0.73821 0.82969 0.40336 0.0
Co510 Co 0.9723 0.94951 0.07482 0.0
Co511 Co 0.94072 0.94191 0.19809 0.0
C512 C 0.97955 0.9299 0.23604 0.0
O513 O 0.98434 0.93746 0.17101 0.0
O514 O 0.96157 0.92796 0.25494 0.0
C515 C 1.00346 0.93216 0.98464 0.0
O516 O 1.00188 0.9185 0.03747 0.0
C517 C 0.90826 0.93681 0.30699 0.0
C518 C 0.88715 0.95763 0.25501 0.0
C519 C 0.88972 0.94466 0.3151 0.0
N520 N 0.91643 0.94506 0.24501 0.0
N521 N 0.90391 0.95764 0.2148 0.0
C522 C 0.91747 0.92067 0.35254 0.0
H523 H 0.92812 0.91255 0.31623 0.0
H524 H 0.90621 0.91047 0.37492 0.0
H525 H 0.92548 0.92708 0.4025 0.0
C526 C 0.94237 0.92524 0.97755 0.0
N527 N 0.94862 0.93496 0.04228 0.0
N528 N 0.93595 0.93161 0.09749 0.0
C529 C 0.92149 0.91985 0.07069 0.0
C530 C 0.92472 0.91525 0.99304 0.0
C531 C 0.95317 0.92537 0.90245 0.0
H532 H 0.96005 0.93989 0.89336 0.0
H533 H 0.965 0.91429 0.90465 0.0
H534 H 0.94325 0.92181 0.8534 0.0
O535 O 0.96905 0.97846 0.11373 0.0
O536 O 0.9499 0.96871 0.20759 0.0
H537 H 0.8937 0.92261 0.12585 0.0
H538 H 0.89956 0.89797 0.09638 0.0
C539 C 0.90565 0.91171 0.12089 0.0
H540 H 0.91146 0.90879 0.17967 0.0
H541 H 0.90671 0.96593 0.16549 0.0
O542 O 0.99231 0.94712 0.98892 0.0
C543 C 0.96017 0.982 0.17767 0.0
Co544 Co 0.70057 0.71951 0.80651 0.0
Co545 Co 0.70609 0.68484 0.90832 0.0
C546 C 0.68977 0.72473 0.96313 0.0
O547 O 0.68591 0.73024 0.89436 0.0
O548 O 0.69827 0.70832 0.97569 0.0
C549 C 0.6855 0.75131 0.71168 0.0
O550 O 0.67194 0.75229 0.76529 0.0
C551 C 0.69789 0.65639 0.02563 0.0
C552 C 0.71283 0.63028 0.97791 0.0
C553 C 0.69982 0.63636 0.03423 0.0
N554 N 0.70842 0.66169 0.96442 0.0
N555 N 0.71798 0.64628 0.93785 0.0
C556 C 0.68525 0.67022 0.07064 0.0
H557 H 0.6939 0.68336 0.08667 0.0
H558 H 0.67289 0.6751 0.03374 0.0
H559 H 0.6796 0.66341 0.12431 0.0
C560 C 0.67419 0.68942 0.71843 0.0
N561 N 0.68723 0.69485 0.77456 0.0
N562 N 0.68885 0.68031 0.82334 0.0
C563 C 0.6771 0.66535 0.8005 0.0
C564 C 0.66733 0.67028 0.73228 0.0
C565 C 0.66805 0.70246 0.6536 0.0
H566 H 0.68099 0.71023 0.6302 0.0
H567 H 0.65776 0.71363 0.67627 0.0
H568 H 0.66074 0.69403 0.60671 0.0
O569 O 0.72837 0.71993 0.86226 0.0
O570 O 0.73277 0.68865 0.87394 0.0
H571 H 0.68673 0.63768 0.84298 0.0
H572 H 0.66067 0.63908 0.82725 0.0
C573 C 0.67374 0.6473 0.84727 0.0
H574 H 0.67157 0.65142 0.9086 0.0
H575 H 0.72674 0.64639 0.88846 0.0
O576 O 0.69921 0.73878 0.71864 0.0
C577 C 0.73908 0.70575 0.88539 0.0
Co578 Co 0.56927 0.45122 0.05158 0.0
Co579 Co 0.59698 0.44197 0.18528 0.0
C580 C 0.55767 0.4328 0.21201 0.0
O581 O 0.5549 0.4407 0.14579 0.0
O582 O 0.57492 0.42889 0.23572 0.0
C583 C 0.5386 0.43487 0.95686 0.0
O584 O 0.5397 0.4211 1.00945 0.0
C585 C 0.62224 0.44472 0.31832 0.0
C586 C 0.65076 0.44993 0.26239 0.0
C587 C 0.64191 0.44814 0.33422 0.0
N588 N 0.62 0.44387 0.24157 0.0
N589 N 0.63689 0.44777 0.20822 0.0
C590 C 0.6053 0.44473 0.37317 0.0
H591 H 0.59273 0.45252 0.34676 0.0
H592 H 0.60059 0.42944 0.38377 0.0
H593 H 0.60922 0.45191 0.42885 0.0
C594 C 0.59991 0.42518 0.96501 0.0
N595 N 0.59265 0.43526 0.02705 0.0
N596 N 0.6033 0.43073 0.08751 0.0
C597 C 0.61707 0.41744 0.06731 0.0
C598 C 0.61602 0.4136 0.98794 0.0
C599 C 0.59122 0.42608 0.88569 0.0
H600 H 0.58386 0.44036 0.87677 0.0
H601 H 0.58012 0.41431 0.87961 0.0
H602 H 0.60264 0.42378 0.84101 0.0
O603 O 0.57344 0.47999 0.08915 0.0
O604 O 0.5888 0.46921 0.19219 0.0
H605 H 0.64339 0.4134 0.13313 0.0
H606 H 0.63148 0.39107 0.10497 0.0
C607 C 0.62896 0.40629 0.12522 0.0
H608 H 0.62143 0.40606 0.18207 0.0
H609 H 0.63891 0.44904 0.14876 0.0
O610 O 0.55018 0.44949 0.96207 0.0
C611 C 0.58037 0.48299 0.15725 0.0
Co612 Co 0.83797 0.31857 0.31435 0.0
Co613 Co 0.84478 0.34905 0.44317 0.0
C614 C 0.85677 0.31026 0.4769 0.0
O615 O 0.84951 0.30595 0.41045 0.0
O616 O 0.85878 0.32809 0.49843 0.0
C617 C 0.85371 0.28666 0.22072 0.0
O618 O 0.86652 0.28542 0.27726 0.0
C619 C 0.84976 0.38265 0.54815 0.0
C620 C 0.82583 0.40139 0.50348 0.0
C621 C 0.8408 0.4006 0.55679 0.0
N622 N 0.84036 0.37299 0.492 0.0
N623 N 0.8259 0.38409 0.46644 0.0
C624 C 0.86785 0.3756 0.58798 0.0
H625 H 0.87214 0.36093 0.56634 0.0
H626 H 0.87995 0.38613 0.5782 0.0
H627 H 0.86522 0.37501 0.65131 0.0
C628 C 0.86247 0.34921 0.22383 0.0
N629 N 0.85251 0.34249 0.28677 0.0
N630 N 0.85569 0.35468 0.34422 0.0
C631 C 0.86769 0.36926 0.32051 0.0
C632 C 0.87262 0.36651 0.24311 0.0
C633 C 0.86302 0.33881 0.14765 0.0
H634 H 0.84818 0.33342 0.13258 0.0
H635 H 0.87278 0.32591 0.15251 0.0
H636 H 0.86859 0.34853 0.10131 0.0
O637 O 0.80899 0.32134 0.34988 0.0
O638 O 0.81829 0.33885 0.45015 0.0
H639 H 0.86235 0.39536 0.38494 0.0
H640 H 0.88659 0.39405 0.34433 0.0
C641 C 0.87475 0.38545 0.37191 0.0
H642 H 0.88013 0.37927 0.42721 0.0
H643 H 0.81648 0.38008 0.42141 0.0
O644 O 0.84016 0.29943 0.22527 0.0
C645 C 0.80529 0.32892 0.41623 0.0
Co646 Co 0.97003 0.58731 0.5664 0.0
Co647 Co 0.93812 0.59572 0.68913 0.0
C648 C 0.9776 0.60682 0.72704 0.0
O649 O 0.98209 0.59969 0.66088 0.0
O650 O 0.9597 0.60863 0.74727 0.0
C651 C 0.99893 0.60345 0.46052 0.0
O652 O 0.99205 0.62024 0.48564 0.0
C653 C 0.90427 0.6042 0.78962 0.0
C654 C 0.88432 0.58094 0.74672 0.0
C655 C 0.88576 0.59644 0.79753 0.0
N656 N 0.9136 0.59365 0.7359 0.0
N657 N 0.90171 0.57966 0.71125 0.0
C658 C 0.91245 0.62191 0.82925 0.0
H659 H 0.92776 0.62459 0.81116 0.0
H660 H 0.90336 0.63485 0.81512 0.0
H661 H 0.9118 0.61985 0.8929 0.0
C662 C 0.94005 0.61177 0.46748 0.0
N663 N 0.9465 0.60229 0.53237 0.0
N664 N 0.93395 0.60601 0.58796 0.0
C665 C 0.91953 0.61777 0.56123 0.0
C666 C 0.92254 0.62193 0.48344 0.0
C667 C 0.95033 0.61129 0.39132 0.0
H668 H 0.95971 0.59811 0.38684 0.0
H669 H 0.95965 0.62451 0.38627 0.0
H670 H 0.93956 0.61152 0.34315 0.0
O671 O 0.96639 0.55893 0.60842 0.0
O672 O 0.94552 0.56841 0.69742 0.0
H673 H 0.89266 0.61478 0.62267 0.0
H674 H 0.89651 0.63886 0.58333 0.0
C675 C 0.90378 0.62621 0.61121 0.0
H676 H 0.91015 0.63104 0.66709 0.0
H677 H 0.90527 0.56962 0.66784 0.0
O678 O 0.99128 0.5876 0.48493 0.0
C679 C 0.95608 0.55519 0.66845 0.0
Co680 Co 0.70304 0.31484 0.71579 0.0
Co681 Co 0.69467 0.34754 0.59788 0.0
C682 C 0.68281 0.309 0.55387 0.0
O683 O 0.69058 0.30377 0.6181 0.0
O684 O 0.6808 0.32712 0.53721 0.0
C685 C 0.69037 0.27906 0.79313 0.0
O686 O 0.6802 0.27653 0.72932 0.0
C687 C 0.68533 0.38244 0.50932 0.0
C688 C 0.70522 0.40357 0.56759 0.0
C689 C 0.68987 0.40214 0.51595 0.0
N690 N 0.69691 0.37273 0.55793 0.0
N691 N 0.70919 0.38526 0.59069 0.0
C692 C 0.67002 0.37296 0.45951 0.0
H693 H 0.6751 0.35831 0.44032 0.0
H694 H 0.65639 0.37089 0.49304 0.0
H695 H 0.66671 0.38213 0.40825 0.0
C696 C 0.67873 0.34337 0.81883 0.0
N697 N 0.68831 0.33798 0.75275 0.0
N698 N 0.68409 0.35085 0.69923 0.0
C699 C 0.67163 0.36443 0.72845 0.0
C700 C 0.66766 0.36044 0.80556 0.0
C701 C 0.67909 0.33173 0.89177 0.0
H702 H 0.6696 0.31867 0.88434 0.0
H703 H 0.67367 0.34051 0.94152 0.0
H704 H 0.69417 0.32652 0.90332 0.0
O705 O 0.73169 0.31867 0.67573 0.0
O706 O 0.72156 0.33887 0.58589 0.0
H707 H 0.6743 0.39216 0.6733 0.0
H708 H 0.6505 0.38776 0.71293 0.0
C709 C 0.663 0.38082 0.68271 0.0
H710 H 0.65795 0.37518 0.62602 0.0
H711 H 0.71938 0.38145 0.63307 0.0
O712 O 0.70138 0.29409 0.79937 0.0
C713 C 0.73497 0.32828 0.61341 0.0
Co714 Co 0.97075 0.45574 0.98036 0.0
Co715 Co 0.93871 0.44709 0.85877 0.0
C716 C 0.97763 0.43586 0.81941 0.0
O717 O 0.98235 0.44327 0.885 0.0
O718 O 0.95968 0.43395 0.79993 0.0
C719 C 1.00021 0.43953 0.08447 0.0
O720 O 0.9931 0.42274 0.06009 0.0
C721 C 0.90623 0.44153 0.75016 0.0
C722 C 0.88439 0.46105 0.8055 0.0
C723 C 0.88746 0.44883 0.74295 0.0
N724 N 0.91409 0.44941 0.81382 0.0
N725 N 0.90114 0.46124 0.84604 0.0
C726 C 0.91597 0.42617 0.70179 0.0
H727 H 0.92735 0.41848 0.73592 0.0
H728 H 0.90511 0.41544 0.67951 0.0
H729 H 0.92313 0.43326 0.65162 0.0
C730 C 0.9409 0.43091 0.07936 0.0
N731 N 0.9473 0.44062 1.01503 0.0
N732 N 0.93493 0.43667 0.95893 0.0
C733 C 0.92082 0.42439 0.98405 0.0
C734 C 0.9236 0.42033 0.06226 0.0
C735 C 0.95117 0.43141 0.15573 0.0
H736 H 0.96047 0.44467 0.16053 0.0
H737 H 0.9606 0.41828 0.16078 0.0
H738 H 0.94039 0.43106 0.20368 0.0
O739 O 0.96698 0.48421 0.93876 0.0
O740 O 0.94617 0.47424 0.85027 0.0
H741 H 0.89367 0.4248 0.92228 0.0
H742 H 0.90085 0.40084 0.95511 0.0
C743 C 0.90627 0.41484 0.93101 0.0
H744 H 0.91306 0.412 0.87382 0.0
H745 H 0.90367 0.4692 0.89688 0.0
O746 O 0.99245 0.45538 0.06058 0.0
C747 C 0.95656 0.4877 0.87863 0.0
Co748 Co 0.8358 0.7222 0.22031 0.0
Co749 Co 0.83152 0.68637 0.12217 0.0
C750 C 0.84752 0.72583 0.0633 0.0
O751 O 0.85062 0.73218 0.13178 0.0
O752 O 0.8398 0.70895 0.05217 0.0
C753 C 0.85202 0.75248 0.32082 0.0
O754 O 0.86863 0.7468 0.29014 0.0
C755 C 0.83944 0.65749 1.00483 0.0
C756 C 0.81829 0.63414 0.03443 0.0
C757 C 0.83279 0.63922 0.98269 0.0
N758 N 0.82909 0.66316 0.06624 0.0
N759 N 0.81628 0.64934 0.08332 0.0
C760 C 0.85672 0.66852 0.97451 0.0
H761 H 0.86293 0.67811 0.0204 0.0
H762 H 0.86817 0.65837 0.95316 0.0
H763 H 0.85194 0.67789 0.92575 0.0
C764 C 0.86195 0.69232 0.31476 0.0
N765 N 0.84942 0.69769 0.25673 0.0
N766 N 0.84799 0.68276 0.20896 0.0
C767 C 0.8591 0.66769 0.23434 0.0
C768 C 0.8686 0.673 0.30272 0.0
C769 C 0.86759 0.70524 0.3811 0.0
H770 H 0.85543 0.71531 0.39561 0.0
H771 H 0.88057 0.71401 0.36456 0.0
H772 H 0.87152 0.69637 0.43254 0.0
O773 O 0.80836 0.72176 0.16149 0.0
O774 O 0.8047 0.69035 0.15477 0.0
H775 H 0.84697 0.64103 0.19044 0.0
H776 H 0.87239 0.63911 0.21856 0.0
C777 C 0.86125 0.64872 0.1916 0.0
H778 H 0.86561 0.65166 0.13102 0.0
H779 H 0.80653 0.6501 0.1296 0.0
O780 O 0.83624 0.74375 0.30133 0.0
C781 C 0.79818 0.70709 0.13897 0.0
Co782 Co 0.5658 0.58302 0.47195 0.0
Co783 Co 0.59621 0.59428 0.34993 0.0
C784 C 0.55706 0.60475 0.31574 0.0
O785 O 0.55307 0.59603 0.37924 0.0
O786 O 0.57479 0.60783 0.296 0.0
C787 C 0.53814 0.59937 0.57932 0.0
O788 O 0.54576 0.61562 0.55249 0.0
C789 C 0.62547 0.59721 0.22944 0.0
C790 C 0.65209 0.58967 0.29595 0.0
C791 C 0.64562 0.59495 0.22296 0.0
N792 N 0.62062 0.59404 0.30311 0.0
N793 N 0.6364 0.58886 0.34205 0.0
C794 C 0.61061 0.60038 0.16695 0.0
H795 H 0.59727 0.59169 0.17935 0.0
H796 H 0.60629 0.61602 0.16631 0.0
H797 H 0.61645 0.5961 0.10942 0.0
C798 C 0.59536 0.60749 0.57426 0.0
N799 N 0.58881 0.59858 0.50795 0.0
N800 N 0.60025 0.60425 0.45143 0.0
C801 C 0.61365 0.6172 0.47843 0.0
C802 C 0.61147 0.61968 0.55758 0.0
C803 C 0.5863 0.60487 0.65208 0.0
H804 H 0.57716 0.59146 0.65317 0.0
H805 H 0.57699 0.61774 0.66526 0.0
H806 H 0.59785 0.6041 0.69724 0.0
O807 O 0.57047 0.55497 0.42575 0.0
O808 O 0.58914 0.56694 0.33455 0.0
H809 H 0.6422 0.62158 0.43129 0.0
H810 H 0.62908 0.64368 0.45051 0.0
C811 C 0.62753 0.62846 0.42861 0.0
H812 H 0.62237 0.6288 0.36775 0.0
H813 H 0.63648 0.58501 0.40044 0.0
O814 O 0.54466 0.58304 0.55426 0.0
C815 C 0.57965 0.55269 0.36158 0.0
Co816 Co 0.3374 0.31933 0.21145 0.0
Co817 Co 0.34463 0.35014 0.08606 0.0
C818 C 0.35661 0.31151 0.049 0.0
O819 O 0.34913 0.30697 0.11455 0.0
O820 O 0.35863 0.32941 0.02932 0.0
C821 C 0.35324 0.2867 0.30003 0.0
O822 O 0.36524 0.2853 0.24104 0.0
C823 C 0.34835 0.38232 0.97613 0.0
C824 C 0.32713 0.403 0.02854 0.0
C825 C 0.33986 0.40054 0.9675 0.0
N826 N 0.34065 0.37417 0.0391 0.0
N827 N 0.32779 0.3864 0.06953 0.0
C828 C 0.36466 0.37352 0.93003 0.0
H829 H 0.37264 0.3625 0.9649 0.0
H830 H 0.37496 0.385 0.91019 0.0
H831 H 0.35845 0.36612 0.87821 0.0
C832 C 0.3616 0.34983 0.30619 0.0
N833 N 0.35192 0.34318 0.24205 0.0
N834 N 0.35546 0.3554 0.18552 0.0
C835 C 0.36754 0.36982 0.2107 0.0
C836 C 0.37203 0.36705 0.28855 0.0
C837 C 0.36173 0.33938 0.38193 0.0
H838 H 0.34667 0.33458 0.39631 0.0
H839 H 0.37095 0.32609 0.37672 0.0
H840 H 0.36763 0.34883 0.4289 0.0
O841 O 0.30837 0.32245 0.17487 0.0
O842 O 0.31795 0.34048 0.07725 0.0
H843 H 0.36324 0.397 0.15287 0.0
H844 H 0.38793 0.39321 0.18609 0.0
C845 C 0.37495 0.38593 0.16027 0.0
H846 H 0.3787 0.38003 0.10227 0.0
H847 H 0.31979 0.38353 0.1196 0.0
O848 O 0.33992 0.2998 0.29891 0.0
C849 C 0.30478 0.33055 0.10953 0.0
Co850 Co 0.4689 0.5917 0.96456 0.0
Co851 Co 0.4349 0.58538 0.86087 0.0
C852 C 0.47538 0.60135 0.8088 0.0
O853 O 0.48047 0.60591 0.8776 0.0
O854 O 0.45898 0.59279 0.79588 0.0
C855 C 0.50005 0.6068 0.06345 0.0
O856 O 0.5013 0.62027 1.00972 0.0
C857 C 0.40717 0.59456 0.7421 0.0
C858 C 0.38564 0.57049 0.7531 0.0
C859 C 0.38977 0.58739 0.71257 0.0
N860 N 0.41308 0.58245 0.79758 0.0
N861 N 0.4004 0.56792 0.80352 0.0
C862 C 0.41714 0.61352 0.72422 0.0
H863 H 0.42726 0.61771 0.77184 0.0
H864 H 0.40621 0.6253 0.71525 0.0
H865 H 0.42576 0.61183 0.67028 0.0
C866 C 0.43821 0.61824 0.04801 0.0
N867 N 0.44403 0.60516 0.99278 0.0
N868 N 0.42943 0.60266 0.94442 0.0
C869 C 0.41385 0.61343 0.96776 0.0
C870 C 0.41871 0.62405 0.03446 0.0
C871 C 0.45112 0.6251 0.11258 0.0
H872 H 0.45852 0.61238 0.13938 0.0
H873 H 0.46261 0.63481 0.08871 0.0
H874 H 0.44268 0.63321 0.15719 0.0
O875 O 0.46945 0.56368 0.90981 0.0
O876 O 0.43821 0.55902 0.89849 0.0
H877 H 0.38968 0.599 0.91284 0.0
H878 H 0.38344 0.62221 0.95721 0.0
C879 C 0.39483 0.6141 0.92479 0.0
H880 H 0.3971 0.62147 0.86852 0.0
H881 H 0.40151 0.55659 0.84341 0.0
O882 O 0.48753 0.59307 0.05538 0.0
C883 C 0.45529 0.55277 0.88737 0.0
Co884 Co 0.20003 0.72406 0.71953 0.0
Co885 Co 0.20381 0.68728 0.62609 0.0
C886 C 0.18812 0.72627 0.56211 0.0
O887 O 0.18483 0.73327 0.62948 0.0
O888 O 0.19595 0.70938 0.55355 0.0
C889 C 0.18459 0.75461 0.8194 0.0
O890 O 0.1679 0.74922 0.78819 0.0
C891 C 0.19585 0.65648 0.5154 0.0
C892 C 0.21066 0.63138 0.57098 0.0
C893 C 0.19821 0.63637 0.51109 0.0
N894 N 0.20568 0.66289 0.57723 0.0
N895 N 0.2151 0.64803 0.60875 0.0
C896 C 0.184 0.6695 0.46397 0.0
H897 H 0.19275 0.68257 0.44864 0.0
H898 H 0.17085 0.6746 0.49572 0.0
H899 H 0.17956 0.66191 0.40982 0.0
C900 C 0.17458 0.69513 0.82052 0.0
N901 N 0.18662 0.70001 0.76036 0.0
N902 N 0.18723 0.6849 0.71327 0.0
C903 C 0.17568 0.67036 0.74029 0.0
C904 C 0.16724 0.67599 0.81019 0.0
C905 C 0.17008 0.70834 0.8872 0.0
H906 H 0.18264 0.71817 0.89919 0.0
H907 H 0.15713 0.71736 0.87255 0.0
H908 H 0.16657 0.6997 0.93965 0.0
O909 O 0.22726 0.7229 0.66075 0.0
O910 O 0.23067 0.69143 0.65755 0.0
H911 H 0.18397 0.64171 0.70283 0.0
H912 H 0.15811 0.64449 0.71887 0.0
C913 C 0.17143 0.65185 0.69676 0.0
H914 H 0.16925 0.65512 0.63463 0.0
H915 H 0.22348 0.64906 0.65914 0.0
O916 O 0.20025 0.74586 0.79912 0.0
C917 C 0.23728 0.70801 0.63979 0.0
Co918 Co 0.06566 0.45266 0.47322 0.0
Co919 Co 0.10195 0.45802 0.37953 0.0
C920 C 0.06237 0.4416 0.31656 0.0
O921 O 0.05575 0.43809 0.38392 0.0
O922 O 0.07916 0.4497 0.30777 0.0
C923 C 0.03301 0.43765 0.56299 0.0
O924 O 0.03186 0.42466 0.50692 0.0
C925 C 0.13191 0.44602 0.2745 0.0
C926 C 0.15754 0.46219 0.32049 0.0
C927 C 0.15211 0.44709 0.27144 0.0
N928 N 0.12582 0.45895 0.32709 0.0
N929 N 0.141 0.46917 0.35222 0.0
C930 C 0.11837 0.43272 0.23072 0.0
H931 H 0.1064 0.44151 0.20499 0.0
H932 H 0.11156 0.42219 0.27132 0.0
H933 H 0.12603 0.42479 0.18356 0.0
C934 C 0.09381 0.42564 0.56581 0.0
N935 N 0.08955 0.43909 0.51 0.0
N936 N 0.10538 0.44189 0.46886 0.0
C937 C 0.12027 0.43119 0.4991 0.0
C938 C 0.11358 0.4201 0.56099 0.0
C939 C 0.07914 0.41789 0.6218 0.0
H940 H 0.0725 0.43025 0.65409 0.0
H941 H 0.06728 0.41038 0.58936 0.0
H942 H 0.08593 0.40751 0.66315 0.0
O943 O 0.06642 0.48099 0.42063 0.0
O944 O 0.09789 0.48504 0.40709 0.0
H945 H 0.14695 0.44621 0.47593 0.0
H946 H 0.15027 0.42081 0.50051 0.0
C947 C 0.14075 0.43131 0.46945 0.0
H948 H 0.1406 0.42736 0.40773 0.0
H949 H 0.14027 0.47972 0.39596 0.0
O950 O 0.04577 0.45123 0.55877 0.0
C951 C 0.08081 0.49172 0.3991 0.0
Co952 Co 0.3327 0.7245 0.30586 0.0
Co953 Co 0.34101 0.69172 0.42349 0.0
C954 C 0.35343 0.73085 0.46414 0.0
O955 O 0.34583 0.73624 0.39994 0.0
O956 O 0.35471 0.71274 0.48145 0.0
C957 C 0.34904 0.75345 0.2024 0.0
O958 O 0.36565 0.74654 0.22899 0.0
C959 C 0.35076 0.65892 0.52504 0.0
C960 C 0.3289 0.63736 0.48288 0.0
C961 C 0.34428 0.63994 0.53359 0.0
N962 N 0.33977 0.66729 0.47047 0.0
N963 N 0.32653 0.6545 0.44649 0.0
C964 C 0.36725 0.66883 0.56685 0.0
H965 H 0.38027 0.6694 0.52884 0.0
H966 H 0.37115 0.66084 0.62053 0.0
H967 H 0.36309 0.68407 0.58145 0.0
C968 C 0.35671 0.69502 0.20213 0.0
N969 N 0.34729 0.70095 0.26806 0.0
N970 N 0.3508 0.68779 0.32146 0.0
C971 C 0.36233 0.67344 0.2923 0.0
C972 C 0.36664 0.67722 0.21517 0.0
C973 C 0.35631 0.70604 0.12765 0.0
H974 H 0.34275 0.71486 0.12337 0.0
H975 H 0.36907 0.71604 0.12559 0.0
H976 H 0.35735 0.69581 0.07774 0.0
O977 O 0.30429 0.72088 0.34894 0.0
O978 O 0.31372 0.69902 0.43395 0.0
H979 H 0.35909 0.646 0.34966 0.0
H980 H 0.3832 0.65001 0.31071 0.0
C981 C 0.3706 0.65714 0.33967 0.0
H982 H 0.37553 0.66293 0.39629 0.0
H983 H 0.3163 0.65728 0.40292 0.0
O984 O 0.33304 0.74586 0.22544 0.0
C985 C 0.30051 0.70995 0.40714 0.0
Co986 Co 0.06652 0.59042 0.07362 0.0
Co987 Co 0.10174 0.58761 0.17654 0.0
C988 C 0.06148 0.60232 0.2308 0.0
O989 O 0.05553 0.60525 0.16178 0.0
O990 O 0.07841 0.59502 0.24382 0.0
C991 C 0.03452 0.60541 0.98008 0.0
O992 O 0.03405 0.61898 0.03408 0.0
C993 C 0.12906 0.59075 0.30498 0.0
C994 C 0.15673 0.5829 0.24672 0.0
C995 C 0.1491 0.58924 0.31669 0.0
N996 N 0.12531 0.58633 0.23102 0.0
N997 N 0.14173 0.58088 0.19719 0.0
C998 C 0.11337 0.59445 0.36362 0.0
H999 H 0.10122 0.58393 0.35457 0.0
H1000 H 0.10742 0.6094 0.35565 0.0
H1001 H 0.11898 0.59274 0.42355 0.0
C1002 C 0.09605 0.61628 0.98045 0.0
N1003 N 0.09081 0.60425 0.0399 0.0
N1004 N 0.10517 0.60428 0.09031 0.0
C1005 C 0.11965 0.61632 0.066 0.0
C1006 C 0.11477 0.62427 0.99434 0.0
C1007 C 0.08327 0.62029 0.91208 0.0
H1008 H 0.07664 0.60643 0.89115 0.0
H1009 H 0.07122 0.63015 0.93007 0.0
H1010 H 0.09164 0.62729 0.86468 0.0
O1011 O 0.06701 0.56283 0.13164 0.0
O1012 O 0.09847 0.56053 0.1437 0.0
H1013 H 0.14909 0.61125 0.1029 0.0
H1014 H 0.1425 0.63661 0.09827 0.0
C1015 C 0.13712 0.62182 0.11382 0.0
H1016 H 0.13341 0.62163 0.17626 0.0
H1017 H 0.14275 0.57649 0.13941 0.0
O1018 O 0.04684 0.59145 0.98612 0.0
C1019 C 0.08182 0.55342 0.15753 0.0
Co1020 Co 0.20257 0.31891 0.80534 0.0
Co1021 Co 0.19204 0.34738 0.93538 0.0
C1022 C 0.18312 0.30772 0.96384 0.0
O1023 O 0.19133 0.30465 0.89836 0.0
O1024 O 0.1794 0.32512 0.98655 0.0
C1025 C 0.18635 0.28839 0.71092 0.0
O1026 O 0.17231 0.2902 0.76219 0.0
C1027 C 0.19115 0.3736 0.06623 0.0
C1028 C 0.19459 0.40212 1.00785 0.0
C1029 C 0.19218 0.39363 0.07995 0.0
N1030 N 0.19197 0.37077 0.98978 0.0
N1031 N 0.19484 0.38771 0.95528 0.0
C1032 C 0.19302 0.35712 0.12267 0.0
H1033 H 0.2033 0.34601 0.09956 0.0
H1034 H 0.17867 0.3497 0.12899 0.0
H1035 H 0.19841 0.36236 0.17977 0.0
C1036 C 0.17681 0.34882 0.71344 0.0
N1037 N 0.1864 0.34194 0.7773 0.0
N1038 N 0.18108 0.3527 0.83652 0.0
C1039 C 0.1677 0.3661 0.81368 0.0
C1040 C 0.16464 0.36471 0.73417 0.0
C1041 C 0.17898 0.34014 0.63441 0.0
H1042 H 0.19396 0.33417 0.62699 0.0
H1043 H 0.16846 0.32788 0.62781 0.0
H1044 H 0.17586 0.35119 0.58917 0.0
O1045 O 0.23106 0.32352 0.84683 0.0
O1046 O 0.21965 0.34054 0.94467 0.0
H1047 H 0.16167 0.3935 0.86946 0.0
H1048 H 0.14044 0.37911 0.84846 0.0
C1049 C 0.15587 0.37836 0.86837 0.0
H1050 H 0.15632 0.37222 0.92768 0.0
H1051 H 0.19698 0.38941 0.89601 0.0
O1052 O 0.20133 0.29949 0.71667 0.0
C1053 C 0.23377 0.33171 0.91308 0.0
Co1054 Co 0.4701 0.45583 0.5559 0.0
Co1055 Co 0.43935 0.44695 0.68039 0.0
C1056 C 0.47856 0.4356 0.71525 0.0
O1057 O 0.48286 0.44332 0.64996 0.0
O1058 O 0.46073 0.43363 0.73633 0.0
C1059 C 0.49939 0.43848 0.458 0.0
O1060 O 0.49725 0.42398 0.50689 0.0
C1061 C 0.40545 0.44112 0.78293 0.0
C1062 C 0.38558 0.463 0.73031 0.0
C1063 C 0.38692 0.44904 0.78718 0.0
N1064 N 0.4149 0.4502 0.7259 0.0
N1065 N 0.40311 0.46348 0.69568 0.0
C1066 C 0.41321 0.42402 0.82703 0.0
H1067 H 0.42858 0.42088 0.81075 0.0
H1068 H 0.40401 0.41097 0.81495 0.0
H1069 H 0.41229 0.4271 0.89006 0.0
C1070 C 0.43971 0.43133 0.4591 0.0
N1071 N 0.44641 0.44088 0.52372 0.0
N1072 N 0.43462 0.43648 0.58069 0.0
C1073 C 0.42053 0.42407 0.55579 0.0
C1074 C 0.42271 0.42039 0.4767 0.0
C1075 C 0.44964 0.43223 0.38223 0.0
H1076 H 0.45724 0.44646 0.37554 0.0
H1077 H 0.46071 0.4204 0.3789 0.0
H1078 H 0.43893 0.43009 0.33454 0.0
O1079 O 0.46709 0.48469 0.59719 0.0
O1080 O 0.44753 0.47396 0.68758 0.0
H1081 H 0.39422 0.42395 0.622 0.0
H1082 H 0.40102 0.40019 0.58459 0.0
C1083 C 0.40667 0.41406 0.60966 0.0
H1084 H 0.41417 0.41088 0.66514 0.0
H1085 H 0.40684 0.4724 0.64908 0.0
O1086 O 0.48947 0.45408 0.46838 0.0
C1087 C 0.4574 0.48777 0.65951 0.0
C1088 C 0.16154 0.09844 0.59836 0.0
C1089 C 0.16401 0.09751 0.67877 0.0
C1090 C 0.17369 0.11029 0.55406 0.0
C1091 C 0.1883 0.12156 0.58975 0.0
H1092 H 0.14947 0.0909 0.57046 0.0
H1093 H 0.17077 0.11173 0.49263 0.0
S1094 S 0.20119 0.12325 0.79748 0.0
N1095 N 0.18273 0.1077 0.79185 0.0
N1096 N 0.20543 0.13045 0.70787 0.0
C1097 C 0.19161 0.11994 0.66924 0.0
C1098 C 0.17945 0.10768 0.7142 0.0
C1099 C 0.18375 0.92981 0.83944 0.0
C1100 C 0.16664 0.93759 0.87213 0.0
C1101 C 0.19698 0.91943 0.8851 0.0
C1102 C 0.19345 0.91699 0.96423 0.0
H1103 H 0.18622 0.93059 0.77757 0.0
H1104 H 0.20934 0.91231 0.85778 0.0
S1105 S 0.15225 0.93691 0.07837 0.0
N1106 N 0.14784 0.94396 0.98864 0.0
N1107 N 0.17301 0.92461 0.07509 0.0
C1108 C 0.17723 0.926 0.99849 0.0
C1109 C 0.16368 0.93632 0.95204 0.0
C1110 C 0.37795 0.93365 0.10553 0.0
C1111 C 0.37374 0.93715 0.18375 0.0
C1112 C 0.36482 0.92335 0.05905 0.0
C1113 C 0.34724 0.91629 0.08992 0.0
H1114 H 0.39174 0.93831 0.08095 0.0
H1115 H 0.36881 0.92005 0.99973 0.0
S1116 S 0.32881 0.92298 0.28915 0.0
N1117 N 0.35029 0.93406 0.2888 0.0
N1118 N 0.32554 0.91443 0.20044 0.0
C1119 C 0.3423 0.92067 0.16644 0.0
C1120 C 0.35563 0.93124 0.21383 0.0
C1121 C 0.36479 0.11446 0.29055 0.0
C1122 C 0.37236 0.09706 0.32092 0.0
C1123 C 0.35448 0.12737 0.33775 0.0
C1124 C 0.35154 0.12308 0.41614 0.0
H1125 H 0.36785 0.1186 0.23129 0.0
H1126 H 0.34956 0.14113 0.31379 0.0
S1127 S 0.36687 0.07831 0.51994 0.0
N1128 N 0.37503 0.07525 0.43075 0.0
N1129 N 0.35543 0.09958 0.52051 0.0
C1130 C 0.35775 0.105 0.44548 0.0
C1131 C 0.3683 0.0919 0.39734 0.0
C1132 C 0.84408 0.91952 0.37981 0.0
C1133 C 0.84779 0.91711 0.45889 0.0
C1134 C 0.85721 0.92991 0.33389 0.0
C1135 C 0.87436 0.93777 0.36634 0.0
H1136 H 0.8317 0.91231 0.35267 0.0
H1137 H 0.85465 0.93059 0.27202 0.0
S1138 S 0.88893 0.93761 0.57267 0.0
N1139 N 0.86826 0.92511 0.56964 0.0
N1140 N 0.89322 0.94453 0.48276 0.0
C1141 C 0.87741 0.93668 0.4463 0.0
C1142 C 0.86397 0.92631 0.49297 0.0
C1143 C 0.85067 0.12684 0.1786 0.0
C1144 C 0.84829 0.12323 0.09922 0.0
C1145 C 0.86273 0.11488 0.22285 0.0
C1146 C 0.8726 0.09917 0.18831 0.0
H1147 H 0.84422 0.13967 0.20527 0.0
H1148 H 0.86548 0.11874 0.28284 0.0
S1149 S 0.86962 0.08262 0.98482 0.0
N1150 N 0.85526 0.10201 0.98926 0.0
N1151 N 0.87821 0.0795 0.07339 0.0
C1152 C 0.86918 0.0945 0.11072 0.0
C1153 C 0.85682 0.10659 0.06567 0.0
C1154 C 0.6584 0.10008 0.91603 0.0
C1155 C 0.66419 0.09472 0.84107 0.0
C1156 C 0.66996 0.11257 0.96059 0.0
C1157 C 0.68758 0.11989 0.93121 0.0
H1158 H 0.64453 0.09517 0.93913 0.0
H1159 H 0.66483 0.11704 0.0173 0.0
S1160 S 0.70999 0.10886 0.74157 0.0
N1161 N 0.68922 0.0965 0.74135 0.0
N1162 N 0.71115 0.12001 0.82652 0.0
C1163 C 0.69417 0.11371 0.85866 0.0
C1164 C 0.68239 0.10101 0.81305 0.0
C1165 C 0.66017 0.91224 0.57514 0.0
C1166 C 0.68034 0.91477 0.56617 0.0
C1167 C 0.64936 0.92509 0.62013 0.0
C1168 C 0.6581 0.9416 0.65458 0.0
H1169 H 0.65266 0.89988 0.54936 0.0
H1170 H 0.63442 0.92099 0.6316 0.0
S1171 S 0.70991 0.95681 0.63497 0.0
N1172 N 0.70844 0.93597 0.58653 0.0
N1173 N 0.68769 0.96115 0.66811 0.0
C1174 C 0.67795 0.94533 0.63962 0.0
C1175 C 0.68916 0.93179 0.59546 0.0
C1176 C 0.66603 0.62795 0.07076 0.0
C1177 C 0.68602 0.62351 0.07379 0.0
C1178 C 0.65268 0.61774 0.11531 0.0
C1179 C 0.65866 0.60201 0.16157 0.0
H1180 H 0.66064 0.64 0.03638 0.0
H1181 H 0.63798 0.62339 0.11697 0.0
S1182 S 0.70891 0.58175 0.17453 0.0
N1183 N 0.71102 0.60086 0.11696 0.0
N1184 N 0.68554 0.58051 0.19802 0.0
C1185 C 0.67836 0.59604 0.15825 0.0
C1186 C 0.69213 0.60695 0.11437 0.0
C1187 C 0.6452 0.429 0.45527 0.0
C1188 C 0.65296 0.44306 0.40465 0.0
C1189 C 0.65748 0.41696 0.49777 0.0
C1190 C 0.67779 0.41836 0.48978 0.0
H1191 H 0.62989 0.42538 0.45619 0.0
H1192 H 0.65099 0.40541 0.5319 0.0
S1193 S 0.70521 0.45713 0.38849 0.0
N1194 N 0.68202 0.46144 0.3676 0.0
N1195 N 0.70524 0.43781 0.44557 0.0
C1196 C 0.68572 0.43433 0.45062 0.0
C1197 C 0.67318 0.44699 0.40847 0.0
C1198 C 0.85655 0.43114 0.72412 0.0
C1199 C 0.87237 0.44128 0.69165 0.0
C1200 C 0.84498 0.41896 0.6781 0.0
C1201 C 0.84886 0.41707 0.59894 0.0
H1202 H 0.85421 0.43129 0.78616 0.0
H1203 H 0.8339 0.40997 0.70525 0.0
S1204 S 0.88669 0.4428 0.48547 0.0
N1205 N 0.88997 0.45049 0.5754 0.0
N1206 N 0.86791 0.42761 0.48823 0.0
C1207 C 0.86344 0.42849 0.56478 0.0
C1208 C 0.87532 0.4407 0.61159 0.0
C1209 C 0.8639 0.59824 0.9105 0.0
C1210 C 0.86951 0.60536 0.83804 0.0
C1211 C 0.85039 0.60856 0.95523 0.0
C1212 C 0.8424 0.62616 0.92804 0.0
H1213 H 0.87075 0.58529 0.93422 0.0
H1214 H 0.84727 0.60352 1.0133 0.0
S1215 S 0.85044 0.64893 0.73677 0.0
N1216 N 0.86474 0.62948 0.73701 0.0
N1217 N 0.83909 0.64891 0.82111 0.0
C1218 C 0.84678 0.63249 0.85308 0.0
C1219 C 0.86053 0.62205 0.80789 0.0
C1220 C 0.3684 0.44407 0.90696 0.0
C1221 C 0.37061 0.4404 0.82774 0.0
C1222 C 0.35646 0.43205 0.95149 0.0
C1223 C 0.34693 0.41598 0.91749 0.0
H1224 H 0.37697 0.45538 0.9353 0.0
H1225 H 0.35609 0.43428 1.01364 0.0
S1226 S 0.34654 0.40184 0.71064 0.0
N1227 N 0.36101 0.42117 0.71532 0.0
N1228 N 0.33874 0.39816 0.79988 0.0
C1229 C 0.34785 0.41313 0.83738 0.0
C1230 C 0.35976 0.42551 0.79201 0.0
C1231 C 0.38459 0.60649 0.59361 0.0
C1232 C 0.37672 0.59761 0.65963 0.0
C1233 C 0.37362 0.61985 0.55136 0.0
C1234 C 0.35445 0.62435 0.57347 0.0
H1235 H 0.39956 0.60373 0.57651 0.0
H1236 H 0.38033 0.62712 0.50249 0.0
S1237 S 0.32645 0.6034 0.73597 0.0
N1238 N 0.34819 0.59298 0.74163 0.0
N1239 N 0.3273 0.61793 0.65985 0.0
C1240 C 0.34587 0.61453 0.63551 0.0
C1241 C 0.35711 0.60107 0.67923 0.0
C1242 C 0.15366 0.61517 0.41609 0.0
C1243 C 0.1609 0.59847 0.37817 0.0
C1244 C 0.1657 0.62664 0.4623 0.0
C1245 C 0.18572 0.62261 0.46874 0.0
H1246 H 0.13898 0.62041 0.40686 0.0
H1247 H 0.1593 0.63919 0.49102 0.0
S1248 S 0.21163 0.57948 0.38952 0.0
N1249 N 0.18892 0.57709 0.35803 0.0
N1250 N 0.21204 0.5998 0.44163 0.0
C1251 C 0.19306 0.60542 0.4354 0.0
C1252 C 0.18057 0.59322 0.39012 0.0
C1253 C 0.18161 0.43849 0.19582 0.0
C1254 C 0.16542 0.43247 0.23889 0.0
C1255 C 0.19209 0.42494 0.15173 0.0
C1256 C 0.18636 0.40513 0.14836 0.0
H1257 H 0.18534 0.45386 0.19183 0.0
H1258 H 0.20363 0.43035 0.11463 0.0
S1259 S 0.14803 0.38172 0.2693 0.0
N1260 N 0.14739 0.40508 0.29282 0.0
N1261 N 0.16521 0.37996 0.20296 0.0
C1262 C 0.17156 0.39873 0.19873 0.0
C1263 C 0.16151 0.41241 0.24585 0.0
C1264 C 0.26352 0.22503 0.48103 0.0
C1265 C 0.25549 0.20731 0.45266 0.0
C1266 C 0.27862 0.22526 0.53809 0.0
C1267 C 0.28614 0.20778 0.57006 0.0
H1268 H 0.25776 0.23883 0.46055 0.0
H1269 H 0.28484 0.23917 0.55553 0.0
S1270 S 0.27016 0.15758 0.51624 0.0
N1271 N 0.25643 0.17193 0.4621 0.0
N1272 N 0.28425 0.17236 0.56761 0.0
C1273 C 0.27811 0.19011 0.54207 0.0
C1274 C 0.263 0.18988 0.48429 0.0
C1275 C 0.08162 0.99926 0.80771 0.0
C1276 C 0.07764 0.99976 0.72675 0.0
C1277 C 0.08047 1.01604 0.85572 0.0
C1278 C 0.07541 0.03433 0.8253 0.0
H1279 H 0.08607 0.98571 0.83473 0.0
H1280 H 0.08452 1.01483 0.91616 0.0
S1281 S 0.06192 0.04394 0.6199 0.0
N1282 N 0.06701 0.02032 0.62074 0.0
N1283 N 0.06516 0.0518 0.70962 0.0
C1284 C 0.07063 0.03499 0.74531 0.0
C1285 C 0.07159 1.01781 0.69657 0.0
C1286 C 0.26418 0.84697 0.0492 0.0
C1287 C 0.25647 0.8293 0.07832 0.0
C1288 C 0.27734 0.84755 0.98689 0.0
C1289 C 0.28425 0.83049 0.94946 0.0
H1290 H 0.25978 0.86086 0.07387 0.0
H1291 H 0.28235 0.86184 0.96889 0.0
S1292 S 0.26938 0.77998 1.0026 0.0
N1293 N 0.25689 0.79392 0.06334 0.0
N1294 N 0.28243 0.79497 0.94838 0.0
C1295 C 0.27699 0.81253 0.97818 0.0
C1296 C 0.26304 0.81194 0.04162 0.0
C1297 C 0.44271 0.02484 0.22451 0.0
C1298 C 0.46 0.03428 0.2 0.0
C1299 C 0.44262 1.01086 0.28392 0.0
C1300 C 0.45979 1.00516 0.3231 0.0
H1301 H 0.42884 0.02817 0.19731 0.0
H1302 H 0.42882 1.00387 0.29756 0.0
S1303 S 0.50926 0.02527 0.28421 0.0
N1304 N 0.49502 0.03713 0.22284 0.0
N1305 N 0.49486 1.0103 0.33295 0.0
C1306 C 0.47727 1.0146 0.30079 0.0
C1307 C 0.47737 0.02914 0.23981 0.0
C1308 C 0.76269 0.8462 0.48911 0.0
C1309 C 0.75678 0.82892 0.45082 0.0
C1310 C 0.77646 0.84618 0.54967 0.0
C1311 C 0.78545 0.82885 0.57644 0.0
H1312 H 0.756 0.86003 0.47386 0.0
H1313 H 0.77998 0.86014 0.57603 0.0
S1314 S 0.77555 0.77927 0.49587 0.0
N1315 N 0.76112 0.79369 0.44462 0.0
N1316 N 0.78755 0.79365 0.55688 0.0
C1317 C 0.78006 0.81136 0.53766 0.0
C1318 C 0.76574 0.81139 0.47548 0.0
C1319 C 0.95921 1.01652 0.35489 0.0
C1320 C 0.96338 0.03505 0.32463 0.0
C1321 C 0.95871 0.99974 0.30667 0.0
C1322 C 0.96254 1.00049 0.22571 0.0
H1323 H 0.95537 1.01507 0.41539 0.0
H1324 H 0.95491 0.98596 0.3335 0.0
S1325 S 0.97614 0.04541 0.11928 0.0
N1326 N 0.97269 0.05304 0.2091 0.0
N1327 N 0.97208 0.02157 0.11987 0.0
C1328 C 0.96773 1.01881 0.19569 0.0
C1329 C 0.968 0.03598 0.24461 0.0
C1330 C 0.76403 0.1906 0.05493 0.0
C1331 C 0.75285 0.20732 0.07343 0.0
C1332 C 0.77862 0.19078 0.99769 0.0
C1333 C 0.78318 0.20767 0.9545 0.0
H1334 H 0.76145 0.17696 0.08492 0.0
H1335 H 0.78682 0.17742 0.9884 0.0
S1336 S 0.75815 0.25556 0.97689 0.0
N1337 N 0.74706 0.24141 0.04062 0.0
N1338 N 0.77497 0.24185 0.93455 0.0
C1339 C 0.77205 0.22458 0.97119 0.0
C1340 C 0.75693 0.22439 0.03012 0.0
C1341 C 0.56305 0.02648 0.74637 0.0
C1342 C 0.57925 0.03021 0.69747 0.0
C1343 C 0.56395 1.01245 0.80752 0.0
C1344 C 0.58128 1.00191 0.82437 0.0
H1345 H 0.54978 0.03492 0.73919 0.0
H1346 H 0.55112 1.01023 0.84303 0.0
S1347 S 0.62742 1.00516 0.70989 0.0
N1348 N 0.61251 0.0206 0.66692 0.0
N1349 N 0.61477 0.99605 0.78232 0.0
C1350 C 0.59734 1.00537 0.7744 0.0
C1351 C 0.59617 1.01894 0.71127 0.0
C1352 C 0.76562 0.69121 0.96838 0.0
C1353 C 0.75548 0.70812 0.94442 0.0
C1354 C 0.77868 0.6913 0.03138 0.0
C1355 C 0.78292 0.70838 0.07478 0.0
H1356 H 0.76313 0.67737 0.93924 0.0
H1357 H 0.78565 0.67756 0.04555 0.0
S1358 S 0.76095 0.75711 0.03663 0.0
N1359 N 0.75082 0.74281 0.97029 0.0
N1360 N 0.77602 0.74312 0.08687 0.0
C1361 C 0.77336 0.72566 0.05067 0.0
C1362 C 0.7596 0.72551 0.98638 0.0
C1363 C 0.58478 0.51947 0.18103 0.0
C1364 C 0.57721 0.50136 0.20411 0.0
C1365 C 0.58537 0.53561 0.2326 0.0
C1366 C 0.57834 0.53462 0.31013 0.0
H1367 H 0.59108 0.52099 0.1239 0.0
H1368 H 0.59168 0.54906 0.21104 0.0
S1369 S 0.55581 0.49056 0.39731 0.0
N1370 N 0.56176 0.48346 0.3089 0.0
N1371 N 0.56255 0.51372 0.40441 0.0
C1372 C 0.57009 0.5167 0.33277 0.0
C1373 C 0.56966 0.50019 0.2804 0.0
C1374 C 0.75206 0.33128 0.48397 0.0
C1375 C 0.75312 0.32618 0.56374 0.0
C1376 C 0.76849 0.33076 0.4344 0.0
C1377 C 0.78695 0.32524 0.46199 0.0
H1378 H 0.73834 0.33609 0.45916 0.0
H1379 H 0.76688 0.33565 0.37516 0.0
S1380 S 0.79802 0.30903 0.66293 0.0
N1381 N 0.7744 0.31412 0.6653 0.0
N1382 N 0.80524 0.31348 0.57349 0.0
C1383 C 0.78818 0.3194 0.54061 0.0
C1384 C 0.77136 0.31972 0.59092 0.0
C1385 C 0.97448 0.52947 0.74698 0.0
C1386 C 0.95689 0.53639 0.71355 0.0
C1387 C 0.9745 0.5147 0.80499 0.0
C1388 C 0.95691 0.50642 0.83277 0.0
H1389 H 0.98828 0.5359 0.72985 0.0
H1390 H 0.98838 0.50939 0.82663 0.0
S1391 S 0.90699 0.51952 0.76526 0.0
N1392 N 0.92155 0.53368 0.71394 0.0
N1393 N 0.92154 0.50646 0.82119 0.0
C1394 C 0.93937 0.51335 0.79973 0.0
C1395 C 0.93937 0.52814 0.74103 0.0
C1396 C 0.25138 0.33409 0.04249 0.0
C1397 C 0.25221 0.32972 0.96181 0.0
C1398 C 0.26791 0.33301 0.09175 0.0
C1399 C 0.2863 0.32763 0.06302 0.0
H1400 H 0.23775 0.33868 0.06849 0.0
H1401 H 0.26643 0.33729 0.1519 0.0
S1402 S 0.29689 0.31345 0.85893 0.0
N1403 N 0.27329 0.31864 0.85786 0.0
N1404 N 0.3043 0.317 0.94902 0.0
C1405 C 0.28734 0.32266 0.98324 0.0
C1406 C 0.27042 0.32355 0.93322 0.0
C1407 C 0.44096 0.51034 0.75331 0.0
C1408 C 0.4576 0.50638 0.70753 0.0
C1409 C 0.44095 0.52457 0.81229 0.0
C1410 C 0.45756 0.53603 0.82992 0.0
H1411 H 0.42769 0.50191 0.74482 0.0
H1412 H 0.42752 0.5266 0.8445 0.0
S1413 S 0.50509 0.53239 0.7265 0.0
N1414 N 0.49139 0.51553 0.6839 0.0
N1415 N 0.49124 0.54277 0.79342 0.0
C1416 C 0.47435 0.53261 0.78383 0.0
C1417 C 0.47437 0.51783 0.72313 0.0
C1418 C 0.27393 0.72746 0.4855 0.0
C1419 C 0.28166 0.71015 0.45246 0.0
C1420 C 0.2598 0.72691 0.54613 0.0
C1421 C 0.25305 0.70903 0.57767 0.0
H1422 H 0.27947 0.74152 0.46699 0.0
H1423 H 0.25438 0.74061 0.56922 0.0
S1424 S 0.26808 0.65954 0.50794 0.0
N1425 N 0.28057 0.67477 0.45326 0.0
N1426 N 0.25508 0.6735 0.56637 0.0
C1427 C 0.26046 0.69171 0.54315 0.0
C1428 C 0.27439 0.69234 0.48115 0.0
C1429 C 0.06289 0.51227 0.29546 0.0
C1430 C 0.0787 0.50961 0.34766 0.0
C1431 C 0.06355 0.52646 0.23488 0.0
C1432 C 0.08028 0.53828 0.22221 0.0
H1433 H 0.05026 0.50277 0.29918 0.0
H1434 H 0.05114 0.52771 0.19624 0.0
S1435 S 0.12475 0.53851 0.34798 0.0
N1436 N 0.11059 0.52171 0.38661 0.0
N1437 N 0.11244 0.54684 0.273 0.0
C1438 C 0.09576 0.53607 0.27623 0.0
C1439 C 0.09481 0.52225 0.33849 0.0
C1440 C 0.17311 0.28021 0.15116 0.0
C1441 C 0.18506 0.2635 0.14461 0.0
C1442 C 0.17169 0.29392 0.09094 0.0
C1443 C 0.18183 0.29133 0.02073 0.0
H1444 H 0.16526 0.28311 0.20439 0.0
H1445 H 0.16299 0.30694 0.10047 0.0
S1446 S 0.21355 0.24886 0.97131 0.0
N1447 N 0.20621 0.24445 0.0605 0.0
N1448 N 0.20329 0.26978 0.94677 0.0
C1449 C 0.19305 0.2741 1.01203 0.0
C1450 C 0.19477 0.26034 0.07402 0.0
C1451 C 1.01293 0.93782 0.28847 0.0
C1452 C 0.99515 0.92748 0.29613 0.0
C1453 C 0.02659 0.93893 0.34929 0.0
C1454 C 0.0233 0.92947 0.42017 0.0
H1455 H 1.01606 0.9459 0.23614 0.0
H1456 H 0.03978 0.94743 0.34077 0.0
S1457 S 0.9798 0.89934 0.46892 0.0
N1458 N 0.97549 0.9069 0.37985 0.0
N1459 N 1.00129 0.90856 0.49326 0.0
C1460 C 1.00599 0.91838 0.42766 0.0
C1461 C 0.99191 0.9175 0.36604 0.0
C1462 C 0.34628 0.77717 0.58355 0.0
C1463 C 0.35638 0.77326 0.65277 0.0
C1464 C 0.34659 0.76394 0.52112 0.0
C1465 C 0.35672 0.74599 0.52544 0.0
H1466 H 0.33788 0.79051 0.57764 0.0
H1467 H 0.33801 0.7675 0.47031 0.0
S1468 S 0.38646 0.72915 0.69222 0.0
N1469 N 0.37775 0.75054 0.72038 0.0
N1470 N 0.37793 0.72554 0.6038 0.0
C1471 C 0.36738 0.74216 0.59348 0.0
C1472 C 0.36731 0.7558 0.65678 0.0
C1473 C 0.53305 0.08885 0.90273 0.0
C1474 C 0.51903 0.10388 0.9033 0.0
C1475 C 0.54767 0.08805 0.84565 0.0
C1476 C 0.54847 0.10193 0.78563 0.0
H1477 H 0.53274 0.07762 0.94681 0.0
H1478 H 0.5579 0.07596 0.84669 0.0
S1479 S 0.51499 0.14408 0.76064 0.0
N1480 N 0.50707 0.13318 0.83979 0.0
N1481 N 0.53393 0.13115 0.7306 0.0
C1482 C 0.53454 0.11705 0.78572 0.0
C1483 C 0.52001 0.11817 0.84506 0.0
C1484 C 0.17168 0.75371 0.49045 0.0
C1485 C 0.18661 0.7396 0.49443 0.0
C1486 C 0.17155 0.76805 0.43217 0.0
C1487 C 0.18674 0.76929 0.37741 0.0
H1488 H 0.16012 0.75381 0.53325 0.0
H1489 H 0.15978 0.77864 0.43155 0.0
S1490 S 0.22929 0.73592 0.36242 0.0
N1491 N 0.21681 0.72759 0.43709 0.0
N1492 N 0.21692 0.75496 0.33006 0.0
C1493 C 0.2017 0.75525 0.38052 0.0
C1494 C 0.20154 0.7403 0.43828 0.0
C1495 C 0.53188 0.95009 0.63473 0.0
C1496 C 0.51638 0.93657 0.63762 0.0
C1497 C 0.54726 0.94956 0.689 0.0
C1498 C 0.5475 0.93578 0.74958 0.0
H1499 H 0.53218 0.96114 0.58998 0.0
H1500 H 0.55864 0.96055 0.68523 0.0
S1501 S 0.51023 0.89729 0.78318 0.0
N1502 N 0.5024 0.90879 0.70518 0.0
N1503 N 0.5308 0.90827 0.80865 0.0
C1504 C 0.5321 0.92215 0.75282 0.0
C1505 C 0.51671 0.92241 0.69651 0.0
C1506 C 0.34722 0.26426 0.93715 0.0
C1507 C 0.35679 0.26729 0.86624 0.0
C1508 C 0.34837 0.27808 0.9975 0.0
C1509 C 0.35885 0.29576 0.98933 0.0
H1510 H 0.33865 0.25113 0.94607 0.0
H1511 H 0.34022 0.27516 0.04991 0.0
S1512 S 0.38709 0.31055 0.8159 0.0
N1513 N 0.37778 0.28904 0.7923 0.0
N1514 N 0.37954 0.31512 0.90489 0.0
C1515 C 0.36886 0.29877 0.91927 0.0
C1516 C 0.36793 0.28454 0.85811 0.0
C1517 C 0.02553 0.09484 0.20038 0.0
C1518 C 0.02314 0.10539 0.13131 0.0
C1519 C 1.01173 0.09604 0.2604 0.0
C1520 C 0.99469 0.10757 0.25362 0.0
H1521 H 0.03811 0.08543 0.20804 0.0
H1522 H 1.01409 0.08712 0.31122 0.0
S1523 S 0.98179 0.13872 0.08583 0.0
N1524 N 1.00275 0.12851 0.06106 0.0
N1525 N 0.97666 0.13032 0.17293 0.0
C1526 C 0.99234 0.11856 0.1856 0.0
C1527 C 1.00657 0.11759 0.12486 0.0
C1528 C 0.85002 0.73234 0.92013 0.0
C1529 C 0.84947 0.73954 0.99661 0.0
C1530 C 0.84923 0.74501 0.85617 0.0
C1531 C 0.84744 0.76543 0.86571 0.0
H1532 H 0.85075 0.71673 0.90946 0.0
H1533 H 0.84957 0.73864 0.79867 0.0
S1534 S 0.84558 0.79192 0.0538 0.0
N1535 N 0.84743 0.76867 0.07793 0.0
N1536 N 0.84556 0.79225 0.95829 0.0
C1537 C 0.84712 0.77286 0.94188 0.0
C1538 C 0.84826 0.76001 1.00701 0.0
C1539 C 0.02631 0.09611 0.76077 0.0
C1540 C 0.04338 0.10762 0.75469 0.0
C1541 C 1.01253 0.0951 0.70046 0.0
C1542 C 1.01498 0.10583 0.63189 0.0
H1543 H 0.02395 0.08702 0.81111 0.0
H1544 H 0.99993 0.08565 0.70742 0.0
S1545 S 0.05635 0.13931 0.58873 0.0
N1546 N 0.06145 0.13065 0.67553 0.0
N1547 N 0.03538 0.12917 0.56308 0.0
C1548 C 0.03153 0.11807 0.62631 0.0
C1549 C 0.04575 0.11885 0.68733 0.0
C1550 C 0.69071 0.26232 0.43659 0.0
C1551 C 0.68082 0.26592 0.36665 0.0
C1552 C 0.69018 0.27581 0.49822 0.0
C1553 C 0.68003 0.29374 0.49241 0.0
H1554 H 0.69905 0.24898 0.44382 0.0
H1555 H 0.69852 0.2724 0.5498 0.0
S1556 S 0.651 0.30996 0.32269 0.0
N1557 N 0.65978 0.28844 0.29641 0.0
N1558 N 0.6592 0.31391 0.41137 0.0
C1559 C 0.66968 0.29732 0.42341 0.0
C1560 C 0.66997 0.28342 0.36093 0.0
C1561 C 0.51276 0.94114 0.25937 0.0
C1562 C 0.49489 0.93088 0.25267 0.0
C1563 C 0.52627 0.94173 0.19831 0.0
C1564 C 0.52272 0.9318 0.12827 0.0
H1565 H 0.51604 0.94957 0.31103 0.0
H1566 H 0.53954 0.95018 0.20595 0.0
S1567 S 0.47888 0.90173 0.08223 0.0
N1568 N 0.47484 0.9099 0.17084 0.0
N1569 N 0.50039 0.9106 0.05689 0.0
C1570 C 0.50532 0.92081 0.12175 0.0
C1571 C 0.49139 0.92046 0.1836 0.0
C1572 C 0.84511 0.26337 0.58545 0.0
C1573 C 0.85479 0.26581 0.65668 0.0
C1574 C 0.84697 0.2772 0.52601 0.0
C1575 C 0.85832 0.29433 0.53553 0.0
H1576 H 0.83589 0.25071 0.57555 0.0
H1577 H 0.83869 0.27479 0.47331 0.0
S1578 S 0.8872 0.3074 0.71034 0.0
N1579 N 0.87684 0.28633 0.73242 0.0
N1580 N 0.8799 0.31251 0.62152 0.0
C1581 C 0.86843 0.29674 0.60595 0.0
C1582 C 0.86678 0.28246 0.66615 0.0
C1583 C 0.51828 0.11621 0.34675 0.0
C1584 C 0.51926 0.10135 0.40287 0.0
C1585 C 0.50364 0.1162 0.28931 0.0
C1586 C 0.48899 0.10173 0.28728 0.0
H1587 H 0.52929 0.12761 0.34569 0.0
H1588 H 0.50399 0.12747 0.24541 0.0
S1589 S 0.48425 0.06032 0.4247 0.0
N1590 N 0.50396 0.07215 0.45446 0.0
N1591 N 0.47607 0.07248 0.34885 0.0
C1592 C 0.48939 0.08721 0.34506 0.0
C1593 C 0.50463 0.08692 0.40211 0.0
C1594 C 0.70278 0.74061 0.08379 0.0
C1595 C 0.688 0.73931 0.02695 0.0
C1596 C 0.70332 0.75617 0.13739 0.0
C1597 C 0.68882 0.77077 0.13753 0.0
H1598 H 0.71453 0.72999 0.08487 0.0
H1599 H 0.71515 0.75673 0.17915 0.0
S1600 S 0.64677 0.77394 1.00196 0.0
N1601 N 0.65854 0.75402 0.97438 0.0
N1602 N 0.6591 0.78276 0.07667 0.0
C1603 C 0.6737 0.76936 0.08234 0.0
C1604 C 0.67341 0.75379 0.02669 0.0
C1605 C 0.02841 0.93779 0.78877 0.0
C1606 C 0.04601 0.92717 0.79713 0.0
C1607 C 1.01479 0.93929 0.84932 0.0
C1608 C 1.01791 0.92994 0.92059 0.0
H1609 H 0.02544 0.9458 0.73609 0.0
H1610 H 1.00175 0.94798 0.84027 0.0
S1611 S 0.06085 0.89922 0.97126 0.0
N1612 N 0.0653 0.90649 0.88198 0.0
N1613 N 0.03953 0.90885 0.99487 0.0
C1614 C 0.03501 0.91858 0.9288 0.0
C1615 C 0.04906 0.91732 0.86748 0.0
C1616 C 0.67365 0.79582 0.58728 0.0
C1617 C 0.68397 0.7922 0.51824 0.0
C1618 C 0.67384 0.78232 0.64858 0.0
C1619 C 0.68472 0.76483 0.64421 0.0
H1620 H 0.66571 0.80939 0.59482 0.0
H1621 H 0.66588 0.78595 0.70081 0.0
S1622 S 0.71371 0.74785 0.4755 0.0
N1623 N 0.7048 0.76917 0.44847 0.0
N1624 N 0.70537 0.74424 0.56384 0.0
C1625 C 0.69471 0.76079 0.57497 0.0
C1626 C 0.69426 0.77432 0.51204 0.0
C1627 C 0.52635 0.44389 0.82432 0.0
C1628 C 0.52375 0.43348 0.89355 0.0
C1629 C 0.5122 0.4434 0.76516 0.0
C1630 C 0.49461 0.43276 0.77302 0.0
H1631 H 0.53936 0.45268 0.81592 0.0
H1632 H 0.51478 0.45219 0.71417 0.0
S1633 S 0.48098 0.40222 0.94158 0.0
N1634 N 0.50255 0.41139 0.96505 0.0
N1635 N 0.47587 0.41087 0.85478 0.0
C1636 C 0.49206 0.42185 0.84114 0.0
C1637 C 0.50662 0.42211 0.901 0.0
C1638 C 0.86497 0.25499 0.16089 0.0
C1639 C 0.85493 0.27289 0.15358 0.0
C1640 C 0.86537 0.24119 0.10019 0.0
C1641 C 0.85608 0.24483 0.02884 0.0
H1642 H 0.87206 0.25126 0.21498 0.0
H1643 H 0.8726 0.22733 0.11013 0.0
S1644 S 0.82932 0.29041 0.97743 0.0
N1645 N 0.83649 0.29404 0.06764 0.0
N1646 N 0.83751 0.26853 0.95329 0.0
C1647 C 0.84679 0.26317 0.01956 0.0
C1648 C 0.84612 0.27704 0.08189 0.0
C1649 C 1.01746 0.6184 0.35004 0.0
C1650 C 1.01546 0.60321 0.40442 0.0
C1651 C 0.03271 0.6184 0.29542 0.0
C1652 C 0.047 0.60361 0.29481 0.0
H1653 H 1.00682 0.63012 0.34823 0.0
H1654 H 0.03322 0.62999 0.25287 0.0
S1655 S 0.0488 0.56076 0.42611 0.0
N1656 N 0.02926 0.57303 0.45438 0.0
N1657 N 0.05819 0.57337 0.35386 0.0
C1658 C 0.04546 0.58861 0.35019 0.0
C1659 C 0.02964 0.58831 0.40434 0.0
C1660 C 0.68955 0.25774 0.99688 0.0
C1661 C 0.68464 0.23792 0.98449 0.0
C1662 C 0.69156 0.27086 0.93491 0.0
C1663 C 0.68836 0.26484 0.85792 0.0
H1664 H 0.69265 0.26306 0.0548 0.0
H1665 H 0.69562 0.28586 0.94754 0.0
S1666 S 0.6745 0.21472 0.79413 0.0
N1667 N 0.67634 0.21305 0.8892 0.0
N1668 N 0.67951 0.23772 0.77304 0.0
C1669 C 0.68291 0.24519 0.84485 0.0
C1670 C 0.68123 0.23175 0.90791 0.0
C1671 C 1.01878 0.4249 0.1956 0.0
C1672 C 1.01698 0.43975 0.13977 0.0
C1673 C 0.03405 0.42506 0.25034 0.0
C1674 C 0.04856 0.4397 0.24999 0.0
H1675 H 1.00791 0.4134 0.19876 0.0
H1676 H 0.03428 0.41383 0.29438 0.0
S1677 S 0.0513 0.48119 0.1123 0.0
N1678 N 0.03145 0.46912 0.08567 0.0
N1679 N 0.06046 0.46907 0.18652 0.0
C1680 C 0.04738 0.45418 0.19231 0.0
C1681 C 0.03152 0.45431 0.13789 0.0
C1682 C 0.86683 0.76976 0.43526 0.0
C1683 C 0.85197 0.76862 0.37882 0.0
C1684 C 0.86686 0.78457 0.49212 0.0
C1685 C 0.85245 0.79928 0.49311 0.0
H1686 H 0.87819 0.75873 0.43699 0.0
H1687 H 0.87812 0.78435 0.53634 0.0
S1688 S 0.81107 0.80362 0.35438 0.0
N1689 N 0.82283 0.78379 0.32577 0.0
N1690 N 0.82325 0.81203 0.43022 0.0
C1691 C 0.83793 0.7987 0.43497 0.0
C1692 C 0.83758 0.78327 0.37858 0.0
C1693 C 0.50673 0.58655 0.6359 0.0
C1694 C 0.522 0.60036 0.63709 0.0
C1695 C 0.49109 0.5877 0.68867 0.0
C1696 C 0.49032 0.60243 0.7461 0.0
H1697 H 0.50678 0.57482 0.59352 0.0
H1698 H 0.47989 0.57649 0.68624 0.0
S1699 S 0.52684 0.642 0.77457 0.0
N1700 N 0.53523 0.62938 0.69999 0.0
N1701 N 0.50633 0.6311 0.80052 0.0
C1702 C 0.50551 0.61632 0.74775 0.0
C1703 C 0.52118 0.6154 0.69299 0.0
C1704 C 0.36427 0.25455 0.35549 0.0
C1705 C 0.35527 0.27291 0.36635 0.0
C1706 C 0.36558 0.24085 0.41589 0.0
C1707 C 0.3583 0.24503 0.49041 0.0
H1708 H 0.3698 0.25043 0.29903 0.0
H1709 H 0.37186 0.22665 0.4033 0.0
S1710 S 0.33531 0.29202 0.55132 0.0
N1711 N 0.34019 0.29508 0.45864 0.0
N1712 N 0.34302 0.26981 0.57248 0.0
C1713 C 0.35019 0.26382 0.50295 0.0
C1714 C 0.34854 0.27759 0.44096 0.0
C1715 C 0.53132 0.61781 0.12683 0.0
C1716 C 0.5135 0.60751 0.13149 0.0
C1717 C 0.54488 0.61776 0.18817 0.0
C1718 C 0.54109 0.6077 0.25755 0.0
H1719 H 0.53518 0.62545 0.07423 0.0
H1720 H 0.55871 0.6252 0.18006 0.0
S1721 S 0.49551 0.58016 0.30221 0.0
N1722 N 0.49216 0.58813 0.21312 0.0
N1723 N 0.51726 0.58827 0.32879 0.0
C1724 C 0.5228 0.59819 0.2644 0.0
C1725 C 0.50915 0.598 0.20135 0.0
C1726 C 0.20041 0.78386 0.88229 0.0
C1727 C 0.18496 0.77026 0.87948 0.0
C1728 C 0.20106 0.79863 0.93926 0.0
C1729 C 0.18656 0.80005 0.99689 0.0
H1730 H 0.21211 0.78306 0.84019 0.0
H1731 H 0.21351 0.80845 0.94025 0.0
S1732 S 0.14313 0.76793 1.0156 0.0
N1733 N 0.15463 0.75942 0.93852 0.0
N1734 N 0.15631 0.78659 0.04723 0.0
C1735 C 0.17101 0.78661 0.99442 0.0
C1736 C 0.17008 0.77189 0.93531 0.0
C1737 C 0.98875 0.42497 0.6871 0.0
C1738 C 0.99314 0.43368 0.75916 0.0
C1739 C 1.00189 0.42596 0.62471 0.0
C1740 C 0.01981 0.43605 0.63112 0.0
H1741 H 0.97479 0.41781 0.67795 0.0
H1742 H 0.99765 0.41931 0.57017 0.0
S1743 S 0.03921 0.46009 0.80839 0.0
N1744 N 1.01763 0.45158 0.83428 0.0
N1745 N 0.04184 0.4538 0.71669 0.0
C1746 C 0.02471 0.44424 0.70337 0.0
C1747 C 1.01155 0.44292 0.76739 0.0
C1748 C 0.36499 0.78669 0.03742 0.0
C1749 C 0.35016 0.80094 0.03474 0.0
C1750 C 0.36468 0.77164 0.09272 0.0
C1751 C 0.34918 0.76982 0.14584 0.0
H1752 H 0.37682 0.78705 0.99582 0.0
H1753 H 0.37641 0.761 0.09235 0.0
S1754 S 0.30668 0.80323 0.1631 0.0
N1755 N 0.31965 0.81236 0.09127 0.0
N1756 N 0.31878 0.78377 0.19298 0.0
C1757 C 0.3343 0.78398 0.14398 0.0
C1758 C 0.33487 0.79961 0.08913 0.0
C1759 C 1.00315 0.6171 0.91971 0.0
C1760 C 0.02086 0.60669 0.9129 0.0
C1761 C 0.98962 0.61795 0.85828 0.0
C1762 C 0.99341 0.6088 0.78667 0.0
H1763 H 0.99939 0.62419 0.97388 0.0
H1764 H 0.97588 0.62545 0.86774 0.0
S1765 S 0.03858 0.58107 0.7368 0.0
N1766 N 0.04193 0.58792 0.82757 0.0
N1767 N 1.01702 0.58984 0.71172 0.0
C1768 C 1.01155 0.59909 0.77809 0.0
C1769 C 0.0251 0.59791 0.84121 0.0
C1770 C 0.19451 0.27606 0.57751 0.0
C1771 C 0.18462 0.27347 0.64796 0.0
C1772 C 0.19342 0.26198 0.5181 0.0
C1773 C 0.18268 0.24446 0.52697 0.0
H1774 H 0.20328 0.28904 0.56822 0.0
H1775 H 0.20179 0.26454 0.46597 0.0
S1776 S 0.15355 0.23086 0.6995 0.0
N1777 N 0.16303 0.25236 0.72212 0.0
N1778 N 0.16142 0.22576 0.6114 0.0
C1779 C 0.17237 0.2419 0.59656 0.0
C1780 C 0.17322 0.25641 0.65665 0.0
C1781 C 0.54224 0.42072 0.33516 0.0
C1782 C 0.54122 0.4325 0.26867 0.0
C1783 C 0.52844 0.42248 0.39505 0.0
C1784 C 0.51329 0.43645 0.39201 0.0
H1785 H 0.55405 0.4103 0.34178 0.0
H1786 H 0.53003 0.41318 0.44527 0.0
S1787 S 0.5038 0.47078 0.23047 0.0
N1788 N 0.5233 0.4584 0.20289 0.0
N1789 N 0.49779 0.4619 0.31586 0.0
C1790 C 0.51189 0.44812 0.32543 0.0
C1791 C 0.52569 0.44608 0.26374 0.0
C1792 C 0.1347 0.16132 0.18363 0.0
C1793 C 0.15531 0.16012 0.17936 0.0
C1794 C 0.12228 0.14828 0.14185 0.0
C1795 C 0.12984 0.1332 0.09425 0.0
H1796 H 0.12808 0.17241 0.22005 0.0
H1797 H 0.10661 0.15021 0.14623 0.0
S1798 S 0.18281 0.12254 0.06911 0.0
N1799 N 0.18257 0.14193 0.12651 0.0
N1800 N 0.15967 0.11729 0.05083 0.0
C1801 C 0.15047 0.13163 0.09134 0.0
C1802 C 0.16303 0.14503 0.13303 0.0
C1803 C 0.12444 0.88471 0.4122 0.0
C1804 C 0.13088 0.90228 0.44764 0.0
C1805 C 0.13749 0.87217 0.37106 0.0
C1806 C 0.15757 0.8767 0.36256 0.0
H1807 H 0.10926 0.88043 0.41742 0.0
H1808 H 0.13174 0.85898 0.34461 0.0
S1809 S 0.18188 0.92099 0.44247 0.0
N1810 N 0.15889 0.92338 0.46991 0.0
N1811 N 0.18297 0.90024 0.39335 0.0
C1812 C 0.16406 0.89424 0.39735 0.0
C1813 C 0.1509 0.90685 0.43944 0.0
C1814 C 0.40498 0.87779 0.68218 0.0
C1815 C 0.38472 0.88173 0.68789 0.0
C1816 C 0.41802 0.89058 0.64259 0.0
C1817 C 0.4114 0.90785 0.60614 0.0
H1818 H 0.41085 0.86478 0.70918 0.0
H1819 H 0.43333 0.88667 0.63894 0.0
S1820 S 0.35986 0.92502 0.60404 0.0
N1821 N 0.35893 0.90438 0.65322 0.0
N1822 N 0.38302 0.92808 0.58006 0.0
C1823 C 0.39121 0.9119 0.61195 0.0
C1824 C 0.37804 0.899 0.65223 0.0
C1825 C 0.39479 0.12745 0.88554 0.0
C1826 C 0.4119 0.134 0.92353 0.0
C1827 C 0.38244 0.14036 0.84399 0.0
C1828 C 0.3863 0.16063 0.83888 0.0
H1829 H 0.39087 0.11212 0.88798 0.0
H1830 H 0.36964 0.13435 0.81548 0.0
S1831 S 0.42924 0.18548 0.92738 0.0
N1832 N 0.43201 0.16235 0.95265 0.0
N1833 N 0.40895 0.18644 0.87536 0.0
C1834 C 0.40334 0.1674 0.87678 0.0
C1835 C 0.41607 0.15418 0.91847 0.0
C1836 C 0.89141 0.9058 0.93798 0.0
C1837 C 0.91178 0.90239 0.94182 0.0
C1838 C 0.8786 0.89348 0.89532 0.0
C1839 C 0.88536 0.87684 0.85481 0.0
H1840 H 0.88524 0.91824 0.96832 0.0
H1841 H 0.86318 0.89704 0.89395 0.0
S1842 S 0.9372 0.86093 0.8456 0.0
N1843 N 0.93793 0.88073 0.90082 0.0
N1844 N 0.91404 0.85781 0.82093 0.0
C1845 C 0.90566 0.87319 0.85806 0.0
C1846 C 0.91877 0.88586 0.90111 0.0
C1847 C 0.88203 0.13955 0.68508 0.0
C1848 C 0.88339 0.16022 0.68119 0.0
C1849 C 0.89493 0.12698 0.64402 0.0
C1850 C 0.90996 0.13432 0.59656 0.0
H1851 H 0.87075 0.13293 0.72022 0.0
H1852 H 0.89293 0.11132 0.64877 0.0
S1853 S 0.92046 0.18697 0.56537 0.0
N1854 N 0.90174 0.18716 0.62571 0.0
N1855 N 0.92531 0.16371 0.54751 0.0
C1856 C 0.91147 0.15486 0.59141 0.0
C1857 C 0.89841 0.1677 0.63363 0.0
C1858 C 0.62077 0.14918 0.40067 0.0
C1859 C 0.62696 0.13041 0.42482 0.0
C1860 C 0.6334 0.16212 0.35971 0.0
C1861 C 0.65281 0.1569 0.34033 0.0
H1862 H 0.60614 0.15405 0.41465 0.0
H1863 H 0.62781 0.17623 0.34205 0.0
S1864 S 0.67627 0.1095 0.38885 0.0
N1865 N 0.65394 0.10738 0.4239 0.0
N1866 N 0.67744 0.13151 0.35015 0.0
C1867 C 0.65909 0.13822 0.36434 0.0
C1868 C 0.64629 0.12509 0.40535 0.0
C1869 C 0.63953 0.86782 0.13279 0.0
C1870 C 0.65699 0.87475 0.16745 0.0
C1871 C 0.62619 0.88065 0.09467 0.0
C1872 C 0.62974 0.90099 0.08895 0.0
H1873 H 0.6359 0.85244 0.13665 0.0
H1874 H 0.61309 0.87455 0.06874 0.0
S1875 S 0.67339 0.92658 0.16763 0.0
N1876 N 0.67693 0.9035 0.19182 0.0
N1877 N 0.65239 0.92712 0.12027 0.0
C1878 C 0.64724 0.90794 0.12235 0.0
C1879 C 0.66064 0.89502 0.16148 0.0
C1880 C 0.61996 0.65121 0.63168 0.0
C1881 C 0.6248 0.6319 0.60913 0.0
C1882 C 0.63369 0.6637 0.66975 0.0
C1883 C 0.65294 0.6575 0.68707 0.0
H1884 H 0.60557 0.65687 0.61831 0.0
H1885 H 0.62912 0.67829 0.68626 0.0
S1886 S 0.67333 0.60871 0.63677 0.0
N1887 N 0.65056 0.60764 0.60493 0.0
N1888 N 0.67601 0.63069 0.6755 0.0
C1889 C 0.65788 0.63828 0.6641 0.0
C1890 C 0.64399 0.62568 0.62545 0.0
C1891 C 0.63394 0.37227 0.84964 0.0
C1892 C 0.65453 0.37246 0.85843 0.0
C1893 C 0.6216 0.38555 0.89035 0.0
C1894 C 0.62922 0.39986 0.94152 0.0
H1895 H 0.62731 0.36195 0.80973 0.0
H1896 H 0.60595 0.38449 0.88188 0.0
S1897 S 0.68223 0.40787 0.97934 0.0
N1898 N 0.68185 0.38896 0.91948 0.0
N1899 N 0.65915 0.41395 0.99363 0.0
C1900 C 0.64983 0.40033 0.94953 0.0
C1901 C 0.66229 0.38672 0.90874 0.0
C1902 C 0.91848 0.39162 0.15629 0.0
C1903 C 0.91072 0.40718 0.11216 0.0
C1904 C 0.90621 0.37826 0.19665 0.0
C1905 C 0.88557 0.37967 0.1944 0.0
H1906 H 0.93415 0.38949 0.15856 0.0
H1907 H 0.91295 0.36672 0.23013 0.0
S1908 S 0.85772 0.41859 0.0941 0.0
N1909 N 0.88078 0.42377 0.07454 0.0
N1910 N 0.85816 0.39869 0.14795 0.0
C1911 C 0.87771 0.39534 0.1521 0.0
C1912 C 0.89011 0.409 0.11174 0.0
C1913 C 0.91556 0.65225 0.39987 0.0
C1914 C 0.90928 0.63436 0.43235 0.0
C1915 C 0.9024 0.66497 0.3603 0.0
C1916 C 0.88237 0.66032 0.35056 0.0
H1917 H 0.93067 0.65669 0.40659 0.0
H1918 H 0.90802 0.67845 0.33631 0.0
S1919 S 0.85843 0.61531 0.42385 0.0
N1920 N 0.88145 0.61291 0.45132 0.0
N1921 N 0.85718 0.63633 0.37732 0.0
C1922 C 0.87605 0.64243 0.38233 0.0
C1923 C 0.88932 0.62965 0.4229 0.0
C1924 C 0.40553 0.3797 0.33331 0.0
C1925 C 0.3849 0.38003 0.33917 0.0
C1926 C 0.41765 0.39286 0.37603 0.0
C1927 C 0.40976 0.40722 0.4262 0.0
H1928 H 0.4124 0.36915 0.29516 0.0
H1929 H 0.43336 0.39154 0.3705 0.0
S1930 S 0.35652 0.41563 0.456 0.0
N1931 N 0.35724 0.39672 0.39623 0.0
N1932 N 0.37952 0.42164 0.47326 0.0
C1933 C 0.38909 0.40799 0.43039 0.0
C1934 C 0.37685 0.39444 0.38791 0.0
C1935 C 0.37519 0.6445 0.15264 0.0
C1936 C 0.37944 0.6646 0.16276 0.0
C1937 C 0.38786 0.63169 0.11182 0.0
C1938 C 0.4057 0.63813 0.07964 0.0
H1939 H 0.36196 0.63852 0.17749 0.0
H1940 H 0.38373 0.61646 0.10616 0.0
S1941 S 0.42408 0.68922 0.0894 0.0
N1942 N 0.40308 0.69019 0.13644 0.0
N1943 N 0.42674 0.66629 0.0606 0.0
C1944 C 0.41014 0.65819 0.08914 0.0
C1945 C 0.3971 0.67132 0.13005 0.0
C1946 C 0.12189 0.65636 0.92143 0.0
C1947 C 0.12771 0.63743 0.94499 0.0
C1948 C 0.13477 0.6691 0.8807 0.0
C1949 C 0.15405 0.66346 0.86095 0.0
H1950 H 0.10734 0.66148 0.9355 0.0
H1951 H 0.12947 0.68333 0.86324 0.0
S1952 S 0.17655 0.61554 0.90843 0.0
N1953 N 0.15423 0.6139 0.94409 0.0
N1954 N 0.17811 0.63752 0.86973 0.0
C1955 C 0.15994 0.64462 0.88449 0.0
C1956 C 0.14693 0.63176 0.9257 0.0
C1957 C 0.15326 0.39873 0.69539 0.0
C1958 C 0.15162 0.3782 0.68642 0.0
C1959 C 0.14068 0.41196 0.65671 0.0
C1960 C 0.12545 0.40548 0.60772 0.0
H1961 H 0.1646 0.40471 0.73242 0.0
H1962 H 0.14301 0.42751 0.66479 0.0
S1963 S 0.11443 0.35343 0.5633 0.0
N1964 N 0.13317 0.35222 0.62373 0.0
N1965 N 0.10969 0.37694 0.55158 0.0
C1966 C 0.12355 0.38504 0.59806 0.0
C1967 C 0.13654 0.37151 0.63696 0.0
loop_
_geom_bond_atom_site_label_1
_geom_bond_atom_site_label_2
_geom_bond_distance
_geom_bond_site_symmetry_2
_ccdc_geom_bond_type
Co0 O3 1.970 . S
Co0 N17 1.989 . S
Co0 O25 1.967 . S
Co0 O32 1.920 . S
Co1 O4 1.966 . S
Co1 N10 2.022 . S
Co1 N18 1.993 . S
Co1 O26 1.941 . S
C2 O3 1.258 . S
C2 O4 1.263 . S
O3 Co0 1.970 . S
O3 C2 1.258 . S
O4 Co1 1.966 . S
O4 C2 1.263 . S
C5 O6 1.235 . S
C5 O32 1.289 . S
O6 C5 1.235 . S
C7 C9 1.400 . S
C7 N10 1.351 . S
C7 C12 1.501 . S
C8 C9 1.387 . S
C8 N11 1.341 . S
C9 C7 1.400 . S
C9 C8 1.387 . S
N10 Co1 2.022 . S
N10 C7 1.351 . S
N10 N11 1.365 . S
N11 C8 1.341 . S
N11 N10 1.365 . S
N11 H31 0.862 . S
C12 C7 1.501 . S
C12 H13 0.961 . S
C12 H14 0.961 . S
C12 H15 0.960 . S
H13 C12 0.961 . S
H14 C12 0.961 . S
H15 C12 0.960 . S
C16 N17 1.342 . S
C16 C20 1.401 . S
C16 C21 1.499 . S
N17 Co0 1.989 . S
N17 C16 1.342 . S
N17 N18 1.388 . S
N18 Co1 1.993 . S
N18 N17 1.388 . S
N18 C19 1.346 . S
C19 N18 1.346 . S
C19 C20 1.396 . S
C19 C29 1.510 . S
C20 C16 1.401 . S
C20 C19 1.396 . S
C21 C16 1.499 . S
C21 H22 0.959 . S
C21 H23 0.960 . S
C21 H24 0.961 . S
H22 C21 0.959 . S
H23 C21 0.960 . S
H24 C21 0.961 . S
O25 Co0 1.967 . S
O25 C33 1.258 . S
O26 Co1 1.941 . S
O26 C33 1.266 . S
H27 C29 0.959 . S
H28 C29 0.961 . S
C29 C19 1.510 . S
C29 H27 0.959 . S
C29 H28 0.961 . S
C29 H30 0.960 . S
H30 C29 0.960 . S
H31 N11 0.862 . S
O32 Co0 1.920 . S
O32 C5 1.289 . S
C33 O25 1.258 . S
C33 O26 1.266 . S
Co34 O37 1.970 . S
Co34 N51 1.989 . S
Co34 O59 1.967 . S
Co34 O66 1.920 . S
Co35 O38 1.966 . S
Co35 N44 2.022 . S
Co35 N52 1.993 . S
Co35 O60 1.941 . S
C36 O37 1.258 . S
C36 O38 1.263 . S
O37 Co34 1.970 . S
O37 C36 1.258 . S
O38 Co35 1.966 . S
O38 C36 1.263 . S
C39 O40 1.235 . S
C39 O66 1.289 . S
O40 C39 1.235 . S
C41 C43 1.400 . S
C41 N44 1.351 . S
C41 C46 1.501 . S
C42 C43 1.387 . S
C42 N45 1.341 . S
C43 C41 1.400 . S
C43 C42 1.387 . S
N44 Co35 2.022 . S
N44 C41 1.351 . S
N44 N45 1.365 . S
N45 C42 1.341 . S
N45 N44 1.365 . S
N45 H65 0.862 . S
C46 C41 1.501 . S
C46 H47 0.961 . S
C46 H48 0.961 . S
C46 H49 0.960 . S
H47 C46 0.961 . S
H48 C46 0.961 . S
H49 C46 0.960 . S
C50 N51 1.342 . S
C50 C54 1.401 . S
C50 C55 1.499 . S
N51 Co34 1.989 . S
N51 C50 1.342 . S
N51 N52 1.388 . S
N52 Co35 1.993 . S
N52 N51 1.388 . S
N52 C53 1.346 . S
C53 N52 1.346 . S
C53 C54 1.396 . S
C53 C63 1.510 . S
C54 C50 1.401 . S
C54 C53 1.396 . S
C55 C50 1.499 . S
C55 H56 0.959 . S
C55 H57 0.960 . S
C55 H58 0.961 . S
H56 C55 0.959 . S
H57 C55 0.960 . S
H58 C55 0.961 . S
O59 Co34 1.967 . S
O59 C67 1.258 . S
O60 Co35 1.941 . S
O60 C67 1.266 . S
H61 C63 0.959 . S
H62 C63 0.961 . S
C63 C53 1.510 . S
C63 H61 0.959 . S
C63 H62 0.961 . S
C63 H64 0.960 . S
H64 C63 0.960 . S
H65 N45 0.862 . S
O66 Co34 1.920 . S
O66 C39 1.289 . S
C67 O59 1.258 . S
C67 O60 1.266 . S
Co68 O71 1.970 . S
Co68 N85 1.989 . S
Co68 O93 1.967 . S
Co68 O100 1.920 . S
Co69 O72 1.966 . S
Co69 N78 2.022 . S
Co69 N86 1.993 . S
Co69 O94 1.941 . S
C70 O71 1.258 . S
C70 O72 1.263 . S
O71 Co68 1.970 . S
O71 C70 1.258 . S
O72 Co69 1.966 . S
O72 C70 1.263 . S
C73 O74 1.235 . S
C73 O100 1.289 . S
O74 C73 1.235 . S
C75 C77 1.400 . S
C75 N78 1.351 1_554 S
C75 C80 1.501 . S
C76 C77 1.387 . S
C76 N79 1.341 1_554 S
C77 C75 1.400 . S
C77 C76 1.387 . S
N78 Co69 2.022 . S
N78 C75 1.351 1_556 S
N78 N79 1.365 . S
N79 C76 1.341 1_556 S
N79 N78 1.365 . S
N79 H99 0.862 . S
C80 C75 1.501 . S
C80 H81 0.961 . S
C80 H82 0.961 . S
C80 H83 0.960 . S
H81 C80 0.961 . S
H82 C80 0.961 . S
H83 C80 0.960 . S
C84 N85 1.342 . S
C84 C88 1.401 . S
C84 C89 1.499 . S
N85 Co68 1.989 . S
N85 C84 1.342 . S
N85 N86 1.388 . S
N86 Co69 1.993 . S
N86 N85 1.388 . S
N86 C87 1.346 . S
C87 N86 1.346 . S
C87 C88 1.396 . S
C87 C97 1.510 . S
C88 C84 1.401 . S
C88 C87 1.396 . S
C89 C84 1.499 . S
C89 H90 0.959 . S
C89 H91 0.960 . S
C89 H92 0.961 . S
H90 C89 0.959 . S
H91 C89 0.960 . S
H92 C89 0.961 . S
O93 Co68 1.967 . S
O93 C101 1.258 . S
O94 Co69 1.941 . S
O94 C101 1.266 . S
H95 C97 0.959 . S
H96 C97 0.961 . S
C97 C87 1.510 . S
C97 H95 0.959 . S
C97 H96 0.961 . S
C97 H98 0.960 . S
H98 C97 0.960 . S
H99 N79 0.862 . S
O100 Co68 1.920 . S
O100 C73 1.289 . S
C101 O93 1.258 . S
C101 O94 1.266 . S
Co102 O105 1.970 . S
Co102 N119 1.989 . S
Co102 O127 1.967 . S
Co102 O134 1.920 1_554 S
Co103 O106 1.966 . S
Co103 N112 2.022 . S
Co103 N120 1.993 . S
Co103 O128 1.941 . S
C104 O105 1.258 . S
C104 O106 1.263 . S
O105 Co102 1.970 . S
O105 C104 1.258 . S
O106 Co103 1.966 . S
O106 C104 1.263 . S
C107 O108 1.235 . S
C107 O134 1.289 . S
O108 C107 1.235 . S
C109 C111 1.400 . S
C109 N112 1.351 . S
C109 C114 1.501 . S
C110 C111 1.387 . S
C110 N113 1.341 . S
C111 C109 1.400 . S
C111 C110 1.387 . S
N112 Co103 2.022 . S
N112 C109 1.351 . S
N112 N113 1.365 . S
N113 C110 1.341 . S
N113 N112 1.365 . S
N113 H133 0.862 . S
C114 C109 1.501 . S
C114 H115 0.961 . S
C114 H116 0.961 . S
C114 H117 0.960 . S
H115 C114 0.961 . S
H116 C114 0.961 . S
H117 C114 0.960 . S
C118 N119 1.342 1_556 S
C118 C122 1.401 . S
C118 C123 1.499 . S
N119 Co102 1.989 . S
N119 C118 1.342 1_554 S
N119 N120 1.388 . S
N120 Co103 1.993 . S
N120 N119 1.388 . S
N120 C121 1.346 . S
C121 N120 1.346 . S
C121 C122 1.396 1_554 S
C121 C131 1.510 . S
C122 C118 1.401 . S
C122 C121 1.396 1_556 S
C123 C118 1.499 . S
C123 H124 0.959 . S
C123 H125 0.960 . S
C123 H126 0.961 . S
H124 C123 0.959 . S
H125 C123 0.960 . S
H126 C123 0.961 . S
O127 Co102 1.967 . S
O127 C135 1.258 . S
O128 Co103 1.941 . S
O128 C135 1.266 . S
H129 C131 0.959 . S
H130 C131 0.961 . S
C131 C121 1.510 . S
C131 H129 0.959 . S
C131 H130 0.961 . S
C131 H132 0.960 . S
H132 C131 0.960 . S
H133 N113 0.862 . S
O134 Co102 1.920 1_556 S
O134 C107 1.289 . S
C135 O127 1.258 . S
C135 O128 1.266 . S
Co136 O139 1.970 . S
Co136 N153 1.989 . S
Co136 O161 1.967 . S
Co136 O168 1.920 . S
Co137 O140 1.966 . S
Co137 N146 2.022 . S
Co137 N154 1.993 . S
Co137 O162 1.941 . S
C138 O139 1.258 . S
C138 O140 1.263 . S
O139 Co136 1.970 . S
O139 C138 1.258 . S
O140 Co137 1.966 . S
O140 C138 1.263 . S
C141 O142 1.235 . S
C141 O168 1.289 . S
O142 C141 1.235 . S
C143 C145 1.400 . S
C143 N146 1.351 1_556 S
C143 C148 1.501 . S
C144 C145 1.387 . S
C144 N147 1.341 1_556 S
C145 C143 1.400 . S
C145 C144 1.387 . S
N146 Co137 2.022 . S
N146 C143 1.351 1_554 S
N146 N147 1.365 . S
N147 C144 1.341 1_554 S
N147 N146 1.365 . S
N147 H167 0.862 . S
C148 C143 1.501 . S
C148 H149 0.961 . S
C148 H150 0.961 . S
C148 H151 0.960 . S
H149 C148 0.961 . S
H150 C148 0.961 . S
H151 C148 0.960 . S
C152 N153 1.342 . S
C152 C156 1.401 . S
C152 C157 1.499 . S
N153 Co136 1.989 . S
N153 C152 1.342 . S
N153 N154 1.388 . S
N154 Co137 1.993 . S
N154 N153 1.388 . S
N154 C155 1.346 . S
C155 N154 1.346 . S
C155 C156 1.396 . S
C155 C165 1.510 . S
C156 C152 1.401 . S
C156 C155 1.396 . S
C157 C152 1.499 . S
C157 H158 0.959 . S
C157 H159 0.960 . S
C157 H160 0.961 . S
H158 C157 0.959 . S
H159 C157 0.960 . S
H160 C157 0.961 . S
O161 Co136 1.967 . S
O161 C169 1.258 . S
O162 Co137 1.941 . S
O162 C169 1.266 . S
H163 C165 0.959 . S
H164 C165 0.961 . S
C165 C155 1.510 . S
C165 H163 0.959 . S
C165 H164 0.961 . S
C165 H166 0.960 . S
H166 C165 0.960 . S
H167 N147 0.862 . S
O168 Co136 1.920 . S
O168 C141 1.289 . S
C169 O161 1.258 . S
C169 O162 1.266 . S
Co170 O173 1.970 . S
Co170 N187 1.989 . S
Co170 O195 1.967 . S
Co170 O202 1.920 . S
Co171 O174 1.966 . S
Co171 N180 2.022 . S
Co171 N188 1.993 . S
Co171 O196 1.941 . S
C172 O173 1.258 . S
C172 O174 1.263 . S
O173 Co170 1.970 . S
O173 C172 1.258 . S
O174 Co171 1.966 . S
O174 C172 1.263 . S
C175 O176 1.235 . S
C175 O202 1.289 . S
O176 C175 1.235 . S
C177 C179 1.400 . S
C177 N180 1.351 . S
C177 C182 1.501 . S
C178 C179 1.387 . S
C178 N181 1.341 . S
C179 C177 1.400 . S
C179 C178 1.387 . S
N180 Co171 2.022 . S
N180 C177 1.351 . S
N180 N181 1.365 . S
N181 C178 1.341 . S
N181 N180 1.365 . S
N181 H201 0.862 . S
C182 C177 1.501 . S
C182 H183 0.961 . S
C182 H184 0.961 . S
C182 H185 0.960 . S
H183 C182 0.961 . S
H184 C182 0.961 . S
H185 C182 0.960 . S
C186 N187 1.342 . S
C186 C190 1.401 . S
C186 C191 1.499 . S
N187 Co170 1.989 . S
N187 C186 1.342 . S
N187 N188 1.388 . S
N188 Co171 1.993 . S
N188 N187 1.388 . S
N188 C189 1.346 . S
C189 N188 1.346 . S
C189 C190 1.396 . S
C189 C199 1.510 . S
C190 C186 1.401 . S
C190 C189 1.396 . S
C191 C186 1.499 . S
C191 H192 0.959 . S
C191 H193 0.960 . S
C191 H194 0.961 . S
H192 C191 0.959 . S
H193 C191 0.960 . S
H194 C191 0.961 . S
O195 Co170 1.967 . S
O195 C203 1.258 . S
O196 Co171 1.941 . S
O196 C203 1.266 . S
H197 C199 0.959 . S
H198 C199 0.961 . S
C199 C189 1.510 . S
C199 H197 0.959 . S
C199 H198 0.961 . S
C199 H200 0.960 . S
H200 C199 0.960 . S
H201 N181 0.862 . S
O202 Co170 1.920 . S
O202 C175 1.289 . S
C203 O195 1.258 . S
C203 O196 1.266 . S
Co204 O207 1.970 . S
Co204 N221 1.989 . S
Co204 O229 1.967 . S
Co204 O236 1.920 . S
Co205 O208 1.966 . S
Co205 N214 2.022 . S
Co205 N222 1.993 . S
Co205 O230 1.941 . S
C206 O207 1.258 . S
C206 O208 1.263 . S
O207 Co204 1.970 . S
O207 C206 1.258 . S
O208 Co205 1.966 . S
O208 C206 1.263 . S
C209 O210 1.235 . S
C209 O236 1.289 . S
O210 C209 1.235 . S
C211 C213 1.400 . S
C211 N214 1.351 . S
C211 C216 1.501 . S
C212 C213 1.387 . S
C212 N215 1.341 . S
C213 C211 1.400 . S
C213 C212 1.387 . S
N214 Co205 2.022 . S
N214 C211 1.351 . S
N214 N215 1.365 . S
N215 C212 1.341 . S
N215 N214 1.365 . S
N215 H235 0.862 . S
C216 C211 1.501 . S
C216 H217 0.961 . S
C216 H218 0.961 . S
C216 H219 0.960 . S
H217 C216 0.961 . S
H218 C216 0.961 . S
H219 C216 0.960 . S
C220 N221 1.342 . S
C220 C224 1.401 . S
C220 C225 1.499 . S
N221 Co204 1.989 . S
N221 C220 1.342 . S
N221 N222 1.388 . S
N222 Co205 1.993 . S
N222 N221 1.388 . S
N222 C223 1.346 . S
C223 N222 1.346 . S
C223 C224 1.396 . S
C223 C233 1.510 . S
C224 C220 1.401 . S
C224 C223 1.396 . S
C225 C220 1.499 . S
C225 H226 0.959 . S
C225 H227 0.960 . S
C225 H228 0.961 . S
H226 C225 0.959 . S
H227 C225 0.960 . S
H228 C225 0.961 . S
O229 Co204 1.967 . S
O229 C237 1.258 . S
O230 Co205 1.941 . S
O230 C237 1.266 . S
H231 C233 0.959 . S
H232 C233 0.961 . S
C233 C223 1.510 . S
C233 H231 0.959 . S
C233 H232 0.961 . S
C233 H234 0.960 . S
H234 C233 0.960 . S
H235 N215 0.862 . S
O236 Co204 1.920 . S
O236 C209 1.289 . S
C237 O229 1.258 . S
C237 O230 1.266 . S
Co238 O241 1.970 . S
Co238 N255 1.989 . S
Co238 O263 1.967 . S
Co238 O270 1.920 1_556 S
Co239 O242 1.966 . S
Co239 N248 2.022 . S
Co239 N256 1.993 . S
Co239 O264 1.941 . S
C240 O241 1.258 . S
C240 O242 1.263 . S
O241 Co238 1.970 . S
O241 C240 1.258 . S
O242 Co239 1.966 . S
O242 C240 1.263 . S
C243 O244 1.235 . S
C243 O270 1.289 . S
O244 C243 1.235 . S
C245 C247 1.400 . S
C245 N248 1.351 . S
C245 C250 1.501 . S
C246 C247 1.387 . S
C246 N249 1.341 . S
C247 C245 1.400 . S
C247 C246 1.387 . S
N248 Co239 2.022 . S
N248 C245 1.351 . S
N248 N249 1.365 . S
N249 C246 1.341 . S
N249 N248 1.365 . S
N249 H269 0.862 . S
C250 C245 1.501 . S
C250 H251 0.961 . S
C250 H252 0.961 . S
C250 H253 0.960 . S
H251 C250 0.961 . S
H252 C250 0.961 . S
H253 C250 0.960 . S
C254 N255 1.342 1_554 S
C254 C258 1.401 . S
C254 C259 1.499 . S
N255 Co238 1.989 . S
N255 C254 1.342 1_556 S
N255 N256 1.388 . S
N256 Co239 1.993 . S
N256 N255 1.388 . S
N256 C257 1.346 . S
C257 N256 1.346 . S
C257 C258 1.396 1_556 S
C257 C267 1.510 . S
C258 C254 1.401 . S
C258 C257 1.396 1_554 S
C259 C254 1.499 . S
C259 H260 0.959 . S
C259 H261 0.960 . S
C259 H262 0.961 . S
H260 C259 0.959 . S
H261 C259 0.960 . S
H262 C259 0.961 . S
O263 Co238 1.967 . S
O263 C271 1.258 . S
O264 Co239 1.941 . S
O264 C271 1.266 . S
H265 C267 0.959 . S
H266 C267 0.961 . S
C267 C257 1.510 . S
C267 H265 0.959 . S
C267 H266 0.961 . S
C267 H268 0.960 . S
H268 C267 0.960 . S
H269 N249 0.862 . S
O270 Co238 1.920 1_554 S
O270 C243 1.289 . S
C271 O263 1.258 . S
C271 O264 1.266 . S
Co272 O275 1.970 . S
Co272 N289 1.989 . S
Co272 O297 1.967 . S
Co272 O304 1.920 . S
Co273 O276 1.966 . S
Co273 N282 2.022 . S
Co273 N290 1.993 . S
Co273 O298 1.941 . S
C274 O275 1.258 . S
C274 O276 1.263 . S
O275 Co272 1.970 . S
O275 C274 1.258 . S
O276 Co273 1.966 . S
O276 C274 1.263 . S
C277 O278 1.235 . S
C277 O304 1.289 . S
O278 C277 1.235 . S
C279 C281 1.400 . S
C279 N282 1.351 . S
C279 C284 1.501 . S
C280 C281 1.387 . S
C280 N283 1.341 . S
C281 C279 1.400 . S
C281 C280 1.387 . S
N282 Co273 2.022 . S
N282 C279 1.351 . S
N282 N283 1.365 . S
N283 C280 1.341 . S
N283 N282 1.365 . S
N283 H303 0.862 . S
C284 C279 1.501 . S
C284 H285 0.961 . S
C284 H286 0.961 . S
C284 H287 0.960 . S
H285 C284 0.961 . S
H286 C284 0.961 . S
H287 C284 0.960 . S
C288 N289 1.342 . S
C288 C292 1.401 . S
C288 C293 1.499 . S
N289 Co272 1.989 . S
N289 C288 1.342 . S
N289 N290 1.388 . S
N290 Co273 1.993 . S
N290 N289 1.388 . S
N290 C291 1.346 . S
C291 N290 1.346 . S
C291 C292 1.396 . S
C291 C301 1.510 . S
C292 C288 1.401 . S
C292 C291 1.396 . S
C293 C288 1.499 . S
C293 H294 0.959 . S
C293 H295 0.960 . S
C293 H296 0.961 . S
H294 C293 0.959 . S
H295 C293 0.960 . S
H296 C293 0.961 . S
O297 Co272 1.967 . S
O297 C305 1.258 . S
O298 Co273 1.941 . S
O298 C305 1.266 . S
H299 C301 0.959 . S
H300 C301 0.961 . S
C301 C291 1.510 . S
C301 H299 0.959 . S
C301 H300 0.961 . S
C301 H302 0.960 . S
H302 C301 0.960 . S
H303 N283 0.862 . S
O304 Co272 1.920 . S
O304 C277 1.289 . S
C305 O297 1.258 . S
C305 O298 1.266 . S
Co306 O309 1.970 . S
Co306 N323 1.989 . S
Co306 O331 1.967 . S
Co306 O338 1.920 . S
Co307 O310 1.966 . S
Co307 N316 2.022 . S
Co307 N324 1.993 . S
Co307 O332 1.941 . S
C308 O309 1.258 . S
C308 O310 1.263 . S
O309 Co306 1.970 . S
O309 C308 1.258 . S
O310 Co307 1.966 . S
O310 C308 1.263 . S
C311 O312 1.235 . S
C311 O338 1.289 . S
O312 C311 1.235 . S
C313 C315 1.400 . S
C313 N316 1.351 . S
C313 C318 1.501 . S
C314 C315 1.387 . S
C314 N317 1.341 . S
C315 C313 1.400 . S
C315 C314 1.387 . S
N316 Co307 2.022 . S
N316 C313 1.351 . S
N316 N317 1.365 . S
N317 C314 1.341 . S
N317 N316 1.365 . S
N317 H337 0.862 . S
C318 C313 1.501 . S
C318 H319 0.961 . S
C318 H320 0.961 . S
C318 H321 0.960 . S
H319 C318 0.961 . S
H320 C318 0.961 . S
H321 C318 0.960 . S
C322 N323 1.342 . S
C322 C326 1.401 . S
C322 C327 1.499 . S
N323 Co306 1.989 . S
N323 C322 1.342 . S
N323 N324 1.388 . S
N324 Co307 1.993 . S
N324 N323 1.388 . S
N324 C325 1.346 . S
C325 N324 1.346 . S
C325 C326 1.396 . S
C325 C335 1.510 . S
C326 C322 1.401 . S
C326 C325 1.396 . S
C327 C322 1.499 . S
C327 H328 0.959 . S
C327 H329 0.960 . S
C327 H330 0.961 . S
H328 C327 0.959 . S
H329 C327 0.960 . S
H330 C327 0.961 . S
O331 Co306 1.967 . S
O331 C339 1.258 . S
O332 Co307 1.941 . S
O332 C339 1.266 . S
H333 C335 0.959 . S
H334 C335 0.961 . S
C335 C325 1.510 . S
C335 H333 0.959 . S
C335 H334 0.961 . S
C335 H336 0.960 . S
H336 C335 0.960 . S
H337 N317 0.862 . S
O338 Co306 1.920 . S
O338 C311 1.289 . S
C339 O331 1.258 . S
C339 O332 1.266 . S
Co340 O343 1.970 . S
Co340 N357 1.989 . S
Co340 O365 1.967 . S
Co340 O372 1.920 . S
Co341 O344 1.966 . S
Co341 N350 2.022 . S
Co341 N358 1.993 . S
Co341 O366 1.941 . S
C342 O343 1.258 . S
C342 O344 1.263 . S
O343 Co340 1.970 . S
O343 C342 1.258 . S
O344 Co341 1.966 . S
O344 C342 1.263 . S
C345 O346 1.235 . S
C345 O372 1.289 . S
O346 C345 1.235 . S
C347 C349 1.400 . S
C347 N350 1.351 1_556 S
C347 C352 1.501 . S
C348 C349 1.387 . S
C348 N351 1.341 1_556 S
C349 C347 1.400 . S
C349 C348 1.387 . S
N350 Co341 2.022 . S
N350 C347 1.351 1_554 S
N350 N351 1.365 . S
N351 C348 1.341 1_554 S
N351 N350 1.365 . S
N351 H371 0.862 . S
C352 C347 1.501 . S
C352 H353 0.961 . S
C352 H354 0.961 . S
C352 H355 0.960 . S
H353 C352 0.961 . S
H354 C352 0.961 . S
H355 C352 0.960 . S
C356 N357 1.342 . S
C356 C360 1.401 . S
C356 C361 1.499 . S
N357 Co340 1.989 . S
N357 C356 1.342 . S
N357 N358 1.388 . S
N358 Co341 1.993 . S
N358 N357 1.388 . S
N358 C359 1.346 . S
C359 N358 1.346 . S
C359 C360 1.396 . S
C359 C369 1.510 . S
C360 C356 1.401 . S
C360 C359 1.396 . S
C361 C356 1.499 . S
C361 H362 0.959 . S
C361 H363 0.960 . S
C361 H364 0.961 . S
H362 C361 0.959 . S
H363 C361 0.960 . S
H364 C361 0.961 . S
O365 Co340 1.967 . S
O365 C373 1.258 . S
O366 Co341 1.941 . S
O366 C373 1.266 . S
H367 C369 0.959 . S
H368 C369 0.961 . S
C369 C359 1.510 . S
C369 H367 0.959 . S
C369 H368 0.961 . S
C369 H370 0.960 . S
H370 C369 0.960 . S
H371 N351 0.862 . S
O372 Co340 1.920 . S
O372 C345 1.289 . S
C373 O365 1.258 . S
C373 O366 1.266 . S
Co374 O377 1.970 . S
Co374 N391 1.989 . S
Co374 O399 1.967 . S
Co374 O406 1.920 1_556 S
Co375 O378 1.966 . S
Co375 N384 2.022 . S
Co375 N392 1.993 . S
Co375 O400 1.941 . S
C376 O377 1.258 . S
C376 O378 1.263 . S
O377 Co374 1.970 . S
O377 C376 1.258 . S
O378 Co375 1.966 . S
O378 C376 1.263 . S
C379 O380 1.235 . S
C379 O406 1.289 . S
O380 C379 1.235 . S
C381 C383 1.400 . S
C381 N384 1.351 . S
C381 C386 1.501 . S
C382 C383 1.387 . S
C382 N385 1.341 . S
C383 C381 1.400 . S
C383 C382 1.387 . S
N384 Co375 2.022 . S
N384 C381 1.351 . S
N384 N385 1.365 . S
N385 C382 1.341 . S
N385 N384 1.365 . S
N385 H405 0.862 . S
C386 C381 1.501 . S
C386 H387 0.961 . S
C386 H388 0.961 . S
C386 H389 0.960 . S
H387 C386 0.961 . S
H388 C386 0.961 . S
H389 C386 0.960 . S
C390 N391 1.342 1_554 S
C390 C394 1.401 . S
C390 C395 1.499 . S
N391 Co374 1.989 . S
N391 C390 1.342 1_556 S
N391 N392 1.388 . S
N392 Co375 1.993 . S
N392 N391 1.388 . S
N392 C393 1.346 . S
C393 N392 1.346 . S
C393 C394 1.396 1_556 S
C393 C403 1.510 . S
C394 C390 1.401 . S
C394 C393 1.396 1_554 S
C395 C390 1.499 . S
C395 H396 0.959 . S
C395 H397 0.960 . S
C395 H398 0.961 . S
H396 C395 0.959 . S
H397 C395 0.960 . S
H398 C395 0.961 . S
O399 Co374 1.967 . S
O399 C407 1.258 . S
O400 Co375 1.941 . S
O400 C407 1.266 . S
H401 C403 0.959 . S
H402 C403 0.961 . S
C403 C393 1.510 . S
C403 H401 0.959 . S
C403 H402 0.961 . S
C403 H404 0.960 . S
H404 C403 0.960 . S
H405 N385 0.862 . S
O406 Co374 1.920 1_554 S
O406 C379 1.289 . S
C407 O399 1.258 . S
C407 O400 1.266 . S
Co408 O411 1.970 . S
Co408 N425 1.989 . S
Co408 O433 1.967 . S
Co408 O440 1.920 . S
Co409 O412 1.966 . S
Co409 N418 2.022 . S
Co409 N426 1.993 . S
Co409 O434 1.941 . S
C410 O411 1.258 . S
C410 O412 1.263 . S
O411 Co408 1.970 . S
O411 C410 1.258 . S
O412 Co409 1.966 . S
O412 C410 1.263 . S
C413 O414 1.235 . S
C413 O440 1.289 . S
O414 C413 1.235 . S
C415 C417 1.400 . S
C415 N418 1.351 1_554 S
C415 C420 1.501 . S
C416 C417 1.387 . S
C416 N419 1.341 1_554 S
C417 C415 1.400 . S
C417 C416 1.387 . S
N418 Co409 2.022 . S
N418 C415 1.351 1_556 S
N418 N419 1.365 . S
N419 C416 1.341 1_556 S
N419 N418 1.365 . S
N419 H439 0.862 . S
C420 C415 1.501 . S
C420 H421 0.961 . S
C420 H422 0.961 . S
C420 H423 0.960 . S
H421 C420 0.961 . S
H422 C420 0.961 . S
H423 C420 0.960 . S
C424 N425 1.342 . S
C424 C428 1.401 . S
C424 C429 1.499 . S
N425 Co408 1.989 . S
N425 C424 1.342 . S
N425 N426 1.388 . S
N426 Co409 1.993 . S
N426 N425 1.388 . S
N426 C427 1.346 . S
C427 N426 1.346 . S
C427 C428 1.396 . S
C427 C437 1.510 . S
C428 C424 1.401 . S
C428 C427 1.396 . S
C429 C424 1.499 . S
C429 H430 0.959 . S
C429 H431 0.960 . S
C429 H432 0.961 . S
H430 C429 0.959 . S
H431 C429 0.960 . S
H432 C429 0.961 . S
O433 Co408 1.967 . S
O433 C441 1.258 . S
O434 Co409 1.941 . S
O434 C441 1.266 . S
H435 C437 0.959 . S
H436 C437 0.961 . S
C437 C427 1.510 . S
C437 H435 0.959 . S
C437 H436 0.961 . S
C437 H438 0.960 . S
H438 C437 0.960 . S
H439 N419 0.862 . S
O440 Co408 1.920 . S
O440 C413 1.289 . S
C441 O433 1.258 . S
C441 O434 1.266 . S
Co442 O445 1.970 . S
Co442 N459 1.989 . S
Co442 O467 1.967 . S
Co442 O474 1.920 . S
Co443 O446 1.966 . S
Co443 N452 2.022 . S
Co443 N460 1.993 . S
Co443 O468 1.941 . S
C444 O445 1.258 . S
C444 O446 1.263 . S
O445 Co442 1.970 . S
O445 C444 1.258 . S
O446 Co443 1.966 . S
O446 C444 1.263 . S
C447 O448 1.235 . S
C447 O474 1.289 . S
O448 C447 1.235 . S
C449 C451 1.400 . S
C449 N452 1.351 . S
C449 C454 1.501 . S
C450 C451 1.387 . S
C450 N453 1.341 . S
C451 C449 1.400 . S
C451 C450 1.387 . S
N452 Co443 2.022 . S
N452 C449 1.351 . S
N452 N453 1.365 . S
N453 C450 1.341 . S
N453 N452 1.365 . S
N453 H473 0.862 . S
C454 C449 1.501 . S
C454 H455 0.961 . S
C454 H456 0.961 . S
C454 H457 0.960 . S
H455 C454 0.961 . S
H456 C454 0.961 . S
H457 C454 0.960 . S
C458 N459 1.342 . S
C458 C462 1.401 . S
C458 C463 1.499 . S
N459 Co442 1.989 . S
N459 C458 1.342 . S
N459 N460 1.388 . S
N460 Co443 1.993 . S
N460 N459 1.388 . S
N460 C461 1.346 . S
C461 N460 1.346 . S
C461 C462 1.396 . S
C461 C471 1.510 . S
C462 C458 1.401 . S
C462 C461 1.396 . S
C463 C458 1.499 . S
C463 H464 0.959 . S
C463 H465 0.960 . S
C463 H466 0.961 . S
H464 C463 0.959 . S
H465 C463 0.960 . S
H466 C463 0.961 . S
O467 Co442 1.967 . S
O467 C475 1.258 . S
O468 Co443 1.941 . S
O468 C475 1.266 . S
H469 C471 0.959 . S
H470 C471 0.961 . S
C471 C461 1.510 . S
C471 H469 0.959 . S
C471 H470 0.961 . S
C471 H472 0.960 . S
H472 C471 0.960 . S
H473 N453 0.862 . S
O474 Co442 1.920 . S
O474 C447 1.289 . S
C475 O467 1.258 . S
C475 O468 1.266 . S
Co476 O479 1.970 . S
Co476 N493 1.989 . S
Co476 O501 1.967 . S
Co476 O508 1.920 . S
Co477 O480 1.966 . S
Co477 N486 2.022 . S
Co477 N494 1.993 . S
Co477 O502 1.941 . S
C478 O479 1.258 . S
C478 O480 1.263 . S
O479 Co476 1.970 . S
O479 C478 1.258 . S
O480 Co477 1.966 . S
O480 C478 1.263 . S
C481 O482 1.235 . S
C481 O508 1.289 . S
O482 C481 1.235 . S
C483 C485 1.400 . S
C483 N486 1.351 . S
C483 C488 1.501 . S
C484 C485 1.387 . S
C484 N487 1.341 . S
C485 C483 1.400 . S
C485 C484 1.387 . S
N486 Co477 2.022 . S
N486 C483 1.351 . S
N486 N487 1.365 . S
N487 C484 1.341 . S
N487 N486 1.365 . S
N487 H507 0.862 . S
C488 C483 1.501 . S
C488 H489 0.961 . S
C488 H490 0.961 . S
C488 H491 0.960 . S
H489 C488 0.961 . S
H490 C488 0.961 . S
H491 C488 0.960 . S
C492 N493 1.342 . S
C492 C496 1.401 . S
C492 C497 1.499 . S
N493 Co476 1.989 . S
N493 C492 1.342 . S
N493 N494 1.388 . S
N494 Co477 1.993 . S
N494 N493 1.388 . S
N494 C495 1.346 . S
C495 N494 1.346 . S
C495 C496 1.396 . S
C495 C505 1.510 . S
C496 C492 1.401 . S
C496 C495 1.396 . S
C497 C492 1.499 . S
C497 H498 0.959 . S
C497 H499 0.960 . S
C497 H500 0.961 . S
H498 C497 0.959 . S
H499 C497 0.960 . S
H500 C497 0.961 . S
O501 Co476 1.967 . S
O501 C509 1.258 . S
O502 Co477 1.941 . S
O502 C509 1.266 . S
H503 C505 0.959 . S
H504 C505 0.961 . S
C505 C495 1.510 . S
C505 H503 0.959 . S
C505 H504 0.961 . S
C505 H506 0.960 . S
H506 C505 0.960 . S
H507 N487 0.862 . S
O508 Co476 1.920 . S
O508 C481 1.289 . S
C509 O501 1.258 . S
C509 O502 1.266 . S
Co510 O513 1.970 . S
Co510 N527 1.989 . S
Co510 O535 1.967 . S
Co510 O542 1.920 1_554 S
Co511 O514 1.966 . S
Co511 N520 2.022 . S
Co511 N528 1.993 . S
Co511 O536 1.941 . S
C512 O513 1.258 . S
C512 O514 1.263 . S
O513 Co510 1.970 . S
O513 C512 1.258 . S
O514 Co511 1.966 . S
O514 C512 1.263 . S
C515 O516 1.235 . S
C515 O542 1.289 . S
O516 C515 1.235 . S
C517 C519 1.400 . S
C517 N520 1.351 . S
C517 C522 1.501 . S
C518 C519 1.387 . S
C518 N521 1.341 . S
C519 C517 1.400 . S
C519 C518 1.387 . S
N520 Co511 2.022 . S
N520 C517 1.351 . S
N520 N521 1.365 . S
N521 C518 1.341 . S
N521 N520 1.365 . S
N521 H541 0.862 . S
C522 C517 1.501 . S
C522 H523 0.961 . S
C522 H524 0.961 . S
C522 H525 0.960 . S
H523 C522 0.961 . S
H524 C522 0.961 . S
H525 C522 0.960 . S
C526 N527 1.342 1_556 S
C526 C530 1.401 . S
C526 C531 1.499 . S
N527 Co510 1.989 . S
N527 C526 1.342 1_554 S
N527 N528 1.388 . S
N528 Co511 1.993 . S
N528 N527 1.388 . S
N528 C529 1.346 . S
C529 N528 1.346 . S
C529 C530 1.396 1_554 S
C529 C539 1.510 . S
C530 C526 1.401 . S
C530 C529 1.396 1_556 S
C531 C526 1.499 . S
C531 H532 0.959 . S
C531 H533 0.960 . S
C531 H534 0.961 . S
H532 C531 0.959 . S
H533 C531 0.960 . S
H534 C531 0.961 . S
O535 Co510 1.967 . S
O535 C543 1.258 . S
O536 Co511 1.941 . S
O536 C543 1.266 . S
H537 C539 0.959 . S
H538 C539 0.961 . S
C539 C529 1.510 . S
C539 H537 0.959 . S
C539 H538 0.961 . S
C539 H540 0.960 . S
H540 C539 0.960 . S
H541 N521 0.862 . S
O542 Co510 1.920 1_556 S
O542 C515 1.289 . S
C543 O535 1.258 . S
C543 O536 1.266 . S
Co544 O547 1.970 . S
Co544 N561 1.989 . S
Co544 O569 1.967 . S
Co544 O576 1.920 . S
Co545 O548 1.966 . S
Co545 N554 2.022 . S
Co545 N562 1.993 . S
Co545 O570 1.941 . S
C546 O547 1.258 . S
C546 O548 1.263 . S
O547 Co544 1.970 . S
O547 C546 1.258 . S
O548 Co545 1.966 . S
O548 C546 1.263 . S
C549 O550 1.235 . S
C549 O576 1.289 . S
O550 C549 1.235 . S
C551 C553 1.400 . S
C551 N554 1.351 1_554 S
C551 C556 1.501 . S
C552 C553 1.387 . S
C552 N555 1.341 1_554 S
C553 C551 1.400 . S
C553 C552 1.387 . S
N554 Co545 2.022 . S
N554 C551 1.351 1_556 S
N554 N555 1.365 . S
N555 C552 1.341 1_556 S
N555 N554 1.365 . S
N555 H575 0.862 . S
C556 C551 1.501 . S
C556 H557 0.961 . S
C556 H558 0.961 . S
C556 H559 0.960 . S
H557 C556 0.961 . S
H558 C556 0.961 . S
H559 C556 0.960 . S
C560 N561 1.342 . S
C560 C564 1.401 . S
C560 C565 1.499 . S
N561 Co544 1.989 . S
N561 C560 1.342 . S
N561 N562 1.388 . S
N562 Co545 1.993 . S
N562 N561 1.388 . S
N562 C563 1.346 . S
C563 N562 1.346 . S
C563 C564 1.396 . S
C563 C573 1.510 . S
C564 C560 1.401 . S
C564 C563 1.396 . S
C565 C560 1.499 . S
C565 H566 0.959 . S
C565 H567 0.960 . S
C565 H568 0.961 . S
H566 C565 0.959 . S
H567 C565 0.960 . S
H568 C565 0.961 . S
O569 Co544 1.967 . S
O569 C577 1.258 . S
O570 Co545 1.941 . S
O570 C577 1.266 . S
H571 C573 0.959 . S
H572 C573 0.961 . S
C573 C563 1.510 . S
C573 H571 0.959 . S
C573 H572 0.961 . S
C573 H574 0.960 . S
H574 C573 0.960 . S
H575 N555 0.862 . S
O576 Co544 1.920 . S
O576 C549 1.289 . S
C577 O569 1.258 . S
C577 O570 1.266 . S
Co578 O581 1.970 . S
Co578 N595 1.989 . S
Co578 O603 1.967 . S
Co578 O610 1.920 1_554 S
Co579 O582 1.966 . S
Co579 N588 2.022 . S
Co579 N596 1.993 . S
Co579 O604 1.941 . S
C580 O581 1.258 . S
C580 O582 1.263 . S
O581 Co578 1.970 . S
O581 C580 1.258 . S
O582 Co579 1.966 . S
O582 C580 1.263 . S
C583 O584 1.235 . S
C583 O610 1.289 . S
O584 C583 1.235 . S
C585 C587 1.400 . S
C585 N588 1.351 . S
C585 C590 1.501 . S
C586 C587 1.387 . S
C586 N589 1.341 . S
C587 C585 1.400 . S
C587 C586 1.387 . S
N588 Co579 2.022 . S
N588 C585 1.351 . S
N588 N589 1.365 . S
N589 C586 1.341 . S
N589 N588 1.365 . S
N589 H609 0.862 . S
C590 C585 1.501 . S
C590 H591 0.961 . S
C590 H592 0.961 . S
C590 H593 0.960 . S
H591 C590 0.961 . S
H592 C590 0.961 . S
H593 C590 0.960 . S
C594 N595 1.342 1_556 S
C594 C598 1.401 . S
C594 C599 1.499 . S
N595 Co578 1.989 . S
N595 C594 1.342 1_554 S
N595 N596 1.388 . S
N596 Co579 1.993 . S
N596 N595 1.388 . S
N596 C597 1.346 . S
C597 N596 1.346 . S
C597 C598 1.396 1_554 S
C597 C607 1.510 . S
C598 C594 1.401 . S
C598 C597 1.396 1_556 S
C599 C594 1.499 . S
C599 H600 0.959 . S
C599 H601 0.960 . S
C599 H602 0.961 . S
H600 C599 0.959 . S
H601 C599 0.960 . S
H602 C599 0.961 . S
O603 Co578 1.967 . S
O603 C611 1.258 . S
O604 Co579 1.941 . S
O604 C611 1.266 . S
H605 C607 0.959 . S
H606 C607 0.961 . S
C607 C597 1.510 . S
C607 H605 0.959 . S
C607 H606 0.961 . S
C607 H608 0.960 . S
H608 C607 0.960 . S
H609 N589 0.862 . S
O610 Co578 1.920 1_556 S
O610 C583 1.289 . S
C611 O603 1.258 . S
C611 O604 1.266 . S
Co612 O615 1.970 . S
Co612 N629 1.989 . S
Co612 O637 1.967 . S
Co612 O644 1.920 . S
Co613 O616 1.966 . S
Co613 N622 2.022 . S
Co613 N630 1.993 . S
Co613 O638 1.941 . S
C614 O615 1.258 . S
C614 O616 1.263 . S
O615 Co612 1.970 . S
O615 C614 1.258 . S
O616 Co613 1.966 . S
O616 C614 1.263 . S
C617 O618 1.235 . S
C617 O644 1.289 . S
O618 C617 1.235 . S
C619 C621 1.400 . S
C619 N622 1.351 . S
C619 C624 1.501 . S
C620 C621 1.387 . S
C620 N623 1.341 . S
C621 C619 1.400 . S
C621 C620 1.387 . S
N622 Co613 2.022 . S
N622 C619 1.351 . S
N622 N623 1.365 . S
N623 C620 1.341 . S
N623 N622 1.365 . S
N623 H643 0.862 . S
C624 C619 1.501 . S
C624 H625 0.961 . S
C624 H626 0.961 . S
C624 H627 0.960 . S
H625 C624 0.961 . S
H626 C624 0.961 . S
H627 C624 0.960 . S
C628 N629 1.342 . S
C628 C632 1.401 . S
C628 C633 1.499 . S
N629 Co612 1.989 . S
N629 C628 1.342 . S
N629 N630 1.388 . S
N630 Co613 1.993 . S
N630 N629 1.388 . S
N630 C631 1.346 . S
C631 N630 1.346 . S
C631 C632 1.396 . S
C631 C641 1.510 . S
C632 C628 1.401 . S
C632 C631 1.396 . S
C633 C628 1.499 . S
C633 H634 0.959 . S
C633 H635 0.960 . S
C633 H636 0.961 . S
H634 C633 0.959 . S
H635 C633 0.960 . S
H636 C633 0.961 . S
O637 Co612 1.967 . S
O637 C645 1.258 . S
O638 Co613 1.941 . S
O638 C645 1.266 . S
H639 C641 0.959 . S
H640 C641 0.961 . S
C641 C631 1.510 . S
C641 H639 0.959 . S
C641 H640 0.961 . S
C641 H642 0.960 . S
H642 C641 0.960 . S
H643 N623 0.862 . S
O644 Co612 1.920 . S
O644 C617 1.289 . S
C645 O637 1.258 . S
C645 O638 1.266 . S
Co646 O649 1.970 . S
Co646 N663 1.989 . S
Co646 O671 1.967 . S
Co646 O678 1.920 . S
Co647 O650 1.966 . S
Co647 N656 2.022 . S
Co647 N664 1.993 . S
Co647 O672 1.941 . S
C648 O649 1.258 . S
C648 O650 1.263 . S
O649 Co646 1.970 . S
O649 C648 1.258 . S
O650 Co647 1.966 . S
O650 C648 1.263 . S
C651 O652 1.235 . S
C651 O678 1.289 . S
O652 C651 1.235 . S
C653 C655 1.400 . S
C653 N656 1.351 . S
C653 C658 1.501 . S
C654 C655 1.387 . S
C654 N657 1.341 . S
C655 C653 1.400 . S
C655 C654 1.387 . S
N656 Co647 2.022 . S
N656 C653 1.351 . S
N656 N657 1.365 . S
N657 C654 1.341 . S
N657 N656 1.365 . S
N657 H677 0.862 . S
C658 C653 1.501 . S
C658 H659 0.961 . S
C658 H660 0.961 . S
C658 H661 0.960 . S
H659 C658 0.961 . S
H660 C658 0.961 . S
H661 C658 0.960 . S
C662 N663 1.342 . S
C662 C666 1.401 . S
C662 C667 1.499 . S
N663 Co646 1.989 . S
N663 C662 1.342 . S
N663 N664 1.388 . S
N664 Co647 1.993 . S
N664 N663 1.388 . S
N664 C665 1.346 . S
C665 N664 1.346 . S
C665 C666 1.396 . S
C665 C675 1.510 . S
C666 C662 1.401 . S
C666 C665 1.396 . S
C667 C662 1.499 . S
C667 H668 0.959 . S
C667 H669 0.960 . S
C667 H670 0.961 . S
H668 C667 0.959 . S
H669 C667 0.960 . S
H670 C667 0.961 . S
O671 Co646 1.967 . S
O671 C679 1.258 . S
O672 Co647 1.941 . S
O672 C679 1.266 . S
H673 C675 0.959 . S
H674 C675 0.961 . S
C675 C665 1.510 . S
C675 H673 0.959 . S
C675 H674 0.961 . S
C675 H676 0.960 . S
H676 C675 0.960 . S
H677 N657 0.862 . S
O678 Co646 1.920 . S
O678 C651 1.289 . S
C679 O671 1.258 . S
C679 O672 1.266 . S
Co680 O683 1.970 . S
Co680 N697 1.989 . S
Co680 O705 1.967 . S
Co680 O712 1.920 . S
Co681 O684 1.966 . S
Co681 N690 2.022 . S
Co681 N698 1.993 . S
Co681 O706 1.941 . S
C682 O683 1.258 . S
C682 O684 1.263 . S
O683 Co680 1.970 . S
O683 C682 1.258 . S
O684 Co681 1.966 . S
O684 C682 1.263 . S
C685 O686 1.235 . S
C685 O712 1.289 . S
O686 C685 1.235 . S
C687 C689 1.400 . S
C687 N690 1.351 . S
C687 C692 1.501 . S
C688 C689 1.387 . S
C688 N691 1.341 . S
C689 C687 1.400 . S
C689 C688 1.387 . S
N690 Co681 2.022 . S
N690 C687 1.351 . S
N690 N691 1.365 . S
N691 C688 1.341 . S
N691 N690 1.365 . S
N691 H711 0.862 . S
C692 C687 1.501 . S
C692 H693 0.961 . S
C692 H694 0.961 . S
C692 H695 0.960 . S
H693 C692 0.961 . S
H694 C692 0.961 . S
H695 C692 0.960 . S
C696 N697 1.342 . S
C696 C700 1.401 . S
C696 C701 1.499 . S
N697 Co680 1.989 . S
N697 C696 1.342 . S
N697 N698 1.388 . S
N698 Co681 1.993 . S
N698 N697 1.388 . S
N698 C699 1.346 . S
C699 N698 1.346 . S
C699 C700 1.396 . S
C699 C709 1.510 . S
C700 C696 1.401 . S
C700 C699 1.396 . S
C701 C696 1.499 . S
C701 H702 0.959 . S
C701 H703 0.960 . S
C701 H704 0.961 . S
H702 C701 0.959 . S
H703 C701 0.960 . S
H704 C701 0.961 . S
O705 Co680 1.967 . S
O705 C713 1.258 . S
O706 Co681 1.941 . S
O706 C713 1.266 . S
H707 C709 0.959 . S
H708 C709 0.961 . S
C709 C699 1.510 . S
C709 H707 0.959 . S
C709 H708 0.961 . S
C709 H710 0.960 . S
H710 C709 0.960 . S
H711 N691 0.862 . S
O712 Co680 1.920 . S
O712 C685 1.289 . S
C713 O705 1.258 . S
C713 O706 1.266 . S
Co714 O717 1.970 . S
Co714 N731 1.989 . S
Co714 O739 1.967 . S
Co714 O746 1.920 1_556 S
Co715 O718 1.966 . S
Co715 N724 2.022 . S
Co715 N732 1.993 . S
Co715 O740 1.941 . S
C716 O717 1.258 . S
C716 O718 1.263 . S
O717 Co714 1.970 . S
O717 C716 1.258 . S
O718 Co715 1.966 . S
O718 C716 1.263 . S
C719 O720 1.235 . S
C719 O746 1.289 . S
O720 C719 1.235 . S
C721 C723 1.400 . S
C721 N724 1.351 . S
C721 C726 1.501 . S
C722 C723 1.387 . S
C722 N725 1.341 . S
C723 C721 1.400 . S
C723 C722 1.387 . S
N724 Co715 2.022 . S
N724 C721 1.351 . S
N724 N725 1.365 . S
N725 C722 1.341 . S
N725 N724 1.365 . S
N725 H745 0.862 . S
C726 C721 1.501 . S
C726 H727 0.961 . S
C726 H728 0.961 . S
C726 H729 0.960 . S
H727 C726 0.961 . S
H728 C726 0.961 . S
H729 C726 0.960 . S
C730 N731 1.342 1_554 S
C730 C734 1.401 . S
C730 C735 1.499 . S
N731 Co714 1.989 . S
N731 C730 1.342 1_556 S
N731 N732 1.388 . S
N732 Co715 1.993 . S
N732 N731 1.388 . S
N732 C733 1.346 . S
C733 N732 1.346 . S
C733 C734 1.396 1_556 S
C733 C743 1.510 . S
C734 C730 1.401 . S
C734 C733 1.396 1_554 S
C735 C730 1.499 . S
C735 H736 0.959 . S
C735 H737 0.960 . S
C735 H738 0.961 . S
H736 C735 0.959 . S
H737 C735 0.960 . S
H738 C735 0.961 . S
O739 Co714 1.967 . S
O739 C747 1.258 . S
O740 Co715 1.941 . S
O740 C747 1.266 . S
H741 C743 0.959 . S
H742 C743 0.961 . S
C743 C733 1.510 . S
C743 H741 0.959 . S
C743 H742 0.961 . S
C743 H744 0.960 . S
H744 C743 0.960 . S
H745 N725 0.862 . S
O746 Co714 1.920 1_554 S
O746 C719 1.289 . S
C747 O739 1.258 . S
C747 O740 1.266 . S
Co748 O751 1.970 . S
Co748 N765 1.989 . S
Co748 O773 1.967 . S
Co748 O780 1.920 . S
Co749 O752 1.966 . S
Co749 N758 2.022 . S
Co749 N766 1.993 . S
Co749 O774 1.941 . S
C750 O751 1.258 . S
C750 O752 1.263 . S
O751 Co748 1.970 . S
O751 C750 1.258 . S
O752 Co749 1.966 . S
O752 C750 1.263 . S
C753 O754 1.235 . S
C753 O780 1.289 . S
O754 C753 1.235 . S
C755 C757 1.400 . S
C755 N758 1.351 1_556 S
C755 C760 1.501 . S
C756 C757 1.387 . S
C756 N759 1.341 1_556 S
C757 C755 1.400 . S
C757 C756 1.387 . S
N758 Co749 2.022 . S
N758 C755 1.351 1_554 S
N758 N759 1.365 . S
N759 C756 1.341 1_554 S
N759 N758 1.365 . S
N759 H779 0.862 . S
C760 C755 1.501 . S
C760 H761 0.961 . S
C760 H762 0.961 . S
C760 H763 0.960 . S
H761 C760 0.961 . S
H762 C760 0.961 . S
H763 C760 0.960 . S
C764 N765 1.342 . S
C764 C768 1.401 . S
C764 C769 1.499 . S
N765 Co748 1.989 . S
N765 C764 1.342 . S
N765 N766 1.388 . S
N766 Co749 1.993 . S
N766 N765 1.388 . S
N766 C767 1.346 . S
C767 N766 1.346 . S
C767 C768 1.396 . S
C767 C777 1.510 . S
C768 C764 1.401 . S
C768 C767 1.396 . S
C769 C764 1.499 . S
C769 H770 0.959 . S
C769 H771 0.960 . S
C769 H772 0.961 . S
H770 C769 0.959 . S
H771 C769 0.960 . S
H772 C769 0.961 . S
O773 Co748 1.967 . S
O773 C781 1.258 . S
O774 Co749 1.941 . S
O774 C781 1.266 . S
H775 C777 0.959 . S
H776 C777 0.961 . S
C777 C767 1.510 . S
C777 H775 0.959 . S
C777 H776 0.961 . S
C777 H778 0.960 . S
H778 C777 0.960 . S
H779 N759 0.862 . S
O780 Co748 1.920 . S
O780 C753 1.289 . S
C781 O773 1.258 . S
C781 O774 1.266 . S
Co782 O785 1.970 . S
Co782 N799 1.989 . S
Co782 O807 1.967 . S
Co782 O814 1.920 . S
Co783 O786 1.966 . S
Co783 N792 2.022 . S
Co783 N800 1.993 . S
Co783 O808 1.941 . S
C784 O785 1.258 . S
C784 O786 1.263 . S
O785 Co782 1.970 . S
O785 C784 1.258 . S
O786 Co783 1.966 . S
O786 C784 1.263 . S
C787 O788 1.235 . S
C787 O814 1.289 . S
O788 C787 1.235 . S
C789 C791 1.400 . S
C789 N792 1.351 . S
C789 C794 1.501 . S
C790 C791 1.387 . S
C790 N793 1.341 . S
C791 C789 1.400 . S
C791 C790 1.387 . S
N792 Co783 2.022 . S
N792 C789 1.351 . S
N792 N793 1.365 . S
N793 C790 1.341 . S
N793 N792 1.365 . S
N793 H813 0.862 . S
C794 C789 1.501 . S
C794 H795 0.961 . S
C794 H796 0.961 . S
C794 H797 0.960 . S
H795 C794 0.961 . S
H796 C794 0.961 . S
H797 C794 0.960 . S
C798 N799 1.342 . S
C798 C802 1.401 . S
C798 C803 1.499 . S
N799 Co782 1.989 . S
N799 C798 1.342 . S
N799 N800 1.388 . S
N800 Co783 1.993 . S
N800 N799 1.388 . S
N800 C801 1.346 . S
C801 N800 1.346 . S
C801 C802 1.396 . S
C801 C811 1.510 . S
C802 C798 1.401 . S
C802 C801 1.396 . S
C803 C798 1.499 . S
C803 H804 0.959 . S
C803 H805 0.960 . S
C803 H806 0.961 . S
H804 C803 0.959 . S
H805 C803 0.960 . S
H806 C803 0.961 . S
O807 Co782 1.967 . S
O807 C815 1.258 . S
O808 Co783 1.941 . S
O808 C815 1.266 . S
H809 C811 0.959 . S
H810 C811 0.961 . S
C811 C801 1.510 . S
C811 H809 0.959 . S
C811 H810 0.961 . S
C811 H812 0.960 . S
H812 C811 0.960 . S
H813 N793 0.862 . S
O814 Co782 1.920 . S
O814 C787 1.289 . S
C815 O807 1.258 . S
C815 O808 1.266 . S
Co816 O819 1.970 . S
Co816 N833 1.989 . S
Co816 O841 1.967 . S
Co816 O848 1.920 . S
Co817 O820 1.966 . S
Co817 N826 2.022 . S
Co817 N834 1.993 . S
Co817 O842 1.941 . S
C818 O819 1.258 . S
C818 O820 1.263 . S
O819 Co816 1.970 . S
O819 C818 1.258 . S
O820 Co817 1.966 . S
O820 C818 1.263 . S
C821 O822 1.235 . S
C821 O848 1.289 . S
O822 C821 1.235 . S
C823 C825 1.400 . S
C823 N826 1.351 1_556 S
C823 C828 1.501 . S
C824 C825 1.387 . S
C824 N827 1.341 1_556 S
C825 C823 1.400 . S
C825 C824 1.387 . S
N826 Co817 2.022 . S
N826 C823 1.351 1_554 S
N826 N827 1.365 . S
N827 C824 1.341 1_554 S
N827 N826 1.365 . S
N827 H847 0.862 . S
C828 C823 1.501 . S
C828 H829 0.961 . S
C828 H830 0.961 . S
C828 H831 0.960 . S
H829 C828 0.961 . S
H830 C828 0.961 . S
H831 C828 0.960 . S
C832 N833 1.342 . S
C832 C836 1.401 . S
C832 C837 1.499 . S
N833 Co816 1.989 . S
N833 C832 1.342 . S
N833 N834 1.388 . S
N834 Co817 1.993 . S
N834 N833 1.388 . S
N834 C835 1.346 . S
C835 N834 1.346 . S
C835 C836 1.396 . S
C835 C845 1.510 . S
C836 C832 1.401 . S
C836 C835 1.396 . S
C837 C832 1.499 . S
C837 H838 0.959 . S
C837 H839 0.960 . S
C837 H840 0.961 . S
H838 C837 0.959 . S
H839 C837 0.960 . S
H840 C837 0.961 . S
O841 Co816 1.967 . S
O841 C849 1.258 . S
O842 Co817 1.941 . S
O842 C849 1.266 . S
H843 C845 0.959 . S
H844 C845 0.961 . S
C845 C835 1.510 . S
C845 H843 0.959 . S
C845 H844 0.961 . S
C845 H846 0.960 . S
H846 C845 0.960 . S
H847 N827 0.862 . S
O848 Co816 1.920 . S
O848 C821 1.289 . S
C849 O841 1.258 . S
C849 O842 1.266 . S
Co850 O853 1.970 . S
Co850 N867 1.989 . S
Co850 O875 1.967 . S
Co850 O882 1.920 1_556 S
Co851 O854 1.966 . S
Co851 N860 2.022 . S
Co851 N868 1.993 . S
Co851 O876 1.941 . S
C852 O853 1.258 . S
C852 O854 1.263 . S
O853 Co850 1.970 . S
O853 C852 1.258 . S
O854 Co851 1.966 . S
O854 C852 1.263 . S
C855 O856 1.235 . S
C855 O882 1.289 . S
O856 C855 1.235 . S
C857 C859 1.400 . S
C857 N860 1.351 . S
C857 C862 1.501 . S
C858 C859 1.387 . S
C858 N861 1.341 . S
C859 C857 1.400 . S
C859 C858 1.387 . S
N860 Co851 2.022 . S
N860 C857 1.351 . S
N860 N861 1.365 . S
N861 C858 1.341 . S
N861 N860 1.365 . S
N861 H881 0.862 . S
C862 C857 1.501 . S
C862 H863 0.961 . S
C862 H864 0.961 . S
C862 H865 0.960 . S
H863 C862 0.961 . S
H864 C862 0.961 . S
H865 C862 0.960 . S
C866 N867 1.342 1_554 S
C866 C870 1.401 . S
C866 C871 1.499 . S
N867 Co850 1.989 . S
N867 C866 1.342 1_556 S
N867 N868 1.388 . S
N868 Co851 1.993 . S
N868 N867 1.388 . S
N868 C869 1.346 . S
C869 N868 1.346 . S
C869 C870 1.396 1_556 S
C869 C879 1.510 . S
C870 C866 1.401 . S
C870 C869 1.396 1_554 S
C871 C866 1.499 . S
C871 H872 0.959 . S
C871 H873 0.960 . S
C871 H874 0.961 . S
H872 C871 0.959 . S
H873 C871 0.960 . S
H874 C871 0.961 . S
O875 Co850 1.967 . S
O875 C883 1.258 . S
O876 Co851 1.941 . S
O876 C883 1.266 . S
H877 C879 0.959 . S
H878 C879 0.961 . S
C879 C869 1.510 . S
C879 H877 0.959 . S
C879 H878 0.961 . S
C879 H880 0.960 . S
H880 C879 0.960 . S
H881 N861 0.862 . S
O882 Co850 1.920 1_554 S
O882 C855 1.289 . S
C883 O875 1.258 . S
C883 O876 1.266 . S
Co884 O887 1.970 . S
Co884 N901 1.989 . S
Co884 O909 1.967 . S
Co884 O916 1.920 . S
Co885 O888 1.966 . S
Co885 N894 2.022 . S
Co885 N902 1.993 . S
Co885 O910 1.941 . S
C886 O887 1.258 . S
C886 O888 1.263 . S
O887 Co884 1.970 . S
O887 C886 1.258 . S
O888 Co885 1.966 . S
O888 C886 1.263 . S
C889 O890 1.235 . S
C889 O916 1.289 . S
O890 C889 1.235 . S
C891 C893 1.400 . S
C891 N894 1.351 . S
C891 C896 1.501 . S
C892 C893 1.387 . S
C892 N895 1.341 . S
C893 C891 1.400 . S
C893 C892 1.387 . S
N894 Co885 2.022 . S
N894 C891 1.351 . S
N894 N895 1.365 . S
N895 C892 1.341 . S
N895 N894 1.365 . S
N895 H915 0.862 . S
C896 C891 1.501 . S
C896 H897 0.961 . S
C896 H898 0.961 . S
C896 H899 0.960 . S
H897 C896 0.961 . S
H898 C896 0.961 . S
H899 C896 0.960 . S
C900 N901 1.342 . S
C900 C904 1.401 . S
C900 C905 1.499 . S
N901 Co884 1.989 . S
N901 C900 1.342 . S
N901 N902 1.388 . S
N902 Co885 1.993 . S
N902 N901 1.388 . S
N902 C903 1.346 . S
C903 N902 1.346 . S
C903 C904 1.396 . S
C903 C913 1.510 . S
C904 C900 1.401 . S
C904 C903 1.396 . S
C905 C900 1.499 . S
C905 H906 0.959 . S
C905 H907 0.960 . S
C905 H908 0.961 . S
H906 C905 0.959 . S
H907 C905 0.960 . S
H908 C905 0.961 . S
O909 Co884 1.967 . S
O909 C917 1.258 . S
O910 Co885 1.941 . S
O910 C917 1.266 . S
H911 C913 0.959 . S
H912 C913 0.961 . S
C913 C903 1.510 . S
C913 H911 0.959 . S
C913 H912 0.961 . S
C913 H914 0.960 . S
H914 C913 0.960 . S
H915 N895 0.862 . S
O916 Co884 1.920 . S
O916 C889 1.289 . S
C917 O909 1.258 . S
C917 O910 1.266 . S
Co918 O921 1.970 . S
Co918 N935 1.989 . S
Co918 O943 1.967 . S
Co918 O950 1.920 . S
Co919 O922 1.966 . S
Co919 N928 2.022 . S
Co919 N936 1.993 . S
Co919 O944 1.941 . S
C920 O921 1.258 . S
C920 O922 1.263 . S
O921 Co918 1.970 . S
O921 C920 1.258 . S
O922 Co919 1.966 . S
O922 C920 1.263 . S
C923 O924 1.235 . S
C923 O950 1.289 . S
O924 C923 1.235 . S
C925 C927 1.400 . S
C925 N928 1.351 . S
C925 C930 1.501 . S
C926 C927 1.387 . S
C926 N929 1.341 . S
C927 C925 1.400 . S
C927 C926 1.387 . S
N928 Co919 2.022 . S
N928 C925 1.351 . S
N928 N929 1.365 . S
N929 C926 1.341 . S
N929 N928 1.365 . S
N929 H949 0.862 . S
C930 C925 1.501 . S
C930 H931 0.961 . S
C930 H932 0.961 . S
C930 H933 0.960 . S
H931 C930 0.961 . S
H932 C930 0.961 . S
H933 C930 0.960 . S
C934 N935 1.342 . S
C934 C938 1.401 . S
C934 C939 1.499 . S
N935 Co918 1.989 . S
N935 C934 1.342 . S
N935 N936 1.388 . S
N936 Co919 1.993 . S
N936 N935 1.388 . S
N936 C937 1.346 . S
C937 N936 1.346 . S
C937 C938 1.396 . S
C937 C947 1.510 . S
C938 C934 1.401 . S
C938 C937 1.396 . S
C939 C934 1.499 . S
C939 H940 0.959 . S
C939 H941 0.960 . S
C939 H942 0.961 . S
H940 C939 0.959 . S
H941 C939 0.960 . S
H942 C939 0.961 . S
O943 Co918 1.967 . S
O943 C951 1.258 . S
O944 Co919 1.941 . S
O944 C951 1.266 . S
H945 C947 0.959 . S
H946 C947 0.961 . S
C947 C937 1.510 . S
C947 H945 0.959 . S
C947 H946 0.961 . S
C947 H948 0.960 . S
H948 C947 0.960 . S
H949 N929 0.862 . S
O950 Co918 1.920 . S
O950 C923 1.289 . S
C951 O943 1.258 . S
C951 O944 1.266 . S
Co952 O955 1.970 . S
Co952 N969 1.989 . S
Co952 O977 1.967 . S
Co952 O984 1.920 . S
Co953 O956 1.966 . S
Co953 N962 2.022 . S
Co953 N970 1.993 . S
Co953 O978 1.941 . S
C954 O955 1.258 . S
C954 O956 1.263 . S
O955 Co952 1.970 . S
O955 C954 1.258 . S
O956 Co953 1.966 . S
O956 C954 1.263 . S
C957 O958 1.235 . S
C957 O984 1.289 . S
O958 C957 1.235 . S
C959 C961 1.400 . S
C959 N962 1.351 . S
C959 C964 1.501 . S
C960 C961 1.387 . S
C960 N963 1.341 . S
C961 C959 1.400 . S
C961 C960 1.387 . S
N962 Co953 2.022 . S
N962 C959 1.351 . S
N962 N963 1.365 . S
N963 C960 1.341 . S
N963 N962 1.365 . S
N963 H983 0.862 . S
C964 C959 1.501 . S
C964 H965 0.961 . S
C964 H966 0.961 . S
C964 H967 0.960 . S
H965 C964 0.961 . S
H966 C964 0.961 . S
H967 C964 0.960 . S
C968 N969 1.342 . S
C968 C972 1.401 . S
C968 C973 1.499 . S
N969 Co952 1.989 . S
N969 C968 1.342 . S
N969 N970 1.388 . S
N970 Co953 1.993 . S
N970 N969 1.388 . S
N970 C971 1.346 . S
C971 N970 1.346 . S
C971 C972 1.396 . S
C971 C981 1.510 . S
C972 C968 1.401 . S
C972 C971 1.396 . S
C973 C968 1.499 . S
C973 H974 0.959 . S
C973 H975 0.960 . S
C973 H976 0.961 . S
H974 C973 0.959 . S
H975 C973 0.960 . S
H976 C973 0.961 . S
O977 Co952 1.967 . S
O977 C985 1.258 . S
O978 Co953 1.941 . S
O978 C985 1.266 . S
H979 C981 0.959 . S
H980 C981 0.961 . S
C981 C971 1.510 . S
C981 H979 0.959 . S
C981 H980 0.961 . S
C981 H982 0.960 . S
H982 C981 0.960 . S
H983 N963 0.862 . S
O984 Co952 1.920 . S
O984 C957 1.289 . S
C985 O977 1.258 . S
C985 O978 1.266 . S
Co986 O989 1.970 . S
Co986 N1003 1.989 . S
Co986 O1011 1.967 . S
Co986 O1018 1.920 1_554 S
Co987 O990 1.966 . S
Co987 N996 2.022 . S
Co987 N1004 1.993 . S
Co987 O1012 1.941 . S
C988 O989 1.258 . S
C988 O990 1.263 . S
O989 Co986 1.970 . S
O989 C988 1.258 . S
O990 Co987 1.966 . S
O990 C988 1.263 . S
C991 O992 1.235 . S
C991 O1018 1.289 . S
O992 C991 1.235 . S
C993 C995 1.400 . S
C993 N996 1.351 . S
C993 C998 1.501 . S
C994 C995 1.387 . S
C994 N997 1.341 . S
C995 C993 1.400 . S
C995 C994 1.387 . S
N996 Co987 2.022 . S
N996 C993 1.351 . S
N996 N997 1.365 . S
N997 C994 1.341 . S
N997 N996 1.365 . S
N997 H1017 0.862 . S
C998 C993 1.501 . S
C998 H999 0.961 . S
C998 H1000 0.961 . S
C998 H1001 0.960 . S
H999 C998 0.961 . S
H1000 C998 0.961 . S
H1001 C998 0.960 . S
C1002 N1003 1.342 1_556 S
C1002 C1006 1.401 . S
C1002 C1007 1.499 . S
N1003 Co986 1.989 . S
N1003 C1002 1.342 1_554 S
N1003 N1004 1.388 . S
N1004 Co987 1.993 . S
N1004 N1003 1.388 . S
N1004 C1005 1.346 . S
C1005 N1004 1.346 . S
C1005 C1006 1.396 1_554 S
C1005 C1015 1.510 . S
C1006 C1002 1.401 . S
C1006 C1005 1.396 1_556 S
C1007 C1002 1.499 . S
C1007 H1008 0.959 . S
C1007 H1009 0.960 . S
C1007 H1010 0.961 . S
H1008 C1007 0.959 . S
H1009 C1007 0.960 . S
H1010 C1007 0.961 . S
O1011 Co986 1.967 . S
O1011 C1019 1.258 . S
O1012 Co987 1.941 . S
O1012 C1019 1.266 . S
H1013 C1015 0.959 . S
H1014 C1015 0.961 . S
C1015 C1005 1.510 . S
C1015 H1013 0.959 . S
C1015 H1014 0.961 . S
C1015 H1016 0.960 . S
H1016 C1015 0.960 . S
H1017 N997 0.862 . S
O1018 Co986 1.920 1_556 S
O1018 C991 1.289 . S
C1019 O1011 1.258 . S
C1019 O1012 1.266 . S
Co1020 O1023 1.970 . S
Co1020 N1037 1.989 . S
Co1020 O1045 1.967 . S
Co1020 O1052 1.920 . S
Co1021 O1024 1.966 . S
Co1021 N1030 2.022 . S
Co1021 N1038 1.993 . S
Co1021 O1046 1.941 . S
C1022 O1023 1.258 . S
C1022 O1024 1.263 . S
O1023 Co1020 1.970 . S
O1023 C1022 1.258 . S
O1024 Co1021 1.966 . S
O1024 C1022 1.263 . S
C1025 O1026 1.235 . S
C1025 O1052 1.289 . S
O1026 C1025 1.235 . S
C1027 C1029 1.400 . S
C1027 N1030 1.351 1_554 S
C1027 C1032 1.501 . S
C1028 C1029 1.387 . S
C1028 N1031 1.341 1_554 S
C1029 C1027 1.400 . S
C1029 C1028 1.387 . S
N1030 Co1021 2.022 . S
N1030 C1027 1.351 1_556 S
N1030 N1031 1.365 . S
N1031 C1028 1.341 1_556 S
N1031 N1030 1.365 . S
N1031 H1051 0.862 . S
C1032 C1027 1.501 . S
C1032 H1033 0.961 . S
C1032 H1034 0.961 . S
C1032 H1035 0.960 . S
H1033 C1032 0.961 . S
H1034 C1032 0.961 . S
H1035 C1032 0.960 . S
C1036 N1037 1.342 . S
C1036 C1040 1.401 . S
C1036 C1041 1.499 . S
N1037 Co1020 1.989 . S
N1037 C1036 1.342 . S
N1037 N1038 1.388 . S
N1038 Co1021 1.993 . S
N1038 N1037 1.388 . S
N1038 C1039 1.346 . S
C1039 N1038 1.346 . S
C1039 C1040 1.396 . S
C1039 C1049 1.510 . S
C1040 C1036 1.401 . S
C1040 C1039 1.396 . S
C1041 C1036 1.499 . S
C1041 H1042 0.959 . S
C1041 H1043 0.960 . S
C1041 H1044 0.961 . S
H1042 C1041 0.959 . S
H1043 C1041 0.960 . S
H1044 C1041 0.961 . S
O1045 Co1020 1.967 . S
O1045 C1053 1.258 . S
O1046 Co1021 1.941 . S
O1046 C1053 1.266 . S
H1047 C1049 0.959 . S
H1048 C1049 0.961 . S
C1049 C1039 1.510 . S
C1049 H1047 0.959 . S
C1049 H1048 0.961 . S
C1049 H1050 0.960 . S
H1050 C1049 0.960 . S
H1051 N1031 0.862 . S
O1052 Co1020 1.920 . S
O1052 C1025 1.289 . S
C1053 O1045 1.258 . S
C1053 O1046 1.266 . S
Co1054 O1057 1.970 . S
Co1054 N1071 1.989 . S
Co1054 O1079 1.967 . S
Co1054 O1086 1.920 . S
Co1055 O1058 1.966 . S
Co1055 N1064 2.022 . S
Co1055 N1072 1.993 . S
Co1055 O1080 1.941 . S
C1056 O1057 1.258 . S
C1056 O1058 1.263 . S
O1057 Co1054 1.970 . S
O1057 C1056 1.258 . S
O1058 Co1055 1.966 . S
O1058 C1056 1.263 . S
C1059 O1060 1.235 . S
C1059 O1086 1.289 . S
O1060 C1059 1.235 . S
C1061 C1063 1.400 . S
C1061 N1064 1.351 . S
C1061 C1066 1.501 . S
C1062 C1063 1.387 . S
C1062 N1065 1.341 . S
C1063 C1061 1.400 . S
C1063 C1062 1.387 . S
N1064 Co1055 2.022 . S
N1064 C1061 1.351 . S
N1064 N1065 1.365 . S
N1065 C1062 1.341 . S
N1065 N1064 1.365 . S
N1065 H1085 0.862 . S
C1066 C1061 1.501 . S
C1066 H1067 0.961 . S
C1066 H1068 0.961 . S
C1066 H1069 0.960 . S
H1067 C1066 0.961 . S
H1068 C1066 0.961 . S
H1069 C1066 0.960 . S
C1070 N1071 1.342 . S
C1070 C1074 1.401 . S
C1070 C1075 1.499 . S
N1071 Co1054 1.989 . S
N1071 C1070 1.342 . S
N1071 N1072 1.388 . S
N1072 Co1055 1.993 . S
N1072 N1071 1.388 . S
N1072 C1073 1.346 . S
C1073 N1072 1.346 . S
C1073 C1074 1.396 . S
C1073 C1083 1.510 . S
C1074 C1070 1.401 . S
C1074 C1073 1.396 . S
C1075 C1070 1.499 . S
C1075 H1076 0.959 . S
C1075 H1077 0.960 . S
C1075 H1078 0.961 . S
H1076 C1075 0.959 . S
H1077 C1075 0.960 . S
H1078 C1075 0.961 . S
O1079 Co1054 1.967 . S
O1079 C1087 1.258 . S
O1080 Co1055 1.941 . S
O1080 C1087 1.266 . S
H1081 C1083 0.959 . S
H1082 C1083 0.961 . S
C1083 C1073 1.510 . S
C1083 H1081 0.959 . S
C1083 H1082 0.961 . S
C1083 H1084 0.960 . S
H1084 C1083 0.960 . S
H1085 N1065 0.862 . S
O1086 Co1054 1.920 . S
O1086 C1059 1.289 . S
C1087 O1079 1.258 . S
C1087 O1080 1.266 . S
C1088 C1089 1.369 . S
C1088 C1090 1.419 . S
C1088 H1092 0.930 . S
C1089 C1088 1.369 . S
C1089 C1098 1.429 . S
C1090 C1088 1.419 . S
C1090 C1091 1.363 . S
C1090 H1093 0.929 . S
C1091 C1090 1.363 . S
C1091 C1097 1.428 . S
H1092 C1088 0.930 . S
H1093 C1090 0.929 . S
S1094 N1095 1.613 . S
S1094 N1096 1.610 . S
N1095 S1094 1.613 . S
N1095 C1098 1.350 . S
N1096 S1094 1.610 . S
N1096 C1097 1.351 . S
C1097 C1091 1.428 . S
C1097 N1096 1.351 . S
C1097 C1098 1.434 . S
C1098 C1089 1.429 . S
C1098 N1095 1.350 . S
C1098 C1097 1.434 . S
C1099 C1100 1.369 . S
C1099 C1101 1.419 . S
C1099 H1103 0.930 . S
C1100 C1099 1.369 . S
C1100 C1109 1.429 . S
C1101 C1099 1.419 . S
C1101 C1102 1.363 . S
C1101 H1104 0.929 . S
C1102 C1101 1.363 . S
C1102 C1108 1.428 . S
H1103 C1099 0.930 . S
H1104 C1101 0.929 . S
S1105 N1106 1.613 1_554 S
S1105 N1107 1.610 . S
N1106 S1105 1.613 1_556 S
N1106 C1109 1.350 . S
N1107 S1105 1.610 . S
N1107 C1108 1.351 1_554 S
C1108 C1102 1.428 . S
C1108 N1107 1.351 1_556 S
C1108 C1109 1.434 . S
C1109 C1100 1.429 . S
C1109 N1106 1.350 . S
C1109 C1108 1.434 . S
C1110 C1111 1.369 . S
C1110 C1112 1.419 . S
C1110 H1114 0.930 . S
C1111 C1110 1.369 . S
C1111 C1120 1.429 . S
C1112 C1110 1.419 . S
C1112 C1113 1.363 . S
C1112 H1115 0.929 . S
C1113 C1112 1.363 . S
C1113 C1119 1.428 . S
H1114 C1110 0.930 . S
H1115 C1112 0.929 . S
S1116 N1117 1.613 . S
S1116 N1118 1.610 . S
N1117 S1116 1.613 . S
N1117 C1120 1.350 . S
N1118 S1116 1.610 . S
N1118 C1119 1.351 . S
C1119 C1113 1.428 . S
C1119 N1118 1.351 . S
C1119 C1120 1.434 . S
C1120 C1111 1.429 . S
C1120 N1117 1.350 . S
C1120 C1119 1.434 . S
C1121 C1122 1.369 . S
C1121 C1123 1.419 . S
C1121 H1125 0.930 . S
C1122 C1121 1.369 . S
C1122 C1131 1.429 . S
C1123 C1121 1.419 . S
C1123 C1124 1.363 . S
C1123 H1126 0.929 . S
C1124 C1123 1.363 . S
C1124 C1130 1.428 . S
H1125 C1121 0.930 . S
H1126 C1123 0.929 . S
S1127 N1128 1.613 . S
S1127 N1129 1.610 . S
N1128 S1127 1.613 . S
N1128 C1131 1.350 . S
N1129 S1127 1.610 . S
N1129 C1130 1.351 . S
C1130 C1124 1.428 . S
C1130 N1129 1.351 . S
C1130 C1131 1.434 . S
C1131 C1122 1.429 . S
C1131 N1128 1.350 . S
C1131 C1130 1.434 . S
C1132 C1133 1.369 . S
C1132 C1134 1.419 . S
C1132 H1136 0.930 . S
C1133 C1132 1.369 . S
C1133 C1142 1.429 . S
C1134 C1132 1.419 . S
C1134 C1135 1.363 . S
C1134 H1137 0.929 . S
C1135 C1134 1.363 . S
C1135 C1141 1.428 . S
H1136 C1132 0.930 . S
H1137 C1134 0.929 . S
S1138 N1139 1.613 . S
S1138 N1140 1.610 . S
N1139 S1138 1.613 . S
N1139 C1142 1.350 . S
N1140 S1138 1.610 . S
N1140 C1141 1.351 . S
C1141 C1135 1.428 . S
C1141 N1140 1.351 . S
C1141 C1142 1.434 . S
C1142 C1133 1.429 . S
C1142 N1139 1.350 . S
C1142 C1141 1.434 . S
C1143 C1144 1.369 . S
C1143 C1145 1.419 . S
C1143 H1147 0.930 . S
C1144 C1143 1.369 . S
C1144 C1153 1.429 . S
C1145 C1143 1.419 . S
C1145 C1146 1.363 . S
C1145 H1148 0.929 . S
C1146 C1145 1.363 . S
C1146 C1152 1.428 . S
H1147 C1143 0.930 . S
H1148 C1145 0.929 . S
S1149 N1150 1.613 . S
S1149 N1151 1.610 1_556 S
N1150 S1149 1.613 . S
N1150 C1153 1.350 1_556 S
N1151 S1149 1.610 1_554 S
N1151 C1152 1.351 . S
C1152 C1146 1.428 . S
C1152 N1151 1.351 . S
C1152 C1153 1.434 . S
C1153 C1144 1.429 . S
C1153 N1150 1.350 1_554 S
C1153 C1152 1.434 . S
C1154 C1155 1.369 . S
C1154 C1156 1.419 . S
C1154 H1158 0.930 . S
C1155 C1154 1.369 . S
C1155 C1164 1.429 . S
C1156 C1154 1.419 . S
C1156 C1157 1.363 . S
C1156 H1159 0.929 . S
C1157 C1156 1.363 . S
C1157 C1163 1.428 . S
H1158 C1154 0.930 . S
H1159 C1156 0.929 . S
S1160 N1161 1.613 . S
S1160 N1162 1.610 . S
N1161 S1160 1.613 . S
N1161 C1164 1.350 . S
N1162 S1160 1.610 . S
N1162 C1163 1.351 . S
C1163 C1157 1.428 . S
C1163 N1162 1.351 . S
C1163 C1164 1.434 . S
C1164 C1155 1.429 . S
C1164 N1161 1.350 . S
C1164 C1163 1.434 . S
C1165 C1166 1.369 . S
C1165 C1167 1.419 . S
C1165 H1169 0.930 . S
C1166 C1165 1.369 . S
C1166 C1175 1.429 . S
C1167 C1165 1.419 . S
C1167 C1168 1.363 . S
C1167 H1170 0.929 . S
C1168 C1167 1.363 . S
C1168 C1174 1.428 . S
H1169 C1165 0.930 . S
H1170 C1167 0.929 . S
S1171 N1172 1.613 . S
S1171 N1173 1.610 . S
N1172 S1171 1.613 . S
N1172 C1175 1.350 . S
N1173 S1171 1.610 . S
N1173 C1174 1.351 . S
C1174 C1168 1.428 . S
C1174 N1173 1.351 . S
C1174 C1175 1.434 . S
C1175 C1166 1.429 . S
C1175 N1172 1.350 . S
C1175 C1174 1.434 . S
C1176 C1177 1.369 . S
C1176 C1178 1.419 . S
C1176 H1180 0.930 . S
C1177 C1176 1.369 . S
C1177 C1186 1.429 . S
C1178 C1176 1.419 . S
C1178 C1179 1.363 . S
C1178 H1181 0.929 . S
C1179 C1178 1.363 . S
C1179 C1185 1.428 . S
H1180 C1176 0.930 . S
H1181 C1178 0.929 . S
S1182 N1183 1.613 . S
S1182 N1184 1.610 . S
N1183 S1182 1.613 . S
N1183 C1186 1.350 . S
N1184 S1182 1.610 . S
N1184 C1185 1.351 . S
C1185 C1179 1.428 . S
C1185 N1184 1.351 . S
C1185 C1186 1.434 . S
C1186 C1177 1.429 . S
C1186 N1183 1.350 . S
C1186 C1185 1.434 . S
C1187 C1188 1.369 . S
C1187 C1189 1.419 . S
C1187 H1191 0.930 . S
C1188 C1187 1.369 . S
C1188 C1197 1.429 . S
C1189 C1187 1.419 . S
C1189 C1190 1.363 . S
C1189 H1192 0.929 . S
C1190 C1189 1.363 . S
C1190 C1196 1.428 . S
H1191 C1187 0.930 . S
H1192 C1189 0.929 . S
S1193 N1194 1.613 . S
S1193 N1195 1.610 . S
N1194 S1193 1.613 . S
N1194 C1197 1.350 . S
N1195 S1193 1.610 . S
N1195 C1196 1.351 . S
C1196 C1190 1.428 . S
C1196 N1195 1.351 . S
C1196 C1197 1.434 . S
C1197 C1188 1.429 . S
C1197 N1194 1.350 . S
C1197 C1196 1.434 . S
C1198 C1199 1.369 . S
C1198 C1200 1.419 . S
C1198 H1202 0.930 . S
C1199 C1198 1.369 . S
C1199 C1208 1.429 . S
C1200 C1198 1.419 . S
C1200 C1201 1.363 . S
C1200 H1203 0.929 . S
C1201 C1200 1.363 . S
C1201 C1207 1.428 . S
H1202 C1198 0.930 . S
H1203 C1200 0.929 . S
S1204 N1205 1.613 . S
S1204 N1206 1.610 . S
N1205 S1204 1.613 . S
N1205 C1208 1.350 . S
N1206 S1204 1.610 . S
N1206 C1207 1.351 . S
C1207 C1201 1.428 . S
C1207 N1206 1.351 . S
C1207 C1208 1.434 . S
C1208 C1199 1.429 . S
C1208 N1205 1.350 . S
C1208 C1207 1.434 . S
C1209 C1210 1.369 . S
C1209 C1211 1.419 . S
C1209 H1213 0.930 . S
C1210 C1209 1.369 . S
C1210 C1219 1.429 . S
C1211 C1209 1.419 . S
C1211 C1212 1.363 . S
C1211 H1214 0.929 . S
C1212 C1211 1.363 . S
C1212 C1218 1.428 . S
H1213 C1209 0.930 . S
H1214 C1211 0.929 . S
S1215 N1216 1.613 . S
S1215 N1217 1.610 . S
N1216 S1215 1.613 . S
N1216 C1219 1.350 . S
N1217 S1215 1.610 . S
N1217 C1218 1.351 . S
C1218 C1212 1.428 . S
C1218 N1217 1.351 . S
C1218 C1219 1.434 . S
C1219 C1210 1.429 . S
C1219 N1216 1.350 . S
C1219 C1218 1.434 . S
C1220 C1221 1.369 . S
C1220 C1222 1.419 . S
C1220 H1224 0.930 . S
C1221 C1220 1.369 . S
C1221 C1230 1.429 . S
C1222 C1220 1.419 . S
C1222 C1223 1.363 . S
C1222 H1225 0.934 . S
C1223 C1222 1.363 . S
C1223 C1229 1.428 . S
H1224 C1220 0.930 . S
H1225 C1222 0.934 . S
S1226 N1227 1.613 . S
S1226 N1228 1.610 . S
N1227 S1226 1.613 . S
N1227 C1230 1.350 . S
N1228 S1226 1.610 . S
N1228 C1229 1.351 . S
C1229 C1223 1.428 . S
C1229 N1228 1.351 . S
C1229 C1230 1.434 . S
C1230 C1221 1.429 . S
C1230 N1227 1.350 . S
C1230 C1229 1.434 . S
C1231 C1232 1.369 . S
C1231 C1233 1.419 . S
C1231 H1235 0.930 . S
C1232 C1231 1.369 . S
C1232 C1241 1.429 . S
C1233 C1231 1.419 . S
C1233 C1234 1.363 . S
C1233 H1236 0.929 . S
C1234 C1233 1.363 . S
C1234 C1240 1.428 . S
H1235 C1231 0.930 . S
H1236 C1233 0.929 . S
S1237 N1238 1.613 . S
S1237 N1239 1.610 . S
N1238 S1237 1.613 . S
N1238 C1241 1.350 . S
N1239 S1237 1.610 . S
N1239 C1240 1.351 . S
C1240 C1234 1.428 . S
C1240 N1239 1.351 . S
C1240 C1241 1.434 . S
C1241 C1232 1.429 . S
C1241 N1238 1.350 . S
C1241 C1240 1.434 . S
C1242 C1243 1.369 . S
C1242 C1244 1.419 . S
C1242 H1246 0.930 . S
C1243 C1242 1.369 . S
C1243 C1252 1.429 . S
C1244 C1242 1.419 . S
C1244 C1245 1.363 . S
C1244 H1247 0.929 . S
C1245 C1244 1.363 . S
C1245 C1251 1.428 . S
H1246 C1242 0.930 . S
H1247 C1244 0.929 . S
S1248 N1249 1.613 . S
S1248 N1250 1.610 . S
N1249 S1248 1.613 . S
N1249 C1252 1.350 . S
N1250 S1248 1.610 . S
N1250 C1251 1.351 . S
C1251 C1245 1.428 . S
C1251 N1250 1.351 . S
C1251 C1252 1.434 . S
C1252 C1243 1.429 . S
C1252 N1249 1.350 . S
C1252 C1251 1.434 . S
C1253 C1254 1.369 . S
C1253 C1255 1.419 . S
C1253 H1257 0.930 . S
C1254 C1253 1.369 . S
C1254 C1263 1.429 . S
C1255 C1253 1.419 . S
C1255 C1256 1.363 . S
C1255 H1258 0.929 . S
C1256 C1255 1.363 . S
C1256 C1262 1.428 . S
H1257 C1253 0.930 . S
H1258 C1255 0.929 . S
S1259 N1260 1.613 . S
S1259 N1261 1.610 . S
N1260 S1259 1.613 . S
N1260 C1263 1.350 . S
N1261 S1259 1.610 . S
N1261 C1262 1.351 . S
C1262 C1256 1.428 . S
C1262 N1261 1.351 . S
C1262 C1263 1.434 . S
C1263 C1254 1.429 . S
C1263 N1260 1.350 . S
C1263 C1262 1.434 . S
C1264 C1265 1.369 . S
C1264 C1266 1.419 . S
C1264 H1268 0.930 . S
C1265 C1264 1.369 . S
C1265 C1274 1.429 . S
C1266 C1264 1.419 . S
C1266 C1267 1.363 . S
C1266 H1269 0.929 . S
C1267 C1266 1.363 . S
C1267 C1273 1.428 . S
H1268 C1264 0.930 . S
H1269 C1266 0.929 . S
S1270 N1271 1.613 . S
S1270 N1272 1.610 . S
N1271 S1270 1.613 . S
N1271 C1274 1.350 . S
N1272 S1270 1.610 . S
N1272 C1273 1.351 . S
C1273 C1267 1.428 . S
C1273 N1272 1.351 . S
C1273 C1274 1.434 . S
C1274 C1265 1.429 . S
C1274 N1271 1.350 . S
C1274 C1273 1.434 . S
C1275 C1276 1.369 . S
C1275 C1277 1.419 . S
C1275 H1279 0.930 . S
C1276 C1275 1.369 . S
C1276 C1285 1.429 1_565 S
C1277 C1275 1.419 . S
C1277 C1278 1.363 1_565 S
C1277 H1280 0.929 . S
C1278 C1277 1.363 1_545 S
C1278 C1284 1.428 . S
H1279 C1275 0.930 . S
H1280 C1277 0.929 . S
S1281 N1282 1.613 . S
S1281 N1283 1.610 . S
N1282 S1281 1.613 . S
N1282 C1285 1.350 . S
N1283 S1281 1.610 . S
N1283 C1284 1.351 . S
C1284 C1278 1.428 . S
C1284 N1283 1.351 . S
C1284 C1285 1.434 . S
C1285 C1276 1.429 1_545 S
C1285 N1282 1.350 . S
C1285 C1284 1.434 . S
C1286 C1287 1.369 . S
C1286 C1288 1.419 1_554 S
C1286 H1290 0.930 . S
C1287 C1286 1.369 . S
C1287 C1296 1.429 . S
C1288 C1286 1.419 1_556 S
C1288 C1289 1.363 . S
C1288 H1291 0.929 . S
C1289 C1288 1.363 . S
C1289 C1295 1.428 . S
H1290 C1286 0.930 . S
H1291 C1288 0.929 . S
S1292 N1293 1.613 . S
S1292 N1294 1.610 1_554 S
N1293 S1292 1.613 . S
N1293 C1296 1.350 . S
N1294 S1292 1.610 1_556 S
N1294 C1295 1.351 . S
C1295 C1289 1.428 . S
C1295 N1294 1.351 . S
C1295 C1296 1.434 1_556 S
C1296 C1287 1.429 . S
C1296 N1293 1.350 . S
C1296 C1295 1.434 1_554 S
C1297 C1298 1.369 . S
C1297 C1299 1.446 . S
C1297 H1301 0.930 . S
C1298 C1297 1.369 . S
C1298 C1307 1.429 1_545 S
C1299 C1297 1.446 . S
C1299 C1300 1.333 1_545 S
C1299 H1302 0.934 . S
C1300 C1299 1.333 1_565 S
C1300 C1306 1.428 . S
H1301 C1297 0.930 . S
H1302 C1299 0.934 . S
S1303 N1304 1.613 . S
S1303 N1305 1.610 . S
N1304 S1303 1.613 . S
N1304 C1307 1.350 . S
N1305 S1303 1.610 . S
N1305 C1306 1.351 . S
C1306 C1300 1.428 . S
C1306 N1305 1.351 . S
C1306 C1307 1.434 . S
C1307 C1298 1.429 1_565 S
C1307 N1304 1.350 . S
C1307 C1306 1.434 . S
C1308 C1309 1.369 . S
C1308 C1310 1.419 . S
C1308 H1312 0.930 . S
C1309 C1308 1.369 . S
C1309 C1318 1.429 . S
C1310 C1308 1.419 . S
C1310 C1311 1.363 . S
C1310 H1313 0.929 . S
C1311 C1310 1.363 . S
C1311 C1317 1.428 . S
H1312 C1308 0.930 . S
H1313 C1310 0.929 . S
S1314 N1315 1.613 . S
S1314 N1316 1.610 . S
N1315 S1314 1.613 . S
N1315 C1318 1.350 . S
N1316 S1314 1.610 . S
N1316 C1317 1.351 . S
C1317 C1311 1.428 . S
C1317 N1316 1.351 . S
C1317 C1318 1.434 . S
C1318 C1309 1.429 . S
C1318 N1315 1.350 . S
C1318 C1317 1.434 . S
C1319 C1320 1.369 1_565 S
C1319 C1321 1.419 . S
C1319 H1323 0.930 . S
C1320 C1319 1.369 1_545 S
C1320 C1329 1.429 . S
C1321 C1319 1.419 . S
C1321 C1322 1.363 . S
C1321 H1324 0.929 . S
C1322 C1321 1.363 . S
C1322 C1328 1.428 1_565 S
H1323 C1319 0.930 . S
H1324 C1321 0.929 . S
S1325 N1326 1.613 . S
S1325 N1327 1.610 . S
N1326 S1325 1.613 . S
N1326 C1329 1.350 . S
N1327 S1325 1.610 . S
N1327 C1328 1.351 . S
C1328 C1322 1.428 1_545 S
C1328 N1327 1.351 . S
C1328 C1329 1.434 . S
C1329 C1320 1.429 . S
C1329 N1326 1.350 . S
C1329 C1328 1.434 . S
C1330 C1331 1.369 . S
C1330 C1332 1.419 1_554 S
C1330 H1334 0.930 . S
C1331 C1330 1.369 . S
C1331 C1340 1.429 . S
C1332 C1330 1.419 1_556 S
C1332 C1333 1.363 . S
C1332 H1335 0.929 . S
C1333 C1332 1.363 . S
C1333 C1339 1.428 . S
H1334 C1330 0.930 . S
H1335 C1332 0.929 . S
S1336 N1337 1.613 1_556 S
S1336 N1338 1.610 . S
N1337 S1336 1.613 1_554 S
N1337 C1340 1.350 . S
N1338 S1336 1.610 . S
N1338 C1339 1.351 . S
C1339 C1333 1.428 . S
C1339 N1338 1.351 . S
C1339 C1340 1.434 1_556 S
C1340 C1331 1.429 . S
C1340 N1337 1.350 . S
C1340 C1339 1.434 1_554 S
C1341 C1342 1.369 . S
C1341 C1343 1.419 . S
C1341 H1345 0.930 . S
C1342 C1341 1.369 . S
C1342 C1351 1.429 1_545 S
C1343 C1341 1.419 . S
C1343 C1344 1.363 1_545 S
C1343 H1346 0.929 . S
C1344 C1343 1.363 1_565 S
C1344 C1350 1.428 . S
H1345 C1341 0.930 . S
H1346 C1343 0.929 . S
S1347 N1348 1.613 . S
S1347 N1349 1.610 . S
N1348 S1347 1.613 . S
N1348 C1351 1.350 . S
N1349 S1347 1.610 . S
N1349 C1350 1.351 . S
C1350 C1344 1.428 . S
C1350 N1349 1.351 . S
C1350 C1351 1.434 . S
C1351 C1342 1.429 1_565 S
C1351 N1348 1.350 . S
C1351 C1350 1.434 . S
C1352 C1353 1.369 . S
C1352 C1354 1.419 1_556 S
C1352 H1356 0.930 . S
C1353 C1352 1.369 . S
C1353 C1362 1.429 . S
C1354 C1352 1.419 1_554 S
C1354 C1355 1.363 . S
C1354 H1357 0.929 . S
C1355 C1354 1.363 . S
C1355 C1361 1.428 . S
H1356 C1352 0.930 . S
H1357 C1354 0.929 . S
S1358 N1359 1.613 . S
S1358 N1360 1.610 1_556 S
N1359 S1358 1.613 . S
N1359 C1362 1.350 . S
N1360 S1358 1.610 1_554 S
N1360 C1361 1.351 . S
C1361 C1355 1.428 . S
C1361 N1360 1.351 . S
C1361 C1362 1.434 1_554 S
C1362 C1353 1.429 . S
C1362 N1359 1.350 . S
C1362 C1361 1.434 1_556 S
C1363 C1364 1.369 . S
C1363 C1365 1.419 . S
C1363 H1367 0.930 . S
C1364 C1363 1.369 . S
C1364 C1373 1.429 . S
C1365 C1363 1.419 . S
C1365 C1366 1.363 . S
C1365 H1368 0.929 . S
C1366 C1365 1.363 . S
C1366 C1372 1.428 . S
H1367 C1363 0.930 . S
H1368 C1365 0.929 . S
S1369 N1370 1.613 . S
S1369 N1371 1.610 . S
N1370 S1369 1.613 . S
N1370 C1373 1.350 . S
N1371 S1369 1.610 . S
N1371 C1372 1.351 . S
C1372 C1366 1.428 . S
C1372 N1371 1.351 . S
C1372 C1373 1.434 . S
C1373 C1364 1.429 . S
C1373 N1370 1.350 . S
C1373 C1372 1.434 . S
C1374 C1375 1.369 . S
C1374 C1376 1.419 . S
C1374 H1378 0.930 . S
C1375 C1374 1.369 . S
C1375 C1384 1.429 . S
C1376 C1374 1.419 . S
C1376 C1377 1.363 . S
C1376 H1379 0.929 . S
C1377 C1376 1.363 . S
C1377 C1383 1.428 . S
H1378 C1374 0.930 . S
H1379 C1376 0.929 . S
S1380 N1381 1.613 . S
S1380 N1382 1.610 . S
N1381 S1380 1.613 . S
N1381 C1384 1.350 . S
N1382 S1380 1.610 . S
N1382 C1383 1.351 . S
C1383 C1377 1.428 . S
C1383 N1382 1.351 . S
C1383 C1384 1.434 . S
C1384 C1375 1.429 . S
C1384 N1381 1.350 . S
C1384 C1383 1.434 . S
C1385 C1386 1.369 . S
C1385 C1387 1.419 . S
C1385 H1389 0.930 . S
C1386 C1385 1.369 . S
C1386 C1395 1.429 . S
C1387 C1385 1.419 . S
C1387 C1388 1.363 . S
C1387 H1390 0.929 . S
C1388 C1387 1.363 . S
C1388 C1394 1.428 . S
H1389 C1385 0.930 . S
H1390 C1387 0.929 . S
S1391 N1392 1.613 . S
S1391 N1393 1.610 . S
N1392 S1391 1.613 . S
N1392 C1395 1.350 . S
N1393 S1391 1.610 . S
N1393 C1394 1.351 . S
C1394 C1388 1.428 . S
C1394 N1393 1.351 . S
C1394 C1395 1.434 . S
C1395 C1386 1.429 . S
C1395 N1392 1.350 . S
C1395 C1394 1.434 . S
C1396 C1397 1.356 1_554 S
C1396 C1398 1.430 . S
C1396 H1400 0.931 . S
C1397 C1396 1.356 1_556 S
C1397 C1406 1.429 . S
C1398 C1396 1.430 . S
C1398 C1399 1.363 . S
C1398 H1401 0.929 . S
C1399 C1398 1.363 . S
C1399 C1405 1.428 1_554 S
H1400 C1396 0.931 . S
H1401 C1398 0.929 . S
S1402 N1403 1.613 . S
S1402 N1404 1.610 . S
N1403 S1402 1.613 . S
N1403 C1406 1.350 . S
N1404 S1402 1.610 . S
N1404 C1405 1.351 . S
C1405 C1399 1.428 1_556 S
C1405 N1404 1.351 . S
C1405 C1406 1.434 . S
C1406 C1397 1.429 . S
C1406 N1403 1.350 . S
C1406 C1405 1.434 . S
C1407 C1408 1.369 . S
C1407 C1409 1.419 . S
C1407 H1411 0.930 . S
C1408 C1407 1.369 . S
C1408 C1417 1.429 . S
C1409 C1407 1.419 . S
C1409 C1410 1.363 . S
C1409 H1412 0.929 . S
C1410 C1409 1.363 . S
C1410 C1416 1.428 . S
H1411 C1407 0.930 . S
H1412 C1409 0.929 . S
S1413 N1414 1.613 . S
S1413 N1415 1.610 . S
N1414 S1413 1.613 . S
N1414 C1417 1.350 . S
N1415 S1413 1.610 . S
N1415 C1416 1.351 . S
C1416 C1410 1.428 . S
C1416 N1415 1.351 . S
C1416 C1417 1.434 . S
C1417 C1408 1.429 . S
C1417 N1414 1.350 . S
C1417 C1416 1.434 . S
C1418 C1419 1.369 . S
C1418 C1420 1.419 . S
C1418 H1422 0.930 . S
C1419 C1418 1.369 . S
C1419 C1428 1.429 . S
C1420 C1418 1.419 . S
C1420 C1421 1.363 . S
C1420 H1423 0.929 . S
C1421 C1420 1.363 . S
C1421 C1427 1.428 . S
H1422 C1418 0.930 . S
H1423 C1420 0.929 . S
S1424 N1425 1.613 . S
S1424 N1426 1.610 . S
N1425 S1424 1.613 . S
N1425 C1428 1.350 . S
N1426 S1424 1.610 . S
N1426 C1427 1.351 . S
C1427 C1421 1.428 . S
C1427 N1426 1.351 . S
C1427 C1428 1.434 . S
C1428 C1419 1.429 . S
C1428 N1425 1.350 . S
C1428 C1427 1.434 . S
C1429 C1430 1.369 . S
C1429 C1431 1.419 . S
C1429 H1433 0.930 . S
C1430 C1429 1.369 . S
C1430 C1439 1.429 . S
C1431 C1429 1.419 . S
C1431 C1432 1.363 . S
C1431 H1434 0.929 . S
C1432 C1431 1.363 . S
C1432 C1438 1.428 . S
H1433 C1429 0.930 . S
H1434 C1431 0.929 . S
S1435 N1436 1.613 . S
S1435 N1437 1.610 . S
N1436 S1435 1.613 . S
N1436 C1439 1.350 . S
N1437 S1435 1.610 . S
N1437 C1438 1.351 . S
C1438 C1432 1.428 . S
C1438 N1437 1.351 . S
C1438 C1439 1.434 . S
C1439 C1430 1.429 . S
C1439 N1436 1.350 . S
C1439 C1438 1.434 . S
C1440 C1441 1.369 . S
C1440 C1442 1.419 . S
C1440 H1444 0.930 . S
C1441 C1440 1.369 . S
C1441 C1450 1.429 . S
C1442 C1440 1.419 . S
C1442 C1443 1.363 1_554 S
C1442 H1445 0.929 . S
C1443 C1442 1.363 1_556 S
C1443 C1449 1.428 . S
H1444 C1440 0.930 . S
H1445 C1442 0.929 . S
S1446 N1447 1.613 . S
S1446 N1448 1.610 . S
N1447 S1446 1.613 . S
N1447 C1450 1.350 1_556 S
N1448 S1446 1.610 . S
N1448 C1449 1.351 . S
C1449 C1443 1.428 . S
C1449 N1448 1.351 . S
C1449 C1450 1.434 1_556 S
C1450 C1441 1.429 . S
C1450 N1447 1.350 1_554 S
C1450 C1449 1.434 1_554 S
C1451 C1452 1.369 . S
C1451 C1453 1.419 1_655 S
C1451 H1455 0.930 . S
C1452 C1451 1.369 . S
C1452 C1461 1.429 . S
C1453 C1451 1.419 1_455 S
C1453 C1454 1.363 . S
C1453 H1456 0.929 . S
C1454 C1453 1.363 . S
C1454 C1460 1.428 1_455 S
H1455 C1451 0.930 . S
H1456 C1453 0.929 . S
S1457 N1458 1.613 . S
S1457 N1459 1.610 . S
N1458 S1457 1.613 . S
N1458 C1461 1.350 . S
N1459 S1457 1.610 . S
N1459 C1460 1.351 . S
C1460 C1454 1.428 1_655 S
C1460 N1459 1.351 . S
C1460 C1461 1.434 . S
C1461 C1452 1.429 . S
C1461 N1458 1.350 . S
C1461 C1460 1.434 . S
C1462 C1463 1.369 . S
C1462 C1464 1.419 . S
C1462 H1466 0.930 . S
C1463 C1462 1.369 . S
C1463 C1472 1.429 . S
C1464 C1462 1.419 . S
C1464 C1465 1.363 . S
C1464 H1467 0.929 . S
C1465 C1464 1.363 . S
C1465 C1471 1.428 . S
H1466 C1462 0.930 . S
H1467 C1464 0.929 . S
S1468 N1469 1.613 . S
S1468 N1470 1.610 . S
N1469 S1468 1.613 . S
N1469 C1472 1.350 . S
N1470 S1468 1.610 . S
N1470 C1471 1.351 . S
C1471 C1465 1.428 . S
C1471 N1470 1.351 . S
C1471 C1472 1.434 . S
C1472 C1463 1.429 . S
C1472 N1469 1.350 . S
C1472 C1471 1.434 . S
C1473 C1474 1.369 . S
C1473 C1475 1.419 . S
C1473 H1477 0.930 . S
C1474 C1473 1.369 . S
C1474 C1483 1.429 . S
C1475 C1473 1.419 . S
C1475 C1476 1.363 . S
C1475 H1478 0.929 . S
C1476 C1475 1.363 . S
C1476 C1482 1.428 . S
H1477 C1473 0.930 . S
H1478 C1475 0.929 . S
S1479 N1480 1.613 . S
S1479 N1481 1.610 . S
N1480 S1479 1.613 . S
N1480 C1483 1.350 . S
N1481 S1479 1.610 . S
N1481 C1482 1.351 . S
C1482 C1476 1.428 . S
C1482 N1481 1.351 . S
C1482 C1483 1.434 . S
C1483 C1474 1.429 . S
C1483 N1480 1.350 . S
C1483 C1482 1.434 . S
C1484 C1485 1.369 . S
C1484 C1486 1.419 . S
C1484 H1488 0.930 . S
C1485 C1484 1.369 . S
C1485 C1494 1.429 . S
C1486 C1484 1.419 . S
C1486 C1487 1.363 . S
C1486 H1489 0.929 . S
C1487 C1486 1.363 . S
C1487 C1493 1.428 . S
H1488 C1484 0.930 . S
H1489 C1486 0.929 . S
S1490 N1491 1.613 . S
S1490 N1492 1.610 . S
N1491 S1490 1.613 . S
N1491 C1494 1.350 . S
N1492 S1490 1.610 . S
N1492 C1493 1.351 . S
C1493 C1487 1.428 . S
C1493 N1492 1.351 . S
C1493 C1494 1.434 . S
C1494 C1485 1.429 . S
C1494 N1491 1.350 . S
C1494 C1493 1.434 . S
C1495 C1496 1.369 . S
C1495 C1497 1.419 . S
C1495 H1499 0.930 . S
C1496 C1495 1.369 . S
C1496 C1505 1.429 . S
C1497 C1495 1.419 . S
C1497 C1498 1.363 . S
C1497 H1500 0.929 . S
C1498 C1497 1.363 . S
C1498 C1504 1.428 . S
H1499 C1495 0.930 . S
H1500 C1497 0.929 . S
S1501 N1502 1.613 . S
S1501 N1503 1.610 . S
N1502 S1501 1.613 . S
N1502 C1505 1.350 . S
N1503 S1501 1.610 . S
N1503 C1504 1.351 . S
C1504 C1498 1.428 . S
C1504 N1503 1.351 . S
C1504 C1505 1.434 . S
C1505 C1496 1.429 . S
C1505 N1502 1.350 . S
C1505 C1504 1.434 . S
C1506 C1507 1.369 . S
C1506 C1508 1.410 1_556 S
C1506 H1510 0.930 . S
C1507 C1506 1.369 . S
C1507 C1516 1.429 . S
C1508 C1506 1.410 1_554 S
C1508 C1509 1.364 . S
C1508 H1511 0.937 . S
C1509 C1508 1.364 . S
C1509 C1515 1.428 1_554 S
H1510 C1506 0.930 . S
H1511 C1508 0.937 . S
S1512 N1513 1.613 . S
S1512 N1514 1.610 . S
N1513 S1512 1.613 . S
N1513 C1516 1.350 . S
N1514 S1512 1.610 . S
N1514 C1515 1.351 . S
C1515 C1509 1.428 1_556 S
C1515 N1514 1.351 . S
C1515 C1516 1.434 . S
C1516 C1507 1.429 . S
C1516 N1513 1.350 . S
C1516 C1515 1.434 . S
C1517 C1518 1.369 1_655 S
C1517 C1519 1.419 . S
C1517 H1521 0.930 . S
C1518 C1517 1.369 1_455 S
C1518 C1527 1.429 . S
C1519 C1517 1.419 . S
C1519 C1520 1.363 . S
C1519 H1522 0.929 . S
C1520 C1519 1.363 . S
C1520 C1526 1.428 . S
H1521 C1517 0.930 . S
H1522 C1519 0.929 . S
S1523 N1524 1.613 . S
S1523 N1525 1.610 1_455 S
N1524 S1523 1.613 . S
N1524 C1527 1.350 . S
N1525 S1523 1.610 1_655 S
N1525 C1526 1.351 . S
C1526 C1520 1.428 . S
C1526 N1525 1.351 . S
C1526 C1527 1.434 1_655 S
C1527 C1518 1.429 . S
C1527 N1524 1.350 . S
C1527 C1526 1.434 1_455 S
C1528 C1529 1.369 1_556 S
C1528 C1530 1.419 . S
C1528 H1532 0.930 . S
C1529 C1528 1.369 1_554 S
C1529 C1538 1.429 . S
C1530 C1528 1.419 . S
C1530 C1531 1.363 . S
C1530 H1533 0.929 . S
C1531 C1530 1.363 . S
C1531 C1537 1.428 . S
H1532 C1528 0.930 . S
H1533 C1530 0.929 . S
S1534 N1535 1.613 . S
S1534 N1536 1.610 . S
N1535 S1534 1.613 . S
N1535 C1538 1.350 . S
N1536 S1534 1.610 . S
N1536 C1537 1.351 1_554 S
C1537 C1531 1.428 . S
C1537 N1536 1.351 1_556 S
C1537 C1538 1.434 1_556 S
C1538 C1529 1.429 . S
C1538 N1535 1.350 . S
C1538 C1537 1.434 1_554 S
C1539 C1540 1.369 . S
C1539 C1541 1.419 1_455 S
C1539 H1543 0.930 . S
C1540 C1539 1.369 . S
C1540 C1549 1.429 . S
C1541 C1539 1.419 1_655 S
C1541 C1542 1.363 . S
C1541 H1544 0.929 . S
C1542 C1541 1.363 . S
C1542 C1548 1.428 1_655 S
H1543 C1539 0.930 . S
H1544 C1541 0.929 . S
S1545 N1546 1.613 . S
S1545 N1547 1.610 . S
N1546 S1545 1.613 . S
N1546 C1549 1.350 . S
N1547 S1545 1.610 . S
N1547 C1548 1.351 . S
C1548 C1542 1.428 1_455 S
C1548 N1547 1.351 . S
C1548 C1549 1.434 . S
C1549 C1540 1.429 . S
C1549 N1546 1.350 . S
C1549 C1548 1.434 . S
C1550 C1551 1.369 . S
C1550 C1552 1.419 . S
C1550 H1554 0.930 . S
C1551 C1550 1.369 . S
C1551 C1560 1.429 . S
C1552 C1550 1.419 . S
C1552 C1553 1.363 . S
C1552 H1555 0.929 . S
C1553 C1552 1.363 . S
C1553 C1559 1.428 . S
H1554 C1550 0.930 . S
H1555 C1552 0.929 . S
S1556 N1557 1.613 . S
S1556 N1558 1.610 . S
N1557 S1556 1.613 . S
N1557 C1560 1.350 . S
N1558 S1556 1.610 . S
N1558 C1559 1.351 . S
C1559 C1553 1.428 . S
C1559 N1558 1.351 . S
C1559 C1560 1.434 . S
C1560 C1551 1.429 . S
C1560 N1557 1.350 . S
C1560 C1559 1.434 . S
C1561 C1562 1.369 . S
C1561 C1563 1.419 . S
C1561 H1565 0.930 . S
C1562 C1561 1.369 . S
C1562 C1571 1.429 . S
C1563 C1561 1.419 . S
C1563 C1564 1.363 . S
C1563 H1566 0.929 . S
C1564 C1563 1.363 . S
C1564 C1570 1.428 . S
H1565 C1561 0.930 . S
H1566 C1563 0.929 . S
S1567 N1568 1.613 . S
S1567 N1569 1.610 . S
N1568 S1567 1.613 . S
N1568 C1571 1.350 . S
N1569 S1567 1.610 . S
N1569 C1570 1.351 . S
C1570 C1564 1.428 . S
C1570 N1569 1.351 . S
C1570 C1571 1.434 . S
C1571 C1562 1.429 . S
C1571 N1568 1.350 . S
C1571 C1570 1.434 . S
C1572 C1573 1.369 . S
C1572 C1574 1.419 . S
C1572 H1576 0.930 . S
C1573 C1572 1.369 . S
C1573 C1582 1.429 . S
C1574 C1572 1.419 . S
C1574 C1575 1.363 . S
C1574 H1577 0.929 . S
C1575 C1574 1.363 . S
C1575 C1581 1.428 . S
H1576 C1572 0.930 . S
H1577 C1574 0.929 . S
S1578 N1579 1.613 . S
S1578 N1580 1.610 . S
N1579 S1578 1.613 . S
N1579 C1582 1.350 . S
N1580 S1578 1.610 . S
N1580 C1581 1.351 . S
C1581 C1575 1.428 . S
C1581 N1580 1.351 . S
C1581 C1582 1.434 . S
C1582 C1573 1.429 . S
C1582 N1579 1.350 . S
C1582 C1581 1.434 . S
C1583 C1584 1.369 . S
C1583 C1585 1.419 . S
C1583 H1587 0.930 . S
C1584 C1583 1.369 . S
C1584 C1593 1.429 . S
C1585 C1583 1.419 . S
C1585 C1586 1.363 . S
C1585 H1588 0.929 . S
C1586 C1585 1.363 . S
C1586 C1592 1.428 . S
H1587 C1583 0.930 . S
H1588 C1585 0.929 . S
S1589 N1590 1.613 . S
S1589 N1591 1.610 . S
N1590 S1589 1.613 . S
N1590 C1593 1.350 . S
N1591 S1589 1.610 . S
N1591 C1592 1.351 . S
C1592 C1586 1.428 . S
C1592 N1591 1.351 . S
C1592 C1593 1.434 . S
C1593 C1584 1.429 . S
C1593 N1590 1.350 . S
C1593 C1592 1.434 . S
C1594 C1595 1.369 1_554 S
C1594 C1596 1.419 . S
C1594 H1598 0.930 . S
C1595 C1594 1.369 1_556 S
C1595 C1604 1.429 1_556 S
C1596 C1594 1.419 . S
C1596 C1597 1.363 . S
C1596 H1599 0.929 . S
C1597 C1596 1.363 . S
C1597 C1603 1.428 . S
H1598 C1594 0.930 . S
H1599 C1596 0.929 . S
S1600 N1601 1.613 1_554 S
S1600 N1602 1.610 . S
N1601 S1600 1.613 1_556 S
N1601 C1604 1.350 1_556 S
N1602 S1600 1.610 . S
N1602 C1603 1.351 . S
C1603 C1597 1.428 . S
C1603 N1602 1.351 . S
C1603 C1604 1.434 . S
C1604 C1595 1.429 1_554 S
C1604 N1601 1.350 1_554 S
C1604 C1603 1.434 . S
C1605 C1606 1.369 . S
C1605 C1607 1.419 1_455 S
C1605 H1609 0.927 1_455 S
C1606 C1605 1.369 . S
C1606 C1615 1.429 . S
C1607 C1605 1.419 1_655 S
C1607 C1608 1.363 . S
C1607 H1610 0.929 . S
C1608 C1607 1.363 . S
C1608 C1614 1.428 1_655 S
H1609 C1605 0.927 1_655 S
H1610 C1607 0.929 . S
S1611 N1612 1.613 . S
S1611 N1613 1.610 . S
N1612 S1611 1.613 . S
N1612 C1615 1.350 . S
N1613 S1611 1.610 . S
N1613 C1614 1.351 . S
C1614 C1608 1.428 1_455 S
C1614 N1613 1.351 . S
C1614 C1615 1.434 . S
C1615 C1606 1.429 . S
C1615 N1612 1.350 . S
C1615 C1614 1.434 . S
C1616 C1617 1.369 . S
C1616 C1618 1.419 . S
C1616 H1620 0.930 . S
C1617 C1616 1.369 . S
C1617 C1626 1.429 . S
C1618 C1616 1.419 . S
C1618 C1619 1.363 . S
C1618 H1621 0.929 . S
C1619 C1618 1.363 . S
C1619 C1625 1.428 . S
H1620 C1616 0.930 . S
H1621 C1618 0.929 . S
S1622 N1623 1.613 . S
S1622 N1624 1.610 . S
N1623 S1622 1.613 . S
N1623 C1626 1.350 . S
N1624 S1622 1.610 . S
N1624 C1625 1.351 . S
C1625 C1619 1.428 . S
C1625 N1624 1.351 . S
C1625 C1626 1.434 . S
C1626 C1617 1.429 . S
C1626 N1623 1.350 . S
C1626 C1625 1.434 . S
C1627 C1628 1.369 . S
C1627 C1629 1.419 . S
C1627 H1631 0.930 . S
C1628 C1627 1.369 . S
C1628 C1637 1.429 . S
C1629 C1627 1.419 . S
C1629 C1630 1.363 . S
C1629 H1632 0.929 . S
C1630 C1629 1.363 . S
C1630 C1636 1.428 . S
H1631 C1627 0.930 . S
H1632 C1629 0.929 . S
S1633 N1634 1.613 . S
S1633 N1635 1.610 . S
N1634 S1633 1.613 . S
N1634 C1637 1.350 . S
N1635 S1633 1.610 . S
N1635 C1636 1.351 . S
C1636 C1630 1.428 . S
C1636 N1635 1.351 . S
C1636 C1637 1.434 . S
C1637 C1628 1.429 . S
C1637 N1634 1.350 . S
C1637 C1636 1.434 . S
C1638 C1639 1.369 . S
C1638 C1640 1.419 . S
C1638 H1642 0.930 . S
C1639 C1638 1.369 . S
C1639 C1648 1.429 . S
C1640 C1638 1.419 . S
C1640 C1641 1.363 1_554 S
C1640 H1643 0.929 . S
C1641 C1640 1.363 1_556 S
C1641 C1647 1.428 . S
H1642 C1638 0.930 . S
H1643 C1640 0.929 . S
S1644 N1645 1.613 . S
S1644 N1646 1.610 . S
N1645 S1644 1.613 . S
N1645 C1648 1.350 1_556 S
N1646 S1644 1.610 . S
N1646 C1647 1.351 . S
C1647 C1641 1.428 . S
C1647 N1646 1.351 . S
C1647 C1648 1.434 1_556 S
C1648 C1639 1.429 . S
C1648 N1645 1.350 1_554 S
C1648 C1647 1.434 1_554 S
C1649 C1650 1.369 . S
C1649 C1651 1.419 1_655 S
C1649 H1653 0.930 . S
C1650 C1649 1.369 . S
C1650 C1659 1.429 1_655 S
C1651 C1649 1.419 1_455 S
C1651 C1652 1.363 . S
C1651 H1654 0.931 . S
C1652 C1651 1.363 . S
C1652 C1658 1.428 . S
H1653 C1649 0.930 . S
H1654 C1651 0.931 . S
S1655 N1656 1.613 . S
S1655 N1657 1.610 . S
N1656 S1655 1.613 . S
N1656 C1659 1.350 . S
N1657 S1655 1.610 . S
N1657 C1658 1.351 . S
C1658 C1652 1.428 . S
C1658 N1657 1.351 . S
C1658 C1659 1.434 . S
C1659 C1650 1.429 1_455 S
C1659 N1656 1.350 . S
C1659 C1658 1.434 . S
C1660 C1661 1.369 . S
C1660 C1662 1.419 1_554 S
C1660 H1664 0.930 . S
C1661 C1660 1.369 . S
C1661 C1670 1.429 1_554 S
C1662 C1660 1.419 1_556 S
C1662 C1663 1.363 . S
C1662 H1665 0.929 . S
C1663 C1662 1.363 . S
C1663 C1669 1.428 . S
H1664 C1660 0.930 . S
H1665 C1662 0.929 . S
S1666 N1667 1.613 . S
S1666 N1668 1.610 . S
N1667 S1666 1.613 . S
N1667 C1670 1.350 . S
N1668 S1666 1.610 . S
N1668 C1669 1.351 . S
C1669 C1663 1.428 . S
C1669 N1668 1.351 . S
C1669 C1670 1.434 . S
C1670 C1661 1.429 1_556 S
C1670 N1667 1.350 . S
C1670 C1669 1.434 . S
C1671 C1672 1.369 . S
C1671 C1673 1.419 1_655 S
C1671 H1675 0.930 . S
C1672 C1671 1.369 . S
C1672 C1681 1.429 1_655 S
C1673 C1671 1.419 1_455 S
C1673 C1674 1.363 . S
C1673 H1676 0.919 1_455 S
C1674 C1673 1.363 . S
C1674 C1680 1.428 . S
H1675 C1671 0.930 . S
H1676 C1673 0.919 1_655 S
S1677 N1678 1.613 . S
S1677 N1679 1.610 . S
N1678 S1677 1.613 . S
N1678 C1681 1.350 . S
N1679 S1677 1.610 . S
N1679 C1680 1.351 . S
C1680 C1674 1.428 . S
C1680 N1679 1.351 . S
C1680 C1681 1.434 . S
C1681 C1672 1.429 1_455 S
C1681 N1678 1.350 . S
C1681 C1680 1.434 . S
C1682 C1683 1.369 . S
C1682 C1684 1.419 . S
C1682 H1686 0.930 . S
C1683 C1682 1.369 . S
C1683 C1692 1.429 . S
C1684 C1682 1.419 . S
C1684 C1685 1.363 . S
C1684 H1687 0.929 . S
C1685 C1684 1.363 . S
C1685 C1691 1.428 . S
H1686 C1682 0.930 . S
H1687 C1684 0.929 . S
S1688 N1689 1.613 . S
S1688 N1690 1.610 . S
N1689 S1688 1.613 . S
N1689 C1692 1.350 . S
N1690 S1688 1.610 . S
N1690 C1691 1.351 . S
C1691 C1685 1.428 . S
C1691 N1690 1.351 . S
C1691 C1692 1.434 . S
C1692 C1683 1.429 . S
C1692 N1689 1.350 . S
C1692 C1691 1.434 . S
C1693 C1694 1.369 . S
C1693 C1695 1.419 . S
C1693 H1697 0.930 . S
C1694 C1693 1.369 . S
C1694 C1703 1.429 . S
C1695 C1693 1.419 . S
C1695 C1696 1.363 . S
C1695 H1698 0.929 . S
C1696 C1695 1.363 . S
C1696 C1702 1.428 . S
H1697 C1693 0.930 . S
H1698 C1695 0.929 . S
S1699 N1700 1.613 . S
S1699 N1701 1.610 . S
N1700 S1699 1.613 . S
N1700 C1703 1.350 . S
N1701 S1699 1.610 . S
N1701 C1702 1.351 . S
C1702 C1696 1.428 . S
C1702 N1701 1.351 . S
C1702 C1703 1.434 . S
C1703 C1694 1.429 . S
C1703 N1700 1.350 . S
C1703 C1702 1.434 . S
C1704 C1705 1.369 . S
C1704 C1706 1.419 . S
C1704 H1708 0.930 . S
C1705 C1704 1.369 . S
C1705 C1714 1.429 . S
C1706 C1704 1.419 . S
C1706 C1707 1.363 . S
C1706 H1709 0.929 . S
C1707 C1706 1.363 . S
C1707 C1713 1.428 . S
H1708 C1704 0.930 . S
H1709 C1706 0.929 . S
S1710 N1711 1.613 . S
S1710 N1712 1.610 . S
N1711 S1710 1.613 . S
N1711 C1714 1.350 . S
N1712 S1710 1.610 . S
N1712 C1713 1.351 . S
C1713 C1707 1.428 . S
C1713 N1712 1.351 . S
C1713 C1714 1.434 . S
C1714 C1705 1.429 . S
C1714 N1711 1.350 . S
C1714 C1713 1.434 . S
C1715 C1716 1.369 . S
C1715 C1717 1.419 . S
C1715 H1719 0.930 . S
C1716 C1715 1.369 . S
C1716 C1725 1.429 . S
C1717 C1715 1.419 . S
C1717 C1718 1.363 . S
C1717 H1720 0.929 . S
C1718 C1717 1.363 . S
C1718 C1724 1.428 . S
H1719 C1715 0.930 . S
H1720 C1717 0.929 . S
S1721 N1722 1.613 . S
S1721 N1723 1.610 . S
N1722 S1721 1.613 . S
N1722 C1725 1.350 . S
N1723 S1721 1.610 . S
N1723 C1724 1.351 . S
C1724 C1718 1.428 . S
C1724 N1723 1.351 . S
C1724 C1725 1.434 . S
C1725 C1716 1.429 . S
C1725 N1722 1.350 . S
C1725 C1724 1.434 . S
C1726 C1727 1.369 . S
C1726 C1728 1.419 . S
C1726 H1730 0.930 . S
C1727 C1726 1.369 . S
C1727 C1736 1.429 . S
C1728 C1726 1.419 . S
C1728 C1729 1.363 1_556 S
C1728 H1731 0.929 . S
C1729 C1728 1.363 1_554 S
C1729 C1735 1.428 1_554 S
H1730 C1726 0.930 . S
H1731 C1728 0.929 . S
S1732 N1733 1.613 . S
S1732 N1734 1.610 1_556 S
N1733 S1732 1.613 . S
N1733 C1736 1.350 . S
N1734 S1732 1.610 1_554 S
N1734 C1735 1.351 1_554 S
C1735 C1729 1.428 1_556 S
C1735 N1734 1.351 1_556 S
C1735 C1736 1.434 . S
C1736 C1727 1.429 . S
C1736 N1733 1.350 . S
C1736 C1735 1.434 . S
C1737 C1738 1.369 . S
C1737 C1739 1.419 . S
C1737 H1741 0.930 . S
C1738 C1737 1.369 . S
C1738 C1747 1.429 . S
C1739 C1737 1.419 . S
C1739 C1740 1.363 1_655 S
C1739 H1742 0.929 . S
C1740 C1739 1.363 1_455 S
C1740 C1746 1.428 . S
H1741 C1737 0.930 . S
H1742 C1739 0.929 . S
S1743 N1744 1.613 1_455 S
S1743 N1745 1.610 . S
N1744 S1743 1.613 1_655 S
N1744 C1747 1.350 . S
N1745 S1743 1.610 . S
N1745 C1746 1.351 . S
C1746 C1740 1.428 . S
C1746 N1745 1.351 . S
C1746 C1747 1.434 1_455 S
C1747 C1738 1.429 . S
C1747 N1744 1.350 . S
C1747 C1746 1.434 1_655 S
C1748 C1749 1.369 1_554 S
C1748 C1750 1.419 . S
C1748 H1752 0.930 1_554 S
C1749 C1748 1.369 1_556 S
C1749 C1758 1.429 1_556 S
C1750 C1748 1.419 . S
C1750 C1751 1.363 . S
C1750 H1753 0.929 . S
C1751 C1750 1.363 . S
C1751 C1757 1.428 . S
H1752 C1748 0.930 1_556 S
H1753 C1750 0.929 . S
S1754 N1755 1.613 . S
S1754 N1756 1.610 . S
N1755 S1754 1.613 . S
N1755 C1758 1.350 . S
N1756 S1754 1.610 . S
N1756 C1757 1.351 . S
C1757 C1751 1.428 . S
C1757 N1756 1.351 . S
C1757 C1758 1.434 . S
C1758 C1749 1.429 1_554 S
C1758 N1755 1.350 . S
C1758 C1757 1.434 . S
C1759 C1760 1.369 1_655 S
C1759 C1761 1.419 . S
C1759 H1763 0.930 . S
C1760 C1759 1.369 1_455 S
C1760 C1769 1.429 . S
C1761 C1759 1.419 . S
C1761 C1762 1.363 . S
C1761 H1764 0.929 . S
C1762 C1761 1.363 . S
C1762 C1768 1.428 . S
H1763 C1759 0.930 . S
H1764 C1761 0.929 . S
S1765 N1766 1.613 . S
S1765 N1767 1.610 1_455 S
N1766 S1765 1.613 . S
N1766 C1769 1.350 . S
N1767 S1765 1.610 1_655 S
N1767 C1768 1.351 . S
C1768 C1762 1.428 . S
C1768 N1767 1.351 . S
C1768 C1769 1.434 1_655 S
C1769 C1760 1.429 . S
C1769 N1766 1.350 . S
C1769 C1768 1.434 1_455 S
C1770 C1771 1.369 . S
C1770 C1772 1.419 . S
C1770 H1774 0.930 . S
C1771 C1770 1.369 . S
C1771 C1780 1.429 . S
C1772 C1770 1.419 . S
C1772 C1773 1.363 . S
C1772 H1775 0.929 . S
C1773 C1772 1.363 . S
C1773 C1779 1.428 . S
H1774 C1770 0.930 . S
H1775 C1772 0.929 . S
S1776 N1777 1.613 . S
S1776 N1778 1.610 . S
N1777 S1776 1.613 . S
N1777 C1780 1.350 . S
N1778 S1776 1.610 . S
N1778 C1779 1.351 . S
C1779 C1773 1.428 . S
C1779 N1778 1.351 . S
C1779 C1780 1.434 . S
C1780 C1771 1.429 . S
C1780 N1777 1.350 . S
C1780 C1779 1.434 . S
C1781 C1782 1.369 . S
C1781 C1783 1.419 . S
C1781 H1785 0.930 . S
C1782 C1781 1.369 . S
C1782 C1791 1.429 . S
C1783 C1781 1.419 . S
C1783 C1784 1.363 . S
C1783 H1786 0.929 . S
C1784 C1783 1.363 . S
C1784 C1790 1.428 . S
H1785 C1781 0.930 . S
H1786 C1783 0.929 . S
S1787 N1788 1.613 . S
S1787 N1789 1.610 . S
N1788 S1787 1.613 . S
N1788 C1791 1.350 . S
N1789 S1787 1.610 . S
N1789 C1790 1.351 . S
C1790 C1784 1.428 . S
C1790 N1789 1.351 . S
C1790 C1791 1.434 . S
C1791 C1782 1.429 . S
C1791 N1788 1.350 . S
C1791 C1790 1.434 . S
C1792 C1793 1.369 . S
C1792 C1794 1.419 . S
C1792 H1796 0.930 . S
C1793 C1792 1.369 . S
C1793 C1802 1.429 . S
C1794 C1792 1.419 . S
C1794 C1795 1.363 . S
C1794 H1797 0.929 . S
C1795 C1794 1.363 . S
C1795 C1801 1.428 . S
H1796 C1792 0.930 . S
H1797 C1794 0.929 . S
S1798 N1799 1.613 1_556 S
S1798 N1800 1.610 . S
N1799 S1798 1.613 1_554 S
N1799 C1802 1.350 . S
N1800 S1798 1.610 . S
N1800 C1801 1.351 1_556 S
C1801 C1795 1.428 . S
C1801 N1800 1.351 1_554 S
C1801 C1802 1.434 . S
C1802 C1793 1.429 . S
C1802 N1799 1.350 . S
C1802 C1801 1.434 . S
C1803 C1804 1.369 . S
C1803 C1805 1.419 . S
C1803 H1807 0.930 . S
C1804 C1803 1.369 . S
C1804 C1813 1.429 . S
C1805 C1803 1.419 . S
C1805 C1806 1.363 . S
C1805 H1808 0.929 . S
C1806 C1805 1.363 . S
C1806 C1812 1.428 . S
H1807 C1803 0.930 . S
H1808 C1805 0.929 . S
S1809 N1810 1.613 . S
S1809 N1811 1.610 . S
N1810 S1809 1.613 . S
N1810 C1813 1.350 . S
N1811 S1809 1.610 . S
N1811 C1812 1.351 . S
C1812 C1806 1.428 . S
C1812 N1811 1.351 . S
C1812 C1813 1.434 . S
C1813 C1804 1.429 . S
C1813 N1810 1.350 . S
C1813 C1812 1.434 . S
C1814 C1815 1.369 . S
C1814 C1816 1.419 . S
C1814 H1818 0.930 . S
C1815 C1814 1.369 . S
C1815 C1824 1.429 . S
C1816 C1814 1.419 . S
C1816 C1817 1.363 . S
C1816 H1819 0.929 . S
C1817 C1816 1.363 . S
C1817 C1823 1.428 . S
H1818 C1814 0.930 . S
H1819 C1816 0.929 . S
S1820 N1821 1.613 . S
S1820 N1822 1.610 . S
N1821 S1820 1.613 . S
N1821 C1824 1.350 . S
N1822 S1820 1.610 . S
N1822 C1823 1.351 . S
C1823 C1817 1.428 . S
C1823 N1822 1.351 . S
C1823 C1824 1.434 . S
C1824 C1815 1.429 . S
C1824 N1821 1.350 . S
C1824 C1823 1.434 . S
C1825 C1826 1.369 . S
C1825 C1827 1.419 . S
C1825 H1829 0.930 . S
C1826 C1825 1.369 . S
C1826 C1835 1.429 . S
C1827 C1825 1.419 . S
C1827 C1828 1.363 . S
C1827 H1830 0.929 . S
C1828 C1827 1.363 . S
C1828 C1834 1.428 . S
H1829 C1825 0.930 . S
H1830 C1827 0.929 . S
S1831 N1832 1.613 . S
S1831 N1833 1.610 1_554 S
N1832 S1831 1.613 . S
N1832 C1835 1.350 1_554 S
N1833 S1831 1.610 1_556 S
N1833 C1834 1.351 . S
C1834 C1828 1.428 . S
C1834 N1833 1.351 . S
C1834 C1835 1.434 . S
C1835 C1826 1.429 . S
C1835 N1832 1.350 1_556 S
C1835 C1834 1.434 . S
C1836 C1837 1.369 . S
C1836 C1838 1.419 . S
C1836 H1840 0.930 . S
C1837 C1836 1.369 . S
C1837 C1846 1.429 . S
C1838 C1836 1.419 . S
C1838 C1839 1.363 . S
C1838 H1841 0.929 . S
C1839 C1838 1.363 . S
C1839 C1845 1.428 . S
H1840 C1836 0.930 . S
H1841 C1838 0.929 . S
S1842 N1843 1.613 . S
S1842 N1844 1.610 . S
N1843 S1842 1.613 . S
N1843 C1846 1.350 . S
N1844 S1842 1.610 . S
N1844 C1845 1.351 . S
C1845 C1839 1.428 . S
C1845 N1844 1.351 . S
C1845 C1846 1.434 . S
C1846 C1837 1.429 . S
C1846 N1843 1.350 . S
C1846 C1845 1.434 . S
C1847 C1848 1.369 . S
C1847 C1849 1.419 . S
C1847 H1851 0.930 . S
C1848 C1847 1.369 . S
C1848 C1857 1.429 . S
C1849 C1847 1.419 . S
C1849 C1850 1.363 . S
C1849 H1852 0.929 . S
C1850 C1849 1.363 . S
C1850 C1856 1.428 . S
H1851 C1847 0.930 . S
H1852 C1849 0.929 . S
S1853 N1854 1.613 . S
S1853 N1855 1.610 . S
N1854 S1853 1.613 . S
N1854 C1857 1.350 . S
N1855 S1853 1.610 . S
N1855 C1856 1.351 . S
C1856 C1850 1.428 . S
C1856 N1855 1.351 . S
C1856 C1857 1.434 . S
C1857 C1848 1.429 . S
C1857 N1854 1.350 . S
C1857 C1856 1.434 . S
C1858 C1859 1.369 . S
C1858 C1860 1.419 . S
C1858 H1862 0.930 . S
C1859 C1858 1.369 . S
C1859 C1868 1.429 . S
C1860 C1858 1.419 . S
C1860 C1861 1.363 . S
C1860 H1863 0.929 . S
C1861 C1860 1.363 . S
C1861 C1867 1.428 . S
H1862 C1858 0.930 . S
H1863 C1860 0.929 . S
S1864 N1865 1.613 . S
S1864 N1866 1.610 . S
N1865 S1864 1.613 . S
N1865 C1868 1.350 . S
N1866 S1864 1.610 . S
N1866 C1867 1.351 . S
C1867 C1861 1.428 . S
C1867 N1866 1.351 . S
C1867 C1868 1.434 . S
C1868 C1859 1.429 . S
C1868 N1865 1.350 . S
C1868 C1867 1.434 . S
C1869 C1870 1.369 . S
C1869 C1871 1.419 . S
C1869 H1873 0.930 . S
C1870 C1869 1.369 . S
C1870 C1879 1.429 . S
C1871 C1869 1.419 . S
C1871 C1872 1.363 . S
C1871 H1874 0.929 . S
C1872 C1871 1.363 . S
C1872 C1878 1.428 . S
H1873 C1869 0.930 . S
H1874 C1871 0.929 . S
S1875 N1876 1.613 . S
S1875 N1877 1.610 . S
N1876 S1875 1.613 . S
N1876 C1879 1.350 . S
N1877 S1875 1.610 . S
N1877 C1878 1.351 . S
C1878 C1872 1.428 . S
C1878 N1877 1.351 . S
C1878 C1879 1.434 . S
C1879 C1870 1.429 . S
C1879 N1876 1.350 . S
C1879 C1878 1.434 . S
C1880 C1881 1.369 . S
C1880 C1882 1.419 . S
C1880 H1884 0.930 . S
C1881 C1880 1.369 . S
C1881 C1890 1.429 . S
C1882 C1880 1.419 . S
C1882 C1883 1.363 . S
C1882 H1885 0.929 . S
C1883 C1882 1.363 . S
C1883 C1889 1.428 . S
H1884 C1880 0.930 . S
H1885 C1882 0.929 . S
S1886 N1887 1.613 . S
S1886 N1888 1.610 . S
N1887 S1886 1.613 . S
N1887 C1890 1.350 . S
N1888 S1886 1.610 . S
N1888 C1889 1.351 . S
C1889 C1883 1.428 . S
C1889 N1888 1.351 . S
C1889 C1890 1.434 . S
C1890 C1881 1.429 . S
C1890 N1887 1.350 . S
C1890 C1889 1.434 . S
C1891 C1892 1.369 . S
C1891 C1893 1.419 . S
C1891 H1895 0.930 . S
C1892 C1891 1.369 . S
C1892 C1901 1.429 . S
C1893 C1891 1.419 . S
C1893 C1894 1.363 . S
C1893 H1896 0.929 . S
C1894 C1893 1.363 . S
C1894 C1900 1.428 . S
H1895 C1891 0.930 . S
H1896 C1893 0.929 . S
S1897 N1898 1.613 1_554 S
S1897 N1899 1.610 . S
N1898 S1897 1.613 1_556 S
N1898 C1901 1.350 . S
N1899 S1897 1.610 . S
N1899 C1900 1.351 1_554 S
C1900 C1894 1.428 . S
C1900 N1899 1.351 1_556 S
C1900 C1901 1.434 . S
C1901 C1892 1.429 . S
C1901 N1898 1.350 . S
C1901 C1900 1.434 . S
C1902 C1903 1.369 . S
C1902 C1904 1.419 . S
C1902 H1906 0.930 . S
C1903 C1902 1.369 . S
C1903 C1912 1.429 . S
C1904 C1902 1.419 . S
C1904 C1905 1.363 . S
C1904 H1907 0.929 . S
C1905 C1904 1.363 . S
C1905 C1911 1.428 . S
H1906 C1902 0.930 . S
H1907 C1904 0.929 . S
S1908 N1909 1.613 . S
S1908 N1910 1.610 . S
N1909 S1908 1.613 . S
N1909 C1912 1.350 . S
N1910 S1908 1.610 . S
N1910 C1911 1.351 . S
C1911 C1905 1.428 . S
C1911 N1910 1.351 . S
C1911 C1912 1.434 . S
C1912 C1903 1.429 . S
C1912 N1909 1.350 . S
C1912 C1911 1.434 . S
C1913 C1914 1.369 . S
C1913 C1915 1.419 . S
C1913 H1917 0.930 . S
C1914 C1913 1.369 . S
C1914 C1923 1.429 . S
C1915 C1913 1.419 . S
C1915 C1916 1.363 . S
C1915 H1918 0.929 . S
C1916 C1915 1.363 . S
C1916 C1922 1.428 . S
H1917 C1913 0.930 . S
H1918 C1915 0.929 . S
S1919 N1920 1.613 . S
S1919 N1921 1.610 . S
N1920 S1919 1.613 . S
N1920 C1923 1.350 . S
N1921 S1919 1.610 . S
N1921 C1922 1.351 . S
C1922 C1916 1.428 . S
C1922 N1921 1.351 . S
C1922 C1923 1.434 . S
C1923 C1914 1.429 . S
C1923 N1920 1.350 . S
C1923 C1922 1.434 . S
C1924 C1925 1.369 . S
C1924 C1926 1.419 . S
C1924 H1928 0.930 . S
C1925 C1924 1.369 . S
C1925 C1934 1.429 . S
C1926 C1924 1.419 . S
C1926 C1927 1.363 . S
C1926 H1929 0.929 . S
C1927 C1926 1.363 . S
C1927 C1933 1.428 . S
H1928 C1924 0.930 . S
H1929 C1926 0.929 . S
S1930 N1931 1.613 . S
S1930 N1932 1.610 . S
N1931 S1930 1.613 . S
N1931 C1934 1.350 . S
N1932 S1930 1.610 . S
N1932 C1933 1.351 . S
C1933 C1927 1.428 . S
C1933 N1932 1.351 . S
C1933 C1934 1.434 . S
C1934 C1925 1.429 . S
C1934 N1931 1.350 . S
C1934 C1933 1.434 . S
C1935 C1936 1.369 . S
C1935 C1937 1.419 . S
C1935 H1939 0.930 . S
C1936 C1935 1.369 . S
C1936 C1945 1.429 . S
C1937 C1935 1.419 . S
C1937 C1938 1.363 . S
C1937 H1940 0.929 . S
C1938 C1937 1.363 . S
C1938 C1944 1.428 . S
H1939 C1935 0.930 . S
H1940 C1937 0.929 . S
S1941 N1942 1.613 . S
S1941 N1943 1.610 . S
N1942 S1941 1.613 . S
N1942 C1945 1.350 . S
N1943 S1941 1.610 . S
N1943 C1944 1.351 . S
C1944 C1938 1.428 . S
C1944 N1943 1.351 . S
C1944 C1945 1.434 . S
C1945 C1936 1.429 . S
C1945 N1942 1.350 . S
C1945 C1944 1.434 . S
C1946 C1947 1.369 . S
C1946 C1948 1.419 . S
C1946 H1950 0.930 . S
C1947 C1946 1.369 . S
C1947 C1956 1.429 . S
C1948 C1946 1.419 . S
C1948 C1949 1.363 . S
C1948 H1951 0.929 . S
C1949 C1948 1.363 . S
C1949 C1955 1.428 . S
H1950 C1946 0.930 . S
H1951 C1948 0.929 . S
S1952 N1953 1.613 . S
S1952 N1954 1.610 . S
N1953 S1952 1.613 . S
N1953 C1956 1.350 . S
N1954 S1952 1.610 . S
N1954 C1955 1.351 . S
C1955 C1949 1.428 . S
C1955 N1954 1.351 . S
C1955 C1956 1.434 . S
C1956 C1947 1.429 . S
C1956 N1953 1.350 . S
C1956 C1955 1.434 . S
C1957 C1958 1.369 . S
C1957 C1959 1.419 . S
C1957 H1961 0.930 . S
C1958 C1957 1.369 . S
C1958 C1967 1.429 . S
C1959 C1957 1.419 . S
C1959 C1960 1.363 . S
C1959 H1962 0.929 . S
C1960 C1959 1.363 . S
C1960 C1966 1.428 . S
H1961 C1957 0.930 . S
H1962 C1959 0.929 . S
S1963 N1964 1.613 . S
S1963 N1965 1.610 . S
N1964 S1963 1.613 . S
N1964 C1967 1.350 . S
N1965 S1963 1.610 . S
N1965 C1966 1.351 . S
C1966 C1960 1.428 . S
C1966 N1965 1.351 . S
C1966 C1967 1.434 . S
C1967 C1958 1.429 . S
C1967 N1964 1.350 . S
C1967 C1966 1.434 . S
C1089 C247 0.724 . S
C1091 C9 0.726 . S
C1100 C43 0.724 . S
C1102 C145 0.722 . S
C1111 C179 0.722 . S
C1113 C77 0.725 . S
C1122 C111 0.722 . S
C1124 C213 0.721 . S
C1133 C281 0.730 . S
C1135 C519 0.731 . S
C1144 C417 0.719 . S
C1146 C315 0.724 . S
C1155 C451 0.717 . S
C1157 C349 0.720 . S
C1166 C485 0.718 . S
C1168 C383 0.718 . S
C1177 C553 0.717 . S
C1179 C791 0.719 . S
C1188 C587 0.717 . S
C1190 C689 0.720 . S
C1199 C723 0.731 . S
C1201 C621 0.728 . S
C1210 C655 0.731 . S
C1212 C757 0.731 . S
C1221 C1063 0.721 . S
C1223 C825 0.725 . S
C1232 C859 0.718 . S
C1234 C961 0.722 . S
C1243 C995 0.718 . S
C1245 C893 0.718 . S
C1254 C927 0.732 . S
C1256 C1029 0.731 . S
C1265 C33 1.676 . S
C1267 C237 1.671 . S
C1276 C67 1.678 . S
C1278 C271 1.668 . S
C1287 C169 1.675 . S
C1289 C101 1.669 . S
C1298 C135 1.676 . S
C1300 C203 1.668 . S
C1309 C509 1.671 . S
C1311 C305 1.672 . S
C1320 C339 1.666 . S
C1322 C543 1.676 . S
C1331 C373 1.668 . S
C1333 C441 1.673 . S
C1342 C475 1.678 . S
C1344 C407 1.667 . S
C1353 C577 1.674 . S
C1355 C781 1.670 . S
C1364 C611 1.666 . S
C1366 C815 1.677 . S
C1375 C713 1.677 . S
C1377 C645 1.669 . S
C1386 C679 1.668 . S
C1388 C747 1.676 . S
C1397 C1053 1.676 . S
C1399 C849 1.668 . S
C1408 C1087 1.666 . S
C1410 C883 1.676 . S
C1419 C985 1.670 . S
C1421 C917 1.675 . S
C1430 C951 1.677 . S
C1432 C1019 1.668 . S
C1441 C5 1.684 . S
C1443 C1022 1.763 . S
C1452 C512 1.765 . S
C1454 C39 1.677 . S
C1463 C73 1.674 . S
C1465 C954 1.767 . S
C1474 C107 1.677 . S
C1476 C444 1.766 . S
C1485 C886 1.763 . S
C1487 C141 1.681 . S
C1496 C175 1.677 . S
C1498 C376 1.766 . S
C1507 C209 1.674 . S
C1509 C818 1.767 . S
C1518 C243 1.676 . S
C1520 C308 1.766 . S
C1529 C750 1.763 . S
C1531 C277 1.681 . S
C1540 C240 1.767 . S
C1542 C311 1.675 . S
C1551 C345 1.677 . S
C1553 C682 1.765 . S
C1562 C172 1.767 . S
C1564 C379 1.675 . S
C1573 C413 1.677 . S
C1575 C614 1.765 . S
C1584 C447 1.684 . S
C1586 C104 1.762 . S
C1595 C546 1.767 . S
C1597 C481 1.676 . S
C1606 C36 1.766 . S
C1608 C515 1.677 . S
C1617 C478 1.766 . S
C1619 C549 1.678 . S
C1628 C583 1.674 . S
C1630 C1056 1.766 . S
C1639 C617 1.684 . S
C1641 C410 1.763 . S
C1650 C651 1.679 . S
C1652 C988 1.764 . S
C1661 C342 1.764 . S
C1663 C685 1.678 . S
C1672 C719 1.678 . S
C1674 C920 1.765 . S
C1683 C753 1.679 . S
C1685 C274 1.764 . S
C1694 C787 1.675 . S
C1696 C852 1.767 . S
C1705 C821 1.684 . S
C1707 C206 1.762 . S
C1716 C855 1.678 . S
C1718 C784 1.765 . S
C1727 C889 1.674 . S
C1729 C138 1.767 . S
C1738 C716 1.762 . S
C1740 C923 1.683 . S
C1749 C70 1.763 . S
C1751 C957 1.681 . S
C1760 C991 1.682 . S
C1762 C648 1.764 . S
C1771 C1025 1.674 . S
C1773 C2 1.767 . S
C1782 C580 1.762 . S
C1784 C1059 1.683 . S
C1793 C20 1.985 . S
C1795 C258 1.981 . S
C1804 C54 1.984 . S
C1806 C156 1.982 . S
C1815 C88 1.981 . S
C1817 C190 1.984 . S
C1826 C122 1.980 . S
C1828 C224 1.984 . S
C1837 C530 1.984 . S
C1839 C292 1.980 . S
C1848 C428 1.983 . S
C1850 C326 1.980 . S
C1859 C462 1.985 . S
C1861 C360 1.981 . S
C1870 C496 1.981 . S
C1872 C394 1.984 . S
C1881 C802 1.984 . S
C1883 C564 1.982 . S
C1892 C700 1.984 . S
C1894 C598 1.980 . S
C1903 C734 1.982 . S
C1905 C632 1.983 . S
C1914 C666 1.983 . S
C1916 C768 1.983 . S
C1925 C836 1.983 . S
C1927 C1074 1.983 . S
C1936 C972 1.981 . S
C1938 C870 1.981 . S
C1947 C1006 1.983 . S
C1949 C904 1.983 . S
C1958 C1040 1.983 . S
C1960 C938 1.980 . S
