# Generated by pormake.
# Topology wkl, (6)-cn, num edge types: 1
# Building blocks:
#     Node 0, Type 0, BuildingBlock: IZENUY_clean_sbu_0, # of connection points: 6
#     Node 1, Type 0, BuildingBlock: IZENUY_clean_sbu_0, # of connection points: 6
#     Node 2, Type 0, BuildingBlock: IZENUY_clean_sbu_0, # of connection points: 6
#     Node 3, Type 0, BuildingBlock: IZENUY_clean_sbu_0, # of connection points: 6
#     Node 4, Type 0, BuildingBlock: IZENUY_clean_sbu_0, # of connection points: 6
#     Node 5, Type 0, BuildingBlock: IZENUY_clean_sbu_0, # of connection points: 6
#     Node 6, Type 0, BuildingBlock: IZENUY_clean_sbu_0, # of connection points: 6
#     Node 7, Type 0, BuildingBlock: IZENUY_clean_sbu_0, # of connection points: 6
#     Node 8, Type 0, BuildingBlock: IZENUY_clean_sbu_0, # of connection points: 6
#     Node 9, Type 0, BuildingBlock: IZENUY_clean_sbu_0, # of connection points: 6
#     Node 10, Type 0, BuildingBlock: IZENUY_clean_sbu_0, # of connection points: 6
#     Node 11, Type 0, BuildingBlock: IZENUY_clean_sbu_0, # of connection points: 6
#     Edge 12, Type (0, 0), BuildingBlock: AJUNOK_clean_linker_0, # of connection points: 2
#     Edge 13, Type (0, 0), BuildingBlock: AJUNOK_clean_linker_0, # of connection points: 2
#     Edge 14, Type (0, 0), BuildingBlock: AJUNOK_clean_linker_0, # of connection points: 2
#     Edge 15, Type (0, 0), BuildingBlock: AJUNOK_clean_linker_0, # of connection points: 2
#     Edge 16, Type (0, 0), BuildingBlock: AJUNOK_clean_linker_0, # of connection points: 2
#     Edge 17, Type (0, 0), BuildingBlock: AJUNOK_clean_linker_0, # of connection points: 2
#     Edge 18, Type (0, 0), BuildingBlock: AJUNOK_clean_linker_0, # of connection points: 2
#     Edge 19, Type (0, 0), BuildingBlock: AJUNOK_clean_linker_0, # of connection points: 2
#     Edge 20, Type (0, 0), BuildingBlock: AJUNOK_clean_linker_0, # of connection points: 2
#     Edge 21, Type (0, 0), BuildingBlock: AJUNOK_clean_linker_0, # of connection points: 2
#     Edge 22, Type (0, 0), BuildingBlock: AJUNOK_clean_linker_0, # of connection points: 2
#     Edge 23, Type (0, 0), BuildingBlock: AJUNOK_clean_linker_0, # of connection points: 2
#     Edge 24, Type (0, 0), BuildingBlock: AJUNOK_clean_linker_0, # of connection points: 2
#     Edge 25, Type (0, 0), BuildingBlock: AJUNOK_clean_linker_0, # of connection points: 2
#     Edge 26, Type (0, 0), BuildingBlock: AJUNOK_clean_linker_0, # of connection points: 2
#     Edge 27, Type (0, 0), BuildingBlock: AJUNOK_clean_linker_0, # of connection points: 2
#     Edge 28, Type (0, 0), BuildingBlock: AJUNOK_clean_linker_0, # of connection points: 2
#     Edge 29, Type (0, 0), BuildingBlock: AJUNOK_clean_linker_0, # of connection points: 2
#     Edge 30, Type (0, 0), BuildingBlock: AJUNOK_clean_linker_0, # of connection points: 2
#     Edge 31, Type (0, 0), BuildingBlock: AJUNOK_clean_linker_0, # of connection points: 2
#     Edge 32, Type (0, 0), BuildingBlock: AJUNOK_clean_linker_0, # of connection points: 2
#     Edge 33, Type (0, 0), BuildingBlock: AJUNOK_clean_linker_0, # of connection points: 2
#     Edge 34, Type (0, 0), BuildingBlock: AJUNOK_clean_linker_0, # of connection points: 2
#     Edge 35, Type (0, 0), BuildingBlock: AJUNOK_clean_linker_0, # of connection points: 2
#     Edge 36, Type (0, 0), BuildingBlock: AJUNOK_clean_linker_0, # of connection points: 2
#     Edge 37, Type (0, 0), BuildingBlock: AJUNOK_clean_linker_0, # of connection points: 2
#     Edge 38, Type (0, 0), BuildingBlock: AJUNOK_clean_linker_0, # of connection points: 2
#     Edge 39, Type (0, 0), BuildingBlock: AJUNOK_clean_linker_0, # of connection points: 2
#     Edge 40, Type (0, 0), BuildingBlock: AJUNOK_clean_linker_0, # of connection points: 2
#     Edge 41, Type (0, 0), BuildingBlock: AJUNOK_clean_linker_0, # of connection points: 2
#     Edge 42, Type (0, 0), BuildingBlock: AJUNOK_clean_linker_0, # of connection points: 2
#     Edge 43, Type (0, 0), BuildingBlock: AJUNOK_clean_linker_0, # of connection points: 2
#     Edge 44, Type (0, 0), BuildingBlock: AJUNOK_clean_linker_0, # of connection points: 2
#     Edge 45, Type (0, 0), BuildingBlock: AJUNOK_clean_linker_0, # of connection points: 2
#     Edge 46, Type (0, 0), BuildingBlock: AJUNOK_clean_linker_0, # of connection points: 2
#     Edge 47, Type (0, 0), BuildingBlock: AJUNOK_clean_linker_0, # of connection points: 2
# Relax obj value: 0.387
# Max RMSD: 0.287
# Mean RMSD: 0.287
data_MOF--net-wkl--node1-IZENUY_clean_sbu_0--edge1-AJUNOK_clean_linker_0
_symmetry_space_group_name_H-M    P1
_symmetry_Int_Tables_number       1
_symmetry_cell_setting            triclinic
loop_
_symmetry_equiv_pos_as_xyz
'x, y, z'
_cell_length_a     53.384332
_cell_length_b     53.363504
_cell_length_c     11.025913
_cell_angle_alpha  90.007406
_cell_angle_beta   90.088591
_cell_angle_gamma 120.00959
loop_
_atom_site_label
_atom_site_type_symbol
_atom_site_fract_x
_atom_site_fract_y
_atom_site_fract_z
_atom_type_partial_charge
Fe0 Fe 0.49299 0.11221 0.15971 0.0
Fe1 Fe 0.5071 0.16134 0.98212 0.0
O2 O 0.48177 0.13275 0.07392 0.0
Fe3 Fe 0.44529 0.12468 0.07833 0.0
O4 O 0.44738 0.13123 0.24104 0.0
O5 O 0.46773 0.10527 0.28539 0.0
O6 O 0.51949 0.14405 0.24169 0.0
C7 C 0.54079 0.16466 0.18895 0.0
C8 C 0.44094 0.06949 0.07302 0.0
O9 O 0.53857 0.17023 0.07915 0.0
C10 C 0.4575 0.13526 0.8363 0.0
O11 O 0.52011 0.11518 0.04897 0.0
O12 O 0.51355 0.13666 0.89224 0.0
O13 O 0.42978 0.08504 0.09842 0.0
O14 O 0.46778 0.07956 0.0821 0.0
C15 C 0.47808 0.18652 0.07766 0.0
O16 O 0.48064 0.15777 0.86674 0.0
O17 O 0.44139 0.11751 0.91571 0.0
C18 C 0.52297 0.12115 0.93681 0.0
O19 O 0.50195 0.18723 0.0674 0.0
O20 O 0.45442 0.16299 0.05915 0.0
C21 C 0.45497 0.11878 0.31801 0.0
Fe22 Fe 0.3281 0.44098 0.24462 0.0
Fe23 Fe 0.38781 0.48943 0.32587 0.0
O24 O 0.35591 0.47767 0.24036 0.0
Fe25 Fe 0.35191 0.50263 0.14866 0.0
O26 O 0.32053 0.49679 0.2341 0.0
O27 O 0.29854 0.44928 0.22409 0.0
O28 O 0.32347 0.443 0.40725 0.0
C29 C 0.34359 0.45097 0.48428 0.0
C30 C 0.32953 0.45317 1.00269 0.0
O31 O 0.36985 0.46402 0.4516 0.0
C32 C 0.40809 0.51897 0.10223 0.0
O33 O 0.35269 0.42618 0.26609 0.0
O34 O 0.39582 0.46458 0.24808 0.0
O35 O 0.32932 0.47588 0.03345 0.0
O36 O 0.3317 0.4373 0.08203 0.0
C37 C 0.38189 0.53649 0.35579 0.0
O38 O 0.41153 0.5168 0.21478 0.0
O39 O 0.38312 0.5096 0.05836 0.0
C40 C 0.37934 0.43763 0.24007 0.0
O41 O 0.38183 0.51545 0.40813 0.0
O42 O 0.37427 0.53429 0.24561 0.0
C43 C 0.29783 0.4724 0.24414 0.0
Fe44 Fe 0.9038 0.38378 0.4952 0.0
Fe45 Fe 0.85504 0.34905 0.31486 0.0
O46 O 0.8839 0.35248 0.40601 0.0
Fe47 Fe 0.89265 0.32455 0.40706 0.0
O48 O 0.88582 0.31896 0.56916 0.0
O49 O 0.91063 0.36501 0.61938 0.0
O50 O 0.87156 0.3774 0.57626 0.0
C51 C 0.85094 0.37813 0.52399 0.0
C52 C 0.94778 0.376 0.41401 0.0
O53 O 0.84572 0.37107 0.41335 0.0
C54 C 0.88153 0.32629 0.16625 0.0
O55 O 0.90077 0.40824 0.38599 0.0
O56 O 0.87945 0.38076 0.22707 0.0
O57 O 0.93207 0.3489 0.43013 0.0
O58 O 0.93699 0.39223 0.42013 0.0
C59 C 0.83103 0.29455 0.40758 0.0
O60 O 0.85904 0.32683 0.19754 0.0
O61 O 0.89992 0.3288 0.24456 0.0
C62 C 0.89499 0.40554 0.27349 0.0
O63 O 0.82936 0.31729 0.39844 0.0
O64 O 0.85474 0.29521 0.38528 0.0
C65 C 0.89735 0.33853 0.64868 0.0
Fe66 Fe 0.57506 0.88964 0.58052 0.0
Fe67 Fe 0.52663 0.90052 0.66432 0.0
O68 O 0.53834 0.88065 0.57711 0.0
Fe69 Fe 0.51322 0.85175 0.48519 0.0
O70 O 0.51928 0.82613 0.56941 0.0
O71 O 0.56679 0.85176 0.55972 0.0
O72 O 0.57346 0.88295 0.74309 0.0
C73 C 0.56556 0.89495 0.82085 0.0
C74 C 0.56263 0.87885 0.33878 0.0
O75 O 0.55217 0.90789 0.78938 0.0
C76 C 0.49642 0.89143 0.44174 0.0
O77 O 0.58981 0.9291 0.60212 0.0
O78 O 0.55123 0.93359 0.58796 0.0
O79 O 0.53977 0.85604 0.3691 0.0
O80 O 0.57848 0.89691 0.41816 0.0
C81 C 0.47967 0.84749 0.69322 0.0
O82 O 0.49915 0.89707 0.55425 0.0
O83 O 0.50591 0.87605 0.39629 0.0
C84 C 0.57824 0.9445 0.58133 0.0
O85 O 0.50085 0.86829 0.74577 0.0
O86 O 0.48169 0.84223 0.58278 0.0
C87 C 0.5437 0.82787 0.5797 0.0
Fe88 Fe 0.66841 0.50952 0.64672 0.0
Fe89 Fe 0.69317 0.57146 0.74115 0.0
O90 O 0.66511 0.53486 0.73849 0.0
Fe91 Fe 0.63365 0.52333 0.82621 0.0
O92 O 0.63991 0.49736 0.90724 0.0
O93 O 0.64591 0.47798 0.74348 0.0
O94 O 0.6996 0.51496 0.73179 0.0
C95 C 0.72265 0.53904 0.74057 0.0
C96 C 0.61242 0.4939 0.60232 0.0
O97 O 0.72252 0.56257 0.72174 0.0
C98 C 0.64165 0.57518 0.74391 0.0
O99 O 0.69117 0.53587 0.53128 0.0
O100 O 0.68939 0.57483 0.57836 0.0
O101 O 0.60938 0.49601 0.71536 0.0
O102 O 0.63723 0.50304 0.55733 0.0
C103 C 0.67856 0.56182 0.98206 0.0
O104 O 0.66874 0.58663 0.76208 0.0
O105 O 0.62544 0.54818 0.75081 0.0
C106 C 0.69179 0.55893 0.49998 0.0
O107 O 0.69828 0.56995 0.90349 0.0
O108 O 0.65216 0.54874 0.95148 0.0
C109 C 0.63911 0.47604 0.85441 0.0
Fe110 Fe 0.12834 0.69149 0.90017 0.0
Fe111 Fe 0.11492 0.63095 0.97889 0.0
O112 O 0.13639 0.6631 0.89749 0.0
Fe113 Fe 0.16603 0.66699 0.81171 0.0
O114 O 0.19086 0.69736 0.9034 0.0
O115 O 0.16674 0.72062 0.88504 0.0
O116 O 0.13411 0.69558 0.06311 0.0
C117 C 0.12209 0.67538 0.13963 0.0
C118 C 0.14085 0.69045 0.66041 0.0
O119 O 0.10763 0.64917 0.10535 0.0
C120 C 0.12668 0.61167 0.75597 0.0
O121 O 0.08859 0.66755 0.91724 0.0
O122 O 0.08296 0.62412 0.89722 0.0
O123 O 0.16349 0.69063 0.69626 0.0
O124 O 0.12219 0.68827 0.73648 0.0
C125 C 0.1667 0.63465 1.01738 0.0
O126 O 0.1187 0.60731 0.86619 0.0
O127 O 0.14243 0.63694 0.71644 0.0
C128 C 0.07296 0.64096 0.89 0.0
O129 O 0.1458 0.63562 0.06526 0.0
O130 O 0.17386 0.64332 0.90916 0.0
C131 C 0.18976 0.72035 0.91351 0.0
Fe132 Fe 0.89241 0.57239 0.83773 0.0
Fe133 Fe 0.90472 0.52457 0.75496 0.0
O134 O 0.88447 0.53595 0.84169 0.0
Fe135 Fe 0.85586 0.51064 0.93389 0.0
O136 O 0.82995 0.51547 0.84658 0.0
O137 O 0.85411 0.56301 0.85763 0.0
O138 O 0.8856 0.5704 0.67545 0.0
C139 C 0.8971 0.56213 0.59688 0.0
C140 C 0.88153 0.56032 0.07889 0.0
O141 O 0.91044 0.54901 0.62716 0.0
C142 C 0.8968 0.49589 0.98144 0.0
O143 O 0.9319 0.58822 0.81499 0.0
O144 O 0.9381 0.55053 0.82653 0.0
O145 O 0.85908 0.53728 0.04733 0.0
O146 O 0.89982 0.57617 1.00048 0.0
C147 C 0.85234 0.47623 0.73031 0.0
O148 O 0.90259 0.49824 0.86887 0.0
O149 O 0.88073 0.50476 0.02486 0.0
C150 C 0.94825 0.57749 0.82833 0.0
O151 O 0.87258 0.49751 0.67634 0.0
O152 O 0.84711 0.47873 0.84004 0.0
C153 C 0.83089 0.53945 0.83414 0.0
Fe154 Fe 0.32766 0.88967 1.00375 0.0
Fe155 Fe 0.38745 0.90119 0.92071 0.0
O156 O 0.35582 0.88125 1.00778 0.0
Fe157 Fe 0.35229 0.85262 0.10061 0.0
O158 O 0.32116 0.82671 1.01511 0.0
O159 O 0.29838 0.85153 1.02421 0.0
O160 O 0.32268 0.88282 0.84156 0.0
C161 C 0.34244 0.89422 0.76298 0.0
C162 C 0.32886 0.8789 0.24525 0.0
O163 O 0.36889 0.9073 0.79328 0.0
C164 C 0.40823 0.89317 0.14671 0.0
O165 O 0.35176 0.92913 0.981 0.0
O166 O 0.39538 0.93467 0.99256 0.0
O167 O 0.32935 0.85635 0.21462 0.0
O168 O 0.33142 0.89716 0.16637 0.0
C169 C 0.38267 0.84854 0.89635 0.0
O170 O 0.41161 0.89873 0.034 0.0
O171 O 0.38331 0.87738 0.19051 0.0
C172 C 0.37889 0.94516 0.99509 0.0
O173 O 0.38181 0.86888 0.84217 0.0
O174 O 0.37498 0.84339 1.00617 0.0
C175 C 0.29816 0.82784 1.0059 0.0
Fe176 Fe 0.44523 0.32394 0.16538 0.0
Fe177 Fe 0.49327 0.38395 0.08366 0.0
O178 O 0.48172 0.35234 0.17065 0.0
Fe179 Fe 0.50689 0.34908 0.26416 0.0
O180 O 0.50192 0.31809 0.17894 0.0
O181 O 0.45437 0.29479 0.18588 0.0
O182 O 0.44732 0.31921 1.00289 0.0
C183 C 0.45513 0.33913 0.92523 0.0
C184 C 0.45707 0.32552 0.40762 0.0
O185 O 0.46852 0.3655 0.95647 0.0
C186 C 0.52257 0.40511 0.30879 0.0
O187 O 0.42977 0.34801 0.14295 0.0
O188 O 0.46779 0.3917 0.15617 0.0
O189 O 0.48019 0.32607 0.37803 0.0
O190 O 0.4412 0.32744 0.32766 0.0
C191 C 0.54114 0.37931 0.05931 0.0
O192 O 0.51994 0.40817 0.19624 0.0
O193 O 0.51311 0.38019 0.35363 0.0
C194 C 0.44083 0.37513 0.15832 0.0
O195 O 0.51988 0.37834 1.00501 0.0
O196 O 0.53872 0.37179 0.16941 0.0
C197 C 0.47802 0.29499 0.16657 0.0
Fe198 Fe 0.12804 0.44151 0.33871 0.0
Fe199 Fe 0.11655 0.48993 0.25994 0.0
O200 O 0.13714 0.47826 0.3421 0.0
Fe201 Fe 0.167 0.50333 0.4297 0.0
O202 O 0.19147 0.49715 0.33808 0.0
O203 O 0.16605 0.44979 0.35536 0.0
O204 O 0.13395 0.44312 0.176 0.0
C205 C 0.12258 0.45193 0.09888 0.0
C206 C 0.1406 0.45449 0.57888 0.0
O207 O 0.10908 0.46475 0.13203 0.0
C208 C 0.12779 0.51959 0.48646 0.0
O209 O 0.08849 0.42659 0.31983 0.0
O210 O 0.08407 0.46504 0.33849 0.0
O211 O 0.16365 0.47661 0.54396 0.0
O212 O 0.12168 0.43858 0.50217 0.0
C213 C 0.16887 0.5374 0.22587 0.0
O214 O 0.12058 0.51696 0.37517 0.0
O215 O 0.14394 0.51046 0.52546 0.0
C216 C 0.07314 0.43804 0.34285 0.0
O217 O 0.14792 0.5161 0.17538 0.0
O218 O 0.17543 0.53515 0.33425 0.0
C219 C 0.18965 0.47268 0.32929 0.0
Fe220 Fe 0.69289 0.12466 0.50554 0.0
Fe221 Fe 0.63367 0.11407 0.42001 0.0
O222 O 0.66525 0.13374 0.50781 0.0
Fe223 Fe 0.6692 0.16275 0.59929 0.0
O224 O 0.70055 0.18818 0.51356 0.0
O225 O 0.7225 0.16262 0.52553 0.0
O226 O 0.69807 0.13125 0.34326 0.0
C227 C 0.67832 0.11997 0.26433 0.0
C228 C 0.69183 0.13605 0.74646 0.0
O229 O 0.6519 0.107 0.29444 0.0
C230 C 0.61303 0.12277 0.64424 0.0
O231 O 0.66816 0.08521 0.48386 0.0
O232 O 0.62506 0.08077 0.49463 0.0
O233 O 0.69186 0.15881 0.71467 0.0
O234 O 0.68896 0.11752 0.66828 0.0
C235 C 0.63964 0.16706 0.39238 0.0
O236 O 0.60976 0.11742 0.53131 0.0
O237 O 0.63794 0.13842 0.68899 0.0
C238 C 0.64106 0.06975 0.50094 0.0
O239 O 0.64023 0.14645 0.33945 0.0
O240 O 0.64683 0.1721 0.50296 0.0
C241 C 0.72318 0.18639 0.50312 0.0
Fe242 Fe 0.57515 0.68929 0.67196 0.0
Fe243 Fe 0.52682 0.62989 0.58605 0.0
O244 O 0.53842 0.66146 0.67361 0.0
Fe245 Fe 0.51319 0.66525 0.7643 0.0
O246 O 0.51924 0.69679 0.67912 0.0
O247 O 0.5667 0.7188 0.69219 0.0
O248 O 0.57379 0.69455 0.50969 0.0
C249 C 0.56548 0.67483 0.43075 0.0
C250 C 0.56249 0.68793 0.91269 0.0
O251 O 0.55217 0.64838 0.46082 0.0
C252 C 0.49658 0.60885 0.80874 0.0
O253 O 0.59015 0.6648 0.65028 0.0
O254 O 0.55168 0.62162 0.66162 0.0
O255 O 0.53962 0.68771 0.88081 0.0
O256 O 0.57828 0.68527 0.83467 0.0
C257 C 0.47934 0.63504 0.55737 0.0
O258 O 0.49959 0.60576 0.69661 0.0
O259 O 0.50592 0.63378 0.85363 0.0
C260 C 0.57869 0.63775 0.66805 0.0
O261 O 0.50071 0.63591 0.50481 0.0
O262 O 0.48163 0.64302 0.66685 0.0
C263 C 0.54365 0.71949 0.66961 0.0
C264 C 0.45653 0.15159 0.62463 0.0
C265 C 0.4511 0.12905 0.70562 0.0
C266 C 0.45566 0.14744 0.49851 0.0
C267 C 0.45027 0.12089 0.44915 0.0
H268 H 0.46242 0.17286 0.6591 0.0
H269 H 0.46098 0.16568 0.43957 0.0
S270 S 0.43349 0.05468 0.62225 0.0
N271 N 0.43854 0.0788 0.72752 0.0
N272 N 0.43797 0.07129 0.49089 0.0
C273 C 0.44384 0.0979 0.52914 0.0
C274 C 0.44396 0.10191 0.65732 0.0
C275 C 0.3123 0.45224 0.79082 0.0
C276 C 0.32953 0.44696 0.87189 0.0
C277 C 0.31558 0.45144 0.66473 0.0
C278 C 0.33688 0.44628 0.61543 0.0
H279 H 0.29677 0.4579 0.82522 0.0
H280 H 0.30255 0.45662 0.60574 0.0
S281 S 0.38675 0.43008 0.78855 0.0
N282 N 0.36754 0.43486 0.89382 0.0
N283 N 0.37451 0.43447 0.65721 0.0
C284 C 0.35361 0.44007 0.69545 0.0
C285 C 0.34971 0.4401 0.82362 0.0
C286 C 0.91745 0.34779 0.85932 0.0
C287 C 0.89453 0.33103 0.77902 0.0
C288 C 0.91373 0.34438 0.98547 0.0
C289 C 0.88672 0.32471 0.03556 0.0
H290 H 0.93815 0.36434 0.82442 0.0
H291 H 0.93157 0.3586 0.04405 0.0
S292 S 0.82032 0.27452 0.86487 0.0
N293 N 0.84449 0.29266 0.75866 0.0
N294 N 0.83717 0.28706 0.99567 0.0
C295 C 0.86398 0.30701 0.95634 0.0
C296 C 0.86798 0.30994 0.828 0.0
C297 C 0.5636 0.86222 0.12762 0.0
C298 C 0.56916 0.8849 0.20822 0.0
C299 C 0.56471 0.8663 1.00144 0.0
C300 C 0.57051 0.89294 0.95171 0.0
H301 H 0.5574 0.84091 0.16239 0.0
H302 H 0.55917 0.84796 0.94269 0.0
S303 S 0.58787 0.9595 0.12359 0.0
N304 N 0.58236 0.93536 0.22933 0.0
N305 N 0.58338 0.94274 0.99252 0.0
C306 C 0.57714 0.91606 0.03131 0.0
C307 C 0.57677 0.91212 0.15954 0.0
C308 C 0.66891 0.57203 0.19316 0.0
C309 C 0.68592 0.56632 0.11272 0.0
C310 C 0.67264 0.57202 0.31928 0.0
C311 C 0.69293 0.56546 0.36922 0.0
H312 H 0.65197 0.57563 0.15844 0.0
H313 H 0.65826 0.57528 0.37803 0.0
S314 S 0.7436 0.55019 0.19827 0.0
N315 N 0.72491 0.55557 0.09219 0.0
N316 N 0.7311 0.55441 0.32911 0.0
C317 C 0.71072 0.5607 0.28988 0.0
C318 C 0.70745 0.56145 0.16159 0.0
C319 C 0.10807 0.67039 0.48016 0.0
C320 C 0.13543 0.69021 0.52811 0.0
C321 C 0.1036 0.66612 0.35418 0.0
C322 C 0.12609 0.68218 0.27144 0.0
H323 H 0.09036 0.65696 0.54054 0.0
H324 H 0.08252 0.6498 0.32139 0.0
S325 S 0.20139 0.73782 0.35043 0.0
N326 N 0.18512 0.72648 0.48285 0.0
N327 N 0.17648 0.7194 0.24678 0.0
C328 C 0.1532 0.70296 0.31827 0.0
C329 C 0.15794 0.70672 0.44635 0.0
C330 C 0.91361 0.57299 0.26004 0.0
C331 C 0.88689 0.56676 0.2098 0.0
C332 C 0.91717 0.57261 0.38616 0.0
C333 C 0.89438 0.56681 0.46632 0.0
H334 H 0.93128 0.57626 0.20143 0.0
H335 H 0.93763 0.576 0.42104 0.0
S336 S 0.82084 0.5514 0.38007 0.0
N337 N 0.83771 0.55592 0.24944 0.0
N338 N 0.84473 0.55633 0.48637 0.0
C339 C 0.86812 0.56228 0.41726 0.0
C340 C 0.86428 0.56193 0.28895 0.0
C341 C 0.35248 0.91439 0.55239 0.0
C342 C 0.33505 0.89173 0.63241 0.0
C343 C 0.34862 0.91091 0.42624 0.0
C344 C 0.32773 0.88438 0.37585 0.0
H345 H 0.36986 0.93465 0.58742 0.0
H346 H 0.36337 0.92843 0.36777 0.0
S347 S 0.27566 0.81883 0.54549 0.0
N348 N 0.29493 0.84249 0.65204 0.0
N349 N 0.28848 0.8356 0.41499 0.0
C350 C 0.30947 0.86195 0.45477 0.0
C351 C 0.3129 0.86573 0.58312 0.0
C352 C 0.45532 0.31102 0.74457 0.0
C353 C 0.4499 0.33209 0.79453 0.0
C354 C 0.45603 0.30784 0.61839 0.0
C355 C 0.45043 0.32496 0.53804 0.0
H356 H 0.46088 0.29821 0.80306 0.0
H357 H 0.46204 0.29261 0.58335 0.0
S358 S 0.43237 0.38126 0.62349 0.0
N359 N 0.43716 0.36914 0.75435 0.0
N360 N 0.43745 0.36238 0.51748 0.0
C361 C 0.44311 0.34475 0.58701 0.0
C362 C 0.44314 0.34854 0.71527 0.0
C363 C 0.10385 0.44298 0.88464 0.0
C364 C 0.12616 0.44854 0.96737 0.0
C365 C 0.10809 0.44289 0.75872 0.0
C366 C 0.13509 0.44925 0.7109 0.0
H367 H 0.08313 0.43922 0.91739 0.0
H368 H 0.0906 0.43939 0.6983 0.0
S369 S 0.20033 0.46467 0.88857 0.0
N370 N 0.17586 0.45938 0.99222 0.0
N371 N 0.18415 0.46042 0.75613 0.0
C372 C 0.15736 0.45424 0.79264 0.0
C373 C 0.15281 0.45355 0.92068 0.0
C374 C 0.67214 0.10389 0.92691 0.0
C375 C 0.69278 0.13061 0.87736 0.0
C376 C 0.66836 0.10016 0.05296 0.0
C377 C 0.68566 0.12275 0.13377 0.0
H378 H 0.65755 0.08636 0.86789 0.0
H379 H 0.65117 0.07974 0.08733 0.0
S380 S 0.74434 0.19614 0.0494 0.0
N381 N 0.73162 0.17955 0.91828 0.0
N382 N 0.72532 0.17218 0.15509 0.0
C383 C 0.70753 0.14899 0.08532 0.0
C384 C 0.71086 0.15302 0.95707 0.0
C385 C 0.5755 0.66499 0.21961 0.0
C386 C 0.57009 0.68221 0.30017 0.0
C387 C 0.57538 0.66864 0.09349 0.0
C388 C 0.56901 0.68906 0.0436 0.0
H389 H 0.57894 0.64794 0.25425 0.0
H390 H 0.57843 0.6541 0.0347 0.0
S391 S 0.55494 0.74057 0.2149 0.0
N392 N 0.56011 0.72173 0.32089 0.0
N393 N 0.55872 0.72777 0.08395 0.0
C394 C 0.56466 0.70714 0.12305 0.0
C395 C 0.56554 0.70395 0.25138 0.0
C396 C 0.39518 0.02075 0.08968 0.0
C397 C 0.42291 0.03844 0.04007 0.0
C398 C 0.38016 0.9905 0.07092 0.0
C399 C 0.39248 0.97713 1.00225 0.0
H400 H 0.38563 0.0301 0.14766 0.0
H401 H 0.35945 0.97743 0.11479 0.0
S402 S 0.46213 0.01449 0.83549 0.0
N403 N 0.46024 0.04067 0.9068 0.0
N404 N 0.43229 0.9844 0.87211 0.0
C405 C 0.4193 0.99491 0.94603 0.0
C406 C 0.43442 0.0254 0.96475 0.0
C407 C 0.39729 0.37674 0.2373 0.0
C408 C 0.42255 0.38876 0.16619 0.0
C409 C 0.38241 0.392 0.25753 0.0
C410 C 0.39242 0.41971 0.20736 0.0
H411 H 0.38978 0.35612 0.28187 0.0
H412 H 0.36377 0.38264 0.31692 0.0
S413 S 0.4546 0.45826 0.99783 0.0
N414 N 0.45468 0.42828 0.03366 0.0
N415 N 0.42706 0.45677 0.0719 0.0
C416 C 0.41658 0.43098 0.13021 0.0
C417 C 0.43156 0.41556 0.10958 0.0
C418 C 0.02637 0.43504 0.39546 0.0
C419 C 0.04138 0.42044 0.36549 0.0
C420 C 0.99647 0.42031 0.41139 0.0
C421 C 0.97975 0.39004 0.39915 0.0
H422 H 0.03771 0.45835 0.40597 0.0
H423 H 0.98644 0.43306 0.43347 0.0
S424 S 1.0082 0.34097 0.32649 0.0
N425 N 0.03722 0.37358 0.32747 0.0
N426 N 0.98058 0.34565 0.35851 0.0
C427 C 0.99436 0.37484 0.37204 0.0
C428 C 0.02518 0.39005 0.35507 0.0
C429 C 0.58135 0.99166 0.53456 0.0
C430 C 0.59589 0.97626 0.55801 0.0
C431 C 0.5963 0.0215 0.51597 0.0
C432 C 0.62672 0.03779 0.51901 0.0
H433 H 0.55794 0.98068 0.53101 0.0
H434 H 0.58356 0.03182 0.49909 0.0
S435 S 0.67563 0.00817 0.57295 0.0
N436 N 0.64282 0.97958 0.58061 0.0
N437 N 0.67112 0.03608 0.54491 0.0
C438 C 0.6418 0.02278 0.54027 0.0
C439 C 0.62639 0.99202 0.55982 0.0
C440 C 0.5971 0.57827 0.71023 0.0
C441 C 0.62741 0.59285 0.72349 0.0
C442 C 0.5821 0.59313 0.69292 0.0
C443 C 0.59644 0.62355 0.68707 0.0
H444 H 0.58444 0.55486 0.71353 0.0
H445 H 0.5588 0.58031 0.68383 0.0
S446 S 0.6758 0.67258 0.71504 0.0
N447 N 0.67148 0.63981 0.72886 0.0
N448 N 0.64307 0.668 0.69544 0.0
C449 C 0.62683 0.63868 0.6994 0.0
C450 C 0.64231 0.62333 0.71769 0.0
C451 C 0.02418 0.63747 0.91521 0.0
C452 C 0.04176 0.62796 0.85994 0.0
C453 C 0.99381 0.62185 0.90094 0.0
C454 C 0.9802 0.59625 0.83152 0.0
H455 H 0.03377 0.6562 0.97432 0.0
H456 H 0.98087 0.62907 0.94892 0.0
S457 S 0.01697 0.56533 0.65103 0.0
N458 N 0.04349 0.59356 0.72041 0.0
N459 N 0.98696 0.56438 0.69477 0.0
C460 C 0.99778 0.58775 0.76977 0.0
C461 C 0.02841 0.60357 0.78362 0.0
C462 C 0.54241 0.11744 0.7361 0.0
C463 C 0.54298 0.11573 0.8633 0.0
C464 C 0.56416 0.11756 0.66491 0.0
C465 C 0.58764 0.11669 0.71856 0.0
H466 H 0.5256 0.11977 0.6913 0.0
H467 H 0.56338 0.12004 0.56772 0.0
S468 S 0.59688 0.10707 0.04542 0.0
N469 N 0.56697 0.10898 0.03855 0.0
N470 N 0.60833 0.11026 0.90418 0.0
C471 C 0.58744 0.11288 0.84459 0.0
C472 C 0.56495 0.11209 0.91713 0.0
C473 C 0.45608 0.5637 0.08122 0.0
C474 C 0.43327 0.53874 0.02795 0.0
C475 C 0.47733 0.58573 1.00976 0.0
C476 C 0.47698 0.58326 0.88264 0.0
H477 H 0.45665 0.56707 0.17828 0.0
H478 H 0.49357 0.60527 0.05433 0.0
S479 S 0.42498 0.51923 0.70195 0.0
N480 N 0.41353 0.51092 0.84316 0.0
N481 N 0.45406 0.55174 0.70816 0.0
C482 C 0.45577 0.5571 0.82934 0.0
C483 C 0.43374 0.53499 0.90219 0.0
C484 C 0.90196 0.45216 1.00248 0.0
C485 C 0.90251 0.47633 0.05632 0.0
C486 C 0.90098 0.42993 0.0736 0.0
C487 C 0.90124 0.43142 0.20101 0.0
H488 H 0.90031 0.44939 0.90489 0.0
H489 H 0.89888 0.41094 0.02837 0.0
S490 S 0.90866 0.49323 0.38481 0.0
N491 N 0.90715 0.50241 0.24317 0.0
N492 N 0.9065 0.46129 0.37743 0.0
C493 C 0.90464 0.45686 0.25554 0.0
C494 C 0.90495 0.47915 0.183 0.0
C495 C 0.47821 0.89722 0.24078 0.0
C496 C 0.47689 0.89761 0.36815 0.0
C497 C 0.45705 0.89819 0.16887 0.0
C498 C 0.43346 0.8989 0.22193 0.0
H499 H 0.49509 0.89502 0.19625 0.0
H500 H 0.4582 0.89642 0.07139 0.0
S501 S 0.42256 0.90548 0.54979 0.0
N502 N 0.45225 0.90318 0.54351 0.0
N503 N 0.41199 0.90387 0.40782 0.0
C504 C 0.43303 0.90151 0.34848 0.0
C505 C 0.45489 0.90117 0.42177 0.0
C506 C 0.56375 0.44993 0.58149 0.0
C507 C 0.58694 0.47452 0.52819 0.0
C508 C 0.54206 0.42821 0.51 0.0
C509 C 0.54244 0.43061 0.38282 0.0
H510 H 0.5632 0.44654 0.67854 0.0
H511 H 0.5255 0.40891 0.55451 0.0
S512 S 0.59567 0.49368 0.2018 0.0
N513 N 0.6072 0.50193 0.34312 0.0
N514 N 0.566 0.46165 0.20817 0.0
C515 C 0.56414 0.45641 0.32946 0.0
C516 C 0.58654 0.47823 0.40231 0.0
C517 C 0.10082 0.53889 0.60372 0.0
C518 C 0.12691 0.54222 0.55844 0.0
C519 C 0.10058 0.56137 0.66969 0.0
C520 C 0.12617 0.58807 0.68549 0.0
H521 H 0.08072 0.51882 0.58941 0.0
H522 H 0.08034 0.5581 0.70625 0.0
S523 S 0.1996 0.6076 0.57784 0.0
N524 N 0.17889 0.5734 0.53857 0.0
N525 N 0.17785 0.61682 0.64565 0.0
C526 C 0.15213 0.59166 0.63744 0.0
C527 C 0.15265 0.56835 0.57846 0.0
C528 C 0.4523 0.21454 0.11958 0.0
C529 C 0.47825 0.21427 0.09956 0.0
C530 C 0.45226 0.24059 0.14024 0.0
C531 C 0.47817 0.26751 0.14153 0.0
H532 H 0.4318 0.19445 0.12 0.0
H533 H 0.43174 0.23954 0.15597 0.0
S534 S 0.55208 0.279 0.0897 0.0
N535 N 0.53063 0.24368 0.08004 0.0
N536 N 0.53053 0.29213 0.11747 0.0
C537 C 0.50424 0.26753 0.12019 0.0
C538 C 0.50429 0.24111 0.09975 0.0
C539 C 0.2432 0.49742 0.29488 0.0
C540 C 0.21653 0.47148 0.30505 0.0
C541 C 0.26911 0.49735 0.27608 0.0
C542 C 0.2697 0.47134 0.26575 0.0
H543 H 0.24427 0.51817 0.3024 0.0
H544 H 0.28887 0.51805 0.26951 0.0
S545 S 0.20579 0.39726 0.28284 0.0
N546 N 0.19228 0.41888 0.30133 0.0
N547 N 0.24098 0.41873 0.26587 0.0
C548 C 0.24317 0.44515 0.27476 0.0
C549 C 0.21666 0.44523 0.29424 0.0
C550 C 0.75173 0.23989 0.46576 0.0
C551 C 0.75117 0.21333 0.47781 0.0
C552 C 0.77753 0.26578 0.4438 0.0
C553 C 0.80413 0.26647 0.4321 0.0
H554 H 0.73202 0.24087 0.47375 0.0
H555 H 0.77645 0.28545 0.43569 0.0
S556 S 0.81484 0.20296 0.45508 0.0
N557 N 0.77978 0.18935 0.47564 0.0
N558 N 0.82829 0.23802 0.43442 0.0
C559 C 0.804 0.24008 0.44362 0.0
C560 C 0.7776 0.21358 0.46627 0.0
C561 C 0.51888 0.77439 0.61839 0.0
C562 C 0.54482 0.80085 0.60291 0.0
C563 C 0.51885 0.74845 0.63887 0.0
C564 C 0.54477 0.74759 0.64555 0.0
H565 H 0.49819 0.77354 0.61461 0.0
H566 H 0.49814 0.72889 0.65018 0.0
S567 S 0.61883 0.81066 0.60982 0.0
N568 N 0.59736 0.82445 0.59485 0.0
N569 N 0.59728 0.77571 0.63335 0.0
C570 C 0.57096 0.77385 0.62995 0.0
C571 C 0.57099 0.80039 0.60881 0.0
C572 C 0.80147 0.56458 0.82218 0.0
C573 C 0.8036 0.53952 0.80515 0.0
C574 C 0.7754 0.56445 0.80012 0.0
C575 C 0.7504 0.53924 0.76038 0.0
H576 H 0.81993 0.58438 0.85463 0.0
H577 H 0.77473 0.58412 0.8163 0.0
S578 S 0.74518 0.46854 0.69112 0.0
N579 N 0.77874 0.4893 0.73821 0.0
N580 N 0.73012 0.48898 0.6978 0.0
C581 C 0.7525 0.51425 0.74016 0.0
C582 C 0.77895 0.51442 0.76213 0.0
C583 C 0.21979 0.7749 0.91783 0.0
C584 C 0.21687 0.7477 0.94395 0.0
C585 C 0.24598 0.80076 0.93929 0.0
C586 C 0.27028 0.80042 0.98733 0.0
H587 H 0.20194 0.77626 0.87817 0.0
H588 H 0.24736 0.82112 0.91572 0.0
S589 S 0.273 0.7351 0.08407 0.0
N590 N 0.24001 0.72233 0.02986 0.0
N591 N 0.28892 0.77055 0.06887 0.0
C592 C 0.26732 0.77341 1.01726 0.0
C593 C 0.24073 0.7472 0.99608 0.0
C594 C 0.5732 0.17389 0.36718 0.0
C595 C 0.56997 0.17483 0.24097 0.0
C596 C 0.59795 0.17511 0.4171 0.0
C597 C 0.61989 0.17634 0.34229 0.0
H598 H 0.55566 0.17025 0.42734 0.0
H599 H 0.59855 0.17232 0.51415 0.0
S600 S 0.62487 0.18538 1.00872 0.0
N601 N 0.59344 0.18245 0.04385 0.0
N602 N 0.63913 0.18308 0.13836 0.0
C603 C 0.61831 0.18015 0.21732 0.0
C604 C 0.59353 0.17983 0.16646 0.0
C605 C 0.42246 0.58695 0.33092 0.0
C606 C 0.40114 0.56567 0.40622 0.0
C607 C 0.4468 0.61108 0.38023 0.0
C608 C 0.45019 0.61532 0.50638 0.0
H609 H 0.42174 0.58365 0.23377 0.0
H610 H 0.46397 0.62544 0.31956 0.0
S611 S 0.39658 0.56952 0.74013 0.0
N612 N 0.38251 0.55263 0.61082 0.0
N613 N 0.42734 0.59878 0.70419 0.0
C614 C 0.42712 0.59609 0.58154 0.0
C615 C 0.40282 0.57103 0.53128 0.0
C616 C 0.8417 0.41921 0.50159 0.0
C617 C 0.84145 0.39759 0.57575 0.0
C618 C 0.84242 0.44365 0.55228 0.0
C619 C 0.84218 0.44701 0.67868 0.0
H620 H 0.84417 0.41869 0.40425 0.0
H621 H 0.8452 0.46096 0.49241 0.0
S622 S 0.83389 0.39267 0.90985 0.0
N623 N 0.83605 0.37858 0.77964 0.0
N624 N 0.8359 0.42376 0.87559 0.0
C625 C 0.83806 0.42368 0.7528 0.0
C626 C 0.83814 0.39916 0.70112 0.0
C627 C 0.40556 0.83879 0.71897 0.0
C628 C 0.40173 0.83834 0.84526 0.0
C629 C 0.42939 0.83818 0.66905 0.0
C630 C 0.45062 0.83783 0.74391 0.0
H631 H 0.39117 0.84169 0.65864 0.0
H632 H 0.43256 0.84082 0.57184 0.0
S633 S 0.44741 0.82981 0.07787 0.0
N634 N 0.41837 0.83181 0.04267 0.0
N635 N 0.46389 0.83218 0.94819 0.0
C636 C 0.44551 0.83433 0.86909 0.0
C637 C 0.42082 0.83414 0.91997 0.0
C638 C 0.59801 0.42585 0.8313 0.0
C639 C 0.6197 0.44708 0.90577 0.0
C640 C 0.57354 0.40215 0.88161 0.0
C641 C 0.57031 0.39839 1.00795 0.0
H642 H 0.59853 0.42891 0.73403 0.0
H643 H 0.55614 0.38782 0.82149 0.0
S644 S 0.6247 0.44421 0.23998 0.0
N645 N 0.63881 0.4605 0.10991 0.0
N646 N 0.59356 0.41522 0.20522 0.0
C647 C 0.59366 0.41751 0.08242 0.0
C648 C 0.61818 0.4421 0.0311 0.0
C649 C 0.16849 0.58346 0.24746 0.0
C650 C 0.17649 0.56637 0.17926 0.0
C651 C 0.16862 0.60762 0.19776 0.0
C652 C 0.17599 0.61537 0.07563 0.0
H653 H 0.15932 0.57663 0.33619 0.0
H654 H 0.16056 0.61884 0.25308 0.0
S655 S 0.2018 0.57931 0.86177 0.0
N656 N 0.19446 0.56005 0.98723 0.0
N657 N 0.19477 0.60555 0.89123 0.0
C658 C 0.18613 0.59967 1.00847 0.0
C659 C 0.18603 0.57496 0.06029 0.0
loop_
_geom_bond_atom_site_label_1
_geom_bond_atom_site_label_2
_geom_bond_distance
_geom_bond_site_symmetry_2
_ccdc_geom_bond_type
Fe0 O2 1.918 . S
Fe0 O5 1.997 . S
Fe0 O6 2.002 . S
Fe0 O11 1.976 1_554 S
Fe0 O14 1.996 . S
Fe1 O2 1.918 1_556 S
Fe1 O9 1.997 1_556 S
Fe1 O12 1.996 . S
Fe1 O16 1.976 . S
Fe1 O19 2.002 . S
O2 Fe0 1.918 . S
O2 Fe1 1.918 1_554 S
O2 Fe3 1.918 . S
Fe3 O2 1.918 . S
Fe3 O4 2.002 . S
Fe3 O13 1.976 1_554 S
Fe3 O17 1.996 1_554 S
Fe3 O20 1.997 . S
O4 Fe3 2.002 . S
O4 C21 1.295 . S
O5 Fe0 1.997 . S
O5 C21 1.235 . S
O6 Fe0 2.002 . S
O6 C7 1.295 . S
C7 O6 1.295 . S
C7 O9 1.235 . S
C8 O13 1.287 1_554 S
C8 O14 1.255 . S
O9 Fe1 1.997 1_554 S
O9 C7 1.235 . S
C10 O16 1.287 . S
C10 O17 1.255 . S
O11 Fe0 1.976 1_556 S
O11 C18 1.287 . S
O12 Fe1 1.996 . S
O12 C18 1.255 . S
O13 Fe3 1.976 1_556 S
O13 C8 1.287 1_556 S
O14 Fe0 1.996 . S
O14 C8 1.255 . S
C15 O19 1.295 1_554 S
C15 O20 1.235 . S
O16 Fe1 1.976 . S
O16 C10 1.287 . S
O17 Fe3 1.996 1_556 S
O17 C10 1.255 . S
C18 O11 1.287 . S
C18 O12 1.255 . S
O19 Fe1 2.002 . S
O19 C15 1.295 1_556 S
O20 Fe3 1.997 . S
O20 C15 1.235 . S
C21 O4 1.295 . S
C21 O5 1.235 . S
Fe22 O24 1.918 . S
Fe22 O27 1.997 . S
Fe22 O28 2.002 . S
Fe22 O33 1.976 . S
Fe22 O36 1.996 . S
Fe23 O24 1.918 . S
Fe23 O31 1.997 . S
Fe23 O34 1.996 . S
Fe23 O38 1.976 . S
Fe23 O41 2.002 . S
O24 Fe22 1.918 . S
O24 Fe23 1.918 . S
O24 Fe25 1.918 . S
Fe25 O24 1.918 . S
Fe25 O26 2.002 . S
Fe25 O35 1.976 1_554 S
Fe25 O39 1.996 . S
Fe25 O42 1.997 . S
O26 Fe25 2.002 . S
O26 C43 1.295 . S
O27 Fe22 1.997 . S
O27 C43 1.235 . S
O28 Fe22 2.002 . S
O28 C29 1.295 . S
C29 O28 1.295 . S
C29 O31 1.235 . S
C30 O35 1.287 . S
C30 O36 1.255 1_556 S
O31 Fe23 1.997 . S
O31 C29 1.235 . S
C32 O38 1.287 . S
C32 O39 1.255 . S
O33 Fe22 1.976 . S
O33 C40 1.287 . S
O34 Fe23 1.996 . S
O34 C40 1.255 . S
O35 Fe25 1.976 1_556 S
O35 C30 1.287 . S
O36 Fe22 1.996 . S
O36 C30 1.255 1_554 S
C37 O41 1.295 . S
C37 O42 1.235 . S
O38 Fe23 1.976 . S
O38 C32 1.287 . S
O39 Fe25 1.996 . S
O39 C32 1.255 . S
C40 O33 1.287 . S
C40 O34 1.255 . S
O41 Fe23 2.002 . S
O41 C37 1.295 . S
O42 Fe25 1.997 . S
O42 C37 1.235 . S
C43 O26 1.295 . S
C43 O27 1.235 . S
Fe44 O46 1.918 . S
Fe44 O49 1.997 . S
Fe44 O50 2.002 . S
Fe44 O55 1.976 . S
Fe44 O58 1.996 . S
Fe45 O46 1.918 . S
Fe45 O53 1.997 . S
Fe45 O56 1.996 . S
Fe45 O60 1.976 . S
Fe45 O63 2.002 . S
O46 Fe44 1.918 . S
O46 Fe45 1.918 . S
O46 Fe47 1.918 . S
Fe47 O46 1.918 . S
Fe47 O48 2.002 . S
Fe47 O57 1.976 . S
Fe47 O61 1.996 . S
Fe47 O64 1.997 . S
O48 Fe47 2.002 . S
O48 C65 1.295 . S
O49 Fe44 1.997 . S
O49 C65 1.235 . S
O50 Fe44 2.002 . S
O50 C51 1.295 . S
C51 O50 1.295 . S
C51 O53 1.235 . S
C52 O57 1.287 . S
C52 O58 1.255 . S
O53 Fe45 1.997 . S
O53 C51 1.235 . S
C54 O60 1.287 . S
C54 O61 1.255 . S
O55 Fe44 1.976 . S
O55 C62 1.287 . S
O56 Fe45 1.996 . S
O56 C62 1.255 . S
O57 Fe47 1.976 . S
O57 C52 1.287 . S
O58 Fe44 1.996 . S
O58 C52 1.255 . S
C59 O63 1.295 . S
C59 O64 1.235 . S
O60 Fe45 1.976 . S
O60 C54 1.287 . S
O61 Fe47 1.996 . S
O61 C54 1.255 . S
C62 O55 1.287 . S
C62 O56 1.255 . S
O63 Fe45 2.002 . S
O63 C59 1.295 . S
O64 Fe47 1.997 . S
O64 C59 1.235 . S
C65 O48 1.295 . S
C65 O49 1.235 . S
Fe66 O68 1.918 . S
Fe66 O71 1.997 . S
Fe66 O72 2.002 . S
Fe66 O77 1.976 . S
Fe66 O80 1.996 . S
Fe67 O68 1.918 . S
Fe67 O75 1.997 . S
Fe67 O78 1.996 . S
Fe67 O82 1.976 . S
Fe67 O85 2.002 . S
O68 Fe66 1.918 . S
O68 Fe67 1.918 . S
O68 Fe69 1.918 . S
Fe69 O68 1.918 . S
Fe69 O70 2.002 . S
Fe69 O79 1.976 . S
Fe69 O83 1.996 . S
Fe69 O86 1.997 . S
O70 Fe69 2.002 . S
O70 C87 1.295 . S
O71 Fe66 1.997 . S
O71 C87 1.235 . S
O72 Fe66 2.002 . S
O72 C73 1.295 . S
C73 O72 1.295 . S
C73 O75 1.235 . S
C74 O79 1.287 . S
C74 O80 1.255 . S
O75 Fe67 1.997 . S
O75 C73 1.235 . S
C76 O82 1.287 . S
C76 O83 1.255 . S
O77 Fe66 1.976 . S
O77 C84 1.287 . S
O78 Fe67 1.996 . S
O78 C84 1.255 . S
O79 Fe69 1.976 . S
O79 C74 1.287 . S
O80 Fe66 1.996 . S
O80 C74 1.255 . S
C81 O85 1.295 . S
C81 O86 1.235 . S
O82 Fe67 1.976 . S
O82 C76 1.287 . S
O83 Fe69 1.996 . S
O83 C76 1.255 . S
C84 O77 1.287 . S
C84 O78 1.255 . S
O85 Fe67 2.002 . S
O85 C81 1.295 . S
O86 Fe69 1.997 . S
O86 C81 1.235 . S
C87 O70 1.295 . S
C87 O71 1.235 . S
Fe88 O90 1.918 . S
Fe88 O93 1.997 . S
Fe88 O94 2.002 . S
Fe88 O99 1.976 . S
Fe88 O102 1.996 . S
Fe89 O90 1.918 . S
Fe89 O97 1.997 . S
Fe89 O100 1.996 . S
Fe89 O104 1.976 . S
Fe89 O107 2.002 . S
O90 Fe88 1.918 . S
O90 Fe89 1.918 . S
O90 Fe91 1.918 . S
Fe91 O90 1.918 . S
Fe91 O92 2.002 . S
Fe91 O101 1.976 . S
Fe91 O105 1.996 . S
Fe91 O108 1.997 . S
O92 Fe91 2.002 . S
O92 C109 1.295 . S
O93 Fe88 1.997 . S
O93 C109 1.235 . S
O94 Fe88 2.002 . S
O94 C95 1.295 . S
C95 O94 1.295 . S
C95 O97 1.235 . S
C96 O101 1.287 . S
C96 O102 1.255 . S
O97 Fe89 1.997 . S
O97 C95 1.235 . S
C98 O104 1.287 . S
C98 O105 1.255 . S
O99 Fe88 1.976 . S
O99 C106 1.287 . S
O100 Fe89 1.996 . S
O100 C106 1.255 . S
O101 Fe91 1.976 . S
O101 C96 1.287 . S
O102 Fe88 1.996 . S
O102 C96 1.255 . S
C103 O107 1.295 . S
C103 O108 1.235 . S
O104 Fe89 1.976 . S
O104 C98 1.287 . S
O105 Fe91 1.996 . S
O105 C98 1.255 . S
C106 O99 1.287 . S
C106 O100 1.255 . S
O107 Fe89 2.002 . S
O107 C103 1.295 . S
O108 Fe91 1.997 . S
O108 C103 1.235 . S
C109 O92 1.295 . S
C109 O93 1.235 . S
Fe110 O112 1.918 . S
Fe110 O115 1.997 . S
Fe110 O116 2.002 1_556 S
Fe110 O121 1.976 . S
Fe110 O124 1.996 . S
Fe111 O112 1.918 . S
Fe111 O119 1.997 1_556 S
Fe111 O122 1.996 . S
Fe111 O126 1.976 . S
Fe111 O129 2.002 1_556 S
O112 Fe110 1.918 . S
O112 Fe111 1.918 . S
O112 Fe113 1.918 . S
Fe113 O112 1.918 . S
Fe113 O114 2.002 . S
Fe113 O123 1.976 . S
Fe113 O127 1.996 . S
Fe113 O130 1.997 . S
O114 Fe113 2.002 . S
O114 C131 1.295 . S
O115 Fe110 1.997 . S
O115 C131 1.235 . S
O116 Fe110 2.002 1_554 S
O116 C117 1.295 . S
C117 O116 1.295 . S
C117 O119 1.235 . S
C118 O123 1.287 . S
C118 O124 1.255 . S
O119 Fe111 1.997 1_554 S
O119 C117 1.235 . S
C120 O126 1.287 . S
C120 O127 1.255 . S
O121 Fe110 1.976 . S
O121 C128 1.287 . S
O122 Fe111 1.996 . S
O122 C128 1.255 . S
O123 Fe113 1.976 . S
O123 C118 1.287 . S
O124 Fe110 1.996 . S
O124 C118 1.255 . S
C125 O129 1.295 1_556 S
C125 O130 1.235 . S
O126 Fe111 1.976 . S
O126 C120 1.287 . S
O127 Fe113 1.996 . S
O127 C120 1.255 . S
C128 O121 1.287 . S
C128 O122 1.255 . S
O129 Fe111 2.002 1_554 S
O129 C125 1.295 1_554 S
O130 Fe113 1.997 . S
O130 C125 1.235 . S
C131 O114 1.295 . S
C131 O115 1.235 . S
Fe132 O134 1.918 . S
Fe132 O137 1.997 . S
Fe132 O138 2.002 . S
Fe132 O143 1.976 . S
Fe132 O146 1.996 1_556 S
Fe133 O134 1.918 . S
Fe133 O141 1.997 . S
Fe133 O144 1.996 . S
Fe133 O148 1.976 . S
Fe133 O151 2.002 . S
O134 Fe132 1.918 . S
O134 Fe133 1.918 . S
O134 Fe135 1.918 . S
Fe135 O134 1.918 . S
Fe135 O136 2.002 . S
Fe135 O145 1.976 1_556 S
Fe135 O149 2.000 . S
Fe135 O152 1.997 . S
O136 Fe135 2.002 . S
O136 C153 1.295 . S
O137 Fe132 1.997 . S
O137 C153 1.235 . S
O138 Fe132 2.002 . S
O138 C139 1.295 . S
C139 O138 1.295 . S
C139 O141 1.235 . S
C140 O145 1.287 . S
C140 O146 1.255 . S
O141 Fe133 1.997 . S
O141 C139 1.235 . S
C142 O148 1.287 . S
C142 O149 1.257 . S
O143 Fe132 1.976 . S
O143 C150 1.287 . S
O144 Fe133 1.996 . S
O144 C150 1.255 . S
O145 Fe135 1.976 1_554 S
O145 C140 1.287 . S
O146 Fe132 1.996 1_554 S
O146 C140 1.255 . S
C147 O151 1.295 . S
C147 O152 1.235 . S
O148 Fe133 1.976 . S
O148 C142 1.287 . S
O149 Fe135 2.000 . S
O149 C142 1.257 . S
C150 O143 1.287 . S
C150 O144 1.255 . S
O151 Fe133 2.002 . S
O151 C147 1.295 . S
O152 Fe135 1.997 . S
O152 C147 1.235 . S
C153 O136 1.295 . S
C153 O137 1.235 . S
Fe154 O156 1.918 . S
Fe154 O159 1.997 1_554 S
Fe154 O160 2.002 1_554 S
Fe154 O165 1.976 . S
Fe154 O168 1.996 . S
Fe155 O156 1.918 1_556 S
Fe155 O163 1.997 . S
Fe155 O166 1.996 . S
Fe155 O170 1.976 1_556 S
Fe155 O173 2.002 . S
O156 Fe154 1.918 . S
O156 Fe155 1.918 1_554 S
O156 Fe157 1.918 . S
Fe157 O156 1.918 . S
Fe157 O158 2.002 . S
Fe157 O167 1.976 . S
Fe157 O171 1.996 . S
Fe157 O174 1.997 1_554 S
O158 Fe157 2.002 . S
O158 C175 1.295 1_554 S
O159 Fe154 1.997 1_556 S
O159 C175 1.235 . S
O160 Fe154 2.002 1_556 S
O160 C161 1.295 . S
C161 O160 1.295 . S
C161 O163 1.235 . S
C162 O167 1.287 . S
C162 O168 1.255 . S
O163 Fe155 1.997 . S
O163 C161 1.235 . S
C164 O170 1.287 . S
C164 O171 1.255 . S
O165 Fe154 1.976 . S
O165 C172 1.287 . S
O166 Fe155 1.996 . S
O166 C172 1.255 1_556 S
O167 Fe157 1.976 . S
O167 C162 1.287 . S
O168 Fe154 1.996 . S
O168 C162 1.255 . S
C169 O173 1.295 . S
C169 O174 1.235 . S
O170 Fe155 1.976 1_554 S
O170 C164 1.287 . S
O171 Fe157 1.996 . S
O171 C164 1.255 . S
C172 O165 1.287 . S
C172 O166 1.255 1_554 S
O173 Fe155 2.002 . S
O173 C169 1.295 . S
O174 Fe157 1.997 1_556 S
O174 C169 1.235 . S
C175 O158 1.295 1_556 S
C175 O159 1.235 . S
Fe176 O178 1.918 . S
Fe176 O181 1.997 . S
Fe176 O182 2.002 1_554 S
Fe176 O187 1.976 . S
Fe176 O190 1.996 . S
Fe177 O178 1.918 . S
Fe177 O185 1.997 1_554 S
Fe177 O188 1.996 . S
Fe177 O192 1.976 . S
Fe177 O195 2.002 . S
O178 Fe176 1.918 . S
O178 Fe177 1.918 . S
O178 Fe179 1.918 . S
Fe179 O178 1.918 . S
Fe179 O180 2.002 . S
Fe179 O189 1.976 . S
Fe179 O193 1.996 . S
Fe179 O196 1.997 . S
O180 Fe179 2.002 . S
O180 C197 1.295 . S
O181 Fe176 1.997 . S
O181 C197 1.235 . S
O182 Fe176 2.002 1_556 S
O182 C183 1.295 . S
C183 O182 1.295 . S
C183 O185 1.235 . S
C184 O189 1.287 . S
C184 O190 1.255 . S
O185 Fe177 1.997 1_556 S
O185 C183 1.235 . S
C186 O192 1.287 . S
C186 O193 1.255 . S
O187 Fe176 1.976 . S
O187 C194 1.287 . S
O188 Fe177 1.996 . S
O188 C194 1.255 . S
O189 Fe179 1.976 . S
O189 C184 1.287 . S
O190 Fe176 1.996 . S
O190 C184 1.255 . S
C191 O195 1.295 . S
C191 O196 1.235 . S
O192 Fe177 1.976 . S
O192 C186 1.287 . S
O193 Fe179 1.996 . S
O193 C186 1.255 . S
C194 O187 1.287 . S
C194 O188 1.255 . S
O195 Fe177 2.002 . S
O195 C191 1.295 . S
O196 Fe179 1.997 . S
O196 C191 1.235 . S
C197 O180 1.295 . S
C197 O181 1.235 . S
Fe198 O200 1.918 . S
Fe198 O203 1.997 . S
Fe198 O204 2.002 . S
Fe198 O209 1.976 . S
Fe198 O212 1.996 . S
Fe199 O200 1.918 . S
Fe199 O207 1.997 . S
Fe199 O210 1.996 . S
Fe199 O214 1.976 . S
Fe199 O217 2.002 . S
O200 Fe198 1.918 . S
O200 Fe199 1.918 . S
O200 Fe201 1.918 . S
Fe201 O200 1.918 . S
Fe201 O202 2.002 . S
Fe201 O211 1.976 . S
Fe201 O215 1.996 . S
Fe201 O218 1.997 . S
O202 Fe201 2.002 . S
O202 C219 1.295 . S
O203 Fe198 1.997 . S
O203 C219 1.235 . S
O204 Fe198 2.002 . S
O204 C205 1.295 . S
C205 O204 1.295 . S
C205 O207 1.235 . S
C206 O211 1.287 . S
C206 O212 1.255 . S
O207 Fe199 1.997 . S
O207 C205 1.235 . S
C208 O214 1.287 . S
C208 O215 1.255 . S
O209 Fe198 1.976 . S
O209 C216 1.287 . S
O210 Fe199 1.996 . S
O210 C216 1.255 . S
O211 Fe201 1.976 . S
O211 C206 1.287 . S
O212 Fe198 1.996 . S
O212 C206 1.255 . S
C213 O217 1.295 . S
C213 O218 1.235 . S
O214 Fe199 1.976 . S
O214 C208 1.287 . S
O215 Fe201 1.996 . S
O215 C208 1.255 . S
C216 O209 1.287 . S
C216 O210 1.255 . S
O217 Fe199 2.002 . S
O217 C213 1.295 . S
O218 Fe201 1.997 . S
O218 C213 1.235 . S
C219 O202 1.295 . S
C219 O203 1.235 . S
Fe220 O222 1.918 . S
Fe220 O225 1.997 . S
Fe220 O226 2.002 . S
Fe220 O231 1.976 . S
Fe220 O234 1.996 . S
Fe221 O222 1.918 . S
Fe221 O229 1.997 . S
Fe221 O232 1.996 . S
Fe221 O236 1.976 . S
Fe221 O239 2.002 . S
O222 Fe220 1.918 . S
O222 Fe221 1.918 . S
O222 Fe223 1.918 . S
Fe223 O222 1.918 . S
Fe223 O224 2.002 . S
Fe223 O233 1.976 . S
Fe223 O237 1.996 . S
Fe223 O240 1.997 . S
O224 Fe223 2.002 . S
O224 C241 1.295 . S
O225 Fe220 1.997 . S
O225 C241 1.235 . S
O226 Fe220 2.002 . S
O226 C227 1.295 . S
C227 O226 1.295 . S
C227 O229 1.235 . S
C228 O233 1.287 . S
C228 O234 1.255 . S
O229 Fe221 1.997 . S
O229 C227 1.235 . S
C230 O236 1.287 . S
C230 O237 1.255 . S
O231 Fe220 1.976 . S
O231 C238 1.287 . S
O232 Fe221 1.996 . S
O232 C238 1.255 . S
O233 Fe223 1.976 . S
O233 C228 1.287 . S
O234 Fe220 1.996 . S
O234 C228 1.255 . S
C235 O239 1.295 . S
C235 O240 1.235 . S
O236 Fe221 1.976 . S
O236 C230 1.287 . S
O237 Fe223 1.996 . S
O237 C230 1.255 . S
C238 O231 1.287 . S
C238 O232 1.255 . S
O239 Fe221 2.002 . S
O239 C235 1.295 . S
O240 Fe223 1.997 . S
O240 C235 1.235 . S
C241 O224 1.295 . S
C241 O225 1.235 . S
Fe242 O244 1.918 . S
Fe242 O247 1.997 . S
Fe242 O248 2.002 . S
Fe242 O253 1.976 . S
Fe242 O256 1.996 . S
Fe243 O244 1.918 . S
Fe243 O251 1.997 . S
Fe243 O254 1.996 . S
Fe243 O258 1.976 . S
Fe243 O261 2.002 . S
O244 Fe242 1.918 . S
O244 Fe243 1.918 . S
O244 Fe245 1.918 . S
Fe245 O244 1.918 . S
Fe245 O246 2.002 . S
Fe245 O255 1.976 . S
Fe245 O259 1.996 . S
Fe245 O262 1.997 . S
O246 Fe245 2.002 . S
O246 C263 1.295 . S
O247 Fe242 1.997 . S
O247 C263 1.235 . S
O248 Fe242 2.002 . S
O248 C249 1.295 . S
C249 O248 1.295 . S
C249 O251 1.235 . S
C250 O255 1.287 . S
C250 O256 1.255 . S
O251 Fe243 1.997 . S
O251 C249 1.235 . S
C252 O258 1.287 . S
C252 O259 1.255 . S
O253 Fe242 1.976 . S
O253 C260 1.287 . S
O254 Fe243 1.996 . S
O254 C260 1.255 . S
O255 Fe245 1.976 . S
O255 C250 1.287 . S
O256 Fe242 1.996 . S
O256 C250 1.255 . S
C257 O261 1.295 . S
C257 O262 1.235 . S
O258 Fe243 1.976 . S
O258 C252 1.287 . S
O259 Fe245 1.996 . S
O259 C252 1.255 . S
C260 O253 1.287 . S
C260 O254 1.255 . S
O261 Fe243 2.002 . S
O261 C257 1.295 . S
O262 Fe245 1.997 . S
O262 C257 1.235 . S
C263 O246 1.295 . S
C263 O247 1.235 . S
C264 C265 1.369 . S
C264 C266 1.419 . S
C264 H268 0.930 . S
C265 C264 1.369 . S
C265 C274 1.429 . S
C266 C264 1.419 . S
C266 C267 1.363 . S
C266 H269 0.929 . S
C267 C266 1.363 . S
C267 C273 1.428 . S
H268 C264 0.930 . S
H269 C266 0.929 . S
S270 N271 1.613 . S
S270 N272 1.610 . S
N271 S270 1.613 . S
N271 C274 1.350 . S
N272 S270 1.610 . S
N272 C273 1.351 . S
C273 C267 1.428 . S
C273 N272 1.351 . S
C273 C274 1.434 . S
C274 C265 1.429 . S
C274 N271 1.350 . S
C274 C273 1.434 . S
C275 C276 1.369 . S
C275 C277 1.419 . S
C275 H279 0.930 . S
C276 C275 1.369 . S
C276 C285 1.429 . S
C277 C275 1.419 . S
C277 C278 1.363 . S
C277 H280 0.929 . S
C278 C277 1.363 . S
C278 C284 1.428 . S
H279 C275 0.930 . S
H280 C277 0.929 . S
S281 N282 1.613 . S
S281 N283 1.610 . S
N282 S281 1.613 . S
N282 C285 1.350 . S
N283 S281 1.610 . S
N283 C284 1.351 . S
C284 C278 1.428 . S
C284 N283 1.351 . S
C284 C285 1.434 . S
C285 C276 1.429 . S
C285 N282 1.350 . S
C285 C284 1.434 . S
C286 C287 1.369 . S
C286 C288 1.419 . S
C286 H290 0.930 . S
C287 C286 1.369 . S
C287 C296 1.429 . S
C288 C286 1.419 . S
C288 C289 1.363 . S
C288 H291 0.929 . S
C289 C288 1.363 . S
C289 C295 1.428 . S
H290 C286 0.930 . S
H291 C288 0.929 . S
S292 N293 1.613 . S
S292 N294 1.610 . S
N293 S292 1.613 . S
N293 C296 1.350 . S
N294 S292 1.610 . S
N294 C295 1.351 . S
C295 C289 1.428 . S
C295 N294 1.351 . S
C295 C296 1.434 . S
C296 C287 1.429 . S
C296 N293 1.350 . S
C296 C295 1.434 . S
C297 C298 1.369 . S
C297 C299 1.419 1_554 S
C297 H301 0.930 . S
C298 C297 1.369 . S
C298 C307 1.429 . S
C299 C297 1.419 1_556 S
C299 C300 1.363 . S
C299 H302 0.929 . S
C300 C299 1.363 . S
C300 C306 1.424 1_556 S
H301 C297 0.930 . S
H302 C299 0.929 . S
S303 N304 1.613 . S
S303 N305 1.610 1_554 S
N304 S303 1.613 . S
N304 C307 1.350 . S
N305 S303 1.610 1_556 S
N305 C306 1.351 1_556 S
C306 C300 1.424 1_554 S
C306 N305 1.351 1_554 S
C306 C307 1.439 . S
C307 C298 1.429 . S
C307 N304 1.350 . S
C307 C306 1.439 . S
C308 C309 1.369 . S
C308 C310 1.419 . S
C308 H312 0.930 . S
C309 C308 1.369 . S
C309 C318 1.429 . S
C310 C308 1.419 . S
C310 C311 1.363 . S
C310 H313 0.929 . S
C311 C310 1.363 . S
C311 C317 1.428 . S
H312 C308 0.930 . S
H313 C310 0.929 . S
S314 N315 1.613 . S
S314 N316 1.610 . S
N315 S314 1.613 . S
N315 C318 1.350 . S
N316 S314 1.610 . S
N316 C317 1.351 . S
C317 C311 1.428 . S
C317 N316 1.351 . S
C317 C318 1.434 . S
C318 C309 1.429 . S
C318 N315 1.350 . S
C318 C317 1.434 . S
C319 C320 1.369 . S
C319 C321 1.419 . S
C319 H323 0.930 . S
C320 C319 1.369 . S
C320 C329 1.429 . S
C321 C319 1.419 . S
C321 C322 1.363 . S
C321 H324 0.929 . S
C322 C321 1.363 . S
C322 C328 1.428 . S
H323 C319 0.930 . S
H324 C321 0.929 . S
S325 N326 1.613 . S
S325 N327 1.610 . S
N326 S325 1.613 . S
N326 C329 1.350 . S
N327 S325 1.610 . S
N327 C328 1.351 . S
C328 C322 1.428 . S
C328 N327 1.351 . S
C328 C329 1.434 . S
C329 C320 1.429 . S
C329 N326 1.350 . S
C329 C328 1.434 . S
C330 C331 1.369 . S
C330 C332 1.419 . S
C330 H334 0.930 . S
C331 C330 1.369 . S
C331 C340 1.429 . S
C332 C330 1.419 . S
C332 C333 1.363 . S
C332 H335 0.929 . S
C333 C332 1.363 . S
C333 C339 1.428 . S
H334 C330 0.930 . S
H335 C332 0.929 . S
S336 N337 1.613 . S
S336 N338 1.610 . S
N337 S336 1.613 . S
N337 C340 1.350 . S
N338 S336 1.610 . S
N338 C339 1.351 . S
C339 C333 1.428 . S
C339 N338 1.351 . S
C339 C340 1.434 . S
C340 C331 1.429 . S
C340 N337 1.350 . S
C340 C339 1.434 . S
C341 C342 1.369 . S
C341 C343 1.419 . S
C341 H345 0.930 . S
C342 C341 1.369 . S
C342 C351 1.429 . S
C343 C341 1.419 . S
C343 C344 1.363 . S
C343 H346 0.929 . S
C344 C343 1.363 . S
C344 C350 1.428 . S
H345 C341 0.930 . S
H346 C343 0.929 . S
S347 N348 1.613 . S
S347 N349 1.610 . S
N348 S347 1.613 . S
N348 C351 1.350 . S
N349 S347 1.610 . S
N349 C350 1.351 . S
C350 C344 1.428 . S
C350 N349 1.351 . S
C350 C351 1.434 . S
C351 C342 1.429 . S
C351 N348 1.350 . S
C351 C350 1.434 . S
C352 C353 1.369 . S
C352 C354 1.419 . S
C352 H356 0.930 . S
C353 C352 1.369 . S
C353 C362 1.429 . S
C354 C352 1.419 . S
C354 C355 1.363 . S
C354 H357 0.929 . S
C355 C354 1.363 . S
C355 C361 1.428 . S
H356 C352 0.930 . S
H357 C354 0.929 . S
S358 N359 1.613 . S
S358 N360 1.610 . S
N359 S358 1.613 . S
N359 C362 1.350 . S
N360 S358 1.610 . S
N360 C361 1.351 . S
C361 C355 1.428 . S
C361 N360 1.351 . S
C361 C362 1.434 . S
C362 C353 1.429 . S
C362 N359 1.350 . S
C362 C361 1.434 . S
C363 C364 1.369 . S
C363 C365 1.419 . S
C363 H367 0.930 . S
C364 C363 1.369 . S
C364 C373 1.429 . S
C365 C363 1.419 . S
C365 C366 1.363 . S
C365 H368 0.929 . S
C366 C365 1.363 . S
C366 C372 1.428 . S
H367 C363 0.930 . S
H368 C365 0.929 . S
S369 N370 1.613 1_556 S
S369 N371 1.610 . S
N370 S369 1.613 1_554 S
N370 C373 1.350 1_554 S
N371 S369 1.610 . S
N371 C372 1.351 . S
C372 C366 1.428 . S
C372 N371 1.351 . S
C372 C373 1.434 . S
C373 C364 1.429 . S
C373 N370 1.350 1_556 S
C373 C372 1.434 . S
C374 C375 1.369 . S
C374 C376 1.419 1_556 S
C374 H378 0.930 . S
C375 C374 1.369 . S
C375 C384 1.429 . S
C376 C374 1.419 1_554 S
C376 C377 1.363 . S
C376 H379 0.929 . S
C377 C376 1.363 . S
C377 C383 1.428 . S
H378 C374 0.930 . S
H379 C376 0.929 . S
S380 N381 1.613 1_554 S
S380 N382 1.610 . S
N381 S380 1.613 1_556 S
N381 C384 1.350 . S
N382 S380 1.610 . S
N382 C383 1.351 . S
C383 C377 1.428 . S
C383 N382 1.351 . S
C383 C384 1.434 1_554 S
C384 C375 1.429 . S
C384 N381 1.350 . S
C384 C383 1.434 1_556 S
C385 C386 1.369 . S
C385 C387 1.419 . S
C385 H389 0.930 . S
C386 C385 1.369 . S
C386 C395 1.429 . S
C387 C385 1.419 . S
C387 C388 1.363 . S
C387 H390 0.929 . S
C388 C387 1.363 . S
C388 C394 1.428 . S
H389 C385 0.930 . S
H390 C387 0.929 . S
S391 N392 1.613 . S
S391 N393 1.610 . S
N392 S391 1.613 . S
N392 C395 1.350 . S
N393 S391 1.610 . S
N393 C394 1.351 . S
C394 C388 1.428 . S
C394 N393 1.351 . S
C394 C395 1.434 . S
C395 C386 1.429 . S
C395 N392 1.350 . S
C395 C394 1.434 . S
C396 C397 1.369 . S
C396 C398 1.419 1_545 S
C396 H400 0.930 . S
C397 C396 1.369 . S
C397 C406 1.429 1_554 S
C398 C396 1.419 1_565 S
C398 C399 1.363 . S
C398 H401 0.929 . S
C399 C398 1.363 . S
C399 C405 1.428 1_554 S
H400 C396 0.930 . S
H401 C398 0.929 . S
S402 N403 1.613 1_565 S
S402 N404 1.610 . S
N403 S402 1.613 1_545 S
N403 C406 1.350 . S
N404 S402 1.610 . S
N404 C405 1.351 . S
C405 C399 1.428 1_556 S
C405 N404 1.351 . S
C405 C406 1.434 1_565 S
C406 C397 1.429 1_556 S
C406 N403 1.350 . S
C406 C405 1.434 1_545 S
C407 C408 1.369 . S
C407 C409 1.419 . S
C407 H411 0.930 . S
C408 C407 1.369 . S
C408 C417 1.429 . S
C409 C407 1.419 . S
C409 C410 1.363 . S
C409 H412 0.929 . S
C410 C409 1.363 . S
C410 C416 1.428 . S
H411 C407 0.930 . S
H412 C409 0.929 . S
S413 N414 1.613 . S
S413 N415 1.610 . S
N414 S413 1.613 . S
N414 C417 1.350 1_556 S
N415 S413 1.610 . S
N415 C416 1.351 1_556 S
C416 C410 1.428 . S
C416 N415 1.351 1_554 S
C416 C417 1.434 . S
C417 C408 1.429 . S
C417 N414 1.350 1_554 S
C417 C416 1.434 . S
C418 C419 1.369 . S
C418 C420 1.419 1_455 S
C418 H422 0.930 . S
C419 C418 1.369 . S
C419 C428 1.429 . S
C420 C418 1.419 1_655 S
C420 C421 1.363 . S
C420 H423 0.929 . S
C421 C420 1.363 . S
C421 C427 1.428 . S
H422 C418 0.930 . S
H423 C420 0.929 . S
S424 N425 1.613 . S
S424 N426 1.610 1_455 S
N425 S424 1.613 . S
N425 C428 1.350 . S
N426 S424 1.610 1_655 S
N426 C427 1.351 . S
C427 C421 1.428 . S
C427 N426 1.351 . S
C427 C428 1.434 1_655 S
C428 C419 1.429 . S
C428 N425 1.350 . S
C428 C427 1.434 1_455 S
C429 C430 1.369 . S
C429 C431 1.419 1_565 S
C429 H433 0.930 . S
C430 C429 1.369 . S
C430 C439 1.429 . S
C431 C429 1.419 1_545 S
C431 C432 1.363 . S
C431 H434 0.929 . S
C432 C431 1.363 . S
C432 C438 1.428 . S
H433 C429 0.930 . S
H434 C431 0.929 . S
S435 N436 1.613 . S
S435 N437 1.610 1_565 S
N436 S435 1.613 . S
N436 C439 1.350 . S
N437 S435 1.610 1_545 S
N437 C438 1.351 . S
C438 C432 1.428 . S
C438 N437 1.351 . S
C438 C439 1.434 1_545 S
C439 C430 1.429 . S
C439 N436 1.350 . S
C439 C438 1.434 1_565 S
C440 C441 1.369 . S
C440 C442 1.419 . S
C440 H444 0.930 . S
C441 C440 1.369 . S
C441 C450 1.429 . S
C442 C440 1.419 . S
C442 C443 1.363 . S
C442 H445 0.929 . S
C443 C442 1.363 . S
C443 C449 1.428 . S
H444 C440 0.930 . S
H445 C442 0.929 . S
S446 N447 1.613 . S
S446 N448 1.610 . S
N447 S446 1.613 . S
N447 C450 1.350 . S
N448 S446 1.610 . S
N448 C449 1.351 . S
C449 C443 1.428 . S
C449 N448 1.351 . S
C449 C450 1.434 . S
C450 C441 1.429 . S
C450 N447 1.350 . S
C450 C449 1.434 . S
C451 C452 1.369 . S
C451 C453 1.419 1_455 S
C451 H455 0.930 . S
C452 C451 1.369 . S
C452 C461 1.429 . S
C453 C451 1.419 1_655 S
C453 C454 1.363 . S
C453 H456 0.929 . S
C454 C453 1.363 . S
C454 C460 1.428 . S
H455 C451 0.930 . S
H456 C453 0.929 . S
S457 N458 1.613 1_655 S
S457 N459 1.610 . S
N458 S457 1.613 1_455 S
N458 C461 1.350 . S
N459 S457 1.610 . S
N459 C460 1.351 . S
C460 C454 1.428 . S
C460 N459 1.351 . S
C460 C461 1.434 1_655 S
C461 C452 1.429 . S
C461 N458 1.350 . S
C461 C460 1.434 1_455 S
C462 C463 1.369 . S
C462 C464 1.419 . S
C462 H466 0.930 . S
C463 C462 1.369 . S
C463 C472 1.429 . S
C464 C462 1.419 . S
C464 C465 1.363 . S
C464 H467 0.929 . S
C465 C464 1.363 . S
C465 C471 1.428 . S
H466 C462 0.930 . S
H467 C464 0.929 . S
S468 N469 1.613 . S
S468 N470 1.610 . S
N469 S468 1.613 . S
N469 C472 1.350 . S
N470 S468 1.610 . S
N470 C471 1.351 . S
C471 C465 1.428 . S
C471 N470 1.351 . S
C471 C472 1.434 . S
C472 C463 1.429 . S
C472 N469 1.350 . S
C472 C471 1.434 . S
C473 C474 1.369 . S
C473 C475 1.419 . S
C473 H477 0.930 1_556 S
C474 C473 1.369 . S
C474 C483 1.429 . S
C475 C473 1.419 . S
C475 C476 1.363 . S
C475 H478 0.929 . S
C476 C475 1.363 . S
C476 C482 1.428 . S
H477 C473 0.930 1_554 S
H478 C475 0.929 . S
S479 N480 1.613 . S
S479 N481 1.610 . S
N480 S479 1.613 . S
N480 C483 1.350 . S
N481 S479 1.610 . S
N481 C482 1.351 . S
C482 C476 1.428 . S
C482 N481 1.351 . S
C482 C483 1.434 . S
C483 C474 1.429 . S
C483 N480 1.350 . S
C483 C482 1.434 . S
C484 C485 1.369 1_556 S
C484 C486 1.419 1_556 S
C484 H488 0.930 . S
C485 C484 1.369 1_554 S
C485 C494 1.429 . S
C486 C484 1.419 1_554 S
C486 C487 1.363 . S
C486 H489 0.929 . S
C487 C486 1.363 . S
C487 C493 1.428 . S
H488 C484 0.930 . S
H489 C486 0.929 . S
S490 N491 1.613 . S
S490 N492 1.610 . S
N491 S490 1.613 . S
N491 C494 1.350 . S
N492 S490 1.610 . S
N492 C493 1.351 . S
C493 C487 1.428 . S
C493 N492 1.351 . S
C493 C494 1.434 . S
C494 C485 1.429 . S
C494 N491 1.350 . S
C494 C493 1.434 . S
C495 C496 1.369 . S
C495 C497 1.419 . S
C495 H499 0.930 . S
C496 C495 1.369 . S
C496 C505 1.429 . S
C497 C495 1.419 . S
C497 C498 1.363 . S
C497 H500 0.929 . S
C498 C497 1.363 . S
C498 C504 1.428 . S
H499 C495 0.930 . S
H500 C497 0.929 . S
S501 N502 1.613 . S
S501 N503 1.610 . S
N502 S501 1.613 . S
N502 C505 1.350 . S
N503 S501 1.610 . S
N503 C504 1.351 . S
C504 C498 1.428 . S
C504 N503 1.351 . S
C504 C505 1.434 . S
C505 C496 1.429 . S
C505 N502 1.350 . S
C505 C504 1.434 . S
C506 C507 1.369 . S
C506 C508 1.419 . S
C506 H510 0.930 . S
C507 C506 1.369 . S
C507 C516 1.429 . S
C508 C506 1.419 . S
C508 C509 1.363 . S
C508 H511 0.929 . S
C509 C508 1.363 . S
C509 C515 1.428 . S
H510 C506 0.930 . S
H511 C508 0.929 . S
S512 N513 1.613 . S
S512 N514 1.610 . S
N513 S512 1.613 . S
N513 C516 1.350 . S
N514 S512 1.610 . S
N514 C515 1.351 . S
C515 C509 1.428 . S
C515 N514 1.351 . S
C515 C516 1.434 . S
C516 C507 1.429 . S
C516 N513 1.350 . S
C516 C515 1.434 . S
C517 C518 1.369 . S
C517 C519 1.419 . S
C517 H521 0.930 . S
C518 C517 1.369 . S
C518 C527 1.429 . S
C519 C517 1.419 . S
C519 C520 1.363 . S
C519 H522 0.929 . S
C520 C519 1.363 . S
C520 C526 1.428 . S
H521 C517 0.930 . S
H522 C519 0.929 . S
S523 N524 1.613 . S
S523 N525 1.610 . S
N524 S523 1.613 . S
N524 C527 1.350 . S
N525 S523 1.610 . S
N525 C526 1.351 . S
C526 C520 1.428 . S
C526 N525 1.351 . S
C526 C527 1.434 . S
C527 C518 1.429 . S
C527 N524 1.350 . S
C527 C526 1.434 . S
C528 C529 1.369 . S
C528 C530 1.419 . S
C528 H532 0.930 . S
C529 C528 1.369 . S
C529 C538 1.429 1_554 S
C530 C528 1.419 . S
C530 C531 1.363 . S
C530 H533 0.929 . S
C531 C530 1.363 . S
C531 C537 1.428 . S
H532 C528 0.930 . S
H533 C530 0.929 . S
S534 N535 1.613 . S
S534 N536 1.610 . S
N535 S534 1.613 . S
N535 C538 1.350 . S
N536 S534 1.610 . S
N536 C537 1.351 1_556 S
C537 C531 1.428 . S
C537 N536 1.351 1_554 S
C537 C538 1.434 1_554 S
C538 C529 1.429 1_556 S
C538 N535 1.350 . S
C538 C537 1.434 1_556 S
C539 C540 1.369 . S
C539 C541 1.419 . S
C539 H543 0.930 . S
C540 C539 1.369 . S
C540 C549 1.429 . S
C541 C539 1.419 . S
C541 C542 1.363 . S
C541 H544 0.929 . S
C542 C541 1.363 . S
C542 C548 1.428 . S
H543 C539 0.930 . S
H544 C541 0.929 . S
S545 N546 1.613 . S
S545 N547 1.610 . S
N546 S545 1.613 . S
N546 C549 1.350 . S
N547 S545 1.610 . S
N547 C548 1.351 . S
C548 C542 1.428 . S
C548 N547 1.351 . S
C548 C549 1.434 . S
C549 C540 1.429 . S
C549 N546 1.350 . S
C549 C548 1.434 . S
C550 C551 1.369 . S
C550 C552 1.419 . S
C550 H554 0.930 . S
C551 C550 1.369 . S
C551 C560 1.429 . S
C552 C550 1.419 . S
C552 C553 1.363 . S
C552 H555 0.929 . S
C553 C552 1.363 . S
C553 C559 1.428 . S
H554 C550 0.930 . S
H555 C552 0.929 . S
S556 N557 1.613 . S
S556 N558 1.610 . S
N557 S556 1.613 . S
N557 C560 1.350 . S
N558 S556 1.610 . S
N558 C559 1.351 . S
C559 C553 1.428 . S
C559 N558 1.351 . S
C559 C560 1.434 . S
C560 C551 1.429 . S
C560 N557 1.350 . S
C560 C559 1.434 . S
C561 C562 1.369 . S
C561 C563 1.419 . S
C561 H565 0.930 . S
C562 C561 1.369 . S
C562 C571 1.429 . S
C563 C561 1.419 . S
C563 C564 1.363 . S
C563 H566 0.929 . S
C564 C563 1.363 . S
C564 C570 1.428 . S
H565 C561 0.930 . S
H566 C563 0.929 . S
S567 N568 1.613 . S
S567 N569 1.610 . S
N568 S567 1.613 . S
N568 C571 1.350 . S
N569 S567 1.610 . S
N569 C570 1.351 . S
C570 C564 1.428 . S
C570 N569 1.351 . S
C570 C571 1.434 . S
C571 C562 1.429 . S
C571 N568 1.350 . S
C571 C570 1.434 . S
C572 C573 1.369 . S
C572 C574 1.419 . S
C572 H576 0.930 . S
C573 C572 1.369 . S
C573 C582 1.429 . S
C574 C572 1.419 . S
C574 C575 1.363 . S
C574 H577 0.929 . S
C575 C574 1.363 . S
C575 C581 1.428 . S
H576 C572 0.930 . S
H577 C574 0.929 . S
S578 N579 1.613 . S
S578 N580 1.610 . S
N579 S578 1.613 . S
N579 C582 1.350 . S
N580 S578 1.610 . S
N580 C581 1.351 . S
C581 C575 1.428 . S
C581 N580 1.351 . S
C581 C582 1.434 . S
C582 C573 1.429 . S
C582 N579 1.350 . S
C582 C581 1.434 . S
C583 C584 1.369 . S
C583 C585 1.419 . S
C583 H587 0.930 . S
C584 C583 1.369 . S
C584 C593 1.429 . S
C585 C583 1.419 . S
C585 C586 1.363 . S
C585 H588 0.929 . S
C586 C585 1.363 . S
C586 C592 1.431 . S
H587 C583 0.930 . S
H588 C585 0.929 . S
S589 N590 1.613 . S
S589 N591 1.610 . S
N590 S589 1.613 . S
N590 C593 1.350 1_554 S
N591 S589 1.610 . S
N591 C592 1.347 1_554 S
C592 C586 1.431 . S
C592 N591 1.347 1_556 S
C592 C593 1.435 . S
C593 C584 1.429 . S
C593 N590 1.350 1_556 S
C593 C592 1.435 . S
C594 C595 1.369 . S
C594 C596 1.419 . S
C594 H598 0.930 . S
C595 C594 1.369 . S
C595 C604 1.429 . S
C596 C594 1.419 . S
C596 C597 1.363 . S
C596 H599 0.929 . S
C597 C596 1.363 . S
C597 C603 1.428 . S
H598 C594 0.930 . S
H599 C596 0.929 . S
S600 N601 1.613 . S
S600 N602 1.610 . S
N601 S600 1.613 . S
N601 C604 1.350 . S
N602 S600 1.610 . S
N602 C603 1.351 . S
C603 C597 1.428 . S
C603 N602 1.351 . S
C603 C604 1.434 . S
C604 C595 1.429 . S
C604 N601 1.350 . S
C604 C603 1.434 . S
C605 C606 1.369 . S
C605 C607 1.419 . S
C605 H609 0.930 . S
C606 C605 1.369 . S
C606 C615 1.429 . S
C607 C605 1.419 . S
C607 C608 1.363 . S
C607 H610 0.929 . S
C608 C607 1.363 . S
C608 C614 1.428 . S
H609 C605 0.930 . S
H610 C607 0.929 . S
S611 N612 1.613 . S
S611 N613 1.610 . S
N612 S611 1.613 . S
N612 C615 1.350 . S
N613 S611 1.610 . S
N613 C614 1.351 . S
C614 C608 1.428 . S
C614 N613 1.351 . S
C614 C615 1.434 . S
C615 C606 1.429 . S
C615 N612 1.350 . S
C615 C614 1.434 . S
C616 C617 1.369 . S
C616 C618 1.419 . S
C616 H620 0.930 . S
C617 C616 1.369 . S
C617 C626 1.429 . S
C618 C616 1.419 . S
C618 C619 1.363 . S
C618 H621 0.929 . S
C619 C618 1.363 . S
C619 C625 1.428 . S
H620 C616 0.930 . S
H621 C618 0.929 . S
S622 N623 1.613 . S
S622 N624 1.610 . S
N623 S622 1.613 . S
N623 C626 1.350 . S
N624 S622 1.610 . S
N624 C625 1.351 . S
C625 C619 1.428 . S
C625 N624 1.351 . S
C625 C626 1.434 . S
C626 C617 1.429 . S
C626 N623 1.350 . S
C626 C625 1.434 . S
C627 C628 1.369 . S
C627 C629 1.419 . S
C627 H631 0.930 . S
C628 C627 1.369 . S
C628 C637 1.429 . S
C629 C627 1.419 . S
C629 C630 1.363 . S
C629 H632 0.929 . S
C630 C629 1.363 . S
C630 C636 1.428 . S
H631 C627 0.930 . S
H632 C629 0.929 . S
S633 N634 1.613 . S
S633 N635 1.610 . S
N634 S633 1.613 . S
N634 C637 1.350 . S
N635 S633 1.610 . S
N635 C636 1.351 . S
C636 C630 1.428 . S
C636 N635 1.351 . S
C636 C637 1.434 . S
C637 C628 1.429 . S
C637 N634 1.350 . S
C637 C636 1.434 . S
C638 C639 1.369 . S
C638 C640 1.419 . S
C638 H642 0.930 . S
C639 C638 1.369 . S
C639 C648 1.429 . S
C640 C638 1.419 . S
C640 C641 1.363 . S
C640 H643 0.929 . S
C641 C640 1.363 . S
C641 C647 1.428 1_556 S
H642 C638 0.930 . S
H643 C640 0.929 . S
S644 N645 1.613 . S
S644 N646 1.610 . S
N645 S644 1.613 . S
N645 C648 1.350 1_554 S
N646 S644 1.610 . S
N646 C647 1.351 . S
C647 C641 1.428 1_554 S
C647 N646 1.351 . S
C647 C648 1.434 1_554 S
C648 C639 1.429 . S
C648 N645 1.350 1_556 S
C648 C647 1.434 1_556 S
C649 C650 1.369 . S
C649 C651 1.419 . S
C649 H653 0.930 . S
C650 C649 1.369 . S
C650 C659 1.429 . S
C651 C649 1.419 . S
C651 C652 1.363 . S
C651 H654 0.929 . S
C652 C651 1.363 . S
C652 C658 1.428 1_554 S
H653 C649 0.930 . S
H654 C651 0.929 . S
S655 N656 1.613 . S
S655 N657 1.610 . S
N656 S655 1.613 . S
N656 C659 1.350 1_556 S
N657 S655 1.610 . S
N657 C658 1.351 . S
C658 C652 1.428 1_556 S
C658 N657 1.351 . S
C658 C659 1.434 1_556 S
C659 C650 1.429 . S
C659 N656 1.350 1_554 S
C659 C658 1.434 1_554 S
C265 C10 1.594 . S
C267 C21 1.645 . S
C276 C30 1.593 . S
C278 C29 1.642 . S
C287 C65 1.642 . S
C289 C54 1.593 1_556 S
C298 C74 1.591 . S
C300 C73 1.644 . S
C309 C103 1.640 1_554 S
C311 C106 1.598 . S
C320 C118 1.599 . S
C322 C117 1.641 . S
C331 C140 1.593 . S
C333 C139 1.642 . S
C342 C161 1.640 . S
C344 C162 1.598 . S
C353 C183 1.646 . S
C355 C184 1.597 . S
C364 C205 1.640 1_556 S
C366 C206 1.598 . S
C375 C228 1.596 . S
C377 C227 1.641 . S
C386 C249 1.641 . S
C388 C250 1.595 1_554 S
C397 C8 1.489 . S
C399 C172 1.485 . S
C408 C194 1.485 . S
C410 C40 1.488 . S
C419 C216 1.487 . S
C421 C52 1.491 . S
C430 C84 1.486 . S
C432 C238 1.490 . S
C441 C98 1.487 . S
C443 C260 1.490 . S
C452 C128 1.489 . S
C454 C150 1.486 . S
C463 C18 1.239 . S
C465 C230 1.239 . S
C474 C32 1.240 1_556 S
C476 C252 1.239 . S
C485 C142 1.239 1_554 S
C487 C62 1.237 . S
C496 C76 1.235 . S
C498 C164 1.237 . S
C507 C96 1.240 . S
C509 C186 1.238 . S
C518 C208 1.237 . S
C520 C120 1.236 . S
C529 C15 1.226 . S
C531 C197 1.228 . S
C540 C219 1.225 . S
C542 C43 1.228 . S
C551 C241 1.225 . S
C553 C59 1.228 . S
C562 C87 1.225 . S
C564 C263 1.228 . S
C573 C153 1.229 . S
C575 C95 1.226 . S
C584 C131 1.228 . S
C586 C175 1.226 . S
C595 C7 1.482 . S
C597 C235 1.485 . S
C606 C37 1.493 . S
C608 C257 1.490 . S
C617 C51 1.492 . S
C619 C147 1.486 . S
C628 C169 1.482 . S
C630 C81 1.485 . S
C639 C109 1.488 . S
C641 C191 1.483 1_556 S
C650 C213 1.490 . S
C652 C125 1.484 1_554 S
