# Generated by pormake.
# Topology wll, (5)-cn, num edge types: 1
# Building blocks:
#     Node 0, Type 0, BuildingBlock: BEQFEK_clean_sbu_0, # of connection points: 5
#     Node 1, Type 0, BuildingBlock: BEQFEK_clean_sbu_0, # of connection points: 5
#     Node 2, Type 0, BuildingBlock: BEQFEK_clean_sbu_0, # of connection points: 5
#     Node 3, Type 0, BuildingBlock: BEQFEK_clean_sbu_0, # of connection points: 5
#     Node 4, Type 0, BuildingBlock: BEQFEK_clean_sbu_0, # of connection points: 5
#     Node 5, Type 0, BuildingBlock: BEQFEK_clean_sbu_0, # of connection points: 5
#     Node 6, Type 0, BuildingBlock: BEQFEK_clean_sbu_0, # of connection points: 5
#     Node 7, Type 0, BuildingBlock: BEQFEK_clean_sbu_0, # of connection points: 5
#     Node 8, Type 0, BuildingBlock: BEQFEK_clean_sbu_0, # of connection points: 5
#     Node 9, Type 0, BuildingBlock: BEQFEK_clean_sbu_0, # of connection points: 5
#     Node 10, Type 0, BuildingBlock: BEQFEK_clean_sbu_0, # of connection points: 5
#     Node 11, Type 0, BuildingBlock: BEQFEK_clean_sbu_0, # of connection points: 5
#     Node 12, Type 0, BuildingBlock: BEQFEK_clean_sbu_0, # of connection points: 5
#     Node 13, Type 0, BuildingBlock: BEQFEK_clean_sbu_0, # of connection points: 5
#     Node 14, Type 0, BuildingBlock: BEQFEK_clean_sbu_0, # of connection points: 5
#     Node 15, Type 0, BuildingBlock: BEQFEK_clean_sbu_0, # of connection points: 5
#     Node 16, Type 0, BuildingBlock: BEQFEK_clean_sbu_0, # of connection points: 5
#     Node 17, Type 0, BuildingBlock: BEQFEK_clean_sbu_0, # of connection points: 5
#     Edge 18, Type (0, 0), BuildingBlock: MIFKUJ_clean_linker_0, # of connection points: 2
#     Edge 19, Type (0, 0), BuildingBlock: MIFKUJ_clean_linker_0, # of connection points: 2
#     Edge 20, Type (0, 0), BuildingBlock: MIFKUJ_clean_linker_0, # of connection points: 2
#     Edge 21, Type (0, 0), BuildingBlock: MIFKUJ_clean_linker_0, # of connection points: 2
#     Edge 22, Type (0, 0), BuildingBlock: MIFKUJ_clean_linker_0, # of connection points: 2
#     Edge 23, Type (0, 0), BuildingBlock: MIFKUJ_clean_linker_0, # of connection points: 2
#     Edge 24, Type (0, 0), BuildingBlock: MIFKUJ_clean_linker_0, # of connection points: 2
#     Edge 25, Type (0, 0), BuildingBlock: MIFKUJ_clean_linker_0, # of connection points: 2
#     Edge 26, Type (0, 0), BuildingBlock: MIFKUJ_clean_linker_0, # of connection points: 2
#     Edge 27, Type (0, 0), BuildingBlock: MIFKUJ_clean_linker_0, # of connection points: 2
#     Edge 28, Type (0, 0), BuildingBlock: MIFKUJ_clean_linker_0, # of connection points: 2
#     Edge 29, Type (0, 0), BuildingBlock: MIFKUJ_clean_linker_0, # of connection points: 2
#     Edge 30, Type (0, 0), BuildingBlock: MIFKUJ_clean_linker_0, # of connection points: 2
#     Edge 31, Type (0, 0), BuildingBlock: MIFKUJ_clean_linker_0, # of connection points: 2
#     Edge 32, Type (0, 0), BuildingBlock: MIFKUJ_clean_linker_0, # of connection points: 2
#     Edge 33, Type (0, 0), BuildingBlock: MIFKUJ_clean_linker_0, # of connection points: 2
#     Edge 34, Type (0, 0), BuildingBlock: MIFKUJ_clean_linker_0, # of connection points: 2
#     Edge 35, Type (0, 0), BuildingBlock: MIFKUJ_clean_linker_0, # of connection points: 2
#     Edge 36, Type (0, 0), BuildingBlock: MIFKUJ_clean_linker_0, # of connection points: 2
#     Edge 37, Type (0, 0), BuildingBlock: MIFKUJ_clean_linker_0, # of connection points: 2
#     Edge 38, Type (0, 0), BuildingBlock: MIFKUJ_clean_linker_0, # of connection points: 2
#     Edge 39, Type (0, 0), BuildingBlock: MIFKUJ_clean_linker_0, # of connection points: 2
#     Edge 40, Type (0, 0), BuildingBlock: MIFKUJ_clean_linker_0, # of connection points: 2
#     Edge 41, Type (0, 0), BuildingBlock: MIFKUJ_clean_linker_0, # of connection points: 2
#     Edge 42, Type (0, 0), BuildingBlock: MIFKUJ_clean_linker_0, # of connection points: 2
#     Edge 43, Type (0, 0), BuildingBlock: MIFKUJ_clean_linker_0, # of connection points: 2
#     Edge 44, Type (0, 0), BuildingBlock: MIFKUJ_clean_linker_0, # of connection points: 2
#     Edge 45, Type (0, 0), BuildingBlock: MIFKUJ_clean_linker_0, # of connection points: 2
#     Edge 46, Type (0, 0), BuildingBlock: MIFKUJ_clean_linker_0, # of connection points: 2
#     Edge 47, Type (0, 0), BuildingBlock: MIFKUJ_clean_linker_0, # of connection points: 2
#     Edge 48, Type (0, 0), BuildingBlock: MIFKUJ_clean_linker_0, # of connection points: 2
#     Edge 49, Type (0, 0), BuildingBlock: MIFKUJ_clean_linker_0, # of connection points: 2
#     Edge 50, Type (0, 0), BuildingBlock: MIFKUJ_clean_linker_0, # of connection points: 2
#     Edge 51, Type (0, 0), BuildingBlock: MIFKUJ_clean_linker_0, # of connection points: 2
#     Edge 52, Type (0, 0), BuildingBlock: MIFKUJ_clean_linker_0, # of connection points: 2
#     Edge 53, Type (0, 0), BuildingBlock: MIFKUJ_clean_linker_0, # of connection points: 2
#     Edge 54, Type (0, 0), BuildingBlock: MIFKUJ_clean_linker_0, # of connection points: 2
#     Edge 55, Type (0, 0), BuildingBlock: MIFKUJ_clean_linker_0, # of connection points: 2
#     Edge 56, Type (0, 0), BuildingBlock: MIFKUJ_clean_linker_0, # of connection points: 2
#     Edge 57, Type (0, 0), BuildingBlock: MIFKUJ_clean_linker_0, # of connection points: 2
#     Edge 58, Type (0, 0), BuildingBlock: MIFKUJ_clean_linker_0, # of connection points: 2
#     Edge 59, Type (0, 0), BuildingBlock: MIFKUJ_clean_linker_0, # of connection points: 2
#     Edge 60, Type (0, 0), BuildingBlock: MIFKUJ_clean_linker_0, # of connection points: 2
#     Edge 61, Type (0, 0), BuildingBlock: MIFKUJ_clean_linker_0, # of connection points: 2
#     Edge 62, Type (0, 0), BuildingBlock: MIFKUJ_clean_linker_0, # of connection points: 2
# Relax obj value: 0.188
# Max RMSD: 0.162
# Mean RMSD: 0.161
data_MOF--net-wll--node1-BEQFEK_clean_sbu_0--edge1-MIFKUJ_clean_linker_0
_symmetry_space_group_name_H-M    P1
_symmetry_Int_Tables_number       1
_symmetry_cell_setting            triclinic
loop_
_symmetry_equiv_pos_as_xyz
'x, y, z'
_cell_length_a     49.937858
_cell_length_b     49.942108
_cell_length_c     84.295254
_cell_angle_alpha  89.986459
_cell_angle_beta   89.999989
_cell_angle_gamma 120.01115
loop_
_atom_site_label
_atom_site_type_symbol
_atom_site_fract_x
_atom_site_fract_y
_atom_site_fract_z
_atom_type_partial_charge
Co0 Co 0.30795 0.32291 0.11009 0.0
Co1 Co 0.34482 0.31058 0.0838 0.0
C2 C 0.32053 0.2702 0.1124 0.0
O3 O 0.30927 0.2863 0.11769 0.0
O4 O 0.33475 0.27661 0.09919 0.0
C5 C 0.2539 0.30581 0.12801 0.0
O6 O 0.24383 0.27982 0.12013 0.0
C7 C 0.3542 0.27548 0.05896 0.0
C8 C 0.389 0.3121 0.04351 0.0
C9 C 0.37059 0.28032 0.04498 0.0
N10 N 0.36251 0.3031 0.06548 0.0
N11 N 0.38364 0.32491 0.05631 0.0
C12 C 0.32847 0.24546 0.06511 0.0
H13 H 0.31149 0.24934 0.07172 0.0
H14 H 0.31657 0.22892 0.05528 0.0
H15 H 0.33819 0.23517 0.07335 0.0
C16 C 0.27117 0.32161 0.08218 0.0
N17 N 0.29363 0.31807 0.08897 0.0
N18 N 0.30905 0.31291 0.07786 0.0
C19 C 0.29669 0.31291 0.06361 0.0
C20 C 0.2723 0.31831 0.06592 0.0
C21 C 0.25128 0.33133 0.09085 0.0
H22 H 0.26474 0.3479 0.1004 0.0
H23 H 0.23151 0.31068 0.09629 0.0
H24 H 0.24199 0.3422 0.08272 0.0
O25 O 0.34954 0.35936 0.11161 0.0
O26 O 0.37656 0.35024 0.09359 0.0
H27 H 0.33248 0.32734 0.04624 0.0
H28 H 0.29391 0.3083 0.03799 0.0
C29 C 0.30833 0.30847 0.04804 0.0
H30 H 0.30806 0.28617 0.04814 0.0
H31 H 0.39362 0.34856 0.05851 0.0
O32 O 0.28078 0.32829 0.12516 0.0
C33 C 0.37486 0.36707 0.10447 0.0
Co34 Co 0.6821 0.98973 0.11182 0.0
Co35 Co 0.68417 0.03447 0.08508 0.0
C36 C 0.73138 0.05568 0.11138 0.0
O37 O 0.71964 0.02855 0.11704 0.0
O38 O 0.71963 0.06142 0.09934 0.0
C39 C 0.69936 0.96083 0.13616 0.0
O40 O 0.72508 0.98763 0.13674 0.0
C41 C 0.71439 0.07706 0.059 0.0
C42 C 0.67543 0.07411 0.04517 0.0
C43 C 0.70736 0.0879 0.04542 0.0
N44 N 0.68791 0.05788 0.06652 0.0
N45 N 0.66466 0.05642 0.0583 0.0
C46 C 0.74541 0.08222 0.06395 0.0
H47 H 0.74282 0.06181 0.07053 0.0
H48 H 0.76062 0.0867 0.0535 0.0
H49 H 0.7565 0.10261 0.07192 0.0
C50 C 0.68013 0.95291 0.08422 0.0
N51 N 0.68271 0.97875 0.09062 0.0
N52 N 0.68403 0.99741 0.07924 0.0
C53 C 0.68248 0.98392 0.06513 0.0
C54 C 0.67993 0.95533 0.06787 0.0
C55 C 0.67732 0.92626 0.09368 0.0
H56 H 0.6968 0.93475 0.1022 0.0
H57 H 0.67746 0.90831 0.08598 0.0
H58 H 0.65552 0.9159 0.10062 0.0
O59 O 0.64612 0.99485 0.11577 0.0
O60 O 0.64508 0.02431 0.09627 0.0
H61 H 0.67662 0.98044 0.03957 0.0
H62 H 0.70268 0.01863 0.04716 0.0
C63 C 0.68071 0.99684 0.04939 0.0
H64 H 0.66168 0.00218 0.0496 0.0
H65 H 0.64142 0.04268 0.06141 0.0
O66 O 0.67842 0.95685 0.12631 0.0
C67 C 0.63361 0.00852 0.10887 0.0
Co68 Co 0.01459 0.68893 0.10979 0.0
Co69 Co 0.96574 0.64971 0.08373 0.0
C70 C 0.94866 0.67354 0.11229 0.0
O71 O 0.97611 0.68587 0.11753 0.0
O72 O 0.94128 0.65906 0.09916 0.0
C73 C 0.04493 0.73929 0.13075 0.0
O74 O 0.02182 0.74328 0.12657 0.0
C75 C 0.92688 0.64526 0.05713 0.0
C76 C 0.91037 0.59819 0.04786 0.0
C77 C 0.90839 0.62462 0.04555 0.0
N78 N 0.93956 0.63188 0.06578 0.0
N79 N 0.92965 0.60373 0.0602 0.0
C80 C 0.93046 0.67623 0.0608 0.0
H81 H 0.94364 0.68577 0.07195 0.0
H82 H 0.94297 0.69264 0.05103 0.0
H83 H 0.90732 0.67413 0.06182 0.0
C84 C 0.04893 0.72537 0.08194 0.0
N85 N 0.02307 0.70266 0.08865 0.0
N86 N 0.00342 0.68574 0.07748 0.0
C87 C 0.01656 0.69703 0.06321 0.0
C88 C 0.04568 0.72259 0.06561 0.0
C89 C 0.0766 0.74844 0.0911 0.0
H90 H 0.06933 0.76008 0.09987 0.0
H91 H 0.09452 0.76623 0.08326 0.0
H92 H 0.08655 0.73624 0.0977 0.0
O93 O 0.01097 0.64791 0.1114 0.0
O94 O 0.97491 0.61895 0.09366 0.0
H95 H 0.02225 0.68763 0.03878 0.0
H96 H 0.98751 0.68856 0.04303 0.0
C97 C 0.00364 0.68128 0.04768 0.0
H98 H 0.99091 0.65585 0.04925 0.0
H99 H 0.93573 0.58818 0.06492 0.0
O100 O 0.04751 0.71759 0.12442 0.0
C101 C 0.99407 0.62207 0.10452 0.0
Co102 Co 0.69685 0.68405 0.88712 0.0
Co103 Co 0.65932 0.69397 0.91408 0.0
C104 C 0.68698 0.73805 0.88661 0.0
O105 O 0.69877 0.72276 0.8809 0.0
O106 O 0.6711 0.72948 0.89933 0.0
C107 C 0.75126 0.69996 0.86992 0.0
O108 O 0.76211 0.72512 0.87859 0.0
C109 C 0.65161 0.72829 0.94003 0.0
C110 C 0.61424 0.6915 0.95434 0.0
C111 C 0.63476 0.72307 0.95393 0.0
N112 N 0.64203 0.70101 0.93279 0.0
N113 N 0.61947 0.67912 0.94131 0.0
C114 C 0.67532 0.75861 0.93309 0.0
H115 H 0.66713 0.76132 0.92134 0.0
H116 H 0.69734 0.75862 0.93131 0.0
H117 H 0.67926 0.77868 0.94038 0.0
C118 C 0.73087 0.67952 0.91494 0.0
N119 N 0.70944 0.68497 0.90837 0.0
N120 N 0.69401 0.68954 0.91972 0.0
C121 C 0.7054 0.68735 0.93388 0.0
C122 C 0.72911 0.68102 0.93128 0.0
C123 C 0.75039 0.66981 0.90589 0.0
H124 H 0.73718 0.65493 0.89575 0.0
H125 H 0.77112 0.69068 0.90127 0.0
H126 H 0.75823 0.65702 0.91358 0.0
O127 O 0.65427 0.65011 0.88416 0.0
O128 O 0.62704 0.65546 0.90353 0.0
H129 H 0.66911 0.67293 0.95096 0.0
H130 H 0.70725 0.68934 0.9596 0.0
C131 C 0.69372 0.69102 0.94961 0.0
H132 H 0.69536 0.71394 0.95014 0.0
H133 H 0.60806 0.65567 0.93839 0.0
O134 O 0.72357 0.67836 0.87191 0.0
C135 C 0.62879 0.64116 0.89139 0.0
Co136 Co 0.33094 0.01705 0.88726 0.0
Co137 Co 0.31407 0.96649 0.9135 0.0
C138 C 0.27924 0.95145 0.88308 0.0
O139 O 0.29604 0.97914 0.87837 0.0
O140 O 0.28325 0.94299 0.89669 0.0
C141 C 0.31384 0.05294 0.86921 0.0
O142 O 0.28767 0.03541 0.87669 0.0
C143 C 0.27659 0.91968 0.93735 0.0
C144 C 0.31164 0.92565 0.95515 0.0
C145 C 0.28012 0.90977 0.9522 0.0
N146 N 0.30463 0.94107 0.932 0.0
N147 N 0.32553 0.94417 0.94259 0.0
C148 C 0.24739 0.90858 0.92804 0.0
H149 H 0.25047 0.9011 0.91617 0.0
H150 H 0.24266 0.92789 0.92641 0.0
H151 H 0.22732 0.88863 0.93373 0.0
C152 C 0.32644 0.05157 0.91463 0.0
N153 N 0.32286 0.02548 0.90796 0.0
N154 N 0.31426 0.00387 0.91887 0.0
C155 C 0.31096 0.0153 0.93279 0.0
C156 C 0.31886 0.04601 0.93061 0.0
C157 C 0.34081 0.08217 0.90632 0.0
H158 H 0.35733 0.08344 0.89716 0.0
H159 H 0.32239 0.08483 0.90045 0.0
H160 H 0.35324 0.10155 0.91479 0.0
O161 O 0.36775 0.01279 0.88753 0.0
O162 O 0.35589 0.97611 0.90565 0.0
H163 H 0.31867 0.99373 0.95281 0.0
H164 H 0.29304 0.00872 0.95675 0.0
C165 C 0.29997 0.99702 0.94783 0.0
H166 H 0.27971 0.97405 0.94529 0.0
H167 H 0.34919 0.95967 0.94146 0.0
O168 O 0.3371 0.04994 0.87227 0.0
C169 C 0.37448 0.9952 0.8954 0.0
Co170 Co 0.97556 0.31072 0.88873 0.0
Co171 Co 0.02515 0.34147 0.91554 0.0
C172 C 0.04098 0.32292 0.88539 0.0
O173 O 0.01421 0.31484 0.88006 0.0
O174 O 0.04862 0.33252 0.89953 0.0
C175 C 0.94406 0.26111 0.86796 0.0
O176 O 0.965 0.25498 0.87351 0.0
C177 C 0.06777 0.34576 0.94032 0.0
C178 C 0.07515 0.3865 0.95414 0.0
C179 C 0.08347 0.36393 0.95325 0.0
N180 N 0.05065 0.35684 0.9339 0.0
N181 N 0.0552 0.38126 0.94217 0.0
C182 C 0.07038 0.3195 0.93347 0.0
H183 H 0.04944 0.30407 0.92646 0.0
H184 H 0.07382 0.30603 0.94289 0.0
H185 H 0.09074 0.329 0.92546 0.0
C186 C 0.93903 0.27092 0.91536 0.0
N187 N 0.96589 0.29319 0.90922 0.0
N188 N 0.98658 0.3056 0.92059 0.0
C189 C 0.97363 0.29106 0.93437 0.0
C190 C 0.94297 0.26863 0.93152 0.0
C191 C 0.90931 0.25522 0.90625 0.0
H192 H 0.9084 0.27166 0.89773 0.0
H193 H 0.90819 0.23568 0.89944 0.0
H194 H 0.88893 0.24624 0.9142 0.0
O195 O 0.98052 0.35209 0.88928 0.0
O196 O 0.01842 0.37519 0.90699 0.0
H197 H 0.99749 0.32275 0.95329 0.0
H198 H 0.97615 0.2826 0.95948 0.0
C199 C 0.99038 0.29863 0.9499 0.0
H200 H 0.01146 0.29683 0.94863 0.0
H201 H 0.04479 0.39441 0.93961 0.0
O202 O 0.94317 0.28446 0.87329 0.0
C203 C -0.00026 0.37607 0.89693 0.0
Co204 Co 0.96661 0.64539 0.44518 0.0
Co205 Co 0.00929 0.64193 0.41905 0.0
C206 C 0.97953 0.59383 0.44494 0.0
O207 O 0.96469 0.60628 0.45044 0.0
O208 O 0.99774 0.60558 0.43317 0.0
C209 C 0.93276 0.63906 0.47332 0.0
O210 O 0.94693 0.6244 0.47824 0.0
C211 C 0.01579 0.61104 0.3915 0.0
C212 C 0.06378 0.64225 0.38361 0.0
C213 C 0.03741 0.61435 0.38024 0.0
N214 N 0.02854 0.63598 0.40097 0.0
N215 N 0.05722 0.65466 0.39619 0.0
C216 C 0.98445 0.58339 0.39417 0.0
H217 H 0.98633 0.56218 0.39471 0.0
H218 H 0.97393 0.58585 0.40525 0.0
H219 H 0.96897 0.58072 0.38414 0.0
C220 C 0.93456 0.65081 0.41714 0.0
N221 N 0.95657 0.64647 0.42381 0.0
N222 N 0.97451 0.6455 0.41266 0.0
C223 C 0.96455 0.64957 0.39845 0.0
C224 C 0.93883 0.65282 0.40086 0.0
C225 C 0.91038 0.65354 0.4263 0.0
H226 H 0.8992 0.63416 0.43488 0.0
H227 H 0.8925 0.65327 0.41837 0.0
H228 H 0.92155 0.67543 0.43316 0.0
O229 O 0.00859 0.67965 0.44981 0.0
O230 O 0.03938 0.67965 0.43075 0.0
H231 H 0.00649 0.6662 0.38501 0.0
H232 H 0.97537 0.66696 0.37444 0.0
C233 C 0.98115 0.6538 0.38305 0.0
H234 H 0.97404 0.63083 0.37784 0.0
H235 H 0.07249 0.67556 0.40169 0.0
O236 O 0.9378 0.65015 0.45935 0.0
C237 C 0.03516 0.69115 0.44337 0.0
Co238 Co 0.34412 0.31702 0.44293 0.0
Co239 Co 0.35349 0.36696 0.41766 0.0
C240 C 0.39467 0.38248 0.44615 0.0
O241 O 0.38043 0.35465 0.45093 0.0
O242 O 0.38658 0.39041 0.4335 0.0
C243 C 0.36241 0.28334 0.46293 0.0
O244 O 0.39015 0.30622 0.45949 0.0
C245 C 0.38988 0.41274 0.39395 0.0
C246 C 0.35549 0.41978 0.38096 0.0
C247 C 0.38682 0.42936 0.38154 0.0
N248 N 0.36187 0.39446 0.40033 0.0
N249 N 0.34138 0.39889 0.39262 0.0
C250 C 0.41814 0.41168 0.39894 0.0
H251 H 0.41155 0.38973 0.40525 0.0
H252 H 0.4326 0.41376 0.3885 0.0
H253 H 0.43194 0.43109 0.40719 0.0
C254 C 0.34509 0.28371 0.41428 0.0
N255 N 0.3485 0.30926 0.42149 0.0
N256 N 0.3527 0.33011 0.41073 0.0
C257 C 0.35244 0.3185 0.39623 0.0
C258 C 0.34759 0.28867 0.398 0.0
C259 C 0.33585 0.25402 0.42282 0.0
H260 H 0.31775 0.24965 0.43171 0.0
H261 H 0.35623 0.25608 0.42921 0.0
H262 H 0.32678 0.23404 0.41461 0.0
O263 O 0.30754 0.32167 0.4454 0.0
O264 O 0.31302 0.3566 0.42738 0.0
H265 H 0.3382 0.34187 0.37992 0.0
H266 H 0.35628 0.32226 0.37051 0.0
C267 C 0.3566 0.3357 0.38103 0.0
H268 H 0.37919 0.35737 0.38121 0.0
H269 H 0.31777 0.38741 0.3952 0.0
O270 O 0.33892 0.28276 0.45675 0.0
C271 C 0.29782 0.33798 0.4386 0.0
Co272 Co 0.68141 0.02039 0.44237 0.0
Co273 Co 0.63146 0.98482 0.41613 0.0
C274 C 0.61522 0.00582 0.44568 0.0
O275 O 0.64281 0.01703 0.45065 0.0
O276 O 0.60717 0.9928 0.43217 0.0
C277 C 0.7134 0.07066 0.46344 0.0
O278 O 0.68993 0.07473 0.46025 0.0
C279 C 0.58531 0.97393 0.39183 0.0
C280 C 0.59112 0.94329 0.375 0.0
C281 C 0.5751 0.95896 0.37737 0.0
N282 N 0.60642 0.96742 0.39772 0.0
N283 N 0.60946 0.94872 0.38773 0.0
C284 C 0.57822 0.99712 0.39899 0.0
H285 H 0.5985 0.0148 0.4057 0.0
H286 H 0.57179 0.00868 0.38972 0.0
H287 H 0.55855 0.98511 0.40734 0.0
C288 C 0.71597 0.05836 0.41489 0.0
N289 N 0.68992 0.03567 0.42149 0.0
N290 N 0.66882 0.02172 0.41044 0.0
C291 C 0.68059 0.03583 0.39642 0.0
C292 C 0.71096 0.05942 0.39875 0.0
C293 C 0.74602 0.07584 0.42362 0.0
H294 H 0.74847 0.06034 0.43217 0.0
H295 H 0.74619 0.09501 0.43036 0.0
H296 H 0.76609 0.08555 0.41542 0.0
O297 O 0.67749 0.97935 0.4431 0.0
O298 O 0.64077 0.9533 0.42517 0.0
H299 H 0.65992 0.00467 0.37697 0.0
H300 H 0.67507 0.04487 0.37183 0.0
C301 C 0.66302 0.02711 0.38113 0.0
H302 H 0.63993 0.02453 0.38304 0.0
H303 H 0.62494 0.94064 0.38931 0.0
O304 O 0.71487 0.04853 0.45686 0.0
C305 C 0.65972 0.95445 0.43569 0.0
Co306 Co 0.34796 -0.00021 0.2218 0.0
Co307 Co 0.31394 0.01505 0.24845 0.0
C308 C 0.33303 0.05109 0.21848 0.0
O309 O 0.34412 0.03467 0.21341 0.0
O310 O 0.32076 0.04651 0.23216 0.0
C311 C 0.40082 0.01846 0.20328 0.0
O312 O 0.40851 0.0447 0.21043 0.0
C313 C 0.30419 0.05158 0.27243 0.0
C314 C 0.27528 0.01629 0.29018 0.0
C315 C 0.29029 0.04775 0.28712 0.0
N316 N 0.2977 0.02366 0.26702 0.0
N317 N 0.28002 0.00259 0.27757 0.0
C318 C 0.32648 0.08146 0.26458 0.0
H319 H 0.34413 0.07884 0.25786 0.0
H320 H 0.33815 0.10029 0.27342 0.0
H321 H 0.31364 0.08796 0.25614 0.0
C322 C 0.38723 0.00371 0.24892 0.0
N323 N 0.36455 0.00729 0.24247 0.0
N324 N 0.35131 0.01511 0.25361 0.0
C325 C 0.36597 0.01782 0.26748 0.0
C326 C 0.38907 0.01041 0.26502 0.0
C327 C 0.40383 0.99013 0.24024 0.0
H328 H 0.38853 0.9736 0.2311 0.0
H329 H 0.42449 0.00898 0.23429 0.0
H330 H 0.41145 0.97789 0.24845 0.0
O331 O 0.30717 0.96247 0.22189 0.0
O332 O 0.28205 0.97355 0.24019 0.0
H333 H 0.33631 0.00844 0.28751 0.0
H334 H 0.37681 0.03429 0.29171 0.0
C335 C 0.35825 0.02766 0.28277 0.0
H336 H 0.3552 0.04783 0.28065 0.0
H337 H 0.27219 0.979 0.27643 0.0
O338 O 0.37513 0.99465 0.20663 0.0
C339 C 0.28278 0.95535 0.22978 0.0
Co340 Co 0.98804 0.34646 0.22404 0.0
Co341 Co 0.98195 0.29835 0.24981 0.0
C342 C 0.93773 0.28093 0.22232 0.0
O343 O 0.951 0.30855 0.21725 0.0
O344 O 0.9475 0.27359 0.23461 0.0
C345 C 0.96967 0.37885 0.20293 0.0
O346 O 0.94205 0.35494 0.20544 0.0
C347 C 0.94816 0.2539 0.27461 0.0
C348 C 0.98488 0.2535 0.28905 0.0
C349 C 0.95317 0.2412 0.28808 0.0
N350 N 0.97558 0.27278 0.26782 0.0
N351 N 0.99748 0.2722 0.27638 0.0
C352 C 0.91815 0.25058 0.26909 0.0
H353 H 0.92223 0.27209 0.26309 0.0
H354 H 0.90193 0.2453 0.27916 0.0
H355 H 0.90737 0.23129 0.26044 0.0
C356 C 0.98795 0.38074 0.25238 0.0
N357 N 0.98518 0.35526 0.24542 0.0
N358 N 0.98305 0.33554 0.25639 0.0
C359 C 0.98471 0.34812 0.27079 0.0
C360 C 0.98796 0.37722 0.2687 0.0
C361 C 0.99076 0.40796 0.24346 0.0
H362 H 0.97195 0.39986 0.23456 0.0
H363 H 0.98926 0.42484 0.25142 0.0
H364 H 0.01314 0.41951 0.23701 0.0
O365 O 0.02438 0.34135 0.2208 0.0
O366 O 0.02148 0.30827 0.23931 0.0
H367 H 0.9923 0.3502 0.29623 0.0
H368 H 0.96416 0.31286 0.28846 0.0
C369 C 0.98663 0.33405 0.28612 0.0
H370 H 0.00469 0.32744 0.2852 0.0
H371 H 0.02106 0.28529 0.27385 0.0
O372 O 0.99285 0.3804 0.21004 0.0
C373 C 0.03515 0.32586 0.22751 0.0
Co374 Co 0.64968 0.64115 0.22136 0.0
Co375 Co 0.69862 0.67998 0.24758 0.0
C376 C 0.71591 0.65877 0.21791 0.0
O377 O 0.68825 0.64557 0.21292 0.0
O378 O 0.72319 0.67279 0.23118 0.0
C379 C 0.61918 0.59194 0.19965 0.0
O380 O 0.64339 0.58902 0.20269 0.0
C381 C 0.73878 0.68348 0.27346 0.0
C382 C 0.75062 0.72754 0.28523 0.0
C383 C 0.75533 0.70243 0.28614 0.0
N384 N 0.72478 0.69662 0.26569 0.0
N385 N 0.73198 0.72298 0.27275 0.0
C386 C 0.73695 0.65393 0.26826 0.0
H387 H 0.72932 0.64863 0.25577 0.0
H388 H 0.71962 0.63458 0.27561 0.0
H389 H 0.75971 0.65532 0.26966 0.0
C390 C 0.61688 0.60252 0.24904 0.0
N391 N 0.64219 0.62604 0.24234 0.0
N392 N 0.66156 0.64321 0.25353 0.0
C393 C 0.6486 0.63171 0.26779 0.0
C394 C 0.6199 0.60539 0.26543 0.0
C395 C 0.59014 0.57828 0.23978 0.0
H396 H 0.59887 0.56962 0.23013 0.0
H397 H 0.57433 0.55843 0.24736 0.0
H398 H 0.57722 0.58864 0.23431 0.0
O399 O 0.65266 0.6822 0.22075 0.0
O400 O 0.68821 0.71052 0.23885 0.0
H401 H 0.6424 0.64183 0.29207 0.0
H402 H 0.67808 0.64243 0.28801 0.0
C403 C 0.66105 0.64837 0.28318 0.0
H404 H 0.67271 0.67369 0.28129 0.0
H405 H 0.72413 0.73782 0.26906 0.0
O406 O 0.61622 0.61273 0.20682 0.0
C407 C 0.669 0.70768 0.22808 0.0
Co408 Co 0.64658 0.00131 0.778 0.0
Co409 Co 0.67928 0.9851 0.75082 0.0
C410 C 0.66621 0.95334 0.78186 0.0
O411 O 0.65488 0.96956 0.78686 0.0
O412 O 0.67607 0.95607 0.76772 0.0
C413 C 0.59958 0.98136 0.80085 0.0
O414 O 0.59702 0.95466 0.79707 0.0
C415 C 0.68778 0.94787 0.72664 0.0
C416 C 0.71504 0.9826 0.70833 0.0
C417 C 0.70015 0.95118 0.71154 0.0
N418 N 0.6943 0.97589 0.73192 0.0
N419 N 0.71101 0.99662 0.72102 0.0
C420 C 0.67073 0.91887 0.73625 0.0
H421 H 0.68269 0.92218 0.74774 0.0
H422 H 0.64698 0.91426 0.73875 0.0
H423 H 0.66984 0.89864 0.73033 0.0
C424 C 0.60388 0.99278 0.75195 0.0
N425 N 0.62763 0.99047 0.75795 0.0
N426 N 0.64035 0.98245 0.74663 0.0
C427 C 0.62427 0.97831 0.7331 0.0
C428 C 0.60085 0.98512 0.73595 0.0
C429 C 0.58767 0.00643 0.76092 0.0
H430 H 0.60411 0.02476 0.76904 0.0
H431 H 0.56891 0.98807 0.76816 0.0
H432 H 0.57754 0.01655 0.75285 0.0
O433 O 0.68603 0.03996 0.77621 0.0
O434 O 0.71043 0.02787 0.7579 0.0
H435 H 0.65272 0.98737 0.71257 0.0
H436 H 0.61206 0.96086 0.70909 0.0
C437 C 0.63125 0.96813 0.71771 0.0
H438 H 0.63482 0.94827 0.71983 0.0
H439 H 0.71883 0.02023 0.72204 0.0
O440 O 0.61947 0.00568 0.79371 0.0
C441 C 0.70985 0.04691 0.76782 0.0
Co442 Co 0.01606 0.65049 0.77657 0.0
Co443 Co 0.02126 0.69677 0.74994 0.0
C444 C 0.06556 0.71684 0.77734 0.0
O445 O 0.05208 0.68971 0.7831 0.0
O446 O 0.05627 0.72284 0.76448 0.0
C447 C 0.03694 0.62098 0.79816 0.0
O448 O 0.06412 0.64479 0.79471 0.0
C449 C 0.05282 0.73589 0.72291 0.0
C450 C 0.01884 0.74767 0.7133 0.0
C451 C 0.04839 0.75242 0.71105 0.0
N452 N 0.02696 0.72155 0.73168 0.0
N453 N 0.00668 0.72867 0.7259 0.0
C454 C 0.08195 0.7355 0.72661 0.0
H455 H 0.07827 0.71936 0.7365 0.0
H456 H 0.09 0.72836 0.71602 0.0
H457 H 0.10038 0.75918 0.72986 0.0
C458 C 0.01589 0.61456 0.74883 0.0
N459 N 0.01896 0.64056 0.75533 0.0
N460 N 0.0201 0.65927 0.74401 0.0
C461 C 0.01726 0.6454 0.72987 0.0
C462 C 0.0147 0.61673 0.73248 0.0
C463 C 0.01063 0.58695 0.75827 0.0
H464 H 0.99096 0.58024 0.76651 0.0
H465 H 0.03147 0.59314 0.76552 0.0
H466 H 0.00561 0.56695 0.75058 0.0
O467 O 0.97885 0.65411 0.77936 0.0
O468 O 0.98195 0.6871 0.76073 0.0
H469 H -2e-05 0.66826 0.715 0.0
H470 H 0.00839 0.64172 0.70448 0.0
C471 C 0.01591 0.65888 0.71421 0.0
H472 H 0.03927 0.67807 0.7112 0.0
H473 H 0.98469 0.72083 0.73066 0.0
O474 O 0.01298 0.6182 0.79133 0.0
C475 C 0.96805 0.6694 0.77248 0.0
Co476 Co 0.34509 0.36413 0.78015 0.0
Co477 Co 0.29971 0.3225 0.7534 0.0
C478 C 0.27932 0.3465 0.78104 0.0
O479 O 0.30658 0.36286 0.78638 0.0
O480 O 0.27375 0.32942 0.76889 0.0
C481 C 0.37961 0.418 0.79896 0.0
O482 O 0.36209 0.42706 0.79184 0.0
C483 C 0.25482 0.31134 0.72847 0.0
C484 C 0.25994 0.27934 0.71233 0.0
C485 C 0.24517 0.29644 0.71394 0.0
N486 N 0.27508 0.30416 0.73489 0.0
N487 N 0.27763 0.28458 0.72533 0.0
C488 C 0.24453 0.33142 0.73653 0.0
H489 H 0.2347 0.32143 0.74829 0.0
H490 H 0.26478 0.35481 0.73847 0.0
H491 H 0.22636 0.33306 0.72981 0.0
C492 C 0.38166 0.40001 0.75233 0.0
N493 N 0.35576 0.37703 0.75893 0.0
N494 N 0.33648 0.36004 0.74766 0.0
C495 C 0.34948 0.37203 0.73347 0.0
C496 C 0.37855 0.39763 0.73596 0.0
C497 C 0.41009 0.42152 0.76149 0.0
H498 H 0.41385 0.40876 0.77119 0.0
H499 H 0.40685 0.43998 0.76686 0.0
H500 H 0.4309 0.4324 0.7538 0.0
O501 O 0.34029 0.32279 0.78302 0.0
O502 O 0.3108 0.29321 0.76328 0.0
H503 H 0.33204 0.33595 0.71614 0.0
H504 H 0.34806 0.3743 0.70779 0.0
C505 C 0.33451 0.35911 0.71779 0.0
H506 H 0.31121 0.35663 0.71758 0.0
H507 H 0.2923 0.27569 0.72739 0.0
O508 O 0.37693 0.3921 0.79529 0.0
C509 C 0.32695 0.29704 0.77569 0.0
Co510 Co 0.0251 0.33933 0.55458 0.0
Co511 Co 0.98646 0.34794 0.58128 0.0
C512 C 0.01024 0.39004 0.55297 0.0
O513 O 0.02361 0.37603 0.54755 0.0
O514 O 0.99491 0.38152 0.56585 0.0
C515 C 0.05332 0.34056 0.52531 0.0
O516 O 0.03479 0.35021 0.52013 0.0
C517 C 0.97928 0.38347 0.60632 0.0
C518 C 0.93992 0.34844 0.62033 0.0
C519 C 0.9612 0.37982 0.61953 0.0
N520 N 0.96906 0.35568 0.59959 0.0
N521 N 0.94541 0.33479 0.60794 0.0
C522 C 0.00752 0.41224 0.60082 0.0
H523 H 0.02318 0.40629 0.59432 0.0
H524 H 0.02002 0.4275 0.611 0.0
H525 H 0.00048 0.42496 0.59259 0.0
C526 C 0.06261 0.34135 0.5819 0.0
N527 N 0.0392 0.34375 0.57556 0.0
N528 N 0.02309 0.34705 0.58696 0.0
C529 C 0.03586 0.34677 0.60103 0.0
C530 C 0.06131 0.34316 0.59825 0.0
C531 C 0.08525 0.33669 0.57238 0.0
H532 H 0.07312 0.31337 0.56689 0.0
H533 H 0.09466 0.35398 0.56266 0.0
H534 H 0.10464 0.33895 0.57979 0.0
O535 O 0.98375 0.30259 0.5528 0.0
O536 O 0.95544 0.30799 0.57155 0.0
H537 H 0.99698 0.32995 0.61669 0.0
H538 H 0.03307 0.34065 0.62657 0.0
C539 C 0.02214 0.34675 0.61682 0.0
H540 H 0.02541 0.37005 0.61913 0.0
H541 H 0.9333 0.31121 0.60531 0.0
O542 O 0.05285 0.33402 0.53992 0.0
C543 C 0.95821 0.29287 0.56009 0.0
Co544 Co 0.65394 0.682 0.55551 0.0
Co545 Co 0.64524 0.63468 0.58235 0.0
C546 C 0.6041 0.6158 0.55374 0.0
O547 O 0.61832 0.6431 0.54822 0.0
O548 O 0.61201 0.60925 0.56688 0.0
C549 C 0.63462 0.712 0.53365 0.0
O550 O 0.60737 0.6883 0.53707 0.0
C551 C 0.60929 0.59282 0.60756 0.0
C552 C 0.64342 0.58631 0.62114 0.0
C553 C 0.61235 0.57768 0.62065 0.0
N554 N 0.63707 0.60935 0.60064 0.0
N555 N 0.65742 0.60528 0.60873 0.0
C556 C 0.58122 0.59391 0.6023 0.0
H557 H 0.58804 0.61547 0.59555 0.0
H558 H 0.56684 0.5926 0.61263 0.0
H559 H 0.56721 0.574 0.59435 0.0
C560 C 0.65147 0.71722 0.58293 0.0
N561 N 0.64882 0.69134 0.57653 0.0
N562 N 0.64569 0.67196 0.58792 0.0
C563 C 0.64641 0.6851 0.60203 0.0
C564 C 0.65006 0.71417 0.5993 0.0
C565 C 0.65627 0.74465 0.57348 0.0
H566 H 0.63759 0.73714 0.56454 0.0
H567 H 0.65615 0.76273 0.58107 0.0
H568 H 0.6786 0.75449 0.56704 0.0
O569 O 0.69127 0.67812 0.55407 0.0
O570 O 0.68562 0.6444 0.57288 0.0
H571 H 0.65469 0.68913 0.6274 0.0
H572 H 0.62393 0.65227 0.62061 0.0
C573 C 0.64731 0.67171 0.61778 0.0
H574 H 0.66351 0.66263 0.61724 0.0
H575 H 0.68088 0.61573 0.6059 0.0
O576 O 0.65846 0.71476 0.54061 0.0
C577 C 0.701 0.66241 0.5615 0.0
Co578 Co 0.31836 0.9727 0.55565 0.0
Co579 Co 0.36659 0.01209 0.58183 0.0
C580 C 0.38459 0.98821 0.55372 0.0
O581 O 0.35712 0.97549 0.5484 0.0
O582 O 0.39178 0.00307 0.56675 0.0
C583 C 0.28377 0.91765 0.53824 0.0
O584 O 0.30198 0.90994 0.54577 0.0
C585 C 0.41078 0.02348 0.60707 0.0
C586 C 0.40728 0.05786 0.62209 0.0
C587 C 0.4214 0.04008 0.62106 0.0
N588 N 0.39126 0.03105 0.60014 0.0
N589 N 0.38961 0.05197 0.60903 0.0
C590 C 0.4159 0.99801 0.60135 0.0
H591 H 0.39545 0.98067 0.59461 0.0
H592 H 0.42042 0.98649 0.61141 0.0
H593 H 0.43625 0.00792 0.59333 0.0
C594 C 0.28331 0.93646 0.58367 0.0
N595 N 0.30912 0.95918 0.57686 0.0
N596 N 0.32925 0.97554 0.58797 0.0
C597 C 0.31681 0.96348 0.60225 0.0
C598 C 0.28741 0.93832 0.59996 0.0
C599 C 0.25399 0.91579 0.5749 0.0
H600 H 0.25047 0.92888 0.56529 0.0
H601 H 0.25573 0.89646 0.56951 0.0
H602 H 0.23363 0.90594 0.58291 0.0
O603 O 0.3216 0.01338 0.55353 0.0
O604 O 0.357 0.04228 0.57151 0.0
H605 H 0.33674 5e-05 0.61928 0.0
H606 H 0.31832 0.9618 0.62794 0.0
C607 C 0.33241 0.97615 0.61783 0.0
H608 H 0.3549 0.97682 0.61803 0.0
H609 H 0.37547 0.06131 0.60651 0.0
O610 O 0.28618 0.94377 0.54097 0.0
C611 C 0.33822 0.03919 0.56045 0.0
H612 H 0.37034 0.22633 0.05005 0.0
H613 H 0.36203 0.18673 0.03031 0.0
H614 H 0.35346 0.24211 0.99359 0.0
H615 H 0.36247 0.2821 0.01324 0.0
H616 H 0.30334 0.17432 0.99648 0.0
H617 H 0.41407 0.24304 0.99186 0.0
H618 H 0.46704 0.27285 0.0025 0.0
H619 H 0.46045 0.1894 0.02062 0.0
H620 H 0.40723 0.15914 0.01028 0.0
H621 H 0.30067 0.08912 0.92881 0.0
H622 H 0.30988 0.12929 0.94817 0.0
H623 H 0.35311 0.09378 0.97958 0.0
H624 H 0.34615 0.05527 0.9597 0.0
H625 H 0.38554 0.15209 0.97984 0.0
H626 H 0.27723 0.08239 0.98548 0.0
H627 H 0.22302 0.0501 0.97694 0.0
H628 H 0.22244 0.13076 0.95977 0.0
H629 H 0.27681 0.1635 0.96801 0.0
C630 C 0.36675 0.23 0.03776 0.0
C631 C 0.36687 0.25705 0.0331 0.0
C632 C 0.36209 0.20749 0.02653 0.0
C633 C 0.35707 0.21158 0.01056 0.0
C634 C 0.35726 0.23862 0.00589 0.0
C635 C 0.36255 0.26142 0.01706 0.0
C636 C 0.35123 0.18738 0.99878 0.0
C637 C 0.32131 0.16962 0.99262 0.0
C638 C 0.37453 0.18073 0.99429 0.0
C639 C 0.40655 0.19888 0.00046 0.0
C640 C 0.4238 0.23109 0.99825 0.0
C641 C 0.4539 0.24806 0.0042 0.0
C642 C 0.46707 0.23304 0.01228 0.0
C643 C 0.4502 0.20101 0.01439 0.0
C644 C 0.42008 0.18393 0.00848 0.0
C645 C 0.31223 0.09002 0.93984 0.0
C646 C 0.32243 0.06891 0.94282 0.0
C647 C 0.31717 0.11274 0.95098 0.0
C648 C 0.33171 0.1143 0.96551 0.0
C649 C 0.34172 0.09304 0.96852 0.0
C650 C 0.33734 0.07073 0.95724 0.0
C651 C 0.3374 0.13867 0.97736 0.0
C652 C 0.36737 0.15656 0.9836 0.0
C653 C 0.31391 0.14496 0.98219 0.0
C654 C 0.2812 0.12535 0.97722 0.0
C655 C 0.26562 0.09321 0.97977 0.0
C656 C 0.23485 0.07484 0.975 0.0
C657 C 0.21932 0.08836 0.96778 0.0
C658 C 0.23451 0.12031 0.96534 0.0
C659 C 0.2653 0.13879 0.97007 0.0
H660 H 0.1955 0.0741 0.9641 0.0
H661 H 0.49038 0.24622 0.01686 0.0
H662 H 0.70329 0.07724 0.01366 0.0
H663 H 0.74184 0.10817 0.99335 0.0
H664 H 0.7981 0.17435 0.02907 0.0
H665 H 0.76004 0.14311 0.04944 0.0
H666 H 0.78709 0.1979 0.99716 0.0
H667 H 0.82094 0.13086 0.02152 0.0
H668 H 0.81155 0.07951 0.0298 0.0
H669 H 0.79122 0.04763 0.98162 0.0
H670 H 0.79998 0.0987 0.97311 0.0
H671 H 0.93004 0.28715 0.95955 0.0
H672 H 0.88912 0.25588 0.97843 0.0
H673 H 0.85789 0.17642 0.94783 0.0
H674 H 0.90062 0.20718 0.92958 0.0
H675 H 0.85296 0.1576 0.97612 0.0
H676 H 0.82091 0.22152 0.95035 0.0
H677 H 0.82495 0.2698 0.94034 0.0
H678 H 0.83535 0.30417 0.98795 0.0
H679 H 0.83181 0.25626 0.99825 0.0
C680 C 0.72376 0.09857 0.01709 0.0
C681 C 0.729 0.1078 0.03305 0.0
C682 C 0.74568 0.11611 0.00554 0.0
C683 C 0.77273 0.1434 0.00979 0.0
C684 C 0.77731 0.15334 0.02562 0.0
C685 C 0.75574 0.13547 0.03721 0.0
C686 C 0.79708 0.16076 0.9979 0.0
C687 C 0.80177 0.18938 0.99263 0.0
C688 C 0.81527 0.14889 0.99165 0.0
C689 C 0.81079 0.11847 0.99671 0.0
C690 C 0.81423 0.11283 0.01271 0.0
C691 C 0.80906 0.08379 0.01745 0.0
C692 C 0.80072 0.06029 0.00625 0.0
C693 C 0.79765 0.06584 0.99028 0.0
C694 C 0.80273 0.09483 0.9855 0.0
C695 C 0.91491 0.26282 0.95705 0.0
C696 C 0.91866 0.24947 0.94319 0.0
C697 C 0.89112 0.24507 0.96771 0.0
C698 C 0.86987 0.21388 0.96442 0.0
C699 C 0.87385 0.20043 0.95063 0.0
C700 C 0.89812 0.21804 0.94016 0.0
C701 C 0.84359 0.19536 0.97537 0.0
C702 C 0.83837 0.16635 0.9805 0.0
C703 C 0.82436 0.20657 0.98119 0.0
C704 C 0.82636 0.2354 0.97506 0.0
C705 C 0.82427 0.23946 0.95868 0.0
C706 C 0.82644 0.26675 0.95295 0.0
C707 C 0.83047 0.29007 0.9635 0.0
C708 C 0.83226 0.2861 0.9798 0.0
C709 C 0.83014 0.25887 0.98559 0.0
H710 H 0.83215 0.31118 0.95904 0.0
H711 H 0.7967 0.03781 0.00993 0.0
H712 H 0.84796 0.58581 0.03831 0.0
H713 H 0.81637 0.59421 0.01887 0.0
H714 H 0.89583 0.68135 0.00566 0.0
H715 H 0.9271 0.6732 0.02528 0.0
H716 H 0.84833 0.68882 0.00858 0.0
H717 H 0.8669 0.61476 0.98207 0.0
H718 H 0.86754 0.566 0.9789 0.0
H719 H 0.76884 0.51422 0.98429 0.0
H720 H 0.76765 0.56269 0.9877 0.0
H721 H 0.79137 0.711 0.93503 0.0
H722 H 0.82102 0.7002 0.95473 0.0
H723 H 0.73617 0.62515 0.97349 0.0
H724 H 0.7065 0.63618 0.95389 0.0
H725 H 0.78471 0.61086 0.96794 0.0
H726 H 0.76755 0.68696 0.99371 0.0
H727 H 0.76846 0.73666 0.99566 0.0
H728 H 0.8672 0.78573 0.99026 0.0
H729 H 0.86682 0.73628 0.98802 0.0
C730 C 0.85857 0.60668 0.03119 0.0
C731 C 0.88972 0.62913 0.03344 0.0
C732 C 0.8406 0.61143 0.02006 0.0
C733 C 0.85375 0.63836 0.01071 0.0
C734 C 0.88507 0.66054 0.01282 0.0
C735 C 0.90289 0.65597 0.02409 0.0
C736 C 0.83485 0.64382 0.99894 0.0
C737 C 0.83476 0.67189 0.99958 0.0
C738 C 0.81659 0.62152 0.98736 0.0
C739 C 0.81723 0.59234 0.9853 0.0
C740 C 0.84536 0.59297 0.9827 0.0
C741 C 0.84581 0.56538 0.98084 0.0
C742 C 0.81826 0.53703 0.98144 0.0
C743 C 0.79017 0.5362 0.98386 0.0
C744 C 0.78959 0.56372 0.98574 0.0
C745 C 0.77918 0.69229 0.94342 0.0
C746 C 0.74681 0.67459 0.94317 0.0
C747 C 0.79603 0.68616 0.95462 0.0
C748 C 0.7807 0.662 0.96558 0.0
C749 C 0.74835 0.64391 0.96513 0.0
C750 C 0.73148 0.65031 0.95406 0.0
C751 C 0.79852 0.65581 0.97759 0.0
C752 C 0.79832 0.62766 0.97699 0.0
C753 C 0.81681 0.67815 0.98907 0.0
C754 C 0.81712 0.70791 0.99054 0.0
C755 C 0.78943 0.70835 0.9928 0.0
C756 C 0.78985 0.73648 0.99398 0.0
C757 C 0.81786 0.76434 0.99304 0.0
C758 C 0.84552 0.76413 0.99096 0.0
C759 C 0.84521 0.73606 0.98974 0.0
H760 H 0.81814 0.7861 0.99396 0.0
H761 H 0.81866 0.5157 0.98 0.0
H762 H 0.71897 0.95732 0.04493 0.0
H763 H 0.70984 0.91659 0.02582 0.0
H764 H 0.61832 0.85911 0.04518 0.0
H765 H 0.62823 0.89935 0.06476 0.0
H766 H 0.64219 0.82505 0.04007 0.0
H767 H 0.63228 0.8992 0.00887 0.0
H768 H 0.64765 0.95085 0.99814 0.0
H769 H 0.72747 0.95524 0.97635 0.0
H770 H 0.71284 0.90378 0.98715 0.0
H771 H 0.58921 0.72566 0.97043 0.0
H772 H 0.59528 0.76401 0.99051 0.0
H773 H 0.69436 0.80888 0.98558 0.0
H774 H 0.68853 0.76972 0.96629 0.0
H775 H 0.66373 0.84828 0.98272 0.0
H776 H 0.67189 0.77292 0.01578 0.0
H777 H 0.65333 0.72047 0.02631 0.0
H778 H 0.57113 0.71752 0.0438 0.0
H779 H 0.58903 0.76982 0.03315 0.0
C780 C 0.69698 0.93592 0.04501 0.0
C781 C 0.67423 0.93122 0.05616 0.0
C782 C 0.69165 0.91277 0.03408 0.0
C783 C 0.66315 0.88492 0.03386 0.0
C784 C 0.64046 0.88034 0.04509 0.0
C785 C 0.64603 0.90328 0.05621 0.0
C786 C 0.65717 0.86043 0.02207 0.0
C787 C 0.64647 0.83013 0.02751 0.0
C788 C 0.66293 0.86695 0.00566 0.0
C789 C 0.67159 0.89773 0.99894 0.0
C790 C 0.65321 0.91125 0.00187 0.0
C791 C 0.66178 0.94049 0.99577 0.0
C792 C 0.68856 0.95635 0.9866 0.0
C793 C 0.70676 0.94294 0.98347 0.0
C794 C 0.69832 0.91372 0.98956 0.0
C795 C 0.61225 0.74365 0.97371 0.0
C796 C 0.63838 0.74555 0.96634 0.0
C797 C 0.61567 0.7655 0.98511 0.0
C798 C 0.64525 0.78947 0.98925 0.0
C799 C 0.67135 0.79085 0.98226 0.0
C800 C 0.66796 0.76872 0.97112 0.0
C801 C 0.64912 0.81334 0.00081 0.0
C802 C 0.65933 0.8434 0.99529 0.0
C803 C 0.64234 0.8065 0.01706 0.0
C804 C 0.63161 0.77511 0.02349 0.0
C805 C 0.64971 0.76095 0.02172 0.0
C806 C 0.63934 0.73128 0.02775 0.0
C807 C 0.61101 0.71562 0.03568 0.0
C808 C 0.59304 0.72965 0.03763 0.0
C809 C 0.60329 0.75931 0.03161 0.0
H810 H 0.60304 0.69266 0.04034 0.0
H811 H 0.69517 0.979 0.9819 0.0
H812 H 0.281 0.8674 0.9722 0.0
H813 H 0.24157 0.83478 0.99164 0.0
H814 H 0.18577 0.8745 0.97756 0.0
H815 H 0.22594 0.90843 0.95898 0.0
H816 H 0.18463 0.87012 0.00785 0.0
H817 H 0.17004 0.80006 0.96543 0.0
H818 H 0.18542 0.77309 0.94615 0.0
H819 H 0.21125 0.73354 0.98428 0.0
H820 H 0.1964 0.76062 0.00379 0.0
H821 H 0.04135 0.75497 0.04084 0.0
H822 H 0.08168 0.78601 0.0213 0.0
H823 H 0.14313 0.76002 0.0436 0.0
H824 H 0.10295 0.72927 0.0632 0.0
H825 H 0.14141 0.75651 0.00954 0.0
H826 H 0.15421 0.827 0.05178 0.0
H827 H 0.13644 0.85296 0.07037 0.0
H828 H 0.11113 0.89076 0.03122 0.0
H829 H 0.12829 0.86458 0.01238 0.0
C830 C 0.26023 0.86901 0.97325 0.0
C831 C 0.25593 0.88951 0.96362 0.0
C832 C 0.23763 0.85025 0.98427 0.0
C833 C 0.21027 0.85156 0.98578 0.0
C834 C 0.20644 0.87271 0.97647 0.0
C835 C 0.22917 0.89171 0.96562 0.0
C836 C 0.18584 0.83143 0.99726 0.0
C837 C 0.17494 0.84524 0.00804 0.0
C838 C 0.17353 0.79899 0.99777 0.0
C839 C 0.18241 0.78262 0.98606 0.0
C840 C 0.17922 0.7858 0.9697 0.0
C841 C 0.1878 0.77046 0.95873 0.0
C842 C 0.19938 0.75168 0.96398 0.0
C843 C 0.20232 0.74813 0.98022 0.0
C844 C 0.1938 0.76345 0.99124 0.0
C845 C 0.06348 0.75591 0.04147 0.0
C846 C 0.0694 0.74023 0.05353 0.0
C847 C 0.08641 0.77358 0.03038 0.0
C848 C 0.11539 0.77542 0.03112 0.0
C849 C 0.12093 0.7589 0.04288 0.0
C850 C 0.09814 0.74157 0.05407 0.0
C851 C 0.14022 0.79527 0.01989 0.0
C852 C 0.15119 0.7814 0.00924 0.0
C853 C 0.15233 0.8276 0.01936 0.0
C854 C 0.14225 0.84357 0.03067 0.0
C855 C 0.14461 0.84062 0.04713 0.0
C856 C 0.13469 0.85542 0.05772 0.0
C857 C 0.12259 0.87344 0.05198 0.0
C858 C 0.12047 0.87676 0.03564 0.0
C859 C 0.1303 0.86196 0.02501 0.0
H860 H 0.11493 0.88489 0.06019 0.0
H861 H 0.20601 0.73982 0.95547 0.0
H862 H 0.2101 0.28558 0.06195 0.0
H863 H 0.17934 0.29406 0.0419 0.0
H864 H 0.26259 0.37118 0.02309 0.0
H865 H 0.29339 0.36232 0.04295 0.0
H866 H 0.21096 0.38204 0.02916 0.0
H867 H 0.23494 0.31111 0.0027 0.0
H868 H 0.23755 0.26327 0.00038 0.0
H869 H 0.13885 0.20889 0.00512 0.0
H870 H 0.1357 0.25644 0.00774 0.0
H871 H 0.14337 0.40515 0.9602 0.0
H872 H 0.17727 0.39815 0.97873 0.0
H873 H 0.10222 0.30706 0.99043 0.0
H874 H 0.06887 0.31373 0.97147 0.0
H875 H 0.15191 0.30418 0.98761 0.0
H876 H 0.12635 0.37238 0.01522 0.0
H877 H 0.12171 0.41884 0.01907 0.0
H878 H 0.22002 0.47662 0.01398 0.0
H879 H 0.2252 0.43049 0.0099 0.0
C880 C 0.22169 0.30419 0.05345 0.0
C881 C 0.25394 0.32315 0.05377 0.0
C882 C 0.20423 0.30901 0.04206 0.0
C883 C 0.2188 0.33316 0.03102 0.0
C884 C 0.25101 0.35242 0.03151 0.0
C885 C 0.26852 0.34728 0.04274 0.0
C886 C 0.20029 0.3383 0.019 0.0
C887 C 0.19836 0.3653 0.01991 0.0
C888 C 0.1833 0.31597 0.00727 0.0
C889 C 0.18512 0.28734 0.00558 0.0
C890 C 0.21382 0.28895 0.0034 0.0
C891 C 0.21539 0.26188 0.002 0.0
C892 C 0.18839 0.23305 0.00264 0.0
C893 C 0.15975 0.23124 0.00465 0.0
C894 C 0.15806 0.25824 0.00608 0.0
C895 C 0.13432 0.38367 0.96673 0.0
C896 C 0.10382 0.35981 0.96436 0.0
C897 C 0.15356 0.37971 0.97737 0.0
C898 C 0.14223 0.35219 0.98615 0.0
C899 C 0.11158 0.32842 0.98376 0.0
C900 C 0.09256 0.33219 0.97294 0.0
C901 C 0.16222 0.34797 0.99776 0.0
C902 C 0.1645 0.32109 0.9968 0.0
C903 C 0.17916 0.37023 0.00961 0.0
C904 C 0.17612 0.398 0.01209 0.0
C905 C 0.14695 0.39501 0.0148 0.0
C906 C 0.14423 0.42128 0.01705 0.0
C907 C 0.17054 0.45067 0.01673 0.0
C908 C 0.19965 0.45384 0.0142 0.0
C909 C 0.2025 0.42764 0.01194 0.0
H910 H 0.16838 0.47098 0.01847 0.0
H911 H 0.18966 0.21212 0.00155 0.0
H912 H 0.99049 0.58535 0.35895 0.0
H913 H 0.98278 0.54495 0.34002 0.0
H914 H 0.0697 0.55352 0.3543 0.0
H915 H 0.07723 0.59372 0.37348 0.0
H916 H 0.017 0.54433 0.3146 0.0
H917 H 0.05816 0.47891 0.35527 0.0
H918 H 0.06233 0.47088 0.38384 0.0
H919 H 0.9869 0.48657 0.39364 0.0
H920 H 0.98196 0.49419 0.36512 0.0
H921 H 0.03661 0.43577 0.26987 0.0
H922 H 0.04575 0.4762 0.28912 0.0
H923 H 0.96281 0.41218 0.31427 0.0
H924 H 0.95358 0.37163 0.2949 0.0
H925 H 0.0112 0.44798 0.33451 0.0
H926 H 0.96045 0.46242 0.28967 0.0
H927 H 0.95352 0.46893 0.26124 0.0
H928 H 0.04154 0.55271 0.2602 0.0
H929 H 0.04925 0.5464 0.28858 0.0
C930 C 0.00777 0.57838 0.35815 0.0
C931 C 0.03406 0.59197 0.36791 0.0
C932 C 0.00354 0.55561 0.34721 0.0
C933 C 0.02545 0.54598 0.34594 0.0
C934 C 0.05234 0.56039 0.35527 0.0
C935 C 0.05669 0.58337 0.36613 0.0
C936 C 0.01963 0.52019 0.33519 0.0
C937 C 0.01584 0.52332 0.31893 0.0
C938 C 0.01759 0.49259 0.34092 0.0
C939 C 0.01995 0.48745 0.35807 0.0
C940 C 0.04239 0.48051 0.36352 0.0
C941 C 0.04489 0.47604 0.37971 0.0
C942 C 0.02496 0.47831 0.39056 0.0
C943 C 0.0024 0.48492 0.38524 0.0
C944 C -0.00024 0.48935 0.36906 0.0
C945 C 0.02037 0.43042 0.27952 0.0
C946 C 0.99421 0.40086 0.28088 0.0
C947 C 0.02563 0.45343 0.2905 0.0
C948 C 0.00475 0.44725 0.30299 0.0
C949 C 0.97916 0.41738 0.30469 0.0
C950 C 0.97388 0.39432 0.29367 0.0
C951 C 0.00908 0.47234 0.31389 0.0
C952 C 0.01253 0.46907 0.33017 0.0
C953 C 0.01038 0.49965 0.30821 0.0
C954 C 0.00554 0.50379 0.29122 0.0
C955 C 0.97842 0.48213 0.28335 0.0
C956 C 0.97435 0.48578 0.26725 0.0
C957 C 0.9971 0.51118 0.25891 0.0
C958 C 0.02395 0.53302 0.26667 0.0
C959 C 0.02818 0.52943 0.28277 0.0
H960 H 0.99391 0.51397 0.24644 0.0
H961 H 0.02696 0.47489 0.40308 0.0
H962 H 0.55895 0.58898 0.26486 0.0
H963 H 0.51964 0.5601 0.28487 0.0
H964 H 0.58829 0.55572 0.31416 0.0
H965 H 0.62725 0.58268 0.2935 0.0
H966 H 0.53848 0.50339 0.31565 0.0
H967 H 0.56043 0.60721 0.32144 0.0
H968 H 0.5677 0.65775 0.31311 0.0
H969 H 0.47282 0.61428 0.29827 0.0
H970 H 0.46509 0.56339 0.3063 0.0
H971 H 0.4489 0.46934 0.38695 0.0
H972 H 0.48838 0.50015 0.36735 0.0
H973 H 0.41818 0.47221 0.33132 0.0
H974 H 0.37853 0.43959 0.35066 0.0
H975 H 0.4691 0.54138 0.33427 0.0
H976 H 0.45045 0.43626 0.32851 0.0
H977 H 0.44545 0.38805 0.33927 0.0
H978 H 0.53842 0.43838 0.35702 0.0
H979 H 0.54376 0.48701 0.34659 0.0
C980 C 0.56551 0.58129 0.27541 0.0
C981 C 0.59605 0.58774 0.27757 0.0
C982 C 0.54313 0.56525 0.28699 0.0
C983 C 0.55105 0.5562 0.30119 0.0
C984 C 0.58159 0.56252 0.30333 0.0
C985 C 0.60386 0.57807 0.29159 0.0
C986 C 0.52738 0.53985 0.3137 0.0
C987 C 0.52366 0.51202 0.31983 0.0
C988 C 0.50776 0.55085 0.31916 0.0
C989 C 0.51227 0.58143 0.31434 0.0
C990 C 0.54117 0.60839 0.31629 0.0
C991 C 0.54537 0.63711 0.31164 0.0
C992 C 0.52076 0.63921 0.30513 0.0
C993 C 0.49187 0.61261 0.3033 0.0
C994 C 0.48757 0.58382 0.30791 0.0
C995 C 0.4418 0.46899 0.37481 0.0
C996 C 0.41067 0.45083 0.37023 0.0
C997 C 0.46439 0.48709 0.36369 0.0
C998 C 0.45612 0.48805 0.34791 0.0
C999 C 0.42491 0.47157 0.34347 0.0
C1000 C 0.40236 0.45298 0.35453 0.0
C1001 C 0.48029 0.50514 0.33591 0.0
C1002 C 0.48408 0.53302 0.32999 0.0
C1003 C 0.5004 0.49458 0.33089 0.0
C1004 C 0.49737 0.4653 0.33693 0.0
C1005 C 0.46972 0.43709 0.33484 0.0
C1006 C 0.46684 0.40968 0.34085 0.0
C1007 C 0.49157 0.41016 0.34886 0.0
C1008 C 0.51927 0.43805 0.35083 0.0
C1009 C 0.52224 0.46553 0.34486 0.0
H1010 H 0.4893 0.38892 0.35351 0.0
H1011 H 0.52405 0.66147 0.30153 0.0
H1012 H 0.51922 0.95471 0.38273 0.0
H1013 H 0.48703 0.96276 0.36344 0.0
H1014 H 0.55365 0.97921 0.3267 0.0
H1015 H 0.58563 0.97068 0.34588 0.0
H1016 H 0.5335 0.02566 0.33026 0.0
H1017 H 0.49357 0.91562 0.32464 0.0
H1018 H 0.47126 0.86229 0.33467 0.0
H1019 H 0.39298 0.86606 0.35298 0.0
H1020 H 0.41507 0.91962 0.34326 0.0
H1021 H 0.45055 0.02942 0.26314 0.0
H1022 H 0.48178 0.01992 0.28218 0.0
H1023 H 0.40288 0.97429 0.31337 0.0
H1024 H 0.37107 0.9815 0.29374 0.0
H1025 H 0.4297 0.94279 0.3132 0.0
H1026 H 0.46661 0.05063 0.31989 0.0
H1027 H 0.48772 0.10497 0.3118 0.0
H1028 H 0.56968 0.10758 0.29419 0.0
H1029 H 0.54887 0.05309 0.30199 0.0
C1030 C 0.52688 0.95998 0.37052 0.0
C1031 C 0.55489 0.96229 0.36575 0.0
C1032 C 0.5085 0.96446 0.35955 0.0
C1033 C 0.51809 0.97164 0.34371 0.0
C1034 C 0.54597 0.97375 0.3389 0.0
C1035 C 0.56406 0.96872 0.34981 0.0
C1036 C 0.49926 0.97747 0.3322 0.0
C1037 C 0.51095 0.00754 0.32633 0.0
C1038 C 0.46949 0.95397 0.32759 0.0
C1039 C 0.45614 0.92174 0.33338 0.0
C1040 C 0.47175 0.90518 0.33094 0.0
C1041 C 0.45911 0.87489 0.33654 0.0
C1042 C 0.43076 0.86082 0.3445 0.0
C1043 C 0.41496 0.877 0.34684 0.0
C1044 C 0.42751 0.90731 0.34128 0.0
C1045 C 0.4399 0.01726 0.27404 0.0
C1046 C 0.40849 0.00649 0.27704 0.0
C1047 C 0.45784 0.01215 0.28501 0.0
C1048 C 0.44491 0.9969 0.29941 0.0
C1049 C 0.4135 0.98625 0.30242 0.0
C1050 C 0.39542 0.99077 0.29129 0.0
C1051 C 0.46381 0.99121 0.31111 0.0
C1052 C 0.45218 0.9611 0.31707 0.0
C1053 C 0.49341 0.01489 0.31608 0.0
C1054 C 0.50604 0.04768 0.31139 0.0
C1055 C 0.48903 0.06272 0.31419 0.0
C1056 C 0.50096 0.09356 0.30967 0.0
C1057 C 0.52999 0.10969 0.30245 0.0
C1058 C 0.54718 0.09504 0.29977 0.0
C1059 C 0.53534 0.06419 0.30425 0.0
H1060 H 0.53919 0.13357 0.29896 0.0
H1061 H 0.42101 0.83736 0.34882 0.0
H1062 H 0.37425 0.25283 0.39607 0.0
H1063 H 0.36391 0.21252 0.37662 0.0
H1064 H 0.30114 0.23393 0.35193 0.0
H1065 H 0.3095 0.27238 0.37221 0.0
H1066 H 0.2764 0.17617 0.35269 0.0
H1067 H 0.37718 0.25526 0.33794 0.0
H1068 H 0.4321 0.29454 0.3415 0.0
H1069 H 0.45211 0.22406 0.3562 0.0
H1070 H 0.3972 0.18438 0.35294 0.0
H1071 H 0.28255 0.09712 0.28125 0.0
H1072 H 0.29161 0.13897 0.2997 0.0
H1073 H 0.31683 0.09541 0.33634 0.0
H1074 H 0.30701 0.05314 0.31808 0.0
H1075 H 0.36061 0.16534 0.32791 0.0
H1076 H 0.25555 0.08712 0.34289 0.0
H1077 H 0.20078 0.05046 0.33687 0.0
H1078 H 0.19018 0.12456 0.31809 0.0
H1079 H 0.24506 0.1616 0.32379 0.0
C1080 C 0.35824 0.24884 0.38648 0.0
C1081 C 0.34297 0.26594 0.3855 0.0
C1082 C 0.35259 0.22606 0.37525 0.0
C1083 C 0.33223 0.22054 0.36254 0.0
C1084 C 0.31709 0.23781 0.36154 0.0
C1085 C 0.32219 0.26009 0.37299 0.0
C1086 C 0.32587 0.19599 0.35068 0.0
C1087 C 0.29494 0.17422 0.34713 0.0
C1088 C 0.3499 0.1931 0.3434 0.0
C1089 C 0.383 0.21687 0.34532 0.0
C1090 C 0.39325 0.24815 0.34203 0.0
C1091 C 0.42438 0.27049 0.34398 0.0
C1092 C 0.44557 0.26181 0.3491 0.0
C1093 C 0.43567 0.23075 0.35225 0.0
C1094 C 0.40454 0.20832 0.35033 0.0
C1095 C 0.28986 0.09649 0.29327 0.0
C1096 C 0.29419 0.07212 0.29831 0.0
C1097 C 0.29499 0.12028 0.30376 0.0
C1098 C 0.30496 0.12018 0.3193 0.0
C1099 C 0.30918 0.09579 0.32436 0.0
C1100 C 0.30341 0.07168 0.31399 0.0
C1101 C 0.31144 0.14579 0.33024 0.0
C1102 C 0.34232 0.16767 0.33352 0.0
C1103 C 0.28747 0.14927 0.33693 0.0
C1104 C 0.25448 0.12704 0.33359 0.0
C1105 C 0.24162 0.09554 0.33733 0.0
C1106 C 0.21054 0.0747 0.33401 0.0
C1107 C 0.19203 0.08515 0.32705 0.0
C1108 C 0.20455 0.11648 0.32345 0.0
C1109 C 0.23563 0.13741 0.32673 0.0
H1110 H 0.16798 0.06899 0.3245 0.0
H1111 H 0.46967 0.27913 0.35061 0.0
H1112 H 0.90136 0.18613 0.28262 0.0
H1113 H 0.86052 0.15455 0.30161 0.0
H1114 H 0.91102 0.22075 0.33857 0.0
H1115 H 0.95275 0.25128 0.31971 0.0
H1116 H 0.88566 0.16733 0.35094 0.0
H1117 H 0.84802 0.2181 0.31748 0.0
H1118 H 0.83576 0.23441 0.2922 0.0
H1119 H 0.77184 0.13967 0.28051 0.0
H1120 H 0.78413 0.12274 0.30561 0.0
H1121 H 0.75161 0.12142 0.3999 0.0
H1122 H 0.79307 0.15249 0.38097 0.0
H1123 H 0.76338 0.07228 0.35125 0.0
H1124 H 0.72302 0.04077 0.37052 0.0
H1125 H 0.7773 0.13371 0.33579 0.0
H1126 H 0.81867 0.08545 0.37084 0.0
H1127 H 0.83057 0.07323 0.39735 0.0
H1128 H 0.8872 0.17011 0.40742 0.0
H1129 H 0.87516 0.18289 0.38105 0.0
C1130 C 0.90376 0.19362 0.29486 0.0
C1131 C 0.92989 0.22108 0.29978 0.0
C1132 C 0.88037 0.17577 0.30567 0.0
C1133 C 0.8822 0.18568 0.32145 0.0
C1134 C 0.90894 0.21266 0.32646 0.0
C1135 C 0.93274 0.23009 0.31572 0.0
C1136 C 0.85599 0.16828 0.3326 0.0
C1137 C 0.86207 0.16037 0.34763 0.0
C1138 C 0.82503 0.15903 0.32838 0.0
C1139 C 0.81721 0.16914 0.31337 0.0
C1140 C 0.83148 0.20073 0.30948 0.0
C1141 C 0.82453 0.21008 0.29518 0.0
C1142 C 0.80308 0.18808 0.28474 0.0
C1143 C 0.78848 0.15668 0.2886 0.0
C1144 C 0.79542 0.14719 0.30287 0.0
C1145 C 0.75398 0.11047 0.38933 0.0
C1146 C 0.73411 0.07874 0.38664 0.0
C1147 C 0.7775 0.12822 0.37853 0.0
C1148 C 0.78114 0.11458 0.36477 0.0
C1149 C 0.7607 0.08317 0.36177 0.0
C1150 C 0.73758 0.06529 0.37273 0.0
C1151 C 0.80719 0.13275 0.35386 0.0
C1152 C 0.80099 0.14082 0.33896 0.0
C1153 C 0.83805 0.14282 0.35833 0.0
C1154 C 0.84575 0.13512 0.37405 0.0
C1155 C 0.83344 0.10414 0.37876 0.0
C1156 C 0.84024 0.09712 0.39375 0.0
C1157 C 0.85956 0.12088 0.40408 0.0
C1158 C 0.8722 0.15172 0.39941 0.0
C1159 C 0.86541 0.15887 0.38444 0.0
H1160 H 0.86479 0.1154 0.41568 0.0
H1161 H 0.79773 0.19537 0.27367 0.0
H1162 H 0.90555 0.6164 0.3763 0.0
H1163 H 0.87552 0.62668 0.35674 0.0
H1164 H 0.9048 0.71536 0.3786 0.0
H1165 H 0.9333 0.70406 0.39869 0.0
H1166 H 0.84827 0.69185 0.37184 0.0
H1167 H 0.93517 0.70562 0.34205 0.0
H1168 H 0.97314 0.69244 0.33143 0.0
H1169 H 0.90056 0.61396 0.30728 0.0
H1170 H 0.86206 0.62638 0.31797 0.0
H1171 H 0.80514 0.74747 0.30194 0.0
H1172 H 0.83769 0.74114 0.32163 0.0
H1173 H 0.78231 0.64215 0.31718 0.0
H1174 H 0.7485 0.64803 0.2985 0.0
H1175 H 0.85441 0.67453 0.31431 0.0
H1176 H 0.76792 0.66231 0.34681 0.0
H1177 H 0.73296 0.67983 0.357 0.0
H1178 H 0.81076 0.76256 0.37511 0.0
H1179 H 0.84623 0.7457 0.3648 0.0
C1180 C 0.90545 0.63803 0.37684 0.0
C1181 C 0.92151 0.65948 0.38888 0.0
C1182 C 0.88854 0.64405 0.36562 0.0
C1183 C 0.88831 0.6721 0.36596 0.0
C1184 C 0.90458 0.69357 0.37805 0.0
C1185 C 0.92089 0.68721 0.38947 0.0
C1186 C 0.8705 0.67869 0.35397 0.0
C1187 C 0.85008 0.68849 0.35925 0.0
C1188 C 0.87257 0.67422 0.3375 0.0
C1189 C 0.89569 0.66679 0.33093 0.0
C1190 C 0.92727 0.68543 0.33456 0.0
C1191 C 0.94889 0.67811 0.32852 0.0
C1192 C 0.93926 0.65234 0.31871 0.0
C1193 C 0.90798 0.63389 0.31489 0.0
C1194 C 0.88625 0.64108 0.32093 0.0
C1195 C 0.7998 0.72432 0.30518 0.0
C1196 C 0.77478 0.69827 0.29811 0.0
C1197 C 0.81849 0.7208 0.31637 0.0
C1198 C 0.81258 0.6912 0.3206 0.0
C1199 C 0.78751 0.66518 0.31378 0.0
C1200 C 0.76845 0.66866 0.30287 0.0
C1201 C 0.83229 0.68722 0.33231 0.0
C1202 C 0.853 0.67801 0.32692 0.0
C1203 C 0.83105 0.6929 0.34861 0.0
C1204 C 0.80973 0.70294 0.35486 0.0
C1205 C 0.77759 0.68439 0.35281 0.0
C1206 C 0.75768 0.69416 0.35864 0.0
C1207 C 0.76963 0.72234 0.36665 0.0
C1208 C 0.80153 0.74077 0.36888 0.0
C1209 C 0.82154 0.73111 0.36305 0.0
H1210 H 0.75418 0.72986 0.37116 0.0
H1211 H 0.95603 0.64671 0.31405 0.0
H1212 H 0.61244 0.71093 0.62342 0.0
H1213 H 0.62184 0.75161 0.64274 0.0
H1214 H 0.71046 0.81164 0.62112 0.0
H1215 H 0.70101 0.77106 0.60181 0.0
H1216 H 0.71197 0.81072 0.65468 0.0
H1217 H 0.65406 0.82338 0.61253 0.0
H1218 H 0.61012 0.80568 0.59407 0.0
H1219 H 0.54756 0.7815 0.63341 0.0
H1220 H 0.59111 0.7986 0.65212 0.0
H1221 H 0.74253 0.95161 0.69108 0.0
H1222 H 0.73486 0.91162 0.6718 0.0
H1223 H 0.6399 0.85634 0.68691 0.0
H1224 H 0.64703 0.89696 0.70541 0.0
H1225 H 0.64227 0.85473 0.65639 0.0
H1226 H 0.69826 0.84059 0.6987 0.0
H1227 H 0.74097 0.85617 0.71777 0.0
H1228 H 0.80551 0.88067 0.67933 0.0
H1229 H 0.76322 0.86561 0.66001 0.0
C1230 C 0.63389 0.73284 0.62288 0.0
C1231 C 0.6559 0.73821 0.61114 0.0
C1232 C 0.63922 0.75598 0.63385 0.0
C1233 C 0.66674 0.78465 0.63325 0.0
C1234 C 0.68908 0.78969 0.62174 0.0
C1235 C 0.68361 0.76667 0.6107 0.0
C1236 C 0.67199 0.80966 0.64441 0.0
C1237 C 0.697 0.82065 0.65496 0.0
C1238 C 0.65198 0.82201 0.64496 0.0
C1239 C 0.62581 0.81199 0.63373 0.0
C1240 C 0.63091 0.81405 0.61725 0.0
C1241 C 0.60608 0.80417 0.60674 0.0
C1242 C 0.57606 0.7924 0.61256 0.0
C1243 C 0.57082 0.79058 0.62891 0.0
C1244 C 0.59557 0.80038 0.63948 0.0
C1245 C 0.72009 0.93084 0.69028 0.0
C1246 C 0.69572 0.92679 0.70016 0.0
C1247 C 0.71577 0.90794 0.67935 0.0
C1248 C 0.687 0.88058 0.67818 0.0
C1249 C 0.66241 0.87701 0.68774 0.0
C1250 C 0.66666 0.90001 0.69851 0.0
C1251 C 0.68223 0.85582 0.66684 0.0
C1252 C 0.65731 0.84487 0.65619 0.0
C1253 C 0.70215 0.84328 0.66633 0.0
C1254 C 0.72762 0.85227 0.67791 0.0
C1255 C 0.7216 0.84952 0.69431 0.0
C1256 C 0.74572 0.85822 0.70517 0.0
C1257 C 0.77595 0.86948 0.69977 0.0
C1258 C 0.78209 0.87199 0.6835 0.0
C1259 C 0.75805 0.86335 0.67259 0.0
H1260 H 0.7946 0.8762 0.70819 0.0
H1261 H 0.55686 0.78476 0.6044 0.0
H1262 H 0.25678 0.87603 0.60359 0.0
H1263 H 0.21533 0.84519 0.62251 0.0
H1264 H 0.2229 0.92879 0.6418 0.0
H1265 H 0.26491 0.9596 0.62312 0.0
H1266 H 0.21509 0.89013 0.66496 0.0
H1267 H 0.16543 0.88296 0.61551 0.0
H1268 H 0.15609 0.8733 0.58681 0.0
H1269 H 0.13116 0.77843 0.59372 0.0
H1270 H 0.1409 0.78765 0.62244 0.0
H1271 H 0.06911 0.81302 0.70468 0.0
H1272 H 0.10888 0.84584 0.68527 0.0
H1273 H 0.11647 0.76738 0.67014 0.0
H1274 H 0.07686 0.73466 0.68951 0.0
H1275 H 0.11518 0.80494 0.64483 0.0
H1276 H 0.16748 0.81434 0.69456 0.0
H1277 H 0.17639 0.8252 0.7232 0.0
H1278 H 0.19497 0.91792 0.71538 0.0
H1279 H 0.18562 0.90742 0.6867 0.0
C1280 C 0.24967 0.88769 0.61199 0.0
C1281 C 0.26391 0.92002 0.61203 0.0
C1282 C 0.22594 0.87014 0.62271 0.0
C1283 C 0.21565 0.88466 0.6334 0.0
C1284 C 0.23043 0.91709 0.63366 0.0
C1285 C 0.25439 0.93465 0.62304 0.0
C1286 C 0.18918 0.86598 0.64414 0.0
C1287 C 0.19311 0.87182 0.66051 0.0
C1288 C 0.16055 0.84186 0.63837 0.0
C1289 C 0.15415 0.83607 0.62113 0.0
C1290 C 0.15814 0.86008 0.6109 0.0
C1291 C 0.15278 0.85468 0.59463 0.0
C1292 C 0.1431 0.82529 0.58844 0.0
C1293 C 0.13869 0.8012 0.59853 0.0
C1294 C 0.14411 0.80649 0.61481 0.0
C1295 C 0.07919 0.80287 0.6971 0.0
C1296 C 0.07056 0.77162 0.69871 0.0
C1297 C 0.10185 0.82155 0.68609 0.0
C1298 C 0.11575 0.80902 0.67641 0.0
C1299 C 0.10609 0.77746 0.67756 0.0
C1300 C 0.08377 0.75892 0.6887 0.0
C1301 C 0.1413 0.82902 0.66555 0.0
C1302 C 0.13715 0.82341 0.64919 0.0
C1303 C 0.16958 0.85356 0.6713 0.0
C1304 C 0.17551 0.85999 0.68851 0.0
C1305 C 0.1732 0.83696 0.69896 0.0
C1306 C 0.17837 0.84306 0.7152 0.0
C1307 C 0.18616 0.87221 0.72111 0.0
C1308 C 0.18888 0.89534 0.71079 0.0
C1309 C 0.18365 0.88933 0.69454 0.0
H1310 H 0.19016 0.87689 0.73368 0.0
H1311 H 0.13897 0.82116 0.57583 0.0
H1312 H 0.06782 0.29265 0.60123 0.0
H1313 H 0.09936 0.28411 0.62069 0.0
H1314 H 0.12881 0.37388 0.64104 0.0
H1315 H 0.09688 0.38227 0.62165 0.0
H1316 H 0.17772 0.36003 0.63461 0.0
H1317 H 0.07818 0.31604 0.66027 0.0
H1318 H 0.02165 0.282 0.66188 0.0
H1319 H 0.03195 0.20237 0.65527 0.0
H1320 H 0.08856 0.23601 0.65336 0.0
H1321 H 0.24806 0.35024 0.70469 0.0
H1322 H 0.21627 0.3569 0.68498 0.0
H1323 H 0.17167 0.25962 0.67372 0.0
H1324 H 0.20195 0.25247 0.6945 0.0
H1325 H 0.13017 0.27613 0.67465 0.0
H1326 H 0.22857 0.31785 0.64935 0.0
H1327 H 0.28517 0.35047 0.64688 0.0
H1328 H 0.27777 0.43217 0.6513 0.0
H1329 H 0.22113 0.40003 0.654 0.0
C1330 C 0.08108 0.3105 0.60987 0.0
C1331 C 0.08015 0.33811 0.61003 0.0
C1332 C 0.09896 0.30559 0.62096 0.0
C1333 C 0.11631 0.32836 0.63228 0.0
C1334 C 0.11558 0.3561 0.63236 0.0
C1335 C 0.09735 0.36082 0.62139 0.0
C1336 C 0.13517 0.32311 0.64405 0.0
C1337 C 0.16741 0.34196 0.64351 0.0
C1338 C 0.12161 0.29883 0.65524 0.0
C1339 C 0.08759 0.27857 0.6565 0.0
C1340 C 0.06838 0.29129 0.65901 0.0
C1341 C 0.03632 0.27207 0.66001 0.0
C1342 C 0.02321 0.24004 0.65864 0.0
C1343 C 0.04214 0.22718 0.65631 0.0
C1344 C 0.07421 0.24631 0.65528 0.0
C1345 C 0.23082 0.33008 0.69837 0.0
C1346 C 0.22654 0.30059 0.70158 0.0
C1347 C 0.21314 0.33404 0.68681 0.0
C1348 C 0.19173 0.30883 0.6777 0.0
C1349 C 0.18794 0.27942 0.68062 0.0
C1350 C 0.2053 0.27535 0.69243 0.0
C1351 C 0.17299 0.3132 0.66536 0.0
C1352 C 0.14068 0.29416 0.66574 0.0
C1353 C 0.18657 0.33706 0.65386 0.0
C1354 C 0.2206 0.3565 0.65201 0.0
C1355 C 0.23902 0.34277 0.64988 0.0
C1356 C 0.27111 0.36117 0.64843 0.0
C1357 C 0.28507 0.39337 0.64897 0.0
C1358 C 0.26693 0.40723 0.6509 0.0
C1359 C 0.23482 0.38892 0.65237 0.0
H1360 H 0.30992 0.40758 0.64788 0.0
H1361 H 0.99838 0.22519 0.65942 0.0
H1362 H 0.9544 0.3745 0.6516 0.0
H1363 H 0.96147 0.41463 0.67061 0.0
H1364 H 0.98082 0.47862 0.63204 0.0
H1365 H 0.97382 0.43866 0.61307 0.0
H1366 H 0.02197 0.50559 0.65478 0.0
H1367 H 0.91171 0.44576 0.65176 0.0
H1368 H 0.86047 0.39853 0.65272 0.0
H1369 H 0.87535 0.38462 0.70147 0.0
H1370 H 0.92688 0.43157 0.70074 0.0
H1371 H 0.96552 0.58892 0.7125 0.0
H1372 H 0.95482 0.54857 0.69283 0.0
H1373 H 0.03764 0.54821 0.70715 0.0
H1374 H 0.04866 0.58911 0.72655 0.0
H1375 H 0.94401 0.49072 0.69554 0.0
H1376 H 0.06987 0.53504 0.67459 0.0
H1377 H 0.11889 0.58446 0.67196 0.0
H1378 H 0.06865 0.63318 0.66793 0.0
H1379 H 0.01935 0.58404 0.6703 0.0
C1380 C 0.96002 0.39711 0.64721 0.0
C1381 C 0.96422 0.4037 0.6309 0.0
C1382 C 0.96399 0.41998 0.65806 0.0
C1383 C 0.97167 0.44965 0.65274 0.0
C1384 C 0.97523 0.45601 0.63642 0.0
C1385 C 0.97141 0.43322 0.62559 0.0
C1386 C 0.97671 0.47431 0.66419 0.0
C1387 C 0.00491 0.50231 0.6637 0.0
C1388 C 0.95426 0.47025 0.67565 0.0
C1389 C 0.92328 0.44202 0.67614 0.0
C1390 C 0.90416 0.4325 0.66265 0.0
C1391 C 0.87505 0.4058 0.66316 0.0
C1392 C 0.8647 0.38854 0.67713 0.0
C1393 C 0.88342 0.39799 0.69064 0.0
C1394 C 0.91257 0.42466 0.69019 0.0
C1395 C 0.98152 0.58035 0.71128 0.0
C1396 C 0.00816 0.5923 0.72074 0.0
C1397 C 0.97529 0.55719 0.70018 0.0
C1398 C 0.99561 0.54564 0.6984 0.0
C1399 C 0.02191 0.55714 0.70815 0.0
C1400 C 0.02815 0.58036 0.71923 0.0
C1401 C 0.98942 0.52176 0.68626 0.0
C1402 C 0.96106 0.49393 0.68664 0.0
C1403 C 0.01142 0.52622 0.67445 0.0
C1404 C 0.04094 0.55587 0.67279 0.0
C1405 C 0.06929 0.55629 0.67308 0.0
C1406 C 0.09712 0.58425 0.67164 0.0
C1407 C 0.09689 0.61195 0.66983 0.0
C1408 C 0.06881 0.61173 0.66939 0.0
C1409 C 0.04091 0.58383 0.6708 0.0
H1410 H 0.11846 0.63357 0.66874 0.0
H1411 H 0.84214 0.36788 0.67751 0.0
H1412 H 0.41116 0.46017 0.73241 0.0
H1413 H 0.45124 0.48994 0.71259 0.0
H1414 H 0.4397 0.40506 0.69287 0.0
H1415 H 0.40017 0.37542 0.71286 0.0
H1416 H 0.49987 0.44767 0.69554 0.0
H1417 H 0.40845 0.4427 0.67437 0.0
H1418 H 0.36237 0.44874 0.67475 0.0
H1419 H 0.41998 0.5464 0.68239 0.0
H1420 H 0.46639 0.54086 0.68224 0.0
H1421 H 0.55146 0.53513 0.61498 0.0
H1422 H 0.51178 0.50374 0.6344 0.0
H1423 H 0.5796 0.5418 0.67185 0.0
H1424 H 0.6194 0.57381 0.65244 0.0
H1425 H 0.49003 0.5208 0.65945 0.0
H1426 H 0.56082 0.48488 0.69977 0.0
H1427 H 0.60423 0.47473 0.6976 0.0
H1428 H 0.58331 0.45176 0.64836 0.0
H1429 H 0.53954 0.46135 0.65029 0.0
C1430 C 0.41731 0.44801 0.72383 0.0
C1431 C 0.40247 0.41561 0.72397 0.0
C1432 C 0.44004 0.46494 0.7125 0.0
C1433 C 0.44821 0.44967 0.70115 0.0
C1434 C 0.4337 0.41728 0.70148 0.0
C1435 C 0.41099 0.40039 0.71279 0.0
C1436 C 0.47176 0.4674 0.68887 0.0
C1437 C 0.49778 0.46373 0.68768 0.0
C1438 C 0.46871 0.48789 0.67841 0.0
C1439 C 0.44086 0.49132 0.67844 0.0
C1440 C 0.41127 0.46543 0.67625 0.0
C1441 C 0.38509 0.46876 0.6764 0.0
C1442 C 0.38824 0.49792 0.67864 0.0
C1443 C 0.41758 0.52382 0.68068 0.0
C1444 C 0.44383 0.5206 0.68054 0.0
C1445 C 0.55786 0.53732 0.62737 0.0
C1446 C 0.58839 0.55758 0.63224 0.0
C1447 C 0.53518 0.51914 0.63844 0.0
C1448 C 0.5427 0.5205 0.65457 0.0
C1449 C 0.57333 0.54025 0.65944 0.0
C1450 C 0.59602 0.55851 0.64835 0.0
C1451 C 0.51838 0.50142 0.66627 0.0
C1452 C 0.49221 0.50486 0.66736 0.0
C1453 C 0.52099 0.48024 0.6764 0.0
C1454 C 0.54712 0.47418 0.67515 0.0
C1455 C 0.56544 0.47758 0.68849 0.0
C1456 C 0.59011 0.47193 0.6873 0.0
C1457 C 0.59659 0.46272 0.67284 0.0
C1458 C 0.57835 0.45903 0.65954 0.0
C1459 C 0.55364 0.46462 0.66067 0.0
H1460 H 0.6157 0.45837 0.67194 0.0
H1461 H 0.36795 0.50047 0.67875 0.0
H1462 H 0.53939 0.96647 0.73822 0.0
H1463 H 0.50812 0.97668 0.71948 0.0
H1464 H 0.58656 0.02176 0.68795 0.0
H1465 H 0.61838 0.01405 0.70727 0.0
H1466 H 0.56103 0.05398 0.68846 0.0
H1467 H 0.52124 0.94529 0.68184 0.0
H1468 H 0.49862 0.89085 0.69012 0.0
H1469 H 0.41822 0.89139 0.70776 0.0
H1470 H 0.44056 0.94598 0.69977 0.0
H1471 H 0.47583 0.04068 0.61722 0.0
H1472 H 0.5058 0.03217 0.63768 0.0
H1473 H 0.43905 0.02244 0.67302 0.0
H1474 H 0.40935 0.03159 0.65264 0.0
H1475 H 0.45679 0.97269 0.671 0.0
H1476 H 0.49924 0.08328 0.67567 0.0
H1477 H 0.52314 0.13642 0.66518 0.0
H1478 H 0.6007 0.12973 0.64827 0.0
H1479 H 0.57701 0.07635 0.65847 0.0
C1480 C 0.54988 0.97863 0.7273 0.0
C1481 C 0.58119 0.98914 0.72412 0.0
C1482 C 0.53193 0.98417 0.7165 0.0
C1483 C 0.54476 -0.00047 0.70211 0.0
C1484 C 0.57602 0.00978 0.69891 0.0
C1485 C 0.59411 0.00492 0.70986 0.0
C1486 C 0.52605 0.00584 0.69056 0.0
C1487 C 0.53841 0.03601 0.68454 0.0
C1488 C 0.49623 0.98265 0.68556 0.0
C1489 C 0.48272 0.94982 0.69036 0.0
C1490 C 0.49884 0.93386 0.68759 0.0
C1491 C 0.48605 0.90297 0.69222 0.0
C1492 C 0.45704 0.8877 0.69951 0.0
C1493 C 0.44072 0.90326 0.70214 0.0
C1494 C 0.45342 0.93417 0.69756 0.0
C1495 C 0.4677 0.03684 0.62937 0.0
C1496 C 0.44033 0.03663 0.63342 0.0
C1497 C 0.48478 0.03206 0.64101 0.0
C1498 C 0.47449 0.02661 0.65679 0.0
C1499 C 0.44724 0.02656 0.66088 0.0
C1500 C 0.43047 0.03195 0.64929 0.0
C1501 C 0.49204 0.02051 0.66897 0.0
C1502 C 0.47941 0.99048 0.67505 0.0
C1503 C 0.52187 0.04357 0.67375 0.0
C1504 C 0.5362 0.07571 0.66769 0.0
C1505 C 0.52125 0.09303 0.66958 0.0
C1506 C 0.53479 0.12322 0.66372 0.0
C1507 C 0.56338 0.13641 0.65602 0.0
C1508 C 0.57853 0.11947 0.65422 0.0
C1509 C 0.56507 0.08926 0.66005 0.0
H1510 H 0.57383 0.15979 0.65149 0.0
H1511 H 0.44718 0.86378 0.70307 0.0
H1512 H 0.37879 0.41693 0.11976 0.0
H1513 H 0.42444 0.45919 0.13239 0.0
H1514 H 0.48019 0.42186 0.11489 0.0
H1515 H 0.43462 0.37963 0.10197 0.0
H1516 H 0.48184 0.43058 0.14838 0.0
H1517 H 0.49452 0.48716 0.10053 0.0
H1518 H 0.47828 0.50845 0.07857 0.0
H1519 H 0.45751 0.56078 0.11174 0.0
H1520 H 0.47319 0.53943 0.13393 0.0
H1521 H 0.62106 0.54803 0.18128 0.0
H1522 H 0.5823 0.51307 0.16241 0.0
H1523 H 0.5254 0.55327 0.17303 0.0
H1524 H 0.56441 0.58881 0.19182 0.0
H1525 H 0.52657 0.54371 0.14146 0.0
H1526 H 0.5088 0.48514 0.18911 0.0
H1527 H 0.52247 0.46327 0.21185 0.0
H1528 H 0.54941 0.41379 0.18004 0.0
H1529 H 0.53633 0.43575 0.15708 0.0
C1530 C 0.40089 0.41804 0.11833 0.0
C1531 C 0.40314 0.39491 0.10996 0.0
C1532 C 0.42693 0.44225 0.1255 0.0
C1533 C 0.45559 0.44356 0.12454 0.0
C1534 C 0.45821 0.4212 0.11569 0.0
C1535 C 0.43223 0.39721 0.10829 0.0
C1536 C 0.48183 0.4664 0.13417 0.0
C1537 C 0.49213 0.45534 0.14667 0.0
C1538 C 0.49428 0.4986 0.13223 0.0
C1539 C 0.48477 0.51146 0.11892 0.0
C1540 C 0.48621 0.50297 0.10316 0.0
C1541 C 0.47717 0.51511 0.09067 0.0
C1542 C 0.4668 0.5359 0.09376 0.0
C1543 C 0.46551 0.54465 0.10936 0.0
C1544 C 0.47451 0.53256 0.1219 0.0
C1545 C 0.60033 0.5495 0.17962 0.0
C1546 C 0.59569 0.57104 0.18814 0.0
C1547 C 0.57819 0.52947 0.16883 0.0
C1548 C 0.55084 0.53036 0.16646 0.0
C1549 C 0.54637 0.55223 0.1747 0.0
C1550 C 0.5686 0.5724 0.18548 0.0
C1551 C 0.52661 0.50788 0.15567 0.0
C1552 C 0.51655 0.51897 0.14305 0.0
C1553 C 0.51401 0.47562 0.1576 0.0
C1554 C 0.52192 0.46237 0.17138 0.0
C1555 C 0.5179 0.46982 0.18696 0.0
C1556 C 0.5255 0.45736 0.19989 0.0
C1557 C 0.53689 0.43723 0.19739 0.0
C1558 C 0.54064 0.42944 0.18196 0.0
C1559 C 0.53313 0.44187 0.16898 0.0
H1560 H 0.54274 0.42759 0.20742 0.0
H1561 H 0.45982 0.54528 0.08407 0.0
H1562 H 0.58959 0.01892 0.09525 0.0
H1563 H 0.54521 0.01769 0.1085 0.0
H1564 H 0.57319 0.99585 0.15286 0.0
H1565 H 0.61622 0.99557 0.13965 0.0
H1566 H 0.51511 0.96342 0.15111 0.0
H1567 H 0.58875 0.07156 0.14193 0.0
H1568 H 0.62194 0.11737 0.12557 0.0
H1569 H 0.54236 0.10491 0.09976 0.0
H1570 H 0.50875 0.05881 0.11586 0.0
H1571 H 0.46124 0.0612 0.19783 0.0
H1572 H 0.49671 0.05754 0.1792 0.0
H1573 H 0.42338 0.96872 0.16333 0.0
H1574 H 0.38801 0.97177 0.18234 0.0
H1575 H 0.49989 0.05415 0.14846 0.0
H1576 H 0.45298 0.92268 0.15416 0.0
H1577 H 0.4255 0.88065 0.17361 0.0
H1578 H 0.46161 0.94635 0.21175 0.0
H1579 H 0.48962 0.98866 0.19255 0.0
C1580 C 0.58604 0.01368 0.1078 0.0
C1581 C 0.60633 0.00731 0.11641 0.0
C1582 C 0.56079 0.0131 0.11538 0.0
C1583 C 0.55599 0.00698 0.13174 0.0
C1584 C 0.57618 0.0004 0.14023 0.0
C1585 C 0.60089 0.00034 0.13265 0.0
C1586 C 0.53054 0.00796 0.14034 0.0
C1587 C 0.51167 0.98319 0.15041 0.0
C1588 C 0.52616 0.03384 0.13961 0.0
C1589 C 0.54631 0.06157 0.12996 0.0
C1590 C 0.57838 0.07849 0.13269 0.0
C1591 C 0.59725 0.10451 0.12348 0.0
C1592 C 0.58428 0.11399 0.1116 0.0
C1593 C 0.55238 0.09751 0.10894 0.0
C1594 C 0.53341 0.07144 0.11811 0.0
C1595 C 0.45265 0.0409 0.19036 0.0
C1596 C 0.42194 0.01663 0.19165 0.0
C1597 C 0.4729 0.03892 0.17965 0.0
C1598 C 0.46279 0.01274 0.16997 0.0
C1599 C 0.43183 0.98891 0.17088 0.0
C1600 C 0.41165 0.99069 0.18173 0.0
C1601 C 0.48511 0.00997 0.15947 0.0
C1602 C 0.50313 0.03423 0.14897 0.0
C1603 C 0.48956 0.98416 0.16024 0.0
C1604 C 0.47304 0.95884 0.1719 0.0
C1605 C 0.45509 0.92811 0.1667 0.0
C1606 C 0.43944 0.90425 0.17768 0.0
C1607 C 0.44171 0.91084 0.1939 0.0
C1608 C 0.45976 0.94129 0.19918 0.0
C1609 C 0.4755 0.96522 0.18825 0.0
H1610 H 0.42955 0.89234 0.20237 0.0
H1611 H 0.59893 0.13414 0.10448 0.0
H1612 H 0.92587 0.38005 0.18405 0.0
H1613 H 0.93283 0.42032 0.16529 0.0
H1614 H 0.02947 0.47325 0.17767 0.0
H1615 H 0.0227 0.4332 0.1966 0.0
H1616 H 0.00161 0.50843 0.17692 0.0
H1617 H 0.00812 0.4341 0.14339 0.0
H1618 H 0.98976 0.38174 0.13279 0.0
H1619 H 0.90778 0.37881 0.115 0.0
H1620 H 0.92539 0.43098 0.12573 0.0
H1621 H 0.04246 0.62097 0.11866 0.0
H1622 H 0.04134 0.57769 0.13273 0.0
H1623 H 0.94622 0.51875 0.11879 0.0
H1624 H 0.94762 0.56176 0.10411 0.0
H1625 H 0.97515 0.48632 0.11986 0.0
H1626 H 0.96551 0.5575 0.15461 0.0
H1627 H 0.98106 0.60854 0.16624 0.0
H1628 H 0.06601 0.61611 0.1826 0.0
H1629 H 0.05114 0.56527 0.17086 0.0
C1630 C 0.94861 0.40026 0.1828 0.0
C1631 C 0.97376 0.40342 0.19178 0.0
C1632 C 0.95257 0.42315 0.17201 0.0
C1633 C 0.98175 0.44953 0.16996 0.0
C1634 C 0.00681 0.45297 0.17905 0.0
C1635 C 0.0029 0.43005 0.18982 0.0
C1636 C 0.98595 0.47387 0.15857 0.0
C1637 C 0.99635 0.50375 0.16439 0.0
C1638 C 0.97823 0.46742 0.14233 0.0
C1639 C 0.96797 0.43637 0.13549 0.0
C1640 C 0.98609 0.42224 0.1373 0.0
C1641 C 0.97582 0.39259 0.13126 0.0
C1642 C 0.94758 0.37693 0.12326 0.0
C1643 C 0.92963 0.39096 0.12121 0.0
C1644 C 0.93976 0.42058 0.12726 0.0
C1645 C 0.02151 0.59861 0.11832 0.0
C1646 C 0.99498 0.59478 0.11049 0.0
C1647 C 0.02086 0.57394 0.12641 0.0
C1648 C 0.99342 0.54526 0.12719 0.0
C1649 C 0.96757 0.54077 0.11843 0.0
C1650 C 0.96839 0.56534 0.11006 0.0
C1651 C 0.99092 0.52097 0.1382 0.0
C1652 C 0.9807 0.49107 0.13235 0.0
C1653 C 0.99851 0.52728 0.1545 0.0
C1654 C 0.00735 0.55772 0.16171 0.0
C1655 C 0.98759 0.57014 0.1606 0.0
C1656 C 0.99627 0.59902 0.16722 0.0
C1657 C 0.02455 0.6156 0.17512 0.0
C1658 C 0.04414 0.60327 0.17646 0.0
C1659 C 0.03559 0.57441 0.16983 0.0
H1660 H 0.03124 0.63797 0.18023 0.0
H1661 H 0.93964 0.35394 0.11864 0.0
H1662 H 0.40708 0.40021 0.82128 0.0
H1663 H 0.44408 0.43225 0.84164 0.0
H1664 H 0.44059 0.51182 0.82429 0.0
H1665 H 0.40256 0.47955 0.80437 0.0
H1666 H 0.4986 0.47624 0.83963 0.0
H1667 H 0.45641 0.56456 0.85224 0.0
H1668 H 0.40704 0.5643 0.85449 0.0
H1669 H 0.35979 0.46723 0.86518 0.0
H1670 H 0.40892 0.46698 0.86323 0.0
H1671 H 0.62085 0.61757 0.86167 0.0
H1672 H 0.57477 0.57457 0.8503 0.0
H1673 H 0.52677 0.56039 0.89482 0.0
H1674 H 0.57295 0.60473 0.90621 0.0
H1675 H 0.48981 0.55457 0.87189 0.0
H1676 H 0.55201 0.5101 0.88211 0.0
H1677 H 0.59921 0.50604 0.88269 0.0
H1678 H 0.60167 0.50651 0.83177 0.0
H1679 H 0.55473 0.51102 0.83087 0.0
C1680 C 0.41406 0.42451 0.82189 0.0
C1681 C 0.40196 0.43742 0.81124 0.0
C1682 C 0.43518 0.44279 0.83354 0.0
C1683 C 0.44487 0.4744 0.83467 0.0
C1684 C 0.43289 0.48734 0.82397 0.0
C1685 C 0.41135 0.46894 0.81248 0.0
C1686 C 0.46901 0.49429 0.84632 0.0
C1687 C 0.49652 0.49316 0.84678 0.0
C1688 C 0.46599 0.51567 0.85612 0.0
C1689 C 0.43637 0.51573 0.85747 0.0
C1690 C 0.43553 0.54319 0.85516 0.0
C1691 C 0.40757 0.54312 0.85636 0.0
C1692 C 0.38029 0.51575 0.85993 0.0
C1693 C 0.38092 0.4884 0.86236 0.0
C1694 C 0.40882 0.48834 0.86119 0.0
C1695 C 0.60062 0.60525 0.86913 0.0
C1696 C 0.60064 0.61439 0.8849 0.0
C1697 C 0.57427 0.58049 0.86262 0.0
C1698 C 0.5475 0.56371 0.87181 0.0
C1699 C 0.54725 0.57287 0.88755 0.0
C1700 C 0.57362 0.59813 0.89404 0.0
C1701 C 0.51974 0.53734 0.86458 0.0
C1702 C 0.4916 0.53724 0.86495 0.0
C1703 C 0.52173 0.51403 0.85599 0.0
C1704 C 0.54987 0.51103 0.85643 0.0
C1705 C 0.56269 0.5095 0.87103 0.0
C1706 C 0.58941 0.50711 0.87142 0.0
C1707 C 0.60345 0.50605 0.85728 0.0
C1708 C 0.59076 0.50732 0.84272 0.0
C1709 C 0.56406 0.50973 0.84226 0.0
H1710 H 0.62414 0.50423 0.8576 0.0
H1711 H 0.35867 0.51574 0.86085 0.0
H1712 H 0.56513 0.9369 0.82256 0.0
H1713 H 0.53201 0.93889 0.84326 0.0
H1714 H 0.55606 0.03092 0.82833 0.0
H1715 H 0.59005 0.02944 0.80785 0.0
H1716 H 0.55411 0.02706 0.85988 0.0
H1717 H 0.48784 0.96638 0.81673 0.0
H1718 H 0.4662 0.92367 0.79735 0.0
H1719 H 0.43529 0.8575 0.83532 0.0
H1720 H 0.45711 0.89987 0.85493 0.0
H1721 H 0.42421 0.04005 0.87956 0.0
H1722 H 0.46786 0.03698 0.8689 0.0
H1723 H 0.43423 0.94809 0.89124 0.0
H1724 H 0.39002 0.95087 0.90194 0.0
H1725 H 0.44315 0.94633 0.85971 0.0
H1726 H 0.50258 0.00906 0.90293 0.0
H1727 H 0.52286 0.05289 0.92159 0.0
H1728 H 0.56533 0.11655 0.88301 0.0
H1729 H 0.54494 0.07314 0.86407 0.0
C1730 C 0.56342 0.9576 0.82369 0.0
C1731 C 0.57995 0.98292 0.81349 0.0
C1732 C 0.54447 0.95869 0.83553 0.0
C1733 C 0.54122 0.98487 0.8372 0.0
C1734 C 0.55825 0.01048 0.82726 0.0
C1735 C 0.57753 0.00955 0.81552 0.0
C1736 C 0.51914 0.98515 0.84885 0.0
C1737 C 0.52981 0.00953 0.85981 0.0
C1738 C 0.48761 0.96175 0.84906 0.0
C1739 C 0.47442 0.93628 0.83728 0.0
C1740 C 0.47664 0.94272 0.82094 0.0
C1741 C 0.4643 0.91858 0.80991 0.0
C1742 C 0.44946 0.88789 0.8151 0.0
C1743 C 0.44684 0.88128 0.83132 0.0
C1744 C 0.45918 0.90534 0.84239 0.0
C1745 C 0.42635 0.02008 0.88249 0.0
C1746 C 0.40347 0.99553 0.89145 0.0
C1747 C 0.4515 0.01849 0.87648 0.0
C1748 C 0.45437 0.99237 0.87933 0.0
C1749 C 0.43245 0.96849 0.88896 0.0
C1750 C 0.40728 0.97015 0.89509 0.0
C1751 C 0.47794 0.98859 0.87055 0.0
C1752 C 0.46756 0.96355 0.86006 0.0
C1753 C 0.50961 0.01156 0.8707 0.0
C1754 C 0.52206 0.03779 0.88206 0.0
C1755 C 0.51606 0.03241 0.8984 0.0
C1756 C 0.52761 0.05719 0.90903 0.0
C1757 C 0.54534 0.08749 0.90349 0.0
C1758 C 0.5516 0.09307 0.88729 0.0
C1759 C 0.54009 0.06837 0.8766 0.0
H1760 H 0.55426 0.10664 0.91174 0.0
H1761 H 0.43992 0.86923 0.80654 0.0
H1762 H 0.08249 0.62388 0.81727 0.0
H1763 H 0.07765 0.58716 0.83777 0.0
H1764 H 0.98055 0.53035 0.82706 0.0
H1765 H 0.98504 0.56727 0.80672 0.0
H1766 H 0.9899 0.5354 0.85851 0.0
H1767 H 0.03331 0.51159 0.81343 0.0
H1768 H 0.07092 0.52273 0.79191 0.0
H1769 H 0.1439 0.5512 0.82612 0.0
H1770 H 0.10675 0.54061 0.84785 0.0
H1771 H 0.95663 0.38575 0.88236 0.0
H1772 H 0.96491 0.4336 0.87017 0.0
H1773 H 0.05792 0.48186 0.88863 0.0
H1774 H 0.04976 0.43393 0.90098 0.0
H1775 H 0.05493 0.4862 0.85607 0.0
H1776 H 0.00799 0.50227 0.90147 0.0
H1777 H 0.96856 0.48847 0.9223 0.0
H1778 H 0.90012 0.4716 0.88685 0.0
H1779 H 0.93904 0.48485 0.86578 0.0
C1780 C 0.0601 0.60354 0.81924 0.0
C1781 C 0.03417 0.5984 0.81031 0.0
C1782 C 0.05739 0.58259 0.83097 0.0
C1783 C 0.0288 0.55591 0.83386 0.0
C1784 C 0.00282 0.55084 0.82506 0.0
C1785 C 0.00546 0.57188 0.81338 0.0
C1786 C 0.02603 0.53291 0.84582 0.0
C1787 C 0.00396 0.52446 0.85794 0.0
C1788 C 0.04496 0.51927 0.84528 0.0
C1789 C 0.06733 0.52568 0.83224 0.0
C1790 C 0.05743 0.52049 0.81635 0.0
C1791 C 0.07865 0.52665 0.80412 0.0
C1792 C 0.1098 0.53776 0.80764 0.0
C1793 C 0.11977 0.54265 0.82341 0.0
C1794 C 0.09865 0.53656 0.83569 0.0
C1795 C 0.9786 0.4067 0.88417 0.0
C1796 C 0.00264 0.40603 0.89251 0.0
C1797 C 0.98325 0.43407 0.87725 0.0
C1798 C 0.01203 0.46123 0.87849 0.0
C1799 C 0.03552 0.46109 0.88757 0.0
C1800 C 0.03077 0.43374 0.89467 0.0
C1801 C 0.01852 0.48836 0.86865 0.0
C1802 C 0.04125 0.49752 0.85685 0.0
C1803 C -5e-05 0.50234 0.86939 0.0
C1804 C 0.97643 0.49437 0.88203 0.0
C1805 C 0.98448 0.49537 0.8981 0.0
C1806 C 0.96222 0.4877 0.90995 0.0
C1807 C 0.93184 0.47911 0.9059 0.0
C1808 C 0.92367 0.47824 0.88998 0.0
C1809 C 0.94583 0.48588 0.87807 0.0
H1810 H 0.91465 0.47318 0.91509 0.0
H1811 H 0.12619 0.54251 0.79816 0.0
H1812 H 0.25433 0.93104 0.51502 0.0
H1813 H 0.21465 0.89495 0.49678 0.0
H1814 H 0.21967 0.81915 0.51832 0.0
H1815 H 0.26033 0.85536 0.53614 0.0
H1816 H 0.21342 0.81022 0.48808 0.0
H1817 H 0.1616 0.83612 0.52779 0.0
H1818 H 0.15129 0.87077 0.54428 0.0
H1819 H 0.13155 0.90696 0.50246 0.0
H1820 H 0.14212 0.87276 0.48571 0.0
H1821 H 0.03693 0.71137 0.47349 0.0
H1822 H 0.08096 0.75178 0.48764 0.0
H1823 H 0.13745 0.77135 0.44573 0.0
H1824 H 0.09342 0.72975 0.43156 0.0
H1825 H 0.11414 0.81009 0.48502 0.0
H1826 H 0.21203 0.79628 0.45663 0.0
H1827 H 0.21934 0.75601 0.44375 0.0
H1828 H 0.14129 0.68552 0.46915 0.0
H1829 H 0.13377 0.72538 0.48232 0.0
C1830 C 0.24702 0.90668 0.51582 0.0
C1831 C 0.26022 0.89594 0.52706 0.0
C1832 C 0.22431 0.88608 0.50542 0.0
C1833 C 0.2138 0.85427 0.50635 0.0
C1834 C 0.22743 0.8436 0.51737 0.0
C1835 C 0.25056 0.86428 0.52759 0.0
C1836 C 0.18796 0.83197 0.4962 0.0
C1837 C 0.19175 0.81026 0.48737 0.0
C1838 C 0.15948 0.83164 0.49546 0.0
C1839 C 0.15296 0.85213 0.50549 0.0
C1840 C 0.15526 0.85162 0.52211 0.0
C1841 C 0.14935 0.87115 0.5315 0.0
C1842 C 0.14086 0.89112 0.52442 0.0
C1843 C 0.13818 0.89152 0.50793 0.0
C1844 C 0.1441 0.87205 0.49848 0.0
C1845 C 0.05864 0.72431 0.4672 0.0
C1846 C 0.0617 0.71723 0.4514 0.0
C1847 C 0.08383 0.74753 0.47533 0.0
C1848 C 0.11263 0.76447 0.46782 0.0
C1849 C 0.11559 0.7582 0.45186 0.0
C1850 C 0.0904 0.73453 0.44375 0.0
C1851 C 0.13943 0.78808 0.477 0.0
C1852 C 0.13591 0.8102 0.4856 0.0
C1853 C 0.16766 0.78793 0.47804 0.0
C1854 C 0.17213 0.76379 0.47029 0.0
C1855 C 0.19648 0.77218 0.45948 0.0
C1856 C 0.20066 0.74944 0.45213 0.0
C1857 C 0.18072 0.71822 0.45558 0.0
C1858 C 0.15664 0.70969 0.46644 0.0
C1859 C 0.15239 0.73235 0.47383 0.0
H1860 H 0.18398 0.70065 0.44987 0.0
H1861 H 0.13629 0.90623 0.53171 0.0
H1862 H 0.08689 0.31204 0.53057 0.0
H1863 H 0.12617 0.312 0.51338 0.0
H1864 H 0.11056 0.36635 0.47871 0.0
H1865 H 0.07032 0.36551 0.49564 0.0
H1866 H 0.11963 0.32465 0.46421 0.0
H1867 H 0.17233 0.40032 0.50428 0.0
H1868 H 0.18483 0.4211 0.53148 0.0
H1869 H 0.21327 0.35541 0.54332 0.0
H1870 H 0.20051 0.33392 0.51624 0.0
H1871 H 0.26917 0.36959 0.4281 0.0
H1872 H 0.22502 0.37038 0.4404 0.0
H1873 H 0.21854 0.30437 0.47537 0.0
H1874 H 0.26213 0.3032 0.46327 0.0
H1875 H 0.22239 0.3581 0.48814 0.0
H1876 H 0.1662 0.28131 0.44746 0.0
H1877 H 0.15432 0.26269 0.41985 0.0
H1878 H 0.13458 0.33491 0.40857 0.0
H1879 H 0.14676 0.35422 0.43608 0.0
C1880 C 0.09167 0.32382 0.51924 0.0
C1881 C 0.07575 0.33903 0.51451 0.0
C1882 C 0.11421 0.32389 0.50946 0.0
C1883 C 0.12179 0.33979 0.49493 0.0
C1884 C 0.10519 0.3541 0.48991 0.0
C1885 C 0.08227 0.35365 0.49961 0.0
C1886 C 0.14766 0.3421 0.48527 0.0
C1887 C 0.14225 0.33242 0.46936 0.0
C1888 C 0.17719 0.35228 0.49199 0.0
C1889 C 0.18524 0.36537 0.50825 0.0
C1890 C 0.18107 0.39018 0.51271 0.0
C1891 C 0.18822 0.4021 0.52811 0.0
C1892 C 0.19977 0.38955 0.53913 0.0
C1893 C 0.2043 0.3651 0.53477 0.0
C1894 C 0.19715 0.35307 0.51939 0.0
C1895 C 0.25808 0.35496 0.43828 0.0
C1896 C 0.26936 0.33652 0.44476 0.0
C1897 C 0.23287 0.35542 0.44527 0.0
C1898 C 0.21872 0.33752 0.45881 0.0
C1899 C 0.22931 0.31844 0.46497 0.0
C1900 C 0.25423 0.3178 0.45798 0.0
C1901 C 0.19403 0.33976 0.4673 0.0
C1902 C 0.19981 0.35056 0.48297 0.0
C1903 C 0.16511 0.33107 0.46028 0.0
C1904 C 0.15776 0.31943 0.44377 0.0
C1905 C 0.15962 0.2934 0.43905 0.0
C1906 C 0.15276 0.28268 0.42343 0.0
C1907 C 0.1438 0.29767 0.41245 0.0
C1908 C 0.14158 0.32336 0.41708 0.0
C1909 C 0.14844 0.33418 0.43269 0.0
H1910 H 0.13849 0.28933 0.40036 0.0
H1911 H 0.20528 0.39879 0.55105 0.0
H1912 H 0.70492 0.9494 0.45113 0.0
H1913 H 0.70029 0.90325 0.46374 0.0
H1914 H 0.60808 0.84874 0.4449 0.0
H1915 H 0.61261 0.89487 0.43208 0.0
H1916 H 0.6119 0.84588 0.47795 0.0
H1917 H 0.6611 0.83389 0.43211 0.0
H1918 H 0.70089 0.85027 0.41128 0.0
H1919 H 0.77043 0.87096 0.44666 0.0
H1920 H 0.73113 0.85514 0.46775 0.0
H1921 H 0.58936 0.70867 0.51425 0.0
H1922 H 0.59369 0.74619 0.4944 0.0
H1923 H 0.69012 0.80459 0.5061 0.0
H1924 H 0.68614 0.76677 0.52581 0.0
H1925 H 0.68169 0.80213 0.47459 0.0
H1926 H 0.63571 0.82041 0.52021 0.0
H1927 H 0.5978 0.80667 0.54184 0.0
H1928 H 0.52451 0.77751 0.50776 0.0
H1929 H 0.56196 0.79068 0.48592 0.0
C1930 C 0.6839 0.92746 0.44937 0.0
C1931 C 0.65903 0.92578 0.44072 0.0
C1932 C 0.68136 0.9011 0.45652 0.0
C1933 C 0.65384 0.87265 0.45525 0.0
C1934 C 0.62952 0.87053 0.44598 0.0
C1935 C 0.6322 0.89686 0.43862 0.0
C1936 C 0.64937 0.84624 0.46512 0.0
C1937 C 0.62667 0.83577 0.47699 0.0
C1938 C 0.66943 0.83398 0.46418 0.0
C1939 C 0.69317 0.84355 0.45153 0.0
C1940 C 0.68492 0.84219 0.43547 0.0
C1941 C 0.70738 0.85132 0.42361 0.0
C1942 C 0.73818 0.86171 0.42765 0.0
C1943 C 0.74657 0.86293 0.44356 0.0
C1944 C 0.72419 0.85384 0.45547 0.0
C1945 C 0.61151 0.72949 0.51262 0.0
C1946 C 0.63738 0.73486 0.52168 0.0
C1947 C 0.61393 0.75093 0.50127 0.0
C1948 C 0.64214 0.77834 0.4989 0.0
C1949 C 0.66814 0.78356 0.50774 0.0
C1950 C 0.66579 0.76201 0.51904 0.0
C1951 C 0.64429 0.80188 0.48747 0.0
C1952 C 0.66663 0.81191 0.47539 0.0
C1953 C 0.62417 0.81412 0.48833 0.0
C1954 C 0.60159 0.80619 0.50144 0.0
C1955 C 0.61147 0.81082 0.51733 0.0
C1956 C 0.59008 0.80318 0.52963 0.0
C1957 C 0.55875 0.79114 0.52618 0.0
C1958 C 0.54878 0.78679 0.51042 0.0
C1959 C 0.57008 0.79435 0.49807 0.0
H1960 H 0.54222 0.78525 0.53572 0.0
H1961 H 0.75554 0.86876 0.41844 0.0
H1962 H 0.09793 0.74083 0.14053 0.0
H1963 H 0.13363 0.77338 0.16126 0.0
H1964 H 0.07671 0.81439 0.16989 0.0
H1965 H 0.04132 0.78245 0.14898 0.0
H1966 H 0.13552 0.85736 0.16808 0.0
H1967 H 0.07768 0.7615 0.19577 0.0
H1968 H 0.05457 0.70527 0.1996 0.0
H1969 H 0.14495 0.71489 0.19942 0.0
H1970 H 0.1686 0.77114 0.19534 0.0
H1971 H 0.22312 0.94241 0.23368 0.0
H1972 H 0.17707 0.9001 0.22118 0.0
H1973 H 0.23177 0.86178 0.20342 0.0
H1974 H 0.27787 0.90403 0.21571 0.0
H1975 H 0.16983 0.8161 0.21237 0.0
H1976 H 0.226 0.90846 0.18049 0.0
H1977 H 0.25046 0.96437 0.17513 0.0
H1978 H 0.16344 0.9604 0.18243 0.0
H1979 H 0.13855 0.90445 0.18807 0.0
C1980 C 0.09301 0.75675 0.14686 0.0
C1981 C 0.06684 0.7591 0.14312 0.0
C1982 C 0.11329 0.77517 0.15878 0.0
C1983 C 0.10754 0.79595 0.1673 0.0
C1984 C 0.08151 0.79841 0.16352 0.0
C1985 C 0.06134 0.78017 0.15154 0.0
C1986 C 0.12945 0.81617 0.17964 0.0
C1987 C 0.14244 0.84825 0.17796 0.0
C1988 C 0.139 0.8043 0.19233 0.0
C1989 C 0.1249 0.77054 0.19513 0.0
C1990 C 0.09263 0.75162 0.19646 0.0
C1991 C 0.07943 0.71973 0.19868 0.0
C1992 C 0.09828 0.7065 0.19971 0.0
C1993 C 0.13038 0.72516 0.1986 0.0
C1994 C 0.1437 0.75706 0.19635 0.0
C1995 C 0.22515 0.92448 0.22751 0.0
C1996 C 0.25413 0.92673 0.22545 0.0
C1997 C 0.19885 0.90038 0.22038 0.0
C1998 C 0.2012 0.8781 0.21127 0.0
C1999 C 0.22954 0.87877 0.21042 0.0
C2000 C 0.25587 0.90303 0.21735 0.0
C2001 C 0.17564 0.85705 0.20074 0.0
C2002 C 0.16222 0.82498 0.20268 0.0
C2003 C 0.16567 0.86881 0.18821 0.0
C2004 C 0.18053 0.90241 0.1849 0.0
C2005 C 0.21216 0.91958 0.18111 0.0
C2006 C 0.22608 0.95124 0.17799 0.0
C2007 C 0.20852 0.96592 0.17847 0.0
C2008 C 0.177 0.94898 0.18209 0.0
C2009 C 0.16298 0.9173 0.18525 0.0
H2010 H 0.21933 0.99039 0.17595 0.0
H2011 H 0.08801 0.6818 0.2014 0.0
H2012 H 0.06747 0.29861 0.23881 0.0
H2013 H 0.11109 0.29768 0.22606 0.0
H2014 H 0.10811 0.3533 0.18766 0.0
H2015 H 0.06553 0.35516 0.20044 0.0
H2016 H 0.11367 0.27359 0.19938 0.0
H2017 H 0.17606 0.39737 0.17117 0.0
H2018 H 0.18865 0.45023 0.17846 0.0
H2019 H 0.18179 0.42664 0.22785 0.0
H2020 H 0.16959 0.37379 0.22088 0.0
H2021 H 0.19106 0.27403 0.13008 0.0
H2022 H 0.15902 0.27885 0.15051 0.0
H2023 H 0.24121 0.34753 0.1746 0.0
H2024 H 0.27318 0.34401 0.15367 0.0
H2025 H 0.20299 0.36573 0.17544 0.0
H2026 H 0.19494 0.26977 0.18846 0.0
H2027 H 0.18629 0.21722 0.18405 0.0
H2028 H 0.09225 0.18585 0.17061 0.0
H2029 H 0.10043 0.23832 0.17472 0.0
C2030 C 0.07645 0.31103 0.22777 0.0
C2031 C 0.06301 0.32699 0.22067 0.0
C2032 C 0.10131 0.3104 0.22048 0.0
C2033 C 0.11313 0.32571 0.20599 0.0
C2034 C 0.09994 0.34192 0.19902 0.0
C2035 C 0.07538 0.3428 0.20633 0.0
C2036 C 0.13783 0.32327 0.19748 0.0
C2037 C 0.13338 0.29375 0.19427 0.0
C2038 C 0.16407 0.3496 0.1912 0.0
C2039 C 0.17171 0.38151 0.19548 0.0
C2040 C 0.17741 0.4035 0.18359 0.0
C2041 C 0.18444 0.43345 0.18767 0.0
C2042 C 0.18595 0.44176 0.20361 0.0
C2043 C 0.18051 0.42015 0.21551 0.0
C2044 C 0.17349 0.39017 0.2115 0.0
C2045 C 0.20222 0.29013 0.13975 0.0
C2046 C 0.23453 0.30864 0.14032 0.0
C2047 C 0.18393 0.29269 0.15151 0.0
C2048 C 0.19767 0.31308 0.16433 0.0
C2049 C 0.23002 0.3316 0.16487 0.0
C2050 C 0.24827 0.32958 0.15291 0.0
C2051 C 0.1782 0.31594 0.17681 0.0
C2052 C 0.18361 0.34556 0.18075 0.0
C2053 C 0.15351 0.28974 0.18422 0.0
C2054 C 0.14837 0.25805 0.18182 0.0
C2055 C 0.17246 0.25171 0.18447 0.0
C2056 C 0.16764 0.22193 0.18203 0.0
C2057 C 0.13875 0.19822 0.17703 0.0
C2058 C 0.11461 0.20424 0.17448 0.0
C2059 C 0.11932 0.23399 0.17689 0.0
H2060 H 0.13507 0.17518 0.17514 0.0
H2061 H 0.19138 0.46496 0.20673 0.0
H2062 H 0.62266 0.70896 0.21161 0.0
H2063 H 0.62447 0.75366 0.19878 0.0
H2064 H 0.71468 0.81303 0.21894 0.0
H2065 H 0.7126 0.76851 0.23225 0.0
H2066 H 0.68232 0.84275 0.21716 0.0
H2067 H 0.70745 0.78273 0.18197 0.0
H2068 H 0.6987 0.7351 0.16859 0.0
H2069 H 0.61609 0.72479 0.1471 0.0
H2070 H 0.62413 0.77214 0.16055 0.0
H2071 H 0.73929 0.96143 0.15854 0.0
H2072 H 0.73127 0.91946 0.17637 0.0
H2073 H 0.64058 0.8615 0.15639 0.0
H2074 H 0.6486 0.9031 0.13831 0.0
H2075 H 0.67214 0.8314 0.15862 0.0
H2076 H 0.64993 0.89469 0.19306 0.0
H2077 H 0.6612 0.94352 0.206 0.0
H2078 H 0.7411 0.94921 0.22842 0.0
H2079 H 0.73056 0.90063 0.21542 0.0
C2080 C 0.64262 0.73162 0.21357 0.0
C2081 C 0.66771 0.73517 0.22272 0.0
C2082 C 0.64365 0.75712 0.2062 0.0
C2083 C 0.67006 0.7865 0.20757 0.0
C2084 C 0.69416 0.79051 0.21765 0.0
C2085 C 0.69295 0.76504 0.22523 0.0
C2086 C 0.67376 0.81227 0.19734 0.0
C2087 C 0.68033 0.8404 0.20436 0.0
C2088 C 0.67091 0.80907 0.18064 0.0
C2089 C 0.66623 0.7808 0.17239 0.0
C2090 C 0.68732 0.77019 0.17447 0.0
C2091 C 0.6825 0.74326 0.16686 0.0
C2092 C 0.65681 0.72689 0.15703 0.0
C2093 C 0.63595 0.73747 0.15474 0.0
C2094 C 0.64063 0.76436 0.16234 0.0
C2095 C 0.71762 0.93977 0.15795 0.0
C2096 C 0.69457 0.93559 0.14702 0.0
C2097 C 0.713 0.91588 0.16822 0.0
C2098 C 0.68516 0.88752 0.16784 0.0
C2099 C 0.66218 0.88326 0.1569 0.0
C2100 C 0.66681 0.90707 0.1466 0.0
C2101 C 0.68039 0.86183 0.17842 0.0
C2102 C 0.67384 0.83373 0.17144 0.0
C2103 C 0.68355 0.86523 0.1951 0.0
C2104 C 0.68959 0.89414 0.20316 0.0
C2105 C 0.67 0.90644 0.20068 0.0
C2106 C 0.67625 0.93407 0.20803 0.0
C2107 C 0.70189 0.9495 0.21799 0.0
C2108 C 0.72127 0.93726 0.22068 0.0
C2109 C 0.71515 0.90966 0.21334 0.0
H2110 H 0.70672 0.9709 0.22366 0.0
H2111 H 0.65311 0.70603 0.15116 0.0
H2112 H 0.76933 0.05964 0.76394 0.0
H2113 H 0.81527 0.10214 0.77635 0.0
H2114 H 0.76099 0.1421 0.79246 0.0
H2115 H 0.71489 0.09953 0.78031 0.0
H2116 H 0.82551 0.18675 0.78381 0.0
H2117 H 0.76282 0.09598 0.81627 0.0
H2118 H 0.73539 0.03985 0.82139 0.0
H2119 H 0.82052 0.03896 0.81636 0.0
H2120 H 0.84837 0.09511 0.81093 0.0
H2121 H 0.89435 0.26332 0.85586 0.0
H2122 H 0.85954 0.23128 0.83472 0.0
H2123 H 0.91144 0.18388 0.82993 0.0
H2124 H 0.94584 0.21526 0.85129 0.0
H2125 H 0.85218 0.14389 0.83044 0.0
H2126 H 0.91661 0.23733 0.8021 0.0
H2127 H 0.94325 0.2934 0.79686 0.0
H2128 H 0.85577 0.29003 0.79397 0.0
H2129 H 0.8286 0.234 0.79941 0.0
C2130 C 0.7674 0.07804 0.76964 0.0
C2131 C 0.73849 0.07608 0.77139 0.0
C2132 C 0.79364 0.10225 0.77672 0.0
C2133 C 0.7913 0.12494 0.78543 0.0
C2134 C 0.76317 0.12477 0.78577 0.0
C2135 C 0.73685 0.10035 0.77891 0.0
C2136 C 0.8163 0.14549 0.79635 0.0
C2137 C 0.83143 0.17755 0.79403 0.0
C2138 C 0.82411 0.13323 0.80952 0.0
C2139 C 0.80758 0.09962 0.81301 0.0
C2140 C 0.77563 0.08376 0.81612 0.0
C2141 C 0.76002 0.05197 0.8191 0.0
C2142 C 0.77618 0.03584 0.81916 0.0
C2143 C 0.80802 0.05149 0.81628 0.0
C2144 C 0.82373 0.0833 0.81325 0.0
C2145 C 0.89837 0.24611 0.85028 0.0
C2146 C 0.92281 0.2418 0.85525 0.0
C2147 C 0.87861 0.22798 0.83812 0.0
C2148 C 0.88319 0.20551 0.83057 0.0
C2149 C 0.90755 0.20115 0.83555 0.0
C2150 C 0.92715 0.21909 0.84778 0.0
C2151 C 0.8617 0.18551 0.81802 0.0
C2152 C 0.84692 0.15335 0.82009 0.0
C2153 C 0.85433 0.19779 0.80464 0.0
C2154 C 0.87058 0.23148 0.80129 0.0
C2155 C 0.90305 0.24858 0.80046 0.0
C2156 C 0.91825 0.28035 0.79744 0.0
C2157 C 0.90122 0.29528 0.79512 0.0
C2158 C 0.86894 0.27844 0.79578 0.0
C2159 C 0.85362 0.24666 0.79881 0.0
H2160 H 0.91302 0.31988 0.79278 0.0
H2161 H 0.76402 0.01123 0.8215 0.0
H2162 H 0.73364 0.66714 0.8424 0.0
H2163 H 0.76677 0.66146 0.82294 0.0
H2164 H 0.84658 0.71787 0.85216 0.0
H2165 H 0.81369 0.72514 0.8711 0.0
H2166 H 0.86254 0.73266 0.82383 0.0
H2167 H 0.80755 0.63471 0.85053 0.0
H2168 H 0.76155 0.58743 0.86017 0.0
H2169 H 0.72988 0.56153 0.81226 0.0
H2170 H 0.77553 0.60887 0.80235 0.0
H2171 H 0.9338 0.63528 0.79772 0.0
H2172 H 0.89271 0.63877 0.81128 0.0
H2173 H 0.89718 0.7038 0.77619 0.0
H2174 H 0.93914 0.7011 0.76267 0.0
H2175 H 0.83695 0.6281 0.8055 0.0
H2176 H 0.88845 0.7594 0.79503 0.0
H2177 H 0.93908 0.80556 0.78943 0.0
H2178 H 0.98523 0.76253 0.81182 0.0
H2179 H 0.93499 0.71646 0.81775 0.0
C2180 C 0.75828 0.67835 0.84461 0.0
C2181 C 0.77118 0.69645 0.85824 0.0
C2182 C 0.77718 0.67499 0.83353 0.0
C2183 C 0.80916 0.68875 0.83619 0.0
C2184 C 0.82202 0.70707 0.84979 0.0
C2185 C 0.80323 0.71113 0.86064 0.0
C2186 C 0.82929 0.68389 0.82497 0.0
C2187 C 0.85679 0.70977 0.81978 0.0
C2188 C 0.82213 0.65403 0.8198 0.0
C2189 C 0.79477 0.62548 0.82572 0.0
C2190 C 0.79067 0.61902 0.84206 0.0
C2191 C 0.76468 0.59221 0.84757 0.0
C2192 C 0.74276 0.57154 0.83684 0.0
C2193 C 0.74685 0.57759 0.82056 0.0
C2194 C 0.77278 0.6044 0.81499 0.0
C2195 C 0.9259 0.65011 0.79272 0.0
C2196 C 0.94014 0.6683 0.77922 0.0
C2197 C 0.90221 0.65192 0.80048 0.0
C2198 C 0.89218 0.67187 0.79489 0.0
C2199 C 0.90495 0.68862 0.78085 0.0
C2200 C 0.92886 0.68697 0.77311 0.0
C2201 C 0.87022 0.67679 0.80457 0.0
C2202 C 0.84237 0.65097 0.8094 0.0
C2203 C 0.87767 0.70654 0.80999 0.0
C2204 C 0.90799 0.73435 0.80662 0.0
C2205 C 0.90943 0.75987 0.79878 0.0
C2206 C 0.93807 0.78602 0.79556 0.0
C2207 C 0.96539 0.78696 0.80022 0.0
C2208 C 0.96412 0.7618 0.80817 0.0
C2209 C 0.93557 0.73565 0.81145 0.0
H2210 H 0.98753 0.8072 0.79769 0.0
H2211 H 0.72265 0.5508 0.84112 0.0
H2212 H 0.31045 0.24089 0.76193 0.0
H2213 H 0.31141 0.19692 0.77432 0.0
H2214 H 0.34753 0.24985 0.81736 0.0
H2215 H 0.34783 0.29381 0.80498 0.0
H2216 H 0.37484 0.21899 0.81285 0.0
H2217 H 0.26818 0.1953 0.81135 0.0
H2218 H 0.22015 0.18629 0.79829 0.0
H2219 H 0.21701 0.11179 0.77136 0.0
H2220 H 0.26525 0.12063 0.78414 0.0
H2221 H 0.2755 0.07663 0.86588 0.0
H2222 H 0.27994 0.11552 0.84686 0.0
H2223 H 0.36066 0.1185 0.8264 0.0
H2224 H 0.35707 0.08054 0.84588 0.0
H2225 H 0.27697 0.11859 0.81641 0.0
H2226 H 0.41012 0.19053 0.8131 0.0
H2227 H 0.45572 0.20241 0.8295 0.0
H2228 H 0.40168 0.18541 0.87183 0.0
H2229 H 0.35592 0.17382 0.85569 0.0
C2230 C 0.31887 0.24316 0.77398 0.0
C2231 C 0.32894 0.2708 0.78248 0.0
C2232 C 0.31931 0.21802 0.78106 0.0
C2233 C 0.32921 0.21994 0.79685 0.0
C2234 C 0.33995 0.24779 0.80515 0.0
C2235 C 0.33997 0.27295 0.79804 0.0
C2236 C 0.32735 0.1929 0.8052 0.0
C2237 C 0.3535 0.19694 0.81349 0.0
C2238 C 0.29945 0.16421 0.80621 0.0
C2239 C 0.27048 0.15887 0.79854 0.0
C2240 C 0.25735 0.17715 0.80256 0.0
C2241 C 0.23008 0.17205 0.79522 0.0
C2242 C 0.21559 0.14855 0.78396 0.0
C2243 C 0.2283 0.13004 0.78005 0.0
C2244 C 0.25559 0.13507 0.78734 0.0
C2245 C 0.2942 0.08559 0.85733 0.0
C2246 C 0.31613 0.07584 0.85746 0.0
C2247 C 0.29662 0.10768 0.8464 0.0
C2248 C 0.32081 0.12018 0.83529 0.0
C2249 C 0.34216 0.10966 0.83506 0.0
C2250 C 0.34007 0.08797 0.84618 0.0
C2251 C 0.32419 0.14505 0.82442 0.0
C2252 C 0.29844 0.14048 0.81555 0.0
C2253 C 0.35211 0.1737 0.82336 0.0
C2254 C 0.37955 0.18093 0.83318 0.0
C2255 C 0.40803 0.18941 0.82591 0.0
C2256 C 0.43388 0.19608 0.83516 0.0
C2257 C 0.43157 0.19455 0.85169 0.0
C2258 C 0.40342 0.18647 0.85902 0.0
C2259 C 0.37751 0.17982 0.84983 0.0
H2260 H 0.4516 0.1997 0.85883 0.0
H2261 H 0.19448 0.14464 0.7783 0.0
H2262 H 0.95755 0.24618 0.54323 0.0
H2263 H 0.91377 0.20459 0.52923 0.0
H2264 H 0.85355 0.23518 0.54853 0.0
H2265 H 0.89728 0.27647 0.56302 0.0
H2266 H 0.82377 0.17301 0.54601 0.0
H2267 H 0.88543 0.25935 0.51237 0.0
H2268 H 0.93358 0.29955 0.49995 0.0
H2269 H 0.94676 0.22956 0.47784 0.0
H2270 H 0.89894 0.18888 0.49037 0.0
H2271 H 0.71162 0.11235 0.48369 0.0
H2272 H 0.75179 0.14685 0.50224 0.0
H2273 H 0.80999 0.11067 0.48706 0.0
H2274 H 0.76989 0.07597 0.46849 0.0
H2275 H 0.83987 0.1754 0.48779 0.0
H2276 H 0.77554 0.08891 0.52165 0.0
H2277 H 0.7263 0.05043 0.53392 0.0
H2278 H 0.71641 0.1233 0.55497 0.0
H2279 H 0.7654 0.16226 0.54263 0.0
C2280 C 0.93488 0.24372 0.54474 0.0
C2281 C 0.93087 0.26482 0.55403 0.0
C2282 C 0.90991 0.22 0.5367 0.0
C2283 C 0.88062 0.21736 0.53751 0.0
C2284 C 0.87605 0.237 0.54766 0.0
C2285 C 0.90102 0.26055 0.55593 0.0
C2286 C 0.85561 0.19579 0.52678 0.0
C2287 C 0.82715 0.17371 0.53327 0.0
C2288 C 0.86015 0.19665 0.51015 0.0
C2289 C 0.88875 0.22106 0.50244 0.0
C2290 C 0.8987 0.25252 0.50495 0.0
C2291 C 0.92593 0.2754 0.49788 0.0
C2292 C 0.94325 0.26712 0.48814 0.0
C2293 C 0.93333 0.23593 0.48541 0.0
C2294 C 0.90617 0.21295 0.49249 0.0
C2295 C 0.73295 0.1117 0.4843 0.0
C2296 C 0.73762 0.09144 0.47465 0.0
C2297 C 0.75578 0.1313 0.49496 0.0
C2298 C 0.78367 0.13105 0.49608 0.0
C2299 C 0.78852 0.11105 0.48638 0.0
C2300 C 0.76559 0.09123 0.47582 0.0
C2301 C 0.80822 0.15238 0.50703 0.0
C2302 C 0.83656 0.17459 0.50054 0.0
C2303 C 0.80335 0.1519 0.52359 0.0
C2304 C 0.77399 0.1285 0.53109 0.0
C2305 C 0.76274 0.09674 0.52879 0.0
C2306 C 0.7349 0.07484 0.53578 0.0
C2307 C 0.7182 0.08442 0.54518 0.0
C2308 C 0.72935 0.11592 0.54766 0.0
C2309 C 0.75717 0.13792 0.54069 0.0
H2310 H 0.69665 0.06743 0.55058 0.0
H2311 H 0.96432 0.28488 0.48268 0.0
H2312 H 0.74242 0.70229 0.53991 0.0
H2313 H 0.78477 0.69921 0.52741 0.0
H2314 H 0.76653 0.62169 0.55721 0.0
H2315 H 0.72399 0.62467 0.56997 0.0
H2316 H 0.83046 0.66307 0.55179 0.0
H2317 H 0.73623 0.60648 0.52216 0.0
H2318 H 0.68938 0.59952 0.5087 0.0
H2319 H 0.74534 0.6726 0.47618 0.0
H2320 H 0.79258 0.68042 0.48967 0.0
H2321 H 0.90776 0.6087 0.50114 0.0
H2322 H 0.8706 0.61329 0.51813 0.0
H2323 H 0.87224 0.68214 0.48654 0.0
H2324 H 0.90847 0.67682 0.46921 0.0
H2325 H 0.81557 0.64241 0.49393 0.0
H2326 H 0.90997 0.70008 0.52373 0.0
H2327 H 0.957 0.70785 0.53741 0.0
H2328 H 0.90149 0.63352 0.5694 0.0
H2329 H 0.85413 0.62505 0.55578 0.0
C2330 C 0.74761 0.68483 0.54401 0.0
C2331 C 0.72948 0.6634 0.55578 0.0
C2332 C 0.77185 0.68314 0.53685 0.0
C2333 C 0.77834 0.65988 0.54121 0.0
C2334 C 0.76173 0.63972 0.55366 0.0
C2335 C 0.73741 0.64143 0.5609 0.0
C2336 C 0.80061 0.65517 0.53179 0.0
C2337 C 0.82713 0.65818 0.53918 0.0
C2338 C 0.7963 0.64918 0.51531 0.0
C2339 C 0.76794 0.64421 0.50702 0.0
C2340 C 0.73855 0.62121 0.51221 0.0
C2341 C 0.71191 0.61709 0.50457 0.0
C2342 C 0.71436 0.63562 0.4916 0.0
C2343 C 0.74347 0.65828 0.48624 0.0
C2344 C 0.77019 0.66256 0.49388 0.0
C2345 C 0.90028 0.6249 0.49785 0.0
C2346 C 0.91102 0.64241 0.48385 0.0
C2347 C 0.87918 0.62763 0.50762 0.0
C2348 C 0.86894 0.64838 0.50373 0.0
C2349 C 0.87982 0.66599 0.48978 0.0
C2350 C 0.90055 0.66296 0.4799 0.0
C2351 C 0.84602 0.65101 0.5138 0.0
C2352 C 0.81911 0.64735 0.50653 0.0
C2353 C 0.8501 0.65648 0.53036 0.0
C2354 C 0.87853 0.66175 0.53864 0.0
C2355 C 0.90781 0.68526 0.53362 0.0
C2356 C 0.93452 0.68981 0.54137 0.0
C2357 C 0.93224 0.67114 0.55424 0.0
C2358 C 0.90322 0.64794 0.55942 0.0
C2359 C 0.87644 0.64328 0.5517 0.0
H2360 H 0.95294 0.67468 0.56022 0.0
H2361 H 0.6937 0.63238 0.4857 0.0
H2362 H 0.3841 0.0997 0.56155 0.0
H2363 H 0.38543 0.14305 0.54738 0.0
H2364 H 0.29141 0.08357 0.5318 0.0
H2365 H 0.29047 0.03996 0.54539 0.0
H2366 H 0.32502 0.11159 0.50773 0.0
H2367 H 0.31317 0.14498 0.55909 0.0
H2368 H 0.32496 0.15883 0.58732 0.0
H2369 H 0.41575 0.232 0.57487 0.0
H2370 H 0.40466 0.21833 0.54657 0.0
H2371 H 0.30908 0.23023 0.47052 0.0
H2372 H 0.30281 0.19034 0.48941 0.0
H2373 H 0.40039 0.24168 0.4999 0.0
H2374 H 0.40691 0.28179 0.48107 0.0
H2375 H 0.36331 0.21849 0.52705 0.0
H2376 H 0.37482 0.18243 0.47575 0.0
H2377 H 0.36192 0.16866 0.44758 0.0
H2378 H 0.26947 0.09988 0.46052 0.0
H2379 H 0.2817 0.11357 0.48876 0.0
C2380 C 0.36351 0.09607 0.55538 0.0
C2381 C 0.33727 0.06644 0.55445 0.0
C2382 C 0.36424 0.1209 0.54733 0.0
C2383 C 0.33848 0.11663 0.53853 0.0
C2384 C 0.31164 0.0874 0.53841 0.0
C2385 C 0.3111 0.06251 0.5462 0.0
C2386 C 0.34044 0.1416 0.52818 0.0
C2387 C 0.33281 0.13479 0.51208 0.0
C2388 C 0.35143 0.17212 0.5337 0.0
C2389 C 0.35816 0.18044 0.55071 0.0
C2390 C 0.33574 0.16387 0.56238 0.0
C2391 C 0.34228 0.17172 0.57839 0.0
C2392 C 0.37111 0.19623 0.58289 0.0
C2393 C 0.39344 0.213 0.57137 0.0
C2394 C 0.38702 0.20523 0.55534 0.0
C2395 C 0.32921 0.23307 0.47686 0.0
C2396 C 0.35853 0.25907 0.47425 0.0
C2397 C 0.32557 0.21027 0.48764 0.0
C2398 C 0.35117 0.21307 0.49597 0.0
C2399 C 0.38036 0.23919 0.49359 0.0
C2400 C 0.38406 0.26195 0.48275 0.0
C2401 C 0.34768 0.18821 0.50678 0.0
C2402 C 0.3552 0.19513 0.52286 0.0
C2403 C 0.33638 0.15768 0.50131 0.0
C2404 C 0.32909 0.14924 0.48435 0.0
C2405 C 0.35167 0.16453 0.47258 0.0
C2406 C 0.34449 0.15672 0.4566 0.0
C2407 C 0.31487 0.13347 0.45226 0.0
C2408 C 0.29239 0.11792 0.4639 0.0
C2409 C 0.29944 0.12568 0.47989 0.0
H2410 H 0.30936 0.12745 0.43989 0.0
H2411 H 0.37613 0.20228 0.59529 0.0
H2412 H 0.31418 0.09289 0.22524 0.0
H2413 H 0.3116 0.12966 0.20702 0.0
H2414 H 0.34826 0.09877 0.1694 0.0
H2415 H 0.35166 0.06261 0.18755 0.0
H2416 H 0.37444 0.15976 0.169 0.0
H2417 H 0.26983 0.07387 0.17282 0.0
H2418 H 0.22214 0.03699 0.18692 0.0
H2419 H 0.21278 0.11212 0.20515 0.0
H2420 H 0.26066 0.14952 0.19138 0.0
H2421 H 0.33871 0.22813 0.10492 0.0
H2422 H 0.33942 0.18945 0.12246 0.0
H2423 H 0.30026 0.21743 0.16018 0.0
H2424 H 0.2986 0.25535 0.14268 0.0
H2425 H 0.27498 0.15731 0.16031 0.0
H2426 H 0.37898 0.24308 0.15793 0.0
H2427 H 0.42715 0.2815 0.14476 0.0
H2428 H 0.4383 0.20848 0.12491 0.0
H2429 H 0.38995 0.16961 0.13781 0.0
C2430 C 0.32187 0.09405 0.21312 0.0
C2431 C 0.33298 0.07468 0.20785 0.0
C2432 C 0.32021 0.11496 0.20269 0.0
C2433 C 0.32924 0.11658 0.18677 0.0
C2434 C 0.34107 0.09785 0.18161 0.0
C2435 C 0.34295 0.07714 0.19203 0.0
C2436 C 0.32626 0.13762 0.1754 0.0
C2437 C 0.35259 0.15895 0.16695 0.0
C2438 C 0.29792 0.13706 0.173 0.0
C2439 C 0.269 0.11451 0.18117 0.0
C2440 C 0.25772 0.08254 0.17992 0.0
C2441 C 0.23065 0.06154 0.18784 0.0
C2442 C 0.21449 0.07219 0.19693 0.0
C2443 C 0.22534 0.10389 0.19811 0.0
C2444 C 0.25243 0.125 0.19024 0.0
C2445 C 0.32998 0.22585 0.1169 0.0
C2446 C 0.31882 0.24502 0.12242 0.0
C2447 C 0.33056 0.20384 0.12695 0.0
C2448 C 0.32043 0.20094 0.14274 0.0
C2449 C 0.30828 0.2193 0.14807 0.0
C2450 C 0.30742 0.24105 0.13802 0.0
C2451 C 0.32316 0.17944 0.15391 0.0
C2452 C 0.2968 0.15805 0.16232 0.0
C2453 C 0.35153 0.18011 0.15639 0.0
C2454 C 0.38069 0.20344 0.1487 0.0
C2455 C 0.39159 0.23522 0.15067 0.0
C2456 C 0.41894 0.25708 0.14327 0.0
C2457 C 0.43573 0.24744 0.13397 0.0
C2458 C 0.42525 0.21592 0.1321 0.0
C2459 C 0.39789 0.19396 0.13946 0.0
H2460 H 0.4569 0.26439 0.12825 0.0
H2461 H 0.19354 0.05588 0.20305 0.0
H2462 H 0.77187 0.05174 0.13149 0.0
H2463 H 0.80791 0.09148 0.14964 0.0
H2464 H 0.78424 0.15664 0.12986 0.0
H2465 H 0.7486 0.11706 0.1113 0.0
H2466 H 0.84476 0.18458 0.13745 0.0
H2467 H 0.74863 0.1161 0.16337 0.0
H2468 H 0.70569 0.06523 0.17158 0.0
H2469 H 0.76911 0.04743 0.19758 0.0
H2470 H 0.81251 0.09804 0.18933 0.0
H2471 H 0.90036 0.28838 0.20145 0.0
H2472 H 0.86422 0.25046 0.18259 0.0
H2473 H 0.88293 0.1815 0.20199 0.0
H2474 H 0.91834 0.21913 0.22133 0.0
H2475 H 0.82398 0.15617 0.1944 0.0
H2476 H 0.92036 0.22463 0.16799 0.0
H2477 H 0.96308 0.27556 0.15965 0.0
H2478 H 0.89893 0.29365 0.13459 0.0
H2479 H 0.85576 0.24295 0.14294 0.0
C2480 C 0.77471 0.07467 0.13081 0.0
C2481 C 0.75708 0.08118 0.12014 0.0
C2482 C 0.79522 0.09732 0.14124 0.0
C2483 C 0.79805 0.12672 0.14141 0.0
C2484 C 0.78216 0.13398 0.13002 0.0
C2485 C 0.76186 0.11138 0.11941 0.0
C2486 C 0.81602 0.14905 0.15412 0.0
C2487 C 0.84 0.17854 0.1499 0.0
C2488 C 0.81002 0.14096 0.17038 0.0
C2489 C 0.78386 0.11076 0.17562 0.0
C2490 C 0.75344 0.10127 0.17077 0.0
C2491 C 0.72902 0.07248 0.17544 0.0
C2492 C 0.73468 0.05308 0.18507 0.0
C2493 C 0.76476 0.06247 0.19011 0.0
C2494 C 0.78928 0.09122 0.18545 0.0
C2495 C 0.89642 0.265 0.20186 0.0
C2496 C 0.91245 0.25679 0.21273 0.0
C2497 C 0.87591 0.24341 0.191 0.0
C2498 C 0.8716 0.21342 0.19056 0.0
C2499 C 0.88614 0.20462 0.20203 0.0
C2500 C 0.90632 0.22611 0.21309 0.0
C2501 C 0.85298 0.19166 0.17775 0.0
C2502 C 0.82877 0.16226 0.18195 0.0
C2503 C 0.85877 0.19987 0.16149 0.0
C2504 C 0.8848 0.23011 0.15621 0.0
C2505 C 0.91535 0.23953 0.16076 0.0
C2506 C 0.93965 0.26835 0.15603 0.0
C2507 C 0.93371 0.28786 0.14663 0.0
C2508 C 0.90348 0.27852 0.14188 0.0
C2509 C 0.8791 0.24974 0.1466 0.0
H2510 H 0.95254 0.31019 0.143 0.0
H2511 H 0.71575 0.03078 0.18865 0.0
H2512 H 0.88628 0.64634 0.10664 0.0
H2513 H 0.84683 0.64484 0.12445 0.0
H2514 H 0.9176 0.70151 0.15824 0.0
H2515 H 0.95703 0.70292 0.14069 0.0
H2516 H 0.87073 0.6519 0.17232 0.0
H2517 H 0.88212 0.73142 0.13631 0.0
H2518 H 0.8836 0.75428 0.11017 0.0
H2519 H 0.78936 0.68419 0.10165 0.0
H2520 H 0.78746 0.66063 0.12767 0.0
H2521 H 0.77845 0.68722 0.22328 0.0
H2522 H 0.81815 0.69005 0.2052 0.0
H2523 H 0.74763 0.63377 0.17122 0.0
H2524 H 0.70795 0.63109 0.18903 0.0
H2525 H 0.79446 0.68343 0.15723 0.0
H2526 H 0.78309 0.60368 0.19306 0.0
H2527 H 0.78146 0.58062 0.21917 0.0
H2528 H 0.87553 0.65088 0.22794 0.0
H2529 H 0.87757 0.67462 0.20197 0.0
C2530 C 0.89347 0.65873 0.11779 0.0
C2531 C 0.92481 0.67464 0.12225 0.0
C2532 C 0.87091 0.6579 0.12794 0.0
C2533 C 0.87933 0.67312 0.14265 0.0
C2534 C 0.91061 0.68951 0.14697 0.0
C2535 C 0.93313 0.69036 0.13687 0.0
C2536 C 0.85553 0.6711 0.15386 0.0
C2537 C 0.85431 0.65918 0.1691 0.0
C2538 C 0.83369 0.67993 0.14951 0.0
C2539 C 0.83476 0.69408 0.13387 0.0
C2540 C 0.8618 0.72072 0.12881 0.0
C2541 C 0.86269 0.73384 0.11402 0.0
C2542 C 0.83662 0.72065 0.10424 0.0
C2543 C 0.80956 0.69435 0.10924 0.0
C2544 C 0.80855 0.68113 0.12401 0.0
C2545 C 0.77138 0.67526 0.21201 0.0
C2546 C 0.74002 0.65898 0.20761 0.0
C2547 C 0.79408 0.67686 0.20171 0.0
C2548 C 0.78579 0.66202 0.18689 0.0
C2549 C 0.75452 0.64547 0.18257 0.0
C2550 C 0.73186 0.64388 0.19282 0.0
C2551 C 0.80968 0.66425 0.17569 0.0
C2552 C 0.81091 0.67617 0.16045 0.0
C2553 C 0.83151 0.6554 0.18003 0.0
C2554 C 0.83037 0.64111 0.19564 0.0
C2555 C 0.80334 0.61436 0.20061 0.0
C2556 C 0.80236 0.60114 0.21538 0.0
C2557 C 0.82834 0.61432 0.22523 0.0
C2558 C 0.8554 0.64071 0.22031 0.0
C2559 C 0.85649 0.65405 0.20556 0.0
H2560 H 0.82754 0.60405 0.23665 0.0
H2561 H 0.83736 0.73084 0.0928 0.0
H2562 H 0.66896 0.7797 0.8954 0.0
H2563 H 0.66915 0.82015 0.87905 0.0
H2564 H 0.70962 0.79578 0.84043 0.0
H2565 H 0.71083 0.75638 0.85689 0.0
H2566 H 0.73361 0.85539 0.84101 0.0
H2567 H 0.62968 0.7683 0.84344 0.0
H2568 H 0.58214 0.72932 0.85688 0.0
H2569 H 0.57119 0.80146 0.87806 0.0
H2570 H 0.6189 0.84088 0.86489 0.0
H2571 H 0.68834 0.91386 0.77588 0.0
H2572 H 0.69437 0.88012 0.79476 0.0
H2573 H 0.6577 0.91163 0.83209 0.0
H2574 H 0.65085 0.94477 0.81328 0.0
H2575 H 0.63292 0.8508 0.83321 0.0
H2576 H 0.73633 0.93803 0.82875 0.0
H2577 H 0.78353 0.97568 0.81454 0.0
H2578 H 0.79465 0.90178 0.79604 0.0
H2579 H 0.7474 0.86363 0.81001 0.0
C2580 C 0.67836 0.78326 0.88354 0.0
C2581 C 0.68968 0.76461 0.87746 0.0
C2582 C 0.67825 0.80627 0.87415 0.0
C2583 C 0.68877 0.81055 0.85838 0.0
C2584 C 0.70128 0.79286 0.85253 0.0
C2585 C 0.70185 0.77023 0.86198 0.0
C2586 C 0.68551 0.83235 0.84768 0.0
C2587 C 0.71154 0.85423 0.83921 0.0
C2588 C 0.65683 0.83119 0.84551 0.0
C2589 C 0.62801 0.80752 0.85332 0.0
C2590 C 0.61723 0.77584 0.85104 0.0
C2591 C 0.59024 0.75367 0.8586 0.0
C2592 C 0.5737 0.76291 0.86835 0.0
C2593 C 0.58405 0.79434 0.87052 0.0
C2594 C 0.61105 0.8166 0.86301 0.0
C2595 C 0.68142 0.91352 0.78808 0.0
C2596 C 0.6691 0.93204 0.79304 0.0
C2597 C 0.68511 0.8944 0.79889 0.0
C2598 C 0.67693 0.89373 0.81489 0.0
C2599 C 0.66426 0.91186 0.81981 0.0
C2600 C 0.66038 0.93081 0.80902 0.0
C2601 C 0.68096 0.8737 0.82647 0.0
C2602 C 0.65505 0.85213 0.8351 0.0
C2603 C 0.70968 0.87498 0.82866 0.0
C2604 C 0.73818 0.89796 0.82033 0.0
C2605 C 0.74872 0.92979 0.82157 0.0
C2606 C 0.7755 0.95122 0.81357 0.0
C2607 C 0.792 0.94113 0.80436 0.0
C2608 C 0.78183 0.90957 0.80316 0.0
C2609 C 0.75509 0.88803 0.81114 0.0
H2610 H 0.8127 0.95777 0.79818 0.0
H2611 H 0.55282 0.74571 0.87419 0.0
H2612 H 0.08535 0.71315 0.80696 0.0
H2613 H 0.12243 0.75538 0.82354 0.0
H2614 H 0.13989 0.82013 0.78566 0.0
H2615 H 0.10239 0.77781 0.76884 0.0
H2616 H 0.19433 0.82935 0.80248 0.0
H2617 H 0.09608 0.82003 0.81263 0.0
H2618 H 0.04029 0.79268 0.81844 0.0
H2619 H 0.05667 0.76058 0.86266 0.0
H2620 H 0.11269 0.78763 0.85703 0.0
H2621 H 0.26688 0.96117 0.85271 0.0
H2622 H 0.2312 0.92288 0.83385 0.0
H2623 H 0.20327 0.85159 0.86933 0.0
H2624 H 0.23901 0.88971 0.88833 0.0
H2625 H 0.15377 0.84816 0.85249 0.0
H2626 H 0.25302 0.85795 0.84166 0.0
H2627 H 0.30872 0.88624 0.83539 0.0
H2628 H 0.2902 0.9186 0.79184 0.0
H2629 H 0.23439 0.89084 0.79797 0.0
C2630 C 0.09724 0.73627 0.80202 0.0
C2631 C 0.09067 0.74212 0.78659 0.0
C2632 C 0.11837 0.76039 0.81156 0.0
C2633 C 0.13352 0.79083 0.80587 0.0
C2634 C 0.12826 0.79672 0.79024 0.0
C2635 C 0.10682 0.77255 0.78068 0.0
C2636 C 0.15378 0.8164 0.81664 0.0
C2637 C 0.18546 0.83388 0.81329 0.0
C2638 C 0.14214 0.82186 0.83082 0.0
C2639 C 0.10853 0.8056 0.83433 0.0
C2640 C 0.08776 0.80693 0.82353 0.0
C2641 C 0.05609 0.79152 0.82681 0.0
C2642 C 0.04488 0.77476 0.84088 0.0
C2643 C 0.06538 0.77352 0.85175 0.0
C2644 C 0.09711 0.78894 0.84854 0.0
C2645 C 0.25306 0.9374 0.85658 0.0
C2646 C 0.25593 0.92852 0.87206 0.0
C2647 C 0.23275 0.91554 0.84575 0.0
C2648 C 0.21491 0.8844 0.85016 0.0
C2649 C 0.21694 0.87555 0.86571 0.0
C2650 C 0.23739 0.89738 0.87655 0.0
C2651 C 0.19447 0.86095 0.83846 0.0
C2652 C 0.16268 0.84382 0.84165 0.0
C2653 C 0.20604 0.856 0.82409 0.0
C2654 C 0.23957 0.8726 0.82036 0.0
C2655 C 0.26085 0.87132 0.83081 0.0
C2656 C 0.29243 0.88721 0.82727 0.0
C2657 C 0.303 0.90428 0.81325 0.0
C2658 C 0.28199 0.90541 0.80271 0.0
C2659 C 0.25037 0.88959 0.80621 0.0
H2660 H 0.32746 0.91656 0.81053 0.0
H2661 H 0.02033 0.76283 0.84338 0.0
H2662 H 0.08708 0.31 0.8917 0.0
H2663 H 0.12626 0.31293 0.87313 0.0
H2664 H 0.08782 0.34366 0.8362 0.0
H2665 H 0.0474 0.33822 0.85432 0.0
H2666 H 0.10305 0.3098 0.82312 0.0
H2667 H 0.15727 0.39383 0.8591 0.0
H2668 H 0.175 0.41949 0.88507 0.0
H2669 H 0.21958 0.36659 0.89443 0.0
H2670 H 0.20177 0.34033 0.86859 0.0
H2671 H 0.27932 0.39307 0.79784 0.0
H2672 H 0.23747 0.39013 0.8142 0.0
H2673 H 0.18053 0.29364 0.80193 0.0
H2674 H 0.22147 0.29728 0.78469 0.0
H2675 H 0.21334 0.36263 0.83911 0.0
H2676 H 0.10544 0.26796 0.80525 0.0
H2677 H 0.08901 0.25133 0.77767 0.0
H2678 H 0.15415 0.34231 0.76091 0.0
H2679 H 0.17066 0.35961 0.78839 0.0
C2680 C 0.08699 0.31709 0.87956 0.0
C2681 C 0.06431 0.32384 0.87439 0.0
C2682 C 0.10951 0.31906 0.86898 0.0
C2683 C 0.11053 0.32918 0.85328 0.0
C2684 C 0.08761 0.33568 0.84818 0.0
C2685 C 0.06453 0.33265 0.85856 0.0
C2686 C 0.13541 0.33322 0.84212 0.0
C2687 C 0.12718 0.32146 0.82664 0.0
C2688 C 0.16706 0.34909 0.84646 0.0
C2689 C 0.17792 0.36491 0.86198 0.0
C2690 C 0.17069 0.38754 0.86675 0.0
C2691 C 0.18077 0.4022 0.88143 0.0
C2692 C 0.19833 0.39461 0.89141 0.0
C2693 C 0.20593 0.37241 0.8867 0.0
C2694 C 0.19587 0.35765 0.87203 0.0
C2695 C 0.25759 0.37145 0.79843 0.0
C2696 C 0.25344 0.34549 0.78992 0.0
C2697 C 0.23376 0.36968 0.80786 0.0
C2698 C 0.20559 0.34173 0.80925 0.0
C2699 C 0.20158 0.31574 0.80075 0.0
C2700 C 0.22505 0.31778 0.79094 0.0
C2701 C 0.181 0.33942 0.82008 0.0
C2702 C 0.18925 0.35124 0.83555 0.0
C2703 C 0.14955 0.32509 0.81545 0.0
C2704 C 0.13949 0.31497 0.79888 0.0
C2705 C 0.11616 0.28445 0.79569 0.0
C2706 C 0.10686 0.2749 0.78007 0.0
C2707 C 0.1206 0.29572 0.76754 0.0
C2708 C 0.1436 0.32618 0.77061 0.0
C2709 C 0.15296 0.33585 0.78621 0.0
H2710 H 0.11339 0.28828 0.75546 0.0
H2711 H 0.20611 0.40599 0.90278 0.0
H2712 H 0.93993 0.56006 0.46877 0.0
H2713 H 0.94412 0.52368 0.48645 0.0
H2714 H 0.02114 0.53239 0.45915 0.0
H2715 H 0.01688 0.56859 0.44119 0.0
H2716 H 0.98305 0.47275 0.46987 0.0
H2717 H 0.03476 0.576 0.4915 0.0
H2718 H 0.03784 0.62483 0.49977 0.0
H2719 H 0.96525 0.57561 0.53368 0.0
H2720 H 0.96143 0.5264 0.52544 0.0
H2721 H 0.04662 0.41949 0.52738 0.0
H2722 H 0.04138 0.45424 0.50895 0.0
H2723 H 0.96771 0.45008 0.53752 0.0
H2724 H 0.97329 0.4158 0.55629 0.0
H2725 H 0.00388 0.50724 0.52603 0.0
H2726 H 0.95143 0.40438 0.50474 0.0
H2727 H 0.94692 0.35492 0.49657 0.0
H2728 H 0.01911 0.40231 0.46223 0.0
H2729 H 0.02428 0.45218 0.47034 0.0
C2730 C 0.95743 0.55386 0.46632 0.0
C2731 C 0.9784 0.56761 0.4537 0.0
C2732 C 0.95984 0.53312 0.47648 0.0
C2733 C 0.98341 0.52597 0.47432 0.0
C2734 C 0.00294 0.53784 0.46108 0.0
C2735 C 0.00046 0.55852 0.45083 0.0
C2736 C 0.98907 0.50803 0.48651 0.0
C2737 C 0.98797 0.48044 0.48211 0.0
C2738 C 0.99489 0.51784 0.50254 0.0
C2739 C 0.99764 0.54749 0.50776 0.0
C2740 C 0.01935 0.57557 0.50066 0.0
C2741 C 0.02123 0.60332 0.50535 0.0
C2742 C 0.0017 0.60331 0.51722 0.0
C2743 C 0.98033 0.57557 0.52448 0.0
C2744 C 0.97832 0.54775 0.51982 0.0
C2745 C 0.02957 0.42628 0.52989 0.0
C2746 C 0.01009 0.41456 0.5432 0.0
C2747 C 0.02651 0.44603 0.51929 0.0
C2748 C 0.00363 0.45409 0.52166 0.0
C2749 C 0.98536 0.44393 0.53541 0.0
C2750 C 0.98859 0.42435 0.54613 0.0
C2751 C 0.99784 0.4719 0.50941 0.0
C2752 C 0.99896 0.49951 0.5138 0.0
C2753 C 0.99188 0.46202 0.49339 0.0
C2754 C 0.98842 0.43203 0.48824 0.0
C2755 C 0.96645 0.40427 0.4955 0.0
C2756 C 0.96377 0.37616 0.49088 0.0
C2757 C 0.98279 0.37546 0.47893 0.0
C2758 C 0.00442 0.40288 0.47151 0.0
C2759 C 0.0072 0.43108 0.47609 0.0
H2760 H 0.98071 0.35366 0.47539 0.0
H2761 H 0.00316 0.62481 0.52082 0.0
H2762 H 0.57575 0.55311 0.55831 0.0
H2763 H 0.53946 0.51254 0.54041 0.0
H2764 H 0.54103 0.58184 0.50926 0.0
H2765 H 0.57708 0.62245 0.52703 0.0
H2766 H 0.48264 0.53235 0.51288 0.0
H2767 H 0.58457 0.551 0.5005 0.0
H2768 H 0.63522 0.55605 0.50641 0.0
H2769 H 0.5904 0.46181 0.5224 0.0
H2770 H 0.53938 0.45629 0.51673 0.0
H2771 H 0.42437 0.44541 0.44255 0.0
H2772 H 0.46025 0.48449 0.46115 0.0
H2773 H 0.45614 0.41274 0.49129 0.0
H2774 H 0.42042 0.3735 0.47279 0.0
H2775 H 0.51517 0.46247 0.48872 0.0
H2776 H 0.41296 0.44363 0.50021 0.0
H2777 H 0.36259 0.43896 0.49389 0.0
H2778 H 0.40824 0.5341 0.47935 0.0
H2779 H 0.45895 0.53921 0.48537 0.0
C2780 C 0.56807 0.5597 0.54776 0.0
C2781 C 0.57953 0.59103 0.54403 0.0
C2782 C 0.54747 0.53651 0.53751 0.0
C2783 C 0.53795 0.54427 0.52342 0.0
C2784 C 0.54819 0.5754 0.52006 0.0
C2785 C 0.56888 0.59857 0.53022 0.0
C2786 C 0.51829 0.52013 0.51181 0.0
C2787 C 0.48986 0.51726 0.50748 0.0
C2788 C 0.52756 0.50015 0.50498 0.0
C2789 C 0.55816 0.50335 0.50837 0.0
C2790 C 0.5855 0.53143 0.5054 0.0
C2791 C 0.61428 0.53436 0.50869 0.0
C2792 C 0.61605 0.50931 0.51484 0.0
C2793 C 0.589 0.48122 0.51766 0.0
C2794 C 0.56014 0.47816 0.5144 0.0
C2795 C 0.43139 0.43793 0.45303 0.0
C2796 C 0.41927 0.40631 0.45626 0.0
C2797 C 0.45178 0.46029 0.46367 0.0
C2798 C 0.4604 0.45142 0.4777 0.0
C2799 C 0.44963 0.42001 0.48056 0.0
C2800 C 0.42915 0.39764 0.46998 0.0
C2801 C 0.47958 0.47478 0.48974 0.0
C2802 C 0.5079 0.47749 0.49416 0.0
C2803 C 0.47024 0.49465 0.49663 0.0
C2804 C 0.43977 0.49171 0.49309 0.0
C2805 C 0.41228 0.46348 0.49555 0.0
C2806 C 0.38366 0.46077 0.49204 0.0
C2807 C 0.38222 0.48619 0.48618 0.0
C2808 C 0.40939 0.51441 0.48386 0.0
C2809 C 0.43808 0.51724 0.48733 0.0
H2810 H 0.36004 0.48405 0.48348 0.0
H2811 H 0.63836 0.51164 0.51737 0.0
H2812 H 0.55288 0.98037 0.44057 0.0
H2813 H 0.51418 0.97794 0.45925 0.0
H2814 H 0.58588 0.02897 0.49367 0.0
H2815 H 0.62465 0.03192 0.47511 0.0
H2816 H 0.49922 0.95082 0.48821 0.0
H2817 H 0.56593 0.0724 0.51645 0.0
H2818 H 0.60548 0.12552 0.50903 0.0
H2819 H 0.57731 0.10626 0.46028 0.0
H2820 H 0.53735 0.05318 0.46743 0.0
H2821 H 0.44668 0.01456 0.56006 0.0
H2822 H 0.48677 0.01658 0.54252 0.0
H2823 H 0.4174 0.96326 0.50744 0.0
H2824 H 0.37733 0.96054 0.52489 0.0
H2825 H 0.50393 0.04247 0.51389 0.0
H2826 H 0.4381 0.92004 0.4858 0.0
H2827 H 0.39895 0.86691 0.49342 0.0
H2828 H 0.42581 0.88774 0.54226 0.0
H2829 H 0.4654 0.94084 0.53492 0.0
C2830 C 0.56046 0.99139 0.45204 0.0
C2831 C 0.59188 0.00632 0.45633 0.0
C2832 C 0.5383 0.98986 0.46272 0.0
C2833 C 0.54717 0.0034 0.47781 0.0
C2834 C 0.57854 0.01872 0.48202 0.0
C2835 C 0.60068 0.02028 0.47138 0.0
C2836 C 0.52356 0.00056 0.48941 0.0
C2837 C 0.49996 0.97086 0.49366 0.0
C2838 C 0.52519 0.0267 0.49689 0.0
C2839 C 0.54886 0.05872 0.49247 0.0
C2840 C 0.5681 0.07955 0.50416 0.0
C2841 C 0.59061 0.10964 0.49999 0.0
C2842 C 0.59397 0.11922 0.48418 0.0
C2843 C 0.57476 0.09877 0.47251 0.0
C2844 C 0.55222 0.06866 0.47661 0.0
C2845 C 0.43993 0.0029 0.5487 0.0
C2846 C 0.40877 0.9874 0.5439 0.0
C2847 C 0.46288 0.00419 0.53867 0.0
C2848 C 0.45507 0.98989 0.52372 0.0
C2849 C 0.42395 0.97402 0.51903 0.0
C2850 C 0.40105 0.97261 0.52903 0.0
C2851 C 0.47943 0.99271 0.51264 0.0
C2852 C 0.50321 0.0224 0.50848 0.0
C2853 C 0.47803 0.96656 0.50528 0.0
C2854 C 0.45453 0.93452 0.50981 0.0
C2855 C 0.43575 0.91324 0.49816 0.0
C2856 C 0.41346 0.88314 0.50243 0.0
C2857 C 0.40983 0.87399 0.51832 0.0
C2858 C 0.42856 0.89489 0.52996 0.0
C2859 C 0.4509 0.92501 0.52575 0.0
H2860 H 0.39254 0.85068 0.5216 0.0
H2861 H 0.61142 0.14252 0.48098 0.0
loop_
_geom_bond_atom_site_label_1
_geom_bond_atom_site_label_2
_geom_bond_distance
_geom_bond_site_symmetry_2
_ccdc_geom_bond_type
Co0 O3 1.970 . S
Co0 N17 1.989 . S
Co0 O25 1.967 . S
Co0 O32 1.920 . S
Co1 O4 1.966 . S
Co1 N10 2.022 . S
Co1 N18 1.993 . S
Co1 O26 1.941 . S
C2 O3 1.258 . S
C2 O4 1.263 . S
O3 Co0 1.970 . S
O3 C2 1.258 . S
O4 Co1 1.966 . S
O4 C2 1.263 . S
C5 O6 1.235 . S
C5 O32 1.289 . S
O6 C5 1.235 . S
C7 C9 1.400 . S
C7 N10 1.351 . S
C7 C12 1.501 . S
C8 C9 1.387 . S
C8 N11 1.341 . S
C9 C7 1.400 . S
C9 C8 1.387 . S
N10 Co1 2.022 . S
N10 C7 1.351 . S
N10 N11 1.365 . S
N11 C8 1.341 . S
N11 N10 1.365 . S
N11 H31 0.862 . S
C12 C7 1.501 . S
C12 H13 0.961 . S
C12 H14 0.961 . S
C12 H15 0.960 . S
H13 C12 0.961 . S
H14 C12 0.961 . S
H15 C12 0.960 . S
C16 N17 1.342 . S
C16 C20 1.401 . S
C16 C21 1.499 . S
N17 Co0 1.989 . S
N17 C16 1.342 . S
N17 N18 1.388 . S
N18 Co1 1.993 . S
N18 N17 1.388 . S
N18 C19 1.346 . S
C19 N18 1.346 . S
C19 C20 1.396 . S
C19 C29 1.510 . S
C20 C16 1.401 . S
C20 C19 1.396 . S
C21 C16 1.499 . S
C21 H22 0.959 . S
C21 H23 0.960 . S
C21 H24 0.961 . S
H22 C21 0.959 . S
H23 C21 0.960 . S
H24 C21 0.961 . S
O25 Co0 1.967 . S
O25 C33 1.258 . S
O26 Co1 1.941 . S
O26 C33 1.266 . S
H27 C29 0.959 . S
H28 C29 0.961 . S
C29 C19 1.510 . S
C29 H27 0.959 . S
C29 H28 0.961 . S
C29 H30 0.960 . S
H30 C29 0.960 . S
H31 N11 0.862 . S
O32 Co0 1.920 . S
O32 C5 1.289 . S
C33 O25 1.258 . S
C33 O26 1.266 . S
Co34 O37 1.970 1_565 S
Co34 N51 1.989 . S
Co34 O59 1.967 . S
Co34 O66 1.920 . S
Co35 O38 1.966 . S
Co35 N44 2.022 . S
Co35 N52 1.993 1_545 S
Co35 O60 1.941 . S
C36 O37 1.258 . S
C36 O38 1.263 . S
O37 Co34 1.970 1_545 S
O37 C36 1.258 . S
O38 Co35 1.966 . S
O38 C36 1.263 . S
C39 O40 1.235 . S
C39 O66 1.289 . S
O40 C39 1.235 . S
C41 C43 1.400 . S
C41 N44 1.351 . S
C41 C46 1.501 . S
C42 C43 1.387 . S
C42 N45 1.341 . S
C43 C41 1.400 . S
C43 C42 1.387 . S
N44 Co35 2.022 . S
N44 C41 1.351 . S
N44 N45 1.365 . S
N45 C42 1.341 . S
N45 N44 1.365 . S
N45 H65 0.862 . S
C46 C41 1.501 . S
C46 H47 0.961 . S
C46 H48 0.961 . S
C46 H49 0.960 . S
H47 C46 0.961 . S
H48 C46 0.961 . S
H49 C46 0.960 . S
C50 N51 1.342 . S
C50 C54 1.401 . S
C50 C55 1.499 . S
N51 Co34 1.989 . S
N51 C50 1.342 . S
N51 N52 1.388 . S
N52 Co35 1.993 1_565 S
N52 N51 1.388 . S
N52 C53 1.346 . S
C53 N52 1.346 . S
C53 C54 1.396 . S
C53 C63 1.510 . S
C54 C50 1.401 . S
C54 C53 1.396 . S
C55 C50 1.499 . S
C55 H56 0.959 . S
C55 H57 0.960 . S
C55 H58 0.961 . S
H56 C55 0.959 . S
H57 C55 0.960 . S
H58 C55 0.961 . S
O59 Co34 1.967 . S
O59 C67 1.258 1_565 S
O60 Co35 1.941 . S
O60 C67 1.266 . S
H61 C63 0.959 . S
H62 C63 0.961 . S
C63 C53 1.510 . S
C63 H61 0.959 . S
C63 H62 0.961 . S
C63 H64 0.960 1_565 S
H64 C63 0.960 1_545 S
H65 N45 0.862 . S
O66 Co34 1.920 . S
O66 C39 1.289 . S
C67 O59 1.258 1_545 S
C67 O60 1.266 . S
Co68 O71 1.970 1_455 S
Co68 N85 1.989 . S
Co68 O93 1.967 . S
Co68 O100 1.920 . S
Co69 O72 1.966 . S
Co69 N78 2.022 . S
Co69 N86 1.993 1_655 S
Co69 O94 1.941 . S
C70 O71 1.258 . S
C70 O72 1.263 . S
O71 Co68 1.970 1_655 S
O71 C70 1.258 . S
O72 Co69 1.966 . S
O72 C70 1.263 . S
C73 O74 1.235 . S
C73 O100 1.289 . S
O74 C73 1.235 . S
C75 C77 1.400 . S
C75 N78 1.351 . S
C75 C80 1.501 . S
C76 C77 1.387 . S
C76 N79 1.341 . S
C77 C75 1.400 . S
C77 C76 1.387 . S
N78 Co69 2.022 . S
N78 C75 1.351 . S
N78 N79 1.365 . S
N79 C76 1.341 . S
N79 N78 1.365 . S
N79 H99 0.862 . S
C80 C75 1.501 . S
C80 H81 0.961 . S
C80 H82 0.961 . S
C80 H83 0.960 . S
H81 C80 0.961 . S
H82 C80 0.961 . S
H83 C80 0.960 . S
C84 N85 1.342 . S
C84 C88 1.401 . S
C84 C89 1.499 . S
N85 Co68 1.989 . S
N85 C84 1.342 . S
N85 N86 1.388 . S
N86 Co69 1.993 1_455 S
N86 N85 1.388 . S
N86 C87 1.346 . S
C87 N86 1.346 . S
C87 C88 1.396 . S
C87 C97 1.510 . S
C88 C84 1.401 . S
C88 C87 1.396 . S
C89 C84 1.499 . S
C89 H90 0.959 . S
C89 H91 0.960 . S
C89 H92 0.961 . S
H90 C89 0.959 . S
H91 C89 0.960 . S
H92 C89 0.961 . S
O93 Co68 1.967 . S
O93 C101 1.258 1_455 S
O94 Co69 1.941 . S
O94 C101 1.266 . S
H95 C97 0.959 . S
H96 C97 0.961 . S
C97 C87 1.510 . S
C97 H95 0.959 . S
C97 H96 0.961 . S
C97 H98 0.960 1_455 S
H98 C97 0.960 1_655 S
H99 N79 0.862 . S
O100 Co68 1.920 . S
O100 C73 1.289 . S
C101 O93 1.258 1_655 S
C101 O94 1.266 . S
Co102 O105 1.970 . S
Co102 N119 1.989 . S
Co102 O127 1.967 . S
Co102 O134 1.920 . S
Co103 O106 1.966 . S
Co103 N112 2.022 . S
Co103 N120 1.993 . S
Co103 O128 1.941 . S
C104 O105 1.258 . S
C104 O106 1.263 . S
O105 Co102 1.970 . S
O105 C104 1.258 . S
O106 Co103 1.966 . S
O106 C104 1.263 . S
C107 O108 1.235 . S
C107 O134 1.289 . S
O108 C107 1.235 . S
C109 C111 1.400 . S
C109 N112 1.351 . S
C109 C114 1.501 . S
C110 C111 1.387 . S
C110 N113 1.341 . S
C111 C109 1.400 . S
C111 C110 1.387 . S
N112 Co103 2.022 . S
N112 C109 1.351 . S
N112 N113 1.365 . S
N113 C110 1.341 . S
N113 N112 1.365 . S
N113 H133 0.862 . S
C114 C109 1.501 . S
C114 H115 0.961 . S
C114 H116 0.961 . S
C114 H117 0.960 . S
H115 C114 0.961 . S
H116 C114 0.961 . S
H117 C114 0.960 . S
C118 N119 1.342 . S
C118 C122 1.401 . S
C118 C123 1.499 . S
N119 Co102 1.989 . S
N119 C118 1.342 . S
N119 N120 1.388 . S
N120 Co103 1.993 . S
N120 N119 1.388 . S
N120 C121 1.346 . S
C121 N120 1.346 . S
C121 C122 1.396 . S
C121 C131 1.510 . S
C122 C118 1.401 . S
C122 C121 1.396 . S
C123 C118 1.499 . S
C123 H124 0.959 . S
C123 H125 0.960 . S
C123 H126 0.961 . S
H124 C123 0.959 . S
H125 C123 0.960 . S
H126 C123 0.961 . S
O127 Co102 1.967 . S
O127 C135 1.258 . S
O128 Co103 1.941 . S
O128 C135 1.266 . S
H129 C131 0.959 . S
H130 C131 0.961 . S
C131 C121 1.510 . S
C131 H129 0.959 . S
C131 H130 0.961 . S
C131 H132 0.960 . S
H132 C131 0.960 . S
H133 N113 0.862 . S
O134 Co102 1.920 . S
O134 C107 1.289 . S
C135 O127 1.258 . S
C135 O128 1.266 . S
Co136 O139 1.970 1_545 S
Co136 N153 1.989 . S
Co136 O161 1.967 . S
Co136 O168 1.920 . S
Co137 O140 1.966 . S
Co137 N146 2.022 . S
Co137 N154 1.993 1_565 S
Co137 O162 1.941 . S
C138 O139 1.258 . S
C138 O140 1.263 . S
O139 Co136 1.970 1_565 S
O139 C138 1.258 . S
O140 Co137 1.966 . S
O140 C138 1.263 . S
C141 O142 1.235 . S
C141 O168 1.289 . S
O142 C141 1.235 . S
C143 C145 1.400 . S
C143 N146 1.351 . S
C143 C148 1.501 . S
C144 C145 1.387 . S
C144 N147 1.341 . S
C145 C143 1.400 . S
C145 C144 1.387 . S
N146 Co137 2.022 . S
N146 C143 1.351 . S
N146 N147 1.365 . S
N147 C144 1.341 . S
N147 N146 1.365 . S
N147 H167 0.862 . S
C148 C143 1.501 . S
C148 H149 0.961 . S
C148 H150 0.961 . S
C148 H151 0.960 . S
H149 C148 0.961 . S
H150 C148 0.961 . S
H151 C148 0.960 . S
C152 N153 1.342 . S
C152 C156 1.401 . S
C152 C157 1.499 . S
N153 Co136 1.989 . S
N153 C152 1.342 . S
N153 N154 1.388 . S
N154 Co137 1.993 1_545 S
N154 N153 1.388 . S
N154 C155 1.346 . S
C155 N154 1.346 . S
C155 C156 1.396 . S
C155 C165 1.510 . S
C156 C152 1.401 . S
C156 C155 1.396 . S
C157 C152 1.499 . S
C157 H158 0.959 . S
C157 H159 0.960 . S
C157 H160 0.961 . S
H158 C157 0.959 . S
H159 C157 0.960 . S
H160 C157 0.961 . S
O161 Co136 1.967 . S
O161 C169 1.258 1_545 S
O162 Co137 1.941 . S
O162 C169 1.266 . S
H163 C165 0.959 . S
H164 C165 0.961 . S
C165 C155 1.510 . S
C165 H163 0.959 . S
C165 H164 0.961 . S
C165 H166 0.960 1_545 S
H166 C165 0.960 1_565 S
H167 N147 0.862 . S
O168 Co136 1.920 . S
O168 C141 1.289 . S
C169 O161 1.258 1_565 S
C169 O162 1.266 . S
Co170 O173 1.970 1_655 S
Co170 N187 1.989 . S
Co170 O195 1.967 . S
Co170 O202 1.920 . S
Co171 O174 1.966 . S
Co171 N180 2.022 . S
Co171 N188 1.993 1_455 S
Co171 O196 1.941 . S
C172 O173 1.258 . S
C172 O174 1.263 . S
O173 Co170 1.970 1_455 S
O173 C172 1.258 . S
O174 Co171 1.966 . S
O174 C172 1.263 . S
C175 O176 1.235 . S
C175 O202 1.289 . S
O176 C175 1.235 . S
C177 C179 1.400 . S
C177 N180 1.351 . S
C177 C182 1.501 . S
C178 C179 1.387 . S
C178 N181 1.341 . S
C179 C177 1.400 . S
C179 C178 1.387 . S
N180 Co171 2.022 . S
N180 C177 1.351 . S
N180 N181 1.365 . S
N181 C178 1.341 . S
N181 N180 1.365 . S
N181 H201 0.862 . S
C182 C177 1.501 . S
C182 H183 0.961 . S
C182 H184 0.961 . S
C182 H185 0.960 . S
H183 C182 0.961 . S
H184 C182 0.961 . S
H185 C182 0.960 . S
C186 N187 1.342 . S
C186 C190 1.401 . S
C186 C191 1.499 . S
N187 Co170 1.989 . S
N187 C186 1.342 . S
N187 N188 1.388 . S
N188 Co171 1.993 1_655 S
N188 N187 1.388 . S
N188 C189 1.346 . S
C189 N188 1.346 . S
C189 C190 1.396 . S
C189 C199 1.510 . S
C190 C186 1.401 . S
C190 C189 1.396 . S
C191 C186 1.499 . S
C191 H192 0.959 . S
C191 H193 0.960 . S
C191 H194 0.961 . S
H192 C191 0.959 . S
H193 C191 0.960 . S
H194 C191 0.961 . S
O195 Co170 1.967 . S
O195 C203 1.258 1_655 S
O196 Co171 1.941 . S
O196 C203 1.266 . S
H197 C199 0.959 . S
H198 C199 0.961 . S
C199 C189 1.510 . S
C199 H197 0.959 . S
C199 H198 0.961 . S
C199 H200 0.960 1_655 S
H200 C199 0.960 1_455 S
H201 N181 0.862 . S
O202 Co170 1.920 . S
O202 C175 1.289 . S
C203 O195 1.258 1_455 S
C203 O196 1.266 . S
Co204 O207 1.970 . S
Co204 N221 1.989 . S
Co204 O229 1.967 1_655 S
Co204 O236 1.920 . S
Co205 O208 1.966 . S
Co205 N214 2.022 . S
Co205 N222 1.993 1_455 S
Co205 O230 1.941 . S
C206 O207 1.258 . S
C206 O208 1.263 1_655 S
O207 Co204 1.970 . S
O207 C206 1.258 . S
O208 Co205 1.966 . S
O208 C206 1.263 1_455 S
C209 O210 1.235 . S
C209 O236 1.289 . S
O210 C209 1.235 . S
C211 C213 1.400 . S
C211 N214 1.351 . S
C211 C216 1.501 . S
C212 C213 1.387 . S
C212 N215 1.341 . S
C213 C211 1.400 . S
C213 C212 1.387 . S
N214 Co205 2.022 . S
N214 C211 1.351 . S
N214 N215 1.365 . S
N215 C212 1.341 . S
N215 N214 1.365 . S
N215 H235 0.862 . S
C216 C211 1.501 . S
C216 H217 0.961 . S
C216 H218 0.961 1_455 S
C216 H219 0.960 . S
H217 C216 0.961 . S
H218 C216 0.961 1_655 S
H219 C216 0.960 . S
C220 N221 1.342 . S
C220 C224 1.401 . S
C220 C225 1.499 . S
N221 Co204 1.989 . S
N221 C220 1.342 . S
N221 N222 1.388 . S
N222 Co205 1.993 1_655 S
N222 N221 1.388 . S
N222 C223 1.346 . S
C223 N222 1.346 . S
C223 C224 1.396 . S
C223 C233 1.510 . S
C224 C220 1.401 . S
C224 C223 1.396 . S
C225 C220 1.499 . S
C225 H226 0.959 . S
C225 H227 0.960 . S
C225 H228 0.961 . S
H226 C225 0.959 . S
H227 C225 0.960 . S
H228 C225 0.961 . S
O229 Co204 1.967 1_455 S
O229 C237 1.258 . S
O230 Co205 1.941 . S
O230 C237 1.266 . S
H231 C233 0.959 . S
H232 C233 0.961 . S
C233 C223 1.510 . S
C233 H231 0.959 . S
C233 H232 0.961 . S
C233 H234 0.960 . S
H234 C233 0.960 . S
H235 N215 0.862 . S
O236 Co204 1.920 . S
O236 C209 1.289 . S
C237 O229 1.258 . S
C237 O230 1.266 . S
Co238 O241 1.970 . S
Co238 N255 1.989 . S
Co238 O263 1.967 . S
Co238 O270 1.920 . S
Co239 O242 1.966 . S
Co239 N248 2.022 . S
Co239 N256 1.993 . S
Co239 O264 1.941 . S
C240 O241 1.258 . S
C240 O242 1.263 . S
O241 Co238 1.970 . S
O241 C240 1.258 . S
O242 Co239 1.966 . S
O242 C240 1.263 . S
C243 O244 1.235 . S
C243 O270 1.289 . S
O244 C243 1.235 . S
C245 C247 1.400 . S
C245 N248 1.351 . S
C245 C250 1.501 . S
C246 C247 1.387 . S
C246 N249 1.341 . S
C247 C245 1.400 . S
C247 C246 1.387 . S
N248 Co239 2.022 . S
N248 C245 1.351 . S
N248 N249 1.365 . S
N249 C246 1.341 . S
N249 N248 1.365 . S
N249 H269 0.862 . S
C250 C245 1.501 . S
C250 H251 0.961 . S
C250 H252 0.961 . S
C250 H253 0.960 . S
H251 C250 0.961 . S
H252 C250 0.961 . S
H253 C250 0.960 . S
C254 N255 1.342 . S
C254 C258 1.401 . S
C254 C259 1.499 . S
N255 Co238 1.989 . S
N255 C254 1.342 . S
N255 N256 1.388 . S
N256 Co239 1.993 . S
N256 N255 1.388 . S
N256 C257 1.346 . S
C257 N256 1.346 . S
C257 C258 1.396 . S
C257 C267 1.510 . S
C258 C254 1.401 . S
C258 C257 1.396 . S
C259 C254 1.499 . S
C259 H260 0.959 . S
C259 H261 0.960 . S
C259 H262 0.961 . S
H260 C259 0.959 . S
H261 C259 0.960 . S
H262 C259 0.961 . S
O263 Co238 1.967 . S
O263 C271 1.258 . S
O264 Co239 1.941 . S
O264 C271 1.266 . S
H265 C267 0.959 . S
H266 C267 0.961 . S
C267 C257 1.510 . S
C267 H265 0.959 . S
C267 H266 0.961 . S
C267 H268 0.960 . S
H268 C267 0.960 . S
H269 N249 0.862 . S
O270 Co238 1.920 . S
O270 C243 1.289 . S
C271 O263 1.258 . S
C271 O264 1.266 . S
Co272 O275 1.970 . S
Co272 N289 1.989 . S
Co272 O297 1.967 1_545 S
Co272 O304 1.920 . S
Co273 O276 1.966 . S
Co273 N282 2.022 . S
Co273 N290 1.993 1_565 S
Co273 O298 1.941 . S
C274 O275 1.258 . S
C274 O276 1.263 1_545 S
O275 Co272 1.970 . S
O275 C274 1.258 . S
O276 Co273 1.966 . S
O276 C274 1.263 1_565 S
C277 O278 1.235 . S
C277 O304 1.289 . S
O278 C277 1.235 . S
C279 C281 1.400 . S
C279 N282 1.351 . S
C279 C284 1.501 . S
C280 C281 1.387 . S
C280 N283 1.341 . S
C281 C279 1.400 . S
C281 C280 1.387 . S
N282 Co273 2.022 . S
N282 C279 1.351 . S
N282 N283 1.365 . S
N283 C280 1.341 . S
N283 N282 1.365 . S
N283 H303 0.862 . S
C284 C279 1.501 . S
C284 H285 0.961 . S
C284 H286 0.961 1_565 S
C284 H287 0.960 . S
H285 C284 0.961 . S
H286 C284 0.961 1_545 S
H287 C284 0.960 . S
C288 N289 1.342 . S
C288 C292 1.401 . S
C288 C293 1.499 . S
N289 Co272 1.989 . S
N289 C288 1.342 . S
N289 N290 1.388 . S
N290 Co273 1.993 1_545 S
N290 N289 1.388 . S
N290 C291 1.346 . S
C291 N290 1.346 . S
C291 C292 1.396 . S
C291 C301 1.510 . S
C292 C288 1.401 . S
C292 C291 1.396 . S
C293 C288 1.499 . S
C293 H294 0.959 . S
C293 H295 0.960 . S
C293 H296 0.961 . S
H294 C293 0.959 . S
H295 C293 0.960 . S
H296 C293 0.961 . S
O297 Co272 1.967 1_565 S
O297 C305 1.258 . S
O298 Co273 1.941 . S
O298 C305 1.266 . S
H299 C301 0.959 . S
H300 C301 0.961 . S
C301 C291 1.510 . S
C301 H299 0.959 . S
C301 H300 0.961 . S
C301 H302 0.960 . S
H302 C301 0.960 . S
H303 N283 0.862 . S
O304 Co272 1.920 . S
O304 C277 1.289 . S
C305 O297 1.258 . S
C305 O298 1.266 . S
Co306 O309 1.976 . S
Co306 N323 1.989 . S
Co306 O331 1.966 1_545 S
Co306 O338 1.917 1_545 S
Co307 O310 1.966 . S
Co307 N316 2.022 . S
Co307 N324 1.993 . S
Co307 O332 1.941 1_545 S
C308 O309 1.258 . S
C308 O310 1.263 . S
O309 Co306 1.976 . S
O309 C308 1.258 . S
O310 Co307 1.966 . S
O310 C308 1.263 . S
C311 O312 1.235 . S
C311 O338 1.289 1_545 S
O312 C311 1.235 . S
C313 C315 1.400 . S
C313 N316 1.351 . S
C313 C318 1.501 . S
C314 C315 1.387 . S
C314 N317 1.341 . S
C315 C313 1.400 . S
C315 C314 1.387 . S
N316 Co307 2.022 . S
N316 C313 1.351 . S
N316 N317 1.365 . S
N317 C314 1.341 . S
N317 N316 1.365 . S
N317 H337 0.862 1_545 S
C318 C313 1.501 . S
C318 H319 0.961 . S
C318 H320 0.961 . S
C318 H321 0.960 . S
H319 C318 0.961 . S
H320 C318 0.961 . S
H321 C318 0.960 . S
C322 N323 1.342 1_565 S
C322 C326 1.401 1_565 S
C322 C327 1.499 . S
N323 Co306 1.989 . S
N323 C322 1.342 1_545 S
N323 N324 1.388 . S
N324 Co307 1.993 . S
N324 N323 1.388 . S
N324 C325 1.346 . S
C325 N324 1.346 . S
C325 C326 1.396 . S
C325 C335 1.510 . S
C326 C322 1.401 1_545 S
C326 C325 1.396 . S
C327 C322 1.499 . S
C327 H328 0.959 . S
C327 H329 0.966 . S
C327 H330 0.961 . S
H328 C327 0.959 . S
H329 C327 0.966 . S
H330 C327 0.961 . S
O331 Co306 1.966 1_565 S
O331 C339 1.258 . S
O332 Co307 1.941 1_565 S
O332 C339 1.266 . S
H333 C335 0.959 . S
H334 C335 0.961 . S
C335 C325 1.510 . S
C335 H333 0.959 . S
C335 H334 0.961 . S
C335 H336 0.960 . S
H336 C335 0.960 . S
H337 N317 0.862 1_565 S
O338 Co306 1.917 1_565 S
O338 C311 1.289 1_565 S
C339 O331 1.258 . S
C339 O332 1.266 . S
Co340 O343 1.974 . S
Co340 N357 1.991 . S
Co340 O365 1.959 1_655 S
Co340 O372 1.921 1_655 S
Co341 O344 1.966 . S
Co341 N350 2.022 . S
Co341 N358 1.993 . S
Co341 O366 1.941 1_655 S
C342 O343 1.258 . S
C342 O344 1.263 . S
O343 Co340 1.974 . S
O343 C342 1.258 . S
O344 Co341 1.966 . S
O344 C342 1.263 . S
C345 O346 1.235 . S
C345 O372 1.289 1_655 S
O346 C345 1.235 . S
C347 C349 1.400 . S
C347 N350 1.351 . S
C347 C352 1.501 . S
C348 C349 1.387 . S
C348 N351 1.341 . S
C349 C347 1.400 . S
C349 C348 1.387 . S
N350 Co341 2.022 . S
N350 C347 1.351 . S
N350 N351 1.365 . S
N351 C348 1.341 . S
N351 N350 1.365 . S
N351 H371 0.862 1_655 S
C352 C347 1.501 . S
C352 H353 0.961 . S
C352 H354 0.961 . S
C352 H355 0.960 . S
H353 C352 0.961 . S
H354 C352 0.961 . S
H355 C352 0.960 . S
C356 N357 1.342 1_455 S
C356 C360 1.401 1_455 S
C356 C361 1.499 . S
N357 Co340 1.991 . S
N357 C356 1.342 1_655 S
N357 N358 1.388 . S
N358 Co341 1.993 . S
N358 N357 1.388 . S
N358 C359 1.346 . S
C359 N358 1.346 . S
C359 C360 1.396 . S
C359 C369 1.510 . S
C360 C356 1.401 1_655 S
C360 C359 1.396 . S
C361 C356 1.499 . S
C361 H362 0.959 . S
C361 H363 0.986 . S
C361 H364 0.961 . S
H362 C361 0.959 . S
H363 C361 0.986 . S
H364 C361 0.961 . S
O365 Co340 1.959 1_455 S
O365 C373 1.258 . S
O366 Co341 1.941 1_455 S
O366 C373 1.266 . S
H367 C369 0.959 . S
H368 C369 0.961 . S
C369 C359 1.510 . S
C369 H367 0.959 . S
C369 H368 0.961 . S
C369 H370 0.960 . S
H370 C369 0.960 . S
H371 N351 0.862 1_455 S
O372 Co340 1.921 1_455 S
O372 C345 1.289 1_455 S
C373 O365 1.258 . S
C373 O366 1.266 . S
Co374 O377 1.970 . S
Co374 N391 1.989 . S
Co374 O399 1.967 . S
Co374 O406 1.920 . S
Co375 O378 1.966 . S
Co375 N384 2.022 . S
Co375 N392 1.993 . S
Co375 O400 1.941 . S
C376 O377 1.258 . S
C376 O378 1.263 . S
O377 Co374 1.970 . S
O377 C376 1.258 . S
O378 Co375 1.966 . S
O378 C376 1.263 . S
C379 O380 1.235 . S
C379 O406 1.289 . S
O380 C379 1.235 . S
C381 C383 1.400 . S
C381 N384 1.351 . S
C381 C386 1.501 . S
C382 C383 1.387 . S
C382 N385 1.341 . S
C383 C381 1.400 . S
C383 C382 1.387 . S
N384 Co375 2.022 . S
N384 C381 1.351 . S
N384 N385 1.365 . S
N385 C382 1.341 . S
N385 N384 1.365 . S
N385 H405 0.862 . S
C386 C381 1.501 . S
C386 H387 0.961 . S
C386 H388 0.961 . S
C386 H389 0.960 . S
H387 C386 0.961 . S
H388 C386 0.961 . S
H389 C386 0.960 . S
C390 N391 1.342 . S
C390 C394 1.401 . S
C390 C395 1.499 . S
N391 Co374 1.989 . S
N391 C390 1.342 . S
N391 N392 1.388 . S
N392 Co375 1.993 . S
N392 N391 1.388 . S
N392 C393 1.346 . S
C393 N392 1.346 . S
C393 C394 1.396 . S
C393 C403 1.510 . S
C394 C390 1.401 . S
C394 C393 1.396 . S
C395 C390 1.499 . S
C395 H396 0.959 . S
C395 H397 0.960 . S
C395 H398 0.961 . S
H396 C395 0.959 . S
H397 C395 0.960 . S
H398 C395 0.961 . S
O399 Co374 1.967 . S
O399 C407 1.258 . S
O400 Co375 1.941 . S
O400 C407 1.266 . S
H401 C403 0.959 . S
H402 C403 0.961 . S
C403 C393 1.510 . S
C403 H401 0.959 . S
C403 H402 0.961 . S
C403 H404 0.960 . S
H404 C403 0.960 . S
H405 N385 0.862 . S
O406 Co374 1.920 . S
O406 C379 1.289 . S
C407 O399 1.258 . S
C407 O400 1.266 . S
Co408 O411 1.976 . S
Co408 N425 1.989 . S
Co408 O433 1.966 1_565 S
Co408 O440 1.917 1_565 S
Co409 O412 1.966 . S
Co409 N418 2.022 . S
Co409 N426 1.993 . S
Co409 O434 1.941 1_565 S
C410 O411 1.258 . S
C410 O412 1.263 . S
O411 Co408 1.976 . S
O411 C410 1.258 . S
O412 Co409 1.966 . S
O412 C410 1.263 . S
C413 O414 1.235 . S
C413 O440 1.289 1_565 S
O414 C413 1.235 . S
C415 C417 1.400 . S
C415 N418 1.351 . S
C415 C420 1.501 . S
C416 C417 1.387 . S
C416 N419 1.341 . S
C417 C415 1.400 . S
C417 C416 1.387 . S
N418 Co409 2.022 . S
N418 C415 1.351 . S
N418 N419 1.365 . S
N419 C416 1.341 . S
N419 N418 1.365 . S
N419 H439 0.862 1_565 S
C420 C415 1.501 . S
C420 H421 0.961 . S
C420 H422 0.961 . S
C420 H423 0.960 . S
H421 C420 0.961 . S
H422 C420 0.961 . S
H423 C420 0.960 . S
C424 N425 1.342 1_545 S
C424 C428 1.401 1_545 S
C424 C429 1.499 . S
N425 Co408 1.989 . S
N425 C424 1.342 1_565 S
N425 N426 1.388 . S
N426 Co409 1.993 . S
N426 N425 1.388 . S
N426 C427 1.346 . S
C427 N426 1.346 . S
C427 C428 1.396 . S
C427 C437 1.510 . S
C428 C424 1.401 1_565 S
C428 C427 1.396 . S
C429 C424 1.499 . S
C429 H430 0.959 . S
C429 H431 0.966 . S
C429 H432 0.961 . S
H430 C429 0.959 . S
H431 C429 0.966 . S
H432 C429 0.961 . S
O433 Co408 1.966 1_545 S
O433 C441 1.258 . S
O434 Co409 1.941 1_545 S
O434 C441 1.266 . S
H435 C437 0.959 . S
H436 C437 0.961 . S
C437 C427 1.510 . S
C437 H435 0.959 . S
C437 H436 0.961 . S
C437 H438 0.960 . S
H438 C437 0.960 . S
H439 N419 0.862 1_545 S
O440 Co408 1.917 1_545 S
O440 C413 1.289 1_545 S
C441 O433 1.258 . S
C441 O434 1.266 . S
Co442 O445 1.974 . S
Co442 N459 1.991 . S
Co442 O467 1.959 1_455 S
Co442 O474 1.921 1_455 S
Co443 O446 1.966 . S
Co443 N452 2.022 . S
Co443 N460 1.993 . S
Co443 O468 1.941 1_455 S
C444 O445 1.258 . S
C444 O446 1.263 . S
O445 Co442 1.974 . S
O445 C444 1.258 . S
O446 Co443 1.966 . S
O446 C444 1.263 . S
C447 O448 1.235 . S
C447 O474 1.289 1_455 S
O448 C447 1.235 . S
C449 C451 1.400 . S
C449 N452 1.351 . S
C449 C454 1.501 . S
C450 C451 1.387 . S
C450 N453 1.341 . S
C451 C449 1.400 . S
C451 C450 1.387 . S
N452 Co443 2.022 . S
N452 C449 1.351 . S
N452 N453 1.365 . S
N453 C450 1.341 . S
N453 N452 1.365 . S
N453 H473 0.862 1_455 S
C454 C449 1.501 . S
C454 H455 0.961 . S
C454 H456 0.961 . S
C454 H457 0.960 . S
H455 C454 0.961 . S
H456 C454 0.961 . S
H457 C454 0.960 . S
C458 N459 1.342 1_655 S
C458 C462 1.401 1_655 S
C458 C463 1.499 . S
N459 Co442 1.991 . S
N459 C458 1.342 1_455 S
N459 N460 1.388 . S
N460 Co443 1.993 . S
N460 N459 1.388 . S
N460 C461 1.346 . S
C461 N460 1.346 . S
C461 C462 1.396 . S
C461 C471 1.510 . S
C462 C458 1.401 1_455 S
C462 C461 1.396 . S
C463 C458 1.499 . S
C463 H464 0.959 . S
C463 H465 0.986 . S
C463 H466 0.961 . S
H464 C463 0.959 . S
H465 C463 0.986 . S
H466 C463 0.961 . S
O467 Co442 1.959 1_655 S
O467 C475 1.258 . S
O468 Co443 1.941 1_655 S
O468 C475 1.266 . S
H469 C471 0.959 . S
H470 C471 0.961 . S
C471 C461 1.510 . S
C471 H469 0.959 . S
C471 H470 0.961 . S
C471 H472 0.960 . S
H472 C471 0.960 . S
H473 N453 0.862 1_655 S
O474 Co442 1.921 1_655 S
O474 C447 1.289 1_655 S
C475 O467 1.258 . S
C475 O468 1.266 . S
Co476 O479 1.970 . S
Co476 N493 1.989 . S
Co476 O501 1.967 . S
Co476 O508 1.920 . S
Co477 O480 1.966 . S
Co477 N486 2.022 . S
Co477 N494 1.993 . S
Co477 O502 1.941 . S
C478 O479 1.258 . S
C478 O480 1.263 . S
O479 Co476 1.970 . S
O479 C478 1.258 . S
O480 Co477 1.966 . S
O480 C478 1.263 . S
C481 O482 1.235 . S
C481 O508 1.289 . S
O482 C481 1.235 . S
C483 C485 1.400 . S
C483 N486 1.351 . S
C483 C488 1.501 . S
C484 C485 1.387 . S
C484 N487 1.341 . S
C485 C483 1.400 . S
C485 C484 1.387 . S
N486 Co477 2.022 . S
N486 C483 1.351 . S
N486 N487 1.365 . S
N487 C484 1.341 . S
N487 N486 1.365 . S
N487 H507 0.862 . S
C488 C483 1.501 . S
C488 H489 0.961 . S
C488 H490 0.961 . S
C488 H491 0.960 . S
H489 C488 0.961 . S
H490 C488 0.961 . S
H491 C488 0.960 . S
C492 N493 1.342 . S
C492 C496 1.401 . S
C492 C497 1.499 . S
N493 Co476 1.989 . S
N493 C492 1.342 . S
N493 N494 1.388 . S
N494 Co477 1.993 . S
N494 N493 1.388 . S
N494 C495 1.346 . S
C495 N494 1.346 . S
C495 C496 1.396 . S
C495 C505 1.510 . S
C496 C492 1.401 . S
C496 C495 1.396 . S
C497 C492 1.499 . S
C497 H498 0.959 . S
C497 H499 0.960 . S
C497 H500 0.961 . S
H498 C497 0.959 . S
H499 C497 0.960 . S
H500 C497 0.961 . S
O501 Co476 1.967 . S
O501 C509 1.258 . S
O502 Co477 1.941 . S
O502 C509 1.266 . S
H503 C505 0.959 . S
H504 C505 0.961 . S
C505 C495 1.510 . S
C505 H503 0.959 . S
C505 H504 0.961 . S
C505 H506 0.960 . S
H506 C505 0.960 . S
H507 N487 0.862 . S
O508 Co476 1.920 . S
O508 C481 1.289 . S
C509 O501 1.258 . S
C509 O502 1.266 . S
Co510 O513 1.970 . S
Co510 N527 1.989 . S
Co510 O535 1.967 1_455 S
Co510 O542 1.920 . S
Co511 O514 1.966 . S
Co511 N520 2.022 . S
Co511 N528 1.993 1_655 S
Co511 O536 1.941 . S
C512 O513 1.258 . S
C512 O514 1.263 1_455 S
O513 Co510 1.970 . S
O513 C512 1.258 . S
O514 Co511 1.966 . S
O514 C512 1.263 1_655 S
C515 O516 1.235 . S
C515 O542 1.289 . S
O516 C515 1.235 . S
C517 C519 1.400 . S
C517 N520 1.351 . S
C517 C522 1.501 . S
C518 C519 1.387 . S
C518 N521 1.341 . S
C519 C517 1.400 . S
C519 C518 1.387 . S
N520 Co511 2.022 . S
N520 C517 1.351 . S
N520 N521 1.365 . S
N521 C518 1.341 . S
N521 N520 1.365 . S
N521 H541 0.862 . S
C522 C517 1.501 . S
C522 H523 0.961 . S
C522 H524 0.961 1_655 S
C522 H525 0.960 . S
H523 C522 0.961 . S
H524 C522 0.961 1_455 S
H525 C522 0.960 . S
C526 N527 1.342 . S
C526 C530 1.401 . S
C526 C531 1.499 . S
N527 Co510 1.989 . S
N527 C526 1.342 . S
N527 N528 1.388 . S
N528 Co511 1.993 1_455 S
N528 N527 1.388 . S
N528 C529 1.346 . S
C529 N528 1.346 . S
C529 C530 1.396 . S
C529 C539 1.510 . S
C530 C526 1.401 . S
C530 C529 1.396 . S
C531 C526 1.499 . S
C531 H532 0.959 . S
C531 H533 0.960 . S
C531 H534 0.961 . S
H532 C531 0.959 . S
H533 C531 0.960 . S
H534 C531 0.961 . S
O535 Co510 1.967 1_655 S
O535 C543 1.258 . S
O536 Co511 1.941 . S
O536 C543 1.266 . S
H537 C539 0.959 . S
H538 C539 0.961 . S
C539 C529 1.510 . S
C539 H537 0.959 . S
C539 H538 0.961 . S
C539 H540 0.960 . S
H540 C539 0.960 . S
H541 N521 0.862 . S
O542 Co510 1.920 . S
O542 C515 1.289 . S
C543 O535 1.258 . S
C543 O536 1.266 . S
Co544 O547 1.970 . S
Co544 N561 1.989 . S
Co544 O569 1.967 . S
Co544 O576 1.920 . S
Co545 O548 1.966 . S
Co545 N554 2.022 . S
Co545 N562 1.993 . S
Co545 O570 1.941 . S
C546 O547 1.258 . S
C546 O548 1.263 . S
O547 Co544 1.970 . S
O547 C546 1.258 . S
O548 Co545 1.966 . S
O548 C546 1.263 . S
C549 O550 1.235 . S
C549 O576 1.289 . S
O550 C549 1.235 . S
C551 C553 1.400 . S
C551 N554 1.351 . S
C551 C556 1.501 . S
C552 C553 1.387 . S
C552 N555 1.341 . S
C553 C551 1.400 . S
C553 C552 1.387 . S
N554 Co545 2.022 . S
N554 C551 1.351 . S
N554 N555 1.365 . S
N555 C552 1.341 . S
N555 N554 1.365 . S
N555 H575 0.862 . S
C556 C551 1.501 . S
C556 H557 0.961 . S
C556 H558 0.961 . S
C556 H559 0.960 . S
H557 C556 0.961 . S
H558 C556 0.961 . S
H559 C556 0.960 . S
C560 N561 1.342 . S
C560 C564 1.401 . S
C560 C565 1.499 . S
N561 Co544 1.989 . S
N561 C560 1.342 . S
N561 N562 1.388 . S
N562 Co545 1.993 . S
N562 N561 1.388 . S
N562 C563 1.346 . S
C563 N562 1.346 . S
C563 C564 1.396 . S
C563 C573 1.510 . S
C564 C560 1.401 . S
C564 C563 1.396 . S
C565 C560 1.499 . S
C565 H566 0.959 . S
C565 H567 0.960 . S
C565 H568 0.961 . S
H566 C565 0.959 . S
H567 C565 0.960 . S
H568 C565 0.961 . S
O569 Co544 1.967 . S
O569 C577 1.258 . S
O570 Co545 1.941 . S
O570 C577 1.266 . S
H571 C573 0.959 . S
H572 C573 0.961 . S
C573 C563 1.510 . S
C573 H571 0.959 . S
C573 H572 0.961 . S
C573 H574 0.960 . S
H574 C573 0.960 . S
H575 N555 0.862 . S
O576 Co544 1.920 . S
O576 C549 1.289 . S
C577 O569 1.258 . S
C577 O570 1.266 . S
Co578 O581 1.970 . S
Co578 N595 1.989 . S
Co578 O603 1.967 1_565 S
Co578 O610 1.920 . S
Co579 O582 1.966 . S
Co579 N588 2.022 . S
Co579 N596 1.993 1_545 S
Co579 O604 1.941 . S
C580 O581 1.258 . S
C580 O582 1.263 1_565 S
O581 Co578 1.970 . S
O581 C580 1.258 . S
O582 Co579 1.966 . S
O582 C580 1.263 1_545 S
C583 O584 1.235 . S
C583 O610 1.289 . S
O584 C583 1.235 . S
C585 C587 1.400 . S
C585 N588 1.351 . S
C585 C590 1.501 . S
C586 C587 1.387 . S
C586 N589 1.341 . S
C587 C585 1.400 . S
C587 C586 1.387 . S
N588 Co579 2.022 . S
N588 C585 1.351 . S
N588 N589 1.365 . S
N589 C586 1.341 . S
N589 N588 1.365 . S
N589 H609 0.862 . S
C590 C585 1.501 . S
C590 H591 0.961 . S
C590 H592 0.961 1_545 S
C590 H593 0.960 . S
H591 C590 0.961 . S
H592 C590 0.961 1_565 S
H593 C590 0.960 . S
C594 N595 1.342 . S
C594 C598 1.401 . S
C594 C599 1.499 . S
N595 Co578 1.989 . S
N595 C594 1.342 . S
N595 N596 1.388 . S
N596 Co579 1.993 1_565 S
N596 N595 1.388 . S
N596 C597 1.346 . S
C597 N596 1.346 . S
C597 C598 1.396 . S
C597 C607 1.510 . S
C598 C594 1.401 . S
C598 C597 1.396 . S
C599 C594 1.499 . S
C599 H600 0.959 . S
C599 H601 0.960 . S
C599 H602 0.961 . S
H600 C599 0.959 . S
H601 C599 0.960 . S
H602 C599 0.961 . S
O603 Co578 1.967 1_545 S
O603 C611 1.258 . S
O604 Co579 1.941 . S
O604 C611 1.266 . S
H605 C607 0.959 . S
H606 C607 0.961 . S
C607 C597 1.510 . S
C607 H605 0.959 . S
C607 H606 0.961 . S
C607 H608 0.960 . S
H608 C607 0.960 . S
H609 N589 0.862 . S
O610 Co578 1.920 . S
O610 C583 1.289 . S
C611 O603 1.258 . S
C611 O604 1.266 . S
H612 C630 0.951 . S
H613 C632 0.951 . S
H614 C634 0.957 . S
H615 C635 0.950 . S
H616 C637 0.950 . S
H617 C640 0.950 1_556 S
H618 C641 0.950 . S
H619 C643 0.950 . S
H620 C644 0.950 . S
H621 C645 0.951 . S
H622 C647 0.951 . S
H623 C649 0.950 . S
H624 C650 0.950 . S
H625 C652 0.950 . S
H626 C655 0.950 . S
H627 C656 0.950 . S
H628 C658 0.950 . S
H629 C659 0.950 . S
C630 H612 0.951 . S
C630 C631 1.366 . S
C630 C632 1.388 . S
C631 C630 1.366 . S
C631 C635 1.385 . S
C632 H613 0.951 . S
C632 C630 1.388 . S
C632 C633 1.366 . S
C633 C632 1.366 . S
C633 C634 1.414 . S
C633 C636 1.499 . S
C634 H614 0.957 . S
C634 C633 1.414 . S
C634 C635 1.374 . S
C635 H615 0.950 . S
C635 C631 1.385 . S
C635 C634 1.374 . S
C636 C633 1.499 . S
C636 C637 1.373 1_554 S
C636 C638 1.381 1_554 S
C637 H616 0.950 . S
C637 C636 1.373 1_556 S
C637 C653 1.377 . S
C638 C636 1.381 1_556 S
C638 C639 1.506 1_556 S
C638 C652 1.409 . S
C639 C638 1.506 1_554 S
C639 C640 1.397 . S
C639 C644 1.363 . S
C640 H617 0.950 1_554 S
C640 C639 1.397 . S
C640 C641 1.334 . S
C641 H618 0.950 . S
C641 C640 1.334 . S
C641 C642 1.287 . S
C642 C641 1.287 . S
C642 C643 1.524 . S
C642 H661 0.913 . S
C643 H619 0.950 . S
C643 C642 1.524 . S
C643 C644 1.415 . S
C644 H620 0.950 . S
C644 C639 1.363 . S
C644 C643 1.415 . S
C645 H621 0.951 . S
C645 C646 1.366 . S
C645 C647 1.388 . S
C646 C645 1.366 . S
C646 C650 1.385 . S
C647 H622 0.951 . S
C647 C645 1.388 . S
C647 C648 1.366 . S
C648 C647 1.366 . S
C648 C649 1.414 . S
C648 C651 1.499 . S
C649 H623 0.950 . S
C649 C648 1.414 . S
C649 C650 1.374 . S
C650 H624 0.950 . S
C650 C646 1.385 . S
C650 C649 1.374 . S
C651 C648 1.499 . S
C651 C652 1.373 . S
C651 C653 1.389 . S
C652 H625 0.950 . S
C652 C638 1.409 . S
C652 C651 1.373 . S
C653 C637 1.377 . S
C653 C651 1.389 . S
C653 C654 1.524 . S
C654 C653 1.524 . S
C654 C655 1.397 . S
C654 C659 1.363 . S
C655 H626 0.950 . S
C655 C654 1.397 . S
C655 C656 1.334 . S
C656 H627 0.950 . S
C656 C655 1.334 . S
C656 C657 1.287 . S
C657 C656 1.287 . S
C657 C658 1.524 . S
C657 H660 0.999 . S
C658 H628 0.950 . S
C658 C657 1.524 . S
C658 C659 1.415 . S
C659 H629 0.950 . S
C659 C654 1.363 . S
C659 C658 1.415 . S
H660 C657 0.999 . S
H661 C642 0.913 . S
H662 C680 0.951 . S
H663 C682 0.929 1_556 S
H664 C684 0.950 . S
H665 C685 0.950 . S
H666 C687 0.950 . S
H667 C690 0.950 . S
H668 C691 0.950 . S
H669 C693 0.950 . S
H670 C694 0.950 . S
H671 C695 0.951 . S
H672 C697 0.951 . S
H673 C699 0.950 . S
H674 C700 0.950 . S
H675 C702 0.950 . S
H676 C705 0.950 . S
H677 C706 0.950 . S
H678 C708 0.996 . S
H679 C709 0.950 . S
C680 H662 0.951 . S
C680 C681 1.366 . S
C680 C682 1.388 . S
C681 C680 1.366 . S
C681 C685 1.385 . S
C682 H663 0.929 1_554 S
C682 C680 1.388 . S
C682 C683 1.366 . S
C683 C682 1.366 . S
C683 C684 1.414 . S
C683 C686 1.499 . S
C684 H664 0.950 . S
C684 C683 1.414 . S
C684 C685 1.374 . S
C685 H665 0.950 . S
C685 C681 1.385 . S
C685 C684 1.374 . S
C686 C683 1.499 . S
C686 C687 1.373 . S
C686 C688 1.389 1_554 S
C687 H666 0.950 . S
C687 C686 1.373 . S
C687 C703 1.377 1_554 S
C688 C686 1.389 1_556 S
C688 C689 1.524 . S
C688 C702 1.377 . S
C689 C688 1.524 . S
C689 C690 1.397 1_556 S
C689 C694 1.363 . S
C690 H667 0.950 . S
C690 C689 1.397 1_554 S
C690 C691 1.334 . S
C691 H668 0.950 . S
C691 C690 1.334 . S
C691 C692 1.297 . S
C692 C691 1.297 . S
C692 C693 1.512 1_554 S
C692 H711 0.915 . S
C693 H669 0.950 . S
C693 C692 1.512 1_556 S
C693 C694 1.415 . S
C694 H670 0.950 . S
C694 C689 1.363 . S
C694 C693 1.415 . S
C695 H671 0.951 . S
C695 C696 1.366 . S
C695 C697 1.388 . S
C696 C695 1.366 . S
C696 C700 1.385 . S
C697 H672 0.951 . S
C697 C695 1.388 . S
C697 C698 1.366 . S
C698 C697 1.366 . S
C698 C699 1.414 . S
C698 C701 1.499 . S
C699 H673 0.950 . S
C699 C698 1.414 . S
C699 C700 1.374 . S
C700 H674 0.950 . S
C700 C696 1.385 . S
C700 C699 1.374 . S
C701 C698 1.499 . S
C701 C702 1.373 . S
C701 C703 1.389 . S
C702 H675 0.950 . S
C702 C688 1.377 . S
C702 C701 1.373 . S
C703 C687 1.377 1_556 S
C703 C701 1.389 . S
C703 C704 1.524 . S
C704 C703 1.524 . S
C704 C705 1.397 . S
C704 C709 1.363 1_556 S
C705 H676 0.950 . S
C705 C704 1.397 . S
C705 C706 1.334 . S
C706 H677 0.950 . S
C706 C705 1.334 . S
C706 C707 1.287 . S
C707 C706 1.287 . S
C707 C708 1.468 1_556 S
C707 H710 0.999 . S
C708 H678 0.996 . S
C708 C707 1.468 1_554 S
C708 C709 1.421 . S
C709 H679 0.950 . S
C709 C704 1.363 1_554 S
C709 C708 1.421 . S
H710 C707 0.999 . S
H711 C692 0.915 . S
H712 C730 0.951 . S
H713 C732 0.951 . S
H714 C734 0.950 . S
H715 C735 0.950 . S
H716 C737 0.950 . S
H717 C740 0.950 . S
H718 C741 0.950 . S
H719 C743 0.950 . S
H720 C744 0.950 . S
H721 C745 0.951 . S
H722 C747 0.951 . S
H723 C749 0.950 . S
H724 C750 0.950 . S
H725 C752 0.950 . S
H726 C755 0.950 . S
H727 C756 0.950 . S
H728 C758 0.950 . S
H729 C759 0.950 . S
C730 H712 0.951 . S
C730 C731 1.366 . S
C730 C732 1.388 . S
C731 C730 1.366 . S
C731 C735 1.385 . S
C732 H713 0.951 . S
C732 C730 1.388 . S
C732 C733 1.366 . S
C733 C732 1.366 . S
C733 C734 1.414 . S
C733 C736 1.499 . S
C734 H714 0.950 . S
C734 C733 1.414 . S
C734 C735 1.374 . S
C735 H715 0.950 . S
C735 C731 1.385 . S
C735 C734 1.374 . S
C736 C733 1.499 . S
C736 C737 1.373 . S
C736 C738 1.389 1_554 S
C737 H716 0.950 . S
C737 C736 1.373 . S
C737 C753 1.377 1_554 S
C738 C736 1.389 1_556 S
C738 C739 1.524 . S
C738 C752 1.377 . S
C739 C738 1.524 . S
C739 C740 1.397 . S
C739 C744 1.363 . S
C740 H717 0.950 . S
C740 C739 1.397 . S
C740 C741 1.334 . S
C741 H718 0.950 . S
C741 C740 1.334 . S
C741 C742 1.287 . S
C742 C741 1.287 . S
C742 C743 1.524 . S
C742 H761 0.913 . S
C743 H719 0.950 . S
C743 C742 1.524 . S
C743 C744 1.415 . S
C744 H720 0.950 . S
C744 C739 1.363 . S
C744 C743 1.415 . S
C745 H721 0.951 . S
C745 C746 1.366 . S
C745 C747 1.388 . S
C746 C745 1.366 . S
C746 C750 1.385 . S
C747 H722 0.951 . S
C747 C745 1.388 . S
C747 C748 1.366 . S
C748 C747 1.366 . S
C748 C749 1.414 . S
C748 C751 1.499 . S
C749 H723 0.950 . S
C749 C748 1.414 . S
C749 C750 1.374 . S
C750 H724 0.950 . S
C750 C746 1.385 . S
C750 C749 1.374 . S
C751 C748 1.499 . S
C751 C752 1.373 . S
C751 C753 1.389 . S
C752 H725 0.950 . S
C752 C738 1.377 . S
C752 C751 1.373 . S
C753 C737 1.377 1_556 S
C753 C751 1.389 . S
C753 C754 1.524 . S
C754 C753 1.524 . S
C754 C755 1.397 . S
C754 C759 1.363 . S
C755 H726 0.950 . S
C755 C754 1.397 . S
C755 C756 1.334 1_556 S
C756 H727 0.950 . S
C756 C755 1.334 1_554 S
C756 C757 1.287 . S
C757 C756 1.287 . S
C757 C758 1.514 1_554 S
C757 H760 0.999 . S
C758 H728 0.950 . S
C758 C757 1.514 1_556 S
C758 C759 1.428 . S
C759 H729 0.950 . S
C759 C754 1.363 . S
C759 C758 1.428 . S
H760 C757 0.999 . S
H761 C742 0.913 . S
H762 C780 0.951 . S
H763 C782 0.951 . S
H764 C784 0.950 . S
H765 C785 0.950 . S
H766 C787 0.950 . S
H767 C790 0.988 . S
H768 C791 0.979 . S
H769 C793 0.950 . S
H770 C794 0.950 . S
H771 C795 0.951 . S
H772 C797 0.951 . S
H773 C799 0.950 . S
H774 C800 0.950 . S
H775 C802 0.950 . S
H776 C805 0.950 . S
H777 C806 0.950 . S
H778 C808 0.950 . S
H779 C809 0.950 . S
C780 H762 0.951 . S
C780 C781 1.366 . S
C780 C782 1.388 . S
C781 C780 1.366 . S
C781 C785 1.385 . S
C782 H763 0.951 . S
C782 C780 1.388 . S
C782 C783 1.366 . S
C783 C782 1.366 . S
C783 C784 1.414 . S
C783 C786 1.499 . S
C784 H764 0.950 . S
C784 C783 1.414 . S
C784 C785 1.374 . S
C785 H765 0.950 . S
C785 C781 1.385 . S
C785 C784 1.374 . S
C786 C783 1.499 . S
C786 C787 1.373 . S
C786 C788 1.389 . S
C787 H766 0.950 . S
C787 C786 1.373 . S
C787 C803 1.377 . S
C788 C786 1.389 . S
C788 C789 1.524 1_554 S
C788 C802 1.377 1_554 S
C789 C788 1.524 1_556 S
C789 C790 1.380 1_556 S
C789 C794 1.363 . S
C790 H767 0.988 . S
C790 C789 1.380 1_554 S
C790 C791 1.315 1_554 S
C791 H768 0.979 . S
C791 C790 1.315 1_556 S
C791 C792 1.287 . S
C792 C791 1.287 . S
C792 C793 1.524 . S
C792 H811 0.913 . S
C793 H769 0.950 . S
C793 C792 1.524 . S
C793 C794 1.415 . S
C794 H770 0.950 . S
C794 C789 1.363 . S
C794 C793 1.415 . S
C795 H771 0.951 . S
C795 C796 1.366 . S
C795 C797 1.388 . S
C796 C795 1.366 . S
C796 C800 1.385 . S
C797 H772 0.951 . S
C797 C795 1.388 . S
C797 C798 1.366 . S
C798 C797 1.366 . S
C798 C799 1.414 . S
C798 C801 1.499 . S
C799 H773 0.950 . S
C799 C798 1.414 . S
C799 C800 1.374 . S
C800 H774 0.950 . S
C800 C796 1.385 . S
C800 C799 1.374 . S
C801 C798 1.499 . S
C801 C802 1.373 . S
C801 C803 1.389 1_556 S
C802 H775 0.950 . S
C802 C788 1.377 1_556 S
C802 C801 1.373 . S
C803 C787 1.377 . S
C803 C801 1.389 1_554 S
C803 C804 1.524 . S
C804 C803 1.524 . S
C804 C805 1.397 . S
C804 C809 1.363 . S
C805 H776 0.950 . S
C805 C804 1.397 . S
C805 C806 1.334 . S
C806 H777 0.950 . S
C806 C805 1.334 . S
C806 C807 1.287 . S
C807 C806 1.287 . S
C807 C808 1.524 . S
C807 H810 0.999 . S
C808 H778 0.950 . S
C808 C807 1.524 . S
C808 C809 1.415 . S
C809 H779 0.950 . S
C809 C804 1.363 . S
C809 C808 1.415 . S
H810 C807 0.999 . S
H811 C792 0.913 . S
H812 C830 0.951 . S
H813 C832 0.951 . S
H814 C834 0.950 . S
H815 C835 0.950 . S
H816 C837 0.950 1_556 S
H817 C840 0.950 . S
H818 C841 0.950 . S
H819 C843 0.950 1_554 S
H820 C844 0.950 . S
H821 C845 0.951 . S
H822 C847 0.951 . S
H823 C849 0.950 . S
H824 C850 0.950 . S
H825 C852 0.950 . S
H826 C855 0.950 . S
H827 C856 0.950 . S
H828 C858 0.950 . S
H829 C859 0.928 1_556 S
C830 H812 0.951 . S
C830 C831 1.366 . S
C830 C832 1.388 . S
C831 C830 1.366 . S
C831 C835 1.385 . S
C832 H813 0.951 . S
C832 C830 1.388 . S
C832 C833 1.366 . S
C833 C832 1.366 . S
C833 C834 1.414 . S
C833 C836 1.499 . S
C834 H814 0.950 . S
C834 C833 1.414 . S
C834 C835 1.374 . S
C835 H815 0.950 . S
C835 C831 1.385 . S
C835 C834 1.374 . S
C836 C833 1.499 . S
C836 C837 1.373 1_556 S
C836 C838 1.389 1_556 S
C837 H816 0.950 1_554 S
C837 C836 1.373 1_554 S
C837 C853 1.377 . S
C838 C836 1.389 1_554 S
C838 C839 1.524 1_554 S
C838 C852 1.377 . S
C839 C838 1.524 1_556 S
C839 C840 1.397 . S
C839 C844 1.363 1_556 S
C840 H817 0.950 . S
C840 C839 1.397 . S
C840 C841 1.334 . S
C841 H818 0.950 . S
C841 C840 1.334 . S
C841 C842 1.287 . S
C842 C841 1.287 . S
C842 C843 1.524 . S
C842 H861 0.913 . S
C843 H819 0.950 1_556 S
C843 C842 1.524 . S
C843 C844 1.415 1_556 S
C844 H820 0.950 . S
C844 C839 1.363 1_554 S
C844 C843 1.415 1_554 S
C845 H821 0.951 . S
C845 C846 1.366 . S
C845 C847 1.388 . S
C846 C845 1.366 . S
C846 C850 1.385 . S
C847 H822 0.951 . S
C847 C845 1.388 . S
C847 C848 1.366 . S
C848 C847 1.366 . S
C848 C849 1.414 . S
C848 C851 1.499 . S
C849 H823 0.950 . S
C849 C848 1.414 . S
C849 C850 1.374 . S
C850 H824 0.950 . S
C850 C846 1.385 . S
C850 C849 1.374 . S
C851 C848 1.499 . S
C851 C852 1.373 . S
C851 C853 1.389 . S
C852 H825 0.950 . S
C852 C838 1.377 . S
C852 C851 1.373 . S
C853 C837 1.377 . S
C853 C851 1.389 . S
C853 C854 1.524 . S
C854 C853 1.524 . S
C854 C855 1.397 . S
C854 C859 1.363 . S
C855 H826 0.950 . S
C855 C854 1.397 . S
C855 C856 1.334 . S
C856 H827 0.950 . S
C856 C855 1.334 . S
C856 C857 1.287 . S
C857 C856 1.287 . S
C857 C858 1.524 . S
C857 H860 0.999 . S
C858 H828 0.950 . S
C858 C857 1.524 . S
C858 C859 1.415 . S
C859 H829 0.928 1_554 S
C859 C854 1.363 . S
C859 C858 1.415 . S
H860 C857 0.999 . S
H861 C842 0.913 . S
H862 C880 0.951 . S
H863 C882 0.951 . S
H864 C884 0.950 . S
H865 C885 0.950 . S
H866 C887 0.950 . S
H867 C890 0.950 . S
H868 C891 0.948 1_556 S
H869 C893 0.950 . S
H870 C894 0.950 . S
H871 C895 0.951 . S
H872 C897 0.951 . S
H873 C899 0.950 . S
H874 C900 0.950 . S
H875 C902 0.950 . S
H876 C905 0.950 . S
H877 C906 0.950 . S
H878 C908 0.950 . S
H879 C909 0.950 . S
C880 H862 0.951 . S
C880 C881 1.366 . S
C880 C882 1.388 . S
C881 C880 1.366 . S
C881 C885 1.385 . S
C882 H863 0.951 . S
C882 C880 1.388 . S
C882 C883 1.366 . S
C883 C882 1.366 . S
C883 C884 1.414 . S
C883 C886 1.499 . S
C884 H864 0.950 . S
C884 C883 1.414 . S
C884 C885 1.374 . S
C885 H865 0.950 . S
C885 C881 1.385 . S
C885 C884 1.374 . S
C886 C883 1.499 . S
C886 C887 1.373 . S
C886 C888 1.389 . S
C887 H866 0.950 . S
C887 C886 1.373 . S
C887 C903 1.377 . S
C888 C886 1.389 . S
C888 C889 1.524 . S
C888 C902 1.377 1_554 S
C889 C888 1.524 . S
C889 C890 1.397 . S
C889 C894 1.363 . S
C890 H867 0.950 . S
C890 C889 1.397 . S
C890 C891 1.337 . S
C891 H868 0.948 1_554 S
C891 C890 1.337 . S
C891 C892 1.287 . S
C892 C891 1.287 . S
C892 C893 1.528 . S
C892 H911 0.909 1_554 S
C893 H869 0.950 . S
C893 C892 1.528 . S
C893 C894 1.415 . S
C894 H870 0.950 . S
C894 C889 1.363 . S
C894 C893 1.415 . S
C895 H871 0.951 . S
C895 C896 1.366 . S
C895 C897 1.388 . S
C896 C895 1.366 . S
C896 C900 1.385 . S
C897 H872 0.951 . S
C897 C895 1.388 . S
C897 C898 1.366 . S
C898 C897 1.366 . S
C898 C899 1.414 . S
C898 C901 1.499 . S
C899 H873 0.950 . S
C899 C898 1.414 . S
C899 C900 1.374 . S
C900 H874 0.950 . S
C900 C896 1.385 . S
C900 C899 1.374 . S
C901 C898 1.499 . S
C901 C902 1.373 . S
C901 C903 1.389 1_556 S
C902 H875 0.950 . S
C902 C888 1.377 1_556 S
C902 C901 1.373 . S
C903 C887 1.377 . S
C903 C901 1.389 1_554 S
C903 C904 1.524 . S
C904 C903 1.524 . S
C904 C905 1.397 . S
C904 C909 1.363 . S
C905 H876 0.950 . S
C905 C904 1.397 . S
C905 C906 1.334 . S
C906 H877 0.950 . S
C906 C905 1.334 . S
C906 C907 1.287 . S
C907 C906 1.287 . S
C907 C908 1.524 . S
C907 H910 0.999 . S
C908 H878 0.950 . S
C908 C907 1.524 . S
C908 C909 1.415 . S
C909 H879 0.950 . S
C909 C904 1.363 . S
C909 C908 1.415 . S
H910 C907 0.999 . S
H911 C892 0.909 1_556 S
H912 C930 0.951 . S
H913 C932 0.951 1_655 S
H914 C934 0.950 . S
H915 C935 0.950 . S
H916 C937 0.950 . S
H917 C940 0.950 . S
H918 C941 0.950 . S
H919 C943 0.950 . S
H920 C944 0.950 . S
H921 C945 0.951 . S
H922 C947 0.951 . S
H923 C949 0.950 . S
H924 C950 0.950 . S
H925 C952 0.950 . S
H926 C955 0.950 . S
H927 C956 0.950 . S
H928 C958 0.950 . S
H929 C959 0.950 . S
C930 H912 0.951 . S
C930 C931 1.366 . S
C930 C932 1.388 . S
C931 C930 1.366 . S
C931 C935 1.385 . S
C932 H913 0.951 1_455 S
C932 C930 1.388 . S
C932 C933 1.366 . S
C933 C932 1.366 . S
C933 C934 1.414 . S
C933 C936 1.499 . S
C934 H914 0.950 . S
C934 C933 1.414 . S
C934 C935 1.374 . S
C935 H915 0.950 . S
C935 C931 1.385 . S
C935 C934 1.374 . S
C936 C933 1.499 . S
C936 C937 1.373 . S
C936 C938 1.389 . S
C937 H916 0.950 . S
C937 C936 1.373 . S
C937 C953 1.377 . S
C938 C936 1.389 . S
C938 C939 1.524 . S
C938 C952 1.377 . S
C939 C938 1.524 . S
C939 C940 1.397 . S
C939 C944 1.363 . S
C940 H917 0.950 . S
C940 C939 1.397 . S
C940 C941 1.334 . S
C941 H918 0.950 . S
C941 C940 1.334 . S
C941 C942 1.287 . S
C942 C941 1.287 . S
C942 C943 1.524 . S
C942 H961 0.913 . S
C943 H919 0.950 . S
C943 C942 1.524 . S
C943 C944 1.415 . S
C944 H920 0.950 . S
C944 C939 1.363 . S
C944 C943 1.415 . S
C945 H921 0.951 . S
C945 C946 1.366 . S
C945 C947 1.388 . S
C946 C945 1.366 . S
C946 C950 1.385 1_455 S
C947 H922 0.951 . S
C947 C945 1.388 . S
C947 C948 1.366 . S
C948 C947 1.366 . S
C948 C949 1.414 1_455 S
C948 C951 1.499 . S
C949 H923 0.950 . S
C949 C948 1.414 1_655 S
C949 C950 1.374 . S
C950 H924 0.950 . S
C950 C946 1.385 1_655 S
C950 C949 1.374 . S
C951 C948 1.499 . S
C951 C952 1.373 . S
C951 C953 1.389 . S
C952 H925 0.950 . S
C952 C938 1.377 . S
C952 C951 1.373 . S
C953 C937 1.377 . S
C953 C951 1.389 . S
C953 C954 1.524 1_455 S
C954 C953 1.524 1_655 S
C954 C955 1.397 . S
C954 C959 1.363 1_655 S
C955 H926 0.950 . S
C955 C954 1.397 . S
C955 C956 1.334 . S
C956 H927 0.950 . S
C956 C955 1.334 . S
C956 C957 1.287 . S
C957 C956 1.287 . S
C957 C958 1.524 1_655 S
C957 H960 0.999 . S
C958 H928 0.950 . S
C958 C957 1.524 1_455 S
C958 C959 1.415 . S
C959 H929 0.950 . S
C959 C954 1.363 1_455 S
C959 C958 1.415 . S
H960 C957 0.999 . S
H961 C942 0.913 . S
H962 C980 0.951 . S
H963 C982 0.951 . S
H964 C984 0.950 . S
H965 C985 0.950 . S
H966 C987 0.950 . S
H967 C990 0.950 . S
H968 C991 0.950 . S
H969 C993 0.950 . S
H970 C994 0.950 . S
H971 C995 0.951 . S
H972 C997 0.951 . S
H973 C999 0.950 . S
H974 C1000 0.950 . S
H975 C1002 0.950 . S
H976 C1005 0.950 . S
H977 C1006 0.950 . S
H978 C1008 0.950 . S
H979 C1009 0.950 . S
C980 H962 0.951 . S
C980 C981 1.366 . S
C980 C982 1.388 . S
C981 C980 1.366 . S
C981 C985 1.385 . S
C982 H963 0.951 . S
C982 C980 1.388 . S
C982 C983 1.366 . S
C983 C982 1.366 . S
C983 C984 1.414 . S
C983 C986 1.499 . S
C984 H964 0.950 . S
C984 C983 1.414 . S
C984 C985 1.374 . S
C985 H965 0.950 . S
C985 C981 1.385 . S
C985 C984 1.374 . S
C986 C983 1.499 . S
C986 C987 1.373 . S
C986 C988 1.389 . S
C987 H966 0.950 . S
C987 C986 1.373 . S
C987 C1003 1.377 . S
C988 C986 1.389 . S
C988 C989 1.524 . S
C988 C1002 1.377 . S
C989 C988 1.524 . S
C989 C990 1.397 . S
C989 C994 1.363 . S
C990 H967 0.950 . S
C990 C989 1.397 . S
C990 C991 1.334 . S
C991 H968 0.950 . S
C991 C990 1.334 . S
C991 C992 1.287 . S
C992 C991 1.287 . S
C992 C993 1.524 . S
C992 H1011 0.913 . S
C993 H969 0.950 . S
C993 C992 1.524 . S
C993 C994 1.415 . S
C994 H970 0.950 . S
C994 C989 1.363 . S
C994 C993 1.415 . S
C995 H971 0.951 . S
C995 C996 1.366 . S
C995 C997 1.388 . S
C996 C995 1.366 . S
C996 C1000 1.385 . S
C997 H972 0.951 . S
C997 C995 1.388 . S
C997 C998 1.366 . S
C998 C997 1.366 . S
C998 C999 1.414 . S
C998 C1001 1.499 . S
C999 H973 0.950 . S
C999 C998 1.414 . S
C999 C1000 1.374 . S
C1000 H974 0.950 . S
C1000 C996 1.385 . S
C1000 C999 1.374 . S
C1001 C998 1.499 . S
C1001 C1002 1.373 . S
C1001 C1003 1.389 . S
C1002 H975 0.950 . S
C1002 C988 1.377 . S
C1002 C1001 1.373 . S
C1003 C987 1.377 . S
C1003 C1001 1.389 . S
C1003 C1004 1.524 . S
C1004 C1003 1.524 . S
C1004 C1005 1.397 . S
C1004 C1009 1.363 . S
C1005 H976 0.950 . S
C1005 C1004 1.397 . S
C1005 C1006 1.334 . S
C1006 H977 0.950 . S
C1006 C1005 1.334 . S
C1006 C1007 1.287 . S
C1007 C1006 1.287 . S
C1007 C1008 1.524 . S
C1007 H1010 0.999 . S
C1008 H978 0.950 . S
C1008 C1007 1.524 . S
C1008 C1009 1.415 . S
C1009 H979 0.950 . S
C1009 C1004 1.363 . S
C1009 C1008 1.415 . S
H1010 C1007 0.999 . S
H1011 C992 0.913 . S
H1012 C1030 0.951 . S
H1013 C1032 0.951 . S
H1014 C1034 0.950 . S
H1015 C1035 0.950 . S
H1016 C1037 0.950 1_545 S
H1017 C1040 0.950 . S
H1018 C1041 0.950 . S
H1019 C1043 0.950 . S
H1020 C1044 0.950 . S
H1021 C1045 0.951 . S
H1022 C1047 0.951 . S
H1023 C1049 0.943 1_545 S
H1024 C1050 0.950 . S
H1025 C1052 0.950 . S
H1026 C1055 0.950 . S
H1027 C1056 0.950 . S
H1028 C1058 0.950 . S
H1029 C1059 0.950 . S
C1030 H1012 0.951 . S
C1030 C1031 1.366 . S
C1030 C1032 1.388 . S
C1031 C1030 1.366 . S
C1031 C1035 1.385 . S
C1032 H1013 0.951 . S
C1032 C1030 1.388 . S
C1032 C1033 1.366 . S
C1033 C1032 1.366 . S
C1033 C1034 1.414 . S
C1033 C1036 1.499 . S
C1034 H1014 0.950 . S
C1034 C1033 1.414 . S
C1034 C1035 1.374 . S
C1035 H1015 0.950 . S
C1035 C1031 1.385 . S
C1035 C1034 1.374 . S
C1036 C1033 1.499 . S
C1036 C1037 1.373 . S
C1036 C1038 1.389 . S
C1037 H1016 0.950 1_565 S
C1037 C1036 1.373 . S
C1037 C1053 1.377 1_565 S
C1038 C1036 1.389 . S
C1038 C1039 1.524 . S
C1038 C1052 1.377 . S
C1039 C1038 1.524 . S
C1039 C1040 1.397 . S
C1039 C1044 1.363 . S
C1040 H1017 0.950 . S
C1040 C1039 1.397 . S
C1040 C1041 1.334 . S
C1041 H1018 0.950 . S
C1041 C1040 1.334 . S
C1041 C1042 1.287 . S
C1042 C1041 1.287 . S
C1042 C1043 1.524 . S
C1042 H1061 0.913 . S
C1043 H1019 0.950 . S
C1043 C1042 1.524 . S
C1043 C1044 1.415 . S
C1044 H1020 0.950 . S
C1044 C1039 1.363 . S
C1044 C1043 1.415 . S
C1045 H1021 0.951 . S
C1045 C1046 1.366 . S
C1045 C1047 1.388 . S
C1046 C1045 1.366 . S
C1046 C1050 1.385 1_565 S
C1047 H1022 0.951 . S
C1047 C1045 1.388 . S
C1047 C1048 1.366 . S
C1048 C1047 1.366 . S
C1048 C1049 1.439 . S
C1048 C1051 1.499 . S
C1049 H1023 0.943 1_565 S
C1049 C1048 1.439 . S
C1049 C1050 1.357 1_565 S
C1050 H1024 0.950 . S
C1050 C1046 1.385 1_545 S
C1050 C1049 1.357 1_545 S
C1051 C1048 1.499 . S
C1051 C1052 1.373 . S
C1051 C1053 1.389 1_565 S
C1052 H1025 0.950 . S
C1052 C1038 1.377 . S
C1052 C1051 1.373 . S
C1053 C1037 1.377 1_545 S
C1053 C1051 1.389 1_545 S
C1053 C1054 1.524 . S
C1054 C1053 1.524 . S
C1054 C1055 1.397 . S
C1054 C1059 1.363 . S
C1055 H1026 0.950 . S
C1055 C1054 1.397 . S
C1055 C1056 1.334 . S
C1056 H1027 0.950 . S
C1056 C1055 1.334 . S
C1056 C1057 1.287 . S
C1057 C1056 1.287 . S
C1057 C1058 1.524 . S
C1057 H1060 0.999 . S
C1058 H1028 0.950 . S
C1058 C1057 1.524 . S
C1058 C1059 1.415 . S
C1059 H1029 0.950 . S
C1059 C1054 1.363 . S
C1059 C1058 1.415 . S
H1060 C1057 0.999 . S
H1061 C1042 0.913 . S
H1062 C1080 0.951 . S
H1063 C1082 0.951 . S
H1064 C1084 0.950 . S
H1065 C1085 0.950 . S
H1066 C1087 0.950 . S
H1067 C1090 0.950 . S
H1068 C1091 0.950 . S
H1069 C1093 0.950 . S
H1070 C1094 0.950 . S
H1071 C1095 0.951 . S
H1072 C1097 0.951 . S
H1073 C1099 0.950 . S
H1074 C1100 0.950 . S
H1075 C1102 0.950 . S
H1076 C1105 0.950 . S
H1077 C1106 0.950 . S
H1078 C1108 0.950 . S
H1079 C1109 0.950 . S
C1080 H1062 0.951 . S
C1080 C1081 1.366 . S
C1080 C1082 1.388 . S
C1081 C1080 1.366 . S
C1081 C1085 1.385 . S
C1082 H1063 0.951 . S
C1082 C1080 1.388 . S
C1082 C1083 1.366 . S
C1083 C1082 1.366 . S
C1083 C1084 1.414 . S
C1083 C1086 1.499 . S
C1084 H1064 0.950 . S
C1084 C1083 1.414 . S
C1084 C1085 1.374 . S
C1085 H1065 0.950 . S
C1085 C1081 1.385 . S
C1085 C1084 1.374 . S
C1086 C1083 1.499 . S
C1086 C1087 1.373 . S
C1086 C1088 1.389 . S
C1087 H1066 0.950 . S
C1087 C1086 1.373 . S
C1087 C1103 1.377 . S
C1088 C1086 1.389 . S
C1088 C1089 1.524 . S
C1088 C1102 1.377 . S
C1089 C1088 1.524 . S
C1089 C1090 1.397 . S
C1089 C1094 1.363 . S
C1090 H1067 0.950 . S
C1090 C1089 1.397 . S
C1090 C1091 1.334 . S
C1091 H1068 0.950 . S
C1091 C1090 1.334 . S
C1091 C1092 1.287 . S
C1092 C1091 1.287 . S
C1092 C1093 1.524 . S
C1092 H1111 0.913 . S
C1093 H1069 0.950 . S
C1093 C1092 1.524 . S
C1093 C1094 1.415 . S
C1094 H1070 0.950 . S
C1094 C1089 1.363 . S
C1094 C1093 1.415 . S
C1095 H1071 0.951 . S
C1095 C1096 1.366 . S
C1095 C1097 1.388 . S
C1096 C1095 1.366 . S
C1096 C1100 1.385 . S
C1097 H1072 0.951 . S
C1097 C1095 1.388 . S
C1097 C1098 1.366 . S
C1098 C1097 1.366 . S
C1098 C1099 1.414 . S
C1098 C1101 1.499 . S
C1099 H1073 0.950 . S
C1099 C1098 1.414 . S
C1099 C1100 1.374 . S
C1100 H1074 0.950 . S
C1100 C1096 1.385 . S
C1100 C1099 1.374 . S
C1101 C1098 1.499 . S
C1101 C1102 1.373 . S
C1101 C1103 1.389 . S
C1102 H1075 0.950 . S
C1102 C1088 1.377 . S
C1102 C1101 1.373 . S
C1103 C1087 1.377 . S
C1103 C1101 1.389 . S
C1103 C1104 1.524 . S
C1104 C1103 1.524 . S
C1104 C1105 1.397 . S
C1104 C1109 1.363 . S
C1105 H1076 0.950 . S
C1105 C1104 1.397 . S
C1105 C1106 1.334 . S
C1106 H1077 0.950 . S
C1106 C1105 1.334 . S
C1106 C1107 1.287 . S
C1107 C1106 1.287 . S
C1107 C1108 1.524 . S
C1107 H1110 0.999 . S
C1108 H1078 0.950 . S
C1108 C1107 1.524 . S
C1108 C1109 1.415 . S
C1109 H1079 0.950 . S
C1109 C1104 1.363 . S
C1109 C1108 1.415 . S
H1110 C1107 0.999 . S
H1111 C1092 0.913 . S
H1112 C1130 0.951 . S
H1113 C1132 0.951 . S
H1114 C1134 0.950 . S
H1115 C1135 0.950 . S
H1116 C1137 0.950 . S
H1117 C1140 0.950 . S
H1118 C1141 0.950 . S
H1119 C1143 0.950 . S
H1120 C1144 0.950 . S
H1121 C1145 0.951 . S
H1122 C1147 0.951 . S
H1123 C1149 0.950 . S
H1124 C1150 0.950 . S
H1125 C1152 0.950 . S
H1126 C1155 0.950 . S
H1127 C1156 0.950 . S
H1128 C1158 0.950 . S
H1129 C1159 0.950 . S
C1130 H1112 0.951 . S
C1130 C1131 1.366 . S
C1130 C1132 1.388 . S
C1131 C1130 1.366 . S
C1131 C1135 1.385 . S
C1132 H1113 0.951 . S
C1132 C1130 1.388 . S
C1132 C1133 1.366 . S
C1133 C1132 1.366 . S
C1133 C1134 1.414 . S
C1133 C1136 1.499 . S
C1134 H1114 0.950 . S
C1134 C1133 1.414 . S
C1134 C1135 1.374 . S
C1135 H1115 0.950 . S
C1135 C1131 1.385 . S
C1135 C1134 1.374 . S
C1136 C1133 1.499 . S
C1136 C1137 1.373 . S
C1136 C1138 1.389 . S
C1137 H1116 0.950 . S
C1137 C1136 1.373 . S
C1137 C1153 1.377 . S
C1138 C1136 1.389 . S
C1138 C1139 1.524 . S
C1138 C1152 1.377 . S
C1139 C1138 1.524 . S
C1139 C1140 1.397 . S
C1139 C1144 1.363 . S
C1140 H1117 0.950 . S
C1140 C1139 1.397 . S
C1140 C1141 1.334 . S
C1141 H1118 0.950 . S
C1141 C1140 1.334 . S
C1141 C1142 1.287 . S
C1142 C1141 1.287 . S
C1142 C1143 1.524 . S
C1142 H1161 0.913 . S
C1143 H1119 0.950 . S
C1143 C1142 1.524 . S
C1143 C1144 1.415 . S
C1144 H1120 0.950 . S
C1144 C1139 1.363 . S
C1144 C1143 1.415 . S
C1145 H1121 0.951 . S
C1145 C1146 1.366 . S
C1145 C1147 1.388 . S
C1146 C1145 1.366 . S
C1146 C1150 1.385 . S
C1147 H1122 0.951 . S
C1147 C1145 1.388 . S
C1147 C1148 1.366 . S
C1148 C1147 1.366 . S
C1148 C1149 1.414 . S
C1148 C1151 1.499 . S
C1149 H1123 0.950 . S
C1149 C1148 1.414 . S
C1149 C1150 1.374 . S
C1150 H1124 0.950 . S
C1150 C1146 1.385 . S
C1150 C1149 1.374 . S
C1151 C1148 1.499 . S
C1151 C1152 1.373 . S
C1151 C1153 1.389 . S
C1152 H1125 0.950 . S
C1152 C1138 1.377 . S
C1152 C1151 1.373 . S
C1153 C1137 1.377 . S
C1153 C1151 1.389 . S
C1153 C1154 1.524 . S
C1154 C1153 1.524 . S
C1154 C1155 1.397 . S
C1154 C1159 1.363 . S
C1155 H1126 0.950 . S
C1155 C1154 1.397 . S
C1155 C1156 1.334 . S
C1156 H1127 0.950 . S
C1156 C1155 1.334 . S
C1156 C1157 1.287 . S
C1157 C1156 1.287 . S
C1157 C1158 1.524 . S
C1157 H1160 0.999 . S
C1158 H1128 0.950 . S
C1158 C1157 1.524 . S
C1158 C1159 1.415 . S
C1159 H1129 0.950 . S
C1159 C1154 1.363 . S
C1159 C1158 1.415 . S
H1160 C1157 0.999 . S
H1161 C1142 0.913 . S
H1162 C1180 0.951 . S
H1163 C1182 0.951 . S
H1164 C1184 0.950 . S
H1165 C1185 0.950 . S
H1166 C1187 0.950 . S
H1167 C1190 0.950 . S
H1168 C1191 0.950 . S
H1169 C1193 0.950 . S
H1170 C1194 0.950 . S
H1171 C1195 0.951 . S
H1172 C1197 0.951 . S
H1173 C1199 0.950 . S
H1174 C1200 0.950 . S
H1175 C1202 0.950 . S
H1176 C1205 0.950 . S
H1177 C1206 0.950 . S
H1178 C1208 0.950 . S
H1179 C1209 0.950 . S
C1180 H1162 0.951 . S
C1180 C1181 1.366 . S
C1180 C1182 1.388 . S
C1181 C1180 1.366 . S
C1181 C1185 1.385 . S
C1182 H1163 0.951 . S
C1182 C1180 1.388 . S
C1182 C1183 1.366 . S
C1183 C1182 1.366 . S
C1183 C1184 1.414 . S
C1183 C1186 1.499 . S
C1184 H1164 0.950 . S
C1184 C1183 1.414 . S
C1184 C1185 1.374 . S
C1185 H1165 0.950 . S
C1185 C1181 1.385 . S
C1185 C1184 1.374 . S
C1186 C1183 1.499 . S
C1186 C1187 1.373 . S
C1186 C1188 1.389 . S
C1187 H1166 0.950 . S
C1187 C1186 1.373 . S
C1187 C1203 1.377 . S
C1188 C1186 1.389 . S
C1188 C1189 1.524 . S
C1188 C1202 1.377 . S
C1189 C1188 1.524 . S
C1189 C1190 1.397 . S
C1189 C1194 1.363 . S
C1190 H1167 0.950 . S
C1190 C1189 1.397 . S
C1190 C1191 1.334 . S
C1191 H1168 0.950 . S
C1191 C1190 1.334 . S
C1191 C1192 1.287 . S
C1192 C1191 1.287 . S
C1192 C1193 1.524 . S
C1192 H1211 0.913 . S
C1193 H1169 0.950 . S
C1193 C1192 1.524 . S
C1193 C1194 1.415 . S
C1194 H1170 0.950 . S
C1194 C1189 1.363 . S
C1194 C1193 1.415 . S
C1195 H1171 0.951 . S
C1195 C1196 1.366 . S
C1195 C1197 1.388 . S
C1196 C1195 1.366 . S
C1196 C1200 1.385 . S
C1197 H1172 0.951 . S
C1197 C1195 1.388 . S
C1197 C1198 1.366 . S
C1198 C1197 1.366 . S
C1198 C1199 1.414 . S
C1198 C1201 1.499 . S
C1199 H1173 0.950 . S
C1199 C1198 1.414 . S
C1199 C1200 1.374 . S
C1200 H1174 0.950 . S
C1200 C1196 1.385 . S
C1200 C1199 1.374 . S
C1201 C1198 1.499 . S
C1201 C1202 1.373 . S
C1201 C1203 1.389 . S
C1202 H1175 0.950 . S
C1202 C1188 1.377 . S
C1202 C1201 1.373 . S
C1203 C1187 1.377 . S
C1203 C1201 1.389 . S
C1203 C1204 1.524 . S
C1204 C1203 1.524 . S
C1204 C1205 1.397 . S
C1204 C1209 1.363 . S
C1205 H1176 0.950 . S
C1205 C1204 1.397 . S
C1205 C1206 1.334 . S
C1206 H1177 0.950 . S
C1206 C1205 1.334 . S
C1206 C1207 1.287 . S
C1207 C1206 1.287 . S
C1207 C1208 1.524 . S
C1207 H1210 0.999 . S
C1208 H1178 0.950 . S
C1208 C1207 1.524 . S
C1208 C1209 1.415 . S
C1209 H1179 0.950 . S
C1209 C1204 1.363 . S
C1209 C1208 1.415 . S
H1210 C1207 0.999 . S
H1211 C1192 0.913 . S
H1212 C1230 0.951 . S
H1213 C1232 0.951 . S
H1214 C1234 0.950 . S
H1215 C1235 0.950 . S
H1216 C1237 0.950 . S
H1217 C1240 0.950 . S
H1218 C1241 0.950 . S
H1219 C1243 0.950 . S
H1220 C1244 0.950 . S
H1221 C1245 0.951 . S
H1222 C1247 0.951 . S
H1223 C1249 0.950 . S
H1224 C1250 0.950 . S
H1225 C1252 0.950 . S
H1226 C1255 0.950 . S
H1227 C1256 0.950 . S
H1228 C1258 0.950 . S
H1229 C1259 0.950 . S
C1230 H1212 0.951 . S
C1230 C1231 1.366 . S
C1230 C1232 1.388 . S
C1231 C1230 1.366 . S
C1231 C1235 1.385 . S
C1232 H1213 0.951 . S
C1232 C1230 1.388 . S
C1232 C1233 1.366 . S
C1233 C1232 1.366 . S
C1233 C1234 1.414 . S
C1233 C1236 1.499 . S
C1234 H1214 0.950 . S
C1234 C1233 1.414 . S
C1234 C1235 1.374 . S
C1235 H1215 0.950 . S
C1235 C1231 1.385 . S
C1235 C1234 1.374 . S
C1236 C1233 1.499 . S
C1236 C1237 1.373 . S
C1236 C1238 1.389 . S
C1237 H1216 0.950 . S
C1237 C1236 1.373 . S
C1237 C1253 1.377 . S
C1238 C1236 1.389 . S
C1238 C1239 1.524 . S
C1238 C1252 1.377 . S
C1239 C1238 1.524 . S
C1239 C1240 1.397 . S
C1239 C1244 1.363 . S
C1240 H1217 0.950 . S
C1240 C1239 1.397 . S
C1240 C1241 1.334 . S
C1241 H1218 0.950 . S
C1241 C1240 1.334 . S
C1241 C1242 1.287 . S
C1242 C1241 1.287 . S
C1242 C1243 1.524 . S
C1242 H1261 0.913 . S
C1243 H1219 0.950 . S
C1243 C1242 1.524 . S
C1243 C1244 1.415 . S
C1244 H1220 0.950 . S
C1244 C1239 1.363 . S
C1244 C1243 1.415 . S
C1245 H1221 0.951 . S
C1245 C1246 1.366 . S
C1245 C1247 1.388 . S
C1246 C1245 1.366 . S
C1246 C1250 1.385 . S
C1247 H1222 0.951 . S
C1247 C1245 1.388 . S
C1247 C1248 1.366 . S
C1248 C1247 1.366 . S
C1248 C1249 1.414 . S
C1248 C1251 1.499 . S
C1249 H1223 0.950 . S
C1249 C1248 1.414 . S
C1249 C1250 1.374 . S
C1250 H1224 0.950 . S
C1250 C1246 1.385 . S
C1250 C1249 1.374 . S
C1251 C1248 1.499 . S
C1251 C1252 1.373 . S
C1251 C1253 1.389 . S
C1252 H1225 0.950 . S
C1252 C1238 1.377 . S
C1252 C1251 1.373 . S
C1253 C1237 1.377 . S
C1253 C1251 1.389 . S
C1253 C1254 1.524 . S
C1254 C1253 1.524 . S
C1254 C1255 1.397 . S
C1254 C1259 1.363 . S
C1255 H1226 0.950 . S
C1255 C1254 1.397 . S
C1255 C1256 1.334 . S
C1256 H1227 0.950 . S
C1256 C1255 1.334 . S
C1256 C1257 1.287 . S
C1257 C1256 1.287 . S
C1257 C1258 1.524 . S
C1257 H1260 0.999 . S
C1258 H1228 0.950 . S
C1258 C1257 1.524 . S
C1258 C1259 1.415 . S
C1259 H1229 0.950 . S
C1259 C1254 1.363 . S
C1259 C1258 1.415 . S
H1260 C1257 0.999 . S
H1261 C1242 0.913 . S
H1262 C1280 0.951 . S
H1263 C1282 0.951 . S
H1264 C1284 0.950 . S
H1265 C1285 0.950 . S
H1266 C1287 0.950 . S
H1267 C1290 0.950 . S
H1268 C1291 0.950 . S
H1269 C1293 0.950 . S
H1270 C1294 0.950 . S
H1271 C1295 0.951 . S
H1272 C1297 0.951 . S
H1273 C1299 0.950 . S
H1274 C1300 0.950 . S
H1275 C1302 0.950 . S
H1276 C1305 0.950 . S
H1277 C1306 0.950 . S
H1278 C1308 0.950 . S
H1279 C1309 0.950 . S
C1280 H1262 0.951 . S
C1280 C1281 1.366 . S
C1280 C1282 1.388 . S
C1281 C1280 1.366 . S
C1281 C1285 1.385 . S
C1282 H1263 0.951 . S
C1282 C1280 1.388 . S
C1282 C1283 1.366 . S
C1283 C1282 1.366 . S
C1283 C1284 1.414 . S
C1283 C1286 1.499 . S
C1284 H1264 0.950 . S
C1284 C1283 1.414 . S
C1284 C1285 1.374 . S
C1285 H1265 0.950 . S
C1285 C1281 1.385 . S
C1285 C1284 1.374 . S
C1286 C1283 1.499 . S
C1286 C1287 1.373 . S
C1286 C1288 1.389 . S
C1287 H1266 0.950 . S
C1287 C1286 1.373 . S
C1287 C1303 1.377 . S
C1288 C1286 1.389 . S
C1288 C1289 1.524 . S
C1288 C1302 1.377 . S
C1289 C1288 1.524 . S
C1289 C1290 1.397 . S
C1289 C1294 1.363 . S
C1290 H1267 0.950 . S
C1290 C1289 1.397 . S
C1290 C1291 1.334 . S
C1291 H1268 0.950 . S
C1291 C1290 1.334 . S
C1291 C1292 1.287 . S
C1292 C1291 1.287 . S
C1292 C1293 1.524 . S
C1292 H1311 0.913 . S
C1293 H1269 0.950 . S
C1293 C1292 1.524 . S
C1293 C1294 1.415 . S
C1294 H1270 0.950 . S
C1294 C1289 1.363 . S
C1294 C1293 1.415 . S
C1295 H1271 0.951 . S
C1295 C1296 1.366 . S
C1295 C1297 1.388 . S
C1296 C1295 1.366 . S
C1296 C1300 1.385 . S
C1297 H1272 0.951 . S
C1297 C1295 1.388 . S
C1297 C1298 1.366 . S
C1298 C1297 1.366 . S
C1298 C1299 1.414 . S
C1298 C1301 1.499 . S
C1299 H1273 0.950 . S
C1299 C1298 1.414 . S
C1299 C1300 1.374 . S
C1300 H1274 0.950 . S
C1300 C1296 1.385 . S
C1300 C1299 1.374 . S
C1301 C1298 1.499 . S
C1301 C1302 1.373 . S
C1301 C1303 1.389 . S
C1302 H1275 0.950 . S
C1302 C1288 1.377 . S
C1302 C1301 1.373 . S
C1303 C1287 1.377 . S
C1303 C1301 1.389 . S
C1303 C1304 1.524 . S
C1304 C1303 1.524 . S
C1304 C1305 1.397 . S
C1304 C1309 1.363 . S
C1305 H1276 0.950 . S
C1305 C1304 1.397 . S
C1305 C1306 1.334 . S
C1306 H1277 0.950 . S
C1306 C1305 1.334 . S
C1306 C1307 1.287 . S
C1307 C1306 1.287 . S
C1307 C1308 1.524 . S
C1307 H1310 0.999 . S
C1308 H1278 0.950 . S
C1308 C1307 1.524 . S
C1308 C1309 1.415 . S
C1309 H1279 0.950 . S
C1309 C1304 1.363 . S
C1309 C1308 1.415 . S
H1310 C1307 0.999 . S
H1311 C1292 0.913 . S
H1312 C1330 0.951 . S
H1313 C1332 0.951 . S
H1314 C1334 0.950 . S
H1315 C1335 0.950 . S
H1316 C1337 0.950 . S
H1317 C1340 0.950 . S
H1318 C1341 0.950 . S
H1319 C1343 0.950 . S
H1320 C1344 0.950 . S
H1321 C1345 0.951 . S
H1322 C1347 0.951 . S
H1323 C1349 0.950 . S
H1324 C1350 0.950 . S
H1325 C1352 0.950 . S
H1326 C1355 0.950 . S
H1327 C1356 0.950 . S
H1328 C1358 0.950 . S
H1329 C1359 0.950 . S
C1330 H1312 0.951 . S
C1330 C1331 1.366 . S
C1330 C1332 1.388 . S
C1331 C1330 1.366 . S
C1331 C1335 1.385 . S
C1332 H1313 0.951 . S
C1332 C1330 1.388 . S
C1332 C1333 1.366 . S
C1333 C1332 1.366 . S
C1333 C1334 1.414 . S
C1333 C1336 1.499 . S
C1334 H1314 0.950 . S
C1334 C1333 1.414 . S
C1334 C1335 1.374 . S
C1335 H1315 0.950 . S
C1335 C1331 1.385 . S
C1335 C1334 1.374 . S
C1336 C1333 1.499 . S
C1336 C1337 1.373 . S
C1336 C1338 1.389 . S
C1337 H1316 0.950 . S
C1337 C1336 1.373 . S
C1337 C1353 1.377 . S
C1338 C1336 1.389 . S
C1338 C1339 1.524 . S
C1338 C1352 1.377 . S
C1339 C1338 1.524 . S
C1339 C1340 1.397 . S
C1339 C1344 1.363 . S
C1340 H1317 0.950 . S
C1340 C1339 1.397 . S
C1340 C1341 1.334 . S
C1341 H1318 0.950 . S
C1341 C1340 1.334 . S
C1341 C1342 1.287 . S
C1342 C1341 1.287 . S
C1342 C1343 1.524 . S
C1342 H1361 0.913 . S
C1343 H1319 0.950 . S
C1343 C1342 1.524 . S
C1343 C1344 1.415 . S
C1344 H1320 0.950 . S
C1344 C1339 1.363 . S
C1344 C1343 1.415 . S
C1345 H1321 0.951 . S
C1345 C1346 1.366 . S
C1345 C1347 1.388 . S
C1346 C1345 1.366 . S
C1346 C1350 1.385 . S
C1347 H1322 0.951 . S
C1347 C1345 1.388 . S
C1347 C1348 1.366 . S
C1348 C1347 1.366 . S
C1348 C1349 1.414 . S
C1348 C1351 1.499 . S
C1349 H1323 0.950 . S
C1349 C1348 1.414 . S
C1349 C1350 1.374 . S
C1350 H1324 0.950 . S
C1350 C1346 1.385 . S
C1350 C1349 1.374 . S
C1351 C1348 1.499 . S
C1351 C1352 1.373 . S
C1351 C1353 1.389 . S
C1352 H1325 0.950 . S
C1352 C1338 1.377 . S
C1352 C1351 1.373 . S
C1353 C1337 1.377 . S
C1353 C1351 1.389 . S
C1353 C1354 1.524 . S
C1354 C1353 1.524 . S
C1354 C1355 1.397 . S
C1354 C1359 1.363 . S
C1355 H1326 0.950 . S
C1355 C1354 1.397 . S
C1355 C1356 1.334 . S
C1356 H1327 0.950 . S
C1356 C1355 1.334 . S
C1356 C1357 1.287 . S
C1357 C1356 1.287 . S
C1357 C1358 1.524 . S
C1357 H1360 0.999 . S
C1358 H1328 0.950 . S
C1358 C1357 1.524 . S
C1358 C1359 1.415 . S
C1359 H1329 0.950 . S
C1359 C1354 1.363 . S
C1359 C1358 1.415 . S
H1360 C1357 0.999 . S
H1361 C1342 0.913 . S
H1362 C1380 0.951 . S
H1363 C1382 0.951 . S
H1364 C1384 0.950 . S
H1365 C1385 0.950 . S
H1366 C1387 0.950 . S
H1367 C1390 0.950 . S
H1368 C1391 0.950 . S
H1369 C1393 0.950 . S
H1370 C1394 0.950 . S
H1371 C1395 0.945 . S
H1372 C1397 0.951 1_455 S
H1373 C1399 0.950 . S
H1374 C1400 0.950 . S
H1375 C1402 0.950 . S
H1376 C1405 0.950 . S
H1377 C1406 0.950 . S
H1378 C1408 0.950 . S
H1379 C1409 0.950 . S
C1380 H1362 0.951 . S
C1380 C1381 1.366 . S
C1380 C1382 1.388 . S
C1381 C1380 1.366 . S
C1381 C1385 1.385 . S
C1382 H1363 0.951 . S
C1382 C1380 1.388 . S
C1382 C1383 1.366 . S
C1383 C1382 1.366 . S
C1383 C1384 1.414 . S
C1383 C1386 1.499 . S
C1384 H1364 0.950 . S
C1384 C1383 1.414 . S
C1384 C1385 1.374 . S
C1385 H1365 0.950 . S
C1385 C1381 1.385 . S
C1385 C1384 1.374 . S
C1386 C1383 1.499 . S
C1386 C1387 1.373 1_655 S
C1386 C1388 1.389 . S
C1387 H1366 0.950 . S
C1387 C1386 1.373 1_455 S
C1387 C1403 1.377 . S
C1388 C1386 1.389 . S
C1388 C1389 1.524 . S
C1388 C1402 1.377 . S
C1389 C1388 1.524 . S
C1389 C1390 1.397 . S
C1389 C1394 1.363 . S
C1390 H1367 0.950 . S
C1390 C1389 1.397 . S
C1390 C1391 1.334 . S
C1391 H1368 0.950 . S
C1391 C1390 1.334 . S
C1391 C1392 1.287 . S
C1392 C1391 1.287 . S
C1392 C1393 1.524 . S
C1392 H1411 0.913 . S
C1393 H1369 0.950 . S
C1393 C1392 1.524 . S
C1393 C1394 1.415 . S
C1394 H1370 0.950 . S
C1394 C1389 1.363 . S
C1394 C1393 1.415 . S
C1395 H1371 0.945 . S
C1395 C1396 1.366 1_455 S
C1395 C1397 1.395 1_455 S
C1396 C1395 1.366 1_655 S
C1396 C1400 1.385 . S
C1397 H1372 0.951 1_655 S
C1397 C1395 1.395 1_655 S
C1397 C1398 1.366 . S
C1398 C1397 1.366 . S
C1398 C1399 1.414 . S
C1398 C1401 1.499 . S
C1399 H1373 0.950 . S
C1399 C1398 1.414 . S
C1399 C1400 1.374 . S
C1400 H1374 0.950 . S
C1400 C1396 1.385 . S
C1400 C1399 1.374 . S
C1401 C1398 1.499 . S
C1401 C1402 1.373 . S
C1401 C1403 1.389 1_655 S
C1402 H1375 0.950 . S
C1402 C1388 1.377 . S
C1402 C1401 1.373 . S
C1403 C1387 1.377 . S
C1403 C1401 1.389 1_455 S
C1403 C1404 1.524 . S
C1404 C1403 1.524 . S
C1404 C1405 1.397 . S
C1404 C1409 1.363 . S
C1405 H1376 0.950 . S
C1405 C1404 1.397 . S
C1405 C1406 1.334 . S
C1406 H1377 0.950 . S
C1406 C1405 1.334 . S
C1406 C1407 1.287 . S
C1407 C1406 1.287 . S
C1407 C1408 1.524 . S
C1407 H1410 0.999 . S
C1408 H1378 0.950 . S
C1408 C1407 1.524 . S
C1408 C1409 1.415 . S
C1409 H1379 0.950 . S
C1409 C1404 1.363 . S
C1409 C1408 1.415 . S
H1410 C1407 0.999 . S
H1411 C1392 0.913 . S
H1412 C1430 0.951 . S
H1413 C1432 0.951 . S
H1414 C1434 0.950 . S
H1415 C1435 0.950 . S
H1416 C1437 0.950 . S
H1417 C1440 0.950 . S
H1418 C1441 0.950 . S
H1419 C1443 0.950 . S
H1420 C1444 0.950 . S
H1421 C1445 0.951 . S
H1422 C1447 0.951 . S
H1423 C1449 0.950 . S
H1424 C1450 0.950 . S
H1425 C1452 0.950 . S
H1426 C1455 0.950 . S
H1427 C1456 0.950 . S
H1428 C1458 0.950 . S
H1429 C1459 0.950 . S
C1430 H1412 0.951 . S
C1430 C1431 1.366 . S
C1430 C1432 1.388 . S
C1431 C1430 1.366 . S
C1431 C1435 1.385 . S
C1432 H1413 0.951 . S
C1432 C1430 1.388 . S
C1432 C1433 1.366 . S
C1433 C1432 1.366 . S
C1433 C1434 1.414 . S
C1433 C1436 1.499 . S
C1434 H1414 0.950 . S
C1434 C1433 1.414 . S
C1434 C1435 1.374 . S
C1435 H1415 0.950 . S
C1435 C1431 1.385 . S
C1435 C1434 1.374 . S
C1436 C1433 1.499 . S
C1436 C1437 1.373 . S
C1436 C1438 1.389 . S
C1437 H1416 0.950 . S
C1437 C1436 1.373 . S
C1437 C1453 1.377 . S
C1438 C1436 1.389 . S
C1438 C1439 1.524 . S
C1438 C1452 1.377 . S
C1439 C1438 1.524 . S
C1439 C1440 1.397 . S
C1439 C1444 1.363 . S
C1440 H1417 0.950 . S
C1440 C1439 1.397 . S
C1440 C1441 1.334 . S
C1441 H1418 0.950 . S
C1441 C1440 1.334 . S
C1441 C1442 1.287 . S
C1442 C1441 1.287 . S
C1442 C1443 1.524 . S
C1442 H1461 0.913 . S
C1443 H1419 0.950 . S
C1443 C1442 1.524 . S
C1443 C1444 1.415 . S
C1444 H1420 0.950 . S
C1444 C1439 1.363 . S
C1444 C1443 1.415 . S
C1445 H1421 0.951 . S
C1445 C1446 1.366 . S
C1445 C1447 1.388 . S
C1446 C1445 1.366 . S
C1446 C1450 1.385 . S
C1447 H1422 0.951 . S
C1447 C1445 1.388 . S
C1447 C1448 1.366 . S
C1448 C1447 1.366 . S
C1448 C1449 1.414 . S
C1448 C1451 1.499 . S
C1449 H1423 0.950 . S
C1449 C1448 1.414 . S
C1449 C1450 1.374 . S
C1450 H1424 0.950 . S
C1450 C1446 1.385 . S
C1450 C1449 1.374 . S
C1451 C1448 1.499 . S
C1451 C1452 1.373 . S
C1451 C1453 1.389 . S
C1452 H1425 0.950 . S
C1452 C1438 1.377 . S
C1452 C1451 1.373 . S
C1453 C1437 1.377 . S
C1453 C1451 1.389 . S
C1453 C1454 1.524 . S
C1454 C1453 1.524 . S
C1454 C1455 1.397 . S
C1454 C1459 1.363 . S
C1455 H1426 0.950 . S
C1455 C1454 1.397 . S
C1455 C1456 1.334 . S
C1456 H1427 0.950 . S
C1456 C1455 1.334 . S
C1456 C1457 1.287 . S
C1457 C1456 1.287 . S
C1457 C1458 1.524 . S
C1457 H1460 0.999 . S
C1458 H1428 0.950 . S
C1458 C1457 1.524 . S
C1458 C1459 1.415 . S
C1459 H1429 0.950 . S
C1459 C1454 1.363 . S
C1459 C1458 1.415 . S
H1460 C1457 0.999 . S
H1461 C1442 0.913 . S
H1462 C1480 0.951 . S
H1463 C1482 0.951 . S
H1464 C1484 0.950 . S
H1465 C1485 0.956 . S
H1466 C1487 0.950 . S
H1467 C1490 0.950 . S
H1468 C1491 0.950 . S
H1469 C1493 0.950 . S
H1470 C1494 0.950 . S
H1471 C1495 0.951 . S
H1472 C1497 0.951 . S
H1473 C1499 0.950 . S
H1474 C1500 0.950 . S
H1475 C1502 0.950 1_565 S
H1476 C1505 0.950 . S
H1477 C1506 0.950 . S
H1478 C1508 0.950 . S
H1479 C1509 0.950 . S
C1480 H1462 0.951 . S
C1480 C1481 1.366 . S
C1480 C1482 1.388 . S
C1481 C1480 1.366 . S
C1481 C1485 1.385 . S
C1482 H1463 0.951 . S
C1482 C1480 1.388 . S
C1482 C1483 1.366 . S
C1483 C1482 1.366 . S
C1483 C1484 1.414 . S
C1483 C1486 1.499 . S
C1484 H1464 0.950 . S
C1484 C1483 1.414 . S
C1484 C1485 1.374 . S
C1485 H1465 0.956 . S
C1485 C1481 1.385 . S
C1485 C1484 1.374 . S
C1486 C1483 1.499 . S
C1486 C1487 1.373 . S
C1486 C1488 1.389 1_545 S
C1487 H1466 0.950 . S
C1487 C1486 1.373 . S
C1487 C1503 1.377 . S
C1488 C1486 1.389 1_565 S
C1488 C1489 1.524 . S
C1488 C1502 1.363 1_565 S
C1489 C1488 1.524 . S
C1489 C1490 1.397 . S
C1489 C1494 1.363 . S
C1490 H1467 0.950 . S
C1490 C1489 1.397 . S
C1490 C1491 1.334 . S
C1491 H1468 0.950 . S
C1491 C1490 1.334 . S
C1491 C1492 1.287 . S
C1492 C1491 1.287 . S
C1492 C1493 1.524 . S
C1492 H1511 0.913 . S
C1493 H1469 0.950 . S
C1493 C1492 1.524 . S
C1493 C1494 1.415 . S
C1494 H1470 0.950 . S
C1494 C1489 1.363 . S
C1494 C1493 1.415 . S
C1495 H1471 0.951 . S
C1495 C1496 1.366 . S
C1495 C1497 1.388 . S
C1496 C1495 1.366 . S
C1496 C1500 1.385 . S
C1497 H1472 0.951 . S
C1497 C1495 1.388 . S
C1497 C1498 1.366 . S
C1498 C1497 1.366 . S
C1498 C1499 1.414 . S
C1498 C1501 1.499 . S
C1499 H1473 0.950 . S
C1499 C1498 1.414 . S
C1499 C1500 1.374 . S
C1500 H1474 0.950 . S
C1500 C1496 1.385 . S
C1500 C1499 1.374 . S
C1501 C1498 1.499 . S
C1501 C1502 1.388 . S
C1501 C1503 1.389 . S
C1502 H1475 0.950 1_545 S
C1502 C1488 1.363 1_545 S
C1502 C1501 1.388 . S
C1503 C1487 1.377 . S
C1503 C1501 1.389 . S
C1503 C1504 1.524 . S
C1504 C1503 1.524 . S
C1504 C1505 1.397 . S
C1504 C1509 1.363 . S
C1505 H1476 0.950 . S
C1505 C1504 1.397 . S
C1505 C1506 1.334 . S
C1506 H1477 0.950 . S
C1506 C1505 1.334 . S
C1506 C1507 1.287 . S
C1507 C1506 1.287 . S
C1507 C1508 1.524 . S
C1507 H1510 0.999 . S
C1508 H1478 0.950 . S
C1508 C1507 1.524 . S
C1508 C1509 1.415 . S
C1509 H1479 0.950 . S
C1509 C1504 1.363 . S
C1509 C1508 1.415 . S
H1510 C1507 0.999 . S
H1511 C1492 0.913 . S
H1512 C1530 0.951 . S
H1513 C1532 0.951 . S
H1514 C1534 0.950 . S
H1515 C1535 0.950 . S
H1516 C1537 0.950 . S
H1517 C1540 0.950 . S
H1518 C1541 0.950 . S
H1519 C1543 0.950 . S
H1520 C1544 0.950 . S
H1521 C1545 0.951 . S
H1522 C1547 0.951 . S
H1523 C1549 0.950 . S
H1524 C1550 0.950 . S
H1525 C1552 0.950 . S
H1526 C1555 0.950 . S
H1527 C1556 0.950 . S
H1528 C1558 0.950 . S
H1529 C1559 0.950 . S
C1530 H1512 0.951 . S
C1530 C1531 1.366 . S
C1530 C1532 1.388 . S
C1531 C1530 1.366 . S
C1531 C1535 1.385 . S
C1532 H1513 0.951 . S
C1532 C1530 1.388 . S
C1532 C1533 1.366 . S
C1533 C1532 1.366 . S
C1533 C1534 1.414 . S
C1533 C1536 1.499 . S
C1534 H1514 0.950 . S
C1534 C1533 1.414 . S
C1534 C1535 1.374 . S
C1535 H1515 0.950 . S
C1535 C1531 1.385 . S
C1535 C1534 1.374 . S
C1536 C1533 1.499 . S
C1536 C1537 1.373 . S
C1536 C1538 1.389 . S
C1537 H1516 0.950 . S
C1537 C1536 1.373 . S
C1537 C1553 1.377 . S
C1538 C1536 1.389 . S
C1538 C1539 1.524 . S
C1538 C1552 1.377 . S
C1539 C1538 1.524 . S
C1539 C1540 1.397 . S
C1539 C1544 1.363 . S
C1540 H1517 0.950 . S
C1540 C1539 1.397 . S
C1540 C1541 1.334 . S
C1541 H1518 0.950 . S
C1541 C1540 1.334 . S
C1541 C1542 1.287 . S
C1542 C1541 1.287 . S
C1542 C1543 1.524 . S
C1542 H1561 0.913 . S
C1543 H1519 0.950 . S
C1543 C1542 1.524 . S
C1543 C1544 1.415 . S
C1544 H1520 0.950 . S
C1544 C1539 1.363 . S
C1544 C1543 1.415 . S
C1545 H1521 0.951 . S
C1545 C1546 1.366 . S
C1545 C1547 1.388 . S
C1546 C1545 1.366 . S
C1546 C1550 1.385 . S
C1547 H1522 0.951 . S
C1547 C1545 1.388 . S
C1547 C1548 1.366 . S
C1548 C1547 1.366 . S
C1548 C1549 1.414 . S
C1548 C1551 1.499 . S
C1549 H1523 0.950 . S
C1549 C1548 1.414 . S
C1549 C1550 1.374 . S
C1550 H1524 0.950 . S
C1550 C1546 1.385 . S
C1550 C1549 1.374 . S
C1551 C1548 1.499 . S
C1551 C1552 1.373 . S
C1551 C1553 1.389 . S
C1552 H1525 0.950 . S
C1552 C1538 1.377 . S
C1552 C1551 1.373 . S
C1553 C1537 1.377 . S
C1553 C1551 1.389 . S
C1553 C1554 1.524 . S
C1554 C1553 1.524 . S
C1554 C1555 1.397 . S
C1554 C1559 1.363 . S
C1555 H1526 0.950 . S
C1555 C1554 1.397 . S
C1555 C1556 1.334 . S
C1556 H1527 0.950 . S
C1556 C1555 1.334 . S
C1556 C1557 1.287 . S
C1557 C1556 1.287 . S
C1557 C1558 1.524 . S
C1557 H1560 0.999 . S
C1558 H1528 0.950 . S
C1558 C1557 1.524 . S
C1558 C1559 1.415 . S
C1559 H1529 0.950 . S
C1559 C1554 1.363 . S
C1559 C1558 1.415 . S
H1560 C1557 0.999 . S
H1561 C1542 0.913 . S
H1562 C1580 0.951 . S
H1563 C1582 0.951 . S
H1564 C1584 0.950 . S
H1565 C1585 0.950 . S
H1566 C1587 0.950 . S
H1567 C1590 0.950 . S
H1568 C1591 0.950 . S
H1569 C1593 0.950 . S
H1570 C1594 0.950 . S
H1571 C1595 0.951 . S
H1572 C1597 0.951 . S
H1573 C1599 0.950 . S
H1574 C1600 0.950 . S
H1575 C1602 0.950 . S
H1576 C1605 0.950 . S
H1577 C1606 0.950 . S
H1578 C1608 0.950 . S
H1579 C1609 0.950 . S
C1580 H1562 0.951 . S
C1580 C1581 1.366 1_565 S
C1580 C1582 1.388 . S
C1581 C1580 1.366 1_545 S
C1581 C1585 1.385 . S
C1582 H1563 0.951 . S
C1582 C1580 1.388 . S
C1582 C1583 1.366 1_565 S
C1583 C1582 1.366 1_545 S
C1583 C1584 1.414 . S
C1583 C1586 1.499 . S
C1584 H1564 0.950 . S
C1584 C1583 1.414 . S
C1584 C1585 1.374 . S
C1585 H1565 0.950 . S
C1585 C1581 1.385 . S
C1585 C1584 1.374 . S
C1586 C1583 1.499 . S
C1586 C1587 1.373 1_545 S
C1586 C1588 1.389 . S
C1587 H1566 0.950 . S
C1587 C1586 1.373 1_565 S
C1587 C1603 1.377 . S
C1588 C1586 1.389 . S
C1588 C1589 1.524 . S
C1588 C1602 1.377 . S
C1589 C1588 1.524 . S
C1589 C1590 1.397 . S
C1589 C1594 1.363 . S
C1590 H1567 0.950 . S
C1590 C1589 1.397 . S
C1590 C1591 1.334 . S
C1591 H1568 0.950 . S
C1591 C1590 1.334 . S
C1591 C1592 1.287 . S
C1592 C1591 1.287 . S
C1592 C1593 1.524 . S
C1592 H1611 0.913 . S
C1593 H1569 0.950 . S
C1593 C1592 1.524 . S
C1593 C1594 1.415 . S
C1594 H1570 0.950 . S
C1594 C1589 1.363 . S
C1594 C1593 1.415 . S
C1595 H1571 0.951 . S
C1595 C1596 1.366 1_545 S
C1595 C1597 1.388 . S
C1596 C1595 1.366 1_565 S
C1596 C1600 1.385 . S
C1597 H1572 0.951 . S
C1597 C1595 1.388 . S
C1597 C1598 1.366 1_545 S
C1598 C1597 1.366 1_565 S
C1598 C1599 1.414 . S
C1598 C1601 1.499 . S
C1599 H1573 0.950 . S
C1599 C1598 1.414 . S
C1599 C1600 1.374 . S
C1600 H1574 0.950 . S
C1600 C1596 1.385 . S
C1600 C1599 1.374 . S
C1601 C1598 1.499 . S
C1601 C1602 1.373 1_565 S
C1601 C1603 1.389 . S
C1602 H1575 0.950 . S
C1602 C1588 1.377 . S
C1602 C1601 1.373 1_545 S
C1603 C1587 1.377 . S
C1603 C1601 1.389 . S
C1603 C1604 1.524 . S
C1604 C1603 1.524 . S
C1604 C1605 1.397 . S
C1604 C1609 1.363 . S
C1605 H1576 0.950 . S
C1605 C1604 1.397 . S
C1605 C1606 1.334 . S
C1606 H1577 0.950 . S
C1606 C1605 1.334 . S
C1606 C1607 1.287 . S
C1607 C1606 1.287 . S
C1607 C1608 1.524 . S
C1607 H1610 0.999 . S
C1608 H1578 0.950 . S
C1608 C1607 1.524 . S
C1608 C1609 1.415 . S
C1609 H1579 0.950 . S
C1609 C1604 1.363 . S
C1609 C1608 1.415 . S
H1610 C1607 0.999 . S
H1611 C1592 0.913 . S
H1612 C1630 0.951 . S
H1613 C1632 0.951 . S
H1614 C1634 0.950 . S
H1615 C1635 0.950 . S
H1616 C1637 0.950 . S
H1617 C1640 0.950 1_455 S
H1618 C1641 0.950 . S
H1619 C1643 0.950 . S
H1620 C1644 0.950 . S
H1621 C1645 0.951 . S
H1622 C1647 0.951 . S
H1623 C1649 0.950 . S
H1624 C1650 0.950 . S
H1625 C1652 0.950 . S
H1626 C1655 0.950 1_655 S
H1627 C1656 0.950 . S
H1628 C1658 0.950 . S
H1629 C1659 0.950 . S
C1630 H1612 0.951 . S
C1630 C1631 1.366 1_655 S
C1630 C1632 1.388 . S
C1631 C1630 1.366 1_455 S
C1631 C1635 1.385 . S
C1632 H1613 0.951 . S
C1632 C1630 1.388 . S
C1632 C1633 1.366 1_655 S
C1633 C1632 1.366 1_455 S
C1633 C1634 1.414 . S
C1633 C1636 1.499 . S
C1634 H1614 0.950 . S
C1634 C1633 1.414 . S
C1634 C1635 1.374 . S
C1635 H1615 0.950 . S
C1635 C1631 1.385 . S
C1635 C1634 1.374 . S
C1636 C1633 1.499 . S
C1636 C1637 1.373 . S
C1636 C1638 1.389 1_455 S
C1637 H1616 0.950 . S
C1637 C1636 1.373 . S
C1637 C1653 1.377 . S
C1638 C1636 1.389 1_655 S
C1638 C1639 1.524 . S
C1638 C1652 1.377 . S
C1639 C1638 1.524 . S
C1639 C1640 1.397 . S
C1639 C1644 1.363 . S
C1640 H1617 0.950 1_655 S
C1640 C1639 1.397 . S
C1640 C1641 1.334 . S
C1641 H1618 0.950 . S
C1641 C1640 1.334 . S
C1641 C1642 1.287 . S
C1642 C1641 1.287 . S
C1642 C1643 1.524 . S
C1642 H1661 0.913 . S
C1643 H1619 0.950 . S
C1643 C1642 1.524 . S
C1643 C1644 1.415 . S
C1644 H1620 0.950 . S
C1644 C1639 1.363 . S
C1644 C1643 1.415 . S
C1645 H1621 0.951 . S
C1645 C1646 1.366 1_455 S
C1645 C1647 1.388 . S
C1646 C1645 1.366 1_655 S
C1646 C1650 1.385 . S
C1647 H1622 0.951 . S
C1647 C1645 1.388 . S
C1647 C1648 1.345 1_455 S
C1648 C1647 1.345 1_655 S
C1648 C1649 1.452 . S
C1648 C1651 1.483 . S
C1649 H1623 0.950 . S
C1649 C1648 1.452 . S
C1649 C1650 1.374 . S
C1650 H1624 0.950 . S
C1650 C1646 1.385 . S
C1650 C1649 1.374 . S
C1651 C1648 1.483 . S
C1651 C1652 1.373 . S
C1651 C1653 1.389 1_655 S
C1652 H1625 0.950 . S
C1652 C1638 1.377 . S
C1652 C1651 1.373 . S
C1653 C1637 1.377 . S
C1653 C1651 1.389 1_455 S
C1653 C1654 1.524 . S
C1654 C1653 1.524 . S
C1654 C1655 1.397 . S
C1654 C1659 1.363 . S
C1655 H1626 0.950 1_455 S
C1655 C1654 1.397 . S
C1655 C1656 1.334 . S
C1656 H1627 0.950 . S
C1656 C1655 1.334 . S
C1656 C1657 1.287 . S
C1657 C1656 1.287 . S
C1657 C1658 1.524 . S
C1657 H1660 0.999 . S
C1658 H1628 0.950 . S
C1658 C1657 1.524 . S
C1658 C1659 1.415 . S
C1659 H1629 0.950 . S
C1659 C1654 1.363 . S
C1659 C1658 1.415 . S
H1660 C1657 0.999 . S
H1661 C1642 0.913 . S
H1662 C1680 0.951 . S
H1663 C1682 0.951 . S
H1664 C1684 0.950 . S
H1665 C1685 0.950 . S
H1666 C1687 0.950 . S
H1667 C1690 0.950 . S
H1668 C1691 0.950 . S
H1669 C1693 0.950 . S
H1670 C1694 0.950 . S
H1671 C1695 0.951 . S
H1672 C1697 0.951 . S
H1673 C1699 0.950 . S
H1674 C1700 0.950 . S
H1675 C1702 0.950 . S
H1676 C1705 0.950 . S
H1677 C1706 0.950 . S
H1678 C1708 0.950 . S
H1679 C1709 0.950 . S
C1680 H1662 0.951 . S
C1680 C1681 1.366 . S
C1680 C1682 1.388 . S
C1681 C1680 1.366 . S
C1681 C1685 1.385 . S
C1682 H1663 0.951 . S
C1682 C1680 1.388 . S
C1682 C1683 1.366 . S
C1683 C1682 1.366 . S
C1683 C1684 1.414 . S
C1683 C1686 1.499 . S
C1684 H1664 0.950 . S
C1684 C1683 1.414 . S
C1684 C1685 1.374 . S
C1685 H1665 0.950 . S
C1685 C1681 1.385 . S
C1685 C1684 1.374 . S
C1686 C1683 1.499 . S
C1686 C1687 1.373 . S
C1686 C1688 1.389 . S
C1687 H1666 0.950 . S
C1687 C1686 1.373 . S
C1687 C1703 1.377 . S
C1688 C1686 1.389 . S
C1688 C1689 1.524 . S
C1688 C1702 1.377 . S
C1689 C1688 1.524 . S
C1689 C1690 1.397 . S
C1689 C1694 1.363 . S
C1690 H1667 0.950 . S
C1690 C1689 1.397 . S
C1690 C1691 1.334 . S
C1691 H1668 0.950 . S
C1691 C1690 1.334 . S
C1691 C1692 1.287 . S
C1692 C1691 1.287 . S
C1692 C1693 1.524 . S
C1692 H1711 0.913 . S
C1693 H1669 0.950 . S
C1693 C1692 1.524 . S
C1693 C1694 1.415 . S
C1694 H1670 0.950 . S
C1694 C1689 1.363 . S
C1694 C1693 1.415 . S
C1695 H1671 0.951 . S
C1695 C1696 1.366 . S
C1695 C1697 1.388 . S
C1696 C1695 1.366 . S
C1696 C1700 1.385 . S
C1697 H1672 0.951 . S
C1697 C1695 1.388 . S
C1697 C1698 1.366 . S
C1698 C1697 1.366 . S
C1698 C1699 1.414 . S
C1698 C1701 1.499 . S
C1699 H1673 0.950 . S
C1699 C1698 1.414 . S
C1699 C1700 1.374 . S
C1700 H1674 0.950 . S
C1700 C1696 1.385 . S
C1700 C1699 1.374 . S
C1701 C1698 1.499 . S
C1701 C1702 1.373 . S
C1701 C1703 1.389 . S
C1702 H1675 0.950 . S
C1702 C1688 1.377 . S
C1702 C1701 1.373 . S
C1703 C1687 1.377 . S
C1703 C1701 1.389 . S
C1703 C1704 1.524 . S
C1704 C1703 1.524 . S
C1704 C1705 1.397 . S
C1704 C1709 1.363 . S
C1705 H1676 0.950 . S
C1705 C1704 1.397 . S
C1705 C1706 1.334 . S
C1706 H1677 0.950 . S
C1706 C1705 1.334 . S
C1706 C1707 1.287 . S
C1707 C1706 1.287 . S
C1707 C1708 1.524 . S
C1707 H1710 0.999 . S
C1708 H1678 0.950 . S
C1708 C1707 1.524 . S
C1708 C1709 1.415 . S
C1709 H1679 0.950 . S
C1709 C1704 1.363 . S
C1709 C1708 1.415 . S
H1710 C1707 0.999 . S
H1711 C1692 0.913 . S
H1712 C1730 0.951 . S
H1713 C1732 0.951 . S
H1714 C1734 0.950 . S
H1715 C1735 0.950 . S
H1716 C1737 0.950 . S
H1717 C1740 0.950 . S
H1718 C1741 0.950 . S
H1719 C1743 0.950 . S
H1720 C1744 0.950 . S
H1721 C1745 0.951 . S
H1722 C1747 0.951 . S
H1723 C1749 0.950 . S
H1724 C1750 0.950 . S
H1725 C1752 0.950 . S
H1726 C1755 0.950 . S
H1727 C1756 0.950 . S
H1728 C1758 0.950 . S
H1729 C1759 0.950 . S
C1730 H1712 0.951 . S
C1730 C1731 1.366 1_565 S
C1730 C1732 1.388 . S
C1731 C1730 1.366 1_545 S
C1731 C1735 1.385 . S
C1732 H1713 0.951 . S
C1732 C1730 1.388 . S
C1732 C1733 1.366 1_565 S
C1733 C1732 1.366 1_545 S
C1733 C1734 1.414 . S
C1733 C1736 1.485 . S
C1734 H1714 0.950 . S
C1734 C1733 1.414 . S
C1734 C1735 1.374 . S
C1735 H1715 0.950 . S
C1735 C1731 1.385 . S
C1735 C1734 1.374 . S
C1736 C1733 1.485 . S
C1736 C1737 1.408 . S
C1736 C1738 1.369 1_545 S
C1737 H1716 0.950 . S
C1737 C1736 1.408 . S
C1737 C1753 1.377 . S
C1738 C1736 1.369 1_565 S
C1738 C1739 1.524 . S
C1738 C1752 1.377 . S
C1739 C1738 1.524 . S
C1739 C1740 1.397 . S
C1739 C1744 1.363 . S
C1740 H1717 0.950 . S
C1740 C1739 1.397 . S
C1740 C1741 1.334 . S
C1741 H1718 0.950 . S
C1741 C1740 1.334 . S
C1741 C1742 1.287 . S
C1742 C1741 1.287 . S
C1742 C1743 1.524 . S
C1742 H1761 0.913 . S
C1743 H1719 0.950 . S
C1743 C1742 1.524 . S
C1743 C1744 1.415 . S
C1744 H1720 0.950 . S
C1744 C1739 1.363 . S
C1744 C1743 1.415 . S
C1745 H1721 0.951 . S
C1745 C1746 1.366 1_545 S
C1745 C1747 1.388 . S
C1746 C1745 1.366 1_565 S
C1746 C1750 1.385 . S
C1747 H1722 0.951 . S
C1747 C1745 1.388 . S
C1747 C1748 1.386 . S
C1748 C1747 1.386 . S
C1748 C1749 1.402 1_545 S
C1748 C1751 1.489 . S
C1749 H1723 0.950 . S
C1749 C1748 1.402 1_565 S
C1749 C1750 1.374 . S
C1750 H1724 0.950 . S
C1750 C1746 1.385 . S
C1750 C1749 1.374 . S
C1751 C1748 1.489 . S
C1751 C1752 1.373 1_545 S
C1751 C1753 1.389 . S
C1752 H1725 0.950 . S
C1752 C1738 1.377 . S
C1752 C1751 1.373 1_565 S
C1753 C1737 1.377 . S
C1753 C1751 1.389 . S
C1753 C1754 1.524 . S
C1754 C1753 1.524 . S
C1754 C1755 1.397 . S
C1754 C1759 1.363 . S
C1755 H1726 0.950 . S
C1755 C1754 1.397 . S
C1755 C1756 1.334 . S
C1756 H1727 0.950 . S
C1756 C1755 1.334 . S
C1756 C1757 1.287 . S
C1757 C1756 1.287 . S
C1757 C1758 1.524 . S
C1757 H1760 0.999 . S
C1758 H1728 0.950 . S
C1758 C1757 1.524 . S
C1758 C1759 1.415 . S
C1759 H1729 0.950 . S
C1759 C1754 1.363 . S
C1759 C1758 1.415 . S
H1760 C1757 0.999 . S
H1761 C1742 0.913 . S
H1762 C1780 0.951 . S
H1763 C1782 0.951 . S
H1764 C1784 0.950 . S
H1765 C1785 0.950 . S
H1766 C1787 0.950 . S
H1767 C1790 0.938 1_655 S
H1768 C1791 0.950 1_655 S
H1769 C1793 0.950 . S
H1770 C1794 0.950 . S
H1771 C1795 0.951 . S
H1772 C1797 0.951 . S
H1773 C1799 0.950 . S
H1774 C1800 0.950 . S
H1775 C1802 0.950 . S
H1776 C1805 0.950 1_455 S
H1777 C1806 0.950 1_455 S
H1778 C1808 0.950 . S
H1779 C1809 0.950 . S
C1780 H1762 0.951 . S
C1780 C1781 1.366 1_455 S
C1780 C1782 1.388 . S
C1781 C1780 1.366 1_655 S
C1781 C1785 1.385 . S
C1782 H1763 0.951 . S
C1782 C1780 1.388 . S
C1782 C1783 1.366 1_455 S
C1783 C1782 1.366 1_655 S
C1783 C1784 1.414 . S
C1783 C1786 1.499 . S
C1784 H1764 0.950 . S
C1784 C1783 1.414 . S
C1784 C1785 1.374 . S
C1785 H1765 0.950 . S
C1785 C1781 1.385 . S
C1785 C1784 1.374 . S
C1786 C1783 1.499 . S
C1786 C1787 1.373 . S
C1786 C1788 1.389 1_655 S
C1787 H1766 0.950 . S
C1787 C1786 1.373 . S
C1787 C1803 1.377 . S
C1788 C1786 1.389 1_455 S
C1788 C1789 1.524 . S
C1788 C1802 1.377 . S
C1789 C1788 1.524 . S
C1789 C1790 1.404 . S
C1789 C1794 1.363 . S
C1790 H1767 0.938 1_455 S
C1790 C1789 1.404 . S
C1790 C1791 1.338 . S
C1791 H1768 0.950 1_455 S
C1791 C1790 1.338 . S
C1791 C1792 1.287 . S
C1792 C1791 1.287 . S
C1792 C1793 1.524 . S
C1792 H1811 0.913 . S
C1793 H1769 0.950 . S
C1793 C1792 1.524 . S
C1793 C1794 1.415 . S
C1794 H1770 0.950 . S
C1794 C1789 1.363 . S
C1794 C1793 1.415 . S
C1795 H1771 0.951 . S
C1795 C1796 1.366 1_655 S
C1795 C1797 1.388 . S
C1796 C1795 1.366 1_455 S
C1796 C1800 1.385 . S
C1797 H1772 0.951 . S
C1797 C1795 1.388 . S
C1797 C1798 1.366 1_655 S
C1798 C1797 1.366 1_455 S
C1798 C1799 1.414 . S
C1798 C1801 1.499 . S
C1799 H1773 0.950 . S
C1799 C1798 1.414 . S
C1799 C1800 1.374 . S
C1800 H1774 0.950 . S
C1800 C1796 1.385 . S
C1800 C1799 1.374 . S
C1801 C1798 1.499 . S
C1801 C1802 1.373 . S
C1801 C1803 1.389 1_455 S
C1802 H1775 0.950 . S
C1802 C1788 1.377 . S
C1802 C1801 1.373 . S
C1803 C1787 1.377 . S
C1803 C1801 1.389 1_655 S
C1803 C1804 1.524 . S
C1804 C1803 1.524 . S
C1804 C1805 1.397 . S
C1804 C1809 1.363 . S
C1805 H1776 0.950 1_655 S
C1805 C1804 1.397 . S
C1805 C1806 1.334 . S
C1806 H1777 0.950 1_655 S
C1806 C1805 1.334 . S
C1806 C1807 1.287 . S
C1807 C1806 1.287 . S
C1807 C1808 1.524 . S
C1807 H1810 0.999 . S
C1808 H1778 0.950 . S
C1808 C1807 1.524 . S
C1808 C1809 1.415 . S
C1809 H1779 0.950 . S
C1809 C1804 1.363 . S
C1809 C1808 1.415 . S
H1810 C1807 0.999 . S
H1811 C1792 0.913 . S
H1812 C1830 0.951 . S
H1813 C1832 0.951 . S
H1814 C1834 0.950 . S
H1815 C1835 0.950 . S
H1816 C1837 0.950 . S
H1817 C1840 0.950 . S
H1818 C1841 0.950 . S
H1819 C1843 0.950 . S
H1820 C1844 0.950 . S
H1821 C1845 0.951 . S
H1822 C1847 0.951 . S
H1823 C1849 0.950 . S
H1824 C1850 0.950 . S
H1825 C1852 0.950 . S
H1826 C1855 0.950 . S
H1827 C1856 0.950 . S
H1828 C1858 0.950 . S
H1829 C1859 0.950 . S
C1830 H1812 0.951 . S
C1830 C1831 1.366 . S
C1830 C1832 1.388 . S
C1831 C1830 1.366 . S
C1831 C1835 1.385 . S
C1832 H1813 0.951 . S
C1832 C1830 1.388 . S
C1832 C1833 1.366 . S
C1833 C1832 1.366 . S
C1833 C1834 1.414 . S
C1833 C1836 1.499 . S
C1834 H1814 0.950 . S
C1834 C1833 1.414 . S
C1834 C1835 1.374 . S
C1835 H1815 0.950 . S
C1835 C1831 1.385 . S
C1835 C1834 1.374 . S
C1836 C1833 1.499 . S
C1836 C1837 1.373 . S
C1836 C1838 1.389 . S
C1837 H1816 0.950 . S
C1837 C1836 1.373 . S
C1837 C1853 1.377 . S
C1838 C1836 1.389 . S
C1838 C1839 1.524 . S
C1838 C1852 1.377 . S
C1839 C1838 1.524 . S
C1839 C1840 1.397 . S
C1839 C1844 1.363 . S
C1840 H1817 0.950 . S
C1840 C1839 1.397 . S
C1840 C1841 1.334 . S
C1841 H1818 0.950 . S
C1841 C1840 1.334 . S
C1841 C1842 1.287 . S
C1842 C1841 1.287 . S
C1842 C1843 1.524 . S
C1842 H1861 0.913 . S
C1843 H1819 0.950 . S
C1843 C1842 1.524 . S
C1843 C1844 1.415 . S
C1844 H1820 0.950 . S
C1844 C1839 1.363 . S
C1844 C1843 1.415 . S
C1845 H1821 0.951 . S
C1845 C1846 1.366 . S
C1845 C1847 1.388 . S
C1846 C1845 1.366 . S
C1846 C1850 1.385 . S
C1847 H1822 0.951 . S
C1847 C1845 1.388 . S
C1847 C1848 1.366 . S
C1848 C1847 1.366 . S
C1848 C1849 1.414 . S
C1848 C1851 1.499 . S
C1849 H1823 0.950 . S
C1849 C1848 1.414 . S
C1849 C1850 1.374 . S
C1850 H1824 0.950 . S
C1850 C1846 1.385 . S
C1850 C1849 1.374 . S
C1851 C1848 1.499 . S
C1851 C1852 1.373 . S
C1851 C1853 1.389 . S
C1852 H1825 0.950 . S
C1852 C1838 1.377 . S
C1852 C1851 1.373 . S
C1853 C1837 1.377 . S
C1853 C1851 1.389 . S
C1853 C1854 1.524 . S
C1854 C1853 1.524 . S
C1854 C1855 1.397 . S
C1854 C1859 1.363 . S
C1855 H1826 0.950 . S
C1855 C1854 1.397 . S
C1855 C1856 1.334 . S
C1856 H1827 0.950 . S
C1856 C1855 1.334 . S
C1856 C1857 1.287 . S
C1857 C1856 1.287 . S
C1857 C1858 1.524 . S
C1857 H1860 0.999 . S
C1858 H1828 0.950 . S
C1858 C1857 1.524 . S
C1858 C1859 1.415 . S
C1859 H1829 0.950 . S
C1859 C1854 1.363 . S
C1859 C1858 1.415 . S
H1860 C1857 0.999 . S
H1861 C1842 0.913 . S
H1862 C1880 0.951 . S
H1863 C1882 0.951 . S
H1864 C1884 0.950 . S
H1865 C1885 0.950 . S
H1866 C1887 0.950 . S
H1867 C1890 0.950 . S
H1868 C1891 0.950 . S
H1869 C1893 0.950 . S
H1870 C1894 0.950 . S
H1871 C1895 0.951 . S
H1872 C1897 0.951 . S
H1873 C1899 0.950 . S
H1874 C1900 0.950 . S
H1875 C1902 0.950 . S
H1876 C1905 0.950 . S
H1877 C1906 0.950 . S
H1878 C1908 0.950 . S
H1879 C1909 0.950 . S
C1880 H1862 0.951 . S
C1880 C1881 1.366 . S
C1880 C1882 1.388 . S
C1881 C1880 1.366 . S
C1881 C1885 1.385 . S
C1882 H1863 0.951 . S
C1882 C1880 1.388 . S
C1882 C1883 1.366 . S
C1883 C1882 1.366 . S
C1883 C1884 1.414 . S
C1883 C1886 1.499 . S
C1884 H1864 0.950 . S
C1884 C1883 1.414 . S
C1884 C1885 1.374 . S
C1885 H1865 0.950 . S
C1885 C1881 1.385 . S
C1885 C1884 1.374 . S
C1886 C1883 1.499 . S
C1886 C1887 1.373 . S
C1886 C1888 1.389 . S
C1887 H1866 0.950 . S
C1887 C1886 1.373 . S
C1887 C1903 1.377 . S
C1888 C1886 1.389 . S
C1888 C1889 1.524 . S
C1888 C1902 1.377 . S
C1889 C1888 1.524 . S
C1889 C1890 1.397 . S
C1889 C1894 1.363 . S
C1890 H1867 0.950 . S
C1890 C1889 1.397 . S
C1890 C1891 1.334 . S
C1891 H1868 0.950 . S
C1891 C1890 1.334 . S
C1891 C1892 1.287 . S
C1892 C1891 1.287 . S
C1892 C1893 1.524 . S
C1892 H1911 0.913 . S
C1893 H1869 0.950 . S
C1893 C1892 1.524 . S
C1893 C1894 1.415 . S
C1894 H1870 0.950 . S
C1894 C1889 1.363 . S
C1894 C1893 1.415 . S
C1895 H1871 0.951 . S
C1895 C1896 1.366 . S
C1895 C1897 1.388 . S
C1896 C1895 1.366 . S
C1896 C1900 1.385 . S
C1897 H1872 0.951 . S
C1897 C1895 1.388 . S
C1897 C1898 1.366 . S
C1898 C1897 1.366 . S
C1898 C1899 1.414 . S
C1898 C1901 1.499 . S
C1899 H1873 0.950 . S
C1899 C1898 1.414 . S
C1899 C1900 1.374 . S
C1900 H1874 0.950 . S
C1900 C1896 1.385 . S
C1900 C1899 1.374 . S
C1901 C1898 1.499 . S
C1901 C1902 1.373 . S
C1901 C1903 1.389 . S
C1902 H1875 0.950 . S
C1902 C1888 1.377 . S
C1902 C1901 1.373 . S
C1903 C1887 1.377 . S
C1903 C1901 1.389 . S
C1903 C1904 1.524 . S
C1904 C1903 1.524 . S
C1904 C1905 1.397 . S
C1904 C1909 1.363 . S
C1905 H1876 0.950 . S
C1905 C1904 1.397 . S
C1905 C1906 1.334 . S
C1906 H1877 0.950 . S
C1906 C1905 1.334 . S
C1906 C1907 1.287 . S
C1907 C1906 1.287 . S
C1907 C1908 1.524 . S
C1907 H1910 0.999 . S
C1908 H1878 0.950 . S
C1908 C1907 1.524 . S
C1908 C1909 1.415 . S
C1909 H1879 0.950 . S
C1909 C1904 1.363 . S
C1909 C1908 1.415 . S
H1910 C1907 0.999 . S
H1911 C1892 0.913 . S
H1912 C1930 0.951 . S
H1913 C1932 0.951 . S
H1914 C1934 0.950 . S
H1915 C1935 0.950 . S
H1916 C1937 0.950 . S
H1917 C1940 0.950 . S
H1918 C1941 0.950 . S
H1919 C1943 0.950 . S
H1920 C1944 0.950 . S
H1921 C1945 0.951 . S
H1922 C1947 0.951 . S
H1923 C1949 0.950 . S
H1924 C1950 0.950 . S
H1925 C1952 0.950 . S
H1926 C1955 0.950 . S
H1927 C1956 0.950 . S
H1928 C1958 0.950 . S
H1929 C1959 0.950 . S
C1930 H1912 0.951 . S
C1930 C1931 1.366 . S
C1930 C1932 1.388 . S
C1931 C1930 1.366 . S
C1931 C1935 1.385 . S
C1932 H1913 0.951 . S
C1932 C1930 1.388 . S
C1932 C1933 1.366 . S
C1933 C1932 1.366 . S
C1933 C1934 1.414 . S
C1933 C1936 1.499 . S
C1934 H1914 0.950 . S
C1934 C1933 1.414 . S
C1934 C1935 1.374 . S
C1935 H1915 0.950 . S
C1935 C1931 1.385 . S
C1935 C1934 1.374 . S
C1936 C1933 1.499 . S
C1936 C1937 1.373 . S
C1936 C1938 1.389 . S
C1937 H1916 0.950 . S
C1937 C1936 1.373 . S
C1937 C1953 1.377 . S
C1938 C1936 1.389 . S
C1938 C1939 1.524 . S
C1938 C1952 1.377 . S
C1939 C1938 1.524 . S
C1939 C1940 1.397 . S
C1939 C1944 1.363 . S
C1940 H1917 0.950 . S
C1940 C1939 1.397 . S
C1940 C1941 1.334 . S
C1941 H1918 0.950 . S
C1941 C1940 1.334 . S
C1941 C1942 1.287 . S
C1942 C1941 1.287 . S
C1942 C1943 1.524 . S
C1942 H1961 0.913 . S
C1943 H1919 0.950 . S
C1943 C1942 1.524 . S
C1943 C1944 1.415 . S
C1944 H1920 0.950 . S
C1944 C1939 1.363 . S
C1944 C1943 1.415 . S
C1945 H1921 0.951 . S
C1945 C1946 1.366 . S
C1945 C1947 1.388 . S
C1946 C1945 1.366 . S
C1946 C1950 1.385 . S
C1947 H1922 0.951 . S
C1947 C1945 1.388 . S
C1947 C1948 1.366 . S
C1948 C1947 1.366 . S
C1948 C1949 1.414 . S
C1948 C1951 1.499 . S
C1949 H1923 0.950 . S
C1949 C1948 1.414 . S
C1949 C1950 1.374 . S
C1950 H1924 0.950 . S
C1950 C1946 1.385 . S
C1950 C1949 1.374 . S
C1951 C1948 1.499 . S
C1951 C1952 1.373 . S
C1951 C1953 1.389 . S
C1952 H1925 0.950 . S
C1952 C1938 1.377 . S
C1952 C1951 1.373 . S
C1953 C1937 1.377 . S
C1953 C1951 1.389 . S
C1953 C1954 1.524 . S
C1954 C1953 1.524 . S
C1954 C1955 1.397 . S
C1954 C1959 1.363 . S
C1955 H1926 0.950 . S
C1955 C1954 1.397 . S
C1955 C1956 1.334 . S
C1956 H1927 0.950 . S
C1956 C1955 1.334 . S
C1956 C1957 1.287 . S
C1957 C1956 1.287 . S
C1957 C1958 1.524 . S
C1957 H1960 0.999 . S
C1958 H1928 0.950 . S
C1958 C1957 1.524 . S
C1958 C1959 1.415 . S
C1959 H1929 0.950 . S
C1959 C1954 1.363 . S
C1959 C1958 1.415 . S
H1960 C1957 0.999 . S
H1961 C1942 0.913 . S
H1962 C1980 0.951 . S
H1963 C1982 0.951 . S
H1964 C1984 0.950 . S
H1965 C1985 0.950 . S
H1966 C1987 0.950 . S
H1967 C1990 0.950 . S
H1968 C1991 0.950 . S
H1969 C1993 0.950 . S
H1970 C1994 0.950 . S
H1971 C1995 0.951 . S
H1972 C1997 0.951 . S
H1973 C1999 0.950 . S
H1974 C2000 0.950 . S
H1975 C2002 0.950 . S
H1976 C2005 0.950 . S
H1977 C2006 0.950 . S
H1978 C2008 0.950 . S
H1979 C2009 0.950 . S
C1980 H1962 0.951 . S
C1980 C1981 1.366 . S
C1980 C1982 1.388 . S
C1981 C1980 1.366 . S
C1981 C1985 1.385 . S
C1982 H1963 0.951 . S
C1982 C1980 1.388 . S
C1982 C1983 1.366 . S
C1983 C1982 1.366 . S
C1983 C1984 1.414 . S
C1983 C1986 1.499 . S
C1984 H1964 0.950 . S
C1984 C1983 1.414 . S
C1984 C1985 1.374 . S
C1985 H1965 0.950 . S
C1985 C1981 1.385 . S
C1985 C1984 1.374 . S
C1986 C1983 1.499 . S
C1986 C1987 1.373 . S
C1986 C1988 1.389 . S
C1987 H1966 0.950 . S
C1987 C1986 1.373 . S
C1987 C2003 1.377 . S
C1988 C1986 1.389 . S
C1988 C1989 1.524 . S
C1988 C2002 1.377 . S
C1989 C1988 1.524 . S
C1989 C1990 1.397 . S
C1989 C1994 1.363 . S
C1990 H1967 0.950 . S
C1990 C1989 1.397 . S
C1990 C1991 1.334 . S
C1991 H1968 0.950 . S
C1991 C1990 1.334 . S
C1991 C1992 1.287 . S
C1992 C1991 1.287 . S
C1992 C1993 1.524 . S
C1992 H2011 0.913 . S
C1993 H1969 0.950 . S
C1993 C1992 1.524 . S
C1993 C1994 1.415 . S
C1994 H1970 0.950 . S
C1994 C1989 1.363 . S
C1994 C1993 1.415 . S
C1995 H1971 0.951 . S
C1995 C1996 1.366 . S
C1995 C1997 1.388 . S
C1996 C1995 1.366 . S
C1996 C2000 1.385 . S
C1997 H1972 0.951 . S
C1997 C1995 1.388 . S
C1997 C1998 1.366 . S
C1998 C1997 1.366 . S
C1998 C1999 1.414 . S
C1998 C2001 1.499 . S
C1999 H1973 0.950 . S
C1999 C1998 1.414 . S
C1999 C2000 1.374 . S
C2000 H1974 0.950 . S
C2000 C1996 1.385 . S
C2000 C1999 1.374 . S
C2001 C1998 1.499 . S
C2001 C2002 1.373 . S
C2001 C2003 1.389 . S
C2002 H1975 0.950 . S
C2002 C1988 1.377 . S
C2002 C2001 1.373 . S
C2003 C1987 1.377 . S
C2003 C2001 1.389 . S
C2003 C2004 1.524 . S
C2004 C2003 1.524 . S
C2004 C2005 1.397 . S
C2004 C2009 1.363 . S
C2005 H1976 0.950 . S
C2005 C2004 1.397 . S
C2005 C2006 1.334 . S
C2006 H1977 0.950 . S
C2006 C2005 1.334 . S
C2006 C2007 1.287 . S
C2007 C2006 1.287 . S
C2007 C2008 1.524 . S
C2007 H2010 0.999 . S
C2008 H1978 0.950 . S
C2008 C2007 1.524 . S
C2008 C2009 1.415 . S
C2009 H1979 0.950 . S
C2009 C2004 1.363 . S
C2009 C2008 1.415 . S
H2010 C2007 0.999 . S
H2011 C1992 0.913 . S
H2012 C2030 0.951 . S
H2013 C2032 0.951 . S
H2014 C2034 0.950 . S
H2015 C2035 0.950 . S
H2016 C2037 0.950 . S
H2017 C2040 0.950 . S
H2018 C2041 0.950 . S
H2019 C2043 0.950 . S
H2020 C2044 0.950 . S
H2021 C2045 0.951 . S
H2022 C2047 0.951 . S
H2023 C2049 0.950 . S
H2024 C2050 0.950 . S
H2025 C2052 0.950 . S
H2026 C2055 0.950 . S
H2027 C2056 0.950 . S
H2028 C2058 0.950 . S
H2029 C2059 0.950 . S
C2030 H2012 0.951 . S
C2030 C2031 1.366 . S
C2030 C2032 1.388 . S
C2031 C2030 1.366 . S
C2031 C2035 1.385 . S
C2032 H2013 0.951 . S
C2032 C2030 1.388 . S
C2032 C2033 1.366 . S
C2033 C2032 1.366 . S
C2033 C2034 1.414 . S
C2033 C2036 1.499 . S
C2034 H2014 0.950 . S
C2034 C2033 1.414 . S
C2034 C2035 1.374 . S
C2035 H2015 0.950 . S
C2035 C2031 1.385 . S
C2035 C2034 1.374 . S
C2036 C2033 1.499 . S
C2036 C2037 1.373 . S
C2036 C2038 1.389 . S
C2037 H2016 0.950 . S
C2037 C2036 1.373 . S
C2037 C2053 1.377 . S
C2038 C2036 1.389 . S
C2038 C2039 1.524 . S
C2038 C2052 1.377 . S
C2039 C2038 1.524 . S
C2039 C2040 1.397 . S
C2039 C2044 1.363 . S
C2040 H2017 0.950 . S
C2040 C2039 1.397 . S
C2040 C2041 1.334 . S
C2041 H2018 0.950 . S
C2041 C2040 1.334 . S
C2041 C2042 1.287 . S
C2042 C2041 1.287 . S
C2042 C2043 1.524 . S
C2042 H2061 0.913 . S
C2043 H2019 0.950 . S
C2043 C2042 1.524 . S
C2043 C2044 1.415 . S
C2044 H2020 0.950 . S
C2044 C2039 1.363 . S
C2044 C2043 1.415 . S
C2045 H2021 0.951 . S
C2045 C2046 1.366 . S
C2045 C2047 1.388 . S
C2046 C2045 1.366 . S
C2046 C2050 1.385 . S
C2047 H2022 0.951 . S
C2047 C2045 1.388 . S
C2047 C2048 1.366 . S
C2048 C2047 1.366 . S
C2048 C2049 1.414 . S
C2048 C2051 1.499 . S
C2049 H2023 0.950 . S
C2049 C2048 1.414 . S
C2049 C2050 1.374 . S
C2050 H2024 0.950 . S
C2050 C2046 1.385 . S
C2050 C2049 1.374 . S
C2051 C2048 1.499 . S
C2051 C2052 1.373 . S
C2051 C2053 1.389 . S
C2052 H2025 0.950 . S
C2052 C2038 1.377 . S
C2052 C2051 1.373 . S
C2053 C2037 1.377 . S
C2053 C2051 1.389 . S
C2053 C2054 1.524 . S
C2054 C2053 1.524 . S
C2054 C2055 1.397 . S
C2054 C2059 1.363 . S
C2055 H2026 0.950 . S
C2055 C2054 1.397 . S
C2055 C2056 1.334 . S
C2056 H2027 0.950 . S
C2056 C2055 1.334 . S
C2056 C2057 1.287 . S
C2057 C2056 1.287 . S
C2057 C2058 1.524 . S
C2057 H2060 0.999 . S
C2058 H2028 0.950 . S
C2058 C2057 1.524 . S
C2058 C2059 1.415 . S
C2059 H2029 0.950 . S
C2059 C2054 1.363 . S
C2059 C2058 1.415 . S
H2060 C2057 0.999 . S
H2061 C2042 0.913 . S
H2062 C2080 0.951 . S
H2063 C2082 0.951 . S
H2064 C2084 0.950 . S
H2065 C2085 0.950 . S
H2066 C2087 0.950 . S
H2067 C2090 0.950 . S
H2068 C2091 0.950 . S
H2069 C2093 0.950 . S
H2070 C2094 0.950 . S
H2071 C2095 0.951 . S
H2072 C2097 0.951 . S
H2073 C2099 0.950 . S
H2074 C2100 0.950 . S
H2075 C2102 0.950 . S
H2076 C2105 0.950 . S
H2077 C2106 0.950 . S
H2078 C2108 0.950 . S
H2079 C2109 0.950 . S
C2080 H2062 0.951 . S
C2080 C2081 1.366 . S
C2080 C2082 1.388 . S
C2081 C2080 1.366 . S
C2081 C2085 1.385 . S
C2082 H2063 0.951 . S
C2082 C2080 1.388 . S
C2082 C2083 1.366 . S
C2083 C2082 1.366 . S
C2083 C2084 1.414 . S
C2083 C2086 1.499 . S
C2084 H2064 0.950 . S
C2084 C2083 1.414 . S
C2084 C2085 1.374 . S
C2085 H2065 0.950 . S
C2085 C2081 1.385 . S
C2085 C2084 1.374 . S
C2086 C2083 1.499 . S
C2086 C2087 1.373 . S
C2086 C2088 1.389 . S
C2087 H2066 0.950 . S
C2087 C2086 1.373 . S
C2087 C2103 1.377 . S
C2088 C2086 1.389 . S
C2088 C2089 1.524 . S
C2088 C2102 1.377 . S
C2089 C2088 1.524 . S
C2089 C2090 1.397 . S
C2089 C2094 1.363 . S
C2090 H2067 0.950 . S
C2090 C2089 1.397 . S
C2090 C2091 1.334 . S
C2091 H2068 0.950 . S
C2091 C2090 1.334 . S
C2091 C2092 1.287 . S
C2092 C2091 1.287 . S
C2092 C2093 1.524 . S
C2092 H2111 0.913 . S
C2093 H2069 0.950 . S
C2093 C2092 1.524 . S
C2093 C2094 1.415 . S
C2094 H2070 0.950 . S
C2094 C2089 1.363 . S
C2094 C2093 1.415 . S
C2095 H2071 0.951 . S
C2095 C2096 1.366 . S
C2095 C2097 1.388 . S
C2096 C2095 1.366 . S
C2096 C2100 1.385 . S
C2097 H2072 0.951 . S
C2097 C2095 1.388 . S
C2097 C2098 1.366 . S
C2098 C2097 1.366 . S
C2098 C2099 1.414 . S
C2098 C2101 1.499 . S
C2099 H2073 0.950 . S
C2099 C2098 1.414 . S
C2099 C2100 1.374 . S
C2100 H2074 0.950 . S
C2100 C2096 1.385 . S
C2100 C2099 1.374 . S
C2101 C2098 1.499 . S
C2101 C2102 1.373 . S
C2101 C2103 1.389 . S
C2102 H2075 0.950 . S
C2102 C2088 1.377 . S
C2102 C2101 1.373 . S
C2103 C2087 1.377 . S
C2103 C2101 1.389 . S
C2103 C2104 1.524 . S
C2104 C2103 1.524 . S
C2104 C2105 1.397 . S
C2104 C2109 1.363 . S
C2105 H2076 0.950 . S
C2105 C2104 1.397 . S
C2105 C2106 1.334 . S
C2106 H2077 0.950 . S
C2106 C2105 1.334 . S
C2106 C2107 1.287 . S
C2107 C2106 1.287 . S
C2107 C2108 1.524 . S
C2107 H2110 0.999 . S
C2108 H2078 0.950 . S
C2108 C2107 1.524 . S
C2108 C2109 1.415 . S
C2109 H2079 0.950 . S
C2109 C2104 1.363 . S
C2109 C2108 1.415 . S
H2110 C2107 0.999 . S
H2111 C2092 0.913 . S
H2112 C2130 0.951 . S
H2113 C2132 0.951 . S
H2114 C2134 0.950 . S
H2115 C2135 0.950 . S
H2116 C2137 0.950 . S
H2117 C2140 0.950 . S
H2118 C2141 0.950 . S
H2119 C2143 0.950 . S
H2120 C2144 0.950 . S
H2121 C2145 0.951 . S
H2122 C2147 0.951 . S
H2123 C2149 0.950 . S
H2124 C2150 0.950 . S
H2125 C2152 0.950 . S
H2126 C2155 0.950 . S
H2127 C2156 0.950 . S
H2128 C2158 0.950 . S
H2129 C2159 0.950 . S
C2130 H2112 0.951 . S
C2130 C2131 1.366 . S
C2130 C2132 1.388 . S
C2131 C2130 1.366 . S
C2131 C2135 1.385 . S
C2132 H2113 0.951 . S
C2132 C2130 1.388 . S
C2132 C2133 1.366 . S
C2133 C2132 1.366 . S
C2133 C2134 1.414 . S
C2133 C2136 1.499 . S
C2134 H2114 0.950 . S
C2134 C2133 1.414 . S
C2134 C2135 1.374 . S
C2135 H2115 0.950 . S
C2135 C2131 1.385 . S
C2135 C2134 1.374 . S
C2136 C2133 1.499 . S
C2136 C2137 1.373 . S
C2136 C2138 1.389 . S
C2137 H2116 0.950 . S
C2137 C2136 1.373 . S
C2137 C2153 1.377 . S
C2138 C2136 1.389 . S
C2138 C2139 1.524 . S
C2138 C2152 1.377 . S
C2139 C2138 1.524 . S
C2139 C2140 1.397 . S
C2139 C2144 1.363 . S
C2140 H2117 0.950 . S
C2140 C2139 1.397 . S
C2140 C2141 1.334 . S
C2141 H2118 0.950 . S
C2141 C2140 1.334 . S
C2141 C2142 1.287 . S
C2142 C2141 1.287 . S
C2142 C2143 1.524 . S
C2142 H2161 0.913 . S
C2143 H2119 0.950 . S
C2143 C2142 1.524 . S
C2143 C2144 1.415 . S
C2144 H2120 0.950 . S
C2144 C2139 1.363 . S
C2144 C2143 1.415 . S
C2145 H2121 0.951 . S
C2145 C2146 1.366 . S
C2145 C2147 1.388 . S
C2146 C2145 1.366 . S
C2146 C2150 1.385 . S
C2147 H2122 0.951 . S
C2147 C2145 1.388 . S
C2147 C2148 1.366 . S
C2148 C2147 1.366 . S
C2148 C2149 1.414 . S
C2148 C2151 1.499 . S
C2149 H2123 0.950 . S
C2149 C2148 1.414 . S
C2149 C2150 1.374 . S
C2150 H2124 0.950 . S
C2150 C2146 1.385 . S
C2150 C2149 1.374 . S
C2151 C2148 1.499 . S
C2151 C2152 1.373 . S
C2151 C2153 1.389 . S
C2152 H2125 0.950 . S
C2152 C2138 1.377 . S
C2152 C2151 1.373 . S
C2153 C2137 1.377 . S
C2153 C2151 1.389 . S
C2153 C2154 1.524 . S
C2154 C2153 1.524 . S
C2154 C2155 1.397 . S
C2154 C2159 1.363 . S
C2155 H2126 0.950 . S
C2155 C2154 1.397 . S
C2155 C2156 1.334 . S
C2156 H2127 0.950 . S
C2156 C2155 1.334 . S
C2156 C2157 1.287 . S
C2157 C2156 1.287 . S
C2157 C2158 1.524 . S
C2157 H2160 0.999 . S
C2158 H2128 0.950 . S
C2158 C2157 1.524 . S
C2158 C2159 1.415 . S
C2159 H2129 0.950 . S
C2159 C2154 1.363 . S
C2159 C2158 1.415 . S
H2160 C2157 0.999 . S
H2161 C2142 0.913 . S
H2162 C2180 0.951 . S
H2163 C2182 0.951 . S
H2164 C2184 0.950 . S
H2165 C2185 0.950 . S
H2166 C2187 0.950 . S
H2167 C2190 0.950 . S
H2168 C2191 0.950 . S
H2169 C2193 0.950 . S
H2170 C2194 0.950 . S
H2171 C2195 0.951 . S
H2172 C2197 0.951 . S
H2173 C2199 0.950 . S
H2174 C2200 0.950 . S
H2175 C2202 0.950 . S
H2176 C2205 0.950 . S
H2177 C2206 0.950 . S
H2178 C2208 0.950 . S
H2179 C2209 0.950 . S
C2180 H2162 0.951 . S
C2180 C2181 1.366 . S
C2180 C2182 1.388 . S
C2181 C2180 1.366 . S
C2181 C2185 1.385 . S
C2182 H2163 0.951 . S
C2182 C2180 1.388 . S
C2182 C2183 1.366 . S
C2183 C2182 1.366 . S
C2183 C2184 1.414 . S
C2183 C2186 1.499 . S
C2184 H2164 0.950 . S
C2184 C2183 1.414 . S
C2184 C2185 1.374 . S
C2185 H2165 0.950 . S
C2185 C2181 1.385 . S
C2185 C2184 1.374 . S
C2186 C2183 1.499 . S
C2186 C2187 1.373 . S
C2186 C2188 1.389 . S
C2187 H2166 0.950 . S
C2187 C2186 1.373 . S
C2187 C2203 1.377 . S
C2188 C2186 1.389 . S
C2188 C2189 1.524 . S
C2188 C2202 1.377 . S
C2189 C2188 1.524 . S
C2189 C2190 1.397 . S
C2189 C2194 1.363 . S
C2190 H2167 0.950 . S
C2190 C2189 1.397 . S
C2190 C2191 1.334 . S
C2191 H2168 0.950 . S
C2191 C2190 1.334 . S
C2191 C2192 1.287 . S
C2192 C2191 1.287 . S
C2192 C2193 1.524 . S
C2192 H2211 0.913 . S
C2193 H2169 0.950 . S
C2193 C2192 1.524 . S
C2193 C2194 1.415 . S
C2194 H2170 0.950 . S
C2194 C2189 1.363 . S
C2194 C2193 1.415 . S
C2195 H2171 0.951 . S
C2195 C2196 1.366 . S
C2195 C2197 1.388 . S
C2196 C2195 1.366 . S
C2196 C2200 1.385 . S
C2197 H2172 0.951 . S
C2197 C2195 1.388 . S
C2197 C2198 1.366 . S
C2198 C2197 1.366 . S
C2198 C2199 1.414 . S
C2198 C2201 1.499 . S
C2199 H2173 0.950 . S
C2199 C2198 1.414 . S
C2199 C2200 1.374 . S
C2200 H2174 0.950 . S
C2200 C2196 1.385 . S
C2200 C2199 1.374 . S
C2201 C2198 1.499 . S
C2201 C2202 1.373 . S
C2201 C2203 1.389 . S
C2202 H2175 0.950 . S
C2202 C2188 1.377 . S
C2202 C2201 1.373 . S
C2203 C2187 1.377 . S
C2203 C2201 1.389 . S
C2203 C2204 1.524 . S
C2204 C2203 1.524 . S
C2204 C2205 1.397 . S
C2204 C2209 1.363 . S
C2205 H2176 0.950 . S
C2205 C2204 1.397 . S
C2205 C2206 1.334 . S
C2206 H2177 0.950 . S
C2206 C2205 1.334 . S
C2206 C2207 1.287 . S
C2207 C2206 1.287 . S
C2207 C2208 1.524 . S
C2207 H2210 0.999 . S
C2208 H2178 0.950 . S
C2208 C2207 1.524 . S
C2208 C2209 1.415 . S
C2209 H2179 0.950 . S
C2209 C2204 1.363 . S
C2209 C2208 1.415 . S
H2210 C2207 0.999 . S
H2211 C2192 0.913 . S
H2212 C2230 0.951 . S
H2213 C2232 0.951 . S
H2214 C2234 0.950 . S
H2215 C2235 0.950 . S
H2216 C2237 0.950 . S
H2217 C2240 0.950 . S
H2218 C2241 0.950 . S
H2219 C2243 0.950 . S
H2220 C2244 0.950 . S
H2221 C2245 0.951 . S
H2222 C2247 0.951 . S
H2223 C2249 0.950 . S
H2224 C2250 0.950 . S
H2225 C2252 0.950 . S
H2226 C2255 0.950 . S
H2227 C2256 0.950 . S
H2228 C2258 0.950 . S
H2229 C2259 0.950 . S
C2230 H2212 0.951 . S
C2230 C2231 1.366 . S
C2230 C2232 1.388 . S
C2231 C2230 1.366 . S
C2231 C2235 1.385 . S
C2232 H2213 0.951 . S
C2232 C2230 1.388 . S
C2232 C2233 1.366 . S
C2233 C2232 1.366 . S
C2233 C2234 1.414 . S
C2233 C2236 1.499 . S
C2234 H2214 0.950 . S
C2234 C2233 1.414 . S
C2234 C2235 1.374 . S
C2235 H2215 0.950 . S
C2235 C2231 1.385 . S
C2235 C2234 1.374 . S
C2236 C2233 1.499 . S
C2236 C2237 1.373 . S
C2236 C2238 1.389 . S
C2237 H2216 0.950 . S
C2237 C2236 1.373 . S
C2237 C2253 1.377 . S
C2238 C2236 1.389 . S
C2238 C2239 1.524 . S
C2238 C2252 1.377 . S
C2239 C2238 1.524 . S
C2239 C2240 1.397 . S
C2239 C2244 1.363 . S
C2240 H2217 0.950 . S
C2240 C2239 1.397 . S
C2240 C2241 1.334 . S
C2241 H2218 0.950 . S
C2241 C2240 1.334 . S
C2241 C2242 1.287 . S
C2242 C2241 1.287 . S
C2242 C2243 1.524 . S
C2242 H2261 0.913 . S
C2243 H2219 0.950 . S
C2243 C2242 1.524 . S
C2243 C2244 1.415 . S
C2244 H2220 0.950 . S
C2244 C2239 1.363 . S
C2244 C2243 1.415 . S
C2245 H2221 0.951 . S
C2245 C2246 1.366 . S
C2245 C2247 1.388 . S
C2246 C2245 1.366 . S
C2246 C2250 1.385 . S
C2247 H2222 0.951 . S
C2247 C2245 1.388 . S
C2247 C2248 1.366 . S
C2248 C2247 1.366 . S
C2248 C2249 1.414 . S
C2248 C2251 1.499 . S
C2249 H2223 0.950 . S
C2249 C2248 1.414 . S
C2249 C2250 1.374 . S
C2250 H2224 0.950 . S
C2250 C2246 1.385 . S
C2250 C2249 1.374 . S
C2251 C2248 1.499 . S
C2251 C2252 1.373 . S
C2251 C2253 1.389 . S
C2252 H2225 0.950 . S
C2252 C2238 1.377 . S
C2252 C2251 1.373 . S
C2253 C2237 1.377 . S
C2253 C2251 1.389 . S
C2253 C2254 1.524 . S
C2254 C2253 1.524 . S
C2254 C2255 1.397 . S
C2254 C2259 1.363 . S
C2255 H2226 0.950 . S
C2255 C2254 1.397 . S
C2255 C2256 1.334 . S
C2256 H2227 0.950 . S
C2256 C2255 1.334 . S
C2256 C2257 1.287 . S
C2257 C2256 1.287 . S
C2257 C2258 1.524 . S
C2257 H2260 0.999 . S
C2258 H2228 0.950 . S
C2258 C2257 1.524 . S
C2258 C2259 1.415 . S
C2259 H2229 0.950 . S
C2259 C2254 1.363 . S
C2259 C2258 1.415 . S
H2260 C2257 0.999 . S
H2261 C2242 0.913 . S
H2262 C2280 0.951 . S
H2263 C2282 0.951 . S
H2264 C2284 0.950 . S
H2265 C2285 0.950 . S
H2266 C2287 0.950 . S
H2267 C2290 0.950 . S
H2268 C2291 0.950 . S
H2269 C2293 0.950 . S
H2270 C2294 0.950 . S
H2271 C2295 0.951 . S
H2272 C2297 0.951 . S
H2273 C2299 0.950 . S
H2274 C2300 0.950 . S
H2275 C2302 0.950 . S
H2276 C2305 0.950 . S
H2277 C2306 0.950 . S
H2278 C2308 0.950 . S
H2279 C2309 0.950 . S
C2280 H2262 0.951 . S
C2280 C2281 1.366 . S
C2280 C2282 1.388 . S
C2281 C2280 1.366 . S
C2281 C2285 1.385 . S
C2282 H2263 0.951 . S
C2282 C2280 1.388 . S
C2282 C2283 1.366 . S
C2283 C2282 1.366 . S
C2283 C2284 1.414 . S
C2283 C2286 1.499 . S
C2284 H2264 0.950 . S
C2284 C2283 1.414 . S
C2284 C2285 1.374 . S
C2285 H2265 0.950 . S
C2285 C2281 1.385 . S
C2285 C2284 1.374 . S
C2286 C2283 1.499 . S
C2286 C2287 1.373 . S
C2286 C2288 1.389 . S
C2287 H2266 0.950 . S
C2287 C2286 1.373 . S
C2287 C2303 1.377 . S
C2288 C2286 1.389 . S
C2288 C2289 1.524 . S
C2288 C2302 1.377 . S
C2289 C2288 1.524 . S
C2289 C2290 1.397 . S
C2289 C2294 1.363 . S
C2290 H2267 0.950 . S
C2290 C2289 1.397 . S
C2290 C2291 1.334 . S
C2291 H2268 0.950 . S
C2291 C2290 1.334 . S
C2291 C2292 1.287 . S
C2292 C2291 1.287 . S
C2292 C2293 1.524 . S
C2292 H2311 0.913 . S
C2293 H2269 0.950 . S
C2293 C2292 1.524 . S
C2293 C2294 1.415 . S
C2294 H2270 0.950 . S
C2294 C2289 1.363 . S
C2294 C2293 1.415 . S
C2295 H2271 0.951 . S
C2295 C2296 1.366 . S
C2295 C2297 1.388 . S
C2296 C2295 1.366 . S
C2296 C2300 1.385 . S
C2297 H2272 0.951 . S
C2297 C2295 1.388 . S
C2297 C2298 1.366 . S
C2298 C2297 1.366 . S
C2298 C2299 1.414 . S
C2298 C2301 1.499 . S
C2299 H2273 0.950 . S
C2299 C2298 1.414 . S
C2299 C2300 1.374 . S
C2300 H2274 0.950 . S
C2300 C2296 1.385 . S
C2300 C2299 1.374 . S
C2301 C2298 1.499 . S
C2301 C2302 1.373 . S
C2301 C2303 1.389 . S
C2302 H2275 0.950 . S
C2302 C2288 1.377 . S
C2302 C2301 1.373 . S
C2303 C2287 1.377 . S
C2303 C2301 1.389 . S
C2303 C2304 1.524 . S
C2304 C2303 1.524 . S
C2304 C2305 1.397 . S
C2304 C2309 1.363 . S
C2305 H2276 0.950 . S
C2305 C2304 1.397 . S
C2305 C2306 1.334 . S
C2306 H2277 0.950 . S
C2306 C2305 1.334 . S
C2306 C2307 1.287 . S
C2307 C2306 1.287 . S
C2307 C2308 1.524 . S
C2307 H2310 0.999 . S
C2308 H2278 0.950 . S
C2308 C2307 1.524 . S
C2308 C2309 1.415 . S
C2309 H2279 0.950 . S
C2309 C2304 1.363 . S
C2309 C2308 1.415 . S
H2310 C2307 0.999 . S
H2311 C2292 0.913 . S
H2312 C2330 0.951 . S
H2313 C2332 0.951 . S
H2314 C2334 0.950 . S
H2315 C2335 0.950 . S
H2316 C2337 0.950 . S
H2317 C2340 0.950 . S
H2318 C2341 0.950 . S
H2319 C2343 0.950 . S
H2320 C2344 0.950 . S
H2321 C2345 0.951 . S
H2322 C2347 0.951 . S
H2323 C2349 0.950 . S
H2324 C2350 0.950 . S
H2325 C2352 0.950 . S
H2326 C2355 0.950 . S
H2327 C2356 0.950 . S
H2328 C2358 0.950 . S
H2329 C2359 0.950 . S
C2330 H2312 0.951 . S
C2330 C2331 1.366 . S
C2330 C2332 1.388 . S
C2331 C2330 1.366 . S
C2331 C2335 1.385 . S
C2332 H2313 0.951 . S
C2332 C2330 1.388 . S
C2332 C2333 1.366 . S
C2333 C2332 1.366 . S
C2333 C2334 1.414 . S
C2333 C2336 1.499 . S
C2334 H2314 0.950 . S
C2334 C2333 1.414 . S
C2334 C2335 1.374 . S
C2335 H2315 0.950 . S
C2335 C2331 1.385 . S
C2335 C2334 1.374 . S
C2336 C2333 1.499 . S
C2336 C2337 1.373 . S
C2336 C2338 1.389 . S
C2337 H2316 0.950 . S
C2337 C2336 1.373 . S
C2337 C2353 1.377 . S
C2338 C2336 1.389 . S
C2338 C2339 1.524 . S
C2338 C2352 1.377 . S
C2339 C2338 1.524 . S
C2339 C2340 1.397 . S
C2339 C2344 1.363 . S
C2340 H2317 0.950 . S
C2340 C2339 1.397 . S
C2340 C2341 1.334 . S
C2341 H2318 0.950 . S
C2341 C2340 1.334 . S
C2341 C2342 1.287 . S
C2342 C2341 1.287 . S
C2342 C2343 1.524 . S
C2342 H2361 0.913 . S
C2343 H2319 0.950 . S
C2343 C2342 1.524 . S
C2343 C2344 1.415 . S
C2344 H2320 0.950 . S
C2344 C2339 1.363 . S
C2344 C2343 1.415 . S
C2345 H2321 0.951 . S
C2345 C2346 1.366 . S
C2345 C2347 1.388 . S
C2346 C2345 1.366 . S
C2346 C2350 1.385 . S
C2347 H2322 0.951 . S
C2347 C2345 1.388 . S
C2347 C2348 1.366 . S
C2348 C2347 1.366 . S
C2348 C2349 1.414 . S
C2348 C2351 1.499 . S
C2349 H2323 0.950 . S
C2349 C2348 1.414 . S
C2349 C2350 1.374 . S
C2350 H2324 0.950 . S
C2350 C2346 1.385 . S
C2350 C2349 1.374 . S
C2351 C2348 1.499 . S
C2351 C2352 1.373 . S
C2351 C2353 1.389 . S
C2352 H2325 0.950 . S
C2352 C2338 1.377 . S
C2352 C2351 1.373 . S
C2353 C2337 1.377 . S
C2353 C2351 1.389 . S
C2353 C2354 1.524 . S
C2354 C2353 1.524 . S
C2354 C2355 1.397 . S
C2354 C2359 1.363 . S
C2355 H2326 0.950 . S
C2355 C2354 1.397 . S
C2355 C2356 1.334 . S
C2356 H2327 0.950 . S
C2356 C2355 1.334 . S
C2356 C2357 1.287 . S
C2357 C2356 1.287 . S
C2357 C2358 1.524 . S
C2357 H2360 0.999 . S
C2358 H2328 0.950 . S
C2358 C2357 1.524 . S
C2358 C2359 1.415 . S
C2359 H2329 0.950 . S
C2359 C2354 1.363 . S
C2359 C2358 1.415 . S
H2360 C2357 0.999 . S
H2361 C2342 0.913 . S
H2362 C2380 0.951 . S
H2363 C2382 0.951 . S
H2364 C2384 0.950 . S
H2365 C2385 0.950 . S
H2366 C2387 0.950 . S
H2367 C2390 0.950 . S
H2368 C2391 0.950 . S
H2369 C2393 0.950 . S
H2370 C2394 0.950 . S
H2371 C2395 0.951 . S
H2372 C2397 0.951 . S
H2373 C2399 0.950 . S
H2374 C2400 0.950 . S
H2375 C2402 0.950 . S
H2376 C2405 0.950 . S
H2377 C2406 0.950 . S
H2378 C2408 0.950 . S
H2379 C2409 0.950 . S
C2380 H2362 0.951 . S
C2380 C2381 1.366 . S
C2380 C2382 1.388 . S
C2381 C2380 1.366 . S
C2381 C2385 1.385 . S
C2382 H2363 0.951 . S
C2382 C2380 1.388 . S
C2382 C2383 1.366 . S
C2383 C2382 1.366 . S
C2383 C2384 1.414 . S
C2383 C2386 1.499 . S
C2384 H2364 0.950 . S
C2384 C2383 1.414 . S
C2384 C2385 1.374 . S
C2385 H2365 0.950 . S
C2385 C2381 1.385 . S
C2385 C2384 1.374 . S
C2386 C2383 1.499 . S
C2386 C2387 1.373 . S
C2386 C2388 1.389 . S
C2387 H2366 0.950 . S
C2387 C2386 1.373 . S
C2387 C2403 1.377 . S
C2388 C2386 1.389 . S
C2388 C2389 1.524 . S
C2388 C2402 1.377 . S
C2389 C2388 1.524 . S
C2389 C2390 1.397 . S
C2389 C2394 1.363 . S
C2390 H2367 0.950 . S
C2390 C2389 1.397 . S
C2390 C2391 1.334 . S
C2391 H2368 0.950 . S
C2391 C2390 1.334 . S
C2391 C2392 1.287 . S
C2392 C2391 1.287 . S
C2392 C2393 1.524 . S
C2392 H2411 0.913 . S
C2393 H2369 0.950 . S
C2393 C2392 1.524 . S
C2393 C2394 1.415 . S
C2394 H2370 0.950 . S
C2394 C2389 1.363 . S
C2394 C2393 1.415 . S
C2395 H2371 0.951 . S
C2395 C2396 1.366 . S
C2395 C2397 1.388 . S
C2396 C2395 1.366 . S
C2396 C2400 1.385 . S
C2397 H2372 0.951 . S
C2397 C2395 1.388 . S
C2397 C2398 1.366 . S
C2398 C2397 1.366 . S
C2398 C2399 1.414 . S
C2398 C2401 1.499 . S
C2399 H2373 0.950 . S
C2399 C2398 1.414 . S
C2399 C2400 1.374 . S
C2400 H2374 0.950 . S
C2400 C2396 1.385 . S
C2400 C2399 1.374 . S
C2401 C2398 1.499 . S
C2401 C2402 1.373 . S
C2401 C2403 1.389 . S
C2402 H2375 0.950 . S
C2402 C2388 1.377 . S
C2402 C2401 1.373 . S
C2403 C2387 1.377 . S
C2403 C2401 1.389 . S
C2403 C2404 1.524 . S
C2404 C2403 1.524 . S
C2404 C2405 1.397 . S
C2404 C2409 1.363 . S
C2405 H2376 0.950 . S
C2405 C2404 1.397 . S
C2405 C2406 1.334 . S
C2406 H2377 0.950 . S
C2406 C2405 1.334 . S
C2406 C2407 1.287 . S
C2407 C2406 1.287 . S
C2407 C2408 1.524 . S
C2407 H2410 0.999 . S
C2408 H2378 0.950 . S
C2408 C2407 1.524 . S
C2408 C2409 1.415 . S
C2409 H2379 0.950 . S
C2409 C2404 1.363 . S
C2409 C2408 1.415 . S
H2410 C2407 0.999 . S
H2411 C2392 0.913 . S
H2412 C2430 0.951 . S
H2413 C2432 0.951 . S
H2414 C2434 0.950 . S
H2415 C2435 0.950 . S
H2416 C2437 0.950 . S
H2417 C2440 0.950 . S
H2418 C2441 0.950 . S
H2419 C2443 0.950 . S
H2420 C2444 0.950 . S
H2421 C2445 0.951 . S
H2422 C2447 0.951 . S
H2423 C2449 0.950 . S
H2424 C2450 0.950 . S
H2425 C2452 0.950 . S
H2426 C2455 0.950 . S
H2427 C2456 0.950 . S
H2428 C2458 0.950 . S
H2429 C2459 0.950 . S
C2430 H2412 0.951 . S
C2430 C2431 1.366 . S
C2430 C2432 1.388 . S
C2431 C2430 1.366 . S
C2431 C2435 1.385 . S
C2432 H2413 0.951 . S
C2432 C2430 1.388 . S
C2432 C2433 1.366 . S
C2433 C2432 1.366 . S
C2433 C2434 1.414 . S
C2433 C2436 1.499 . S
C2434 H2414 0.950 . S
C2434 C2433 1.414 . S
C2434 C2435 1.374 . S
C2435 H2415 0.950 . S
C2435 C2431 1.385 . S
C2435 C2434 1.374 . S
C2436 C2433 1.499 . S
C2436 C2437 1.373 . S
C2436 C2438 1.389 . S
C2437 H2416 0.950 . S
C2437 C2436 1.373 . S
C2437 C2453 1.377 . S
C2438 C2436 1.389 . S
C2438 C2439 1.524 . S
C2438 C2452 1.377 . S
C2439 C2438 1.524 . S
C2439 C2440 1.397 . S
C2439 C2444 1.363 . S
C2440 H2417 0.950 . S
C2440 C2439 1.397 . S
C2440 C2441 1.334 . S
C2441 H2418 0.950 . S
C2441 C2440 1.334 . S
C2441 C2442 1.287 . S
C2442 C2441 1.287 . S
C2442 C2443 1.524 . S
C2442 H2461 0.913 . S
C2443 H2419 0.950 . S
C2443 C2442 1.524 . S
C2443 C2444 1.415 . S
C2444 H2420 0.950 . S
C2444 C2439 1.363 . S
C2444 C2443 1.415 . S
C2445 H2421 0.951 . S
C2445 C2446 1.366 . S
C2445 C2447 1.388 . S
C2446 C2445 1.366 . S
C2446 C2450 1.385 . S
C2447 H2422 0.951 . S
C2447 C2445 1.388 . S
C2447 C2448 1.366 . S
C2448 C2447 1.366 . S
C2448 C2449 1.414 . S
C2448 C2451 1.499 . S
C2449 H2423 0.950 . S
C2449 C2448 1.414 . S
C2449 C2450 1.374 . S
C2450 H2424 0.950 . S
C2450 C2446 1.385 . S
C2450 C2449 1.374 . S
C2451 C2448 1.499 . S
C2451 C2452 1.373 . S
C2451 C2453 1.389 . S
C2452 H2425 0.950 . S
C2452 C2438 1.377 . S
C2452 C2451 1.373 . S
C2453 C2437 1.377 . S
C2453 C2451 1.389 . S
C2453 C2454 1.524 . S
C2454 C2453 1.524 . S
C2454 C2455 1.397 . S
C2454 C2459 1.363 . S
C2455 H2426 0.950 . S
C2455 C2454 1.397 . S
C2455 C2456 1.334 . S
C2456 H2427 0.950 . S
C2456 C2455 1.334 . S
C2456 C2457 1.287 . S
C2457 C2456 1.287 . S
C2457 C2458 1.524 . S
C2457 H2460 0.999 . S
C2458 H2428 0.950 . S
C2458 C2457 1.524 . S
C2458 C2459 1.415 . S
C2459 H2429 0.950 . S
C2459 C2454 1.363 . S
C2459 C2458 1.415 . S
H2460 C2457 0.999 . S
H2461 C2442 0.913 . S
H2462 C2480 0.951 . S
H2463 C2482 0.951 . S
H2464 C2484 0.950 . S
H2465 C2485 0.950 . S
H2466 C2487 0.950 . S
H2467 C2490 0.950 . S
H2468 C2491 0.950 . S
H2469 C2493 0.950 . S
H2470 C2494 0.950 . S
H2471 C2495 0.951 . S
H2472 C2497 0.951 . S
H2473 C2499 0.950 . S
H2474 C2500 0.950 . S
H2475 C2502 0.950 . S
H2476 C2505 0.950 . S
H2477 C2506 0.950 . S
H2478 C2508 0.950 . S
H2479 C2509 0.950 . S
C2480 H2462 0.951 . S
C2480 C2481 1.366 . S
C2480 C2482 1.388 . S
C2481 C2480 1.366 . S
C2481 C2485 1.385 . S
C2482 H2463 0.951 . S
C2482 C2480 1.388 . S
C2482 C2483 1.366 . S
C2483 C2482 1.366 . S
C2483 C2484 1.414 . S
C2483 C2486 1.499 . S
C2484 H2464 0.950 . S
C2484 C2483 1.414 . S
C2484 C2485 1.374 . S
C2485 H2465 0.950 . S
C2485 C2481 1.385 . S
C2485 C2484 1.374 . S
C2486 C2483 1.499 . S
C2486 C2487 1.373 . S
C2486 C2488 1.389 . S
C2487 H2466 0.950 . S
C2487 C2486 1.373 . S
C2487 C2503 1.377 . S
C2488 C2486 1.389 . S
C2488 C2489 1.524 . S
C2488 C2502 1.377 . S
C2489 C2488 1.524 . S
C2489 C2490 1.397 . S
C2489 C2494 1.363 . S
C2490 H2467 0.950 . S
C2490 C2489 1.397 . S
C2490 C2491 1.334 . S
C2491 H2468 0.950 . S
C2491 C2490 1.334 . S
C2491 C2492 1.287 . S
C2492 C2491 1.287 . S
C2492 C2493 1.524 . S
C2492 H2511 0.913 . S
C2493 H2469 0.950 . S
C2493 C2492 1.524 . S
C2493 C2494 1.415 . S
C2494 H2470 0.950 . S
C2494 C2489 1.363 . S
C2494 C2493 1.415 . S
C2495 H2471 0.951 . S
C2495 C2496 1.366 . S
C2495 C2497 1.388 . S
C2496 C2495 1.366 . S
C2496 C2500 1.385 . S
C2497 H2472 0.951 . S
C2497 C2495 1.388 . S
C2497 C2498 1.366 . S
C2498 C2497 1.366 . S
C2498 C2499 1.414 . S
C2498 C2501 1.499 . S
C2499 H2473 0.950 . S
C2499 C2498 1.414 . S
C2499 C2500 1.374 . S
C2500 H2474 0.950 . S
C2500 C2496 1.385 . S
C2500 C2499 1.374 . S
C2501 C2498 1.499 . S
C2501 C2502 1.373 . S
C2501 C2503 1.389 . S
C2502 H2475 0.950 . S
C2502 C2488 1.377 . S
C2502 C2501 1.373 . S
C2503 C2487 1.377 . S
C2503 C2501 1.389 . S
C2503 C2504 1.524 . S
C2504 C2503 1.524 . S
C2504 C2505 1.397 . S
C2504 C2509 1.363 . S
C2505 H2476 0.950 . S
C2505 C2504 1.397 . S
C2505 C2506 1.334 . S
C2506 H2477 0.950 . S
C2506 C2505 1.334 . S
C2506 C2507 1.287 . S
C2507 C2506 1.287 . S
C2507 C2508 1.524 . S
C2507 H2510 0.999 . S
C2508 H2478 0.950 . S
C2508 C2507 1.524 . S
C2508 C2509 1.415 . S
C2509 H2479 0.950 . S
C2509 C2504 1.363 . S
C2509 C2508 1.415 . S
H2510 C2507 0.999 . S
H2511 C2492 0.913 . S
H2512 C2530 0.951 . S
H2513 C2532 0.951 . S
H2514 C2534 0.950 . S
H2515 C2535 0.950 . S
H2516 C2537 0.950 . S
H2517 C2540 0.950 . S
H2518 C2541 0.950 . S
H2519 C2543 0.950 . S
H2520 C2544 0.950 . S
H2521 C2545 0.951 . S
H2522 C2547 0.951 . S
H2523 C2549 0.950 . S
H2524 C2550 0.950 . S
H2525 C2552 0.950 . S
H2526 C2555 0.950 . S
H2527 C2556 0.950 . S
H2528 C2558 0.950 . S
H2529 C2559 0.950 . S
C2530 H2512 0.951 . S
C2530 C2531 1.366 . S
C2530 C2532 1.388 . S
C2531 C2530 1.366 . S
C2531 C2535 1.385 . S
C2532 H2513 0.951 . S
C2532 C2530 1.388 . S
C2532 C2533 1.366 . S
C2533 C2532 1.366 . S
C2533 C2534 1.414 . S
C2533 C2536 1.499 . S
C2534 H2514 0.950 . S
C2534 C2533 1.414 . S
C2534 C2535 1.374 . S
C2535 H2515 0.950 . S
C2535 C2531 1.385 . S
C2535 C2534 1.374 . S
C2536 C2533 1.499 . S
C2536 C2537 1.373 . S
C2536 C2538 1.389 . S
C2537 H2516 0.950 . S
C2537 C2536 1.373 . S
C2537 C2553 1.377 . S
C2538 C2536 1.389 . S
C2538 C2539 1.524 . S
C2538 C2552 1.377 . S
C2539 C2538 1.524 . S
C2539 C2540 1.397 . S
C2539 C2544 1.363 . S
C2540 H2517 0.950 . S
C2540 C2539 1.397 . S
C2540 C2541 1.334 . S
C2541 H2518 0.950 . S
C2541 C2540 1.334 . S
C2541 C2542 1.287 . S
C2542 C2541 1.287 . S
C2542 C2543 1.524 . S
C2542 H2561 0.913 . S
C2543 H2519 0.950 . S
C2543 C2542 1.524 . S
C2543 C2544 1.415 . S
C2544 H2520 0.950 . S
C2544 C2539 1.363 . S
C2544 C2543 1.415 . S
C2545 H2521 0.951 . S
C2545 C2546 1.366 . S
C2545 C2547 1.388 . S
C2546 C2545 1.366 . S
C2546 C2550 1.385 . S
C2547 H2522 0.951 . S
C2547 C2545 1.388 . S
C2547 C2548 1.366 . S
C2548 C2547 1.366 . S
C2548 C2549 1.414 . S
C2548 C2551 1.499 . S
C2549 H2523 0.950 . S
C2549 C2548 1.414 . S
C2549 C2550 1.374 . S
C2550 H2524 0.950 . S
C2550 C2546 1.385 . S
C2550 C2549 1.374 . S
C2551 C2548 1.499 . S
C2551 C2552 1.373 . S
C2551 C2553 1.389 . S
C2552 H2525 0.950 . S
C2552 C2538 1.377 . S
C2552 C2551 1.373 . S
C2553 C2537 1.377 . S
C2553 C2551 1.389 . S
C2553 C2554 1.524 . S
C2554 C2553 1.524 . S
C2554 C2555 1.397 . S
C2554 C2559 1.363 . S
C2555 H2526 0.950 . S
C2555 C2554 1.397 . S
C2555 C2556 1.334 . S
C2556 H2527 0.950 . S
C2556 C2555 1.334 . S
C2556 C2557 1.287 . S
C2557 C2556 1.287 . S
C2557 C2558 1.524 . S
C2557 H2560 0.999 . S
C2558 H2528 0.950 . S
C2558 C2557 1.524 . S
C2558 C2559 1.415 . S
C2559 H2529 0.950 . S
C2559 C2554 1.363 . S
C2559 C2558 1.415 . S
H2560 C2557 0.999 . S
H2561 C2542 0.913 . S
H2562 C2580 0.951 . S
H2563 C2582 0.951 . S
H2564 C2584 0.950 . S
H2565 C2585 0.950 . S
H2566 C2587 0.950 . S
H2567 C2590 0.950 . S
H2568 C2591 0.950 . S
H2569 C2593 0.950 . S
H2570 C2594 0.950 . S
H2571 C2595 0.951 . S
H2572 C2597 0.951 . S
H2573 C2599 0.950 . S
H2574 C2600 0.950 . S
H2575 C2602 0.950 . S
H2576 C2605 0.950 . S
H2577 C2606 0.950 . S
H2578 C2608 0.950 . S
H2579 C2609 0.950 . S
C2580 H2562 0.951 . S
C2580 C2581 1.366 . S
C2580 C2582 1.388 . S
C2581 C2580 1.366 . S
C2581 C2585 1.385 . S
C2582 H2563 0.951 . S
C2582 C2580 1.388 . S
C2582 C2583 1.366 . S
C2583 C2582 1.366 . S
C2583 C2584 1.414 . S
C2583 C2586 1.499 . S
C2584 H2564 0.950 . S
C2584 C2583 1.414 . S
C2584 C2585 1.374 . S
C2585 H2565 0.950 . S
C2585 C2581 1.385 . S
C2585 C2584 1.374 . S
C2586 C2583 1.499 . S
C2586 C2587 1.373 . S
C2586 C2588 1.389 . S
C2587 H2566 0.950 . S
C2587 C2586 1.373 . S
C2587 C2603 1.377 . S
C2588 C2586 1.389 . S
C2588 C2589 1.524 . S
C2588 C2602 1.377 . S
C2589 C2588 1.524 . S
C2589 C2590 1.397 . S
C2589 C2594 1.363 . S
C2590 H2567 0.950 . S
C2590 C2589 1.397 . S
C2590 C2591 1.334 . S
C2591 H2568 0.950 . S
C2591 C2590 1.334 . S
C2591 C2592 1.287 . S
C2592 C2591 1.287 . S
C2592 C2593 1.524 . S
C2592 H2611 0.913 . S
C2593 H2569 0.950 . S
C2593 C2592 1.524 . S
C2593 C2594 1.415 . S
C2594 H2570 0.950 . S
C2594 C2589 1.363 . S
C2594 C2593 1.415 . S
C2595 H2571 0.951 . S
C2595 C2596 1.366 . S
C2595 C2597 1.388 . S
C2596 C2595 1.366 . S
C2596 C2600 1.385 . S
C2597 H2572 0.951 . S
C2597 C2595 1.388 . S
C2597 C2598 1.366 . S
C2598 C2597 1.366 . S
C2598 C2599 1.414 . S
C2598 C2601 1.499 . S
C2599 H2573 0.950 . S
C2599 C2598 1.414 . S
C2599 C2600 1.374 . S
C2600 H2574 0.950 . S
C2600 C2596 1.385 . S
C2600 C2599 1.374 . S
C2601 C2598 1.499 . S
C2601 C2602 1.373 . S
C2601 C2603 1.389 . S
C2602 H2575 0.950 . S
C2602 C2588 1.377 . S
C2602 C2601 1.373 . S
C2603 C2587 1.377 . S
C2603 C2601 1.389 . S
C2603 C2604 1.524 . S
C2604 C2603 1.524 . S
C2604 C2605 1.397 . S
C2604 C2609 1.363 . S
C2605 H2576 0.950 . S
C2605 C2604 1.397 . S
C2605 C2606 1.334 . S
C2606 H2577 0.950 . S
C2606 C2605 1.334 . S
C2606 C2607 1.287 . S
C2607 C2606 1.287 . S
C2607 C2608 1.524 . S
C2607 H2610 0.999 . S
C2608 H2578 0.950 . S
C2608 C2607 1.524 . S
C2608 C2609 1.415 . S
C2609 H2579 0.950 . S
C2609 C2604 1.363 . S
C2609 C2608 1.415 . S
H2610 C2607 0.999 . S
H2611 C2592 0.913 . S
H2612 C2630 0.951 . S
H2613 C2632 0.951 . S
H2614 C2634 0.950 . S
H2615 C2635 0.950 . S
H2616 C2637 0.950 . S
H2617 C2640 0.950 . S
H2618 C2641 0.950 . S
H2619 C2643 0.950 . S
H2620 C2644 0.950 . S
H2621 C2645 0.951 . S
H2622 C2647 0.951 . S
H2623 C2649 0.950 . S
H2624 C2650 0.950 . S
H2625 C2652 0.950 . S
H2626 C2655 0.950 . S
H2627 C2656 0.950 . S
H2628 C2658 0.950 . S
H2629 C2659 0.950 . S
C2630 H2612 0.951 . S
C2630 C2631 1.366 . S
C2630 C2632 1.388 . S
C2631 C2630 1.366 . S
C2631 C2635 1.385 . S
C2632 H2613 0.951 . S
C2632 C2630 1.388 . S
C2632 C2633 1.366 . S
C2633 C2632 1.366 . S
C2633 C2634 1.414 . S
C2633 C2636 1.499 . S
C2634 H2614 0.950 . S
C2634 C2633 1.414 . S
C2634 C2635 1.374 . S
C2635 H2615 0.950 . S
C2635 C2631 1.385 . S
C2635 C2634 1.374 . S
C2636 C2633 1.499 . S
C2636 C2637 1.373 . S
C2636 C2638 1.389 . S
C2637 H2616 0.950 . S
C2637 C2636 1.373 . S
C2637 C2653 1.377 . S
C2638 C2636 1.389 . S
C2638 C2639 1.524 . S
C2638 C2652 1.377 . S
C2639 C2638 1.524 . S
C2639 C2640 1.397 . S
C2639 C2644 1.363 . S
C2640 H2617 0.950 . S
C2640 C2639 1.397 . S
C2640 C2641 1.334 . S
C2641 H2618 0.950 . S
C2641 C2640 1.334 . S
C2641 C2642 1.287 . S
C2642 C2641 1.287 . S
C2642 C2643 1.524 . S
C2642 H2661 0.913 . S
C2643 H2619 0.950 . S
C2643 C2642 1.524 . S
C2643 C2644 1.415 . S
C2644 H2620 0.950 . S
C2644 C2639 1.363 . S
C2644 C2643 1.415 . S
C2645 H2621 0.951 . S
C2645 C2646 1.366 . S
C2645 C2647 1.388 . S
C2646 C2645 1.366 . S
C2646 C2650 1.385 . S
C2647 H2622 0.951 . S
C2647 C2645 1.388 . S
C2647 C2648 1.366 . S
C2648 C2647 1.366 . S
C2648 C2649 1.414 . S
C2648 C2651 1.499 . S
C2649 H2623 0.950 . S
C2649 C2648 1.414 . S
C2649 C2650 1.374 . S
C2650 H2624 0.950 . S
C2650 C2646 1.385 . S
C2650 C2649 1.374 . S
C2651 C2648 1.499 . S
C2651 C2652 1.373 . S
C2651 C2653 1.389 . S
C2652 H2625 0.950 . S
C2652 C2638 1.377 . S
C2652 C2651 1.373 . S
C2653 C2637 1.377 . S
C2653 C2651 1.389 . S
C2653 C2654 1.524 . S
C2654 C2653 1.524 . S
C2654 C2655 1.397 . S
C2654 C2659 1.363 . S
C2655 H2626 0.950 . S
C2655 C2654 1.397 . S
C2655 C2656 1.334 . S
C2656 H2627 0.950 . S
C2656 C2655 1.334 . S
C2656 C2657 1.287 . S
C2657 C2656 1.287 . S
C2657 C2658 1.524 . S
C2657 H2660 0.999 . S
C2658 H2628 0.950 . S
C2658 C2657 1.524 . S
C2658 C2659 1.415 . S
C2659 H2629 0.950 . S
C2659 C2654 1.363 . S
C2659 C2658 1.415 . S
H2660 C2657 0.999 . S
H2661 C2642 0.913 . S
H2662 C2680 0.951 . S
H2663 C2682 0.951 . S
H2664 C2684 0.950 . S
H2665 C2685 0.950 . S
H2666 C2687 0.950 . S
H2667 C2690 0.950 . S
H2668 C2691 0.950 . S
H2669 C2693 0.950 . S
H2670 C2694 0.950 . S
H2671 C2695 0.951 . S
H2672 C2697 0.951 . S
H2673 C2699 0.950 . S
H2674 C2700 0.950 . S
H2675 C2702 0.950 . S
H2676 C2705 0.950 . S
H2677 C2706 0.950 . S
H2678 C2708 0.950 . S
H2679 C2709 0.950 . S
C2680 H2662 0.951 . S
C2680 C2681 1.366 . S
C2680 C2682 1.388 . S
C2681 C2680 1.366 . S
C2681 C2685 1.385 . S
C2682 H2663 0.951 . S
C2682 C2680 1.388 . S
C2682 C2683 1.366 . S
C2683 C2682 1.366 . S
C2683 C2684 1.414 . S
C2683 C2686 1.499 . S
C2684 H2664 0.950 . S
C2684 C2683 1.414 . S
C2684 C2685 1.374 . S
C2685 H2665 0.950 . S
C2685 C2681 1.385 . S
C2685 C2684 1.374 . S
C2686 C2683 1.499 . S
C2686 C2687 1.373 . S
C2686 C2688 1.389 . S
C2687 H2666 0.950 . S
C2687 C2686 1.373 . S
C2687 C2703 1.377 . S
C2688 C2686 1.389 . S
C2688 C2689 1.524 . S
C2688 C2702 1.377 . S
C2689 C2688 1.524 . S
C2689 C2690 1.397 . S
C2689 C2694 1.363 . S
C2690 H2667 0.950 . S
C2690 C2689 1.397 . S
C2690 C2691 1.334 . S
C2691 H2668 0.950 . S
C2691 C2690 1.334 . S
C2691 C2692 1.287 . S
C2692 C2691 1.287 . S
C2692 C2693 1.524 . S
C2692 H2711 0.913 . S
C2693 H2669 0.950 . S
C2693 C2692 1.524 . S
C2693 C2694 1.415 . S
C2694 H2670 0.950 . S
C2694 C2689 1.363 . S
C2694 C2693 1.415 . S
C2695 H2671 0.951 . S
C2695 C2696 1.366 . S
C2695 C2697 1.388 . S
C2696 C2695 1.366 . S
C2696 C2700 1.385 . S
C2697 H2672 0.951 . S
C2697 C2695 1.388 . S
C2697 C2698 1.366 . S
C2698 C2697 1.366 . S
C2698 C2699 1.414 . S
C2698 C2701 1.499 . S
C2699 H2673 0.950 . S
C2699 C2698 1.414 . S
C2699 C2700 1.374 . S
C2700 H2674 0.950 . S
C2700 C2696 1.385 . S
C2700 C2699 1.374 . S
C2701 C2698 1.499 . S
C2701 C2702 1.373 . S
C2701 C2703 1.389 . S
C2702 H2675 0.950 . S
C2702 C2688 1.377 . S
C2702 C2701 1.373 . S
C2703 C2687 1.377 . S
C2703 C2701 1.389 . S
C2703 C2704 1.524 . S
C2704 C2703 1.524 . S
C2704 C2705 1.397 . S
C2704 C2709 1.363 . S
C2705 H2676 0.950 . S
C2705 C2704 1.397 . S
C2705 C2706 1.334 . S
C2706 H2677 0.950 . S
C2706 C2705 1.334 . S
C2706 C2707 1.287 . S
C2707 C2706 1.287 . S
C2707 C2708 1.524 . S
C2707 H2710 0.999 . S
C2708 H2678 0.950 . S
C2708 C2707 1.524 . S
C2708 C2709 1.415 . S
C2709 H2679 0.950 . S
C2709 C2704 1.363 . S
C2709 C2708 1.415 . S
H2710 C2707 0.999 . S
H2711 C2692 0.913 . S
H2712 C2730 0.951 . S
H2713 C2732 0.951 . S
H2714 C2734 0.950 . S
H2715 C2735 0.950 . S
H2716 C2737 0.950 . S
H2717 C2740 0.950 . S
H2718 C2741 0.950 . S
H2719 C2743 0.950 . S
H2720 C2744 0.950 . S
H2721 C2745 0.951 . S
H2722 C2747 0.951 . S
H2723 C2749 0.950 . S
H2724 C2750 0.950 . S
H2725 C2752 0.950 . S
H2726 C2755 0.950 . S
H2727 C2756 0.950 . S
H2728 C2758 0.950 . S
H2729 C2759 0.950 . S
C2730 H2712 0.951 . S
C2730 C2731 1.366 . S
C2730 C2732 1.388 . S
C2731 C2730 1.366 . S
C2731 C2735 1.385 1_655 S
C2732 H2713 0.951 . S
C2732 C2730 1.388 . S
C2732 C2733 1.366 . S
C2733 C2732 1.366 . S
C2733 C2734 1.414 1_655 S
C2733 C2736 1.499 . S
C2734 H2714 0.950 . S
C2734 C2733 1.414 1_455 S
C2734 C2735 1.374 . S
C2735 H2715 0.950 . S
C2735 C2731 1.385 1_455 S
C2735 C2734 1.374 . S
C2736 C2733 1.499 . S
C2736 C2737 1.373 1_655 S
C2736 C2738 1.389 . S
C2737 H2716 0.950 . S
C2737 C2736 1.373 1_455 S
C2737 C2753 1.377 . S
C2738 C2736 1.389 . S
C2738 C2739 1.524 . S
C2738 C2752 1.377 . S
C2739 C2738 1.524 . S
C2739 C2740 1.397 . S
C2739 C2744 1.363 . S
C2740 H2717 0.950 . S
C2740 C2739 1.397 . S
C2740 C2741 1.334 . S
C2741 H2718 0.950 . S
C2741 C2740 1.334 . S
C2741 C2742 1.287 . S
C2742 C2741 1.287 . S
C2742 C2743 1.524 . S
C2742 H2761 0.913 . S
C2743 H2719 0.950 . S
C2743 C2742 1.524 . S
C2743 C2744 1.415 . S
C2744 H2720 0.950 . S
C2744 C2739 1.363 . S
C2744 C2743 1.415 . S
C2745 H2721 0.951 . S
C2745 C2746 1.366 . S
C2745 C2747 1.388 . S
C2746 C2745 1.366 . S
C2746 C2750 1.385 1_455 S
C2747 H2722 0.951 . S
C2747 C2745 1.388 . S
C2747 C2748 1.366 . S
C2748 C2747 1.366 . S
C2748 C2749 1.414 1_455 S
C2748 C2751 1.499 . S
C2749 H2723 0.950 . S
C2749 C2748 1.414 1_655 S
C2749 C2750 1.374 . S
C2750 H2724 0.950 . S
C2750 C2746 1.385 1_655 S
C2750 C2749 1.374 . S
C2751 C2748 1.499 . S
C2751 C2752 1.373 1_455 S
C2751 C2753 1.389 . S
C2752 H2725 0.950 . S
C2752 C2738 1.377 . S
C2752 C2751 1.373 1_655 S
C2753 C2737 1.377 . S
C2753 C2751 1.389 . S
C2753 C2754 1.524 . S
C2754 C2753 1.524 . S
C2754 C2755 1.397 . S
C2754 C2759 1.363 . S
C2755 H2726 0.950 . S
C2755 C2754 1.397 . S
C2755 C2756 1.334 . S
C2756 H2727 0.950 . S
C2756 C2755 1.334 . S
C2756 C2757 1.287 . S
C2757 C2756 1.287 . S
C2757 C2758 1.524 . S
C2757 H2760 0.999 . S
C2758 H2728 0.950 . S
C2758 C2757 1.524 . S
C2758 C2759 1.415 . S
C2759 H2729 0.950 . S
C2759 C2754 1.363 . S
C2759 C2758 1.415 . S
H2760 C2757 0.999 . S
H2761 C2742 0.913 . S
H2762 C2780 0.951 . S
H2763 C2782 0.951 . S
H2764 C2784 0.950 . S
H2765 C2785 0.950 . S
H2766 C2787 0.950 . S
H2767 C2790 0.950 . S
H2768 C2791 0.950 . S
H2769 C2793 0.950 . S
H2770 C2794 0.950 . S
H2771 C2795 0.951 . S
H2772 C2797 0.951 . S
H2773 C2799 0.950 . S
H2774 C2800 0.950 . S
H2775 C2802 0.950 . S
H2776 C2805 0.950 . S
H2777 C2806 0.950 . S
H2778 C2808 0.950 . S
H2779 C2809 0.950 . S
C2780 H2762 0.951 . S
C2780 C2781 1.366 . S
C2780 C2782 1.388 . S
C2781 C2780 1.366 . S
C2781 C2785 1.385 . S
C2782 H2763 0.951 . S
C2782 C2780 1.388 . S
C2782 C2783 1.366 . S
C2783 C2782 1.366 . S
C2783 C2784 1.414 . S
C2783 C2786 1.499 . S
C2784 H2764 0.950 . S
C2784 C2783 1.414 . S
C2784 C2785 1.374 . S
C2785 H2765 0.950 . S
C2785 C2781 1.385 . S
C2785 C2784 1.374 . S
C2786 C2783 1.499 . S
C2786 C2787 1.373 . S
C2786 C2788 1.389 . S
C2787 H2766 0.950 . S
C2787 C2786 1.373 . S
C2787 C2803 1.377 . S
C2788 C2786 1.389 . S
C2788 C2789 1.524 . S
C2788 C2802 1.377 . S
C2789 C2788 1.524 . S
C2789 C2790 1.397 . S
C2789 C2794 1.363 . S
C2790 H2767 0.950 . S
C2790 C2789 1.397 . S
C2790 C2791 1.334 . S
C2791 H2768 0.950 . S
C2791 C2790 1.334 . S
C2791 C2792 1.287 . S
C2792 C2791 1.287 . S
C2792 C2793 1.524 . S
C2792 H2811 0.913 . S
C2793 H2769 0.950 . S
C2793 C2792 1.524 . S
C2793 C2794 1.415 . S
C2794 H2770 0.950 . S
C2794 C2789 1.363 . S
C2794 C2793 1.415 . S
C2795 H2771 0.951 . S
C2795 C2796 1.366 . S
C2795 C2797 1.388 . S
C2796 C2795 1.366 . S
C2796 C2800 1.385 . S
C2797 H2772 0.951 . S
C2797 C2795 1.388 . S
C2797 C2798 1.366 . S
C2798 C2797 1.366 . S
C2798 C2799 1.414 . S
C2798 C2801 1.499 . S
C2799 H2773 0.950 . S
C2799 C2798 1.414 . S
C2799 C2800 1.374 . S
C2800 H2774 0.950 . S
C2800 C2796 1.385 . S
C2800 C2799 1.374 . S
C2801 C2798 1.499 . S
C2801 C2802 1.373 . S
C2801 C2803 1.389 . S
C2802 H2775 0.950 . S
C2802 C2788 1.377 . S
C2802 C2801 1.373 . S
C2803 C2787 1.377 . S
C2803 C2801 1.389 . S
C2803 C2804 1.524 . S
C2804 C2803 1.524 . S
C2804 C2805 1.397 . S
C2804 C2809 1.363 . S
C2805 H2776 0.950 . S
C2805 C2804 1.397 . S
C2805 C2806 1.334 . S
C2806 H2777 0.950 . S
C2806 C2805 1.334 . S
C2806 C2807 1.287 . S
C2807 C2806 1.287 . S
C2807 C2808 1.524 . S
C2807 H2810 0.999 . S
C2808 H2778 0.950 . S
C2808 C2807 1.524 . S
C2808 C2809 1.415 . S
C2809 H2779 0.950 . S
C2809 C2804 1.363 . S
C2809 C2808 1.415 . S
H2810 C2807 0.999 . S
H2811 C2792 0.913 . S
H2812 C2830 0.951 . S
H2813 C2832 0.951 . S
H2814 C2834 0.950 . S
H2815 C2835 0.950 . S
H2816 C2837 0.950 . S
H2817 C2840 0.950 . S
H2818 C2841 0.950 . S
H2819 C2843 0.950 . S
H2820 C2844 0.950 . S
H2821 C2845 0.951 . S
H2822 C2847 0.951 . S
H2823 C2849 0.950 . S
H2824 C2850 0.950 . S
H2825 C2852 0.950 . S
H2826 C2855 0.950 . S
H2827 C2856 0.950 . S
H2828 C2858 0.950 . S
H2829 C2859 0.950 . S
C2830 H2812 0.951 . S
C2830 C2831 1.366 . S
C2830 C2832 1.388 . S
C2831 C2830 1.366 . S
C2831 C2835 1.385 1_545 S
C2832 H2813 0.951 . S
C2832 C2830 1.388 . S
C2832 C2833 1.366 . S
C2833 C2832 1.366 . S
C2833 C2834 1.414 1_545 S
C2833 C2836 1.499 . S
C2834 H2814 0.950 . S
C2834 C2833 1.414 1_565 S
C2834 C2835 1.374 . S
C2835 H2815 0.950 . S
C2835 C2831 1.385 1_565 S
C2835 C2834 1.374 . S
C2836 C2833 1.499 . S
C2836 C2837 1.373 1_545 S
C2836 C2838 1.389 . S
C2837 H2816 0.950 . S
C2837 C2836 1.373 1_565 S
C2837 C2853 1.377 . S
C2838 C2836 1.389 . S
C2838 C2839 1.524 . S
C2838 C2852 1.377 . S
C2839 C2838 1.524 . S
C2839 C2840 1.397 . S
C2839 C2844 1.363 . S
C2840 H2817 0.950 . S
C2840 C2839 1.397 . S
C2840 C2841 1.334 . S
C2841 H2818 0.950 . S
C2841 C2840 1.334 . S
C2841 C2842 1.287 . S
C2842 C2841 1.287 . S
C2842 C2843 1.524 . S
C2842 H2861 0.913 . S
C2843 H2819 0.950 . S
C2843 C2842 1.524 . S
C2843 C2844 1.415 . S
C2844 H2820 0.950 . S
C2844 C2839 1.363 . S
C2844 C2843 1.415 . S
C2845 H2821 0.951 . S
C2845 C2846 1.366 . S
C2845 C2847 1.388 . S
C2846 C2845 1.366 . S
C2846 C2850 1.385 1_565 S
C2847 H2822 0.951 . S
C2847 C2845 1.388 . S
C2847 C2848 1.366 . S
C2848 C2847 1.366 . S
C2848 C2849 1.414 1_565 S
C2848 C2851 1.499 . S
C2849 H2823 0.950 . S
C2849 C2848 1.414 1_545 S
C2849 C2850 1.374 . S
C2850 H2824 0.950 . S
C2850 C2846 1.385 1_545 S
C2850 C2849 1.374 . S
C2851 C2848 1.499 . S
C2851 C2852 1.373 1_565 S
C2851 C2853 1.389 . S
C2852 H2825 0.950 . S
C2852 C2838 1.377 . S
C2852 C2851 1.373 1_545 S
C2853 C2837 1.377 . S
C2853 C2851 1.389 . S
C2853 C2854 1.524 . S
C2854 C2853 1.524 . S
C2854 C2855 1.397 . S
C2854 C2859 1.363 . S
C2855 H2826 0.950 . S
C2855 C2854 1.397 . S
C2855 C2856 1.334 . S
C2856 H2827 0.950 . S
C2856 C2855 1.334 . S
C2856 C2857 1.287 . S
C2857 C2856 1.287 . S
C2857 C2858 1.524 . S
C2857 H2860 0.999 . S
C2858 H2828 0.950 . S
C2858 C2857 1.524 . S
C2858 C2859 1.415 . S
C2859 H2829 0.950 . S
C2859 C2854 1.363 . S
C2859 C2858 1.415 . S
H2860 C2857 0.999 . S
H2861 C2842 0.913 . S
C631 C9 1.269 . S
C646 C156 1.266 . S
C681 C43 1.275 . S
C696 C190 1.274 . S
C731 C77 1.280 . S
C746 C122 1.284 . S
C781 C54 1.269 . S
C796 C111 1.265 . S
C831 C145 1.274 . S
C846 C88 1.274 . S
C881 C20 1.281 . S
C896 C179 1.284 . S
C931 C213 1.276 . S
C946 C360 1.277 1_455 S
C981 C394 1.276 . S
C996 C247 1.276 . S
C1031 C281 1.274 . S
C1046 C326 1.275 1_565 S
C1081 C258 1.275 . S
C1096 C315 1.274 . S
C1131 C349 1.274 . S
C1146 C292 1.275 . S
C1181 C224 1.274 . S
C1196 C383 1.273 . S
C1231 C564 1.275 . S
C1246 C417 1.275 . S
C1281 C598 1.275 . S
C1296 C451 1.274 . S
C1331 C530 1.274 . S
C1346 C485 1.273 . S
C1381 C519 1.277 . S
C1396 C462 1.277 1_655 S
C1431 C496 1.276 . S
C1446 C553 1.276 . S
C1481 C428 1.275 1_545 S
C1496 C587 1.274 . S
C1531 C33 1.294 . S
C1546 C379 1.276 . S
C1581 C67 1.291 . S
C1596 C311 1.276 1_565 S
C1631 C345 1.278 1_455 S
C1646 C101 1.295 . S
C1681 C481 1.276 . S
C1696 C135 1.294 . S
C1731 C413 1.274 1_545 S
C1746 C169 1.294 . S
C1781 C447 1.279 1_655 S
C1796 C203 1.294 . S
C1831 C583 1.275 . S
C1846 C237 1.294 . S
C1881 C515 1.277 . S
C1896 C271 1.295 . S
C1931 C305 1.294 . S
C1946 C549 1.276 . S
C1981 C73 1.268 . S
C1996 C339 1.285 . S
C2031 C373 1.291 . S
C2046 C5 1.273 . S
C2081 C407 1.289 . S
C2096 C39 1.266 . S
C2131 C441 1.287 . S
C2146 C175 1.265 . S
C2181 C107 1.272 . S
C2196 C475 1.291 . S
C2231 C509 1.288 . S
C2246 C141 1.266 . S
C2281 C543 1.295 . S
C2296 C277 1.276 . S
C2331 C577 1.295 . S
C2346 C209 1.276 . S
C2381 C611 1.294 . S
C2396 C243 1.276 . S
C2431 C308 1.954 . S
C2446 C2 1.954 . S
C2481 C36 1.958 . S
C2496 C342 1.961 . S
C2531 C70 1.956 . S
C2546 C376 1.960 . S
C2581 C104 1.954 . S
C2596 C410 1.954 . S
C2631 C444 1.958 . S
C2646 C138 1.961 . S
C2681 C172 1.956 . S
C2696 C478 1.960 . S
C2731 C206 1.950 . S
C2746 C512 1.950 . S
C2781 C546 1.950 . S
C2796 C240 1.950 . S
C2831 C274 1.950 . S
C2846 C580 1.950 . S
