# Generated by pormake.
# Topology zfb, (5)-cn, num edge types: 1
# Building blocks:
#     Node 0, Type 0, BuildingBlock: XOMCOT_clean_sbu_1, # of connection points: 5
#     Node 1, Type 0, BuildingBlock: XOMCOT_clean_sbu_1, # of connection points: 5
#     Node 2, Type 0, BuildingBlock: XOMCOT_clean_sbu_1, # of connection points: 5
#     Node 3, Type 0, BuildingBlock: XOMCOT_clean_sbu_1, # of connection points: 5
#     Node 4, Type 0, BuildingBlock: XOMCOT_clean_sbu_1, # of connection points: 5
#     Node 5, Type 0, BuildingBlock: XOMCOT_clean_sbu_1, # of connection points: 5
#     Node 6, Type 0, BuildingBlock: XOMCOT_clean_sbu_1, # of connection points: 5
#     Node 7, Type 0, BuildingBlock: XOMCOT_clean_sbu_1, # of connection points: 5
#     Edge 8, Type (0, 0), BuildingBlock: XIVTED_clean_linker_0, # of connection points: 2
#     Edge 9, Type (0, 0), BuildingBlock: XIVTED_clean_linker_0, # of connection points: 2
#     Edge 10, Type (0, 0), BuildingBlock: XIVTED_clean_linker_0, # of connection points: 2
#     Edge 11, Type (0, 0), BuildingBlock: XIVTED_clean_linker_0, # of connection points: 2
#     Edge 12, Type (0, 0), BuildingBlock: XIVTED_clean_linker_0, # of connection points: 2
#     Edge 13, Type (0, 0), BuildingBlock: XIVTED_clean_linker_0, # of connection points: 2
#     Edge 14, Type (0, 0), BuildingBlock: XIVTED_clean_linker_0, # of connection points: 2
#     Edge 15, Type (0, 0), BuildingBlock: XIVTED_clean_linker_0, # of connection points: 2
#     Edge 16, Type (0, 0), BuildingBlock: XIVTED_clean_linker_0, # of connection points: 2
#     Edge 17, Type (0, 0), BuildingBlock: XIVTED_clean_linker_0, # of connection points: 2
#     Edge 18, Type (0, 0), BuildingBlock: XIVTED_clean_linker_0, # of connection points: 2
#     Edge 19, Type (0, 0), BuildingBlock: XIVTED_clean_linker_0, # of connection points: 2
#     Edge 20, Type (0, 0), BuildingBlock: XIVTED_clean_linker_0, # of connection points: 2
#     Edge 21, Type (0, 0), BuildingBlock: XIVTED_clean_linker_0, # of connection points: 2
#     Edge 22, Type (0, 0), BuildingBlock: XIVTED_clean_linker_0, # of connection points: 2
#     Edge 23, Type (0, 0), BuildingBlock: XIVTED_clean_linker_0, # of connection points: 2
#     Edge 24, Type (0, 0), BuildingBlock: XIVTED_clean_linker_0, # of connection points: 2
#     Edge 25, Type (0, 0), BuildingBlock: XIVTED_clean_linker_0, # of connection points: 2
#     Edge 26, Type (0, 0), BuildingBlock: XIVTED_clean_linker_0, # of connection points: 2
#     Edge 27, Type (0, 0), BuildingBlock: XIVTED_clean_linker_0, # of connection points: 2
# Relax obj value: 0.187
# Max RMSD: 0.187
# Mean RMSD: 0.187
data_MOF--net-zfb--node1-XOMCOT_clean_sbu_1--edge1-XIVTED_clean_linker_0
_symmetry_space_group_name_H-M    P1
_symmetry_Int_Tables_number       1
_symmetry_cell_setting            triclinic
loop_
_symmetry_equiv_pos_as_xyz
'x, y, z'
_cell_length_a     32.549237
_cell_length_b     32.413183
_cell_length_c     34.775771
_cell_angle_alpha  89.961706
_cell_angle_beta   90.029195
_cell_angle_gamma 89.91783
loop_
_atom_site_label
_atom_site_type_symbol
_atom_site_fract_x
_atom_site_fract_y
_atom_site_fract_z
_atom_type_partial_charge
C0 C 0.23901 0.33601 0.99674 0.0
C1 C 0.24207 0.32478 0.95876 0.0
N2 N 0.20521 0.33042 0.94181 0.0
N3 N 0.20042 0.3487 1.00405 0.0
C4 C 0.18042 0.34507 0.97001 0.0
H5 H 0.26344 0.33524 1.01782 0.0
Co6 Co 0.18415 0.36646 0.05278 0.0
C7 C 0.09582 0.37758 0.04628 0.0
O8 O 0.09127 0.349 0.07274 0.0
N9 N 0.16792 0.38478 0.10261 0.0
C10 C 0.14181 0.4257 0.14788 0.0
C11 C 0.15255 0.42273 0.10985 0.0
C12 C 0.16628 0.36531 0.13721 0.0
N13 N 0.1502 0.38949 0.16523 0.0
O14 O 0.16308 0.31298 0.06241 0.0
H15 H 0.1485 0.44671 0.08855 0.0
H16 H 0.17542 0.33367 0.14175 0.0
O17 O 0.13159 0.38541 0.03328 0.0
C18 C 0.18913 0.28923 0.07827 0.0
O19 O 0.22515 0.30416 0.08812 0.0
N20 N 0.208 0.41755 0.0429 0.0
C21 C 0.24893 0.4919 0.03106 0.0
C22 C 0.21462 0.48125 1.00864 0.0
C23 C 0.19489 0.44369 1.01468 0.0
C24 C 0.2419 0.4266 0.06422 0.0
C25 C 0.26279 0.46374 0.0589 0.0
H26 H 0.1692 0.43571 0.99653 0.0
H27 H 0.25259 0.40484 0.08562 0.0
H28 H 0.1483 0.35259 0.96604 0.0
H29 H 0.26964 0.31392 0.9446 0.0
H30 H 0.1287 0.45263 0.16157 0.0
H31 H 0.20249 0.50201 0.98703 0.0
H32 H 0.28958 0.4702 0.07634 0.0
C33 C 0.63158 0.24631 0.49311 0.0
C34 C 0.64022 0.24841 0.45445 0.0
N35 N 0.64131 0.20972 0.44037 0.0
N36 N 0.62691 0.20651 0.50339 0.0
C37 C 0.63344 0.18482 0.47071 0.0
H38 H 0.62769 0.2722 0.51238 0.0
Co39 Co 0.6098 0.18996 0.55212 0.0
C40 C 0.60144 0.10094 0.54557 0.0
O41 O 0.62849 0.09704 0.57341 0.0
N42 N 0.5917 0.17356 0.60166 0.0
C43 C 0.55126 0.14664 0.64665 0.0
C44 C 0.55534 0.15482 0.6082 0.0
C45 C 0.60906 0.17667 0.63703 0.0
N46 N 0.58498 0.16046 0.66502 0.0
O47 O 0.66361 0.17059 0.56244 0.0
H48 H 0.53319 0.14699 0.5862 0.0
H49 H 0.63857 0.19076 0.64234 0.0
O50 O 0.59299 0.13667 0.53245 0.0
C51 C 0.68446 0.19982 0.57688 0.0
O52 O 0.66616 0.23537 0.58321 0.0
N53 N 0.5585 0.21241 0.54214 0.0
C54 C 0.48476 0.25399 0.53053 0.0
C55 C 0.49422 0.21832 0.50931 0.0
C56 C 0.53156 0.19818 0.51522 0.0
C57 C 0.55044 0.24741 0.56238 0.0
C58 C 0.51369 0.26872 0.55707 0.0
H59 H 0.53871 0.17136 0.49807 0.0
H60 H 0.57287 0.2588 0.58272 0.0
H61 H 0.63087 0.15161 0.46876 0.0
H62 H 0.64501 0.27628 0.43788 0.0
H63 H 0.52562 0.1308 0.65979 0.0
H64 H 0.47273 0.20553 0.48877 0.0
H65 H 0.50812 0.29652 0.57352 0.0
C66 C 0.74856 0.63071 1.00348 0.0
C67 C 0.74647 0.6387 0.96471 0.0
N68 N 0.78504 0.64152 0.95097 0.0
N69 N 0.78825 0.62815 1.01425 0.0
C70 C 0.80988 0.63531 0.98167 0.0
H71 H 0.72276 0.62597 0.02256 0.0
Co72 Co 0.80443 0.61306 0.0638 0.0
C73 C 0.89338 0.60516 0.05874 0.0
O74 O 0.89708 0.63209 0.08676 0.0
N75 N 0.82039 0.59719 0.11442 0.0
C76 C 0.84169 0.55813 0.16341 0.0
C77 C 0.83414 0.55928 0.12454 0.0
C78 C 0.82074 0.61875 0.14789 0.0
N79 N 0.83339 0.59559 0.17797 0.0
O80 O 0.82187 0.66794 0.07264 0.0
H81 H 0.83864 0.53388 0.10484 0.0
H82 H 0.81159 0.65065 0.15063 0.0
O83 O 0.85791 0.59671 0.0455 0.0
C84 C 0.79068 0.68709 0.08551 0.0
O85 O 0.75668 0.66621 0.09154 0.0
N86 N 0.78355 0.56074 0.0549 0.0
C87 C 0.74245 0.48702 0.04151 0.0
C88 C 0.77872 0.49651 0.0215 0.0
C89 C 0.79856 0.53384 0.02824 0.0
C90 C 0.74828 0.5524 0.07439 0.0
C91 C 0.7272 0.51563 0.0682 0.0
H92 H 0.82548 0.54123 1.01151 0.0
H93 H 0.73622 0.57484 0.09447 0.0
H94 H 0.84308 0.63454 0.98014 0.0
H95 H 0.71868 0.64204 0.94786 0.0
H96 H 0.85313 0.53203 0.17967 0.0
H97 H 0.79192 0.47522 1.00093 0.0
H98 H 0.69896 0.51001 0.08377 0.0
C99 C 0.3577 0.74603 0.48924 0.0
C100 C 0.34894 0.74276 0.45069 0.0
N101 N 0.34429 0.78105 0.43624 0.0
N102 N 0.35894 0.78619 0.49911 0.0
C103 C 0.35013 0.80689 0.46628 0.0
H104 H 0.36431 0.7208 0.50867 0.0
Co105 Co 0.37579 0.80422 0.54758 0.0
C106 C 0.37794 0.8935 0.54106 0.0
O107 O 0.35002 0.89537 0.56828 0.0
N108 N 0.39324 0.82225 0.59698 0.0
C109 C 0.43151 0.85232 0.64195 0.0
C110 C 0.429 0.84204 0.60379 0.0
C111 C 0.37463 0.82077 0.63189 0.0
N112 N 0.39718 0.83919 0.65977 0.0
O113 O 0.32112 0.81943 0.55868 0.0
H114 H 0.45173 0.84921 0.58212 0.0
H115 H 0.34465 0.80755 0.63676 0.0
O116 O 0.38868 0.85852 0.5277 0.0
C117 C 0.30293 0.78838 0.57296 0.0
O118 O 0.32403 0.75421 0.5782 0.0
N119 N 0.42849 0.78591 0.53664 0.0
C120 C 0.50552 0.75229 0.52198 0.0
C121 C 0.48859 0.78219 0.49733 0.0
C122 C 0.4501 0.79884 0.50531 0.0
C123 C 0.44331 0.7555 0.55983 0.0
C124 C 0.48212 0.73871 0.55343 0.0
H125 H 0.43737 0.82155 0.4859 0.0
H126 H 0.42506 0.74469 0.58379 0.0
H127 H 0.34996 0.84018 0.46395 0.0
H128 H 0.34673 0.7144 0.43439 0.0
H129 H 0.45685 0.86834 0.65541 0.0
H130 H 0.50481 0.7927 0.47199 0.0
H131 H 0.49387 0.71603 0.57349 0.0
C132 C 0.73222 0.13085 0.11238 0.0
C133 C 0.73547 0.13959 0.15096 0.0
N134 N 0.69738 0.14533 0.16514 0.0
N135 N 0.69225 0.13065 0.10229 0.0
C136 C 0.6717 0.14013 0.13494 0.0
H137 H 0.75727 0.12379 0.09303 0.0
Co138 Co 0.67354 0.11536 0.0537 0.0
C139 C 0.58455 0.11105 0.06233 0.0
O140 O 0.58101 0.13968 0.03576 0.0
N141 N 0.65492 0.09974 1.00414 0.0
C142 C 0.62266 0.06468 0.95814 0.0
C143 C 0.63338 0.06512 0.99632 0.0
C144 C 0.65756 0.11943 0.9698 0.0
N145 N 0.63783 0.09888 0.94146 0.0
O146 O 0.65674 0.17038 0.04523 0.0
H147 H 0.62515 0.04195 1.01735 0.0
H148 H 0.6724 0.14887 0.96563 0.0
O149 O 0.62013 0.10068 0.07424 0.0
C150 C 0.68498 0.19239 0.03072 0.0
O151 O 0.72025 0.17501 0.0219 0.0
N152 N 0.69262 0.06206 0.06246 0.0
C153 C 0.72613 0.98429 0.07551 0.0
C154 C 0.69733 0.00121 0.1011 0.0
C155 C 0.68075 0.03999 0.09394 0.0
C156 C 0.72179 0.04712 0.03808 0.0
C157 C 0.73858 0.00794 0.04375 0.0
H158 H 0.65905 0.05265 0.11427 0.0
H159 H 0.73178 0.06561 1.01394 0.0
H160 H 0.63855 0.1415 0.13695 0.0
H161 H 0.76367 0.14125 0.16741 0.0
H162 H 0.60481 0.04111 0.94378 0.0
H163 H 0.68781 0.98485 0.12673 0.0
H164 H 0.76054 -0.00383 0.02311 0.0
C165 C 0.85412 0.74448 0.62421 0.0
C166 C 0.84517 0.74618 0.66283 0.0
N167 N 0.84167 0.7073 0.67613 0.0
N168 N 0.85663 0.70471 0.61317 0.0
C169 C 0.84828 0.6827 0.64534 0.0
H170 H 0.8601 0.77052 0.60558 0.0
Co171 Co 0.8744 0.68802 0.56445 0.0
C172 C 0.88335 0.59827 0.5748 0.0
O173 O 0.85421 0.59066 0.54964 0.0
N174 N 0.89241 0.67109 0.51485 0.0
C175 C 0.93188 0.64651 0.46765 0.0
C176 C 0.92945 0.65437 0.50648 0.0
C177 C 0.87268 0.67233 0.48049 0.0
N178 N 0.89604 0.65766 0.45146 0.0
O179 O 0.82063 0.66938 0.55346 0.0
H180 H 0.95332 0.64818 0.52737 0.0
H181 H 0.84191 0.684 0.47634 0.0
O182 O 0.89149 0.63531 0.5841 0.0
C183 C 0.80163 0.70042 0.53986 0.0
O184 O 0.82173 0.73534 0.53594 0.0
N185 N 0.92622 0.70935 0.57539 0.0
C186 C 0.00376 0.74178 0.58958 0.0
C187 C 0.98551 0.71438 0.61569 0.0
C188 C 0.9469 0.69826 0.60792 0.0
C189 C 0.94181 0.73846 0.55121 0.0
C190 C 0.981 0.75457 0.55736 0.0
H191 H 0.93361 0.67688 0.62822 0.0
H192 H 0.92429 0.74818 0.52636 0.0
H193 H 0.84919 0.64936 0.64667 0.0
H194 H 0.84217 0.77389 0.67996 0.0
H195 H 0.9576 0.63282 0.4526 0.0
H196 H 0.00109 0.70488 0.64175 0.0
H197 H -0.00627 0.77565 0.53637 0.0
C198 C 0.24166 0.84399 0.10808 0.0
C199 C 0.23955 0.8361 0.1469 0.0
N200 N 0.27795 0.83698 0.16134 0.0
N201 N 0.28114 0.85018 0.09806 0.0
C202 C 0.30268 0.84526 0.13107 0.0
H203 H 0.21594 0.84636 0.08849 0.0
Co204 Co 0.29709 0.86712 0.04912 0.0
C205 C 0.38524 0.8799 0.05502 0.0
O206 O 0.39011 0.85244 0.02761 0.0
N207 N 0.31303 0.885 0.99918 0.0
C208 C 0.33836 0.92624 0.95384 0.0
C209 C 0.32751 0.92323 0.99177 0.0
C210 C 0.31532 0.86535 0.96474 0.0
N211 N 0.33099 0.88976 0.9367 0.0
O212 O 0.31882 0.81365 0.04017 0.0
H213 H 0.33095 0.94742 1.01293 0.0
H214 H 0.30701 0.83346 0.96037 0.0
O215 O 0.34947 0.88674 0.06848 0.0
C216 C 0.29257 0.78973 0.02494 0.0
O217 O 0.25645 0.80467 1.01527 0.0
N218 N 0.27266 0.91808 0.05835 0.0
C219 C 0.23035 0.99175 0.0697 0.0
C220 C 0.26508 0.98201 0.09194 0.0
C221 C 0.28554 0.94477 0.08615 0.0
C222 C 0.23841 0.92628 0.03718 0.0
C223 C 0.21681 0.96309 0.04226 0.0
H224 H 0.3116 0.93749 0.10415 0.0
H225 H 0.22795 0.90406 1.01614 0.0
H226 H 0.3356 0.84932 0.13325 0.0
H227 H 0.21187 0.83047 0.16331 0.0
H228 H 0.3509 0.95338 0.94005 0.0
H229 H 0.27697 0.00325 0.11321 0.0
H230 H 0.18976 0.96892 0.02495 0.0
C231 C 0.14426 0.23935 0.60836 0.0
C232 C 0.1563 0.2358 0.64616 0.0
N233 N 0.15288 0.27309 0.66309 0.0
N234 N 0.13325 0.27865 0.60124 0.0
C235 C 0.13904 0.29861 0.63507 0.0
H236 H 0.14295 0.21471 0.58744 0.0
Co237 Co 0.11348 0.29697 0.5536 0.0
C238 C 0.10103 0.38532 0.57082 0.0
O239 O 0.13174 0.39631 0.54858 0.0
N240 N 0.09383 0.31574 0.50513 0.0
C241 C 0.05338 0.34497 0.46122 0.0
C242 C 0.05709 0.33406 0.49923 0.0
C243 C 0.1118 0.31577 0.46989 0.0
N244 N 0.08793 0.33368 0.44262 0.0
O245 O 0.16567 0.3202 0.54362 0.0
H246 H 0.0343 0.33935 0.52131 0.0
H247 H 0.14215 0.30381 0.46427 0.0
O248 O 0.09327 0.34729 0.57611 0.0
C249 C 0.18934 0.29466 0.52699 0.0
O250 O 0.175 0.25812 0.51766 0.0
N251 N 0.06292 0.27178 0.56379 0.0
C252 C 0.98562 0.23766 0.5764 0.0
C253 C 0.00425 0.26265 0.60429 0.0
C254 C 0.0426 0.27974 0.59727 0.0
C255 C 0.04712 0.24469 0.53772 0.0
C256 C 0.00804 0.22775 0.54314 0.0
H257 H 0.05565 0.29989 0.61874 0.0
H258 H 0.06417 0.23751 0.51188 0.0
H259 H 0.13304 0.33114 0.63915 0.0
H260 H 0.1658 0.20761 0.66031 0.0
H261 H 0.02701 0.35995 0.44838 0.0
H262 H 0.989 0.26985 0.63113 0.0
H263 H -0.00495 0.20849 0.52083 0.0
H264 H 0.19718 0.04083 1.01319 0.0
H265 H 0.21673 0.23986 0.1356 0.0
H266 H 0.21693 0.03586 0.13596 0.0
H267 H 0.14412 0.23851 0.03187 0.0
H268 H 0.21389 0.16463 0.13767 0.0
H269 H 0.17352 0.11191 1.01976 0.0
C270 C 0.19575 0.05428 0.04165 0.0
C271 C 0.20994 0.03249 0.07399 0.0
C272 C 0.19782 0.18073 0.11487 0.0
C273 C 0.18371 0.11416 0.08145 0.0
C274 C 0.19959 0.22359 0.11363 0.0
C275 C 0.18096 0.24507 0.08334 0.0
C276 C 0.17832 0.15926 0.08496 0.0
C277 C 0.15888 0.22283 0.05567 0.0
C278 C 0.18231 0.09496 0.04533 0.0
C279 C 0.20761 0.05185 0.11005 0.0
N280 N 0.15894 0.18089 0.05662 0.0
N281 N 0.19555 0.09183 0.11271 0.0
H282 H 0.94758 0.16511 0.55376 0.0
H283 H 0.72894 0.24442 0.62745 0.0
H284 H 0.92355 0.28222 0.60882 0.0
H285 H 0.74022 0.14658 0.54403 0.0
H286 H 0.80331 0.24686 0.63301 0.0
H287 H 0.87421 0.14834 0.55952 0.0
C288 C 0.92713 0.18716 0.56721 0.0
C289 C 0.94203 0.22507 0.58106 0.0
C290 C 0.78966 0.22457 0.61366 0.0
C291 C 0.8587 0.20566 0.58835 0.0
C292 C 0.74719 0.22313 0.61055 0.0
C293 C 0.72863 0.19582 0.58472 0.0
C294 C 0.81388 0.19889 0.5904 0.0
C295 C 0.75359 0.16831 0.56407 0.0
C296 C 0.8854 0.17741 0.57068 0.0
C297 C 0.91407 0.25219 0.59857 0.0
N298 N 0.79523 0.17097 0.56686 0.0
N299 N 0.87397 0.24194 0.60165 0.0
H300 H 0.80355 0.95296 0.06031 0.0
H301 H 0.74139 0.72873 0.13428 0.0
H302 H 0.68421 0.91806 0.10398 0.0
H303 H 0.83986 0.74662 0.05294 0.0
H304 H 0.73177 0.803 0.13766 0.0
H305 H 0.82664 0.88139 0.0688 0.0
C306 C 0.78222 0.93046 0.07171 0.0
C307 C 0.7418 0.94175 0.08151 0.0
C308 C 0.75577 0.79081 0.11931 0.0
C309 C 0.76847 0.86058 0.09221 0.0
C310 C 0.76135 0.74845 0.11743 0.0
C311 C 0.79088 0.7317 0.09269 0.0
C312 C 0.77962 0.81667 0.09599 0.0
C313 C 0.81651 0.75856 0.07212 0.0
C314 C 0.79559 0.88981 0.0768 0.0
C315 C 0.71585 0.91134 0.09677 0.0
N316 N 0.80985 0.8 0.07371 0.0
N317 N 0.72965 0.87231 0.10162 0.0
H318 H 0.06652 0.69513 0.61831 0.0
H319 H 0.24423 0.84456 0.55057 0.0
H320 H 0.04083 0.81605 0.57149 0.0
H321 H 0.26238 0.73469 0.61874 0.0
H322 H 0.16988 0.83891 0.56154 0.0
H323 H 0.13829 0.71288 0.62258 0.0
C324 C 0.07573 0.72581 0.60957 0.0
C325 C 0.04728 0.75414 0.59458 0.0
C326 C 0.1903 0.81647 0.57451 0.0
C327 C 0.13054 0.77422 0.59811 0.0
C328 C 0.2326 0.81968 0.56828 0.0
C329 C 0.25919 0.78954 0.58314 0.0
C330 C 0.17497 0.7829 0.59566 0.0
C331 C 0.24284 0.75808 0.60606 0.0
C332 C 0.11704 0.73585 0.61176 0.0
C333 C 0.06171 0.79296 0.58265 0.0
N334 N 0.20177 0.75537 0.61128 0.0
N335 N 0.10252 0.80174 0.58426 0.0
H336 H 0.73306 0.44459 0.97377 0.0
H337 H 0.63872 0.24477 0.0744 0.0
H338 H 0.7037 0.43815 0.0948 0.0
H339 H 0.72044 0.2411 0.97683 0.0
H340 H 0.64113 0.32053 0.07266 0.0
H341 H 0.70728 0.37437 0.96595 0.0
C342 C 0.72099 0.4286 0.99866 0.0
C343 C 0.72152 0.44699 0.03521 0.0
C344 C 0.65782 0.303 0.05123 0.0
C345 C 0.69101 0.36725 0.0261 0.0
C346 C 0.65632 0.25998 0.05209 0.0
C347 C 0.67993 0.23704 0.02605 0.0
C348 C 0.68249 0.32275 0.02373 0.0
C349 C 0.70235 0.25791 0.99775 0.0
C350 C 0.70598 0.38872 0.99405 0.0
C351 C 0.70403 0.42528 0.0661 0.0
N352 N 0.70331 0.29971 0.99747 0.0
N353 N 0.68987 0.38631 0.06093 0.0
H354 H 0.53766 0.67483 0.53676 0.0
H355 H 0.76481 0.74875 0.48687 0.0
H356 H 0.57125 0.79563 0.49442 0.0
H357 H 0.74097 0.64751 0.56432 0.0
H358 H 0.69169 0.75404 0.47365 0.0
H359 H 0.61005 0.65428 0.53337 0.0
C360 C 0.56001 0.69697 0.52654 0.0
C361 C 0.54817 0.73725 0.5162 0.0
C362 C 0.70238 0.73037 0.49328 0.0
C363 C 0.63048 0.71341 0.51129 0.0
C364 C 0.74409 0.72735 0.50086 0.0
C365 C 0.75862 0.69831 0.52743 0.0
C366 C 0.67488 0.70453 0.51277 0.0
C367 C 0.73069 0.67063 0.54399 0.0
C368 C 0.60119 0.68503 0.52436 0.0
C369 C 0.57845 0.76413 0.50223 0.0
N370 N 0.68977 0.67488 0.5369 0.0
N371 N 0.61811 0.75175 0.50039 0.0
H372 H 0.26161 0.5356 0.96434 0.0
H373 H 0.33787 0.73937 0.07175 0.0
H374 H 0.28159 0.54198 0.08703 0.0
H375 H 0.26421 0.73956 0.96864 0.0
H376 H 0.33898 0.6635 0.07002 0.0
H377 H 0.28409 0.6072 0.95873 0.0
C378 C 0.27096 0.55185 0.99008 0.0
C379 C 0.26869 0.53291 0.02637 0.0
C380 C 0.32333 0.68032 0.04741 0.0
C381 C 0.29544 0.61448 1.01984 0.0
C382 C 0.32289 0.72342 0.04825 0.0
C383 C 0.30052 0.74539 1.02052 0.0
C384 C 0.30189 0.65949 1.01825 0.0
C385 C 0.28135 0.72353 0.99079 0.0
C386 C 0.28408 0.59259 0.98675 0.0
C387 C 0.2827 0.55518 0.05847 0.0
N388 N 0.28228 0.6817 0.99053 0.0
N389 N 0.29506 0.59498 0.05452 0.0
H390 H 0.23667 0.26816 0.46801 0.0
H391 H 0.43727 0.28948 0.58674 0.0
H392 H 0.24061 0.34098 0.57165 0.0
H393 H 0.43936 0.26496 0.46465 0.0
H394 H 0.3668 0.31394 0.58064 0.0
H395 H 0.31142 0.27165 0.46394 0.0
C396 C 0.2534 0.28553 0.48952 0.0
C397 C 0.23284 0.30387 0.52045 0.0
C398 C 0.38296 0.30395 0.55507 0.0
C399 C 0.31813 0.30724 0.51657 0.0
C400 C 0.42331 0.29001 0.55848 0.0
C401 C 0.44414 0.27431 0.52626 0.0
C402 C 0.36305 0.30151 0.51936 0.0
C403 C 0.42412 0.2755 0.4905 0.0
C404 C 0.296 0.28766 0.48715 0.0
C405 C 0.25561 0.32635 0.54743 0.0
N406 N 0.38443 0.28811 0.48813 0.0
N407 N 0.29731 0.3266 0.5454 0.0
H408 H 0.02575 0.38714 0.08837 0.0
H409 H 0.96268 0.59132 0.10112 0.0
H410 H 0.09109 0.4388 0.99156 0.0
H411 H 0.90159 0.55369 0.9966 0.0
H412 H 0.01169 0.53458 0.09272 0.0
H413 H 0.97856 0.44591 0.08652 0.0
C414 C 0.02969 0.41023 0.06615 0.0
C415 C 0.06268 0.40818 0.04023 0.0
C416 C 0.98794 0.53951 0.07134 0.0
C417 C 0.00881 0.47508 0.03823 0.0
C418 C 0.96016 0.57189 0.0759 0.0
C419 C 0.92777 0.577 0.04967 0.0
C420 C 0.98363 0.51258 0.04014 0.0
C421 C 0.92589 0.55053 1.01767 0.0
C422 C 0.00293 0.44377 0.06538 0.0
C423 C 0.06626 0.43935 1.01224 0.0
N424 N 0.95333 0.51907 1.01389 0.0
N425 N 0.03969 0.47185 1.01207 0.0
H426 H 0.39193 0.95705 0.59033 0.0
H427 H 0.55515 0.08686 0.48085 0.0
H428 H 0.42915 0.90897 0.47991 0.0
H429 H 0.57914 0.04006 0.59492 0.0
H430 H 0.49811 0.03714 0.47475 0.0
H431 H 0.4481 0.00685 0.5872 0.0
C432 C 0.41114 0.95769 0.56491 0.0
C433 C 0.40589 0.9288 0.5353 0.0
C434 C 0.51644 0.03763 0.50075 0.0
C435 C 0.46993 0.98571 0.53175 0.0
C436 C 0.54888 0.06569 0.50424 0.0
C437 C 0.57204 0.06724 0.53831 0.0
C438 C 0.5065 0.01231 0.53207 0.0
C439 C 0.56245 0.03956 0.56798 0.0
C440 C 0.44337 0.9858 0.56341 0.0
C441 C 0.43225 0.93076 0.50332 0.0
N442 N 0.52989 0.01376 0.56445 0.0
N443 N 0.46333 0.95885 0.50232 0.0
H444 H 0.44546 0.90294 1.00548 0.0
H445 H 0.57142 0.05987 0.12407 0.0
H446 H 0.39735 0.9288 0.11861 0.0
H447 H 0.52168 0.09402 1.01344 0.0
H448 H 0.52205 0.00225 0.12696 0.0
H449 H 0.49153 0.96204 1.01172 0.0
C450 C 0.44528 0.9204 0.03204 0.0
C451 C 0.41765 0.91091 0.06167 0.0
C452 C 0.52169 0.023 0.10253 0.0
C453 C 0.47028 0.97829 0.06878 0.0
C454 C 0.54958 0.05579 0.10087 0.0
C455 C 0.55041 0.08187 0.06858 0.0
C456 C 0.49571 0.01571 0.07112 0.0
C457 C 0.52184 0.075 0.03905 0.0
C458 C 0.47122 0.9543 0.03532 0.0
C459 C 0.4183 0.93516 0.09518 0.0
N460 N 0.49625 0.04204 0.04065 0.0
N461 N 0.44444 0.96783 0.09798 0.0
H462 H 0.96025 0.60833 0.60491 0.0
H463 H 0.02184 0.3709 0.59325 0.0
H464 H 0.87556 0.51418 0.5673 0.0
H465 H 0.10828 0.46963 0.57361 0.0
H466 H 0.96742 0.42191 0.60223 0.0
H467 H 0.01345 0.55595 0.61212 0.0
C468 C 0.95247 0.57655 0.59891 0.0
C469 C 0.91329 0.56571 0.58519 0.0
C470 C -0.00157 0.43232 0.59646 0.0
C471 C 0.97437 0.50566 0.59351 0.0
C472 C 0.02965 0.40331 0.59157 0.0
C473 C 0.06974 0.41604 0.58235 0.0
C474 C 0.00745 0.47437 0.59282 0.0
C475 C 0.0778 0.45847 0.58039 0.0
C476 C 0.98306 0.54675 0.6028 0.0
C477 C 0.90535 0.52395 0.57769 0.0
N478 N 0.04685 0.48618 0.58547 0.0
N479 N 0.93573 0.49538 0.58182 0.0
H480 H 0.1873 0.33052 0.20976 0.0
H481 H 0.05461 0.39187 0.39561 0.0
H482 H 0.09294 0.42415 0.21201 0.0
H483 H 0.14354 0.29295 0.3972 0.0
H484 H 0.0696 0.40352 0.32816 0.0
H485 H 0.17278 0.31537 0.2777 0.0
C486 C 0.16348 0.34778 0.22434 0.0
C487 C 0.14164 0.379 0.20496 0.0
C488 C 0.08588 0.37915 0.3431 0.0
C489 C 0.12507 0.36198 0.28284 0.0
C490 C 0.07711 0.37226 0.38183 0.0
C491 C 0.0975 0.34106 0.40246 0.0
C492 C 0.11546 0.35484 0.32433 0.0
C493 C 0.12715 0.3175 0.38273 0.0
C494 C 0.15534 0.33924 0.26321 0.0
C495 C 0.11128 0.40046 0.22563 0.0
N496 N 0.13518 0.32482 0.34479 0.0
N497 N 0.10403 0.3916 0.2632 0.0
H498 H 0.69088 0.14041 0.89493 0.0
H499 H 0.52899 0.15136 0.72229 0.0
H500 H 0.56982 0.08689 0.89846 0.0
H501 H 0.65938 0.16229 0.70196 0.0
H502 H 0.54267 0.13936 0.79 0.0
H503 H 0.6791 0.15968 0.82717 0.0
C504 C 0.66181 0.13298 0.88151 0.0
C505 C 0.63138 0.11175 0.90219 0.0
C506 C 0.56836 0.1444 0.77077 0.0
C507 C 0.6176 0.13391 0.82527 0.0
C508 C 0.5606 0.15109 0.73188 0.0
C509 C 0.59308 0.15706 0.70587 0.0
C510 C 0.60894 0.14399 0.78432 0.0
C511 C 0.63332 0.15778 0.72075 0.0
C512 C 0.6552 0.14375 0.8429 0.0
C513 C 0.59431 0.10265 0.88345 0.0
N514 N 0.64015 0.15111 0.759 0.0
N515 N 0.58845 0.11388 0.84623 0.0
H516 H 0.94232 0.67599 0.38927 0.0
H517 H 0.80674 0.55475 0.24072 0.0
H518 H 0.82434 0.62831 0.42314 0.0
H519 H 0.87163 0.66383 0.20493 0.0
H520 H 0.81911 0.57354 0.30827 0.0
H521 H 0.92388 0.66457 0.32144 0.0
C522 C 0.91251 0.66323 0.38229 0.0
C523 C 0.88473 0.6531 0.41163 0.0
C524 C 0.83032 0.59353 0.28562 0.0
C525 C 0.86386 0.63921 0.3346 0.0
C526 C 0.82341 0.58277 0.24726 0.0
C527 C 0.83811 0.60791 0.21748 0.0
C528 C 0.85323 0.629 0.29422 0.0
C529 C 0.85958 0.64392 0.22722 0.0
C530 C 0.90195 0.65694 0.34375 0.0
C531 C 0.8464 0.63676 0.40125 0.0
N532 N 0.8671 0.65312 0.26481 0.0
N533 N 0.8373 0.62969 0.36359 0.0
H534 H 0.295 0.83081 0.89156 0.0
H535 H 0.42622 0.89893 0.70718 0.0
H536 H 0.38884 0.92471 0.8911 0.0
H537 H 0.3434 0.79509 0.70426 0.0
H538 H 0.41029 0.90891 0.77454 0.0
H539 H 0.31023 0.8167 0.82348 0.0
C540 C 0.31885 0.84831 0.87733 0.0
C541 C 0.34026 0.8794 0.89715 0.0
C542 C 0.39557 0.88379 0.75937 0.0
C543 C 0.35759 0.86364 0.81931 0.0
C544 C 0.4049 0.87787 0.72069 0.0
C545 C 0.38659 0.84573 0.69976 0.0
C546 C 0.36747 0.85757 0.77781 0.0
C547 C 0.3582 0.82035 0.71906 0.0
C548 C 0.32739 0.84037 0.83843 0.0
C549 C 0.37076 0.90118 0.87705 0.0
N550 N 0.34956 0.82675 0.75702 0.0
N551 N 0.37832 0.89297 0.83947 0.0
H552 H 0.85038 0.68485 0.92417 0.0
H553 H 0.79982 0.64061 0.70239 0.0
H554 H 0.7459 0.61345 0.88747 0.0
H555 H 0.86996 0.74581 0.74 0.0
H556 H 0.78824 0.62173 0.77 0.0
H557 H 0.86675 0.69902 0.85639 0.0
C558 C 0.83116 0.67188 0.90183 0.0
C559 C 0.79657 0.64825 0.9114 0.0
C560 C 0.80622 0.64891 0.76339 0.0
C561 C 0.81512 0.66401 0.83404 0.0
C562 C 0.81296 0.65954 0.72488 0.0
C563 C 0.83555 0.695 0.71561 0.0
C564 C 0.82283 0.67351 0.79283 0.0
C565 C 0.85182 0.7186 0.74589 0.0
C566 C 0.84032 0.68015 0.86324 0.0
C567 C 0.77249 0.63232 0.88134 0.0
N568 N 0.84527 0.70738 0.78309 0.0
N569 N 0.78225 0.64039 0.84406 0.0
H570 H 0.37517 0.74216 0.37377 0.0
H571 H 0.23541 0.86276 0.22379 0.0
H572 H 0.29802 0.84387 0.40788 0.0
H573 H 0.34649 0.80018 0.18982 0.0
H574 H 0.25369 0.85179 0.2914 0.0
H575 H 0.36114 0.75835 0.30622 0.0
C576 C 0.35521 0.76789 0.36697 0.0
C577 C 0.33751 0.7916 0.39643 0.0
C578 C 0.27419 0.84066 0.26918 0.0
C579 C 0.32115 0.81018 0.31918 0.0
C580 C 0.26364 0.84665 0.23062 0.0
C581 C 0.2894 0.83215 0.20118 0.0
C582 C 0.31039 0.81929 0.27847 0.0
C583 C 0.32591 0.81198 0.21164 0.0
C584 C 0.34745 0.77729 0.32845 0.0
C585 C 0.31235 0.82497 0.38602 0.0
N586 N 0.33511 0.80572 0.24942 0.0
N587 N 0.30451 0.83301 0.34824 0.0
H588 H 0.20625 0.23421 0.71091 0.0
H589 H 0.14669 0.36769 0.8973 0.0
H590 H 0.11808 0.33359 0.70709 0.0
H591 H 0.24126 0.2744 0.89469 0.0
H592 H 0.13327 0.35481 0.82875 0.0
H593 H 0.21752 0.24802 0.77892 0.0
C594 C 0.18911 0.25891 0.72437 0.0
C595 C 0.16101 0.2826 0.70307 0.0
C596 C 0.15696 0.33721 0.84326 0.0
C597 C 0.17398 0.2989 0.78159 0.0
C598 C 0.16444 0.34436 0.88246 0.0
C599 C 0.19537 0.32231 0.90189 0.0
C600 C 0.18035 0.30757 0.82337 0.0
C601 C 0.21762 0.29268 0.88096 0.0
C602 C 0.19571 0.26694 0.76333 0.0
C603 C 0.14028 0.31473 0.72219 0.0
N604 N 0.20968 0.28624 0.84307 0.0
N605 N 0.14704 0.32182 0.76036 0.0
H606 H 0.63464 0.19232 0.1921 0.0
H607 H 0.68019 0.1415 0.41344 0.0
H608 H 0.73562 0.11552 0.22856 0.0
H609 H 0.61607 0.25117 0.37693 0.0
H610 H 0.69214 0.12368 0.34567 0.0
H611 H 0.61863 0.20656 0.25989 0.0
C612 C 0.65321 0.17827 0.21439 0.0
C613 C 0.68666 0.15298 0.20475 0.0
C614 C 0.6754 0.15161 0.35255 0.0
C615 C 0.66845 0.16877 0.28214 0.0
C616 C 0.66841 0.16162 0.39115 0.0
C617 C 0.6474 0.19799 0.40077 0.0
C618 C 0.66059 0.17776 0.32339 0.0
C619 C 0.63293 0.22317 0.37075 0.0
C620 C 0.64425 0.18655 0.25298 0.0
C621 C 0.70994 0.13568 0.23475 0.0
N622 N 0.63965 0.21253 0.33345 0.0
N623 N 0.70032 0.14375 0.27205 0.0
loop_
_geom_bond_atom_site_label_1
_geom_bond_atom_site_label_2
_geom_bond_distance
_geom_bond_site_symmetry_2
_ccdc_geom_bond_type
C0 C1 1.351 . S
C0 N3 1.368 . S
C0 H5 0.931 . S
C1 C0 1.351 . S
C1 N2 1.373 . S
C1 H29 0.930 . S
N2 C1 1.373 . S
N2 C4 1.340 . S
N3 C0 1.368 . S
N3 C4 1.321 . S
N3 Co6 2.135 1_556 S
C4 N2 1.340 . S
C4 N3 1.321 . S
C4 H28 0.930 . S
H5 C0 0.931 . S
Co6 N3 2.135 1_554 S
Co6 N9 2.121 . S
Co6 O14 2.055 . S
Co6 O17 2.039 . S
Co6 N20 2.140 . S
C7 O8 1.227 . S
C7 O17 1.265 . S
O8 C7 1.227 . S
N9 Co6 2.121 . S
N9 C11 1.375 . S
N9 C12 1.313 . S
C10 C11 1.338 . S
C10 N13 1.377 . S
C10 H30 0.930 . S
C11 N9 1.375 . S
C11 C10 1.338 . S
C11 H15 0.931 . S
C12 N9 1.313 . S
C12 N13 1.344 . S
C12 H16 0.930 . S
N13 C10 1.377 . S
N13 C12 1.344 . S
O14 Co6 2.055 . S
O14 C18 1.253 . S
H15 C11 0.931 . S
H16 C12 0.930 . S
O17 Co6 2.039 . S
O17 C7 1.265 . S
C18 O14 1.253 . S
C18 O19 1.227 . S
O19 C18 1.227 . S
N20 Co6 2.140 . S
N20 C23 1.346 . S
N20 C24 1.345 . S
C21 C22 1.387 . S
C21 C25 1.391 . S
C22 C21 1.387 . S
C22 C23 1.369 . S
C22 H31 0.929 1_554 S
C23 N20 1.346 . S
C23 C22 1.369 . S
C23 H26 0.928 1_554 S
C24 N20 1.345 . S
C24 C25 1.371 . S
C24 H27 0.931 . S
C25 C21 1.391 . S
C25 C24 1.371 . S
C25 H32 0.930 . S
H26 C23 0.928 1_556 S
H27 C24 0.931 . S
H28 C4 0.930 . S
H29 C1 0.930 . S
H30 C10 0.930 . S
H31 C22 0.929 1_556 S
H32 C25 0.930 . S
C33 C34 1.351 . S
C33 N36 1.368 . S
C33 H38 0.931 . S
C34 C33 1.351 . S
C34 N35 1.373 . S
C34 H62 0.930 . S
N35 C34 1.373 . S
N35 C37 1.340 . S
N36 C33 1.368 . S
N36 C37 1.321 . S
N36 Co39 2.135 . S
C37 N35 1.340 . S
C37 N36 1.321 . S
C37 H61 0.930 . S
H38 C33 0.931 . S
Co39 N36 2.135 . S
Co39 N42 2.121 . S
Co39 O47 2.055 . S
Co39 O50 2.039 . S
Co39 N53 2.140 . S
C40 O41 1.227 . S
C40 O50 1.265 . S
O41 C40 1.227 . S
N42 Co39 2.121 . S
N42 C44 1.375 . S
N42 C45 1.313 . S
C43 C44 1.338 . S
C43 N46 1.377 . S
C43 H63 0.930 . S
C44 N42 1.375 . S
C44 C43 1.338 . S
C44 H48 0.931 . S
C45 N42 1.313 . S
C45 N46 1.344 . S
C45 H49 0.930 . S
N46 C43 1.377 . S
N46 C45 1.344 . S
O47 Co39 2.055 . S
O47 C51 1.253 . S
H48 C44 0.931 . S
H49 C45 0.930 . S
O50 Co39 2.039 . S
O50 C40 1.265 . S
C51 O47 1.253 . S
C51 O52 1.227 . S
O52 C51 1.227 . S
N53 Co39 2.140 . S
N53 C56 1.346 . S
N53 C57 1.345 . S
C54 C55 1.387 . S
C54 C58 1.391 . S
C55 C54 1.387 . S
C55 C56 1.369 . S
C55 H64 0.929 . S
C56 N53 1.346 . S
C56 C55 1.369 . S
C56 H59 0.928 . S
C57 N53 1.345 . S
C57 C58 1.371 . S
C57 H60 0.931 . S
C58 C54 1.391 . S
C58 C57 1.371 . S
C58 H65 0.930 . S
H59 C56 0.928 . S
H60 C57 0.931 . S
H61 C37 0.930 . S
H62 C34 0.930 . S
H63 C43 0.930 . S
H64 C55 0.929 . S
H65 C58 0.930 . S
C66 C67 1.351 . S
C66 N69 1.368 . S
C66 H71 0.931 . S
C67 C66 1.351 . S
C67 N68 1.373 . S
C67 H95 0.930 . S
N68 C67 1.373 . S
N68 C70 1.340 . S
N69 C66 1.368 . S
N69 C70 1.321 . S
N69 Co72 2.135 1_556 S
C70 N68 1.340 . S
C70 N69 1.321 . S
C70 H94 0.930 . S
H71 C66 0.931 . S
Co72 N69 2.135 1_554 S
Co72 N75 2.121 . S
Co72 O80 2.055 . S
Co72 O83 2.039 . S
Co72 N86 2.140 . S
C73 O74 1.227 . S
C73 O83 1.265 . S
O74 C73 1.227 . S
N75 Co72 2.121 . S
N75 C77 1.375 . S
N75 C78 1.313 . S
C76 C77 1.338 . S
C76 N79 1.377 . S
C76 H96 0.930 . S
C77 N75 1.375 . S
C77 C76 1.338 . S
C77 H81 0.931 . S
C78 N75 1.313 . S
C78 N79 1.344 . S
C78 H82 0.930 . S
N79 C76 1.377 . S
N79 C78 1.344 . S
O80 Co72 2.055 . S
O80 C84 1.253 . S
H81 C77 0.931 . S
H82 C78 0.930 . S
O83 Co72 2.039 . S
O83 C73 1.265 . S
C84 O80 1.253 . S
C84 O85 1.227 . S
O85 C84 1.227 . S
N86 Co72 2.140 . S
N86 C89 1.346 . S
N86 C90 1.345 . S
C87 C88 1.387 . S
C87 C91 1.391 . S
C88 C87 1.387 . S
C88 C89 1.369 . S
C88 H97 0.929 1_554 S
C89 N86 1.346 . S
C89 C88 1.369 . S
C89 H92 0.928 1_554 S
C90 N86 1.345 . S
C90 C91 1.371 . S
C90 H93 0.931 . S
C91 C87 1.391 . S
C91 C90 1.371 . S
C91 H98 0.930 . S
H92 C89 0.928 1_556 S
H93 C90 0.931 . S
H94 C70 0.930 . S
H95 C67 0.930 . S
H96 C76 0.930 . S
H97 C88 0.929 1_556 S
H98 C91 0.930 . S
C99 C100 1.351 . S
C99 N102 1.368 . S
C99 H104 0.931 . S
C100 C99 1.351 . S
C100 N101 1.373 . S
C100 H128 0.930 . S
N101 C100 1.373 . S
N101 C103 1.340 . S
N102 C99 1.368 . S
N102 C103 1.321 . S
N102 Co105 2.135 . S
C103 N101 1.340 . S
C103 N102 1.321 . S
C103 H127 0.930 . S
H104 C99 0.931 . S
Co105 N102 2.135 . S
Co105 N108 2.121 . S
Co105 O113 2.055 . S
Co105 O116 2.039 . S
Co105 N119 2.140 . S
C106 O107 1.227 . S
C106 O116 1.265 . S
O107 C106 1.227 . S
N108 Co105 2.121 . S
N108 C110 1.375 . S
N108 C111 1.313 . S
C109 C110 1.338 . S
C109 N112 1.377 . S
C109 H129 0.930 . S
C110 N108 1.375 . S
C110 C109 1.338 . S
C110 H114 0.931 . S
C111 N108 1.313 . S
C111 N112 1.344 . S
C111 H115 0.930 . S
N112 C109 1.377 . S
N112 C111 1.344 . S
O113 Co105 2.055 . S
O113 C117 1.253 . S
H114 C110 0.931 . S
H115 C111 0.930 . S
O116 Co105 2.039 . S
O116 C106 1.265 . S
C117 O113 1.253 . S
C117 O118 1.227 . S
O118 C117 1.227 . S
N119 Co105 2.140 . S
N119 C122 1.346 . S
N119 C123 1.345 . S
C120 C121 1.387 . S
C120 C124 1.391 . S
C121 C120 1.387 . S
C121 C122 1.369 . S
C121 H130 0.929 . S
C122 N119 1.346 . S
C122 C121 1.369 . S
C122 H125 0.928 . S
C123 N119 1.345 . S
C123 C124 1.371 . S
C123 H126 0.931 . S
C124 C120 1.391 . S
C124 C123 1.371 . S
C124 H131 0.930 . S
H125 C122 0.928 . S
H126 C123 0.931 . S
H127 C103 0.930 . S
H128 C100 0.930 . S
H129 C109 0.930 . S
H130 C121 0.929 . S
H131 C124 0.930 . S
C132 C133 1.351 . S
C132 N135 1.368 . S
C132 H137 0.931 . S
C133 C132 1.351 . S
C133 N134 1.373 . S
C133 H161 0.930 . S
N134 C133 1.373 . S
N134 C136 1.340 . S
N135 C132 1.368 . S
N135 C136 1.321 . S
N135 Co138 2.135 . S
C136 N134 1.340 . S
C136 N135 1.321 . S
C136 H160 0.930 . S
H137 C132 0.931 . S
Co138 N135 2.135 . S
Co138 N141 2.121 1_554 S
Co138 O146 2.055 . S
Co138 O149 2.039 . S
Co138 N152 2.140 . S
C139 O140 1.227 . S
C139 O149 1.265 . S
O140 C139 1.227 . S
N141 Co138 2.121 1_556 S
N141 C143 1.375 . S
N141 C144 1.313 . S
C142 C143 1.338 . S
C142 N145 1.377 . S
C142 H162 0.930 . S
C143 N141 1.375 . S
C143 C142 1.338 . S
C143 H147 0.931 . S
C144 N141 1.313 . S
C144 N145 1.344 . S
C144 H148 0.930 . S
N145 C142 1.377 . S
N145 C144 1.344 . S
O146 Co138 2.055 . S
O146 C150 1.253 . S
H147 C143 0.931 . S
H148 C144 0.930 . S
O149 Co138 2.039 . S
O149 C139 1.265 . S
C150 O146 1.253 . S
C150 O151 1.227 . S
O151 C150 1.227 . S
N152 Co138 2.140 . S
N152 C155 1.346 . S
N152 C156 1.345 . S
C153 C154 1.387 . S
C153 C157 1.391 . S
C154 C153 1.387 . S
C154 C155 1.369 1_565 S
C154 H163 0.929 . S
C155 N152 1.346 . S
C155 C154 1.369 1_545 S
C155 H158 0.928 . S
C156 N152 1.345 . S
C156 C157 1.371 1_545 S
C156 H159 0.931 1_554 S
C157 C153 1.391 . S
C157 C156 1.371 1_565 S
C157 H164 0.930 1_554 S
H158 C155 0.928 . S
H159 C156 0.931 1_556 S
H160 C136 0.930 . S
H161 C133 0.930 . S
H162 C142 0.930 . S
H163 C154 0.929 . S
H164 C157 0.930 1_556 S
C165 C166 1.351 . S
C165 N168 1.368 . S
C165 H170 0.931 . S
C166 C165 1.351 . S
C166 N167 1.373 . S
C166 H194 0.930 . S
N167 C166 1.373 . S
N167 C169 1.340 . S
N168 C165 1.368 . S
N168 C169 1.321 . S
N168 Co171 2.135 . S
C169 N167 1.340 . S
C169 N168 1.321 . S
C169 H193 0.930 . S
H170 C165 0.931 . S
Co171 N168 2.135 . S
Co171 N174 2.121 . S
Co171 O179 2.055 . S
Co171 O182 2.039 . S
Co171 N185 2.140 . S
C172 O173 1.227 . S
C172 O182 1.265 . S
O173 C172 1.227 . S
N174 Co171 2.121 . S
N174 C176 1.375 . S
N174 C177 1.313 . S
C175 C176 1.338 . S
C175 N178 1.377 . S
C175 H195 0.930 . S
C176 N174 1.375 . S
C176 C175 1.338 . S
C176 H180 0.931 . S
C177 N174 1.313 . S
C177 N178 1.344 . S
C177 H181 0.930 . S
N178 C175 1.377 . S
N178 C177 1.344 . S
O179 Co171 2.055 . S
O179 C183 1.253 . S
H180 C176 0.931 . S
H181 C177 0.930 . S
O182 Co171 2.039 . S
O182 C172 1.265 . S
C183 O179 1.253 . S
C183 O184 1.227 . S
O184 C183 1.227 . S
N185 Co171 2.140 . S
N185 C188 1.346 . S
N185 C189 1.345 . S
C186 C187 1.387 . S
C186 C190 1.391 . S
C187 C186 1.387 . S
C187 C188 1.369 1_455 S
C187 H196 0.929 . S
C188 N185 1.346 . S
C188 C187 1.369 1_655 S
C188 H191 0.928 . S
C189 N185 1.345 . S
C189 C190 1.371 1_655 S
C189 H192 0.931 . S
C190 C186 1.391 . S
C190 C189 1.371 1_455 S
C190 H197 0.930 . S
H191 C188 0.928 . S
H192 C189 0.931 . S
H193 C169 0.930 . S
H194 C166 0.930 . S
H195 C175 0.930 . S
H196 C187 0.929 . S
H197 C190 0.930 . S
C198 C199 1.351 . S
C198 N201 1.368 . S
C198 H203 0.931 . S
C199 C198 1.351 . S
C199 N200 1.373 . S
C199 H227 0.930 . S
N200 C199 1.373 . S
N200 C202 1.340 . S
N201 C198 1.368 . S
N201 C202 1.321 . S
N201 Co204 2.135 . S
C202 N200 1.340 . S
C202 N201 1.321 . S
C202 H226 0.930 . S
H203 C198 0.931 . S
Co204 N201 2.135 . S
Co204 N207 2.121 1_554 S
Co204 O212 2.055 . S
Co204 O215 2.039 . S
Co204 N218 2.140 . S
C205 O206 1.227 . S
C205 O215 1.265 . S
O206 C205 1.227 . S
N207 Co204 2.121 1_556 S
N207 C209 1.375 . S
N207 C210 1.313 . S
C208 C209 1.338 . S
C208 N211 1.377 . S
C208 H228 0.930 . S
C209 N207 1.375 . S
C209 C208 1.338 . S
C209 H213 0.931 . S
C210 N207 1.313 . S
C210 N211 1.344 . S
C210 H214 0.930 . S
N211 C208 1.377 . S
N211 C210 1.344 . S
O212 Co204 2.055 . S
O212 C216 1.253 . S
H213 C209 0.931 . S
H214 C210 0.930 . S
O215 Co204 2.039 . S
O215 C205 1.265 . S
C216 O212 1.253 . S
C216 O217 1.227 . S
O217 C216 1.227 . S
N218 Co204 2.140 . S
N218 C221 1.346 . S
N218 C222 1.345 . S
C219 C220 1.387 . S
C219 C223 1.391 . S
C220 C219 1.387 . S
C220 C221 1.369 1_545 S
C220 H229 0.929 . S
C221 N218 1.346 . S
C221 C220 1.369 1_565 S
C221 H224 0.928 . S
C222 N218 1.345 . S
C222 C223 1.371 1_565 S
C222 H225 0.931 1_554 S
C223 C219 1.391 . S
C223 C222 1.371 1_545 S
C223 H230 0.930 1_554 S
H224 C221 0.928 . S
H225 C222 0.931 1_556 S
H226 C202 0.930 . S
H227 C199 0.930 . S
H228 C208 0.930 . S
H229 C220 0.929 . S
H230 C223 0.930 1_556 S
C231 C232 1.351 . S
C231 N234 1.368 . S
C231 H236 0.931 . S
C232 C231 1.351 . S
C232 N233 1.373 . S
C232 H260 0.930 . S
N233 C232 1.373 . S
N233 C235 1.340 . S
N234 C231 1.368 . S
N234 C235 1.321 . S
N234 Co237 2.135 . S
C235 N233 1.340 . S
C235 N234 1.321 . S
C235 H259 0.930 . S
H236 C231 0.931 . S
Co237 N234 2.135 . S
Co237 N240 2.121 . S
Co237 O245 2.055 . S
Co237 O248 2.039 . S
Co237 N251 2.140 . S
C238 O239 1.227 . S
C238 O248 1.265 . S
O239 C238 1.227 . S
N240 Co237 2.121 . S
N240 C242 1.375 . S
N240 C243 1.313 . S
C241 C242 1.338 . S
C241 N244 1.377 . S
C241 H261 0.930 . S
C242 N240 1.375 . S
C242 C241 1.338 . S
C242 H246 0.931 . S
C243 N240 1.313 . S
C243 N244 1.344 . S
C243 H247 0.930 . S
N244 C241 1.377 . S
N244 C243 1.344 . S
O245 Co237 2.055 . S
O245 C249 1.253 . S
H246 C242 0.931 . S
H247 C243 0.930 . S
O248 Co237 2.039 . S
O248 C238 1.265 . S
C249 O245 1.253 . S
C249 O250 1.227 . S
O250 C249 1.227 . S
N251 Co237 2.140 . S
N251 C254 1.346 . S
N251 C255 1.345 . S
C252 C253 1.387 . S
C252 C256 1.391 . S
C253 C252 1.387 . S
C253 C254 1.369 1_655 S
C253 H262 0.929 . S
C254 N251 1.346 . S
C254 C253 1.369 1_455 S
C254 H257 0.928 . S
C255 N251 1.345 . S
C255 C256 1.371 1_455 S
C255 H258 0.931 . S
C256 C252 1.391 . S
C256 C255 1.371 1_655 S
C256 H263 0.930 . S
H257 C254 0.928 . S
H258 C255 0.931 . S
H259 C235 0.930 . S
H260 C232 0.930 . S
H261 C241 0.930 . S
H262 C253 0.929 . S
H263 C256 0.930 . S
H264 C270 0.930 1_556 S
H265 C274 0.930 . S
H266 C279 0.929 . S
H267 C277 0.929 1_556 S
H268 C272 0.929 . S
H269 C278 0.929 1_556 S
C270 H264 0.930 1_554 S
C270 C271 1.367 . S
C270 C278 1.378 . S
C271 C270 1.367 . S
C271 C279 1.433 . S
C272 H268 0.929 . S
C272 C274 1.378 . S
C272 C276 1.350 . S
C273 C276 1.463 . S
C273 C278 1.350 . S
C273 N281 1.427 . S
C274 H265 0.930 . S
C274 C272 1.378 . S
C274 C275 1.367 . S
C275 C274 1.367 . S
C275 C277 1.433 . S
C276 C272 1.350 . S
C276 C273 1.463 . S
C276 N280 1.427 . S
C277 H267 0.929 1_554 S
C277 C275 1.433 . S
C277 N280 1.384 . S
C278 H269 0.929 1_554 S
C278 C270 1.378 . S
C278 C273 1.350 . S
C279 H266 0.929 . S
C279 C271 1.433 . S
C279 N281 1.384 . S
N280 C276 1.427 . S
N280 C277 1.384 . S
N281 C273 1.427 . S
N281 C279 1.384 . S
H282 C288 0.930 . S
H283 C292 0.930 . S
H284 C297 0.929 . S
H285 C295 0.929 . S
H286 C290 0.929 . S
H287 C296 0.929 . S
C288 H282 0.930 . S
C288 C289 1.367 . S
C288 C296 1.378 . S
C289 C288 1.367 . S
C289 C297 1.433 . S
C290 H286 0.929 . S
C290 C292 1.378 . S
C290 C294 1.350 . S
C291 C294 1.463 . S
C291 C296 1.350 . S
C291 N299 1.427 . S
C292 H283 0.930 . S
C292 C290 1.378 . S
C292 C293 1.367 . S
C293 C292 1.367 . S
C293 C295 1.433 . S
C294 C290 1.350 . S
C294 C291 1.463 . S
C294 N298 1.427 . S
C295 H285 0.929 . S
C295 C293 1.433 . S
C295 N298 1.384 . S
C296 H287 0.929 . S
C296 C288 1.378 . S
C296 C291 1.350 . S
C297 H284 0.929 . S
C297 C289 1.433 . S
C297 N299 1.384 . S
N298 C294 1.427 . S
N298 C295 1.384 . S
N299 C291 1.427 . S
N299 C297 1.384 . S
H300 C306 0.930 . S
H301 C310 0.930 . S
H302 C315 0.929 . S
H303 C313 0.929 . S
H304 C308 0.929 . S
H305 C314 0.929 . S
C306 H300 0.930 . S
C306 C307 1.367 . S
C306 C314 1.378 . S
C307 C306 1.367 . S
C307 C315 1.433 . S
C308 H304 0.929 . S
C308 C310 1.378 . S
C308 C312 1.350 . S
C309 C312 1.463 . S
C309 C314 1.350 . S
C309 N317 1.427 . S
C310 H301 0.930 . S
C310 C308 1.378 . S
C310 C311 1.367 . S
C311 C310 1.367 . S
C311 C313 1.433 . S
C312 C308 1.350 . S
C312 C309 1.463 . S
C312 N316 1.427 . S
C313 H303 0.929 . S
C313 C311 1.433 . S
C313 N316 1.384 . S
C314 H305 0.929 . S
C314 C306 1.378 . S
C314 C309 1.350 . S
C315 H302 0.929 . S
C315 C307 1.433 . S
C315 N317 1.384 . S
N316 C312 1.427 . S
N316 C313 1.384 . S
N317 C309 1.427 . S
N317 C315 1.384 . S
H318 C324 0.930 . S
H319 C328 0.930 . S
H320 C333 0.929 . S
H321 C331 0.929 . S
H322 C326 0.929 . S
H323 C332 0.929 . S
C324 H318 0.930 . S
C324 C325 1.367 . S
C324 C332 1.378 . S
C325 C324 1.367 . S
C325 C333 1.433 . S
C326 H322 0.929 . S
C326 C328 1.378 . S
C326 C330 1.350 . S
C327 C330 1.463 . S
C327 C332 1.350 . S
C327 N335 1.427 . S
C328 H319 0.930 . S
C328 C326 1.378 . S
C328 C329 1.367 . S
C329 C328 1.367 . S
C329 C331 1.433 . S
C330 C326 1.350 . S
C330 C327 1.463 . S
C330 N334 1.427 . S
C331 H321 0.929 . S
C331 C329 1.433 . S
C331 N334 1.384 . S
C332 H323 0.929 . S
C332 C324 1.378 . S
C332 C327 1.350 . S
C333 H320 0.929 . S
C333 C325 1.433 . S
C333 N335 1.384 . S
N334 C330 1.427 . S
N334 C331 1.384 . S
N335 C327 1.427 . S
N335 C333 1.384 . S
H336 C342 0.930 . S
H337 C346 0.930 . S
H338 C351 0.929 . S
H339 C349 0.929 . S
H340 C344 0.929 . S
H341 C350 0.929 . S
C342 H336 0.930 . S
C342 C343 1.367 1_556 S
C342 C350 1.378 . S
C343 C342 1.367 1_554 S
C343 C351 1.433 . S
C344 H340 0.929 . S
C344 C346 1.378 . S
C344 C348 1.350 . S
C345 C348 1.463 . S
C345 C350 1.350 1_554 S
C345 N353 1.427 . S
C346 H337 0.930 . S
C346 C344 1.378 . S
C346 C347 1.367 . S
C347 C346 1.367 . S
C347 C349 1.433 1_554 S
C348 C344 1.350 . S
C348 C345 1.463 . S
C348 N352 1.427 1_554 S
C349 H339 0.929 . S
C349 C347 1.433 1_556 S
C349 N352 1.384 . S
C350 H341 0.929 . S
C350 C342 1.378 . S
C350 C345 1.350 1_556 S
C351 H338 0.929 . S
C351 C343 1.433 . S
C351 N353 1.384 . S
N352 C348 1.427 1_556 S
N352 C349 1.384 . S
N353 C345 1.427 . S
N353 C351 1.384 . S
H354 C360 0.930 . S
H355 C364 0.930 . S
H356 C369 0.929 . S
H357 C367 0.929 . S
H358 C362 0.929 . S
H359 C368 0.929 . S
C360 H354 0.930 . S
C360 C361 1.367 . S
C360 C368 1.378 . S
C361 C360 1.367 . S
C361 C369 1.433 . S
C362 H358 0.929 . S
C362 C364 1.378 . S
C362 C366 1.350 . S
C363 C366 1.463 . S
C363 C368 1.350 . S
C363 N371 1.427 . S
C364 H355 0.930 . S
C364 C362 1.378 . S
C364 C365 1.367 . S
C365 C364 1.367 . S
C365 C367 1.433 . S
C366 C362 1.350 . S
C366 C363 1.463 . S
C366 N370 1.427 . S
C367 H357 0.929 . S
C367 C365 1.433 . S
C367 N370 1.384 . S
C368 H359 0.929 . S
C368 C360 1.378 . S
C368 C363 1.350 . S
C369 H356 0.929 . S
C369 C361 1.433 . S
C369 N371 1.384 . S
N370 C366 1.427 . S
N370 C367 1.384 . S
N371 C363 1.427 . S
N371 C369 1.384 . S
H372 C378 0.930 . S
H373 C382 0.930 . S
H374 C387 0.929 . S
H375 C385 0.929 . S
H376 C380 0.929 . S
H377 C386 0.929 . S
C378 H372 0.930 . S
C378 C379 1.367 1_556 S
C378 C386 1.378 . S
C379 C378 1.367 1_554 S
C379 C387 1.433 . S
C380 H376 0.929 . S
C380 C382 1.378 . S
C380 C384 1.350 . S
C381 C384 1.463 . S
C381 C386 1.350 1_554 S
C381 N389 1.427 . S
C382 H373 0.930 . S
C382 C380 1.378 . S
C382 C383 1.367 . S
C383 C382 1.367 . S
C383 C385 1.433 1_554 S
C384 C380 1.350 . S
C384 C381 1.463 . S
C384 N388 1.427 1_554 S
C385 H375 0.929 . S
C385 C383 1.433 1_556 S
C385 N388 1.384 . S
C386 H377 0.929 . S
C386 C378 1.378 . S
C386 C381 1.350 1_556 S
C387 H374 0.929 . S
C387 C379 1.433 . S
C387 N389 1.384 . S
N388 C384 1.427 1_556 S
N388 C385 1.384 . S
N389 C381 1.427 . S
N389 C387 1.384 . S
H390 C396 0.930 . S
H391 C400 0.930 . S
H392 C405 0.929 . S
H393 C403 0.929 . S
H394 C398 0.929 . S
H395 C404 0.929 . S
C396 H390 0.930 . S
C396 C397 1.367 . S
C396 C404 1.378 . S
C397 C396 1.367 . S
C397 C405 1.433 . S
C398 H394 0.929 . S
C398 C400 1.378 . S
C398 C402 1.350 . S
C399 C402 1.463 . S
C399 C404 1.350 . S
C399 N407 1.427 . S
C400 H391 0.930 . S
C400 C398 1.378 . S
C400 C401 1.367 . S
C401 C400 1.367 . S
C401 C403 1.433 . S
C402 C398 1.350 . S
C402 C399 1.463 . S
C402 N406 1.427 . S
C403 H393 0.929 . S
C403 C401 1.433 . S
C403 N406 1.384 . S
C404 H395 0.929 . S
C404 C396 1.378 . S
C404 C399 1.350 . S
C405 H392 0.929 . S
C405 C397 1.433 . S
C405 N407 1.384 . S
N406 C402 1.427 . S
N406 C403 1.384 . S
N407 C399 1.427 . S
N407 C405 1.384 . S
H408 C414 0.930 . S
H409 C418 0.930 . S
H410 C423 0.929 . S
H411 C421 0.929 . S
H412 C416 0.929 . S
H413 C422 0.929 . S
C414 H408 0.930 . S
C414 C415 1.367 . S
C414 C422 1.378 . S
C415 C414 1.367 . S
C415 C423 1.433 . S
C416 H412 0.929 . S
C416 C418 1.378 . S
C416 C420 1.350 . S
C417 C420 1.463 1_455 S
C417 C422 1.350 . S
C417 N425 1.427 . S
C418 H409 0.930 . S
C418 C416 1.378 . S
C418 C419 1.367 . S
C419 C418 1.367 . S
C419 C421 1.433 . S
C420 C416 1.350 . S
C420 C417 1.463 1_655 S
C420 N424 1.427 . S
C421 H411 0.929 . S
C421 C419 1.433 . S
C421 N424 1.384 . S
C422 H413 0.929 . S
C422 C414 1.378 . S
C422 C417 1.350 . S
C423 H410 0.929 . S
C423 C415 1.433 . S
C423 N425 1.384 . S
N424 C420 1.427 . S
N424 C421 1.384 . S
N425 C417 1.427 . S
N425 C423 1.384 . S
H426 C432 0.930 . S
H427 C436 0.930 . S
H428 C441 0.929 . S
H429 C439 0.929 . S
H430 C434 0.929 . S
H431 C440 0.929 . S
C432 H426 0.930 . S
C432 C433 1.367 . S
C432 C440 1.378 . S
C433 C432 1.367 . S
C433 C441 1.433 . S
C434 H430 0.929 . S
C434 C436 1.378 . S
C434 C438 1.350 . S
C435 C438 1.463 1_565 S
C435 C440 1.350 . S
C435 N443 1.427 . S
C436 H427 0.930 . S
C436 C434 1.378 . S
C436 C437 1.367 . S
C437 C436 1.367 . S
C437 C439 1.433 . S
C438 C434 1.350 . S
C438 C435 1.463 1_545 S
C438 N442 1.427 . S
C439 H429 0.929 . S
C439 C437 1.433 . S
C439 N442 1.384 . S
C440 H431 0.929 . S
C440 C432 1.378 . S
C440 C435 1.350 . S
C441 H428 0.929 . S
C441 C433 1.433 . S
C441 N443 1.384 . S
N442 C438 1.427 . S
N442 C439 1.384 . S
N443 C435 1.427 . S
N443 C441 1.384 . S
H444 C450 0.918 1_556 S
H445 C454 0.930 . S
H446 C459 0.929 . S
H447 C457 0.905 1_556 S
H448 C452 0.929 . S
H449 C458 0.917 1_556 S
C450 H444 0.918 1_554 S
C450 C451 1.367 . S
C450 C458 1.378 . S
C451 C450 1.367 . S
C451 C459 1.433 . S
C452 H448 0.929 . S
C452 C454 1.378 . S
C452 C456 1.350 . S
C453 C456 1.463 1_565 S
C453 C458 1.350 . S
C453 N461 1.427 . S
C454 H445 0.930 . S
C454 C452 1.378 . S
C454 C455 1.367 . S
C455 C454 1.367 . S
C455 C457 1.433 . S
C456 C452 1.350 . S
C456 C453 1.463 1_545 S
C456 N460 1.427 . S
C457 H447 0.905 1_554 S
C457 C455 1.433 . S
C457 N460 1.384 . S
C458 H449 0.917 1_554 S
C458 C450 1.378 . S
C458 C453 1.350 . S
C459 H446 0.929 . S
C459 C451 1.433 . S
C459 N461 1.384 . S
N460 C456 1.427 . S
N460 C457 1.384 . S
N461 C453 1.427 . S
N461 C459 1.384 . S
H462 C468 0.930 . S
H463 C472 0.930 . S
H464 C477 0.929 . S
H465 C475 0.929 . S
H466 C470 0.929 1_655 S
H467 C476 0.929 1_455 S
C468 H462 0.930 . S
C468 C469 1.367 . S
C468 C476 1.378 . S
C469 C468 1.367 . S
C469 C477 1.433 . S
C470 H466 0.929 1_455 S
C470 C472 1.378 . S
C470 C474 1.350 . S
C471 C474 1.463 1_655 S
C471 C476 1.350 . S
C471 N479 1.427 . S
C472 H463 0.930 . S
C472 C470 1.378 . S
C472 C473 1.367 . S
C473 C472 1.367 . S
C473 C475 1.433 . S
C474 C470 1.350 . S
C474 C471 1.463 1_455 S
C474 N478 1.427 . S
C475 H465 0.929 . S
C475 C473 1.433 . S
C475 N478 1.384 . S
C476 H467 0.929 1_655 S
C476 C468 1.378 . S
C476 C471 1.350 . S
C477 H464 0.929 . S
C477 C469 1.433 . S
C477 N479 1.384 . S
N478 C474 1.427 . S
N478 C475 1.384 . S
N479 C471 1.427 . S
N479 C477 1.384 . S
H480 C486 0.930 . S
H481 C490 0.930 . S
H482 C495 0.929 . S
H483 C493 0.929 . S
H484 C488 0.929 . S
H485 C494 0.929 . S
C486 H480 0.930 . S
C486 C487 1.367 . S
C486 C494 1.378 . S
C487 C486 1.367 . S
C487 C495 1.433 . S
C488 H484 0.929 . S
C488 C490 1.378 . S
C488 C492 1.350 . S
C489 C492 1.463 . S
C489 C494 1.350 . S
C489 N497 1.427 . S
C490 H481 0.930 . S
C490 C488 1.378 . S
C490 C491 1.367 . S
C491 C490 1.367 . S
C491 C493 1.433 . S
C492 C488 1.350 . S
C492 C489 1.463 . S
C492 N496 1.427 . S
C493 H483 0.929 . S
C493 C491 1.433 . S
C493 N496 1.384 . S
C494 H485 0.929 . S
C494 C486 1.378 . S
C494 C489 1.350 . S
C495 H482 0.929 . S
C495 C487 1.433 . S
C495 N497 1.384 . S
N496 C492 1.427 . S
N496 C493 1.384 . S
N497 C489 1.427 . S
N497 C495 1.384 . S
H498 C504 0.930 . S
H499 C508 0.930 . S
H500 C513 0.929 . S
H501 C511 0.929 . S
H502 C506 0.929 . S
H503 C512 0.929 . S
C504 H498 0.930 . S
C504 C505 1.367 . S
C504 C512 1.378 . S
C505 C504 1.367 . S
C505 C513 1.433 . S
C506 H502 0.929 . S
C506 C508 1.378 . S
C506 C510 1.350 . S
C507 C510 1.463 . S
C507 C512 1.350 . S
C507 N515 1.427 . S
C508 H499 0.930 . S
C508 C506 1.378 . S
C508 C509 1.367 . S
C509 C508 1.367 . S
C509 C511 1.433 . S
C510 C506 1.350 . S
C510 C507 1.463 . S
C510 N514 1.427 . S
C511 H501 0.929 . S
C511 C509 1.433 . S
C511 N514 1.384 . S
C512 H503 0.929 . S
C512 C504 1.378 . S
C512 C507 1.350 . S
C513 H500 0.929 . S
C513 C505 1.433 . S
C513 N515 1.384 . S
N514 C510 1.427 . S
N514 C511 1.384 . S
N515 C507 1.427 . S
N515 C513 1.384 . S
H516 C522 0.930 . S
H517 C526 0.930 . S
H518 C531 0.929 . S
H519 C529 0.929 . S
H520 C524 0.929 . S
H521 C530 0.929 . S
C522 H516 0.930 . S
C522 C523 1.367 . S
C522 C530 1.378 . S
C523 C522 1.367 . S
C523 C531 1.433 . S
C524 H520 0.929 . S
C524 C526 1.378 . S
C524 C528 1.350 . S
C525 C528 1.463 . S
C525 C530 1.350 . S
C525 N533 1.427 . S
C526 H517 0.930 . S
C526 C524 1.378 . S
C526 C527 1.367 . S
C527 C526 1.367 . S
C527 C529 1.433 . S
C528 C524 1.350 . S
C528 C525 1.463 . S
C528 N532 1.427 . S
C529 H519 0.929 . S
C529 C527 1.433 . S
C529 N532 1.384 . S
C530 H521 0.929 . S
C530 C522 1.378 . S
C530 C525 1.350 . S
C531 H518 0.929 . S
C531 C523 1.433 . S
C531 N533 1.384 . S
N532 C528 1.427 . S
N532 C529 1.384 . S
N533 C525 1.427 . S
N533 C531 1.384 . S
H534 C540 0.930 . S
H535 C544 0.930 . S
H536 C549 0.929 . S
H537 C547 0.929 . S
H538 C542 0.929 . S
H539 C548 0.929 . S
C540 H534 0.930 . S
C540 C541 1.367 . S
C540 C548 1.378 . S
C541 C540 1.367 . S
C541 C549 1.433 . S
C542 H538 0.929 . S
C542 C544 1.378 . S
C542 C546 1.350 . S
C543 C546 1.463 . S
C543 C548 1.350 . S
C543 N551 1.427 . S
C544 H535 0.930 . S
C544 C542 1.378 . S
C544 C545 1.367 . S
C545 C544 1.367 . S
C545 C547 1.433 . S
C546 C542 1.350 . S
C546 C543 1.463 . S
C546 N550 1.427 . S
C547 H537 0.929 . S
C547 C545 1.433 . S
C547 N550 1.384 . S
C548 H539 0.929 . S
C548 C540 1.378 . S
C548 C543 1.350 . S
C549 H536 0.929 . S
C549 C541 1.433 . S
C549 N551 1.384 . S
N550 C546 1.427 . S
N550 C547 1.384 . S
N551 C543 1.427 . S
N551 C549 1.384 . S
H552 C558 0.930 . S
H553 C562 0.930 . S
H554 C567 0.929 . S
H555 C565 0.929 . S
H556 C560 0.929 . S
H557 C566 0.929 . S
C558 H552 0.930 . S
C558 C559 1.367 . S
C558 C566 1.378 . S
C559 C558 1.367 . S
C559 C567 1.433 . S
C560 H556 0.929 . S
C560 C562 1.378 . S
C560 C564 1.350 . S
C561 C564 1.463 . S
C561 C566 1.350 . S
C561 N569 1.427 . S
C562 H553 0.930 . S
C562 C560 1.378 . S
C562 C563 1.367 . S
C563 C562 1.367 . S
C563 C565 1.433 . S
C564 C560 1.350 . S
C564 C561 1.463 . S
C564 N568 1.427 . S
C565 H555 0.929 . S
C565 C563 1.433 . S
C565 N568 1.384 . S
C566 H557 0.929 . S
C566 C558 1.378 . S
C566 C561 1.350 . S
C567 H554 0.929 . S
C567 C559 1.433 . S
C567 N569 1.384 . S
N568 C564 1.427 . S
N568 C565 1.384 . S
N569 C561 1.427 . S
N569 C567 1.384 . S
H570 C576 0.930 . S
H571 C580 0.930 . S
H572 C585 0.929 . S
H573 C583 0.929 . S
H574 C578 0.929 . S
H575 C584 0.929 . S
C576 H570 0.930 . S
C576 C577 1.367 . S
C576 C584 1.378 . S
C577 C576 1.367 . S
C577 C585 1.433 . S
C578 H574 0.929 . S
C578 C580 1.378 . S
C578 C582 1.350 . S
C579 C582 1.463 . S
C579 C584 1.350 . S
C579 N587 1.427 . S
C580 H571 0.930 . S
C580 C578 1.378 . S
C580 C581 1.367 . S
C581 C580 1.367 . S
C581 C583 1.433 . S
C582 C578 1.350 . S
C582 C579 1.463 . S
C582 N586 1.427 . S
C583 H573 0.929 . S
C583 C581 1.433 . S
C583 N586 1.384 . S
C584 H575 0.929 . S
C584 C576 1.378 . S
C584 C579 1.350 . S
C585 H572 0.929 . S
C585 C577 1.433 . S
C585 N587 1.384 . S
N586 C582 1.427 . S
N586 C583 1.384 . S
N587 C579 1.427 . S
N587 C585 1.384 . S
H588 C594 0.930 . S
H589 C598 0.930 . S
H590 C603 0.929 . S
H591 C601 0.929 . S
H592 C596 0.929 . S
H593 C602 0.929 . S
C594 H588 0.930 . S
C594 C595 1.367 . S
C594 C602 1.378 . S
C595 C594 1.367 . S
C595 C603 1.433 . S
C596 H592 0.929 . S
C596 C598 1.378 . S
C596 C600 1.350 . S
C597 C600 1.463 . S
C597 C602 1.350 . S
C597 N605 1.427 . S
C598 H589 0.930 . S
C598 C596 1.378 . S
C598 C599 1.367 . S
C599 C598 1.367 . S
C599 C601 1.433 . S
C600 C596 1.350 . S
C600 C597 1.463 . S
C600 N604 1.427 . S
C601 H591 0.929 . S
C601 C599 1.433 . S
C601 N604 1.384 . S
C602 H593 0.929 . S
C602 C594 1.378 . S
C602 C597 1.350 . S
C603 H590 0.929 . S
C603 C595 1.433 . S
C603 N605 1.384 . S
N604 C600 1.427 . S
N604 C601 1.384 . S
N605 C597 1.427 . S
N605 C603 1.384 . S
H606 C612 0.930 . S
H607 C616 0.930 . S
H608 C621 0.929 . S
H609 C619 0.929 . S
H610 C614 0.929 . S
H611 C620 0.929 . S
C612 H606 0.930 . S
C612 C613 1.367 . S
C612 C620 1.378 . S
C613 C612 1.367 . S
C613 C621 1.433 . S
C614 H610 0.929 . S
C614 C616 1.378 . S
C614 C618 1.350 . S
C615 C618 1.463 . S
C615 C620 1.350 . S
C615 N623 1.427 . S
C616 H607 0.930 . S
C616 C614 1.378 . S
C616 C617 1.367 . S
C617 C616 1.367 . S
C617 C619 1.433 . S
C618 C614 1.350 . S
C618 C615 1.463 . S
C618 N622 1.427 . S
C619 H609 0.929 . S
C619 C617 1.433 . S
C619 N622 1.384 . S
C620 H611 0.929 . S
C620 C612 1.378 . S
C620 C615 1.350 . S
C621 H608 0.929 . S
C621 C613 1.433 . S
C621 N623 1.384 . S
N622 C618 1.427 . S
N622 C619 1.384 . S
N623 C615 1.427 . S
N623 C621 1.384 . S
C271 C219 1.537 . S
C275 C18 1.579 . S
C289 C252 1.541 . S
C293 C51 1.580 . S
C307 C153 1.542 . S
C311 C84 1.581 . S
C325 C186 1.529 . S
C329 C117 1.574 . S
C343 C87 1.535 . S
C347 C150 1.577 . S
C361 C120 1.540 . S
C365 C183 1.580 . S
C379 C21 1.535 . S
C383 C216 1.577 . S
C397 C249 1.579 . S
C401 C54 1.539 . S
C415 C7 0.685 . S
C419 C73 0.685 . S
C433 C106 0.707 . S
C437 C40 0.703 . S
C451 C205 0.714 . S
C455 C139 0.710 . S
C469 C172 0.686 . S
C473 C238 0.688 . S
C487 N13 1.799 . S
C491 N244 1.789 . S
C505 N145 1.801 . S
C509 N46 1.794 . S
C523 N178 1.798 . S
C527 N79 1.799 . S
C541 N211 1.800 . S
C545 N112 1.789 . S
C559 N68 1.416 . S
C563 N167 1.426 . S
C577 N101 1.424 . S
C581 N200 1.434 . S
C595 N233 1.418 . S
C599 N2 1.432 . S
C613 N134 1.425 . S
C617 N35 1.416 . S
