# Generated by pormake.
# Topology wkj, (6)-cn, num edge types: 1
# Building blocks:
#     Node 0, Type 0, BuildingBlock: PAMTOO_clean_sbu_0, # of connection points: 6
#     Node 1, Type 0, BuildingBlock: PAMTOO_clean_sbu_0, # of connection points: 6
#     Node 2, Type 0, BuildingBlock: PAMTOO_clean_sbu_0, # of connection points: 6
#     Node 3, Type 0, BuildingBlock: PAMTOO_clean_sbu_0, # of connection points: 6
#     Node 4, Type 0, BuildingBlock: PAMTOO_clean_sbu_0, # of connection points: 6
#     Node 5, Type 0, BuildingBlock: PAMTOO_clean_sbu_0, # of connection points: 6
#     Node 6, Type 0, BuildingBlock: PAMTOO_clean_sbu_0, # of connection points: 6
#     Node 7, Type 0, BuildingBlock: PAMTOO_clean_sbu_0, # of connection points: 6
#     Node 8, Type 0, BuildingBlock: PAMTOO_clean_sbu_0, # of connection points: 6
#     Node 9, Type 0, BuildingBlock: PAMTOO_clean_sbu_0, # of connection points: 6
#     Node 10, Type 0, BuildingBlock: PAMTOO_clean_sbu_0, # of connection points: 6
#     Node 11, Type 0, BuildingBlock: PAMTOO_clean_sbu_0, # of connection points: 6
#     Edge 12, Type (0, 0), BuildingBlock: ZUJKAS_clean_linker_0, # of connection points: 2
#     Edge 13, Type (0, 0), BuildingBlock: ZUJKAS_clean_linker_0, # of connection points: 2
#     Edge 14, Type (0, 0), BuildingBlock: ZUJKAS_clean_linker_0, # of connection points: 2
#     Edge 15, Type (0, 0), BuildingBlock: ZUJKAS_clean_linker_0, # of connection points: 2
#     Edge 16, Type (0, 0), BuildingBlock: ZUJKAS_clean_linker_0, # of connection points: 2
#     Edge 17, Type (0, 0), BuildingBlock: ZUJKAS_clean_linker_0, # of connection points: 2
#     Edge 18, Type (0, 0), BuildingBlock: ZUJKAS_clean_linker_0, # of connection points: 2
#     Edge 19, Type (0, 0), BuildingBlock: ZUJKAS_clean_linker_0, # of connection points: 2
#     Edge 20, Type (0, 0), BuildingBlock: ZUJKAS_clean_linker_0, # of connection points: 2
#     Edge 21, Type (0, 0), BuildingBlock: ZUJKAS_clean_linker_0, # of connection points: 2
#     Edge 22, Type (0, 0), BuildingBlock: ZUJKAS_clean_linker_0, # of connection points: 2
#     Edge 23, Type (0, 0), BuildingBlock: ZUJKAS_clean_linker_0, # of connection points: 2
#     Edge 24, Type (0, 0), BuildingBlock: ZUJKAS_clean_linker_0, # of connection points: 2
#     Edge 25, Type (0, 0), BuildingBlock: ZUJKAS_clean_linker_0, # of connection points: 2
#     Edge 26, Type (0, 0), BuildingBlock: ZUJKAS_clean_linker_0, # of connection points: 2
#     Edge 27, Type (0, 0), BuildingBlock: ZUJKAS_clean_linker_0, # of connection points: 2
#     Edge 28, Type (0, 0), BuildingBlock: ZUJKAS_clean_linker_0, # of connection points: 2
#     Edge 29, Type (0, 0), BuildingBlock: ZUJKAS_clean_linker_0, # of connection points: 2
#     Edge 30, Type (0, 0), BuildingBlock: ZUJKAS_clean_linker_0, # of connection points: 2
#     Edge 31, Type (0, 0), BuildingBlock: ZUJKAS_clean_linker_0, # of connection points: 2
#     Edge 32, Type (0, 0), BuildingBlock: ZUJKAS_clean_linker_0, # of connection points: 2
#     Edge 33, Type (0, 0), BuildingBlock: ZUJKAS_clean_linker_0, # of connection points: 2
#     Edge 34, Type (0, 0), BuildingBlock: ZUJKAS_clean_linker_0, # of connection points: 2
#     Edge 35, Type (0, 0), BuildingBlock: ZUJKAS_clean_linker_0, # of connection points: 2
#     Edge 36, Type (0, 0), BuildingBlock: ZUJKAS_clean_linker_0, # of connection points: 2
#     Edge 37, Type (0, 0), BuildingBlock: ZUJKAS_clean_linker_0, # of connection points: 2
#     Edge 38, Type (0, 0), BuildingBlock: ZUJKAS_clean_linker_0, # of connection points: 2
#     Edge 39, Type (0, 0), BuildingBlock: ZUJKAS_clean_linker_0, # of connection points: 2
#     Edge 40, Type (0, 0), BuildingBlock: ZUJKAS_clean_linker_0, # of connection points: 2
#     Edge 41, Type (0, 0), BuildingBlock: ZUJKAS_clean_linker_0, # of connection points: 2
#     Edge 42, Type (0, 0), BuildingBlock: ZUJKAS_clean_linker_0, # of connection points: 2
#     Edge 43, Type (0, 0), BuildingBlock: ZUJKAS_clean_linker_0, # of connection points: 2
#     Edge 44, Type (0, 0), BuildingBlock: ZUJKAS_clean_linker_0, # of connection points: 2
#     Edge 45, Type (0, 0), BuildingBlock: ZUJKAS_clean_linker_0, # of connection points: 2
#     Edge 46, Type (0, 0), BuildingBlock: ZUJKAS_clean_linker_0, # of connection points: 2
#     Edge 47, Type (0, 0), BuildingBlock: ZUJKAS_clean_linker_0, # of connection points: 2
# Relax obj value: 0.613
# Max RMSD: 0.191
# Mean RMSD: 0.191
data_MOF--net-wkj--node1-PAMTOO_clean_sbu_0--edge1-ZUJKAS_clean_linker_0
_symmetry_space_group_name_H-M    P1
_symmetry_Int_Tables_number       1
_symmetry_cell_setting            triclinic
loop_
_symmetry_equiv_pos_as_xyz
'x, y, z'
_cell_length_a     62.767141
_cell_length_b     62.92762
_cell_length_c     38.28987
_cell_angle_alpha  90.101986
_cell_angle_beta   90.254833
_cell_angle_gamma 120.0796
loop_
_atom_site_label
_atom_site_type_symbol
_atom_site_fract_x
_atom_site_fract_y
_atom_site_fract_z
_atom_type_partial_charge
Dy0 Dy 0.52635 0.09814 0.31524 0.0
Dy1 Dy 0.47298 0.09013 0.33486 0.0
C2 C 0.51335 0.14309 0.3056 0.0
O3 O 0.52889 0.1001 0.37492 0.0
O4 O 0.4912 0.09485 0.39007 0.0
O5 O 0.56243 0.10584 0.33292 0.0
O6 O 0.55376 0.10218 0.27793 0.0
O7 O 0.47584 0.06064 0.35888 0.0
O8 O 0.50055 0.05668 0.31995 0.0
O9 O 0.46829 0.07416 0.27805 0.0
O10 O 0.50579 0.07767 0.26669 0.0
O11 O 0.43383 0.06736 0.32726 0.0
O12 O 0.44827 0.09994 0.35984 0.0
C13 C 0.51328 0.09823 0.39946 0.0
O14 O 0.52886 0.13485 0.301 0.0
O15 O 0.49172 0.12917 0.31936 0.0
C16 C 0.59221 0.13445 0.29397 0.0
C17 C 0.61989 0.1815 0.26427 0.0
C18 C 0.60869 0.17859 0.29703 0.0
C19 C 0.59472 0.15522 0.31156 0.0
C20 C 0.60601 0.13768 0.26383 0.0
C21 C 0.61965 0.16094 0.24902 0.0
C22 C 0.57118 0.10992 0.30131 0.0
C23 C 0.48104 0.04673 0.34023 0.0
C24 C 0.48291 0.07013 0.25705 0.0
C25 C 0.41046 0.06573 0.3756 0.0
C26 C 0.37481 0.03689 0.4253 0.0
C27 C 0.39813 0.03879 0.42573 0.0
C28 C 0.41582 0.05312 0.4011 0.0
C29 C 0.38733 0.06401 0.37504 0.0
C30 C 0.36962 0.04973 0.3998 0.0
C31 C 0.42864 0.08009 0.34895 0.0
H32 H 0.609 0.19402 0.31009 0.0
H33 H 0.58422 0.15325 0.33492 0.0
H34 H 0.60422 0.12191 0.24975 0.0
H35 H 0.62779 0.1621 0.22373 0.0
H36 H 0.40282 0.02948 0.44546 0.0
H37 H 0.43367 0.05434 0.40189 0.0
H38 H 0.38294 0.07359 0.35535 0.0
H39 H 0.35179 0.0485 0.39875 0.0
Dy40 Dy 0.428 0.51894 0.65041 0.0
Dy41 Dy 0.3886 0.46323 0.67006 0.0
C42 C 0.36934 0.49822 0.63747 0.0
O43 O 0.42761 0.52253 0.70921 0.0
O44 O 0.39691 0.48388 0.72409 0.0
O45 O 0.44662 0.55747 0.66339 0.0
O46 O 0.45555 0.54569 0.61559 0.0
O47 O 0.42024 0.46825 0.70098 0.0
O48 O 0.45011 0.50247 0.67288 0.0
O49 O 0.40669 0.4597 0.6192 0.0
O50 O 0.42435 0.49895 0.59877 0.0
O51 O 0.37525 0.42444 0.66554 0.0
O52 O 0.35321 0.4373 0.69173 0.0
C53 C 0.4138 0.50687 0.73341 0.0
O54 O 0.39126 0.51744 0.64327 0.0
O55 O 0.36575 0.47599 0.64151 0.0
C56 C 0.45438 0.58252 0.61489 0.0
C57 C 0.44655 0.61688 0.5785 0.0
C58 C 0.42654 0.59419 0.58863 0.0
C59 C 0.43044 0.57719 0.60651 0.0
C60 C 0.47445 0.60532 0.60571 0.0
C61 C 0.47058 0.62239 0.58746 0.0
C62 C 0.45807 0.56434 0.63378 0.0
C63 C 0.44328 0.4844 0.69568 0.0
C64 C 0.41802 0.47572 0.59364 0.0
C65 C 0.3503 0.40057 0.71158 0.0
C66 C 0.34071 0.36537 0.76347 0.0
C67 C 0.36289 0.38802 0.76383 0.0
C68 C 0.36764 0.4055 0.7381 0.0
C69 C 0.32807 0.37817 0.71123 0.0
C70 C 0.32324 0.36068 0.73707 0.0
C71 C 0.35549 0.41837 0.6837 0.0
H72 H 0.40785 0.58908 0.5814 0.0
H73 H 0.41474 0.55969 0.61336 0.0
H74 H 0.49305 0.60978 0.61225 0.0
H75 H 0.48634 0.6397 0.57988 0.0
H76 H 0.3765 0.39233 0.78421 0.0
H77 H 0.38486 0.42281 0.73879 0.0
H78 H 0.31453 0.37413 0.69081 0.0
H79 H 0.30606 0.34337 0.73608 0.0
Dy80 Dy 0.90541 0.42425 0.988 0.0
Dy81 Dy 0.92399 0.38665 1.00789 0.0
C82 C 0.86821 0.36495 0.97704 0.0
O83 O 0.89938 0.42097 1.04726 0.0
O84 O 0.9135 0.39497 1.06283 0.0
O85 O 0.88377 0.44066 1.0031 0.0
O86 O 0.90405 0.45154 0.95497 0.0
O87 O 0.94951 0.41909 1.0392 0.0
O88 O 0.94408 0.44767 1.00929 0.0
O89 O 0.9411 0.40125 0.95295 0.0
O90 O 0.92544 0.42581 0.93729 0.0
O91 O 0.95237 0.37685 1.00654 0.0
O92 O 0.91559 0.35041 1.02383 0.0
C93 C 0.90425 0.40927 1.07196 0.0
O94 O 0.87277 0.3875 0.97152 0.0
O95 O 0.88483 0.36102 0.99165 0.0
C96 C 0.86417 0.44599 0.95452 0.0
C97 C 0.8235 0.43235 0.90977 0.0
C98 C 0.82453 0.41489 0.93152 0.0
C99 C 0.84458 0.42167 0.95368 0.0
C100 C 0.86261 0.46384 0.93468 0.0
C101 C 0.84233 0.45711 0.91264 0.0
C102 C 0.88691 0.45193 0.97351 0.0
C103 C 0.95585 0.44185 1.03266 0.0
C104 C 0.93915 0.41592 0.92962 0.0
C105 C 0.94832 0.34695 1.04717 0.0
C106 C 0.96683 0.33024 0.10082 0.0
C107 C 0.96863 0.35341 0.10328 0.0
C108 C 0.95936 0.36169 1.07666 0.0
C109 C 0.9465 0.32389 1.04454 0.0
C110 C 0.95564 0.31553 1.07123 0.0
C111 C 0.93806 0.35499 1.01923 0.0
H112 H 0.81073 0.39561 0.92982 0.0
H113 H 0.84525 0.40757 0.96899 0.0
H114 H 0.8775 0.48274 0.93517 0.0
H115 H 0.84195 0.47112 0.89669 0.0
H116 H 0.97679 0.36495 0.12609 0.0
H117 H 0.96065 0.37946 1.07918 0.0
H118 H 0.93792 0.3123 1.02189 0.0
H119 H 0.95413 0.29768 1.06861 0.0
Dy120 Dy 0.49244 0.9074 0.32352 0.0
Dy121 Dy 0.54825 0.9222 0.34003 0.0
C122 C 0.5117 0.86968 0.30644 0.0
O123 O 0.4905 0.90488 0.38254 0.0
O124 O 0.52854 0.90968 0.39445 0.0
O125 O 0.45415 0.88961 0.33828 0.0
O126 O 0.46502 0.9059 0.28743 0.0
O127 O 0.54573 0.95089 0.36942 0.0
O128 O 0.50984 0.94605 0.3453 0.0
O129 O 0.55244 0.94326 0.28869 0.0
O130 O 0.51193 0.92572 0.2723 0.0
O131 O 0.58766 0.94609 0.34041 0.0
O132 O 0.57159 0.90802 0.35644 0.0
C133 C 0.50648 0.90541 0.40547 0.0
O134 O 0.49342 0.87186 0.31884 0.0
O135 O 0.53362 0.88911 0.30511 0.0
C136 C 0.42781 0.86857 0.29146 0.0
C137 C 0.39445 0.82595 0.25421 0.0
C138 C 0.41593 0.82801 0.26912 0.0
C139 C 0.43238 0.84907 0.28753 0.0
C140 C 0.40583 0.86619 0.27843 0.0
C141 C 0.38919 0.84497 0.26003 0.0
C142 C 0.44666 0.89168 0.30747 0.0
C143 C 0.52947 0.95788 0.36568 0.0
C144 C 0.53555 0.94042 0.26513 0.0
C145 C 0.6083 0.93679 0.38383 0.0
C146 C 0.63958 0.94965 0.44242 0.0
C147 C 0.61869 0.95245 0.44296 0.0
C148 C 0.60312 0.94598 0.41395 0.0
C149 C 0.62913 0.93409 0.38294 0.0
C150 C 0.64472 0.9405 0.41203 0.0
C151 C 0.5917 0.9293 0.35366 0.0
H152 H 0.42095 0.81408 0.26472 0.0
H153 H 0.44917 0.85049 0.29752 0.0
H154 H 0.40193 0.88102 0.28149 0.0
H155 H 0.37271 0.84389 0.24919 0.0
H156 H 0.61446 0.9599 0.46571 0.0
H157 H 0.58703 0.94811 0.41502 0.0
H158 H 0.63323 0.92686 0.35983 0.0
H159 H 0.66055 0.93798 0.41091 0.0
Dy160 Dy 0.57863 0.48304 0.64493 0.0
Dy161 Dy 0.62168 0.53642 0.66752 0.0
C162 C 0.63731 0.49906 0.63614 0.0
O163 O 0.573 0.483 0.70407 0.0
O164 O 0.61072 0.51467 0.72019 0.0
O165 O 0.55557 0.44533 0.661 0.0
O166 O 0.55191 0.45614 0.60902 0.0
O167 O 0.58734 0.53228 0.68728 0.0
O168 O 0.56181 0.50784 0.64468 0.0
O169 O 0.60874 0.54183 0.6125 0.0
O170 O 0.58665 0.50221 0.59237 0.0
O171 O 0.63836 0.57553 0.66107 0.0
O172 O 0.65375 0.561 0.6983 0.0
C173 C 0.58916 0.49527 0.72916 0.0
O174 O 0.61419 0.48127 0.63966 0.0
O175 O 0.64341 0.5219 0.64179 0.0
C176 C 0.55098 0.41868 0.6149 0.0
C177 C 0.56373 0.38923 0.57452 0.0
C178 C 0.58048 0.40618 0.59893 0.0
C179 C 0.5741 0.4206 0.619 0.0
C180 C 0.53342 0.40042 0.59298 0.0
C181 C 0.53962 0.38555 0.57326 0.0
C182 C 0.54676 0.43783 0.62972 0.0
C183 C 0.5693 0.52683 0.66577 0.0
C184 C 0.59631 0.526 0.58671 0.0
C185 C 0.65406 0.59749 0.71292 0.0
C186 C 0.65314 0.63085 0.76104 0.0
C187 C 0.63259 0.60716 0.75698 0.0
C188 C 0.63309 0.5906 0.73324 0.0
C189 C 0.67459 0.62103 0.7167 0.0
C190 C 0.67418 0.63762 0.74065 0.0
C191 C 0.65398 0.58057 0.68657 0.0
H192 H 0.59924 0.40988 0.60075 0.0
H193 H 0.58786 0.43433 0.63616 0.0
H194 H 0.51538 0.39851 0.58972 0.0
H195 H 0.52596 0.37221 0.55554 0.0
H196 H 0.61598 0.60149 0.77188 0.0
H197 H 0.617 0.57251 0.73043 0.0
H198 H 0.69087 0.62661 0.70103 0.0
H199 H 0.6904 0.6556 0.74347 0.0
Dy200 Dy 0.1058 0.57718 0.97786 0.0
Dy201 Dy 0.09498 0.61915 1.00316 0.0
C202 C 0.14785 0.63597 0.9688 0.0
O203 O 0.10013 0.57009 1.03697 0.0
O204 O 0.10531 0.60694 1.05522 0.0
O205 O 0.12632 0.5588 0.98866 0.0
O206 O 0.10069 0.54674 0.94546 0.0
O207 O 0.06419 0.58411 1.02051 0.0
O208 O 0.06419 0.56046 0.97622 0.0
O209 O 0.07608 0.60681 0.94818 0.0
O210 O 0.09513 0.58688 0.92576 0.0
O211 O 0.07402 0.63749 0.9964 0.0
O212 O 0.1017 0.64947 1.03706 0.0
C213 C 0.10344 0.58538 1.06301 0.0
O214 O 0.14276 0.61286 0.9701 0.0
O215 O 0.13132 0.64176 0.97777 0.0
C216 C 0.13879 0.54809 0.93671 0.0
C217 C 0.17881 0.56147 0.89129 0.0
C218 C 0.15479 0.55215 0.878 0.0
C219 C 0.13501 0.54545 0.90043 0.0
C220 C 0.16245 0.55558 0.95013 0.0
C221 C 0.1823 0.56232 0.92763 0.0
C222 C 0.119 0.54579 0.96006 0.0
C223 C 0.05209 0.5669 0.9976 0.0
C224 C 0.07993 0.59552 0.92138 0.0
C225 C 0.06524 0.65104 1.04888 0.0
C226 C 0.02984 0.65006 0.09494 0.0
C227 C 0.05032 0.64909 0.1079 0.0
C228 C 0.06784 0.64952 1.08511 0.0
C229 C 0.04487 0.65222 1.03596 0.0
C230 C 0.02727 0.65162 1.05875 0.0
C231 C 0.08325 0.65104 1.0242 0.0
H232 H 0.15139 0.55147 0.85015 0.0
H233 H 0.117 0.53948 0.88919 0.0
H234 H 0.16589 0.55741 0.97803 0.0
H235 H 0.2005 0.56905 0.93867 0.0
H236 H 0.05256 0.64749 0.13567 0.0
H237 H 0.08325 0.64846 0.09592 0.0
H238 H 0.04248 0.65346 1.00814 0.0
H239 H 0.01174 0.65253 1.04808 0.0
Dy240 Dy 0.90213 0.48015 0.52664 0.0
Dy241 Dy 0.91247 0.53391 0.50989 0.0
C242 C 0.85918 0.49419 0.5343 0.0
O243 O 0.89388 0.47624 0.46824 0.0
O244 O 0.9085 0.51653 0.45419 0.0
O245 O 0.88256 0.44176 0.51294 0.0
O246 O 0.90667 0.45391 0.55794 0.0
O247 O 0.9487 0.53736 0.51716 0.0
O248 O 0.93728 0.49998 0.49509 0.0
O249 O 0.92353 0.53589 0.56883 0.0
O250 O 0.92717 0.50149 0.57238 0.0
O251 O 0.93457 0.56949 0.48689 0.0
O252 O 0.90211 0.56177 0.51632 0.0
C253 C 0.90011 0.49328 0.4441 0.0
O254 O 0.86958 0.4826 0.5487 0.0
O255 O 0.8715 0.51114 0.51117 0.0
C256 C 0.86857 0.41722 0.5627 0.0
C257 C 0.83038 0.38578 0.60785 0.0
C258 C 0.82855 0.40374 0.58844 0.0
C259 C 0.84742 0.41927 0.5662 0.0
C260 C 0.87018 0.39877 0.58088 0.0
C261 C 0.8512 0.38312 0.60333 0.0
C262 C 0.88912 0.43515 0.54131 0.0
C263 C 0.95392 0.52339 0.49866 0.0
C264 C 0.93124 0.52248 0.58622 0.0
C265 C 0.91184 0.58669 0.46619 0.0
C266 C 0.90782 0.60632 0.40224 0.0
C267 C 0.89619 0.58073 0.40685 0.0
C268 C 0.89819 0.57101 0.4386 0.0
C269 C 0.92164 0.61205 0.46283 0.0
C270 C 0.9195 0.62182 0.43111 0.0
C271 C 0.91944 0.57707 0.49551 0.0
H272 H 0.81315 0.40677 0.5918 0.0
H273 H 0.84574 0.43339 0.55247 0.0
H274 H 0.88635 0.39689 0.57843 0.0
H275 H 0.85311 0.36942 0.61787 0.0
H276 H 0.8873 0.56824 0.38517 0.0
H277 H 0.89064 0.55135 0.44077 0.0
H278 H 0.93226 0.62439 0.48393 0.0
H279 H 0.92833 0.64158 0.42854 0.0
Dy280 Dy 0.42932 0.90248 0.85646 0.0
Dy281 Dy 0.38775 0.91554 0.83676 0.0
C282 C 0.37103 0.86169 0.86389 0.0
O283 O 0.42688 0.89581 0.79779 0.0
O284 O 0.40158 0.91075 0.78209 0.0
O285 O 0.44216 0.87674 0.8506 0.0
O286 O 0.46262 0.90904 0.88311 0.0
O287 O 0.42198 0.95076 0.84482 0.0
O288 O 0.44695 0.93749 0.82476 0.0
O289 O 0.39507 0.92537 0.89597 0.0
O290 O 0.43169 0.92603 0.90312 0.0
O291 O 0.37717 0.93996 0.81357 0.0
O292 O 0.34981 0.90726 0.83992 0.0
C293 C 0.41661 0.90237 0.77306 0.0
O294 O 0.39327 0.87091 0.87753 0.0
O295 O 0.36677 0.87457 0.84104 0.0
C296 C 0.45578 0.87058 0.90425 0.0
C297 C 0.43478 0.83343 0.95496 0.0
C298 C 0.44102 0.82834 0.92208 0.0
C299 C 0.45149 0.84683 0.8969 0.0
C300 C 0.45175 0.87614 0.93826 0.0
C301 C 0.44146 0.85776 0.96337 0.0
C302 C 0.45874 0.88715 0.87512 0.0
C303 C 0.44138 0.95501 0.8274 0.0
C304 C 0.41511 0.93122 0.91521 0.0
C305 C 0.33711 0.92113 0.79101 0.0
C306 C 0.30983 0.92084 0.73224 0.0
C307 C 0.32959 0.91639 0.72859 0.0
C308 C 0.34301 0.91641 0.75772 0.0
C309 C 0.31649 0.92392 0.79521 0.0
C310 C 0.30283 0.92364 0.76606 0.0
C311 C 0.35391 0.92593 0.82054 0.0
H312 H 0.43623 0.80979 0.91501 0.0
H313 H 0.45439 0.84209 0.87082 0.0
H314 H 0.45487 0.89422 0.9449 0.0
H315 H 0.43749 0.86233 0.98891 0.0
H316 H 0.33586 0.91453 0.70308 0.0
H317 H 0.35887 0.91416 0.75399 0.0
H318 H 0.31162 0.92744 0.82083 0.0
H319 H 0.28748 0.92667 0.76991 0.0
Dy320 Dy 0.53019 0.42337 0.18754 0.0
Dy321 Dy 0.47492 0.38051 0.17011 0.0
C322 C 0.51403 0.36515 0.19458 0.0
O323 O 0.53217 0.4224 0.12815 0.0
O324 O 0.49253 0.39298 0.11438 0.0
O325 O 0.56868 0.43972 0.17558 0.0
O326 O 0.55722 0.45496 0.21728 0.0
O327 O 0.47363 0.41425 0.17956 0.0
O328 O 0.51092 0.43983 0.15735 0.0
O329 O 0.47349 0.38913 0.22924 0.0
O330 O 0.51 0.42544 0.23574 0.0
O331 O 0.43946 0.36933 0.14752 0.0
O332 O 0.44525 0.34282 0.17567 0.0
C333 C 0.51514 0.40998 0.10415 0.0
O334 O 0.52805 0.38783 0.2061 0.0
O335 O 0.49499 0.35974 0.17467 0.0
C336 C 0.59268 0.45164 0.22658 0.0
C337 C 0.62198 0.44489 0.27642 0.0
C338 C 0.60531 0.42527 0.25517 0.0
C339 C 0.59084 0.4286 0.23063 0.0
C340 C 0.60992 0.47156 0.24669 0.0
C341 C 0.6245 0.46823 0.27144 0.0
C342 C 0.57562 0.45421 0.20275 0.0
C343 C 0.48764 0.4334 0.1611 0.0
C344 C 0.48827 0.40907 0.24835 0.0
C345 C 0.41749 0.3287 0.12775 0.0
C346 C 0.38879 0.30019 1.0708 0.0
C347 C 0.4132 0.31932 1.06585 0.0
C348 C 0.42744 0.33335 0.09408 0.0
C349 C 0.39391 0.30863 0.13333 0.0
C350 C 0.37969 0.29436 0.10509 0.0
C351 C 0.43028 0.34637 0.15607 0.0
H352 H 0.60239 0.40693 0.25872 0.0
H353 H 0.57764 0.41287 0.21554 0.0
H354 H 0.61163 0.48948 0.24391 0.0
H355 H 0.63723 0.48373 0.28735 0.0
H356 H 0.42084 0.32469 1.03993 0.0
H357 H 0.44567 0.34878 0.0893 0.0
H358 H 0.38603 0.30474 0.15926 0.0
H359 H 0.36117 0.27952 0.10995 0.0
Dy360 Dy 0.10665 0.52053 0.52034 0.0
Dy361 Dy 0.09149 0.46511 0.50586 0.0
C362 C 0.1444 0.50132 0.5383 0.0
O363 O 0.10748 0.52175 0.46105 0.0
O364 O 0.10329 0.48403 0.45018 0.0
O365 O 0.12789 0.55883 0.50679 0.0
O366 O 0.10524 0.54808 0.55283 0.0
O367 O 0.06217 0.46611 0.47658 0.0
O368 O 0.06829 0.50331 0.49678 0.0
O369 O 0.06964 0.46186 0.55642 0.0
O370 O 0.08975 0.5022 0.57303 0.0
O371 O 0.06772 0.42575 0.50775 0.0
O372 O 0.10558 0.44159 0.49048 0.0
C373 C 0.10689 0.50571 0.43827 0.0
O374 O 0.14238 0.51955 0.52535 0.0
O375 O 0.12462 0.47979 0.54081 0.0
C376 C 0.14392 0.58415 0.55604 0.0
C377 C 0.18305 0.61551 0.60062 0.0
C378 C 0.18382 0.5966 0.58212 0.0
C379 C 0.16443 0.58105 0.56016 0.0
C380 C 0.14351 0.60365 0.57308 0.0
C381 C 0.16296 0.61926 0.59522 0.0
C382 C 0.12259 0.56625 0.53545 0.0
C383 C 0.05588 0.48289 0.47815 0.0
C384 C 0.07366 0.47893 0.58028 0.0
C385 C 0.07644 0.40382 0.46598 0.0
C386 C 0.062 0.36985 0.41074 0.0
C387 C 0.06666 0.39388 0.40479 0.0
C388 C 0.0738 0.41073 0.43222 0.0
C389 C 0.07171 0.37991 0.47218 0.0
C390 C 0.06445 0.36296 0.44475 0.0
C391 C 0.08444 0.42151 0.49476 0.0
H392 H 0.1987 0.59283 0.58615 0.0
H393 H 0.16512 0.56608 0.5473 0.0
H394 H 0.12786 0.60635 0.57009 0.0
H395 H 0.1619 0.63374 0.60904 0.0
H396 H 0.06443 0.39955 0.37899 0.0
H397 H 0.07727 0.42913 0.42711 0.0
H398 H 0.07371 0.37438 0.49822 0.0
H399 H 0.061 0.3446 0.45002 0.0
Dy400 Dy 0.58566 0.09794 0.85587 0.0
Dy401 Dy 0.62886 0.08837 0.8393 0.0
C402 C 0.64235 0.14008 0.86767 0.0
O403 O 0.58936 0.1053 0.7971 0.0
O404 O 0.6152 0.09081 0.78295 0.0
O405 O 0.57399 0.12474 0.85134 0.0
O406 O 0.55149 0.09091 0.87952 0.0
O407 O 0.59815 0.05307 0.82173 0.0
O408 O 0.56734 0.06274 0.82377 0.0
O409 O 0.62005 0.07898 0.89871 0.0
O410 O 0.58092 0.07227 0.90032 0.0
O411 O 0.64693 0.06705 0.84552 0.0
O412 O 0.66634 0.10296 0.82207 0.0
C413 C 0.60003 0.09888 0.77281 0.0
O414 O 0.62065 0.1283 0.88273 0.0
O415 O 0.64653 0.12908 0.84211 0.0
C416 C 0.55712 0.12812 0.9037 0.0
C417 C 0.57042 0.16271 0.95825 0.0
C418 C 0.5624 0.16675 0.92591 0.0
C419 C 0.55585 0.14958 0.89879 0.0
C420 C 0.56376 0.12346 0.93664 0.0
C421 C 0.57017 0.14049 0.96365 0.0
C422 C 0.55597 0.1132 0.8733 0.0
C423 C 0.57578 0.04801 0.81465 0.0
C424 C 0.59853 0.06988 0.91528 0.0
C425 C 0.67491 0.07324 0.80085 0.0
C426 C 0.69156 0.05705 0.74431 0.0
C427 C 0.66723 0.05259 0.74494 0.0
C428 C 0.65901 0.0607 0.77292 0.0
C429 C 0.699 0.07734 0.80081 0.0
C430 C 0.70729 0.06924 0.77273 0.0
C431 C 0.66671 0.08295 0.82925 0.0
H432 H 0.56238 0.18369 0.92101 0.0
H433 H 0.55108 0.15367 0.87343 0.0
H434 H 0.56517 0.10721 0.94114 0.0
H435 H 0.57568 0.13656 0.98856 0.0
H436 H 0.65452 0.04284 0.72375 0.0
H437 H 0.64034 0.05743 0.77261 0.0
H438 H 0.71149 0.08712 0.82222 0.0
H439 H 0.72614 0.07304 0.77285 0.0
Dy440 Dy 0.48526 0.58568 0.18614 0.0
Dy441 Dy 0.54107 0.62422 0.16707 0.0
C442 C 0.5067 0.64394 0.19523 0.0
O443 O 0.48193 0.58916 0.12721 0.0
O444 O 0.52247 0.61335 0.11206 0.0
O445 O 0.44766 0.57677 0.17906 0.0
O446 O 0.45601 0.55394 0.21215 0.0
O447 O 0.5398 0.58854 0.16639 0.0
O448 O 0.49892 0.56522 0.15369 0.0
O449 O 0.54332 0.61425 0.22497 0.0
O450 O 0.50508 0.5804 0.23245 0.0
O451 O 0.57504 0.63496 0.14041 0.0
O452 O 0.57267 0.6603 0.1763 0.0
C453 C 0.49887 0.59939 0.10268 0.0
O454 O 0.49343 0.62223 0.20947 0.0
O455 O 0.52267 0.64685 0.17116 0.0
C456 C 0.42727 0.56535 0.23213 0.0
C457 C 0.41434 0.59043 0.28088 0.0
C458 C 0.40239 0.58354 0.24831 0.0
C459 C 0.40882 0.57105 0.22409 0.0
C460 C 0.4375 0.57027 0.26588 0.0
C461 C 0.431 0.58257 0.29003 0.0
C462 C 0.4397 0.56021 0.20353 0.0
C463 C 0.52153 0.56909 0.15221 0.0
C464 C 0.52776 0.59499 0.24411 0.0
C465 C 0.59774 0.67656 0.12663 0.0
C466 C 0.62131 0.7065 1.06874 0.0
C467 C 0.59543 0.69313 1.07057 0.0
C468 C 0.58374 0.67827 0.09932 0.0
C469 C 0.62341 0.6913 0.12632 0.0
C470 C 0.63514 0.70629 0.09764 0.0
C471 C 0.58594 0.65726 0.15288 0.0
H472 H 0.38933 0.58919 0.24072 0.0
H473 H 0.4008 0.5676 0.19812 0.0
H474 H 0.45181 0.56621 0.27296 0.0
H475 H 0.43994 0.58698 0.3154 0.0
H476 H 0.58418 0.69258 1.04867 0.0
H477 H 0.56385 0.66693 0.09922 0.0
H478 H 0.63444 0.69022 0.14734 0.0
H479 H 0.65507 0.71662 0.09719 0.0
H480 H 0.55103 0.17772 0.26285 0.0
H481 H 0.55734 0.21801 0.24393 0.0
H482 H 0.49465 0.20618 0.30434 0.0
H483 H 0.48848 0.16679 0.32341 0.0
H484 H 0.52818 0.23105 0.20656 0.0
H485 H 0.54364 0.27432 0.33647 0.0
H486 H 0.54431 0.2463 0.3294 0.0
H487 H 0.51543 0.24545 0.33544 0.0
C488 C 0.53882 0.18387 0.2725 0.0
C489 C 0.51928 0.16868 0.29495 0.0
C490 C 0.54238 0.20697 0.26151 0.0
C491 C 0.52678 0.21573 0.27308 0.0
C492 C 0.50745 0.20055 0.29552 0.0
H493 H 0.48695 0.31626 0.17699 0.0
H494 H 0.49262 0.28232 0.19488 0.0
C495 C 0.50383 0.17765 0.30628 0.0
C496 C 0.52964 0.24002 0.26107 0.0
H497 H 0.53092 0.29217 0.29114 0.0
C498 C 0.52907 0.24449 0.22515 0.0
C499 C 0.53131 0.25819 0.28488 0.0
C500 C 0.53398 0.25597 0.32366 0.0
C501 C 0.52888 0.26563 0.21268 0.0
C502 C 0.52873 0.2829 0.23661 0.0
C503 C 0.53058 0.27903 0.27246 0.0
C504 C 0.52577 0.30442 0.22517 0.0
C505 C 0.52905 0.26923 0.17373 0.0
C506 C 0.54192 0.32866 0.23686 0.0
C507 C 0.53853 0.34844 0.22683 0.0
C508 C 0.51876 0.34462 0.20491 0.0
C509 C 0.5026 0.32032 0.19351 0.0
C510 C 0.50595 0.30067 0.20358 0.0
H511 H 0.53787 0.2601 0.15993 0.0
H512 H 0.50981 0.26082 0.16407 0.0
H513 H 0.53897 0.28901 0.16682 0.0
H514 H 0.55729 0.33236 0.25378 0.0
H515 H 0.55133 0.3667 0.23648 0.0
H516 H 0.36769 0.54084 0.62279 0.0
H517 H 0.33162 0.54454 0.60684 0.0
H518 H 0.28551 0.46592 0.61148 0.0
H519 H 0.3211 0.46208 0.62741 0.0
H520 H 0.29758 0.52572 0.55066 0.0
H521 H 0.2482 0.48788 0.67461 0.0
H522 H 0.28035 0.49751 0.66947 0.0
H523 H 0.25696 0.46795 0.65351 0.0
C524 C 0.34989 0.5243 0.62045 0.0
C525 C 0.34763 0.50114 0.62673 0.0
C526 C 0.32915 0.52645 0.61124 0.0
C527 C 0.3054 0.50557 0.60844 0.0
C528 C 0.30327 0.48248 0.61412 0.0
H529 H 0.15377 0.46554 0.56156 0.0
H530 H 0.19285 0.46869 0.57771 0.0
C531 C 0.3239 0.4803 0.6231 0.0
C532 C 0.28285 0.50759 0.59953 0.0
H533 H 0.22478 0.49112 0.62806 0.0
C534 C 0.28177 0.51836 0.5678 0.0
C535 C 0.26194 0.49809 0.62159 0.0
C536 C 0.26192 0.48742 0.65685 0.0
C537 C 0.26034 0.51891 0.55704 0.0
C538 C 0.23922 0.50895 0.57885 0.0
C539 C 0.24061 0.49872 0.61094 0.0
C540 C 0.21516 0.50772 0.56847 0.0
C541 C 0.26027 0.52926 0.52158 0.0
C542 C 0.21389 0.52861 0.55802 0.0
C543 C 0.1912 0.52684 0.54844 0.0
C544 C 0.16893 0.50414 0.54935 0.0
C545 C 0.17028 0.48344 0.56039 0.0
C546 C 0.19284 0.48519 0.56976 0.0
H547 H 0.27476 0.52981 0.50441 0.0
H548 H 0.24215 0.51826 0.50836 0.0
H549 H 0.26395 0.54834 0.52472 0.0
H550 H 0.23045 0.54645 0.55755 0.0
H551 H 0.19112 0.54327 0.54036 0.0
H552 H 0.85004 0.31649 0.99435 0.0
H553 H 0.81113 0.28045 0.97781 0.0
H554 H 0.791 0.32615 0.91913 0.0
H555 H 0.82992 0.36273 0.93674 0.0
H556 H 0.75089 0.29114 0.95067 0.0
H557 H 0.79517 0.24422 0.88808 0.0
H558 H 0.80418 0.25101 0.933 0.0
H559 H 0.81259 0.27572 0.90247 0.0
C560 C 0.83749 0.31908 0.97782 0.0
C561 C 0.84364 0.34288 0.96672 0.0
C562 C 0.81506 0.29818 0.96807 0.0
C563 C 0.79793 0.29999 0.94618 0.0
C564 C 0.8037 0.32382 0.93572 0.0
H565 H 0.6844 0.17124 0.83256 0.0
H566 H 0.71982 0.20965 0.85177 0.0
C567 C 0.82614 0.34489 0.9458 0.0
C568 C 0.77429 0.27711 0.93443 0.0
H569 H 0.75219 0.21976 0.8983 0.0
C570 C 0.75128 0.27561 0.93907 0.0
C571 C 0.77424 0.2566 0.91864 0.0
C572 C 0.79787 0.25702 0.90989 0.0
C573 C 0.72869 0.25449 0.92912 0.0
C574 C 0.72863 0.2336 0.91463 0.0
C575 C 0.75169 0.2353 0.90966 0.0
C576 C 0.70536 0.21033 0.9027 0.0
C577 C 0.70518 0.25518 0.93336 0.0
C578 C 0.68452 0.19722 0.92433 0.0
C579 C 0.66366 0.17499 0.91295 0.0
C580 C 0.66311 0.16487 0.8798 0.0
C581 C 0.68386 0.17814 0.85828 0.0
C582 C 0.70441 0.20032 0.8694 0.0
H583 H 0.70876 0.27435 0.93449 0.0
H584 H 0.69212 0.24544 0.91157 0.0
H585 H 0.6963 0.24609 0.95822 0.0
H586 H 0.68455 0.20377 0.95048 0.0
H587 H 0.6483 0.16535 0.93056 0.0
H588 H 0.53742 0.69284 0.1806 0.0
H589 H 0.535 0.72843 0.20057 0.0
H590 H 0.46808 0.68059 0.25573 0.0
H591 H 0.47109 0.64489 0.23699 0.0
H592 H 0.50552 0.74453 0.1898 0.0
H593 H 0.50054 0.72775 0.33227 0.0
H594 H 0.50687 0.7098 0.30177 0.0
H595 H 0.47573 0.70314 0.30863 0.0
C596 C 0.5222 0.68977 0.19715 0.0
C597 C 0.50455 0.66572 0.20717 0.0
C598 C 0.52079 0.71033 0.20864 0.0
C599 C 0.50162 0.70776 0.23049 0.0
C600 C 0.48362 0.68363 0.23998 0.0
H601 H 0.47064 0.82285 0.31212 0.0
H602 H 0.46647 0.78336 0.29379 0.0
C603 C 0.48521 0.66301 0.22885 0.0
C604 C 0.50042 0.7303 0.24211 0.0
H605 H 0.49538 0.76079 0.31355 0.0
C606 C 0.50337 0.74794 0.21697 0.0
C607 C 0.49737 0.73521 0.27753 0.0
C608 C 0.49518 0.71811 0.30665 0.0
C609 C 0.50357 0.76988 0.22595 0.0
C610 C 0.50097 0.77495 0.26131 0.0
C611 C 0.49738 0.75714 0.28643 0.0
C612 C 0.5032 0.79909 0.27266 0.0
C613 C 0.50637 0.78747 0.19724 0.0
C614 C 0.52523 0.82139 0.26737 0.0
C615 C 0.5277 0.84397 0.27799 0.0
C616 C 0.50821 0.84521 0.29429 0.0
C617 C 0.48607 0.82285 0.29957 0.0
C618 C 0.48369 0.80014 0.28916 0.0
H619 H 0.50138 0.77825 0.1713 0.0
H620 H 0.49471 0.79581 0.20219 0.0
H621 H 0.52585 0.80246 0.1962 0.0
H622 H 0.54078 0.82136 0.25529 0.0
H623 H 0.54511 0.86055 0.27348 0.0
H624 H 0.68687 0.53181 0.63504 0.0
H625 H 0.72071 0.52554 0.6188 0.0
H626 H 0.66953 0.44906 0.59852 0.0
H627 H 0.63505 0.4553 0.61472 0.0
H628 H 0.73791 0.49755 0.64651 0.0
H629 H 0.70979 0.4684 0.50913 0.0
H630 H 0.69537 0.48136 0.53557 0.0
H631 H 0.68739 0.44989 0.54129 0.0
C632 C 0.68251 0.51354 0.62707 0.0
C633 C 0.65781 0.4941 0.62621 0.0
C634 C 0.70215 0.50998 0.61779 0.0
C635 C 0.69809 0.48689 0.6069 0.0
C636 C 0.67346 0.46724 0.60617 0.0
H637 H 0.8284 0.46499 0.58784 0.0
H638 H 0.78877 0.46049 0.60615 0.0
C639 C 0.65363 0.47079 0.61571 0.0
C640 C 0.71987 0.48392 0.5969 0.0
H641 H 0.74617 0.46982 0.52874 0.0
C642 C 0.73952 0.49124 0.62082 0.0
C643 C 0.7225 0.47596 0.56326 0.0
C644 C 0.70279 0.46863 0.53564 0.0
C645 C 0.76142 0.49116 0.61212 0.0
C646 C 0.7641 0.48329 0.57847 0.0
C647 C 0.74435 0.47569 0.55464 0.0
C648 C 0.78782 0.48462 0.56665 0.0
C649 C 0.78198 0.50053 0.63875 0.0
C650 C 0.80057 0.49901 0.53764 0.0
C651 C 0.8232 0.50156 0.52712 0.0
C652 C 0.83401 0.48964 0.54495 0.0
C653 C 0.82093 0.47459 0.57343 0.0
C654 C 0.79821 0.47214 0.58411 0.0
H655 H 0.77936 0.51097 0.6601 0.0
H656 H 0.78251 0.48472 0.65057 0.0
H657 H 0.80006 0.51258 0.6263 0.0
H658 H 0.79325 0.50884 0.52343 0.0
H659 H 0.83242 0.51327 0.50502 0.0
H660 H 0.37164 0.82452 0.90305 0.0
H661 H 0.33653 0.78439 0.91952 0.0
H662 H 0.28697 0.80318 0.8683 0.0
H663 H 0.32169 0.84241 0.85072 0.0
H664 H 0.29745 0.76823 0.95842 0.0
H665 H 0.26091 0.73811 0.82535 0.0
H666 H 0.29041 0.76514 0.83313 0.0
H667 H 0.26249 0.7667 0.83501 0.0
C668 C 0.35328 0.82001 0.89496 0.0
C669 C 0.34986 0.8369 0.8749 0.0
C670 C 0.33304 0.79691 0.90452 0.0
C671 C 0.30866 0.78989 0.89445 0.0
C672 C 0.30532 0.80717 0.87541 0.0
H673 H 0.15968 0.68279 0.95115 0.0
H674 H 0.19909 0.7175 0.93379 0.0
C675 C 0.32544 0.82998 0.86552 0.0
C676 C 0.28668 0.76506 0.90431 0.0
H677 H 0.23263 0.71685 0.8721 0.0
C678 C 0.28357 0.75692 0.93927 0.0
C679 C 0.26821 0.74959 0.87973 0.0
C680 C 0.27081 0.7552 0.84119 0.0
C681 C 0.26243 0.73488 0.95028 0.0
C682 C 0.24349 0.72028 0.92602 0.0
C683 C 0.24687 0.72794 0.89099 0.0
C684 C 0.21932 0.69815 0.93688 0.0
C685 C 0.25998 0.72765 0.98816 0.0
C686 C 0.21694 0.67505 0.94423 0.0
C687 C 0.19394 0.65464 0.95399 0.0
C688 C 0.17269 0.65683 0.95706 0.0
C689 C 0.17534 0.68003 0.94944 0.0
C690 C 0.19807 0.70015 0.93939 0.0
H691 H 0.27587 0.74113 1.00418 0.0
H692 H 0.2428 0.72597 0.99892 0.0
H693 H 0.25856 0.7094 0.99046 0.0
H694 H 0.23287 0.67275 0.94233 0.0
H695 H 0.19289 0.63728 0.95954 0.0
H696 H 0.61148 0.17722 0.99784 0.0
H697 H 0.62438 0.20357 1.04926 0.0
H698 H 0.56584 0.21946 1.03172 0.0
H699 H 0.55199 0.19192 0.98071 0.0
H700 H 0.63806 0.25184 1.06759 0.0
H701 H 0.54715 0.18426 0.12457 0.0
H702 H 0.55705 0.17819 1.08357 0.0
H703 H 0.54753 0.20074 0.08613 0.0
C704 C 0.60133 0.18632 1.00485 0.0
C705 C 0.5802 0.18182 0.98599 0.0
C706 C 0.60898 0.20173 1.03394 0.0
C707 C 0.5958 0.21313 1.04474 0.0
C708 C 0.57599 0.21046 1.0242 0.0
H709 H 0.59869 0.21066 0.26385 0.0
H710 H 0.59827 0.23463 0.21472 0.0
C711 C 0.56816 0.19481 0.99503 0.0
C712 C 0.60086 0.22423 1.08012 0.0
H713 H 0.57907 0.20748 0.16259 0.0
C714 C 0.62498 0.24273 0.08846 0.0
C715 C 0.58366 0.21275 0.10731 0.0
C716 C 0.55741 0.19284 0.10022 0.0
C717 C 0.63307 0.24798 0.12332 0.0
C718 C 0.61674 0.23404 0.15031 0.0
C719 C 0.59182 0.21802 0.14203 0.0
C720 C 0.62548 0.23094 0.18508 0.0
C721 C 0.65938 0.2674 0.13066 0.0
C722 C 0.64296 0.22322 0.18662 0.0
C723 C 0.6439 0.21012 0.21541 0.0
C724 C 0.62673 0.20368 0.24254 0.0
C725 C 0.61202 0.21479 0.24338 0.0
C726 C 0.61162 0.22852 0.21502 0.0
H727 H 0.665 0.28335 0.11309 0.0
H728 H 0.66213 0.27388 0.15818 0.0
H729 H 0.67164 0.25984 0.12513 0.0
H730 H 0.6539 0.22465 0.16403 0.0
H731 H 0.65624 0.2028 0.21451 0.0
H732 H 0.37122 0.58845 0.30024 0.0
H733 H 0.36616 0.61189 0.3475 0.0
H734 H 0.44504 0.65233 0.36282 0.0
H735 H 0.45006 0.63031 0.31479 0.0
H736 H 0.3746 0.60518 0.40829 0.0
H737 H 0.43278 0.70389 0.39492 0.0
H738 H 0.42419 0.68396 0.35712 0.0
H739 H 0.45201 0.69199 0.38154 0.0
C740 C 0.38744 0.60303 0.31294 0.0
C741 C 0.41097 0.60705 0.30472 0.0
C742 C 0.38457 0.61648 0.33986 0.0
C743 C 0.40518 0.63405 0.35892 0.0
C744 C 0.42877 0.63946 0.34832 0.0
H745 H 0.47183 0.63934 0.51962 0.0
H746 H 0.45697 0.6537 0.47162 0.0
C747 C 0.43163 0.62631 0.32133 0.0
C748 C 0.40237 0.64196 0.39438 0.0
H749 H 0.43861 0.68646 0.45309 0.0
C750 C 0.38772 0.62334 0.41804 0.0
C751 C 0.41882 0.66578 0.40745 0.0
C752 C 0.43256 0.6875 0.38364 0.0
C753 C 0.39245 0.62653 0.454 0.0
C754 C 0.41222 0.64908 0.46643 0.0
C755 C 0.42391 0.66897 0.44343 0.0
C756 C 0.42507 0.64958 0.49917 0.0
C757 C 0.37852 0.60464 0.47762 0.0
C758 C 0.4131 0.6443 0.5315 0.0
C759 C 0.42152 0.63583 0.55907 0.0
C760 C 0.44214 0.63284 0.55466 0.0
C761 C 0.4559 0.64138 0.52388 0.0
C762 C 0.44741 0.64967 0.49636 0.0
H763 H 0.36414 0.58828 0.46337 0.0
H764 H 0.39142 0.59964 0.49004 0.0
H765 H 0.36939 0.60926 0.49862 0.0
H766 H 0.39608 0.64456 0.53439 0.0
H767 H 0.41086 0.62987 0.58287 0.0
H768 H 0.83102 0.44984 0.8432 0.0
H769 H 0.8064 0.42917 0.79237 0.0
H770 H 0.75049 0.37363 0.85774 0.0
H771 H 0.775 0.39486 0.90958 0.0
H772 H 0.7686 0.35413 0.81327 0.0
H773 H 0.7462 0.41367 0.73651 0.0
H774 H 0.77716 0.4322 0.75195 0.0
H775 H 0.75229 0.41821 0.78296 0.0
C776 C 0.81296 0.434 0.84723 0.0
C777 C 0.80526 0.42385 0.88061 0.0
C778 C 0.79874 0.42212 0.81788 0.0
C779 C 0.77648 0.39985 0.82114 0.0
C780 C 0.76758 0.39083 0.85461 0.0
H781 H 0.78015 0.36635 0.60641 0.0
H782 H 0.7536 0.35698 0.65745 0.0
C783 C 0.78174 0.40289 0.88417 0.0
C784 C 0.76621 0.38405 0.78977 0.0
H785 H 0.76437 0.39236 0.70238 0.0
C786 C 0.76656 0.3619 0.78908 0.0
C787 C 0.76253 0.39343 0.75825 0.0
C788 C 0.75923 0.41556 0.75763 0.0
C789 C 0.76773 0.35144 0.75731 0.0
C790 C 0.76903 0.36373 0.72586 0.0
C791 C 0.7642 0.38326 0.7265 0.0
C792 C 0.78155 0.36131 0.69465 0.0
C793 C 0.76984 0.32861 0.75793 0.0
C794 C 0.80574 0.36575 0.69842 0.0
C795 C 0.82097 0.37132 0.66946 0.0
C796 C 0.81239 0.37276 0.63612 0.0
C797 C 0.78742 0.36582 0.6319 0.0
C798 C 0.77216 0.36029 0.66099 0.0
H799 H 0.75769 0.31581 0.77837 0.0
H800 H 0.76487 0.31897 0.73231 0.0
H801 H 0.78903 0.33367 0.76471 0.0
H802 H 0.81373 0.36733 0.72409 0.0
H803 H 0.84011 0.37681 0.6738 0.0
H804 H 0.43972 0.79408 0.97493 0.0
H805 H 0.41674 0.76435 1.02112 0.0
H806 H 0.37292 0.79894 1.0364 0.0
H807 H 0.39473 0.82742 0.98977 0.0
H808 H 0.42018 0.77732 1.08418 0.0
H809 H 0.32167 0.73161 1.05834 0.0
H810 H 0.34368 0.74538 1.02342 0.0
H811 H 0.33294 0.76302 1.04728 0.0
C812 C 0.42464 0.79472 0.98754 0.0
C813 C 0.4194 0.81342 0.97948 0.0
C814 C 0.41145 0.77769 1.01378 0.0
C815 C 0.39276 0.77904 1.03207 0.0
C816 C 0.38661 0.7968 1.02221 0.0
H817 H 0.37514 0.83006 0.19239 0.0
H818 H 0.36493 0.80304 0.14235 0.0
C819 C 0.3996 0.8136 0.99606 0.0
C820 C 0.38355 0.76639 1.06601 0.0
H821 H 0.33473 0.7517 0.11914 0.0
C822 C 0.40121 0.77046 0.09172 0.0
C823 C 0.3587 0.75666 1.07603 0.0
C824 C 0.33823 0.74868 1.04953 0.0
C825 C 0.39567 0.76965 0.12727 0.0
C826 C 0.37182 0.76451 0.13704 0.0
C827 C 0.35317 0.75624 0.11158 0.0
C828 C 0.36858 0.77499 0.16983 0.0
C829 C 0.41629 0.7777 0.15366 0.0
C830 C 0.37209 0.76727 0.2026 0.0
C831 C 0.3779 0.78281 0.23163 0.0
C832 C 0.38033 0.80622 0.22809 0.0
C833 C 0.37349 0.81226 0.19626 0.0
C834 C 0.36762 0.79674 0.16744 0.0
H835 H 0.43376 0.78106 0.14153 0.0
H836 H 0.4197 0.79487 0.16685 0.0
H837 H 0.41107 0.76334 0.17387 0.0
H838 H 0.37248 0.75033 0.20507 0.0
H839 H 0.3824 0.77732 0.25609 0.0
H840 H 0.62751 0.46268 0.34276 0.0
H841 H 0.63506 0.4456 0.39478 0.0
H842 H 0.64931 0.39733 0.33147 0.0
H843 H 0.64201 0.41475 0.27874 0.0
H844 H 0.6118 0.37182 0.37285 0.0
H845 H 0.68494 0.44142 0.45515 0.0
H846 H 0.66726 0.45464 0.43955 0.0
H847 H 0.68346 0.44608 0.40881 0.0
C848 C 0.63345 0.44933 0.33964 0.0
C849 C 0.63373 0.4398 0.30657 0.0
C850 C 0.6379 0.43957 0.3696 0.0
C851 C 0.64287 0.42018 0.36715 0.0
C852 C 0.64557 0.4123 0.33401 0.0
H853 H 0.59979 0.37617 0.57889 0.0
H854 H 0.62321 0.37365 0.52973 0.0
C855 C 0.6412 0.42215 0.30393 0.0
C856 C 0.63928 0.405 0.39854 0.0
H857 H 0.64523 0.41318 0.48661 0.0
C858 C 0.61987 0.38052 0.39769 0.0
C859 C 0.65021 0.41575 0.43099 0.0
C860 C 0.67283 0.44086 0.43349 0.0
C861 C 0.60845 0.36825 0.42856 0.0
C862 C 0.61646 0.38095 0.46069 0.0
C863 C 0.63853 0.40362 0.46186 0.0
C864 C 0.59924 0.375 0.49018 0.0
C865 C 0.58636 0.34277 0.42622 0.0
C866 C 0.5775 0.37565 0.48428 0.0
C867 C 0.5645 0.37781 0.5121 0.0
C868 C 0.5729 0.3793 0.54663 0.0
C869 C 0.59315 0.37582 0.55264 0.0
C870 C 0.60645 0.37409 0.5246 0.0
H871 H 0.58891 0.33201 0.40529 0.0
H872 H 0.58295 0.3328 0.45134 0.0
H873 H 0.56984 0.34404 0.41929 0.0
H874 H 0.57183 0.37697 0.45799 0.0
H875 H 0.5493 0.38072 0.506 0.0
H876 H 0.18291 0.54506 0.82696 0.0
H877 H 0.21085 0.56965 0.78132 0.0
H878 H 0.25197 0.6284 0.85517 0.0
H879 H 0.22261 0.60438 0.90059 0.0
H880 H 0.24018 0.64654 0.80753 0.0
H881 H 0.27441 0.59526 0.73669 0.0
H882 H 0.24265 0.57317 0.74274 0.0
H883 H 0.26263 0.58637 0.78044 0.0
C884 C 0.19823 0.56299 0.83373 0.0
C885 C 0.2001 0.57297 0.86716 0.0
C886 C 0.21467 0.57697 0.80764 0.0
C887 C 0.23382 0.60104 0.81456 0.0
C888 C 0.23739 0.60994 0.84903 0.0
H889 H 0.23312 0.63365 0.60052 0.0
H890 H 0.25972 0.64396 0.6522 0.0
C891 C 0.22062 0.59607 0.8751 0.0
C892 C 0.24552 0.61806 0.78473 0.0
H893 H 0.25268 0.61241 0.69793 0.0
C894 C 0.24401 0.63961 0.78385 0.0
C895 C 0.2521 0.61041 0.75387 0.0
C896 C 0.25833 0.59018 0.75381 0.0
C897 C 0.24398 0.65053 0.752 0.0
C898 C 0.24446 0.63899 0.72056 0.0
C899 C 0.251 0.62065 0.72189 0.0
C900 C 0.23185 0.64051 0.68854 0.0
C901 C 0.24117 0.67296 0.75234 0.0
C902 C 0.20767 0.63618 0.69145 0.0
C903 C 0.19255 0.63038 0.66211 0.0
C904 C 0.2011 0.62838 0.62918 0.0
C905 C 0.22594 0.63477 0.6257 0.0
C906 C 0.24119 0.64077 0.65518 0.0
H907 H 0.25327 0.68605 0.7728 0.0
H908 H 0.2458 0.68243 0.72672 0.0
H909 H 0.22193 0.66753 0.75915 0.0
H910 H 0.19955 0.63498 0.71678 0.0
H911 H 0.17346 0.62521 0.66589 0.0
H912 H 0.38761 0.94836 0.95224 0.0
H913 H 0.39752 0.97127 1.00795 0.0
H914 H 0.46422 0.96809 1.01626 0.0
H915 H 0.45466 0.94572 0.96091 0.0
H916 H 0.4039 0.96377 1.07598 0.0
H917 H 0.4947 0.03939 1.03531 0.0
H918 H 0.47303 0.01743 1.00444 0.0
H919 H 0.49216 0.00987 1.03068 0.0
C920 C 0.40446 0.95251 0.96574 0.0
C921 C 0.42021 0.94486 0.95084 0.0
C922 C 0.41022 0.96582 0.99812 0.0
C923 C 0.43219 0.97251 1.01723 0.0
C924 C 0.44758 0.96439 1.0026 0.0
H925 H 0.50749 0.05497 0.21237 0.0
H926 H 0.49451 0.03213 0.15749 0.0
C927 C 0.44183 0.9511 0.97046 0.0
C928 C 0.43886 0.98745 1.05211 0.0
H929 H 0.4856 0.03762 0.09552 0.0
C930 C 0.42178 0.98002 1.07988 0.0
C931 C 0.46218 0.00893 1.05872 0.0
C932 C 0.48151 0.01958 1.03067 0.0
C933 C 0.42735 0.99241 0.1131 0.0
C934 C 0.45071 0.0139 0.11977 0.0
C935 C 0.46768 0.02141 0.09178 0.0
C936 C 0.45831 0.02835 0.15521 0.0
C937 C 0.40818 0.98137 0.14129 0.0
C938 C 0.44298 0.03495 0.17418 0.0
C939 C 0.45048 0.04817 0.20666 0.0
C940 C 0.47393 0.05595 0.2218 0.0
C941 C 0.4893 0.04969 0.2025 0.0
C942 C 0.48177 0.03639 0.17038 0.0
H943 H 0.39531 0.9615 0.13654 0.0
H944 H 0.41678 0.98354 0.16742 0.0
H945 H 0.39715 0.99069 0.14147 0.0
H946 H 0.42512 0.03023 0.1637 0.0
H947 H 0.43785 0.05246 0.21978 0.0
H948 H 0.44106 0.39047 0.27842 0.0
H949 H 0.4294 0.40148 0.33402 0.0
H950 H 0.506 0.44977 0.35841 0.0
H951 H 0.51738 0.44005 0.30226 0.0
H952 H 0.42971 0.39798 0.39784 0.0
H953 H 0.48997 0.49798 0.38832 0.0
H954 H 0.48663 0.47798 0.35253 0.0
H955 H 0.5082 0.48344 0.3876 0.0
C956 C 0.45554 0.40357 0.29543 0.0
C957 C 0.4804 0.41429 0.28452 0.0
C958 C 0.44878 0.41002 0.32789 0.0
C959 C 0.46643 0.42746 0.35172 0.0
C960 C 0.49131 0.43734 0.34119 0.0
H961 H 0.4321 0.50055 0.5297 0.0
H962 H 0.44219 0.48854 0.47401 0.0
C963 C 0.49801 0.43132 0.30854 0.0
C964 C 0.45895 0.43467 0.38716 0.0
H965 H 0.47313 0.4829 0.44437 0.0
C966 C 0.43934 0.41671 0.40751 0.0
C967 C 0.47045 0.45913 0.40128 0.0
C968 C 0.48976 0.48075 0.38112 0.0
C969 C 0.43149 0.42203 0.44003 0.0
C970 C 0.44394 0.44619 0.45515 0.0
C971 C 0.4633 0.46422 0.43453 0.0
C972 C 0.43695 0.4534 0.491 0.0
C973 C 0.40894 0.40143 0.45688 0.0
C974 C 0.43044 0.43845 0.52141 0.0
C975 C 0.42396 0.44523 0.55376 0.0
C976 C 0.42424 0.46776 0.55826 0.0
C977 C 0.43133 0.483 0.52826 0.0
C978 C 0.43735 0.47602 0.49576 0.0
H979 H 0.39683 0.38748 0.43729 0.0
H980 H 0.41469 0.39203 0.47602 0.0
H981 H 0.39799 0.4083 0.47049 0.0
H982 H 0.43074 0.42144 0.52068 0.0
H983 H 0.41916 0.43283 0.57566 0.0
H984 H 0.03398 0.43395 0.60466 0.0
H985 H 0.01198 0.42408 0.66061 0.0
H986 H 0.06013 0.49809 0.69614 0.0
H987 H 0.08124 0.50815 0.63989 0.0
H988 H 0.01557 0.41797 0.7239 0.0
H989 H 1.00337 0.49842 0.73289 0.0
H990 H 0.01535 0.49209 0.69409 0.0
H991 H 0.03542 0.50805 0.73064 0.0
C992 C 0.03993 0.44835 0.62412 0.0
C993 C 0.0598 0.47215 0.61622 0.0
C994 C 0.0271 0.44258 0.65691 0.0
C995 C 0.03318 0.46018 0.68422 0.0
C996 C 0.05349 0.48381 0.67646 0.0
H997 H 0.93499 0.44019 0.87044 0.0
H998 H 0.95628 0.44953 0.81415 0.0
C999 C 0.06612 0.48964 0.64362 0.0
C1000 C 0.019 0.45366 0.72026 0.0
H1001 H 0.99589 0.47532 0.78499 0.0
C1002 C 0.01136 0.43076 0.73681 0.0
C1003 C 0.01222 0.46931 0.73865 0.0
C1004 C 0.01674 0.49318 0.72301 0.0
C1005 C 0.9983 0.42355 0.76953 0.0
C1006 C 0.99273 0.43974 0.78886 0.0
C1007 C 0.99996 0.46247 0.77199 0.0
C1008 C 0.97903 0.43342 0.82528 0.0
C1009 C 0.98972 0.39783 0.78204 0.0
C1010 C 0.98384 0.42121 0.85294 0.0
C1011 C 0.97106 0.41536 0.88572 0.0
C1012 C 0.9529 0.42179 0.89365 0.0
C1013 C 0.94848 0.4345 0.86644 0.0
C1014 C 0.96103 0.44007 0.83352 0.0
H1015 H 0.98746 0.38537 0.75996 0.0
H1016 H 0.00375 0.3981 0.80003 0.0
H1017 H 0.97188 0.39006 0.7959 0.0
H1018 H 0.998 0.4164 0.84971 0.0
H1019 H 0.97581 0.40599 0.90525 0.0
H1020 H 0.50604 0.94343 0.21233 0.0
H1021 H 0.51745 0.96487 0.15604 0.0
H1022 H 0.59381 0.9909 0.17864 0.0
H1023 H 0.58242 0.96942 0.23498 0.0
H1024 H 0.54295 0.01143 0.13388 0.0
H1025 H 0.59395 0.9682 1.08136 0.0
H1026 H 0.57559 0.95712 0.12032 0.0
H1027 H 0.60609 0.98354 0.12231 0.0
C1028 C 0.52535 0.95357 0.20556 0.0
C1029 C 0.54305 0.95409 0.22936 0.0
C1030 C 0.53199 0.96611 0.17276 0.0
C1031 C 0.55674 0.97968 0.16123 0.0
C1032 C 0.57449 0.98037 0.18514 0.0
H1033 H 0.63015 0.06397 0.96292 0.0
H1034 H 0.62063 0.04368 1.02043 0.0
C1035 C 0.56787 0.96801 0.21814 0.0
C1036 C 0.56372 0.99325 0.12517 0.0
H1037 H 0.59638 1.00128 1.04871 0.0
C1038 C 0.55459 0.00894 0.11543 0.0
C1039 C 0.57911 0.99088 0.09982 0.0
C1040 C 0.5891 0.97387 0.10619 0.0
C1041 C 0.56054 0.02219 1.08301 0.0
C1042 C 0.57566 0.01956 1.05733 0.0
C1043 C 0.58485 0.00389 1.06717 0.0
C1044 C 0.58187 0.03249 1.02068 0.0
C1045 C 0.55112 0.03978 1.07765 0.0
C1046 C 0.56378 0.03334 0.99929 0.0
C1047 C 0.56937 0.04533 0.96618 0.0
C1048 C 0.59336 0.05695 0.95157 0.0
C1049 C 0.61145 0.05563 0.97238 0.0
C1050 C 0.60586 0.04375 1.00585 0.0
H1051 H 0.54811 0.04649 0.10299 0.0
H1052 H 0.56408 0.05593 1.062 0.0
H1053 H 0.5331 0.03012 1.06392 0.0
H1054 H 0.54485 0.02432 1.00785 0.0
H1055 H 0.55446 0.04523 0.95171 0.0
H1056 H 0.601 0.57136 0.56698 0.0
H1057 H 0.59042 0.58335 0.51106 0.0
H1058 H 0.56872 0.51204 0.46842 0.0
H1059 H 0.57894 0.49995 0.52409 0.0
H1060 H 0.54618 0.56527 0.47165 0.0
H1061 H 0.61286 0.55507 0.38979 0.0
H1062 H 0.59289 0.52818 0.41459 0.0
H1063 H 0.61467 0.55589 0.43689 0.0
C1064 C 0.59424 0.55819 0.54571 0.0
C1065 C 0.59132 0.53455 0.55103 0.0
C1066 C 0.58795 0.5651 0.51329 0.0
C1067 C 0.57884 0.54899 0.48404 0.0
C1068 C 0.57602 0.52543 0.48938 0.0
H1069 H 0.57477 0.61469 0.27549 0.0
H1070 H 0.58666 0.6041 0.33148 0.0
C1071 C 0.58192 0.51839 0.52186 0.0
C1072 C 0.57199 0.55646 0.44867 0.0
H1073 H 0.58357 0.56167 0.3597 0.0
C1074 C 0.55451 0.56441 0.44735 0.0
C1075 C 0.58251 0.55585 0.4159 0.0
C1076 C 0.60193 0.54851 0.41415 0.0
C1077 C 0.54717 0.57102 0.41544 0.0
C1078 C 0.55738 0.57002 0.38257 0.0
C1079 C 0.57525 0.56255 0.384 0.0
C1080 C 0.54989 0.57664 0.347 0.0
C1081 C 0.52866 0.57955 0.4175 0.0
C1082 C 0.52513 0.56496 0.33509 0.0
C1083 C 0.51826 0.57093 0.30251 0.0
C1084 C 0.53566 0.5891 0.27976 0.0
C1085 C 0.56047 0.60077 0.29159 0.0
C1086 C 0.56739 0.59455 0.32408 0.0
H1087 H 0.52773 0.58593 0.44423 0.0
H1088 H 0.53317 0.59471 0.39887 0.0
H1089 H 0.51015 0.56401 0.41071 0.0
H1090 H 0.51086 0.55073 0.35085 0.0
H1091 H 0.49898 0.56111 0.29514 0.0
H1092 H 0.08937 0.58235 0.85572 0.0
H1093 H 0.06501 0.57144 0.80136 0.0
H1094 H 0.01116 0.58372 0.85218 0.0
H1095 H 0.03581 0.59523 0.90645 0.0
H1096 H 0.04774 0.59759 0.75634 0.0
H1097 H 0.96788 0.51359 0.80868 0.0
H1098 H 0.97804 0.54096 0.83452 0.0
H1099 H 0.99774 0.5281 0.82968 0.0
C1100 C 0.07248 0.58304 0.85557 0.0
C1101 C 0.06518 0.59013 0.88649 0.0
C1102 C 0.0583 0.57665 0.82393 0.0
C1103 C 0.03557 0.57627 0.82144 0.0
C1104 C 0.02823 0.58338 0.85232 0.0
H1105 H 0.94347 0.49628 0.63304 0.0
H1106 H 0.96761 0.50929 0.68734 0.0
C1107 C 0.04268 0.59028 0.88379 0.0
C1108 C 0.01983 0.56852 0.78711 0.0
H1109 H 0.96355 0.52531 0.75172 0.0
C1110 C 0.02929 0.58182 0.75571 0.0
C1111 C 0.99561 0.54767 0.78462 0.0
C1112 C 0.98413 0.53153 0.81596 0.0
C1113 C 0.01557 0.57543 0.72344 0.0
C1114 C 0.99109 0.55488 0.72111 0.0
C1115 C 0.9819 0.54125 0.75237 0.0
C1116 C 0.9753 0.54684 0.68672 0.0
C1117 C 0.02794 0.59061 0.69161 0.0
C1118 C 0.97034 0.56292 0.66669 0.0
C1119 C 0.95596 0.55527 0.63509 0.0
C1120 C 0.94578 0.53109 0.62146 0.0
C1121 C 0.95061 0.51504 0.64173 0.0
C1122 C 0.96467 0.52258 0.67342 0.0
H1123 H 0.04829 0.60111 0.69466 0.0
H1124 H 0.02323 0.57886 0.66791 0.0
H1125 H 0.02155 0.60398 0.68752 0.0
H1126 H 0.97744 0.58161 0.67561 0.0
H1127 H 0.95308 0.56855 0.62107 0.0
H1128 H 0.43218 0.02442 0.35247 0.0
H1129 H 0.41311 0.99158 0.39485 0.0
H1130 H 0.46903 0.97267 0.37525 0.0
H1131 H 0.4905 0.00818 0.33676 0.0
H1132 H 0.4313 0.9394 0.4248 0.0
H1133 H 0.46184 0.0321 0.47299 0.0
H1134 H 0.43485 0.0154 0.44583 0.0
H1135 H 0.46493 0.03307 0.42633 0.0
C1136 C 0.44017 0.01284 0.35651 0.0
C1137 C 0.46414 0.02018 0.3445 0.0
C1138 C 0.4289 0.99375 0.38046 0.0
C1139 C 0.44138 0.98172 0.39114 0.0
C1140 C 0.46051 0.98358 0.36968 0.0
H1141 H 0.52038 0.996 0.35783 0.0
H1142 H 0.50463 0.01091 0.40436 0.0
C1143 C 0.47279 0.00372 0.34736 0.0
C1144 C 0.44336 0.97782 0.42896 0.0
H1145 H 0.49384 0.01972 0.47377 0.0
C1146 C 0.44402 0.95661 0.43756 0.0
C1147 C 0.45811 0.99917 0.44944 0.0
C1148 C 0.45461 0.02113 0.44862 0.0
C1149 C 0.46472 0.95881 0.45503 0.0
C1150 C 0.48486 0.98268 0.46193 0.0
C1151 C 0.47949 1.00168 0.46529 0.0
C1152 C 0.50857 0.98907 0.44485 0.0
C1153 C 0.46698 0.93634 0.45858 0.0
C1154 C 0.5213 0.97688 0.45396 0.0
C1155 C 0.53224 0.97014 0.42772 0.0
C1156 C 0.52951 0.9747 0.39247 0.0
C1157 C 0.52157 0.99128 0.38467 0.0
C1158 C 0.51248 0.99963 0.41136 0.0
H1159 H 0.44857 0.91959 0.46096 0.0
H1160 H 0.47602 0.93429 0.43499 0.0
H1161 H 0.47815 0.93799 0.48199 0.0
H1162 H 0.51992 0.9697 0.48005 0.0
H1163 H 0.53974 0.95854 0.43446 0.0
H1164 H 0.49086 0.49407 0.69005 0.0
H1165 H 0.52233 0.51784 0.73394 0.0
H1166 H 0.46564 0.50605 0.80745 0.0
H1167 H 0.43458 0.47874 0.76522 0.0
H1168 H 0.48191 0.54969 0.76909 0.0
H1169 H 0.56597 0.55535 0.81703 0.0
H1170 H 0.55166 0.52896 0.78889 0.0
H1171 H 0.53573 0.52981 0.82757 0.0
C1172 C 0.48537 0.49554 0.71621 0.0
C1173 C 0.46067 0.48694 0.72352 0.0
C1174 C 0.5032 0.50886 0.74166 0.0
C1175 C 0.49625 0.5156 0.77297 0.0
C1176 C 0.47154 0.50203 0.78301 0.0
H1177 H 0.59718 0.57623 0.67108 0.0
H1178 H 0.5833 0.60114 0.70056 0.0
C1179 C 0.45378 0.48705 0.7584 0.0
C1180 C 0.51072 0.54195 0.7828 0.0
H1181 H 0.56966 0.57538 0.75692 0.0
C1182 C 0.50142 0.55607 0.76763 0.0
C1183 C 0.53647 0.55275 0.78487 0.0
C1184 C 0.54803 0.54103 0.80605 0.0
C1185 C 0.51512 0.57304 0.74152 0.0
C1186 C 0.53871 0.57677 0.73388 0.0
C1187 C 0.55065 0.5707 0.76014 0.0
C1188 C 0.54477 0.57358 0.69739 0.0
C1189 C 0.50271 0.58278 0.71811 0.0
C1190 C 0.5276 0.55189 0.67957 0.0
C1191 C 0.5356 0.53716 0.66324 0.0
C1192 C 0.5606 0.54467 0.66403 0.0
C1193 C 0.57758 0.56936 0.67241 0.0
C1194 C 0.56965 0.58397 0.68868 0.0
H1195 H 0.49298 0.58998 0.73414 0.0
H1196 H 0.5161 0.59753 0.70077 0.0
H1197 H 0.4886 0.56757 0.70184 0.0
H1198 H 0.50805 0.54392 0.6839 0.0
H1199 H 0.52231 0.51883 0.65456 0.0
H1200 H 0.95124 0.43781 0.1029 0.0
H1201 H 0.95385 0.47189 0.13759 0.0
H1202 H 0.00425 0.52233 1.0619 0.0
H1203 H 0.99587 0.48777 1.02341 0.0
H1204 H 1.00058 0.54687 0.12639 0.0
H1205 H 0.90699 0.48621 1.07751 0.0
H1206 H 0.92053 0.47855 0.11365 0.0
H1207 H 0.92607 0.473 1.0692 0.0
C1208 C 0.96249 0.45626 0.09376 0.0
C1209 C 0.97082 0.46043 1.05913 0.0
C1210 C 0.96468 0.47577 0.11405 0.0
C1211 C 0.97729 0.49958 0.10045 0.0
C1212 C 0.99245 0.50384 1.07118 0.0
H1213 H 0.01042 0.52163 0.98816 0.0
H1214 H 0.9707 0.51336 1.01126 0.0
C1215 C 0.98798 0.48427 1.04924 0.0
C1216 C 0.96754 0.51657 0.10506 0.0
H1217 H 0.9341 0.52036 1.0382 0.0
C1218 C 0.98522 0.54145 0.10854 0.0
C1219 C 0.9461 0.51078 0.08534 0.0
C1220 C 0.92357 0.4857 0.0866 0.0
C1221 C 0.98656 0.55809 1.08303 0.0
C1222 C 0.97043 0.54865 1.05362 0.0
C1223 C 0.94798 0.52693 1.05868 0.0
C1224 C 0.9819 0.55187 1.01853 0.0
C1225 C 0.00776 0.58407 1.08476 0.0
C1226 C 0.99855 0.57547 1.00673 0.0
C1227 C 0.02105 0.57999 0.99331 0.0
C1228 C 0.02648 0.56086 0.99091 0.0
C1229 C 0.00707 0.53671 0.99227 0.0
C1230 C 0.98434 0.53216 1.00535 0.0
H1231 H 0.01359 0.58985 0.11223 0.0
H1232 H 0.02379 0.58543 1.07062 0.0
H1233 H 1.00253 0.59689 1.07296 0.0
H1234 H 0.99622 0.59089 1.01348 0.0
H1235 H 0.03526 0.59881 0.9897 0.0
H1236 H 0.05813 0.47224 0.41064 0.0
H1237 H 0.04542 0.48824 0.36159 0.0
H1238 H 0.99981 0.50175 0.43117 0.0
H1239 H 0.01701 0.49128 0.48147 0.0
H1240 H 0.9884 0.49559 0.34818 0.0
H1241 H 0.08284 0.56616 0.38686 0.0
H1242 H 0.07351 0.53417 0.3806 0.0
H1243 H 0.06673 0.54415 0.42079 0.0
C1244 C 0.04543 0.47878 0.41543 0.0
C1245 C 0.03985 0.48231 0.44983 0.0
C1246 C 0.03774 0.48729 0.38721 0.0
C1247 C 0.02302 0.4977 0.39334 0.0
C1248 C 0.0128 0.49558 0.42666 0.0
H1249 H 0.99975 0.5291 0.49267 0.0
H1250 H 0.02725 0.5463 0.44326 0.0
C1251 C 0.02226 0.4893 0.45528 0.0
C1252 C 0.02459 0.51732 0.37071 0.0
H1253 H 0.05127 0.57807 0.38995 0.0
C1254 C 1.00269 0.51386 0.35588 0.0
C1255 C 0.04381 0.54172 0.37747 0.0
C1256 C 0.06824 0.54694 0.39208 0.0
C1257 C 0.99743 0.53302 0.35749 0.0
C1258 C 0.01313 0.55385 0.37809 0.0
C1259 C 0.03803 0.56056 0.37843 0.0
C1260 C 1.00302 0.55493 0.41284 0.0
C1261 C 0.97267 0.52817 0.34528 0.0
C1262 C 0.98196 0.55709 0.41507 0.0
C1263 C 0.96663 0.54772 0.44399 0.0
C1264 C 0.97195 0.53583 0.47089 0.0
C1265 C 0.99466 0.53694 0.47127 0.0
C1266 C 0.01047 0.54715 0.44292 0.0
H1267 H 0.96651 0.51603 0.32187 0.0
H1268 H 0.95923 0.51857 0.36637 0.0
H1269 H 0.97304 0.54556 0.33897 0.0
H1270 H 0.97634 0.56427 0.39347 0.0
H1271 H 0.95008 0.54884 0.44426 0.0
H1272 H 0.4847 0.99845 0.82078 0.0
H1273 H 0.49942 0.02296 0.76776 0.0
H1274 H 0.42963 0.97585 0.71708 0.0
H1275 H 0.41409 0.95354 0.77142 0.0
H1276 H 0.46267 0.96589 0.6921 0.0
H1277 H 0.50893 0.0592 0.72931 0.0
H1278 H 0.48034 0.04778 0.70525 0.0
H1279 H 0.50976 0.06469 0.68339 0.0
C1280 C 0.47229 0.99403 0.79872 0.0
C1281 C 0.44889 0.97322 0.79928 0.0
C1282 C 0.48048 0.0082 0.7684 0.0
C1283 C 0.46601 1.00051 0.73759 0.0
C1284 C 0.44135 0.98194 0.74008 0.0
H1285 H 0.59617 0.04789 0.75314 0.0
H1286 H 0.57377 0.03001 0.69874 0.0
C1287 C 0.43276 0.96866 0.77096 0.0
C1288 C 0.47893 0.0046 0.70374 0.0
H1289 H 0.53906 0.0464 0.69327 0.0
C1290 C 0.47918 0.98375 0.69081 0.0
C1291 C 0.49975 0.02773 0.69715 0.0
C1292 C 0.49945 0.0511 0.70412 0.0
C1293 C 0.50183 0.98469 0.6867 0.0
C1294 C 0.52342 0.00701 0.69432 0.0
C1295 C 0.52229 0.02873 0.69125 0.0
C1296 C 0.53884 0.00754 0.72403 0.0
C1297 C 0.50237 0.96118 0.68306 0.0
C1298 C 0.52717 0.99943 0.75668 0.0
C1299 C 0.53921 0.01179 0.78734 0.0
C1300 C 0.56376 0.03044 0.78587 0.0
C1301 C 0.57678 0.03445 0.75442 0.0
C1302 C 0.56424 0.02371 0.72338 0.0
H1303 H 0.49016 0.95014 0.66116 0.0
H1304 H 0.52132 0.96473 0.67826 0.0
H1305 H 0.49516 0.95018 0.70725 0.0
H1306 H 0.50775 0.98603 0.758 0.0
H1307 H 0.52909 0.00772 0.81157 0.0
H1308 H 0.5392 0.58847 0.08881 0.0
H1309 H 0.5291 0.56384 1.0353 0.0
H1310 H 0.51375 0.50077 0.09708 0.0
H1311 H 0.51805 0.52392 0.15076 0.0
H1312 H 0.52311 0.49893 1.01749 0.0
H1313 H 0.45044 0.52141 1.05114 0.0
H1314 H 0.48115 0.54456 1.0387 0.0
H1315 H 0.47564 0.53121 1.08132 0.0
C1316 C 0.53333 0.56923 0.09087 0.0
C1317 C 0.5273 0.55746 0.12349 0.0
C1318 C 0.52833 0.55542 1.06025 0.0
C1319 C 0.51882 0.53011 1.06257 0.0
C1320 C 0.51918 0.51995 0.09515 0.0
H1321 H 0.48252 0.47377 0.15538 0.0
H1322 H 0.46782 0.48565 0.10445 0.0
C1323 C 0.52194 0.53315 0.12578 0.0
C1324 C 0.50063 0.5133 1.03672 0.0
H1325 H 0.4386 0.47947 1.04671 0.0
C1326 C 0.50451 0.49506 1.02244 0.0
C1327 C 0.47598 0.50837 1.03971 0.0
C1328 C 0.4703 0.5274 1.05335 0.0
C1329 C 0.48494 0.47074 1.02137 0.0
C1330 C 0.46296 0.46538 1.03878 0.0
C1331 C 0.45676 0.48386 1.03796 0.0
C1332 C 0.45951 0.45321 1.07335 0.0
C1333 C 0.48995 0.45087 1.00994 0.0
C1334 C 0.45632 0.42961 1.07547 0.0
C1335 C 0.46402 0.42266 0.10534 0.0
C1336 C 0.47537 0.43928 0.13319 0.0
C1337 C 0.475 0.46121 0.13344 0.0
C1338 C 0.46632 0.46777 0.10413 0.0
H1339 H 0.50249 0.457 0.98715 0.0
H1340 H 0.49917 0.44688 1.03164 0.0
H1341 H 0.47267 0.43388 1.00266 0.0
H1342 H 0.44977 0.41732 1.05319 0.0
H1343 H 0.4623 0.40478 0.10552 0.0
H1344 H 0.29569 0.95536 0.72509 0.0
H1345 H 0.28913 0.97119 0.67072 0.0
H1346 H 0.29607 0.91598 0.61315 0.0
H1347 H 0.30071 0.89883 0.66756 0.0
H1348 H 0.32603 0.99176 0.62947 0.0
H1349 H 0.24892 0.92219 0.55084 0.0
H1350 H 0.25161 0.91829 0.59708 0.0
H1351 H 0.26735 0.90962 0.5658 0.0
C1352 C 0.29453 0.9457 0.70109 0.0
C1353 C 0.29927 0.92608 0.70074 0.0
C1354 C 0.29092 0.95494 0.66989 0.0
C1355 C 0.2922 0.94491 0.63772 0.0
C1356 C 0.29457 0.92387 0.63752 0.0
H1357 H 0.36282 0.99132 0.44868 0.0
H1358 H 0.33667 0.96935 0.49828 0.0
C1359 C 0.29773 0.91434 0.66875 0.0
C1360 C 0.2966 0.95925 0.60517 0.0
H1361 H 0.28467 0.953 0.51751 0.0
C1362 C 0.31641 0.98352 0.6052 0.0
C1363 C 0.28418 0.94855 0.57341 0.0
C1364 C 0.26167 0.9233 0.57193 0.0
C1365 C 0.32539 0.99662 0.57412 0.0
C1366 C 0.31411 0.98523 0.54213 0.0
C1367 C 0.29332 0.9616 0.54215 0.0
C1368 C 0.32587 0.99643 0.50862 0.0
C1369 C 0.34802 0.02188 0.5755 0.0
C1370 C 0.32782 0.01856 0.49752 0.0
C1371 C 0.34296 0.0313 0.4694 0.0
C1372 C 0.35634 0.02204 0.45206 0.0
C1373 C 0.3531 0.99911 0.46198 0.0
C1374 C 0.33796 0.98641 0.49001 0.0
H1375 H 0.35627 0.0268 0.60209 0.0
H1376 H 0.36218 0.02299 0.55712 0.0
H1377 H 0.34302 0.03576 0.56743 0.0
H1378 H 0.31852 0.02649 0.51158 0.0
H1379 H 0.34514 0.04894 0.46239 0.0
H1380 H 0.34025 0.28741 1.06511 0.0
H1381 H 0.31688 0.28056 1.01139 0.0
H1382 H 0.37695 0.28394 0.95252 0.0
H1383 H 0.39964 0.28884 1.00635 0.0
H1384 H 0.33348 0.31664 0.96902 0.0
H1385 H 0.32167 0.23761 0.8921 0.0
H1386 H 0.32901 0.24062 0.93816 0.0
H1387 H 0.3531 0.25508 0.90612 0.0
C1388 C 0.34803 0.28538 1.04102 0.0
C1389 C 0.37215 0.28924 1.04007 0.0
C1390 C 0.33462 0.28161 1.01018 0.0
C1391 C 0.34512 0.28186 0.97778 0.0
C1392 C 0.36816 0.28326 0.97709 0.0
H1393 H 0.37233 0.35121 0.78874 0.0
H1394 H 0.36625 0.32485 0.8389 0.0
C1395 C 0.38139 0.28657 1.00798 0.0
C1396 C 0.33501 0.28632 0.94528 0.0
H1397 H 0.32838 0.27379 0.85784 0.0
C1398 C 0.3315 0.30669 0.94493 0.0
C1399 C 0.33245 0.27344 0.91377 0.0
C1400 C 0.33401 0.25032 0.91272 0.0
C1401 C 0.32773 0.31584 0.91366 0.0
C1402 C 0.32725 0.30417 0.88187 0.0
C1403 C 0.32893 0.28276 0.88231 0.0
C1404 C 0.32877 0.31619 0.84816 0.0
C1405 C 0.32626 0.33908 0.91459 0.0
C1406 C 0.30944 0.31947 0.8363 0.0
C1407 C 0.31295 0.33475 0.80782 0.0
C1408 C 0.33586 0.34695 0.79092 0.0
C1409 C 0.35465 0.34243 0.80169 0.0
C1410 C 0.35111 0.32716 0.83004 0.0
H1411 H 0.32971 0.34733 0.94115 0.0
H1412 H 0.33988 0.35289 0.8964 0.0
H1413 H 0.30766 0.33492 0.90598 0.0
H1414 H 0.29204 0.31106 0.84996 0.0
H1415 H 0.29815 0.33791 0.80009 0.0
H1416 H 0.9442 0.28474 0.13103 0.0
H1417 H 0.95782 0.27208 0.18317 0.0
H1418 H 0.02371 0.34322 0.1876 0.0
H1419 H 0.01055 0.35576 0.13533 0.0
H1420 H 0.02998 0.30105 0.20554 0.0
H1421 H 0.95388 0.30387 0.27657 0.0
H1422 H 0.9468 0.28436 0.2388 0.0
H1423 H 0.96304 0.31709 0.23369 0.0
C1424 C 0.96186 0.29744 0.1427 0.0
C1425 C 0.97618 0.32138 0.12954 0.0
C1426 C 0.96954 0.29019 0.17246 0.0
C1427 C 0.99162 0.30681 0.18928 0.0
C1428 C 0.00661 0.33013 0.17488 0.0
H1429 H 0.08092 0.37767 0.3452 0.0
H1430 H 0.06279 0.35153 0.29422 0.0
C1431 C 0.99896 0.33738 0.14531 0.0
C1432 C 0.99801 0.30175 0.22421 0.0
H1433 H 0.98706 0.30818 0.30942 0.0
C1434 C 0.02024 0.30178 0.22843 0.0
C1435 C 0.985 0.30221 0.25397 0.0
C1436 C 0.96086 0.30193 0.25085 0.0
C1437 C 0.03107 0.30489 0.26153 0.0
C1438 C 0.01964 0.30867 0.29072 0.0
C1439 C 0.99597 0.30554 0.28697 0.0
C1440 C 0.03365 0.32124 0.32274 0.0
C1441 C 0.05538 0.30562 0.26455 0.0
C1442 C 0.02347 0.31296 0.35595 0.0
C1443 C 0.03358 0.32822 0.38517 0.0
C1444 C 0.05388 0.35203 0.38148 0.0
C1445 C 0.06504 0.35954 0.34869 0.0
C1446 C 0.05495 0.34437 0.31959 0.0
H1447 H 0.056 0.29225 0.24618 0.0
H1448 H 0.07046 0.32416 0.25725 0.0
H1449 H 0.05878 0.30145 0.29149 0.0
H1450 H 0.00687 0.2953 0.35891 0.0
H1451 H 0.02455 0.32199 0.41016 0.0
H1452 H 0.71986 0.035 0.74344 0.0
H1453 H 0.73069 0.01884 0.69231 0.0
H1454 H 0.6927 0.04451 0.62563 0.0
H1455 H 0.68297 0.06152 0.67588 0.0
H1456 H 0.69987 0.98321 0.65224 0.0
H1457 H 0.75064 0.0619 0.56621 0.0
H1458 H 0.74702 0.06588 0.61214 0.0
H1459 H 0.72422 0.06313 0.58065 0.0
C1460 C 0.71448 0.03778 0.7177 0.0
C1461 C 0.70035 0.0493 0.71364 0.0
C1462 C 0.72065 0.02852 0.68856 0.0
C1463 C 0.71297 0.03087 0.655 0.0
C1464 C 0.69958 0.04312 0.65101 0.0
H1465 H 0.62606 0.94111 0.51073 0.0
H1466 H 0.65235 0.958 0.56176 0.0
C1467 C 0.69355 0.05241 0.67991 0.0
C1468 C 0.71531 0.01761 0.62459 0.0
H1469 H 0.71896 0.02319 0.53619 0.0
C1470 C 0.70491 0.99205 0.62694 0.0
C1471 C 0.72288 0.02901 0.59164 0.0
C1472 C 0.7371 0.05655 0.58772 0.0
C1473 C 0.69844 0.97741 0.59676 0.0
C1474 C 0.70167 0.98865 0.56374 0.0
C1475 C 0.71559 0.01436 0.56148 0.0
C1476 C 0.68663 0.97482 0.53298 0.0
C1477 C 0.68673 0.94998 0.60072 0.0
C1478 C 0.69696 0.9788 0.49949 0.0
C1479 C 0.68175 0.96972 0.46995 0.0
C1480 C 0.65597 0.9566 0.47347 0.0
C1481 C 0.64582 0.95151 0.50709 0.0
C1482 C 0.66094 0.96073 0.53644 0.0
H1483 H 0.69586 0.94558 0.62217 0.0
H1484 H 0.66711 0.94212 0.60798 0.0
H1485 H 0.68784 0.94105 0.5763 0.0
H1486 H 0.7167 0.98984 0.49612 0.0
H1487 H 0.69013 0.97406 0.44436 0.0
H1488 H 0.65889 0.70296 1.03988 0.0
H1489 H 0.67066 0.70839 0.97913 0.0
H1490 H 0.62232 0.7372 0.95833 0.0
H1491 H 0.6102 0.73159 1.01984 0.0
H1492 H 0.6096 0.69846 0.92058 0.0
H1493 H 0.70947 0.75614 0.90523 0.0
H1494 H 0.70415 0.73518 0.94009 0.0
H1495 H 0.69406 0.75737 0.9443 0.0
C1496 C 0.65159 0.71158 1.02293 0.0
C1497 C 0.63338 0.7166 1.0347 0.0
C1498 C 0.65848 0.71481 0.98796 0.0
C1499 C 0.64755 0.72339 0.96402 0.0
C1500 C 0.63106 0.73061 0.97633 0.0
H1501 H 0.67136 0.68052 0.75419 0.0
H1502 H 0.67005 0.70866 0.79751 0.0
C1503 C 0.62405 0.72727 1.01143 0.0
C1504 C 0.64917 0.71931 0.9262 0.0
H1505 H 0.68938 0.71867 0.86713 0.0
C1506 C 0.62711 0.70368 0.90839 0.0
C1507 C 0.67189 0.72635 0.90974 0.0
C1508 C 0.69617 0.74493 0.92583 0.0
C1509 C 0.6272 0.6926 0.87671 0.0
C1510 C 0.64986 0.69697 0.86287 0.0
C1511 C 0.67197 0.71486 0.87832 0.0
C1512 C 0.65071 0.68047 0.83614 0.0
C1513 C 0.60293 0.67504 0.8595 0.0
C1514 C 0.64078 0.65551 0.84396 0.0
C1515 C 0.6417 0.63953 0.81963 0.0
C1516 C 0.65264 0.64818 0.7869 0.0
C1517 C 0.66294 0.67333 0.77927 0.0
C1518 C 0.66208 0.68939 0.80382 0.0
H1519 H 0.58868 0.68 0.8657 0.0
H1520 H 0.60478 0.67478 0.83069 0.0
H1521 H 0.59639 0.65623 0.8695 0.0
H1522 H 0.63252 0.64842 0.86918 0.0
H1523 H 0.63412 0.62044 0.8267 0.0
H1524 H 0.97974 0.62213 0.08883 0.0
H1525 H 0.94889 0.61804 0.13149 0.0
H1526 H 0.00673 0.67065 0.19875 0.0
H1527 H 0.03749 0.67518 0.15607 0.0
H1528 H 0.94696 0.6013 0.198 0.0
H1529 H 0.95637 0.69329 0.20356 0.0
H1530 H 0.96775 0.68334 0.16744 0.0
H1531 H 0.98573 0.69506 0.20688 0.0
C1532 C 0.98579 0.63324 0.11236 0.0
C1533 C 0.01101 0.64894 0.11922 0.0
C1534 C 0.96817 0.63087 0.13667 0.0
C1535 C 0.97549 0.64438 0.16795 0.0
C1536 C 1.00062 0.66052 0.17438 0.0
H1537 H 0.94977 0.64431 0.37558 0.0
H1538 H 0.95946 0.65447 0.31443 0.0
C1539 C 0.01821 0.66282 0.15023 0.0
C1540 C 0.95749 0.6395 0.196 0.0
H1541 H 0.94127 0.66872 0.25635 0.0
C1542 C 0.94506 0.61583 0.21022 0.0
C1543 C 0.95502 0.65849 0.21173 0.0
C1544 C 0.96675 0.68391 0.19635 0.0
C1545 C 0.9321 0.61114 0.24164 0.0
C1546 C 0.93119 0.63062 0.25881 0.0
C1547 C 0.94202 0.65384 0.24314 0.0
C1548 C 0.92303 0.6282 0.29549 0.0
C1549 C 0.9213 0.58591 0.25764 0.0
C1550 C 0.8989 0.611 0.30525 0.0
C1551 C 0.8932 0.60514 0.34049 0.0
C1552 C 0.91155 0.61651 0.36638 0.0
C1553 C 0.93507 0.63534 0.35653 0.0
C1554 C 0.94072 0.64112 0.32144 0.0
H1555 H 0.92651 0.5739 0.24314 0.0
H1556 H 0.92751 0.58732 0.28518 0.0
H1557 H 0.90092 0.57691 0.2575 0.0
H1558 H 0.88487 0.60116 0.28556 0.0
H1559 H 0.8748 0.59085 0.34731 0.0
H1560 H 0.56033 0.12044 0.42927 0.0
H1561 H 0.57367 0.12084 0.48943 0.0
H1562 H 0.49799 0.07487 0.51964 0.0
H1563 H 0.48474 0.07686 0.46003 0.0
H1564 H 0.57968 0.09883 0.5338 0.0
H1565 H 0.5094 0.10925 0.60449 0.0
H1566 H 0.49501 0.08214 0.57802 0.0
H1567 H 0.51187 0.11206 0.55781 0.0
C1568 C 0.5463 0.11077 0.44875 0.0
C1569 C 0.52112 0.09893 0.43851 0.0
C1570 C 0.5541 0.11078 0.484 0.0
C1571 C 0.53737 0.09839 0.51169 0.0
C1572 C 0.5121 0.0859 0.50104 0.0
H1573 H 0.57362 0.11939 0.74343 0.0
H1574 H 0.56043 0.1195 0.68346 0.0
C1575 C 0.50425 0.08665 0.46592 0.0
C1576 C 0.54662 0.09822 0.55027 0.0
H1577 H 0.53304 0.09724 0.63831 0.0
C1578 C 0.56927 0.09876 0.55633 0.0
C1579 C 0.53426 0.09849 0.58163 0.0
C1580 C 0.51146 0.10073 0.58025 0.0
C1581 C 0.57943 0.09961 0.59053 0.0
C1582 C 0.56635 0.09838 0.62187 0.0
C1583 C 0.5437 0.09784 0.61581 0.0
C1584 C 0.57583 0.09866 0.66044 0.0
C1585 C 0.60501 0.10314 0.59199 0.0
C1586 C 0.58955 0.08715 0.67064 0.0
C1587 C 0.59824 0.08803 0.70574 0.0
C1588 C 0.59283 0.09942 0.73364 0.0
C1589 C 0.57867 0.11039 0.72372 0.0
C1590 C 0.5707 0.11022 0.68853 0.0
H1591 H 0.61556 0.11224 0.56804 0.0
H1592 H 0.61555 0.11452 0.61479 0.0
H1593 H 0.60374 0.08493 0.59361 0.0
H1594 H 0.59333 0.07678 0.65167 0.0
H1595 H 0.60888 0.07917 0.71102 0.0
H1596 H 0.40193 0.48059 0.79767 0.0
H1597 H 0.41679 0.49628 0.857 0.0
H1598 H 0.45211 0.57027 0.81796 0.0
H1599 H 0.43934 0.5546 0.75893 0.0
H1600 H 0.41423 0.51783 0.90712 0.0
H1601 H 0.5089 0.58564 0.87192 0.0
H1602 H 0.48843 0.59287 0.84918 0.0
H1603 H 0.48777 0.56428 0.84028 0.0
C1604 C 0.41305 0.50025 0.80149 0.0
C1605 C 0.41959 0.51594 0.77208 0.0
C1606 C 0.42173 0.50946 0.83611 0.0
C1607 C 0.437 0.53499 0.84367 0.0
C1608 C 0.44195 0.55058 0.81443 0.0
H1609 H 0.52644 0.6049 1.04133 0.0
H1610 H 0.51182 0.58909 0.98224 0.0
C1611 C 0.43395 0.54139 0.77989 0.0
C1612 C 0.44691 0.54514 0.88145 0.0
H1613 H 0.49598 0.59111 0.92801 0.0
C1614 C 0.43229 0.53377 0.91124 0.0
C1615 C 0.47085 0.56567 0.8891 0.0
C1616 C 0.48997 0.57761 0.86098 0.0
C1617 C 0.4402 0.54195 0.94649 0.0
C1618 C 0.46333 0.56377 0.95401 0.0
C1619 C 0.4781 0.57489 0.92415 0.0
C1620 C 0.47284 0.57474 0.99175 0.0
C1621 C 0.42366 0.5258 0.97513 0.0
C1622 C 0.45697 0.57362 1.019 0.0
C1623 C 0.46544 0.58184 1.05383 0.0
C1624 C 0.49061 0.59301 1.06372 0.0
C1625 C 0.50689 0.59615 1.03603 0.0
C1626 C 0.49828 0.58705 1.00134 0.0
H1627 H 0.41251 0.50639 0.96632 0.0
H1628 H 0.43438 0.52618 0.99838 0.0
H1629 H 0.41058 0.53201 0.9825 0.0
H1630 H 0.43763 0.56631 1.01373 0.0
H1631 H 0.45192 0.57932 1.0733 0.0
H1632 H 0.87941 0.43187 0.1001 0.0
H1633 H 0.87744 0.4442 0.15999 0.0
H1634 H 0.92294 0.4148 0.19396 0.0
H1635 H 0.92257 0.40018 0.13468 0.0
H1636 H 0.89932 0.47259 0.20492 0.0
H1637 H 0.88669 0.39168 0.27685 0.0
H1638 H 0.91436 0.40408 0.25193 0.0
H1639 H 0.8848 0.39142 0.23003 0.0
C1640 C 0.88855 0.42733 0.12033 0.0
C1641 C 0.90116 0.41468 0.11105 0.0
C1642 C 0.88766 0.43482 0.15542 0.0
C1643 C 0.89965 0.4306 0.18396 0.0
C1644 C 0.91229 0.41789 0.17454 0.0
H1645 H 0.87818 0.44633 0.41459 0.0
H1646 H 0.87735 0.43297 0.35457 0.0
C1647 C 0.91239 0.40957 0.1396 0.0
C1648 C 0.89934 0.44006 0.22223 0.0
H1649 H 0.89957 0.42767 0.31049 0.0
C1650 C 0.89904 0.46228 0.22771 0.0
C1651 C 0.89857 0.42743 0.25382 0.0
C1652 C 0.89584 0.40223 0.25292 0.0
C1653 C 0.89802 0.47172 0.26165 0.0
C1654 C 0.89883 0.45988 0.29329 0.0
C1655 C 0.89915 0.43767 0.28776 0.0
C1656 C 0.89849 0.46918 0.33168 0.0
C1657 C 0.89483 0.49392 0.26246 0.0
C1658 C 0.91012 0.49442 0.34189 0.0
C1659 C 0.90995 0.50229 0.37715 0.0
C1660 C 0.89873 0.48549 0.40494 0.0
C1661 C 0.88718 0.46035 0.39491 0.0
C1662 C 0.88692 0.45252 0.3597 0.0
H1663 H 0.88594 0.49536 0.23812 0.0
H1664 H 0.88335 0.49328 0.28483 0.0
H1665 H 0.91319 0.51076 0.26438 0.0
H1666 H 0.9203 0.50854 0.32291 0.0
H1667 H 0.91952 0.5218 0.38277 0.0
H1668 H 0.45996 0.87815 0.43455 0.0
H1669 H 0.4461 0.87615 0.49468 0.0
H1670 H 0.52091 0.92578 0.52677 0.0
H1671 H 0.53496 0.92544 0.46726 0.0
H1672 H 0.44015 0.90169 0.53624 0.0
H1673 H 0.50807 0.88921 0.61108 0.0
H1674 H 0.52316 0.91645 0.58524 0.0
H1675 H 0.50638 0.88672 0.56423 0.0
C1676 C 0.47374 0.88817 0.45446 0.0
C1677 C 0.49886 0.90213 0.44467 0.0
C1678 C 0.46562 0.8872 0.48956 0.0
C1679 C 0.48195 0.90068 0.51735 0.0
C1680 C 0.50723 0.91437 0.50759 0.0
H1681 H 0.43873 0.87744 0.74464 0.0
H1682 H 0.45277 0.87708 0.68538 0.0
C1683 C 0.51547 0.91455 0.47261 0.0
C1684 C 0.47222 0.9011 0.55505 0.0
H1685 H 0.48405 0.90154 0.64371 0.0
C1686 C 0.44991 0.90141 0.55949 0.0
C1687 C 0.48393 0.90052 0.58697 0.0
C1688 C 0.50654 0.89794 0.58673 0.0
C1689 C 0.43944 0.90112 0.593 0.0
C1690 C 0.45173 0.90166 0.62494 0.0
C1691 C 0.47403 0.90133 0.62048 0.0
C1692 C 0.44172 0.90161 0.66264 0.0
C1693 C 0.41449 0.89913 0.5932 0.0
C1694 C 0.43022 0.91538 0.67232 0.0
C1695 C 0.42136 0.91506 0.70695 0.0
C1696 C 0.424 0.90147 0.73446 0.0
C1697 C 0.43584 0.88811 0.72499 0.0
C1698 C 0.44424 0.88806 0.69037 0.0
H1699 H 0.40408 0.89054 0.56874 0.0
H1700 H 0.40325 0.88803 0.61555 0.0
H1701 H 0.41689 0.91781 0.59495 0.0
H1702 H 0.42857 0.92715 0.65334 0.0
H1703 H 0.41304 0.92617 0.71236 0.0
H1704 H 0.61601 0.51372 0.79291 0.0
H1705 H 0.60372 0.49916 0.85329 0.0
H1706 H 0.53281 0.44321 0.81575 0.0
H1707 H 0.54518 0.4572 0.75591 0.0
H1708 H 0.57285 0.49571 0.90127 0.0
H1709 H 0.54154 0.39825 0.87606 0.0
H1710 H 0.55744 0.42138 0.84335 0.0
H1711 H 0.5248 0.40852 0.84979 0.0
C1712 C 0.59781 0.49815 0.7972 0.0
C1713 C 0.58201 0.4868 0.76799 0.0
C1714 C 0.5906 0.48966 0.83245 0.0
C1715 C 0.56718 0.46915 0.84087 0.0
C1716 C 0.55129 0.45827 0.81164 0.0
H1717 H 0.48794 0.39001 1.04068 0.0
H1718 H 0.50003 0.40371 0.97984 0.0
C1719 C 0.55847 0.46667 0.77658 0.0
C1720 C 0.55928 0.45967 0.87944 0.0
H1721 H 0.53067 0.40736 0.93115 0.0
C1722 C 0.56379 0.47631 0.90737 0.0
C1723 C 0.54714 0.4343 0.88948 0.0
C1724 C 0.54265 0.4146 0.86321 0.0
C1725 C 0.55642 0.46878 0.94294 0.0
C1726 C 0.54425 0.44339 0.95298 0.0
C1727 C 0.5397 0.42675 0.92504 0.0
C1728 C 0.53659 0.43396 0.99162 0.0
C1729 C 0.56131 0.48863 0.96918 0.0
C1730 C 0.55263 0.44512 1.02059 0.0
C1731 C 0.54565 0.43712 1.05578 0.0
C1732 C 0.52216 0.41714 1.0649 0.0
C1733 C 0.50619 0.40538 1.03597 0.0
C1734 C 0.51328 0.41339 1.00047 0.0
H1735 H 0.56132 0.5045 0.95651 0.0
H1736 H 0.54745 0.48185 0.99029 0.0
H1737 H 0.57979 0.49543 0.98101 0.0
H1738 H 0.57104 0.46024 1.01617 0.0
H1739 H 0.55903 0.447 1.0762 0.0
H1740 H 0.12387 0.55171 0.40813 0.0
H1741 H 0.1239 0.56389 0.34744 0.0
H1742 H 0.09475 0.4891 0.31417 0.0
H1743 H 0.09487 0.47671 0.37547 0.0
H1744 H 0.13214 0.52457 0.26501 0.0
H1745 H 0.06399 0.5542 0.28868 0.0
H1746 H 0.08879 0.56494 0.31987 0.0
H1747 H 0.0668 0.53263 0.31653 0.0
C1748 C 0.11754 0.53755 0.38824 0.0
C1749 C 0.10908 0.51284 0.39845 0.0
C1750 C 0.11739 0.54472 0.35272 0.0
C1751 C 0.10872 0.52772 0.32453 0.0
C1752 C 0.10131 0.50312 0.33429 0.0
H1753 H 0.10868 0.60965 0.12814 0.0
H1754 H 0.11023 0.59612 0.18807 0.0
C1755 C 0.10147 0.49589 0.37005 0.0
C1756 C 0.10759 0.5358 0.28583 0.0
H1757 H 0.08279 0.56334 0.23367 0.0
C1758 C 0.12114 0.53288 0.2585 0.0
C1759 C 0.0936 0.54705 0.27542 0.0
C1760 C 0.07727 0.54984 0.30142 0.0
C1761 C 0.12159 0.54109 0.22311 0.0
C1762 C 0.10747 0.55229 0.21263 0.0
C1763 C 0.09388 0.5551 0.24005 0.0
C1764 C 0.10648 0.561 0.17417 0.0
C1765 C 0.13834 0.53845 0.19761 0.0
C1766 C 0.10334 0.54638 0.14409 0.0
C1767 C 0.10249 0.55428 0.10922 0.0
C1768 C 0.10449 0.57735 0.1016 0.0
C1769 C 0.1072 0.59189 0.13161 0.0
C1770 C 0.10804 0.58394 0.16664 0.0
H1771 H 0.15373 0.53792 0.21124 0.0
H1772 H 0.1277 0.52091 0.18305 0.0
H1773 H 0.14628 0.5538 0.17864 0.0
H1774 H 0.10107 0.5283 0.14735 0.0
H1775 H 0.10008 0.54193 0.08792 0.0
loop_
_geom_bond_atom_site_label_1
_geom_bond_atom_site_label_2
_geom_bond_distance
_geom_bond_site_symmetry_2
_ccdc_geom_bond_type
Dy0 O3 2.307 . S
Dy0 O5 2.395 . S
Dy0 O6 2.379 . S
Dy0 O8 2.339 . S
Dy0 O10 2.298 . S
Dy0 O14 2.275 . S
Dy0 C22 2.738 . S
Dy1 O4 2.298 . S
Dy1 O7 2.275 . S
Dy1 O9 2.307 . S
Dy1 O11 2.395 . S
Dy1 O12 2.379 . S
Dy1 O15 2.339 . S
Dy1 C31 2.738 . S
C2 O14 1.254 . S
C2 O15 1.257 . S
O3 Dy0 2.307 . S
O3 C13 1.266 . S
O4 Dy1 2.298 . S
O4 C13 1.236 . S
O5 Dy0 2.395 . S
O5 C22 1.255 . S
O6 Dy0 2.379 . S
O6 C22 1.249 . S
O7 Dy1 2.275 . S
O7 C23 1.254 . S
O8 Dy0 2.339 . S
O8 C23 1.257 . S
O9 Dy1 2.307 . S
O9 C24 1.266 . S
O10 Dy0 2.298 . S
O10 C24 1.236 . S
O11 Dy1 2.395 . S
O11 C31 1.255 . S
O12 Dy1 2.379 . S
O12 C31 1.249 . S
C13 O3 1.266 . S
C13 O4 1.236 . S
O14 Dy0 2.275 . S
O14 C2 1.254 . S
O15 Dy1 2.339 . S
O15 C2 1.257 . S
C16 C19 1.344 . S
C16 C20 1.328 . S
C16 C22 1.516 . S
C17 C18 1.304 . S
C17 C21 1.323 . S
C18 C17 1.304 . S
C18 C19 1.371 . S
C18 H32 0.930 . S
C19 C16 1.344 . S
C19 C18 1.371 . S
C19 H33 0.931 . S
C20 C16 1.328 . S
C20 C21 1.433 . S
C20 H34 0.931 . S
C21 C17 1.323 . S
C21 C20 1.433 . S
C21 H35 0.933 . S
C22 Dy0 2.738 . S
C22 O5 1.255 . S
C22 O6 1.249 . S
C22 C16 1.516 . S
C23 O7 1.254 . S
C23 O8 1.257 . S
C24 O9 1.266 . S
C24 O10 1.236 . S
C25 C28 1.344 . S
C25 C29 1.328 . S
C25 C31 1.516 . S
C26 C27 1.304 . S
C26 C30 1.323 . S
C27 C26 1.304 . S
C27 C28 1.371 . S
C27 H36 0.930 . S
C28 C25 1.344 . S
C28 C27 1.371 . S
C28 H37 0.931 . S
C29 C25 1.328 . S
C29 C30 1.433 . S
C29 H38 0.931 . S
C30 C26 1.323 . S
C30 C29 1.433 . S
C30 H39 0.933 . S
C31 Dy1 2.738 . S
C31 O11 1.255 . S
C31 O12 1.249 . S
C31 C25 1.516 . S
H32 C18 0.930 . S
H33 C19 0.931 . S
H34 C20 0.931 . S
H35 C21 0.933 . S
H36 C27 0.930 . S
H37 C28 0.931 . S
H38 C29 0.931 . S
H39 C30 0.933 . S
Dy40 O43 2.307 . S
Dy40 O45 2.395 . S
Dy40 O46 2.379 . S
Dy40 O48 2.339 . S
Dy40 O50 2.298 . S
Dy40 O54 2.275 . S
Dy40 C62 2.738 . S
Dy41 O44 2.298 . S
Dy41 O47 2.275 . S
Dy41 O49 2.307 . S
Dy41 O51 2.395 . S
Dy41 O52 2.379 . S
Dy41 O55 2.339 . S
Dy41 C71 2.738 . S
C42 O54 1.254 . S
C42 O55 1.257 . S
O43 Dy40 2.307 . S
O43 C53 1.266 . S
O44 Dy41 2.298 . S
O44 C53 1.236 . S
O45 Dy40 2.395 . S
O45 C62 1.255 . S
O46 Dy40 2.379 . S
O46 C62 1.249 . S
O47 Dy41 2.275 . S
O47 C63 1.254 . S
O48 Dy40 2.339 . S
O48 C63 1.257 . S
O49 Dy41 2.307 . S
O49 C64 1.266 . S
O50 Dy40 2.298 . S
O50 C64 1.236 . S
O51 Dy41 2.395 . S
O51 C71 1.255 . S
O52 Dy41 2.379 . S
O52 C71 1.249 . S
C53 O43 1.266 . S
C53 O44 1.236 . S
O54 Dy40 2.275 . S
O54 C42 1.254 . S
O55 Dy41 2.339 . S
O55 C42 1.257 . S
C56 C59 1.344 . S
C56 C60 1.328 . S
C56 C62 1.516 . S
C57 C58 1.304 . S
C57 C61 1.323 . S
C58 C57 1.304 . S
C58 C59 1.371 . S
C58 H72 0.930 . S
C59 C56 1.344 . S
C59 C58 1.371 . S
C59 H73 0.931 . S
C60 C56 1.328 . S
C60 C61 1.433 . S
C60 H74 0.931 . S
C61 C57 1.323 . S
C61 C60 1.433 . S
C61 H75 0.933 . S
C62 Dy40 2.738 . S
C62 O45 1.255 . S
C62 O46 1.249 . S
C62 C56 1.516 . S
C63 O47 1.254 . S
C63 O48 1.257 . S
C64 O49 1.266 . S
C64 O50 1.236 . S
C65 C68 1.344 . S
C65 C69 1.328 . S
C65 C71 1.516 . S
C66 C67 1.304 . S
C66 C70 1.323 . S
C67 C66 1.304 . S
C67 C68 1.371 . S
C67 H76 0.930 . S
C68 C65 1.344 . S
C68 C67 1.371 . S
C68 H77 0.931 . S
C69 C65 1.328 . S
C69 C70 1.433 . S
C69 H78 0.931 . S
C70 C66 1.323 . S
C70 C69 1.433 . S
C70 H79 0.933 . S
C71 Dy41 2.738 . S
C71 O51 1.255 . S
C71 O52 1.249 . S
C71 C65 1.516 . S
H72 C58 0.930 . S
H73 C59 0.931 . S
H74 C60 0.931 . S
H75 C61 0.933 . S
H76 C67 0.930 . S
H77 C68 0.931 . S
H78 C69 0.931 . S
H79 C70 0.933 . S
Dy80 O83 2.307 . S
Dy80 O85 2.395 . S
Dy80 O86 2.379 . S
Dy80 O88 2.339 . S
Dy80 O90 2.298 . S
Dy80 O94 2.275 . S
Dy80 C102 2.738 . S
Dy81 O84 2.298 . S
Dy81 O87 2.275 . S
Dy81 O89 2.307 . S
Dy81 O91 2.395 . S
Dy81 O92 2.379 . S
Dy81 O95 2.339 . S
Dy81 C111 2.738 . S
C82 O94 1.254 . S
C82 O95 1.257 . S
O83 Dy80 2.307 . S
O83 C93 1.266 . S
O84 Dy81 2.298 . S
O84 C93 1.236 . S
O85 Dy80 2.395 . S
O85 C102 1.255 . S
O86 Dy80 2.379 . S
O86 C102 1.249 . S
O87 Dy81 2.275 . S
O87 C103 1.254 . S
O88 Dy80 2.339 . S
O88 C103 1.257 . S
O89 Dy81 2.307 . S
O89 C104 1.266 . S
O90 Dy80 2.298 . S
O90 C104 1.236 . S
O91 Dy81 2.395 . S
O91 C111 1.255 . S
O92 Dy81 2.379 . S
O92 C111 1.249 . S
C93 O83 1.266 . S
C93 O84 1.236 . S
O94 Dy80 2.275 . S
O94 C82 1.254 . S
O95 Dy81 2.339 . S
O95 C82 1.257 . S
C96 C99 1.344 . S
C96 C100 1.328 . S
C96 C102 1.516 . S
C97 C98 1.304 . S
C97 C101 1.323 . S
C98 C97 1.304 . S
C98 C99 1.371 . S
C98 H112 0.930 . S
C99 C96 1.344 . S
C99 C98 1.371 . S
C99 H113 0.931 . S
C100 C96 1.328 . S
C100 C101 1.433 . S
C100 H114 0.931 . S
C101 C97 1.323 . S
C101 C100 1.433 . S
C101 H115 0.933 . S
C102 Dy80 2.738 . S
C102 O85 1.255 . S
C102 O86 1.249 . S
C102 C96 1.516 . S
C103 O87 1.254 . S
C103 O88 1.257 . S
C104 O89 1.266 . S
C104 O90 1.236 . S
C105 C108 1.344 . S
C105 C109 1.328 . S
C105 C111 1.516 1_554 S
C106 C107 1.304 . S
C106 C110 1.323 . S
C107 C106 1.304 . S
C107 C108 1.371 . S
C107 H116 0.930 . S
C108 C105 1.344 . S
C108 C107 1.371 . S
C108 H117 0.931 . S
C109 C105 1.328 . S
C109 C110 1.433 . S
C109 H118 0.931 . S
C110 C106 1.323 . S
C110 C109 1.433 . S
C110 H119 0.933 . S
C111 Dy81 2.738 . S
C111 O91 1.255 . S
C111 O92 1.249 . S
C111 C105 1.516 1_556 S
H112 C98 0.930 . S
H113 C99 0.931 . S
H114 C100 0.931 . S
H115 C101 0.933 . S
H116 C107 0.930 . S
H117 C108 0.931 . S
H118 C109 0.931 . S
H119 C110 0.933 . S
Dy120 O123 2.307 . S
Dy120 O125 2.395 . S
Dy120 O126 2.379 . S
Dy120 O128 2.339 . S
Dy120 O130 2.298 . S
Dy120 O134 2.275 . S
Dy120 C142 2.738 . S
Dy121 O124 2.298 . S
Dy121 O127 2.275 . S
Dy121 O129 2.307 . S
Dy121 O131 2.395 . S
Dy121 O132 2.379 . S
Dy121 O135 2.339 . S
Dy121 C151 2.738 . S
C122 O134 1.254 . S
C122 O135 1.257 . S
O123 Dy120 2.307 . S
O123 C133 1.266 . S
O124 Dy121 2.298 . S
O124 C133 1.236 . S
O125 Dy120 2.395 . S
O125 C142 1.255 . S
O126 Dy120 2.379 . S
O126 C142 1.249 . S
O127 Dy121 2.275 . S
O127 C143 1.254 . S
O128 Dy120 2.339 . S
O128 C143 1.257 . S
O129 Dy121 2.307 . S
O129 C144 1.266 . S
O130 Dy120 2.298 . S
O130 C144 1.236 . S
O131 Dy121 2.395 . S
O131 C151 1.255 . S
O132 Dy121 2.379 . S
O132 C151 1.249 . S
C133 O123 1.266 . S
C133 O124 1.236 . S
O134 Dy120 2.275 . S
O134 C122 1.254 . S
O135 Dy121 2.339 . S
O135 C122 1.257 . S
C136 C139 1.344 . S
C136 C140 1.328 . S
C136 C142 1.516 . S
C137 C138 1.304 . S
C137 C141 1.323 . S
C138 C137 1.304 . S
C138 C139 1.371 . S
C138 H152 0.930 . S
C139 C136 1.344 . S
C139 C138 1.371 . S
C139 H153 0.931 . S
C140 C136 1.328 . S
C140 C141 1.433 . S
C140 H154 0.931 . S
C141 C137 1.323 . S
C141 C140 1.433 . S
C141 H155 0.933 . S
C142 Dy120 2.738 . S
C142 O125 1.255 . S
C142 O126 1.249 . S
C142 C136 1.516 . S
C143 O127 1.254 . S
C143 O128 1.257 . S
C144 O129 1.266 . S
C144 O130 1.236 . S
C145 C148 1.344 . S
C145 C149 1.328 . S
C145 C151 1.516 . S
C146 C147 1.304 . S
C146 C150 1.323 . S
C147 C146 1.304 . S
C147 C148 1.371 . S
C147 H156 0.930 . S
C148 C145 1.344 . S
C148 C147 1.371 . S
C148 H157 0.931 . S
C149 C145 1.328 . S
C149 C150 1.433 . S
C149 H158 0.931 . S
C150 C146 1.323 . S
C150 C149 1.433 . S
C150 H159 0.933 . S
C151 Dy121 2.738 . S
C151 O131 1.255 . S
C151 O132 1.249 . S
C151 C145 1.516 . S
H152 C138 0.930 . S
H153 C139 0.931 . S
H154 C140 0.931 . S
H155 C141 0.933 . S
H156 C147 0.930 . S
H157 C148 0.931 . S
H158 C149 0.931 . S
H159 C150 0.933 . S
Dy160 O163 2.307 . S
Dy160 O165 2.395 . S
Dy160 O166 2.379 . S
Dy160 O168 2.339 . S
Dy160 O170 2.298 . S
Dy160 O174 2.275 . S
Dy160 C182 2.738 . S
Dy161 O164 2.298 . S
Dy161 O167 2.275 . S
Dy161 O169 2.307 . S
Dy161 O171 2.395 . S
Dy161 O172 2.379 . S
Dy161 O175 2.339 . S
Dy161 C191 2.738 . S
C162 O174 1.254 . S
C162 O175 1.257 . S
O163 Dy160 2.307 . S
O163 C173 1.266 . S
O164 Dy161 2.298 . S
O164 C173 1.236 . S
O165 Dy160 2.395 . S
O165 C182 1.255 . S
O166 Dy160 2.379 . S
O166 C182 1.249 . S
O167 Dy161 2.275 . S
O167 C183 1.254 . S
O168 Dy160 2.339 . S
O168 C183 1.257 . S
O169 Dy161 2.307 . S
O169 C184 1.266 . S
O170 Dy160 2.298 . S
O170 C184 1.236 . S
O171 Dy161 2.395 . S
O171 C191 1.255 . S
O172 Dy161 2.379 . S
O172 C191 1.249 . S
C173 O163 1.266 . S
C173 O164 1.236 . S
O174 Dy160 2.275 . S
O174 C162 1.254 . S
O175 Dy161 2.339 . S
O175 C162 1.257 . S
C176 C179 1.344 . S
C176 C180 1.328 . S
C176 C182 1.516 . S
C177 C178 1.304 . S
C177 C181 1.323 . S
C178 C177 1.304 . S
C178 C179 1.371 . S
C178 H192 0.930 . S
C179 C176 1.344 . S
C179 C178 1.371 . S
C179 H193 0.931 . S
C180 C176 1.328 . S
C180 C181 1.433 . S
C180 H194 0.931 . S
C181 C177 1.323 . S
C181 C180 1.433 . S
C181 H195 0.933 . S
C182 Dy160 2.738 . S
C182 O165 1.255 . S
C182 O166 1.249 . S
C182 C176 1.516 . S
C183 O167 1.254 . S
C183 O168 1.257 . S
C184 O169 1.266 . S
C184 O170 1.236 . S
C185 C188 1.344 . S
C185 C189 1.328 . S
C185 C191 1.516 . S
C186 C187 1.304 . S
C186 C190 1.323 . S
C187 C186 1.304 . S
C187 C188 1.371 . S
C187 H196 0.930 . S
C188 C185 1.344 . S
C188 C187 1.371 . S
C188 H197 0.931 . S
C189 C185 1.328 . S
C189 C190 1.433 . S
C189 H198 0.931 . S
C190 C186 1.323 . S
C190 C189 1.433 . S
C190 H199 0.933 . S
C191 Dy161 2.738 . S
C191 O171 1.255 . S
C191 O172 1.249 . S
C191 C185 1.516 . S
H192 C178 0.930 . S
H193 C179 0.931 . S
H194 C180 0.931 . S
H195 C181 0.933 . S
H196 C187 0.930 . S
H197 C188 0.931 . S
H198 C189 0.931 . S
H199 C190 0.933 . S
Dy200 O203 2.307 . S
Dy200 O205 2.395 . S
Dy200 O206 2.379 . S
Dy200 O208 2.339 . S
Dy200 O210 2.298 . S
Dy200 O214 2.275 . S
Dy200 C222 2.738 . S
Dy201 O204 2.298 . S
Dy201 O207 2.275 . S
Dy201 O209 2.307 . S
Dy201 O211 2.395 . S
Dy201 O212 2.379 . S
Dy201 O215 2.339 . S
Dy201 C231 2.738 . S
C202 O214 1.254 . S
C202 O215 1.257 . S
O203 Dy200 2.307 . S
O203 C213 1.266 . S
O204 Dy201 2.298 . S
O204 C213 1.236 . S
O205 Dy200 2.395 . S
O205 C222 1.255 . S
O206 Dy200 2.379 . S
O206 C222 1.249 . S
O207 Dy201 2.275 . S
O207 C223 1.254 . S
O208 Dy200 2.339 . S
O208 C223 1.257 . S
O209 Dy201 2.307 . S
O209 C224 1.266 . S
O210 Dy200 2.298 . S
O210 C224 1.236 . S
O211 Dy201 2.395 . S
O211 C231 1.255 . S
O212 Dy201 2.379 . S
O212 C231 1.249 . S
C213 O203 1.266 . S
C213 O204 1.236 . S
O214 Dy200 2.275 . S
O214 C202 1.254 . S
O215 Dy201 2.339 . S
O215 C202 1.257 . S
C216 C219 1.344 . S
C216 C220 1.328 . S
C216 C222 1.516 . S
C217 C218 1.304 . S
C217 C221 1.323 . S
C218 C217 1.304 . S
C218 C219 1.371 . S
C218 H232 0.930 . S
C219 C216 1.344 . S
C219 C218 1.371 . S
C219 H233 0.931 . S
C220 C216 1.328 . S
C220 C221 1.433 . S
C220 H234 0.931 . S
C221 C217 1.323 . S
C221 C220 1.433 . S
C221 H235 0.933 . S
C222 Dy200 2.738 . S
C222 O205 1.255 . S
C222 O206 1.249 . S
C222 C216 1.516 . S
C223 O207 1.254 . S
C223 O208 1.257 . S
C224 O209 1.266 . S
C224 O210 1.236 . S
C225 C228 1.344 . S
C225 C229 1.328 . S
C225 C231 1.516 1_554 S
C226 C227 1.304 . S
C226 C230 1.323 . S
C227 C226 1.304 . S
C227 C228 1.371 . S
C227 H236 0.930 . S
C228 C225 1.344 . S
C228 C227 1.371 . S
C228 H237 0.931 . S
C229 C225 1.328 . S
C229 C230 1.433 . S
C229 H238 0.931 . S
C230 C226 1.323 . S
C230 C229 1.433 . S
C230 H239 0.933 . S
C231 Dy201 2.738 . S
C231 O211 1.255 . S
C231 O212 1.249 . S
C231 C225 1.516 1_556 S
H232 C218 0.930 . S
H233 C219 0.931 . S
H234 C220 0.931 . S
H235 C221 0.933 . S
H236 C227 0.930 . S
H237 C228 0.931 . S
H238 C229 0.931 . S
H239 C230 0.933 . S
Dy240 O243 2.307 . S
Dy240 O245 2.395 . S
Dy240 O246 2.379 . S
Dy240 O248 2.339 . S
Dy240 O250 2.298 . S
Dy240 O254 2.275 . S
Dy240 C262 2.738 . S
Dy241 O244 2.298 . S
Dy241 O247 2.275 . S
Dy241 O249 2.307 . S
Dy241 O251 2.395 . S
Dy241 O252 2.379 . S
Dy241 O255 2.339 . S
Dy241 C271 2.738 . S
C242 O254 1.254 . S
C242 O255 1.257 . S
O243 Dy240 2.307 . S
O243 C253 1.266 . S
O244 Dy241 2.298 . S
O244 C253 1.236 . S
O245 Dy240 2.395 . S
O245 C262 1.255 . S
O246 Dy240 2.379 . S
O246 C262 1.249 . S
O247 Dy241 2.275 . S
O247 C263 1.254 . S
O248 Dy240 2.339 . S
O248 C263 1.257 . S
O249 Dy241 2.307 . S
O249 C264 1.266 . S
O250 Dy240 2.298 . S
O250 C264 1.236 . S
O251 Dy241 2.395 . S
O251 C271 1.255 . S
O252 Dy241 2.379 . S
O252 C271 1.249 . S
C253 O243 1.266 . S
C253 O244 1.236 . S
O254 Dy240 2.275 . S
O254 C242 1.254 . S
O255 Dy241 2.339 . S
O255 C242 1.257 . S
C256 C259 1.344 . S
C256 C260 1.328 . S
C256 C262 1.516 . S
C257 C258 1.304 . S
C257 C261 1.323 . S
C258 C257 1.304 . S
C258 C259 1.371 . S
C258 H272 0.930 . S
C259 C256 1.344 . S
C259 C258 1.371 . S
C259 H273 0.931 . S
C260 C256 1.328 . S
C260 C261 1.433 . S
C260 H274 0.931 . S
C261 C257 1.323 . S
C261 C260 1.433 . S
C261 H275 0.933 . S
C262 Dy240 2.738 . S
C262 O245 1.255 . S
C262 O246 1.249 . S
C262 C256 1.516 . S
C263 O247 1.254 . S
C263 O248 1.257 . S
C264 O249 1.266 . S
C264 O250 1.236 . S
C265 C268 1.344 . S
C265 C269 1.328 . S
C265 C271 1.516 . S
C266 C267 1.304 . S
C266 C270 1.323 . S
C267 C266 1.304 . S
C267 C268 1.371 . S
C267 H276 0.930 . S
C268 C265 1.344 . S
C268 C267 1.371 . S
C268 H277 0.931 . S
C269 C265 1.328 . S
C269 C270 1.433 . S
C269 H278 0.931 . S
C270 C266 1.323 . S
C270 C269 1.433 . S
C270 H279 0.933 . S
C271 Dy241 2.738 . S
C271 O251 1.255 . S
C271 O252 1.249 . S
C271 C265 1.516 . S
H272 C258 0.930 . S
H273 C259 0.931 . S
H274 C260 0.931 . S
H275 C261 0.933 . S
H276 C267 0.930 . S
H277 C268 0.931 . S
H278 C269 0.931 . S
H279 C270 0.933 . S
Dy280 O283 2.307 . S
Dy280 O285 2.395 . S
Dy280 O286 2.379 . S
Dy280 O288 2.339 . S
Dy280 O290 2.298 . S
Dy280 O294 2.275 . S
Dy280 C302 2.738 . S
Dy281 O284 2.298 . S
Dy281 O287 2.275 . S
Dy281 O289 2.307 . S
Dy281 O291 2.395 . S
Dy281 O292 2.379 . S
Dy281 O295 2.339 . S
Dy281 C311 2.738 . S
C282 O294 1.254 . S
C282 O295 1.257 . S
O283 Dy280 2.307 . S
O283 C293 1.266 . S
O284 Dy281 2.298 . S
O284 C293 1.236 . S
O285 Dy280 2.395 . S
O285 C302 1.255 . S
O286 Dy280 2.379 . S
O286 C302 1.249 . S
O287 Dy281 2.275 . S
O287 C303 1.254 . S
O288 Dy280 2.339 . S
O288 C303 1.257 . S
O289 Dy281 2.307 . S
O289 C304 1.266 . S
O290 Dy280 2.298 . S
O290 C304 1.236 . S
O291 Dy281 2.395 . S
O291 C311 1.255 . S
O292 Dy281 2.379 . S
O292 C311 1.249 . S
C293 O283 1.266 . S
C293 O284 1.236 . S
O294 Dy280 2.275 . S
O294 C282 1.254 . S
O295 Dy281 2.339 . S
O295 C282 1.257 . S
C296 C299 1.344 . S
C296 C300 1.328 . S
C296 C302 1.516 . S
C297 C298 1.304 . S
C297 C301 1.323 . S
C298 C297 1.304 . S
C298 C299 1.371 . S
C298 H312 0.930 . S
C299 C296 1.344 . S
C299 C298 1.371 . S
C299 H313 0.931 . S
C300 C296 1.328 . S
C300 C301 1.433 . S
C300 H314 0.931 . S
C301 C297 1.323 . S
C301 C300 1.433 . S
C301 H315 0.933 . S
C302 Dy280 2.738 . S
C302 O285 1.255 . S
C302 O286 1.249 . S
C302 C296 1.516 . S
C303 O287 1.254 . S
C303 O288 1.257 . S
C304 O289 1.266 . S
C304 O290 1.236 . S
C305 C308 1.344 . S
C305 C309 1.328 . S
C305 C311 1.516 . S
C306 C307 1.304 . S
C306 C310 1.323 . S
C307 C306 1.304 . S
C307 C308 1.371 . S
C307 H316 0.930 . S
C308 C305 1.344 . S
C308 C307 1.371 . S
C308 H317 0.931 . S
C309 C305 1.328 . S
C309 C310 1.433 . S
C309 H318 0.931 . S
C310 C306 1.323 . S
C310 C309 1.433 . S
C310 H319 0.933 . S
C311 Dy281 2.738 . S
C311 O291 1.255 . S
C311 O292 1.249 . S
C311 C305 1.516 . S
H312 C298 0.930 . S
H313 C299 0.931 . S
H314 C300 0.931 . S
H315 C301 0.933 . S
H316 C307 0.930 . S
H317 C308 0.931 . S
H318 C309 0.931 . S
H319 C310 0.933 . S
Dy320 O323 2.307 . S
Dy320 O325 2.395 . S
Dy320 O326 2.379 . S
Dy320 O328 2.339 . S
Dy320 O330 2.298 . S
Dy320 O334 2.275 . S
Dy320 C342 2.738 . S
Dy321 O324 2.298 . S
Dy321 O327 2.275 . S
Dy321 O329 2.307 . S
Dy321 O331 2.395 . S
Dy321 O332 2.379 . S
Dy321 O335 2.339 . S
Dy321 C351 2.738 . S
C322 O334 1.254 . S
C322 O335 1.257 . S
O323 Dy320 2.307 . S
O323 C333 1.266 . S
O324 Dy321 2.298 . S
O324 C333 1.236 . S
O325 Dy320 2.395 . S
O325 C342 1.255 . S
O326 Dy320 2.379 . S
O326 C342 1.249 . S
O327 Dy321 2.275 . S
O327 C343 1.254 . S
O328 Dy320 2.339 . S
O328 C343 1.257 . S
O329 Dy321 2.307 . S
O329 C344 1.266 . S
O330 Dy320 2.298 . S
O330 C344 1.236 . S
O331 Dy321 2.395 . S
O331 C351 1.255 . S
O332 Dy321 2.379 . S
O332 C351 1.249 . S
C333 O323 1.266 . S
C333 O324 1.236 . S
O334 Dy320 2.275 . S
O334 C322 1.254 . S
O335 Dy321 2.339 . S
O335 C322 1.257 . S
C336 C339 1.344 . S
C336 C340 1.328 . S
C336 C342 1.516 . S
C337 C338 1.304 . S
C337 C341 1.323 . S
C338 C337 1.304 . S
C338 C339 1.371 . S
C338 H352 0.930 . S
C339 C336 1.344 . S
C339 C338 1.371 . S
C339 H353 0.931 . S
C340 C336 1.328 . S
C340 C341 1.433 . S
C340 H354 0.931 . S
C341 C337 1.323 . S
C341 C340 1.433 . S
C341 H355 0.933 . S
C342 Dy320 2.738 . S
C342 O325 1.255 . S
C342 O326 1.249 . S
C342 C336 1.516 . S
C343 O327 1.254 . S
C343 O328 1.257 . S
C344 O329 1.266 . S
C344 O330 1.236 . S
C345 C348 1.344 . S
C345 C349 1.328 . S
C345 C351 1.516 1_556 S
C346 C347 1.304 . S
C346 C350 1.323 . S
C347 C346 1.304 . S
C347 C348 1.371 . S
C347 H356 0.930 . S
C348 C345 1.344 . S
C348 C347 1.371 . S
C348 H357 0.931 . S
C349 C345 1.328 . S
C349 C350 1.433 . S
C349 H358 0.931 . S
C350 C346 1.323 . S
C350 C349 1.433 . S
C350 H359 0.933 . S
C351 Dy321 2.738 . S
C351 O331 1.255 . S
C351 O332 1.249 . S
C351 C345 1.516 1_554 S
H352 C338 0.930 . S
H353 C339 0.931 . S
H354 C340 0.931 . S
H355 C341 0.933 . S
H356 C347 0.930 . S
H357 C348 0.931 . S
H358 C349 0.931 . S
H359 C350 0.933 . S
Dy360 O363 2.307 . S
Dy360 O365 2.395 . S
Dy360 O366 2.379 . S
Dy360 O368 2.339 . S
Dy360 O370 2.298 . S
Dy360 O374 2.275 . S
Dy360 C382 2.738 . S
Dy361 O364 2.298 . S
Dy361 O367 2.275 . S
Dy361 O369 2.307 . S
Dy361 O371 2.395 . S
Dy361 O372 2.379 . S
Dy361 O375 2.339 . S
Dy361 C391 2.738 . S
C362 O374 1.254 . S
C362 O375 1.257 . S
O363 Dy360 2.307 . S
O363 C373 1.266 . S
O364 Dy361 2.298 . S
O364 C373 1.236 . S
O365 Dy360 2.395 . S
O365 C382 1.255 . S
O366 Dy360 2.379 . S
O366 C382 1.249 . S
O367 Dy361 2.275 . S
O367 C383 1.254 . S
O368 Dy360 2.339 . S
O368 C383 1.257 . S
O369 Dy361 2.307 . S
O369 C384 1.266 . S
O370 Dy360 2.298 . S
O370 C384 1.236 . S
O371 Dy361 2.395 . S
O371 C391 1.255 . S
O372 Dy361 2.379 . S
O372 C391 1.249 . S
C373 O363 1.266 . S
C373 O364 1.236 . S
O374 Dy360 2.275 . S
O374 C362 1.254 . S
O375 Dy361 2.339 . S
O375 C362 1.257 . S
C376 C379 1.344 . S
C376 C380 1.328 . S
C376 C382 1.516 . S
C377 C378 1.304 . S
C377 C381 1.323 . S
C378 C377 1.304 . S
C378 C379 1.371 . S
C378 H392 0.930 . S
C379 C376 1.344 . S
C379 C378 1.371 . S
C379 H393 0.931 . S
C380 C376 1.328 . S
C380 C381 1.433 . S
C380 H394 0.931 . S
C381 C377 1.323 . S
C381 C380 1.433 . S
C381 H395 0.933 . S
C382 Dy360 2.738 . S
C382 O365 1.255 . S
C382 O366 1.249 . S
C382 C376 1.516 . S
C383 O367 1.254 . S
C383 O368 1.257 . S
C384 O369 1.266 . S
C384 O370 1.236 . S
C385 C388 1.344 . S
C385 C389 1.328 . S
C385 C391 1.516 . S
C386 C387 1.304 . S
C386 C390 1.323 . S
C387 C386 1.304 . S
C387 C388 1.371 . S
C387 H396 0.930 . S
C388 C385 1.344 . S
C388 C387 1.371 . S
C388 H397 0.931 . S
C389 C385 1.328 . S
C389 C390 1.433 . S
C389 H398 0.931 . S
C390 C386 1.323 . S
C390 C389 1.433 . S
C390 H399 0.933 . S
C391 Dy361 2.738 . S
C391 O371 1.255 . S
C391 O372 1.249 . S
C391 C385 1.516 . S
H392 C378 0.930 . S
H393 C379 0.931 . S
H394 C380 0.931 . S
H395 C381 0.933 . S
H396 C387 0.930 . S
H397 C388 0.931 . S
H398 C389 0.931 . S
H399 C390 0.933 . S
Dy400 O403 2.307 . S
Dy400 O405 2.395 . S
Dy400 O406 2.379 . S
Dy400 O408 2.339 . S
Dy400 O410 2.298 . S
Dy400 O414 2.275 . S
Dy400 C422 2.738 . S
Dy401 O404 2.298 . S
Dy401 O407 2.275 . S
Dy401 O409 2.307 . S
Dy401 O411 2.395 . S
Dy401 O412 2.379 . S
Dy401 O415 2.339 . S
Dy401 C431 2.738 . S
C402 O414 1.254 . S
C402 O415 1.257 . S
O403 Dy400 2.307 . S
O403 C413 1.266 . S
O404 Dy401 2.298 . S
O404 C413 1.236 . S
O405 Dy400 2.395 . S
O405 C422 1.255 . S
O406 Dy400 2.379 . S
O406 C422 1.249 . S
O407 Dy401 2.275 . S
O407 C423 1.254 . S
O408 Dy400 2.339 . S
O408 C423 1.257 . S
O409 Dy401 2.307 . S
O409 C424 1.266 . S
O410 Dy400 2.298 . S
O410 C424 1.236 . S
O411 Dy401 2.395 . S
O411 C431 1.255 . S
O412 Dy401 2.379 . S
O412 C431 1.249 . S
C413 O403 1.266 . S
C413 O404 1.236 . S
O414 Dy400 2.275 . S
O414 C402 1.254 . S
O415 Dy401 2.339 . S
O415 C402 1.257 . S
C416 C419 1.344 . S
C416 C420 1.328 . S
C416 C422 1.516 . S
C417 C418 1.304 . S
C417 C421 1.323 . S
C418 C417 1.304 . S
C418 C419 1.371 . S
C418 H432 0.930 . S
C419 C416 1.344 . S
C419 C418 1.371 . S
C419 H433 0.931 . S
C420 C416 1.328 . S
C420 C421 1.433 . S
C420 H434 0.931 . S
C421 C417 1.323 . S
C421 C420 1.433 . S
C421 H435 0.933 . S
C422 Dy400 2.738 . S
C422 O405 1.255 . S
C422 O406 1.249 . S
C422 C416 1.516 . S
C423 O407 1.254 . S
C423 O408 1.257 . S
C424 O409 1.266 . S
C424 O410 1.236 . S
C425 C428 1.344 . S
C425 C429 1.328 . S
C425 C431 1.516 . S
C426 C427 1.304 . S
C426 C430 1.323 . S
C427 C426 1.304 . S
C427 C428 1.371 . S
C427 H436 0.930 . S
C428 C425 1.344 . S
C428 C427 1.371 . S
C428 H437 0.931 . S
C429 C425 1.328 . S
C429 C430 1.433 . S
C429 H438 0.931 . S
C430 C426 1.323 . S
C430 C429 1.433 . S
C430 H439 0.933 . S
C431 Dy401 2.738 . S
C431 O411 1.255 . S
C431 O412 1.249 . S
C431 C425 1.516 . S
H432 C418 0.930 . S
H433 C419 0.931 . S
H434 C420 0.931 . S
H435 C421 0.933 . S
H436 C427 0.930 . S
H437 C428 0.931 . S
H438 C429 0.931 . S
H439 C430 0.933 . S
Dy440 O443 2.307 . S
Dy440 O445 2.395 . S
Dy440 O446 2.379 . S
Dy440 O448 2.339 . S
Dy440 O450 2.298 . S
Dy440 O454 2.275 . S
Dy440 C462 2.738 . S
Dy441 O444 2.298 . S
Dy441 O447 2.275 . S
Dy441 O449 2.307 . S
Dy441 O451 2.395 . S
Dy441 O452 2.379 . S
Dy441 O455 2.339 . S
Dy441 C471 2.738 . S
C442 O454 1.254 . S
C442 O455 1.257 . S
O443 Dy440 2.307 . S
O443 C453 1.266 . S
O444 Dy441 2.298 . S
O444 C453 1.236 . S
O445 Dy440 2.395 . S
O445 C462 1.255 . S
O446 Dy440 2.379 . S
O446 C462 1.249 . S
O447 Dy441 2.275 . S
O447 C463 1.254 . S
O448 Dy440 2.339 . S
O448 C463 1.257 . S
O449 Dy441 2.307 . S
O449 C464 1.266 . S
O450 Dy440 2.298 . S
O450 C464 1.236 . S
O451 Dy441 2.395 . S
O451 C471 1.255 . S
O452 Dy441 2.379 . S
O452 C471 1.249 . S
C453 O443 1.266 . S
C453 O444 1.236 . S
O454 Dy440 2.275 . S
O454 C442 1.254 . S
O455 Dy441 2.339 . S
O455 C442 1.257 . S
C456 C459 1.344 . S
C456 C460 1.328 . S
C456 C462 1.516 . S
C457 C458 1.304 . S
C457 C461 1.323 . S
C458 C457 1.304 . S
C458 C459 1.371 . S
C458 H472 0.930 . S
C459 C456 1.344 . S
C459 C458 1.371 . S
C459 H473 0.931 . S
C460 C456 1.328 . S
C460 C461 1.433 . S
C460 H474 0.931 . S
C461 C457 1.323 . S
C461 C460 1.433 . S
C461 H475 0.933 . S
C462 Dy440 2.738 . S
C462 O445 1.255 . S
C462 O446 1.249 . S
C462 C456 1.516 . S
C463 O447 1.254 . S
C463 O448 1.257 . S
C464 O449 1.266 . S
C464 O450 1.236 . S
C465 C468 1.344 . S
C465 C469 1.328 . S
C465 C471 1.516 1_556 S
C466 C467 1.304 . S
C466 C470 1.323 . S
C467 C466 1.304 . S
C467 C468 1.371 . S
C467 H476 0.930 . S
C468 C465 1.344 . S
C468 C467 1.371 . S
C468 H477 0.931 . S
C469 C465 1.328 . S
C469 C470 1.433 . S
C469 H478 0.931 . S
C470 C466 1.323 . S
C470 C469 1.433 . S
C470 H479 0.933 . S
C471 Dy441 2.738 . S
C471 O451 1.255 . S
C471 O452 1.249 . S
C471 C465 1.516 1_554 S
H472 C458 0.930 . S
H473 C459 0.931 . S
H474 C460 0.931 . S
H475 C461 0.933 . S
H476 C467 0.930 . S
H477 C468 0.931 . S
H478 C469 0.931 . S
H479 C470 0.933 . S
H480 C488 0.929 . S
H481 C490 0.930 . S
H482 C492 0.930 . S
H483 C495 0.929 . S
H484 C498 0.930 . S
H485 C500 0.960 . S
H486 C500 0.960 . S
H487 C500 0.960 . S
C488 H480 0.929 . S
C488 C489 1.377 . S
C488 C490 1.384 . S
C489 C488 1.377 . S
C489 C495 1.390 . S
C490 H481 0.930 . S
C490 C488 1.384 . S
C490 C491 1.372 . S
C491 C490 1.372 . S
C491 C492 1.400 . S
C491 C496 1.490 . S
C492 H482 0.930 . S
C492 C491 1.400 . S
C492 C495 1.386 . S
H493 C509 0.930 . S
H494 C510 0.931 . S
C495 H483 0.929 . S
C495 C489 1.390 . S
C495 C492 1.386 . S
C496 C491 1.490 . S
C496 C498 1.395 . S
C496 C499 1.403 . S
H497 C503 0.930 . S
C498 H484 0.930 . S
C498 C496 1.395 . S
C498 C501 1.403 . S
C499 C496 1.403 . S
C499 C500 1.524 . S
C499 C503 1.400 . S
C500 H485 0.960 . S
C500 H486 0.960 . S
C500 H487 0.960 . S
C500 C499 1.524 . S
C501 C498 1.403 . S
C501 C502 1.392 . S
C501 C505 1.495 . S
C502 C501 1.392 . S
C502 C503 1.385 . S
C502 C504 1.478 . S
C503 H497 0.930 . S
C503 C499 1.400 . S
C503 C502 1.385 . S
C504 C502 1.478 . S
C504 C506 1.381 . S
C504 C510 1.383 . S
C505 C501 1.495 . S
C505 H511 0.959 . S
C505 H512 0.961 . S
C505 H513 0.960 . S
C506 C504 1.381 . S
C506 C507 1.394 . S
C506 H514 0.930 . S
C507 C506 1.394 . S
C507 C508 1.383 . S
C507 H515 0.929 . S
C508 C507 1.383 . S
C508 C509 1.377 . S
C509 H493 0.930 . S
C509 C508 1.377 . S
C509 C510 1.379 . S
C510 H494 0.931 . S
C510 C504 1.383 . S
C510 C509 1.379 . S
H511 C505 0.959 . S
H512 C505 0.961 . S
H513 C505 0.960 . S
H514 C506 0.930 . S
H515 C507 0.929 . S
H516 C524 0.929 . S
H517 C526 0.930 . S
H518 C528 0.930 . S
H519 C531 0.929 . S
H520 C534 0.930 . S
H521 C536 0.960 . S
H522 C536 0.960 . S
H523 C536 0.960 . S
C524 H516 0.929 . S
C524 C525 1.377 . S
C524 C526 1.384 . S
C525 C524 1.377 . S
C525 C531 1.390 . S
C526 H517 0.930 . S
C526 C524 1.384 . S
C526 C527 1.372 . S
C527 C526 1.372 . S
C527 C528 1.400 . S
C527 C532 1.490 . S
C528 H518 0.930 . S
C528 C527 1.400 . S
C528 C531 1.386 . S
H529 C545 0.930 . S
H530 C546 0.931 . S
C531 H519 0.929 . S
C531 C525 1.390 . S
C531 C528 1.386 . S
C532 C527 1.490 . S
C532 C534 1.395 . S
C532 C535 1.403 . S
H533 C539 0.930 . S
C534 H520 0.930 . S
C534 C532 1.395 . S
C534 C537 1.403 . S
C535 C532 1.403 . S
C535 C536 1.524 . S
C535 C539 1.400 . S
C536 H521 0.960 . S
C536 H522 0.960 . S
C536 H523 0.960 . S
C536 C535 1.524 . S
C537 C534 1.403 . S
C537 C538 1.392 . S
C537 C541 1.495 . S
C538 C537 1.392 . S
C538 C539 1.385 . S
C538 C540 1.478 . S
C539 H533 0.930 . S
C539 C535 1.400 . S
C539 C538 1.385 . S
C540 C538 1.478 . S
C540 C542 1.381 . S
C540 C546 1.383 . S
C541 C537 1.495 . S
C541 H547 0.959 . S
C541 H548 0.961 . S
C541 H549 0.960 . S
C542 C540 1.381 . S
C542 C543 1.394 . S
C542 H550 0.930 . S
C543 C542 1.394 . S
C543 C544 1.383 . S
C543 H551 0.929 . S
C544 C543 1.383 . S
C544 C545 1.377 . S
C545 H529 0.930 . S
C545 C544 1.377 . S
C545 C546 1.379 . S
C546 H530 0.931 . S
C546 C540 1.383 . S
C546 C545 1.379 . S
H547 C541 0.959 . S
H548 C541 0.961 . S
H549 C541 0.960 . S
H550 C542 0.930 . S
H551 C543 0.929 . S
H552 C560 0.929 . S
H553 C562 0.930 . S
H554 C564 0.930 . S
H555 C567 0.929 . S
H556 C570 0.930 . S
H557 C572 0.960 . S
H558 C572 0.960 . S
H559 C572 0.960 . S
C560 H552 0.929 . S
C560 C561 1.377 . S
C560 C562 1.384 . S
C561 C560 1.377 . S
C561 C567 1.390 . S
C562 H553 0.930 . S
C562 C560 1.384 . S
C562 C563 1.372 . S
C563 C562 1.372 . S
C563 C564 1.400 . S
C563 C568 1.490 . S
C564 H554 0.930 . S
C564 C563 1.400 . S
C564 C567 1.386 . S
H565 C581 0.930 . S
H566 C582 0.931 . S
C567 H555 0.929 . S
C567 C561 1.390 . S
C567 C564 1.386 . S
C568 C563 1.490 . S
C568 C570 1.395 . S
C568 C571 1.403 . S
H569 C575 0.930 . S
C570 H556 0.930 . S
C570 C568 1.395 . S
C570 C573 1.403 . S
C571 C568 1.403 . S
C571 C572 1.524 . S
C571 C575 1.400 . S
C572 H557 0.960 . S
C572 H558 0.960 . S
C572 H559 0.960 . S
C572 C571 1.524 . S
C573 C570 1.403 . S
C573 C574 1.392 . S
C573 C577 1.495 . S
C574 C573 1.392 . S
C574 C575 1.385 . S
C574 C576 1.478 . S
C575 H569 0.930 . S
C575 C571 1.400 . S
C575 C574 1.385 . S
C576 C574 1.478 . S
C576 C578 1.381 . S
C576 C582 1.383 . S
C577 C573 1.495 . S
C577 H583 0.959 . S
C577 H584 0.961 . S
C577 H585 0.960 . S
C578 C576 1.381 . S
C578 C579 1.394 . S
C578 H586 0.930 . S
C579 C578 1.394 . S
C579 C580 1.383 . S
C579 H587 0.929 . S
C580 C579 1.383 . S
C580 C581 1.377 . S
C581 H565 0.930 . S
C581 C580 1.377 . S
C581 C582 1.379 . S
C582 H566 0.931 . S
C582 C576 1.383 . S
C582 C581 1.379 . S
H583 C577 0.959 . S
H584 C577 0.961 . S
H585 C577 0.960 . S
H586 C578 0.930 . S
H587 C579 0.929 . S
H588 C596 0.929 . S
H589 C598 0.930 . S
H590 C600 0.930 . S
H591 C603 0.929 . S
H592 C606 0.930 . S
H593 C608 0.960 . S
H594 C608 0.960 . S
H595 C608 0.960 . S
C596 H588 0.929 . S
C596 C597 1.377 . S
C596 C598 1.384 . S
C597 C596 1.377 . S
C597 C603 1.390 . S
C598 H589 0.930 . S
C598 C596 1.384 . S
C598 C599 1.372 . S
C599 C598 1.372 . S
C599 C600 1.400 . S
C599 C604 1.490 . S
C600 H590 0.930 . S
C600 C599 1.400 . S
C600 C603 1.386 . S
H601 C617 0.930 . S
H602 C618 0.931 . S
C603 H591 0.929 . S
C603 C597 1.390 . S
C603 C600 1.386 . S
C604 C599 1.490 . S
C604 C606 1.395 . S
C604 C607 1.403 . S
H605 C611 0.930 . S
C606 H592 0.930 . S
C606 C604 1.395 . S
C606 C609 1.403 . S
C607 C604 1.403 . S
C607 C608 1.524 . S
C607 C611 1.400 . S
C608 H593 0.960 . S
C608 H594 0.960 . S
C608 H595 0.960 . S
C608 C607 1.524 . S
C609 C606 1.403 . S
C609 C610 1.392 . S
C609 C613 1.495 . S
C610 C609 1.392 . S
C610 C611 1.385 . S
C610 C612 1.478 . S
C611 H605 0.930 . S
C611 C607 1.400 . S
C611 C610 1.385 . S
C612 C610 1.478 . S
C612 C614 1.381 . S
C612 C618 1.383 . S
C613 C609 1.495 . S
C613 H619 0.959 . S
C613 H620 0.961 . S
C613 H621 0.960 . S
C614 C612 1.381 . S
C614 C615 1.394 . S
C614 H622 0.930 . S
C615 C614 1.394 . S
C615 C616 1.383 . S
C615 H623 0.929 . S
C616 C615 1.383 . S
C616 C617 1.377 . S
C617 H601 0.930 . S
C617 C616 1.377 . S
C617 C618 1.379 . S
C618 H602 0.931 . S
C618 C612 1.383 . S
C618 C617 1.379 . S
H619 C613 0.959 . S
H620 C613 0.961 . S
H621 C613 0.960 . S
H622 C614 0.930 . S
H623 C615 0.929 . S
H624 C632 0.929 . S
H625 C634 0.930 . S
H626 C636 0.930 . S
H627 C639 0.929 . S
H628 C642 0.930 . S
H629 C644 0.960 . S
H630 C644 0.960 . S
H631 C644 0.960 . S
C632 H624 0.929 . S
C632 C633 1.377 . S
C632 C634 1.384 . S
C633 C632 1.377 . S
C633 C639 1.390 . S
C634 H625 0.930 . S
C634 C632 1.384 . S
C634 C635 1.372 . S
C635 C634 1.372 . S
C635 C636 1.400 . S
C635 C640 1.490 . S
C636 H626 0.930 . S
C636 C635 1.400 . S
C636 C639 1.386 . S
H637 C653 0.930 . S
H638 C654 0.931 . S
C639 H627 0.929 . S
C639 C633 1.390 . S
C639 C636 1.386 . S
C640 C635 1.490 . S
C640 C642 1.395 . S
C640 C643 1.403 . S
H641 C647 0.930 . S
C642 H628 0.930 . S
C642 C640 1.395 . S
C642 C645 1.403 . S
C643 C640 1.403 . S
C643 C644 1.524 . S
C643 C647 1.400 . S
C644 H629 0.960 . S
C644 H630 0.960 . S
C644 H631 0.960 . S
C644 C643 1.524 . S
C645 C642 1.403 . S
C645 C646 1.392 . S
C645 C649 1.495 . S
C646 C645 1.392 . S
C646 C647 1.385 . S
C646 C648 1.478 . S
C647 H641 0.930 . S
C647 C643 1.400 . S
C647 C646 1.385 . S
C648 C646 1.478 . S
C648 C650 1.381 . S
C648 C654 1.383 . S
C649 C645 1.495 . S
C649 H655 0.959 . S
C649 H656 0.961 . S
C649 H657 0.960 . S
C650 C648 1.381 . S
C650 C651 1.394 . S
C650 H658 0.930 . S
C651 C650 1.394 . S
C651 C652 1.383 . S
C651 H659 0.929 . S
C652 C651 1.383 . S
C652 C653 1.377 . S
C653 H637 0.930 . S
C653 C652 1.377 . S
C653 C654 1.379 . S
C654 H638 0.931 . S
C654 C648 1.383 . S
C654 C653 1.379 . S
H655 C649 0.959 . S
H656 C649 0.961 . S
H657 C649 0.960 . S
H658 C650 0.930 . S
H659 C651 0.929 . S
H660 C668 0.929 . S
H661 C670 0.930 . S
H662 C672 0.930 . S
H663 C675 0.929 . S
H664 C678 0.930 . S
H665 C680 0.960 . S
H666 C680 0.960 . S
H667 C680 0.960 . S
C668 H660 0.929 . S
C668 C669 1.377 . S
C668 C670 1.384 . S
C669 C668 1.377 . S
C669 C675 1.390 . S
C670 H661 0.930 . S
C670 C668 1.384 . S
C670 C671 1.372 . S
C671 C670 1.372 . S
C671 C672 1.400 . S
C671 C676 1.490 . S
C672 H662 0.930 . S
C672 C671 1.400 . S
C672 C675 1.386 . S
H673 C689 0.930 . S
H674 C690 0.931 . S
C675 H663 0.929 . S
C675 C669 1.390 . S
C675 C672 1.386 . S
C676 C671 1.490 . S
C676 C678 1.395 . S
C676 C679 1.403 . S
H677 C683 0.930 . S
C678 H664 0.930 . S
C678 C676 1.395 . S
C678 C681 1.403 . S
C679 C676 1.403 . S
C679 C680 1.524 . S
C679 C683 1.400 . S
C680 H665 0.960 . S
C680 H666 0.960 . S
C680 H667 0.960 . S
C680 C679 1.524 . S
C681 C678 1.403 . S
C681 C682 1.392 . S
C681 C685 1.495 . S
C682 C681 1.392 . S
C682 C683 1.385 . S
C682 C684 1.478 . S
C683 H677 0.930 . S
C683 C679 1.400 . S
C683 C682 1.385 . S
C684 C682 1.478 . S
C684 C686 1.381 . S
C684 C690 1.383 . S
C685 C681 1.495 . S
C685 H691 0.959 . S
C685 H692 0.961 . S
C685 H693 0.960 . S
C686 C684 1.381 . S
C686 C687 1.394 . S
C686 H694 0.930 . S
C687 C686 1.394 . S
C687 C688 1.383 . S
C687 H695 0.929 . S
C688 C687 1.383 . S
C688 C689 1.377 . S
C689 H673 0.930 . S
C689 C688 1.377 . S
C689 C690 1.379 . S
C690 H674 0.931 . S
C690 C684 1.383 . S
C690 C689 1.379 . S
H691 C685 0.959 . S
H692 C685 0.961 . S
H693 C685 0.960 . S
H694 C686 0.930 . S
H695 C687 0.929 . S
H696 C704 0.929 . S
H697 C706 0.930 . S
H698 C708 0.930 . S
H699 C711 0.929 . S
H700 C714 0.930 . S
H701 C716 0.960 . S
H702 C716 0.960 . S
H703 C716 0.960 . S
C704 H696 0.929 . S
C704 C705 1.377 . S
C704 C706 1.384 . S
C705 C704 1.377 . S
C705 C711 1.390 . S
C706 H697 0.930 . S
C706 C704 1.384 . S
C706 C707 1.372 . S
C707 C706 1.372 . S
C707 C708 1.400 . S
C707 C712 1.490 . S
C708 H698 0.930 . S
C708 C707 1.400 . S
C708 C711 1.386 . S
H709 C725 0.930 . S
H710 C726 0.931 . S
C711 H699 0.929 . S
C711 C705 1.390 . S
C711 C708 1.386 . S
C712 C707 1.490 . S
C712 C714 1.395 . S
C712 C715 1.403 . S
H713 C719 0.930 . S
C714 H700 0.930 . S
C714 C712 1.395 . S
C714 C717 1.403 1_556 S
C715 C712 1.403 . S
C715 C716 1.524 . S
C715 C719 1.400 1_556 S
C716 H701 0.960 . S
C716 H702 0.960 . S
C716 H703 0.960 . S
C716 C715 1.524 . S
C717 C714 1.403 1_554 S
C717 C718 1.392 . S
C717 C721 1.495 . S
C718 C717 1.392 . S
C718 C719 1.385 . S
C718 C720 1.478 . S
C719 H713 0.930 . S
C719 C715 1.400 1_554 S
C719 C718 1.385 . S
C720 C718 1.478 . S
C720 C722 1.381 . S
C720 C726 1.383 . S
C721 C717 1.495 . S
C721 H727 0.959 . S
C721 H728 0.961 . S
C721 H729 0.960 . S
C722 C720 1.381 . S
C722 C723 1.394 . S
C722 H730 0.930 . S
C723 C722 1.394 . S
C723 C724 1.383 . S
C723 H731 0.929 . S
C724 C723 1.383 . S
C724 C725 1.377 . S
C725 H709 0.930 . S
C725 C724 1.377 . S
C725 C726 1.379 . S
C726 H710 0.931 . S
C726 C720 1.383 . S
C726 C725 1.379 . S
H727 C721 0.959 . S
H728 C721 0.961 . S
H729 C721 0.960 . S
H730 C722 0.930 . S
H731 C723 0.929 . S
H732 C740 0.929 . S
H733 C742 0.930 . S
H734 C744 0.930 . S
H735 C747 0.929 . S
H736 C750 0.930 . S
H737 C752 0.960 . S
H738 C752 0.960 . S
H739 C752 0.960 . S
C740 H732 0.929 . S
C740 C741 1.377 . S
C740 C742 1.384 . S
C741 C740 1.377 . S
C741 C747 1.390 . S
C742 H733 0.930 . S
C742 C740 1.384 . S
C742 C743 1.372 . S
C743 C742 1.372 . S
C743 C744 1.400 . S
C743 C748 1.490 . S
C744 H734 0.930 . S
C744 C743 1.400 . S
C744 C747 1.386 . S
H745 C761 0.930 . S
H746 C762 0.931 . S
C747 H735 0.929 . S
C747 C741 1.390 . S
C747 C744 1.386 . S
C748 C743 1.490 . S
C748 C750 1.395 . S
C748 C751 1.403 . S
H749 C755 0.930 . S
C750 H736 0.930 . S
C750 C748 1.395 . S
C750 C753 1.403 . S
C751 C748 1.403 . S
C751 C752 1.524 . S
C751 C755 1.400 . S
C752 H737 0.960 . S
C752 H738 0.960 . S
C752 H739 0.960 . S
C752 C751 1.524 . S
C753 C750 1.403 . S
C753 C754 1.392 . S
C753 C757 1.495 . S
C754 C753 1.392 . S
C754 C755 1.385 . S
C754 C756 1.478 . S
C755 H749 0.930 . S
C755 C751 1.400 . S
C755 C754 1.385 . S
C756 C754 1.478 . S
C756 C758 1.381 . S
C756 C762 1.383 . S
C757 C753 1.495 . S
C757 H763 0.959 . S
C757 H764 0.961 . S
C757 H765 0.960 . S
C758 C756 1.381 . S
C758 C759 1.394 . S
C758 H766 0.930 . S
C759 C758 1.394 . S
C759 C760 1.383 . S
C759 H767 0.929 . S
C760 C759 1.383 . S
C760 C761 1.377 . S
C761 H745 0.930 . S
C761 C760 1.377 . S
C761 C762 1.379 . S
C762 H746 0.931 . S
C762 C756 1.383 . S
C762 C761 1.379 . S
H763 C757 0.959 . S
H764 C757 0.961 . S
H765 C757 0.960 . S
H766 C758 0.930 . S
H767 C759 0.929 . S
H768 C776 0.929 . S
H769 C778 0.930 . S
H770 C780 0.930 . S
H771 C783 0.929 . S
H772 C786 0.930 . S
H773 C788 0.960 . S
H774 C788 0.960 . S
H775 C788 0.960 . S
C776 H768 0.929 . S
C776 C777 1.377 . S
C776 C778 1.384 . S
C777 C776 1.377 . S
C777 C783 1.390 . S
C778 H769 0.930 . S
C778 C776 1.384 . S
C778 C779 1.372 . S
C779 C778 1.372 . S
C779 C780 1.400 . S
C779 C784 1.490 . S
C780 H770 0.930 . S
C780 C779 1.400 . S
C780 C783 1.386 . S
H781 C797 0.930 . S
H782 C798 0.931 . S
C783 H771 0.929 . S
C783 C777 1.390 . S
C783 C780 1.386 . S
C784 C779 1.490 . S
C784 C786 1.395 . S
C784 C787 1.403 . S
H785 C791 0.930 . S
C786 H772 0.930 . S
C786 C784 1.395 . S
C786 C789 1.403 . S
C787 C784 1.403 . S
C787 C788 1.524 . S
C787 C791 1.400 . S
C788 H773 0.960 . S
C788 H774 0.960 . S
C788 H775 0.960 . S
C788 C787 1.524 . S
C789 C786 1.403 . S
C789 C790 1.392 . S
C789 C793 1.495 . S
C790 C789 1.392 . S
C790 C791 1.385 . S
C790 C792 1.478 . S
C791 H785 0.930 . S
C791 C787 1.400 . S
C791 C790 1.385 . S
C792 C790 1.478 . S
C792 C794 1.381 . S
C792 C798 1.383 . S
C793 C789 1.495 . S
C793 H799 0.959 . S
C793 H800 0.961 . S
C793 H801 0.960 . S
C794 C792 1.381 . S
C794 C795 1.394 . S
C794 H802 0.930 . S
C795 C794 1.394 . S
C795 C796 1.383 . S
C795 H803 0.929 . S
C796 C795 1.383 . S
C796 C797 1.377 . S
C797 H781 0.930 . S
C797 C796 1.377 . S
C797 C798 1.379 . S
C798 H782 0.931 . S
C798 C792 1.383 . S
C798 C797 1.379 . S
H799 C793 0.959 . S
H800 C793 0.961 . S
H801 C793 0.960 . S
H802 C794 0.930 . S
H803 C795 0.929 . S
H804 C812 0.929 . S
H805 C814 0.930 . S
H806 C816 0.930 . S
H807 C819 0.929 . S
H808 C822 0.930 . S
H809 C824 0.960 . S
H810 C824 0.960 1_556 S
H811 C824 0.960 1_556 S
C812 H804 0.929 . S
C812 C813 1.377 . S
C812 C814 1.384 . S
C813 C812 1.377 . S
C813 C819 1.390 . S
C814 H805 0.930 . S
C814 C812 1.384 . S
C814 C815 1.372 . S
C815 C814 1.372 . S
C815 C816 1.400 . S
C815 C820 1.490 . S
C816 H806 0.930 . S
C816 C815 1.400 . S
C816 C819 1.386 . S
H817 C833 0.930 . S
H818 C834 0.931 . S
C819 H807 0.929 . S
C819 C813 1.390 . S
C819 C816 1.386 . S
C820 C815 1.490 . S
C820 C822 1.395 . S
C820 C823 1.403 1_556 S
H821 C827 0.930 . S
C822 H808 0.930 . S
C822 C820 1.395 . S
C822 C825 1.403 . S
C823 C820 1.403 1_554 S
C823 C824 1.524 . S
C823 C827 1.400 . S
C824 H809 0.960 . S
C824 H810 0.960 1_554 S
C824 H811 0.960 1_554 S
C824 C823 1.524 . S
C825 C822 1.403 . S
C825 C826 1.392 1_556 S
C825 C829 1.495 . S
C826 C825 1.392 1_554 S
C826 C827 1.385 . S
C826 C828 1.478 . S
C827 H821 0.930 . S
C827 C823 1.400 . S
C827 C826 1.385 . S
C828 C826 1.478 . S
C828 C830 1.381 . S
C828 C834 1.383 . S
C829 C825 1.495 . S
C829 H835 0.959 . S
C829 H836 0.961 . S
C829 H837 0.966 . S
C830 C828 1.381 . S
C830 C831 1.394 . S
C830 H838 0.930 . S
C831 C830 1.394 . S
C831 C832 1.383 . S
C831 H839 0.929 . S
C832 C831 1.383 . S
C832 C833 1.377 . S
C833 H817 0.930 . S
C833 C832 1.377 . S
C833 C834 1.379 . S
C834 H818 0.931 . S
C834 C828 1.383 . S
C834 C833 1.379 . S
H835 C829 0.959 . S
H836 C829 0.961 . S
H837 C829 0.966 . S
H838 C830 0.930 . S
H839 C831 0.929 . S
H840 C848 0.929 . S
H841 C850 0.930 . S
H842 C852 0.930 . S
H843 C855 0.929 . S
H844 C858 0.930 . S
H845 C860 0.960 . S
H846 C860 0.960 . S
H847 C860 0.960 . S
C848 H840 0.929 . S
C848 C849 1.377 . S
C848 C850 1.384 . S
C849 C848 1.377 . S
C849 C855 1.390 . S
C850 H841 0.930 . S
C850 C848 1.384 . S
C850 C851 1.372 . S
C851 C850 1.372 . S
C851 C852 1.400 . S
C851 C856 1.490 . S
C852 H842 0.930 . S
C852 C851 1.400 . S
C852 C855 1.386 . S
H853 C869 0.930 . S
H854 C870 0.931 . S
C855 H843 0.929 . S
C855 C849 1.390 . S
C855 C852 1.386 . S
C856 C851 1.490 . S
C856 C858 1.395 . S
C856 C859 1.403 . S
H857 C863 0.930 . S
C858 H844 0.930 . S
C858 C856 1.395 . S
C858 C861 1.403 . S
C859 C856 1.403 . S
C859 C860 1.524 . S
C859 C863 1.400 . S
C860 H845 0.960 . S
C860 H846 0.960 . S
C860 H847 0.960 . S
C860 C859 1.524 . S
C861 C858 1.403 . S
C861 C862 1.392 . S
C861 C865 1.495 . S
C862 C861 1.392 . S
C862 C863 1.385 . S
C862 C864 1.478 . S
C863 H857 0.930 . S
C863 C859 1.400 . S
C863 C862 1.385 . S
C864 C862 1.478 . S
C864 C866 1.381 . S
C864 C870 1.383 . S
C865 C861 1.495 . S
C865 H871 0.959 . S
C865 H872 0.961 . S
C865 H873 0.960 . S
C866 C864 1.381 . S
C866 C867 1.394 . S
C866 H874 0.930 . S
C867 C866 1.394 . S
C867 C868 1.383 . S
C867 H875 0.929 . S
C868 C867 1.383 . S
C868 C869 1.377 . S
C869 H853 0.930 . S
C869 C868 1.377 . S
C869 C870 1.379 . S
C870 H854 0.931 . S
C870 C864 1.383 . S
C870 C869 1.379 . S
H871 C865 0.959 . S
H872 C865 0.961 . S
H873 C865 0.960 . S
H874 C866 0.930 . S
H875 C867 0.929 . S
H876 C884 0.929 . S
H877 C886 0.930 . S
H878 C888 0.930 . S
H879 C891 0.929 . S
H880 C894 0.930 . S
H881 C896 0.960 . S
H882 C896 0.960 . S
H883 C896 0.960 . S
C884 H876 0.929 . S
C884 C885 1.377 . S
C884 C886 1.384 . S
C885 C884 1.377 . S
C885 C891 1.390 . S
C886 H877 0.930 . S
C886 C884 1.384 . S
C886 C887 1.372 . S
C887 C886 1.372 . S
C887 C888 1.400 . S
C887 C892 1.490 . S
C888 H878 0.930 . S
C888 C887 1.400 . S
C888 C891 1.386 . S
H889 C905 0.930 . S
H890 C906 0.931 . S
C891 H879 0.929 . S
C891 C885 1.390 . S
C891 C888 1.386 . S
C892 C887 1.490 . S
C892 C894 1.395 . S
C892 C895 1.403 . S
H893 C899 0.930 . S
C894 H880 0.930 . S
C894 C892 1.395 . S
C894 C897 1.403 . S
C895 C892 1.403 . S
C895 C896 1.524 . S
C895 C899 1.400 . S
C896 H881 0.960 . S
C896 H882 0.960 . S
C896 H883 0.960 . S
C896 C895 1.524 . S
C897 C894 1.403 . S
C897 C898 1.392 . S
C897 C901 1.495 . S
C898 C897 1.392 . S
C898 C899 1.385 . S
C898 C900 1.478 . S
C899 H893 0.930 . S
C899 C895 1.400 . S
C899 C898 1.385 . S
C900 C898 1.478 . S
C900 C902 1.381 . S
C900 C906 1.383 . S
C901 C897 1.495 . S
C901 H907 0.959 . S
C901 H908 0.961 . S
C901 H909 0.960 . S
C902 C900 1.381 . S
C902 C903 1.394 . S
C902 H910 0.930 . S
C903 C902 1.394 . S
C903 C904 1.383 . S
C903 H911 0.929 . S
C904 C903 1.383 . S
C904 C905 1.377 . S
C905 H889 0.930 . S
C905 C904 1.377 . S
C905 C906 1.379 . S
C906 H890 0.931 . S
C906 C900 1.383 . S
C906 C905 1.379 . S
H907 C901 0.959 . S
H908 C901 0.961 . S
H909 C901 0.960 . S
H910 C902 0.930 . S
H911 C903 0.929 . S
H912 C920 0.929 . S
H913 C922 0.930 . S
H914 C924 0.930 . S
H915 C927 0.929 . S
H916 C930 0.930 . S
H917 C932 0.960 . S
H918 C932 0.960 . S
H919 C932 0.960 . S
C920 H912 0.929 . S
C920 C921 1.377 . S
C920 C922 1.384 . S
C921 C920 1.377 . S
C921 C927 1.390 . S
C922 H913 0.930 . S
C922 C920 1.384 . S
C922 C923 1.372 . S
C923 C922 1.372 . S
C923 C924 1.400 . S
C923 C928 1.490 . S
C924 H914 0.930 . S
C924 C923 1.400 . S
C924 C927 1.386 . S
H925 C941 0.930 . S
H926 C942 0.931 . S
C927 H915 0.929 . S
C927 C921 1.390 . S
C927 C924 1.386 . S
C928 C923 1.490 . S
C928 C930 1.395 . S
C928 C931 1.403 1_565 S
H929 C935 0.930 . S
C930 H916 0.930 . S
C930 C928 1.395 . S
C930 C933 1.403 1_556 S
C931 C928 1.403 1_545 S
C931 C932 1.524 . S
C931 C935 1.400 1_556 S
C932 H917 0.960 . S
C932 H918 0.960 . S
C932 H919 0.960 . S
C932 C931 1.524 . S
C933 C930 1.403 1_554 S
C933 C934 1.392 1_565 S
C933 C937 1.495 . S
C934 C933 1.392 1_545 S
C934 C935 1.385 . S
C934 C936 1.478 . S
C935 H929 0.930 . S
C935 C931 1.400 1_554 S
C935 C934 1.385 . S
C936 C934 1.478 . S
C936 C938 1.381 . S
C936 C942 1.383 . S
C937 C933 1.495 . S
C937 H943 0.959 . S
C937 H944 0.961 . S
C937 H945 0.960 . S
C938 C936 1.381 . S
C938 C939 1.394 . S
C938 H946 0.930 . S
C939 C938 1.394 . S
C939 C940 1.383 . S
C939 H947 0.929 . S
C940 C939 1.383 . S
C940 C941 1.377 . S
C941 H925 0.930 . S
C941 C940 1.377 . S
C941 C942 1.379 . S
C942 H926 0.931 . S
C942 C936 1.383 . S
C942 C941 1.379 . S
H943 C937 0.959 . S
H944 C937 0.961 . S
H945 C937 0.960 . S
H946 C938 0.930 . S
H947 C939 0.929 . S
H948 C956 0.929 . S
H949 C958 0.930 . S
H950 C960 0.930 . S
H951 C963 0.929 . S
H952 C966 0.930 . S
H953 C968 0.960 . S
H954 C968 0.960 . S
H955 C968 0.960 . S
C956 H948 0.929 . S
C956 C957 1.377 . S
C956 C958 1.384 . S
C957 C956 1.377 . S
C957 C963 1.390 . S
C958 H949 0.930 . S
C958 C956 1.384 . S
C958 C959 1.372 . S
C959 C958 1.372 . S
C959 C960 1.400 . S
C959 C964 1.490 . S
C960 H950 0.930 . S
C960 C959 1.400 . S
C960 C963 1.386 . S
H961 C977 0.930 . S
H962 C978 0.931 . S
C963 H951 0.929 . S
C963 C957 1.390 . S
C963 C960 1.386 . S
C964 C959 1.490 . S
C964 C966 1.395 . S
C964 C967 1.403 . S
H965 C971 0.930 . S
C966 H952 0.930 . S
C966 C964 1.395 . S
C966 C969 1.403 . S
C967 C964 1.403 . S
C967 C968 1.524 . S
C967 C971 1.400 . S
C968 H953 0.960 . S
C968 H954 0.960 . S
C968 H955 0.960 . S
C968 C967 1.524 . S
C969 C966 1.403 . S
C969 C970 1.392 . S
C969 C973 1.495 . S
C970 C969 1.392 . S
C970 C971 1.385 . S
C970 C972 1.478 . S
C971 H965 0.930 . S
C971 C967 1.400 . S
C971 C970 1.385 . S
C972 C970 1.478 . S
C972 C974 1.381 . S
C972 C978 1.383 . S
C973 C969 1.495 . S
C973 H979 0.959 . S
C973 H980 0.961 . S
C973 H981 0.960 . S
C974 C972 1.381 . S
C974 C975 1.394 . S
C974 H982 0.930 . S
C975 C974 1.394 . S
C975 C976 1.383 . S
C975 H983 0.929 . S
C976 C975 1.383 . S
C976 C977 1.377 . S
C977 H961 0.930 . S
C977 C976 1.377 . S
C977 C978 1.379 . S
C978 H962 0.931 . S
C978 C972 1.383 . S
C978 C977 1.379 . S
H979 C973 0.959 . S
H980 C973 0.961 . S
H981 C973 0.960 . S
H982 C974 0.930 . S
H983 C975 0.929 . S
H984 C992 0.929 . S
H985 C994 0.930 . S
H986 C996 0.930 . S
H987 C999 0.929 . S
H988 C1002 0.930 . S
H989 C1004 0.960 . S
H990 C1004 0.960 . S
H991 C1004 0.960 1_455 S
C992 H984 0.929 . S
C992 C993 1.377 . S
C992 C994 1.384 . S
C993 C992 1.377 . S
C993 C999 1.390 . S
C994 H985 0.930 . S
C994 C992 1.384 . S
C994 C995 1.372 . S
C995 C994 1.372 . S
C995 C996 1.400 . S
C995 C1000 1.490 . S
C996 H986 0.930 . S
C996 C995 1.400 . S
C996 C999 1.386 . S
H997 C1013 0.930 . S
H998 C1014 0.931 . S
C999 H987 0.929 . S
C999 C993 1.390 . S
C999 C996 1.386 . S
C1000 C995 1.490 . S
C1000 C1002 1.395 . S
C1000 C1003 1.403 1_455 S
H1001 C1007 0.930 . S
C1002 H988 0.930 . S
C1002 C1000 1.395 . S
C1002 C1005 1.403 . S
C1003 C1000 1.403 1_655 S
C1003 C1004 1.524 . S
C1003 C1007 1.400 . S
C1004 H989 0.960 . S
C1004 H990 0.960 . S
C1004 H991 0.960 1_655 S
C1004 C1003 1.524 . S
C1005 C1002 1.403 . S
C1005 C1006 1.392 1_455 S
C1005 C1009 1.495 . S
C1006 C1005 1.392 1_655 S
C1006 C1007 1.385 . S
C1006 C1008 1.478 . S
C1007 H1001 0.930 . S
C1007 C1003 1.400 . S
C1007 C1006 1.385 . S
C1008 C1006 1.478 . S
C1008 C1010 1.381 . S
C1008 C1014 1.383 . S
C1009 C1005 1.495 . S
C1009 H1015 0.959 . S
C1009 H1016 0.961 . S
C1009 H1017 0.960 1_455 S
C1010 C1008 1.381 . S
C1010 C1011 1.394 . S
C1010 H1018 0.930 . S
C1011 C1010 1.394 . S
C1011 C1012 1.383 . S
C1011 H1019 0.929 . S
C1012 C1011 1.383 . S
C1012 C1013 1.377 . S
C1013 H997 0.930 . S
C1013 C1012 1.377 . S
C1013 C1014 1.379 . S
C1014 H998 0.931 . S
C1014 C1008 1.383 . S
C1014 C1013 1.379 . S
H1015 C1009 0.959 . S
H1016 C1009 0.961 . S
H1017 C1009 0.960 1_655 S
H1018 C1010 0.930 . S
H1019 C1011 0.929 . S
H1020 C1028 0.929 . S
H1021 C1030 0.930 . S
H1022 C1032 0.930 . S
H1023 C1035 0.929 . S
H1024 C1038 0.930 . S
H1025 C1040 0.960 . S
H1026 C1040 0.960 1_554 S
H1027 C1040 0.960 1_554 S
C1028 H1020 0.929 . S
C1028 C1029 1.377 . S
C1028 C1030 1.384 . S
C1029 C1028 1.377 . S
C1029 C1035 1.390 . S
C1030 H1021 0.930 . S
C1030 C1028 1.384 . S
C1030 C1031 1.372 . S
C1031 C1030 1.372 . S
C1031 C1032 1.400 . S
C1031 C1036 1.490 . S
C1032 H1022 0.930 . S
C1032 C1031 1.400 . S
C1032 C1035 1.386 . S
H1033 C1049 0.930 . S
H1034 C1050 0.931 . S
C1035 H1023 0.929 . S
C1035 C1029 1.390 . S
C1035 C1032 1.386 . S
C1036 C1031 1.490 . S
C1036 C1038 1.395 1_565 S
C1036 C1039 1.403 . S
H1037 C1043 0.930 . S
C1038 H1024 0.930 . S
C1038 C1036 1.395 1_545 S
C1038 C1041 1.408 . S
C1039 C1036 1.403 . S
C1039 C1040 1.524 1_554 S
C1039 C1043 1.400 1_554 S
C1040 H1025 0.960 . S
C1040 H1026 0.960 1_556 S
C1040 H1027 0.960 1_556 S
C1040 C1039 1.524 1_556 S
C1041 C1038 1.408 . S
C1041 C1042 1.388 1_554 S
C1041 C1045 1.495 . S
C1042 C1041 1.388 1_556 S
C1042 C1043 1.385 1_545 S
C1042 C1044 1.478 . S
C1043 H1037 0.930 . S
C1043 C1039 1.400 1_556 S
C1043 C1042 1.385 1_565 S
C1044 C1042 1.478 . S
C1044 C1046 1.381 . S
C1044 C1050 1.383 . S
C1045 C1041 1.495 . S
C1045 H1051 0.988 . S
C1045 H1052 0.955 1_554 S
C1045 H1053 0.938 1_554 S
C1046 C1044 1.381 . S
C1046 C1047 1.394 . S
C1046 H1054 0.930 . S
C1047 C1046 1.394 . S
C1047 C1048 1.383 . S
C1047 H1055 0.929 . S
C1048 C1047 1.383 . S
C1048 C1049 1.377 . S
C1049 H1033 0.930 . S
C1049 C1048 1.377 . S
C1049 C1050 1.379 . S
C1050 H1034 0.931 . S
C1050 C1044 1.383 . S
C1050 C1049 1.379 . S
H1051 C1045 0.988 . S
H1052 C1045 0.955 1_556 S
H1053 C1045 0.938 1_556 S
H1054 C1046 0.930 . S
H1055 C1047 0.929 . S
H1056 C1064 0.929 . S
H1057 C1066 0.930 . S
H1058 C1068 0.930 . S
H1059 C1071 0.929 . S
H1060 C1074 0.930 . S
H1061 C1076 0.960 . S
H1062 C1076 0.960 . S
H1063 C1076 0.960 . S
C1064 H1056 0.929 . S
C1064 C1065 1.377 . S
C1064 C1066 1.384 . S
C1065 C1064 1.377 . S
C1065 C1071 1.390 . S
C1066 H1057 0.930 . S
C1066 C1064 1.384 . S
C1066 C1067 1.372 . S
C1067 C1066 1.372 . S
C1067 C1068 1.400 . S
C1067 C1072 1.490 . S
C1068 H1058 0.930 . S
C1068 C1067 1.400 . S
C1068 C1071 1.386 . S
H1069 C1085 0.930 . S
H1070 C1086 0.931 . S
C1071 H1059 0.929 . S
C1071 C1065 1.390 . S
C1071 C1068 1.386 . S
C1072 C1067 1.490 . S
C1072 C1074 1.395 . S
C1072 C1075 1.403 . S
H1073 C1079 0.930 . S
C1074 H1060 0.930 . S
C1074 C1072 1.395 . S
C1074 C1077 1.403 . S
C1075 C1072 1.403 . S
C1075 C1076 1.524 . S
C1075 C1079 1.400 . S
C1076 H1061 0.960 . S
C1076 H1062 0.960 . S
C1076 H1063 0.960 . S
C1076 C1075 1.524 . S
C1077 C1074 1.403 . S
C1077 C1078 1.392 . S
C1077 C1081 1.495 . S
C1078 C1077 1.392 . S
C1078 C1079 1.385 . S
C1078 C1080 1.478 . S
C1079 H1073 0.930 . S
C1079 C1075 1.400 . S
C1079 C1078 1.385 . S
C1080 C1078 1.478 . S
C1080 C1082 1.381 . S
C1080 C1086 1.383 . S
C1081 C1077 1.495 . S
C1081 H1087 0.959 . S
C1081 H1088 0.961 . S
C1081 H1089 0.960 . S
C1082 C1080 1.381 . S
C1082 C1083 1.394 . S
C1082 H1090 0.930 . S
C1083 C1082 1.394 . S
C1083 C1084 1.383 . S
C1083 H1091 0.929 . S
C1084 C1083 1.383 . S
C1084 C1085 1.377 . S
C1085 H1069 0.930 . S
C1085 C1084 1.377 . S
C1085 C1086 1.379 . S
C1086 H1070 0.931 . S
C1086 C1080 1.383 . S
C1086 C1085 1.379 . S
H1087 C1081 0.959 . S
H1088 C1081 0.961 . S
H1089 C1081 0.960 . S
H1090 C1082 0.930 . S
H1091 C1083 0.929 . S
H1092 C1100 0.929 . S
H1093 C1102 0.930 . S
H1094 C1104 0.930 1_655 S
H1095 C1107 0.929 . S
H1096 C1110 0.930 . S
H1097 C1112 0.960 . S
H1098 C1112 0.960 1_455 S
H1099 C1112 0.960 . S
C1100 H1092 0.929 . S
C1100 C1101 1.377 . S
C1100 C1102 1.384 . S
C1101 C1100 1.377 . S
C1101 C1107 1.390 . S
C1102 H1093 0.930 . S
C1102 C1100 1.384 . S
C1102 C1103 1.372 . S
C1103 C1102 1.372 . S
C1103 C1104 1.400 . S
C1103 C1108 1.490 . S
C1104 H1094 0.930 1_455 S
C1104 C1103 1.400 . S
C1104 C1107 1.386 . S
H1105 C1121 0.930 . S
H1106 C1122 0.931 . S
C1107 H1095 0.929 . S
C1107 C1101 1.390 . S
C1107 C1104 1.386 . S
C1108 C1103 1.490 . S
C1108 C1110 1.395 . S
C1108 C1111 1.403 1_455 S
H1109 C1115 0.930 . S
C1110 H1096 0.930 . S
C1110 C1108 1.395 . S
C1110 C1113 1.403 . S
C1111 C1108 1.403 1_655 S
C1111 C1112 1.524 . S
C1111 C1115 1.400 . S
C1112 H1097 0.960 . S
C1112 H1098 0.960 1_655 S
C1112 H1099 0.960 . S
C1112 C1111 1.524 . S
C1113 C1110 1.403 . S
C1113 C1114 1.392 1_455 S
C1113 C1117 1.495 . S
C1114 C1113 1.392 1_655 S
C1114 C1115 1.385 . S
C1114 C1116 1.478 . S
C1115 H1109 0.930 . S
C1115 C1111 1.400 . S
C1115 C1114 1.385 . S
C1116 C1114 1.478 . S
C1116 C1118 1.381 . S
C1116 C1122 1.383 . S
C1117 C1113 1.495 . S
C1117 H1123 0.959 . S
C1117 H1124 0.955 1_455 S
C1117 H1125 0.960 . S
C1118 C1116 1.381 . S
C1118 C1119 1.394 . S
C1118 H1126 0.930 1_655 S
C1119 C1118 1.394 . S
C1119 C1120 1.383 . S
C1119 H1127 0.929 . S
C1120 C1119 1.383 . S
C1120 C1121 1.377 . S
C1121 H1105 0.930 . S
C1121 C1120 1.377 . S
C1121 C1122 1.379 . S
C1122 H1106 0.931 . S
C1122 C1116 1.383 . S
C1122 C1121 1.379 . S
H1123 C1117 0.959 . S
H1124 C1117 0.955 1_655 S
H1125 C1117 0.960 . S
H1126 C1118 0.930 1_455 S
H1127 C1119 0.929 . S
H1128 C1136 0.929 . S
H1129 C1138 0.930 . S
H1130 C1140 0.930 . S
H1131 C1143 0.929 . S
H1132 C1146 0.930 . S
H1133 C1148 0.960 . S
H1134 C1148 0.960 . S
H1135 C1148 0.960 . S
C1136 H1128 0.929 . S
C1136 C1137 1.377 . S
C1136 C1138 1.384 . S
C1137 C1136 1.377 . S
C1137 C1143 1.390 . S
C1138 H1129 0.930 . S
C1138 C1136 1.384 . S
C1138 C1139 1.372 . S
C1139 C1138 1.372 . S
C1139 C1140 1.400 . S
C1139 C1144 1.490 . S
C1140 H1130 0.930 . S
C1140 C1139 1.400 . S
C1140 C1143 1.386 . S
H1141 C1157 0.930 . S
H1142 C1158 0.931 . S
C1143 H1131 0.929 . S
C1143 C1137 1.390 . S
C1143 C1140 1.386 . S
C1144 C1139 1.490 . S
C1144 C1146 1.395 1_545 S
C1144 C1147 1.403 . S
H1145 C1151 0.930 . S
C1146 H1132 0.930 . S
C1146 C1144 1.395 1_565 S
C1146 C1149 1.403 . S
C1147 C1144 1.403 . S
C1147 C1148 1.524 . S
C1147 C1151 1.400 . S
C1148 H1133 0.960 . S
C1148 H1134 0.960 . S
C1148 H1135 0.960 . S
C1148 C1147 1.524 . S
C1149 C1146 1.403 . S
C1149 C1150 1.392 . S
C1149 C1153 1.495 . S
C1150 C1149 1.392 . S
C1150 C1151 1.385 1_565 S
C1150 C1152 1.478 . S
C1151 H1145 0.930 . S
C1151 C1147 1.400 . S
C1151 C1150 1.385 1_545 S
C1152 C1150 1.478 . S
C1152 C1154 1.381 . S
C1152 C1158 1.383 . S
C1153 C1149 1.495 . S
C1153 H1159 0.959 . S
C1153 H1160 0.961 . S
C1153 H1161 0.960 . S
C1154 C1152 1.381 . S
C1154 C1155 1.394 . S
C1154 H1162 0.930 . S
C1155 C1154 1.394 . S
C1155 C1156 1.383 . S
C1155 H1163 0.929 . S
C1156 C1155 1.383 . S
C1156 C1157 1.377 . S
C1157 H1141 0.930 . S
C1157 C1156 1.377 . S
C1157 C1158 1.379 . S
C1158 H1142 0.931 . S
C1158 C1152 1.383 . S
C1158 C1157 1.379 . S
H1159 C1153 0.959 . S
H1160 C1153 0.961 . S
H1161 C1153 0.960 . S
H1162 C1154 0.930 . S
H1163 C1155 0.929 . S
H1164 C1172 0.929 . S
H1165 C1174 0.930 . S
H1166 C1176 0.930 . S
H1167 C1179 0.929 . S
H1168 C1182 0.930 . S
H1169 C1184 0.960 . S
H1170 C1184 0.960 . S
H1171 C1184 0.960 . S
C1172 H1164 0.929 . S
C1172 C1173 1.377 . S
C1172 C1174 1.384 . S
C1173 C1172 1.377 . S
C1173 C1179 1.390 . S
C1174 H1165 0.930 . S
C1174 C1172 1.384 . S
C1174 C1175 1.372 . S
C1175 C1174 1.372 . S
C1175 C1176 1.400 . S
C1175 C1180 1.490 . S
C1176 H1166 0.930 . S
C1176 C1175 1.400 . S
C1176 C1179 1.386 . S
H1177 C1193 0.930 . S
H1178 C1194 0.931 . S
C1179 H1167 0.929 . S
C1179 C1173 1.390 . S
C1179 C1176 1.386 . S
C1180 C1175 1.490 . S
C1180 C1182 1.395 . S
C1180 C1183 1.403 . S
H1181 C1187 0.930 . S
C1182 H1168 0.930 . S
C1182 C1180 1.395 . S
C1182 C1185 1.403 . S
C1183 C1180 1.403 . S
C1183 C1184 1.524 . S
C1183 C1187 1.400 . S
C1184 H1169 0.960 . S
C1184 H1170 0.960 . S
C1184 H1171 0.960 . S
C1184 C1183 1.524 . S
C1185 C1182 1.403 . S
C1185 C1186 1.392 . S
C1185 C1189 1.495 . S
C1186 C1185 1.392 . S
C1186 C1187 1.385 . S
C1186 C1188 1.478 . S
C1187 H1181 0.930 . S
C1187 C1183 1.400 . S
C1187 C1186 1.385 . S
C1188 C1186 1.478 . S
C1188 C1190 1.381 . S
C1188 C1194 1.383 . S
C1189 C1185 1.495 . S
C1189 H1195 0.959 . S
C1189 H1196 0.961 . S
C1189 H1197 0.960 . S
C1190 C1188 1.381 . S
C1190 C1191 1.394 . S
C1190 H1198 0.930 . S
C1191 C1190 1.394 . S
C1191 C1192 1.383 . S
C1191 H1199 0.929 . S
C1192 C1191 1.383 . S
C1192 C1193 1.377 . S
C1193 H1177 0.930 . S
C1193 C1192 1.377 . S
C1193 C1194 1.379 . S
C1194 H1178 0.931 . S
C1194 C1188 1.383 . S
C1194 C1193 1.379 . S
H1195 C1189 0.959 . S
H1196 C1189 0.961 . S
H1197 C1189 0.960 . S
H1198 C1190 0.930 . S
H1199 C1191 0.929 . S
H1200 C1208 0.929 . S
H1201 C1210 0.930 . S
H1202 C1212 0.930 . S
H1203 C1215 0.929 . S
H1204 C1218 0.930 . S
H1205 C1220 0.960 . S
H1206 C1220 0.960 . S
H1207 C1220 0.960 . S
C1208 H1200 0.929 . S
C1208 C1209 1.377 . S
C1208 C1210 1.384 . S
C1209 C1208 1.377 . S
C1209 C1215 1.390 . S
C1210 H1201 0.930 . S
C1210 C1208 1.384 . S
C1210 C1211 1.372 . S
C1211 C1210 1.372 . S
C1211 C1212 1.400 . S
C1211 C1216 1.490 . S
C1212 H1202 0.930 . S
C1212 C1211 1.400 . S
C1212 C1215 1.386 . S
H1213 C1229 0.930 . S
H1214 C1230 0.931 . S
C1215 H1203 0.929 . S
C1215 C1209 1.390 . S
C1215 C1212 1.386 . S
C1216 C1211 1.490 . S
C1216 C1218 1.395 1_655 S
C1216 C1219 1.403 . S
H1217 C1223 0.919 1_655 S
C1218 H1204 0.930 . S
C1218 C1216 1.395 1_455 S
C1218 C1221 1.403 . S
C1219 C1216 1.403 . S
C1219 C1220 1.524 . S
C1219 C1223 1.399 1_655 S
C1220 H1205 0.960 . S
C1220 H1206 0.960 . S
C1220 H1207 0.960 . S
C1220 C1219 1.524 . S
C1221 C1218 1.403 . S
C1221 C1222 1.392 . S
C1221 C1225 1.495 . S
C1222 C1221 1.392 . S
C1222 C1223 1.387 . S
C1222 C1224 1.478 . S
C1223 H1217 0.919 1_455 S
C1223 C1219 1.399 1_455 S
C1223 C1222 1.387 . S
C1224 C1222 1.478 . S
C1224 C1226 1.381 . S
C1224 C1230 1.383 . S
C1225 C1221 1.495 . S
C1225 H1231 0.959 . S
C1225 H1232 0.961 . S
C1225 H1233 0.960 . S
C1226 C1224 1.381 . S
C1226 C1227 1.394 . S
C1226 H1234 0.930 . S
C1227 C1226 1.394 . S
C1227 C1228 1.383 . S
C1227 H1235 0.929 . S
C1228 C1227 1.383 . S
C1228 C1229 1.377 . S
C1229 H1213 0.930 . S
C1229 C1228 1.377 . S
C1229 C1230 1.379 . S
C1230 H1214 0.931 . S
C1230 C1224 1.383 . S
C1230 C1229 1.379 . S
H1231 C1225 0.959 . S
H1232 C1225 0.961 . S
H1233 C1225 0.960 . S
H1234 C1226 0.930 . S
H1235 C1227 0.929 . S
H1236 C1244 0.929 . S
H1237 C1246 0.930 . S
H1238 C1248 0.930 . S
H1239 C1251 0.929 . S
H1240 C1254 0.930 . S
H1241 C1256 0.960 . S
H1242 C1256 0.960 . S
H1243 C1256 0.960 . S
C1244 H1236 0.929 . S
C1244 C1245 1.377 . S
C1244 C1246 1.384 . S
C1245 C1244 1.377 . S
C1245 C1251 1.390 . S
C1246 H1237 0.930 . S
C1246 C1244 1.384 . S
C1246 C1247 1.372 . S
C1247 C1246 1.372 . S
C1247 C1248 1.400 . S
C1247 C1252 1.490 . S
C1248 H1238 0.930 . S
C1248 C1247 1.400 . S
C1248 C1251 1.386 . S
H1249 C1265 0.930 . S
H1250 C1266 0.931 . S
C1251 H1239 0.929 . S
C1251 C1245 1.390 . S
C1251 C1248 1.386 . S
C1252 C1247 1.490 . S
C1252 C1254 1.395 1_455 S
C1252 C1255 1.403 . S
H1253 C1259 0.930 . S
C1254 H1240 0.930 . S
C1254 C1252 1.395 1_655 S
C1254 C1257 1.403 . S
C1255 C1252 1.403 . S
C1255 C1256 1.524 . S
C1255 C1259 1.400 . S
C1256 H1241 0.960 . S
C1256 H1242 0.960 . S
C1256 H1243 0.960 . S
C1256 C1255 1.524 . S
C1257 C1254 1.403 . S
C1257 C1258 1.392 . S
C1257 C1261 1.495 . S
C1258 C1257 1.392 . S
C1258 C1259 1.385 1_655 S
C1258 C1260 1.478 . S
C1259 H1253 0.930 . S
C1259 C1255 1.400 . S
C1259 C1258 1.385 1_455 S
C1260 C1258 1.478 . S
C1260 C1262 1.381 . S
C1260 C1266 1.383 . S
C1261 C1257 1.495 . S
C1261 H1267 0.959 . S
C1261 H1268 0.961 . S
C1261 H1269 0.960 . S
C1262 C1260 1.381 . S
C1262 C1263 1.394 . S
C1262 H1270 0.930 . S
C1263 C1262 1.394 . S
C1263 C1264 1.383 . S
C1263 H1271 0.929 . S
C1264 C1263 1.383 . S
C1264 C1265 1.377 . S
C1265 H1249 0.930 . S
C1265 C1264 1.377 . S
C1265 C1266 1.379 . S
C1266 H1250 0.931 . S
C1266 C1260 1.383 . S
C1266 C1265 1.379 . S
H1267 C1261 0.959 . S
H1268 C1261 0.961 . S
H1269 C1261 0.960 . S
H1270 C1262 0.930 . S
H1271 C1263 0.929 . S
H1272 C1280 0.929 . S
H1273 C1282 0.930 . S
H1274 C1284 0.930 . S
H1275 C1287 0.929 . S
H1276 C1290 0.930 . S
H1277 C1292 0.960 . S
H1278 C1292 0.960 . S
H1279 C1292 0.960 . S
C1280 H1272 0.929 . S
C1280 C1281 1.377 . S
C1280 C1282 1.384 . S
C1281 C1280 1.377 . S
C1281 C1287 1.390 . S
C1282 H1273 0.930 . S
C1282 C1280 1.384 . S
C1282 C1283 1.372 . S
C1283 C1282 1.372 . S
C1283 C1284 1.400 . S
C1283 C1288 1.490 . S
C1284 H1274 0.930 . S
C1284 C1283 1.400 . S
C1284 C1287 1.386 . S
H1285 C1301 0.930 . S
H1286 C1302 0.931 . S
C1287 H1275 0.929 . S
C1287 C1281 1.390 . S
C1287 C1284 1.386 . S
C1288 C1283 1.490 . S
C1288 C1290 1.395 . S
C1288 C1291 1.403 1_565 S
H1289 C1295 0.930 . S
C1290 H1276 0.930 . S
C1290 C1288 1.395 . S
C1290 C1293 1.403 . S
C1291 C1288 1.403 1_545 S
C1291 C1292 1.524 . S
C1291 C1295 1.400 . S
C1292 H1277 0.960 . S
C1292 H1278 0.960 . S
C1292 H1279 0.960 . S
C1292 C1291 1.524 . S
C1293 C1290 1.403 . S
C1293 C1294 1.392 1_565 S
C1293 C1297 1.495 . S
C1294 C1293 1.392 1_545 S
C1294 C1295 1.385 . S
C1294 C1296 1.478 . S
C1295 H1289 0.930 . S
C1295 C1291 1.400 . S
C1295 C1294 1.385 . S
C1296 C1294 1.478 . S
C1296 C1298 1.381 . S
C1296 C1302 1.383 . S
C1297 C1293 1.495 . S
C1297 H1303 0.959 . S
C1297 H1304 0.961 . S
C1297 H1305 0.960 . S
C1298 C1296 1.381 . S
C1298 C1299 1.394 . S
C1298 H1306 0.930 . S
C1299 C1298 1.394 . S
C1299 C1300 1.383 . S
C1299 H1307 0.929 . S
C1300 C1299 1.383 . S
C1300 C1301 1.377 . S
C1301 H1285 0.930 . S
C1301 C1300 1.377 . S
C1301 C1302 1.379 . S
C1302 H1286 0.931 . S
C1302 C1296 1.383 . S
C1302 C1301 1.379 . S
H1303 C1297 0.959 . S
H1304 C1297 0.961 . S
H1305 C1297 0.960 . S
H1306 C1298 0.930 . S
H1307 C1299 0.929 . S
H1308 C1316 0.929 . S
H1309 C1318 0.930 . S
H1310 C1320 0.930 . S
H1311 C1323 0.929 . S
H1312 C1326 0.930 . S
H1313 C1328 0.960 . S
H1314 C1328 0.960 . S
H1315 C1328 0.960 . S
C1316 H1308 0.929 . S
C1316 C1317 1.377 . S
C1316 C1318 1.384 . S
C1317 C1316 1.377 . S
C1317 C1323 1.390 . S
C1318 H1309 0.930 . S
C1318 C1316 1.384 . S
C1318 C1319 1.372 . S
C1319 C1318 1.372 . S
C1319 C1320 1.400 . S
C1319 C1324 1.490 . S
C1320 H1310 0.930 . S
C1320 C1319 1.400 . S
C1320 C1323 1.386 . S
H1321 C1337 0.930 . S
H1322 C1338 0.931 . S
C1323 H1311 0.929 . S
C1323 C1317 1.390 . S
C1323 C1320 1.386 . S
C1324 C1319 1.490 . S
C1324 C1326 1.395 . S
C1324 C1327 1.403 . S
H1325 C1331 0.930 . S
C1326 H1312 0.930 . S
C1326 C1324 1.395 . S
C1326 C1329 1.403 . S
C1327 C1324 1.403 . S
C1327 C1328 1.524 . S
C1327 C1331 1.400 . S
C1328 H1313 0.960 . S
C1328 H1314 0.960 . S
C1328 H1315 0.960 . S
C1328 C1327 1.524 . S
C1329 C1326 1.403 . S
C1329 C1330 1.392 . S
C1329 C1333 1.495 . S
C1330 C1329 1.392 . S
C1330 C1331 1.385 . S
C1330 C1332 1.478 . S
C1331 H1325 0.930 . S
C1331 C1327 1.400 . S
C1331 C1330 1.385 . S
C1332 C1330 1.478 . S
C1332 C1334 1.381 . S
C1332 C1338 1.383 . S
C1333 C1329 1.495 . S
C1333 H1339 0.959 . S
C1333 H1340 0.961 . S
C1333 H1341 0.960 . S
C1334 C1332 1.381 . S
C1334 C1335 1.394 . S
C1334 H1342 0.930 . S
C1335 C1334 1.394 . S
C1335 C1336 1.383 . S
C1335 H1343 0.929 . S
C1336 C1335 1.383 . S
C1336 C1337 1.377 . S
C1337 H1321 0.930 . S
C1337 C1336 1.377 . S
C1337 C1338 1.379 . S
C1338 H1322 0.931 . S
C1338 C1332 1.383 . S
C1338 C1337 1.379 . S
H1339 C1333 0.959 . S
H1340 C1333 0.961 . S
H1341 C1333 0.960 . S
H1342 C1334 0.930 . S
H1343 C1335 0.929 . S
H1344 C1352 0.929 . S
H1345 C1354 0.930 . S
H1346 C1356 0.930 . S
H1347 C1359 0.929 . S
H1348 C1362 0.930 . S
H1349 C1364 0.960 . S
H1350 C1364 0.960 . S
H1351 C1364 0.960 . S
C1352 H1344 0.929 . S
C1352 C1353 1.377 . S
C1352 C1354 1.384 . S
C1353 C1352 1.377 . S
C1353 C1359 1.390 . S
C1354 H1345 0.930 . S
C1354 C1352 1.384 . S
C1354 C1355 1.372 . S
C1355 C1354 1.372 . S
C1355 C1356 1.400 . S
C1355 C1360 1.490 . S
C1356 H1346 0.930 . S
C1356 C1355 1.400 . S
C1356 C1359 1.386 . S
H1357 C1373 0.930 . S
H1358 C1374 0.931 . S
C1359 H1347 0.929 . S
C1359 C1353 1.390 . S
C1359 C1356 1.386 . S
C1360 C1355 1.490 . S
C1360 C1362 1.395 1_565 S
C1360 C1363 1.403 . S
H1361 C1367 0.930 . S
C1362 H1348 0.930 . S
C1362 C1360 1.395 1_545 S
C1362 C1365 1.403 . S
C1363 C1360 1.403 . S
C1363 C1364 1.524 . S
C1363 C1367 1.400 . S
C1364 H1349 0.960 . S
C1364 H1350 0.960 . S
C1364 H1351 0.960 . S
C1364 C1363 1.524 . S
C1365 C1362 1.403 . S
C1365 C1366 1.392 . S
C1365 C1369 1.495 . S
C1366 C1365 1.392 . S
C1366 C1367 1.385 1_545 S
C1366 C1368 1.478 . S
C1367 H1361 0.930 . S
C1367 C1363 1.400 . S
C1367 C1366 1.385 1_565 S
C1368 C1366 1.478 . S
C1368 C1370 1.381 . S
C1368 C1374 1.383 . S
C1369 C1365 1.495 . S
C1369 H1375 0.959 . S
C1369 H1376 0.961 . S
C1369 H1377 0.960 . S
C1370 C1368 1.381 . S
C1370 C1371 1.394 . S
C1370 H1378 0.930 . S
C1371 C1370 1.394 . S
C1371 C1372 1.383 . S
C1371 H1379 0.929 . S
C1372 C1371 1.383 . S
C1372 C1373 1.377 . S
C1373 H1357 0.930 . S
C1373 C1372 1.377 . S
C1373 C1374 1.379 . S
C1374 H1358 0.931 . S
C1374 C1368 1.383 . S
C1374 C1373 1.379 . S
H1375 C1369 0.959 . S
H1376 C1369 0.961 . S
H1377 C1369 0.960 . S
H1378 C1370 0.930 . S
H1379 C1371 0.929 . S
H1380 C1388 0.929 . S
H1381 C1390 0.930 . S
H1382 C1392 0.930 . S
H1383 C1395 0.929 . S
H1384 C1398 0.930 . S
H1385 C1400 0.960 . S
H1386 C1400 0.960 . S
H1387 C1400 0.960 . S
C1388 H1380 0.929 . S
C1388 C1389 1.377 . S
C1388 C1390 1.384 . S
C1389 C1388 1.377 . S
C1389 C1395 1.390 . S
C1390 H1381 0.930 . S
C1390 C1388 1.384 . S
C1390 C1391 1.372 . S
C1391 C1390 1.372 . S
C1391 C1392 1.400 . S
C1391 C1396 1.490 . S
C1392 H1382 0.930 . S
C1392 C1391 1.400 . S
C1392 C1395 1.386 . S
H1393 C1409 0.930 . S
H1394 C1410 0.931 . S
C1395 H1383 0.929 . S
C1395 C1389 1.390 . S
C1395 C1392 1.386 . S
C1396 C1391 1.490 . S
C1396 C1398 1.395 . S
C1396 C1399 1.403 . S
H1397 C1403 0.930 . S
C1398 H1384 0.930 . S
C1398 C1396 1.395 . S
C1398 C1401 1.403 . S
C1399 C1396 1.403 . S
C1399 C1400 1.524 . S
C1399 C1403 1.400 . S
C1400 H1385 0.960 . S
C1400 H1386 0.960 . S
C1400 H1387 0.960 . S
C1400 C1399 1.524 . S
C1401 C1398 1.403 . S
C1401 C1402 1.392 . S
C1401 C1405 1.495 . S
C1402 C1401 1.392 . S
C1402 C1403 1.385 . S
C1402 C1404 1.478 . S
C1403 H1397 0.930 . S
C1403 C1399 1.400 . S
C1403 C1402 1.385 . S
C1404 C1402 1.478 . S
C1404 C1406 1.381 . S
C1404 C1410 1.383 . S
C1405 C1401 1.495 . S
C1405 H1411 0.959 . S
C1405 H1412 0.961 . S
C1405 H1413 0.960 . S
C1406 C1404 1.381 . S
C1406 C1407 1.394 . S
C1406 H1414 0.930 . S
C1407 C1406 1.394 . S
C1407 C1408 1.383 . S
C1407 H1415 0.929 . S
C1408 C1407 1.383 . S
C1408 C1409 1.377 . S
C1409 H1393 0.930 . S
C1409 C1408 1.377 . S
C1409 C1410 1.379 . S
C1410 H1394 0.931 . S
C1410 C1404 1.383 . S
C1410 C1409 1.379 . S
H1411 C1405 0.959 . S
H1412 C1405 0.961 . S
H1413 C1405 0.960 . S
H1414 C1406 0.930 . S
H1415 C1407 0.929 . S
H1416 C1424 0.929 . S
H1417 C1426 0.930 . S
H1418 C1428 0.930 . S
H1419 C1431 0.929 . S
H1420 C1434 0.915 . S
H1421 C1436 0.960 . S
H1422 C1436 0.960 . S
H1423 C1436 0.960 . S
C1424 H1416 0.929 . S
C1424 C1425 1.377 . S
C1424 C1426 1.384 . S
C1425 C1424 1.377 . S
C1425 C1431 1.390 . S
C1426 H1417 0.930 . S
C1426 C1424 1.384 . S
C1426 C1427 1.372 . S
C1427 C1426 1.372 . S
C1427 C1428 1.400 . S
C1427 C1432 1.490 . S
C1428 H1418 0.930 . S
C1428 C1427 1.400 . S
C1428 C1431 1.386 . S
H1429 C1445 0.930 . S
H1430 C1446 0.931 . S
C1431 H1419 0.929 . S
C1431 C1425 1.390 . S
C1431 C1428 1.386 . S
C1432 C1427 1.490 . S
C1432 C1434 1.442 . S
C1432 C1435 1.403 . S
H1433 C1439 0.930 . S
C1434 H1420 0.915 . S
C1434 C1432 1.442 . S
C1434 C1437 1.372 1_655 S
C1435 C1432 1.403 . S
C1435 C1436 1.524 . S
C1435 C1439 1.400 1_655 S
C1436 H1421 0.960 . S
C1436 H1422 0.960 . S
C1436 H1423 0.960 . S
C1436 C1435 1.524 . S
C1437 C1434 1.372 1_455 S
C1437 C1438 1.392 . S
C1437 C1441 1.495 . S
C1438 C1437 1.392 . S
C1438 C1439 1.385 . S
C1438 C1440 1.478 . S
C1439 H1433 0.930 . S
C1439 C1435 1.400 1_455 S
C1439 C1438 1.385 . S
C1440 C1438 1.478 . S
C1440 C1442 1.381 . S
C1440 C1446 1.383 . S
C1441 C1437 1.495 . S
C1441 H1447 0.959 . S
C1441 H1448 0.961 . S
C1441 H1449 0.960 . S
C1442 C1440 1.381 . S
C1442 C1443 1.394 . S
C1442 H1450 0.930 . S
C1443 C1442 1.394 . S
C1443 C1444 1.383 . S
C1443 H1451 0.929 . S
C1444 C1443 1.383 . S
C1444 C1445 1.377 . S
C1445 H1429 0.930 . S
C1445 C1444 1.377 . S
C1445 C1446 1.379 . S
C1446 H1430 0.931 . S
C1446 C1440 1.383 . S
C1446 C1445 1.379 . S
H1447 C1441 0.959 . S
H1448 C1441 0.961 . S
H1449 C1441 0.960 . S
H1450 C1442 0.930 . S
H1451 C1443 0.929 . S
H1452 C1460 0.929 . S
H1453 C1462 0.930 . S
H1454 C1464 0.930 . S
H1455 C1467 0.929 . S
H1456 C1470 0.930 . S
H1457 C1472 0.960 . S
H1458 C1472 0.960 . S
H1459 C1472 0.960 . S
C1460 H1452 0.929 . S
C1460 C1461 1.377 . S
C1460 C1462 1.384 . S
C1461 C1460 1.377 . S
C1461 C1467 1.390 . S
C1462 H1453 0.930 . S
C1462 C1460 1.384 . S
C1462 C1463 1.372 . S
C1463 C1462 1.372 . S
C1463 C1464 1.400 . S
C1463 C1468 1.490 . S
C1464 H1454 0.930 . S
C1464 C1463 1.400 . S
C1464 C1467 1.386 . S
H1465 C1481 0.930 . S
H1466 C1482 0.931 . S
C1467 H1455 0.929 . S
C1467 C1461 1.390 . S
C1467 C1464 1.386 . S
C1468 C1463 1.490 . S
C1468 C1470 1.395 1_545 S
C1468 C1471 1.403 . S
H1469 C1475 0.930 . S
C1470 H1456 0.930 . S
C1470 C1468 1.395 1_565 S
C1470 C1473 1.403 . S
C1471 C1468 1.403 . S
C1471 C1472 1.524 . S
C1471 C1475 1.400 . S
C1472 H1457 0.960 . S
C1472 H1458 0.960 . S
C1472 H1459 0.960 . S
C1472 C1471 1.524 . S
C1473 C1470 1.403 . S
C1473 C1474 1.392 . S
C1473 C1477 1.495 . S
C1474 C1473 1.392 . S
C1474 C1475 1.385 1_565 S
C1474 C1476 1.478 . S
C1475 H1469 0.930 . S
C1475 C1471 1.400 . S
C1475 C1474 1.385 1_545 S
C1476 C1474 1.478 . S
C1476 C1478 1.381 . S
C1476 C1482 1.383 . S
C1477 C1473 1.495 . S
C1477 H1483 0.959 . S
C1477 H1484 0.961 . S
C1477 H1485 0.960 . S
C1478 C1476 1.381 . S
C1478 C1479 1.394 . S
C1478 H1486 0.930 . S
C1479 C1478 1.394 . S
C1479 C1480 1.383 . S
C1479 H1487 0.929 . S
C1480 C1479 1.383 . S
C1480 C1481 1.377 . S
C1481 H1465 0.930 . S
C1481 C1480 1.377 . S
C1481 C1482 1.379 . S
C1482 H1466 0.931 . S
C1482 C1476 1.383 . S
C1482 C1481 1.379 . S
H1483 C1477 0.959 . S
H1484 C1477 0.961 . S
H1485 C1477 0.960 . S
H1486 C1478 0.930 . S
H1487 C1479 0.929 . S
H1488 C1496 0.929 . S
H1489 C1498 0.930 . S
H1490 C1500 0.930 . S
H1491 C1503 0.929 . S
H1492 C1506 0.930 . S
H1493 C1508 0.960 . S
H1494 C1508 0.960 . S
H1495 C1508 0.960 . S
C1496 H1488 0.929 . S
C1496 C1497 1.377 . S
C1496 C1498 1.384 . S
C1497 C1496 1.377 . S
C1497 C1503 1.390 . S
C1498 H1489 0.930 . S
C1498 C1496 1.384 . S
C1498 C1499 1.372 . S
C1499 C1498 1.372 . S
C1499 C1500 1.400 . S
C1499 C1504 1.490 . S
C1500 H1490 0.930 . S
C1500 C1499 1.400 . S
C1500 C1503 1.386 . S
H1501 C1517 0.930 . S
H1502 C1518 0.931 . S
C1503 H1491 0.929 . S
C1503 C1497 1.390 . S
C1503 C1500 1.386 . S
C1504 C1499 1.490 . S
C1504 C1506 1.395 . S
C1504 C1507 1.403 . S
H1505 C1511 0.930 . S
C1506 H1492 0.930 . S
C1506 C1504 1.395 . S
C1506 C1509 1.403 . S
C1507 C1504 1.403 . S
C1507 C1508 1.524 . S
C1507 C1511 1.400 . S
C1508 H1493 0.960 . S
C1508 H1494 0.960 . S
C1508 H1495 0.960 . S
C1508 C1507 1.524 . S
C1509 C1506 1.403 . S
C1509 C1510 1.392 . S
C1509 C1513 1.495 . S
C1510 C1509 1.392 . S
C1510 C1511 1.385 . S
C1510 C1512 1.478 . S
C1511 H1505 0.930 . S
C1511 C1507 1.400 . S
C1511 C1510 1.385 . S
C1512 C1510 1.478 . S
C1512 C1514 1.381 . S
C1512 C1518 1.383 . S
C1513 C1509 1.495 . S
C1513 H1519 0.959 . S
C1513 H1520 0.961 . S
C1513 H1521 0.960 . S
C1514 C1512 1.381 . S
C1514 C1515 1.394 . S
C1514 H1522 0.930 . S
C1515 C1514 1.394 . S
C1515 C1516 1.383 . S
C1515 H1523 0.929 . S
C1516 C1515 1.383 . S
C1516 C1517 1.377 . S
C1517 H1501 0.930 . S
C1517 C1516 1.377 . S
C1517 C1518 1.379 . S
C1518 H1502 0.931 . S
C1518 C1512 1.383 . S
C1518 C1517 1.379 . S
H1519 C1513 0.959 . S
H1520 C1513 0.961 . S
H1521 C1513 0.960 . S
H1522 C1514 0.930 . S
H1523 C1515 0.929 . S
H1524 C1532 0.929 . S
H1525 C1534 0.930 . S
H1526 C1536 0.930 . S
H1527 C1539 0.929 . S
H1528 C1542 0.930 . S
H1529 C1544 0.960 . S
H1530 C1544 0.960 . S
H1531 C1544 0.960 . S
C1532 H1524 0.929 . S
C1532 C1533 1.377 . S
C1532 C1534 1.384 . S
C1533 C1532 1.377 . S
C1533 C1539 1.390 . S
C1534 H1525 0.930 . S
C1534 C1532 1.384 . S
C1534 C1535 1.372 . S
C1535 C1534 1.372 . S
C1535 C1536 1.400 . S
C1535 C1540 1.490 . S
C1536 H1526 0.930 . S
C1536 C1535 1.400 . S
C1536 C1539 1.386 . S
H1537 C1553 0.930 . S
H1538 C1554 0.931 . S
C1539 H1527 0.929 . S
C1539 C1533 1.390 . S
C1539 C1536 1.386 . S
C1540 C1535 1.490 . S
C1540 C1542 1.395 . S
C1540 C1543 1.403 . S
H1541 C1547 0.930 . S
C1542 H1528 0.930 . S
C1542 C1540 1.395 . S
C1542 C1545 1.403 1_455 S
C1543 C1540 1.403 . S
C1543 C1544 1.524 . S
C1543 C1547 1.400 1_455 S
C1544 H1529 0.960 . S
C1544 H1530 0.960 . S
C1544 H1531 0.960 . S
C1544 C1543 1.524 . S
C1545 C1542 1.403 1_655 S
C1545 C1546 1.392 . S
C1545 C1549 1.495 . S
C1546 C1545 1.392 . S
C1546 C1547 1.385 . S
C1546 C1548 1.478 . S
C1547 H1541 0.930 . S
C1547 C1543 1.400 1_655 S
C1547 C1546 1.385 . S
C1548 C1546 1.478 . S
C1548 C1550 1.381 . S
C1548 C1554 1.383 . S
C1549 C1545 1.495 . S
C1549 H1555 0.959 . S
C1549 H1556 0.961 . S
C1549 H1557 0.960 . S
C1550 C1548 1.381 . S
C1550 C1551 1.394 . S
C1550 H1558 0.930 . S
C1551 C1550 1.394 . S
C1551 C1552 1.383 . S
C1551 H1559 0.929 . S
C1552 C1551 1.383 . S
C1552 C1553 1.377 . S
C1553 H1537 0.930 . S
C1553 C1552 1.377 . S
C1553 C1554 1.379 . S
C1554 H1538 0.931 . S
C1554 C1548 1.383 . S
C1554 C1553 1.379 . S
H1555 C1549 0.959 . S
H1556 C1549 0.961 . S
H1557 C1549 0.960 . S
H1558 C1550 0.930 . S
H1559 C1551 0.929 . S
H1560 C1568 0.929 . S
H1561 C1570 0.930 . S
H1562 C1572 0.930 . S
H1563 C1575 0.929 . S
H1564 C1578 0.930 . S
H1565 C1580 0.960 . S
H1566 C1580 0.960 . S
H1567 C1580 0.960 . S
C1568 H1560 0.929 . S
C1568 C1569 1.377 . S
C1568 C1570 1.384 . S
C1569 C1568 1.377 . S
C1569 C1575 1.390 . S
C1570 H1561 0.930 . S
C1570 C1568 1.384 . S
C1570 C1571 1.372 . S
C1571 C1570 1.372 . S
C1571 C1572 1.400 . S
C1571 C1576 1.490 . S
C1572 H1562 0.930 . S
C1572 C1571 1.400 . S
C1572 C1575 1.386 . S
H1573 C1589 0.930 . S
H1574 C1590 0.931 . S
C1575 H1563 0.929 . S
C1575 C1569 1.390 . S
C1575 C1572 1.386 . S
C1576 C1571 1.490 . S
C1576 C1578 1.395 . S
C1576 C1579 1.403 . S
H1577 C1583 0.930 . S
C1578 H1564 0.930 . S
C1578 C1576 1.395 . S
C1578 C1581 1.403 . S
C1579 C1576 1.403 . S
C1579 C1580 1.524 . S
C1579 C1583 1.400 . S
C1580 H1565 0.960 . S
C1580 H1566 0.960 . S
C1580 H1567 0.960 . S
C1580 C1579 1.524 . S
C1581 C1578 1.403 . S
C1581 C1582 1.392 . S
C1581 C1585 1.495 . S
C1582 C1581 1.392 . S
C1582 C1583 1.385 . S
C1582 C1584 1.478 . S
C1583 H1577 0.930 . S
C1583 C1579 1.400 . S
C1583 C1582 1.385 . S
C1584 C1582 1.478 . S
C1584 C1586 1.381 . S
C1584 C1590 1.383 . S
C1585 C1581 1.495 . S
C1585 H1591 0.959 . S
C1585 H1592 0.961 . S
C1585 H1593 0.960 . S
C1586 C1584 1.381 . S
C1586 C1587 1.394 . S
C1586 H1594 0.930 . S
C1587 C1586 1.394 . S
C1587 C1588 1.383 . S
C1587 H1595 0.929 . S
C1588 C1587 1.383 . S
C1588 C1589 1.377 . S
C1589 H1573 0.930 . S
C1589 C1588 1.377 . S
C1589 C1590 1.379 . S
C1590 H1574 0.931 . S
C1590 C1584 1.383 . S
C1590 C1589 1.379 . S
H1591 C1585 0.959 . S
H1592 C1585 0.961 . S
H1593 C1585 0.960 . S
H1594 C1586 0.930 . S
H1595 C1587 0.929 . S
H1596 C1604 0.929 . S
H1597 C1606 0.930 . S
H1598 C1608 0.930 . S
H1599 C1611 0.929 . S
H1600 C1614 0.930 . S
H1601 C1616 0.960 . S
H1602 C1616 0.960 . S
H1603 C1616 0.960 . S
C1604 H1596 0.929 . S
C1604 C1605 1.377 . S
C1604 C1606 1.384 . S
C1605 C1604 1.377 . S
C1605 C1611 1.390 . S
C1606 H1597 0.930 . S
C1606 C1604 1.384 . S
C1606 C1607 1.372 . S
C1607 C1606 1.372 . S
C1607 C1608 1.400 . S
C1607 C1612 1.490 . S
C1608 H1598 0.930 . S
C1608 C1607 1.400 . S
C1608 C1611 1.386 . S
H1609 C1625 0.930 . S
H1610 C1626 0.931 . S
C1611 H1599 0.929 . S
C1611 C1605 1.390 . S
C1611 C1608 1.386 . S
C1612 C1607 1.490 . S
C1612 C1614 1.395 . S
C1612 C1615 1.403 . S
H1613 C1619 0.930 . S
C1614 H1600 0.930 . S
C1614 C1612 1.395 . S
C1614 C1617 1.403 . S
C1615 C1612 1.403 . S
C1615 C1616 1.524 . S
C1615 C1619 1.400 . S
C1616 H1601 0.960 . S
C1616 H1602 0.960 . S
C1616 H1603 0.960 . S
C1616 C1615 1.524 . S
C1617 C1614 1.403 . S
C1617 C1618 1.392 . S
C1617 C1621 1.495 . S
C1618 C1617 1.392 . S
C1618 C1619 1.385 . S
C1618 C1620 1.478 . S
C1619 H1613 0.930 . S
C1619 C1615 1.400 . S
C1619 C1618 1.385 . S
C1620 C1618 1.478 . S
C1620 C1622 1.381 . S
C1620 C1626 1.383 . S
C1621 C1617 1.495 . S
C1621 H1627 0.959 . S
C1621 H1628 0.961 . S
C1621 H1629 0.960 . S
C1622 C1620 1.381 . S
C1622 C1623 1.394 . S
C1622 H1630 0.930 . S
C1623 C1622 1.394 . S
C1623 C1624 1.383 . S
C1623 H1631 0.929 . S
C1624 C1623 1.383 . S
C1624 C1625 1.377 . S
C1625 H1609 0.930 . S
C1625 C1624 1.377 . S
C1625 C1626 1.379 . S
C1626 H1610 0.931 . S
C1626 C1620 1.383 . S
C1626 C1625 1.379 . S
H1627 C1621 0.959 . S
H1628 C1621 0.961 . S
H1629 C1621 0.960 . S
H1630 C1622 0.930 . S
H1631 C1623 0.929 . S
H1632 C1640 0.929 . S
H1633 C1642 0.930 . S
H1634 C1644 0.930 . S
H1635 C1647 0.929 . S
H1636 C1650 0.930 . S
H1637 C1652 0.960 . S
H1638 C1652 0.960 . S
H1639 C1652 0.960 . S
C1640 H1632 0.929 . S
C1640 C1641 1.377 . S
C1640 C1642 1.384 . S
C1641 C1640 1.377 . S
C1641 C1647 1.390 . S
C1642 H1633 0.930 . S
C1642 C1640 1.384 . S
C1642 C1643 1.372 . S
C1643 C1642 1.372 . S
C1643 C1644 1.400 . S
C1643 C1648 1.490 . S
C1644 H1634 0.930 . S
C1644 C1643 1.400 . S
C1644 C1647 1.386 . S
H1645 C1661 0.930 . S
H1646 C1662 0.931 . S
C1647 H1635 0.929 . S
C1647 C1641 1.390 . S
C1647 C1644 1.386 . S
C1648 C1643 1.490 . S
C1648 C1650 1.395 . S
C1648 C1651 1.403 . S
H1649 C1655 0.930 . S
C1650 H1636 0.930 . S
C1650 C1648 1.395 . S
C1650 C1653 1.403 . S
C1651 C1648 1.403 . S
C1651 C1652 1.524 . S
C1651 C1655 1.400 . S
C1652 H1637 0.960 . S
C1652 H1638 0.960 . S
C1652 H1639 0.960 . S
C1652 C1651 1.524 . S
C1653 C1650 1.403 . S
C1653 C1654 1.392 . S
C1653 C1657 1.495 . S
C1654 C1653 1.392 . S
C1654 C1655 1.385 . S
C1654 C1656 1.478 . S
C1655 H1649 0.930 . S
C1655 C1651 1.400 . S
C1655 C1654 1.385 . S
C1656 C1654 1.478 . S
C1656 C1658 1.381 . S
C1656 C1662 1.383 . S
C1657 C1653 1.495 . S
C1657 H1663 0.959 . S
C1657 H1664 0.961 . S
C1657 H1665 0.960 . S
C1658 C1656 1.381 . S
C1658 C1659 1.394 . S
C1658 H1666 0.930 . S
C1659 C1658 1.394 . S
C1659 C1660 1.383 . S
C1659 H1667 0.929 . S
C1660 C1659 1.383 . S
C1660 C1661 1.377 . S
C1661 H1645 0.930 . S
C1661 C1660 1.377 . S
C1661 C1662 1.379 . S
C1662 H1646 0.931 . S
C1662 C1656 1.383 . S
C1662 C1661 1.379 . S
H1663 C1657 0.959 . S
H1664 C1657 0.961 . S
H1665 C1657 0.960 . S
H1666 C1658 0.930 . S
H1667 C1659 0.929 . S
H1668 C1676 0.929 . S
H1669 C1678 0.930 . S
H1670 C1680 0.930 . S
H1671 C1683 0.929 . S
H1672 C1686 0.930 . S
H1673 C1688 0.960 . S
H1674 C1688 0.960 . S
H1675 C1688 0.960 . S
C1676 H1668 0.929 . S
C1676 C1677 1.377 . S
C1676 C1678 1.384 . S
C1677 C1676 1.377 . S
C1677 C1683 1.390 . S
C1678 H1669 0.930 . S
C1678 C1676 1.384 . S
C1678 C1679 1.372 . S
C1679 C1678 1.372 . S
C1679 C1680 1.400 . S
C1679 C1684 1.490 . S
C1680 H1670 0.930 . S
C1680 C1679 1.400 . S
C1680 C1683 1.386 . S
H1681 C1697 0.930 . S
H1682 C1698 0.931 . S
C1683 H1671 0.929 . S
C1683 C1677 1.390 . S
C1683 C1680 1.386 . S
C1684 C1679 1.490 . S
C1684 C1686 1.395 . S
C1684 C1687 1.403 . S
H1685 C1691 0.930 . S
C1686 H1672 0.930 . S
C1686 C1684 1.395 . S
C1686 C1689 1.403 . S
C1687 C1684 1.403 . S
C1687 C1688 1.524 . S
C1687 C1691 1.400 . S
C1688 H1673 0.960 . S
C1688 H1674 0.960 . S
C1688 H1675 0.960 . S
C1688 C1687 1.524 . S
C1689 C1686 1.403 . S
C1689 C1690 1.392 . S
C1689 C1693 1.495 . S
C1690 C1689 1.392 . S
C1690 C1691 1.385 . S
C1690 C1692 1.478 . S
C1691 H1685 0.930 . S
C1691 C1687 1.400 . S
C1691 C1690 1.385 . S
C1692 C1690 1.478 . S
C1692 C1694 1.381 . S
C1692 C1698 1.383 . S
C1693 C1689 1.495 . S
C1693 H1699 0.959 . S
C1693 H1700 0.961 . S
C1693 H1701 0.960 . S
C1694 C1692 1.381 . S
C1694 C1695 1.394 . S
C1694 H1702 0.930 . S
C1695 C1694 1.394 . S
C1695 C1696 1.383 . S
C1695 H1703 0.929 . S
C1696 C1695 1.383 . S
C1696 C1697 1.377 . S
C1697 H1681 0.930 . S
C1697 C1696 1.377 . S
C1697 C1698 1.379 . S
C1698 H1682 0.931 . S
C1698 C1692 1.383 . S
C1698 C1697 1.379 . S
H1699 C1693 0.959 . S
H1700 C1693 0.961 . S
H1701 C1693 0.960 . S
H1702 C1694 0.930 . S
H1703 C1695 0.929 . S
H1704 C1712 0.929 . S
H1705 C1714 0.930 . S
H1706 C1716 0.930 . S
H1707 C1719 0.929 . S
H1708 C1722 0.930 . S
H1709 C1724 0.960 . S
H1710 C1724 0.960 . S
H1711 C1724 0.960 . S
C1712 H1704 0.929 . S
C1712 C1713 1.377 . S
C1712 C1714 1.384 . S
C1713 C1712 1.377 . S
C1713 C1719 1.390 . S
C1714 H1705 0.930 . S
C1714 C1712 1.384 . S
C1714 C1715 1.372 . S
C1715 C1714 1.372 . S
C1715 C1716 1.400 . S
C1715 C1720 1.490 . S
C1716 H1706 0.930 . S
C1716 C1715 1.400 . S
C1716 C1719 1.386 . S
H1717 C1733 0.930 . S
H1718 C1734 0.931 . S
C1719 H1707 0.929 . S
C1719 C1713 1.390 . S
C1719 C1716 1.386 . S
C1720 C1715 1.490 . S
C1720 C1722 1.395 . S
C1720 C1723 1.403 . S
H1721 C1727 0.930 . S
C1722 H1708 0.930 . S
C1722 C1720 1.395 . S
C1722 C1725 1.403 . S
C1723 C1720 1.403 . S
C1723 C1724 1.524 . S
C1723 C1727 1.400 . S
C1724 H1709 0.960 . S
C1724 H1710 0.960 . S
C1724 H1711 0.960 . S
C1724 C1723 1.524 . S
C1725 C1722 1.403 . S
C1725 C1726 1.392 . S
C1725 C1729 1.495 . S
C1726 C1725 1.392 . S
C1726 C1727 1.385 . S
C1726 C1728 1.478 . S
C1727 H1721 0.930 . S
C1727 C1723 1.400 . S
C1727 C1726 1.385 . S
C1728 C1726 1.478 . S
C1728 C1730 1.381 . S
C1728 C1734 1.383 . S
C1729 C1725 1.495 . S
C1729 H1735 0.959 . S
C1729 H1736 0.961 . S
C1729 H1737 0.960 . S
C1730 C1728 1.381 . S
C1730 C1731 1.394 . S
C1730 H1738 0.930 . S
C1731 C1730 1.394 . S
C1731 C1732 1.383 . S
C1731 H1739 0.929 . S
C1732 C1731 1.383 . S
C1732 C1733 1.377 . S
C1733 H1717 0.930 . S
C1733 C1732 1.377 . S
C1733 C1734 1.379 . S
C1734 H1718 0.931 . S
C1734 C1728 1.383 . S
C1734 C1733 1.379 . S
H1735 C1729 0.959 . S
H1736 C1729 0.961 . S
H1737 C1729 0.960 . S
H1738 C1730 0.930 . S
H1739 C1731 0.929 . S
H1740 C1748 0.929 . S
H1741 C1750 0.930 . S
H1742 C1752 0.930 . S
H1743 C1755 0.929 . S
H1744 C1758 0.930 . S
H1745 C1760 0.960 . S
H1746 C1760 0.960 . S
H1747 C1760 0.960 . S
C1748 H1740 0.929 . S
C1748 C1749 1.377 . S
C1748 C1750 1.384 . S
C1749 C1748 1.377 . S
C1749 C1755 1.390 . S
C1750 H1741 0.930 . S
C1750 C1748 1.384 . S
C1750 C1751 1.372 . S
C1751 C1750 1.372 . S
C1751 C1752 1.400 . S
C1751 C1756 1.490 . S
C1752 H1742 0.930 . S
C1752 C1751 1.400 . S
C1752 C1755 1.386 . S
H1753 C1769 0.930 . S
H1754 C1770 0.931 . S
C1755 H1743 0.929 . S
C1755 C1749 1.390 . S
C1755 C1752 1.386 . S
C1756 C1751 1.490 . S
C1756 C1758 1.395 . S
C1756 C1759 1.403 . S
H1757 C1763 0.930 . S
C1758 H1744 0.930 . S
C1758 C1756 1.395 . S
C1758 C1761 1.403 . S
C1759 C1756 1.403 . S
C1759 C1760 1.524 . S
C1759 C1763 1.400 . S
C1760 H1745 0.960 . S
C1760 H1746 0.960 . S
C1760 H1747 0.960 . S
C1760 C1759 1.524 . S
C1761 C1758 1.403 . S
C1761 C1762 1.392 . S
C1761 C1765 1.495 . S
C1762 C1761 1.392 . S
C1762 C1763 1.385 . S
C1762 C1764 1.478 . S
C1763 H1757 0.930 . S
C1763 C1759 1.400 . S
C1763 C1762 1.385 . S
C1764 C1762 1.478 . S
C1764 C1766 1.381 . S
C1764 C1770 1.383 . S
C1765 C1761 1.495 . S
C1765 H1771 0.959 . S
C1765 H1772 0.961 . S
C1765 H1773 0.960 . S
C1766 C1764 1.381 . S
C1766 C1767 1.394 . S
C1766 H1774 0.930 . S
C1767 C1766 1.394 . S
C1767 C1768 1.383 . S
C1767 H1775 0.929 . S
C1768 C1767 1.383 . S
C1768 C1769 1.377 . S
C1769 H1753 0.930 . S
C1769 C1768 1.377 . S
C1769 C1770 1.379 . S
C1770 H1754 0.931 . S
C1770 C1764 1.383 . S
C1770 C1769 1.379 . S
H1771 C1765 0.959 . S
H1772 C1765 0.961 . S
H1773 C1765 0.960 . S
H1774 C1766 0.930 . S
H1775 C1767 0.929 . S
C489 C2 0.809 . S
C508 C322 0.800 . S
C525 C42 0.810 . S
C544 C362 0.812 . S
C561 C82 0.805 . S
C580 C402 0.811 . S
C597 C442 0.804 . S
C616 C122 0.797 . S
C633 C162 0.804 . S
C652 C242 0.802 . S
C669 C282 0.809 . S
C688 C202 0.820 . S
C705 C417 1.459 . S
C724 C17 1.480 . S
C741 C457 1.465 . S
C760 C57 1.465 . S
C777 C97 1.458 . S
C796 C257 1.473 . S
C813 C297 1.465 . S
C832 C137 1.472 . S
C849 C337 1.460 . S
C868 C177 1.461 . S
C885 C217 1.459 . S
C904 C377 1.462 . S
C921 C304 4.338 . S
C940 C24 4.333 . S
C957 C344 4.336 . S
C976 C64 4.338 . S
C993 C384 4.337 . S
C1012 C104 4.337 . S
C1029 C144 4.337 . S
C1048 C424 4.332 . S
C1065 C184 4.336 . S
C1084 C464 4.340 . S
C1101 C224 4.339 . S
C1120 C264 4.324 . S
C1137 C23 0.525 . S
C1156 C143 0.450 . S
C1173 C63 0.516 . S
C1192 C183 0.545 . S
C1209 C103 0.508 . S
C1228 C223 0.525 . S
C1245 C383 0.513 . S
C1264 C263 0.504 . S
C1281 C303 0.504 . S
C1300 C423 0.592 . S
C1317 C463 0.517 . S
C1336 C343 0.487 . S
C1353 C306 0.980 . S
C1372 C26 0.994 . S
C1389 C346 0.977 . S
C1408 C66 0.970 . S
C1425 C106 0.977 . S
C1444 C386 1.024 . S
C1461 C426 0.980 . S
C1480 C146 1.000 . S
C1497 C466 0.972 . S
C1516 C186 0.951 . S
C1533 C226 0.969 . S
C1552 C266 0.941 . S
C1569 C13 4.480 . S
C1588 C413 4.477 . S
C1605 C53 4.482 . S
C1624 C453 4.473 1_556 S
C1641 C93 4.481 1_554 S
C1660 C253 4.479 . S
C1677 C133 4.481 . S
C1696 C293 4.479 . S
C1713 C173 4.481 . S
C1732 C333 4.471 1_556 S
C1749 C373 4.481 . S
C1768 C213 4.478 1_554 S
