# Generated by pormake.
# Topology can, (4)-cn, num edge types: 1
# Building blocks:
#     Node 0, Type 0, BuildingBlock: CEKHIL_clean_sbu_0, # of connection points: 4
#     Node 1, Type 0, BuildingBlock: CEKHIL_clean_sbu_0, # of connection points: 4
#     Node 2, Type 0, BuildingBlock: CEKHIL_clean_sbu_0, # of connection points: 4
#     Node 3, Type 0, BuildingBlock: CEKHIL_clean_sbu_0, # of connection points: 4
#     Node 4, Type 0, BuildingBlock: CEKHIL_clean_sbu_0, # of connection points: 4
#     Node 5, Type 0, BuildingBlock: CEKHIL_clean_sbu_0, # of connection points: 4
#     Node 6, Type 0, BuildingBlock: CEKHIL_clean_sbu_0, # of connection points: 4
#     Node 7, Type 0, BuildingBlock: CEKHIL_clean_sbu_0, # of connection points: 4
#     Node 8, Type 0, BuildingBlock: CEKHIL_clean_sbu_0, # of connection points: 4
#     Node 9, Type 0, BuildingBlock: CEKHIL_clean_sbu_0, # of connection points: 4
#     Node 10, Type 0, BuildingBlock: CEKHIL_clean_sbu_0, # of connection points: 4
#     Node 11, Type 0, BuildingBlock: CEKHIL_clean_sbu_0, # of connection points: 4
#     Edge 12, Type (0, 0), BuildingBlock: CIFDUS_clean_linker_0, # of connection points: 2
#     Edge 13, Type (0, 0), BuildingBlock: CIFDUS_clean_linker_0, # of connection points: 2
#     Edge 14, Type (0, 0), BuildingBlock: CIFDUS_clean_linker_0, # of connection points: 2
#     Edge 15, Type (0, 0), BuildingBlock: CIFDUS_clean_linker_0, # of connection points: 2
#     Edge 16, Type (0, 0), BuildingBlock: CIFDUS_clean_linker_0, # of connection points: 2
#     Edge 17, Type (0, 0), BuildingBlock: CIFDUS_clean_linker_0, # of connection points: 2
#     Edge 18, Type (0, 0), BuildingBlock: CIFDUS_clean_linker_0, # of connection points: 2
#     Edge 19, Type (0, 0), BuildingBlock: CIFDUS_clean_linker_0, # of connection points: 2
#     Edge 20, Type (0, 0), BuildingBlock: CIFDUS_clean_linker_0, # of connection points: 2
#     Edge 21, Type (0, 0), BuildingBlock: CIFDUS_clean_linker_0, # of connection points: 2
#     Edge 22, Type (0, 0), BuildingBlock: CIFDUS_clean_linker_0, # of connection points: 2
#     Edge 23, Type (0, 0), BuildingBlock: CIFDUS_clean_linker_0, # of connection points: 2
#     Edge 24, Type (0, 0), BuildingBlock: CIFDUS_clean_linker_0, # of connection points: 2
#     Edge 25, Type (0, 0), BuildingBlock: CIFDUS_clean_linker_0, # of connection points: 2
#     Edge 26, Type (0, 0), BuildingBlock: CIFDUS_clean_linker_0, # of connection points: 2
#     Edge 27, Type (0, 0), BuildingBlock: CIFDUS_clean_linker_0, # of connection points: 2
#     Edge 28, Type (0, 0), BuildingBlock: CIFDUS_clean_linker_0, # of connection points: 2
#     Edge 29, Type (0, 0), BuildingBlock: CIFDUS_clean_linker_0, # of connection points: 2
#     Edge 30, Type (0, 0), BuildingBlock: CIFDUS_clean_linker_0, # of connection points: 2
#     Edge 31, Type (0, 0), BuildingBlock: CIFDUS_clean_linker_0, # of connection points: 2
#     Edge 32, Type (0, 0), BuildingBlock: CIFDUS_clean_linker_0, # of connection points: 2
#     Edge 33, Type (0, 0), BuildingBlock: CIFDUS_clean_linker_0, # of connection points: 2
#     Edge 34, Type (0, 0), BuildingBlock: CIFDUS_clean_linker_0, # of connection points: 2
#     Edge 35, Type (0, 0), BuildingBlock: CIFDUS_clean_linker_0, # of connection points: 2
# Relax obj value: 0.060
# Max RMSD: 0.044
# Mean RMSD: 0.044
data_MOF--net-can--node1-CEKHIL_clean_sbu_0--edge1-CIFDUS_clean_linker_0
_symmetry_space_group_name_H-M    P1
_symmetry_Int_Tables_number       1
_symmetry_cell_setting            triclinic
loop_
_symmetry_equiv_pos_as_xyz
'x, y, z'
_cell_length_a     47.792762
_cell_length_b     47.823779
_cell_length_c     23.549439
_cell_angle_alpha  90.124105
_cell_angle_beta   89.894573
_cell_angle_gamma 120.05357
loop_
_atom_site_label
_atom_site_type_symbol
_atom_site_fract_x
_atom_site_fract_y
_atom_site_fract_z
_atom_type_partial_charge
Co0 Co 0.05919 0.38805 0.26063 0.0
O1 O 0.07961 0.36206 0.25951 0.0
O2 O 0.10191 0.41194 0.22647 0.0
C3 C 0.0433 0.37824 0.35249 0.0
O4 O 0.04587 0.42263 0.25675 0.0
Co5 Co 0.98518 0.35545 0.28362 0.0
O6 O 0.99443 0.40066 0.28717 0.0
C7 C 0.0081 0.34986 0.16981 0.0
C8 C 0.10465 0.38677 0.23754 0.0
C9 C 0.02082 0.4248 0.27013 0.0
O10 O 0.03767 0.36959 0.18448 0.0
O11 O 0.9844 0.33931 0.20475 0.0
O12 O 0.0726 0.40015 0.33948 0.0
O13 O 0.02574 0.36108 0.31048 0.0
Co14 Co 0.67618 0.0634 0.77283 0.0
O15 O 0.72293 0.08695 0.77308 0.0
O16 O 0.69243 0.10682 0.74431 0.0
C17 C 0.66998 0.04385 0.86244 0.0
O18 O 0.62778 0.04766 0.76916 0.0
Co19 Co 0.63775 0.98892 0.7838 0.0
O20 O 0.60025 0.99537 0.79448 0.0
C21 C 0.6646 0.01767 0.67187 0.0
C22 C 0.72123 0.11167 0.75495 0.0
C23 C 0.60118 0.02167 0.78145 0.0
O24 O 0.67495 0.04613 0.69312 0.0
O25 O 0.65101 0.99194 0.702 0.0
O26 O 0.67598 0.07307 0.85325 0.0
O27 O 0.67115 0.02847 0.818 0.0
Co28 Co 0.6198 0.67366 0.2707 0.0
O29 O 0.64639 0.72002 0.26666 0.0
O30 O 0.59586 0.69227 0.23648 0.0
C31 C 0.63113 0.66943 0.36249 0.0
O32 O 0.58445 0.62591 0.27016 0.0
Co33 Co 0.65095 0.63123 0.29532 0.0
O34 O 0.60542 0.59668 0.30542 0.0
C35 C 0.6555 0.65745 0.17979 0.0
C36 C 0.62145 0.72025 0.24564 0.0
C37 C 0.58148 0.59898 0.28755 0.0
O38 O 0.63677 0.66856 0.19424 0.0
O39 O 0.66574 0.64432 0.2152 0.0
O40 O 0.60933 0.67699 0.34988 0.0
O41 O 0.64723 0.66764 0.31995 0.0
Co42 Co 0.93981 0.60571 0.77859 0.0
O43 O 0.91757 0.63018 0.77794 0.0
O44 O 0.89601 0.57928 0.75085 0.0
C45 C 0.95994 0.62 0.86793 0.0
O46 O 0.95378 0.57165 0.77633 0.0
Co47 Co 0.01414 0.63922 0.78919 0.0
O48 O 1.00521 0.59493 0.80627 0.0
C49 C 0.98577 0.63801 0.67717 0.0
C50 C 0.89219 0.60394 0.76073 0.0
C51 C 0.97865 0.56996 0.79248 0.0
O52 O 0.95714 0.62061 0.69842 0.0
O53 O 0.01147 0.64944 0.70732 0.0
O54 O 0.9304 0.59717 0.85944 0.0
O55 O 0.97544 0.63551 0.82284 0.0
Co56 Co 0.33436 0.94789 0.27097 0.0
O57 O 0.28788 0.92774 0.27228 0.0
O58 O 0.31448 0.9026 0.24923 0.0
C59 C 0.34297 0.9729 0.35564 0.0
O60 O 0.38227 0.96052 0.26701 0.0
Co61 Co 0.37744 0.02337 0.27416 0.0
O62 O 0.4125 0.01354 0.28713 0.0
C63 C 0.34361 0.9904 0.16879 0.0
C64 C 0.28682 0.90106 0.25777 0.0
C65 C 0.40978 0.98605 0.2773 0.0
O66 O 0.33555 0.9624 0.18977 0.0
O67 O 0.3571 0.01653 0.19786 0.0
O68 O 0.33503 0.94264 0.35352 0.0
O69 O 0.34232 0.98558 0.308 0.0
Co70 Co 0.39696 0.33637 0.76347 0.0
O71 O 0.37032 0.29 0.76506 0.0
O72 O 0.42088 0.3162 0.73474 0.0
C73 C 0.38548 0.34478 0.85341 0.0
O74 O 0.43208 0.38412 0.75742 0.0
Co75 Co 0.36395 0.37788 0.77435 0.0
O76 O 0.40907 0.41404 0.77852 0.0
C77 C 0.36282 0.34855 0.66344 0.0
C78 C 0.39502 0.28869 0.74562 0.0
C79 C 0.43371 0.41157 0.7659 0.0
O80 O 0.38073 0.3379 0.68424 0.0
O81 O 0.35166 0.36306 0.69367 0.0
O82 O 0.40726 0.33674 0.84383 0.0
O83 O 0.36913 0.34425 0.80929 0.0
Co84 Co 0.59985 0.92252 0.24158 0.0
O85 O 0.62532 0.9014 0.23887 0.0
O86 O 0.57478 0.87847 0.26885 0.0
C87 C 0.61253 0.94318 0.1524 0.0
O88 O 0.56493 0.93526 0.24776 0.0
Co89 Co 0.63169 0.99667 0.233 0.0
O90 O 0.5867 0.98808 0.22801 0.0
C91 C 0.63399 0.96802 0.34256 0.0
C92 C 0.59981 0.87558 0.25692 0.0
C93 C 0.56241 0.96055 0.23951 0.0
O94 O 0.61599 0.93951 0.32139 0.0
O95 O 0.6447 0.9938 0.31289 0.0
O96 O 0.59006 0.9135 0.16098 0.0
O97 O 0.62849 0.95867 0.19717 0.0
Co98 Co 0.68351 0.61232 0.75038 0.0
O99 O 0.72966 0.64122 0.7531 0.0
O100 O 0.7048 0.59076 0.78372 0.0
C101 C 0.6776 0.62277 0.65886 0.0
O102 O 0.63672 0.57475 0.75221 0.0
Co103 Co 0.63673 0.63855 0.72729 0.0
O104 O 0.60419 0.59221 0.71847 0.0
C105 C 0.66519 0.64602 0.84174 0.0
C106 C 0.73186 0.61728 0.77374 0.0
C107 C 0.60875 0.56959 0.73599 0.0
O108 O 0.67776 0.6286 0.82709 0.0
O109 O 0.65044 0.65461 0.8067 0.0
O110 O 0.68699 0.6023 0.67103 0.0
O111 O 0.67481 0.63812 0.70162 0.0
Co112 Co 0.08274 0.6776 0.24623 0.0
O113 O 0.10411 0.72431 0.24685 0.0
O114 O 0.12665 0.69597 0.27409 0.0
C115 C 0.06236 0.67095 0.15693 0.0
O116 O 0.06986 0.62988 0.24888 0.0
Co117 Co 0.00848 0.63526 0.23603 0.0
O118 O 0.01749 0.5994 0.22534 0.0
C119 C 0.03665 0.66353 0.34765 0.0
C120 C 0.12977 0.72417 0.26447 0.0
C121 C 0.04483 0.60234 0.23734 0.0
O122 O 0.06531 0.67501 0.32639 0.0
O123 O 0.01097 0.64886 0.31753 0.0
O124 O 0.09213 0.6784 0.16532 0.0
O125 O 0.04672 0.6707 0.20206 0.0
Co126 Co 0.40972 0.08198 0.74325 0.0
O127 O 0.38537 0.10429 0.73856 0.0
O128 O 0.43648 0.12682 0.76504 0.0
C129 C 0.39408 0.05668 0.65886 0.0
O130 O 0.4438 0.06826 0.75068 0.0
Co131 Co 0.37677 0.00664 0.74175 0.0
O132 O 0.42157 0.01482 0.73581 0.0
C133 C 0.3737 0.04031 0.84464 0.0
C134 C 0.41173 0.13022 0.75379 0.0
C135 C 0.44606 0.04266 0.74466 0.0
O136 O 0.39457 0.06811 0.82405 0.0
O137 O 0.36139 0.01409 0.81586 0.0
O138 O 0.4171 0.08669 0.66102 0.0
O139 O 0.3798 0.04426 0.70613 0.0
Co140 Co 0.32929 0.4098 0.23379 0.0
O141 O 0.28269 0.3842 0.23035 0.0
O142 O 0.30999 0.43451 0.26147 0.0
C143 C 0.33818 0.39801 0.14444 0.0
O144 O 0.37688 0.4447 0.24103 0.0
Co145 Co 0.37177 0.37807 0.22499 0.0
O146 O 0.40831 0.42308 0.22302 0.0
C147 C 0.34041 0.37549 0.33447 0.0
C148 C 0.28217 0.4095 0.24897 0.0
C149 C 0.40482 0.44723 0.23429 0.0
O150 O 0.32974 0.3933 0.31331 0.0
O151 O 0.35567 0.36494 0.30481 0.0
O152 O 0.33061 0.42018 0.15344 0.0
O153 O 0.33734 0.38166 0.18881 0.0
Co154 Co 0.93491 0.32416 0.74208 0.0
O155 O 0.91907 0.27825 0.74293 0.0
O156 O 0.89221 0.30135 0.77608 0.0
C157 C 0.95113 0.33167 0.65027 0.0
O158 O 0.94237 0.37017 0.74638 0.0
Co159 Co 0.00754 0.37327 0.71895 0.0
O160 O 0.99363 0.40588 0.72112 0.0
C161 C 0.98746 0.34309 0.83234 0.0
C162 C 0.89262 0.27493 0.76472 0.0
C163 C 0.96534 0.39919 0.73632 0.0
O164 O 0.95732 0.32981 0.81823 0.0
O165 O 0.01059 0.35869 0.79714 0.0
O166 O 0.92107 0.32111 0.66313 0.0
O167 O 0.96969 0.33471 0.69241 0.0
H168 H 0.04884 0.37079 0.07791 0.0
H169 H 0.94874 0.30867 0.12408 0.0
H170 H 0.93363 0.29942 0.02438 0.0
H171 H 0.94791 0.31239 0.92356 0.0
H172 H 0.04819 0.37414 0.87785 0.0
H173 H 0.06374 0.3797 0.97707 0.0
C174 C 0.02378 0.35488 0.06629 0.0
C175 C 1.00007 0.34087 0.10892 0.0
C176 C 0.01503 0.34968 0.00851 0.0
C177 C 0.96767 0.32015 0.09257 0.0
C178 C 0.95887 0.31482 0.03532 0.0
C179 C 0.97319 0.32678 0.93517 0.0
C180 C 0.99663 0.343 0.89281 0.0
C181 C 0.98221 0.33004 0.99284 0.0
C182 C 0.02937 0.36137 0.90909 0.0
C183 C 0.03843 0.3647 0.96612 0.0
H184 H 0.66776 0.02411 0.40325 0.0
H185 H 0.61562 0.92039 0.42307 0.0
H186 H 0.62268 0.92674 0.52591 0.0
H187 H 0.64037 0.96155 0.61057 0.0
H188 H 0.69122 0.06527 0.59076 0.0
H189 H 0.68808 0.05892 0.48764 0.0
C190 C 0.65814 1.00277 0.4298 0.0
C191 C 0.64096 0.97173 0.40488 0.0
C192 C 0.66193 0.00659 0.48916 0.0
C193 C 0.62883 0.94456 0.44058 0.0
C194 C 0.63281 0.94818 0.49959 0.0
C195 C 0.65113 0.98288 0.58391 0.0
C196 C 0.66592 0.01393 0.609 0.0
C197 C 0.64884 0.97907 0.52442 0.0
C198 C 0.67963 0.0411 0.57315 0.0
C199 C 0.67777 0.03747 0.51398 0.0
H200 H 0.63951 0.6818 0.08772 0.0
H201 H 0.6907 0.63214 0.13417 0.0
H202 H 0.69997 0.62594 0.0347 0.0
H203 H 0.69038 0.63096 0.93371 0.0
H204 H 0.63974 0.68117 0.88718 0.0
H205 H 0.63391 0.69084 0.98663 0.0
C206 C 0.65298 0.66992 0.0762 0.0
C207 C 0.664 0.65724 0.11888 0.0
C208 C 0.6583 0.66627 0.01844 0.0
C209 C 0.68164 0.64208 0.10267 0.0
C210 C 0.68698 0.6384 0.04552 0.0
C211 C 0.67838 0.64432 0.94519 0.0
C212 C 0.66527 0.6549 0.90252 0.0
C213 C 0.67492 0.64985 1.00292 0.0
C214 C 0.64995 0.67239 0.91869 0.0
C215 C 0.64649 0.67797 0.97583 0.0
H216 H 0.98027 0.63962 0.40825 0.0
H217 H 0.08399 0.69059 0.42931 0.0
H218 H 0.07726 0.68878 0.53234 0.0
H219 H 0.04213 0.67009 0.61653 0.0
H220 H 0.93841 0.61806 0.59556 0.0
H221 H 0.94513 0.62318 0.49253 0.0
C222 C 1.00153 0.65064 0.43515 0.0
C223 C 0.03268 0.66515 0.41043 0.0
C224 C 0.99749 0.6492 0.49461 0.0
C225 C 0.05974 0.67924 0.4466 0.0
C226 C 0.0559 0.67814 0.50573 0.0
C227 C 0.02087 0.66005 0.58967 0.0
C228 C 0.98971 0.64354 0.61439 0.0
C229 C 0.0249 0.66277 0.53023 0.0
C230 C 0.96266 0.63082 0.57825 0.0
C231 C 0.9665 0.63369 0.51913 0.0
H232 H 0.33674 0.98471 0.90274 0.0
H233 H 0.39217 0.08838 0.9245 0.0
H234 H 0.38401 0.0816 0.02718 0.0
H235 H 0.36616 0.04634 0.10996 0.0
H236 H 0.31438 0.94259 0.08839 0.0
H237 H 0.31595 0.94953 0.98538 0.0
C238 C 0.34681 0.006 0.92961 0.0
C239 C 0.3654 0.03709 0.90578 0.0
C240 C 0.34287 1.00189 0.98843 0.0
C241 C 0.37799 0.06421 0.94159 0.0
C242 C 0.37339 0.06033 1.00029 0.0
C243 C 0.3548 0.02509 0.08303 0.0
C244 C 0.34042 0.9939 0.10706 0.0
C245 C 0.35663 0.02925 0.0241 0.0
C246 C 0.32579 0.96682 0.07115 0.0
C247 C 0.32675 0.9708 0.01228 0.0
H248 H 0.36254 0.34169 0.39503 0.0
H249 H 0.31192 0.39476 0.41528 0.0
H250 H 0.31231 0.38892 0.51826 0.0
H251 H 0.33041 0.37227 0.60276 0.0
H252 H 0.38226 0.32043 0.58237 0.0
H253 H 0.3777 0.32216 0.47935 0.0
C254 C 0.35124 0.35175 0.42172 0.0
C255 C 0.33737 0.36886 0.39687 0.0
C256 C 0.35192 0.34869 0.48112 0.0
C257 C 0.32286 0.38156 0.43273 0.0
C258 C 0.32315 0.3783 0.49182 0.0
C259 C 0.34046 0.36099 0.576 0.0
C260 C 0.35688 0.34638 0.60086 0.0
C261 C 0.33813 0.36244 0.51654 0.0
C262 C 0.3696 0.33194 0.56491 0.0
C263 C 0.36707 0.33298 0.5058 0.0
H264 H 0.02395 0.65313 0.89658 0.0
H265 H 0.9282 0.60305 0.96897 0.0
H266 H 0.95103 0.61486 0.06457 0.0
H267 H 0.99836 0.63941 0.12824 0.0
H268 H 0.09414 0.68658 0.05584 0.0
H269 H 0.0713 0.67597 0.96024 0.0
C270 C 0.00813 0.6449 0.93331 0.0
C271 C 0.97442 0.6274 0.92558 0.0
C272 C 0.02147 0.65124 0.9884 0.0
C273 C 0.95424 0.61656 0.97366 0.0
C274 C 0.96728 0.62334 0.02844 0.0
C275 C 0.01419 0.6474 0.09151 0.0
C276 C 0.04791 0.66391 0.09924 0.0
C277 C 1.00086 0.64066 0.03642 0.0
C278 C 0.0681 0.67378 0.05115 0.0
C279 C 0.05506 0.66778 0.99637 0.0
H280 H 0.34162 0.95261 0.46374 0.0
H281 H 0.37246 0.03838 0.36275 0.0
H282 H 0.39366 0.07211 0.44682 0.0
H283 H 0.40168 0.0774 0.55006 0.0
H284 H 0.36669 0.99142 0.6519 0.0
H285 H 0.3492 0.95787 0.56705 0.0
C286 C 0.3531 0.97868 0.46023 0.0
C287 C 0.35564 0.99291 0.40711 0.0
C288 C 0.36457 0.99801 0.50906 0.0
C289 C 0.37031 0.02672 0.40312 0.0
C290 C 0.38247 0.04613 0.45123 0.0
C291 C 0.39053 0.05136 0.55343 0.0
C292 C 0.38561 0.03695 0.60697 0.0
C293 C 0.37955 0.03205 0.5045 0.0
C294 C 0.37073 1.00314 0.6111 0.0
C295 C 0.36066 0.98387 0.56257 0.0
H296 H 0.35445 0.37745 0.88347 0.0
H297 H 0.40306 0.32996 0.95358 0.0
H298 H 0.39247 0.34161 0.04972 0.0
H299 H 0.36895 0.36503 0.11448 0.0
H300 H 0.32331 0.41541 0.04419 0.0
H301 H 0.33318 0.40304 0.94812 0.0
C302 C 0.36267 0.36965 0.91983 0.0
C303 C 0.37933 0.3527 0.91134 0.0
C304 C 0.35704 0.37699 0.97518 0.0
C305 C 0.39019 0.34308 0.9589 0.0
C306 C 0.3841 0.34968 0.01398 0.0
C307 C 0.36119 0.37327 0.07809 0.0
C308 C 0.34527 0.39096 0.08653 0.0
C309 C 0.36748 0.36657 0.02272 0.0
C310 C 0.33567 0.40179 0.03893 0.0
C311 C 0.34123 0.39467 0.98388 0.0
H312 H 0.01354 0.36633 0.61522 0.0
H313 H 0.91559 0.31346 0.55301 0.0
H314 H 0.93538 0.32315 0.45515 0.0
H315 H 0.98066 0.34551 0.38731 0.0
H316 H 0.07846 0.40051 0.44958 0.0
H317 H 0.05862 0.39121 0.54735 0.0
C318 C 0.99654 0.35702 0.58023 0.0
C319 C 0.96318 0.33905 0.59127 0.0
C320 C 0.00807 0.36301 0.52411 0.0
C321 C 0.9414 0.3274 0.54555 0.0
C322 C 0.9527 0.33285 0.4896 0.0
C323 C 0.99759 0.35548 0.4223 0.0
C324 C 0.03097 0.37346 0.41131 0.0
C325 C 0.98599 0.35042 0.47838 0.0
C326 C 0.05264 0.38656 0.45699 0.0
C327 C 0.04132 0.38121 0.5129 0.0
H328 H 0.63641 0.98004 0.89171 0.0
H329 H 0.68585 0.07607 0.96281 0.0
H330 H 0.67312 0.05375 0.05871 0.0
H331 H 0.64765 0.00682 0.12293 0.0
H332 H 0.59513 0.91091 0.05176 0.0
H333 H 0.60912 0.93315 0.95593 0.0
C334 C 0.64448 0.996 0.92825 0.0
C335 C 0.66222 0.02963 0.92015 0.0
C336 C 0.63638 0.98301 0.98346 0.0
C337 C 0.67213 0.05007 0.96789 0.0
C338 C 0.66488 0.03734 0.02281 0.0
C339 C 0.63929 0.99083 0.08641 0.0
C340 C 0.6205 0.95727 0.09455 0.0
C341 C 0.64697 0.00384 0.03119 0.0
C342 C 0.60958 0.93687 0.04675 0.0
C343 C 0.61765 0.94955 0.99184 0.0
H344 H 0.66273 0.63842 0.39649 0.0
H345 H 0.61109 0.68444 0.46031 0.0
H346 H 0.62089 0.67412 0.55784 0.0
H347 H 0.64495 0.65278 0.62497 0.0
H348 H 0.69427 0.60442 0.56094 0.0
H349 H 0.68446 0.61476 0.46348 0.0
C350 C 0.65361 0.64616 0.43174 0.0
C351 C 0.63639 0.66234 0.42126 0.0
C352 C 0.65891 0.63971 0.48764 0.0
C353 C 0.62442 0.67194 0.46733 0.0
C354 C 0.63006 0.66609 0.52309 0.0
C355 C 0.65349 0.64446 0.58967 0.0
C356 C 0.67047 0.62803 0.6001 0.0
C357 C 0.64739 0.65012 0.53375 0.0
C358 C 0.68113 0.61712 0.55398 0.0
C359 C 0.6756 0.62308 0.49825 0.0
H360 H 0.99505 0.54074 0.23959 0.0
H361 H 0.09924 0.59638 0.24469 0.0
H362 H 0.10149 0.54647 0.25393 0.0
H363 H 0.0733 0.48652 0.26229 0.0
H364 H 0.96884 0.43289 0.26054 0.0
H365 H 0.96747 0.48249 0.24827 0.0
C366 C 0.01837 0.54214 0.24234 0.0
C367 C 0.04692 0.57239 0.24117 0.0
C368 C 0.01946 0.51356 0.24854 0.0
C369 C 0.07682 0.57347 0.24545 0.0
C370 C 0.07813 0.54491 0.25076 0.0
C371 C 0.05029 0.48576 0.25912 0.0
C372 C 0.02125 0.45587 0.26265 0.0
C373 C 0.04953 0.51473 0.25265 0.0
C374 C 0.99163 0.45541 0.25862 0.0
C375 C 0.99074 0.48382 0.25136 0.0
H376 H 0.45783 0.99372 0.76393 0.0
H377 H 0.50645 0.09692 0.73912 0.0
H378 H 0.55893 0.09988 0.74873 0.0
H379 H 0.59096 0.07271 0.76345 0.0
H380 H 0.54067 0.96945 0.79064 0.0
H381 H 0.48907 0.96719 0.78097 0.0
C382 C 0.47985 0.01693 0.76034 0.0
C383 C 0.47812 0.04501 0.75038 0.0
C384 C 0.50976 0.01849 0.76654 0.0
C385 C 0.50702 0.07488 0.74673 0.0
C386 C 0.53705 0.07659 0.75219 0.0
C387 C 0.56872 0.04974 0.7674 0.0
C388 C 0.56995 0.02132 0.77766 0.0
C389 C 0.53873 0.04849 0.76205 0.0
C390 C 0.54074 0.9918 0.78286 0.0
C391 C 0.51106 0.99039 0.7772 0.0
H392 H 0.52227 0.59084 0.25541 0.0
H393 H 0.56895 0.53811 0.31093 0.0
H394 H 0.51892 0.48748 0.29915 0.0
H395 H 0.46257 0.45749 0.27071 0.0
H396 H 0.41353 0.50817 0.21873 0.0
H397 H 0.46367 0.56007 0.23155 0.0
C398 C 0.52144 0.56829 0.26519 0.0
C399 C 0.54968 0.56858 0.28362 0.0
C400 C 0.49218 0.53876 0.25866 0.0
C401 C 0.5479 0.53897 0.29646 0.0
C402 C 0.51921 0.5098 0.28965 0.0
C403 C 0.4628 0.47987 0.26192 0.0
C404 C 0.43449 0.47895 0.24303 0.0
C405 C 0.49137 0.50937 0.27021 0.0
C406 C 0.43507 0.50822 0.23312 0.0
C407 C 0.46374 0.53788 0.2404 0.0
H408 H 0.93277 0.51211 0.7455 0.0
H409 H 0.02243 0.55654 0.83965 0.0
H410 H 0.02512 0.50733 0.83214 0.0
H411 H 1.00454 0.45316 0.79371 0.0
H412 H 0.91442 0.40657 0.70242 0.0
H413 H 0.90935 0.45503 0.7138 0.0
C414 C 0.9527 0.5109 0.76485 0.0
C415 C 0.97763 0.53836 0.79229 0.0
C416 C 0.95421 0.48224 0.76042 0.0
C417 C 1.00315 0.53615 0.81742 0.0
C418 C 1.00477 0.50794 0.81324 0.0
C419 C 0.9837 0.4536 0.77656 0.0
C420 C 0.96008 0.42667 0.74676 0.0
C421 C 0.98087 0.48117 0.78387 0.0
C422 C 0.93288 0.42715 0.72556 0.0
C423 C 0.93009 0.45486 0.73193 0.0
H424 H 0.41814 0.93354 0.25745 0.0
H425 H 0.47089 0.03622 0.29179 0.0
H426 H 0.52159 0.03689 0.28289 0.0
H427 H 0.55169 0.00957 0.26339 0.0
H428 H 0.50137 0.90694 0.23198 0.0
H429 H 0.4493 0.90511 0.24184 0.0
C430 C 0.44071 0.956 0.26324 0.0
C431 C 0.44032 0.98478 0.2749 0.0
C432 C 0.4704 0.95637 0.25834 0.0
C433 C 0.47002 0.01361 0.28255 0.0
C434 C 0.49928 0.01414 0.2774 0.0
C435 C 0.52938 0.98673 0.25841 0.0
C436 C 0.5305 0.95852 0.24627 0.0
C437 C 0.49978 0.98582 0.26481 0.0
C438 C 0.50125 0.92908 0.24116 0.0
C439 C 0.47146 0.92804 0.24674 0.0
H440 H 0.54639 0.5529 0.71869 0.0
H441 H 0.60575 0.51201 0.76472 0.0
H442 H 0.55706 0.45883 0.7762 0.0
H443 H 0.49676 0.42419 0.77576 0.0
H444 H 0.43967 0.46824 0.73302 0.0
H445 H 0.48832 0.51969 0.71768 0.0
C446 C 0.54897 0.53246 0.73095 0.0
C447 C 0.57988 0.53665 0.74072 0.0
C448 C 0.52107 0.50233 0.73837 0.0
C449 C 0.58233 0.50962 0.75686 0.0
C450 C 0.55445 0.47917 0.76351 0.0
C451 C 0.49511 0.44507 0.76294 0.0
C452 C 0.46447 0.44226 0.75611 0.0
C453 C 0.52356 0.47524 0.7548 0.0
C454 C 0.46278 0.46963 0.7395 0.0
C455 C 0.49065 0.49917 0.73041 0.0
H456 H 0.16583 0.43763 0.24997 0.0
H457 H 0.11237 0.33543 0.21484 0.0
H458 H 0.16241 0.3333 0.21599 0.0
H459 H 0.22114 0.36005 0.22977 0.0
H460 H 0.27467 0.46169 0.2701 0.0
H461 H 0.22495 0.4644 0.26509 0.0
C462 C 0.1653 0.41506 0.24163 0.0
C463 C 0.13552 0.3868 0.23152 0.0
C464 C 0.19412 0.41379 0.24434 0.0
C465 C 0.13503 0.35753 0.22224 0.0
C466 C 0.16361 0.35627 0.22323 0.0
C467 C 0.22195 0.38278 0.23776 0.0
C468 C 0.25165 0.4106 0.25045 0.0
C469 C 0.19325 0.38415 0.23493 0.0
C470 C 0.25216 0.43984 0.26063 0.0
C471 C 0.22373 0.44146 0.25741 0.0
H472 H 0.8298 0.25944 0.75458 0.0
H473 H 0.89026 0.21766 0.783 0.0
H474 H 0.84272 0.16343 0.78145 0.0
H475 H 0.78407 0.12778 0.76997 0.0
H476 H 0.72383 0.16932 0.73612 0.0
H477 H 0.7711 0.22357 0.74084 0.0
C478 C 0.83245 0.23845 0.76127 0.0
C479 C 0.86344 0.24255 0.76973 0.0
C480 C 0.80509 0.20725 0.75835 0.0
C481 C 0.86663 0.21512 0.7769 0.0
C482 C 0.83948 0.18411 0.7757 0.0
C483 C 0.78128 0.14868 0.76324 0.0
C484 C 0.75038 0.1444 0.75257 0.0
C485 C 0.80862 0.17985 0.76587 0.0
C486 C 0.7473 0.17182 0.74401 0.0
C487 C 0.77432 0.20291 0.74709 0.0
H488 H 0.5709 0.7309 0.25896 0.0
H489 H 0.67282 0.77908 0.22099 0.0
H490 H 0.67525 0.83137 0.22179 0.0
H491 H 0.64889 0.86364 0.23634 0.0
H492 H 0.54755 0.81607 0.27926 0.0
H493 H 0.5445 0.76351 0.27442 0.0
C494 C 0.59348 0.75283 0.24991 0.0
C495 C 0.62157 0.75111 0.23916 0.0
C496 C 0.59493 0.783 0.2524 0.0
C497 C 0.65084 0.77977 0.22893 0.0
C498 C 0.65228 0.80969 0.22972 0.0
C499 C 0.62615 0.8418 0.24495 0.0
C500 C 0.59852 0.84388 0.25835 0.0
C501 C 0.62459 0.81165 0.24216 0.0
C502 C 0.56926 0.81526 0.26924 0.0
C503 C 0.56745 0.78513 0.26612 0.0
H504 H 0.87785 0.65176 0.77797 0.0
H505 H 0.83362 0.54997 0.74069 0.0
H506 H 0.78002 0.54452 0.74617 0.0
H507 H 0.74547 0.56871 0.7615 0.0
H508 H 0.78999 0.67095 0.79383 0.0
H509 H 0.84353 0.67607 0.79141 0.0
C510 C 0.85651 0.6284 0.77065 0.0
C511 C 0.85986 0.60133 0.75879 0.0
C512 C 0.82571 0.62543 0.77384 0.0
C513 C 0.83186 0.57127 0.74953 0.0
C514 C 0.80113 0.56808 0.75303 0.0
C515 C 0.76689 0.59198 0.76891 0.0
C516 C 0.76376 0.61934 0.77868 0.0
C517 C 0.79772 0.59494 0.76554 0.0
C518 C 0.79177 0.6495 0.78674 0.0
C519 C 0.8224 0.65247 0.78503 0.0
H520 H 0.27515 0.83925 0.27092 0.0
H521 H 0.22773 0.89422 0.23881 0.0
H522 H 0.17515 0.84473 0.23935 0.0
H523 H 0.14236 0.78586 0.2498 0.0
H524 H 0.18904 0.73058 0.28567 0.0
H525 H 0.24189 0.77996 0.2836 0.0
C526 C 0.2533 0.84029 0.2635 0.0
C527 C 0.25541 0.87039 0.25435 0.0
C528 C 0.22291 0.81167 0.26527 0.0
C529 C 0.22682 0.87139 0.2458 0.0
C530 C 0.1967 0.84309 0.24626 0.0
C531 C 0.16406 0.7846 0.25755 0.0
C532 C 0.16162 0.75447 0.26799 0.0
C533 C 0.1944 0.81311 0.25633 0.0
C534 C 0.19009 0.7534 0.27785 0.0
C535 C 0.2204 0.78166 0.27636 0.0
H536 H 0.44489 0.27636 0.75395 0.0
H537 H 0.34191 0.23008 0.72786 0.0
H538 H 0.33787 0.17712 0.72822 0.0
H539 H 0.36321 0.14366 0.73856 0.0
H540 H 0.46577 0.18935 0.76936 0.0
H541 H 0.4703 0.24255 0.76522 0.0
C542 C 0.42168 0.25468 0.74757 0.0
C543 C 0.39378 0.25718 0.74035 0.0
C544 C 0.41937 0.2241 0.74948 0.0
C545 C 0.36376 0.22883 0.73328 0.0
C546 C 0.3614 0.1985 0.7337 0.0
C547 C 0.38655 0.16524 0.74455 0.0
C548 C 0.41407 0.16242 0.75439 0.0
C549 C 0.38897 0.19579 0.74239 0.0
C550 C 0.44412 0.19072 0.76205 0.0
C551 C 0.44678 0.22122 0.75941 0.0
loop_
_geom_bond_atom_site_label_1
_geom_bond_atom_site_label_2
_geom_bond_distance
_geom_bond_site_symmetry_2
_ccdc_geom_bond_type
Co0 O1 2.216 . S
Co0 O2 2.091 . S
Co0 O4 2.004 . S
Co0 O10 2.021 . S
Co0 O12 2.137 . S
Co0 O13 2.244 . S
O1 Co0 2.216 . S
O1 C8 1.247 . S
O2 Co0 2.091 . S
O2 C8 1.261 . S
C3 O12 1.247 . S
C3 O13 1.272 . S
O4 Co0 2.004 . S
O4 C9 1.259 . S
Co5 O6 2.061 1_655 S
Co5 O11 2.052 . S
Co5 O13 2.135 1_655 S
O6 Co5 2.061 1_455 S
O6 C9 1.235 . S
C7 O10 1.238 . S
C7 O11 1.241 1_455 S
C8 O1 1.247 . S
C8 O2 1.261 . S
C9 O4 1.259 . S
C9 O6 1.235 . S
O10 Co0 2.021 . S
O10 C7 1.238 . S
O11 Co5 2.052 . S
O11 C7 1.241 1_655 S
O12 Co0 2.137 . S
O12 C3 1.247 . S
O13 Co0 2.244 . S
O13 C3 1.272 . S
O13 Co5 2.135 1_455 S
Co14 O15 2.216 . S
Co14 O16 2.091 . S
Co14 O18 2.004 . S
Co14 O24 2.021 . S
Co14 O26 2.137 . S
Co14 O27 2.244 . S
O15 Co14 2.216 . S
O15 C22 1.247 . S
O16 Co14 2.091 . S
O16 C22 1.261 . S
C17 O26 1.247 . S
C17 O27 1.272 . S
O18 Co14 2.004 . S
O18 C23 1.259 . S
Co19 O20 2.061 1_565 S
Co19 O25 2.052 . S
Co19 O27 2.135 1_565 S
O20 Co19 2.061 1_545 S
O20 C23 1.235 . S
C21 O24 1.238 . S
C21 O25 1.241 1_545 S
C22 O15 1.247 . S
C22 O16 1.261 . S
C23 O18 1.259 . S
C23 O20 1.235 . S
O24 Co14 2.021 . S
O24 C21 1.238 . S
O25 Co19 2.052 . S
O25 C21 1.241 1_565 S
O26 Co14 2.137 . S
O26 C17 1.247 . S
O27 Co14 2.244 . S
O27 C17 1.272 . S
O27 Co19 2.135 1_545 S
Co28 O29 2.216 . S
Co28 O30 2.091 . S
Co28 O32 2.004 . S
Co28 O38 2.021 . S
Co28 O40 2.137 . S
Co28 O41 2.244 . S
O29 Co28 2.216 . S
O29 C36 1.247 . S
O30 Co28 2.091 . S
O30 C36 1.261 . S
C31 O40 1.247 . S
C31 O41 1.272 . S
O32 Co28 2.004 . S
O32 C37 1.259 . S
Co33 O34 2.061 . S
Co33 O39 2.052 . S
Co33 O41 2.135 . S
O34 Co33 2.061 . S
O34 C37 1.235 . S
C35 O38 1.238 . S
C35 O39 1.241 . S
C36 O29 1.247 . S
C36 O30 1.261 . S
C37 O32 1.259 . S
C37 O34 1.235 . S
O38 Co28 2.021 . S
O38 C35 1.238 . S
O39 Co33 2.052 . S
O39 C35 1.241 . S
O40 Co28 2.137 . S
O40 C31 1.247 . S
O41 Co28 2.244 . S
O41 C31 1.272 . S
O41 Co33 2.135 . S
Co42 O43 2.216 . S
Co42 O44 2.091 . S
Co42 O46 2.004 . S
Co42 O52 2.021 . S
Co42 O54 2.137 . S
Co42 O55 2.244 . S
O43 Co42 2.216 . S
O43 C50 1.247 . S
O44 Co42 2.091 . S
O44 C50 1.261 . S
C45 O54 1.247 . S
C45 O55 1.272 . S
O46 Co42 2.004 . S
O46 C51 1.259 . S
Co47 O48 2.061 1_455 S
Co47 O53 2.052 . S
Co47 O55 2.135 1_455 S
O48 Co47 2.061 1_655 S
O48 C51 1.235 . S
C49 O52 1.238 . S
C49 O53 1.241 1_655 S
C50 O43 1.247 . S
C50 O44 1.261 . S
C51 O46 1.259 . S
C51 O48 1.235 . S
O52 Co42 2.021 . S
O52 C49 1.238 . S
O53 Co47 2.052 . S
O53 C49 1.241 1_455 S
O54 Co42 2.137 . S
O54 C45 1.247 . S
O55 Co42 2.244 . S
O55 C45 1.272 . S
O55 Co47 2.135 1_655 S
Co56 O57 2.216 . S
Co56 O58 2.091 . S
Co56 O60 2.004 . S
Co56 O66 2.021 . S
Co56 O68 2.137 . S
Co56 O69 2.244 . S
O57 Co56 2.216 . S
O57 C64 1.247 . S
O58 Co56 2.091 . S
O58 C64 1.261 . S
C59 O68 1.247 . S
C59 O69 1.272 . S
O60 Co56 2.004 . S
O60 C65 1.259 . S
Co61 O62 2.061 1_545 S
Co61 O67 2.052 . S
Co61 O69 2.135 1_545 S
O62 Co61 2.061 1_565 S
O62 C65 1.235 . S
C63 O66 1.238 . S
C63 O67 1.241 1_565 S
C64 O57 1.247 . S
C64 O58 1.261 . S
C65 O60 1.259 . S
C65 O62 1.235 . S
O66 Co56 2.021 . S
O66 C63 1.238 . S
O67 Co61 2.052 . S
O67 C63 1.241 1_545 S
O68 Co56 2.137 . S
O68 C59 1.247 . S
O69 Co56 2.244 . S
O69 C59 1.272 . S
O69 Co61 2.135 1_565 S
Co70 O71 2.216 . S
Co70 O72 2.091 . S
Co70 O74 2.004 . S
Co70 O80 2.021 . S
Co70 O82 2.137 . S
Co70 O83 2.244 . S
O71 Co70 2.216 . S
O71 C78 1.247 . S
O72 Co70 2.091 . S
O72 C78 1.261 . S
C73 O82 1.247 . S
C73 O83 1.272 . S
O74 Co70 2.004 . S
O74 C79 1.259 . S
Co75 O76 2.061 . S
Co75 O81 2.052 . S
Co75 O83 2.135 . S
O76 Co75 2.061 . S
O76 C79 1.235 . S
C77 O80 1.238 . S
C77 O81 1.241 . S
C78 O71 1.247 . S
C78 O72 1.261 . S
C79 O74 1.259 . S
C79 O76 1.235 . S
O80 Co70 2.021 . S
O80 C77 1.238 . S
O81 Co75 2.052 . S
O81 C77 1.241 . S
O82 Co70 2.137 . S
O82 C73 1.247 . S
O83 Co70 2.244 . S
O83 C73 1.272 . S
O83 Co75 2.135 . S
Co84 O85 2.216 . S
Co84 O86 2.091 . S
Co84 O88 2.004 . S
Co84 O94 2.021 . S
Co84 O96 2.137 . S
Co84 O97 2.244 . S
O85 Co84 2.216 . S
O85 C92 1.247 . S
O86 Co84 2.091 . S
O86 C92 1.261 . S
C87 O96 1.247 . S
C87 O97 1.272 . S
O88 Co84 2.004 . S
O88 C93 1.259 . S
Co89 O90 2.061 1_545 S
Co89 O95 2.052 . S
Co89 O97 2.135 1_545 S
O90 Co89 2.061 1_565 S
O90 C93 1.235 . S
C91 O94 1.238 . S
C91 O95 1.241 1_565 S
C92 O85 1.247 . S
C92 O86 1.261 . S
C93 O88 1.259 . S
C93 O90 1.235 . S
O94 Co84 2.021 . S
O94 C91 1.238 . S
O95 Co89 2.052 . S
O95 C91 1.241 1_545 S
O96 Co84 2.137 . S
O96 C87 1.247 . S
O97 Co84 2.244 . S
O97 C87 1.272 . S
O97 Co89 2.135 1_565 S
Co98 O99 2.216 . S
Co98 O100 2.091 . S
Co98 O102 2.004 . S
Co98 O108 2.021 . S
Co98 O110 2.137 . S
Co98 O111 2.244 . S
O99 Co98 2.216 . S
O99 C106 1.247 . S
O100 Co98 2.091 . S
O100 C106 1.261 . S
C101 O110 1.247 . S
C101 O111 1.272 . S
O102 Co98 2.004 . S
O102 C107 1.259 . S
Co103 O104 2.061 . S
Co103 O109 2.052 . S
Co103 O111 2.135 . S
O104 Co103 2.061 . S
O104 C107 1.235 . S
C105 O108 1.238 . S
C105 O109 1.241 . S
C106 O99 1.247 . S
C106 O100 1.261 . S
C107 O102 1.259 . S
C107 O104 1.235 . S
O108 Co98 2.021 . S
O108 C105 1.238 . S
O109 Co103 2.052 . S
O109 C105 1.241 . S
O110 Co98 2.137 . S
O110 C101 1.247 . S
O111 Co98 2.244 . S
O111 C101 1.272 . S
O111 Co103 2.135 . S
Co112 O113 2.216 . S
Co112 O114 2.091 . S
Co112 O116 2.004 . S
Co112 O122 2.021 . S
Co112 O124 2.137 . S
Co112 O125 2.244 . S
O113 Co112 2.216 . S
O113 C120 1.247 . S
O114 Co112 2.091 . S
O114 C120 1.261 . S
C115 O124 1.247 . S
C115 O125 1.272 . S
O116 Co112 2.004 . S
O116 C121 1.259 . S
Co117 O118 2.061 1_655 S
Co117 O123 2.052 . S
Co117 O125 2.135 1_655 S
O118 Co117 2.061 1_455 S
O118 C121 1.235 . S
C119 O122 1.238 . S
C119 O123 1.241 1_455 S
C120 O113 1.247 . S
C120 O114 1.261 . S
C121 O116 1.259 . S
C121 O118 1.235 . S
O122 Co112 2.021 . S
O122 C119 1.238 . S
O123 Co117 2.052 . S
O123 C119 1.241 1_655 S
O124 Co112 2.137 . S
O124 C115 1.247 . S
O125 Co112 2.244 . S
O125 C115 1.272 . S
O125 Co117 2.135 1_455 S
Co126 O127 2.216 . S
Co126 O128 2.091 . S
Co126 O130 2.004 . S
Co126 O136 2.021 . S
Co126 O138 2.137 . S
Co126 O139 2.244 . S
O127 Co126 2.216 . S
O127 C134 1.247 . S
O128 Co126 2.091 . S
O128 C134 1.261 . S
C129 O138 1.247 . S
C129 O139 1.272 . S
O130 Co126 2.004 . S
O130 C135 1.259 . S
Co131 O132 2.061 1_565 S
Co131 O137 2.052 . S
Co131 O139 2.135 1_565 S
O132 Co131 2.061 1_545 S
O132 C135 1.235 . S
C133 O136 1.238 . S
C133 O137 1.241 1_545 S
C134 O127 1.247 . S
C134 O128 1.261 . S
C135 O130 1.259 . S
C135 O132 1.235 . S
O136 Co126 2.021 . S
O136 C133 1.238 . S
O137 Co131 2.052 . S
O137 C133 1.241 1_565 S
O138 Co126 2.137 . S
O138 C129 1.247 . S
O139 Co126 2.244 . S
O139 C129 1.272 . S
O139 Co131 2.135 1_545 S
Co140 O141 2.216 . S
Co140 O142 2.091 . S
Co140 O144 2.004 . S
Co140 O150 2.021 . S
Co140 O152 2.137 . S
Co140 O153 2.244 . S
O141 Co140 2.216 . S
O141 C148 1.247 . S
O142 Co140 2.091 . S
O142 C148 1.261 . S
C143 O152 1.247 . S
C143 O153 1.272 . S
O144 Co140 2.004 . S
O144 C149 1.259 . S
Co145 O146 2.061 . S
Co145 O151 2.052 . S
Co145 O153 2.135 . S
O146 Co145 2.061 . S
O146 C149 1.235 . S
C147 O150 1.238 . S
C147 O151 1.241 . S
C148 O141 1.247 . S
C148 O142 1.261 . S
C149 O144 1.259 . S
C149 O146 1.235 . S
O150 Co140 2.021 . S
O150 C147 1.238 . S
O151 Co145 2.052 . S
O151 C147 1.241 . S
O152 Co140 2.137 . S
O152 C143 1.247 . S
O153 Co140 2.244 . S
O153 C143 1.272 . S
O153 Co145 2.135 . S
Co154 O155 2.216 . S
Co154 O156 2.091 . S
Co154 O158 2.004 . S
Co154 O164 2.021 . S
Co154 O166 2.137 . S
Co154 O167 2.244 . S
O155 Co154 2.216 . S
O155 C162 1.247 . S
O156 Co154 2.091 . S
O156 C162 1.261 . S
C157 O166 1.247 . S
C157 O167 1.272 . S
O158 Co154 2.004 . S
O158 C163 1.259 . S
Co159 O160 2.061 1_455 S
Co159 O165 2.052 . S
Co159 O167 2.135 1_455 S
O160 Co159 2.061 1_655 S
O160 C163 1.235 . S
C161 O164 1.238 . S
C161 O165 1.241 1_655 S
C162 O155 1.247 . S
C162 O156 1.261 . S
C163 O158 1.259 . S
C163 O160 1.235 . S
O164 Co154 2.021 . S
O164 C161 1.238 . S
O165 Co159 2.052 . S
O165 C161 1.241 1_455 S
O166 Co154 2.137 . S
O166 C157 1.247 . S
O167 Co154 2.244 . S
O167 C157 1.272 . S
O167 Co159 2.135 1_655 S
H168 C174 0.930 . S
H169 C177 0.930 . S
H170 C178 0.930 . S
H171 C179 0.930 . S
H172 C182 0.930 . S
H173 C183 0.930 . S
C174 H168 0.930 . S
C174 C175 1.355 . S
C174 C176 1.415 . S
C175 C174 1.355 . S
C175 C177 1.419 1_455 S
C176 C174 1.415 . S
C176 C181 1.425 1_454 S
C176 C183 1.409 1_554 S
C177 H169 0.930 . S
C177 C175 1.419 1_655 S
C177 C178 1.362 . S
C178 H170 0.930 . S
C178 C177 1.362 . S
C178 C181 1.409 1_554 S
C179 H171 0.930 . S
C179 C180 1.355 . S
C179 C181 1.415 . S
C180 C179 1.355 . S
C180 C182 1.419 1_655 S
C181 C176 1.425 1_656 S
C181 C178 1.409 1_556 S
C181 C179 1.415 . S
C182 H172 0.930 . S
C182 C180 1.419 1_455 S
C182 C183 1.362 . S
C183 H173 0.930 . S
C183 C176 1.409 1_556 S
C183 C182 1.362 . S
H184 C190 0.930 . S
H185 C193 0.930 . S
H186 C194 0.930 . S
H187 C195 0.930 . S
H188 C198 0.930 . S
H189 C199 0.930 . S
C190 H184 0.930 . S
C190 C191 1.355 1_545 S
C190 C192 1.415 . S
C191 C190 1.355 1_565 S
C191 C193 1.419 . S
C192 C190 1.415 . S
C192 C197 1.425 1_545 S
C192 C199 1.409 . S
C193 H185 0.930 . S
C193 C191 1.419 . S
C193 C194 1.362 . S
C194 H186 0.930 . S
C194 C193 1.362 . S
C194 C197 1.409 . S
C195 H187 0.930 . S
C195 C196 1.355 1_565 S
C195 C197 1.415 . S
C196 C195 1.355 1_545 S
C196 C198 1.419 . S
C197 C192 1.425 1_565 S
C197 C194 1.409 . S
C197 C195 1.415 . S
C198 H188 0.930 . S
C198 C196 1.419 . S
C198 C199 1.362 . S
C199 H189 0.930 . S
C199 C192 1.409 . S
C199 C198 1.362 . S
H200 C206 0.930 . S
H201 C209 0.930 . S
H202 C210 0.930 . S
H203 C211 0.930 . S
H204 C214 0.930 . S
H205 C215 0.930 . S
C206 H200 0.930 . S
C206 C207 1.355 . S
C206 C208 1.415 . S
C207 C206 1.355 . S
C207 C209 1.419 . S
C208 C206 1.415 . S
C208 C213 1.425 1_554 S
C208 C215 1.409 1_554 S
C209 H201 0.930 . S
C209 C207 1.419 . S
C209 C210 1.362 . S
C210 H202 0.930 . S
C210 C209 1.362 . S
C210 C213 1.409 1_554 S
C211 H203 0.930 . S
C211 C212 1.355 . S
C211 C213 1.415 . S
C212 C211 1.355 . S
C212 C214 1.419 . S
C213 C208 1.425 1_556 S
C213 C210 1.409 1_556 S
C213 C211 1.415 . S
C214 H204 0.930 . S
C214 C212 1.419 . S
C214 C215 1.362 . S
C215 H205 0.930 . S
C215 C208 1.409 1_556 S
C215 C214 1.362 . S
H216 C222 0.930 . S
H217 C225 0.930 . S
H218 C226 0.916 . S
H219 C227 0.930 . S
H220 C230 0.930 . S
H221 C231 0.916 . S
C222 H216 0.930 . S
C222 C223 1.355 . S
C222 C224 1.415 . S
C223 C222 1.355 . S
C223 C225 1.419 . S
C224 C222 1.415 . S
C224 C229 1.425 1_455 S
C224 C231 1.409 1_455 S
C225 H217 0.930 . S
C225 C223 1.419 . S
C225 C226 1.362 . S
C226 H218 0.916 . S
C226 C225 1.362 . S
C226 C229 1.409 1_455 S
C227 H219 0.930 . S
C227 C228 1.355 . S
C227 C229 1.415 . S
C228 C227 1.355 . S
C228 C230 1.419 . S
C229 C224 1.425 1_655 S
C229 C226 1.409 1_655 S
C229 C227 1.415 . S
C230 H220 0.930 . S
C230 C228 1.419 . S
C230 C231 1.362 . S
C231 H221 0.916 . S
C231 C224 1.409 1_655 S
C231 C230 1.362 . S
H232 C238 0.930 . S
H233 C241 0.930 . S
H234 C242 0.930 . S
H235 C243 0.930 . S
H236 C246 0.930 . S
H237 C247 0.930 . S
C238 H232 0.930 . S
C238 C239 1.355 . S
C238 C240 1.415 . S
C239 C238 1.355 . S
C239 C241 1.419 . S
C240 C238 1.415 . S
C240 C245 1.425 1_546 S
C240 C247 1.409 1_556 S
C241 H233 0.930 . S
C241 C239 1.419 . S
C241 C242 1.362 1_545 S
C242 H234 0.930 . S
C242 C241 1.362 1_565 S
C242 C245 1.409 1_556 S
C243 H235 0.930 . S
C243 C244 1.355 . S
C243 C245 1.415 . S
C244 C243 1.355 . S
C244 C246 1.419 . S
C245 C240 1.425 1_564 S
C245 C242 1.409 1_554 S
C245 C243 1.415 . S
C246 H236 0.930 . S
C246 C244 1.419 . S
C246 C247 1.362 1_565 S
C247 H237 0.930 . S
C247 C240 1.409 1_554 S
C247 C246 1.362 1_545 S
H248 C254 0.930 . S
H249 C257 0.930 . S
H250 C258 0.930 . S
H251 C259 0.930 . S
H252 C262 0.930 . S
H253 C263 0.930 . S
C254 H248 0.930 . S
C254 C255 1.355 . S
C254 C256 1.415 . S
C255 C254 1.355 . S
C255 C257 1.419 . S
C256 C254 1.415 . S
C256 C261 1.425 . S
C256 C263 1.409 . S
C257 H249 0.930 . S
C257 C255 1.419 . S
C257 C258 1.362 . S
C258 H250 0.930 . S
C258 C257 1.362 . S
C258 C261 1.409 . S
C259 H251 0.930 . S
C259 C260 1.355 . S
C259 C261 1.415 . S
C260 C259 1.355 . S
C260 C262 1.419 . S
C261 C256 1.425 . S
C261 C258 1.409 . S
C261 C259 1.415 . S
C262 H252 0.930 . S
C262 C260 1.419 . S
C262 C263 1.362 . S
C263 H253 0.930 . S
C263 C256 1.409 . S
C263 C262 1.362 . S
H264 C270 0.923 . S
H265 C273 0.930 . S
H266 C274 0.930 . S
H267 C275 0.923 . S
H268 C278 0.930 . S
H269 C279 0.930 . S
C270 H264 0.923 . S
C270 C271 1.355 . S
C270 C272 1.415 1_655 S
C271 C270 1.355 . S
C271 C273 1.419 . S
C272 C270 1.415 1_455 S
C272 C277 1.425 1_456 S
C272 C279 1.409 1_556 S
C273 H265 0.930 . S
C273 C271 1.419 . S
C273 C274 1.362 . S
C274 H266 0.930 . S
C274 C273 1.362 . S
C274 C277 1.409 1_556 S
C275 H267 0.923 . S
C275 C276 1.355 . S
C275 C277 1.415 1_455 S
C276 C275 1.355 . S
C276 C278 1.419 . S
C277 C272 1.425 1_654 S
C277 C274 1.409 1_554 S
C277 C275 1.415 1_655 S
C278 H268 0.930 . S
C278 C276 1.419 . S
C278 C279 1.362 . S
C279 H269 0.930 . S
C279 C272 1.409 1_554 S
C279 C278 1.362 . S
H280 C286 0.930 . S
H281 C289 0.930 . S
H282 C290 0.930 . S
H283 C291 0.930 . S
H284 C294 0.930 . S
H285 C295 0.930 . S
C286 H280 0.930 . S
C286 C287 1.355 . S
C286 C288 1.415 . S
C287 C286 1.355 . S
C287 C289 1.419 1_565 S
C288 C286 1.415 . S
C288 C293 1.425 1_565 S
C288 C295 1.409 . S
C289 H281 0.930 . S
C289 C287 1.419 1_545 S
C289 C290 1.362 . S
C290 H282 0.930 . S
C290 C289 1.362 . S
C290 C293 1.409 . S
C291 H283 0.930 . S
C291 C292 1.355 . S
C291 C293 1.415 . S
C292 C291 1.355 . S
C292 C294 1.419 1_545 S
C293 C288 1.425 1_545 S
C293 C290 1.409 . S
C293 C291 1.415 . S
C294 H284 0.930 . S
C294 C292 1.419 1_565 S
C294 C295 1.362 . S
C295 H285 0.930 . S
C295 C288 1.409 . S
C295 C294 1.362 . S
H296 C302 0.930 . S
H297 C305 0.930 . S
H298 C306 0.930 1_554 S
H299 C307 0.930 . S
H300 C310 0.930 . S
H301 C311 0.930 1_556 S
C302 H296 0.930 . S
C302 C303 1.355 . S
C302 C304 1.415 . S
C303 C302 1.355 . S
C303 C305 1.419 . S
C304 C302 1.415 . S
C304 C309 1.425 1_556 S
C304 C311 1.409 1_556 S
C305 H297 0.930 . S
C305 C303 1.419 . S
C305 C306 1.362 . S
C306 H298 0.930 1_556 S
C306 C305 1.362 . S
C306 C309 1.409 1_556 S
C307 H299 0.930 . S
C307 C308 1.355 . S
C307 C309 1.415 . S
C308 C307 1.355 . S
C308 C310 1.419 . S
C309 C304 1.425 1_554 S
C309 C306 1.409 1_554 S
C309 C307 1.415 . S
C310 H300 0.930 . S
C310 C308 1.419 . S
C310 C311 1.362 . S
C311 H301 0.930 1_554 S
C311 C304 1.409 1_554 S
C311 C310 1.362 . S
H312 C318 0.930 . S
H313 C321 0.930 . S
H314 C322 0.930 . S
H315 C323 0.930 . S
H316 C326 0.930 . S
H317 C327 0.930 . S
C318 H312 0.930 . S
C318 C319 1.355 1_455 S
C318 C320 1.415 . S
C319 C318 1.355 1_655 S
C319 C321 1.419 . S
C320 C318 1.415 . S
C320 C325 1.425 1_455 S
C320 C327 1.409 . S
C321 H313 0.930 . S
C321 C319 1.419 . S
C321 C322 1.362 . S
C322 H314 0.930 . S
C322 C321 1.362 . S
C322 C325 1.409 . S
C323 H315 0.930 . S
C323 C324 1.355 1_655 S
C323 C325 1.415 . S
C324 C323 1.355 1_455 S
C324 C326 1.419 . S
C325 C320 1.425 1_655 S
C325 C322 1.409 . S
C325 C323 1.415 . S
C326 H316 0.930 . S
C326 C324 1.419 . S
C326 C327 1.362 . S
C327 H317 0.930 . S
C327 C320 1.409 . S
C327 C326 1.362 . S
H328 C334 0.930 . S
H329 C337 0.930 . S
H330 C338 0.939 . S
H331 C339 0.930 . S
H332 C342 0.930 . S
H333 C343 0.939 . S
C334 H328 0.930 . S
C334 C335 1.355 1_565 S
C334 C336 1.415 . S
C335 C334 1.355 1_545 S
C335 C337 1.419 . S
C336 C334 1.415 . S
C336 C341 1.425 1_566 S
C336 C343 1.409 1_556 S
C337 H329 0.930 . S
C337 C335 1.419 . S
C337 C338 1.362 . S
C338 H330 0.939 . S
C338 C337 1.362 . S
C338 C341 1.409 1_556 S
C339 H331 0.930 . S
C339 C340 1.355 1_545 S
C339 C341 1.415 . S
C340 C339 1.355 1_565 S
C340 C342 1.419 . S
C341 C336 1.425 1_544 S
C341 C338 1.409 1_554 S
C341 C339 1.415 . S
C342 H332 0.930 . S
C342 C340 1.419 . S
C342 C343 1.362 . S
C343 H333 0.939 . S
C343 C336 1.409 1_554 S
C343 C342 1.362 . S
H344 C350 0.930 . S
H345 C353 0.930 . S
H346 C354 0.930 . S
H347 C355 0.930 . S
H348 C358 0.930 . S
H349 C359 0.930 . S
C350 H344 0.930 . S
C350 C351 1.355 . S
C350 C352 1.415 . S
C351 C350 1.355 . S
C351 C353 1.419 . S
C352 C350 1.415 . S
C352 C357 1.425 . S
C352 C359 1.409 . S
C353 H345 0.930 . S
C353 C351 1.419 . S
C353 C354 1.362 . S
C354 H346 0.930 . S
C354 C353 1.362 . S
C354 C357 1.409 . S
C355 H347 0.930 . S
C355 C356 1.355 . S
C355 C357 1.415 . S
C356 C355 1.355 . S
C356 C358 1.419 . S
C357 C352 1.425 . S
C357 C354 1.409 . S
C357 C355 1.415 . S
C358 H348 0.930 . S
C358 C356 1.419 . S
C358 C359 1.362 . S
C359 H349 0.930 . S
C359 C352 1.409 . S
C359 C358 1.362 . S
H360 C366 0.898 1_655 S
H361 C369 0.930 . S
H362 C370 0.930 . S
H363 C371 0.930 . S
H364 C374 0.930 1_655 S
H365 C375 0.930 1_655 S
C366 H360 0.898 1_455 S
C366 C367 1.355 . S
C366 C368 1.415 . S
C367 C366 1.355 . S
C367 C369 1.419 . S
C368 C366 1.415 . S
C368 C373 1.425 . S
C368 C375 1.409 . S
C369 H361 0.930 . S
C369 C367 1.419 . S
C369 C370 1.362 . S
C370 H362 0.930 . S
C370 C369 1.362 . S
C370 C373 1.409 . S
C371 H363 0.930 . S
C371 C372 1.355 . S
C371 C373 1.415 . S
C372 C371 1.355 . S
C372 C374 1.419 . S
C373 C368 1.425 . S
C373 C370 1.409 . S
C373 C371 1.415 . S
C374 H364 0.930 1_455 S
C374 C372 1.419 . S
C374 C375 1.362 . S
C375 H365 0.930 1_455 S
C375 C368 1.409 . S
C375 C374 1.362 . S
H376 C382 0.912 1_565 S
H377 C385 0.930 . S
H378 C386 0.930 . S
H379 C387 0.930 . S
H380 C390 0.930 1_565 S
H381 C391 0.925 1_565 S
C382 H376 0.912 1_545 S
C382 C383 1.355 . S
C382 C384 1.415 . S
C383 C382 1.355 . S
C383 C385 1.419 . S
C384 C382 1.415 . S
C384 C389 1.425 . S
C384 C391 1.417 . S
C385 H377 0.930 . S
C385 C383 1.419 . S
C385 C386 1.362 . S
C386 H378 0.930 . S
C386 C385 1.362 . S
C386 C389 1.409 . S
C387 H379 0.930 . S
C387 C388 1.355 . S
C387 C389 1.415 . S
C388 C387 1.355 . S
C388 C390 1.419 . S
C389 C384 1.425 . S
C389 C386 1.409 . S
C389 C387 1.415 . S
C390 H380 0.930 1_545 S
C390 C388 1.419 . S
C390 C391 1.359 . S
C391 H381 0.925 1_545 S
C391 C384 1.417 . S
C391 C390 1.359 . S
H392 C398 0.930 . S
H393 C401 0.930 . S
H394 C402 0.930 . S
H395 C403 0.930 . S
H396 C406 0.930 . S
H397 C407 0.930 . S
C398 H392 0.930 . S
C398 C399 1.355 . S
C398 C400 1.415 . S
C399 C398 1.355 . S
C399 C401 1.419 . S
C400 C398 1.415 . S
C400 C405 1.425 . S
C400 C407 1.409 . S
C401 H393 0.930 . S
C401 C399 1.419 . S
C401 C402 1.362 . S
C402 H394 0.930 . S
C402 C401 1.362 . S
C402 C405 1.409 . S
C403 H395 0.930 . S
C403 C404 1.355 . S
C403 C405 1.415 . S
C404 C403 1.355 . S
C404 C406 1.419 . S
C405 C400 1.425 . S
C405 C402 1.409 . S
C405 C403 1.415 . S
C406 H396 0.930 . S
C406 C404 1.419 . S
C406 C407 1.362 . S
C407 H397 0.930 . S
C407 C400 1.409 . S
C407 C406 1.362 . S
H408 C414 0.930 . S
H409 C417 0.930 . S
H410 C418 0.930 . S
H411 C419 0.930 . S
H412 C422 0.930 . S
H413 C423 0.930 . S
C414 H408 0.930 . S
C414 C415 1.355 . S
C414 C416 1.415 . S
C415 C414 1.355 . S
C415 C417 1.419 . S
C416 C414 1.415 . S
C416 C421 1.425 . S
C416 C423 1.409 . S
C417 H409 0.930 . S
C417 C415 1.419 . S
C417 C418 1.362 . S
C418 H410 0.930 . S
C418 C417 1.362 . S
C418 C421 1.409 . S
C419 H411 0.930 . S
C419 C420 1.355 . S
C419 C421 1.415 . S
C420 C419 1.355 . S
C420 C422 1.419 . S
C421 C416 1.425 . S
C421 C418 1.409 . S
C421 C419 1.415 . S
C422 H412 0.930 . S
C422 C420 1.419 . S
C422 C423 1.362 . S
C423 H413 0.930 . S
C423 C416 1.409 . S
C423 C422 1.362 . S
H424 C430 0.930 . S
H425 C433 0.930 1_545 S
H426 C434 0.918 1_545 S
H427 C435 0.930 1_545 S
H428 C438 0.930 . S
H429 C439 0.930 . S
C430 H424 0.930 . S
C430 C431 1.355 . S
C430 C432 1.415 . S
C431 C430 1.355 . S
C431 C433 1.419 . S
C432 C430 1.415 . S
C432 C437 1.425 . S
C432 C439 1.409 . S
C433 H425 0.930 1_565 S
C433 C431 1.419 . S
C433 C434 1.356 . S
C434 H426 0.918 1_565 S
C434 C433 1.356 . S
C434 C437 1.428 . S
C435 H427 0.930 1_565 S
C435 C436 1.355 . S
C435 C437 1.415 . S
C436 C435 1.355 . S
C436 C438 1.419 . S
C437 C432 1.425 . S
C437 C434 1.428 . S
C437 C435 1.415 . S
C438 H428 0.930 . S
C438 C436 1.419 . S
C438 C439 1.362 . S
C439 H429 0.930 . S
C439 C432 1.409 . S
C439 C438 1.362 . S
H440 C446 0.930 . S
H441 C449 0.930 . S
H442 C450 0.930 . S
H443 C451 0.930 . S
H444 C454 0.930 . S
H445 C455 0.930 . S
C446 H440 0.930 . S
C446 C447 1.355 . S
C446 C448 1.415 . S
C447 C446 1.355 . S
C447 C449 1.419 . S
C448 C446 1.415 . S
C448 C453 1.425 . S
C448 C455 1.409 . S
C449 H441 0.930 . S
C449 C447 1.419 . S
C449 C450 1.362 . S
C450 H442 0.930 . S
C450 C449 1.362 . S
C450 C453 1.409 . S
C451 H443 0.930 . S
C451 C452 1.355 . S
C451 C453 1.415 . S
C452 C451 1.355 . S
C452 C454 1.419 . S
C453 C448 1.425 . S
C453 C450 1.409 . S
C453 C451 1.415 . S
C454 H444 0.930 . S
C454 C452 1.419 . S
C454 C455 1.362 . S
C455 H445 0.930 . S
C455 C448 1.409 . S
C455 C454 1.362 . S
H456 C462 0.930 . S
H457 C465 0.930 . S
H458 C466 0.930 . S
H459 C467 0.930 . S
H460 C470 0.930 . S
H461 C471 0.930 . S
C462 H456 0.930 . S
C462 C463 1.355 . S
C462 C464 1.415 . S
C463 C462 1.355 . S
C463 C465 1.419 . S
C464 C462 1.415 . S
C464 C469 1.425 . S
C464 C471 1.409 . S
C465 H457 0.930 . S
C465 C463 1.419 . S
C465 C466 1.362 . S
C466 H458 0.930 . S
C466 C465 1.362 . S
C466 C469 1.409 . S
C467 H459 0.930 . S
C467 C468 1.355 . S
C467 C469 1.415 . S
C468 C467 1.355 . S
C468 C470 1.419 . S
C469 C464 1.425 . S
C469 C466 1.409 . S
C469 C467 1.415 . S
C470 H460 0.930 . S
C470 C468 1.419 . S
C470 C471 1.362 . S
C471 H461 0.930 . S
C471 C464 1.409 . S
C471 C470 1.362 . S
H472 C478 0.930 . S
H473 C481 0.930 . S
H474 C482 0.930 . S
H475 C483 0.930 . S
H476 C486 0.930 . S
H477 C487 0.930 . S
C478 H472 0.930 . S
C478 C479 1.355 . S
C478 C480 1.415 . S
C479 C478 1.355 . S
C479 C481 1.419 . S
C480 C478 1.415 . S
C480 C485 1.425 . S
C480 C487 1.409 . S
C481 H473 0.930 . S
C481 C479 1.419 . S
C481 C482 1.362 . S
C482 H474 0.930 . S
C482 C481 1.362 . S
C482 C485 1.409 . S
C483 H475 0.930 . S
C483 C484 1.355 . S
C483 C485 1.415 . S
C484 C483 1.355 . S
C484 C486 1.419 . S
C485 C480 1.425 . S
C485 C482 1.409 . S
C485 C483 1.415 . S
C486 H476 0.930 . S
C486 C484 1.419 . S
C486 C487 1.362 . S
C487 H477 0.930 . S
C487 C480 1.409 . S
C487 C486 1.362 . S
H488 C494 0.930 . S
H489 C497 0.930 . S
H490 C498 0.930 . S
H491 C499 0.930 . S
H492 C502 0.930 . S
H493 C503 0.930 . S
C494 H488 0.930 . S
C494 C495 1.355 . S
C494 C496 1.415 . S
C495 C494 1.355 . S
C495 C497 1.419 . S
C496 C494 1.415 . S
C496 C501 1.425 . S
C496 C503 1.409 . S
C497 H489 0.930 . S
C497 C495 1.419 . S
C497 C498 1.362 . S
C498 H490 0.930 . S
C498 C497 1.362 . S
C498 C501 1.409 . S
C499 H491 0.930 . S
C499 C500 1.355 . S
C499 C501 1.415 . S
C500 C499 1.355 . S
C500 C502 1.419 . S
C501 C496 1.425 . S
C501 C498 1.409 . S
C501 C499 1.415 . S
C502 H492 0.930 . S
C502 C500 1.419 . S
C502 C503 1.362 . S
C503 H493 0.930 . S
C503 C496 1.409 . S
C503 C502 1.362 . S
H504 C510 0.930 . S
H505 C513 0.930 . S
H506 C514 0.930 . S
H507 C515 0.930 . S
H508 C518 0.930 . S
H509 C519 0.930 . S
C510 H504 0.930 . S
C510 C511 1.355 . S
C510 C512 1.415 . S
C511 C510 1.355 . S
C511 C513 1.419 . S
C512 C510 1.415 . S
C512 C517 1.425 . S
C512 C519 1.409 . S
C513 H505 0.930 . S
C513 C511 1.419 . S
C513 C514 1.362 . S
C514 H506 0.930 . S
C514 C513 1.362 . S
C514 C517 1.409 . S
C515 H507 0.930 . S
C515 C516 1.355 . S
C515 C517 1.415 . S
C516 C515 1.355 . S
C516 C518 1.419 . S
C517 C512 1.425 . S
C517 C514 1.409 . S
C517 C515 1.415 . S
C518 H508 0.930 . S
C518 C516 1.419 . S
C518 C519 1.362 . S
C519 H509 0.930 . S
C519 C512 1.409 . S
C519 C518 1.362 . S
H520 C526 0.930 . S
H521 C529 0.930 . S
H522 C530 0.930 . S
H523 C531 0.930 . S
H524 C534 0.930 . S
H525 C535 0.930 . S
C526 H520 0.930 . S
C526 C527 1.355 . S
C526 C528 1.415 . S
C527 C526 1.355 . S
C527 C529 1.419 . S
C528 C526 1.415 . S
C528 C533 1.425 . S
C528 C535 1.409 . S
C529 H521 0.930 . S
C529 C527 1.419 . S
C529 C530 1.362 . S
C530 H522 0.930 . S
C530 C529 1.362 . S
C530 C533 1.409 . S
C531 H523 0.930 . S
C531 C532 1.355 . S
C531 C533 1.415 . S
C532 C531 1.355 . S
C532 C534 1.419 . S
C533 C528 1.425 . S
C533 C530 1.409 . S
C533 C531 1.415 . S
C534 H524 0.930 . S
C534 C532 1.419 . S
C534 C535 1.362 . S
C535 H525 0.930 . S
C535 C528 1.409 . S
C535 C534 1.362 . S
H536 C542 0.930 . S
H537 C545 0.930 . S
H538 C546 0.930 . S
H539 C547 0.930 . S
H540 C550 0.930 . S
H541 C551 0.930 . S
C542 H536 0.930 . S
C542 C543 1.355 . S
C542 C544 1.415 . S
C543 C542 1.355 . S
C543 C545 1.419 . S
C544 C542 1.415 . S
C544 C549 1.425 . S
C544 C551 1.409 . S
C545 H537 0.930 . S
C545 C543 1.419 . S
C545 C546 1.362 . S
C546 H538 0.930 . S
C546 C545 1.362 . S
C546 C549 1.409 . S
C547 H539 0.930 . S
C547 C548 1.355 . S
C547 C549 1.415 . S
C548 C547 1.355 . S
C548 C550 1.419 . S
C549 C544 1.425 . S
C549 C546 1.409 . S
C549 C547 1.415 . S
C550 H540 0.930 . S
C550 C548 1.419 . S
C550 C551 1.362 . S
C551 H541 0.930 . S
C551 C544 1.409 . S
C551 C550 1.362 . S
C175 C7 1.361 . S
C180 C161 1.323 . S
C191 C91 1.372 . S
C196 C21 1.356 . S
C207 C35 1.322 . S
C212 C105 1.372 . S
C223 C119 1.330 . S
C228 C49 1.380 . S
C239 C133 1.327 . S
C244 C63 1.379 . S
C255 C147 1.374 . S
C260 C77 1.322 . S
C271 C45 1.323 . S
C276 C115 1.351 . S
C287 C59 1.359 . S
C292 C129 1.336 . S
C303 C73 1.306 . S
C308 C143 1.319 . S
C319 C157 1.310 . S
C324 C3 1.311 . S
C335 C17 1.320 . S
C340 C87 1.306 . S
C351 C31 1.321 . S
C356 C101 1.306 . S
C367 C121 1.648 . S
C372 C9 1.625 . S
C383 C135 1.649 . S
C388 C23 1.623 . S
C399 C37 1.629 . S
C404 C149 1.640 . S
C415 C51 1.640 . S
C420 C163 1.628 . S
C431 C65 1.623 . S
C436 C93 1.647 . S
C447 C107 1.646 . S
C452 C79 1.628 . S
C463 C8 1.614 . S
C468 C148 1.594 . S
C479 C162 1.622 . S
C484 C22 1.602 . S
C495 C36 1.615 . S
C500 C92 1.613 . S
C511 C50 1.594 . S
C516 C106 1.621 . S
C527 C64 1.618 . S
C532 C120 1.593 . S
C543 C78 1.622 . S
C548 C134 1.595 . S
