# Generated by pormake.
# Topology snp, (6)-cn, num edge types: 1
# Building blocks:
#     Node 0, Type 0, BuildingBlock: PAMTOO_clean_sbu_0, # of connection points: 6
#     Node 1, Type 0, BuildingBlock: PAMTOO_clean_sbu_0, # of connection points: 6
#     Node 2, Type 0, BuildingBlock: PAMTOO_clean_sbu_0, # of connection points: 6
#     Node 3, Type 0, BuildingBlock: PAMTOO_clean_sbu_0, # of connection points: 6
#     Edge 4, Type (0, 0), BuildingBlock: ZUJKAS_clean_linker_0, # of connection points: 2
#     Edge 5, Type (0, 0), BuildingBlock: ZUJKAS_clean_linker_0, # of connection points: 2
#     Edge 6, Type (0, 0), BuildingBlock: ZUJKAS_clean_linker_0, # of connection points: 2
#     Edge 7, Type (0, 0), BuildingBlock: ZUJKAS_clean_linker_0, # of connection points: 2
#     Edge 8, Type (0, 0), BuildingBlock: ZUJKAS_clean_linker_0, # of connection points: 2
#     Edge 9, Type (0, 0), BuildingBlock: ZUJKAS_clean_linker_0, # of connection points: 2
#     Edge 10, Type (0, 0), BuildingBlock: ZUJKAS_clean_linker_0, # of connection points: 2
#     Edge 11, Type (0, 0), BuildingBlock: ZUJKAS_clean_linker_0, # of connection points: 2
#     Edge 12, Type (0, 0), BuildingBlock: ZUJKAS_clean_linker_0, # of connection points: 2
#     Edge 13, Type (0, 0), BuildingBlock: ZUJKAS_clean_linker_0, # of connection points: 2
#     Edge 14, Type (0, 0), BuildingBlock: ZUJKAS_clean_linker_0, # of connection points: 2
#     Edge 15, Type (0, 0), BuildingBlock: ZUJKAS_clean_linker_0, # of connection points: 2
# Relax obj value: 0.595
# Max RMSD: 0.190
# Mean RMSD: 0.190
data_MOF--net-snp--node1-PAMTOO_clean_sbu_0--edge1-ZUJKAS_clean_linker_0
_symmetry_space_group_name_H-M    P1
_symmetry_Int_Tables_number       1
_symmetry_cell_setting            triclinic
loop_
_symmetry_equiv_pos_as_xyz
'x, y, z'
_cell_length_a     31.817413
_cell_length_b     31.81485
_cell_length_c     36.587117
_cell_angle_alpha  94.382715
_cell_angle_beta   93.989395
_cell_angle_gamma 93.930493
loop_
_atom_site_label
_atom_site_type_symbol
_atom_site_fract_x
_atom_site_fract_y
_atom_site_fract_z
_atom_type_partial_charge
Dy0 Dy 0.21831 0.95591 0.12564 0.0
Dy1 Dy 0.22459 0.05699 0.15643 0.0
C2 C 0.30712 1.01095 0.14005 0.0
O3 O 0.22225 0.95587 0.18794 0.0
O4 O 0.21864 1.02568 0.20926 0.0
O5 O 0.24247 0.89572 0.13365 0.0
O6 O 0.19566 0.90129 1.08864 0.0
O7 O 0.15819 0.03209 0.1402 0.0
O8 O 0.15887 0.96401 0.15274 0.0
O9 O 0.22062 0.05609 1.0947 0.0
O10 O 0.19165 0.98891 1.07705 0.0
O11 O 0.2022 0.11 0.18814 0.0
O12 O 0.25011 0.1201 0.14972 0.0
C13 C 0.21883 0.98523 0.21505 0.0
O14 O 0.28327 0.98387 0.11726 0.0
O15 O 0.29026 0.03667 0.16369 0.0
C16 C 0.24737 0.85214 1.08037 0.0
C17 C 0.29919 0.80359 1.03751 0.0
C18 C 0.26312 0.78449 1.05141 0.0
C19 C 0.23747 0.80864 1.07284 0.0
C20 C 0.28351 0.87127 1.0669 0.0
C21 C 0.30929 0.84717 1.04572 0.0
C22 C 0.22166 0.87688 1.10435 0.0
C23 C 0.14122 0.99988 0.15566 0.0
C24 C 0.20053 0.02847 1.06972 0.0
C25 C 0.25165 0.16901 0.20101 0.0
C26 C 0.29653 0.23101 0.25047 0.0
C27 C 0.26658 0.2425 0.22365 0.0
C28 C 0.24434 0.21171 0.19913 0.0
C29 C 0.28209 0.15729 0.22711 0.0
C30 C 0.30438 0.1881 0.2517 0.0
C31 C 0.22814 0.13743 0.17477 0.0
H32 H 0.25457 0.75101 1.04541 0.0
H33 H 0.20994 0.79338 1.08352 0.0
H34 H 0.29168 0.90485 1.07271 0.0
H35 H 0.33632 0.86296 1.03471 0.0
H36 H 0.26009 0.27529 0.22184 0.0
H37 H 0.22125 0.22122 0.17878 0.0
H38 H 0.28825 0.12437 0.22865 0.0
H39 H 0.32676 0.17816 0.27241 0.0
Dy40 Dy 0.09604 0.23031 0.64226 0.0
Dy41 Dy 0.99693 0.23225 0.66207 0.0
C42 C 0.05512 0.31649 0.6619 0.0
O43 O 0.0957 0.21219 0.7008 0.0
O44 O 1.02547 0.20439 0.71215 0.0
O45 O 0.15839 0.25654 0.66197 0.0
O46 O 0.14987 0.21253 0.61327 0.0
O47 O 1.0006 0.17064 0.62972 0.0
O48 O 0.07225 0.16285 0.63355 0.0
O49 O 0.99495 0.23421 0.60019 0.0
O50 O 0.06339 0.22631 0.58516 0.0
O51 O 0.93978 0.21168 0.68645 0.0
O52 O 0.94058 0.26456 0.65226 0.0
C53 C 0.06566 0.20091 0.72195 0.0
O54 O 0.07719 0.29617 0.63848 0.0
O55 O 0.02936 0.29552 0.68153 0.0
C56 C 0.20478 0.26631 0.61579 0.0
C57 C 0.25845 0.3163 0.57582 0.0
C58 C 0.21778 0.32843 0.58252 0.0
C59 C 0.19108 0.3035 0.60223 0.0
C60 C 0.24585 0.2551 0.61072 0.0
C61 C 0.27251 0.27986 0.59088 0.0
C62 C 0.17624 0.23848 0.63446 0.0
C63 C 0.03325 0.14911 0.62248 0.0
C64 C 1.02289 0.22864 0.57547 0.0
C65 C 0.89345 0.26629 0.69904 0.0
C66 C 0.84231 0.31191 0.74538 0.0
C67 C 0.86645 0.2801 0.75882 0.0
C68 C 0.89184 0.25761 0.73594 0.0
C69 C 0.86927 0.29788 0.6855 0.0
C70 C 0.84405 0.32058 0.70845 0.0
C71 C 0.91891 0.24221 0.67385 0.0
H72 H 0.20614 0.35644 0.57153 0.0
H73 H 0.15942 0.31265 0.60612 0.0
H74 H 0.25686 0.2265 0.62114 0.0
H75 H 0.30329 0.26916 0.5857 0.0
H76 H 0.86509 0.27187 0.78691 0.0
H77 H 0.9098 0.2332 0.74711 0.0
H78 H 0.86976 0.30494 0.65702 0.0
H79 H 0.82605 0.34495 0.69729 0.0
Dy80 Dy 0.85169 1.00252 0.1371 0.0
Dy81 Dy 0.84194 0.10104 0.11746 0.0
C82 C 0.76166 0.03728 0.12143 0.0
O83 O 0.85841 1.00203 1.07627 0.0
O84 O 0.86979 0.07231 1.06667 0.0
O85 O 0.83358 0.93767 0.11836 0.0
O86 O 0.87727 0.95242 0.16655 0.0
O87 O 0.90306 0.10329 0.15077 0.0
O88 O 0.91621 0.03485 0.13661 0.0
O89 O 0.84215 0.10277 0.17991 0.0
O90 O 0.85519 0.03502 0.19402 0.0
O91 O 0.85942 0.15909 1.09347 0.0
O92 O 0.80393 0.15403 0.12478 0.0
C93 C 0.87014 0.03191 1.05534 0.0
O94 O 0.7843 1.01543 0.14324 0.0
O95 O 0.78013 0.06411 1.10107 0.0
C96 C 0.83042 0.89119 0.16448 0.0
C97 C 0.78207 0.82952 0.19786 0.0
C98 C 0.81128 0.81756 0.17257 0.0
C99 C 0.83525 0.8482 0.15601 0.0
C100 C 0.80076 0.90339 0.18903 0.0
C101 C 0.77686 0.8728 0.20568 0.0
C102 C 0.85454 0.92283 0.14579 0.0
C103 C 0.92704 0.07185 0.15455 0.0
C104 C 0.85036 0.07496 0.20422 0.0
C105 C 0.80083 0.19811 1.076 0.0
C106 C 0.75224 0.23931 1.02415 0.0
C107 C 0.78748 0.21798 1.01381 0.0
C108 C 0.81141 0.19747 1.03939 0.0
C109 C 0.76593 0.21968 1.08651 0.0
C110 C 0.74177 0.24001 1.06083 0.0
C111 C 0.82577 0.17692 1.10365 0.0
H112 H 0.81579 0.78452 0.16574 0.0
H113 H 0.85754 0.83834 0.13657 0.0
H114 H 0.79629 0.93653 0.19543 0.0
H115 H 0.75521 0.88315 0.2255 0.0
H116 H 0.79715 0.21771 0.986 0.0
H117 H 0.83828 0.18137 1.03046 0.0
H118 H 0.75728 0.22075 0.11468 0.0
H119 H 0.7148 0.25601 1.06963 0.0
Dy120 Dy 0.08949 0.86228 0.64391 0.0
Dy121 Dy 0.98929 0.83709 0.61571 0.0
C122 C 0.04977 0.76738 0.63814 0.0
O123 O 0.08923 0.84525 0.58288 0.0
O124 O 1.01912 0.84319 0.56158 0.0
O125 O 0.15359 0.84945 0.63532 0.0
O126 O 0.14093 0.89713 0.67784 0.0
O127 O 1.00165 0.90672 0.62349 0.0
O128 O 0.06958 0.91396 0.60999 0.0
O129 O 0.99023 0.85081 0.67748 0.0
O130 O 0.05412 0.88919 0.69071 0.0
O131 O 0.93004 0.84874 0.58764 0.0
O132 O 0.9339 0.79513 0.6207 0.0
C133 C 0.05972 0.84464 0.55559 0.0
O134 O 0.07271 0.79655 0.65962 0.0
O135 O 1.02309 0.77812 0.61223 0.0
C136 C 0.20172 0.85816 0.68656 0.0
C137 C 0.262 0.81639 0.72743 0.0
C138 C 0.27142 0.83176 0.69372 0.0
C139 C 0.24154 0.85251 0.67353 0.0
C140 C 0.19219 0.84332 0.7203 0.0
C141 C 0.22219 0.82292 0.74071 0.0
C142 C 0.16956 0.87558 0.6626 0.0
C143 C 0.03077 0.9251 0.60539 0.0
C144 C 1.01622 0.87661 0.70002 0.0
C145 C 0.88517 0.78769 0.56867 0.0
C146 C 0.83244 0.74113 0.51253 0.0
C147 C 0.87063 0.76246 0.50459 0.0
C148 C 0.89683 0.78527 0.53239 0.0
C149 C 0.84801 0.76538 0.57708 0.0
C150 C 0.82186 0.74217 0.54927 0.0
C151 C 0.91051 0.81456 0.59767 0.0
H152 H 0.30153 0.82701 0.68255 0.0
H153 H 0.24913 0.86326 0.6472 0.0
H154 H 0.16143 0.84692 0.73063 0.0
H155 H 0.21418 0.8124 0.76698 0.0
H156 H 0.87954 0.76325 0.47661 0.0
H157 H 0.92556 0.80206 0.52532 0.0
H158 H 0.83875 0.76667 0.60507 0.0
H159 H 0.79302 0.72577 0.55645 0.0
H160 H 0.96459 1.00685 0.18469 0.0
H161 H 0.99188 1.00473 0.24714 0.0
H162 H 0.97468 0.13801 0.26851 0.0
H163 H 0.94792 0.14006 0.20472 0.0
H164 H 0.03522 0.13331 0.31041 0.0
H165 H 0.95925 1.01532 0.34879 0.0
H166 H 0.9817 0.9692 0.32864 0.0
H167 H 0.94712 0.99936 0.30112 0.0
C168 C 0.9672 0.03594 0.2024 0.0
C169 C 0.95384 0.07347 0.18948 0.0
C170 C 0.98182 0.03465 0.239 0.0
C171 C 0.98377 0.07099 0.26415 0.0
C172 C 0.97264 0.10917 0.25055 0.0
H173 H 0.11261 0.07466 0.18093 0.0
H174 H 0.09086 0.09274 0.24124 0.0
C175 C 0.95805 0.11046 0.21369 0.0
C176 C 1.00385 0.07018 0.30242 0.0
H177 H 0.0524 0.98044 0.31044 0.0
C178 C 0.0388 0.09972 0.31079 0.0
C179 C 1.00958 0.02991 0.31503 0.0
C180 C 0.97252 1.00147 0.3237 0.0
C181 C 0.07926 0.08474 0.3096 0.0
C182 C 0.08128 0.04137 0.29845 0.0
C183 C 0.04932 1.01413 0.31068 0.0
C184 C 0.09558 0.02992 0.261 0.0
C185 C 0.11788 0.11518 0.31288 0.0
C186 C 0.10084 0.98769 0.24899 0.0
C187 C 0.11162 0.97699 0.21326 0.0
C188 C 0.11781 1.00837 0.18864 0.0
C189 C 0.10911 0.04983 0.19941 0.0
C190 C 0.09794 0.0604 0.23486 0.0
H191 H 0.12221 0.13036 0.34136 0.0
H192 H 0.14671 0.09899 0.30665 0.0
H193 H 0.11354 0.14081 0.29429 0.0
H194 H 0.09791 0.96292 0.26745 0.0
H195 H 0.11768 0.94447 0.20579 0.0
H196 H 0.95109 0.92451 0.57156 0.0
H197 H 0.93184 0.93715 0.50858 0.0
H198 H 0.0634 0.97269 0.4942 0.0
H199 H 0.08205 0.95783 0.55624 0.0
H200 H 0.91407 0.97541 0.45909 0.0
H201 H 0.0451 1.00095 0.39542 0.0
H202 H 0.03816 0.94974 0.41322 0.0
H203 H 0.07764 0.98977 0.4346 0.0
C204 C 0.97583 0.93514 0.55486 0.0
C205 C 1.01808 0.94074 0.56934 0.0
C206 C 0.96485 0.94209 0.51827 0.0
C207 C 0.99548 0.95702 0.49524 0.0
C208 C 0.03804 0.96185 0.51005 0.0
H209 H 0.07995 0.14528 0.5637 0.0
H210 H 0.05659 0.1138 0.50285 0.0
C211 C 0.049 0.95409 0.54638 0.0
C212 C 0.98222 0.97528 0.45947 0.0
H213 H 0.04811 0.06177 0.45866 0.0
C214 C 0.94376 0.99451 0.4606 0.0
C215 C 1.01352 1.00154 0.44515 0.0
C216 C 0.04534 0.98401 0.42085 0.0
C217 C 0.94586 0.03697 0.47499 0.0
C218 C 0.98666 0.05836 0.48233 0.0
C219 C 1.01846 0.04359 0.46049 0.0
C220 C 0.9995 0.08104 0.51918 0.0
C221 C 0.90602 0.0567 0.4846 0.0
C222 C 0.97709 0.07209 0.5501 0.0
C223 C 0.98976 0.09168 0.58488 0.0
C224 C 1.02668 0.11847 0.59021 0.0
C225 C 0.05147 0.12422 0.56046 0.0
C226 C 0.03761 0.10654 0.52525 0.0
H227 H 0.88437 0.05617 0.45943 0.0
H228 H 0.88941 0.03764 0.50414 0.0
H229 H 0.91242 0.08983 0.49662 0.0
H230 H 0.94966 0.04986 0.5479 0.0
H231 H 0.97012 0.08677 0.60744 0.0
H232 H 0.70442 0.08631 1.08883 0.0
H233 H 0.62767 0.08196 1.09198 0.0
H234 H 0.63544 0.97381 0.15568 0.0
H235 H 0.71223 0.97859 0.15348 0.0
H236 H 0.56607 1.02233 1.06867 0.0
H237 H 0.56911 0.04827 0.22023 0.0
H238 H 0.61583 0.05606 0.19561 0.0
H239 H 0.59714 1.00374 0.20549 0.0
C240 C 0.68984 0.0615 1.10346 0.0
C241 C 0.71468 0.03298 0.12112 0.0
C242 C 0.64586 0.05908 1.10527 0.0
C243 C 0.62562 0.02812 0.12476 0.0
C244 C 0.65024 0.99877 0.14138 0.0
H245 H 0.35434 0.95559 1.10256 0.0
H246 H 0.43085 0.95981 1.09881 0.0
C247 C 0.69423 1.00135 0.13983 0.0
C248 C 0.57886 1.02643 0.12744 0.0
H249 H 0.50232 1.02647 0.18868 0.0
C250 C 0.55217 1.02338 1.09494 0.0
C251 C 0.56049 0.02855 0.16168 0.0
C252 C 0.58711 0.03478 0.19773 0.0
C253 C 0.50788 1.02166 1.09568 0.0
C254 C 0.48947 1.02193 0.1299 0.0
C255 C 0.5162 1.02572 0.16241 0.0
C256 C 0.44269 1.01887 0.13265 0.0
C257 C 0.48138 1.02059 1.05973 0.0
C258 C 0.42359 0.04973 0.15407 0.0
C259 C 0.37974 0.04703 0.15677 0.0
C260 C 0.35386 1.01339 0.13803 0.0
C261 C 0.37311 0.98221 0.11702 0.0
C262 C 0.41698 0.98475 0.11462 0.0
H263 H 0.49978 0.03352 1.03786 0.0
H264 H 0.47053 0.98734 1.05051 0.0
H265 H 0.45317 0.03891 1.0627 0.0
H266 H 0.44261 0.07626 0.16847 0.0
H267 H 0.36611 0.07161 0.17323 0.0
H268 H 0.1157 0.36929 0.63632 0.0
H269 H 0.11865 0.44618 0.63676 0.0
H270 H 1.00304 0.44739 0.69168 0.0
H271 H 1.00064 0.37032 0.69236 0.0
H272 H 0.06652 0.49364 0.60369 0.0
H273 H 0.07245 0.5402 0.75292 0.0
H274 H 0.08002 0.48704 0.73503 0.0
H275 H 0.02756 0.50447 0.73756 0.0
C276 C 0.09113 0.38588 0.64893 0.0
C277 C 0.058 0.36353 0.66444 0.0
C278 C 0.09284 0.42998 0.64913 0.0
C279 C 0.06141 0.45296 0.66468 0.0
C280 C 0.02835 0.43073 0.68039 0.0
H281 H 0.9988 0.70073 0.60512 0.0
H282 H 1.00325 0.62572 0.61251 0.0
C283 C 1.02686 0.38654 0.68057 0.0
C284 C 0.06211 0.49972 0.66232 0.0
H285 H 0.0577 0.59421 0.71285 0.0
C286 C 0.06488 0.51556 0.62767 0.0
C287 C 0.06064 0.52868 0.69356 0.0
C288 C 0.06045 0.51431 0.7319 0.0
C289 C 0.06533 0.5591 0.62327 0.0
C290 C 0.06173 0.58788 0.65422 0.0
C291 C 0.05998 0.57224 0.68903 0.0
C292 C 0.05874 0.63407 0.65076 0.0
C293 C 0.07032 0.57381 0.58544 0.0
C294 C 0.08753 0.66427 0.67084 0.0
C295 C 0.08478 0.70764 0.66701 0.0
C296 C 0.05312 0.72163 0.64301 0.0
C297 C 1.02398 0.69126 0.62348 0.0
C298 C 1.02658 0.64814 0.62753 0.0
H299 H 0.086 0.5505 0.56786 0.0
H300 H 0.03864 0.57743 0.57186 0.0
H301 H 0.08907 0.60472 0.58688 0.0
H302 H 0.11246 0.65427 0.68917 0.0
H303 H 0.10763 0.7301 0.68258 0.0
H304 H 0.22937 0.34363 0.5108 0.0
H305 H 0.27055 0.35978 0.45972 0.0
H306 H 0.38589 0.35223 0.5274 0.0
H307 H 0.34445 0.33566 0.57925 0.0
H308 H 0.33877 0.41355 0.43967 0.0
H309 H 0.38321 0.24841 0.45456 0.0
H310 H 0.34393 0.27043 0.48192 0.0
H311 H 0.39864 0.28866 0.49108 0.0
C312 C 0.26346 0.34703 0.51549 0.0
C313 C 0.28363 0.3374 0.54888 0.0
C314 C 0.28708 0.35634 0.48612 0.0
C315 C 0.33125 0.3562 0.48952 0.0
C316 C 0.35177 0.3516 0.52404 0.0
H317 H 0.37917 0.23997 0.27895 0.0
H318 H 0.40789 0.28457 0.33382 0.0
C319 C 0.32806 0.342 0.55354 0.0
C320 C 0.35337 0.35195 0.45533 0.0
H321 H 0.37961 0.27175 0.39623 0.0
C322 C 0.34931 0.3831 0.43037 0.0
C323 C 0.36806 0.31255 0.44336 0.0
C324 C 0.37377 0.27793 0.46894 0.0
C325 C 0.35408 0.37385 0.39284 0.0
C326 C 0.36224 0.33231 0.38014 0.0
C327 C 0.37261 0.30342 0.40585 0.0
C328 C 0.34995 0.31483 0.34185 0.0
C329 C 0.34725 0.40774 0.36688 0.0
C330 C 0.30823 0.31777 0.32751 0.0
C331 C 0.29182 0.29234 0.29642 0.0
C332 C 0.3166 0.263 0.27916 0.0
C333 C 0.35919 0.26193 0.29202 0.0
C334 C 0.37575 0.28769 0.32311 0.0
H335 H 0.3611 0.43889 0.37962 0.0
H336 H 0.36146 0.40072 0.34042 0.0
H337 H 0.31284 0.41044 0.36132 0.0
H338 H 0.28709 0.33718 0.34203 0.0
H339 H 0.25875 0.29354 0.28758 0.0
H340 H 0.76195 0.33521 0.72858 0.0
H341 H 0.71261 0.36149 0.77172 0.0
H342 H 0.80974 0.36228 0.86046 0.0
H343 H 0.85937 0.33971 0.81746 0.0
H344 H 0.68046 0.32098 0.81768 0.0
H345 H 0.75274 0.45542 0.90335 0.0
H346 H 0.77197 0.44226 0.85888 0.0
H347 H 0.79599 0.42279 0.90009 0.0
C348 C 0.77318 0.34279 0.7571 0.0
C349 C 0.81439 0.33457 0.76976 0.0
C350 C 0.74484 0.35772 0.78179 0.0
C351 C 0.75716 0.36445 0.81956 0.0
C352 C 0.79926 0.35891 0.83155 0.0
H353 H 0.73002 0.21278 0.95252 0.0
H354 H 0.70586 0.25513 0.90455 0.0
C355 C 0.8276 0.34476 0.80693 0.0
C356 C 0.72538 0.36778 0.84741 0.0
H357 H 0.73272 0.38977 0.93988 0.0
C358 C 0.69072 0.3375 0.84414 0.0
C359 C 0.73535 0.39132 0.88165 0.0
C360 C 0.76575 0.43014 0.88581 0.0
C361 C 0.67314 0.32361 0.87558 0.0
C362 C 0.69249 0.33867 0.91054 0.0
C363 C 0.71963 0.37575 0.91323 0.0
C364 C 0.69597 0.31029 0.94096 0.0
C365 C 0.63706 0.28994 0.87098 0.0
C366 C 0.69874 0.32645 0.97798 0.0
C367 C 0.71471 0.30248 1.00563 0.0
C368 C 0.72784 0.26184 0.99669 0.0
C369 C 0.7212 0.24436 0.96021 0.0
C370 C 0.70612 0.26842 0.93268 0.0
H371 H 0.61219 0.29903 0.85087 0.0
H372 H 0.64827 0.25976 0.85946 0.0
H373 H 0.6229 0.28493 0.89735 0.0
H374 H 0.69127 0.35858 0.98527 0.0
H375 H 0.71936 0.31688 1.03353 0.0
H376 H 0.85041 0.69797 0.44846 0.0
H377 H 0.8048 0.6877 0.39195 0.0
H378 H 0.69928 0.72655 0.45081 0.0
H379 H 0.74567 0.74063 0.507 0.0
H380 H 0.73087 0.65053 0.35916 0.0
H381 H 0.71656 0.82371 0.3893 0.0
H382 H 0.7507 0.79524 0.4181 0.0
H383 H 0.69428 0.78849 0.41998 0.0
C384 C 0.81742 0.70403 0.44956 0.0
C385 C 0.80226 0.72204 0.48191 0.0
C386 C 0.79112 0.69745 0.41727 0.0
C387 C 0.74898 0.70799 0.41687 0.0
C388 C 0.73209 0.71966 0.45027 0.0
H389 H 0.69987 0.82568 0.21672 0.0
H390 H 0.67015 0.78313 0.26302 0.0
C391 C 0.75869 0.72728 0.48253 0.0
C392 C 0.72688 0.71488 0.38104 0.0
H393 H 0.70765 0.79678 0.32899 0.0
C394 C 0.72443 0.68226 0.35264 0.0
C395 C 0.71766 0.75618 0.37249 0.0
C396 C 0.72001 0.79304 0.4014 0.0
C397 C 0.71818 0.6909 0.31567 0.0
C398 C 0.71456 0.73312 0.30712 0.0
C399 C 0.71091 0.76445 0.3356 0.0
C400 C 0.72532 0.74781 0.27122 0.0
C401 C 0.71853 0.65526 0.28612 0.0
C402 C 0.76551 0.74094 0.25937 0.0
C403 C 0.78268 0.76544 0.23331 0.0
C404 C 0.7601 0.79753 0.21872 0.0
C405 C 0.71834 0.80174 0.22805 0.0
C406 C 0.70111 0.77709 0.25414 0.0
H407 H 0.70278 0.62581 0.29484 0.0
H408 H 0.7025 0.66294 0.25978 0.0
H409 H 0.75171 0.64894 0.28155 0.0
H410 H 0.7854 0.71951 0.27277 0.0
H411 H 0.81503 0.76158 0.22705 0.0
H412 H 0.34794 0.83485 0.73705 0.0
H413 H 0.39718 0.80707 0.78163 0.0
H414 H 0.29611 0.72314 0.81348 0.0
H415 H 0.24796 0.74831 0.76733 0.0
H416 H 0.38849 0.82445 0.84775 0.0
H417 H 0.38921 0.6532 0.83787 0.0
H418 H 0.37293 0.68079 0.79846 0.0
H419 H 0.33491 0.66316 0.82965 0.0
C420 C 0.33666 0.80913 0.75241 0.0
C421 C 0.29368 0.79458 0.74933 0.0
C422 C 0.36495 0.79321 0.77791 0.0
C423 C 0.35068 0.76283 0.80105 0.0
C424 C 0.30857 0.74576 0.7956 0.0
H425 H 0.2674 0.75028 0.97926 0.0
H426 H 0.30436 0.72813 0.92611 0.0
C427 C 0.28055 0.76111 0.76977 0.0
C428 C 0.37489 0.75724 0.83633 0.0
H429 H 0.37393 0.68646 0.90157 0.0
C430 C 0.38738 0.79402 0.85925 0.0
C431 C 0.3751 0.71763 0.85141 0.0
C432 C 0.36775 0.67657 0.8277 0.0
C433 C 0.39149 0.79306 0.8975 0.0
C434 C 0.38339 0.75406 0.91294 0.0
C435 C 0.37891 0.7165 0.88976 0.0
C436 C 0.36615 0.75368 0.94946 0.0
C437 C 0.39825 0.83461 0.92082 0.0
C438 C 0.38903 0.77263 0.98134 0.0
C439 C 0.36764 0.78609 1.01176 0.0
C440 C 0.32334 0.77978 1.0108 0.0
C441 C 0.30149 0.75568 0.98081 0.0
C442 C 0.32272 0.74281 0.95037 0.0
H443 H 0.40311 0.862 0.90409 0.0
H444 H 0.37051 0.83962 0.93701 0.0
H445 H 0.42652 0.8342 0.94027 0.0
H446 H 0.42273 0.78034 0.98154 0.0
H447 H 0.38531 0.80382 1.03499 0.0
H448 H 0.87379 0.07592 0.99241 0.0
H449 H 0.89646 0.05097 0.93203 0.0
H450 H 0.92678 0.9333 0.97482 0.0
H451 H 0.90203 0.95695 1.03389 0.0
H452 H 0.96368 0.03081 0.90398 0.0
H453 H 0.8616 0.88288 0.8863 0.0
H454 H 0.85673 0.92236 0.92341 0.0
H455 H 0.89538 0.88366 0.92756 0.0
C456 C 0.88491 0.04456 0.98882 0.0
C457 C 0.88519 1.01834 1.01822 0.0
C458 C 0.89805 0.03019 0.9541 0.0
C459 C 0.91236 0.98932 0.94772 0.0
C460 C 0.91424 0.96404 0.9777 0.0
H461 H 0.9353 0.87389 0.72285 0.0
H462 H 0.91089 0.90268 0.78087 0.0
C463 C 0.90032 0.97793 1.01196 0.0
C464 C 0.92613 0.97338 0.91039 0.0
H465 H 0.91882 0.88689 0.84733 0.0
C466 C 0.95366 0.99934 0.89169 0.0
C467 C 0.91249 0.93269 0.89296 0.0
C468 C 0.87956 0.90406 0.90841 0.0
C469 C 0.96857 0.9857 0.85739 0.0
C470 C 0.95708 0.94402 0.84121 0.0
C471 C 0.92871 0.91848 0.85946 0.0
C472 C 0.97278 0.92662 0.80508 0.0
C473 C 0.99539 1.01696 0.83835 0.0
C474 C 1.01605 0.92942 0.79847 0.0
C475 C 0.03012 0.91338 0.76471 0.0
C476 C 1.00159 0.89296 0.73659 0.0
C477 C 0.95849 0.88918 0.74358 0.0
C478 C 0.94438 0.90578 0.77707 0.0
H479 H 0.98951 0.05004 0.84739 0.0
H480 H 0.02923 1.01276 0.84543 0.0
H481 H 0.98918 1.01235 0.80803 0.0
H482 H 0.0393 0.9437 0.81957 0.0
H483 H 0.06358 0.91668 0.7608 0.0
H484 H 0.19984 0.03373 0.27716 0.0
H485 H 0.17109 1.00947 0.33286 0.0
H486 H 0.18633 0.88043 0.29408 0.0
H487 H 0.21296 0.90433 0.23767 0.0
H488 H 0.19229 0.97303 0.3887 0.0
H489 H 0.06849 0.86195 0.31574 0.0
H490 H 0.11943 0.84637 0.30474 0.0
H491 H 0.102 0.89608 0.29136 0.0
C492 C 0.19757 1.00015 0.28054 0.0
C493 C 0.20852 0.97116 0.25221 0.0
C494 C 0.18081 0.98614 0.31265 0.0
C495 C 0.17462 0.94265 0.31776 0.0
C496 C 0.18845 0.91395 0.29063 0.0
H497 H 1.01209 0.8566 0.4909 0.0
H498 H 0.03781 0.88015 0.43355 0.0
C499 C 0.20458 0.92786 0.25834 0.0
C500 C 0.15443 0.92753 0.35141 0.0
H501 H 0.08204 0.85406 0.38009 0.0
C502 C 0.16801 0.94714 0.38649 0.0
C503 C 0.12162 0.89441 0.34946 0.0
C504 C 0.10173 0.87389 0.31326 0.0
C505 C 0.15124 0.93399 0.41899 0.0
C506 C 0.12075 0.89888 0.41719 0.0
C507 C 0.10597 0.88026 0.38211 0.0
C508 C 0.10433 0.88104 0.45125 0.0
C509 C 0.16581 0.95896 0.4549 0.0
C510 C 0.13249 0.87088 0.48008 0.0
C511 C 0.11779 0.85709 0.51283 0.0
C512 C 0.07421 0.85231 0.51802 0.0
C513 C 0.04582 0.85982 0.48827 0.0
C514 C 0.06066 0.87377 0.45535 0.0
H515 H 0.17595 0.9922 0.45052 0.0
H516 H 0.14054 0.95923 0.47434 0.0
H517 H 0.19344 0.94464 0.46774 0.0
H518 H 0.16623 0.87413 0.47755 0.0
H519 H 0.141 0.85129 0.5346 0.0
H520 H 1.01892 0.18967 0.7824 0.0
H521 H 0.041 0.16073 0.84049 0.0
H522 H 0.16226 0.13889 0.79996 0.0
H523 H 0.1412 0.16951 0.74303 0.0
H524 H 0.06136 0.08954 0.86162 0.0
H525 H 0.20512 0.19589 0.89519 0.0
H526 H 0.16757 0.20378 0.85767 0.0
H527 H 0.20771 0.16697 0.85158 0.0
C528 C 0.05047 0.17911 0.78597 0.0
C529 C 0.07835 0.1828 0.75783 0.0
C530 C 0.06316 0.16233 0.81938 0.0
C531 C 0.10404 0.14835 0.82576 0.0
C532 C 0.13126 0.15079 0.79707 0.0
H533 H 0.20013 0.11038 1.05103 0.0
H534 H 0.17551 0.13712 0.99337 0.0
C535 C 0.11891 0.16817 0.76404 0.0
C536 C 0.11793 0.13061 0.86179 0.0
H537 H 0.19927 0.13498 0.92915 0.0
C538 C 0.09149 0.09968 0.87635 0.0
C539 C 0.15689 0.14406 0.88216 0.0
C540 C 0.18568 0.17982 0.87107 0.0
C541 C 0.1029 0.08165 0.90961 0.0
C542 C 0.14283 0.09352 0.92892 0.0
C543 C 0.16897 0.12489 0.9146 0.0
C544 C 0.15745 0.07578 0.96476 0.0
C545 C 0.07105 0.05115 0.92423 0.0
C546 C 0.15628 0.03189 0.96894 0.0
C547 C 0.17005 1.01626 1.00263 0.0
C548 C 0.18631 0.04395 1.03306 0.0
C549 C 0.18814 0.08771 1.02851 0.0
C550 C 0.17394 0.10324 0.99518 0.0
H551 H 0.03837 0.05679 0.91416 0.0
H552 H 0.07702 1.01838 0.91442 0.0
H553 H 0.07299 0.05383 0.95473 0.0
H554 H 0.14504 1.00948 0.94604 0.0
H555 H 0.16824 0.98243 1.0047 0.0
H556 H 0.85771 0.1572 0.23537 0.0
H557 H 0.88594 0.18356 0.29744 0.0
H558 H 0.89907 0.05582 0.32529 0.0
H559 H 0.87109 0.02913 0.26328 0.0
H560 H 0.96258 0.17782 0.33167 0.0
H561 H 0.84391 0.10114 0.41341 0.0
H562 H 0.86878 0.06384 0.38435 0.0
H563 H 0.83629 0.10145 0.36416 0.0
C564 C 0.86573 0.13448 0.25482 0.0
C565 C 0.86147 0.09079 0.24391 0.0
C566 C 0.88234 0.14974 0.29045 0.0
C567 C 0.89479 0.12191 0.31664 0.0
C568 C 0.88942 0.07822 0.30616 0.0
H569 H 0.94114 0.22832 0.54518 0.0
H570 H 0.91278 0.20481 0.4828 0.0
C571 C 0.87315 0.06291 0.27043 0.0
C572 C 0.91463 0.13869 0.35419 0.0
H573 H 0.90562 0.13418 0.4466 0.0
C574 C 0.95005 0.16817 0.3568 0.0
C575 C 0.89851 0.12672 0.38738 0.0
C576 C 0.85956 0.09687 0.3873 0.0
C577 C 0.96953 0.18576 0.3911 0.0
C578 C 0.95399 0.17308 0.4244 0.0
C579 C 0.91841 0.14373 0.42163 0.0
C580 C 0.97283 0.19048 0.46229 0.0
C581 C 1.00567 0.21899 0.39094 0.0
C582 C 1.01651 0.19132 0.47251 0.0
C583 C 0.03315 0.20601 0.50838 0.0
C584 C 1.00656 0.21915 0.53568 0.0
C585 C 0.96298 0.21873 0.52527 0.0
C586 C 0.94651 0.20479 0.48934 0.0
H587 H 1.00451 0.23486 0.3649 0.0
H588 H 1.00545 0.24347 0.41421 0.0
H589 H 0.03596 0.2037 0.39324 0.0
H590 H 0.03786 0.17934 0.45313 0.0
H591 H 0.06675 0.20521 0.51511 0.0
loop_
_geom_bond_atom_site_label_1
_geom_bond_atom_site_label_2
_geom_bond_distance
_geom_bond_site_symmetry_2
_ccdc_geom_bond_type
Dy0 O3 2.307 . S
Dy0 O5 2.395 1_554 S
Dy0 O6 2.379 1_554 S
Dy0 O8 2.339 . S
Dy0 O10 2.298 1_564 S
Dy0 O14 2.275 1_565 S
Dy0 C22 2.738 1_554 S
Dy1 O4 2.298 . S
Dy1 O7 2.275 . S
Dy1 O9 2.307 . S
Dy1 O11 2.395 . S
Dy1 O12 2.379 . S
Dy1 O15 2.339 . S
Dy1 C31 2.738 . S
C2 O14 1.254 . S
C2 O15 1.257 . S
O3 Dy0 2.307 . S
O3 C13 1.266 . S
O4 Dy1 2.298 . S
O4 C13 1.236 1_545 S
O5 Dy0 2.395 1_556 S
O5 C22 1.255 . S
O6 Dy0 2.379 1_556 S
O6 C22 1.249 . S
O7 Dy1 2.275 . S
O7 C23 1.254 . S
O8 Dy0 2.339 . S
O8 C23 1.257 1_565 S
O9 Dy1 2.307 . S
O9 C24 1.266 1_554 S
O10 Dy0 2.298 1_546 S
O10 C24 1.236 . S
O11 Dy1 2.395 . S
O11 C31 1.255 . S
O12 Dy1 2.379 . S
O12 C31 1.249 . S
C13 O3 1.266 . S
C13 O4 1.236 1_565 S
O14 Dy0 2.275 1_545 S
O14 C2 1.254 . S
O15 Dy1 2.339 . S
O15 C2 1.257 . S
C16 C19 1.344 . S
C16 C20 1.328 . S
C16 C22 1.516 . S
C17 C18 1.304 . S
C17 C21 1.323 . S
C18 C17 1.304 . S
C18 C19 1.371 . S
C18 H32 0.930 . S
C19 C16 1.344 . S
C19 C18 1.371 . S
C19 H33 0.931 . S
C20 C16 1.328 . S
C20 C21 1.433 . S
C20 H34 0.931 . S
C21 C17 1.323 . S
C21 C20 1.433 . S
C21 H35 0.933 . S
C22 Dy0 2.738 1_556 S
C22 O5 1.255 . S
C22 O6 1.249 . S
C22 C16 1.516 . S
C23 O7 1.254 . S
C23 O8 1.257 1_545 S
C24 O9 1.266 1_556 S
C24 O10 1.236 . S
C25 C28 1.344 . S
C25 C29 1.328 . S
C25 C31 1.516 . S
C26 C27 1.304 . S
C26 C30 1.323 . S
C27 C26 1.304 . S
C27 C28 1.371 . S
C27 H36 0.930 . S
C28 C25 1.344 . S
C28 C27 1.371 . S
C28 H37 0.931 . S
C29 C25 1.328 . S
C29 C30 1.433 . S
C29 H38 0.931 . S
C30 C26 1.323 . S
C30 C29 1.433 . S
C30 H39 0.933 . S
C31 Dy1 2.738 . S
C31 O11 1.255 . S
C31 O12 1.249 . S
C31 C25 1.516 . S
H32 C18 0.930 . S
H33 C19 0.931 . S
H34 C20 0.931 . S
H35 C21 0.933 . S
H36 C27 0.930 . S
H37 C28 0.931 . S
H38 C29 0.931 . S
H39 C30 0.933 . S
Dy40 O43 2.307 . S
Dy40 O45 2.395 . S
Dy40 O46 2.379 . S
Dy40 O48 2.339 . S
Dy40 O50 2.298 . S
Dy40 O54 2.275 . S
Dy40 C62 2.738 . S
Dy41 O44 2.298 1_655 S
Dy41 O47 2.275 1_655 S
Dy41 O49 2.307 . S
Dy41 O51 2.395 . S
Dy41 O52 2.379 . S
Dy41 O55 2.339 . S
Dy41 C71 2.738 . S
C42 O54 1.254 . S
C42 O55 1.257 1_455 S
O43 Dy40 2.307 . S
O43 C53 1.266 . S
O44 Dy41 2.298 1_455 S
O44 C53 1.236 . S
O45 Dy40 2.395 . S
O45 C62 1.255 . S
O46 Dy40 2.379 . S
O46 C62 1.249 . S
O47 Dy41 2.275 1_455 S
O47 C63 1.254 . S
O48 Dy40 2.339 . S
O48 C63 1.257 . S
O49 Dy41 2.307 . S
O49 C64 1.266 . S
O50 Dy40 2.298 . S
O50 C64 1.236 1_455 S
O51 Dy41 2.395 . S
O51 C71 1.255 . S
O52 Dy41 2.379 . S
O52 C71 1.249 . S
C53 O43 1.266 . S
C53 O44 1.236 . S
O54 Dy40 2.275 . S
O54 C42 1.254 . S
O55 Dy41 2.339 . S
O55 C42 1.257 1_655 S
C56 C59 1.344 . S
C56 C60 1.328 . S
C56 C62 1.516 . S
C57 C58 1.304 . S
C57 C61 1.323 . S
C58 C57 1.304 . S
C58 C59 1.371 . S
C58 H72 0.930 . S
C59 C56 1.344 . S
C59 C58 1.371 . S
C59 H73 0.931 . S
C60 C56 1.328 . S
C60 C61 1.433 . S
C60 H74 0.931 . S
C61 C57 1.323 . S
C61 C60 1.433 . S
C61 H75 0.933 . S
C62 Dy40 2.738 . S
C62 O45 1.255 . S
C62 O46 1.249 . S
C62 C56 1.516 . S
C63 O47 1.254 . S
C63 O48 1.257 . S
C64 O49 1.266 . S
C64 O50 1.236 1_655 S
C65 C68 1.344 . S
C65 C69 1.328 . S
C65 C71 1.516 . S
C66 C67 1.304 . S
C66 C70 1.323 . S
C67 C66 1.304 . S
C67 C68 1.371 . S
C67 H76 0.930 . S
C68 C65 1.344 . S
C68 C67 1.371 . S
C68 H77 0.931 . S
C69 C65 1.328 . S
C69 C70 1.433 . S
C69 H78 0.931 . S
C70 C66 1.323 . S
C70 C69 1.433 . S
C70 H79 0.933 . S
C71 Dy41 2.738 . S
C71 O51 1.255 . S
C71 O52 1.249 . S
C71 C65 1.516 . S
H72 C58 0.930 . S
H73 C59 0.931 . S
H74 C60 0.931 . S
H75 C61 0.933 . S
H76 C67 0.930 . S
H77 C68 0.931 . S
H78 C69 0.931 . S
H79 C70 0.933 . S
Dy80 O83 2.307 1_554 S
Dy80 O85 2.395 . S
Dy80 O86 2.379 . S
Dy80 O88 2.339 . S
Dy80 O90 2.298 1_565 S
Dy80 O94 2.275 . S
Dy80 C102 2.738 . S
Dy81 O84 2.298 1_545 S
Dy81 O87 2.275 1_556 S
Dy81 O89 2.307 1_556 S
Dy81 O91 2.395 . S
Dy81 O92 2.379 . S
Dy81 O95 2.339 . S
Dy81 C111 2.738 . S
C82 O94 1.254 1_545 S
C82 O95 1.257 1_554 S
O83 Dy80 2.307 1_556 S
O83 C93 1.266 . S
O84 Dy81 2.298 1_565 S
O84 C93 1.236 . S
O85 Dy80 2.395 . S
O85 C102 1.255 . S
O86 Dy80 2.379 . S
O86 C102 1.249 . S
O87 Dy81 2.275 1_554 S
O87 C103 1.254 1_545 S
O88 Dy80 2.339 . S
O88 C103 1.257 . S
O89 Dy81 2.307 1_554 S
O89 C104 1.266 . S
O90 Dy80 2.298 1_545 S
O90 C104 1.236 . S
O91 Dy81 2.395 . S
O91 C111 1.255 . S
O92 Dy81 2.379 . S
O92 C111 1.249 . S
C93 O83 1.266 . S
C93 O84 1.236 . S
O94 Dy80 2.275 . S
O94 C82 1.254 1_565 S
O95 Dy81 2.339 . S
O95 C82 1.257 1_556 S
C96 C99 1.344 . S
C96 C100 1.328 . S
C96 C102 1.516 . S
C97 C98 1.304 . S
C97 C101 1.323 . S
C98 C97 1.304 . S
C98 C99 1.371 . S
C98 H112 0.930 . S
C99 C96 1.344 . S
C99 C98 1.371 . S
C99 H113 0.931 . S
C100 C96 1.328 . S
C100 C101 1.433 . S
C100 H114 0.931 . S
C101 C97 1.323 . S
C101 C100 1.433 . S
C101 H115 0.933 . S
C102 Dy80 2.738 . S
C102 O85 1.255 . S
C102 O86 1.249 . S
C102 C96 1.516 . S
C103 O87 1.254 1_565 S
C103 O88 1.257 . S
C104 O89 1.266 . S
C104 O90 1.236 . S
C105 C108 1.344 . S
C105 C109 1.328 . S
C105 C111 1.516 . S
C106 C107 1.304 . S
C106 C110 1.323 . S
C107 C106 1.304 . S
C107 C108 1.371 . S
C107 H116 0.930 . S
C108 C105 1.344 . S
C108 C107 1.371 . S
C108 H117 0.931 . S
C109 C105 1.328 . S
C109 C110 1.433 . S
C109 H118 0.931 . S
C110 C106 1.323 . S
C110 C109 1.433 . S
C110 H119 0.933 . S
C111 Dy81 2.738 . S
C111 O91 1.255 . S
C111 O92 1.249 . S
C111 C105 1.516 . S
H112 C98 0.930 . S
H113 C99 0.931 . S
H114 C100 0.931 . S
H115 C101 0.933 . S
H116 C107 0.930 . S
H117 C108 0.931 . S
H118 C109 0.931 . S
H119 C110 0.933 . S
Dy120 O123 2.307 . S
Dy120 O125 2.395 . S
Dy120 O126 2.379 . S
Dy120 O128 2.339 . S
Dy120 O130 2.298 1_455 S
Dy120 O134 2.275 . S
Dy120 C142 2.738 . S
Dy121 O124 2.298 1_655 S
Dy121 O127 2.275 . S
Dy121 O129 2.307 . S
Dy121 O131 2.395 . S
Dy121 O132 2.379 . S
Dy121 O135 2.339 . S
Dy121 C151 2.738 . S
C122 O134 1.254 1_655 S
C122 O135 1.257 . S
O123 Dy120 2.307 . S
O123 C133 1.266 . S
O124 Dy121 2.298 1_455 S
O124 C133 1.236 . S
O125 Dy120 2.395 . S
O125 C142 1.255 . S
O126 Dy120 2.379 . S
O126 C142 1.249 . S
O127 Dy121 2.275 . S
O127 C143 1.254 1_655 S
O128 Dy120 2.339 . S
O128 C143 1.257 . S
O129 Dy121 2.307 . S
O129 C144 1.266 . S
O130 Dy120 2.298 1_655 S
O130 C144 1.236 . S
O131 Dy121 2.395 . S
O131 C151 1.255 . S
O132 Dy121 2.379 . S
O132 C151 1.249 . S
C133 O123 1.266 . S
C133 O124 1.236 . S
O134 Dy120 2.275 . S
O134 C122 1.254 1_455 S
O135 Dy121 2.339 . S
O135 C122 1.257 . S
C136 C139 1.344 . S
C136 C140 1.328 . S
C136 C142 1.516 . S
C137 C138 1.304 . S
C137 C141 1.323 . S
C138 C137 1.304 . S
C138 C139 1.371 . S
C138 H152 0.930 . S
C139 C136 1.344 . S
C139 C138 1.371 . S
C139 H153 0.931 . S
C140 C136 1.328 . S
C140 C141 1.433 . S
C140 H154 0.931 . S
C141 C137 1.323 . S
C141 C140 1.433 . S
C141 H155 0.933 . S
C142 Dy120 2.738 . S
C142 O125 1.255 . S
C142 O126 1.249 . S
C142 C136 1.516 . S
C143 O127 1.254 1_455 S
C143 O128 1.257 . S
C144 O129 1.266 . S
C144 O130 1.236 . S
C145 C148 1.344 . S
C145 C149 1.328 . S
C145 C151 1.516 . S
C146 C147 1.304 . S
C146 C150 1.323 . S
C147 C146 1.304 . S
C147 C148 1.371 . S
C147 H156 0.930 . S
C148 C145 1.344 . S
C148 C147 1.371 . S
C148 H157 0.931 . S
C149 C145 1.328 . S
C149 C150 1.433 . S
C149 H158 0.931 . S
C150 C146 1.323 . S
C150 C149 1.433 . S
C150 H159 0.933 . S
C151 Dy121 2.738 . S
C151 O131 1.255 . S
C151 O132 1.249 . S
C151 C145 1.516 . S
H152 C138 0.930 . S
H153 C139 0.931 . S
H154 C140 0.931 . S
H155 C141 0.933 . S
H156 C147 0.930 . S
H157 C148 0.931 . S
H158 C149 0.931 . S
H159 C150 0.933 . S
H160 C168 0.929 . S
H161 C170 0.938 . S
H162 C172 0.930 . S
H163 C175 0.929 . S
H164 C178 0.930 . S
H165 C180 0.960 . S
H166 C180 0.960 1_565 S
H167 C180 0.960 . S
C168 H160 0.929 . S
C168 C169 1.395 1_556 S
C168 C170 1.384 . S
C169 C168 1.395 1_554 S
C169 C175 1.373 1_565 S
C170 H161 0.938 . S
C170 C168 1.384 . S
C170 C171 1.365 1_566 S
C171 C170 1.365 1_544 S
C171 C172 1.400 . S
C171 C176 1.490 . S
C172 H162 0.930 . S
C172 C171 1.400 . S
C172 C175 1.386 . S
H173 C189 0.930 . S
H174 C190 0.931 . S
C175 H163 0.929 . S
C175 C169 1.373 1_545 S
C175 C172 1.386 . S
C176 C171 1.490 . S
C176 C178 1.395 1_544 S
C176 C179 1.403 . S
H177 C183 0.930 . S
C178 H164 0.930 . S
C178 C176 1.395 1_566 S
C178 C181 1.403 1_665 S
C179 C176 1.403 . S
C179 C180 1.524 . S
C179 C183 1.400 1_655 S
C180 H165 0.960 . S
C180 H166 0.960 1_545 S
C180 H167 0.960 . S
C180 C179 1.524 . S
C181 C178 1.403 1_445 S
C181 C182 1.393 1_556 S
C181 C185 1.495 1_545 S
C182 C181 1.393 1_554 S
C182 C183 1.385 . S
C182 C184 1.478 . S
C183 H177 0.930 . S
C183 C179 1.400 1_455 S
C183 C182 1.385 . S
C184 C182 1.478 . S
C184 C186 1.381 1_545 S
C184 C190 1.383 . S
C185 C181 1.495 1_565 S
C185 H191 0.959 . S
C185 H192 0.961 1_565 S
C185 H193 0.960 . S
C186 C184 1.381 1_565 S
C186 C187 1.394 . S
C186 H194 0.930 . S
C187 C186 1.394 . S
C187 C188 1.383 1_565 S
C187 H195 0.929 . S
C188 C187 1.383 1_545 S
C188 C189 1.377 . S
C189 H173 0.930 . S
C189 C188 1.377 . S
C189 C190 1.379 . S
C190 H174 0.931 . S
C190 C184 1.383 . S
C190 C189 1.379 . S
H191 C185 0.959 . S
H192 C185 0.961 1_545 S
H193 C185 0.960 . S
H194 C186 0.930 . S
H195 C187 0.929 . S
H196 C204 0.929 . S
H197 C206 0.930 . S
H198 C208 0.930 . S
H199 C211 0.929 . S
H200 C214 0.930 . S
H201 C216 0.960 . S
H202 C216 0.960 . S
H203 C216 0.960 . S
C204 H196 0.929 . S
C204 C205 1.377 . S
C204 C206 1.384 . S
C205 C204 1.377 . S
C205 C211 1.390 1_655 S
C206 H197 0.930 . S
C206 C204 1.384 . S
C206 C207 1.372 1_655 S
C207 C206 1.372 1_455 S
C207 C208 1.400 . S
C207 C212 1.490 . S
C208 H198 0.930 . S
C208 C207 1.400 . S
C208 C211 1.386 . S
H209 C225 0.930 . S
H210 C226 0.931 . S
C211 H199 0.929 . S
C211 C205 1.390 1_455 S
C211 C208 1.386 . S
C212 C207 1.490 . S
C212 C214 1.395 1_455 S
C212 C215 1.403 . S
H213 C219 0.930 . S
C214 H200 0.930 . S
C214 C212 1.395 1_655 S
C214 C217 1.403 1_565 S
C215 C212 1.403 . S
C215 C216 1.524 . S
C215 C219 1.400 1_565 S
C216 H201 0.960 . S
C216 H202 0.960 . S
C216 H203 0.960 . S
C216 C215 1.524 . S
C217 C214 1.403 1_545 S
C217 C218 1.392 1_655 S
C217 C221 1.495 . S
C218 C217 1.392 1_455 S
C218 C219 1.385 . S
C218 C220 1.478 . S
C219 H213 0.930 . S
C219 C215 1.400 1_545 S
C219 C218 1.385 . S
C220 C218 1.478 . S
C220 C222 1.381 1_455 S
C220 C226 1.383 . S
C221 C217 1.495 . S
C221 H227 0.959 . S
C221 H228 0.961 . S
C221 H229 0.960 . S
C222 C220 1.381 1_655 S
C222 C223 1.394 . S
C222 H230 0.930 . S
C223 C222 1.394 . S
C223 C224 1.383 1_655 S
C223 H231 0.929 . S
C224 C223 1.383 1_455 S
C224 C225 1.377 . S
C225 H209 0.930 . S
C225 C224 1.377 . S
C225 C226 1.379 . S
C226 H210 0.931 . S
C226 C220 1.383 . S
C226 C225 1.379 . S
H227 C221 0.959 . S
H228 C221 0.961 . S
H229 C221 0.960 . S
H230 C222 0.930 . S
H231 C223 0.929 . S
H232 C240 0.933 . S
H233 C242 0.930 1_556 S
H234 C244 0.930 . S
H235 C247 0.929 . S
H236 C250 0.930 . S
H237 C252 0.960 . S
H238 C252 0.960 . S
H239 C252 0.960 1_565 S
C240 H232 0.933 . S
C240 C241 1.375 1_546 S
C240 C242 1.383 1_556 S
C241 C240 1.375 1_564 S
C241 C247 1.390 . S
C242 H233 0.930 1_554 S
C242 C240 1.383 1_554 S
C242 C243 1.372 . S
C243 C242 1.372 . S
C243 C244 1.400 1_545 S
C243 C248 1.490 . S
C244 H234 0.930 . S
C244 C243 1.400 1_565 S
C244 C247 1.386 . S
H245 C261 0.930 . S
H246 C262 0.931 . S
C247 H235 0.929 . S
C247 C241 1.390 . S
C247 C244 1.386 . S
C248 C243 1.490 . S
C248 C250 1.395 1_554 S
C248 C251 1.403 . S
H249 C255 0.930 . S
C250 H236 0.930 . S
C250 C248 1.395 1_556 S
C250 C253 1.403 . S
C251 C248 1.403 . S
C251 C252 1.524 . S
C251 C255 1.400 . S
C252 H237 0.960 . S
C252 H238 0.960 . S
C252 H239 0.960 1_545 S
C252 C251 1.524 . S
C253 C250 1.403 . S
C253 C254 1.392 1_556 S
C253 C257 1.495 . S
C254 C253 1.392 1_554 S
C254 C255 1.385 . S
C254 C256 1.478 . S
C255 H249 0.930 . S
C255 C251 1.400 . S
C255 C254 1.385 . S
C256 C254 1.478 . S
C256 C258 1.381 . S
C256 C262 1.383 1_545 S
C257 C253 1.495 . S
C257 H263 0.959 . S
C257 H264 0.961 1_545 S
C257 H265 0.960 . S
C258 C256 1.381 . S
C258 C259 1.394 . S
C258 H266 0.930 . S
C259 C258 1.394 . S
C259 C260 1.383 . S
C259 H267 0.929 . S
C260 C259 1.383 . S
C260 C261 1.377 1_545 S
C261 H245 0.930 . S
C261 C260 1.377 1_565 S
C261 C262 1.379 . S
C262 H246 0.931 . S
C262 C256 1.383 1_565 S
C262 C261 1.379 . S
H263 C257 0.959 . S
H264 C257 0.961 1_565 S
H265 C257 0.960 . S
H266 C258 0.930 . S
H267 C259 0.929 . S
H268 C276 0.929 . S
H269 C278 0.930 . S
H270 C280 0.930 . S
H271 C283 0.929 . S
H272 C286 0.930 . S
H273 C288 0.960 . S
H274 C288 0.960 . S
H275 C288 0.960 . S
C276 H268 0.929 . S
C276 C277 1.377 . S
C276 C278 1.384 . S
C277 C276 1.377 . S
C277 C283 1.390 1_455 S
C278 H269 0.930 . S
C278 C276 1.384 . S
C278 C279 1.372 . S
C279 C278 1.372 . S
C279 C280 1.400 1_455 S
C279 C284 1.490 . S
C280 H270 0.930 . S
C280 C279 1.400 1_655 S
C280 C283 1.386 . S
H281 C297 0.930 . S
H282 C298 0.931 . S
C283 H271 0.929 . S
C283 C277 1.390 1_655 S
C283 C280 1.386 . S
C284 C279 1.490 . S
C284 C286 1.395 . S
C284 C287 1.403 1_455 S
H285 C291 0.930 . S
C286 H272 0.930 . S
C286 C284 1.395 . S
C286 C289 1.403 . S
C287 C284 1.403 1_655 S
C287 C288 1.524 . S
C287 C291 1.400 . S
C288 H273 0.960 . S
C288 H274 0.960 . S
C288 H275 0.960 . S
C288 C287 1.524 . S
C289 C286 1.403 . S
C289 C290 1.392 . S
C289 C293 1.495 . S
C290 C289 1.392 . S
C290 C291 1.385 1_455 S
C290 C292 1.478 . S
C291 H285 0.930 . S
C291 C287 1.400 . S
C291 C290 1.385 1_655 S
C292 C290 1.478 . S
C292 C294 1.381 . S
C292 C298 1.383 1_455 S
C293 C289 1.495 . S
C293 H299 0.959 . S
C293 H300 0.961 . S
C293 H301 0.960 . S
C294 C292 1.381 . S
C294 C295 1.394 . S
C294 H302 0.930 . S
C295 C294 1.394 . S
C295 C296 1.383 . S
C295 H303 0.929 . S
C296 C295 1.383 . S
C296 C297 1.377 1_455 S
C297 H281 0.930 . S
C297 C296 1.377 1_655 S
C297 C298 1.379 . S
C298 H282 0.931 . S
C298 C292 1.383 1_655 S
C298 C297 1.379 . S
H299 C293 0.959 . S
H300 C293 0.961 . S
H301 C293 0.960 . S
H302 C294 0.930 . S
H303 C295 0.929 . S
H304 C312 0.929 . S
H305 C314 0.930 . S
H306 C316 0.930 . S
H307 C319 0.929 . S
H308 C322 0.930 . S
H309 C324 0.960 . S
H310 C324 0.960 . S
H311 C324 0.960 . S
C312 H304 0.929 . S
C312 C313 1.377 . S
C312 C314 1.384 . S
C313 C312 1.377 . S
C313 C319 1.390 . S
C314 H305 0.930 . S
C314 C312 1.384 . S
C314 C315 1.372 . S
C315 C314 1.372 . S
C315 C316 1.400 . S
C315 C320 1.490 . S
C316 H306 0.930 . S
C316 C315 1.400 . S
C316 C319 1.386 . S
H317 C333 0.930 . S
H318 C334 0.931 . S
C319 H307 0.929 . S
C319 C313 1.390 . S
C319 C316 1.386 . S
C320 C315 1.490 . S
C320 C322 1.395 . S
C320 C323 1.403 . S
H321 C327 0.930 . S
C322 H308 0.930 . S
C322 C320 1.395 . S
C322 C325 1.403 . S
C323 C320 1.403 . S
C323 C324 1.524 . S
C323 C327 1.400 . S
C324 H309 0.960 . S
C324 H310 0.960 . S
C324 H311 0.960 . S
C324 C323 1.524 . S
C325 C322 1.403 . S
C325 C326 1.392 . S
C325 C329 1.495 . S
C326 C325 1.392 . S
C326 C327 1.385 . S
C326 C328 1.478 . S
C327 H321 0.930 . S
C327 C323 1.400 . S
C327 C326 1.385 . S
C328 C326 1.478 . S
C328 C330 1.381 . S
C328 C334 1.383 . S
C329 C325 1.495 . S
C329 H335 0.959 . S
C329 H336 0.961 . S
C329 H337 0.960 . S
C330 C328 1.381 . S
C330 C331 1.394 . S
C330 H338 0.930 . S
C331 C330 1.394 . S
C331 C332 1.383 . S
C331 H339 0.929 . S
C332 C331 1.383 . S
C332 C333 1.377 . S
C333 H317 0.930 . S
C333 C332 1.377 . S
C333 C334 1.379 . S
C334 H318 0.931 . S
C334 C328 1.383 . S
C334 C333 1.379 . S
H335 C329 0.959 . S
H336 C329 0.961 . S
H337 C329 0.960 . S
H338 C330 0.930 . S
H339 C331 0.929 . S
H340 C348 0.929 . S
H341 C350 0.930 . S
H342 C352 0.930 . S
H343 C355 0.929 . S
H344 C358 0.930 . S
H345 C360 0.960 . S
H346 C360 0.960 . S
H347 C360 0.960 . S
C348 H340 0.929 . S
C348 C349 1.377 . S
C348 C350 1.384 . S
C349 C348 1.377 . S
C349 C355 1.390 . S
C350 H341 0.930 . S
C350 C348 1.384 . S
C350 C351 1.372 . S
C351 C350 1.372 . S
C351 C352 1.400 . S
C351 C356 1.490 . S
C352 H342 0.930 . S
C352 C351 1.400 . S
C352 C355 1.386 . S
H353 C369 0.930 . S
H354 C370 0.931 . S
C355 H343 0.929 . S
C355 C349 1.390 . S
C355 C352 1.386 . S
C356 C351 1.490 . S
C356 C358 1.395 . S
C356 C359 1.403 . S
H357 C363 0.930 . S
C358 H344 0.930 . S
C358 C356 1.395 . S
C358 C361 1.403 . S
C359 C356 1.403 . S
C359 C360 1.524 . S
C359 C363 1.400 . S
C360 H345 0.960 . S
C360 H346 0.960 . S
C360 H347 0.960 . S
C360 C359 1.524 . S
C361 C358 1.403 . S
C361 C362 1.392 . S
C361 C365 1.495 . S
C362 C361 1.392 . S
C362 C363 1.385 . S
C362 C364 1.478 . S
C363 H357 0.930 . S
C363 C359 1.400 . S
C363 C362 1.385 . S
C364 C362 1.478 . S
C364 C366 1.381 . S
C364 C370 1.383 . S
C365 C361 1.495 . S
C365 H371 0.959 . S
C365 H372 0.961 . S
C365 H373 0.960 . S
C366 C364 1.381 . S
C366 C367 1.394 . S
C366 H374 0.930 . S
C367 C366 1.394 . S
C367 C368 1.383 . S
C367 H375 0.929 . S
C368 C367 1.383 . S
C368 C369 1.377 . S
C369 H353 0.930 . S
C369 C368 1.377 . S
C369 C370 1.379 . S
C370 H354 0.931 . S
C370 C364 1.383 . S
C370 C369 1.379 . S
H371 C365 0.959 . S
H372 C365 0.961 . S
H373 C365 0.960 . S
H374 C366 0.930 . S
H375 C367 0.929 . S
H376 C384 0.929 . S
H377 C386 0.930 . S
H378 C388 0.930 . S
H379 C391 0.929 . S
H380 C394 0.930 . S
H381 C396 0.960 . S
H382 C396 0.960 . S
H383 C396 0.960 . S
C384 H376 0.929 . S
C384 C385 1.377 . S
C384 C386 1.384 . S
C385 C384 1.377 . S
C385 C391 1.390 . S
C386 H377 0.930 . S
C386 C384 1.384 . S
C386 C387 1.372 . S
C387 C386 1.372 . S
C387 C388 1.400 . S
C387 C392 1.490 . S
C388 H378 0.930 . S
C388 C387 1.400 . S
C388 C391 1.386 . S
H389 C405 0.930 . S
H390 C406 0.931 . S
C391 H379 0.929 . S
C391 C385 1.390 . S
C391 C388 1.386 . S
C392 C387 1.490 . S
C392 C394 1.395 . S
C392 C395 1.403 . S
H393 C399 0.930 . S
C394 H380 0.930 . S
C394 C392 1.395 . S
C394 C397 1.403 . S
C395 C392 1.403 . S
C395 C396 1.524 . S
C395 C399 1.400 . S
C396 H381 0.960 . S
C396 H382 0.960 . S
C396 H383 0.960 . S
C396 C395 1.524 . S
C397 C394 1.403 . S
C397 C398 1.392 . S
C397 C401 1.495 . S
C398 C397 1.392 . S
C398 C399 1.385 . S
C398 C400 1.478 . S
C399 H393 0.930 . S
C399 C395 1.400 . S
C399 C398 1.385 . S
C400 C398 1.478 . S
C400 C402 1.381 . S
C400 C406 1.383 . S
C401 C397 1.495 . S
C401 H407 0.959 . S
C401 H408 0.961 . S
C401 H409 0.960 . S
C402 C400 1.381 . S
C402 C403 1.394 . S
C402 H410 0.930 . S
C403 C402 1.394 . S
C403 C404 1.383 . S
C403 H411 0.929 . S
C404 C403 1.383 . S
C404 C405 1.377 . S
C405 H389 0.930 . S
C405 C404 1.377 . S
C405 C406 1.379 . S
C406 H390 0.931 . S
C406 C400 1.383 . S
C406 C405 1.379 . S
H407 C401 0.959 . S
H408 C401 0.961 . S
H409 C401 0.960 . S
H410 C402 0.930 . S
H411 C403 0.929 . S
H412 C420 0.929 . S
H413 C422 0.930 . S
H414 C424 0.930 . S
H415 C427 0.929 . S
H416 C430 0.930 . S
H417 C432 0.960 . S
H418 C432 0.960 . S
H419 C432 0.960 . S
C420 H412 0.929 . S
C420 C421 1.377 . S
C420 C422 1.384 . S
C421 C420 1.377 . S
C421 C427 1.390 . S
C422 H413 0.930 . S
C422 C420 1.384 . S
C422 C423 1.372 . S
C423 C422 1.372 . S
C423 C424 1.400 . S
C423 C428 1.490 . S
C424 H414 0.930 . S
C424 C423 1.400 . S
C424 C427 1.386 . S
H425 C441 0.930 . S
H426 C442 0.931 . S
C427 H415 0.929 . S
C427 C421 1.390 . S
C427 C424 1.386 . S
C428 C423 1.490 . S
C428 C430 1.395 . S
C428 C431 1.403 . S
H429 C435 0.930 . S
C430 H416 0.930 . S
C430 C428 1.395 . S
C430 C433 1.403 . S
C431 C428 1.403 . S
C431 C432 1.524 . S
C431 C435 1.400 . S
C432 H417 0.960 . S
C432 H418 0.960 . S
C432 H419 0.960 . S
C432 C431 1.524 . S
C433 C430 1.403 . S
C433 C434 1.392 . S
C433 C437 1.495 . S
C434 C433 1.392 . S
C434 C435 1.385 . S
C434 C436 1.478 . S
C435 H429 0.930 . S
C435 C431 1.400 . S
C435 C434 1.385 . S
C436 C434 1.478 . S
C436 C438 1.381 . S
C436 C442 1.383 . S
C437 C433 1.495 . S
C437 H443 0.959 . S
C437 H444 0.961 . S
C437 H445 0.960 . S
C438 C436 1.381 . S
C438 C439 1.394 . S
C438 H446 0.930 . S
C439 C438 1.394 . S
C439 C440 1.383 . S
C439 H447 0.929 . S
C440 C439 1.383 . S
C440 C441 1.377 . S
C441 H425 0.930 . S
C441 C440 1.377 . S
C441 C442 1.379 . S
C442 H426 0.931 . S
C442 C436 1.383 . S
C442 C441 1.379 . S
H443 C437 0.959 . S
H444 C437 0.961 . S
H445 C437 0.960 . S
H446 C438 0.930 . S
H447 C439 0.929 . S
H448 C456 0.929 . S
H449 C458 0.930 . S
H450 C460 0.930 . S
H451 C463 0.929 . S
H452 C466 0.930 . S
H453 C468 0.960 . S
H454 C468 0.960 . S
H455 C468 0.960 . S
C456 H448 0.929 . S
C456 C457 1.377 . S
C456 C458 1.384 . S
C457 C456 1.377 . S
C457 C463 1.390 . S
C458 H449 0.930 . S
C458 C456 1.384 . S
C458 C459 1.372 . S
C459 C458 1.372 . S
C459 C460 1.400 . S
C459 C464 1.490 . S
C460 H450 0.930 . S
C460 C459 1.400 . S
C460 C463 1.386 . S
H461 C477 0.930 . S
H462 C478 0.931 . S
C463 H451 0.929 . S
C463 C457 1.390 . S
C463 C460 1.386 . S
C464 C459 1.490 . S
C464 C466 1.395 . S
C464 C467 1.403 . S
H465 C471 0.930 . S
C466 H452 0.930 . S
C466 C464 1.395 . S
C466 C469 1.403 . S
C467 C464 1.403 . S
C467 C468 1.524 . S
C467 C471 1.400 . S
C468 H453 0.960 . S
C468 H454 0.960 . S
C468 H455 0.960 . S
C468 C467 1.524 . S
C469 C466 1.403 . S
C469 C470 1.392 . S
C469 C473 1.495 . S
C470 C469 1.392 . S
C470 C471 1.385 . S
C470 C472 1.478 . S
C471 H465 0.930 . S
C471 C467 1.400 . S
C471 C470 1.385 . S
C472 C470 1.478 . S
C472 C474 1.381 . S
C472 C478 1.383 . S
C473 C469 1.495 . S
C473 H479 0.959 . S
C473 H480 0.961 . S
C473 H481 0.960 . S
C474 C472 1.381 . S
C474 C475 1.394 . S
C474 H482 0.930 . S
C475 C474 1.394 . S
C475 C476 1.383 . S
C475 H483 0.929 . S
C476 C475 1.383 . S
C476 C477 1.377 . S
C477 H461 0.930 . S
C477 C476 1.377 . S
C477 C478 1.379 . S
C478 H462 0.931 . S
C478 C472 1.383 . S
C478 C477 1.379 . S
H479 C473 0.959 . S
H480 C473 0.961 . S
H481 C473 0.960 . S
H482 C474 0.930 . S
H483 C475 0.929 . S
H484 C492 0.929 . S
H485 C494 0.930 . S
H486 C496 0.930 . S
H487 C499 0.929 . S
H488 C502 0.930 . S
H489 C504 0.960 . S
H490 C504 0.960 . S
H491 C504 0.960 . S
C492 H484 0.929 . S
C492 C493 1.377 . S
C492 C494 1.384 . S
C493 C492 1.377 . S
C493 C499 1.390 . S
C494 H485 0.930 . S
C494 C492 1.384 . S
C494 C495 1.372 . S
C495 C494 1.372 . S
C495 C496 1.400 . S
C495 C500 1.490 . S
C496 H486 0.930 . S
C496 C495 1.400 . S
C496 C499 1.386 . S
H497 C513 0.930 . S
H498 C514 0.931 . S
C499 H487 0.929 . S
C499 C493 1.390 . S
C499 C496 1.386 . S
C500 C495 1.490 . S
C500 C502 1.395 . S
C500 C503 1.403 . S
H501 C507 0.930 . S
C502 H488 0.930 . S
C502 C500 1.395 . S
C502 C505 1.403 . S
C503 C500 1.403 . S
C503 C504 1.524 . S
C503 C507 1.400 . S
C504 H489 0.960 . S
C504 H490 0.960 . S
C504 H491 0.960 . S
C504 C503 1.524 . S
C505 C502 1.403 . S
C505 C506 1.392 . S
C505 C509 1.495 . S
C506 C505 1.392 . S
C506 C507 1.385 . S
C506 C508 1.478 . S
C507 H501 0.930 . S
C507 C503 1.400 . S
C507 C506 1.385 . S
C508 C506 1.478 . S
C508 C510 1.381 . S
C508 C514 1.383 . S
C509 C505 1.495 . S
C509 H515 0.959 . S
C509 H516 0.961 . S
C509 H517 0.960 . S
C510 C508 1.381 . S
C510 C511 1.394 . S
C510 H518 0.930 . S
C511 C510 1.394 . S
C511 C512 1.383 . S
C511 H519 0.929 . S
C512 C511 1.383 . S
C512 C513 1.377 . S
C513 H497 0.930 . S
C513 C512 1.377 . S
C513 C514 1.379 . S
C514 H498 0.931 . S
C514 C508 1.383 . S
C514 C513 1.379 . S
H515 C509 0.959 . S
H516 C509 0.961 . S
H517 C509 0.960 . S
H518 C510 0.930 . S
H519 C511 0.929 . S
H520 C528 0.929 . S
H521 C530 0.930 . S
H522 C532 0.930 . S
H523 C535 0.929 . S
H524 C538 0.930 . S
H525 C540 0.960 . S
H526 C540 0.960 . S
H527 C540 0.960 . S
C528 H520 0.929 . S
C528 C529 1.377 . S
C528 C530 1.384 . S
C529 C528 1.377 . S
C529 C535 1.390 . S
C530 H521 0.930 . S
C530 C528 1.384 . S
C530 C531 1.372 . S
C531 C530 1.372 . S
C531 C532 1.400 . S
C531 C536 1.490 . S
C532 H522 0.930 . S
C532 C531 1.400 . S
C532 C535 1.386 . S
H533 C549 0.930 . S
H534 C550 0.931 . S
C535 H523 0.929 . S
C535 C529 1.390 . S
C535 C532 1.386 . S
C536 C531 1.490 . S
C536 C538 1.395 . S
C536 C539 1.403 . S
H537 C543 0.930 . S
C538 H524 0.930 . S
C538 C536 1.395 . S
C538 C541 1.403 . S
C539 C536 1.403 . S
C539 C540 1.524 . S
C539 C543 1.400 . S
C540 H525 0.960 . S
C540 H526 0.960 . S
C540 H527 0.960 . S
C540 C539 1.524 . S
C541 C538 1.403 . S
C541 C542 1.392 . S
C541 C545 1.495 . S
C542 C541 1.392 . S
C542 C543 1.385 . S
C542 C544 1.478 . S
C543 H537 0.930 . S
C543 C539 1.400 . S
C543 C542 1.385 . S
C544 C542 1.478 . S
C544 C546 1.381 . S
C544 C550 1.383 . S
C545 C541 1.495 . S
C545 H551 0.959 . S
C545 H552 0.961 . S
C545 H553 0.960 . S
C546 C544 1.381 . S
C546 C547 1.394 . S
C546 H554 0.930 . S
C547 C546 1.394 . S
C547 C548 1.383 . S
C547 H555 0.929 . S
C548 C547 1.383 . S
C548 C549 1.377 . S
C549 H533 0.930 . S
C549 C548 1.377 . S
C549 C550 1.379 . S
C550 H534 0.931 . S
C550 C544 1.383 . S
C550 C549 1.379 . S
H551 C545 0.959 . S
H552 C545 0.961 . S
H553 C545 0.960 . S
H554 C546 0.930 . S
H555 C547 0.929 . S
H556 C564 0.929 . S
H557 C566 0.930 . S
H558 C568 0.930 . S
H559 C571 0.929 . S
H560 C574 0.930 . S
H561 C576 0.960 . S
H562 C576 0.960 . S
H563 C576 0.960 . S
C564 H556 0.929 . S
C564 C565 1.377 . S
C564 C566 1.384 . S
C565 C564 1.377 . S
C565 C571 1.390 . S
C566 H557 0.930 . S
C566 C564 1.384 . S
C566 C567 1.372 . S
C567 C566 1.372 . S
C567 C568 1.400 . S
C567 C572 1.490 . S
C568 H558 0.930 . S
C568 C567 1.400 . S
C568 C571 1.386 . S
H569 C585 0.930 . S
H570 C586 0.931 . S
C571 H559 0.929 . S
C571 C565 1.390 . S
C571 C568 1.386 . S
C572 C567 1.490 . S
C572 C574 1.395 . S
C572 C575 1.403 . S
H573 C579 0.930 . S
C574 H560 0.930 . S
C574 C572 1.395 . S
C574 C577 1.403 . S
C575 C572 1.403 . S
C575 C576 1.524 . S
C575 C579 1.400 . S
C576 H561 0.960 . S
C576 H562 0.960 . S
C576 H563 0.960 . S
C576 C575 1.524 . S
C577 C574 1.403 . S
C577 C578 1.392 . S
C577 C581 1.495 . S
C578 C577 1.392 . S
C578 C579 1.385 . S
C578 C580 1.478 . S
C579 H573 0.930 . S
C579 C575 1.400 . S
C579 C578 1.385 . S
C580 C578 1.478 . S
C580 C582 1.381 . S
C580 C586 1.383 . S
C581 C577 1.495 . S
C581 H587 0.959 . S
C581 H588 0.961 . S
C581 H589 0.960 . S
C582 C580 1.381 . S
C582 C583 1.394 . S
C582 H590 0.930 . S
C583 C582 1.394 . S
C583 C584 1.383 . S
C583 H591 0.929 . S
C584 C583 1.383 . S
C584 C585 1.377 . S
C585 H569 0.930 . S
C585 C584 1.377 . S
C585 C586 1.379 . S
C586 H570 0.931 . S
C586 C580 1.383 . S
C586 C585 1.379 . S
H587 C581 0.959 . S
H588 C581 0.961 . S
H589 C581 0.960 . S
H590 C582 0.930 . S
H591 C583 0.929 . S
C169 C103 0.554 . S
C188 C23 0.547 . S
C205 C143 0.611 1_655 S
C224 C63 0.636 . S
C241 C82 0.521 1_565 S
C260 C2 0.554 . S
C277 C42 0.524 . S
C296 C122 0.527 1_455 S
C313 C57 1.138 . S
C332 C26 1.162 . S
C349 C66 0.962 . S
C368 C106 0.974 . S
C385 C146 1.165 . S
C404 C97 1.177 . S
C421 C137 1.358 . S
C440 C17 1.360 . S
C457 C93 4.482 . S
C476 C144 4.425 . S
C493 C13 4.846 . S
C512 C133 4.839 . S
C529 C53 4.482 . S
C548 C24 4.422 . S
C565 C104 4.125 . S
C584 C64 4.124 . S
