# Generated by pormake.
# Topology rac, (4)-cn, num edge types: 1
# Building blocks:
#     Node 0, Type 0, BuildingBlock: KUFVIS_clean_sbu_0, # of connection points: 4
#     Node 1, Type 0, BuildingBlock: KUFVIS_clean_sbu_0, # of connection points: 4
#     Node 2, Type 0, BuildingBlock: KUFVIS_clean_sbu_0, # of connection points: 4
#     Node 3, Type 0, BuildingBlock: KUFVIS_clean_sbu_0, # of connection points: 4
#     Node 4, Type 0, BuildingBlock: KUFVIS_clean_sbu_0, # of connection points: 4
#     Node 5, Type 0, BuildingBlock: KUFVIS_clean_sbu_0, # of connection points: 4
#     Node 6, Type 0, BuildingBlock: KUFVIS_clean_sbu_0, # of connection points: 4
#     Node 7, Type 0, BuildingBlock: KUFVIS_clean_sbu_0, # of connection points: 4
#     Edge 8, Type (0, 0), BuildingBlock: AJUNOK_clean_linker_0, # of connection points: 2
#     Edge 9, Type (0, 0), BuildingBlock: AJUNOK_clean_linker_0, # of connection points: 2
#     Edge 10, Type (0, 0), BuildingBlock: AJUNOK_clean_linker_0, # of connection points: 2
#     Edge 11, Type (0, 0), BuildingBlock: AJUNOK_clean_linker_0, # of connection points: 2
#     Edge 12, Type (0, 0), BuildingBlock: AJUNOK_clean_linker_0, # of connection points: 2
#     Edge 13, Type (0, 0), BuildingBlock: AJUNOK_clean_linker_0, # of connection points: 2
#     Edge 14, Type (0, 0), BuildingBlock: AJUNOK_clean_linker_0, # of connection points: 2
#     Edge 15, Type (0, 0), BuildingBlock: AJUNOK_clean_linker_0, # of connection points: 2
#     Edge 16, Type (0, 0), BuildingBlock: AJUNOK_clean_linker_0, # of connection points: 2
#     Edge 17, Type (0, 0), BuildingBlock: AJUNOK_clean_linker_0, # of connection points: 2
#     Edge 18, Type (0, 0), BuildingBlock: AJUNOK_clean_linker_0, # of connection points: 2
#     Edge 19, Type (0, 0), BuildingBlock: AJUNOK_clean_linker_0, # of connection points: 2
#     Edge 20, Type (0, 0), BuildingBlock: AJUNOK_clean_linker_0, # of connection points: 2
#     Edge 21, Type (0, 0), BuildingBlock: AJUNOK_clean_linker_0, # of connection points: 2
#     Edge 22, Type (0, 0), BuildingBlock: AJUNOK_clean_linker_0, # of connection points: 2
#     Edge 23, Type (0, 0), BuildingBlock: AJUNOK_clean_linker_0, # of connection points: 2
# Relax obj value: 0.198
# Max RMSD: 0.074
# Mean RMSD: 0.074
data_MOF--net-rac--node1-KUFVIS_clean_sbu_0--edge1-AJUNOK_clean_linker_0
_symmetry_space_group_name_H-M    P1
_symmetry_Int_Tables_number       1
_symmetry_cell_setting            triclinic
loop_
_symmetry_equiv_pos_as_xyz
'x, y, z'
_cell_length_a     29.317849
_cell_length_b     16.302751
_cell_length_c     26.80596
_cell_angle_alpha  90.250094
_cell_angle_beta   90.206856
_cell_angle_gamma 90.032323
loop_
_atom_site_label
_atom_site_type_symbol
_atom_site_fract_x
_atom_site_fract_y
_atom_site_fract_z
_atom_type_partial_charge
Mn0 Mn 0.39948 0.27351 0.05545 0.0
Mn1 Mn 0.30901 0.23767 0.13143 0.0
C2 C 0.33285 0.34439 0.04568 0.0
C3 C 0.46229 0.36059 0.03482 0.0
C4 C 0.3339 0.12538 0.046 0.0
O5 O 0.43051 0.22593 0.11663 0.0
O6 O 0.36761 0.20104 0.16322 0.0
C7 C 0.32376 0.32768 0.22591 0.0
N8 N 0.29903 0.31659 0.18335 0.0
C9 C 0.23484 0.3876 0.21927 0.0
C10 C 0.25922 0.39617 0.26392 0.0
C11 C 0.30431 0.36834 0.2668 0.0
C12 C 0.25555 0.34434 0.18026 0.0
H13 H 0.35695 0.30138 0.22987 0.0
C14 C 0.41117 0.20404 0.1571 0.0
O15 O 0.45892 0.2868 0.01638 0.0
O16 O 0.43172 0.38031 0.06698 0.0
N17 N 0.25222 0.27537 0.10442 0.0
C18 C 0.23217 0.25666 0.05986 0.0
C19 C 0.18894 0.28872 0.04859 0.0
C20 C 0.16641 0.33841 0.08361 0.0
C21 C 0.18765 0.35651 0.12931 0.0
C22 C 0.23143 0.32507 0.13764 0.0
H23 H 0.24931 0.21842 0.03294 0.0
O24 O 0.35939 0.33086 0.00791 0.0
O25 O 0.34404 0.31024 0.08766 0.0
O26 O 0.37182 0.15873 0.03269 0.0
O27 O 0.31091 0.15122 0.08247 0.0
C28 C 0.1671 0.40403 0.16706 0.0
C29 C 0.19023 0.41777 0.21253 0.0
H30 H 0.24357 0.42344 0.29649 0.0
H31 H 0.3235 0.37619 0.30099 0.0
H32 H 0.17286 0.27463 0.01316 0.0
H33 H 0.13291 0.36225 0.07493 0.0
H34 H 0.13322 0.42892 0.16201 0.0
H35 H 0.17351 0.45208 0.24194 0.0
Mn36 Mn 0.15394 0.69999 0.06272 0.0
Mn37 Mn 0.23414 0.73163 0.15137 0.0
C38 C 0.22225 0.63285 0.05559 0.0
C39 C 0.0913 0.61182 0.03903 0.0
C40 C 0.21734 0.85085 0.06799 0.0
O41 O 0.11763 0.74918 0.12062 0.0
O42 O 0.17237 0.74392 0.17977 0.0
C43 C 0.22285 0.62279 0.23752 0.0
N44 N 0.24872 0.64749 0.1983 0.0
C45 C 0.31728 0.60175 0.23987 0.0
C46 C 0.29116 0.57707 0.28069 0.0
C47 C 0.24371 0.58753 0.2794 0.0
C48 C 0.29473 0.63965 0.20004 0.0
H49 H 0.18684 0.63359 0.23798 0.0
C50 C 0.13065 0.75022 0.16612 0.0
O51 O 0.09697 0.68346 0.01862 0.0
O52 O 0.12018 0.59449 0.07341 0.0
N53 N 0.29481 0.7148 0.12685 0.0
C54 C 0.31395 0.73506 0.0824 0.0
C55 C 0.36101 0.72468 0.07568 0.0
C56 C 0.38744 0.68913 0.11371 0.0
C57 C 0.36602 0.66107 0.15706 0.0
C58 C 0.31896 0.67306 0.16129 0.0
H59 H 0.29353 0.75982 0.05255 0.0
O60 O 0.19561 0.64368 0.01765 0.0
O61 O 0.20784 0.66097 0.09848 0.0
O62 O 0.18739 0.81146 0.04173 0.0
O63 O 0.22595 0.83078 0.11249 0.0
C64 C 0.38933 0.62122 0.19606 0.0
C65 C 0.36502 0.59303 0.23797 0.0
H66 H 0.30709 0.54966 0.31312 0.0
H67 H 0.22327 0.56855 0.31081 0.0
H68 H 0.37674 0.74474 0.04142 0.0
H69 H 0.42385 0.6818 0.10876 0.0
H70 H 0.42591 0.61251 0.19436 0.0
H71 H 0.38328 0.56439 0.26845 0.0
Mn72 Mn 0.39663 0.18123 0.45476 0.0
Mn73 Mn 0.30613 0.22682 0.37939 0.0
C74 C 0.32866 0.11471 0.4641 0.0
C75 C 0.45976 0.09215 0.47217 0.0
C76 C 0.33346 0.33192 0.46811 0.0
O77 O 0.42788 0.23189 0.39511 0.0
O78 O 0.36552 0.25929 0.34786 0.0
C79 C 0.31666 0.14255 0.28223 0.0
N80 N 0.29321 0.15203 0.32563 0.0
C81 C 0.22657 0.08895 0.2887 0.0
C82 C 0.25002 0.08046 0.24371 0.0
C83 C 0.29554 0.10585 0.24073 0.0
C84 C 0.24891 0.12848 0.32831 0.0
H85 H 0.35014 0.16743 0.2781 0.0
C86 C 0.40901 0.25383 0.35435 0.0
O87 O 0.45595 0.1638 0.4934 0.0
O88 O 0.42854 0.07476 0.43989 0.0
N89 N 0.24852 0.19252 0.40573 0.0
C90 C 0.23006 0.20788 0.45132 0.0
C91 C 0.18608 0.17916 0.46225 0.0
C92 C 0.16138 0.13526 0.42597 0.0
C93 C 0.18138 0.11907 0.37954 0.0
C94 C 0.2258 0.14753 0.3714 0.0
H95 H 0.24939 0.23976 0.47938 0.0
O96 O 0.35684 0.12314 0.50117 0.0
O97 O 0.33981 0.149 0.42206 0.0
O98 O 0.37034 0.29466 0.48124 0.0
O99 O 0.31053 0.31107 0.43018 0.0
C100 C 0.15916 0.07544 0.34108 0.0
C101 C 0.18137 0.062 0.29525 0.0
H102 H 0.23342 0.05423 0.21119 0.0
H103 H 0.31389 0.09866 0.2061 0.0
H104 H 0.17129 0.19085 0.49852 0.0
H105 H 0.12734 0.11361 0.43436 0.0
H106 H 0.12482 0.05305 0.34606 0.0
H107 H 0.16351 0.03047 0.26537 0.0
Mn108 Mn 0.15078 0.75127 0.45264 0.0
Mn109 Mn 0.23419 0.72939 0.36658 0.0
C110 C 0.21574 0.82836 0.45942 0.0
C111 C 0.08667 0.83846 0.47399 0.0
C112 C 0.22168 0.61016 0.45252 0.0
O113 O 0.11659 0.69685 0.3951 0.0
O114 O 0.17384 0.69468 0.33902 0.0
C115 C 0.2105 0.83119 0.27928 0.0
N116 N 0.23982 0.81285 0.31704 0.0
C117 C 0.30124 0.88318 0.27554 0.0
C118 C 0.27212 0.89898 0.23529 0.0
C119 C 0.2262 0.87522 0.23787 0.0
C120 C 0.28405 0.83682 0.31503 0.0
H121 H 0.176 0.80949 0.27979 0.0
C122 C 0.13175 0.6859 0.35102 0.0
O123 O 0.0931 0.76841 0.496 0.0
O124 O 0.11516 0.85387 0.43933 0.0
N125 N 0.29285 0.76604 0.38928 0.0
C126 C 0.31455 0.75235 0.43348 0.0
C127 C 0.35868 0.78347 0.44107 0.0
C128 C 0.37975 0.82922 0.40336 0.0
C129 C 0.35594 0.84578 0.35911 0.0
C130 C 0.31172 0.81436 0.35422 0.0
H131 H 0.29777 0.71972 0.46316 0.0
O132 O 0.19051 0.8134 0.49771 0.0
O133 O 0.20278 0.79648 0.41698 0.0
O134 O 0.18656 0.64203 0.47453 0.0
O135 O 0.23646 0.63781 0.41169 0.0
C136 C 0.3737 0.89421 0.32033 0.0
C137 C 0.34667 0.91133 0.27798 0.0
H138 H 0.28436 0.93122 0.20272 0.0
H139 H 0.20312 0.88991 0.20764 0.0
H140 H 0.37627 0.77268 0.47599 0.0
H141 H 0.41363 0.85328 0.40947 0.0
H142 H 0.40799 0.91874 0.32277 0.0
H143 H 0.36075 0.94795 0.24812 0.0
Mn144 Mn 0.65548 0.70665 0.95895 0.0
Mn145 Mn 0.74894 0.75304 0.88857 0.0
C146 C 0.72461 0.64861 0.97586 0.0
C147 C 0.59451 0.61377 0.97603 0.0
C148 C 0.71231 0.8649 0.96879 0.0
O149 O 0.62692 0.74467 0.89409 0.0
O150 O 0.69104 0.77584 0.85084 0.0
C151 C 0.74912 0.66222 0.7933 0.0
N152 N 0.76747 0.67377 0.83959 0.0
C153 C 0.83668 0.60495 0.81456 0.0
C154 C 0.81774 0.59083 0.76735 0.0
C155 C 0.77394 0.62046 0.7565 0.0
C156 C 0.81102 0.65017 0.84904 0.0
H157 H 0.71702 0.68906 0.78329 0.0
C158 C 0.64759 0.76472 0.85409 0.0
O159 O 0.59411 0.68896 0.99263 0.0
O160 O 0.62864 0.59453 0.94818 0.0
N161 N 0.80512 0.72724 0.92188 0.0
C162 C 0.82061 0.75326 0.96728 0.0
C163 C 0.86369 0.72788 0.98423 0.0
C164 C 0.8907 0.67683 0.95412 0.0
C165 C 0.87407 0.6508 0.90759 0.0
C166 C 0.83032 0.67631 0.89327 0.0
H167 H 0.80002 0.79225 0.9907 0.0
O168 O 0.69488 0.65896 0.01114 0.0
O169 O 0.71454 0.67851 0.93226 0.0
O170 O 0.67569 0.82622 0.98073 0.0
O171 O 0.73846 0.84125 0.93445 0.0
C172 C 0.89933 0.60111 0.87469 0.0
C173 C 0.88097 0.57948 0.82779 0.0
H174 H 0.83682 0.55852 0.73885 0.0
H175 H 0.75955 0.61191 0.71961 0.0
H176 H 0.87615 0.74799 0.02032 0.0
H177 H 0.92415 0.65807 0.96704 0.0
H178 H 0.93337 0.58102 0.88452 0.0
H179 H 0.90143 0.54418 0.80189 0.0
Mn180 Mn 0.8943 0.27855 0.95231 0.0
Mn181 Mn 0.80403 0.26285 0.87644 0.0
C182 C 0.83131 0.3559 0.96944 0.0
C183 C 0.96172 0.35738 0.97069 0.0
C184 C 0.82844 0.13508 0.94726 0.0
O185 O 0.91972 0.23221 0.88593 0.0
O186 O 0.85943 0.26056 0.83531 0.0
C187 C 0.79447 0.37986 0.79474 0.0
N188 N 0.77915 0.35248 0.83968 0.0
C189 C 0.70537 0.41323 0.82487 0.0
C190 C 0.72103 0.44377 0.77936 0.0
C191 C 0.76533 0.42484 0.76362 0.0
C192 C 0.73515 0.36447 0.85303 0.0
H193 H 0.82788 0.36376 0.78128 0.0
C194 C 0.902 0.24632 0.84276 0.0
O195 O 0.95586 0.28416 0.98887 0.0
O196 O 0.93086 0.38062 0.93986 0.0
N197 N 0.75014 0.27384 0.9178 0.0
C198 C 0.74197 0.24959 0.96571 0.0
C199 C 0.69888 0.26215 0.98692 0.0
C200 C 0.66537 0.30463 0.96016 0.0
C201 C 0.67645 0.33922 0.91407 0.0
C202 C 0.72013 0.3243 0.8949 0.0
H203 H 0.7681 0.2225 0.98839 0.0
O204 O 0.86017 0.33856 1.0045 0.0
O205 O 0.8397 0.32589 0.92542 0.0
O206 O 0.85879 0.16956 0.97511 0.0
O207 O 0.82487 0.15844 0.90305 0.0
C208 C 0.64631 0.38963 0.88703 0.0
C209 C 0.66058 0.42571 0.84207 0.0
H210 H 0.6989 0.47951 0.75545 0.0
H211 H 0.77689 0.44417 0.72722 0.0
H212 H 0.69174 0.24003 0.0241 0.0
H213 H 0.63198 0.31321 0.97635 0.0
H214 H 0.61206 0.40091 0.90036 0.0
H215 H 0.63678 0.4627 0.82091 0.0
Mn216 Mn 0.66092 0.76511 0.55457 0.0
Mn217 Mn 0.7522 0.75041 0.63239 0.0
C218 C 0.72273 0.84752 0.54337 0.0
C219 C 0.59333 0.84209 0.5351 0.0
C220 C 0.73519 0.63037 0.54744 0.0
O221 O 0.63321 0.71083 0.61561 0.0
O222 O 0.69612 0.70676 0.66489 0.0
C223 C 0.73293 0.84469 0.72431 0.0
N224 N 0.75847 0.83383 0.68248 0.0
C225 C 0.81925 0.916 0.71736 0.0
C226 C 0.794 0.92534 0.7612 0.0
C227 C 0.75023 0.89109 0.7643 0.0
C228 C 0.80088 0.86658 0.6795 0.0
H229 H 0.7007 0.8146 0.72833 0.0
C230 C 0.653 0.69838 0.65747 0.0
O231 O 0.60097 0.77057 0.51497 0.0
O232 O 0.62256 0.86446 0.56821 0.0
N233 N 0.8069 0.79536 0.60464 0.0
C234 C 0.826 0.78224 0.55903 0.0
C235 C 0.86749 0.82036 0.54723 0.0
C236 C 0.88881 0.87181 0.58238 0.0
C237 C 0.86776 0.88658 0.62841 0.0
C238 C 0.8259 0.84822 0.63754 0.0
H239 H 0.80891 0.74505 0.53131 0.0
O240 O 0.69591 0.8296 0.50647 0.0
O241 O 0.71387 0.81413 0.58633 0.0
O242 O 0.69683 0.65794 0.53048 0.0
O243 O 0.75413 0.6606 0.58569 0.0
C244 C 0.88614 0.93908 0.66518 0.0
C245 C 0.86236 0.95225 0.71017 0.0
H246 H 0.80781 0.95907 0.79271 0.0
H247 H 0.73035 0.89891 0.7979 0.0
H248 H 0.88289 0.81042 0.51108 0.0
H249 H 0.9208 0.90092 0.5732 0.0
H250 H 0.91861 0.96911 0.6593 0.0
H251 H 0.87719 0.99128 0.73872 0.0
Mn252 Mn 0.90162 0.19947 0.55053 0.0
Mn253 Mn 0.81022 0.25193 0.62155 0.0
C254 C 0.83326 0.1356 0.53942 0.0
C255 C 0.96342 0.10684 0.53511 0.0
C256 C 0.83814 0.34813 0.53094 0.0
O257 O 0.93225 0.25268 0.61014 0.0
O258 O 0.86878 0.29424 0.65086 0.0
C259 C 0.82797 0.17133 0.71854 0.0
N260 N 0.80089 0.18175 0.67772 0.0
C261 C 0.73803 0.11485 0.71858 0.0
C262 C 0.76508 0.10554 0.76121 0.0
C263 C 0.81047 0.13253 0.76093 0.0
C264 C 0.75697 0.1558 0.67787 0.0
H265 H 0.86219 0.19419 0.71932 0.0
C266 C 0.91235 0.28576 0.64735 0.0
O267 O 0.96098 0.17821 0.5136 0.0
O268 O 0.93209 0.09227 0.56744 0.0
N269 N 0.75236 0.21176 0.59858 0.0
C270 C 0.73157 0.22231 0.55361 0.0
C271 C 0.68743 0.19126 0.54577 0.0
C272 C 0.665 0.14992 0.58445 0.0
C273 C 0.68735 0.13869 0.63023 0.0
C274 C 0.73158 0.17015 0.63551 0.0
H275 H 0.74919 0.25213 0.52375 0.0
O276 O 0.8623 0.14105 0.50327 0.0
O277 O 0.84406 0.17077 0.58162 0.0
O278 O 0.87667 0.31254 0.52244 0.0
O279 O 0.81259 0.32879 0.56692 0.0
C280 C 0.66783 0.0963 0.67053 0.0
C281 C 0.69298 0.08528 0.71497 0.0
H282 H 0.75177 0.07547 0.79387 0.0
H283 H 0.83186 0.12328 0.79336 0.0
H284 H 0.6708 0.19904 0.51 0.0
H285 H 0.63093 0.12602 0.57834 0.0
H286 H 0.63354 0.07204 0.66768 0.0
H287 H 0.67761 0.05311 0.74593 0.0
C288 C 0.32619 0.98086 0.06208 0.0
C289 C 0.31696 0.04401 0.02854 0.0
C290 C 0.29311 0.92252 0.07399 0.0
C291 C 0.25047 0.91541 0.04874 0.0
H292 H 0.35625 0.98443 0.08573 0.0
H293 H 0.30093 0.88529 0.10608 0.0
S294 S 0.21195 0.05895 0.95058 0.0
N295 N 0.26257 0.09481 0.96729 0.0
N296 N 0.2033 0.97526 0.98393 0.0
C297 C 0.24268 0.97272 0.01058 0.0
C298 C 0.27536 0.03784 1.00132 0.0
C299 C 0.29948 0.54489 0.45625 0.0
C300 C 0.25363 0.54545 0.47387 0.0
C301 C 0.33013 0.48075 0.46526 0.0
C302 C 0.31664 0.41025 0.49055 0.0
H303 H 0.31164 0.59129 0.43106 0.0
H304 H 0.36245 0.48139 0.44569 0.0
S305 S 0.20536 0.38467 0.5553 0.0
N306 N 0.19985 0.47367 0.52653 0.0
N307 N 0.25731 0.35123 0.5426 0.0
C308 C 0.27307 0.41311 0.51371 0.0
C309 C 0.2416 0.48027 0.50527 0.0
C310 C 0.76497 0.95824 0.01485 0.0
C311 C 0.72467 0.94872 0.98578 0.0
C312 C 0.79775 0.0205 1.00487 0.0
C313 C 0.79275 0.07276 0.9635 0.0
H314 H 0.77343 0.91214 0.04233 0.0
H315 H 0.82856 0.02335 0.02718 0.0
S316 S 0.69035 0.07664 0.8791 0.0
N317 N 0.67821 0.00596 0.92061 0.0
N318 N 0.74159 0.10993 0.89448 0.0
C319 C 0.75104 0.06538 0.93602 0.0
C320 C 0.71626 0.00844 0.94987 0.0
C321 C 0.81188 0.56495 0.53438 0.0
C322 C 0.76431 0.56486 0.5232 0.0
C323 C 0.84017 0.49721 0.52547 0.0
C324 C 0.82247 0.42444 0.50582 0.0
H325 H 0.82732 0.61489 0.55489 0.0
H326 H 0.87431 0.49799 0.54115 0.0
S327 S 0.70537 0.39885 0.45399 0.0
N328 N 0.70417 0.491 0.47996 0.0
N329 N 0.7578 0.36383 0.46203 0.0
C330 C 0.77726 0.4278 0.48665 0.0
C331 C 0.74798 0.49733 0.49601 0.0
C332 C 0.43715 0.14541 0.23785 0.0
C333 C 0.43777 0.21054 0.20385 0.0
C334 C 0.43785 0.16082 0.28949 0.0
C335 C 0.43546 0.24181 0.30813 0.0
H336 H 0.43035 0.08358 0.22483 0.0
H337 H 0.43196 0.10957 0.31431 0.0
S338 S 0.44939 0.43121 0.23469 0.0
N339 N 0.44933 0.35687 0.19263 0.0
N340 N 0.44406 0.38607 0.28944 0.0
C341 C 0.44314 0.30619 0.27495 0.0
C342 C 0.44604 0.29012 0.22259 0.0
C343 C 0.09965 0.62931 0.27244 0.0
C344 C 0.09955 0.69165 0.30868 0.0
C345 C 0.09712 0.64894 0.22147 0.0
C346 C 0.09773 0.73153 0.2059 0.0
H347 H 0.10879 0.56728 0.28281 0.0
H348 H 0.10435 0.60058 0.19474 0.0
S349 S 0.07981 0.91268 0.28633 0.0
N350 N 0.08367 0.83522 0.32566 0.0
N351 N 0.0843 0.87248 0.22993 0.0
C352 C 0.08791 0.79174 0.24149 0.0
C353 C 0.08763 0.77133 0.29327 0.0
C354 C 0.62833 0.66169 0.79041 0.0
C355 C 0.62482 0.74387 0.80656 0.0
C356 C 0.63001 0.64211 0.73938 0.0
C357 C 0.62543 0.7036 0.70331 0.0
H358 H 0.63716 0.6143 0.81696 0.0
H359 H 0.64049 0.581 0.72837 0.0
S360 S 0.60047 0.92308 0.72711 0.0
N361 N 0.60774 0.88378 0.78328 0.0
N362 N 0.60555 0.84585 0.6874 0.0
C363 C 0.61247 0.78268 0.71944 0.0
C364 C 0.61374 0.80352 0.7713 0.0
C365 C 0.92762 0.35648 0.72739 0.0
C366 C 0.93745 0.29083 0.6952 0.0
C367 C 0.92545 0.34433 0.77902 0.0
C368 C 0.93113 0.26561 0.79966 0.0
H369 H 0.91536 0.41405 0.71238 0.0
H370 H 0.91214 0.39368 0.80192 0.0
S371 S 0.97143 0.08089 0.73296 0.0
N372 N 0.96565 0.15075 0.68891 0.0
N373 N 0.95766 0.12682 0.78587 0.0
C374 C 0.94876 0.20366 0.76913 0.0
C375 C 0.95307 0.21692 0.71661 0.0
C376 C 0.54185 0.4054 0.00896 0.0
C377 C 0.49567 0.42393 0.0174 0.0
C378 C 0.57335 0.4674 0.99585 0.0
C379 C 0.56001 0.55016 0.99016 0.0
H380 H 0.55392 0.34317 0.01378 0.0
H381 H 0.60879 0.45088 0.99108 0.0
S382 S 0.44197 0.62811 1.00016 0.0
N383 N 0.43753 0.53002 0.01438 0.0
N384 N 0.49656 0.64501 0.98947 0.0
C385 C 0.51378 0.56878 0.99702 0.0
C386 C 0.48176 0.50608 0.01054 0.0
C387 C 0.037 0.55021 0.97473 0.0
C388 C 0.05685 0.54844 0.02259 0.0
C389 C 1.00792 0.48656 0.95782 0.0
C390 C 0.99745 0.41771 0.98772 0.0
H391 H 0.04443 0.60054 0.9498 0.0
H392 H 0.99335 0.4915 0.92078 0.0
S393 S 0.03698 0.38662 0.11776 0.0
N394 N 0.06118 0.47367 0.10093 0.0
N395 N 1.00758 0.35476 0.06874 0.0
C396 C 1.01672 0.41556 0.03574 0.0
C397 C 0.04595 0.48061 0.05321 0.0
C398 C 0.54692 0.97038 0.54909 0.0
C399 C 0.557 0.90148 0.51877 0.0
C400 C 0.51665 0.03258 0.53344 0.0
C401 C 0.49498 0.02928 0.48656 0.0
H402 H 0.5628 0.97679 0.58546 0.0
H403 H 0.50975 0.08309 0.55868 0.0
S404 S 0.51296 0.86717 0.39049 0.0
N405 N 0.54459 0.83706 0.43811 0.0
N406 N 0.48833 0.95345 0.40845 0.0
C407 C 0.50533 0.96152 0.45544 0.0
C408 C 0.53602 0.89791 0.47154 0.0
C409 C 1.00658 0.97471 0.55242 0.0
C410 C 0.99625 0.04045 0.51995 0.0
C411 C 0.03416 0.90771 0.53728 0.0
C412 C 0.05258 0.90333 0.48886 0.0
H413 H 0.99335 0.97515 0.5901 0.0
H414 H 0.04189 0.8601 0.56405 0.0
S415 S 0.03237 0.05573 0.38802 0.0
N416 N 1.00476 0.09379 0.43633 0.0
N417 N 0.05589 0.96974 0.40773 0.0
C418 C 0.04169 0.9682 0.45591 0.0
C419 C 1.01393 0.03616 0.47144 0.0
C420 C 0.27043 0.52734 0.09459 0.0
C421 C 0.25631 0.5678 0.05157 0.0
C422 C 0.29756 0.45828 0.09178 0.0
C423 C 0.30544 0.41904 0.04609 0.0
H424 H 0.25889 0.54623 0.13069 0.0
H425 H 0.31187 0.43526 0.12599 0.0
S426 S 0.27784 0.50125 0.92098 0.0
N427 N 0.25719 0.5696 0.96049 0.0
N428 N 0.30052 0.42843 0.95571 0.0
C429 C 0.29195 0.45848 1.00211 0.0
C430 C 0.26843 0.53454 1.0048 0.0
C431 C 0.2846 0.00895 0.4197 0.0
C432 C 0.29722 0.04553 0.46492 0.0
C433 C 0.25608 0.94159 0.41857 0.0
C434 C 0.24618 0.89888 0.46214 0.0
H435 H 0.29726 0.03141 0.38473 0.0
H436 H 0.24171 0.92339 0.3833 0.0
S437 S 0.27531 0.96337 0.59135 0.0
N438 N 0.29676 0.03581 0.55555 0.0
N439 N 0.25172 0.89618 0.55291 0.0
C440 C 0.26065 0.93164 0.50818 0.0
C441 C 0.28512 0.00677 0.50962 0.0
C442 C 0.7652 0.53928 0.93295 0.0
C443 C 0.75437 0.57727 0.97811 0.0
C444 C 0.79286 0.47172 0.93147 0.0
C445 C 0.80284 0.42826 0.97466 0.0
H446 H 0.75197 0.56078 0.89793 0.0
H447 H 0.80694 0.45476 0.89595 0.0
S448 S 0.77769 0.49438 0.10413 0.0
N449 N 0.75614 0.56768 0.06876 0.0
N450 N 0.79984 0.42605 0.06547 0.0
C451 C 0.79018 0.46174 0.02099 0.0
C452 C 0.76659 0.53809 0.02277 0.0
C453 C 0.75901 0.96566 0.58371 0.0
C454 C 0.75022 0.92143 0.54009 0.0
C455 C 0.78733 0.03313 0.58299 0.0
C456 C 0.80069 0.06827 0.53795 0.0
H457 H 0.74492 0.94714 0.61898 0.0
H458 H 0.79978 0.05607 0.61818 0.0
S459 S 0.77901 0.98438 0.41127 0.0
N460 N 0.75535 0.91761 0.44944 0.0
N461 N 0.80035 0.05748 0.44725 0.0
C462 C 0.78853 0.02913 0.49304 0.0
C463 C 0.76414 0.95393 0.49419 0.0
loop_
_geom_bond_atom_site_label_1
_geom_bond_atom_site_label_2
_geom_bond_distance
_geom_bond_site_symmetry_2
_ccdc_geom_bond_type
Mn0 O5 2.095 . S
Mn0 O15 2.162 1_554 S
Mn0 O16 2.297 . S
Mn0 O24 2.385 1_554 S
Mn0 O25 2.209 . S
Mn0 O26 2.094 . S
Mn1 O6 2.121 . S
Mn1 N8 2.257 . S
Mn1 N17 2.282 . S
Mn1 O25 2.215 . S
Mn1 O27 2.117 . S
C2 O24 1.234 1_554 S
C2 O25 1.283 . S
C3 O15 1.281 1_554 S
C3 O16 1.236 . S
C4 O26 1.240 . S
C4 O27 1.264 . S
O5 Mn0 2.095 . S
O5 C14 1.250 . S
O6 Mn1 2.121 . S
O6 C14 1.258 . S
C7 N8 1.326 . S
C7 C11 1.460 . S
C7 H13 0.929 . S
N8 Mn1 2.257 . S
N8 C7 1.326 . S
N8 C12 1.362 . S
C9 C10 1.258 . S
C9 C12 1.431 . S
C9 C29 1.449 . S
C10 C9 1.258 . S
C10 C11 1.477 . S
C10 H30 0.931 . S
C11 C7 1.460 . S
C11 C10 1.477 . S
C11 H31 0.930 . S
C12 N8 1.362 . S
C12 C9 1.431 . S
C12 C22 1.476 . S
H13 C7 0.929 . S
C14 O5 1.250 . S
C14 O6 1.258 . S
O15 Mn0 2.162 1_556 S
O15 C3 1.281 1_556 S
O16 Mn0 2.297 . S
O16 C3 1.236 . S
N17 Mn1 2.282 . S
N17 C18 1.328 . S
N17 C22 1.318 . S
C18 N17 1.328 . S
C18 C19 1.457 1_554 S
C18 H23 0.929 . S
C19 C18 1.457 1_556 S
C19 C20 1.291 1_556 S
C19 H32 0.931 . S
C20 C19 1.291 1_554 S
C20 C21 1.373 . S
C20 H33 0.929 1_554 S
C21 C20 1.373 . S
C21 C22 1.396 . S
C21 C28 1.403 . S
C22 C12 1.476 . S
C22 N17 1.318 . S
C22 C21 1.396 . S
H23 C18 0.929 . S
O24 Mn0 2.385 1_556 S
O24 C2 1.234 1_556 S
O25 Mn0 2.209 . S
O25 Mn1 2.215 . S
O25 C2 1.283 . S
O26 Mn0 2.094 . S
O26 C4 1.240 . S
O27 Mn1 2.117 . S
O27 C4 1.264 . S
C28 C21 1.403 . S
C28 C29 1.399 . S
C28 H34 0.929 . S
C29 C9 1.449 . S
C29 C28 1.399 . S
C29 H35 0.930 . S
H30 C10 0.931 . S
H31 C11 0.930 . S
H32 C19 0.931 . S
H33 C20 0.929 1_556 S
H34 C28 0.929 . S
H35 C29 0.930 . S
Mn36 O41 2.095 . S
Mn36 O51 2.162 1_554 S
Mn36 O52 2.297 . S
Mn36 O60 2.385 1_554 S
Mn36 O61 2.209 . S
Mn36 O62 2.094 . S
Mn37 O42 2.121 . S
Mn37 N44 2.257 . S
Mn37 N53 2.282 . S
Mn37 O61 2.215 . S
Mn37 O63 2.117 . S
C38 O60 1.234 1_554 S
C38 O61 1.283 . S
C39 O51 1.281 1_554 S
C39 O52 1.236 . S
C40 O62 1.240 . S
C40 O63 1.264 . S
O41 Mn36 2.095 . S
O41 C50 1.250 . S
O42 Mn37 2.121 . S
O42 C50 1.258 . S
C43 N44 1.326 . S
C43 C47 1.460 . S
C43 H49 0.929 . S
N44 Mn37 2.257 . S
N44 C43 1.326 . S
N44 C48 1.362 . S
C45 C46 1.258 . S
C45 C48 1.431 . S
C45 C65 1.449 . S
C46 C45 1.258 . S
C46 C47 1.477 . S
C46 H66 0.931 . S
C47 C43 1.460 . S
C47 C46 1.477 . S
C47 H67 0.930 . S
C48 N44 1.362 . S
C48 C45 1.431 . S
C48 C58 1.476 . S
H49 C43 0.929 . S
C50 O41 1.250 . S
C50 O42 1.258 . S
O51 Mn36 2.162 1_556 S
O51 C39 1.281 1_556 S
O52 Mn36 2.297 . S
O52 C39 1.236 . S
N53 Mn37 2.282 . S
N53 C54 1.328 . S
N53 C58 1.318 . S
C54 N53 1.328 . S
C54 C55 1.457 1_554 S
C54 H59 0.929 . S
C55 C54 1.457 1_556 S
C55 C56 1.291 1_556 S
C55 H68 0.931 . S
C56 C55 1.291 1_554 S
C56 C57 1.373 . S
C56 H69 0.929 1_554 S
C57 C56 1.373 . S
C57 C58 1.396 . S
C57 C64 1.403 . S
C58 C48 1.476 . S
C58 N53 1.318 . S
C58 C57 1.396 . S
H59 C54 0.929 . S
O60 Mn36 2.385 1_556 S
O60 C38 1.234 1_556 S
O61 Mn36 2.209 . S
O61 Mn37 2.215 . S
O61 C38 1.283 . S
O62 Mn36 2.094 . S
O62 C40 1.240 . S
O63 Mn37 2.117 . S
O63 C40 1.264 . S
C64 C57 1.403 . S
C64 C65 1.399 . S
C64 H70 0.929 . S
C65 C45 1.449 . S
C65 C64 1.399 . S
C65 H71 0.930 . S
H66 C46 0.931 . S
H67 C47 0.930 . S
H68 C55 0.931 . S
H69 C56 0.929 1_556 S
H70 C64 0.929 . S
H71 C65 0.930 . S
Mn72 O77 2.095 . S
Mn72 O87 2.162 . S
Mn72 O88 2.297 . S
Mn72 O96 2.385 . S
Mn72 O97 2.209 . S
Mn72 O98 2.094 . S
Mn73 O78 2.121 . S
Mn73 N80 2.257 . S
Mn73 N89 2.282 . S
Mn73 O97 2.215 . S
Mn73 O99 2.117 . S
C74 O96 1.234 . S
C74 O97 1.283 . S
C75 O87 1.281 . S
C75 O88 1.236 . S
C76 O98 1.240 . S
C76 O99 1.264 . S
O77 Mn72 2.095 . S
O77 C86 1.250 . S
O78 Mn73 2.121 . S
O78 C86 1.258 . S
C79 N80 1.326 . S
C79 C83 1.460 . S
C79 H85 0.929 . S
N80 Mn73 2.257 . S
N80 C79 1.326 . S
N80 C84 1.362 . S
C81 C82 1.258 . S
C81 C84 1.431 . S
C81 C101 1.449 . S
C82 C81 1.258 . S
C82 C83 1.477 . S
C82 H102 0.931 1_545 S
C83 C79 1.460 . S
C83 C82 1.477 . S
C83 H103 0.930 . S
C84 N80 1.362 . S
C84 C81 1.431 . S
C84 C94 1.476 . S
H85 C79 0.929 . S
C86 O77 1.250 . S
C86 O78 1.258 . S
O87 Mn72 2.162 . S
O87 C75 1.281 . S
O88 Mn72 2.297 . S
O88 C75 1.236 . S
N89 Mn73 2.282 . S
N89 C90 1.328 . S
N89 C94 1.318 . S
C90 N89 1.328 . S
C90 C91 1.457 . S
C90 H95 0.929 . S
C91 C90 1.457 . S
C91 C92 1.291 . S
C91 H104 0.931 . S
C92 C91 1.291 . S
C92 C93 1.373 . S
C92 H105 0.929 . S
C93 C92 1.373 . S
C93 C94 1.396 . S
C93 C100 1.403 . S
C94 C84 1.476 . S
C94 N89 1.318 . S
C94 C93 1.396 . S
H95 C90 0.929 . S
O96 Mn72 2.385 . S
O96 C74 1.234 . S
O97 Mn72 2.209 . S
O97 Mn73 2.215 . S
O97 C74 1.283 . S
O98 Mn72 2.094 . S
O98 C76 1.240 . S
O99 Mn73 2.117 . S
O99 C76 1.264 . S
C100 C93 1.403 . S
C100 C101 1.399 . S
C100 H106 0.929 . S
C101 C81 1.449 . S
C101 C100 1.399 . S
C101 H107 0.930 1_545 S
H102 C82 0.931 1_565 S
H103 C83 0.930 . S
H104 C91 0.931 . S
H105 C92 0.929 . S
H106 C100 0.929 . S
H107 C101 0.930 1_565 S
Mn108 O113 2.095 . S
Mn108 O123 2.162 . S
Mn108 O124 2.297 . S
Mn108 O132 2.385 . S
Mn108 O133 2.209 . S
Mn108 O134 2.094 . S
Mn109 O114 2.121 . S
Mn109 N116 2.257 . S
Mn109 N125 2.282 . S
Mn109 O133 2.215 . S
Mn109 O135 2.117 . S
C110 O132 1.234 . S
C110 O133 1.283 . S
C111 O123 1.281 . S
C111 O124 1.236 . S
C112 O134 1.240 . S
C112 O135 1.264 . S
O113 Mn108 2.095 . S
O113 C122 1.250 . S
O114 Mn109 2.121 . S
O114 C122 1.258 . S
C115 N116 1.326 . S
C115 C119 1.460 . S
C115 H121 0.929 . S
N116 Mn109 2.257 . S
N116 C115 1.326 . S
N116 C120 1.362 . S
C117 C118 1.258 . S
C117 C120 1.431 . S
C117 C137 1.449 . S
C118 C117 1.258 . S
C118 C119 1.477 . S
C118 H138 0.931 1_565 S
C119 C115 1.460 . S
C119 C118 1.477 . S
C119 H139 0.930 . S
C120 N116 1.362 . S
C120 C117 1.431 . S
C120 C130 1.476 . S
H121 C115 0.929 . S
C122 O113 1.250 . S
C122 O114 1.258 . S
O123 Mn108 2.162 . S
O123 C111 1.281 . S
O124 Mn108 2.297 . S
O124 C111 1.236 . S
N125 Mn109 2.282 . S
N125 C126 1.328 . S
N125 C130 1.318 . S
C126 N125 1.328 . S
C126 C127 1.457 . S
C126 H131 0.929 . S
C127 C126 1.457 . S
C127 C128 1.291 . S
C127 H140 0.931 . S
C128 C127 1.291 . S
C128 C129 1.373 . S
C128 H141 0.929 . S
C129 C128 1.373 . S
C129 C130 1.396 . S
C129 C136 1.403 . S
C130 C120 1.476 . S
C130 N125 1.318 . S
C130 C129 1.396 . S
H131 C126 0.929 . S
O132 Mn108 2.385 . S
O132 C110 1.234 . S
O133 Mn108 2.209 . S
O133 Mn109 2.215 . S
O133 C110 1.283 . S
O134 Mn108 2.094 . S
O134 C112 1.240 . S
O135 Mn109 2.117 . S
O135 C112 1.264 . S
C136 C129 1.403 . S
C136 C137 1.399 . S
C136 H142 0.929 . S
C137 C117 1.449 . S
C137 C136 1.399 . S
C137 H143 0.930 1_565 S
H138 C118 0.931 1_545 S
H139 C119 0.930 . S
H140 C127 0.931 . S
H141 C128 0.929 . S
H142 C136 0.929 . S
H143 C137 0.930 1_545 S
Mn144 O149 2.095 . S
Mn144 O159 2.162 1_556 S
Mn144 O160 2.297 . S
Mn144 O168 2.385 1_556 S
Mn144 O169 2.209 . S
Mn144 O170 2.094 . S
Mn145 O150 2.121 . S
Mn145 N152 2.257 . S
Mn145 N161 2.282 . S
Mn145 O169 2.215 . S
Mn145 O171 2.117 . S
C146 O168 1.234 1_556 S
C146 O169 1.283 . S
C147 O159 1.281 1_556 S
C147 O160 1.236 . S
C148 O170 1.240 . S
C148 O171 1.264 . S
O149 Mn144 2.095 . S
O149 C158 1.250 . S
O150 Mn145 2.121 . S
O150 C158 1.258 . S
C151 N152 1.326 . S
C151 C155 1.460 . S
C151 H157 0.929 . S
N152 Mn145 2.257 . S
N152 C151 1.326 . S
N152 C156 1.362 . S
C153 C154 1.258 . S
C153 C156 1.431 . S
C153 C173 1.449 . S
C154 C153 1.258 . S
C154 C155 1.477 . S
C154 H174 0.931 . S
C155 C151 1.460 . S
C155 C154 1.477 . S
C155 H175 0.930 . S
C156 N152 1.362 . S
C156 C153 1.431 . S
C156 C166 1.476 . S
H157 C151 0.929 . S
C158 O149 1.250 . S
C158 O150 1.258 . S
O159 Mn144 2.162 1_554 S
O159 C147 1.281 1_554 S
O160 Mn144 2.297 . S
O160 C147 1.236 . S
N161 Mn145 2.282 . S
N161 C162 1.328 . S
N161 C166 1.318 . S
C162 N161 1.328 . S
C162 C163 1.457 1_556 S
C162 H167 0.929 . S
C163 C162 1.457 1_554 S
C163 C164 1.291 1_554 S
C163 H176 0.931 . S
C164 C163 1.291 1_556 S
C164 C165 1.373 . S
C164 H177 0.929 1_556 S
C165 C164 1.373 . S
C165 C166 1.396 . S
C165 C172 1.403 . S
C166 C156 1.476 . S
C166 N161 1.318 . S
C166 C165 1.396 . S
H167 C162 0.929 . S
O168 Mn144 2.385 1_554 S
O168 C146 1.234 1_554 S
O169 Mn144 2.209 . S
O169 Mn145 2.215 . S
O169 C146 1.283 . S
O170 Mn144 2.094 . S
O170 C148 1.240 . S
O171 Mn145 2.117 . S
O171 C148 1.264 . S
C172 C165 1.403 . S
C172 C173 1.399 . S
C172 H178 0.929 . S
C173 C153 1.449 . S
C173 C172 1.399 . S
C173 H179 0.930 . S
H174 C154 0.931 . S
H175 C155 0.930 . S
H176 C163 0.931 . S
H177 C164 0.929 1_554 S
H178 C172 0.929 . S
H179 C173 0.930 . S
Mn180 O185 2.095 . S
Mn180 O195 2.162 1_556 S
Mn180 O196 2.297 . S
Mn180 O204 2.385 1_556 S
Mn180 O205 2.209 . S
Mn180 O206 2.094 . S
Mn181 O186 2.121 . S
Mn181 N188 2.257 . S
Mn181 N197 2.282 . S
Mn181 O205 2.215 . S
Mn181 O207 2.117 . S
C182 O204 1.234 1_556 S
C182 O205 1.283 . S
C183 O195 1.281 1_556 S
C183 O196 1.236 . S
C184 O206 1.240 . S
C184 O207 1.264 . S
O185 Mn180 2.095 . S
O185 C194 1.250 . S
O186 Mn181 2.121 . S
O186 C194 1.258 . S
C187 N188 1.326 . S
C187 C191 1.460 . S
C187 H193 0.929 . S
N188 Mn181 2.257 . S
N188 C187 1.326 . S
N188 C192 1.362 . S
C189 C190 1.258 . S
C189 C192 1.431 . S
C189 C209 1.449 . S
C190 C189 1.258 . S
C190 C191 1.477 . S
C190 H210 0.931 . S
C191 C187 1.460 . S
C191 C190 1.477 . S
C191 H211 0.930 . S
C192 N188 1.362 . S
C192 C189 1.431 . S
C192 C202 1.476 . S
H193 C187 0.929 . S
C194 O185 1.250 . S
C194 O186 1.258 . S
O195 Mn180 2.162 1_554 S
O195 C183 1.281 1_554 S
O196 Mn180 2.297 . S
O196 C183 1.236 . S
N197 Mn181 2.282 . S
N197 C198 1.328 . S
N197 C202 1.318 . S
C198 N197 1.328 . S
C198 C199 1.457 1_556 S
C198 H203 0.929 . S
C199 C198 1.457 1_554 S
C199 C200 1.291 1_554 S
C199 H212 0.931 . S
C200 C199 1.291 1_556 S
C200 C201 1.373 . S
C200 H213 0.929 1_556 S
C201 C200 1.373 . S
C201 C202 1.396 . S
C201 C208 1.403 . S
C202 C192 1.476 . S
C202 N197 1.318 . S
C202 C201 1.396 . S
H203 C198 0.929 . S
O204 Mn180 2.385 1_554 S
O204 C182 1.234 1_554 S
O205 Mn180 2.209 . S
O205 Mn181 2.215 . S
O205 C182 1.283 . S
O206 Mn180 2.094 . S
O206 C184 1.240 . S
O207 Mn181 2.117 . S
O207 C184 1.264 . S
C208 C201 1.403 . S
C208 C209 1.399 . S
C208 H214 0.929 . S
C209 C189 1.449 . S
C209 C208 1.399 . S
C209 H215 0.930 . S
H210 C190 0.931 . S
H211 C191 0.930 . S
H212 C199 0.931 . S
H213 C200 0.929 1_554 S
H214 C208 0.929 . S
H215 C209 0.930 . S
Mn216 O221 2.095 . S
Mn216 O231 2.162 . S
Mn216 O232 2.297 . S
Mn216 O240 2.385 . S
Mn216 O241 2.209 . S
Mn216 O242 2.094 . S
Mn217 O222 2.121 . S
Mn217 N224 2.257 . S
Mn217 N233 2.282 . S
Mn217 O241 2.215 . S
Mn217 O243 2.117 . S
C218 O240 1.234 . S
C218 O241 1.283 . S
C219 O231 1.281 . S
C219 O232 1.236 . S
C220 O242 1.240 . S
C220 O243 1.264 . S
O221 Mn216 2.095 . S
O221 C230 1.250 . S
O222 Mn217 2.121 . S
O222 C230 1.258 . S
C223 N224 1.326 . S
C223 C227 1.460 . S
C223 H229 0.929 . S
N224 Mn217 2.257 . S
N224 C223 1.326 . S
N224 C228 1.362 . S
C225 C226 1.258 . S
C225 C228 1.431 . S
C225 C245 1.449 . S
C226 C225 1.258 . S
C226 C227 1.477 . S
C226 H246 0.931 1_565 S
C227 C223 1.460 . S
C227 C226 1.477 . S
C227 H247 0.930 . S
C228 N224 1.362 . S
C228 C225 1.431 . S
C228 C238 1.476 . S
H229 C223 0.929 . S
C230 O221 1.250 . S
C230 O222 1.258 . S
O231 Mn216 2.162 . S
O231 C219 1.281 . S
O232 Mn216 2.297 . S
O232 C219 1.236 . S
N233 Mn217 2.282 . S
N233 C234 1.328 . S
N233 C238 1.318 . S
C234 N233 1.328 . S
C234 C235 1.457 . S
C234 H239 0.929 . S
C235 C234 1.457 . S
C235 C236 1.291 . S
C235 H248 0.931 . S
C236 C235 1.291 . S
C236 C237 1.373 . S
C236 H249 0.929 . S
C237 C236 1.373 . S
C237 C238 1.396 . S
C237 C244 1.403 . S
C238 C228 1.476 . S
C238 N233 1.318 . S
C238 C237 1.396 . S
H239 C234 0.929 . S
O240 Mn216 2.385 . S
O240 C218 1.234 . S
O241 Mn216 2.209 . S
O241 Mn217 2.215 . S
O241 C218 1.283 . S
O242 Mn216 2.094 . S
O242 C220 1.240 . S
O243 Mn217 2.117 . S
O243 C220 1.264 . S
C244 C237 1.403 . S
C244 C245 1.399 . S
C244 H250 0.929 . S
C245 C225 1.449 . S
C245 C244 1.399 . S
C245 H251 0.930 1_565 S
H246 C226 0.931 1_545 S
H247 C227 0.930 . S
H248 C235 0.931 . S
H249 C236 0.929 . S
H250 C244 0.929 . S
H251 C245 0.930 1_545 S
Mn252 O257 2.095 . S
Mn252 O267 2.162 . S
Mn252 O268 2.297 . S
Mn252 O276 2.385 . S
Mn252 O277 2.209 . S
Mn252 O278 2.094 . S
Mn253 O258 2.121 . S
Mn253 N260 2.257 . S
Mn253 N269 2.282 . S
Mn253 O277 2.215 . S
Mn253 O279 2.117 . S
C254 O276 1.234 . S
C254 O277 1.283 . S
C255 O267 1.281 . S
C255 O268 1.236 . S
C256 O278 1.240 . S
C256 O279 1.264 . S
O257 Mn252 2.095 . S
O257 C266 1.250 . S
O258 Mn253 2.121 . S
O258 C266 1.258 . S
C259 N260 1.326 . S
C259 C263 1.460 . S
C259 H265 0.929 . S
N260 Mn253 2.257 . S
N260 C259 1.326 . S
N260 C264 1.362 . S
C261 C262 1.258 . S
C261 C264 1.431 . S
C261 C281 1.449 . S
C262 C261 1.258 . S
C262 C263 1.477 . S
C262 H282 0.931 1_545 S
C263 C259 1.460 . S
C263 C262 1.477 . S
C263 H283 0.930 . S
C264 N260 1.362 . S
C264 C261 1.431 . S
C264 C274 1.476 . S
H265 C259 0.929 . S
C266 O257 1.250 . S
C266 O258 1.258 . S
O267 Mn252 2.162 . S
O267 C255 1.281 . S
O268 Mn252 2.297 . S
O268 C255 1.236 . S
N269 Mn253 2.282 . S
N269 C270 1.328 . S
N269 C274 1.318 . S
C270 N269 1.328 . S
C270 C271 1.457 . S
C270 H275 0.929 . S
C271 C270 1.457 . S
C271 C272 1.291 . S
C271 H284 0.931 . S
C272 C271 1.291 . S
C272 C273 1.373 . S
C272 H285 0.929 . S
C273 C272 1.373 . S
C273 C274 1.396 . S
C273 C280 1.403 . S
C274 C264 1.476 . S
C274 N269 1.318 . S
C274 C273 1.396 . S
H275 C270 0.929 . S
O276 Mn252 2.385 . S
O276 C254 1.234 . S
O277 Mn252 2.209 . S
O277 Mn253 2.215 . S
O277 C254 1.283 . S
O278 Mn252 2.094 . S
O278 C256 1.240 . S
O279 Mn253 2.117 . S
O279 C256 1.264 . S
C280 C273 1.403 . S
C280 C281 1.399 . S
C280 H286 0.929 . S
C281 C261 1.449 . S
C281 C280 1.399 . S
C281 H287 0.930 1_545 S
H282 C262 0.931 1_565 S
H283 C263 0.930 . S
H284 C271 0.931 . S
H285 C272 0.929 . S
H286 C280 0.929 . S
H287 C281 0.930 1_565 S
C288 C289 1.369 1_565 S
C288 C290 1.419 . S
C288 H292 0.930 . S
C289 C288 1.369 1_545 S
C289 C298 1.429 1_554 S
C290 C288 1.419 . S
C290 C291 1.363 . S
C290 H293 0.929 . S
C291 C290 1.363 . S
C291 C297 1.428 1_564 S
H292 C288 0.930 . S
H293 C290 0.929 . S
S294 N295 1.613 . S
S294 N296 1.610 . S
N295 S294 1.613 . S
N295 C298 1.350 . S
N296 S294 1.610 . S
N296 C297 1.351 . S
C297 C291 1.428 1_546 S
C297 N296 1.351 . S
C297 C298 1.434 . S
C298 C289 1.429 1_556 S
C298 N295 1.350 . S
C298 C297 1.434 . S
C299 C300 1.369 . S
C299 C301 1.419 . S
C299 H303 0.930 . S
C300 C299 1.369 . S
C300 C309 1.429 . S
C301 C299 1.419 . S
C301 C302 1.363 . S
C301 H304 0.929 . S
C302 C301 1.363 . S
C302 C308 1.428 . S
H303 C299 0.930 . S
H304 C301 0.929 . S
S305 N306 1.613 . S
S305 N307 1.610 . S
N306 S305 1.613 . S
N306 C309 1.350 . S
N307 S305 1.610 . S
N307 C308 1.351 . S
C308 C302 1.428 . S
C308 N307 1.351 . S
C308 C309 1.434 . S
C309 C300 1.429 . S
C309 N306 1.350 . S
C309 C308 1.434 . S
C310 C311 1.369 1_554 S
C310 C312 1.419 . S
C310 H314 0.930 . S
C311 C310 1.369 1_556 S
C311 C320 1.429 1_565 S
C312 C310 1.419 . S
C312 C313 1.363 1_564 S
C312 H315 0.929 . S
C313 C312 1.363 1_546 S
C313 C319 1.428 . S
H314 C310 0.930 . S
H315 C312 0.929 . S
S316 N317 1.613 . S
S316 N318 1.610 . S
N317 S316 1.613 . S
N317 C320 1.350 . S
N318 S316 1.610 . S
N318 C319 1.351 . S
C319 C313 1.428 . S
C319 N318 1.351 . S
C319 C320 1.434 . S
C320 C311 1.429 1_545 S
C320 N317 1.350 . S
C320 C319 1.434 . S
C321 C322 1.369 . S
C321 C323 1.419 . S
C321 H325 0.930 . S
C322 C321 1.369 . S
C322 C331 1.429 . S
C323 C321 1.419 . S
C323 C324 1.363 . S
C323 H326 0.929 . S
C324 C323 1.363 . S
C324 C330 1.428 . S
H325 C321 0.930 . S
H326 C323 0.929 . S
S327 N328 1.613 . S
S327 N329 1.610 . S
N328 S327 1.613 . S
N328 C331 1.350 . S
N329 S327 1.610 . S
N329 C330 1.351 . S
C330 C324 1.428 . S
C330 N329 1.351 . S
C330 C331 1.434 . S
C331 C322 1.429 . S
C331 N328 1.350 . S
C331 C330 1.434 . S
C332 C333 1.369 . S
C332 C334 1.419 . S
C332 H336 0.930 . S
C333 C332 1.369 . S
C333 C342 1.429 . S
C334 C332 1.419 . S
C334 C335 1.363 . S
C334 H337 0.929 . S
C335 C334 1.363 . S
C335 C341 1.428 . S
H336 C332 0.930 . S
H337 C334 0.929 . S
S338 N339 1.613 . S
S338 N340 1.610 . S
N339 S338 1.613 . S
N339 C342 1.350 . S
N340 S338 1.610 . S
N340 C341 1.351 . S
C341 C335 1.428 . S
C341 N340 1.351 . S
C341 C342 1.434 . S
C342 C333 1.429 . S
C342 N339 1.350 . S
C342 C341 1.434 . S
C343 C344 1.369 . S
C343 C345 1.419 . S
C343 H347 0.930 . S
C344 C343 1.369 . S
C344 C353 1.429 . S
C345 C343 1.419 . S
C345 C346 1.363 . S
C345 H348 0.929 . S
C346 C345 1.363 . S
C346 C352 1.428 . S
H347 C343 0.930 . S
H348 C345 0.929 . S
S349 N350 1.613 . S
S349 N351 1.610 . S
N350 S349 1.613 . S
N350 C353 1.350 . S
N351 S349 1.610 . S
N351 C352 1.351 . S
C352 C346 1.428 . S
C352 N351 1.351 . S
C352 C353 1.434 . S
C353 C344 1.429 . S
C353 N350 1.350 . S
C353 C352 1.434 . S
C354 C355 1.369 . S
C354 C356 1.419 . S
C354 H358 0.930 . S
C355 C354 1.369 . S
C355 C364 1.429 . S
C356 C354 1.419 . S
C356 C357 1.363 . S
C356 H359 0.929 . S
C357 C356 1.363 . S
C357 C363 1.428 . S
H358 C354 0.930 . S
H359 C356 0.929 . S
S360 N361 1.613 . S
S360 N362 1.610 . S
N361 S360 1.613 . S
N361 C364 1.350 . S
N362 S360 1.610 . S
N362 C363 1.351 . S
C363 C357 1.428 . S
C363 N362 1.351 . S
C363 C364 1.434 . S
C364 C355 1.429 . S
C364 N361 1.350 . S
C364 C363 1.434 . S
C365 C366 1.369 . S
C365 C367 1.419 . S
C365 H369 0.930 . S
C366 C365 1.369 . S
C366 C375 1.429 . S
C367 C365 1.419 . S
C367 C368 1.363 . S
C367 H370 0.929 . S
C368 C367 1.363 . S
C368 C374 1.428 . S
H369 C365 0.930 . S
H370 C367 0.929 . S
S371 N372 1.613 . S
S371 N373 1.610 . S
N372 S371 1.613 . S
N372 C375 1.350 . S
N373 S371 1.610 . S
N373 C374 1.351 . S
C374 C368 1.428 . S
C374 N373 1.351 . S
C374 C375 1.434 . S
C375 C366 1.429 . S
C375 N372 1.350 . S
C375 C374 1.434 . S
C376 C377 1.369 . S
C376 C378 1.419 . S
C376 H380 0.930 . S
C377 C376 1.369 . S
C377 C386 1.429 1_556 S
C378 C376 1.419 . S
C378 C379 1.361 1_556 S
C378 H381 0.929 . S
C379 C378 1.361 1_554 S
C379 C385 1.430 . S
H380 C376 0.930 . S
H381 C378 0.929 . S
S382 N383 1.613 . S
S382 N384 1.610 . S
N383 S382 1.613 . S
N383 C386 1.350 . S
N384 S382 1.610 . S
N384 C385 1.351 . S
C385 C379 1.430 . S
C385 N384 1.351 . S
C385 C386 1.434 . S
C386 C377 1.429 1_554 S
C386 N383 1.350 . S
C386 C385 1.434 . S
C387 C388 1.378 1_655 S
C387 C389 1.419 . S
C387 H391 0.930 . S
C388 C387 1.378 1_455 S
C388 C397 1.420 1_556 S
C389 C387 1.419 . S
C389 C390 1.363 1_556 S
C389 H392 0.929 . S
C390 C389 1.363 1_554 S
C390 C396 1.428 1_655 S
H391 C387 0.930 . S
H392 C389 0.929 . S
S393 N394 1.613 . S
S393 N395 1.610 . S
N394 S393 1.613 . S
N394 C397 1.350 . S
N395 S393 1.610 . S
N395 C396 1.351 . S
C396 C390 1.428 1_455 S
C396 N395 1.351 . S
C396 C397 1.434 . S
C397 C388 1.420 1_554 S
C397 N394 1.350 . S
C397 C396 1.434 . S
C398 C399 1.369 . S
C398 C400 1.419 1_565 S
C398 H402 0.930 . S
C399 C398 1.369 . S
C399 C408 1.429 . S
C400 C398 1.419 1_545 S
C400 C401 1.363 . S
C400 H403 0.929 . S
C401 C400 1.363 . S
C401 C407 1.428 . S
H402 C398 0.930 . S
H403 C400 0.929 . S
S404 N405 1.613 . S
S404 N406 1.610 1_565 S
N405 S404 1.613 . S
N405 C408 1.350 . S
N406 S404 1.610 1_545 S
N406 C407 1.351 . S
C407 C401 1.428 . S
C407 N406 1.351 . S
C407 C408 1.434 1_545 S
C408 C399 1.429 . S
C408 N405 1.350 . S
C408 C407 1.434 1_565 S
C409 C410 1.369 . S
C409 C411 1.419 1_645 S
C409 H413 0.930 . S
C410 C409 1.369 . S
C410 C419 1.429 . S
C411 C409 1.419 1_465 S
C411 C412 1.363 . S
C411 H414 0.929 . S
C412 C411 1.363 . S
C412 C418 1.428 . S
H413 C409 0.930 . S
H414 C411 0.929 . S
S415 N416 1.613 1_565 S
S415 N417 1.610 1_655 S
N416 S415 1.613 1_545 S
N416 C419 1.350 . S
N417 S415 1.610 1_455 S
N417 C418 1.351 . S
C418 C412 1.428 . S
C418 N417 1.351 . S
C418 C419 1.434 1_465 S
C419 C410 1.429 . S
C419 N416 1.350 . S
C419 C418 1.434 1_645 S
C420 C421 1.369 . S
C420 C422 1.419 . S
C420 H424 0.930 . S
C421 C420 1.369 . S
C421 C430 1.429 1_554 S
C422 C420 1.419 . S
C422 C423 1.363 . S
C422 H425 0.929 . S
C423 C422 1.363 . S
C423 C429 1.428 1_554 S
H424 C420 0.930 . S
H425 C422 0.929 . S
S426 N427 1.613 . S
S426 N428 1.610 . S
N427 S426 1.613 . S
N427 C430 1.350 . S
N428 S426 1.610 . S
N428 C429 1.351 . S
C429 C423 1.428 1_556 S
C429 N428 1.351 . S
C429 C430 1.434 . S
C430 C421 1.429 1_556 S
C430 N427 1.350 . S
C430 C429 1.434 . S
C431 C432 1.369 1_565 S
C431 C433 1.419 . S
C431 H435 0.930 . S
C432 C431 1.369 1_545 S
C432 C441 1.429 . S
C433 C431 1.419 . S
C433 C434 1.363 . S
C433 H436 0.929 . S
C434 C433 1.363 . S
C434 C440 1.428 1_565 S
H435 C431 0.930 . S
H436 C433 0.929 . S
S437 N438 1.613 . S
S437 N439 1.610 . S
N438 S437 1.613 . S
N438 C441 1.350 . S
N439 S437 1.610 . S
N439 C440 1.351 . S
C440 C434 1.428 1_545 S
C440 N439 1.351 . S
C440 C441 1.434 . S
C441 C432 1.429 . S
C441 N438 1.350 . S
C441 C440 1.434 . S
C442 C443 1.369 . S
C442 C444 1.419 . S
C442 H446 0.930 . S
C443 C442 1.369 . S
C443 C452 1.429 1_556 S
C444 C442 1.419 . S
C444 C445 1.363 . S
C444 H447 0.929 . S
C445 C444 1.363 . S
C445 C451 1.428 1_556 S
H446 C442 0.930 . S
H447 C444 0.929 . S
S448 N449 1.613 . S
S448 N450 1.610 . S
N449 S448 1.613 . S
N449 C452 1.350 . S
N450 S448 1.610 . S
N450 C451 1.351 . S
C451 C445 1.428 1_554 S
C451 N450 1.351 . S
C451 C452 1.434 . S
C452 C443 1.429 1_554 S
C452 N449 1.350 . S
C452 C451 1.434 . S
C453 C454 1.369 1_545 S
C453 C455 1.419 . S
C453 H457 0.930 . S
C454 C453 1.369 1_565 S
C454 C463 1.429 . S
C455 C453 1.419 . S
C455 C456 1.363 . S
C455 H458 0.929 . S
C456 C455 1.363 . S
C456 C462 1.428 1_545 S
H457 C453 0.930 . S
H458 C455 0.929 . S
S459 N460 1.613 . S
S459 N461 1.610 . S
N460 S459 1.613 . S
N460 C463 1.350 . S
N461 S459 1.610 . S
N461 C462 1.351 . S
C462 C456 1.428 1_565 S
C462 N461 1.351 . S
C462 C463 1.434 . S
C463 C454 1.429 . S
C463 N460 1.350 . S
C463 C462 1.434 . S
C289 C4 1.479 . S
C291 C40 1.487 . S
C300 C112 1.489 . S
C302 C76 1.482 . S
C311 C148 1.482 . S
C313 C184 1.479 . S
C322 C220 1.489 . S
C324 C256 1.482 . S
C333 C14 1.526 . S
C335 C86 1.525 . S
C344 C122 1.517 . S
C346 C50 1.519 . S
C355 C158 1.523 . S
C357 C230 1.521 . S
C366 C266 1.520 . S
C368 C194 1.521 . S
C377 C3 1.539 1_556 S
C379 C147 1.541 1_554 S
C388 C39 1.534 1_556 S
C390 C183 1.545 1_554 S
C399 C219 1.543 . S
C401 C75 1.540 . S
C410 C255 1.543 . S
C412 C111 1.540 . S
C421 C38 1.220 . S
C423 C2 1.220 . S
C432 C74 1.219 . S
C434 C110 1.219 . S
C443 C146 1.220 . S
C445 C182 1.219 . S
C454 C218 1.219 . S
C456 C254 1.219 . S
