# Generated by pormake.
# Topology smu, (6)-cn, num edge types: 1
# Building blocks:
#     Node 0, Type 0, BuildingBlock: UKALOJ_clean_sbu_0, # of connection points: 6
#     Node 1, Type 0, BuildingBlock: UKALOJ_clean_sbu_0, # of connection points: 6
#     Node 2, Type 0, BuildingBlock: UKALOJ_clean_sbu_0, # of connection points: 6
#     Node 3, Type 0, BuildingBlock: UKALOJ_clean_sbu_0, # of connection points: 6
#     Node 4, Type 0, BuildingBlock: UKALOJ_clean_sbu_0, # of connection points: 6
#     Node 5, Type 0, BuildingBlock: UKALOJ_clean_sbu_0, # of connection points: 6
#     Edge 6, Type (0, 0), BuildingBlock: FUNLAD_clean_linker_0, # of connection points: 2
#     Edge 7, Type (0, 0), BuildingBlock: FUNLAD_clean_linker_0, # of connection points: 2
#     Edge 8, Type (0, 0), BuildingBlock: FUNLAD_clean_linker_0, # of connection points: 2
#     Edge 9, Type (0, 0), BuildingBlock: FUNLAD_clean_linker_0, # of connection points: 2
#     Edge 10, Type (0, 0), BuildingBlock: FUNLAD_clean_linker_0, # of connection points: 2
#     Edge 11, Type (0, 0), BuildingBlock: FUNLAD_clean_linker_0, # of connection points: 2
#     Edge 12, Type (0, 0), BuildingBlock: FUNLAD_clean_linker_0, # of connection points: 2
#     Edge 13, Type (0, 0), BuildingBlock: FUNLAD_clean_linker_0, # of connection points: 2
#     Edge 14, Type (0, 0), BuildingBlock: FUNLAD_clean_linker_0, # of connection points: 2
#     Edge 15, Type (0, 0), BuildingBlock: FUNLAD_clean_linker_0, # of connection points: 2
#     Edge 16, Type (0, 0), BuildingBlock: FUNLAD_clean_linker_0, # of connection points: 2
#     Edge 17, Type (0, 0), BuildingBlock: FUNLAD_clean_linker_0, # of connection points: 2
#     Edge 18, Type (0, 0), BuildingBlock: FUNLAD_clean_linker_0, # of connection points: 2
#     Edge 19, Type (0, 0), BuildingBlock: FUNLAD_clean_linker_0, # of connection points: 2
#     Edge 20, Type (0, 0), BuildingBlock: FUNLAD_clean_linker_0, # of connection points: 2
#     Edge 21, Type (0, 0), BuildingBlock: FUNLAD_clean_linker_0, # of connection points: 2
#     Edge 22, Type (0, 0), BuildingBlock: FUNLAD_clean_linker_0, # of connection points: 2
#     Edge 23, Type (0, 0), BuildingBlock: FUNLAD_clean_linker_0, # of connection points: 2
# Relax obj value: 0.192
# Max RMSD: 0.231
# Mean RMSD: 0.231
data_MOF--net-smu--node1-UKALOJ_clean_sbu_0--edge1-FUNLAD_clean_linker_0
_symmetry_space_group_name_H-M    P1
_symmetry_Int_Tables_number       1
_symmetry_cell_setting            triclinic
loop_
_symmetry_equiv_pos_as_xyz
'x, y, z'
_cell_length_a     31.838425
_cell_length_b     31.76021
_cell_length_c     44.956643
_cell_angle_alpha  89.786391
_cell_angle_beta   90.081194
_cell_angle_gamma 119.8414
loop_
_atom_site_label
_atom_site_type_symbol
_atom_site_fract_x
_atom_site_fract_y
_atom_site_fract_z
_atom_type_partial_charge
Zn0 Zn 0.33156 0.06462 0.29839 0.0
O1 O 0.27855 0.08491 0.30589 0.0
C2 C 0.25825 0.96627 0.27898 0.0
Zn3 Zn 0.32154 0.06127 0.24905 0.0
C4 C 0.25664 0.08811 0.28312 0.0
O5 O 0.2667 0.07837 0.25764 0.0
C6 C 0.39953 0.04217 0.26427 0.0
O7 O 0.37105 0.13606 0.24478 0.0
O8 O 0.38298 0.13904 0.29311 0.0
N9 N 0.30363 0.05566 0.20479 0.0
C10 C 0.32659 0.05963 0.1788 0.0
C11 C 0.25415 0.04133 0.16835 0.0
N12 N 0.25869 0.04429 0.1981 0.0
N13 N 0.29615 0.05064 0.15561 0.0
C14 C 0.3196 0.04512 0.36693 0.0
C15 C 0.39172 0.08975 0.38252 0.0
N16 N 0.34708 0.06883 0.3431 0.0
N17 N 0.39184 0.0967 0.35291 0.0
N18 N 0.34684 0.05727 0.39188 0.0
H19 H 0.24903 0.01475 0.38702 0.0
H20 H 0.25814 0.9742 0.36372 0.0
H21 H 0.24951 0.02089 0.34698 0.0
C22 C 0.26588 0.01209 0.36604 0.0
C23 C 0.37908 0.07478 0.17624 0.0
H24 H 0.40003 0.10059 0.19424 0.0
H25 H 0.39378 0.09196 0.15432 0.0
H26 H 0.38319 0.04222 0.1785 0.0
O27 O 0.37751 0.04561 0.24159 0.0
O28 O 0.38602 0.04655 0.29012 0.0
C29 C 0.3916 0.16045 0.26801 0.0
O30 O 0.27864 0.99013 0.30237 0.0
O31 O 0.27116 0.98718 0.25384 0.0
Zn32 Zn 0.73049 0.67215 0.23817 0.0
O33 O 0.75189 0.62089 0.2287 0.0
C34 C 0.63284 0.59584 0.2562 0.0
Zn35 Zn 0.72732 0.65668 0.28687 0.0
C36 C 0.75444 0.59553 0.24982 0.0
O37 O 0.74365 0.60117 0.27621 0.0
C38 C 0.70773 0.7367 0.27468 0.0
O39 O 0.80198 0.70514 0.29116 0.0
O40 O 0.80427 0.72412 0.24393 0.0
N41 N 0.72142 0.63807 0.33124 0.0
C42 C 0.73094 0.66453 0.35633 0.0
C43 C 0.69964 0.59045 0.36946 0.0
N44 N 0.70216 0.59207 0.33952 0.0
N45 N 0.71714 0.63543 0.38063 0.0
C46 C 0.72088 0.66821 0.16825 0.0
C47 C 0.74984 0.74343 0.15873 0.0
N48 N 0.73535 0.69228 0.19433 0.0
N49 N 0.75355 0.73896 0.18822 0.0
N50 N 0.72945 0.69963 0.14554 0.0
H51 H 0.68251 0.59582 0.18702 0.0
H52 H 0.72328 0.60408 0.15734 0.0
H53 H 0.66654 0.601 0.149 0.0
C54 C 0.69652 0.61411 0.16538 0.0
C55 C 0.75581 0.71882 0.35703 0.0
H56 H 0.77896 0.7349 0.33717 0.0
H57 H 0.77829 0.73298 0.37737 0.0
H58 H 0.72803 0.73011 0.35731 0.0
O59 O 0.71249 0.7135 0.29628 0.0
O60 O 0.711 0.72469 0.24827 0.0
C61 C 0.82595 0.72919 0.26856 0.0
O62 O 0.65688 0.61862 0.2333 0.0
O63 O 0.6531 0.60684 0.28157 0.0
Zn64 Zn 0.92766 0.27234 0.28911 0.0
O65 O 0.90752 0.19972 0.29816 0.0
C66 C 0.02587 0.29263 0.27366 0.0
Zn67 Zn 0.93324 0.26129 0.24046 0.0
C68 C 0.90246 0.17145 0.27686 0.0
O69 O 0.91205 0.18811 0.25047 0.0
C70 C 0.95278 0.36073 0.25268 0.0
O71 O 0.86039 0.23957 0.23335 0.0
O72 O 0.85329 0.24886 0.28124 0.0
N73 N 0.94286 0.24907 0.19679 0.0
C74 C 0.93801 0.267 0.17054 0.0
C75 C 0.96936 0.22271 0.16142 0.0
N76 N 0.962 0.22132 0.19096 0.0
N77 N 0.95459 0.25108 0.14802 0.0
C78 C 0.94153 0.27875 0.35798 0.0
C79 C 0.89738 0.30803 0.37185 0.0
N80 N 0.92019 0.28397 0.33336 0.0
N81 N 0.89258 0.30196 0.3421 0.0
N82 N 0.92821 0.29403 0.38232 0.0
H83 H 0.96687 0.23263 0.33923 0.0
H84 H 0.96774 0.2355 0.37935 0.0
H85 H 0.01178 0.28599 0.35802 0.0
C86 C 0.97352 0.2566 0.35853 0.0
C87 C 0.92181 0.30371 0.16761 0.0
H88 H 0.89483 0.29776 0.18506 0.0
H89 H 0.90594 0.30233 0.14548 0.0
H90 H 0.9537 0.34047 0.17041 0.0
O91 O 0.95189 0.33383 0.23153 0.0
O92 O 0.94583 0.34467 0.27923 0.0
C93 C 0.83423 0.23645 0.25551 0.0
O94 O 0.00163 0.29383 0.29574 0.0
O95 O 0.00605 0.28175 0.2482 0.0
Zn96 Zn 0.06203 0.32378 0.78829 0.0
O97 O 0.13558 0.37644 0.79241 0.0
C98 C 0.03781 0.39948 0.77387 0.0
Zn99 Zn 0.06272 0.33442 0.73904 0.0
C100 C 0.15871 0.39749 0.76886 0.0
O101 O 0.13648 0.38781 0.74407 0.0
C102 C 0.96716 0.25713 0.75873 0.0
O103 O 0.08507 0.28331 0.73084 0.0
O104 O 0.08384 0.27223 0.77912 0.0
N105 N 0.06636 0.35097 0.69451 0.0
C106 C 0.04304 0.32408 0.67049 0.0
C107 C 0.08652 0.3971 0.65562 0.0
N108 N 0.09352 0.39629 0.68515 0.0
N109 N 0.05472 0.35226 0.64586 0.0
C110 C 0.05999 0.32868 0.85837 0.0
C111 C 0.03699 0.25493 0.86921 0.0
N112 N 0.05696 0.30553 0.83262 0.0
N113 N 0.04303 0.25987 0.83954 0.0
N114 N 0.04742 0.29754 0.88163 0.0
H115 H 0.09707 0.40244 0.84275 0.0
H116 H 0.08466 0.39615 0.88223 0.0
H117 H 0.03635 0.38063 0.85632 0.0
C118 C 0.0705 0.38007 0.86013 0.0
C119 C 0.01087 0.2701 0.67089 0.0
H120 H 0.02051 0.25344 0.68942 0.0
H121 H 0.01345 0.25417 0.64951 0.0
H122 H 0.97291 0.26162 0.67384 0.0
O123 O 0.98934 0.27956 0.73527 0.0
O124 O 0.98886 0.26985 0.78358 0.0
C125 C 0.09242 0.263 0.75306 0.0
O126 O 0.04233 0.37725 0.79613 0.0
O127 O 0.04244 0.38703 0.74779 0.0
Zn128 Zn 0.26379 0.93543 0.79832 0.0
O129 O 0.24187 0.86184 0.805 0.0
C130 C 0.36025 0.95452 0.78088 0.0
Zn131 Zn 0.26721 0.92806 0.74906 0.0
C132 C 0.23562 0.83512 0.78255 0.0
O133 O 0.24505 0.85385 0.75661 0.0
C134 C 0.29064 0.02742 0.76544 0.0
O135 O 0.19417 0.90729 0.74341 0.0
O136 O 0.19008 0.91489 0.79165 0.0
N137 N 0.27477 0.91999 0.70425 0.0
C138 C 0.26826 0.94142 0.68009 0.0
C139 C 0.29613 0.89675 0.66478 0.0
N140 N 0.29185 0.89203 0.69462 0.0
N141 N 0.28186 0.92785 0.65511 0.0
C142 C 0.2765 0.94099 0.86793 0.0
C143 C 0.22849 0.96671 0.87986 0.0
N144 N 0.25599 0.94516 0.84261 0.0
N145 N 0.22616 0.96106 0.85017 0.0
N146 N 0.25998 0.95461 0.89167 0.0
H147 H 0.30366 0.89591 0.85072 0.0
H148 H 0.30644 0.90219 0.89082 0.0
H149 H 0.34816 0.95178 0.86761 0.0
C150 C 0.31045 0.92125 0.86937 0.0
C151 C 0.24655 0.97378 0.68071 0.0
H152 H 0.22357 0.96679 0.70062 0.0
H153 H 0.22463 0.96849 0.6604 0.0
H154 H 0.27615 0.01201 0.6811 0.0
O155 O 0.28741 0.00204 0.74284 0.0
O156 O 0.28415 0.00859 0.79117 0.0
C157 C 0.16947 0.90373 0.76638 0.0
O158 O 0.33684 0.95388 0.80393 0.0
O159 O 0.34 0.94684 0.75553 0.0
Zn160 Zn 0.65884 0.722 0.73411 0.0
O161 O 0.70993 0.79556 0.72698 0.0
C162 C 0.73594 0.70187 0.75147 0.0
Zn163 Zn 0.67052 0.72963 0.7833 0.0
C164 C 0.73076 0.82218 0.74935 0.0
O165 O 0.72202 0.80333 0.77521 0.0
C166 C 0.5945 0.63075 0.76802 0.0
O167 O 0.61826 0.75077 0.78917 0.0
O168 O 0.60587 0.7429 0.74087 0.0
N169 N 0.68896 0.73965 0.82756 0.0
C170 C 0.6644 0.72106 0.85317 0.0
C171 C 0.73913 0.7641 0.86434 0.0
N172 N 0.73527 0.76662 0.83466 0.0
N173 N 0.69522 0.73576 0.87655 0.0
C174 C 0.66902 0.71893 0.66493 0.0
C175 C 0.59583 0.68945 0.65083 0.0
N176 N 0.64203 0.71199 0.68954 0.0
N177 N 0.5966 0.69377 0.68065 0.0
N178 N 0.64079 0.70467 0.64034 0.0
H179 H 0.73858 0.76363 0.64435 0.0
H180 H 0.73278 0.71288 0.66557 0.0
H181 H 0.7392 0.76542 0.68454 0.0
C182 C 0.72307 0.74188 0.6649 0.0
C183 C 0.61141 0.68483 0.85473 0.0
H184 H 0.59222 0.68798 0.83501 0.0
H185 H 0.5948 0.68969 0.87507 0.0
H186 H 0.60677 0.64784 0.8555 0.0
O187 O 0.61747 0.65633 0.79036 0.0
O188 O 0.60617 0.64899 0.74207 0.0
C189 C 0.59678 0.75427 0.76623 0.0
O190 O 0.7132 0.70287 0.72848 0.0
O191 O 0.72388 0.71009 0.77676 0.0
C192 C 0.23709 0.94854 0.9443 0.0
C193 C 0.2728 0.95895 0.92271 0.0
C194 C 0.2495 0.95902 0.97421 0.0
C195 C 0.29814 0.98065 0.98328 0.0
C196 C 0.33368 0.98884 0.96199 0.0
C197 C 0.32123 0.9786 0.93188 0.0
C198 C 0.31213 0.99589 1.01468 0.0
C199 C 0.28979 0.01488 0.03066 0.0
C200 C 0.29922 0.02926 0.06251 0.0
C201 C 0.28035 0.05753 0.07391 0.0
C202 C 0.28206 0.06679 0.1043 0.0
C203 C 0.30286 0.04823 0.12415 0.0
H204 H 0.33618 0.98955 0.07447 0.0
C205 C 0.32377 0.02169 0.11282 0.0
C206 C 0.32199 0.01221 0.08222 0.0
H207 H 0.33887 0.00589 0.12776 0.0
H208 H 0.19952 0.9332 0.93785 0.0
H209 H 0.22095 0.95074 0.99018 0.0
H210 H 0.37137 0.00522 0.96844 0.0
H211 H 0.34976 0.98827 0.91574 0.0
H212 H 0.34244 0.99366 0.02398 0.0
H213 H 0.26269 0.02073 0.01961 0.0
H214 H 0.26259 0.07115 0.05937 0.0
H215 H 0.26549 0.08711 0.11255 0.0
C216 C 0.68581 0.68786 0.6016 0.0
C217 C 0.65318 0.70351 0.60963 0.0
C218 C 0.6955 0.68424 0.57162 0.0
C219 C 0.67205 0.69548 0.54888 0.0
C220 C 0.6396 0.71133 0.55712 0.0
C221 C 0.63012 0.71508 0.58705 0.0
C222 C 0.67928 0.69074 0.51645 0.0
C223 C 0.70503 0.67115 0.50517 0.0
C224 C 0.70942 0.6643 0.47267 0.0
C225 C 0.72411 0.63119 0.4638 0.0
C226 C 0.72739 0.62242 0.43364 0.0
C227 C 0.71669 0.64704 0.41158 0.0
H228 H 0.68905 0.7162 0.456 0.0
C229 C 0.70245 0.68051 0.42033 0.0
C230 C 0.69936 0.6895 0.45047 0.0
H231 H 0.69235 0.69886 0.40395 0.0
H232 H 0.70286 0.67701 0.61842 0.0
H233 H 0.72103 0.6722 0.56675 0.0
H234 H 0.62093 0.72037 0.5403 0.0
H235 H 0.60455 0.72691 0.59263 0.0
H236 H 0.66039 0.70225 0.50129 0.0
H237 H 0.72191 0.6571 0.52007 0.0
H238 H 0.73237 0.61137 0.48026 0.0
H239 H 0.73813 0.5962 0.42749 0.0
C240 C 0.00711 0.28078 0.10398 0.0
C241 C 0.96161 0.26451 0.11709 0.0
C242 C 0.0137 0.28977 0.0734 0.0
C243 C 0.97467 0.28261 0.05515 0.0
C244 C 0.92916 0.26653 0.06846 0.0
C245 C 0.92264 0.25742 0.09909 0.0
C246 C 0.97874 0.28728 0.02208 0.0
C247 C 0.02117 0.31003 1.00712 0.0
C248 C 0.0254 0.30903 0.97409 0.0
C249 C 0.06969 0.34169 0.96045 0.0
C250 C 0.07668 0.33909 0.9299 0.0
C251 C 0.0394 0.3039 0.91234 0.0
H252 H 0.9539 0.24688 0.96566 0.0
C253 C -0.00491 0.27148 0.92577 0.0
C254 C 0.98804 0.27389 0.95625 0.0
H255 H 0.96616 0.24353 0.91265 0.0
H256 H 0.03743 0.28566 0.11745 0.0
H257 H 0.04902 0.30053 0.06428 0.0
H258 H 0.8982 0.25985 0.055 0.0
H259 H 0.88683 0.24316 0.10854 0.0
H260 H 0.945 0.27075 1.00975 0.0
H261 H 0.05473 0.33019 0.01938 0.0
H262 H 0.09943 0.3686 0.97361 0.0
H263 H 0.11173 0.36335 0.92021 0.0
C264 C 0.35217 0.06868 0.44624 0.0
C265 C 0.3338 0.03784 0.42156 0.0
C266 C 0.34193 0.04977 0.47518 0.0
C267 C 0.31318 -0.00065 0.48001 0.0
C268 C 0.29542 0.96861 0.45521 0.0
C269 C 0.30556 0.98758 0.42633 0.0
C270 C 0.30331 0.97719 0.5103 0.0
C271 C 0.30466 0.00124 0.53529 0.0
C272 C 0.29715 0.98043 0.56594 0.0
C273 C 0.31193 0.01253 0.59014 0.0
C274 C 0.30661 0.99532 0.61932 0.0
C275 C 0.28567 0.94542 0.62509 0.0
H276 H 0.26299 0.90387 0.55405 0.0
C277 C 0.27075 0.91309 0.60107 0.0
C278 C 0.276 0.93025 0.57178 0.0
H279 H 0.25466 0.87446 0.60504 0.0
H280 H 0.37481 0.10746 0.44306 0.0
H281 H 0.35787 0.07473 0.49352 0.0
H282 H 0.27397 0.92963 0.45817 0.0
H283 H 0.29262 0.96277 0.40776 0.0
H284 H 0.29466 0.93964 0.51166 0.0
H285 H 0.31266 0.0386 0.53353 0.0
H286 H 0.32853 0.05131 0.58647 0.0
H287 H 0.32012 0.02124 0.63731 0.0
C288 C 0.71512 0.70514 0.92154 0.0
C289 C 0.68667 0.7216 0.90735 0.0
C290 C 0.71108 0.69606 0.95214 0.0
C291 C 0.67828 0.70332 0.96938 0.0
C292 C 0.64937 0.71922 0.95493 0.0
C293 C 0.65367 0.7285 0.92429 0.0
C294 C 0.67589 0.69896 1.00253 0.0
C295 C 0.69826 0.68014 0.01894 0.0
C296 C 0.7015 0.6824 0.05211 0.0
C297 C 0.71736 0.65391 0.06718 0.0
C298 C 0.72528 0.65825 0.09797 0.0
C299 C 0.71734 0.69115 0.1144 0.0
H300 H 0.6825 0.73893 0.05833 0.0
C301 C 0.70095 0.71917 0.09946 0.0
C302 C 0.69321 0.71504 0.06877 0.0
H303 H 0.695 0.74517 0.11157 0.0
H304 H 0.74135 0.7003 0.9089 0.0
H305 H 0.73507 0.68506 0.96202 0.0
H306 H 0.62431 0.72592 0.96754 0.0
H307 H 0.63273 0.74303 0.91409 0.0
H308 H 0.65519 0.71288 1.01373 0.0
H309 H 0.7158 0.66271 1.00792 0.0
H310 H 0.72485 0.62902 0.05497 0.0
H311 H 0.7395 0.63738 0.10859 0.0
C312 C 0.91286 0.28371 0.43636 0.0
C313 C 0.94541 0.29878 0.41242 0.0
C314 C 0.92962 0.28872 0.46569 0.0
C315 C 0.97961 0.30973 0.47163 0.0
C316 C 0.01194 0.32503 0.44749 0.0
C317 C -0.00488 0.31994 0.41829 0.0
C318 C 8e-05 0.31644 0.50227 0.0
C319 C 0.97549 0.31289 0.52745 0.0
C320 C -0.00255 0.32173 0.55771 0.0
C321 C 0.96677 0.3018 0.58244 0.0
C322 C 0.98555 0.31086 0.61132 0.0
C323 C 0.03554 0.34011 0.61615 0.0
H324 H 0.07243 0.36909 0.54438 0.0
C325 C 0.06627 0.36059 0.59154 0.0
C326 C 0.04757 0.35149 0.56261 0.0
H327 H 0.10482 0.38404 0.59477 0.0
H328 H 0.87436 0.26744 0.43229 0.0
H329 H 0.90307 0.27551 0.48334 0.0
H330 H 0.05058 0.34161 0.45123 0.0
H331 H 0.02115 0.33348 0.40032 0.0
H332 H 0.03765 0.32542 0.5039 0.0
H333 H 0.93768 0.30299 0.52631 0.0
H334 H 0.92799 0.27951 0.57944 0.0
H335 H 0.96075 0.29628 0.62987 0.0
C336 C 0.47001 0.05464 0.23334 0.0
C337 C 0.4458 0.04246 0.26084 0.0
C338 C 0.51894 0.06812 0.23177 0.0
C339 C 0.54437 0.06956 0.25772 0.0
C340 C 0.51876 0.05217 0.28448 0.0
C341 C 0.46997 0.03899 0.2861 0.0
C342 C 0.59787 0.09269 0.25848 0.0
C343 C 0.627 0.12951 0.24026 0.0
C344 C 0.68006 0.1583 0.24462 0.0
C345 C 0.71036 0.17804 0.21979 0.0
C346 C 0.76058 0.20489 0.22333 0.0
C347 C 0.78127 0.21333 0.25187 0.0
H348 H 0.67815 0.1551 0.29292 0.0
C349 C 0.75075 0.19553 0.27681 0.0
C350 C 0.70064 0.16818 0.27324 0.0
H351 H 0.76558 0.20151 0.2991 0.0
H352 H 0.45225 0.05704 0.21338 0.0
H353 H 0.53705 0.07921 0.21047 0.0
H354 H 0.5373 0.05202 0.30468 0.0
H355 H 0.45213 0.02911 0.30756 0.0
H356 H 0.61371 0.08241 0.27655 0.0
H357 H 0.61189 0.14014 0.22199 0.0
H358 H 0.69522 0.1717 0.19757 0.0
H359 H 0.7832 0.21835 0.20369 0.0
C360 C 0.56119 0.5244 0.27859 0.0
C361 C 0.58594 0.55055 0.25304 0.0
C362 C 0.52594 0.47556 0.27653 0.0
C363 C 0.5149 0.45198 0.24886 0.0
C364 C 0.53521 0.47947 0.22298 0.0
C365 C 0.57067 0.52846 0.22502 0.0
C366 C 0.48622 0.39836 0.24685 0.0
C367 C 0.49181 0.37006 0.26707 0.0
C368 C 0.46746 0.31629 0.26585 0.0
C369 C 0.46656 0.29123 0.29184 0.0
C370 C 0.44348 0.24067 0.29224 0.0
C371 C 0.42104 0.21393 0.26651 0.0
H372 H 0.44773 0.30747 0.21897 0.0
C373 C 0.42351 0.23895 0.24011 0.0
C374 C 0.4465 0.28965 0.23974 0.0
H375 H 0.40669 0.21936 0.21986 0.0
H376 H 0.57142 0.54062 0.30046 0.0
H377 H 0.50922 0.45567 0.29677 0.0
H378 H 0.52649 0.4622 0.20136 0.0
H379 H 0.58872 0.54774 0.20487 0.0
H380 H 0.46349 0.38271 0.22744 0.0
H381 H 0.51601 0.38723 0.28578 0.0
H382 H 0.48298 0.3108 0.31217 0.0
H383 H 0.44238 0.22257 0.31294 0.0
C384 C 0.93023 0.40895 0.21929 0.0
C385 C 0.95099 0.40539 0.24613 0.0
C386 C 0.91542 0.4433 0.21601 0.0
C387 C 0.92234 0.47548 0.2392 0.0
C388 C 0.94723 0.47522 0.26487 0.0
C389 C 0.96093 0.43992 0.26852 0.0
C390 C 0.8987 0.50527 0.23813 0.0
C391 C 0.85016 0.48365 0.23676 0.0
C392 C 0.82429 0.51127 0.23878 0.0
C393 C 0.78459 0.49516 0.25809 0.0
C394 C 0.76101 0.52205 0.26138 0.0
C395 C 0.77565 0.56433 0.24448 0.0
H396 H 0.86867 0.56583 0.20624 0.0
C397 C 0.81398 0.57918 0.22414 0.0
C398 C 0.83857 0.5532 0.2216 0.0
H399 H 0.8262 0.61197 0.21106 0.0
H400 H 0.92165 0.38272 0.20175 0.0
H401 H 0.89647 0.44324 0.19596 0.0
H402 H 0.95288 0.49994 0.28297 0.0
H403 H 0.97677 0.43795 0.28945 0.0
H404 H 0.92048 0.5442 0.24156 0.0
H405 H 0.82866 0.44422 0.23673 0.0
H406 H 0.77288 0.46265 0.27136 0.0
H407 H 0.73162 0.51002 0.27723 0.0
C408 C 0.05094 0.4697 0.8054 0.0
C409 C 0.03756 0.44552 0.77793 0.0
C410 C 0.06485 0.51886 0.80718 0.0
C411 C 0.06548 0.54458 0.78148 0.0
C412 C 0.04676 0.51901 0.75489 0.0
C413 C 0.03316 0.46999 0.75305 0.0
C414 C 0.0891 0.5983 0.78072 0.0
C415 C 0.12673 0.62723 0.79838 0.0
C416 C 0.15592 0.68045 0.79385 0.0
C417 C 0.17749 0.71071 0.81845 0.0
C418 C 0.20486 0.76105 0.81476 0.0
C419 C 0.21198 0.78192 0.78626 0.0
H420 H 0.14999 0.67875 0.74566 0.0
C421 C 0.19228 0.75137 0.7615 0.0
C422 C 0.16446 0.70118 0.76524 0.0
H423 H 0.19718 0.76627 0.73924 0.0
H424 H 0.05413 0.45182 0.82508 0.0
H425 H 0.07697 0.53692 0.8284 0.0
H426 H 0.04593 0.53775 0.7349 0.0
H427 H 0.02239 0.45224 0.73163 0.0
H428 H 0.07838 0.61444 0.76304 0.0
H429 H 0.13778 0.61179 0.81625 0.0
H430 H 0.17221 0.69547 0.84065 0.0
H431 H 0.21974 0.78363 0.83427 0.0
C432 C 0.42975 0.95134 0.7579 0.0
C433 C 0.40618 0.95388 0.78368 0.0
C434 C 0.4638 0.93603 0.75966 0.0
C435 C 0.47488 0.92297 0.78724 0.0
C436 C 0.45586 0.93114 0.81329 0.0
C437 C 0.42155 0.94633 0.81154 0.0
C438 C 0.50246 0.89682 0.78902 0.0
C439 C 0.49534 0.86241 0.76897 0.0
C440 C 0.51925 0.83251 0.76982 0.0
C441 C 0.51966 0.80867 0.74369 0.0
C442 C 0.54303 0.78143 0.74287 0.0
C443 C 0.56622 0.77706 0.76831 0.0
H444 H 0.53966 0.84267 0.81659 0.0
C445 C 0.56388 0.79894 0.79491 0.0
C446 C 0.54062 0.82641 0.7957 0.0
H447 H 0.58122 0.79605 0.81496 0.0
H448 H 0.41947 0.95785 0.73612 0.0
H449 H 0.47957 0.93207 0.73927 0.0
H450 H 0.4647 0.92224 0.83484 0.0
H451 H 0.4045 0.94846 0.83184 0.0
H452 H 0.52592 0.90372 0.80807 0.0
H453 H 0.47054 0.85565 0.7506 0.0
H454 H 0.50285 0.81211 0.72354 0.0
H455 H 0.54399 0.76489 0.72203 0.0
C456 C 0.23841 0.42978 0.79492 0.0
C457 C 0.21199 0.42807 0.76943 0.0
C458 C 0.28896 0.45271 0.79398 0.0
C459 C 0.314 0.47438 0.76745 0.0
C460 C 0.2876 0.4747 0.74251 0.0
C461 C 0.23719 0.45166 0.74341 0.0
C462 C 0.36741 0.49771 0.76466 0.0
C463 C 0.39623 0.48999 0.7832 0.0
C464 C 0.44949 0.51691 0.77939 0.0
C465 C 0.47933 0.53616 0.80441 0.0
C466 C 0.52847 0.57009 0.80089 0.0
C467 C 0.54838 0.58486 0.77227 0.0
H468 H 0.4487 0.51128 0.73129 0.0
C469 C 0.51962 0.5609 0.74742 0.0
C470 C 0.47058 0.52725 0.75094 0.0
H471 H 0.53399 0.57069 0.72506 0.0
H472 H 0.22003 0.41208 0.81536 0.0
H473 H 0.30793 0.45309 0.81403 0.0
H474 H 0.30595 0.49177 0.72192 0.0
H475 H 0.21796 0.45121 0.7234 0.0
H476 H 0.3838 0.52254 0.74602 0.0
H477 H 0.38147 0.46655 0.8025 0.0
H478 H 0.46396 0.52785 0.82658 0.0
H479 H 0.54978 0.58731 0.82051 0.0
C480 C 0.22806 0.13891 0.30907 0.0
C481 C 0.22448 0.10899 0.28512 0.0
C482 C 0.20414 0.16583 0.30807 0.0
C483 C 0.17606 0.1629 0.2831 0.0
C484 C 0.17019 0.13058 0.26016 0.0
C485 C 0.19434 0.10417 0.26104 0.0
C486 C 0.15247 0.19278 0.27953 0.0
C487 C 0.16479 0.23409 0.29441 0.0
C488 C 0.13909 0.26131 0.28844 0.0
C489 C 0.12291 0.278 0.31219 0.0
C490 C 0.08946 0.29366 0.30715 0.0
C491 C 0.07199 0.29285 0.27827 0.0
H492 H 0.14022 0.25593 0.2404 0.0
C493 C 0.09335 0.28233 0.25421 0.0
C494 C 0.12656 0.26664 0.25925 0.0
H495 H 0.08164 0.28241 0.23158 0.0
H496 H 0.25107 0.14328 0.32794 0.0
H497 H 0.20833 0.18912 0.32664 0.0
H498 H 0.1482 0.12703 0.24088 0.0
H499 H 0.19064 0.08116 0.24233 0.0
H500 H 0.12408 0.18066 0.26281 0.0
H501 H 0.19173 0.24683 0.31194 0.0
H502 H 0.13312 0.27534 0.33483 0.0
H503 H 0.07478 0.30289 0.32606 0.0
C504 C 0.90433 0.75721 0.29537 0.0
C505 C 0.87926 0.75821 0.26985 0.0
C506 C 0.95481 0.77938 0.29517 0.0
C507 C 0.98114 0.80293 0.26936 0.0
C508 C 0.95611 0.80566 0.24438 0.0
C509 C 0.90575 0.78341 0.24454 0.0
C510 C 0.03461 0.82643 0.26758 0.0
C511 C 0.06239 0.81724 0.28614 0.0
C512 C 0.11581 0.84583 0.28415 0.0
C513 C 0.14312 0.86339 0.31025 0.0
C514 C 0.19175 0.89965 0.3087 0.0
C515 C 0.21361 0.91851 0.28099 0.0
H516 H 0.11945 0.84555 0.23597 0.0
C517 C 0.18781 0.89615 0.25491 0.0
C518 C 0.13929 0.86012 0.25647 0.0
H519 H 0.20385 0.90899 0.23317 0.0
H520 H 0.88493 0.73825 0.31529 0.0
H521 H 0.97271 0.77791 0.31527 0.0
H522 H 0.97552 0.82422 0.22436 0.0
H523 H 0.88757 0.785 0.22454 0.0
H524 H 0.05201 0.85317 0.24997 0.0
H525 H 0.04653 0.7918 0.30445 0.0
H526 H 0.12592 0.85203 0.33184 0.0
H527 H 0.21089 0.91531 0.32918 0.0
C528 C 0.86025 0.08615 0.25846 0.0
C529 C 0.87988 0.11874 0.28229 0.0
C530 C 0.83321 0.0363 0.26372 0.0
C531 C 0.82547 0.01798 0.29294 0.0
C532 C 0.84708 0.05029 0.31665 0.0
C533 C 0.8736 0.10032 0.31144 0.0
C534 C 0.79693 0.96516 0.29888 0.0
C535 C 0.75816 0.93525 0.28232 0.0
C536 C 0.73518 0.8816 0.2835 0.0
C537 C 0.71346 0.8553 0.25755 0.0
C538 C 0.70022 0.80641 0.25554 0.0
C539 C 0.70797 0.78278 0.27962 0.0
H540 H 0.75271 0.87526 0.32947 0.0
C541 C 0.72458 0.80764 0.30669 0.0
C542 C 0.73813 0.85669 0.30865 0.0
H543 H 0.73053 0.79041 0.32574 0.0
H544 H 0.86452 0.09915 0.23574 0.0
H545 H 0.81861 0.01218 0.24484 0.0
H546 H 0.84239 0.03688 0.3393 0.0
H547 H 0.88848 0.12458 0.33025 0.0
H548 H 0.80955 0.95093 0.31659 0.0
H549 H 0.74604 0.95063 0.26494 0.0
H550 H 0.7099 0.87339 0.23802 0.0
H551 H 0.68692 0.78809 0.23446 0.0
C552 C 0.13395 0.22065 0.77417 0.0
C553 C 0.11687 0.23422 0.74915 0.0
C554 C 0.16299 0.19958 0.77076 0.0
C555 C 0.17552 0.19151 0.74223 0.0
C556 C 0.15643 0.20266 0.71722 0.0
C557 C 0.1277 0.22429 0.72061 0.0
C558 C 0.20636 0.16918 0.73823 0.0
C559 C 0.24191 0.17666 0.75747 0.0
C560 C 0.26567 0.14669 0.75764 0.0
C561 C 0.27988 0.13658 0.78506 0.0
C562 C 0.29266 0.10055 0.78724 0.0
C563 C 0.29196 0.07436 0.76191 0.0
H564 H 0.26174 0.13305 0.71012 0.0
C565 C 0.2835 0.08871 0.73398 0.0
C566 C 0.2703 0.12448 0.73182 0.0
H567 H 0.28369 0.07012 0.71398 0.0
H568 H 0.12606 0.22749 0.79648 0.0
H569 H 0.17533 0.18945 0.79055 0.0
H570 H 0.16475 0.19577 0.69503 0.0
H571 H 0.11493 0.23418 0.7009 0.0
H572 H 0.19794 0.14455 0.71963 0.0
H573 H 0.25002 0.20171 0.77584 0.0
H574 H 0.27757 0.15393 0.80521 0.0
H575 H 0.29975 0.09095 0.80908 0.0
C576 C 0.0922 0.8592 0.7377 0.0
C577 C 0.11628 0.88066 0.7644 0.0
C578 C 0.04175 0.83101 0.73697 0.0
C579 C 0.01445 0.82377 0.763 0.0
C580 C 0.03846 0.84731 0.78924 0.0
C581 C 0.08882 0.87528 0.79001 0.0
C582 C 0.96101 0.79299 0.76385 0.0
C583 C 0.93455 0.75822 0.74384 0.0
C584 C 0.88104 0.73155 0.7454 0.0
C585 C 0.85408 0.72368 0.71927 0.0
C586 C 0.80478 0.70883 0.72089 0.0
C587 C 0.78194 0.70144 0.7487 0.0
H588 H 0.87652 0.72198 0.79332 0.0
C589 C 0.80774 0.70331 0.77452 0.0
C590 C 0.85689 0.71824 0.77289 0.0
H591 H 0.79095 0.69679 0.79627 0.0
H592 H 0.11236 0.86291 0.71753 0.0
H593 H 0.0246 0.81507 0.71602 0.0
H594 H 0.01826 0.84301 0.80949 0.0
H595 H 0.10624 0.89148 0.81091 0.0
H596 H 0.94257 0.7994 0.78212 0.0
H597 H 0.95156 0.75162 0.72493 0.0
H598 H 0.87186 0.73276 0.69778 0.0
H599 H 0.78577 0.70702 0.70057 0.0
C600 C 0.90427 0.18746 0.72938 0.0
C601 C 0.92072 0.21102 0.75684 0.0
C602 C 0.86896 0.13841 0.72834 0.0
C603 C 0.84938 0.11222 0.75483 0.0
C604 C 0.86169 0.13718 0.78196 0.0
C605 C 0.89726 0.18609 0.78302 0.0
C606 C 0.81974 0.05857 0.75541 0.0
C607 C 0.82605 0.03021 0.73578 0.0
C608 C 0.80335 0.97697 0.7396 0.0
C609 C 0.79192 0.94732 0.7144 0.0
C610 C 0.76991 0.89692 0.71746 0.0
C611 C 0.75978 0.87541 0.74587 0.0
H612 H 0.8053 0.97752 0.78793 0.0
C613 C 0.77352 0.90537 0.77108 0.0
C614 C 0.79503 0.95559 0.768 0.0
H615 H 0.76648 0.89 0.79329 0.0
H616 H 0.92095 0.20574 0.70879 0.0
H617 H 0.85865 0.12074 0.70691 0.0
H618 H 0.84639 0.118 0.80264 0.0
H619 H 0.9086 0.20337 0.80454 0.0
H620 H 0.79583 0.04205 0.77434 0.0
H621 H 0.84971 0.04625 0.7167 0.0
H622 H 0.79894 0.96309 0.69229 0.0
H623 H 0.75992 0.87481 0.6976 0.0
loop_
_geom_bond_atom_site_label_1
_geom_bond_atom_site_label_2
_geom_bond_distance
_geom_bond_site_symmetry_2
_ccdc_geom_bond_type
Zn0 O1 2.055 . S
Zn0 O8 2.046 . S
Zn0 N16 2.036 . S
Zn0 O28 2.053 . S
Zn0 O30 2.066 . S
O1 Zn0 2.055 . S
O1 C4 1.259 . S
C2 O30 1.256 . S
C2 O31 1.244 . S
Zn3 O5 2.046 . S
Zn3 O7 2.055 . S
Zn3 N9 2.036 . S
Zn3 O27 2.066 . S
Zn3 O31 2.053 . S
C4 O1 1.259 . S
C4 O5 1.254 . S
O5 Zn3 2.046 . S
O5 C4 1.254 . S
C6 O27 1.256 . S
C6 O28 1.244 . S
O7 Zn3 2.055 . S
O7 C29 1.259 . S
O8 Zn0 2.046 . S
O8 C29 1.254 . S
N9 Zn3 2.036 . S
N9 C10 1.298 . S
N9 N12 1.398 . S
C10 N9 1.298 . S
C10 N13 1.367 . S
C10 C23 1.481 . S
C11 N12 1.299 . S
C11 N13 1.379 . S
N12 N9 1.398 . S
N12 C11 1.299 . S
N13 C10 1.367 . S
N13 C11 1.379 . S
C14 N16 1.298 . S
C14 N18 1.367 . S
C14 C22 1.481 . S
C15 N17 1.299 . S
C15 N18 1.379 . S
N16 Zn0 2.036 . S
N16 C14 1.298 . S
N16 N17 1.398 . S
N17 C15 1.299 . S
N17 N16 1.398 . S
N18 C14 1.367 . S
N18 C15 1.379 . S
H19 C22 0.980 . S
H20 C22 0.981 . S
H21 C22 0.981 . S
C22 C14 1.481 . S
C22 H19 0.980 . S
C22 H20 0.981 . S
C22 H21 0.981 . S
C23 C10 1.481 . S
C23 H24 0.980 . S
C23 H25 0.981 . S
C23 H26 0.981 . S
H24 C23 0.980 . S
H25 C23 0.981 . S
H26 C23 0.981 . S
O27 Zn3 2.066 . S
O27 C6 1.256 . S
O28 Zn0 2.053 . S
O28 C6 1.244 . S
C29 O7 1.259 . S
C29 O8 1.254 . S
O30 Zn0 2.066 . S
O30 C2 1.256 . S
O31 C2 1.244 . S
O31 Zn3 2.053 . S
Zn32 O33 2.055 . S
Zn32 O40 2.046 . S
Zn32 N48 2.036 . S
Zn32 O60 2.053 . S
Zn32 O62 2.066 . S
O33 Zn32 2.055 . S
O33 C36 1.259 . S
C34 O62 1.256 . S
C34 O63 1.244 . S
Zn35 O37 2.046 . S
Zn35 O39 2.055 . S
Zn35 N41 2.036 . S
Zn35 O59 2.066 . S
Zn35 O63 2.053 . S
C36 O33 1.259 . S
C36 O37 1.254 . S
O37 Zn35 2.046 . S
O37 C36 1.254 . S
C38 O59 1.256 . S
C38 O60 1.244 . S
O39 Zn35 2.055 . S
O39 C61 1.259 . S
O40 Zn32 2.046 . S
O40 C61 1.254 . S
N41 Zn35 2.036 . S
N41 C42 1.298 . S
N41 N44 1.398 . S
C42 N41 1.298 . S
C42 N45 1.367 . S
C42 C55 1.481 . S
C43 N44 1.299 . S
C43 N45 1.379 . S
N44 N41 1.398 . S
N44 C43 1.299 . S
N45 C42 1.367 . S
N45 C43 1.379 . S
C46 N48 1.298 . S
C46 N50 1.367 . S
C46 C54 1.481 . S
C47 N49 1.299 . S
C47 N50 1.379 . S
N48 Zn32 2.036 . S
N48 C46 1.298 . S
N48 N49 1.398 . S
N49 C47 1.299 . S
N49 N48 1.398 . S
N50 C46 1.367 . S
N50 C47 1.379 . S
H51 C54 0.980 . S
H52 C54 0.981 . S
H53 C54 0.981 . S
C54 C46 1.481 . S
C54 H51 0.980 . S
C54 H52 0.981 . S
C54 H53 0.981 . S
C55 C42 1.481 . S
C55 H56 0.980 . S
C55 H57 0.981 . S
C55 H58 0.981 . S
H56 C55 0.980 . S
H57 C55 0.981 . S
H58 C55 0.981 . S
O59 Zn35 2.066 . S
O59 C38 1.256 . S
O60 Zn32 2.053 . S
O60 C38 1.244 . S
C61 O39 1.259 . S
C61 O40 1.254 . S
O62 Zn32 2.066 . S
O62 C34 1.256 . S
O63 C34 1.244 . S
O63 Zn35 2.053 . S
Zn64 O65 2.055 . S
Zn64 O72 2.046 . S
Zn64 N80 2.036 . S
Zn64 O92 2.053 . S
Zn64 O94 2.066 . S
O65 Zn64 2.055 . S
O65 C68 1.259 . S
C66 O94 1.256 . S
C66 O95 1.244 . S
Zn67 O69 2.046 . S
Zn67 O71 2.055 . S
Zn67 N73 2.036 . S
Zn67 O91 2.066 . S
Zn67 O95 2.053 . S
C68 O65 1.259 . S
C68 O69 1.254 . S
O69 Zn67 2.046 . S
O69 C68 1.254 . S
C70 O91 1.256 . S
C70 O92 1.244 . S
O71 Zn67 2.055 . S
O71 C93 1.259 . S
O72 Zn64 2.046 . S
O72 C93 1.254 . S
N73 Zn67 2.036 . S
N73 C74 1.298 . S
N73 N76 1.398 . S
C74 N73 1.298 . S
C74 N77 1.367 . S
C74 C87 1.481 . S
C75 N76 1.299 . S
C75 N77 1.379 . S
N76 N73 1.398 . S
N76 C75 1.299 . S
N77 C74 1.367 . S
N77 C75 1.379 . S
C78 N80 1.298 . S
C78 N82 1.367 . S
C78 C86 1.481 . S
C79 N81 1.299 . S
C79 N82 1.379 . S
N80 Zn64 2.036 . S
N80 C78 1.298 . S
N80 N81 1.398 . S
N81 C79 1.299 . S
N81 N80 1.398 . S
N82 C78 1.367 . S
N82 C79 1.379 . S
H83 C86 0.980 . S
H84 C86 0.981 . S
H85 C86 0.981 . S
C86 C78 1.481 . S
C86 H83 0.980 . S
C86 H84 0.981 . S
C86 H85 0.981 . S
C87 C74 1.481 . S
C87 H88 0.980 . S
C87 H89 0.981 . S
C87 H90 0.981 . S
H88 C87 0.980 . S
H89 C87 0.981 . S
H90 C87 0.981 . S
O91 Zn67 2.066 . S
O91 C70 1.256 . S
O92 Zn64 2.053 . S
O92 C70 1.244 . S
C93 O71 1.259 . S
C93 O72 1.254 . S
O94 Zn64 2.066 . S
O94 C66 1.256 . S
O95 C66 1.244 . S
O95 Zn67 2.053 . S
Zn96 O97 2.055 . S
Zn96 O104 2.046 . S
Zn96 N112 2.036 . S
Zn96 O124 2.053 . S
Zn96 O126 2.066 . S
O97 Zn96 2.055 . S
O97 C100 1.259 . S
C98 O126 1.256 . S
C98 O127 1.244 . S
Zn99 O101 2.046 . S
Zn99 O103 2.055 . S
Zn99 N105 2.036 . S
Zn99 O123 2.066 . S
Zn99 O127 2.053 . S
C100 O97 1.259 . S
C100 O101 1.254 . S
O101 Zn99 2.046 . S
O101 C100 1.254 . S
C102 O123 1.256 . S
C102 O124 1.244 . S
O103 Zn99 2.055 . S
O103 C125 1.259 . S
O104 Zn96 2.046 . S
O104 C125 1.254 . S
N105 Zn99 2.036 . S
N105 C106 1.298 . S
N105 N108 1.398 . S
C106 N105 1.298 . S
C106 N109 1.367 . S
C106 C119 1.481 . S
C107 N108 1.299 . S
C107 N109 1.379 . S
N108 N105 1.398 . S
N108 C107 1.299 . S
N109 C106 1.367 . S
N109 C107 1.379 . S
C110 N112 1.298 . S
C110 N114 1.367 . S
C110 C118 1.481 . S
C111 N113 1.299 . S
C111 N114 1.379 . S
N112 Zn96 2.036 . S
N112 C110 1.298 . S
N112 N113 1.398 . S
N113 C111 1.299 . S
N113 N112 1.398 . S
N114 C110 1.367 . S
N114 C111 1.379 . S
H115 C118 0.980 . S
H116 C118 0.981 . S
H117 C118 0.981 . S
C118 C110 1.481 . S
C118 H115 0.980 . S
C118 H116 0.981 . S
C118 H117 0.981 . S
C119 C106 1.481 . S
C119 H120 0.980 . S
C119 H121 0.981 . S
C119 H122 0.981 . S
H120 C119 0.980 . S
H121 C119 0.981 . S
H122 C119 0.981 . S
O123 Zn99 2.066 . S
O123 C102 1.256 . S
O124 Zn96 2.053 . S
O124 C102 1.244 . S
C125 O103 1.259 . S
C125 O104 1.254 . S
O126 Zn96 2.066 . S
O126 C98 1.256 . S
O127 C98 1.244 . S
O127 Zn99 2.053 . S
Zn128 O129 2.055 . S
Zn128 O136 2.046 . S
Zn128 N144 2.036 . S
Zn128 O156 2.053 . S
Zn128 O158 2.066 . S
O129 Zn128 2.055 . S
O129 C132 1.259 . S
C130 O158 1.256 . S
C130 O159 1.244 . S
Zn131 O133 2.046 . S
Zn131 O135 2.055 . S
Zn131 N137 2.036 . S
Zn131 O155 2.066 . S
Zn131 O159 2.053 . S
C132 O129 1.259 . S
C132 O133 1.254 . S
O133 Zn131 2.046 . S
O133 C132 1.254 . S
C134 O155 1.256 . S
C134 O156 1.244 . S
O135 Zn131 2.055 . S
O135 C157 1.259 . S
O136 Zn128 2.046 . S
O136 C157 1.254 . S
N137 Zn131 2.036 . S
N137 C138 1.298 . S
N137 N140 1.398 . S
C138 N137 1.298 . S
C138 N141 1.367 . S
C138 C151 1.481 . S
C139 N140 1.299 . S
C139 N141 1.379 . S
N140 N137 1.398 . S
N140 C139 1.299 . S
N141 C138 1.367 . S
N141 C139 1.379 . S
C142 N144 1.298 . S
C142 N146 1.367 . S
C142 C150 1.481 . S
C143 N145 1.299 . S
C143 N146 1.379 . S
N144 Zn128 2.036 . S
N144 C142 1.298 . S
N144 N145 1.398 . S
N145 C143 1.299 . S
N145 N144 1.398 . S
N146 C142 1.367 . S
N146 C143 1.379 . S
H147 C150 0.980 . S
H148 C150 0.981 . S
H149 C150 0.981 . S
C150 C142 1.481 . S
C150 H147 0.980 . S
C150 H148 0.981 . S
C150 H149 0.981 . S
C151 C138 1.481 . S
C151 H152 0.980 . S
C151 H153 0.981 . S
C151 H154 0.981 . S
H152 C151 0.980 . S
H153 C151 0.981 . S
H154 C151 0.981 . S
O155 Zn131 2.066 . S
O155 C134 1.256 . S
O156 Zn128 2.053 . S
O156 C134 1.244 . S
C157 O135 1.259 . S
C157 O136 1.254 . S
O158 Zn128 2.066 . S
O158 C130 1.256 . S
O159 C130 1.244 . S
O159 Zn131 2.053 . S
Zn160 O161 2.055 . S
Zn160 O168 2.046 . S
Zn160 N176 2.036 . S
Zn160 O188 2.053 . S
Zn160 O190 2.066 . S
O161 Zn160 2.055 . S
O161 C164 1.259 . S
C162 O190 1.256 . S
C162 O191 1.244 . S
Zn163 O165 2.046 . S
Zn163 O167 2.055 . S
Zn163 N169 2.036 . S
Zn163 O187 2.066 . S
Zn163 O191 2.053 . S
C164 O161 1.259 . S
C164 O165 1.254 . S
O165 Zn163 2.046 . S
O165 C164 1.254 . S
C166 O187 1.256 . S
C166 O188 1.244 . S
O167 Zn163 2.055 . S
O167 C189 1.259 . S
O168 Zn160 2.046 . S
O168 C189 1.254 . S
N169 Zn163 2.036 . S
N169 C170 1.298 . S
N169 N172 1.398 . S
C170 N169 1.298 . S
C170 N173 1.367 . S
C170 C183 1.481 . S
C171 N172 1.299 . S
C171 N173 1.379 . S
N172 N169 1.398 . S
N172 C171 1.299 . S
N173 C170 1.367 . S
N173 C171 1.379 . S
C174 N176 1.298 . S
C174 N178 1.367 . S
C174 C182 1.481 . S
C175 N177 1.299 . S
C175 N178 1.379 . S
N176 Zn160 2.036 . S
N176 C174 1.298 . S
N176 N177 1.398 . S
N177 C175 1.299 . S
N177 N176 1.398 . S
N178 C174 1.367 . S
N178 C175 1.379 . S
H179 C182 0.980 . S
H180 C182 0.981 . S
H181 C182 0.981 . S
C182 C174 1.481 . S
C182 H179 0.980 . S
C182 H180 0.981 . S
C182 H181 0.981 . S
C183 C170 1.481 . S
C183 H184 0.980 . S
C183 H185 0.981 . S
C183 H186 0.981 . S
H184 C183 0.980 . S
H185 C183 0.981 . S
H186 C183 0.981 . S
O187 Zn163 2.066 . S
O187 C166 1.256 . S
O188 Zn160 2.053 . S
O188 C166 1.244 . S
C189 O167 1.259 . S
C189 O168 1.254 . S
O190 Zn160 2.066 . S
O190 C162 1.256 . S
O191 C162 1.244 . S
O191 Zn163 2.053 . S
C192 C193 1.386 . S
C192 C194 1.383 . S
C192 H208 0.951 . S
C193 C192 1.386 . S
C193 C197 1.383 . S
C194 C192 1.383 . S
C194 C195 1.402 . S
C194 H209 0.951 . S
C195 C194 1.402 . S
C195 C196 1.375 . S
C195 C198 1.481 . S
C196 C195 1.375 . S
C196 C197 1.367 . S
C196 H210 0.951 . S
C197 C193 1.383 . S
C197 C196 1.367 . S
C197 H211 0.950 . S
C198 C195 1.481 . S
C198 C199 1.320 1_556 S
C198 H212 0.950 1_556 S
C199 C198 1.320 1_554 S
C199 C200 1.472 1_565 S
C199 H213 0.953 1_565 S
C200 C199 1.472 1_545 S
C200 C201 1.375 . S
C200 C206 1.404 . S
C201 C200 1.375 . S
C201 C202 1.369 . S
C201 H214 0.950 . S
C202 C201 1.369 . S
C202 C203 1.392 . S
C202 H215 0.951 . S
C203 C202 1.392 . S
C203 C205 1.384 . S
H204 C206 0.949 1_565 S
C205 C203 1.384 . S
C205 C206 1.385 . S
C205 H207 0.950 . S
C206 C200 1.404 . S
C206 H204 0.949 1_545 S
C206 C205 1.385 . S
H207 C205 0.950 . S
H208 C192 0.951 . S
H209 C194 0.951 . S
H210 C196 0.951 . S
H211 C197 0.950 . S
H212 C198 0.950 1_554 S
H213 C199 0.953 1_545 S
H214 C201 0.950 . S
H215 C202 0.951 . S
C216 C217 1.386 . S
C216 C218 1.383 . S
C216 H232 0.951 . S
C217 C216 1.386 . S
C217 C221 1.383 . S
C218 C216 1.383 . S
C218 C219 1.402 . S
C218 H233 0.951 . S
C219 C218 1.402 . S
C219 C220 1.375 . S
C219 C222 1.481 . S
C220 C219 1.375 . S
C220 C221 1.367 . S
C220 H234 0.951 . S
C221 C217 1.383 . S
C221 C220 1.367 . S
C221 H235 0.950 . S
C222 C219 1.481 . S
C222 C223 1.297 . S
C222 H236 0.950 . S
C223 C222 1.297 . S
C223 C224 1.479 . S
C223 H237 0.950 . S
C224 C223 1.479 . S
C224 C225 1.375 . S
C224 C230 1.404 . S
C225 C224 1.375 . S
C225 C226 1.369 . S
C225 H238 0.950 . S
C226 C225 1.369 . S
C226 C227 1.392 . S
C226 H239 0.951 . S
C227 C226 1.392 . S
C227 C229 1.384 . S
H228 C230 0.949 . S
C229 C227 1.384 . S
C229 C230 1.385 . S
C229 H231 0.950 . S
C230 C224 1.404 . S
C230 H228 0.949 . S
C230 C229 1.385 . S
H231 C229 0.950 . S
H232 C216 0.951 . S
H233 C218 0.951 . S
H234 C220 0.951 . S
H235 C221 0.950 . S
H236 C222 0.950 . S
H237 C223 0.950 . S
H238 C225 0.950 . S
H239 C226 0.951 . S
C240 C241 1.386 . S
C240 C242 1.383 . S
C240 H256 0.951 . S
C241 C240 1.386 . S
C241 C245 1.383 . S
C242 C240 1.383 . S
C242 C243 1.402 . S
C242 H257 0.951 1_655 S
C243 C242 1.402 . S
C243 C244 1.375 . S
C243 C246 1.481 . S
C244 C243 1.375 . S
C244 C245 1.367 . S
C244 H258 0.951 . S
C245 C241 1.383 . S
C245 C244 1.367 . S
C245 H259 0.950 . S
C246 C243 1.481 . S
C246 C247 1.297 1_654 S
C246 H260 0.950 1_554 S
C247 C246 1.297 1_456 S
C247 C248 1.479 . S
C247 H261 0.950 1_556 S
C248 C247 1.479 . S
C248 C249 1.375 . S
C248 C254 1.404 . S
C249 C248 1.375 . S
C249 C250 1.369 . S
C249 H262 0.950 . S
C250 C249 1.369 . S
C250 C251 1.392 . S
C250 H263 0.951 . S
C251 C250 1.392 . S
C251 C253 1.384 . S
H252 C254 0.949 1_655 S
C253 C251 1.384 . S
C253 C254 1.385 . S
C253 H255 0.950 . S
C254 C248 1.404 . S
C254 H252 0.949 1_455 S
C254 C253 1.385 . S
H255 C253 0.950 . S
H256 C240 0.951 . S
H257 C242 0.951 1_455 S
H258 C244 0.951 . S
H259 C245 0.950 . S
H260 C246 0.950 1_556 S
H261 C247 0.950 1_554 S
H262 C249 0.950 . S
H263 C250 0.951 . S
C264 C265 1.386 . S
C264 C266 1.383 . S
C264 H280 0.951 . S
C265 C264 1.386 . S
C265 C269 1.383 . S
C266 C264 1.383 . S
C266 C267 1.402 . S
C266 H281 0.951 . S
C267 C266 1.402 . S
C267 C268 1.375 1_545 S
C267 C270 1.481 1_545 S
C268 C267 1.375 1_565 S
C268 C269 1.367 1_565 S
C268 H282 0.951 . S
C269 C265 1.383 . S
C269 C268 1.367 1_545 S
C269 H283 0.950 . S
C270 C267 1.481 1_565 S
C270 C271 1.297 . S
C270 H284 0.950 . S
C271 C270 1.297 . S
C271 C272 1.479 . S
C271 H285 0.950 1_565 S
C272 C271 1.479 . S
C272 C273 1.375 . S
C272 C278 1.404 . S
C273 C272 1.375 . S
C273 C274 1.369 . S
C273 H286 0.950 1_565 S
C274 C273 1.369 . S
C274 C275 1.392 . S
C274 H287 0.951 . S
C275 C274 1.392 . S
C275 C277 1.384 . S
H276 C278 0.949 . S
C277 C275 1.384 . S
C277 C278 1.385 . S
C277 H279 0.950 . S
C278 C272 1.404 . S
C278 H276 0.949 . S
C278 C277 1.385 . S
H279 C277 0.950 . S
H280 C264 0.951 . S
H281 C266 0.951 . S
H282 C268 0.951 . S
H283 C269 0.950 . S
H284 C270 0.950 . S
H285 C271 0.950 1_545 S
H286 C273 0.950 1_545 S
H287 C274 0.951 . S
C288 C289 1.386 . S
C288 C290 1.383 . S
C288 H304 0.951 . S
C289 C288 1.386 . S
C289 C293 1.383 . S
C290 C288 1.383 . S
C290 C291 1.402 . S
C290 H305 0.951 . S
C291 C290 1.402 . S
C291 C292 1.375 . S
C291 C294 1.481 . S
C292 C291 1.375 . S
C292 C293 1.367 . S
C292 H306 0.951 . S
C293 C289 1.383 . S
C293 C292 1.367 . S
C293 H307 0.950 . S
C294 C291 1.481 . S
C294 C295 1.297 1_556 S
C294 H308 0.950 1_556 S
C295 C294 1.297 1_554 S
C295 C296 1.479 . S
C295 H309 0.950 1_554 S
C296 C295 1.479 . S
C296 C297 1.375 . S
C296 C302 1.404 . S
C297 C296 1.375 . S
C297 C298 1.369 . S
C297 H310 0.950 . S
C298 C297 1.369 . S
C298 C299 1.392 . S
C298 H311 0.951 . S
C299 C298 1.392 . S
C299 C301 1.384 . S
H300 C302 0.949 . S
C301 C299 1.384 . S
C301 C302 1.385 . S
C301 H303 0.950 . S
C302 C296 1.404 . S
C302 H300 0.949 . S
C302 C301 1.385 . S
H303 C301 0.950 . S
H304 C288 0.951 . S
H305 C290 0.951 . S
H306 C292 0.951 . S
H307 C293 0.950 . S
H308 C294 0.950 1_554 S
H309 C295 0.950 1_556 S
H310 C297 0.950 . S
H311 C298 0.951 . S
C312 C313 1.386 . S
C312 C314 1.383 . S
C312 H328 0.951 . S
C313 C312 1.386 . S
C313 C317 1.383 . S
C314 C312 1.383 . S
C314 C315 1.402 . S
C314 H329 0.951 . S
C315 C314 1.402 . S
C315 C316 1.375 1_655 S
C315 C318 1.481 1_655 S
C316 C315 1.375 1_455 S
C316 C317 1.367 1_455 S
C316 H330 0.951 . S
C317 C313 1.383 . S
C317 C316 1.367 1_655 S
C317 H331 0.950 1_655 S
C318 C315 1.481 1_455 S
C318 C319 1.297 1_455 S
C318 H332 0.950 . S
C319 C318 1.297 1_655 S
C319 C320 1.479 1_655 S
C319 H333 0.950 . S
C320 C319 1.479 1_455 S
C320 C321 1.375 1_455 S
C320 C326 1.404 . S
C321 C320 1.375 1_655 S
C321 C322 1.369 1_655 S
C321 H334 0.950 . S
C322 C321 1.369 1_455 S
C322 C323 1.392 . S
C322 H335 0.951 1_455 S
C323 C322 1.392 . S
C323 C325 1.384 . S
H324 C326 0.949 . S
C325 C323 1.384 . S
C325 C326 1.385 . S
C325 H327 0.950 . S
C326 C320 1.404 . S
C326 H324 0.949 . S
C326 C325 1.385 . S
H327 C325 0.950 . S
H328 C312 0.951 . S
H329 C314 0.951 . S
H330 C316 0.951 . S
H331 C317 0.950 1_455 S
H332 C318 0.950 . S
H333 C319 0.950 . S
H334 C321 0.950 . S
H335 C322 0.951 1_655 S
C336 C337 1.386 . S
C336 C338 1.383 . S
C336 H352 0.951 . S
C337 C336 1.386 . S
C337 C341 1.383 . S
C338 C336 1.383 . S
C338 C339 1.402 . S
C338 H353 0.951 . S
C339 C338 1.402 . S
C339 C340 1.375 . S
C339 C342 1.481 . S
C340 C339 1.375 . S
C340 C341 1.367 . S
C340 H354 0.951 . S
C341 C337 1.383 . S
C341 C340 1.367 . S
C341 H355 0.950 . S
C342 C339 1.481 . S
C342 C343 1.297 . S
C342 H356 0.950 . S
C343 C342 1.297 . S
C343 C344 1.479 . S
C343 H357 0.950 . S
C344 C343 1.479 . S
C344 C345 1.375 . S
C344 C350 1.404 . S
C345 C344 1.375 . S
C345 C346 1.369 . S
C345 H358 0.950 . S
C346 C345 1.369 . S
C346 C347 1.392 . S
C346 H359 0.951 . S
C347 C346 1.392 . S
C347 C349 1.384 . S
H348 C350 0.949 . S
C349 C347 1.384 . S
C349 C350 1.385 . S
C349 H351 0.950 . S
C350 C344 1.404 . S
C350 H348 0.949 . S
C350 C349 1.385 . S
H351 C349 0.950 . S
H352 C336 0.951 . S
H353 C338 0.951 . S
H354 C340 0.951 . S
H355 C341 0.950 . S
H356 C342 0.950 . S
H357 C343 0.950 . S
H358 C345 0.950 . S
H359 C346 0.951 . S
C360 C361 1.386 . S
C360 C362 1.383 . S
C360 H376 0.951 . S
C361 C360 1.386 . S
C361 C365 1.383 . S
C362 C360 1.383 . S
C362 C363 1.402 . S
C362 H377 0.951 . S
C363 C362 1.402 . S
C363 C364 1.375 . S
C363 C366 1.481 . S
C364 C363 1.375 . S
C364 C365 1.367 . S
C364 H378 0.951 . S
C365 C361 1.383 . S
C365 C364 1.367 . S
C365 H379 0.950 . S
C366 C363 1.481 . S
C366 C367 1.297 . S
C366 H380 0.950 . S
C367 C366 1.297 . S
C367 C368 1.479 . S
C367 H381 0.950 . S
C368 C367 1.479 . S
C368 C369 1.375 . S
C368 C374 1.404 . S
C369 C368 1.375 . S
C369 C370 1.369 . S
C369 H382 0.950 . S
C370 C369 1.369 . S
C370 C371 1.392 . S
C370 H383 0.951 . S
C371 C370 1.392 . S
C371 C373 1.384 . S
H372 C374 0.949 . S
C373 C371 1.384 . S
C373 C374 1.385 . S
C373 H375 0.950 . S
C374 C368 1.404 . S
C374 H372 0.949 . S
C374 C373 1.385 . S
H375 C373 0.950 . S
H376 C360 0.951 . S
H377 C362 0.951 . S
H378 C364 0.951 . S
H379 C365 0.950 . S
H380 C366 0.950 . S
H381 C367 0.950 . S
H382 C369 0.950 . S
H383 C370 0.951 . S
C384 C385 1.386 . S
C384 C386 1.383 . S
C384 H400 0.951 . S
C385 C384 1.386 . S
C385 C389 1.383 . S
C386 C384 1.383 . S
C386 C387 1.402 . S
C386 H401 0.951 . S
C387 C386 1.402 . S
C387 C388 1.375 . S
C387 C390 1.481 . S
C388 C387 1.375 . S
C388 C389 1.367 . S
C388 H402 0.951 . S
C389 C385 1.383 . S
C389 C388 1.367 . S
C389 H403 0.950 . S
C390 C387 1.481 . S
C390 C391 1.297 . S
C390 H404 0.950 . S
C391 C390 1.297 . S
C391 C392 1.479 . S
C391 H405 0.950 . S
C392 C391 1.479 . S
C392 C393 1.375 . S
C392 C398 1.404 . S
C393 C392 1.375 . S
C393 C394 1.369 . S
C393 H406 0.950 . S
C394 C393 1.369 . S
C394 C395 1.392 . S
C394 H407 0.951 . S
C395 C394 1.392 . S
C395 C397 1.384 . S
H396 C398 0.949 . S
C397 C395 1.384 . S
C397 C398 1.385 . S
C397 H399 0.950 . S
C398 C392 1.404 . S
C398 H396 0.949 . S
C398 C397 1.385 . S
H399 C397 0.950 . S
H400 C384 0.951 . S
H401 C386 0.951 . S
H402 C388 0.951 . S
H403 C389 0.950 . S
H404 C390 0.950 . S
H405 C391 0.950 . S
H406 C393 0.950 . S
H407 C394 0.951 . S
C408 C409 1.386 . S
C408 C410 1.383 . S
C408 H424 0.951 . S
C409 C408 1.386 . S
C409 C413 1.383 . S
C410 C408 1.383 . S
C410 C411 1.402 . S
C410 H425 0.951 . S
C411 C410 1.402 . S
C411 C412 1.375 . S
C411 C414 1.481 . S
C412 C411 1.375 . S
C412 C413 1.367 . S
C412 H426 0.951 . S
C413 C409 1.383 . S
C413 C412 1.367 . S
C413 H427 0.950 . S
C414 C411 1.481 . S
C414 C415 1.297 . S
C414 H428 0.950 . S
C415 C414 1.297 . S
C415 C416 1.479 . S
C415 H429 0.950 . S
C416 C415 1.479 . S
C416 C417 1.375 . S
C416 C422 1.404 . S
C417 C416 1.375 . S
C417 C418 1.369 . S
C417 H430 0.950 . S
C418 C417 1.369 . S
C418 C419 1.392 . S
C418 H431 0.951 . S
C419 C418 1.392 . S
C419 C421 1.384 . S
H420 C422 0.949 . S
C421 C419 1.384 . S
C421 C422 1.385 . S
C421 H423 0.950 . S
C422 C416 1.404 . S
C422 H420 0.949 . S
C422 C421 1.385 . S
H423 C421 0.950 . S
H424 C408 0.951 . S
H425 C410 0.951 . S
H426 C412 0.951 . S
H427 C413 0.950 . S
H428 C414 0.950 . S
H429 C415 0.950 . S
H430 C417 0.950 . S
H431 C418 0.951 . S
C432 C433 1.386 . S
C432 C434 1.383 . S
C432 H448 0.951 . S
C433 C432 1.386 . S
C433 C437 1.383 . S
C434 C432 1.383 . S
C434 C435 1.402 . S
C434 H449 0.951 . S
C435 C434 1.402 . S
C435 C436 1.375 . S
C435 C438 1.481 . S
C436 C435 1.375 . S
C436 C437 1.367 . S
C436 H450 0.951 . S
C437 C433 1.383 . S
C437 C436 1.367 . S
C437 H451 0.950 . S
C438 C435 1.481 . S
C438 C439 1.297 . S
C438 H452 0.950 . S
C439 C438 1.297 . S
C439 C440 1.479 . S
C439 H453 0.950 . S
C440 C439 1.479 . S
C440 C441 1.375 . S
C440 C446 1.404 . S
C441 C440 1.375 . S
C441 C442 1.369 . S
C441 H454 0.950 . S
C442 C441 1.369 . S
C442 C443 1.392 . S
C442 H455 0.951 . S
C443 C442 1.392 . S
C443 C445 1.384 . S
H444 C446 0.949 . S
C445 C443 1.384 . S
C445 C446 1.385 . S
C445 H447 0.950 . S
C446 C440 1.404 . S
C446 H444 0.949 . S
C446 C445 1.385 . S
H447 C445 0.950 . S
H448 C432 0.951 . S
H449 C434 0.951 . S
H450 C436 0.951 . S
H451 C437 0.950 . S
H452 C438 0.950 . S
H453 C439 0.950 . S
H454 C441 0.950 . S
H455 C442 0.951 . S
C456 C457 1.386 . S
C456 C458 1.383 . S
C456 H472 0.951 . S
C457 C456 1.386 . S
C457 C461 1.383 . S
C458 C456 1.383 . S
C458 C459 1.402 . S
C458 H473 0.951 . S
C459 C458 1.402 . S
C459 C460 1.375 . S
C459 C462 1.481 . S
C460 C459 1.375 . S
C460 C461 1.367 . S
C460 H474 0.951 . S
C461 C457 1.383 . S
C461 C460 1.367 . S
C461 H475 0.950 . S
C462 C459 1.481 . S
C462 C463 1.297 . S
C462 H476 0.950 . S
C463 C462 1.297 . S
C463 C464 1.479 . S
C463 H477 0.950 . S
C464 C463 1.479 . S
C464 C465 1.375 . S
C464 C470 1.404 . S
C465 C464 1.375 . S
C465 C466 1.369 . S
C465 H478 0.950 . S
C466 C465 1.369 . S
C466 C467 1.392 . S
C466 H479 0.951 . S
C467 C466 1.392 . S
C467 C469 1.384 . S
H468 C470 0.949 . S
C469 C467 1.384 . S
C469 C470 1.385 . S
C469 H471 0.950 . S
C470 C464 1.404 . S
C470 H468 0.949 . S
C470 C469 1.385 . S
H471 C469 0.950 . S
H472 C456 0.951 . S
H473 C458 0.951 . S
H474 C460 0.951 . S
H475 C461 0.950 . S
H476 C462 0.950 . S
H477 C463 0.950 . S
H478 C465 0.950 . S
H479 C466 0.951 . S
C480 C481 1.386 . S
C480 C482 1.383 . S
C480 H496 0.951 . S
C481 C480 1.386 . S
C481 C485 1.383 . S
C482 C480 1.383 . S
C482 C483 1.402 . S
C482 H497 0.951 . S
C483 C482 1.402 . S
C483 C484 1.375 . S
C483 C486 1.481 . S
C484 C483 1.375 . S
C484 C485 1.367 . S
C484 H498 0.951 . S
C485 C481 1.383 . S
C485 C484 1.367 . S
C485 H499 0.950 . S
C486 C483 1.481 . S
C486 C487 1.297 . S
C486 H500 0.950 . S
C487 C486 1.297 . S
C487 C488 1.479 . S
C487 H501 0.950 . S
C488 C487 1.479 . S
C488 C489 1.375 . S
C488 C494 1.404 . S
C489 C488 1.375 . S
C489 C490 1.369 . S
C489 H502 0.950 . S
C490 C489 1.369 . S
C490 C491 1.392 . S
C490 H503 0.951 . S
C491 C490 1.392 . S
C491 C493 1.384 . S
H492 C494 0.949 . S
C493 C491 1.384 . S
C493 C494 1.385 . S
C493 H495 0.950 1_455 S
C494 C488 1.404 . S
C494 H492 0.949 . S
C494 C493 1.385 . S
H495 C493 0.950 1_655 S
H496 C480 0.951 . S
H497 C482 0.951 . S
H498 C484 0.951 . S
H499 C485 0.950 . S
H500 C486 0.950 . S
H501 C487 0.950 . S
H502 C489 0.950 . S
H503 C490 0.951 . S
C504 C505 1.386 . S
C504 C506 1.383 . S
C504 H520 0.951 . S
C505 C504 1.386 . S
C505 C509 1.383 . S
C506 C504 1.383 . S
C506 C507 1.402 . S
C506 H521 0.951 1_655 S
C507 C506 1.402 . S
C507 C508 1.375 . S
C507 C510 1.481 1_655 S
C508 C507 1.375 . S
C508 C509 1.367 . S
C508 H522 0.951 . S
C509 C505 1.383 . S
C509 C508 1.367 . S
C509 H523 0.950 . S
C510 C507 1.481 1_455 S
C510 C511 1.297 . S
C510 H524 0.950 . S
C511 C510 1.297 . S
C511 C512 1.479 . S
C511 H525 0.950 . S
C512 C511 1.479 . S
C512 C513 1.375 . S
C512 C518 1.404 . S
C513 C512 1.375 . S
C513 C514 1.369 . S
C513 H526 0.950 . S
C514 C513 1.369 . S
C514 C515 1.392 . S
C514 H527 0.951 . S
C515 C514 1.392 . S
C515 C517 1.384 1_565 S
H516 C518 0.949 . S
C517 C515 1.384 1_545 S
C517 C518 1.385 1_545 S
C517 H519 0.950 . S
C518 C512 1.404 . S
C518 H516 0.949 . S
C518 C517 1.385 1_565 S
H519 C517 0.950 . S
H520 C504 0.951 . S
H521 C506 0.951 1_455 S
H522 C508 0.951 . S
H523 C509 0.950 . S
H524 C510 0.950 . S
H525 C511 0.950 . S
H526 C513 0.950 . S
H527 C514 0.951 . S
C528 C529 1.386 . S
C528 C530 1.383 . S
C528 H544 0.951 . S
C529 C528 1.386 . S
C529 C533 1.383 . S
C530 C528 1.383 . S
C530 C531 1.402 . S
C530 H545 0.951 . S
C531 C530 1.402 . S
C531 C532 1.375 . S
C531 C534 1.481 1_545 S
C532 C531 1.375 . S
C532 C533 1.367 . S
C532 H546 0.951 . S
C533 C529 1.383 . S
C533 C532 1.367 . S
C533 H547 0.950 . S
C534 C531 1.481 1_565 S
C534 C535 1.297 . S
C534 H548 0.950 . S
C535 C534 1.297 . S
C535 C536 1.479 . S
C535 H549 0.950 . S
C536 C535 1.479 . S
C536 C537 1.375 . S
C536 C542 1.404 . S
C537 C536 1.375 . S
C537 C538 1.369 . S
C537 H550 0.950 . S
C538 C537 1.369 . S
C538 C539 1.392 . S
C538 H551 0.951 . S
C539 C538 1.392 . S
C539 C541 1.384 . S
H540 C542 0.949 . S
C541 C539 1.384 . S
C541 C542 1.385 . S
C541 H543 0.950 . S
C542 C536 1.404 . S
C542 H540 0.949 . S
C542 C541 1.385 . S
H543 C541 0.950 . S
H544 C528 0.951 . S
H545 C530 0.951 . S
H546 C532 0.951 . S
H547 C533 0.950 . S
H548 C534 0.950 . S
H549 C535 0.950 . S
H550 C537 0.950 . S
H551 C538 0.951 . S
C552 C553 1.386 . S
C552 C554 1.383 . S
C552 H568 0.951 . S
C553 C552 1.386 . S
C553 C557 1.383 . S
C554 C552 1.383 . S
C554 C555 1.402 . S
C554 H569 0.951 . S
C555 C554 1.402 . S
C555 C556 1.375 . S
C555 C558 1.481 . S
C556 C555 1.375 . S
C556 C557 1.367 . S
C556 H570 0.951 . S
C557 C553 1.383 . S
C557 C556 1.367 . S
C557 H571 0.950 . S
C558 C555 1.481 . S
C558 C559 1.297 . S
C558 H572 0.950 . S
C559 C558 1.297 . S
C559 C560 1.479 . S
C559 H573 0.950 . S
C560 C559 1.479 . S
C560 C561 1.375 . S
C560 C566 1.404 . S
C561 C560 1.375 . S
C561 C562 1.369 . S
C561 H574 0.950 . S
C562 C561 1.369 . S
C562 C563 1.392 . S
C562 H575 0.951 1_545 S
C563 C562 1.392 . S
C563 C565 1.384 . S
H564 C566 0.949 . S
C565 C563 1.384 . S
C565 C566 1.385 . S
C565 H567 0.950 . S
C566 C560 1.404 . S
C566 H564 0.949 . S
C566 C565 1.385 . S
H567 C565 0.950 . S
H568 C552 0.951 . S
H569 C554 0.951 . S
H570 C556 0.951 . S
H571 C557 0.950 . S
H572 C558 0.950 . S
H573 C559 0.950 . S
H574 C561 0.950 . S
H575 C562 0.951 1_565 S
C576 C577 1.386 . S
C576 C578 1.383 . S
C576 H592 0.951 . S
C577 C576 1.386 . S
C577 C581 1.383 . S
C578 C576 1.383 . S
C578 C579 1.402 . S
C578 H593 0.951 1_455 S
C579 C578 1.402 . S
C579 C580 1.375 . S
C579 C582 1.481 1_455 S
C580 C579 1.375 . S
C580 C581 1.367 . S
C580 H594 0.951 . S
C581 C577 1.383 . S
C581 C580 1.367 . S
C581 H595 0.950 . S
C582 C579 1.481 1_655 S
C582 C583 1.297 . S
C582 H596 0.950 . S
C583 C582 1.297 . S
C583 C584 1.479 . S
C583 H597 0.950 . S
C584 C583 1.479 . S
C584 C585 1.375 . S
C584 C590 1.404 . S
C585 C584 1.375 . S
C585 C586 1.369 . S
C585 H598 0.950 . S
C586 C585 1.369 . S
C586 C587 1.392 . S
C586 H599 0.951 . S
C587 C586 1.392 . S
C587 C589 1.384 . S
H588 C590 0.949 . S
C589 C587 1.384 . S
C589 C590 1.385 . S
C589 H591 0.950 . S
C590 C584 1.404 . S
C590 H588 0.949 . S
C590 C589 1.385 . S
H591 C589 0.950 . S
H592 C576 0.951 . S
H593 C578 0.951 1_655 S
H594 C580 0.951 . S
H595 C581 0.950 . S
H596 C582 0.950 . S
H597 C583 0.950 . S
H598 C585 0.950 . S
H599 C586 0.951 . S
C600 C601 1.386 . S
C600 C602 1.383 . S
C600 H616 0.951 . S
C601 C600 1.386 . S
C601 C605 1.383 1_655 S
C602 C600 1.383 . S
C602 C603 1.402 . S
C602 H617 0.951 . S
C603 C602 1.402 . S
C603 C604 1.375 . S
C603 C606 1.481 . S
C604 C603 1.375 . S
C604 C605 1.367 1_655 S
C604 H618 0.951 . S
C605 C601 1.383 1_455 S
C605 C604 1.367 1_455 S
C605 H619 0.950 . S
C606 C603 1.481 . S
C606 C607 1.297 . S
C606 H620 0.950 . S
C607 C606 1.297 . S
C607 C608 1.479 1_545 S
C607 H621 0.950 . S
C608 C607 1.479 1_565 S
C608 C609 1.375 . S
C608 C614 1.404 . S
C609 C608 1.375 . S
C609 C610 1.369 . S
C609 H622 0.950 . S
C610 C609 1.369 . S
C610 C611 1.392 . S
C610 H623 0.951 . S
C611 C610 1.392 . S
C611 C613 1.384 . S
H612 C614 0.949 . S
C613 C611 1.384 . S
C613 C614 1.385 . S
C613 H615 0.950 . S
C614 C608 1.404 . S
C614 H612 0.949 . S
C614 C613 1.385 . S
H615 C613 0.950 . S
H616 C600 0.951 . S
H617 C602 0.951 . S
H618 C604 0.951 . S
H619 C605 0.950 . S
H620 C606 0.950 . S
H621 C607 0.950 . S
H622 C609 0.950 . S
H623 C610 0.951 . S
C193 N146 1.915 . S
C203 N13 1.824 . S
C217 N178 1.755 . S
C227 N45 1.722 . S
C241 N77 1.884 . S
C251 N114 1.858 . S
C265 N18 1.761 . S
C275 N141 1.778 . S
C289 N173 1.885 . S
C299 N50 1.856 . S
C313 N82 1.780 . S
C323 N109 1.782 . S
C337 C6 1.244 . S
C347 C93 1.264 . S
C361 C34 1.263 . S
C371 C29 1.232 . S
C385 C70 1.258 . S
C395 C36 1.245 . S
C409 C98 1.207 . S
C419 C132 1.278 . S
C433 C130 1.257 . S
C443 C189 1.214 . S
C457 C100 1.249 . S
C467 C166 1.274 . S
C481 C4 0.769 . S
C491 C66 0.804 1_455 S
C505 C61 0.777 . S
C515 C2 0.781 1_565 S
C529 C68 0.764 . S
C539 C38 0.700 . S
C553 C125 0.778 . S
C563 C134 0.680 1_545 S
C577 C157 0.771 . S
C587 C162 0.798 . S
C601 C102 0.714 1_655 S
C611 C164 0.803 . S
