# Generated by pormake.
# Topology wjt, (5)-cn, num edge types: 1
# Building blocks:
#     Node 0, Type 0, BuildingBlock: XOMCOT_clean_sbu_0, # of connection points: 5
#     Node 1, Type 0, BuildingBlock: XOMCOT_clean_sbu_0, # of connection points: 5
#     Node 2, Type 0, BuildingBlock: XOMCOT_clean_sbu_0, # of connection points: 5
#     Node 3, Type 0, BuildingBlock: XOMCOT_clean_sbu_0, # of connection points: 5
#     Node 4, Type 0, BuildingBlock: XOMCOT_clean_sbu_0, # of connection points: 5
#     Node 5, Type 0, BuildingBlock: XOMCOT_clean_sbu_0, # of connection points: 5
#     Node 6, Type 0, BuildingBlock: XOMCOT_clean_sbu_0, # of connection points: 5
#     Node 7, Type 0, BuildingBlock: XOMCOT_clean_sbu_0, # of connection points: 5
#     Node 8, Type 0, BuildingBlock: XOMCOT_clean_sbu_0, # of connection points: 5
#     Node 9, Type 0, BuildingBlock: XOMCOT_clean_sbu_0, # of connection points: 5
#     Node 10, Type 0, BuildingBlock: XOMCOT_clean_sbu_0, # of connection points: 5
#     Node 11, Type 0, BuildingBlock: XOMCOT_clean_sbu_0, # of connection points: 5
#     Edge 12, Type (0, 0), BuildingBlock: CIFDUS_clean_linker_0, # of connection points: 2
#     Edge 13, Type (0, 0), BuildingBlock: CIFDUS_clean_linker_0, # of connection points: 2
#     Edge 14, Type (0, 0), BuildingBlock: CIFDUS_clean_linker_0, # of connection points: 2
#     Edge 15, Type (0, 0), BuildingBlock: CIFDUS_clean_linker_0, # of connection points: 2
#     Edge 16, Type (0, 0), BuildingBlock: CIFDUS_clean_linker_0, # of connection points: 2
#     Edge 17, Type (0, 0), BuildingBlock: CIFDUS_clean_linker_0, # of connection points: 2
#     Edge 18, Type (0, 0), BuildingBlock: CIFDUS_clean_linker_0, # of connection points: 2
#     Edge 19, Type (0, 0), BuildingBlock: CIFDUS_clean_linker_0, # of connection points: 2
#     Edge 20, Type (0, 0), BuildingBlock: CIFDUS_clean_linker_0, # of connection points: 2
#     Edge 21, Type (0, 0), BuildingBlock: CIFDUS_clean_linker_0, # of connection points: 2
#     Edge 22, Type (0, 0), BuildingBlock: CIFDUS_clean_linker_0, # of connection points: 2
#     Edge 23, Type (0, 0), BuildingBlock: CIFDUS_clean_linker_0, # of connection points: 2
#     Edge 24, Type (0, 0), BuildingBlock: CIFDUS_clean_linker_0, # of connection points: 2
#     Edge 25, Type (0, 0), BuildingBlock: CIFDUS_clean_linker_0, # of connection points: 2
#     Edge 26, Type (0, 0), BuildingBlock: CIFDUS_clean_linker_0, # of connection points: 2
#     Edge 27, Type (0, 0), BuildingBlock: CIFDUS_clean_linker_0, # of connection points: 2
#     Edge 28, Type (0, 0), BuildingBlock: CIFDUS_clean_linker_0, # of connection points: 2
#     Edge 29, Type (0, 0), BuildingBlock: CIFDUS_clean_linker_0, # of connection points: 2
#     Edge 30, Type (0, 0), BuildingBlock: CIFDUS_clean_linker_0, # of connection points: 2
#     Edge 31, Type (0, 0), BuildingBlock: CIFDUS_clean_linker_0, # of connection points: 2
#     Edge 32, Type (0, 0), BuildingBlock: CIFDUS_clean_linker_0, # of connection points: 2
#     Edge 33, Type (0, 0), BuildingBlock: CIFDUS_clean_linker_0, # of connection points: 2
#     Edge 34, Type (0, 0), BuildingBlock: CIFDUS_clean_linker_0, # of connection points: 2
#     Edge 35, Type (0, 0), BuildingBlock: CIFDUS_clean_linker_0, # of connection points: 2
#     Edge 36, Type (0, 0), BuildingBlock: CIFDUS_clean_linker_0, # of connection points: 2
#     Edge 37, Type (0, 0), BuildingBlock: CIFDUS_clean_linker_0, # of connection points: 2
#     Edge 38, Type (0, 0), BuildingBlock: CIFDUS_clean_linker_0, # of connection points: 2
#     Edge 39, Type (0, 0), BuildingBlock: CIFDUS_clean_linker_0, # of connection points: 2
#     Edge 40, Type (0, 0), BuildingBlock: CIFDUS_clean_linker_0, # of connection points: 2
#     Edge 41, Type (0, 0), BuildingBlock: CIFDUS_clean_linker_0, # of connection points: 2
# Relax obj value: 0.233
# Max RMSD: 0.185
# Mean RMSD: 0.185
data_MOF--net-wjt--node1-XOMCOT_clean_sbu_0--edge1-CIFDUS_clean_linker_0
_symmetry_space_group_name_H-M    P1
_symmetry_Int_Tables_number       1
_symmetry_cell_setting            triclinic
loop_
_symmetry_equiv_pos_as_xyz
'x, y, z'
_cell_length_a     59.389207
_cell_length_b     59.395733
_cell_length_c     15.411737
_cell_angle_alpha  89.96305
_cell_angle_beta   90.079354
_cell_angle_gamma 119.97087
loop_
_atom_site_label
_atom_site_type_symbol
_atom_site_fract_x
_atom_site_fract_y
_atom_site_fract_z
_atom_type_partial_charge
Co0 Co 0.31598 0.42603 0.26161 0.0
C1 C 0.30824 0.41651 0.44965 0.0
C2 C 0.27646 0.4192 0.39602 0.0
C3 C 0.27354 0.41686 0.48503 0.0
N4 N 0.299 0.4202 0.37423 0.0
N5 N 0.29373 0.41538 0.5178 0.0
H6 H 0.32656 0.41691 0.45651 0.0
H7 H 0.26318 0.42066 0.35185 0.0
C8 C 0.28088 0.4468 0.20721 0.0
O9 O 0.29139 0.46474 0.26757 0.0
N10 N 0.33158 0.42991 0.14969 0.0
C11 C 0.35678 0.44219 0.12591 0.0
C12 C 0.35787 0.43897 0.03746 0.0
C13 C 0.31789 0.4188 0.07748 0.0
N14 N 0.33333 0.42408 0.00802 0.0
C15 C 0.34796 0.47236 0.36118 0.0
C16 C 0.3613 0.50798 0.22901 0.0
C17 C 0.37265 0.51696 0.31145 0.0
C18 C 0.36458 0.49854 0.37836 0.0
C19 C 0.34325 0.4815 0.21587 0.0
N20 N 0.33686 0.46379 0.2816 0.0
H21 H 0.34522 0.45914 0.41233 0.0
H22 H 0.33496 0.47517 0.15193 0.0
H23 H 0.37303 0.45295 0.16931 0.0
H24 H 0.29688 0.40749 0.07549 0.0
O25 O 0.34053 0.41709 0.30867 0.0
O26 O 0.30235 0.38868 0.25189 0.0
O27 O 0.28686 0.42891 0.20187 0.0
C28 C 0.32414 0.39322 0.28786 0.0
H29 H 0.25872 0.41783 0.52297 0.0
H30 H 0.37523 0.44698 0.99793 0.0
H31 H 0.36677 0.5209 0.17386 0.0
H32 H 0.37151 0.50381 0.44419 0.0
Co33 Co 0.89947 0.32389 0.53095 0.0
C34 C 0.88785 0.31704 0.71865 0.0
C35 C 0.88642 0.28339 0.6627 0.0
C36 C 0.8835 0.27995 0.75147 0.0
N37 N 0.88897 0.30665 0.64227 0.0
N38 N 0.88426 0.30116 0.78584 0.0
H39 H 0.89173 0.33659 0.72729 0.0
H40 H 0.88785 0.27041 0.6167 0.0
C41 C 0.84877 0.27433 0.48722 0.0
O42 O 0.83891 0.27404 0.56374 0.0
N43 N 0.91017 0.34038 0.41975 0.0
C44 C 0.91389 0.36365 0.39368 0.0
C45 C 0.91656 0.36504 0.30456 0.0
C46 C 0.91127 0.3283 0.34759 0.0
N47 N 0.91484 0.34273 0.27624 0.0
C48 C 0.88569 0.36005 0.59903 0.0
C49 C 0.83999 0.34406 0.50922 0.0
C50 C 0.84808 0.36428 0.56991 0.0
C51 C 0.8714 0.37232 0.61405 0.0
C52 C 0.85478 0.33173 0.49743 0.0
N53 N 0.87687 0.33904 0.54515 0.0
H54 H 0.9042 0.36794 0.63115 0.0
H55 H 0.84884 0.31715 0.44759 0.0
H56 H 0.91329 0.37795 0.43549 0.0
H57 H 0.90757 0.30851 0.3467 0.0
O58 O 0.93048 0.35165 0.58228 0.0
O59 O 0.92791 0.31606 0.52763 0.0
O60 O 0.8718 0.29214 0.46812 0.0
C61 C 0.94199 0.33859 0.56476 0.0
H62 H 0.88188 0.26363 0.78802 0.0
H63 H 0.91851 0.38071 0.26351 0.0
H64 H 0.82265 0.33808 0.47066 0.0
H65 H 0.87921 0.38881 0.65779 0.0
Co66 Co 0.58111 0.88546 0.90098 0.0
C67 C 0.59613 0.89266 0.08557 0.0
C68 C 0.59445 0.8581 0.03662 0.0
C69 C 0.60043 0.86028 0.12374 0.0
N70 N 0.59089 0.87802 0.0133 0.0
N71 N 0.60128 0.88197 0.15412 0.0
H72 H 0.59372 0.90948 0.09045 0.0
H73 H 0.59246 0.84268 0.99474 0.0
C74 C 0.56405 0.83015 0.85015 0.0
O75 O 0.54514 0.82177 0.90706 0.0
N76 N 0.5738 0.89393 0.78728 0.0
C77 C 0.56468 0.90985 0.76407 0.0
C78 C 0.56401 0.91067 0.67437 0.0
C79 C 0.57886 0.88575 0.71246 0.0
N80 N 0.57268 0.8952 0.64322 0.0
C81 C 0.53525 0.86218 0.01292 0.0
C82 C 0.49885 0.84827 0.8829 0.0
C83 C 0.49064 0.84697 0.96937 0.0
C84 C 0.50921 0.85243 0.03433 0.0
C85 C 0.525 0.85664 0.86424 0.0
N86 N 0.54345 0.86521 0.92851 0.0
H87 H 0.5484 0.8678 0.06637 0.0
H88 H 0.5302 0.85684 0.79717 0.0
H89 H 0.55891 0.92005 0.80885 0.0
H90 H 0.58745 0.87348 0.70768 0.0
O91 O 0.58683 0.91841 0.94246 0.0
O92 O 0.61742 0.91209 0.88426 0.0
O93 O 0.58134 0.85426 0.84716 0.0
C94 C 0.61085 0.92808 0.91859 0.0
H95 H 0.60304 0.84652 0.16232 0.0
H96 H 0.55736 0.92137 0.6353 0.0
H97 H 0.48569 0.84393 0.82891 0.0
H98 H 0.5042 0.85018 0.1024 0.0
Co99 Co 0.69808 0.58047 0.20717 0.0
C100 C 0.70555 0.58403 0.39968 0.0
C101 C 0.74079 0.60901 0.33184 0.0
C102 C 0.74564 0.61249 0.41985 0.0
N103 N 0.71573 0.5907 0.31903 0.0
N104 N 0.72336 0.59679 0.46235 0.0
H105 H 0.68549 0.57058 0.41342 0.0
H106 H 0.75453 0.61946 0.28058 0.0
C107 C 0.74414 0.57224 0.18058 0.0
O108 O 0.74203 0.56363 0.2604 0.0
N109 N 0.68113 0.57114 0.09556 0.0
C110 C 0.65585 0.55475 0.07857 0.0
C111 C 0.65223 0.55376 0.98995 0.0
C112 C 0.69252 0.58002 0.01774 0.0
N113 N 0.67533 0.56965 0.95168 0.0
C114 C 0.66013 0.5355 0.29706 0.0
C115 C 0.67047 0.49907 0.22562 0.0
C116 C 0.65144 0.49133 0.29045 0.0
C117 C 0.64619 0.50991 0.32506 0.0
C118 C 0.68463 0.5254 0.20069 0.0
N119 N 0.68018 0.54357 0.23953 0.0
H120 H 0.65424 0.5487 0.3217 0.0
H121 H 0.69845 0.53079 0.14847 0.0
H122 H 0.64112 0.54421 0.12705 0.0
H123 H 0.71293 0.59409 0.01001 0.0
O124 O 0.6723 0.58853 0.24803 0.0
O125 O 0.70901 0.61693 0.18421 0.0
O126 O 0.72841 0.57931 0.1522 0.0
C127 C 0.68713 0.61195 0.21998 0.0
H128 H 0.76393 0.62609 0.45002 0.0
H129 H 0.63401 0.54192 0.95646 0.0
H130 H 0.67424 0.48495 0.19438 0.0
H131 H 0.63067 0.50451 0.37171 0.0
Co132 Co 0.12156 0.69003 0.56111 0.0
C133 C 0.12136 0.69719 0.75233 0.0
C134 C 0.1402 0.73384 0.68671 0.0
C135 C 0.13966 0.7382 0.77436 0.0
N136 N 0.12965 0.7081 0.67289 0.0
N137 N 0.128 0.7151 0.81593 0.0
H138 H 0.11164 0.67646 0.7636 0.0
H139 H 0.1471 0.74854 0.63674 0.0
C140 C 0.17146 0.73737 0.50743 0.0
O141 O 0.18311 0.7344 0.5753 0.0
N142 N 0.11127 0.67256 0.44907 0.0
C143 C 0.10026 0.64694 0.43205 0.0
C144 C 0.09569 0.64315 0.34393 0.0
C145 C 0.11234 0.68378 0.3717 0.0
N146 N 0.10341 0.66639 0.30584 0.0
C147 C 0.15791 0.67891 0.6566 0.0
C148 C 0.16744 0.6549 0.52049 0.0
C149 C 0.1729 0.65016 0.60515 0.0
C150 C 0.17001 0.66435 0.67229 0.0
C151 C 0.15631 0.67066 0.50725 0.0
N152 N 0.14876 0.68002 0.57593 0.0
H153 H 0.15598 0.68872 0.71141 0.0
H154 H 0.15265 0.67399 0.44131 0.0
H155 H 0.09632 0.63212 0.48001 0.0
H156 H 0.11899 0.70424 0.36404 0.0
O157 O 0.09333 0.66002 0.61423 0.0
O158 O 0.09008 0.6927 0.55824 0.0
O159 O 0.14693 0.72277 0.497 0.0
C160 C 0.07882 0.67009 0.59682 0.0
H161 H 0.14689 0.757 0.80461 0.0
H162 H 0.08783 0.62472 0.31052 0.0
H163 H 0.17031 0.64552 0.4649 0.0
H164 H 0.17605 0.66346 0.73791 0.0
Co165 Co 0.43643 0.12629 0.90667 0.0
C166 C 0.43346 0.13085 0.09895 0.0
C167 C 0.40894 0.14178 0.03102 0.0
C168 C 0.40554 0.1432 0.11903 0.0
N169 N 0.42691 0.13456 0.01827 0.0
N170 N 0.42094 0.1362 0.16161 0.0
H171 H 0.44658 0.12381 0.11267 0.0
H172 H 0.39857 0.14523 0.97975 0.0
C173 C 0.44572 0.18092 0.87743 0.0
O174 O 0.45436 0.18763 0.95714 0.0
N175 N 0.44506 0.11782 0.79532 0.0
C176 C 0.46086 0.10822 0.77855 0.0
C177 C 0.4617 0.10545 0.68996 0.0
C178 C 0.43635 0.1206 0.71738 0.0
N179 N 0.44629 0.11328 0.65144 0.0
C180 C 0.48114 0.13217 0.99563 0.0
C181 C 0.51823 0.17849 0.92353 0.0
C182 C 0.52571 0.16679 0.98797 0.0
C183 C 0.50676 0.14319 0.0229 0.0
C184 C 0.49187 0.16693 0.89917 0.0
N185 N 0.47341 0.14451 0.9382 0.0
H186 H 0.46762 0.11325 0.02078 0.0
H187 H 0.48669 0.17565 0.84723 0.0
H188 H 0.47118 0.10372 0.82713 0.0
H189 H 0.42277 0.12756 0.70948 0.0
O190 O 0.42748 0.09236 0.94949 0.0
O191 O 0.39971 0.10152 0.88488 0.0
O192 O 0.43837 0.15798 0.85012 0.0
C193 C 0.40409 0.08438 0.92217 0.0
H194 H 0.39212 0.14814 0.14913 0.0
H195 H 0.47317 0.09861 0.65665 0.0
H196 H 0.53256 0.19621 0.89206 0.0
H197 H 0.51185 0.1327 0.06917 0.0
Co198 Co 0.59441 0.70523 0.41809 0.0
C199 C 0.59331 0.70896 0.22801 0.0
C200 C 0.60206 0.74519 0.28521 0.0
C201 C 0.60227 0.7477 0.1959 0.0
N202 N 0.59553 0.72048 0.30528 0.0
N203 N 0.59637 0.72464 0.16123 0.0
H204 H 0.59026 0.68957 0.2194 0.0
H205 H 0.60706 0.76067 0.33131 0.0
C206 C 0.57936 0.74422 0.47897 0.0
O207 O 0.55954 0.73406 0.42517 0.0
N208 N 0.59466 0.6909 0.5295 0.0
C209 C 0.58223 0.66582 0.55453 0.0
C210 C 0.5853 0.66504 0.64303 0.0
C211 C 0.6057 0.70488 0.60139 0.0
N212 N 0.60002 0.68968 0.67189 0.0
C213 C 0.54404 0.67017 0.34725 0.0
C214 C 0.51534 0.66433 0.4946 0.0
C215 C 0.50293 0.6488 0.42187 0.0
C216 C 0.51753 0.65247 0.34706 0.0
C217 C 0.542 0.68272 0.49094 0.0
N218 N 0.55622 0.6854 0.41772 0.0
H219 H 0.55478 0.66976 0.29246 0.0
H220 H 0.55147 0.69382 0.54857 0.0
H221 H 0.57063 0.64948 0.51239 0.0
H222 H 0.61625 0.7259 0.60316 0.0
O223 O 0.59982 0.67919 0.36414 0.0
O224 O 0.63158 0.71754 0.408 0.0
O225 O 0.59565 0.73608 0.47975 0.0
C226 C 0.6246 0.69512 0.37172 0.0
H227 H 0.6063 0.76491 0.15951 0.0
H228 H 0.57649 0.64784 0.68343 0.0
H229 H 0.50478 0.6616 0.55455 0.0
H230 H 0.509 0.64009 0.29085 0.0
Co231 Co 0.88651 0.57505 0.76253 0.0
C232 C 0.88219 0.57822 0.56986 0.0
C233 C 0.87081 0.60231 0.63775 0.0
C234 C 0.86977 0.60609 0.54986 0.0
N235 N 0.87794 0.58426 0.65057 0.0
N236 N 0.87703 0.59093 0.50722 0.0
H237 H 0.88987 0.56565 0.55623 0.0
H238 H 0.86744 0.61273 0.6889 0.0
C239 C 0.83398 0.56947 0.7973 0.0
O240 O 0.82594 0.55824 0.7213 0.0
N241 N 0.89544 0.56694 0.87412 0.0
C242 C 0.90376 0.55009 0.8915 0.0
C243 C 0.90675 0.54946 0.98005 0.0
C244 C 0.89363 0.57644 0.95166 0.0
N245 N 0.90031 0.566 0.01791 0.0
C246 C 0.87293 0.52728 0.6778 0.0
C247 C 0.83117 0.49439 0.77971 0.0
C248 C 0.83908 0.48379 0.71287 0.0
C249 C 0.86018 0.50076 0.66166 0.0
C250 C 0.84425 0.52148 0.7924 0.0
N251 N 0.86452 0.53775 0.73985 0.0
H252 H 0.89079 0.53899 0.64367 0.0
H253 H 0.83892 0.52908 0.84734 0.0
H254 H 0.90697 0.53875 0.84336 0.0
H255 H 0.88762 0.59077 0.95918 0.0
O256 O 0.91817 0.57917 0.71473 0.0
O257 O 0.91475 0.61112 0.77437 0.0
O258 O 0.85736 0.57752 0.82172 0.0
C259 C 0.92936 0.60348 0.73591 0.0
H260 H 0.86506 0.61972 0.52 0.0
H261 H 0.91257 0.53721 0.01388 0.0
H262 H 0.81561 0.48185 0.82329 0.0
H263 H 0.86811 0.49347 0.6131 0.0
Co264 Co 0.31872 0.90106 0.13964 0.0
C265 C 0.31328 0.88844 0.95242 0.0
C266 C 0.2774 0.88164 0.00755 0.0
C267 C 0.27442 0.87877 0.91859 0.0
N268 N 0.3018 0.88754 0.02877 0.0
N269 N 0.29709 0.88299 0.88459 0.0
H270 H 0.33364 0.89532 0.94425 0.0
H271 H 0.26325 0.88103 0.05306 0.0
C272 C 0.27347 0.84774 0.18725 0.0
O273 O 0.27465 0.83808 0.11186 0.0
N274 N 0.33483 0.9147 0.25017 0.0
C275 C 0.35921 0.9221 0.27631 0.0
C276 C 0.36027 0.92473 0.36548 0.0
C277 C 0.32168 0.9136 0.32253 0.0
N278 N 0.33658 0.91927 0.394 0.0
C279 C 0.35909 0.89275 0.07532 0.0
C280 C 0.3503 0.85133 0.17924 0.0
C281 C 0.37053 0.8608 0.11844 0.0
C282 C 0.37479 0.88172 0.06636 0.0
C283 C 0.3343 0.8625 0.18419 0.0
N284 N 0.33826 0.88252 0.13031 0.0
H285 H 0.36452 0.91022 0.03916 0.0
H286 H 0.31977 0.85583 0.2344 0.0
H287 H 0.3746 0.9238 0.23458 0.0
H288 H 0.30101 0.90667 0.3236 0.0
O289 O 0.34335 0.93285 0.08305 0.0
O290 O 0.30604 0.92579 0.13834 0.0
O291 O 0.2891 0.87161 0.205 0.0
C292 C 0.3274 0.94134 0.09701 0.0
H293 H 0.25737 0.87501 0.88167 0.0
H294 H 0.37678 0.92909 0.40646 0.0
H295 H 0.3473 0.83593 0.22362 0.0
H296 H 0.39111 0.89044 0.02195 0.0
Co297 Co 0.43284 0.31471 0.45907 0.0
C298 C 0.4306 0.30711 0.26703 0.0
C299 C 0.40681 0.27141 0.33437 0.0
C300 C 0.40363 0.26665 0.24625 0.0
N301 N 0.42421 0.29674 0.34759 0.0
N302 N 0.41857 0.28921 0.204 0.0
H303 H 0.44315 0.3274 0.25374 0.0
H304 H 0.39658 0.25748 0.38536 0.0
C305 C 0.44355 0.27044 0.49091 0.0
O306 O 0.45245 0.27262 0.41154 0.0
N307 N 0.44059 0.33199 0.57017 0.0
C308 C 0.45587 0.35747 0.58703 0.0
C309 C 0.45667 0.36104 0.67569 0.0
C310 C 0.43218 0.32044 0.64814 0.0
N311 N 0.44179 0.33771 0.71418 0.0
C312 C 0.47759 0.354 0.3714 0.0
C313 C 0.51479 0.34504 0.44471 0.0
C314 C 0.52214 0.36376 0.3789 0.0
C315 C 0.50318 0.36841 0.34366 0.0
C316 C 0.4885 0.33048 0.46959 0.0
N317 N 0.46995 0.33412 0.4295 0.0
H318 H 0.46399 0.35923 0.34563 0.0
H319 H 0.48343 0.31688 0.52238 0.0
H320 H 0.46599 0.37233 0.53852 0.0
H321 H 0.41915 0.29979 0.65602 0.0
O322 O 0.42301 0.33873 0.41256 0.0
O323 O 0.39589 0.30196 0.47877 0.0
O324 O 0.43553 0.28557 0.51758 0.0
C325 C 0.39958 0.32284 0.43856 0.0
H326 H 0.39059 0.2482 0.21585 0.0
H327 H 0.46785 0.3794 0.70906 0.0
H328 H 0.52916 0.34173 0.47647 0.0
H329 H 0.50823 0.38369 0.29625 0.0
Co330 Co 0.12984 0.42842 0.77184 0.0
C331 C 0.13152 0.42224 0.58048 0.0
C332 C 0.15984 0.41578 0.64369 0.0
C333 C 0.16096 0.4123 0.55556 0.0
N334 N 0.14181 0.42279 0.65953 0.0
N335 N 0.14324 0.41663 0.51594 0.0
H336 H 0.11538 0.42551 0.56987 0.0
H337 H 0.1711 0.41261 0.69206 0.0
C338 C 0.18276 0.44014 0.83664 0.0
O339 O 0.19391 0.45975 0.78237 0.0
N340 N 0.11736 0.4329 0.88316 0.0
C341 C 0.10305 0.44432 0.89804 0.0
C342 C 0.09984 0.44512 0.98627 0.0
C343 C 0.12245 0.42672 0.96237 0.0
N344 N 0.11223 0.43422 0.02701 0.0
C345 C 0.14914 0.47718 0.68456 0.0
C346 C 0.17283 0.50902 0.82541 0.0
C347 C 0.1703 0.52009 0.74803 0.0
C348 C 0.15896 0.50381 0.67655 0.0
C349 C 0.16313 0.48209 0.8302 0.0
N350 N 0.15109 0.46633 0.76032 0.0
H351 H 0.13805 0.46533 0.6311 0.0
H352 H 0.16427 0.47383 0.8914 0.0
H353 H 0.09602 0.45216 0.84839 0.0
H354 H 0.13421 0.41776 0.97261 0.0
O355 O 0.09928 0.42508 0.71741 0.0
O356 O 0.10209 0.39198 0.77081 0.0
O357 O 0.15808 0.42512 0.83571 0.0
C358 C 0.08811 0.40026 0.7312 0.0
H359 H 0.17391 0.40712 0.52332 0.0
H360 H 0.08938 0.45343 0.0175 0.0
H361 H 0.18129 0.52087 0.88265 0.0
H362 H 0.15567 0.51122 0.61647 0.0
Co363 Co 0.69606 0.11469 0.11949 0.0
C364 C 0.70361 0.12079 0.92775 0.0
C365 C 0.73951 0.13319 0.99454 0.0
C366 C 0.7441 0.13472 0.90632 0.0
N367 N 0.71416 0.12505 0.00825 0.0
N368 N 0.72141 0.12677 0.86434 0.0
H369 H 0.6832 0.11248 0.91493 0.0
H370 H 0.75355 0.13681 0.04515 0.0
C371 C 0.74255 0.16788 0.16465 0.0
O372 O 0.74221 0.17746 0.08812 0.0
N373 N 0.67854 0.1041 0.23022 0.0
C374 C 0.65324 0.09505 0.24724 0.0
C375 C 0.64959 0.09198 0.33587 0.0
C376 C 0.68988 0.10624 0.30816 0.0
N377 N 0.6727 0.09917 0.37425 0.0
C378 C 0.65948 0.12529 0.03611 0.0
C379 C 0.67022 0.17007 0.12359 0.0
C380 C 0.65189 0.16121 0.05599 0.0
C381 C 0.6464 0.13831 0.01333 0.0
C382 C 0.68348 0.15656 0.14327 0.0
N383 N 0.67888 0.13502 0.09668 0.0
H384 H 0.65328 0.10686 0.00549 0.0
H385 H 0.69674 0.16309 0.19748 0.0
H386 H 0.63863 0.09159 0.19895 0.0
H387 H 0.71038 0.11299 0.31619 0.0
O388 O 0.67046 0.08247 0.06753 0.0
O389 O 0.7064 0.08826 0.13064 0.0
O390 O 0.72618 0.14425 0.18313 0.0
C391 C 0.68512 0.07292 0.08832 0.0
H392 H 0.76251 0.14012 0.87572 0.0
H393 H 0.63143 0.08578 0.36946 0.0
H394 H 0.67414 0.1871 0.16089 0.0
H395 H 0.6313 0.12989 0.96432 0.0
H396 H 0.23994 0.40784 0.11727 0.0
H397 H 0.28463 0.49117 0.14553 0.0
H398 H 0.25927 0.49643 0.03088 0.0
H399 H 0.22439 0.47762 0.9222 0.0
H400 H 0.17641 0.39445 0.90224 0.0
H401 H 0.20285 0.38879 0.01339 0.0
C402 C 0.24401 0.4271 0.09834 0.0
C403 C 0.26417 0.44909 0.14 0.0
C404 C 0.22878 0.43001 0.03351 0.0
C405 C 0.2691 0.47393 0.11519 0.0
C406 C 0.25468 0.47698 0.04924 0.0
C407 C 0.21985 0.45825 0.94181 0.0
C408 C 0.19877 0.43648 0.90311 0.0
C409 C 0.23452 0.45521 0.00781 0.0
C410 C 0.19267 0.41151 0.93072 0.0
C411 C 0.20778 0.40828 0.99429 0.0
H412 H 0.78952 0.21259 0.14773 0.0
H413 H 0.7346 0.16194 0.33885 0.0
H414 H 0.76238 0.18976 0.45536 0.0
H415 H 0.80218 0.22912 0.50378 0.0
H416 H 0.8578 0.27914 0.31257 0.0
H417 H 0.83011 0.25116 0.19648 0.0
C418 C 0.78368 0.20768 0.21489 0.0
C419 C 0.76004 0.18508 0.23436 0.0
C420 C 0.79996 0.22374 0.28202 0.0
C421 C 0.75285 0.17895 0.3219 0.0
C422 C 0.76868 0.19498 0.38874 0.0
C423 C 0.80828 0.23385 0.43676 0.0
C424 C 0.83212 0.25627 0.41748 0.0
C425 C 0.79229 0.21748 0.36971 0.0
C426 C 0.8397 0.26197 0.32993 0.0
C427 C 0.82378 0.246 0.26309 0.0
H428 H 0.53985 0.74563 0.56078 0.0
H429 H 0.62344 0.78502 0.5475 0.0
H430 H 0.62644 0.81575 0.65963 0.0
H431 H 0.60495 0.83121 0.76306 0.0
H432 H 0.52136 0.78844 0.78433 0.0
H433 H 0.51869 0.75935 0.66823 0.0
C434 C 0.55872 0.7611 0.58192 0.0
C435 C 0.58138 0.76334 0.54493 0.0
C436 C 0.56028 0.77801 0.64854 0.0
C437 C 0.60571 0.78304 0.57459 0.0
C438 C 0.60742 0.80058 0.63877 0.0
C439 C 0.58621 0.81543 0.74239 0.0
C440 C 0.56339 0.81198 0.78265 0.0
C441 C 0.58481 0.79822 0.67658 0.0
C442 C 0.53924 0.79138 0.75533 0.0
C443 C 0.53766 0.7748 0.68846 0.0
H444 H 0.83556 0.57056 0.97406 0.0
H445 H 0.79009 0.57107 0.75635 0.0
H446 H 0.75873 0.57258 0.8555 0.0
H447 H 0.74405 0.57353 1.00383 0.0
H448 H 0.78795 0.57018 0.2219 0.0
H449 H 0.81988 0.56973 0.1227 0.0
C450 C 0.81891 0.57125 0.94832 0.0
C451 C 0.81533 0.57099 0.85781 0.0
C452 C 0.80064 0.57157 0.00578 0.0
C453 C 0.79335 0.57133 0.82561 0.0
C454 C 0.77543 0.57225 0.88228 0.0
C455 C 0.76072 0.57293 0.02987 0.0
C456 C 0.76367 0.57213 0.12045 0.0
C457 C 0.77886 0.57237 0.97248 0.0
C458 C 0.78518 0.57087 0.15267 0.0
C459 C 0.80353 0.57074 0.09598 0.0
H460 H 0.21477 0.78524 0.52578 0.0
H461 H 0.16396 0.73098 0.33384 0.0
H462 H 0.19043 0.76007 0.21747 0.0
H463 H 0.22905 0.80066 0.16977 0.0
H464 H 0.27915 0.85579 0.36214 0.0
H465 H 0.25222 0.82692 0.47801 0.0
C466 C 0.20945 0.77994 0.45844 0.0
C467 C 0.18715 0.75611 0.43837 0.0
C468 C 0.22481 0.79696 0.3917 0.0
C469 C 0.18054 0.74948 0.35086 0.0
C470 C 0.19589 0.76602 0.28426 0.0
C471 C 0.23401 0.80637 0.23703 0.0
C472 C 0.25616 0.83036 0.25688 0.0
C473 C 0.21817 0.78978 0.30379 0.0
C474 C 0.26216 0.83753 0.34462 0.0
C475 C 0.2468 0.82096 0.41119 0.0
H476 H 0.44374 0.27176 0.66784 0.0
H477 H 0.44521 0.22644 0.45149 0.0
H478 H 0.44587 0.19482 0.55179 0.0
H479 H 0.44534 0.17963 0.70069 0.0
H480 H 0.4463 0.22613 0.9172 0.0
H481 H 0.44549 0.2577 0.81694 0.0
C482 C 0.44405 0.25489 0.64255 0.0
C483 C 0.44417 0.25138 0.55207 0.0
C484 C 0.44478 0.23693 0.70063 0.0
C485 C 0.44506 0.22962 0.52064 0.0
C486 C 0.44533 0.21147 0.57798 0.0
C487 C 0.44522 0.19659 0.72609 0.0
C488 C 0.44563 0.20033 0.81657 0.0
C489 C 0.44507 0.21484 0.66807 0.0
C490 C 0.44595 0.2227 0.84806 0.0
C491 C 0.44537 0.24072 0.79074 0.0
H492 H 0.46204 0.63568 0.31251 0.0
H493 H 0.48545 0.60953 0.53823 0.0
H494 H 0.44692 0.56654 0.52475 0.0
H495 H 0.41067 0.53552 0.43819 0.0
H496 H 0.38357 0.56183 0.22074 0.0
H497 H 0.42036 0.6055 0.23968 0.0
C498 C 0.45823 0.62071 0.36003 0.0
C499 C 0.47651 0.62572 0.42638 0.0
C500 C 0.43599 0.59595 0.35173 0.0
C501 C 0.47151 0.60624 0.48742 0.0
C502 C 0.44966 0.58156 0.47896 0.0
C503 C 0.41173 0.55061 0.39623 0.0
C504 C 0.39383 0.5446 0.32729 0.0
C505 C 0.43224 0.57601 0.40981 0.0
C506 C 0.39706 0.56512 0.27288 0.0
C507 C 0.41804 0.59038 0.2843 0.0
H508 H 0.82542 0.45564 0.56352 0.0
H509 H 0.83112 0.44858 0.84007 0.0
H510 H 0.82867 0.40662 0.81984 0.0
H511 H 0.83469 0.37731 0.72205 0.0
H512 H 0.83244 0.3862 0.44514 0.0
H513 H 0.82327 0.42167 0.46659 0.0
C514 C 0.82535 0.4445 0.61946 0.0
C515 C 0.82889 0.4554 0.70308 0.0
C516 C 0.82499 0.4209 0.60698 0.0
C517 C 0.82839 0.44066 0.77512 0.0
C518 C 0.82732 0.41679 0.76343 0.0
C519 C 0.83142 0.38655 0.6665 0.0
C520 C 0.83463 0.37947 0.58213 0.0
C521 C 0.8271 0.4075 0.67947 0.0
C522 C 0.83006 0.3913 0.51062 0.0
C523 C 0.82511 0.41177 0.52296 0.0
H524 H 0.47484 0.86109 0.11813 0.0
H525 H 0.44489 0.82184 0.8726 0.0
H526 H 0.40401 0.82051 0.90063 0.0
H527 H 0.37824 0.83453 0.98864 0.0
H528 H 0.40704 0.86953 0.23879 0.0
H529 H 0.4465 0.86697 0.21685 0.0
C530 C 0.45939 0.85124 0.07124 0.0
C531 C 0.46386 0.84211 0.99193 0.0
C532 C 0.43541 0.84953 0.08909 0.0
C533 C 0.44298 0.83007 0.93275 0.0
C534 C 0.41925 0.82896 0.94914 0.0
C535 C 0.39282 0.84072 0.03938 0.0
C536 C 0.38983 0.85206 0.11544 0.0
C537 C 0.41549 0.83924 0.02609 0.0
C538 C 0.40886 0.86039 0.18046 0.0
C539 C 0.43152 0.85922 0.16734 0.0
H540 H 0.62062 0.44943 0.1902 0.0
H541 H 0.64428 0.47256 0.45475 0.0
H542 H 0.60797 0.43163 0.50707 0.0
H543 H 0.5649 0.39353 0.47793 0.0
H544 H 0.54007 0.37171 0.21338 0.0
H545 H 0.58137 0.40731 0.16066 0.0
C546 C 0.61835 0.445 0.25902 0.0
C547 C 0.63495 0.46395 0.31859 0.0
C548 C 0.59685 0.42178 0.28874 0.0
C549 C 0.63164 0.4582 0.40779 0.0
C550 C 0.61077 0.43489 0.43774 0.0
C551 C 0.56897 0.39605 0.40891 0.0
C552 C 0.54943 0.38024 0.3496 0.0
C553 C 0.59251 0.41711 0.379 0.0
C554 C 0.55481 0.38383 0.26019 0.0
C555 C 0.57837 0.40426 0.23 0.0
H556 H 0.19402 0.5556 0.61794 0.0
H557 H 0.15709 0.54532 0.86719 0.0
H558 H 0.15657 0.5858 0.84737 0.0
H559 H 0.16098 0.62037 0.75173 0.0
H560 H 0.19902 0.63208 0.50332 0.0
H561 H 0.2039 0.59422 0.52956 0.0
C562 C 0.18627 0.56249 0.66853 0.0
C563 C 0.17547 0.54732 0.74378 0.0
C564 C 0.1856 0.58563 0.65602 0.0
C565 C 0.16576 0.55665 0.80912 0.0
C566 C 0.16517 0.57967 0.79731 0.0
C567 C 0.17114 0.6154 0.70393 0.0
C568 C 0.17936 0.62928 0.62496 0.0
C569 C 0.17428 0.59385 0.71991 0.0
C570 C 0.19186 0.62164 0.56379 0.0
C571 C 0.19487 0.60003 0.57904 0.0
H572 H 0.62308 0.17323 0.16341 0.0
H573 H 0.6449 0.17572 0.89559 0.0
H574 H 0.60969 0.18309 0.85011 0.0
H575 H 0.56759 0.17965 0.8849 0.0
H576 H 0.54479 0.17532 0.15238 0.0
H577 H 0.58553 0.17845 0.1997 0.0
C578 C 0.6207 0.1764 0.0955 0.0
C579 C 0.63631 0.17362 0.03287 0.0
C580 C 0.59988 0.17986 0.06957 0.0
C581 C 0.63291 0.17755 0.94488 0.0
C582 C 0.61268 0.18161 0.91879 0.0
C583 C 0.57204 0.18043 0.95349 0.0
C584 C 0.55313 0.17694 0.01501 0.0
C585 C 0.59523 0.18145 0.9802 0.0
C586 C 0.55902 0.17775 0.10383 0.0
C587 C 0.58224 0.17937 0.13092 0.0
H588 H 0.32252 0.36646 0.43291 0.0
H589 H 0.34519 0.37776 0.16404 0.0
H590 H 0.36917 0.35456 0.18542 0.0
H591 H 0.38835 0.33636 0.28522 0.0
H592 H 0.36472 0.32325 0.55308 0.0
H593 H 0.33611 0.34146 0.528 0.0
C594 C 0.33197 0.36295 0.37864 0.0
C595 C 0.33191 0.37338 0.29673 0.0
C596 C 0.34579 0.34963 0.39172 0.0
C597 C 0.34464 0.36937 0.22705 0.0
C598 C 0.35856 0.35638 0.23955 0.0
C599 C 0.37645 0.33699 0.3375 0.0
C600 C 0.37864 0.32872 0.42092 0.0
C601 C 0.35997 0.34721 0.32218 0.0
C602 C 0.36316 0.32943 0.4883 0.0
C603 C 0.34697 0.33999 0.474 0.0
H604 H 0.0605 0.41412 0.62889 0.0
H605 H 0.05481 0.3479 0.76405 0.0
H606 H 0.00918 0.32154 0.71755 0.0
H607 H 0.96984 0.31856 0.64509 0.0
H608 H 0.9773 0.38664 0.51764 0.0
H609 H 0.02333 0.41093 0.55361 0.0
C610 C 0.04941 0.39388 0.64833 0.0
C611 C 0.06102 0.38309 0.70071 0.0
C612 C 0.02342 0.37915 0.62225 0.0
C613 C 0.04632 0.35673 0.72406 0.0
C614 C 0.02022 0.34169 0.69748 0.0
C615 C 0.98179 0.33855 0.62411 0.0
C616 C 0.97031 0.35085 0.57849 0.0
C617 C 1.00841 0.3528 0.64735 0.0
C618 C 0.98576 0.37685 0.55279 0.0
C619 C 0.01206 0.39077 0.57353 0.0
H620 H 0.65718 0.04789 0.94768 0.0
H621 H 0.69667 0.03821 0.16688 0.0
H622 H 0.67958 0.99237 0.12737 0.0
H623 H 0.64935 0.9539 0.03787 0.0
H624 H 0.61015 0.96489 0.82051 0.0
H625 H 0.63143 0.01143 0.85076 0.0
C626 C 0.66224 0.0358 0.98651 0.0
C627 C 0.6778 0.04623 0.06085 0.0
C628 C 0.65245 0.00972 0.96323 0.0
C629 C 0.68462 0.03054 0.10955 0.0
C630 C 0.67478 1.00434 0.08704 0.0
C631 C 0.64625 0.96675 0.99579 0.0
C632 C 0.62863 0.95625 0.92615 0.0
C633 C 0.6582 0.99355 0.01494 0.0
C634 C 0.62401 0.97276 0.87342 0.0
C635 C 0.63597 0.99929 0.89121 0.0
H636 H 0.61654 0.66161 0.24293 0.0
H637 H 0.67406 0.71061 0.43067 0.0
H638 H 0.70105 0.69144 0.3917 0.0
H639 H 0.70528 0.65652 0.31584 0.0
H640 H 0.64623 0.6073 0.13251 0.0
H641 H 0.62299 0.63095 0.15685 0.0
C642 C 0.63517 0.66836 0.27462 0.0
C643 C 0.64318 0.68722 0.34033 0.0
C644 C 0.65027 0.65714 0.25242 0.0
C645 C 0.66749 0.69608 0.37989 0.0
C646 C 0.68283 0.68501 0.35789 0.0
C647 C 0.68777 0.65165 0.27953 0.0
C648 C 0.6775 0.63046 0.22175 0.0
C649 C 0.67407 0.66499 0.29579 0.0
C650 C 0.65451 0.62375 0.17649 0.0
C651 C 0.64114 0.63713 0.19088 0.0
H652 H 0.04583 0.68846 0.64169 0.0
H653 H 0.04896 0.61824 0.59921 0.0
H654 H 1.00348 0.59199 0.63902 0.0
H655 H 0.96317 0.58848 0.68735 0.0
H656 H 0.95823 0.65729 0.73699 0.0
H657 H 1.00405 0.6846 0.69416 0.0
C658 C 0.03638 0.66743 0.64064 0.0
C659 C 0.05074 0.6553 0.61728 0.0
C660 C 0.01002 0.65221 0.66568 0.0
C661 C 0.03841 0.62805 0.61725 0.0
C662 C 0.01237 0.61298 0.64003 0.0
C663 C 0.972 0.60947 0.68893 0.0
C664 C 0.95725 0.62082 0.71508 0.0
C665 C 0.99808 0.62481 0.66481 0.0
C666 C 0.96919 0.64806 0.71738 0.0
C667 C 0.99534 0.66365 0.6925 0.0
H668 H 0.36588 0.06029 0.04261 0.0
H669 H 0.40096 0.04665 0.81932 0.0
H670 H 0.37776 1.0 0.84941 0.0
H671 H 0.35252 0.96428 0.95008 0.0
H672 H 0.31717 0.97684 0.17483 0.0
H673 H 0.33507 0.02264 0.1334 0.0
C674 C 0.36758 0.04687 0.99911 0.0
C675 C 0.38469 0.05661 0.9281 0.0
C676 C 0.35454 0.02005 0.01812 0.0
C677 C 0.38749 0.03935 0.87332 0.0
C678 C 0.37445 0.01277 0.89105 0.0
C679 C 0.3484 0.97698 0.98921 0.0
C680 C 0.3339 0.96744 0.0659 0.0
C681 C 0.35872 1.00307 0.96494 0.0
C682 C 0.32832 0.98385 0.11551 0.0
C683 C 0.33867 0.01003 0.09202 0.0
H684 H 0.27398 0.38402 0.65512 0.0
H685 H 0.33532 0.45887 0.57223 0.0
H686 H 0.35467 0.46772 0.7173 0.0
H687 H 0.35367 0.45419 0.86815 0.0
H688 H 0.29237 0.37933 0.95252 0.0
H689 H 0.27348 0.37009 0.8068 0.0
C690 C 0.29139 0.40226 0.66993 0.0
C691 C 0.30326 0.4209 0.60471 0.0
C692 C 0.3025 0.407 0.75308 0.0
C693 C 0.32602 0.44443 0.62268 0.0
C694 C 0.33708 0.4494 0.70509 0.0
C695 C 0.33648 0.43571 0.85391 0.0
C696 C 0.32442 0.41746 0.92028 0.0
C697 C 0.32556 0.43077 0.77068 0.0
C698 C 0.30185 0.3937 0.90198 0.0
C699 C 0.29102 0.38845 0.81898 0.0
H700 H 0.88967 0.35117 0.1474 0.0
H701 H 0.93289 0.31283 0.21012 0.0
H702 H 0.92555 0.29449 0.06359 0.0
H703 H 0.9075 0.2903 0.91637 0.0
H704 H 0.86389 0.32843 0.85551 0.0
H705 H 0.87046 0.34582 1.00273 0.0
C706 C 0.89777 0.33912 0.12835 0.0
C707 C 0.91209 0.33361 0.18853 0.0
C708 C 0.89311 0.32839 0.04483 0.0
C709 C 0.9219 0.31736 0.16425 0.0
C710 C 0.91763 0.30684 0.08081 0.0
C711 C 0.89906 0.302 0.93611 0.0
C712 C 0.88529 0.30815 0.87553 0.0
C713 C 0.9032 0.31218 0.02057 0.0
C714 C 0.87473 0.32365 0.90123 0.0
C715 C 0.87853 0.33363 0.98512 0.0
H716 H 0.58059 0.84937 0.28847 0.0
H717 H 0.62001 0.93042 0.21793 0.0
H718 H 0.61303 0.94196 0.36389 0.0
H719 H 0.59464 0.92858 0.51133 0.0
H720 H 0.55637 0.84757 0.58074 0.0
H721 H 0.56371 0.83623 0.43524 0.0
C722 C 0.58816 0.86959 0.30562 0.0
C723 C 0.60082 0.88901 0.2429 0.0
C724 C 0.58381 0.87598 0.38887 0.0
C725 C 0.61008 0.91514 0.26543 0.0
C726 C 0.606 0.92172 0.34854 0.0
C727 C 0.58766 0.9085 0.49351 0.0
C728 C 0.57478 0.88886 0.55527 0.0
C729 C 0.59251 0.90224 0.41041 0.0
C730 C 0.56622 0.86288 0.53322 0.0
C731 C 0.57053 0.85644 0.45055 0.0
H732 H 0.72123 0.58604 0.86891 0.0
H733 H 0.64099 0.56417 0.82599 0.0
H734 H 0.64895 0.57094 0.67067 0.0
H735 H 0.67845 0.58297 0.54678 0.0
H736 H 0.75872 0.60496 0.58792 0.0
H737 H 0.75119 0.59918 0.74427 0.0
C738 C 0.70552 0.58302 0.8259 0.0
C739 C 0.68046 0.57442 0.85976 0.0
C740 C 0.71027 0.58713 0.73615 0.0
C741 C 0.66034 0.57032 0.80221 0.0
C742 C 0.66491 0.57437 0.71316 0.0
C743 C 0.69428 0.58625 0.58961 0.0
C744 C 0.7191 0.59421 0.5551 0.0
C745 C 0.68974 0.58262 0.67935 0.0
C746 C 0.73948 0.59901 0.61242 0.0
C747 C 0.73512 0.59551 0.70194 0.0
H748 H 0.1336 0.71202 0.22267 0.0
H749 H 0.07316 0.63273 0.17976 0.0
H750 H 0.07481 0.64099 0.02408 0.0
H751 H 0.09409 0.6705 0.89951 0.0
H752 H 0.15541 0.74945 0.94393 0.0
H753 H 0.15217 0.74163 0.09948 0.0
C754 C 0.12059 0.69654 0.17991 0.0
C755 C 0.10343 0.67169 0.21392 0.0
C756 C 0.12171 0.70139 0.09018 0.0
C757 C 0.08688 0.65194 0.15609 0.0
C758 C 0.08772 0.65669 0.06676 0.0
C759 C 0.10689 0.68601 0.94283 0.0
C760 C 0.12502 0.71058 0.90882 0.0
C761 C 0.10526 0.68128 0.0329 0.0
C762 C 0.14102 0.73045 0.9672 0.0
C763 C 0.13934 0.72595 0.05663 0.0
H764 H 0.43074 0.14356 0.56854 0.0
H765 H 0.45136 0.08429 0.5254 0.0
H766 H 0.44509 0.08606 0.36995 0.0
H767 H 0.43389 0.10433 0.24591 0.0
H768 H 0.41306 0.16343 0.28745 0.0
H769 H 0.41828 0.16105 0.44387 0.0
C770 C 0.4336 0.1308 0.52549 0.0
C771 C 0.44172 0.11392 0.55939 0.0
C772 C 0.42976 0.13176 0.43563 0.0
C773 C 0.44559 0.09781 0.50169 0.0
C774 C 0.44183 0.09867 0.41252 0.0
C775 C 0.43077 0.11694 0.28885 0.0
C776 C 0.42329 0.13421 0.25439 0.0
C777 C 0.43409 0.11567 0.3787 0.0
C778 C 0.41866 0.14985 0.31186 0.0
C779 C 0.42186 0.14864 0.40146 0.0
H780 H 0.62937 0.74805 0.02934 0.0
H781 H 0.55503 0.68276 0.0969 0.0
H782 H 0.54994 0.6651 0.95039 0.0
H783 H 0.56703 0.66792 0.80443 0.0
H784 H 0.64181 0.73252 0.7354 0.0
H785 H 0.64667 0.7508 0.88113 0.0
C786 C 0.61198 0.73024 0.0108 0.0
C787 C 0.59248 0.71672 0.0724 0.0
C788 C 0.60953 0.71993 0.9271 0.0
C789 C 0.57013 0.69338 0.04942 0.0
C790 C 0.56732 0.68325 0.96623 0.0
C791 C 0.58458 0.68572 0.82187 0.0
C792 C 0.60412 0.69876 0.7599 0.0
C793 C 0.58705 0.69617 0.90497 0.0
C794 C 0.62652 0.72219 0.78248 0.0
C795 C 0.62925 0.73267 0.86547 0.0
H796 H 0.87134 0.5832 0.09988 0.0
H797 H 0.92835 0.55959 0.14442 0.0
H798 H 0.92648 0.56569 0.29997 0.0
H799 H 0.9085 0.57727 0.42353 0.0
H800 H 0.85133 0.60072 0.3804 0.0
H801 H 0.85438 0.5963 0.2241 0.0
C802 C 0.88361 0.57968 0.14326 0.0
C803 C 0.89985 0.57074 0.10982 0.0
C804 C 0.88254 0.58334 0.23311 0.0
C805 C 0.91533 0.56602 0.16788 0.0
C806 C 0.91439 0.56965 0.25706 0.0
C807 C 0.8964 0.5811 0.38036 0.0
C808 C 0.87949 0.58909 0.41444 0.0
C809 C 0.89791 0.57808 0.29047 0.0
C810 C 0.86462 0.59468 0.35646 0.0
C811 C 0.86617 0.59192 0.26685 0.0
H812 H 0.35045 0.8982 0.5226 0.0
H813 H 0.30088 0.92966 0.4611 0.0
H814 H 0.28255 0.91956 0.60772 0.0
H815 H 0.28137 0.90239 0.7546 0.0
H816 H 0.33066 0.87037 0.81399 0.0
H817 H 0.34831 0.8799 0.66703 0.0
C818 C 0.33592 0.90317 0.54187 0.0
C819 C 0.32725 0.91497 0.48188 0.0
C820 C 0.32525 0.89693 0.62552 0.0
C821 C 0.30788 0.92066 0.50666 0.0
C822 C 0.29737 0.91482 0.59022 0.0
C823 C 0.29561 0.89711 0.73469 0.0
C824 C 0.30475 0.88575 0.79493 0.0
C825 C 0.30586 0.90287 0.6502 0.0
C826 C 0.32351 0.87932 0.76876 0.0
C827 C 0.33364 0.88481 0.68492 0.0
H828 H 0.42758 0.29209 0.79667 0.0
H829 H 0.44632 0.37137 0.84101 0.0
H830 H 0.44061 0.36324 0.9965 0.0
H831 H 0.43037 0.33384 0.12026 0.0
H832 H 0.41144 0.25451 0.07744 0.0
H833 H 0.41615 0.26221 0.92107 0.0
C834 C 0.43015 0.30756 0.83997 0.0
C835 C 0.43756 0.33242 0.80633 0.0
C836 C 0.42665 0.3027 0.92989 0.0
C837 C 0.44108 0.3522 0.86443 0.0
C838 C 0.43765 0.34752 0.95366 0.0
C839 C 0.42757 0.31827 0.07708 0.0
C840 C 0.42075 0.29365 0.11122 0.0
C841 C 0.4306 0.32292 0.98718 0.0
C842 C 0.41653 0.27359 0.05335 0.0
C843 C 0.41943 0.27805 0.96375 0.0
H844 H 0.1255 0.44455 0.43239 0.0
H845 H 0.15006 0.38823 0.39151 0.0
H846 H 0.14211 0.38824 0.23568 0.0
H847 H 0.12799 0.40417 0.11154 0.0
H848 H 0.10468 0.46157 0.15416 0.0
H849 H 0.11151 0.46044 0.3089 0.0
C850 C 0.1288 0.43199 0.38973 0.0
C851 C 0.13824 0.4163 0.42399 0.0
C852 C 0.12422 0.43213 0.30034 0.0
C853 C 0.14299 0.40064 0.36704 0.0
C854 C 0.13831 0.40055 0.27791 0.0
C855 C 0.12454 0.41662 0.15408 0.0
C856 C 0.11572 0.43291 0.11971 0.0
C857 C 0.12898 0.41628 0.24376 0.0
C858 C 0.11107 0.44851 0.17746 0.0
C859 C 0.11517 0.44806 0.26653 0.0
H860 H 0.71841 0.13045 0.45629 0.0
H861 H 0.63899 0.07066 0.50167 0.0
H862 H 0.64713 0.07375 0.65758 0.0
H863 H 0.67661 0.09352 0.78133 0.0
H864 H 0.75587 0.15382 0.73672 0.0
H865 H 0.74809 0.15001 0.58029 0.0
C866 C 0.7029 0.11791 0.49991 0.0
C867 C 0.67802 0.10042 0.46649 0.0
C868 C 0.70771 0.11983 0.58996 0.0
C869 C 0.6582 0.08456 0.52501 0.0
C870 C 0.66288 0.08623 0.61442 0.0
C871 C 0.69217 0.10606 0.73778 0.0
C872 C 0.71681 0.12407 0.77153 0.0
C873 C 0.6875 0.10392 0.64772 0.0
C874 C 0.7368 0.13964 0.71308 0.0
C875 C 0.73232 0.13756 0.62342 0.0
loop_
_geom_bond_atom_site_label_1
_geom_bond_atom_site_label_2
_geom_bond_distance
_geom_bond_site_symmetry_2
_ccdc_geom_bond_type
Co0 N4 2.148 . S
Co0 N10 2.128 . S
Co0 N20 2.194 . S
Co0 O25 2.351 . S
Co0 O26 2.155 . S
Co0 O27 2.096 . S
C1 N4 1.301 . S
C1 N5 1.328 . S
C1 H6 0.930 . S
C2 C3 1.333 . S
C2 N4 1.317 . S
C2 H7 0.930 . S
C3 C2 1.333 . S
C3 N5 1.350 . S
C3 H29 0.931 . S
N4 Co0 2.148 . S
N4 C1 1.301 . S
N4 C2 1.317 . S
N5 C1 1.328 . S
N5 C3 1.350 . S
H6 C1 0.930 . S
H7 C2 0.930 . S
C8 O9 1.224 . S
C8 O27 1.247 . S
O9 C8 1.224 . S
N10 Co0 2.128 . S
N10 C11 1.355 . S
N10 C13 1.311 . S
C11 N10 1.355 . S
C11 C12 1.363 . S
C11 H23 0.929 . S
C12 C11 1.363 . S
C12 N14 1.375 1_554 S
C12 H30 0.931 1_554 S
C13 N10 1.311 . S
C13 N14 1.347 1_554 S
C13 H24 0.929 . S
N14 C12 1.375 1_556 S
N14 C13 1.347 1_556 S
C15 C18 1.365 . S
C15 N20 1.328 . S
C15 H21 0.929 . S
C16 C17 1.362 . S
C16 C19 1.378 . S
C16 H31 0.929 . S
C17 C16 1.362 . S
C17 C18 1.366 . S
C18 C15 1.365 . S
C18 C17 1.366 . S
C18 H32 0.930 . S
C19 C16 1.378 . S
C19 N20 1.315 . S
C19 H22 0.930 . S
N20 Co0 2.194 . S
N20 C15 1.328 . S
N20 C19 1.315 . S
H21 C15 0.929 . S
H22 C19 0.930 . S
H23 C11 0.929 . S
H24 C13 0.929 . S
O25 Co0 2.351 . S
O25 C28 1.244 . S
O26 Co0 2.155 . S
O26 C28 1.240 . S
O27 Co0 2.096 . S
O27 C8 1.247 . S
C28 O25 1.244 . S
C28 O26 1.240 . S
H29 C3 0.931 . S
H30 C12 0.931 1_556 S
H31 C16 0.929 . S
H32 C18 0.930 . S
Co33 N37 2.148 . S
Co33 N43 2.128 . S
Co33 N53 2.194 . S
Co33 O58 2.351 . S
Co33 O59 2.155 . S
Co33 O60 2.096 . S
C34 N37 1.301 . S
C34 N38 1.328 . S
C34 H39 0.930 . S
C35 C36 1.333 . S
C35 N37 1.317 . S
C35 H40 0.930 . S
C36 C35 1.333 . S
C36 N38 1.350 . S
C36 H62 0.931 . S
N37 Co33 2.148 . S
N37 C34 1.301 . S
N37 C35 1.317 . S
N38 C34 1.328 . S
N38 C36 1.350 . S
H39 C34 0.930 . S
H40 C35 0.930 . S
C41 O42 1.224 . S
C41 O60 1.247 . S
O42 C41 1.224 . S
N43 Co33 2.128 . S
N43 C44 1.355 . S
N43 C46 1.311 . S
C44 N43 1.355 . S
C44 C45 1.363 . S
C44 H56 0.929 . S
C45 C44 1.363 . S
C45 N47 1.375 . S
C45 H63 0.931 . S
C46 N43 1.311 . S
C46 N47 1.347 . S
C46 H57 0.929 . S
N47 C45 1.375 . S
N47 C46 1.347 . S
C48 C51 1.365 . S
C48 N53 1.328 . S
C48 H54 0.929 . S
C49 C50 1.362 . S
C49 C52 1.378 . S
C49 H64 0.929 . S
C50 C49 1.362 . S
C50 C51 1.366 . S
C51 C48 1.365 . S
C51 C50 1.366 . S
C51 H65 0.930 . S
C52 C49 1.378 . S
C52 N53 1.315 . S
C52 H55 0.930 . S
N53 Co33 2.194 . S
N53 C48 1.328 . S
N53 C52 1.315 . S
H54 C48 0.929 . S
H55 C52 0.930 . S
H56 C44 0.929 . S
H57 C46 0.929 . S
O58 Co33 2.351 . S
O58 C61 1.244 . S
O59 Co33 2.155 . S
O59 C61 1.240 . S
O60 Co33 2.096 . S
O60 C41 1.247 . S
C61 O58 1.244 . S
C61 O59 1.240 . S
H62 C36 0.931 . S
H63 C45 0.931 . S
H64 C49 0.929 . S
H65 C51 0.930 . S
Co66 N70 2.148 1_556 S
Co66 N76 2.128 . S
Co66 N86 2.194 . S
Co66 O91 2.351 . S
Co66 O92 2.155 . S
Co66 O93 2.096 . S
C67 N70 1.301 . S
C67 N71 1.328 . S
C67 H72 0.930 . S
C68 C69 1.333 . S
C68 N70 1.317 . S
C68 H73 0.930 . S
C69 C68 1.333 . S
C69 N71 1.350 . S
C69 H95 0.931 . S
N70 Co66 2.148 1_554 S
N70 C67 1.301 . S
N70 C68 1.317 . S
N71 C67 1.328 . S
N71 C69 1.350 . S
H72 C67 0.930 . S
H73 C68 0.930 . S
C74 O75 1.224 . S
C74 O93 1.247 . S
O75 C74 1.224 . S
N76 Co66 2.128 . S
N76 C77 1.355 . S
N76 C79 1.311 . S
C77 N76 1.355 . S
C77 C78 1.363 . S
C77 H89 0.929 . S
C78 C77 1.363 . S
C78 N80 1.375 . S
C78 H96 0.931 . S
C79 N76 1.311 . S
C79 N80 1.347 . S
C79 H90 0.929 . S
N80 C78 1.375 . S
N80 C79 1.347 . S
C81 C84 1.365 . S
C81 N86 1.328 . S
C81 H87 0.929 . S
C82 C83 1.362 . S
C82 C85 1.378 . S
C82 H97 0.929 . S
C83 C82 1.362 . S
C83 C84 1.366 . S
C84 C81 1.365 . S
C84 C83 1.366 . S
C84 H98 0.930 . S
C85 C82 1.378 . S
C85 N86 1.315 . S
C85 H88 0.930 . S
N86 Co66 2.194 . S
N86 C81 1.328 . S
N86 C85 1.315 . S
H87 C81 0.929 . S
H88 C85 0.930 . S
H89 C77 0.929 . S
H90 C79 0.929 . S
O91 Co66 2.351 . S
O91 C94 1.244 . S
O92 Co66 2.155 . S
O92 C94 1.240 . S
O93 Co66 2.096 . S
O93 C74 1.247 . S
C94 O91 1.244 . S
C94 O92 1.240 . S
H95 C69 0.931 . S
H96 C78 0.931 . S
H97 C82 0.929 . S
H98 C84 0.930 . S
Co99 N103 2.148 . S
Co99 N109 2.128 . S
Co99 N119 2.194 . S
Co99 O124 2.351 . S
Co99 O125 2.155 . S
Co99 O126 2.096 . S
C100 N103 1.301 . S
C100 N104 1.328 . S
C100 H105 0.930 . S
C101 C102 1.333 . S
C101 N103 1.317 . S
C101 H106 0.930 . S
C102 C101 1.333 . S
C102 N104 1.350 . S
C102 H128 0.931 . S
N103 Co99 2.148 . S
N103 C100 1.301 . S
N103 C101 1.317 . S
N104 C100 1.328 . S
N104 C102 1.350 . S
H105 C100 0.930 . S
H106 C101 0.930 . S
C107 O108 1.224 . S
C107 O126 1.247 . S
O108 C107 1.224 . S
N109 Co99 2.128 . S
N109 C110 1.355 . S
N109 C112 1.311 . S
C110 N109 1.355 . S
C110 C111 1.363 . S
C110 H122 0.929 . S
C111 C110 1.363 . S
C111 N113 1.375 1_554 S
C111 H129 0.931 1_554 S
C112 N109 1.311 . S
C112 N113 1.347 1_554 S
C112 H123 0.929 . S
N113 C111 1.375 1_556 S
N113 C112 1.347 1_556 S
C114 C117 1.365 . S
C114 N119 1.328 . S
C114 H120 0.929 . S
C115 C116 1.362 . S
C115 C118 1.378 . S
C115 H130 0.929 . S
C116 C115 1.362 . S
C116 C117 1.366 . S
C117 C114 1.365 . S
C117 C116 1.366 . S
C117 H131 0.930 . S
C118 C115 1.378 . S
C118 N119 1.315 . S
C118 H121 0.930 . S
N119 Co99 2.194 . S
N119 C114 1.328 . S
N119 C118 1.315 . S
H120 C114 0.929 . S
H121 C118 0.930 . S
H122 C110 0.929 . S
H123 C112 0.929 . S
O124 Co99 2.351 . S
O124 C127 1.244 . S
O125 Co99 2.155 . S
O125 C127 1.240 . S
O126 Co99 2.096 . S
O126 C107 1.247 . S
C127 O124 1.244 . S
C127 O125 1.240 . S
H128 C102 0.931 . S
H129 C111 0.931 1_556 S
H130 C115 0.929 . S
H131 C117 0.930 . S
Co132 N136 2.148 . S
Co132 N142 2.128 . S
Co132 N152 2.194 . S
Co132 O157 2.351 . S
Co132 O158 2.155 . S
Co132 O159 2.096 . S
C133 N136 1.301 . S
C133 N137 1.328 . S
C133 H138 0.930 . S
C134 C135 1.333 . S
C134 N136 1.317 . S
C134 H139 0.930 . S
C135 C134 1.333 . S
C135 N137 1.350 . S
C135 H161 0.931 . S
N136 Co132 2.148 . S
N136 C133 1.301 . S
N136 C134 1.317 . S
N137 C133 1.328 . S
N137 C135 1.350 . S
H138 C133 0.930 . S
H139 C134 0.930 . S
C140 O141 1.224 . S
C140 O159 1.247 . S
O141 C140 1.224 . S
N142 Co132 2.128 . S
N142 C143 1.355 . S
N142 C145 1.311 . S
C143 N142 1.355 . S
C143 C144 1.363 . S
C143 H155 0.929 . S
C144 C143 1.363 . S
C144 N146 1.375 . S
C144 H162 0.931 . S
C145 N142 1.311 . S
C145 N146 1.347 . S
C145 H156 0.929 . S
N146 C144 1.375 . S
N146 C145 1.347 . S
C147 C150 1.365 . S
C147 N152 1.328 . S
C147 H153 0.929 . S
C148 C149 1.362 . S
C148 C151 1.378 . S
C148 H163 0.929 . S
C149 C148 1.362 . S
C149 C150 1.366 . S
C150 C147 1.365 . S
C150 C149 1.366 . S
C150 H164 0.930 . S
C151 C148 1.378 . S
C151 N152 1.315 . S
C151 H154 0.930 . S
N152 Co132 2.194 . S
N152 C147 1.328 . S
N152 C151 1.315 . S
H153 C147 0.929 . S
H154 C151 0.930 . S
H155 C143 0.929 . S
H156 C145 0.929 . S
O157 Co132 2.351 . S
O157 C160 1.244 . S
O158 Co132 2.155 . S
O158 C160 1.240 . S
O159 Co132 2.096 . S
O159 C140 1.247 . S
C160 O157 1.244 . S
C160 O158 1.240 . S
H161 C135 0.931 . S
H162 C144 0.931 . S
H163 C148 0.929 . S
H164 C150 0.930 . S
Co165 N169 2.148 1_556 S
Co165 N175 2.128 . S
Co165 N185 2.194 . S
Co165 O190 2.351 . S
Co165 O191 2.155 . S
Co165 O192 2.096 . S
C166 N169 1.301 . S
C166 N170 1.328 . S
C166 H171 0.930 . S
C167 C168 1.333 . S
C167 N169 1.317 . S
C167 H172 0.930 . S
C168 C167 1.333 . S
C168 N170 1.350 . S
C168 H194 0.931 . S
N169 Co165 2.148 1_554 S
N169 C166 1.301 . S
N169 C167 1.317 . S
N170 C166 1.328 . S
N170 C168 1.350 . S
H171 C166 0.930 . S
H172 C167 0.930 . S
C173 O174 1.224 . S
C173 O192 1.247 . S
O174 C173 1.224 . S
N175 Co165 2.128 . S
N175 C176 1.355 . S
N175 C178 1.311 . S
C176 N175 1.355 . S
C176 C177 1.363 . S
C176 H188 0.929 . S
C177 C176 1.363 . S
C177 N179 1.375 . S
C177 H195 0.931 . S
C178 N175 1.311 . S
C178 N179 1.347 . S
C178 H189 0.929 . S
N179 C177 1.375 . S
N179 C178 1.347 . S
C180 C183 1.365 . S
C180 N185 1.328 . S
C180 H186 0.929 . S
C181 C182 1.362 . S
C181 C184 1.378 . S
C181 H196 0.929 . S
C182 C181 1.362 . S
C182 C183 1.366 . S
C183 C180 1.365 . S
C183 C182 1.366 . S
C183 H197 0.930 . S
C184 C181 1.378 . S
C184 N185 1.315 . S
C184 H187 0.930 . S
N185 Co165 2.194 . S
N185 C180 1.328 . S
N185 C184 1.315 . S
H186 C180 0.929 . S
H187 C184 0.930 . S
H188 C176 0.929 . S
H189 C178 0.929 . S
O190 Co165 2.351 . S
O190 C193 1.244 . S
O191 Co165 2.155 . S
O191 C193 1.240 . S
O192 Co165 2.096 . S
O192 C173 1.247 . S
C193 O190 1.244 . S
C193 O191 1.240 . S
H194 C168 0.931 . S
H195 C177 0.931 . S
H196 C181 0.929 . S
H197 C183 0.930 . S
Co198 N202 2.148 . S
Co198 N208 2.128 . S
Co198 N218 2.194 . S
Co198 O223 2.351 . S
Co198 O224 2.155 . S
Co198 O225 2.096 . S
C199 N202 1.301 . S
C199 N203 1.328 . S
C199 H204 0.930 . S
C200 C201 1.333 . S
C200 N202 1.317 . S
C200 H205 0.930 . S
C201 C200 1.333 . S
C201 N203 1.350 . S
C201 H227 0.931 . S
N202 Co198 2.148 . S
N202 C199 1.301 . S
N202 C200 1.317 . S
N203 C199 1.328 . S
N203 C201 1.350 . S
H204 C199 0.930 . S
H205 C200 0.930 . S
C206 O207 1.224 . S
C206 O225 1.247 . S
O207 C206 1.224 . S
N208 Co198 2.128 . S
N208 C209 1.355 . S
N208 C211 1.311 . S
C209 N208 1.355 . S
C209 C210 1.363 . S
C209 H221 0.929 . S
C210 C209 1.363 . S
C210 N212 1.375 . S
C210 H228 0.931 . S
C211 N208 1.311 . S
C211 N212 1.347 . S
C211 H222 0.929 . S
N212 C210 1.375 . S
N212 C211 1.347 . S
C213 C216 1.365 . S
C213 N218 1.328 . S
C213 H219 0.929 . S
C214 C215 1.362 . S
C214 C217 1.378 . S
C214 H229 0.929 . S
C215 C214 1.362 . S
C215 C216 1.366 . S
C216 C213 1.365 . S
C216 C215 1.366 . S
C216 H230 0.930 . S
C217 C214 1.378 . S
C217 N218 1.315 . S
C217 H220 0.930 . S
N218 Co198 2.194 . S
N218 C213 1.328 . S
N218 C217 1.315 . S
H219 C213 0.929 . S
H220 C217 0.930 . S
H221 C209 0.929 . S
H222 C211 0.929 . S
O223 Co198 2.351 . S
O223 C226 1.244 . S
O224 Co198 2.155 . S
O224 C226 1.240 . S
O225 Co198 2.096 . S
O225 C206 1.247 . S
C226 O223 1.244 . S
C226 O224 1.240 . S
H227 C201 0.931 . S
H228 C210 0.931 . S
H229 C214 0.929 . S
H230 C216 0.930 . S
Co231 N235 2.148 . S
Co231 N241 2.128 . S
Co231 N251 2.194 . S
Co231 O256 2.351 . S
Co231 O257 2.155 . S
Co231 O258 2.096 . S
C232 N235 1.301 . S
C232 N236 1.328 . S
C232 H237 0.930 . S
C233 C234 1.333 . S
C233 N235 1.317 . S
C233 H238 0.930 . S
C234 C233 1.333 . S
C234 N236 1.350 . S
C234 H260 0.931 . S
N235 Co231 2.148 . S
N235 C232 1.301 . S
N235 C233 1.317 . S
N236 C232 1.328 . S
N236 C234 1.350 . S
H237 C232 0.930 . S
H238 C233 0.930 . S
C239 O240 1.224 . S
C239 O258 1.247 . S
O240 C239 1.224 . S
N241 Co231 2.128 . S
N241 C242 1.355 . S
N241 C244 1.311 . S
C242 N241 1.355 . S
C242 C243 1.363 . S
C242 H254 0.929 . S
C243 C242 1.363 . S
C243 N245 1.375 1_556 S
C243 H261 0.931 1_556 S
C244 N241 1.311 . S
C244 N245 1.347 1_556 S
C244 H255 0.929 . S
N245 C243 1.375 1_554 S
N245 C244 1.347 1_554 S
C246 C249 1.365 . S
C246 N251 1.328 . S
C246 H252 0.929 . S
C247 C248 1.362 . S
C247 C250 1.378 . S
C247 H262 0.929 . S
C248 C247 1.362 . S
C248 C249 1.366 . S
C249 C246 1.365 . S
C249 C248 1.366 . S
C249 H263 0.930 . S
C250 C247 1.378 . S
C250 N251 1.315 . S
C250 H253 0.930 . S
N251 Co231 2.194 . S
N251 C246 1.328 . S
N251 C250 1.315 . S
H252 C246 0.929 . S
H253 C250 0.930 . S
H254 C242 0.929 . S
H255 C244 0.929 . S
O256 Co231 2.351 . S
O256 C259 1.244 . S
O257 Co231 2.155 . S
O257 C259 1.240 . S
O258 Co231 2.096 . S
O258 C239 1.247 . S
C259 O256 1.244 . S
C259 O257 1.240 . S
H260 C234 0.931 . S
H261 C243 0.931 1_554 S
H262 C247 0.929 . S
H263 C249 0.930 . S
Co264 N268 2.148 1_554 S
Co264 N274 2.128 . S
Co264 N284 2.194 . S
Co264 O289 2.351 . S
Co264 O290 2.155 . S
Co264 O291 2.096 . S
C265 N268 1.301 . S
C265 N269 1.328 . S
C265 H270 0.930 . S
C266 C267 1.333 . S
C266 N268 1.317 . S
C266 H271 0.930 . S
C267 C266 1.333 . S
C267 N269 1.350 . S
C267 H293 0.931 . S
N268 Co264 2.148 1_556 S
N268 C265 1.301 . S
N268 C266 1.317 . S
N269 C265 1.328 . S
N269 C267 1.350 . S
H270 C265 0.930 . S
H271 C266 0.930 . S
C272 O273 1.224 . S
C272 O291 1.247 . S
O273 C272 1.224 . S
N274 Co264 2.128 . S
N274 C275 1.355 . S
N274 C277 1.311 . S
C275 N274 1.355 . S
C275 C276 1.363 . S
C275 H287 0.929 . S
C276 C275 1.363 . S
C276 N278 1.375 . S
C276 H294 0.931 . S
C277 N274 1.311 . S
C277 N278 1.347 . S
C277 H288 0.929 . S
N278 C276 1.375 . S
N278 C277 1.347 . S
C279 C282 1.365 . S
C279 N284 1.328 . S
C279 H285 0.929 . S
C280 C281 1.362 . S
C280 C283 1.378 . S
C280 H295 0.929 . S
C281 C280 1.362 . S
C281 C282 1.366 . S
C282 C279 1.365 . S
C282 C281 1.366 . S
C282 H296 0.930 . S
C283 C280 1.378 . S
C283 N284 1.315 . S
C283 H286 0.930 . S
N284 Co264 2.194 . S
N284 C279 1.328 . S
N284 C283 1.315 . S
H285 C279 0.929 . S
H286 C283 0.930 . S
H287 C275 0.929 . S
H288 C277 0.929 . S
O289 Co264 2.351 . S
O289 C292 1.244 . S
O290 Co264 2.155 . S
O290 C292 1.240 . S
O291 Co264 2.096 . S
O291 C272 1.247 . S
C292 O289 1.244 . S
C292 O290 1.240 . S
H293 C267 0.931 . S
H294 C276 0.931 . S
H295 C280 0.929 . S
H296 C282 0.930 . S
Co297 N301 2.148 . S
Co297 N307 2.128 . S
Co297 N317 2.194 . S
Co297 O322 2.351 . S
Co297 O323 2.155 . S
Co297 O324 2.096 . S
C298 N301 1.301 . S
C298 N302 1.328 . S
C298 H303 0.930 . S
C299 C300 1.333 . S
C299 N301 1.317 . S
C299 H304 0.930 . S
C300 C299 1.333 . S
C300 N302 1.350 . S
C300 H326 0.931 . S
N301 Co297 2.148 . S
N301 C298 1.301 . S
N301 C299 1.317 . S
N302 C298 1.328 . S
N302 C300 1.350 . S
H303 C298 0.930 . S
H304 C299 0.930 . S
C305 O306 1.224 . S
C305 O324 1.247 . S
O306 C305 1.224 . S
N307 Co297 2.128 . S
N307 C308 1.355 . S
N307 C310 1.311 . S
C308 N307 1.355 . S
C308 C309 1.363 . S
C308 H320 0.929 . S
C309 C308 1.363 . S
C309 N311 1.375 . S
C309 H327 0.931 . S
C310 N307 1.311 . S
C310 N311 1.347 . S
C310 H321 0.929 . S
N311 C309 1.375 . S
N311 C310 1.347 . S
C312 C315 1.365 . S
C312 N317 1.328 . S
C312 H318 0.929 . S
C313 C314 1.362 . S
C313 C316 1.378 . S
C313 H328 0.929 . S
C314 C313 1.362 . S
C314 C315 1.366 . S
C315 C312 1.365 . S
C315 C314 1.366 . S
C315 H329 0.930 . S
C316 C313 1.378 . S
C316 N317 1.315 . S
C316 H319 0.930 . S
N317 Co297 2.194 . S
N317 C312 1.328 . S
N317 C316 1.315 . S
H318 C312 0.929 . S
H319 C316 0.930 . S
H320 C308 0.929 . S
H321 C310 0.929 . S
O322 Co297 2.351 . S
O322 C325 1.244 . S
O323 Co297 2.155 . S
O323 C325 1.240 . S
O324 Co297 2.096 . S
O324 C305 1.247 . S
C325 O322 1.244 . S
C325 O323 1.240 . S
H326 C300 0.931 . S
H327 C309 0.931 . S
H328 C313 0.929 . S
H329 C315 0.930 . S
Co330 N334 2.148 . S
Co330 N340 2.128 . S
Co330 N350 2.194 . S
Co330 O355 2.351 . S
Co330 O356 2.155 . S
Co330 O357 2.096 . S
C331 N334 1.301 . S
C331 N335 1.328 . S
C331 H336 0.930 . S
C332 C333 1.333 . S
C332 N334 1.317 . S
C332 H337 0.930 . S
C333 C332 1.333 . S
C333 N335 1.350 . S
C333 H359 0.931 . S
N334 Co330 2.148 . S
N334 C331 1.301 . S
N334 C332 1.317 . S
N335 C331 1.328 . S
N335 C333 1.350 . S
H336 C331 0.930 . S
H337 C332 0.930 . S
C338 O339 1.224 . S
C338 O357 1.247 . S
O339 C338 1.224 . S
N340 Co330 2.128 . S
N340 C341 1.355 . S
N340 C343 1.311 . S
C341 N340 1.355 . S
C341 C342 1.363 . S
C341 H353 0.929 . S
C342 C341 1.363 . S
C342 N344 1.375 1_556 S
C342 H360 0.931 1_556 S
C343 N340 1.311 . S
C343 N344 1.347 1_556 S
C343 H354 0.929 . S
N344 C342 1.375 1_554 S
N344 C343 1.347 1_554 S
C345 C348 1.365 . S
C345 N350 1.328 . S
C345 H351 0.929 . S
C346 C347 1.362 . S
C346 C349 1.378 . S
C346 H361 0.929 . S
C347 C346 1.362 . S
C347 C348 1.366 . S
C348 C345 1.365 . S
C348 C347 1.366 . S
C348 H362 0.930 . S
C349 C346 1.378 . S
C349 N350 1.315 . S
C349 H352 0.930 . S
N350 Co330 2.194 . S
N350 C345 1.328 . S
N350 C349 1.315 . S
H351 C345 0.929 . S
H352 C349 0.930 . S
H353 C341 0.929 . S
H354 C343 0.929 . S
O355 Co330 2.351 . S
O355 C358 1.244 . S
O356 Co330 2.155 . S
O356 C358 1.240 . S
O357 Co330 2.096 . S
O357 C338 1.247 . S
C358 O355 1.244 . S
C358 O356 1.240 . S
H359 C333 0.931 . S
H360 C342 0.931 1_554 S
H361 C346 0.929 . S
H362 C348 0.930 . S
Co363 N367 2.148 1_554 S
Co363 N373 2.128 . S
Co363 N383 2.194 . S
Co363 O388 2.351 . S
Co363 O389 2.155 . S
Co363 O390 2.096 . S
C364 N367 1.301 . S
C364 N368 1.328 . S
C364 H369 0.930 . S
C365 C366 1.333 . S
C365 N367 1.317 . S
C365 H370 0.930 . S
C366 C365 1.333 . S
C366 N368 1.350 . S
C366 H392 0.931 . S
N367 Co363 2.148 1_556 S
N367 C364 1.301 . S
N367 C365 1.317 . S
N368 C364 1.328 . S
N368 C366 1.350 . S
H369 C364 0.930 . S
H370 C365 0.930 . S
C371 O372 1.224 . S
C371 O390 1.247 . S
O372 C371 1.224 . S
N373 Co363 2.128 . S
N373 C374 1.355 . S
N373 C376 1.311 . S
C374 N373 1.355 . S
C374 C375 1.363 . S
C374 H386 0.929 . S
C375 C374 1.363 . S
C375 N377 1.375 . S
C375 H393 0.931 . S
C376 N373 1.311 . S
C376 N377 1.347 . S
C376 H387 0.929 . S
N377 C375 1.375 . S
N377 C376 1.347 . S
C378 C381 1.365 . S
C378 N383 1.328 . S
C378 H384 0.929 . S
C379 C380 1.362 . S
C379 C382 1.378 . S
C379 H394 0.929 . S
C380 C379 1.362 . S
C380 C381 1.366 . S
C381 C378 1.365 . S
C381 C380 1.366 . S
C381 H395 0.930 . S
C382 C379 1.378 . S
C382 N383 1.315 . S
C382 H385 0.930 . S
N383 Co363 2.194 . S
N383 C378 1.328 . S
N383 C382 1.315 . S
H384 C378 0.929 . S
H385 C382 0.930 . S
H386 C374 0.929 . S
H387 C376 0.929 . S
O388 Co363 2.351 . S
O388 C391 1.244 . S
O389 Co363 2.155 . S
O389 C391 1.240 . S
O390 Co363 2.096 . S
O390 C371 1.247 . S
C391 O388 1.244 . S
C391 O389 1.240 . S
H392 C366 0.931 . S
H393 C375 0.931 . S
H394 C379 0.929 . S
H395 C381 0.930 . S
H396 C402 0.930 . S
H397 C405 0.930 . S
H398 C406 0.930 . S
H399 C407 0.930 . S
H400 C410 0.930 . S
H401 C411 0.930 . S
C402 H396 0.930 . S
C402 C403 1.355 . S
C402 C404 1.415 . S
C403 C402 1.355 . S
C403 C405 1.419 . S
C404 C402 1.415 . S
C404 C409 1.425 1_554 S
C404 C411 1.409 1_554 S
C405 H397 0.930 . S
C405 C403 1.419 . S
C405 C406 1.362 . S
C406 H398 0.930 . S
C406 C405 1.362 . S
C406 C409 1.409 1_554 S
C407 H399 0.930 . S
C407 C408 1.355 . S
C407 C409 1.415 . S
C408 C407 1.355 . S
C408 C410 1.419 . S
C409 C404 1.425 1_556 S
C409 C406 1.409 1_556 S
C409 C407 1.415 . S
C410 H400 0.930 . S
C410 C408 1.419 . S
C410 C411 1.362 . S
C411 H401 0.930 . S
C411 C404 1.409 1_556 S
C411 C410 1.362 . S
H412 C418 0.930 . S
H413 C421 0.930 . S
H414 C422 0.930 . S
H415 C423 0.930 . S
H416 C426 0.930 . S
H417 C427 0.930 . S
C418 H412 0.930 . S
C418 C419 1.355 . S
C418 C420 1.415 . S
C419 C418 1.355 . S
C419 C421 1.419 . S
C420 C418 1.415 . S
C420 C425 1.425 . S
C420 C427 1.409 . S
C421 H413 0.930 . S
C421 C419 1.419 . S
C421 C422 1.362 . S
C422 H414 0.930 . S
C422 C421 1.362 . S
C422 C425 1.409 . S
C423 H415 0.930 . S
C423 C424 1.355 . S
C423 C425 1.415 . S
C424 C423 1.355 . S
C424 C426 1.419 . S
C425 C420 1.425 . S
C425 C422 1.409 . S
C425 C423 1.415 . S
C426 H416 0.930 . S
C426 C424 1.419 . S
C426 C427 1.362 . S
C427 H417 0.930 . S
C427 C420 1.409 . S
C427 C426 1.362 . S
H428 C434 0.930 . S
H429 C437 0.930 . S
H430 C438 0.930 . S
H431 C439 0.930 . S
H432 C442 0.930 . S
H433 C443 0.930 . S
C434 H428 0.930 . S
C434 C435 1.355 . S
C434 C436 1.415 . S
C435 C434 1.355 . S
C435 C437 1.419 . S
C436 C434 1.415 . S
C436 C441 1.425 . S
C436 C443 1.409 . S
C437 H429 0.930 . S
C437 C435 1.419 . S
C437 C438 1.362 . S
C438 H430 0.930 . S
C438 C437 1.362 . S
C438 C441 1.409 . S
C439 H431 0.930 . S
C439 C440 1.355 . S
C439 C441 1.415 . S
C440 C439 1.355 . S
C440 C442 1.419 . S
C441 C436 1.425 . S
C441 C438 1.409 . S
C441 C439 1.415 . S
C442 H432 0.930 . S
C442 C440 1.419 . S
C442 C443 1.362 . S
C443 H433 0.930 . S
C443 C436 1.409 . S
C443 C442 1.362 . S
H444 C450 0.930 . S
H445 C453 0.930 . S
H446 C454 0.930 . S
H447 C455 0.930 . S
H448 C458 0.930 . S
H449 C459 0.930 . S
C450 H444 0.930 . S
C450 C451 1.355 . S
C450 C452 1.415 1_556 S
C451 C450 1.355 . S
C451 C453 1.419 . S
C452 C450 1.415 1_554 S
C452 C457 1.425 1_554 S
C452 C459 1.409 . S
C453 H445 0.930 . S
C453 C451 1.419 . S
C453 C454 1.362 . S
C454 H446 0.930 . S
C454 C453 1.362 . S
C454 C457 1.409 . S
C455 H447 0.930 . S
C455 C456 1.355 . S
C455 C457 1.415 1_554 S
C456 C455 1.355 . S
C456 C458 1.419 . S
C457 C452 1.425 1_556 S
C457 C454 1.409 . S
C457 C455 1.415 1_556 S
C458 H448 0.930 . S
C458 C456 1.419 . S
C458 C459 1.362 . S
C459 H449 0.930 . S
C459 C452 1.409 . S
C459 C458 1.362 . S
H460 C466 0.930 . S
H461 C469 0.930 . S
H462 C470 0.930 . S
H463 C471 0.930 . S
H464 C474 0.930 . S
H465 C475 0.930 . S
C466 H460 0.930 . S
C466 C467 1.355 . S
C466 C468 1.415 . S
C467 C466 1.355 . S
C467 C469 1.419 . S
C468 C466 1.415 . S
C468 C473 1.425 . S
C468 C475 1.409 . S
C469 H461 0.930 . S
C469 C467 1.419 . S
C469 C470 1.362 . S
C470 H462 0.930 . S
C470 C469 1.362 . S
C470 C473 1.409 . S
C471 H463 0.930 . S
C471 C472 1.355 . S
C471 C473 1.415 . S
C472 C471 1.355 . S
C472 C474 1.419 . S
C473 C468 1.425 . S
C473 C470 1.409 . S
C473 C471 1.415 . S
C474 H464 0.930 . S
C474 C472 1.419 . S
C474 C475 1.362 . S
C475 H465 0.930 . S
C475 C468 1.409 . S
C475 C474 1.362 . S
H476 C482 0.930 . S
H477 C485 0.930 . S
H478 C486 0.930 . S
H479 C487 0.930 . S
H480 C490 0.930 . S
H481 C491 0.930 . S
C482 H476 0.930 . S
C482 C483 1.355 . S
C482 C484 1.415 . S
C483 C482 1.355 . S
C483 C485 1.419 . S
C484 C482 1.415 . S
C484 C489 1.425 . S
C484 C491 1.409 . S
C485 H477 0.930 . S
C485 C483 1.419 . S
C485 C486 1.362 . S
C486 H478 0.930 . S
C486 C485 1.362 . S
C486 C489 1.409 . S
C487 H479 0.930 . S
C487 C488 1.355 . S
C487 C489 1.415 . S
C488 C487 1.355 . S
C488 C490 1.419 . S
C489 C484 1.425 . S
C489 C486 1.409 . S
C489 C487 1.415 . S
C490 H480 0.930 . S
C490 C488 1.419 . S
C490 C491 1.362 . S
C491 H481 0.930 . S
C491 C484 1.409 . S
C491 C490 1.362 . S
H492 C498 0.930 . S
H493 C501 0.930 . S
H494 C502 0.930 . S
H495 C503 0.930 . S
H496 C506 0.930 . S
H497 C507 0.930 . S
C498 H492 0.930 . S
C498 C499 1.355 . S
C498 C500 1.415 . S
C499 C498 1.355 . S
C499 C501 1.419 . S
C500 C498 1.415 . S
C500 C505 1.425 . S
C500 C507 1.409 . S
C501 H493 0.930 . S
C501 C499 1.419 . S
C501 C502 1.362 . S
C502 H494 0.930 . S
C502 C501 1.362 . S
C502 C505 1.409 . S
C503 H495 0.930 . S
C503 C504 1.355 . S
C503 C505 1.415 . S
C504 C503 1.355 . S
C504 C506 1.419 . S
C505 C500 1.425 . S
C505 C502 1.409 . S
C505 C503 1.415 . S
C506 H496 0.930 . S
C506 C504 1.419 . S
C506 C507 1.362 . S
C507 H497 0.930 . S
C507 C500 1.409 . S
C507 C506 1.362 . S
H508 C514 0.930 . S
H509 C517 0.930 . S
H510 C518 0.930 . S
H511 C519 0.930 . S
H512 C522 0.930 . S
H513 C523 0.930 . S
C514 H508 0.930 . S
C514 C515 1.355 . S
C514 C516 1.415 . S
C515 C514 1.355 . S
C515 C517 1.419 . S
C516 C514 1.415 . S
C516 C521 1.425 . S
C516 C523 1.409 . S
C517 H509 0.930 . S
C517 C515 1.419 . S
C517 C518 1.362 . S
C518 H510 0.930 . S
C518 C517 1.362 . S
C518 C521 1.409 . S
C519 H511 0.930 . S
C519 C520 1.355 . S
C519 C521 1.415 . S
C520 C519 1.355 . S
C520 C522 1.419 . S
C521 C516 1.425 . S
C521 C518 1.409 . S
C521 C519 1.415 . S
C522 H512 0.930 . S
C522 C520 1.419 . S
C522 C523 1.362 . S
C523 H513 0.930 . S
C523 C516 1.409 . S
C523 C522 1.362 . S
H524 C530 0.930 . S
H525 C533 0.930 . S
H526 C534 0.930 . S
H527 C535 0.930 . S
H528 C538 0.930 . S
H529 C539 0.930 . S
C530 H524 0.930 . S
C530 C531 1.355 1_554 S
C530 C532 1.415 . S
C531 C530 1.355 1_556 S
C531 C533 1.419 . S
C532 C530 1.415 . S
C532 C537 1.425 1_554 S
C532 C539 1.409 . S
C533 H525 0.930 . S
C533 C531 1.419 . S
C533 C534 1.362 . S
C534 H526 0.930 . S
C534 C533 1.362 . S
C534 C537 1.409 . S
C535 H527 0.930 . S
C535 C536 1.355 1_556 S
C535 C537 1.415 . S
C536 C535 1.355 1_554 S
C536 C538 1.419 . S
C537 C532 1.425 1_556 S
C537 C534 1.409 . S
C537 C535 1.415 . S
C538 H528 0.930 . S
C538 C536 1.419 . S
C538 C539 1.362 . S
C539 H529 0.930 . S
C539 C532 1.409 . S
C539 C538 1.362 . S
H540 C546 0.930 . S
H541 C549 0.930 . S
H542 C550 0.930 . S
H543 C551 0.930 . S
H544 C554 0.930 . S
H545 C555 0.930 . S
C546 H540 0.930 . S
C546 C547 1.355 . S
C546 C548 1.415 . S
C547 C546 1.355 . S
C547 C549 1.419 . S
C548 C546 1.415 . S
C548 C553 1.425 . S
C548 C555 1.409 . S
C549 H541 0.930 . S
C549 C547 1.419 . S
C549 C550 1.362 . S
C550 H542 0.930 . S
C550 C549 1.362 . S
C550 C553 1.409 . S
C551 H543 0.930 . S
C551 C552 1.355 . S
C551 C553 1.415 . S
C552 C551 1.355 . S
C552 C554 1.419 . S
C553 C548 1.425 . S
C553 C550 1.409 . S
C553 C551 1.415 . S
C554 H544 0.930 . S
C554 C552 1.419 . S
C554 C555 1.362 . S
C555 H545 0.930 . S
C555 C548 1.409 . S
C555 C554 1.362 . S
H556 C562 0.930 . S
H557 C565 0.930 . S
H558 C566 0.930 . S
H559 C567 0.930 . S
H560 C570 0.930 . S
H561 C571 0.930 . S
C562 H556 0.930 . S
C562 C563 1.355 . S
C562 C564 1.415 . S
C563 C562 1.355 . S
C563 C565 1.419 . S
C564 C562 1.415 . S
C564 C569 1.425 . S
C564 C571 1.409 . S
C565 H557 0.930 . S
C565 C563 1.419 . S
C565 C566 1.362 . S
C566 H558 0.930 . S
C566 C565 1.362 . S
C566 C569 1.409 . S
C567 H559 0.930 . S
C567 C568 1.355 . S
C567 C569 1.415 . S
C568 C567 1.355 . S
C568 C570 1.419 . S
C569 C564 1.425 . S
C569 C566 1.409 . S
C569 C567 1.415 . S
C570 H560 0.930 . S
C570 C568 1.419 . S
C570 C571 1.362 . S
C571 H561 0.930 . S
C571 C564 1.409 . S
C571 C570 1.362 . S
H572 C578 0.930 . S
H573 C581 0.930 . S
H574 C582 0.930 . S
H575 C583 0.930 . S
H576 C586 0.930 . S
H577 C587 0.930 . S
C578 H572 0.930 . S
C578 C579 1.355 . S
C578 C580 1.415 . S
C579 C578 1.355 . S
C579 C581 1.419 1_554 S
C580 C578 1.415 . S
C580 C585 1.425 1_554 S
C580 C587 1.409 . S
C581 H573 0.930 . S
C581 C579 1.419 1_556 S
C581 C582 1.362 . S
C582 H574 0.930 . S
C582 C581 1.362 . S
C582 C585 1.409 . S
C583 H575 0.930 . S
C583 C584 1.355 . S
C583 C585 1.415 . S
C584 C583 1.355 . S
C584 C586 1.419 1_556 S
C585 C580 1.425 1_556 S
C585 C582 1.409 . S
C585 C583 1.415 . S
C586 H576 0.930 . S
C586 C584 1.419 1_554 S
C586 C587 1.362 . S
C587 H577 0.930 . S
C587 C580 1.409 . S
C587 C586 1.362 . S
H588 C594 0.930 . S
H589 C597 0.930 . S
H590 C598 0.930 . S
H591 C599 0.930 . S
H592 C602 0.930 . S
H593 C603 0.930 . S
C594 H588 0.930 . S
C594 C595 1.355 . S
C594 C596 1.415 . S
C595 C594 1.355 . S
C595 C597 1.419 . S
C596 C594 1.415 . S
C596 C601 1.425 . S
C596 C603 1.409 . S
C597 H589 0.930 . S
C597 C595 1.419 . S
C597 C598 1.362 . S
C598 H590 0.930 . S
C598 C597 1.362 . S
C598 C601 1.409 . S
C599 H591 0.930 . S
C599 C600 1.355 . S
C599 C601 1.415 . S
C600 C599 1.355 . S
C600 C602 1.419 . S
C601 C596 1.425 . S
C601 C598 1.409 . S
C601 C599 1.415 . S
C602 H592 0.930 . S
C602 C600 1.419 . S
C602 C603 1.362 . S
C603 H593 0.930 . S
C603 C596 1.409 . S
C603 C602 1.362 . S
H604 C610 0.930 . S
H605 C613 0.930 . S
H606 C614 0.930 . S
H607 C615 0.930 . S
H608 C618 0.930 . S
H609 C619 0.930 . S
C610 H604 0.930 . S
C610 C611 1.355 . S
C610 C612 1.415 . S
C611 C610 1.355 . S
C611 C613 1.419 . S
C612 C610 1.415 . S
C612 C617 1.425 1_455 S
C612 C619 1.409 1_455 S
C613 H605 0.930 . S
C613 C611 1.419 . S
C613 C614 1.362 . S
C614 H606 0.930 . S
C614 C613 1.362 . S
C614 C617 1.409 1_455 S
C615 H607 0.930 . S
C615 C616 1.355 . S
C615 C617 1.415 . S
C616 C615 1.355 . S
C616 C618 1.419 . S
C617 C612 1.425 1_655 S
C617 C614 1.409 1_655 S
C617 C615 1.415 . S
C618 H608 0.930 . S
C618 C616 1.419 . S
C618 C619 1.362 . S
C619 H609 0.930 . S
C619 C612 1.409 1_655 S
C619 C618 1.362 . S
H620 C626 0.930 . S
H621 C629 0.930 . S
H622 C630 0.930 . S
H623 C631 0.930 . S
H624 C634 0.930 . S
H625 C635 0.930 . S
C626 H620 0.930 . S
C626 C627 1.355 . S
C626 C628 1.415 . S
C627 C626 1.355 . S
C627 C629 1.419 1_554 S
C628 C626 1.415 . S
C628 C633 1.425 1_544 S
C628 C635 1.409 1_545 S
C629 H621 0.930 . S
C629 C627 1.419 1_556 S
C629 C630 1.362 . S
C630 H622 0.930 . S
C630 C629 1.362 . S
C630 C633 1.409 1_545 S
C631 H623 0.930 . S
C631 C632 1.355 . S
C631 C633 1.415 . S
C632 C631 1.355 . S
C632 C634 1.419 1_556 S
C633 C628 1.425 1_566 S
C633 C630 1.409 1_565 S
C633 C631 1.415 . S
C634 H624 0.930 . S
C634 C632 1.419 1_554 S
C634 C635 1.362 . S
C635 H625 0.930 . S
C635 C628 1.409 1_565 S
C635 C634 1.362 . S
H636 C642 0.930 . S
H637 C645 0.930 . S
H638 C646 0.930 . S
H639 C647 0.930 . S
H640 C650 0.930 . S
H641 C651 0.930 . S
C642 H636 0.930 . S
C642 C643 1.355 . S
C642 C644 1.415 . S
C643 C642 1.355 . S
C643 C645 1.419 . S
C644 C642 1.415 . S
C644 C649 1.425 . S
C644 C651 1.409 . S
C645 H637 0.930 . S
C645 C643 1.419 . S
C645 C646 1.362 . S
C646 H638 0.930 . S
C646 C645 1.362 . S
C646 C649 1.409 . S
C647 H639 0.930 . S
C647 C648 1.355 . S
C647 C649 1.415 . S
C648 C647 1.355 . S
C648 C650 1.419 . S
C649 C644 1.425 . S
C649 C646 1.409 . S
C649 C647 1.415 . S
C650 H640 0.930 . S
C650 C648 1.419 . S
C650 C651 1.362 . S
C651 H641 0.930 . S
C651 C644 1.409 . S
C651 C650 1.362 . S
H652 C658 0.930 . S
H653 C661 0.930 . S
H654 C662 0.930 . S
H655 C663 0.930 . S
H656 C666 0.930 . S
H657 C667 0.930 . S
C658 H652 0.930 . S
C658 C659 1.355 . S
C658 C660 1.415 . S
C659 C658 1.355 . S
C659 C661 1.419 . S
C660 C658 1.415 . S
C660 C665 1.425 1_455 S
C660 C667 1.409 1_455 S
C661 H653 0.930 . S
C661 C659 1.419 . S
C661 C662 1.362 . S
C662 H654 0.930 . S
C662 C661 1.362 . S
C662 C665 1.409 1_455 S
C663 H655 0.930 . S
C663 C664 1.355 . S
C663 C665 1.415 . S
C664 C663 1.355 . S
C664 C666 1.419 . S
C665 C660 1.425 1_655 S
C665 C662 1.409 1_655 S
C665 C663 1.415 . S
C666 H656 0.930 . S
C666 C664 1.419 . S
C666 C667 1.362 . S
C667 H657 0.930 . S
C667 C660 1.409 1_655 S
C667 C666 1.362 . S
H668 C674 0.930 . S
H669 C677 0.930 . S
H670 C678 0.930 1_565 S
H671 C679 0.930 . S
H672 C682 0.930 . S
H673 C683 0.930 1_545 S
C674 H668 0.930 . S
C674 C675 1.355 1_554 S
C674 C676 1.415 . S
C675 C674 1.355 1_556 S
C675 C677 1.419 . S
C676 C674 1.415 . S
C676 C681 1.425 1_544 S
C676 C683 1.409 1_545 S
C677 H669 0.930 . S
C677 C675 1.419 . S
C677 C678 1.362 . S
C678 H670 0.930 1_545 S
C678 C677 1.362 . S
C678 C681 1.409 1_545 S
C679 H671 0.930 . S
C679 C680 1.355 1_556 S
C679 C681 1.415 . S
C680 C679 1.355 1_554 S
C680 C682 1.419 . S
C681 C676 1.425 1_566 S
C681 C678 1.409 1_565 S
C681 C679 1.415 . S
C682 H672 0.930 . S
C682 C680 1.419 . S
C682 C683 1.362 . S
C683 H673 0.930 1_565 S
C683 C676 1.409 1_565 S
C683 C682 1.362 . S
H684 C690 0.930 . S
H685 C693 0.930 . S
H686 C694 0.930 . S
H687 C695 0.930 . S
H688 C698 0.930 . S
H689 C699 0.930 . S
C690 H684 0.930 . S
C690 C691 1.355 . S
C690 C692 1.415 . S
C691 C690 1.355 . S
C691 C693 1.419 . S
C692 C690 1.415 . S
C692 C697 1.425 . S
C692 C699 1.409 . S
C693 H685 0.930 . S
C693 C691 1.419 . S
C693 C694 1.362 . S
C694 H686 0.930 . S
C694 C693 1.362 . S
C694 C697 1.409 . S
C695 H687 0.930 . S
C695 C696 1.355 . S
C695 C697 1.415 . S
C696 C695 1.355 . S
C696 C698 1.419 . S
C697 C692 1.425 . S
C697 C694 1.409 . S
C697 C695 1.415 . S
C698 H688 0.930 . S
C698 C696 1.419 . S
C698 C699 1.362 . S
C699 H689 0.930 . S
C699 C692 1.409 . S
C699 C698 1.362 . S
H700 C706 0.930 . S
H701 C709 0.930 . S
H702 C710 0.930 . S
H703 C711 0.930 . S
H704 C714 0.930 . S
H705 C715 0.930 . S
C706 H700 0.930 . S
C706 C707 1.355 . S
C706 C708 1.415 . S
C707 C706 1.355 . S
C707 C709 1.419 . S
C708 C706 1.415 . S
C708 C713 1.425 . S
C708 C715 1.409 . S
C709 H701 0.930 . S
C709 C707 1.419 . S
C709 C710 1.362 . S
C710 H702 0.930 . S
C710 C709 1.362 . S
C710 C713 1.409 . S
C711 H703 0.930 . S
C711 C712 1.355 . S
C711 C713 1.415 1_556 S
C712 C711 1.355 . S
C712 C714 1.419 . S
C713 C708 1.425 . S
C713 C710 1.409 . S
C713 C711 1.415 1_554 S
C714 H704 0.930 . S
C714 C712 1.419 . S
C714 C715 1.362 1_556 S
C715 H705 0.930 . S
C715 C708 1.409 . S
C715 C714 1.362 1_554 S
H716 C722 0.930 . S
H717 C725 0.930 . S
H718 C726 0.930 . S
H719 C727 0.930 . S
H720 C730 0.930 . S
H721 C731 0.930 . S
C722 H716 0.930 . S
C722 C723 1.355 . S
C722 C724 1.415 . S
C723 C722 1.355 . S
C723 C725 1.419 . S
C724 C722 1.415 . S
C724 C729 1.425 . S
C724 C731 1.409 . S
C725 H717 0.930 . S
C725 C723 1.419 . S
C725 C726 1.362 . S
C726 H718 0.930 . S
C726 C725 1.362 . S
C726 C729 1.409 . S
C727 H719 0.930 . S
C727 C728 1.355 . S
C727 C729 1.415 . S
C728 C727 1.355 . S
C728 C730 1.419 . S
C729 C724 1.425 . S
C729 C726 1.409 . S
C729 C727 1.415 . S
C730 H720 0.930 . S
C730 C728 1.419 . S
C730 C731 1.362 . S
C731 H721 0.930 . S
C731 C724 1.409 . S
C731 C730 1.362 . S
H732 C738 0.930 . S
H733 C741 0.930 . S
H734 C742 0.930 . S
H735 C743 0.930 . S
H736 C746 0.930 . S
H737 C747 0.930 . S
C738 H732 0.930 . S
C738 C739 1.355 . S
C738 C740 1.415 . S
C739 C738 1.355 . S
C739 C741 1.419 . S
C740 C738 1.415 . S
C740 C745 1.425 . S
C740 C747 1.409 . S
C741 H733 0.930 . S
C741 C739 1.419 . S
C741 C742 1.362 . S
C742 H734 0.930 . S
C742 C741 1.362 . S
C742 C745 1.409 . S
C743 H735 0.930 . S
C743 C744 1.355 . S
C743 C745 1.415 . S
C744 C743 1.355 . S
C744 C746 1.419 . S
C745 C740 1.425 . S
C745 C742 1.409 . S
C745 C743 1.415 . S
C746 H736 0.930 . S
C746 C744 1.419 . S
C746 C747 1.362 . S
C747 H737 0.930 . S
C747 C740 1.409 . S
C747 C746 1.362 . S
H748 C754 0.930 . S
H749 C757 0.930 . S
H750 C758 0.930 . S
H751 C759 0.930 . S
H752 C762 0.930 . S
H753 C763 0.930 . S
C754 H748 0.930 . S
C754 C755 1.355 . S
C754 C756 1.415 . S
C755 C754 1.355 . S
C755 C757 1.419 . S
C756 C754 1.415 . S
C756 C761 1.425 . S
C756 C763 1.409 . S
C757 H749 0.930 . S
C757 C755 1.419 . S
C757 C758 1.362 . S
C758 H750 0.930 . S
C758 C757 1.362 . S
C758 C761 1.409 . S
C759 H751 0.930 . S
C759 C760 1.355 . S
C759 C761 1.415 1_556 S
C760 C759 1.355 . S
C760 C762 1.419 . S
C761 C756 1.425 . S
C761 C758 1.409 . S
C761 C759 1.415 1_554 S
C762 H752 0.930 . S
C762 C760 1.419 . S
C762 C763 1.362 1_556 S
C763 H753 0.930 . S
C763 C756 1.409 . S
C763 C762 1.362 1_554 S
H764 C770 0.930 . S
H765 C773 0.930 . S
H766 C774 0.930 . S
H767 C775 0.930 . S
H768 C778 0.930 . S
H769 C779 0.930 . S
C770 H764 0.930 . S
C770 C771 1.355 . S
C770 C772 1.415 . S
C771 C770 1.355 . S
C771 C773 1.419 . S
C772 C770 1.415 . S
C772 C777 1.425 . S
C772 C779 1.409 . S
C773 H765 0.930 . S
C773 C771 1.419 . S
C773 C774 1.362 . S
C774 H766 0.930 . S
C774 C773 1.362 . S
C774 C777 1.409 . S
C775 H767 0.930 . S
C775 C776 1.355 . S
C775 C777 1.415 . S
C776 C775 1.355 . S
C776 C778 1.419 . S
C777 C772 1.425 . S
C777 C774 1.409 . S
C777 C775 1.415 . S
C778 H768 0.930 . S
C778 C776 1.419 . S
C778 C779 1.362 . S
C779 H769 0.930 . S
C779 C772 1.409 . S
C779 C778 1.362 . S
H780 C786 0.930 . S
H781 C789 0.930 . S
H782 C790 0.930 . S
H783 C791 0.930 . S
H784 C794 0.930 . S
H785 C795 0.930 . S
C786 H780 0.930 . S
C786 C787 1.355 . S
C786 C788 1.415 1_554 S
C787 C786 1.355 . S
C787 C789 1.419 . S
C788 C786 1.415 1_556 S
C788 C793 1.425 . S
C788 C795 1.409 . S
C789 H781 0.930 . S
C789 C787 1.419 . S
C789 C790 1.362 1_554 S
C790 H782 0.930 . S
C790 C789 1.362 1_556 S
C790 C793 1.409 . S
C791 H783 0.930 . S
C791 C792 1.355 . S
C791 C793 1.415 . S
C792 C791 1.355 . S
C792 C794 1.419 . S
C793 C788 1.425 . S
C793 C790 1.409 . S
C793 C791 1.415 . S
C794 H784 0.930 . S
C794 C792 1.419 . S
C794 C795 1.362 . S
C795 H785 0.930 . S
C795 C788 1.409 . S
C795 C794 1.362 . S
H796 C802 0.930 . S
H797 C805 0.930 . S
H798 C806 0.930 . S
H799 C807 0.930 . S
H800 C810 0.930 . S
H801 C811 0.930 . S
C802 H796 0.930 . S
C802 C803 1.355 . S
C802 C804 1.415 . S
C803 C802 1.355 . S
C803 C805 1.419 . S
C804 C802 1.415 . S
C804 C809 1.425 . S
C804 C811 1.409 . S
C805 H797 0.930 . S
C805 C803 1.419 . S
C805 C806 1.362 . S
C806 H798 0.930 . S
C806 C805 1.362 . S
C806 C809 1.409 . S
C807 H799 0.930 . S
C807 C808 1.355 . S
C807 C809 1.415 . S
C808 C807 1.355 . S
C808 C810 1.419 . S
C809 C804 1.425 . S
C809 C806 1.409 . S
C809 C807 1.415 . S
C810 H800 0.930 . S
C810 C808 1.419 . S
C810 C811 1.362 . S
C811 H801 0.930 . S
C811 C804 1.409 . S
C811 C810 1.362 . S
H812 C818 0.930 . S
H813 C821 0.930 . S
H814 C822 0.930 . S
H815 C823 0.930 . S
H816 C826 0.930 . S
H817 C827 0.930 . S
C818 H812 0.930 . S
C818 C819 1.355 . S
C818 C820 1.415 . S
C819 C818 1.355 . S
C819 C821 1.419 . S
C820 C818 1.415 . S
C820 C825 1.425 . S
C820 C827 1.409 . S
C821 H813 0.930 . S
C821 C819 1.419 . S
C821 C822 1.362 . S
C822 H814 0.930 . S
C822 C821 1.362 . S
C822 C825 1.409 . S
C823 H815 0.930 . S
C823 C824 1.355 . S
C823 C825 1.415 . S
C824 C823 1.355 . S
C824 C826 1.419 . S
C825 C820 1.425 . S
C825 C822 1.409 . S
C825 C823 1.415 . S
C826 H816 0.930 . S
C826 C824 1.419 . S
C826 C827 1.362 . S
C827 H817 0.930 . S
C827 C820 1.409 . S
C827 C826 1.362 . S
H828 C834 0.930 . S
H829 C837 0.930 . S
H830 C838 0.930 . S
H831 C839 0.930 . S
H832 C842 0.930 . S
H833 C843 0.930 . S
C834 H828 0.930 . S
C834 C835 1.355 . S
C834 C836 1.415 . S
C835 C834 1.355 . S
C835 C837 1.419 . S
C836 C834 1.415 . S
C836 C841 1.425 . S
C836 C843 1.409 . S
C837 H829 0.930 . S
C837 C835 1.419 . S
C837 C838 1.362 . S
C838 H830 0.930 . S
C838 C837 1.362 . S
C838 C841 1.409 . S
C839 H831 0.930 . S
C839 C840 1.355 . S
C839 C841 1.415 1_554 S
C840 C839 1.355 . S
C840 C842 1.419 . S
C841 C836 1.425 . S
C841 C838 1.409 . S
C841 C839 1.415 1_556 S
C842 H832 0.930 . S
C842 C840 1.419 . S
C842 C843 1.362 1_554 S
C843 H833 0.930 . S
C843 C836 1.409 . S
C843 C842 1.362 1_556 S
H844 C850 0.930 . S
H845 C853 0.930 . S
H846 C854 0.930 . S
H847 C855 0.930 . S
H848 C858 0.930 . S
H849 C859 0.930 . S
C850 H844 0.930 . S
C850 C851 1.355 . S
C850 C852 1.415 . S
C851 C850 1.355 . S
C851 C853 1.419 . S
C852 C850 1.415 . S
C852 C857 1.425 . S
C852 C859 1.409 . S
C853 H845 0.930 . S
C853 C851 1.419 . S
C853 C854 1.362 . S
C854 H846 0.930 . S
C854 C853 1.362 . S
C854 C857 1.409 . S
C855 H847 0.930 . S
C855 C856 1.355 . S
C855 C857 1.415 . S
C856 C855 1.355 . S
C856 C858 1.419 . S
C857 C852 1.425 . S
C857 C854 1.409 . S
C857 C855 1.415 . S
C858 H848 0.930 . S
C858 C856 1.419 . S
C858 C859 1.362 . S
C859 H849 0.930 . S
C859 C852 1.409 . S
C859 C858 1.362 . S
H860 C866 0.930 . S
H861 C869 0.930 . S
H862 C870 0.930 . S
H863 C871 0.930 . S
H864 C874 0.930 . S
H865 C875 0.930 . S
C866 H860 0.930 . S
C866 C867 1.355 . S
C866 C868 1.415 . S
C867 C866 1.355 . S
C867 C869 1.419 . S
C868 C866 1.415 . S
C868 C873 1.425 . S
C868 C875 1.409 . S
C869 H861 0.930 . S
C869 C867 1.419 . S
C869 C870 1.362 . S
C870 H862 0.930 . S
C870 C869 1.362 . S
C870 C873 1.409 . S
C871 H863 0.930 . S
C871 C872 1.355 . S
C871 C873 1.415 . S
C872 C871 1.355 . S
C872 C874 1.419 . S
C873 C868 1.425 . S
C873 C870 1.409 . S
C873 C871 1.415 . S
C874 H864 0.930 . S
C874 C872 1.419 . S
C874 C875 1.362 . S
C875 H865 0.930 . S
C875 C868 1.409 . S
C875 C874 1.362 . S
C403 C8 1.384 . S
C408 C338 1.414 . S
C419 C371 1.364 . S
C424 C41 1.348 . S
C435 C206 1.392 . S
C440 C74 1.363 . S
C451 C239 1.436 . S
C456 C107 1.442 . S
C467 C140 1.348 . S
C472 C272 1.351 . S
C483 C305 1.431 . S
C488 C173 1.442 . S
C499 C215 1.613 . S
C504 C17 1.633 . S
C515 C248 1.632 . S
C520 C50 1.624 . S
C531 C83 1.628 . S
C536 C281 1.604 . S
C547 C116 1.613 . S
C552 C314 1.596 . S
C563 C347 1.605 . S
C568 C149 1.629 . S
C579 C380 1.610 . S
C584 C182 1.597 . S
C595 C28 1.432 . S
C600 C325 1.475 . S
C611 C358 1.475 . S
C616 C61 1.441 . S
C627 C391 1.476 . S
C632 C94 1.433 . S
C643 C226 1.458 . S
C648 C127 1.438 . S
C659 C160 1.456 . S
C664 C259 1.466 . S
C675 C193 1.439 . S
C680 C292 1.455 . S
C691 N5 1.139 . S
C696 N14 1.144 . S
C707 N47 1.150 . S
C712 N38 1.146 . S
C723 N71 1.153 . S
C728 N80 1.152 . S
C739 N113 1.129 . S
C744 N104 1.130 . S
C755 N146 1.131 . S
C760 N137 1.130 . S
C771 N179 1.132 . S
C776 N170 1.130 . S
C787 N203 1.130 . S
C792 N212 1.131 . S
C803 N245 1.129 . S
C808 N236 1.131 . S
C819 N278 1.139 . S
C824 N269 1.135 . S
C835 N311 1.134 . S
C840 N302 1.131 . S
C851 N335 1.152 . S
C856 N344 1.149 . S
C867 N377 1.132 . S
C872 N368 1.136 . S
