# Generated by pormake.
# Topology smc, (6)-cn, num edge types: 1
# Building blocks:
#     Node 0, Type 0, BuildingBlock: CUWYAW_clean_sbu_0, # of connection points: 6
#     Node 1, Type 0, BuildingBlock: CUWYAW_clean_sbu_0, # of connection points: 6
#     Node 2, Type 0, BuildingBlock: CUWYAW_clean_sbu_0, # of connection points: 6
#     Node 3, Type 0, BuildingBlock: CUWYAW_clean_sbu_0, # of connection points: 6
#     Node 4, Type 0, BuildingBlock: CUWYAW_clean_sbu_0, # of connection points: 6
#     Node 5, Type 0, BuildingBlock: CUWYAW_clean_sbu_0, # of connection points: 6
#     Node 6, Type 0, BuildingBlock: CUWYAW_clean_sbu_0, # of connection points: 6
#     Node 7, Type 0, BuildingBlock: CUWYAW_clean_sbu_0, # of connection points: 6
#     Node 8, Type 0, BuildingBlock: CUWYAW_clean_sbu_0, # of connection points: 6
#     Edge 9, Type (0, 0), BuildingBlock: CIFDUS_clean_linker_0, # of connection points: 2
#     Edge 10, Type (0, 0), BuildingBlock: CIFDUS_clean_linker_0, # of connection points: 2
#     Edge 11, Type (0, 0), BuildingBlock: CIFDUS_clean_linker_0, # of connection points: 2
#     Edge 12, Type (0, 0), BuildingBlock: CIFDUS_clean_linker_0, # of connection points: 2
#     Edge 13, Type (0, 0), BuildingBlock: CIFDUS_clean_linker_0, # of connection points: 2
#     Edge 14, Type (0, 0), BuildingBlock: CIFDUS_clean_linker_0, # of connection points: 2
#     Edge 15, Type (0, 0), BuildingBlock: CIFDUS_clean_linker_0, # of connection points: 2
#     Edge 16, Type (0, 0), BuildingBlock: CIFDUS_clean_linker_0, # of connection points: 2
#     Edge 17, Type (0, 0), BuildingBlock: CIFDUS_clean_linker_0, # of connection points: 2
#     Edge 18, Type (0, 0), BuildingBlock: CIFDUS_clean_linker_0, # of connection points: 2
#     Edge 19, Type (0, 0), BuildingBlock: CIFDUS_clean_linker_0, # of connection points: 2
#     Edge 20, Type (0, 0), BuildingBlock: CIFDUS_clean_linker_0, # of connection points: 2
#     Edge 21, Type (0, 0), BuildingBlock: CIFDUS_clean_linker_0, # of connection points: 2
#     Edge 22, Type (0, 0), BuildingBlock: CIFDUS_clean_linker_0, # of connection points: 2
#     Edge 23, Type (0, 0), BuildingBlock: CIFDUS_clean_linker_0, # of connection points: 2
#     Edge 24, Type (0, 0), BuildingBlock: CIFDUS_clean_linker_0, # of connection points: 2
#     Edge 25, Type (0, 0), BuildingBlock: CIFDUS_clean_linker_0, # of connection points: 2
#     Edge 26, Type (0, 0), BuildingBlock: CIFDUS_clean_linker_0, # of connection points: 2
#     Edge 27, Type (0, 0), BuildingBlock: CIFDUS_clean_linker_0, # of connection points: 2
#     Edge 28, Type (0, 0), BuildingBlock: CIFDUS_clean_linker_0, # of connection points: 2
#     Edge 29, Type (0, 0), BuildingBlock: CIFDUS_clean_linker_0, # of connection points: 2
#     Edge 30, Type (0, 0), BuildingBlock: CIFDUS_clean_linker_0, # of connection points: 2
#     Edge 31, Type (0, 0), BuildingBlock: CIFDUS_clean_linker_0, # of connection points: 2
#     Edge 32, Type (0, 0), BuildingBlock: CIFDUS_clean_linker_0, # of connection points: 2
#     Edge 33, Type (0, 0), BuildingBlock: CIFDUS_clean_linker_0, # of connection points: 2
#     Edge 34, Type (0, 0), BuildingBlock: CIFDUS_clean_linker_0, # of connection points: 2
#     Edge 35, Type (0, 0), BuildingBlock: CIFDUS_clean_linker_0, # of connection points: 2
# Relax obj value: 0.199
# Max RMSD: 0.328
# Mean RMSD: 0.328
data_MOF--net-smc--node1-CUWYAW_clean_sbu_0--edge1-CIFDUS_clean_linker_0
_symmetry_space_group_name_H-M    P1
_symmetry_Int_Tables_number       1
_symmetry_cell_setting            triclinic
loop_
_symmetry_equiv_pos_as_xyz
'x, y, z'
_cell_length_a     35.776341
_cell_length_b     35.847353
_cell_length_c     33.878529
_cell_angle_alpha  90.238864
_cell_angle_beta   90.308209
_cell_angle_gamma 120.18484
loop_
_atom_site_label
_atom_site_type_symbol
_atom_site_fract_x
_atom_site_fract_y
_atom_site_fract_z
_atom_type_partial_charge
C0 C 0.94358 0.32938 0.04501 0.0
Eu1 Eu 1.00056 0.41151 0.04082 0.0
C2 C 0.89553 0.30481 0.04186 0.0
C3 C 0.87064 0.28481 0.07539 0.0
C4 C 0.82539 0.26255 0.07335 0.0
C5 C 0.80364 0.2594 0.0376 0.0
C6 C 0.82864 0.27954 1.00401 0.0
C7 C 0.87396 0.30201 1.0061 0.0
C8 C 0.04512 0.45848 0.10579 0.0
C9 C 0.96164 0.47591 0.03963 0.0
C10 C 0.10905 0.58419 1.02061 0.0
Eu11 Eu 0.05879 0.50064 1.01883 0.0
C12 C 0.15408 0.62064 1.01781 0.0
C13 C 0.17061 0.63921 0.98098 0.0
C14 C 0.20801 0.67952 0.97861 0.0
C15 C 0.22978 0.7025 1.013 0.0
C16 C 0.21541 0.68241 0.04976 0.0
C17 C 0.17786 0.64178 0.05214 0.0
C18 C 1.0212 0.4469 0.95475 0.0
C19 C 0.10359 0.44572 1.0172 0.0
O20 O 0.96524 0.34775 1.01311 0.0
O21 O 0.95989 0.35434 0.07599 0.0
O22 O 1.00359 0.43326 0.10394 0.0
O23 O 0.0601 0.46175 0.07126 0.0
O24 O 0.95208 0.43526 0.04075 0.0
O25 O 1.00144 0.50708 0.03435 0.0
O26 O 0.09797 0.5602 0.05225 0.0
O27 O 0.08997 0.56224 0.98846 0.0
O28 O 0.0607 0.47904 0.95558 0.0
O29 O 1.00266 0.44627 0.98681 0.0
O30 O 0.10957 0.48458 1.01411 0.0
O31 O 0.06506 0.41194 0.02674 0.0
H32 H 0.88625 0.28665 0.10341 0.0
H33 H 0.80747 0.24821 0.10005 0.0
H34 H 0.81324 0.27745 0.97584 0.0
H35 H 0.89201 0.31715 0.97964 0.0
H36 H 0.15313 0.62403 0.95396 0.0
H37 H 0.21785 0.69404 0.94977 0.0
H38 H 0.23191 0.69898 0.07673 0.0
H39 H 0.16603 0.62826 0.08102 0.0
C40 C 0.73109 0.64099 0.03934 0.0
Eu41 Eu 0.64849 0.6131 0.03487 0.0
C42 C 0.7575 0.61973 0.03525 0.0
C43 C 0.77802 0.61477 0.06875 0.0
C44 C 0.80264 0.59439 0.06593 0.0
C45 C 0.80781 0.57889 0.0294 0.0
C46 C 0.78671 0.58321 0.99597 0.0
C47 C 0.76167 0.60316 0.99887 0.0
C48 C 0.60168 0.60807 0.10071 0.0
C49 C 0.58651 0.51032 0.0333 0.0
C50 C 0.47476 0.54634 1.01841 0.0
Eu51 Eu 0.5583 0.57961 1.01494 0.0
C52 C 0.43812 0.554 1.01201 0.0
C53 C 0.41722 0.54498 0.97515 0.0
C54 C 0.37656 0.54116 0.97134 0.0
C55 C 0.35566 0.5462 1.00432 0.0
C56 C 0.3785 0.55948 0.0404 0.0
C57 C 0.41923 0.56312 0.04425 0.0
C58 C 0.6098 0.59855 0.94965 0.0
C59 C 0.61202 0.68003 1.01436 0.0
O60 O 0.71246 0.64544 1.00765 0.0
O61 O 0.7058 0.62927 0.06995 0.0
O62 O 0.62813 0.59335 0.09826 0.0
O63 O 0.598 0.62002 0.06655 0.0
O64 O 0.6264 0.54177 0.02737 0.0
O65 O 0.55505 0.51879 0.03612 0.0
O66 O 0.50101 0.56629 0.04807 0.0
O67 O 0.49445 0.54207 0.98766 0.0
O68 O 0.57668 0.604 0.95256 0.0
O69 O 0.61262 0.58008 0.9805 0.0
O70 O 0.57405 0.64634 1.00761 0.0
O71 O 0.64605 0.67622 0.02476 0.0
H72 H 0.77524 0.62697 0.09724 0.0
H73 H 0.81876 0.59199 0.09213 0.0
H74 H 0.78975 0.57127 0.96745 0.0
H75 H 0.74584 0.60579 0.97255 0.0
H76 H 0.43079 0.53782 0.9497 0.0
H77 H 0.36022 0.53076 0.94305 0.0
H78 H 0.36399 0.56482 0.06619 0.0
H79 H 0.43461 0.57042 0.07309 0.0
C80 C 0.42026 0.11411 0.03208 0.0
Eu81 Eu 0.44638 0.05798 0.03137 0.0
C82 C 0.44179 0.16201 0.03389 0.0
C83 C 0.44446 0.18227 0.07026 0.0
C84 C 0.46346 0.22703 0.07301 0.0
C85 C 0.48 0.25301 0.0394 0.0
C86 C 0.47847 0.23303 1.00307 0.0
C87 C 0.45946 0.18793 1.00031 0.0
C88 C 0.44263 1.01495 0.09896 0.0
C89 C 0.54798 0.09298 0.04152 0.0
C90 C 0.50489 0.946 1.02267 0.0
Eu91 Eu 0.47556 0.9988 1.01563 0.0
C92 C 0.49842 0.90244 1.01625 0.0
C93 C 0.49848 0.88662 0.97834 0.0
C94 C 0.50578 0.852 0.97359 0.0
C95 C 0.51442 0.83357 1.00662 0.0
C96 C 0.50846 0.84597 0.04452 0.0
C97 C 0.50034 0.8799 0.04919 0.0
C98 C 0.46554 0.03634 0.94829 0.0
C99 C 0.37726 0.95497 1.00549 0.0
O100 O 0.42296 0.09567 0.9996 0.0
O101 O 0.42474 0.09596 0.06357 0.0
O102 O 0.46362 0.05667 0.09533 0.0
O103 O 0.43235 0.99891 0.06438 0.0
O104 O 0.51966 0.10509 0.03275 0.0
O105 O 0.53576 0.05204 0.04269 0.0
O106 O 0.48108 0.95039 0.04937 0.0
O107 O 0.51411 0.97211 0.99265 0.0
O108 O 0.45545 0.99626 0.95123 0.0
O109 O 0.48256 0.05527 0.98065 0.0
O110 O 0.41046 0.94987 1.00142 0.0
O111 O 0.38195 0.99299 1.01685 0.0
H112 H 0.43139 0.1634 0.09677 0.0
H113 H 0.46473 0.24132 0.10159 0.0
H114 H 0.49069 0.25208 0.97657 0.0
H115 H 0.45808 0.17341 0.97184 0.0
H116 H 0.49594 0.90275 0.95237 0.0
H117 H 0.50769 0.84186 0.9439 0.0
H118 H 0.51418 0.83268 0.07094 0.0
H119 H 0.49969 0.89113 0.0788 0.0
C120 C 0.61361 0.66067 0.36392 0.0
Eu121 Eu 0.66726 0.74372 0.36227 0.0
C122 C 0.56526 0.63476 0.36641 0.0
C123 C 0.54535 0.62347 0.40358 0.0
C124 C 0.50032 0.59921 0.40695 0.0
C125 C 0.47329 0.58455 0.37327 0.0
C126 C 0.49305 0.59666 0.33595 0.0
C127 C 0.53843 0.62144 0.33257 0.0
C128 C 0.71499 0.78559 0.4271 0.0
C129 C 0.62486 0.80561 0.3686 0.0
C130 C 0.77315 0.91421 0.3536 0.0
Eu131 Eu 0.72024 0.83184 0.34347 0.0
C132 C 0.81648 0.95261 0.34817 0.0
C133 C 0.825 0.97903 0.315 0.0
C134 C 0.86101 0.02065 0.3146 0.0
C135 C 0.88919 0.03646 0.34723 0.0
C136 C 0.88283 1.00891 0.37898 0.0
C137 C 0.8466 0.96741 0.37957 0.0
C138 C 0.68199 0.78412 0.27719 0.0
C139 C 0.76893 0.78529 0.32946 0.0
O140 O 0.63122 0.68129 0.33122 0.0
O141 O 0.63349 0.68389 0.39505 0.0
O142 O 0.67306 0.76156 0.42705 0.0
O143 O 0.72796 0.7921 0.39158 0.0
O144 O 0.61684 0.76534 0.36884 0.0
O145 O 0.66397 0.83732 0.36241 0.0
O146 O 0.76928 0.88485 0.37877 0.0
O147 O 0.74667 0.89813 0.32333 0.0
O148 O 0.72013 0.81854 0.27865 0.0
O149 O 0.66325 0.77855 0.31037 0.0
O150 O 0.76191 0.8135 0.3126 0.0
O151 O 0.73691 0.75364 0.35015 0.0
H152 H 0.56462 0.63329 0.43043 0.0
H153 H 0.48675 0.59181 0.43629 0.0
H154 H 0.47362 0.58596 0.30923 0.0
H155 H 0.55246 0.62969 0.30344 0.0
H156 H 0.80252 0.96865 0.29034 0.0
H157 H 0.86588 0.04119 0.2895 0.0
H158 H 0.90432 0.0204 0.40441 0.0
H159 H 0.84083 0.94799 0.4057 0.0
C160 C 0.39765 0.97476 0.37345 0.0
Eu161 Eu 0.31479 0.94573 0.37098 0.0
C162 C 0.42395 0.95322 0.37101 0.0
C163 C 0.44689 0.95253 0.40458 0.0
C164 C 0.47153 0.93213 0.40348 0.0
C165 C 0.47368 0.91177 0.36883 0.0
C166 C 0.45049 0.91188 0.33528 0.0
C167 C 0.42573 0.93229 0.33637 0.0
C168 C 0.26932 0.94497 0.43534 0.0
C169 C 0.25204 0.84232 0.37014 0.0
C170 C 0.14435 0.88026 0.34963 0.0
Eu171 Eu 0.22789 0.91444 0.34711 0.0
C172 C 0.10637 0.88624 0.34854 0.0
C173 C 0.08204 0.87737 0.31351 0.0
C174 C 0.03936 0.86854 0.31473 0.0
C175 C 1.02053 0.8685 0.35091 0.0
C176 C 0.04608 0.88216 0.38521 0.0
C177 C 0.08885 0.89106 0.38405 0.0
C178 C 0.28093 0.92623 0.28496 0.0
C179 C 0.27955 1.01297 0.34407 0.0
O180 O 0.37753 0.97618 0.3415 0.0
O181 O 0.37378 0.9659 0.40488 0.0
O182 O 0.29452 0.92862 0.43406 0.0
O183 O 0.26479 0.95564 0.40054 0.0
O184 O 0.29261 0.87387 0.37249 0.0
O185 O 0.22112 0.85084 0.36302 0.0
O186 O 0.16952 0.89404 0.38087 0.0
O187 O 0.16516 0.8835 0.31697 0.0
O188 O 0.24994 0.93513 0.28405 0.0
O189 O 0.2808 0.90923 0.31765 0.0
O190 O 0.24459 0.97955 0.33073 0.0
O191 O 0.31085 1.00845 0.36116 0.0
H192 H 0.44615 0.96825 0.4317 0.0
H193 H 0.48987 0.93321 0.42944 0.0
H194 H 0.45245 0.89715 0.30796 0.0
H195 H 0.40859 0.93218 0.30996 0.0
H196 H 0.09457 0.8735 0.28572 0.0
H197 H 1.01997 0.85829 0.28794 0.0
H198 H 0.03196 0.88244 0.41335 0.0
H199 H 0.10677 0.89796 0.41157 0.0
C200 C 0.08033 0.44626 0.37429 0.0
Eu201 Eu 0.10976 0.39328 0.37017 0.0
C202 C 0.10167 0.49393 0.3725 0.0
C203 C 0.09654 0.51626 0.40417 0.0
C204 C 0.11644 0.56121 0.40384 0.0
C205 C 0.14221 0.58493 0.37195 0.0
C206 C 0.14866 0.56295 0.34071 0.0
C207 C 0.12854 0.51773 0.34095 0.0
C208 C 0.11648 0.35116 0.43454 0.0
C209 C 0.21372 0.43343 0.36734 0.0
C210 C 0.17063 0.27896 0.35809 0.0
Eu211 Eu 0.14671 0.33584 0.34863 0.0
C212 C 0.16451 0.23567 0.35098 0.0
C213 C 0.16757 0.22176 0.31297 0.0
C214 C 0.17636 0.18816 0.3083 0.0
C215 C 0.18288 0.16857 0.34153 0.0
C216 C 0.1738 0.17865 0.37913 0.0
C217 C 0.16467 0.21196 0.38375 0.0
C218 C 0.1399 0.37602 0.28099 0.0
C219 C 0.04613 0.29078 0.34294 0.0
O220 O 0.07834 0.42519 0.34193 0.0
O221 O 0.09013 0.43132 0.40531 0.0
O222 O 0.13117 0.39247 0.43276 0.0
O223 O 0.1054 0.336 0.39969 0.0
O224 O 0.18184 0.44115 0.35983 0.0
O225 O 0.20566 0.3939 0.37308 0.0
O226 O 0.1442 0.28279 0.38206 0.0
O227 O 0.1846 0.30709 0.3294 0.0
O228 O 0.15395 0.34881 0.28124 0.0
O229 O 0.13152 0.37973 0.31621 0.0
O230 O 0.08044 0.29117 0.3292 0.0
O231 O 0.04824 0.3256 0.36008 0.0
H232 H 0.07669 0.49881 0.42911 0.0
H233 H 0.11101 0.57752 0.42823 0.0
H234 H 0.16805 0.58061 0.31562 0.0
H235 H 0.13374 0.5015 0.31639 0.0
H236 H 0.16667 0.23896 0.28711 0.0
H237 H 0.1815 0.1799 0.27882 0.0
H238 H 0.178 0.16399 0.4054 0.0
H239 H 0.16194 0.22188 0.41335 0.0
C240 C 0.27908 0.9983 0.7024 0.0
Eu241 Eu 0.33473 0.08093 0.70132 0.0
C242 C 0.23108 0.9718 0.69884 0.0
C243 C 0.20693 0.94651 0.73092 0.0
C244 C 0.16166 0.92167 0.72883 0.0
C245 C 0.13924 0.92117 0.69442 0.0
C246 C 0.16342 0.94718 0.66254 0.0
C247 C 0.20872 0.97228 0.66474 0.0
C248 C 0.38082 0.12191 0.76673 0.0
C249 C 0.30209 0.15105 0.70844 0.0
C250 C 0.45746 0.24427 0.68467 0.0
Eu251 Eu 0.39225 0.16663 0.68097 0.0
C252 C 0.49466 0.2886 0.68673 0.0
C253 C 0.50433 0.31611 0.6544 0.0
C254 C 0.53748 0.35909 0.65705 0.0
C255 C 0.56148 0.37564 0.69229 0.0
C256 C 0.55357 0.34716 0.72376 0.0
C257 C 0.52053 0.30395 0.72094 0.0
C258 C 0.346 0.11735 0.61554 0.0
C259 C 0.43312 0.11468 0.66574 0.0
O260 O 0.30153 1.01813 0.671 0.0
O261 O 0.29342 0.02242 0.73406 0.0
O262 O 0.33882 0.09943 0.76515 0.0
O263 O 0.39594 0.12701 0.73187 0.0
O264 O 0.28907 0.10944 0.70383 0.0
O265 O 0.34316 0.1797 0.70609 0.0
O266 O 0.45536 0.21294 0.70614 0.0
O267 O 0.42345 0.23382 0.66233 0.0
O268 O 0.38595 0.14867 0.61555 0.0
O269 O 0.3315 0.11603 0.64994 0.0
O270 O 0.42365 0.13967 0.64669 0.0
O271 O 0.40391 0.08791 0.69155 0.0
H272 H 0.22319 0.94577 0.75772 0.0
H273 H 0.14434 0.90186 0.75381 0.0
H274 H 0.14729 0.94815 0.63575 0.0
H275 H 0.22614 0.99194 0.6397 0.0
H276 H 0.48551 0.30468 0.62735 0.0
H277 H 0.54255 0.37987 0.63213 0.0
H278 H 0.57208 0.35857 0.75096 0.0
H279 H 0.51425 0.283 0.74601 0.0
C280 C 0.06472 0.3068 0.69729 0.0
Eu281 Eu 0.98256 0.28123 0.69712 0.0
C282 C 0.08832 0.28257 0.69658 0.0
C283 C 0.11694 0.28847 0.72764 0.0
C284 C 0.13776 0.26431 0.72929 0.0
C285 C 0.13061 0.23353 0.69984 0.0
C286 C 0.10145 0.22715 0.66893 0.0
C287 C 0.08047 0.25136 0.66732 0.0
C288 C 0.94348 0.28903 0.76281 0.0
C289 C 0.91504 0.17834 0.70561 0.0
C290 C 0.81277 0.22369 0.68981 0.0
Eu291 Eu 0.89432 0.25069 0.67937 0.0
C292 C 0.77363 0.22768 0.68801 0.0
C293 C 0.7469 0.21447 0.65428 0.0
C294 C 0.70417 0.20559 0.65683 0.0
C295 C 0.68743 0.20906 0.69325 0.0
C296 C 0.71521 0.22611 0.72594 0.0
C297 C 0.75809 0.23572 0.72325 0.0
C298 C 0.94123 0.26047 0.61245 0.0
C299 C 0.94785 0.34775 0.66637 0.0
O300 O 0.04364 0.30644 0.66539 0.0
O301 O 0.04271 0.30197 0.72931 0.0
O302 O 0.96629 0.27005 0.7621 0.0
O303 O 0.93728 0.29674 0.72752 0.0
O304 O 0.95638 0.20783 0.70195 0.0
O305 O 0.88541 0.18894 0.70142 0.0
O306 O 0.84308 0.24765 0.71544 0.0
O307 O 0.82733 0.21419 0.6581 0.0
O308 O 0.90826 0.2663 0.6148 0.0
O309 O 0.94515 0.24481 0.64488 0.0
O310 O 0.91226 0.3131 0.65649 0.0
O311 O 0.98026 0.34475 0.68327 0.0
H312 H 0.12291 0.31161 0.75099 0.0
H313 H 0.15936 0.2696 0.75391 0.0
H314 H 0.09539 0.20394 0.64564 0.0
H315 H 0.05801 0.24547 0.64332 0.0
H316 H 0.75788 0.20798 0.62674 0.0
H317 H 0.68327 0.19276 0.6311 0.0
H318 H 0.70311 0.22973 0.75409 0.0
H319 H 0.77796 0.24602 0.74974 0.0
C320 C 0.75264 0.7835 0.71895 0.0
Eu321 Eu 0.77808 0.72743 0.71033 0.0
C322 C 0.77613 0.83119 0.7143 0.0
C323 C 0.77738 0.85734 0.74578 0.0
C324 C 0.80116 0.9024 0.74307 0.0
C325 C 0.82434 0.92273 0.70866 0.0
C326 C 0.82321 0.89643 0.67711 0.0
C327 C 0.79951 0.85123 0.67991 0.0
C328 C 0.78226 0.67921 0.77006 0.0
C329 C 0.88216 0.76285 0.70813 0.0
C330 C 0.82166 0.60332 0.67937 0.0
Eu331 Eu 0.81156 0.66967 0.68001 0.0
C332 C 0.82722 0.56544 0.67983 0.0
C333 C 0.83906 0.55261 0.64525 0.0
C334 C 0.84705 0.51838 0.646 0.0
C335 C 0.84413 0.49706 0.68147 0.0
C336 C 0.83083 0.50875 0.71588 0.0
C337 C 0.82193 0.54258 0.71495 0.0
C338 C 0.80553 0.71753 0.6178 0.0
C339 C 0.71337 0.63041 0.67223 0.0
O340 O 0.74497 0.76 0.68713 0.0
O341 O 0.76532 0.76907 0.7484 0.0
O342 O 0.79886 0.7208 0.77122 0.0
O343 O 0.77128 0.66682 0.73428 0.0
O344 O 0.85142 0.77319 0.70565 0.0
O345 O 0.87335 0.72266 0.70546 0.0
O346 O 0.79259 0.60531 0.70112 0.0
O347 O 0.84589 0.63764 0.65817 0.0
O348 O 0.8187 0.68981 0.61342 0.0
O349 O 0.79956 0.71831 0.65425 0.0
O350 O 0.74738 0.63664 0.653 0.0
O351 O 0.71624 0.65958 0.69886 0.0
H352 H 0.76029 0.84283 0.77282 0.0
H353 H 0.80183 0.92133 0.76834 0.0
H354 H 0.84024 0.91072 0.65001 0.0
H355 H 0.79973 0.83205 0.65521 0.0
H356 H 0.84258 0.56935 0.61775 0.0
H357 H 0.85673 0.50925 0.61906 0.0
H358 H 0.82777 0.49209 0.74333 0.0
H359 H 0.8123 0.55176 0.74188 0.0
H360 H 0.29369 0.50405 0.06046 0.0
H361 H 0.31092 0.55494 0.94235 0.0
H362 H 0.23281 0.51827 0.93301 0.0
H363 H 0.15969 0.47249 0.95822 0.0
H364 H 0.14187 0.42704 0.07772 0.0
H365 H 0.22001 0.46038 0.0866 0.0
C366 C 0.28057 0.50794 0.03289 0.0
C367 C 0.30856 0.53163 1.00184 0.0
C368 C 0.2354 0.48669 0.0276 0.0
C369 C 0.29045 0.53606 0.96643 0.0
C370 C 0.24568 0.51496 0.96097 0.0
C371 C 0.17288 0.46799 0.98554 0.0
C372 C 0.14464 0.44554 1.01672 0.0
C373 C 0.21791 0.4894 0.991 0.0
C374 C 0.16238 0.44217 0.05268 0.0
C375 C 0.20729 0.46237 0.05807 0.0
H376 H 0.5107 0.77039 0.05539 0.0
H377 H 0.5698 0.8393 0.94803 0.0
H378 H 0.61113 0.8028 0.94319 0.0
H379 H 0.62913 0.74891 0.96822 0.0
H380 H 0.57877 0.68967 0.08055 0.0
H381 H 0.53707 0.72605 0.08539 0.0
C382 C 0.53303 0.77819 0.03116 0.0
C383 C 0.53622 0.80749 1.00193 0.0
C384 C 0.55936 0.75948 0.02986 0.0
C385 C 0.56497 0.81591 0.97042 0.0
C386 C 0.58959 0.79569 0.96796 0.0
C387 C 0.6112 0.74619 0.9948 0.0
C388 C 0.60836 0.71784 0.02456 0.0
C389 C 0.58732 0.7676 0.9976 0.0
C390 C 0.58317 0.71296 0.05809 0.0
C391 C 0.55824 0.73277 0.06036 0.0
H392 H 0.35577 0.89033 0.95524 0.0
H393 H 0.31328 0.92409 0.06125 0.0
H394 H 0.26641 0.84703 0.07607 0.0
H395 H 0.24009 0.76996 0.05941 0.0
H396 H 0.29466 0.73976 0.95928 0.0
H397 H 0.33697 0.81609 0.94317 0.0
C398 C 0.33498 0.88082 0.98091 0.0
C399 C 0.33659 0.91302 1.00618 0.0
C400 C 0.31217 0.83722 0.99128 0.0
C401 C 0.31095 0.90016 0.0402 0.0
C402 C 0.28537 0.85612 0.04933 0.0
C403 C 0.2619 0.78015 0.03454 0.0
C404 C 0.26321 0.74896 1.00986 0.0
C405 C 0.28641 0.82439 0.02542 0.0
C406 C 0.29209 0.76289 0.97807 0.0
C407 C 0.31603 0.8065 0.96866 0.0
H408 H 0.55236 0.32048 1.00594 0.0
H409 H 0.44308 0.29185 0.07949 0.0
H410 H 0.46746 0.36836 0.08552 0.0
H411 H 0.51826 0.44343 0.0687 0.0
H412 H 0.62882 0.47402 0.99661 0.0
H413 H 0.60547 0.39706 0.99103 0.0
C414 C 0.53386 0.33104 1.02314 0.0
C415 C 0.49595 0.30025 0.04233 0.0
C416 C 0.54826 0.37554 0.02676 0.0
C417 C 0.47265 0.31467 0.06483 0.0
C418 C 0.48644 0.35851 0.06817 0.0
C419 C 0.5375 0.43332 0.05203 0.0
C420 C 0.57533 0.46444 0.03324 0.0
C421 C 0.52406 0.3892 0.04921 0.0
C422 C 0.59988 0.45077 1.01181 0.0
C423 C 0.58634 0.40672 1.00837 0.0
H424 H 0.60033 0.17321 1.00879 0.0
H425 H 0.60117 0.0803 0.08882 0.0
H426 H 0.67941 0.12302 0.09463 0.0
H427 H 0.74813 0.18444 0.07485 0.0
H428 H 0.74962 0.27857 0.99496 0.0
H429 H 0.67066 0.23753 0.99075 0.0
C430 C 0.61765 0.16296 0.02814 0.0
C431 C 0.5947 0.12378 0.04867 0.0
C432 C 0.66334 0.18751 0.03089 0.0
C433 C 0.61785 0.1104 0.07284 0.0
C434 C 0.66275 0.13471 0.07608 0.0
C435 C 0.73135 0.19654 0.05698 0.0
C436 C 0.7552 0.23478 0.03537 0.0
C437 C 0.68591 0.17301 0.05491 0.0
C438 C 0.73243 0.24902 1.01162 0.0
C439 C 0.68709 0.2257 1.00941 0.0
H440 H 0.95301 0.53216 0.99324 0.0
H441 H 0.89426 0.44684 0.09147 0.0
H442 H 0.84168 0.47155 0.09791 0.0
H443 H 0.81319 0.51878 0.07578 0.0
H444 H 0.87003 0.6 0.9744 0.0
H445 H 0.92197 0.57518 0.96861 0.0
C446 C 0.92846 0.51876 1.01589 0.0
C447 C 0.92745 0.48774 0.0419 0.0
C448 C 0.89787 0.53235 1.01871 0.0
C449 C 0.89538 0.47045 0.07092 0.0
C450 C 0.8655 0.48476 0.07468 0.0
C451 C 0.83693 0.53092 0.05241 0.0
C452 C 0.83768 0.56133 0.02554 0.0
C453 C 0.86651 0.51588 0.04881 0.0
C454 C 0.86839 0.57637 0.99521 0.0
C455 C 0.89831 0.56235 0.992 0.0
H456 H 0.81792 0.74537 0.34338 0.0
H457 H 0.82591 0.86984 0.34108 0.0
H458 H 0.9027 0.90633 0.34933 0.0
H459 H 0.97014 0.90492 0.35172 0.0
H460 H 0.96582 0.78298 0.35598 0.0
H461 H 0.88653 0.74427 0.35339 0.0
C462 C 0.83647 0.78029 0.34509 0.0
C463 C 0.81558 0.8042 0.34002 0.0
C464 C 0.88199 0.80214 0.3502 0.0
C465 C 0.84053 0.84985 0.34335 0.0
C466 C 0.88497 0.87133 0.34833 0.0
C467 C 0.95161 0.86991 0.35252 0.0
C468 C 0.97315 0.84656 0.3536 0.0
C469 C 0.90628 0.84799 0.35075 0.0
C470 C 0.94929 0.8013 0.35481 0.0
C471 C 0.90408 0.77922 0.35328 0.0
H472 H 0.16949 0.09721 0.3825 0.0
H473 H 0.25062 0.1867 0.29348 0.0
H474 H 0.29331 0.1512 0.29009 0.0
H475 H 0.30551 0.09166 0.3098 0.0
H476 H 0.22546 1.00464 0.39975 0.0
H477 H 0.18565 0.04249 0.40632 0.0
C478 C 0.19661 0.10909 0.36246 0.0
C479 C 0.20613 0.14408 0.33774 0.0
C480 C 0.22213 0.08949 0.36151 0.0
C481 C 0.24145 0.15887 0.31194 0.0
C482 C 0.26648 0.13904 0.31039 0.0
C483 C 0.28105 0.0827 0.33227 0.0
C484 C 0.27044 0.04704 0.35624 0.0
C485 C 0.25717 0.10421 0.33496 0.0
C486 C 0.23666 0.03415 0.38357 0.0
C487 C 0.21273 0.05487 0.38622 0.0
H488 H 0.05223 0.22151 0.35969 0.0
H489 H 0.95741 0.26004 0.33826 0.0
H490 H 0.89988 0.1834 0.33847 0.0
H491 H 0.87823 0.10565 0.34 0.0
H492 H 0.97527 0.06998 0.36046 0.0
H493 H 0.03129 0.14625 0.36401 0.0
C494 C 1.01898 0.21347 0.35473 0.0
C495 C 1.0091 0.24645 0.34781 0.0
C496 C 0.98697 0.17005 0.35404 0.0
C497 C 0.96579 0.23531 0.3432 0.0
C498 C 0.93315 0.19157 0.34304 0.0
C499 C 0.91174 0.1148 0.34509 0.0
C500 C 0.92295 0.08252 0.34949 0.0
C501 C 0.94359 0.15871 0.34749 0.0
C502 C 0.96613 0.09438 0.35687 0.0
C503 C 0.99798 0.13784 0.35894 0.0
H504 H 0.17129 0.77286 0.369 0.0
H505 H 0.30549 0.80751 0.3746 0.0
H506 H 0.28391 0.73074 0.374 0.0
H507 H 0.22588 0.65301 0.37182 0.0
H508 H 0.09259 0.62121 0.36765 0.0
H509 H 0.11487 0.69765 0.36709 0.0
C510 C 0.19608 0.76392 0.3702 0.0
C511 C 0.24007 0.79614 0.37198 0.0
C512 C 0.18347 0.72004 0.36974 0.0
C513 C 0.27142 0.78349 0.37349 0.0
C514 C 0.25906 0.73956 0.37295 0.0
C515 C 0.20196 0.6631 0.37056 0.0
C516 C 0.15763 0.63172 0.36974 0.0
C517 C 0.2151 0.70745 0.37097 0.0
C518 C 0.1268 0.64491 0.3684 0.0
C519 C 0.13952 0.68855 0.36815 0.0
H520 H 0.27974 0.44295 0.41411 0.0
H521 H 0.2518 0.50062 0.31548 0.0
H522 H 0.32935 0.55204 0.3076 0.0
H523 H 0.40578 0.57993 0.32841 0.0
H524 H 0.43167 0.52117 0.42804 0.0
H525 H 0.35481 0.47233 0.43643 0.0
C526 C 0.29059 0.46723 0.39126 0.0
C527 C 0.25993 0.46829 0.36576 0.0
C528 C 0.33514 0.49687 0.38717 0.0
C529 C 0.27459 0.4997 0.33606 0.0
C530 C 0.31903 0.52887 0.33134 0.0
C531 C 0.39472 0.55634 0.35184 0.0
C532 C 0.42524 0.55489 0.37762 0.0
C533 C 0.34976 0.52766 0.35661 0.0
C534 C 0.4096 0.52413 0.40807 0.0
C535 C 0.36535 0.49568 0.4128 0.0
H536 H 0.46083 0.83055 0.38302 0.0
H537 H 0.55718 0.95936 0.34952 0.0
H538 H 0.61213 0.93801 0.34751 0.0
H539 H 0.63297 0.88376 0.35551 0.0
H540 H 0.53834 0.7535 0.38751 0.0
H541 H 0.4825 0.7743 0.3901 0.0
C542 C 0.49387 0.85365 0.37511 0.0
C543 C 0.50517 0.89648 0.36626 0.0
C544 C 0.52549 0.84099 0.37401 0.0
C545 C 0.54794 0.9263 0.35624 0.0
C546 C 0.5793 0.9141 0.35521 0.0
C547 C 0.60023 0.85962 0.36329 0.0
C548 C 0.5901 0.81697 0.37163 0.0
C549 C 0.5685 0.87167 0.36417 0.0
C550 C 0.54721 0.7865 0.38115 0.0
C551 C 0.51526 0.79844 0.38254 0.0
H552 H 0.63558 0.22956 0.65269 0.0
H553 H 0.63399 0.14517 0.74326 0.0
H554 H 0.55454 0.10646 0.74383 0.0
H555 H 0.48425 0.095 0.71574 0.0
H556 H 0.49188 0.17768 0.61929 0.0
H557 H 0.56841 0.21891 0.62559 0.0
C558 C 0.61773 0.20299 0.67284 0.0
C559 C 0.64024 0.19016 0.6978 0.0
C560 C 0.57245 0.1803 0.67222 0.0
C561 C 0.617 0.15581 0.72397 0.0
C562 C 0.5716 0.13342 0.72403 0.0
C563 C 0.5027 0.12113 0.69545 0.0
C564 C 0.48099 0.13203 0.667 0.0
C565 C 0.54865 0.14472 0.69757 0.0
C566 C 0.50635 0.16729 0.64166 0.0
C567 C 0.55084 0.19165 0.64506 0.0
H568 H 0.88213 0.35309 0.63387 0.0
H569 H 0.99673 0.42697 0.70593 0.0
H570 H 0.97239 0.47898 0.72029 0.0
H571 H 0.91653 0.5015 0.71278 0.0
H572 H 0.79844 0.41797 0.64903 0.0
H573 H 0.82431 0.36805 0.63468 0.0
C574 C 0.90234 0.38026 0.65312 0.0
C575 C 0.94179 0.38596 0.66861 0.0
C576 C 0.88623 0.4068 0.66431 0.0
C577 C 0.96695 0.4221 0.69278 0.0
C578 C 0.95243 0.45118 0.70173 0.0
C579 C 0.89634 0.47182 0.69651 0.0
C580 C 0.85588 0.46322 0.68155 0.0
C581 C 0.91175 0.44342 0.68804 0.0
C582 C 0.82967 0.42498 0.66053 0.0
C583 C 0.84469 0.3969 0.65197 0.0
H584 H 0.65892 0.57679 0.73084 0.0
H585 H 0.69323 0.57955 0.60841 0.0
H586 H 0.65844 0.50177 0.60666 0.0
H587 H 0.61667 0.43225 0.63825 0.0
H588 H 0.57177 0.42608 0.75718 0.0
H589 H 0.61176 0.50486 0.76181 0.0
C590 C 0.65684 0.56031 0.7033 0.0
C591 C 0.67804 0.58456 0.66961 0.0
C592 C 0.63533 0.51457 0.70187 0.0
C593 C 0.67644 0.5621 0.63466 0.0
C594 C 0.65711 0.51741 0.63365 0.0
C595 C 0.61542 0.44805 0.66519 0.0
C596 C 0.59096 0.42308 0.69715 0.0
C597 C 0.63638 0.49327 0.66694 0.0
C598 C 0.59076 0.44433 0.73216 0.0
C599 C 0.61312 0.48955 0.73465 0.0
H600 H 0.80086 0.97924 0.7367 0.0
H601 H 0.90338 0.97546 0.67382 0.0
H602 H 0.94282 0.05432 0.66931 0.0
H603 H 0.9473 0.12539 0.68206 0.0
H604 H 0.84362 0.12592 0.74624 0.0
H605 H 0.80654 0.04812 0.75193 0.0
C606 C 0.83216 0.99549 0.72252 0.0
C607 C 0.84894 0.97104 0.7058 0.0
C608 C 0.85487 0.0408 0.72039 0.0
C609 C 0.88918 0.99314 0.68664 0.0
C610 C 0.91203 0.03842 0.68431 0.0
C611 C 0.91719 0.10848 0.69808 0.0
C612 C 0.89865 0.13186 0.71393 0.0
C613 C 0.89521 0.0628 0.70105 0.0
C614 C 0.85893 0.10907 0.73381 0.0
C615 C 0.83739 0.06434 0.73699 0.0
H616 H 0.94373 0.78369 0.65313 0.0
H617 H 0.92402 0.81673 0.7704 0.0
H618 H 1.0019 0.86842 0.77726 0.0
H619 H 0.07611 0.90364 0.7497 0.0
H620 H 0.09406 0.87171 0.63096 0.0
H621 H 1.01672 0.82123 0.62455 0.0
C622 C 0.95655 0.80268 0.67997 0.0
C623 C 0.92831 0.79689 0.71111 0.0
C624 C 1.00114 0.83273 0.68334 0.0
C625 C 0.94516 0.82125 0.74588 0.0
C626 C 0.9897 0.85058 0.74982 0.0
C627 C 0.06311 0.88561 0.72243 0.0
C628 C 0.09125 0.89174 0.69082 0.0
C629 C 1.01812 0.85654 0.71876 0.0
C630 C 0.07344 0.86831 0.6556 0.0
C631 C 0.0291 0.83909 0.65197 0.0
H632 H 0.21268 0.11112 0.69557 0.0
H633 H 0.32495 0.23237 0.72965 0.0
H634 H 0.28271 0.26758 0.7289 0.0
H635 H 0.21535 0.26627 0.71708 0.0
H636 H 0.10077 0.14718 0.68462 0.0
H637 H 0.14207 0.10937 0.68637 0.0
C638 C 0.2276 0.14498 0.7035 0.0
C639 C 0.27225 0.16866 0.71263 0.0
C640 C 0.20276 0.16587 0.70314 0.0
C641 C 0.2909 0.21285 0.72235 0.0
C642 C 0.26675 0.2334 0.72191 0.0
C643 C 0.19912 0.2319 0.71086 0.0
C644 C 0.15497 0.20971 0.70088 0.0
C645 C 0.22288 0.21047 0.71209 0.0
C646 C 0.13488 0.16527 0.69207 0.0
C647 C 0.15847 0.14356 0.69328 0.0
H648 H 0.11177 0.43548 0.27404 0.0
H649 H 0.13991 0.35138 0.20522 0.0
H650 H 0.11599 0.37112 0.14528 0.0
H651 H 0.0816 0.40806 0.11252 0.0
H652 H 0.05429 0.49329 0.17979 0.0
H653 H 0.08191 0.47682 0.23993 0.0
C654 C 0.11262 0.42146 0.24601 0.0
C655 C 0.12732 0.39141 0.24463 0.0
C656 C 0.0987 0.43318 0.21113 0.0
C657 C 0.12875 0.37434 0.20756 0.0
C658 C 0.11493 0.38561 0.17309 0.0
C659 C 0.08365 0.42459 0.13995 0.0
C660 C 0.06765 0.45346 0.14113 0.0
C661 C 0.09945 0.41466 0.17445 0.0
C662 C 0.06743 0.47195 0.17771 0.0
C663 C 0.08301 0.46224 0.2122 0.0
H664 H 0.61089 0.70019 0.26556 0.0
H665 H 0.71715 0.80572 0.20521 0.0
H666 H 0.70008 0.76233 0.14563 0.0
H667 H 0.65876 0.69312 0.1108 0.0
H668 H 0.55549 0.58459 0.16998 0.0
H669 H 0.56757 0.62958 0.22916 0.0
C670 C 0.63029 0.71361 0.23946 0.0
C671 C 0.66578 0.75643 0.24055 0.0
C672 C 0.62096 0.68763 0.20475 0.0
C673 C 0.68987 0.77309 0.20581 0.0
C674 C 0.68021 0.74816 0.17143 0.0
C675 C 0.63856 0.6794 0.13654 0.0
C676 C 0.60604 0.63553 0.13583 0.0
C677 C 0.64641 0.70523 0.17064 0.0
C678 C 0.58057 0.61824 0.16963 0.0
C679 C 0.58762 0.64406 0.20355 0.0
H680 H 0.42868 0.95795 0.16105 0.0
H681 H 0.3788 0.0329 0.10704 0.0
H682 H 0.32547 1.01264 0.15866 0.0
H683 H 0.29315 0.97537 0.22025 0.0
H684 H 0.33925 0.89804 0.27549 0.0
H685 H 0.39277 0.91665 0.22284 0.0
C686 C 0.40594 0.96954 0.16057 0.0
C687 C 0.40858 0.99779 0.13026 0.0
C688 C 0.37433 0.95719 0.19078 0.0
C689 C 0.37839 1.01203 0.13014 0.0
C690 C 0.34753 1.00023 0.15971 0.0
C691 C 0.31473 0.96234 0.22075 0.0
C692 C 0.31235 0.93566 0.25214 0.0
C693 C 0.34533 0.97319 0.19038 0.0
C694 C 0.34071 0.91916 0.25205 0.0
C695 C 0.37128 0.92972 0.22177 0.0
H696 H 0.50237 0.10957 0.90038 0.0
H697 H 0.38149 0.99508 0.92707 0.0
H698 H 0.34487 1.01313 0.87628 0.0
H699 H 0.34656 0.05894 0.82238 0.0
H700 H 0.46728 0.1695 0.78856 0.0
H701 H 0.50422 0.15582 0.84343 0.0
C702 C 0.46794 0.08892 0.89529 0.0
C703 C 0.44466 0.05106 0.9182 0.0
C704 C 0.44695 0.09878 0.86445 0.0
C705 C 0.40024 0.02438 0.9104 0.0
C706 C 0.37919 0.03468 0.88115 0.0
C707 C 0.3809 0.08059 0.82714 0.0
C708 C 0.40376 0.11592 0.80153 0.0
C709 C 0.40212 0.0715 0.85776 0.0
C710 C 0.44857 0.14251 0.80792 0.0
C711 C 0.46975 0.1345 0.83934 0.0
H712 H 0.99363 0.44915 0.87886 0.0
H713 H 1.01447 0.36806 0.95834 0.0
H714 H 0.98665 0.31026 0.90899 0.0
H715 H 0.9614 0.28399 0.84099 0.0
H716 H 0.94428 0.36609 0.75937 0.0
H717 H 0.96683 0.42205 0.81034 0.0
C718 C 0.99151 0.41858 0.88547 0.0
C719 C 1.00369 0.41209 0.92353 0.0
C720 C 0.97704 0.38577 0.85585 0.0
C721 C 1.00227 0.37285 0.93077 0.0
C722 C 0.98729 0.34004 0.90199 0.0
C723 C 0.96179 0.31377 0.83451 0.0
C724 C 0.95071 0.32025 0.79605 0.0
C725 C 0.97482 0.34609 0.86427 0.0
C726 C 0.9521 0.35961 0.78848 0.0
C727 C 0.96527 0.39192 0.81776 0.0
H728 H 0.71938 0.69273 0.79769 0.0
H729 H 0.77552 0.61275 0.81762 0.0
H730 H 0.72854 0.58064 0.87552 0.0
H731 H 0.67173 0.57726 0.92251 0.0
H732 H 0.61693 0.65814 0.89813 0.0
H733 H 0.66304 0.68786 0.84113 0.0
C734 C 0.72134 0.66809 0.81453 0.0
C735 C 0.75135 0.65548 0.80317 0.0
C736 C 0.6944 0.65003 0.84767 0.0
C737 C 0.75287 0.62319 0.82542 0.0
C738 C 0.72603 0.60496 0.85876 0.0
C739 C 0.66997 0.60138 0.9047 0.0
C740 C 0.6404 0.61527 0.91515 0.0
C741 C 0.69678 0.61845 0.87063 0.0
C742 C 0.6388 0.64645 0.89122 0.0
C743 C 0.66535 0.66366 0.85834 0.0
H744 H 0.70015 0.77657 0.50681 0.0
H745 H 0.78591 0.77523 0.41889 0.0
H746 H 0.82096 0.75351 0.46844 0.0
H747 H 0.82689 0.73319 0.53805 0.0
H748 H 0.73825 0.73161 0.62382 0.0
H749 H 0.7067 0.75768 0.57539 0.0
C750 C 0.72705 0.77236 0.49858 0.0
C751 C 0.74042 0.77837 0.45889 0.0
C752 C 0.74743 0.75989 0.52753 0.0
C753 C 0.77507 0.77185 0.44905 0.0
C754 C 0.79511 0.759 0.47753 0.0
C755 C 0.80097 0.73897 0.54619 0.0
C756 C 0.78682 0.7328 0.58586 0.0
C757 C 0.78154 0.75267 0.51705 0.0
C758 C 0.75228 0.73935 0.59499 0.0
C759 C 0.7333 0.75319 0.5667 0.0
H760 H 0.33025 0.97519 0.49406 0.0
H761 H 0.2148 0.97542 0.45819 0.0
H762 H 0.22722 0.02849 0.51024 0.0
H763 H 0.27335 0.07743 0.56592 0.0
H764 H 0.38718 0.07297 0.60047 0.0
H765 H 0.37204 1.01844 0.55073 0.0
C766 C 0.30725 0.9862 0.49772 0.0
C767 C 0.27231 0.97208 0.47083 0.0
C768 C 0.31413 1.01597 0.52837 0.0
C769 C 0.24318 0.98714 0.47678 0.0
C770 C 0.24995 1.01709 0.50717 0.0
C771 C 0.29434 0.06392 0.56296 0.0
C772 C 0.33137 0.0795 0.58774 0.0
C773 C 0.28575 0.03232 0.53305 0.0
C774 C 0.35845 0.06192 0.5826 0.0
C775 C 0.34988 0.03057 0.55375 0.0
H776 H 1.00591 0.24267 0.58492 0.0
H777 H 0.94897 0.32229 0.56353 0.0
H778 H 0.99656 0.35583 0.50829 0.0
H779 H 0.05437 0.36423 0.46511 0.0
H780 H 0.11163 0.28464 0.48064 0.0
H781 H 0.06448 0.24976 0.53792 0.0
C782 C 1.00409 0.26744 0.56825 0.0
C783 C 0.97335 0.2797 0.5791 0.0
C784 C 0.0318 0.28683 0.535 0.0
C785 C 0.97168 0.3117 0.55642 0.0
C786 C 0.99913 0.3312 0.52451 0.0
C787 C 0.0568 0.33935 0.48105 0.0
C788 C 0.08727 0.32778 0.46876 0.0
C789 C 0.02926 0.3192 0.51345 0.0
C790 C 0.08893 0.29465 0.48947 0.0
C791 C 0.06185 0.27469 0.52237 0.0
loop_
_geom_bond_atom_site_label_1
_geom_bond_atom_site_label_2
_geom_bond_distance
_geom_bond_site_symmetry_2
_ccdc_geom_bond_type
C0 Eu1 2.835 . S
C0 C2 1.500 . S
C0 O20 1.257 1_554 S
C0 O21 1.260 . S
Eu1 C0 2.835 . S
Eu1 O20 2.473 1_554 S
Eu1 O21 2.480 . S
Eu1 O22 2.430 . S
Eu1 O23 2.670 1_655 S
Eu1 O24 2.394 . S
Eu1 O29 2.355 1_554 S
Eu1 O31 2.374 1_654 S
C2 C0 1.500 . S
C2 C3 1.377 . S
C2 C7 1.377 1_554 S
C3 C2 1.377 . S
C3 C4 1.395 . S
C3 H32 0.931 . S
C4 C3 1.395 . S
C4 C5 1.383 . S
C4 H33 0.931 . S
C5 C4 1.383 . S
C5 C6 1.394 1_554 S
C6 C5 1.394 1_556 S
C6 C7 1.378 . S
C6 H34 0.931 . S
C7 C2 1.377 1_556 S
C7 C6 1.378 . S
C7 H35 0.931 . S
C8 O22 1.259 1_455 S
C8 O23 1.270 . S
C9 O24 1.251 . S
C9 O25 1.251 . S
C10 Eu11 2.835 . S
C10 C12 1.500 . S
C10 O26 1.257 1_556 S
C10 O27 1.260 . S
Eu11 C10 2.835 . S
Eu11 O23 2.355 1_556 S
Eu11 O25 2.374 1_456 S
Eu11 O26 2.473 1_556 S
Eu11 O27 2.480 . S
Eu11 O28 2.430 . S
Eu11 O29 2.670 1_455 S
Eu11 O30 2.394 . S
C12 C10 1.500 . S
C12 C13 1.377 . S
C12 C17 1.377 1_556 S
C13 C12 1.377 . S
C13 C14 1.395 . S
C13 H36 0.931 . S
C14 C13 1.395 . S
C14 C15 1.383 . S
C14 H37 0.931 . S
C15 C14 1.383 . S
C15 C16 1.394 1_556 S
C16 C15 1.394 1_554 S
C16 C17 1.378 . S
C16 H38 0.931 . S
C17 C12 1.377 1_554 S
C17 C16 1.378 . S
C17 H39 0.931 . S
C18 O28 1.259 1_655 S
C18 O29 1.270 . S
C19 O30 1.251 . S
C19 O31 1.251 . S
O20 C0 1.257 1_556 S
O20 Eu1 2.473 1_556 S
O21 C0 1.260 . S
O21 Eu1 2.480 . S
O22 Eu1 2.430 . S
O22 C8 1.259 1_655 S
O23 Eu1 2.670 1_455 S
O23 C8 1.270 . S
O23 Eu11 2.355 1_554 S
O24 Eu1 2.394 . S
O24 C9 1.251 . S
O25 C9 1.251 . S
O25 Eu11 2.374 1_654 S
O26 C10 1.257 1_554 S
O26 Eu11 2.473 1_554 S
O27 C10 1.260 . S
O27 Eu11 2.480 . S
O28 Eu11 2.430 . S
O28 C18 1.259 1_455 S
O29 Eu1 2.355 1_556 S
O29 Eu11 2.670 1_655 S
O29 C18 1.270 . S
O30 Eu11 2.394 . S
O30 C19 1.251 . S
O31 Eu1 2.374 1_456 S
O31 C19 1.251 . S
H32 C3 0.931 . S
H33 C4 0.931 . S
H34 C6 0.931 . S
H35 C7 0.931 . S
H36 C13 0.931 . S
H37 C14 0.931 . S
H38 C16 0.931 . S
H39 C17 0.931 . S
C40 Eu41 2.835 . S
C40 C42 1.500 . S
C40 O60 1.257 1_554 S
C40 O61 1.260 . S
Eu41 C40 2.835 . S
Eu41 O60 2.473 1_554 S
Eu41 O61 2.480 . S
Eu41 O62 2.430 . S
Eu41 O63 2.670 . S
Eu41 O64 2.394 . S
Eu41 O69 2.355 1_554 S
Eu41 O71 2.374 1_554 S
C42 C40 1.500 . S
C42 C43 1.377 . S
C42 C47 1.377 1_554 S
C43 C42 1.377 . S
C43 C44 1.395 . S
C43 H72 0.931 . S
C44 C43 1.395 . S
C44 C45 1.383 . S
C44 H73 0.931 . S
C45 C44 1.383 . S
C45 C46 1.394 1_554 S
C46 C45 1.394 1_556 S
C46 C47 1.378 . S
C46 H74 0.931 . S
C47 C42 1.377 1_556 S
C47 C46 1.378 . S
C47 H75 0.931 . S
C48 O62 1.259 . S
C48 O63 1.270 . S
C49 O64 1.251 . S
C49 O65 1.251 . S
C50 Eu51 2.835 . S
C50 C52 1.500 . S
C50 O66 1.257 1_556 S
C50 O67 1.260 . S
Eu51 C50 2.835 . S
Eu51 O63 2.355 1_556 S
Eu51 O65 2.374 1_556 S
Eu51 O66 2.473 1_556 S
Eu51 O67 2.480 . S
Eu51 O68 2.430 . S
Eu51 O69 2.670 . S
Eu51 O70 2.394 . S
C52 C50 1.500 . S
C52 C53 1.377 . S
C52 C57 1.377 1_556 S
C53 C52 1.377 . S
C53 C54 1.395 . S
C53 H76 0.931 . S
C54 C53 1.395 . S
C54 C55 1.383 . S
C54 H77 0.931 . S
C55 C54 1.383 . S
C55 C56 1.394 1_556 S
C56 C55 1.394 1_554 S
C56 C57 1.378 . S
C56 H78 0.931 . S
C57 C52 1.377 1_554 S
C57 C56 1.378 . S
C57 H79 0.931 . S
C58 O68 1.259 . S
C58 O69 1.270 . S
C59 O70 1.251 . S
C59 O71 1.251 . S
O60 C40 1.257 1_556 S
O60 Eu41 2.473 1_556 S
O61 C40 1.260 . S
O61 Eu41 2.480 . S
O62 Eu41 2.430 . S
O62 C48 1.259 . S
O63 Eu41 2.670 . S
O63 C48 1.270 . S
O63 Eu51 2.355 1_554 S
O64 Eu41 2.394 . S
O64 C49 1.251 . S
O65 C49 1.251 . S
O65 Eu51 2.374 1_554 S
O66 C50 1.257 1_554 S
O66 Eu51 2.473 1_554 S
O67 C50 1.260 . S
O67 Eu51 2.480 . S
O68 Eu51 2.430 . S
O68 C58 1.259 . S
O69 Eu41 2.355 1_556 S
O69 Eu51 2.670 . S
O69 C58 1.270 . S
O70 Eu51 2.394 . S
O70 C59 1.251 . S
O71 Eu41 2.374 1_556 S
O71 C59 1.251 . S
H72 C43 0.931 . S
H73 C44 0.931 . S
H74 C46 0.931 . S
H75 C47 0.931 . S
H76 C53 0.931 . S
H77 C54 0.931 . S
H78 C56 0.931 . S
H79 C57 0.931 . S
C80 Eu81 2.835 . S
C80 C82 1.500 . S
C80 O100 1.257 1_554 S
C80 O101 1.260 . S
Eu81 C80 2.835 . S
Eu81 O100 2.473 1_554 S
Eu81 O101 2.480 . S
Eu81 O102 2.430 . S
Eu81 O103 2.670 1_545 S
Eu81 O104 2.394 . S
Eu81 O109 2.355 1_554 S
Eu81 O111 2.374 1_544 S
C82 C80 1.500 . S
C82 C83 1.377 . S
C82 C87 1.377 1_554 S
C83 C82 1.377 . S
C83 C84 1.395 . S
C83 H112 0.931 . S
C84 C83 1.395 . S
C84 C85 1.383 . S
C84 H113 0.931 . S
C85 C84 1.383 . S
C85 C86 1.394 1_554 S
C86 C85 1.394 1_556 S
C86 C87 1.378 . S
C86 H114 0.931 . S
C87 C82 1.377 1_556 S
C87 C86 1.378 . S
C87 H115 0.931 . S
C88 O102 1.259 . S
C88 O103 1.270 1_545 S
C89 O104 1.251 . S
C89 O105 1.251 . S
C90 Eu91 2.835 . S
C90 C92 1.500 . S
C90 O106 1.257 1_556 S
C90 O107 1.260 . S
Eu91 C90 2.835 . S
Eu91 O103 2.355 1_556 S
Eu91 O105 2.374 1_566 S
Eu91 O106 2.473 1_556 S
Eu91 O107 2.480 . S
Eu91 O108 2.430 . S
Eu91 O109 2.670 1_565 S
Eu91 O110 2.394 . S
C92 C90 1.500 . S
C92 C93 1.377 . S
C92 C97 1.377 1_556 S
C93 C92 1.377 . S
C93 C94 1.395 . S
C93 H116 0.931 . S
C94 C93 1.395 . S
C94 C95 1.383 . S
C94 H117 0.931 . S
C95 C94 1.383 . S
C95 C96 1.394 1_556 S
C96 C95 1.394 1_554 S
C96 C97 1.378 . S
C96 H118 0.931 . S
C97 C92 1.377 1_554 S
C97 C96 1.378 . S
C97 H119 0.931 . S
C98 O108 1.259 1_545 S
C98 O109 1.270 . S
C99 O110 1.251 . S
C99 O111 1.251 . S
O100 C80 1.257 1_556 S
O100 Eu81 2.473 1_556 S
O101 C80 1.260 . S
O101 Eu81 2.480 . S
O102 Eu81 2.430 . S
O102 C88 1.259 . S
O103 Eu81 2.670 1_565 S
O103 C88 1.270 1_565 S
O103 Eu91 2.355 1_554 S
O104 Eu81 2.394 . S
O104 C89 1.251 . S
O105 C89 1.251 . S
O105 Eu91 2.374 1_544 S
O106 C90 1.257 1_554 S
O106 Eu91 2.473 1_554 S
O107 C90 1.260 . S
O107 Eu91 2.480 . S
O108 Eu91 2.430 . S
O108 C98 1.259 1_565 S
O109 Eu81 2.355 1_556 S
O109 Eu91 2.670 1_545 S
O109 C98 1.270 . S
O110 Eu91 2.394 . S
O110 C99 1.251 . S
O111 Eu81 2.374 1_566 S
O111 C99 1.251 . S
H112 C83 0.931 . S
H113 C84 0.931 . S
H114 C86 0.931 . S
H115 C87 0.931 . S
H116 C93 0.931 . S
H117 C94 0.931 . S
H118 C96 0.931 . S
H119 C97 0.931 . S
C120 Eu121 2.835 . S
C120 C122 1.500 . S
C120 O140 1.257 . S
C120 O141 1.260 . S
Eu121 C120 2.835 . S
Eu121 O140 2.473 . S
Eu121 O141 2.480 . S
Eu121 O142 2.430 . S
Eu121 O143 2.670 . S
Eu121 O144 2.394 . S
Eu121 O149 2.355 . S
Eu121 O151 2.374 . S
C122 C120 1.500 . S
C122 C123 1.377 . S
C122 C127 1.377 . S
C123 C122 1.377 . S
C123 C124 1.395 . S
C123 H152 0.931 . S
C124 C123 1.395 . S
C124 C125 1.383 . S
C124 H153 0.931 . S
C125 C124 1.383 . S
C125 C126 1.394 . S
C126 C125 1.394 . S
C126 C127 1.378 . S
C126 H154 0.931 . S
C127 C122 1.377 . S
C127 C126 1.378 . S
C127 H155 0.931 . S
C128 O142 1.259 . S
C128 O143 1.270 . S
C129 O144 1.251 . S
C129 O145 1.251 . S
C130 Eu131 2.835 . S
C130 C132 1.500 . S
C130 O146 1.257 . S
C130 O147 1.260 . S
Eu131 C130 2.835 . S
Eu131 O143 2.355 . S
Eu131 O145 2.374 . S
Eu131 O146 2.473 . S
Eu131 O147 2.480 . S
Eu131 O148 2.430 . S
Eu131 O149 2.670 . S
Eu131 O150 2.394 . S
C132 C130 1.500 . S
C132 C133 1.377 . S
C132 C137 1.377 . S
C133 C132 1.377 . S
C133 C134 1.395 1_565 S
C133 H156 0.931 . S
C134 C133 1.395 1_545 S
C134 C135 1.383 . S
C134 H157 0.931 . S
C135 C134 1.383 . S
C135 C136 1.394 1_545 S
C136 C135 1.394 1_565 S
C136 C137 1.378 . S
C136 H158 0.931 . S
C137 C132 1.377 . S
C137 C136 1.378 . S
C137 H159 0.931 . S
C138 O148 1.259 . S
C138 O149 1.270 . S
C139 O150 1.251 . S
C139 O151 1.251 . S
O140 C120 1.257 . S
O140 Eu121 2.473 . S
O141 C120 1.260 . S
O141 Eu121 2.480 . S
O142 Eu121 2.430 . S
O142 C128 1.259 . S
O143 Eu121 2.670 . S
O143 C128 1.270 . S
O143 Eu131 2.355 . S
O144 Eu121 2.394 . S
O144 C129 1.251 . S
O145 C129 1.251 . S
O145 Eu131 2.374 . S
O146 C130 1.257 . S
O146 Eu131 2.473 . S
O147 C130 1.260 . S
O147 Eu131 2.480 . S
O148 Eu131 2.430 . S
O148 C138 1.259 . S
O149 Eu121 2.355 . S
O149 Eu131 2.670 . S
O149 C138 1.270 . S
O150 Eu131 2.394 . S
O150 C139 1.251 . S
O151 Eu121 2.374 . S
O151 C139 1.251 . S
H152 C123 0.931 . S
H153 C124 0.931 . S
H154 C126 0.931 . S
H155 C127 0.931 . S
H156 C133 0.931 . S
H157 C134 0.931 . S
H158 C136 0.931 . S
H159 C137 0.931 . S
C160 Eu161 2.835 . S
C160 C162 1.500 . S
C160 O180 1.257 . S
C160 O181 1.260 . S
Eu161 C160 2.835 . S
Eu161 O180 2.473 . S
Eu161 O181 2.480 . S
Eu161 O182 2.430 . S
Eu161 O183 2.670 . S
Eu161 O184 2.394 . S
Eu161 O189 2.355 . S
Eu161 O191 2.374 . S
C162 C160 1.500 . S
C162 C163 1.377 . S
C162 C167 1.377 . S
C163 C162 1.377 . S
C163 C164 1.395 . S
C163 H192 0.931 . S
C164 C163 1.395 . S
C164 C165 1.383 . S
C164 H193 0.931 . S
C165 C164 1.383 . S
C165 C166 1.394 . S
C166 C165 1.394 . S
C166 C167 1.378 . S
C166 H194 0.931 . S
C167 C162 1.377 . S
C167 C166 1.378 . S
C167 H195 0.931 . S
C168 O182 1.259 . S
C168 O183 1.270 . S
C169 O184 1.251 . S
C169 O185 1.251 . S
C170 Eu171 2.835 . S
C170 C172 1.500 . S
C170 O186 1.257 . S
C170 O187 1.260 . S
Eu171 C170 2.835 . S
Eu171 O183 2.355 . S
Eu171 O185 2.374 . S
Eu171 O186 2.473 . S
Eu171 O187 2.480 . S
Eu171 O188 2.430 . S
Eu171 O189 2.670 . S
Eu171 O190 2.394 . S
C172 C170 1.500 . S
C172 C173 1.377 . S
C172 C177 1.377 . S
C173 C172 1.377 . S
C173 C174 1.395 . S
C173 H196 0.931 . S
C174 C173 1.395 . S
C174 C175 1.383 1_455 S
C174 H197 0.931 1_455 S
C175 C174 1.383 1_655 S
C175 C176 1.394 1_655 S
C176 C175 1.394 1_455 S
C176 C177 1.378 . S
C176 H198 0.931 . S
C177 C172 1.377 . S
C177 C176 1.378 . S
C177 H199 0.931 . S
C178 O188 1.259 . S
C178 O189 1.270 . S
C179 O190 1.251 . S
C179 O191 1.251 . S
O180 C160 1.257 . S
O180 Eu161 2.473 . S
O181 C160 1.260 . S
O181 Eu161 2.480 . S
O182 Eu161 2.430 . S
O182 C168 1.259 . S
O183 Eu161 2.670 . S
O183 C168 1.270 . S
O183 Eu171 2.355 . S
O184 Eu161 2.394 . S
O184 C169 1.251 . S
O185 C169 1.251 . S
O185 Eu171 2.374 . S
O186 C170 1.257 . S
O186 Eu171 2.473 . S
O187 C170 1.260 . S
O187 Eu171 2.480 . S
O188 Eu171 2.430 . S
O188 C178 1.259 . S
O189 Eu161 2.355 . S
O189 Eu171 2.670 . S
O189 C178 1.270 . S
O190 Eu171 2.394 . S
O190 C179 1.251 . S
O191 Eu161 2.374 . S
O191 C179 1.251 . S
H192 C163 0.931 . S
H193 C164 0.931 . S
H194 C166 0.931 . S
H195 C167 0.931 . S
H196 C173 0.931 . S
H197 C174 0.931 1_655 S
H198 C176 0.931 . S
H199 C177 0.931 . S
C200 Eu201 2.835 . S
C200 C202 1.500 . S
C200 O220 1.257 . S
C200 O221 1.260 . S
Eu201 C200 2.835 . S
Eu201 O220 2.473 . S
Eu201 O221 2.480 . S
Eu201 O222 2.430 . S
Eu201 O223 2.670 . S
Eu201 O224 2.394 . S
Eu201 O229 2.355 . S
Eu201 O231 2.374 . S
C202 C200 1.500 . S
C202 C203 1.377 . S
C202 C207 1.377 . S
C203 C202 1.377 . S
C203 C204 1.395 . S
C203 H232 0.931 . S
C204 C203 1.395 . S
C204 C205 1.383 . S
C204 H233 0.931 . S
C205 C204 1.383 . S
C205 C206 1.394 . S
C206 C205 1.394 . S
C206 C207 1.378 . S
C206 H234 0.931 . S
C207 C202 1.377 . S
C207 C206 1.378 . S
C207 H235 0.931 . S
C208 O222 1.259 . S
C208 O223 1.270 . S
C209 O224 1.251 . S
C209 O225 1.251 . S
C210 Eu211 2.835 . S
C210 C212 1.500 . S
C210 O226 1.257 . S
C210 O227 1.260 . S
Eu211 C210 2.835 . S
Eu211 O223 2.355 . S
Eu211 O225 2.374 . S
Eu211 O226 2.473 . S
Eu211 O227 2.480 . S
Eu211 O228 2.430 . S
Eu211 O229 2.670 . S
Eu211 O230 2.394 . S
C212 C210 1.500 . S
C212 C213 1.377 . S
C212 C217 1.377 . S
C213 C212 1.377 . S
C213 C214 1.395 . S
C213 H236 0.931 . S
C214 C213 1.395 . S
C214 C215 1.383 . S
C214 H237 0.931 . S
C215 C214 1.383 . S
C215 C216 1.394 . S
C216 C215 1.394 . S
C216 C217 1.378 . S
C216 H238 0.931 . S
C217 C212 1.377 . S
C217 C216 1.378 . S
C217 H239 0.931 . S
C218 O228 1.259 . S
C218 O229 1.270 . S
C219 O230 1.251 . S
C219 O231 1.251 . S
O220 C200 1.257 . S
O220 Eu201 2.473 . S
O221 C200 1.260 . S
O221 Eu201 2.480 . S
O222 Eu201 2.430 . S
O222 C208 1.259 . S
O223 Eu201 2.670 . S
O223 C208 1.270 . S
O223 Eu211 2.355 . S
O224 Eu201 2.394 . S
O224 C209 1.251 . S
O225 C209 1.251 . S
O225 Eu211 2.374 . S
O226 C210 1.257 . S
O226 Eu211 2.473 . S
O227 C210 1.260 . S
O227 Eu211 2.480 . S
O228 Eu211 2.430 . S
O228 C218 1.259 . S
O229 Eu201 2.355 . S
O229 Eu211 2.670 . S
O229 C218 1.270 . S
O230 Eu211 2.394 . S
O230 C219 1.251 . S
O231 Eu201 2.374 . S
O231 C219 1.251 . S
H232 C203 0.931 . S
H233 C204 0.931 . S
H234 C206 0.931 . S
H235 C207 0.931 . S
H236 C213 0.931 . S
H237 C214 0.931 . S
H238 C216 0.931 . S
H239 C217 0.931 . S
C240 Eu241 2.835 1_565 S
C240 C242 1.500 . S
C240 O260 1.257 1_565 S
C240 O261 1.260 1_565 S
Eu241 C240 2.835 1_545 S
Eu241 O260 2.473 . S
Eu241 O261 2.480 . S
Eu241 O262 2.430 . S
Eu241 O263 2.670 . S
Eu241 O264 2.394 . S
Eu241 O269 2.355 . S
Eu241 O271 2.374 . S
C242 C240 1.500 . S
C242 C243 1.377 . S
C242 C247 1.377 . S
C243 C242 1.377 . S
C243 C244 1.395 . S
C243 H272 0.931 . S
C244 C243 1.395 . S
C244 C245 1.383 . S
C244 H273 0.931 . S
C245 C244 1.383 . S
C245 C246 1.394 . S
C246 C245 1.394 . S
C246 C247 1.378 . S
C246 H274 0.931 . S
C247 C242 1.377 . S
C247 C246 1.378 . S
C247 H275 0.931 . S
C248 O262 1.259 . S
C248 O263 1.270 . S
C249 O264 1.251 . S
C249 O265 1.251 . S
C250 Eu251 2.835 . S
C250 C252 1.500 . S
C250 O266 1.257 . S
C250 O267 1.260 . S
Eu251 C250 2.835 . S
Eu251 O263 2.355 . S
Eu251 O265 2.374 . S
Eu251 O266 2.473 . S
Eu251 O267 2.480 . S
Eu251 O268 2.430 . S
Eu251 O269 2.670 . S
Eu251 O270 2.394 . S
C252 C250 1.500 . S
C252 C253 1.377 . S
C252 C257 1.377 . S
C253 C252 1.377 . S
C253 C254 1.395 . S
C253 H276 0.931 . S
C254 C253 1.395 . S
C254 C255 1.383 . S
C254 H277 0.931 . S
C255 C254 1.383 . S
C255 C256 1.394 . S
C256 C255 1.394 . S
C256 C257 1.378 . S
C256 H278 0.931 . S
C257 C252 1.377 . S
C257 C256 1.378 . S
C257 H279 0.931 . S
C258 O268 1.259 . S
C258 O269 1.270 . S
C259 O270 1.251 . S
C259 O271 1.251 . S
O260 C240 1.257 1_545 S
O260 Eu241 2.473 . S
O261 C240 1.260 1_545 S
O261 Eu241 2.480 . S
O262 Eu241 2.430 . S
O262 C248 1.259 . S
O263 Eu241 2.670 . S
O263 C248 1.270 . S
O263 Eu251 2.355 . S
O264 Eu241 2.394 . S
O264 C249 1.251 . S
O265 C249 1.251 . S
O265 Eu251 2.374 . S
O266 C250 1.257 . S
O266 Eu251 2.473 . S
O267 C250 1.260 . S
O267 Eu251 2.480 . S
O268 Eu251 2.430 . S
O268 C258 1.259 . S
O269 Eu241 2.355 . S
O269 Eu251 2.670 . S
O269 C258 1.270 . S
O270 Eu251 2.394 . S
O270 C259 1.251 . S
O271 Eu241 2.374 . S
O271 C259 1.251 . S
H272 C243 0.931 . S
H273 C244 0.931 . S
H274 C246 0.931 . S
H275 C247 0.931 . S
H276 C253 0.931 . S
H277 C254 0.931 . S
H278 C256 0.931 . S
H279 C257 0.931 . S
C280 Eu281 2.835 1_455 S
C280 C282 1.500 . S
C280 O300 1.257 1_455 S
C280 O301 1.260 . S
Eu281 C280 2.835 1_655 S
Eu281 O300 2.473 . S
Eu281 O301 2.480 1_655 S
Eu281 O302 2.430 . S
Eu281 O303 2.670 . S
Eu281 O304 2.394 . S
Eu281 O309 2.355 . S
Eu281 O311 2.374 . S
C282 C280 1.500 . S
C282 C283 1.377 . S
C282 C287 1.377 . S
C283 C282 1.377 . S
C283 C284 1.395 . S
C283 H312 0.931 . S
C284 C283 1.395 . S
C284 C285 1.383 . S
C284 H313 0.931 . S
C285 C284 1.383 . S
C285 C286 1.394 . S
C286 C285 1.394 . S
C286 C287 1.378 . S
C286 H314 0.931 . S
C287 C282 1.377 . S
C287 C286 1.378 . S
C287 H315 0.931 . S
C288 O302 1.259 . S
C288 O303 1.270 . S
C289 O304 1.251 . S
C289 O305 1.251 . S
C290 Eu291 2.835 . S
C290 C292 1.500 . S
C290 O306 1.257 . S
C290 O307 1.260 . S
Eu291 C290 2.835 . S
Eu291 O303 2.355 . S
Eu291 O305 2.374 . S
Eu291 O306 2.473 . S
Eu291 O307 2.480 . S
Eu291 O308 2.430 . S
Eu291 O309 2.670 . S
Eu291 O310 2.394 . S
C292 C290 1.500 . S
C292 C293 1.377 . S
C292 C297 1.377 . S
C293 C292 1.377 . S
C293 C294 1.395 . S
C293 H316 0.931 . S
C294 C293 1.395 . S
C294 C295 1.383 . S
C294 H317 0.931 . S
C295 C294 1.383 . S
C295 C296 1.394 . S
C296 C295 1.394 . S
C296 C297 1.378 . S
C296 H318 0.931 . S
C297 C292 1.377 . S
C297 C296 1.378 . S
C297 H319 0.931 . S
C298 O308 1.259 . S
C298 O309 1.270 . S
C299 O310 1.251 . S
C299 O311 1.251 . S
O300 C280 1.257 1_655 S
O300 Eu281 2.473 . S
O301 C280 1.260 . S
O301 Eu281 2.480 1_455 S
O302 Eu281 2.430 . S
O302 C288 1.259 . S
O303 Eu281 2.670 . S
O303 C288 1.270 . S
O303 Eu291 2.355 . S
O304 Eu281 2.394 . S
O304 C289 1.251 . S
O305 C289 1.251 . S
O305 Eu291 2.374 . S
O306 C290 1.257 . S
O306 Eu291 2.473 . S
O307 C290 1.260 . S
O307 Eu291 2.480 . S
O308 Eu291 2.430 . S
O308 C298 1.259 . S
O309 Eu281 2.355 . S
O309 Eu291 2.670 . S
O309 C298 1.270 . S
O310 Eu291 2.394 . S
O310 C299 1.251 . S
O311 Eu281 2.374 . S
O311 C299 1.251 . S
H312 C283 0.931 . S
H313 C284 0.931 . S
H314 C286 0.931 . S
H315 C287 0.931 . S
H316 C293 0.931 . S
H317 C294 0.931 . S
H318 C296 0.931 . S
H319 C297 0.931 . S
C320 Eu321 2.835 . S
C320 C322 1.500 . S
C320 O340 1.257 . S
C320 O341 1.260 . S
Eu321 C320 2.835 . S
Eu321 O340 2.473 . S
Eu321 O341 2.480 . S
Eu321 O342 2.430 . S
Eu321 O343 2.670 . S
Eu321 O344 2.394 . S
Eu321 O349 2.355 . S
Eu321 O351 2.374 . S
C322 C320 1.500 . S
C322 C323 1.377 . S
C322 C327 1.377 . S
C323 C322 1.377 . S
C323 C324 1.395 . S
C323 H352 0.931 . S
C324 C323 1.395 . S
C324 C325 1.383 . S
C324 H353 0.931 . S
C325 C324 1.383 . S
C325 C326 1.394 . S
C326 C325 1.394 . S
C326 C327 1.378 . S
C326 H354 0.931 . S
C327 C322 1.377 . S
C327 C326 1.378 . S
C327 H355 0.931 . S
C328 O342 1.259 . S
C328 O343 1.270 . S
C329 O344 1.251 . S
C329 O345 1.251 . S
C330 Eu331 2.835 . S
C330 C332 1.500 . S
C330 O346 1.257 . S
C330 O347 1.260 . S
Eu331 C330 2.835 . S
Eu331 O343 2.355 . S
Eu331 O345 2.374 . S
Eu331 O346 2.473 . S
Eu331 O347 2.480 . S
Eu331 O348 2.430 . S
Eu331 O349 2.670 . S
Eu331 O350 2.394 . S
C332 C330 1.500 . S
C332 C333 1.377 . S
C332 C337 1.377 . S
C333 C332 1.377 . S
C333 C334 1.395 . S
C333 H356 0.931 . S
C334 C333 1.395 . S
C334 C335 1.383 . S
C334 H357 0.931 . S
C335 C334 1.383 . S
C335 C336 1.394 . S
C336 C335 1.394 . S
C336 C337 1.378 . S
C336 H358 0.931 . S
C337 C332 1.377 . S
C337 C336 1.378 . S
C337 H359 0.931 . S
C338 O348 1.259 . S
C338 O349 1.270 . S
C339 O350 1.251 . S
C339 O351 1.251 . S
O340 C320 1.257 . S
O340 Eu321 2.473 . S
O341 C320 1.260 . S
O341 Eu321 2.480 . S
O342 Eu321 2.430 . S
O342 C328 1.259 . S
O343 Eu321 2.670 . S
O343 C328 1.270 . S
O343 Eu331 2.355 . S
O344 Eu321 2.394 . S
O344 C329 1.251 . S
O345 C329 1.251 . S
O345 Eu331 2.374 . S
O346 C330 1.257 . S
O346 Eu331 2.473 . S
O347 C330 1.260 . S
O347 Eu331 2.480 . S
O348 Eu331 2.430 . S
O348 C338 1.259 . S
O349 Eu321 2.355 . S
O349 Eu331 2.670 . S
O349 C338 1.270 . S
O350 Eu331 2.394 . S
O350 C339 1.251 . S
O351 Eu321 2.374 . S
O351 C339 1.251 . S
H352 C323 0.931 . S
H353 C324 0.931 . S
H354 C326 0.931 . S
H355 C327 0.931 . S
H356 C333 0.931 . S
H357 C334 0.931 . S
H358 C336 0.931 . S
H359 C337 0.931 . S
H360 C366 0.930 . S
H361 C369 0.930 . S
H362 C370 0.930 . S
H363 C371 0.930 . S
H364 C374 0.930 . S
H365 C375 0.930 . S
C366 H360 0.930 . S
C366 C367 1.355 1_554 S
C366 C368 1.415 . S
C367 C366 1.355 1_556 S
C367 C369 1.419 . S
C368 C366 1.415 . S
C368 C373 1.425 1_554 S
C368 C375 1.409 . S
C369 H361 0.930 . S
C369 C367 1.419 . S
C369 C370 1.362 . S
C370 H362 0.930 . S
C370 C369 1.362 . S
C370 C373 1.409 . S
C371 H363 0.930 . S
C371 C372 1.355 . S
C371 C373 1.415 . S
C372 C371 1.355 . S
C372 C374 1.419 1_556 S
C373 C368 1.425 1_556 S
C373 C370 1.409 . S
C373 C371 1.415 . S
C374 H364 0.930 . S
C374 C372 1.419 1_554 S
C374 C375 1.362 . S
C375 H365 0.930 . S
C375 C368 1.409 . S
C375 C374 1.362 . S
H376 C382 0.930 . S
H377 C385 0.930 . S
H378 C386 0.930 . S
H379 C387 0.930 . S
H380 C390 0.930 . S
H381 C391 0.930 . S
C382 H376 0.930 . S
C382 C383 1.355 1_554 S
C382 C384 1.415 . S
C383 C382 1.355 1_556 S
C383 C385 1.419 . S
C384 C382 1.415 . S
C384 C389 1.425 1_554 S
C384 C391 1.409 . S
C385 H377 0.930 . S
C385 C383 1.419 . S
C385 C386 1.362 . S
C386 H378 0.930 . S
C386 C385 1.362 . S
C386 C389 1.409 . S
C387 H379 0.930 . S
C387 C388 1.355 . S
C387 C389 1.415 . S
C388 C387 1.355 . S
C388 C390 1.419 1_556 S
C389 C384 1.425 1_556 S
C389 C386 1.409 . S
C389 C387 1.415 . S
C390 H380 0.930 . S
C390 C388 1.419 1_554 S
C390 C391 1.362 . S
C391 H381 0.930 . S
C391 C384 1.409 . S
C391 C390 1.362 . S
H392 C398 0.930 . S
H393 C401 0.930 . S
H394 C402 0.930 . S
H395 C403 0.930 . S
H396 C406 0.930 . S
H397 C407 0.930 . S
C398 H392 0.930 . S
C398 C399 1.355 . S
C398 C400 1.415 . S
C399 C398 1.355 . S
C399 C401 1.419 1_556 S
C400 C398 1.415 . S
C400 C405 1.425 1_556 S
C400 C407 1.409 . S
C401 H393 0.930 . S
C401 C399 1.419 1_554 S
C401 C402 1.362 . S
C402 H394 0.930 . S
C402 C401 1.362 . S
C402 C405 1.409 . S
C403 H395 0.930 . S
C403 C404 1.355 1_554 S
C403 C405 1.415 . S
C404 C403 1.355 1_556 S
C404 C406 1.419 . S
C405 C400 1.425 1_554 S
C405 C402 1.409 . S
C405 C403 1.415 . S
C406 H396 0.930 . S
C406 C404 1.419 . S
C406 C407 1.362 . S
C407 H397 0.930 . S
C407 C400 1.409 . S
C407 C406 1.362 . S
H408 C414 0.930 . S
H409 C417 0.930 . S
H410 C418 0.930 . S
H411 C419 0.930 . S
H412 C422 0.930 . S
H413 C423 0.930 . S
C414 H408 0.930 . S
C414 C415 1.355 1_556 S
C414 C416 1.415 . S
C415 C414 1.355 1_554 S
C415 C417 1.419 . S
C416 C414 1.415 . S
C416 C421 1.425 1_556 S
C416 C423 1.409 . S
C417 H409 0.930 . S
C417 C415 1.419 . S
C417 C418 1.362 . S
C418 H410 0.930 . S
C418 C417 1.362 . S
C418 C421 1.409 . S
C419 H411 0.930 . S
C419 C420 1.355 . S
C419 C421 1.415 . S
C420 C419 1.355 . S
C420 C422 1.419 1_554 S
C421 C416 1.425 1_554 S
C421 C418 1.409 . S
C421 C419 1.415 . S
C422 H412 0.930 . S
C422 C420 1.419 1_556 S
C422 C423 1.362 . S
C423 H413 0.930 . S
C423 C416 1.409 . S
C423 C422 1.362 . S
H424 C430 0.930 . S
H425 C433 0.930 . S
H426 C434 0.930 . S
H427 C435 0.930 . S
H428 C438 0.930 . S
H429 C439 0.930 . S
C430 H424 0.930 . S
C430 C431 1.355 1_556 S
C430 C432 1.415 . S
C431 C430 1.355 1_554 S
C431 C433 1.419 . S
C432 C430 1.415 . S
C432 C437 1.425 1_556 S
C432 C439 1.409 . S
C433 H425 0.930 . S
C433 C431 1.419 . S
C433 C434 1.362 . S
C434 H426 0.930 . S
C434 C433 1.362 . S
C434 C437 1.409 . S
C435 H427 0.930 . S
C435 C436 1.355 . S
C435 C437 1.415 . S
C436 C435 1.355 . S
C436 C438 1.419 1_554 S
C437 C432 1.425 1_554 S
C437 C434 1.409 . S
C437 C435 1.415 . S
C438 H428 0.930 . S
C438 C436 1.419 1_556 S
C438 C439 1.362 . S
C439 H429 0.930 . S
C439 C432 1.409 . S
C439 C438 1.362 . S
H440 C446 0.930 . S
H441 C449 0.930 . S
H442 C450 0.930 . S
H443 C451 0.930 . S
H444 C454 0.930 . S
H445 C455 0.930 . S
C446 H440 0.930 . S
C446 C447 1.355 1_556 S
C446 C448 1.415 . S
C447 C446 1.355 1_554 S
C447 C449 1.419 . S
C448 C446 1.415 . S
C448 C453 1.425 1_556 S
C448 C455 1.409 . S
C449 H441 0.930 . S
C449 C447 1.419 . S
C449 C450 1.362 . S
C450 H442 0.930 . S
C450 C449 1.362 . S
C450 C453 1.409 . S
C451 H443 0.930 . S
C451 C452 1.355 . S
C451 C453 1.415 . S
C452 C451 1.355 . S
C452 C454 1.419 1_554 S
C453 C448 1.425 1_554 S
C453 C450 1.409 . S
C453 C451 1.415 . S
C454 H444 0.930 . S
C454 C452 1.419 1_556 S
C454 C455 1.362 . S
C455 H445 0.930 . S
C455 C448 1.409 . S
C455 C454 1.362 . S
H456 C462 0.930 . S
H457 C465 0.930 . S
H458 C466 0.930 . S
H459 C467 0.930 . S
H460 C470 0.930 . S
H461 C471 0.930 . S
C462 H456 0.930 . S
C462 C463 1.355 . S
C462 C464 1.415 . S
C463 C462 1.355 . S
C463 C465 1.419 . S
C464 C462 1.415 . S
C464 C469 1.425 . S
C464 C471 1.409 . S
C465 H457 0.930 . S
C465 C463 1.419 . S
C465 C466 1.362 . S
C466 H458 0.930 . S
C466 C465 1.362 . S
C466 C469 1.409 . S
C467 H459 0.930 . S
C467 C468 1.355 . S
C467 C469 1.415 . S
C468 C467 1.355 . S
C468 C470 1.419 . S
C469 C464 1.425 . S
C469 C466 1.409 . S
C469 C467 1.415 . S
C470 H460 0.930 . S
C470 C468 1.419 . S
C470 C471 1.362 . S
C471 H461 0.930 . S
C471 C464 1.409 . S
C471 C470 1.362 . S
H472 C478 0.930 . S
H473 C481 0.930 . S
H474 C482 0.930 . S
H475 C483 0.930 . S
H476 C486 0.930 . S
H477 C487 0.930 . S
C478 H472 0.930 . S
C478 C479 1.355 . S
C478 C480 1.415 . S
C479 C478 1.355 . S
C479 C481 1.419 . S
C480 C478 1.415 . S
C480 C485 1.425 . S
C480 C487 1.409 1_545 S
C481 H473 0.930 . S
C481 C479 1.419 . S
C481 C482 1.362 . S
C482 H474 0.930 . S
C482 C481 1.362 . S
C482 C485 1.409 . S
C483 H475 0.930 . S
C483 C484 1.355 1_545 S
C483 C485 1.415 . S
C484 C483 1.355 1_565 S
C484 C486 1.419 . S
C485 C480 1.425 . S
C485 C482 1.409 . S
C485 C483 1.415 . S
C486 H476 0.930 . S
C486 C484 1.419 . S
C486 C487 1.362 . S
C487 H477 0.930 . S
C487 C480 1.409 1_565 S
C487 C486 1.362 . S
H488 C494 0.930 . S
H489 C497 0.930 . S
H490 C498 0.930 . S
H491 C499 0.930 . S
H492 C502 0.930 . S
H493 C503 0.930 . S
C494 H488 0.930 . S
C494 C495 1.355 . S
C494 C496 1.415 1_455 S
C495 C494 1.355 . S
C495 C497 1.419 1_455 S
C496 C494 1.415 1_655 S
C496 C501 1.425 . S
C496 C503 1.409 1_655 S
C497 H489 0.930 . S
C497 C495 1.419 1_655 S
C497 C498 1.362 . S
C498 H490 0.930 . S
C498 C497 1.362 . S
C498 C501 1.409 . S
C499 H491 0.930 . S
C499 C500 1.355 . S
C499 C501 1.415 . S
C500 C499 1.355 . S
C500 C502 1.419 . S
C501 C496 1.425 . S
C501 C498 1.409 . S
C501 C499 1.415 . S
C502 H492 0.930 . S
C502 C500 1.419 . S
C502 C503 1.362 1_655 S
C503 H493 0.930 . S
C503 C496 1.409 1_455 S
C503 C502 1.362 1_455 S
H504 C510 0.930 . S
H505 C513 0.930 . S
H506 C514 0.930 . S
H507 C515 0.930 . S
H508 C518 0.930 . S
H509 C519 0.930 . S
C510 H504 0.930 . S
C510 C511 1.355 . S
C510 C512 1.415 . S
C511 C510 1.355 . S
C511 C513 1.419 . S
C512 C510 1.415 . S
C512 C517 1.425 . S
C512 C519 1.409 . S
C513 H505 0.930 . S
C513 C511 1.419 . S
C513 C514 1.362 . S
C514 H506 0.930 . S
C514 C513 1.362 . S
C514 C517 1.409 . S
C515 H507 0.930 . S
C515 C516 1.355 . S
C515 C517 1.415 . S
C516 C515 1.355 . S
C516 C518 1.419 . S
C517 C512 1.425 . S
C517 C514 1.409 . S
C517 C515 1.415 . S
C518 H508 0.930 . S
C518 C516 1.419 . S
C518 C519 1.362 . S
C519 H509 0.930 . S
C519 C512 1.409 . S
C519 C518 1.362 . S
H520 C526 0.930 . S
H521 C529 0.930 . S
H522 C530 0.930 . S
H523 C531 0.930 . S
H524 C534 0.930 . S
H525 C535 0.930 . S
C526 H520 0.930 . S
C526 C527 1.355 . S
C526 C528 1.415 . S
C527 C526 1.355 . S
C527 C529 1.419 . S
C528 C526 1.415 . S
C528 C533 1.425 . S
C528 C535 1.409 . S
C529 H521 0.930 . S
C529 C527 1.419 . S
C529 C530 1.362 . S
C530 H522 0.930 . S
C530 C529 1.362 . S
C530 C533 1.409 . S
C531 H523 0.930 . S
C531 C532 1.355 . S
C531 C533 1.415 . S
C532 C531 1.355 . S
C532 C534 1.419 . S
C533 C528 1.425 . S
C533 C530 1.409 . S
C533 C531 1.415 . S
C534 H524 0.930 . S
C534 C532 1.419 . S
C534 C535 1.362 . S
C535 H525 0.930 . S
C535 C528 1.409 . S
C535 C534 1.362 . S
H536 C542 0.930 . S
H537 C545 0.930 . S
H538 C546 0.930 . S
H539 C547 0.930 . S
H540 C550 0.930 . S
H541 C551 0.930 . S
C542 H536 0.930 . S
C542 C543 1.355 . S
C542 C544 1.415 . S
C543 C542 1.355 . S
C543 C545 1.419 . S
C544 C542 1.415 . S
C544 C549 1.425 . S
C544 C551 1.409 . S
C545 H537 0.930 . S
C545 C543 1.419 . S
C545 C546 1.362 . S
C546 H538 0.930 . S
C546 C545 1.362 . S
C546 C549 1.409 . S
C547 H539 0.930 . S
C547 C548 1.355 . S
C547 C549 1.415 . S
C548 C547 1.355 . S
C548 C550 1.419 . S
C549 C544 1.425 . S
C549 C546 1.409 . S
C549 C547 1.415 . S
C550 H540 0.930 . S
C550 C548 1.419 . S
C550 C551 1.362 . S
C551 H541 0.930 . S
C551 C544 1.409 . S
C551 C550 1.362 . S
H552 C558 0.930 . S
H553 C561 0.930 . S
H554 C562 0.930 . S
H555 C563 0.930 . S
H556 C566 0.930 . S
H557 C567 0.930 . S
C558 H552 0.930 . S
C558 C559 1.355 . S
C558 C560 1.415 . S
C559 C558 1.355 . S
C559 C561 1.419 . S
C560 C558 1.415 . S
C560 C565 1.425 . S
C560 C567 1.409 . S
C561 H553 0.930 . S
C561 C559 1.419 . S
C561 C562 1.362 . S
C562 H554 0.930 . S
C562 C561 1.362 . S
C562 C565 1.409 . S
C563 H555 0.930 . S
C563 C564 1.355 . S
C563 C565 1.415 . S
C564 C563 1.355 . S
C564 C566 1.419 . S
C565 C560 1.425 . S
C565 C562 1.409 . S
C565 C563 1.415 . S
C566 H556 0.930 . S
C566 C564 1.419 . S
C566 C567 1.362 . S
C567 H557 0.930 . S
C567 C560 1.409 . S
C567 C566 1.362 . S
H568 C574 0.930 . S
H569 C577 0.930 . S
H570 C578 0.930 . S
H571 C579 0.930 . S
H572 C582 0.930 . S
H573 C583 0.930 . S
C574 H568 0.930 . S
C574 C575 1.355 . S
C574 C576 1.415 . S
C575 C574 1.355 . S
C575 C577 1.419 . S
C576 C574 1.415 . S
C576 C581 1.425 . S
C576 C583 1.409 . S
C577 H569 0.930 . S
C577 C575 1.419 . S
C577 C578 1.362 . S
C578 H570 0.930 . S
C578 C577 1.362 . S
C578 C581 1.409 . S
C579 H571 0.930 . S
C579 C580 1.355 . S
C579 C581 1.415 . S
C580 C579 1.355 . S
C580 C582 1.419 . S
C581 C576 1.425 . S
C581 C578 1.409 . S
C581 C579 1.415 . S
C582 H572 0.930 . S
C582 C580 1.419 . S
C582 C583 1.362 . S
C583 H573 0.930 . S
C583 C576 1.409 . S
C583 C582 1.362 . S
H584 C590 0.930 . S
H585 C593 0.930 . S
H586 C594 0.930 . S
H587 C595 0.930 . S
H588 C598 0.930 . S
H589 C599 0.930 . S
C590 H584 0.930 . S
C590 C591 1.355 . S
C590 C592 1.415 . S
C591 C590 1.355 . S
C591 C593 1.419 . S
C592 C590 1.415 . S
C592 C597 1.425 . S
C592 C599 1.409 . S
C593 H585 0.930 . S
C593 C591 1.419 . S
C593 C594 1.362 . S
C594 H586 0.930 . S
C594 C593 1.362 . S
C594 C597 1.409 . S
C595 H587 0.930 . S
C595 C596 1.355 . S
C595 C597 1.415 . S
C596 C595 1.355 . S
C596 C598 1.419 . S
C597 C592 1.425 . S
C597 C594 1.409 . S
C597 C595 1.415 . S
C598 H588 0.930 . S
C598 C596 1.419 . S
C598 C599 1.362 . S
C599 H589 0.930 . S
C599 C592 1.409 . S
C599 C598 1.362 . S
H600 C606 0.930 . S
H601 C609 0.930 . S
H602 C610 0.930 . S
H603 C611 0.930 . S
H604 C614 0.930 . S
H605 C615 0.930 . S
C606 H600 0.930 . S
C606 C607 1.355 . S
C606 C608 1.415 1_565 S
C607 C606 1.355 . S
C607 C609 1.419 . S
C608 C606 1.415 1_545 S
C608 C613 1.425 . S
C608 C615 1.409 . S
C609 H601 0.930 . S
C609 C607 1.419 . S
C609 C610 1.362 1_565 S
C610 H602 0.930 . S
C610 C609 1.362 1_545 S
C610 C613 1.409 . S
C611 H603 0.930 . S
C611 C612 1.355 . S
C611 C613 1.415 . S
C612 C611 1.355 . S
C612 C614 1.419 . S
C613 C608 1.425 . S
C613 C610 1.409 . S
C613 C611 1.415 . S
C614 H604 0.930 . S
C614 C612 1.419 . S
C614 C615 1.362 . S
C615 H605 0.930 . S
C615 C608 1.409 . S
C615 C614 1.362 . S
H616 C622 0.930 . S
H617 C625 0.930 . S
H618 C626 0.930 . S
H619 C627 0.930 . S
H620 C630 0.930 . S
H621 C631 0.930 . S
C622 H616 0.930 . S
C622 C623 1.355 . S
C622 C624 1.415 . S
C623 C622 1.355 . S
C623 C625 1.419 . S
C624 C622 1.415 . S
C624 C629 1.425 . S
C624 C631 1.409 . S
C625 H617 0.930 . S
C625 C623 1.419 . S
C625 C626 1.362 . S
C626 H618 0.930 . S
C626 C625 1.362 . S
C626 C629 1.409 . S
C627 H619 0.930 . S
C627 C628 1.355 . S
C627 C629 1.415 1_455 S
C628 C627 1.355 . S
C628 C630 1.419 . S
C629 C624 1.425 . S
C629 C626 1.409 . S
C629 C627 1.415 1_655 S
C630 H620 0.930 . S
C630 C628 1.419 . S
C630 C631 1.362 1_455 S
C631 H621 0.930 . S
C631 C624 1.409 . S
C631 C630 1.362 1_655 S
H632 C638 0.930 . S
H633 C641 0.930 . S
H634 C642 0.930 . S
H635 C643 0.930 . S
H636 C646 0.930 . S
H637 C647 0.930 . S
C638 H632 0.930 . S
C638 C639 1.355 . S
C638 C640 1.415 . S
C639 C638 1.355 . S
C639 C641 1.419 . S
C640 C638 1.415 . S
C640 C645 1.425 . S
C640 C647 1.409 . S
C641 H633 0.930 . S
C641 C639 1.419 . S
C641 C642 1.362 . S
C642 H634 0.930 . S
C642 C641 1.362 . S
C642 C645 1.409 . S
C643 H635 0.930 . S
C643 C644 1.355 . S
C643 C645 1.415 . S
C644 C643 1.355 . S
C644 C646 1.419 . S
C645 C640 1.425 . S
C645 C642 1.409 . S
C645 C643 1.415 . S
C646 H636 0.930 . S
C646 C644 1.419 . S
C646 C647 1.362 . S
C647 H637 0.930 . S
C647 C640 1.409 . S
C647 C646 1.362 . S
H648 C654 0.930 . S
H649 C657 0.930 . S
H650 C658 0.930 . S
H651 C659 0.930 . S
H652 C662 0.930 . S
H653 C663 0.930 . S
C654 H648 0.930 . S
C654 C655 1.355 . S
C654 C656 1.415 . S
C655 C654 1.355 . S
C655 C657 1.419 . S
C656 C654 1.415 . S
C656 C661 1.425 . S
C656 C663 1.409 . S
C657 H649 0.930 . S
C657 C655 1.419 . S
C657 C658 1.362 . S
C658 H650 0.930 . S
C658 C657 1.362 . S
C658 C661 1.409 . S
C659 H651 0.930 . S
C659 C660 1.355 . S
C659 C661 1.415 . S
C660 C659 1.355 . S
C660 C662 1.419 . S
C661 C656 1.425 . S
C661 C658 1.409 . S
C661 C659 1.415 . S
C662 H652 0.930 . S
C662 C660 1.419 . S
C662 C663 1.362 . S
C663 H653 0.930 . S
C663 C656 1.409 . S
C663 C662 1.362 . S
H664 C670 0.930 . S
H665 C673 0.930 . S
H666 C674 0.930 . S
H667 C675 0.930 . S
H668 C678 0.930 . S
H669 C679 0.930 . S
C670 H664 0.930 . S
C670 C671 1.355 . S
C670 C672 1.415 . S
C671 C670 1.355 . S
C671 C673 1.419 . S
C672 C670 1.415 . S
C672 C677 1.425 . S
C672 C679 1.409 . S
C673 H665 0.930 . S
C673 C671 1.419 . S
C673 C674 1.362 . S
C674 H666 0.930 . S
C674 C673 1.362 . S
C674 C677 1.409 . S
C675 H667 0.930 . S
C675 C676 1.355 . S
C675 C677 1.415 . S
C676 C675 1.355 . S
C676 C678 1.419 . S
C677 C672 1.425 . S
C677 C674 1.409 . S
C677 C675 1.415 . S
C678 H668 0.930 . S
C678 C676 1.419 . S
C678 C679 1.362 . S
C679 H669 0.930 . S
C679 C672 1.409 . S
C679 C678 1.362 . S
H680 C686 0.930 . S
H681 C689 0.930 1_545 S
H682 C690 0.930 1_545 S
H683 C691 0.930 . S
H684 C694 0.930 . S
H685 C695 0.930 . S
C686 H680 0.930 . S
C686 C687 1.355 . S
C686 C688 1.415 . S
C687 C686 1.355 . S
C687 C689 1.419 . S
C688 C686 1.415 . S
C688 C693 1.425 . S
C688 C695 1.409 . S
C689 H681 0.930 1_565 S
C689 C687 1.419 . S
C689 C690 1.362 . S
C690 H682 0.930 1_565 S
C690 C689 1.362 . S
C690 C693 1.409 . S
C691 H683 0.930 . S
C691 C692 1.355 . S
C691 C693 1.415 . S
C692 C691 1.355 . S
C692 C694 1.419 . S
C693 C688 1.425 . S
C693 C690 1.409 . S
C693 C691 1.415 . S
C694 H684 0.930 . S
C694 C692 1.419 . S
C694 C695 1.362 . S
C695 H685 0.930 . S
C695 C688 1.409 . S
C695 C694 1.362 . S
H696 C702 0.930 . S
H697 C705 0.930 1_565 S
H698 C706 0.930 . S
H699 C707 0.930 . S
H700 C710 0.930 . S
H701 C711 0.930 . S
C702 H696 0.930 . S
C702 C703 1.355 . S
C702 C704 1.415 . S
C703 C702 1.355 . S
C703 C705 1.419 . S
C704 C702 1.415 . S
C704 C709 1.425 . S
C704 C711 1.409 . S
C705 H697 0.930 1_545 S
C705 C703 1.419 . S
C705 C706 1.362 . S
C706 H698 0.930 . S
C706 C705 1.362 . S
C706 C709 1.409 . S
C707 H699 0.930 . S
C707 C708 1.355 . S
C707 C709 1.415 . S
C708 C707 1.355 . S
C708 C710 1.419 . S
C709 C704 1.425 . S
C709 C706 1.409 . S
C709 C707 1.415 . S
C710 H700 0.930 . S
C710 C708 1.419 . S
C710 C711 1.362 . S
C711 H701 0.930 . S
C711 C704 1.409 . S
C711 C710 1.362 . S
H712 C718 0.930 . S
H713 C721 0.930 . S
H714 C722 0.930 . S
H715 C723 0.930 . S
H716 C726 0.930 . S
H717 C727 0.930 . S
C718 H712 0.930 . S
C718 C719 1.355 . S
C718 C720 1.415 . S
C719 C718 1.355 . S
C719 C721 1.419 . S
C720 C718 1.415 . S
C720 C725 1.425 . S
C720 C727 1.409 . S
C721 H713 0.930 . S
C721 C719 1.419 . S
C721 C722 1.362 . S
C722 H714 0.930 . S
C722 C721 1.362 . S
C722 C725 1.409 . S
C723 H715 0.930 . S
C723 C724 1.355 . S
C723 C725 1.415 . S
C724 C723 1.355 . S
C724 C726 1.419 . S
C725 C720 1.425 . S
C725 C722 1.409 . S
C725 C723 1.415 . S
C726 H716 0.930 . S
C726 C724 1.419 . S
C726 C727 1.362 . S
C727 H717 0.930 . S
C727 C720 1.409 . S
C727 C726 1.362 . S
H728 C734 0.930 . S
H729 C737 0.930 . S
H730 C738 0.930 . S
H731 C739 0.930 . S
H732 C742 0.930 . S
H733 C743 0.930 . S
C734 H728 0.930 . S
C734 C735 1.355 . S
C734 C736 1.415 . S
C735 C734 1.355 . S
C735 C737 1.419 . S
C736 C734 1.415 . S
C736 C741 1.425 . S
C736 C743 1.409 . S
C737 H729 0.930 . S
C737 C735 1.419 . S
C737 C738 1.362 . S
C738 H730 0.930 . S
C738 C737 1.362 . S
C738 C741 1.409 . S
C739 H731 0.930 . S
C739 C740 1.355 . S
C739 C741 1.415 . S
C740 C739 1.355 . S
C740 C742 1.419 . S
C741 C736 1.425 . S
C741 C738 1.409 . S
C741 C739 1.415 . S
C742 H732 0.930 . S
C742 C740 1.419 . S
C742 C743 1.362 . S
C743 H733 0.930 . S
C743 C736 1.409 . S
C743 C742 1.362 . S
H744 C750 0.930 . S
H745 C753 0.930 . S
H746 C754 0.930 . S
H747 C755 0.930 . S
H748 C758 0.930 . S
H749 C759 0.930 . S
C750 H744 0.930 . S
C750 C751 1.355 . S
C750 C752 1.415 . S
C751 C750 1.355 . S
C751 C753 1.419 . S
C752 C750 1.415 . S
C752 C757 1.425 . S
C752 C759 1.409 . S
C753 H745 0.930 . S
C753 C751 1.419 . S
C753 C754 1.362 . S
C754 H746 0.930 . S
C754 C753 1.362 . S
C754 C757 1.409 . S
C755 H747 0.930 . S
C755 C756 1.355 . S
C755 C757 1.415 . S
C756 C755 1.355 . S
C756 C758 1.419 . S
C757 C752 1.425 . S
C757 C754 1.409 . S
C757 C755 1.415 . S
C758 H748 0.930 . S
C758 C756 1.419 . S
C758 C759 1.362 . S
C759 H749 0.930 . S
C759 C752 1.409 . S
C759 C758 1.362 . S
H760 C766 0.930 . S
H761 C769 0.930 . S
H762 C770 0.930 1_545 S
H763 C771 0.930 . S
H764 C774 0.930 . S
H765 C775 0.930 . S
C766 H760 0.930 . S
C766 C767 1.355 . S
C766 C768 1.415 . S
C767 C766 1.355 . S
C767 C769 1.419 . S
C768 C766 1.415 . S
C768 C773 1.425 1_565 S
C768 C775 1.409 1_565 S
C769 H761 0.930 . S
C769 C767 1.419 . S
C769 C770 1.362 . S
C770 H762 0.930 1_565 S
C770 C769 1.362 . S
C770 C773 1.409 1_565 S
C771 H763 0.930 . S
C771 C772 1.355 . S
C771 C773 1.415 . S
C772 C771 1.355 . S
C772 C774 1.419 . S
C773 C768 1.425 1_545 S
C773 C770 1.409 1_545 S
C773 C771 1.415 . S
C774 H764 0.930 . S
C774 C772 1.419 . S
C774 C775 1.362 . S
C775 H765 0.930 . S
C775 C768 1.409 1_545 S
C775 C774 1.362 . S
H776 C782 0.930 . S
H777 C785 0.930 . S
H778 C786 0.930 . S
H779 C787 0.930 . S
H780 C790 0.930 . S
H781 C791 0.930 . S
C782 H776 0.930 . S
C782 C783 1.355 . S
C782 C784 1.415 1_655 S
C783 C782 1.355 . S
C783 C785 1.419 . S
C784 C782 1.415 1_455 S
C784 C789 1.425 . S
C784 C791 1.409 . S
C785 H777 0.930 . S
C785 C783 1.419 . S
C785 C786 1.362 . S
C786 H778 0.930 . S
C786 C785 1.362 . S
C786 C789 1.409 1_655 S
C787 H779 0.930 . S
C787 C788 1.355 . S
C787 C789 1.415 . S
C788 C787 1.355 . S
C788 C790 1.419 . S
C789 C784 1.425 . S
C789 C786 1.409 1_455 S
C789 C787 1.415 . S
C790 H780 0.930 . S
C790 C788 1.419 . S
C790 C791 1.362 . S
C791 H781 0.930 . S
C791 C784 1.409 . S
C791 C790 1.362 . S
C367 C55 1.600 . S
C372 C19 1.653 . S
C383 C95 1.586 . S
C388 C59 1.639 . S
C399 C99 1.686 . S
C404 C15 1.650 . S
C415 C85 1.444 . S
C420 C49 1.420 . S
C431 C89 1.357 . S
C436 C5 1.410 . S
C447 C9 1.405 . S
C452 C45 1.448 . S
C463 C139 1.640 . S
C468 C175 1.586 . S
C479 C215 1.585 . S
C484 C179 1.637 . S
C495 C219 1.685 . S
C500 C135 1.657 . S
C511 C169 1.438 . S
C516 C205 1.467 . S
C527 C209 1.430 . S
C532 C125 1.452 . S
C543 C165 1.467 . S
C548 C129 1.443 . S
C559 C295 1.599 . S
C564 C259 1.642 . S
C575 C299 1.689 . S
C580 C335 1.657 . S
C591 C339 1.638 . S
C596 C255 1.591 . S
C607 C325 1.417 . S
C612 C289 1.365 . S
C623 C329 1.388 . S
C628 C245 1.436 . S
C639 C249 1.360 . S
C644 C285 1.406 . S
C655 C218 2.603 . S
C660 C8 2.236 . S
C671 C138 2.601 . S
C676 C48 2.234 . S
C687 C88 2.148 1_565 S
C692 C178 2.586 . S
C703 C98 2.590 . S
C708 C248 2.196 . S
C719 C18 2.584 . S
C724 C288 2.147 . S
C735 C328 2.233 . S
C740 C58 2.601 . S
C751 C128 2.154 . S
C756 C338 2.583 . S
C767 C168 2.219 . S
C772 C258 2.596 . S
C783 C298 2.596 . S
C788 C208 2.218 . S
