# Generated by pormake.
# Topology wjh, (4)-cn, num edge types: 1
# Building blocks:
#     Node 0, Type 0, BuildingBlock: ICAMEG_clean_sbu_1, # of connection points: 4
#     Node 1, Type 0, BuildingBlock: ICAMEG_clean_sbu_1, # of connection points: 4
#     Node 2, Type 0, BuildingBlock: ICAMEG_clean_sbu_1, # of connection points: 4
#     Node 3, Type 0, BuildingBlock: ICAMEG_clean_sbu_1, # of connection points: 4
#     Node 4, Type 0, BuildingBlock: ICAMEG_clean_sbu_1, # of connection points: 4
#     Node 5, Type 0, BuildingBlock: ICAMEG_clean_sbu_1, # of connection points: 4
#     Node 6, Type 0, BuildingBlock: ICAMEG_clean_sbu_1, # of connection points: 4
#     Node 7, Type 0, BuildingBlock: ICAMEG_clean_sbu_1, # of connection points: 4
#     Node 8, Type 0, BuildingBlock: ICAMEG_clean_sbu_1, # of connection points: 4
#     Node 9, Type 0, BuildingBlock: ICAMEG_clean_sbu_1, # of connection points: 4
#     Node 10, Type 0, BuildingBlock: ICAMEG_clean_sbu_1, # of connection points: 4
#     Node 11, Type 0, BuildingBlock: ICAMEG_clean_sbu_1, # of connection points: 4
#     Edge 12, Type (0, 0), BuildingBlock: OJICUG_clean_linker_0, # of connection points: 2
#     Edge 13, Type (0, 0), BuildingBlock: OJICUG_clean_linker_0, # of connection points: 2
#     Edge 14, Type (0, 0), BuildingBlock: OJICUG_clean_linker_0, # of connection points: 2
#     Edge 15, Type (0, 0), BuildingBlock: OJICUG_clean_linker_0, # of connection points: 2
#     Edge 16, Type (0, 0), BuildingBlock: OJICUG_clean_linker_0, # of connection points: 2
#     Edge 17, Type (0, 0), BuildingBlock: OJICUG_clean_linker_0, # of connection points: 2
#     Edge 18, Type (0, 0), BuildingBlock: OJICUG_clean_linker_0, # of connection points: 2
#     Edge 19, Type (0, 0), BuildingBlock: OJICUG_clean_linker_0, # of connection points: 2
#     Edge 20, Type (0, 0), BuildingBlock: OJICUG_clean_linker_0, # of connection points: 2
#     Edge 21, Type (0, 0), BuildingBlock: OJICUG_clean_linker_0, # of connection points: 2
#     Edge 22, Type (0, 0), BuildingBlock: OJICUG_clean_linker_0, # of connection points: 2
#     Edge 23, Type (0, 0), BuildingBlock: OJICUG_clean_linker_0, # of connection points: 2
#     Edge 24, Type (0, 0), BuildingBlock: OJICUG_clean_linker_0, # of connection points: 2
#     Edge 25, Type (0, 0), BuildingBlock: OJICUG_clean_linker_0, # of connection points: 2
#     Edge 26, Type (0, 0), BuildingBlock: OJICUG_clean_linker_0, # of connection points: 2
#     Edge 27, Type (0, 0), BuildingBlock: OJICUG_clean_linker_0, # of connection points: 2
#     Edge 28, Type (0, 0), BuildingBlock: OJICUG_clean_linker_0, # of connection points: 2
#     Edge 29, Type (0, 0), BuildingBlock: OJICUG_clean_linker_0, # of connection points: 2
#     Edge 30, Type (0, 0), BuildingBlock: OJICUG_clean_linker_0, # of connection points: 2
#     Edge 31, Type (0, 0), BuildingBlock: OJICUG_clean_linker_0, # of connection points: 2
#     Edge 32, Type (0, 0), BuildingBlock: OJICUG_clean_linker_0, # of connection points: 2
#     Edge 33, Type (0, 0), BuildingBlock: OJICUG_clean_linker_0, # of connection points: 2
#     Edge 34, Type (0, 0), BuildingBlock: OJICUG_clean_linker_0, # of connection points: 2
#     Edge 35, Type (0, 0), BuildingBlock: OJICUG_clean_linker_0, # of connection points: 2
# Relax obj value: 0.057
# Max RMSD: 0.096
# Mean RMSD: 0.096
data_MOF--net-wjh--node1-ICAMEG_clean_sbu_1--edge1-OJICUG_clean_linker_0
_symmetry_space_group_name_H-M    P1
_symmetry_Int_Tables_number       1
_symmetry_cell_setting            triclinic
loop_
_symmetry_equiv_pos_as_xyz
'x, y, z'
_cell_length_a     46.864367
_cell_length_b     46.850715
_cell_length_c     22.542101
_cell_angle_alpha  89.991932
_cell_angle_beta   89.987249
_cell_angle_gamma 120.01269
loop_
_atom_site_label
_atom_site_type_symbol
_atom_site_fract_x
_atom_site_fract_y
_atom_site_fract_z
_atom_type_partial_charge
Co0 Co 0.51262 0.14201 0.07399 0.0
Co1 Co 0.5848 0.14419 0.03144 0.0
O2 O 0.55269 0.15928 0.02595 0.0
C3 C 0.54787 0.2144 0.0987 0.0
O4 O 0.57528 0.21338 0.10305 0.0
C5 C 0.56354 0.13272 0.90667 0.0
O6 O 0.53336 0.12166 0.9259 0.0
O7 O 0.54933 0.09696 0.03024 0.0
O8 O 0.50306 0.09554 0.0614 0.0
H9 H 0.63144 0.07616 0.11254 0.0
H10 H 0.52319 0.18699 0.97345 0.0
O11 O 0.52081 0.18813 0.08723 0.0
H12 H 0.41977 0.08462 0.92751 0.0
H13 H 0.40825 0.13693 0.14488 0.0
H14 H 0.48191 0.09073 0.16695 0.0
H15 H 0.44986 0.08971 0.02026 0.0
H16 H 0.45839 0.15767 0.08363 0.0
O17 O 0.58744 0.14337 0.94305 0.0
H18 H 0.59125 0.09541 0.10551 0.0
H19 H 0.64698 0.16141 0.96704 0.0
H20 H 0.43188 0.06905 0.22879 0.0
H21 H 0.49373 0.18312 0.88043 0.0
H22 H 0.39466 0.09221 0.21793 0.0
H23 H 0.4417 0.13158 0.85685 0.0
O24 O 0.53756 0.14553 0.14805 0.0
H25 H 0.64298 0.2615 0.95995 0.0
H26 H 0.64388 0.18416 0.10736 0.0
H27 H 0.68716 0.24274 0.11073 0.0
H28 H 0.68691 0.28184 0.03658 0.0
H29 H 0.60001 0.20275 0.95852 0.0
H30 H 0.68763 0.14267 0.97221 0.0
H31 H 0.68004 0.09984 0.04554 0.0
O32 O 0.58293 0.14444 0.11941 0.0
C33 C 0.51881 0.08133 0.04389 0.0
C34 C 0.63507 0.09491 0.08053 0.0
C35 C 0.66658 0.13221 0.00172 0.0
N36 N 0.6169 0.12967 0.03623 0.0
C37 C 0.61245 0.10597 0.07646 0.0
C38 C 0.64345 0.14267 -0.00109 0.0
C39 C 0.66232 0.10818 0.04288 0.0
C40 C 0.50041 0.1646 0.96373 0.0
N41 N 0.48825 0.1386 0.00223 0.0
C42 C 0.4839 0.1625 0.91089 0.0
C43 C 0.45473 0.13356 0.89766 0.0
C44 C 0.44244 0.10719 0.93725 0.0
C45 C 0.45964 0.11016 -0.0104 0.0
C46 C 0.42424 0.1266 0.14994 0.0
C47 C 0.46571 0.10076 0.16173 0.0
C48 C 0.4527 0.1383 0.11549 0.0
N49 N 0.47291 0.12525 0.12145 0.0
C50 C 0.43747 0.08847 0.19698 0.0
C51 C 0.41662 0.1015 0.19091 0.0
C52 C 0.56419 0.14536 0.15932 0.0
C53 C 0.6434 0.24468 -0.0076 0.0
C54 C 0.64354 0.20103 0.07505 0.0
C55 C 0.66816 0.23416 0.0771 0.0
C56 C 0.66802 0.25609 0.03546 0.0
N57 N 0.61951 0.19003 0.03262 0.0
C58 C 0.61921 0.21137 -0.00834 0.0
Co59 Co 0.37982 0.50618 0.24126 0.0
Co60 Co 0.44966 0.57854 0.19859 0.0
O61 O 0.40248 0.54629 0.19324 0.0
C62 C 0.34255 0.54123 0.26648 0.0
O63 O 0.37096 0.5687 0.27074 0.0
C64 C 0.43985 0.55728 0.0738 0.0
O65 O 0.42078 0.52709 0.09303 0.0
O66 O 0.46156 0.54317 0.19721 0.0
O67 O 0.41679 0.49678 0.22829 0.0
H68 H 0.56444 0.62554 0.27929 0.0
H69 H 0.34521 0.51667 0.14103 0.0
O70 O 0.34182 0.51421 0.25485 0.0
H71 H 0.3443 0.41336 0.09463 0.0
H72 H 0.28081 0.4016 0.31245 0.0
H73 H 0.40067 0.47556 0.33387 0.0
H74 H 0.3694 0.44347 0.18733 0.0
H75 H 0.30999 0.45178 0.25121 0.0
O76 O 0.45306 0.5812 0.11019 0.0
H77 H 0.50503 0.58517 0.2724 0.0
H78 H 0.49444 0.6408 0.13417 0.0
H79 H 0.37251 0.42549 0.39569 0.0
H80 H 0.31951 0.48719 0.04807 0.0
H81 H 0.31215 0.38812 0.38516 0.0
H82 H 0.31908 0.43521 0.02427 0.0
O83 O 0.4013 0.53113 0.31528 0.0
H84 H 0.39017 0.63637 0.12757 0.0
H85 H 0.46867 0.63758 0.27458 0.0
H86 H 0.45319 0.68071 0.27817 0.0
H87 H 0.41369 0.6803 0.20423 0.0
H88 H 0.40613 0.59355 0.12591 0.0
H89 H 0.55379 0.68163 0.1392 0.0
H90 H 0.58919 0.67418 0.21234 0.0
O91 O 0.44763 0.57666 0.28656 0.0
C92 C 0.44673 0.51262 0.21071 0.0
C93 C 0.54926 0.62911 0.24736 0.0
C94 C 0.54329 0.66057 0.16868 0.0
N95 N 0.49626 0.61076 0.20325 0.0
C96 C 0.51559 0.60639 0.24337 0.0
C97 C 0.50972 0.63733 0.16595 0.0
C98 C 0.56313 0.65638 0.20974 0.0
C99 C 0.34486 0.49392 0.1312 0.0
N100 N 0.35879 0.4818 0.16955 0.0
C101 C 0.33038 0.4774 0.07841 0.0
C102 C 0.33019 0.44826 0.06504 0.0
C103 C 0.34436 0.43601 0.10447 0.0
C104 C 0.35866 0.45322 0.15679 0.0
C105 C 0.30713 0.41766 0.31737 0.0
C106 C 0.37443 0.4593 0.32879 0.0
C107 C 0.32377 0.44614 0.28292 0.0
N108 N 0.35703 0.46644 0.2887 0.0
C109 C 0.35861 0.43104 0.36403 0.0
C110 C 0.32473 0.4101 0.35815 0.0
C111 C 0.42805 0.55784 0.3265 0.0
C112 C 0.40747 0.63687 0.15993 0.0
C113 C 0.4514 0.63718 0.24236 0.0
C114 C 0.44279 0.66171 0.24453 0.0
C115 C 0.42064 0.66148 0.203 0.0
N116 N 0.43841 0.61315 0.19992 0.0
C117 C 0.41669 0.61276 0.15906 0.0
Co118 Co 0.88231 0.37322 0.40785 0.0
Co119 Co 0.88027 0.44333 0.36533 0.0
O120 O 0.8651 0.39609 0.35985 0.0
C121 C 0.80992 0.33609 0.43262 0.0
O122 O 0.81095 0.36454 0.43702 0.0
C123 C 0.89165 0.4335 0.2405 0.0
O124 O 0.90268 0.41436 0.25968 0.0
O125 O 0.92747 0.45501 0.36398 0.0
O126 O 0.92879 0.41011 0.39525 0.0
H127 H 0.94851 0.55802 0.44632 0.0
H128 H 0.83735 0.33888 0.30731 0.0
O129 O 0.83618 0.3353 0.42109 0.0
H130 H 0.93962 0.33769 0.26129 0.0
H131 H 0.88724 0.27382 0.47865 0.0
H132 H 0.93354 0.39373 0.5008 0.0
H133 H 0.93455 0.36269 0.35407 0.0
H134 H 0.86657 0.30328 0.41743 0.0
O135 O 0.88106 0.44679 0.27694 0.0
H136 H 0.92916 0.49854 0.43929 0.0
H137 H 0.86315 0.48839 0.30104 0.0
H138 H 0.95514 0.3653 0.56261 0.0
H139 H 0.8412 0.3133 0.21425 0.0
H140 H 0.93193 0.30491 0.55172 0.0
H141 H 0.89268 0.31272 0.19064 0.0
O142 O 0.8788 0.39465 0.48193 0.0
H143 H 0.76297 0.38437 0.29418 0.0
H144 H 0.84045 0.46256 0.4414 0.0
H145 H 0.78193 0.44737 0.44496 0.0
H146 H 0.74275 0.40804 0.37091 0.0
H147 H 0.82166 0.40003 0.29256 0.0
H148 H 0.88199 0.54782 0.30622 0.0
H149 H 0.92488 0.58302 0.37944 0.0
O150 O 0.88007 0.44121 0.45329 0.0
C151 C 0.94305 0.44007 0.37767 0.0
C152 C 0.92974 0.54292 0.41436 0.0
C153 C 0.89243 0.5372 0.33567 0.0
N154 N 0.89489 0.48998 0.37012 0.0
C155 C 0.91862 0.50921 0.41029 0.0
C156 C 0.88192 0.50358 0.33286 0.0
C157 C 0.91649 0.55694 0.37678 0.0
C158 C 0.85972 0.33846 0.29757 0.0
N159 N 0.8857 0.35227 0.33607 0.0
C160 C 0.8618 0.32405 0.24472 0.0
C161 C 0.89071 0.32378 0.23145 0.0
C162 C 0.91707 0.33781 0.27104 0.0
C163 C 0.91411 0.35205 0.32341 0.0
C164 C 0.89759 0.30015 0.48373 0.0
C165 C 0.92348 0.36748 0.49556 0.0
C166 C 0.88594 0.31695 0.44929 0.0
N167 N 0.89901 0.35023 0.45528 0.0
C168 C 0.93573 0.3515 0.53079 0.0
C169 C 0.92268 0.31761 0.5247 0.0
C170 C 0.87907 0.4215 0.49319 0.0
C171 C 0.77982 0.4016 0.32659 0.0
C172 C 0.82354 0.44536 0.40914 0.0
C173 C 0.79045 0.43691 0.41128 0.0
C174 C 0.76848 0.41486 0.3697 0.0
N175 N 0.83448 0.43229 0.36666 0.0
C176 C 0.8131 0.41066 0.32574 0.0
Co177 Co 0.51798 0.87598 0.57511 0.0
Co178 Co 0.4457 0.87359 0.53259 0.0
O179 O 0.47787 0.85858 0.52717 0.0
C180 C 0.48286 0.80362 0.60022 0.0
O181 O 0.45542 0.80458 0.60458 0.0
C182 C 0.4669 0.88496 0.40776 0.0
O183 O 0.49709 0.89608 0.42694 0.0
O184 O 0.48111 0.92085 0.53111 0.0
O185 O 0.52744 0.9224 0.56222 0.0
H186 H 0.39893 0.94158 0.61336 0.0
H187 H 0.50742 0.83089 0.47482 0.0
O188 O 0.50989 0.82991 0.58861 0.0
H189 H 0.61077 0.93326 0.42836 0.0
H190 H 0.62247 0.88138 0.64605 0.0
H191 H 0.54865 0.92742 0.66776 0.0
H192 H 0.58069 0.92826 0.52112 0.0
H193 H 0.5723 0.86046 0.58489 0.0
O194 O 0.44301 0.8743 0.4442 0.0
H195 H 0.4392 0.92243 0.6064 0.0
H196 H 0.38345 0.85618 0.46833 0.0
H197 H 0.59871 0.94927 0.7295 0.0
H198 H 0.53687 0.83467 0.38179 0.0
H199 H 0.63601 0.92619 0.71883 0.0
H200 H 0.58886 0.8862 0.35796 0.0
O201 O 0.49305 0.87251 0.64919 0.0
H202 H 0.38767 0.75619 0.46179 0.0
H203 H 0.38669 0.83365 0.60874 0.0
H204 H 0.3435 0.77505 0.61248 0.0
H205 H 0.3438 0.73588 0.53856 0.0
H206 H 0.43056 0.81497 0.45999 0.0
H207 H 0.34272 0.87481 0.47345 0.0
H208 H 0.35027 0.91772 0.54654 0.0
O209 O 0.44761 0.87347 0.62055 0.0
C210 C 0.51165 0.93654 0.54461 0.0
C211 C 0.39531 0.9228 0.58146 0.0
C212 C 0.36379 0.88535 0.50287 0.0
N213 N 0.41355 0.88805 0.53732 0.0
C214 C 0.41798 0.91179 0.57742 0.0
C215 C 0.38697 0.87495 0.5001 0.0
C216 C 0.36803 0.90942 0.54391 0.0
C217 C 0.53018 0.85328 0.46498 0.0
N218 N 0.54233 0.87933 0.50334 0.0
C219 C 0.54668 0.85533 0.41214 0.0
C220 C 0.57583 0.88427 0.39876 0.0
C221 C 0.58811 0.91069 0.43821 0.0
C222 C 0.57092 0.90777 0.49057 0.0
C223 C 0.60644 0.89167 0.65103 0.0
C224 C 0.56488 0.91741 0.66262 0.0
C225 C 0.57796 0.87988 0.61662 0.0
N226 N 0.55771 0.89288 0.62249 0.0
C227 C 0.59314 0.92981 0.69781 0.0
C228 C 0.61403 0.91683 0.69184 0.0
C229 C 0.4664 0.87263 0.66046 0.0
C230 C 0.38723 0.77303 0.49413 0.0
C231 C 0.38704 0.81675 0.57654 0.0
C232 C 0.36248 0.78361 0.57878 0.0
C233 C 0.36265 0.76165 0.53728 0.0
N234 N 0.41105 0.82774 0.53403 0.0
C235 C 0.41137 0.80636 0.49319 0.0
Co236 Co 0.65147 0.51192 0.74 0.0
Co237 Co 0.58157 0.43963 0.69742 0.0
O238 O 0.62876 0.47182 0.69201 0.0
C239 C 0.68863 0.47676 0.76517 0.0
O240 O 0.66019 0.44933 0.76948 0.0
C241 C 0.59142 0.46089 0.5726 0.0
O242 O 0.61052 0.49108 0.59177 0.0
O243 O 0.56973 0.47504 0.69609 0.0
O244 O 0.61454 0.52139 0.72714 0.0
H245 H 0.4668 0.39275 0.77823 0.0
H246 H 0.68605 0.5014 0.63972 0.0
O247 O 0.68942 0.50381 0.75351 0.0
H248 H 0.68704 0.60475 0.59327 0.0
H249 H 0.7506 0.61643 0.81095 0.0
H250 H 0.63073 0.5426 0.83267 0.0
H251 H 0.66193 0.57464 0.68602 0.0
H252 H 0.72133 0.56625 0.74979 0.0
O253 O 0.57817 0.43699 0.60903 0.0
H254 H 0.52623 0.43305 0.77131 0.0
H255 H 0.53673 0.3774 0.63304 0.0
H256 H 0.65896 0.59268 0.89441 0.0
H257 H 0.71175 0.53087 0.54671 0.0
H258 H 0.71934 0.62998 0.88373 0.0
H259 H 0.71222 0.58287 0.52289 0.0
O260 O 0.62997 0.48698 0.81405 0.0
H261 H 0.64092 0.38167 0.62629 0.0
H262 H 0.56249 0.38056 0.77343 0.0
H263 H 0.57789 0.33737 0.77698 0.0
H264 H 0.61735 0.33773 0.70297 0.0
H265 H 0.62505 0.42455 0.62468 0.0
H266 H 0.47736 0.33664 0.63812 0.0
H267 H 0.442 0.34413 0.71129 0.0
O268 O 0.5836 0.4415 0.78538 0.0
C269 C 0.58459 0.50559 0.70963 0.0
C270 C 0.48197 0.38916 0.74629 0.0
C271 C 0.48789 0.35769 0.6676 0.0
N272 N 0.53496 0.40745 0.70213 0.0
C273 C 0.51565 0.41185 0.74228 0.0
C274 C 0.52147 0.38089 0.66484 0.0
C275 C 0.46806 0.3619 0.70867 0.0
C276 C 0.68642 0.52416 0.62988 0.0
N277 N 0.6725 0.53629 0.66824 0.0
C278 C 0.7009 0.54068 0.57706 0.0
C279 C 0.70111 0.56982 0.56368 0.0
C280 C 0.68696 0.58209 0.60312 0.0
C281 C 0.67266 0.56488 0.65547 0.0
C282 C 0.72428 0.6004 0.81594 0.0
C283 C 0.65697 0.55884 0.82753 0.0
C284 C 0.70759 0.57191 0.78153 0.0
N285 N 0.67432 0.55166 0.7874 0.0
C286 C 0.67284 0.5871 0.86272 0.0
C287 C 0.70672 0.60799 0.85675 0.0
C288 C 0.6032 0.4603 0.8253 0.0
C289 C 0.62364 0.3812 0.65868 0.0
C290 C 0.57974 0.38094 0.74118 0.0
C291 C 0.58831 0.35637 0.74333 0.0
C292 C 0.61044 0.35658 0.70177 0.0
N293 N 0.59276 0.40498 0.69872 0.0
C294 C 0.61446 0.40534 0.65783 0.0
Co295 Co 0.14841 0.64431 0.90866 0.0
Co296 Co 0.15065 0.57431 0.86613 0.0
O297 O 0.16575 0.62154 0.8607 0.0
C298 C 0.22076 0.68152 0.93371 0.0
O299 O 0.21979 0.6531 0.93806 0.0
C300 C 0.13935 0.58418 0.74129 0.0
O301 O 0.12828 0.6033 0.76045 0.0
O302 O 0.10343 0.56255 0.86466 0.0
O303 O 0.10199 0.60739 0.89585 0.0
H304 H 0.08248 0.45954 0.94695 0.0
H305 H 0.1935 0.67879 0.80829 0.0
O306 O 0.19449 0.68226 0.92209 0.0
H307 H 0.09124 0.67991 0.76196 0.0
H308 H 0.14318 0.74352 0.97956 0.0
H309 H 0.09703 0.62362 0.0014 0.0
H310 H 0.09621 0.65483 0.85474 0.0
H311 H 0.16402 0.7142 0.91837 0.0
O312 O 0.14996 0.57091 0.77774 0.0
H313 H 0.10174 0.51901 0.93996 0.0
H314 H 0.16795 0.52937 0.80187 0.0
H315 H 0.07526 0.6519 0.06317 0.0
H316 H 0.18975 0.70446 0.71525 0.0
H317 H 0.09838 0.71229 0.05243 0.0
H318 H 0.13827 0.705 0.69148 0.0
O319 O 0.15186 0.62283 0.98273 0.0
H320 H 0.26803 0.63351 0.79527 0.0
H321 H 0.19047 0.55512 0.94227 0.0
H322 H 0.24902 0.57042 0.94598 0.0
H323 H 0.28824 0.60985 0.87204 0.0
H324 H 0.20931 0.61773 0.7935 0.0
H325 H 0.14921 0.46997 0.80701 0.0
H326 H 0.10627 0.43466 0.88013 0.0
O327 O 0.15076 0.57636 0.95409 0.0
C328 C 0.08779 0.57745 0.87823 0.0
C329 C 0.10128 0.47469 0.91503 0.0
C330 C 0.1387 0.48053 0.83644 0.0
N331 N 0.13611 0.52767 0.87087 0.0
C332 C 0.11234 0.50839 0.91099 0.0
C333 C 0.14916 0.51414 0.83365 0.0
C334 C 0.11461 0.46074 0.87749 0.0
C335 C 0.17113 0.67919 0.79848 0.0
N336 N 0.14509 0.66532 0.83689 0.0
C337 C 0.16911 0.69365 0.74564 0.0
C338 C 0.1402 0.6939 0.73229 0.0
C339 C 0.11379 0.6798 0.77178 0.0
C340 C 0.11668 0.66552 0.82415 0.0
C341 C 0.13286 0.71719 0.98457 0.0
C342 C 0.10705 0.64987 -0.00377 0.0
C343 C 0.14461 0.70047 0.95015 0.0
N344 N 0.13158 0.6672 0.95605 0.0
C345 C 0.0947 0.66576 0.03144 0.0
C346 C 0.10772 0.69965 0.02544 0.0
C347 C 0.15167 0.59601 -0.006 0.0
C348 C 0.25117 0.61623 0.82763 0.0
C349 C 0.20739 0.57236 0.91006 0.0
C350 C 0.24051 0.58088 0.91229 0.0
C351 C 0.2625 0.60299 0.87077 0.0
N352 N 0.19646 0.58543 0.86756 0.0
C353 C 0.21787 0.60711 0.8267 0.0
Co354 Co 0.88417 0.51174 0.82314 0.0
Co355 Co 0.88226 0.43966 0.86563 0.0
O356 O 0.867 0.47165 0.87121 0.0
C357 C 0.81177 0.47661 0.79878 0.0
O358 O 0.81274 0.44918 0.79411 0.0
C359 C 0.89314 0.46049 -0.00931 0.0
O360 O 0.90432 0.49076 0.97182 0.0
O361 O 0.92941 0.47527 0.86741 0.0
O362 O 0.93066 0.52129 0.83523 0.0
H363 H 0.951 0.39377 0.78483 0.0
H364 H 0.83956 0.50126 0.92423 0.0
O365 O 0.83806 0.50362 0.81042 0.0
H366 H 0.9421 0.60471 0.96928 0.0
H367 H 0.88926 0.6162 0.75261 0.0
H368 H 0.93511 0.54229 0.72963 0.0
H369 H 0.93665 0.57457 0.87642 0.0
H370 H 0.86862 0.56608 0.81392 0.0
O371 O 0.88277 0.43675 0.95399 0.0
H372 H 0.93142 0.4337 0.79188 0.0
H373 H 0.86513 0.37734 0.92955 0.0
H374 H 0.95668 0.5923 0.66772 0.0
H375 H 0.84379 0.53076 0.0174 0.0
H376 H 0.9337 0.62964 0.67903 0.0
H377 H 0.89541 0.58281 0.04052 0.0
O378 O 0.88031 0.48669 0.74907 0.0
H379 H 0.76475 0.38085 0.93586 0.0
H380 H 0.84276 0.38068 0.7892 0.0
H381 H 0.78429 0.33719 0.78519 0.0
H382 H 0.74485 0.33708 0.85897 0.0
H383 H 0.8234 0.42405 0.93793 0.0
H384 H 0.88419 0.33694 0.92434 0.0
H385 H 0.92734 0.34497 0.8514 0.0
O386 O 0.88221 0.44172 0.77766 0.0
C387 C 0.94496 0.50573 0.85328 0.0
C388 C 0.93211 0.38994 0.81666 0.0
C389 C 0.89465 0.35807 0.89502 0.0
N390 N 0.89699 0.40772 0.86076 0.0
C391 C 0.92086 0.41241 0.82074 0.0
C392 C 0.884 0.38106 0.89785 0.0
C393 C 0.91885 0.36259 0.85407 0.0
C394 C 0.86199 0.52405 0.93377 0.0
N395 N 0.88784 0.53618 0.89495 0.0
C396 C 0.86429 0.54058 0.98668 0.0
C397 C 0.89328 0.56975 -0.00033 0.0
C398 C 0.91949 0.58204 0.95975 0.0
C399 C 0.91632 0.5648 0.90733 0.0
C400 C 0.89951 0.60015 0.74734 0.0
C401 C 0.92515 0.55854 0.73505 0.0
C402 C 0.88787 0.5717 0.78184 0.0
N403 N 0.90083 0.55142 0.77562 0.0
C404 C 0.93739 0.58676 0.69976 0.0
C405 C 0.92445 0.60768 0.70609 0.0
C406 C 0.88077 0.4602 0.73778 0.0
C407 C 0.78172 0.38059 0.90357 0.0
C408 C 0.82574 0.38086 0.82134 0.0
C409 C 0.79267 0.35612 0.81894 0.0
C410 C 0.77056 0.35606 0.86036 0.0
N411 N 0.8365 0.40481 0.86391 0.0
C412 C 0.81497 0.40491 0.90467 0.0
Co413 Co 0.38113 0.87738 -0.00948 0.0
Co414 Co 0.45147 0.87584 0.03289 0.0
O415 O 0.40419 0.8604 0.03858 0.0
C416 C 0.34398 0.8049 0.96656 0.0
O417 O 0.37242 0.80596 0.96179 0.0
C418 C 0.44151 0.88667 0.15798 0.0
O419 O 0.42237 0.89778 0.13917 0.0
O420 O 0.46285 0.92294 0.03462 0.0
O421 O 0.418 0.92396 0.0023 0.0
H422 H 0.56602 0.94496 0.95185 0.0
H423 H 0.34719 0.83287 0.09186 0.0
O424 O 0.3432 0.83118 0.97809 0.0
H425 H 0.34606 0.93533 0.13656 0.0
H426 H 0.28148 0.88195 0.92027 0.0
H427 H 0.40127 0.92816 0.89674 0.0
H428 H 0.37069 0.92983 0.04365 0.0
H429 H 0.31117 0.86157 0.98158 0.0
O430 O 0.45494 0.87639 0.12124 0.0
H431 H 0.50646 0.92512 0.95901 0.0
H432 H 0.49686 0.85899 0.09672 0.0
H433 H 0.37262 0.94946 0.83482 0.0
H434 H 0.32198 0.83715 0.18507 0.0
H435 H 0.31229 0.92631 0.84641 0.0
H436 H 0.32145 0.88873 0.20802 0.0
O437 O 0.40229 0.8735 0.91641 0.0
H438 H 0.39318 0.75833 0.10329 0.0
H439 H 0.47111 0.83648 0.95643 0.0
H440 H 0.45636 0.77807 0.95248 0.0
H441 H 0.41716 0.73856 0.02636 0.0
H442 H 0.40841 0.81692 0.1053 0.0
H443 H 0.55637 0.87831 0.09141 0.0
H444 H 0.59135 0.92151 0.0184 0.0
O445 O 0.44931 0.87575 0.94492 0.0
C446 C 0.44786 0.93838 0.02034 0.0
C447 C 0.55102 0.92605 0.98372 0.0
C448 C 0.54561 0.88867 0.0621 0.0
N449 N 0.49818 0.89076 0.02792 0.0
C450 C 0.51727 0.91465 0.98786 0.0
C451 C 0.51195 0.87788 0.06499 0.0
C452 C 0.56522 0.9129 0.02111 0.0
C453 C 0.34679 0.85528 0.10132 0.0
N454 N 0.36041 0.88109 0.06238 0.0
C455 C 0.33259 0.85761 0.15425 0.0
C456 C 0.33234 0.88658 0.16714 0.0
C457 C 0.34618 0.91274 0.1271 0.0
C458 C 0.36021 0.90955 0.07466 0.0
C459 C 0.30779 0.89228 0.91488 0.0
C460 C 0.37505 0.91812 0.90227 0.0
C461 C 0.32471 0.88079 0.94937 0.0
N462 N 0.35795 0.89384 0.943 0.0
C463 C 0.35894 0.93021 0.86699 0.0
C464 C 0.32509 0.91718 0.87347 0.0
C465 C 0.42931 0.87413 0.90508 0.0
C466 C 0.41036 0.77533 0.07096 0.0
C467 C 0.45396 0.81943 -0.01139 0.0
C468 C 0.44576 0.78639 0.98624 0.0
C469 C 0.42378 0.76424 0.02772 0.0
N470 N 0.44073 0.83012 0.03121 0.0
C471 C 0.41917 0.80855 0.07202 0.0
Co472 Co 0.51297 0.37512 0.15537 0.0
Co473 Co 0.58494 0.44544 0.19769 0.0
O474 O 0.55305 0.39814 0.20335 0.0
C475 C 0.54814 0.33785 0.13119 0.0
O476 O 0.57556 0.36626 0.12637 0.0
C477 C 0.56425 0.43545 0.32284 0.0
O478 O 0.53398 0.41633 0.30409 0.0
O479 O 0.54925 0.45685 0.19971 0.0
O480 O 0.50335 0.41204 0.16732 0.0
H481 H 0.63043 0.56007 0.11688 0.0
H482 H 0.52353 0.34115 0.2566 0.0
O483 O 0.52113 0.33714 0.14281 0.0
H484 H 0.42001 0.34006 0.3016 0.0
H485 H 0.40861 0.27557 0.08515 0.0
H486 H 0.48238 0.39538 0.06176 0.0
H487 H 0.45011 0.3647 0.20865 0.0
H488 H 0.4587 0.30517 0.14639 0.0
O489 O 0.58794 0.44887 0.28604 0.0
H490 H 0.59064 0.5005 0.12404 0.0
H491 H 0.64727 0.49078 0.26134 0.0
H492 H 0.43239 0.36681 -9e-05 0.0
H493 H 0.49407 0.31592 0.34984 0.0
H494 H 0.39512 0.30647 0.01143 0.0
H495 H 0.44199 0.31541 0.37295 0.0
O496 O 0.538 0.39629 0.08123 0.0
H497 H 0.64408 0.38701 0.26741 0.0
H498 H 0.64385 0.46509 0.12097 0.0
H499 H 0.68743 0.45028 0.11665 0.0
H500 H 0.68775 0.411 0.19031 0.0
H501 H 0.60079 0.4023 0.26979 0.0
H502 H 0.68753 0.5503 0.25602 0.0
H503 H 0.67929 0.58534 0.18321 0.0
O504 O 0.58279 0.44333 0.10973 0.0
C505 C 0.51881 0.44188 0.18549 0.0
C506 C 0.63435 0.54504 0.14866 0.0
C507 C 0.66637 0.53957 0.2268 0.0
N508 N 0.61677 0.49216 0.19274 0.0
C509 C 0.61196 0.51129 0.1528 0.0
C510 C 0.64346 0.5059 0.2297 0.0
C511 C 0.66174 0.55921 0.18593 0.0
C512 C 0.50073 0.34075 0.26612 0.0
N513 N 0.48856 0.3544 0.22725 0.0
C514 C 0.48422 0.32654 0.31908 0.0
C515 C 0.45503 0.32631 0.33205 0.0
C516 C 0.4427 0.34017 0.29207 0.0
C517 C 0.45992 0.3542 0.23961 0.0
C518 C 0.42462 0.30188 0.07979 0.0
C519 C 0.46615 0.36915 0.06726 0.0
C520 C 0.45306 0.31876 0.11424 0.0
N521 N 0.4733 0.35201 0.10791 0.0
C522 C 0.43794 0.3531 0.03202 0.0
C523 C 0.41706 0.31923 0.03846 0.0
C524 C 0.56439 0.42332 0.06989 0.0
C525 C 0.64426 0.40421 0.23517 0.0
C526 C 0.64376 0.44791 0.15306 0.0
C527 C 0.66855 0.43967 0.15048 0.0
C528 C 0.66873 0.41765 0.19184 0.0
N529 N 0.61987 0.43466 0.19574 0.0
C530 C 0.61988 0.41306 0.23644 0.0
Co531 Co 0.14682 0.50588 0.32399 0.0
Co532 Co 0.14859 0.57789 0.36642 0.0
O533 O 0.1639 0.54594 0.37205 0.0
C534 C 0.21925 0.5411 0.2998 0.0
O535 O 0.21822 0.56851 0.29506 0.0
C536 C 0.13771 0.55707 0.49152 0.0
O537 O 0.12655 0.5268 0.4727 0.0
O538 O 0.10146 0.54224 0.36819 0.0
O539 O 0.1003 0.49628 0.33592 0.0
H540 H 0.07976 0.62366 0.28554 0.0
H541 H 0.19133 0.51635 0.42519 0.0
O542 O 0.19297 0.51406 0.31141 0.0
H543 H 0.08878 0.41285 0.47009 0.0
H544 H 0.14194 0.40151 0.25361 0.0
H545 H 0.09599 0.47532 0.23035 0.0
H546 H 0.09431 0.44302 0.3772 0.0
H547 H 0.16246 0.45161 0.3149 0.0
O548 O 0.14805 0.5808 0.45477 0.0
H549 H 0.09942 0.58379 0.29264 0.0
H550 H 0.16562 0.64019 0.43028 0.0
H551 H 0.07454 0.42533 0.16846 0.0
H552 H 0.18703 0.48682 0.51837 0.0
H553 H 0.09757 0.38804 0.17991 0.0
H554 H 0.1354 0.43475 0.54142 0.0
O555 O 0.15072 0.53095 0.24989 0.0
H556 H 0.26607 0.63682 0.43667 0.0
H557 H 0.18807 0.63689 0.28996 0.0
H558 H 0.24651 0.68043 0.28593 0.0
H559 H 0.28595 0.6806 0.35974 0.0
H560 H 0.20744 0.59357 0.43875 0.0
H561 H 0.14649 0.68053 0.42503 0.0
H562 H 0.10334 0.67244 0.35209 0.0
O563 O 0.14867 0.57584 0.27845 0.0
C564 C 0.08595 0.5118 0.35396 0.0
C565 C 0.09865 0.62751 0.31738 0.0
C566 C 0.13607 0.6594 0.39572 0.0
N567 N 0.13381 0.60979 0.36151 0.0
C568 C 0.10994 0.60507 0.32148 0.0
C569 C 0.14675 0.63644 0.39858 0.0
C570 C 0.11186 0.65486 0.35477 0.0
C571 C 0.1689 0.49355 0.43469 0.0
N572 N 0.14309 0.48143 0.39582 0.0
C573 C 0.16656 0.47701 0.48761 0.0
C574 C 0.13757 0.44782 0.50056 0.0
C575 C 0.11139 0.43554 0.46059 0.0
C576 C 0.11461 0.45279 0.40816 0.0
C577 C 0.13167 0.41754 0.24828 0.0
C578 C 0.10597 0.45909 0.23583 0.0
C579 C 0.14324 0.44597 0.28276 0.0
N580 N 0.13026 0.46622 0.27647 0.0
C581 C 0.09381 0.43088 0.20055 0.0
C582 C 0.10677 0.40999 0.20696 0.0
C583 C 0.15019 0.5574 0.23859 0.0
C584 C 0.24911 0.63706 0.40437 0.0
C585 C 0.20509 0.63673 0.3221 0.0
C586 C 0.23814 0.6615 0.3197 0.0
C587 C 0.26026 0.66159 0.36114 0.0
N588 N 0.19433 0.61279 0.3647 0.0
C589 C 0.21586 0.61271 0.40548 0.0
Co590 Co 0.64928 0.14036 0.48935 0.0
Co591 Co 0.57899 0.14202 0.53176 0.0
O592 O 0.62627 0.15741 0.53739 0.0
C593 C 0.68653 0.21283 0.46523 0.0
O594 O 0.65812 0.21184 0.4605 0.0
C595 C 0.58893 0.13116 0.65683 0.0
O596 O 0.60805 0.12003 0.63797 0.0
O597 O 0.56755 0.09489 0.5336 0.0
O598 O 0.61238 0.0938 0.50131 0.0
H599 H 0.46442 0.07299 0.45088 0.0
H600 H 0.68324 0.1849 0.59057 0.0
O601 O 0.68724 0.18653 0.47678 0.0
H602 H 0.68432 0.08242 0.63548 0.0
H603 H 0.74882 0.1356 0.41898 0.0
H604 H 0.62904 0.08952 0.39573 0.0
H605 H 0.6597 0.0879 0.54257 0.0
H606 H 0.71921 0.15607 0.48029 0.0
O607 O 0.57553 0.14149 0.62012 0.0
H608 H 0.52396 0.09275 0.45799 0.0
H609 H 0.53365 0.15895 0.59559 0.0
H610 H 0.65762 0.06812 0.33381 0.0
H611 H 0.70846 0.18064 0.68378 0.0
H612 H 0.71794 0.09121 0.34526 0.0
H613 H 0.70896 0.12905 0.70684 0.0
O614 O 0.62812 0.14424 0.41525 0.0
H615 H 0.6374 0.25955 0.60191 0.0
H616 H 0.5594 0.1814 0.45525 0.0
H617 H 0.57422 0.23982 0.45118 0.0
H618 H 0.61346 0.27934 0.52495 0.0
H619 H 0.6221 0.20094 0.60403 0.0
H620 H 0.47416 0.13971 0.59032 0.0
H621 H 0.43915 0.09652 0.51739 0.0
O622 O 0.58114 0.14208 0.44378 0.0
C623 C 0.58252 0.07942 0.51942 0.0
C624 C 0.47943 0.0919 0.48271 0.0
C625 C 0.4849 0.12932 0.56103 0.0
N626 N 0.53229 0.12715 0.52684 0.0
C627 C 0.51318 0.10325 0.48682 0.0
C628 C 0.51855 0.14006 0.56389 0.0
C629 C 0.46527 0.10509 0.52009 0.0
C630 C 0.68364 0.16248 0.60008 0.0
N631 N 0.67 0.13666 0.5612 0.0
C632 C 0.69784 0.16017 0.65301 0.0
C633 C 0.69807 0.1312 0.66596 0.0
C634 C 0.68422 0.10502 0.62598 0.0
C635 C 0.67019 0.1082 0.57354 0.0
C636 C 0.72252 0.1253 0.41365 0.0
C637 C 0.65526 0.09953 0.4012 0.0
C638 C 0.70564 0.13684 0.44814 0.0
N639 N 0.6724 0.12382 0.44185 0.0
C640 C 0.67132 0.08739 0.36591 0.0
C641 C 0.70518 0.10038 0.37231 0.0
C642 C 0.60113 0.14366 0.40393 0.0
C643 C 0.62021 0.24255 0.56962 0.0
C644 C 0.57656 0.19845 0.48738 0.0
C645 C 0.58481 0.2315 0.48495 0.0
C646 C 0.6068 0.25365 0.52637 0.0
N647 N 0.58978 0.18775 0.52999 0.0
C648 C 0.61136 0.20932 0.57075 0.0
Co649 Co 0.51818 0.64311 0.65643 0.0
Co650 Co 0.44632 0.5727 0.69889 0.0
O651 O 0.47816 0.62 0.70458 0.0
C652 C 0.4829 0.68031 0.63271 0.0
O653 O 0.4555 0.65187 0.62793 0.0
C654 C 0.46709 0.58263 0.82399 0.0
O655 O 0.49735 0.60179 0.80518 0.0
O656 O 0.48205 0.56135 0.70059 0.0
O657 O 0.52787 0.60622 0.66805 0.0
H658 H 0.40089 0.45815 0.61785 0.0
H659 H 0.50768 0.67697 0.75793 0.0
O660 O 0.50993 0.68106 0.64416 0.0
H661 H 0.61128 0.67809 0.80219 0.0
H662 H 0.6224 0.74283 0.58606 0.0
H663 H 0.54873 0.62303 0.56244 0.0
H664 H 0.5811 0.65353 0.70931 0.0
H665 H 0.57237 0.7131 0.64749 0.0
O666 O 0.44339 0.5692 0.78725 0.0
H667 H 0.44061 0.51773 0.62501 0.0
H668 H 0.38407 0.52724 0.76275 0.0
H669 H 0.59866 0.65173 0.5004 0.0
H670 H 0.53723 0.70211 0.85112 0.0
H671 H 0.63587 0.71207 0.51203 0.0
H672 H 0.58935 0.70263 0.87384 0.0
O673 O 0.49309 0.622 0.58235 0.0
H674 H 0.38708 0.63091 0.76935 0.0
H675 H 0.38731 0.55303 0.62248 0.0
H676 H 0.34365 0.56775 0.61857 0.0
H677 H 0.34333 0.60693 0.69245 0.0
H678 H 0.43045 0.61572 0.77132 0.0
H679 H 0.34387 0.46771 0.75744 0.0
H680 H 0.35211 0.43277 0.68441 0.0
O681 O 0.44839 0.57489 0.61092 0.0
C682 C 0.51246 0.57636 0.68616 0.0
C683 C 0.39698 0.47314 0.64972 0.0
C684 C 0.365 0.4785 0.72812 0.0
N685 N 0.41453 0.52597 0.69393 0.0
C686 C 0.41933 0.5069 0.65386 0.0
C687 C 0.38788 0.51217 0.73101 0.0
C688 C 0.36963 0.45891 0.68713 0.0
C689 C 0.5305 0.67737 0.76729 0.0
N690 N 0.54265 0.66378 0.72825 0.0
C691 C 0.54706 0.69153 0.82021 0.0
C692 C 0.57627 0.69177 0.83298 0.0
C693 C 0.58858 0.67797 0.79283 0.0
C694 C 0.57132 0.66398 0.7404 0.0
C695 C 0.60641 0.71653 0.58065 0.0
C696 C 0.56494 0.64925 0.568 0.0
C697 C 0.57801 0.69957 0.61521 0.0
N698 N 0.5578 0.66633 0.60881 0.0
C699 C 0.59311 0.66539 0.53264 0.0
C700 C 0.61396 0.69925 0.53914 0.0
C701 C 0.46673 0.59494 0.57105 0.0
C702 C 0.38691 0.61375 0.73702 0.0
C703 C 0.38741 0.57017 0.65466 0.0
C704 C 0.36257 0.57836 0.65231 0.0
C705 C 0.36239 0.60032 0.6938 0.0
N706 N 0.41134 0.58342 0.69724 0.0
C707 C 0.41133 0.60496 0.73806 0.0
C708 C 0.60347 0.14616 0.23579 0.0
C709 C 0.57397 0.14579 0.22198 0.0
H710 H 0.63522 0.1458 0.3036 0.0
C711 C 0.55376 0.14513 0.26858 0.0
H712 H 0.61968 0.1466 0.2011 0.0
C713 C 0.56271 0.1446 0.32749 0.0
C714 C 0.59212 0.14478 0.34129 0.0
H715 H 0.53085 0.14474 0.25968 0.0
H716 H 0.54635 0.14385 0.36216 0.0
C717 C 0.61245 0.14568 0.2947 0.0
C718 C 0.4665 0.59724 0.40291 0.0
C719 C 0.43741 0.56765 0.38915 0.0
H720 H 0.49856 0.62909 0.47068 0.0
C721 C 0.41792 0.54742 0.43578 0.0
H722 H 0.48222 0.61347 0.3682 0.0
C723 C 0.42739 0.55641 0.49467 0.0
C724 C 0.45658 0.5859 0.50843 0.0
H725 H 0.39544 0.52445 0.42692 0.0
H726 H 0.41182 0.54002 0.52937 0.0
C727 C 0.47595 0.60626 0.46181 0.0
C728 C 0.87888 0.46954 0.62855 0.0
C729 C 0.87966 0.45006 0.67515 0.0
H730 H 0.87807 0.4759 0.53495 0.0
C731 C 0.87971 0.42075 0.66137 0.0
H732 H 0.87886 0.49226 0.63743 0.0
C733 C 0.87919 0.41126 0.60247 0.0
C734 C 0.87865 0.43087 0.55585 0.0
H735 H 0.88036 0.40509 0.69605 0.0
H736 H 0.87948 0.38869 0.59358 0.0
C737 C 0.87841 0.46009 0.56964 0.0
C738 C 0.42706 0.87176 0.73694 0.0
C739 C 0.4566 0.87218 0.72312 0.0
H740 H 0.39525 0.87201 0.80476 0.0
C741 C 0.47679 0.87283 0.76972 0.0
H742 H 0.41086 0.87132 0.70225 0.0
C743 C 0.4678 0.8733 0.82863 0.0
C744 C 0.43835 0.87306 0.84244 0.0
H745 H 0.49972 0.87326 0.76082 0.0
H746 H 0.48415 0.87404 0.8633 0.0
C747 C 0.41804 0.87217 0.79585 0.0
C748 C 0.60375 0.46182 -0.00654 0.0
C749 C 0.57454 0.43235 0.00726 0.0
H750 H 0.63576 0.49372 0.92566 0.0
C751 C 0.55519 0.41198 0.96067 0.0
H752 H 0.61931 0.47822 0.02813 0.0
C753 C 0.56468 0.42096 0.90176 0.0
C754 C 0.59379 0.45052 0.88796 0.0
H755 H 0.53256 0.38916 0.96956 0.0
H756 H 0.54896 0.40472 0.86706 0.0
C757 C 0.61327 0.47077 0.93456 0.0
C758 C 0.15203 0.54804 0.12935 0.0
C759 C 0.15125 0.56752 0.17596 0.0
H760 H 0.15278 0.54167 0.03574 0.0
C761 C 0.15112 0.59679 0.16217 0.0
H762 H 0.15211 0.52536 0.13824 0.0
C763 C 0.15157 0.60625 0.10327 0.0
C764 C 0.15211 0.58665 0.05665 0.0
H765 H 0.15047 0.61245 0.19685 0.0
H766 H 0.15123 0.6288 0.09438 0.0
C767 C 0.15243 0.55747 0.07044 0.0
C768 C 0.51848 0.27621 0.11929 0.0
C769 C 0.54829 0.30637 0.12295 0.0
H770 H 0.49494 0.22386 0.10849 0.0
C771 C 0.57808 0.30601 0.1186 0.0
H772 H 0.49505 0.27547 0.12233 0.0
C773 C 0.57801 0.27623 0.11102 0.0
C774 C 0.54816 0.2461 0.10709 0.0
H775 H 0.6015 0.32873 0.12136 0.0
H776 H 0.60139 0.27687 0.10789 0.0
C777 C 0.51841 0.24653 0.1112 0.0
C778 C 0.31077 0.57122 0.27923 0.0
C779 C 0.31111 0.54141 0.27513 0.0
H780 H 0.28168 0.59458 0.28988 0.0
C781 C 0.28097 0.5116 0.27933 0.0
H782 H 0.33347 0.59464 0.27604 0.0
C783 C 0.25133 0.51157 0.28763 0.0
C784 C 0.25092 0.54135 0.29142 0.0
H785 H 0.28023 0.48816 0.27651 0.0
H786 H 0.22867 0.48811 0.29071 0.0
C787 C 0.28102 0.57119 0.28702 0.0
C788 C 0.74815 0.24485 0.45322 0.0
C789 C 0.718 0.2445 0.45697 0.0
H790 H 0.80048 0.27369 0.44232 0.0
C791 C 0.71835 0.27465 0.45269 0.0
H792 H 0.74889 0.22216 0.4562 0.0
C793 C 0.74812 0.30438 0.44507 0.0
C794 C 0.77824 0.30467 0.44104 0.0
H795 H 0.69563 0.27534 0.45552 0.0
H796 H 0.74747 0.32712 0.442 0.0
C797 C 0.77781 0.27448 0.4451 0.0
C798 C 0.45284 0.7418 0.61273 0.0
C799 C 0.48265 0.77196 0.60869 0.0
H800 H 0.42944 0.68931 0.62313 0.0
C801 C 0.51243 0.7716 0.61275 0.0
H802 H 0.42943 0.74111 0.60965 0.0
C803 C 0.51244 0.74196 0.62084 0.0
C804 C 0.48266 0.71176 0.62456 0.0
H805 H 0.53588 0.7943 0.60996 0.0
H806 H 0.53589 0.74275 0.62381 0.0
C807 C 0.45284 0.71206 0.62031 0.0
C808 C 0.7502 0.50629 0.77803 0.0
C809 C 0.72003 0.47652 0.77385 0.0
H810 H 0.80249 0.52969 0.78949 0.0
C811 C 0.7203 0.44667 0.77801 0.0
H812 H 0.751 0.52975 0.77515 0.0
C813 C 0.75 0.44663 0.78588 0.0
C814 C 0.78014 0.47644 0.79029 0.0
H815 H 0.69758 0.42327 0.77484 0.0
H816 H 0.74929 0.42321 0.7888 0.0
C817 C 0.7798 0.50625 0.78641 0.0
C818 C 0.25274 0.74312 0.94635 0.0
C819 C 0.2524 0.71298 0.94224 0.0
H820 H 0.28156 0.79544 0.95754 0.0
C821 C 0.28255 0.71333 0.94631 0.0
H822 H 0.23005 0.74386 0.94355 0.0
C823 C 0.31227 0.74309 0.95399 0.0
C824 C 0.31255 0.77321 0.9583 0.0
H825 H 0.28326 0.69062 0.9432 0.0
H826 H 0.33502 0.74245 0.95683 0.0
C827 C 0.28236 0.77278 0.95453 0.0
C828 C 0.55408 0.13176 0.74008 0.0
C829 C 0.58248 0.13149 0.72074 0.0
H830 H 0.52557 0.13188 0.81432 0.0
C831 C 0.60456 0.13163 0.76291 0.0
H832 H 0.53657 0.13153 0.70844 0.0
C833 C 0.59853 0.1324 0.82341 0.0
C834 C 0.56997 0.13234 0.84276 0.0
H835 H 0.62669 0.13157 0.74918 0.0
H836 H 0.61606 0.13265 0.85505 0.0
C837 C 0.54771 0.13182 0.80059 0.0
C838 C 0.43158 0.54776 0.9072 0.0
C839 C 0.46025 0.57618 0.8879 0.0
H840 H 0.40287 0.51924 0.98139 0.0
C841 C 0.48212 0.59831 0.93011 0.0
H842 H 0.41435 0.5302 0.87554 0.0
C843 C 0.47524 0.59231 -0.00941 0.0
C844 C 0.44674 0.56372 0.0099 0.0
H845 H 0.50431 0.62046 0.91641 0.0
H846 H 0.49247 0.60987 0.02226 0.0
C847 C 0.42506 0.5414 0.9677 0.0
C848 C 0.89251 0.425 0.0739 0.0
C849 C 0.89282 0.4537 0.05459 0.0
H850 H 0.89237 0.39634 0.1481 0.0
C851 C 0.89275 0.47567 0.0968 0.0
H852 H 0.89269 0.40769 0.04225 0.0
C853 C 0.89199 0.46886 0.15729 0.0
C854 C 0.89202 0.44033 0.17661 0.0
H855 H 0.89285 0.49789 0.08309 0.0
H856 H 0.8918 0.48616 0.18895 0.0
C857 C 0.89246 0.41855 0.1344 0.0
C858 C 0.43187 0.88527 0.32458 0.0
C859 C 0.46045 0.88536 0.34388 0.0
H860 H 0.40371 0.88613 0.25041 0.0
C861 C 0.48274 0.88595 0.30166 0.0
H862 H 0.41433 0.88497 0.35626 0.0
C863 C 0.47637 0.88607 0.24116 0.0
C864 C 0.44796 0.88631 0.22188 0.0
H865 H 0.50489 0.88592 0.31534 0.0
H866 H 0.49391 0.88635 0.20949 0.0
C867 C 0.42586 0.8861 0.2641 0.0
C868 C 0.55605 0.42585 0.48945 0.0
C869 C 0.58456 0.45443 0.50871 0.0
H870 H 0.52699 0.39768 0.41532 0.0
C871 C 0.60628 0.4767 0.46647 0.0
H872 H 0.53879 0.40832 0.52114 0.0
C873 C 0.59978 0.47032 0.40598 0.0
C874 C 0.5711 0.44191 0.38673 0.0
H875 H 0.62848 0.49885 0.48012 0.0
H876 H 0.61704 0.48784 0.37428 0.0
C877 C 0.54919 0.41982 0.42898 0.0
C878 C 0.13836 0.59258 0.57469 0.0
C879 C 0.13806 0.56389 0.55541 0.0
H880 H 0.13853 0.62128 0.64885 0.0
C881 C 0.1382 0.54196 0.59765 0.0
H882 H 0.13813 0.60986 0.54301 0.0
C883 C 0.139 0.5488 0.65813 0.0
C884 C 0.13896 0.57733 0.67741 0.0
H885 H 0.13811 0.51974 0.58397 0.0
H886 H 0.13924 0.53153 0.68981 0.0
C887 C 0.13845 0.59907 0.63518 0.0
C888 C 0.51768 0.02716 0.03547 0.0
C889 C 0.5006 0.04473 0.03816 0.0
H890 H 0.51461 0.9801 0.0284 0.0
C891 C 0.46598 0.02695 0.03467 0.0
H892 H 0.54432 0.03997 0.03817 0.0
C893 C 0.44894 0.9926 0.028 0.0
C894 C 0.46599 0.97499 0.02595 0.0
H895 H 0.45195 0.03955 0.03645 0.0
H896 H 0.42234 0.97986 0.02508 0.0
C897 C 0.5006 0.99275 0.02999 0.0
C898 C 0.51717 0.49459 0.19586 0.0
C899 C 0.50033 0.45998 0.19147 0.0
H900 H 0.51363 0.53826 0.20474 0.0
C901 C 0.46567 0.44288 0.19362 0.0
H902 H 0.54383 0.50864 0.19423 0.0
C903 C 0.44835 0.45986 0.20073 0.0
C904 C 0.46516 0.49448 0.20458 0.0
H905 H 0.45181 0.41628 0.19043 0.0
H906 H 0.42172 0.4458 0.20256 0.0
C907 C 0.49981 0.51162 0.20179 0.0
C908 C 0.03167 0.51032 0.36358 0.0
C909 C 0.04936 0.49339 0.35962 0.0
H910 H 0.98452 0.50695 0.37172 0.0
C911 C 0.03168 0.45872 0.3618 0.0
H912 H 0.04438 0.537 0.3619 0.0
C913 C 0.99735 0.44148 0.3685 0.0
C914 C 0.97963 0.45839 0.3719 0.0
H915 H 0.04436 0.4448 0.35895 0.0
H916 H 0.98469 0.41485 0.37038 0.0
C917 C 0.99726 0.49305 0.36909 0.0
C918 C 0.56444 0.99091 0.53475 0.0
C919 C 0.52983 0.97312 0.53848 0.0
H920 H 0.60806 0.03796 0.52454 0.0
C921 C 0.51273 0.99067 0.53557 0.0
H922 H 0.57848 0.97832 0.53667 0.0
C923 C 0.52979 0.02507 0.52964 0.0
C924 C 0.5644 0.04282 0.52537 0.0
H925 H 0.48609 0.97787 0.53843 0.0
H926 H 0.51577 0.03771 0.52791 0.0
C927 C 0.58146 0.02523 0.52763 0.0
C928 C 0.53151 0.50661 0.70132 0.0
C929 C 0.56617 0.52374 0.70384 0.0
H930 H 0.48747 0.5096 0.69444 0.0
C931 C 0.58297 0.55836 0.70018 0.0
H932 H 0.51769 0.47996 0.70415 0.0
C933 C 0.56563 0.57536 0.69354 0.0
C934 C 0.53097 0.55827 0.6917 0.0
H935 H 0.6096 0.57242 0.70181 0.0
H936 H 0.57948 0.60197 0.69049 0.0
C937 C 0.51414 0.52365 0.69588 0.0
C938 C 0.03361 0.52446 0.86917 0.0
C939 C 0.05122 0.55912 0.87216 0.0
H940 H 0.98652 0.48052 0.86151 0.0
C941 C 0.03351 0.57602 0.86859 0.0
H942 H 0.04636 0.51056 0.87191 0.0
C943 C 0.9992 0.55879 0.86155 0.0
C944 C 0.98154 0.52412 0.8592 0.0
H945 H 0.04615 0.60265 0.8706 0.0
H946 H 0.98653 0.57271 0.85859 0.0
C947 C 0.99922 0.50719 0.86332 0.0
loop_
_geom_bond_atom_site_label_1
_geom_bond_atom_site_label_2
_geom_bond_distance
_geom_bond_site_symmetry_2
_ccdc_geom_bond_type
Co0 O2 2.143 . S
Co0 O8 2.074 . S
Co0 O11 2.093 . S
Co0 O24 2.097 . S
Co0 N41 2.151 . S
Co0 N49 2.214 . S
Co1 O2 2.160 . S
Co1 O7 2.058 . S
Co1 O17 2.057 1_554 S
Co1 O32 2.037 . S
Co1 N36 2.145 . S
Co1 N57 2.257 . S
O2 Co0 2.143 . S
O2 Co1 2.160 . S
C3 O4 1.278 . S
C3 O11 1.224 . S
O4 C3 1.278 . S
C5 O6 1.245 . S
C5 O17 1.232 . S
O6 C5 1.245 . S
O7 Co1 2.058 . S
O7 C33 1.269 . S
O8 Co0 2.074 . S
O8 C33 1.257 . S
H9 C34 0.930 . S
H10 C40 0.930 . S
O11 Co0 2.093 . S
O11 C3 1.224 . S
H12 C44 0.929 . S
H13 C46 0.930 . S
H14 C47 0.930 . S
H15 C45 0.929 . S
H16 C48 0.928 . S
O17 Co1 2.057 1_556 S
O17 C5 1.232 . S
H18 C37 0.929 . S
H19 C38 0.929 . S
H20 C50 0.931 . S
H21 C42 0.929 . S
H22 C51 0.930 . S
H23 C43 0.931 . S
O24 Co0 2.097 . S
O24 C52 1.214 . S
H25 C53 0.929 . S
H26 C54 0.929 . S
H27 C55 0.930 . S
H28 C56 0.929 . S
H29 C58 0.930 1_556 S
H30 C35 0.930 . S
H31 C39 0.930 . S
O32 Co1 2.037 . S
O32 C52 1.234 . S
C33 O7 1.269 . S
C33 O8 1.257 . S
C34 H9 0.930 . S
C34 C37 1.388 . S
C34 C39 1.418 . S
C35 H30 0.930 . S
C35 C38 1.404 . S
C35 C39 1.353 1_556 S
N36 Co1 2.145 . S
N36 C37 1.397 . S
N36 C38 1.334 1_554 S
C37 H18 0.929 . S
C37 C34 1.388 . S
C37 N36 1.397 . S
C38 H19 0.929 . S
C38 C35 1.404 . S
C38 N36 1.334 1_556 S
C39 H31 0.930 . S
C39 C34 1.418 . S
C39 C35 1.353 1_554 S
C40 H10 0.930 . S
C40 N41 1.330 . S
C40 C42 1.446 1_554 S
N41 Co0 2.151 . S
N41 C40 1.330 . S
N41 C45 1.418 . S
C42 H21 0.929 . S
C42 C40 1.446 1_556 S
C42 C43 1.332 . S
C43 H23 0.931 . S
C43 C42 1.332 . S
C43 C44 1.267 1_556 S
C44 H12 0.929 . S
C44 C43 1.267 1_554 S
C44 C45 1.251 . S
C45 H15 0.929 . S
C45 N41 1.418 . S
C45 C44 1.251 . S
C46 H13 0.930 . S
C46 C48 1.406 . S
C46 C51 1.261 . S
C47 H14 0.930 . S
C47 N49 1.325 . S
C47 C50 1.357 . S
C48 H16 0.928 . S
C48 C46 1.406 . S
C48 N49 1.261 . S
N49 Co0 2.214 . S
N49 C47 1.325 . S
N49 C48 1.261 . S
C50 H20 0.931 . S
C50 C47 1.357 . S
C50 C51 1.312 . S
C51 H22 0.930 . S
C51 C46 1.261 . S
C51 C50 1.312 . S
C52 O24 1.214 . S
C52 O32 1.234 . S
C53 H25 0.929 . S
C53 C56 1.391 . S
C53 C58 1.391 . S
C54 H26 0.929 . S
C54 C55 1.390 . S
C54 N57 1.391 . S
C55 H27 0.930 . S
C55 C54 1.390 . S
C55 C56 1.392 . S
C56 H28 0.929 . S
C56 C53 1.391 . S
C56 C55 1.392 . S
N57 Co1 2.257 . S
N57 C54 1.391 . S
N57 C58 1.388 . S
C58 H29 0.930 1_554 S
C58 C53 1.391 . S
C58 N57 1.388 . S
Co59 O61 2.143 . S
Co59 O67 2.074 . S
Co59 O70 2.093 . S
Co59 O83 2.097 . S
Co59 N100 2.151 . S
Co59 N108 2.214 . S
Co60 O61 2.160 . S
Co60 O66 2.058 . S
Co60 O76 2.057 . S
Co60 O91 2.037 . S
Co60 N95 2.145 . S
Co60 N116 2.257 . S
O61 Co59 2.143 . S
O61 Co60 2.160 . S
C62 O63 1.278 . S
C62 O70 1.224 . S
O63 C62 1.278 . S
C64 O65 1.245 . S
C64 O76 1.232 . S
O65 C64 1.245 . S
O66 Co60 2.058 . S
O66 C92 1.269 . S
O67 Co59 2.074 . S
O67 C92 1.257 . S
H68 C93 0.930 . S
H69 C99 0.930 . S
O70 Co59 2.093 . S
O70 C62 1.224 . S
H71 C103 0.929 . S
H72 C105 0.930 . S
H73 C106 0.930 . S
H74 C104 0.929 . S
H75 C107 0.928 . S
O76 Co60 2.057 . S
O76 C64 1.232 . S
H77 C96 0.929 . S
H78 C97 0.929 . S
H79 C109 0.931 . S
H80 C101 0.929 . S
H81 C110 0.930 . S
H82 C102 0.931 . S
O83 Co59 2.097 . S
O83 C111 1.214 . S
H84 C112 0.929 . S
H85 C113 0.929 . S
H86 C114 0.930 . S
H87 C115 0.929 . S
H88 C117 0.930 . S
H89 C94 0.930 . S
H90 C98 0.930 . S
O91 Co60 2.037 . S
O91 C111 1.234 . S
C92 O66 1.269 . S
C92 O67 1.257 . S
C93 H68 0.930 . S
C93 C96 1.388 . S
C93 C98 1.418 . S
C94 H89 0.930 . S
C94 C97 1.404 . S
C94 C98 1.353 . S
N95 Co60 2.145 . S
N95 C96 1.397 . S
N95 C97 1.334 . S
C96 H77 0.929 . S
C96 C93 1.388 . S
C96 N95 1.397 . S
C97 H78 0.929 . S
C97 C94 1.404 . S
C97 N95 1.334 . S
C98 H90 0.930 . S
C98 C93 1.418 . S
C98 C94 1.353 . S
C99 H69 0.930 . S
C99 N100 1.330 . S
C99 C101 1.446 . S
N100 Co59 2.151 . S
N100 C99 1.330 . S
N100 C104 1.418 . S
C101 H80 0.929 . S
C101 C99 1.446 . S
C101 C102 1.332 . S
C102 H82 0.931 . S
C102 C101 1.332 . S
C102 C103 1.267 . S
C103 H71 0.929 . S
C103 C102 1.267 . S
C103 C104 1.251 . S
C104 H74 0.929 . S
C104 N100 1.418 . S
C104 C103 1.251 . S
C105 H72 0.930 . S
C105 C107 1.406 . S
C105 C110 1.261 . S
C106 H73 0.930 . S
C106 N108 1.325 . S
C106 C109 1.357 . S
C107 H75 0.928 . S
C107 C105 1.406 . S
C107 N108 1.261 . S
N108 Co59 2.214 . S
N108 C106 1.325 . S
N108 C107 1.261 . S
C109 H79 0.931 . S
C109 C106 1.357 . S
C109 C110 1.312 . S
C110 H81 0.930 . S
C110 C105 1.261 . S
C110 C109 1.312 . S
C111 O83 1.214 . S
C111 O91 1.234 . S
C112 H84 0.929 . S
C112 C115 1.391 . S
C112 C117 1.391 . S
C113 H85 0.929 . S
C113 C114 1.390 . S
C113 N116 1.391 . S
C114 H86 0.930 . S
C114 C113 1.390 . S
C114 C115 1.392 . S
C115 H87 0.929 . S
C115 C112 1.391 . S
C115 C114 1.392 . S
N116 Co60 2.257 . S
N116 C113 1.391 . S
N116 C117 1.388 . S
C117 H88 0.930 . S
C117 C112 1.391 . S
C117 N116 1.388 . S
Co118 O120 2.143 . S
Co118 O126 2.074 . S
Co118 O129 2.093 . S
Co118 O142 2.097 . S
Co118 N159 2.151 . S
Co118 N167 2.214 . S
Co119 O120 2.160 . S
Co119 O125 2.058 . S
Co119 O135 2.057 . S
Co119 O150 2.037 . S
Co119 N154 2.145 . S
Co119 N175 2.257 . S
O120 Co118 2.143 . S
O120 Co119 2.160 . S
C121 O122 1.278 . S
C121 O129 1.224 . S
O122 C121 1.278 . S
C123 O124 1.245 . S
C123 O135 1.232 . S
O124 C123 1.245 . S
O125 Co119 2.058 . S
O125 C151 1.269 . S
O126 Co118 2.074 . S
O126 C151 1.257 . S
H127 C152 0.930 . S
H128 C158 0.930 . S
O129 Co118 2.093 . S
O129 C121 1.224 . S
H130 C162 0.929 . S
H131 C164 0.930 . S
H132 C165 0.930 . S
H133 C163 0.929 . S
H134 C166 0.928 . S
O135 Co119 2.057 . S
O135 C123 1.232 . S
H136 C155 0.929 . S
H137 C156 0.929 . S
H138 C168 0.931 . S
H139 C160 0.929 . S
H140 C169 0.930 . S
H141 C161 0.931 . S
O142 Co118 2.097 . S
O142 C170 1.214 . S
H143 C171 0.929 . S
H144 C172 0.929 . S
H145 C173 0.930 . S
H146 C174 0.929 . S
H147 C176 0.930 . S
H148 C153 0.930 . S
H149 C157 0.930 . S
O150 Co119 2.037 . S
O150 C170 1.234 . S
C151 O125 1.269 . S
C151 O126 1.257 . S
C152 H127 0.930 . S
C152 C155 1.388 . S
C152 C157 1.418 . S
C153 H148 0.930 . S
C153 C156 1.404 . S
C153 C157 1.353 . S
N154 Co119 2.145 . S
N154 C155 1.397 . S
N154 C156 1.334 . S
C155 H136 0.929 . S
C155 C152 1.388 . S
C155 N154 1.397 . S
C156 H137 0.929 . S
C156 C153 1.404 . S
C156 N154 1.334 . S
C157 H149 0.930 . S
C157 C152 1.418 . S
C157 C153 1.353 . S
C158 H128 0.930 . S
C158 N159 1.330 . S
C158 C160 1.446 . S
N159 Co118 2.151 . S
N159 C158 1.330 . S
N159 C163 1.418 . S
C160 H139 0.929 . S
C160 C158 1.446 . S
C160 C161 1.332 . S
C161 H141 0.931 . S
C161 C160 1.332 . S
C161 C162 1.267 . S
C162 H130 0.929 . S
C162 C161 1.267 . S
C162 C163 1.251 . S
C163 H133 0.929 . S
C163 N159 1.418 . S
C163 C162 1.251 . S
C164 H131 0.930 . S
C164 C166 1.406 . S
C164 C169 1.261 . S
C165 H132 0.930 . S
C165 N167 1.325 . S
C165 C168 1.357 . S
C166 H134 0.928 . S
C166 C164 1.406 . S
C166 N167 1.261 . S
N167 Co118 2.214 . S
N167 C165 1.325 . S
N167 C166 1.261 . S
C168 H138 0.931 . S
C168 C165 1.357 . S
C168 C169 1.312 . S
C169 H140 0.930 . S
C169 C164 1.261 . S
C169 C168 1.312 . S
C170 O142 1.214 . S
C170 O150 1.234 . S
C171 H143 0.929 . S
C171 C174 1.391 . S
C171 C176 1.391 . S
C172 H144 0.929 . S
C172 C173 1.390 . S
C172 N175 1.391 . S
C173 H145 0.930 . S
C173 C172 1.390 . S
C173 C174 1.392 . S
C174 H146 0.929 . S
C174 C171 1.391 . S
C174 C173 1.392 . S
N175 Co119 2.257 . S
N175 C172 1.391 . S
N175 C176 1.388 . S
C176 H147 0.930 . S
C176 C171 1.391 . S
C176 N175 1.388 . S
Co177 O179 2.143 . S
Co177 O185 2.074 . S
Co177 O188 2.093 . S
Co177 O201 2.097 . S
Co177 N218 2.151 . S
Co177 N226 2.214 . S
Co178 O179 2.160 . S
Co178 O184 2.058 . S
Co178 O194 2.057 . S
Co178 O209 2.037 . S
Co178 N213 2.145 . S
Co178 N234 2.257 . S
O179 Co177 2.143 . S
O179 Co178 2.160 . S
C180 O181 1.278 . S
C180 O188 1.224 . S
O181 C180 1.278 . S
C182 O183 1.245 . S
C182 O194 1.232 . S
O183 C182 1.245 . S
O184 Co178 2.058 . S
O184 C210 1.269 . S
O185 Co177 2.074 . S
O185 C210 1.257 . S
H186 C211 0.930 . S
H187 C217 0.930 . S
O188 Co177 2.093 . S
O188 C180 1.224 . S
H189 C221 0.929 . S
H190 C223 0.930 . S
H191 C224 0.930 . S
H192 C222 0.929 . S
H193 C225 0.928 . S
O194 Co178 2.057 . S
O194 C182 1.232 . S
H195 C214 0.929 . S
H196 C215 0.929 . S
H197 C227 0.931 . S
H198 C219 0.929 . S
H199 C228 0.930 . S
H200 C220 0.931 . S
O201 Co177 2.097 . S
O201 C229 1.214 . S
H202 C230 0.929 . S
H203 C231 0.929 . S
H204 C232 0.930 . S
H205 C233 0.929 . S
H206 C235 0.930 . S
H207 C212 0.930 . S
H208 C216 0.930 . S
O209 Co178 2.037 . S
O209 C229 1.234 . S
C210 O184 1.269 . S
C210 O185 1.257 . S
C211 H186 0.930 . S
C211 C214 1.388 . S
C211 C216 1.418 . S
C212 H207 0.930 . S
C212 C215 1.404 . S
C212 C216 1.353 . S
N213 Co178 2.145 . S
N213 C214 1.397 . S
N213 C215 1.334 . S
C214 H195 0.929 . S
C214 C211 1.388 . S
C214 N213 1.397 . S
C215 H196 0.929 . S
C215 C212 1.404 . S
C215 N213 1.334 . S
C216 H208 0.930 . S
C216 C211 1.418 . S
C216 C212 1.353 . S
C217 H187 0.930 . S
C217 N218 1.330 . S
C217 C219 1.446 . S
N218 Co177 2.151 . S
N218 C217 1.330 . S
N218 C222 1.418 . S
C219 H198 0.929 . S
C219 C217 1.446 . S
C219 C220 1.332 . S
C220 H200 0.931 . S
C220 C219 1.332 . S
C220 C221 1.267 . S
C221 H189 0.929 . S
C221 C220 1.267 . S
C221 C222 1.251 . S
C222 H192 0.929 . S
C222 N218 1.418 . S
C222 C221 1.251 . S
C223 H190 0.930 . S
C223 C225 1.406 . S
C223 C228 1.261 . S
C224 H191 0.930 . S
C224 N226 1.325 . S
C224 C227 1.357 . S
C225 H193 0.928 . S
C225 C223 1.406 . S
C225 N226 1.261 . S
N226 Co177 2.214 . S
N226 C224 1.325 . S
N226 C225 1.261 . S
C227 H197 0.931 . S
C227 C224 1.357 . S
C227 C228 1.312 . S
C228 H199 0.930 . S
C228 C223 1.261 . S
C228 C227 1.312 . S
C229 O201 1.214 . S
C229 O209 1.234 . S
C230 H202 0.929 . S
C230 C233 1.391 . S
C230 C235 1.391 . S
C231 H203 0.929 . S
C231 C232 1.390 . S
C231 N234 1.391 . S
C232 H204 0.930 . S
C232 C231 1.390 . S
C232 C233 1.392 . S
C233 H205 0.929 . S
C233 C230 1.391 . S
C233 C232 1.392 . S
N234 Co178 2.257 . S
N234 C231 1.391 . S
N234 C235 1.388 . S
C235 H206 0.930 . S
C235 C230 1.391 . S
C235 N234 1.388 . S
Co236 O238 2.143 . S
Co236 O244 2.074 . S
Co236 O247 2.093 . S
Co236 O260 2.097 . S
Co236 N277 2.151 . S
Co236 N285 2.214 . S
Co237 O238 2.160 . S
Co237 O243 2.058 . S
Co237 O253 2.057 . S
Co237 O268 2.037 . S
Co237 N272 2.145 . S
Co237 N293 2.257 . S
O238 Co236 2.143 . S
O238 Co237 2.160 . S
C239 O240 1.278 . S
C239 O247 1.224 . S
O240 C239 1.278 . S
C241 O242 1.245 . S
C241 O253 1.232 . S
O242 C241 1.245 . S
O243 Co237 2.058 . S
O243 C269 1.269 . S
O244 Co236 2.074 . S
O244 C269 1.257 . S
H245 C270 0.930 . S
H246 C276 0.930 . S
O247 Co236 2.093 . S
O247 C239 1.224 . S
H248 C280 0.929 . S
H249 C282 0.930 . S
H250 C283 0.930 . S
H251 C281 0.929 . S
H252 C284 0.928 . S
O253 Co237 2.057 . S
O253 C241 1.232 . S
H254 C273 0.929 . S
H255 C274 0.929 . S
H256 C286 0.931 . S
H257 C278 0.929 . S
H258 C287 0.930 . S
H259 C279 0.931 . S
O260 Co236 2.097 . S
O260 C288 1.214 . S
H261 C289 0.929 . S
H262 C290 0.929 . S
H263 C291 0.930 . S
H264 C292 0.929 . S
H265 C294 0.930 . S
H266 C271 0.930 . S
H267 C275 0.930 . S
O268 Co237 2.037 . S
O268 C288 1.234 . S
C269 O243 1.269 . S
C269 O244 1.257 . S
C270 H245 0.930 . S
C270 C273 1.388 . S
C270 C275 1.418 . S
C271 H266 0.930 . S
C271 C274 1.404 . S
C271 C275 1.353 . S
N272 Co237 2.145 . S
N272 C273 1.397 . S
N272 C274 1.334 . S
C273 H254 0.929 . S
C273 C270 1.388 . S
C273 N272 1.397 . S
C274 H255 0.929 . S
C274 C271 1.404 . S
C274 N272 1.334 . S
C275 H267 0.930 . S
C275 C270 1.418 . S
C275 C271 1.353 . S
C276 H246 0.930 . S
C276 N277 1.330 . S
C276 C278 1.446 . S
N277 Co236 2.151 . S
N277 C276 1.330 . S
N277 C281 1.418 . S
C278 H257 0.929 . S
C278 C276 1.446 . S
C278 C279 1.332 . S
C279 H259 0.931 . S
C279 C278 1.332 . S
C279 C280 1.267 . S
C280 H248 0.929 . S
C280 C279 1.267 . S
C280 C281 1.251 . S
C281 H251 0.929 . S
C281 N277 1.418 . S
C281 C280 1.251 . S
C282 H249 0.930 . S
C282 C284 1.406 . S
C282 C287 1.261 . S
C283 H250 0.930 . S
C283 N285 1.325 . S
C283 C286 1.357 . S
C284 H252 0.928 . S
C284 C282 1.406 . S
C284 N285 1.261 . S
N285 Co236 2.214 . S
N285 C283 1.325 . S
N285 C284 1.261 . S
C286 H256 0.931 . S
C286 C283 1.357 . S
C286 C287 1.312 . S
C287 H258 0.930 . S
C287 C282 1.261 . S
C287 C286 1.312 . S
C288 O260 1.214 . S
C288 O268 1.234 . S
C289 H261 0.929 . S
C289 C292 1.391 . S
C289 C294 1.391 . S
C290 H262 0.929 . S
C290 C291 1.390 . S
C290 N293 1.391 . S
C291 H263 0.930 . S
C291 C290 1.390 . S
C291 C292 1.392 . S
C292 H264 0.929 . S
C292 C289 1.391 . S
C292 C291 1.392 . S
N293 Co237 2.257 . S
N293 C290 1.391 . S
N293 C294 1.388 . S
C294 H265 0.930 . S
C294 C289 1.391 . S
C294 N293 1.388 . S
Co295 O297 2.143 . S
Co295 O303 2.074 . S
Co295 O306 2.093 . S
Co295 O319 2.097 1_556 S
Co295 N336 2.151 . S
Co295 N344 2.214 1_556 S
Co296 O297 2.160 . S
Co296 O302 2.058 . S
Co296 O312 2.057 . S
Co296 O327 2.037 . S
Co296 N331 2.145 . S
Co296 N352 2.257 . S
O297 Co295 2.143 . S
O297 Co296 2.160 . S
C298 O299 1.278 . S
C298 O306 1.224 . S
O299 C298 1.278 . S
C300 O301 1.245 . S
C300 O312 1.232 . S
O301 C300 1.245 . S
O302 Co296 2.058 . S
O302 C328 1.269 . S
O303 Co295 2.074 . S
O303 C328 1.257 . S
H304 C329 0.930 . S
H305 C335 0.930 . S
O306 Co295 2.093 . S
O306 C298 1.224 . S
H307 C339 0.929 . S
H308 C341 0.930 . S
H309 C342 0.930 . S
H310 C340 0.929 . S
H311 C343 0.928 . S
O312 Co296 2.057 . S
O312 C300 1.232 . S
H313 C332 0.929 . S
H314 C333 0.929 . S
H315 C345 0.931 . S
H316 C337 0.929 . S
H317 C346 0.930 . S
H318 C338 0.931 . S
O319 Co295 2.097 1_554 S
O319 C347 1.214 . S
H320 C348 0.929 . S
H321 C349 0.929 . S
H322 C350 0.930 . S
H323 C351 0.929 . S
H324 C353 0.930 . S
H325 C330 0.930 . S
H326 C334 0.930 . S
O327 Co296 2.037 . S
O327 C347 1.234 1_556 S
C328 O302 1.269 . S
C328 O303 1.257 . S
C329 H304 0.930 . S
C329 C332 1.388 . S
C329 C334 1.418 . S
C330 H325 0.930 . S
C330 C333 1.404 . S
C330 C334 1.353 . S
N331 Co296 2.145 . S
N331 C332 1.397 . S
N331 C333 1.334 . S
C332 H313 0.929 . S
C332 C329 1.388 . S
C332 N331 1.397 . S
C333 H314 0.929 . S
C333 C330 1.404 . S
C333 N331 1.334 . S
C334 H326 0.930 . S
C334 C329 1.418 . S
C334 C330 1.353 . S
C335 H305 0.930 . S
C335 N336 1.330 . S
C335 C337 1.446 . S
N336 Co295 2.151 . S
N336 C335 1.330 . S
N336 C340 1.418 . S
C337 H316 0.929 . S
C337 C335 1.446 . S
C337 C338 1.332 . S
C338 H318 0.931 . S
C338 C337 1.332 . S
C338 C339 1.267 . S
C339 H307 0.929 . S
C339 C338 1.267 . S
C339 C340 1.251 . S
C340 H310 0.929 . S
C340 N336 1.418 . S
C340 C339 1.251 . S
C341 H308 0.930 . S
C341 C343 1.406 . S
C341 C346 1.261 . S
C342 H309 0.930 . S
C342 N344 1.325 . S
C342 C345 1.357 . S
C343 H311 0.928 . S
C343 C341 1.406 . S
C343 N344 1.261 . S
N344 Co295 2.214 1_554 S
N344 C342 1.325 . S
N344 C343 1.261 . S
C345 H315 0.931 . S
C345 C342 1.357 . S
C345 C346 1.312 . S
C346 H317 0.930 . S
C346 C341 1.261 . S
C346 C345 1.312 . S
C347 O319 1.214 . S
C347 O327 1.234 1_554 S
C348 H320 0.929 . S
C348 C351 1.391 . S
C348 C353 1.391 . S
C349 H321 0.929 . S
C349 C350 1.390 . S
C349 N352 1.391 . S
C350 H322 0.930 . S
C350 C349 1.390 . S
C350 C351 1.392 . S
C351 H323 0.929 . S
C351 C348 1.391 . S
C351 C350 1.392 . S
N352 Co296 2.257 . S
N352 C349 1.391 . S
N352 C353 1.388 . S
C353 H324 0.930 . S
C353 C348 1.391 . S
C353 N352 1.388 . S
Co354 O356 2.143 . S
Co354 O362 2.074 . S
Co354 O365 2.093 . S
Co354 O378 2.097 . S
Co354 N395 2.151 . S
Co354 N403 2.214 . S
Co355 O356 2.160 . S
Co355 O361 2.058 . S
Co355 O371 2.057 . S
Co355 O386 2.037 . S
Co355 N390 2.145 . S
Co355 N411 2.257 . S
O356 Co354 2.143 . S
O356 Co355 2.160 . S
C357 O358 1.278 . S
C357 O365 1.224 . S
O358 C357 1.278 . S
C359 O360 1.245 1_554 S
C359 O371 1.232 1_554 S
O360 C359 1.245 1_556 S
O361 Co355 2.058 . S
O361 C387 1.269 . S
O362 Co354 2.074 . S
O362 C387 1.257 . S
H363 C388 0.930 . S
H364 C394 0.930 . S
O365 Co354 2.093 . S
O365 C357 1.224 . S
H366 C398 0.929 . S
H367 C400 0.930 . S
H368 C401 0.930 . S
H369 C399 0.929 . S
H370 C402 0.928 . S
O371 Co355 2.057 . S
O371 C359 1.232 1_556 S
H372 C391 0.929 . S
H373 C392 0.929 . S
H374 C404 0.931 . S
H375 C396 0.929 . S
H376 C405 0.930 . S
H377 C397 0.931 . S
O378 Co354 2.097 . S
O378 C406 1.214 . S
H379 C407 0.929 . S
H380 C408 0.929 . S
H381 C409 0.930 . S
H382 C410 0.929 . S
H383 C412 0.930 . S
H384 C389 0.930 . S
H385 C393 0.930 . S
O386 Co355 2.037 . S
O386 C406 1.234 . S
C387 O361 1.269 . S
C387 O362 1.257 . S
C388 H363 0.930 . S
C388 C391 1.388 . S
C388 C393 1.418 . S
C389 H384 0.930 . S
C389 C392 1.404 . S
C389 C393 1.353 . S
N390 Co355 2.145 . S
N390 C391 1.397 . S
N390 C392 1.334 . S
C391 H372 0.929 . S
C391 C388 1.388 . S
C391 N390 1.397 . S
C392 H373 0.929 . S
C392 C389 1.404 . S
C392 N390 1.334 . S
C393 H385 0.930 . S
C393 C388 1.418 . S
C393 C389 1.353 . S
C394 H364 0.930 . S
C394 N395 1.330 . S
C394 C396 1.446 . S
N395 Co354 2.151 . S
N395 C394 1.330 . S
N395 C399 1.418 . S
C396 H375 0.929 . S
C396 C394 1.446 . S
C396 C397 1.332 . S
C397 H377 0.931 . S
C397 C396 1.332 . S
C397 C398 1.267 . S
C398 H366 0.929 . S
C398 C397 1.267 . S
C398 C399 1.251 . S
C399 H369 0.929 . S
C399 N395 1.418 . S
C399 C398 1.251 . S
C400 H367 0.930 . S
C400 C402 1.406 . S
C400 C405 1.261 . S
C401 H368 0.930 . S
C401 N403 1.325 . S
C401 C404 1.357 . S
C402 H370 0.928 . S
C402 C400 1.406 . S
C402 N403 1.261 . S
N403 Co354 2.214 . S
N403 C401 1.325 . S
N403 C402 1.261 . S
C404 H374 0.931 . S
C404 C401 1.357 . S
C404 C405 1.312 . S
C405 H376 0.930 . S
C405 C400 1.261 . S
C405 C404 1.312 . S
C406 O378 1.214 . S
C406 O386 1.234 . S
C407 H379 0.929 . S
C407 C410 1.391 . S
C407 C412 1.391 . S
C408 H380 0.929 . S
C408 C409 1.390 . S
C408 N411 1.391 . S
C409 H381 0.930 . S
C409 C408 1.390 . S
C409 C410 1.392 . S
C410 H382 0.929 . S
C410 C407 1.391 . S
C410 C409 1.392 . S
N411 Co355 2.257 . S
N411 C408 1.391 . S
N411 C412 1.388 . S
C412 H383 0.930 . S
C412 C407 1.391 . S
C412 N411 1.388 . S
Co413 O415 2.143 1_556 S
Co413 O421 2.074 . S
Co413 O424 2.093 . S
Co413 O437 2.097 . S
Co413 N454 2.151 1_556 S
Co413 N462 2.214 . S
Co414 O415 2.160 . S
Co414 O420 2.058 . S
Co414 O430 2.057 . S
Co414 O445 2.037 1_554 S
Co414 N449 2.145 . S
Co414 N470 2.257 . S
O415 Co413 2.143 1_554 S
O415 Co414 2.160 . S
C416 O417 1.278 1_556 S
C416 O424 1.224 . S
O417 C416 1.278 1_554 S
C418 O419 1.245 . S
C418 O430 1.232 . S
O419 C418 1.245 . S
O420 Co414 2.058 . S
O420 C446 1.269 . S
O421 Co413 2.074 . S
O421 C446 1.257 1_556 S
H422 C447 0.930 1_556 S
H423 C453 0.930 . S
O424 Co413 2.093 . S
O424 C416 1.224 . S
H425 C457 0.929 . S
H426 C459 0.930 . S
H427 C460 0.930 . S
H428 C458 0.929 . S
H429 C461 0.928 . S
O430 Co414 2.057 . S
O430 C418 1.232 . S
H431 C450 0.929 1_556 S
H432 C451 0.929 . S
H433 C463 0.931 . S
H434 C455 0.929 . S
H435 C464 0.930 . S
H436 C456 0.931 . S
O437 Co413 2.097 . S
O437 C465 1.214 . S
H438 C466 0.929 . S
H439 C467 0.929 . S
H440 C468 0.930 . S
H441 C469 0.929 . S
H442 C471 0.930 . S
H443 C448 0.930 . S
H444 C452 0.930 . S
O445 Co414 2.037 1_556 S
O445 C465 1.234 . S
C446 O420 1.269 . S
C446 O421 1.257 1_554 S
C447 H422 0.930 1_554 S
C447 C450 1.388 . S
C447 C452 1.418 . S
C448 H443 0.930 . S
C448 C451 1.404 . S
C448 C452 1.353 . S
N449 Co414 2.145 . S
N449 C450 1.397 . S
N449 C451 1.334 . S
C450 H431 0.929 1_554 S
C450 C447 1.388 . S
C450 N449 1.397 . S
C451 H432 0.929 . S
C451 C448 1.404 . S
C451 N449 1.334 . S
C452 H444 0.930 . S
C452 C447 1.418 . S
C452 C448 1.353 . S
C453 H423 0.930 . S
C453 N454 1.330 . S
C453 C455 1.446 . S
N454 Co413 2.151 1_554 S
N454 C453 1.330 . S
N454 C458 1.418 . S
C455 H434 0.929 . S
C455 C453 1.446 . S
C455 C456 1.332 . S
C456 H436 0.931 . S
C456 C455 1.332 . S
C456 C457 1.267 . S
C457 H425 0.929 . S
C457 C456 1.267 . S
C457 C458 1.251 . S
C458 H428 0.929 . S
C458 N454 1.418 . S
C458 C457 1.251 . S
C459 H426 0.930 . S
C459 C461 1.406 . S
C459 C464 1.261 . S
C460 H427 0.930 . S
C460 N462 1.325 . S
C460 C463 1.357 . S
C461 H429 0.928 . S
C461 C459 1.406 . S
C461 N462 1.261 . S
N462 Co413 2.214 . S
N462 C460 1.325 . S
N462 C461 1.261 . S
C463 H433 0.931 . S
C463 C460 1.357 . S
C463 C464 1.312 . S
C464 H435 0.930 . S
C464 C459 1.261 . S
C464 C463 1.312 . S
C465 O437 1.214 . S
C465 O445 1.234 . S
C466 H438 0.929 . S
C466 C469 1.391 . S
C466 C471 1.391 . S
C467 H439 0.929 . S
C467 C468 1.390 . S
C467 N470 1.391 1_556 S
C468 H440 0.930 . S
C468 C467 1.390 . S
C468 C469 1.392 1_556 S
C469 H441 0.929 . S
C469 C466 1.391 . S
C469 C468 1.392 1_554 S
N470 Co414 2.257 . S
N470 C467 1.391 1_554 S
N470 C471 1.388 . S
C471 H442 0.930 . S
C471 C466 1.391 . S
C471 N470 1.388 . S
Co472 O474 2.143 . S
Co472 O480 2.074 . S
Co472 O483 2.093 . S
Co472 O496 2.097 . S
Co472 N513 2.151 . S
Co472 N521 2.214 . S
Co473 O474 2.160 . S
Co473 O479 2.058 . S
Co473 O489 2.057 . S
Co473 O504 2.037 . S
Co473 N508 2.145 . S
Co473 N529 2.257 . S
O474 Co472 2.143 . S
O474 Co473 2.160 . S
C475 O476 1.278 . S
C475 O483 1.224 . S
O476 C475 1.278 . S
C477 O478 1.245 . S
C477 O489 1.232 . S
O478 C477 1.245 . S
O479 Co473 2.058 . S
O479 C505 1.269 . S
O480 Co472 2.074 . S
O480 C505 1.257 . S
H481 C506 0.930 . S
H482 C512 0.930 . S
O483 Co472 2.093 . S
O483 C475 1.224 . S
H484 C516 0.929 . S
H485 C518 0.930 . S
H486 C519 0.930 . S
H487 C517 0.929 . S
H488 C520 0.928 . S
O489 Co473 2.057 . S
O489 C477 1.232 . S
H490 C509 0.929 . S
H491 C510 0.929 . S
H492 C522 0.931 . S
H493 C514 0.929 . S
H494 C523 0.930 . S
H495 C515 0.931 . S
O496 Co472 2.097 . S
O496 C524 1.214 . S
H497 C525 0.929 . S
H498 C526 0.929 . S
H499 C527 0.930 . S
H500 C528 0.929 . S
H501 C530 0.930 . S
H502 C507 0.930 . S
H503 C511 0.930 . S
O504 Co473 2.037 . S
O504 C524 1.234 . S
C505 O479 1.269 . S
C505 O480 1.257 . S
C506 H481 0.930 . S
C506 C509 1.388 . S
C506 C511 1.418 . S
C507 H502 0.930 . S
C507 C510 1.404 . S
C507 C511 1.353 . S
N508 Co473 2.145 . S
N508 C509 1.397 . S
N508 C510 1.334 . S
C509 H490 0.929 . S
C509 C506 1.388 . S
C509 N508 1.397 . S
C510 H491 0.929 . S
C510 C507 1.404 . S
C510 N508 1.334 . S
C511 H503 0.930 . S
C511 C506 1.418 . S
C511 C507 1.353 . S
C512 H482 0.930 . S
C512 N513 1.330 . S
C512 C514 1.446 . S
N513 Co472 2.151 . S
N513 C512 1.330 . S
N513 C517 1.418 . S
C514 H493 0.929 . S
C514 C512 1.446 . S
C514 C515 1.332 . S
C515 H495 0.931 . S
C515 C514 1.332 . S
C515 C516 1.267 . S
C516 H484 0.929 . S
C516 C515 1.267 . S
C516 C517 1.251 . S
C517 H487 0.929 . S
C517 N513 1.418 . S
C517 C516 1.251 . S
C518 H485 0.930 . S
C518 C520 1.406 . S
C518 C523 1.261 1_554 S
C519 H486 0.930 . S
C519 N521 1.325 . S
C519 C522 1.357 1_554 S
C520 H488 0.928 . S
C520 C518 1.406 . S
C520 N521 1.261 . S
N521 Co472 2.214 . S
N521 C519 1.325 . S
N521 C520 1.261 . S
C522 H492 0.931 . S
C522 C519 1.357 1_556 S
C522 C523 1.312 . S
C523 H494 0.930 . S
C523 C518 1.261 1_556 S
C523 C522 1.312 . S
C524 O496 1.214 . S
C524 O504 1.234 . S
C525 H497 0.929 . S
C525 C528 1.391 . S
C525 C530 1.391 . S
C526 H498 0.929 . S
C526 C527 1.390 . S
C526 N529 1.391 . S
C527 H499 0.930 . S
C527 C526 1.390 . S
C527 C528 1.392 . S
C528 H500 0.929 . S
C528 C525 1.391 . S
C528 C527 1.392 . S
N529 Co473 2.257 . S
N529 C526 1.391 . S
N529 C530 1.388 . S
C530 H501 0.930 . S
C530 C525 1.391 . S
C530 N529 1.388 . S
Co531 O533 2.143 . S
Co531 O539 2.074 . S
Co531 O542 2.093 . S
Co531 O555 2.097 . S
Co531 N572 2.151 . S
Co531 N580 2.214 . S
Co532 O533 2.160 . S
Co532 O538 2.058 . S
Co532 O548 2.057 . S
Co532 O563 2.037 . S
Co532 N567 2.145 . S
Co532 N588 2.257 . S
O533 Co531 2.143 . S
O533 Co532 2.160 . S
C534 O535 1.278 . S
C534 O542 1.224 . S
O535 C534 1.278 . S
C536 O537 1.245 . S
C536 O548 1.232 . S
O537 C536 1.245 . S
O538 Co532 2.058 . S
O538 C564 1.269 . S
O539 Co531 2.074 . S
O539 C564 1.257 . S
H540 C565 0.930 . S
H541 C571 0.930 . S
O542 Co531 2.093 . S
O542 C534 1.224 . S
H543 C575 0.929 . S
H544 C577 0.930 . S
H545 C578 0.930 . S
H546 C576 0.929 . S
H547 C579 0.928 . S
O548 Co532 2.057 . S
O548 C536 1.232 . S
H549 C568 0.929 . S
H550 C569 0.929 . S
H551 C581 0.931 . S
H552 C573 0.929 . S
H553 C582 0.930 . S
H554 C574 0.931 . S
O555 Co531 2.097 . S
O555 C583 1.214 . S
H556 C584 0.929 . S
H557 C585 0.929 . S
H558 C586 0.930 . S
H559 C587 0.929 . S
H560 C589 0.930 . S
H561 C566 0.930 . S
H562 C570 0.930 . S
O563 Co532 2.037 . S
O563 C583 1.234 . S
C564 O538 1.269 . S
C564 O539 1.257 . S
C565 H540 0.930 . S
C565 C568 1.388 . S
C565 C570 1.418 . S
C566 H561 0.930 . S
C566 C569 1.404 . S
C566 C570 1.353 . S
N567 Co532 2.145 . S
N567 C568 1.397 . S
N567 C569 1.334 . S
C568 H549 0.929 . S
C568 C565 1.388 . S
C568 N567 1.397 . S
C569 H550 0.929 . S
C569 C566 1.404 . S
C569 N567 1.334 . S
C570 H562 0.930 . S
C570 C565 1.418 . S
C570 C566 1.353 . S
C571 H541 0.930 . S
C571 N572 1.330 . S
C571 C573 1.446 . S
N572 Co531 2.151 . S
N572 C571 1.330 . S
N572 C576 1.418 . S
C573 H552 0.929 . S
C573 C571 1.446 . S
C573 C574 1.332 . S
C574 H554 0.931 . S
C574 C573 1.332 . S
C574 C575 1.267 . S
C575 H543 0.929 . S
C575 C574 1.267 . S
C575 C576 1.251 . S
C576 H546 0.929 . S
C576 N572 1.418 . S
C576 C575 1.251 . S
C577 H544 0.930 . S
C577 C579 1.406 . S
C577 C582 1.261 . S
C578 H545 0.930 . S
C578 N580 1.325 . S
C578 C581 1.357 . S
C579 H547 0.928 . S
C579 C577 1.406 . S
C579 N580 1.261 . S
N580 Co531 2.214 . S
N580 C578 1.325 . S
N580 C579 1.261 . S
C581 H551 0.931 . S
C581 C578 1.357 . S
C581 C582 1.312 . S
C582 H553 0.930 . S
C582 C577 1.261 . S
C582 C581 1.312 . S
C583 O555 1.214 . S
C583 O563 1.234 . S
C584 H556 0.929 . S
C584 C587 1.391 . S
C584 C589 1.391 . S
C585 H557 0.929 . S
C585 C586 1.390 . S
C585 N588 1.391 . S
C586 H558 0.930 . S
C586 C585 1.390 . S
C586 C587 1.392 . S
C587 H559 0.929 . S
C587 C584 1.391 . S
C587 C586 1.392 . S
N588 Co532 2.257 . S
N588 C585 1.391 . S
N588 C589 1.388 . S
C589 H560 0.930 . S
C589 C584 1.391 . S
C589 N588 1.388 . S
Co590 O592 2.143 . S
Co590 O598 2.074 . S
Co590 O601 2.093 . S
Co590 O614 2.097 . S
Co590 N631 2.151 . S
Co590 N639 2.214 . S
Co591 O592 2.160 . S
Co591 O597 2.058 . S
Co591 O607 2.057 . S
Co591 O622 2.037 . S
Co591 N626 2.145 . S
Co591 N647 2.257 . S
O592 Co590 2.143 . S
O592 Co591 2.160 . S
C593 O594 1.278 . S
C593 O601 1.224 . S
O594 C593 1.278 . S
C595 O596 1.245 . S
C595 O607 1.232 . S
O596 C595 1.245 . S
O597 Co591 2.058 . S
O597 C623 1.269 . S
O598 Co590 2.074 . S
O598 C623 1.257 . S
H599 C624 0.930 . S
H600 C630 0.930 . S
O601 Co590 2.093 . S
O601 C593 1.224 . S
H602 C634 0.929 . S
H603 C636 0.930 . S
H604 C637 0.930 . S
H605 C635 0.929 . S
H606 C638 0.928 . S
O607 Co591 2.057 . S
O607 C595 1.232 . S
H608 C627 0.929 . S
H609 C628 0.929 . S
H610 C640 0.931 . S
H611 C632 0.929 . S
H612 C641 0.930 . S
H613 C633 0.931 . S
O614 Co590 2.097 . S
O614 C642 1.214 . S
H615 C643 0.929 . S
H616 C644 0.929 . S
H617 C645 0.930 . S
H618 C646 0.929 . S
H619 C648 0.930 . S
H620 C625 0.930 . S
H621 C629 0.930 . S
O622 Co591 2.037 . S
O622 C642 1.234 . S
C623 O597 1.269 . S
C623 O598 1.257 . S
C624 H599 0.930 . S
C624 C627 1.388 . S
C624 C629 1.418 . S
C625 H620 0.930 . S
C625 C628 1.404 . S
C625 C629 1.353 . S
N626 Co591 2.145 . S
N626 C627 1.397 . S
N626 C628 1.334 . S
C627 H608 0.929 . S
C627 C624 1.388 . S
C627 N626 1.397 . S
C628 H609 0.929 . S
C628 C625 1.404 . S
C628 N626 1.334 . S
C629 H621 0.930 . S
C629 C624 1.418 . S
C629 C625 1.353 . S
C630 H600 0.930 . S
C630 N631 1.330 . S
C630 C632 1.446 . S
N631 Co590 2.151 . S
N631 C630 1.330 . S
N631 C635 1.418 . S
C632 H611 0.929 . S
C632 C630 1.446 . S
C632 C633 1.332 . S
C633 H613 0.931 . S
C633 C632 1.332 . S
C633 C634 1.267 . S
C634 H602 0.929 . S
C634 C633 1.267 . S
C634 C635 1.251 . S
C635 H605 0.929 . S
C635 N631 1.418 . S
C635 C634 1.251 . S
C636 H603 0.930 . S
C636 C638 1.406 . S
C636 C641 1.261 . S
C637 H604 0.930 . S
C637 N639 1.325 . S
C637 C640 1.357 . S
C638 H606 0.928 . S
C638 C636 1.406 . S
C638 N639 1.261 . S
N639 Co590 2.214 . S
N639 C637 1.325 . S
N639 C638 1.261 . S
C640 H610 0.931 . S
C640 C637 1.357 . S
C640 C641 1.312 . S
C641 H612 0.930 . S
C641 C636 1.261 . S
C641 C640 1.312 . S
C642 O614 1.214 . S
C642 O622 1.234 . S
C643 H615 0.929 . S
C643 C646 1.391 . S
C643 C648 1.391 . S
C644 H616 0.929 . S
C644 C645 1.390 . S
C644 N647 1.391 . S
C645 H617 0.930 . S
C645 C644 1.390 . S
C645 C646 1.392 . S
C646 H618 0.929 . S
C646 C643 1.391 . S
C646 C645 1.392 . S
N647 Co591 2.257 . S
N647 C644 1.391 . S
N647 C648 1.388 . S
C648 H619 0.930 . S
C648 C643 1.391 . S
C648 N647 1.388 . S
Co649 O651 2.143 . S
Co649 O657 2.074 . S
Co649 O660 2.093 . S
Co649 O673 2.097 . S
Co649 N690 2.151 . S
Co649 N698 2.214 . S
Co650 O651 2.160 . S
Co650 O656 2.058 . S
Co650 O666 2.057 . S
Co650 O681 2.037 . S
Co650 N685 2.145 . S
Co650 N706 2.257 . S
O651 Co649 2.143 . S
O651 Co650 2.160 . S
C652 O653 1.278 . S
C652 O660 1.224 . S
O653 C652 1.278 . S
C654 O655 1.245 . S
C654 O666 1.232 . S
O655 C654 1.245 . S
O656 Co650 2.058 . S
O656 C682 1.269 . S
O657 Co649 2.074 . S
O657 C682 1.257 . S
H658 C683 0.930 . S
H659 C689 0.930 . S
O660 Co649 2.093 . S
O660 C652 1.224 . S
H661 C693 0.929 . S
H662 C695 0.930 . S
H663 C696 0.930 . S
H664 C694 0.929 . S
H665 C697 0.928 . S
O666 Co650 2.057 . S
O666 C654 1.232 . S
H667 C686 0.929 . S
H668 C687 0.929 . S
H669 C699 0.931 . S
H670 C691 0.929 . S
H671 C700 0.930 . S
H672 C692 0.931 . S
O673 Co649 2.097 . S
O673 C701 1.214 . S
H674 C702 0.929 . S
H675 C703 0.929 . S
H676 C704 0.930 . S
H677 C705 0.929 . S
H678 C707 0.930 . S
H679 C684 0.930 . S
H680 C688 0.930 . S
O681 Co650 2.037 . S
O681 C701 1.234 . S
C682 O656 1.269 . S
C682 O657 1.257 . S
C683 H658 0.930 . S
C683 C686 1.388 . S
C683 C688 1.418 . S
C684 H679 0.930 . S
C684 C687 1.404 . S
C684 C688 1.353 . S
N685 Co650 2.145 . S
N685 C686 1.397 . S
N685 C687 1.334 . S
C686 H667 0.929 . S
C686 C683 1.388 . S
C686 N685 1.397 . S
C687 H668 0.929 . S
C687 C684 1.404 . S
C687 N685 1.334 . S
C688 H680 0.930 . S
C688 C683 1.418 . S
C688 C684 1.353 . S
C689 H659 0.930 . S
C689 N690 1.330 . S
C689 C691 1.446 . S
N690 Co649 2.151 . S
N690 C689 1.330 . S
N690 C694 1.418 . S
C691 H670 0.929 . S
C691 C689 1.446 . S
C691 C692 1.332 . S
C692 H672 0.931 . S
C692 C691 1.332 . S
C692 C693 1.267 . S
C693 H661 0.929 . S
C693 C692 1.267 . S
C693 C694 1.251 . S
C694 H664 0.929 . S
C694 N690 1.418 . S
C694 C693 1.251 . S
C695 H662 0.930 . S
C695 C697 1.406 . S
C695 C700 1.261 . S
C696 H663 0.930 . S
C696 N698 1.325 . S
C696 C699 1.357 . S
C697 H665 0.928 . S
C697 C695 1.406 . S
C697 N698 1.261 . S
N698 Co649 2.214 . S
N698 C696 1.325 . S
N698 C697 1.261 . S
C699 H669 0.931 . S
C699 C696 1.357 . S
C699 C700 1.312 . S
C700 H671 0.930 . S
C700 C695 1.261 . S
C700 C699 1.312 . S
C701 O673 1.214 . S
C701 O681 1.234 . S
C702 H674 0.929 . S
C702 C705 1.391 . S
C702 C707 1.391 . S
C703 H675 0.929 . S
C703 C704 1.390 . S
C703 N706 1.391 . S
C704 H676 0.930 . S
C704 C703 1.390 . S
C704 C705 1.392 . S
C705 H677 0.929 . S
C705 C702 1.391 . S
C705 C704 1.392 . S
N706 Co650 2.257 . S
N706 C703 1.391 . S
N706 C707 1.388 . S
C707 H678 0.930 . S
C707 C702 1.391 . S
C707 N706 1.388 . S
C708 C709 1.387 . S
C708 H712 0.950 . S
C708 C717 1.390 . S
C709 C708 1.387 . S
C709 C711 1.387 . S
H710 C717 0.950 . S
C711 C709 1.387 . S
C711 C713 1.390 . S
C711 H715 0.950 . S
H712 C708 0.950 . S
C713 C711 1.390 . S
C713 C714 1.387 . S
C713 H716 0.950 . S
C714 C713 1.387 . S
C714 C717 1.387 . S
H715 C711 0.950 . S
H716 C713 0.950 . S
C717 C708 1.390 . S
C717 H710 0.950 . S
C717 C714 1.387 . S
C718 C719 1.387 . S
C718 H722 0.950 . S
C718 C727 1.390 . S
C719 C718 1.387 . S
C719 C721 1.387 . S
H720 C727 0.950 . S
C721 C719 1.387 . S
C721 C723 1.390 . S
C721 H725 0.950 . S
H722 C718 0.950 . S
C723 C721 1.390 . S
C723 C724 1.387 . S
C723 H726 0.950 . S
C724 C723 1.387 . S
C724 C727 1.387 . S
H725 C721 0.950 . S
H726 C723 0.950 . S
C727 C718 1.390 . S
C727 H720 0.950 . S
C727 C724 1.387 . S
C728 C729 1.387 . S
C728 H732 0.950 . S
C728 C737 1.390 . S
C729 C728 1.387 . S
C729 C731 1.387 . S
H730 C737 0.950 . S
C731 C729 1.387 . S
C731 C733 1.390 . S
C731 H735 0.950 . S
H732 C728 0.950 . S
C733 C731 1.390 . S
C733 C734 1.387 . S
C733 H736 0.950 . S
C734 C733 1.387 . S
C734 C737 1.387 . S
H735 C731 0.950 . S
H736 C733 0.950 . S
C737 C728 1.390 . S
C737 H730 0.950 . S
C737 C734 1.387 . S
C738 C739 1.387 . S
C738 H742 0.950 . S
C738 C747 1.390 . S
C739 C738 1.387 . S
C739 C741 1.387 . S
H740 C747 0.950 . S
C741 C739 1.387 . S
C741 C743 1.390 . S
C741 H745 0.950 . S
H742 C738 0.950 . S
C743 C741 1.390 . S
C743 C744 1.387 . S
C743 H746 0.950 . S
C744 C743 1.387 . S
C744 C747 1.387 . S
H745 C741 0.950 . S
H746 C743 0.950 . S
C747 C738 1.390 . S
C747 H740 0.950 . S
C747 C744 1.387 . S
C748 C749 1.387 1_556 S
C748 H752 0.950 1_556 S
C748 C757 1.390 . S
C749 C748 1.387 1_554 S
C749 C751 1.387 1_554 S
H750 C757 0.950 . S
C751 C749 1.387 1_556 S
C751 C753 1.390 . S
C751 H755 0.950 . S
H752 C748 0.950 1_554 S
C753 C751 1.390 . S
C753 C754 1.387 . S
C753 H756 0.950 . S
C754 C753 1.387 . S
C754 C757 1.387 . S
H755 C751 0.950 . S
H756 C753 0.950 . S
C757 C748 1.390 . S
C757 H750 0.950 . S
C757 C754 1.387 . S
C758 C759 1.387 . S
C758 H762 0.950 . S
C758 C767 1.390 . S
C759 C758 1.387 . S
C759 C761 1.387 . S
H760 C767 0.950 . S
C761 C759 1.387 . S
C761 C763 1.390 . S
C761 H765 0.950 . S
H762 C758 0.950 . S
C763 C761 1.390 . S
C763 C764 1.387 . S
C763 H766 0.950 . S
C764 C763 1.387 . S
C764 C767 1.387 . S
H765 C761 0.950 . S
H766 C763 0.950 . S
C767 C758 1.390 . S
C767 H760 0.950 . S
C767 C764 1.387 . S
C768 C769 1.387 . S
C768 H772 0.950 . S
C768 C777 1.390 . S
C769 C768 1.387 . S
C769 C771 1.387 . S
H770 C777 0.950 . S
C771 C769 1.387 . S
C771 C773 1.390 . S
C771 H775 0.950 . S
H772 C768 0.950 . S
C773 C771 1.390 . S
C773 C774 1.387 . S
C773 H776 0.950 . S
C774 C773 1.387 . S
C774 C777 1.387 . S
H775 C771 0.950 . S
H776 C773 0.950 . S
C777 C768 1.390 . S
C777 H770 0.950 . S
C777 C774 1.387 . S
C778 C779 1.387 . S
C778 H782 0.950 . S
C778 C787 1.390 . S
C779 C778 1.387 . S
C779 C781 1.387 . S
H780 C787 0.950 . S
C781 C779 1.387 . S
C781 C783 1.390 . S
C781 H785 0.950 . S
H782 C778 0.950 . S
C783 C781 1.390 . S
C783 C784 1.387 . S
C783 H786 0.950 . S
C784 C783 1.387 . S
C784 C787 1.387 . S
H785 C781 0.950 . S
H786 C783 0.950 . S
C787 C778 1.390 . S
C787 H780 0.950 . S
C787 C784 1.387 . S
C788 C789 1.387 . S
C788 H792 0.950 . S
C788 C797 1.390 . S
C789 C788 1.387 . S
C789 C791 1.387 . S
H790 C797 0.950 . S
C791 C789 1.387 . S
C791 C793 1.390 . S
C791 H795 0.950 . S
H792 C788 0.950 . S
C793 C791 1.390 . S
C793 C794 1.387 . S
C793 H796 0.950 . S
C794 C793 1.387 . S
C794 C797 1.387 . S
H795 C791 0.950 . S
H796 C793 0.950 . S
C797 C788 1.390 . S
C797 H790 0.950 . S
C797 C794 1.387 . S
C798 C799 1.387 . S
C798 H802 0.950 . S
C798 C807 1.390 . S
C799 C798 1.387 . S
C799 C801 1.387 . S
H800 C807 0.950 . S
C801 C799 1.387 . S
C801 C803 1.390 . S
C801 H805 0.950 . S
H802 C798 0.950 . S
C803 C801 1.390 . S
C803 C804 1.387 . S
C803 H806 0.950 . S
C804 C803 1.387 . S
C804 C807 1.387 . S
H805 C801 0.950 . S
H806 C803 0.950 . S
C807 C798 1.390 . S
C807 H800 0.950 . S
C807 C804 1.387 . S
C808 C809 1.387 . S
C808 H812 0.950 . S
C808 C817 1.390 . S
C809 C808 1.387 . S
C809 C811 1.387 . S
H810 C817 0.950 . S
C811 C809 1.387 . S
C811 C813 1.390 . S
C811 H815 0.950 . S
H812 C808 0.950 . S
C813 C811 1.390 . S
C813 C814 1.387 . S
C813 H816 0.950 . S
C814 C813 1.387 . S
C814 C817 1.387 . S
H815 C811 0.950 . S
H816 C813 0.950 . S
C817 C808 1.390 . S
C817 H810 0.950 . S
C817 C814 1.387 . S
C818 C819 1.387 . S
C818 H822 0.950 . S
C818 C827 1.390 . S
C819 C818 1.387 . S
C819 C821 1.387 . S
H820 C827 0.950 . S
C821 C819 1.387 . S
C821 C823 1.390 1_556 S
C821 H825 0.950 1_556 S
H822 C818 0.950 . S
C823 C821 1.390 1_554 S
C823 C824 1.387 1_554 S
C823 H826 0.950 . S
C824 C823 1.387 1_556 S
C824 C827 1.387 . S
H825 C821 0.950 1_554 S
H826 C823 0.950 . S
C827 C818 1.390 . S
C827 H820 0.950 . S
C827 C824 1.387 . S
C828 C829 1.387 . S
C828 H832 0.950 . S
C828 C837 1.390 . S
C829 C828 1.387 . S
C829 C831 1.387 . S
H830 C837 0.950 . S
C831 C829 1.387 . S
C831 C833 1.390 . S
C831 H835 0.950 . S
H832 C828 0.950 . S
C833 C831 1.390 . S
C833 C834 1.387 . S
C833 H836 0.950 . S
C834 C833 1.387 . S
C834 C837 1.387 . S
H835 C831 0.950 . S
H836 C833 0.950 . S
C837 C828 1.390 . S
C837 H830 0.950 . S
C837 C834 1.387 . S
C838 C839 1.387 . S
C838 H842 0.950 . S
C838 C847 1.390 . S
C839 C838 1.387 . S
C839 C841 1.387 . S
H840 C847 0.950 . S
C841 C839 1.387 . S
C841 C843 1.390 . S
C841 H845 0.950 . S
H842 C838 0.950 . S
C843 C841 1.390 . S
C843 C844 1.387 1_556 S
C843 H846 0.950 1_556 S
C844 C843 1.387 1_554 S
C844 C847 1.387 1_554 S
H845 C841 0.950 . S
H846 C843 0.950 1_554 S
C847 C838 1.390 . S
C847 H840 0.950 . S
C847 C844 1.387 1_556 S
C848 C849 1.387 . S
C848 H852 0.950 . S
C848 C857 1.390 . S
C849 C848 1.387 . S
C849 C851 1.387 . S
H850 C857 0.950 . S
C851 C849 1.387 . S
C851 C853 1.390 . S
C851 H855 0.950 . S
H852 C848 0.950 . S
C853 C851 1.390 . S
C853 C854 1.387 . S
C853 H856 0.950 . S
C854 C853 1.387 . S
C854 C857 1.387 . S
H855 C851 0.950 . S
H856 C853 0.950 . S
C857 C848 1.390 . S
C857 H850 0.950 . S
C857 C854 1.387 . S
C858 C859 1.387 . S
C858 H862 0.950 . S
C858 C867 1.390 . S
C859 C858 1.387 . S
C859 C861 1.387 . S
H860 C867 0.950 . S
C861 C859 1.387 . S
C861 C863 1.390 . S
C861 H865 0.950 . S
H862 C858 0.950 . S
C863 C861 1.390 . S
C863 C864 1.387 . S
C863 H866 0.950 . S
C864 C863 1.387 . S
C864 C867 1.387 . S
H865 C861 0.950 . S
H866 C863 0.950 . S
C867 C858 1.390 . S
C867 H860 0.950 . S
C867 C864 1.387 . S
C868 C869 1.387 . S
C868 H872 0.950 . S
C868 C877 1.390 . S
C869 C868 1.387 . S
C869 C871 1.387 . S
H870 C877 0.950 . S
C871 C869 1.387 . S
C871 C873 1.390 . S
C871 H875 0.950 . S
H872 C868 0.950 . S
C873 C871 1.390 . S
C873 C874 1.387 . S
C873 H876 0.950 . S
C874 C873 1.387 . S
C874 C877 1.387 . S
H875 C871 0.950 . S
H876 C873 0.950 . S
C877 C868 1.390 . S
C877 H870 0.950 . S
C877 C874 1.387 . S
C878 C879 1.387 . S
C878 H882 0.950 . S
C878 C887 1.390 . S
C879 C878 1.387 . S
C879 C881 1.387 . S
H880 C887 0.950 . S
C881 C879 1.387 . S
C881 C883 1.390 . S
C881 H885 0.950 . S
H882 C878 0.950 . S
C883 C881 1.390 . S
C883 C884 1.387 . S
C883 H886 0.950 . S
C884 C883 1.387 . S
C884 C887 1.387 . S
H885 C881 0.950 . S
H886 C883 0.950 . S
C887 C878 1.390 . S
C887 H880 0.950 . S
C887 C884 1.387 . S
C888 C889 1.387 . S
C888 H892 0.950 . S
C888 C897 1.390 1_545 S
C889 C888 1.387 . S
C889 C891 1.387 . S
H890 C897 0.950 . S
C891 C889 1.387 . S
C891 C893 1.390 1_545 S
C891 H895 0.950 . S
H892 C888 0.950 . S
C893 C891 1.390 1_565 S
C893 C894 1.387 . S
C893 H896 0.950 . S
C894 C893 1.387 . S
C894 C897 1.387 . S
H895 C891 0.950 . S
H896 C893 0.950 . S
C897 C888 1.390 1_565 S
C897 H890 0.950 . S
C897 C894 1.387 . S
C898 C899 1.387 . S
C898 H902 0.950 . S
C898 C907 1.390 . S
C899 C898 1.387 . S
C899 C901 1.387 . S
H900 C907 0.950 . S
C901 C899 1.387 . S
C901 C903 1.390 . S
C901 H905 0.950 . S
H902 C898 0.950 . S
C903 C901 1.390 . S
C903 C904 1.387 . S
C903 H906 0.950 . S
C904 C903 1.387 . S
C904 C907 1.387 . S
H905 C901 0.950 . S
H906 C903 0.950 . S
C907 C898 1.390 . S
C907 H900 0.950 . S
C907 C904 1.387 . S
C908 C909 1.387 . S
C908 H912 0.950 . S
C908 C917 1.390 1_455 S
C909 C908 1.387 . S
C909 C911 1.387 . S
H910 C917 0.950 . S
C911 C909 1.387 . S
C911 C913 1.390 1_455 S
C911 H915 0.950 . S
H912 C908 0.950 . S
C913 C911 1.390 1_655 S
C913 C914 1.387 . S
C913 H916 0.950 . S
C914 C913 1.387 . S
C914 C917 1.387 . S
H915 C911 0.950 . S
H916 C913 0.950 . S
C917 C908 1.390 1_655 S
C917 H910 0.950 . S
C917 C914 1.387 . S
C918 C919 1.387 . S
C918 H922 0.950 . S
C918 C927 1.390 1_565 S
C919 C918 1.387 . S
C919 C921 1.387 . S
H920 C927 0.950 . S
C921 C919 1.387 . S
C921 C923 1.390 1_565 S
C921 H925 0.950 . S
H922 C918 0.950 . S
C923 C921 1.390 1_545 S
C923 C924 1.387 . S
C923 H926 0.950 . S
C924 C923 1.387 . S
C924 C927 1.387 . S
H925 C921 0.950 . S
H926 C923 0.950 . S
C927 C918 1.390 1_545 S
C927 H920 0.950 . S
C927 C924 1.387 . S
C928 C929 1.387 . S
C928 H932 0.950 . S
C928 C937 1.390 . S
C929 C928 1.387 . S
C929 C931 1.387 . S
H930 C937 0.950 . S
C931 C929 1.387 . S
C931 C933 1.390 . S
C931 H935 0.950 . S
H932 C928 0.950 . S
C933 C931 1.390 . S
C933 C934 1.387 . S
C933 H936 0.950 . S
C934 C933 1.387 . S
C934 C937 1.387 . S
H935 C931 0.950 . S
H936 C933 0.950 . S
C937 C928 1.390 . S
C937 H930 0.950 . S
C937 C934 1.387 . S
C938 C939 1.387 . S
C938 H942 0.950 . S
C938 C947 1.390 1_455 S
C939 C938 1.387 . S
C939 C941 1.387 . S
H940 C947 0.950 . S
C941 C939 1.387 . S
C941 C943 1.390 1_455 S
C941 H945 0.950 . S
H942 C938 0.950 . S
C943 C941 1.390 1_655 S
C943 C944 1.387 . S
C943 H946 0.950 . S
C944 C943 1.387 . S
C944 C947 1.387 . S
H945 C941 0.950 . S
H946 C943 0.950 . S
C947 C938 1.390 1_655 S
C947 H940 0.950 . S
C947 C944 1.387 . S
C709 C52 1.449 . S
C714 C642 1.449 . S
C719 C111 1.449 . S
C724 C701 1.448 . S
C729 C406 1.448 . S
C734 C170 1.449 . S
C739 C229 1.449 . S
C744 C465 1.449 . S
C749 C524 1.449 . S
C754 C288 1.449 . S
C759 C583 1.448 . S
C764 C347 1.449 . S
C769 C475 1.443 . S
C774 C3 1.443 . S
C779 C62 1.440 . S
C784 C534 1.440 . S
C789 C593 1.442 . S
C794 C121 1.442 . S
C799 C180 1.442 . S
C804 C652 1.441 . S
C809 C239 1.443 . S
C814 C357 1.443 . S
C819 C298 1.442 . S
C824 C416 1.443 . S
C829 C595 1.430 . S
C834 C5 1.430 . S
C839 C654 1.430 . S
C844 C64 1.430 . S
C849 C359 1.431 . S
C854 C123 1.431 . S
C859 C182 1.431 . S
C864 C418 1.431 . S
C869 C241 1.431 . S
C874 C477 1.430 . S
C879 C536 1.431 . S
C884 C300 1.430 . S
C889 C33 1.446 . S
C894 C446 1.446 . S
C899 C505 1.446 . S
C904 C92 1.447 . S
C909 C564 1.447 . S
C914 C151 1.446 . S
C919 C210 1.448 . S
C924 C623 1.448 . S
C929 C269 1.447 . S
C934 C682 1.446 . S
C939 C328 1.446 . S
C944 C387 1.447 . S
