# Generated by pormake.
# Topology zfb, (5)-cn, num edge types: 1
# Building blocks:
#     Node 0, Type 0, BuildingBlock: XOMCOT_clean_sbu_1, # of connection points: 5
#     Node 1, Type 0, BuildingBlock: XOMCOT_clean_sbu_1, # of connection points: 5
#     Node 2, Type 0, BuildingBlock: XOMCOT_clean_sbu_1, # of connection points: 5
#     Node 3, Type 0, BuildingBlock: XOMCOT_clean_sbu_1, # of connection points: 5
#     Node 4, Type 0, BuildingBlock: XOMCOT_clean_sbu_1, # of connection points: 5
#     Node 5, Type 0, BuildingBlock: XOMCOT_clean_sbu_1, # of connection points: 5
#     Node 6, Type 0, BuildingBlock: XOMCOT_clean_sbu_1, # of connection points: 5
#     Node 7, Type 0, BuildingBlock: XOMCOT_clean_sbu_1, # of connection points: 5
#     Edge 8, Type (0, 0), None
#     Edge 9, Type (0, 0), None
#     Edge 10, Type (0, 0), None
#     Edge 11, Type (0, 0), None
#     Edge 12, Type (0, 0), None
#     Edge 13, Type (0, 0), None
#     Edge 14, Type (0, 0), None
#     Edge 15, Type (0, 0), None
#     Edge 16, Type (0, 0), None
#     Edge 17, Type (0, 0), None
#     Edge 18, Type (0, 0), None
#     Edge 19, Type (0, 0), None
#     Edge 20, Type (0, 0), None
#     Edge 21, Type (0, 0), None
#     Edge 22, Type (0, 0), None
#     Edge 23, Type (0, 0), None
#     Edge 24, Type (0, 0), None
#     Edge 25, Type (0, 0), None
#     Edge 26, Type (0, 0), None
#     Edge 27, Type (0, 0), None
# Relax obj value: 0.134
# Max RMSD: 0.173
# Mean RMSD: 0.173
data_MOF--net-zfb--node1-XOMCOT_clean_sbu_1--edge1-none
_symmetry_space_group_name_H-M    P1
_symmetry_Int_Tables_number       1
_symmetry_cell_setting            triclinic
loop_
_symmetry_equiv_pos_as_xyz
'x, y, z'
_cell_length_a     16.978427
_cell_length_b     16.978861
_cell_length_c     17.756208
_cell_angle_alpha  89.999228
_cell_angle_beta   90.000538
_cell_angle_gamma 90.000942
loop_
_atom_site_label
_atom_site_type_symbol
_atom_site_fract_x
_atom_site_fract_y
_atom_site_fract_z
_atom_type_partial_charge
C0 C 0.21218 0.4348 0.93383 0.0
C1 C 0.18812 0.41366 0.86232 0.0
N2 N 0.12347 0.36833 0.86919 0.0
N3 N 0.16215 0.40361 0.98491 0.0
C4 C 0.10892 0.36296 0.94366 0.0
H5 H 0.26369 0.46933 0.94776 0.0
Co6 Co 0.16763 0.40678 0.08994 0.0
C7 C 0.01838 0.47329 0.13891 0.0
O8 O 0.05791 0.51834 0.18563 0.0
N9 N 0.17065 0.40467 0.19767 0.0
C10 C 0.19259 0.41156 0.3218 0.0
C11 C 0.21643 0.43769 0.25165 0.0
C12 C 0.12053 0.35772 0.23702 0.0
N13 N 0.1324 0.3612 0.31185 0.0
O14 O 0.15582 0.29514 0.0914 0.0
H15 H 0.26501 0.47721 0.24222 0.0
H16 H 0.07554 0.32179 0.21096 0.0
O17 O 0.05369 0.42357 0.09631 0.0
C18 C 0.22309 0.26357 0.10062 0.0
O19 O 0.28482 0.30977 0.10758 0.0
N20 N 0.1862 0.5167 0.08479 0.0
C21 C 0.21797 0.67747 0.07655 0.0
C22 C 0.14869 0.64656 1.04571 0.0
C23 C 0.13517 0.56587 1.04818 0.0
C24 C 0.25793 0.54451 0.107 0.0
C25 C 0.27461 0.6253 0.10495 0.0
H26 H 0.08316 0.54307 1.02073 0.0
H27 H 0.30277 0.50385 0.12576 0.0
H28 H 0.06146 0.32886 0.96796 0.0
H29 H 0.21742 0.428 0.80997 0.0
H30 H 0.2185 0.42728 0.37539 0.0
H31 H 0.10519 0.68431 1.01943 0.0
H32 H 0.33051 0.6466 0.12615 0.0
C33 C 0.51706 0.21221 0.43382 0.0
C34 C 0.5382 0.18816 0.36232 0.0
N35 N 0.58352 0.12351 0.36919 0.0
N36 N 0.54825 0.16219 0.48491 0.0
C37 C 0.58889 0.10895 0.44366 0.0
H38 H 0.48254 0.26373 0.44776 0.0
Co39 Co 0.54507 0.16767 0.58994 0.0
C40 C 0.47855 0.01842 0.63891 0.0
O41 O 0.43351 0.05795 0.68564 0.0
N42 N 0.54719 0.17068 0.69767 0.0
C43 C 0.5403 0.19263 0.8218 0.0
C44 C 0.51417 0.21647 0.75166 0.0
C45 C 0.59413 0.12057 0.73702 0.0
N46 N 0.59066 0.13244 0.81185 0.0
O47 O 0.65672 0.15586 0.5914 0.0
H48 H 0.47465 0.26505 0.74222 0.0
H49 H 0.63007 0.07558 0.71097 0.0
O50 O 0.52828 0.05373 0.59631 0.0
C51 C 0.68828 0.22313 0.60062 0.0
O52 O 0.64209 0.28485 0.60757 0.0
N53 N 0.43516 0.18624 0.58479 0.0
C54 C 0.27439 0.21802 0.57654 0.0
C55 C 0.30529 0.14874 0.54571 0.0
C56 C 0.38598 0.13521 0.54818 0.0
C57 C 0.40735 0.25797 0.607 0.0
C58 C 0.32657 0.27466 0.60495 0.0
H59 H 0.40878 0.0832 0.52074 0.0
H60 H 0.44802 0.30281 0.62575 0.0
H61 H 0.62299 0.06149 0.46797 0.0
H62 H 0.52387 0.21745 0.30996 0.0
H63 H 0.52458 0.21854 0.87539 0.0
H64 H 0.26754 0.10524 0.51943 0.0
H65 H 0.30527 0.33056 0.62614 0.0
C66 C 0.73962 0.5171 0.93382 0.0
C67 C 0.76367 0.53824 0.86232 0.0
N68 N 0.82833 0.58356 0.86919 0.0
N69 N 0.78965 0.54829 0.98491 0.0
C70 C 0.84288 0.58893 0.94366 0.0
H71 H 0.6881 0.48257 0.94776 0.0
Co72 Co 0.78417 0.54511 0.08994 0.0
C73 C 0.93342 0.47859 0.13891 0.0
O74 O 0.89389 0.43355 0.18563 0.0
N75 N 0.78115 0.54722 0.19767 0.0
C76 C 0.7592 0.54034 0.3218 0.0
C77 C 0.73537 0.51421 0.25165 0.0
C78 C 0.83127 0.59416 0.23702 0.0
N79 N 0.8194 0.59069 0.31185 0.0
O80 O 0.79597 0.65675 0.0914 0.0
H81 H 0.68678 0.47468 0.24221 0.0
H82 H 0.87626 0.6301 0.21096 0.0
O83 O 0.89811 0.52832 0.09631 0.0
C84 C 0.7287 0.68832 0.10062 0.0
O85 O 0.66698 0.64213 0.10757 0.0
N86 N 0.7656 0.4352 0.08479 0.0
C87 C 0.73383 0.27442 0.07655 0.0
C88 C 0.80311 0.30533 1.04571 0.0
C89 C 0.81663 0.38603 1.04818 0.0
C90 C 0.69387 0.40738 0.107 0.0
C91 C 0.67719 0.32659 0.10495 0.0
H92 H 0.86863 0.40883 1.02073 0.0
H93 H 0.64903 0.44804 0.12576 0.0
H94 H 0.89034 0.62303 0.96796 0.0
H95 H 0.73438 0.5239 0.80997 0.0
H96 H 0.7333 0.52461 0.37539 0.0
H97 H 0.84661 0.26759 1.01942 0.0
H98 H 0.62129 0.30529 0.12615 0.0
C99 C 0.43474 0.73968 0.43383 0.0
C100 C 0.4136 0.76373 0.36232 0.0
N101 N 0.36827 0.82838 0.36919 0.0
N102 N 0.40355 0.78971 0.48491 0.0
C103 C 0.36291 0.84294 0.44366 0.0
H104 H 0.46926 0.68816 0.44776 0.0
Co105 Co 0.40673 0.78422 0.58995 0.0
C106 C 0.47325 0.93347 0.63891 0.0
O107 O 0.51829 0.89393 0.68564 0.0
N108 N 0.40461 0.78121 0.69767 0.0
C109 C 0.4115 0.75926 0.8218 0.0
C110 C 0.43763 0.73543 0.75166 0.0
C111 C 0.35767 0.83132 0.73702 0.0
N112 N 0.36114 0.81945 0.81185 0.0
O113 O 0.29508 0.79603 0.59141 0.0
H114 H 0.47715 0.68685 0.74222 0.0
H115 H 0.32173 0.87631 0.71096 0.0
O116 O 0.42352 0.89816 0.59631 0.0
C117 C 0.26351 0.72876 0.60062 0.0
O118 O 0.30971 0.66704 0.60757 0.0
N119 N 0.51664 0.76565 0.58479 0.0
C120 C 0.67741 0.73387 0.57655 0.0
C121 C 0.64651 0.80315 0.54571 0.0
C122 C 0.56581 0.81668 0.54818 0.0
C123 C 0.54445 0.69392 0.60701 0.0
C124 C 0.62523 0.67723 0.60495 0.0
H125 H 0.54302 0.86869 0.52074 0.0
H126 H 0.50378 0.64909 0.62576 0.0
H127 H 0.32881 0.8904 0.46797 0.0
H128 H 0.42793 0.73444 0.30997 0.0
H129 H 0.42722 0.73336 0.8754 0.0
H130 H 0.68426 0.84665 0.51943 0.0
H131 H 0.64653 0.62133 0.62615 0.0
C132 C 0.71215 0.01707 0.24614 0.0
C133 C 0.68809 0.03823 0.31764 0.0
N134 N 0.6235 0.08364 0.31074 0.0
N135 N 0.66215 0.04829 0.19504 0.0
C136 C 0.60895 0.08898 0.23627 0.0
H137 H 0.76363 -0.01752 0.23222 0.0
Co138 Co 0.66763 0.04511 0.09001 0.0
C139 C 0.51838 -0.0214 1.04104 0.0
O140 O 0.55791 0.93355 0.99432 0.0
N141 N 0.67065 0.04722 0.98228 0.0
C142 C 0.69259 0.04032 0.85815 0.0
C143 C 0.71642 0.01419 0.92829 0.0
C144 C 0.62054 0.09417 0.94293 0.0
N145 N 0.63242 0.0907 0.8681 0.0
O146 O 0.65583 0.15675 0.08854 0.0
H147 H 0.76499 0.97465 0.93773 0.0
H148 H 0.57555 0.13011 0.96898 0.0
O149 O 0.55369 0.02832 0.08364 0.0
C150 C 0.7231 0.18832 0.07932 0.0
O151 O 0.78483 0.14213 0.07237 0.0
N152 N 0.6862 0.93519 0.09516 0.0
C153 C 0.71797 0.77442 0.1034 0.0
C154 C 0.64869 0.80533 0.13423 0.0
C155 C 0.63517 0.88602 0.13177 0.0
C156 C 0.75793 0.90739 0.07295 0.0
C157 C 0.77461 0.8266 0.075 0.0
H158 H 0.58316 0.90882 0.15921 0.0
H159 H 0.80277 0.94805 1.0542 0.0
H160 H 0.56149 0.12308 0.21196 0.0
H161 H 0.71733 0.02384 0.37 0.0
H162 H 0.71849 0.02459 0.80455 0.0
H163 H 0.60519 0.76758 0.16051 0.0
H164 H 0.83051 0.8053 1.0538 0.0
C165 C 0.93476 0.71219 0.74613 0.0
C166 C 0.9136 0.68813 0.81763 0.0
N167 N 0.86819 0.62354 0.81074 0.0
N168 N 0.90354 0.66219 0.69504 0.0
C169 C 0.86285 0.60898 0.73627 0.0
H170 H 0.96934 0.76367 0.73221 0.0
Co171 Co 0.90673 0.66767 0.59 0.0
C172 C 0.97324 0.51842 0.54104 0.0
O173 O 0.0183 0.55795 0.49432 0.0
N174 N 0.90462 0.67069 0.48227 0.0
C175 C 0.91151 0.69263 0.35814 0.0
C176 C 0.93765 0.71646 0.42829 0.0
C177 C 0.85767 0.62058 0.44293 0.0
N178 N 0.86114 0.63245 0.36809 0.0
O179 O 0.79508 0.65586 0.58853 0.0
H180 H -0.02282 0.76503 0.43772 0.0
H181 H 0.82173 0.57559 0.46898 0.0
O182 O 0.92352 0.55373 0.58364 0.0
C183 C 0.76351 0.72313 0.57932 0.0
O184 O 0.80971 0.78486 0.57237 0.0
N185 N 0.01664 0.68624 0.59516 0.0
C186 C 0.17741 0.71803 0.6034 0.0
C187 C 0.14651 0.64874 0.63424 0.0
C188 C 0.06581 0.63522 0.63177 0.0
C189 C 0.04444 0.75798 0.57294 0.0
C190 C 0.12523 0.77466 0.57499 0.0
H191 H 0.04302 0.58321 0.65921 0.0
H192 H 0.00378 0.80281 0.55419 0.0
H193 H 0.82875 0.56152 0.71196 0.0
H194 H 0.92799 0.71738 0.87 0.0
H195 H 0.92725 0.71852 0.30455 0.0
H196 H 0.18426 0.60525 0.66052 0.0
H197 H 0.14653 0.83056 0.5538 0.0
C198 C 0.23965 0.93482 0.24613 0.0
C199 C 0.2637 0.91366 0.31764 0.0
N200 N 0.32829 0.86825 0.31074 0.0
N201 N 0.28964 0.9036 0.19504 0.0
C202 C 0.34285 0.86291 0.23627 0.0
H203 H 0.18817 0.96941 0.23221 0.0
Co204 Co 0.28416 0.90678 0.09 0.0
C205 C 0.43342 0.9733 1.04104 0.0
O206 O 0.39389 0.01835 0.99431 0.0
N207 N 0.28115 0.90468 0.98228 0.0
C208 C 0.25921 0.91157 0.85814 0.0
C209 C 0.23538 0.9377 0.92829 0.0
C210 C 0.33126 0.85773 0.94293 0.0
N211 N 0.31938 0.8612 0.8681 0.0
O212 O 0.29597 0.79514 0.08854 0.0
H213 H 0.1868 -0.02276 0.93772 0.0
H214 H 0.37625 0.82179 0.96898 0.0
O215 O 0.3981 0.92357 0.08364 0.0
C216 C 0.2287 0.76357 0.07932 0.0
O217 O 0.16697 0.80976 0.07237 0.0
N218 N 0.2656 0.0167 0.09516 0.0
C219 C 0.23382 0.17747 0.1034 0.0
C220 C 0.30311 0.14656 0.13423 0.0
C221 C 0.31663 0.06587 0.13177 0.0
C222 C 0.19386 0.04451 0.07294 0.0
C223 C 0.17718 0.1253 0.07499 0.0
H224 H 0.36863 0.04307 0.15921 0.0
H225 H 0.14903 0.00385 1.05419 0.0
H226 H 0.39031 0.82881 0.21196 0.0
H227 H 0.23446 0.92805 0.37 0.0
H228 H 0.23331 0.9273 0.80455 0.0
H229 H 0.34661 0.18431 0.16052 0.0
H230 H 0.12128 0.14659 1.0538 0.0
C231 C 0.01704 0.2397 0.74613 0.0
C232 C 0.0382 0.26376 0.81763 0.0
N233 N 0.08361 0.32835 0.81074 0.0
N234 N 0.04827 0.2897 0.69504 0.0
C235 C 0.08895 0.34291 0.73627 0.0
H236 H -0.01754 0.18822 0.73221 0.0
Co237 Co 0.04507 0.28422 0.59 0.0
C238 C -0.02145 0.43346 0.54104 0.0
O239 O 0.9335 0.39393 0.49432 0.0
N240 N 0.04718 0.28121 0.48228 0.0
C241 C 0.04029 0.25926 0.35814 0.0
C242 C 0.01415 0.23543 0.42829 0.0
C243 C 0.09413 0.33131 0.44293 0.0
N244 N 0.09066 0.31944 0.36809 0.0
O245 O 0.15672 0.29603 0.58853 0.0
H246 H 0.97462 0.18686 0.43773 0.0
H247 H 0.13007 0.37631 0.46898 0.0
O248 O 0.02828 0.39816 0.58364 0.0
C249 C 0.18828 0.22876 0.57932 0.0
O250 O 0.14208 0.16703 0.57237 0.0
N251 N 0.93516 0.26565 0.59516 0.0
C252 C 0.77439 0.23386 0.6034 0.0
C253 C 0.80529 0.30314 0.63424 0.0
C254 C 0.88599 0.31667 0.63177 0.0
C255 C 0.90735 0.19391 0.57295 0.0
C256 C 0.82656 0.17723 0.57499 0.0
H257 H 0.90878 0.36868 0.65922 0.0
H258 H 0.94802 0.14908 0.55419 0.0
H259 H 0.12304 0.39037 0.71196 0.0
H260 H 0.02381 0.23451 0.87 0.0
H261 H 0.02455 0.23337 0.30455 0.0
H262 H 0.76754 0.34664 0.66052 0.0
H263 H 0.80527 0.12133 0.5538 0.0
loop_
_geom_bond_atom_site_label_1
_geom_bond_atom_site_label_2
_geom_bond_distance
_geom_bond_site_symmetry_2
_ccdc_geom_bond_type
C0 C1 1.351 . S
C0 N3 1.368 . S
C0 H5 0.931 . S
C1 C0 1.351 . S
C1 N2 1.373 . S
C1 H29 0.930 . S
N2 C1 1.373 . S
N2 C4 1.340 . S
N3 C0 1.368 . S
N3 C4 1.321 . S
N3 Co6 2.135 1_556 S
C4 N2 1.340 . S
C4 N3 1.321 . S
C4 H28 0.930 . S
H5 C0 0.931 . S
Co6 N3 2.135 1_554 S
Co6 N9 2.121 . S
Co6 O14 2.055 . S
Co6 O17 2.039 . S
Co6 N20 2.140 . S
C7 O8 1.227 1_654 S
C7 O17 1.265 1_655 S
O8 C7 1.227 1_456 S
N9 Co6 2.121 . S
N9 C11 1.375 . S
N9 C12 1.313 . S
C10 C11 1.338 . S
C10 N13 1.377 . S
C10 H30 0.930 . S
C11 N9 1.375 . S
C11 C10 1.338 . S
C11 H15 0.931 . S
C12 N9 1.313 . S
C12 N13 1.344 . S
C12 H16 0.930 . S
N13 C10 1.377 . S
N13 C12 1.344 . S
O14 Co6 2.055 . S
O14 C18 1.253 . S
H15 C11 0.931 . S
H16 C12 0.930 . S
O17 Co6 2.039 . S
O17 C7 1.265 1_455 S
C18 O14 1.253 . S
C18 O19 1.227 . S
O19 C18 1.227 . S
N20 Co6 2.140 . S
N20 C23 1.346 1_554 S
N20 C24 1.345 . S
C21 C22 1.387 1_554 S
C21 C25 1.391 . S
C22 C21 1.387 1_556 S
C22 C23 1.369 . S
C22 H31 0.929 . S
C23 N20 1.346 1_556 S
C23 C22 1.369 . S
C23 H26 0.928 . S
C24 N20 1.345 . S
C24 C25 1.371 . S
C24 H27 0.931 . S
C25 C21 1.391 . S
C25 C24 1.371 . S
C25 H32 0.930 . S
H26 C23 0.928 . S
H27 C24 0.931 . S
H28 C4 0.930 . S
H29 C1 0.930 . S
H30 C10 0.930 . S
H31 C22 0.929 . S
H32 C25 0.930 . S
C33 C34 1.351 . S
C33 N36 1.368 . S
C33 H38 0.931 . S
C34 C33 1.351 . S
C34 N35 1.373 . S
C34 H62 0.930 . S
N35 C34 1.373 . S
N35 C37 1.340 . S
N36 C33 1.368 . S
N36 C37 1.321 . S
N36 Co39 2.135 . S
C37 N35 1.340 . S
C37 N36 1.321 . S
C37 H61 0.930 . S
H38 C33 0.931 . S
Co39 N36 2.135 . S
Co39 N42 2.121 . S
Co39 O47 2.055 . S
Co39 O50 2.039 . S
Co39 N53 2.140 . S
C40 O41 1.227 1_565 S
C40 O50 1.265 1_565 S
O41 C40 1.227 1_545 S
N42 Co39 2.121 . S
N42 C44 1.375 . S
N42 C45 1.313 . S
C43 C44 1.338 . S
C43 N46 1.377 . S
C43 H63 0.930 . S
C44 N42 1.375 . S
C44 C43 1.338 . S
C44 H48 0.931 . S
C45 N42 1.313 . S
C45 N46 1.344 . S
C45 H49 0.930 . S
N46 C43 1.377 . S
N46 C45 1.344 . S
O47 Co39 2.055 . S
O47 C51 1.253 . S
H48 C44 0.931 . S
H49 C45 0.930 . S
O50 Co39 2.039 . S
O50 C40 1.265 1_545 S
C51 O47 1.253 . S
C51 O52 1.227 . S
O52 C51 1.227 . S
N53 Co39 2.140 . S
N53 C56 1.346 . S
N53 C57 1.345 . S
C54 C55 1.387 . S
C54 C58 1.391 . S
C55 C54 1.387 . S
C55 C56 1.369 . S
C55 H64 0.929 . S
C56 N53 1.346 . S
C56 C55 1.369 . S
C56 H59 0.928 . S
C57 N53 1.345 . S
C57 C58 1.371 . S
C57 H60 0.931 . S
C58 C54 1.391 . S
C58 C57 1.371 . S
C58 H65 0.930 . S
H59 C56 0.928 . S
H60 C57 0.931 . S
H61 C37 0.930 . S
H62 C34 0.930 . S
H63 C43 0.930 . S
H64 C55 0.929 . S
H65 C58 0.930 . S
C66 C67 1.351 . S
C66 N69 1.368 . S
C66 H71 0.931 . S
C67 C66 1.351 . S
C67 N68 1.373 . S
C67 H95 0.930 . S
N68 C67 1.373 . S
N68 C70 1.340 . S
N69 C66 1.368 . S
N69 C70 1.321 . S
N69 Co72 2.135 1_556 S
C70 N68 1.340 . S
C70 N69 1.321 . S
C70 H94 0.930 . S
H71 C66 0.931 . S
Co72 N69 2.135 1_554 S
Co72 N75 2.121 . S
Co72 O80 2.055 . S
Co72 O83 2.039 . S
Co72 N86 2.140 . S
C73 O74 1.227 1_454 S
C73 O83 1.265 1_455 S
O74 C73 1.227 1_656 S
N75 Co72 2.121 . S
N75 C77 1.375 . S
N75 C78 1.313 . S
C76 C77 1.338 . S
C76 N79 1.377 . S
C76 H96 0.930 . S
C77 N75 1.375 . S
C77 C76 1.338 . S
C77 H81 0.931 . S
C78 N75 1.313 . S
C78 N79 1.344 . S
C78 H82 0.930 . S
N79 C76 1.377 . S
N79 C78 1.344 . S
O80 Co72 2.055 . S
O80 C84 1.253 . S
H81 C77 0.931 . S
H82 C78 0.930 . S
O83 Co72 2.039 . S
O83 C73 1.265 1_655 S
C84 O80 1.253 . S
C84 O85 1.227 . S
O85 C84 1.227 . S
N86 Co72 2.140 . S
N86 C89 1.346 1_554 S
N86 C90 1.345 . S
C87 C88 1.387 1_554 S
C87 C91 1.391 . S
C88 C87 1.387 1_556 S
C88 C89 1.369 . S
C88 H97 0.929 . S
C89 N86 1.346 1_556 S
C89 C88 1.369 . S
C89 H92 0.928 . S
C90 N86 1.345 . S
C90 C91 1.371 . S
C90 H93 0.931 . S
C91 C87 1.391 . S
C91 C90 1.371 . S
C91 H98 0.930 . S
H92 C89 0.928 . S
H93 C90 0.931 . S
H94 C70 0.930 . S
H95 C67 0.930 . S
H96 C76 0.930 . S
H97 C88 0.929 . S
H98 C91 0.930 . S
C99 C100 1.351 . S
C99 N102 1.368 . S
C99 H104 0.931 . S
C100 C99 1.351 . S
C100 N101 1.373 . S
C100 H128 0.930 . S
N101 C100 1.373 . S
N101 C103 1.340 . S
N102 C99 1.368 . S
N102 C103 1.321 . S
N102 Co105 2.135 . S
C103 N101 1.340 . S
C103 N102 1.321 . S
C103 H127 0.930 . S
H104 C99 0.931 . S
Co105 N102 2.135 . S
Co105 N108 2.121 . S
Co105 O113 2.055 . S
Co105 O116 2.039 . S
Co105 N119 2.140 . S
C106 O107 1.227 1_545 S
C106 O116 1.265 1_545 S
O107 C106 1.227 1_565 S
N108 Co105 2.121 . S
N108 C110 1.375 . S
N108 C111 1.313 . S
C109 C110 1.338 . S
C109 N112 1.377 . S
C109 H129 0.930 . S
C110 N108 1.375 . S
C110 C109 1.338 . S
C110 H114 0.931 . S
C111 N108 1.313 . S
C111 N112 1.344 . S
C111 H115 0.930 . S
N112 C109 1.377 . S
N112 C111 1.344 . S
O113 Co105 2.055 . S
O113 C117 1.253 . S
H114 C110 0.931 . S
H115 C111 0.930 . S
O116 Co105 2.039 . S
O116 C106 1.265 1_565 S
C117 O113 1.253 . S
C117 O118 1.227 . S
O118 C117 1.227 . S
N119 Co105 2.140 . S
N119 C122 1.346 . S
N119 C123 1.345 . S
C120 C121 1.387 . S
C120 C124 1.391 . S
C121 C120 1.387 . S
C121 C122 1.369 . S
C121 H130 0.929 . S
C122 N119 1.346 . S
C122 C121 1.369 . S
C122 H125 0.928 . S
C123 N119 1.345 . S
C123 C124 1.371 . S
C123 H126 0.931 . S
C124 C120 1.391 . S
C124 C123 1.371 . S
C124 H131 0.930 . S
H125 C122 0.928 . S
H126 C123 0.931 . S
H127 C103 0.930 . S
H128 C100 0.930 . S
H129 C109 0.930 . S
H130 C121 0.929 . S
H131 C124 0.930 . S
C132 C133 1.351 . S
C132 N135 1.368 . S
C132 H137 0.931 . S
C133 C132 1.351 . S
C133 N134 1.373 . S
C133 H161 0.930 . S
N134 C133 1.373 . S
N134 C136 1.340 . S
N135 C132 1.368 . S
N135 C136 1.321 . S
N135 Co138 2.135 . S
C136 N134 1.340 . S
C136 N135 1.321 . S
C136 H160 0.930 . S
H137 C132 0.931 . S
Co138 N135 2.135 . S
Co138 N141 2.121 1_554 S
Co138 O146 2.055 . S
Co138 O149 2.039 . S
Co138 N152 2.140 1_545 S
C139 O140 1.227 1_545 S
C139 O149 1.265 . S
O140 C139 1.227 1_565 S
N141 Co138 2.121 1_556 S
N141 C143 1.375 . S
N141 C144 1.313 . S
C142 C143 1.338 . S
C142 N145 1.377 . S
C142 H162 0.930 1_545 S
C143 N141 1.375 . S
C143 C142 1.338 . S
C143 H147 0.931 1_545 S
C144 N141 1.313 . S
C144 N145 1.344 . S
C144 H148 0.930 . S
N145 C142 1.377 . S
N145 C144 1.344 . S
O146 Co138 2.055 . S
O146 C150 1.253 . S
H147 C143 0.931 1_565 S
H148 C144 0.930 . S
O149 Co138 2.039 . S
O149 C139 1.265 . S
C150 O146 1.253 . S
C150 O151 1.227 . S
O151 C150 1.227 . S
N152 Co138 2.140 1_565 S
N152 C155 1.346 . S
N152 C156 1.345 1_554 S
C153 C154 1.387 . S
C153 C157 1.391 1_554 S
C154 C153 1.387 . S
C154 C155 1.369 . S
C154 H163 0.929 . S
C155 N152 1.346 . S
C155 C154 1.369 . S
C155 H158 0.928 . S
C156 N152 1.345 1_556 S
C156 C157 1.371 . S
C156 H159 0.931 1_565 S
C157 C153 1.391 1_556 S
C157 C156 1.371 . S
C157 H164 0.930 . S
H158 C155 0.928 . S
H159 C156 0.931 1_545 S
H160 C136 0.930 . S
H161 C133 0.930 . S
H162 C142 0.930 1_565 S
H163 C154 0.929 . S
H164 C157 0.930 . S
C165 C166 1.351 . S
C165 N168 1.368 . S
C165 H170 0.931 . S
C166 C165 1.351 . S
C166 N167 1.373 . S
C166 H194 0.930 . S
N167 C166 1.373 . S
N167 C169 1.340 . S
N168 C165 1.368 . S
N168 C169 1.321 . S
N168 Co171 2.135 . S
C169 N167 1.340 . S
C169 N168 1.321 . S
C169 H193 0.930 . S
H170 C165 0.931 . S
Co171 N168 2.135 . S
Co171 N174 2.121 . S
Co171 O179 2.055 . S
Co171 O182 2.039 . S
Co171 N185 2.140 1_655 S
C172 O173 1.227 1_655 S
C172 O182 1.265 . S
O173 C172 1.227 1_455 S
N174 Co171 2.121 . S
N174 C176 1.375 . S
N174 C177 1.313 . S
C175 C176 1.338 . S
C175 N178 1.377 . S
C175 H195 0.930 1_655 S
C176 N174 1.375 . S
C176 C175 1.338 . S
C176 H180 0.931 1_655 S
C177 N174 1.313 . S
C177 N178 1.344 . S
C177 H181 0.930 . S
N178 C175 1.377 . S
N178 C177 1.344 . S
O179 Co171 2.055 . S
O179 C183 1.253 . S
H180 C176 0.931 1_455 S
H181 C177 0.930 . S
O182 Co171 2.039 . S
O182 C172 1.265 . S
C183 O179 1.253 . S
C183 O184 1.227 . S
O184 C183 1.227 . S
N185 Co171 2.140 1_455 S
N185 C188 1.346 . S
N185 C189 1.345 . S
C186 C187 1.387 . S
C186 C190 1.391 . S
C187 C186 1.387 . S
C187 C188 1.369 . S
C187 H196 0.929 . S
C188 N185 1.346 . S
C188 C187 1.369 . S
C188 H191 0.928 . S
C189 N185 1.345 . S
C189 C190 1.371 . S
C189 H192 0.931 1_455 S
C190 C186 1.391 . S
C190 C189 1.371 . S
C190 H197 0.930 . S
H191 C188 0.928 . S
H192 C189 0.931 1_655 S
H193 C169 0.930 . S
H194 C166 0.930 . S
H195 C175 0.930 1_455 S
H196 C187 0.929 . S
H197 C190 0.930 . S
C198 C199 1.351 . S
C198 N201 1.368 . S
C198 H203 0.931 . S
C199 C198 1.351 . S
C199 N200 1.373 . S
C199 H227 0.930 . S
N200 C199 1.373 . S
N200 C202 1.340 . S
N201 C198 1.368 . S
N201 C202 1.321 . S
N201 Co204 2.135 . S
C202 N200 1.340 . S
C202 N201 1.321 . S
C202 H226 0.930 . S
H203 C198 0.931 . S
Co204 N201 2.135 . S
Co204 N207 2.121 1_554 S
Co204 O212 2.055 . S
Co204 O215 2.039 . S
Co204 N218 2.140 1_565 S
C205 O206 1.227 1_565 S
C205 O215 1.265 . S
O206 C205 1.227 1_545 S
N207 Co204 2.121 1_556 S
N207 C209 1.375 . S
N207 C210 1.313 . S
C208 C209 1.338 . S
C208 N211 1.377 . S
C208 H228 0.930 1_565 S
C209 N207 1.375 . S
C209 C208 1.338 . S
C209 H213 0.931 1_565 S
C210 N207 1.313 . S
C210 N211 1.344 . S
C210 H214 0.930 . S
N211 C208 1.377 . S
N211 C210 1.344 . S
O212 Co204 2.055 . S
O212 C216 1.253 . S
H213 C209 0.931 1_545 S
H214 C210 0.930 . S
O215 Co204 2.039 . S
O215 C205 1.265 . S
C216 O212 1.253 . S
C216 O217 1.227 . S
O217 C216 1.227 . S
N218 Co204 2.140 1_545 S
N218 C221 1.346 . S
N218 C222 1.345 1_554 S
C219 C220 1.387 . S
C219 C223 1.391 1_554 S
C220 C219 1.387 . S
C220 C221 1.369 . S
C220 H229 0.929 . S
C221 N218 1.346 . S
C221 C220 1.369 . S
C221 H224 0.928 . S
C222 N218 1.345 1_556 S
C222 C223 1.371 . S
C222 H225 0.931 1_545 S
C223 C219 1.391 1_556 S
C223 C222 1.371 . S
C223 H230 0.930 . S
H224 C221 0.928 . S
H225 C222 0.931 1_565 S
H226 C202 0.930 . S
H227 C199 0.930 . S
H228 C208 0.930 1_545 S
H229 C220 0.929 . S
H230 C223 0.930 . S
C231 C232 1.351 . S
C231 N234 1.368 . S
C231 H236 0.931 . S
C232 C231 1.351 . S
C232 N233 1.373 . S
C232 H260 0.930 . S
N233 C232 1.373 . S
N233 C235 1.340 . S
N234 C231 1.368 . S
N234 C235 1.321 . S
N234 Co237 2.135 . S
C235 N233 1.340 . S
C235 N234 1.321 . S
C235 H259 0.930 . S
H236 C231 0.931 . S
Co237 N234 2.135 . S
Co237 N240 2.121 . S
Co237 O245 2.055 . S
Co237 O248 2.039 . S
Co237 N251 2.140 1_455 S
C238 O239 1.227 1_455 S
C238 O248 1.265 . S
O239 C238 1.227 1_655 S
N240 Co237 2.121 . S
N240 C242 1.375 . S
N240 C243 1.313 . S
C241 C242 1.338 . S
C241 N244 1.377 . S
C241 H261 0.930 1_455 S
C242 N240 1.375 . S
C242 C241 1.338 . S
C242 H246 0.931 1_455 S
C243 N240 1.313 . S
C243 N244 1.344 . S
C243 H247 0.930 . S
N244 C241 1.377 . S
N244 C243 1.344 . S
O245 Co237 2.055 . S
O245 C249 1.253 . S
H246 C242 0.931 1_655 S
H247 C243 0.930 . S
O248 Co237 2.039 . S
O248 C238 1.265 . S
C249 O245 1.253 . S
C249 O250 1.227 . S
O250 C249 1.227 . S
N251 Co237 2.140 1_655 S
N251 C254 1.346 . S
N251 C255 1.345 . S
C252 C253 1.387 . S
C252 C256 1.391 . S
C253 C252 1.387 . S
C253 C254 1.369 . S
C253 H262 0.929 . S
C254 N251 1.346 . S
C254 C253 1.369 . S
C254 H257 0.928 . S
C255 N251 1.345 . S
C255 C256 1.371 . S
C255 H258 0.931 1_655 S
C256 C252 1.391 . S
C256 C255 1.371 . S
C256 H263 0.930 . S
H257 C254 0.928 . S
H258 C255 0.931 1_455 S
H259 C235 0.930 . S
H260 C232 0.930 . S
H261 C241 0.930 1_655 S
H262 C253 0.929 . S
H263 C256 0.930 . S
C219 C18 1.955 . S
C252 C51 1.955 . S
C153 C84 1.955 . S
C186 C117 1.955 . S
C87 C150 1.955 . S
C120 C183 1.955 . S
C21 C216 1.955 . S
C249 C54 1.955 . S
C7 C73 1.092 1_655 S
C106 C40 1.091 1_545 S
C205 C139 1.092 1_565 S
C172 C238 1.091 1_655 S
N13 N244 1.718 . S
N145 N46 1.718 . S
N178 N79 1.718 . S
N211 N112 1.718 . S
N68 N167 1.449 . S
N101 N200 1.449 . S
N233 N2 1.449 . S
N134 N35 1.449 . S
