# Generated by pormake.
# Topology cab, (5)-cn, num edge types: 1
# Building blocks:
#     Node 0, Type 0, BuildingBlock: BEQFEK_clean_sbu_0, # of connection points: 5
#     Node 1, Type 0, BuildingBlock: BEQFEK_clean_sbu_0, # of connection points: 5
#     Node 2, Type 0, BuildingBlock: BEQFEK_clean_sbu_0, # of connection points: 5
#     Node 3, Type 0, BuildingBlock: BEQFEK_clean_sbu_0, # of connection points: 5
#     Node 4, Type 0, BuildingBlock: BEQFEK_clean_sbu_0, # of connection points: 5
#     Node 5, Type 0, BuildingBlock: BEQFEK_clean_sbu_0, # of connection points: 5
#     Edge 6, Type (0, 0), BuildingBlock: FUNLAD_clean_linker_1, # of connection points: 2
#     Edge 7, Type (0, 0), BuildingBlock: FUNLAD_clean_linker_1, # of connection points: 2
#     Edge 8, Type (0, 0), BuildingBlock: FUNLAD_clean_linker_1, # of connection points: 2
#     Edge 9, Type (0, 0), BuildingBlock: FUNLAD_clean_linker_1, # of connection points: 2
#     Edge 10, Type (0, 0), BuildingBlock: FUNLAD_clean_linker_1, # of connection points: 2
#     Edge 11, Type (0, 0), BuildingBlock: FUNLAD_clean_linker_1, # of connection points: 2
#     Edge 12, Type (0, 0), BuildingBlock: FUNLAD_clean_linker_1, # of connection points: 2
#     Edge 13, Type (0, 0), BuildingBlock: FUNLAD_clean_linker_1, # of connection points: 2
#     Edge 14, Type (0, 0), BuildingBlock: FUNLAD_clean_linker_1, # of connection points: 2
#     Edge 15, Type (0, 0), BuildingBlock: FUNLAD_clean_linker_1, # of connection points: 2
#     Edge 16, Type (0, 0), BuildingBlock: FUNLAD_clean_linker_1, # of connection points: 2
#     Edge 17, Type (0, 0), BuildingBlock: FUNLAD_clean_linker_1, # of connection points: 2
#     Edge 18, Type (0, 0), BuildingBlock: FUNLAD_clean_linker_1, # of connection points: 2
#     Edge 19, Type (0, 0), BuildingBlock: FUNLAD_clean_linker_1, # of connection points: 2
#     Edge 20, Type (0, 0), BuildingBlock: FUNLAD_clean_linker_1, # of connection points: 2
# Relax obj value: 1.243
# Max RMSD: 0.228
# Mean RMSD: 0.211
data_MOF--net-cab--node1-BEQFEK_clean_sbu_0--edge1-FUNLAD_clean_linker_1
_symmetry_space_group_name_H-M    P1
_symmetry_Int_Tables_number       1
_symmetry_cell_setting            triclinic
loop_
_symmetry_equiv_pos_as_xyz
'x, y, z'
_cell_length_a     32.337448
_cell_length_b     31.560181
_cell_length_c     33.200901
_cell_angle_alpha  112.46519
_cell_angle_beta   96.83986
_cell_angle_gamma 130.11951
loop_
_atom_site_label
_atom_site_type_symbol
_atom_site_fract_x
_atom_site_fract_y
_atom_site_fract_z
_atom_type_partial_charge
Co0 Co 0.40325 0.54491 0.67625 0.0
Co1 Co 0.27097 0.48379 0.63289 0.0
C2 C 0.29421 0.41391 0.57028 0.0
O3 O 0.35051 0.45992 0.60641 0.0
O4 O 0.25787 0.41748 0.57433 0.0
C5 C 0.50027 0.58682 0.66042 0.0
O6 O 0.46465 0.57486 0.6234 0.0
C7 C 0.16413 0.43383 0.56081 0.0
C8 C 0.10392 0.41068 0.59435 0.0
C9 C 0.10562 0.40438 0.55104 0.0
N10 N 0.19562 0.45594 0.60737 0.0
N11 N 0.15983 0.44292 0.62769 0.0
C12 C 0.18746 0.43492 0.52445 0.0
H13 H 0.16336 0.38201 0.49583 0.0
H14 H 0.23926 0.47204 0.54488 0.0
H15 H 0.17608 0.44987 0.50394 0.0
C16 C 0.44373 0.66829 0.69052 0.0
N17 N 0.39995 0.60384 0.67818 0.0
N18 N 0.34441 0.57817 0.6608 0.0
C19 C 0.35138 0.62584 0.66242 0.0
C20 C 0.41411 0.6838 0.68002 0.0
C21 C 0.51261 0.71436 0.71199 0.0
H22 H 0.52758 0.70501 0.73601 0.0
H23 H 0.52155 0.70277 0.68046 0.0
H24 H 0.54114 0.76991 0.73491 0.0
O25 O 0.36984 0.50976 0.71513 0.0
O26 O 0.27513 0.46397 0.68157 0.0
H27 H 0.26336 0.58466 0.6533 0.0
H28 H 0.31494 0.66339 0.65868 0.0
C29 C 0.29795 0.61369 0.64284 0.0
H30 H 0.27409 0.58292 0.6008 0.0
H31 H 0.17219 0.45273 0.6631 0.0
O32 O 0.48713 0.58504 0.69472 0.0
C33 C 0.31555 0.47463 0.71032 0.0
Co34 Co 0.12252 0.01302 0.73924 0.0
Co35 Co 0.99375 0.95976 0.71372 0.0
C36 C 0.11437 0.09226 0.8143 0.0
O37 O 0.14501 0.08233 0.80362 0.0
O38 O 0.05667 0.04969 0.78275 0.0
C39 C 0.22362 0.0527 0.79895 0.0
O40 O 0.19129 0.03975 0.82206 0.0
C41 C 0.8979 0.92039 0.73991 0.0
C42 C 0.8288 0.89133 0.67814 0.0
C43 C 0.84344 0.90195 0.72438 0.0
N44 N 0.91434 0.92079 0.70458 0.0
N45 N 0.87229 0.90226 0.6673 0.0
C46 C 0.93764 0.94387 0.78948 0.0
H47 H 0.98038 0.95937 0.79206 0.0
H48 H 0.91049 0.90044 0.79236 0.0
H49 H 0.95124 0.98783 0.82177 0.0
C50 C 0.04357 0.87222 0.712 0.0
N51 N 0.05065 0.92094 0.71598 0.0
N52 N 0.99718 0.89919 0.70639 0.0
C53 C 0.9548 0.8362 0.69646 0.0
C54 C 0.9834 0.81798 0.70122 0.0
C55 C 0.09501 0.87968 0.72276 0.0
H56 H 0.12751 0.91038 0.71176 0.0
H57 H 0.12175 0.90619 0.76395 0.0
H58 H 0.07495 0.82793 0.70138 0.0
O59 O 0.10833 0.03131 0.69177 0.0
O60 O 0.01412 0.98733 0.66857 0.0
H61 H 0.86852 0.79876 0.65662 0.0
H62 H 0.85824 0.73749 0.66098 0.0
C63 C 0.88762 0.79313 0.68152 0.0
H64 H 0.88504 0.81074 0.71605 0.0
H65 H 0.87524 0.90089 0.63597 0.0
O66 O 0.20045 0.03973 0.75671 0.0
C67 C 0.06495 0.02028 0.66741 0.0
Co68 Co 0.63777 0.40432 0.22757 0.0
Co69 Co 0.66967 0.44793 0.33793 0.0
C70 C 0.5372 0.33402 0.2549 0.0
O71 O 0.55506 0.33901 0.22323 0.0
O72 O 0.57672 0.37468 0.30222 0.0
C73 C 0.57035 0.3727 0.13949 0.0
O74 O 0.54745 0.38383 0.16642 0.0
C75 C 0.67227 0.48843 0.43439 0.0
C76 C 0.77033 0.55647 0.49012 0.0
C77 C 0.71379 0.52901 0.48566 0.0
N78 N 0.70225 0.49028 0.40915 0.0
N79 N 0.76071 0.53042 0.44262 0.0
C80 C 0.60722 0.45433 0.41052 0.0
H81 H 0.59952 0.46076 0.38093 0.0
H82 H 0.59959 0.47666 0.43915 0.0
H83 H 0.57203 0.39791 0.39216 0.0
C84 C 0.70487 0.54826 0.27857 0.0
N85 N 0.68873 0.49785 0.28037 0.0
N86 N 0.69981 0.51544 0.32636 0.0
C87 C 0.72095 0.57646 0.35455 0.0
C88 C 0.72344 0.59846 0.32477 0.0
C89 C 0.69512 0.54451 0.2316 0.0
H90 H 0.69994 0.5146 0.20654 0.0
H91 H 0.64737 0.51899 0.21077 0.0
H92 H 0.73015 0.59752 0.24175 0.0
O93 O 0.67848 0.37997 0.23737 0.0
O94 O 0.69021 0.39878 0.31151 0.0
H95 H 0.7654 0.61491 0.43153 0.0
H96 H 0.7567 0.66322 0.42496 0.0
C97 C 0.73382 0.61044 0.40768 0.0
H98 H 0.68885 0.57803 0.40724 0.0
H99 H 0.79466 0.54186 0.43324 0.0
O100 O 0.6144 0.38251 0.15938 0.0
C101 C 0.69314 0.37634 0.27218 0.0
Co102 Co 0.4279 0.79385 0.35878 0.0
Co103 Co 0.3723 0.6991 0.24079 0.0
C104 C 0.29299 0.64872 0.28573 0.0
O105 O 0.33851 0.70575 0.33007 0.0
O106 O 0.29954 0.63758 0.2472 0.0
C107 C 0.43873 0.83611 0.45616 0.0
O108 O 0.38063 0.80228 0.43099 0.0
C109 C 0.2997 0.58354 0.13277 0.0
C110 C 0.37276 0.62624 0.11185 0.0
C111 C 0.31073 0.56641 0.09387 0.0
N112 N 0.35317 0.65031 0.17254 0.0
N113 N 0.39611 0.67608 0.15924 0.0
C114 C 0.24193 0.53508 0.13442 0.0
H115 H 0.22799 0.55924 0.14893 0.0
H116 H 0.25291 0.52608 0.16098 0.0
H117 H 0.20182 0.48432 0.09637 0.0
C118 C 0.51648 0.78863 0.36137 0.0
N119 N 0.46943 0.77547 0.33569 0.0
N120 N 0.44412 0.73261 0.28657 0.0
C121 C 0.47289 0.71536 0.27949 0.0
C122 C 0.52082 0.75168 0.32674 0.0
C123 C 0.55316 0.83124 0.41809 0.0
H124 H 0.56904 0.88056 0.43586 0.0
H125 H 0.52209 0.80212 0.43067 0.0
H126 H 0.59492 0.8432 0.43116 0.0
O127 O 0.42287 0.84199 0.33759 0.0
O128 O 0.38433 0.77416 0.2546 0.0
H129 H 0.4704 0.67296 0.20998 0.0
H130 H 0.45365 0.62754 0.23695 0.0
C131 C 0.44632 0.65455 0.23015 0.0
H132 H 0.39492 0.6165 0.20578 0.0
H133 H 0.44251 0.72657 0.18361 0.0
O134 O 0.46959 0.84449 0.43368 0.0
C135 C 0.40207 0.82529 0.29303 0.0
Co136 Co 0.71976 0.08636 0.11184 0.0
Co137 Co 0.63535 0.93704 0.08331 0.0
C138 C 0.73379 0.06322 0.19014 0.0
O139 O 0.7485 0.10103 0.17626 0.0
O140 O 0.68997 0.99761 0.15816 0.0
C141 C 0.84172 0.19909 0.14944 0.0
O142 O 0.83684 0.15415 0.14872 0.0
C143 C 0.62154 0.83595 0.07951 0.0
C144 C 0.52472 0.73389 0.01584 0.0
C145 C 0.58023 0.76524 0.05183 0.0
N146 N 0.59246 0.84658 0.06102 0.0
N147 N 0.53413 0.78535 0.02333 0.0
C148 C 0.69034 0.89301 0.11898 0.0
H149 H 0.69585 0.91008 0.15719 0.0
H150 H 0.71693 0.93813 0.11805 0.0
H151 H 0.7109 0.87512 0.11286 0.0
C152 C 0.73381 0.02971 0.02704 0.0
N153 N 0.71208 0.02419 0.05914 0.0
N154 N 0.68137 0.96416 0.04999 0.0
C155 C 0.68462 0.93067 0.01288 0.0
C156 C 0.71776 0.97091 0.99713 0.0
C157 C 0.77061 0.09105 0.0262 0.0
H158 H 0.75978 0.11847 0.04138 0.0
H159 H 0.82185 0.12717 0.04959 0.0
H160 H 0.75945 0.07533 0.98723 0.0
O161 O 0.63622 0.04784 0.09063 0.0
O162 O 0.57675 0.94119 0.0691 0.0
H163 H 0.6026 0.82273 0.97761 0.0
H164 H 0.6577 0.84016 0.95725 0.0
C165 C 0.65338 0.85944 0.99033 0.0
H166 H 0.6755 0.86063 0.01955 0.0
H167 H 0.50166 0.77869 0.00149 0.0
O168 O 0.79194 0.18187 0.13249 0.0
C169 C 0.58314 0.98784 0.07458 0.0
Co170 Co 0.01326 0.83457 0.20493 0.0
Co171 Co 0.00153 0.77308 0.09878 0.0
C172 C 0.0928 0.9258 0.17631 0.0
O173 O 0.07446 0.91704 0.20691 0.0
O174 O 0.06847 0.87461 0.13296 0.0
C175 C 0.06536 0.92419 0.30729 0.0
O176 O 0.11286 0.93734 0.30652 0.0
C177 C 0.97661 0.75064 0.00221 0.0
C178 C 0.96677 0.66905 0.95683 0.0
C179 C 0.96666 0.71243 0.95556 0.0
N180 N 0.98252 0.73131 0.03004 0.0
N181 N 0.97632 0.68219 0.00267 0.0
C182 C 0.98183 0.80609 0.02069 0.0
H183 H 0.02983 0.85513 0.03338 0.0
H184 H 0.97385 0.81511 0.05307 0.0
H185 H 0.94695 0.7912 0.98952 0.0
C186 C 0.87753 0.73751 0.13985 0.0
N187 N 0.93319 0.76471 0.1458 0.0
N188 N 0.92717 0.73815 0.10087 0.0
C189 C 0.86671 0.69241 0.06466 0.0
C190 C 0.83359 0.69167 0.08811 0.0
C191 C 0.86692 0.75422 0.18322 0.0
H192 H 0.89162 0.75693 0.21207 0.0
H193 H 0.88701 0.80586 0.20156 0.0
H194 H 0.81591 0.71441 0.17019 0.0
O195 O 0.04836 0.80234 0.20981 0.0
O196 O 0.04214 0.76053 0.13503 0.0
H197 H 0.86151 0.63502 0.9986 0.0
H198 H 0.78958 0.608 0.98629 0.0
C199 C 0.84189 0.65339 0.00865 0.0
H200 H 0.85639 0.68843 0.99817 0.0
H201 H 0.97958 0.65846 0.01552 0.0
O202 O 0.01169 0.87319 0.26658 0.0
C203 C 0.05896 0.77608 0.17958 0.0
H204 H 0.50678 0.86649 0.51986 0.0
C205 C 0.46196 0.84722 0.5042 0.0
H206 H 0.37796 0.79858 0.50546 0.0
H207 H 0.37531 0.62819 0.5608 0.0
H208 H 0.29531 0.53995 0.47111 0.0
H209 H 0.27945 0.5714 0.41838 0.0
H210 H 0.34237 0.69094 0.45528 0.0
C211 C 0.42428 0.82135 0.52263 0.0
C212 C 0.43594 0.80424 0.55517 0.0
C213 C 0.39883 0.73391 0.53279 0.0
C214 C 0.40902 0.71605 0.56289 0.0
C215 C 0.37044 0.64513 0.53968 0.0
C216 C 0.32414 0.59375 0.48816 0.0
C217 C 0.31505 0.6114 0.45852 0.0
C218 C 0.35164 0.68043 0.48031 0.0
H219 H 0.41667 0.75486 0.67879 0.0
C220 C 0.43683 0.73734 0.67304 0.0
H221 H 0.48021 0.72503 0.63544 0.0
H222 H 0.51389 0.94324 0.60989 0.0
H223 H 0.59544 0.03217 0.69969 0.0
H224 H 0.61457 0.00135 0.75153 0.0
H225 H 0.55207 0.88128 0.71397 0.0
C226 C 0.46538 0.74812 0.646 0.0
C227 C 0.45663 0.76859 0.61527 0.0
C228 C 0.49387 0.83885 0.63763 0.0
C229 C 0.48339 0.85673 0.60754 0.0
C230 C 0.52056 0.92711 0.63092 0.0
C231 C 0.56733 0.97852 0.68239 0.0
C232 C 0.57806 0.96115 0.71161 0.0
C233 C 0.54187 0.89216 0.68968 0.0
H234 H 0.75062 0.06418 0.25719 0.0
C235 C 0.76925 0.09631 0.24428 0.0
H236 H 0.84366 0.1966 0.26414 0.0
H237 H 0.96217 0.38136 0.49836 0.0
H238 H 0.91998 0.41354 0.47105 0.0
H239 H 0.85061 0.34776 0.37983 0.0
H240 H 0.82296 0.24957 0.31544 0.0
C241 C 0.82517 0.16439 0.27699 0.0
C242 C 0.86262 0.19963 0.33183 0.0
C243 C 0.87742 0.25624 0.369 0.0
C244 C 0.91729 0.29418 0.42156 0.0
C245 C 0.93218 0.35107 0.45791 0.0
C246 C 0.90819 0.36994 0.44277 0.0
C247 C 0.86912 0.33288 0.39141 0.0
C248 C 0.85368 0.27663 0.35482 0.0
H249 H 0.06325 0.36488 0.47135 0.0
C250 C 0.05326 0.36452 0.50143 0.0
H251 H 0.9808 0.32015 0.51886 0.0
H252 H 0.85008 0.09876 0.27087 0.0
H253 H 0.88963 0.06526 0.29905 0.0
H254 H 0.95178 0.12566 0.39057 0.0
H255 H 0.97556 0.22102 0.4544 0.0
C256 C 0.99327 0.32275 0.49025 0.0
C257 C 0.9425 0.27573 0.43677 0.0
C258 C 0.92546 0.21726 0.39996 0.0
C259 C 0.88693 0.18024 0.34729 0.0
C260 C 0.87588 0.1263 0.31139 0.0
C261 C 0.89901 0.10696 0.32707 0.0
C262 C 0.9342 0.14112 0.37857 0.0
C263 C 0.94767 0.19587 0.41477 0.0
H264 H 0.30181 0.34937 0.52598 0.0
C265 C 0.26899 0.35053 0.52677 0.0
H266 H 0.17318 0.29108 0.4959 0.0
H267 H 0.19335 0.09645 0.34488 0.0
H268 H 0.24882 0.17863 0.32597 0.0
H269 H 0.27267 0.28116 0.36751 0.0
H270 H 0.24172 0.30234 0.42872 0.0
C271 C 0.20672 0.29148 0.49393 0.0
C272 C 0.18271 0.22394 0.46203 0.0
C273 C 0.20002 0.21158 0.4256 0.0
C274 C 0.18524 0.15186 0.40108 0.0
C275 C 0.20354 0.14109 0.36504 0.0
C276 C 0.23521 0.18773 0.35356 0.0
C277 C 0.24868 0.24546 0.37697 0.0
C278 C 0.23121 0.25737 0.41242 0.0
H279 H 0.03883 0.97095 0.34279 0.0
C280 C 0.07755 0.97858 0.34825 0.0
H281 H 0.17599 0.05036 0.39005 0.0
H282 H 0.13718 0.22854 0.52651 0.0
H283 H 0.07918 0.14467 0.54366 0.0
H284 H 0.05499 0.04196 0.50197 0.0
H285 H 0.08838 0.02235 0.44245 0.0
C286 C 0.13672 0.04156 0.38576 0.0
C287 C 0.1519 0.10378 0.41222 0.0
C288 C 0.13222 0.11453 0.44699 0.0
C289 C 0.147 0.17432 0.47152 0.0
C290 C 0.12704 0.18396 0.50638 0.0
C291 C 0.09367 0.13617 0.51668 0.0
C292 C 0.08007 0.07835 0.49322 0.0
C293 C 0.09929 0.06758 0.45897 0.0
H294 H 0.72759 0.60181 0.55092 0.0
C295 C 0.70302 0.5488 0.52728 0.0
H296 H 0.6323 0.44761 0.50549 0.0
H297 H 0.6682 0.67816 0.69516 0.0
H298 H 0.77424 0.7403 0.74707 0.0
H299 H 0.81212 0.6958 0.7133 0.0
H300 H 0.74571 0.59145 0.6262 0.0
C301 C 0.65595 0.50009 0.52988 0.0
C302 C 0.62725 0.51301 0.55664 0.0
C303 C 0.6654 0.57187 0.60811 0.0
C304 C 0.64193 0.59474 0.6288 0.0
C305 C 0.68287 0.65702 0.67869 0.0
C306 C 0.74377 0.69315 0.70866 0.0
C307 C 0.76527 0.66831 0.68952 0.0
C308 C 0.72698 0.60879 0.63961 0.0
H309 H 0.5597 0.57602 0.67818 0.0
C310 C 0.54345 0.58447 0.65499 0.0
H311 H 0.53648 0.58803 0.59275 0.0
H312 H 0.536 0.38805 0.45996 0.0
H313 H 0.42653 0.31821 0.41342 0.0
H314 H 0.38445 0.35463 0.45144 0.0
H315 H 0.45222 0.46187 0.5361 0.0
C316 C 0.55485 0.5821 0.61703 0.0
C317 C 0.57893 0.5559 0.59901 0.0
C318 C 0.5383 0.49202 0.54992 0.0
C319 C 0.56243 0.47053 0.5285 0.0
C320 C 0.5209 0.40742 0.47863 0.0
C321 C 0.45751 0.36639 0.4513 0.0
C322 C 0.43382 0.38689 0.47264 0.0
C323 C 0.47344 0.44885 0.52126 0.0
H324 H 0.96574 0.76029 0.92205 0.0
C325 C 0.96193 0.72105 0.91515 0.0
H326 H 0.95077 0.64472 0.86284 0.0
H327 H 0.83933 0.633 0.68115 0.0
H328 H 0.74875 0.51589 0.654 0.0
H329 H 0.7527 0.48265 0.70944 0.0
H330 H 0.84711 0.56602 0.79214 0.0
C331 C 0.95624 0.68552 0.87174 0.0
C332 C 0.9566 0.70153 0.83488 0.0
C333 C 0.90133 0.65184 0.78654 0.0
C334 C 0.89854 0.67118 0.75488 0.0
C335 C 0.84298 0.62097 0.70688 0.0
C336 C 0.791 0.55368 0.69084 0.0
C337 C 0.79327 0.53496 0.72205 0.0
C338 C 0.84768 0.58327 0.76941 0.0
H339 H 0.98142 0.74684 0.702 0.0
C340 C 0.96514 0.76843 0.71168 0.0
H341 H 0.93357 0.79178 0.7582 0.0
H342 H 0.07471 0.80379 0.9193 0.0
H343 H 0.16492 0.92027 0.94583 0.0
H344 H 0.15771 0.95614 0.89357 0.0
H345 H 0.0607 0.87559 0.81431 0.0
C346 C 0.94414 0.76464 0.74408 0.0
C347 C 0.95046 0.74023 0.77204 0.0
C348 C 0.00722 0.78858 0.81881 0.0
C349 C 0.01075 0.76869 0.84972 0.0
C350 C 0.06875 0.81709 0.89532 0.0
C351 C 0.12104 0.88392 0.91079 0.0
C352 C 0.11702 0.90407 0.88133 0.0
C353 C 0.06095 0.85722 0.83586 0.0
H354 H 0.49981 0.3314 0.07066 0.0
C355 C 0.53861 0.34028 0.08511 0.0
H356 H 0.58573 0.31834 0.06571 0.0
H357 H 0.31658 0.03024 0.86646 0.0
H358 H 0.34576 0.99341 0.90305 0.0
H359 H 0.44716 0.08002 0.98283 0.0
H360 H 0.52048 0.20375 0.02609 0.0
C361 C 0.54921 0.31291 0.05219 0.0
C362 C 0.50215 0.26325 0.9968 0.0
C363 C 0.46163 0.19152 0.97113 0.0
C364 C 0.4028 0.14161 0.92568 0.0
C365 C 0.36155 0.07004 0.90153 0.0
C366 C 0.37782 0.04836 0.92199 0.0
C367 C 0.43502 0.09717 0.96687 0.0
C368 C 0.4766 0.16801 0.99139 0.0
H369 H 0.31667 0.10459 0.80702 0.0
C370 C 0.28914 0.09076 0.82528 0.0
H371 H 0.2887 0.1001 0.89156 0.0
H372 H 0.57878 0.39571 0.02837 0.0
H373 H 0.55156 0.43313 0.99064 0.0
H374 H 0.44715 0.34727 0.91422 0.0
H375 H 0.3701 0.22421 0.87466 0.0
C376 C 0.31658 0.11494 0.87365 0.0
C377 C 0.38486 0.16367 0.90644 0.0
C378 C 0.4293 0.23529 0.92818 0.0
C379 C 0.48869 0.28505 0.97305 0.0
C380 C 0.53251 0.35638 0.99483 0.0
C381 C 0.51756 0.37832 0.97349 0.0
C382 C 0.4588 0.32995 0.93042 0.0
C383 C 0.4149 0.25925 0.908 0.0
H384 H 0.19694 0.19179 0.88976 0.0
C385 C 0.14931 0.15904 0.86156 0.0
H386 H 0.08116 0.15371 0.83873 0.0
H387 H 0.22324 0.4084 0.0688 0.0
H388 H 0.13524 0.31323 0.06617 0.0
H389 H 0.06067 0.1915 0.99128 0.0
H390 H 0.07505 0.16452 0.91917 0.0
C391 C 0.12806 0.18479 0.86693 0.0
C392 C 0.16952 0.25809 0.90962 0.0
C393 C 0.15879 0.27296 0.95028 0.0
C394 C 0.19994 0.34318 0.99225 0.0
C395 C 0.19135 0.35636 0.03446 0.0
C396 C 0.14138 0.30204 0.03376 0.0
C397 C 0.09954 0.23352 0.99171 0.0
C398 C 0.10826 0.2188 0.95054 0.0
H399 H 0.21886 0.46071 0.02694 0.0
C400 C 0.26932 0.49597 0.04743 0.0
H401 H 0.34195 0.50689 0.05553 0.0
H402 H 0.2019 0.24716 0.83656 0.0
H403 H 0.28575 0.34172 0.83628 0.0
H404 H 0.354 0.46347 0.90697 0.0
H405 H 0.33857 0.49109 0.97825 0.0
C406 C 0.2916 0.47205 0.03449 0.0
C407 C 0.24924 0.39827 0.99167 0.0
C408 C 0.25917 0.38314 0.9504 0.0
C409 C 0.21962 0.313 0.90953 0.0
C410 C 0.23058 0.29941 0.86876 0.0
C411 C 0.27857 0.35328 0.86804 0.0
C412 C 0.3169 0.42176 0.90777 0.0
C413 C 0.30757 0.43686 0.94856 0.0
H414 H 0.75588 0.93851 0.96426 0.0
C415 C 0.73698 0.95637 0.96073 0.0
H416 H 0.7064 0.97393 0.916 0.0
H417 H 0.90107 0.03687 0.84177 0.0
H418 H 0.95261 0.15292 0.89905 0.0
H419 H 0.91083 0.17497 0.95056 0.0
H420 H 0.81761 0.08099 0.94543 0.0
C421 C 0.72809 0.95966 0.92198 0.0
C422 C 0.74852 0.94452 0.88654 0.0
C423 C 0.80155 0.99948 0.88845 0.0
C424 C 0.8248 0.98646 0.85789 0.0
C425 C 0.88001 0.04315 0.86274 0.0
C426 C 0.91043 0.11027 0.89581 0.0
C427 C 0.887 0.1227 0.9249 0.0
C428 C 0.83337 0.06824 0.92154 0.0
H429 H 0.78859 0.91658 0.74341 0.0
C430 C 0.81382 0.90735 0.75368 0.0
H431 H 0.83807 0.88904 0.80164 0.0
H432 H 0.64119 0.8259 0.86908 0.0
H433 H 0.59248 0.71066 0.81476 0.0
H434 H 0.63682 0.68975 0.76587 0.0
H435 H 0.72863 0.78357 0.76948 0.0
C436 C 0.81841 0.90414 0.79294 0.0
C437 C 0.79408 0.91811 0.82473 0.0
C438 C 0.74131 0.86338 0.82313 0.0
C439 C 0.71752 0.87616 0.85308 0.0
C440 C 0.66272 0.81965 0.84867 0.0
C441 C 0.634 0.75314 0.81735 0.0
C442 C 0.65868 0.74124 0.78953 0.0
C443 C 0.71136 0.7954 0.79195 0.0
H444 H 0.74131 0.67326 0.31479 0.0
C445 C 0.72157 0.64628 0.33142 0.0
H446 H 0.65896 0.61237 0.35886 0.0
H447 H 0.68453 0.84745 0.40213 0.0
H448 H 0.77132 0.91641 0.48495 0.0
H449 H 0.80936 0.87392 0.50064 0.0
H450 H 0.76121 0.76238 0.43326 0.0
C451 C 0.68349 0.64379 0.34611 0.0
C452 C 0.66348 0.6717 0.33613 0.0
C453 C 0.69121 0.73617 0.37593 0.0
C454 C 0.66796 0.75965 0.36724 0.0
C455 C 0.69843 0.8257 0.40721 0.0
C456 C 0.74874 0.86613 0.45479 0.0
C457 C 0.77027 0.84229 0.46359 0.0
C458 C 0.74216 0.77818 0.4247 0.0
H459 H 0.56488 0.73917 0.3697 0.0
C460 C 0.55857 0.74188 0.33822 0.0
H461 H 0.57932 0.74017 0.28027 0.0
H462 H 0.59979 0.54547 0.25138 0.0
H463 H 0.51576 0.47823 0.16784 0.0
H464 H 0.47713 0.52004 0.15191 0.0
H465 H 0.52274 0.62942 0.21921 0.0
C466 C 0.58474 0.73621 0.31113 0.0
C467 C 0.61576 0.71754 0.31897 0.0
C468 C 0.59067 0.65497 0.27826 0.0
C469 C 0.61374 0.63143 0.28713 0.0
C470 C 0.58529 0.56677 0.24656 0.0
C471 C 0.53666 0.52732 0.19839 0.0
C472 C 0.51486 0.5508 0.18947 0.0
C473 C 0.54135 0.61374 0.22869 0.0
H474 H 0.43858 0.23211 0.1955 0.0
C475 C 0.46911 0.27686 0.23531 0.0
H476 H 0.47465 0.32246 0.30464 0.0
H477 H 0.1677 0.03684 0.11507 0.0
H478 H 0.19188 0.09767 0.07812 0.0
H479 H 0.30023 0.21416 0.11896 0.0
H480 H 0.38518 0.27005 0.19655 0.0
C481 C 0.44428 0.2776 0.26495 0.0
C482 C 0.37692 0.21466 0.24591 0.0
C483 C 0.32732 0.18392 0.20167 0.0
C484 C 0.2645 0.11771 0.17897 0.0
C485 C 0.21621 0.08722 0.13396 0.0
C486 C 0.22939 0.12165 0.11246 0.0
C487 C 0.29042 0.18717 0.13539 0.0
C488 C 0.33889 0.21835 0.17962 0.0
H489 H 0.16556 0.03998 0.23033 0.0
C490 C 0.14913 0.99757 0.19505 0.0
H491 H 0.17123 0.97 0.14036 0.0
H492 H 0.45922 0.26384 0.33514 0.0
H493 H 0.43418 0.20563 0.37402 0.0
H494 H 0.32577 0.08965 0.33372 0.0
H495 H 0.24187 0.03182 0.25477 0.0
C496 C 0.1863 0.01169 0.17516 0.0
C497 C 0.25093 0.08348 0.20151 0.0
C498 C 0.29983 0.11618 0.2476 0.0
C499 C 0.36272 0.18238 0.27022 0.0
C500 C 0.41063 0.21368 0.3161 0.0
C501 C 0.39698 0.18074 0.3389 0.0
C502 C 0.33594 0.11559 0.31631 0.0
C503 C 0.28795 0.08317 0.27102 0.0
H504 H 0.94129 0.27008 0.17421 0.0
C505 C 0.90455 0.26576 0.16756 0.0
H506 H 0.88468 0.31897 0.17189 0.0
H507 H 0.19243 0.51813 0.30628 0.0
H508 H 0.16408 0.4855 0.36128 0.0
H509 H 0.05562 0.41141 0.3451 0.0
H510 H 0.97417 0.36736 0.27227 0.0
C511 C 0.92011 0.32143 0.17869 0.0
C512 C 0.98722 0.38658 0.19934 0.0
C513 C 0.03558 0.41735 0.24456 0.0
C514 C 0.09908 0.46439 0.25602 0.0
C515 C 0.14447 0.48656 0.29768 0.0
C516 C 0.12866 0.46747 0.32933 0.0
C517 C 0.06751 0.42543 0.32007 0.0
C518 C 0.02124 0.40023 0.27809 0.0
H519 H 0.22304 0.61475 0.30964 0.0
C520 C 0.22994 0.59781 0.27865 0.0
H521 H 0.18728 0.51709 0.2033 0.0
H522 H 0.90712 0.34594 0.11491 0.0
H523 H 0.93609 0.38779 0.06444 0.0
H524 H 0.04735 0.47645 0.0876 0.0
H525 H 0.13008 0.52302 0.1607 0.0
C526 C 0.18073 0.53349 0.23467 0.0
C527 C 0.11503 0.48593 0.22476 0.0
C528 C 0.06739 0.46067 0.18255 0.0
C529 C 0.00334 0.41054 0.16966 0.0
C530 C 0.95647 0.38431 0.12638 0.0
C531 C 0.97248 0.40801 0.0972 0.0
C532 C 0.0351 0.45784 0.11019 0.0
C533 C 0.08215 0.48395 0.15222 0.0
H534 H 0.73388 0.60931 0.02549 0.0
C535 C 0.76984 0.65901 0.06312 0.0
H536 H 0.79522 0.74542 0.11927 0.0
H537 H 0.59423 0.66644 0.9449 0.0
H538 H 0.65922 0.6888 0.9071 0.0
H539 H 0.74337 0.7025 0.93691 0.0
H540 H 0.76288 0.69373 0.00437 0.0
C541 C 0.75873 0.69419 0.08279 0.0
C542 C 0.69894 0.66846 0.05564 0.0
C543 C 0.68747 0.67232 0.01523 0.0
C544 C 0.63945 0.6653 0.99842 0.0
C545 C 0.63016 0.67156 0.9592 0.0
C546 C 0.6671 0.68434 0.93713 0.0
C547 C 0.71443 0.69199 0.95389 0.0
C548 C 0.72498 0.68655 0.99265 0.0
H549 H 0.6375 0.76389 0.09272 0.0
C550 C 0.59668 0.73277 0.05693 0.0
H551 H 0.53241 0.64238 0.98063 0.0
H552 H 0.7011 0.6456 0.12694 0.0
H553 H 0.63332 0.61947 0.16273 0.0
H554 H 0.5508 0.60845 0.13371 0.0
H555 H 0.5352 0.62284 0.06866 0.0
C556 C 0.57069 0.67253 0.01777 0.0
C557 C 0.60434 0.65622 0.02289 0.0
C558 C 0.61133 0.64502 0.05933 0.0
C559 C 0.65883 0.65138 0.07587 0.0
C560 C 0.66603 0.64196 0.11346 0.0
C561 C 0.62731 0.62664 0.13405 0.0
C562 C 0.58079 0.62033 0.11772 0.0
C563 C 0.57257 0.62918 0.08069 0.0
H564 H 0.04407 0.05304 0.62875 0.0
C565 C 0.08119 0.06305 0.65014 0.0
H566 H 0.17986 0.13684 0.69631 0.0
H567 H 0.26349 0.33694 0.63656 0.0
H568 H 0.27692 0.27528 0.58183 0.0
H569 H 0.23728 0.17088 0.56976 0.0
H570 H 0.18346 0.12738 0.61233 0.0
C571 C 0.14204 0.12475 0.6732 0.0
C572 C 0.16081 0.18387 0.67711 0.0
C573 C 0.19261 0.20897 0.65243 0.0
C574 C 0.21625 0.26973 0.66006 0.0
C575 C 0.24615 0.29234 0.63356 0.0
C576 C 0.25402 0.25722 0.60177 0.0
C577 C 0.23163 0.1984 0.59492 0.0
C578 C 0.20094 0.17408 0.61964 0.0
H579 H 0.32715 0.43708 0.74946 0.0
C580 C 0.29291 0.42901 0.72586 0.0
H581 H 0.1962 0.35694 0.67356 0.0
H582 H 0.10574 0.15288 0.73364 0.0
H583 H 0.09257 0.21476 0.78829 0.0
H584 H 0.13331 0.31983 0.80094 0.0
H585 H 0.18706 0.36307 0.75826 0.0
C586 C 0.23108 0.36741 0.69917 0.0
C587 C 0.20923 0.30613 0.69339 0.0
C588 C 0.17727 0.28099 0.71792 0.0
C589 C 0.1533 0.22 0.71011 0.0
C590 C 0.12329 0.19749 0.73658 0.0
C591 C 0.1157 0.23289 0.76848 0.0
C592 C 0.13877 0.29213 0.77571 0.0
C593 C 0.16941 0.31629 0.75094 0.0
H594 H 0.48088 0.91554 0.03748 0.0
C595 C 0.5265 0.97037 0.06215 0.0
H596 H 0.48137 0.99648 0.06803 0.0
H597 H 0.74846 0.29237 0.28203 0.0
H598 H 0.72987 0.22479 0.3113 0.0
H599 H 0.64383 0.09671 0.25198 0.0
H600 H 0.57555 0.03522 0.16328 0.0
C601 C 0.52674 0.01663 0.08108 0.0
C602 C 0.58415 0.09384 0.11661 0.0
C603 C 0.62209 0.12862 0.16875 0.0
C604 C 0.66984 0.20242 0.20361 0.0
C605 C 0.70954 0.23624 0.25476 0.0
C606 C 0.69992 0.19819 0.27182 0.0
C607 C 0.65139 0.12603 0.23841 0.0
C608 C 0.61265 0.09135 0.18748 0.0
H609 H 0.66972 0.29282 0.26913 0.0
C610 C 0.69561 0.32814 0.25949 0.0
H611 H 0.73821 0.35112 0.21724 0.0
H612 H 0.52867 0.04421 0.01806 0.0
H613 H 0.54711 0.11115 0.98851 0.0
H614 H 0.62362 0.23781 0.04926 0.0
H615 H 0.68274 0.29836 0.13906 0.0
C616 C 0.71092 0.31356 0.22473 0.0
C617 C 0.67626 0.24077 0.18712 0.0
C618 C 0.64197 0.2064 0.13411 0.0
C619 C 0.59646 0.13299 0.09896 0.0
C620 C 0.56285 0.09969 0.04637 0.0
C621 C 0.57307 0.13744 0.02884 0.0
C622 C 0.61621 0.20873 0.06304 0.0
C623 C 0.65009 0.24299 0.11496 0.0
H624 H 0.10751 0.77974 0.23573 0.0
C625 C 0.10004 0.77397 0.20036 0.0
H626 H 0.13351 0.77848 0.14962 0.0
H627 H 0.41063 0.97211 0.31309 0.0
H628 H 0.42508 0.0506 0.30015 0.0
H629 H 0.33326 0.015 0.24771 0.0
H630 H 0.22657 0.90114 0.20807 0.0
C631 C 0.13705 0.77861 0.18265 0.0
C632 C 0.19212 0.79891 0.21341 0.0
C633 C 0.25434 0.86583 0.23624 0.0
C634 C 0.30742 0.88657 0.26658 0.0
C635 C 0.36885 0.95378 0.28938 0.0
C636 C 0.37777 0.99935 0.2824 0.0
C637 C 0.32605 0.97933 0.25292 0.0
C638 C 0.26499 0.91358 0.23017 0.0
H639 H 0.37294 0.84447 0.24592 0.0
C640 C 0.38184 0.85208 0.28199 0.0
H641 H 0.35685 0.86146 0.33787 0.0
H642 H 0.07984 0.66533 0.17205 0.0
H643 H 0.06563 0.5878 0.18608 0.0
H644 H 0.15749 0.62526 0.24107 0.0
H645 H 0.2638 0.73933 0.28122 0.0
C646 C 0.35303 0.86012 0.30432 0.0
C647 C 0.29825 0.8406 0.27422 0.0
C648 C 0.23605 0.77377 0.25159 0.0
C649 C 0.18298 0.75265 0.22071 0.0
C650 C 0.12167 0.68469 0.19695 0.0
C651 C 0.11285 0.63946 0.2044 0.0
C652 C 0.16453 0.66042 0.23519 0.0
C653 C 0.22545 0.72641 0.25829 0.0
loop_
_geom_bond_atom_site_label_1
_geom_bond_atom_site_label_2
_geom_bond_distance
_geom_bond_site_symmetry_2
_ccdc_geom_bond_type
Co0 O3 1.970 . S
Co0 N17 1.989 . S
Co0 O25 1.967 . S
Co0 O32 1.920 . S
Co1 O4 1.966 . S
Co1 N10 2.022 . S
Co1 N18 1.993 . S
Co1 O26 1.941 . S
C2 O3 1.258 . S
C2 O4 1.263 . S
O3 Co0 1.970 . S
O3 C2 1.258 . S
O4 Co1 1.966 . S
O4 C2 1.263 . S
C5 O6 1.235 . S
C5 O32 1.289 . S
O6 C5 1.235 . S
C7 C9 1.400 . S
C7 N10 1.351 . S
C7 C12 1.501 . S
C8 C9 1.387 . S
C8 N11 1.341 . S
C9 C7 1.400 . S
C9 C8 1.387 . S
N10 Co1 2.022 . S
N10 C7 1.351 . S
N10 N11 1.365 . S
N11 C8 1.341 . S
N11 N10 1.365 . S
N11 H31 0.862 . S
C12 C7 1.501 . S
C12 H13 0.961 . S
C12 H14 0.961 . S
C12 H15 0.960 . S
H13 C12 0.961 . S
H14 C12 0.961 . S
H15 C12 0.960 . S
C16 N17 1.342 . S
C16 C20 1.401 . S
C16 C21 1.499 . S
N17 Co0 1.989 . S
N17 C16 1.342 . S
N17 N18 1.388 . S
N18 Co1 1.993 . S
N18 N17 1.388 . S
N18 C19 1.346 . S
C19 N18 1.346 . S
C19 C20 1.396 . S
C19 C29 1.510 . S
C20 C16 1.401 . S
C20 C19 1.396 . S
C21 C16 1.499 . S
C21 H22 0.959 . S
C21 H23 0.960 . S
C21 H24 0.961 . S
H22 C21 0.959 . S
H23 C21 0.960 . S
H24 C21 0.961 . S
O25 Co0 1.967 . S
O25 C33 1.258 . S
O26 Co1 1.941 . S
O26 C33 1.266 . S
H27 C29 0.959 . S
H28 C29 0.961 . S
C29 C19 1.510 . S
C29 H27 0.959 . S
C29 H28 0.961 . S
C29 H30 0.960 . S
H30 C29 0.960 . S
H31 N11 0.862 . S
O32 Co0 1.920 . S
O32 C5 1.289 . S
C33 O25 1.258 . S
C33 O26 1.266 . S
Co34 O37 1.970 . S
Co34 N51 1.989 1_545 S
Co34 O59 1.967 . S
Co34 O66 1.920 . S
Co35 O38 1.966 1_565 S
Co35 N44 2.022 1_455 S
Co35 N52 1.993 . S
Co35 O60 1.941 . S
C36 O37 1.258 . S
C36 O38 1.263 . S
O37 Co34 1.970 . S
O37 C36 1.258 . S
O38 Co35 1.966 1_545 S
O38 C36 1.263 . S
C39 O40 1.235 . S
C39 O66 1.289 . S
O40 C39 1.235 . S
C41 C43 1.400 . S
C41 N44 1.351 . S
C41 C46 1.501 1_565 S
C42 C43 1.387 . S
C42 N45 1.341 . S
C43 C41 1.400 . S
C43 C42 1.387 . S
N44 Co35 2.022 1_655 S
N44 C41 1.351 . S
N44 N45 1.365 . S
N45 C42 1.341 . S
N45 N44 1.365 . S
N45 H65 0.862 . S
C46 C41 1.501 1_545 S
C46 H47 0.961 . S
C46 H48 0.961 . S
C46 H49 0.960 . S
H47 C46 0.961 . S
H48 C46 0.961 . S
H49 C46 0.960 . S
C50 N51 1.342 . S
C50 C54 1.401 . S
C50 C55 1.499 . S
N51 Co34 1.989 1_565 S
N51 C50 1.342 . S
N51 N52 1.388 . S
N52 Co35 1.993 . S
N52 N51 1.388 . S
N52 C53 1.346 1_455 S
C53 N52 1.346 1_655 S
C53 C54 1.396 1_655 S
C53 C63 1.510 . S
C54 C50 1.401 . S
C54 C53 1.396 1_455 S
C55 C50 1.499 . S
C55 H56 0.959 . S
C55 H57 0.960 . S
C55 H58 0.961 . S
H56 C55 0.959 . S
H57 C55 0.960 . S
H58 C55 0.961 . S
O59 Co34 1.967 . S
O59 C67 1.258 . S
O60 Co35 1.941 . S
O60 C67 1.266 1_565 S
H61 C63 0.959 . S
H62 C63 0.961 . S
C63 C53 1.510 . S
C63 H61 0.959 . S
C63 H62 0.961 . S
C63 H64 0.960 . S
H64 C63 0.960 . S
H65 N45 0.862 . S
O66 Co34 1.920 . S
O66 C39 1.289 . S
C67 O59 1.258 . S
C67 O60 1.266 1_545 S
Co68 O71 1.970 . S
Co68 N85 1.989 . S
Co68 O93 1.967 . S
Co68 O100 1.920 . S
Co69 O72 1.966 . S
Co69 N78 2.022 . S
Co69 N86 1.993 . S
Co69 O94 1.941 . S
C70 O71 1.258 . S
C70 O72 1.263 . S
O71 Co68 1.970 . S
O71 C70 1.258 . S
O72 Co69 1.966 . S
O72 C70 1.263 . S
C73 O74 1.235 . S
C73 O100 1.289 . S
O74 C73 1.235 . S
C75 C77 1.400 . S
C75 N78 1.351 . S
C75 C80 1.501 . S
C76 C77 1.387 . S
C76 N79 1.341 . S
C77 C75 1.400 . S
C77 C76 1.387 . S
N78 Co69 2.022 . S
N78 C75 1.351 . S
N78 N79 1.365 . S
N79 C76 1.341 . S
N79 N78 1.365 . S
N79 H99 0.862 . S
C80 C75 1.501 . S
C80 H81 0.961 . S
C80 H82 0.961 . S
C80 H83 0.960 . S
H81 C80 0.961 . S
H82 C80 0.961 . S
H83 C80 0.960 . S
C84 N85 1.342 . S
C84 C88 1.401 . S
C84 C89 1.499 . S
N85 Co68 1.989 . S
N85 C84 1.342 . S
N85 N86 1.388 . S
N86 Co69 1.993 . S
N86 N85 1.388 . S
N86 C87 1.346 . S
C87 N86 1.346 . S
C87 C88 1.396 . S
C87 C97 1.510 . S
C88 C84 1.401 . S
C88 C87 1.396 . S
C89 C84 1.499 . S
C89 H90 0.959 . S
C89 H91 0.960 . S
C89 H92 0.961 . S
H90 C89 0.959 . S
H91 C89 0.960 . S
H92 C89 0.961 . S
O93 Co68 1.967 . S
O93 C101 1.258 . S
O94 Co69 1.941 . S
O94 C101 1.266 . S
H95 C97 0.959 . S
H96 C97 0.961 . S
C97 C87 1.510 . S
C97 H95 0.959 . S
C97 H96 0.961 . S
C97 H98 0.960 . S
H98 C97 0.960 . S
H99 N79 0.862 . S
O100 Co68 1.920 . S
O100 C73 1.289 . S
C101 O93 1.258 . S
C101 O94 1.266 . S
Co102 O105 1.970 . S
Co102 N119 1.989 . S
Co102 O127 1.967 . S
Co102 O134 1.920 . S
Co103 O106 1.966 . S
Co103 N112 2.022 . S
Co103 N120 1.993 . S
Co103 O128 1.941 . S
C104 O105 1.258 . S
C104 O106 1.263 . S
O105 Co102 1.970 . S
O105 C104 1.258 . S
O106 Co103 1.966 . S
O106 C104 1.263 . S
C107 O108 1.235 . S
C107 O134 1.289 . S
O108 C107 1.235 . S
C109 C111 1.400 . S
C109 N112 1.351 . S
C109 C114 1.501 . S
C110 C111 1.387 . S
C110 N113 1.341 . S
C111 C109 1.400 . S
C111 C110 1.387 . S
N112 Co103 2.022 . S
N112 C109 1.351 . S
N112 N113 1.365 . S
N113 C110 1.341 . S
N113 N112 1.365 . S
N113 H133 0.862 . S
C114 C109 1.501 . S
C114 H115 0.961 . S
C114 H116 0.961 . S
C114 H117 0.960 . S
H115 C114 0.961 . S
H116 C114 0.961 . S
H117 C114 0.960 . S
C118 N119 1.342 . S
C118 C122 1.401 . S
C118 C123 1.499 . S
N119 Co102 1.989 . S
N119 C118 1.342 . S
N119 N120 1.388 . S
N120 Co103 1.993 . S
N120 N119 1.388 . S
N120 C121 1.346 . S
C121 N120 1.346 . S
C121 C122 1.396 . S
C121 C131 1.510 . S
C122 C118 1.401 . S
C122 C121 1.396 . S
C123 C118 1.499 . S
C123 H124 0.959 . S
C123 H125 0.960 . S
C123 H126 0.961 . S
H124 C123 0.959 . S
H125 C123 0.960 . S
H126 C123 0.961 . S
O127 Co102 1.967 . S
O127 C135 1.258 . S
O128 Co103 1.941 . S
O128 C135 1.266 . S
H129 C131 0.959 . S
H130 C131 0.961 . S
C131 C121 1.510 . S
C131 H129 0.959 . S
C131 H130 0.961 . S
C131 H132 0.960 . S
H132 C131 0.960 . S
H133 N113 0.862 . S
O134 Co102 1.920 . S
O134 C107 1.289 . S
C135 O127 1.258 . S
C135 O128 1.266 . S
Co136 O139 1.970 . S
Co136 N153 1.989 . S
Co136 O161 1.967 . S
Co136 O168 1.920 . S
Co137 O140 1.966 1_565 S
Co137 N146 2.022 . S
Co137 N154 1.993 . S
Co137 O162 1.941 . S
C138 O139 1.258 . S
C138 O140 1.263 . S
O139 Co136 1.970 . S
O139 C138 1.258 . S
O140 Co137 1.966 1_545 S
O140 C138 1.263 . S
C141 O142 1.235 . S
C141 O168 1.289 . S
O142 C141 1.235 . S
C143 C145 1.400 . S
C143 N146 1.351 . S
C143 C148 1.501 . S
C144 C145 1.387 1_556 S
C144 N147 1.341 . S
C145 C143 1.400 . S
C145 C144 1.387 1_554 S
N146 Co137 2.022 . S
N146 C143 1.351 . S
N146 N147 1.365 1_554 S
N147 C144 1.341 . S
N147 N146 1.365 1_556 S
N147 H167 0.862 . S
C148 C143 1.501 . S
C148 H149 0.961 . S
C148 H150 0.961 . S
C148 H151 0.960 . S
H149 C148 0.961 . S
H150 C148 0.961 . S
H151 C148 0.960 . S
C152 N153 1.342 1_556 S
C152 C156 1.401 1_545 S
C152 C157 1.499 . S
N153 Co136 1.989 . S
N153 C152 1.342 1_554 S
N153 N154 1.388 1_545 S
N154 Co137 1.993 . S
N154 N153 1.388 1_565 S
N154 C155 1.346 1_554 S
C155 N154 1.346 1_556 S
C155 C156 1.396 . S
C155 C165 1.510 . S
C156 C152 1.401 1_565 S
C156 C155 1.396 . S
C157 C152 1.499 . S
C157 H158 0.959 1_556 S
C157 H159 0.960 . S
C157 H160 0.961 . S
H158 C157 0.959 1_554 S
H159 C157 0.960 . S
H160 C157 0.961 . S
O161 Co136 1.967 . S
O161 C169 1.258 . S
O162 Co137 1.941 . S
O162 C169 1.266 1_565 S
H163 C165 0.959 . S
H164 C165 0.961 . S
C165 C155 1.510 . S
C165 H163 0.959 . S
C165 H164 0.961 . S
C165 H166 0.960 . S
H166 C165 0.960 . S
H167 N147 0.862 . S
O168 Co136 1.920 . S
O168 C141 1.289 . S
C169 O161 1.258 . S
C169 O162 1.266 1_545 S
Co170 O173 1.970 . S
Co170 N187 1.989 1_455 S
Co170 O195 1.967 . S
Co170 O202 1.920 . S
Co171 O174 1.966 1_655 S
Co171 N180 2.022 . S
Co171 N188 1.993 . S
Co171 O196 1.941 . S
C172 O173 1.258 . S
C172 O174 1.263 . S
O173 Co170 1.970 . S
O173 C172 1.258 . S
O174 Co171 1.966 1_455 S
O174 C172 1.263 . S
C175 O176 1.235 . S
C175 O202 1.289 . S
O176 C175 1.235 . S
C177 C179 1.400 1_554 S
C177 N180 1.351 . S
C177 C182 1.501 1_655 S
C178 C179 1.387 . S
C178 N181 1.341 . S
C179 C177 1.400 1_556 S
C179 C178 1.387 . S
N180 Co171 2.022 . S
N180 C177 1.351 . S
N180 N181 1.365 1_554 S
N181 C178 1.341 . S
N181 N180 1.365 1_556 S
N181 H201 0.862 . S
C182 C177 1.501 1_455 S
C182 H183 0.961 . S
C182 H184 0.961 . S
C182 H185 0.960 . S
H183 C182 0.961 . S
H184 C182 0.961 . S
H185 C182 0.960 . S
C186 N187 1.342 . S
C186 C190 1.401 . S
C186 C191 1.499 . S
N187 Co170 1.989 1_655 S
N187 C186 1.342 . S
N187 N188 1.388 . S
N188 Co171 1.993 . S
N188 N187 1.388 . S
N188 C189 1.346 . S
C189 N188 1.346 . S
C189 C190 1.396 . S
C189 C199 1.510 . S
C190 C186 1.401 . S
C190 C189 1.396 . S
C191 C186 1.499 . S
C191 H192 0.959 . S
C191 H193 0.960 . S
C191 H194 0.961 . S
H192 C191 0.959 . S
H193 C191 0.960 . S
H194 C191 0.961 . S
O195 Co170 1.967 . S
O195 C203 1.258 . S
O196 Co171 1.941 . S
O196 C203 1.266 1_655 S
H197 C199 0.959 . S
H198 C199 0.961 . S
C199 C189 1.510 . S
C199 H197 0.959 . S
C199 H198 0.961 . S
C199 H200 0.960 . S
H200 C199 0.960 . S
H201 N181 0.862 . S
O202 Co170 1.920 . S
O202 C175 1.289 . S
C203 O195 1.258 . S
C203 O196 1.266 1_455 S
H204 C205 0.951 . S
C205 H204 0.951 . S
C205 C211 1.265 . S
H206 C211 0.950 . S
H207 C215 0.949 . S
H208 C216 0.950 . S
H209 C217 0.951 . S
H210 C218 0.951 . S
C211 C205 1.265 . S
C211 H206 0.950 . S
C211 C212 1.478 . S
C212 C211 1.478 . S
C212 C213 1.397 . S
C212 C229 1.394 . S
C213 C212 1.397 . S
C213 C214 1.438 . S
C213 C218 1.429 . S
C214 C213 1.438 . S
C214 C215 1.428 . S
C214 C227 1.394 . S
C215 H207 0.949 . S
C215 C214 1.428 . S
C215 C216 1.345 . S
C216 H208 0.950 . S
C216 C215 1.345 . S
C216 C217 1.424 . S
C217 H209 0.951 . S
C217 C216 1.424 . S
C217 C218 1.347 . S
C218 H210 0.951 . S
C218 C213 1.429 . S
C218 C217 1.347 . S
H219 C220 0.951 . S
C220 H219 0.951 . S
C220 C226 1.265 . S
H221 C226 0.950 . S
H222 C230 0.949 . S
H223 C231 0.950 . S
H224 C232 0.951 . S
H225 C233 0.951 . S
C226 C220 1.265 . S
C226 H221 0.950 . S
C226 C227 1.478 . S
C227 C214 1.394 . S
C227 C226 1.478 . S
C227 C228 1.397 . S
C228 C227 1.397 . S
C228 C229 1.438 . S
C228 C233 1.429 . S
C229 C212 1.394 . S
C229 C228 1.438 . S
C229 C230 1.428 . S
C230 H222 0.949 . S
C230 C229 1.428 . S
C230 C231 1.345 . S
C231 H223 0.950 . S
C231 C230 1.345 . S
C231 C232 1.424 . S
C232 H224 0.951 . S
C232 C231 1.424 . S
C232 C233 1.347 . S
C233 H225 0.951 . S
C233 C228 1.429 . S
C233 C232 1.347 . S
H234 C235 0.951 . S
C235 H234 0.951 . S
C235 C241 1.265 . S
H236 C241 0.950 . S
H237 C245 0.949 . S
H238 C246 0.950 1_455 S
H239 C247 0.951 . S
H240 C248 0.951 . S
C241 C235 1.265 . S
C241 H236 0.950 . S
C241 C242 1.478 . S
C242 C241 1.478 . S
C242 C243 1.397 . S
C242 C259 1.394 . S
C243 C242 1.397 . S
C243 C244 1.438 . S
C243 C248 1.429 . S
C244 C243 1.438 . S
C244 C245 1.428 . S
C244 C257 1.394 . S
C245 H237 0.949 . S
C245 C244 1.428 . S
C245 C246 1.345 . S
C246 H238 0.950 1_655 S
C246 C245 1.345 . S
C246 C247 1.424 . S
C247 H239 0.951 . S
C247 C246 1.424 . S
C247 C248 1.347 . S
C248 H240 0.951 . S
C248 C243 1.429 . S
C248 C247 1.347 . S
H249 C250 0.951 . S
C250 H249 0.951 . S
C250 C256 1.265 1_455 S
H251 C256 0.950 . S
H252 C260 0.949 . S
H253 C261 0.950 1_565 S
H254 C262 0.951 . S
H255 C263 0.951 . S
C256 C250 1.265 1_655 S
C256 H251 0.950 . S
C256 C257 1.478 . S
C257 C244 1.394 . S
C257 C256 1.478 . S
C257 C258 1.397 . S
C258 C257 1.397 . S
C258 C259 1.438 . S
C258 C263 1.429 . S
C259 C242 1.394 . S
C259 C258 1.438 . S
C259 C260 1.428 . S
C260 H252 0.949 . S
C260 C259 1.428 . S
C260 C261 1.345 . S
C261 H253 0.950 1_545 S
C261 C260 1.345 . S
C261 C262 1.424 . S
C262 H254 0.951 . S
C262 C261 1.424 . S
C262 C263 1.347 . S
C263 H255 0.951 . S
C263 C258 1.429 . S
C263 C262 1.347 . S
H264 C265 0.951 . S
C265 H264 0.951 . S
C265 C271 1.265 . S
H266 C271 0.950 . S
H267 C275 0.949 . S
H268 C276 0.950 . S
H269 C277 0.951 . S
H270 C278 0.951 . S
C271 C265 1.265 . S
C271 H266 0.950 . S
C271 C272 1.478 . S
C272 C271 1.478 . S
C272 C273 1.397 . S
C272 C289 1.394 . S
C273 C272 1.397 . S
C273 C274 1.438 . S
C273 C278 1.429 . S
C274 C273 1.438 . S
C274 C275 1.428 . S
C274 C287 1.394 . S
C275 H267 0.949 . S
C275 C274 1.428 . S
C275 C276 1.345 . S
C276 H268 0.950 . S
C276 C275 1.345 . S
C276 C277 1.424 . S
C277 H269 0.951 . S
C277 C276 1.424 . S
C277 C278 1.347 . S
C278 H270 0.951 . S
C278 C273 1.429 . S
C278 C277 1.347 . S
H279 C280 0.951 . S
C280 H279 0.951 . S
C280 C286 1.265 . S
H281 C286 0.950 1_545 S
H282 C290 0.949 . S
H283 C291 0.950 . S
H284 C292 0.951 . S
H285 C293 0.951 . S
C286 C280 1.265 . S
C286 H281 0.950 1_565 S
C286 C287 1.478 1_565 S
C287 C274 1.394 . S
C287 C286 1.478 1_545 S
C287 C288 1.397 . S
C288 C287 1.397 . S
C288 C289 1.438 . S
C288 C293 1.429 . S
C289 C272 1.394 . S
C289 C288 1.438 . S
C289 C290 1.428 . S
C290 H282 0.949 . S
C290 C289 1.428 . S
C290 C291 1.345 . S
C291 H283 0.950 . S
C291 C290 1.345 . S
C291 C292 1.424 . S
C292 H284 0.951 . S
C292 C291 1.424 . S
C292 C293 1.347 . S
C293 H285 0.951 . S
C293 C288 1.429 . S
C293 C292 1.347 . S
H294 C295 0.951 . S
C295 H294 0.951 . S
C295 C301 1.265 . S
H296 C301 0.950 . S
H297 C305 0.949 . S
H298 C306 0.950 . S
H299 C307 0.951 . S
H300 C308 0.951 . S
C301 C295 1.265 . S
C301 H296 0.950 . S
C301 C302 1.478 . S
C302 C301 1.478 . S
C302 C303 1.397 . S
C302 C319 1.394 . S
C303 C302 1.397 . S
C303 C304 1.438 . S
C303 C308 1.429 . S
C304 C303 1.438 . S
C304 C305 1.428 . S
C304 C317 1.394 . S
C305 H297 0.949 . S
C305 C304 1.428 . S
C305 C306 1.345 . S
C306 H298 0.950 . S
C306 C305 1.345 . S
C306 C307 1.424 . S
C307 H299 0.951 . S
C307 C306 1.424 . S
C307 C308 1.347 . S
C308 H300 0.951 . S
C308 C303 1.429 . S
C308 C307 1.347 . S
H309 C310 0.951 . S
C310 H309 0.951 . S
C310 C316 1.265 . S
H311 C316 0.950 . S
H312 C320 0.949 . S
H313 C321 0.950 . S
H314 C322 0.951 . S
H315 C323 0.951 . S
C316 C310 1.265 . S
C316 H311 0.950 . S
C316 C317 1.478 . S
C317 C304 1.394 . S
C317 C316 1.478 . S
C317 C318 1.397 . S
C318 C317 1.397 . S
C318 C319 1.438 . S
C318 C323 1.429 . S
C319 C302 1.394 . S
C319 C318 1.438 . S
C319 C320 1.428 . S
C320 H312 0.949 . S
C320 C319 1.428 . S
C320 C321 1.345 . S
C321 H313 0.950 . S
C321 C320 1.345 . S
C321 C322 1.424 . S
C322 H314 0.951 . S
C322 C321 1.424 . S
C322 C323 1.347 . S
C323 H315 0.951 . S
C323 C318 1.429 . S
C323 C322 1.347 . S
H324 C325 0.951 . S
C325 H324 0.951 . S
C325 C331 1.265 . S
H326 C331 0.950 . S
H327 C335 0.949 . S
H328 C336 0.950 . S
H329 C337 0.951 . S
H330 C338 0.951 . S
C331 C325 1.265 . S
C331 H326 0.950 . S
C331 C332 1.478 . S
C332 C331 1.478 . S
C332 C333 1.397 . S
C332 C349 1.394 1_655 S
C333 C332 1.397 . S
C333 C334 1.438 . S
C333 C338 1.429 . S
C334 C333 1.438 . S
C334 C335 1.428 . S
C334 C347 1.394 . S
C335 H327 0.949 . S
C335 C334 1.428 . S
C335 C336 1.345 . S
C336 H328 0.950 . S
C336 C335 1.345 . S
C336 C337 1.424 . S
C337 H329 0.951 . S
C337 C336 1.424 . S
C337 C338 1.347 . S
C338 H330 0.951 . S
C338 C333 1.429 . S
C338 C337 1.347 . S
H339 C340 0.951 . S
C340 H339 0.951 . S
C340 C346 1.265 1_455 S
H341 C346 0.950 . S
H342 C350 0.949 . S
H343 C351 0.950 1_554 S
H344 C352 0.951 1_545 S
H345 C353 0.951 . S
C346 C340 1.265 1_655 S
C346 H341 0.950 . S
C346 C347 1.478 . S
C347 C334 1.394 . S
C347 C346 1.478 . S
C347 C348 1.397 1_655 S
C348 C347 1.397 1_455 S
C348 C349 1.438 . S
C348 C353 1.429 . S
C349 C332 1.394 1_455 S
C349 C348 1.438 . S
C349 C350 1.428 . S
C350 H342 0.949 . S
C350 C349 1.428 . S
C350 C351 1.345 . S
C351 H343 0.950 1_556 S
C351 C350 1.345 . S
C351 C352 1.424 . S
C352 H344 0.951 1_565 S
C352 C351 1.424 . S
C352 C353 1.347 . S
C353 H345 0.951 . S
C353 C348 1.429 . S
C353 C352 1.347 . S
H354 C355 0.951 . S
C355 H354 0.951 . S
C355 C361 1.265 . S
H356 C361 0.950 . S
H357 C365 0.949 . S
H358 C366 0.950 . S
H359 C367 0.951 . S
H360 C368 0.951 . S
C361 C355 1.265 . S
C361 H356 0.950 . S
C361 C362 1.478 . S
C362 C361 1.478 . S
C362 C363 1.397 1_554 S
C362 C379 1.394 . S
C363 C362 1.397 1_556 S
C363 C364 1.438 . S
C363 C368 1.429 1_556 S
C364 C363 1.438 . S
C364 C365 1.428 . S
C364 C377 1.394 . S
C365 H357 0.949 . S
C365 C364 1.428 . S
C365 C366 1.345 . S
C366 H358 0.950 . S
C366 C365 1.345 . S
C366 C367 1.424 . S
C367 H359 0.951 . S
C367 C366 1.424 . S
C367 C368 1.347 1_556 S
C368 H360 0.951 . S
C368 C363 1.429 1_554 S
C368 C367 1.347 1_554 S
H369 C370 0.951 . S
C370 H369 0.951 . S
C370 C376 1.265 . S
H371 C376 0.950 . S
H372 C380 0.949 . S
H373 C381 0.950 . S
H374 C382 0.951 . S
H375 C383 0.951 . S
C376 C370 1.265 . S
C376 H371 0.950 . S
C376 C377 1.478 . S
C377 C364 1.394 . S
C377 C376 1.478 . S
C377 C378 1.397 . S
C378 C377 1.397 . S
C378 C379 1.438 1_556 S
C378 C383 1.429 . S
C379 C362 1.394 . S
C379 C378 1.438 1_554 S
C379 C380 1.428 . S
C380 H372 0.949 . S
C380 C379 1.428 . S
C380 C381 1.345 . S
C381 H373 0.950 . S
C381 C380 1.345 . S
C381 C382 1.424 . S
C382 H374 0.951 . S
C382 C381 1.424 . S
C382 C383 1.347 1_554 S
C383 H375 0.951 . S
C383 C378 1.429 . S
C383 C382 1.347 1_556 S
H384 C385 0.951 . S
C385 H384 0.951 . S
C385 C391 1.265 . S
H386 C391 0.950 . S
H387 C395 0.949 . S
H388 C396 0.950 . S
H389 C397 0.951 . S
H390 C398 0.951 . S
C391 C385 1.265 . S
C391 H386 0.950 . S
C391 C392 1.478 . S
C392 C391 1.478 . S
C392 C393 1.397 . S
C392 C409 1.394 . S
C393 C392 1.397 . S
C393 C394 1.438 . S
C393 C398 1.429 . S
C394 C393 1.438 . S
C394 C395 1.428 1_556 S
C394 C407 1.394 . S
C395 H387 0.949 . S
C395 C394 1.428 1_554 S
C395 C396 1.345 . S
C396 H388 0.950 . S
C396 C395 1.345 . S
C396 C397 1.424 1_554 S
C397 H389 0.951 . S
C397 C396 1.424 1_556 S
C397 C398 1.347 . S
C398 H390 0.951 . S
C398 C393 1.429 . S
C398 C397 1.347 . S
H399 C400 0.951 . S
C400 H399 0.951 . S
C400 C406 1.265 . S
H401 C406 0.950 . S
H402 C410 0.949 . S
H403 C411 0.950 . S
H404 C412 0.951 . S
H405 C413 0.951 . S
C406 C400 1.265 . S
C406 H401 0.950 . S
C406 C407 1.478 1_554 S
C407 C394 1.394 . S
C407 C406 1.478 1_556 S
C407 C408 1.397 . S
C408 C407 1.397 . S
C408 C409 1.438 . S
C408 C413 1.429 . S
C409 C392 1.394 . S
C409 C408 1.438 . S
C409 C410 1.428 . S
C410 H402 0.949 . S
C410 C409 1.428 . S
C410 C411 1.345 . S
C411 H403 0.950 . S
C411 C410 1.345 . S
C411 C412 1.424 . S
C412 H404 0.951 . S
C412 C411 1.424 . S
C412 C413 1.347 . S
C413 H405 0.951 . S
C413 C408 1.429 . S
C413 C412 1.347 . S
H414 C415 0.951 . S
C415 H414 0.951 . S
C415 C421 1.265 . S
H416 C421 0.950 . S
H417 C425 0.949 . S
H418 C426 0.950 . S
H419 C427 0.951 . S
H420 C428 0.951 . S
C421 C415 1.265 . S
C421 H416 0.950 . S
C421 C422 1.478 . S
C422 C421 1.478 . S
C422 C423 1.397 . S
C422 C439 1.394 . S
C423 C422 1.397 . S
C423 C424 1.438 . S
C423 C428 1.429 1_565 S
C424 C423 1.438 . S
C424 C425 1.428 1_565 S
C424 C437 1.394 . S
C425 H417 0.949 . S
C425 C424 1.428 1_545 S
C425 C426 1.345 . S
C426 H418 0.950 . S
C426 C425 1.345 . S
C426 C427 1.424 . S
C427 H419 0.951 . S
C427 C426 1.424 . S
C427 C428 1.347 . S
C428 H420 0.951 . S
C428 C423 1.429 1_545 S
C428 C427 1.347 . S
H429 C430 0.951 . S
C430 H429 0.951 . S
C430 C436 1.265 . S
H431 C436 0.950 . S
H432 C440 0.949 . S
H433 C441 0.950 . S
H434 C442 0.951 . S
H435 C443 0.951 . S
C436 C430 1.265 . S
C436 H431 0.950 . S
C436 C437 1.478 . S
C437 C424 1.394 . S
C437 C436 1.478 . S
C437 C438 1.397 . S
C438 C437 1.397 . S
C438 C439 1.438 . S
C438 C443 1.429 . S
C439 C422 1.394 . S
C439 C438 1.438 . S
C439 C440 1.428 . S
C440 H432 0.949 . S
C440 C439 1.428 . S
C440 C441 1.345 . S
C441 H433 0.950 . S
C441 C440 1.345 . S
C441 C442 1.424 . S
C442 H434 0.951 . S
C442 C441 1.424 . S
C442 C443 1.347 . S
C443 H435 0.951 . S
C443 C438 1.429 . S
C443 C442 1.347 . S
H444 C445 0.951 . S
C445 H444 0.951 . S
C445 C451 1.265 . S
H446 C451 0.950 . S
H447 C455 0.949 . S
H448 C456 0.950 . S
H449 C457 0.951 . S
H450 C458 0.951 . S
C451 C445 1.265 . S
C451 H446 0.950 . S
C451 C452 1.478 . S
C452 C451 1.478 . S
C452 C453 1.397 . S
C452 C469 1.394 . S
C453 C452 1.397 . S
C453 C454 1.438 . S
C453 C458 1.429 . S
C454 C453 1.438 . S
C454 C455 1.428 . S
C454 C467 1.394 . S
C455 H447 0.949 . S
C455 C454 1.428 . S
C455 C456 1.345 . S
C456 H448 0.950 . S
C456 C455 1.345 . S
C456 C457 1.424 . S
C457 H449 0.951 . S
C457 C456 1.424 . S
C457 C458 1.347 . S
C458 H450 0.951 . S
C458 C453 1.429 . S
C458 C457 1.347 . S
H459 C460 0.951 . S
C460 H459 0.951 . S
C460 C466 1.265 . S
H461 C466 0.950 . S
H462 C470 0.949 . S
H463 C471 0.950 . S
H464 C472 0.951 . S
H465 C473 0.951 . S
C466 C460 1.265 . S
C466 H461 0.950 . S
C466 C467 1.478 . S
C467 C454 1.394 . S
C467 C466 1.478 . S
C467 C468 1.397 . S
C468 C467 1.397 . S
C468 C469 1.438 . S
C468 C473 1.429 . S
C469 C452 1.394 . S
C469 C468 1.438 . S
C469 C470 1.428 . S
C470 H462 0.949 . S
C470 C469 1.428 . S
C470 C471 1.345 . S
C471 H463 0.950 . S
C471 C470 1.345 . S
C471 C472 1.424 . S
C472 H464 0.951 . S
C472 C471 1.424 . S
C472 C473 1.347 . S
C473 H465 0.951 . S
C473 C468 1.429 . S
C473 C472 1.347 . S
H474 C475 0.951 . S
C475 H474 0.951 . S
C475 C481 1.265 . S
H476 C481 0.950 . S
H477 C485 0.949 1_565 S
H478 C486 0.950 1_565 S
H479 C487 0.951 . S
H480 C488 0.951 . S
C481 C475 1.265 . S
C481 H476 0.950 . S
C481 C482 1.478 . S
C482 C481 1.478 . S
C482 C483 1.397 . S
C482 C499 1.394 . S
C483 C482 1.397 . S
C483 C484 1.438 . S
C483 C488 1.429 . S
C484 C483 1.438 . S
C484 C485 1.428 . S
C484 C497 1.394 . S
C485 H477 0.949 1_545 S
C485 C484 1.428 . S
C485 C486 1.345 . S
C486 H478 0.950 1_545 S
C486 C485 1.345 . S
C486 C487 1.424 . S
C487 H479 0.951 . S
C487 C486 1.424 . S
C487 C488 1.347 . S
C488 H480 0.951 . S
C488 C483 1.429 . S
C488 C487 1.347 . S
H489 C490 0.951 . S
C490 H489 0.951 . S
C490 C496 1.265 . S
H491 C496 0.950 . S
H492 C500 0.949 . S
H493 C501 0.950 . S
H494 C502 0.951 . S
H495 C503 0.951 . S
C496 C490 1.265 . S
C496 H491 0.950 . S
C496 C497 1.478 1_565 S
C497 C484 1.394 . S
C497 C496 1.478 1_545 S
C497 C498 1.397 . S
C498 C497 1.397 . S
C498 C499 1.438 . S
C498 C503 1.429 . S
C499 C482 1.394 . S
C499 C498 1.438 . S
C499 C500 1.428 . S
C500 H492 0.949 . S
C500 C499 1.428 . S
C500 C501 1.345 . S
C501 H493 0.950 . S
C501 C500 1.345 . S
C501 C502 1.424 . S
C502 H494 0.951 . S
C502 C501 1.424 . S
C502 C503 1.347 . S
C503 H495 0.951 . S
C503 C498 1.429 . S
C503 C502 1.347 . S
H504 C505 0.951 . S
C505 H504 0.951 . S
C505 C511 1.265 . S
H506 C511 0.950 . S
H507 C515 0.949 . S
H508 C516 0.950 . S
H509 C517 0.951 . S
H510 C518 0.951 1_655 S
C511 C505 1.265 . S
C511 H506 0.950 . S
C511 C512 1.478 . S
C512 C511 1.478 . S
C512 C513 1.397 1_655 S
C512 C529 1.394 . S
C513 C512 1.397 1_455 S
C513 C514 1.438 . S
C513 C518 1.429 . S
C514 C513 1.438 . S
C514 C515 1.428 . S
C514 C527 1.394 . S
C515 H507 0.949 . S
C515 C514 1.428 . S
C515 C516 1.345 . S
C516 H508 0.950 . S
C516 C515 1.345 . S
C516 C517 1.424 . S
C517 H509 0.951 . S
C517 C516 1.424 . S
C517 C518 1.347 . S
C518 H510 0.951 1_455 S
C518 C513 1.429 . S
C518 C517 1.347 . S
H519 C520 0.951 . S
C520 H519 0.951 . S
C520 C526 1.265 . S
H521 C526 0.950 . S
H522 C530 0.949 . S
H523 C531 0.950 1_556 S
H524 C532 0.951 . S
H525 C533 0.951 . S
C526 C520 1.265 . S
C526 H521 0.950 . S
C526 C527 1.478 . S
C527 C514 1.394 . S
C527 C526 1.478 . S
C527 C528 1.397 . S
C528 C527 1.397 . S
C528 C529 1.438 1_455 S
C528 C533 1.429 . S
C529 C512 1.394 . S
C529 C528 1.438 1_655 S
C529 C530 1.428 . S
C530 H522 0.949 . S
C530 C529 1.428 . S
C530 C531 1.345 . S
C531 H523 0.950 1_554 S
C531 C530 1.345 . S
C531 C532 1.424 1_655 S
C532 H524 0.951 . S
C532 C531 1.424 1_455 S
C532 C533 1.347 . S
C533 H525 0.951 . S
C533 C528 1.429 . S
C533 C532 1.347 . S
H534 C535 0.951 . S
C535 H534 0.951 . S
C535 C541 1.265 . S
H536 C541 0.950 . S
H537 C545 0.949 . S
H538 C546 0.950 . S
H539 C547 0.951 . S
H540 C548 0.951 . S
C541 C535 1.265 . S
C541 H536 0.950 . S
C541 C542 1.478 . S
C542 C541 1.478 . S
C542 C543 1.397 . S
C542 C559 1.394 . S
C543 C542 1.397 . S
C543 C544 1.438 . S
C543 C548 1.429 . S
C544 C543 1.438 . S
C544 C545 1.428 1_554 S
C544 C557 1.394 . S
C545 H537 0.949 . S
C545 C544 1.428 1_556 S
C545 C546 1.345 . S
C546 H538 0.950 . S
C546 C545 1.345 . S
C546 C547 1.424 . S
C547 H539 0.951 . S
C547 C546 1.424 . S
C547 C548 1.347 1_556 S
C548 H540 0.951 . S
C548 C543 1.429 . S
C548 C547 1.347 1_554 S
H549 C550 0.951 . S
C550 H549 0.951 . S
C550 C556 1.265 . S
H551 C556 0.950 . S
H552 C560 0.949 . S
H553 C561 0.950 . S
H554 C562 0.951 . S
H555 C563 0.951 . S
C556 C550 1.265 . S
C556 H551 0.950 . S
C556 C557 1.478 . S
C557 C544 1.394 . S
C557 C556 1.478 . S
C557 C558 1.397 . S
C558 C557 1.397 . S
C558 C559 1.438 . S
C558 C563 1.429 . S
C559 C542 1.394 . S
C559 C558 1.438 . S
C559 C560 1.428 . S
C560 H552 0.949 . S
C560 C559 1.428 . S
C560 C561 1.345 . S
C561 H553 0.950 . S
C561 C560 1.345 . S
C561 C562 1.424 . S
C562 H554 0.951 . S
C562 C561 1.424 . S
C562 C563 1.347 . S
C563 H555 0.951 . S
C563 C558 1.429 . S
C563 C562 1.347 . S
H564 C565 0.951 . S
C565 H564 0.951 . S
C565 C571 1.265 . S
H566 C571 0.950 . S
H567 C575 0.949 . S
H568 C576 0.950 . S
H569 C577 0.951 . S
H570 C578 0.951 . S
C571 C565 1.265 . S
C571 H566 0.950 . S
C571 C572 1.478 . S
C572 C571 1.478 . S
C572 C573 1.397 . S
C572 C589 1.394 . S
C573 C572 1.397 . S
C573 C574 1.438 . S
C573 C578 1.429 . S
C574 C573 1.438 . S
C574 C575 1.428 . S
C574 C587 1.394 . S
C575 H567 0.949 . S
C575 C574 1.428 . S
C575 C576 1.345 . S
C576 H568 0.950 . S
C576 C575 1.345 . S
C576 C577 1.424 . S
C577 H569 0.951 . S
C577 C576 1.424 . S
C577 C578 1.347 . S
C578 H570 0.951 . S
C578 C573 1.429 . S
C578 C577 1.347 . S
H579 C580 0.951 . S
C580 H579 0.951 . S
C580 C586 1.265 . S
H581 C586 0.950 . S
H582 C590 0.949 . S
H583 C591 0.950 . S
H584 C592 0.951 . S
H585 C593 0.951 . S
C586 C580 1.265 . S
C586 H581 0.950 . S
C586 C587 1.478 . S
C587 C574 1.394 . S
C587 C586 1.478 . S
C587 C588 1.397 . S
C588 C587 1.397 . S
C588 C589 1.438 . S
C588 C593 1.429 . S
C589 C572 1.394 . S
C589 C588 1.438 . S
C589 C590 1.428 . S
C590 H582 0.949 . S
C590 C589 1.428 . S
C590 C591 1.345 . S
C591 H583 0.950 . S
C591 C590 1.345 . S
C591 C592 1.424 . S
C592 H584 0.951 . S
C592 C591 1.424 . S
C592 C593 1.347 . S
C593 H585 0.951 . S
C593 C588 1.429 . S
C593 C592 1.347 . S
H594 C595 0.951 . S
C595 H594 0.951 . S
C595 C601 1.265 . S
H596 C601 0.950 . S
H597 C605 0.949 . S
H598 C606 0.950 . S
H599 C607 0.951 . S
H600 C608 0.951 . S
C601 C595 1.265 . S
C601 H596 0.950 . S
C601 C602 1.478 . S
C602 C601 1.478 . S
C602 C603 1.397 . S
C602 C619 1.394 . S
C603 C602 1.397 . S
C603 C604 1.438 . S
C603 C608 1.429 . S
C604 C603 1.438 . S
C604 C605 1.428 . S
C604 C617 1.394 . S
C605 H597 0.949 . S
C605 C604 1.428 . S
C605 C606 1.345 . S
C606 H598 0.950 . S
C606 C605 1.345 . S
C606 C607 1.424 . S
C607 H599 0.951 . S
C607 C606 1.424 . S
C607 C608 1.347 . S
C608 H600 0.951 . S
C608 C603 1.429 . S
C608 C607 1.347 . S
H609 C610 0.951 . S
C610 H609 0.951 . S
C610 C616 1.265 . S
H611 C616 0.950 . S
H612 C620 0.949 . S
H613 C621 0.950 . S
H614 C622 0.951 . S
H615 C623 0.951 . S
C616 C610 1.265 . S
C616 H611 0.950 . S
C616 C617 1.478 . S
C617 C604 1.394 . S
C617 C616 1.478 . S
C617 C618 1.397 . S
C618 C617 1.397 . S
C618 C619 1.438 . S
C618 C623 1.429 . S
C619 C602 1.394 . S
C619 C618 1.438 . S
C619 C620 1.428 . S
C620 H612 0.949 . S
C620 C619 1.428 . S
C620 C621 1.345 . S
C621 H613 0.950 . S
C621 C620 1.345 . S
C621 C622 1.424 . S
C622 H614 0.951 . S
C622 C621 1.424 . S
C622 C623 1.347 . S
C623 H615 0.951 . S
C623 C618 1.429 . S
C623 C622 1.347 . S
H624 C625 0.951 . S
C625 H624 0.951 . S
C625 C631 1.265 . S
H626 C631 0.950 . S
H627 C635 0.949 . S
H628 C636 0.950 . S
H629 C637 0.951 . S
H630 C638 0.951 . S
C631 C625 1.265 . S
C631 H626 0.950 . S
C631 C632 1.478 . S
C632 C631 1.478 . S
C632 C633 1.397 . S
C632 C649 1.394 . S
C633 C632 1.397 . S
C633 C634 1.438 . S
C633 C638 1.429 . S
C634 C633 1.438 . S
C634 C635 1.428 . S
C634 C647 1.394 . S
C635 H627 0.949 . S
C635 C634 1.428 . S
C635 C636 1.345 . S
C636 H628 0.950 . S
C636 C635 1.345 . S
C636 C637 1.424 . S
C637 H629 0.951 . S
C637 C636 1.424 . S
C637 C638 1.347 . S
C638 H630 0.951 . S
C638 C633 1.429 . S
C638 C637 1.347 . S
H639 C640 0.951 . S
C640 H639 0.951 . S
C640 C646 1.265 . S
H641 C646 0.950 . S
H642 C650 0.949 . S
H643 C651 0.950 . S
H644 C652 0.951 . S
H645 C653 0.951 . S
C646 C640 1.265 . S
C646 H641 0.950 . S
C646 C647 1.478 . S
C647 C634 1.394 . S
C647 C646 1.478 . S
C647 C648 1.397 . S
C648 C647 1.397 . S
C648 C649 1.438 . S
C648 C653 1.429 . S
C649 C632 1.394 . S
C649 C648 1.438 . S
C649 C650 1.428 . S
C650 H642 0.949 . S
C650 C649 1.428 . S
C650 C651 1.345 . S
C651 H643 0.950 . S
C651 C650 1.345 . S
C651 C652 1.424 . S
C652 H644 0.951 . S
C652 C651 1.424 . S
C652 C653 1.347 . S
C653 H645 0.951 . S
C653 C648 1.429 . S
C653 C652 1.347 . S
C205 C107 1.398 . S
C220 C20 1.451 . S
C235 C138 1.461 . S
C250 C9 1.399 . S
C265 C2 1.387 . S
C280 C175 1.174 . S
C295 C77 1.316 . S
C310 C5 1.305 . S
C325 C179 1.213 . S
C340 C54 1.188 . S
C355 C73 1.039 . S
C370 C39 1.122 . S
C385 C36 1.110 . S
C400 C111 1.121 . S
C415 C156 1.336 . S
C430 C43 1.409 . S
C445 C88 1.466 . S
C460 C122 1.401 . S
C475 C70 1.597 . S
C490 C172 1.565 . S
C505 C141 0.955 . S
C520 C104 1.186 . S
C535 C190 1.617 . S
C550 C145 1.502 . S
C565 C67 1.661 . S
C580 C33 1.679 . S
C595 C169 1.521 . S
C610 C101 1.516 . S
C625 C203 1.371 . S
C640 C135 1.352 . S
