# Generated by pormake.
# Topology snp, (6)-cn, num edge types: 1
# Building blocks:
#     Node 0, Type 0, BuildingBlock: HISSIN_clean_sbu_0, # of connection points: 6
#     Node 1, Type 0, BuildingBlock: HISSIN_clean_sbu_0, # of connection points: 6
#     Node 2, Type 0, BuildingBlock: HISSIN_clean_sbu_0, # of connection points: 6
#     Node 3, Type 0, BuildingBlock: HISSIN_clean_sbu_0, # of connection points: 6
#     Edge 4, Type (0, 0), BuildingBlock: ZUJKAS_clean_linker_0, # of connection points: 2
#     Edge 5, Type (0, 0), BuildingBlock: ZUJKAS_clean_linker_0, # of connection points: 2
#     Edge 6, Type (0, 0), BuildingBlock: ZUJKAS_clean_linker_0, # of connection points: 2
#     Edge 7, Type (0, 0), BuildingBlock: ZUJKAS_clean_linker_0, # of connection points: 2
#     Edge 8, Type (0, 0), BuildingBlock: ZUJKAS_clean_linker_0, # of connection points: 2
#     Edge 9, Type (0, 0), BuildingBlock: ZUJKAS_clean_linker_0, # of connection points: 2
#     Edge 10, Type (0, 0), BuildingBlock: ZUJKAS_clean_linker_0, # of connection points: 2
#     Edge 11, Type (0, 0), BuildingBlock: ZUJKAS_clean_linker_0, # of connection points: 2
#     Edge 12, Type (0, 0), BuildingBlock: ZUJKAS_clean_linker_0, # of connection points: 2
#     Edge 13, Type (0, 0), BuildingBlock: ZUJKAS_clean_linker_0, # of connection points: 2
#     Edge 14, Type (0, 0), BuildingBlock: ZUJKAS_clean_linker_0, # of connection points: 2
#     Edge 15, Type (0, 0), BuildingBlock: ZUJKAS_clean_linker_0, # of connection points: 2
# Relax obj value: 0.536
# Max RMSD: 0.183
# Mean RMSD: 0.183
data_MOF--net-snp--node1-HISSIN_clean_sbu_0--edge1-ZUJKAS_clean_linker_0
_symmetry_space_group_name_H-M    P1
_symmetry_Int_Tables_number       1
_symmetry_cell_setting            triclinic
loop_
_symmetry_equiv_pos_as_xyz
'x, y, z'
_cell_length_a     30.808647
_cell_length_b     30.870099
_cell_length_c     38.533101
_cell_angle_alpha  89.71626
_cell_angle_beta   89.920779
_cell_angle_gamma 121.52155
loop_
_atom_site_label
_atom_site_type_symbol
_atom_site_fract_x
_atom_site_fract_y
_atom_site_fract_z
_atom_type_partial_charge
Eu0 Eu 0.25736 0.06063 0.11941 0.0
Eu1 Eu 0.34707 0.17715 0.11051 0.0
C2 C 0.37569 0.09637 0.13222 0.0
C3 C 0.19955 0.92456 0.14622 0.0
C4 C 0.24899 0.93368 0.1492 0.0
C5 C 0.16684 0.84409 0.17643 0.0
C6 C 0.25753 0.899 0.16627 0.0
C7 C 0.15834 0.8791 0.15925 0.0
C8 C 0.21674 0.85428 0.18086 0.0
C9 C 0.19206 0.96384 0.13091 0.0
O10 O 0.33503 0.14128 1.05424 0.0
O11 O 0.26067 0.06416 1.0611 0.0
C12 C 0.29678 0.09808 1.04076 0.0
O13 O 0.21788 0.09984 1.09619 0.0
O14 O 0.42622 0.22902 1.09508 0.0
O15 O 0.38247 0.25881 0.11737 0.0
O16 O 0.28688 0.17778 1.08019 0.0
C17 C 0.23839 0.14365 1.07904 0.0
O18 O 0.26071 0.09346 0.17356 0.0
O19 O 0.30648 0.17848 0.16135 0.0
O20 O 0.3818 0.14009 0.1407 0.0
O21 O 0.19831 -0.00035 0.15184 0.0
O22 O 0.21511 0.98228 1.10144 0.0
O23 O 0.33241 0.06181 0.11832 0.0
C24 C 0.44362 0.30842 1.07461 0.0
C25 C 0.40998 0.30816 1.05003 0.0
C26 C 0.5143 0.38029 1.04473 0.0
C27 C 0.42834 0.34373 1.02303 0.0
C28 C 0.49579 0.34484 1.07197 0.0
C29 C 0.48073 0.37995 1.01991 0.0
C30 C 0.4249 0.26962 0.10213 0.0
C31 C 0.27698 0.1406 0.18299 0.0
H32 H 0.28136 0.96853 0.13934 0.0
H33 H 0.13457 0.80989 0.18721 0.0
H34 H 0.29654 0.90887 0.16976 0.0
H35 H 0.11987 0.87137 0.15702 0.0
H36 H 0.36963 0.27989 1.05137 0.0
H37 H 0.55481 0.40768 1.04292 0.0
H38 H 0.40165 0.34174 1.00388 0.0
H39 H 0.52228 0.34535 1.09068 0.0
Eu40 Eu 0.02703 0.21817 0.58858 0.0
Eu41 Eu 0.1437 0.26437 0.61241 0.0
C42 C 0.10219 0.33832 0.59699 0.0
C43 C 0.92083 0.22368 0.54613 0.0
C44 C 0.94672 0.27704 0.54686 0.0
C45 C 0.87203 0.22397 0.49682 0.0
C46 C 0.93672 0.30366 0.52207 0.0
C47 C 0.88243 0.19724 0.52154 0.0
C48 C 0.9003 0.27742 0.49627 0.0
C49 C 0.93671 0.1964 0.5693 0.0
O50 O 0.10606 0.24848 0.66605 0.0
O51 O 0.02303 0.21675 0.64929 0.0
C52 C 0.05744 0.22842 0.67417 0.0
O53 O 0.02088 0.15293 0.6181 0.0
O54 O 0.22289 0.32619 0.60602 0.0
O55 O 0.2047 0.26046 0.63771 0.0
O56 O 0.10478 0.17868 0.61415 0.0
C57 C 0.05886 0.14761 0.62683 0.0
O58 O 0.06153 0.20024 0.541 0.0
O59 O 0.14603 0.25348 0.55325 0.0
O60 O 0.12853 0.32856 0.61893 0.0
O61 O 0.96063 0.17656 0.55471 0.0
O62 O 0.95846 0.21988 0.59799 0.0
O63 O 0.07017 0.30247 0.57614 0.0
C64 C 0.27716 0.33945 0.6533 0.0
C65 C 0.26433 0.33446 0.68863 0.0
C66 C 0.36348 0.40659 0.66718 0.0
C67 C 0.30113 0.36456 0.71313 0.0
C68 C 0.32669 0.3762 0.6427 0.0
C69 C 0.35138 0.40056 0.70277 0.0
C70 C 0.24016 0.30569 0.62726 0.0
C71 C 0.11004 0.22259 0.53138 0.0
H72 H 0.97608 0.29836 0.56583 0.0
H73 H 0.84418 0.20296 0.47685 0.0
H74 H 0.95896 0.34484 0.52217 0.0
H75 H 0.862 0.15612 0.52059 0.0
H76 H 0.22623 0.3065 0.69742 0.0
H77 H 0.40154 0.43433 0.65825 0.0
H78 H 0.29054 0.35817 0.74032 0.0
H79 H 0.33716 0.38079 0.61548 0.0
Eu80 Eu 0.94311 0.08939 0.122 0.0
Eu81 Eu 0.86304 0.96919 0.11011 0.0
C82 C 0.82127 0.04418 0.12473 0.0
C83 C 0.99667 0.22486 0.14885 0.0
C84 C 0.94763 0.21083 0.1598 0.0
C85 C 0.02891 0.3099 0.17088 0.0
C86 C 0.93919 0.24576 0.17635 0.0
C87 C 0.03727 0.2747 0.15408 0.0
C88 C 0.97974 0.29561 0.1824 0.0
C89 C 1.00451 0.18721 0.13159 0.0
O90 O 0.88702 0.00234 1.0536 0.0
O91 O 0.92587 0.08769 1.06432 0.0
C92 C 0.90894 0.05007 1.04202 0.0
O93 O 0.98358 0.05595 1.09305 0.0
O94 O 0.78804 0.90165 0.12007 0.0
O95 O 0.84319 0.89617 1.0885 0.0
O96 O 0.93849 0.9774 0.1168 0.0
C97 C 0.97655 0.01045 1.09795 0.0
O98 O 0.95312 0.05477 0.17194 0.0
O99 O 0.88385 0.97342 0.16885 0.0
O100 O 0.81533 0.005 0.10748 0.0
O101 O 1.00363 0.15258 0.15156 0.0
O102 O 0.97741 0.16755 0.10385 0.0
O103 O 0.86578 0.07689 0.1384 0.0
C104 C 0.758 0.84398 1.07316 0.0
C105 C 0.74226 0.793 1.06776 0.0
C106 C 0.71479 0.84341 1.02043 0.0
C107 C 0.71446 0.7678 1.03818 0.0
C108 C 0.74276 0.86861 1.04995 0.0
C109 C 0.70221 0.79341 1.01347 0.0
C110 C 0.79635 0.87299 1.0997 0.0
C111 C 0.92384 0.00943 0.18619 0.0
H112 H 0.91584 0.17254 0.15597 0.0
H113 H 0.0609 0.34799 0.17524 0.0
H114 H 0.90111 0.23295 0.18563 0.0
H115 H 0.07535 0.28618 0.14554 0.0
H116 H 0.75413 0.77362 1.08531 0.0
H117 H 0.7054 0.86395 1.0021 0.0
H118 H 0.70594 0.72957 1.03345 0.0
H119 H 0.75487 0.90815 1.05364 0.0
Eu120 Eu 0.18458 0.94233 0.58933 0.0
Eu121 Eu 0.06429 0.88499 0.61416 0.0
C122 C 0.11608 0.81906 0.59782 0.0
C123 C 0.29459 0.96248 0.53619 0.0
C124 C 0.3314 0.94905 0.54033 0.0
C125 C 0.27823 0.9283 0.47794 0.0
C126 C 0.34052 0.92401 0.51371 0.0
C127 C 0.26906 0.95304 0.50441 0.0
C128 C 0.31262 0.91187 0.48275 0.0
C129 C 0.27678 0.9778 0.56652 0.0
O130 O 0.10513 0.90559 0.667 0.0
O131 O 0.18887 0.94084 0.64963 0.0
C132 C 0.15412 0.92709 0.6747 0.0
O133 O 0.18091 0.00155 0.62017 0.0
O134 O 0.98497 0.82213 0.61125 0.0
O135 O 1.00468 0.88977 0.6407 0.0
O136 O 0.10093 0.96851 0.60264 0.0
C137 C 0.1388 0.00181 0.62169 0.0
O138 O 0.14311 0.94883 0.54087 0.0
O139 O 0.05921 0.89239 0.55495 0.0
O140 O 0.08275 0.82288 0.61679 0.0
O141 O 0.25103 -0.00016 0.5603 0.0
O142 O 0.25558 0.94299 0.59067 0.0
O143 O 0.15123 0.85815 0.57992 0.0
C144 C 0.93193 0.81208 0.65934 0.0
C145 C 0.94054 0.82623 0.69438 0.0
C146 C 0.84792 0.7408 0.6747 0.0
C147 C 0.90275 0.79859 0.71922 0.0
C148 C 0.88564 0.76876 0.6498 0.0
C149 C 0.85564 0.75589 0.70965 0.0
C150 C 0.96876 0.84396 0.6321 0.0
C151 C 0.09414 0.92358 0.53223 0.0
H152 H 0.35111 0.95552 0.56479 0.0
H153 H 0.25709 0.92055 0.45399 0.0
H154 H 0.36735 0.91191 0.51801 0.0
H155 H 0.24016 0.96253 0.5005 0.0
H156 H 0.97588 0.8595 0.70249 0.0
H157 H 0.81245 0.70781 0.66647 0.0
H158 H 0.90988 0.81199 0.74573 0.0
H159 H 0.87818 0.75719 0.62289 0.0
H160 H 0.07261 0.02894 1.0877 0.0
H161 H 0.10431 0.01357 1.03413 0.0
H162 H 0.95152 0.93177 0.99302 0.0
H163 H 0.91996 0.94394 1.04769 0.0
H164 H 1.00174 0.01563 0.95815 0.0
H165 H 0.13146 0.9515 0.95201 0.0
H166 H 0.07649 0.91915 0.98035 0.0
H167 H 0.13773 0.96811 0.99696 0.0
C168 C 0.04585 0.00612 1.06765 0.0
C169 C 0.99449 0.99001 1.0709 0.0
C170 C 0.06358 -0.0036 1.03703 0.0
C171 C 0.03045 0.97304 1.0086 0.0
C172 C 0.97802 0.95046 1.01411 0.0
H173 H 0.27854 0.18283 1.01596 0.0
H174 H 0.23152 0.15865 0.96185 0.0
C175 C 0.96018 0.95847 1.04524 0.0
C176 C 0.05153 0.98903 0.97292 0.0
H177 H 0.17856 0.05503 0.96165 0.0
C178 C 0.04028 0.0234 0.95736 0.0
C179 C 0.09992 -0.00341 0.96594 0.0
C180 C 0.11162 0.95619 0.9744 0.0
C181 C 0.08018 0.07348 0.95094 0.0
C182 C 0.12996 0.08609 0.95915 0.0
C183 C 0.13987 0.04639 0.95891 0.0
C184 C 0.15771 0.12439 0.98649 0.0
C185 C 0.06842 0.11409 0.94352 0.0
C186 C 0.13226 0.11765 1.01844 0.0
C187 C 0.15875 0.12774 1.04971 0.0
C188 C 0.21126 0.14829 1.04911 0.0
C189 C 0.2376 0.16536 1.01719 0.0
C190 C 0.21093 0.15248 0.98599 0.0
H191 H 0.04383 0.10345 0.92024 0.0
H192 H 0.04698 0.117 0.96567 0.0
H193 H 0.10359 0.15166 0.9389 0.0
H194 H 0.09109 0.0974 1.01961 0.0
H195 H 0.13793 0.11604 1.07401 0.0
H196 H 0.20239 0.0484 0.67721 0.0
H197 H 0.17565 0.04725 0.73677 0.0
H198 H 0.02185 0.9891 0.70066 0.0
H199 H 0.04866 0.99001 0.64214 0.0
H200 H 0.1496 0.077 0.78223 0.0
H201 H 0.96812 0.91839 0.78687 0.0
H202 H 1.01146 0.91584 0.75642 0.0
H203 H 0.96246 0.92756 0.74172 0.0
C204 C 0.16289 0.03583 0.68216 0.0
C205 C 0.12701 0.01688 0.65512 0.0
C206 C 0.14733 0.0343 0.71651 0.0
C207 C 0.09565 0.01414 0.72459 0.0
C208 C 0.06119 0.00064 0.69667 0.0
H209 H 0.97136 0.08534 0.66385 0.0
H210 H 0.96493 0.06266 0.72502 0.0
C211 C 0.07678 0.00247 0.66255 0.0
C212 C 0.07879 0.01508 0.76095 0.0
H213 H 0.96608 0.00814 0.76831 0.0
C214 C 0.10909 0.06077 0.77914 0.0
C215 C 0.02578 0.9912 0.76726 0.0
C216 C 0.9903 0.93498 0.76259 0.0
C217 C 0.08805 0.09083 0.78584 0.0
C218 C 0.0417 0.07616 0.76889 0.0
C219 C 1.00651 0.02342 0.77124 0.0
C220 C 0.04617 0.09721 0.73271 0.0
C221 C 0.11891 0.14169 0.80283 0.0
C222 C 0.09381 0.12364 0.71526 0.0
C223 C 0.09731 0.13538 0.68001 0.0
C224 C 0.05364 0.12232 0.6608 0.0
C225 C 1.00593 0.09529 0.67765 0.0
C226 C 1.00229 0.08317 0.71305 0.0
H227 H 0.09385 0.14856 0.81965 0.0
H228 H 0.14992 0.1437 0.81878 0.0
H229 H 0.13621 0.1722 0.78287 0.0
H230 H 0.1291 0.13451 0.72823 0.0
H231 H 0.13479 0.15677 0.66825 0.0
H232 H 0.81552 0.12312 0.15446 0.0
H233 H 0.74066 0.13179 0.15875 0.0
H234 H 0.6499 0.98889 0.10639 0.0
H235 H 0.72362 0.97974 0.1023 0.0
H236 H 0.67933 0.13647 0.10754 0.0
H237 H 0.56077 0.96707 0.18999 0.0
H238 H 0.62812 -0.00659 0.18372 0.0
H239 H 0.58339 0.95288 0.15134 0.0
C240 C 0.77958 0.09335 0.14406 0.0
C241 C 0.7761 0.05055 0.12821 0.0
C242 C 0.73661 0.09839 0.14647 0.0
C243 C 0.6888 0.06055 0.1335 0.0
C244 C 0.68556 0.01816 0.11745 0.0
H245 H 0.3827 0.01429 0.11158 0.0
H246 H 0.45801 0.00633 0.11243 0.0
C247 C 0.72828 0.01318 0.11492 0.0
C248 C 0.64265 0.06564 0.13567 0.0
H249 H 0.51831 0.00467 0.16355 0.0
C250 C 0.64434 0.10783 0.1201 0.0
C251 C 0.59637 0.02828 0.15178 0.0
C252 C 0.59202 0.9831 0.17045 0.0
C253 C 0.60128 0.11297 0.11936 0.0
C254 C 0.55491 0.07551 0.13537 0.0
C255 C 0.55335 0.03347 0.15113 0.0
C256 C 0.50795 0.07941 0.13614 0.0
C257 C 0.60558 0.15785 1.10026 0.0
C258 C 0.50965 0.12233 0.15008 0.0
C259 C 0.46657 0.12697 0.1496 0.0
C260 C 0.41995 0.0886 0.13547 0.0
C261 C 0.41768 0.04474 0.12264 0.0
C262 C 0.46097 0.04018 0.12308 0.0
H263 H 0.6372 0.17401 1.08101 0.0
H264 H 0.56969 0.14715 1.08654 0.0
H265 H 0.61358 0.18813 0.11916 0.0
H266 H 0.54455 0.15263 0.16132 0.0
H267 H 0.47016 0.16123 0.15997 0.0
H268 H 0.05634 0.37216 0.55247 0.0
H269 H 0.05966 0.45278 0.55294 0.0
H270 H 0.16508 0.5035 0.63831 0.0
H271 H 0.15966 0.42133 0.63917 0.0
H272 H 0.09899 0.53042 0.65001 0.0
H273 H 0.16409 0.58676 0.5147 0.0
H274 H 0.10542 0.5266 0.51649 0.0
H275 H 0.16215 0.53318 0.53523 0.0
C276 C 0.08008 0.40018 0.57155 0.0
C277 C 0.10738 0.38956 0.59598 0.0
C278 C 0.08257 0.44697 0.57144 0.0
C279 C 0.11345 0.48538 0.59519 0.0
C280 C 0.14105 0.475 0.61952 0.0
H281 H 0.18788 0.8008 0.57104 0.0
H282 H 0.18775 0.72152 0.57161 0.0
C283 C 0.13811 0.42786 0.6199 0.0
C284 C 0.11562 0.53543 0.59534 0.0
H285 H 0.13237 0.63341 0.54312 0.0
C286 C 0.10662 0.55297 0.6266 0.0
C287 C 0.12642 0.566 0.5651 0.0
C288 C 0.14061 0.55247 0.5311 0.0
C289 C 0.10708 0.59897 0.62833 0.0
C290 C 0.11523 0.62817 0.59771 0.0
C291 C 0.12527 0.61114 0.56661 0.0
C292 C 0.11474 0.67687 0.59743 0.0
C293 C 0.10018 0.61631 0.66333 0.0
C294 C 0.07347 0.67899 0.61119 0.0
C295 C 0.07373 0.72476 0.61127 0.0
C296 C 0.11482 0.76971 0.59693 0.0
C297 C 0.15546 0.76722 0.58233 0.0
C298 C 0.15543 0.72161 0.58263 0.0
H299 H 0.11095 0.59954 0.68474 0.0
H300 H 0.12335 0.65833 0.66553 0.0
H301 H 0.05949 0.60367 0.66699 0.0
H302 H 0.04068 0.64509 0.62177 0.0
H303 H 0.04148 0.72479 0.62246 0.0
H304 H 0.05005 0.17218 0.47283 0.0
H305 H 0.07635 0.15799 0.41561 0.0
H306 H 0.23227 0.23698 0.44917 0.0
H307 H 0.20637 0.25139 0.50598 0.0
H308 H 0.13852 0.21941 0.36194 0.0
H309 H 0.22253 0.11068 0.40995 0.0
H310 H 0.18294 0.1239 0.4369 0.0
H311 H 0.24918 0.17138 0.43056 0.0
C312 C 0.09004 0.18657 0.46829 0.0
C313 C 0.12557 0.21306 0.49516 0.0
C314 C 0.10531 0.17842 0.43504 0.0
C315 C 0.15681 0.19543 0.42697 0.0
C316 C 0.19221 0.22203 0.4538 0.0
H317 H 0.28987 0.23044 0.21168 0.0
H318 H 0.26149 0.24363 0.26824 0.0
C319 C 0.1771 0.2307 0.48679 0.0
C320 C 0.1736 0.18623 0.391 0.0
H321 H 0.24071 0.13854 0.35119 0.0
C322 C 0.16095 0.20176 0.35992 0.0
C323 C 0.20217 0.16211 0.3868 0.0
C324 C 0.21463 0.14053 0.41772 0.0
C325 C 0.1767 0.19545 0.3262 0.0
C326 C 0.20721 0.17335 0.32213 0.0
C327 C 0.21856 0.15649 0.35316 0.0
C328 C 0.22589 0.16574 0.28635 0.0
C329 C 0.15874 0.21119 0.29494 0.0
C330 C 0.21769 0.11795 0.27628 0.0
C331 C 0.23407 0.11028 0.24346 0.0
C332 C 0.26057 0.15014 0.21885 0.0
C333 C 0.26973 0.19826 0.22914 0.0
C334 C 0.25279 0.20581 0.2619 0.0
H335 H 0.1494 0.1843 0.27318 0.0
H336 H 0.12456 0.21317 0.30104 0.0
H337 H 0.1894 0.24951 0.28624 0.0
H338 H 0.19774 0.08578 0.29376 0.0
H339 H 0.22581 0.0725 0.23741 0.0
H340 H 0.95938 0.1735 0.70323 0.0
H341 H 0.93367 0.14401 0.76331 0.0
H342 H 0.09145 0.21757 0.79232 0.0
H343 H 0.11691 0.24662 0.73281 0.0
H344 H 0.93484 0.08317 0.80564 0.0
H345 H 0.05596 0.26437 0.87285 0.0
H346 H 0.0508 0.26159 0.82634 0.0
H347 H 0.09454 0.24818 0.84805 0.0
C348 C 0.98882 0.18415 0.72245 0.0
C349 C 0.04065 0.21347 0.71226 0.0
C350 C 0.97392 0.16665 0.75729 0.0
C351 C 1.00997 0.17806 0.78399 0.0
C352 C 0.06173 0.20788 0.77365 0.0
H353 H 0.9319 0.13985 1.00969 0.0
H354 H 0.95217 0.16631 0.94919 0.0
C355 C 0.07662 0.22493 0.73889 0.0
C356 C 0.99356 0.15785 0.82174 0.0
H357 H 0.01982 0.1901 0.90816 0.0
C358 C 0.95336 0.10716 0.82789 0.0
C359 C 1.01631 0.18779 0.85203 0.0
C360 C 0.05637 0.24358 0.84951 0.0
C361 C 0.93583 0.08635 0.86196 0.0
C362 C 0.96003 0.1157 0.89227 0.0
C363 C 1.00035 0.16631 0.88602 0.0
C364 C 0.94382 0.09636 0.93029 0.0
C365 C 0.88983 0.0333 0.8646 0.0
C366 C 0.9311 0.0473 0.94205 0.0
C367 C 0.91802 0.03133 0.9774 0.0
C368 C 0.91806 0.06396 1.00309 0.0
C369 C 0.93095 0.11288 0.99138 0.0
C370 C 0.94313 0.12844 0.95614 0.0
H371 H 0.86598 0.02309 0.84091 0.0
H372 H 0.90258 0.00582 0.86714 0.0
H373 H 0.86573 0.02909 0.88733 0.0
H374 H 0.93279 0.02135 0.92419 0.0
H375 H 0.90951 -0.00621 0.98479 0.0
H376 H 0.15021 0.96536 0.47059 0.0
H377 H 0.12152 0.97745 0.41384 0.0
H378 H 0.97075 0.91712 0.45566 0.0
H379 H 0.99853 0.90209 0.5113 0.0
H380 H 0.09247 0.02797 0.38359 0.0
H381 H 0.91964 0.83856 0.37261 0.0
H382 H 0.9157 0.86905 0.41079 0.0
H383 H 0.96446 0.8534 0.40711 0.0
C384 C 0.11065 0.95388 0.46771 0.0
C385 C 0.07696 0.93167 0.49632 0.0
C386 C 0.09396 0.96109 0.43476 0.0
C387 C 0.04273 0.947 0.42859 0.0
C388 C 1.00968 0.92643 0.45771 0.0
H389 H 0.90667 0.91858 0.21622 0.0
H390 H 0.93675 0.90521 0.27197 0.0
C391 C 0.02605 0.91824 0.49033 0.0
C392 C 0.02464 0.95501 0.39261 0.0
H393 H 0.92517 0.90173 0.33401 0.0
C394 C 0.05589 -0.00022 0.37295 0.0
C395 C 0.97734 0.91883 0.37676 0.0
C396 C 0.94268 0.86709 0.39272 0.0
C397 C 0.04177 0.00939 0.33965 0.0
C398 C 0.99301 0.97467 0.32484 0.0
C399 C 0.96211 0.9296 0.34432 0.0
C400 C 0.97382 0.98331 0.28945 0.0
C401 C 0.08122 0.05619 0.32028 0.0
C402 C 0.98248 0.03135 0.27895 0.0
C403 C 0.96628 0.03928 0.24617 0.0
C404 C 0.93839 -0.00072 0.22239 0.0
C405 C 0.92758 0.95074 0.23329 0.0
C406 C 0.94513 0.94307 0.26575 0.0
H407 H 0.12025 0.06709 0.32822 0.0
H408 H 0.07825 0.05035 0.29179 0.0
H409 H 0.07644 0.08846 0.32665 0.0
H410 H 1.00164 0.06342 0.2962 0.0
H411 H 0.97532 0.07728 0.23959 0.0
H412 H 0.09544 0.9083 0.73464 0.0
H413 H 0.12303 0.93946 0.79397 0.0
H414 H 0.27957 0.01106 0.76183 0.0
H415 H 0.25234 0.98109 0.70222 0.0
H416 H 0.20203 0.05584 0.81573 0.0
H417 H 0.25752 0.91788 0.85431 0.0
H418 H 0.27527 0.94644 0.81168 0.0
H419 H 0.20951 0.90281 0.82177 0.0
C420 C 0.13586 0.93011 0.74 0.0
C421 C 0.17125 0.94148 0.71268 0.0
C422 C 0.15177 0.94842 0.77434 0.0
C423 C 0.20382 0.97816 0.78331 0.0
C424 C 0.23921 0.98842 0.75636 0.0
H425 H 0.24224 0.0039 1.01087 0.0
H426 H 0.22383 0.97941 0.95028 0.0
C427 C 0.22337 0.97076 0.7219 0.0
C428 C 0.22102 -0.00163 0.82041 0.0
H429 H 0.27112 0.98002 0.89509 0.0
C430 C 0.21711 0.03912 0.83298 0.0
C431 C 0.24112 0.97746 0.84371 0.0
C432 C 0.24615 0.93358 0.83257 0.0
C433 C 0.23224 0.05897 0.86728 0.0
C434 C 0.2525 0.03805 0.89078 0.0
C435 C 0.25613 -0.00294 0.87801 0.0
C436 C 0.26718 0.05541 0.92889 0.0
C437 C 0.2252 0.10182 0.87795 0.0
C438 C 0.29979 0.10693 0.93894 0.0
C439 C 0.31156 0.12141 0.97455 0.0
C440 C 0.29077 0.08508 1.00178 0.0
C441 C 0.25928 0.03375 0.99142 0.0
C442 C 0.24843 0.01935 0.95615 0.0
H443 H 0.26156 0.13845 0.8739 0.0
H444 H 0.19553 0.10273 0.86215 0.0
H445 H 0.21448 0.09885 0.90568 0.0
H446 H 0.31653 0.13633 0.91922 0.0
H447 H 0.33589 0.16128 0.98071 0.0
H448 H 0.73624 0.84174 0.95149 0.0
H449 H 0.72075 0.80419 0.89455 0.0
H450 H 0.61393 0.65675 0.93825 0.0
H451 H 0.63018 0.69459 0.99625 0.0
H452 H 0.67814 0.64902 0.90059 0.0
H453 H 0.61838 0.75441 0.82023 0.0
H454 H 0.67236 0.80131 0.84394 0.0
H455 H 0.6153 0.7553 0.86703 0.0
C456 C 0.70788 0.80168 0.94903 0.0
C457 C 0.68429 0.77125 0.97848 0.0
C458 C 0.69879 0.78011 0.9162 0.0
C459 C 0.66525 0.72766 0.91176 0.0
C460 C 0.6396 0.69736 0.94091 0.0
H461 H 0.75331 0.7173 0.70075 0.0
H462 H 0.68747 0.68608 0.7456 0.0
C463 C 0.64904 0.71899 0.97403 0.0
C464 C 0.66448 0.70483 0.87775 0.0
H465 H 0.68386 0.73982 0.79261 0.0
C466 C 0.67767 0.66763 0.87677 0.0
C467 C 0.66134 0.72663 0.8462 0.0
C468 C 0.64038 0.76112 0.84452 0.0
C469 C 0.69528 0.65773 0.84599 0.0
C470 C 0.70176 0.68728 0.81603 0.0
C471 C 0.68105 0.71845 0.81581 0.0
C472 C 0.73763 0.69406 0.78765 0.0
C473 C 0.70917 0.61761 0.84649 0.0
C474 C 0.78757 0.70757 0.79599 0.0
C475 C 0.82507 0.72455 0.77033 0.0
C476 C 0.81392 0.72962 0.73574 0.0
C477 C 0.7633 0.71355 0.72705 0.0
C478 C 0.72555 0.69589 0.75275 0.0
H479 H 0.68118 0.58441 0.86234 0.0
H480 H 0.71046 0.60439 0.81997 0.0
H481 H 0.74696 0.63319 0.85886 0.0
H482 H 0.7986 0.70804 0.82271 0.0
H483 H 0.86336 0.73568 0.7779 0.0
H484 H 0.1706 0.81256 0.24285 0.0
H485 H 0.2054 0.78726 0.28966 0.0
H486 H 0.32432 0.80307 0.22184 0.0
H487 H 0.2889 0.82765 0.17412 0.0
H488 H 0.24553 0.71966 0.30554 0.0
H489 H 0.3942 0.92541 0.28989 0.0
H490 H 0.33493 0.89893 0.26676 0.0
H491 H 0.38049 0.88203 0.25473 0.0
C492 C 0.20263 0.80835 0.23718 0.0
C493 C 0.22775 0.82349 0.20494 0.0
C494 C 0.2226 0.79384 0.26412 0.0
C495 C 0.26803 0.79438 0.25936 0.0
C496 C 0.28958 0.80312 0.22609 0.0
H497 H 0.39922 0.9202 0.4554 0.0
H498 H 0.40435 0.87612 0.40413 0.0
C499 C 0.26946 0.81748 0.19897 0.0
C500 C 0.29729 0.79765 0.29062 0.0
H501 H 0.37855 0.89102 0.34545 0.0
C502 C 0.27609 0.75662 0.31403 0.0
C503 C 0.33817 0.84551 0.30142 0.0
C504 C 0.36353 0.89068 0.27705 0.0
C505 C 0.29011 0.76398 0.34913 0.0
C506 C 0.32449 0.81383 0.36104 0.0
C507 C 0.35135 0.85292 0.3366 0.0
C508 C 0.32267 0.82916 0.39723 0.0
C509 C 0.26504 0.71897 0.37349 0.0
C510 C 0.27523 0.81633 0.41119 0.0
C511 C 0.27234 0.84111 0.44032 0.0
C512 C 0.31679 0.88007 0.45589 0.0
C513 C 0.36436 0.89045 0.44374 0.0
C514 C 0.36727 0.8652 0.41453 0.0
H515 H 0.26309 0.68552 0.3612 0.0
H516 H 0.2858 0.72691 0.39844 0.0
H517 H 0.2253 0.70862 0.37876 0.0
H518 H 0.24016 0.79001 0.39804 0.0
H519 H 0.23512 0.83156 0.44959 0.0
H520 H 0.45052 0.42403 0.70173 0.0
H521 H 0.51076 0.45565 0.74982 0.0
H522 H 0.40258 0.46928 0.81259 0.0
H523 H 0.34327 0.44054 0.7641 0.0
H524 H 0.5057 0.54409 0.82756 0.0
H525 H 0.47122 0.34765 0.82479 0.0
H526 H 0.49918 0.38654 0.78681 0.0
H527 H 0.43461 0.36552 0.79859 0.0
C528 C 0.44014 0.43544 0.72531 0.0
C529 C 0.39145 0.42853 0.72932 0.0
C530 C 0.47459 0.4532 0.75287 0.0
C531 C 0.4606 0.46357 0.785 0.0
C532 C 0.414 0.46113 0.78807 0.0
H533 H 0.44214 0.43411 0.99179 0.0
H534 H 0.4603 0.47297 0.93427 0.0
C535 C 0.37981 0.44397 0.76046 0.0
C536 C 0.48964 0.46863 0.81688 0.0
H537 H 0.50745 0.39507 0.87429 0.0
C538 C 0.50729 0.51203 0.83753 0.0
C539 C 0.4923 0.427 0.82968 0.0
C540 C 0.47315 0.37887 0.80904 0.0
C541 C 0.5239 0.51327 0.87166 0.0
C542 C 0.52178 0.46969 0.88548 0.0
C543 C 0.5089 0.42843 0.86369 0.0
C544 C 0.52228 0.46105 0.9233 0.0
C545 C 0.54151 0.56028 0.89307 0.0
C546 C 0.55183 0.44245 0.93678 0.0
C547 C 0.54089 0.41941 0.96958 0.0
C548 C 0.49996 0.4143 0.98925 0.0
C549 C 0.47344 0.43693 0.97698 0.0
C550 C 0.48442 0.45997 0.94428 0.0
H551 H 0.55946 0.59489 0.8764 0.0
H552 H 0.50818 0.55782 0.90616 0.0
H553 H 0.56916 0.56433 0.91319 0.0
H554 H 0.58085 0.44241 0.9209 0.0
H555 H 0.56187 0.40216 0.9783 0.0
H556 H 0.89945 0.31048 0.18025 0.0
H557 H 0.87165 0.34256 0.22784 0.0
H558 H 1.01163 0.38885 0.28195 0.0
H559 H 0.03911 0.35628 0.23507 0.0
H560 H 0.85864 0.28906 0.28681 0.0
H561 H 0.97819 0.4924 0.31713 0.0
H562 H 0.97448 0.4679 0.27396 0.0
H563 H 0.0172 0.46734 0.30562 0.0
C564 C 0.92505 0.32916 0.20177 0.0
C565 C 0.97088 0.32965 0.20437 0.0
C566 C 0.90933 0.34797 0.22874 0.0
C567 C 0.93948 0.36807 0.25847 0.0
C568 C 0.98806 0.3744 0.25903 0.0
H569 H 0.97914 0.34468 0.45633 0.0
H570 H 0.97521 0.37738 0.39972 0.0
C571 C 1.0037 0.3554 0.23217 0.0
C572 C 0.91585 0.36831 0.29188 0.0
H573 H 0.94628 0.43403 0.36764 0.0
C574 C 0.87637 0.32118 0.30431 0.0
C575 C 0.93875 0.4103 0.31443 0.0
C576 C 0.97917 0.46245 0.30191 0.0
C577 C 0.86438 0.3129 0.33972 0.0
C578 C 0.8914 0.35374 0.36312 0.0
C579 C 0.92599 0.40257 0.34984 0.0
C580 C 0.89341 0.34412 0.40069 0.0
C581 C 0.82738 0.25913 0.35187 0.0
C582 C 0.8491 0.31659 0.42104 0.0
C583 C 0.85115 0.29635 0.45318 0.0
C584 C 0.89784 0.30532 0.46587 0.0
C585 C 0.94266 0.33731 0.44713 0.0
C586 C 0.94043 0.35623 0.41478 0.0
H587 H 0.81535 0.23112 0.33052 0.0
H588 H 0.84464 0.24784 0.37256 0.0
H589 H 0.79267 0.25663 0.36251 0.0
H590 H 0.81262 0.3082 0.41123 0.0
H591 H 0.81621 0.27232 0.46751 0.0
loop_
_geom_bond_atom_site_label_1
_geom_bond_atom_site_label_2
_geom_bond_distance
_geom_bond_site_symmetry_2
_ccdc_geom_bond_type
Eu0 C9 2.828 . S
Eu0 O11 2.392 1_554 S
Eu0 O13 2.418 . S
Eu0 O18 2.373 . S
Eu0 O21 2.488 . S
Eu0 O22 2.471 . S
Eu0 O23 2.349 . S
Eu1 O10 2.373 . S
Eu1 O14 2.488 . S
Eu1 O15 2.471 . S
Eu1 O16 2.349 . S
Eu1 O19 2.392 1_556 S
Eu1 O20 2.418 . S
Eu1 C30 2.828 . S
C2 O20 1.220 1_554 S
C2 O23 1.279 . S
C3 C4 1.379 . S
C3 C7 1.373 . S
C3 C9 1.505 . S
C4 C3 1.379 . S
C4 C6 1.369 . S
C4 H32 0.930 . S
C5 C7 1.383 1_565 S
C5 C8 1.382 1_565 S
C5 H33 0.930 . S
C6 C4 1.369 . S
C6 C8 1.392 . S
C6 H34 0.930 . S
C7 C3 1.373 . S
C7 C5 1.383 1_545 S
C7 H35 0.931 . S
C8 C5 1.382 1_545 S
C8 C6 1.392 . S
C9 Eu0 2.828 . S
C9 C3 1.505 . S
C9 O21 1.249 . S
C9 O22 1.244 . S
O10 Eu1 2.373 . S
O10 C12 1.258 . S
O11 Eu0 2.392 1_556 S
O11 C12 1.242 . S
C12 O10 1.258 . S
C12 O11 1.242 . S
O13 Eu0 2.418 . S
O13 C17 1.244 . S
O14 Eu1 2.488 . S
O14 C30 1.249 . S
O15 Eu1 2.471 . S
O15 C30 1.244 . S
O16 Eu1 2.349 . S
O16 C17 1.265 1_556 S
C17 O13 1.244 . S
C17 O16 1.265 1_554 S
O18 Eu0 2.373 . S
O18 C31 1.258 . S
O19 Eu1 2.392 1_554 S
O19 C31 1.242 . S
O20 Eu1 2.418 . S
O20 C2 1.220 1_556 S
O21 Eu0 2.488 . S
O21 C9 1.249 . S
O22 Eu0 2.471 . S
O22 C9 1.244 . S
O23 Eu0 2.349 . S
O23 C2 1.279 . S
C24 C25 1.379 . S
C24 C28 1.373 . S
C24 C30 1.505 . S
C25 C24 1.379 . S
C25 C27 1.369 . S
C25 H36 0.930 . S
C26 C28 1.383 . S
C26 C29 1.382 . S
C26 H37 0.930 . S
C27 C25 1.369 . S
C27 C29 1.392 . S
C27 H38 0.930 . S
C28 C24 1.373 . S
C28 C26 1.383 . S
C28 H39 0.931 . S
C29 C26 1.382 . S
C29 C27 1.392 . S
C30 Eu1 2.828 . S
C30 O14 1.249 . S
C30 O15 1.244 . S
C30 C24 1.505 . S
C31 O18 1.258 . S
C31 O19 1.242 . S
H32 C4 0.930 . S
H33 C5 0.930 . S
H34 C6 0.930 . S
H35 C7 0.931 . S
H36 C25 0.930 . S
H37 C26 0.930 . S
H38 C27 0.930 . S
H39 C28 0.931 . S
Eu40 C49 2.828 . S
Eu40 O51 2.392 . S
Eu40 O53 2.418 . S
Eu40 O58 2.373 . S
Eu40 O61 2.488 . S
Eu40 O62 2.471 . S
Eu40 O63 2.349 . S
Eu41 O50 2.373 . S
Eu41 O54 2.488 . S
Eu41 O55 2.471 . S
Eu41 O56 2.349 . S
Eu41 O59 2.392 . S
Eu41 O60 2.418 . S
Eu41 C70 2.828 . S
C42 O60 1.244 . S
C42 O63 1.265 . S
C43 C44 1.379 . S
C43 C47 1.373 . S
C43 C49 1.505 . S
C44 C43 1.379 . S
C44 C46 1.369 . S
C44 H72 0.930 . S
C45 C47 1.383 1_655 S
C45 C48 1.382 1_655 S
C45 H73 0.930 . S
C46 C44 1.369 . S
C46 C48 1.392 . S
C46 H74 0.930 . S
C47 C43 1.373 . S
C47 C45 1.383 1_455 S
C47 H75 0.931 . S
C48 C45 1.382 1_455 S
C48 C46 1.392 . S
C49 Eu40 2.828 . S
C49 C43 1.505 . S
C49 O61 1.249 . S
C49 O62 1.244 . S
O50 Eu41 2.373 . S
O50 C52 1.258 . S
O51 Eu40 2.392 . S
O51 C52 1.242 . S
C52 O50 1.258 . S
C52 O51 1.242 . S
O53 Eu40 2.418 . S
O53 C57 1.244 . S
O54 Eu41 2.488 . S
O54 C70 1.249 . S
O55 Eu41 2.471 . S
O55 C70 1.244 . S
O56 Eu41 2.349 . S
O56 C57 1.265 . S
C57 O53 1.244 . S
C57 O56 1.265 . S
O58 Eu40 2.373 . S
O58 C71 1.258 . S
O59 Eu41 2.392 . S
O59 C71 1.242 . S
O60 Eu41 2.418 . S
O60 C42 1.244 . S
O61 Eu40 2.488 . S
O61 C49 1.249 . S
O62 Eu40 2.471 . S
O62 C49 1.244 . S
O63 Eu40 2.349 . S
O63 C42 1.265 . S
C64 C65 1.379 . S
C64 C68 1.373 . S
C64 C70 1.505 . S
C65 C64 1.379 . S
C65 C67 1.369 . S
C65 H76 0.930 . S
C66 C68 1.383 . S
C66 C69 1.382 . S
C66 H77 0.930 . S
C67 C65 1.369 . S
C67 C69 1.392 . S
C67 H78 0.930 . S
C68 C64 1.373 . S
C68 C66 1.383 . S
C68 H79 0.931 . S
C69 C66 1.382 . S
C69 C67 1.392 . S
C70 Eu41 2.828 . S
C70 O54 1.249 . S
C70 O55 1.244 . S
C70 C64 1.505 . S
C71 O58 1.258 . S
C71 O59 1.242 . S
H72 C44 0.930 . S
H73 C45 0.930 . S
H74 C46 0.930 . S
H75 C47 0.931 . S
H76 C65 0.930 . S
H77 C66 0.930 . S
H78 C67 0.930 . S
H79 C68 0.931 . S
Eu80 C89 2.828 . S
Eu80 O91 2.392 1_554 S
Eu80 O93 2.418 . S
Eu80 O98 2.374 1_545 S
Eu80 O101 2.488 . S
Eu80 O102 2.471 . S
Eu80 O103 2.349 . S
Eu81 O90 2.373 1_565 S
Eu81 O94 2.488 . S
Eu81 O95 2.471 . S
Eu81 O96 2.349 . S
Eu81 O99 2.392 1_556 S
Eu81 O100 2.418 . S
Eu81 C110 2.828 . S
C82 O100 1.221 1_554 S
C82 O103 1.279 1_565 S
C83 C84 1.379 . S
C83 C87 1.373 . S
C83 C89 1.505 . S
C84 C83 1.379 . S
C84 C86 1.369 . S
C84 H112 0.930 . S
C85 C87 1.383 . S
C85 C88 1.382 . S
C85 H113 0.930 . S
C86 C84 1.369 . S
C86 C88 1.392 . S
C86 H114 0.930 . S
C87 C83 1.373 . S
C87 C85 1.383 . S
C87 H115 0.931 . S
C88 C85 1.382 . S
C88 C86 1.392 . S
C89 Eu80 2.828 . S
C89 C83 1.505 . S
C89 O101 1.249 . S
C89 O102 1.244 . S
O90 Eu81 2.373 1_545 S
O90 C92 1.258 . S
O91 Eu80 2.392 1_556 S
O91 C92 1.242 . S
C92 O90 1.258 . S
C92 O91 1.242 . S
O93 Eu80 2.418 . S
O93 C97 1.244 . S
O94 Eu81 2.488 . S
O94 C110 1.249 . S
O95 Eu81 2.471 . S
O95 C110 1.244 . S
O96 Eu81 2.349 . S
O96 C97 1.265 1_566 S
C97 O93 1.244 . S
C97 O96 1.265 1_544 S
O98 Eu80 2.374 1_565 S
O98 C111 1.257 . S
O99 Eu81 2.392 1_554 S
O99 C111 1.242 . S
O100 Eu81 2.418 . S
O100 C82 1.221 1_556 S
O101 Eu80 2.488 . S
O101 C89 1.249 . S
O102 Eu80 2.471 . S
O102 C89 1.244 . S
O103 Eu80 2.349 . S
O103 C82 1.279 1_545 S
C104 C105 1.379 . S
C104 C108 1.373 . S
C104 C110 1.505 . S
C105 C104 1.379 . S
C105 C107 1.369 . S
C105 H116 0.930 . S
C106 C108 1.383 . S
C106 C109 1.382 . S
C106 H117 0.930 . S
C107 C105 1.369 . S
C107 C109 1.392 . S
C107 H118 0.930 . S
C108 C104 1.373 . S
C108 C106 1.383 . S
C108 H119 0.931 . S
C109 C106 1.382 . S
C109 C107 1.392 . S
C110 Eu81 2.828 . S
C110 O94 1.249 . S
C110 O95 1.244 . S
C110 C104 1.505 . S
C111 O98 1.257 . S
C111 O99 1.242 . S
H112 C84 0.930 . S
H113 C85 0.930 . S
H114 C86 0.930 . S
H115 C87 0.931 . S
H116 C105 0.930 . S
H117 C106 0.930 . S
H118 C107 0.930 . S
H119 C108 0.931 . S
Eu120 C129 2.828 . S
Eu120 O131 2.392 . S
Eu120 O133 2.418 . S
Eu120 O138 2.374 1_455 S
Eu120 O141 2.488 . S
Eu120 O142 2.471 . S
Eu120 O143 2.349 . S
Eu121 O130 2.373 1_655 S
Eu121 O134 2.488 . S
Eu121 O135 2.471 . S
Eu121 O136 2.349 . S
Eu121 O139 2.392 . S
Eu121 O140 2.418 . S
Eu121 C150 2.828 . S
C122 O140 1.244 . S
C122 O143 1.265 1_655 S
C123 C124 1.379 . S
C123 C127 1.373 . S
C123 C129 1.505 . S
C124 C123 1.379 . S
C124 C126 1.369 . S
C124 H152 0.930 . S
C125 C127 1.383 . S
C125 C128 1.382 . S
C125 H153 0.930 . S
C126 C124 1.369 . S
C126 C128 1.392 . S
C126 H154 0.930 . S
C127 C123 1.373 . S
C127 C125 1.383 . S
C127 H155 0.931 . S
C128 C125 1.382 . S
C128 C126 1.392 . S
C129 Eu120 2.828 . S
C129 C123 1.505 . S
C129 O141 1.249 . S
C129 O142 1.244 . S
O130 Eu121 2.373 1_455 S
O130 C132 1.258 . S
O131 Eu120 2.392 . S
O131 C132 1.242 . S
C132 O130 1.258 . S
C132 O131 1.242 . S
O133 Eu120 2.418 . S
O133 C137 1.244 . S
O134 Eu121 2.488 . S
O134 C150 1.249 . S
O135 Eu121 2.471 . S
O135 C150 1.244 . S
O136 Eu121 2.349 . S
O136 C137 1.265 1_655 S
C137 O133 1.244 . S
C137 O136 1.265 1_455 S
O138 Eu120 2.374 1_655 S
O138 C151 1.257 . S
O139 Eu121 2.392 . S
O139 C151 1.242 . S
O140 Eu121 2.418 . S
O140 C122 1.244 . S
O141 Eu120 2.488 . S
O141 C129 1.249 . S
O142 Eu120 2.471 . S
O142 C129 1.244 . S
O143 Eu120 2.349 . S
O143 C122 1.265 1_455 S
C144 C145 1.379 . S
C144 C148 1.373 . S
C144 C150 1.505 . S
C145 C144 1.379 . S
C145 C147 1.369 . S
C145 H156 0.930 . S
C146 C148 1.383 . S
C146 C149 1.382 . S
C146 H157 0.930 . S
C147 C145 1.369 . S
C147 C149 1.392 . S
C147 H158 0.930 . S
C148 C144 1.373 . S
C148 C146 1.383 . S
C148 H159 0.931 . S
C149 C146 1.382 . S
C149 C147 1.392 . S
C150 Eu121 2.828 . S
C150 O134 1.249 . S
C150 O135 1.244 . S
C150 C144 1.505 . S
C151 O138 1.257 . S
C151 O139 1.242 . S
H152 C124 0.930 . S
H153 C125 0.930 . S
H154 C126 0.930 . S
H155 C127 0.931 . S
H156 C145 0.930 . S
H157 C146 0.930 . S
H158 C147 0.930 . S
H159 C148 0.931 . S
H160 C168 0.929 . S
H161 C170 0.930 . S
H162 C172 0.930 . S
H163 C175 0.929 . S
H164 C178 0.930 1_565 S
H165 C180 0.960 . S
H166 C180 0.960 . S
H167 C180 0.960 . S
C168 H160 0.929 . S
C168 C169 1.371 1_554 S
C168 C170 1.384 . S
C169 C168 1.371 1_556 S
C169 C175 1.396 1_565 S
C170 H161 0.930 . S
C170 C168 1.384 . S
C170 C171 1.377 1_565 S
C171 C170 1.377 1_545 S
C171 C172 1.395 1_554 S
C171 C176 1.490 1_654 S
C172 H162 0.930 . S
C172 C171 1.395 1_556 S
C172 C175 1.386 . S
H173 C189 0.930 . S
H174 C190 0.931 . S
C175 H163 0.929 . S
C175 C169 1.396 1_545 S
C175 C172 1.386 . S
C176 C171 1.490 1_456 S
C176 C178 1.395 . S
C176 C179 1.402 1_556 S
H177 C183 0.930 . S
C178 H164 0.930 1_545 S
C178 C176 1.395 . S
C178 C181 1.403 . S
C179 C176 1.402 1_554 S
C179 C180 1.524 . S
C179 C183 1.400 . S
C180 H165 0.960 . S
C180 H166 0.960 . S
C180 H167 0.960 . S
C180 C179 1.524 . S
C181 C178 1.403 . S
C181 C182 1.392 . S
C181 C185 1.495 . S
C182 C181 1.392 . S
C182 C183 1.385 1_556 S
C182 C184 1.478 . S
C183 H177 0.930 . S
C183 C179 1.400 . S
C183 C182 1.385 1_554 S
C184 C182 1.478 . S
C184 C186 1.381 1_556 S
C184 C190 1.383 . S
C185 C181 1.495 . S
C185 H191 0.959 1_545 S
C185 H192 0.961 . S
C185 H193 0.960 . S
C186 C184 1.381 1_554 S
C186 C187 1.394 . S
C186 H194 0.930 . S
C187 C186 1.394 . S
C187 C188 1.383 1_554 S
C187 H195 0.929 . S
C188 C187 1.383 1_556 S
C188 C189 1.377 . S
C189 H173 0.930 . S
C189 C188 1.377 . S
C189 C190 1.379 . S
C190 H174 0.931 . S
C190 C184 1.383 . S
C190 C189 1.379 . S
H191 C185 0.959 1_565 S
H192 C185 0.961 . S
H193 C185 0.960 . S
H194 C186 0.930 . S
H195 C187 0.929 . S
H196 C204 0.929 . S
H197 C206 0.941 . S
H198 C208 0.930 . S
H199 C211 0.929 . S
H200 C214 0.930 . S
H201 C216 0.960 . S
H202 C216 0.960 1_655 S
H203 C216 0.960 . S
C204 H196 0.929 . S
C204 C205 1.377 . S
C204 C206 1.380 . S
C205 C204 1.377 . S
C205 C211 1.390 1_655 S
C206 H197 0.941 . S
C206 C204 1.380 . S
C206 C207 1.365 1_655 S
C207 C206 1.365 1_455 S
C207 C208 1.400 . S
C207 C212 1.490 1_565 S
C208 H198 0.930 . S
C208 C207 1.400 . S
C208 C211 1.386 . S
H209 C225 0.930 . S
H210 C226 0.931 . S
C211 H199 0.929 . S
C211 C205 1.390 1_455 S
C211 C208 1.386 . S
C212 C207 1.490 1_545 S
C212 C214 1.395 . S
C212 C215 1.403 . S
H213 C219 0.930 . S
C214 H200 0.930 . S
C214 C212 1.395 . S
C214 C217 1.403 . S
C215 C212 1.403 . S
C215 C216 1.524 . S
C215 C219 1.400 . S
C216 H201 0.960 . S
C216 H202 0.960 1_455 S
C216 H203 0.960 . S
C216 C215 1.524 . S
C217 C214 1.403 . S
C217 C218 1.392 . S
C217 C221 1.495 . S
C218 C217 1.392 . S
C218 C219 1.385 . S
C218 C220 1.478 . S
C219 H213 0.930 . S
C219 C215 1.400 . S
C219 C218 1.385 . S
C220 C218 1.478 . S
C220 C222 1.381 . S
C220 C226 1.383 . S
C221 C217 1.495 . S
C221 H227 0.959 . S
C221 H228 0.961 . S
C221 H229 0.960 . S
C222 C220 1.381 . S
C222 C223 1.394 . S
C222 H230 0.930 . S
C223 C222 1.394 . S
C223 C224 1.383 . S
C223 H231 0.929 . S
C224 C223 1.383 . S
C224 C225 1.377 . S
C225 H209 0.930 . S
C225 C224 1.377 . S
C225 C226 1.379 . S
C226 H210 0.931 . S
C226 C220 1.383 . S
C226 C225 1.379 . S
H227 C221 0.959 . S
H228 C221 0.961 . S
H229 C221 0.960 . S
H230 C222 0.930 . S
H231 C223 0.929 . S
H232 C240 0.929 1_565 S
H233 C242 0.930 . S
H234 C244 0.930 . S
H235 C247 0.929 . S
H236 C250 0.930 1_565 S
H237 C252 0.960 . S
H238 C252 0.960 . S
H239 C252 0.960 . S
C240 H232 0.929 1_545 S
C240 C241 1.377 1_546 S
C240 C242 1.384 . S
C241 C240 1.377 1_564 S
C241 C247 1.390 1_565 S
C242 H233 0.930 . S
C242 C240 1.384 . S
C242 C243 1.372 1_556 S
C243 C242 1.372 1_554 S
C243 C244 1.400 . S
C243 C248 1.490 . S
C244 H234 0.930 . S
C244 C243 1.400 . S
C244 C247 1.386 . S
H245 C261 0.930 . S
H246 C262 0.931 . S
C247 H235 0.929 . S
C247 C241 1.390 1_545 S
C247 C244 1.386 . S
C248 C243 1.490 . S
C248 C250 1.395 1_554 S
C248 C251 1.403 . S
H249 C255 0.930 . S
C250 H236 0.930 1_545 S
C250 C248 1.395 1_556 S
C250 C253 1.403 . S
C251 C248 1.403 . S
C251 C252 1.524 . S
C251 C255 1.400 . S
C252 H237 0.960 . S
C252 H238 0.960 . S
C252 H239 0.960 . S
C252 C251 1.524 . S
C253 C250 1.403 . S
C253 C254 1.392 1_556 S
C253 C257 1.495 . S
C254 C253 1.392 1_554 S
C254 C255 1.385 . S
C254 C256 1.478 . S
C255 H249 0.930 . S
C255 C251 1.400 . S
C255 C254 1.385 . S
C256 C254 1.478 . S
C256 C258 1.381 1_554 S
C256 C262 1.383 . S
C257 C253 1.495 . S
C257 H263 0.959 1_545 S
C257 H264 0.964 1_556 S
C257 H265 0.960 . S
C258 C256 1.381 1_556 S
C258 C259 1.394 . S
C258 H266 0.930 . S
C259 C258 1.394 . S
C259 C260 1.383 1_556 S
C259 H267 0.929 . S
C260 C259 1.383 1_554 S
C260 C261 1.377 . S
C261 H245 0.930 . S
C261 C260 1.377 . S
C261 C262 1.379 . S
C262 H246 0.931 . S
C262 C256 1.383 . S
C262 C261 1.379 . S
H263 C257 0.959 1_565 S
H264 C257 0.964 1_554 S
H265 C257 0.960 . S
H266 C258 0.930 . S
H267 C259 0.929 . S
H268 C276 0.929 . S
H269 C278 0.930 . S
H270 C280 0.930 . S
H271 C283 0.929 . S
H272 C286 0.930 . S
H273 C288 0.960 . S
H274 C288 0.960 . S
H275 C288 0.960 . S
C276 H268 0.929 . S
C276 C277 1.377 . S
C276 C278 1.384 . S
C277 C276 1.377 . S
C277 C283 1.390 . S
C278 H269 0.930 . S
C278 C276 1.384 . S
C278 C279 1.372 . S
C279 C278 1.372 . S
C279 C280 1.400 . S
C279 C284 1.490 . S
C280 H270 0.930 . S
C280 C279 1.400 . S
C280 C283 1.386 . S
H281 C297 0.930 . S
H282 C298 0.931 . S
C283 H271 0.929 . S
C283 C277 1.390 . S
C283 C280 1.386 . S
C284 C279 1.490 . S
C284 C286 1.395 . S
C284 C287 1.403 . S
H285 C291 0.930 . S
C286 H272 0.930 . S
C286 C284 1.395 . S
C286 C289 1.403 . S
C287 C284 1.403 . S
C287 C288 1.524 . S
C287 C291 1.400 . S
C288 H273 0.960 . S
C288 H274 0.960 . S
C288 H275 0.960 . S
C288 C287 1.524 . S
C289 C286 1.403 . S
C289 C290 1.392 . S
C289 C293 1.495 . S
C290 C289 1.392 . S
C290 C291 1.385 . S
C290 C292 1.478 . S
C291 H285 0.930 . S
C291 C287 1.400 . S
C291 C290 1.385 . S
C292 C290 1.478 . S
C292 C294 1.381 1_455 S
C292 C298 1.383 . S
C293 C289 1.495 . S
C293 H299 0.959 . S
C293 H300 0.961 . S
C293 H301 0.960 1_455 S
C294 C292 1.381 1_655 S
C294 C295 1.394 . S
C294 H302 0.930 . S
C295 C294 1.394 . S
C295 C296 1.383 . S
C295 H303 0.929 . S
C296 C295 1.383 . S
C296 C297 1.377 1_655 S
C297 H281 0.930 . S
C297 C296 1.377 1_455 S
C297 C298 1.379 . S
C298 H282 0.931 . S
C298 C292 1.383 . S
C298 C297 1.379 . S
H299 C293 0.959 . S
H300 C293 0.961 . S
H301 C293 0.960 1_655 S
H302 C294 0.930 . S
H303 C295 0.929 . S
H304 C312 0.929 . S
H305 C314 0.930 . S
H306 C316 0.930 . S
H307 C319 0.929 . S
H308 C322 0.930 . S
H309 C324 0.960 . S
H310 C324 0.960 . S
H311 C324 0.960 . S
C312 H304 0.929 . S
C312 C313 1.377 . S
C312 C314 1.384 . S
C313 C312 1.377 . S
C313 C319 1.390 . S
C314 H305 0.930 . S
C314 C312 1.384 . S
C314 C315 1.372 . S
C315 C314 1.372 . S
C315 C316 1.400 . S
C315 C320 1.490 . S
C316 H306 0.930 . S
C316 C315 1.400 . S
C316 C319 1.386 . S
H317 C333 0.930 . S
H318 C334 0.931 . S
C319 H307 0.929 . S
C319 C313 1.390 . S
C319 C316 1.386 . S
C320 C315 1.490 . S
C320 C322 1.395 . S
C320 C323 1.403 . S
H321 C327 0.930 . S
C322 H308 0.930 . S
C322 C320 1.395 . S
C322 C325 1.403 . S
C323 C320 1.403 . S
C323 C324 1.524 . S
C323 C327 1.400 . S
C324 H309 0.960 . S
C324 H310 0.960 . S
C324 H311 0.960 . S
C324 C323 1.524 . S
C325 C322 1.403 . S
C325 C326 1.392 . S
C325 C329 1.495 . S
C326 C325 1.392 . S
C326 C327 1.385 . S
C326 C328 1.478 . S
C327 H321 0.930 . S
C327 C323 1.400 . S
C327 C326 1.385 . S
C328 C326 1.478 . S
C328 C330 1.381 . S
C328 C334 1.383 . S
C329 C325 1.495 . S
C329 H335 0.959 . S
C329 H336 0.961 . S
C329 H337 0.960 . S
C330 C328 1.381 . S
C330 C331 1.394 . S
C330 H338 0.930 . S
C331 C330 1.394 . S
C331 C332 1.383 . S
C331 H339 0.929 . S
C332 C331 1.383 . S
C332 C333 1.377 . S
C333 H317 0.930 . S
C333 C332 1.377 . S
C333 C334 1.379 . S
C334 H318 0.931 . S
C334 C328 1.383 . S
C334 C333 1.379 . S
H335 C329 0.959 . S
H336 C329 0.961 . S
H337 C329 0.960 . S
H338 C330 0.930 . S
H339 C331 0.929 . S
H340 C348 0.929 1_655 S
H341 C350 0.930 . S
H342 C352 0.930 . S
H343 C355 0.929 . S
H344 C358 0.930 . S
H345 C360 0.960 . S
H346 C360 0.960 . S
H347 C360 0.960 . S
C348 H340 0.929 1_455 S
C348 C349 1.377 . S
C348 C350 1.384 1_455 S
C349 C348 1.377 . S
C349 C355 1.390 . S
C350 H341 0.930 . S
C350 C348 1.384 1_655 S
C350 C351 1.372 1_655 S
C351 C350 1.372 1_455 S
C351 C352 1.400 . S
C351 C356 1.490 1_455 S
C352 H342 0.930 . S
C352 C351 1.400 . S
C352 C355 1.386 . S
H353 C369 0.930 . S
H354 C370 0.931 . S
C355 H343 0.929 . S
C355 C349 1.390 . S
C355 C352 1.386 . S
C356 C351 1.490 1_655 S
C356 C358 1.395 . S
C356 C359 1.403 1_655 S
H357 C363 0.930 1_455 S
C358 H344 0.930 . S
C358 C356 1.395 . S
C358 C361 1.403 . S
C359 C356 1.403 1_455 S
C359 C360 1.524 . S
C359 C363 1.400 1_455 S
C360 H345 0.960 . S
C360 H346 0.960 . S
C360 H347 0.960 . S
C360 C359 1.524 . S
C361 C358 1.403 . S
C361 C362 1.392 . S
C361 C365 1.495 . S
C362 C361 1.392 . S
C362 C363 1.385 . S
C362 C364 1.478 . S
C363 H357 0.930 1_655 S
C363 C359 1.400 1_655 S
C363 C362 1.385 . S
C364 C362 1.478 . S
C364 C366 1.381 . S
C364 C370 1.383 . S
C365 C361 1.495 . S
C365 H371 0.959 . S
C365 H372 0.961 . S
C365 H373 0.960 . S
C366 C364 1.381 . S
C366 C367 1.394 . S
C366 H374 0.930 . S
C367 C366 1.394 . S
C367 C368 1.383 . S
C367 H375 0.929 . S
C368 C367 1.383 . S
C368 C369 1.377 . S
C369 H353 0.930 . S
C369 C368 1.377 . S
C369 C370 1.379 . S
C370 H354 0.931 . S
C370 C364 1.383 . S
C370 C369 1.379 . S
H371 C365 0.959 . S
H372 C365 0.961 . S
H373 C365 0.960 . S
H374 C366 0.930 . S
H375 C367 0.929 . S
H376 C384 0.929 . S
H377 C386 0.930 . S
H378 C388 0.930 . S
H379 C391 0.929 . S
H380 C394 0.930 . S
H381 C396 0.960 . S
H382 C396 0.960 . S
H383 C396 0.960 . S
C384 H376 0.929 . S
C384 C385 1.377 . S
C384 C386 1.384 . S
C385 C384 1.377 . S
C385 C391 1.390 . S
C386 H377 0.930 . S
C386 C384 1.384 . S
C386 C387 1.372 . S
C387 C386 1.372 . S
C387 C388 1.400 . S
C387 C392 1.490 . S
C388 H378 0.930 . S
C388 C387 1.400 . S
C388 C391 1.386 . S
H389 C405 0.930 . S
H390 C406 0.931 . S
C391 H379 0.929 . S
C391 C385 1.390 . S
C391 C388 1.386 . S
C392 C387 1.490 . S
C392 C394 1.395 . S
C392 C395 1.403 . S
H393 C399 0.930 . S
C394 H380 0.930 . S
C394 C392 1.395 . S
C394 C397 1.403 . S
C395 C392 1.403 . S
C395 C396 1.524 . S
C395 C399 1.400 . S
C396 H381 0.960 . S
C396 H382 0.960 . S
C396 H383 0.960 . S
C396 C395 1.524 . S
C397 C394 1.403 . S
C397 C398 1.392 . S
C397 C401 1.495 . S
C398 C397 1.392 . S
C398 C399 1.385 . S
C398 C400 1.478 . S
C399 H393 0.930 . S
C399 C395 1.400 . S
C399 C398 1.385 . S
C400 C398 1.478 . S
C400 C402 1.381 . S
C400 C406 1.383 . S
C401 C397 1.495 . S
C401 H407 0.959 . S
C401 H408 0.961 . S
C401 H409 0.960 . S
C402 C400 1.381 . S
C402 C403 1.394 . S
C402 H410 0.930 . S
C403 C402 1.394 . S
C403 C404 1.383 . S
C403 H411 0.929 . S
C404 C403 1.383 . S
C404 C405 1.377 . S
C405 H389 0.930 . S
C405 C404 1.377 . S
C405 C406 1.379 . S
C406 H390 0.931 . S
C406 C400 1.383 . S
C406 C405 1.379 . S
H407 C401 0.959 . S
H408 C401 0.961 . S
H409 C401 0.960 . S
H410 C402 0.930 . S
H411 C403 0.929 . S
H412 C420 0.929 . S
H413 C422 0.930 . S
H414 C424 0.930 . S
H415 C427 0.929 . S
H416 C430 0.930 . S
H417 C432 0.960 . S
H418 C432 0.960 1_545 S
H419 C432 0.960 . S
C420 H412 0.929 . S
C420 C421 1.377 . S
C420 C422 1.384 . S
C421 C420 1.377 . S
C421 C427 1.390 . S
C422 H413 0.930 . S
C422 C420 1.384 . S
C422 C423 1.372 . S
C423 C422 1.372 . S
C423 C424 1.400 . S
C423 C428 1.490 . S
C424 H414 0.930 . S
C424 C423 1.400 . S
C424 C427 1.386 . S
H425 C441 0.930 1_565 S
H426 C442 0.931 . S
C427 H415 0.929 . S
C427 C421 1.390 . S
C427 C424 1.386 . S
C428 C423 1.490 . S
C428 C430 1.395 . S
C428 C431 1.403 . S
H429 C435 0.930 1_545 S
C430 H416 0.930 . S
C430 C428 1.395 . S
C430 C433 1.403 . S
C431 C428 1.403 . S
C431 C432 1.524 . S
C431 C435 1.400 . S
C432 H417 0.960 . S
C432 H418 0.960 1_565 S
C432 H419 0.960 . S
C432 C431 1.524 . S
C433 C430 1.403 . S
C433 C434 1.392 . S
C433 C437 1.495 . S
C434 C433 1.392 . S
C434 C435 1.385 . S
C434 C436 1.478 1_565 S
C435 H429 0.930 1_565 S
C435 C431 1.400 . S
C435 C434 1.385 . S
C436 C434 1.478 1_545 S
C436 C438 1.381 . S
C436 C442 1.383 1_545 S
C437 C433 1.495 . S
C437 H443 0.959 . S
C437 H444 0.961 . S
C437 H445 0.960 . S
C438 C436 1.381 . S
C438 C439 1.394 . S
C438 H446 0.930 . S
C439 C438 1.394 . S
C439 C440 1.383 . S
C439 H447 0.929 . S
C440 C439 1.383 . S
C440 C441 1.377 . S
C441 H425 0.930 1_545 S
C441 C440 1.377 . S
C441 C442 1.379 1_545 S
C442 H426 0.931 . S
C442 C436 1.383 1_565 S
C442 C441 1.379 1_565 S
H443 C437 0.959 . S
H444 C437 0.961 . S
H445 C437 0.960 . S
H446 C438 0.930 . S
H447 C439 0.929 . S
H448 C456 0.929 . S
H449 C458 0.930 . S
H450 C460 0.930 . S
H451 C463 0.929 . S
H452 C466 0.930 . S
H453 C468 0.960 . S
H454 C468 0.960 . S
H455 C468 0.960 . S
C456 H448 0.929 . S
C456 C457 1.377 . S
C456 C458 1.384 . S
C457 C456 1.377 . S
C457 C463 1.390 . S
C458 H449 0.930 . S
C458 C456 1.384 . S
C458 C459 1.372 . S
C459 C458 1.372 . S
C459 C460 1.400 . S
C459 C464 1.490 . S
C460 H450 0.930 . S
C460 C459 1.400 . S
C460 C463 1.386 . S
H461 C477 0.930 . S
H462 C478 0.931 . S
C463 H451 0.929 . S
C463 C457 1.390 . S
C463 C460 1.386 . S
C464 C459 1.490 . S
C464 C466 1.395 . S
C464 C467 1.403 . S
H465 C471 0.930 . S
C466 H452 0.930 . S
C466 C464 1.395 . S
C466 C469 1.403 . S
C467 C464 1.403 . S
C467 C468 1.524 . S
C467 C471 1.400 . S
C468 H453 0.960 . S
C468 H454 0.960 . S
C468 H455 0.960 . S
C468 C467 1.524 . S
C469 C466 1.403 . S
C469 C470 1.392 . S
C469 C473 1.495 . S
C470 C469 1.392 . S
C470 C471 1.385 . S
C470 C472 1.478 . S
C471 H465 0.930 . S
C471 C467 1.400 . S
C471 C470 1.385 . S
C472 C470 1.478 . S
C472 C474 1.381 . S
C472 C478 1.383 . S
C473 C469 1.495 . S
C473 H479 0.959 . S
C473 H480 0.961 . S
C473 H481 0.960 . S
C474 C472 1.381 . S
C474 C475 1.394 . S
C474 H482 0.930 . S
C475 C474 1.394 . S
C475 C476 1.383 . S
C475 H483 0.929 . S
C476 C475 1.383 . S
C476 C477 1.377 . S
C477 H461 0.930 . S
C477 C476 1.377 . S
C477 C478 1.379 . S
C478 H462 0.931 . S
C478 C472 1.383 . S
C478 C477 1.379 . S
H479 C473 0.959 . S
H480 C473 0.961 . S
H481 C473 0.960 . S
H482 C474 0.930 . S
H483 C475 0.929 . S
H484 C492 0.929 . S
H485 C494 0.930 . S
H486 C496 0.930 . S
H487 C499 0.929 . S
H488 C502 0.930 . S
H489 C504 0.960 . S
H490 C504 0.960 . S
H491 C504 0.960 . S
C492 H484 0.929 . S
C492 C493 1.377 . S
C492 C494 1.384 1_545 S
C493 C492 1.377 . S
C493 C499 1.390 . S
C494 H485 0.930 . S
C494 C492 1.384 1_565 S
C494 C495 1.372 . S
C495 C494 1.372 . S
C495 C496 1.400 1_565 S
C495 C500 1.490 . S
C496 H486 0.930 . S
C496 C495 1.400 1_545 S
C496 C499 1.386 . S
H497 C513 0.930 . S
H498 C514 0.931 . S
C499 H487 0.929 . S
C499 C493 1.390 . S
C499 C496 1.386 . S
C500 C495 1.490 . S
C500 C502 1.395 . S
C500 C503 1.403 . S
H501 C507 0.930 . S
C502 H488 0.930 . S
C502 C500 1.395 . S
C502 C505 1.403 . S
C503 C500 1.403 . S
C503 C504 1.524 1_565 S
C503 C507 1.400 . S
C504 H489 0.960 . S
C504 H490 0.960 . S
C504 H491 0.960 . S
C504 C503 1.524 1_545 S
C505 C502 1.403 . S
C505 C506 1.392 . S
C505 C509 1.495 . S
C506 C505 1.392 . S
C506 C507 1.385 . S
C506 C508 1.478 . S
C507 H501 0.930 . S
C507 C503 1.400 . S
C507 C506 1.385 . S
C508 C506 1.478 . S
C508 C510 1.381 . S
C508 C514 1.383 . S
C509 C505 1.495 . S
C509 H515 0.959 . S
C509 H516 0.961 . S
C509 H517 0.960 . S
C510 C508 1.381 . S
C510 C511 1.394 . S
C510 H518 0.930 . S
C511 C510 1.394 . S
C511 C512 1.383 . S
C511 H519 0.929 . S
C512 C511 1.383 . S
C512 C513 1.377 . S
C513 H497 0.930 . S
C513 C512 1.377 . S
C513 C514 1.379 . S
C514 H498 0.931 . S
C514 C508 1.383 . S
C514 C513 1.379 . S
H515 C509 0.959 . S
H516 C509 0.961 . S
H517 C509 0.960 . S
H518 C510 0.930 . S
H519 C511 0.929 . S
H520 C528 0.929 . S
H521 C530 0.930 . S
H522 C532 0.930 . S
H523 C535 0.929 . S
H524 C538 0.930 . S
H525 C540 0.960 . S
H526 C540 0.960 . S
H527 C540 0.960 . S
C528 H520 0.929 . S
C528 C529 1.377 . S
C528 C530 1.384 . S
C529 C528 1.377 . S
C529 C535 1.390 . S
C530 H521 0.930 . S
C530 C528 1.384 . S
C530 C531 1.372 . S
C531 C530 1.372 . S
C531 C532 1.400 . S
C531 C536 1.490 . S
C532 H522 0.930 . S
C532 C531 1.400 . S
C532 C535 1.386 . S
H533 C549 0.930 . S
H534 C550 0.931 . S
C535 H523 0.929 . S
C535 C529 1.390 . S
C535 C532 1.386 . S
C536 C531 1.490 . S
C536 C538 1.395 . S
C536 C539 1.403 . S
H537 C543 0.930 . S
C538 H524 0.930 . S
C538 C536 1.395 . S
C538 C541 1.403 . S
C539 C536 1.403 . S
C539 C540 1.524 . S
C539 C543 1.400 . S
C540 H525 0.960 . S
C540 H526 0.960 . S
C540 H527 0.960 . S
C540 C539 1.524 . S
C541 C538 1.403 . S
C541 C542 1.392 . S
C541 C545 1.495 . S
C542 C541 1.392 . S
C542 C543 1.385 . S
C542 C544 1.478 . S
C543 H537 0.930 . S
C543 C539 1.400 . S
C543 C542 1.385 . S
C544 C542 1.478 . S
C544 C546 1.381 . S
C544 C550 1.383 . S
C545 C541 1.495 . S
C545 H551 0.959 . S
C545 H552 0.961 . S
C545 H553 0.960 . S
C546 C544 1.381 . S
C546 C547 1.394 . S
C546 H554 0.930 . S
C547 C546 1.394 . S
C547 C548 1.383 . S
C547 H555 0.929 . S
C548 C547 1.383 . S
C548 C549 1.377 . S
C549 H533 0.930 . S
C549 C548 1.377 . S
C549 C550 1.379 . S
C550 H534 0.931 . S
C550 C544 1.383 . S
C550 C549 1.379 . S
H551 C545 0.959 . S
H552 C545 0.961 . S
H553 C545 0.960 . S
H554 C546 0.930 . S
H555 C547 0.929 . S
H556 C564 0.929 . S
H557 C566 0.930 . S
H558 C568 0.930 . S
H559 C571 0.929 . S
H560 C574 0.930 . S
H561 C576 0.960 1_455 S
H562 C576 0.960 . S
H563 C576 0.960 . S
C564 H556 0.929 . S
C564 C565 1.377 . S
C564 C566 1.384 . S
C565 C564 1.377 . S
C565 C571 1.390 . S
C566 H557 0.930 . S
C566 C564 1.384 . S
C566 C567 1.372 . S
C567 C566 1.372 . S
C567 C568 1.400 . S
C567 C572 1.490 . S
C568 H558 0.930 . S
C568 C567 1.400 . S
C568 C571 1.386 . S
H569 C585 0.930 . S
H570 C586 0.931 . S
C571 H559 0.929 . S
C571 C565 1.390 . S
C571 C568 1.386 . S
C572 C567 1.490 . S
C572 C574 1.395 . S
C572 C575 1.403 . S
H573 C579 0.930 1_455 S
C574 H560 0.930 . S
C574 C572 1.395 . S
C574 C577 1.403 . S
C575 C572 1.403 . S
C575 C576 1.524 . S
C575 C579 1.400 . S
C576 H561 0.960 1_655 S
C576 H562 0.960 . S
C576 H563 0.960 . S
C576 C575 1.524 . S
C577 C574 1.403 . S
C577 C578 1.392 . S
C577 C581 1.495 . S
C578 C577 1.392 . S
C578 C579 1.385 . S
C578 C580 1.478 . S
C579 H573 0.930 1_655 S
C579 C575 1.400 . S
C579 C578 1.385 . S
C580 C578 1.478 . S
C580 C582 1.381 . S
C580 C586 1.383 1_655 S
C581 C577 1.495 . S
C581 H587 0.959 . S
C581 H588 0.961 . S
C581 H589 0.960 . S
C582 C580 1.381 . S
C582 C583 1.394 1_655 S
C582 H590 0.930 . S
C583 C582 1.394 1_455 S
C583 C584 1.383 . S
C583 H591 0.946 . S
C584 C583 1.383 . S
C584 C585 1.377 . S
C585 H569 0.930 . S
C585 C584 1.377 . S
C585 C586 1.379 . S
C586 H570 0.931 . S
C586 C580 1.383 1_455 S
C586 C585 1.379 . S
H587 C581 0.959 . S
H588 C581 0.961 . S
H589 C581 0.960 . S
H590 C582 0.930 . S
H591 C583 0.946 . S
C169 C97 0.879 1_566 S
C188 C17 0.858 1_556 S
C205 C137 0.897 1_655 S
C224 C57 0.943 . S
C241 C82 1.074 . S
C260 C2 1.065 . S
C277 C42 1.072 . S
C296 C122 1.053 . S
C313 C71 4.640 . S
C332 C31 4.631 . S
C349 C52 4.405 . S
C368 C92 4.400 . S
C385 C151 4.641 . S
C404 C111 4.630 . S
C421 C132 4.403 . S
C440 C12 4.395 . S
C457 C109 0.873 . S
C476 C149 0.905 . S
C493 C8 1.168 . S
C512 C128 1.210 . S
C529 C69 0.863 . S
C548 C29 0.887 . S
C565 C88 1.170 . S
C584 C48 1.168 . S
