# Generated by pormake.
# Topology sme, (6)-cn, num edge types: 1
# Building blocks:
#     Node 0, Type 0, BuildingBlock: OJICUG_clean_sbu_0, # of connection points: 6
#     Node 1, Type 0, BuildingBlock: OJICUG_clean_sbu_0, # of connection points: 6
#     Node 2, Type 0, BuildingBlock: OJICUG_clean_sbu_0, # of connection points: 6
#     Node 3, Type 0, BuildingBlock: OJICUG_clean_sbu_0, # of connection points: 6
#     Node 4, Type 0, BuildingBlock: OJICUG_clean_sbu_0, # of connection points: 6
#     Node 5, Type 0, BuildingBlock: OJICUG_clean_sbu_0, # of connection points: 6
#     Node 6, Type 0, BuildingBlock: OJICUG_clean_sbu_0, # of connection points: 6
#     Node 7, Type 0, BuildingBlock: OJICUG_clean_sbu_0, # of connection points: 6
#     Node 8, Type 0, BuildingBlock: OJICUG_clean_sbu_0, # of connection points: 6
#     Node 9, Type 0, BuildingBlock: OJICUG_clean_sbu_0, # of connection points: 6
#     Node 10, Type 0, BuildingBlock: OJICUG_clean_sbu_0, # of connection points: 6
#     Node 11, Type 0, BuildingBlock: OJICUG_clean_sbu_0, # of connection points: 6
#     Node 12, Type 0, BuildingBlock: OJICUG_clean_sbu_0, # of connection points: 6
#     Node 13, Type 0, BuildingBlock: OJICUG_clean_sbu_0, # of connection points: 6
#     Node 14, Type 0, BuildingBlock: OJICUG_clean_sbu_0, # of connection points: 6
#     Node 15, Type 0, BuildingBlock: OJICUG_clean_sbu_0, # of connection points: 6
#     Node 16, Type 0, BuildingBlock: OJICUG_clean_sbu_0, # of connection points: 6
#     Node 17, Type 0, BuildingBlock: OJICUG_clean_sbu_0, # of connection points: 6
#     Edge 18, Type (0, 0), BuildingBlock: XUDNAN_clean_linker_2, # of connection points: 2
#     Edge 19, Type (0, 0), BuildingBlock: XUDNAN_clean_linker_2, # of connection points: 2
#     Edge 20, Type (0, 0), BuildingBlock: XUDNAN_clean_linker_2, # of connection points: 2
#     Edge 21, Type (0, 0), BuildingBlock: XUDNAN_clean_linker_2, # of connection points: 2
#     Edge 22, Type (0, 0), BuildingBlock: XUDNAN_clean_linker_2, # of connection points: 2
#     Edge 23, Type (0, 0), BuildingBlock: XUDNAN_clean_linker_2, # of connection points: 2
#     Edge 24, Type (0, 0), BuildingBlock: XUDNAN_clean_linker_2, # of connection points: 2
#     Edge 25, Type (0, 0), BuildingBlock: XUDNAN_clean_linker_2, # of connection points: 2
#     Edge 26, Type (0, 0), BuildingBlock: XUDNAN_clean_linker_2, # of connection points: 2
#     Edge 27, Type (0, 0), BuildingBlock: XUDNAN_clean_linker_2, # of connection points: 2
#     Edge 28, Type (0, 0), BuildingBlock: XUDNAN_clean_linker_2, # of connection points: 2
#     Edge 29, Type (0, 0), BuildingBlock: XUDNAN_clean_linker_2, # of connection points: 2
#     Edge 30, Type (0, 0), BuildingBlock: XUDNAN_clean_linker_2, # of connection points: 2
#     Edge 31, Type (0, 0), BuildingBlock: XUDNAN_clean_linker_2, # of connection points: 2
#     Edge 32, Type (0, 0), BuildingBlock: XUDNAN_clean_linker_2, # of connection points: 2
#     Edge 33, Type (0, 0), BuildingBlock: XUDNAN_clean_linker_2, # of connection points: 2
#     Edge 34, Type (0, 0), BuildingBlock: XUDNAN_clean_linker_2, # of connection points: 2
#     Edge 35, Type (0, 0), BuildingBlock: XUDNAN_clean_linker_2, # of connection points: 2
#     Edge 36, Type (0, 0), BuildingBlock: XUDNAN_clean_linker_2, # of connection points: 2
#     Edge 37, Type (0, 0), BuildingBlock: XUDNAN_clean_linker_2, # of connection points: 2
#     Edge 38, Type (0, 0), BuildingBlock: XUDNAN_clean_linker_2, # of connection points: 2
#     Edge 39, Type (0, 0), BuildingBlock: XUDNAN_clean_linker_2, # of connection points: 2
#     Edge 40, Type (0, 0), BuildingBlock: XUDNAN_clean_linker_2, # of connection points: 2
#     Edge 41, Type (0, 0), BuildingBlock: XUDNAN_clean_linker_2, # of connection points: 2
#     Edge 42, Type (0, 0), BuildingBlock: XUDNAN_clean_linker_2, # of connection points: 2
#     Edge 43, Type (0, 0), BuildingBlock: XUDNAN_clean_linker_2, # of connection points: 2
#     Edge 44, Type (0, 0), BuildingBlock: XUDNAN_clean_linker_2, # of connection points: 2
#     Edge 45, Type (0, 0), BuildingBlock: XUDNAN_clean_linker_2, # of connection points: 2
#     Edge 46, Type (0, 0), BuildingBlock: XUDNAN_clean_linker_2, # of connection points: 2
#     Edge 47, Type (0, 0), BuildingBlock: XUDNAN_clean_linker_2, # of connection points: 2
#     Edge 48, Type (0, 0), BuildingBlock: XUDNAN_clean_linker_2, # of connection points: 2
#     Edge 49, Type (0, 0), BuildingBlock: XUDNAN_clean_linker_2, # of connection points: 2
#     Edge 50, Type (0, 0), BuildingBlock: XUDNAN_clean_linker_2, # of connection points: 2
#     Edge 51, Type (0, 0), BuildingBlock: XUDNAN_clean_linker_2, # of connection points: 2
#     Edge 52, Type (0, 0), BuildingBlock: XUDNAN_clean_linker_2, # of connection points: 2
#     Edge 53, Type (0, 0), BuildingBlock: XUDNAN_clean_linker_2, # of connection points: 2
#     Edge 54, Type (0, 0), BuildingBlock: XUDNAN_clean_linker_2, # of connection points: 2
#     Edge 55, Type (0, 0), BuildingBlock: XUDNAN_clean_linker_2, # of connection points: 2
#     Edge 56, Type (0, 0), BuildingBlock: XUDNAN_clean_linker_2, # of connection points: 2
#     Edge 57, Type (0, 0), BuildingBlock: XUDNAN_clean_linker_2, # of connection points: 2
#     Edge 58, Type (0, 0), BuildingBlock: XUDNAN_clean_linker_2, # of connection points: 2
#     Edge 59, Type (0, 0), BuildingBlock: XUDNAN_clean_linker_2, # of connection points: 2
#     Edge 60, Type (0, 0), BuildingBlock: XUDNAN_clean_linker_2, # of connection points: 2
#     Edge 61, Type (0, 0), BuildingBlock: XUDNAN_clean_linker_2, # of connection points: 2
#     Edge 62, Type (0, 0), BuildingBlock: XUDNAN_clean_linker_2, # of connection points: 2
#     Edge 63, Type (0, 0), BuildingBlock: XUDNAN_clean_linker_2, # of connection points: 2
#     Edge 64, Type (0, 0), BuildingBlock: XUDNAN_clean_linker_2, # of connection points: 2
#     Edge 65, Type (0, 0), BuildingBlock: XUDNAN_clean_linker_2, # of connection points: 2
#     Edge 66, Type (0, 0), BuildingBlock: XUDNAN_clean_linker_2, # of connection points: 2
#     Edge 67, Type (0, 0), BuildingBlock: XUDNAN_clean_linker_2, # of connection points: 2
#     Edge 68, Type (0, 0), BuildingBlock: XUDNAN_clean_linker_2, # of connection points: 2
#     Edge 69, Type (0, 0), BuildingBlock: XUDNAN_clean_linker_2, # of connection points: 2
#     Edge 70, Type (0, 0), BuildingBlock: XUDNAN_clean_linker_2, # of connection points: 2
#     Edge 71, Type (0, 0), BuildingBlock: XUDNAN_clean_linker_2, # of connection points: 2
# Relax obj value: 0.180
# Max RMSD: 0.201
# Mean RMSD: 0.201
data_MOF--net-sme--node1-OJICUG_clean_sbu_0--edge1-XUDNAN_clean_linker_2
_symmetry_space_group_name_H-M    P1
_symmetry_Int_Tables_number       1
_symmetry_cell_setting            triclinic
loop_
_symmetry_equiv_pos_as_xyz
'x, y, z'
_cell_length_a     46.231718
_cell_length_b     46.193588
_cell_length_c     39.257543
_cell_angle_alpha  89.978141
_cell_angle_beta   90.009347
_cell_angle_gamma 119.98765
loop_
_atom_site_label
_atom_site_type_symbol
_atom_site_fract_x
_atom_site_fract_y
_atom_site_fract_z
_atom_type_partial_charge
Sc0 Sc 0.03118 0.29602 0.79652 0.0
Sc1 Sc 0.04635 0.23471 0.76296 0.0
Sc2 Sc 0.04235 0.24175 0.85148 0.0
O3 O 0.03976 0.25736 0.80384 0.0
C4 C 0.08935 0.32141 0.85137 0.0
C5 C 0.08145 0.30765 0.73404 0.0
C6 C 0.09671 0.22937 0.81416 0.0
C7 C 0.98475 0.2449 0.74155 0.0
C8 C 0.99226 0.26851 0.86748 0.0
C9 C -0.00252 0.17385 0.81157 0.0
O10 O 0.07408 0.32653 0.82709 0.0
O11 O 0.08183 0.28063 0.73862 0.0
O12 O 0.08208 0.23218 0.84013 0.0
O13 O 0.98818 0.26559 0.76495 0.0
O14 O 0.00375 0.24908 0.8727 0.0
O15 O 0.01091 0.18681 0.78313 0.0
O16 O -0.00036 0.28667 0.841 0.0
O17 O 0.00546 0.23472 0.73688 0.0
O18 O 0.00533 0.19003 0.83965 0.0
O19 O 0.06251 0.31482 0.75123 0.0
O20 O 0.08018 0.29253 0.86397 0.0
O21 O 0.08765 0.23106 0.78403 0.0
Sc22 Sc 0.87578 0.86821 0.75025 0.0
Sc23 Sc 0.87033 0.86768 0.83928 0.0
Sc24 Sc 0.80391 0.80558 0.79073 0.0
O25 O 0.84997 0.84684 0.79343 0.0
C26 C 0.80172 0.84155 0.72184 0.0
C27 C 0.89105 0.9321 0.7925 0.0
C28 C 0.79573 0.85404 0.84264 0.0
C29 C 0.93394 0.87663 0.80164 0.0
C30 C 0.84765 0.79036 0.73877 0.0
C31 C 0.83009 0.79074 0.8607 0.0
O32 O 0.8332 0.86023 0.72045 0.0
O33 O 0.89104 0.91834 0.82057 0.0
O34 O 0.78353 0.82965 0.8217 0.0
O35 O 0.92292 0.87971 0.77296 0.0
O36 O 0.82268 0.78088 0.75868 0.0
O37 O 0.85227 0.82089 0.8661 0.0
O38 O 0.86929 0.82097 0.73353 0.0
O39 O 0.91632 0.86822 0.82863 0.0
O40 O 0.81174 0.78167 0.83432 0.0
O41 O 0.88297 0.91639 0.76434 0.0
O42 O 0.7875 0.82124 0.74624 0.0
O43 O 0.82619 0.86927 0.85193 0.0
Sc44 Sc 0.30602 0.07382 0.78812 0.0
Sc45 Sc 0.23177 0.06801 0.75733 0.0
Sc46 Sc 0.24014 0.05619 0.84469 0.0
O47 O 0.25936 0.06607 0.79674 0.0
C48 C 0.27181 0.00914 0.8345 0.0
C49 C 0.26852 0.03442 0.71965 0.0
C50 C 0.17546 0.00827 0.8 0.0
C51 C 0.30433 0.13095 0.74549 0.0
C52 C 0.31674 0.10551 0.86281 0.0
C53 C 0.21713 0.10618 0.81751 0.0
O54 O 0.2939 0.02819 0.81322 0.0
O55 O 0.2441 0.03948 0.72306 0.0
O56 O 0.19121 0.01932 0.82778 0.0
O57 O 0.31974 0.11975 0.76295 0.0
O58 O 0.28594 0.09041 0.87024 0.0
O59 O 0.21624 0.09687 0.78685 0.0
O60 O 0.32746 0.10259 0.83399 0.0
O61 O 0.2731 0.11463 0.73951 0.0
O62 O 0.2271 0.09535 0.84218 0.0
O63 O 0.29279 0.04601 0.74055 0.0
O64 O 0.25122 0.01618 0.84864 0.0
O65 O 0.18738 0.02201 0.77141 0.0
Sc66 Sc 0.06345 0.81564 0.21236 0.0
Sc67 Sc 0.06602 0.88257 0.25649 0.0
Sc68 Sc 0.05389 0.87571 0.16797 0.0
O69 O 0.06151 0.85822 0.21234 0.0
C70 C 0.10016 0.84569 0.14344 0.0
C71 C 0.12025 0.86096 0.26571 0.0
C72 C 0.10802 0.94189 0.20252 0.0
C73 C 0.02243 0.80605 0.28022 0.0
C74 C 0.0024 0.79892 0.16422 0.0
C75 C 0.01071 0.8922 0.22019 0.0
O76 O 0.09984 0.83287 0.17216 0.0
O77 O 0.11141 0.88277 0.26981 0.0
O78 O 0.09828 0.92387 0.17567 0.0
O79 O 0.02702 0.79415 0.25284 0.0
O80 O 0.00854 0.82885 0.16069 0.0
O81 O 0.02082 0.88415 0.2468 0.0
O82 O 0.02343 0.79171 0.17652 0.0
O83 O 0.03673 0.83731 0.2862 0.0
O84 O 0.02344 0.89408 0.19095 0.0
O85 O 0.10379 0.83485 0.24782 0.0
O86 O 0.08245 0.85915 0.13725 0.0
O87 O 0.09614 0.93056 0.23203 0.0
Sc88 Sc 0.22645 0.23795 0.26939 0.0
Sc89 Sc 0.24048 0.252 0.18154 0.0
Sc90 Sc 0.28902 0.31564 0.23992 0.0
O91 O 0.25172 0.26847 0.23007 0.0
C92 C 0.23365 0.30912 0.2889 0.0
C93 C 0.1686 0.22407 0.21585 0.0
C94 C 0.26528 0.32823 0.16736 0.0
C95 C 0.22775 0.18487 0.2187 0.0
C96 C 0.29657 0.27644 0.30375 0.0
C97 C 0.32027 0.28649 0.18872 0.0
O98 O 0.22408 0.27841 0.29461 0.0
O99 O 0.18758 0.23404 0.18963 0.0
O100 O 0.28348 0.33802 0.19376 0.0
O101 O 0.22514 0.194 0.24852 0.0
O102 O 0.30331 0.30312 0.28797 0.0
O103 O 0.29289 0.26824 0.17269 0.0
O104 O 0.27133 0.24842 0.29645 0.0
O105 O 0.2334 0.20337 0.19282 0.0
O106 O 0.32286 0.30466 0.21422 0.0
O107 O 0.17929 0.2241 0.24577 0.0
O108 O 0.25515 0.32648 0.26629 0.0
O109 O 0.24554 0.29763 0.16107 0.0
Sc110 Sc 0.86 0.04611 0.26331 0.0
Sc111 Sc 0.86022 0.04658 0.1732 0.0
Sc112 Sc 0.79797 0.05321 0.21837 0.0
O113 O 0.83918 0.04828 0.21833 0.0
C114 C 0.78179 -0.00246 0.27469 0.0
C115 C 0.87019 0.99445 0.21624 0.0
C116 C 0.78344 0.00827 0.15138 0.0
C117 C 0.92419 0.09329 0.21954 0.0
C118 C 0.83319 0.0951 0.28576 0.0
C119 C 0.84564 0.10672 0.16398 0.0
O120 O 0.81221 0.00643 0.28098 0.0
O121 O 0.86376 0.00301 0.18758 0.0
O122 O 0.77446 0.01935 0.17637 0.0
O123 O 0.90951 0.08591 0.2484 0.0
O124 O 0.81397 0.08798 0.26025 0.0
O125 O 0.86092 0.09114 0.15615 0.0
O126 O 0.85153 0.08219 0.29044 0.0
O127 O 0.90961 0.07907 0.19199 0.0
O128 O 0.82158 0.09551 0.18511 0.0
O129 O 0.87079 0.00886 0.24405 0.0
O130 O 0.77293 0.01196 0.25279 0.0
O131 O 0.81347 0.01528 0.14682 0.0
Sc132 Sc 0.70912 0.64024 0.1241 0.0
Sc133 Sc 0.70162 0.56721 0.08736 0.0
Sc134 Sc 0.70301 0.57555 0.17654 0.0
O135 O 0.70434 0.59428 0.12928 0.0
C136 C 0.7634 0.6509 0.17935 0.0
C137 C 0.74898 0.64042 0.0572 0.0
C138 C 0.74937 0.55436 0.13474 0.0
C139 C 0.65193 0.59501 0.07161 0.0
C140 C 0.66537 0.61566 0.19282 0.0
C141 C 0.65146 0.50951 0.13866 0.0
O142 O 0.75263 0.66192 0.15572 0.0
O143 O 0.73719 0.60903 0.05743 0.0
O144 O 0.73552 0.55726 0.16145 0.0
O145 O 0.66657 0.62005 0.09149 0.0
O146 O 0.67157 0.5924 0.19937 0.0
O147 O 0.66562 0.52075 0.11014 0.0
O148 O 0.67697 0.63429 0.16677 0.0
O149 O 0.66125 0.57344 0.0674 0.0
O150 O 0.65943 0.52749 0.16544 0.0
O151 O 0.74168 0.65515 0.08005 0.0
O152 O 0.74734 0.62106 0.19056 0.0
O153 O 0.74174 0.55918 0.10487 0.0
Sc154 Sc 0.46966 0.14172 0.12837 0.0
Sc155 Sc 0.53965 0.20431 0.08605 0.0
Sc156 Sc 0.53708 0.20175 0.17553 0.0
O157 O 0.51578 0.18256 0.12987 0.0
C158 C 0.46215 0.18802 0.18074 0.0
C159 C 0.46663 0.17807 0.05963 0.0
C160 C 0.55426 0.26715 0.13258 0.0
C161 C 0.50947 0.12487 0.07554 0.0
C162 C 0.49835 0.12702 0.19692 0.0
C163 C 0.60012 0.21228 0.13235 0.0
O164 O 0.45098 0.16882 0.15502 0.0
O165 O 0.49676 0.20137 0.06144 0.0
O166 O 0.54969 0.25096 0.16007 0.0
O167 O 0.48893 0.11558 0.10035 0.0
O168 O 0.52605 0.15414 0.1962 0.0
O169 O 0.586 0.21014 0.104 0.0
O170 O 0.47491 0.12088 0.1761 0.0
O171 O 0.52762 0.15541 0.06625 0.0
O172 O 0.58603 0.2101 0.16087 0.0
O173 O 0.45437 0.15398 0.08072 0.0
O174 O 0.49063 0.19715 0.19416 0.0
O175 O 0.55261 0.25445 0.10323 0.0
Sc176 Sc 0.9741 0.41311 0.12995 0.0
Sc177 Sc 0.90103 0.40269 0.09006 0.0
Sc178 Sc 0.90149 0.39149 0.1778 0.0
O179 O 0.92586 0.40283 0.13263 0.0
C180 C 0.93557 0.34641 0.1738 0.0
C181 C 0.94421 0.37247 0.06001 0.0
C182 C 0.8416 0.34311 0.1281 0.0
C183 C 0.97294 0.4681 0.08218 0.0
C184 C 0.97626 0.44151 0.20444 0.0
C185 C 0.87893 0.43923 0.14582 0.0
O186 O 0.96107 0.36797 0.15734 0.0
O187 O 0.9194 0.37706 0.05859 0.0
O188 O 0.85333 0.35603 0.15696 0.0
O189 O 0.98896 0.45851 0.1012 0.0
O190 O 0.94478 0.42421 0.20769 0.0
O191 O 0.8793 0.42853 0.11599 0.0
O192 O 0.99084 0.44226 0.17671 0.0
O193 O 0.94186 0.45036 0.07598 0.0
O194 O 0.88968 0.43106 0.17199 0.0
O195 O 0.96557 0.38394 0.08393 0.0
O196 O 0.91176 0.35109 0.18319 0.0
O197 O 0.85788 0.35476 0.10067 0.0
Sc198 Sc 0.73656 0.21682 0.59949 0.0
Sc199 Sc 0.72396 0.21347 0.51124 0.0
Sc200 Sc 0.72529 0.14657 0.55262 0.0
O201 O 0.72892 0.19229 0.55448 0.0
C202 C 0.78775 0.18955 0.60169 0.0
C203 C 0.78121 0.2768 0.54711 0.0
C204 C 0.76087 0.17602 0.48064 0.0
C205 C 0.6834 0.23151 0.56561 0.0
C206 C 0.69098 0.14143 0.62514 0.0
C207 C 0.66394 0.13838 0.50819 0.0
O208 O 0.77847 0.21033 0.61003 0.0
O209 O 0.76917 0.25961 0.52022 0.0
O210 O 0.75361 0.15597 0.50559 0.0
O211 O 0.6944 0.22395 0.59183 0.0
O212 O 0.69578 0.12883 0.59851 0.0
O213 O 0.67808 0.16912 0.50011 0.0
O214 O 0.70435 0.17277 0.62954 0.0
O215 O 0.69426 0.23182 0.53575 0.0
O216 O 0.67823 0.12584 0.5257 0.0
O217 O 0.77029 0.26528 0.57679 0.0
O218 O 0.77138 0.16515 0.58123 0.0
O219 O 0.75203 0.19799 0.47978 0.0
Sc220 Sc 0.89471 0.5777 0.58691 0.0
Sc221 Sc 0.89809 0.58335 0.49828 0.0
Sc222 Sc 0.95588 0.64976 0.54877 0.0
O223 O 0.91567 0.60354 0.54436 0.0
C224 C 0.907 0.65146 0.6005 0.0
C225 C 0.83203 0.56318 0.54124 0.0
C226 C 0.9264 0.6577 0.47731 0.0
C227 C 0.88766 0.51895 0.53899 0.0
C228 C 0.96647 0.61453 0.61367 0.0
C229 C 0.97637 0.6106 0.49869 0.0
O230 O 0.8997 0.62221 0.61026 0.0
O231 O 0.8465 0.56667 0.51257 0.0
O232 O 0.94908 0.66799 0.49994 0.0
O233 O 0.88683 0.53054 0.56805 0.0
O234 O 0.97162 0.6409 0.59825 0.0
O235 O 0.94868 0.59851 0.48248 0.0
O236 O 0.9415 0.58626 0.60695 0.0
O237 O 0.89251 0.53554 0.5117 0.0
O238 O 0.98372 0.63012 0.52426 0.0
O239 O 0.84658 0.56706 0.56975 0.0
O240 O 0.92561 0.66616 0.5748 0.0
O241 O 0.9016 0.62821 0.47782 0.0
Sc242 Sc 0.52905 0.38158 0.60814 0.0
Sc243 Sc 0.52585 0.37879 0.51879 0.0
Sc244 Sc 0.4643 0.38451 0.56628 0.0
O245 O 0.5063 0.38115 0.56435 0.0
C246 C 0.45064 0.33232 0.62252 0.0
C247 C 0.5383 0.32856 0.56394 0.0
C248 C 0.45034 0.3405 0.49836 0.0
C249 C 0.59134 0.42776 0.56079 0.0
C250 C 0.50171 0.42743 0.63297 0.0
C251 C 0.50886 0.43781 0.51189 0.0
O252 O 0.48157 0.34667 0.63031 0.0
O253 O 0.53555 0.33946 0.53497 0.0
O254 O 0.44346 0.35681 0.51972 0.0
O255 O 0.57789 0.41754 0.58983 0.0
O256 O 0.47664 0.41345 0.61318 0.0
O257 O 0.51977 0.41948 0.49954 0.0
O258 O 0.52625 0.42259 0.63014 0.0
O259 O 0.57584 0.41609 0.53295 0.0
O260 O 0.48961 0.42958 0.53767 0.0
O261 O 0.53525 0.3406 0.59194 0.0
O262 O 0.43936 0.33966 0.59624 0.0
O263 O 0.47822 0.34134 0.49827 0.0
Sc264 Sc 0.36409 0.96377 0.45764 0.0
Sc265 Sc 0.37995 0.9036 0.42307 0.0
Sc266 Sc 0.37598 0.90928 0.51166 0.0
O267 O 0.37296 0.9254 0.46424 0.0
C268 C 0.42385 0.98829 0.51145 0.0
C269 C 0.41415 0.97706 0.39493 0.0
C270 C 0.42932 0.8967 0.47278 0.0
C271 C 0.31792 0.91308 0.40215 0.0
C272 C 0.32621 0.93685 0.52826 0.0
C273 C 0.33032 0.84242 0.47192 0.0
O274 O 0.40616 0.99353 0.48999 0.0
O275 O 0.41396 0.94962 0.39767 0.0
O276 O 0.41216 0.8947 0.49873 0.0
O277 O 0.32239 0.93473 0.4247 0.0
O278 O 0.34135 0.92126 0.53604 0.0
O279 O 0.34604 0.85526 0.44427 0.0
O280 O 0.33005 0.95113 0.49973 0.0
O281 O 0.33764 0.9016 0.39796 0.0
O282 O 0.33607 0.85879 0.49983 0.0
O283 O 0.39617 0.98433 0.41348 0.0
O284 O 0.41661 0.95922 0.52211 0.0
O285 O 0.42315 0.90365 0.44342 0.0
Sc286 Sc 0.20059 0.53207 0.42592 0.0
Sc287 Sc 0.19717 0.5391 0.51529 0.0
Sc288 Sc 0.13399 0.46931 0.47226 0.0
O289 O 0.1774 0.51341 0.47114 0.0
C290 C 0.12408 0.50026 0.40315 0.0
C291 C 0.21454 0.59878 0.46279 0.0
C292 C 0.12039 0.51587 0.52156 0.0
C293 C 0.26139 0.54806 0.47749 0.0
C294 C 0.17658 0.45478 0.41854 0.0
C295 C 0.16535 0.4633 0.54164 0.0
O296 O 0.15521 0.51886 0.39764 0.0
O297 O 0.21471 0.58726 0.4921 0.0
O298 O 0.11153 0.48878 0.50562 0.0
O299 O 0.24851 0.54657 0.44837 0.0
O300 O 0.15237 0.44576 0.43904 0.0
O301 O 0.18201 0.49473 0.54639 0.0
O302 O 0.19715 0.48527 0.41169 0.0
O303 O 0.24545 0.54326 0.50545 0.0
O304 O 0.14936 0.45028 0.51438 0.0
O305 O 0.20646 0.58091 0.43595 0.0
O306 O 0.11273 0.48249 0.4299 0.0
O307 O 0.15084 0.53813 0.52612 0.0
Sc308 Sc 0.56087 0.73671 0.42388 0.0
Sc309 Sc 0.56971 0.72607 0.51081 0.0
Sc310 Sc 0.63547 0.74338 0.45342 0.0
O311 O 0.58891 0.7356 0.46274 0.0
C312 C 0.59738 0.70295 0.38581 0.0
C313 C 0.50362 0.67978 0.46733 0.0
C314 C 0.59956 0.67797 0.49992 0.0
C315 C 0.55031 0.77798 0.48395 0.0
C316 C 0.63315 0.79905 0.40823 0.0
C317 C 0.64742 0.77421 0.5281 0.0
O318 O 0.57311 0.7083 0.3891 0.0
O319 O 0.51853 0.6924 0.49523 0.0
O320 O 0.62324 0.69829 0.4806 0.0
O321 O 0.54653 0.76656 0.45376 0.0
O322 O 0.64966 0.78857 0.42508 0.0
O323 O 0.61685 0.75724 0.53646 0.0
O324 O 0.60153 0.78266 0.40538 0.0
O325 O 0.56089 0.76789 0.5087 0.0
O326 O 0.65749 0.77383 0.49812 0.0
O327 O 0.51734 0.69066 0.43858 0.0
O328 O 0.62142 0.71404 0.40695 0.0
O329 O 0.5777 0.68401 0.5127 0.0
Sc330 Sc 0.39012 0.47989 0.90139 0.0
Sc331 Sc 0.38434 0.54706 0.93393 0.0
Sc332 Sc 0.3833 0.53524 0.8455 0.0
O333 O 0.3865 0.52124 0.89354 0.0
C334 C 0.42832 0.50443 0.82943 0.0
C335 C 0.44489 0.53297 0.94857 0.0
C336 C 0.43035 0.60532 0.88148 0.0
C337 C 0.34884 0.47645 0.9682 0.0
C338 C 0.32987 0.45849 0.85133 0.0
C339 C 0.33054 0.54889 0.88506 0.0
O340 O 0.41615 0.48391 0.85402 0.0
O341 O 0.42636 0.54543 0.95571 0.0
O342 O 0.41998 0.58701 0.85496 0.0
O343 O 0.3657 0.46716 0.95055 0.0
O344 O 0.34658 0.48449 0.83303 0.0
O345 O 0.34277 0.55101 0.91458 0.0
O346 O 0.34182 0.45199 0.87768 0.0
O347 O 0.34859 0.50324 0.96183 0.0
O348 O 0.34275 0.54352 0.85842 0.0
O349 O 0.43715 0.50969 0.92676 0.0
O350 O 0.42242 0.52817 0.82523 0.0
O351 O 0.41952 0.59432 0.91124 0.0
Sc352 Sc 0.55294 0.90585 0.92726 0.0
Sc353 Sc 0.56905 0.91362 0.83962 0.0
Sc354 Sc 0.61849 0.9814 0.89434 0.0
O355 O 0.58009 0.93376 0.887 0.0
C356 C 0.56167 0.97846 0.94109 0.0
C357 C 0.49687 0.88893 0.87022 0.0
C358 C 0.59515 0.98999 0.81976 0.0
C359 C 0.55404 0.84892 0.88358 0.0
C360 C 0.62433 0.94499 0.96218 0.0
C361 C 0.64832 0.94723 0.84664 0.0
O362 O 0.54875 0.94718 0.94619 0.0
O363 O 0.51663 0.89898 0.84466 0.0
O364 O 0.61073 0.00207 0.84754 0.0
O365 O 0.55339 0.86105 0.91242 0.0
O366 O 0.6349 0.96974 0.94189 0.0
O367 O 0.62045 0.92614 0.83323 0.0
O368 O 0.59582 0.91906 0.95877 0.0
O369 O 0.55846 0.8649 0.85599 0.0
O370 O 0.65148 0.96914 0.86831 0.0
O371 O 0.50677 0.88926 0.90053 0.0
O372 O 0.58663 0.99514 0.92154 0.0
O373 O 0.57818 0.95876 0.81452 0.0
Sc374 Sc 0.19122 0.70998 0.92361 0.0
Sc375 Sc 0.18461 0.70835 0.83426 0.0
Sc376 Sc 0.12611 0.71603 0.88412 0.0
O377 O 0.16727 0.71119 0.88079 0.0
C378 C 0.11276 0.66112 0.93885 0.0
C379 C 0.19712 0.6567 0.87608 0.0
C380 C 0.10855 0.6713 0.81632 0.0
C381 C 0.25222 0.75623 0.87465 0.0
C382 C 0.16579 0.75811 0.95035 0.0
C383 C 0.16986 0.76877 0.82878 0.0
O384 O 0.14376 0.67301 0.94555 0.0
O385 O 0.19145 0.66708 0.84826 0.0
O386 O 0.10228 0.6873 0.83863 0.0
O387 O 0.2403 0.74698 0.90456 0.0
O388 O 0.14151 0.74649 0.9296 0.0
O389 O 0.18059 0.75042 0.81627 0.0
O390 O 0.18813 0.74979 0.94914 0.0
O391 O 0.23495 0.74384 0.8479 0.0
O392 O 0.15059 0.76042 0.85449 0.0
O393 O 0.19798 0.66993 0.90473 0.0
O394 O 0.10195 0.6722 0.9152 0.0
O395 O 0.13653 0.67265 0.81442 0.0
H396 H 0.19036 0.13019 0.77105 0.0
H397 H 0.21652 0.13647 0.87814 0.0
H398 H 0.19433 0.1748 0.88759 0.0
H399 H 0.2084 0.21642 0.76057 0.0
H400 H 0.17339 0.20416 0.73238 0.0
H401 H 0.19447 0.18025 0.73364 0.0
H402 H 0.13834 0.1265 0.74689 0.0
H403 H 0.11713 0.15016 0.7455 0.0
H404 H 0.11389 0.12604 0.78287 0.0
H405 H 0.16533 0.20909 0.88568 0.0
H406 H 0.1294 0.23328 0.87375 0.0
H407 H 0.12224 0.20352 0.76781 0.0
C408 C 0.19199 0.13989 0.79651 0.0
C409 C 0.20537 0.13032 0.82387 0.0
C410 C 0.20649 0.14344 0.85676 0.0
C411 C 0.19409 0.16536 0.86231 0.0
C412 C 0.18084 0.17397 0.8347 0.0
C413 C 0.17973 0.16154 0.80246 0.0
C414 C 0.16204 0.1724 0.77748 0.0
C415 C 0.18601 0.19463 0.74936 0.0
C416 C 0.13102 0.14197 0.76232 0.0
C417 C 0.15248 0.19225 0.80083 0.0
C418 C 0.16395 0.19331 0.83363 0.0
C419 C 0.1565 0.20863 0.86004 0.0
C420 C 0.13601 0.22228 0.85297 0.0
C421 C 0.12293 0.22031 0.81979 0.0
C422 C 0.13215 0.20589 0.79329 0.0
H423 H 0.99038 0.12269 0.8533 0.0
H424 H 0.94797 0.14488 0.76543 0.0
H425 H 0.91224 0.0847 0.7541 0.0
H426 H -0.00259 0.05929 0.81614 0.0
H427 H 0.98642 0.0324 0.85287 0.0
H428 H 0.0044 0.07676 0.85842 0.0
H429 H 0.95376 0.06726 0.89501 0.0
H430 H 0.93583 0.02274 0.89009 0.0
H431 H 0.9121 0.04246 0.87823 0.0
H432 H 0.88831 0.02386 0.74649 0.0
H433 H 0.87322 0.96454 0.74624 0.0
H434 H 0.92984 0.98025 0.83939 0.0
C435 C 0.97249 0.11469 0.83263 0.0
C436 C 0.9715 0.13826 0.81047 0.0
C437 C 0.94879 0.12708 0.78283 0.0
C438 C 0.92843 0.09298 0.77617 0.0
C439 C 0.93098 0.07028 0.79747 0.0
C440 C 0.95199 0.0805 0.82547 0.0
C441 C 0.95192 0.05089 0.84234 0.0
C442 C 0.98712 0.0551 0.84242 0.0
C443 C 0.93754 0.04552 0.87857 0.0
C444 C 0.92861 0.02285 0.81873 0.0
C445 C 0.91671 0.03464 0.79314 0.0
C446 C 0.89687 0.01413 0.76678 0.0
C447 C 0.88867 0.98054 0.76669 0.0
C448 C 0.90017 0.96772 0.79286 0.0
C449 C 0.92024 0.98921 0.81931 0.0
H450 H 0.98308 0.91182 0.75493 0.0
H451 H 0.96588 0.86456 0.85421 0.0
H452 H 0.02656 0.88686 0.86051 0.0
H453 H 0.05635 0.90306 0.72983 0.0
H454 H 0.07674 0.94361 0.70982 0.0
H455 H 0.03178 0.91905 0.71048 0.0
H456 H 0.0291 0.96826 0.73898 0.0
H457 H 0.0739 0.99285 0.73855 0.0
H458 H 0.05155 0.98564 0.77813 0.0
H459 H 0.08899 0.91994 0.85919 0.0
H460 H 0.14815 0.96269 0.85155 0.0
H461 H 0.12471 0.98934 0.75347 0.0
C462 C 0.99188 0.90524 0.77759 0.0
C463 C 0.96962 0.88615 0.80397 0.0
C464 C 0.98238 0.87897 0.83359 0.0
C465 C 0.01681 0.8914 0.83731 0.0
C466 C 0.03811 0.91089 0.81118 0.0
C467 C 0.0261 0.91769 0.78183 0.0
C468 C 0.05431 0.94235 0.75928 0.0
C469 C 0.05482 0.92603 0.72534 0.0
C470 C 0.05207 0.97414 0.75342 0.0
C471 C 0.0841 0.9494 0.78112 0.0
C472 C 0.07424 0.93051 0.81064 0.0
C473 C 0.09702 0.9345 0.83598 0.0
C474 C 0.13057 0.95898 0.83144 0.0
C475 C 0.14107 0.97938 0.80189 0.0
C476 C 0.11758 0.9738 0.77605 0.0
H477 H 0.99195 0.9245 0.17374 0.0
H478 H 0.96773 0.87838 0.27387 0.0
H479 H 0.92362 0.89324 0.27994 0.0
H480 H 0.98377 0.99365 0.19536 0.0
H481 H 0.96606 0.99585 0.15519 0.0
H482 H 0.99306 0.97828 0.1571 0.0
H483 H 0.94683 0.92377 0.12936 0.0
H484 H 0.91954 0.94113 0.12761 0.0
H485 H 0.90606 0.90176 0.14873 0.0
H486 H 0.88566 0.91709 0.27747 0.0
H487 H 0.85882 0.95107 0.26815 0.0
H488 H 0.90711 0.98199 0.16958 0.0
C489 C 0.97702 0.91701 0.19673 0.0
C490 C 0.98331 0.90009 0.22329 0.0
C491 C 0.96351 0.89134 0.25317 0.0
C492 C 0.9382 0.89948 0.25677 0.0
C493 C 0.93287 0.91638 0.23026 0.0
C494 C 0.95177 0.92515 0.20084 0.0
C495 C 0.94275 0.94559 0.17737 0.0
C496 C 0.97322 0.9804 0.1709 0.0
C497 C 0.92791 0.92694 0.14378 0.0
C498 C 0.91647 0.94775 0.19862 0.0
C499 C 0.91085 0.93028 0.22881 0.0
C500 C 0.8895 0.93045 0.25373 0.0
C501 C 0.87434 0.94981 0.24818 0.0
C502 C 0.88052 0.96882 0.21796 0.0
C503 C 0.90117 0.96698 0.19247 0.0
H504 H 0.12557 0.98983 0.25165 0.0
H505 H 0.14675 0.97606 0.14703 0.0
H506 H 0.18592 0.0369 0.14233 0.0
H507 H 0.12265 0.06249 0.23743 0.0
H508 H 0.14127 0.08169 0.27758 0.0
H509 H 0.1185 0.03691 0.27387 0.0
H510 H 0.17022 0.03444 0.29548 0.0
H511 H 0.19325 0.07934 0.29914 0.0
H512 H 0.20966 0.05825 0.27386 0.0
H513 H 0.21909 0.09979 0.14777 0.0
H514 H 0.2405 0.15922 0.16134 0.0
H515 H 0.19666 0.13135 0.26225 0.0
C516 C 0.13888 -0.00064 0.22788 0.0
C517 C 0.13319 0.97799 0.19975 0.0
C518 C 0.15072 0.99183 0.16897 0.0
C519 C 0.17316 0.02635 0.16613 0.0
C520 C 0.17782 0.04667 0.1943 0.0
C521 C 0.16109 0.03362 0.22456 0.0
C522 C 0.1681 0.06093 0.25011 0.0
C523 C 0.13571 0.06047 0.26032 0.0
C524 C 0.1864 0.05806 0.2815 0.0
C525 C 0.19073 0.09156 0.22922 0.0
C526 C 0.19649 0.08282 0.19729 0.0
C527 C 0.21499 0.10688 0.1728 0.0
C528 C 0.22702 0.14061 0.18077 0.0
C529 C 0.2203 0.15005 0.21291 0.0
C530 C 0.2027 0.12511 0.23768 0.0
H531 H 0.11893 0.18693 0.26181 0.0
H532 H 0.13555 0.22996 0.16037 0.0
H533 H 0.07462 0.20544 0.15316 0.0
H534 H 0.04829 0.11014 0.24085 0.0
H535 H 0.02688 0.10558 0.28058 0.0
H536 H 0.07177 0.12915 0.27909 0.0
H537 H 0.07102 0.18041 0.30484 0.0
H538 H 0.02604 0.15699 0.30634 0.0
H539 H 0.04707 0.19646 0.28424 0.0
H540 H 0.01239 0.17372 0.15553 0.0
H541 H 0.95272 0.13462 0.1657 0.0
H542 H 0.97583 0.11122 0.2656 0.0
C543 C 0.10989 0.19172 0.23824 0.0
C544 C 0.13216 0.21065 0.2117 0.0
C545 C 0.11909 0.21566 0.18106 0.0
C546 C 0.08452 0.20195 0.17682 0.0
C547 C 0.06335 0.18328 0.20341 0.0
C548 C 0.07549 0.17804 0.23349 0.0
C549 C 0.04729 0.15506 0.25715 0.0
C550 C 0.04865 0.12309 0.26485 0.0
C551 C 0.0479 0.17333 0.29009 0.0
C552 C 0.01726 0.14764 0.2354 0.0
C553 C 0.02722 0.16453 0.20467 0.0
C554 C 0.00432 0.16057 0.17955 0.0
C555 C 0.97047 0.1382 0.18559 0.0
C556 C 0.95962 0.11986 0.21647 0.0
C557 C 0.98333 0.12525 0.24201 0.0
H558 H 0.84328 0.45229 0.0985 0.0
H559 H 0.88164 0.47634 0.20186 0.0
H560 H 0.85651 0.51238 0.20799 0.0
H561 H 0.85409 0.53393 0.07659 0.0
H562 H 0.81581 0.5163 0.05249 0.0
H563 H 0.83881 0.49435 0.05531 0.0
H564 H 0.78616 0.44201 0.07853 0.0
H565 H 0.76299 0.46372 0.07568 0.0
H566 H 0.7654 0.44586 0.11567 0.0
H567 H 0.82518 0.5434 0.20384 0.0
H568 H 0.78747 0.56517 0.19119 0.0
H569 H 0.76876 0.52059 0.09046 0.0
C570 C 0.84683 0.46542 0.12235 0.0
C571 C 0.86468 0.46159 0.14969 0.0
C572 C 0.86817 0.47887 0.18057 0.0
C573 C 0.85411 0.49952 0.18422 0.0
C574 C 0.83663 0.50258 0.15678 0.0
C575 C 0.83284 0.48593 0.12649 0.0
C576 C 0.81124 0.49192 0.10161 0.0
C577 C 0.83119 0.51022 0.06961 0.0
C578 C 0.77958 0.45892 0.09235 0.0
C579 C 0.80298 0.5142 0.12285 0.0
C580 C 0.8182 0.52027 0.15446 0.0
C581 C 0.8133 0.53896 0.17914 0.0
C582 C 0.79173 0.55115 0.17168 0.0
C583 C 0.7751 0.54456 0.13981 0.0
C584 C 0.78142 0.52641 0.11483 0.0
H585 H 0.58632 0.32017 0.0875 0.0
H586 H 0.53715 0.29286 0.18604 0.0
H587 H 0.55114 0.35096 0.19555 0.0
H588 H 0.65403 0.39624 0.11365 0.0
H589 H 0.65728 0.41871 0.07497 0.0
H590 H 0.63989 0.37413 0.0738 0.0
H591 H 0.58602 0.36734 0.04587 0.0
H592 H 0.60329 0.412 0.04703 0.0
H593 H 0.5634 0.38483 0.06655 0.0
H594 H 0.57578 0.41291 0.19776 0.0
H595 H 0.60922 0.47436 0.19165 0.0
H596 H 0.64131 0.46173 0.09149 0.0
C597 C 0.57792 0.32633 0.11071 0.0
C598 C 0.56071 0.30188 0.136 0.0
C599 C 0.5506 0.31111 0.16632 0.0
C600 C 0.55823 0.34409 0.17195 0.0
C601 C 0.57592 0.36777 0.14699 0.0
C602 C 0.58551 0.35937 0.11688 0.0
C603 C 0.60643 0.3902 0.09542 0.0
C604 C 0.64148 0.3951 0.08911 0.0
C605 C 0.58872 0.38848 0.06172 0.0
C606 C 0.6078 0.41711 0.11863 0.0
C607 C 0.5898 0.40365 0.14812 0.0
C608 C 0.58951 0.42379 0.17449 0.0
C609 C 0.6086 0.45867 0.17084 0.0
C610 C 0.62766 0.47303 0.14101 0.0
C611 C 0.62655 0.45174 0.11439 0.0
H612 H 0.64984 0.24786 0.179 0.0
H613 H 0.63037 0.1967 0.08185 0.0
H614 H 0.69071 0.21913 0.07372 0.0
H615 H 0.7172 0.32075 0.15274 0.0
H616 H 0.7414 0.32973 0.19129 0.0
H617 H 0.69666 0.30467 0.19305 0.0
H618 H 0.70125 0.25684 0.22235 0.0
H619 H 0.74616 0.28197 0.22102 0.0
H620 H 0.7255 0.24073 0.20254 0.0
H621 H 0.7527 0.25424 0.07131 0.0
H622 H 0.81213 0.29768 0.07637 0.0
H623 H 0.792 0.32569 0.17532 0.0
C624 C 0.65823 0.24033 0.1567 0.0
C625 C 0.6354 0.22035 0.13119 0.0
C626 C 0.64742 0.21191 0.10178 0.0
C627 C 0.68166 0.22445 0.09696 0.0
C628 C 0.70367 0.24527 0.12185 0.0
C629 C 0.69248 0.25285 0.15138 0.0
C630 C 0.72151 0.27856 0.17238 0.0
C631 C 0.71903 0.31029 0.17765 0.0
C632 C 0.72373 0.26362 0.20661 0.0
C633 C 0.75053 0.28524 0.14937 0.0
C634 C 0.73975 0.2655 0.12054 0.0
C635 C 0.76158 0.26933 0.09413 0.0
C636 C 0.79526 0.29419 0.09713 0.0
C637 C 0.8068 0.31489 0.12634 0.0
C638 C 0.78412 0.30981 0.15298 0.0
H639 H 0.66339 0.26323 0.51994 0.0
H640 H 0.64245 0.21869 0.62082 0.0
H641 H 0.59765 0.23245 0.6279 0.0
H642 H 0.65357 0.33179 0.54176 0.0
H643 H 0.63484 0.33281 0.50184 0.0
H644 H 0.66295 0.31653 0.50347 0.0
H645 H 0.61735 0.26105 0.47665 0.0
H646 H 0.58893 0.27708 0.47528 0.0
H647 H 0.57701 0.23821 0.49679 0.0
H648 H 0.55779 0.25403 0.62571 0.0
H649 H 0.52886 0.286 0.61644 0.0
H650 H 0.57563 0.31704 0.51711 0.0
C651 C 0.64912 0.25598 0.54337 0.0
C652 C 0.6564 0.23973 0.56978 0.0
C653 C 0.63744 0.23119 0.60024 0.0
C654 C 0.61175 0.23867 0.6044 0.0
C655 C 0.60527 0.25472 0.57791 0.0
C656 C 0.62354 0.26349 0.54806 0.0
C657 C 0.61327 0.28291 0.52464 0.0
C658 C 0.64291 0.31809 0.51753 0.0
C659 C 0.59824 0.26365 0.49137 0.0
C660 C 0.58687 0.28434 0.54631 0.0
C661 C 0.58232 0.26746 0.57672 0.0
C662 C 0.56086 0.26701 0.60185 0.0
C663 C 0.5445 0.28523 0.59632 0.0
C664 C 0.54974 0.30381 0.56594 0.0
C665 C 0.57047 0.30247 0.54023 0.0
H666 H 0.79786 0.32777 0.59277 0.0
H667 H 0.82097 0.30695 0.4917 0.0
H668 H 0.85675 0.36739 0.48137 0.0
H669 H 0.78821 0.39395 0.56945 0.0
H670 H 0.80644 0.41873 0.60717 0.0
H671 H 0.78749 0.37402 0.60919 0.0
H672 H 0.8425 0.37986 0.63285 0.0
H673 H 0.86161 0.42473 0.63116 0.0
H674 H 0.8809 0.40424 0.60967 0.0
H675 H 0.88336 0.42958 0.47882 0.0
H676 H 0.8996 0.48898 0.48473 0.0
H677 H 0.85938 0.46965 0.58744 0.0
C678 C 0.81133 0.33586 0.56891 0.0
C679 C 0.80676 0.31256 0.54314 0.0
C680 C 0.82413 0.32429 0.51188 0.0
C681 C 0.84462 0.3586 0.50579 0.0
C682 C 0.84765 0.38093 0.53126 0.0
C683 C 0.83173 0.37007 0.56233 0.0
C684 C 0.83645 0.39922 0.58407 0.0
C685 C 0.80264 0.39629 0.59297 0.0
C686 C 0.85657 0.40218 0.61635 0.0
C687 C 0.85643 0.42802 0.55989 0.0
C688 C 0.86302 0.41699 0.52974 0.0
C689 C 0.87887 0.43861 0.50254 0.0
C690 C 0.88788 0.47231 0.50609 0.0
C691 C 0.88095 0.48409 0.5366 0.0
C692 C 0.86555 0.46162 0.56399 0.0
H693 H 0.63869 0.4377 0.51295 0.0
H694 H 0.62311 0.47852 0.60616 0.0
H695 H 0.68219 0.52319 0.60554 0.0
H696 H 0.71634 0.44852 0.53656 0.0
H697 H 0.73451 0.45889 0.49458 0.0
H698 H 0.69003 0.43315 0.49939 0.0
H699 H 0.6814 0.47452 0.46205 0.0
H700 H 0.72599 0.50055 0.45732 0.0
H701 H 0.70162 0.51805 0.47375 0.0
H702 H 0.74274 0.55986 0.59813 0.0
H703 H 0.80286 0.58377 0.58746 0.0
H704 H 0.78094 0.51896 0.49973 0.0
C705 C 0.64765 0.4565 0.53278 0.0
C706 C 0.6264 0.45493 0.55948 0.0
C707 C 0.63907 0.47934 0.58553 0.0
C708 C 0.67246 0.50494 0.58521 0.0
C709 C 0.69289 0.50565 0.55876 0.0
C710 C 0.68115 0.48197 0.53315 0.0
C711 C 0.7093 0.48634 0.50994 0.0
C712 C 0.71274 0.45486 0.51016 0.0
C713 C 0.70427 0.49541 0.47361 0.0
C714 C 0.73882 0.51559 0.52712 0.0
C715 C 0.72853 0.52668 0.55481 0.0
C716 C 0.75111 0.55174 0.57629 0.0
C717 C 0.78518 0.5651 0.57005 0.0
C718 C 0.79642 0.5533 0.54267 0.0
C719 C 0.77295 0.52893 0.52032 0.0
H720 H 0.50275 0.78021 0.52372 0.0
H721 H 0.58215 0.83698 0.45156 0.0
H722 H 0.56423 0.87897 0.44722 0.0
H723 H 0.44303 0.78796 0.48186 0.0
H724 H 0.42171 0.79201 0.51839 0.0
H725 H 0.4449 0.77048 0.52232 0.0
H726 H 0.48012 0.81014 0.5712 0.0
H727 H 0.45666 0.8316 0.56779 0.0
H728 H 0.50156 0.85473 0.56458 0.0
H729 H 0.53169 0.90786 0.44156 0.0
H730 H 0.48845 0.92434 0.43827 0.0
H731 H 0.4303 0.85027 0.51499 0.0
C732 C 0.51722 0.8024 0.50843 0.0
C733 C 0.54423 0.80602 0.48858 0.0
C734 C 0.56178 0.83436 0.46743 0.0
C735 C 0.55177 0.85826 0.46479 0.0
C736 C 0.52415 0.85343 0.48353 0.0
C737 C 0.50734 0.8265 0.50536 0.0
C738 C 0.47607 0.8251 0.51931 0.0
C739 C 0.44459 0.79193 0.50989 0.0
C740 C 0.47878 0.83074 0.55802 0.0
C741 C 0.4772 0.85441 0.50069 0.0
C742 C 0.50531 0.8706 0.48044 0.0
C743 C 0.51003 0.89603 0.458 0.0
C744 C 0.48529 0.90506 0.45609 0.0
C745 C 0.45639 0.88886 0.47667 0.0
C746 C 0.45263 0.86364 0.49963 0.0
H747 H 0.31683 0.79123 0.51699 0.0
H748 H 0.28598 0.81347 0.42083 0.0
H749 H 0.24915 0.7533 0.41016 0.0
H750 H 0.32299 0.72392 0.48766 0.0
H751 H 0.30729 0.69855 0.52543 0.0
H752 H 0.32724 0.74331 0.52861 0.0
H753 H 0.27478 0.73823 0.5582 0.0
H754 H 0.25479 0.69334 0.55551 0.0
H755 H 0.23459 0.71473 0.5379 0.0
H756 H 0.22188 0.69131 0.40583 0.0
H757 H 0.20291 0.63103 0.41028 0.0
H758 H 0.25061 0.6482 0.50932 0.0
C759 C 0.30133 0.78334 0.49439 0.0
C760 C 0.30392 0.80692 0.4699 0.0
C761 C 0.28416 0.79573 0.43999 0.0
C762 C 0.26316 0.76162 0.43369 0.0
C763 C 0.26207 0.73885 0.45758 0.0
C764 C 0.28026 0.74914 0.48755 0.0
C765 C 0.27651 0.71934 0.50754 0.0
C766 C 0.31053 0.72142 0.51259 0.0
C767 C 0.25913 0.71623 0.54182 0.0
C768 C 0.25424 0.69101 0.48367 0.0
C769 C 0.24605 0.7028 0.45509 0.0
C770 C 0.2276 0.68165 0.42839 0.0
C771 C 0.2171 0.64748 0.43103 0.0
C772 C 0.225 0.63476 0.46021 0.0
C773 C 0.24365 0.65697 0.48689 0.0
H774 H 0.31156 0.59085 0.52094 0.0
H775 H 0.29157 0.52719 0.43266 0.0
H776 H 0.35195 0.54972 0.42466 0.0
H777 H 0.37849 0.66066 0.48635 0.0
H778 H 0.40334 0.67525 0.52455 0.0
H779 H 0.35863 0.65016 0.52757 0.0
H780 H 0.36429 0.6074 0.56558 0.0
H781 H 0.40913 0.6326 0.56299 0.0
H782 H 0.38857 0.5892 0.55074 0.0
H783 H 0.41343 0.58485 0.42029 0.0
H784 H 0.47294 0.62854 0.42201 0.0
H785 H 0.45477 0.66948 0.51364 0.0
C786 C 0.31996 0.58076 0.50083 0.0
C787 C 0.29691 0.55696 0.47767 0.0
C788 C 0.30882 0.54523 0.45082 0.0
C789 C 0.34308 0.55785 0.44608 0.0
C790 C 0.36527 0.58224 0.46845 0.0
C791 C 0.35432 0.59337 0.49556 0.0
C792 C 0.38364 0.62206 0.51376 0.0
C793 C 0.38084 0.6539 0.51299 0.0
C794 C 0.38658 0.61222 0.55045 0.0
C795 C 0.41251 0.62595 0.49193 0.0
C796 C 0.40129 0.60253 0.46609 0.0
C797 C 0.42267 0.60285 0.44085 0.0
C798 C 0.45638 0.62786 0.44191 0.0
C799 C 0.46852 0.65211 0.46815 0.0
C800 C 0.44632 0.65076 0.49375 0.0
H801 H 0.22912 0.64108 0.92519 0.0
H802 H 0.18795 0.61409 0.82318 0.0
H803 H 0.21142 0.57664 0.8178 0.0
H804 H 0.30449 0.64858 0.90639 0.0
H805 H 0.30986 0.63208 0.946 0.0
H806 H 0.28453 0.65149 0.94466 0.0
H807 H 0.23442 0.59791 0.96959 0.0
H808 H 0.25975 0.57833 0.97128 0.0
H809 H 0.2205 0.55831 0.9488 0.0
H810 H 0.24597 0.54897 0.82017 0.0
H811 H 0.28904 0.53333 0.82995 0.0
H812 H 0.30822 0.5787 0.93031 0.0
C813 C 0.22402 0.62645 0.90214 0.0
C814 C 0.20645 0.63035 0.87469 0.0
C815 C 0.20119 0.61142 0.8446 0.0
C816 C 0.21432 0.58997 0.84136 0.0
C817 C 0.23252 0.58762 0.86847 0.0
C818 C 0.23718 0.60518 0.8984 0.0
C819 C 0.26084 0.60128 0.92216 0.0
C820 C 0.29175 0.63538 0.93025 0.0
C821 C 0.24279 0.58285 0.9549 0.0
C822 C 0.26985 0.57992 0.90037 0.0
C823 C 0.25281 0.57184 0.86974 0.0
C824 C 0.25901 0.55463 0.8443 0.0
C825 C 0.28366 0.54599 0.85005 0.0
C826 C 0.30197 0.55468 0.88096 0.0
C827 C 0.29432 0.5712 0.90666 0.0
H828 H 0.52012 0.79839 0.9299 0.0
H829 H 0.56796 0.81928 0.83075 0.0
H830 H 0.54551 0.75898 0.82159 0.0
H831 H 0.5299 0.72441 0.95054 0.0
H832 H 0.48956 0.70284 0.97083 0.0
H833 H 0.51363 0.74785 0.9718 0.0
H834 H 0.46373 0.75063 0.94531 0.0
H835 H 0.43969 0.70575 0.94383 0.0
H836 H 0.44639 0.72973 0.90545 0.0
H837 H 0.51142 0.69648 0.81955 0.0
H838 H 0.47116 0.63627 0.82664 0.0
H839 H 0.44611 0.65586 0.92739 0.0
C840 C 0.52683 0.79037 0.90678 0.0
C841 C 0.5459 0.81361 0.8811 0.0
C842 C 0.5534 0.80198 0.8508 0.0
C843 C 0.5408 0.76775 0.84536 0.0
C844 C 0.52092 0.7454 0.87055 0.0
C845 C 0.51435 0.75623 0.90088 0.0
C846 C 0.49013 0.72694 0.92262 0.0
C847 C 0.50681 0.72543 0.95592 0.0
C848 C 0.4581 0.72836 0.92969 0.0
C849 C 0.48331 0.69808 0.8993 0.0
C850 C 0.50147 0.70922 0.86949 0.0
C851 C 0.49753 0.68738 0.84307 0.0
C852 C 0.47444 0.65324 0.84724 0.0
C853 C 0.4556 0.64123 0.87764 0.0
C854 C 0.46047 0.66408 0.90405 0.0
H855 H 0.30456 0.77676 0.92011 0.0
H856 H 0.28061 0.7935 0.81763 0.0
H857 H 0.3402 0.83194 0.8063 0.0
H858 H 0.37431 0.86274 0.93425 0.0
H859 H 0.39858 0.84854 0.95739 0.0
H860 H 0.35362 0.82455 0.95857 0.0
H861 H 0.35548 0.77235 0.93741 0.0
H862 H 0.40037 0.7962 0.93599 0.0
H863 H 0.37715 0.77478 0.89839 0.0
H864 H 0.40292 0.86465 0.80403 0.0
H865 H 0.464 0.89095 0.81236 0.0
H866 H 0.44696 0.85375 0.91633 0.0
C867 C 0.3118 0.78903 0.89555 0.0
C868 C 0.28783 0.78196 0.86979 0.0
C869 C 0.29846 0.79825 0.83777 0.0
C870 C 0.3323 0.82028 0.83106 0.0
C871 C 0.35537 0.82602 0.85663 0.0
C872 C 0.3456 0.81113 0.88834 0.0
C873 C 0.37564 0.82034 0.91075 0.0
C874 C 0.37553 0.84023 0.94209 0.0
C875 C 0.37724 0.78906 0.92124 0.0
C876 C 0.40368 0.84214 0.88647 0.0
C877 C 0.39153 0.84524 0.85541 0.0
C878 C 0.41278 0.8628 0.82842 0.0
C879 C 0.44743 0.87756 0.83333 0.0
C880 C 0.46043 0.87471 0.86502 0.0
C881 C 0.43803 0.8569 0.89188 0.0
H882 H 0.09285 0.37102 0.71866 0.0
H883 H 0.11552 0.29514 0.68446 0.0
H884 H 0.14397 0.32928 0.63403 0.0
H885 H 0.0747 0.39121 0.63861 0.0
H886 H 0.09368 0.43547 0.64632 0.0
H887 H 0.07763 0.40658 0.68141 0.0
H888 H 0.13538 0.43766 0.71102 0.0
H889 H 0.15162 0.46674 0.67599 0.0
H890 H 0.17197 0.44376 0.68844 0.0
H891 H 0.16318 0.36774 0.58348 0.0
H892 H 0.1756 0.41022 0.53874 0.0
H893 H 0.14473 0.46349 0.60685 0.0
C894 C 0.1043 0.36182 0.70091 0.0
C895 C 0.10182 0.33024 0.70574 0.0
C896 C 0.11708 0.3192 0.68164 0.0
C897 C 0.13334 0.33845 0.65278 0.0
C898 C 0.13472 0.36905 0.64846 0.0
C899 C 0.12106 0.38095 0.6721 0.0
C900 C 0.12498 0.41415 0.66068 0.0
C901 C 0.09071 0.41168 0.6565 0.0
C902 C 0.14732 0.44224 0.68551 0.0
C903 C 0.1421 0.41854 0.62652 0.0
C904 C 0.14743 0.39216 0.61994 0.0
C905 C 0.15994 0.38895 0.5887 0.0
C906 C 0.16693 0.41313 0.56344 0.0
C907 C 0.16199 0.44049 0.56976 0.0
C908 C 0.14985 0.44342 0.60188 0.0
H909 H 0.64389 0.76082 0.59677 0.0
H910 H 0.70889 0.82983 0.51949 0.0
H911 H 0.75326 0.85839 0.56259 0.0
H912 H 0.67362 0.82002 0.66962 0.0
H913 H 0.67117 0.78886 0.69898 0.0
H914 H 0.64293 0.77663 0.66328 0.0
H915 H 0.662 0.73522 0.64374 0.0
H916 H 0.69025 0.74731 0.67929 0.0
H917 H 0.70579 0.75037 0.63656 0.0
H918 H 0.792 0.87685 0.61287 0.0
H919 H 0.82333 0.88198 0.6654 0.0
H920 H 0.73414 0.79964 0.71011 0.0
C921 C 0.66715 0.78251 0.58913 0.0
C922 C 0.67273 0.79339 0.55478 0.0
C923 C 0.70393 0.82119 0.54563 0.0
C924 C 0.72926 0.83764 0.56999 0.0
C925 C 0.72319 0.82592 0.60346 0.0
C926 C 0.69293 0.79893 0.61307 0.0
C927 C 0.69395 0.78941 0.64993 0.0
C928 C 0.66893 0.79401 0.67174 0.0
C929 C 0.68763 0.75346 0.65251 0.0
C930 C 0.72969 0.81483 0.65933 0.0
C931 C 0.74591 0.83597 0.63229 0.0
C932 C 0.77945 0.8606 0.63429 0.0
C933 C 0.79707 0.8633 0.66436 0.0
C934 C 0.78136 0.84129 0.69217 0.0
C935 C 0.74694 0.81714 0.68962 0.0
H936 H 0.31039 0.00895 0.70688 0.0
H937 H 0.22792 0.01644 0.66353 0.0
H938 H 0.23009 0.98715 0.61203 0.0
H939 H 0.35633 0.02374 0.63099 0.0
H940 H 0.37017 0.99433 0.63996 0.0
H941 H 0.36064 0.01383 0.67445 0.0
H942 H 0.31848 0.95549 0.6987 0.0
H943 H 0.32781 0.93579 0.66412 0.0
H944 H 0.28531 0.92558 0.67191 0.0
H945 H 0.24495 0.96248 0.56267 0.0
H946 H 0.27062 0.94277 0.52002 0.0
H947 H 0.34099 0.94787 0.59611 0.0
C948 C 0.29255 0.00415 0.68673 0.0
C949 C 0.26899 0.01513 0.68944 0.0
C950 C 0.24615 0.00826 0.66232 0.0
C951 C 0.24713 0.99157 0.63287 0.0
C952 C 0.27079 0.98136 0.63092 0.0
C953 C 0.29291 0.98712 0.65723 0.0
C954 C 0.31663 0.97455 0.64814 0.0
C955 C 0.35309 0.00333 0.64839 0.0
C956 C 0.31175 0.94616 0.67215 0.0
C957 C 0.30496 0.96168 0.61229 0.0
C958 C 0.27844 0.96579 0.60287 0.0
C959 C 0.26524 0.95847 0.56998 0.0
C960 C 0.27992 0.94725 0.54593 0.0
C961 C 0.30724 0.94303 0.55494 0.0
C962 C 0.31939 0.94973 0.58879 0.0
H963 H 0.40011 0.13347 0.04629 0.0
H964 H 0.48764 0.21973 1.00414 0.0
H965 H 0.45712 0.21335 0.95071 0.0
H966 H 0.37624 0.08523 0.97281 0.0
H967 H 0.33189 0.06755 0.97859 0.0
H968 H 0.35915 0.0809 0.01501 0.0
H969 H 0.33646 0.11961 0.03371 0.0
H970 H 0.30888 0.10617 0.99742 0.0
H971 H 0.33754 0.15004 1.00419 0.0
H972 H 0.42012 0.19284 0.89901 0.0
H973 H 0.3772 0.16255 0.85481 0.0
H974 H 0.31243 0.09193 0.93105 0.0
C975 C 0.41266 0.15152 0.02616 0.0
C976 C 0.4464 0.17712 0.02965 0.0
C977 C 0.46183 0.19997 1.00238 0.0
C978 C 0.4447 0.19654 0.97179 0.0
C979 C 0.41188 0.17046 0.96885 0.0
C980 C 0.39578 0.14869 0.9955 0.0
C981 C 0.36088 0.12192 0.98518 0.0
C982 C 0.35683 0.08684 0.98806 0.0
C983 C 0.33437 0.12461 1.00639 0.0
C984 C 0.36029 0.13144 0.9483 0.0
C985 C 0.38998 0.15951 0.93936 0.0
C986 C 0.39647 0.17131 0.9059 0.0
C987 C 0.37203 0.15392 0.88094 0.0
C988 C 0.34131 0.12531 0.88962 0.0
C989 C 0.33532 0.11428 0.92387 0.0
H990 H 0.97873 0.3201 0.87665 0.0
H991 H 0.96764 0.23054 0.92506 0.0
H992 H 0.95132 0.24623 0.9785 0.0
H993 H 0.01481 0.37343 0.94469 0.0
H994 H 0.99364 0.39698 0.93938 0.0
H995 H 0.00019 0.37704 0.90319 0.0
H996 H 0.93674 0.34507 0.89055 0.0
H997 H 0.93 0.36541 0.92636 0.0
H998 H 0.90784 0.32044 0.92367 0.0
H999 H 0.94573 0.27592 0.02908 0.0
H1000 H 0.94237 0.31379 0.07151 0.0
H1001 H 0.95267 0.3823 0.99077 0.0
C1002 C 0.97168 0.30313 0.89807 0.0
C1003 C 0.97456 0.27399 0.89639 0.0
C1004 C 0.96571 0.25295 0.92545 0.0
C1005 C 0.95646 0.2617 0.95608 0.0
C1006 C 0.95554 0.29134 0.95736 0.0
C1007 C 0.96204 0.31136 0.92895 0.0
C1008 C 0.9606 0.34266 0.93781 0.0
C1009 C 0.99431 0.37439 0.93085 0.0
C1010 C 0.93209 0.34343 0.91845 0.0
C1011 C 0.95331 0.33753 0.97576 0.0
C1012 C 0.9507 0.30781 0.9865 0.0
C1013 C 0.9469 0.29884 0.02085 0.0
C1014 C 0.94526 0.32055 0.04478 0.0
C1015 C 0.94689 0.35061 0.03426 0.0
C1016 C 0.95079 0.35912 0.99929 0.0
H1017 H 0.77901 0.70855 0.04538 0.0
H1018 H 0.76192 0.61585 0.99918 0.0
H1019 H 0.7854 0.64547 0.94523 0.0
H1020 H 0.75605 0.73868 0.9758 0.0
H1021 H 0.78757 0.78195 0.98099 0.0
H1022 H 0.77315 0.75463 0.01739 0.0
H1023 H 0.83381 0.76932 0.03104 0.0
H1024 H 0.84851 0.79701 0.99481 0.0
H1025 H 0.85843 0.76405 0.99865 0.0
H1026 H 0.80222 0.68276 0.89393 0.0
H1027 H 0.81703 0.72689 0.85055 0.0
H1028 H 0.82728 0.79659 0.92994 0.0
C1029 C 0.78098 0.6946 0.02422 0.0
C1030 C 0.76849 0.65972 0.02679 0.0
C1031 C 0.77133 0.64252 0.99818 0.0
C1032 C 0.78462 0.65915 0.96726 0.0
C1033 C 0.7956 0.69319 0.96528 0.0
C1034 C 0.79458 0.71093 0.99315 0.0
C1035 C 0.80667 0.74709 0.98369 0.0
C1036 C 0.77922 0.75609 0.98983 0.0
C1037 C 0.83877 0.77077 1.00321 0.0
C1038 C 0.81355 0.74659 0.94593 0.0
C1039 C 0.80693 0.71519 0.93583 0.0
C1040 C 0.80831 0.70766 0.90166 0.0
C1041 C 0.81661 0.7328 0.87718 0.0
C1042 C 0.82394 0.76524 0.88698 0.0
C1043 C 0.82277 0.77225 0.92188 0.0
H1044 H 0.97661 0.72273 0.46503 0.0
H1045 H 0.88796 0.64042 0.41953 0.0
H1046 H 0.90083 0.67129 0.36539 0.0
H1047 H 0.97127 0.79045 0.41838 0.0
H1048 H 0.016 0.81537 0.41419 0.0
H1049 H -0.00201 0.78831 0.45053 0.0
H1050 H 0.03242 0.7596 0.43653 0.0
H1051 H 0.05025 0.78627 0.40001 0.0
H1052 H 0.02876 0.74151 0.39495 0.0
H1053 H 0.9276 0.70707 0.31384 0.0
H1054 H 0.96327 0.7484 0.27037 0.0
H1055 H 0.03246 0.80953 0.34935 0.0
C1056 C 0.95939 0.71151 0.44399 0.0
C1057 C 0.93119 0.67899 0.44682 0.0
C1058 C 0.90962 0.66526 0.41834 0.0
C1059 C 0.91676 0.6826 0.38731 0.0
C1060 C 0.9453 0.71401 0.38508 0.0
C1061 C 0.96594 0.72869 0.41283 0.0
C1062 C -0.00427 0.76223 0.40317 0.0
C1063 C -0.0048 0.79078 0.42273 0.0
C1064 C 0.02873 0.76239 0.40901 0.0
C1065 C 0.98914 0.76359 0.36548 0.0
C1066 C 0.95994 0.73544 0.35554 0.0
C1067 C 0.95009 0.72958 0.32146 0.0
C1068 C 0.97054 0.75308 0.29693 0.0
C1069 C 0.00025 0.78237 0.30659 0.0
C1070 C 0.00941 0.78777 0.34139 0.0
H1071 H 0.32679 0.32696 0.34995 0.0
H1072 H 0.31523 0.23085 0.32257 0.0
H1073 H 0.35311 0.23587 0.36989 0.0
H1074 H 0.41247 0.36771 0.37453 0.0
H1075 H 0.40718 0.3895 0.4099 0.0
H1076 H 0.37988 0.37831 0.37358 0.0
H1077 H 0.32845 0.34674 0.41308 0.0
H1078 H 0.3556 0.35782 0.44953 0.0
H1079 H 0.32587 0.31455 0.44103 0.0
H1080 H 0.39605 0.25418 0.41847 0.0
H1081 H 0.4349 0.28108 0.46706 0.0
H1082 H 0.41296 0.36196 0.46526 0.0
C1083 C 0.33232 0.30701 0.35387 0.0
C1084 C 0.31843 0.27867 0.33244 0.0
C1085 C 0.3257 0.25278 0.33873 0.0
C1086 C 0.34723 0.25549 0.36546 0.0
C1087 C 0.36064 0.28389 0.38611 0.0
C1088 C 0.35297 0.30891 0.38089 0.0
C1089 C 0.36952 0.33632 0.40724 0.0
C1090 C 0.3937 0.36994 0.39029 0.0
C1091 C 0.34329 0.33899 0.42901 0.0
C1092 C 0.38813 0.32316 0.42789 0.0
C1093 C 0.38315 0.29311 0.41515 0.0
C1094 C 0.39964 0.27741 0.42897 0.0
C1095 C 0.42166 0.29282 0.45649 0.0
C1096 C 0.42636 0.32318 0.47031 0.0
C1097 C 0.40917 0.33828 0.4558 0.0
H1098 H 0.78078 0.12922 0.46848 0.0
H1099 H 0.77998 0.21455 0.42292 0.0
H1100 H 0.80356 0.20626 0.37016 0.0
H1101 H 0.85925 0.14372 0.42726 0.0
H1102 H 0.84393 0.0997 0.42142 0.0
H1103 H 0.8296 0.11388 0.45697 0.0
H1104 H 0.76833 0.07528 0.43802 0.0
H1105 H 0.78246 0.06102 0.40249 0.0
H1106 H 0.75605 0.07882 0.39532 0.0
H1107 H 0.8207 0.18497 0.31981 0.0
H1108 H 0.8327 0.15334 0.27666 0.0
H1109 H 0.82604 0.08383 0.35462 0.0
C1110 C 0.78615 0.14658 0.44768 0.0
C1111 C 0.77841 0.17261 0.45019 0.0
C1112 C 0.78559 0.19443 0.42198 0.0
C1113 C 0.79909 0.18998 0.39175 0.0
C1114 C 0.80578 0.16379 0.38991 0.0
C1115 C 0.79991 0.14263 0.41721 0.0
C1116 C 0.80799 0.11551 0.40787 0.0
C1117 C 0.83692 0.11839 0.42968 0.0
C1118 C 0.77685 0.0806 0.41111 0.0
C1119 C 0.81847 0.12426 0.37087 0.0
C1120 C 0.81703 0.15225 0.36106 0.0
C1121 C 0.82268 0.16349 0.32739 0.0
C1122 C 0.82951 0.14543 0.30304 0.0
C1123 C 0.83118 0.11673 0.31247 0.0
C1124 C 0.82611 0.1064 0.34697 0.0
H1125 H 0.78567 0.02382 0.08395 0.0
H1126 H 0.72305 0.95209 0.16032 0.0
H1127 H 0.67714 0.92518 0.11828 0.0
H1128 H 0.72245 0.03631 0.05073 0.0
H1129 H 0.73616 0.04151 1.00704 0.0
H1130 H 0.76587 0.05184 0.04102 0.0
H1131 H 0.784 0.0115 0.01594 0.0
H1132 H 0.75449 0.00122 0.98167 0.0
H1133 H 0.75296 0.96852 1.00802 0.0
H1134 H 0.63711 0.90835 0.06928 0.0
H1135 H 0.6044 0.90434 0.01823 0.0
H1136 H 0.6914 0.98979 0.97424 0.0
C1137 C 0.76264 0.00172 0.09133 0.0
C1138 C 0.75809 0.98927 0.12501 0.0
C1139 C 0.72715 0.96141 0.13441 0.0
C1140 C 0.70099 0.94606 0.11072 0.0
C1141 C 0.70597 0.95929 0.07786 0.0
C1142 C 0.73596 0.98661 0.06816 0.0
C1143 C 0.73357 -0.00196 0.03247 0.0
C1144 C 0.73988 0.03405 0.03286 0.0
C1145 C 0.75769 0.9946 1.00808 0.0
C1146 C 0.69746 0.97315 0.02379 0.0
C1147 C 0.68222 0.95072 0.05015 0.0
C1148 C 0.64884 0.9257 0.04843 0.0
C1149 C 0.63045 0.92363 0.0192 0.0
C1150 C 0.64517 0.94674 0.99201 0.0
C1151 C 0.6793 0.97173 0.99446 0.0
H1152 H 0.12134 0.78028 0.96301 0.0
H1153 H 0.21044 0.78367 1.00342 0.0
H1154 H 0.20674 0.81246 0.05468 0.0
H1155 H 0.13824 0.86223 0.9984 0.0
H1156 H 0.09467 0.84672 1.00729 0.0
H1157 H 0.10666 0.83013 0.97189 0.0
H1158 H 0.07042 0.7703 0.996 0.0
H1159 H 0.05845 0.78665 0.03146 0.0
H1160 H 0.07749 0.76139 0.03893 0.0
H1161 H 0.18894 0.83344 0.10493 0.0
H1162 H 0.15986 0.84751 0.14907 0.0
H1163 H 0.08367 0.83303 0.07571 0.0
C1164 C 0.14059 0.78776 0.98222 0.0
C1165 C 0.16627 0.77964 0.97893 0.0
C1166 C 0.19061 0.78963 1.00505 0.0
C1167 C 0.18873 0.80605 0.03436 0.0
C1168 C 0.1626 0.81279 0.03716 0.0
C1169 C 0.13918 0.80434 0.0116 0.0
C1170 C 0.11238 0.81249 0.02186 0.0
C1171 C 0.11304 0.8395 0.99847 0.0
C1172 C 0.07765 0.78082 0.02208 0.0
C1173 C 0.12373 0.82579 0.05765 0.0
C1174 C 0.15288 0.8259 0.06588 0.0
C1175 C 0.16656 0.83419 0.0985 0.0
C1176 C 0.14985 0.8421 0.12344 0.0
C1177 C 0.11987 0.84199 0.11567 0.0
C1178 C 0.10708 0.83433 0.08211 0.0
H1179 H 0.36811 0.44268 0.01087 0.0
H1180 H 0.28846 0.46467 0.9937 0.0
H1181 H 0.25793 0.42965 0.04365 0.0
H1182 H 0.31825 0.35813 0.03834 0.0
H1183 H 0.34753 0.36117 0.07043 0.0
H1184 H 0.36222 0.38725 0.03311 0.0
H1185 H 0.39087 0.43995 0.07137 0.0
H1186 H 0.3762 0.41403 0.10883 0.0
H1187 H 0.36649 0.44692 0.1027 0.0
H1188 H 0.23464 0.38848 0.09405 0.0
H1189 H 0.22352 0.34969 0.14268 0.0
H1190 H 0.32117 0.36 0.12927 0.0
C1191 C 0.34415 0.44001 0.01754 0.0
C1192 C 0.33041 0.45604 0.99823 0.0
C1193 C 0.29935 0.45251 1.00815 0.0
C1194 C 0.28186 0.43264 0.03641 0.0
C1195 C 0.29614 0.41709 0.05491 0.0
C1196 C 0.32686 0.42105 0.04607 0.0
C1197 C 0.3375 0.40279 0.07058 0.0
C1198 C 0.3416 0.37573 0.052 0.0
C1199 C 0.36967 0.4274 0.08949 0.0
C1200 C 0.30779 0.38746 0.09441 0.0
C1201 C 0.28393 0.3956 0.08486 0.0
C1202 C 0.25344 0.38248 0.10204 0.0
C1203 C 0.24729 0.36055 0.12959 0.0
C1204 C 0.27182 0.35266 0.13999 0.0
C1205 C 0.3024 0.36642 0.12225 0.0
H1206 H 0.13028 0.50016 0.33335 0.0
H1207 H 0.06235 0.49288 0.4134 0.0
H1208 H 0.01979 0.48386 0.37012 0.0
H1209 H 0.10383 0.53999 0.26771 0.0
H1210 H 0.10702 0.51566 0.23357 0.0
H1211 H 0.13384 0.52599 0.27028 0.0
H1212 H 0.11329 0.46321 0.28002 0.0
H1213 H 0.08652 0.45271 0.24336 0.0
H1214 H 0.06916 0.43423 0.28413 0.0
H1215 H 0.98334 0.47201 0.31886 0.0
H1216 H 0.95374 0.4537 0.26411 0.0
H1217 H 0.0438 0.46565 0.21636 0.0
C1218 C 0.10674 0.49751 0.34164 0.0
C1219 C 0.09982 0.49778 0.37677 0.0
C1220 C 0.06829 0.49304 0.38668 0.0
C1221 C 0.04401 0.48802 0.36224 0.0
C1222 C 0.05139 0.48741 0.32786 0.0
C1223 C 0.0819 0.49178 0.31751 0.0
C1224 C 0.08215 0.48668 0.27924 0.0
C1225 C 0.10827 0.51901 0.26166 0.0
C1226 C 0.08813 0.45747 0.27123 0.0
C1227 C 0.04688 0.47823 0.26979 0.0
C1228 C 0.02983 0.47936 0.29822 0.0
C1229 C -0.00347 0.47125 0.29641 0.0
C1230 C 0.97989 0.46085 0.26504 0.0
C1231 C -0.0037 0.45824 0.23562 0.0
C1232 C 0.03057 0.46783 0.23807 0.0
H1233 H 0.63539 0.67291 0.37468 0.0
H1234 H 0.56358 0.69395 0.32594 0.0
H1235 H 0.57009 0.67016 0.27222 0.0
H1236 H 0.69013 0.69318 0.30537 0.0
H1237 H 0.69928 0.65999 0.31224 0.0
H1238 H 0.68736 0.67658 0.34758 0.0
H1239 H 0.63895 0.61722 0.36198 0.0
H1240 H 0.6508 0.60041 0.32668 0.0
H1241 H 0.60876 0.59313 0.3296 0.0
H1242 H 0.58969 0.65071 0.22189 0.0
H1243 H 0.61726 0.63214 0.18016 0.0
H1244 H 0.67268 0.6192 0.26203 0.0
C1245 C 0.62066 0.67208 0.35285 0.0
C1246 C 0.59896 0.68538 0.35466 0.0
C1247 C 0.58019 0.68377 0.32541 0.0
C1248 C 0.58378 0.67036 0.29467 0.0
C1249 C 0.60577 0.65801 0.29359 0.0
C1250 C 0.62349 0.6582 0.32205 0.0
C1251 C 0.64595 0.64391 0.31383 0.0
C1252 C 0.68286 0.66997 0.32012 0.0
C1253 C 0.63548 0.61176 0.33424 0.0
C1254 C 0.63878 0.63652 0.27613 0.0
C1255 C 0.61563 0.64499 0.26491 0.0
C1256 C 0.60723 0.64324 0.23052 0.0
C1257 C 0.623 0.63272 0.20699 0.0
C1258 C 0.64643 0.62351 0.218 0.0
C1259 C 0.65404 0.62507 0.25309 0.0
H1260 H 0.44116 0.09326 0.23397 0.0
H1261 H 0.54138 0.10886 0.22477 0.0
H1262 H 0.53096 0.07158 0.27439 0.0
H1263 H 0.44179 0.09673 0.32487 0.0
H1264 H 0.39821 0.06594 0.32933 0.0
H1265 H 0.41267 0.09146 0.2916 0.0
H1266 H 0.38762 0.03831 0.25393 0.0
H1267 H 0.37285 0.01262 0.29155 0.0
H1268 H 0.39931 0.00704 0.26172 0.0
H1269 H 0.5082 0.03072 0.32443 0.0
H1270 H 0.47703 0.99399 0.37312 0.0
H1271 H 0.39442 0.01077 0.35278 0.0
C1272 C 0.4607 0.08835 0.24207 0.0
C1273 C 0.49185 0.10333 0.2252 0.0
C1274 C 0.51723 0.09727 0.23719 0.0
C1275 C 0.51151 0.07617 0.26531 0.0
C1276 C 0.48056 0.062 0.28161 0.0
C1277 C 0.45574 0.0682 0.27062 0.0
C1278 C 0.42548 0.05177 0.29373 0.0
C1279 C 0.41919 0.07805 0.3109 0.0
C1280 C 0.39449 0.0259 0.27406 0.0
C1281 C 0.43694 0.03508 0.31933 0.0
C1282 C 0.46858 0.04081 0.31169 0.0
C1283 C 0.48361 0.02645 0.33086 0.0
C1284 C 0.46579 0.00566 0.35843 0.0
C1285 C 0.43367 0.00013 0.36701 0.0
C1286 C 0.41929 0.01525 0.34727 0.0
H1287 H 0.70147 0.14461 0.69453 0.0
H1288 H 0.63111 0.08503 0.61567 0.0
H1289 H 0.59536 0.04359 0.65887 0.0
H1290 H 0.69703 0.07597 0.73846 0.0
H1291 H 0.70115 0.09327 0.78051 0.0
H1292 H 0.7188 0.12064 0.74444 0.0
H1293 H 0.68518 0.14985 0.75999 0.0
H1294 H 0.6673 0.12241 0.7961 0.0
H1295 H 0.64046 0.12524 0.76458 0.0
H1296 H 0.56917 0.00687 0.7094 0.0
H1297 H 0.55659 0.97455 0.76255 0.0
H1298 H 0.64506 0.05576 0.80943 0.0
C1299 C 0.67811 0.12322 0.68662 0.0
C1300 C 0.66871 0.11824 0.65184 0.0
C1301 C 0.63859 0.0894 0.64219 0.0
C1302 C 0.61807 0.06583 0.66659 0.0
C1303 C 0.62817 0.07114 0.7006 0.0
C1304 C 0.65761 0.09896 0.71066 0.0
C1305 C 0.6643 0.09675 0.74826 0.0
C1306 C 0.69726 0.09664 0.75319 0.0
C1307 C 0.6643 0.12527 0.76842 0.0
C1308 C 0.63433 0.06314 0.75759 0.0
C1309 C 0.61356 0.04918 0.72977 0.0
C1310 C 0.58512 0.01766 0.7314 0.0
C1311 C 0.57818 -0.00054 0.76184 0.0
C1312 C 0.59968 0.01251 0.79044 0.0
C1313 C 0.62774 0.04523 0.78837 0.0
H1314 H 0.07156 0.69352 0.78343 0.0
H1315 H 0.09308 0.61234 0.78502 0.0
H1316 H 0.05779 0.58792 0.73374 0.0
H1317 H 0.98587 0.64696 0.75134 0.0
H1318 H 0.99103 0.68096 0.72462 0.0
H1319 H 0.01466 0.68953 0.76348 0.0
H1320 H 0.06949 0.7237 0.7293 0.0
H1321 H 0.04607 0.71487 0.6903 0.0
H1322 H 0.07851 0.70425 0.69425 0.0
H1323 H 0.02046 0.57295 0.68169 0.0
H1324 H 0.98641 0.57005 0.63165 0.0
H1325 H 0.99442 0.6642 0.66123 0.0
C1326 C 0.06806 0.6701 0.77351 0.0
C1327 C 0.0843 0.65428 0.78856 0.0
C1328 C 0.08034 0.62446 0.77409 0.0
C1329 C 0.06044 0.6105 0.74498 0.0
C1330 C 0.04529 0.62711 0.73031 0.0
C1331 C 0.04907 0.65638 0.74399 0.0
C1332 C 0.03244 0.67078 0.72192 0.0
C1333 C 0.00433 0.67212 0.74151 0.0
C1334 C 0.05817 0.70545 0.70813 0.0
C1335 C 0.01863 0.64504 0.69368 0.0
C1336 C 0.0259 0.61979 0.69919 0.0
C1337 C 0.01481 0.59269 0.67704 0.0
C1338 C -0.00445 0.59126 0.64872 0.0
C1339 C 0.98824 0.61711 0.64244 0.0
C1340 C 0.00021 0.64443 0.66511 0.0
H1341 H 0.45806 0.45077 0.64577 0.0
H1342 H 0.54168 0.44559 0.68944 0.0
H1343 H 0.53447 0.46846 0.7433 0.0
H1344 H 0.47624 0.52967 0.68979 0.0
H1345 H 0.43255 0.51589 0.69538 0.0
H1346 H 0.44614 0.50187 0.65911 0.0
H1347 H 0.40516 0.44038 0.67589 0.0
H1348 H 0.39168 0.45416 0.71233 0.0
H1349 H 0.40765 0.42596 0.71789 0.0
H1350 H 0.51286 0.48349 0.79514 0.0
H1351 H 0.48254 0.49669 0.83897 0.0
H1352 H 0.41637 0.4972 0.76113 0.0
C1353 C 0.47535 0.45516 0.66638 0.0
C1354 C 0.50045 0.44631 0.66316 0.0
C1355 C 0.52238 0.45231 0.69097 0.0
C1356 C 0.51843 0.46522 0.72184 0.0
C1357 C 0.49286 0.47272 0.72448 0.0
C1358 C 0.47214 0.46863 0.69729 0.0
C1359 C 0.44604 0.47784 0.70724 0.0
C1360 C 0.45052 0.50812 0.68666 0.0
C1361 C 0.41054 0.44779 0.7031 0.0
C1362 C 0.45471 0.48672 0.74449 0.0
C1363 C 0.48169 0.4834 0.754 0.0
C1364 C 0.4923 0.48708 0.78783 0.0
C1365 C 0.47494 0.49445 0.81255 0.0
C1366 C 0.44778 0.4987 0.80318 0.0
C1367 C 0.43777 0.49507 0.76869 0.0
H1368 H 0.14054 0.31835 0.88343 0.0
H1369 H 0.11393 0.38742 0.83729 0.0
H1370 H 0.1733 0.42989 0.83334 0.0
H1371 H 0.217 0.3857 0.93104 0.0
H1372 H 0.2391 0.36328 0.92414 0.0
H1373 H 0.19438 0.34067 0.92938 0.0
H1374 H 0.18902 0.31076 0.87198 0.0
H1375 H 0.2335 0.33424 0.86571 0.0
H1376 H 0.20596 0.33533 0.83386 0.0
H1377 H 0.23327 0.45879 0.82169 0.0
H1378 H 0.29355 0.48102 0.81791 0.0
H1379 H 0.28338 0.396 0.87558 0.0
C1380 C 0.14708 0.34292 0.87403 0.0
C1381 C 0.12262 0.34942 0.86026 0.0
C1382 C 0.13225 0.38176 0.84771 0.0
C1383 C 0.16593 0.40604 0.84523 0.0
C1384 C 0.1895 0.39783 0.85623 0.0
C1385 C 0.1807 0.36768 0.87172 0.0
C1386 C 0.2113 0.36483 0.87967 0.0
C1387 C 0.21571 0.36356 0.91836 0.0
C1388 C 0.20983 0.33449 0.86173 0.0
C1389 C 0.23836 0.39737 0.8646 0.0
C1390 C 0.22501 0.41573 0.851 0.0
C1391 C 0.24426 0.44521 0.83314 0.0
C1392 C 0.2785 0.45733 0.83069 0.0
C1393 C 0.29334 0.44038 0.8467 0.0
C1394 C 0.27281 0.40958 0.86325 0.0
H1395 H 0.73178 0.83497 0.82215 0.0
H1396 H 0.81486 0.90947 0.88213 0.0
H1397 H 0.78777 0.94353 0.88482 0.0
H1398 H 0.71895 0.89036 0.77253 0.0
H1399 H 0.67398 0.86604 0.77255 0.0
H1400 H 0.69823 0.84554 0.77693 0.0
H1401 H 0.66809 0.81803 0.83357 0.0
H1402 H 0.6429 0.83745 0.82869 0.0
H1403 H 0.66667 0.84391 0.86715 0.0
H1404 H 0.75522 0.97209 0.87643 0.0
H1405 H 0.71215 0.98791 0.86909 0.0
H1406 H 0.64936 0.89441 0.81587 0.0
C1407 C 0.74392 0.85801 0.83661 0.0
C1408 C 0.77563 0.86962 0.85161 0.0
C1409 C 0.79063 0.9 0.87027 0.0
C1410 C 0.77563 0.91975 0.87171 0.0
C1411 C 0.74548 0.90856 0.8548 0.0
C1412 C 0.72921 0.87798 0.83853 0.0
C1413 C 0.69669 0.87175 0.82285 0.0
C1414 C 0.69701 0.86822 0.78391 0.0
C1415 C 0.66682 0.84098 0.83904 0.0
C1416 C 0.69744 0.90376 0.83276 0.0
C1417 C 0.72607 0.9248 0.85069 0.0
C1418 C 0.73247 0.95573 0.86275 0.0
C1419 C 0.70791 0.96456 0.8582 0.0
C1420 C 0.67719 0.94226 0.84218 0.0
C1421 C 0.67259 0.91211 0.82805 0.0
H1422 H 0.15103 0.81436 0.84503 0.0
H1423 H 0.2266 0.8031 0.79041 0.0
H1424 H 0.26256 0.86429 0.78874 0.0
H1425 H 0.16673 0.89297 0.80258 0.0
H1426 H 0.15903 0.90845 0.84166 0.0
H1427 H 0.13777 0.86419 0.83347 0.0
H1428 H 0.16021 0.85576 0.89104 0.0
H1429 H 0.18285 0.90012 0.89856 0.0
H1430 H 0.20463 0.87687 0.89838 0.0
H1431 H 0.29303 0.92572 0.79966 0.0
H1432 H 0.31149 0.9848 0.81153 0.0
H1433 H 0.21631 0.95504 0.86052 0.0
C1434 C 0.17463 0.82471 0.83167 0.0
C1435 C 0.18605 0.80395 0.81803 0.0
C1436 C 0.21718 0.8185 0.80087 0.0
C1437 C 0.23799 0.85323 0.80014 0.0
C1438 C 0.22702 0.8728 0.81629 0.0
C1439 C 0.1957 0.85918 0.83084 0.0
C1440 C 0.19038 0.88555 0.84768 0.0
C1441 C 0.1618 0.88794 0.83029 0.0
C1442 C 0.18416 0.87917 0.88619 0.0
C1443 C 0.22385 0.9161 0.84074 0.0
C1444 C 0.24468 0.9082 0.8228 0.0
C1445 C 0.27684 0.93233 0.81336 0.0
C1446 C 0.28719 0.96576 0.82055 0.0
C1447 C 0.26527 0.97459 0.83679 0.0
C1448 C 0.2338 0.94921 0.84832 0.0
H1449 H 0.39033 0.27595 0.6094 0.0
H1450 H 0.45862 0.33381 0.69065 0.0
H1451 H 0.42265 0.29139 0.73233 0.0
H1452 H 0.31129 0.24017 0.66222 0.0
H1453 H 0.29379 0.2002 0.64126 0.0
H1454 H 0.32131 0.23792 0.61828 0.0
H1455 H 0.35951 0.2136 0.60325 0.0
H1456 H 0.3323 0.17598 0.62625 0.0
H1457 H 0.37601 0.19961 0.63706 0.0
H1458 H 0.38632 0.24065 0.76314 0.0
H1459 H 0.34964 0.18284 0.78248 0.0
H1460 H 0.30288 0.15638 0.68287 0.0
C1461 C 0.39706 0.27994 0.63611 0.0
C1462 C 0.42715 0.3079 0.64694 0.0
C1463 C 0.43575 0.31227 0.6819 0.0
C1464 C 0.41534 0.28855 0.70581 0.0
C1465 C 0.38636 0.26071 0.69434 0.0
C1466 C 0.37697 0.25621 0.66044 0.0
C1467 C 0.34658 0.22209 0.65464 0.0
C1468 C 0.31646 0.2253 0.64344 0.0
C1469 C 0.35407 0.20163 0.62879 0.0
C1470 C 0.34165 0.20765 0.69021 0.0
C1471 C 0.36459 0.23072 0.71273 0.0
C1472 C 0.36766 0.22253 0.7461 0.0
C1473 C 0.347 0.18968 0.75673 0.0
C1474 C 0.32359 0.1656 0.73408 0.0
C1475 C 0.32025 0.17474 0.70069 0.0
H1476 H 0.82528 0.23431 0.65133 0.0
H1477 H 0.81942 0.15357 0.58934 0.0
H1478 H 0.86917 0.15908 0.61875 0.0
H1479 H 0.91494 0.28444 0.65359 0.0
H1480 H 0.9159 0.29738 0.69709 0.0
H1481 H 0.88035 0.28752 0.67058 0.0
H1482 H 0.84132 0.24417 0.71519 0.0
H1483 H 0.87676 0.25373 0.74176 0.0
H1484 H 0.84905 0.21128 0.72846 0.0
H1485 H 0.91856 0.17269 0.65536 0.0
H1486 H 0.96528 0.19396 0.6958 0.0
H1487 H 0.93859 0.26576 0.73429 0.0
C1488 C 0.83447 0.21785 0.64364 0.0
C1489 C 0.8184 0.1935 0.61791 0.0
C1490 C 0.83127 0.17241 0.60893 0.0
C1491 C 0.85949 0.17534 0.6255 0.0
C1492 C 0.8744 0.19939 0.65095 0.0
C1493 C 0.86241 0.22033 0.65993 0.0
C1494 C 0.88275 0.24381 0.68842 0.0
C1495 C 0.89948 0.28046 0.6767 0.0
C1496 C 0.86117 0.23788 0.72034 0.0
C1497 C 0.90818 0.23284 0.6941 0.0
C1498 C 0.90286 0.20718 0.67221 0.0
C1499 C 0.92304 0.19282 0.67255 0.0
C1500 C 0.94957 0.20519 0.69568 0.0
C1501 C 0.95577 0.23172 0.71824 0.0
C1502 C 0.93454 0.24549 0.71749 0.0
H1503 H 0.89679 0.79969 0.69325 0.0
H1504 H 0.80614 0.72261 0.7416 0.0
H1505 H 0.81069 0.67963 0.709 0.0
H1506 H 0.88115 0.76112 0.61018 0.0
H1507 H 0.92427 0.77349 0.60266 0.0
H1508 H 0.91392 0.79877 0.62932 0.0
H1509 H 0.94889 0.7944 0.67857 0.0
H1510 H 0.95953 0.76931 0.65202 0.0
H1511 H 0.9402 0.75374 0.69291 0.0
H1512 H 0.8248 0.64525 0.6727 0.0
H1513 H 0.84913 0.62017 0.63573 0.0
H1514 H 0.93087 0.71896 0.61002 0.0
C1515 C 0.87786 0.77379 0.69702 0.0
C1516 C 0.85105 0.76457 0.71999 0.0
C1517 C 0.82689 0.73036 0.72419 0.0
C1518 C 0.82917 0.70574 0.70571 0.0
C1519 C 0.85569 0.71574 0.68316 0.0
C1520 C 0.87971 0.74884 0.67877 0.0
C1521 C 0.90607 0.7526 0.65339 0.0
C1522 C 0.90635 0.77268 0.62203 0.0
C1523 C 0.94072 0.76844 0.67024 0.0
C1524 C 0.8932 0.7163 0.64448 0.0
C1525 C 0.864 0.69563 0.66191 0.0
C1526 C 0.84762 0.66109 0.65887 0.0
C1527 C 0.86175 0.64715 0.63789 0.0
C1528 C 0.892 0.66769 0.62021 0.0
C1529 C 0.90764 0.70276 0.62308 0.0
H1530 H 0.94604 0.80253 0.14953 0.0
H1531 H 0.98007 0.7325 0.17374 0.0
H1532 H 0.9225 0.68929 0.18641 0.0
H1533 H 0.88538 0.77825 0.21256 0.0
H1534 H 0.85459 0.78109 0.18685 0.0
H1535 H 0.89832 0.80689 0.17714 0.0
H1536 H 0.8886 0.78369 0.11547 0.0
H1537 H 0.84464 0.75895 0.12455 0.0
H1538 H 0.86708 0.73912 0.10879 0.0
H1539 H 0.86349 0.6562 0.2035 0.0
H1540 H 0.80241 0.62831 0.20726 0.0
H1541 H 0.80531 0.71802 0.16882 0.0
C1542 C 0.94132 0.77785 0.15648 0.0
C1543 C 0.96773 0.77119 0.1612 0.0
C1544 C 0.96038 0.73845 0.17028 0.0
C1545 C 0.92777 0.71374 0.1779 0.0
C1546 C 0.90276 0.72193 0.17553 0.0
C1547 C 0.90877 0.75262 0.1637 0.0
C1548 C 0.87693 0.75431 0.16245 0.0
C1549 C 0.87895 0.78177 0.18616 0.0
C1550 C 0.86883 0.75929 0.12563 0.0
C1551 C 0.85229 0.71984 0.17574 0.0
C1552 C 0.86797 0.70197 0.18386 0.0
C1553 C 0.85072 0.66967 0.19683 0.0
C1554 C 0.81602 0.65422 0.19929 0.0
C1555 C 0.79904 0.6709 0.18803 0.0
C1556 C 0.8176 0.70466 0.17762 0.0
H1557 H 0.31897 0.23257 0.15879 0.0
H1558 H 0.38539 0.32797 0.20671 0.0
H1559 H 0.42848 0.31173 0.21241 0.0
H1560 H 0.3369 0.1845 0.21127 0.0
H1561 H 0.33567 0.15603 0.17915 0.0
H1562 H 0.31155 0.17651 0.17371 0.0
H1563 H 0.34018 0.20116 0.11573 0.0
H1564 H 0.36336 0.17957 0.12021 0.0
H1565 H 0.38514 0.22409 0.1132 0.0
H1566 H 0.46126 0.28243 0.21954 0.0
H1567 H 0.48631 0.24623 0.21704 0.0
H1568 H 0.39771 0.16991 0.16543 0.0
C1569 C 0.34305 0.25065 0.16917 0.0
C1570 C 0.34884 0.28151 0.18231 0.0
C1571 C 0.38046 0.30416 0.19645 0.0
C1572 C 0.40499 0.29509 0.20005 0.0
C1573 C 0.39751 0.26346 0.18913 0.0
C1574 C 0.36771 0.24195 0.17312 0.0
C1575 C 0.36533 0.20886 0.16496 0.0
C1576 C 0.3356 0.17978 0.18338 0.0
C1577 C 0.36341 0.2031 0.12623 0.0
C1578 C 0.39822 0.215 0.17938 0.0
C1579 C 0.41635 0.24653 0.19337 0.0
C1580 C 0.44748 0.25777 0.20834 0.0
C1581 C 0.46131 0.23685 0.2072 0.0
C1582 C 0.44403 0.20531 0.19089 0.0
C1583 C 0.41156 0.19388 0.17806 0.0
H1584 H 0.8224 0.14956 0.17763 0.0
H1585 H 0.90497 0.14478 0.13041 0.0
H1586 H 0.93806 0.20623 0.13034 0.0
H1587 H 0.83659 0.22709 0.13402 0.0
H1588 H 0.82474 0.24106 0.1716 0.0
H1589 H 0.80636 0.19702 0.16316 0.0
H1590 H 0.82562 0.18945 0.22291 0.0
H1591 H 0.84535 0.23364 0.231 0.0
H1592 H 0.86933 0.21269 0.23375 0.0
H1593 H 0.96457 0.26739 0.14219 0.0
H1594 H 0.97906 0.32536 0.15439 0.0
H1595 H 0.87929 0.28961 0.19485 0.0
C1596 C 0.84701 0.16133 0.1662 0.0
C1597 C 0.86109 0.14224 0.15422 0.0
C1598 C 0.89351 0.15877 0.13966 0.0
C1599 C 0.91268 0.1937 0.1398 0.0
C1600 C 0.89887 0.21159 0.1542 0.0
C1601 C 0.86647 0.19606 0.16623 0.0
C1602 C 0.85798 0.22093 0.18154 0.0
C1603 C 0.82976 0.22157 0.16137 0.0
C1604 C 0.84905 0.21373 0.21955 0.0
C1605 C 0.8909 0.25282 0.17671 0.0
C1606 C 0.91419 0.24687 0.16107 0.0
C1607 C 0.94644 0.27246 0.15406 0.0
C1608 C 0.9545 0.30529 0.16145 0.0
C1609 C 0.93026 0.31216 0.17545 0.0
C1610 C 0.8985 0.28534 0.18435 0.0
H1611 H 0.78718 0.95195 0.31541 0.0
H1612 H 0.71623 0.98054 0.27868 0.0
H1613 H 0.67169 0.93492 0.31184 0.0
H1614 H 0.73158 0.86417 0.3116 0.0
H1615 H 0.7473 0.855 0.34968 0.0
H1616 H 0.77432 0.89112 0.32446 0.0
H1617 H 0.78695 0.92893 0.37756 0.0
H1618 H 0.75981 0.89291 0.40293 0.0
H1619 H 0.75288 0.92796 0.40088 0.0
H1620 H 0.63472 0.88618 0.34718 0.0
H1621 H 0.6062 0.83459 0.38096 0.0
H1622 H 0.70048 0.83651 0.39468 0.0
C1623 C 0.76233 0.94876 0.31452 0.0
C1624 C 0.75524 0.96986 0.29447 0.0
C1625 C 0.7223 0.96463 0.29373 0.0
C1626 C 0.69683 0.93891 0.31263 0.0
C1627 C 0.70466 0.91862 0.33209 0.0
C1628 C 0.73648 0.92305 0.33311 0.0
C1629 C 0.73769 0.89667 0.35501 0.0
C1630 C 0.74834 0.87549 0.33392 0.0
C1631 C 0.7607 0.91258 0.38593 0.0
C1632 C 0.70144 0.87655 0.3657 0.0
C1633 C 0.68299 0.88992 0.3524 0.0
C1634 C 0.64884 0.87543 0.35784 0.0
C1635 C 0.63288 0.84606 0.37699 0.0
C1636 C 0.65109 0.8314 0.39034 0.0
C1637 C 0.68593 0.8472 0.385 0.0
H1638 H 0.15857 0.90671 0.3151 0.0
H1639 H 0.15126 0.82509 0.25342 0.0
H1640 H 0.20078 0.83006 0.28174 0.0
H1641 H 0.24929 0.95562 0.31567 0.0
H1642 H 0.25156 0.9691 0.35916 0.0
H1643 H 0.2157 0.95996 0.33345 0.0
H1644 H 0.17692 0.91755 0.37888 0.0
H1645 H 0.21267 0.92642 0.40463 0.0
H1646 H 0.18382 0.88405 0.39191 0.0
H1647 H 0.2494 0.8421 0.31673 0.0
H1648 H 0.29662 0.86203 0.35636 0.0
H1649 H 0.27353 0.93612 0.39595 0.0
C1650 C 0.16754 0.89007 0.30741 0.0
C1651 C 0.1509 0.86545 0.28214 0.0
C1652 C 0.16337 0.84403 0.27288 0.0
C1653 C 0.19156 0.84664 0.28874 0.0
C1654 C 0.20706 0.87079 0.31378 0.0
C1655 C 0.19574 0.89226 0.32307 0.0
C1656 C 0.2171 0.91569 0.35115 0.0
C1657 C 0.23444 0.95226 0.33912 0.0
C1658 C 0.19638 0.91061 0.38356 0.0
C1659 C 0.24195 0.90377 0.35616 0.0
C1660 C 0.2356 0.87789 0.33425 0.0
C1661 C 0.25483 0.86247 0.33398 0.0
C1662 C 0.28161 0.87402 0.35662 0.0
C1663 C 0.28888 0.90074 0.37923 0.0
C1664 C 0.26861 0.91564 0.37904 0.0
H1665 H 0.22236 0.46144 0.36974 0.0
H1666 H 0.13928 0.38766 0.43026 0.0
H1667 H 0.14449 0.34278 0.40282 0.0
H1668 H 0.20137 0.41271 0.2928 0.0
H1669 H 0.24416 0.4265 0.2817 0.0
H1670 H 0.23416 0.45338 0.30605 0.0
H1671 H 0.27536 0.45785 0.35335 0.0
H1672 H 0.28558 0.4311 0.32908 0.0
H1673 H 0.27083 0.42023 0.37226 0.0
H1674 H 0.15835 0.3059 0.36978 0.0
H1675 H 0.18084 0.27882 0.33279 0.0
H1676 H 0.25472 0.37609 0.29331 0.0
C1677 C 0.20528 0.43588 0.37725 0.0
C1678 C 0.1804 0.42817 0.40211 0.0
C1679 C 0.15853 0.39431 0.41121 0.0
C1680 C 0.16123 0.36855 0.39579 0.0
C1681 C 0.18587 0.37699 0.37132 0.0
C1682 C 0.20755 0.40974 0.36206 0.0
C1683 C 0.2319 0.41179 0.33512 0.0
C1684 C 0.22762 0.42699 0.30195 0.0
C1685 C 0.26805 0.4314 0.34825 0.0
C1686 C 0.22044 0.37506 0.33085 0.0
C1687 C 0.19386 0.35549 0.35199 0.0
C1688 C 0.17916 0.32087 0.35303 0.0
C1689 C 0.19216 0.30577 0.33195 0.0
C1690 C 0.21955 0.32533 0.31015 0.0
C1691 C 0.23366 0.36042 0.30953 0.0
H1692 H 0.0398 0.50529 0.06598 0.0
H1693 H 0.94569 0.50474 0.05975 0.0
H1694 H 0.97244 0.55571 0.02494 0.0
H1695 H 0.09423 0.59805 0.06837 0.0
H1696 H 0.12596 0.59713 0.04247 0.0
H1697 H 0.10048 0.56255 0.07029 0.0
H1698 H 0.08325 0.5221 0.01888 0.0
H1699 H 0.10825 0.55654 0.99085 0.0
H1700 H 0.06446 0.5295 0.98211 0.0
H1701 H 0.00641 0.60187 0.98596 0.0
H1702 H 0.04802 0.64489 0.94804 0.0
H1703 H 0.12123 0.61742 0.97961 0.0
C1704 C 0.02512 0.51643 0.05799 0.0
C1705 C 0.99068 0.50102 0.06543 0.0
C1706 C 0.97208 0.51598 0.0541 0.0
C1707 C 0.98703 0.545 0.03441 0.0
C1708 C 0.02066 0.5589 0.02645 0.0
C1709 C 0.0397 0.54553 0.03816 0.0
C1710 C 0.07495 0.56466 0.02417 0.0
C1711 C 0.10041 0.58161 0.05305 0.0
C1712 C 0.08319 0.54183 1.00273 0.0
C1713 C 0.07228 0.59017 1.00214 0.0
C1714 C 0.04072 0.58633 1.00399 0.0
C1715 C 0.03141 0.60554 0.98461 0.0
C1716 C 0.05515 0.6297 0.96293 0.0
C1717 C 0.08787 0.63453 0.96093 0.0
C1718 C 0.0965 0.6145 0.98089 0.0
H1719 H 0.48407 0.50459 0.96117 0.0
H1720 H 0.47936 0.59558 0.9744 0.0
H1721 H 0.53297 0.62148 1.00458 0.0
H1722 H 0.51767 0.50617 0.04305 0.0
H1723 H 0.54469 0.49085 0.02903 0.0
H1724 H 0.50678 0.47959 1.00609 0.0
H1725 H 0.54067 0.50299 0.95036 0.0
H1726 H 0.57871 0.51426 0.97314 0.0
H1727 H 0.57482 0.54549 0.94927 0.0
H1728 H 0.58451 0.63699 0.035 0.0
H1729 H 0.63291 0.6418 0.0655 0.0
H1730 H 0.60567 0.54099 0.03406 0.0
C1731 C 0.49459 0.53006 0.97014 0.0
C1732 C 0.47754 0.54803 0.96561 0.0
C1733 C 0.49182 0.58121 0.97793 0.0
C1734 C 0.52236 0.59626 0.99492 0.0
C1735 C 0.53829 0.57782 0.99941 0.0
C1736 C 0.52511 0.54551 0.98751 0.0
C1737 C 0.54701 0.53104 0.9974 0.0
C1738 C 0.52789 0.50008 0.02026 0.0
C1739 C 0.56114 0.52298 0.96564 0.0
C1740 C 0.57419 0.56021 0.01704 0.0
C1741 C 0.56859 0.5869 0.01755 0.0
C1742 C 0.58939 0.61639 0.03472 0.0
C1743 C 0.61676 0.61876 0.0521 0.0
C1744 C 0.6231 0.59172 0.05228 0.0
C1745 C 0.6016 0.56213 0.03425 0.0
H1746 H 0.55824 0.1319 0.03048 0.0
H1747 H 0.46429 0.05817 0.07624 0.0
H1748 H 0.46619 0.01374 0.04373 0.0
H1749 H 0.5432 0.0931 0.94653 0.0
H1750 H 0.58587 0.10291 0.94106 0.0
H1751 H 0.5766 0.12972 0.96651 0.0
H1752 H 0.60811 0.12282 0.01766 0.0
H1753 H 0.6176 0.09613 0.99234 0.0
H1754 H 0.59633 0.08143 0.03252 0.0
H1755 H 0.47834 0.97727 1.00842 0.0
H1756 H 0.50164 0.94964 0.9737 0.0
H1757 H 0.58835 0.04622 0.95068 0.0
C1758 C 0.53796 0.10645 0.03343 0.0
C1759 C 0.51112 0.09854 0.05589 0.0
C1760 C 0.48522 0.06487 0.05935 0.0
C1761 C 0.48592 0.03943 0.04083 0.0
C1762 C 0.51268 0.04804 0.01902 0.0
C1763 C 0.53833 0.08061 0.01527 0.0
C1764 C 0.56492 0.08259 0.99125 0.0
C1765 C 0.5678 0.10331 0.95945 0.0
C1766 C 0.59873 0.09656 0.00954 0.0
C1767 C 0.5503 0.04596 0.98254 0.0
C1768 C 0.52 0.02663 0.99865 0.0
C1769 C 0.50199 0.99206 0.99554 0.0
C1770 C 0.51554 0.97663 0.97582 0.0
C1771 C 0.54692 0.99576 0.95955 0.0
C1772 C 0.56424 0.03096 0.96259 0.0
H1773 H 0.62067 0.07254 0.52588 0.0
H1774 H 0.62421 0.15978 0.47932 0.0
H1775 H 0.5633 0.13264 0.48287 0.0
H1776 H 0.5445 0.01173 0.48144 0.0
H1777 H 0.52942 0.98378 0.51743 0.0
H1778 H 0.57363 0.01023 0.51092 0.0
H1779 H 0.57875 0.03379 0.57199 0.0
H1780 H 0.53432 0.00827 0.57818 0.0
H1781 H 0.55443 0.05293 0.58361 0.0
H1782 H 0.50338 0.09913 0.4952 0.0
H1783 H 0.44508 0.05429 0.50104 0.0
H1784 H 0.47873 0.98679 0.53632 0.0
C1785 C 0.60863 0.08567 0.51576 0.0
C1786 C 0.62746 0.11851 0.50271 0.0
C1787 C 0.61057 0.1347 0.48964 0.0
C1788 C 0.57591 0.11968 0.49187 0.0
C1789 C 0.55836 0.08823 0.50664 0.0
C1790 C 0.57383 0.07081 0.51725 0.0
C1791 C 0.54852 0.03644 0.53038 0.0
C1792 C 0.54904 0.00892 0.50875 0.0
C1793 C 0.55437 0.03265 0.56829 0.0
C1794 C 0.51651 0.03741 0.52522 0.0
C1795 C 0.52303 0.06791 0.51234 0.0
C1796 C 0.49779 0.07496 0.50494 0.0
C1797 C 0.46475 0.04934 0.50856 0.0
C1798 C 0.45729 0.01689 0.51876 0.0
C1799 C 0.48355 0.01136 0.52874 0.0
H1800 H 0.04317 0.63523 0.51204 0.0
H1801 H 0.95274 0.54688 0.47778 0.0
H1802 H 0.97859 0.51262 0.48855 0.0
H1803 H 0.10011 0.60986 0.47235 0.0
H1804 H 0.13024 0.62813 0.50625 0.0
H1805 H 0.10447 0.64574 0.49508 0.0
H1806 H 0.08495 0.63906 0.55798 0.0
H1807 H 0.10951 0.62001 0.56897 0.0
H1808 H 0.06526 0.59825 0.57746 0.0
H1809 H 0.01016 0.48687 0.51029 0.0
H1810 H 0.05347 0.47225 0.52128 0.0
H1811 H 0.12671 0.57744 0.53495 0.0
C1812 C 0.02929 0.60887 0.5058 0.0
C1813 C -0.00411 0.5937 0.49432 0.0
C1814 C 0.97841 0.55914 0.48642 0.0
C1815 C 0.99265 0.5393 0.493 0.0
C1816 C 0.02472 0.55461 0.50645 0.0
C1817 C 0.04354 0.58874 0.51117 0.0
C1818 C 0.07835 0.59879 0.52365 0.0
C1819 C 0.10486 0.62199 0.49779 0.0
C1820 C 0.08488 0.61498 0.55912 0.0
C1821 C 0.07589 0.56484 0.52526 0.0
C1822 C 0.04427 0.53976 0.5164 0.0
C1823 C 0.03529 0.50626 0.51652 0.0
C1824 C 0.06009 0.49825 0.52307 0.0
C1825 C 0.0937 0.52378 0.52813 0.0
C1826 C 0.10131 0.55737 0.53113 0.0
H1827 H 0.54638 0.62361 0.52919 0.0
H1828 H 0.63933 0.6544 0.47498 0.0
H1829 H 0.62376 0.59541 0.46798 0.0
H1830 H 0.54347 0.55266 0.57339 0.0
H1831 H 0.49868 0.52798 0.56972 0.0
H1832 H 0.51868 0.57282 0.57209 0.0
H1833 H 0.48944 0.57289 0.51568 0.0
H1834 H 0.47027 0.52814 0.51254 0.0
H1835 H 0.49564 0.55427 0.47806 0.0
H1836 H 0.59654 0.53317 0.46366 0.0
H1837 H 0.56392 0.47205 0.47109 0.0
H1838 H 0.4886 0.48261 0.52707 0.0
C1839 C 0.56391 0.61812 0.51654 0.0
C1840 C 0.59402 0.64371 0.50255 0.0
C1841 C 0.61608 0.63527 0.48596 0.0
C1842 C 0.60736 0.60182 0.48157 0.0
C1843 C 0.57665 0.57723 0.49406 0.0
C1844 C 0.55561 0.58496 0.51184 0.0
C1845 C 0.52403 0.55386 0.5227 0.0
C1846 C 0.52106 0.5517 0.56179 0.0
C1847 C 0.49302 0.55221 0.50625 0.0
C1848 C 0.53067 0.52744 0.50828 0.0
C1849 C 0.56097 0.54139 0.49153 0.0
C1850 C 0.57278 0.52189 0.47678 0.0
C1851 C 0.55388 0.48716 0.48084 0.0
C1852 C 0.52372 0.47253 0.49975 0.0
C1853 C 0.51148 0.49297 0.51242 0.0
loop_
_geom_bond_atom_site_label_1
_geom_bond_atom_site_label_2
_geom_bond_distance
_geom_bond_site_symmetry_2
_ccdc_geom_bond_type
Sc0 O3 2.025 . S
Sc0 O10 2.105 . S
Sc0 O13 2.105 . S
Sc0 O16 2.105 . S
Sc0 O19 2.105 . S
Sc1 O3 2.025 . S
Sc1 O11 2.105 . S
Sc1 O15 2.105 . S
Sc1 O17 2.105 1_455 S
Sc1 O21 2.105 . S
Sc2 O3 2.025 . S
Sc2 O12 2.105 . S
Sc2 O14 2.105 . S
Sc2 O18 2.105 . S
Sc2 O20 2.105 . S
O3 Sc0 2.025 . S
O3 Sc1 2.025 . S
O3 Sc2 2.025 . S
C4 O10 1.268 . S
C4 O20 1.268 . S
C5 O11 1.268 . S
C5 O19 1.268 . S
C6 O12 1.268 . S
C6 O21 1.268 . S
C7 O13 1.268 1_655 S
C7 O17 1.268 . S
C8 O14 1.268 . S
C8 O16 1.268 . S
C9 O15 1.268 . S
C9 O18 1.268 . S
O10 Sc0 2.105 . S
O10 C4 1.268 . S
O11 Sc1 2.105 . S
O11 C5 1.268 . S
O12 Sc2 2.105 . S
O12 C6 1.268 . S
O13 Sc0 2.105 . S
O13 C7 1.268 1_455 S
O14 Sc2 2.105 . S
O14 C8 1.268 . S
O15 Sc1 2.105 . S
O15 C9 1.268 . S
O16 Sc0 2.105 . S
O16 C8 1.268 . S
O17 Sc1 2.105 1_655 S
O17 C7 1.268 . S
O18 Sc2 2.105 . S
O18 C9 1.268 . S
O19 Sc0 2.105 . S
O19 C5 1.268 . S
O20 Sc2 2.105 . S
O20 C4 1.268 . S
O21 Sc1 2.105 . S
O21 C6 1.268 . S
Sc22 O25 2.025 . S
Sc22 O32 2.105 . S
Sc22 O35 2.105 . S
Sc22 O38 2.105 . S
Sc22 O41 2.105 . S
Sc23 O25 2.025 . S
Sc23 O33 2.105 . S
Sc23 O37 2.105 . S
Sc23 O39 2.105 . S
Sc23 O43 2.105 . S
Sc24 O25 2.025 . S
Sc24 O34 2.105 . S
Sc24 O36 2.105 . S
Sc24 O40 2.105 . S
Sc24 O42 2.105 . S
O25 Sc22 2.025 . S
O25 Sc23 2.025 . S
O25 Sc24 2.025 . S
C26 O32 1.268 . S
C26 O42 1.268 . S
C27 O33 1.268 . S
C27 O41 1.268 . S
C28 O34 1.268 . S
C28 O43 1.268 . S
C29 O35 1.268 . S
C29 O39 1.268 . S
C30 O36 1.268 . S
C30 O38 1.268 . S
C31 O37 1.268 . S
C31 O40 1.268 . S
O32 Sc22 2.105 . S
O32 C26 1.268 . S
O33 Sc23 2.105 . S
O33 C27 1.268 . S
O34 Sc24 2.105 . S
O34 C28 1.268 . S
O35 Sc22 2.105 . S
O35 C29 1.268 . S
O36 Sc24 2.105 . S
O36 C30 1.268 . S
O37 Sc23 2.105 . S
O37 C31 1.268 . S
O38 Sc22 2.105 . S
O38 C30 1.268 . S
O39 Sc23 2.105 . S
O39 C29 1.268 . S
O40 Sc24 2.105 . S
O40 C31 1.268 . S
O41 Sc22 2.105 . S
O41 C27 1.268 . S
O42 Sc24 2.105 . S
O42 C26 1.268 . S
O43 Sc23 2.105 . S
O43 C28 1.268 . S
Sc44 O47 2.025 . S
Sc44 O54 2.105 . S
Sc44 O57 2.105 . S
Sc44 O60 2.105 . S
Sc44 O63 2.105 . S
Sc45 O47 2.025 . S
Sc45 O55 2.105 . S
Sc45 O59 2.105 . S
Sc45 O61 2.105 . S
Sc45 O65 2.105 . S
Sc46 O47 2.025 . S
Sc46 O56 2.105 . S
Sc46 O58 2.105 . S
Sc46 O62 2.105 . S
Sc46 O64 2.105 . S
O47 Sc44 2.025 . S
O47 Sc45 2.025 . S
O47 Sc46 2.025 . S
C48 O54 1.268 1_565 S
C48 O64 1.268 1_565 S
C49 O55 1.268 . S
C49 O63 1.268 . S
C50 O56 1.268 . S
C50 O65 1.268 . S
C51 O57 1.268 . S
C51 O61 1.268 . S
C52 O58 1.268 . S
C52 O60 1.268 . S
C53 O59 1.268 . S
C53 O62 1.268 . S
O54 Sc44 2.105 . S
O54 C48 1.268 1_545 S
O55 Sc45 2.105 . S
O55 C49 1.268 . S
O56 Sc46 2.105 . S
O56 C50 1.268 . S
O57 Sc44 2.105 . S
O57 C51 1.268 . S
O58 Sc46 2.105 . S
O58 C52 1.268 . S
O59 Sc45 2.105 . S
O59 C53 1.268 . S
O60 Sc44 2.105 . S
O60 C52 1.268 . S
O61 Sc45 2.105 . S
O61 C51 1.268 . S
O62 Sc46 2.105 . S
O62 C53 1.268 . S
O63 Sc44 2.105 . S
O63 C49 1.268 . S
O64 Sc46 2.105 . S
O64 C48 1.268 1_545 S
O65 Sc45 2.105 . S
O65 C50 1.268 . S
Sc66 O69 2.025 . S
Sc66 O76 2.105 . S
Sc66 O79 2.105 . S
Sc66 O82 2.105 . S
Sc66 O85 2.105 . S
Sc67 O69 2.025 . S
Sc67 O77 2.105 . S
Sc67 O81 2.105 . S
Sc67 O83 2.105 . S
Sc67 O87 2.105 . S
Sc68 O69 2.025 . S
Sc68 O78 2.105 . S
Sc68 O80 2.105 1_455 S
Sc68 O84 2.105 . S
Sc68 O86 2.105 . S
O69 Sc66 2.025 . S
O69 Sc67 2.025 . S
O69 Sc68 2.025 . S
C70 O76 1.268 . S
C70 O86 1.268 . S
C71 O77 1.268 . S
C71 O85 1.268 . S
C72 O78 1.268 . S
C72 O87 1.268 . S
C73 O79 1.268 . S
C73 O83 1.268 . S
C74 O80 1.268 . S
C74 O82 1.268 1_655 S
C75 O81 1.268 . S
C75 O84 1.268 . S
O76 Sc66 2.105 . S
O76 C70 1.268 . S
O77 Sc67 2.105 . S
O77 C71 1.268 . S
O78 Sc68 2.105 . S
O78 C72 1.268 . S
O79 Sc66 2.105 . S
O79 C73 1.268 . S
O80 Sc68 2.105 1_655 S
O80 C74 1.268 . S
O81 Sc67 2.105 . S
O81 C75 1.268 . S
O82 Sc66 2.105 . S
O82 C74 1.268 1_455 S
O83 Sc67 2.105 . S
O83 C73 1.268 . S
O84 Sc68 2.105 . S
O84 C75 1.268 . S
O85 Sc66 2.105 . S
O85 C71 1.268 . S
O86 Sc68 2.105 . S
O86 C70 1.268 . S
O87 Sc67 2.105 . S
O87 C72 1.268 . S
Sc88 O91 2.025 . S
Sc88 O98 2.105 . S
Sc88 O101 2.105 . S
Sc88 O104 2.105 . S
Sc88 O107 2.105 . S
Sc89 O91 2.025 . S
Sc89 O99 2.105 . S
Sc89 O103 2.105 . S
Sc89 O105 2.105 . S
Sc89 O109 2.105 . S
Sc90 O91 2.025 . S
Sc90 O100 2.105 . S
Sc90 O102 2.105 . S
Sc90 O106 2.105 . S
Sc90 O108 2.105 . S
O91 Sc88 2.025 . S
O91 Sc89 2.025 . S
O91 Sc90 2.025 . S
C92 O98 1.268 . S
C92 O108 1.268 . S
C93 O99 1.268 . S
C93 O107 1.268 . S
C94 O100 1.268 . S
C94 O109 1.268 . S
C95 O101 1.268 . S
C95 O105 1.268 . S
C96 O102 1.268 . S
C96 O104 1.268 . S
C97 O103 1.268 . S
C97 O106 1.268 . S
O98 Sc88 2.105 . S
O98 C92 1.268 . S
O99 Sc89 2.105 . S
O99 C93 1.268 . S
O100 Sc90 2.105 . S
O100 C94 1.268 . S
O101 Sc88 2.105 . S
O101 C95 1.268 . S
O102 Sc90 2.105 . S
O102 C96 1.268 . S
O103 Sc89 2.105 . S
O103 C97 1.268 . S
O104 Sc88 2.105 . S
O104 C96 1.268 . S
O105 Sc89 2.105 . S
O105 C95 1.268 . S
O106 Sc90 2.105 . S
O106 C97 1.268 . S
O107 Sc88 2.105 . S
O107 C93 1.268 . S
O108 Sc90 2.105 . S
O108 C92 1.268 . S
O109 Sc89 2.105 . S
O109 C94 1.268 . S
Sc110 O113 2.025 . S
Sc110 O120 2.105 . S
Sc110 O123 2.105 . S
Sc110 O126 2.105 . S
Sc110 O129 2.105 . S
Sc111 O113 2.025 . S
Sc111 O121 2.105 . S
Sc111 O125 2.105 . S
Sc111 O127 2.105 . S
Sc111 O131 2.105 . S
Sc112 O113 2.025 . S
Sc112 O122 2.105 . S
Sc112 O124 2.105 . S
Sc112 O128 2.105 . S
Sc112 O130 2.105 . S
O113 Sc110 2.025 . S
O113 Sc111 2.025 . S
O113 Sc112 2.025 . S
C114 O120 1.268 1_565 S
C114 O130 1.268 1_565 S
C115 O121 1.268 . S
C115 O129 1.268 . S
C116 O122 1.268 . S
C116 O131 1.268 . S
C117 O123 1.268 . S
C117 O127 1.268 . S
C118 O124 1.268 . S
C118 O126 1.268 . S
C119 O125 1.268 . S
C119 O128 1.268 . S
O120 Sc110 2.105 . S
O120 C114 1.268 1_545 S
O121 Sc111 2.105 . S
O121 C115 1.268 . S
O122 Sc112 2.105 . S
O122 C116 1.268 . S
O123 Sc110 2.105 . S
O123 C117 1.268 . S
O124 Sc112 2.105 . S
O124 C118 1.268 . S
O125 Sc111 2.105 . S
O125 C119 1.268 . S
O126 Sc110 2.105 . S
O126 C118 1.268 . S
O127 Sc111 2.105 . S
O127 C117 1.268 . S
O128 Sc112 2.105 . S
O128 C119 1.268 . S
O129 Sc110 2.105 . S
O129 C115 1.268 . S
O130 Sc112 2.105 . S
O130 C114 1.268 1_545 S
O131 Sc111 2.105 . S
O131 C116 1.268 . S
Sc132 O135 2.025 . S
Sc132 O142 2.105 . S
Sc132 O145 2.105 . S
Sc132 O148 2.105 . S
Sc132 O151 2.105 . S
Sc133 O135 2.025 . S
Sc133 O143 2.105 . S
Sc133 O147 2.105 . S
Sc133 O149 2.105 . S
Sc133 O153 2.105 . S
Sc134 O135 2.025 . S
Sc134 O144 2.105 . S
Sc134 O146 2.105 . S
Sc134 O150 2.105 . S
Sc134 O152 2.105 . S
O135 Sc132 2.025 . S
O135 Sc133 2.025 . S
O135 Sc134 2.025 . S
C136 O142 1.268 . S
C136 O152 1.268 . S
C137 O143 1.268 . S
C137 O151 1.268 . S
C138 O144 1.268 . S
C138 O153 1.268 . S
C139 O145 1.268 . S
C139 O149 1.268 . S
C140 O146 1.268 . S
C140 O148 1.268 . S
C141 O147 1.268 . S
C141 O150 1.268 . S
O142 Sc132 2.105 . S
O142 C136 1.268 . S
O143 Sc133 2.105 . S
O143 C137 1.268 . S
O144 Sc134 2.105 . S
O144 C138 1.268 . S
O145 Sc132 2.105 . S
O145 C139 1.268 . S
O146 Sc134 2.105 . S
O146 C140 1.268 . S
O147 Sc133 2.105 . S
O147 C141 1.268 . S
O148 Sc132 2.105 . S
O148 C140 1.268 . S
O149 Sc133 2.105 . S
O149 C139 1.268 . S
O150 Sc134 2.105 . S
O150 C141 1.268 . S
O151 Sc132 2.105 . S
O151 C137 1.268 . S
O152 Sc134 2.105 . S
O152 C136 1.268 . S
O153 Sc133 2.105 . S
O153 C138 1.268 . S
Sc154 O157 2.025 . S
Sc154 O164 2.105 . S
Sc154 O167 2.105 . S
Sc154 O170 2.105 . S
Sc154 O173 2.105 . S
Sc155 O157 2.025 . S
Sc155 O165 2.105 . S
Sc155 O169 2.105 . S
Sc155 O171 2.105 . S
Sc155 O175 2.105 . S
Sc156 O157 2.025 . S
Sc156 O166 2.105 . S
Sc156 O168 2.105 . S
Sc156 O172 2.105 . S
Sc156 O174 2.105 . S
O157 Sc154 2.025 . S
O157 Sc155 2.025 . S
O157 Sc156 2.025 . S
C158 O164 1.268 . S
C158 O174 1.268 . S
C159 O165 1.268 . S
C159 O173 1.268 . S
C160 O166 1.268 . S
C160 O175 1.268 . S
C161 O167 1.268 . S
C161 O171 1.268 . S
C162 O168 1.268 . S
C162 O170 1.268 . S
C163 O169 1.268 . S
C163 O172 1.268 . S
O164 Sc154 2.105 . S
O164 C158 1.268 . S
O165 Sc155 2.105 . S
O165 C159 1.268 . S
O166 Sc156 2.105 . S
O166 C160 1.268 . S
O167 Sc154 2.105 . S
O167 C161 1.268 . S
O168 Sc156 2.105 . S
O168 C162 1.268 . S
O169 Sc155 2.105 . S
O169 C163 1.268 . S
O170 Sc154 2.105 . S
O170 C162 1.268 . S
O171 Sc155 2.105 . S
O171 C161 1.268 . S
O172 Sc156 2.105 . S
O172 C163 1.268 . S
O173 Sc154 2.105 . S
O173 C159 1.268 . S
O174 Sc156 2.105 . S
O174 C158 1.268 . S
O175 Sc155 2.105 . S
O175 C160 1.268 . S
Sc176 O179 2.025 . S
Sc176 O186 2.105 . S
Sc176 O189 2.105 . S
Sc176 O192 2.105 . S
Sc176 O195 2.105 . S
Sc177 O179 2.025 . S
Sc177 O187 2.105 . S
Sc177 O191 2.105 . S
Sc177 O193 2.105 . S
Sc177 O197 2.105 . S
Sc178 O179 2.025 . S
Sc178 O188 2.105 . S
Sc178 O190 2.105 . S
Sc178 O194 2.105 . S
Sc178 O196 2.105 . S
O179 Sc176 2.025 . S
O179 Sc177 2.025 . S
O179 Sc178 2.025 . S
C180 O186 1.268 . S
C180 O196 1.268 . S
C181 O187 1.268 . S
C181 O195 1.268 . S
C182 O188 1.268 . S
C182 O197 1.268 . S
C183 O189 1.268 . S
C183 O193 1.268 . S
C184 O190 1.268 . S
C184 O192 1.268 . S
C185 O191 1.268 . S
C185 O194 1.268 . S
O186 Sc176 2.105 . S
O186 C180 1.268 . S
O187 Sc177 2.105 . S
O187 C181 1.268 . S
O188 Sc178 2.105 . S
O188 C182 1.268 . S
O189 Sc176 2.105 . S
O189 C183 1.268 . S
O190 Sc178 2.105 . S
O190 C184 1.268 . S
O191 Sc177 2.105 . S
O191 C185 1.268 . S
O192 Sc176 2.105 . S
O192 C184 1.268 . S
O193 Sc177 2.105 . S
O193 C183 1.268 . S
O194 Sc178 2.105 . S
O194 C185 1.268 . S
O195 Sc176 2.105 . S
O195 C181 1.268 . S
O196 Sc178 2.105 . S
O196 C180 1.268 . S
O197 Sc177 2.105 . S
O197 C182 1.268 . S
Sc198 O201 2.025 . S
Sc198 O208 2.105 . S
Sc198 O211 2.105 . S
Sc198 O214 2.105 . S
Sc198 O217 2.105 . S
Sc199 O201 2.025 . S
Sc199 O209 2.105 . S
Sc199 O213 2.105 . S
Sc199 O215 2.105 . S
Sc199 O219 2.105 . S
Sc200 O201 2.025 . S
Sc200 O210 2.105 . S
Sc200 O212 2.105 . S
Sc200 O216 2.105 . S
Sc200 O218 2.105 . S
O201 Sc198 2.025 . S
O201 Sc199 2.025 . S
O201 Sc200 2.025 . S
C202 O208 1.268 . S
C202 O218 1.268 . S
C203 O209 1.268 . S
C203 O217 1.268 . S
C204 O210 1.268 . S
C204 O219 1.268 . S
C205 O211 1.268 . S
C205 O215 1.268 . S
C206 O212 1.268 . S
C206 O214 1.268 . S
C207 O213 1.268 . S
C207 O216 1.268 . S
O208 Sc198 2.105 . S
O208 C202 1.268 . S
O209 Sc199 2.105 . S
O209 C203 1.268 . S
O210 Sc200 2.105 . S
O210 C204 1.268 . S
O211 Sc198 2.105 . S
O211 C205 1.268 . S
O212 Sc200 2.105 . S
O212 C206 1.268 . S
O213 Sc199 2.105 . S
O213 C207 1.268 . S
O214 Sc198 2.105 . S
O214 C206 1.268 . S
O215 Sc199 2.105 . S
O215 C205 1.268 . S
O216 Sc200 2.105 . S
O216 C207 1.268 . S
O217 Sc198 2.105 . S
O217 C203 1.268 . S
O218 Sc200 2.105 . S
O218 C202 1.268 . S
O219 Sc199 2.105 . S
O219 C204 1.268 . S
Sc220 O223 2.025 . S
Sc220 O230 2.105 . S
Sc220 O233 2.105 . S
Sc220 O236 2.105 . S
Sc220 O239 2.105 . S
Sc221 O223 2.025 . S
Sc221 O231 2.105 . S
Sc221 O235 2.105 . S
Sc221 O237 2.105 . S
Sc221 O241 2.105 . S
Sc222 O223 2.025 . S
Sc222 O232 2.105 . S
Sc222 O234 2.105 . S
Sc222 O238 2.105 . S
Sc222 O240 2.105 . S
O223 Sc220 2.025 . S
O223 Sc221 2.025 . S
O223 Sc222 2.025 . S
C224 O230 1.268 . S
C224 O240 1.268 . S
C225 O231 1.268 . S
C225 O239 1.268 . S
C226 O232 1.268 . S
C226 O241 1.268 . S
C227 O233 1.268 . S
C227 O237 1.268 . S
C228 O234 1.268 . S
C228 O236 1.268 . S
C229 O235 1.268 . S
C229 O238 1.268 . S
O230 Sc220 2.105 . S
O230 C224 1.268 . S
O231 Sc221 2.105 . S
O231 C225 1.268 . S
O232 Sc222 2.105 . S
O232 C226 1.268 . S
O233 Sc220 2.105 . S
O233 C227 1.268 . S
O234 Sc222 2.105 . S
O234 C228 1.268 . S
O235 Sc221 2.105 . S
O235 C229 1.268 . S
O236 Sc220 2.105 . S
O236 C228 1.268 . S
O237 Sc221 2.105 . S
O237 C227 1.268 . S
O238 Sc222 2.105 . S
O238 C229 1.268 . S
O239 Sc220 2.105 . S
O239 C225 1.268 . S
O240 Sc222 2.105 . S
O240 C224 1.268 . S
O241 Sc221 2.105 . S
O241 C226 1.268 . S
Sc242 O245 2.025 . S
Sc242 O252 2.105 . S
Sc242 O255 2.105 . S
Sc242 O258 2.105 . S
Sc242 O261 2.105 . S
Sc243 O245 2.025 . S
Sc243 O253 2.105 . S
Sc243 O257 2.105 . S
Sc243 O259 2.105 . S
Sc243 O263 2.105 . S
Sc244 O245 2.025 . S
Sc244 O254 2.105 . S
Sc244 O256 2.105 . S
Sc244 O260 2.105 . S
Sc244 O262 2.105 . S
O245 Sc242 2.025 . S
O245 Sc243 2.025 . S
O245 Sc244 2.025 . S
C246 O252 1.268 . S
C246 O262 1.268 . S
C247 O253 1.268 . S
C247 O261 1.268 . S
C248 O254 1.268 . S
C248 O263 1.268 . S
C249 O255 1.268 . S
C249 O259 1.268 . S
C250 O256 1.268 . S
C250 O258 1.268 . S
C251 O257 1.268 . S
C251 O260 1.268 . S
O252 Sc242 2.105 . S
O252 C246 1.268 . S
O253 Sc243 2.105 . S
O253 C247 1.268 . S
O254 Sc244 2.105 . S
O254 C248 1.268 . S
O255 Sc242 2.105 . S
O255 C249 1.268 . S
O256 Sc244 2.105 . S
O256 C250 1.268 . S
O257 Sc243 2.105 . S
O257 C251 1.268 . S
O258 Sc242 2.105 . S
O258 C250 1.268 . S
O259 Sc243 2.105 . S
O259 C249 1.268 . S
O260 Sc244 2.105 . S
O260 C251 1.268 . S
O261 Sc242 2.105 . S
O261 C247 1.268 . S
O262 Sc244 2.105 . S
O262 C246 1.268 . S
O263 Sc243 2.105 . S
O263 C248 1.268 . S
Sc264 O267 2.025 . S
Sc264 O274 2.105 . S
Sc264 O277 2.105 . S
Sc264 O280 2.105 . S
Sc264 O283 2.105 . S
Sc265 O267 2.025 . S
Sc265 O275 2.105 . S
Sc265 O279 2.105 . S
Sc265 O281 2.105 . S
Sc265 O285 2.105 . S
Sc266 O267 2.025 . S
Sc266 O276 2.105 . S
Sc266 O278 2.105 . S
Sc266 O282 2.105 . S
Sc266 O284 2.105 . S
O267 Sc264 2.025 . S
O267 Sc265 2.025 . S
O267 Sc266 2.025 . S
C268 O274 1.268 . S
C268 O284 1.268 . S
C269 O275 1.268 . S
C269 O283 1.268 . S
C270 O276 1.268 . S
C270 O285 1.268 . S
C271 O277 1.268 . S
C271 O281 1.268 . S
C272 O278 1.268 . S
C272 O280 1.268 . S
C273 O279 1.268 . S
C273 O282 1.268 . S
O274 Sc264 2.105 . S
O274 C268 1.268 . S
O275 Sc265 2.105 . S
O275 C269 1.268 . S
O276 Sc266 2.105 . S
O276 C270 1.268 . S
O277 Sc264 2.105 . S
O277 C271 1.268 . S
O278 Sc266 2.105 . S
O278 C272 1.268 . S
O279 Sc265 2.105 . S
O279 C273 1.268 . S
O280 Sc264 2.105 . S
O280 C272 1.268 . S
O281 Sc265 2.105 . S
O281 C271 1.268 . S
O282 Sc266 2.105 . S
O282 C273 1.268 . S
O283 Sc264 2.105 . S
O283 C269 1.268 . S
O284 Sc266 2.105 . S
O284 C268 1.268 . S
O285 Sc265 2.105 . S
O285 C270 1.268 . S
Sc286 O289 2.025 . S
Sc286 O296 2.105 . S
Sc286 O299 2.105 . S
Sc286 O302 2.105 . S
Sc286 O305 2.105 . S
Sc287 O289 2.025 . S
Sc287 O297 2.105 . S
Sc287 O301 2.105 . S
Sc287 O303 2.105 . S
Sc287 O307 2.105 . S
Sc288 O289 2.025 . S
Sc288 O298 2.105 . S
Sc288 O300 2.105 . S
Sc288 O304 2.105 . S
Sc288 O306 2.105 . S
O289 Sc286 2.025 . S
O289 Sc287 2.025 . S
O289 Sc288 2.025 . S
C290 O296 1.268 . S
C290 O306 1.268 . S
C291 O297 1.268 . S
C291 O305 1.268 . S
C292 O298 1.268 . S
C292 O307 1.268 . S
C293 O299 1.268 . S
C293 O303 1.268 . S
C294 O300 1.268 . S
C294 O302 1.268 . S
C295 O301 1.268 . S
C295 O304 1.268 . S
O296 Sc286 2.105 . S
O296 C290 1.268 . S
O297 Sc287 2.105 . S
O297 C291 1.268 . S
O298 Sc288 2.105 . S
O298 C292 1.268 . S
O299 Sc286 2.105 . S
O299 C293 1.268 . S
O300 Sc288 2.105 . S
O300 C294 1.268 . S
O301 Sc287 2.105 . S
O301 C295 1.268 . S
O302 Sc286 2.105 . S
O302 C294 1.268 . S
O303 Sc287 2.105 . S
O303 C293 1.268 . S
O304 Sc288 2.105 . S
O304 C295 1.268 . S
O305 Sc286 2.105 . S
O305 C291 1.268 . S
O306 Sc288 2.105 . S
O306 C290 1.268 . S
O307 Sc287 2.105 . S
O307 C292 1.268 . S
Sc308 O311 2.025 . S
Sc308 O318 2.105 . S
Sc308 O321 2.105 . S
Sc308 O324 2.105 . S
Sc308 O327 2.105 . S
Sc309 O311 2.025 . S
Sc309 O319 2.105 . S
Sc309 O323 2.105 . S
Sc309 O325 2.105 . S
Sc309 O329 2.105 . S
Sc310 O311 2.025 . S
Sc310 O320 2.105 . S
Sc310 O322 2.105 . S
Sc310 O326 2.105 . S
Sc310 O328 2.105 . S
O311 Sc308 2.025 . S
O311 Sc309 2.025 . S
O311 Sc310 2.025 . S
C312 O318 1.268 . S
C312 O328 1.268 . S
C313 O319 1.268 . S
C313 O327 1.268 . S
C314 O320 1.268 . S
C314 O329 1.268 . S
C315 O321 1.268 . S
C315 O325 1.268 . S
C316 O322 1.268 . S
C316 O324 1.268 . S
C317 O323 1.268 . S
C317 O326 1.268 . S
O318 Sc308 2.105 . S
O318 C312 1.268 . S
O319 Sc309 2.105 . S
O319 C313 1.268 . S
O320 Sc310 2.105 . S
O320 C314 1.268 . S
O321 Sc308 2.105 . S
O321 C315 1.268 . S
O322 Sc310 2.105 . S
O322 C316 1.268 . S
O323 Sc309 2.105 . S
O323 C317 1.268 . S
O324 Sc308 2.105 . S
O324 C316 1.268 . S
O325 Sc309 2.105 . S
O325 C315 1.268 . S
O326 Sc310 2.105 . S
O326 C317 1.268 . S
O327 Sc308 2.105 . S
O327 C313 1.268 . S
O328 Sc310 2.105 . S
O328 C312 1.268 . S
O329 Sc309 2.105 . S
O329 C314 1.268 . S
Sc330 O333 2.025 . S
Sc330 O340 2.105 . S
Sc330 O343 2.105 . S
Sc330 O346 2.105 . S
Sc330 O349 2.105 . S
Sc331 O333 2.025 . S
Sc331 O341 2.105 . S
Sc331 O345 2.105 . S
Sc331 O347 2.105 . S
Sc331 O351 2.105 . S
Sc332 O333 2.025 . S
Sc332 O342 2.105 . S
Sc332 O344 2.105 . S
Sc332 O348 2.105 . S
Sc332 O350 2.105 . S
O333 Sc330 2.025 . S
O333 Sc331 2.025 . S
O333 Sc332 2.025 . S
C334 O340 1.268 . S
C334 O350 1.268 . S
C335 O341 1.268 . S
C335 O349 1.268 . S
C336 O342 1.268 . S
C336 O351 1.268 . S
C337 O343 1.268 . S
C337 O347 1.268 . S
C338 O344 1.268 . S
C338 O346 1.268 . S
C339 O345 1.268 . S
C339 O348 1.268 . S
O340 Sc330 2.105 . S
O340 C334 1.268 . S
O341 Sc331 2.105 . S
O341 C335 1.268 . S
O342 Sc332 2.105 . S
O342 C336 1.268 . S
O343 Sc330 2.105 . S
O343 C337 1.268 . S
O344 Sc332 2.105 . S
O344 C338 1.268 . S
O345 Sc331 2.105 . S
O345 C339 1.268 . S
O346 Sc330 2.105 . S
O346 C338 1.268 . S
O347 Sc331 2.105 . S
O347 C337 1.268 . S
O348 Sc332 2.105 . S
O348 C339 1.268 . S
O349 Sc330 2.105 . S
O349 C335 1.268 . S
O350 Sc332 2.105 . S
O350 C334 1.268 . S
O351 Sc331 2.105 . S
O351 C336 1.268 . S
Sc352 O355 2.025 . S
Sc352 O362 2.105 . S
Sc352 O365 2.105 . S
Sc352 O368 2.105 . S
Sc352 O371 2.105 . S
Sc353 O355 2.025 . S
Sc353 O363 2.105 . S
Sc353 O367 2.105 . S
Sc353 O369 2.105 . S
Sc353 O373 2.105 . S
Sc354 O355 2.025 . S
Sc354 O364 2.105 . S
Sc354 O366 2.105 . S
Sc354 O370 2.105 . S
Sc354 O372 2.105 . S
O355 Sc352 2.025 . S
O355 Sc353 2.025 . S
O355 Sc354 2.025 . S
C356 O362 1.268 . S
C356 O372 1.268 . S
C357 O363 1.268 . S
C357 O371 1.268 . S
C358 O364 1.268 . S
C358 O373 1.268 . S
C359 O365 1.268 . S
C359 O369 1.268 . S
C360 O366 1.268 . S
C360 O368 1.268 . S
C361 O367 1.268 . S
C361 O370 1.268 . S
O362 Sc352 2.105 . S
O362 C356 1.268 . S
O363 Sc353 2.105 . S
O363 C357 1.268 . S
O364 Sc354 2.105 . S
O364 C358 1.268 . S
O365 Sc352 2.105 . S
O365 C359 1.268 . S
O366 Sc354 2.105 . S
O366 C360 1.268 . S
O367 Sc353 2.105 . S
O367 C361 1.268 . S
O368 Sc352 2.105 . S
O368 C360 1.268 . S
O369 Sc353 2.105 . S
O369 C359 1.268 . S
O370 Sc354 2.105 . S
O370 C361 1.268 . S
O371 Sc352 2.105 . S
O371 C357 1.268 . S
O372 Sc354 2.105 . S
O372 C356 1.268 . S
O373 Sc353 2.105 . S
O373 C358 1.268 . S
Sc374 O377 2.025 . S
Sc374 O384 2.105 . S
Sc374 O387 2.105 . S
Sc374 O390 2.105 . S
Sc374 O393 2.105 . S
Sc375 O377 2.025 . S
Sc375 O385 2.105 . S
Sc375 O389 2.105 . S
Sc375 O391 2.105 . S
Sc375 O395 2.105 . S
Sc376 O377 2.025 . S
Sc376 O386 2.105 . S
Sc376 O388 2.105 . S
Sc376 O392 2.105 . S
Sc376 O394 2.105 . S
O377 Sc374 2.025 . S
O377 Sc375 2.025 . S
O377 Sc376 2.025 . S
C378 O384 1.268 . S
C378 O394 1.268 . S
C379 O385 1.268 . S
C379 O393 1.268 . S
C380 O386 1.268 . S
C380 O395 1.268 . S
C381 O387 1.268 . S
C381 O391 1.268 . S
C382 O388 1.268 . S
C382 O390 1.268 . S
C383 O389 1.268 . S
C383 O392 1.268 . S
O384 Sc374 2.105 . S
O384 C378 1.268 . S
O385 Sc375 2.105 . S
O385 C379 1.268 . S
O386 Sc376 2.105 . S
O386 C380 1.268 . S
O387 Sc374 2.105 . S
O387 C381 1.268 . S
O388 Sc376 2.105 . S
O388 C382 1.268 . S
O389 Sc375 2.105 . S
O389 C383 1.268 . S
O390 Sc374 2.105 . S
O390 C382 1.268 . S
O391 Sc375 2.105 . S
O391 C381 1.268 . S
O392 Sc376 2.105 . S
O392 C383 1.268 . S
O393 Sc374 2.105 . S
O393 C379 1.268 . S
O394 Sc376 2.105 . S
O394 C378 1.268 . S
O395 Sc375 2.105 . S
O395 C380 1.268 . S
H396 C408 0.930 . S
H397 C410 0.930 . S
H398 C411 0.930 . S
H399 C415 0.959 . S
H400 C415 0.959 . S
H401 C415 0.961 . S
H402 C416 0.960 . S
H403 C416 0.961 . S
H404 C416 0.959 . S
H405 C419 0.929 . S
H406 C420 0.931 . S
H407 C422 0.930 . S
C408 H396 0.930 . S
C408 C409 1.399 . S
C408 C413 1.399 . S
C409 C408 1.399 . S
C409 C410 1.376 . S
C410 H397 0.930 . S
C410 C409 1.376 . S
C410 C411 1.388 . S
C411 H398 0.930 . S
C411 C410 1.388 . S
C411 C412 1.390 . S
C412 C411 1.390 . S
C412 C413 1.394 . S
C412 C418 1.465 . S
C413 C408 1.399 . S
C413 C412 1.394 . S
C413 C414 1.516 . S
C414 C413 1.516 . S
C414 C415 1.502 . S
C414 C416 1.561 . S
C414 C417 1.526 . S
C415 H399 0.959 . S
C415 H400 0.959 . S
C415 H401 0.961 . S
C415 C414 1.502 . S
C416 H402 0.960 . S
C416 H403 0.961 . S
C416 H404 0.959 . S
C416 C414 1.561 . S
C417 C414 1.526 . S
C417 C418 1.396 . S
C417 C422 1.390 . S
C418 C412 1.465 . S
C418 C417 1.396 . S
C418 C419 1.399 . S
C419 H405 0.929 . S
C419 C418 1.399 . S
C419 C420 1.385 . S
C420 H406 0.931 . S
C420 C419 1.385 . S
C420 C421 1.389 . S
C421 C420 1.389 . S
C421 C422 1.387 . S
C422 H407 0.930 . S
C422 C417 1.390 . S
C422 C421 1.387 . S
H423 C435 0.930 . S
H424 C437 0.930 . S
H425 C438 0.930 . S
H426 C442 0.959 . S
H427 C442 0.959 . S
H428 C442 0.961 . S
H429 C443 0.960 . S
H430 C443 0.961 . S
H431 C443 0.959 . S
H432 C446 0.929 . S
H433 C447 0.931 . S
H434 C449 0.930 . S
C435 H423 0.930 . S
C435 C436 1.399 . S
C435 C440 1.399 . S
C436 C435 1.399 . S
C436 C437 1.376 . S
C437 H424 0.930 . S
C437 C436 1.376 . S
C437 C438 1.388 . S
C438 H425 0.930 . S
C438 C437 1.388 . S
C438 C439 1.390 . S
C439 C438 1.390 . S
C439 C440 1.394 . S
C439 C445 1.465 . S
C440 C435 1.399 . S
C440 C439 1.394 . S
C440 C441 1.516 . S
C441 C440 1.516 . S
C441 C442 1.502 . S
C441 C443 1.561 . S
C441 C444 1.526 . S
C442 H426 0.959 . S
C442 H427 0.959 . S
C442 H428 0.961 . S
C442 C441 1.502 . S
C443 H429 0.960 . S
C443 H430 0.961 . S
C443 H431 0.959 . S
C443 C441 1.561 . S
C444 C441 1.526 . S
C444 C445 1.396 . S
C444 C449 1.390 1_545 S
C445 C439 1.465 . S
C445 C444 1.396 . S
C445 C446 1.399 . S
C446 H432 0.929 . S
C446 C445 1.399 . S
C446 C447 1.385 1_545 S
C447 H433 0.931 . S
C447 C446 1.385 1_565 S
C447 C448 1.389 . S
C448 C447 1.389 . S
C448 C449 1.387 . S
C449 H434 0.930 . S
C449 C444 1.390 1_565 S
C449 C448 1.387 . S
H450 C462 0.930 . S
H451 C464 0.930 . S
H452 C465 0.930 . S
H453 C469 0.959 . S
H454 C469 0.959 . S
H455 C469 0.961 . S
H456 C470 0.960 . S
H457 C470 0.961 . S
H458 C470 0.959 . S
H459 C473 0.929 1_545 S
H460 C474 0.931 . S
H461 C476 0.930 . S
C462 H450 0.930 . S
C462 C463 1.399 . S
C462 C467 1.399 1_655 S
C463 C462 1.399 . S
C463 C464 1.376 . S
C464 H451 0.930 . S
C464 C463 1.376 . S
C464 C465 1.388 1_655 S
C465 H452 0.930 . S
C465 C464 1.388 1_455 S
C465 C466 1.390 . S
C466 C465 1.390 . S
C466 C467 1.394 . S
C466 C472 1.465 . S
C467 C462 1.399 1_455 S
C467 C466 1.394 . S
C467 C468 1.516 . S
C468 C467 1.516 . S
C468 C469 1.502 . S
C468 C470 1.561 . S
C468 C471 1.526 . S
C469 H453 0.959 . S
C469 H454 0.959 . S
C469 H455 0.961 . S
C469 C468 1.502 . S
C470 H456 0.960 . S
C470 H457 0.961 . S
C470 H458 0.959 . S
C470 C468 1.561 . S
C471 C468 1.526 . S
C471 C472 1.396 . S
C471 C476 1.390 . S
C472 C466 1.465 . S
C472 C471 1.396 . S
C472 C473 1.399 . S
C473 H459 0.929 1_565 S
C473 C472 1.399 . S
C473 C474 1.385 1_565 S
C474 H460 0.931 . S
C474 C473 1.385 1_545 S
C474 C475 1.389 1_545 S
C475 C474 1.389 1_565 S
C475 C476 1.387 . S
C476 H461 0.930 . S
C476 C471 1.390 . S
C476 C475 1.387 . S
H477 C489 0.930 1_455 S
H478 C491 0.930 . S
H479 C492 0.930 . S
H480 C496 0.969 . S
H481 C496 0.988 1_455 S
H482 C496 0.925 1_455 S
H483 C497 0.960 . S
H484 C497 0.961 . S
H485 C497 0.959 . S
H486 C500 0.929 . S
H487 C501 0.931 . S
H488 C503 0.930 1_545 S
C489 H477 0.930 1_655 S
C489 C490 1.399 . S
C489 C494 1.399 . S
C490 C489 1.399 . S
C490 C491 1.376 . S
C491 H478 0.930 . S
C491 C490 1.376 . S
C491 C492 1.388 . S
C492 H479 0.930 . S
C492 C491 1.388 . S
C492 C493 1.390 . S
C493 C492 1.390 . S
C493 C494 1.394 . S
C493 C499 1.465 . S
C494 C489 1.399 . S
C494 C493 1.394 . S
C494 C495 1.516 . S
C495 C494 1.516 . S
C495 C496 1.517 1_565 S
C495 C497 1.561 . S
C495 C498 1.526 . S
C496 H480 0.969 . S
C496 H481 0.988 1_655 S
C496 H482 0.925 1_655 S
C496 C495 1.517 1_545 S
C497 H483 0.960 . S
C497 H484 0.961 . S
C497 H485 0.959 . S
C497 C495 1.561 . S
C498 C495 1.526 . S
C498 C499 1.396 . S
C498 C503 1.390 . S
C499 C493 1.465 . S
C499 C498 1.396 . S
C499 C500 1.399 . S
C500 H486 0.929 . S
C500 C499 1.399 . S
C500 C501 1.385 . S
C501 H487 0.931 . S
C501 C500 1.385 . S
C501 C502 1.389 . S
C502 C501 1.389 . S
C502 C503 1.387 . S
C503 H488 0.930 1_565 S
C503 C498 1.390 . S
C503 C502 1.387 . S
H504 C516 0.930 . S
H505 C518 0.930 . S
H506 C519 0.930 . S
H507 C523 0.959 . S
H508 C523 0.959 . S
H509 C523 0.961 . S
H510 C524 0.960 . S
H511 C524 0.961 . S
H512 C524 0.959 . S
H513 C527 0.929 . S
H514 C528 0.931 . S
H515 C530 0.930 . S
C516 H504 0.930 . S
C516 C517 1.399 . S
C516 C521 1.399 1_565 S
C517 C516 1.399 . S
C517 C518 1.376 . S
C518 H505 0.930 . S
C518 C517 1.376 . S
C518 C519 1.388 1_565 S
C519 H506 0.930 . S
C519 C518 1.388 1_545 S
C519 C520 1.390 . S
C520 C519 1.390 . S
C520 C521 1.394 . S
C520 C526 1.465 . S
C521 C516 1.399 1_545 S
C521 C520 1.394 . S
C521 C522 1.516 . S
C522 C521 1.516 . S
C522 C523 1.502 . S
C522 C524 1.561 . S
C522 C525 1.526 . S
C523 H507 0.959 . S
C523 H508 0.959 . S
C523 H509 0.961 . S
C523 C522 1.502 . S
C524 H510 0.960 . S
C524 H511 0.961 . S
C524 H512 0.959 . S
C524 C522 1.561 . S
C525 C522 1.526 . S
C525 C526 1.396 . S
C525 C530 1.390 . S
C526 C520 1.465 . S
C526 C525 1.396 . S
C526 C527 1.399 . S
C527 H513 0.929 . S
C527 C526 1.399 . S
C527 C528 1.385 . S
C528 H514 0.931 . S
C528 C527 1.385 . S
C528 C529 1.389 . S
C529 C528 1.389 . S
C529 C530 1.387 . S
C530 H515 0.930 . S
C530 C525 1.390 . S
C530 C529 1.387 . S
H531 C543 0.930 . S
H532 C545 0.930 . S
H533 C546 0.930 . S
H534 C550 0.959 . S
H535 C550 0.959 . S
H536 C550 0.961 . S
H537 C551 0.960 . S
H538 C551 0.961 . S
H539 C551 0.959 . S
H540 C554 0.929 . S
H541 C555 0.931 . S
H542 C557 0.930 . S
C543 H531 0.930 . S
C543 C544 1.399 . S
C543 C548 1.399 . S
C544 C543 1.399 . S
C544 C545 1.376 . S
C545 H532 0.930 . S
C545 C544 1.376 . S
C545 C546 1.388 . S
C546 H533 0.930 . S
C546 C545 1.388 . S
C546 C547 1.390 . S
C547 C546 1.390 . S
C547 C548 1.394 . S
C547 C553 1.465 . S
C548 C543 1.399 . S
C548 C547 1.394 . S
C548 C549 1.516 . S
C549 C548 1.516 . S
C549 C550 1.502 . S
C549 C551 1.561 . S
C549 C552 1.526 . S
C550 H534 0.959 . S
C550 H535 0.959 . S
C550 H536 0.961 . S
C550 C549 1.502 . S
C551 H537 0.960 . S
C551 H538 0.961 . S
C551 H539 0.959 . S
C551 C549 1.561 . S
C552 C549 1.526 . S
C552 C553 1.396 . S
C552 C557 1.390 1_455 S
C553 C547 1.465 . S
C553 C552 1.396 . S
C553 C554 1.399 . S
C554 H540 0.929 . S
C554 C553 1.399 . S
C554 C555 1.385 1_455 S
C555 H541 0.931 . S
C555 C554 1.385 1_655 S
C555 C556 1.389 . S
C556 C555 1.389 . S
C556 C557 1.387 . S
C557 H542 0.930 . S
C557 C552 1.390 1_655 S
C557 C556 1.387 . S
H558 C570 0.930 . S
H559 C572 0.930 . S
H560 C573 0.930 . S
H561 C577 0.959 . S
H562 C577 0.959 . S
H563 C577 0.961 . S
H564 C578 0.960 . S
H565 C578 0.961 . S
H566 C578 0.959 . S
H567 C581 0.929 . S
H568 C582 0.931 . S
H569 C584 0.930 . S
C570 H558 0.930 . S
C570 C571 1.399 . S
C570 C575 1.399 . S
C571 C570 1.399 . S
C571 C572 1.376 . S
C572 H559 0.930 . S
C572 C571 1.376 . S
C572 C573 1.388 . S
C573 H560 0.930 . S
C573 C572 1.388 . S
C573 C574 1.390 . S
C574 C573 1.390 . S
C574 C575 1.394 . S
C574 C580 1.465 . S
C575 C570 1.399 . S
C575 C574 1.394 . S
C575 C576 1.516 . S
C576 C575 1.516 . S
C576 C577 1.502 . S
C576 C578 1.561 . S
C576 C579 1.526 . S
C577 H561 0.959 . S
C577 H562 0.959 . S
C577 H563 0.961 . S
C577 C576 1.502 . S
C578 H564 0.960 . S
C578 H565 0.961 . S
C578 H566 0.959 . S
C578 C576 1.561 . S
C579 C576 1.526 . S
C579 C580 1.396 . S
C579 C584 1.390 . S
C580 C574 1.465 . S
C580 C579 1.396 . S
C580 C581 1.399 . S
C581 H567 0.929 . S
C581 C580 1.399 . S
C581 C582 1.385 . S
C582 H568 0.931 . S
C582 C581 1.385 . S
C582 C583 1.389 . S
C583 C582 1.389 . S
C583 C584 1.387 . S
C584 H569 0.930 . S
C584 C579 1.390 . S
C584 C583 1.387 . S
H585 C597 0.930 . S
H586 C599 0.930 . S
H587 C600 0.930 . S
H588 C604 0.959 . S
H589 C604 0.959 . S
H590 C604 0.984 . S
H591 C605 0.960 . S
H592 C605 0.961 . S
H593 C605 0.959 . S
H594 C608 0.929 . S
H595 C609 0.931 . S
H596 C611 0.930 . S
C597 H585 0.930 . S
C597 C598 1.399 . S
C597 C602 1.399 . S
C598 C597 1.399 . S
C598 C599 1.376 . S
C599 H586 0.930 . S
C599 C598 1.376 . S
C599 C600 1.388 . S
C600 H587 0.930 . S
C600 C599 1.388 . S
C600 C601 1.390 . S
C601 C600 1.390 . S
C601 C602 1.394 . S
C601 C607 1.465 . S
C602 C597 1.399 . S
C602 C601 1.394 . S
C602 C603 1.516 . S
C603 C602 1.516 . S
C603 C604 1.502 . S
C603 C605 1.561 . S
C603 C606 1.526 . S
C604 H588 0.959 . S
C604 H589 0.959 . S
C604 H590 0.984 . S
C604 C603 1.502 . S
C605 H591 0.960 . S
C605 H592 0.961 . S
C605 H593 0.959 . S
C605 C603 1.561 . S
C606 C603 1.526 . S
C606 C607 1.396 . S
C606 C611 1.390 . S
C607 C601 1.465 . S
C607 C606 1.396 . S
C607 C608 1.399 . S
C608 H594 0.929 . S
C608 C607 1.399 . S
C608 C609 1.385 . S
C609 H595 0.931 . S
C609 C608 1.385 . S
C609 C610 1.389 . S
C610 C609 1.389 . S
C610 C611 1.387 . S
C611 H596 0.930 . S
C611 C606 1.390 . S
C611 C610 1.387 . S
H612 C624 0.930 . S
H613 C626 0.930 . S
H614 C627 0.930 . S
H615 C631 0.959 . S
H616 C631 0.959 . S
H617 C631 0.961 . S
H618 C632 0.960 . S
H619 C632 0.961 . S
H620 C632 0.959 . S
H621 C635 0.929 . S
H622 C636 0.931 . S
H623 C638 0.930 . S
C624 H612 0.930 . S
C624 C625 1.399 . S
C624 C629 1.399 . S
C625 C624 1.399 . S
C625 C626 1.376 . S
C626 H613 0.930 . S
C626 C625 1.376 . S
C626 C627 1.388 . S
C627 H614 0.930 . S
C627 C626 1.388 . S
C627 C628 1.390 . S
C628 C627 1.390 . S
C628 C629 1.394 . S
C628 C634 1.465 . S
C629 C624 1.399 . S
C629 C628 1.394 . S
C629 C630 1.516 . S
C630 C629 1.516 . S
C630 C631 1.502 . S
C630 C632 1.561 . S
C630 C633 1.526 . S
C631 H615 0.959 . S
C631 H616 0.959 . S
C631 H617 0.961 . S
C631 C630 1.502 . S
C632 H618 0.960 . S
C632 H619 0.961 . S
C632 H620 0.959 . S
C632 C630 1.561 . S
C633 C630 1.526 . S
C633 C634 1.396 . S
C633 C638 1.390 . S
C634 C628 1.465 . S
C634 C633 1.396 . S
C634 C635 1.399 . S
C635 H621 0.929 . S
C635 C634 1.399 . S
C635 C636 1.385 . S
C636 H622 0.931 . S
C636 C635 1.385 . S
C636 C637 1.389 . S
C637 C636 1.389 . S
C637 C638 1.387 . S
C638 H623 0.930 . S
C638 C633 1.390 . S
C638 C637 1.387 . S
H639 C651 0.930 . S
H640 C653 0.930 . S
H641 C654 0.930 . S
H642 C658 0.959 . S
H643 C658 0.959 . S
H644 C658 0.961 . S
H645 C659 0.960 . S
H646 C659 0.961 . S
H647 C659 0.959 . S
H648 C662 0.929 . S
H649 C663 0.931 . S
H650 C665 0.930 . S
C651 H639 0.930 . S
C651 C652 1.399 . S
C651 C656 1.399 . S
C652 C651 1.399 . S
C652 C653 1.376 . S
C653 H640 0.930 . S
C653 C652 1.376 . S
C653 C654 1.388 . S
C654 H641 0.930 . S
C654 C653 1.388 . S
C654 C655 1.390 . S
C655 C654 1.390 . S
C655 C656 1.394 . S
C655 C661 1.465 . S
C656 C651 1.399 . S
C656 C655 1.394 . S
C656 C657 1.516 . S
C657 C656 1.516 . S
C657 C658 1.502 . S
C657 C659 1.561 . S
C657 C660 1.526 . S
C658 H642 0.959 . S
C658 H643 0.959 . S
C658 H644 0.961 . S
C658 C657 1.502 . S
C659 H645 0.960 . S
C659 H646 0.961 . S
C659 H647 0.959 . S
C659 C657 1.561 . S
C660 C657 1.526 . S
C660 C661 1.396 . S
C660 C665 1.390 . S
C661 C655 1.465 . S
C661 C660 1.396 . S
C661 C662 1.399 . S
C662 H648 0.929 . S
C662 C661 1.399 . S
C662 C663 1.385 . S
C663 H649 0.931 . S
C663 C662 1.385 . S
C663 C664 1.389 . S
C664 C663 1.389 . S
C664 C665 1.387 . S
C665 H650 0.930 . S
C665 C660 1.390 . S
C665 C664 1.387 . S
H666 C678 0.930 . S
H667 C680 0.930 . S
H668 C681 0.930 . S
H669 C685 0.959 . S
H670 C685 0.959 . S
H671 C685 0.961 . S
H672 C686 0.960 . S
H673 C686 0.961 . S
H674 C686 0.959 . S
H675 C689 0.929 . S
H676 C690 0.931 . S
H677 C692 0.930 . S
C678 H666 0.930 . S
C678 C679 1.399 . S
C678 C683 1.399 . S
C679 C678 1.399 . S
C679 C680 1.376 . S
C680 H667 0.930 . S
C680 C679 1.376 . S
C680 C681 1.388 . S
C681 H668 0.930 . S
C681 C680 1.388 . S
C681 C682 1.390 . S
C682 C681 1.390 . S
C682 C683 1.394 . S
C682 C688 1.465 . S
C683 C678 1.399 . S
C683 C682 1.394 . S
C683 C684 1.516 . S
C684 C683 1.516 . S
C684 C685 1.502 . S
C684 C686 1.561 . S
C684 C687 1.526 . S
C685 H669 0.959 . S
C685 H670 0.959 . S
C685 H671 0.961 . S
C685 C684 1.502 . S
C686 H672 0.960 . S
C686 H673 0.961 . S
C686 H674 0.959 . S
C686 C684 1.561 . S
C687 C684 1.526 . S
C687 C688 1.396 . S
C687 C692 1.390 . S
C688 C682 1.465 . S
C688 C687 1.396 . S
C688 C689 1.399 . S
C689 H675 0.929 . S
C689 C688 1.399 . S
C689 C690 1.385 . S
C690 H676 0.931 . S
C690 C689 1.385 . S
C690 C691 1.389 . S
C691 C690 1.389 . S
C691 C692 1.387 . S
C692 H677 0.930 . S
C692 C687 1.390 . S
C692 C691 1.387 . S
H693 C705 0.930 . S
H694 C707 0.930 . S
H695 C708 0.930 . S
H696 C712 0.959 . S
H697 C712 0.959 . S
H698 C712 0.961 . S
H699 C713 0.960 . S
H700 C713 0.961 . S
H701 C713 0.959 . S
H702 C716 0.929 . S
H703 C717 0.931 . S
H704 C719 0.930 . S
C705 H693 0.930 . S
C705 C706 1.399 . S
C705 C710 1.399 . S
C706 C705 1.399 . S
C706 C707 1.376 . S
C707 H694 0.930 . S
C707 C706 1.376 . S
C707 C708 1.388 . S
C708 H695 0.930 . S
C708 C707 1.388 . S
C708 C709 1.390 . S
C709 C708 1.390 . S
C709 C710 1.394 . S
C709 C715 1.465 . S
C710 C705 1.399 . S
C710 C709 1.394 . S
C710 C711 1.516 . S
C711 C710 1.516 . S
C711 C712 1.502 . S
C711 C713 1.561 . S
C711 C714 1.526 . S
C712 H696 0.959 . S
C712 H697 0.959 . S
C712 H698 0.961 . S
C712 C711 1.502 . S
C713 H699 0.960 . S
C713 H700 0.961 . S
C713 H701 0.959 . S
C713 C711 1.561 . S
C714 C711 1.526 . S
C714 C715 1.396 . S
C714 C719 1.390 . S
C715 C709 1.465 . S
C715 C714 1.396 . S
C715 C716 1.399 . S
C716 H702 0.929 . S
C716 C715 1.399 . S
C716 C717 1.385 . S
C717 H703 0.931 . S
C717 C716 1.385 . S
C717 C718 1.389 . S
C718 C717 1.389 . S
C718 C719 1.387 . S
C719 H704 0.930 . S
C719 C714 1.390 . S
C719 C718 1.387 . S
H720 C732 0.930 . S
H721 C734 0.930 . S
H722 C735 0.930 . S
H723 C739 0.959 . S
H724 C739 0.959 . S
H725 C739 0.961 . S
H726 C740 0.960 . S
H727 C740 0.961 . S
H728 C740 0.959 . S
H729 C743 0.929 . S
H730 C744 0.931 . S
H731 C746 0.930 . S
C732 H720 0.930 . S
C732 C733 1.399 . S
C732 C737 1.399 . S
C733 C732 1.399 . S
C733 C734 1.376 . S
C734 H721 0.930 . S
C734 C733 1.376 . S
C734 C735 1.388 . S
C735 H722 0.930 . S
C735 C734 1.388 . S
C735 C736 1.390 . S
C736 C735 1.390 . S
C736 C737 1.394 . S
C736 C742 1.465 . S
C737 C732 1.399 . S
C737 C736 1.394 . S
C737 C738 1.516 . S
C738 C737 1.516 . S
C738 C739 1.502 . S
C738 C740 1.561 . S
C738 C741 1.526 . S
C739 H723 0.959 . S
C739 H724 0.959 . S
C739 H725 0.961 . S
C739 C738 1.502 . S
C740 H726 0.960 . S
C740 H727 0.961 . S
C740 H728 0.959 . S
C740 C738 1.561 . S
C741 C738 1.526 . S
C741 C742 1.396 . S
C741 C746 1.390 . S
C742 C736 1.465 . S
C742 C741 1.396 . S
C742 C743 1.399 . S
C743 H729 0.929 . S
C743 C742 1.399 . S
C743 C744 1.385 . S
C744 H730 0.931 . S
C744 C743 1.385 . S
C744 C745 1.389 . S
C745 C744 1.389 . S
C745 C746 1.387 . S
C746 H731 0.930 . S
C746 C741 1.390 . S
C746 C745 1.387 . S
H747 C759 0.930 . S
H748 C761 0.930 . S
H749 C762 0.930 . S
H750 C766 0.959 . S
H751 C766 0.959 . S
H752 C766 0.961 . S
H753 C767 0.960 . S
H754 C767 0.961 . S
H755 C767 0.959 . S
H756 C770 0.929 . S
H757 C771 0.931 . S
H758 C773 0.930 . S
C759 H747 0.930 . S
C759 C760 1.399 . S
C759 C764 1.399 . S
C760 C759 1.399 . S
C760 C761 1.376 . S
C761 H748 0.930 . S
C761 C760 1.376 . S
C761 C762 1.388 . S
C762 H749 0.930 . S
C762 C761 1.388 . S
C762 C763 1.390 . S
C763 C762 1.390 . S
C763 C764 1.394 . S
C763 C769 1.465 . S
C764 C759 1.399 . S
C764 C763 1.394 . S
C764 C765 1.516 . S
C765 C764 1.516 . S
C765 C766 1.502 . S
C765 C767 1.561 . S
C765 C768 1.526 . S
C766 H750 0.959 . S
C766 H751 0.959 . S
C766 H752 0.961 . S
C766 C765 1.502 . S
C767 H753 0.960 . S
C767 H754 0.961 . S
C767 H755 0.959 . S
C767 C765 1.561 . S
C768 C765 1.526 . S
C768 C769 1.396 . S
C768 C773 1.390 . S
C769 C763 1.465 . S
C769 C768 1.396 . S
C769 C770 1.399 . S
C770 H756 0.929 . S
C770 C769 1.399 . S
C770 C771 1.385 . S
C771 H757 0.931 . S
C771 C770 1.385 . S
C771 C772 1.389 . S
C772 C771 1.389 . S
C772 C773 1.387 . S
C773 H758 0.930 . S
C773 C768 1.390 . S
C773 C772 1.387 . S
H774 C786 0.930 . S
H775 C788 0.930 . S
H776 C789 0.930 . S
H777 C793 0.959 . S
H778 C793 0.959 . S
H779 C793 0.961 . S
H780 C794 0.960 . S
H781 C794 0.961 . S
H782 C794 0.959 . S
H783 C797 0.929 . S
H784 C798 0.931 . S
H785 C800 0.930 . S
C786 H774 0.930 . S
C786 C787 1.399 . S
C786 C791 1.399 . S
C787 C786 1.399 . S
C787 C788 1.376 . S
C788 H775 0.930 . S
C788 C787 1.376 . S
C788 C789 1.388 . S
C789 H776 0.930 . S
C789 C788 1.388 . S
C789 C790 1.390 . S
C790 C789 1.390 . S
C790 C791 1.394 . S
C790 C796 1.465 . S
C791 C786 1.399 . S
C791 C790 1.394 . S
C791 C792 1.516 . S
C792 C791 1.516 . S
C792 C793 1.502 . S
C792 C794 1.561 . S
C792 C795 1.526 . S
C793 H777 0.959 . S
C793 H778 0.959 . S
C793 H779 0.961 . S
C793 C792 1.502 . S
C794 H780 0.960 . S
C794 H781 0.961 . S
C794 H782 0.959 . S
C794 C792 1.561 . S
C795 C792 1.526 . S
C795 C796 1.396 . S
C795 C800 1.390 . S
C796 C790 1.465 . S
C796 C795 1.396 . S
C796 C797 1.399 . S
C797 H783 0.929 . S
C797 C796 1.399 . S
C797 C798 1.385 . S
C798 H784 0.931 . S
C798 C797 1.385 . S
C798 C799 1.389 . S
C799 C798 1.389 . S
C799 C800 1.387 . S
C800 H785 0.930 . S
C800 C795 1.390 . S
C800 C799 1.387 . S
H801 C813 0.930 . S
H802 C815 0.930 . S
H803 C816 0.930 . S
H804 C820 0.959 . S
H805 C820 0.959 . S
H806 C820 0.961 . S
H807 C821 0.960 . S
H808 C821 0.961 1_554 S
H809 C821 0.959 . S
H810 C824 0.929 . S
H811 C825 0.931 . S
H812 C827 0.930 . S
C813 H801 0.930 . S
C813 C814 1.399 . S
C813 C818 1.399 . S
C814 C813 1.399 . S
C814 C815 1.376 . S
C815 H802 0.930 . S
C815 C814 1.376 . S
C815 C816 1.388 . S
C816 H803 0.930 . S
C816 C815 1.388 . S
C816 C817 1.390 . S
C817 C816 1.390 . S
C817 C818 1.394 . S
C817 C823 1.465 . S
C818 C813 1.399 . S
C818 C817 1.394 . S
C818 C819 1.516 . S
C819 C818 1.516 . S
C819 C820 1.502 . S
C819 C821 1.561 . S
C819 C822 1.526 . S
C820 H804 0.959 . S
C820 H805 0.959 . S
C820 H806 0.961 . S
C820 C819 1.502 . S
C821 H807 0.960 . S
C821 H808 0.961 1_556 S
C821 H809 0.959 . S
C821 C819 1.561 . S
C822 C819 1.526 . S
C822 C823 1.396 . S
C822 C827 1.390 . S
C823 C817 1.465 . S
C823 C822 1.396 . S
C823 C824 1.399 . S
C824 H810 0.929 . S
C824 C823 1.399 . S
C824 C825 1.385 . S
C825 H811 0.931 . S
C825 C824 1.385 . S
C825 C826 1.389 . S
C826 C825 1.389 . S
C826 C827 1.387 . S
C827 H812 0.930 . S
C827 C822 1.390 . S
C827 C826 1.387 . S
H828 C840 0.930 . S
H829 C842 0.930 . S
H830 C843 0.930 . S
H831 C847 0.959 . S
H832 C847 0.959 . S
H833 C847 0.961 . S
H834 C848 0.973 . S
H835 C848 0.961 . S
H836 C848 0.959 . S
H837 C851 0.929 . S
H838 C852 0.931 . S
H839 C854 0.930 . S
C840 H828 0.930 . S
C840 C841 1.399 . S
C840 C845 1.399 . S
C841 C840 1.399 . S
C841 C842 1.376 . S
C842 H829 0.930 . S
C842 C841 1.376 . S
C842 C843 1.388 . S
C843 H830 0.930 . S
C843 C842 1.388 . S
C843 C844 1.390 . S
C844 C843 1.390 . S
C844 C845 1.394 . S
C844 C850 1.465 . S
C845 C840 1.399 . S
C845 C844 1.394 . S
C845 C846 1.516 . S
C846 C845 1.516 . S
C846 C847 1.502 . S
C846 C848 1.561 . S
C846 C849 1.526 . S
C847 H831 0.959 . S
C847 H832 0.959 . S
C847 H833 0.961 . S
C847 C846 1.502 . S
C848 H834 0.973 . S
C848 H835 0.961 . S
C848 H836 0.959 . S
C848 C846 1.561 . S
C849 C846 1.526 . S
C849 C850 1.396 . S
C849 C854 1.390 . S
C850 C844 1.465 . S
C850 C849 1.396 . S
C850 C851 1.399 . S
C851 H837 0.929 . S
C851 C850 1.399 . S
C851 C852 1.385 . S
C852 H838 0.931 . S
C852 C851 1.385 . S
C852 C853 1.389 . S
C853 C852 1.389 . S
C853 C854 1.387 . S
C854 H839 0.930 . S
C854 C849 1.390 . S
C854 C853 1.387 . S
H855 C867 0.930 . S
H856 C869 0.930 . S
H857 C870 0.930 . S
H858 C874 0.959 . S
H859 C874 0.959 . S
H860 C874 0.961 . S
H861 C875 0.941 1_554 S
H862 C875 0.961 . S
H863 C875 0.959 . S
H864 C878 0.929 . S
H865 C879 0.931 . S
H866 C881 0.930 . S
C867 H855 0.930 . S
C867 C868 1.399 . S
C867 C872 1.399 . S
C868 C867 1.399 . S
C868 C869 1.376 . S
C869 H856 0.930 . S
C869 C868 1.376 . S
C869 C870 1.388 . S
C870 H857 0.930 . S
C870 C869 1.388 . S
C870 C871 1.390 . S
C871 C870 1.390 . S
C871 C872 1.394 . S
C871 C877 1.465 . S
C872 C867 1.399 . S
C872 C871 1.394 . S
C872 C873 1.516 . S
C873 C872 1.516 . S
C873 C874 1.502 . S
C873 C875 1.561 . S
C873 C876 1.526 . S
C874 H858 0.959 . S
C874 H859 0.959 . S
C874 H860 0.961 . S
C874 C873 1.502 . S
C875 H861 0.941 1_556 S
C875 H862 0.961 . S
C875 H863 0.959 . S
C875 C873 1.561 . S
C876 C873 1.526 . S
C876 C877 1.396 . S
C876 C881 1.390 . S
C877 C871 1.465 . S
C877 C876 1.396 . S
C877 C878 1.399 . S
C878 H864 0.929 . S
C878 C877 1.399 . S
C878 C879 1.385 . S
C879 H865 0.931 . S
C879 C878 1.385 . S
C879 C880 1.389 . S
C880 C879 1.389 . S
C880 C881 1.387 . S
C881 H866 0.930 . S
C881 C876 1.390 . S
C881 C880 1.387 . S
H882 C894 0.930 . S
H883 C896 0.930 . S
H884 C897 0.930 . S
H885 C901 0.959 . S
H886 C901 0.959 . S
H887 C901 0.961 . S
H888 C902 0.960 . S
H889 C902 0.961 . S
H890 C902 0.959 . S
H891 C905 0.929 . S
H892 C906 0.931 . S
H893 C908 0.930 . S
C894 H882 0.930 . S
C894 C895 1.399 . S
C894 C899 1.399 . S
C895 C894 1.399 . S
C895 C896 1.376 . S
C896 H883 0.930 . S
C896 C895 1.376 . S
C896 C897 1.388 . S
C897 H884 0.930 . S
C897 C896 1.388 . S
C897 C898 1.390 . S
C898 C897 1.390 . S
C898 C899 1.394 . S
C898 C904 1.465 . S
C899 C894 1.399 . S
C899 C898 1.394 . S
C899 C900 1.516 . S
C900 C899 1.516 . S
C900 C901 1.502 . S
C900 C902 1.561 . S
C900 C903 1.526 . S
C901 H885 0.959 . S
C901 H886 0.959 . S
C901 H887 0.961 . S
C901 C900 1.502 . S
C902 H888 0.960 . S
C902 H889 0.961 . S
C902 H890 0.959 . S
C902 C900 1.561 . S
C903 C900 1.526 . S
C903 C904 1.396 . S
C903 C908 1.390 . S
C904 C898 1.465 . S
C904 C903 1.396 . S
C904 C905 1.399 . S
C905 H891 0.929 . S
C905 C904 1.399 . S
C905 C906 1.385 . S
C906 H892 0.931 . S
C906 C905 1.385 . S
C906 C907 1.389 . S
C907 C906 1.389 . S
C907 C908 1.387 . S
C908 H893 0.930 . S
C908 C903 1.390 . S
C908 C907 1.387 . S
H909 C921 0.930 . S
H910 C923 0.930 . S
H911 C924 0.930 . S
H912 C928 0.959 . S
H913 C928 0.959 . S
H914 C928 0.961 . S
H915 C929 0.960 . S
H916 C929 0.961 . S
H917 C929 0.959 . S
H918 C932 0.929 . S
H919 C933 0.931 . S
H920 C935 0.930 . S
C921 H909 0.930 . S
C921 C922 1.399 . S
C921 C926 1.399 . S
C922 C921 1.399 . S
C922 C923 1.376 . S
C923 H910 0.930 . S
C923 C922 1.376 . S
C923 C924 1.388 . S
C924 H911 0.930 . S
C924 C923 1.388 . S
C924 C925 1.390 . S
C925 C924 1.390 . S
C925 C926 1.394 . S
C925 C931 1.465 . S
C926 C921 1.399 . S
C926 C925 1.394 . S
C926 C927 1.516 . S
C927 C926 1.516 . S
C927 C928 1.502 . S
C927 C929 1.561 . S
C927 C930 1.526 . S
C928 H912 0.959 . S
C928 H913 0.959 . S
C928 H914 0.961 . S
C928 C927 1.502 . S
C929 H915 0.960 . S
C929 H916 0.961 . S
C929 H917 0.959 . S
C929 C927 1.561 . S
C930 C927 1.526 . S
C930 C931 1.396 . S
C930 C935 1.390 . S
C931 C925 1.465 . S
C931 C930 1.396 . S
C931 C932 1.399 . S
C932 H918 0.929 . S
C932 C931 1.399 . S
C932 C933 1.385 . S
C933 H919 0.931 . S
C933 C932 1.385 . S
C933 C934 1.389 . S
C934 C933 1.389 . S
C934 C935 1.387 . S
C935 H920 0.930 . S
C935 C930 1.390 . S
C935 C934 1.387 . S
H936 C948 0.930 . S
H937 C950 0.930 . S
H938 C951 0.930 . S
H939 C955 0.959 . S
H940 C955 0.959 . S
H941 C955 0.961 . S
H942 C956 0.960 . S
H943 C956 0.961 . S
H944 C956 0.959 . S
H945 C959 0.929 . S
H946 C960 0.931 . S
H947 C962 0.930 . S
C948 H936 0.930 . S
C948 C949 1.399 1_565 S
C948 C953 1.399 . S
C949 C948 1.399 1_545 S
C949 C950 1.376 . S
C950 H937 0.930 . S
C950 C949 1.376 . S
C950 C951 1.388 . S
C951 H938 0.930 . S
C951 C950 1.388 . S
C951 C952 1.411 . S
C952 C951 1.411 . S
C952 C953 1.382 1_545 S
C952 C958 1.452 1_545 S
C953 C948 1.399 . S
C953 C952 1.382 1_565 S
C953 C954 1.516 . S
C954 C953 1.516 . S
C954 C955 1.502 . S
C954 C956 1.561 . S
C954 C957 1.526 . S
C955 H939 0.959 . S
C955 H940 0.959 . S
C955 H941 0.961 . S
C955 C954 1.502 . S
C956 H942 0.960 . S
C956 H943 0.961 . S
C956 H944 0.959 . S
C956 C954 1.561 . S
C957 C954 1.526 . S
C957 C958 1.396 . S
C957 C962 1.390 . S
C958 C952 1.452 1_565 S
C958 C957 1.396 . S
C958 C959 1.399 1_565 S
C959 H945 0.929 . S
C959 C958 1.399 1_545 S
C959 C960 1.385 1_545 S
C960 H946 0.931 . S
C960 C959 1.385 1_565 S
C960 C961 1.389 . S
C961 C960 1.389 . S
C961 C962 1.387 . S
C962 H947 0.930 . S
C962 C957 1.390 . S
C962 C961 1.387 . S
H963 C975 0.930 . S
H964 C977 0.930 . S
H965 C978 0.930 . S
H966 C982 0.959 . S
H967 C982 0.959 . S
H968 C982 0.961 . S
H969 C983 0.960 . S
H970 C983 0.961 . S
H971 C983 0.959 . S
H972 C986 0.929 . S
H973 C987 0.931 . S
H974 C989 0.930 . S
C975 H963 0.930 . S
C975 C976 1.399 . S
C975 C980 1.399 . S
C976 C975 1.399 . S
C976 C977 1.376 . S
C977 H964 0.930 . S
C977 C976 1.376 . S
C977 C978 1.388 . S
C978 H965 0.930 . S
C978 C977 1.388 . S
C978 C979 1.390 . S
C979 C978 1.390 . S
C979 C980 1.394 . S
C979 C985 1.465 . S
C980 C975 1.399 . S
C980 C979 1.394 . S
C980 C981 1.516 . S
C981 C980 1.516 . S
C981 C982 1.502 . S
C981 C983 1.561 . S
C981 C984 1.526 . S
C982 H966 0.959 . S
C982 H967 0.959 . S
C982 H968 0.961 . S
C982 C981 1.502 . S
C983 H969 0.960 . S
C983 H970 0.961 . S
C983 H971 0.959 . S
C983 C981 1.561 . S
C984 C981 1.526 . S
C984 C985 1.396 . S
C984 C989 1.390 . S
C985 C979 1.465 . S
C985 C984 1.396 . S
C985 C986 1.399 . S
C986 H972 0.929 . S
C986 C985 1.399 . S
C986 C987 1.385 . S
C987 H973 0.931 . S
C987 C986 1.385 . S
C987 C988 1.389 . S
C988 C987 1.389 . S
C988 C989 1.387 . S
C989 H974 0.930 . S
C989 C984 1.390 . S
C989 C988 1.387 . S
H990 C1002 0.930 . S
H991 C1004 0.930 . S
H992 C1005 0.930 . S
H993 C1009 0.959 . S
H994 C1009 0.959 . S
H995 C1009 0.961 . S
H996 C1010 0.960 . S
H997 C1010 0.961 . S
H998 C1010 0.959 . S
H999 C1013 0.929 1_455 S
H1000 C1014 0.949 . S
H1001 C1016 0.930 . S
C1002 H990 0.930 . S
C1002 C1003 1.399 1_655 S
C1002 C1007 1.399 . S
C1003 C1002 1.399 1_455 S
C1003 C1004 1.376 . S
C1004 H991 0.930 . S
C1004 C1003 1.376 . S
C1004 C1005 1.388 . S
C1005 H992 0.930 . S
C1005 C1004 1.388 . S
C1005 C1006 1.390 1_455 S
C1006 C1005 1.390 1_655 S
C1006 C1007 1.394 . S
C1006 C1012 1.465 . S
C1007 C1002 1.399 . S
C1007 C1006 1.394 . S
C1007 C1008 1.516 . S
C1008 C1007 1.516 . S
C1008 C1009 1.502 . S
C1008 C1010 1.561 . S
C1008 C1011 1.526 . S
C1009 H993 0.959 . S
C1009 H994 0.959 . S
C1009 H995 0.961 . S
C1009 C1008 1.502 . S
C1010 H996 0.960 . S
C1010 H997 0.961 . S
C1010 H998 0.959 . S
C1010 C1008 1.561 . S
C1011 C1008 1.526 . S
C1011 C1012 1.396 . S
C1011 C1016 1.390 . S
C1012 C1006 1.465 . S
C1012 C1011 1.396 . S
C1012 C1013 1.399 . S
C1013 H999 0.929 1_655 S
C1013 C1012 1.399 . S
C1013 C1014 1.385 . S
C1014 H1000 0.949 . S
C1014 C1013 1.385 . S
C1014 C1015 1.389 . S
C1015 C1014 1.389 . S
C1015 C1016 1.387 . S
C1016 H1001 0.930 . S
C1016 C1011 1.390 . S
C1016 C1015 1.387 . S
H1017 C1029 0.930 . S
H1018 C1031 0.930 . S
H1019 C1032 0.930 . S
H1020 C1036 0.959 . S
H1021 C1036 0.959 . S
H1022 C1036 0.961 . S
H1023 C1037 0.960 . S
H1024 C1037 0.961 . S
H1025 C1037 0.959 . S
H1026 C1040 0.929 . S
H1027 C1041 0.931 . S
H1028 C1043 0.930 . S
C1029 H1017 0.930 . S
C1029 C1030 1.399 . S
C1029 C1034 1.399 . S
C1030 C1029 1.399 . S
C1030 C1031 1.376 . S
C1031 H1018 0.930 . S
C1031 C1030 1.376 . S
C1031 C1032 1.388 . S
C1032 H1019 0.930 . S
C1032 C1031 1.388 . S
C1032 C1033 1.390 . S
C1033 C1032 1.390 . S
C1033 C1034 1.394 . S
C1033 C1039 1.465 . S
C1034 C1029 1.399 . S
C1034 C1033 1.394 . S
C1034 C1035 1.516 . S
C1035 C1034 1.516 . S
C1035 C1036 1.502 . S
C1035 C1037 1.561 . S
C1035 C1038 1.526 . S
C1036 H1020 0.959 . S
C1036 H1021 0.959 . S
C1036 H1022 0.961 . S
C1036 C1035 1.502 . S
C1037 H1023 0.960 . S
C1037 H1024 0.961 . S
C1037 H1025 0.959 . S
C1037 C1035 1.561 . S
C1038 C1035 1.526 . S
C1038 C1039 1.396 . S
C1038 C1043 1.390 . S
C1039 C1033 1.465 . S
C1039 C1038 1.396 . S
C1039 C1040 1.399 . S
C1040 H1026 0.929 . S
C1040 C1039 1.399 . S
C1040 C1041 1.385 . S
C1041 H1027 0.931 . S
C1041 C1040 1.385 . S
C1041 C1042 1.389 . S
C1042 C1041 1.389 . S
C1042 C1043 1.387 . S
C1043 H1028 0.930 . S
C1043 C1038 1.390 . S
C1043 C1042 1.387 . S
H1044 C1056 0.930 . S
H1045 C1058 0.930 . S
H1046 C1059 0.930 . S
H1047 C1063 0.959 . S
H1048 C1063 0.959 . S
H1049 C1063 0.961 . S
H1050 C1064 0.960 . S
H1051 C1064 0.961 . S
H1052 C1064 0.959 1_455 S
H1053 C1067 0.929 . S
H1054 C1068 0.931 . S
H1055 C1070 0.930 . S
C1056 H1044 0.930 . S
C1056 C1057 1.399 . S
C1056 C1061 1.399 . S
C1057 C1056 1.399 . S
C1057 C1058 1.376 . S
C1058 H1045 0.930 . S
C1058 C1057 1.376 . S
C1058 C1059 1.388 . S
C1059 H1046 0.930 . S
C1059 C1058 1.388 . S
C1059 C1060 1.390 . S
C1060 C1059 1.390 . S
C1060 C1061 1.394 . S
C1060 C1066 1.465 . S
C1061 C1056 1.399 . S
C1061 C1060 1.394 . S
C1061 C1062 1.516 . S
C1062 C1061 1.516 . S
C1062 C1063 1.502 . S
C1062 C1064 1.561 . S
C1062 C1065 1.526 . S
C1063 H1047 0.959 . S
C1063 H1048 0.959 . S
C1063 H1049 0.961 . S
C1063 C1062 1.502 . S
C1064 H1050 0.960 . S
C1064 H1051 0.961 . S
C1064 H1052 0.959 1_655 S
C1064 C1062 1.561 . S
C1065 C1062 1.526 . S
C1065 C1066 1.396 . S
C1065 C1070 1.390 . S
C1066 C1060 1.465 . S
C1066 C1065 1.396 . S
C1066 C1067 1.399 1_655 S
C1067 H1053 0.929 . S
C1067 C1066 1.399 1_455 S
C1067 C1068 1.385 . S
C1068 H1054 0.931 . S
C1068 C1067 1.385 . S
C1068 C1069 1.389 . S
C1069 C1068 1.389 . S
C1069 C1070 1.387 1_455 S
C1070 H1055 0.930 . S
C1070 C1065 1.390 . S
C1070 C1069 1.387 1_655 S
H1071 C1083 0.930 . S
H1072 C1085 0.930 . S
H1073 C1086 0.930 . S
H1074 C1090 0.959 . S
H1075 C1090 0.959 . S
H1076 C1090 0.961 . S
H1077 C1091 0.960 . S
H1078 C1091 0.961 . S
H1079 C1091 0.959 . S
H1080 C1094 0.929 . S
H1081 C1095 0.931 . S
H1082 C1097 0.930 . S
C1083 H1071 0.930 . S
C1083 C1084 1.399 . S
C1083 C1088 1.399 . S
C1084 C1083 1.399 . S
C1084 C1085 1.376 . S
C1085 H1072 0.930 . S
C1085 C1084 1.376 . S
C1085 C1086 1.388 . S
C1086 H1073 0.930 . S
C1086 C1085 1.388 . S
C1086 C1087 1.390 . S
C1087 C1086 1.390 . S
C1087 C1088 1.394 . S
C1087 C1093 1.465 . S
C1088 C1083 1.399 . S
C1088 C1087 1.394 . S
C1088 C1089 1.516 . S
C1089 C1088 1.516 . S
C1089 C1090 1.502 . S
C1089 C1091 1.561 . S
C1089 C1092 1.526 . S
C1090 H1074 0.959 . S
C1090 H1075 0.959 . S
C1090 H1076 0.961 . S
C1090 C1089 1.502 . S
C1091 H1077 0.960 . S
C1091 H1078 0.961 . S
C1091 H1079 0.959 . S
C1091 C1089 1.561 . S
C1092 C1089 1.526 . S
C1092 C1093 1.396 . S
C1092 C1097 1.390 . S
C1093 C1087 1.465 . S
C1093 C1092 1.396 . S
C1093 C1094 1.399 . S
C1094 H1080 0.929 . S
C1094 C1093 1.399 . S
C1094 C1095 1.385 . S
C1095 H1081 0.931 . S
C1095 C1094 1.385 . S
C1095 C1096 1.389 . S
C1096 C1095 1.389 . S
C1096 C1097 1.387 . S
C1097 H1082 0.930 . S
C1097 C1092 1.390 . S
C1097 C1096 1.387 . S
H1098 C1110 0.930 . S
H1099 C1112 0.930 . S
H1100 C1113 0.930 . S
H1101 C1117 0.959 . S
H1102 C1117 0.959 . S
H1103 C1117 0.961 . S
H1104 C1118 0.960 . S
H1105 C1118 0.961 . S
H1106 C1118 0.959 . S
H1107 C1121 0.929 . S
H1108 C1122 0.931 . S
H1109 C1124 0.930 . S
C1110 H1098 0.930 . S
C1110 C1111 1.399 . S
C1110 C1115 1.399 . S
C1111 C1110 1.399 . S
C1111 C1112 1.376 . S
C1112 H1099 0.930 . S
C1112 C1111 1.376 . S
C1112 C1113 1.388 . S
C1113 H1100 0.930 . S
C1113 C1112 1.388 . S
C1113 C1114 1.390 . S
C1114 C1113 1.390 . S
C1114 C1115 1.394 . S
C1114 C1120 1.465 . S
C1115 C1110 1.399 . S
C1115 C1114 1.394 . S
C1115 C1116 1.516 . S
C1116 C1115 1.516 . S
C1116 C1117 1.502 . S
C1116 C1118 1.561 . S
C1116 C1119 1.526 . S
C1117 H1101 0.959 . S
C1117 H1102 0.959 . S
C1117 H1103 0.961 . S
C1117 C1116 1.502 . S
C1118 H1104 0.960 . S
C1118 H1105 0.961 . S
C1118 H1106 0.959 . S
C1118 C1116 1.561 . S
C1119 C1116 1.526 . S
C1119 C1120 1.396 . S
C1119 C1124 1.390 . S
C1120 C1114 1.465 . S
C1120 C1119 1.396 . S
C1120 C1121 1.399 . S
C1121 H1107 0.929 . S
C1121 C1120 1.399 . S
C1121 C1122 1.385 . S
C1122 H1108 0.931 . S
C1122 C1121 1.385 . S
C1122 C1123 1.389 . S
C1123 C1122 1.389 . S
C1123 C1124 1.387 . S
C1124 H1109 0.930 . S
C1124 C1119 1.390 . S
C1124 C1123 1.387 . S
H1125 C1137 0.932 1_545 S
H1126 C1139 0.933 . S
H1127 C1140 0.930 . S
H1128 C1144 0.959 . S
H1129 C1144 0.959 1_565 S
H1130 C1144 0.961 . S
H1131 C1145 0.960 . S
H1132 C1145 0.961 . S
H1133 C1145 0.959 . S
H1134 C1148 0.929 . S
H1135 C1149 0.931 . S
H1136 C1151 0.930 . S
C1137 H1125 0.932 1_565 S
C1137 C1138 1.397 1_565 S
C1137 C1142 1.399 . S
C1138 C1137 1.397 1_545 S
C1138 C1139 1.373 . S
C1139 H1126 0.933 . S
C1139 C1138 1.373 . S
C1139 C1140 1.389 1_545 S
C1140 H1127 0.930 . S
C1140 C1139 1.389 1_565 S
C1140 C1141 1.390 . S
C1141 C1140 1.390 . S
C1141 C1142 1.394 . S
C1141 C1147 1.465 . S
C1142 C1137 1.399 . S
C1142 C1141 1.394 . S
C1142 C1143 1.516 . S
C1143 C1142 1.516 . S
C1143 C1144 1.502 1_565 S
C1143 C1145 1.561 . S
C1143 C1146 1.526 . S
C1144 H1128 0.959 . S
C1144 H1129 0.959 1_545 S
C1144 H1130 0.961 . S
C1144 C1143 1.502 1_545 S
C1145 H1131 0.960 . S
C1145 H1132 0.961 . S
C1145 H1133 0.959 . S
C1145 C1143 1.561 . S
C1146 C1143 1.526 . S
C1146 C1147 1.396 . S
C1146 C1151 1.390 . S
C1147 C1141 1.465 . S
C1147 C1146 1.396 . S
C1147 C1148 1.399 . S
C1148 H1134 0.929 . S
C1148 C1147 1.399 . S
C1148 C1149 1.385 . S
C1149 H1135 0.931 . S
C1149 C1148 1.385 . S
C1149 C1150 1.389 . S
C1150 C1149 1.389 . S
C1150 C1151 1.387 . S
C1151 H1136 0.930 . S
C1151 C1146 1.390 . S
C1151 C1150 1.387 . S
H1152 C1164 0.930 . S
H1153 C1166 0.930 . S
H1154 C1167 0.930 . S
H1155 C1171 0.959 . S
H1156 C1171 0.959 . S
H1157 C1171 0.961 . S
H1158 C1172 0.960 . S
H1159 C1172 0.961 . S
H1160 C1172 0.959 . S
H1161 C1175 0.929 . S
H1162 C1176 0.931 . S
H1163 C1178 0.930 . S
C1164 H1152 0.930 . S
C1164 C1165 1.399 . S
C1164 C1169 1.399 . S
C1165 C1164 1.399 . S
C1165 C1166 1.376 . S
C1166 H1153 0.930 . S
C1166 C1165 1.376 . S
C1166 C1167 1.388 . S
C1167 H1154 0.930 . S
C1167 C1166 1.388 . S
C1167 C1168 1.390 . S
C1168 C1167 1.390 . S
C1168 C1169 1.394 . S
C1168 C1174 1.465 . S
C1169 C1164 1.399 . S
C1169 C1168 1.394 . S
C1169 C1170 1.516 . S
C1170 C1169 1.516 . S
C1170 C1171 1.502 . S
C1170 C1172 1.561 . S
C1170 C1173 1.526 . S
C1171 H1155 0.959 . S
C1171 H1156 0.959 . S
C1171 H1157 0.961 . S
C1171 C1170 1.502 . S
C1172 H1158 0.960 . S
C1172 H1159 0.961 . S
C1172 H1160 0.959 . S
C1172 C1170 1.561 . S
C1173 C1170 1.526 . S
C1173 C1174 1.396 . S
C1173 C1178 1.390 . S
C1174 C1168 1.465 . S
C1174 C1173 1.396 . S
C1174 C1175 1.399 . S
C1175 H1161 0.929 . S
C1175 C1174 1.399 . S
C1175 C1176 1.385 . S
C1176 H1162 0.931 . S
C1176 C1175 1.385 . S
C1176 C1177 1.389 . S
C1177 C1176 1.389 . S
C1177 C1178 1.387 . S
C1178 H1163 0.930 . S
C1178 C1173 1.390 . S
C1178 C1177 1.387 . S
H1179 C1191 0.930 . S
H1180 C1193 0.930 . S
H1181 C1194 0.930 . S
H1182 C1198 0.959 . S
H1183 C1198 0.959 . S
H1184 C1198 0.961 . S
H1185 C1199 0.960 . S
H1186 C1199 0.961 . S
H1187 C1199 0.959 . S
H1188 C1202 0.929 . S
H1189 C1203 0.931 . S
H1190 C1205 0.930 . S
C1191 H1179 0.930 . S
C1191 C1192 1.399 . S
C1191 C1196 1.399 . S
C1192 C1191 1.399 . S
C1192 C1193 1.376 . S
C1193 H1180 0.930 . S
C1193 C1192 1.376 . S
C1193 C1194 1.388 . S
C1194 H1181 0.930 . S
C1194 C1193 1.388 . S
C1194 C1195 1.390 . S
C1195 C1194 1.390 . S
C1195 C1196 1.394 . S
C1195 C1201 1.465 . S
C1196 C1191 1.399 . S
C1196 C1195 1.394 . S
C1196 C1197 1.516 . S
C1197 C1196 1.516 . S
C1197 C1198 1.502 . S
C1197 C1199 1.561 . S
C1197 C1200 1.526 . S
C1198 H1182 0.959 . S
C1198 H1183 0.959 . S
C1198 H1184 0.961 . S
C1198 C1197 1.502 . S
C1199 H1185 0.960 . S
C1199 H1186 0.961 . S
C1199 H1187 0.959 . S
C1199 C1197 1.561 . S
C1200 C1197 1.526 . S
C1200 C1201 1.396 . S
C1200 C1205 1.390 . S
C1201 C1195 1.465 . S
C1201 C1200 1.396 . S
C1201 C1202 1.399 . S
C1202 H1188 0.929 . S
C1202 C1201 1.399 . S
C1202 C1203 1.385 . S
C1203 H1189 0.931 . S
C1203 C1202 1.385 . S
C1203 C1204 1.389 . S
C1204 C1203 1.389 . S
C1204 C1205 1.387 . S
C1205 H1190 0.930 . S
C1205 C1200 1.390 . S
C1205 C1204 1.387 . S
H1206 C1218 0.930 . S
H1207 C1220 0.930 . S
H1208 C1221 0.930 . S
H1209 C1225 0.959 . S
H1210 C1225 0.959 . S
H1211 C1225 0.961 . S
H1212 C1226 0.960 . S
H1213 C1226 0.961 . S
H1214 C1226 0.959 . S
H1215 C1229 0.929 . S
H1216 C1230 0.931 1_655 S
H1217 C1232 0.930 . S
C1218 H1206 0.930 . S
C1218 C1219 1.399 . S
C1218 C1223 1.399 . S
C1219 C1218 1.399 . S
C1219 C1220 1.376 . S
C1220 H1207 0.930 . S
C1220 C1219 1.376 . S
C1220 C1221 1.388 . S
C1221 H1208 0.930 . S
C1221 C1220 1.388 . S
C1221 C1222 1.390 . S
C1222 C1221 1.390 . S
C1222 C1223 1.394 . S
C1222 C1228 1.465 . S
C1223 C1218 1.399 . S
C1223 C1222 1.394 . S
C1223 C1224 1.516 . S
C1224 C1223 1.516 . S
C1224 C1225 1.502 . S
C1224 C1226 1.561 . S
C1224 C1227 1.526 . S
C1225 H1209 0.959 . S
C1225 H1210 0.959 . S
C1225 H1211 0.961 . S
C1225 C1224 1.502 . S
C1226 H1212 0.960 . S
C1226 H1213 0.961 . S
C1226 H1214 0.959 . S
C1226 C1224 1.561 . S
C1227 C1224 1.526 . S
C1227 C1228 1.396 . S
C1227 C1232 1.390 . S
C1228 C1222 1.465 . S
C1228 C1227 1.396 . S
C1228 C1229 1.399 . S
C1229 H1215 0.929 . S
C1229 C1228 1.399 . S
C1229 C1230 1.385 . S
C1230 H1216 0.931 1_455 S
C1230 C1229 1.385 . S
C1230 C1231 1.389 1_455 S
C1231 C1230 1.389 1_655 S
C1231 C1232 1.387 1_655 S
C1232 H1217 0.930 . S
C1232 C1227 1.390 . S
C1232 C1231 1.387 1_455 S
H1233 C1245 0.930 . S
H1234 C1247 0.930 . S
H1235 C1248 0.930 . S
H1236 C1252 0.959 . S
H1237 C1252 0.959 . S
H1238 C1252 0.961 . S
H1239 C1253 0.960 . S
H1240 C1253 0.961 . S
H1241 C1253 0.959 . S
H1242 C1256 0.929 . S
H1243 C1257 0.931 . S
H1244 C1259 0.930 . S
C1245 H1233 0.930 . S
C1245 C1246 1.399 . S
C1245 C1250 1.399 . S
C1246 C1245 1.399 . S
C1246 C1247 1.376 . S
C1247 H1234 0.930 . S
C1247 C1246 1.376 . S
C1247 C1248 1.388 . S
C1248 H1235 0.930 . S
C1248 C1247 1.388 . S
C1248 C1249 1.390 . S
C1249 C1248 1.390 . S
C1249 C1250 1.394 . S
C1249 C1255 1.465 . S
C1250 C1245 1.399 . S
C1250 C1249 1.394 . S
C1250 C1251 1.516 . S
C1251 C1250 1.516 . S
C1251 C1252 1.502 . S
C1251 C1253 1.561 . S
C1251 C1254 1.526 . S
C1252 H1236 0.959 . S
C1252 H1237 0.959 . S
C1252 H1238 0.961 . S
C1252 C1251 1.502 . S
C1253 H1239 0.960 . S
C1253 H1240 0.961 . S
C1253 H1241 0.959 . S
C1253 C1251 1.561 . S
C1254 C1251 1.526 . S
C1254 C1255 1.396 . S
C1254 C1259 1.390 . S
C1255 C1249 1.465 . S
C1255 C1254 1.396 . S
C1255 C1256 1.399 . S
C1256 H1242 0.929 . S
C1256 C1255 1.399 . S
C1256 C1257 1.385 . S
C1257 H1243 0.931 . S
C1257 C1256 1.385 . S
C1257 C1258 1.389 . S
C1258 C1257 1.389 . S
C1258 C1259 1.387 . S
C1259 H1244 0.930 . S
C1259 C1254 1.390 . S
C1259 C1258 1.387 . S
H1260 C1272 0.930 . S
H1261 C1274 0.930 . S
H1262 C1275 0.930 . S
H1263 C1279 0.959 . S
H1264 C1279 0.959 . S
H1265 C1279 0.961 . S
H1266 C1280 0.960 . S
H1267 C1280 0.961 . S
H1268 C1280 0.959 . S
H1269 C1283 0.929 . S
H1270 C1284 0.931 1_565 S
H1271 C1286 0.930 . S
C1272 H1260 0.930 . S
C1272 C1273 1.399 . S
C1272 C1277 1.399 . S
C1273 C1272 1.399 . S
C1273 C1274 1.376 . S
C1274 H1261 0.930 . S
C1274 C1273 1.376 . S
C1274 C1275 1.388 . S
C1275 H1262 0.930 . S
C1275 C1274 1.388 . S
C1275 C1276 1.390 . S
C1276 C1275 1.390 . S
C1276 C1277 1.394 . S
C1276 C1282 1.465 . S
C1277 C1272 1.399 . S
C1277 C1276 1.394 . S
C1277 C1278 1.516 . S
C1278 C1277 1.516 . S
C1278 C1279 1.502 . S
C1278 C1280 1.561 . S
C1278 C1281 1.526 . S
C1279 H1263 0.959 . S
C1279 H1264 0.959 . S
C1279 H1265 0.961 . S
C1279 C1278 1.502 . S
C1280 H1266 0.960 . S
C1280 H1267 0.961 . S
C1280 H1268 0.959 . S
C1280 C1278 1.561 . S
C1281 C1278 1.526 . S
C1281 C1282 1.396 . S
C1281 C1286 1.390 . S
C1282 C1276 1.465 . S
C1282 C1281 1.396 . S
C1282 C1283 1.399 . S
C1283 H1269 0.929 . S
C1283 C1282 1.399 . S
C1283 C1284 1.385 . S
C1284 H1270 0.931 1_545 S
C1284 C1283 1.385 . S
C1284 C1285 1.389 . S
C1285 C1284 1.389 . S
C1285 C1286 1.387 . S
C1286 H1271 0.930 . S
C1286 C1281 1.390 . S
C1286 C1285 1.387 . S
H1287 C1299 0.930 . S
H1288 C1301 0.930 . S
H1289 C1302 0.930 . S
H1290 C1306 0.959 . S
H1291 C1306 0.959 . S
H1292 C1306 0.961 . S
H1293 C1307 0.960 . S
H1294 C1307 0.961 . S
H1295 C1307 0.959 . S
H1296 C1310 0.929 . S
H1297 C1311 0.931 . S
H1298 C1313 0.930 . S
C1299 H1287 0.930 . S
C1299 C1300 1.399 . S
C1299 C1304 1.399 . S
C1300 C1299 1.399 . S
C1300 C1301 1.376 . S
C1301 H1288 0.930 . S
C1301 C1300 1.376 . S
C1301 C1302 1.388 . S
C1302 H1289 0.930 . S
C1302 C1301 1.388 . S
C1302 C1303 1.390 . S
C1303 C1302 1.390 . S
C1303 C1304 1.394 . S
C1303 C1309 1.465 . S
C1304 C1299 1.399 . S
C1304 C1303 1.394 . S
C1304 C1305 1.516 . S
C1305 C1304 1.516 . S
C1305 C1306 1.502 . S
C1305 C1307 1.561 . S
C1305 C1308 1.526 . S
C1306 H1290 0.959 . S
C1306 H1291 0.959 . S
C1306 H1292 0.961 . S
C1306 C1305 1.502 . S
C1307 H1293 0.960 . S
C1307 H1294 0.961 . S
C1307 H1295 0.959 . S
C1307 C1305 1.561 . S
C1308 C1305 1.526 . S
C1308 C1309 1.396 . S
C1308 C1313 1.390 . S
C1309 C1303 1.465 . S
C1309 C1308 1.396 . S
C1309 C1310 1.399 . S
C1310 H1296 0.929 . S
C1310 C1309 1.399 . S
C1310 C1311 1.385 1_545 S
C1311 H1297 0.931 . S
C1311 C1310 1.385 1_565 S
C1311 C1312 1.389 1_565 S
C1312 C1311 1.389 1_545 S
C1312 C1313 1.387 . S
C1313 H1298 0.930 . S
C1313 C1308 1.390 . S
C1313 C1312 1.387 . S
H1314 C1326 0.930 . S
H1315 C1328 0.930 . S
H1316 C1329 0.930 . S
H1317 C1333 0.959 . S
H1318 C1333 0.959 . S
H1319 C1333 0.961 . S
H1320 C1334 0.960 . S
H1321 C1334 0.961 . S
H1322 C1334 0.959 . S
H1323 C1337 0.929 . S
H1324 C1338 0.931 . S
H1325 C1340 0.930 . S
C1326 H1314 0.930 . S
C1326 C1327 1.399 . S
C1326 C1331 1.399 . S
C1327 C1326 1.399 . S
C1327 C1328 1.376 . S
C1328 H1315 0.930 . S
C1328 C1327 1.376 . S
C1328 C1329 1.388 . S
C1329 H1316 0.930 . S
C1329 C1328 1.388 . S
C1329 C1330 1.390 . S
C1330 C1329 1.390 . S
C1330 C1331 1.394 . S
C1330 C1336 1.465 . S
C1331 C1326 1.399 . S
C1331 C1330 1.394 . S
C1331 C1332 1.516 . S
C1332 C1331 1.516 . S
C1332 C1333 1.502 . S
C1332 C1334 1.561 . S
C1332 C1335 1.526 . S
C1333 H1317 0.959 . S
C1333 H1318 0.959 . S
C1333 H1319 0.961 . S
C1333 C1332 1.502 . S
C1334 H1320 0.960 . S
C1334 H1321 0.961 . S
C1334 H1322 0.959 . S
C1334 C1332 1.561 . S
C1335 C1332 1.526 . S
C1335 C1336 1.396 . S
C1335 C1340 1.390 . S
C1336 C1330 1.465 . S
C1336 C1335 1.396 . S
C1336 C1337 1.399 . S
C1337 H1323 0.929 . S
C1337 C1336 1.399 . S
C1337 C1338 1.385 1_455 S
C1338 H1324 0.931 . S
C1338 C1337 1.385 1_655 S
C1338 C1339 1.389 . S
C1339 C1338 1.389 . S
C1339 C1340 1.387 1_655 S
C1340 H1325 0.930 . S
C1340 C1335 1.390 . S
C1340 C1339 1.387 1_455 S
H1341 C1353 0.930 . S
H1342 C1355 0.930 . S
H1343 C1356 0.930 . S
H1344 C1360 0.959 . S
H1345 C1360 0.959 . S
H1346 C1360 0.961 . S
H1347 C1361 0.960 . S
H1348 C1361 0.961 . S
H1349 C1361 0.959 . S
H1350 C1364 0.929 . S
H1351 C1365 0.931 . S
H1352 C1367 0.930 . S
C1353 H1341 0.930 . S
C1353 C1354 1.399 . S
C1353 C1358 1.399 . S
C1354 C1353 1.399 . S
C1354 C1355 1.376 . S
C1355 H1342 0.930 . S
C1355 C1354 1.376 . S
C1355 C1356 1.388 . S
C1356 H1343 0.930 . S
C1356 C1355 1.388 . S
C1356 C1357 1.390 . S
C1357 C1356 1.390 . S
C1357 C1358 1.394 . S
C1357 C1363 1.465 . S
C1358 C1353 1.399 . S
C1358 C1357 1.394 . S
C1358 C1359 1.516 . S
C1359 C1358 1.516 . S
C1359 C1360 1.502 . S
C1359 C1361 1.561 . S
C1359 C1362 1.526 . S
C1360 H1344 0.959 . S
C1360 H1345 0.959 . S
C1360 H1346 0.961 . S
C1360 C1359 1.502 . S
C1361 H1347 0.960 . S
C1361 H1348 0.961 . S
C1361 H1349 0.959 . S
C1361 C1359 1.561 . S
C1362 C1359 1.526 . S
C1362 C1363 1.396 . S
C1362 C1367 1.390 . S
C1363 C1357 1.465 . S
C1363 C1362 1.396 . S
C1363 C1364 1.399 . S
C1364 H1350 0.929 . S
C1364 C1363 1.399 . S
C1364 C1365 1.385 . S
C1365 H1351 0.931 . S
C1365 C1364 1.385 . S
C1365 C1366 1.389 . S
C1366 C1365 1.389 . S
C1366 C1367 1.387 . S
C1367 H1352 0.930 . S
C1367 C1362 1.390 . S
C1367 C1366 1.387 . S
H1368 C1380 0.930 . S
H1369 C1382 0.930 . S
H1370 C1383 0.930 . S
H1371 C1387 0.959 . S
H1372 C1387 0.959 . S
H1373 C1387 0.961 . S
H1374 C1388 0.960 . S
H1375 C1388 0.961 . S
H1376 C1388 0.959 . S
H1377 C1391 0.929 . S
H1378 C1392 0.931 . S
H1379 C1394 0.930 . S
C1380 H1368 0.930 . S
C1380 C1381 1.399 . S
C1380 C1385 1.399 . S
C1381 C1380 1.399 . S
C1381 C1382 1.376 . S
C1382 H1369 0.930 . S
C1382 C1381 1.376 . S
C1382 C1383 1.388 . S
C1383 H1370 0.930 . S
C1383 C1382 1.388 . S
C1383 C1384 1.390 . S
C1384 C1383 1.390 . S
C1384 C1385 1.394 . S
C1384 C1390 1.465 . S
C1385 C1380 1.399 . S
C1385 C1384 1.394 . S
C1385 C1386 1.516 . S
C1386 C1385 1.516 . S
C1386 C1387 1.502 . S
C1386 C1388 1.561 . S
C1386 C1389 1.526 . S
C1387 H1371 0.959 . S
C1387 H1372 0.959 . S
C1387 H1373 0.961 . S
C1387 C1386 1.502 . S
C1388 H1374 0.960 . S
C1388 H1375 0.961 . S
C1388 H1376 0.959 . S
C1388 C1386 1.561 . S
C1389 C1386 1.526 . S
C1389 C1390 1.396 . S
C1389 C1394 1.390 . S
C1390 C1384 1.465 . S
C1390 C1389 1.396 . S
C1390 C1391 1.399 . S
C1391 H1377 0.929 . S
C1391 C1390 1.399 . S
C1391 C1392 1.385 . S
C1392 H1378 0.931 . S
C1392 C1391 1.385 . S
C1392 C1393 1.389 . S
C1393 C1392 1.389 . S
C1393 C1394 1.387 . S
C1394 H1379 0.930 . S
C1394 C1389 1.390 . S
C1394 C1393 1.387 . S
H1395 C1407 0.930 . S
H1396 C1409 0.930 . S
H1397 C1410 0.930 . S
H1398 C1414 0.959 . S
H1399 C1414 0.959 . S
H1400 C1414 0.961 . S
H1401 C1415 0.960 . S
H1402 C1415 0.961 . S
H1403 C1415 0.959 . S
H1404 C1418 0.929 . S
H1405 C1419 0.931 . S
H1406 C1421 0.930 . S
C1407 H1395 0.930 . S
C1407 C1408 1.399 . S
C1407 C1412 1.399 . S
C1408 C1407 1.399 . S
C1408 C1409 1.376 . S
C1409 H1396 0.930 . S
C1409 C1408 1.376 . S
C1409 C1410 1.388 . S
C1410 H1397 0.930 . S
C1410 C1409 1.388 . S
C1410 C1411 1.390 . S
C1411 C1410 1.390 . S
C1411 C1412 1.394 . S
C1411 C1417 1.465 . S
C1412 C1407 1.399 . S
C1412 C1411 1.394 . S
C1412 C1413 1.516 . S
C1413 C1412 1.516 . S
C1413 C1414 1.502 . S
C1413 C1415 1.561 . S
C1413 C1416 1.526 . S
C1414 H1398 0.959 . S
C1414 H1399 0.959 . S
C1414 H1400 0.961 . S
C1414 C1413 1.502 . S
C1415 H1401 0.960 . S
C1415 H1402 0.961 . S
C1415 H1403 0.959 . S
C1415 C1413 1.561 . S
C1416 C1413 1.526 . S
C1416 C1417 1.396 . S
C1416 C1421 1.390 . S
C1417 C1411 1.465 . S
C1417 C1416 1.396 . S
C1417 C1418 1.399 . S
C1418 H1404 0.929 . S
C1418 C1417 1.399 . S
C1418 C1419 1.385 . S
C1419 H1405 0.931 . S
C1419 C1418 1.385 . S
C1419 C1420 1.389 . S
C1420 C1419 1.389 . S
C1420 C1421 1.387 . S
C1421 H1406 0.930 . S
C1421 C1416 1.390 . S
C1421 C1420 1.387 . S
H1422 C1434 0.930 . S
H1423 C1436 0.930 . S
H1424 C1437 0.930 . S
H1425 C1441 0.959 . S
H1426 C1441 0.959 . S
H1427 C1441 0.961 . S
H1428 C1442 0.960 . S
H1429 C1442 0.961 . S
H1430 C1442 0.959 . S
H1431 C1445 0.929 . S
H1432 C1446 0.931 . S
H1433 C1448 0.930 . S
C1434 H1422 0.930 . S
C1434 C1435 1.399 . S
C1434 C1439 1.399 . S
C1435 C1434 1.399 . S
C1435 C1436 1.376 . S
C1436 H1423 0.930 . S
C1436 C1435 1.376 . S
C1436 C1437 1.388 . S
C1437 H1424 0.930 . S
C1437 C1436 1.388 . S
C1437 C1438 1.390 . S
C1438 C1437 1.390 . S
C1438 C1439 1.394 . S
C1438 C1444 1.465 . S
C1439 C1434 1.399 . S
C1439 C1438 1.394 . S
C1439 C1440 1.516 . S
C1440 C1439 1.516 . S
C1440 C1441 1.502 . S
C1440 C1442 1.561 . S
C1440 C1443 1.526 . S
C1441 H1425 0.959 . S
C1441 H1426 0.959 . S
C1441 H1427 0.961 . S
C1441 C1440 1.502 . S
C1442 H1428 0.960 . S
C1442 H1429 0.961 . S
C1442 H1430 0.959 . S
C1442 C1440 1.561 . S
C1443 C1440 1.526 . S
C1443 C1444 1.396 . S
C1443 C1448 1.390 . S
C1444 C1438 1.465 . S
C1444 C1443 1.396 . S
C1444 C1445 1.399 . S
C1445 H1431 0.929 . S
C1445 C1444 1.399 . S
C1445 C1446 1.385 . S
C1446 H1432 0.931 . S
C1446 C1445 1.385 . S
C1446 C1447 1.389 . S
C1447 C1446 1.389 . S
C1447 C1448 1.387 . S
C1448 H1433 0.930 . S
C1448 C1443 1.390 . S
C1448 C1447 1.387 . S
H1449 C1461 0.930 . S
H1450 C1463 0.930 . S
H1451 C1464 0.930 . S
H1452 C1468 0.959 . S
H1453 C1468 0.959 . S
H1454 C1468 0.961 . S
H1455 C1469 0.960 . S
H1456 C1469 0.961 . S
H1457 C1469 0.959 . S
H1458 C1472 0.929 . S
H1459 C1473 0.931 . S
H1460 C1475 0.930 . S
C1461 H1449 0.930 . S
C1461 C1462 1.399 . S
C1461 C1466 1.399 . S
C1462 C1461 1.399 . S
C1462 C1463 1.376 . S
C1463 H1450 0.930 . S
C1463 C1462 1.376 . S
C1463 C1464 1.388 . S
C1464 H1451 0.930 . S
C1464 C1463 1.388 . S
C1464 C1465 1.390 . S
C1465 C1464 1.390 . S
C1465 C1466 1.394 . S
C1465 C1471 1.465 . S
C1466 C1461 1.399 . S
C1466 C1465 1.394 . S
C1466 C1467 1.516 . S
C1467 C1466 1.516 . S
C1467 C1468 1.502 . S
C1467 C1469 1.561 . S
C1467 C1470 1.526 . S
C1468 H1452 0.959 . S
C1468 H1453 0.959 . S
C1468 H1454 0.961 . S
C1468 C1467 1.502 . S
C1469 H1455 0.960 . S
C1469 H1456 0.961 . S
C1469 H1457 0.959 . S
C1469 C1467 1.561 . S
C1470 C1467 1.526 . S
C1470 C1471 1.396 . S
C1470 C1475 1.390 . S
C1471 C1465 1.465 . S
C1471 C1470 1.396 . S
C1471 C1472 1.399 . S
C1472 H1458 0.929 . S
C1472 C1471 1.399 . S
C1472 C1473 1.385 . S
C1473 H1459 0.931 . S
C1473 C1472 1.385 . S
C1473 C1474 1.389 . S
C1474 C1473 1.389 . S
C1474 C1475 1.387 . S
C1475 H1460 0.930 . S
C1475 C1470 1.390 . S
C1475 C1474 1.387 . S
H1476 C1488 0.930 . S
H1477 C1490 0.930 . S
H1478 C1491 0.930 . S
H1479 C1495 0.959 . S
H1480 C1495 0.959 . S
H1481 C1495 0.961 . S
H1482 C1496 0.960 . S
H1483 C1496 0.961 . S
H1484 C1496 0.959 . S
H1485 C1499 0.929 . S
H1486 C1500 0.931 . S
H1487 C1502 0.930 . S
C1488 H1476 0.930 . S
C1488 C1489 1.399 . S
C1488 C1493 1.399 . S
C1489 C1488 1.399 . S
C1489 C1490 1.376 . S
C1490 H1477 0.930 . S
C1490 C1489 1.376 . S
C1490 C1491 1.388 . S
C1491 H1478 0.930 . S
C1491 C1490 1.388 . S
C1491 C1492 1.390 . S
C1492 C1491 1.390 . S
C1492 C1493 1.394 . S
C1492 C1498 1.465 . S
C1493 C1488 1.399 . S
C1493 C1492 1.394 . S
C1493 C1494 1.516 . S
C1494 C1493 1.516 . S
C1494 C1495 1.502 . S
C1494 C1496 1.561 . S
C1494 C1497 1.526 . S
C1495 H1479 0.959 . S
C1495 H1480 0.959 . S
C1495 H1481 0.961 . S
C1495 C1494 1.502 . S
C1496 H1482 0.960 . S
C1496 H1483 0.961 . S
C1496 H1484 0.959 . S
C1496 C1494 1.561 . S
C1497 C1494 1.526 . S
C1497 C1498 1.396 . S
C1497 C1502 1.390 . S
C1498 C1492 1.465 . S
C1498 C1497 1.396 . S
C1498 C1499 1.399 . S
C1499 H1485 0.929 . S
C1499 C1498 1.399 . S
C1499 C1500 1.385 . S
C1500 H1486 0.931 . S
C1500 C1499 1.385 . S
C1500 C1501 1.389 . S
C1501 C1500 1.389 . S
C1501 C1502 1.387 . S
C1502 H1487 0.930 . S
C1502 C1497 1.390 . S
C1502 C1501 1.387 . S
H1503 C1515 0.930 . S
H1504 C1517 0.930 . S
H1505 C1518 0.930 . S
H1506 C1522 0.959 . S
H1507 C1522 0.959 . S
H1508 C1522 0.961 . S
H1509 C1523 0.960 . S
H1510 C1523 0.961 . S
H1511 C1523 0.959 . S
H1512 C1526 0.929 . S
H1513 C1527 0.931 . S
H1514 C1529 0.930 . S
C1515 H1503 0.930 . S
C1515 C1516 1.399 . S
C1515 C1520 1.399 . S
C1516 C1515 1.399 . S
C1516 C1517 1.376 . S
C1517 H1504 0.930 . S
C1517 C1516 1.376 . S
C1517 C1518 1.388 . S
C1518 H1505 0.930 . S
C1518 C1517 1.388 . S
C1518 C1519 1.390 . S
C1519 C1518 1.390 . S
C1519 C1520 1.394 . S
C1519 C1525 1.465 . S
C1520 C1515 1.399 . S
C1520 C1519 1.394 . S
C1520 C1521 1.516 . S
C1521 C1520 1.516 . S
C1521 C1522 1.502 . S
C1521 C1523 1.561 . S
C1521 C1524 1.526 . S
C1522 H1506 0.959 . S
C1522 H1507 0.959 . S
C1522 H1508 0.961 . S
C1522 C1521 1.502 . S
C1523 H1509 0.960 . S
C1523 H1510 0.961 . S
C1523 H1511 0.959 . S
C1523 C1521 1.561 . S
C1524 C1521 1.526 . S
C1524 C1525 1.396 . S
C1524 C1529 1.390 . S
C1525 C1519 1.465 . S
C1525 C1524 1.396 . S
C1525 C1526 1.399 . S
C1526 H1512 0.929 . S
C1526 C1525 1.399 . S
C1526 C1527 1.385 . S
C1527 H1513 0.931 . S
C1527 C1526 1.385 . S
C1527 C1528 1.389 . S
C1528 C1527 1.389 . S
C1528 C1529 1.387 . S
C1529 H1514 0.930 . S
C1529 C1524 1.390 . S
C1529 C1528 1.387 . S
H1530 C1542 0.930 . S
H1531 C1544 0.930 . S
H1532 C1545 0.930 . S
H1533 C1549 0.959 . S
H1534 C1549 0.959 . S
H1535 C1549 0.961 . S
H1536 C1550 0.960 . S
H1537 C1550 0.961 . S
H1538 C1550 0.959 . S
H1539 C1553 0.929 . S
H1540 C1554 0.931 . S
H1541 C1556 0.930 . S
C1542 H1530 0.930 . S
C1542 C1543 1.399 . S
C1542 C1547 1.399 . S
C1543 C1542 1.399 . S
C1543 C1544 1.376 . S
C1544 H1531 0.930 . S
C1544 C1543 1.376 . S
C1544 C1545 1.388 . S
C1545 H1532 0.930 . S
C1545 C1544 1.388 . S
C1545 C1546 1.390 . S
C1546 C1545 1.390 . S
C1546 C1547 1.394 . S
C1546 C1552 1.465 . S
C1547 C1542 1.399 . S
C1547 C1546 1.394 . S
C1547 C1548 1.516 . S
C1548 C1547 1.516 . S
C1548 C1549 1.502 . S
C1548 C1550 1.561 . S
C1548 C1551 1.526 . S
C1549 H1533 0.959 . S
C1549 H1534 0.959 . S
C1549 H1535 0.961 . S
C1549 C1548 1.502 . S
C1550 H1536 0.960 . S
C1550 H1537 0.961 . S
C1550 H1538 0.959 . S
C1550 C1548 1.561 . S
C1551 C1548 1.526 . S
C1551 C1552 1.396 . S
C1551 C1556 1.390 . S
C1552 C1546 1.465 . S
C1552 C1551 1.396 . S
C1552 C1553 1.399 . S
C1553 H1539 0.929 . S
C1553 C1552 1.399 . S
C1553 C1554 1.385 . S
C1554 H1540 0.931 . S
C1554 C1553 1.385 . S
C1554 C1555 1.389 . S
C1555 C1554 1.389 . S
C1555 C1556 1.387 . S
C1556 H1541 0.930 . S
C1556 C1551 1.390 . S
C1556 C1555 1.387 . S
H1557 C1569 0.930 . S
H1558 C1571 0.930 . S
H1559 C1572 0.930 . S
H1560 C1576 0.959 . S
H1561 C1576 0.959 . S
H1562 C1576 0.961 . S
H1563 C1577 0.960 . S
H1564 C1577 0.961 . S
H1565 C1577 0.959 . S
H1566 C1580 0.929 . S
H1567 C1581 0.931 . S
H1568 C1583 0.930 . S
C1569 H1557 0.930 . S
C1569 C1570 1.399 . S
C1569 C1574 1.399 . S
C1570 C1569 1.399 . S
C1570 C1571 1.376 . S
C1571 H1558 0.930 . S
C1571 C1570 1.376 . S
C1571 C1572 1.388 . S
C1572 H1559 0.930 . S
C1572 C1571 1.388 . S
C1572 C1573 1.390 . S
C1573 C1572 1.390 . S
C1573 C1574 1.394 . S
C1573 C1579 1.465 . S
C1574 C1569 1.399 . S
C1574 C1573 1.394 . S
C1574 C1575 1.516 . S
C1575 C1574 1.516 . S
C1575 C1576 1.502 . S
C1575 C1577 1.561 . S
C1575 C1578 1.526 . S
C1576 H1560 0.959 . S
C1576 H1561 0.959 . S
C1576 H1562 0.961 . S
C1576 C1575 1.502 . S
C1577 H1563 0.960 . S
C1577 H1564 0.961 . S
C1577 H1565 0.959 . S
C1577 C1575 1.561 . S
C1578 C1575 1.526 . S
C1578 C1579 1.396 . S
C1578 C1583 1.390 . S
C1579 C1573 1.465 . S
C1579 C1578 1.396 . S
C1579 C1580 1.399 . S
C1580 H1566 0.929 . S
C1580 C1579 1.399 . S
C1580 C1581 1.385 . S
C1581 H1567 0.931 . S
C1581 C1580 1.385 . S
C1581 C1582 1.389 . S
C1582 C1581 1.389 . S
C1582 C1583 1.387 . S
C1583 H1568 0.930 . S
C1583 C1578 1.390 . S
C1583 C1582 1.387 . S
H1584 C1596 0.930 . S
H1585 C1598 0.930 . S
H1586 C1599 0.930 . S
H1587 C1603 0.959 . S
H1588 C1603 0.959 . S
H1589 C1603 0.961 . S
H1590 C1604 0.960 . S
H1591 C1604 0.961 . S
H1592 C1604 0.959 . S
H1593 C1607 0.929 . S
H1594 C1608 0.931 . S
H1595 C1610 0.930 . S
C1596 H1584 0.930 . S
C1596 C1597 1.399 . S
C1596 C1601 1.399 . S
C1597 C1596 1.399 . S
C1597 C1598 1.376 . S
C1598 H1585 0.930 . S
C1598 C1597 1.376 . S
C1598 C1599 1.388 . S
C1599 H1586 0.930 . S
C1599 C1598 1.388 . S
C1599 C1600 1.390 . S
C1600 C1599 1.390 . S
C1600 C1601 1.394 . S
C1600 C1606 1.465 . S
C1601 C1596 1.399 . S
C1601 C1600 1.394 . S
C1601 C1602 1.516 . S
C1602 C1601 1.516 . S
C1602 C1603 1.502 . S
C1602 C1604 1.561 . S
C1602 C1605 1.526 . S
C1603 H1587 0.959 . S
C1603 H1588 0.959 . S
C1603 H1589 0.961 . S
C1603 C1602 1.502 . S
C1604 H1590 0.960 . S
C1604 H1591 0.961 . S
C1604 H1592 0.959 . S
C1604 C1602 1.561 . S
C1605 C1602 1.526 . S
C1605 C1606 1.396 . S
C1605 C1610 1.390 . S
C1606 C1600 1.465 . S
C1606 C1605 1.396 . S
C1606 C1607 1.399 . S
C1607 H1593 0.929 . S
C1607 C1606 1.399 . S
C1607 C1608 1.385 . S
C1608 H1594 0.931 . S
C1608 C1607 1.385 . S
C1608 C1609 1.389 . S
C1609 C1608 1.389 . S
C1609 C1610 1.387 . S
C1610 H1595 0.930 . S
C1610 C1605 1.390 . S
C1610 C1609 1.387 . S
H1611 C1623 0.930 . S
H1612 C1625 0.930 . S
H1613 C1626 0.930 . S
H1614 C1630 0.959 . S
H1615 C1630 0.959 . S
H1616 C1630 0.961 . S
H1617 C1631 0.960 . S
H1618 C1631 0.961 . S
H1619 C1631 0.959 . S
H1620 C1634 0.929 . S
H1621 C1635 0.931 . S
H1622 C1637 0.930 . S
C1623 H1611 0.930 . S
C1623 C1624 1.399 . S
C1623 C1628 1.399 . S
C1624 C1623 1.399 . S
C1624 C1625 1.376 . S
C1625 H1612 0.930 . S
C1625 C1624 1.376 . S
C1625 C1626 1.388 . S
C1626 H1613 0.930 . S
C1626 C1625 1.388 . S
C1626 C1627 1.390 . S
C1627 C1626 1.390 . S
C1627 C1628 1.394 . S
C1627 C1633 1.465 . S
C1628 C1623 1.399 . S
C1628 C1627 1.394 . S
C1628 C1629 1.516 . S
C1629 C1628 1.516 . S
C1629 C1630 1.502 . S
C1629 C1631 1.561 . S
C1629 C1632 1.526 . S
C1630 H1614 0.959 . S
C1630 H1615 0.959 . S
C1630 H1616 0.961 . S
C1630 C1629 1.502 . S
C1631 H1617 0.960 . S
C1631 H1618 0.961 . S
C1631 H1619 0.959 . S
C1631 C1629 1.561 . S
C1632 C1629 1.526 . S
C1632 C1633 1.396 . S
C1632 C1637 1.390 . S
C1633 C1627 1.465 . S
C1633 C1632 1.396 . S
C1633 C1634 1.399 . S
C1634 H1620 0.929 . S
C1634 C1633 1.399 . S
C1634 C1635 1.385 . S
C1635 H1621 0.931 . S
C1635 C1634 1.385 . S
C1635 C1636 1.389 . S
C1636 C1635 1.389 . S
C1636 C1637 1.387 . S
C1637 H1622 0.930 . S
C1637 C1632 1.390 . S
C1637 C1636 1.387 . S
H1638 C1650 0.930 . S
H1639 C1652 0.930 . S
H1640 C1653 0.930 . S
H1641 C1657 0.959 . S
H1642 C1657 0.959 . S
H1643 C1657 0.961 . S
H1644 C1658 0.960 . S
H1645 C1658 0.961 . S
H1646 C1658 0.959 . S
H1647 C1661 0.929 . S
H1648 C1662 0.931 . S
H1649 C1664 0.930 . S
C1650 H1638 0.930 . S
C1650 C1651 1.399 . S
C1650 C1655 1.399 . S
C1651 C1650 1.399 . S
C1651 C1652 1.376 . S
C1652 H1639 0.930 . S
C1652 C1651 1.376 . S
C1652 C1653 1.388 . S
C1653 H1640 0.930 . S
C1653 C1652 1.388 . S
C1653 C1654 1.390 . S
C1654 C1653 1.390 . S
C1654 C1655 1.394 . S
C1654 C1660 1.465 . S
C1655 C1650 1.399 . S
C1655 C1654 1.394 . S
C1655 C1656 1.516 . S
C1656 C1655 1.516 . S
C1656 C1657 1.502 . S
C1656 C1658 1.561 . S
C1656 C1659 1.526 . S
C1657 H1641 0.959 . S
C1657 H1642 0.959 . S
C1657 H1643 0.961 . S
C1657 C1656 1.502 . S
C1658 H1644 0.960 . S
C1658 H1645 0.961 . S
C1658 H1646 0.959 . S
C1658 C1656 1.561 . S
C1659 C1656 1.526 . S
C1659 C1660 1.396 . S
C1659 C1664 1.390 . S
C1660 C1654 1.465 . S
C1660 C1659 1.396 . S
C1660 C1661 1.399 . S
C1661 H1647 0.929 . S
C1661 C1660 1.399 . S
C1661 C1662 1.385 . S
C1662 H1648 0.931 . S
C1662 C1661 1.385 . S
C1662 C1663 1.389 . S
C1663 C1662 1.389 . S
C1663 C1664 1.387 . S
C1664 H1649 0.930 . S
C1664 C1659 1.390 . S
C1664 C1663 1.387 . S
H1665 C1677 0.930 . S
H1666 C1679 0.930 . S
H1667 C1680 0.930 . S
H1668 C1684 0.959 . S
H1669 C1684 0.959 . S
H1670 C1684 0.961 . S
H1671 C1685 0.960 . S
H1672 C1685 0.961 . S
H1673 C1685 0.959 . S
H1674 C1688 0.929 . S
H1675 C1689 0.931 . S
H1676 C1691 0.930 . S
C1677 H1665 0.930 . S
C1677 C1678 1.399 . S
C1677 C1682 1.399 . S
C1678 C1677 1.399 . S
C1678 C1679 1.376 . S
C1679 H1666 0.930 . S
C1679 C1678 1.376 . S
C1679 C1680 1.388 . S
C1680 H1667 0.930 . S
C1680 C1679 1.388 . S
C1680 C1681 1.390 . S
C1681 C1680 1.390 . S
C1681 C1682 1.394 . S
C1681 C1687 1.465 . S
C1682 C1677 1.399 . S
C1682 C1681 1.394 . S
C1682 C1683 1.516 . S
C1683 C1682 1.516 . S
C1683 C1684 1.502 . S
C1683 C1685 1.561 . S
C1683 C1686 1.526 . S
C1684 H1668 0.959 . S
C1684 H1669 0.959 . S
C1684 H1670 0.961 . S
C1684 C1683 1.502 . S
C1685 H1671 0.960 . S
C1685 H1672 0.961 . S
C1685 H1673 0.959 . S
C1685 C1683 1.561 . S
C1686 C1683 1.526 . S
C1686 C1687 1.396 . S
C1686 C1691 1.390 . S
C1687 C1681 1.465 . S
C1687 C1686 1.396 . S
C1687 C1688 1.399 . S
C1688 H1674 0.929 . S
C1688 C1687 1.399 . S
C1688 C1689 1.385 . S
C1689 H1675 0.931 . S
C1689 C1688 1.385 . S
C1689 C1690 1.389 . S
C1690 C1689 1.389 . S
C1690 C1691 1.387 . S
C1691 H1676 0.930 . S
C1691 C1686 1.390 . S
C1691 C1690 1.387 . S
H1692 C1704 0.930 . S
H1693 C1706 0.930 1_556 S
H1694 C1707 0.928 . S
H1695 C1711 0.959 . S
H1696 C1711 0.959 . S
H1697 C1711 0.961 . S
H1698 C1712 0.960 . S
H1699 C1712 0.961 . S
H1700 C1712 0.959 . S
H1701 C1715 0.929 . S
H1702 C1716 0.931 . S
H1703 C1718 0.930 1_554 S
C1704 H1692 0.930 . S
C1704 C1705 1.396 1_455 S
C1704 C1709 1.399 . S
C1705 C1704 1.396 1_655 S
C1705 C1706 1.379 . S
C1706 H1693 0.930 1_554 S
C1706 C1705 1.379 . S
C1706 C1707 1.388 1_654 S
C1707 H1694 0.928 . S
C1707 C1706 1.388 1_456 S
C1707 C1708 1.390 . S
C1708 C1707 1.390 . S
C1708 C1709 1.394 1_556 S
C1708 C1714 1.465 . S
C1709 C1704 1.399 . S
C1709 C1708 1.394 1_554 S
C1709 C1710 1.516 . S
C1710 C1709 1.516 . S
C1710 C1711 1.502 . S
C1710 C1712 1.561 . S
C1710 C1713 1.527 1_554 S
C1711 H1695 0.959 . S
C1711 H1696 0.959 . S
C1711 H1697 0.961 . S
C1711 C1710 1.502 . S
C1712 H1698 0.960 . S
C1712 H1699 0.961 . S
C1712 H1700 0.959 . S
C1712 C1710 1.561 . S
C1713 C1710 1.527 1_556 S
C1713 C1714 1.395 . S
C1713 C1718 1.389 . S
C1714 C1708 1.465 . S
C1714 C1713 1.395 . S
C1714 C1715 1.399 . S
C1715 H1701 0.929 . S
C1715 C1714 1.399 . S
C1715 C1716 1.385 . S
C1716 H1702 0.931 . S
C1716 C1715 1.385 . S
C1716 C1717 1.389 . S
C1717 C1716 1.389 . S
C1717 C1718 1.387 . S
C1718 H1703 0.930 1_556 S
C1718 C1713 1.389 . S
C1718 C1717 1.387 . S
H1719 C1731 0.930 . S
H1720 C1733 0.930 . S
H1721 C1734 0.930 . S
H1722 C1738 0.959 . S
H1723 C1738 0.959 . S
H1724 C1738 0.961 1_556 S
H1725 C1739 0.960 . S
H1726 C1739 0.961 . S
H1727 C1739 0.959 . S
H1728 C1742 0.929 . S
H1729 C1743 0.931 . S
H1730 C1745 0.930 . S
C1731 H1719 0.930 . S
C1731 C1732 1.399 . S
C1731 C1736 1.399 . S
C1732 C1731 1.399 . S
C1732 C1733 1.376 . S
C1733 H1720 0.930 . S
C1733 C1732 1.376 . S
C1733 C1734 1.388 . S
C1734 H1721 0.930 . S
C1734 C1733 1.388 . S
C1734 C1735 1.390 . S
C1735 C1734 1.390 . S
C1735 C1736 1.394 . S
C1735 C1741 1.465 1_556 S
C1736 C1731 1.399 . S
C1736 C1735 1.394 . S
C1736 C1737 1.516 . S
C1737 C1736 1.516 . S
C1737 C1738 1.502 1_556 S
C1737 C1739 1.561 . S
C1737 C1740 1.526 1_556 S
C1738 H1722 0.959 . S
C1738 H1723 0.959 . S
C1738 H1724 0.961 1_554 S
C1738 C1737 1.502 1_554 S
C1739 H1725 0.960 . S
C1739 H1726 0.961 . S
C1739 H1727 0.959 . S
C1739 C1737 1.561 . S
C1740 C1737 1.526 1_554 S
C1740 C1741 1.396 . S
C1740 C1745 1.390 . S
C1741 C1735 1.465 1_554 S
C1741 C1740 1.396 . S
C1741 C1742 1.399 . S
C1742 H1728 0.929 . S
C1742 C1741 1.399 . S
C1742 C1743 1.385 . S
C1743 H1729 0.931 . S
C1743 C1742 1.385 . S
C1743 C1744 1.389 . S
C1744 C1743 1.389 . S
C1744 C1745 1.387 . S
C1745 H1730 0.930 . S
C1745 C1740 1.390 . S
C1745 C1744 1.387 . S
H1746 C1758 0.930 1_556 S
H1747 C1760 0.930 . S
H1748 C1761 0.930 . S
H1749 C1765 0.959 . S
H1750 C1765 0.959 . S
H1751 C1765 0.961 . S
H1752 C1766 0.960 . S
H1753 C1766 0.961 . S
H1754 C1766 0.959 . S
H1755 C1769 0.929 . S
H1756 C1770 0.956 1_554 S
H1757 C1772 0.930 . S
C1758 H1746 0.930 1_554 S
C1758 C1759 1.399 . S
C1758 C1763 1.399 1_554 S
C1759 C1758 1.399 . S
C1759 C1760 1.376 . S
C1760 H1747 0.930 . S
C1760 C1759 1.376 . S
C1760 C1761 1.388 . S
C1761 H1748 0.930 . S
C1761 C1760 1.388 . S
C1761 C1762 1.390 . S
C1762 C1761 1.390 . S
C1762 C1763 1.394 1_554 S
C1762 C1768 1.465 . S
C1763 C1758 1.399 1_556 S
C1763 C1762 1.394 1_556 S
C1763 C1764 1.516 . S
C1764 C1763 1.516 . S
C1764 C1765 1.502 . S
C1764 C1766 1.561 . S
C1764 C1767 1.526 . S
C1765 H1749 0.959 . S
C1765 H1750 0.959 . S
C1765 H1751 0.961 . S
C1765 C1764 1.502 . S
C1766 H1752 0.960 . S
C1766 H1753 0.961 . S
C1766 H1754 0.959 . S
C1766 C1764 1.561 . S
C1767 C1764 1.526 . S
C1767 C1768 1.396 1_556 S
C1767 C1772 1.390 . S
C1768 C1762 1.465 . S
C1768 C1767 1.396 1_554 S
C1768 C1769 1.399 . S
C1769 H1755 0.929 . S
C1769 C1768 1.399 . S
C1769 C1770 1.377 1_554 S
C1770 H1756 0.956 1_556 S
C1770 C1769 1.377 1_556 S
C1770 C1771 1.403 . S
C1771 C1770 1.403 . S
C1771 C1772 1.387 . S
C1772 H1757 0.930 . S
C1772 C1767 1.390 . S
C1772 C1771 1.387 . S
H1773 C1785 0.930 . S
H1774 C1787 0.930 . S
H1775 C1788 0.930 . S
H1776 C1792 0.959 . S
H1777 C1792 0.959 . S
H1778 C1792 0.961 . S
H1779 C1793 0.960 . S
H1780 C1793 0.961 . S
H1781 C1793 0.959 . S
H1782 C1796 0.929 . S
H1783 C1797 0.931 . S
H1784 C1799 0.930 1_565 S
C1785 H1773 0.930 . S
C1785 C1786 1.399 . S
C1785 C1790 1.399 . S
C1786 C1785 1.399 . S
C1786 C1787 1.376 . S
C1787 H1774 0.930 . S
C1787 C1786 1.376 . S
C1787 C1788 1.388 . S
C1788 H1775 0.930 . S
C1788 C1787 1.388 . S
C1788 C1789 1.390 . S
C1789 C1788 1.390 . S
C1789 C1790 1.394 . S
C1789 C1795 1.465 . S
C1790 C1785 1.399 . S
C1790 C1789 1.394 . S
C1790 C1791 1.516 . S
C1791 C1790 1.516 . S
C1791 C1792 1.502 . S
C1791 C1793 1.561 . S
C1791 C1794 1.526 . S
C1792 H1776 0.959 . S
C1792 H1777 0.959 . S
C1792 H1778 0.961 . S
C1792 C1791 1.502 . S
C1793 H1779 0.960 . S
C1793 H1780 0.961 . S
C1793 H1781 0.959 . S
C1793 C1791 1.561 . S
C1794 C1791 1.526 . S
C1794 C1795 1.396 . S
C1794 C1799 1.390 . S
C1795 C1789 1.465 . S
C1795 C1794 1.396 . S
C1795 C1796 1.399 . S
C1796 H1782 0.929 . S
C1796 C1795 1.399 . S
C1796 C1797 1.385 . S
C1797 H1783 0.931 . S
C1797 C1796 1.385 . S
C1797 C1798 1.389 . S
C1798 C1797 1.389 . S
C1798 C1799 1.387 . S
C1799 H1784 0.930 1_545 S
C1799 C1794 1.390 . S
C1799 C1798 1.387 . S
H1800 C1812 0.930 . S
H1801 C1814 0.930 1_655 S
H1802 C1815 0.930 . S
H1803 C1819 0.959 . S
H1804 C1819 0.959 . S
H1805 C1819 0.961 . S
H1806 C1820 0.960 . S
H1807 C1820 0.961 . S
H1808 C1820 0.959 . S
H1809 C1823 0.929 . S
H1810 C1824 0.931 . S
H1811 C1826 0.930 . S
C1812 H1800 0.930 . S
C1812 C1813 1.399 . S
C1812 C1817 1.399 . S
C1813 C1812 1.399 . S
C1813 C1814 1.376 . S
C1814 H1801 0.930 1_455 S
C1814 C1813 1.376 . S
C1814 C1815 1.388 . S
C1815 H1802 0.930 . S
C1815 C1814 1.388 . S
C1815 C1816 1.390 . S
C1816 C1815 1.390 . S
C1816 C1817 1.394 . S
C1816 C1822 1.465 . S
C1817 C1812 1.399 . S
C1817 C1816 1.394 . S
C1817 C1818 1.516 . S
C1818 C1817 1.516 . S
C1818 C1819 1.502 . S
C1818 C1820 1.561 . S
C1818 C1821 1.526 . S
C1819 H1803 0.959 . S
C1819 H1804 0.959 . S
C1819 H1805 0.961 . S
C1819 C1818 1.502 . S
C1820 H1806 0.960 . S
C1820 H1807 0.961 . S
C1820 H1808 0.959 . S
C1820 C1818 1.561 . S
C1821 C1818 1.526 . S
C1821 C1822 1.396 . S
C1821 C1826 1.390 . S
C1822 C1816 1.465 . S
C1822 C1821 1.396 . S
C1822 C1823 1.399 . S
C1823 H1809 0.929 . S
C1823 C1822 1.399 . S
C1823 C1824 1.385 . S
C1824 H1810 0.931 . S
C1824 C1823 1.385 . S
C1824 C1825 1.389 . S
C1825 C1824 1.389 . S
C1825 C1826 1.387 . S
C1826 H1811 0.930 . S
C1826 C1821 1.390 . S
C1826 C1825 1.387 . S
H1827 C1839 0.930 . S
H1828 C1841 0.930 . S
H1829 C1842 0.930 . S
H1830 C1846 0.959 . S
H1831 C1846 0.959 . S
H1832 C1846 0.961 . S
H1833 C1847 0.960 . S
H1834 C1847 0.961 . S
H1835 C1847 0.959 . S
H1836 C1850 0.929 . S
H1837 C1851 0.931 . S
H1838 C1853 0.930 . S
C1839 H1827 0.930 . S
C1839 C1840 1.399 . S
C1839 C1844 1.399 . S
C1840 C1839 1.399 . S
C1840 C1841 1.376 . S
C1841 H1828 0.930 . S
C1841 C1840 1.376 . S
C1841 C1842 1.388 . S
C1842 H1829 0.930 . S
C1842 C1841 1.388 . S
C1842 C1843 1.390 . S
C1843 C1842 1.390 . S
C1843 C1844 1.394 . S
C1843 C1849 1.465 . S
C1844 C1839 1.399 . S
C1844 C1843 1.394 . S
C1844 C1845 1.516 . S
C1845 C1844 1.516 . S
C1845 C1846 1.502 . S
C1845 C1847 1.561 . S
C1845 C1848 1.526 . S
C1846 H1830 0.959 . S
C1846 H1831 0.959 . S
C1846 H1832 0.961 . S
C1846 C1845 1.502 . S
C1847 H1833 0.960 . S
C1847 H1834 0.961 . S
C1847 H1835 0.959 . S
C1847 C1845 1.561 . S
C1848 C1845 1.526 . S
C1848 C1849 1.396 . S
C1848 C1853 1.390 . S
C1849 C1843 1.465 . S
C1849 C1848 1.396 . S
C1849 C1850 1.399 . S
C1850 H1836 0.929 . S
C1850 C1849 1.399 . S
C1850 C1851 1.385 . S
C1851 H1837 0.931 . S
C1851 C1850 1.385 . S
C1851 C1852 1.389 . S
C1852 C1851 1.389 . S
C1852 C1853 1.387 . S
C1853 H1838 0.930 . S
C1853 C1848 1.390 . S
C1853 C1852 1.387 . S
C409 C53 1.404 . S
C421 C6 1.356 . S
C436 C9 1.398 1_655 S
C448 C27 1.441 . S
C463 C29 1.383 . S
C475 C50 1.348 1_565 S
C490 C75 1.435 1_655 S
C502 C115 1.419 1_565 S
C517 C72 1.408 . S
C529 C95 1.348 . S
C544 C93 1.441 . S
C556 C117 1.370 . S
C571 C185 1.432 . S
C583 C138 1.382 . S
C598 C160 1.379 . S
C610 C141 1.430 . S
C625 C163 1.387 . S
C637 C182 1.435 . S
C652 C205 1.432 . S
C664 C247 1.423 . S
C679 C203 1.445 . S
C691 C227 1.387 . S
C706 C249 1.406 . S
C718 C225 1.348 . S
C733 C315 1.392 . S
C745 C270 1.438 . S
C760 C273 1.410 . S
C772 C291 1.444 . S
C787 C293 1.346 . S
C799 C313 1.375 . S
C814 C379 1.445 . S
C826 C339 1.385 . S
C841 C359 1.347 . S
C853 C336 1.410 . S
C868 C381 1.347 . S
C880 C357 1.405 . S
C895 C5 1.845 . S
C907 C295 1.837 . S
C922 C317 1.806 . S
C934 C26 1.819 . S
C949 C49 1.803 . S
C961 C272 1.794 . S
C976 C159 1.847 1_556 S
C988 C52 1.842 . S
C1003 C8 1.800 . S
C1015 C181 1.793 1_556 S
C1030 C137 1.844 1_556 S
C1042 C31 1.835 . S
C1057 C226 1.791 . S
C1069 C73 1.794 . S
C1084 C96 1.844 . S
C1096 C248 1.846 . S
C1111 C204 1.818 . S
C1123 C118 1.824 . S
C1138 C116 1.817 . S
C1150 C360 1.813 1_554 S
C1165 C382 1.790 1_554 S
C1177 C70 1.789 . S
C1192 C337 1.844 1_554 S
C1204 C94 1.845 . S
C1219 C290 1.793 . S
C1231 C184 1.789 . S
C1246 C312 1.807 . S
C1258 C140 1.797 . S
C1273 C162 1.839 . S
C1285 C269 1.845 1_545 S
C1300 C206 1.845 . S
C1312 C358 1.843 1_545 S
C1327 C380 1.847 . S
C1339 C228 1.845 . S
C1354 C250 1.789 . S
C1366 C334 1.792 . S
C1381 C4 1.087 . S
C1393 C338 1.039 . S
C1408 C28 1.059 . S
C1420 C361 1.052 . S
C1435 C383 1.033 . S
C1447 C48 1.089 . S
C1462 C246 1.038 . S
C1474 C51 1.087 . S
C1489 C202 1.090 . S
C1501 C7 1.031 . S
C1516 C30 1.049 . S
C1528 C224 1.079 . S
C1543 C74 1.055 . S
C1555 C136 1.056 . S
C1570 C97 1.034 . S
C1582 C158 1.080 . S
C1597 C119 1.041 . S
C1609 C180 1.085 . S
C1624 C114 1.067 . S
C1636 C316 1.045 . S
C1651 C71 1.053 . S
C1663 C271 1.057 . S
C1678 C294 1.090 . S
C1690 C92 1.032 . S
C1705 C183 1.032 . S
C1717 C378 1.089 . S
C1732 C335 1.063 . S
C1744 C139 1.066 . S
C1759 C161 1.082 . S
C1771 C356 1.034 1_545 S
C1786 C207 1.034 . S
C1798 C268 1.089 1_545 S
C1813 C229 1.088 1_455 S
C1825 C292 1.036 . S
C1840 C314 1.081 . S
C1852 C251 1.034 . S
