# Generated by pormake.
# Topology bcg, (8)-cn, num edge types: 1
# Building blocks:
#     Node 0, Type 0, BuildingBlock: LIZSOE_clean_sbu_0, # of connection points: 8
#     Node 1, Type 0, BuildingBlock: LIZSOE_clean_sbu_0, # of connection points: 8
#     Node 2, Type 0, BuildingBlock: LIZSOE_clean_sbu_0, # of connection points: 8
#     Node 3, Type 0, BuildingBlock: LIZSOE_clean_sbu_0, # of connection points: 8
#     Edge 4, Type (0, 0), BuildingBlock: EZIPEK_clean_linker_0, # of connection points: 2
#     Edge 5, Type (0, 0), BuildingBlock: EZIPEK_clean_linker_0, # of connection points: 2
#     Edge 6, Type (0, 0), BuildingBlock: EZIPEK_clean_linker_0, # of connection points: 2
#     Edge 7, Type (0, 0), BuildingBlock: EZIPEK_clean_linker_0, # of connection points: 2
#     Edge 8, Type (0, 0), BuildingBlock: EZIPEK_clean_linker_0, # of connection points: 2
#     Edge 9, Type (0, 0), BuildingBlock: EZIPEK_clean_linker_0, # of connection points: 2
#     Edge 10, Type (0, 0), BuildingBlock: EZIPEK_clean_linker_0, # of connection points: 2
#     Edge 11, Type (0, 0), BuildingBlock: EZIPEK_clean_linker_0, # of connection points: 2
#     Edge 12, Type (0, 0), BuildingBlock: EZIPEK_clean_linker_0, # of connection points: 2
#     Edge 13, Type (0, 0), BuildingBlock: EZIPEK_clean_linker_0, # of connection points: 2
#     Edge 14, Type (0, 0), BuildingBlock: EZIPEK_clean_linker_0, # of connection points: 2
#     Edge 15, Type (0, 0), BuildingBlock: EZIPEK_clean_linker_0, # of connection points: 2
#     Edge 16, Type (0, 0), BuildingBlock: EZIPEK_clean_linker_0, # of connection points: 2
#     Edge 17, Type (0, 0), BuildingBlock: EZIPEK_clean_linker_0, # of connection points: 2
#     Edge 18, Type (0, 0), BuildingBlock: EZIPEK_clean_linker_0, # of connection points: 2
#     Edge 19, Type (0, 0), BuildingBlock: EZIPEK_clean_linker_0, # of connection points: 2
# Relax obj value: 0.334
# Max RMSD: 0.346
# Mean RMSD: 0.346
data_MOF--net-bcg--node1-LIZSOE_clean_sbu_0--edge1-EZIPEK_clean_linker_0
_symmetry_space_group_name_H-M    P1
_symmetry_Int_Tables_number       1
_symmetry_cell_setting            triclinic
loop_
_symmetry_equiv_pos_as_xyz
'x, y, z'
_cell_length_a     16.003461
_cell_length_b     17.272017
_cell_length_c     16.524419
_cell_angle_alpha  91.51278
_cell_angle_beta   88.440329
_cell_angle_gamma 91.477005
loop_
_atom_site_label
_atom_site_type_symbol
_atom_site_fract_x
_atom_site_fract_y
_atom_site_fract_z
_atom_type_partial_charge
Co0 Co 0.1034 0.16553 0.01555 0.0
N1 N 1.02433 0.11752 0.07881 0.0
C2 C 0.99682 0.12249 0.15629 0.0
N3 N 0.89495 0.06698 0.08537 0.0
C4 C 0.96518 0.0778 0.0398 0.0
C5 C 0.91766 0.08893 0.16095 0.0
Co6 Co 0.48736 0.20068 0.97211 0.0
N7 N 0.57275 0.19113 0.89526 0.0
N8 N 0.69649 0.15052 0.84705 0.0
C9 C 0.68243 0.22045 0.81668 0.0
C10 C 0.60955 0.24764 0.85113 0.0
C11 C 0.62211 0.12993 0.88157 0.0
Co12 Co 0.29409 0.2171 0.99331 0.0
C13 C 0.46205 0.1537 0.07326 0.0
H14 H 0.58873 0.30654 0.84864 0.0
O15 O 0.17603 0.22218 0.94065 0.0
O16 O 0.33733 0.20489 0.87444 0.0
O17 O 0.27287 0.09753 0.99143 0.0
O18 O 0.23921 0.24754 0.11036 0.0
O19 O 0.10561 0.24299 0.08126 0.0
O20 O 0.42711 0.12866 0.90996 0.0
O21 O 0.4093 0.2067 0.05044 0.0
O22 O 0.45403 0.29595 0.92547 0.0
O23 O 0.17921 0.11692 0.07788 0.0
O24 O 1.03404 0.21173 0.96389 0.0
O25 O 0.33534 0.33226 0.98827 0.0
O26 O 0.51084 0.11992 0.0215 0.0
C27 C 0.21692 0.06755 0.03692 0.0
C28 C 0.6005 0.04759 0.90564 0.0
H29 H 0.5329 0.03414 0.90658 0.0
H30 H 0.62896 0.00566 0.86216 0.0
H31 H 0.62423 0.0368 0.96662 0.0
C32 C 0.39374 0.15823 0.85266 0.0
C33 C 0.16202 0.26909 0.12533 0.0
H34 H 1.02729 0.15605 0.2034 0.0
H35 H 0.94583 0.00505 0.93362 0.0
H36 H 1.04016 0.06356 0.93317 0.0
H37 H 0.94165 0.10666 0.91704 0.0
C38 C 0.97345 0.06198 0.95063 0.0
C39 C 0.09647 0.22389 0.91528 0.0
C40 C 0.41085 0.34909 0.96025 0.0
H41 H 0.87552 0.09202 0.21327 0.0
H42 H 0.72848 0.25483 0.78343 0.0
Co43 Co 0.63586 0.77977 1.00078 0.0
N44 N 0.55171 0.79619 0.07523 0.0
C45 C 0.54574 0.84778 0.13735 0.0
N46 N 0.43714 0.76838 0.14905 0.0
C47 C 0.48309 0.75107 0.08131 0.0
C48 C 0.47575 0.82981 0.18398 0.0
Co49 Co 0.99737 0.6436 0.99044 0.0
N50 N 0.0978 0.615 0.93775 0.0
N51 N 0.22671 0.62242 0.98599 0.0
C52 C 0.22439 0.66683 0.92024 0.0
C53 C 0.14483 0.6637 0.89199 0.0
C54 C 0.15288 0.58374 0.9868 0.0
Co55 Co 0.8147 0.71132 0.98214 0.0
C56 C 0.9654 0.61664 0.07316 0.0
H57 H 0.1207 0.70969 0.85805 0.0
O58 O 0.71468 0.76776 0.92317 0.0
O59 O 0.8708 0.70206 0.86789 0.0
O60 O 0.74107 0.61055 0.96782 0.0
O61 O 0.76826 0.71131 0.09759 0.0
O62 O 0.7079 0.81593 0.08654 0.0
O63 O 0.94177 0.6037 0.89844 0.0
O64 O 0.90816 0.6643 0.04706 0.0
O65 O 1.00687 0.75158 0.95079 0.0
O66 O 0.62911 0.6662 0.025 0.0
O67 O 0.64332 0.87547 0.9723 0.0
O68 O 0.8907 0.80942 0.99788 0.0
O69 O 0.98059 0.55243 0.03319 0.0
C70 C 0.66425 0.60503 0.99596 0.0
C71 C 0.14744 0.49964 0.00752 0.0
H72 H 0.08732 0.47185 0.99124 0.0
H73 H 0.19645 0.46811 0.97235 0.0
H74 H 0.15877 0.49243 0.07251 0.0
C75 C 0.92288 0.65024 0.84521 0.0
C76 C 0.73246 0.76641 0.13318 0.0
H77 H 0.59072 0.89417 0.14775 0.0
H78 H 0.39409 0.71312 0.99308 0.0
H79 H 0.45697 0.63695 0.03149 0.0
H80 H 0.4997 0.7043 0.95923 0.0
C81 C 0.45683 0.698 0.01266 0.0
C82 C 0.65632 0.82321 0.91589 0.0
C83 C 0.97021 0.81276 0.9778 0.0
H84 H 0.45359 0.85953 0.23846 0.0
H85 H 0.26881 0.71356 0.90744 0.0
Co86 Co 0.48231 0.71505 0.58616 0.0
N87 N 0.57452 0.65434 0.59474 0.0
C88 C 0.61205 0.62277 0.52834 0.0
N89 N 0.68793 0.59261 0.6304 0.0
C90 C 0.62226 0.63466 0.65664 0.0
C91 C 0.67978 0.58514 0.54953 0.0
Co92 Co 0.14604 0.67888 0.40079 0.0
N93 N 1.03403 0.64752 0.40782 0.0
N94 N 0.91874 0.59644 0.46522 0.0
C95 C 0.89711 0.65603 0.41937 0.0
C96 C 0.96852 0.68837 0.38554 0.0
C97 C 1.00066 0.58777 0.45022 0.0
Co98 Co 0.3232 0.73136 0.48094 0.0
C99 C 0.19677 0.64636 0.3523 0.0
H100 H 0.97337 0.74387 0.35706 0.0
O101 O 0.39919 0.77561 0.57913 0.0
O102 O 0.25275 0.68751 0.57518 0.0
O103 O 0.38074 0.62564 0.45662 0.0
O104 O 0.41258 0.77258 0.39828 0.0
O105 O 0.51639 0.7351 0.47463 0.0
O106 O 0.13801 0.66822 0.51319 0.0
O107 O 0.2495 0.70107 0.38334 0.0
O108 O 0.12509 0.78746 0.42616 0.0
O109 O 0.4232 0.62036 0.5741 0.0
O110 O 0.44032 0.69532 0.68141 0.0
O111 O 0.24671 0.83134 0.48635 0.0
O112 O 0.18303 0.58151 0.38865 0.0
C113 C 0.41346 0.58518 0.50926 0.0
C114 C 1.04782 0.5191 0.47906 0.0
H115 H 0.10955 0.5341 0.50322 0.0
H116 H 1.01336 0.48752 0.52726 0.0
H117 H 0.0575 0.47812 0.42697 0.0
C118 C 0.17595 0.66905 0.57785 0.0
C119 C 0.49161 0.75906 0.40737 0.0
H120 H 0.5917 0.62442 0.46705 0.0
H121 H 0.64922 0.63759 0.78409 0.0
H122 H 0.54568 0.60287 0.75638 0.0
H123 H 0.56962 0.70054 0.75724 0.0
C124 C 0.5968 0.64489 0.74352 0.0
C125 C 0.44847 0.75934 0.64245 0.0
C126 C 0.16957 0.84198 0.46102 0.0
H127 H 0.72161 0.55739 0.5063 0.0
H128 H 0.83728 0.68405 0.42392 0.0
Co129 Co 0.61954 0.16612 0.39175 0.0
N130 N 0.50421 0.14533 0.38819 0.0
C131 C 0.4506 0.17847 0.3392 0.0
N132 N 0.37453 0.12736 0.43783 0.0
C133 C 0.45451 0.10609 0.44075 0.0
C134 C 0.37057 0.1626 0.36641 0.0
Co135 Co 0.95636 0.25134 0.58827 0.0
N136 N 0.06973 0.26524 0.6069 0.0
N137 N 0.18831 0.24475 0.67267 0.0
C138 C 0.16436 0.31806 0.68686 0.0
C139 C 0.09725 0.33173 0.64128 0.0
C140 C 0.12609 0.21259 0.62755 0.0
Co141 Co 0.78968 0.20825 0.48583 0.0
C142 C 0.89879 0.27953 0.64123 0.0
H143 H 0.06693 0.38589 0.6375 0.0
O144 O 0.72688 0.17825 0.38476 0.0
O145 O 0.85894 0.10774 0.47694 0.0
O146 O 0.71072 0.16364 0.57358 0.0
O147 O 0.71507 0.30808 0.48617 0.0
O148 O 0.60606 0.27522 0.40413 0.0
O149 O 0.97348 0.15301 0.53758 0.0
O150 O 0.85149 0.23835 0.58853 0.0
O151 O 0.97698 0.29424 0.48512 0.0
O152 O 0.60067 0.16467 0.50294 0.0
O153 O 0.64662 0.06689 0.39105 0.0
O154 O 0.8762 0.2529 0.40501 0.0
O155 O 0.92857 0.34755 0.62454 0.0
C156 C 0.63181 0.16187 0.57079 0.0
C157 C 0.11728 0.12672 0.60761 0.0
H158 H 0.05607 0.10371 0.62693 0.0
H159 H 0.12866 0.11595 0.54192 0.0
H160 H 0.15571 0.08842 0.64127 0.0
C161 C 0.93621 0.10013 0.49644 0.0
C162 C 0.6458 0.32522 0.44929 0.0
H163 H 0.46808 0.22152 0.29533 0.0
H164 H 0.44712 -0.01213 0.47719 0.0
H165 H 0.46664 0.05562 0.55802 0.0
H166 H 0.5488 0.02925 0.48845 0.0
C167 C 0.48199 0.04203 0.49379 0.0
C168 C 0.67306 0.12726 0.35159 0.0
C169 C 0.94967 0.28291 0.41478 0.0
H170 H 0.31622 0.19097 0.34617 0.0
H171 H 0.19578 0.36036 0.72527 0.0
C172 C 0.78262 0.1908 0.96273 0.0
C173 C 0.76667 0.13724 0.89728 0.0
C174 C 0.79598 0.03109 0.98552 0.0
C175 C 0.81736 0.0836 0.04845 0.0
N176 N 0.80919 0.21594 0.10111 0.0
N177 N 0.78582 0.009 0.84244 0.0
C178 C 0.80085 0.16317 0.03928 0.0
C179 C 0.7843 0.05882 0.90728 0.0
N180 N 0.78201 0.26897 0.95266 0.0
N181 N 0.80253 -0.04577 0.99743 0.0
H182 H 0.77705 0.02692 0.78343 0.0
H183 H 0.77705 0.02692 0.78343 0.0
H184 H 0.81137 0.9337 0.0553 0.0
H185 H 0.79782 0.9135 0.95 0.0
H186 H 0.78865 0.30933 1.00036 0.0
H187 H 0.78488 0.29397 0.89646 0.0
H188 H 0.82012 0.20201 0.16066 0.0
H189 H 0.82012 0.20201 0.16066 0.0
C190 C 0.30958 0.61612 0.11039 0.0
C191 C 0.25627 0.65638 0.06066 0.0
C192 C 0.29086 0.77718 0.13332 0.0
C193 C 0.35545 0.73876 0.16839 0.0
N194 N 0.37985 0.62234 0.2362 0.0
N195 N 0.16779 0.76953 0.06135 0.0
C196 C 0.34754 0.65807 0.1734 0.0
C197 C 0.23749 0.7348 0.08344 0.0
N198 N 0.33094 0.54144 0.0961 0.0
N199 N 0.28102 0.85468 0.14386 0.0
H200 H 0.11857 0.73792 0.03671 0.0
H201 H 0.11857 0.73792 0.03671 0.0
H202 H 0.31797 0.88913 0.18227 0.0
H203 H 0.31797 0.88913 0.18227 0.0
H204 H 0.31232 0.50894 0.04548 0.0
H205 H 0.31232 0.50894 0.04548 0.0
H206 H 0.37976 0.5622 0.23895 0.0
H207 H 0.39378 0.6554 0.28781 0.0
C208 C 0.81728 0.65223 0.66091 0.0
C209 C 0.76696 0.58501 0.66737 0.0
C210 C 0.85276 0.51566 0.57145 0.0
C211 C 0.88539 0.58795 0.54571 0.0
N212 N 0.92554 0.7198 0.58242 0.0
N213 N 0.77605 0.45008 0.67976 0.0
C214 C 0.878 0.65473 0.59731 0.0
C215 C 0.80443 0.51551 0.64439 0.0
N216 N 0.79728 0.7157 0.70641 0.0
N217 N 0.85532 0.4524 0.52063 0.0
H218 H 0.73795 0.45305 0.73196 0.0
H219 H 0.79116 0.39512 0.65856 0.0
H220 H 0.88483 0.45377 0.46357 0.0
H221 H 0.8227 0.40115 0.53287 0.0
H222 H 0.82356 0.77016 0.6969 0.0
H223 H 0.75477 0.71224 0.75492 0.0
H224 H 0.9162 0.77375 0.60984 0.0
H225 H 0.97826 0.71878 0.54427 0.0
C226 C 0.31259 0.27707 0.59679 0.0
C227 C 0.27369 0.22766 0.65328 0.0
C228 C 0.31461 0.11452 0.57522 0.0
C229 C 0.34011 0.16268 0.51078 0.0
N230 N 0.37946 0.29353 0.46806 0.0
N231 N 0.27711 0.10666 0.71809 0.0
C232 C 0.34354 0.24524 0.52346 0.0
C233 C 0.29423 0.14925 0.65131 0.0
N234 N 0.32131 0.35443 0.61496 0.0
N235 N 0.30173 0.03698 0.56103 0.0
H236 H 0.25051 0.13242 0.77007 0.0
H237 H 0.29089 0.04828 0.72178 0.0
H238 H 0.30664 0.01225 0.50283 0.0
H239 H 0.27903 -0.00094 0.60482 0.0
H240 H 0.31633 0.3758 0.67434 0.0
H241 H 0.34341 0.39586 0.57473 0.0
H242 H 0.35954 0.34961 0.4598 0.0
H243 H 0.43687 0.28199 0.44061 0.0
C244 C 0.57723 0.48773 0.05585 0.0
C245 C 0.60672 0.5308 0.98809 0.0
C246 C 0.49186 0.4675 0.91056 0.0
C247 C 0.46067 0.42505 0.977 0.0
N248 N 0.47011 0.40236 0.11825 0.0
N249 N 0.61993 0.51128 0.84576 0.0
C250 C 0.50263 0.43762 0.05134 0.0
C251 C 0.5709 0.50853 0.91359 0.0
N252 N 0.62925 0.48372 0.11896 0.0
N253 N 0.44413 0.47154 0.84432 0.0
H254 H 0.68242 0.53007 0.84759 0.0
H255 H 0.6005 0.48568 0.79144 0.0
H256 H 0.38583 0.44321 0.84062 0.0
H257 H 0.45752 0.51267 0.80087 0.0
H258 H 0.6223 0.44164 0.16244 0.0
H259 H 0.68776 0.51176 0.11743 0.0
H260 H 0.49342 0.41152 0.17548 0.0
H261 H 0.41593 0.36749 0.11682 0.0
C262 C 0.55184 0.43099 0.40239 0.0
C263 C 0.5972 0.40031 0.46642 0.0
C264 C 0.50539 0.4772 0.56022 0.0
C265 C 0.46323 0.51013 0.49469 0.0
N266 N 0.42069 0.48151 0.3596 0.0
N267 N 0.62087 0.40426 0.60937 0.0
C268 C 0.47911 0.47665 0.41735 0.0
C269 C 0.57613 0.42779 0.54601 0.0
N270 N 0.58238 0.4214 0.32575 0.0
N271 N 0.47201 0.48641 0.63648 0.0
H272 H 0.66505 0.36149 0.60437 0.0
H273 H 0.61472 0.42734 0.66761 0.0
H274 H 0.413 0.50904 0.64823 0.0
H275 H 0.49595 0.46103 0.68637 0.0
H276 H 0.55777 0.45116 0.27897 0.0
H277 H 0.63968 0.3959 0.31328 0.0
H278 H 0.42458 0.45013 0.3049 0.0
H279 H 0.36378 0.50826 0.37145 0.0
C280 C 0.15647 -0.04354 0.94469 0.0
C281 C 0.17 -0.01035 0.02286 0.0
C282 C 1.04208 0.91637 0.07161 0.0
C283 C 1.02833 0.88425 0.99309 0.0
N284 N 1.05145 0.91104 0.85437 0.0
N285 N 0.13729 -0.01835 0.16486 0.0
C286 C 0.08191 0.91177 0.92971 0.0
C287 C 0.11641 -0.03736 0.08737 0.0
N288 N 0.21069 -0.03112 0.88136 0.0
N289 N 0.97968 0.91099 0.12887 0.0
H290 H 0.1937 0.01031 0.17799 0.0
H291 H 0.10314 -0.03688 0.21535 0.0
H292 H 0.92262 0.88335 0.11746 0.0
H293 H 0.98068 0.94006 0.18481 0.0
H294 H 0.26854 -0.00264 0.88667 0.0
H295 H 0.26854 -0.00264 0.88667 0.0
H296 H 0.08411 0.9366 0.80629 0.0
H297 H 0.98739 0.90244 0.84726 0.0
C298 C 1.05019 0.02844 0.41263 0.0
C299 C 0.98793 0.02819 0.47681 0.0
C300 C 0.07118 0.93056 0.54191 0.0
C301 C 0.12323 0.91874 0.47288 0.0
N302 N 0.18109 -0.02362 0.35425 0.0
N303 N 0.93579 -0.03346 0.59711 0.0
C304 C 0.11727 -0.02708 0.41039 0.0
C305 C 0.99684 -0.02578 0.53867 0.0
N306 N 1.0439 0.08087 0.35309 0.0
N307 N 0.10277 0.91561 0.61456 0.0
H308 H 0.87927 -0.00491 0.59456 0.0
H309 H 0.93872 0.92611 0.6425 0.0
H310 H 0.16506 0.89998 0.61775 0.0
H311 H 0.07479 0.93613 0.66824 0.0
H312 H 0.08493 0.0844 0.30349 0.0
H313 H 0.99457 0.11917 0.35222 0.0
H314 H 0.19202 0.02309 0.31677 0.0
H315 H 0.22925 0.93664 0.35264 0.0
C316 C 0.57939 0.07462 0.2398 0.0
C317 C 0.63747 0.13421 0.26417 0.0
C318 C 0.57749 0.21346 0.15853 0.0
C319 C 0.50798 0.15982 0.15043 0.0
N320 N 0.43973 0.04235 0.19326 0.0
N321 N 0.69147 0.26387 0.23994 0.0
C322 C 0.50808 0.09144 0.19473 0.0
C323 C 0.63643 0.20491 0.22167 0.0
N324 N 0.59302 0.00109 0.26072 0.0
N325 N 0.59086 0.26944 0.10257 0.0
H326 H 0.74148 0.25803 0.27782 0.0
H327 H 0.68945 0.31826 0.2146 0.0
H328 H 0.54936 0.27899 0.05687 0.0
H329 H 0.64609 0.30239 0.09755 0.0
H330 H 0.54846 -0.04323 0.25932 0.0
H331 H 0.65286 -0.01414 0.27502 0.0
H332 H 0.43146 -0.00413 0.23166 0.0
H333 H 0.3867 0.05411 0.16067 0.0
C334 C 0.6862 0.82236 0.27321 0.0
C335 C 0.69064 0.75909 0.21702 0.0
C336 C 0.5815 0.69158 0.29685 0.0
C337 C 0.55948 0.76148 0.33962 0.0
N338 N 0.61632 0.88209 0.39243 0.0
N339 N 0.68984 0.62127 0.2243 0.0
C340 C 0.62033 0.82363 0.33553 0.0
C341 C 0.65151 0.68949 0.24156 0.0
N342 N 0.74953 0.87676 0.27053 0.0
N343 N 0.53896 0.62466 0.31214 0.0
H344 H 0.74807 0.61857 0.19483 0.0
H345 H 0.67183 0.5696 0.25175 0.0
H346 H 0.49714 0.61976 0.36061 0.0
H347 H 0.54141 0.577 0.27242 0.0
H348 H 0.7594 0.91959 0.31488 0.0
H349 H 0.79732 0.87433 0.22626 0.0
H350 H 0.66309 0.92409 0.40035 0.0
H351 H 0.56631 0.88712 0.43381 0.0
C352 C 0.4581 0.82688 0.7785 0.0
C353 C 0.4924 0.81874 0.69893 0.0
C354 C 0.63409 0.84021 0.75996 0.0
C355 C 0.60027 0.83093 0.84006 0.0
N356 N 0.4699 0.86174 0.9165 0.0
N357 N 0.61443 0.83411 0.61342 0.0
C358 C 0.51022 0.83832 0.84706 0.0
C359 C 0.58079 0.83271 0.68982 0.0
N360 N 0.37319 0.82501 0.7889 0.0
N361 N 0.71589 0.86254 0.75119 0.0
H362 H 0.5761 0.83623 0.56371 0.0
H363 H 0.67831 0.83264 0.59991 0.0
H364 H 0.75603 0.86516 0.79991 0.0
H365 H 0.74223 0.88299 0.69728 0.0
H366 H 0.34319 0.82891 0.84571 0.0
H367 H 0.33376 0.82127 0.73963 0.0
H368 H 0.49836 0.88416 0.96801 0.0
H369 H 0.49836 0.88416 0.96801 0.0
C370 C 0.48668 0.09074 0.7461 0.0
C371 C 0.444 0.15886 0.77265 0.0
C372 C 0.51736 0.22454 0.66034 0.0
C373 C 0.57203 0.16176 0.6446 0.0
N374 N 0.61076 0.03489 0.68184 0.0
N375 N 0.43032 0.29621 0.75492 0.0
C376 C 0.55772 0.09506 0.69091 0.0
C377 C 0.46323 0.22738 0.7303 0.0
N378 N 0.45676 0.02054 0.77024 0.0
N379 N 0.51041 0.27957 0.60465 0.0
H380 H 0.37793 0.30198 0.79263 0.0
H381 H 0.45737 0.34865 0.73746 0.0
H382 H 0.53562 0.2745 0.547 0.0
H383 H 0.4713 0.32602 0.61238 0.0
H384 H 0.47832 -0.03009 0.74316 0.0
H385 H 0.40496 0.01383 0.80929 0.0
H386 H 0.60861 -0.01115 0.721 0.0
H387 H 0.6612 0.03485 0.64049 0.0
C388 C 0.12954 0.57507 0.23125 0.0
C389 C 0.15407 0.6478 0.26706 0.0
C390 C 1.03702 0.70332 0.18984 0.0
C391 C 1.0163 0.63046 0.15244 0.0
N392 N 1.01442 0.49722 0.18715 0.0
N393 N 0.1394 0.78542 0.26021 0.0
C394 C 1.05499 0.56671 0.18641 0.0
C395 C 0.10993 0.71312 0.24056 0.0
N396 N 0.17657 0.51159 0.24141 0.0
N397 N 0.98038 0.76013 0.18861 0.0
H398 H 0.19609 0.79443 0.28903 0.0
H399 H 0.11329 0.83507 0.23859 0.0
H400 H 0.92414 0.75294 0.15882 0.0
H401 H 0.98284 0.80701 0.2295 0.0
H402 H 0.16022 0.45767 0.216 0.0
H403 H 0.2351 0.51525 0.26778 0.0
H404 H 0.95331 0.48916 0.16729 0.0
H405 H 0.95331 0.48916 0.16729 0.0
C406 C 0.98085 0.32394 0.26931 0.0
C407 C 1.01032 0.29702 0.34316 0.0
C408 C 0.15407 0.29602 0.27911 0.0
C409 C 0.12108 0.30378 0.20219 0.0
N410 N 1.00104 0.34885 0.12933 0.0
N411 N 0.12929 0.24552 0.4118 0.0
C412 C 1.03458 0.32533 0.1993 0.0
C413 C 0.09858 0.28184 0.34713 0.0
N414 N 0.90104 0.34959 0.26493 0.0
N415 N 0.23797 0.30493 0.28815 0.0
H416 H 0.09123 0.22 0.45571 0.0
H417 H 0.19153 0.22999 0.415 0.0
H418 H 0.27854 0.31677 0.23924 0.0
H419 H 0.26401 0.31213 0.34506 0.0
H420 H 0.87527 0.36586 0.21076 0.0
H421 H 0.86215 0.35861 0.31575 0.0
H422 H 1.03593 0.36241 0.07708 0.0
H423 H 1.03593 0.36241 0.07708 0.0
C424 C 1.02293 0.30992 0.82658 0.0
C425 C 0.06448 0.23918 0.83243 0.0
C426 C 0.95878 0.18096 0.73808 0.0
C427 C 0.92395 0.25391 0.72646 0.0
N428 N 0.89042 0.36776 0.80373 0.0
N429 N 0.06788 0.10451 0.79151 0.0
C430 C 0.94701 0.31311 0.78344 0.0
C431 C 1.03081 0.17416 0.7874 0.0
N432 N 1.05541 0.37425 0.86461 0.0
N433 N 0.92135 0.11606 0.70659 0.0
H434 H 0.12222 0.09793 0.82382 0.0
H435 H 1.04481 0.0551 0.76116 0.0
H436 H 0.86554 0.11716 0.67542 0.0
H437 H 0.86554 0.11716 0.67542 0.0
H438 H 1.03005 0.42889 0.86061 0.0
H439 H 0.11253 0.37272 0.89349 0.0
H440 H 0.89769 0.40631 0.85282 0.0
H441 H 0.83045 0.36317 0.78135 0.0
C442 C 0.09534 0.72738 0.69725 0.0
C443 C 0.12371 0.66102 0.65589 0.0
C444 C 1.01742 0.58635 0.73536 0.0
C445 C 0.98226 0.65513 0.77008 0.0
N446 N 0.97772 0.79311 0.7555 0.0
N447 N 0.13607 0.52536 0.66729 0.0
C448 C 1.01823 0.72607 0.74303 0.0
C449 C 0.09054 0.58949 0.68245 0.0
N450 N 0.149 0.78886 0.70449 0.0
N451 N 0.97594 0.5178 0.74642 0.0
H452 H 0.18959 0.52604 0.62963 0.0
H453 H 0.12922 0.47831 0.70502 0.0
H454 H 0.91832 0.51493 0.77722 0.0
H455 H 0.99364 0.46684 0.71671 0.0
H456 H 0.13817 0.83363 0.7463 0.0
H457 H 0.20824 0.78944 0.67661 0.0
H458 H 0.99718 0.84217 0.72457 0.0
H459 H 0.92148 0.79826 0.78762 0.0
loop_
_geom_bond_atom_site_label_1
_geom_bond_atom_site_label_2
_geom_bond_distance
_geom_bond_site_symmetry_2
_ccdc_geom_bond_type
Co0 N1 2.034 1_455 S
Co0 O15 2.262 1_554 S
Co0 O19 1.958 . S
Co0 O23 1.950 1_554 S
Co0 O24 2.057 1_554 S
N1 Co0 2.034 1_655 S
N1 C2 1.366 . S
N1 C4 1.332 1_554 S
C2 N1 1.366 . S
C2 C5 1.377 . S
C2 H34 0.931 . S
N3 C4 1.345 1_554 S
N3 C5 1.341 . S
C4 N1 1.332 1_556 S
C4 N3 1.345 1_556 S
C4 C38 1.361 . S
C5 C2 1.377 . S
C5 N3 1.341 . S
C5 H41 0.930 . S
Co6 N7 2.034 1_554 S
Co6 O20 1.950 1_554 S
Co6 O21 2.262 . S
Co6 O22 1.958 . S
Co6 O26 2.057 . S
N7 Co6 2.034 1_556 S
N7 C10 1.366 . S
N7 C11 1.332 . S
N8 C9 1.337 . S
N8 C11 1.346 . S
C9 N8 1.337 . S
C9 C10 1.377 . S
C9 H42 0.930 . S
C10 N7 1.366 . S
C10 C9 1.377 . S
C10 H14 0.931 . S
C11 N7 1.332 . S
C11 N8 1.346 . S
C11 C28 1.361 . S
Co12 O15 2.097 1_554 S
Co12 O16 2.065 1_554 S
Co12 O17 2.065 . S
Co12 O18 2.042 . S
Co12 O21 2.097 . S
Co12 O25 2.042 1_554 S
C13 O21 1.253 . S
C13 O26 1.263 . S
H14 C10 0.931 . S
O15 Co0 2.262 1_556 S
O15 Co12 2.097 1_556 S
O15 C39 1.253 . S
O16 Co12 2.065 1_556 S
O16 C32 1.221 . S
O17 Co12 2.065 . S
O17 C27 1.221 . S
O18 Co12 2.042 . S
O18 C33 1.237 . S
O19 Co0 1.958 . S
O19 C33 1.278 . S
O20 Co6 1.950 1_556 S
O20 C32 1.277 . S
O21 Co6 2.262 . S
O21 Co12 2.097 . S
O21 C13 1.253 . S
O22 Co6 1.958 . S
O22 C40 1.278 . S
O23 Co0 1.950 1_556 S
O23 C27 1.277 1_556 S
O24 Co0 2.057 1_556 S
O24 C39 1.263 . S
O25 Co12 2.042 1_556 S
O25 C40 1.237 1_556 S
O26 Co6 2.057 . S
O26 C13 1.263 . S
C27 O17 1.221 . S
C27 O23 1.277 1_554 S
C28 C11 1.361 . S
C28 H29 0.960 . S
C28 H30 0.961 . S
C28 H31 0.961 1_556 S
H29 C28 0.960 . S
H30 C28 0.961 . S
H31 C28 0.961 1_554 S
C32 O16 1.221 . S
C32 O20 1.277 . S
C33 O18 1.237 . S
C33 O19 1.278 . S
H34 C2 0.931 . S
H35 C38 0.961 . S
H36 C38 0.961 . S
H37 C38 0.960 . S
C38 C4 1.361 . S
C38 H35 0.961 . S
C38 H36 0.961 . S
C38 H37 0.960 . S
C39 O15 1.253 . S
C39 O24 1.263 . S
C40 O22 1.278 . S
C40 O25 1.237 1_554 S
H41 C5 0.930 . S
H42 C9 0.930 . S
Co43 N44 2.034 . S
Co43 O58 2.262 1_554 S
Co43 O62 1.958 . S
Co43 O66 1.950 1_554 S
Co43 O67 2.057 1_554 S
N44 Co43 2.034 . S
N44 C45 1.366 . S
N44 C47 1.332 1_554 S
C45 N44 1.366 . S
C45 C48 1.377 . S
C45 H77 0.931 . S
N46 C47 1.345 1_554 S
N46 C48 1.341 . S
C47 N44 1.332 1_556 S
C47 N46 1.345 1_556 S
C47 C81 1.361 . S
C48 C45 1.377 . S
C48 N46 1.341 . S
C48 H84 0.930 . S
Co49 N50 2.034 1_654 S
Co49 O63 1.950 1_554 S
Co49 O64 2.262 . S
Co49 O65 1.958 . S
Co49 O69 2.057 . S
N50 Co49 2.034 1_456 S
N50 C53 1.366 . S
N50 C54 1.332 . S
N51 C52 1.337 . S
N51 C54 1.346 . S
C52 N51 1.337 . S
C52 C53 1.377 . S
C52 H85 0.930 . S
C53 N50 1.366 . S
C53 C52 1.377 . S
C53 H57 0.931 . S
C54 N50 1.332 . S
C54 N51 1.346 . S
C54 C71 1.361 . S
Co55 O58 2.097 1_554 S
Co55 O59 2.065 1_554 S
Co55 O60 2.065 . S
Co55 O61 2.042 . S
Co55 O64 2.097 . S
Co55 O68 2.042 1_554 S
C56 O64 1.253 . S
C56 O69 1.263 . S
H57 C53 0.931 . S
O58 Co43 2.262 1_556 S
O58 Co55 2.097 1_556 S
O58 C82 1.253 . S
O59 Co55 2.065 1_556 S
O59 C75 1.221 . S
O60 Co55 2.065 . S
O60 C70 1.221 . S
O61 Co55 2.042 . S
O61 C76 1.237 . S
O62 Co43 1.958 . S
O62 C76 1.278 . S
O63 Co49 1.950 1_556 S
O63 C75 1.277 . S
O64 Co49 2.262 . S
O64 Co55 2.097 . S
O64 C56 1.253 . S
O65 Co49 1.958 . S
O65 C83 1.278 . S
O66 Co43 1.950 1_556 S
O66 C70 1.277 1_556 S
O67 Co43 2.057 1_556 S
O67 C82 1.263 . S
O68 Co55 2.042 1_556 S
O68 C83 1.237 1_556 S
O69 Co49 2.057 . S
O69 C56 1.263 . S
C70 O60 1.221 . S
C70 O66 1.277 1_554 S
C71 C54 1.361 . S
C71 H72 0.960 . S
C71 H73 0.961 . S
C71 H74 0.961 1_556 S
H72 C71 0.960 . S
H73 C71 0.961 . S
H74 C71 0.961 1_554 S
C75 O59 1.221 . S
C75 O63 1.277 . S
C76 O61 1.237 . S
C76 O62 1.278 . S
H77 C45 0.931 . S
H78 C81 0.961 . S
H79 C81 0.961 . S
H80 C81 0.960 . S
C81 C47 1.361 . S
C81 H78 0.961 . S
C81 H79 0.961 . S
C81 H80 0.960 . S
C82 O58 1.253 . S
C82 O67 1.263 . S
C83 O65 1.278 . S
C83 O68 1.237 1_554 S
H84 C48 0.930 . S
H85 C52 0.930 . S
Co86 N87 2.034 . S
Co86 O101 2.262 . S
Co86 O105 1.958 . S
Co86 O109 1.950 . S
Co86 O110 2.057 . S
N87 Co86 2.034 . S
N87 C88 1.366 . S
N87 C90 1.332 . S
C88 N87 1.366 . S
C88 C91 1.377 . S
C88 H120 0.931 . S
N89 C90 1.346 . S
N89 C91 1.337 . S
C90 N87 1.332 . S
C90 N89 1.346 . S
C90 C124 1.361 . S
C91 C88 1.377 . S
C91 N89 1.337 . S
C91 H127 0.930 . S
Co92 N93 2.034 1_455 S
Co92 O106 1.950 . S
Co92 O107 2.262 . S
Co92 O108 1.958 . S
Co92 O112 2.057 . S
N93 Co92 2.034 1_655 S
N93 C96 1.366 . S
N93 C97 1.332 . S
N94 C95 1.337 . S
N94 C97 1.346 . S
C95 N94 1.337 . S
C95 C96 1.377 . S
C95 H128 0.930 . S
C96 N93 1.366 . S
C96 C95 1.377 . S
C96 H100 0.931 . S
C97 N93 1.332 . S
C97 N94 1.346 . S
C97 C114 1.361 . S
Co98 O101 2.097 . S
Co98 O102 2.065 . S
Co98 O103 2.065 . S
Co98 O104 2.042 . S
Co98 O107 2.097 . S
Co98 O111 2.042 . S
C99 O107 1.253 . S
C99 O112 1.263 . S
H100 C96 0.931 . S
O101 Co86 2.262 . S
O101 Co98 2.097 . S
O101 C125 1.253 . S
O102 Co98 2.065 . S
O102 C118 1.221 . S
O103 Co98 2.065 . S
O103 C113 1.221 . S
O104 Co98 2.042 . S
O104 C119 1.237 . S
O105 Co86 1.958 . S
O105 C119 1.278 . S
O106 Co92 1.950 . S
O106 C118 1.277 . S
O107 Co92 2.262 . S
O107 Co98 2.097 . S
O107 C99 1.253 . S
O108 Co92 1.958 . S
O108 C126 1.278 . S
O109 Co86 1.950 . S
O109 C113 1.277 . S
O110 Co86 2.057 . S
O110 C125 1.263 . S
O111 Co98 2.042 . S
O111 C126 1.237 . S
O112 Co92 2.057 . S
O112 C99 1.263 . S
C113 O103 1.221 . S
C113 O109 1.277 . S
C114 C97 1.361 . S
C114 H115 0.960 . S
C114 H116 0.961 . S
C114 H117 0.961 . S
H115 C114 0.960 . S
H116 C114 0.961 . S
H117 C114 0.961 . S
C118 O102 1.221 . S
C118 O106 1.277 . S
C119 O104 1.237 . S
C119 O105 1.278 . S
H120 C88 0.931 . S
H121 C124 0.961 . S
H122 C124 0.961 . S
H123 C124 0.960 . S
C124 C90 1.361 . S
C124 H121 0.961 . S
C124 H122 0.961 . S
C124 H123 0.960 . S
C125 O101 1.253 . S
C125 O110 1.263 . S
C126 O108 1.278 . S
C126 O111 1.237 . S
H127 C91 0.930 . S
H128 C95 0.930 . S
Co129 N130 2.034 . S
Co129 O144 2.262 . S
Co129 O148 1.958 . S
Co129 O152 1.950 . S
Co129 O153 2.057 . S
N130 Co129 2.034 . S
N130 C131 1.366 . S
N130 C133 1.332 . S
C131 N130 1.366 . S
C131 C134 1.377 . S
C131 H163 0.931 . S
N132 C133 1.346 . S
N132 C134 1.337 . S
C133 N130 1.332 . S
C133 N132 1.346 . S
C133 C167 1.361 . S
C134 C131 1.377 . S
C134 N132 1.337 . S
C134 H170 0.930 . S
Co135 N136 2.034 1_655 S
Co135 O149 1.950 . S
Co135 O150 2.262 . S
Co135 O151 1.958 . S
Co135 O155 2.057 . S
N136 Co135 2.034 1_455 S
N136 C139 1.366 . S
N136 C140 1.332 . S
N137 C138 1.337 . S
N137 C140 1.346 . S
C138 N137 1.337 . S
C138 C139 1.377 . S
C138 H171 0.930 . S
C139 N136 1.366 . S
C139 C138 1.377 . S
C139 H143 0.931 . S
C140 N136 1.332 . S
C140 N137 1.346 . S
C140 C157 1.361 . S
Co141 O144 2.097 . S
Co141 O145 2.065 . S
Co141 O146 2.065 . S
Co141 O147 2.042 . S
Co141 O150 2.097 . S
Co141 O154 2.042 . S
C142 O150 1.253 . S
C142 O155 1.263 . S
H143 C139 0.931 . S
O144 Co129 2.262 . S
O144 Co141 2.097 . S
O144 C168 1.253 . S
O145 Co141 2.065 . S
O145 C161 1.221 . S
O146 Co141 2.065 . S
O146 C156 1.221 . S
O147 Co141 2.042 . S
O147 C162 1.237 . S
O148 Co129 1.958 . S
O148 C162 1.278 . S
O149 Co135 1.950 . S
O149 C161 1.277 . S
O150 Co135 2.262 . S
O150 Co141 2.097 . S
O150 C142 1.253 . S
O151 Co135 1.958 . S
O151 C169 1.278 . S
O152 Co129 1.950 . S
O152 C156 1.277 . S
O153 Co129 2.057 . S
O153 C168 1.263 . S
O154 Co141 2.042 . S
O154 C169 1.237 . S
O155 Co135 2.057 . S
O155 C142 1.263 . S
C156 O146 1.221 . S
C156 O152 1.277 . S
C157 C140 1.361 . S
C157 H158 0.960 . S
C157 H159 0.961 . S
C157 H160 0.961 . S
H158 C157 0.960 . S
H159 C157 0.961 . S
H160 C157 0.961 . S
C161 O145 1.221 . S
C161 O149 1.277 . S
C162 O147 1.237 . S
C162 O148 1.278 . S
H163 C131 0.931 . S
H164 C167 0.961 . S
H165 C167 0.961 . S
H166 C167 0.960 . S
C167 C133 1.361 . S
C167 H164 0.961 . S
C167 H165 0.961 . S
C167 H166 0.960 . S
C168 O144 1.253 . S
C168 O153 1.263 . S
C169 O151 1.278 . S
C169 O154 1.237 . S
H170 C134 0.930 . S
H171 C138 0.930 . S
C172 C173 1.363 . S
C172 C178 1.379 . S
C172 N180 1.356 . S
C173 C172 1.363 . S
C173 C179 1.363 1_554 S
C174 C175 1.363 . S
C174 C179 1.379 . S
C174 N181 1.356 . S
C175 C174 1.363 . S
C175 C178 1.363 1_556 S
N176 C178 1.356 . S
N176 H188 0.984 . S
N176 H189 0.985 . S
N177 C179 1.356 . S
N177 H182 0.984 . S
N177 H183 0.985 . S
C178 C172 1.379 . S
C178 C175 1.363 1_554 S
C178 N176 1.356 . S
C179 C173 1.363 1_556 S
C179 C174 1.379 . S
C179 N177 1.356 . S
N180 C172 1.356 . S
N180 H186 0.984 . S
N180 H187 0.984 . S
N181 C174 1.356 . S
N181 H184 0.984 . S
N181 H185 0.985 . S
H182 N177 0.984 . S
H183 N177 0.985 . S
H184 N181 0.984 . S
H185 N181 0.985 . S
H186 N180 0.984 . S
H187 N180 0.984 . S
H188 N176 0.984 . S
H189 N176 0.985 . S
C190 C191 1.363 1_556 S
C190 C196 1.379 . S
C190 N198 1.356 . S
C191 C190 1.363 1_554 S
C191 C197 1.363 . S
C192 C193 1.363 1_554 S
C192 C197 1.379 . S
C192 N199 1.356 . S
C193 C192 1.363 1_556 S
C193 C196 1.363 . S
N194 C196 1.356 . S
N194 H206 0.984 . S
N194 H207 0.985 . S
N195 C197 1.356 . S
N195 H200 0.984 . S
N195 H201 0.985 . S
C196 C190 1.379 . S
C196 C193 1.363 . S
C196 N194 1.356 . S
C197 C191 1.363 . S
C197 C192 1.379 . S
C197 N195 1.356 . S
N198 C190 1.356 . S
N198 H204 0.984 . S
N198 H205 0.984 . S
N199 C192 1.356 . S
N199 H202 0.984 . S
N199 H203 0.985 . S
H200 N195 0.984 . S
H201 N195 0.985 . S
H202 N199 0.984 . S
H203 N199 0.985 . S
H204 N198 0.984 . S
H205 N198 0.984 . S
H206 N194 0.984 . S
H207 N194 0.985 . S
C208 C209 1.363 . S
C208 C214 1.379 . S
C208 N216 1.356 . S
C209 C208 1.363 . S
C209 C215 1.363 . S
C210 C211 1.363 . S
C210 C215 1.379 . S
C210 N217 1.356 . S
C211 C210 1.363 . S
C211 C214 1.363 . S
N212 C214 1.356 . S
N212 H224 0.984 . S
N212 H225 0.985 . S
N213 C215 1.356 . S
N213 H218 0.984 . S
N213 H219 0.985 . S
C214 C208 1.379 . S
C214 C211 1.363 . S
C214 N212 1.356 . S
C215 C209 1.363 . S
C215 C210 1.379 . S
C215 N213 1.356 . S
N216 C208 1.356 . S
N216 H222 0.984 . S
N216 H223 0.984 . S
N217 C210 1.356 . S
N217 H220 0.984 . S
N217 H221 0.985 . S
H218 N213 0.984 . S
H219 N213 0.985 . S
H220 N217 0.984 . S
H221 N217 0.985 . S
H222 N216 0.984 . S
H223 N216 0.984 . S
H224 N212 0.984 . S
H225 N212 0.985 . S
C226 C227 1.363 . S
C226 C232 1.379 . S
C226 N234 1.356 . S
C227 C226 1.363 . S
C227 C233 1.363 . S
C228 C229 1.363 . S
C228 C233 1.379 . S
C228 N235 1.356 . S
C229 C228 1.363 . S
C229 C232 1.363 . S
N230 C232 1.356 . S
N230 H242 0.984 . S
N230 H243 0.985 . S
N231 C233 1.356 . S
N231 H236 0.984 . S
N231 H237 0.985 . S
C232 C226 1.379 . S
C232 C229 1.363 . S
C232 N230 1.356 . S
C233 C227 1.363 . S
C233 C228 1.379 . S
C233 N231 1.356 . S
N234 C226 1.356 . S
N234 H240 0.984 . S
N234 H241 0.984 . S
N235 C228 1.356 . S
N235 H238 0.984 . S
N235 H239 0.985 . S
H236 N231 0.984 . S
H237 N231 0.985 . S
H238 N235 0.984 . S
H239 N235 0.985 . S
H240 N234 0.984 . S
H241 N234 0.984 . S
H242 N230 0.984 . S
H243 N230 0.985 . S
C244 C245 1.363 . S
C244 C250 1.379 . S
C244 N252 1.356 . S
C245 C244 1.363 . S
C245 C251 1.363 1_554 S
C246 C247 1.363 1_556 S
C246 C251 1.379 . S
C246 N253 1.356 . S
C247 C246 1.363 1_554 S
C247 C250 1.363 . S
N248 C250 1.356 . S
N248 H260 0.984 . S
N248 H261 0.985 . S
N249 C251 1.356 . S
N249 H254 0.984 . S
N249 H255 0.985 . S
C250 C244 1.379 . S
C250 C247 1.363 . S
C250 N248 1.356 . S
C251 C245 1.363 1_556 S
C251 C246 1.379 . S
C251 N249 1.356 . S
N252 C244 1.356 . S
N252 H258 0.984 . S
N252 H259 0.984 . S
N253 C246 1.356 . S
N253 H256 0.984 . S
N253 H257 0.985 . S
H254 N249 0.984 . S
H255 N249 0.985 . S
H256 N253 0.984 . S
H257 N253 0.985 . S
H258 N252 0.984 . S
H259 N252 0.984 . S
H260 N248 0.984 . S
H261 N248 0.985 . S
C262 C263 1.363 . S
C262 C268 1.379 . S
C262 N270 1.356 . S
C263 C262 1.363 . S
C263 C269 1.363 . S
C264 C265 1.363 . S
C264 C269 1.379 . S
C264 N271 1.356 . S
C265 C264 1.363 . S
C265 C268 1.363 . S
N266 C268 1.356 . S
N266 H278 0.984 . S
N266 H279 0.985 . S
N267 C269 1.356 . S
N267 H272 0.984 . S
N267 H273 0.985 . S
C268 C262 1.379 . S
C268 C265 1.363 . S
C268 N266 1.356 . S
C269 C263 1.363 . S
C269 C264 1.379 . S
C269 N267 1.356 . S
N270 C262 1.356 . S
N270 H276 0.984 . S
N270 H277 0.984 . S
N271 C264 1.356 . S
N271 H274 0.984 . S
N271 H275 0.985 . S
H272 N267 0.984 . S
H273 N267 0.985 . S
H274 N271 0.984 . S
H275 N271 0.985 . S
H276 N270 0.984 . S
H277 N270 0.984 . S
H278 N266 0.984 . S
H279 N266 0.985 . S
C280 C281 1.363 1_556 S
C280 C286 1.379 1_455 S
C280 N288 1.356 . S
C281 C280 1.363 1_554 S
C281 C287 1.363 1_545 S
C282 C283 1.363 . S
C282 C287 1.379 1_655 S
C282 N289 1.356 . S
C283 C282 1.363 . S
C283 C286 1.363 1_564 S
N284 C286 1.356 . S
N284 H296 0.984 . S
N284 H297 0.985 . S
N285 C287 1.356 . S
N285 H290 0.984 . S
N285 H291 0.985 . S
C286 C280 1.379 1_655 S
C286 C283 1.363 1_546 S
C286 N284 1.356 . S
C287 C281 1.363 1_565 S
C287 C282 1.379 1_455 S
C287 N285 1.356 . S
N288 C280 1.356 . S
N288 H294 0.984 . S
N288 H295 0.984 . S
N289 C282 1.356 . S
N289 H292 0.984 . S
N289 H293 0.985 . S
H290 N285 0.984 . S
H291 N285 0.985 . S
H292 N289 0.984 . S
H293 N289 0.985 . S
H294 N288 0.984 . S
H295 N288 0.984 . S
H296 N284 0.984 . S
H297 N284 0.985 . S
C298 C299 1.363 1_565 S
C298 C304 1.379 1_655 S
C298 N306 1.356 . S
C299 C298 1.363 1_545 S
C299 C305 1.363 . S
C300 C301 1.363 1_545 S
C300 C305 1.379 1_455 S
C300 N307 1.356 . S
C301 C300 1.363 1_565 S
C301 C304 1.363 . S
N302 C304 1.356 . S
N302 H314 0.984 . S
N302 H315 0.985 . S
N303 C305 1.356 . S
N303 H308 0.984 . S
N303 H309 0.985 . S
C304 C298 1.379 1_455 S
C304 C301 1.363 . S
C304 N302 1.356 . S
C305 C299 1.363 . S
C305 C300 1.379 1_655 S
C305 N303 1.356 . S
N306 C298 1.356 . S
N306 H312 0.984 . S
N306 H313 0.984 . S
N307 C300 1.356 . S
N307 H310 0.984 . S
N307 H311 0.985 . S
H308 N303 0.984 . S
H309 N303 0.985 . S
H310 N307 0.984 . S
H311 N307 0.985 . S
H312 N306 0.984 . S
H313 N306 0.984 . S
H314 N302 0.984 . S
H315 N302 0.985 . S
C316 C317 1.363 . S
C316 C322 1.379 . S
C316 N324 1.356 . S
C317 C316 1.363 . S
C317 C323 1.363 . S
C318 C319 1.363 . S
C318 C323 1.379 . S
C318 N325 1.356 . S
C319 C318 1.363 . S
C319 C322 1.363 . S
N320 C322 1.356 . S
N320 H332 0.984 . S
N320 H333 0.985 . S
N321 C323 1.356 . S
N321 H326 0.984 . S
N321 H327 0.985 . S
C322 C316 1.379 . S
C322 C319 1.363 . S
C322 N320 1.356 . S
C323 C317 1.363 . S
C323 C318 1.379 . S
C323 N321 1.356 . S
N324 C316 1.356 . S
N324 H330 0.984 . S
N324 H331 0.984 . S
N325 C318 1.356 . S
N325 H328 0.984 . S
N325 H329 0.985 . S
H326 N321 0.984 . S
H327 N321 0.985 . S
H328 N325 0.984 . S
H329 N325 0.985 . S
H330 N324 0.984 . S
H331 N324 0.984 . S
H332 N320 0.984 . S
H333 N320 0.985 . S
C334 C335 1.363 . S
C334 C340 1.379 . S
C334 N342 1.356 . S
C335 C334 1.363 . S
C335 C341 1.363 . S
C336 C337 1.363 . S
C336 C341 1.379 . S
C336 N343 1.356 . S
C337 C336 1.363 . S
C337 C340 1.363 . S
N338 C340 1.356 . S
N338 H350 0.984 1_565 S
N338 H351 0.985 . S
N339 C341 1.356 . S
N339 H344 0.984 . S
N339 H345 0.985 . S
C340 C334 1.379 . S
C340 C337 1.363 . S
C340 N338 1.356 . S
C341 C335 1.363 . S
C341 C336 1.379 . S
C341 N339 1.356 . S
N342 C334 1.356 . S
N342 H348 0.984 1_565 S
N342 H349 0.984 . S
N343 C336 1.356 . S
N343 H346 0.984 . S
N343 H347 0.985 . S
H344 N339 0.984 . S
H345 N339 0.985 . S
H346 N343 0.984 . S
H347 N343 0.985 . S
H348 N342 0.984 1_545 S
H349 N342 0.984 . S
H350 N338 0.984 1_545 S
H351 N338 0.985 . S
C352 C353 1.363 . S
C352 C358 1.379 . S
C352 N360 1.356 . S
C353 C352 1.363 . S
C353 C359 1.363 . S
C354 C355 1.363 . S
C354 C359 1.379 . S
C354 N361 1.356 . S
C355 C354 1.363 . S
C355 C358 1.363 . S
N356 C358 1.356 . S
N356 H368 0.984 . S
N356 H369 0.985 . S
N357 C359 1.356 . S
N357 H362 0.984 . S
N357 H363 0.988 . S
C358 C352 1.379 . S
C358 C355 1.363 . S
C358 N356 1.356 . S
C359 C353 1.363 . S
C359 C354 1.379 . S
C359 N357 1.356 . S
N360 C352 1.356 . S
N360 H366 0.984 . S
N360 H367 0.984 . S
N361 C354 1.356 . S
N361 H364 0.984 . S
N361 H365 0.988 . S
H362 N357 0.984 . S
H363 N357 0.988 . S
H364 N361 0.984 . S
H365 N361 0.988 . S
H366 N360 0.984 . S
H367 N360 0.984 . S
H368 N356 0.984 . S
H369 N356 0.985 . S
C370 C371 1.363 . S
C370 C376 1.379 . S
C370 N378 1.356 . S
C371 C370 1.363 . S
C371 C377 1.363 . S
C372 C373 1.363 . S
C372 C377 1.379 . S
C372 N379 1.356 . S
C373 C372 1.363 . S
C373 C376 1.363 . S
N374 C376 1.356 . S
N374 H386 0.984 . S
N374 H387 0.985 . S
N375 C377 1.356 . S
N375 H380 0.984 . S
N375 H381 0.985 . S
C376 C370 1.379 . S
C376 C373 1.363 . S
C376 N374 1.356 . S
C377 C371 1.363 . S
C377 C372 1.379 . S
C377 N375 1.356 . S
N378 C370 1.356 . S
N378 H384 0.984 . S
N378 H385 0.984 . S
N379 C372 1.356 . S
N379 H382 0.984 . S
N379 H383 0.985 . S
H380 N375 0.984 . S
H381 N375 0.985 . S
H382 N379 0.984 . S
H383 N379 0.985 . S
H384 N378 0.984 . S
H385 N378 0.984 . S
H386 N374 0.984 . S
H387 N374 0.985 . S
C388 C389 1.363 . S
C388 C394 1.379 1_455 S
C388 N396 1.356 . S
C389 C388 1.363 . S
C389 C395 1.363 . S
C390 C391 1.363 . S
C390 C395 1.379 1_655 S
C390 N397 1.356 . S
C391 C390 1.363 . S
C391 C394 1.363 . S
N392 C394 1.356 . S
N392 H404 0.984 . S
N392 H405 0.985 . S
N393 C395 1.356 . S
N393 H398 0.984 . S
N393 H399 0.985 . S
C394 C388 1.379 1_655 S
C394 C391 1.363 . S
C394 N392 1.356 . S
C395 C389 1.363 . S
C395 C390 1.379 1_455 S
C395 N393 1.356 . S
N396 C388 1.356 . S
N396 H402 0.984 . S
N396 H403 0.984 . S
N397 C390 1.356 . S
N397 H400 0.984 . S
N397 H401 0.985 . S
H398 N393 0.984 . S
H399 N393 0.985 . S
H400 N397 0.984 . S
H401 N397 0.985 . S
H402 N396 0.984 . S
H403 N396 0.984 . S
H404 N392 0.984 . S
H405 N392 0.985 . S
C406 C407 1.363 . S
C406 C412 1.379 1_655 S
C406 N414 1.356 . S
C407 C406 1.363 . S
C407 C413 1.363 . S
C408 C409 1.363 . S
C408 C413 1.379 1_455 S
C408 N415 1.356 . S
C409 C408 1.363 . S
C409 C412 1.363 . S
N410 C412 1.356 . S
N410 H422 0.984 . S
N410 H423 0.985 . S
N411 C413 1.356 . S
N411 H416 0.984 . S
N411 H417 0.985 . S
C412 C406 1.379 1_455 S
C412 C409 1.363 . S
C412 N410 1.356 . S
C413 C407 1.363 . S
C413 C408 1.379 1_655 S
C413 N411 1.356 . S
N414 C406 1.356 . S
N414 H420 0.984 . S
N414 H421 0.984 . S
N415 C408 1.356 . S
N415 H418 0.984 . S
N415 H419 0.985 . S
H416 N411 0.984 . S
H417 N411 0.985 . S
H418 N415 0.984 . S
H419 N415 0.985 . S
H420 N414 0.984 . S
H421 N414 0.984 . S
H422 N410 0.984 . S
H423 N410 0.985 . S
C424 C425 1.363 . S
C424 C430 1.379 1_455 S
C424 N432 1.356 . S
C425 C424 1.363 . S
C425 C431 1.363 . S
C426 C427 1.363 . S
C426 C431 1.379 1_655 S
C426 N433 1.356 . S
C427 C426 1.363 . S
C427 C430 1.363 . S
N428 C430 1.356 . S
N428 H440 0.984 . S
N428 H441 0.985 . S
N429 C431 1.356 . S
N429 H434 0.984 . S
N429 H435 0.985 . S
C430 C424 1.379 1_655 S
C430 C427 1.363 . S
C430 N428 1.356 . S
C431 C425 1.363 . S
C431 C426 1.379 1_455 S
C431 N429 1.356 . S
N432 C424 1.356 . S
N432 H438 0.984 . S
N432 H439 0.984 . S
N433 C426 1.356 . S
N433 H436 0.984 . S
N433 H437 0.985 . S
H434 N429 0.984 . S
H435 N429 0.985 . S
H436 N433 0.984 . S
H437 N433 0.985 . S
H438 N432 0.984 . S
H439 N432 0.984 . S
H440 N428 0.984 . S
H441 N428 0.985 . S
C442 C443 1.363 . S
C442 C448 1.379 1_455 S
C442 N450 1.356 . S
C443 C442 1.363 . S
C443 C449 1.363 . S
C444 C445 1.363 . S
C444 C449 1.379 1_655 S
C444 N451 1.356 . S
C445 C444 1.363 . S
C445 C448 1.363 . S
N446 C448 1.356 . S
N446 H458 0.984 . S
N446 H459 0.985 . S
N447 C449 1.356 . S
N447 H452 0.984 . S
N447 H453 0.985 . S
C448 C442 1.379 1_655 S
C448 C445 1.363 . S
C448 N446 1.356 . S
C449 C443 1.363 . S
C449 C444 1.379 1_455 S
C449 N447 1.356 . S
N450 C442 1.356 . S
N450 H456 0.984 . S
N450 H457 0.984 . S
N451 C444 1.356 . S
N451 H454 0.984 . S
N451 H455 0.985 . S
H452 N447 0.984 . S
H453 N447 0.985 . S
H454 N451 0.984 . S
H455 N451 0.985 . S
H456 N450 0.984 . S
H457 N450 0.984 . S
H458 N446 0.984 . S
H459 N446 0.985 . S
C173 N8 0.554 1_554 S
C175 N3 0.707 1_556 S
C191 N51 0.554 1_554 S
C193 N46 0.707 1_556 S
C209 N89 0.709 . S
C211 N94 0.554 . S
C227 N137 0.709 . S
C229 N132 0.554 . S
C245 C70 1.710 . S
C247 C40 1.705 . S
C263 C162 1.705 . S
C265 C113 1.710 . S
C281 C27 1.710 . S
C283 C83 1.705 . S
C299 C161 1.710 . S
C301 C126 1.705 . S
C317 C168 1.751 . S
C319 C13 1.751 . S
C335 C76 1.683 . S
C337 C119 1.683 . S
C353 C125 1.634 . S
C355 C82 1.634 . S
C371 C32 1.759 . S
C373 C156 1.759 . S
C389 C99 1.751 . S
C391 C56 1.751 . S
C407 C169 1.683 . S
C409 C33 1.683 . S
C425 C39 1.634 . S
C427 C142 1.634 . S
C443 C118 1.759 . S
C445 C75 1.759 . S
