# Generated by pormake.
# Topology wjd, (6)-cn, num edge types: 1
# Building blocks:
#     Node 0, Type 0, BuildingBlock: FUNLAD_clean_sbu_0, # of connection points: 6
#     Node 1, Type 0, BuildingBlock: FUNLAD_clean_sbu_0, # of connection points: 6
#     Node 2, Type 0, BuildingBlock: FUNLAD_clean_sbu_0, # of connection points: 6
#     Node 3, Type 0, BuildingBlock: FUNLAD_clean_sbu_0, # of connection points: 6
#     Node 4, Type 0, BuildingBlock: FUNLAD_clean_sbu_0, # of connection points: 6
#     Node 5, Type 0, BuildingBlock: FUNLAD_clean_sbu_0, # of connection points: 6
#     Node 6, Type 0, BuildingBlock: FUNLAD_clean_sbu_0, # of connection points: 6
#     Node 7, Type 0, BuildingBlock: FUNLAD_clean_sbu_0, # of connection points: 6
#     Node 8, Type 0, BuildingBlock: FUNLAD_clean_sbu_0, # of connection points: 6
#     Node 9, Type 0, BuildingBlock: FUNLAD_clean_sbu_0, # of connection points: 6
#     Node 10, Type 0, BuildingBlock: FUNLAD_clean_sbu_0, # of connection points: 6
#     Node 11, Type 0, BuildingBlock: FUNLAD_clean_sbu_0, # of connection points: 6
#     Edge 12, Type (0, 0), None
#     Edge 13, Type (0, 0), None
#     Edge 14, Type (0, 0), None
#     Edge 15, Type (0, 0), None
#     Edge 16, Type (0, 0), None
#     Edge 17, Type (0, 0), None
#     Edge 18, Type (0, 0), None
#     Edge 19, Type (0, 0), None
#     Edge 20, Type (0, 0), None
#     Edge 21, Type (0, 0), None
#     Edge 22, Type (0, 0), None
#     Edge 23, Type (0, 0), None
#     Edge 24, Type (0, 0), None
#     Edge 25, Type (0, 0), None
#     Edge 26, Type (0, 0), None
#     Edge 27, Type (0, 0), None
#     Edge 28, Type (0, 0), None
#     Edge 29, Type (0, 0), None
#     Edge 30, Type (0, 0), None
#     Edge 31, Type (0, 0), None
#     Edge 32, Type (0, 0), None
#     Edge 33, Type (0, 0), None
#     Edge 34, Type (0, 0), None
#     Edge 35, Type (0, 0), None
#     Edge 36, Type (0, 0), None
#     Edge 37, Type (0, 0), None
#     Edge 38, Type (0, 0), None
#     Edge 39, Type (0, 0), None
#     Edge 40, Type (0, 0), None
#     Edge 41, Type (0, 0), None
#     Edge 42, Type (0, 0), None
#     Edge 43, Type (0, 0), None
#     Edge 44, Type (0, 0), None
#     Edge 45, Type (0, 0), None
#     Edge 46, Type (0, 0), None
#     Edge 47, Type (0, 0), None
# Relax obj value: 0.070
# Max RMSD: 0.202
# Mean RMSD: 0.202
data_MOF--net-wjd--node1-FUNLAD_clean_sbu_0--edge1-none
_symmetry_space_group_name_H-M    P1
_symmetry_Int_Tables_number       1
_symmetry_cell_setting            triclinic
loop_
_symmetry_equiv_pos_as_xyz
'x, y, z'
_cell_length_a     13.605405
_cell_length_b     13.605676
_cell_length_c     52.514015
_cell_angle_alpha  90.134282
_cell_angle_beta   89.932452
_cell_angle_gamma 120.00105
loop_
_atom_site_label
_atom_site_type_symbol
_atom_site_fract_x
_atom_site_fract_y
_atom_site_fract_z
_atom_type_partial_charge
C0 C 0.07756 0.88009 0.15397 0.0
N1 N 0.23203 0.06533 0.0908 0.0
C2 C 0.22303 -0.03797 0.08617 0.0
C3 C 0.19502 0.9118 0.06221 0.0
C4 C 0.18176 -0.03 0.04198 0.0
C5 C 0.19982 0.08003 0.04643 0.0
C6 C 0.22203 0.1255 0.07129 0.0
Zn7 Zn 0.24918 0.10183 0.12989 0.0
C8 C 0.08583 0.16199 0.15317 0.0
N9 N 0.26512 0.11075 0.21173 0.0
C10 C 0.24728 0.01707 0.22481 0.0
C11 C 0.29006 0.20837 0.22418 0.0
C12 C 0.29771 0.21412 0.25074 0.0
C13 C 0.27627 0.11749 0.26487 0.0
C14 C 0.25058 0.01796 0.25136 0.0
Zn15 Zn 0.25259 0.10138 0.1727 0.0
O16 O 0.11936 0.93279 0.13353 0.0
C17 C 0.42373 0.05162 0.14973 0.0
O18 O 0.1203 0.92842 0.17502 0.0
H19 H 0.30397 0.28217 0.21354 0.0
H20 H 0.23462 0.91522 0.1013 0.0
H21 H 0.22913 0.94057 0.21468 0.0
O22 O 0.38011 0.06186 0.1294 0.0
O23 O 0.38242 0.05723 0.17108 0.0
H24 H 0.23046 0.20767 0.07493 0.0
O25 O 0.37958 0.27293 0.16949 0.0
O26 O 0.37744 0.27591 0.12743 0.0
O27 O 0.12725 0.14891 0.17369 0.0
O28 O 0.12106 0.14762 0.13164 0.0
C29 C 0.41686 0.32655 0.14869 0.0
H30 H 0.18597 0.8287 0.05946 0.0
H31 H 0.1956 0.12911 0.03082 0.0
H32 H 0.32052 0.29392 0.25996 0.0
H33 H 0.23089 0.94013 0.26104 0.0
C34 C 0.80621 0.44852 0.40926 0.0
N35 N 0.74063 0.59887 0.34627 0.0
C36 C 0.83556 0.61896 0.33331 0.0
C37 C 0.83554 0.61583 0.30671 0.0
C38 C 0.73586 0.58851 0.29311 0.0
C39 C 0.63809 0.56417 0.30717 0.0
C40 C 0.64294 0.57186 0.33368 0.0
Zn41 Zn 0.74372 0.61182 0.38533 0.0
C42 C 0.52358 0.44005 0.40857 0.0
N43 N 0.72946 0.63327 0.46726 0.0
C44 C 0.79753 0.6394 0.48691 0.0
C45 C 0.63672 0.64502 0.47179 0.0
C46 C 0.61456 0.6726 0.4958 0.0
C47 C 0.68404 0.68216 0.51618 0.0
C48 C 0.77394 0.66077 0.51182 0.0
Zn49 Zn 0.74833 0.61558 0.42816 0.0
O50 O 0.79208 0.4873 0.38841 0.0
C51 C -0.02892 0.77966 0.40498 0.0
O52 O 0.79291 0.48655 0.43053 0.0
H53 H 0.5792 0.63535 0.4566 0.0
H54 H 0.91232 0.63926 0.34355 0.0
H55 H 0.86964 0.62815 0.48336 0.0
O56 O 0.91538 0.73993 0.38452 0.0
O57 O 0.92265 0.74289 0.42652 0.0
H58 H 0.56831 0.55684 0.34416 0.0
O59 O 0.71059 0.74621 0.42421 0.0
O60 O 0.69876 0.74114 0.38273 0.0
O61 O 0.57675 0.48547 0.42888 0.0
O62 O 0.57121 0.47947 0.38725 0.0
C63 C 0.69645 0.78598 0.4038 0.0
H64 H 0.914 0.63726 0.29705 0.0
H65 H 0.55802 0.53955 0.29792 0.0
H66 H 0.54185 0.68396 0.49846 0.0
H67 H 0.82534 0.66162 0.52754 0.0
C68 C -0.01731 0.17022 0.1542 0.0
N69 N 0.79691 0.13694 0.09067 0.0
C70 C 0.90102 0.23025 0.08621 0.0
C71 C -0.04893 0.25254 0.06226 0.0
C72 C 0.89197 0.1823 0.04187 0.0
C73 C 0.78127 0.09133 0.04616 0.0
C74 C 0.7359 0.06791 0.07101 0.0
Zn75 Zn 0.76025 0.11806 0.12973 0.0
C76 C 0.70261 0.89609 0.15273 0.0
N77 N 0.75158 0.12577 0.21164 0.0
C78 C 0.82165 0.22355 0.22432 0.0
C79 C 0.6774 0.0304 0.22451 0.0
C80 C 0.67444 0.03003 0.25111 0.0
C81 C 0.7463 0.12972 0.2648 0.0
C82 C 0.81898 0.22796 0.25085 0.0
Zn83 Zn 0.76142 0.123 0.17256 0.0
O84 O -0.07117 0.15602 0.13375 0.0
C85 C 0.80859 0.34234 0.14939 0.0
O86 O -0.06436 0.16833 0.17524 0.0
H87 H 0.62136 -0.04641 0.2142 0.0
H88 H -0.05159 0.28801 0.10143 0.0
H89 H 0.88071 0.29857 0.21392 0.0
O90 O 0.80125 0.28932 0.12908 0.0
O91 O 0.80077 0.29499 0.17071 0.0
H92 H 0.65304 -0.00496 0.07452 0.0
O93 O 0.58857 0.0742 0.16951 0.0
O94 O 0.5864 0.07326 0.12739 0.0
O95 O 0.71867 -0.04814 0.1732 0.0
O96 O 0.71364 0.94414 0.1312 0.0
C97 C 0.53538 0.06003 0.14869 0.0
H98 H 0.03475 0.32583 0.05963 0.0
H99 H 0.73159 0.03895 0.03044 0.0
H100 H 0.61797 -0.04871 0.26071 0.0
H101 H 0.874 0.30801 0.2602 0.0
C102 C 0.42009 0.32882 0.40964 0.0
N103 N 0.26904 0.11324 0.34654 0.0
C104 C 0.24804 0.18777 0.33378 0.0
C105 C 0.25031 0.19097 0.30719 0.0
C106 C 0.27781 0.11912 0.29337 0.0
C107 C 0.30341 0.04622 0.30721 0.0
C108 C 0.2965 0.04322 0.33375 0.0
Zn109 Zn 0.25648 0.10308 0.38561 0.0
C110 C 0.42869 0.05594 0.40868 0.0
N111 N 0.23539 0.0682 0.46747 0.0
C112 C 0.22726 0.12929 0.48712 0.0
C113 C 0.2246 -0.03587 0.47194 0.0
C114 C 0.19649 0.91408 0.49585 0.0
C115 C 0.18513 -0.02677 0.51621 0.0
C116 C 0.20507 0.08397 0.51195 0.0
Zn117 Zn 0.25312 0.1047 0.42844 0.0
O118 O 0.38086 0.27548 0.38881 0.0
C119 C 0.08858 0.16206 0.40535 0.0
O120 O 0.38211 0.27825 0.43094 0.0
H121 H 0.23514 0.91674 0.45672 0.0
H122 H 0.22758 0.24388 0.34417 0.0
H123 H 0.23731 0.21215 0.4836 0.0
O124 O 0.12849 0.14612 0.38492 0.0
O125 O 0.12561 0.15123 0.42692 0.0
H126 H 0.31242 -0.01604 0.34406 0.0
O127 O 0.12263 0.93631 0.42438 0.0
O128 O 0.12732 0.9293 0.38288 0.0
O129 O 0.3835 0.0637 0.42903 0.0
O130 O 0.38865 0.06329 0.38738 0.0
C131 C 0.0825 0.88249 0.40393 0.0
H132 H 0.22802 0.24762 0.2977 0.0
H133 H 0.32833 -0.00874 0.2978 0.0
H134 H 0.18597 0.83037 0.49849 0.0
H135 H 0.20234 0.1337 0.52768 0.0
C136 C 0.69424 0.78492 0.1538 0.0
N137 N 0.72477 0.63011 0.09057 0.0
C138 C 0.62994 0.6381 0.08599 0.0
C139 C 0.608 0.66667 0.06212 0.0
C140 C 0.68052 0.68181 0.04194 0.0
C141 C 0.77336 0.66521 0.04632 0.0
C142 C 0.79612 0.64217 0.0711 0.0
Zn143 Zn 0.74393 0.61299 0.12961 0.0
C144 C -0.03333 0.7767 0.15281 0.0
N145 N 0.73715 0.59799 0.21146 0.0
C146 C 0.66221 0.61696 0.22469 0.0
C147 C 0.80971 0.57271 0.22377 0.0
C148 C 0.80873 0.56603 0.25034 0.0
C149 C 0.73465 0.58887 0.26461 0.0
C150 C 0.66079 0.61471 0.25124 0.0
Zn151 Zn 0.73975 0.60999 0.17242 0.0
O152 O 0.70453 0.74268 0.13332 0.0
C153 C 0.51955 0.43847 0.14961 0.0
O154 O 0.69963 0.74226 0.17483 0.0
H155 H 0.86892 0.55792 0.21302 0.0
H156 H 0.57109 0.62562 0.10113 0.0
H157 H 0.60393 0.63536 0.21468 0.0
O158 O 0.57323 0.48179 0.12924 0.0
O159 O 0.56621 0.48043 0.17093 0.0
H160 H 0.87054 0.63498 0.07473 0.0
O161 O 0.78376 0.48304 0.16911 0.0
O162 O 0.78977 0.48476 0.12704 0.0
O163 O 0.91207 0.73504 0.17332 0.0
O164 O 0.91756 0.74131 0.13127 0.0
C165 C 0.80014 0.44533 0.14834 0.0
H166 H 0.53347 0.67484 0.05939 0.0
H167 H 0.82773 0.67137 0.03071 0.0
H168 H 0.86561 0.54298 0.25944 0.0
H169 H 0.60346 0.6354 0.26103 0.0
C170 C 0.54019 0.06449 0.40963 0.0
N171 N 0.75535 0.12716 0.34643 0.0
C172 C 0.65735 0.05488 0.33409 0.0
C173 C 0.6514 0.05621 0.30753 0.0
C174 C 0.74819 0.13044 0.2933 0.0
C175 C 0.84809 0.20397 0.30669 0.0
C176 C 0.84923 0.20212 0.33324 0.0
Zn177 Zn 0.76497 0.12441 0.38547 0.0
C178 C 0.81477 0.34536 0.40833 0.0
N179 N 0.80042 0.13993 0.46735 0.0
C180 C 0.74009 0.06971 0.48686 0.0
C181 C 0.90373 0.23416 0.47197 0.0
C182 C -0.04605 0.25607 0.4959 0.0
C183 C 0.89565 0.18446 0.51611 0.0
C184 C 0.78549 0.09275 0.5117 0.0
Zn185 Zn 0.7641 0.1206 0.42828 0.0
O186 O 0.59395 0.08073 0.38883 0.0
C187 C 0.70414 0.8971 0.40494 0.0
O188 O 0.59033 0.07503 0.4309 0.0
H189 H -0.04942 0.29265 0.45685 0.0
H190 H 0.58339 -0.00434 0.34481 0.0
H191 H 0.65786 -0.00391 0.48322 0.0
O192 O 0.71703 -0.04838 0.38444 0.0
O193 O 0.71839 0.94656 0.42649 0.0
H194 H -0.07395 0.26015 0.34328 0.0
O195 O -0.06707 0.15971 0.42461 0.0
O196 O -0.06256 0.16424 0.38311 0.0
O197 O 0.80412 0.29161 0.42869 0.0
O198 O 0.80964 0.29839 0.38701 0.0
C199 C -0.01447 0.16996 0.40418 0.0
H200 H 0.57138 -0.00048 0.29838 0.0
H201 H -0.07402 0.2614 0.2969 0.0
H202 H 0.03714 0.32997 0.49865 0.0
H203 H 0.73629 0.03949 0.52732 0.0
C204 C 0.30435 0.44453 0.64869 0.0
N205 N 0.08814 0.29406 0.71164 0.0
C206 C 0.16233 0.27288 0.72451 0.0
C207 C 0.16529 0.27547 0.75111 0.0
C208 C 0.09343 0.30329 0.7648 0.0
C209 C 0.02074 0.32885 0.75086 0.0
C210 C 0.01808 0.32177 0.72433 0.0
Zn211 Zn 0.0783 0.28145 0.67256 0.0
C212 C 0.03113 0.45361 0.64939 0.0
N213 N 0.04282 0.25988 0.59067 0.0
C214 C 0.1039 0.25197 0.57101 0.0
C215 C -0.0613 0.24903 0.5862 0.0
C216 C 0.88867 0.22128 0.56225 0.0
C217 C -0.05217 0.21022 0.54187 0.0
C218 C 0.05855 0.23004 0.54616 0.0
Zn219 Zn 0.07948 0.27767 0.62974 0.0
O220 O 0.25115 0.4055 0.66951 0.0
C221 C 0.13711 0.11334 0.65274 0.0
O222 O 0.25332 0.40673 0.62739 0.0
H223 H 0.89128 0.25936 0.60143 0.0
H224 H 0.21837 0.25211 0.7142 0.0
H225 H 0.18679 0.26204 0.57453 0.0
O226 O 0.12104 0.15305 0.67321 0.0
O227 O 0.1261 0.15037 0.6312 0.0
H228 H -0.04098 0.33774 0.71392 0.0
O229 O 0.9109 0.14705 0.63376 0.0
O230 O 0.90407 0.15256 0.67524 0.0
O231 O 0.03846 0.40792 0.62908 0.0
O232 O 0.03896 0.41408 0.67071 0.0
C233 C 0.85702 0.10739 0.6542 0.0
H234 H 0.22176 0.2532 0.7607 0.0
H235 H -0.03427 0.35388 0.7602 0.0
H236 H 0.80497 0.21083 0.55963 0.0
H237 H 0.10829 0.22743 0.53043 0.0
C238 C 0.14326 0.00939 0.90381 0.0
N239 N 0.11025 0.82363 0.96726 0.0
C240 C 0.20294 0.92815 0.9718 0.0
C241 C 0.22508 -0.02213 0.9958 0.0
C242 C 0.15564 0.91788 1.01619 0.0
C243 C 0.06581 0.80657 1.01183 0.0
C244 C 0.04222 0.76164 0.98692 0.0
Zn245 Zn 0.09138 0.7871 0.92816 0.0
C246 C 0.86863 0.72845 0.90498 0.0
N247 N 0.09907 0.77811 0.84627 0.0
C248 C 0.19677 0.84878 0.83368 0.0
C249 C 0.00414 0.70328 0.83331 0.0
C250 C 0.00416 0.70016 0.80671 0.0
C251 C 0.10385 0.7725 0.79311 0.0
C252 C 0.20162 0.84594 0.80717 0.0
Zn253 Zn 0.09599 0.78797 0.88534 0.0
O254 O 0.1291 -0.04453 0.92421 0.0
C255 C 0.31613 0.83634 0.90857 0.0
O256 O 0.14096 -0.03775 0.88274 0.0
H257 H -0.07262 0.64682 0.84355 0.0
H258 H 0.26044 -0.02397 0.95661 0.0
H259 H 0.27141 0.90839 0.84416 0.0
O260 O 0.26297 0.8286 0.92888 0.0
O261 O 0.2685 0.82813 0.88725 0.0
H262 H -0.02985 0.67825 0.98336 0.0
O263 O 0.04763 0.61508 0.88841 0.0
O264 O 0.04681 0.61351 0.93053 0.0
O265 O -0.07567 0.74442 0.88452 0.0
O266 O 0.91705 0.74009 0.92652 0.0
C267 C 0.0335 0.56217 0.90926 0.0
H268 H 0.29774 0.06196 0.99847 0.0
H269 H 0.01445 0.75596 1.02754 0.0
H270 H -0.07429 0.64314 0.79705 0.0
H271 H 0.2817 0.90138 0.79792 0.0
C272 C 0.42285 0.82955 0.64869 0.0
N273 N 0.57458 0.7655 0.71174 0.0
C274 C 0.54964 0.83817 0.72418 0.0
C275 C 0.54199 0.83628 0.75074 0.0
C276 C 0.56344 0.76109 0.76487 0.0
C277 C 0.58912 0.68724 0.75136 0.0
C278 C 0.59241 0.68965 0.72481 0.0
Zn279 Zn 0.58712 0.76865 0.6727 0.0
C280 C 0.416 0.54776 0.64973 0.0
N281 N 0.6077 0.75319 0.5908 0.0
C282 C 0.61752 0.82328 0.57129 0.0
C283 C 0.61676 0.65894 0.58617 0.0
C284 C 0.64476 0.63673 0.56221 0.0
C285 C 0.65789 0.70813 0.54198 0.0
C286 C 0.63969 0.80002 0.54643 0.0
Zn287 Zn 0.59053 0.77253 0.62989 0.0
O288 O 0.46013 0.81323 0.66949 0.0
C289 C 0.75387 -0.00397 0.65317 0.0
O290 O 0.46226 0.81832 0.62742 0.0
H291 H 0.60524 0.60056 0.60129 0.0
H292 H 0.53574 0.89807 0.71354 0.0
H293 H 0.60897 0.89695 0.57493 0.0
O294 O 0.71246 0.94152 0.6737 0.0
O295 O 0.71864 0.94644 0.63165 0.0
H296 H 0.61055 0.6313 0.71468 0.0
O297 O 0.72037 0.73333 0.63353 0.0
O298 O 0.71941 0.72798 0.67502 0.0
O299 O 0.45962 0.60161 0.6294 0.0
O300 O 0.45729 0.59468 0.67107 0.0
C301 C 0.76216 0.72241 0.65397 0.0
H302 H 0.5192 0.89327 0.75996 0.0
H303 H 0.60881 0.62911 0.76104 0.0
H304 H 0.65389 0.56273 0.55945 0.0
H305 H 0.64377 0.85325 0.53081 0.0
C306 C 0.85418 0.10429 0.90418 0.0
N307 N 0.03934 0.25943 0.96735 0.0
C308 C -0.064 0.25027 0.97197 0.0
C309 C 0.88579 0.22196 0.9959 0.0
C310 C -0.05585 0.20875 1.01612 0.0
C311 C 0.05434 0.22728 1.0117 0.0
C312 C 0.09971 0.24961 0.98686 0.0
Zn313 Zn 0.07563 0.27637 0.92828 0.0
C314 C 0.13558 0.11283 0.90494 0.0
N315 N 0.08437 0.29167 0.84643 0.0
C316 C -0.0095 0.27276 0.83324 0.0
C317 C 0.18238 0.31739 0.83409 0.0
C318 C 0.18832 0.32467 0.80753 0.0
C319 C 0.09154 0.30212 0.7933 0.0
C320 C -0.00837 0.27575 0.80669 0.0
Zn321 Zn 0.07475 0.27931 0.88547 0.0
O322 O 0.9068 0.14664 0.92462 0.0
C323 C 0.02494 0.45045 0.90832 0.0
O324 O 0.90229 0.14669 0.88311 0.0
H325 H 0.25633 0.33214 0.84481 0.0
H326 H 0.88912 0.26187 0.95685 0.0
H327 H 0.91368 0.25397 0.84328 0.0
O328 O 0.03559 0.40735 0.92869 0.0
O329 O 0.03009 0.40862 0.88701 0.0
H330 H 0.18197 0.25828 0.98322 0.0
O331 O 0.24578 0.40666 0.88883 0.0
O332 O 0.24939 0.40459 0.93089 0.0
O333 O 0.12269 0.15446 0.88445 0.0
O334 O 0.12135 0.14806 0.92649 0.0
C335 C 0.29954 0.4442 0.90963 0.0
H336 H 0.80258 0.21261 0.99865 0.0
H337 H 0.10359 0.22332 1.02732 0.0
H338 H 0.26834 0.34801 0.79838 0.0
H339 H 0.91374 0.25528 0.7969 0.0
C340 C 0.03957 0.56504 0.64834 0.0
N341 N 0.10256 0.78068 0.71146 0.0
C342 C 0.03 0.68285 0.72377 0.0
C343 C 0.03098 0.67716 0.75034 0.0
C344 C 0.10506 0.77407 0.76461 0.0
C345 C 0.17893 0.87377 0.75124 0.0
C346 C 0.17751 0.8746 0.72469 0.0
Zn347 Zn 0.09996 0.79009 0.67242 0.0
C348 C 0.32016 0.83878 0.64961 0.0
N349 N 0.11491 0.82519 0.59057 0.0
C350 C 0.04365 0.7658 0.5711 0.0
C351 C 0.20971 0.92803 0.58599 0.0
C352 C 0.23165 -0.02149 0.56211 0.0
C353 C 0.15918 0.92105 0.54193 0.0
C354 C 0.06641 0.81157 0.54631 0.0
Zn355 Zn 0.09577 0.78891 0.62961 0.0
O356 O 0.05593 0.61913 0.66911 0.0
C357 C 0.87303 0.72988 0.65282 0.0
O358 O 0.04995 0.61485 0.62704 0.0
H359 H 0.26854 -0.02556 0.60113 0.0
H360 H -0.02922 0.60885 0.71302 0.0
H361 H -0.0307 0.68415 0.57472 0.0
O362 O -0.07236 0.74283 0.67332 0.0
O363 O 0.92214 0.74359 0.63127 0.0
H364 H 0.2358 -0.04873 0.71468 0.0
O365 O 0.13516 -0.042 0.63333 0.0
O366 O 0.14008 -0.03751 0.67483 0.0
O367 O 0.26648 0.82843 0.62924 0.0
O368 O 0.27349 0.83406 0.67093 0.0
C369 C 0.14546 0.01053 0.6538 0.0
H370 H -0.02591 0.59723 0.75945 0.0
H371 H 0.23627 -0.04821 0.76103 0.0
H372 H 0.30613 0.06125 0.55938 0.0
H373 H 0.01211 0.76329 0.53071 0.0
C374 C 0.75722 0.71987 0.90393 0.0
N375 N 0.60428 0.75268 0.96748 0.0
C376 C 0.61513 0.65944 0.97194 0.0
C377 C 0.64326 0.63753 0.99586 0.0
C378 C 0.65454 0.70801 1.01622 0.0
C379 C 0.63453 0.79875 1.01195 0.0
C380 C 0.61235 0.82189 0.98712 0.0
Zn381 Zn 0.58659 0.77146 0.92844 0.0
C382 C 0.75112 -0.00664 0.90536 0.0
N383 N 0.57069 0.76409 0.84654 0.0
C384 C 0.54323 0.6666 0.83375 0.0
C385 C 0.59169 0.85962 0.83378 0.0
C386 C 0.58941 0.86054 0.80719 0.0
C387 C 0.5619 0.76119 0.79338 0.0
C388 C 0.53631 0.66269 0.80722 0.0
Zn389 Zn 0.58323 0.76648 0.88561 0.0
O390 O 0.71709 0.73357 0.92438 0.0
C391 C 0.41104 0.54713 0.90868 0.0
O392 O 0.7124 0.72186 0.88288 0.0
H393 H 0.61215 0.93618 0.84417 0.0
H394 H 0.60464 0.60153 0.95673 0.0
H395 H 0.52731 0.59142 0.84406 0.0
O396 O 0.45622 0.60007 0.92903 0.0
O397 O 0.45107 0.59453 0.88738 0.0
H398 H 0.60226 0.89467 0.9836 0.0
O399 O 0.45886 0.81451 0.88881 0.0
O400 O 0.4576 0.81602 0.93094 0.0
O401 O 0.71123 0.9375 0.88493 0.0
O402 O 0.7141 0.9455 0.92692 0.0
C403 C 0.41962 0.8286 0.90964 0.0
H404 H 0.65384 0.56437 0.99849 0.0
H405 H 0.63719 0.85118 1.02768 0.0
H406 H 0.6117 0.93948 0.7977 0.0
H407 H 0.51138 0.5828 0.7978 0.0
loop_
_geom_bond_atom_site_label_1
_geom_bond_atom_site_label_2
_geom_bond_distance
_geom_bond_site_symmetry_2
_ccdc_geom_bond_type
C0 O16 1.251 . S
C0 O18 1.254 . S
N1 C2 1.333 . S
N1 C6 1.307 . S
N1 Zn7 2.020 . S
C2 N1 1.333 . S
C2 C3 1.379 1_545 S
C2 H20 0.952 1_545 S
C3 C2 1.379 1_565 S
C3 C4 1.390 1_565 S
C3 H30 0.949 . S
C4 C3 1.390 1_545 S
C4 C5 1.357 . S
C5 C4 1.357 . S
C5 C6 1.370 . S
C5 H31 0.950 . S
C6 N1 1.307 . S
C6 C5 1.370 . S
C6 H24 0.948 . S
Zn7 N1 2.020 . S
Zn7 O16 2.039 1_545 S
Zn7 O22 2.034 . S
Zn7 O26 2.025 . S
Zn7 O28 2.024 . S
C8 O27 1.246 . S
C8 O28 1.249 . S
N9 C10 1.307 . S
N9 C11 1.333 . S
N9 Zn15 2.020 . S
C10 N9 1.307 . S
C10 C14 1.370 . S
C10 H21 0.948 1_545 S
C11 N9 1.333 . S
C11 C12 1.379 . S
C11 H19 0.952 . S
C12 C11 1.379 . S
C12 C13 1.390 . S
C12 H32 0.949 . S
C13 C12 1.390 . S
C13 C14 1.357 . S
C14 C10 1.370 . S
C14 C13 1.357 . S
C14 H33 0.950 1_545 S
Zn15 N9 2.020 . S
Zn15 O18 2.025 1_545 S
Zn15 O23 2.024 . S
Zn15 O25 2.039 . S
Zn15 O27 2.034 . S
O16 C0 1.251 . S
O16 Zn7 2.039 1_565 S
C17 O22 1.246 . S
C17 O23 1.249 . S
O18 C0 1.254 . S
O18 Zn15 2.025 1_565 S
H19 C11 0.952 . S
H20 C2 0.952 1_565 S
H21 C10 0.948 1_565 S
O22 Zn7 2.034 . S
O22 C17 1.246 . S
O23 Zn15 2.024 . S
O23 C17 1.249 . S
H24 C6 0.948 . S
O25 Zn15 2.039 . S
O25 C29 1.251 . S
O26 Zn7 2.025 . S
O26 C29 1.254 . S
O27 C8 1.246 . S
O27 Zn15 2.034 . S
O28 Zn7 2.024 . S
O28 C8 1.249 . S
C29 O25 1.251 . S
C29 O26 1.254 . S
H30 C3 0.949 . S
H31 C5 0.950 . S
H32 C12 0.949 . S
H33 C14 0.950 1_565 S
C34 O50 1.251 . S
C34 O52 1.254 . S
N35 C36 1.333 . S
N35 C40 1.307 . S
N35 Zn41 2.020 . S
C36 N35 1.333 . S
C36 C37 1.379 . S
C36 H54 0.952 . S
C37 C36 1.379 . S
C37 C38 1.390 . S
C37 H64 0.949 . S
C38 C37 1.390 . S
C38 C39 1.357 . S
C39 C38 1.357 . S
C39 C40 1.370 . S
C39 H65 0.950 . S
C40 N35 1.307 . S
C40 C39 1.370 . S
C40 H58 0.948 . S
Zn41 N35 2.020 . S
Zn41 O50 2.039 . S
Zn41 O56 2.034 . S
Zn41 O60 2.025 . S
Zn41 O62 2.024 . S
C42 O61 1.246 . S
C42 O62 1.249 . S
N43 C44 1.307 . S
N43 C45 1.333 . S
N43 Zn49 2.020 . S
C44 N43 1.307 . S
C44 C48 1.370 . S
C44 H55 0.948 . S
C45 N43 1.333 . S
C45 C46 1.379 . S
C45 H53 0.952 . S
C46 C45 1.379 . S
C46 C47 1.390 . S
C46 H66 0.949 . S
C47 C46 1.390 . S
C47 C48 1.357 . S
C48 C44 1.370 . S
C48 C47 1.357 . S
C48 H67 0.950 . S
Zn49 N43 2.020 . S
Zn49 O52 2.025 . S
Zn49 O57 2.024 . S
Zn49 O59 2.039 . S
Zn49 O61 2.034 . S
O50 C34 1.251 . S
O50 Zn41 2.039 . S
C51 O56 1.246 1_455 S
C51 O57 1.249 1_455 S
O52 C34 1.254 . S
O52 Zn49 2.025 . S
H53 C45 0.952 . S
H54 C36 0.952 . S
H55 C44 0.948 . S
O56 Zn41 2.034 . S
O56 C51 1.246 1_655 S
O57 Zn49 2.024 . S
O57 C51 1.249 1_655 S
H58 C40 0.948 . S
O59 Zn49 2.039 . S
O59 C63 1.251 . S
O60 Zn41 2.025 . S
O60 C63 1.254 . S
O61 C42 1.246 . S
O61 Zn49 2.034 . S
O62 Zn41 2.024 . S
O62 C42 1.249 . S
C63 O59 1.251 . S
C63 O60 1.254 . S
H64 C37 0.949 . S
H65 C39 0.950 . S
H66 C46 0.949 . S
H67 C48 0.950 . S
C68 O84 1.251 . S
C68 O86 1.254 . S
N69 C70 1.333 . S
N69 C74 1.307 . S
N69 Zn75 2.020 . S
C70 N69 1.333 . S
C70 C71 1.379 1_655 S
C70 H88 0.952 1_655 S
C71 C70 1.379 1_455 S
C71 C72 1.390 1_455 S
C71 H98 0.949 . S
C72 C71 1.390 1_655 S
C72 C73 1.357 . S
C73 C72 1.357 . S
C73 C74 1.370 . S
C73 H99 0.950 . S
C74 N69 1.307 . S
C74 C73 1.370 . S
C74 H92 0.948 . S
Zn75 N69 2.020 . S
Zn75 O84 2.039 1_655 S
Zn75 O90 2.034 . S
Zn75 O94 2.025 . S
Zn75 O96 2.024 1_545 S
C76 O95 1.246 1_565 S
C76 O96 1.249 . S
N77 C78 1.307 . S
N77 C79 1.333 . S
N77 Zn83 2.020 . S
C78 N77 1.307 . S
C78 C82 1.370 . S
C78 H89 0.948 1_655 S
C79 N77 1.333 . S
C79 C80 1.379 . S
C79 H87 0.952 . S
C80 C79 1.379 . S
C80 C81 1.390 . S
C80 H100 0.949 . S
C81 C80 1.390 . S
C81 C82 1.357 . S
C82 C78 1.370 . S
C82 C81 1.357 . S
C82 H101 0.950 . S
Zn83 N77 2.020 . S
Zn83 O86 2.025 1_655 S
Zn83 O91 2.024 . S
Zn83 O93 2.039 . S
Zn83 O95 2.034 . S
O84 C68 1.251 . S
O84 Zn75 2.039 1_455 S
C85 O90 1.246 . S
C85 O91 1.249 . S
O86 C68 1.254 . S
O86 Zn83 2.025 1_455 S
H87 C79 0.952 . S
H88 C70 0.952 1_455 S
H89 C78 0.948 1_455 S
O90 Zn75 2.034 . S
O90 C85 1.246 . S
O91 Zn83 2.024 . S
O91 C85 1.249 . S
H92 C74 0.948 . S
O93 Zn83 2.039 . S
O93 C97 1.251 . S
O94 Zn75 2.025 . S
O94 C97 1.254 . S
O95 C76 1.246 1_545 S
O95 Zn83 2.034 . S
O96 Zn75 2.024 1_565 S
O96 C76 1.249 . S
C97 O93 1.251 . S
C97 O94 1.254 . S
H98 C71 0.949 . S
H99 C73 0.950 . S
H100 C80 0.949 . S
H101 C82 0.950 . S
C102 O118 1.251 . S
C102 O120 1.254 . S
N103 C104 1.333 . S
N103 C108 1.307 . S
N103 Zn109 2.020 . S
C104 N103 1.333 . S
C104 C105 1.379 . S
C104 H122 0.952 . S
C105 C104 1.379 . S
C105 C106 1.390 . S
C105 H132 0.949 . S
C106 C105 1.390 . S
C106 C107 1.357 . S
C107 C106 1.357 . S
C107 C108 1.370 . S
C107 H133 0.950 1_545 S
C108 N103 1.307 . S
C108 C107 1.370 . S
C108 H126 0.948 1_545 S
Zn109 N103 2.020 . S
Zn109 O118 2.039 . S
Zn109 O124 2.034 . S
Zn109 O128 2.025 1_545 S
Zn109 O130 2.024 . S
C110 O129 1.246 . S
C110 O130 1.249 . S
N111 C112 1.307 . S
N111 C113 1.333 . S
N111 Zn117 2.020 . S
C112 N111 1.307 . S
C112 C116 1.370 . S
C112 H123 0.948 . S
C113 N111 1.333 . S
C113 C114 1.379 1_545 S
C113 H121 0.952 1_545 S
C114 C113 1.379 1_565 S
C114 C115 1.390 1_565 S
C114 H134 0.949 . S
C115 C114 1.390 1_545 S
C115 C116 1.357 . S
C116 C112 1.370 . S
C116 C115 1.357 . S
C116 H135 0.950 . S
Zn117 N111 2.020 . S
Zn117 O120 2.025 . S
Zn117 O125 2.024 . S
Zn117 O127 2.039 1_545 S
Zn117 O129 2.034 . S
O118 C102 1.251 . S
O118 Zn109 2.039 . S
C119 O124 1.246 . S
C119 O125 1.249 . S
O120 C102 1.254 . S
O120 Zn117 2.025 . S
H121 C113 0.952 1_565 S
H122 C104 0.952 . S
H123 C112 0.948 . S
O124 Zn109 2.034 . S
O124 C119 1.246 . S
O125 Zn117 2.024 . S
O125 C119 1.249 . S
H126 C108 0.948 1_565 S
O127 Zn117 2.039 1_565 S
O127 C131 1.251 . S
O128 Zn109 2.025 1_565 S
O128 C131 1.254 . S
O129 C110 1.246 . S
O129 Zn117 2.034 . S
O130 Zn109 2.024 . S
O130 C110 1.249 . S
C131 O127 1.251 . S
C131 O128 1.254 . S
H132 C105 0.949 . S
H133 C107 0.950 1_565 S
H134 C114 0.949 . S
H135 C116 0.950 . S
C136 O152 1.251 . S
C136 O154 1.254 . S
N137 C138 1.333 . S
N137 C142 1.307 . S
N137 Zn143 2.020 . S
C138 N137 1.333 . S
C138 C139 1.379 . S
C138 H156 0.952 . S
C139 C138 1.379 . S
C139 C140 1.390 . S
C139 H166 0.949 . S
C140 C139 1.390 . S
C140 C141 1.357 . S
C141 C140 1.357 . S
C141 C142 1.370 . S
C141 H167 0.950 . S
C142 N137 1.307 . S
C142 C141 1.370 . S
C142 H160 0.948 . S
Zn143 N137 2.020 . S
Zn143 O152 2.039 . S
Zn143 O158 2.034 . S
Zn143 O162 2.025 . S
Zn143 O164 2.024 . S
C144 O163 1.246 1_455 S
C144 O164 1.249 1_455 S
N145 C146 1.307 . S
N145 C147 1.333 . S
N145 Zn151 2.020 . S
C146 N145 1.307 . S
C146 C150 1.370 . S
C146 H157 0.948 . S
C147 N145 1.333 . S
C147 C148 1.379 . S
C147 H155 0.952 . S
C148 C147 1.379 . S
C148 C149 1.390 . S
C148 H168 0.949 . S
C149 C148 1.390 . S
C149 C150 1.357 . S
C150 C146 1.370 . S
C150 C149 1.357 . S
C150 H169 0.950 . S
Zn151 N145 2.020 . S
Zn151 O154 2.025 . S
Zn151 O159 2.024 . S
Zn151 O161 2.039 . S
Zn151 O163 2.034 . S
O152 C136 1.251 . S
O152 Zn143 2.039 . S
C153 O158 1.246 . S
C153 O159 1.249 . S
O154 C136 1.254 . S
O154 Zn151 2.025 . S
H155 C147 0.952 . S
H156 C138 0.952 . S
H157 C146 0.948 . S
O158 Zn143 2.034 . S
O158 C153 1.246 . S
O159 Zn151 2.024 . S
O159 C153 1.249 . S
H160 C142 0.948 . S
O161 Zn151 2.039 . S
O161 C165 1.251 . S
O162 Zn143 2.025 . S
O162 C165 1.254 . S
O163 C144 1.246 1_655 S
O163 Zn151 2.034 . S
O164 Zn143 2.024 . S
O164 C144 1.249 1_655 S
C165 O161 1.251 . S
C165 O162 1.254 . S
H166 C139 0.949 . S
H167 C141 0.950 . S
H168 C148 0.949 . S
H169 C150 0.950 . S
C170 O186 1.251 . S
C170 O188 1.254 . S
N171 C172 1.333 . S
N171 C176 1.307 . S
N171 Zn177 2.020 . S
C172 N171 1.333 . S
C172 C173 1.379 . S
C172 H190 0.952 . S
C173 C172 1.379 . S
C173 C174 1.390 . S
C173 H200 0.949 . S
C174 C173 1.390 . S
C174 C175 1.357 . S
C175 C174 1.357 . S
C175 C176 1.370 . S
C175 H201 0.950 . S
C176 N171 1.307 . S
C176 C175 1.370 . S
C176 H194 0.948 1_655 S
Zn177 N171 2.020 . S
Zn177 O186 2.039 . S
Zn177 O192 2.034 . S
Zn177 O196 2.025 1_655 S
Zn177 O198 2.024 . S
C178 O197 1.246 . S
C178 O198 1.249 . S
N179 C180 1.307 . S
N179 C181 1.333 . S
N179 Zn185 2.020 . S
C180 N179 1.307 . S
C180 C184 1.370 . S
C180 H191 0.948 . S
C181 N179 1.333 . S
C181 C182 1.379 1_655 S
C181 H189 0.952 1_655 S
C182 C181 1.379 1_455 S
C182 C183 1.390 1_455 S
C182 H202 0.949 . S
C183 C182 1.390 1_655 S
C183 C184 1.357 . S
C184 C180 1.370 . S
C184 C183 1.357 . S
C184 H203 0.950 . S
Zn185 N179 2.020 . S
Zn185 O188 2.025 . S
Zn185 O193 2.024 1_545 S
Zn185 O195 2.039 1_655 S
Zn185 O197 2.034 . S
O186 C170 1.251 . S
O186 Zn177 2.039 . S
C187 O192 1.246 1_565 S
C187 O193 1.249 . S
O188 C170 1.254 . S
O188 Zn185 2.025 . S
H189 C181 0.952 1_455 S
H190 C172 0.952 . S
H191 C180 0.948 . S
O192 Zn177 2.034 . S
O192 C187 1.246 1_545 S
O193 Zn185 2.024 1_565 S
O193 C187 1.249 . S
H194 C176 0.948 1_455 S
O195 Zn185 2.039 1_455 S
O195 C199 1.251 . S
O196 Zn177 2.025 1_455 S
O196 C199 1.254 . S
O197 C178 1.246 . S
O197 Zn185 2.034 . S
O198 Zn177 2.024 . S
O198 C178 1.249 . S
C199 O195 1.251 . S
C199 O196 1.254 . S
H200 C173 0.949 . S
H201 C175 0.950 . S
H202 C182 0.949 . S
H203 C184 0.950 . S
C204 O220 1.251 . S
C204 O222 1.254 . S
N205 C206 1.333 . S
N205 C210 1.307 . S
N205 Zn211 2.020 . S
C206 N205 1.333 . S
C206 C207 1.379 . S
C206 H224 0.952 . S
C207 C206 1.379 . S
C207 C208 1.390 . S
C207 H234 0.949 . S
C208 C207 1.390 . S
C208 C209 1.357 . S
C209 C208 1.357 . S
C209 C210 1.370 . S
C209 H235 0.950 1_455 S
C210 N205 1.307 . S
C210 C209 1.370 . S
C210 H228 0.948 1_455 S
Zn211 N205 2.020 . S
Zn211 O220 2.039 . S
Zn211 O226 2.034 . S
Zn211 O230 2.025 1_455 S
Zn211 O232 2.024 . S
C212 O231 1.246 . S
C212 O232 1.249 . S
N213 C214 1.307 . S
N213 C215 1.333 . S
N213 Zn219 2.020 . S
C214 N213 1.307 . S
C214 C218 1.370 . S
C214 H225 0.948 . S
C215 N213 1.333 . S
C215 C216 1.379 1_455 S
C215 H223 0.952 1_455 S
C216 C215 1.379 1_655 S
C216 C217 1.390 1_655 S
C216 H236 0.949 . S
C217 C216 1.390 1_455 S
C217 C218 1.357 . S
C218 C214 1.370 . S
C218 C217 1.357 . S
C218 H237 0.950 . S
Zn219 N213 2.020 . S
Zn219 O222 2.025 . S
Zn219 O227 2.024 . S
Zn219 O229 2.039 1_455 S
Zn219 O231 2.034 . S
O220 C204 1.251 . S
O220 Zn211 2.039 . S
C221 O226 1.246 . S
C221 O227 1.249 . S
O222 C204 1.254 . S
O222 Zn219 2.025 . S
H223 C215 0.952 1_655 S
H224 C206 0.952 . S
H225 C214 0.948 . S
O226 Zn211 2.034 . S
O226 C221 1.246 . S
O227 Zn219 2.024 . S
O227 C221 1.249 . S
H228 C210 0.948 1_655 S
O229 Zn219 2.039 1_655 S
O229 C233 1.251 . S
O230 Zn211 2.025 1_655 S
O230 C233 1.254 . S
O231 C212 1.246 . S
O231 Zn219 2.034 . S
O232 Zn211 2.024 . S
O232 C212 1.249 . S
C233 O229 1.251 . S
C233 O230 1.254 . S
H234 C207 0.949 . S
H235 C209 0.950 1_655 S
H236 C216 0.949 . S
H237 C218 0.950 . S
C238 O254 1.251 . S
C238 O256 1.254 . S
N239 C240 1.333 . S
N239 C244 1.307 . S
N239 Zn245 2.020 . S
C240 N239 1.333 . S
C240 C241 1.379 1_565 S
C240 H258 0.952 1_565 S
C241 C240 1.379 1_545 S
C241 C242 1.390 1_545 S
C241 H268 0.949 . S
C242 C241 1.390 1_565 S
C242 C243 1.357 . S
C243 C242 1.357 . S
C243 C244 1.370 . S
C243 H269 0.950 . S
C244 N239 1.307 . S
C244 C243 1.370 . S
C244 H262 0.948 . S
Zn245 N239 2.020 . S
Zn245 O254 2.039 1_565 S
Zn245 O260 2.034 . S
Zn245 O264 2.025 . S
Zn245 O266 2.024 1_455 S
C246 O265 1.246 1_655 S
C246 O266 1.249 . S
N247 C248 1.307 . S
N247 C249 1.333 . S
N247 Zn253 2.020 . S
C248 N247 1.307 . S
C248 C252 1.370 . S
C248 H259 0.948 1_565 S
C249 N247 1.333 . S
C249 C250 1.379 . S
C249 H257 0.952 . S
C250 C249 1.379 . S
C250 C251 1.390 . S
C250 H270 0.949 . S
C251 C250 1.390 . S
C251 C252 1.357 . S
C252 C248 1.370 . S
C252 C251 1.357 . S
C252 H271 0.950 . S
Zn253 N247 2.020 . S
Zn253 O256 2.025 1_565 S
Zn253 O261 2.024 . S
Zn253 O263 2.039 . S
Zn253 O265 2.034 . S
O254 C238 1.251 . S
O254 Zn245 2.039 1_545 S
C255 O260 1.246 . S
C255 O261 1.249 . S
O256 C238 1.254 . S
O256 Zn253 2.025 1_545 S
H257 C249 0.952 . S
H258 C240 0.952 1_545 S
H259 C248 0.948 1_545 S
O260 Zn245 2.034 . S
O260 C255 1.246 . S
O261 Zn253 2.024 . S
O261 C255 1.249 . S
H262 C244 0.948 . S
O263 Zn253 2.039 . S
O263 C267 1.251 . S
O264 Zn245 2.025 . S
O264 C267 1.254 . S
O265 C246 1.246 1_455 S
O265 Zn253 2.034 . S
O266 Zn245 2.024 1_655 S
O266 C246 1.249 . S
C267 O263 1.251 . S
C267 O264 1.254 . S
H268 C241 0.949 . S
H269 C243 0.950 . S
H270 C250 0.949 . S
H271 C252 0.950 . S
C272 O288 1.251 . S
C272 O290 1.254 . S
N273 C274 1.333 . S
N273 C278 1.307 . S
N273 Zn279 2.020 . S
C274 N273 1.333 . S
C274 C275 1.379 . S
C274 H292 0.952 . S
C275 C274 1.379 . S
C275 C276 1.390 . S
C275 H302 0.949 . S
C276 C275 1.390 . S
C276 C277 1.357 . S
C277 C276 1.357 . S
C277 C278 1.370 . S
C277 H303 0.950 . S
C278 N273 1.307 . S
C278 C277 1.370 . S
C278 H296 0.948 . S
Zn279 N273 2.020 . S
Zn279 O288 2.039 . S
Zn279 O294 2.034 . S
Zn279 O298 2.025 . S
Zn279 O300 2.024 . S
C280 O299 1.246 . S
C280 O300 1.249 . S
N281 C282 1.307 . S
N281 C283 1.333 . S
N281 Zn287 2.020 . S
C282 N281 1.307 . S
C282 C286 1.370 . S
C282 H293 0.948 . S
C283 N281 1.333 . S
C283 C284 1.379 . S
C283 H291 0.952 . S
C284 C283 1.379 . S
C284 C285 1.390 . S
C284 H304 0.949 . S
C285 C284 1.390 . S
C285 C286 1.357 . S
C286 C282 1.370 . S
C286 C285 1.357 . S
C286 H305 0.950 . S
Zn287 N281 2.020 . S
Zn287 O290 2.025 . S
Zn287 O295 2.024 . S
Zn287 O297 2.039 . S
Zn287 O299 2.034 . S
O288 C272 1.251 . S
O288 Zn279 2.039 . S
C289 O294 1.246 1_545 S
C289 O295 1.249 1_545 S
O290 C272 1.254 . S
O290 Zn287 2.025 . S
H291 C283 0.952 . S
H292 C274 0.952 . S
H293 C282 0.948 . S
O294 Zn279 2.034 . S
O294 C289 1.246 1_565 S
O295 Zn287 2.024 . S
O295 C289 1.249 1_565 S
H296 C278 0.948 . S
O297 Zn287 2.039 . S
O297 C301 1.251 . S
O298 Zn279 2.025 . S
O298 C301 1.254 . S
O299 C280 1.246 . S
O299 Zn287 2.034 . S
O300 Zn279 2.024 . S
O300 C280 1.249 . S
C301 O297 1.251 . S
C301 O298 1.254 . S
H302 C275 0.949 . S
H303 C277 0.950 . S
H304 C284 0.949 . S
H305 C286 0.950 . S
C306 O322 1.251 . S
C306 O324 1.254 . S
N307 C308 1.333 . S
N307 C312 1.307 . S
N307 Zn313 2.020 . S
C308 N307 1.333 . S
C308 C309 1.379 1_455 S
C308 H326 0.952 1_455 S
C309 C308 1.379 1_655 S
C309 C310 1.390 1_655 S
C309 H336 0.949 . S
C310 C309 1.390 1_455 S
C310 C311 1.357 . S
C311 C310 1.357 . S
C311 C312 1.370 . S
C311 H337 0.950 . S
C312 N307 1.307 . S
C312 C311 1.370 . S
C312 H330 0.948 . S
Zn313 N307 2.020 . S
Zn313 O322 2.039 1_455 S
Zn313 O328 2.034 . S
Zn313 O332 2.025 . S
Zn313 O334 2.024 . S
C314 O333 1.246 . S
C314 O334 1.249 . S
N315 C316 1.307 . S
N315 C317 1.333 . S
N315 Zn321 2.020 . S
C316 N315 1.307 . S
C316 C320 1.370 . S
C316 H327 0.948 1_455 S
C317 N315 1.333 . S
C317 C318 1.379 . S
C317 H325 0.952 . S
C318 C317 1.379 . S
C318 C319 1.390 . S
C318 H338 0.949 . S
C319 C318 1.390 . S
C319 C320 1.357 . S
C320 C316 1.370 . S
C320 C319 1.357 . S
C320 H339 0.950 1_455 S
Zn321 N315 2.020 . S
Zn321 O324 2.025 1_455 S
Zn321 O329 2.024 . S
Zn321 O331 2.039 . S
Zn321 O333 2.034 . S
O322 C306 1.251 . S
O322 Zn313 2.039 1_655 S
C323 O328 1.246 . S
C323 O329 1.249 . S
O324 C306 1.254 . S
O324 Zn321 2.025 1_655 S
H325 C317 0.952 . S
H326 C308 0.952 1_655 S
H327 C316 0.948 1_655 S
O328 Zn313 2.034 . S
O328 C323 1.246 . S
O329 Zn321 2.024 . S
O329 C323 1.249 . S
H330 C312 0.948 . S
O331 Zn321 2.039 . S
O331 C335 1.251 . S
O332 Zn313 2.025 . S
O332 C335 1.254 . S
O333 C314 1.246 . S
O333 Zn321 2.034 . S
O334 Zn313 2.024 . S
O334 C314 1.249 . S
C335 O331 1.251 . S
C335 O332 1.254 . S
H336 C309 0.949 . S
H337 C311 0.950 . S
H338 C318 0.949 . S
H339 C320 0.950 1_655 S
C340 O356 1.251 . S
C340 O358 1.254 . S
N341 C342 1.333 . S
N341 C346 1.307 . S
N341 Zn347 2.020 . S
C342 N341 1.333 . S
C342 C343 1.379 . S
C342 H360 0.952 . S
C343 C342 1.379 . S
C343 C344 1.390 . S
C343 H370 0.949 . S
C344 C343 1.390 . S
C344 C345 1.357 . S
C345 C344 1.357 . S
C345 C346 1.370 . S
C345 H371 0.950 . S
C346 N341 1.307 . S
C346 C345 1.370 . S
C346 H364 0.948 1_565 S
Zn347 N341 2.020 . S
Zn347 O356 2.039 . S
Zn347 O362 2.034 . S
Zn347 O366 2.025 1_565 S
Zn347 O368 2.024 . S
C348 O367 1.246 . S
C348 O368 1.249 . S
N349 C350 1.307 . S
N349 C351 1.333 . S
N349 Zn355 2.020 . S
C350 N349 1.307 . S
C350 C354 1.370 . S
C350 H361 0.948 . S
C351 N349 1.333 . S
C351 C352 1.379 1_565 S
C351 H359 0.952 1_565 S
C352 C351 1.379 1_545 S
C352 C353 1.390 1_545 S
C352 H372 0.949 . S
C353 C352 1.390 1_565 S
C353 C354 1.357 . S
C354 C350 1.370 . S
C354 C353 1.357 . S
C354 H373 0.950 . S
Zn355 N349 2.020 . S
Zn355 O358 2.025 . S
Zn355 O363 2.024 1_455 S
Zn355 O365 2.039 1_565 S
Zn355 O367 2.034 . S
O356 C340 1.251 . S
O356 Zn347 2.039 . S
C357 O362 1.246 1_655 S
C357 O363 1.249 . S
O358 C340 1.254 . S
O358 Zn355 2.025 . S
H359 C351 0.952 1_545 S
H360 C342 0.952 . S
H361 C350 0.948 . S
O362 Zn347 2.034 . S
O362 C357 1.246 1_455 S
O363 Zn355 2.024 1_655 S
O363 C357 1.249 . S
H364 C346 0.948 1_545 S
O365 Zn355 2.039 1_545 S
O365 C369 1.251 . S
O366 Zn347 2.025 1_545 S
O366 C369 1.254 . S
O367 C348 1.246 . S
O367 Zn355 2.034 . S
O368 Zn347 2.024 . S
O368 C348 1.249 . S
C369 O365 1.251 . S
C369 O366 1.254 . S
H370 C343 0.949 . S
H371 C345 0.950 . S
H372 C352 0.949 . S
H373 C354 0.950 . S
C374 O390 1.251 . S
C374 O392 1.254 . S
N375 C376 1.333 . S
N375 C380 1.307 . S
N375 Zn381 2.020 . S
C376 N375 1.333 . S
C376 C377 1.379 . S
C376 H394 0.952 . S
C377 C376 1.379 . S
C377 C378 1.390 . S
C377 H404 0.949 . S
C378 C377 1.390 . S
C378 C379 1.357 . S
C379 C378 1.357 . S
C379 C380 1.370 . S
C379 H405 0.950 . S
C380 N375 1.307 . S
C380 C379 1.370 . S
C380 H398 0.948 . S
Zn381 N375 2.020 . S
Zn381 O390 2.039 . S
Zn381 O396 2.034 . S
Zn381 O400 2.025 . S
Zn381 O402 2.024 . S
C382 O401 1.246 1_545 S
C382 O402 1.249 1_545 S
N383 C384 1.307 . S
N383 C385 1.333 . S
N383 Zn389 2.020 . S
C384 N383 1.307 . S
C384 C388 1.370 . S
C384 H395 0.948 . S
C385 N383 1.333 . S
C385 C386 1.379 . S
C385 H393 0.952 . S
C386 C385 1.379 . S
C386 C387 1.390 . S
C386 H406 0.949 . S
C387 C386 1.390 . S
C387 C388 1.357 . S
C388 C384 1.370 . S
C388 C387 1.357 . S
C388 H407 0.950 . S
Zn389 N383 2.020 . S
Zn389 O392 2.025 . S
Zn389 O397 2.024 . S
Zn389 O399 2.039 . S
Zn389 O401 2.034 . S
O390 C374 1.251 . S
O390 Zn381 2.039 . S
C391 O396 1.246 . S
C391 O397 1.249 . S
O392 C374 1.254 . S
O392 Zn389 2.025 . S
H393 C385 0.952 . S
H394 C376 0.952 . S
H395 C384 0.948 . S
O396 Zn381 2.034 . S
O396 C391 1.246 . S
O397 Zn389 2.024 . S
O397 C391 1.249 . S
H398 C380 0.948 . S
O399 Zn389 2.039 . S
O399 C403 1.251 . S
O400 Zn381 2.025 . S
O400 C403 1.254 . S
O401 C382 1.246 1_565 S
O401 Zn389 2.034 . S
O402 Zn381 2.024 . S
O402 C382 1.249 1_565 S
C403 O399 1.251 . S
C403 O400 1.254 . S
H404 C377 0.949 . S
H405 C379 0.950 . S
H406 C386 0.949 . S
H407 C388 0.950 . S
C68 C8 1.108 . S
C131 C51 1.109 . S
C76 C136 1.108 . S
C119 C199 1.107 . S
C0 C144 1.108 . S
C63 C187 1.108 . S
C369 C221 1.107 . S
C246 C374 1.108 . S
C289 C233 1.109 . S
C314 C238 1.108 . S
C357 C301 1.108 . S
C306 C382 1.108 . S
C106 C13 1.582 . S
C38 C149 1.582 . S
C81 C174 1.582 . S
C208 C319 1.582 . S
C251 C344 1.582 . S
C276 C387 1.582 . S
C242 C4 2.357 1_566 S
C47 C285 2.356 . S
C310 C72 2.357 1_456 S
C115 C353 2.357 1_545 S
C140 C378 2.356 1_554 S
C217 C183 2.357 1_455 S
C97 C17 1.346 . S
C42 C102 1.346 . S
C85 C165 1.346 . S
C110 C170 1.346 . S
C29 C153 1.346 . S
C34 C178 1.346 . S
C340 C212 1.346 . S
C255 C403 1.346 . S
C280 C204 1.346 . S
C267 C323 1.346 . S
C348 C272 1.346 . S
C391 C335 1.346 . S
