# Generated by pormake.
# Topology vmv, (8)-cn, num edge types: 1
# Building blocks:
#     Node 0, Type 0, BuildingBlock: TAGTUT_clean_sbu_1, # of connection points: 8
#     Node 1, Type 0, BuildingBlock: TAGTUT_clean_sbu_1, # of connection points: 8
#     Node 2, Type 0, BuildingBlock: TAGTUT_clean_sbu_1, # of connection points: 8
#     Node 3, Type 0, BuildingBlock: TAGTUT_clean_sbu_1, # of connection points: 8
#     Edge 4, Type (0, 0), BuildingBlock: UVAHIK_clean_linker_0, # of connection points: 2
#     Edge 5, Type (0, 0), BuildingBlock: UVAHIK_clean_linker_0, # of connection points: 2
#     Edge 6, Type (0, 0), BuildingBlock: UVAHIK_clean_linker_0, # of connection points: 2
#     Edge 7, Type (0, 0), BuildingBlock: UVAHIK_clean_linker_0, # of connection points: 2
#     Edge 8, Type (0, 0), BuildingBlock: UVAHIK_clean_linker_0, # of connection points: 2
#     Edge 9, Type (0, 0), BuildingBlock: UVAHIK_clean_linker_0, # of connection points: 2
#     Edge 10, Type (0, 0), BuildingBlock: UVAHIK_clean_linker_0, # of connection points: 2
#     Edge 11, Type (0, 0), BuildingBlock: UVAHIK_clean_linker_0, # of connection points: 2
#     Edge 12, Type (0, 0), BuildingBlock: UVAHIK_clean_linker_0, # of connection points: 2
#     Edge 13, Type (0, 0), BuildingBlock: UVAHIK_clean_linker_0, # of connection points: 2
#     Edge 14, Type (0, 0), BuildingBlock: UVAHIK_clean_linker_0, # of connection points: 2
#     Edge 15, Type (0, 0), BuildingBlock: UVAHIK_clean_linker_0, # of connection points: 2
#     Edge 16, Type (0, 0), BuildingBlock: UVAHIK_clean_linker_0, # of connection points: 2
#     Edge 17, Type (0, 0), BuildingBlock: UVAHIK_clean_linker_0, # of connection points: 2
#     Edge 18, Type (0, 0), BuildingBlock: UVAHIK_clean_linker_0, # of connection points: 2
#     Edge 19, Type (0, 0), BuildingBlock: UVAHIK_clean_linker_0, # of connection points: 2
# Relax obj value: 0.279
# Max RMSD: 0.288
# Mean RMSD: 0.280
data_MOF--net-vmv--node1-TAGTUT_clean_sbu_1--edge1-UVAHIK_clean_linker_0
_symmetry_space_group_name_H-M    P1
_symmetry_Int_Tables_number       1
_symmetry_cell_setting            triclinic
loop_
_symmetry_equiv_pos_as_xyz
'x, y, z'
_cell_length_a     20.58192
_cell_length_b     39.055294
_cell_length_c     40.071138
_cell_angle_alpha  90.651084
_cell_angle_beta   105.09881
_cell_angle_gamma 88.233522
loop_
_atom_site_label
_atom_site_type_symbol
_atom_site_fract_x
_atom_site_fract_y
_atom_site_fract_z
_atom_type_partial_charge
C0 C 0.33326 0.21883 0.77475 0.0
C1 C 0.48552 0.29397 0.78302 0.0
C2 C 0.29883 0.39188 0.75706 0.0
Mg3 Mg 0.39047 0.2582 0.72201 0.0
O4 O 0.31855 0.28816 0.72594 0.0
Mg5 Mg 0.31823 0.30647 0.7726 0.0
Mg6 Mg 0.31178 0.33184 0.70068 0.0
O7 O 0.30582 0.37501 0.67391 0.0
Mg8 Mg 0.24079 0.40855 0.67631 0.0
Mg9 Mg 0.29917 0.3538 0.62729 0.0
C10 C 0.3272 0.27455 0.64247 0.0
C11 C 0.45049 0.33975 0.67686 0.0
O12 O 0.31297 0.24713 0.78646 0.0
O13 O 0.36329 0.21802 0.75049 0.0
O14 O 0.43178 0.30335 0.79113 0.0
O15 O 0.48397 0.27745 0.75509 0.0
O16 O 0.36515 0.25419 0.66481 0.0
O17 O 0.29858 0.30145 0.65135 0.0
C18 C 0.16998 0.32259 0.72209 0.0
O19 O 0.19779 0.33182 0.69852 0.0
O20 O 0.20507 0.31172 0.75147 0.0
O21 O 0.3026 0.40818 0.60822 0.0
O22 O 0.2717 0.44627 0.64432 0.0
O23 O 0.18359 0.36004 0.60935 0.0
C24 C 0.29203 0.43896 0.61733 0.0
O25 O 0.14554 0.39026 0.64814 0.0
O26 O 0.26513 0.41113 0.73234 0.0
C27 C 0.13504 0.37412 0.61947 0.0
O28 O 0.32514 0.36264 0.75127 0.0
O29 O 0.425 0.33206 0.70181 0.0
O30 O 0.4133 0.34864 0.64713 0.0
C31 C 0.07084 0.73617 0.72801 0.0
C32 C 0.26972 0.72198 0.80012 0.0
C33 C 0.17571 0.76351 0.9037 0.0
Mg34 Mg 0.18696 0.78459 0.76365 0.0
O35 O 0.13194 0.78462 0.79518 0.0
Mg36 Mg 0.11995 0.74047 0.81708 0.0
Mg37 Mg 0.16374 0.81385 0.83629 0.0
O38 O 0.19983 0.84457 0.87648 0.0
Mg39 Mg 0.17323 0.84513 0.91716 0.0
Mg40 Mg 0.19326 0.88857 0.8504 0.0
C41 C 0.17201 0.86556 0.77555 0.0
C42 C 0.31303 0.83882 0.83568 0.0
O43 O 0.0655 0.72542 0.75772 0.0
O44 O 0.114 0.75826 0.72533 0.0
O45 O 0.2193 0.71749 0.81219 0.0
O46 O 0.27247 0.74788 0.78128 0.0
O47 O 0.1947 0.84142 0.75898 0.0
O48 O 0.14751 0.85933 0.80102 0.0
C49 C 0.0089 0.79397 0.83348 0.0
O50 O 0.05283 0.8174 0.84 0.0
O51 O 0.02312 0.76397 0.82401 0.0
O52 O 0.24673 0.91404 0.90103 0.0
O53 O 0.2482 0.88039 0.94638 0.0
O54 O 0.09062 0.90431 0.86124 0.0
C55 C 0.26539 0.90748 0.93336 0.0
O56 O 0.07681 0.86985 0.90296 0.0
O57 O 0.17606 0.7899 0.92324 0.0
C58 C 0.05581 0.89394 0.88126 0.0
O59 O 0.17609 0.76614 0.87154 0.0
O60 O 0.27455 0.81293 0.83268 0.0
O61 O 0.29292 0.86912 0.84176 0.0
C62 C 0.66657 0.57474 0.40927 0.0
C63 C 0.84238 0.62471 0.40247 0.0
C64 C 0.67677 0.73627 0.37918 0.0
Mg65 Mg 0.72333 0.59462 0.34837 0.0
O66 O 0.67336 0.63451 0.35028 0.0
Mg67 Mg 0.68645 0.6579 0.39633 0.0
Mg68 Mg 0.67626 0.67564 0.32176 0.0
O69 O 0.6765 0.71751 0.29467 0.0
Mg70 Mg 0.61359 0.75286 0.29863 0.0
Mg71 Mg 0.67296 0.69669 0.24833 0.0
C72 C 0.67431 0.61206 0.2672 0.0
C73 C 0.81859 0.67571 0.29946 0.0
O74 O 0.66884 0.60646 0.41772 0.0
O75 O 0.68059 0.56347 0.38168 0.0
O76 O 0.80047 0.64418 0.41299 0.0
O77 O 0.8239 0.60617 0.37542 0.0
O78 O 0.69841 0.59129 0.29237 0.0
O79 O 0.65636 0.64332 0.27196 0.0
C80 C 0.53754 0.67779 0.34675 0.0
O81 O 0.56342 0.68189 0.32114 0.0
O82 O 0.57391 0.66941 0.37682 0.0
O83 O 0.69125 0.75381 0.2329 0.0
O84 O 0.65719 0.78825 0.27133 0.0
O85 O 0.5603 0.70594 0.22895 0.0
C86 C 0.68387 0.78362 0.24604 0.0
O87 O 0.51557 0.73989 0.26288 0.0
O88 O 0.64132 0.75752 0.35676 0.0
C89 C 0.50958 0.7209 0.23595 0.0
O90 O 0.69851 0.70755 0.37024 0.0
O91 O 0.79006 0.66939 0.32359 0.0
O92 O 0.78461 0.6863 0.26976 0.0
C93 C 0.77286 0.13542 0.04782 0.0
C94 C 0.94266 0.10382 0.12438 0.0
C95 C 0.80164 0.13735 0.21466 0.0
Mg96 Mg 0.89023 0.17501 0.09572 0.0
O97 O 0.82335 0.17704 0.12099 0.0
Mg98 Mg 0.79207 0.1317 0.13344 0.0
Mg99 Mg 0.84864 0.19738 0.16919 0.0
O100 O 0.87532 0.21554 0.21659 0.0
Mg101 Mg 0.81485 0.21402 0.24485 0.0
Mg102 Mg 0.90956 0.2604 0.20669 0.0
C103 C 0.89307 0.24728 0.12103 0.0
C104 C 0.01429 0.20291 0.19143 0.0
O105 O 0.76024 0.12389 0.07525 0.0
O106 O 0.81844 0.15743 0.0482 0.0
O107 O 0.88837 0.10077 0.1336 0.0
O108 O 0.95587 0.13171 0.11182 0.0
O109 O 0.93407 0.22217 0.1214 0.0
O110 O 0.86512 0.25039 0.14625 0.0
C111 C 0.68474 0.1896 0.14713 0.0
O112 O 0.73342 0.20865 0.1627 0.0
O113 O 0.69568 0.16105 0.13341 0.0
O114 O 0.94972 0.26472 0.26749 0.0
O115 O 0.88775 0.2297 0.29035 0.0
O116 O 0.8108 0.28795 0.20716 0.0
C117 C 0.93656 0.25015 0.29364 0.0
O118 O 0.74238 0.25686 0.22889 0.0
O119 O 0.79139 0.15863 0.23772 0.0
C120 C 0.75493 0.28414 0.21461 0.0
O121 O 0.82828 0.14644 0.19066 0.0
O122 O 0.96438 0.1843 0.17664 0.0
O123 O 0.00501 0.23199 0.2045 0.0
C124 C 0.90832 0.61568 0.46302 0.0
C125 C 0.90569 0.61383 0.42762 0.0
C126 C 0.94182 0.58981 0.48529 0.0
C127 C 0.96831 0.49852 0.47323 0.0
H128 H 0.03376 0.49759 0.57299 0.0
C129 C 0.07324 0.38109 0.55781 0.0
C130 C 0.07251 0.38343 0.5928 0.0
C131 C 0.04093 0.40651 0.53462 0.0
C132 C 0.01418 0.49751 0.54514 0.0
H133 H 0.95058 0.58929 0.38987 0.0
H134 H 0.01096 0.54487 0.42904 0.0
H135 H 0.02502 0.55165 0.54217 0.0
H136 H 0.02158 0.40781 0.62826 0.0
H137 H 0.964 0.45162 0.58758 0.0
H138 H 0.95787 0.44429 0.47627 0.0
C139 C 0.98351 0.56484 0.43909 0.0
C140 C 0.01008 0.52844 0.52749 0.0
C141 C 0.94974 0.59061 0.41679 0.0
C142 C 0.02556 0.40622 0.60185 0.0
C143 C 0.99323 0.43165 0.57868 0.0
C144 C 0.97264 0.46756 0.49089 0.0
C145 C 0.97445 0.56244 0.47255 0.0
C146 C 0.98693 0.52934 0.49133 0.0
C147 C 0.00606 0.43381 0.54602 0.0
C148 C 0.99517 0.46675 0.52705 0.0
H149 H 0.87634 0.63378 0.47252 0.0
H150 H 0.935 0.5892 0.51118 0.0
H151 H 0.94849 0.49839 0.4454 0.0
H152 H 0.10702 0.36305 0.54953 0.0
H153 H 0.05036 0.40697 0.50927 0.0
C154 C 0.66632 0.13141 1.00315 0.0
C155 C 0.73365 0.12025 0.01561 0.0
C156 C 0.61725 0.10821 0.98721 0.0
C157 C 0.59055 0.01935 1.00078 0.0
H158 H 0.42427 0.03248 0.92932 0.0
C159 C 0.38165 0.91854 0.96769 0.0
C160 C 0.31519 0.93055 0.95417 0.0
C161 C 0.43435 0.94159 0.97559 0.0
C162 C 0.46998 0.02866 0.94979 0.0
H163 H 0.80412 0.07758 0.01783 0.0
H164 H 0.71876 0.03715 0.98939 0.0
H165 H 0.5145 0.07288 0.93459 0.0
H166 H 0.2505 0.97572 0.94081 0.0
H167 H 0.34151 0.01611 0.95669 0.0
H168 H 0.54557 0.97604 0.01699 0.0
C169 C 0.7036 0.06362 0.99216 0.0
C170 C 0.52192 0.05162 0.95244 0.0
C171 C 0.75262 0.08691 0.00779 0.0
C172 C 0.30145 0.96596 0.9516 0.0
C173 C 0.35379 0.98899 0.95998 0.0
C174 C 0.53838 0.99663 0.9984 0.0
C175 C 0.63506 0.07353 0.9839 0.0
C176 C 0.58263 0.04728 0.97806 0.0
C177 C 0.42118 0.97703 0.97034 0.0
C178 C 0.4771 1.00116 0.97309 0.0
H179 H 0.6504 0.15676 0.00966 0.0
H180 H 0.56483 0.11659 0.9811 0.0
H181 H 0.63626 0.01578 0.02133 0.0
H182 H 0.3935 0.89128 0.96903 0.0
H183 H 0.48552 0.93136 0.9834 0.0
C184 C 0.65935 0.55772 0.46717 0.0
C185 C 0.64058 0.55206 0.43133 0.0
C186 C 0.62113 0.54498 0.48795 0.0
C187 C 0.44627 0.52586 0.48067 0.0
H188 H 0.51499 0.49353 0.57476 0.0
C189 C 0.28942 0.46269 0.56041 0.0
C190 C 0.30934 0.46602 0.5965 0.0
C191 C 0.32345 0.47966 0.54003 0.0
C192 C 0.49515 0.50327 0.54877 0.0
H193 H 0.57096 0.52652 0.38926 0.0
H194 H 0.50391 0.50361 0.42586 0.0
H195 H 0.59285 0.50268 0.53941 0.0
H196 H 0.37509 0.49204 0.63964 0.0
H197 H 0.43492 0.52219 0.60383 0.0
H198 H 0.3484 0.52604 0.48998 0.0
C199 C 0.5478 0.5183 0.43775 0.0
C200 C 0.53967 0.5081 0.52842 0.0
C201 C 0.58661 0.53088 0.41692 0.0
C202 C 0.35873 0.4894 0.61178 0.0
C203 C 0.39338 0.50621 0.59135 0.0
C204 C 0.40169 0.521 0.50103 0.0
C205 C 0.56313 0.52654 0.47318 0.0
C206 C 0.51566 0.51925 0.49411 0.0
C207 C 0.37841 0.49993 0.55553 0.0
C208 C 0.42568 0.50949 0.53524 0.0
H209 H 0.70081 0.57413 0.47875 0.0
H210 H 0.63417 0.55184 0.5151 0.0
H211 H 0.42649 0.5353 0.45457 0.0
H212 H 0.25141 0.44462 0.54823 0.0
H213 H 0.31075 0.47424 0.51255 0.0
C214 C 0.02588 0.07526 0.09752 0.0
C215 C 0.97664 0.07223 0.11588 0.0
C216 C 0.03026 0.05117 0.0722 0.0
C217 C 0.97735 0.96965 0.03036 0.0
H218 H 0.92836 0.02407 0.94649 0.0
C219 C 0.956 0.90187 0.90444 0.0
C220 C 0.00067 0.9159 0.88744 0.0
C221 C 0.9308 0.92185 0.92757 0.0
C222 C 0.94199 0.00848 0.96958 0.0
H223 H 0.90671 0.03724 0.12869 0.0
H224 H 0.91603 0.99484 0.0851 0.0
H225 H 0.94943 0.05232 1.00272 0.0
H226 H 0.04215 0.9631 0.87539 0.0
H227 H 0.99958 0.99771 0.91583 0.0
H228 H 0.97314 0.92589 0.99764 0.0
C229 C 0.94852 0.01664 0.08904 0.0
C230 C 0.95455 0.02465 1.00174 0.0
C231 C 0.94366 0.04092 0.11422 0.0
C232 C 0.00856 0.95148 0.88851 0.0
C233 C 0.98426 0.97137 0.91204 0.0
C234 C 0.96576 0.95344 0.99818 0.0
C235 C 0.98734 0.02328 0.06596 0.0
C236 C 0.97387 0.00542 0.03234 0.0
C237 C 0.95044 0.95595 0.93405 0.0
C238 C 0.94928 0.97272 0.96737 0.0
H239 H 0.05387 0.09853 0.09901 0.0
H240 H 0.06225 0.05612 0.05528 0.0
H241 H 0.9913 0.95437 0.05367 0.0
H242 H 0.94801 0.87454 0.90353 0.0
H243 H 0.90226 0.90959 0.94306 0.0
C244 C 0.55086 0.32594 0.83379 0.0
C245 C 0.54915 0.29947 0.80954 0.0
C246 C 0.59866 0.32517 0.86559 0.0
C247 C 0.69774 0.25942 0.92398 0.0
H248 H 0.75317 0.33733 0.98462 0.0
C249 C 0.88206 0.24949 0.05775 0.0
C250 C 0.85594 0.25893 0.08588 0.0
C251 C 0.84716 0.25751 0.02407 0.0
C252 C 0.73724 0.31547 0.96793 0.0
H253 H 0.60156 0.254 0.79751 0.0
H254 H 0.68763 0.25337 0.85269 0.0
H255 H 0.69942 0.34677 0.9232 0.0
H256 H 0.77399 0.28625 0.10039 0.0
H257 H 0.71317 0.3013 0.04052 0.0
H258 H 0.73786 0.22824 0.96868 0.0
C259 C 0.64998 0.27397 0.84772 0.0
C260 C 0.70673 0.32075 0.93276 0.0
C261 C 0.60147 0.27461 0.81582 0.0
C262 C 0.79517 0.2783 0.07936 0.0
C263 C 0.76053 0.28693 0.04526 0.0
C264 C 0.72918 0.2542 0.95891 0.0
C265 C 0.64656 0.29808 0.87377 0.0
C266 C 0.68605 0.29277 0.91032 0.0
C267 C 0.78595 0.27594 0.01744 0.0
C268 C 0.74867 0.28215 0.98117 0.0
H269 H 0.51152 0.34575 0.82939 0.0
H270 H 0.59407 0.34428 0.88468 0.0
H271 H 0.68109 0.23723 0.90796 0.0
H272 H 0.92934 0.23517 0.06157 0.0
H273 H 0.86797 0.24911 1.00302 0.0
C274 C 0.66781 0.726 0.43927 0.0
C275 C 0.69574 0.7442 0.41661 0.0
C276 C 0.6982 0.72581 0.47497 0.0
C277 C 0.83498 0.76664 0.54397 0.0
H278 H 0.83773 0.68024 0.59128 0.0
C279 C 0.04289 0.72955 0.66396 0.0
C280 C 0.02277 0.72623 0.69478 0.0
C281 C 0.99588 0.7296 0.6318 0.0
C282 C 0.83666 0.70462 0.57851 0.0
H283 H 0.77721 0.77651 0.41346 0.0
H284 H 0.83088 0.77609 0.47527 0.0
H285 H 0.76821 0.68723 0.53194 0.0
H286 H 0.93725 0.71766 0.7154 0.0
H287 H 0.85451 0.7165 0.65836 0.0
H288 H 0.90667 0.7831 0.58996 0.0
C289 C 0.78427 0.76273 0.46607 0.0
C290 C 0.79655 0.70882 0.54446 0.0
C291 C 0.75335 0.76318 0.43046 0.0
C292 C 0.95461 0.71998 0.69225 0.0
C293 C 0.90722 0.71961 0.65966 0.0
C294 C 0.87575 0.7622 0.57764 0.0
C295 C 0.75822 0.74331 0.48889 0.0
C296 C 0.79589 0.73976 0.52638 0.0
C297 C 0.92731 0.72578 0.62928 0.0
C298 C 0.87781 0.73104 0.59511 0.0
H299 H 0.62404 0.71067 0.42923 0.0
H300 H 0.67553 0.7111 0.49148 0.0
H301 H 0.83495 0.79114 0.5316 0.0
H302 H 0.09494 0.7341 0.66476 0.0
H303 H 0.01291 0.7339 0.60881 0.0
C304 C 0.14935 0.72323 0.94445 0.0
C305 C 0.19134 0.73118 0.92312 0.0
C306 C 0.17698 0.71158 0.97831 0.0
C307 C 0.25332 0.68704 0.05198 0.0
H308 H 0.39512 0.75071 0.0897 0.0
C309 C 0.4265 0.68708 0.19318 0.0
C310 C 0.44577 0.71904 0.20854 0.0
C311 C 0.38437 0.685 0.15959 0.0
C312 C 0.35525 0.73293 0.07967 0.0
H313 H 0.2935 0.72723 0.91835 0.0
H314 H 0.34168 0.70613 0.97698 0.0
H315 H 0.34905 0.74664 0.02739 0.0
H316 H 0.43255 0.77386 0.20158 0.0
H317 H 0.35867 0.77037 0.14286 0.0
H318 H 0.26023 0.67336 0.1047 0.0
C319 C 0.28757 0.70987 0.968 0.0
C320 C 0.32961 0.73014 0.04385 0.0
C321 C 0.2597 0.72115 0.93401 0.0
C322 C 0.41742 0.74891 0.19074 0.0
C323 C 0.37609 0.74686 0.15687 0.0
C324 C 0.27996 0.68942 0.08799 0.0
C325 C 0.24711 0.7075 0.99129 0.0
C326 C 0.27813 0.70728 0.02944 0.0
C327 C 0.36162 0.71488 0.14035 0.0
C328 C 0.33077 0.71272 0.10227 0.0
H329 H 0.09657 0.73104 0.93693 0.0
H330 H 0.1442 0.70974 0.99539 0.0
H331 H 0.21339 0.66937 0.04175 0.0
H332 H 0.44866 0.66365 0.20608 0.0
H333 H 0.3744 0.66 0.14769 0.0
C334 C 0.97611 0.23237 0.35538 0.0
C335 C 0.9819 0.25439 0.32883 0.0
C336 C 0.0202 0.23416 0.38817 0.0
C337 C 0.18611 0.26643 0.43662 0.0
H338 H 0.1153 0.24776 0.51508 0.0
C339 C 0.31884 0.29145 0.58172 0.0
C340 C 0.31185 0.26642 0.60534 0.0
C341 C 0.28802 0.28775 0.54647 0.0
C342 C 0.136 0.25256 0.49339 0.0
H343 H 0.03893 0.29588 0.3163 0.0
H344 H 0.1151 0.29992 0.37441 0.0
H345 H 0.03983 0.24926 0.45737 0.0
H346 H 0.27131 0.21697 0.61074 0.0
H347 H 0.21677 0.21047 0.54895 0.0
H348 H 0.28218 0.2711 0.47352 0.0
C349 C 0.07692 0.2807 0.36939 0.0
C350 C 0.09276 0.25344 0.46022 0.0
C351 C 0.03293 0.27861 0.33616 0.0
C352 C 0.27783 0.23644 0.59294 0.0
C353 C 0.24616 0.23293 0.55772 0.0
C354 C 0.22937 0.26608 0.47005 0.0
C355 C 0.07103 0.25841 0.39581 0.0
C356 C 0.11724 0.25988 0.43127 0.0
C357 C 0.24891 0.25916 0.53438 0.0
C358 C 0.20474 0.25868 0.49867 0.0
H359 H 0.93822 0.21298 0.35076 0.0
H360 H 0.01498 0.21594 0.4074 0.0
H361 H 0.20692 0.27117 0.41497 0.0
H362 H 0.34551 0.31461 0.59064 0.0
H363 H 0.29098 0.30833 0.52906 0.0
C364 C 0.06702 0.32143 0.7441 0.0
C365 C 0.09572 0.32508 0.71613 0.0
C366 C 0.99743 0.32387 0.73925 0.0
C367 C 0.83656 0.31607 0.67328 0.0
H368 H 0.76384 0.36464 0.74111 0.0
C369 C 0.55147 0.34143 0.65315 0.0
C370 C 0.52455 0.3382 0.6818 0.0
C371 C 0.62093 0.34012 0.65721 0.0
C372 C 0.78333 0.35061 0.72216 0.0
H373 H 0.07313 0.33361 0.66091 0.0
H374 H 0.95111 0.33839 0.65241 0.0
H375 H 0.88499 0.36274 0.74758 0.0
H376 H 0.5502 0.3316 0.73737 0.0
H377 H 0.67172 0.32853 0.74446 0.0
H378 H 0.73497 0.30373 0.64798 0.0
C379 C 0.98287 0.33348 0.67815 0.0
C380 C 0.85279 0.34961 0.72581 0.0
C381 C 0.05283 0.33108 0.68304 0.0
C382 C 0.56907 0.33375 0.71473 0.0
C383 C 0.6388 0.33237 0.7188 0.0
C384 C 0.76708 0.31702 0.66966 0.0
C385 C 0.95444 0.32998 0.70627 0.0
C386 C 0.88028 0.3322 0.7015 0.0
C387 C 0.66555 0.33551 0.69005 0.0
C388 C 0.73959 0.33425 0.6941 0.0
H389 H 0.09833 0.31676 0.77 0.0
H390 H 0.97725 0.32049 0.76136 0.0
H391 H 0.85616 0.30201 0.65439 0.0
H392 H 0.51885 0.34498 0.62735 0.0
H393 H 0.63967 0.34319 0.63459 0.0
C394 C 0.42166 0.86306 0.83167 0.0
C395 C 0.38328 0.83415 0.8331 0.0
C396 C 0.48927 0.85943 0.83167 0.0
C397 C 0.63488 0.79963 0.85748 0.0
H398 H 0.71179 0.85701 0.80008 0.0
C399 C 0.89858 0.77314 0.8384 0.0
C400 C 0.93963 0.80086 0.83672 0.0
C401 C 0.83209 0.77862 0.83965 0.0
C402 C 0.6913 0.84119 0.81666 0.0
H403 H 0.3857 0.77863 0.83471 0.0
H404 H 0.50416 0.77226 0.83437 0.0
H405 H 0.59181 0.86253 0.79672 0.0
H406 H 0.94293 0.85619 0.83529 0.0
H407 H 0.82608 0.86593 0.83795 0.0
H408 H 0.73419 0.77818 0.87733 0.0
C409 C 0.48179 0.79778 0.83372 0.0
C410 C 0.62249 0.84422 0.81464 0.0
C411 C 0.41382 0.80142 0.83363 0.0
C412 C 0.91275 0.83435 0.83685 0.0
C413 C 0.84571 0.83988 0.83803 0.0
C414 C 0.70361 0.79661 0.85952 0.0
C415 C 0.52043 0.82681 0.8331 0.0
C416 C 0.5934 0.82332 0.83487 0.0
C417 C 0.80458 0.81199 0.83925 0.0
C418 C 0.73255 0.81714 0.83893 0.0
H419 H 0.39981 0.8887 0.83105 0.0
H420 H 0.51762 0.88231 0.83151 0.0
H421 H 0.61438 0.78366 0.87396 0.0
H422 H 0.91758 0.74696 0.83843 0.0
H423 H 0.80167 0.75656 0.84005 0.0
C424 C 0.93579 0.66937 0.33912 0.0
C425 C 0.89279 0.67224 0.30561 0.0
C426 C 0.00591 0.6695 0.34428 0.0
C427 C 0.13398 0.69758 0.30097 0.0
H428 H 0.2567 0.63932 0.3679 0.0
C429 C 0.41905 0.68311 0.30858 0.0
C430 C 0.46355 0.68085 0.34175 0.0
C431 C 0.34927 0.68293 0.30438 0.0
C432 C 0.22313 0.65605 0.34934 0.0
H433 H 0.89005 0.67557 0.25117 0.0
H434 H 0.01107 0.67527 0.26014 0.0
H435 H 0.13569 0.63616 0.36102 0.0
H436 H 0.4692 0.678 0.39657 0.0
H437 H 0.34839 0.67809 0.38919 0.0
H438 H 0.22129 0.71739 0.2892 0.0
C439 C 0.99107 0.6739 0.28255 0.0
C440 C 0.15374 0.65423 0.34544 0.0
C441 C 0.92146 0.67385 0.27742 0.0
C442 C 0.4366 0.67944 0.37058 0.0
C443 C 0.36717 0.67925 0.36637 0.0
C444 C 0.20328 0.69936 0.30483 0.0
C445 C 0.03424 0.67247 0.31603 0.0
C446 C 0.10827 0.67485 0.32107 0.0
C447 C 0.32259 0.68046 0.33325 0.0
C448 C 0.24874 0.67859 0.32902 0.0
H449 H 0.91539 0.66812 0.36139 0.0
H450 H 0.03778 0.6684 0.37045 0.0
H451 H 0.10048 0.71433 0.2824 0.0
H452 H 0.43803 0.68407 0.28582 0.0
H453 H 0.3163 0.68372 0.27845 0.0
C454 C 0.13828 0.20742 0.21532 0.0
C455 C 0.08414 0.1937 0.19028 0.0
C456 C 0.20345 0.20578 0.21095 0.0
C457 C 0.31327 0.16489 0.16088 0.0
H458 H 0.40922 0.24979 0.18115 0.0
C459 C 0.5611 0.18276 0.123 0.0
C460 C 0.61411 0.19781 0.14772 0.0
C461 C 0.49557 0.18398 0.12691 0.0
C462 C 0.38354 0.22578 0.17567 0.0
H463 H 0.05685 0.16626 0.14169 0.0
H464 H 0.17092 0.16294 0.13408 0.0
H465 H 0.29865 0.24554 0.19201 0.0
H466 H 0.63871 0.22719 0.19517 0.0
H467 H 0.52438 0.22949 0.20217 0.0
H468 H 0.39829 0.14506 0.1447 0.0
C469 C 0.16293 0.17482 0.15729 0.0
C470 C 0.32007 0.22328 0.18196 0.0
C471 C 0.09747 0.17643 0.16174 0.0
C472 C 0.59912 0.21583 0.17544 0.0
C473 C 0.5334 0.21694 0.17949 0.0
C474 C 0.37685 0.16735 0.15466 0.0
C475 C 0.2163 0.19051 0.18132 0.0
C476 C 0.28415 0.19278 0.17474 0.0
C477 C 0.48116 0.20011 0.1558 0.0
C478 C 0.41287 0.19785 0.16195 0.0
H479 H 0.12979 0.22076 0.23774 0.0
H480 H 0.24354 0.21736 0.23042 0.0
H481 H 0.28741 0.14092 0.15535 0.0
H482 H 0.57073 0.16885 0.10115 0.0
H483 H 0.45643 0.17154 0.10764 0.0
C484 C 0.3681 0.15823 0.78876 0.0
C485 C 0.32019 0.18495 0.78753 0.0
C486 C 0.35171 0.12419 0.79156 0.0
C487 C 0.20322 0.06972 0.77021 0.0
H488 H 0.33403 0.99884 0.81245 0.0
C489 C 0.13812 0.92713 0.77609 0.0
C490 C 0.18455 0.90201 0.7704 0.0
C491 C 0.15339 0.96179 0.77786 0.0
C492 C 0.29721 0.01831 0.80017 0.0
H493 H 0.21863 0.1971 0.79055 0.0
H494 H 0.18988 0.13725 0.79632 0.0
H495 H 0.36256 0.05896 0.82196 0.0
H496 H 0.28318 0.8936 0.76156 0.0
H497 H 0.31024 0.95461 0.76461 0.0
H498 H 0.1377 0.0289 0.74875 0.0
C499 C 0.24007 0.14273 0.79448 0.0
C500 C 0.31339 0.05285 0.80573 0.0
C501 C 0.25674 0.17706 0.79176 0.0
C502 C 0.24598 0.91243 0.76535 0.0
C503 C 0.26176 0.94728 0.76762 0.0
C504 C 0.18686 0.03518 0.76492 0.0
C505 C 0.28673 0.11577 0.7932 0.0
C506 C 0.26693 0.07908 0.79049 0.0
C507 C 0.21596 0.97229 0.77444 0.0
C508 C 0.23388 0.00904 0.77953 0.0
H509 H 0.41745 0.16353 0.78548 0.0
H510 H 0.38896 0.10441 0.79018 0.0
H511 H 0.16652 0.08902 0.75748 0.0
H512 H 0.09062 0.9198 0.78042 0.0
H513 H 0.11724 0.98024 0.78345 0.0
C514 C 0.28061 0.43187 0.80187 0.0
C515 C 0.32603 0.41108 0.78934 0.0
C516 C 0.29927 0.46415 0.81602 0.0
C517 C 0.40879 0.5307 0.80043 0.0
H518 H 0.32336 0.58403 0.86008 0.0
C519 C 0.34358 0.67999 0.83932 0.0
C520 C 0.32038 0.69355 0.80584 0.0
C521 C 0.36798 0.6461 0.84437 0.0
C522 C 0.34894 0.56968 0.84375 0.0
H523 H 0.42951 0.4055 0.78676 0.0
H524 H 0.46282 0.46145 0.81231 0.0
H525 H 0.32335 0.52184 0.86195 0.0
H526 H 0.30912 0.68309 0.75158 0.0
H527 H 0.35144 0.62385 0.76013 0.0
H528 H 0.43283 0.57861 0.78157 0.0
C529 C 0.41213 0.45329 0.81033 0.0
C530 C 0.34829 0.53385 0.84464 0.0
C531 C 0.39349 0.42079 0.79645 0.0
C532 C 0.3281 0.67358 0.77771 0.0
C533 C 0.35191 0.63943 0.7827 0.0
C534 C 0.40941 0.56659 0.79952 0.0
C535 C 0.3639 0.47628 0.818 0.0
C536 C 0.37643 0.51383 0.82228 0.0
C537 C 0.36873 0.6247 0.81597 0.0
C538 C 0.37786 0.58664 0.82049 0.0
H539 H 0.22809 0.42527 0.79631 0.0
H540 H 0.26063 0.48093 0.82171 0.0
H541 H 0.43037 0.51626 0.78251 0.0
H542 H 0.3375 0.69475 0.86144 0.0
H543 H 0.38214 0.63605 0.87042 0.0
C544 C 0.685 0.82835 0.20167 0.0
C545 C 0.71181 0.81434 0.23464 0.0
C546 C 0.69965 0.86207 0.19478 0.0
C547 C 0.811 0.93506 0.23142 0.0
H548 H 0.65577 0.99154 0.18577 0.0
C549 C 0.80666 0.08221 0.24641 0.0
C550 C 0.78363 0.1011 0.21581 0.0
C551 C 0.79828 0.04673 0.2463 0.0
C552 C 0.69974 0.97606 0.19833 0.0
H553 H 0.77699 0.82341 0.28558 0.0
H554 H 0.80287 0.88148 0.27381 0.0
H555 H 0.64597 0.92945 0.18719 0.0
H556 H 0.72915 0.09816 0.16183 0.0
H557 H 0.71446 0.03646 0.16155 0.0
H558 H 0.86406 0.98182 0.2435 0.0
C559 C 0.77131 0.86692 0.25296 0.0
C560 C 0.69432 0.94041 0.19891 0.0
C561 C 0.75646 0.83357 0.2598 0.0
C562 C 0.749 0.08419 0.18556 0.0
C563 C 0.7399 0.04885 0.18551 0.0
C564 C 0.8162 0.97067 0.23111 0.0
C565 C 0.74148 0.88211 0.22076 0.0
C566 C 0.7496 0.91946 0.21598 0.0
C567 C 0.76577 0.02957 0.21569 0.0
C568 C 0.76039 0.99163 0.21503 0.0
H569 H 0.64953 0.81416 0.18207 0.0
H570 H 0.67641 0.87283 0.16956 0.0
H571 H 0.85502 0.91977 0.24424 0.0
H572 H 0.83364 0.09464 0.27006 0.0
H573 H 0.81785 0.03265 0.27011 0.0
C574 C 0.68523 0.32887 0.23529 0.0
C575 C 0.70736 0.31384 0.20811 0.0
C576 C 0.66042 0.36286 0.23262 0.0
C577 C 0.60513 0.43802 0.17511 0.0
H578 H 0.72152 0.48783 0.25051 0.0
C579 C 0.71369 0.57991 0.2234 0.0
C580 C 0.65911 0.59586 0.23292 0.0
C581 C 0.70735 0.54721 0.20859 0.0
C582 C 0.6888 0.47427 0.2292 0.0
H583 H 0.71474 0.32089 0.15571 0.0
H584 H 0.66957 0.37971 0.15066 0.0
H585 H 0.72412 0.4255 0.25139 0.0
H586 H 0.55235 0.59333 0.22838 0.0
H587 H 0.54068 0.53656 0.2015 0.0
H588 H 0.56955 0.4875 0.1533 0.0
C589 C 0.67175 0.36561 0.17407 0.0
C590 C 0.68953 0.43859 0.22998 0.0
C591 C 0.69761 0.33193 0.17697 0.0
C592 C 0.59512 0.58173 0.22102 0.0
C593 C 0.58861 0.54894 0.20607 0.0
C594 C 0.60334 0.47404 0.17471 0.0
C595 C 0.65642 0.38203 0.20252 0.0
C596 C 0.64829 0.41998 0.20285 0.0
C597 C 0.64598 0.53038 0.20254 0.0
C598 C 0.64625 0.49239 0.2015 0.0
H599 H 0.69302 0.31561 0.25968 0.0
H600 H 0.64855 0.37488 0.25488 0.0
H601 H 0.57308 0.42425 0.15377 0.0
H602 H 0.76364 0.59011 0.23252 0.0
H603 H 0.75219 0.53353 0.20571 0.0
loop_
_geom_bond_atom_site_label_1
_geom_bond_atom_site_label_2
_geom_bond_distance
_geom_bond_site_symmetry_2
_ccdc_geom_bond_type
C0 O12 1.241 . S
C0 O13 1.280 . S
C1 O14 1.277 . S
C1 O15 1.245 . S
C2 O26 1.247 . S
C2 O28 1.289 . S
Mg3 O4 1.926 . S
Mg3 O13 1.984 . S
Mg3 O15 1.988 . S
Mg3 O16 2.061 . S
O4 Mg3 1.926 . S
O4 Mg5 1.986 . S
O4 Mg6 1.917 . S
Mg5 O4 1.986 . S
Mg5 O12 2.042 . S
Mg5 O14 2.041 . S
Mg5 O20 2.038 . S
Mg5 O28 2.238 . S
Mg6 O4 1.917 . S
Mg6 O7 1.917 . S
Mg6 O17 2.106 . S
Mg6 O19 2.079 . S
Mg6 O28 2.106 . S
Mg6 O29 2.079 . S
O7 Mg6 1.917 . S
O7 Mg8 1.926 . S
O7 Mg9 1.986 . S
Mg8 O7 1.926 . S
Mg8 O22 1.984 . S
Mg8 O25 1.988 . S
Mg8 O26 2.061 . S
Mg9 O7 1.986 . S
Mg9 O17 2.238 . S
Mg9 O21 2.042 . S
Mg9 O23 2.041 . S
Mg9 O30 2.038 . S
C10 O16 1.247 . S
C10 O17 1.289 . S
C11 O29 1.245 . S
C11 O30 1.274 . S
O12 C0 1.241 . S
O12 Mg5 2.042 . S
O13 C0 1.280 . S
O13 Mg3 1.984 . S
O14 C1 1.277 . S
O14 Mg5 2.041 . S
O15 C1 1.245 . S
O15 Mg3 1.988 . S
O16 Mg3 2.061 . S
O16 C10 1.247 . S
O17 Mg6 2.106 . S
O17 Mg9 2.238 . S
O17 C10 1.289 . S
C18 O19 1.245 . S
C18 O20 1.274 . S
O19 Mg6 2.079 . S
O19 C18 1.245 . S
O20 Mg5 2.038 . S
O20 C18 1.274 . S
O21 Mg9 2.042 . S
O21 C24 1.241 . S
O22 Mg8 1.984 . S
O22 C24 1.280 . S
O23 Mg9 2.041 . S
O23 C27 1.277 . S
C24 O21 1.241 . S
C24 O22 1.280 . S
O25 Mg8 1.988 . S
O25 C27 1.245 . S
O26 C2 1.247 . S
O26 Mg8 2.061 . S
C27 O23 1.277 . S
C27 O25 1.245 . S
O28 C2 1.289 . S
O28 Mg5 2.238 . S
O28 Mg6 2.106 . S
O29 Mg6 2.079 . S
O29 C11 1.245 . S
O30 Mg9 2.038 . S
O30 C11 1.274 . S
C31 O43 1.241 . S
C31 O44 1.280 . S
C32 O45 1.277 . S
C32 O46 1.245 . S
C33 O57 1.247 . S
C33 O59 1.289 . S
Mg34 O35 1.926 . S
Mg34 O44 1.984 . S
Mg34 O46 1.988 . S
Mg34 O47 2.061 . S
O35 Mg34 1.926 . S
O35 Mg36 1.986 . S
O35 Mg37 1.917 . S
Mg36 O35 1.986 . S
Mg36 O43 2.042 . S
Mg36 O45 2.041 . S
Mg36 O51 2.038 . S
Mg36 O59 2.238 . S
Mg37 O35 1.917 . S
Mg37 O38 1.917 . S
Mg37 O48 2.106 . S
Mg37 O50 2.079 . S
Mg37 O59 2.106 . S
Mg37 O60 2.079 . S
O38 Mg37 1.917 . S
O38 Mg39 1.926 . S
O38 Mg40 1.986 . S
Mg39 O38 1.926 . S
Mg39 O53 1.984 . S
Mg39 O56 1.988 . S
Mg39 O57 2.061 . S
Mg40 O38 1.986 . S
Mg40 O48 2.238 . S
Mg40 O52 2.042 . S
Mg40 O54 2.041 . S
Mg40 O61 2.038 . S
C41 O47 1.247 . S
C41 O48 1.289 . S
C42 O60 1.245 . S
C42 O61 1.274 . S
O43 C31 1.241 . S
O43 Mg36 2.042 . S
O44 C31 1.280 . S
O44 Mg34 1.984 . S
O45 C32 1.277 . S
O45 Mg36 2.041 . S
O46 C32 1.245 . S
O46 Mg34 1.988 . S
O47 Mg34 2.061 . S
O47 C41 1.247 . S
O48 Mg37 2.106 . S
O48 Mg40 2.238 . S
O48 C41 1.289 . S
C49 O50 1.245 . S
C49 O51 1.274 . S
O50 Mg37 2.079 . S
O50 C49 1.245 . S
O51 Mg36 2.038 . S
O51 C49 1.274 . S
O52 Mg40 2.042 . S
O52 C55 1.241 . S
O53 Mg39 1.984 . S
O53 C55 1.280 . S
O54 Mg40 2.041 . S
O54 C58 1.277 . S
C55 O52 1.241 . S
C55 O53 1.280 . S
O56 Mg39 1.988 . S
O56 C58 1.245 . S
O57 C33 1.247 . S
O57 Mg39 2.061 . S
C58 O54 1.277 . S
C58 O56 1.245 . S
O59 C33 1.289 . S
O59 Mg36 2.238 . S
O59 Mg37 2.106 . S
O60 Mg37 2.079 . S
O60 C42 1.245 . S
O61 Mg40 2.038 . S
O61 C42 1.274 . S
C62 O74 1.241 . S
C62 O75 1.280 . S
C63 O76 1.277 . S
C63 O77 1.245 . S
C64 O88 1.247 . S
C64 O90 1.289 . S
Mg65 O66 1.926 . S
Mg65 O75 1.984 . S
Mg65 O77 1.988 . S
Mg65 O78 2.061 . S
O66 Mg65 1.926 . S
O66 Mg67 1.986 . S
O66 Mg68 1.917 . S
Mg67 O66 1.986 . S
Mg67 O74 2.042 . S
Mg67 O76 2.041 . S
Mg67 O82 2.038 . S
Mg67 O90 2.238 . S
Mg68 O66 1.917 . S
Mg68 O69 1.917 . S
Mg68 O79 2.106 . S
Mg68 O81 2.079 . S
Mg68 O90 2.106 . S
Mg68 O91 2.079 . S
O69 Mg68 1.917 . S
O69 Mg70 1.926 . S
O69 Mg71 1.986 . S
Mg70 O69 1.926 . S
Mg70 O84 1.984 . S
Mg70 O87 1.988 . S
Mg70 O88 2.061 . S
Mg71 O69 1.986 . S
Mg71 O79 2.238 . S
Mg71 O83 2.042 . S
Mg71 O85 2.041 . S
Mg71 O92 2.038 . S
C72 O78 1.247 . S
C72 O79 1.289 . S
C73 O91 1.245 . S
C73 O92 1.274 . S
O74 C62 1.241 . S
O74 Mg67 2.042 . S
O75 C62 1.280 . S
O75 Mg65 1.984 . S
O76 C63 1.277 . S
O76 Mg67 2.041 . S
O77 C63 1.245 . S
O77 Mg65 1.988 . S
O78 Mg65 2.061 . S
O78 C72 1.247 . S
O79 Mg68 2.106 . S
O79 Mg71 2.238 . S
O79 C72 1.289 . S
C80 O81 1.245 . S
C80 O82 1.274 . S
O81 Mg68 2.079 . S
O81 C80 1.245 . S
O82 Mg67 2.038 . S
O82 C80 1.274 . S
O83 Mg71 2.042 . S
O83 C86 1.241 . S
O84 Mg70 1.984 . S
O84 C86 1.280 . S
O85 Mg71 2.041 . S
O85 C89 1.277 . S
C86 O83 1.241 . S
C86 O84 1.280 . S
O87 Mg70 1.988 . S
O87 C89 1.245 . S
O88 C64 1.247 . S
O88 Mg70 2.061 . S
C89 O85 1.277 . S
C89 O87 1.245 . S
O90 C64 1.289 . S
O90 Mg67 2.238 . S
O90 Mg68 2.106 . S
O91 Mg68 2.079 . S
O91 C73 1.245 . S
O92 Mg71 2.038 . S
O92 C73 1.274 . S
C93 O105 1.241 . S
C93 O106 1.280 . S
C94 O107 1.277 . S
C94 O108 1.245 . S
C95 O119 1.247 . S
C95 O121 1.289 . S
Mg96 O97 1.926 . S
Mg96 O106 1.984 . S
Mg96 O108 1.988 . S
Mg96 O109 2.061 . S
O97 Mg96 1.926 . S
O97 Mg98 1.986 . S
O97 Mg99 1.917 . S
Mg98 O97 1.986 . S
Mg98 O105 2.042 . S
Mg98 O107 2.041 . S
Mg98 O113 2.038 . S
Mg98 O121 2.238 . S
Mg99 O97 1.917 . S
Mg99 O100 1.917 . S
Mg99 O110 2.106 . S
Mg99 O112 2.079 . S
Mg99 O121 2.106 . S
Mg99 O122 2.079 . S
O100 Mg99 1.917 . S
O100 Mg101 1.926 . S
O100 Mg102 1.986 . S
Mg101 O100 1.926 . S
Mg101 O115 1.984 . S
Mg101 O118 1.988 . S
Mg101 O119 2.061 . S
Mg102 O100 1.986 . S
Mg102 O110 2.238 . S
Mg102 O114 2.042 . S
Mg102 O116 2.041 . S
Mg102 O123 2.038 . S
C103 O109 1.247 . S
C103 O110 1.289 . S
C104 O122 1.245 . S
C104 O123 1.274 . S
O105 C93 1.241 . S
O105 Mg98 2.042 . S
O106 C93 1.280 . S
O106 Mg96 1.984 . S
O107 C94 1.277 . S
O107 Mg98 2.041 . S
O108 C94 1.245 . S
O108 Mg96 1.988 . S
O109 Mg96 2.061 . S
O109 C103 1.247 . S
O110 Mg99 2.106 . S
O110 Mg102 2.238 . S
O110 C103 1.289 . S
C111 O112 1.245 . S
C111 O113 1.274 . S
O112 Mg99 2.079 . S
O112 C111 1.245 . S
O113 Mg98 2.038 . S
O113 C111 1.274 . S
O114 Mg102 2.042 . S
O114 C117 1.241 . S
O115 Mg101 1.984 . S
O115 C117 1.280 . S
O116 Mg102 2.041 . S
O116 C120 1.277 . S
C117 O114 1.241 . S
C117 O115 1.280 . S
O118 Mg101 1.988 . S
O118 C120 1.245 . S
O119 C95 1.247 . S
O119 Mg101 2.061 . S
C120 O116 1.277 . S
C120 O118 1.245 . S
O121 C95 1.289 . S
O121 Mg98 2.238 . S
O121 Mg99 2.106 . S
O122 Mg99 2.079 . S
O122 C104 1.245 . S
O123 Mg102 2.038 . S
O123 C104 1.274 . S
C124 C125 1.349 . S
C124 C126 1.327 . S
C124 H149 0.950 . S
C125 C124 1.349 . S
C125 C141 1.349 . S
C126 C124 1.327 . S
C126 C145 1.429 . S
C126 H150 0.950 . S
C127 C144 1.574 . S
C127 C146 1.368 1_455 S
C127 H151 0.949 . S
H128 C132 0.949 . S
C129 C130 1.349 . S
C129 C131 1.327 . S
C129 H152 0.950 . S
C130 C129 1.349 . S
C130 C142 1.349 . S
C131 C129 1.327 . S
C131 C147 1.429 . S
C131 H153 0.950 . S
C132 H128 0.949 . S
C132 C140 1.574 . S
C132 C148 1.368 1_655 S
H133 C141 0.950 . S
H134 C139 0.950 . S
H135 C140 0.949 . S
H136 C142 0.950 . S
H137 C143 0.950 . S
H138 C144 0.949 . S
C139 H134 0.950 . S
C139 C141 1.327 . S
C139 C145 1.429 . S
C140 C132 1.574 . S
C140 H135 0.949 . S
C140 C146 1.368 . S
C141 C125 1.349 . S
C141 H133 0.950 . S
C141 C139 1.327 . S
C142 C130 1.349 . S
C142 H136 0.950 . S
C142 C143 1.327 . S
C143 H137 0.950 . S
C143 C142 1.327 . S
C143 C147 1.429 . S
C144 C127 1.574 . S
C144 H138 0.949 . S
C144 C148 1.368 . S
C145 C126 1.429 . S
C145 C139 1.429 . S
C145 C146 1.523 . S
C146 C127 1.368 1_655 S
C146 C140 1.368 . S
C146 C145 1.523 . S
C147 C131 1.429 . S
C147 C143 1.429 . S
C147 C148 1.523 . S
C148 C132 1.368 1_455 S
C148 C144 1.368 . S
C148 C147 1.523 . S
H149 C124 0.950 . S
H150 C126 0.950 . S
H151 C127 0.949 . S
H152 C129 0.950 . S
H153 C131 0.950 . S
C154 C155 1.349 . S
C154 C156 1.327 . S
C154 H179 0.950 . S
C155 C154 1.349 . S
C155 C171 1.349 . S
C156 C154 1.327 . S
C156 C175 1.429 . S
C156 H180 0.950 . S
C157 C174 1.574 1_545 S
C157 C176 1.368 1_556 S
C157 H181 0.949 . S
H158 C162 0.949 . S
C159 C160 1.349 . S
C159 C161 1.327 . S
C159 H182 0.950 . S
C160 C159 1.349 . S
C160 C172 1.349 . S
C161 C159 1.327 . S
C161 C177 1.429 . S
C161 H183 0.950 . S
C162 H158 0.949 . S
C162 C170 1.574 1_565 S
C162 C178 1.368 1_554 S
H163 C171 0.950 . S
H164 C169 0.950 . S
H165 C170 0.949 . S
H166 C172 0.950 . S
H167 C173 0.950 . S
H168 C174 0.949 . S
C169 H164 0.950 . S
C169 C171 1.327 . S
C169 C175 1.429 . S
C170 C162 1.574 1_545 S
C170 H165 0.949 . S
C170 C176 1.368 . S
C171 C155 1.349 . S
C171 H163 0.950 . S
C171 C169 1.327 . S
C172 C160 1.349 . S
C172 H166 0.950 . S
C172 C173 1.327 . S
C173 H167 0.950 . S
C173 C172 1.327 . S
C173 C177 1.429 . S
C174 C157 1.574 1_565 S
C174 H168 0.949 . S
C174 C178 1.368 . S
C175 C156 1.429 . S
C175 C169 1.429 . S
C175 C176 1.523 . S
C176 C157 1.368 1_554 S
C176 C170 1.368 . S
C176 C175 1.523 . S
C177 C161 1.429 . S
C177 C173 1.429 . S
C177 C178 1.523 . S
C178 C162 1.368 1_556 S
C178 C174 1.368 . S
C178 C177 1.523 . S
H179 C154 0.950 . S
H180 C156 0.950 . S
H181 C157 0.949 . S
H182 C159 0.950 . S
H183 C161 0.950 . S
C184 C185 1.349 . S
C184 C186 1.327 . S
C184 H209 0.950 . S
C185 C184 1.349 . S
C185 C201 1.349 . S
C186 C184 1.327 . S
C186 C205 1.429 . S
C186 H210 0.950 . S
C187 C204 1.574 . S
C187 C206 1.368 . S
C187 H211 0.949 . S
H188 C192 0.949 . S
C189 C190 1.349 . S
C189 C191 1.327 . S
C189 H212 0.950 . S
C190 C189 1.349 . S
C190 C202 1.349 . S
C191 C189 1.327 . S
C191 C207 1.429 . S
C191 H213 0.950 . S
C192 H188 0.949 . S
C192 C200 1.574 . S
C192 C208 1.368 . S
H193 C201 0.950 . S
H194 C199 0.950 . S
H195 C200 0.949 . S
H196 C202 0.950 . S
H197 C203 0.950 . S
H198 C204 0.949 . S
C199 H194 0.950 . S
C199 C201 1.327 . S
C199 C205 1.429 . S
C200 C192 1.574 . S
C200 H195 0.949 . S
C200 C206 1.368 . S
C201 C185 1.349 . S
C201 H193 0.950 . S
C201 C199 1.327 . S
C202 C190 1.349 . S
C202 H196 0.950 . S
C202 C203 1.327 . S
C203 H197 0.950 . S
C203 C202 1.327 . S
C203 C207 1.429 . S
C204 C187 1.574 . S
C204 H198 0.949 . S
C204 C208 1.368 . S
C205 C186 1.429 . S
C205 C199 1.429 . S
C205 C206 1.523 . S
C206 C187 1.368 . S
C206 C200 1.368 . S
C206 C205 1.523 . S
C207 C191 1.429 . S
C207 C203 1.429 . S
C207 C208 1.523 . S
C208 C192 1.368 . S
C208 C204 1.368 . S
C208 C207 1.523 . S
H209 C184 0.950 . S
H210 C186 0.950 . S
H211 C187 0.949 . S
H212 C189 0.950 . S
H213 C191 0.950 . S
C214 C215 1.349 . S
C214 C216 1.327 . S
C214 H239 0.950 . S
C215 C214 1.349 . S
C215 C231 1.349 . S
C216 C214 1.327 . S
C216 C235 1.429 . S
C216 H240 0.950 . S
C217 C234 1.574 1_655 S
C217 C236 1.368 1_565 S
C217 H241 0.949 . S
H218 C222 0.949 . S
C219 C220 1.349 . S
C219 C221 1.327 . S
C219 H242 0.950 . S
C220 C219 1.349 . S
C220 C232 1.349 . S
C221 C219 1.327 . S
C221 C237 1.429 . S
C221 H243 0.950 . S
C222 H218 0.949 . S
C222 C230 1.574 1_455 S
C222 C238 1.368 1_545 S
H223 C231 0.950 . S
H224 C229 0.950 1_565 S
H225 C230 0.949 . S
H226 C232 0.950 . S
H227 C233 0.950 1_545 S
H228 C234 0.949 . S
C229 H224 0.950 1_545 S
C229 C231 1.327 . S
C229 C235 1.429 . S
C230 C222 1.574 1_655 S
C230 H225 0.949 . S
C230 C236 1.368 1_556 S
C231 C215 1.349 . S
C231 H223 0.950 . S
C231 C229 1.327 . S
C232 C220 1.349 . S
C232 H226 0.950 . S
C232 C233 1.327 . S
C233 H227 0.950 1_565 S
C233 C232 1.327 . S
C233 C237 1.429 . S
C234 C217 1.574 1_455 S
C234 H228 0.949 . S
C234 C238 1.368 1_554 S
C235 C216 1.429 . S
C235 C229 1.429 . S
C235 C236 1.523 . S
C236 C217 1.368 1_545 S
C236 C230 1.368 1_554 S
C236 C235 1.523 . S
C237 C221 1.429 . S
C237 C233 1.429 . S
C237 C238 1.523 . S
C238 C222 1.368 1_565 S
C238 C234 1.368 1_556 S
C238 C237 1.523 . S
H239 C214 0.950 . S
H240 C216 0.950 . S
H241 C217 0.949 . S
H242 C219 0.950 . S
H243 C221 0.950 . S
C244 C245 1.349 . S
C244 C246 1.327 . S
C244 H269 0.950 . S
C245 C244 1.349 . S
C245 C261 1.349 . S
C246 C244 1.327 . S
C246 C265 1.429 . S
C246 H270 0.950 . S
C247 C264 1.574 . S
C247 C266 1.368 . S
C247 H271 0.949 . S
H248 C252 0.949 . S
C249 C250 1.349 . S
C249 C251 1.327 1_554 S
C249 H272 0.950 . S
C250 C249 1.349 . S
C250 C262 1.349 . S
C251 C249 1.327 1_556 S
C251 C267 1.429 . S
C251 H273 0.950 . S
C252 H248 0.949 . S
C252 C260 1.574 . S
C252 C268 1.368 . S
H253 C261 0.950 . S
H254 C259 0.950 . S
H255 C260 0.949 . S
H256 C262 0.950 . S
H257 C263 0.950 . S
H258 C264 0.949 . S
C259 H254 0.950 . S
C259 C261 1.327 . S
C259 C265 1.429 . S
C260 C252 1.574 . S
C260 H255 0.949 . S
C260 C266 1.368 . S
C261 C245 1.349 . S
C261 H253 0.950 . S
C261 C259 1.327 . S
C262 C250 1.349 . S
C262 H256 0.950 . S
C262 C263 1.327 . S
C263 H257 0.950 . S
C263 C262 1.327 . S
C263 C267 1.429 1_554 S
C264 C247 1.574 . S
C264 H258 0.949 . S
C264 C268 1.368 . S
C265 C246 1.429 . S
C265 C259 1.429 . S
C265 C266 1.523 . S
C266 C247 1.368 . S
C266 C260 1.368 . S
C266 C265 1.523 . S
C267 C251 1.429 . S
C267 C263 1.429 1_556 S
C267 C268 1.523 . S
C268 C252 1.368 . S
C268 C264 1.368 . S
C268 C267 1.523 . S
H269 C244 0.950 . S
H270 C246 0.950 . S
H271 C247 0.949 . S
H272 C249 0.950 . S
H273 C251 0.950 . S
C274 C275 1.349 . S
C274 C276 1.327 . S
C274 H299 0.950 . S
C275 C274 1.349 . S
C275 C291 1.349 . S
C276 C274 1.327 . S
C276 C295 1.429 . S
C276 H300 0.950 . S
C277 C294 1.574 . S
C277 C296 1.368 . S
C277 H301 0.949 . S
H278 C282 0.949 . S
C279 C280 1.354 . S
C279 C281 1.327 . S
C279 H302 0.950 . S
C280 C279 1.354 . S
C280 C292 1.347 1_655 S
C281 C279 1.327 . S
C281 C297 1.429 . S
C281 H303 0.950 . S
C282 H278 0.949 . S
C282 C290 1.574 . S
C282 C298 1.368 . S
H283 C291 0.950 . S
H284 C289 0.950 . S
H285 C290 0.949 . S
H286 C292 0.950 . S
H287 C293 0.950 . S
H288 C294 0.949 . S
C289 H284 0.950 . S
C289 C291 1.327 . S
C289 C295 1.429 . S
C290 C282 1.574 . S
C290 H285 0.949 . S
C290 C296 1.368 . S
C291 C275 1.349 . S
C291 H283 0.950 . S
C291 C289 1.327 . S
C292 C280 1.347 1_455 S
C292 H286 0.950 . S
C292 C293 1.327 1_455 S
C293 H287 0.950 . S
C293 C292 1.327 1_655 S
C293 C297 1.429 . S
C294 C277 1.574 . S
C294 H288 0.949 . S
C294 C298 1.368 . S
C295 C276 1.429 . S
C295 C289 1.429 . S
C295 C296 1.523 . S
C296 C277 1.368 . S
C296 C290 1.368 . S
C296 C295 1.523 . S
C297 C281 1.429 . S
C297 C293 1.429 . S
C297 C298 1.523 . S
C298 C282 1.368 . S
C298 C294 1.368 . S
C298 C297 1.523 . S
H299 C274 0.950 . S
H300 C276 0.950 . S
H301 C277 0.949 . S
H302 C279 0.950 . S
H303 C281 0.950 . S
C304 C305 1.349 . S
C304 C306 1.327 1_556 S
C304 H329 0.950 . S
C305 C304 1.349 . S
C305 C321 1.349 . S
C306 C304 1.327 1_554 S
C306 C325 1.429 . S
C306 H330 0.950 . S
C307 C324 1.574 . S
C307 C326 1.368 . S
C307 H331 0.949 . S
H308 C312 0.949 . S
C309 C310 1.349 . S
C309 C311 1.327 . S
C309 H332 0.950 . S
C310 C309 1.349 . S
C310 C322 1.349 . S
C311 C309 1.327 . S
C311 C327 1.429 . S
C311 H333 0.950 . S
C312 H308 0.949 . S
C312 C320 1.574 . S
C312 C328 1.368 . S
H313 C321 0.950 . S
H314 C319 0.950 . S
H315 C320 0.949 . S
H316 C322 0.950 . S
H317 C323 0.950 . S
H318 C324 0.949 . S
C319 H314 0.950 . S
C319 C321 1.327 . S
C319 C325 1.429 1_556 S
C320 C312 1.574 . S
C320 H315 0.949 . S
C320 C326 1.368 . S
C321 C305 1.349 . S
C321 H313 0.950 . S
C321 C319 1.327 . S
C322 C310 1.349 . S
C322 H316 0.950 . S
C322 C323 1.327 . S
C323 H317 0.950 . S
C323 C322 1.327 . S
C323 C327 1.429 . S
C324 C307 1.574 . S
C324 H318 0.949 . S
C324 C328 1.368 . S
C325 C306 1.429 . S
C325 C319 1.429 1_554 S
C325 C326 1.523 . S
C326 C307 1.368 . S
C326 C320 1.368 . S
C326 C325 1.523 . S
C327 C311 1.429 . S
C327 C323 1.429 . S
C327 C328 1.523 . S
C328 C312 1.368 . S
C328 C324 1.368 . S
C328 C327 1.523 . S
H329 C304 0.950 . S
H330 C306 0.950 . S
H331 C307 0.949 . S
H332 C309 0.950 . S
H333 C311 0.950 . S
C334 C335 1.343 1_655 S
C334 C336 1.327 1_655 S
C334 H359 0.950 . S
C335 C334 1.343 1_455 S
C335 C351 1.358 . S
C336 C334 1.327 1_455 S
C336 C355 1.429 . S
C336 H360 0.950 . S
C337 C354 1.574 . S
C337 C356 1.368 . S
C337 H361 0.949 . S
H338 C342 0.949 . S
C339 C340 1.349 . S
C339 C341 1.327 . S
C339 H362 0.950 . S
C340 C339 1.349 . S
C340 C352 1.349 . S
C341 C339 1.327 . S
C341 C357 1.429 . S
C341 H363 0.950 . S
C342 H338 0.949 . S
C342 C350 1.574 . S
C342 C358 1.368 . S
H343 C351 0.950 . S
H344 C349 0.950 . S
H345 C350 0.949 . S
H346 C352 0.950 . S
H347 C353 0.950 . S
H348 C354 0.949 . S
C349 H344 0.950 . S
C349 C351 1.327 . S
C349 C355 1.429 . S
C350 C342 1.574 . S
C350 H345 0.949 . S
C350 C356 1.368 . S
C351 C335 1.358 . S
C351 H343 0.950 . S
C351 C349 1.327 . S
C352 C340 1.349 . S
C352 H346 0.950 . S
C352 C353 1.327 . S
C353 H347 0.950 . S
C353 C352 1.327 . S
C353 C357 1.429 . S
C354 C337 1.574 . S
C354 H348 0.949 . S
C354 C358 1.368 . S
C355 C336 1.429 . S
C355 C349 1.429 . S
C355 C356 1.523 . S
C356 C337 1.368 . S
C356 C350 1.368 . S
C356 C355 1.523 . S
C357 C341 1.429 . S
C357 C353 1.429 . S
C357 C358 1.523 . S
C358 C342 1.368 . S
C358 C354 1.368 . S
C358 C357 1.523 . S
H359 C334 0.950 . S
H360 C336 0.950 . S
H361 C337 0.949 . S
H362 C339 0.950 . S
H363 C341 0.950 . S
C364 C365 1.349 . S
C364 C366 1.327 1_455 S
C364 H389 0.950 . S
C365 C364 1.349 . S
C365 C381 1.349 . S
C366 C364 1.327 1_655 S
C366 C385 1.429 . S
C366 H390 0.950 . S
C367 C384 1.574 . S
C367 C386 1.368 . S
C367 H391 0.949 . S
H368 C372 0.949 . S
C369 C370 1.349 . S
C369 C371 1.327 . S
C369 H392 0.950 . S
C370 C369 1.349 . S
C370 C382 1.349 . S
C371 C369 1.327 . S
C371 C387 1.429 . S
C371 H393 0.950 . S
C372 H368 0.949 . S
C372 C380 1.574 . S
C372 C388 1.368 . S
H373 C381 0.950 . S
H374 C379 0.950 . S
H375 C380 0.949 . S
H376 C382 0.950 . S
H377 C383 0.950 . S
H378 C384 0.949 . S
C379 H374 0.950 . S
C379 C381 1.327 1_655 S
C379 C385 1.429 . S
C380 C372 1.574 . S
C380 H375 0.949 . S
C380 C386 1.368 . S
C381 C365 1.349 . S
C381 H373 0.950 . S
C381 C379 1.327 1_455 S
C382 C370 1.349 . S
C382 H376 0.950 . S
C382 C383 1.327 . S
C383 H377 0.950 . S
C383 C382 1.327 . S
C383 C387 1.429 . S
C384 C367 1.574 . S
C384 H378 0.949 . S
C384 C388 1.368 . S
C385 C366 1.429 . S
C385 C379 1.429 . S
C385 C386 1.523 . S
C386 C367 1.368 . S
C386 C380 1.368 . S
C386 C385 1.523 . S
C387 C371 1.429 . S
C387 C383 1.429 . S
C387 C388 1.523 . S
C388 C372 1.368 . S
C388 C384 1.368 . S
C388 C387 1.523 . S
H389 C364 0.950 . S
H390 C366 0.950 . S
H391 C367 0.949 . S
H392 C369 0.950 . S
H393 C371 0.950 . S
C394 C395 1.349 . S
C394 C396 1.327 . S
C394 H419 0.950 . S
C395 C394 1.349 . S
C395 C411 1.349 . S
C396 C394 1.327 . S
C396 C415 1.429 . S
C396 H420 0.950 . S
C397 C414 1.574 . S
C397 C416 1.368 . S
C397 H421 0.949 . S
H398 C402 0.949 . S
C399 C400 1.349 . S
C399 C401 1.327 . S
C399 H422 0.950 . S
C400 C399 1.349 . S
C400 C412 1.349 . S
C401 C399 1.327 . S
C401 C417 1.429 . S
C401 H423 0.950 . S
C402 H398 0.949 . S
C402 C410 1.574 . S
C402 C418 1.368 . S
H403 C411 0.950 . S
H404 C409 0.950 . S
H405 C410 0.949 . S
H406 C412 0.950 . S
H407 C413 0.950 . S
H408 C414 0.949 . S
C409 H404 0.950 . S
C409 C411 1.327 . S
C409 C415 1.429 . S
C410 C402 1.574 . S
C410 H405 0.949 . S
C410 C416 1.368 . S
C411 C395 1.349 . S
C411 H403 0.950 . S
C411 C409 1.327 . S
C412 C400 1.349 . S
C412 H406 0.950 . S
C412 C413 1.327 . S
C413 H407 0.950 . S
C413 C412 1.327 . S
C413 C417 1.429 . S
C414 C397 1.574 . S
C414 H408 0.949 . S
C414 C418 1.368 . S
C415 C396 1.429 . S
C415 C409 1.429 . S
C415 C416 1.523 . S
C416 C397 1.368 . S
C416 C410 1.368 . S
C416 C415 1.523 . S
C417 C401 1.429 . S
C417 C413 1.429 . S
C417 C418 1.523 . S
C418 C402 1.368 . S
C418 C414 1.368 . S
C418 C417 1.523 . S
H419 C394 0.950 . S
H420 C396 0.950 . S
H421 C397 0.949 . S
H422 C399 0.950 . S
H423 C401 0.950 . S
C424 C425 1.349 . S
C424 C426 1.327 1_655 S
C424 H449 0.950 . S
C425 C424 1.349 . S
C425 C441 1.349 . S
C426 C424 1.327 1_455 S
C426 C445 1.429 . S
C426 H450 0.950 . S
C427 C444 1.574 . S
C427 C446 1.368 . S
C427 H451 0.949 . S
H428 C432 0.949 . S
C429 C430 1.349 . S
C429 C431 1.327 . S
C429 H452 0.950 . S
C430 C429 1.349 . S
C430 C442 1.349 . S
C431 C429 1.327 . S
C431 C447 1.429 . S
C431 H453 0.950 . S
C432 H428 0.949 . S
C432 C440 1.574 . S
C432 C448 1.368 . S
H433 C441 0.950 . S
H434 C439 0.950 . S
H435 C440 0.949 . S
H436 C442 0.950 . S
H437 C443 0.950 . S
H438 C444 0.949 . S
C439 H434 0.950 . S
C439 C441 1.327 1_455 S
C439 C445 1.429 . S
C440 C432 1.574 . S
C440 H435 0.949 . S
C440 C446 1.368 . S
C441 C425 1.349 . S
C441 H433 0.950 . S
C441 C439 1.327 1_655 S
C442 C430 1.349 . S
C442 H436 0.950 . S
C442 C443 1.327 . S
C443 H437 0.950 . S
C443 C442 1.327 . S
C443 C447 1.429 . S
C444 C427 1.574 . S
C444 H438 0.949 . S
C444 C448 1.368 . S
C445 C426 1.429 . S
C445 C439 1.429 . S
C445 C446 1.523 . S
C446 C427 1.368 . S
C446 C440 1.368 . S
C446 C445 1.523 . S
C447 C431 1.429 . S
C447 C443 1.429 . S
C447 C448 1.523 . S
C448 C432 1.368 . S
C448 C444 1.368 . S
C448 C447 1.523 . S
H449 C424 0.950 . S
H450 C426 0.950 . S
H451 C427 0.949 . S
H452 C429 0.950 . S
H453 C431 0.950 . S
C454 C455 1.349 . S
C454 C456 1.327 . S
C454 H479 0.950 . S
C455 C454 1.349 . S
C455 C471 1.349 . S
C456 C454 1.327 . S
C456 C475 1.429 . S
C456 H480 0.950 . S
C457 C474 1.574 . S
C457 C476 1.368 . S
C457 H481 0.949 . S
H458 C462 0.949 . S
C459 C460 1.349 . S
C459 C461 1.327 . S
C459 H482 0.950 . S
C460 C459 1.349 . S
C460 C472 1.349 . S
C461 C459 1.327 . S
C461 C477 1.429 . S
C461 H483 0.950 . S
C462 H458 0.949 . S
C462 C470 1.574 . S
C462 C478 1.368 . S
H463 C471 0.950 . S
H464 C469 0.950 . S
H465 C470 0.949 . S
H466 C472 0.950 . S
H467 C473 0.950 . S
H468 C474 0.949 . S
C469 H464 0.950 . S
C469 C471 1.327 . S
C469 C475 1.429 . S
C470 C462 1.574 . S
C470 H465 0.949 . S
C470 C476 1.368 . S
C471 C455 1.349 . S
C471 H463 0.950 . S
C471 C469 1.327 . S
C472 C460 1.349 . S
C472 H466 0.950 . S
C472 C473 1.327 . S
C473 H467 0.950 . S
C473 C472 1.327 . S
C473 C477 1.429 . S
C474 C457 1.574 . S
C474 H468 0.949 . S
C474 C478 1.368 . S
C475 C456 1.429 . S
C475 C469 1.429 . S
C475 C476 1.523 . S
C476 C457 1.368 . S
C476 C470 1.368 . S
C476 C475 1.523 . S
C477 C461 1.429 . S
C477 C473 1.429 . S
C477 C478 1.523 . S
C478 C462 1.368 . S
C478 C474 1.368 . S
C478 C477 1.523 . S
H479 C454 0.950 . S
H480 C456 0.950 . S
H481 C457 0.949 . S
H482 C459 0.950 . S
H483 C461 0.950 . S
C484 C485 1.349 . S
C484 C486 1.327 . S
C484 H509 0.950 . S
C485 C484 1.349 . S
C485 C501 1.349 . S
C486 C484 1.327 . S
C486 C505 1.429 . S
C486 H510 0.950 . S
C487 C504 1.574 . S
C487 C506 1.368 . S
C487 H511 0.949 . S
H488 C492 0.949 . S
C489 C490 1.349 . S
C489 C491 1.327 1_565 S
C489 H512 0.950 . S
C490 C489 1.349 . S
C490 C502 1.349 . S
C491 C489 1.327 1_545 S
C491 C507 1.429 . S
C491 H513 0.950 . S
C492 H488 0.949 . S
C492 C500 1.574 . S
C492 C508 1.368 . S
H493 C501 0.950 . S
H494 C499 0.950 . S
H495 C500 0.949 . S
H496 C502 0.950 . S
H497 C503 0.950 . S
H498 C504 0.949 . S
C499 H494 0.950 . S
C499 C501 1.327 . S
C499 C505 1.429 . S
C500 C492 1.574 . S
C500 H495 0.949 . S
C500 C506 1.368 . S
C501 C485 1.349 . S
C501 H493 0.950 . S
C501 C499 1.327 . S
C502 C490 1.349 . S
C502 H496 0.950 . S
C502 C503 1.327 . S
C503 H497 0.950 . S
C503 C502 1.327 . S
C503 C507 1.429 1_565 S
C504 C487 1.574 . S
C504 H498 0.949 . S
C504 C508 1.368 . S
C505 C486 1.429 . S
C505 C499 1.429 . S
C505 C506 1.523 . S
C506 C487 1.368 . S
C506 C500 1.368 . S
C506 C505 1.523 . S
C507 C491 1.429 . S
C507 C503 1.429 1_545 S
C507 C508 1.523 . S
C508 C492 1.368 . S
C508 C504 1.368 . S
C508 C507 1.523 . S
H509 C484 0.950 . S
H510 C486 0.950 . S
H511 C487 0.949 . S
H512 C489 0.950 . S
H513 C491 0.950 . S
C514 C515 1.349 . S
C514 C516 1.327 . S
C514 H539 0.950 . S
C515 C514 1.349 . S
C515 C531 1.349 . S
C516 C514 1.327 . S
C516 C535 1.429 . S
C516 H540 0.950 . S
C517 C534 1.574 . S
C517 C536 1.368 . S
C517 H541 0.949 . S
H518 C522 0.949 . S
C519 C520 1.349 . S
C519 C521 1.327 . S
C519 H542 0.950 . S
C520 C519 1.349 . S
C520 C532 1.349 . S
C521 C519 1.327 . S
C521 C537 1.429 . S
C521 H543 0.950 . S
C522 H518 0.949 . S
C522 C530 1.574 . S
C522 C538 1.368 . S
H523 C531 0.950 . S
H524 C529 0.950 . S
H525 C530 0.949 . S
H526 C532 0.950 . S
H527 C533 0.950 . S
H528 C534 0.949 . S
C529 H524 0.950 . S
C529 C531 1.327 . S
C529 C535 1.429 . S
C530 C522 1.574 . S
C530 H525 0.949 . S
C530 C536 1.368 . S
C531 C515 1.349 . S
C531 H523 0.950 . S
C531 C529 1.327 . S
C532 C520 1.349 . S
C532 H526 0.950 . S
C532 C533 1.327 . S
C533 H527 0.950 . S
C533 C532 1.327 . S
C533 C537 1.429 . S
C534 C517 1.574 . S
C534 H528 0.949 . S
C534 C538 1.368 . S
C535 C516 1.429 . S
C535 C529 1.429 . S
C535 C536 1.523 . S
C536 C517 1.368 . S
C536 C530 1.368 . S
C536 C535 1.523 . S
C537 C521 1.429 . S
C537 C533 1.429 . S
C537 C538 1.523 . S
C538 C522 1.368 . S
C538 C534 1.368 . S
C538 C537 1.523 . S
H539 C514 0.950 . S
H540 C516 0.950 . S
H541 C517 0.949 . S
H542 C519 0.950 . S
H543 C521 0.950 . S
C544 C545 1.349 . S
C544 C546 1.327 . S
C544 H569 0.950 . S
C545 C544 1.349 . S
C545 C561 1.349 . S
C546 C544 1.327 . S
C546 C565 1.429 . S
C546 H570 0.950 . S
C547 C564 1.574 . S
C547 C566 1.368 . S
C547 H571 0.949 . S
H548 C552 0.949 . S
C549 C550 1.349 . S
C549 C551 1.327 . S
C549 H572 0.950 . S
C550 C549 1.349 . S
C550 C562 1.349 . S
C551 C549 1.327 . S
C551 C567 1.429 1_545 S
C551 H573 0.950 . S
C552 H548 0.949 . S
C552 C560 1.574 . S
C552 C568 1.368 . S
H553 C561 0.950 . S
H554 C559 0.950 . S
H555 C560 0.949 . S
H556 C562 0.950 . S
H557 C563 0.950 1_565 S
H558 C564 0.949 . S
C559 H554 0.950 . S
C559 C561 1.327 . S
C559 C565 1.429 . S
C560 C552 1.574 . S
C560 H555 0.949 . S
C560 C566 1.368 . S
C561 C545 1.349 . S
C561 H553 0.950 . S
C561 C559 1.327 . S
C562 C550 1.349 . S
C562 H556 0.950 . S
C562 C563 1.327 . S
C563 H557 0.950 1_545 S
C563 C562 1.327 . S
C563 C567 1.429 1_545 S
C564 C547 1.574 . S
C564 H558 0.949 . S
C564 C568 1.368 . S
C565 C546 1.429 . S
C565 C559 1.429 . S
C565 C566 1.523 . S
C566 C547 1.368 . S
C566 C560 1.368 . S
C566 C565 1.523 . S
C567 C551 1.429 1_565 S
C567 C563 1.429 1_565 S
C567 C568 1.523 . S
C568 C552 1.368 . S
C568 C564 1.368 . S
C568 C567 1.523 . S
H569 C544 0.950 . S
H570 C546 0.950 . S
H571 C547 0.949 . S
H572 C549 0.950 . S
H573 C551 0.950 . S
C574 C575 1.349 . S
C574 C576 1.327 . S
C574 H599 0.950 . S
C575 C574 1.349 . S
C575 C591 1.349 . S
C576 C574 1.327 . S
C576 C595 1.429 . S
C576 H600 0.950 . S
C577 C594 1.574 . S
C577 C596 1.368 . S
C577 H601 0.949 . S
H578 C582 0.949 . S
C579 C580 1.349 . S
C579 C581 1.327 . S
C579 H602 0.950 . S
C580 C579 1.349 . S
C580 C592 1.349 . S
C581 C579 1.327 . S
C581 C597 1.429 . S
C581 H603 0.950 . S
C582 H578 0.949 . S
C582 C590 1.574 . S
C582 C598 1.368 . S
H583 C591 0.950 . S
H584 C589 0.950 . S
H585 C590 0.949 . S
H586 C592 0.950 . S
H587 C593 0.950 . S
H588 C594 0.949 . S
C589 H584 0.950 . S
C589 C591 1.327 . S
C589 C595 1.429 . S
C590 C582 1.574 . S
C590 H585 0.949 . S
C590 C596 1.368 . S
C591 C575 1.349 . S
C591 H583 0.950 . S
C591 C589 1.327 . S
C592 C580 1.349 . S
C592 H586 0.950 . S
C592 C593 1.327 . S
C593 H587 0.950 . S
C593 C592 1.327 . S
C593 C597 1.429 . S
C594 C577 1.574 . S
C594 H588 0.949 . S
C594 C598 1.368 . S
C595 C576 1.429 . S
C595 C589 1.429 . S
C595 C596 1.523 . S
C596 C577 1.368 . S
C596 C590 1.368 . S
C596 C595 1.523 . S
C597 C581 1.429 . S
C597 C593 1.429 . S
C597 C598 1.523 . S
C598 C582 1.368 . S
C598 C594 1.368 . S
C598 C597 1.523 . S
H599 C574 0.950 . S
H600 C576 0.950 . S
H601 C577 0.949 . S
H602 C579 0.950 . S
H603 C581 0.950 . S
C125 C63 0.821 . S
C130 C27 0.821 . S
C155 C93 0.835 . S
C160 C55 0.835 . S
C185 C62 0.546 . S
C190 C24 0.546 . S
C215 C94 0.538 . S
C220 C58 0.538 . S
C245 C1 1.728 . S
C250 C103 1.626 . S
C275 C64 1.994 . S
C280 C31 1.864 1_655 S
C305 C33 1.626 . S
C310 C89 1.728 . S
C335 C117 1.864 1_455 S
C340 C10 1.994 . S
C365 C18 1.697 . S
C370 C11 1.697 . S
C395 C42 1.697 . S
C400 C49 1.697 1_655 S
C425 C73 1.697 . S
C430 C80 1.697 . S
C455 C104 1.697 1_455 S
C460 C111 1.697 . S
C485 C0 1.916 . S
C490 C41 1.996 . S
C515 C2 1.529 . S
C520 C32 1.641 . S
C545 C86 1.916 . S
C550 C95 1.996 . S
C575 C120 1.641 . S
C580 C72 1.529 . S
