# Generated by pormake.
# Topology snz, (6)-cn, num edge types: 1
# Building blocks:
#     Node 0, Type 0, BuildingBlock: KUMJIN_clean_sbu_0, # of connection points: 6
#     Node 1, Type 0, BuildingBlock: KUMJIN_clean_sbu_0, # of connection points: 6
#     Node 2, Type 0, BuildingBlock: KUMJIN_clean_sbu_0, # of connection points: 6
#     Node 3, Type 0, BuildingBlock: KUMJIN_clean_sbu_0, # of connection points: 6
#     Node 4, Type 0, BuildingBlock: KUMJIN_clean_sbu_0, # of connection points: 6
#     Node 5, Type 0, BuildingBlock: KUMJIN_clean_sbu_0, # of connection points: 6
#     Node 6, Type 0, BuildingBlock: KUMJIN_clean_sbu_0, # of connection points: 6
#     Node 7, Type 0, BuildingBlock: KUMJIN_clean_sbu_0, # of connection points: 6
#     Node 8, Type 0, BuildingBlock: KUMJIN_clean_sbu_0, # of connection points: 6
#     Edge 9, Type (0, 0), BuildingBlock: MIFKUJ_clean_linker_0, # of connection points: 2
#     Edge 10, Type (0, 0), BuildingBlock: MIFKUJ_clean_linker_0, # of connection points: 2
#     Edge 11, Type (0, 0), BuildingBlock: MIFKUJ_clean_linker_0, # of connection points: 2
#     Edge 12, Type (0, 0), BuildingBlock: MIFKUJ_clean_linker_0, # of connection points: 2
#     Edge 13, Type (0, 0), BuildingBlock: MIFKUJ_clean_linker_0, # of connection points: 2
#     Edge 14, Type (0, 0), BuildingBlock: MIFKUJ_clean_linker_0, # of connection points: 2
#     Edge 15, Type (0, 0), BuildingBlock: MIFKUJ_clean_linker_0, # of connection points: 2
#     Edge 16, Type (0, 0), BuildingBlock: MIFKUJ_clean_linker_0, # of connection points: 2
#     Edge 17, Type (0, 0), BuildingBlock: MIFKUJ_clean_linker_0, # of connection points: 2
#     Edge 18, Type (0, 0), BuildingBlock: MIFKUJ_clean_linker_0, # of connection points: 2
#     Edge 19, Type (0, 0), BuildingBlock: MIFKUJ_clean_linker_0, # of connection points: 2
#     Edge 20, Type (0, 0), BuildingBlock: MIFKUJ_clean_linker_0, # of connection points: 2
#     Edge 21, Type (0, 0), BuildingBlock: MIFKUJ_clean_linker_0, # of connection points: 2
#     Edge 22, Type (0, 0), BuildingBlock: MIFKUJ_clean_linker_0, # of connection points: 2
#     Edge 23, Type (0, 0), BuildingBlock: MIFKUJ_clean_linker_0, # of connection points: 2
#     Edge 24, Type (0, 0), BuildingBlock: MIFKUJ_clean_linker_0, # of connection points: 2
#     Edge 25, Type (0, 0), BuildingBlock: MIFKUJ_clean_linker_0, # of connection points: 2
#     Edge 26, Type (0, 0), BuildingBlock: MIFKUJ_clean_linker_0, # of connection points: 2
#     Edge 27, Type (0, 0), BuildingBlock: MIFKUJ_clean_linker_0, # of connection points: 2
#     Edge 28, Type (0, 0), BuildingBlock: MIFKUJ_clean_linker_0, # of connection points: 2
#     Edge 29, Type (0, 0), BuildingBlock: MIFKUJ_clean_linker_0, # of connection points: 2
#     Edge 30, Type (0, 0), BuildingBlock: MIFKUJ_clean_linker_0, # of connection points: 2
#     Edge 31, Type (0, 0), BuildingBlock: MIFKUJ_clean_linker_0, # of connection points: 2
#     Edge 32, Type (0, 0), BuildingBlock: MIFKUJ_clean_linker_0, # of connection points: 2
#     Edge 33, Type (0, 0), BuildingBlock: MIFKUJ_clean_linker_0, # of connection points: 2
#     Edge 34, Type (0, 0), BuildingBlock: MIFKUJ_clean_linker_0, # of connection points: 2
#     Edge 35, Type (0, 0), BuildingBlock: MIFKUJ_clean_linker_0, # of connection points: 2
# Relax obj value: 0.224
# Max RMSD: 0.298
# Mean RMSD: 0.201
data_MOF--net-snz--node1-KUMJIN_clean_sbu_0--edge1-MIFKUJ_clean_linker_0
_symmetry_space_group_name_H-M    P1
_symmetry_Int_Tables_number       1
_symmetry_cell_setting            triclinic
loop_
_symmetry_equiv_pos_as_xyz
'x, y, z'
_cell_length_a     74.866592
_cell_length_b     70.310836
_cell_length_c     21.190486
_cell_angle_alpha  93.496742
_cell_angle_beta   94.828845
_cell_angle_gamma 120.49486
loop_
_atom_site_label
_atom_site_type_symbol
_atom_site_fract_x
_atom_site_fract_y
_atom_site_fract_z
_atom_type_partial_charge
Eu0 Eu 0.0966 0.48394 0.1883 0.0
C1 C 0.00761 0.44666 0.23216 0.0
C2 C 0.99023 0.41263 0.15942 0.0
C3 C 0.97686 0.41401 0.25911 0.0
C4 C 0.00658 0.4349 0.17624 0.0
C5 C 0.99217 0.43669 0.27284 0.0
C6 C 0.97591 0.40196 0.20242 0.0
C7 C 0.00567 0.4731 0.33002 0.0
N8 N 0.02222 0.46863 0.24269 0.0
C9 C 0.0206 0.48218 0.28807 0.0
C10 C 0.99177 0.45014 0.32353 0.0
Eu11 Eu 0.04758 0.48307 0.17113 0.0
N12 N 0.02026 0.44599 0.13521 0.0
C13 C 0.01732 0.43644 0.07424 0.0
C14 C 0.98811 0.40219 0.09856 0.0
C15 C 1.00142 0.41433 0.05527 0.0
H16 H 0.0314 0.49994 0.29322 0.0
H17 H 0.99956 0.40663 1.00747 0.0
H18 H 0.96345 0.38476 0.19084 0.0
H19 H 0.00495 0.48379 0.36738 0.0
H20 H 0.02761 0.44559 0.04054 0.0
H21 H 0.14272 0.49409 0.41563 0.0
H22 H 0.97579 0.3851 0.08375 0.0
H23 H 0.11019 0.51915 0.07506 0.0
H24 H 0.11501 0.47374 0.32394 0.0
H25 H 0.13696 0.55716 0.06228 0.0
H26 H 0.96508 0.40593 0.29033 0.0
H27 H 0.16753 0.53447 0.4187 0.0
H28 H 0.18124 0.5686 0.36231 0.0
H29 H 0.98015 0.44315 0.35583 0.0
H30 H 0.18009 0.58548 0.26503 0.0
N31 N 0.12302 0.50257 0.27785 0.0
C32 C 0.12559 0.49144 0.32527 0.0
C33 C 0.15523 0.52565 0.37875 0.0
C34 C 0.15382 0.5365 0.32708 0.0
C35 C 0.1413 0.50288 0.37716 0.0
C36 C 0.1375 0.52423 0.27619 0.0
H37 H 0.16421 0.58091 0.15221 0.0
N38 N 0.12181 0.52086 0.17193 0.0
C39 C 0.1371 0.55077 0.10739 0.0
C40 C 0.13698 0.53362 0.22133 0.0
C41 C 0.1219 0.52903 0.11496 0.0
C42 C 0.15238 0.56422 0.15837 0.0
C43 C 0.15256 0.55573 0.21614 0.0
O44 O 0.11541 0.47888 0.12316 0.0
O45 O 0.06249 0.46305 0.15322 0.0
O46 O 0.05361 0.47783 0.27895 0.0
O47 O 0.08807 0.48569 0.29256 0.0
O48 O 0.07446 0.45052 0.21885 0.0
O49 O 0.10719 0.46028 0.2031 0.0
O50 O 0.04249 0.51129 0.16884 0.0
O51 O 0.08252 0.50525 0.17809 0.0
O52 O 0.08697 0.4806 0.07718 0.0
O53 O 0.05751 0.48404 0.06803 0.0
O54 O 0.06712 0.51407 0.24014 0.0
O55 O 0.02603 0.48383 0.09584 0.0
C56 C 0.05821 0.44593 0.18027 0.0
C57 C 0.14035 0.47048 0.17104 0.0
C58 C 0.16566 0.45917 0.2061 0.0
C59 C 0.14475 0.45463 0.19514 0.0
C60 C 0.18173 0.47968 0.1908 0.0
C61 C 0.15704 0.49097 0.15913 0.0
C62 C 0.17747 0.49539 0.16854 0.0
C63 C 0.07064 0.48147 0.31721 0.0
C64 C 0.11847 0.46562 0.15679 0.0
C65 C 0.16811 0.56844 0.26799 0.0
C66 C 0.16874 0.55884 0.32344 0.0
C67 C 0.08501 0.51987 0.22217 0.0
C68 C 0.00848 0.50238 0.12613 0.0
C69 C 0.00559 0.51953 0.1055 0.0
C70 C 0.98704 0.51957 0.11406 0.0
C71 C 0.97162 0.50236 0.14325 0.0
C72 C 0.99242 0.48508 0.15318 0.0
C73 C 0.97426 0.4852 0.16219 0.0
C74 C 0.0722 0.48213 0.04099 0.0
C75 C 0.02809 0.50237 0.11982 0.0
H76 H 0.13195 0.439 0.20562 0.0
H77 H 0.1978 0.48369 0.19514 0.0
H78 H 0.15435 0.50358 0.1416 0.0
H79 H 0.19013 0.51108 0.15788 0.0
H80 H 0.01767 0.53278 0.0834 0.0
H81 H 0.95724 0.50193 0.15002 0.0
H82 H 0.99382 0.47133 0.16706 0.0
H83 H 0.96208 0.47183 0.18354 0.0
Eu84 Eu 0.61562 0.52916 0.10747 0.0
C85 C 0.65069 0.47198 0.18391 0.0
C86 C 0.683 0.48892 0.13773 0.0
C87 C 0.6809 0.47179 0.23516 0.0
C88 C 0.66211 0.48358 0.13759 0.0
C89 C 0.65965 0.46509 0.23179 0.0
C90 C 0.69259 0.48374 0.18817 0.0
C91 C 0.62522 0.44252 0.26228 0.0
N92 N 0.63014 0.46537 0.17798 0.0
C93 C 0.61711 0.44985 0.21397 0.0
C94 C 0.64669 0.45063 0.27233 0.0
Eu95 Eu 0.61719 0.47857 0.09609 0.0
N96 N 0.6521 0.48764 0.08886 0.0
C97 C 0.66145 0.49514 1.03574 0.0
C98 C 0.69321 0.49821 0.08554 0.0
C99 C 0.68223 0.50088 1.03368 0.0
H100 H 0.6005 0.44356 0.20641 0.0
H101 H 0.68978 0.5075 0.99229 0.0
H102 H 0.70871 0.48799 0.18967 0.0
H103 H 0.61492 0.43071 0.29185 0.0
H104 H 0.65317 0.49743 0.99558 0.0
H105 H 0.6162 0.5782 0.31714 0.0
H106 H 0.70927 0.50261 0.0838 0.0
H107 H 0.57796 0.50033 0.98279 0.0
H108 H 0.63038 0.56153 0.24563 0.0
H109 H 0.54257 0.49235 0.94528 0.0
H110 H 0.68817 0.46697 0.27217 0.0
H111 H 0.57996 0.56995 0.29075 0.0
H112 H 0.54756 0.55275 0.21183 0.0
H113 H 0.65293 0.44488 0.3096 0.0
H114 H 0.52701 0.52854 0.11242 0.0
N115 N 0.60178 0.54231 0.18335 0.0
C116 C 0.61426 0.55718 0.23522 0.0
C117 C 0.58592 0.5621 0.26035 0.0
C118 C 0.57369 0.54801 0.20489 0.0
C119 C 0.60637 0.56681 0.27539 0.0
C120 C 0.58212 0.53812 0.16699 0.0
H121 H 0.52503 0.50595 1.01288 0.0
N122 N 0.58044 0.51783 0.07176 0.0
C123 C 0.55041 0.5017 0.99156 0.0
C124 C 0.57107 0.52543 0.10952 0.0
C125 C 0.57055 0.50632 1.01303 0.0
C126 C 0.54052 0.5093 1.02997 0.0
C127 C 0.55095 0.5216 0.08934 0.0
O128 O 0.61729 0.55183 1.03894 0.0
O129 O 0.6356 0.51494 0.08883 0.0
O130 O 0.62304 0.49122 0.20694 0.0
O131 O 0.61436 0.51892 0.21197 0.0
O132 O 0.64738 0.54087 0.16167 0.0
O133 O 0.63935 0.56474 0.1247 0.0
O134 O 0.59015 0.44458 0.07136 0.0
O135 O 0.59603 0.49246 0.09126 0.0
O136 O 0.61627 0.52099 0.99838 0.0
O137 O 0.61646 0.48796 0.99131 0.0
O138 O 0.5882 0.46589 0.14449 0.0
O139 O 0.6166 0.45552 1.02074 0.0
C140 C 0.65176 0.52834 0.12767 0.0
C141 C 0.62789 0.58807 0.08638 0.0
C142 C 0.64095 0.62735 0.11839 0.0
C143 C 0.64475 0.60998 0.10459 0.0
C144 C 0.62029 0.62272 0.11403 0.0
C145 C 0.60732 0.58388 0.08128 0.0
C146 C 0.60359 0.6011 0.09536 0.0
C147 C 0.61908 0.50522 0.24112 0.0
C148 C 0.63182 0.56964 0.075 0.0
C149 C 0.5423 0.531 0.12757 0.0
C150 C 0.55383 0.5445 0.1846 0.0
C151 C 0.583 0.47975 0.12652 0.0
C152 C 0.59789 0.41749 1.03472 0.0
C153 C 0.58074 0.39754 1.00284 0.0
C154 C 0.58023 0.37726 1.00511 0.0
C155 C 0.59692 0.37722 0.04083 0.0
C156 C 0.61439 0.417 0.06979 0.0
C157 C 0.6138 0.39695 0.07307 0.0
C158 C 0.61637 0.50452 0.96329 0.0
C159 C 0.59875 0.43876 1.02971 0.0
H160 H 0.66069 0.61346 0.10855 0.0
H161 H 0.61712 0.6359 0.12469 0.0
H162 H 0.59408 0.56732 0.06659 0.0
H163 H 0.58769 0.59766 0.09178 0.0
H164 H 0.5681 0.39791 0.97505 0.0
H165 H 0.59685 0.36187 0.04411 0.0
H166 H 0.62783 0.43213 0.09408 0.0
H167 H 0.62657 0.39672 0.10032 0.0
Eu168 Eu 0.56306 0.02263 0.91568 0.0
C169 C 0.60443 0.11964 1.00547 0.0
C170 C 0.58792 0.13152 0.92709 0.0
C171 C 0.59706 0.14859 1.03696 0.0
C172 C 0.59542 0.1174 0.9437 0.0
C173 C 0.60615 0.13595 0.05207 0.0
C174 C 0.58793 0.14637 0.97451 0.0
C175 C 0.62857 0.12864 0.12188 0.0
N176 N 0.61345 0.10754 1.0183 0.0
C177 C 0.62648 0.11275 0.07412 0.0
C178 C 0.61792 0.1399 0.11141 0.0
Eu179 Eu 0.60675 0.07868 0.93812 0.0
N180 N 0.59597 0.10311 0.8987 0.0
C181 C 0.59179 0.10448 0.83539 0.0
C182 C 0.58168 0.1312 0.86286 0.0
C183 C 0.58422 0.11811 0.81675 0.0
H184 H 0.63445 0.1038 0.08308 0.0
H185 H 0.58027 0.11843 0.76666 0.0
H186 H 0.58185 0.15698 0.96273 0.0
H187 H 0.63827 0.13205 0.16684 0.0
H188 H 0.59369 0.09494 0.79798 0.0
H189 H 0.5848 0.97463 0.06537 0.0
H190 H 0.57581 0.14174 0.84819 0.0
H191 H 0.53059 1.00053 0.77635 0.0
H192 H 0.57587 0.00273 0.04395 0.0
H193 H 0.52178 0.97193 0.68666 0.0
H194 H 0.59789 0.16089 0.07243 0.0
H195 H 0.584 0.94981 0.97668 0.0
H196 H 0.57503 0.93607 0.85987 0.0
H197 H 0.61961 0.15226 0.14839 0.0
H198 H 0.55817 0.93567 0.75526 0.0
N199 N 0.57216 0.99597 0.94249 0.0
C200 C 0.57608 0.99274 1.00391 0.0
C201 C 0.58086 0.96277 0.96632 0.0
C202 C 0.5747 0.96452 0.90389 0.0
C203 C 0.58106 0.97658 1.01663 0.0
C204 C 0.5699 0.98118 0.89342 0.0
H205 H 0.53753 0.94842 0.69077 0.0
N206 N 0.55218 0.99429 0.82941 0.0
C207 C 0.53264 0.97429 0.72769 0.0
C208 C 0.55971 0.98044 0.83481 0.0
C209 C 0.5377 0.9905 0.77868 0.0
C210 C 0.54168 0.96117 0.73002 0.0
C211 C 0.55476 0.96357 0.78493 0.0
O212 O 0.53342 0.99219 0.9224 0.0
O213 O 0.57146 0.05844 0.92123 0.0
O214 O 0.59641 0.07074 0.04106 0.0
O215 O 0.57219 0.03277 1.02692 0.0
O216 O 0.54915 0.03605 0.84682 0.0
O217 O 0.5393 0.02336 0.96784 0.0
O218 O 0.63146 0.07957 0.88653 0.0
O219 O 0.59807 0.04286 0.93312 0.0
O220 O 0.57322 0.02976 0.81275 0.0
O221 O 0.59871 0.06739 0.82728 0.0
O222 O 0.62031 0.06498 1.00812 0.0
O223 O 0.63783 0.10879 0.94479 0.0
C224 C 0.55877 0.05633 0.8732 0.0
C225 C 0.50403 0.99563 0.93335 0.0
C226 C 0.46758 0.97714 0.95355 0.0
C227 C 0.48864 0.98382 0.9724 0.0
C228 C 0.46218 0.9824 0.89468 0.0
C229 C 0.49832 0.00084 0.87508 0.0
C230 C 0.47748 0.9942 0.8559 0.0
C231 C 0.58389 0.05189 0.0656 0.0
C232 C 0.52585 0.00222 0.95425 0.0
C233 C 0.56162 0.94856 0.79325 0.0
C234 C 0.57138 0.94889 0.85285 0.0
C235 C 0.61053 0.04474 0.98121 0.0
C236 C 0.66606 0.10246 0.94005 0.0
C237 C 0.68272 0.10776 0.90366 0.0
C238 C 0.70147 0.10949 0.93157 0.0
C239 C 0.70328 0.10604 0.99585 0.0
C240 C 0.66872 0.09956 1.00444 0.0
C241 C 0.6871 0.10123 1.03188 0.0
C242 C 0.58636 0.04839 0.78852 0.0
C243 C 0.64583 0.09954 0.91144 0.0
H244 H 0.49315 0.98006 1.01779 0.0
H245 H 0.4461 0.97729 0.8784 0.0
H246 H 0.50988 0.00993 0.84433 0.0
H247 H 0.47316 0.99823 0.81081 0.0
H248 H 0.681 0.11019 0.85402 0.0
H249 H 0.71747 0.10742 1.01868 0.0
H250 H 0.65664 0.09605 1.03401 0.0
H251 H 0.68883 0.09885 0.08152 0.0
Eu252 Eu 0.8168 0.89574 0.29737 0.0
C253 C 0.7278 0.85703 0.24995 0.0
C254 C 0.71181 0.85731 0.1461 0.0
C255 C 0.69367 0.82563 0.20453 0.0
C256 C 0.72879 0.86726 0.19575 0.0
C257 C 0.71002 0.83628 0.25541 0.0
C258 C 0.69455 0.83615 0.14994 0.0
C259 C 0.72508 0.8386 0.36286 0.0
N260 N 0.74374 0.8678 0.29864 0.0
C261 C 0.74243 0.85904 0.35513 0.0
C262 C 0.70891 0.82715 0.31261 0.0
Eu263 Eu 0.77227 0.90293 0.28284 0.0
N264 N 0.74557 0.88774 0.19378 0.0
C265 C 0.74512 0.90031 0.14747 0.0
C266 C 0.71221 0.86938 0.09561 0.0
C267 C 0.72873 0.89119 0.09708 0.0
H268 H 0.75481 0.86739 0.39436 0.0
H269 H 0.72885 0.90101 0.05953 0.0
H270 H 0.6815 0.82813 0.11194 0.0
H271 H 0.72423 0.83166 0.40749 0.0
H272 H 0.75783 0.91727 0.14847 0.0
H273 H 0.87312 0.97198 0.45177 0.0
H274 H 0.69945 0.86237 0.05673 0.0
H275 H 0.82652 0.87191 0.17425 0.0
H276 H 0.84134 0.93491 0.42347 0.0
H277 H 0.85264 0.88221 0.09888 0.0
H278 H 0.68002 0.80957 0.20772 0.0
H279 H 0.898 0.98841 0.37351 0.0
H280 H 0.90902 0.98356 0.26757 0.0
H281 H 0.69543 0.81155 0.31886 0.0
H282 H 0.90348 0.9589 0.17093 0.0
N283 N 0.84765 0.9308 0.32929 0.0
C284 C 0.85204 0.94189 0.38892 0.0
C285 C 0.88401 0.97219 0.36073 0.0
C286 C 0.88023 0.95989 0.30158 0.0
C287 C 0.87006 0.96292 0.40514 0.0
C288 C 0.86172 0.9389 0.28732 0.0
H289 H 0.88278 0.92077 0.10855 0.0
N290 N 0.84135 0.9045 0.22397 0.0
C291 C 0.85437 0.89455 0.13592 0.0
C292 C 0.85852 0.92522 0.23287 0.0
C293 C 0.83962 0.88878 0.17851 0.0
C294 C 0.87132 0.91635 0.1414 0.0
C295 C 0.87384 0.93187 0.19127 0.0
O296 O 0.81531 0.86375 0.30266 0.0
O297 O 0.78186 0.87796 0.29231 0.0
O298 O 0.78136 0.90494 0.39386 0.0
O299 O 0.80875 0.89802 0.4017 0.0
O300 O 0.79414 0.86559 0.22834 0.0
O301 O 0.837 0.89174 0.36974 0.0
O302 O 0.75524 0.91085 0.34832 0.0
O303 O 0.80649 0.92007 0.3167 0.0
O304 O 0.81268 0.90307 0.1908 0.0
O305 O 0.77932 0.89833 0.17787 0.0
O306 O 0.79705 0.93463 0.25046 0.0
O307 O 0.76608 0.93001 0.27031 0.0
C308 C 0.77718 0.86254 0.24803 0.0
C309 C 0.84683 0.86544 0.34111 0.0
C310 C 0.86001 0.83984 0.35253 0.0
C311 C 0.84434 0.84527 0.35927 0.0
C312 C 0.87807 0.85506 0.32723 0.0
C313 C 0.86506 0.88013 0.31617 0.0
C314 C 0.88048 0.87491 0.30915 0.0
C315 C 0.79515 0.90173 0.42945 0.0
C316 C 0.83056 0.87124 0.34886 0.0
C317 C 0.89166 0.95334 0.20283 0.0
C318 C 0.89482 0.96737 0.25787 0.0
C319 C 0.8127 0.93731 0.28843 0.0
C320 C 0.73259 0.92119 0.29522 0.0
C321 C 0.72969 0.93733 0.26662 0.0
C322 C 0.7093 0.93338 0.24923 0.0
C323 C 0.69202 0.9131 0.25987 0.0
C324 C 0.71486 0.901 0.30439 0.0
C325 C 0.6948 0.89705 0.2868 0.0
C326 C 0.79625 0.90096 0.15279 0.0
C327 C 0.75389 0.925 0.31426 0.0
H328 H 0.83022 0.83384 0.3782 0.0
H329 H 0.89064 0.85189 0.32252 0.0
H330 H 0.8675 0.89578 0.3026 0.0
H331 H 0.89453 0.88645 0.29014 0.0
H332 H 0.74316 0.95291 0.25872 0.0
H333 H 0.67624 0.90957 0.2466 0.0
H334 H 0.7164 0.88811 0.32513 0.0
H335 H 0.68131 0.88143 0.29414 0.0
Eu336 Eu 0.16495 0.79784 0.37021 0.0
C337 C 0.22901 0.76707 0.41632 0.0
C338 C 0.24246 0.77539 0.52871 0.0
C339 C 0.24268 0.7457 0.46432 0.0
C340 C 0.23318 0.7794 0.47448 0.0
C341 C 0.23354 0.74992 0.41049 0.0
C342 C 0.24718 0.75845 0.52332 0.0
C343 C 0.21925 0.74215 0.29913 0.0
N344 N 0.21992 0.77147 0.3657 0.0
C345 C 0.2151 0.75937 0.3073 0.0
C346 C 0.22855 0.73742 0.3509 0.0
Eu347 Eu 0.21451 0.80185 0.38256 0.0
N348 N 0.22827 0.79548 0.47793 0.0
C349 C 0.23289 0.80878 0.5337 0.0
C350 C 0.24686 0.78867 0.5865 0.0
C351 C 0.24218 0.80555 0.58888 0.0
H352 H 0.20757 0.76255 0.26715 0.0
H353 H 0.24572 0.81607 0.63312 0.0
H354 H 0.2543 0.75509 0.56443 0.0
H355 H 0.21517 0.73247 0.25296 0.0
H356 H 0.22962 0.82209 0.53542 0.0
H357 H 0.13469 0.77356 0.11766 0.0
H358 H 0.25403 0.78616 0.62928 0.0
H359 H 0.1678 0.83841 0.4702 0.0
H360 H 0.14867 0.77038 0.22404 0.0
H361 H 0.16272 0.87047 0.46558 0.0
H362 H 0.24631 0.73261 0.46084 0.0
H363 H 0.13113 0.80611 0.10132 0.0
H364 H 0.13414 0.84153 0.14838 0.0
H365 H 0.23168 0.72403 0.34446 0.0
H366 H 0.14168 0.86783 0.24308 0.0
N367 N 0.15328 0.80094 0.26652 0.0
C368 C 0.14725 0.78468 0.21707 0.0
C369 C 0.13729 0.8048 0.14792 0.0
C370 C 0.1428 0.821 0.19956 0.0
C371 C 0.13922 0.78637 0.15699 0.0
C372 C 0.15064 0.81843 0.25926 0.0
H373 H 0.15218 0.87866 0.36166 0.0
N374 N 0.16088 0.82915 0.36983 0.0
C375 C 0.16041 0.86009 0.4222 0.0
C376 C 0.15445 0.83295 0.31264 0.0
C377 C 0.16322 0.84193 0.42472 0.0
C378 C 0.1545 0.86468 0.36341 0.0
C379 C 0.15116 0.85087 0.30776 0.0
O380 O 0.13886 0.78954 0.4246 0.0
O381 O 0.18985 0.79927 0.44618 0.0
O382 O 0.19092 0.76643 0.39354 0.0
O383 O 0.16207 0.76445 0.3376 0.0
O384 O 0.16695 0.80157 0.48092 0.0
O385 O 0.13382 0.76847 0.3387 0.0
O386 O 0.24115 0.8163 0.3286 0.0
O387 O 0.18913 0.79962 0.30615 0.0
O388 O 0.19036 0.83391 0.36679 0.0
O389 O 0.21528 0.83193 0.431 0.0
O390 O 0.21326 0.7997 0.27211 0.0
O391 O 0.24369 0.83257 0.42127 0.0
C392 C 0.18305 0.8004 0.50129 0.0
C393 C 0.10489 0.7712 0.36733 0.0
C394 C 0.07084 0.76326 0.39576 0.0
C395 C 0.08963 0.76324 0.40941 0.0
C396 C 0.0675 0.7712 0.33937 0.0
C397 C 0.10092 0.77863 0.31084 0.0
C398 C 0.08238 0.77868 0.29715 0.0
C399 C 0.17196 0.7548 0.36175 0.0
C400 C 0.12515 0.77257 0.38437 0.0
C401 C 0.14424 0.85411 0.2479 0.0
C402 C 0.14 0.83916 0.19394 0.0
C403 C 0.19648 0.79948 0.25144 0.0
C404 C 0.27502 0.83736 0.38651 0.0
C405 C 0.28913 0.84805 0.34285 0.0
C406 C 0.31009 0.85341 0.35463 0.0
C407 C 0.31657 0.84753 0.41064 0.0
C408 C 0.28188 0.83169 0.44197 0.0
C409 C 0.30253 0.83671 0.45374 0.0
C410 C 0.20837 0.84377 0.4042 0.0
C411 C 0.25336 0.83249 0.37308 0.0
H412 H 0.09254 0.75744 0.45314 0.0
H413 H 0.05317 0.77125 0.32734 0.0
H414 H 0.11209 0.78444 0.27725 0.0
H415 H 0.07953 0.78454 0.25354 0.0
H416 H 0.28373 0.8522 0.29968 0.0
H417 H 0.33261 0.85166 0.42189 0.0
H418 H 0.27138 0.8235 0.47634 0.0
H419 H 0.30774 0.83238 0.49679 0.0
Eu420 Eu 0.24015 0.27514 0.3874 0.0
C421 C 0.30619 0.37007 0.51372 0.0
C422 C 0.29733 0.39414 0.46013 0.0
C423 C 0.31419 0.40525 0.56995 0.0
C424 C 0.29698 0.3739 0.46081 0.0
C425 C 0.31555 0.38605 0.56818 0.0
C426 C 0.30524 0.40938 0.51578 0.0
C427 C 0.33053 0.36522 0.60954 0.0
N428 N 0.30839 0.35209 0.50859 0.0
C429 C 0.32122 0.35003 0.5542 0.0
C430 C 0.32731 0.38307 0.6172 0.0
Eu431 Eu 0.29182 0.32651 0.41391 0.0
N432 N 0.29053 0.35935 0.40711 0.0
C433 C 0.28658 0.36522 0.34975 0.0
C434 C 0.29136 0.39924 0.40224 0.0
C435 C 0.28637 0.38492 0.34657 0.0
H436 H 0.32378 0.33627 0.54884 0.0
H437 H 0.28259 0.38914 0.30109 0.0
H438 H 0.30569 0.42501 0.5164 0.0
H439 H 0.34014 0.36313 0.64623 0.0
H440 H 0.28314 0.35449 0.30623 0.0
H441 H 0.24333 0.21894 0.55235 0.0
H442 H 0.2918 0.41478 0.39925 0.0
H443 H 0.21216 0.25583 0.24099 0.0
H444 H 0.23992 0.24992 0.52163 0.0
H445 H 0.20276 0.2261 0.15367 0.0
H446 H 0.32113 0.41764 0.61151 0.0
H447 H 0.24425 0.19309 0.4701 0.0
H448 H 0.23927 0.1797 0.35384 0.0
H449 H 0.33475 0.39498 0.65974 0.0
H450 H 0.22766 0.18144 0.2433 0.0
N451 N 0.24064 0.24352 0.4223 0.0
C452 C 0.24096 0.23954 0.48474 0.0
C453 C 0.24304 0.20701 0.45614 0.0
C454 C 0.24035 0.20966 0.39192 0.0
C455 C 0.24249 0.22153 0.50261 0.0
C456 C 0.23873 0.22804 0.37645 0.0
H457 H 0.21297 0.1981 0.16865 0.0
N458 N 0.228 0.24513 0.30429 0.0
C459 C 0.21121 0.22678 0.1986 0.0
C460 C 0.23218 0.22893 0.31486 0.0
C461 C 0.21646 0.24351 0.24832 0.0
C462 C 0.21714 0.21112 0.20705 0.0
C463 C 0.22716 0.21163 0.26642 0.0
O464 O 0.2063 0.25988 0.3618 0.0
O465 O 0.25703 0.31261 0.40034 0.0
O466 O 0.28022 0.32165 0.51494 0.0
O467 O 0.25157 0.28542 0.49868 0.0
O468 O 0.23195 0.2958 0.32795 0.0
O469 O 0.2198 0.27354 0.45853 0.0
O470 O 0.32423 0.33388 0.41929 0.0
O471 O 0.2746 0.28907 0.39842 0.0
O472 O 0.25179 0.2819 0.28577 0.0
O473 O 0.28098 0.31775 0.30247 0.0
O474 O 0.30181 0.30506 0.46253 0.0
O475 O 0.3114 0.34252 0.33972 0.0
C476 C 0.24587 0.31511 0.3566 0.0
C477 C 0.18437 0.24392 0.44073 0.0
C478 C 0.14854 0.22612 0.46852 0.0
C479 C 0.16633 0.24479 0.45086 0.0
C480 C 0.14944 0.20691 0.4772 0.0
C481 C 0.1846 0.22442 0.44908 0.0
C482 C 0.16729 0.20613 0.46763 0.0
C483 C 0.26565 0.30366 0.53836 0.0
C484 C 0.20255 0.26296 0.41899 0.0
C485 C 0.23098 0.19461 0.28013 0.0
C486 C 0.2376 0.19364 0.34301 0.0
C487 C 0.2865 0.28598 0.43754 0.0
C488 C 0.34761 0.36614 0.37418 0.0
C489 C 0.36436 0.37007 0.33964 0.0
C490 C 0.38219 0.39175 0.34377 0.0
C491 C 0.38312 0.40902 0.3838 0.0
C492 C 0.34913 0.38386 0.4132 0.0
C493 C 0.36677 0.40507 0.41825 0.0
C494 C 0.26665 0.29979 0.26252 0.0
C495 C 0.32819 0.34398 0.36833 0.0
H496 H 0.16597 0.25972 0.4435 0.0
H497 H 0.13631 0.19243 0.49184 0.0
H498 H 0.19809 0.22328 0.44069 0.0
H499 H 0.16766 0.19118 0.47424 0.0
H500 H 0.36331 0.35658 0.30877 0.0
H501 H 0.39663 0.42572 0.38858 0.0
H502 H 0.33659 0.38139 0.43949 0.0
H503 H 0.36769 0.41856 0.4487 0.0
Eu504 Eu 0.39433 0.12857 0.55513 0.0
C505 C 0.33421 0.13103 0.69282 0.0
C506 C 0.34525 0.16124 0.77672 0.0
C507 C 0.31225 0.14676 0.70849 0.0
C508 C 0.34883 0.1459 0.74242 0.0
C509 C 0.31546 0.13089 0.67645 0.0
C510 C 0.32716 0.16197 0.7584 0.0
C511 C 0.30403 0.09885 0.59957 0.0
N512 N 0.33798 0.11621 0.66184 0.0
C513 C 0.32301 0.09992 0.61661 0.0
C514 C 0.30034 0.11459 0.629 0.0
Eu515 Eu 0.36977 0.11786 0.69699 0.0
N516 N 0.36596 0.14453 0.75958 0.0
C517 C 0.37913 0.15665 0.81419 0.0
C518 C 0.35959 0.17486 0.82982 0.0
C519 C 0.37643 0.17229 0.84923 0.0
H520 H 0.32553 0.0877 0.59293 0.0
H521 H 0.3873 0.18227 0.89132 0.0
H522 H 0.32426 0.17379 0.78373 0.0
H523 H 0.29235 0.086 0.56331 0.0
H524 H 0.39209 0.15461 0.82995 0.0
H525 H 0.41186 0.06169 0.54555 0.0
H526 H 0.35741 0.18687 0.85732 0.0
H527 H 0.42401 0.18172 0.52685 0.0
H528 H 0.39058 0.07833 0.56297 0.0
H529 H 0.45919 0.20657 0.4994 0.0
H530 H 0.2981 0.14712 0.69589 0.0
H531 H 0.44772 0.08469 0.51894 0.0
H532 H 0.47529 0.12097 0.49 0.0
H533 H 0.28572 0.11387 0.61527 0.0
H534 H 0.48897 0.16059 0.48262 0.0
N535 N 0.41417 0.11101 0.54852 0.0
C536 C 0.40613 0.08881 0.55159 0.0
C537 C 0.4385 0.09227 0.52747 0.0
C538 C 0.44651 0.11485 0.5228 0.0
C539 C 0.41824 0.07921 0.54206 0.0
C540 C 0.43401 0.12403 0.53486 0.0
H541 H 0.48328 0.19269 0.48738 0.0
N542 N 0.42869 0.15451 0.53692 0.0
C543 C 0.45451 0.18977 0.50823 0.0
C544 C 0.44147 0.14635 0.52899 0.0
C545 C 0.43462 0.17565 0.52452 0.0
C546 C 0.46805 0.18187 0.50157 0.0
C547 C 0.46146 0.15983 0.51056 0.0
O548 O 0.39828 0.12409 0.45542 0.0
O549 O 0.36897 0.13007 0.60217 0.0
O550 O 0.35524 0.08484 0.63476 0.0
O551 O 0.36788 0.09227 0.5372 0.0
O552 O 0.39164 0.15893 0.56898 0.0
O553 O 0.37258 0.12768 0.47719 0.0
O554 O 0.34578 0.08575 0.7215 0.0
O555 O 0.39155 0.11198 0.6432 0.0
O556 O 0.41768 0.15693 0.63108 0.0
O557 O 0.39785 0.15351 0.71433 0.0
O558 O 0.4008 0.12286 0.74046 0.0
O559 O 0.36966 0.10997 0.79509 0.0
C560 C 0.37467 0.15025 0.59493 0.0
C561 C 0.39147 0.14749 0.39586 0.0
C562 C 0.41576 0.17069 0.32524 0.0
C563 C 0.40778 0.15231 0.35969 0.0
C564 C 0.40719 0.1844 0.3268 0.0
C565 C 0.38315 0.16151 0.39756 0.0
C566 C 0.39105 0.17987 0.36326 0.0
C567 C 0.35535 0.0786 0.57489 0.0
C568 C 0.38425 0.12864 0.43413 0.0
C569 C 0.4738 0.15064 0.49827 0.0
C570 C 0.46619 0.12816 0.50348 0.0
C571 C 0.40596 0.11715 0.68928 0.0
C572 C 0.35923 0.07206 0.79938 0.0
C573 C 0.37829 0.07805 0.83571 0.0
C574 C 0.38225 0.06175 0.8558 0.0
C575 C 0.36722 0.03921 0.8384 0.0
C576 C 0.34434 0.04939 0.7818 0.0
C577 C 0.34843 0.03309 0.80073 0.0
C578 C 0.41499 0.16441 0.68646 0.0
C579 C 0.35487 0.08928 0.77958 0.0
H580 H 0.41407 0.14142 0.35726 0.0
H581 H 0.41286 0.19842 0.29948 0.0
H582 H 0.37068 0.1584 0.42555 0.0
H583 H 0.38452 0.19052 0.36459 0.0
H584 H 0.38983 0.09543 0.85082 0.0
H585 H 0.36987 0.02645 0.85484 0.0
H586 H 0.32953 0.04427 0.75358 0.0
H587 H 0.33683 0.01568 0.78722 0.0
Eu588 Eu 0.94638 0.18101 0.77109 0.0
C589 C 0.88775 0.21802 0.69902 0.0
C590 C 0.85373 0.18613 0.65774 0.0
C591 C 0.85635 0.22015 0.70261 0.0
C592 C 0.8758 0.1963 0.66916 0.0
C593 C 0.8781 0.23012 0.71578 0.0
C594 C 0.8442 0.19824 0.67367 0.0
C595 C 0.9122 0.26155 0.75627 0.0
N596 N 0.90876 0.22728 0.71289 0.0
C597 C 0.92108 0.24911 0.73822 0.0
C598 C 0.89058 0.25197 0.74543 0.0
Eu599 Eu 0.92347 0.20645 0.67609 0.0
N600 N 0.88541 0.1846 0.65628 0.0
C601 C 0.87305 0.1621 0.63705 0.0
C602 C 0.84162 0.16371 0.63368 0.0
C603 C 0.85132 0.1516 0.62444 0.0
H604 H 0.93793 0.25707 0.7442 0.0
H605 H 0.84198 0.1339 0.60909 0.0
H606 H 0.82735 0.1906 0.66515 0.0
H607 H 0.92204 0.2786 0.7779 0.0
H608 H 0.87909 0.15124 0.63411 0.0
H609 H 0.03157 0.23211 0.77613 0.0
H610 H 0.82471 0.15535 0.62495 0.0
H611 H 0.91803 0.12503 0.76023 0.0
H612 H 0.99711 0.22431 0.79758 0.0
H613 H 0.92001 0.09283 0.71745 0.0
H614 H 0.84872 0.22919 0.71529 0.0
H615 H 0.03561 0.20279 0.72125 0.0
H616 H 0.01951 0.16291 0.67699 0.0
H617 H 0.88372 0.2617 0.75923 0.0
H618 H 0.98885 0.12513 0.65788 0.0
N619 N 0.98078 0.19081 0.7522 0.0
C620 C 0.99815 0.21123 0.77252 0.0
C621 C 0.0202 0.1992 0.72995 0.0
C622 C 1.00265 0.17794 0.71281 0.0
C623 C 0.01798 0.21577 0.76102 0.0
C624 C 0.9829 0.1741 0.72524 0.0
H625 H 0.95177 0.09877 0.67354 0.0
N626 N 0.94747 0.14904 0.73458 0.0
C627 C 0.93287 0.10955 0.71591 0.0
C628 C 0.96568 0.15264 0.71549 0.0
C629 C 0.93177 0.12783 0.73976 0.0
C630 C 0.95079 0.11298 0.69099 0.0
C631 C 0.96776 0.13466 0.69265 0.0
O632 O 0.9585 0.16924 0.84733 0.0
O633 O 0.92083 0.18884 0.76107 0.0
O634 O 0.93583 0.2229 0.77915 0.0
O635 O 0.96396 0.21847 0.79992 0.0
O636 O 0.91199 0.15667 0.77756 0.0
O637 O 0.94378 0.18762 0.871 0.0
O638 O 0.94885 0.23837 0.65235 0.0
O639 O 0.95269 0.20495 0.69995 0.0
O640 O 0.92692 0.15719 0.6814 0.0
O641 O 0.91243 0.17332 0.61637 0.0
O642 O 0.94081 0.19971 0.60325 0.0
O643 O 0.91697 0.22468 0.60854 0.0
C644 C 0.90554 0.17036 0.77024 0.0
C645 C 0.93465 0.15543 0.92162 0.0
C646 C 0.89988 0.13361 0.95438 0.0
C647 C 0.91444 0.15158 0.92534 0.0
C648 C 0.90556 0.11868 0.97669 0.0
C649 C 0.93998 0.14043 0.94452 0.0
C650 C 0.92539 0.12201 0.97123 0.0
C651 C 0.95465 0.22989 0.80937 0.0
C652 C 0.94964 0.17419 0.89008 0.0
C653 C 0.98703 0.13871 0.676 0.0
C654 C 0.00448 0.16026 0.68665 0.0
C655 C 0.95579 0.20156 0.64342 0.0
C656 C 0.94301 0.24128 0.54238 0.0
C657 C 0.92922 0.22544 0.49161 0.0
C658 C 0.9347 0.2261 0.43008 0.0
C659 C 0.95435 0.24336 0.41885 0.0
C660 C 0.96264 0.25833 0.53094 0.0
C661 C 0.96822 0.2594 0.46921 0.0
C662 C 0.91538 0.15673 0.62968 0.0
C663 C 0.93659 0.23928 0.60665 0.0
H664 H 0.9101 0.16282 0.90636 0.0
H665 H 0.89512 0.10494 1.00098 0.0
H666 H 0.95535 0.14285 0.94124 0.0
H667 H 0.92963 0.11053 0.98905 0.0
H668 H 0.91384 0.21247 0.49969 0.0
H669 H 0.95903 0.24435 0.37161 0.0
H670 H 0.97358 0.27074 0.56948 0.0
H671 H 0.98333 0.27266 0.4604 0.0
Eu672 Eu 0.84884 0.62318 0.74118 0.0
C673 C 0.92576 0.72366 0.83313 0.0
C674 C 0.95556 0.71934 0.85595 0.0
C675 C 0.961 0.75612 0.8477 0.0
C676 C 0.93363 0.71015 0.84611 0.0
C677 C 0.93933 0.74678 0.8334 0.0
C678 C 0.96911 0.74239 0.85862 0.0
C679 C 0.90922 0.74972 0.80187 0.0
N680 N 0.90483 0.71401 0.81687 0.0
C681 C 0.89649 0.72672 0.80057 0.0
C682 C 0.93076 0.75984 0.81858 0.0
Eu683 Eu 0.88306 0.67642 0.83622 0.0
N684 N 0.91997 0.68783 0.84193 0.0
C685 C 0.9279 0.67399 0.83763 0.0
C686 C 0.9633 0.70504 0.85904 0.0
C687 C 0.94938 0.68225 0.84772 0.0
H688 H 0.87981 0.71936 0.78988 0.0
H689 H 0.95517 0.67094 0.84504 0.0
H690 H 0.98592 0.74968 0.86698 0.0
H691 H 0.90239 0.75963 0.79005 0.0
H692 H 0.91813 0.6565 0.82339 0.0
H693 H 0.7863 0.64272 0.71629 0.0
H694 H 0.97997 0.7114 0.86604 0.0
H695 H 0.85002 0.58251 0.8212 0.0
H696 H 0.822 0.65091 0.71897 0.0
H697 H 0.82579 0.54969 0.86745 0.0
H698 H 0.97164 0.77383 0.84853 0.0
H699 H 0.75933 0.60771 0.75055 0.0
H700 H 0.75005 0.57242 0.79564 0.0
H701 H 0.94064 0.77765 0.81885 0.0
H702 H 0.76086 0.5476 0.83786 0.0
N703 N 0.81616 0.62038 0.7519 0.0
C704 C 0.81078 0.63526 0.73261 0.0
C705 C 0.77516 0.61105 0.75106 0.0
C706 C 0.78074 0.59618 0.77279 0.0
C707 C 0.79032 0.63081 0.73172 0.0
C708 C 0.80165 0.60136 0.77302 0.0
H709 H 0.78889 0.53914 0.86485 0.0
N710 N 0.82832 0.59343 0.80078 0.0
C711 C 0.82065 0.56045 0.84941 0.0
C712 C 0.80795 0.58769 0.79883 0.0
C713 C 0.83462 0.57973 0.82462 0.0
C714 C 0.79985 0.55454 0.84793 0.0
C715 C 0.79326 0.56819 0.82289 0.0
O716 O 0.84079 0.59043 0.69804 0.0
O717 O 0.87824 0.65594 0.74669 0.0
O718 O 0.87063 0.68194 0.73955 0.0
O719 O 0.8489 0.64798 0.67569 0.0
O720 O 0.87976 0.62911 0.7109 0.0
O721 O 0.83381 0.61117 0.6424 0.0
O722 O 0.86203 0.68826 0.86093 0.0
O723 O 0.85062 0.64608 0.8222 0.0
O724 O 0.87107 0.61976 0.81402 0.0
O725 O 0.89125 0.65294 0.88405 0.0
O726 O 0.8675 0.65544 0.91405 0.0
O727 O 0.89273 0.70172 0.91598 0.0
C728 C 0.89008 0.6505 0.72302 0.0
C729 C 0.83985 0.58503 0.58761 0.0
C730 C 0.86513 0.59221 0.51276 0.0
C731 C 0.85944 0.59871 0.56828 0.0
C732 C 0.8509 0.5709 0.47944 0.0
C733 C 0.82618 0.56398 0.55415 0.0
C734 C 0.83181 0.55688 0.50064 0.0
C735 C 0.85795 0.66996 0.68628 0.0
C736 C 0.83341 0.5924 0.64276 0.0
C737 C 0.77236 0.56266 0.82047 0.0
C738 C 0.76614 0.57668 0.7959 0.0
C739 C 0.84971 0.64172 0.87976 0.0
C740 C 0.86751 0.70507 0.96819 0.0
C741 C 0.87613 0.70319 1.0268 0.0
C742 C 0.87286 0.71116 0.08439 0.0
C743 C 0.85917 0.71931 0.08285 0.0
C744 C 0.85398 0.71338 0.96707 0.0
C745 C 0.84959 0.72014 1.02428 0.0
C746 C 0.8851 0.63181 0.86466 0.0
C747 C 0.8753 0.70191 0.90945 0.0
H748 H 0.86983 0.61456 0.59611 0.0
H749 H 0.85384 0.56509 0.43538 0.0
H750 H 0.81109 0.55313 0.56916 0.0
H751 H 0.82107 0.54068 0.47435 0.0
H752 H 0.88597 0.69601 1.02738 0.0
H753 H 0.85614 0.72534 0.12652 0.0
H754 H 0.84732 0.71524 0.92212 0.0
H755 H 0.83922 0.72665 1.02319 0.0
H756 H 0.09859 0.47753 0.96106 0.0
H757 H 0.09814 0.47675 0.84502 0.0
H758 H 0.0451 0.4854 0.83073 0.0
H759 H 0.04519 0.4855 0.94676 0.0
H760 H 0.03835 0.46164 0.7273 0.0
H761 H 0.10294 0.52805 0.8101 0.0
H762 H 0.13758 0.5507 0.87477 0.0
H763 H 0.15926 0.51212 0.77928 0.0
H764 H 0.12465 0.48905 0.7146 0.0
H765 H 0.04429 0.48592 0.39795 0.0
H766 H 0.04436 0.48613 0.51332 0.0
H767 H 0.09704 0.47691 0.5273 0.0
H768 H 0.09697 0.47692 0.41163 0.0
H769 H 0.10388 0.50087 0.63079 0.0
H770 H 0.03898 0.43454 0.5474 0.0
H771 H 0.00453 0.41276 0.4812 0.0
H772 H 0.98349 0.45186 0.57726 0.0
H773 H 0.01792 0.47408 0.64346 0.0
C774 C 0.08675 0.47934 0.93384 0.0
C775 C 0.07201 0.48171 0.96647 0.0
C776 C 0.0866 0.47911 0.8658 0.0
C777 C 0.07186 0.48153 0.82512 0.0
C778 C 0.05693 0.48356 0.85784 0.0
C779 C 0.05704 0.4837 0.92586 0.0
C780 C 0.07183 0.48178 0.7502 0.0
C781 C 0.05286 0.47058 0.70721 0.0
C782 C 0.09032 0.49281 0.71954 0.0
C783 C 0.11115 0.50669 0.758 0.0
C784 C 0.11506 0.52432 0.80316 0.0
C785 C 0.13469 0.53724 0.8398 0.0
C786 C 0.15059 0.53281 0.83126 0.0
C787 C 0.14692 0.5155 0.78592 0.0
C788 C 0.1273 0.50251 0.74924 0.0
C789 C 0.05577 0.48355 0.42455 0.0
C790 C 0.07045 0.48117 0.39167 0.0
C791 C 0.05582 0.48363 0.4925 0.0
C792 C 0.07043 0.48102 0.53308 0.0
C793 C 0.08531 0.47894 0.5003 0.0
C794 C 0.08528 0.47897 0.43234 0.0
C795 C 0.07042 0.48071 0.60795 0.0
C796 C 0.08938 0.4919 0.65091 0.0
C797 C 0.05192 0.46972 0.63857 0.0
C798 C 0.03109 0.4561 0.59994 0.0
C799 C 0.02702 0.43854 0.55424 0.0
C800 C 0.00751 0.42612 0.51669 0.0
C801 C 0.99185 0.43097 0.52488 0.0
C802 C 0.99564 0.44816 0.57089 0.0
C803 C 0.01515 0.46066 0.60847 0.0
H804 H 0.97677 0.42137 0.49568 0.0
H805 H 0.16578 0.54283 0.85968 0.0
H806 H 0.61591 0.53489 0.88244 0.0
H807 H 0.6168 0.53538 0.76703 0.0
H808 H 0.61846 0.47503 0.75516 0.0
H809 H 0.61801 0.47481 0.87102 0.0
H810 H 0.64092 0.49604 0.67057 0.0
H811 H 0.57259 0.48301 0.69609 0.0
H812 H 0.54704 0.49081 0.73907 0.0
H813 H 0.57548 0.55393 0.66588 0.0
H814 H 0.60137 0.54661 0.62314 0.0
H815 H 0.62435 0.4778 0.32409 0.0
H816 H 0.62306 0.47665 0.43852 0.0
H817 H 0.614 0.53244 0.44854 0.0
H818 H 0.61374 0.53235 0.33291 0.0
H819 H 0.59536 0.51369 0.53515 0.0
H820 H 0.66431 0.52787 0.51234 0.0
H821 H 0.69035 0.52079 0.46969 0.0
H822 H 0.66183 0.45693 0.5385 0.0
H823 H 0.6355 0.46355 0.58099 0.0
C824 C 0.61638 0.52154 0.85584 0.0
C825 C 0.61672 0.50472 0.88909 0.0
C826 C 0.61672 0.52171 0.78806 0.0
C827 C 0.61727 0.50498 0.74814 0.0
C828 C 0.61795 0.48836 0.7817 0.0
C829 C 0.61759 0.48818 0.8495 0.0
C830 C 0.61734 0.50484 0.67324 0.0
C831 C 0.63064 0.49968 0.64159 0.0
C832 C 0.60462 0.50999 0.63172 0.0
C833 C 0.58903 0.51436 0.65699 0.0
C834 C 0.57346 0.4986 0.68948 0.0
C835 C 0.55891 0.50293 0.71377 0.0
C836 C 0.55967 0.52287 0.70536 0.0
C837 C 0.57494 0.5385 0.67245 0.0
C838 C 0.58954 0.53427 0.64815 0.0
C839 C 0.62204 0.4899 0.34984 0.0
C840 C 0.61929 0.50522 0.3157 0.0
C841 C 0.62163 0.48952 0.41753 0.0
C842 C 0.61907 0.50492 0.45707 0.0
C843 C 0.61615 0.52015 0.4227 0.0
C844 C 0.61618 0.52023 0.35477 0.0
C845 C 0.61906 0.50503 0.53216 0.0
C846 C 0.60573 0.51013 0.56395 0.0
C847 C 0.63189 0.50001 0.57391 0.0
C848 C 0.64783 0.49612 0.54926 0.0
C849 C 0.66357 0.51229 0.51816 0.0
C850 C 0.67836 0.50836 0.49401 0.0
C851 C 0.6777 0.48839 0.50121 0.0
C852 C 0.6623 0.47236 0.53285 0.0
C853 C 0.64745 0.47621 0.55703 0.0
H854 H 0.68915 0.48536 0.48239 0.0
H855 H 0.5484 0.5262 0.72421 0.0
H856 H 0.56132 0.01448 0.68655 0.0
H857 H 0.56037 0.01496 0.57118 0.0
H858 H 0.6109 0.08311 0.60013 0.0
H859 H 0.61125 0.08276 0.71615 0.0
H860 H 0.59024 0.08201 0.49858 0.0
H861 H 0.61138 0.02939 0.53886 0.0
H862 H 0.60857 0.996 0.57981 0.0
H863 H 0.54923 0.9549 0.46326 0.0
H864 H 0.55159 0.98809 0.42215 0.0
H865 H 0.60941 0.08563 0.16771 0.0
H866 H 0.61033 0.08512 0.28305 0.0
H867 H 0.55969 0.01703 0.25399 0.0
H868 H 0.55928 0.01743 0.13792 0.0
H869 H 0.58037 0.01811 0.35558 0.0
H870 H 0.55927 0.07076 0.3152 0.0
H871 H 0.56209 0.10416 0.27433 0.0
H872 H 0.62137 0.14524 0.39117 0.0
H873 H 0.61902 0.11204 0.43218 0.0
C874 C 0.57239 0.02967 0.66928 0.0
C875 C 0.58641 0.04847 0.71408 0.0
C876 C 0.57201 0.02993 0.60138 0.0
C877 C 0.5859 0.04895 0.57272 0.0
C878 C 0.59982 0.06787 0.61759 0.0
C879 C 0.60009 0.06763 0.68561 0.0
C880 C 0.5858 0.04927 0.4978 0.0
C881 C 0.58837 0.06797 0.46823 0.0
C882 C 0.58291 0.03121 0.454 0.0
C883 C 0.58157 0.01123 0.47792 0.0
C884 C 0.5977 0.01323 0.52219 0.0
C885 C 0.59619 0.99435 0.54542 0.0
C886 C 0.57871 0.97335 0.52429 0.0
C887 C 0.56274 0.97118 0.47966 0.0
C888 C 0.56417 0.99002 0.45633 0.0
C889 C 0.59823 0.07048 0.18491 0.0
C890 C 0.5841 0.05172 0.14008 0.0
C891 C 0.59864 0.07019 0.25281 0.0
C892 C 0.58471 0.05118 0.28144 0.0
C893 C 0.57077 0.03228 0.23654 0.0
C894 C 0.57047 0.03254 0.16852 0.0
C895 C 0.58482 0.05086 0.35636 0.0
C896 C 0.58225 0.03215 0.38593 0.0
C897 C 0.58771 0.06892 0.40016 0.0
C898 C 0.58906 0.0889 0.37626 0.0
C899 C 0.57295 0.08691 0.33194 0.0
C900 C 0.57446 0.1058 0.30876 0.0
C901 C 0.59193 0.1268 0.33 0.0
C902 C 0.60787 0.12896 0.37468 0.0
C903 C 0.60645 0.11011 0.39795 0.0
H904 H 0.59308 0.1414 0.31194 0.0
H905 H 0.57755 0.95875 0.5424 0.0
H906 H 0.824 0.90142 0.52331 0.0
H907 H 0.8249 0.90203 0.63913 0.0
H908 H 0.7677 0.90296 0.62619 0.0
H909 H 0.76732 0.90328 0.50999 0.0
H910 H 0.78508 0.92418 0.73315 0.0
H911 H 0.77752 0.85435 0.66417 0.0
H912 H 0.78591 0.8283 0.6103 0.0
H913 H 0.84617 0.86103 0.72436 0.0
H914 H 0.83823 0.88745 0.7784 0.0
H915 H 0.76499 0.89433 0.05433 0.0
H916 H 0.76516 0.89506 0.93915 0.0
H917 H 0.8281 0.90807 0.96012 0.0
H918 H 0.82814 0.90815 0.07636 0.0
H919 H 0.80787 0.8797 0.85052 0.0
H920 H 0.8135 0.94869 0.92206 0.0
H921 H 0.8032 0.97287 0.97697 0.0
H922 H 0.74379 0.93898 0.858 0.0
H923 H 0.75364 0.91439 0.8029 0.0
C924 C 0.81145 0.90171 0.54438 0.0
C925 C 0.79553 0.9022 0.50407 0.0
C926 C 0.81182 0.9018 0.61239 0.0
C927 C 0.79606 0.90191 0.64555 0.0
C928 C 0.78029 0.90274 0.60518 0.0
C929 C 0.78002 0.90288 0.53707 0.0
C930 C 0.79612 0.90144 0.72053 0.0
C931 C 0.78984 0.91405 0.75764 0.0
C932 C 0.80251 0.88882 0.7571 0.0
C933 C 0.80738 0.87303 0.72479 0.0
C934 C 0.79262 0.85608 0.67746 0.0
C935 C 0.79728 0.84124 0.64694 0.0
C936 C 0.81658 0.84305 0.66376 0.0
C937 C 0.83124 0.85967 0.71129 0.0
C938 C 0.82667 0.87458 0.7419 0.0
C939 C 0.77912 0.8977 1.03561 0.0
C940 C 0.79657 0.9013 0.07834 0.0
C941 C 0.77921 0.89808 0.96787 0.0
C942 C 0.79672 0.90184 0.93717 0.0
C943 C 0.8141 0.90506 0.97955 0.0
C944 C 0.8141 0.90504 0.04762 0.0
C945 C 0.79682 0.90238 0.86254 0.0
C946 C 0.80313 0.88979 0.82568 0.0
C947 C 0.79016 0.91474 0.82612 0.0
C948 C 0.78423 0.92956 0.85879 0.0
C949 C 0.79818 0.94629 0.9079 0.0
C950 C 0.79243 0.96009 0.93902 0.0
C951 C 0.77283 0.95742 0.9211 0.0
C952 C 0.75896 0.941 0.87189 0.0
C953 C 0.76462 0.92714 0.84066 0.0
H954 H 0.7684 0.96811 0.94526 0.0
H955 H 0.82016 0.83155 0.64007 0.0
H956 H 0.1809 0.82696 0.60039 0.0
H957 H 0.18176 0.82645 0.71523 0.0
H958 H 0.19678 0.77512 0.70281 0.0
H959 H 0.19473 0.77492 0.58537 0.0
H960 H 0.17875 0.76609 0.80281 0.0
H961 H 0.23062 0.84225 0.78772 0.0
H962 H 0.24441 0.87939 0.75207 0.0
H963 H 0.1962 0.88535 0.83076 0.0
H964 H 0.18202 0.84816 0.86631 0.0
H965 H 0.1976 0.77213 0.15214 0.0
H966 H 0.19691 0.77268 1.03736 0.0
H967 H 0.18432 0.82581 0.05024 0.0
H968 H 0.18635 0.82602 0.16762 0.0
H969 H 0.20106 0.83393 0.94969 0.0
H970 H 0.14885 0.75801 0.96378 0.0
H971 H 0.13438 0.72067 0.99845 0.0
H972 H 0.18238 0.71398 0.92096 0.0
H973 H 0.19724 0.75137 0.88638 0.0
C974 C 0.18513 0.81584 0.62098 0.0
C975 C 0.18894 0.80201 0.57817 0.0
C976 C 0.18572 0.81558 0.68987 0.0
C977 C 0.19017 0.80133 0.72516 0.0
C978 C 0.19361 0.78701 0.68236 0.0
C979 C 0.19286 0.78718 0.61259 0.0
C980 C 0.19048 0.80105 0.80314 0.0
C981 C 0.18403 0.78132 0.83371 0.0
C982 C 0.19661 0.82001 0.84993 0.0
C983 C 0.20517 0.84237 0.82913 0.0
C984 C 0.22293 0.85147 0.7972 0.0
C985 C 0.23081 0.87252 0.77702 0.0
C986 C 0.22115 0.8847 0.78901 0.0
C987 C 0.20365 0.87589 0.82142 0.0
C988 C 0.19569 0.85484 0.84164 0.0
C989 C 0.19392 0.78367 0.13163 0.0
C990 C 0.19072 0.79798 0.17452 0.0
C991 C 0.19342 0.78395 0.06273 0.0
C992 C 0.18965 0.79867 1.02751 0.0
C993 C 0.18691 0.81352 0.0705 0.0
C994 C 0.18767 0.81339 0.14026 0.0
C995 C 0.18935 0.79895 0.94948 0.0
C996 C 0.19581 0.81869 0.91886 0.0
C997 C 0.18314 0.77997 0.90261 0.0
C998 C 0.17426 0.75755 0.9231 0.0
C999 C 0.15635 0.7486 0.95439 0.0
C1000 C 0.14809 0.72743 0.97401 0.0
C1001 C 0.15749 0.71498 0.96207 0.0
C1002 C 0.17514 0.72365 0.93029 0.0
C1003 C 0.18348 0.74482 0.91063 0.0
H1004 H 0.15108 0.69861 0.97733 0.0
H1005 H 0.22726 0.90098 0.77329 0.0
H1006 H 0.29076 0.33749 0.64066 0.0
H1007 H 0.2912 0.33722 0.75629 0.0
H1008 H 0.23961 0.26968 0.72708 0.0
H1009 H 0.23914 0.27008 0.61119 0.0
H1010 H 0.23288 0.28629 0.82763 0.0
H1011 H 0.2965 0.29032 0.79018 0.0
H1012 H 0.33031 0.30553 0.74892 0.0
H1013 H 0.35369 0.36774 0.865 0.0
H1014 H 0.31977 0.35299 0.90616 0.0
H1015 H 0.24095 0.26667 0.15903 0.0
H1016 H 0.24071 0.26732 0.0438 0.0
H1017 H 0.29255 0.33473 0.07486 0.0
H1018 H 0.29283 0.33391 0.19096 0.0
H1019 H 0.29929 0.31838 0.97333 0.0
H1020 H 0.23533 0.3141 1.01061 0.0
H1021 H 0.20105 0.29885 0.04945 0.0
H1022 H 0.17827 0.23686 0.93287 0.0
H1023 H 0.21252 0.25166 0.89393 0.0
C1024 C 0.27964 0.32232 0.65796 0.0
C1025 C 0.26535 0.30364 0.61298 0.0
C1026 C 0.27988 0.32212 0.72596 0.0
C1027 C 0.26578 0.3032 0.75464 0.0
C1028 C 0.25106 0.28472 0.70963 0.0
C1029 C 0.25089 0.28492 0.64156 0.0
C1030 C 0.26625 0.3027 0.8297 0.0
C1031 C 0.24757 0.29312 0.85862 0.0
C1032 C 0.28501 0.3118 0.87424 0.0
C1033 C 0.30553 0.32063 0.85074 0.0
C1034 C 0.30881 0.30728 0.80669 0.0
C1035 C 0.32801 0.31583 0.78331 0.0
C1036 C 0.34416 0.33761 0.80421 0.0
C1037 C 0.34115 0.35087 0.84876 0.0
C1038 C 0.32194 0.34244 0.87214 0.0
C1039 C 0.25231 0.28182 0.14238 0.0
C1040 C 0.26676 0.30022 0.18791 0.0
C1041 C 0.25211 0.28229 0.07449 0.0
C1042 C 0.26633 0.30128 0.04636 0.0
C1043 C 0.28108 0.31959 0.09189 0.0
C1044 C 0.28122 0.31913 0.15995 0.0
C1045 C 0.2659 0.30195 0.97133 0.0
C1046 C 0.2846 0.31156 0.9424 0.0
C1047 C 0.24714 0.29285 0.92674 0.0
C1048 C 0.22655 0.28391 0.94989 0.0
C1049 C 0.22305 0.29717 0.99358 0.0
C1050 C 0.20362 0.28861 1.01558 0.0
C1051 C 0.18751 0.26688 0.99378 0.0
C1052 C 0.19078 0.25368 0.9498 0.0
C1053 C 0.21019 0.26215 0.92772 0.0
H1054 H 0.17248 0.26029 1.01086 0.0
H1055 H 0.35901 0.34419 0.78597 0.0
H1056 H 0.41201 0.17294 0.19844 0.0
H1057 H 0.42942 0.16311 0.12267 0.0
H1058 H 0.47162 0.16445 0.27753 0.0
H1059 H 0.45328 0.17325 0.354 0.0
H1060 H 0.46241 0.17049 0.07779 0.0
H1061 H 0.47595 0.12149 0.25539 0.0
H1062 H 0.46634 0.10799 0.35956 0.0
H1063 H 0.40627 0.10137 0.31515 0.0
H1064 H 0.41555 0.11482 0.21095 0.0
H1065 H 0.42341 0.08505 0.83914 0.0
H1066 H 0.45253 0.10768 0.92404 0.0
H1067 H 0.41011 0.07964 0.06389 0.0
H1068 H 0.38201 0.05574 0.97958 0.0
H1069 H 0.44454 0.09494 0.12342 0.0
H1070 H 0.41817 0.13042 0.96938 0.0
H1071 H 0.41426 0.14156 0.86349 0.0
H1072 H 0.47987 0.16954 0.85456 0.0
H1073 H 0.48415 0.15848 0.96085 0.0
C1074 C 0.42555 0.17207 0.21619 0.0
C1075 C 0.43105 0.17333 0.28178 0.0
C1076 C 0.4356 0.16646 0.1728 0.0
C1077 C 0.45144 0.16227 0.19443 0.0
C1078 C 0.45906 0.16696 0.25979 0.0
C1079 C 0.44867 0.1721 0.3034 0.0
C1080 C 0.45609 0.14858 0.15022 0.0
C1081 C 0.4591 0.15415 0.08802 0.0
C1082 C 0.45204 0.12732 0.1635 0.0
C1083 C 0.44651 0.1193 0.22596 0.0
C1084 C 0.46072 0.11715 0.26804 0.0
C1085 C 0.45534 0.10954 0.32702 0.0
C1086 C 0.43572 0.10387 0.34393 0.0
C1087 C 0.42145 0.1058 0.30201 0.0
C1088 C 0.42676 0.11341 0.24308 0.0
C1089 C 0.42083 0.0829 0.88828 0.0
C1090 C 0.40062 0.06887 0.90326 0.0
C1091 C 0.43736 0.09606 0.93689 0.0
C1092 C 0.43349 0.0963 1.00064 0.0
C1093 C 0.41378 0.08012 1.01544 0.0
C1094 C 0.39754 0.06638 0.9671 0.0
C1095 C 0.44743 0.11571 0.04959 0.0
C1096 C 0.44904 0.11164 0.11331 0.0
C1097 C 0.45393 0.13778 1.03715 0.0
C1098 C 0.45143 0.14353 0.97244 0.0
C1099 C 0.43172 0.13885 0.94457 0.0
C1100 C 0.42945 0.14517 0.88462 0.0
C1101 C 0.44681 0.15635 0.85241 0.0
C1102 C 0.46646 0.16092 0.87967 0.0
C1103 C 0.46882 0.15463 0.93976 0.0
H1104 H 0.44505 0.16161 0.80663 0.0
H1105 H 0.4315 0.09783 0.38928 0.0
H1106 H 0.9095 0.18164 0.437 0.0
H1107 H 0.88076 0.1541 0.3585 0.0
H1108 H 0.89661 0.2033 0.22748 0.0
H1109 H 0.92444 0.23151 0.30809 0.0
H1110 H 0.85483 0.17726 0.22044 0.0
H1111 H 0.9142 0.16592 0.22927 0.0
H1112 H 0.93959 0.1571 0.27977 0.0
H1113 H 0.88923 0.09432 0.31852 0.0
H1114 H 0.86353 0.10313 0.27009 0.0
H1115 H 0.89395 0.16853 0.9819 0.0
H1116 H 0.87023 0.16846 0.04984 0.0
H1117 H 0.83725 0.09691 1.03537 0.0
H1118 H 0.86129 0.09665 0.96476 0.0
H1119 H 0.86213 0.11418 0.14147 0.0
H1120 H 0.80927 0.12369 0.06309 0.0
H1121 H 0.78622 0.13363 1.00272 0.0
H1122 H 0.82802 0.20247 0.07298 0.0
H1123 H 0.85175 0.19328 0.13182 0.0
C1124 C 0.9067 0.18672 0.39177 0.0
C1125 C 0.9192 0.20884 0.37881 0.0
C1126 C 0.89026 0.17091 0.34696 0.0
C1127 C 0.88647 0.17663 0.28724 0.0
C1128 C 0.89909 0.19859 0.27369 0.0
C1129 C 0.9153 0.21459 0.31915 0.0
C1130 C 0.87081 0.15947 0.23624 0.0
C1131 C 0.85646 0.16358 0.20203 0.0
C1132 C 0.87156 0.14036 0.21627 0.0
C1133 C 0.88697 0.1354 0.24747 0.0
C1134 C 0.90855 0.15041 0.24956 0.0
C1135 C 0.92299 0.14541 0.27773 0.0
C1136 C 0.91603 0.12525 0.30276 0.0
C1137 C 0.8946 0.11001 0.29953 0.0
C1138 C 0.88009 0.11505 0.2721 0.0
C1139 C 0.88104 0.1525 0.98928 0.0
C1140 C 0.88045 0.13261 0.97085 0.0
C1141 C 0.86701 0.1525 1.02815 0.0
C1142 C 0.85235 0.13274 0.05006 0.0
C1143 C 0.84877 0.11247 1.02029 0.0
C1144 C 0.86289 0.1124 0.98109 0.0
C1145 C 0.84933 0.13471 0.1179 0.0
C1146 C 0.85969 0.1274 0.15914 0.0
C1147 C 0.84569 0.15147 0.14221 0.0
C1148 C 0.83221 0.15761 0.10337 0.0
C1149 C 0.81372 0.141 0.06542 0.0
C1150 C 0.80049 0.14652 1.03137 0.0
C1151 C 0.8055 0.16861 1.03493 0.0
C1152 C 0.82399 0.18531 0.0712 0.0
C1153 C 0.83735 0.17992 0.10498 0.0
H1154 H 0.79509 0.17284 1.00951 0.0
H1155 H 0.92726 0.12143 0.32432 0.0
H1156 H 0.88702 0.58401 0.42539 0.0
H1157 H 0.90611 0.60931 0.35026 0.0
H1158 H 0.90955 0.66357 0.46725 0.0
H1159 H 0.88801 0.63858 0.53663 0.0
H1160 H 0.87615 0.62555 0.31754 0.0
H1161 H 0.96059 0.71178 0.37989 0.0
H1162 H 0.99722 0.72171 0.39085 0.0
H1163 H 0.97839 0.65291 0.35716 0.0
H1164 H 0.94169 0.64256 0.33778 0.0
H1165 H 0.85744 0.70057 0.19863 0.0
H1166 H 0.87101 0.68737 0.28314 0.0
H1167 H 0.92492 0.70396 0.18755 0.0
H1168 H 0.91289 0.71981 0.10814 0.0
H1169 H 0.9349 0.70079 0.29643 0.0
H1170 H 0.87738 0.65505 0.14571 0.0
H1171 H 0.84328 0.64188 0.0829 0.0
H1172 H 0.8127 0.61942 0.24866 0.0
H1173 H 0.84691 0.63398 0.31387 0.0
C1174 C 0.89173 0.60129 0.43571 0.0
C1175 C 0.88415 0.6085 0.48493 0.0
C1176 C 0.90344 0.61592 0.39364 0.0
C1177 C 0.90883 0.63819 0.40268 0.0
C1178 C 0.90544 0.64636 0.45938 0.0
C1179 C 0.89273 0.63164 0.49932 0.0
C1180 C 0.9088 0.64959 0.34686 0.0
C1181 C 0.88911 0.64193 0.31238 0.0
C1182 C 0.926 0.67032 0.33788 0.0
C1183 C 0.94797 0.67627 0.35817 0.0
C1184 C 0.96407 0.69863 0.37452 0.0
C1185 C 0.985 0.70439 0.3818 0.0
C1186 C 0.99016 0.68793 0.37602 0.0
C1187 C 0.97437 0.66565 0.36232 0.0
C1188 C 0.95344 0.65983 0.35258 0.0
C1189 C 0.87269 0.70248 0.19743 0.0
C1190 C 0.88354 0.71002 0.14486 0.0
C1191 C 0.88035 0.6947 0.24537 0.0
C1192 C 0.89827 0.69338 0.23923 0.0
C1193 C 0.91073 0.70415 0.19239 0.0
C1194 C 0.9036 0.71286 0.14629 0.0
C1195 C 0.90192 0.67769 0.27356 0.0
C1196 C 0.92214 0.68449 0.30257 0.0
C1197 C 0.88557 0.65544 0.27412 0.0
C1198 C 0.86479 0.64582 0.23487 0.0
C1199 C 0.86342 0.64743 0.16898 0.0
C1200 C 0.84404 0.63976 0.13292 0.0
C1201 C 0.82576 0.62961 0.16154 0.0
C1202 C 0.82688 0.62729 0.22653 0.0
C1203 C 0.8463 0.63543 0.26323 0.0
H1204 H 0.81074 0.6236 0.13342 0.0
H1205 H 0.00637 0.69243 0.38125 0.0
H1206 H 0.24307 0.33352 0.25133 0.0
H1207 H 0.22998 0.35856 0.23675 0.0
H1208 H 0.22068 0.35885 0.43528 0.0
H1209 H 0.23659 0.33622 0.45097 0.0
H1210 H 0.1972 0.35462 0.23037 0.0
H1211 H 0.20638 0.38701 0.48601 0.0
H1212 H 0.23121 0.40404 0.58556 0.0
H1213 H 0.28228 0.43554 0.4761 0.0
H1214 H 0.25789 0.41755 0.37624 0.0
H1215 H 0.14252 0.41269 0.19308 0.0
H1216 H 0.15365 0.38753 0.22984 0.0
H1217 H 0.21358 0.44395 0.31081 0.0
H1218 H 0.20175 0.46875 0.28169 0.0
H1219 H 0.20769 0.4169 0.38195 0.0
H1220 H 0.20007 0.40776 0.15137 0.0
H1221 H 0.18118 0.39864 0.04244 0.0
H1222 H 0.13769 0.33279 0.08313 0.0
H1223 H 0.15623 0.34162 0.19255 0.0
C1224 C 0.23909 0.33982 0.29248 0.0
C1225 C 0.24169 0.33362 0.3528 0.0
C1226 C 0.23117 0.3539 0.284 0.0
C1227 C 0.22416 0.36118 0.33471 0.0
C1228 C 0.22666 0.35476 0.39534 0.0
C1229 C 0.23569 0.34154 0.40449 0.0
C1230 C 0.2131 0.37395 0.32189 0.0
C1231 C 0.19985 0.36839 0.26371 0.0
C1232 C 0.21568 0.39181 0.36457 0.0
C1233 C 0.23046 0.40058 0.42408 0.0
C1234 C 0.22299 0.39718 0.48346 0.0
C1235 C 0.23699 0.40686 0.53985 0.0
C1236 C 0.25839 0.42051 0.5372 0.0
C1237 C 0.26581 0.42441 0.47817 0.0
C1238 C 0.25195 0.41426 0.42171 0.0
C1239 C 0.15791 0.41979 0.21988 0.0
C1240 C 0.17133 0.44307 0.23234 0.0
C1241 C 0.16449 0.40527 0.24002 0.0
C1242 C 0.18489 0.41355 0.27156 0.0
C1243 C 0.19785 0.43673 0.28625 0.0
C1244 C 0.19111 0.45112 0.26809 0.0
C1245 C 0.19322 0.39863 0.28869 0.0
C1246 C 0.20542 0.40337 0.34826 0.0
C1247 C 0.19054 0.38077 0.24586 0.0
C1248 C 0.17936 0.37543 0.18027 0.0
C1249 C 0.1864 0.39139 0.13715 0.0
C1250 C 0.17577 0.38627 0.07534 0.0
C1251 C 0.15821 0.36518 0.05595 0.0
C1252 C 0.15127 0.34914 0.09827 0.0
C1253 C 0.16183 0.35418 0.16016 0.0
H1254 H 0.15 0.36124 1.00807 0.0
H1255 H 0.2692 0.42827 0.58083 0.0
H1256 H 0.66347 0.6578 0.04072 0.0
H1257 H 0.68764 0.69782 0.07072 0.0
H1258 H 0.68092 0.68892 0.26896 0.0
H1259 H 0.65617 0.64903 0.23829 0.0
H1260 H 0.67607 0.72118 0.24413 0.0
H1261 H 0.72755 0.70331 0.20567 0.0
H1262 H 0.74384 0.68622 0.1463 0.0
H1263 H 0.75017 0.72667 0.99609 0.0
H1264 H 0.73352 0.74371 0.05397 0.0
H1265 H 0.76684 0.83544 0.34148 0.0
H1266 H 0.74291 0.79502 0.32856 0.0
H1267 H 0.72546 0.79663 0.13076 0.0
H1268 H 0.74961 0.83711 0.14361 0.0
H1269 H 0.74376 0.76815 0.16454 0.0
H1270 H 0.66842 0.759 0.20443 0.0
H1271 H 0.64811 0.76784 0.27407 0.0
H1272 H 0.69092 0.77744 0.43809 0.0
H1273 H 0.71115 0.76818 0.36938 0.0
C1274 C 0.6676 0.66442 0.09072 0.0
C1275 C 0.65824 0.65049 0.13739 0.0
C1276 C 0.68143 0.68726 0.10796 0.0
C1277 C 0.6863 0.6965 0.1723 0.0
C1278 C 0.67744 0.68229 0.21907 0.0
C1279 C 0.66345 0.65951 0.20171 0.0
C1280 C 0.69918 0.72108 0.19022 0.0
C1281 C 0.69102 0.73135 0.22729 0.0
C1282 C 0.71871 0.73453 0.16849 0.0
C1283 C 0.7291 0.72465 0.13394 0.0
C1284 C 0.73228 0.70846 0.15977 0.0
C1285 C 0.74159 0.69878 0.1264 0.0
C1286 C 0.74799 0.70532 0.0674 0.0
C1287 C 0.74517 0.7216 0.04177 0.0
C1288 C 0.73581 0.73129 0.07487 0.0
C1289 C 0.75722 0.82724 0.29599 0.0
C1290 C 0.75948 0.83943 0.24403 0.0
C1291 C 0.74353 0.80414 0.28865 0.0
C1292 C 0.73199 0.79279 0.22905 0.0
C1293 C 0.73391 0.80507 0.17745 0.0
C1294 C 0.74764 0.82815 0.18478 0.0
C1295 C 0.72048 0.76808 0.21795 0.0
C1296 C 0.72888 0.75784 0.18162 0.0
C1297 C 0.7015 0.75454 0.24203 0.0
C1298 C 0.69163 0.76362 0.28166 0.0
C1299 C 0.67369 0.76343 0.25521 0.0
C1300 C 0.66201 0.76817 0.2946 0.0
C1301 C 0.66817 0.77313 0.36054 0.0
C1302 C 0.68618 0.77363 0.38705 0.0
C1303 C 0.69781 0.76875 0.34786 0.0
H1304 H 0.6591 0.77674 0.39099 0.0
H1305 H 0.75517 0.69778 0.04159 0.0
H1306 H 0.43559 0.98323 0.9812 0.0
H1307 H 0.4083 0.96213 0.04718 0.0
H1308 H 0.4355 0.92205 0.08648 0.0
H1309 H 0.46254 0.94273 1.01922 0.0
H1310 H 0.39333 0.89667 0.05699 0.0
H1311 H 0.4423 0.963 0.19753 0.0
H1312 H 0.46415 0.00349 0.22889 0.0
H1313 H 0.40937 0.00886 0.21109 0.0
H1314 H 0.3872 0.96843 0.17873 0.0
H1315 H 0.34086 0.84664 0.31737 0.0
H1316 H 0.36686 0.86768 0.24801 0.0
H1317 H 0.33966 0.90833 0.21921 0.0
H1318 H 0.31404 0.88785 0.29026 0.0
H1319 H 0.38115 0.93364 0.24132 0.0
H1320 H 0.33201 0.86792 0.1025 0.0
H1321 H 0.30964 0.82765 0.0684 0.0
H1322 H 0.36384 0.82123 0.07986 0.0
H1323 H 0.38654 0.86143 0.11491 0.0
C1324 C 0.43569 0.96983 1.00355 0.0
C1325 C 0.45125 0.96466 0.99492 0.0
C1326 C 0.42018 0.9579 0.04171 0.0
C1327 C 0.41994 0.94061 0.07228 0.0
C1328 C 0.43539 0.93535 0.0635 0.0
C1329 C 0.45094 0.9473 1.02548 0.0
C1330 C 0.40349 0.92787 0.11295 0.0
C1331 C 0.39085 0.90471 0.09782 0.0
C1332 C 0.39982 0.93843 0.16509 0.0
C1333 C 0.41311 0.96272 0.18509 0.0
C1334 C 0.43492 0.97284 0.19984 0.0
C1335 C 0.44737 0.99578 0.21787 0.0
C1336 C 0.43816 0.00875 0.22181 0.0
C1337 C 0.41648 0.9988 0.20792 0.0
C1338 C 0.40396 0.97587 0.18979 0.0
C1339 C 0.34045 0.86013 0.29662 0.0
C1340 C 0.32531 0.86554 0.30969 0.0
C1341 C 0.35523 0.87203 0.25637 0.0
C1342 C 0.35513 0.88949 0.22778 0.0
C1343 C 0.34004 0.89491 0.24056 0.0
C1344 C 0.32525 0.88302 0.28084 0.0
C1345 C 0.37105 0.90237 0.18566 0.0
C1346 C 0.38359 0.92557 0.20046 0.0
C1347 C 0.37455 0.89186 0.13296 0.0
C1348 C 0.36096 0.86766 0.11195 0.0
C1349 C 0.33915 0.8579 0.09827 0.0
C1350 C 0.32641 0.83508 0.07867 0.0
C1351 C 0.33531 0.82188 0.07213 0.0
C1352 C 0.35697 0.83147 0.08503 0.0
C1353 C 0.36978 0.85428 0.10471 0.0
H1354 H 0.32542 0.80422 0.05692 0.0
H1355 H 0.44782 0.0265 0.23575 0.0
H1356 H 0.54975 0.0814 0.95874 0.0
H1357 H 0.52688 0.09653 0.93288 0.0
H1358 H 0.51968 0.07326 0.73396 0.0
H1359 H 0.54273 0.05915 0.75931 0.0
H1360 H 0.52324 0.11111 0.73918 0.0
H1361 H 0.48323 0.0461 0.85269 0.0
H1362 H 0.4757 0.02627 0.94825 0.0
H1363 H 0.47229 0.07883 0.04939 0.0
H1364 H 0.48058 0.09939 0.95556 0.0
H1365 H 0.40452 0.07762 0.69296 0.0
H1366 H 0.43371 0.07198 0.7238 0.0
H1367 H 0.4766 0.14267 0.73796 0.0
H1368 H 0.44771 0.14792 0.70192 0.0
H1369 H 0.45794 0.08597 0.83493 0.0
H1370 H 0.51225 0.1554 0.73059 0.0
H1371 H 0.52543 0.17559 0.63789 0.0
H1372 H 0.50476 0.11385 0.52284 0.0
H1373 H 0.49004 0.09327 0.61363 0.0
C1374 C 0.5437 0.08014 0.90944 0.0
C1375 C 0.54845 0.06947 0.86089 0.0
C1376 C 0.53031 0.08846 0.89464 0.0
C1377 C 0.5211 0.08588 0.83119 0.0
C1378 C 0.52641 0.07567 0.78318 0.0
C1379 C 0.53971 0.06759 0.79777 0.0
C1380 C 0.50577 0.09325 0.81265 0.0
C1381 C 0.50903 0.10569 0.76081 0.0
C1382 C 0.48723 0.0867 0.84072 0.0
C1383 C 0.48265 0.07435 0.89719 0.0
C1384 C 0.48107 0.05352 0.89548 0.0
C1385 C 0.47668 0.04215 0.94933 0.0
C1386 C 0.47349 0.05124 1.00469 0.0
C1387 C 0.47479 0.0718 1.00652 0.0
C1388 C 0.47939 0.08335 0.95311 0.0
C1389 C 0.42035 0.0918 0.69936 0.0
C1390 C 0.42382 0.11314 0.69241 0.0
C1391 C 0.43711 0.08863 0.71793 0.0
C1392 C 0.45784 0.10679 0.73217 0.0
C1393 C 0.46124 0.12812 0.72469 0.0
C1394 C 0.44453 0.13119 0.70465 0.0
C1395 C 0.47519 0.10341 0.76041 0.0
C1396 C 0.47228 0.09169 0.81408 0.0
C1397 C 0.49426 0.11088 0.73478 0.0
C1398 C 0.4992 0.12278 0.67792 0.0
C1399 C 0.50966 0.1461 0.68468 0.0
C1400 C 0.51751 0.15762 0.63261 0.0
C1401 C 0.51578 0.146 0.57433 0.0
C1402 C 0.50589 0.12283 0.5678 0.0
C1403 C 0.49735 0.1112 0.61906 0.0
H1404 H 0.52217 0.15495 0.53432 0.0
H1405 H 0.47001 0.04233 0.04616 0.0
H1406 H 0.9363 0.25012 0.8673 0.0
H1407 H 0.95338 0.28579 0.93464 0.0
H1408 H 0.01336 0.2919 0.92539 0.0
H1409 H 0.99633 0.25623 0.85688 0.0
H1410 H 0.01016 0.30591 0.04597 0.0
H1411 H 0.99831 0.31859 0.83113 0.0
H1412 H 0.9775 0.31286 0.72764 0.0
H1413 H 0.93938 0.33232 0.82013 0.0
H1414 H 0.9597 0.33773 0.92446 0.0
H1415 H 0.05883 0.43367 0.05693 0.0
H1416 H 0.04077 0.39616 0.99947 0.0
H1417 H 0.01321 0.36928 0.16756 0.0
H1418 H 0.03153 0.40707 0.22548 0.0
H1419 H 1.00036 0.36554 0.96781 0.0
H1420 H 0.0081 0.31743 0.16908 0.0
H1421 H 0.03147 0.32423 0.26797 0.0
H1422 H 0.08262 0.3779 0.19384 0.0
H1423 H 0.05964 0.37122 0.09426 0.0
C1424 C 0.95315 0.25908 0.87918 0.0
C1425 C 0.96498 0.25053 0.85534 0.0
C1426 C 0.96289 0.27945 0.9181 0.0
C1427 C 0.98472 0.29175 0.93442 0.0
C1428 C 0.99651 0.28276 0.91333 0.0
C1429 C 0.98675 0.26236 0.87408 0.0
C1430 C 0.99524 0.31442 0.97084 0.0
C1431 C 0.00794 0.31891 1.029 0.0
C1432 C 0.99264 0.33156 0.94842 0.0
C1433 C 0.98041 0.32836 0.88572 0.0
C1434 C 0.98538 0.32147 0.8295 0.0
C1435 C 0.9737 0.31832 0.77067 0.0
C1436 C 0.95716 0.32227 0.76731 0.0
C1437 C 0.95223 0.32931 0.82281 0.0
C1438 C 0.96381 0.3324 0.88182 0.0
C1439 C 0.04872 0.41978 0.08137 0.0
C1440 C 0.04611 0.42326 0.14513 0.0
C1441 C 0.03842 0.39833 0.04853 0.0
C1442 C 0.02559 0.37981 0.07898 0.0
C1443 C 0.02311 0.38325 0.14305 0.0
C1444 C 0.03347 0.4048 0.17603 0.0
C1445 C 0.01512 0.35701 0.04339 0.0
C1446 C 1.00241 0.35249 0.9852 0.0
C1447 C 0.01803 0.33999 0.06526 0.0
C1448 C 0.03207 0.34396 0.12455 0.0
C1449 C 0.02435 0.33063 0.17384 0.0
C1450 C 0.03752 0.33447 0.23001 0.0
C1451 C 0.05849 0.35154 0.23727 0.0
C1452 C 0.06636 0.36474 0.18827 0.0
C1453 C 0.05325 0.36095 0.13199 0.0
H1454 H 0.06866 0.3545 0.28081 0.0
H1455 H 0.94813 0.31981 0.72172 0.0
H1456 H 0.84369 0.61516 0.97358 0.0
H1457 H 0.8143 0.59832 1.03299 0.0
H1458 H 0.78215 0.62188 0.91083 0.0
H1459 H 0.81365 0.64263 0.86228 0.0
H1460 H 0.76939 0.62339 1.00072 0.0
H1461 H 0.76985 0.54742 0.94983 0.0
H1462 H 0.78882 0.52734 0.96683 0.0
H1463 H 0.8105 0.55848 0.16024 0.0
H1464 H 0.79133 0.57823 0.14466 0.0
H1465 H 0.66367 0.54353 1.01473 0.0
H1466 H 0.69917 0.56366 0.9859 0.0
H1467 H 0.72376 0.55842 0.17131 0.0
H1468 H 0.68804 0.53827 0.20035 0.0
H1469 H 0.74241 0.54985 0.07795 0.0
H1470 H 0.72953 0.60653 0.14249 0.0
H1471 H 0.71076 0.62687 0.14791 0.0
H1472 H 0.71491 0.63576 0.94994 0.0
H1473 H 0.73339 0.61512 0.94296 0.0
C1474 C 0.83015 0.6165 0.95946 0.0
C1475 C 0.83046 0.62906 0.91019 0.0
C1476 C 0.81276 0.60622 0.99279 0.0
C1477 C 0.79469 0.60745 0.97639 0.0
C1478 C 0.79541 0.62033 0.92677 0.0
C1479 C 0.8133 0.63172 0.89657 0.0
C1480 C 0.77535 0.59654 1.0106 0.0
C1481 C 0.76342 0.6069 1.01483 0.0
C1482 C 0.76784 0.57606 1.0374 0.0
C1483 C 0.77978 0.56475 0.04534 0.0
C1484 C 0.77895 0.55018 0.99545 0.0
C1485 C 0.7896 0.53878 1.00499 0.0
C1486 C 0.80111 0.54192 0.06413 0.0
C1487 C 0.80174 0.55619 0.11427 0.0
C1488 C 0.7909 0.56738 0.10524 0.0
C1489 C 0.67665 0.54648 0.04905 0.0
C1490 C 0.67313 0.53896 0.10929 0.0
C1491 C 0.69695 0.55814 1.03276 0.0
C1492 C 0.71424 0.56272 0.07649 0.0
C1493 C 0.71071 0.55509 0.13669 0.0
C1494 C 0.69035 0.54359 0.15329 0.0
C1495 C 0.73587 0.57551 0.05887 0.0
C1496 C 0.74827 0.56585 0.06016 0.0
C1497 C 0.74397 0.59677 1.03826 0.0
C1498 C 0.73269 0.60907 0.04206 0.0
C1499 C 0.72626 0.61262 0.09991 0.0
C1500 C 0.71571 0.62424 0.10331 0.0
C1501 C 0.71161 0.63257 0.04929 0.0
C1502 C 0.71808 0.62928 0.99174 0.0
C1503 C 0.7286 0.61762 0.98804 0.0
H1504 H 0.70348 0.6416 0.05207 0.0
H1505 H 0.80937 0.53313 0.07128 0.0
H1506 H 0.90567 0.64168 0.98752 0.0
H1507 H 0.92503 0.62528 1.03495 0.0
H1508 H 0.91094 0.58416 0.85672 0.0
H1509 H 0.89079 0.59946 0.811 0.0
H1510 H 0.90722 0.56016 0.94105 0.0
H1511 H 0.96227 0.63476 0.91943 0.0
H1512 H 0.98121 0.67578 0.93628 0.0
H1513 H 0.98733 0.67464 0.13905 0.0
H1514 H 0.9685 0.63363 0.12346 0.0
H1515 H 0.98256 0.52803 0.99139 0.0
H1516 H 0.96789 0.55019 0.9526 0.0
H1517 H 0.96623 0.57104 0.14648 0.0
H1518 H 0.98044 0.54852 0.18517 0.0
H1519 H 0.97863 0.60585 0.06035 0.0
H1520 H 0.92425 0.5305 0.07734 0.0
H1521 H 0.90702 0.4897 0.05677 0.0
H1522 H 0.9007 0.49297 0.85503 0.0
H1523 H 0.91824 0.53386 0.87443 0.0
C1524 C 0.9066 0.62901 0.95879 0.0
C1525 C 0.89645 0.62174 0.89568 0.0
C1526 C 0.9179 0.61978 0.9857 0.0
C1527 C 0.91987 0.60358 0.9494 0.0
C1528 C 0.9097 0.59645 0.88634 0.0
C1529 C 0.89807 0.60524 0.86011 0.0
C1530 C 0.93206 0.59359 0.97638 0.0
C1531 C 0.92295 0.57034 0.96623 0.0
C1532 C 0.95249 0.60651 1.01088 0.0
C1533 C 0.96381 0.63114 1.02029 0.0
C1534 C 0.96756 0.64326 0.9676 0.0
C1535 C 0.97829 0.6665 0.97691 0.0
C1536 C 0.98534 0.67779 1.03866 0.0
C1537 C 0.98182 0.66587 0.09125 0.0
C1538 C 0.97118 0.64264 0.08221 0.0
C1539 C 0.97963 0.53787 1.02566 0.0
C1540 C 0.98278 0.53669 0.09127 0.0
C1541 C 0.97113 0.55041 1.00352 0.0
C1542 C 0.96584 0.56223 0.04662 0.0
C1543 C 0.97024 0.56217 0.11232 0.0
C1544 C 0.97838 0.54933 0.13438 0.0
C1545 C 0.95388 0.57274 1.02321 0.0
C1546 C 0.96295 0.5959 1.03463 0.0
C1547 C 0.93353 0.55984 0.989 0.0
C1548 C 0.92276 0.53525 0.97731 0.0
C1549 C 0.91935 0.52253 1.02858 0.0
C1550 C 0.9095 0.49939 1.01714 0.0
C1551 C 0.90282 0.48876 0.95462 0.0
C1552 C 0.90592 0.50124 0.90343 0.0
C1553 C 0.91581 0.5244 0.91462 0.0
H1554 H 0.89519 0.47084 0.94586 0.0
H1555 H 0.99361 0.69577 0.04573 0.0
H1556 H 0.58268 0.3461 0.9293 0.0
H1557 H 0.55398 0.31057 0.87461 0.0
H1558 H 0.50929 0.32491 0.9461 0.0
H1559 H 0.53808 0.36062 1.00127 0.0
H1560 H 0.50071 0.28172 0.96137 0.0
H1561 H 0.51544 0.32879 0.79542 0.0
H1562 H 0.53766 0.35591 0.72635 0.0
H1563 H 0.55529 0.31034 0.65324 0.0
H1564 H 0.53341 0.28306 0.72264 0.0
H1565 H 0.41128 0.19314 0.76902 0.0
H1566 H 0.43886 0.22907 0.82353 0.0
H1567 H 0.4846 0.22183 0.73085 0.0
H1568 H 0.45681 0.1859 0.67495 0.0
H1569 H 0.49224 0.26199 0.72756 0.0
H1570 H 0.47965 0.21589 0.89795 0.0
H1571 H 0.459 0.18946 0.97116 0.0
H1572 H 0.43765 0.23256 1.03562 0.0
H1573 H 0.45842 0.25949 0.96365 0.0
C1574 C 0.56674 0.3417 0.9334 0.0
C1575 C 0.56264 0.35615 0.96968 0.0
C1576 C 0.55035 0.32144 0.90184 0.0
C1577 C 0.52948 0.31511 0.90602 0.0
C1578 C 0.52528 0.32947 0.94219 0.0
C1579 C 0.54172 0.34991 0.97328 0.0
C1580 C 0.51215 0.29333 0.87325 0.0
C1581 C 0.49864 0.27749 0.91012 0.0
C1582 C 0.5098 0.28762 0.80663 0.0
C1583 C 0.52294 0.30396 0.76472 0.0
C1584 C 0.5242 0.32462 0.76504 0.0
C1585 C 0.53671 0.34001 0.72574 0.0
C1586 C 0.54792 0.33488 0.68555 0.0
C1587 C 0.54662 0.31431 0.68446 0.0
C1588 C 0.53415 0.29887 0.72373 0.0
C1589 C 0.42723 0.19896 0.76109 0.0
C1590 C 0.43188 0.18639 0.71876 0.0
C1591 C 0.44305 0.21959 0.79235 0.0
C1592 C 0.46397 0.22804 0.78271 0.0
C1593 C 0.46862 0.21565 0.73958 0.0
C1594 C 0.45273 0.19509 0.70766 0.0
C1595 C 0.48083 0.25016 0.81567 0.0
C1596 C 0.49426 0.26612 0.77882 0.0
C1597 C 0.48318 0.25594 0.88242 0.0
C1598 C 0.47045 0.23961 0.925 0.0
C1599 C 0.47044 0.21967 0.92741 0.0
C1600 C 0.45875 0.20461 0.96874 0.0
C1601 C 0.44688 0.2092 1.00751 0.0
C1602 C 0.44681 0.22898 1.00544 0.0
C1603 C 0.45862 0.24421 0.96465 0.0
H1604 H 0.43784 0.19748 1.03938 0.0
H1605 H 0.5576 0.34681 0.65514 0.0
H1606 H 0.89379 0.20027 0.80459 0.0
H1607 H 0.85861 0.19249 0.81381 0.0
H1608 H 0.83679 0.12223 0.80143 0.0
H1609 H 0.87104 0.13018 0.77797 0.0
H1610 H 0.80829 0.12189 0.74771 0.0
H1611 H 0.84822 0.16837 0.94829 0.0
H1612 H 0.87636 0.20289 1.01316 0.0
H1613 H 0.85177 0.24006 0.92748 0.0
H1614 H 0.82394 0.20594 0.8613 0.0
H1615 H 0.72135 0.08636 0.91863 0.0
H1616 H 0.75482 0.09851 0.87925 0.0
H1617 H 0.75707 0.15806 0.82821 0.0
H1618 H 0.72335 0.14584 0.86806 0.0
H1619 H 0.79345 0.16749 0.89698 0.0
H1620 H 0.75047 0.11866 0.71224 0.0
H1621 H 0.72219 0.08379 0.65051 0.0
H1622 H 0.752 0.04905 0.71831 0.0
H1623 H 0.78032 0.08365 0.78119 0.0
C1624 C 0.88119 0.18317 0.80122 0.0
C1625 C 0.88483 0.16588 0.78583 0.0
C1626 C 0.86103 0.17861 0.80924 0.0
C1627 C 0.84437 0.15658 0.80931 0.0
C1628 C 0.84875 0.13939 0.79985 0.0
C1629 C 0.86854 0.14393 0.7872 0.0
C1630 C 0.82238 0.15106 0.81746 0.0
C1631 C 0.80535 0.13167 0.78219 0.0
C1632 C 0.81776 0.16428 0.85891 0.0
C1633 C 0.83419 0.18467 0.89967 0.0
C1634 C 0.84896 0.18396 0.94336 0.0
C1635 C 0.86484 0.20342 0.9801 0.0
C1636 C 0.86584 0.22362 0.97439 0.0
C1637 C 0.85099 0.22441 0.93187 0.0
C1638 C 0.83519 0.20502 0.89467 0.0
C1639 C 0.72873 0.10181 0.89764 0.0
C1640 C 0.71961 0.11507 0.89606 0.0
C1641 C 0.7479 0.10875 0.87503 0.0
C1642 C 0.75855 0.12919 0.85028 0.0
C1643 C 0.74918 0.14219 0.84683 0.0
C1644 C 0.72981 0.13511 0.86901 0.0
C1645 C 0.78004 0.13742 0.83265 0.0
C1646 C 0.79677 0.15752 0.86452 0.0
C1647 C 0.78443 0.12457 0.7898 0.0
C1648 C 0.76746 0.10374 0.75179 0.0
C1649 C 0.75092 0.10356 0.71437 0.0
C1650 C 0.73489 0.08384 0.6791 0.0
C1651 C 0.73528 0.06421 0.68057 0.0
C1652 C 0.75172 0.06427 0.71722 0.0
C1653 C 0.76778 0.08393 0.75262 0.0
H1654 H 0.72285 0.04897 0.65324 0.0
H1655 H 0.87811 0.23866 1.00299 0.0
H1656 H 0.62446 0.02385 0.90143 0.0
H1657 H 0.6456 0.00779 0.93475 0.0
H1658 H 0.63605 0.01634 0.13021 0.0
H1659 H 0.61726 0.03468 0.09743 0.0
H1660 H 0.67269 0.0292 0.13624 0.0
H1661 H 0.61671 0.94774 1.02358 0.0
H1662 H 0.5948 0.92215 0.92703 0.0
H1663 H 0.64262 0.96105 0.81317 0.0
H1664 H 0.6651 0.98625 0.90969 0.0
H1665 H 0.68815 0.95207 0.29469 0.0
H1666 H 0.67583 0.97366 0.23945 0.0
H1667 H 0.70761 0.97231 0.08023 0.0
H1668 H 0.72013 0.95067 0.13616 0.0
H1669 H 0.66692 0.95985 0.04138 0.0
H1670 H 0.72489 0.02087 0.1707 0.0
H1671 H 0.74866 0.04222 0.26945 0.0
H1672 H 0.6983 0.04256 0.35156 0.0
H1673 H 0.67413 0.02092 0.25366 0.0
C1674 C 0.62651 0.02172 0.9512 0.0
C1675 C 0.61878 0.03006 0.99666 0.0
C1676 C 0.63851 0.01226 0.97049 0.0
C1677 C 0.64243 0.0102 1.03545 0.0
C1678 C 0.63373 0.01774 0.07995 0.0
C1679 C 0.62268 0.02804 0.06114 0.0
C1680 C 0.6568 0.00218 0.05955 0.0
C1681 C 0.67104 0.01381 0.11553 0.0
C1682 C 0.65619 0.98294 1.03146 0.0
C1683 C 0.64213 0.9693 0.97309 0.0
C1684 C 0.62236 0.95097 0.97771 0.0
C1685 C 0.60999 0.93639 0.92321 0.0
C1686 C 0.61717 0.94017 0.86382 0.0
C1687 C 0.63695 0.95829 0.85903 0.0
C1688 C 0.64957 0.97261 0.91365 0.0
C1689 C 0.69293 0.95684 0.24855 0.0
C1690 C 0.70527 0.94985 0.22003 0.0
C1691 C 0.68587 0.96919 0.2169 0.0
C1692 C 0.6908 0.97477 0.15556 0.0
C1693 C 0.70361 0.9683 0.12752 0.0
C1694 C 0.71093 0.95612 0.15971 0.0
C1695 C 0.68132 0.98599 0.11987 0.0
C1696 C 0.66838 0.97519 0.06178 0.0
C1697 C 0.68316 0.00601 0.14594 0.0
C1698 C 0.69766 0.01914 0.20489 0.0
C1699 C 0.71884 0.02536 0.20997 0.0
C1700 C 0.7324 0.03753 0.26578 0.0
C1701 C 0.72499 0.04371 0.31678 0.0
C1702 C 0.70402 0.03776 0.31202 0.0
C1703 C 0.69039 0.02556 0.25633 0.0
H1704 H 0.73551 0.05313 0.35996 0.0
H1705 H 0.60748 0.92896 0.82163 0.0
H1706 H 0.13592 0.72429 0.2821 0.0
H1707 H 0.12247 0.68445 0.2544 0.0
H1708 H 0.17373 0.69005 0.37985 0.0
H1709 H 0.18675 0.72934 0.40941 0.0
H1710 H 0.16795 0.66781 0.25786 0.0
H1711 H 0.12724 0.66624 0.42532 0.0
H1712 H 0.10294 0.67433 0.47588 0.0
H1713 H 0.05565 0.63774 0.31494 0.0
H1714 H 0.07978 0.62971 0.26299 0.0
H1715 H 0.10877 0.54646 0.33025 0.0
H1716 H 0.12632 0.58718 0.34806 0.0
H1717 H 0.11161 0.58855 0.14805 0.0
H1718 H 0.09393 0.54779 0.13032 0.0
H1719 H 0.09907 0.60733 0.302 0.0
H1720 H 0.14548 0.62306 0.12292 0.0
H1721 H 0.17229 0.62052 0.06881 0.0
H1722 H 0.20803 0.63077 0.25036 0.0
H1723 H 0.18136 0.63336 0.30528 0.0
C1724 C 0.14421 0.71701 0.30432 0.0
C1725 C 0.16263 0.73025 0.34745 0.0
C1726 C 0.13652 0.69421 0.28829 0.0
C1727 C 0.14716 0.68422 0.31471 0.0
C1728 C 0.16533 0.69735 0.35835 0.0
C1729 C 0.1728 0.71993 0.3751 0.0
C1730 C 0.13969 0.66022 0.29674 0.0
C1731 C 0.15286 0.65463 0.26761 0.0
C1732 C 0.11994 0.64289 0.30857 0.0
C1733 C 0.10539 0.64759 0.33997 0.0
C1734 C 0.11172 0.66009 0.40047 0.0
C1735 C 0.09797 0.66463 0.42943 0.0
C1736 C 0.07778 0.65661 0.39856 0.0
C1737 C 0.07129 0.64397 0.33875 0.0
C1738 C 0.085 0.63941 0.30955 0.0
C1739 C 0.11007 0.55555 0.28971 0.0
C1740 C 0.10062 0.54401 0.22856 0.0
C1741 C 0.11999 0.57881 0.29994 0.0
C1742 C 0.12051 0.59102 0.24932 0.0
C1743 C 0.11183 0.5796 0.18763 0.0
C1744 C 0.10186 0.5563 0.17743 0.0
C1745 C 0.12731 0.615 0.26288 0.0
C1746 C 0.11405 0.62056 0.29172 0.0
C1747 C 0.1468 0.63233 0.24996 0.0
C1748 C 0.16134 0.62799 0.21802 0.0
C1749 C 0.15889 0.62437 0.15117 0.0
C1750 C 0.17415 0.62317 0.12038 0.0
C1751 C 0.19191 0.62559 0.15612 0.0
C1752 C 0.19431 0.62896 0.22274 0.0
C1753 C 0.1791 0.63022 0.2537 0.0
H1754 H 0.20373 0.62469 0.13223 0.0
H1755 H 0.06716 0.66014 0.42105 0.0
H1756 H 0.54628 0.46241 0.0478 0.0
H1757 H 0.51156 0.44937 0.07951 0.0
H1758 H 0.53964 0.47369 0.27533 0.0
H1759 H 0.57422 0.48832 0.24266 0.0
H1760 H 0.49274 0.4178 0.1486 0.0
H1761 H 0.52018 0.48007 0.35227 0.0
H1762 H 0.53736 0.51967 0.3954 0.0
H1763 H 0.50954 0.5322 0.22975 0.0
H1764 H 0.49349 0.49304 0.18388 0.0
H1765 H 0.40657 0.37271 0.34007 0.0
H1766 H 0.43995 0.38743 0.29608 0.0
H1767 H 0.43158 0.43853 0.22168 0.0
H1768 H 0.39863 0.42409 0.26588 0.0
H1769 H 0.46851 0.45667 0.28883 0.0
H1770 H 0.4287 0.39502 0.12409 0.0
H1771 H 0.40596 0.35552 0.08073 0.0
H1772 H 0.45178 0.34137 0.16256 0.0
H1773 H 0.47468 0.38075 0.20715 0.0
C1774 C 0.5451 0.46637 0.09689 0.0
C1775 C 0.56317 0.47772 0.14198 0.0
C1776 C 0.52515 0.45845 0.11542 0.0
C1777 C 0.52265 0.46092 0.18002 0.0
C1778 C 0.54081 0.47245 0.22498 0.0
C1779 C 0.56075 0.48078 0.20618 0.0
C1780 C 0.50121 0.44919 0.20068 0.0
C1781 C 0.48752 0.42639 0.17933 0.0
C1782 C 0.49402 0.45996 0.24105 0.0
C1783 C 0.50638 0.48394 0.26366 0.0
C1784 C 0.51841 0.49151 0.32413 0.0
C1785 C 0.52792 0.51385 0.34908 0.0
C1786 C 0.52475 0.52852 0.31501 0.0
C1787 C 0.51224 0.52091 0.2557 0.0
C1788 C 0.50331 0.49877 0.22961 0.0
C1789 C 0.41164 0.3867 0.31284 0.0
C1790 C 0.40001 0.39729 0.3067 0.0
C1791 C 0.43077 0.39518 0.28783 0.0
C1792 C 0.43849 0.41427 0.25575 0.0
C1793 C 0.42619 0.42397 0.24665 0.0
C1794 C 0.40727 0.41563 0.27174 0.0
C1795 C 0.46 0.42545 0.23611 0.0
C1796 C 0.47373 0.44806 0.25807 0.0
C1797 C 0.46707 0.41445 0.19616 0.0
C1798 C 0.4533 0.39078 0.16954 0.0
C1799 C 0.43385 0.38345 0.13333 0.0
C1800 C 0.42094 0.36109 0.10842 0.0
C1801 C 0.42739 0.34593 0.11904 0.0
C1802 C 0.44678 0.35312 0.15446 0.0
C1803 C 0.45974 0.37546 0.17952 0.0
H1804 H 0.41738 0.32863 0.0997 0.0
H1805 H 0.53187 0.54575 0.33473 0.0
H1806 H 0.85482 0.66194 0.55571 0.0
H1807 H 0.85316 0.68547 0.47617 0.0
H1808 H 0.85061 0.72804 0.62579 0.0
H1809 H 0.85258 0.70504 0.70466 0.0
H1810 H 0.82041 0.71131 0.49144 0.0
H1811 H 0.88912 0.75285 0.61577 0.0
H1812 H 0.92278 0.75755 0.68659 0.0
H1813 H 0.93795 0.73711 0.44301 0.0
H1814 H 0.90062 0.73492 0.40513 0.0
H1815 H 0.84335 0.81886 0.45671 0.0
H1816 H 0.84193 0.78579 0.49246 0.0
H1817 H 0.87158 0.78026 0.33237 0.0
H1818 H 0.87272 0.81311 0.29545 0.0
H1819 H 0.88839 0.77274 0.444 0.0
H1820 H 0.82086 0.74428 0.32863 0.0
H1821 H 0.78773 0.74268 0.29493 0.0
H1822 H 0.7721 0.73435 0.48565 0.0
H1823 H 0.80525 0.73616 0.5207 0.0
C1824 C 0.85372 0.67623 0.57127 0.0
C1825 C 0.85449 0.68212 0.63658 0.0
C1826 C 0.85278 0.68963 0.52591 0.0
C1827 C 0.85245 0.7089 0.54551 0.0
C1828 C 0.85149 0.71363 0.60995 0.0
C1829 C 0.8528 0.70059 0.65507 0.0
C1830 C 0.8536 0.72474 0.50037 0.0
C1831 C 0.83521 0.7246 0.48027 0.0
C1832 C 0.87292 0.74167 0.48422 0.0
C1833 C 0.89292 0.7434 0.50901 0.0
C1834 C 0.89949 0.74982 0.59018 0.0
C1835 C 0.9207 0.75294 0.63601 0.0
C1836 C 0.9393 0.7499 0.60368 0.0
C1837 C 0.92999 0.74027 0.47959 0.0
C1838 C 0.90669 0.73886 0.45533 0.0
C1839 C 0.8493 0.8105 0.4284 0.0
C1840 C 0.85811 0.81884 0.37297 0.0
C1841 C 0.84862 0.7916 0.44921 0.0
C1842 C 0.85661 0.78037 0.4151 0.0
C1843 C 0.86546 0.78863 0.35988 0.0
C1844 C 0.86608 0.8075 0.33887 0.0
C1845 C 0.85511 0.75977 0.43684 0.0
C1846 C 0.87344 0.75898 0.45238 0.0
C1847 C 0.83567 0.74171 0.44815 0.0
C1848 C 0.81561 0.74046 0.42735 0.0
C1849 C 0.81042 0.74223 0.36348 0.0
C1850 C 0.79162 0.74127 0.34412 0.0
C1851 C 0.77784 0.73845 0.38814 0.0
C1852 C 0.78279 0.73653 0.45159 0.0
C1853 C 0.80156 0.73748 0.47121 0.0
H1854 H 0.7633 0.73772 0.37306 0.0
H1855 H 0.95268 0.75268 0.63665 0.0
H1856 H 0.33463 0.06015 0.4537 0.0
H1857 H 0.3087 0.02071 0.41738 0.0
H1858 H 0.31799 0.00387 0.60466 0.0
H1859 H 0.34338 0.04308 0.64134 0.0
H1860 H 0.31775 0.97531 0.49595 0.0
H1861 H 0.2781 0.00692 0.57402 0.0
H1862 H 0.26662 0.03417 0.5752 0.0
H1863 H 0.24041 0.01221 0.37809 0.0
H1864 H 0.25214 0.98513 0.37539 0.0
H1865 H 0.23721 0.86742 0.50826 0.0
H1866 H 0.26052 0.9075 0.53068 0.0
H1867 H 0.23212 0.91641 0.35809 0.0
H1868 H 0.20788 0.87592 0.33676 0.0
H1869 H 0.24243 0.94987 0.44621 0.0
H1870 H 0.27883 0.91697 0.36592 0.0
H1871 H 0.2906 0.89015 0.35805 0.0
H1872 H 0.32435 0.91527 0.547 0.0
H1873 H 0.31218 0.94188 0.55685 0.0
C1874 C 0.33123 0.04797 0.48686 0.0
C1875 C 0.34096 0.05472 0.55048 0.0
C1876 C 0.31637 0.02549 0.46617 0.0
C1877 C 0.31132 0.00933 0.50839 0.0
C1878 C 0.32157 0.016 0.57126 0.0
C1879 C 0.33603 0.03845 0.59224 0.0
C1880 C 0.29509 0.98549 0.48807 0.0
C1881 C 0.30127 0.96971 0.48553 0.0
C1882 C 0.27366 0.97825 0.47228 0.0
C1883 C 0.26622 0.99419 0.47429 0.0
C1884 C 0.27006 0.00804 0.53076 0.0
C1885 C 0.26348 0.02344 0.53174 0.0
C1886 C 0.25284 0.02497 0.4767 0.0
C1887 C 0.24869 0.01104 0.42065 0.0
C1888 C 0.2553 0.99566 0.41937 0.0
C1889 C 0.23573 0.87785 0.47519 0.0
C1890 C 0.22087 0.86839 0.42011 0.0
C1891 C 0.2492 0.90087 0.48797 0.0
C1892 C 0.24866 0.91513 0.44516 0.0
C1893 C 0.23308 0.90584 0.39166 0.0
C1894 C 0.21924 0.88268 0.37939 0.0
C1895 C 0.26499 0.93944 0.45551 0.0
C1896 C 0.2589 0.95537 0.45605 0.0
C1897 C 0.28663 0.94692 0.46836 0.0
C1898 C 0.29445 0.93133 0.46228 0.0
C1899 C 0.28866 0.91672 0.40598 0.0
C1900 C 0.29541 0.90152 0.40118 0.0
C1901 C 0.30827 0.90101 0.45194 0.0
C1902 C 0.31439 0.91569 0.50769 0.0
C1903 C 0.30754 0.93083 0.51295 0.0
H1904 H 0.31353 0.88926 0.44814 0.0
H1905 H 0.24778 0.0369 0.47754 0.0
H1906 H 0.99456 0.23871 0.66763 0.0
H1907 H 0.02695 0.24461 0.63012 0.0
H1908 H 0.99317 0.17804 0.53062 0.0
H1909 H 0.96086 0.17221 0.56882 0.0
H1910 H 0.0277 0.18485 0.59112 0.0
H1911 H 0.01183 0.22581 0.45028 0.0
H1912 H 1.00267 0.25327 0.41866 0.0
H1913 H 0.05941 0.30589 0.52796 0.0
H1914 H 0.06889 0.27868 0.56037 0.0
H1915 H 0.10821 0.19332 0.42546 0.0
H1916 H 0.07588 0.19094 0.44948 0.0
H1917 H 0.11148 0.25614 0.55671 0.0
H1918 H 0.14411 0.25868 0.53216 0.0
H1919 H 0.07613 0.25052 0.49028 0.0
H1920 H 0.09191 0.20859 0.63081 0.0
H1921 H 0.10027 0.18034 0.66052 0.0
H1922 H 0.04248 0.12883 0.55329 0.0
H1923 H 0.03393 0.1568 0.52203 0.0
C1924 C 0.99417 0.22534 0.63807 0.0
C1925 C 0.97546 0.20475 0.62289 0.0
C1926 C 0.01261 0.22881 0.61577 0.0
C1927 C 0.01267 0.21185 0.57702 0.0
C1928 C 0.99371 0.19142 0.56059 0.0
C1929 C 0.97525 0.18803 0.58254 0.0
C1930 C 0.03261 0.21498 0.55643 0.0
C1931 C 0.03815 0.19913 0.56871 0.0
C1932 C 0.04655 0.23375 0.52757 0.0
C1933 C 0.04097 0.25019 0.50824 0.0
C1934 C 0.02228 0.24322 0.46795 0.0
C1935 C 0.01705 0.25875 0.4498 0.0
C1936 C 0.03039 0.28131 0.47157 0.0
C1937 C 0.04907 0.2884 0.51124 0.0
C1938 C 0.05441 0.27294 0.52937 0.0
C1939 C 0.10923 0.20722 0.45408 0.0
C1940 C 0.12886 0.22607 0.47767 0.0
C1941 C 0.09066 0.20583 0.46786 0.0
C1942 C 0.09111 0.22312 0.50628 0.0
C1943 C 0.11063 0.24247 0.52733 0.0
C1944 C 0.12931 0.24394 0.51315 0.0
C1945 C 0.07127 0.22047 0.52614 0.0
C1946 C 0.06574 0.23636 0.5135 0.0
C1947 C 0.05726 0.2017 0.55489 0.0
C1948 C 0.06241 0.18484 0.57341 0.0
C1949 C 0.08108 0.19126 0.61304 0.0
C1950 C 0.08584 0.17529 0.63025 0.0
C1951 C 0.07195 0.15282 0.60863 0.0
C1952 C 0.05325 0.14625 0.56988 0.0
C1953 C 0.04844 0.16216 0.55239 0.0
H1954 H 0.07565 0.14048 0.62206 0.0
H1955 H 0.0263 0.29331 0.45752 0.0
H1956 H 0.33395 0.13193 0.53705 0.0
H1957 H 0.31467 0.15089 0.51687 0.0
H1958 H 0.36989 0.21314 0.59736 0.0
H1959 H 0.38716 0.19316 0.6287 0.0
H1960 H 0.34483 0.22103 0.61646 0.0
H1961 H 0.34717 0.18822 0.41683 0.0
H1962 H 0.34183 0.15859 0.33526 0.0
H1963 H 0.27541 0.12592 0.33604 0.0
H1964 H 0.28034 0.15527 0.41796 0.0
H1965 H 0.2912 0.2584 0.35093 0.0
H1966 H 0.30375 0.23323 0.37724 0.0
H1967 H 0.2964 0.2427 0.57454 0.0
H1968 H 0.28658 0.26975 0.54915 0.0
H1969 H 0.29721 0.19899 0.41396 0.0
H1970 H 0.32766 0.23861 0.68165 0.0
H1971 H 0.34332 0.27547 0.74441 0.0
H1972 H 0.36182 0.30712 0.57504 0.0
H1973 H 0.34659 0.27052 0.51148 0.0
C1974 C 0.34128 0.14933 0.55472 0.0
C1975 C 0.36152 0.16062 0.58885 0.0
C1976 C 0.33062 0.16059 0.54019 0.0
C1977 C 0.34065 0.18398 0.55351 0.0
C1978 C 0.36115 0.19521 0.58682 0.0
C1979 C 0.37122 0.18372 0.60481 0.0
C1980 C 0.33034 0.19693 0.53249 0.0
C1981 C 0.33458 0.21606 0.57176 0.0
C1982 C 0.3172 0.19144 0.47335 0.0
C1983 C 0.31414 0.17381 0.42399 0.0
C1984 C 0.33143 0.17466 0.3998 0.0
C1985 C 0.32848 0.15792 0.35353 0.0
C1986 C 0.30831 0.14034 0.3307 0.0
C1987 C 0.29103 0.13952 0.35388 0.0
C1988 C 0.29388 0.15621 0.40017 0.0
C1989 C 0.29188 0.25467 0.39961 0.0
C1990 C 0.2873 0.26563 0.44767 0.0
C1991 C 0.29921 0.2403 0.41498 0.0
C1992 C 0.30194 0.23634 0.47877 0.0
C1993 C 0.29569 0.24605 0.52553 0.0
C1994 C 0.28946 0.26118 0.51072 0.0
C1995 C 0.31219 0.22318 0.49737 0.0
C1996 C 0.30773 0.20397 0.45813 0.0
C1997 C 0.32675 0.22973 0.55365 0.0
C1998 C 0.33577 0.25179 0.59173 0.0
C1999 C 0.33512 0.25344 0.65786 0.0
C2000 C 0.34393 0.27429 0.69356 0.0
C2001 C 0.35354 0.29361 0.6637 0.0
C2002 C 0.35434 0.29214 0.59808 0.0
C2003 C 0.34562 0.27135 0.5622 0.0
H2004 H 0.3604 0.30974 0.69142 0.0
H2005 H 0.30606 0.12739 0.29491 0.0
H2006 H 0.81622 0.9522 0.41289 0.0
H2007 H 0.83556 0.99072 0.46315 0.0
H2008 H 0.85939 0.01277 0.2866 0.0
H2009 H 0.84033 0.9739 0.2365 0.0
H2010 H 0.88909 0.03777 0.38972 0.0
H2011 H 0.81791 0.01483 0.324 0.0
H2012 H 0.7797 0.9896 0.31467 0.0
H2013 H 0.7824 0.99906 0.51811 0.0
H2014 H 0.8207 0.02403 0.52879 0.0
H2015 H 0.91468 0.15004 0.4999 0.0
H2016 H 0.8986 0.11391 0.43296 0.0
H2017 H 0.87511 0.07999 0.59657 0.0
H2018 H 0.89128 0.11577 0.66317 0.0
H2019 H 0.84526 0.0627 0.48703 0.0
H2020 H 0.91775 0.08621 0.54985 0.0
H2021 H 0.95585 0.11115 0.55474 0.0
H2022 H 0.95065 0.10084 0.35082 0.0
H2023 H 0.91243 0.07632 0.34427 0.0
C2024 C 0.82605 0.9652 0.38531 0.0
C2025 C 0.82714 0.96006 0.32115 0.0
C2026 C 0.83695 0.98725 0.41388 0.0
C2027 C 0.84872 0.00476 0.37848 0.0
C2028 C 0.85044 0.9996 0.31495 0.0
C2029 C 0.83957 0.97743 0.28635 0.0
C2030 C 0.85787 0.02833 0.40682 0.0
C2031 C 0.87948 0.04335 0.41006 0.0
C2032 C 0.84535 0.03567 0.4335 0.0
C2033 C 0.82222 0.0212 0.42722 0.0
C2034 C 0.81037 0.01146 0.36679 0.0
C2035 C 0.7887 0.99719 0.36125 0.0
C2036 C 0.77864 0.9927 0.41576 0.0
C2037 C 0.79022 0.00254 0.47592 0.0
C2038 C 0.81192 0.01678 0.48175 0.0
C2039 C 0.90588 0.13482 0.52109 0.0
C2040 C 0.90433 0.13559 0.58666 0.0
C2041 C 0.89679 0.11422 0.48297 0.0
C2042 C 0.8857 0.09418 0.5097 0.0
C2043 C 0.88358 0.09514 0.57478 0.0
C2044 C 0.89292 0.11558 0.61287 0.0
C2045 C 0.87657 0.07206 0.47118 0.0
C2046 C 0.85488 0.05726 0.46597 0.0
C2047 C 0.88903 0.06509 0.44217 0.0
C2048 C 0.91209 0.07975 0.44644 0.0
C2049 C 0.92464 0.0895 0.5059 0.0
C2050 C 0.94629 0.10354 0.50903 0.0
C2051 C 0.95564 0.10768 0.45319 0.0
C2052 C 0.94338 0.09768 0.39407 0.0
C2053 C 0.92171 0.08375 0.3906 0.0
H2054 H 0.9724 0.11854 0.45578 0.0
H2055 H 0.76186 0.98161 0.41136 0.0
H2056 H 0.90993 0.69575 0.72061 0.0
H2057 H 0.94305 0.71991 0.68089 0.0
H2058 H 0.94213 0.66177 0.59871 0.0
H2059 H 0.91212 0.63824 0.65236 0.0
H2060 H 0.97982 0.69407 0.66183 0.0
H2061 H 0.91902 0.69626 0.55104 0.0
H2062 H 0.89358 0.71297 0.55658 0.0
H2063 H 0.96639 0.7931 0.52603 0.0
H2064 H 0.98182 0.76638 0.53261 0.0
H2065 H 0.05272 0.72323 0.44322 0.0
H2066 H 0.0229 0.70751 0.50311 0.0
H2067 H 0.02215 0.76859 0.50695 0.0
H2068 H 0.05128 0.78377 0.44386 0.0
H2069 H 0.98541 0.73892 0.48553 0.0
H2070 H 0.03887 0.74873 0.6454 0.0
H2071 H 0.06856 0.74593 0.69291 0.0
H2072 H 0.03054 0.67468 0.66347 0.0
H2073 H 1.00069 0.67705 0.61505 0.0
C2074 C 0.91752 0.68833 0.69756 0.0
C2075 C 0.90906 0.66526 0.69338 0.0
C2076 C 0.93602 0.7021 0.67232 0.0
C2077 C 0.94465 0.69277 0.63369 0.0
C2078 C 0.93563 0.66951 0.62712 0.0
C2079 C 0.9184 0.65601 0.65776 0.0
C2080 C 0.96397 0.70662 0.60393 0.0
C2081 C 0.98098 0.70405 0.62349 0.0
C2082 C 0.9661 0.72106 0.55632 0.0
C2083 C 0.95195 0.73025 0.54288 0.0
C2084 C 0.92591 0.71389 0.54925 0.0
C2085 C 0.90975 0.72443 0.55062 0.0
C2086 C 0.93025 0.76683 0.53772 0.0
C2087 C 0.95583 0.7758 0.53106 0.0
C2088 C 0.96515 0.75823 0.53357 0.0
C2089 C 0.04639 0.7334 0.45782 0.0
C2090 C 0.05438 0.75473 0.43897 0.0
C2091 C 0.02936 0.72447 0.49261 0.0
C2092 C 0.02018 0.73685 0.51087 0.0
C2093 C 0.02865 0.75848 0.49344 0.0
C2094 C 0.04541 0.76723 0.45756 0.0
C2095 C 1.00124 0.72691 0.54527 0.0
C2096 C 0.98429 0.72968 0.52556 0.0
C2097 C 0.99971 0.71461 0.59697 0.0
C2098 C 0.0176 0.71308 0.62613 0.0
C2099 C 0.03688 0.73247 0.64872 0.0
C2100 C 0.05373 0.73095 0.67585 0.0
C2101 C 0.05145 0.71014 0.68108 0.0
C2102 C 0.03229 0.69079 0.65933 0.0
C2103 C 0.01539 0.6922 0.63211 0.0
H2104 H 0.06451 0.709 0.70208 0.0
H2105 H 0.92545 0.77915 0.53604 0.0
loop_
_geom_bond_atom_site_label_1
_geom_bond_atom_site_label_2
_geom_bond_distance
_geom_bond_site_symmetry_2
_ccdc_geom_bond_type
Eu0 N31 2.657 . S
Eu0 N38 2.609 . S
Eu0 O44 2.558 . S
Eu0 O45 2.612 . S
Eu0 O47 2.339 . S
Eu0 O48 2.563 . S
Eu0 O49 2.419 . S
Eu0 O51 2.380 . S
Eu0 O52 2.432 . S
Eu0 C64 2.848 . S
C1 C4 1.429 . S
C1 C5 1.411 . S
C1 N8 1.377 . S
C2 C4 1.420 . S
C2 C6 1.423 . S
C2 C14 1.392 . S
C3 C5 1.420 . S
C3 C6 1.351 . S
C3 H26 0.931 . S
C4 C1 1.429 . S
C4 C2 1.420 . S
C4 N12 1.362 . S
C5 C1 1.411 . S
C5 C3 1.420 . S
C5 C10 1.395 . S
C6 C2 1.423 . S
C6 C3 1.351 . S
C6 H18 0.930 . S
C7 C9 1.400 . S
C7 C10 1.386 . S
C7 H19 0.930 . S
N8 C1 1.377 . S
N8 C9 1.321 . S
N8 Eu11 2.609 1_655 S
C9 C7 1.400 . S
C9 N8 1.321 . S
C9 H16 0.930 . S
C10 C5 1.395 . S
C10 C7 1.386 . S
C10 H29 0.930 . S
Eu11 N8 2.609 1_455 S
Eu11 N12 2.657 1_455 S
Eu11 O45 2.380 . S
Eu11 O46 2.432 . S
Eu11 O50 2.558 1_455 S
Eu11 O51 2.612 . S
Eu11 O53 2.339 . S
Eu11 O54 2.563 . S
Eu11 O55 2.419 1_455 S
Eu11 C75 2.848 1_455 S
N12 C4 1.362 . S
N12 Eu11 2.657 1_655 S
N12 C13 1.334 . S
C13 N12 1.334 . S
C13 C15 1.413 . S
C13 H20 0.929 . S
C14 C2 1.392 . S
C14 C15 1.367 . S
C14 H22 0.930 . S
C15 C13 1.413 . S
C15 C14 1.367 . S
C15 H17 0.930 1_554 S
H16 C9 0.930 . S
H17 C15 0.930 1_556 S
H18 C6 0.930 . S
H19 C7 0.930 . S
H20 C13 0.929 . S
H21 C35 0.930 . S
H22 C14 0.930 . S
H23 C41 0.930 . S
H24 C32 0.929 . S
H25 C39 0.930 . S
H26 C3 0.931 . S
H27 C33 0.930 . S
H28 C66 0.930 . S
H29 C10 0.930 . S
H30 C65 0.931 . S
N31 Eu0 2.657 . S
N31 C32 1.334 . S
N31 C36 1.362 . S
C32 H24 0.929 . S
C32 N31 1.334 . S
C32 C35 1.413 . S
C33 H27 0.930 . S
C33 C34 1.392 . S
C33 C35 1.367 . S
C34 C33 1.392 . S
C34 C36 1.420 . S
C34 C66 1.423 . S
C35 H21 0.930 . S
C35 C32 1.413 . S
C35 C33 1.367 . S
C36 N31 1.362 . S
C36 C34 1.420 . S
C36 C40 1.429 . S
H37 C42 0.930 . S
N38 Eu0 2.609 . S
N38 C40 1.377 . S
N38 C41 1.321 . S
C39 H25 0.930 . S
C39 C41 1.400 . S
C39 C42 1.386 . S
C40 C36 1.429 . S
C40 N38 1.377 . S
C40 C43 1.411 . S
C41 H23 0.930 . S
C41 N38 1.321 . S
C41 C39 1.400 . S
C42 H37 0.930 . S
C42 C39 1.386 . S
C42 C43 1.395 . S
C43 C40 1.411 . S
C43 C42 1.395 . S
C43 C65 1.420 . S
O44 Eu0 2.558 . S
O44 C64 1.257 . S
O45 Eu0 2.612 . S
O45 Eu11 2.380 . S
O45 C56 1.276 . S
O46 Eu11 2.432 . S
O46 C63 1.264 . S
O47 Eu0 2.339 . S
O47 C63 1.254 . S
O48 Eu0 2.563 . S
O48 C56 1.235 . S
O49 Eu0 2.419 . S
O49 C64 1.249 . S
O50 Eu11 2.558 1_655 S
O50 C75 1.257 . S
O51 Eu0 2.380 . S
O51 Eu11 2.612 . S
O51 C67 1.276 . S
O52 Eu0 2.432 . S
O52 C74 1.264 . S
O53 Eu11 2.339 . S
O53 C74 1.254 . S
O54 Eu11 2.563 . S
O54 C67 1.235 . S
O55 Eu11 2.419 1_655 S
O55 C75 1.249 . S
C56 O45 1.276 . S
C56 O48 1.235 . S
C57 C59 1.393 . S
C57 C61 1.395 . S
C57 C64 1.492 . S
C58 C59 1.392 . S
C58 C60 1.386 . S
C59 C57 1.393 . S
C59 C58 1.392 . S
C59 H76 0.930 . S
C60 C58 1.386 . S
C60 C62 1.395 . S
C60 H77 0.930 . S
C61 C57 1.395 . S
C61 C62 1.379 . S
C61 H78 0.930 . S
C62 C60 1.395 . S
C62 C61 1.379 . S
C62 H79 0.930 . S
C63 O46 1.264 . S
C63 O47 1.254 . S
C64 Eu0 2.848 . S
C64 O44 1.257 . S
C64 O49 1.249 . S
C64 C57 1.492 . S
C65 H30 0.931 . S
C65 C43 1.420 . S
C65 C66 1.351 . S
C66 H28 0.930 . S
C66 C34 1.423 . S
C66 C65 1.351 . S
C67 O51 1.276 . S
C67 O54 1.235 . S
C68 C69 1.393 . S
C68 C72 1.395 . S
C68 C75 1.492 . S
C69 C68 1.393 . S
C69 C70 1.392 . S
C69 H80 0.930 . S
C70 C69 1.392 . S
C70 C71 1.386 . S
C71 C70 1.386 . S
C71 C73 1.395 . S
C71 H81 0.930 . S
C72 C68 1.395 . S
C72 C73 1.379 . S
C72 H82 0.930 . S
C73 C71 1.395 . S
C73 C72 1.379 . S
C73 H83 0.930 . S
C74 O52 1.264 . S
C74 O53 1.254 . S
C75 Eu11 2.848 1_655 S
C75 O50 1.257 . S
C75 O55 1.249 . S
C75 C68 1.492 . S
H76 C59 0.930 . S
H77 C60 0.930 . S
H78 C61 0.930 . S
H79 C62 0.930 . S
H80 C69 0.930 . S
H81 C71 0.930 . S
H82 C72 0.930 . S
H83 C73 0.930 . S
Eu84 N115 2.657 . S
Eu84 N122 2.609 . S
Eu84 O128 2.558 . S
Eu84 O129 2.612 . S
Eu84 O131 2.339 . S
Eu84 O132 2.563 . S
Eu84 O133 2.419 . S
Eu84 O135 2.380 . S
Eu84 O136 2.432 . S
Eu84 C148 2.848 . S
C85 C88 1.429 . S
C85 C89 1.411 . S
C85 N92 1.377 . S
C86 C88 1.420 . S
C86 C90 1.423 . S
C86 C98 1.392 . S
C87 C89 1.420 . S
C87 C90 1.351 . S
C87 H110 0.931 . S
C88 C85 1.429 . S
C88 C86 1.420 . S
C88 N96 1.362 . S
C89 C85 1.411 . S
C89 C87 1.420 . S
C89 C94 1.395 . S
C90 C86 1.423 . S
C90 C87 1.351 . S
C90 H102 0.930 . S
C91 C93 1.400 . S
C91 C94 1.386 . S
C91 H103 0.930 . S
N92 C85 1.377 . S
N92 C93 1.321 . S
N92 Eu95 2.609 . S
C93 C91 1.400 . S
C93 N92 1.321 . S
C93 H100 0.930 . S
C94 C89 1.395 . S
C94 C91 1.386 . S
C94 H113 0.930 . S
Eu95 N92 2.609 . S
Eu95 N96 2.657 . S
Eu95 O129 2.380 . S
Eu95 O130 2.432 . S
Eu95 O134 2.558 . S
Eu95 O135 2.612 . S
Eu95 O137 2.339 . S
Eu95 O138 2.563 . S
Eu95 O139 2.419 . S
Eu95 C159 2.848 . S
N96 C88 1.362 . S
N96 Eu95 2.657 . S
N96 C97 1.334 . S
C97 N96 1.334 . S
C97 C99 1.413 1_554 S
C97 H104 0.929 1_554 S
C98 C86 1.392 . S
C98 C99 1.367 1_554 S
C98 H106 0.930 1_554 S
C99 C97 1.413 1_556 S
C99 C98 1.367 1_556 S
C99 H101 0.930 . S
H100 C93 0.930 . S
H101 C99 0.930 . S
H102 C90 0.930 . S
H103 C91 0.930 . S
H104 C97 0.929 1_556 S
H105 C119 0.930 . S
H106 C98 0.930 1_556 S
H107 C125 0.930 1_556 S
H108 C116 0.929 . S
H109 C123 0.930 . S
H110 C87 0.931 . S
H111 C117 0.930 . S
H112 C150 0.930 . S
H113 C94 0.930 . S
H114 C149 0.931 . S
N115 Eu84 2.657 . S
N115 C116 1.334 . S
N115 C120 1.362 . S
C116 H108 0.929 . S
C116 N115 1.334 . S
C116 C119 1.413 . S
C117 H111 0.930 . S
C117 C118 1.392 . S
C117 C119 1.367 . S
C118 C117 1.392 . S
C118 C120 1.420 . S
C118 C150 1.423 . S
C119 H105 0.930 . S
C119 C116 1.413 . S
C119 C117 1.367 . S
C120 N115 1.362 . S
C120 C118 1.420 . S
C120 C124 1.429 . S
H121 C126 0.930 1_556 S
N122 Eu84 2.609 . S
N122 C124 1.377 . S
N122 C125 1.321 . S
C123 H109 0.930 . S
C123 C125 1.400 1_556 S
C123 C126 1.386 1_556 S
C124 C120 1.429 . S
C124 N122 1.377 . S
C124 C127 1.411 . S
C125 H107 0.930 1_554 S
C125 N122 1.321 . S
C125 C123 1.400 1_554 S
C126 H121 0.930 1_554 S
C126 C123 1.386 1_554 S
C126 C127 1.395 . S
C127 C124 1.411 . S
C127 C126 1.395 . S
C127 C149 1.420 . S
O128 Eu84 2.558 . S
O128 C148 1.257 . S
O129 Eu84 2.612 . S
O129 Eu95 2.380 . S
O129 C140 1.276 . S
O130 Eu95 2.432 . S
O130 C147 1.264 . S
O131 Eu84 2.339 . S
O131 C147 1.254 . S
O132 Eu84 2.563 . S
O132 C140 1.235 . S
O133 Eu84 2.419 . S
O133 C148 1.249 . S
O134 Eu95 2.558 . S
O134 C159 1.257 . S
O135 Eu84 2.380 . S
O135 Eu95 2.612 . S
O135 C151 1.276 . S
O136 Eu84 2.432 . S
O136 C158 1.265 . S
O137 Eu95 2.339 . S
O137 C158 1.255 . S
O138 Eu95 2.563 . S
O138 C151 1.235 . S
O139 Eu95 2.419 . S
O139 C159 1.249 . S
C140 O129 1.276 . S
C140 O132 1.235 . S
C141 C143 1.393 . S
C141 C145 1.395 . S
C141 C148 1.492 . S
C142 C143 1.392 . S
C142 C144 1.386 . S
C143 C141 1.393 . S
C143 C142 1.392 . S
C143 H160 0.930 . S
C144 C142 1.386 . S
C144 C146 1.395 . S
C144 H161 0.930 . S
C145 C141 1.395 . S
C145 C146 1.379 . S
C145 H162 0.930 . S
C146 C144 1.395 . S
C146 C145 1.379 . S
C146 H163 0.930 . S
C147 O130 1.264 . S
C147 O131 1.254 . S
C148 Eu84 2.848 . S
C148 O128 1.257 . S
C148 O133 1.249 . S
C148 C141 1.492 . S
C149 H114 0.931 . S
C149 C127 1.420 . S
C149 C150 1.351 . S
C150 H112 0.930 . S
C150 C118 1.423 . S
C150 C149 1.351 . S
C151 O135 1.276 . S
C151 O138 1.235 . S
C152 C153 1.393 . S
C152 C156 1.395 . S
C152 C159 1.492 . S
C153 C152 1.393 . S
C153 C154 1.392 . S
C153 H164 0.930 1_554 S
C154 C153 1.392 . S
C154 C155 1.386 . S
C155 C154 1.386 . S
C155 C157 1.395 . S
C155 H165 0.930 . S
C156 C152 1.395 . S
C156 C157 1.379 . S
C156 H166 0.930 . S
C157 C155 1.395 . S
C157 C156 1.379 . S
C157 H167 0.930 . S
C158 O136 1.265 . S
C158 O137 1.255 . S
C159 Eu95 2.848 . S
C159 O134 1.257 . S
C159 O139 1.249 . S
C159 C152 1.492 . S
H160 C143 0.930 . S
H161 C144 0.930 . S
H162 C145 0.930 . S
H163 C146 0.930 . S
H164 C153 0.930 1_556 S
H165 C155 0.930 . S
H166 C156 0.930 . S
H167 C157 0.930 . S
Eu168 N199 2.657 1_556 S
Eu168 N206 2.609 . S
Eu168 O212 2.558 . S
Eu168 O213 2.612 . S
Eu168 O215 2.339 1_556 S
Eu168 O216 2.563 . S
Eu168 O217 2.419 1_556 S
Eu168 O219 2.380 1_556 S
Eu168 O220 2.432 . S
Eu168 C232 2.848 . S
C169 C172 1.429 1_554 S
C169 C173 1.411 . S
C169 N176 1.377 . S
C170 C172 1.420 . S
C170 C174 1.423 . S
C170 C182 1.392 . S
C171 C173 1.420 . S
C171 C174 1.351 1_554 S
C171 H194 0.931 . S
C172 C169 1.429 1_556 S
C172 C170 1.420 . S
C172 N180 1.362 . S
C173 C169 1.411 . S
C173 C171 1.420 . S
C173 C178 1.395 . S
C174 C170 1.423 . S
C174 C171 1.351 1_556 S
C174 H186 0.930 . S
C175 C177 1.400 . S
C175 C178 1.386 . S
C175 H187 0.930 . S
N176 C169 1.377 . S
N176 C177 1.321 . S
N176 Eu179 2.609 . S
C177 C175 1.400 . S
C177 N176 1.321 . S
C177 H184 0.930 . S
C178 C173 1.395 . S
C178 C175 1.386 . S
C178 H197 0.930 . S
Eu179 N176 2.609 . S
Eu179 N180 2.657 1_554 S
Eu179 O213 2.380 1_554 S
Eu179 O214 2.432 . S
Eu179 O218 2.558 . S
Eu179 O219 2.612 . S
Eu179 O221 2.339 1_554 S
Eu179 O222 2.563 . S
Eu179 O223 2.419 1_554 S
Eu179 C243 2.848 . S
N180 C172 1.362 . S
N180 Eu179 2.657 1_556 S
N180 C181 1.334 . S
C181 N180 1.334 . S
C181 C183 1.413 . S
C181 H188 0.929 . S
C182 C170 1.392 . S
C182 C183 1.367 . S
C182 H190 0.930 . S
C183 C181 1.413 . S
C183 C182 1.367 . S
C183 H185 0.930 . S
H184 C177 0.930 . S
H185 C183 0.930 . S
H186 C174 0.930 . S
H187 C175 0.930 . S
H188 C181 0.929 . S
H189 C203 0.930 . S
H190 C182 0.930 . S
H191 C209 0.930 . S
H192 C200 0.929 . S
H193 C207 0.930 . S
H194 C171 0.931 . S
H195 C201 0.976 . S
H196 C234 0.930 . S
H197 C178 0.930 . S
H198 C233 0.931 . S
N199 Eu168 2.657 1_554 S
N199 C200 1.334 . S
N199 C204 1.362 . S
C200 H192 0.929 . S
C200 N199 1.334 . S
C200 C203 1.413 . S
C201 H195 0.976 . S
C201 C202 1.394 . S
C201 C203 1.321 1_565 S
C202 C201 1.394 . S
C202 C204 1.420 1_565 S
C202 C234 1.423 . S
C203 H189 0.930 . S
C203 C200 1.413 . S
C203 C201 1.321 1_545 S
C204 N199 1.362 . S
C204 C202 1.420 1_545 S
C204 C208 1.429 1_554 S
H205 C210 0.930 . S
N206 Eu168 2.609 . S
N206 C208 1.401 . S
N206 C209 1.321 . S
C207 H193 0.930 . S
C207 C209 1.400 1_565 S
C207 C210 1.386 . S
C208 C204 1.429 1_556 S
C208 N206 1.401 . S
C208 C211 1.388 1_545 S
C209 H191 0.930 . S
C209 N206 1.321 . S
C209 C207 1.400 1_545 S
C210 H205 0.930 . S
C210 C207 1.386 . S
C210 C211 1.395 . S
C211 C208 1.388 1_565 S
C211 C210 1.395 . S
C211 C233 1.420 . S
O212 Eu168 2.558 . S
O212 C232 1.257 . S
O213 Eu168 2.612 . S
O213 Eu179 2.380 1_556 S
O213 C224 1.276 . S
O214 Eu179 2.432 . S
O214 C231 1.264 . S
O215 Eu168 2.339 1_554 S
O215 C231 1.254 . S
O216 Eu168 2.563 . S
O216 C224 1.235 . S
O217 Eu168 2.419 1_554 S
O217 C232 1.249 1_554 S
O218 Eu179 2.558 . S
O218 C243 1.257 . S
O219 Eu168 2.380 1_554 S
O219 Eu179 2.612 . S
O219 C235 1.276 . S
O220 Eu168 2.432 . S
O220 C242 1.264 . S
O221 Eu179 2.339 1_556 S
O221 C242 1.254 . S
O222 Eu179 2.563 . S
O222 C235 1.235 . S
O223 Eu179 2.419 1_556 S
O223 C243 1.249 1_556 S
C224 O213 1.276 . S
C224 O216 1.235 . S
C225 C227 1.393 1_556 S
C225 C229 1.395 1_545 S
C225 C232 1.492 . S
C226 C227 1.392 . S
C226 C228 1.386 1_545 S
C227 C225 1.393 1_554 S
C227 C226 1.392 . S
C227 H244 0.930 . S
C228 C226 1.386 1_565 S
C228 C230 1.395 1_554 S
C228 H245 0.930 . S
C229 C225 1.395 1_565 S
C229 C230 1.379 . S
C229 H246 0.930 . S
C230 C228 1.395 1_556 S
C230 C229 1.379 . S
C230 H247 0.930 . S
C231 O214 1.264 . S
C231 O215 1.254 . S
C232 Eu168 2.848 . S
C232 O212 1.257 . S
C232 O217 1.249 1_556 S
C232 C225 1.492 . S
C233 H198 0.931 . S
C233 C211 1.420 . S
C233 C234 1.351 1_556 S
C234 H196 0.930 . S
C234 C202 1.423 . S
C234 C233 1.351 1_554 S
C235 O219 1.276 . S
C235 O222 1.235 . S
C236 C237 1.393 1_554 S
C236 C240 1.395 . S
C236 C243 1.492 . S
C237 C236 1.393 1_556 S
C237 C238 1.392 . S
C237 H248 0.930 . S
C238 C237 1.392 . S
C238 C239 1.386 . S
C239 C238 1.386 . S
C239 C241 1.395 1_556 S
C239 H249 0.930 . S
C240 C236 1.395 . S
C240 C241 1.379 . S
C240 H250 0.930 . S
C241 C239 1.395 1_554 S
C241 C240 1.379 . S
C241 H251 0.930 . S
C242 O220 1.264 . S
C242 O221 1.254 . S
C243 Eu179 2.848 . S
C243 O218 1.257 . S
C243 O223 1.249 1_554 S
C243 C236 1.492 . S
H244 C227 0.930 . S
H245 C228 0.930 . S
H246 C229 0.930 . S
H247 C230 0.930 . S
H248 C237 0.930 . S
H249 C239 0.930 . S
H250 C240 0.930 . S
H251 C241 0.930 . S
Eu252 N283 2.657 . S
Eu252 N290 2.609 . S
Eu252 O296 2.558 . S
Eu252 O297 2.612 . S
Eu252 O299 2.339 . S
Eu252 O300 2.563 . S
Eu252 O301 2.419 . S
Eu252 O303 2.380 . S
Eu252 O304 2.432 . S
Eu252 C316 2.848 . S
C253 C256 1.429 . S
C253 C257 1.411 . S
C253 N260 1.377 . S
C254 C256 1.420 . S
C254 C258 1.423 . S
C254 C266 1.392 . S
C255 C257 1.420 . S
C255 C258 1.351 . S
C255 H278 0.931 . S
C256 C253 1.429 . S
C256 C254 1.420 . S
C256 N264 1.362 . S
C257 C253 1.411 . S
C257 C255 1.420 . S
C257 C262 1.395 . S
C258 C254 1.423 . S
C258 C255 1.351 . S
C258 H270 0.930 . S
C259 C261 1.400 . S
C259 C262 1.386 . S
C259 H271 0.930 . S
N260 C253 1.377 . S
N260 C261 1.321 . S
N260 Eu263 2.609 . S
C261 C259 1.400 . S
C261 N260 1.321 . S
C261 H268 0.930 . S
C262 C257 1.395 . S
C262 C259 1.386 . S
C262 H281 0.930 . S
Eu263 N260 2.609 . S
Eu263 N264 2.657 . S
Eu263 O297 2.380 . S
Eu263 O298 2.432 . S
Eu263 O302 2.558 . S
Eu263 O303 2.612 . S
Eu263 O305 2.339 . S
Eu263 O306 2.563 . S
Eu263 O307 2.419 . S
Eu263 C327 2.848 . S
N264 C256 1.362 . S
N264 Eu263 2.657 . S
N264 C265 1.334 . S
C265 N264 1.334 . S
C265 C267 1.413 . S
C265 H272 0.929 . S
C266 C254 1.392 . S
C266 C267 1.367 . S
C266 H274 0.930 . S
C267 C265 1.413 . S
C267 C266 1.367 . S
C267 H269 0.930 . S
H268 C261 0.930 . S
H269 C267 0.930 . S
H270 C258 0.930 . S
H271 C259 0.930 . S
H272 C265 0.929 . S
H273 C287 0.930 . S
H274 C266 0.930 . S
H275 C293 0.930 . S
H276 C284 0.929 . S
H277 C291 0.930 . S
H278 C255 0.931 . S
H279 C285 0.930 . S
H280 C318 0.930 . S
H281 C262 0.930 . S
H282 C317 0.931 . S
N283 Eu252 2.657 . S
N283 C284 1.334 . S
N283 C288 1.362 . S
C284 H276 0.929 . S
C284 N283 1.334 . S
C284 C287 1.413 . S
C285 H279 0.930 . S
C285 C286 1.392 . S
C285 C287 1.367 . S
C286 C285 1.392 . S
C286 C288 1.420 . S
C286 C318 1.423 . S
C287 H273 0.930 . S
C287 C284 1.413 . S
C287 C285 1.367 . S
C288 N283 1.362 . S
C288 C286 1.420 . S
C288 C292 1.429 . S
H289 C294 0.930 . S
N290 Eu252 2.609 . S
N290 C292 1.377 . S
N290 C293 1.321 . S
C291 H277 0.930 . S
C291 C293 1.400 . S
C291 C294 1.386 . S
C292 C288 1.429 . S
C292 N290 1.377 . S
C292 C295 1.411 . S
C293 H275 0.930 . S
C293 N290 1.321 . S
C293 C291 1.400 . S
C294 H289 0.930 . S
C294 C291 1.386 . S
C294 C295 1.395 . S
C295 C292 1.411 . S
C295 C294 1.395 . S
C295 C317 1.420 . S
O296 Eu252 2.558 . S
O296 C316 1.257 . S
O297 Eu252 2.612 . S
O297 Eu263 2.380 . S
O297 C308 1.276 . S
O298 Eu263 2.432 . S
O298 C315 1.264 . S
O299 Eu252 2.339 . S
O299 C315 1.254 . S
O300 Eu252 2.563 . S
O300 C308 1.235 . S
O301 Eu252 2.419 . S
O301 C316 1.249 . S
O302 Eu263 2.558 . S
O302 C327 1.257 . S
O303 Eu252 2.380 . S
O303 Eu263 2.612 . S
O303 C319 1.276 . S
O304 Eu252 2.432 . S
O304 C326 1.264 . S
O305 Eu263 2.339 . S
O305 C326 1.254 . S
O306 Eu263 2.563 . S
O306 C319 1.235 . S
O307 Eu263 2.419 . S
O307 C327 1.249 . S
C308 O297 1.276 . S
C308 O300 1.235 . S
C309 C311 1.393 . S
C309 C313 1.395 . S
C309 C316 1.492 . S
C310 C311 1.392 . S
C310 C312 1.386 . S
C311 C309 1.393 . S
C311 C310 1.392 . S
C311 H328 0.930 . S
C312 C310 1.386 . S
C312 C314 1.395 . S
C312 H329 0.930 . S
C313 C309 1.395 . S
C313 C314 1.379 . S
C313 H330 0.930 . S
C314 C312 1.395 . S
C314 C313 1.379 . S
C314 H331 0.930 . S
C315 O298 1.264 . S
C315 O299 1.254 . S
C316 Eu252 2.848 . S
C316 O296 1.257 . S
C316 O301 1.249 . S
C316 C309 1.492 . S
C317 H282 0.931 . S
C317 C295 1.420 . S
C317 C318 1.351 . S
C318 H280 0.930 . S
C318 C286 1.423 . S
C318 C317 1.351 . S
C319 O303 1.276 . S
C319 O306 1.235 . S
C320 C321 1.393 . S
C320 C324 1.395 . S
C320 C327 1.492 . S
C321 C320 1.393 . S
C321 C322 1.392 . S
C321 H332 0.930 . S
C322 C321 1.392 . S
C322 C323 1.386 . S
C323 C322 1.386 . S
C323 C325 1.395 . S
C323 H333 0.930 . S
C324 C320 1.395 . S
C324 C325 1.379 . S
C324 H334 0.930 . S
C325 C323 1.395 . S
C325 C324 1.379 . S
C325 H335 0.930 . S
C326 O304 1.264 . S
C326 O305 1.254 . S
C327 Eu263 2.848 . S
C327 O302 1.257 . S
C327 O307 1.249 . S
C327 C320 1.492 . S
H328 C311 0.930 . S
H329 C312 0.930 . S
H330 C313 0.930 . S
H331 C314 0.930 . S
H332 C321 0.930 . S
H333 C323 0.930 . S
H334 C324 0.930 . S
H335 C325 0.930 . S
Eu336 N367 2.657 . S
Eu336 N374 2.609 . S
Eu336 O380 2.558 . S
Eu336 O381 2.612 . S
Eu336 O383 2.339 . S
Eu336 O384 2.563 . S
Eu336 O385 2.419 . S
Eu336 O387 2.380 . S
Eu336 O388 2.432 . S
Eu336 C400 2.848 . S
C337 C340 1.429 . S
C337 C341 1.411 . S
C337 N344 1.377 . S
C338 C340 1.420 . S
C338 C342 1.423 . S
C338 C350 1.392 . S
C339 C341 1.420 . S
C339 C342 1.351 . S
C339 H362 0.931 . S
C340 C337 1.429 . S
C340 C338 1.420 . S
C340 N348 1.362 . S
C341 C337 1.411 . S
C341 C339 1.420 . S
C341 C346 1.395 . S
C342 C338 1.423 . S
C342 C339 1.351 . S
C342 H354 0.930 . S
C343 C345 1.400 . S
C343 C346 1.386 . S
C343 H355 0.930 . S
N344 C337 1.377 . S
N344 C345 1.321 . S
N344 Eu347 2.609 . S
C345 C343 1.400 . S
C345 N344 1.321 . S
C345 H352 0.930 . S
C346 C341 1.395 . S
C346 C343 1.386 . S
C346 H365 0.930 . S
Eu347 N344 2.609 . S
Eu347 N348 2.657 . S
Eu347 O381 2.380 . S
Eu347 O382 2.432 . S
Eu347 O386 2.558 . S
Eu347 O387 2.612 . S
Eu347 O389 2.339 . S
Eu347 O390 2.563 . S
Eu347 O391 2.419 . S
Eu347 C411 2.848 . S
N348 C340 1.362 . S
N348 Eu347 2.657 . S
N348 C349 1.334 . S
C349 N348 1.334 . S
C349 C351 1.413 . S
C349 H356 0.929 . S
C350 C338 1.392 . S
C350 C351 1.367 . S
C350 H358 0.930 . S
C351 C349 1.413 . S
C351 C350 1.367 . S
C351 H353 0.930 . S
H352 C345 0.930 . S
H353 C351 0.930 . S
H354 C342 0.930 . S
H355 C343 0.930 . S
H356 C349 0.929 . S
H357 C371 0.930 . S
H358 C350 0.930 . S
H359 C377 0.930 . S
H360 C368 0.929 . S
H361 C375 0.930 . S
H362 C339 0.931 . S
H363 C369 0.930 1_556 S
H364 C402 0.930 1_556 S
H365 C346 0.930 . S
H366 C401 0.931 . S
N367 Eu336 2.657 . S
N367 C368 1.334 . S
N367 C372 1.362 . S
C368 H360 0.929 . S
C368 N367 1.334 . S
C368 C371 1.413 . S
C369 H363 0.930 1_554 S
C369 C370 1.392 . S
C369 C371 1.367 . S
C370 C369 1.392 . S
C370 C372 1.420 . S
C370 C402 1.423 . S
C371 H357 0.930 . S
C371 C368 1.413 . S
C371 C369 1.367 . S
C372 N367 1.362 . S
C372 C370 1.420 . S
C372 C376 1.429 . S
H373 C378 0.930 . S
N374 Eu336 2.609 . S
N374 C376 1.377 . S
N374 C377 1.321 . S
C375 H361 0.930 . S
C375 C377 1.400 . S
C375 C378 1.386 . S
C376 C372 1.429 . S
C376 N374 1.377 . S
C376 C379 1.411 . S
C377 H359 0.930 . S
C377 N374 1.321 . S
C377 C375 1.400 . S
C378 H373 0.930 . S
C378 C375 1.386 . S
C378 C379 1.395 . S
C379 C376 1.411 . S
C379 C378 1.395 . S
C379 C401 1.420 . S
O380 Eu336 2.558 . S
O380 C400 1.257 . S
O381 Eu336 2.612 . S
O381 Eu347 2.380 . S
O381 C392 1.276 . S
O382 Eu347 2.432 . S
O382 C399 1.264 . S
O383 Eu336 2.339 . S
O383 C399 1.254 . S
O384 Eu336 2.563 . S
O384 C392 1.235 . S
O385 Eu336 2.419 . S
O385 C400 1.249 . S
O386 Eu347 2.558 . S
O386 C411 1.257 . S
O387 Eu336 2.380 . S
O387 Eu347 2.612 . S
O387 C403 1.276 . S
O388 Eu336 2.432 . S
O388 C410 1.264 . S
O389 Eu347 2.339 . S
O389 C410 1.254 . S
O390 Eu347 2.563 . S
O390 C403 1.235 . S
O391 Eu347 2.419 . S
O391 C411 1.249 . S
C392 O381 1.276 . S
C392 O384 1.235 . S
C393 C395 1.393 . S
C393 C397 1.395 . S
C393 C400 1.492 . S
C394 C395 1.392 . S
C394 C396 1.386 . S
C395 C393 1.393 . S
C395 C394 1.392 . S
C395 H412 0.930 . S
C396 C394 1.386 . S
C396 C398 1.395 . S
C396 H413 0.930 . S
C397 C393 1.395 . S
C397 C398 1.379 . S
C397 H414 0.930 . S
C398 C396 1.395 . S
C398 C397 1.379 . S
C398 H415 0.930 . S
C399 O382 1.264 . S
C399 O383 1.254 . S
C400 Eu336 2.848 . S
C400 O380 1.257 . S
C400 O385 1.249 . S
C400 C393 1.492 . S
C401 H366 0.931 . S
C401 C379 1.420 . S
C401 C402 1.351 . S
C402 H364 0.930 1_554 S
C402 C370 1.423 . S
C402 C401 1.351 . S
C403 O387 1.276 . S
C403 O390 1.235 . S
C404 C405 1.393 . S
C404 C408 1.395 . S
C404 C411 1.492 . S
C405 C404 1.393 . S
C405 C406 1.392 . S
C405 H416 0.930 . S
C406 C405 1.392 . S
C406 C407 1.386 . S
C407 C406 1.386 . S
C407 C409 1.395 . S
C407 H417 0.930 . S
C408 C404 1.395 . S
C408 C409 1.379 . S
C408 H418 0.930 . S
C409 C407 1.395 . S
C409 C408 1.379 . S
C409 H419 0.930 . S
C410 O388 1.264 . S
C410 O389 1.254 . S
C411 Eu347 2.848 . S
C411 O386 1.257 . S
C411 O391 1.249 . S
C411 C404 1.492 . S
H412 C395 0.930 . S
H413 C396 0.930 . S
H414 C397 0.930 . S
H415 C398 0.930 . S
H416 C405 0.930 . S
H417 C407 0.930 . S
H418 C408 0.930 . S
H419 C409 0.930 . S
Eu420 N451 2.657 . S
Eu420 N458 2.609 . S
Eu420 O464 2.558 . S
Eu420 O465 2.612 . S
Eu420 O467 2.339 . S
Eu420 O468 2.563 . S
Eu420 O469 2.419 . S
Eu420 O471 2.380 . S
Eu420 O472 2.432 . S
Eu420 C484 2.848 . S
C421 C424 1.429 . S
C421 C425 1.411 . S
C421 N428 1.377 . S
C422 C424 1.420 . S
C422 C426 1.423 . S
C422 C434 1.392 . S
C423 C425 1.420 . S
C423 C426 1.351 . S
C423 H446 0.931 . S
C424 C421 1.429 . S
C424 C422 1.420 . S
C424 N432 1.362 . S
C425 C421 1.411 . S
C425 C423 1.420 . S
C425 C430 1.395 . S
C426 C422 1.423 . S
C426 C423 1.351 . S
C426 H438 0.930 . S
C427 C429 1.400 . S
C427 C430 1.386 . S
C427 H439 0.930 . S
N428 C421 1.377 . S
N428 C429 1.321 . S
N428 Eu431 2.609 . S
C429 C427 1.400 . S
C429 N428 1.321 . S
C429 H436 0.930 . S
C430 C425 1.395 . S
C430 C427 1.386 . S
C430 H449 0.930 . S
Eu431 N428 2.609 . S
Eu431 N432 2.657 . S
Eu431 O465 2.380 . S
Eu431 O466 2.432 . S
Eu431 O470 2.558 . S
Eu431 O471 2.612 . S
Eu431 O473 2.339 . S
Eu431 O474 2.563 . S
Eu431 O475 2.419 . S
Eu431 C495 2.848 . S
N432 C424 1.362 . S
N432 Eu431 2.657 . S
N432 C433 1.334 . S
C433 N432 1.334 . S
C433 C435 1.413 . S
C433 H440 0.929 . S
C434 C422 1.392 . S
C434 C435 1.367 . S
C434 H442 0.930 . S
C435 C433 1.413 . S
C435 C434 1.367 . S
C435 H437 0.930 . S
H436 C429 0.930 . S
H437 C435 0.930 . S
H438 C426 0.930 . S
H439 C427 0.930 . S
H440 C433 0.929 . S
H441 C455 0.930 . S
H442 C434 0.930 . S
H443 C461 0.930 . S
H444 C452 0.929 . S
H445 C459 0.930 1_556 S
H446 C423 0.931 . S
H447 C453 0.930 . S
H448 C486 0.930 . S
H449 C430 0.930 . S
H450 C485 0.931 . S
N451 Eu420 2.657 . S
N451 C452 1.334 . S
N451 C456 1.362 . S
C452 H444 0.929 . S
C452 N451 1.334 . S
C452 C455 1.413 . S
C453 H447 0.930 . S
C453 C454 1.392 . S
C453 C455 1.367 . S
C454 C453 1.392 . S
C454 C456 1.420 . S
C454 C486 1.423 . S
C455 H441 0.930 . S
C455 C452 1.413 . S
C455 C453 1.367 . S
C456 N451 1.362 . S
C456 C454 1.420 . S
C456 C460 1.429 . S
H457 C462 0.930 . S
N458 Eu420 2.609 . S
N458 C460 1.377 . S
N458 C461 1.321 . S
C459 H445 0.930 1_554 S
C459 C461 1.400 . S
C459 C462 1.386 . S
C460 C456 1.429 . S
C460 N458 1.377 . S
C460 C463 1.411 . S
C461 H443 0.930 . S
C461 N458 1.321 . S
C461 C459 1.400 . S
C462 H457 0.930 . S
C462 C459 1.386 . S
C462 C463 1.395 . S
C463 C460 1.411 . S
C463 C462 1.395 . S
C463 C485 1.420 . S
O464 Eu420 2.558 . S
O464 C484 1.257 . S
O465 Eu420 2.612 . S
O465 Eu431 2.380 . S
O465 C476 1.276 . S
O466 Eu431 2.432 . S
O466 C483 1.264 . S
O467 Eu420 2.339 . S
O467 C483 1.254 . S
O468 Eu420 2.563 . S
O468 C476 1.235 . S
O469 Eu420 2.419 . S
O469 C484 1.249 . S
O470 Eu431 2.558 . S
O470 C495 1.257 . S
O471 Eu420 2.380 . S
O471 Eu431 2.612 . S
O471 C487 1.276 . S
O472 Eu420 2.432 . S
O472 C494 1.264 . S
O473 Eu431 2.339 . S
O473 C494 1.254 . S
O474 Eu431 2.563 . S
O474 C487 1.235 . S
O475 Eu431 2.419 . S
O475 C495 1.249 . S
C476 O465 1.276 . S
C476 O468 1.235 . S
C477 C479 1.393 . S
C477 C481 1.395 . S
C477 C484 1.492 . S
C478 C479 1.392 . S
C478 C480 1.386 . S
C479 C477 1.393 . S
C479 C478 1.392 . S
C479 H496 0.930 . S
C480 C478 1.386 . S
C480 C482 1.395 . S
C480 H497 0.930 . S
C481 C477 1.395 . S
C481 C482 1.379 . S
C481 H498 0.930 . S
C482 C480 1.395 . S
C482 C481 1.379 . S
C482 H499 0.930 . S
C483 O466 1.264 . S
C483 O467 1.254 . S
C484 Eu420 2.848 . S
C484 O464 1.257 . S
C484 O469 1.249 . S
C484 C477 1.492 . S
C485 H450 0.931 . S
C485 C463 1.420 . S
C485 C486 1.351 . S
C486 H448 0.930 . S
C486 C454 1.423 . S
C486 C485 1.351 . S
C487 O471 1.276 . S
C487 O474 1.235 . S
C488 C489 1.393 . S
C488 C492 1.395 . S
C488 C495 1.492 . S
C489 C488 1.393 . S
C489 C490 1.392 . S
C489 H500 0.930 . S
C490 C489 1.392 . S
C490 C491 1.386 . S
C491 C490 1.386 . S
C491 C493 1.395 . S
C491 H501 0.930 . S
C492 C488 1.395 . S
C492 C493 1.379 . S
C492 H502 0.930 . S
C493 C491 1.395 . S
C493 C492 1.379 . S
C493 H503 0.930 . S
C494 O472 1.264 . S
C494 O473 1.254 . S
C495 Eu431 2.848 . S
C495 O470 1.257 . S
C495 O475 1.249 . S
C495 C488 1.492 . S
H496 C479 0.930 . S
H497 C480 0.930 . S
H498 C481 0.930 . S
H499 C482 0.930 . S
H500 C489 0.930 . S
H501 C491 0.930 . S
H502 C492 0.930 . S
H503 C493 0.930 . S
Eu504 N535 2.657 . S
Eu504 N542 2.609 . S
Eu504 O548 2.558 . S
Eu504 O549 2.612 . S
Eu504 O551 2.339 . S
Eu504 O552 2.563 . S
Eu504 O553 2.419 . S
Eu504 O555 2.380 . S
Eu504 O556 2.432 . S
Eu504 C568 2.848 . S
C505 C508 1.429 . S
C505 C509 1.411 . S
C505 N512 1.377 . S
C506 C508 1.420 . S
C506 C510 1.423 . S
C506 C518 1.392 . S
C507 C509 1.420 . S
C507 C510 1.351 . S
C507 H530 0.931 . S
C508 C505 1.429 . S
C508 C506 1.420 . S
C508 N516 1.362 . S
C509 C505 1.411 . S
C509 C507 1.420 . S
C509 C514 1.395 . S
C510 C506 1.423 . S
C510 C507 1.351 . S
C510 H522 0.930 . S
C511 C513 1.400 . S
C511 C514 1.386 . S
C511 H523 0.930 . S
N512 C505 1.377 . S
N512 C513 1.321 . S
N512 Eu515 2.609 . S
C513 C511 1.400 . S
C513 N512 1.321 . S
C513 H520 0.930 . S
C514 C509 1.395 . S
C514 C511 1.386 . S
C514 H533 0.930 . S
Eu515 N512 2.609 . S
Eu515 N516 2.657 . S
Eu515 O549 2.380 . S
Eu515 O550 2.432 . S
Eu515 O554 2.558 . S
Eu515 O555 2.612 . S
Eu515 O557 2.339 . S
Eu515 O558 2.563 . S
Eu515 O559 2.419 . S
Eu515 C579 2.848 . S
N516 C508 1.362 . S
N516 Eu515 2.657 . S
N516 C517 1.334 . S
C517 N516 1.334 . S
C517 C519 1.413 . S
C517 H524 0.929 . S
C518 C506 1.392 . S
C518 C519 1.367 . S
C518 H526 0.930 . S
C519 C517 1.413 . S
C519 C518 1.367 . S
C519 H521 0.930 . S
H520 C513 0.930 . S
H521 C519 0.930 . S
H522 C510 0.930 . S
H523 C511 0.930 . S
H524 C517 0.929 . S
H525 C539 0.930 . S
H526 C518 0.930 . S
H527 C545 0.930 . S
H528 C536 0.929 . S
H529 C543 0.930 . S
H530 C507 0.931 . S
H531 C537 0.930 . S
H532 C570 0.930 . S
H533 C514 0.930 . S
H534 C569 0.931 . S
N535 Eu504 2.657 . S
N535 C536 1.334 . S
N535 C540 1.362 . S
C536 H528 0.929 . S
C536 N535 1.334 . S
C536 C539 1.413 . S
C537 H531 0.930 . S
C537 C538 1.392 . S
C537 C539 1.367 . S
C538 C537 1.392 . S
C538 C540 1.420 . S
C538 C570 1.423 . S
C539 H525 0.930 . S
C539 C536 1.413 . S
C539 C537 1.367 . S
C540 N535 1.362 . S
C540 C538 1.420 . S
C540 C544 1.429 . S
H541 C546 0.930 . S
N542 Eu504 2.609 . S
N542 C544 1.377 . S
N542 C545 1.321 . S
C543 H529 0.930 . S
C543 C545 1.400 . S
C543 C546 1.386 . S
C544 C540 1.429 . S
C544 N542 1.377 . S
C544 C547 1.411 . S
C545 H527 0.930 . S
C545 N542 1.321 . S
C545 C543 1.400 . S
C546 H541 0.930 . S
C546 C543 1.386 . S
C546 C547 1.395 . S
C547 C544 1.411 . S
C547 C546 1.395 . S
C547 C569 1.420 . S
O548 Eu504 2.558 . S
O548 C568 1.257 . S
O549 Eu504 2.612 . S
O549 Eu515 2.380 . S
O549 C560 1.276 . S
O550 Eu515 2.432 . S
O550 C567 1.264 . S
O551 Eu504 2.339 . S
O551 C567 1.254 . S
O552 Eu504 2.563 . S
O552 C560 1.235 . S
O553 Eu504 2.419 . S
O553 C568 1.249 . S
O554 Eu515 2.558 . S
O554 C579 1.257 . S
O555 Eu504 2.380 . S
O555 Eu515 2.612 . S
O555 C571 1.276 . S
O556 Eu504 2.432 . S
O556 C578 1.264 . S
O557 Eu515 2.339 . S
O557 C578 1.254 . S
O558 Eu515 2.563 . S
O558 C571 1.235 . S
O559 Eu515 2.419 . S
O559 C579 1.249 . S
C560 O549 1.276 . S
C560 O552 1.235 . S
C561 C563 1.393 . S
C561 C565 1.395 . S
C561 C568 1.492 . S
C562 C563 1.392 . S
C562 C564 1.386 . S
C563 C561 1.393 . S
C563 C562 1.392 . S
C563 H580 0.930 . S
C564 C562 1.386 . S
C564 C566 1.395 . S
C564 H581 0.930 . S
C565 C561 1.395 . S
C565 C566 1.379 . S
C565 H582 0.930 . S
C566 C564 1.395 . S
C566 C565 1.379 . S
C566 H583 0.930 . S
C567 O550 1.264 . S
C567 O551 1.254 . S
C568 Eu504 2.848 . S
C568 O548 1.257 . S
C568 O553 1.249 . S
C568 C561 1.492 . S
C569 H534 0.931 . S
C569 C547 1.420 . S
C569 C570 1.351 . S
C570 H532 0.930 . S
C570 C538 1.423 . S
C570 C569 1.351 . S
C571 O555 1.276 . S
C571 O558 1.235 . S
C572 C573 1.393 . S
C572 C576 1.395 . S
C572 C579 1.492 . S
C573 C572 1.393 . S
C573 C574 1.392 . S
C573 H584 0.930 . S
C574 C573 1.392 . S
C574 C575 1.386 . S
C575 C574 1.386 . S
C575 C577 1.395 . S
C575 H585 0.930 . S
C576 C572 1.395 . S
C576 C577 1.379 . S
C576 H586 0.930 . S
C577 C575 1.395 . S
C577 C576 1.379 . S
C577 H587 0.930 . S
C578 O556 1.264 . S
C578 O557 1.254 . S
C579 Eu515 2.848 . S
C579 O554 1.257 . S
C579 O559 1.249 . S
C579 C572 1.492 . S
H580 C563 0.930 . S
H581 C564 0.930 . S
H582 C565 0.930 . S
H583 C566 0.930 . S
H584 C573 0.930 . S
H585 C575 0.930 . S
H586 C576 0.930 . S
H587 C577 0.930 . S
Eu588 N619 2.657 . S
Eu588 N626 2.609 . S
Eu588 O632 2.558 . S
Eu588 O633 2.612 . S
Eu588 O635 2.339 . S
Eu588 O636 2.563 . S
Eu588 O637 2.419 . S
Eu588 O639 2.380 . S
Eu588 O640 2.432 . S
Eu588 C652 2.848 . S
C589 C592 1.429 . S
C589 C593 1.411 . S
C589 N596 1.377 . S
C590 C592 1.420 . S
C590 C594 1.423 . S
C590 C602 1.392 . S
C591 C593 1.420 . S
C591 C594 1.351 . S
C591 H614 0.931 . S
C592 C589 1.429 . S
C592 C590 1.420 . S
C592 N600 1.362 . S
C593 C589 1.411 . S
C593 C591 1.420 . S
C593 C598 1.395 . S
C594 C590 1.423 . S
C594 C591 1.351 . S
C594 H606 0.930 . S
C595 C597 1.400 . S
C595 C598 1.386 . S
C595 H607 0.930 . S
N596 C589 1.377 . S
N596 C597 1.321 . S
N596 Eu599 2.609 . S
C597 C595 1.400 . S
C597 N596 1.321 . S
C597 H604 0.930 . S
C598 C593 1.395 . S
C598 C595 1.386 . S
C598 H617 0.930 . S
Eu599 N596 2.609 . S
Eu599 N600 2.657 . S
Eu599 O633 2.380 . S
Eu599 O634 2.432 . S
Eu599 O638 2.558 . S
Eu599 O639 2.612 . S
Eu599 O641 2.339 . S
Eu599 O642 2.563 . S
Eu599 O643 2.419 . S
Eu599 C663 2.848 . S
N600 C592 1.362 . S
N600 Eu599 2.657 . S
N600 C601 1.334 . S
C601 N600 1.334 . S
C601 C603 1.413 . S
C601 H608 0.929 . S
C602 C590 1.392 . S
C602 C603 1.367 . S
C602 H610 0.930 . S
C603 C601 1.413 . S
C603 C602 1.367 . S
C603 H605 0.930 . S
H604 C597 0.930 . S
H605 C603 0.930 . S
H606 C594 0.930 . S
H607 C595 0.930 . S
H608 C601 0.929 . S
H609 C623 0.930 . S
H610 C602 0.930 . S
H611 C629 0.930 . S
H612 C620 0.929 . S
H613 C627 0.930 . S
H614 C591 0.931 . S
H615 C621 0.930 . S
H616 C654 0.930 . S
H617 C598 0.930 . S
H618 C653 0.931 . S
N619 Eu588 2.657 . S
N619 C620 1.334 . S
N619 C624 1.362 . S
C620 H612 0.929 . S
C620 N619 1.334 . S
C620 C623 1.413 1_655 S
C621 H615 0.930 . S
C621 C622 1.392 . S
C621 C623 1.367 . S
C622 C621 1.392 . S
C622 C624 1.420 1_455 S
C622 C654 1.423 . S
C623 H609 0.930 . S
C623 C620 1.413 1_455 S
C623 C621 1.367 . S
C624 N619 1.362 . S
C624 C622 1.420 1_655 S
C624 C628 1.429 . S
H625 C630 0.930 . S
N626 Eu588 2.609 . S
N626 C628 1.377 . S
N626 C629 1.321 . S
C627 H613 0.930 . S
C627 C629 1.400 . S
C627 C630 1.386 . S
C628 C624 1.429 . S
C628 N626 1.377 . S
C628 C631 1.411 . S
C629 H611 0.930 . S
C629 N626 1.321 . S
C629 C627 1.400 . S
C630 H625 0.930 . S
C630 C627 1.386 . S
C630 C631 1.395 . S
C631 C628 1.411 . S
C631 C630 1.395 . S
C631 C653 1.420 1_655 S
O632 Eu588 2.558 . S
O632 C652 1.257 . S
O633 Eu588 2.612 . S
O633 Eu599 2.380 . S
O633 C644 1.276 . S
O634 Eu599 2.432 . S
O634 C651 1.264 . S
O635 Eu588 2.339 . S
O635 C651 1.254 . S
O636 Eu588 2.563 . S
O636 C644 1.235 . S
O637 Eu588 2.419 . S
O637 C652 1.249 . S
O638 Eu599 2.558 . S
O638 C663 1.257 . S
O639 Eu588 2.380 . S
O639 Eu599 2.612 . S
O639 C655 1.276 . S
O640 Eu588 2.432 . S
O640 C662 1.264 . S
O641 Eu599 2.339 . S
O641 C662 1.254 . S
O642 Eu599 2.563 . S
O642 C655 1.235 . S
O643 Eu599 2.419 . S
O643 C663 1.249 . S
C644 O633 1.276 . S
C644 O636 1.235 . S
C645 C647 1.393 . S
C645 C649 1.395 . S
C645 C652 1.492 . S
C646 C647 1.392 1_554 S
C646 C648 1.386 . S
C647 C645 1.393 . S
C647 C646 1.392 1_556 S
C647 H664 0.930 . S
C648 C646 1.386 . S
C648 C650 1.395 1_554 S
C648 H665 0.930 . S
C649 C645 1.395 . S
C649 C650 1.379 . S
C649 H666 0.930 . S
C650 C648 1.395 1_556 S
C650 C649 1.379 . S
C650 H667 0.930 1_556 S
C651 O634 1.264 . S
C651 O635 1.254 . S
C652 Eu588 2.848 . S
C652 O632 1.257 . S
C652 O637 1.249 . S
C652 C645 1.492 . S
C653 H618 0.931 . S
C653 C631 1.420 1_455 S
C653 C654 1.351 . S
C654 H616 0.930 . S
C654 C622 1.423 . S
C654 C653 1.351 . S
C655 O639 1.276 . S
C655 O642 1.235 . S
C656 C657 1.393 . S
C656 C660 1.395 . S
C656 C663 1.492 . S
C657 C656 1.393 . S
C657 C658 1.392 . S
C657 H668 0.930 . S
C658 C657 1.392 . S
C658 C659 1.386 . S
C659 C658 1.386 . S
C659 C661 1.395 . S
C659 H669 0.930 . S
C660 C656 1.395 . S
C660 C661 1.379 . S
C660 H670 0.930 . S
C661 C659 1.395 . S
C661 C660 1.379 . S
C661 H671 0.930 . S
C662 O640 1.264 . S
C662 O641 1.254 . S
C663 Eu599 2.848 . S
C663 O638 1.257 . S
C663 O643 1.249 . S
C663 C656 1.492 . S
H664 C647 0.930 . S
H665 C648 0.930 . S
H666 C649 0.930 . S
H667 C650 0.930 1_554 S
H668 C657 0.930 . S
H669 C659 0.930 . S
H670 C660 0.930 . S
H671 C661 0.930 . S
Eu672 N703 2.657 . S
Eu672 N710 2.609 . S
Eu672 O716 2.558 . S
Eu672 O717 2.612 . S
Eu672 O719 2.339 . S
Eu672 O720 2.563 . S
Eu672 O721 2.419 . S
Eu672 O723 2.380 . S
Eu672 O724 2.432 . S
Eu672 C736 2.848 . S
C673 C676 1.429 . S
C673 C677 1.411 . S
C673 N680 1.377 . S
C674 C676 1.420 . S
C674 C678 1.423 . S
C674 C686 1.392 . S
C675 C677 1.420 . S
C675 C678 1.351 . S
C675 H698 0.931 . S
C676 C673 1.429 . S
C676 C674 1.420 . S
C676 N684 1.362 . S
C677 C673 1.411 . S
C677 C675 1.420 . S
C677 C682 1.395 . S
C678 C674 1.423 . S
C678 C675 1.351 . S
C678 H690 0.912 1_655 S
C679 C681 1.400 . S
C679 C682 1.386 . S
C679 H691 0.930 . S
N680 C673 1.377 . S
N680 C681 1.321 . S
N680 Eu683 2.609 . S
C681 C679 1.400 . S
C681 N680 1.321 . S
C681 H688 0.930 . S
C682 C677 1.395 . S
C682 C679 1.386 . S
C682 H701 0.930 . S
Eu683 N680 2.609 . S
Eu683 N684 2.657 . S
Eu683 O717 2.380 . S
Eu683 O718 2.432 . S
Eu683 O722 2.558 . S
Eu683 O723 2.612 . S
Eu683 O725 2.339 . S
Eu683 O726 2.563 . S
Eu683 O727 2.419 . S
Eu683 C747 2.849 1_556 S
N684 C676 1.362 . S
N684 Eu683 2.657 . S
N684 C685 1.334 . S
C685 N684 1.334 . S
C685 C687 1.413 . S
C685 H692 0.929 . S
C686 C674 1.392 . S
C686 C687 1.367 . S
C686 H694 0.930 . S
C687 C685 1.413 . S
C687 C686 1.367 . S
C687 H689 0.930 . S
H688 C681 0.930 . S
H689 C687 0.930 . S
H690 C678 0.912 1_455 S
H691 C679 0.930 . S
H692 C685 0.929 . S
H693 C707 0.930 . S
H694 C686 0.930 . S
H695 C713 0.930 . S
H696 C704 0.929 . S
H697 C711 0.930 . S
H698 C675 0.931 . S
H699 C705 0.930 . S
H700 C738 0.930 . S
H701 C682 0.930 . S
H702 C737 0.931 . S
N703 Eu672 2.657 . S
N703 C704 1.334 . S
N703 C708 1.362 . S
C704 H696 0.929 . S
C704 N703 1.334 . S
C704 C707 1.413 . S
C705 H699 0.930 . S
C705 C706 1.392 . S
C705 C707 1.367 . S
C706 C705 1.392 . S
C706 C708 1.420 . S
C706 C738 1.423 . S
C707 H693 0.930 . S
C707 C704 1.413 . S
C707 C705 1.367 . S
C708 N703 1.362 . S
C708 C706 1.420 . S
C708 C712 1.429 . S
H709 C714 0.930 . S
N710 Eu672 2.609 . S
N710 C712 1.377 . S
N710 C713 1.321 . S
C711 H697 0.930 . S
C711 C713 1.400 . S
C711 C714 1.386 . S
C712 C708 1.429 . S
C712 N710 1.377 . S
C712 C715 1.411 . S
C713 H695 0.930 . S
C713 N710 1.321 . S
C713 C711 1.400 . S
C714 H709 0.930 . S
C714 C711 1.386 . S
C714 C715 1.395 . S
C715 C712 1.411 . S
C715 C714 1.395 . S
C715 C737 1.420 . S
O716 Eu672 2.558 . S
O716 C736 1.257 . S
O717 Eu672 2.612 . S
O717 Eu683 2.380 . S
O717 C728 1.276 . S
O718 Eu683 2.432 . S
O718 C735 1.264 . S
O719 Eu672 2.339 . S
O719 C735 1.254 . S
O720 Eu672 2.563 . S
O720 C728 1.235 . S
O721 Eu672 2.419 . S
O721 C736 1.249 . S
O722 Eu683 2.558 . S
O722 C747 1.258 1_556 S
O723 Eu672 2.380 . S
O723 Eu683 2.612 . S
O723 C739 1.276 . S
O724 Eu672 2.432 . S
O724 C746 1.264 . S
O725 Eu683 2.339 . S
O725 C746 1.254 . S
O726 Eu683 2.563 . S
O726 C739 1.235 . S
O727 Eu683 2.419 . S
O727 C747 1.249 1_556 S
C728 O717 1.276 . S
C728 O720 1.235 . S
C729 C731 1.393 . S
C729 C733 1.395 . S
C729 C736 1.492 . S
C730 C731 1.392 . S
C730 C732 1.386 . S
C731 C729 1.393 . S
C731 C730 1.392 . S
C731 H748 0.930 . S
C732 C730 1.386 . S
C732 C734 1.395 . S
C732 H749 0.930 . S
C733 C729 1.395 . S
C733 C734 1.379 . S
C733 H750 0.930 . S
C734 C732 1.395 . S
C734 C733 1.379 . S
C734 H751 0.930 . S
C735 O718 1.264 . S
C735 O719 1.254 . S
C736 Eu672 2.848 . S
C736 O716 1.257 . S
C736 O721 1.249 . S
C736 C729 1.492 . S
C737 H702 0.931 . S
C737 C715 1.420 . S
C737 C738 1.351 . S
C738 H700 0.930 . S
C738 C706 1.423 . S
C738 C737 1.351 . S
C739 O723 1.276 . S
C739 O726 1.235 . S
C740 C741 1.393 . S
C740 C744 1.395 . S
C740 C747 1.491 . S
C741 C740 1.393 . S
C741 C742 1.392 . S
C741 H752 0.930 . S
C742 C741 1.392 . S
C742 C743 1.386 . S
C743 C742 1.386 . S
C743 C745 1.395 . S
C743 H753 0.930 . S
C744 C740 1.395 . S
C744 C745 1.379 . S
C744 H754 0.930 . S
C745 C743 1.395 . S
C745 C744 1.379 . S
C745 H755 0.930 . S
C746 O724 1.264 . S
C746 O725 1.254 . S
C747 Eu683 2.849 1_554 S
C747 O722 1.258 1_554 S
C747 O727 1.249 1_554 S
C747 C740 1.491 . S
H748 C731 0.930 . S
H749 C732 0.930 . S
H750 C733 0.930 . S
H751 C734 0.930 . S
H752 C741 0.930 . S
H753 C743 0.930 . S
H754 C744 0.930 . S
H755 C745 0.930 . S
H756 C774 0.951 . S
H757 C776 0.951 . S
H758 C778 0.950 . S
H759 C779 0.950 . S
H760 C781 0.950 . S
H761 C784 0.950 . S
H762 C785 0.950 . S
H763 C787 0.950 . S
H764 C788 0.950 . S
H765 C789 0.951 . S
H766 C791 0.951 . S
H767 C793 0.950 . S
H768 C794 0.950 . S
H769 C796 0.950 . S
H770 C799 0.950 . S
H771 C800 0.950 . S
H772 C802 0.950 . S
H773 C803 0.950 . S
C774 H756 0.951 . S
C774 C775 1.366 . S
C774 C776 1.388 . S
C775 C774 1.366 . S
C775 C779 1.385 . S
C776 H757 0.951 . S
C776 C774 1.388 . S
C776 C777 1.366 . S
C777 C776 1.366 . S
C777 C778 1.414 . S
C777 C780 1.499 . S
C778 H758 0.950 . S
C778 C777 1.414 . S
C778 C779 1.374 . S
C779 H759 0.950 . S
C779 C775 1.385 . S
C779 C778 1.374 . S
C780 C777 1.499 . S
C780 C781 1.373 . S
C780 C782 1.389 . S
C781 H760 0.950 . S
C781 C780 1.373 . S
C781 C797 1.377 . S
C782 C780 1.389 . S
C782 C783 1.524 . S
C782 C796 1.377 . S
C783 C782 1.524 . S
C783 C784 1.397 . S
C783 C788 1.363 . S
C784 H761 0.950 . S
C784 C783 1.397 . S
C784 C785 1.334 . S
C785 H762 0.950 . S
C785 C784 1.334 . S
C785 C786 1.287 . S
C786 C785 1.287 . S
C786 C787 1.524 . S
C786 H805 0.913 . S
C787 H763 0.950 . S
C787 C786 1.524 . S
C787 C788 1.415 . S
C788 H764 0.950 . S
C788 C783 1.363 . S
C788 C787 1.415 . S
C789 H765 0.951 . S
C789 C790 1.366 . S
C789 C791 1.388 . S
C790 C789 1.366 . S
C790 C794 1.385 . S
C791 H766 0.951 . S
C791 C789 1.388 . S
C791 C792 1.366 . S
C792 C791 1.366 . S
C792 C793 1.414 . S
C792 C795 1.499 . S
C793 H767 0.950 . S
C793 C792 1.414 . S
C793 C794 1.374 . S
C794 H768 0.950 . S
C794 C790 1.385 . S
C794 C793 1.374 . S
C795 C792 1.499 . S
C795 C796 1.373 . S
C795 C797 1.389 . S
C796 H769 0.950 . S
C796 C782 1.377 . S
C796 C795 1.373 . S
C797 C781 1.377 . S
C797 C795 1.389 . S
C797 C798 1.524 . S
C798 C797 1.524 . S
C798 C799 1.397 1_455 S
C798 C803 1.363 . S
C799 H770 0.950 . S
C799 C798 1.397 1_655 S
C799 C800 1.334 . S
C800 H771 0.950 . S
C800 C799 1.334 . S
C800 C801 1.287 . S
C801 C800 1.287 . S
C801 C802 1.524 . S
C801 H804 0.999 . S
C802 H772 0.950 . S
C802 C801 1.524 . S
C802 C803 1.415 1_655 S
C803 H773 0.950 . S
C803 C798 1.363 . S
C803 C802 1.415 1_455 S
H804 C801 0.999 . S
H805 C786 0.913 . S
H806 C824 0.951 . S
H807 C826 0.951 . S
H808 C828 0.950 . S
H809 C829 0.950 . S
H810 C831 0.950 . S
H811 C834 0.950 . S
H812 C835 0.950 . S
H813 C837 0.950 . S
H814 C838 0.950 . S
H815 C839 0.951 . S
H816 C841 0.951 . S
H817 C843 0.950 . S
H818 C844 0.950 . S
H819 C846 0.950 . S
H820 C849 0.950 . S
H821 C850 0.950 . S
H822 C852 0.950 . S
H823 C853 0.950 . S
C824 H806 0.951 . S
C824 C825 1.366 . S
C824 C826 1.388 . S
C825 C824 1.366 . S
C825 C829 1.385 . S
C826 H807 0.951 . S
C826 C824 1.388 . S
C826 C827 1.366 . S
C827 C826 1.366 . S
C827 C828 1.414 . S
C827 C830 1.499 . S
C828 H808 0.950 . S
C828 C827 1.414 . S
C828 C829 1.374 . S
C829 H809 0.950 . S
C829 C825 1.385 . S
C829 C828 1.374 . S
C830 C827 1.499 . S
C830 C831 1.373 . S
C830 C832 1.389 . S
C831 H810 0.950 . S
C831 C830 1.373 . S
C831 C847 1.377 . S
C832 C830 1.389 . S
C832 C833 1.524 . S
C832 C846 1.377 . S
C833 C832 1.524 . S
C833 C834 1.397 . S
C833 C838 1.363 . S
C834 H811 0.950 . S
C834 C833 1.397 . S
C834 C835 1.334 . S
C835 H812 0.950 . S
C835 C834 1.334 . S
C835 C836 1.287 . S
C836 C835 1.287 . S
C836 C837 1.524 . S
C836 H855 0.913 . S
C837 H813 0.950 . S
C837 C836 1.524 . S
C837 C838 1.415 . S
C838 H814 0.950 . S
C838 C833 1.363 . S
C838 C837 1.415 . S
C839 H815 0.951 . S
C839 C840 1.366 . S
C839 C841 1.388 . S
C840 C839 1.366 . S
C840 C844 1.385 . S
C841 H816 0.951 . S
C841 C839 1.388 . S
C841 C842 1.366 . S
C842 C841 1.366 . S
C842 C843 1.414 . S
C842 C845 1.499 . S
C843 H817 0.950 . S
C843 C842 1.414 . S
C843 C844 1.374 . S
C844 H818 0.950 . S
C844 C840 1.385 . S
C844 C843 1.374 . S
C845 C842 1.499 . S
C845 C846 1.373 . S
C845 C847 1.389 . S
C846 H819 0.950 . S
C846 C832 1.377 . S
C846 C845 1.373 . S
C847 C831 1.377 . S
C847 C845 1.389 . S
C847 C848 1.524 . S
C848 C847 1.524 . S
C848 C849 1.397 . S
C848 C853 1.363 . S
C849 H820 0.950 . S
C849 C848 1.397 . S
C849 C850 1.334 . S
C850 H821 0.950 . S
C850 C849 1.334 . S
C850 C851 1.287 . S
C851 C850 1.287 . S
C851 C852 1.524 . S
C851 H854 0.999 . S
C852 H822 0.950 . S
C852 C851 1.524 . S
C852 C853 1.415 . S
C853 H823 0.950 . S
C853 C848 1.363 . S
C853 C852 1.415 . S
H854 C851 0.999 . S
H855 C836 0.913 . S
H856 C874 0.951 . S
H857 C876 0.951 . S
H858 C878 0.950 . S
H859 C879 0.950 . S
H860 C881 0.950 . S
H861 C884 0.950 . S
H862 C885 0.950 . S
H863 C887 0.950 . S
H864 C888 0.950 . S
H865 C889 0.951 . S
H866 C891 0.951 . S
H867 C893 0.950 . S
H868 C894 0.950 . S
H869 C896 0.950 . S
H870 C899 0.950 . S
H871 C900 0.950 . S
H872 C902 0.950 . S
H873 C903 0.950 . S
C874 H856 0.951 . S
C874 C875 1.366 . S
C874 C876 1.388 . S
C875 C874 1.366 . S
C875 C879 1.385 . S
C876 H857 0.951 . S
C876 C874 1.388 . S
C876 C877 1.366 . S
C877 C876 1.366 . S
C877 C878 1.414 . S
C877 C880 1.499 . S
C878 H858 0.950 . S
C878 C877 1.414 . S
C878 C879 1.374 . S
C879 H859 0.950 . S
C879 C875 1.385 . S
C879 C878 1.374 . S
C880 C877 1.499 . S
C880 C881 1.373 . S
C880 C882 1.389 . S
C881 H860 0.950 . S
C881 C880 1.373 . S
C881 C897 1.377 . S
C882 C880 1.389 . S
C882 C883 1.524 . S
C882 C896 1.377 . S
C883 C882 1.524 . S
C883 C884 1.397 . S
C883 C888 1.363 . S
C884 H861 0.950 . S
C884 C883 1.397 . S
C884 C885 1.334 . S
C885 H862 0.950 . S
C885 C884 1.334 . S
C885 C886 1.287 . S
C886 C885 1.287 . S
C886 C887 1.524 . S
C886 H905 0.913 . S
C887 H863 0.950 . S
C887 C886 1.524 . S
C887 C888 1.415 . S
C888 H864 0.950 . S
C888 C883 1.363 . S
C888 C887 1.415 . S
C889 H865 0.951 . S
C889 C890 1.366 . S
C889 C891 1.388 . S
C890 C889 1.366 . S
C890 C894 1.385 . S
C891 H866 0.951 . S
C891 C889 1.388 . S
C891 C892 1.366 . S
C892 C891 1.366 . S
C892 C893 1.414 . S
C892 C895 1.499 . S
C893 H867 0.950 . S
C893 C892 1.414 . S
C893 C894 1.374 . S
C894 H868 0.950 . S
C894 C890 1.385 . S
C894 C893 1.374 . S
C895 C892 1.499 . S
C895 C896 1.373 . S
C895 C897 1.389 . S
C896 H869 0.950 . S
C896 C882 1.377 . S
C896 C895 1.373 . S
C897 C881 1.377 . S
C897 C895 1.389 . S
C897 C898 1.524 . S
C898 C897 1.524 . S
C898 C899 1.397 . S
C898 C903 1.363 . S
C899 H870 0.950 . S
C899 C898 1.397 . S
C899 C900 1.334 . S
C900 H871 0.950 . S
C900 C899 1.334 . S
C900 C901 1.287 . S
C901 C900 1.287 . S
C901 C902 1.524 . S
C901 H904 0.999 . S
C902 H872 0.950 . S
C902 C901 1.524 . S
C902 C903 1.415 . S
C903 H873 0.950 . S
C903 C898 1.363 . S
C903 C902 1.415 . S
H904 C901 0.999 . S
H905 C886 0.913 . S
H906 C924 0.951 . S
H907 C926 0.951 . S
H908 C928 0.950 . S
H909 C929 0.950 . S
H910 C931 0.950 . S
H911 C934 0.950 . S
H912 C935 0.950 . S
H913 C937 0.950 . S
H914 C938 0.950 . S
H915 C939 0.951 1_554 S
H916 C941 0.951 . S
H917 C943 0.950 . S
H918 C944 0.950 1_554 S
H919 C946 0.950 . S
H920 C949 0.950 . S
H921 C950 0.950 . S
H922 C952 0.934 1_545 S
H923 C953 0.950 . S
C924 H906 0.951 . S
C924 C925 1.366 . S
C924 C926 1.388 . S
C925 C924 1.366 . S
C925 C929 1.385 . S
C926 H907 0.951 . S
C926 C924 1.388 . S
C926 C927 1.366 . S
C927 C926 1.366 . S
C927 C928 1.414 . S
C927 C930 1.499 . S
C928 H908 0.950 . S
C928 C927 1.414 . S
C928 C929 1.374 . S
C929 H909 0.950 . S
C929 C925 1.385 . S
C929 C928 1.374 . S
C930 C927 1.499 . S
C930 C931 1.373 . S
C930 C932 1.389 . S
C931 H910 0.950 . S
C931 C930 1.373 . S
C931 C947 1.377 . S
C932 C930 1.389 . S
C932 C933 1.524 . S
C932 C946 1.377 . S
C933 C932 1.524 . S
C933 C934 1.397 . S
C933 C938 1.363 . S
C934 H911 0.950 . S
C934 C933 1.397 . S
C934 C935 1.334 . S
C935 H912 0.950 . S
C935 C934 1.334 . S
C935 C936 1.287 . S
C936 C935 1.287 . S
C936 C937 1.524 . S
C936 H955 0.913 . S
C937 H913 0.950 . S
C937 C936 1.524 . S
C937 C938 1.415 . S
C938 H914 0.950 . S
C938 C933 1.363 . S
C938 C937 1.415 . S
C939 H915 0.951 1_556 S
C939 C940 1.366 1_556 S
C939 C941 1.388 . S
C940 C939 1.366 1_554 S
C940 C944 1.385 1_554 S
C941 H916 0.951 . S
C941 C939 1.388 . S
C941 C942 1.366 . S
C942 C941 1.366 . S
C942 C943 1.414 . S
C942 C945 1.499 . S
C943 H917 0.950 . S
C943 C942 1.414 . S
C943 C944 1.374 . S
C944 H918 0.950 1_556 S
C944 C940 1.385 1_556 S
C944 C943 1.374 . S
C945 C942 1.499 . S
C945 C946 1.373 . S
C945 C947 1.389 . S
C946 H919 0.950 . S
C946 C932 1.377 . S
C946 C945 1.373 . S
C947 C931 1.377 . S
C947 C945 1.389 . S
C947 C948 1.524 . S
C948 C947 1.524 . S
C948 C949 1.397 . S
C948 C953 1.363 . S
C949 H920 0.950 . S
C949 C948 1.397 . S
C949 C950 1.334 . S
C950 H921 0.950 . S
C950 C949 1.334 . S
C950 C951 1.287 . S
C951 C950 1.287 . S
C951 C952 1.524 . S
C951 H954 0.999 . S
C952 H922 0.934 1_565 S
C952 C951 1.524 . S
C952 C953 1.415 . S
C953 H923 0.950 . S
C953 C948 1.363 . S
C953 C952 1.415 . S
H954 C951 0.999 . S
H955 C936 0.913 . S
H956 C974 0.951 . S
H957 C976 0.951 . S
H958 C978 0.950 . S
H959 C979 0.950 . S
H960 C981 0.950 . S
H961 C984 0.950 . S
H962 C985 0.950 . S
H963 C987 0.950 . S
H964 C988 0.950 . S
H965 C989 0.951 . S
H966 C991 0.951 . S
H967 C993 0.950 . S
H968 C994 0.950 . S
H969 C996 0.950 . S
H970 C999 0.950 . S
H971 C1000 0.950 . S
H972 C1002 0.950 . S
H973 C1003 0.950 . S
C974 H956 0.951 . S
C974 C975 1.366 . S
C974 C976 1.388 . S
C975 C974 1.366 . S
C975 C979 1.385 . S
C976 H957 0.951 . S
C976 C974 1.388 . S
C976 C977 1.366 . S
C977 C976 1.366 . S
C977 C978 1.414 . S
C977 C980 1.499 . S
C978 H958 0.950 . S
C978 C977 1.414 . S
C978 C979 1.374 . S
C979 H959 0.950 . S
C979 C975 1.385 . S
C979 C978 1.374 . S
C980 C977 1.499 . S
C980 C981 1.373 . S
C980 C982 1.389 . S
C981 H960 0.950 . S
C981 C980 1.373 . S
C981 C997 1.377 . S
C982 C980 1.389 . S
C982 C983 1.524 . S
C982 C996 1.377 . S
C983 C982 1.524 . S
C983 C984 1.397 . S
C983 C988 1.363 . S
C984 H961 0.950 . S
C984 C983 1.397 . S
C984 C985 1.334 . S
C985 H962 0.950 . S
C985 C984 1.334 . S
C985 C986 1.287 . S
C986 C985 1.287 . S
C986 C987 1.524 . S
C986 H1005 0.913 . S
C987 H963 0.950 . S
C987 C986 1.524 . S
C987 C988 1.415 . S
C988 H964 0.950 . S
C988 C983 1.363 . S
C988 C987 1.415 . S
C989 H965 0.951 . S
C989 C990 1.366 . S
C989 C991 1.388 . S
C990 C989 1.366 . S
C990 C994 1.385 . S
C991 H966 0.951 . S
C991 C989 1.388 . S
C991 C992 1.366 . S
C992 C991 1.366 . S
C992 C993 1.414 . S
C992 C995 1.499 . S
C993 H967 0.950 . S
C993 C992 1.414 . S
C993 C994 1.374 . S
C994 H968 0.950 . S
C994 C990 1.385 . S
C994 C993 1.374 . S
C995 C992 1.499 . S
C995 C996 1.373 . S
C995 C997 1.389 . S
C996 H969 0.950 . S
C996 C982 1.377 . S
C996 C995 1.373 . S
C997 C981 1.377 . S
C997 C995 1.389 . S
C997 C998 1.524 . S
C998 C997 1.524 . S
C998 C999 1.397 . S
C998 C1003 1.363 . S
C999 H970 0.950 . S
C999 C998 1.397 . S
C999 C1000 1.334 . S
C1000 H971 0.950 . S
C1000 C999 1.334 . S
C1000 C1001 1.287 . S
C1001 C1000 1.287 . S
C1001 C1002 1.524 . S
C1001 H1004 0.999 . S
C1002 H972 0.950 . S
C1002 C1001 1.524 . S
C1002 C1003 1.415 . S
C1003 H973 0.950 . S
C1003 C998 1.363 . S
C1003 C1002 1.415 . S
H1004 C1001 0.999 . S
H1005 C986 0.913 . S
H1006 C1024 0.951 . S
H1007 C1026 0.951 . S
H1008 C1028 0.950 . S
H1009 C1029 0.950 . S
H1010 C1031 0.950 . S
H1011 C1034 0.950 . S
H1012 C1035 0.950 . S
H1013 C1037 0.950 . S
H1014 C1038 0.950 . S
H1015 C1039 0.951 . S
H1016 C1041 0.951 . S
H1017 C1043 0.950 . S
H1018 C1044 0.950 . S
H1019 C1046 0.950 . S
H1020 C1049 0.950 . S
H1021 C1050 0.950 . S
H1022 C1052 0.950 . S
H1023 C1053 0.950 . S
C1024 H1006 0.951 . S
C1024 C1025 1.366 . S
C1024 C1026 1.388 . S
C1025 C1024 1.366 . S
C1025 C1029 1.385 . S
C1026 H1007 0.951 . S
C1026 C1024 1.388 . S
C1026 C1027 1.366 . S
C1027 C1026 1.366 . S
C1027 C1028 1.414 . S
C1027 C1030 1.499 . S
C1028 H1008 0.950 . S
C1028 C1027 1.414 . S
C1028 C1029 1.374 . S
C1029 H1009 0.950 . S
C1029 C1025 1.385 . S
C1029 C1028 1.374 . S
C1030 C1027 1.499 . S
C1030 C1031 1.373 . S
C1030 C1032 1.389 . S
C1031 H1010 0.950 . S
C1031 C1030 1.373 . S
C1031 C1047 1.377 . S
C1032 C1030 1.389 . S
C1032 C1033 1.524 . S
C1032 C1046 1.377 . S
C1033 C1032 1.524 . S
C1033 C1034 1.397 . S
C1033 C1038 1.363 . S
C1034 H1011 0.950 . S
C1034 C1033 1.397 . S
C1034 C1035 1.334 . S
C1035 H1012 0.950 . S
C1035 C1034 1.334 . S
C1035 C1036 1.287 . S
C1036 C1035 1.287 . S
C1036 C1037 1.524 . S
C1036 H1055 0.913 . S
C1037 H1013 0.950 . S
C1037 C1036 1.524 . S
C1037 C1038 1.415 . S
C1038 H1014 0.950 . S
C1038 C1033 1.363 . S
C1038 C1037 1.415 . S
C1039 H1015 0.951 . S
C1039 C1040 1.366 . S
C1039 C1041 1.388 . S
C1040 C1039 1.366 . S
C1040 C1044 1.385 . S
C1041 H1016 0.951 . S
C1041 C1039 1.388 . S
C1041 C1042 1.366 . S
C1042 C1041 1.366 . S
C1042 C1043 1.414 . S
C1042 C1045 1.499 . S
C1043 H1017 0.950 . S
C1043 C1042 1.414 . S
C1043 C1044 1.374 . S
C1044 H1018 0.950 . S
C1044 C1040 1.385 . S
C1044 C1043 1.374 . S
C1045 C1042 1.499 . S
C1045 C1046 1.373 . S
C1045 C1047 1.389 . S
C1046 H1019 0.950 . S
C1046 C1032 1.377 . S
C1046 C1045 1.373 . S
C1047 C1031 1.377 . S
C1047 C1045 1.389 . S
C1047 C1048 1.524 . S
C1048 C1047 1.524 . S
C1048 C1049 1.397 . S
C1048 C1053 1.363 . S
C1049 H1020 0.950 . S
C1049 C1048 1.397 . S
C1049 C1050 1.334 . S
C1050 H1021 0.950 . S
C1050 C1049 1.334 . S
C1050 C1051 1.287 . S
C1051 C1050 1.287 . S
C1051 C1052 1.524 . S
C1051 H1054 0.999 . S
C1052 H1022 0.950 . S
C1052 C1051 1.524 . S
C1052 C1053 1.415 . S
C1053 H1023 0.950 . S
C1053 C1048 1.363 . S
C1053 C1052 1.415 . S
H1054 C1051 0.999 . S
H1055 C1036 0.913 . S
H1056 C1074 0.951 . S
H1057 C1076 0.951 . S
H1058 C1078 0.950 . S
H1059 C1079 0.950 . S
H1060 C1081 0.950 . S
H1061 C1084 0.950 . S
H1062 C1085 0.950 . S
H1063 C1087 0.950 . S
H1064 C1088 0.950 . S
H1065 C1089 0.951 . S
H1066 C1091 0.951 . S
H1067 C1093 0.950 . S
H1068 C1094 0.950 . S
H1069 C1096 0.950 . S
H1070 C1099 0.950 . S
H1071 C1100 0.950 . S
H1072 C1102 0.950 . S
H1073 C1103 0.950 1_554 S
C1074 H1056 0.951 . S
C1074 C1075 1.366 . S
C1074 C1076 1.388 . S
C1075 C1074 1.366 . S
C1075 C1079 1.385 . S
C1076 H1057 0.951 . S
C1076 C1074 1.388 . S
C1076 C1077 1.366 . S
C1077 C1076 1.366 . S
C1077 C1078 1.414 . S
C1077 C1080 1.499 . S
C1078 H1058 0.950 . S
C1078 C1077 1.414 . S
C1078 C1079 1.374 . S
C1079 H1059 0.950 . S
C1079 C1075 1.385 . S
C1079 C1078 1.374 . S
C1080 C1077 1.499 . S
C1080 C1081 1.373 . S
C1080 C1082 1.389 . S
C1081 H1060 0.950 . S
C1081 C1080 1.373 . S
C1081 C1097 1.377 . S
C1082 C1080 1.389 . S
C1082 C1083 1.524 . S
C1082 C1096 1.377 . S
C1083 C1082 1.524 . S
C1083 C1084 1.397 . S
C1083 C1088 1.363 . S
C1084 H1061 0.950 . S
C1084 C1083 1.397 . S
C1084 C1085 1.334 . S
C1085 H1062 0.950 . S
C1085 C1084 1.334 . S
C1085 C1086 1.287 . S
C1086 C1085 1.287 . S
C1086 C1087 1.524 . S
C1086 H1105 0.913 . S
C1087 H1063 0.950 . S
C1087 C1086 1.524 . S
C1087 C1088 1.415 . S
C1088 H1064 0.950 . S
C1088 C1083 1.363 . S
C1088 C1087 1.415 . S
C1089 H1065 0.951 . S
C1089 C1090 1.366 . S
C1089 C1091 1.388 . S
C1090 C1089 1.366 . S
C1090 C1094 1.385 . S
C1091 H1066 0.951 . S
C1091 C1089 1.388 . S
C1091 C1092 1.366 . S
C1092 C1091 1.366 . S
C1092 C1093 1.414 . S
C1092 C1095 1.499 . S
C1093 H1067 0.950 . S
C1093 C1092 1.414 . S
C1093 C1094 1.374 . S
C1094 H1068 0.950 . S
C1094 C1090 1.385 . S
C1094 C1093 1.374 . S
C1095 C1092 1.499 . S
C1095 C1096 1.373 1_556 S
C1095 C1097 1.389 1_556 S
C1096 H1069 0.950 . S
C1096 C1082 1.377 . S
C1096 C1095 1.373 1_554 S
C1097 C1081 1.377 . S
C1097 C1095 1.389 1_554 S
C1097 C1098 1.524 1_554 S
C1098 C1097 1.524 1_556 S
C1098 C1099 1.397 . S
C1098 C1103 1.363 . S
C1099 H1070 0.950 . S
C1099 C1098 1.397 . S
C1099 C1100 1.334 . S
C1100 H1071 0.950 . S
C1100 C1099 1.334 . S
C1100 C1101 1.287 . S
C1101 C1100 1.287 . S
C1101 C1102 1.524 . S
C1101 H1104 0.999 . S
C1102 H1072 0.950 . S
C1102 C1101 1.524 . S
C1102 C1103 1.415 . S
C1103 H1073 0.950 1_556 S
C1103 C1098 1.363 . S
C1103 C1102 1.415 . S
H1104 C1101 0.999 . S
H1105 C1086 0.913 . S
H1106 C1124 0.951 . S
H1107 C1126 0.951 . S
H1108 C1128 0.950 . S
H1109 C1129 0.950 . S
H1110 C1131 0.950 . S
H1111 C1134 0.950 . S
H1112 C1135 0.950 . S
H1113 C1137 0.950 . S
H1114 C1138 0.950 . S
H1115 C1139 0.951 . S
H1116 C1141 0.951 . S
H1117 C1143 0.950 . S
H1118 C1144 0.950 . S
H1119 C1146 0.950 . S
H1120 C1149 0.950 . S
H1121 C1150 0.950 . S
H1122 C1152 0.950 . S
H1123 C1153 0.950 . S
C1124 H1106 0.951 . S
C1124 C1125 1.366 . S
C1124 C1126 1.388 . S
C1125 C1124 1.366 . S
C1125 C1129 1.385 . S
C1126 H1107 0.951 . S
C1126 C1124 1.388 . S
C1126 C1127 1.366 . S
C1127 C1126 1.366 . S
C1127 C1128 1.414 . S
C1127 C1130 1.499 . S
C1128 H1108 0.950 . S
C1128 C1127 1.414 . S
C1128 C1129 1.374 . S
C1129 H1109 0.950 . S
C1129 C1125 1.385 . S
C1129 C1128 1.374 . S
C1130 C1127 1.499 . S
C1130 C1131 1.373 . S
C1130 C1132 1.389 . S
C1131 H1110 0.950 . S
C1131 C1130 1.373 . S
C1131 C1147 1.377 . S
C1132 C1130 1.389 . S
C1132 C1133 1.524 . S
C1132 C1146 1.377 . S
C1133 C1132 1.524 . S
C1133 C1134 1.397 . S
C1133 C1138 1.363 . S
C1134 H1111 0.950 . S
C1134 C1133 1.397 . S
C1134 C1135 1.334 . S
C1135 H1112 0.950 . S
C1135 C1134 1.334 . S
C1135 C1136 1.287 . S
C1136 C1135 1.287 . S
C1136 C1137 1.524 . S
C1136 H1155 0.913 . S
C1137 H1113 0.950 . S
C1137 C1136 1.524 . S
C1137 C1138 1.415 . S
C1138 H1114 0.950 . S
C1138 C1133 1.363 . S
C1138 C1137 1.415 . S
C1139 H1115 0.951 . S
C1139 C1140 1.366 . S
C1139 C1141 1.388 1_556 S
C1140 C1139 1.366 . S
C1140 C1144 1.385 . S
C1141 H1116 0.951 . S
C1141 C1139 1.388 1_554 S
C1141 C1142 1.366 . S
C1142 C1141 1.366 . S
C1142 C1143 1.414 . S
C1142 C1145 1.499 . S
C1143 H1117 0.950 . S
C1143 C1142 1.414 . S
C1143 C1144 1.374 1_554 S
C1144 H1118 0.950 . S
C1144 C1140 1.385 . S
C1144 C1143 1.374 1_556 S
C1145 C1142 1.499 . S
C1145 C1146 1.373 . S
C1145 C1147 1.389 . S
C1146 H1119 0.950 . S
C1146 C1132 1.377 . S
C1146 C1145 1.373 . S
C1147 C1131 1.377 . S
C1147 C1145 1.389 . S
C1147 C1148 1.524 . S
C1148 C1147 1.524 . S
C1148 C1149 1.397 . S
C1148 C1153 1.363 . S
C1149 H1120 0.950 . S
C1149 C1148 1.397 . S
C1149 C1150 1.334 . S
C1150 H1121 0.950 . S
C1150 C1149 1.334 . S
C1150 C1151 1.287 . S
C1151 C1150 1.287 . S
C1151 C1152 1.524 . S
C1151 H1154 0.999 . S
C1152 H1122 0.950 . S
C1152 C1151 1.524 . S
C1152 C1153 1.415 . S
C1153 H1123 0.950 . S
C1153 C1148 1.363 . S
C1153 C1152 1.415 . S
H1154 C1151 0.999 . S
H1155 C1136 0.913 . S
H1156 C1174 0.951 . S
H1157 C1176 0.951 . S
H1158 C1178 0.950 . S
H1159 C1179 0.950 . S
H1160 C1181 0.950 . S
H1161 C1184 0.950 . S
H1162 C1185 0.950 . S
H1163 C1187 0.950 . S
H1164 C1188 0.950 . S
H1165 C1189 0.951 . S
H1166 C1191 0.951 . S
H1167 C1193 0.950 . S
H1168 C1194 0.950 . S
H1169 C1196 0.950 . S
H1170 C1199 0.950 . S
H1171 C1200 0.950 . S
H1172 C1202 0.950 . S
H1173 C1203 0.950 . S
C1174 H1156 0.951 . S
C1174 C1175 1.366 . S
C1174 C1176 1.388 . S
C1175 C1174 1.366 . S
C1175 C1179 1.385 . S
C1176 H1157 0.951 . S
C1176 C1174 1.388 . S
C1176 C1177 1.366 . S
C1177 C1176 1.366 . S
C1177 C1178 1.414 . S
C1177 C1180 1.499 . S
C1178 H1158 0.950 . S
C1178 C1177 1.414 . S
C1178 C1179 1.374 . S
C1179 H1159 0.950 . S
C1179 C1175 1.385 . S
C1179 C1178 1.374 . S
C1180 C1177 1.499 . S
C1180 C1181 1.373 . S
C1180 C1182 1.389 . S
C1181 H1160 0.950 . S
C1181 C1180 1.373 . S
C1181 C1197 1.377 . S
C1182 C1180 1.389 . S
C1182 C1183 1.524 . S
C1182 C1196 1.377 . S
C1183 C1182 1.524 . S
C1183 C1184 1.397 . S
C1183 C1188 1.363 . S
C1184 H1161 0.950 . S
C1184 C1183 1.397 . S
C1184 C1185 1.334 . S
C1185 H1162 0.950 . S
C1185 C1184 1.334 . S
C1185 C1186 1.287 . S
C1186 C1185 1.287 . S
C1186 C1187 1.524 . S
C1186 H1205 0.913 . S
C1187 H1163 0.950 . S
C1187 C1186 1.524 . S
C1187 C1188 1.415 . S
C1188 H1164 0.950 . S
C1188 C1183 1.363 . S
C1188 C1187 1.415 . S
C1189 H1165 0.951 . S
C1189 C1190 1.366 . S
C1189 C1191 1.388 . S
C1190 C1189 1.366 . S
C1190 C1194 1.385 . S
C1191 H1166 0.951 . S
C1191 C1189 1.388 . S
C1191 C1192 1.366 . S
C1192 C1191 1.366 . S
C1192 C1193 1.414 . S
C1192 C1195 1.499 . S
C1193 H1167 0.950 . S
C1193 C1192 1.414 . S
C1193 C1194 1.374 . S
C1194 H1168 0.950 . S
C1194 C1190 1.385 . S
C1194 C1193 1.374 . S
C1195 C1192 1.499 . S
C1195 C1196 1.373 . S
C1195 C1197 1.389 . S
C1196 H1169 0.950 . S
C1196 C1182 1.377 . S
C1196 C1195 1.373 . S
C1197 C1181 1.377 . S
C1197 C1195 1.389 . S
C1197 C1198 1.524 . S
C1198 C1197 1.524 . S
C1198 C1199 1.397 . S
C1198 C1203 1.363 . S
C1199 H1170 0.950 . S
C1199 C1198 1.397 . S
C1199 C1200 1.334 . S
C1200 H1171 0.950 . S
C1200 C1199 1.334 . S
C1200 C1201 1.287 . S
C1201 C1200 1.287 . S
C1201 C1202 1.524 . S
C1201 H1204 0.999 . S
C1202 H1172 0.950 . S
C1202 C1201 1.524 . S
C1202 C1203 1.415 . S
C1203 H1173 0.950 . S
C1203 C1198 1.363 . S
C1203 C1202 1.415 . S
H1204 C1201 0.999 . S
H1205 C1186 0.913 . S
H1206 C1224 0.951 . S
H1207 C1226 0.951 . S
H1208 C1228 0.950 . S
H1209 C1229 0.950 . S
H1210 C1231 0.950 . S
H1211 C1234 0.950 . S
H1212 C1235 0.950 . S
H1213 C1237 0.950 . S
H1214 C1238 0.950 . S
H1215 C1239 0.951 . S
H1216 C1241 0.951 . S
H1217 C1243 0.950 . S
H1218 C1244 0.950 . S
H1219 C1246 0.950 . S
H1220 C1249 0.950 . S
H1221 C1250 0.950 . S
H1222 C1252 0.950 . S
H1223 C1253 0.950 . S
C1224 H1206 0.951 . S
C1224 C1225 1.366 . S
C1224 C1226 1.388 . S
C1225 C1224 1.366 . S
C1225 C1229 1.385 . S
C1226 H1207 0.951 . S
C1226 C1224 1.388 . S
C1226 C1227 1.366 . S
C1227 C1226 1.366 . S
C1227 C1228 1.414 . S
C1227 C1230 1.499 . S
C1228 H1208 0.950 . S
C1228 C1227 1.414 . S
C1228 C1229 1.374 . S
C1229 H1209 0.950 . S
C1229 C1225 1.385 . S
C1229 C1228 1.374 . S
C1230 C1227 1.499 . S
C1230 C1231 1.373 . S
C1230 C1232 1.389 . S
C1231 H1210 0.950 . S
C1231 C1230 1.373 . S
C1231 C1247 1.377 . S
C1232 C1230 1.389 . S
C1232 C1233 1.524 . S
C1232 C1246 1.377 . S
C1233 C1232 1.524 . S
C1233 C1234 1.397 . S
C1233 C1238 1.363 . S
C1234 H1211 0.950 . S
C1234 C1233 1.397 . S
C1234 C1235 1.334 . S
C1235 H1212 0.950 . S
C1235 C1234 1.334 . S
C1235 C1236 1.287 . S
C1236 C1235 1.287 . S
C1236 C1237 1.524 . S
C1236 H1255 0.913 . S
C1237 H1213 0.950 . S
C1237 C1236 1.524 . S
C1237 C1238 1.415 . S
C1238 H1214 0.950 . S
C1238 C1233 1.363 . S
C1238 C1237 1.415 . S
C1239 H1215 0.951 . S
C1239 C1240 1.366 . S
C1239 C1241 1.388 . S
C1240 C1239 1.366 . S
C1240 C1244 1.385 . S
C1241 H1216 0.951 . S
C1241 C1239 1.388 . S
C1241 C1242 1.366 . S
C1242 C1241 1.366 . S
C1242 C1243 1.414 . S
C1242 C1245 1.499 . S
C1243 H1217 0.950 . S
C1243 C1242 1.414 . S
C1243 C1244 1.374 . S
C1244 H1218 0.950 . S
C1244 C1240 1.385 . S
C1244 C1243 1.374 . S
C1245 C1242 1.499 . S
C1245 C1246 1.373 . S
C1245 C1247 1.389 . S
C1246 H1219 0.950 . S
C1246 C1232 1.377 . S
C1246 C1245 1.373 . S
C1247 C1231 1.377 . S
C1247 C1245 1.389 . S
C1247 C1248 1.524 . S
C1248 C1247 1.524 . S
C1248 C1249 1.397 . S
C1248 C1253 1.363 . S
C1249 H1220 0.950 . S
C1249 C1248 1.397 . S
C1249 C1250 1.334 . S
C1250 H1221 0.950 . S
C1250 C1249 1.334 . S
C1250 C1251 1.287 . S
C1251 C1250 1.287 . S
C1251 C1252 1.524 . S
C1251 H1254 0.999 . S
C1252 H1222 0.950 . S
C1252 C1251 1.524 . S
C1252 C1253 1.415 . S
C1253 H1223 0.950 . S
C1253 C1248 1.363 . S
C1253 C1252 1.415 . S
H1254 C1251 0.999 . S
H1255 C1236 0.913 . S
H1256 C1274 0.951 . S
H1257 C1276 0.951 . S
H1258 C1278 0.950 . S
H1259 C1279 0.950 . S
H1260 C1281 0.950 . S
H1261 C1284 0.950 . S
H1262 C1285 0.950 . S
H1263 C1287 0.950 . S
H1264 C1288 0.950 . S
H1265 C1289 0.951 . S
H1266 C1291 0.951 . S
H1267 C1293 0.950 . S
H1268 C1294 0.950 . S
H1269 C1296 0.950 . S
H1270 C1299 0.950 . S
H1271 C1300 0.950 . S
H1272 C1302 0.950 . S
H1273 C1303 0.950 . S
C1274 H1256 0.951 . S
C1274 C1275 1.366 . S
C1274 C1276 1.388 . S
C1275 C1274 1.366 . S
C1275 C1279 1.385 . S
C1276 H1257 0.951 . S
C1276 C1274 1.388 . S
C1276 C1277 1.366 . S
C1277 C1276 1.366 . S
C1277 C1278 1.414 . S
C1277 C1280 1.499 . S
C1278 H1258 0.950 . S
C1278 C1277 1.414 . S
C1278 C1279 1.374 . S
C1279 H1259 0.950 . S
C1279 C1275 1.385 . S
C1279 C1278 1.374 . S
C1280 C1277 1.499 . S
C1280 C1281 1.373 . S
C1280 C1282 1.389 . S
C1281 H1260 0.950 . S
C1281 C1280 1.373 . S
C1281 C1297 1.377 . S
C1282 C1280 1.389 . S
C1282 C1283 1.524 . S
C1282 C1296 1.377 . S
C1283 C1282 1.524 . S
C1283 C1284 1.397 . S
C1283 C1288 1.363 . S
C1284 H1261 0.950 . S
C1284 C1283 1.397 . S
C1284 C1285 1.334 . S
C1285 H1262 0.950 . S
C1285 C1284 1.334 . S
C1285 C1286 1.287 . S
C1286 C1285 1.287 . S
C1286 C1287 1.524 . S
C1286 H1305 0.913 . S
C1287 H1263 0.950 . S
C1287 C1286 1.524 . S
C1287 C1288 1.415 . S
C1288 H1264 0.950 . S
C1288 C1283 1.363 . S
C1288 C1287 1.415 . S
C1289 H1265 0.951 . S
C1289 C1290 1.366 . S
C1289 C1291 1.388 . S
C1290 C1289 1.366 . S
C1290 C1294 1.385 . S
C1291 H1266 0.951 . S
C1291 C1289 1.388 . S
C1291 C1292 1.366 . S
C1292 C1291 1.366 . S
C1292 C1293 1.414 . S
C1292 C1295 1.499 . S
C1293 H1267 0.950 . S
C1293 C1292 1.414 . S
C1293 C1294 1.374 . S
C1294 H1268 0.950 . S
C1294 C1290 1.385 . S
C1294 C1293 1.374 . S
C1295 C1292 1.499 . S
C1295 C1296 1.373 . S
C1295 C1297 1.389 . S
C1296 H1269 0.950 . S
C1296 C1282 1.377 . S
C1296 C1295 1.373 . S
C1297 C1281 1.377 . S
C1297 C1295 1.389 . S
C1297 C1298 1.524 . S
C1298 C1297 1.524 . S
C1298 C1299 1.397 . S
C1298 C1303 1.363 . S
C1299 H1270 0.950 . S
C1299 C1298 1.397 . S
C1299 C1300 1.334 . S
C1300 H1271 0.950 . S
C1300 C1299 1.334 . S
C1300 C1301 1.287 . S
C1301 C1300 1.287 . S
C1301 C1302 1.524 . S
C1301 H1304 0.999 . S
C1302 H1272 0.950 . S
C1302 C1301 1.524 . S
C1302 C1303 1.415 . S
C1303 H1273 0.950 . S
C1303 C1298 1.363 . S
C1303 C1302 1.415 . S
H1304 C1301 0.999 . S
H1305 C1286 0.913 . S
H1306 C1324 0.951 . S
H1307 C1326 0.951 1_545 S
H1308 C1328 0.950 . S
H1309 C1329 0.950 . S
H1310 C1331 0.950 . S
H1311 C1334 0.950 . S
H1312 C1335 0.950 . S
H1313 C1337 0.950 1_545 S
H1314 C1338 0.950 . S
H1315 C1339 0.951 . S
H1316 C1341 0.951 . S
H1317 C1343 0.950 . S
H1318 C1344 0.950 . S
H1319 C1346 0.950 . S
H1320 C1349 0.950 . S
H1321 C1350 0.950 . S
H1322 C1352 0.950 . S
H1323 C1353 0.950 . S
C1324 H1306 0.951 . S
C1324 C1325 1.366 . S
C1324 C1326 1.388 1_545 S
C1325 C1324 1.366 . S
C1325 C1329 1.385 1_545 S
C1326 H1307 0.951 1_565 S
C1326 C1324 1.388 1_565 S
C1326 C1327 1.366 . S
C1327 C1326 1.366 . S
C1327 C1328 1.414 . S
C1327 C1330 1.499 . S
C1328 H1308 0.950 . S
C1328 C1327 1.414 . S
C1328 C1329 1.374 . S
C1329 H1309 0.950 . S
C1329 C1325 1.385 1_565 S
C1329 C1328 1.374 . S
C1330 C1327 1.499 . S
C1330 C1331 1.373 . S
C1330 C1332 1.389 . S
C1331 H1310 0.950 . S
C1331 C1330 1.373 . S
C1331 C1347 1.377 . S
C1332 C1330 1.389 . S
C1332 C1333 1.524 . S
C1332 C1346 1.377 . S
C1333 C1332 1.524 . S
C1333 C1334 1.397 . S
C1333 C1338 1.363 . S
C1334 H1311 0.950 . S
C1334 C1333 1.397 . S
C1334 C1335 1.334 . S
C1335 H1312 0.950 . S
C1335 C1334 1.334 . S
C1335 C1336 1.287 . S
C1336 C1335 1.287 . S
C1336 C1337 1.524 . S
C1336 H1355 0.913 . S
C1337 H1313 0.950 1_565 S
C1337 C1336 1.524 . S
C1337 C1338 1.415 . S
C1338 H1314 0.950 . S
C1338 C1333 1.363 . S
C1338 C1337 1.415 . S
C1339 H1315 0.951 . S
C1339 C1340 1.366 . S
C1339 C1341 1.388 . S
C1340 C1339 1.366 . S
C1340 C1344 1.385 . S
C1341 H1316 0.951 . S
C1341 C1339 1.388 . S
C1341 C1342 1.366 . S
C1342 C1341 1.366 . S
C1342 C1343 1.414 . S
C1342 C1345 1.499 . S
C1343 H1317 0.950 . S
C1343 C1342 1.414 . S
C1343 C1344 1.374 . S
C1344 H1318 0.950 . S
C1344 C1340 1.385 . S
C1344 C1343 1.374 . S
C1345 C1342 1.499 . S
C1345 C1346 1.373 . S
C1345 C1347 1.389 . S
C1346 H1319 0.950 . S
C1346 C1332 1.377 . S
C1346 C1345 1.373 . S
C1347 C1331 1.377 . S
C1347 C1345 1.389 . S
C1347 C1348 1.524 1_554 S
C1348 C1347 1.524 1_556 S
C1348 C1349 1.397 . S
C1348 C1353 1.363 . S
C1349 H1320 0.950 . S
C1349 C1348 1.397 . S
C1349 C1350 1.334 . S
C1350 H1321 0.950 . S
C1350 C1349 1.334 . S
C1350 C1351 1.287 . S
C1351 C1350 1.287 . S
C1351 C1352 1.524 . S
C1351 H1354 0.999 . S
C1352 H1322 0.950 . S
C1352 C1351 1.524 . S
C1352 C1353 1.415 . S
C1353 H1323 0.950 . S
C1353 C1348 1.363 . S
C1353 C1352 1.415 . S
H1354 C1351 0.999 . S
H1355 C1336 0.913 . S
H1356 C1374 0.951 . S
H1357 C1376 0.951 . S
H1358 C1378 0.950 . S
H1359 C1379 0.950 . S
H1360 C1381 0.950 . S
H1361 C1384 0.950 . S
H1362 C1385 0.950 . S
H1363 C1387 0.950 . S
H1364 C1388 0.950 . S
H1365 C1389 0.951 . S
H1366 C1391 0.951 . S
H1367 C1393 0.950 . S
H1368 C1394 0.950 . S
H1369 C1396 0.950 . S
H1370 C1399 0.950 . S
H1371 C1400 0.950 . S
H1372 C1402 0.950 . S
H1373 C1403 0.950 . S
C1374 H1356 0.951 . S
C1374 C1375 1.366 . S
C1374 C1376 1.388 . S
C1375 C1374 1.366 . S
C1375 C1379 1.385 . S
C1376 H1357 0.951 . S
C1376 C1374 1.388 . S
C1376 C1377 1.366 . S
C1377 C1376 1.366 . S
C1377 C1378 1.414 . S
C1377 C1380 1.499 . S
C1378 H1358 0.950 . S
C1378 C1377 1.414 . S
C1378 C1379 1.374 . S
C1379 H1359 0.950 . S
C1379 C1375 1.385 . S
C1379 C1378 1.374 . S
C1380 C1377 1.499 . S
C1380 C1381 1.373 . S
C1380 C1382 1.389 . S
C1381 H1360 0.950 . S
C1381 C1380 1.373 . S
C1381 C1397 1.377 . S
C1382 C1380 1.389 . S
C1382 C1383 1.524 . S
C1382 C1396 1.377 . S
C1383 C1382 1.524 . S
C1383 C1384 1.397 . S
C1383 C1388 1.363 . S
C1384 H1361 0.950 . S
C1384 C1383 1.397 . S
C1384 C1385 1.334 1_556 S
C1385 H1362 0.950 . S
C1385 C1384 1.334 1_554 S
C1385 C1386 1.287 . S
C1386 C1385 1.287 . S
C1386 C1387 1.524 1_554 S
C1386 H1405 0.913 . S
C1387 H1363 0.950 . S
C1387 C1386 1.524 1_556 S
C1387 C1388 1.415 . S
C1388 H1364 0.950 . S
C1388 C1383 1.363 . S
C1388 C1387 1.415 . S
C1389 H1365 0.951 . S
C1389 C1390 1.366 . S
C1389 C1391 1.388 . S
C1390 C1389 1.366 . S
C1390 C1394 1.385 . S
C1391 H1366 0.951 . S
C1391 C1389 1.388 . S
C1391 C1392 1.366 . S
C1392 C1391 1.366 . S
C1392 C1393 1.414 . S
C1392 C1395 1.499 . S
C1393 H1367 0.950 . S
C1393 C1392 1.414 . S
C1393 C1394 1.374 . S
C1394 H1368 0.950 . S
C1394 C1390 1.385 . S
C1394 C1393 1.374 . S
C1395 C1392 1.499 . S
C1395 C1396 1.373 . S
C1395 C1397 1.389 . S
C1396 H1369 0.950 . S
C1396 C1382 1.377 . S
C1396 C1395 1.373 . S
C1397 C1381 1.377 . S
C1397 C1395 1.389 . S
C1397 C1398 1.524 . S
C1398 C1397 1.524 . S
C1398 C1399 1.397 . S
C1398 C1403 1.363 . S
C1399 H1370 0.950 . S
C1399 C1398 1.397 . S
C1399 C1400 1.334 . S
C1400 H1371 0.950 . S
C1400 C1399 1.334 . S
C1400 C1401 1.287 . S
C1401 C1400 1.287 . S
C1401 C1402 1.524 . S
C1401 H1404 0.999 . S
C1402 H1372 0.950 . S
C1402 C1401 1.524 . S
C1402 C1403 1.415 . S
C1403 H1373 0.950 . S
C1403 C1398 1.363 . S
C1403 C1402 1.415 . S
H1404 C1401 0.999 . S
H1405 C1386 0.913 . S
H1406 C1424 0.951 . S
H1407 C1426 0.951 . S
H1408 C1428 0.950 . S
H1409 C1429 0.950 . S
H1410 C1431 0.950 . S
H1411 C1434 0.950 . S
H1412 C1435 0.950 . S
H1413 C1437 0.950 . S
H1414 C1438 0.950 . S
H1415 C1439 0.951 . S
H1416 C1441 0.951 . S
H1417 C1443 0.950 . S
H1418 C1444 0.950 . S
H1419 C1446 0.950 . S
H1420 C1449 0.950 . S
H1421 C1450 0.950 . S
H1422 C1452 0.959 . S
H1423 C1453 0.950 1_455 S
C1424 H1406 0.951 . S
C1424 C1425 1.366 . S
C1424 C1426 1.388 . S
C1425 C1424 1.366 . S
C1425 C1429 1.385 . S
C1426 H1407 0.951 . S
C1426 C1424 1.388 . S
C1426 C1427 1.366 . S
C1427 C1426 1.366 . S
C1427 C1428 1.414 . S
C1427 C1430 1.499 . S
C1428 H1408 0.950 . S
C1428 C1427 1.414 . S
C1428 C1429 1.374 . S
C1429 H1409 0.950 . S
C1429 C1425 1.385 . S
C1429 C1428 1.374 . S
C1430 C1427 1.499 . S
C1430 C1431 1.373 . S
C1430 C1432 1.389 . S
C1431 H1410 0.950 . S
C1431 C1430 1.373 . S
C1431 C1447 1.377 1_556 S
C1432 C1430 1.389 . S
C1432 C1433 1.524 . S
C1432 C1446 1.377 . S
C1433 C1432 1.524 . S
C1433 C1434 1.397 . S
C1433 C1438 1.363 . S
C1434 H1411 0.950 . S
C1434 C1433 1.397 . S
C1434 C1435 1.334 . S
C1435 H1412 0.950 . S
C1435 C1434 1.334 . S
C1435 C1436 1.287 . S
C1436 C1435 1.287 . S
C1436 C1437 1.524 . S
C1436 H1455 0.913 . S
C1437 H1413 0.950 . S
C1437 C1436 1.524 . S
C1437 C1438 1.415 . S
C1438 H1414 0.950 . S
C1438 C1433 1.363 . S
C1438 C1437 1.415 . S
C1439 H1415 0.951 . S
C1439 C1440 1.366 . S
C1439 C1441 1.388 . S
C1440 C1439 1.366 . S
C1440 C1444 1.385 1_455 S
C1441 H1416 0.951 . S
C1441 C1439 1.388 . S
C1441 C1442 1.366 1_455 S
C1442 C1441 1.366 1_655 S
C1442 C1443 1.414 . S
C1442 C1445 1.499 . S
C1443 H1417 0.950 . S
C1443 C1442 1.414 . S
C1443 C1444 1.374 . S
C1444 H1418 0.950 . S
C1444 C1440 1.385 1_655 S
C1444 C1443 1.374 . S
C1445 C1442 1.499 . S
C1445 C1446 1.373 1_554 S
C1445 C1447 1.389 . S
C1446 H1419 0.950 . S
C1446 C1432 1.377 . S
C1446 C1445 1.373 1_556 S
C1447 C1431 1.377 1_554 S
C1447 C1445 1.389 . S
C1447 C1448 1.524 . S
C1448 C1447 1.524 . S
C1448 C1449 1.397 . S
C1448 C1453 1.363 . S
C1449 H1420 0.950 . S
C1449 C1448 1.397 . S
C1449 C1450 1.334 . S
C1450 H1421 0.950 . S
C1450 C1449 1.334 . S
C1450 C1451 1.287 . S
C1451 C1450 1.287 . S
C1451 C1452 1.515 1_655 S
C1451 H1454 0.999 . S
C1452 H1422 0.959 . S
C1452 C1451 1.515 1_455 S
C1452 C1453 1.413 1_455 S
C1453 H1423 0.950 1_655 S
C1453 C1448 1.363 . S
C1453 C1452 1.413 1_655 S
H1454 C1451 0.999 . S
H1455 C1436 0.913 . S
H1456 C1474 0.951 . S
H1457 C1476 0.951 . S
H1458 C1478 0.950 . S
H1459 C1479 0.950 . S
H1460 C1481 0.950 . S
H1461 C1484 0.950 . S
H1462 C1485 0.950 . S
H1463 C1487 0.950 . S
H1464 C1488 0.950 . S
H1465 C1489 0.951 . S
H1466 C1491 0.951 . S
H1467 C1493 0.950 . S
H1468 C1494 0.950 . S
H1469 C1496 0.950 . S
H1470 C1499 0.950 . S
H1471 C1500 0.950 . S
H1472 C1502 0.950 . S
H1473 C1503 0.950 . S
C1474 H1456 0.951 . S
C1474 C1475 1.366 . S
C1474 C1476 1.388 . S
C1475 C1474 1.366 . S
C1475 C1479 1.385 . S
C1476 H1457 0.951 . S
C1476 C1474 1.388 . S
C1476 C1477 1.366 . S
C1477 C1476 1.366 . S
C1477 C1478 1.414 . S
C1477 C1480 1.499 . S
C1478 H1458 0.950 . S
C1478 C1477 1.414 . S
C1478 C1479 1.374 . S
C1479 H1459 0.950 . S
C1479 C1475 1.385 . S
C1479 C1478 1.374 . S
C1480 C1477 1.499 . S
C1480 C1481 1.373 1_556 S
C1480 C1482 1.389 . S
C1481 H1460 0.950 . S
C1481 C1480 1.373 1_554 S
C1481 C1497 1.377 . S
C1482 C1480 1.389 . S
C1482 C1483 1.524 . S
C1482 C1496 1.377 . S
C1483 C1482 1.524 . S
C1483 C1484 1.397 . S
C1483 C1488 1.363 . S
C1484 H1461 0.950 . S
C1484 C1483 1.397 . S
C1484 C1485 1.334 . S
C1485 H1462 0.950 . S
C1485 C1484 1.334 . S
C1485 C1486 1.287 . S
C1486 C1485 1.287 . S
C1486 C1487 1.524 . S
C1486 H1505 0.913 . S
C1487 H1463 0.950 . S
C1487 C1486 1.524 . S
C1487 C1488 1.415 . S
C1488 H1464 0.950 . S
C1488 C1483 1.363 . S
C1488 C1487 1.415 . S
C1489 H1465 0.951 . S
C1489 C1490 1.366 . S
C1489 C1491 1.388 . S
C1490 C1489 1.366 . S
C1490 C1494 1.385 . S
C1491 H1466 0.951 . S
C1491 C1489 1.388 . S
C1491 C1492 1.366 . S
C1492 C1491 1.366 . S
C1492 C1493 1.414 . S
C1492 C1495 1.499 . S
C1493 H1467 0.950 . S
C1493 C1492 1.414 . S
C1493 C1494 1.374 . S
C1494 H1468 0.950 . S
C1494 C1490 1.385 . S
C1494 C1493 1.374 . S
C1495 C1492 1.499 . S
C1495 C1496 1.373 1_554 S
C1495 C1497 1.389 . S
C1496 H1469 0.950 . S
C1496 C1482 1.377 . S
C1496 C1495 1.373 1_556 S
C1497 C1481 1.377 . S
C1497 C1495 1.389 . S
C1497 C1498 1.524 . S
C1498 C1497 1.524 . S
C1498 C1499 1.397 . S
C1498 C1503 1.363 . S
C1499 H1470 0.950 . S
C1499 C1498 1.397 . S
C1499 C1500 1.334 . S
C1500 H1471 0.950 . S
C1500 C1499 1.334 . S
C1500 C1501 1.287 . S
C1501 C1500 1.287 . S
C1501 C1502 1.524 . S
C1501 H1504 0.999 . S
C1502 H1472 0.950 . S
C1502 C1501 1.524 . S
C1502 C1503 1.415 . S
C1503 H1473 0.950 . S
C1503 C1498 1.363 . S
C1503 C1502 1.415 . S
H1504 C1501 0.999 . S
H1505 C1486 0.913 . S
H1506 C1524 0.951 . S
H1507 C1526 0.951 . S
H1508 C1528 0.950 . S
H1509 C1529 0.950 . S
H1510 C1531 0.950 . S
H1511 C1534 0.950 . S
H1512 C1535 0.950 . S
H1513 C1537 0.950 . S
H1514 C1538 0.950 . S
H1515 C1539 0.951 1_556 S
H1516 C1541 0.951 . S
H1517 C1543 0.950 . S
H1518 C1544 0.950 . S
H1519 C1546 0.950 . S
H1520 C1549 0.950 1_554 S
H1521 C1550 0.950 . S
H1522 C1552 0.950 . S
H1523 C1553 0.950 . S
C1524 H1506 0.951 . S
C1524 C1525 1.366 . S
C1524 C1526 1.388 . S
C1525 C1524 1.366 . S
C1525 C1529 1.385 . S
C1526 H1507 0.951 . S
C1526 C1524 1.388 . S
C1526 C1527 1.366 . S
C1527 C1526 1.366 . S
C1527 C1528 1.414 . S
C1527 C1530 1.499 . S
C1528 H1508 0.950 . S
C1528 C1527 1.414 . S
C1528 C1529 1.374 . S
C1529 H1509 0.950 . S
C1529 C1525 1.385 . S
C1529 C1528 1.374 . S
C1530 C1527 1.499 . S
C1530 C1531 1.373 . S
C1530 C1532 1.389 . S
C1531 H1510 0.950 . S
C1531 C1530 1.373 . S
C1531 C1547 1.377 . S
C1532 C1530 1.389 . S
C1532 C1533 1.524 1_556 S
C1532 C1546 1.377 1_556 S
C1533 C1532 1.524 1_554 S
C1533 C1534 1.397 1_554 S
C1533 C1538 1.363 . S
C1534 H1511 0.950 . S
C1534 C1533 1.397 1_556 S
C1534 C1535 1.334 . S
C1535 H1512 0.950 . S
C1535 C1534 1.334 . S
C1535 C1536 1.287 1_556 S
C1536 C1535 1.287 1_554 S
C1536 C1537 1.524 . S
C1536 H1555 0.913 . S
C1537 H1513 0.950 . S
C1537 C1536 1.524 . S
C1537 C1538 1.415 . S
C1538 H1514 0.950 . S
C1538 C1533 1.363 . S
C1538 C1537 1.415 . S
C1539 H1515 0.951 1_554 S
C1539 C1540 1.366 . S
C1539 C1541 1.388 1_554 S
C1540 C1539 1.366 . S
C1540 C1544 1.385 . S
C1541 H1516 0.951 . S
C1541 C1539 1.388 1_556 S
C1541 C1542 1.366 1_556 S
C1542 C1541 1.366 1_554 S
C1542 C1543 1.414 . S
C1542 C1545 1.507 . S
C1543 H1517 0.950 . S
C1543 C1542 1.414 . S
C1543 C1544 1.374 . S
C1544 H1518 0.950 . S
C1544 C1540 1.385 . S
C1544 C1543 1.374 . S
C1545 C1542 1.507 . S
C1545 C1546 1.378 . S
C1545 C1547 1.376 1_554 S
C1546 H1519 0.950 . S
C1546 C1532 1.377 1_554 S
C1546 C1545 1.378 . S
C1547 C1531 1.377 . S
C1547 C1545 1.376 1_556 S
C1547 C1548 1.524 . S
C1548 C1547 1.524 . S
C1548 C1549 1.397 . S
C1548 C1553 1.363 . S
C1549 H1520 0.950 1_556 S
C1549 C1548 1.397 . S
C1549 C1550 1.334 . S
C1550 H1521 0.950 . S
C1550 C1549 1.334 . S
C1550 C1551 1.287 . S
C1551 C1550 1.287 . S
C1551 C1552 1.524 . S
C1551 H1554 0.999 . S
C1552 H1522 0.950 . S
C1552 C1551 1.524 . S
C1552 C1553 1.415 . S
C1553 H1523 0.950 . S
C1553 C1548 1.363 . S
C1553 C1552 1.415 . S
H1554 C1551 0.999 . S
H1555 C1536 0.913 . S
H1556 C1574 0.951 . S
H1557 C1576 0.951 . S
H1558 C1578 0.950 . S
H1559 C1579 0.950 . S
H1560 C1581 0.950 . S
H1561 C1584 0.950 . S
H1562 C1585 0.950 . S
H1563 C1587 0.950 . S
H1564 C1588 0.950 . S
H1565 C1589 0.951 . S
H1566 C1591 0.951 . S
H1567 C1593 0.950 . S
H1568 C1594 0.950 . S
H1569 C1596 0.950 . S
H1570 C1599 0.950 . S
H1571 C1600 0.950 . S
H1572 C1602 0.950 . S
H1573 C1603 0.950 . S
C1574 H1556 0.951 . S
C1574 C1575 1.366 . S
C1574 C1576 1.388 . S
C1575 C1574 1.366 . S
C1575 C1579 1.385 . S
C1576 H1557 0.951 . S
C1576 C1574 1.388 . S
C1576 C1577 1.366 . S
C1577 C1576 1.366 . S
C1577 C1578 1.414 . S
C1577 C1580 1.499 . S
C1578 H1558 0.950 . S
C1578 C1577 1.414 . S
C1578 C1579 1.374 . S
C1579 H1559 0.950 . S
C1579 C1575 1.385 . S
C1579 C1578 1.374 . S
C1580 C1577 1.499 . S
C1580 C1581 1.373 . S
C1580 C1582 1.389 . S
C1581 H1560 0.950 . S
C1581 C1580 1.373 . S
C1581 C1597 1.377 . S
C1582 C1580 1.389 . S
C1582 C1583 1.524 . S
C1582 C1596 1.377 . S
C1583 C1582 1.524 . S
C1583 C1584 1.397 . S
C1583 C1588 1.363 . S
C1584 H1561 0.950 . S
C1584 C1583 1.397 . S
C1584 C1585 1.334 . S
C1585 H1562 0.950 . S
C1585 C1584 1.334 . S
C1585 C1586 1.287 . S
C1586 C1585 1.287 . S
C1586 C1587 1.524 . S
C1586 H1605 0.913 . S
C1587 H1563 0.950 . S
C1587 C1586 1.524 . S
C1587 C1588 1.415 . S
C1588 H1564 0.950 . S
C1588 C1583 1.363 . S
C1588 C1587 1.415 . S
C1589 H1565 0.951 . S
C1589 C1590 1.366 . S
C1589 C1591 1.388 . S
C1590 C1589 1.366 . S
C1590 C1594 1.385 . S
C1591 H1566 0.951 . S
C1591 C1589 1.388 . S
C1591 C1592 1.366 . S
C1592 C1591 1.366 . S
C1592 C1593 1.414 . S
C1592 C1595 1.499 . S
C1593 H1567 0.950 . S
C1593 C1592 1.414 . S
C1593 C1594 1.374 . S
C1594 H1568 0.950 . S
C1594 C1590 1.385 . S
C1594 C1593 1.374 . S
C1595 C1592 1.499 . S
C1595 C1596 1.373 . S
C1595 C1597 1.389 . S
C1596 H1569 0.950 . S
C1596 C1582 1.377 . S
C1596 C1595 1.373 . S
C1597 C1581 1.377 . S
C1597 C1595 1.389 . S
C1597 C1598 1.524 . S
C1598 C1597 1.524 . S
C1598 C1599 1.397 . S
C1598 C1603 1.363 . S
C1599 H1570 0.950 . S
C1599 C1598 1.397 . S
C1599 C1600 1.334 . S
C1600 H1571 0.950 . S
C1600 C1599 1.334 . S
C1600 C1601 1.287 . S
C1601 C1600 1.287 . S
C1601 C1602 1.524 . S
C1601 H1604 0.999 . S
C1602 H1572 0.950 . S
C1602 C1601 1.524 . S
C1602 C1603 1.415 . S
C1603 H1573 0.950 . S
C1603 C1598 1.363 . S
C1603 C1602 1.415 . S
H1604 C1601 0.999 . S
H1605 C1586 0.913 . S
H1606 C1624 0.951 . S
H1607 C1626 0.951 . S
H1608 C1628 0.950 . S
H1609 C1629 0.950 . S
H1610 C1631 0.950 . S
H1611 C1634 0.950 . S
H1612 C1635 0.950 . S
H1613 C1637 0.950 . S
H1614 C1638 0.950 . S
H1615 C1639 0.951 . S
H1616 C1641 0.951 . S
H1617 C1643 0.950 . S
H1618 C1644 0.950 . S
H1619 C1646 0.950 . S
H1620 C1649 0.950 . S
H1621 C1650 0.950 . S
H1622 C1652 0.950 . S
H1623 C1653 0.950 . S
C1624 H1606 0.951 . S
C1624 C1625 1.366 . S
C1624 C1626 1.388 . S
C1625 C1624 1.366 . S
C1625 C1629 1.385 . S
C1626 H1607 0.951 . S
C1626 C1624 1.388 . S
C1626 C1627 1.366 . S
C1627 C1626 1.366 . S
C1627 C1628 1.414 . S
C1627 C1630 1.499 . S
C1628 H1608 0.950 . S
C1628 C1627 1.414 . S
C1628 C1629 1.374 . S
C1629 H1609 0.950 . S
C1629 C1625 1.385 . S
C1629 C1628 1.374 . S
C1630 C1627 1.499 . S
C1630 C1631 1.373 . S
C1630 C1632 1.389 . S
C1631 H1610 0.950 . S
C1631 C1630 1.373 . S
C1631 C1647 1.377 . S
C1632 C1630 1.389 . S
C1632 C1633 1.524 . S
C1632 C1646 1.377 . S
C1633 C1632 1.524 . S
C1633 C1634 1.397 . S
C1633 C1638 1.363 . S
C1634 H1611 0.950 . S
C1634 C1633 1.397 . S
C1634 C1635 1.334 . S
C1635 H1612 0.950 . S
C1635 C1634 1.334 . S
C1635 C1636 1.287 . S
C1636 C1635 1.287 . S
C1636 C1637 1.524 . S
C1636 H1655 0.913 . S
C1637 H1613 0.950 . S
C1637 C1636 1.524 . S
C1637 C1638 1.415 . S
C1638 H1614 0.950 . S
C1638 C1633 1.363 . S
C1638 C1637 1.415 . S
C1639 H1615 0.951 . S
C1639 C1640 1.366 . S
C1639 C1641 1.388 . S
C1640 C1639 1.366 . S
C1640 C1644 1.385 . S
C1641 H1616 0.951 . S
C1641 C1639 1.388 . S
C1641 C1642 1.366 . S
C1642 C1641 1.366 . S
C1642 C1643 1.414 . S
C1642 C1645 1.499 . S
C1643 H1617 0.950 . S
C1643 C1642 1.414 . S
C1643 C1644 1.374 . S
C1644 H1618 0.950 . S
C1644 C1640 1.385 . S
C1644 C1643 1.374 . S
C1645 C1642 1.499 . S
C1645 C1646 1.373 . S
C1645 C1647 1.389 . S
C1646 H1619 0.950 . S
C1646 C1632 1.377 . S
C1646 C1645 1.373 . S
C1647 C1631 1.377 . S
C1647 C1645 1.389 . S
C1647 C1648 1.524 . S
C1648 C1647 1.524 . S
C1648 C1649 1.397 . S
C1648 C1653 1.363 . S
C1649 H1620 0.950 . S
C1649 C1648 1.397 . S
C1649 C1650 1.334 . S
C1650 H1621 0.950 . S
C1650 C1649 1.334 . S
C1650 C1651 1.287 . S
C1651 C1650 1.287 . S
C1651 C1652 1.524 . S
C1651 H1654 0.999 . S
C1652 H1622 0.950 . S
C1652 C1651 1.524 . S
C1652 C1653 1.415 . S
C1653 H1623 0.950 . S
C1653 C1648 1.363 . S
C1653 C1652 1.415 . S
H1654 C1651 0.999 . S
H1655 C1636 0.913 . S
H1656 C1674 0.951 . S
H1657 C1676 0.951 . S
H1658 C1678 0.950 . S
H1659 C1679 0.950 . S
H1660 C1681 0.950 . S
H1661 C1684 0.950 . S
H1662 C1685 0.950 . S
H1663 C1687 0.950 . S
H1664 C1688 0.950 . S
H1665 C1689 0.951 . S
H1666 C1691 0.951 . S
H1667 C1693 0.950 1_545 S
H1668 C1694 0.950 . S
H1669 C1696 0.950 1_566 S
H1670 C1699 0.950 . S
H1671 C1700 0.950 . S
H1672 C1702 0.950 . S
H1673 C1703 0.950 . S
C1674 H1656 0.951 . S
C1674 C1675 1.366 1_556 S
C1674 C1676 1.388 . S
C1675 C1674 1.366 1_554 S
C1675 C1679 1.385 . S
C1676 H1657 0.951 . S
C1676 C1674 1.388 . S
C1676 C1677 1.366 1_556 S
C1677 C1676 1.366 1_554 S
C1677 C1678 1.414 . S
C1677 C1680 1.499 . S
C1678 H1658 0.950 . S
C1678 C1677 1.414 . S
C1678 C1679 1.374 . S
C1679 H1659 0.950 . S
C1679 C1675 1.385 . S
C1679 C1678 1.374 . S
C1680 C1677 1.499 . S
C1680 C1681 1.373 . S
C1680 C1682 1.389 . S
C1681 H1660 0.950 . S
C1681 C1680 1.373 . S
C1681 C1697 1.377 . S
C1682 C1680 1.389 . S
C1682 C1683 1.524 1_554 S
C1682 C1696 1.377 . S
C1683 C1682 1.524 1_556 S
C1683 C1684 1.397 1_545 S
C1683 C1688 1.363 . S
C1684 H1661 0.950 . S
C1684 C1683 1.397 1_565 S
C1684 C1685 1.334 . S
C1685 H1662 0.950 . S
C1685 C1684 1.334 . S
C1685 C1686 1.287 . S
C1686 C1685 1.287 . S
C1686 C1687 1.524 . S
C1686 H1705 0.913 . S
C1687 H1663 0.950 . S
C1687 C1686 1.524 . S
C1687 C1688 1.415 1_565 S
C1688 H1664 0.950 . S
C1688 C1683 1.363 . S
C1688 C1687 1.415 1_545 S
C1689 H1665 0.951 . S
C1689 C1690 1.366 . S
C1689 C1691 1.388 . S
C1690 C1689 1.366 . S
C1690 C1694 1.385 . S
C1691 H1666 0.951 . S
C1691 C1689 1.388 . S
C1691 C1692 1.366 . S
C1692 C1691 1.366 . S
C1692 C1693 1.414 . S
C1692 C1695 1.499 1_565 S
C1693 H1667 0.950 1_565 S
C1693 C1692 1.414 . S
C1693 C1694 1.374 . S
C1694 H1668 0.950 . S
C1694 C1690 1.385 . S
C1694 C1693 1.374 . S
C1695 C1692 1.499 1_545 S
C1695 C1696 1.373 . S
C1695 C1697 1.389 . S
C1696 H1669 0.950 1_544 S
C1696 C1682 1.377 . S
C1696 C1695 1.373 . S
C1697 C1681 1.377 . S
C1697 C1695 1.389 . S
C1697 C1698 1.524 . S
C1698 C1697 1.524 . S
C1698 C1699 1.397 . S
C1698 C1703 1.363 . S
C1699 H1670 0.950 . S
C1699 C1698 1.397 . S
C1699 C1700 1.334 . S
C1700 H1671 0.950 . S
C1700 C1699 1.334 . S
C1700 C1701 1.287 . S
C1701 C1700 1.287 . S
C1701 C1702 1.524 . S
C1701 H1704 0.999 . S
C1702 H1672 0.950 . S
C1702 C1701 1.524 . S
C1702 C1703 1.415 . S
C1703 H1673 0.950 . S
C1703 C1698 1.363 . S
C1703 C1702 1.415 . S
H1704 C1701 0.999 . S
H1705 C1686 0.913 . S
H1706 C1724 0.951 . S
H1707 C1726 0.951 . S
H1708 C1728 0.950 . S
H1709 C1729 0.950 . S
H1710 C1731 0.950 . S
H1711 C1734 0.950 . S
H1712 C1735 0.950 . S
H1713 C1737 0.950 . S
H1714 C1738 0.950 . S
H1715 C1739 0.951 . S
H1716 C1741 0.951 . S
H1717 C1743 0.950 . S
H1718 C1744 0.950 . S
H1719 C1746 0.950 . S
H1720 C1749 0.950 . S
H1721 C1750 0.950 . S
H1722 C1752 0.950 . S
H1723 C1753 0.950 . S
C1724 H1706 0.951 . S
C1724 C1725 1.366 . S
C1724 C1726 1.388 . S
C1725 C1724 1.366 . S
C1725 C1729 1.385 . S
C1726 H1707 0.951 . S
C1726 C1724 1.388 . S
C1726 C1727 1.366 . S
C1727 C1726 1.366 . S
C1727 C1728 1.414 . S
C1727 C1730 1.499 . S
C1728 H1708 0.950 . S
C1728 C1727 1.414 . S
C1728 C1729 1.374 . S
C1729 H1709 0.950 . S
C1729 C1725 1.385 . S
C1729 C1728 1.374 . S
C1730 C1727 1.499 . S
C1730 C1731 1.373 . S
C1730 C1732 1.389 . S
C1731 H1710 0.950 . S
C1731 C1730 1.373 . S
C1731 C1747 1.377 . S
C1732 C1730 1.389 . S
C1732 C1733 1.524 . S
C1732 C1746 1.377 . S
C1733 C1732 1.524 . S
C1733 C1734 1.397 . S
C1733 C1738 1.363 . S
C1734 H1711 0.950 . S
C1734 C1733 1.397 . S
C1734 C1735 1.334 . S
C1735 H1712 0.950 . S
C1735 C1734 1.334 . S
C1735 C1736 1.287 . S
C1736 C1735 1.287 . S
C1736 C1737 1.524 . S
C1736 H1755 0.913 . S
C1737 H1713 0.950 . S
C1737 C1736 1.524 . S
C1737 C1738 1.415 . S
C1738 H1714 0.950 . S
C1738 C1733 1.363 . S
C1738 C1737 1.415 . S
C1739 H1715 0.951 . S
C1739 C1740 1.366 . S
C1739 C1741 1.388 . S
C1740 C1739 1.366 . S
C1740 C1744 1.385 . S
C1741 H1716 0.951 . S
C1741 C1739 1.388 . S
C1741 C1742 1.366 . S
C1742 C1741 1.366 . S
C1742 C1743 1.414 . S
C1742 C1745 1.499 . S
C1743 H1717 0.950 . S
C1743 C1742 1.414 . S
C1743 C1744 1.374 . S
C1744 H1718 0.950 . S
C1744 C1740 1.385 . S
C1744 C1743 1.374 . S
C1745 C1742 1.499 . S
C1745 C1746 1.373 . S
C1745 C1747 1.389 . S
C1746 H1719 0.950 . S
C1746 C1732 1.377 . S
C1746 C1745 1.373 . S
C1747 C1731 1.377 . S
C1747 C1745 1.389 . S
C1747 C1748 1.524 . S
C1748 C1747 1.524 . S
C1748 C1749 1.397 . S
C1748 C1753 1.363 . S
C1749 H1720 0.950 . S
C1749 C1748 1.397 . S
C1749 C1750 1.334 . S
C1750 H1721 0.950 . S
C1750 C1749 1.334 . S
C1750 C1751 1.287 . S
C1751 C1750 1.287 . S
C1751 C1752 1.524 . S
C1751 H1754 0.999 . S
C1752 H1722 0.950 . S
C1752 C1751 1.524 . S
C1752 C1753 1.415 . S
C1753 H1723 0.950 . S
C1753 C1748 1.363 . S
C1753 C1752 1.415 . S
H1754 C1751 0.999 . S
H1755 C1736 0.913 . S
H1756 C1774 0.951 . S
H1757 C1776 0.951 . S
H1758 C1778 0.950 . S
H1759 C1779 0.950 . S
H1760 C1781 0.950 . S
H1761 C1784 0.950 . S
H1762 C1785 0.950 . S
H1763 C1787 0.950 . S
H1764 C1788 0.950 . S
H1765 C1789 0.951 . S
H1766 C1791 0.951 . S
H1767 C1793 0.950 . S
H1768 C1794 0.950 . S
H1769 C1796 0.950 . S
H1770 C1799 0.950 . S
H1771 C1800 0.950 . S
H1772 C1802 0.950 . S
H1773 C1803 0.950 . S
C1774 H1756 0.951 . S
C1774 C1775 1.366 . S
C1774 C1776 1.388 . S
C1775 C1774 1.366 . S
C1775 C1779 1.385 . S
C1776 H1757 0.951 . S
C1776 C1774 1.388 . S
C1776 C1777 1.366 . S
C1777 C1776 1.366 . S
C1777 C1778 1.414 . S
C1777 C1780 1.499 . S
C1778 H1758 0.950 . S
C1778 C1777 1.414 . S
C1778 C1779 1.374 . S
C1779 H1759 0.950 . S
C1779 C1775 1.385 . S
C1779 C1778 1.374 . S
C1780 C1777 1.499 . S
C1780 C1781 1.373 . S
C1780 C1782 1.389 . S
C1781 H1760 0.950 . S
C1781 C1780 1.373 . S
C1781 C1797 1.377 . S
C1782 C1780 1.389 . S
C1782 C1783 1.524 . S
C1782 C1796 1.377 . S
C1783 C1782 1.524 . S
C1783 C1784 1.397 . S
C1783 C1788 1.363 . S
C1784 H1761 0.950 . S
C1784 C1783 1.397 . S
C1784 C1785 1.334 . S
C1785 H1762 0.950 . S
C1785 C1784 1.334 . S
C1785 C1786 1.287 . S
C1786 C1785 1.287 . S
C1786 C1787 1.524 . S
C1786 H1805 0.913 . S
C1787 H1763 0.950 . S
C1787 C1786 1.524 . S
C1787 C1788 1.415 . S
C1788 H1764 0.950 . S
C1788 C1783 1.363 . S
C1788 C1787 1.415 . S
C1789 H1765 0.951 . S
C1789 C1790 1.366 . S
C1789 C1791 1.388 . S
C1790 C1789 1.366 . S
C1790 C1794 1.385 . S
C1791 H1766 0.951 . S
C1791 C1789 1.388 . S
C1791 C1792 1.366 . S
C1792 C1791 1.366 . S
C1792 C1793 1.414 . S
C1792 C1795 1.499 . S
C1793 H1767 0.950 . S
C1793 C1792 1.414 . S
C1793 C1794 1.374 . S
C1794 H1768 0.950 . S
C1794 C1790 1.385 . S
C1794 C1793 1.374 . S
C1795 C1792 1.499 . S
C1795 C1796 1.373 . S
C1795 C1797 1.389 . S
C1796 H1769 0.950 . S
C1796 C1782 1.377 . S
C1796 C1795 1.373 . S
C1797 C1781 1.377 . S
C1797 C1795 1.389 . S
C1797 C1798 1.524 . S
C1798 C1797 1.524 . S
C1798 C1799 1.397 1_554 S
C1798 C1803 1.363 . S
C1799 H1770 0.950 . S
C1799 C1798 1.397 1_556 S
C1799 C1800 1.334 . S
C1800 H1771 0.950 . S
C1800 C1799 1.334 . S
C1800 C1801 1.287 . S
C1801 C1800 1.287 . S
C1801 C1802 1.521 1_556 S
C1801 H1804 0.999 . S
C1802 H1772 0.950 . S
C1802 C1801 1.521 1_554 S
C1802 C1803 1.418 . S
C1803 H1773 0.950 . S
C1803 C1798 1.363 . S
C1803 C1802 1.418 . S
H1804 C1801 0.999 . S
H1805 C1786 0.913 . S
H1806 C1824 0.951 . S
H1807 C1826 0.951 . S
H1808 C1828 0.950 . S
H1809 C1829 0.950 . S
H1810 C1831 0.950 . S
H1811 C1834 0.950 . S
H1812 C1835 0.950 . S
H1813 C1837 0.950 . S
H1814 C1838 0.950 . S
H1815 C1839 0.951 . S
H1816 C1841 0.951 . S
H1817 C1843 0.950 . S
H1818 C1844 0.950 . S
H1819 C1846 0.950 . S
H1820 C1849 0.950 . S
H1821 C1850 0.950 . S
H1822 C1852 0.950 . S
H1823 C1853 0.950 . S
C1824 H1806 0.951 . S
C1824 C1825 1.366 . S
C1824 C1826 1.388 . S
C1825 C1824 1.366 . S
C1825 C1829 1.385 . S
C1826 H1807 0.951 . S
C1826 C1824 1.388 . S
C1826 C1827 1.366 . S
C1827 C1826 1.366 . S
C1827 C1828 1.414 . S
C1827 C1830 1.499 . S
C1828 H1808 0.950 . S
C1828 C1827 1.414 . S
C1828 C1829 1.374 . S
C1829 H1809 0.950 . S
C1829 C1825 1.385 . S
C1829 C1828 1.374 . S
C1830 C1827 1.499 . S
C1830 C1831 1.373 . S
C1830 C1832 1.389 . S
C1831 H1810 0.950 . S
C1831 C1830 1.373 . S
C1831 C1847 1.377 . S
C1832 C1830 1.389 . S
C1832 C1833 1.524 . S
C1832 C1846 1.377 . S
C1833 C1832 1.524 . S
C1833 C1834 1.397 . S
C1833 C1838 1.363 . S
C1834 H1811 0.950 . S
C1834 C1833 1.397 . S
C1834 C1835 1.334 . S
C1835 H1812 0.950 . S
C1835 C1834 1.334 . S
C1835 C1836 1.287 . S
C1836 C1835 1.287 . S
C1836 C1837 1.524 . S
C1836 H1855 0.913 . S
C1837 H1813 0.950 . S
C1837 C1836 1.524 . S
C1837 C1838 1.415 . S
C1838 H1814 0.950 . S
C1838 C1833 1.363 . S
C1838 C1837 1.415 . S
C1839 H1815 0.951 . S
C1839 C1840 1.366 . S
C1839 C1841 1.388 . S
C1840 C1839 1.366 . S
C1840 C1844 1.385 . S
C1841 H1816 0.951 . S
C1841 C1839 1.388 . S
C1841 C1842 1.366 . S
C1842 C1841 1.366 . S
C1842 C1843 1.414 . S
C1842 C1845 1.499 . S
C1843 H1817 0.950 . S
C1843 C1842 1.414 . S
C1843 C1844 1.374 . S
C1844 H1818 0.950 . S
C1844 C1840 1.385 . S
C1844 C1843 1.374 . S
C1845 C1842 1.499 . S
C1845 C1846 1.373 . S
C1845 C1847 1.389 . S
C1846 H1819 0.950 . S
C1846 C1832 1.377 . S
C1846 C1845 1.373 . S
C1847 C1831 1.377 . S
C1847 C1845 1.389 . S
C1847 C1848 1.524 . S
C1848 C1847 1.524 . S
C1848 C1849 1.397 . S
C1848 C1853 1.363 . S
C1849 H1820 0.950 . S
C1849 C1848 1.397 . S
C1849 C1850 1.334 . S
C1850 H1821 0.950 . S
C1850 C1849 1.334 . S
C1850 C1851 1.287 . S
C1851 C1850 1.287 . S
C1851 C1852 1.524 . S
C1851 H1854 0.999 . S
C1852 H1822 0.950 . S
C1852 C1851 1.524 . S
C1852 C1853 1.415 . S
C1853 H1823 0.950 . S
C1853 C1848 1.363 . S
C1853 C1852 1.415 . S
H1854 C1851 0.999 . S
H1855 C1836 0.913 . S
H1856 C1874 0.951 . S
H1857 C1876 0.951 . S
H1858 C1878 0.950 . S
H1859 C1879 0.950 . S
H1860 C1881 0.950 . S
H1861 C1884 0.950 . S
H1862 C1885 0.950 . S
H1863 C1887 0.950 . S
H1864 C1888 0.950 . S
H1865 C1889 0.951 . S
H1866 C1891 0.951 . S
H1867 C1893 0.950 . S
H1868 C1894 0.950 . S
H1869 C1896 0.950 . S
H1870 C1899 0.950 . S
H1871 C1900 0.950 . S
H1872 C1902 0.950 . S
H1873 C1903 0.950 . S
C1874 H1856 0.951 . S
C1874 C1875 1.366 . S
C1874 C1876 1.388 . S
C1875 C1874 1.366 . S
C1875 C1879 1.385 . S
C1876 H1857 0.951 . S
C1876 C1874 1.388 . S
C1876 C1877 1.366 . S
C1877 C1876 1.366 . S
C1877 C1878 1.414 . S
C1877 C1880 1.499 1_545 S
C1878 H1858 0.950 . S
C1878 C1877 1.414 . S
C1878 C1879 1.374 . S
C1879 H1859 0.950 . S
C1879 C1875 1.385 . S
C1879 C1878 1.374 . S
C1880 C1877 1.499 1_565 S
C1880 C1881 1.373 . S
C1880 C1882 1.389 . S
C1881 H1860 0.950 . S
C1881 C1880 1.373 . S
C1881 C1897 1.377 . S
C1882 C1880 1.389 . S
C1882 C1883 1.524 1_565 S
C1882 C1896 1.377 . S
C1883 C1882 1.524 1_545 S
C1883 C1884 1.397 . S
C1883 C1888 1.363 . S
C1884 H1861 0.950 . S
C1884 C1883 1.397 . S
C1884 C1885 1.334 . S
C1885 H1862 0.950 . S
C1885 C1884 1.334 . S
C1885 C1886 1.287 . S
C1886 C1885 1.287 . S
C1886 C1887 1.524 . S
C1886 H1905 0.913 . S
C1887 H1863 0.950 . S
C1887 C1886 1.524 . S
C1887 C1888 1.415 . S
C1888 H1864 0.950 . S
C1888 C1883 1.363 . S
C1888 C1887 1.415 . S
C1889 H1865 0.951 . S
C1889 C1890 1.366 . S
C1889 C1891 1.388 . S
C1890 C1889 1.366 . S
C1890 C1894 1.385 . S
C1891 H1866 0.951 . S
C1891 C1889 1.388 . S
C1891 C1892 1.366 . S
C1892 C1891 1.366 . S
C1892 C1893 1.414 . S
C1892 C1895 1.499 . S
C1893 H1867 0.950 . S
C1893 C1892 1.414 . S
C1893 C1894 1.374 . S
C1894 H1868 0.950 . S
C1894 C1890 1.385 . S
C1894 C1893 1.374 . S
C1895 C1892 1.499 . S
C1895 C1896 1.373 . S
C1895 C1897 1.389 . S
C1896 H1869 0.950 . S
C1896 C1882 1.377 . S
C1896 C1895 1.373 . S
C1897 C1881 1.377 . S
C1897 C1895 1.389 . S
C1897 C1898 1.524 . S
C1898 C1897 1.524 . S
C1898 C1899 1.397 . S
C1898 C1903 1.363 . S
C1899 H1870 0.950 . S
C1899 C1898 1.397 . S
C1899 C1900 1.334 . S
C1900 H1871 0.950 . S
C1900 C1899 1.334 . S
C1900 C1901 1.287 . S
C1901 C1900 1.287 . S
C1901 C1902 1.524 . S
C1901 H1904 0.999 . S
C1902 H1872 0.950 . S
C1902 C1901 1.524 . S
C1902 C1903 1.415 . S
C1903 H1873 0.950 . S
C1903 C1898 1.363 . S
C1903 C1902 1.415 . S
H1904 C1901 0.999 . S
H1905 C1886 0.913 . S
H1906 C1924 0.951 . S
H1907 C1926 0.951 . S
H1908 C1928 0.950 . S
H1909 C1929 0.950 . S
H1910 C1931 0.950 . S
H1911 C1934 0.950 . S
H1912 C1935 0.950 . S
H1913 C1937 0.950 . S
H1914 C1938 0.950 . S
H1915 C1939 0.951 . S
H1916 C1941 0.951 . S
H1917 C1943 0.950 . S
H1918 C1944 0.950 . S
H1919 C1946 0.950 . S
H1920 C1949 0.950 . S
H1921 C1950 0.950 . S
H1922 C1952 0.950 1_655 S
H1923 C1953 0.950 . S
C1924 H1906 0.951 . S
C1924 C1925 1.366 1_455 S
C1924 C1926 1.388 . S
C1925 C1924 1.366 1_655 S
C1925 C1929 1.385 . S
C1926 H1907 0.951 . S
C1926 C1924 1.388 . S
C1926 C1927 1.366 . S
C1927 C1926 1.366 . S
C1927 C1928 1.414 1_455 S
C1927 C1930 1.499 . S
C1928 H1908 0.950 . S
C1928 C1927 1.414 1_655 S
C1928 C1929 1.374 . S
C1929 H1909 0.950 . S
C1929 C1925 1.385 . S
C1929 C1928 1.374 . S
C1930 C1927 1.499 . S
C1930 C1931 1.373 . S
C1930 C1932 1.389 . S
C1931 H1910 0.950 . S
C1931 C1930 1.373 . S
C1931 C1947 1.377 . S
C1932 C1930 1.389 . S
C1932 C1933 1.524 . S
C1932 C1946 1.377 . S
C1933 C1932 1.524 . S
C1933 C1934 1.397 . S
C1933 C1938 1.363 . S
C1934 H1911 0.950 . S
C1934 C1933 1.397 . S
C1934 C1935 1.334 . S
C1935 H1912 0.950 . S
C1935 C1934 1.334 . S
C1935 C1936 1.287 . S
C1936 C1935 1.287 . S
C1936 C1937 1.524 . S
C1936 H1955 0.913 . S
C1937 H1913 0.950 . S
C1937 C1936 1.524 . S
C1937 C1938 1.415 . S
C1938 H1914 0.950 . S
C1938 C1933 1.363 . S
C1938 C1937 1.415 . S
C1939 H1915 0.951 . S
C1939 C1940 1.366 . S
C1939 C1941 1.388 . S
C1940 C1939 1.366 . S
C1940 C1944 1.385 . S
C1941 H1916 0.951 . S
C1941 C1939 1.388 . S
C1941 C1942 1.366 . S
C1942 C1941 1.366 . S
C1942 C1943 1.414 . S
C1942 C1945 1.499 . S
C1943 H1917 0.950 . S
C1943 C1942 1.414 . S
C1943 C1944 1.374 . S
C1944 H1918 0.950 . S
C1944 C1940 1.385 . S
C1944 C1943 1.374 . S
C1945 C1942 1.499 . S
C1945 C1946 1.373 . S
C1945 C1947 1.389 . S
C1946 H1919 0.950 . S
C1946 C1932 1.377 . S
C1946 C1945 1.373 . S
C1947 C1931 1.377 . S
C1947 C1945 1.389 . S
C1947 C1948 1.524 . S
C1948 C1947 1.524 . S
C1948 C1949 1.397 . S
C1948 C1953 1.363 . S
C1949 H1920 0.950 . S
C1949 C1948 1.397 . S
C1949 C1950 1.334 . S
C1950 H1921 0.950 . S
C1950 C1949 1.334 . S
C1950 C1951 1.287 . S
C1951 C1950 1.287 . S
C1951 C1952 1.524 . S
C1951 H1954 0.999 . S
C1952 H1922 0.950 1_455 S
C1952 C1951 1.524 . S
C1952 C1953 1.415 . S
C1953 H1923 0.950 . S
C1953 C1948 1.363 . S
C1953 C1952 1.415 . S
H1954 C1951 0.999 . S
H1955 C1936 0.913 . S
H1956 C1974 0.951 . S
H1957 C1976 0.951 . S
H1958 C1978 0.950 . S
H1959 C1979 0.950 . S
H1960 C1981 0.950 . S
H1961 C1984 0.950 . S
H1962 C1985 0.950 . S
H1963 C1987 0.950 . S
H1964 C1988 0.950 . S
H1965 C1989 0.951 . S
H1966 C1991 0.951 . S
H1967 C1993 0.950 . S
H1968 C1994 0.950 . S
H1969 C1996 0.950 . S
H1970 C1999 0.950 . S
H1971 C2000 0.950 . S
H1972 C2002 0.950 . S
H1973 C2003 0.950 . S
C1974 H1956 0.951 . S
C1974 C1975 1.366 . S
C1974 C1976 1.388 . S
C1975 C1974 1.366 . S
C1975 C1979 1.385 . S
C1976 H1957 0.951 . S
C1976 C1974 1.388 . S
C1976 C1977 1.366 . S
C1977 C1976 1.366 . S
C1977 C1978 1.414 . S
C1977 C1980 1.499 . S
C1978 H1958 0.950 . S
C1978 C1977 1.414 . S
C1978 C1979 1.374 . S
C1979 H1959 0.950 . S
C1979 C1975 1.385 . S
C1979 C1978 1.374 . S
C1980 C1977 1.499 . S
C1980 C1981 1.373 . S
C1980 C1982 1.389 . S
C1981 H1960 0.950 . S
C1981 C1980 1.373 . S
C1981 C1997 1.377 . S
C1982 C1980 1.389 . S
C1982 C1983 1.524 . S
C1982 C1996 1.377 . S
C1983 C1982 1.524 . S
C1983 C1984 1.397 . S
C1983 C1988 1.363 . S
C1984 H1961 0.950 . S
C1984 C1983 1.397 . S
C1984 C1985 1.334 . S
C1985 H1962 0.950 . S
C1985 C1984 1.334 . S
C1985 C1986 1.287 . S
C1986 C1985 1.287 . S
C1986 C1987 1.524 . S
C1986 H2005 0.913 . S
C1987 H1963 0.950 . S
C1987 C1986 1.524 . S
C1987 C1988 1.415 . S
C1988 H1964 0.950 . S
C1988 C1983 1.363 . S
C1988 C1987 1.415 . S
C1989 H1965 0.951 . S
C1989 C1990 1.366 . S
C1989 C1991 1.388 . S
C1990 C1989 1.366 . S
C1990 C1994 1.385 . S
C1991 H1966 0.951 . S
C1991 C1989 1.388 . S
C1991 C1992 1.366 . S
C1992 C1991 1.366 . S
C1992 C1993 1.414 . S
C1992 C1995 1.499 . S
C1993 H1967 0.950 . S
C1993 C1992 1.414 . S
C1993 C1994 1.374 . S
C1994 H1968 0.950 . S
C1994 C1990 1.385 . S
C1994 C1993 1.374 . S
C1995 C1992 1.499 . S
C1995 C1996 1.373 . S
C1995 C1997 1.389 . S
C1996 H1969 0.950 . S
C1996 C1982 1.377 . S
C1996 C1995 1.373 . S
C1997 C1981 1.377 . S
C1997 C1995 1.389 . S
C1997 C1998 1.524 . S
C1998 C1997 1.524 . S
C1998 C1999 1.397 . S
C1998 C2003 1.363 . S
C1999 H1970 0.950 . S
C1999 C1998 1.397 . S
C1999 C2000 1.334 . S
C2000 H1971 0.950 . S
C2000 C1999 1.334 . S
C2000 C2001 1.287 . S
C2001 C2000 1.287 . S
C2001 C2002 1.524 . S
C2001 H2004 0.999 . S
C2002 H1972 0.950 . S
C2002 C2001 1.524 . S
C2002 C2003 1.415 . S
C2003 H1973 0.950 . S
C2003 C1998 1.363 . S
C2003 C2002 1.415 . S
H2004 C2001 0.999 . S
H2005 C1986 0.913 . S
H2006 C2024 0.951 . S
H2007 C2026 0.951 . S
H2008 C2028 0.950 . S
H2009 C2029 0.950 . S
H2010 C2031 0.950 . S
H2011 C2034 0.950 . S
H2012 C2035 0.950 . S
H2013 C2037 0.950 . S
H2014 C2038 0.950 . S
H2015 C2039 0.951 . S
H2016 C2041 0.951 . S
H2017 C2043 0.950 . S
H2018 C2044 0.950 . S
H2019 C2046 0.950 . S
H2020 C2049 0.950 . S
H2021 C2050 0.950 . S
H2022 C2052 0.950 . S
H2023 C2053 0.950 . S
C2024 H2006 0.951 . S
C2024 C2025 1.366 . S
C2024 C2026 1.388 . S
C2025 C2024 1.366 . S
C2025 C2029 1.385 . S
C2026 H2007 0.951 . S
C2026 C2024 1.388 . S
C2026 C2027 1.366 1_565 S
C2027 C2026 1.366 1_545 S
C2027 C2028 1.414 . S
C2027 C2030 1.499 . S
C2028 H2008 0.950 . S
C2028 C2027 1.414 . S
C2028 C2029 1.374 1_545 S
C2029 H2009 0.950 . S
C2029 C2025 1.385 . S
C2029 C2028 1.374 1_565 S
C2030 C2027 1.499 . S
C2030 C2031 1.373 . S
C2030 C2032 1.389 . S
C2031 H2010 0.950 . S
C2031 C2030 1.373 . S
C2031 C2047 1.377 . S
C2032 C2030 1.389 . S
C2032 C2033 1.524 . S
C2032 C2046 1.377 . S
C2033 C2032 1.524 . S
C2033 C2034 1.397 . S
C2033 C2038 1.363 . S
C2034 H2011 0.950 . S
C2034 C2033 1.397 . S
C2034 C2035 1.334 1_545 S
C2035 H2012 0.950 . S
C2035 C2034 1.334 1_565 S
C2035 C2036 1.287 . S
C2036 C2035 1.287 . S
C2036 C2037 1.524 . S
C2036 H2055 0.913 . S
C2037 H2013 0.950 . S
C2037 C2036 1.524 . S
C2037 C2038 1.415 1_565 S
C2038 H2014 0.950 . S
C2038 C2033 1.363 . S
C2038 C2037 1.415 1_545 S
C2039 H2015 0.951 . S
C2039 C2040 1.366 . S
C2039 C2041 1.388 . S
C2040 C2039 1.366 . S
C2040 C2044 1.385 . S
C2041 H2016 0.951 . S
C2041 C2039 1.388 . S
C2041 C2042 1.366 . S
C2042 C2041 1.366 . S
C2042 C2043 1.414 . S
C2042 C2045 1.499 . S
C2043 H2017 0.950 . S
C2043 C2042 1.414 . S
C2043 C2044 1.374 . S
C2044 H2018 0.950 . S
C2044 C2040 1.385 . S
C2044 C2043 1.374 . S
C2045 C2042 1.499 . S
C2045 C2046 1.373 . S
C2045 C2047 1.389 . S
C2046 H2019 0.950 . S
C2046 C2032 1.377 . S
C2046 C2045 1.373 . S
C2047 C2031 1.377 . S
C2047 C2045 1.389 . S
C2047 C2048 1.524 . S
C2048 C2047 1.524 . S
C2048 C2049 1.397 . S
C2048 C2053 1.363 . S
C2049 H2020 0.950 . S
C2049 C2048 1.397 . S
C2049 C2050 1.334 . S
C2050 H2021 0.950 . S
C2050 C2049 1.334 . S
C2050 C2051 1.287 . S
C2051 C2050 1.287 . S
C2051 C2052 1.524 . S
C2051 H2054 0.999 . S
C2052 H2022 0.950 . S
C2052 C2051 1.524 . S
C2052 C2053 1.415 . S
C2053 H2023 0.950 . S
C2053 C2048 1.363 . S
C2053 C2052 1.415 . S
H2054 C2051 0.999 . S
H2055 C2036 0.913 . S
H2056 C2074 0.951 . S
H2057 C2076 0.951 . S
H2058 C2078 0.950 . S
H2059 C2079 0.950 . S
H2060 C2081 0.950 . S
H2061 C2084 0.950 . S
H2062 C2085 0.950 . S
H2063 C2087 0.950 . S
H2064 C2088 0.950 . S
H2065 C2089 0.951 . S
H2066 C2091 0.951 . S
H2067 C2093 0.950 . S
H2068 C2094 0.950 . S
H2069 C2096 0.950 . S
H2070 C2099 0.950 . S
H2071 C2100 0.950 . S
H2072 C2102 0.950 . S
H2073 C2103 0.950 1_655 S
C2074 H2056 0.951 . S
C2074 C2075 1.366 . S
C2074 C2076 1.388 . S
C2075 C2074 1.366 . S
C2075 C2079 1.385 . S
C2076 H2057 0.951 . S
C2076 C2074 1.388 . S
C2076 C2077 1.366 . S
C2077 C2076 1.366 . S
C2077 C2078 1.414 . S
C2077 C2080 1.499 . S
C2078 H2058 0.950 . S
C2078 C2077 1.414 . S
C2078 C2079 1.374 . S
C2079 H2059 0.950 . S
C2079 C2075 1.385 . S
C2079 C2078 1.374 . S
C2080 C2077 1.499 . S
C2080 C2081 1.373 . S
C2080 C2082 1.389 . S
C2081 H2060 0.950 . S
C2081 C2080 1.373 . S
C2081 C2097 1.339 1_655 S
C2082 C2080 1.389 . S
C2082 C2083 1.524 . S
C2082 C2096 1.377 . S
C2083 C2082 1.524 . S
C2083 C2084 1.397 . S
C2083 C2088 1.363 . S
C2084 H2061 0.950 . S
C2084 C2083 1.397 . S
C2084 C2085 1.334 . S
C2085 H2062 0.950 . S
C2085 C2084 1.334 . S
C2085 C2086 1.287 . S
C2086 C2085 1.287 . S
C2086 C2087 1.524 . S
C2086 H2105 0.913 . S
C2087 H2063 0.950 . S
C2087 C2086 1.524 . S
C2087 C2088 1.415 . S
C2088 H2064 0.950 . S
C2088 C2083 1.363 . S
C2088 C2087 1.415 . S
C2089 H2065 0.951 . S
C2089 C2090 1.366 . S
C2089 C2091 1.388 . S
C2090 C2089 1.366 . S
C2090 C2094 1.385 . S
C2091 H2066 0.951 . S
C2091 C2089 1.388 . S
C2091 C2092 1.366 . S
C2092 C2091 1.366 . S
C2092 C2093 1.414 . S
C2092 C2095 1.499 . S
C2093 H2067 0.950 . S
C2093 C2092 1.414 . S
C2093 C2094 1.374 . S
C2094 H2068 0.950 . S
C2094 C2090 1.385 . S
C2094 C2093 1.374 . S
C2095 C2092 1.499 . S
C2095 C2096 1.373 1_455 S
C2095 C2097 1.370 . S
C2096 H2069 0.950 . S
C2096 C2082 1.377 . S
C2096 C2095 1.373 1_655 S
C2097 C2081 1.339 1_455 S
C2097 C2095 1.370 . S
C2097 C2098 1.584 . S
C2098 C2097 1.584 . S
C2098 C2099 1.397 . S
C2098 C2103 1.363 . S
C2099 H2070 0.950 . S
C2099 C2098 1.397 . S
C2099 C2100 1.334 . S
C2100 H2071 0.950 . S
C2100 C2099 1.334 . S
C2100 C2101 1.287 . S
C2101 C2100 1.287 . S
C2101 C2102 1.524 . S
C2101 H2104 0.999 . S
C2102 H2072 0.950 . S
C2102 C2101 1.524 . S
C2102 C2103 1.415 . S
C2103 H2073 0.950 1_455 S
C2103 C2098 1.363 . S
C2103 C2102 1.415 . S
H2104 C2101 0.999 . S
H2105 C2086 0.913 . S
C775 C74 3.179 1_556 S
C790 C63 3.179 . S
C825 C158 3.231 1_556 S
C840 C147 3.234 . S
C875 C242 3.218 . S
C890 C231 3.218 . S
C925 C315 3.148 . S
C940 C326 3.148 . S
C975 C392 3.288 . S
C990 C403 3.288 1_556 S
C1025 C483 3.152 . S
C1040 C494 3.152 1_556 S
C1075 C562 2.504 . S
C1090 C574 2.504 . S
C1125 C658 2.302 . S
C1140 C646 2.302 1_556 S
C1175 C730 2.021 . S
C1190 C742 2.021 . S
C1225 C476 2.075 . S
C1240 C58 1.780 . S
C1275 C142 1.593 . S
C1290 C308 1.903 . S
C1325 C226 1.315 . S
C1340 C406 1.402 . S
C1375 C224 1.877 . S
C1390 C571 2.069 . S
C1425 C651 1.639 . S
C1440 C56 1.456 . S
C1475 C739 1.728 . S
C1490 C140 1.591 . S
C1525 C746 0.880 . S
C1540 C70 0.865 . S
C1575 C154 1.250 1_556 S
C1590 C578 1.284 . S
C1625 C644 1.364 . S
C1640 C238 1.352 . S
C1675 C235 1.986 . S
C1690 C322 1.744 . S
C1725 C399 2.577 . S
C1740 C67 2.514 . S
C1775 C151 2.178 . S
C1790 C490 1.949 . S
C1825 C735 1.340 . S
C1840 C310 1.311 . S
C1875 C567 1.513 . S
C1890 C410 1.443 . S
C1925 C655 1.585 . S
C1940 C478 1.631 . S
C1975 C560 1.903 . S
C1990 C487 1.850 . S
C2025 C319 1.155 . S
C2040 C662 1.242 . S
C2075 C728 1.295 . S
C2090 C394 1.311 . S
