# Generated by pormake.
# Topology crs, (6)-cn, num edge types: 1
# Building blocks:
#     Node 0, Type 0, BuildingBlock: MIFKUJ_clean_sbu_0, # of connection points: 6
#     Node 1, Type 0, BuildingBlock: MIFKUJ_clean_sbu_0, # of connection points: 6
#     Node 2, Type 0, BuildingBlock: MIFKUJ_clean_sbu_0, # of connection points: 6
#     Node 3, Type 0, BuildingBlock: MIFKUJ_clean_sbu_0, # of connection points: 6
#     Node 4, Type 0, BuildingBlock: MIFKUJ_clean_sbu_0, # of connection points: 6
#     Node 5, Type 0, BuildingBlock: MIFKUJ_clean_sbu_0, # of connection points: 6
#     Node 6, Type 0, BuildingBlock: MIFKUJ_clean_sbu_0, # of connection points: 6
#     Node 7, Type 0, BuildingBlock: MIFKUJ_clean_sbu_0, # of connection points: 6
#     Node 8, Type 0, BuildingBlock: MIFKUJ_clean_sbu_0, # of connection points: 6
#     Node 9, Type 0, BuildingBlock: MIFKUJ_clean_sbu_0, # of connection points: 6
#     Node 10, Type 0, BuildingBlock: MIFKUJ_clean_sbu_0, # of connection points: 6
#     Node 11, Type 0, BuildingBlock: MIFKUJ_clean_sbu_0, # of connection points: 6
#     Node 12, Type 0, BuildingBlock: MIFKUJ_clean_sbu_0, # of connection points: 6
#     Node 13, Type 0, BuildingBlock: MIFKUJ_clean_sbu_0, # of connection points: 6
#     Node 14, Type 0, BuildingBlock: MIFKUJ_clean_sbu_0, # of connection points: 6
#     Node 15, Type 0, BuildingBlock: MIFKUJ_clean_sbu_0, # of connection points: 6
#     Edge 16, Type (0, 0), None
#     Edge 17, Type (0, 0), None
#     Edge 18, Type (0, 0), None
#     Edge 19, Type (0, 0), None
#     Edge 20, Type (0, 0), None
#     Edge 21, Type (0, 0), None
#     Edge 22, Type (0, 0), None
#     Edge 23, Type (0, 0), None
#     Edge 24, Type (0, 0), None
#     Edge 25, Type (0, 0), None
#     Edge 26, Type (0, 0), None
#     Edge 27, Type (0, 0), None
#     Edge 28, Type (0, 0), None
#     Edge 29, Type (0, 0), None
#     Edge 30, Type (0, 0), None
#     Edge 31, Type (0, 0), None
#     Edge 32, Type (0, 0), None
#     Edge 33, Type (0, 0), None
#     Edge 34, Type (0, 0), None
#     Edge 35, Type (0, 0), None
#     Edge 36, Type (0, 0), None
#     Edge 37, Type (0, 0), None
#     Edge 38, Type (0, 0), None
#     Edge 39, Type (0, 0), None
#     Edge 40, Type (0, 0), None
#     Edge 41, Type (0, 0), None
#     Edge 42, Type (0, 0), None
#     Edge 43, Type (0, 0), None
#     Edge 44, Type (0, 0), None
#     Edge 45, Type (0, 0), None
#     Edge 46, Type (0, 0), None
#     Edge 47, Type (0, 0), None
#     Edge 48, Type (0, 0), None
#     Edge 49, Type (0, 0), None
#     Edge 50, Type (0, 0), None
#     Edge 51, Type (0, 0), None
#     Edge 52, Type (0, 0), None
#     Edge 53, Type (0, 0), None
#     Edge 54, Type (0, 0), None
#     Edge 55, Type (0, 0), None
#     Edge 56, Type (0, 0), None
#     Edge 57, Type (0, 0), None
#     Edge 58, Type (0, 0), None
#     Edge 59, Type (0, 0), None
#     Edge 60, Type (0, 0), None
#     Edge 61, Type (0, 0), None
#     Edge 62, Type (0, 0), None
#     Edge 63, Type (0, 0), None
# Relax obj value: 0.396
# Max RMSD: 0.331
# Mean RMSD: 0.264
data_MOF--net-crs--node1-MIFKUJ_clean_sbu_0--edge1-none
_symmetry_space_group_name_H-M    P1
_symmetry_Int_Tables_number       1
_symmetry_cell_setting            triclinic
loop_
_symmetry_equiv_pos_as_xyz
'x, y, z'
_cell_length_a     21.465851
_cell_length_b     22.340603
_cell_length_c     23.225792
_cell_angle_alpha  89.999658
_cell_angle_beta   89.999809
_cell_angle_gamma 68.438186
loop_
_atom_site_label
_atom_site_type_symbol
_atom_site_fract_x
_atom_site_fract_y
_atom_site_fract_z
_atom_type_partial_charge
Zn0 Zn 0.98618 0.10951 0.00391 0.0
Zn1 Zn 0.02283 0.91052 0.00508 0.0
C2 C 0.9299 0.22898 0.0614 0.0
O3 O 0.91486 0.24939 0.0083 0.0
C4 C 0.07334 0.79571 0.94154 0.0
O5 O 0.08816 0.77096 -0.00667 0.0
O6 O 0.03932 0.15102 0.95866 0.0
O7 O 0.04747 0.02144 0.03391 0.0
O8 O 0.09694 0.91975 0.05493 0.0
C9 C 0.10066 0.12165 0.94658 0.0
O10 O 0.12726 0.05892 0.95311 0.0
O11 O 0.95376 0.16881 0.07126 0.0
C12 C 0.91253 0.89385 0.06616 0.0
O13 O 0.88596 0.957 0.06541 0.0
O14 O 0.97167 0.86563 0.04783 0.0
O15 O 0.96186 0.99913 0.97813 0.0
O16 O 0.90987 0.09982 0.95629 0.0
O17 O 0.05455 0.85623 0.93511 0.0
C18 C 0.09316 0.97756 0.06104 0.0
C19 C 0.9139 0.04175 0.95226 0.0
Zn20 Zn 0.98216 0.24266 0.28861 0.0
Zn21 Zn 0.02184 0.29514 0.19447 0.0
C22 C 0.07662 0.26651 0.36642 0.0
O23 O 0.09437 0.20468 0.37583 0.0
C24 C 0.93963 0.2726 0.1045 0.0
O25 O 0.92918 0.33245 0.0905 0.0
O26 O 0.96256 0.20094 0.35742 0.0
O27 O 0.89559 0.30699 0.25707 0.0
O28 O 0.95135 0.36972 0.23866 0.0
C29 C 0.90375 0.20555 0.36948 0.0
O30 O 0.85577 0.23047 0.33157 0.0
O31 O 0.0343 0.29264 0.32675 0.0
C32 C 0.10796 0.28673 0.10133 0.0
O33 O 0.11312 0.22653 0.10631 0.0
O34 O 0.06873 0.32916 0.13475 0.0
O35 O 0.09986 0.22456 0.23359 0.0
O36 O 0.03553 0.16879 0.23949 0.0
O37 O 0.97392 0.24843 0.14898 0.0
C38 C 0.89635 0.36317 0.251 0.0
C39 C 0.09337 0.17027 0.23441 0.0
Zn40 Zn 0.80761 0.27994 0.52545 0.0
Zn41 Zn 0.70328 0.24786 0.46904 0.0
C42 C 0.88699 0.20679 0.43005 0.0
O43 O 0.93398 0.18052 0.46853 0.0
C44 C 0.5974 0.30024 0.54877 0.0
O45 O 0.56174 0.31299 0.50126 0.0
O46 O 0.88918 0.29685 0.55104 0.0
O47 O 0.7292 0.36357 0.51543 0.0
O48 O 0.71211 0.32907 0.43038 0.0
C49 C 0.88923 0.35349 0.54755 0.0
O50 O 0.83311 0.40155 0.53644 0.0
O51 O 0.8314 0.24789 0.44551 0.0
C52 C 0.65024 0.1524 0.42207 0.0
O53 O 0.71175 0.11128 0.42906 0.0
O54 O 0.63745 0.2125 0.42959 0.0
O55 O 0.78405 0.16772 0.49091 0.0
O56 O 0.7974 0.20996 0.57314 0.0
O57 O 0.66065 0.27705 0.54552 0.0
C58 C 0.71481 0.37473 0.46236 0.0
C59 C 0.80075 0.16096 0.54379 0.0
Zn60 Zn 0.76477 0.02975 0.83895 0.0
Zn61 Zn 0.76663 0.03736 0.66407 0.0
C62 C 0.68992 0.01311 0.9361 0.0
O63 O 0.67791 0.07402 0.9469 0.0
C64 C 0.80836 0.10055 0.57272 0.0
O65 O 0.80598 0.05212 0.54203 0.0
O66 O 0.82175 0.06548 0.88703 0.0
O67 O 0.82739 0.95708 0.79313 0.0
O68 O 0.83859 0.96082 0.69833 0.0
C69 C 0.86673 0.02383 0.91703 0.0
O70 O 0.87231 0.96332 0.91498 0.0
O71 O 0.72478 0.98623 0.89272 0.0
C72 C 0.67871 0.98769 0.60262 0.0
O73 O 0.6445 0.99806 0.65088 0.0
O74 O 0.73194 0.99951 0.59975 0.0
O75 O 0.68469 0.09343 0.70803 0.0
O76 O 0.68474 0.09642 0.80362 0.0
O77 O 0.80141 0.10036 0.62707 0.0
C78 C 0.85477 0.93224 0.74625 0.0
C79 C 0.65641 0.11552 0.75559 0.0
Zn80 Zn 0.47676 0.77258 0.35233 0.0
Zn81 Zn 0.52676 0.78192 0.20027 0.0
C82 C 0.52778 0.84564 0.4373 0.0
O83 O 0.54133 0.7945 0.47005 0.0
C84 C 0.44283 0.78357 0.10281 0.0
O85 O 0.44767 0.83957 0.09295 0.0
O86 O 0.42371 0.7366 0.40646 0.0
O87 O 0.40968 0.81171 0.2862 0.0
O88 O 0.46614 0.86227 0.24147 0.0
C89 C 0.36088 0.76612 0.41195 0.0
O90 O 0.33275 0.82356 0.38909 0.0
O91 O 0.50108 0.84639 0.38812 0.0
C92 C 0.6315 0.76147 0.11605 0.0
O93 O 0.63032 0.70317 0.11476 0.0
O94 O 0.59166 0.80376 0.14922 0.0
O95 O 0.58267 0.7033 0.24419 0.0
O96 O 0.56063 0.69376 0.3361 0.0
O97 O 0.46995 0.75213 0.14758 0.0
C98 C 0.41087 0.86084 0.25932 0.0
C99 C 0.59532 0.6722 0.29116 0.0
Zn100 Zn 0.26486 0.66032 0.49866 0.0
Zn101 Zn 0.21646 0.85306 0.47742 0.0
C102 C 0.31256 0.54328 0.56282 0.0
O103 O 0.32514 0.51773 0.51117 0.0
C104 C 0.15568 0.97361 0.41138 0.0
O105 O 0.12696 1.00008 0.45976 0.0
O106 O 0.20742 0.62244 0.45345 0.0
O107 O 0.20266 0.74671 0.52974 0.0
O108 O 0.1498 0.84992 0.54116 0.0
C109 C 0.14709 0.656 0.44027 0.0
O110 O 0.12583 0.71891 0.44486 0.0
O111 O 0.2948 0.60379 0.5683 0.0
C112 C 0.2924 0.91789 0.53939 0.0
O113 O 0.23521 0.96639 0.54548 0.0
O114 O 0.29397 0.86689 0.51447 0.0
O115 O 0.25629 0.76512 0.44452 0.0
O116 O 0.3401 0.67488 0.45103 0.0
O117 O 0.18806 0.91344 0.40952 0.0
C118 C 0.15943 0.79236 0.55683 0.0
C119 C 0.31782 0.73372 0.43593 0.0
Zn120 Zn 0.27861 0.53324 0.80941 0.0
Zn121 Zn 0.21121 0.49175 0.69729 0.0
C122 C 0.18932 0.52189 0.89686 0.0
O123 O 0.18086 0.5823 0.90628 0.0
C124 C 0.29831 0.50632 0.60978 0.0
O125 O 0.30898 0.44512 0.60199 0.0
O126 O 0.33176 0.56624 0.86747 0.0
O127 O 0.34623 0.46009 0.76489 0.0
O128 O 0.27725 0.41373 0.73375 0.0
C129 C 0.3671 0.52981 0.90712 0.0
O130 O 0.36985 0.47023 0.91081 0.0
O131 O 0.22742 0.49169 0.85623 0.0
C132 C 0.12426 0.50345 0.60296 0.0
O133 O 0.1194 0.56336 0.60996 0.0
O134 O 0.16082 0.46067 0.63728 0.0
O135 O 0.14275 0.55752 0.74774 0.0
O136 O 0.21021 0.60932 0.76724 0.0
O137 O 0.26099 0.53638 0.65109 0.0
C138 C 0.33534 0.41053 0.74815 0.0
C139 C 0.15146 0.60968 0.75851 0.0
Zn140 Zn 0.98014 0.6202 0.49866 0.0
Zn141 Zn 0.02854 0.42747 0.47742 0.0
C142 C 0.93245 0.73725 0.56281 0.0
O143 O 0.91986 0.7628 0.51116 0.0
C144 C 0.08935 0.30691 0.41138 0.0
O145 O 0.11806 0.28042 0.45975 0.0
O146 O 0.03758 0.65808 0.45345 0.0
O147 O 0.04234 0.53382 0.52974 0.0
O148 O 0.0952 0.43061 0.54116 0.0
C149 C 0.0979 0.6245 0.44025 0.0
O150 O 0.11919 0.5616 0.44483 0.0
O151 O 0.9502 0.67674 0.56829 0.0
C152 C 0.95261 0.36262 0.53938 0.0
O153 O 0.00979 0.31412 0.54548 0.0
O154 O 0.95104 0.41362 0.51446 0.0
O155 O -0.01129 0.5154 0.44453 0.0
O156 O 0.90491 0.60564 0.45103 0.0
O157 O 0.05696 0.36708 0.40952 0.0
C158 C 0.08558 0.48817 0.55683 0.0
C159 C 0.92718 0.5468 0.43593 0.0
Zn160 Zn 0.25882 0.17103 0.00391 0.0
Zn161 Zn 0.22217 0.37002 0.00507 0.0
C162 C 0.3151 0.05155 0.06139 0.0
O163 O 0.33013 0.03114 0.0083 0.0
C164 C 0.17162 0.48483 0.94154 0.0
O165 O 0.15681 0.50961 -0.00668 0.0
O166 O 0.20567 0.12953 0.95866 0.0
O167 O 0.19753 0.25909 0.03391 0.0
O168 O 0.14806 0.36079 0.05493 0.0
C169 C 0.14435 0.15892 0.94656 0.0
O170 O 0.11772 0.22164 0.95308 0.0
O171 O 0.29124 0.11172 0.07126 0.0
C172 C 0.33245 0.3867 0.06615 0.0
O173 O 0.35902 0.32354 0.06542 0.0
O174 O 0.27332 0.41491 0.04781 0.0
O175 O 0.28314 0.28142 0.97812 0.0
O176 O 0.33513 0.18072 0.95629 0.0
O177 O 0.19043 0.42431 0.93511 0.0
C178 C 0.15184 0.30298 0.06104 0.0
C179 C 0.3311 0.23879 0.95226 0.0
Zn180 Zn 0.26284 0.03787 0.28861 0.0
Zn181 Zn 0.22317 0.98539 0.19447 0.0
C182 C 0.16838 0.01402 0.36642 0.0
O183 O 0.15062 0.07586 0.37584 0.0
C184 C 0.30538 0.00794 0.1045 0.0
O185 O 0.31581 0.94809 0.0905 0.0
O186 O 0.28245 0.07958 0.35742 0.0
O187 O 0.34942 0.97354 0.25707 0.0
O188 O 0.29366 0.91081 0.23866 0.0
C189 C 0.34126 0.07497 0.36948 0.0
O190 O 0.38924 0.05005 0.33158 0.0
O191 O 0.2107 0.9879 0.32675 0.0
C192 C 0.13704 0.99381 0.10133 0.0
O193 O 0.13188 0.054 0.1063 0.0
O194 O 0.17627 0.95137 0.13475 0.0
O195 O 0.14514 0.05597 0.23359 0.0
O196 O 0.20948 0.11173 0.23949 0.0
O197 O 0.27108 0.0321 0.14898 0.0
C198 C 0.34865 0.91736 0.251 0.0
C199 C 0.15164 0.11026 0.23441 0.0
Zn200 Zn 0.48024 0.25078 0.83895 0.0
Zn201 Zn 0.47836 0.24316 0.66407 0.0
C202 C 0.55507 0.26743 0.93611 0.0
O203 O 0.56707 0.20652 0.94692 0.0
C204 C 0.43666 0.17995 0.57272 0.0
O205 O 0.43904 0.22839 0.54204 0.0
O206 O 0.42325 0.21505 0.88704 0.0
O207 O 0.41762 0.32345 0.79313 0.0
O208 O 0.4064 0.31971 0.69833 0.0
C209 C 0.37827 0.25671 0.91702 0.0
O210 O 0.37269 0.31722 0.91498 0.0
O211 O 0.52022 0.2943 0.89272 0.0
C212 C 0.56629 0.29284 0.60264 0.0
O213 O 0.60051 0.28246 0.65089 0.0
O214 O 0.51306 0.28102 0.59976 0.0
O215 O 0.5603 0.1871 0.70804 0.0
O216 O 0.56026 0.1841 0.80363 0.0
O217 O 0.44359 0.18016 0.62707 0.0
C218 C 0.39024 0.34829 0.74625 0.0
C219 C 0.5886 0.16501 0.75559 0.0
Zn220 Zn 0.96639 0.74729 0.8094 0.0
Zn221 Zn 0.03379 0.78877 0.69729 0.0
C222 C 0.05568 0.75863 0.89686 0.0
O223 O 0.06414 0.69823 0.9063 0.0
C224 C 0.94669 0.7742 0.60978 0.0
O225 O 0.93603 0.8354 0.60198 0.0
O226 O 0.91324 0.71429 0.86747 0.0
O227 O 0.89878 0.82043 0.76488 0.0
O228 O 0.96776 0.86679 0.73375 0.0
C229 C 0.8779 0.75072 0.90712 0.0
O230 O 0.87514 0.8103 0.91081 0.0
O231 O 0.01758 0.78884 0.85623 0.0
C232 C 0.12074 0.77707 0.60296 0.0
O233 O 0.12561 0.71717 0.60996 0.0
O234 O 0.08418 0.81986 0.63728 0.0
O235 O 0.10225 0.72301 0.74774 0.0
O236 O 0.03479 0.6712 0.76724 0.0
O237 O 0.98402 0.74415 0.65109 0.0
C238 C 0.90966 0.86999 0.74815 0.0
C239 C 0.09354 0.67084 0.75851 0.0
Zn240 Zn 0.76824 0.50794 0.35233 0.0
Zn241 Zn 0.71825 0.49861 0.20027 0.0
C242 C 0.71721 0.43489 0.4373 0.0
O243 O 0.70364 0.48603 0.47005 0.0
C244 C 0.80217 0.49697 0.10281 0.0
O245 O 0.79734 0.44097 0.09294 0.0
O246 O 0.8213 0.54392 0.40646 0.0
O247 O 0.83533 0.46882 0.2862 0.0
O248 O 0.77886 0.41825 0.24146 0.0
C249 C 0.88413 0.51441 0.41195 0.0
O250 O 0.91225 0.45696 0.38909 0.0
O251 O 0.74393 0.43413 0.38813 0.0
C252 C 0.6135 0.51906 0.11605 0.0
O253 O 0.61468 0.57736 0.11476 0.0
O254 O 0.65334 0.47677 0.14921 0.0
O255 O 0.66234 0.57722 0.24419 0.0
O256 O 0.68437 0.58676 0.3361 0.0
O257 O 0.77505 0.5284 0.14758 0.0
C258 C 0.83414 0.41968 0.25932 0.0
C259 C 0.64968 0.60832 0.29116 0.0
Zn260 Zn 0.77209 0.65458 0.00232 0.0
Zn261 Zn 0.74644 0.84834 0.02682 0.0
C262 C 0.81957 0.5315 0.05565 0.0
O263 O 0.81896 0.51117 0.00269 0.0
C264 C 0.68072 0.97118 0.98041 0.0
O265 O 0.67692 0.98905 0.03457 0.0
O266 O 0.70812 0.62098 0.96263 0.0
O267 O 0.71921 0.73716 0.04589 0.0
O268 O 0.67974 0.83434 0.081 0.0
C269 C 0.64729 0.65573 0.95345 0.0
O270 O 0.62733 0.71827 0.96074 0.0
O271 O 0.81306 0.58966 0.0642 0.0
C272 C 0.86896 0.85666 0.06889 0.0
O273 O 0.89383 0.79487 0.05704 0.0
O274 O 0.80636 0.88692 0.06525 0.0
O275 O 0.79832 0.76598 0.98345 0.0
O276 O 0.83981 0.6703 0.94635 0.0
O277 O 0.69946 0.91191 0.96803 0.0
C278 C 0.67836 0.77808 0.07931 0.0
C279 C 0.83818 0.72784 0.94766 0.0
Zn280 Zn 0.43738 1.00058 0.52546 0.0
Zn281 Zn 0.54173 0.03265 0.46904 0.0
C282 C 0.35801 0.07373 0.43005 0.0
O283 O 0.31102 0.1 0.46853 0.0
C284 C 0.6476 0.98026 0.54876 0.0
O285 O 0.68329 0.96751 0.50126 0.0
O286 O 0.35582 0.98366 0.55105 0.0
O287 O 0.5158 0.91694 0.51543 0.0
O288 O 0.53289 0.95145 0.43038 0.0
C289 C 0.35578 0.92702 0.54758 0.0
O290 O 0.4119 0.87894 0.53649 0.0
O291 O 0.4136 0.03263 0.44552 0.0
C292 C 0.59476 0.12811 0.42206 0.0
O293 O 0.53325 0.16925 0.42903 0.0
O294 O 0.60755 0.06802 0.42959 0.0
O295 O 0.46096 0.11279 0.49091 0.0
O296 O 0.44761 0.07056 0.57314 0.0
O297 O 0.58436 1.00346 0.54552 0.0
C298 C 0.53018 0.90579 0.46236 0.0
C299 C 0.44426 0.11954 0.54379 0.0
Zn300 Zn 0.47291 0.62595 0.00232 0.0
Zn301 Zn 0.49855 0.4322 0.02683 0.0
C302 C 0.42543 0.74903 0.05565 0.0
O303 O 0.42605 0.76936 0.00269 0.0
C304 C 0.56427 0.30936 0.98042 0.0
O305 O 0.56806 0.29149 0.03458 0.0
O306 O 0.53689 0.65955 0.96263 0.0
O307 O 0.52579 0.54337 0.04589 0.0
O308 O 0.56526 0.44619 0.08101 0.0
C309 C 0.59771 0.62479 0.95344 0.0
O310 O 0.61769 0.56224 0.96072 0.0
O311 O 0.43193 0.69088 0.0642 0.0
C312 C 0.37603 0.42389 0.06889 0.0
O313 O 0.35116 0.48568 0.05703 0.0
O314 O 0.43863 0.39362 0.06526 0.0
O315 O 0.44668 0.51455 0.98345 0.0
O316 O 0.40519 0.61024 0.94634 0.0
O317 O 0.54553 0.36863 0.96804 0.0
C318 C 0.56664 0.50245 0.07931 0.0
C319 C 0.40682 0.5527 0.94766 0.0
loop_
_geom_bond_atom_site_label_1
_geom_bond_atom_site_label_2
_geom_bond_distance
_geom_bond_site_symmetry_2
_ccdc_geom_bond_type
Zn0 O6 1.969 1_554 S
Zn0 O7 1.965 . S
Zn0 O11 2.024 1_455 S
Zn0 O16 1.969 1_454 S
Zn1 O8 1.969 1_656 S
Zn1 O14 1.969 1_556 S
Zn1 O15 1.965 1_565 S
Zn1 O17 2.024 1_655 S
C2 O3 1.229 . S
C2 O11 1.058 . S
O3 C2 1.229 . S
C4 O5 1.229 . S
C4 O17 1.058 . S
O5 C4 1.229 . S
O6 Zn0 1.969 1_556 S
O6 C9 1.267 . S
O7 Zn0 1.965 . S
O7 C18 1.260 1_545 S
O8 Zn1 1.969 1_454 S
O8 C18 1.258 . S
C9 O6 1.267 . S
C9 O10 1.228 1_556 S
O10 C9 1.228 1_554 S
O11 Zn0 2.024 1_655 S
O11 C2 1.058 . S
C12 O13 1.228 1_554 S
C12 O14 1.267 . S
O13 C12 1.228 1_556 S
O14 Zn1 1.969 1_554 S
O14 C12 1.267 . S
O15 Zn1 1.965 1_545 S
O15 C19 1.260 . S
O16 Zn0 1.969 1_656 S
O16 C19 1.258 . S
O17 Zn1 2.024 1_455 S
O17 C4 1.058 . S
C18 O7 1.260 1_565 S
C18 O8 1.258 . S
C19 O15 1.260 . S
C19 O16 1.258 . S
Zn20 O26 1.969 1_455 S
Zn20 O27 1.965 1_455 S
Zn20 O31 2.024 . S
Zn20 O36 1.969 . S
Zn21 O28 1.969 1_455 S
Zn21 O34 1.969 . S
Zn21 O35 1.965 . S
Zn21 O37 2.024 . S
C22 O23 1.229 . S
C22 O31 1.058 . S
O23 C22 1.229 . S
C24 O25 1.229 . S
C24 O37 1.058 . S
O25 C24 1.229 . S
O26 Zn20 1.969 1_655 S
O26 C29 1.267 . S
O27 Zn20 1.965 1_655 S
O27 C38 1.260 . S
O28 Zn21 1.969 1_655 S
O28 C38 1.258 . S
C29 O26 1.267 . S
C29 O30 1.228 . S
O30 C29 1.228 . S
O31 Zn20 2.024 . S
O31 C22 1.058 . S
C32 O33 1.228 . S
C32 O34 1.267 . S
O33 C32 1.228 . S
O34 Zn21 1.969 . S
O34 C32 1.267 . S
O35 Zn21 1.965 . S
O35 C39 1.260 . S
O36 Zn20 1.969 . S
O36 C39 1.258 . S
O37 Zn21 2.024 . S
O37 C24 1.058 . S
C38 O27 1.260 . S
C38 O28 1.258 . S
C39 O35 1.260 . S
C39 O36 1.258 . S
Zn40 O46 1.969 . S
Zn40 O47 1.965 . S
Zn40 O51 2.024 . S
Zn40 O56 1.969 . S
Zn41 O48 1.969 . S
Zn41 O54 1.969 . S
Zn41 O55 1.965 . S
Zn41 O57 2.024 . S
C42 O43 1.229 1_655 S
C42 O51 1.058 . S
O43 C42 1.229 1_455 S
C44 O45 1.229 . S
C44 O57 1.058 . S
O45 C44 1.229 . S
O46 Zn40 1.969 . S
O46 C49 1.267 . S
O47 Zn40 1.965 . S
O47 C58 1.260 . S
O48 Zn41 1.969 . S
O48 C58 1.258 . S
C49 O46 1.267 . S
C49 O50 1.228 . S
O50 C49 1.228 . S
O51 Zn40 2.024 . S
O51 C42 1.058 . S
C52 O53 1.228 . S
C52 O54 1.267 . S
O53 C52 1.228 . S
O54 Zn41 1.969 . S
O54 C52 1.267 . S
O55 Zn41 1.965 . S
O55 C59 1.260 . S
O56 Zn40 1.969 . S
O56 C59 1.258 . S
O57 Zn41 2.024 . S
O57 C44 1.058 . S
C58 O47 1.260 . S
C58 O48 1.258 . S
C59 O55 1.260 . S
C59 O56 1.258 . S
Zn60 O66 1.969 . S
Zn60 O67 1.965 . S
Zn60 O71 2.024 1_545 S
Zn60 O76 1.969 . S
Zn61 O68 1.969 1_545 S
Zn61 O74 1.969 . S
Zn61 O75 1.965 . S
Zn61 O77 2.024 . S
C62 O63 1.229 . S
C62 O71 1.058 . S
O63 C62 1.229 . S
C64 O65 1.229 . S
C64 O77 1.058 . S
O65 C64 1.229 . S
O66 Zn60 1.969 . S
O66 C69 1.267 . S
O67 Zn60 1.965 . S
O67 C78 1.260 1_545 S
O68 Zn61 1.969 1_565 S
O68 C78 1.258 . S
C69 O66 1.267 . S
C69 O70 1.228 1_545 S
O70 C69 1.228 1_565 S
O71 Zn60 2.024 1_565 S
O71 C62 1.058 . S
C72 O73 1.228 . S
C72 O74 1.267 . S
O73 C72 1.228 . S
O74 Zn61 1.969 . S
O74 C72 1.267 . S
O75 Zn61 1.965 . S
O75 C79 1.260 . S
O76 Zn60 1.969 . S
O76 C79 1.258 . S
O77 Zn61 2.024 . S
O77 C64 1.058 . S
C78 O67 1.260 1_565 S
C78 O68 1.258 . S
C79 O75 1.260 . S
C79 O76 1.258 . S
Zn80 O86 1.969 . S
Zn80 O87 1.965 . S
Zn80 O91 2.024 . S
Zn80 O96 1.969 . S
Zn81 O88 1.969 . S
Zn81 O94 1.969 . S
Zn81 O95 1.965 . S
Zn81 O97 2.024 . S
C82 O83 1.229 . S
C82 O91 1.058 . S
O83 C82 1.229 . S
C84 O85 1.229 . S
C84 O97 1.058 . S
O85 C84 1.229 . S
O86 Zn80 1.969 . S
O86 C89 1.267 . S
O87 Zn80 1.965 . S
O87 C98 1.260 . S
O88 Zn81 1.969 . S
O88 C98 1.258 . S
C89 O86 1.267 . S
C89 O90 1.228 . S
O90 C89 1.228 . S
O91 Zn80 2.024 . S
O91 C82 1.058 . S
C92 O93 1.228 . S
C92 O94 1.267 . S
O93 C92 1.228 . S
O94 Zn81 1.969 . S
O94 C92 1.267 . S
O95 Zn81 1.965 . S
O95 C99 1.260 . S
O96 Zn80 1.969 . S
O96 C99 1.258 . S
O97 Zn81 2.024 . S
O97 C84 1.058 . S
C98 O87 1.260 . S
C98 O88 1.258 . S
C99 O95 1.260 . S
C99 O96 1.258 . S
Zn100 O106 1.969 . S
Zn100 O107 1.965 . S
Zn100 O111 2.024 . S
Zn100 O116 1.969 . S
Zn101 O108 1.969 . S
Zn101 O114 1.969 . S
Zn101 O115 1.965 . S
Zn101 O117 2.024 . S
C102 O103 1.229 . S
C102 O111 1.058 . S
O103 C102 1.229 . S
C104 O105 1.229 . S
C104 O117 1.058 . S
O105 C104 1.229 . S
O106 Zn100 1.969 . S
O106 C109 1.267 . S
O107 Zn100 1.965 . S
O107 C118 1.260 . S
O108 Zn101 1.969 . S
O108 C118 1.258 . S
C109 O106 1.267 . S
C109 O110 1.228 . S
O110 C109 1.228 . S
O111 Zn100 2.024 . S
O111 C102 1.058 . S
C112 O113 1.228 . S
C112 O114 1.267 . S
O113 C112 1.228 . S
O114 Zn101 1.969 . S
O114 C112 1.267 . S
O115 Zn101 1.965 . S
O115 C119 1.260 . S
O116 Zn100 1.969 . S
O116 C119 1.258 . S
O117 Zn101 2.024 . S
O117 C104 1.058 . S
C118 O107 1.260 . S
C118 O108 1.258 . S
C119 O115 1.260 . S
C119 O116 1.258 . S
Zn120 O126 1.969 . S
Zn120 O127 1.965 . S
Zn120 O131 2.024 . S
Zn120 O136 1.969 . S
Zn121 O128 1.969 . S
Zn121 O134 1.969 . S
Zn121 O135 1.965 . S
Zn121 O137 2.024 . S
C122 O123 1.229 . S
C122 O131 1.058 . S
O123 C122 1.229 . S
C124 O125 1.229 . S
C124 O137 1.058 . S
O125 C124 1.229 . S
O126 Zn120 1.969 . S
O126 C129 1.267 . S
O127 Zn120 1.965 . S
O127 C138 1.260 . S
O128 Zn121 1.969 . S
O128 C138 1.258 . S
C129 O126 1.267 . S
C129 O130 1.228 . S
O130 C129 1.228 . S
O131 Zn120 2.024 . S
O131 C122 1.058 . S
C132 O133 1.228 . S
C132 O134 1.267 . S
O133 C132 1.228 . S
O134 Zn121 1.969 . S
O134 C132 1.267 . S
O135 Zn121 1.965 . S
O135 C139 1.260 . S
O136 Zn120 1.969 . S
O136 C139 1.258 . S
O137 Zn121 2.024 . S
O137 C124 1.058 . S
C138 O127 1.260 . S
C138 O128 1.258 . S
C139 O135 1.260 . S
C139 O136 1.258 . S
Zn140 O146 1.969 . S
Zn140 O147 1.965 . S
Zn140 O151 2.024 . S
Zn140 O156 1.969 1_455 S
Zn141 O148 1.969 . S
Zn141 O154 1.969 1_455 S
Zn141 O155 1.965 1_455 S
Zn141 O157 2.024 . S
C142 O143 1.229 . S
C142 O151 1.058 1_655 S
O143 C142 1.229 . S
C144 O145 1.229 . S
C144 O157 1.058 . S
O145 C144 1.229 . S
O146 Zn140 1.969 . S
O146 C149 1.267 . S
O147 Zn140 1.965 . S
O147 C158 1.260 . S
O148 Zn141 1.969 . S
O148 C158 1.258 . S
C149 O146 1.267 . S
C149 O150 1.228 . S
O150 C149 1.228 . S
O151 Zn140 2.024 . S
O151 C142 1.058 1_455 S
C152 O153 1.228 . S
C152 O154 1.267 . S
O153 C152 1.228 . S
O154 Zn141 1.969 1_655 S
O154 C152 1.267 . S
O155 Zn141 1.965 1_655 S
O155 C159 1.260 . S
O156 Zn140 1.969 1_655 S
O156 C159 1.258 . S
O157 Zn141 2.024 . S
O157 C144 1.058 . S
C158 O147 1.260 . S
C158 O148 1.258 . S
C159 O155 1.260 . S
C159 O156 1.258 . S
Zn160 O166 1.969 1_554 S
Zn160 O167 1.965 . S
Zn160 O171 2.024 . S
Zn160 O176 1.969 1_554 S
Zn161 O168 1.969 1_556 S
Zn161 O174 1.969 1_556 S
Zn161 O175 1.965 . S
Zn161 O177 2.024 . S
C162 O163 1.229 . S
C162 O171 1.058 . S
O163 C162 1.229 . S
C164 O165 1.229 . S
C164 O177 1.058 . S
O165 C164 1.229 . S
O166 Zn160 1.969 1_556 S
O166 C169 1.267 . S
O167 Zn160 1.965 . S
O167 C178 1.260 . S
O168 Zn161 1.969 1_554 S
O168 C178 1.258 . S
C169 O166 1.267 . S
C169 O170 1.228 1_556 S
O170 C169 1.228 1_554 S
O171 Zn160 2.024 . S
O171 C162 1.058 . S
C172 O173 1.228 1_554 S
C172 O174 1.267 . S
O173 C172 1.228 1_556 S
O174 Zn161 1.969 1_554 S
O174 C172 1.267 . S
O175 Zn161 1.965 . S
O175 C179 1.260 . S
O176 Zn160 1.969 1_556 S
O176 C179 1.258 . S
O177 Zn161 2.024 . S
O177 C164 1.058 . S
C178 O167 1.260 . S
C178 O168 1.258 . S
C179 O175 1.260 . S
C179 O176 1.258 . S
Zn180 O186 1.969 1_565 S
Zn180 O187 1.965 . S
Zn180 O191 2.024 . S
Zn180 O196 1.969 1_565 S
Zn181 O188 1.969 1_545 S
Zn181 O194 1.969 1_545 S
Zn181 O195 1.965 . S
Zn181 O197 2.024 . S
C182 O183 1.229 . S
C182 O191 1.058 . S
O183 C182 1.229 . S
C184 O185 1.229 . S
C184 O197 1.058 . S
O185 C184 1.229 . S
O186 Zn180 1.969 1_545 S
O186 C189 1.267 1_545 S
O187 Zn180 1.965 . S
O187 C198 1.260 . S
O188 Zn181 1.969 1_565 S
O188 C198 1.258 . S
C189 O186 1.267 1_565 S
C189 O190 1.228 . S
O190 C189 1.228 . S
O191 Zn180 2.024 . S
O191 C182 1.058 . S
C192 O193 1.228 . S
C192 O194 1.267 1_545 S
O193 C192 1.228 . S
O194 Zn181 1.969 1_565 S
O194 C192 1.267 1_565 S
O195 Zn181 1.965 . S
O195 C199 1.260 . S
O196 Zn180 1.969 1_545 S
O196 C199 1.258 . S
O197 Zn181 2.024 . S
O197 C184 1.058 . S
C198 O187 1.260 . S
C198 O188 1.258 . S
C199 O195 1.260 . S
C199 O196 1.258 . S
Zn200 O206 1.969 . S
Zn200 O207 1.965 . S
Zn200 O211 2.024 . S
Zn200 O216 1.969 . S
Zn201 O208 1.969 . S
Zn201 O214 1.969 . S
Zn201 O215 1.965 . S
Zn201 O217 2.024 . S
C202 O203 1.229 . S
C202 O211 1.058 . S
O203 C202 1.229 . S
C204 O205 1.229 . S
C204 O217 1.058 . S
O205 C204 1.229 . S
O206 Zn200 1.969 . S
O206 C209 1.267 . S
O207 Zn200 1.965 . S
O207 C218 1.260 . S
O208 Zn201 1.969 . S
O208 C218 1.258 . S
C209 O206 1.267 . S
C209 O210 1.228 . S
O210 C209 1.228 . S
O211 Zn200 2.024 . S
O211 C202 1.058 . S
C212 O213 1.228 . S
C212 O214 1.267 . S
O213 C212 1.228 . S
O214 Zn201 1.969 . S
O214 C212 1.267 . S
O215 Zn201 1.965 . S
O215 C219 1.260 . S
O216 Zn200 1.969 . S
O216 C219 1.258 . S
O217 Zn201 2.024 . S
O217 C204 1.058 . S
C218 O207 1.260 . S
C218 O208 1.258 . S
C219 O215 1.260 . S
C219 O216 1.258 . S
Zn220 O226 1.969 . S
Zn220 O227 1.965 . S
Zn220 O231 2.031 . S
Zn220 O236 1.969 1_655 S
Zn221 O228 1.969 1_455 S
Zn221 O234 1.969 . S
Zn221 O235 1.965 . S
Zn221 O237 2.033 . S
C222 O223 1.229 . S
C222 O231 1.055 1_455 S
O223 C222 1.229 . S
C224 O225 1.229 . S
C224 O237 1.054 1_655 S
O225 C224 1.229 . S
O226 Zn220 1.969 . S
O226 C229 1.267 . S
O227 Zn220 1.965 . S
O227 C238 1.260 . S
O228 Zn221 1.969 1_655 S
O228 C238 1.258 . S
C229 O226 1.267 . S
C229 O230 1.228 . S
O230 C229 1.228 . S
O231 Zn220 2.031 . S
O231 C222 1.055 1_655 S
C232 O233 1.228 . S
C232 O234 1.267 . S
O233 C232 1.228 . S
O234 Zn221 1.969 . S
O234 C232 1.267 . S
O235 Zn221 1.965 . S
O235 C239 1.260 . S
O236 Zn220 1.969 1_455 S
O236 C239 1.258 . S
O237 Zn221 2.033 . S
O237 C224 1.054 1_455 S
C238 O227 1.260 . S
C238 O228 1.258 . S
C239 O235 1.260 . S
C239 O236 1.258 . S
Zn240 O246 1.969 . S
Zn240 O247 1.965 . S
Zn240 O251 2.024 . S
Zn240 O256 1.969 . S
Zn241 O248 1.969 . S
Zn241 O254 1.969 . S
Zn241 O255 1.965 . S
Zn241 O257 2.024 . S
C242 O243 1.229 . S
C242 O251 1.058 . S
O243 C242 1.229 . S
C244 O245 1.229 . S
C244 O257 1.058 . S
O245 C244 1.229 . S
O246 Zn240 1.969 . S
O246 C249 1.267 . S
O247 Zn240 1.965 . S
O247 C258 1.260 . S
O248 Zn241 1.969 . S
O248 C258 1.258 . S
C249 O246 1.267 . S
C249 O250 1.228 . S
O250 C249 1.228 . S
O251 Zn240 2.024 . S
O251 C242 1.058 . S
C252 O253 1.228 . S
C252 O254 1.267 . S
O253 C252 1.228 . S
O254 Zn241 1.969 . S
O254 C252 1.267 . S
O255 Zn241 1.965 . S
O255 C259 1.260 . S
O256 Zn240 1.969 . S
O256 C259 1.258 . S
O257 Zn241 2.024 . S
O257 C244 1.058 . S
C258 O247 1.260 . S
C258 O248 1.258 . S
C259 O255 1.260 . S
C259 O256 1.258 . S
Zn260 O266 1.969 1_554 S
Zn260 O267 1.965 . S
Zn260 O271 2.024 . S
Zn260 O276 1.969 1_554 S
Zn261 O268 1.969 . S
Zn261 O274 1.969 . S
Zn261 O275 1.965 . S
Zn261 O277 2.024 1_554 S
C262 O263 1.229 . S
C262 O271 1.058 . S
O263 C262 1.229 . S
C264 O265 1.229 . S
C264 O277 1.058 . S
O265 C264 1.229 . S
O266 Zn260 1.969 1_556 S
O266 C269 1.267 1_556 S
O267 Zn260 1.965 . S
O267 C278 1.260 . S
O268 Zn261 1.969 . S
O268 C278 1.258 . S
C269 O266 1.267 1_554 S
C269 O270 1.228 . S
O270 C269 1.228 . S
O271 Zn260 2.024 . S
O271 C262 1.058 . S
C272 O273 1.228 1_554 S
C272 O274 1.267 . S
O273 C272 1.228 1_556 S
O274 Zn261 1.969 . S
O274 C272 1.267 . S
O275 Zn261 1.965 . S
O275 C279 1.260 1_554 S
O276 Zn260 1.969 1_556 S
O276 C279 1.258 . S
O277 Zn261 2.024 1_556 S
O277 C264 1.058 . S
C278 O267 1.260 . S
C278 O268 1.258 . S
C279 O275 1.260 1_556 S
C279 O276 1.258 . S
Zn280 O286 1.969 1_545 S
Zn280 O287 1.965 1_545 S
Zn280 O291 2.024 . S
Zn280 O296 1.969 . S
Zn281 O288 1.969 1_545 S
Zn281 O294 1.969 . S
Zn281 O295 1.965 . S
Zn281 O297 2.024 . S
C282 O283 1.229 . S
C282 O291 1.058 . S
O283 C282 1.229 . S
C284 O285 1.229 . S
C284 O297 1.058 1_565 S
O285 C284 1.229 . S
O286 Zn280 1.969 1_565 S
O286 C289 1.267 . S
O287 Zn280 1.965 1_565 S
O287 C298 1.260 . S
O288 Zn281 1.969 1_565 S
O288 C298 1.258 . S
C289 O286 1.267 . S
C289 O290 1.228 . S
O290 C289 1.228 . S
O291 Zn280 2.024 . S
O291 C282 1.058 . S
C292 O293 1.228 . S
C292 O294 1.267 . S
O293 C292 1.228 . S
O294 Zn281 1.969 . S
O294 C292 1.267 . S
O295 Zn281 1.965 . S
O295 C299 1.260 . S
O296 Zn280 1.969 . S
O296 C299 1.258 . S
O297 Zn281 2.024 . S
O297 C284 1.058 1_545 S
C298 O287 1.260 . S
C298 O288 1.258 . S
C299 O295 1.260 . S
C299 O296 1.258 . S
Zn300 O306 1.969 1_554 S
Zn300 O307 1.965 . S
Zn300 O311 2.024 . S
Zn300 O316 1.969 1_554 S
Zn301 O308 1.969 . S
Zn301 O314 1.969 . S
Zn301 O315 1.965 . S
Zn301 O317 2.024 1_554 S
C302 O303 1.229 . S
C302 O311 1.058 . S
O303 C302 1.229 . S
C304 O305 1.229 . S
C304 O317 1.058 . S
O305 C304 1.229 . S
O306 Zn300 1.969 1_556 S
O306 C309 1.267 1_556 S
O307 Zn300 1.965 . S
O307 C318 1.260 . S
O308 Zn301 1.969 . S
O308 C318 1.258 . S
C309 O306 1.267 1_554 S
C309 O310 1.228 . S
O310 C309 1.228 . S
O311 Zn300 2.024 . S
O311 C302 1.058 . S
C312 O313 1.228 1_554 S
C312 O314 1.267 . S
O313 C312 1.228 1_556 S
O314 Zn301 1.969 . S
O314 C312 1.267 . S
O315 Zn301 1.965 . S
O315 C319 1.260 1_554 S
O316 Zn300 1.969 1_556 S
O316 C319 1.258 . S
O317 Zn301 2.024 1_556 S
O317 C304 1.058 . S
C318 O307 1.260 . S
C318 O308 1.258 . S
C319 O315 1.260 1_556 S
C319 O316 1.258 . S
C2 C24 1.171 1_655 S
C42 C29 1.891 . S
C64 C59 1.713 . S
C19 C69 1.188 . S
C18 C192 1.234 1_565 S
C144 C22 0.954 . S
C44 C212 1.269 . S
C62 C264 1.606 . S
C178 C32 1.234 . S
C242 C58 2.078 . S
C284 C72 1.269 1_565 S
C4 C222 0.807 . S
C9 C169 0.255 . S
C259 C99 3.296 . S
C112 C289 0.377 . S
C239 C139 2.374 . S
C49 C152 0.377 . S
C198 C98 2.505 . S
C138 C218 2.934 . S
C118 C232 2.301 . S
C182 C104 0.954 . S
C224 C142 0.674 . S
C119 C89 2.282 . S
C184 C162 1.170 . S
C279 C229 1.917 . S
C124 C102 0.672 . S
C189 C282 1.890 1_565 S
C272 C12 0.328 . S
C52 C292 0.375 . S
C258 C38 2.505 . S
C149 C109 0.285 . S
C79 C219 2.591 . S
C244 C262 1.377 . S
C159 C249 2.282 . S
C132 C158 2.302 . S
C92 C278 1.924 . S
C252 C318 1.924 . S
C312 C172 0.328 . S
C39 C199 2.696 . S
C164 C122 0.810 . S
C179 C209 1.187 . S
C319 C129 1.916 . S
C269 C309 0.261 . S
C238 C78 2.934 . S
C204 C299 1.713 . S
C202 C304 1.606 . S
C82 C298 2.078 . S
C302 C84 1.376 . S
