# Generated by pormake.
# Topology und, (4)-cn, num edge types: 1
# Building blocks:
#     Node 0, Type 0, BuildingBlock: QUQFOY_clean_sbu_3, # of connection points: 4
#     Node 1, Type 0, BuildingBlock: QUQFOY_clean_sbu_3, # of connection points: 4
#     Node 2, Type 0, BuildingBlock: QUQFOY_clean_sbu_3, # of connection points: 4
#     Node 3, Type 0, BuildingBlock: QUQFOY_clean_sbu_3, # of connection points: 4
#     Node 4, Type 0, BuildingBlock: QUQFOY_clean_sbu_3, # of connection points: 4
#     Node 5, Type 0, BuildingBlock: QUQFOY_clean_sbu_3, # of connection points: 4
#     Node 6, Type 0, BuildingBlock: QUQFOY_clean_sbu_3, # of connection points: 4
#     Node 7, Type 0, BuildingBlock: QUQFOY_clean_sbu_3, # of connection points: 4
#     Node 8, Type 0, BuildingBlock: QUQFOY_clean_sbu_3, # of connection points: 4
#     Node 9, Type 0, BuildingBlock: QUQFOY_clean_sbu_3, # of connection points: 4
#     Node 10, Type 0, BuildingBlock: QUQFOY_clean_sbu_3, # of connection points: 4
#     Node 11, Type 0, BuildingBlock: QUQFOY_clean_sbu_3, # of connection points: 4
#     Node 12, Type 0, BuildingBlock: QUQFOY_clean_sbu_3, # of connection points: 4
#     Node 13, Type 0, BuildingBlock: QUQFOY_clean_sbu_3, # of connection points: 4
#     Node 14, Type 0, BuildingBlock: QUQFOY_clean_sbu_3, # of connection points: 4
#     Node 15, Type 0, BuildingBlock: QUQFOY_clean_sbu_3, # of connection points: 4
#     Edge 16, Type (0, 0), BuildingBlock: EYOCIG_clean_linker_4, # of connection points: 2
#     Edge 17, Type (0, 0), BuildingBlock: EYOCIG_clean_linker_4, # of connection points: 2
#     Edge 18, Type (0, 0), BuildingBlock: EYOCIG_clean_linker_4, # of connection points: 2
#     Edge 19, Type (0, 0), BuildingBlock: EYOCIG_clean_linker_4, # of connection points: 2
#     Edge 20, Type (0, 0), BuildingBlock: EYOCIG_clean_linker_4, # of connection points: 2
#     Edge 21, Type (0, 0), BuildingBlock: EYOCIG_clean_linker_4, # of connection points: 2
#     Edge 22, Type (0, 0), BuildingBlock: EYOCIG_clean_linker_4, # of connection points: 2
#     Edge 23, Type (0, 0), BuildingBlock: EYOCIG_clean_linker_4, # of connection points: 2
#     Edge 24, Type (0, 0), BuildingBlock: EYOCIG_clean_linker_4, # of connection points: 2
#     Edge 25, Type (0, 0), BuildingBlock: EYOCIG_clean_linker_4, # of connection points: 2
#     Edge 26, Type (0, 0), BuildingBlock: EYOCIG_clean_linker_4, # of connection points: 2
#     Edge 27, Type (0, 0), BuildingBlock: EYOCIG_clean_linker_4, # of connection points: 2
#     Edge 28, Type (0, 0), BuildingBlock: EYOCIG_clean_linker_4, # of connection points: 2
#     Edge 29, Type (0, 0), BuildingBlock: EYOCIG_clean_linker_4, # of connection points: 2
#     Edge 30, Type (0, 0), BuildingBlock: EYOCIG_clean_linker_4, # of connection points: 2
#     Edge 31, Type (0, 0), BuildingBlock: EYOCIG_clean_linker_4, # of connection points: 2
#     Edge 32, Type (0, 0), BuildingBlock: EYOCIG_clean_linker_4, # of connection points: 2
#     Edge 33, Type (0, 0), BuildingBlock: EYOCIG_clean_linker_4, # of connection points: 2
#     Edge 34, Type (0, 0), BuildingBlock: EYOCIG_clean_linker_4, # of connection points: 2
#     Edge 35, Type (0, 0), BuildingBlock: EYOCIG_clean_linker_4, # of connection points: 2
#     Edge 36, Type (0, 0), BuildingBlock: EYOCIG_clean_linker_4, # of connection points: 2
#     Edge 37, Type (0, 0), BuildingBlock: EYOCIG_clean_linker_4, # of connection points: 2
#     Edge 38, Type (0, 0), BuildingBlock: EYOCIG_clean_linker_4, # of connection points: 2
#     Edge 39, Type (0, 0), BuildingBlock: EYOCIG_clean_linker_4, # of connection points: 2
#     Edge 40, Type (0, 0), BuildingBlock: EYOCIG_clean_linker_4, # of connection points: 2
#     Edge 41, Type (0, 0), BuildingBlock: EYOCIG_clean_linker_4, # of connection points: 2
#     Edge 42, Type (0, 0), BuildingBlock: EYOCIG_clean_linker_4, # of connection points: 2
#     Edge 43, Type (0, 0), BuildingBlock: EYOCIG_clean_linker_4, # of connection points: 2
#     Edge 44, Type (0, 0), BuildingBlock: EYOCIG_clean_linker_4, # of connection points: 2
#     Edge 45, Type (0, 0), BuildingBlock: EYOCIG_clean_linker_4, # of connection points: 2
#     Edge 46, Type (0, 0), BuildingBlock: EYOCIG_clean_linker_4, # of connection points: 2
#     Edge 47, Type (0, 0), BuildingBlock: EYOCIG_clean_linker_4, # of connection points: 2
# Relax obj value: 0.006
# Max RMSD: 0.045
# Mean RMSD: 0.045
data_MOF--net-und--node1-QUQFOY_clean_sbu_3--edge1-EYOCIG_clean_linker_4
_symmetry_space_group_name_H-M    P1
_symmetry_Int_Tables_number       1
_symmetry_cell_setting            triclinic
loop_
_symmetry_equiv_pos_as_xyz
'x, y, z'
_cell_length_a     49.808758
_cell_length_b     49.809011
_cell_length_c     19.316876
_cell_angle_alpha  89.975862
_cell_angle_beta   90.039045
_cell_angle_gamma 96.006878
loop_
_atom_site_label
_atom_site_type_symbol
_atom_site_fract_x
_atom_site_fract_y
_atom_site_fract_z
_atom_type_partial_charge
C0 C 0.2412 0.29809 0.09954 0.0
O1 O 0.26554 0.30087 0.07905 0.0
Cd2 Cd 0.28577 0.32107 -0.02356 0.0
O3 O 0.22283 0.30964 0.06915 0.0
Cd4 Cd 0.22359 0.34497 -0.02139 0.0
C5 C 0.23103 0.29862 0.86313 0.0
O6 O 0.27101 0.36419 -0.01781 0.0
O7 O 0.24687 0.37653 0.89695 0.0
O8 O 0.20775 0.37336 0.06735 0.0
C9 C 0.26951 0.37791 0.92734 0.0
O10 O 0.25462 0.30084 0.88923 0.0
C11 C 0.18644 0.37776 0.03531 0.0
O12 O 0.21253 0.31211 0.88597 0.0
O13 O 0.18196 0.36662 -0.02337 0.0
C14 C 0.94019 -0.00264 0.11557 0.0
O15 O 0.93751 0.97299 0.13589 0.0
Cd16 Cd 0.91738 0.95257 0.23834 0.0
O17 O 0.92869 0.01567 0.14631 0.0
Cd18 Cd 0.89351 0.01482 0.23724 0.0
C19 C 0.9399 0.00721 0.35201 0.0
O20 O 0.87433 0.96747 0.23166 0.0
O21 O 0.86182 -0.009 0.3178 0.0
O22 O 0.86497 0.03003 0.14816 0.0
C23 C 0.86028 0.96866 0.28599 0.0
O24 O 0.93754 0.98375 0.32525 0.0
C25 C 0.86001 0.05121 0.17986 0.0
O26 O 0.92639 0.02585 0.33 0.0
O27 O 0.87116 0.05612 0.2384 0.0
C28 C 0.22421 0.71328 0.59992 0.0
O29 O 0.19979 0.71035 0.57998 0.0
Cd30 Cd 0.1792 0.68997 0.47787 0.0
O31 O 0.24257 0.70198 0.56886 0.0
Cd32 Cd 0.24192 0.66682 0.47799 0.0
C33 C 0.23347 0.71269 0.36322 0.0
O34 O 0.19459 0.64698 0.48173 0.0
O35 O 0.21911 0.63535 0.39637 0.0
O36 O 0.25641 0.63858 0.56826 0.0
C37 C 0.19648 0.63336 0.4268 0.0
O38 O 0.21022 0.70989 0.39095 0.0
C39 C 0.27785 0.63348 0.53809 0.0
O40 O 0.25263 0.69975 0.38481 0.0
O41 O 0.28325 0.64431 0.47934 0.0
C42 C 0.52515 0.0142 0.61561 0.0
O43 O 0.5279 0.03859 0.63573 0.0
Cd44 Cd 0.5481 0.05912 0.73811 0.0
O45 O 0.53661 -0.00411 0.6465 0.0
Cd46 Cd 0.57179 -0.00343 0.73751 0.0
C47 C 0.52534 0.00452 0.85175 0.0
O48 O 0.59109 0.04399 0.73365 0.0
O49 O 0.60343 0.01985 0.81889 0.0
O50 O 0.59998 0.98097 0.64809 0.0
C51 C 0.60479 0.04249 0.78857 0.0
O52 O 0.52789 0.02792 0.8247 0.0
C53 C 0.60438 0.95952 0.6794 0.0
O54 O 0.53872 -0.01428 0.83007 0.0
O55 O 0.59347 0.9549 0.73833 0.0
C56 C 0.72415 0.71386 0.86683 0.0
O57 O 0.6997 0.7108 0.88642 0.0
Cd58 Cd 0.67893 0.69004 -0.01244 0.0
O59 O 0.74245 0.70226 0.89737 0.0
Cd60 Cd 0.74174 0.66663 -0.01262 0.0
C61 C 0.7332 0.71244 0.10272 0.0
O62 O 0.69434 0.64724 -0.0172 0.0
O63 O 0.71829 0.63503 0.06856 0.0
O64 O 0.75754 0.63817 0.89866 0.0
C65 C 0.69573 0.63358 0.03782 0.0
O66 O 0.70991 0.70978 0.07506 0.0
C67 C 0.77882 0.63368 0.93064 0.0
O68 O 0.75228 0.69947 0.08085 0.0
O69 O 0.78337 0.64484 -0.01071 0.0
C70 C 0.02437 0.01325 0.84873 0.0
O71 O 0.02725 0.03784 0.83022 0.0
Cd72 Cd 0.04803 0.05866 0.72863 0.0
O73 O 0.03618 -0.00467 0.81747 0.0
Cd74 Cd 0.07181 -0.00336 0.72839 0.0
C75 C 0.02626 0.00483 0.61194 0.0
O76 O 0.09147 0.04404 0.73202 0.0
O77 O 0.10307 0.01951 0.64658 0.0
O78 O 0.10007 0.98096 0.81767 0.0
C79 C 0.10492 0.04218 0.67675 0.0
O80 O 0.0285 0.02818 0.63931 0.0
C81 C 0.10435 0.9595 0.78621 0.0
O82 O 0.03925 -0.01407 0.6348 0.0
O83 O 0.09336 0.95497 0.72735 0.0
C84 C 0.74112 0.2976 0.36678 0.0
O85 O 0.7655 0.30055 0.3869 0.0
Cd86 Cd 0.7858 0.32107 0.48895 0.0
O87 O 0.7228 0.30924 0.39701 0.0
Cd88 Cd 0.72364 0.34493 0.48665 0.0
C89 C 0.73133 0.29929 0.60371 0.0
O90 O 0.77107 0.3642 0.48289 0.0
O91 O 0.74698 0.37649 0.56818 0.0
O92 O 0.70777 0.37323 0.39765 0.0
C93 C 0.7696 0.37791 0.53777 0.0
O94 O 0.75487 0.30143 0.57738 0.0
C95 C 0.68636 0.37749 0.42935 0.0
O96 O 0.71266 0.3124 0.58007 0.0
O97 O 0.68193 0.36646 0.48818 0.0
C98 C 0.44092 -0.00172 0.34851 0.0
O99 O 0.43811 0.97369 0.33005 0.0
Cd100 Cd 0.41757 0.95287 0.22828 0.0
O101 O 0.42908 0.01617 0.3171 0.0
Cd102 Cd 0.39331 0.01489 0.22809 0.0
C103 C 0.43906 0.00697 0.1117 0.0
O104 O 0.37429 0.96744 0.23236 0.0
O105 O 0.36184 -0.00857 0.14682 0.0
O106 O 0.36523 0.02967 0.31871 0.0
C107 C 0.36059 0.96883 0.17736 0.0
O108 O 0.43697 0.98358 0.13895 0.0
C109 C 0.36034 0.05113 0.28805 0.0
O110 O 0.42591 0.02575 0.13458 0.0
O111 O 0.37109 0.0562 0.22913 0.0
C112 C 0.74012 0.79795 0.5994 0.0
O113 O 0.76466 0.80056 0.58042 0.0
Cd114 Cd 0.78524 0.82082 0.47774 0.0
O115 O 0.7222 0.80968 0.56783 0.0
Cd116 Cd 0.72353 0.84514 0.47819 0.0
C117 C 0.73101 0.7989 0.3624 0.0
O118 O 0.77096 0.86436 0.48166 0.0
O119 O 0.74658 0.87652 0.39649 0.0
O120 O 0.70825 0.87308 0.5684 0.0
C121 C 0.76928 0.87796 0.42658 0.0
O122 O 0.75455 0.80085 0.38886 0.0
C123 C 0.68667 0.87752 0.53776 0.0
O124 O 0.71254 0.81239 0.38542 0.0
O125 O 0.6819 0.86687 0.47855 0.0
C126 C 0.44073 0.49725 0.61689 0.0
O127 O 0.43775 0.4728 0.6365 0.0
Cd128 Cd 0.41708 0.45221 0.73797 0.0
O129 O 0.42907 0.51551 0.64735 0.0
Cd130 Cd 0.39348 0.5148 0.73735 0.0
C131 C 0.43982 0.50681 0.85175 0.0
O132 O 0.37426 0.46747 0.73185 0.0
O133 O 0.36182 0.49095 0.81811 0.0
O134 O 0.36492 0.53051 0.64871 0.0
C135 C 0.36036 0.46858 0.78647 0.0
O136 O 0.43723 0.48344 0.82458 0.0
C137 C 0.36025 0.55167 0.68094 0.0
O138 O 0.42645 0.52565 0.83019 0.0
O139 O 0.37151 0.55627 0.73945 0.0
C140 C 0.72516 0.21358 0.09944 0.0
O141 O 0.70057 0.21097 0.08086 0.0
Cd142 Cd 0.67948 0.19059 -0.02087 0.0
O143 O 0.74303 0.20184 0.06768 0.0
Cd144 Cd 0.74179 0.16651 -0.02252 0.0
C145 C 0.73369 0.21296 0.86376 0.0
O146 O 0.69441 0.14748 -0.0163 0.0
O147 O 0.71774 0.13488 0.89723 0.0
O148 O 0.75691 0.1381 0.06699 0.0
C149 C 0.69542 0.13353 0.92909 0.0
O150 O 0.71045 0.21049 0.89166 0.0
C151 C 0.7781 0.13307 0.03542 0.0
O152 O 0.75255 0.1995 0.88472 0.0
O153 O 0.78304 0.14412 -0.02323 0.0
C154 C 0.02426 0.51357 0.11749 0.0
O155 O 0.02725 0.53814 0.13609 0.0
Cd156 Cd 0.04808 0.55853 0.23797 0.0
O157 O 0.03607 0.49557 0.14859 0.0
Cd158 Cd 0.07194 0.49666 0.23733 0.0
C159 C 0.02553 0.50416 0.35234 0.0
O160 O 0.09143 0.54389 0.23187 0.0
O161 O 0.10347 0.52004 0.31824 0.0
O162 O 0.09991 0.4814 0.14693 0.0
C163 C 0.10537 0.5424 0.28641 0.0
O164 O 0.02774 0.52765 0.32572 0.0
C165 C 0.10444 0.45988 0.17776 0.0
O166 O 0.03914 0.48563 0.33017 0.0
O167 O 0.09374 0.45511 0.23685 0.0
C168 C 0.22528 0.21384 0.36642 0.0
O169 O 0.20068 0.2111 0.38479 0.0
Cd170 Cd 0.17968 0.19034 0.48609 0.0
O171 O 0.24315 0.20204 0.39804 0.0
Cd172 Cd 0.24179 0.16659 0.48767 0.0
C173 C 0.23334 0.21222 0.60344 0.0
O174 O 0.19453 0.14706 0.48135 0.0
O175 O 0.21815 0.13505 0.56818 0.0
O176 O 0.25722 0.13803 0.39854 0.0
C177 C 0.19587 0.13316 0.53603 0.0
O178 O 0.21012 0.20983 0.57538 0.0
C179 C 0.2784 0.13329 0.43072 0.0
O180 O 0.25237 0.19923 0.58144 0.0
O181 O 0.28307 0.1445 0.48922 0.0
C182 C 0.52497 0.51336 0.3501 0.0
O183 O 0.52737 0.53785 0.3307 0.0
Cd184 Cd 0.54757 0.55856 0.22831 0.0
O185 O 0.53675 0.49544 0.31874 0.0
Cd186 Cd 0.57192 0.49676 0.22833 0.0
C187 C 0.52616 0.50454 0.11182 0.0
O188 O 0.59098 0.54419 0.23403 0.0
O189 O 0.60359 0.52066 0.14796 0.0
O190 O 0.60031 0.48061 0.31682 0.0
C191 C 0.60493 0.54306 0.17946 0.0
O192 O 0.52814 0.52796 0.13882 0.0
C193 C 0.60448 0.45929 0.28462 0.0
O194 O 0.53938 0.48587 0.13497 0.0
O195 O 0.59336 0.45505 0.22583 0.0
C196 C 0.24012 0.7975 0.8668 0.0
O197 O 0.26468 0.80018 0.88559 0.0
Cd198 Cd 0.28533 0.82079 -0.01254 0.0
O199 O 0.22225 0.80948 0.89783 0.0
Cd200 Cd 0.22368 0.84516 -0.01297 0.0
C201 C 0.23113 0.79896 0.10291 0.0
O202 O 0.27104 0.86422 -0.01863 0.0
O203 O 0.24756 0.87672 0.06768 0.0
O204 O 0.20748 0.87348 0.89851 0.0
C205 C 0.26992 0.87813 0.036 0.0
O206 O 0.25465 0.80088 0.07645 0.0
C207 C 0.18621 0.87771 0.93091 0.0
O208 O 0.21269 0.81251 0.07991 0.0
O209 O 0.18202 0.86661 -0.01026 0.0
C210 C 0.94021 0.49744 0.85002 0.0
O211 O 0.93759 0.47303 0.83008 0.0
Cd212 Cd 0.91733 0.45236 0.72802 0.0
O213 O 0.92869 0.51565 0.81889 0.0
Cd214 Cd 0.89349 0.51487 0.72798 0.0
C215 C 0.93907 0.50652 0.61188 0.0
O216 O 0.87436 0.46746 0.73379 0.0
O217 O 0.86159 0.49097 0.64783 0.0
O218 O 0.86546 0.53032 0.81794 0.0
C219 C 0.86032 0.46857 0.67933 0.0
O220 O 0.93666 0.48323 0.63956 0.0
C221 C 0.86094 0.55183 0.78704 0.0
O222 O 0.92614 0.52553 0.63428 0.0
O223 O 0.87166 0.55655 0.72795 0.0
C224 C 0.23387 0.26546 0.20617 0.0
C225 C 0.23484 0.2807 0.15758 0.0
C226 C 0.2344 0.24704 0.26153 0.0
C227 C 0.23264 0.23153 0.30955 0.0
C228 C 0.97484 0.00919 0.45361 0.0
C229 C 0.95847 0.01147 0.40853 0.0
C230 C -0.00663 0.00382 0.50599 0.0
C231 C 0.00882 0.00113 0.55298 0.0
C232 C 0.23169 0.74546 0.70739 0.0
C233 C 0.23066 0.73045 0.65836 0.0
C234 C 0.23113 0.76386 0.76276 0.0
C235 C 0.23281 0.77958 0.81034 0.0
C236 C 0.47193 0.00838 0.00571 0.0
C237 C 0.45647 0.01088 0.05274 0.0
C238 C 0.49043 0.00302 0.95328 0.0
C239 C 0.50676 0.00054 0.90827 0.0
C240 C 0.22851 0.76529 0.2074 0.0
C241 C 0.22656 0.78114 0.16091 0.0
C242 C 0.2338 0.74681 0.25997 0.0
C243 C 0.23675 0.73088 0.3057 0.0
C244 C 0.47453 0.00725 0.45268 0.0
C245 C 0.45883 0.00558 0.40502 0.0
C246 C 0.49294 0.00668 0.50811 0.0
C247 C 0.50798 0.00772 0.55712 0.0
C248 C 0.23385 0.24548 0.70848 0.0
C249 C 0.23673 0.22988 0.662 0.0
C250 C 0.22849 0.26403 0.76078 0.0
C251 C 0.22643 0.28026 0.80627 0.0
C252 C -0.00929 0.00428 0.95269 0.0
C253 C 0.00642 0.00597 0.90512 0.0
C254 C 0.97231 0.00484 0.00805 0.0
C255 C 0.9573 0.00382 0.05706 0.0
C256 C 0.73175 0.7473 0.76187 0.0
C257 C 0.73069 0.73172 0.80977 0.0
C258 C 0.73124 0.76563 0.70628 0.0
C259 C 0.73294 0.78075 0.65739 0.0
C260 C 0.73362 0.26431 0.26156 0.0
C261 C 0.73465 0.27983 0.30954 0.0
C262 C 0.73416 0.24597 0.20602 0.0
C263 C 0.73246 0.23082 0.15726 0.0
C264 C 0.73477 0.24778 0.76197 0.0
C265 C 0.73738 0.23148 0.80702 0.0
C266 C 0.72942 0.26629 0.7095 0.0
C267 C 0.72711 0.2818 0.66246 0.0
C268 C 0.73376 0.74647 0.20611 0.0
C269 C 0.73664 0.73056 0.16034 0.0
C270 C 0.72844 0.76504 0.25841 0.0
C271 C 0.72644 0.78097 0.30464 0.0
C272 C 0.49327 0.50282 0.00577 0.0
C273 C 0.50875 0.50045 0.05287 0.0
C274 C 0.47476 0.50816 0.95331 0.0
C275 C 0.45842 0.5107 0.9083 0.0
C276 C -0.00923 0.50179 0.45432 0.0
C277 C 0.00707 0.4997 0.40904 0.0
C278 C 0.97221 0.50714 0.50662 0.0
C279 C 0.95667 0.50999 0.55324 0.0
C280 C -0.00957 0.50478 0.01369 0.0
C281 C 0.0062 0.50642 0.06118 0.0
C282 C 0.97207 0.50524 0.95811 0.0
C283 C 0.95718 0.50406 0.90879 0.0
C284 C 0.47443 0.50507 0.51261 0.0
C285 C 0.45873 0.5039 0.56019 0.0
C286 C 0.49285 0.5046 0.45726 0.0
C287 C 0.50789 0.50624 0.4083 0.0
C288 C 0.13567 0.42691 0.11928 0.0
C289 C 0.12136 0.44176 0.14667 0.0
C290 C 0.15298 0.4097 0.08872 0.0
C291 C 0.16828 0.39511 0.06437 0.0
C292 C 0.80941 0.90921 0.37053 0.0
C293 C 0.79193 0.89459 0.3987 0.0
C294 C 0.82823 0.92807 0.33724 0.0
C295 C 0.84323 0.9458 0.31122 0.0
C296 C 0.31001 0.60107 0.59538 0.0
C297 C 0.29519 0.61585 0.56962 0.0
C298 C 0.32742 0.58401 0.62622 0.0
C299 C 0.34248 0.5695 0.65213 0.0
C300 C 0.65462 0.10184 0.87744 0.0
C301 C 0.67241 0.11668 0.90373 0.0
C302 C 0.63578 0.08296 0.84416 0.0
C303 C 0.62127 0.06531 0.81621 0.0
C304 C 0.13823 0.58225 0.33792 0.0
C305 C 0.12288 0.56489 0.31169 0.0
C306 C 0.15702 0.60106 0.37148 0.0
C307 C 0.17418 0.61614 0.39937 0.0
C308 C 0.63569 0.92579 0.62448 0.0
C309 C 0.62142 0.94132 0.64915 0.0
C310 C 0.65303 0.90845 0.59462 0.0
C311 C 0.66851 0.89434 0.56902 0.0
C312 C 0.32894 0.42773 0.83885 0.0
C313 C 0.34365 0.44558 0.81234 0.0
C314 C 0.31007 0.40885 0.87201 0.0
C315 C 0.29235 0.39438 0.89977 0.0
C316 C 0.80979 0.10001 0.09182 0.0
C317 C 0.79557 0.11517 0.06518 0.0
C318 C 0.82692 0.08291 0.12366 0.0
C319 C 0.8421 0.06871 0.15028 0.0
C320 C 0.8123 0.6018 0.87681 0.0
C321 C 0.79699 0.61636 0.90134 0.0
C322 C 0.82965 0.58473 0.84578 0.0
C323 C 0.844 0.56995 0.81814 0.0
C324 C 0.15578 0.10043 0.58704 0.0
C325 C 0.17327 0.11571 0.56109 0.0
C326 C 0.13689 0.08171 0.62055 0.0
C327 C 0.12195 0.06454 0.64888 0.0
C328 C 0.65302 0.40875 0.37236 0.0
C329 C 0.66796 0.3944 0.39937 0.0
C330 C 0.63589 0.42583 0.3405 0.0
C331 C 0.62147 0.44081 0.31391 0.0
C332 C 0.32959 0.92834 0.122 0.0
C333 C 0.34412 0.94595 0.14998 0.0
C334 C 0.31071 0.90959 0.08848 0.0
C335 C 0.2929 0.89486 0.06187 0.0
C336 C 0.8101 0.40884 0.59343 0.0
C337 C 0.79245 0.39436 0.56542 0.0
C338 C 0.82891 0.42771 0.62691 0.0
C339 C 0.84363 0.44554 0.6535 0.0
C340 C 0.31077 0.10041 0.3766 0.0
C341 C 0.29619 0.11548 0.40202 0.0
C342 C 0.32803 0.08317 0.34598 0.0
C343 C 0.34283 0.06872 0.31889 0.0
C344 C 0.6364 0.58383 0.12691 0.0
C345 C 0.62166 0.56605 0.15357 0.0
C346 C 0.6552 0.60268 0.09336 0.0
C347 C 0.67285 0.61715 0.06534 0.0
C348 C 0.15272 0.90915 0.87543 0.0
C349 C 0.16772 0.89472 0.90181 0.0
C350 C 0.1356 0.92626 0.84363 0.0
C351 C 0.12126 0.94117 0.81646 0.0
loop_
_geom_bond_atom_site_label_1
_geom_bond_atom_site_label_2
_geom_bond_distance
_geom_bond_site_symmetry_2
_ccdc_geom_bond_type
C0 O1 1.306 . S
C0 O3 1.160 . S
O1 C0 1.306 . S
O1 Cd2 2.228 . S
Cd2 O1 2.228 . S
Cd2 O6 2.273 . S
Cd2 O10 2.277 1_554 S
O3 C0 1.160 . S
O3 Cd4 2.203 . S
Cd4 O3 2.203 . S
Cd4 O6 2.411 . S
Cd4 O7 2.333 1_554 S
Cd4 O8 2.352 . S
Cd4 O12 2.277 1_554 S
Cd4 O13 2.356 . S
C5 O10 1.209 . S
C5 O12 1.226 . S
O6 Cd2 2.273 . S
O6 Cd4 2.411 . S
O6 C9 1.320 1_554 S
O7 Cd4 2.333 1_556 S
O7 C9 1.214 . S
O8 Cd4 2.352 . S
O8 C11 1.258 . S
C9 O6 1.320 1_556 S
C9 O7 1.214 . S
O10 Cd2 2.277 1_556 S
O10 C5 1.209 . S
C11 O8 1.258 . S
C11 O13 1.282 . S
O12 Cd4 2.277 1_556 S
O12 C5 1.226 . S
O13 Cd4 2.356 . S
O13 C11 1.282 . S
C14 O15 1.306 1_545 S
C14 O17 1.160 . S
O15 C14 1.306 1_565 S
O15 Cd16 2.228 . S
Cd16 O15 2.228 . S
Cd16 O20 2.273 . S
Cd16 O24 2.277 1_565 S
O17 C14 1.160 . S
O17 Cd18 2.203 . S
Cd18 O17 2.203 . S
Cd18 O20 2.411 1_545 S
Cd18 O21 2.333 . S
Cd18 O22 2.352 . S
Cd18 O26 2.277 . S
Cd18 O27 2.356 . S
C19 O24 1.209 . S
C19 O26 1.226 . S
O20 Cd16 2.273 . S
O20 Cd18 2.411 1_565 S
O20 C23 1.320 . S
O21 Cd18 2.333 . S
O21 C23 1.214 1_545 S
O22 Cd18 2.352 . S
O22 C25 1.258 . S
C23 O20 1.320 . S
C23 O21 1.214 1_565 S
O24 Cd16 2.277 1_545 S
O24 C19 1.209 . S
C25 O22 1.258 . S
C25 O27 1.282 . S
O26 Cd18 2.277 . S
O26 C19 1.226 . S
O27 Cd18 2.356 . S
O27 C25 1.282 . S
C28 O29 1.306 . S
C28 O31 1.160 . S
O29 C28 1.306 . S
O29 Cd30 2.228 . S
Cd30 O29 2.228 . S
Cd30 O34 2.273 . S
Cd30 O38 2.277 . S
O31 C28 1.160 . S
O31 Cd32 2.203 . S
Cd32 O31 2.203 . S
Cd32 O34 2.411 . S
Cd32 O35 2.333 . S
Cd32 O36 2.352 . S
Cd32 O40 2.277 . S
Cd32 O41 2.356 . S
C33 O38 1.209 . S
C33 O40 1.226 . S
O34 Cd30 2.273 . S
O34 Cd32 2.411 . S
O34 C37 1.320 . S
O35 Cd32 2.333 . S
O35 C37 1.214 . S
O36 Cd32 2.352 . S
O36 C39 1.258 . S
C37 O34 1.320 . S
C37 O35 1.214 . S
O38 Cd30 2.277 . S
O38 C33 1.209 . S
C39 O36 1.258 . S
C39 O41 1.282 . S
O40 Cd32 2.277 . S
O40 C33 1.226 . S
O41 Cd32 2.356 . S
O41 C39 1.282 . S
C42 O43 1.306 . S
C42 O45 1.160 . S
O43 C42 1.306 . S
O43 Cd44 2.228 . S
Cd44 O43 2.228 . S
Cd44 O48 2.273 . S
Cd44 O52 2.277 . S
O45 C42 1.160 . S
O45 Cd46 2.203 . S
Cd46 O45 2.203 . S
Cd46 O48 2.411 . S
Cd46 O49 2.333 . S
Cd46 O50 2.352 . S
Cd46 O54 2.277 1_545 S
Cd46 O55 2.356 1_545 S
C47 O52 1.209 . S
C47 O54 1.226 1_545 S
O48 Cd44 2.273 . S
O48 Cd46 2.411 . S
O48 C51 1.320 . S
O49 Cd46 2.333 . S
O49 C51 1.214 . S
O50 Cd46 2.352 . S
O50 C53 1.258 1_545 S
C51 O48 1.320 . S
C51 O49 1.214 . S
O52 Cd44 2.277 . S
O52 C47 1.209 . S
C53 O50 1.258 1_565 S
C53 O55 1.282 . S
O54 Cd46 2.277 1_565 S
O54 C47 1.226 1_565 S
O55 Cd46 2.356 1_565 S
O55 C53 1.282 . S
C56 O57 1.306 . S
C56 O59 1.160 . S
O57 C56 1.306 . S
O57 Cd58 2.228 1_556 S
Cd58 O57 2.228 1_554 S
Cd58 O62 2.273 . S
Cd58 O66 2.277 . S
O59 C56 1.160 . S
O59 Cd60 2.203 1_556 S
Cd60 O59 2.203 1_554 S
Cd60 O62 2.411 . S
Cd60 O63 2.333 . S
Cd60 O64 2.352 1_554 S
Cd60 O68 2.277 . S
Cd60 O69 2.356 . S
C61 O66 1.209 . S
C61 O68 1.226 . S
O62 Cd58 2.273 . S
O62 Cd60 2.411 . S
O62 C65 1.320 . S
O63 Cd60 2.333 . S
O63 C65 1.214 . S
O64 Cd60 2.352 1_556 S
O64 C67 1.258 . S
C65 O62 1.320 . S
C65 O63 1.214 . S
O66 Cd58 2.277 . S
O66 C61 1.209 . S
C67 O64 1.258 . S
C67 O69 1.282 1_556 S
O68 Cd60 2.277 . S
O68 C61 1.226 . S
O69 Cd60 2.356 . S
O69 C67 1.282 1_554 S
C70 O71 1.306 . S
C70 O73 1.160 . S
O71 C70 1.306 . S
O71 Cd72 2.228 . S
Cd72 O71 2.228 . S
Cd72 O76 2.273 . S
Cd72 O80 2.277 . S
O73 C70 1.160 . S
O73 Cd74 2.203 . S
Cd74 O73 2.203 . S
Cd74 O76 2.411 . S
Cd74 O77 2.333 . S
Cd74 O78 2.352 . S
Cd74 O82 2.277 1_545 S
Cd74 O83 2.356 1_545 S
C75 O80 1.209 . S
C75 O82 1.226 1_545 S
O76 Cd72 2.273 . S
O76 Cd74 2.411 . S
O76 C79 1.320 . S
O77 Cd74 2.333 . S
O77 C79 1.214 . S
O78 Cd74 2.352 . S
O78 C81 1.258 1_545 S
C79 O76 1.320 . S
C79 O77 1.214 . S
O80 Cd72 2.277 . S
O80 C75 1.209 . S
C81 O78 1.258 1_565 S
C81 O83 1.282 . S
O82 Cd74 2.277 1_565 S
O82 C75 1.226 1_565 S
O83 Cd74 2.356 1_565 S
O83 C81 1.282 . S
C84 O85 1.306 . S
C84 O87 1.160 . S
O85 C84 1.306 . S
O85 Cd86 2.228 . S
Cd86 O85 2.228 . S
Cd86 O90 2.273 . S
Cd86 O94 2.277 . S
O87 C84 1.160 . S
O87 Cd88 2.203 . S
Cd88 O87 2.203 . S
Cd88 O90 2.411 . S
Cd88 O91 2.333 . S
Cd88 O92 2.352 . S
Cd88 O96 2.277 . S
Cd88 O97 2.356 . S
C89 O94 1.209 . S
C89 O96 1.226 . S
O90 Cd86 2.273 . S
O90 Cd88 2.411 . S
O90 C93 1.320 . S
O91 Cd88 2.333 . S
O91 C93 1.214 . S
O92 Cd88 2.352 . S
O92 C95 1.258 . S
C93 O90 1.320 . S
C93 O91 1.214 . S
O94 Cd86 2.277 . S
O94 C89 1.209 . S
C95 O92 1.258 . S
C95 O97 1.282 . S
O96 Cd88 2.277 . S
O96 C89 1.226 . S
O97 Cd88 2.356 . S
O97 C95 1.282 . S
C98 O99 1.306 1_545 S
C98 O101 1.160 . S
O99 C98 1.306 1_565 S
O99 Cd100 2.228 . S
Cd100 O99 2.228 . S
Cd100 O104 2.273 . S
Cd100 O108 2.277 1_565 S
O101 C98 1.160 . S
O101 Cd102 2.203 . S
Cd102 O101 2.203 . S
Cd102 O104 2.411 1_545 S
Cd102 O105 2.333 . S
Cd102 O106 2.352 . S
Cd102 O110 2.277 . S
Cd102 O111 2.356 . S
C103 O108 1.209 . S
C103 O110 1.226 . S
O104 Cd100 2.273 . S
O104 Cd102 2.411 1_565 S
O104 C107 1.320 . S
O105 Cd102 2.333 . S
O105 C107 1.214 1_545 S
O106 Cd102 2.352 . S
O106 C109 1.258 . S
C107 O104 1.320 . S
C107 O105 1.214 1_565 S
O108 Cd100 2.277 1_545 S
O108 C103 1.209 . S
C109 O106 1.258 . S
C109 O111 1.282 . S
O110 Cd102 2.277 . S
O110 C103 1.226 . S
O111 Cd102 2.356 . S
O111 C109 1.282 . S
C112 O113 1.306 . S
C112 O115 1.160 . S
O113 C112 1.306 . S
O113 Cd114 2.228 . S
Cd114 O113 2.228 . S
Cd114 O118 2.273 . S
Cd114 O122 2.277 . S
O115 C112 1.160 . S
O115 Cd116 2.203 . S
Cd116 O115 2.203 . S
Cd116 O118 2.411 . S
Cd116 O119 2.333 . S
Cd116 O120 2.352 . S
Cd116 O124 2.277 . S
Cd116 O125 2.356 . S
C117 O122 1.209 . S
C117 O124 1.226 . S
O118 Cd114 2.273 . S
O118 Cd116 2.411 . S
O118 C121 1.320 . S
O119 Cd116 2.333 . S
O119 C121 1.214 . S
O120 Cd116 2.352 . S
O120 C123 1.258 . S
C121 O118 1.320 . S
C121 O119 1.214 . S
O122 Cd114 2.277 . S
O122 C117 1.209 . S
C123 O120 1.258 . S
C123 O125 1.282 . S
O124 Cd116 2.277 . S
O124 C117 1.226 . S
O125 Cd116 2.356 . S
O125 C123 1.282 . S
C126 O127 1.306 . S
C126 O129 1.160 . S
O127 C126 1.306 . S
O127 Cd128 2.228 . S
Cd128 O127 2.228 . S
Cd128 O132 2.273 . S
Cd128 O136 2.277 . S
O129 C126 1.160 . S
O129 Cd130 2.203 . S
Cd130 O129 2.203 . S
Cd130 O132 2.411 . S
Cd130 O133 2.333 . S
Cd130 O134 2.352 . S
Cd130 O138 2.277 . S
Cd130 O139 2.356 . S
C131 O136 1.209 . S
C131 O138 1.226 . S
O132 Cd128 2.273 . S
O132 Cd130 2.411 . S
O132 C135 1.320 . S
O133 Cd130 2.333 . S
O133 C135 1.214 . S
O134 Cd130 2.352 . S
O134 C137 1.258 . S
C135 O132 1.320 . S
C135 O133 1.214 . S
O136 Cd128 2.277 . S
O136 C131 1.209 . S
C137 O134 1.258 . S
C137 O139 1.282 . S
O138 Cd130 2.277 . S
O138 C131 1.226 . S
O139 Cd130 2.356 . S
O139 C137 1.282 . S
C140 O141 1.306 . S
C140 O143 1.160 . S
O141 C140 1.306 . S
O141 Cd142 2.228 . S
Cd142 O141 2.228 . S
Cd142 O146 2.273 . S
Cd142 O150 2.277 1_554 S
O143 C140 1.160 . S
O143 Cd144 2.203 . S
Cd144 O143 2.203 . S
Cd144 O146 2.411 . S
Cd144 O147 2.333 1_554 S
Cd144 O148 2.352 . S
Cd144 O152 2.277 1_554 S
Cd144 O153 2.356 . S
C145 O150 1.209 . S
C145 O152 1.226 . S
O146 Cd142 2.273 . S
O146 Cd144 2.411 . S
O146 C149 1.320 1_554 S
O147 Cd144 2.333 1_556 S
O147 C149 1.214 . S
O148 Cd144 2.352 . S
O148 C151 1.258 . S
C149 O146 1.320 1_556 S
C149 O147 1.214 . S
O150 Cd142 2.277 1_556 S
O150 C145 1.209 . S
C151 O148 1.258 . S
C151 O153 1.282 . S
O152 Cd144 2.277 1_556 S
O152 C145 1.226 . S
O153 Cd144 2.356 . S
O153 C151 1.282 . S
C154 O155 1.306 . S
C154 O157 1.160 . S
O155 C154 1.306 . S
O155 Cd156 2.228 . S
Cd156 O155 2.228 . S
Cd156 O160 2.273 . S
Cd156 O164 2.277 . S
O157 C154 1.160 . S
O157 Cd158 2.203 . S
Cd158 O157 2.203 . S
Cd158 O160 2.411 . S
Cd158 O161 2.333 . S
Cd158 O162 2.352 . S
Cd158 O166 2.277 . S
Cd158 O167 2.356 . S
C159 O164 1.209 . S
C159 O166 1.226 . S
O160 Cd156 2.273 . S
O160 Cd158 2.411 . S
O160 C163 1.320 . S
O161 Cd158 2.333 . S
O161 C163 1.214 . S
O162 Cd158 2.352 . S
O162 C165 1.258 . S
C163 O160 1.320 . S
C163 O161 1.214 . S
O164 Cd156 2.277 . S
O164 C159 1.209 . S
C165 O162 1.258 . S
C165 O167 1.282 . S
O166 Cd158 2.277 . S
O166 C159 1.226 . S
O167 Cd158 2.356 . S
O167 C165 1.282 . S
C168 O169 1.306 . S
C168 O171 1.160 . S
O169 C168 1.306 . S
O169 Cd170 2.228 . S
Cd170 O169 2.228 . S
Cd170 O174 2.273 . S
Cd170 O178 2.277 . S
O171 C168 1.160 . S
O171 Cd172 2.203 . S
Cd172 O171 2.203 . S
Cd172 O174 2.411 . S
Cd172 O175 2.333 . S
Cd172 O176 2.352 . S
Cd172 O180 2.277 . S
Cd172 O181 2.356 . S
C173 O178 1.209 . S
C173 O180 1.226 . S
O174 Cd170 2.273 . S
O174 Cd172 2.411 . S
O174 C177 1.320 . S
O175 Cd172 2.333 . S
O175 C177 1.214 . S
O176 Cd172 2.352 . S
O176 C179 1.258 . S
C177 O174 1.320 . S
C177 O175 1.214 . S
O178 Cd170 2.277 . S
O178 C173 1.209 . S
C179 O176 1.258 . S
C179 O181 1.282 . S
O180 Cd172 2.277 . S
O180 C173 1.226 . S
O181 Cd172 2.356 . S
O181 C179 1.282 . S
C182 O183 1.306 . S
C182 O185 1.160 . S
O183 C182 1.306 . S
O183 Cd184 2.228 . S
Cd184 O183 2.228 . S
Cd184 O188 2.273 . S
Cd184 O192 2.277 . S
O185 C182 1.160 . S
O185 Cd186 2.203 . S
Cd186 O185 2.203 . S
Cd186 O188 2.411 . S
Cd186 O189 2.333 . S
Cd186 O190 2.352 . S
Cd186 O194 2.277 . S
Cd186 O195 2.356 . S
C187 O192 1.209 . S
C187 O194 1.226 . S
O188 Cd184 2.273 . S
O188 Cd186 2.411 . S
O188 C191 1.320 . S
O189 Cd186 2.333 . S
O189 C191 1.214 . S
O190 Cd186 2.352 . S
O190 C193 1.258 . S
C191 O188 1.320 . S
C191 O189 1.214 . S
O192 Cd184 2.277 . S
O192 C187 1.209 . S
C193 O190 1.258 . S
C193 O195 1.282 . S
O194 Cd186 2.277 . S
O194 C187 1.226 . S
O195 Cd186 2.356 . S
O195 C193 1.282 . S
C196 O197 1.306 . S
C196 O199 1.160 . S
O197 C196 1.306 . S
O197 Cd198 2.228 1_556 S
Cd198 O197 2.228 1_554 S
Cd198 O202 2.273 . S
Cd198 O206 2.277 . S
O199 C196 1.160 . S
O199 Cd200 2.203 1_556 S
Cd200 O199 2.203 1_554 S
Cd200 O202 2.411 . S
Cd200 O203 2.333 . S
Cd200 O204 2.352 1_554 S
Cd200 O208 2.277 . S
Cd200 O209 2.356 . S
C201 O206 1.209 . S
C201 O208 1.226 . S
O202 Cd198 2.273 . S
O202 Cd200 2.411 . S
O202 C205 1.320 . S
O203 Cd200 2.333 . S
O203 C205 1.214 . S
O204 Cd200 2.352 1_556 S
O204 C207 1.258 . S
C205 O202 1.320 . S
C205 O203 1.214 . S
O206 Cd198 2.277 . S
O206 C201 1.209 . S
C207 O204 1.258 . S
C207 O209 1.282 1_556 S
O208 Cd200 2.277 . S
O208 C201 1.226 . S
O209 Cd200 2.356 . S
O209 C207 1.282 1_554 S
C210 O211 1.306 . S
C210 O213 1.160 . S
O211 C210 1.306 . S
O211 Cd212 2.228 . S
Cd212 O211 2.228 . S
Cd212 O216 2.273 . S
Cd212 O220 2.277 . S
O213 C210 1.160 . S
O213 Cd214 2.203 . S
Cd214 O213 2.203 . S
Cd214 O216 2.411 . S
Cd214 O217 2.333 . S
Cd214 O218 2.352 . S
Cd214 O222 2.277 . S
Cd214 O223 2.356 . S
C215 O220 1.209 . S
C215 O222 1.226 . S
O216 Cd212 2.273 . S
O216 Cd214 2.411 . S
O216 C219 1.320 . S
O217 Cd214 2.333 . S
O217 C219 1.214 . S
O218 Cd214 2.352 . S
O218 C221 1.258 . S
C219 O216 1.320 . S
C219 O217 1.214 . S
O220 Cd212 2.277 . S
O220 C215 1.209 . S
C221 O218 1.258 . S
C221 O223 1.282 . S
O222 Cd214 2.277 . S
O222 C215 1.226 . S
O223 Cd214 2.356 . S
O223 C221 1.282 . S
C224 C225 1.170 . S
C224 C226 1.380 . S
C225 C224 1.170 . S
C226 C224 1.380 . S
C226 C227 1.170 . S
C227 C226 1.170 . S
C228 C229 1.170 . S
C228 C230 1.380 1_655 S
C229 C228 1.170 . S
C230 C228 1.380 1_455 S
C230 C231 1.170 . S
C231 C230 1.170 . S
C232 C233 1.170 . S
C232 C234 1.380 . S
C233 C232 1.170 . S
C234 C232 1.380 . S
C234 C235 1.170 . S
C235 C234 1.170 . S
C236 C237 1.170 . S
C236 C238 1.380 1_554 S
C237 C236 1.170 . S
C238 C236 1.380 1_556 S
C238 C239 1.170 . S
C239 C238 1.170 . S
C240 C241 1.170 . S
C240 C242 1.380 . S
C241 C240 1.170 . S
C242 C240 1.380 . S
C242 C243 1.170 . S
C243 C242 1.170 . S
C244 C245 1.170 . S
C244 C246 1.380 . S
C245 C244 1.170 . S
C246 C244 1.380 . S
C246 C247 1.170 . S
C247 C246 1.170 . S
C248 C249 1.170 . S
C248 C250 1.380 . S
C249 C248 1.170 . S
C250 C248 1.380 . S
C250 C251 1.170 . S
C251 C250 1.170 . S
C252 C253 1.170 . S
C252 C254 1.380 1_456 S
C253 C252 1.170 . S
C254 C252 1.380 1_654 S
C254 C255 1.170 . S
C255 C254 1.170 . S
C256 C257 1.170 . S
C256 C258 1.380 . S
C257 C256 1.170 . S
C258 C256 1.380 . S
C258 C259 1.170 . S
C259 C258 1.170 . S
C260 C261 1.170 . S
C260 C262 1.380 . S
C261 C260 1.170 . S
C262 C260 1.380 . S
C262 C263 1.170 . S
C263 C262 1.170 . S
C264 C265 1.170 . S
C264 C266 1.380 . S
C265 C264 1.170 . S
C266 C264 1.380 . S
C266 C267 1.170 . S
C267 C266 1.170 . S
C268 C269 1.170 . S
C268 C270 1.380 . S
C269 C268 1.170 . S
C270 C268 1.380 . S
C270 C271 1.170 . S
C271 C270 1.170 . S
C272 C273 1.170 . S
C272 C274 1.380 1_554 S
C273 C272 1.170 . S
C274 C272 1.380 1_556 S
C274 C275 1.170 . S
C275 C274 1.170 . S
C276 C277 1.170 . S
C276 C278 1.380 1_455 S
C277 C276 1.170 . S
C278 C276 1.380 1_655 S
C278 C279 1.170 . S
C279 C278 1.170 . S
C280 C281 1.170 . S
C280 C282 1.380 1_454 S
C281 C280 1.170 . S
C282 C280 1.380 1_656 S
C282 C283 1.170 . S
C283 C282 1.170 . S
C284 C285 1.170 . S
C284 C286 1.380 . S
C285 C284 1.170 . S
C286 C284 1.380 . S
C286 C287 1.170 . S
C287 C286 1.170 . S
C288 C289 1.170 . S
C288 C290 1.380 . S
C289 C288 1.170 . S
C290 C288 1.380 . S
C290 C291 1.170 . S
C291 C290 1.170 . S
C292 C293 1.170 . S
C292 C294 1.380 . S
C293 C292 1.170 . S
C294 C292 1.380 . S
C294 C295 1.170 . S
C295 C294 1.170 . S
C296 C297 1.170 . S
C296 C298 1.380 . S
C297 C296 1.170 . S
C298 C296 1.380 . S
C298 C299 1.170 . S
C299 C298 1.170 . S
C300 C301 1.170 . S
C300 C302 1.380 . S
C301 C300 1.170 . S
C302 C300 1.380 . S
C302 C303 1.170 . S
C303 C302 1.170 . S
C304 C305 1.170 . S
C304 C306 1.380 . S
C305 C304 1.170 . S
C306 C304 1.380 . S
C306 C307 1.170 . S
C307 C306 1.170 . S
C308 C309 1.170 . S
C308 C310 1.380 . S
C309 C308 1.170 . S
C310 C308 1.380 . S
C310 C311 1.170 . S
C311 C310 1.170 . S
C312 C313 1.170 . S
C312 C314 1.380 . S
C313 C312 1.170 . S
C314 C312 1.380 . S
C314 C315 1.170 . S
C315 C314 1.170 . S
C316 C317 1.170 . S
C316 C318 1.380 . S
C317 C316 1.170 . S
C318 C316 1.380 . S
C318 C319 1.170 . S
C319 C318 1.170 . S
C320 C321 1.170 . S
C320 C322 1.380 . S
C321 C320 1.170 . S
C322 C320 1.380 . S
C322 C323 1.170 . S
C323 C322 1.170 . S
C324 C325 1.170 . S
C324 C326 1.380 . S
C325 C324 1.170 . S
C326 C324 1.380 . S
C326 C327 1.170 . S
C327 C326 1.170 . S
C328 C329 1.170 . S
C328 C330 1.380 . S
C329 C328 1.170 . S
C330 C328 1.380 . S
C330 C331 1.170 . S
C331 C330 1.170 . S
C332 C333 1.170 . S
C332 C334 1.380 . S
C333 C332 1.170 . S
C334 C332 1.380 . S
C334 C335 1.170 . S
C335 C334 1.170 . S
C336 C337 1.170 . S
C336 C338 1.380 . S
C337 C336 1.170 . S
C338 C336 1.380 . S
C338 C339 1.170 . S
C339 C338 1.170 . S
C340 C341 1.170 . S
C340 C342 1.380 . S
C341 C340 1.170 . S
C342 C340 1.380 . S
C342 C343 1.170 . S
C343 C342 1.170 . S
C344 C345 1.170 . S
C344 C346 1.380 . S
C345 C344 1.170 . S
C346 C344 1.380 . S
C346 C347 1.170 . S
C347 C346 1.170 . S
C348 C349 1.170 . S
C348 C350 1.380 . S
C349 C348 1.170 . S
C350 C348 1.380 . S
C350 C351 1.170 . S
C351 C350 1.170 . S
C225 C0 1.447 . S
C227 C168 1.448 . S
C229 C19 1.417 . S
C231 C75 1.414 . S
C233 C28 1.449 . S
C235 C196 1.445 . S
C237 C103 1.417 . S
C239 C47 1.414 . S
C241 C201 1.420 . S
C243 C33 1.408 . S
C245 C98 1.445 . S
C247 C42 1.449 . S
C249 C173 1.411 . S
C251 C5 1.419 . S
C253 C70 1.445 . S
C255 C14 1.449 . S
C257 C56 1.440 . S
C259 C112 1.449 . S
C261 C84 1.440 . S
C263 C140 1.448 . S
C265 C145 1.412 . S
C267 C89 1.418 . S
C269 C61 1.408 . S
C271 C117 1.419 . S
C273 C187 1.418 . S
C275 C131 1.413 . S
C277 C159 1.419 . S
C279 C215 1.412 . S
C281 C154 1.440 . S
C283 C210 1.448 . S
C285 C126 1.441 . S
C287 C182 1.451 . S
C289 C165 1.488 . S
C291 C11 1.485 . S
C293 C121 1.476 . S
C295 C23 1.488 . S
C297 C39 1.486 . S
C299 C137 1.484 . S
C301 C149 1.488 . S
C303 C51 1.479 . S
C305 C163 1.481 . S
C307 C37 1.471 . S
C309 C53 1.486 . S
C311 C123 1.488 . S
C313 C135 1.488 . S
C315 C9 1.481 . S
C317 C151 1.484 . S
C319 C25 1.484 . S
C321 C67 1.484 . S
C323 C221 1.487 . S
C325 C177 1.479 . S
C327 C79 1.475 . S
C329 C95 1.487 . S
C331 C193 1.485 . S
C333 C107 1.484 . S
C335 C205 1.487 . S
C337 C93 1.485 . S
C339 C219 1.487 . S
C341 C179 1.484 . S
C343 C109 1.487 . S
C345 C191 1.488 . S
C347 C65 1.485 . S
C349 C207 1.485 . S
C351 C81 1.487 . S
