# Generated by pormake.
# Topology snl, (6)-cn, num edge types: 1
# Building blocks:
#     Node 0, Type 0, BuildingBlock: BETGAK_clean_sbu_0, # of connection points: 6
#     Node 1, Type 0, BuildingBlock: BETGAK_clean_sbu_0, # of connection points: 6
#     Node 2, Type 0, BuildingBlock: BETGAK_clean_sbu_0, # of connection points: 6
#     Node 3, Type 0, BuildingBlock: BETGAK_clean_sbu_0, # of connection points: 6
#     Node 4, Type 0, BuildingBlock: BETGAK_clean_sbu_0, # of connection points: 6
#     Node 5, Type 0, BuildingBlock: BETGAK_clean_sbu_0, # of connection points: 6
#     Node 6, Type 0, BuildingBlock: BETGAK_clean_sbu_0, # of connection points: 6
#     Node 7, Type 0, BuildingBlock: BETGAK_clean_sbu_0, # of connection points: 6
#     Node 8, Type 0, BuildingBlock: BETGAK_clean_sbu_0, # of connection points: 6
#     Node 9, Type 0, BuildingBlock: BETGAK_clean_sbu_0, # of connection points: 6
#     Node 10, Type 0, BuildingBlock: BETGAK_clean_sbu_0, # of connection points: 6
#     Node 11, Type 0, BuildingBlock: BETGAK_clean_sbu_0, # of connection points: 6
#     Node 12, Type 0, BuildingBlock: BETGAK_clean_sbu_0, # of connection points: 6
#     Node 13, Type 0, BuildingBlock: BETGAK_clean_sbu_0, # of connection points: 6
#     Node 14, Type 0, BuildingBlock: BETGAK_clean_sbu_0, # of connection points: 6
#     Node 15, Type 0, BuildingBlock: BETGAK_clean_sbu_0, # of connection points: 6
#     Edge 16, Type (0, 0), BuildingBlock: XIVTED_clean_linker_0, # of connection points: 2
#     Edge 17, Type (0, 0), BuildingBlock: XIVTED_clean_linker_0, # of connection points: 2
#     Edge 18, Type (0, 0), BuildingBlock: XIVTED_clean_linker_0, # of connection points: 2
#     Edge 19, Type (0, 0), BuildingBlock: XIVTED_clean_linker_0, # of connection points: 2
#     Edge 20, Type (0, 0), BuildingBlock: XIVTED_clean_linker_0, # of connection points: 2
#     Edge 21, Type (0, 0), BuildingBlock: XIVTED_clean_linker_0, # of connection points: 2
#     Edge 22, Type (0, 0), BuildingBlock: XIVTED_clean_linker_0, # of connection points: 2
#     Edge 23, Type (0, 0), BuildingBlock: XIVTED_clean_linker_0, # of connection points: 2
#     Edge 24, Type (0, 0), BuildingBlock: XIVTED_clean_linker_0, # of connection points: 2
#     Edge 25, Type (0, 0), BuildingBlock: XIVTED_clean_linker_0, # of connection points: 2
#     Edge 26, Type (0, 0), BuildingBlock: XIVTED_clean_linker_0, # of connection points: 2
#     Edge 27, Type (0, 0), BuildingBlock: XIVTED_clean_linker_0, # of connection points: 2
#     Edge 28, Type (0, 0), BuildingBlock: XIVTED_clean_linker_0, # of connection points: 2
#     Edge 29, Type (0, 0), BuildingBlock: XIVTED_clean_linker_0, # of connection points: 2
#     Edge 30, Type (0, 0), BuildingBlock: XIVTED_clean_linker_0, # of connection points: 2
#     Edge 31, Type (0, 0), BuildingBlock: XIVTED_clean_linker_0, # of connection points: 2
#     Edge 32, Type (0, 0), BuildingBlock: XIVTED_clean_linker_0, # of connection points: 2
#     Edge 33, Type (0, 0), BuildingBlock: XIVTED_clean_linker_0, # of connection points: 2
#     Edge 34, Type (0, 0), BuildingBlock: XIVTED_clean_linker_0, # of connection points: 2
#     Edge 35, Type (0, 0), BuildingBlock: XIVTED_clean_linker_0, # of connection points: 2
#     Edge 36, Type (0, 0), BuildingBlock: XIVTED_clean_linker_0, # of connection points: 2
#     Edge 37, Type (0, 0), BuildingBlock: XIVTED_clean_linker_0, # of connection points: 2
#     Edge 38, Type (0, 0), BuildingBlock: XIVTED_clean_linker_0, # of connection points: 2
#     Edge 39, Type (0, 0), BuildingBlock: XIVTED_clean_linker_0, # of connection points: 2
#     Edge 40, Type (0, 0), BuildingBlock: XIVTED_clean_linker_0, # of connection points: 2
#     Edge 41, Type (0, 0), BuildingBlock: XIVTED_clean_linker_0, # of connection points: 2
#     Edge 42, Type (0, 0), BuildingBlock: XIVTED_clean_linker_0, # of connection points: 2
#     Edge 43, Type (0, 0), BuildingBlock: XIVTED_clean_linker_0, # of connection points: 2
#     Edge 44, Type (0, 0), BuildingBlock: XIVTED_clean_linker_0, # of connection points: 2
#     Edge 45, Type (0, 0), BuildingBlock: XIVTED_clean_linker_0, # of connection points: 2
#     Edge 46, Type (0, 0), BuildingBlock: XIVTED_clean_linker_0, # of connection points: 2
#     Edge 47, Type (0, 0), BuildingBlock: XIVTED_clean_linker_0, # of connection points: 2
#     Edge 48, Type (0, 0), BuildingBlock: XIVTED_clean_linker_0, # of connection points: 2
#     Edge 49, Type (0, 0), BuildingBlock: XIVTED_clean_linker_0, # of connection points: 2
#     Edge 50, Type (0, 0), BuildingBlock: XIVTED_clean_linker_0, # of connection points: 2
#     Edge 51, Type (0, 0), BuildingBlock: XIVTED_clean_linker_0, # of connection points: 2
#     Edge 52, Type (0, 0), BuildingBlock: XIVTED_clean_linker_0, # of connection points: 2
#     Edge 53, Type (0, 0), BuildingBlock: XIVTED_clean_linker_0, # of connection points: 2
#     Edge 54, Type (0, 0), BuildingBlock: XIVTED_clean_linker_0, # of connection points: 2
#     Edge 55, Type (0, 0), BuildingBlock: XIVTED_clean_linker_0, # of connection points: 2
#     Edge 56, Type (0, 0), BuildingBlock: XIVTED_clean_linker_0, # of connection points: 2
#     Edge 57, Type (0, 0), BuildingBlock: XIVTED_clean_linker_0, # of connection points: 2
#     Edge 58, Type (0, 0), BuildingBlock: XIVTED_clean_linker_0, # of connection points: 2
#     Edge 59, Type (0, 0), BuildingBlock: XIVTED_clean_linker_0, # of connection points: 2
#     Edge 60, Type (0, 0), BuildingBlock: XIVTED_clean_linker_0, # of connection points: 2
#     Edge 61, Type (0, 0), BuildingBlock: XIVTED_clean_linker_0, # of connection points: 2
#     Edge 62, Type (0, 0), BuildingBlock: XIVTED_clean_linker_0, # of connection points: 2
#     Edge 63, Type (0, 0), BuildingBlock: XIVTED_clean_linker_0, # of connection points: 2
# Relax obj value: 0.193
# Max RMSD: 0.263
# Mean RMSD: 0.226
data_MOF--net-snl--node1-BETGAK_clean_sbu_0--edge1-XIVTED_clean_linker_0
_symmetry_space_group_name_H-M    P1
_symmetry_Int_Tables_number       1
_symmetry_cell_setting            triclinic
loop_
_symmetry_equiv_pos_as_xyz
'x, y, z'
_cell_length_a     57.120805
_cell_length_b     57.38065
_cell_length_c     25.937211
_cell_angle_alpha  97.09555
_cell_angle_beta   94.270634
_cell_angle_gamma 89.836767
loop_
_atom_site_label
_atom_site_type_symbol
_atom_site_fract_x
_atom_site_fract_y
_atom_site_fract_z
_atom_type_partial_charge
La0 La 0.15312 0.63816 0.09185 0.0
La1 La 0.13234 0.63784 0.18964 0.0
C2 C 0.16479 0.62935 0.99895 0.0
C3 C 0.15732 0.63207 0.94386 0.0
C4 C 0.16289 0.65258 0.92254 0.0
C5 C 0.15886 0.65381 0.869 0.0
C6 C 0.14931 0.63453 0.83523 0.0
C7 C 0.14315 0.61427 0.85685 0.0
C8 C 0.14718 0.61303 0.9104 0.0
C9 C 0.15051 0.68113 0.14368 0.0
C10 C 0.0969 0.64321 0.09782 0.0
C11 C 0.11986 0.64334 0.2822 0.0
C12 C 0.12772 0.64057 0.33708 0.0
C13 C 0.12127 0.62047 0.35882 0.0
C14 C 0.1256 0.61913 0.41224 0.0
C15 C 0.13632 0.63796 0.44549 0.0
C16 C 0.14335 0.65781 0.42348 0.0
C17 C 0.13906 0.65912 0.37001 0.0
C18 C 0.13488 0.59574 0.13245 0.0
C19 C 0.18777 0.63697 0.19079 0.0
O20 O 0.17115 0.64819 0.03032 0.0
O21 O 0.15295 0.61482 1.02233 0.0
O22 O 0.16774 0.67318 0.11718 0.0
O23 O 0.13498 0.66512 0.13959 0.0
O24 O 0.11433 0.63626 0.06814 0.0
O25 O 0.10124 0.64918 0.14813 0.0
O26 O 0.11582 0.62432 0.24953 0.0
O27 O 0.12975 0.65974 0.26032 0.0
O28 O 0.11713 0.60328 0.15772 0.0
O29 O 0.15062 0.61141 0.14059 0.0
O30 O 0.16929 0.64297 0.21683 0.0
O31 O 0.18519 0.63034 0.13983 0.0
H32 H 0.1711 0.66746 0.94689 0.0
H33 H 0.16413 0.6696 0.85385 0.0
H34 H 0.13545 0.59919 0.83228 0.0
H35 H 0.14297 0.59686 0.92536 0.0
H36 H 0.11211 0.60603 0.33486 0.0
H37 H 0.11966 0.60369 0.42777 0.0
H38 H 0.15193 0.67252 0.44772 0.0
H39 H 0.14403 0.675 0.3548 0.0
La40 La 0.65086 0.89449 0.46014 0.0
La41 La 0.62747 0.89557 0.35696 0.0
C42 C 0.6641 0.9019 0.55664 0.0
C43 C 0.65631 0.90043 0.60984 0.0
C44 C 0.65622 0.87894 0.6308 0.0
C45 C 0.65187 0.87818 0.68314 0.0
C46 C 0.6476 0.89889 0.71625 0.0
C47 C 0.64716 0.92031 0.69483 0.0
C48 C 0.65152 0.92107 0.64249 0.0
C49 C 0.64815 0.85222 0.4044 0.0
C50 C 0.59446 0.88918 0.44189 0.0
C51 C 0.6138 0.88989 0.26066 0.0
C52 C 0.62151 0.89194 0.20761 0.0
C53 C 0.62071 0.91353 0.18696 0.0
C54 C 0.62502 0.91468 0.13471 0.0
C55 C 0.63009 0.89427 0.10142 0.0
C56 C 0.63144 0.87279 0.12255 0.0
C57 C 0.62715 0.87165 0.17475 0.0
C58 C 0.63041 0.93707 0.41721 0.0
C59 C 0.68321 0.89845 0.36873 0.0
O60 O 0.66741 0.8823 0.5268 0.0
O61 O 0.65468 0.91788 0.52991 0.0
O62 O 0.66597 0.86049 0.43476 0.0
O63 O 0.63215 0.86768 0.40616 0.0
O64 O 0.61271 0.8959 0.47531 0.0
O65 O 0.59722 0.884 0.39191 0.0
O66 O 0.61078 0.90916 0.29196 0.0
O67 O 0.6231 0.87333 0.28584 0.0
O68 O 0.61234 0.92961 0.38658 0.0
O69 O 0.64628 0.92177 0.41213 0.0
O70 O 0.66405 0.89315 0.33804 0.0
O71 O 0.68207 0.90283 0.42001 0.0
H72 H 0.6602 0.86269 0.60724 0.0
H73 H 0.6527 0.86136 0.69807 0.0
H74 H 0.6436 0.93662 0.71862 0.0
H75 H 0.65172 0.93796 0.62789 0.0
H76 H 0.61606 0.9295 0.2107 0.0
H77 H 0.62353 0.93151 0.11995 0.0
H78 H 0.63564 0.85673 0.0986 0.0
H79 H 0.62766 0.85468 0.18904 0.0
La80 La 0.37879 0.40499 0.70533 0.0
La81 La 0.37018 0.38259 0.59037 0.0
C82 C 0.36881 0.41913 0.79716 0.0
C83 C 0.3729 0.41509 0.85251 0.0
C84 C 0.39465 0.41948 0.88123 0.0
C85 C 0.39699 0.41735 0.9348 0.0
C86 C 0.37757 0.41101 0.9607 0.0
C87 C 0.35605 0.40613 0.9314 0.0
C88 C 0.35375 0.40821 0.87818 0.0
C89 C 0.41997 0.39546 0.66564 0.0
C90 C 0.38178 0.34882 0.67334 0.0
C91 C 0.36797 0.37015 0.49319 0.0
C92 C 0.37073 0.37897 0.44252 0.0
C93 C 0.35112 0.37868 0.40645 0.0
C94 C 0.35324 0.38491 0.35659 0.0
C95 C 0.37512 0.39151 0.34116 0.0
C96 C 0.39479 0.39204 0.37747 0.0
C97 C 0.39263 0.38586 0.42767 0.0
C98 C 0.33344 0.38585 0.64928 0.0
C99 C 0.37586 0.43816 0.61467 0.0
O100 O 0.38558 0.42845 0.77416 0.0
O101 O 0.35725 0.4026 0.76623 0.0
O102 O 0.41743 0.40382 0.71371 0.0
O103 O 0.39957 0.39229 0.64339 0.0
O104 O 0.37748 0.36645 0.71005 0.0
O105 O 0.38301 0.35196 0.62401 0.0
O106 O 0.35009 0.37815 0.5187 0.0
O107 O 0.38677 0.36776 0.52434 0.0
O108 O 0.33734 0.36835 0.61437 0.0
O109 O 0.34959 0.40083 0.64906 0.0
O110 O 0.37647 0.41907 0.58059 0.0
O111 O 0.37456 0.43702 0.66549 0.0
H112 H 0.40972 0.42498 0.86264 0.0
H113 H 0.41378 0.42135 0.95622 0.0
H114 H 0.34084 0.40078 0.94967 0.0
H115 H 0.33674 0.40483 0.85715 0.0
H116 H 0.33411 0.37309 0.41647 0.0
H117 H 0.33778 0.38386 0.32956 0.0
H118 H 0.41187 0.39723 0.36709 0.0
H119 H 0.40814 0.38616 0.45445 0.0
La120 La 0.87835 0.12259 0.8799 0.0
La121 La 0.87649 0.14505 0.99571 0.0
C122 C 0.86458 0.10811 0.78672 0.0
C123 C 0.86889 0.111 0.73237 0.0
C124 C 0.8907 0.11835 0.71825 0.0
C125 C 0.89404 0.12058 0.66592 0.0
C126 C 0.87563 0.11545 0.62679 0.0
C127 C 0.85379 0.10836 0.64159 0.0
C128 C 0.85049 0.10618 0.69368 0.0
C129 C 0.92154 0.1331 0.92213 0.0
C130 C 0.88217 0.17901 0.91249 0.0
C131 C 0.88041 0.15737 0.09304 0.0
C132 C 0.88321 0.14801 0.14416 0.0
C133 C 0.86455 0.13653 0.16333 0.0
C134 C 0.86606 0.13101 0.2146 0.0
C135 C 0.88626 0.13681 0.24825 0.0
C136 C 0.90524 0.14754 0.22837 0.0
C137 C 0.90369 0.15313 0.17708 0.0
C138 C 0.83652 0.14153 0.93495 0.0
C139 C 0.87932 0.08907 0.97045 0.0
O140 O 0.88083 0.09767 0.814 0.0
O141 O 0.85549 0.12616 0.81415 0.0
O142 O 0.9166 0.12459 0.87389 0.0
O143 O 0.90231 0.13551 0.94289 0.0
O144 O 0.87561 0.16125 0.87584 0.0
O145 O 0.88701 0.17581 0.96186 0.0
O146 O 0.86038 0.15332 0.06543 0.0
O147 O 0.89827 0.15608 0.06379 0.0
O148 O 0.84201 0.15895 0.97055 0.0
O149 O 0.85284 0.12674 0.93569 0.0
O150 O 0.88187 0.10803 1.00525 0.0
O151 O 0.87535 0.09053 0.91951 0.0
H152 H 0.90514 0.12226 0.74755 0.0
H153 H 0.91113 0.12593 0.656 0.0
H154 H 0.83906 0.10472 0.61294 0.0
H155 H 0.83346 0.10068 0.70379 0.0
H156 H 0.84837 0.13253 0.13941 0.0
H157 H 0.85093 0.12306 0.22842 0.0
H158 H 0.92124 0.15194 0.25267 0.0
H159 H 0.91829 0.16214 0.16368 0.0
La160 La 0.15461 0.39598 0.94602 0.0
La161 La 0.13193 0.39684 0.84249 0.0
C162 C 0.16764 0.40411 0.04247 0.0
C163 C 0.16013 0.40227 0.0957 0.0
C164 C 0.16138 0.38087 0.11708 0.0
C165 C 0.15736 0.38 0.16955 0.0
C166 C 0.15211 0.40052 0.20228 0.0
C167 C 0.15026 0.4218 0.18039 0.0
C168 C 0.15429 0.42266 0.12795 0.0
C169 C 0.15017 0.35329 0.89221 0.0
C170 C 0.09785 0.39196 0.92676 0.0
C171 C 0.11833 0.39175 0.74616 0.0
C172 C 0.12633 0.39309 0.6931 0.0
C173 C 0.1249 0.41426 0.67082 0.0
C174 C 0.12933 0.41485 0.6185 0.0
C175 C 0.13514 0.39425 0.58672 0.0
C176 C 0.13713 0.37319 0.60943 0.0
C177 C 0.13272 0.3726 0.66177 0.0
C178 C 0.13558 0.43857 0.90157 0.0
C179 C 0.18776 0.39698 0.85508 0.0
O180 O 0.17201 0.38473 1.01284 0.0
O181 O 0.15719 0.4195 1.01559 0.0
O182 O 0.16817 0.36095 0.92271 0.0
O183 O 0.13503 0.36952 0.89318 0.0
O184 O 0.11621 0.39815 0.96051 0.0
O185 O 0.10085 0.38659 0.87687 0.0
O186 O 0.11676 0.41132 0.77726 0.0
O187 O 0.12619 0.37464 0.77152 0.0
O188 O 0.11741 0.4312 0.87126 0.0
O189 O 0.1512 0.42297 0.89709 0.0
O190 O 0.16857 0.39139 0.82458 0.0
O191 O 0.18629 0.40324 0.90581 0.0
H192 H 0.16618 0.36484 0.09376 0.0
H193 H 0.15924 0.36333 0.18489 0.0
H194 H 0.14591 0.43792 0.20392 0.0
H195 H 0.15344 0.43948 0.113 0.0
H196 H 0.11962 0.43032 0.69333 0.0
H197 H 0.1273 0.43135 0.60248 0.0
H198 H 0.14188 0.35701 0.58659 0.0
H199 H 0.13371 0.35592 0.6773 0.0
La200 La 0.8673 0.89328 0.09004 0.0
La201 La 0.88975 0.90359 0.20284 0.0
C202 C 0.85349 0.90121 0.99909 0.0
C203 C 0.85797 0.89476 0.9436 0.0
C204 C 0.83894 0.89265 0.90581 0.0
C205 C 0.84269 0.8901 0.85262 0.0
C206 C 0.8656 0.88976 0.83599 0.0
C207 C 0.88466 0.89091 0.874 0.0
C208 C 0.8809 0.89335 0.92719 0.0
C209 C 0.87569 0.85271 0.1282 0.0
C210 C 0.92328 0.88938 0.11546 0.0
C211 C 0.90217 0.90762 0.29914 0.0
C212 C 0.89428 0.90411 0.35096 0.0
C213 C 0.892 0.92381 0.3881 0.0
C214 C 0.88748 0.9212 0.43933 0.0
C215 C 0.88522 0.89875 0.45502 0.0
C216 C 0.8867 0.87898 0.41738 0.0
C217 C 0.89128 0.88162 0.36594 0.0
C218 C 0.8874 0.93929 0.14515 0.0
C219 C 0.83438 0.89816 0.18486 0.0
O220 O 0.84366 0.88551 0.02343 0.0
O221 O 0.87007 0.91316 0.02853 0.0
O222 O 0.86655 0.85452 0.08159 0.0
O223 O 0.8798 0.87336 0.15023 0.0
O224 O 0.90578 0.89307 0.08041 0.0
O225 O 0.92011 0.88962 0.16545 0.0
O226 O 0.89199 0.92433 0.27567 0.0
O227 O 0.90656 0.88909 0.26638 0.0
O228 O 0.90462 0.93559 0.17852 0.0
O229 O 0.87203 0.92359 0.14636 0.0
O230 O 0.85349 0.89682 0.21627 0.0
O231 O 0.83548 0.8994 0.13403 0.0
H232 H 0.82111 0.89389 0.91748 0.0
H233 H 0.82759 0.88947 0.82462 0.0
H234 H 0.90254 0.89033 0.86265 0.0
H235 H 0.89594 0.89489 0.95544 0.0
H236 H 0.89436 0.94136 0.37787 0.0
H237 H 0.88603 0.93683 0.4669 0.0
H238 H 0.88521 0.86143 0.42812 0.0
H239 H 0.89311 0.86603 0.33842 0.0
La240 La 0.37972 0.62596 0.37007 0.0
La241 La 0.37859 0.64952 0.48556 0.0
C242 C 0.36545 0.61162 0.27713 0.0
C243 C 0.36892 0.61548 0.22276 0.0
C244 C 0.39129 0.61725 0.20428 0.0
C245 C 0.39361 0.62067 0.15214 0.0
C246 C 0.37361 0.62254 0.11759 0.0
C247 C 0.35131 0.62074 0.13655 0.0
C248 C 0.34903 0.61726 0.18837 0.0
C249 C 0.42315 0.63662 0.41102 0.0
C250 C 0.38432 0.6821 0.40025 0.0
C251 C 0.38583 0.6623 0.58233 0.0
C252 C 0.38475 0.6536 0.63386 0.0
C253 C 0.36315 0.64955 0.65415 0.0
C254 C 0.36237 0.64436 0.70542 0.0
C255 C 0.38313 0.64312 0.73785 0.0
C256 C 0.40474 0.64641 0.7169 0.0
C257 C 0.40552 0.65168 0.66567 0.0
C258 C 0.33814 0.64571 0.42658 0.0
C259 C 0.37779 0.59338 0.46244 0.0
O260 O 0.38227 0.60142 0.30337 0.0
O261 O 0.35588 0.62898 0.30578 0.0
O262 O 0.41797 0.62763 0.36319 0.0
O263 O 0.40399 0.63945 0.43201 0.0
O264 O 0.37688 0.66433 0.3647 0.0
O265 O 0.39008 0.67915 0.44937 0.0
O266 O 0.36596 0.66524 0.55536 0.0
O267 O 0.4022 0.65382 0.55257 0.0
O268 O 0.34362 0.66302 0.46261 0.0
O269 O 0.35458 0.631 0.42674 0.0
O270 O 0.37881 0.61253 0.49677 0.0
O271 O 0.37675 0.59433 0.41103 0.0
H272 H 0.40694 0.61603 0.23004 0.0
H273 H 0.41105 0.62219 0.13912 0.0
H274 H 0.33551 0.62169 0.11111 0.0
H275 H 0.33159 0.61586 0.20163 0.0
H276 H 0.34676 0.65095 0.63094 0.0
H277 H 0.34542 0.64158 0.71986 0.0
H278 H 0.42108 0.64584 0.74072 0.0
H279 H 0.4224 0.655 0.65144 0.0
La280 La 0.65205 0.1386 0.60063 0.0
La281 La 0.63098 0.13847 0.69837 0.0
C282 C 0.66396 0.12971 0.50791 0.0
C283 C 0.65645 0.13171 0.45251 0.0
C284 C 0.65723 0.15331 0.4322 0.0
C285 C 0.6534 0.15429 0.37848 0.0
C286 C 0.64882 0.1337 0.34364 0.0
C287 C 0.64731 0.11223 0.36429 0.0
C288 C 0.65115 0.11125 0.41795 0.0
C289 C 0.64964 0.18158 0.65275 0.0
C290 C 0.5959 0.14374 0.6059 0.0
C291 C 0.61837 0.14418 0.79085 0.0
C292 C 0.62648 0.14256 0.84614 0.0
C293 C 0.62549 0.12115 0.86716 0.0
C294 C 0.6298 0.12039 0.92084 0.0
C295 C 0.63505 0.14104 0.95501 0.0
C296 C 0.63675 0.16232 0.9337 0.0
C297 C 0.63244 0.16308 0.88004 0.0
C298 C 0.63278 0.0964 0.64088 0.0
C299 C 0.6864 0.13716 0.69972 0.0
O300 O 0.66961 0.14893 0.53871 0.0
O301 O 0.65263 0.11493 0.53166 0.0
O302 O 0.66692 0.17351 0.62652 0.0
O303 O 0.634 0.16568 0.64834 0.0
O304 O 0.61339 0.13683 0.57644 0.0
O305 O 0.59999 0.14961 0.6563 0.0
O306 O 0.61546 0.12469 0.75921 0.0
O307 O 0.62718 0.16086 0.76796 0.0
O308 O 0.61516 0.10425 0.66625 0.0
O309 O 0.64887 0.11176 0.6491 0.0
O310 O 0.66792 0.14337 0.72556 0.0
O311 O 0.68394 0.13055 0.64877 0.0
H312 H 0.66155 0.1694 0.45753 0.0
H313 H 0.65496 0.17111 0.36412 0.0
H314 H 0.64344 0.09605 0.3389 0.0
H315 H 0.65066 0.09432 0.43228 0.0
H316 H 0.62058 0.10504 0.84243 0.0
H317 H 0.62806 0.10371 0.93574 0.0
H318 H 0.64109 0.17853 0.9586 0.0
H319 H 0.63308 0.17991 0.86532 0.0
La320 La 0.88781 0.39543 0.83912 0.0
La321 La 0.86787 0.39578 0.93732 0.0
C322 C 0.89969 0.3892 0.74617 0.0
C323 C 0.89202 0.39251 0.69155 0.0
C324 C 0.90102 0.41136 0.66908 0.0
C325 C 0.89685 0.4128 0.6157 0.0
C326 C 0.88372 0.39531 0.58325 0.0
C327 C 0.8741 0.37683 0.60604 0.0
C328 C 0.87823 0.37542 0.65949 0.0
C329 C 0.88577 0.43791 0.89503 0.0
C330 C 0.83237 0.39739 0.83956 0.0
C331 C 0.8567 0.40489 0.03053 0.0
C332 C 0.86416 0.40211 0.08555 0.0
C333 C 0.8565 0.38264 0.108 0.0
C334 C 0.86047 0.38161 0.16158 0.0
C335 C 0.87207 0.40008 0.19428 0.0
C336 C 0.88032 0.41924 0.17155 0.0
C337 C 0.87634 0.42028 0.11792 0.0
C338 C 0.86974 0.35251 0.88628 0.0
C339 C 0.92403 0.39032 0.92951 0.0
O340 O 0.90504 0.4079 0.77894 0.0
O341 O 0.88874 0.37348 0.76808 0.0
O342 O 0.90329 0.43015 0.86929 0.0
O343 O 0.87 0.42228 0.88804 0.0
O344 O 0.85058 0.39104 0.81285 0.0
O345 O 0.83549 0.40396 0.8905 0.0
O346 O 0.84997 0.3861 0.99937 0.0
O347 O 0.86873 0.41915 1.00686 0.0
O348 O 0.85266 0.36096 0.91265 0.0
O349 O 0.8855 0.36828 0.88986 0.0
O350 O 0.90688 0.3977 0.9597 0.0
O351 O 0.91911 0.38388 0.87957 0.0
H352 H 0.91207 0.4246 0.69242 0.0
H353 H 0.90478 0.42712 0.59951 0.0
H354 H 0.86365 0.36321 0.58239 0.0
H355 H 0.87121 0.36052 0.6753 0.0
H356 H 0.84667 0.36852 0.08449 0.0
H357 H 0.85356 0.36672 0.17762 0.0
H358 H 0.8896 0.43365 0.19533 0.0
H359 H 0.8822 0.43569 0.10211 0.0
La360 La 0.39214 0.13109 0.70383 0.0
La361 La 0.3681 0.13412 0.60036 0.0
C362 C 0.4063 0.13535 0.79973 0.0
C363 C 0.39842 0.13404 0.85292 0.0
C364 C 0.39973 0.11284 0.87513 0.0
C365 C 0.39537 0.11227 0.92752 0.0
C366 C 0.38977 0.1329 0.95942 0.0
C367 C 0.38789 0.15398 0.93677 0.0
C368 C 0.39222 0.15455 0.88439 0.0
C369 C 0.38945 0.09101 0.63978 0.0
C370 C 0.33611 0.12917 0.69159 0.0
C371 C 0.35425 0.12874 0.5042 0.0
C372 C 0.36231 0.12916 0.45087 0.0
C373 C 0.36204 0.15018 0.42799 0.0
C374 C 0.36655 0.15016 0.37557 0.0
C375 C 0.37133 0.12911 0.34421 0.0
C376 C 0.37212 0.10815 0.36748 0.0
C377 C 0.3676 0.10817 0.41997 0.0
C378 C 0.37103 0.17486 0.6617 0.0
C379 C 0.42452 0.13872 0.61766 0.0
O380 O 0.40729 0.11584 0.76809 0.0
O381 O 0.3988 0.15282 0.77504 0.0
O382 O 0.40745 0.09778 0.67134 0.0
O383 O 0.37345 0.1061 0.64604 0.0
O384 O 0.35542 0.1333 0.72265 0.0
O385 O 0.33698 0.12587 0.64017 0.0
O386 O 0.35376 0.14865 0.53456 0.0
O387 O 0.36112 0.11151 0.53027 0.0
O388 O 0.3531 0.16765 0.6304 0.0
O389 O 0.38691 0.15946 0.65695 0.0
O390 O 0.40605 0.1327 0.58436 0.0
O391 O 0.42225 0.14281 0.66816 0.0
H392 H 0.40486 0.09675 0.85249 0.0
H393 H 0.39729 0.09574 0.94349 0.0
H394 H 0.38329 0.17019 0.95969 0.0
H395 H 0.39131 0.17125 0.86894 0.0
H396 H 0.3576 0.16665 0.45013 0.0
H397 H 0.36541 0.16662 0.35916 0.0
H398 H 0.37604 0.09161 0.345 0.0
H399 H 0.36767 0.0916 0.43599 0.0
La400 La 0.62867 0.62773 0.34482 0.0
La401 La 0.65175 0.63858 0.45657 0.0
C402 C 0.61549 0.62245 0.24882 0.0
C403 C 0.62265 0.62518 0.19608 0.0
C404 C 0.6183 0.60649 0.15627 0.0
C405 C 0.6224 0.60895 0.10473 0.0
C406 C 0.63091 0.63024 0.09145 0.0
C407 C 0.63609 0.64876 0.13171 0.0
C408 C 0.63193 0.64628 0.18354 0.0
C409 C 0.63089 0.59281 0.40457 0.0
C410 C 0.6843 0.63343 0.36108 0.0
C411 C 0.66539 0.62984 0.54724 0.0
C412 C 0.65952 0.63374 0.60262 0.0
C413 C 0.66667 0.65409 0.63601 0.0
C414 C 0.66281 0.65621 0.6893 0.0
C415 C 0.65178 0.63799 0.71046 0.0
C416 C 0.64454 0.61777 0.67677 0.0
C417 C 0.64841 0.61566 0.62381 0.0
C418 C 0.64382 0.67899 0.41766 0.0
C419 C 0.59576 0.64387 0.4321 0.0
O420 O 0.62592 0.60608 0.27295 0.0
O421 O 0.6116 0.64144 0.28061 0.0
O422 O 0.61309 0.5968 0.37299 0.0
O423 O 0.6465 0.608 0.4013 0.0
O424 O 0.66497 0.63396 0.32985 0.0
O425 O 0.68352 0.63294 0.41227 0.0
O426 O 0.67359 0.64737 0.52568 0.0
O427 O 0.65076 0.61664 0.51501 0.0
O428 O 0.65333 0.67722 0.46403 0.0
O429 O 0.63919 0.65833 0.39588 0.0
O430 O 0.61324 0.64001 0.46717 0.0
O431 O 0.59884 0.64303 0.38199 0.0
H432 H 0.61117 0.59004 0.16487 0.0
H433 H 0.61865 0.59415 0.0751 0.0
H434 H 0.64259 0.66542 0.12294 0.0
H435 H 0.63544 0.66102 0.21345 0.0
H436 H 0.67557 0.66824 0.62121 0.0
H437 H 0.66849 0.67211 0.7139 0.0
H438 H 0.63646 0.60314 0.69156 0.0
H439 H 0.64316 0.5995 0.59957 0.0
La440 La 0.13921 0.88952 0.04721 0.0
La441 La 0.13912 0.9115 0.1639 0.0
C442 C 0.13189 0.87697 0.95039 0.0
C443 C 0.13155 0.88592 0.89908 0.0
C444 C 0.15022 0.89927 0.88544 0.0
C445 C 0.15102 0.90465 0.8343 0.0
C446 C 0.13316 0.89686 0.79563 0.0
C447 C 0.11403 0.88433 0.81007 0.0
C448 C 0.1133 0.87889 0.86113 0.0
C449 C 0.18027 0.89389 0.10385 0.0
C450 C 0.13779 0.94554 0.07375 0.0
C451 C 0.15398 0.92581 0.25647 0.0
C452 C 0.15024 0.92259 0.31089 0.0
C453 C 0.12961 0.91251 0.32475 0.0
C454 C 0.1269 0.90957 0.37698 0.0
C455 C 0.14483 0.91655 0.4162 0.0
C456 C 0.1654 0.92669 0.40175 0.0
C457 C 0.16805 0.92963 0.34976 0.0
C458 C 0.09555 0.90021 0.12507 0.0
C459 C 0.13585 0.85532 0.13064 0.0
O460 O 0.15232 0.87594 0.97646 0.0
O461 O 0.1152 0.88374 0.98084 0.0
O462 O 0.17478 0.87673 0.06757 0.0
O463 O 0.16345 0.90814 0.10553 0.0
O464 O 0.13585 0.92681 0.03818 0.0
O465 O 0.14115 0.94379 0.1247 0.0
O466 O 0.13731 0.93624 0.23034 0.0
O467 O 0.16285 0.9079 0.22816 0.0
O468 O 0.1011 0.90883 0.17298 0.0
O469 O 0.11441 0.89813 0.10285 0.0
O470 O 0.14327 0.87294 0.16676 0.0
O471 O 0.12932 0.85884 0.08216 0.0
H472 H 0.16454 0.90502 0.91388 0.0
H473 H 0.16582 0.91466 0.82487 0.0
H474 H 0.10007 0.87785 0.78141 0.0
H475 H 0.09881 0.86843 0.87054 0.0
H476 H 0.11569 0.90682 0.29524 0.0
H477 H 0.11093 0.90148 0.38647 0.0
H478 H 0.17943 0.93264 0.43073 0.0
H479 H 0.18411 0.93746 0.33988 0.0
La480 La 0.89135 0.63638 0.18723 0.0
La481 La 0.86773 0.63779 0.0841 0.0
C482 C 0.90517 0.64194 0.28344 0.0
C483 C 0.89743 0.64025 0.33662 0.0
C484 C 0.89604 0.61851 0.35621 0.0
C485 C 0.89171 0.61748 0.40852 0.0
C486 C 0.88882 0.63815 0.44288 0.0
C487 C 0.88964 0.65982 0.42278 0.0
C488 C 0.89395 0.66085 0.37054 0.0
C489 C 0.88885 0.59519 0.12621 0.0
C490 C 0.83547 0.63346 0.17569 0.0
C491 C 0.85432 0.6309 0.98765 0.0
C492 C 0.86223 0.63199 0.9344 0.0
C493 C 0.86432 0.65354 0.91433 0.0
C494 C 0.86873 0.65417 0.86197 0.0
C495 C 0.87105 0.63329 0.82796 0.0
C496 C 0.86952 0.61177 0.84851 0.0
C497 C 0.86511 0.61114 0.90086 0.0
C498 C 0.87053 0.67978 0.14117 0.0
C499 C 0.92422 0.64305 0.10186 0.0
O500 O 0.90766 0.62252 0.25225 0.0
O501 O 0.8963 0.65868 0.2582 0.0
O502 O 0.90682 0.60267 0.15716 0.0
O503 O 0.87277 0.61028 0.13136 0.0
O504 O 0.85472 0.63845 0.20635 0.0
O505 O 0.8365 0.62948 0.1243 0.0
O506 O 0.85184 0.65065 1.01759 0.0
O507 O 0.86299 0.61453 1.01424 0.0
O508 O 0.8526 0.67166 0.11095 0.0
O509 O 0.88649 0.66433 0.1384 0.0
O510 O 0.90587 0.6365 0.06856 0.0
O511 O 0.9216 0.64796 0.15201 0.0
H512 H 0.89895 0.60227 0.33158 0.0
H513 H 0.89148 0.60046 0.42243 0.0
H514 H 0.88714 0.67612 0.44755 0.0
H515 H 0.89515 0.67789 0.35701 0.0
H516 H 0.86189 0.66999 0.93863 0.0
H517 H 0.86947 0.6711 0.84775 0.0
H518 H 0.87155 0.5953 0.82402 0.0
H519 H 0.86335 0.59424 0.9148 0.0
La520 La 0.12728 0.13262 0.84796 0.0
La521 La 0.14927 0.14128 0.96183 0.0
C522 C 0.11444 0.13084 0.75231 0.0
C523 C 0.12286 0.133 0.7006 0.0
C524 C 0.11537 0.11614 0.65891 0.0
C525 C 0.1217 0.11796 0.60862 0.0
C526 C 0.13573 0.13676 0.5986 0.0
C527 C 0.14341 0.15366 0.64056 0.0
C528 C 0.13708 0.15176 0.69122 0.0
C529 C 0.12878 0.09611 0.90295 0.0
C530 C 0.18285 0.13585 0.86774 0.0
C531 C 0.16276 0.13183 0.05177 0.0
C532 C 0.15813 0.13662 0.10772 0.0
C533 C 0.17095 0.15382 0.14173 0.0
C534 C 0.16883 0.15577 0.1957 0.0
C535 C 0.15411 0.14034 0.21675 0.0
C536 C 0.14074 0.12374 0.1825 0.0
C537 C 0.14276 0.12185 0.12882 0.0
C538 C 0.14137 0.18239 0.92552 0.0
C539 C 0.09355 0.14588 0.93569 0.0
O540 O 0.12177 0.11262 0.77462 0.0
O541 O 0.11338 0.14988 0.78569 0.0
O542 O 0.11178 0.1004 0.86955 0.0
O543 O 0.14439 0.11174 0.90346 0.0
O544 O 0.16405 0.13691 0.83517 0.0
O545 O 0.18131 0.13534 0.9187 0.0
O546 O 0.17246 0.1483 0.0293 0.0
O547 O 0.14652 0.12008 1.02087 0.0
O548 O 0.14942 0.18014 0.97276 0.0
O549 O 0.13761 0.16187 0.90259 0.0
O550 O 0.11076 0.14132 0.97063 0.0
O551 O 0.09706 0.14657 0.88613 0.0
H552 H 0.10423 0.10164 0.66514 0.0
H553 H 0.11509 0.10486 0.5773 0.0
H554 H 0.15438 0.16825 0.63429 0.0
H555 H 0.14313 0.16501 0.72279 0.0
H556 H 0.18321 0.16524 0.12689 0.0
H557 H 0.17949 0.16866 0.22107 0.0
H558 H 0.12897 0.11182 0.19731 0.0
H559 H 0.13279 0.10822 0.10403 0.0
La560 La 0.63511 0.39121 0.56581 0.0
La561 La 0.63528 0.41229 0.68127 0.0
C562 C 0.62553 0.37985 0.46926 0.0
C563 C 0.62858 0.38765 0.41766 0.0
C564 C 0.65075 0.38812 0.39753 0.0
C565 C 0.65281 0.39277 0.34624 0.0
C566 C 0.63277 0.39704 0.3138 0.0
C567 C 0.6107 0.39726 0.33461 0.0
C568 C 0.60865 0.39254 0.3858 0.0
C569 C 0.67665 0.3947 0.62081 0.0
C570 C 0.63624 0.44713 0.59218 0.0
C571 C 0.65072 0.42586 0.77381 0.0
C572 C 0.64722 0.42198 0.82811 0.0
C573 C 0.62491 0.42252 0.84772 0.0
C574 C 0.62252 0.41954 0.9 0.0
C575 C 0.64237 0.41585 0.93362 0.0
C576 C 0.66461 0.41516 0.91351 0.0
C577 C 0.66697 0.41822 0.86147 0.0
C578 C 0.59124 0.40106 0.64598 0.0
C579 C 0.63157 0.35635 0.6473 0.0
O580 O 0.64412 0.37261 0.49532 0.0
O581 O 0.6115 0.39215 0.49974 0.0
O582 O 0.67086 0.3781 0.58335 0.0
O583 O 0.65996 0.40914 0.6237 0.0
O584 O 0.63694 0.42854 0.55655 0.0
O585 O 0.63576 0.44509 0.64292 0.0
O586 O 0.63418 0.43676 0.7484 0.0
O587 O 0.65951 0.40827 0.74444 0.0
O588 O 0.59779 0.40956 0.69342 0.0
O589 O 0.60957 0.39883 0.62126 0.0
O590 O 0.63955 0.37366 0.68349 0.0
O591 O 0.62437 0.36054 0.59972 0.0
H592 H 0.6665 0.38437 0.4209 0.0
H593 H 0.67012 0.3928 0.33185 0.0
H594 H 0.59485 0.40019 0.31075 0.0
H595 H 0.59131 0.39203 0.40001 0.0
H596 H 0.60934 0.4253 0.82281 0.0
H597 H 0.60511 0.41991 0.91396 0.0
H598 H 0.68032 0.41272 0.93826 0.0
H599 H 0.68437 0.41786 0.84733 0.0
La600 La 0.38747 0.89708 0.33624 0.0
La601 La 0.36567 0.89735 0.43461 0.0
C602 C 0.40017 0.89066 0.2439 0.0
C603 C 0.39236 0.89316 0.18882 0.0
C604 C 0.39575 0.91437 0.16825 0.0
C605 C 0.39143 0.91572 0.11479 0.0
C606 C 0.38376 0.89585 0.08035 0.0
C607 C 0.37978 0.87481 0.10119 0.0
C608 C 0.38408 0.87347 0.15465 0.0
C609 C 0.38521 0.93904 0.39305 0.0
C610 C 0.33184 0.89902 0.33459 0.0
C611 C 0.35362 0.90641 0.52715 0.0
C612 C 0.36115 0.90403 0.58241 0.0
C613 C 0.35856 0.88265 0.60283 0.0
C614 C 0.36268 0.88142 0.65638 0.0
C615 C 0.36939 0.90154 0.69104 0.0
C616 C 0.3726 0.92277 0.6703 0.0
C617 C 0.36846 0.924 0.61677 0.0
C618 C 0.36803 0.85464 0.38187 0.0
C619 C 0.42189 0.89159 0.43031 0.0
O620 O 0.40448 0.90979 0.2761 0.0
O621 O 0.38998 0.87459 0.26627 0.0
O622 O 0.40289 0.93157 0.36746 0.0
O623 O 0.36936 0.92351 0.38507 0.0
O624 O 0.35042 0.89292 0.30886 0.0
O625 O 0.33409 0.90548 0.38566 0.0
O626 O 0.3476 0.88736 0.49609 0.0
O627 O 0.36526 0.92103 0.50356 0.0
O628 O 0.35077 0.86252 0.4084 0.0
O629 O 0.38373 0.87043 0.38703 0.0
O630 O 0.40429 0.89871 0.45929 0.0
O631 O 0.41804 0.8857 0.37976 0.0
H632 H 0.40249 0.9298 0.19316 0.0
H633 H 0.39499 0.93214 0.10023 0.0
H634 H 0.37357 0.85923 0.07608 0.0
H635 H 0.38154 0.85678 0.16899 0.0
H636 H 0.35263 0.86696 0.57773 0.0
H637 H 0.35973 0.86483 0.67079 0.0
H638 H 0.37809 0.93856 0.69553 0.0
H639 H 0.37037 0.94079 0.60243 0.0
H640 H 0.13563 0.67154 0.78172 0.0
H641 H 0.14904 0.60064 0.49874 0.0
H642 H 0.15738 0.59917 0.75686 0.0
H643 H 0.1297 0.6737 0.52392 0.0
H644 H 0.1518 0.59965 0.59299 0.0
H645 H 0.13308 0.67258 0.68752 0.0
C646 C 0.13993 0.65586 0.75658 0.0
C647 C 0.14674 0.63523 0.77762 0.0
C648 C 0.14701 0.61592 0.57793 0.0
C649 C 0.14367 0.63627 0.66917 0.0
C650 C 0.14533 0.61648 0.524 0.0
C651 C 0.13913 0.63729 0.50306 0.0
C652 C 0.14237 0.63629 0.6115 0.0
C653 C 0.13486 0.65733 0.53806 0.0
C654 C 0.13838 0.65645 0.70266 0.0
C655 C 0.15172 0.61539 0.74268 0.0
N656 N 0.13649 0.65631 0.59037 0.0
N657 N 0.15013 0.61642 0.69038 0.0
H658 H 0.65187 0.92848 0.05534 0.0
H659 H 0.62479 0.86543 0.76251 0.0
H660 H 0.61507 0.8623 1.01721 0.0
H661 H 0.66323 0.9307 0.80044 0.0
H662 H 0.62087 0.86417 0.85536 0.0
H663 H 0.65573 0.9299 0.96241 0.0
C664 C 0.64451 0.91426 0.02757 0.0
C665 C 0.63313 0.89521 0.04466 0.0
C666 C 0.63014 0.8788 0.8434 0.0
C667 C 0.63767 0.89669 0.93747 0.0
C668 C 0.6325 0.87949 0.7902 0.0
C669 C 0.64439 0.89821 0.77305 0.0
C670 C 0.63973 0.89695 0.88027 0.0
C671 C 0.65361 0.91606 0.81129 0.0
C672 C 0.64684 0.91504 0.97436 0.0
C673 C 0.6243 0.87719 1.00638 0.0
N674 N 0.65112 0.91496 0.86283 0.0
N675 N 0.62671 0.8784 0.95488 0.0
H676 H 0.34462 0.41645 0.28243 0.0
H677 H 0.41334 0.39334 1.02208 0.0
H678 H 0.41032 0.37928 0.27572 0.0
H679 H 0.34567 0.42661 0.03073 0.0
H680 H 0.41439 0.39052 0.11593 0.0
H681 H 0.34647 0.42266 0.19151 0.0
C682 C 0.35947 0.40958 0.26187 0.0
C683 C 0.37722 0.39711 0.2869 0.0
C684 C 0.39935 0.39848 0.09724 0.0
C685 C 0.37955 0.40434 0.18213 0.0
C686 C 0.39879 0.4002 0.04368 0.0
C687 C 0.37927 0.41001 1.01816 0.0
C688 C 0.38032 0.40676 0.12564 0.0
C689 C 0.36088 0.41848 0.04831 0.0
C690 C 0.36057 0.41322 0.20986 0.0
C691 C 0.39628 0.3891 0.25828 0.0
N692 N 0.36184 0.4166 0.10015 0.0
N693 N 0.39686 0.39271 0.2074 0.0
H694 H 0.85872 0.08615 0.5402 0.0
H695 H 0.90609 0.16475 0.33452 0.0
H696 H 0.90013 0.14916 0.58512 0.0
H697 H 0.86781 0.09969 0.29069 0.0
H698 H 0.90527 0.15878 0.42602 0.0
H699 H 0.86257 0.09056 0.44881 0.0
C700 C 0.86859 0.10098 0.53094 0.0
C701 C 0.87895 0.1174 0.57078 0.0
C702 C 0.89713 0.14576 0.39638 0.0
C703 C 0.88365 0.12244 0.46544 0.0
C704 C 0.89773 0.14906 0.3439 0.0
C705 C 0.88697 0.13273 0.30433 0.0
C706 C 0.88561 0.12602 0.40983 0.0
C707 C 0.87604 0.11298 0.31952 0.0
C708 C 0.8709 0.1034 0.47858 0.0
C709 C 0.89195 0.13596 0.55599 0.0
N710 N 0.87558 0.11025 0.37085 0.0
N711 N 0.89381 0.13803 0.50465 0.0
H712 H 0.16693 0.43329 0.28504 0.0
H713 H 0.12118 0.36095 0.50428 0.0
H714 H 0.13151 0.36623 0.25033 0.0
H715 H 0.15582 0.42842 0.53858 0.0
H716 H 0.1254 0.36225 0.4116 0.0
H717 H 0.163 0.43178 0.3777 0.0
C718 C 0.15813 0.41831 0.29668 0.0
C719 C 0.14947 0.3999 0.25926 0.0
C720 C 0.13212 0.37677 0.43937 0.0
C721 C 0.14523 0.3979 0.36629 0.0
C722 C 0.12988 0.37597 0.49254 0.0
C723 C 0.13819 0.39459 0.52982 0.0
C724 C 0.14277 0.39633 0.42283 0.0
C725 C 0.14887 0.41376 0.51158 0.0
C726 C 0.15605 0.41739 0.34986 0.0
C727 C 0.1387 0.38075 0.27742 0.0
N728 N 0.15084 0.41412 0.45962 0.0
N729 N 0.13689 0.38027 0.32941 0.0
H730 H 0.89807 0.91509 0.79295 0.0
H731 H 0.85688 0.86777 0.49577 0.0
H732 H 0.84195 0.86464 0.75015 0.0
H733 H 0.90733 0.92367 0.54202 0.0
H734 H 0.85267 0.86435 0.58803 0.0
H735 H 0.90332 0.91629 0.70083 0.0
C736 C 0.88701 0.90403 0.76424 0.0
C737 C 0.86957 0.88968 0.77963 0.0
C738 C 0.86464 0.87738 0.57792 0.0
C739 C 0.87531 0.89123 0.67332 0.0
C740 C 0.86714 0.87927 0.52522 0.0
C741 C 0.88237 0.89616 0.51087 0.0
C742 C 0.8776 0.89236 0.61672 0.0
C743 C 0.89506 0.91067 0.55096 0.0
C744 C 0.88989 0.90488 0.71147 0.0
C745 C 0.85547 0.87613 0.74026 0.0
N746 N 0.8924 0.90842 0.60179 0.0
N747 N 0.85865 0.87722 0.68904 0.0
H748 H 0.41228 0.61647 0.79674 0.0
H749 H 0.3468 0.65078 0.05872 0.0
H750 H 0.35194 0.66175 0.8073 0.0
H751 H 0.40527 0.60305 0.0493 0.0
H752 H 0.34919 0.65548 0.96707 0.0
H753 H 0.41078 0.61187 0.88913 0.0
C754 C 0.39874 0.6255 0.8184 0.0
C755 C 0.38217 0.63948 0.79383 0.0
C756 C 0.36153 0.64397 0.98494 0.0
C757 C 0.38032 0.63421 0.89997 0.0
C758 C 0.36011 0.64117 0.03739 0.0
C759 C 0.37574 0.62633 0.06203 0.0
C760 C 0.37873 0.63187 0.95637 0.0
C761 C 0.39294 0.61481 0.03229 0.0
C762 C 0.39785 0.62278 0.87119 0.0
C763 C 0.36488 0.6505 0.82405 0.0
N764 N 0.39392 0.61776 0.9811 0.0
N765 N 0.36446 0.64766 0.87531 0.0
H766 H 0.61926 0.17322 0.03209 0.0
H767 H 0.66554 0.10207 0.26665 0.0
H768 H 0.65648 0.1076 1.00997 0.0
H769 H 0.6274 0.16715 0.28866 0.0
H770 H 0.6624 0.10383 0.17283 0.0
H771 H 0.6227 0.17166 0.12602 0.0
C772 C 0.62837 0.15857 0.0469 0.0
C773 C 0.63765 0.14055 1.0127 0.0
C774 C 0.65468 0.11772 0.19813 0.0
C775 C 0.64133 0.13848 0.12083 0.0
C776 C 0.6563 0.11665 0.25185 0.0
C777 C 0.64663 0.13444 0.286 0.0
C778 C 0.64331 0.13675 0.17795 0.0
C779 C 0.63534 0.15314 0.26417 0.0
C780 C 0.63016 0.15761 0.10067 0.0
C781 C 0.64882 0.12179 0.03452 0.0
N782 N 0.63399 0.15378 0.2117 0.0
N783 N 0.65034 0.12126 0.08703 0.0
H784 H 0.86774 0.43698 0.27142 0.0
H785 H 0.88603 0.35825 0.50592 0.0
H786 H 0.88165 0.36257 0.24924 0.0
H787 H 0.876 0.43329 0.52888 0.0
H788 H 0.88333 0.35936 0.41183 0.0
H789 H 0.87042 0.43596 0.36553 0.0
C790 C 0.8716 0.42045 0.28623 0.0
C791 C 0.87452 0.39983 0.25199 0.0
C792 C 0.88168 0.3756 0.4374 0.0
C793 C 0.87719 0.39849 0.36026 0.0
C794 C 0.88301 0.37495 0.49124 0.0
C795 C 0.88118 0.39571 0.52564 0.0
C796 C 0.87843 0.39715 0.41744 0.0
C797 C 0.87776 0.41687 0.50405 0.0
C798 C 0.87294 0.41986 0.3401 0.0
C799 C 0.87899 0.37887 0.27384 0.0
N800 N 0.87649 0.41704 0.45147 0.0
N801 N 0.88016 0.37874 0.32642 0.0
H802 H 0.35628 0.09597 0.26218 0.0
H803 H 0.40428 0.16607 0.04159 0.0
H804 H 0.39363 0.16203 0.29542 0.0
H805 H 0.36883 0.099 1.00801 0.0
H806 H 0.4 0.16508 0.1343 0.0
H807 H 0.36081 0.09664 0.16939 0.0
C808 C 0.36563 0.11053 0.25021 0.0
C809 C 0.3746 0.12896 0.28724 0.0
C810 C 0.39313 0.15057 0.1067 0.0
C811 C 0.37952 0.13 0.1801 0.0
C812 C 0.3954 0.1512 0.0535 0.0
C813 C 0.38684 0.13263 1.0164 0.0
C814 C 0.38217 0.13124 0.12349 0.0
C815 C 0.37595 0.11363 0.03488 0.0
C816 C 0.36805 0.11098 0.19697 0.0
C817 C 0.38613 0.14755 0.26865 0.0
N818 N 0.37391 0.11345 0.0869 0.0
N819 N 0.38823 0.14758 0.21665 0.0
H820 H 0.60103 0.61482 1.0066 0.0
H821 H 0.68158 0.65656 0.79423 0.0
H822 H 0.66633 0.65245 0.04845 0.0
H823 H 0.61394 0.62283 0.75726 0.0
H824 H 0.67625 0.65644 0.88712 0.0
H825 H 0.60565 0.61826 0.91523 0.0
C826 C 0.61645 0.62372 0.99662 0.0
C827 C 0.63344 0.63313 0.03556 0.0
C828 C 0.66255 0.64915 0.85864 0.0
C829 C 0.63874 0.6374 0.9301 0.0
C830 C 0.6655 0.64935 0.80549 0.0
C831 C 0.64827 0.63954 0.76746 0.0
C832 C 0.6422 0.63907 0.87412 0.0
C833 C 0.62795 0.6302 0.7848 0.0
C834 C 0.619 0.62583 0.94426 0.0
C835 C 0.65273 0.64498 1.01995 0.0
N836 N 0.62555 0.63012 0.83658 0.0
N837 N 0.65493 0.64665 0.96848 0.0
H838 H 0.10547 0.92247 0.47202 0.0
H839 H 0.17236 0.8937 0.74 0.0
H840 H 0.1785 0.90321 0.48803 0.0
H841 H 0.09821 0.90832 0.72386 0.0
H842 H 0.17499 0.8985 0.64841 0.0
H843 H 0.10234 0.918 0.56399 0.0
C844 C 0.12082 0.91715 0.49464 0.0
C845 C 0.14232 0.91332 0.47194 0.0
C846 C 0.15813 0.90072 0.66483 0.0
C847 C 0.1389 0.90843 0.57781 0.0
C848 C 0.15664 0.89817 0.71741 0.0
C849 C 0.13503 0.90067 0.74005 0.0
C850 C 0.13788 0.90589 0.63422 0.0
C851 C 0.11521 0.90599 0.70816 0.0
C852 C 0.11904 0.91474 0.54734 0.0
C853 C 0.16165 0.90677 0.50374 0.0
N854 N 0.11711 0.90844 0.65702 0.0
N855 N 0.15948 0.90458 0.55481 0.0
H856 H 0.89682 0.66481 0.78233 0.0
H857 H 0.86383 0.60591 0.48827 0.0
H858 H 0.85255 0.6034 0.74312 0.0
H859 H 0.90698 0.66808 0.52781 0.0
H860 H 0.85989 0.60439 0.58113 0.0
H861 H 0.90084 0.66613 0.68954 0.0
C862 C 0.88785 0.65162 0.75438 0.0
C863 C 0.87429 0.63395 0.77116 0.0
C864 C 0.87019 0.6184 0.56951 0.0
C865 C 0.87906 0.63528 0.66397 0.0
C866 C 0.87257 0.61922 0.51632 0.0
C867 C 0.88576 0.63718 0.49964 0.0
C868 C 0.88112 0.63561 0.60679 0.0
C869 C 0.89634 0.65409 0.53831 0.0
C870 C 0.89027 0.65233 0.7012 0.0
C871 C 0.86347 0.61717 0.73256 0.0
N872 N 0.89382 0.65286 0.58977 0.0
N873 N 0.86605 0.61828 0.68106 0.0
H874 H 0.13692 0.17635 0.54823 0.0
H875 H 0.15508 0.10259 0.2714 0.0
H876 H 0.14806 0.10149 0.52456 0.0
H877 H 0.15213 0.17827 0.29308 0.0
H878 H 0.15286 0.10242 0.36474 0.0
H879 H 0.14343 0.17812 0.45633 0.0
C880 C 0.141 0.16033 0.52397 0.0
C881 C 0.14169 0.13869 0.54421 0.0
C882 C 0.15274 0.11912 0.34932 0.0
C883 C 0.14886 0.14057 0.43879 0.0
C884 C 0.15385 0.11921 0.29582 0.0
C885 C 0.15352 0.14047 0.27416 0.0
C886 C 0.15117 0.14043 0.38188 0.0
C887 C 0.15246 0.16148 0.30809 0.0
C888 C 0.14458 0.16135 0.4714 0.0
C889 C 0.14686 0.1185 0.51062 0.0
N890 N 0.15115 0.16093 0.36022 0.0
N891 N 0.15008 0.11993 0.45974 0.0
H892 H 0.66132 0.37359 0.24424 0.0
H893 H 0.61344 0.43961 1.00238 0.0
H894 H 0.60845 0.42749 0.25529 0.0
H895 H 0.66618 0.38556 0.99281 0.0
H896 H 0.61099 0.4353 0.09456 0.0
H897 H 0.6635 0.37812 0.15236 0.0
C898 C 0.65031 0.38656 0.22757 0.0
C899 C 0.63472 0.40022 0.25792 0.0
C900 C 0.62309 0.42437 0.07228 0.0
C901 C 0.63688 0.40526 0.15187 0.0
C902 C 0.62439 0.42671 1.01946 0.0
C903 C 0.64009 0.41298 0.98954 0.0
C904 C 0.63755 0.40813 0.09558 0.0
C905 C 0.65407 0.3968 1.0143 0.0
C906 C 0.65144 0.38901 0.17484 0.0
C907 C 0.62056 0.41639 0.2335 0.0
N908 N 0.65246 0.39484 0.06567 0.0
N909 N 0.62199 0.41845 0.18206 0.0
H910 H 0.36584 0.93167 0.02778 0.0
H911 H 0.38815 0.86615 0.74392 0.0
H912 H 0.39546 0.86233 1.00127 0.0
H913 H 0.35667 0.93467 0.77001 0.0
H914 H 0.39116 0.86454 0.83794 0.0
H915 H 0.36272 0.93327 0.93371 0.0
C916 C 0.37174 0.91678 1.00229 0.0
C917 C 0.38092 0.89682 0.02282 0.0
C918 C 0.38363 0.87995 0.82311 0.0
C919 C 0.37726 0.8985 0.91453 0.0
C920 C 0.3818 0.88085 0.76928 0.0
C921 C 0.37213 0.90059 0.7486 0.0
C922 C 0.37573 0.89891 0.85692 0.0
C923 C 0.36457 0.91922 0.78387 0.0
C924 C 0.36986 0.91768 0.94845 0.0
C925 C 0.38796 0.87796 0.98747 0.0
N926 N 0.36649 0.9179 0.83607 0.0
N927 N 0.38604 0.8793 0.93527 0.0
H928 H 0.1087 0.70505 0.1319 0.0
H929 H 0.16621 0.83427 0.1987 0.0
H930 H 0.18251 0.71621 0.17438 0.0
H931 H 0.10607 0.81934 0.08915 0.0
H932 H 0.16861 0.79214 0.20895 0.0
H933 H 0.10366 0.7479 0.135 0.0
C934 C 0.12374 0.7165 0.14298 0.0
C935 C 0.14607 0.70697 0.15302 0.0
C936 C 0.15473 0.79817 0.18313 0.0
C937 C 0.14042 0.75611 0.15686 0.0
C938 C 0.15325 0.82225 0.17756 0.0
C939 C 0.13593 0.83046 0.14293 0.0
C940 C 0.13846 0.78214 0.15481 0.0
C941 C 0.11979 0.81388 0.11609 0.0
C942 C 0.1209 0.74096 0.14432 0.0
C943 C 0.16499 0.72276 0.16641 0.0
N944 N 0.1214 0.79066 0.12268 0.0
N945 N 0.16175 0.74643 0.16806 0.0
H946 H 0.56463 0.85268 0.41361 0.0
H947 H 0.44972 0.9234 0.49697 0.0
H948 H 0.5691 0.92058 0.50545 0.0
H949 H 0.45013 0.85429 0.41073 0.0
H950 H 0.49285 0.92135 0.51303 0.0
H951 H 0.52274 0.8513 0.4248 0.0
C952 C 0.55679 0.86715 0.43712 0.0
C953 C 0.5704 0.8867 0.45881 0.0
C954 C 0.4834 0.90643 0.49165 0.0
C955 C 0.52182 0.88573 0.47047 0.0
C956 C 0.45877 0.90751 0.48299 0.0
C957 C 0.44633 0.88893 0.45266 0.0
C958 C 0.49554 0.88662 0.46981 0.0
C959 C 0.45899 0.869 0.43435 0.0
C960 C 0.53276 0.86644 0.44333 0.0
C961 C 0.55926 0.90504 0.4886 0.0
N962 N 0.48273 0.86847 0.44283 0.0
N963 N 0.53552 0.90431 0.49286 0.0
H964 H 0.41299 0.31592 0.63728 0.0
H965 H 0.33888 0.20752 0.69364 0.0
H966 H 0.35506 0.32531 0.73493 0.0
H967 H 0.41202 0.20055 0.66477 0.0
H968 H 0.34373 0.25039 0.70747 0.0
H969 H 0.41271 0.27377 0.645 0.0
C970 C 0.40045 0.30914 0.66114 0.0
C971 C 0.38412 0.32422 0.68578 0.0
C972 C 0.35883 0.23952 0.69897 0.0
C973 C 0.38321 0.27567 0.69344 0.0
C974 C 0.35608 0.21504 0.6911 0.0
C975 C 0.37508 0.20042 0.67824 0.0
C976 C 0.38063 0.24962 0.69252 0.0
C977 C 0.39693 0.21112 0.67502 0.0
C978 C 0.4003 0.28505 0.66551 0.0
C979 C 0.36815 0.3144 0.71583 0.0
N980 N 0.399 0.23505 0.68117 0.0
N981 N 0.36781 0.29071 0.71804 0.0
H982 H 0.94987 0.11822 1.0023 0.0
H983 H 0.06203 0.176 0.89805 0.0
H984 H 0.94765 0.16542 0.88537 0.0
H985 H 0.0688 0.12396 1.00453 0.0
H986 H 0.01998 0.17754 0.90748 0.0
H987 H 0.99268 0.12502 1.01767 0.0
C988 C 0.95827 0.13066 0.9813 0.0
C989 C 0.94524 0.14154 0.94298 0.0
C990 C 0.03054 0.16592 0.92941 0.0
C991 C 0.99405 0.14898 0.95928 0.0
C992 C 0.05466 0.1651 0.92413 0.0
C993 C 0.06899 0.14972 0.95027 0.0
C994 C 0.02026 0.15096 0.96048 0.0
C995 C 0.05841 0.13613 0.98381 0.0
C996 C 0.98271 0.13432 0.98959 0.0
C997 C 0.95703 0.1569 0.91563 0.0
N998 N 0.03461 0.13678 0.98734 0.0
N999 N 0.98064 0.16004 0.92408 0.0
H1000 H 0.10925 0.33027 0.90685 0.0
H1001 H 0.15999 0.1997 0.84286 0.0
H1002 H 0.17933 0.31762 0.85959 0.0
H1003 H 0.11475 0.21831 0.9668 0.0
H1004 H 0.15986 0.24114 0.82571 0.0
H1005 H 0.10382 0.2876 0.90621 0.0
C1006 C 0.12326 0.3185 0.89501 0.0
C1007 C 0.14477 0.32756 0.88303 0.0
C1008 C 0.14954 0.23601 0.85587 0.0
C1009 C 0.13859 0.27864 0.88184 0.0
C1010 C 0.14939 0.21233 0.86523 0.0
C1011 C 0.13709 0.20549 0.90586 0.0
C1012 C 0.1369 0.25288 0.88664 0.0
C1013 C 0.12424 0.22277 0.93472 0.0
C1014 C 0.12022 0.29416 0.89506 0.0
C1015 C 0.16246 0.31141 0.86891 0.0
N1016 N 0.1244 0.24555 0.92452 0.0
N1017 N 0.15899 0.28783 0.86857 0.0
H1018 H 0.0707 0.86673 0.16102 0.0
H1019 H 0.94663 0.90905 0.04105 0.0
H1020 H 0.06565 0.91623 0.0489 0.0
H1021 H 0.95612 0.86169 0.15749 0.0
H1022 H 0.98931 0.90756 0.031 0.0
H1023 H 0.02846 0.85978 0.14705 0.0
C1024 C 0.06068 0.87565 0.13225 0.0
C1025 C 0.07168 0.89179 0.10555 0.0
C1026 C 0.98194 0.89721 0.05808 0.0
C1027 C 0.02282 0.88482 0.09085 0.0
C1028 C 0.95757 0.89793 0.06354 0.0
C1029 C 0.9478 0.88562 0.10047 0.0
C1030 C 0.99653 0.88393 0.0895 0.0
C1031 C 0.96286 0.87169 0.12896 0.0
C1032 C 0.03647 0.87187 0.12457 0.0
C1033 C 0.05783 0.9033 0.06953 0.0
N1034 N 0.9863 0.87136 0.12313 0.0
N1035 N 0.03403 0.89987 0.06375 0.0
H1036 H 0.41496 0.7174 0.44005 0.0
H1037 H 0.3358 0.8201 0.34969 0.0
H1038 H 0.35455 0.70294 0.33107 0.0
H1039 H 0.40963 0.83055 0.39307 0.0
H1040 H 0.34143 0.77748 0.34514 0.0
H1041 H 0.41285 0.75892 0.42657 0.0
C1042 C 0.4014 0.72291 0.41275 0.0
C1043 C 0.38494 0.70659 0.38655 0.0
C1044 C 0.35648 0.78904 0.35488 0.0
C1045 C 0.38207 0.75441 0.37191 0.0
C1046 C 0.35328 0.81338 0.35745 0.0
C1047 C 0.37228 0.82892 0.37152 0.0
C1048 C 0.37876 0.78007 0.3679 0.0
C1049 C 0.39453 0.81923 0.38161 0.0
C1050 C 0.40024 0.74665 0.40503 0.0
C1051 C 0.36773 0.71483 0.35174 0.0
N1052 N 0.39708 0.79549 0.38047 0.0
N1053 N 0.3665 0.73819 0.34611 0.0
H1054 H 0.56818 0.18166 0.62054 0.0
H1055 H 0.44706 0.11101 0.54156 0.0
H1056 H 0.56712 0.10996 0.54806 0.0
H1057 H 0.4565 0.17258 0.65445 0.0
H1058 H 0.48892 0.11358 0.52406 0.0
H1059 H 0.5254 0.18222 0.61088 0.0
C1060 C 0.55889 0.16623 0.60098 0.0
C1061 C 0.57124 0.14582 0.58468 0.0
C1062 C 0.48166 0.1267 0.55202 0.0
C1063 C 0.52189 0.14596 0.57531 0.0
C1064 C 0.45778 0.12534 0.56171 0.0
C1065 C 0.44832 0.1416 0.59958 0.0
C1066 C 0.49595 0.14471 0.5797 0.0
C1067 C 0.46306 0.15961 0.62514 0.0
C1068 C 0.5344 0.16645 0.59602 0.0
C1069 C 0.55826 0.12618 0.56037 0.0
N1070 N 0.48598 0.16065 0.61479 0.0
N1071 N 0.53422 0.12659 0.5571 0.0
H1072 H 0.91186 0.21454 0.95671 0.0
H1073 H 0.83752 0.31812 0.85218 0.0
H1074 H 0.85419 0.20036 0.84026 0.0
H1075 H 0.91051 0.32763 0.90513 0.0
H1076 H 0.84208 0.27548 0.85112 0.0
H1077 H 0.91075 0.25607 0.94281 0.0
C1078 C 0.89907 0.2201 0.9278 0.0
C1079 C 0.88313 0.20376 0.89951 0.0
C1080 C 0.8572 0.28681 0.86226 0.0
C1081 C 0.88142 0.25177 0.88426 0.0
C1082 C 0.85464 0.31119 0.86278 0.0
C1083 C 0.8737 0.32655 0.87826 0.0
C1084 C 0.87888 0.27753 0.87888 0.0
C1085 C 0.8954 0.31651 0.89226 0.0
C1086 C 0.8985 0.24388 0.91983 0.0
C1087 C 0.86696 0.21217 0.86265 0.0
N1088 N 0.89729 0.29275 0.89304 0.0
N1089 N 0.86628 0.23557 0.85671 0.0
H1090 H 0.60693 0.82565 0.39617 0.0
H1091 H 0.67737 0.70302 0.37697 0.0
H1092 H 0.68166 0.81916 0.38654 0.0
H1093 H 0.60546 0.7081 0.41562 0.0
H1094 H 0.67686 0.74468 0.3643 0.0
H1095 H 0.60378 0.78238 0.38871 0.0
C1096 C 0.62259 0.81517 0.39143 0.0
C1097 C 0.64462 0.82616 0.39194 0.0
C1098 C 0.66096 0.73669 0.37449 0.0
C1099 C 0.64118 0.77652 0.38356 0.0
C1100 C 0.66118 0.71275 0.38102 0.0
C1101 C 0.64125 0.70184 0.39593 0.0
C1102 C 0.64072 0.7502 0.38369 0.0
C1103 C 0.62102 0.71563 0.40268 0.0
C1104 C 0.62082 0.79044 0.38755 0.0
C1105 C 0.66432 0.81156 0.38639 0.0
N1106 N 0.6213 0.73904 0.39683 0.0
N1107 N 0.66215 0.78772 0.38258 0.0
H1108 H 0.91184 0.70588 0.14725 0.0
H1109 H 0.84354 0.82966 0.17567 0.0
H1110 H 0.83745 0.71311 0.16153 0.0
H1111 H 0.91319 0.82271 0.1232 0.0
H1112 H 0.84394 0.78796 0.18841 0.0
H1113 H 0.91538 0.74909 0.15483 0.0
C1114 C 0.89634 0.71652 0.15306 0.0
C1115 C 0.87429 0.70577 0.15379 0.0
C1116 C 0.85939 0.79558 0.17518 0.0
C1117 C 0.87819 0.75532 0.1624 0.0
C1118 C 0.85927 0.81952 0.16861 0.0
C1119 C 0.87859 0.82987 0.1497 0.0
C1120 C 0.87893 0.7816 0.16225 0.0
C1121 C 0.89815 0.81559 0.13916 0.0
C1122 C 0.89834 0.74121 0.157 0.0
C1123 C 0.85479 0.72055 0.16071 0.0
N1124 N 0.8978 0.79223 0.14534 0.0
N1125 N 0.85719 0.74437 0.16463 0.0
H1126 H 0.68211 0.21626 0.68314 0.0
H1127 H 0.60097 0.32104 0.60636 0.0
H1128 H 0.60799 0.20617 0.64335 0.0
H1129 H 0.66312 0.33391 0.71069 0.0
H1130 H 0.60388 0.27901 0.615 0.0
H1131 H 0.67653 0.25896 0.68946 0.0
C1132 C 0.66458 0.22304 0.67639 0.0
C1133 C 0.64548 0.2075 0.66302 0.0
C1134 C 0.61674 0.29101 0.63653 0.0
C1135 C 0.63903 0.25666 0.66872 0.0
C1136 C 0.61512 0.31508 0.6316 0.0
C1137 C 0.63176 0.33122 0.65803 0.0
C1138 C 0.63555 0.28263 0.66702 0.0
C1139 C 0.64974 0.32227 0.69 0.0
C1140 C 0.66141 0.24747 0.67998 0.0
C1141 C 0.62319 0.2174 0.65427 0.0
N1142 N 0.65136 0.29863 0.69293 0.0
N1143 N 0.62065 0.24124 0.65648 0.0
H1144 H 0.9521 0.35289 0.90992 0.0
H1145 H 0.07409 0.42141 0.99862 0.0
H1146 H 0.95347 0.42337 0.9895 0.0
H1147 H 0.06558 0.35831 0.89012 0.0
H1148 H 0.0316 0.42009 1.01167 0.0
H1149 H 0.99482 0.3519 0.92027 0.0
C1150 C 0.96142 0.368 0.93092 0.0
C1151 C 0.94907 0.38814 0.94926 0.0
C1152 C 0.03917 0.40637 0.98564 0.0
C1153 C 0.99864 0.38752 0.95972 0.0
C1154 C 0.06345 0.40701 0.97854 0.0
C1155 C 0.07347 0.38991 0.94324 0.0
C1156 C 0.02492 0.38831 0.95782 0.0
C1157 C 0.0587 0.3719 0.91759 0.0
C1158 C 0.98594 0.36753 0.93637 0.0
C1159 C 0.96223 0.40732 0.97552 0.0
N1160 N 0.03541 0.37162 0.92532 0.0
N1161 N 0.98632 0.40667 0.97939 0.0
H1162 H 0.4498 0.62336 0.49585 0.0
H1163 H 0.5661 0.67584 0.39588 0.0
H1164 H 0.45166 0.66545 0.36986 0.0
H1165 H 0.56948 0.62251 0.49938 0.0
H1166 H 0.52389 0.67863 0.40288 0.0
H1167 H 0.49276 0.62878 0.51329 0.0
C1168 C 0.45913 0.6344 0.47311 0.0
C1169 C 0.44718 0.64424 0.43174 0.0
C1170 C 0.53375 0.66649 0.42476 0.0
C1171 C 0.49614 0.65019 0.45075 0.0
C1172 C 0.55797 0.665 0.42101 0.0
C1173 C 0.57139 0.64888 0.44696 0.0
C1174 C 0.52247 0.65151 0.45416 0.0
C1175 C 0.55983 0.6353 0.47901 0.0
C1176 C 0.48365 0.63725 0.48263 0.0
C1177 C 0.46016 0.65776 0.40242 0.0
N1178 N 0.53595 0.63664 0.48111 0.0
N1179 N 0.48379 0.66026 0.41235 0.0
H1180 H 0.45218 0.36775 0.7082 0.0
H1181 H 0.56014 0.41421 0.56741 0.0
H1182 H 0.44138 0.40959 0.58186 0.0
H1183 H 0.56608 0.37109 0.69217 0.0
H1184 H 0.51704 0.40845 0.561 0.0
H1185 H 0.49359 0.3641 0.69182 0.0
C1186 C 0.45848 0.37568 0.67597 0.0
C1187 C 0.44319 0.38869 0.64595 0.0
C1188 C 0.52784 0.39977 0.58887 0.0
C1189 C 0.49133 0.38553 0.62805 0.0
C1190 C 0.55248 0.40282 0.59205 0.0
C1191 C 0.56677 0.39281 0.62991 0.0
C1192 C 0.5175 0.38667 0.62392 0.0
C1193 C 0.5558 0.37891 0.66204 0.0
C1194 C 0.48226 0.37378 0.66682 0.0
C1195 C 0.45247 0.39901 0.60532 0.0
N1196 N 0.53203 0.3764 0.65855 0.0
N1197 N 0.476 0.39752 0.59804 0.0
H1198 H 0.06839 0.61044 0.03534 0.0
H1199 H 0.95476 0.67872 0.13356 0.0
H1200 H 0.06858 0.68045 0.11728 0.0
H1201 H 0.94879 0.613 0.03334 0.0
H1202 H 0.99629 0.68059 0.11898 0.0
H1203 H 0.02504 0.61173 0.02427 0.0
C1204 C 0.05939 0.62637 0.04926 0.0
C1205 C 0.07213 0.64545 0.07695 0.0
C1206 C 0.98601 0.66583 0.09939 0.0
C1207 C 0.02265 0.64684 0.06582 0.0
C1208 C 0.96218 0.66482 0.10766 0.0
C1209 C 0.94823 0.64574 0.08449 0.0
C1210 C 0.99645 0.64732 0.06859 0.0
C1211 C 0.95887 0.62816 0.0515 0.0
C1212 C 0.03463 0.62701 0.0435 0.0
C1213 C 0.05951 0.66538 0.0955 0.0
N1214 N 0.98244 0.62916 0.04516 0.0
N1215 N 0.03566 0.66545 0.09005 0.0
H1216 H 0.0985 0.56567 0.09798 0.0
H1217 H 0.1744 0.4615 0.95627 0.0
H1218 H 0.17307 0.57282 0.08894 0.0
H1219 H 0.09961 0.46824 0.92698 0.0
H1220 H 0.17513 0.49976 1.01195 0.0
H1221 H 0.09932 0.52785 0.04291 0.0
C1222 C 0.11511 0.55927 0.08452 0.0
C1223 C 0.13574 0.5726 0.09836 0.0
C1224 C 0.15858 0.49286 0.99326 0.0
C1225 C 0.13688 0.52869 0.03497 0.0
C1226 C 0.15814 0.47096 0.96157 0.0
C1227 C 0.13691 0.46155 0.93657 0.0
C1228 C 0.13757 0.50536 1.00088 0.0
C1229 C 0.11642 0.47471 0.94509 0.0
C1230 C 0.11556 0.53761 0.05284 0.0
C1231 C 0.15672 0.56324 0.07933 0.0
N1232 N 0.11726 0.49568 0.97647 0.0
N1233 N 0.15678 0.54188 0.04899 0.0
H1234 H 0.72889 0.9043 0.41386 0.0
H1235 H 0.7885 0.89761 0.13921 0.0
H1236 H 0.68937 0.89514 0.26429 0.0
H1237 H 0.82766 0.90019 0.28875 0.0
H1238 H 0.75188 0.89844 0.18398 0.0
H1239 H 0.76524 0.90475 0.36869 0.0
C1240 C 0.72778 0.90248 0.37169 0.0
C1241 C 0.70587 0.89962 0.34319 0.0
C1242 C 0.76854 0.89883 0.20689 0.0
C1243 C 0.74758 0.90012 0.29082 0.0
C1244 C 0.78949 0.89836 0.18124 0.0
C1245 C 0.81141 0.89874 0.20982 0.0
C1246 C 0.76942 0.89982 0.26167 0.0
C1247 C 0.81136 0.89976 0.26452 0.0
C1248 C 0.74858 0.90268 0.34578 0.0
C1249 C 0.70572 0.8973 0.28831 0.0
N1250 N 0.79088 0.90027 0.28836 0.0
N1251 N 0.7261 0.8976 0.26416 0.0
H1252 H 0.37763 0.4455 0.51252 0.0
H1253 H 0.37719 0.58617 0.565 0.0
H1254 H 0.37487 0.48389 0.66593 0.0
H1255 H 0.37706 0.54764 0.41112 0.0
H1256 H 0.37669 0.54924 0.60205 0.0
H1257 H 0.37787 0.48244 0.47557 0.0
C1258 C 0.37709 0.46167 0.53879 0.0
C1259 C 0.37623 0.46129 0.59293 0.0
C1260 C 0.37675 0.54877 0.56019 0.0
C1261 C 0.3765 0.50428 0.54976 0.0
C1262 C 0.37704 0.56997 0.53866 0.0
C1263 C 0.37717 0.57031 0.48435 0.0
C1264 C 0.37664 0.52735 0.52762 0.0
C1265 C 0.37695 0.54846 0.45301 0.0
C1266 C 0.37721 0.48289 0.5173 0.0
C1267 C 0.37556 0.48311 0.62416 0.0
N1268 N 0.37673 0.52797 0.47504 0.0
N1269 N 0.37572 0.50362 0.60219 0.0
H1270 H 0.82121 0.1051 0.86001 0.0
H1271 H 0.69919 0.16592 0.78834 0.0
H1272 H 0.80291 0.17496 0.92494 0.0
H1273 H 0.72687 0.11087 0.68173 0.0
H1274 H 0.73588 0.16687 0.84277 0.0
H1275 H 0.78602 0.10423 0.79862 0.0
C1276 C 0.80989 0.12031 0.8612 0.0
C1277 C 0.81523 0.14026 0.89743 0.0
C1278 C 0.7341 0.15462 0.80741 0.0
C1279 C 0.77457 0.13912 0.82809 0.0
C1280 C 0.71304 0.154 0.77618 0.0
C1281 C 0.70979 0.13827 0.73013 0.0
C1282 C 0.75225 0.13909 0.79352 0.0
C1283 C 0.72859 0.12338 0.71664 0.0
C1284 C 0.7898 0.11978 0.82612 0.0
C1285 C 0.79964 0.15924 0.8977 0.0
N1286 N 0.74891 0.12397 0.74845 0.0
N1287 N 0.78007 0.15814 0.86397 0.0
H1288 H 0.92528 0.5664 0.09913 0.0
H1289 H 0.84798 0.46031 0.94054 0.0
H1290 H 0.85017 0.57135 0.07327 0.0
H1291 H 0.92212 0.4686 0.92724 0.0
H1292 H 0.84793 0.49865 0.9955 0.0
H1293 H 0.92409 0.52869 0.04319 0.0
C1294 C 0.90847 0.55955 0.08174 0.0
C1295 C 0.8878 0.57222 0.09116 0.0
C1296 C 0.8642 0.4921 0.98046 0.0
C1297 C 0.88624 0.52844 0.0268 0.0
C1298 C 0.86425 0.47015 0.94914 0.0
C1299 C 0.88508 0.46113 0.92888 0.0
C1300 C 0.88522 0.50508 0.99256 0.0
C1301 C 0.90561 0.47477 0.94161 0.0
C1302 C 0.90781 0.53796 0.04957 0.0
C1303 C 0.86657 0.5623 0.06716 0.0
N1304 N 0.90518 0.49582 0.97263 0.0
N1305 N 0.86632 0.54102 0.03651 0.0
H1306 H 0.22808 0.13424 0.91568 0.0
H1307 H 0.29076 0.12602 0.64497 0.0
H1308 H 0.19087 0.13437 0.76459 0.0
H1309 H 0.32915 0.13166 0.79574 0.0
H1310 H 0.25393 0.12724 0.68838 0.0
H1311 H 0.26529 0.1318 0.87306 0.0
C1312 C 0.22765 0.13377 0.87376 0.0
C1313 C 0.2061 0.13456 0.84407 0.0
C1314 C 0.27043 0.12816 0.71198 0.0
C1315 C 0.24875 0.13163 0.79474 0.0
C1316 C 0.29151 0.12739 0.68708 0.0
C1317 C 0.31325 0.12876 0.71644 0.0
C1318 C 0.27094 0.13025 0.76682 0.0
C1319 C 0.31293 0.1306 0.77116 0.0
C1320 C 0.24893 0.13236 0.84935 0.0
C1321 C 0.20685 0.13385 0.7896 0.0
N1322 N 0.29225 0.1313 0.79439 0.0
N1323 N 0.22765 0.13242 0.76698 0.0
H1324 H 0.67057 0.57043 0.44067 0.0
H1325 H 0.60764 0.48583 0.61328 0.0
H1326 H 0.59532 0.56959 0.44378 0.0
H1327 H 0.66585 0.4621 0.52463 0.0
H1328 H 0.60642 0.52218 0.57079 0.0
H1329 H 0.67274 0.53635 0.49026 0.0
C1330 C 0.65451 0.56325 0.45215 0.0
C1331 C 0.63271 0.5729 0.43753 0.0
C1332 C 0.61963 0.50911 0.56118 0.0
C1333 C 0.63513 0.53406 0.49576 0.0
C1334 C 0.62048 0.48844 0.58581 0.0
C1335 C 0.63699 0.47083 0.57294 0.0
C1336 C 0.63584 0.51263 0.52438 0.0
C1337 C 0.65288 0.47515 0.53607 0.0
C1338 C 0.65576 0.54373 0.48037 0.0
C1339 C 0.6125 0.56269 0.45372 0.0
N1340 N 0.65205 0.49552 0.51362 0.0
N1341 N 0.6142 0.54406 0.48214 0.0
H1342 H 0.31966 0.87173 0.24338 0.0
H1343 H 0.19535 0.92988 0.17985 0.0
H1344 H 0.29081 0.92399 0.35477 0.0
H1345 H 0.21511 0.86133 0.1097 0.0
H1346 H 0.23107 0.931 0.23966 0.0
H1347 H 0.28277 0.87065 0.18959 0.0
C1348 C 0.30553 0.88303 0.25669 0.0
C1349 C 0.30851 0.89801 0.30393 0.0
C1350 C 0.2275 0.91568 0.21134 0.0
C1351 C 0.26581 0.897 0.24134 0.0
C1352 C 0.20712 0.91501 0.17718 0.0
C1353 C 0.20201 0.89533 0.14002 0.0
C1354 C 0.24328 0.89679 0.2075 0.0
C1355 C 0.21818 0.87682 0.13775 0.0
C1356 C 0.28437 0.88232 0.22583 0.0
C1357 C 0.28935 0.9121 0.31888 0.0
N1358 N 0.23803 0.87806 0.17066 0.0
N1359 N 0.2689 0.91143 0.28746 0.0
H1360 H 0.66957 0.96003 0.4699 0.0
H1361 H 0.59578 0.0671 0.60689 0.0
H1362 H 0.59486 0.96763 0.44144 0.0
H1363 H 0.67055 0.07222 0.59804 0.0
H1364 H 0.59577 0.02888 0.55329 0.0
H1365 H 0.67104 0.99883 0.52335 0.0
C1366 C 0.65348 0.96979 0.47491 0.0
C1367 C 0.63205 0.96044 0.45081 0.0
C1368 C 0.61224 0.03827 0.5629 0.0
C1369 C 0.63357 1.00495 0.51263 0.0
C1370 C 0.61227 0.06018 0.59375 0.0
C1371 C 0.63319 0.07307 0.60728 0.0
C1372 C 0.63336 0.02863 0.54555 0.0
C1373 C 0.65397 0.06301 0.58866 0.0
C1374 C 0.65434 0.99201 0.50534 0.0
C1375 C 0.6118 0.97403 0.45891 0.0
N1376 N 0.65356 0.04142 0.55916 0.0
N1377 N 0.61304 0.99533 0.48908 0.0
H1378 H 0.2299 0.42161 0.88444 0.0
H1379 H 0.29909 0.35315 0.65276 0.0
H1380 H 0.19822 0.36902 0.76719 0.0
H1381 H 0.32015 0.4229 0.72107 0.0
H1382 H 0.26503 0.35586 0.70516 0.0
H1383 H 0.26595 0.41957 0.83653 0.0
C1384 C 0.23053 0.40951 0.84908 0.0
C1385 C 0.21079 0.39552 0.83 0.0
C1386 C 0.27713 0.37058 0.70903 0.0
C1387 C 0.25216 0.39292 0.77515 0.0
C1388 C 0.29667 0.36903 0.67901 0.0
C1389 C 0.3128 0.38772 0.68252 0.0
C1390 C 0.27351 0.39088 0.74381 0.0
C1391 C 0.30845 0.40788 0.71741 0.0
C1392 C 0.25108 0.40847 0.82153 0.0
C1393 C 0.21277 0.38029 0.78355 0.0
N1394 N 0.28939 0.40888 0.74684 0.0
N1395 N 0.23291 0.37932 0.75823 0.0
H1396 H 0.85125 0.95212 0.07593 0.0
H1397 H 0.90572 0.07865 0.05639 0.0
H1398 H 0.91925 0.97488 0.14699 0.0
H1399 H 0.85698 0.04616 0.93389 0.0
H1400 H 0.9075 0.04207 0.09553 0.0
H1401 H 0.84962 0.9871 0.02895 0.0
C1402 C 0.86592 0.96429 0.08141 0.0
C1403 C 0.88557 0.96023 0.11525 0.0
C1404 C 0.89647 0.04278 0.05996 0.0
C1405 C 0.88348 1.00084 0.06255 0.0
C1406 C 0.89539 0.06378 0.03745 0.0
C1407 C 0.88123 0.0657 0.99137 0.0
C1408 C 0.88289 0.02326 0.03735 0.0
C1409 C 0.86831 0.04557 0.96904 0.0
C1410 C 0.86495 0.98431 0.05457 0.0
C1411 C 0.90378 0.97704 0.12133 0.0
N1412 N 0.86923 0.02534 0.99248 0.0
N1413 N 0.9022 0.9965 0.09581 0.0
H1414 H 0.22861 0.61174 0.17049 0.0
H1415 H 0.30443 0.6791 0.4173 0.0
H1416 H 0.20049 0.66491 0.2809 0.0
H1417 H 0.32215 0.609 0.35284 0.0
H1418 H 0.26897 0.67706 0.35767 0.0
H1419 H 0.2658 0.61335 0.22632 0.0
C1420 C 0.23027 0.62386 0.20605 0.0
C1421 C 0.21126 0.63814 0.22094 0.0
C1422 C 0.28064 0.66212 0.3563 0.0
C1423 C 0.25379 0.64024 0.28469 0.0
C1424 C 0.30094 0.66328 0.39045 0.0
C1425 C 0.31651 0.64429 0.38993 0.0
C1426 C 0.27578 0.6419 0.32059 0.0
C1427 C 0.31087 0.62421 0.35416 0.0
C1428 C 0.25144 0.62466 0.23807 0.0
C1429 C 0.21449 0.65343 0.26777 0.0
N1430 N 0.2911 0.62358 0.32073 0.0
N1431 N 0.23521 0.65414 0.29753 0.0
H1432 H 0.34751 0.96081 0.43953 0.0
H1433 H 0.42574 0.06271 0.61003 0.0
H1434 H 0.42193 0.96856 0.42889 0.0
H1435 H 0.35068 0.06869 0.58457 0.0
H1436 H 0.42429 0.02618 0.55011 0.0
H1437 H 0.3478 0.99799 0.49857 0.0
C1438 C 0.3639 0.97031 0.44958 0.0
C1439 C 0.38472 0.96152 0.429 0.0
C1440 C 0.40809 0.03543 0.55744 0.0
C1441 C 0.38524 1.00404 0.49707 0.0
C1442 C 0.4089 0.05632 0.59185 0.0
C1443 C 0.38831 0.06888 0.60248 0.0
C1444 C 0.38645 0.02659 0.53365 0.0
C1445 C 0.36701 0.05966 0.57748 0.0
C1446 C 0.36405 0.99157 0.48319 0.0
C1447 C 0.40543 0.97464 0.44352 0.0
N1448 N 0.36661 0.03905 0.54458 0.0
N1449 N 0.40518 0.99503 0.47668 0.0
H1450 H 0.78964 0.62793 0.13084 0.0
H1451 H 0.73032 0.63459 0.40609 0.0
H1452 H 0.8293 0.63662 0.28023 0.0
H1453 H 0.69082 0.6313 0.25686 0.0
H1454 H 0.76683 0.63395 0.36096 0.0
H1455 H 0.75331 0.62756 0.17618 0.0
C1456 C 0.7908 0.62967 0.173 0.0
C1457 C 0.81277 0.63235 0.20136 0.0
C1458 C 0.75013 0.63336 0.33816 0.0
C1459 C 0.77101 0.63195 0.25399 0.0
C1460 C 0.72923 0.63372 0.36404 0.0
C1461 C 0.70722 0.63305 0.33569 0.0
C1462 C 0.74916 0.63222 0.28333 0.0
C1463 C 0.70718 0.63192 0.28093 0.0
C1464 C 0.76999 0.62951 0.19902 0.0
C1465 C 0.81292 0.63458 0.25626 0.0
N1466 N 0.72763 0.63153 0.25686 0.0
N1467 N 0.79254 0.63433 0.2805 0.0
H1468 H 0.09622 0.06106 0.89888 0.0
H1469 H 0.15917 0.98825 0.1147 0.0
H1470 H 0.16456 0.08189 0.97125 0.0
H1471 H 0.11299 0.95666 0.98621 0.0
H1472 H 0.15758 0.02549 0.07548 0.0
H1473 H 0.09825 0.02565 0.94288 0.0
C1474 C 0.11162 0.05834 0.92436 0.0
C1475 C 0.13014 0.07478 0.93147 0.0
C1476 C 0.14777 1.01038 0.05611 0.0
C1477 C 0.13245 0.03396 0.98307 0.0
C1478 C 0.14853 0.98915 0.07867 0.0
C1479 C 0.13622 0.96911 0.05385 0.0
C1480 C 0.13411 1.01183 1.00904 0.0
C1481 C 0.12289 0.97145 1.00686 0.0
C1482 C 0.11277 0.03802 0.9495 0.0
C1483 C 0.14967 0.06999 0.96504 0.0
N1484 N 0.12207 0.99226 0.98643 0.0
N1485 N 0.15025 0.05018 0.9898 0.0
H1486 H 0.69269 0.42963 0.69899 0.0
H1487 H 0.81891 0.37178 0.74651 0.0
H1488 H 0.71227 0.36263 0.6205 0.0
H1489 H 0.79145 0.42183 0.86449 0.0
H1490 H 0.78123 0.37136 0.69563 0.0
H1491 H 0.72944 0.43019 0.75546 0.0
C1492 C 0.7046 0.41496 0.69377 0.0
C1493 C 0.69909 0.39588 0.65519 0.0
C1494 C 0.7833 0.38241 0.73268 0.0
C1495 C 0.74168 0.39675 0.71894 0.0
C1496 C 0.80495 0.38274 0.76192 0.0
C1497 C 0.80859 0.39687 0.81025 0.0
C1498 C 0.76486 0.39664 0.75087 0.0
C1499 C 0.78955 0.41056 0.82774 0.0
C1500 C 0.72563 0.41533 0.72604 0.0
C1501 C 0.71558 0.37766 0.6497 0.0
N1502 N 0.76863 0.41028 0.79793 0.0
N1503 N 0.73602 0.37862 0.6808 0.0
loop_
_geom_bond_atom_site_label_1
_geom_bond_atom_site_label_2
_geom_bond_distance
_geom_bond_site_symmetry_2
_ccdc_geom_bond_type
La0 C2 2.928 1_554 S
La0 O20 2.521 1_554 S
La0 O21 2.628 1_554 S
La0 O22 2.554 . S
La0 O23 2.757 . S
La0 O24 2.470 . S
La0 O29 2.482 . S
La0 O31 2.503 . S
La1 C11 2.928 . S
La1 O23 2.482 . S
La1 O25 2.503 . S
La1 O26 2.521 . S
La1 O27 2.628 . S
La1 O28 2.554 . S
La1 O29 2.757 . S
La1 O30 2.470 . S
C2 La0 2.928 1_556 S
C2 C3 1.503 . S
C2 O20 1.261 . S
C2 O21 1.243 . S
C3 C2 1.503 . S
C3 C4 1.394 . S
C3 C8 1.373 . S
C4 C3 1.394 . S
C4 C5 1.380 . S
C4 H32 0.930 . S
C5 C4 1.380 . S
C5 C6 1.376 . S
C5 H33 0.930 . S
C6 C5 1.376 . S
C6 C7 1.370 . S
C7 C6 1.370 . S
C7 C8 1.396 . S
C7 H34 0.929 . S
C8 C3 1.373 . S
C8 C7 1.396 . S
C8 H35 0.929 . S
C9 O22 1.240 . S
C9 O23 1.289 . S
C10 O24 1.258 . S
C10 O25 1.256 . S
C11 La1 2.928 . S
C11 C12 1.503 . S
C11 O26 1.261 . S
C11 O27 1.243 . S
C12 C11 1.503 . S
C12 C13 1.394 . S
C12 C17 1.373 . S
C13 C12 1.394 . S
C13 C14 1.380 . S
C13 H36 0.930 . S
C14 C13 1.380 . S
C14 C15 1.376 . S
C14 H37 0.930 . S
C15 C14 1.376 . S
C15 C16 1.370 . S
C16 C15 1.370 . S
C16 C17 1.396 . S
C16 H38 0.929 . S
C17 C12 1.373 . S
C17 C16 1.396 . S
C17 H39 0.929 . S
C18 O28 1.240 . S
C18 O29 1.289 . S
C19 O30 1.258 . S
C19 O31 1.256 . S
O20 La0 2.521 1_556 S
O20 C2 1.261 . S
O21 La0 2.628 1_556 S
O21 C2 1.243 . S
O22 La0 2.554 . S
O22 C9 1.240 . S
O23 La0 2.757 . S
O23 La1 2.482 . S
O23 C9 1.289 . S
O24 La0 2.470 . S
O24 C10 1.258 . S
O25 La1 2.503 . S
O25 C10 1.256 . S
O26 La1 2.521 . S
O26 C11 1.261 . S
O27 La1 2.628 . S
O27 C11 1.243 . S
O28 La1 2.554 . S
O28 C18 1.240 . S
O29 La0 2.482 . S
O29 La1 2.757 . S
O29 C18 1.289 . S
O30 La1 2.470 . S
O30 C19 1.258 . S
O31 La0 2.503 . S
O31 C19 1.256 . S
H32 C4 0.930 . S
H33 C5 0.930 . S
H34 C7 0.929 . S
H35 C8 0.929 . S
H36 C13 0.930 . S
H37 C14 0.930 . S
H38 C16 0.929 . S
H39 C17 0.929 . S
La40 C42 2.928 . S
La40 O60 2.521 . S
La40 O61 2.628 . S
La40 O62 2.554 . S
La40 O63 2.757 . S
La40 O64 2.470 . S
La40 O69 2.482 . S
La40 O71 2.503 . S
La41 C51 2.928 . S
La41 O63 2.482 . S
La41 O65 2.503 . S
La41 O66 2.521 . S
La41 O67 2.628 . S
La41 O68 2.554 . S
La41 O69 2.757 . S
La41 O70 2.470 . S
C42 La40 2.928 . S
C42 C43 1.503 . S
C42 O60 1.261 . S
C42 O61 1.243 . S
C43 C42 1.503 . S
C43 C44 1.394 . S
C43 C48 1.373 . S
C44 C43 1.394 . S
C44 C45 1.380 . S
C44 H72 0.930 . S
C45 C44 1.380 . S
C45 C46 1.376 . S
C45 H73 0.930 . S
C46 C45 1.376 . S
C46 C47 1.370 . S
C47 C46 1.370 . S
C47 C48 1.396 . S
C47 H74 0.929 . S
C48 C43 1.373 . S
C48 C47 1.396 . S
C48 H75 0.929 . S
C49 O62 1.240 . S
C49 O63 1.289 . S
C50 O64 1.258 . S
C50 O65 1.256 . S
C51 La41 2.928 . S
C51 C52 1.503 . S
C51 O66 1.261 . S
C51 O67 1.243 . S
C52 C51 1.503 . S
C52 C53 1.394 . S
C52 C57 1.373 . S
C53 C52 1.394 . S
C53 C54 1.380 . S
C53 H76 0.930 . S
C54 C53 1.380 . S
C54 C55 1.376 . S
C54 H77 0.930 . S
C55 C54 1.376 . S
C55 C56 1.370 . S
C56 C55 1.370 . S
C56 C57 1.396 . S
C56 H78 0.929 . S
C57 C52 1.373 . S
C57 C56 1.396 . S
C57 H79 0.929 . S
C58 O68 1.240 . S
C58 O69 1.289 . S
C59 O70 1.258 . S
C59 O71 1.256 . S
O60 La40 2.521 . S
O60 C42 1.261 . S
O61 La40 2.628 . S
O61 C42 1.243 . S
O62 La40 2.554 . S
O62 C49 1.240 . S
O63 La40 2.757 . S
O63 La41 2.482 . S
O63 C49 1.289 . S
O64 La40 2.470 . S
O64 C50 1.258 . S
O65 La41 2.503 . S
O65 C50 1.256 . S
O66 La41 2.521 . S
O66 C51 1.261 . S
O67 La41 2.628 . S
O67 C51 1.243 . S
O68 La41 2.554 . S
O68 C58 1.240 . S
O69 La40 2.482 . S
O69 La41 2.757 . S
O69 C58 1.289 . S
O70 La41 2.470 . S
O70 C59 1.258 . S
O71 La40 2.503 . S
O71 C59 1.256 . S
H72 C44 0.930 . S
H73 C45 0.930 . S
H74 C47 0.929 . S
H75 C48 0.929 . S
H76 C53 0.930 . S
H77 C54 0.930 . S
H78 C56 0.929 . S
H79 C57 0.929 . S
La80 C82 2.928 . S
La80 O100 2.521 . S
La80 O101 2.628 . S
La80 O102 2.554 . S
La80 O103 2.757 . S
La80 O104 2.470 . S
La80 O109 2.482 . S
La80 O111 2.503 . S
La81 C91 2.928 . S
La81 O103 2.482 . S
La81 O105 2.503 . S
La81 O106 2.521 . S
La81 O107 2.628 . S
La81 O108 2.554 . S
La81 O109 2.757 . S
La81 O110 2.470 . S
C82 La80 2.928 . S
C82 C83 1.503 . S
C82 O100 1.261 . S
C82 O101 1.243 . S
C83 C82 1.503 . S
C83 C84 1.394 . S
C83 C88 1.373 . S
C84 C83 1.394 . S
C84 C85 1.380 . S
C84 H112 0.930 . S
C85 C84 1.380 . S
C85 C86 1.376 . S
C85 H113 0.930 . S
C86 C85 1.376 . S
C86 C87 1.370 . S
C87 C86 1.370 . S
C87 C88 1.396 . S
C87 H114 0.929 . S
C88 C83 1.373 . S
C88 C87 1.396 . S
C88 H115 0.929 . S
C89 O102 1.240 . S
C89 O103 1.289 . S
C90 O104 1.258 . S
C90 O105 1.256 . S
C91 La81 2.928 . S
C91 C92 1.503 . S
C91 O106 1.261 . S
C91 O107 1.243 . S
C92 C91 1.503 . S
C92 C93 1.394 . S
C92 C97 1.373 . S
C93 C92 1.394 . S
C93 C94 1.380 . S
C93 H116 0.930 . S
C94 C93 1.380 . S
C94 C95 1.376 . S
C94 H117 0.930 . S
C95 C94 1.376 . S
C95 C96 1.370 . S
C96 C95 1.370 . S
C96 C97 1.396 . S
C96 H118 0.929 . S
C97 C92 1.373 . S
C97 C96 1.396 . S
C97 H119 0.929 . S
C98 O108 1.240 . S
C98 O109 1.289 . S
C99 O110 1.258 . S
C99 O111 1.256 . S
O100 La80 2.521 . S
O100 C82 1.261 . S
O101 La80 2.628 . S
O101 C82 1.243 . S
O102 La80 2.554 . S
O102 C89 1.240 . S
O103 La80 2.757 . S
O103 La81 2.482 . S
O103 C89 1.289 . S
O104 La80 2.470 . S
O104 C90 1.258 . S
O105 La81 2.503 . S
O105 C90 1.256 . S
O106 La81 2.521 . S
O106 C91 1.261 . S
O107 La81 2.628 . S
O107 C91 1.243 . S
O108 La81 2.554 . S
O108 C98 1.240 . S
O109 La80 2.482 . S
O109 La81 2.757 . S
O109 C98 1.289 . S
O110 La81 2.470 . S
O110 C99 1.258 . S
O111 La80 2.503 . S
O111 C99 1.256 . S
H112 C84 0.930 . S
H113 C85 0.930 . S
H114 C87 0.929 . S
H115 C88 0.929 . S
H116 C93 0.930 . S
H117 C94 0.930 . S
H118 C96 0.929 . S
H119 C97 0.929 . S
La120 C122 2.928 . S
La120 O140 2.521 . S
La120 O141 2.628 . S
La120 O142 2.554 . S
La120 O143 2.757 . S
La120 O144 2.470 . S
La120 O149 2.482 . S
La120 O151 2.503 . S
La121 C131 2.928 . S
La121 O143 2.482 1_554 S
La121 O145 2.503 1_554 S
La121 O146 2.521 . S
La121 O147 2.628 . S
La121 O148 2.554 1_554 S
La121 O149 2.757 1_554 S
La121 O150 2.470 . S
C122 La120 2.928 . S
C122 C123 1.503 . S
C122 O140 1.261 . S
C122 O141 1.243 . S
C123 C122 1.503 . S
C123 C124 1.394 . S
C123 C128 1.373 . S
C124 C123 1.394 . S
C124 C125 1.380 . S
C124 H152 0.930 . S
C125 C124 1.380 . S
C125 C126 1.376 . S
C125 H153 0.930 . S
C126 C125 1.376 . S
C126 C127 1.370 . S
C127 C126 1.370 . S
C127 C128 1.396 . S
C127 H154 0.929 . S
C128 C123 1.373 . S
C128 C127 1.396 . S
C128 H155 0.929 . S
C129 O142 1.240 . S
C129 O143 1.289 . S
C130 O144 1.258 . S
C130 O145 1.256 . S
C131 La121 2.928 . S
C131 C132 1.503 . S
C131 O146 1.261 . S
C131 O147 1.243 . S
C132 C131 1.503 . S
C132 C133 1.394 . S
C132 C137 1.373 . S
C133 C132 1.394 . S
C133 C134 1.380 . S
C133 H156 0.930 . S
C134 C133 1.380 . S
C134 C135 1.376 . S
C134 H157 0.930 . S
C135 C134 1.376 . S
C135 C136 1.370 . S
C136 C135 1.370 . S
C136 C137 1.396 . S
C136 H158 0.929 . S
C137 C132 1.373 . S
C137 C136 1.396 . S
C137 H159 0.929 . S
C138 O148 1.240 . S
C138 O149 1.289 . S
C139 O150 1.258 1_556 S
C139 O151 1.256 . S
O140 La120 2.521 . S
O140 C122 1.261 . S
O141 La120 2.628 . S
O141 C122 1.243 . S
O142 La120 2.554 . S
O142 C129 1.240 . S
O143 La120 2.757 . S
O143 La121 2.482 1_556 S
O143 C129 1.289 . S
O144 La120 2.470 . S
O144 C130 1.258 . S
O145 La121 2.503 1_556 S
O145 C130 1.256 . S
O146 La121 2.521 . S
O146 C131 1.261 . S
O147 La121 2.628 . S
O147 C131 1.243 . S
O148 La121 2.554 1_556 S
O148 C138 1.240 . S
O149 La120 2.482 . S
O149 La121 2.757 1_556 S
O149 C138 1.289 . S
O150 La121 2.470 . S
O150 C139 1.258 1_554 S
O151 La120 2.503 . S
O151 C139 1.256 . S
H152 C124 0.930 . S
H153 C125 0.930 . S
H154 C127 0.929 . S
H155 C128 0.929 . S
H156 C133 0.930 . S
H157 C134 0.930 . S
H158 C136 0.929 . S
H159 C137 0.929 . S
La160 C162 2.928 1_556 S
La160 O180 2.521 1_556 S
La160 O181 2.628 1_556 S
La160 O182 2.554 . S
La160 O183 2.757 . S
La160 O184 2.470 . S
La160 O189 2.482 . S
La160 O191 2.503 . S
La161 C171 2.928 . S
La161 O183 2.482 . S
La161 O185 2.503 . S
La161 O186 2.521 . S
La161 O187 2.628 . S
La161 O188 2.554 . S
La161 O189 2.757 . S
La161 O190 2.470 . S
C162 La160 2.928 1_554 S
C162 C163 1.503 . S
C162 O180 1.261 . S
C162 O181 1.243 . S
C163 C162 1.503 . S
C163 C164 1.394 . S
C163 C168 1.373 . S
C164 C163 1.394 . S
C164 C165 1.380 . S
C164 H192 0.930 . S
C165 C164 1.380 . S
C165 C166 1.376 . S
C165 H193 0.930 . S
C166 C165 1.376 . S
C166 C167 1.370 . S
C167 C166 1.370 . S
C167 C168 1.396 . S
C167 H194 0.929 . S
C168 C163 1.373 . S
C168 C167 1.396 . S
C168 H195 0.929 . S
C169 O182 1.240 . S
C169 O183 1.289 . S
C170 O184 1.258 . S
C170 O185 1.256 . S
C171 La161 2.928 . S
C171 C172 1.503 . S
C171 O186 1.261 . S
C171 O187 1.243 . S
C172 C171 1.503 . S
C172 C173 1.394 . S
C172 C177 1.373 . S
C173 C172 1.394 . S
C173 C174 1.380 . S
C173 H196 0.930 . S
C174 C173 1.380 . S
C174 C175 1.376 . S
C174 H197 0.930 . S
C175 C174 1.376 . S
C175 C176 1.370 . S
C176 C175 1.370 . S
C176 C177 1.396 . S
C176 H198 0.929 . S
C177 C172 1.373 . S
C177 C176 1.396 . S
C177 H199 0.929 . S
C178 O188 1.240 . S
C178 O189 1.289 . S
C179 O190 1.258 . S
C179 O191 1.256 . S
O180 La160 2.521 1_554 S
O180 C162 1.261 . S
O181 La160 2.628 1_554 S
O181 C162 1.243 . S
O182 La160 2.554 . S
O182 C169 1.240 . S
O183 La160 2.757 . S
O183 La161 2.482 . S
O183 C169 1.289 . S
O184 La160 2.470 . S
O184 C170 1.258 . S
O185 La161 2.503 . S
O185 C170 1.256 . S
O186 La161 2.521 . S
O186 C171 1.261 . S
O187 La161 2.628 . S
O187 C171 1.243 . S
O188 La161 2.554 . S
O188 C178 1.240 . S
O189 La160 2.482 . S
O189 La161 2.757 . S
O189 C178 1.289 . S
O190 La161 2.470 . S
O190 C179 1.258 . S
O191 La160 2.503 . S
O191 C179 1.256 . S
H192 C164 0.930 . S
H193 C165 0.930 . S
H194 C167 0.929 . S
H195 C168 0.929 . S
H196 C173 0.930 . S
H197 C174 0.930 . S
H198 C176 0.929 . S
H199 C177 0.929 . S
La200 C202 2.928 1_554 S
La200 O220 2.521 1_554 S
La200 O221 2.628 1_554 S
La200 O222 2.554 . S
La200 O223 2.757 . S
La200 O224 2.470 . S
La200 O229 2.482 . S
La200 O231 2.503 . S
La201 C211 2.928 . S
La201 O223 2.482 . S
La201 O225 2.503 . S
La201 O226 2.521 . S
La201 O227 2.628 . S
La201 O228 2.554 . S
La201 O229 2.757 . S
La201 O230 2.470 . S
C202 La200 2.928 1_556 S
C202 C203 1.503 . S
C202 O220 1.261 . S
C202 O221 1.243 . S
C203 C202 1.503 . S
C203 C204 1.394 . S
C203 C208 1.373 . S
C204 C203 1.394 . S
C204 C205 1.380 . S
C204 H232 0.930 . S
C205 C204 1.380 . S
C205 C206 1.376 . S
C205 H233 0.930 . S
C206 C205 1.376 . S
C206 C207 1.370 . S
C207 C206 1.370 . S
C207 C208 1.396 . S
C207 H234 0.929 . S
C208 C203 1.373 . S
C208 C207 1.396 . S
C208 H235 0.929 . S
C209 O222 1.240 . S
C209 O223 1.289 . S
C210 O224 1.258 . S
C210 O225 1.256 . S
C211 La201 2.928 . S
C211 C212 1.503 . S
C211 O226 1.261 . S
C211 O227 1.243 . S
C212 C211 1.503 . S
C212 C213 1.394 . S
C212 C217 1.373 . S
C213 C212 1.394 . S
C213 C214 1.380 . S
C213 H236 0.930 . S
C214 C213 1.380 . S
C214 C215 1.376 . S
C214 H237 0.930 . S
C215 C214 1.376 . S
C215 C216 1.370 . S
C216 C215 1.370 . S
C216 C217 1.396 . S
C216 H238 0.929 . S
C217 C212 1.373 . S
C217 C216 1.396 . S
C217 H239 0.929 . S
C218 O228 1.240 . S
C218 O229 1.289 . S
C219 O230 1.258 . S
C219 O231 1.256 . S
O220 La200 2.521 1_556 S
O220 C202 1.261 . S
O221 La200 2.628 1_556 S
O221 C202 1.243 . S
O222 La200 2.554 . S
O222 C209 1.240 . S
O223 La200 2.757 . S
O223 La201 2.482 . S
O223 C209 1.289 . S
O224 La200 2.470 . S
O224 C210 1.258 . S
O225 La201 2.503 . S
O225 C210 1.256 . S
O226 La201 2.521 . S
O226 C211 1.261 . S
O227 La201 2.628 . S
O227 C211 1.243 . S
O228 La201 2.554 . S
O228 C218 1.240 . S
O229 La200 2.482 . S
O229 La201 2.757 . S
O229 C218 1.289 . S
O230 La201 2.470 . S
O230 C219 1.258 . S
O231 La200 2.503 . S
O231 C219 1.256 . S
H232 C204 0.930 . S
H233 C205 0.930 . S
H234 C207 0.929 . S
H235 C208 0.929 . S
H236 C213 0.930 . S
H237 C214 0.930 . S
H238 C216 0.929 . S
H239 C217 0.929 . S
La240 C242 2.928 . S
La240 O260 2.521 . S
La240 O261 2.628 . S
La240 O262 2.554 . S
La240 O263 2.757 . S
La240 O264 2.470 . S
La240 O269 2.482 . S
La240 O271 2.503 . S
La241 C251 2.928 . S
La241 O263 2.482 . S
La241 O265 2.503 . S
La241 O266 2.521 . S
La241 O267 2.628 . S
La241 O268 2.554 . S
La241 O269 2.757 . S
La241 O270 2.470 . S
C242 La240 2.928 . S
C242 C243 1.503 . S
C242 O260 1.261 . S
C242 O261 1.243 . S
C243 C242 1.503 . S
C243 C244 1.394 . S
C243 C248 1.373 . S
C244 C243 1.394 . S
C244 C245 1.380 . S
C244 H272 0.930 . S
C245 C244 1.380 . S
C245 C246 1.376 . S
C245 H273 0.930 . S
C246 C245 1.376 . S
C246 C247 1.370 . S
C247 C246 1.370 . S
C247 C248 1.396 . S
C247 H274 0.929 . S
C248 C243 1.373 . S
C248 C247 1.396 . S
C248 H275 0.929 . S
C249 O262 1.240 . S
C249 O263 1.289 . S
C250 O264 1.258 . S
C250 O265 1.256 . S
C251 La241 2.928 . S
C251 C252 1.503 . S
C251 O266 1.261 . S
C251 O267 1.243 . S
C252 C251 1.503 . S
C252 C253 1.394 . S
C252 C257 1.373 . S
C253 C252 1.394 . S
C253 C254 1.380 . S
C253 H276 0.930 . S
C254 C253 1.380 . S
C254 C255 1.376 . S
C254 H277 0.930 . S
C255 C254 1.376 . S
C255 C256 1.370 . S
C256 C255 1.370 . S
C256 C257 1.396 . S
C256 H278 0.929 . S
C257 C252 1.373 . S
C257 C256 1.396 . S
C257 H279 0.929 . S
C258 O268 1.240 . S
C258 O269 1.289 . S
C259 O270 1.258 . S
C259 O271 1.256 . S
O260 La240 2.521 . S
O260 C242 1.261 . S
O261 La240 2.628 . S
O261 C242 1.243 . S
O262 La240 2.554 . S
O262 C249 1.240 . S
O263 La240 2.757 . S
O263 La241 2.482 . S
O263 C249 1.289 . S
O264 La240 2.470 . S
O264 C250 1.258 . S
O265 La241 2.503 . S
O265 C250 1.256 . S
O266 La241 2.521 . S
O266 C251 1.261 . S
O267 La241 2.628 . S
O267 C251 1.243 . S
O268 La241 2.554 . S
O268 C258 1.240 . S
O269 La240 2.482 . S
O269 La241 2.757 . S
O269 C258 1.289 . S
O270 La241 2.470 . S
O270 C259 1.258 . S
O271 La240 2.503 . S
O271 C259 1.256 . S
H272 C244 0.930 . S
H273 C245 0.930 . S
H274 C247 0.929 . S
H275 C248 0.929 . S
H276 C253 0.930 . S
H277 C254 0.930 . S
H278 C256 0.929 . S
H279 C257 0.929 . S
La280 C282 2.928 . S
La280 O300 2.521 . S
La280 O301 2.628 . S
La280 O302 2.554 . S
La280 O303 2.757 . S
La280 O304 2.470 . S
La280 O309 2.482 . S
La280 O311 2.503 . S
La281 C291 2.928 . S
La281 O303 2.482 . S
La281 O305 2.503 . S
La281 O306 2.521 . S
La281 O307 2.628 . S
La281 O308 2.554 . S
La281 O309 2.757 . S
La281 O310 2.470 . S
C282 La280 2.928 . S
C282 C283 1.503 . S
C282 O300 1.261 . S
C282 O301 1.243 . S
C283 C282 1.503 . S
C283 C284 1.394 . S
C283 C288 1.373 . S
C284 C283 1.394 . S
C284 C285 1.380 . S
C284 H312 0.930 . S
C285 C284 1.380 . S
C285 C286 1.376 . S
C285 H313 0.930 . S
C286 C285 1.376 . S
C286 C287 1.370 . S
C287 C286 1.370 . S
C287 C288 1.396 . S
C287 H314 0.929 . S
C288 C283 1.373 . S
C288 C287 1.396 . S
C288 H315 0.929 . S
C289 O302 1.240 . S
C289 O303 1.289 . S
C290 O304 1.258 . S
C290 O305 1.256 . S
C291 La281 2.928 . S
C291 C292 1.503 . S
C291 O306 1.261 . S
C291 O307 1.243 . S
C292 C291 1.503 . S
C292 C293 1.394 . S
C292 C297 1.373 . S
C293 C292 1.394 . S
C293 C294 1.380 . S
C293 H316 0.930 . S
C294 C293 1.380 . S
C294 C295 1.376 . S
C294 H317 0.930 . S
C295 C294 1.376 . S
C295 C296 1.370 . S
C296 C295 1.370 . S
C296 C297 1.396 . S
C296 H318 0.929 . S
C297 C292 1.373 . S
C297 C296 1.396 . S
C297 H319 0.929 . S
C298 O308 1.240 . S
C298 O309 1.289 . S
C299 O310 1.258 . S
C299 O311 1.256 . S
O300 La280 2.521 . S
O300 C282 1.261 . S
O301 La280 2.628 . S
O301 C282 1.243 . S
O302 La280 2.554 . S
O302 C289 1.240 . S
O303 La280 2.757 . S
O303 La281 2.482 . S
O303 C289 1.289 . S
O304 La280 2.470 . S
O304 C290 1.258 . S
O305 La281 2.503 . S
O305 C290 1.256 . S
O306 La281 2.521 . S
O306 C291 1.261 . S
O307 La281 2.628 . S
O307 C291 1.243 . S
O308 La281 2.554 . S
O308 C298 1.240 . S
O309 La280 2.482 . S
O309 La281 2.757 . S
O309 C298 1.289 . S
O310 La281 2.470 . S
O310 C299 1.258 . S
O311 La280 2.503 . S
O311 C299 1.256 . S
H312 C284 0.930 . S
H313 C285 0.930 . S
H314 C287 0.929 . S
H315 C288 0.929 . S
H316 C293 0.930 . S
H317 C294 0.930 . S
H318 C296 0.929 . S
H319 C297 0.929 . S
La320 C322 2.928 . S
La320 O340 2.521 . S
La320 O341 2.628 . S
La320 O342 2.554 . S
La320 O343 2.757 . S
La320 O344 2.470 . S
La320 O349 2.482 . S
La320 O351 2.503 . S
La321 C331 2.928 1_556 S
La321 O343 2.482 . S
La321 O345 2.503 . S
La321 O346 2.521 1_556 S
La321 O347 2.628 1_556 S
La321 O348 2.554 . S
La321 O349 2.757 . S
La321 O350 2.470 . S
C322 La320 2.928 . S
C322 C323 1.503 . S
C322 O340 1.261 . S
C322 O341 1.243 . S
C323 C322 1.503 . S
C323 C324 1.394 . S
C323 C328 1.373 . S
C324 C323 1.394 . S
C324 C325 1.380 . S
C324 H352 0.930 . S
C325 C324 1.380 . S
C325 C326 1.376 . S
C325 H353 0.930 . S
C326 C325 1.376 . S
C326 C327 1.370 . S
C327 C326 1.370 . S
C327 C328 1.396 . S
C327 H354 0.929 . S
C328 C323 1.373 . S
C328 C327 1.396 . S
C328 H355 0.929 . S
C329 O342 1.240 . S
C329 O343 1.289 . S
C330 O344 1.258 . S
C330 O345 1.256 . S
C331 La321 2.928 1_554 S
C331 C332 1.503 . S
C331 O346 1.261 . S
C331 O347 1.243 . S
C332 C331 1.503 . S
C332 C333 1.394 . S
C332 C337 1.373 . S
C333 C332 1.394 . S
C333 C334 1.380 . S
C333 H356 0.930 . S
C334 C333 1.380 . S
C334 C335 1.376 . S
C334 H357 0.930 . S
C335 C334 1.376 . S
C335 C336 1.370 . S
C336 C335 1.370 . S
C336 C337 1.396 . S
C336 H358 0.929 . S
C337 C332 1.373 . S
C337 C336 1.396 . S
C337 H359 0.929 . S
C338 O348 1.240 . S
C338 O349 1.289 . S
C339 O350 1.258 . S
C339 O351 1.256 . S
O340 La320 2.521 . S
O340 C322 1.261 . S
O341 La320 2.628 . S
O341 C322 1.243 . S
O342 La320 2.554 . S
O342 C329 1.240 . S
O343 La320 2.757 . S
O343 La321 2.482 . S
O343 C329 1.289 . S
O344 La320 2.470 . S
O344 C330 1.258 . S
O345 La321 2.503 . S
O345 C330 1.256 . S
O346 La321 2.521 1_554 S
O346 C331 1.261 . S
O347 La321 2.628 1_554 S
O347 C331 1.243 . S
O348 La321 2.554 . S
O348 C338 1.240 . S
O349 La320 2.482 . S
O349 La321 2.757 . S
O349 C338 1.289 . S
O350 La321 2.470 . S
O350 C339 1.258 . S
O351 La320 2.503 . S
O351 C339 1.256 . S
H352 C324 0.930 . S
H353 C325 0.930 . S
H354 C327 0.929 . S
H355 C328 0.929 . S
H356 C333 0.930 . S
H357 C334 0.930 . S
H358 C336 0.929 . S
H359 C337 0.929 . S
La360 C362 2.928 . S
La360 O380 2.521 . S
La360 O381 2.628 . S
La360 O382 2.554 . S
La360 O383 2.757 . S
La360 O384 2.470 . S
La360 O389 2.482 . S
La360 O391 2.503 . S
La361 C371 2.928 . S
La361 O383 2.482 . S
La361 O385 2.503 . S
La361 O386 2.521 . S
La361 O387 2.628 . S
La361 O388 2.554 . S
La361 O389 2.757 . S
La361 O390 2.470 . S
C362 La360 2.928 . S
C362 C363 1.503 . S
C362 O380 1.261 . S
C362 O381 1.243 . S
C363 C362 1.503 . S
C363 C364 1.394 . S
C363 C368 1.373 . S
C364 C363 1.394 . S
C364 C365 1.380 . S
C364 H392 0.930 . S
C365 C364 1.380 . S
C365 C366 1.376 . S
C365 H393 0.930 . S
C366 C365 1.376 . S
C366 C367 1.370 . S
C367 C366 1.370 . S
C367 C368 1.396 . S
C367 H394 0.929 . S
C368 C363 1.373 . S
C368 C367 1.396 . S
C368 H395 0.929 . S
C369 O382 1.240 . S
C369 O383 1.289 . S
C370 O384 1.258 . S
C370 O385 1.256 . S
C371 La361 2.928 . S
C371 C372 1.503 . S
C371 O386 1.261 . S
C371 O387 1.243 . S
C372 C371 1.503 . S
C372 C373 1.394 . S
C372 C377 1.373 . S
C373 C372 1.394 . S
C373 C374 1.380 . S
C373 H396 0.930 . S
C374 C373 1.380 . S
C374 C375 1.376 . S
C374 H397 0.930 . S
C375 C374 1.376 . S
C375 C376 1.370 . S
C376 C375 1.370 . S
C376 C377 1.396 . S
C376 H398 0.929 . S
C377 C372 1.373 . S
C377 C376 1.396 . S
C377 H399 0.929 . S
C378 O388 1.240 . S
C378 O389 1.289 . S
C379 O390 1.258 . S
C379 O391 1.256 . S
O380 La360 2.521 . S
O380 C362 1.261 . S
O381 La360 2.628 . S
O381 C362 1.243 . S
O382 La360 2.554 . S
O382 C369 1.240 . S
O383 La360 2.757 . S
O383 La361 2.482 . S
O383 C369 1.289 . S
O384 La360 2.470 . S
O384 C370 1.258 . S
O385 La361 2.503 . S
O385 C370 1.256 . S
O386 La361 2.521 . S
O386 C371 1.261 . S
O387 La361 2.628 . S
O387 C371 1.243 . S
O388 La361 2.554 . S
O388 C378 1.240 . S
O389 La360 2.482 . S
O389 La361 2.757 . S
O389 C378 1.289 . S
O390 La361 2.470 . S
O390 C379 1.258 . S
O391 La360 2.503 . S
O391 C379 1.256 . S
H392 C364 0.930 . S
H393 C365 0.930 . S
H394 C367 0.929 . S
H395 C368 0.929 . S
H396 C373 0.930 . S
H397 C374 0.930 . S
H398 C376 0.929 . S
H399 C377 0.929 . S
La400 C402 2.928 . S
La400 O420 2.521 . S
La400 O421 2.628 . S
La400 O422 2.554 . S
La400 O423 2.757 . S
La400 O424 2.470 . S
La400 O429 2.482 . S
La400 O431 2.503 . S
La401 C411 2.928 . S
La401 O423 2.482 . S
La401 O425 2.503 . S
La401 O426 2.521 . S
La401 O427 2.628 . S
La401 O428 2.554 . S
La401 O429 2.757 . S
La401 O430 2.470 . S
C402 La400 2.928 . S
C402 C403 1.503 . S
C402 O420 1.261 . S
C402 O421 1.243 . S
C403 C402 1.503 . S
C403 C404 1.394 . S
C403 C408 1.373 . S
C404 C403 1.394 . S
C404 C405 1.380 . S
C404 H432 0.930 . S
C405 C404 1.380 . S
C405 C406 1.376 . S
C405 H433 0.930 . S
C406 C405 1.376 . S
C406 C407 1.370 . S
C407 C406 1.370 . S
C407 C408 1.396 . S
C407 H434 0.929 . S
C408 C403 1.373 . S
C408 C407 1.396 . S
C408 H435 0.929 . S
C409 O422 1.240 . S
C409 O423 1.289 . S
C410 O424 1.258 . S
C410 O425 1.256 . S
C411 La401 2.928 . S
C411 C412 1.503 . S
C411 O426 1.261 . S
C411 O427 1.243 . S
C412 C411 1.503 . S
C412 C413 1.394 . S
C412 C417 1.373 . S
C413 C412 1.394 . S
C413 C414 1.380 . S
C413 H436 0.930 . S
C414 C413 1.380 . S
C414 C415 1.376 . S
C414 H437 0.930 . S
C415 C414 1.376 . S
C415 C416 1.370 . S
C416 C415 1.370 . S
C416 C417 1.396 . S
C416 H438 0.929 . S
C417 C412 1.373 . S
C417 C416 1.396 . S
C417 H439 0.929 . S
C418 O428 1.240 . S
C418 O429 1.289 . S
C419 O430 1.258 . S
C419 O431 1.256 . S
O420 La400 2.521 . S
O420 C402 1.261 . S
O421 La400 2.628 . S
O421 C402 1.243 . S
O422 La400 2.554 . S
O422 C409 1.240 . S
O423 La400 2.757 . S
O423 La401 2.482 . S
O423 C409 1.289 . S
O424 La400 2.470 . S
O424 C410 1.258 . S
O425 La401 2.503 . S
O425 C410 1.256 . S
O426 La401 2.521 . S
O426 C411 1.261 . S
O427 La401 2.628 . S
O427 C411 1.243 . S
O428 La401 2.554 . S
O428 C418 1.240 . S
O429 La400 2.482 . S
O429 La401 2.757 . S
O429 C418 1.289 . S
O430 La401 2.470 . S
O430 C419 1.258 . S
O431 La400 2.503 . S
O431 C419 1.256 . S
H432 C404 0.930 . S
H433 C405 0.930 . S
H434 C407 0.929 . S
H435 C408 0.929 . S
H436 C413 0.930 . S
H437 C414 0.930 . S
H438 C416 0.929 . S
H439 C417 0.929 . S
La440 C442 2.928 . S
La440 O460 2.521 . S
La440 O461 2.628 . S
La440 O462 2.554 1_556 S
La440 O463 2.757 1_556 S
La440 O464 2.470 1_556 S
La440 O469 2.482 1_556 S
La440 O471 2.503 1_556 S
La441 C451 2.928 . S
La441 O463 2.482 . S
La441 O465 2.503 . S
La441 O466 2.521 . S
La441 O467 2.628 . S
La441 O468 2.554 . S
La441 O469 2.757 . S
La441 O470 2.470 . S
C442 La440 2.928 . S
C442 C443 1.503 . S
C442 O460 1.261 . S
C442 O461 1.243 . S
C443 C442 1.503 . S
C443 C444 1.394 . S
C443 C448 1.373 . S
C444 C443 1.394 . S
C444 C445 1.380 . S
C444 H472 0.930 . S
C445 C444 1.380 . S
C445 C446 1.376 . S
C445 H473 0.930 . S
C446 C445 1.376 . S
C446 C447 1.370 . S
C447 C446 1.370 . S
C447 C448 1.396 . S
C447 H474 0.929 . S
C448 C443 1.373 . S
C448 C447 1.396 . S
C448 H475 0.929 . S
C449 O462 1.240 . S
C449 O463 1.289 . S
C450 O464 1.258 . S
C450 O465 1.256 . S
C451 La441 2.928 . S
C451 C452 1.503 . S
C451 O466 1.261 . S
C451 O467 1.243 . S
C452 C451 1.503 . S
C452 C453 1.394 . S
C452 C457 1.373 . S
C453 C452 1.394 . S
C453 C454 1.380 . S
C453 H476 0.930 . S
C454 C453 1.380 . S
C454 C455 1.376 . S
C454 H477 0.930 . S
C455 C454 1.376 . S
C455 C456 1.370 . S
C456 C455 1.370 . S
C456 C457 1.396 . S
C456 H478 0.929 . S
C457 C452 1.373 . S
C457 C456 1.396 . S
C457 H479 0.929 . S
C458 O468 1.240 . S
C458 O469 1.289 . S
C459 O470 1.258 . S
C459 O471 1.256 . S
O460 La440 2.521 . S
O460 C442 1.261 . S
O461 La440 2.628 . S
O461 C442 1.243 . S
O462 La440 2.554 1_554 S
O462 C449 1.240 . S
O463 La440 2.757 1_554 S
O463 La441 2.482 . S
O463 C449 1.289 . S
O464 La440 2.470 1_554 S
O464 C450 1.258 . S
O465 La441 2.503 . S
O465 C450 1.256 . S
O466 La441 2.521 . S
O466 C451 1.261 . S
O467 La441 2.628 . S
O467 C451 1.243 . S
O468 La441 2.554 . S
O468 C458 1.240 . S
O469 La440 2.482 1_554 S
O469 La441 2.757 . S
O469 C458 1.289 . S
O470 La441 2.470 . S
O470 C459 1.258 . S
O471 La440 2.503 1_554 S
O471 C459 1.256 . S
H472 C444 0.930 . S
H473 C445 0.930 . S
H474 C447 0.929 . S
H475 C448 0.929 . S
H476 C453 0.930 . S
H477 C454 0.930 . S
H478 C456 0.929 . S
H479 C457 0.929 . S
La480 C482 2.928 . S
La480 O500 2.521 . S
La480 O501 2.628 . S
La480 O502 2.554 . S
La480 O503 2.757 . S
La480 O504 2.470 . S
La480 O509 2.482 . S
La480 O511 2.503 . S
La481 C491 2.928 . S
La481 O503 2.482 1_556 S
La481 O505 2.503 1_556 S
La481 O506 2.521 . S
La481 O507 2.628 . S
La481 O508 2.554 1_556 S
La481 O509 2.757 1_556 S
La481 O510 2.470 . S
C482 La480 2.928 . S
C482 C483 1.503 . S
C482 O500 1.261 . S
C482 O501 1.243 . S
C483 C482 1.503 . S
C483 C484 1.394 . S
C483 C488 1.373 . S
C484 C483 1.394 . S
C484 C485 1.380 . S
C484 H512 0.930 . S
C485 C484 1.380 . S
C485 C486 1.376 . S
C485 H513 0.930 . S
C486 C485 1.376 . S
C486 C487 1.370 . S
C487 C486 1.370 . S
C487 C488 1.396 . S
C487 H514 0.929 . S
C488 C483 1.373 . S
C488 C487 1.396 . S
C488 H515 0.929 . S
C489 O502 1.240 . S
C489 O503 1.289 . S
C490 O504 1.258 . S
C490 O505 1.256 . S
C491 La481 2.928 . S
C491 C492 1.503 . S
C491 O506 1.261 . S
C491 O507 1.243 . S
C492 C491 1.503 . S
C492 C493 1.394 . S
C492 C497 1.373 . S
C493 C492 1.394 . S
C493 C494 1.380 . S
C493 H516 0.930 . S
C494 C493 1.380 . S
C494 C495 1.376 . S
C494 H517 0.930 . S
C495 C494 1.376 . S
C495 C496 1.370 . S
C496 C495 1.370 . S
C496 C497 1.396 . S
C496 H518 0.929 . S
C497 C492 1.373 . S
C497 C496 1.396 . S
C497 H519 0.929 . S
C498 O508 1.240 . S
C498 O509 1.289 . S
C499 O510 1.258 1_554 S
C499 O511 1.256 . S
O500 La480 2.521 . S
O500 C482 1.261 . S
O501 La480 2.628 . S
O501 C482 1.243 . S
O502 La480 2.554 . S
O502 C489 1.240 . S
O503 La480 2.757 . S
O503 La481 2.482 1_554 S
O503 C489 1.289 . S
O504 La480 2.470 . S
O504 C490 1.258 . S
O505 La481 2.503 1_554 S
O505 C490 1.256 . S
O506 La481 2.521 . S
O506 C491 1.261 . S
O507 La481 2.628 . S
O507 C491 1.243 . S
O508 La481 2.554 1_554 S
O508 C498 1.240 . S
O509 La480 2.482 . S
O509 La481 2.757 1_554 S
O509 C498 1.289 . S
O510 La481 2.470 . S
O510 C499 1.258 1_556 S
O511 La480 2.503 . S
O511 C499 1.256 . S
H512 C484 0.930 . S
H513 C485 0.930 . S
H514 C487 0.929 . S
H515 C488 0.929 . S
H516 C493 0.930 . S
H517 C494 0.930 . S
H518 C496 0.929 . S
H519 C497 0.929 . S
La520 C522 2.928 . S
La520 O540 2.521 . S
La520 O541 2.628 . S
La520 O542 2.554 . S
La520 O543 2.757 . S
La520 O544 2.470 . S
La520 O549 2.482 . S
La520 O551 2.503 . S
La521 C531 2.928 1_556 S
La521 O543 2.482 . S
La521 O545 2.503 . S
La521 O546 2.521 1_556 S
La521 O547 2.628 1_556 S
La521 O548 2.554 . S
La521 O549 2.757 . S
La521 O550 2.470 . S
C522 La520 2.928 . S
C522 C523 1.503 . S
C522 O540 1.261 . S
C522 O541 1.243 . S
C523 C522 1.503 . S
C523 C524 1.394 . S
C523 C528 1.373 . S
C524 C523 1.394 . S
C524 C525 1.380 . S
C524 H552 0.930 . S
C525 C524 1.380 . S
C525 C526 1.376 . S
C525 H553 0.930 . S
C526 C525 1.376 . S
C526 C527 1.370 . S
C527 C526 1.370 . S
C527 C528 1.396 . S
C527 H554 0.929 . S
C528 C523 1.373 . S
C528 C527 1.396 . S
C528 H555 0.929 . S
C529 O542 1.240 . S
C529 O543 1.289 . S
C530 O544 1.258 . S
C530 O545 1.256 . S
C531 La521 2.928 1_554 S
C531 C532 1.503 . S
C531 O546 1.261 . S
C531 O547 1.243 . S
C532 C531 1.503 . S
C532 C533 1.394 . S
C532 C537 1.373 . S
C533 C532 1.394 . S
C533 C534 1.380 . S
C533 H556 0.930 . S
C534 C533 1.380 . S
C534 C535 1.376 . S
C534 H557 0.930 . S
C535 C534 1.376 . S
C535 C536 1.370 . S
C536 C535 1.370 . S
C536 C537 1.396 . S
C536 H558 0.929 . S
C537 C532 1.373 . S
C537 C536 1.396 . S
C537 H559 0.929 . S
C538 O548 1.240 . S
C538 O549 1.289 . S
C539 O550 1.258 . S
C539 O551 1.256 . S
O540 La520 2.521 . S
O540 C522 1.261 . S
O541 La520 2.628 . S
O541 C522 1.243 . S
O542 La520 2.554 . S
O542 C529 1.240 . S
O543 La520 2.757 . S
O543 La521 2.482 . S
O543 C529 1.289 . S
O544 La520 2.470 . S
O544 C530 1.258 . S
O545 La521 2.503 . S
O545 C530 1.256 . S
O546 La521 2.521 1_554 S
O546 C531 1.261 . S
O547 La521 2.628 1_554 S
O547 C531 1.243 . S
O548 La521 2.554 . S
O548 C538 1.240 . S
O549 La520 2.482 . S
O549 La521 2.757 . S
O549 C538 1.289 . S
O550 La521 2.470 . S
O550 C539 1.258 . S
O551 La520 2.503 . S
O551 C539 1.256 . S
H552 C524 0.930 . S
H553 C525 0.930 . S
H554 C527 0.929 . S
H555 C528 0.929 . S
H556 C533 0.930 . S
H557 C534 0.930 . S
H558 C536 0.929 . S
H559 C537 0.929 . S
La560 C562 2.928 . S
La560 O580 2.521 . S
La560 O581 2.628 . S
La560 O582 2.554 . S
La560 O583 2.757 . S
La560 O584 2.470 . S
La560 O589 2.482 . S
La560 O591 2.503 . S
La561 C571 2.928 . S
La561 O583 2.482 . S
La561 O585 2.503 . S
La561 O586 2.521 . S
La561 O587 2.628 . S
La561 O588 2.554 . S
La561 O589 2.757 . S
La561 O590 2.470 . S
C562 La560 2.928 . S
C562 C563 1.503 . S
C562 O580 1.261 . S
C562 O581 1.243 . S
C563 C562 1.503 . S
C563 C564 1.394 . S
C563 C568 1.373 . S
C564 C563 1.394 . S
C564 C565 1.380 . S
C564 H592 0.930 . S
C565 C564 1.380 . S
C565 C566 1.376 . S
C565 H593 0.930 . S
C566 C565 1.376 . S
C566 C567 1.370 . S
C567 C566 1.370 . S
C567 C568 1.396 . S
C567 H594 0.929 . S
C568 C563 1.373 . S
C568 C567 1.396 . S
C568 H595 0.929 . S
C569 O582 1.240 . S
C569 O583 1.289 . S
C570 O584 1.258 . S
C570 O585 1.256 . S
C571 La561 2.928 . S
C571 C572 1.503 . S
C571 O586 1.261 . S
C571 O587 1.243 . S
C572 C571 1.503 . S
C572 C573 1.394 . S
C572 C577 1.373 . S
C573 C572 1.394 . S
C573 C574 1.380 . S
C573 H596 0.930 . S
C574 C573 1.380 . S
C574 C575 1.376 . S
C574 H597 0.930 . S
C575 C574 1.376 . S
C575 C576 1.370 . S
C576 C575 1.370 . S
C576 C577 1.396 . S
C576 H598 0.929 . S
C577 C572 1.373 . S
C577 C576 1.396 . S
C577 H599 0.929 . S
C578 O588 1.240 . S
C578 O589 1.289 . S
C579 O590 1.258 . S
C579 O591 1.256 . S
O580 La560 2.521 . S
O580 C562 1.261 . S
O581 La560 2.628 . S
O581 C562 1.243 . S
O582 La560 2.554 . S
O582 C569 1.240 . S
O583 La560 2.757 . S
O583 La561 2.482 . S
O583 C569 1.289 . S
O584 La560 2.470 . S
O584 C570 1.258 . S
O585 La561 2.503 . S
O585 C570 1.256 . S
O586 La561 2.521 . S
O586 C571 1.261 . S
O587 La561 2.628 . S
O587 C571 1.243 . S
O588 La561 2.554 . S
O588 C578 1.240 . S
O589 La560 2.482 . S
O589 La561 2.757 . S
O589 C578 1.289 . S
O590 La561 2.470 . S
O590 C579 1.258 . S
O591 La560 2.503 . S
O591 C579 1.256 . S
H592 C564 0.930 . S
H593 C565 0.930 . S
H594 C567 0.929 . S
H595 C568 0.929 . S
H596 C573 0.930 . S
H597 C574 0.930 . S
H598 C576 0.929 . S
H599 C577 0.929 . S
La600 C602 2.928 . S
La600 O620 2.521 . S
La600 O621 2.628 . S
La600 O622 2.554 . S
La600 O623 2.757 . S
La600 O624 2.470 . S
La600 O629 2.482 . S
La600 O631 2.503 . S
La601 C611 2.928 . S
La601 O623 2.482 . S
La601 O625 2.503 . S
La601 O626 2.521 . S
La601 O627 2.628 . S
La601 O628 2.554 . S
La601 O629 2.757 . S
La601 O630 2.470 . S
C602 La600 2.928 . S
C602 C603 1.503 . S
C602 O620 1.261 . S
C602 O621 1.243 . S
C603 C602 1.503 . S
C603 C604 1.394 . S
C603 C608 1.373 . S
C604 C603 1.394 . S
C604 C605 1.380 . S
C604 H632 0.930 . S
C605 C604 1.380 . S
C605 C606 1.376 . S
C605 H633 0.930 . S
C606 C605 1.376 . S
C606 C607 1.370 . S
C607 C606 1.370 . S
C607 C608 1.396 . S
C607 H634 0.929 . S
C608 C603 1.373 . S
C608 C607 1.396 . S
C608 H635 0.929 . S
C609 O622 1.240 . S
C609 O623 1.289 . S
C610 O624 1.258 . S
C610 O625 1.256 . S
C611 La601 2.928 . S
C611 C612 1.503 . S
C611 O626 1.261 . S
C611 O627 1.243 . S
C612 C611 1.503 . S
C612 C613 1.394 . S
C612 C617 1.373 . S
C613 C612 1.394 . S
C613 C614 1.380 . S
C613 H636 0.930 . S
C614 C613 1.380 . S
C614 C615 1.376 . S
C614 H637 0.930 . S
C615 C614 1.376 . S
C615 C616 1.370 . S
C616 C615 1.370 . S
C616 C617 1.396 . S
C616 H638 0.929 . S
C617 C612 1.373 . S
C617 C616 1.396 . S
C617 H639 0.929 . S
C618 O628 1.240 . S
C618 O629 1.289 . S
C619 O630 1.258 . S
C619 O631 1.256 . S
O620 La600 2.521 . S
O620 C602 1.261 . S
O621 La600 2.628 . S
O621 C602 1.243 . S
O622 La600 2.554 . S
O622 C609 1.240 . S
O623 La600 2.757 . S
O623 La601 2.482 . S
O623 C609 1.289 . S
O624 La600 2.470 . S
O624 C610 1.258 . S
O625 La601 2.503 . S
O625 C610 1.256 . S
O626 La601 2.521 . S
O626 C611 1.261 . S
O627 La601 2.628 . S
O627 C611 1.243 . S
O628 La601 2.554 . S
O628 C618 1.240 . S
O629 La600 2.482 . S
O629 La601 2.757 . S
O629 C618 1.289 . S
O630 La601 2.470 . S
O630 C619 1.258 . S
O631 La600 2.503 . S
O631 C619 1.256 . S
H632 C604 0.930 . S
H633 C605 0.930 . S
H634 C607 0.929 . S
H635 C608 0.929 . S
H636 C613 0.930 . S
H637 C614 0.930 . S
H638 C616 0.929 . S
H639 C617 0.929 . S
H640 C646 0.930 . S
H641 C650 0.930 . S
H642 C655 0.929 . S
H643 C653 0.929 . S
H644 C648 0.929 . S
H645 C654 0.929 . S
C646 H640 0.930 . S
C646 C647 1.367 . S
C646 C654 1.378 . S
C647 C646 1.367 . S
C647 C655 1.433 . S
C648 H644 0.929 . S
C648 C650 1.378 . S
C648 C652 1.350 . S
C649 C652 1.463 . S
C649 C654 1.350 . S
C649 N657 1.427 . S
C650 H641 0.930 . S
C650 C648 1.378 . S
C650 C651 1.367 . S
C651 C650 1.367 . S
C651 C653 1.433 . S
C652 C648 1.350 . S
C652 C649 1.463 . S
C652 N656 1.427 . S
C653 H643 0.929 . S
C653 C651 1.433 . S
C653 N656 1.384 . S
C654 H645 0.929 . S
C654 C646 1.378 . S
C654 C649 1.350 . S
C655 H642 0.929 . S
C655 C647 1.433 . S
C655 N657 1.384 . S
N656 C652 1.427 . S
N656 C653 1.384 . S
N657 C649 1.427 . S
N657 C655 1.384 . S
H658 C664 0.930 . S
H659 C668 0.930 . S
H660 C673 0.929 . S
H661 C671 0.929 . S
H662 C666 0.929 . S
H663 C672 0.939 . S
C664 H658 0.930 . S
C664 C665 1.367 . S
C664 C672 1.363 1_554 S
C665 C664 1.367 . S
C665 C673 1.433 . S
C666 H662 0.929 . S
C666 C668 1.378 . S
C666 C670 1.350 . S
C667 C670 1.463 . S
C667 C672 1.355 . S
C667 N675 1.427 . S
C668 H659 0.930 . S
C668 C666 1.378 . S
C668 C669 1.367 . S
C669 C668 1.367 . S
C669 C671 1.433 . S
C670 C666 1.350 . S
C670 C667 1.463 . S
C670 N674 1.427 . S
C671 H661 0.929 . S
C671 C669 1.433 . S
C671 N674 1.384 . S
C672 H663 0.939 . S
C672 C664 1.363 1_556 S
C672 C667 1.355 . S
C673 H660 0.929 . S
C673 C665 1.433 . S
C673 N675 1.384 1_554 S
N674 C670 1.427 . S
N674 C671 1.384 . S
N675 C667 1.427 . S
N675 C673 1.384 1_556 S
H676 C682 0.930 . S
H677 C686 0.930 . S
H678 C691 0.929 . S
H679 C689 0.929 1_556 S
H680 C684 0.929 . S
H681 C690 0.929 . S
C682 H676 0.930 . S
C682 C683 1.367 . S
C682 C690 1.378 . S
C683 C682 1.367 . S
C683 C691 1.433 . S
C684 H680 0.929 . S
C684 C686 1.378 . S
C684 C688 1.350 . S
C685 C688 1.463 . S
C685 C690 1.350 . S
C685 N693 1.427 . S
C686 H677 0.930 . S
C686 C684 1.378 . S
C686 C687 1.367 . S
C687 C686 1.367 . S
C687 C689 1.433 . S
C688 C684 1.350 . S
C688 C685 1.463 . S
C688 N692 1.427 . S
C689 H679 0.929 1_554 S
C689 C687 1.433 . S
C689 N692 1.384 . S
C690 H681 0.929 . S
C690 C682 1.378 . S
C690 C685 1.350 . S
C691 H678 0.929 . S
C691 C683 1.433 . S
C691 N693 1.384 . S
N692 C688 1.427 . S
N692 C689 1.384 . S
N693 C685 1.427 . S
N693 C691 1.384 . S
H694 C700 0.930 . S
H695 C704 0.930 . S
H696 C709 0.929 . S
H697 C707 0.929 . S
H698 C702 0.929 . S
H699 C708 0.929 . S
C700 H694 0.930 . S
C700 C701 1.367 . S
C700 C708 1.378 . S
C701 C700 1.367 . S
C701 C709 1.433 . S
C702 H698 0.929 . S
C702 C704 1.378 . S
C702 C706 1.350 . S
C703 C706 1.463 . S
C703 C708 1.350 . S
C703 N711 1.427 . S
C704 H695 0.930 . S
C704 C702 1.378 . S
C704 C705 1.367 . S
C705 C704 1.367 . S
C705 C707 1.433 . S
C706 C702 1.350 . S
C706 C703 1.463 . S
C706 N710 1.427 . S
C707 H697 0.929 . S
C707 C705 1.433 . S
C707 N710 1.384 . S
C708 H699 0.929 . S
C708 C700 1.378 . S
C708 C703 1.350 . S
C709 H696 0.929 . S
C709 C701 1.433 . S
C709 N711 1.384 . S
N710 C706 1.427 . S
N710 C707 1.384 . S
N711 C703 1.427 . S
N711 C709 1.384 . S
H712 C718 0.930 . S
H713 C722 0.930 . S
H714 C727 0.929 . S
H715 C725 0.929 . S
H716 C720 0.929 . S
H717 C726 0.929 . S
C718 H712 0.930 . S
C718 C719 1.367 . S
C718 C726 1.378 . S
C719 C718 1.367 . S
C719 C727 1.433 . S
C720 H716 0.929 . S
C720 C722 1.378 . S
C720 C724 1.350 . S
C721 C724 1.463 . S
C721 C726 1.350 . S
C721 N729 1.427 . S
C722 H713 0.930 . S
C722 C720 1.378 . S
C722 C723 1.367 . S
C723 C722 1.367 . S
C723 C725 1.433 . S
C724 C720 1.350 . S
C724 C721 1.463 . S
C724 N728 1.427 . S
C725 H715 0.929 . S
C725 C723 1.433 . S
C725 N728 1.384 . S
C726 H717 0.929 . S
C726 C718 1.378 . S
C726 C721 1.350 . S
C727 H714 0.929 . S
C727 C719 1.433 . S
C727 N729 1.384 . S
N728 C724 1.427 . S
N728 C725 1.384 . S
N729 C721 1.427 . S
N729 C727 1.384 . S
H730 C736 0.930 . S
H731 C740 0.930 . S
H732 C745 0.929 . S
H733 C743 0.929 . S
H734 C738 0.929 . S
H735 C744 0.929 . S
C736 H730 0.930 . S
C736 C737 1.367 . S
C736 C744 1.378 . S
C737 C736 1.367 . S
C737 C745 1.433 . S
C738 H734 0.929 . S
C738 C740 1.378 . S
C738 C742 1.350 . S
C739 C742 1.463 . S
C739 C744 1.350 . S
C739 N747 1.427 . S
C740 H731 0.930 . S
C740 C738 1.378 . S
C740 C741 1.367 . S
C741 C740 1.367 . S
C741 C743 1.433 . S
C742 C738 1.350 . S
C742 C739 1.463 . S
C742 N746 1.427 . S
C743 H733 0.929 . S
C743 C741 1.433 . S
C743 N746 1.384 . S
C744 H735 0.929 . S
C744 C736 1.378 . S
C744 C739 1.350 . S
C745 H732 0.929 . S
C745 C737 1.433 . S
C745 N747 1.384 . S
N746 C742 1.427 . S
N746 C743 1.384 . S
N747 C739 1.427 . S
N747 C745 1.384 . S
H748 C754 0.930 . S
H749 C758 0.930 1_554 S
H750 C763 0.929 . S
H751 C761 0.929 . S
H752 C756 0.929 . S
H753 C762 0.929 . S
C754 H748 0.930 . S
C754 C755 1.367 . S
C754 C762 1.378 . S
C755 C754 1.367 . S
C755 C763 1.433 . S
C756 H752 0.929 . S
C756 C758 1.378 . S
C756 C760 1.350 . S
C757 C760 1.463 . S
C757 C762 1.350 . S
C757 N765 1.427 . S
C758 H749 0.930 1_556 S
C758 C756 1.378 . S
C758 C759 1.367 1_556 S
C759 C758 1.367 1_554 S
C759 C761 1.433 . S
C760 C756 1.350 . S
C760 C757 1.463 . S
C760 N764 1.427 . S
C761 H751 0.929 . S
C761 C759 1.433 . S
C761 N764 1.384 1_554 S
C762 H753 0.929 . S
C762 C754 1.378 . S
C762 C757 1.350 . S
C763 H750 0.929 . S
C763 C755 1.433 . S
C763 N765 1.384 . S
N764 C760 1.427 . S
N764 C761 1.384 1_556 S
N765 C757 1.427 . S
N765 C763 1.384 . S
H766 C772 0.930 . S
H767 C776 0.930 . S
H768 C781 0.929 . S
H769 C779 0.929 . S
H770 C774 0.929 . S
H771 C780 0.929 . S
C772 H766 0.930 . S
C772 C773 1.367 . S
C772 C780 1.378 . S
C773 C772 1.367 . S
C773 C781 1.433 . S
C774 H770 0.929 . S
C774 C776 1.378 . S
C774 C778 1.350 . S
C775 C778 1.463 . S
C775 C780 1.350 . S
C775 N783 1.427 . S
C776 H767 0.930 . S
C776 C774 1.378 . S
C776 C777 1.367 . S
C777 C776 1.367 . S
C777 C779 1.433 . S
C778 C774 1.350 . S
C778 C775 1.463 . S
C778 N782 1.427 . S
C779 H769 0.929 . S
C779 C777 1.433 . S
C779 N782 1.384 . S
C780 H771 0.929 . S
C780 C772 1.378 . S
C780 C775 1.350 . S
C781 H768 0.929 . S
C781 C773 1.433 . S
C781 N783 1.384 . S
N782 C778 1.427 . S
N782 C779 1.384 . S
N783 C775 1.427 . S
N783 C781 1.384 . S
H784 C790 0.930 . S
H785 C794 0.930 . S
H786 C799 0.929 . S
H787 C797 0.929 . S
H788 C792 0.929 . S
H789 C798 0.929 . S
C790 H784 0.930 . S
C790 C791 1.367 . S
C790 C798 1.378 . S
C791 C790 1.367 . S
C791 C799 1.433 . S
C792 H788 0.929 . S
C792 C794 1.378 . S
C792 C796 1.350 . S
C793 C796 1.463 . S
C793 C798 1.350 . S
C793 N801 1.427 . S
C794 H785 0.930 . S
C794 C792 1.378 . S
C794 C795 1.367 . S
C795 C794 1.367 . S
C795 C797 1.433 . S
C796 C792 1.350 . S
C796 C793 1.463 . S
C796 N800 1.427 . S
C797 H787 0.929 . S
C797 C795 1.433 . S
C797 N800 1.384 . S
C798 H789 0.929 . S
C798 C790 1.378 . S
C798 C793 1.350 . S
C799 H786 0.929 . S
C799 C791 1.433 . S
C799 N801 1.384 . S
N800 C796 1.427 . S
N800 C797 1.384 . S
N801 C793 1.427 . S
N801 C799 1.384 . S
H802 C808 0.930 . S
H803 C812 0.930 . S
H804 C817 0.929 . S
H805 C815 0.929 . S
H806 C810 0.929 . S
H807 C816 0.929 . S
C808 H802 0.930 . S
C808 C809 1.367 . S
C808 C816 1.378 . S
C809 C808 1.367 . S
C809 C817 1.433 . S
C810 H806 0.929 . S
C810 C812 1.378 1_554 S
C810 C814 1.350 . S
C811 C814 1.463 . S
C811 C816 1.350 . S
C811 N819 1.427 . S
C812 H803 0.930 . S
C812 C810 1.378 1_556 S
C812 C813 1.367 . S
C813 C812 1.367 . S
C813 C815 1.433 . S
C814 C810 1.350 . S
C814 C811 1.463 . S
C814 N818 1.427 . S
C815 H805 0.929 . S
C815 C813 1.433 . S
C815 N818 1.384 1_556 S
C816 H807 0.929 . S
C816 C808 1.378 . S
C816 C811 1.350 . S
C817 H804 0.929 . S
C817 C809 1.433 . S
C817 N819 1.384 . S
N818 C814 1.427 . S
N818 C815 1.384 1_554 S
N819 C811 1.427 . S
N819 C817 1.384 . S
H820 C826 0.930 . S
H821 C830 0.930 . S
H822 C835 0.929 . S
H823 C833 0.929 . S
H824 C828 0.929 . S
H825 C834 0.929 . S
C826 H820 0.930 . S
C826 C827 1.367 . S
C826 C834 1.378 . S
C827 C826 1.367 . S
C827 C835 1.433 . S
C828 H824 0.929 . S
C828 C830 1.378 . S
C828 C832 1.350 . S
C829 C832 1.463 . S
C829 C834 1.350 . S
C829 N837 1.427 . S
C830 H821 0.930 . S
C830 C828 1.378 . S
C830 C831 1.367 . S
C831 C830 1.367 . S
C831 C833 1.433 . S
C832 C828 1.350 . S
C832 C829 1.463 . S
C832 N836 1.427 . S
C833 H823 0.929 . S
C833 C831 1.433 . S
C833 N836 1.384 . S
C834 H825 0.929 . S
C834 C826 1.378 . S
C834 C829 1.350 . S
C835 H822 0.929 . S
C835 C827 1.433 . S
C835 N837 1.384 . S
N836 C832 1.427 . S
N836 C833 1.384 . S
N837 C829 1.427 . S
N837 C835 1.384 . S
H838 C844 0.930 . S
H839 C848 0.930 . S
H840 C853 0.929 . S
H841 C851 0.929 . S
H842 C846 0.929 . S
H843 C852 0.929 . S
C844 H838 0.930 . S
C844 C845 1.367 . S
C844 C852 1.378 . S
C845 C844 1.367 . S
C845 C853 1.433 . S
C846 H842 0.929 . S
C846 C848 1.378 . S
C846 C850 1.350 . S
C847 C850 1.463 . S
C847 C852 1.350 . S
C847 N855 1.427 . S
C848 H839 0.930 . S
C848 C846 1.378 . S
C848 C849 1.367 . S
C849 C848 1.367 . S
C849 C851 1.433 . S
C850 C846 1.350 . S
C850 C847 1.463 . S
C850 N854 1.427 . S
C851 H841 0.929 . S
C851 C849 1.433 . S
C851 N854 1.384 . S
C852 H843 0.929 . S
C852 C844 1.378 . S
C852 C847 1.350 . S
C853 H840 0.929 . S
C853 C845 1.433 . S
C853 N855 1.384 . S
N854 C850 1.427 . S
N854 C851 1.384 . S
N855 C847 1.427 . S
N855 C853 1.384 . S
H856 C862 0.930 . S
H857 C866 0.930 . S
H858 C871 0.929 . S
H859 C869 0.929 . S
H860 C864 0.929 . S
H861 C870 0.929 . S
C862 H856 0.930 . S
C862 C863 1.367 . S
C862 C870 1.378 . S
C863 C862 1.367 . S
C863 C871 1.433 . S
C864 H860 0.929 . S
C864 C866 1.378 . S
C864 C868 1.350 . S
C865 C868 1.463 . S
C865 C870 1.350 . S
C865 N873 1.427 . S
C866 H857 0.930 . S
C866 C864 1.378 . S
C866 C867 1.367 . S
C867 C866 1.367 . S
C867 C869 1.433 . S
C868 C864 1.350 . S
C868 C865 1.463 . S
C868 N872 1.427 . S
C869 H859 0.929 . S
C869 C867 1.433 . S
C869 N872 1.384 . S
C870 H861 0.929 . S
C870 C862 1.378 . S
C870 C865 1.350 . S
C871 H858 0.929 . S
C871 C863 1.433 . S
C871 N873 1.384 . S
N872 C868 1.427 . S
N872 C869 1.384 . S
N873 C865 1.427 . S
N873 C871 1.384 . S
H874 C880 0.930 . S
H875 C884 0.930 . S
H876 C889 0.929 . S
H877 C887 0.929 . S
H878 C882 0.929 . S
H879 C888 0.929 . S
C880 H874 0.930 . S
C880 C881 1.367 . S
C880 C888 1.378 . S
C881 C880 1.367 . S
C881 C889 1.433 . S
C882 H878 0.929 . S
C882 C884 1.378 . S
C882 C886 1.350 . S
C883 C886 1.463 . S
C883 C888 1.350 . S
C883 N891 1.427 . S
C884 H875 0.930 . S
C884 C882 1.378 . S
C884 C885 1.367 . S
C885 C884 1.367 . S
C885 C887 1.433 . S
C886 C882 1.350 . S
C886 C883 1.463 . S
C886 N890 1.427 . S
C887 H877 0.929 . S
C887 C885 1.433 . S
C887 N890 1.384 . S
C888 H879 0.929 . S
C888 C880 1.378 . S
C888 C883 1.350 . S
C889 H876 0.929 . S
C889 C881 1.433 . S
C889 N891 1.384 . S
N890 C886 1.427 . S
N890 C887 1.384 . S
N891 C883 1.427 . S
N891 C889 1.384 . S
H892 C898 0.930 . S
H893 C902 0.930 . S
H894 C907 0.929 . S
H895 C905 0.930 . S
H896 C900 0.929 . S
H897 C906 0.929 . S
C898 H892 0.930 . S
C898 C899 1.367 . S
C898 C906 1.378 . S
C899 C898 1.367 . S
C899 C907 1.433 . S
C900 H896 0.929 . S
C900 C902 1.378 1_554 S
C900 C904 1.350 . S
C901 C904 1.463 . S
C901 C906 1.350 . S
C901 N909 1.427 . S
C902 H893 0.930 . S
C902 C900 1.378 1_556 S
C902 C903 1.367 . S
C903 C902 1.367 . S
C903 C905 1.435 . S
C904 C900 1.350 . S
C904 C901 1.463 . S
C904 N908 1.427 . S
C905 H895 0.930 . S
C905 C903 1.435 . S
C905 N908 1.381 1_556 S
C906 H897 0.929 . S
C906 C898 1.378 . S
C906 C901 1.350 . S
C907 H894 0.929 . S
C907 C899 1.433 . S
C907 N909 1.384 . S
N908 C904 1.427 . S
N908 C905 1.381 1_554 S
N909 C901 1.427 . S
N909 C907 1.384 . S
H910 C916 0.930 . S
H911 C920 0.930 . S
H912 C925 0.929 . S
H913 C923 0.929 . S
H914 C918 0.929 . S
H915 C924 0.929 . S
C916 H910 0.930 . S
C916 C917 1.367 . S
C916 C924 1.378 . S
C917 C916 1.367 . S
C917 C925 1.433 . S
C918 H914 0.929 . S
C918 C920 1.378 . S
C918 C922 1.350 . S
C919 C922 1.463 . S
C919 C924 1.350 . S
C919 N927 1.427 . S
C920 H911 0.930 . S
C920 C918 1.378 . S
C920 C921 1.367 . S
C921 C920 1.367 . S
C921 C923 1.433 . S
C922 C918 1.350 . S
C922 C919 1.463 . S
C922 N926 1.427 . S
C923 H913 0.929 . S
C923 C921 1.433 . S
C923 N926 1.384 . S
C924 H915 0.929 . S
C924 C916 1.378 . S
C924 C919 1.350 . S
C925 H912 0.929 . S
C925 C917 1.433 . S
C925 N927 1.384 . S
N926 C922 1.427 . S
N926 C923 1.384 . S
N927 C919 1.427 . S
N927 C925 1.384 . S
H928 C934 0.930 . S
H929 C938 0.930 . S
H930 C943 0.929 . S
H931 C941 0.929 . S
H932 C936 0.929 . S
H933 C942 0.929 . S
C934 H928 0.930 . S
C934 C935 1.367 . S
C934 C942 1.378 . S
C935 C934 1.367 . S
C935 C943 1.433 . S
C936 H932 0.929 . S
C936 C938 1.378 . S
C936 C940 1.350 . S
C937 C940 1.463 . S
C937 C942 1.350 . S
C937 N945 1.427 . S
C938 H929 0.930 . S
C938 C936 1.378 . S
C938 C939 1.367 . S
C939 C938 1.367 . S
C939 C941 1.433 . S
C940 C936 1.350 . S
C940 C937 1.463 . S
C940 N944 1.427 . S
C941 H931 0.929 . S
C941 C939 1.433 . S
C941 N944 1.384 . S
C942 H933 0.929 . S
C942 C934 1.378 . S
C942 C937 1.350 . S
C943 H930 0.929 . S
C943 C935 1.433 . S
C943 N945 1.384 . S
N944 C940 1.427 . S
N944 C941 1.384 . S
N945 C937 1.427 . S
N945 C943 1.384 . S
H946 C952 0.930 . S
H947 C956 0.930 . S
H948 C961 0.929 . S
H949 C959 0.929 . S
H950 C954 0.929 . S
H951 C960 0.929 . S
C952 H946 0.930 . S
C952 C953 1.367 . S
C952 C960 1.378 . S
C953 C952 1.367 . S
C953 C961 1.433 . S
C954 H950 0.929 . S
C954 C956 1.378 . S
C954 C958 1.350 . S
C955 C958 1.463 . S
C955 C960 1.350 . S
C955 N963 1.427 . S
C956 H947 0.930 . S
C956 C954 1.378 . S
C956 C957 1.367 . S
C957 C956 1.367 . S
C957 C959 1.433 . S
C958 C954 1.350 . S
C958 C955 1.463 . S
C958 N962 1.427 . S
C959 H949 0.929 . S
C959 C957 1.433 . S
C959 N962 1.384 . S
C960 H951 0.929 . S
C960 C952 1.378 . S
C960 C955 1.350 . S
C961 H948 0.929 . S
C961 C953 1.433 . S
C961 N963 1.384 . S
N962 C958 1.427 . S
N962 C959 1.384 . S
N963 C955 1.427 . S
N963 C961 1.384 . S
H964 C970 0.930 . S
H965 C974 0.930 . S
H966 C979 0.929 . S
H967 C977 0.929 . S
H968 C972 0.929 . S
H969 C978 0.929 . S
C970 H964 0.930 . S
C970 C971 1.367 . S
C970 C978 1.378 . S
C971 C970 1.367 . S
C971 C979 1.433 . S
C972 H968 0.929 . S
C972 C974 1.378 . S
C972 C976 1.350 . S
C973 C976 1.463 . S
C973 C978 1.350 . S
C973 N981 1.427 . S
C974 H965 0.930 . S
C974 C972 1.378 . S
C974 C975 1.367 . S
C975 C974 1.367 . S
C975 C977 1.433 . S
C976 C972 1.350 . S
C976 C973 1.463 . S
C976 N980 1.427 . S
C977 H967 0.929 . S
C977 C975 1.433 . S
C977 N980 1.384 . S
C978 H969 0.929 . S
C978 C970 1.378 . S
C978 C973 1.350 . S
C979 H966 0.929 . S
C979 C971 1.433 . S
C979 N981 1.384 . S
N980 C976 1.427 . S
N980 C977 1.384 . S
N981 C973 1.427 . S
N981 C979 1.384 . S
H982 C988 0.930 . S
H983 C992 0.930 . S
H984 C997 0.929 . S
H985 C995 0.929 . S
H986 C990 0.929 . S
H987 C996 0.929 . S
C988 H982 0.930 . S
C988 C989 1.367 . S
C988 C996 1.378 . S
C989 C988 1.367 . S
C989 C997 1.433 . S
C990 H986 0.929 . S
C990 C992 1.378 . S
C990 C994 1.350 . S
C991 C994 1.463 1_655 S
C991 C996 1.350 . S
C991 N999 1.427 . S
C992 H983 0.930 . S
C992 C990 1.378 . S
C992 C993 1.367 . S
C993 C992 1.367 . S
C993 C995 1.433 . S
C994 C990 1.350 . S
C994 C991 1.463 1_455 S
C994 N998 1.427 . S
C995 H985 0.929 . S
C995 C993 1.433 . S
C995 N998 1.384 . S
C996 H987 0.929 . S
C996 C988 1.378 . S
C996 C991 1.350 . S
C997 H984 0.929 . S
C997 C989 1.433 . S
C997 N999 1.384 . S
N998 C994 1.427 . S
N998 C995 1.384 . S
N999 C991 1.427 . S
N999 C997 1.384 . S
H1000 C1006 0.930 . S
H1001 C1010 0.930 . S
H1002 C1015 0.929 . S
H1003 C1013 0.929 . S
H1004 C1008 0.929 . S
H1005 C1014 0.929 . S
C1006 H1000 0.930 . S
C1006 C1007 1.367 . S
C1006 C1014 1.378 . S
C1007 C1006 1.367 . S
C1007 C1015 1.433 . S
C1008 H1004 0.929 . S
C1008 C1010 1.378 . S
C1008 C1012 1.350 . S
C1009 C1012 1.463 . S
C1009 C1014 1.350 . S
C1009 N1017 1.427 . S
C1010 H1001 0.930 . S
C1010 C1008 1.378 . S
C1010 C1011 1.367 . S
C1011 C1010 1.367 . S
C1011 C1013 1.433 . S
C1012 C1008 1.350 . S
C1012 C1009 1.463 . S
C1012 N1016 1.427 . S
C1013 H1003 0.929 . S
C1013 C1011 1.433 . S
C1013 N1016 1.384 . S
C1014 H1005 0.929 . S
C1014 C1006 1.378 . S
C1014 C1009 1.350 . S
C1015 H1002 0.929 . S
C1015 C1007 1.433 . S
C1015 N1017 1.384 . S
N1016 C1012 1.427 . S
N1016 C1013 1.384 . S
N1017 C1009 1.427 . S
N1017 C1015 1.384 . S
H1018 C1024 0.930 . S
H1019 C1028 0.930 . S
H1020 C1033 0.929 . S
H1021 C1031 0.929 . S
H1022 C1026 0.929 . S
H1023 C1032 0.929 . S
C1024 H1018 0.930 . S
C1024 C1025 1.367 . S
C1024 C1032 1.378 . S
C1025 C1024 1.367 . S
C1025 C1033 1.433 . S
C1026 H1022 0.929 . S
C1026 C1028 1.378 . S
C1026 C1030 1.350 . S
C1027 C1030 1.463 1_455 S
C1027 C1032 1.350 . S
C1027 N1035 1.427 . S
C1028 H1019 0.930 . S
C1028 C1026 1.378 . S
C1028 C1029 1.367 . S
C1029 C1028 1.367 . S
C1029 C1031 1.433 . S
C1030 C1026 1.350 . S
C1030 C1027 1.463 1_655 S
C1030 N1034 1.427 . S
C1031 H1021 0.929 . S
C1031 C1029 1.433 . S
C1031 N1034 1.384 . S
C1032 H1023 0.929 . S
C1032 C1024 1.378 . S
C1032 C1027 1.350 . S
C1033 H1020 0.929 . S
C1033 C1025 1.433 . S
C1033 N1035 1.384 . S
N1034 C1030 1.427 . S
N1034 C1031 1.384 . S
N1035 C1027 1.427 . S
N1035 C1033 1.384 . S
H1036 C1042 0.930 . S
H1037 C1046 0.930 . S
H1038 C1051 0.929 . S
H1039 C1049 0.929 . S
H1040 C1044 0.929 . S
H1041 C1050 0.929 . S
C1042 H1036 0.930 . S
C1042 C1043 1.367 . S
C1042 C1050 1.378 . S
C1043 C1042 1.367 . S
C1043 C1051 1.433 . S
C1044 H1040 0.929 . S
C1044 C1046 1.378 . S
C1044 C1048 1.350 . S
C1045 C1048 1.463 . S
C1045 C1050 1.350 . S
C1045 N1053 1.427 . S
C1046 H1037 0.930 . S
C1046 C1044 1.378 . S
C1046 C1047 1.367 . S
C1047 C1046 1.367 . S
C1047 C1049 1.433 . S
C1048 C1044 1.350 . S
C1048 C1045 1.463 . S
C1048 N1052 1.427 . S
C1049 H1039 0.929 . S
C1049 C1047 1.433 . S
C1049 N1052 1.384 . S
C1050 H1041 0.929 . S
C1050 C1042 1.378 . S
C1050 C1045 1.350 . S
C1051 H1038 0.929 . S
C1051 C1043 1.433 . S
C1051 N1053 1.384 . S
N1052 C1048 1.427 . S
N1052 C1049 1.384 . S
N1053 C1045 1.427 . S
N1053 C1051 1.384 . S
H1054 C1060 0.930 . S
H1055 C1064 0.930 . S
H1056 C1069 0.929 . S
H1057 C1067 0.929 . S
H1058 C1062 0.929 . S
H1059 C1068 0.929 . S
C1060 H1054 0.930 . S
C1060 C1061 1.367 . S
C1060 C1068 1.378 . S
C1061 C1060 1.367 . S
C1061 C1069 1.433 . S
C1062 H1058 0.929 . S
C1062 C1064 1.378 . S
C1062 C1066 1.350 . S
C1063 C1066 1.463 . S
C1063 C1068 1.350 . S
C1063 N1071 1.427 . S
C1064 H1055 0.930 . S
C1064 C1062 1.378 . S
C1064 C1065 1.367 . S
C1065 C1064 1.367 . S
C1065 C1067 1.433 . S
C1066 C1062 1.350 . S
C1066 C1063 1.463 . S
C1066 N1070 1.427 . S
C1067 H1057 0.929 . S
C1067 C1065 1.433 . S
C1067 N1070 1.384 . S
C1068 H1059 0.929 . S
C1068 C1060 1.378 . S
C1068 C1063 1.350 . S
C1069 H1056 0.929 . S
C1069 C1061 1.433 . S
C1069 N1071 1.384 . S
N1070 C1066 1.427 . S
N1070 C1067 1.384 . S
N1071 C1063 1.427 . S
N1071 C1069 1.384 . S
H1072 C1078 0.930 . S
H1073 C1082 0.930 . S
H1074 C1087 0.929 . S
H1075 C1085 0.929 . S
H1076 C1080 0.929 . S
H1077 C1086 0.929 . S
C1078 H1072 0.930 . S
C1078 C1079 1.367 . S
C1078 C1086 1.378 . S
C1079 C1078 1.367 . S
C1079 C1087 1.433 . S
C1080 H1076 0.929 . S
C1080 C1082 1.378 . S
C1080 C1084 1.350 . S
C1081 C1084 1.463 . S
C1081 C1086 1.350 . S
C1081 N1089 1.427 . S
C1082 H1073 0.930 . S
C1082 C1080 1.378 . S
C1082 C1083 1.367 . S
C1083 C1082 1.367 . S
C1083 C1085 1.433 . S
C1084 C1080 1.350 . S
C1084 C1081 1.463 . S
C1084 N1088 1.427 . S
C1085 H1075 0.929 . S
C1085 C1083 1.433 . S
C1085 N1088 1.384 . S
C1086 H1077 0.929 . S
C1086 C1078 1.378 . S
C1086 C1081 1.350 . S
C1087 H1074 0.929 . S
C1087 C1079 1.433 . S
C1087 N1089 1.384 . S
N1088 C1084 1.427 . S
N1088 C1085 1.384 . S
N1089 C1081 1.427 . S
N1089 C1087 1.384 . S
H1090 C1096 0.930 . S
H1091 C1100 0.930 . S
H1092 C1105 0.929 . S
H1093 C1103 0.929 . S
H1094 C1098 0.929 . S
H1095 C1104 0.929 . S
C1096 H1090 0.930 . S
C1096 C1097 1.367 . S
C1096 C1104 1.378 . S
C1097 C1096 1.367 . S
C1097 C1105 1.433 . S
C1098 H1094 0.929 . S
C1098 C1100 1.378 . S
C1098 C1102 1.350 . S
C1099 C1102 1.463 . S
C1099 C1104 1.350 . S
C1099 N1107 1.427 . S
C1100 H1091 0.930 . S
C1100 C1098 1.378 . S
C1100 C1101 1.367 . S
C1101 C1100 1.367 . S
C1101 C1103 1.433 . S
C1102 C1098 1.350 . S
C1102 C1099 1.463 . S
C1102 N1106 1.427 . S
C1103 H1093 0.929 . S
C1103 C1101 1.433 . S
C1103 N1106 1.384 . S
C1104 H1095 0.929 . S
C1104 C1096 1.378 . S
C1104 C1099 1.350 . S
C1105 H1092 0.929 . S
C1105 C1097 1.433 . S
C1105 N1107 1.384 . S
N1106 C1102 1.427 . S
N1106 C1103 1.384 . S
N1107 C1099 1.427 . S
N1107 C1105 1.384 . S
H1108 C1114 0.930 . S
H1109 C1118 0.930 . S
H1110 C1123 0.929 . S
H1111 C1121 0.929 . S
H1112 C1116 0.929 . S
H1113 C1122 0.929 . S
C1114 H1108 0.930 . S
C1114 C1115 1.367 . S
C1114 C1122 1.378 . S
C1115 C1114 1.367 . S
C1115 C1123 1.433 . S
C1116 H1112 0.929 . S
C1116 C1118 1.378 . S
C1116 C1120 1.350 . S
C1117 C1120 1.463 . S
C1117 C1122 1.350 . S
C1117 N1125 1.427 . S
C1118 H1109 0.930 . S
C1118 C1116 1.378 . S
C1118 C1119 1.367 . S
C1119 C1118 1.367 . S
C1119 C1121 1.433 . S
C1120 C1116 1.350 . S
C1120 C1117 1.463 . S
C1120 N1124 1.427 . S
C1121 H1111 0.929 . S
C1121 C1119 1.433 . S
C1121 N1124 1.384 . S
C1122 H1113 0.929 . S
C1122 C1114 1.378 . S
C1122 C1117 1.350 . S
C1123 H1110 0.929 . S
C1123 C1115 1.433 . S
C1123 N1125 1.384 . S
N1124 C1120 1.427 . S
N1124 C1121 1.384 . S
N1125 C1117 1.427 . S
N1125 C1123 1.384 . S
H1126 C1132 0.930 . S
H1127 C1136 0.930 . S
H1128 C1141 0.929 . S
H1129 C1139 0.929 . S
H1130 C1134 0.929 . S
H1131 C1140 0.929 . S
C1132 H1126 0.930 . S
C1132 C1133 1.367 . S
C1132 C1140 1.378 . S
C1133 C1132 1.367 . S
C1133 C1141 1.433 . S
C1134 H1130 0.929 . S
C1134 C1136 1.378 . S
C1134 C1138 1.350 . S
C1135 C1138 1.463 . S
C1135 C1140 1.350 . S
C1135 N1143 1.427 . S
C1136 H1127 0.930 . S
C1136 C1134 1.378 . S
C1136 C1137 1.367 . S
C1137 C1136 1.367 . S
C1137 C1139 1.433 . S
C1138 C1134 1.350 . S
C1138 C1135 1.463 . S
C1138 N1142 1.427 . S
C1139 H1129 0.929 . S
C1139 C1137 1.433 . S
C1139 N1142 1.384 . S
C1140 H1131 0.929 . S
C1140 C1132 1.378 . S
C1140 C1135 1.350 . S
C1141 H1128 0.929 . S
C1141 C1133 1.433 . S
C1141 N1143 1.384 . S
N1142 C1138 1.427 . S
N1142 C1139 1.384 . S
N1143 C1135 1.427 . S
N1143 C1141 1.384 . S
H1144 C1150 0.930 . S
H1145 C1154 0.930 1_554 S
H1146 C1159 0.929 . S
H1147 C1157 0.929 . S
H1148 C1152 0.929 1_554 S
H1149 C1158 0.929 . S
C1150 H1144 0.930 . S
C1150 C1151 1.367 . S
C1150 C1158 1.378 . S
C1151 C1150 1.367 . S
C1151 C1159 1.433 . S
C1152 H1148 0.929 1_556 S
C1152 C1154 1.378 . S
C1152 C1156 1.350 . S
C1153 C1156 1.463 1_655 S
C1153 C1158 1.350 . S
C1153 N1161 1.427 . S
C1154 H1145 0.930 1_556 S
C1154 C1152 1.378 . S
C1154 C1155 1.367 . S
C1155 C1154 1.367 . S
C1155 C1157 1.433 . S
C1156 C1152 1.350 . S
C1156 C1153 1.463 1_455 S
C1156 N1160 1.427 . S
C1157 H1147 0.929 . S
C1157 C1155 1.433 . S
C1157 N1160 1.384 . S
C1158 H1149 0.929 . S
C1158 C1150 1.378 . S
C1158 C1153 1.350 . S
C1159 H1146 0.929 . S
C1159 C1151 1.433 . S
C1159 N1161 1.384 . S
N1160 C1156 1.427 . S
N1160 C1157 1.384 . S
N1161 C1153 1.427 . S
N1161 C1159 1.384 . S
H1162 C1168 0.930 . S
H1163 C1172 0.930 . S
H1164 C1177 0.929 . S
H1165 C1175 0.929 . S
H1166 C1170 0.929 . S
H1167 C1176 0.929 . S
C1168 H1162 0.930 . S
C1168 C1169 1.367 . S
C1168 C1176 1.378 . S
C1169 C1168 1.367 . S
C1169 C1177 1.433 . S
C1170 H1166 0.929 . S
C1170 C1172 1.378 . S
C1170 C1174 1.350 . S
C1171 C1174 1.463 . S
C1171 C1176 1.350 . S
C1171 N1179 1.427 . S
C1172 H1163 0.930 . S
C1172 C1170 1.378 . S
C1172 C1173 1.367 . S
C1173 C1172 1.367 . S
C1173 C1175 1.433 . S
C1174 C1170 1.350 . S
C1174 C1171 1.463 . S
C1174 N1178 1.427 . S
C1175 H1165 0.929 . S
C1175 C1173 1.433 . S
C1175 N1178 1.384 . S
C1176 H1167 0.929 . S
C1176 C1168 1.378 . S
C1176 C1171 1.350 . S
C1177 H1164 0.929 . S
C1177 C1169 1.433 . S
C1177 N1179 1.384 . S
N1178 C1174 1.427 . S
N1178 C1175 1.384 . S
N1179 C1171 1.427 . S
N1179 C1177 1.384 . S
H1180 C1186 0.930 . S
H1181 C1190 0.930 . S
H1182 C1195 0.929 . S
H1183 C1193 0.929 . S
H1184 C1188 0.929 . S
H1185 C1194 0.929 . S
C1186 H1180 0.930 . S
C1186 C1187 1.367 . S
C1186 C1194 1.378 . S
C1187 C1186 1.367 . S
C1187 C1195 1.433 . S
C1188 H1184 0.929 . S
C1188 C1190 1.378 . S
C1188 C1192 1.350 . S
C1189 C1192 1.463 . S
C1189 C1194 1.350 . S
C1189 N1197 1.427 . S
C1190 H1181 0.930 . S
C1190 C1188 1.378 . S
C1190 C1191 1.367 . S
C1191 C1190 1.367 . S
C1191 C1193 1.433 . S
C1192 C1188 1.350 . S
C1192 C1189 1.463 . S
C1192 N1196 1.427 . S
C1193 H1183 0.929 . S
C1193 C1191 1.433 . S
C1193 N1196 1.384 . S
C1194 H1185 0.929 . S
C1194 C1186 1.378 . S
C1194 C1189 1.350 . S
C1195 H1182 0.929 . S
C1195 C1187 1.433 . S
C1195 N1197 1.384 . S
N1196 C1192 1.427 . S
N1196 C1193 1.384 . S
N1197 C1189 1.427 . S
N1197 C1195 1.384 . S
H1198 C1204 0.930 . S
H1199 C1208 0.930 . S
H1200 C1213 0.929 . S
H1201 C1211 0.929 . S
H1202 C1206 0.929 . S
H1203 C1212 0.929 1_556 S
C1204 H1198 0.930 . S
C1204 C1205 1.367 . S
C1204 C1212 1.378 . S
C1205 C1204 1.367 . S
C1205 C1213 1.433 . S
C1206 H1202 0.929 . S
C1206 C1208 1.378 . S
C1206 C1210 1.350 . S
C1207 C1210 1.463 1_455 S
C1207 C1212 1.350 . S
C1207 N1215 1.427 . S
C1208 H1199 0.930 . S
C1208 C1206 1.378 . S
C1208 C1209 1.367 . S
C1209 C1208 1.367 . S
C1209 C1211 1.433 1_554 S
C1210 C1206 1.350 . S
C1210 C1207 1.463 1_655 S
C1210 N1214 1.427 1_554 S
C1211 H1201 0.929 . S
C1211 C1209 1.433 1_556 S
C1211 N1214 1.384 . S
C1212 H1203 0.929 1_554 S
C1212 C1204 1.378 . S
C1212 C1207 1.350 . S
C1213 H1200 0.929 . S
C1213 C1205 1.433 . S
C1213 N1215 1.384 . S
N1214 C1210 1.427 1_556 S
N1214 C1211 1.384 . S
N1215 C1207 1.427 . S
N1215 C1213 1.384 . S
H1216 C1222 0.930 . S
H1217 C1226 0.930 . S
H1218 C1231 0.929 . S
H1219 C1229 0.929 . S
H1220 C1224 0.929 . S
H1221 C1230 0.929 . S
C1222 H1216 0.930 . S
C1222 C1223 1.367 . S
C1222 C1230 1.378 . S
C1223 C1222 1.367 . S
C1223 C1231 1.433 . S
C1224 H1220 0.929 . S
C1224 C1226 1.378 . S
C1224 C1228 1.350 . S
C1225 C1228 1.463 1_554 S
C1225 C1230 1.350 . S
C1225 N1233 1.427 . S
C1226 H1217 0.930 . S
C1226 C1224 1.378 . S
C1226 C1227 1.367 . S
C1227 C1226 1.367 . S
C1227 C1229 1.433 . S
C1228 C1224 1.350 . S
C1228 C1225 1.463 1_556 S
C1228 N1232 1.427 1_556 S
C1229 H1219 0.929 . S
C1229 C1227 1.433 . S
C1229 N1232 1.384 1_556 S
C1230 H1221 0.929 . S
C1230 C1222 1.378 . S
C1230 C1225 1.350 . S
C1231 H1218 0.929 . S
C1231 C1223 1.433 . S
C1231 N1233 1.384 . S
N1232 C1228 1.427 1_554 S
N1232 C1229 1.384 1_554 S
N1233 C1225 1.427 . S
N1233 C1231 1.384 . S
H1234 C1240 0.930 . S
H1235 C1244 0.930 . S
H1236 C1249 0.929 . S
H1237 C1247 0.929 . S
H1238 C1242 0.929 . S
H1239 C1248 0.929 . S
C1240 H1234 0.930 . S
C1240 C1241 1.367 . S
C1240 C1248 1.378 . S
C1241 C1240 1.367 . S
C1241 C1249 1.433 . S
C1242 H1238 0.929 . S
C1242 C1244 1.378 . S
C1242 C1246 1.350 . S
C1243 C1246 1.463 . S
C1243 C1248 1.350 . S
C1243 N1251 1.427 . S
C1244 H1235 0.930 . S
C1244 C1242 1.378 . S
C1244 C1245 1.367 . S
C1245 C1244 1.367 . S
C1245 C1247 1.433 . S
C1246 C1242 1.350 . S
C1246 C1243 1.463 . S
C1246 N1250 1.427 . S
C1247 H1237 0.929 . S
C1247 C1245 1.433 . S
C1247 N1250 1.384 . S
C1248 H1239 0.929 . S
C1248 C1240 1.378 . S
C1248 C1243 1.350 . S
C1249 H1236 0.929 . S
C1249 C1241 1.433 . S
C1249 N1251 1.384 . S
N1250 C1246 1.427 . S
N1250 C1247 1.384 . S
N1251 C1243 1.427 . S
N1251 C1249 1.384 . S
H1252 C1258 0.930 . S
H1253 C1262 0.930 . S
H1254 C1267 0.929 . S
H1255 C1265 0.929 . S
H1256 C1260 0.929 . S
H1257 C1266 0.929 . S
C1258 H1252 0.930 . S
C1258 C1259 1.367 . S
C1258 C1266 1.378 . S
C1259 C1258 1.367 . S
C1259 C1267 1.433 . S
C1260 H1256 0.929 . S
C1260 C1262 1.378 . S
C1260 C1264 1.350 . S
C1261 C1264 1.463 . S
C1261 C1266 1.350 . S
C1261 N1269 1.427 . S
C1262 H1253 0.930 . S
C1262 C1260 1.378 . S
C1262 C1263 1.367 . S
C1263 C1262 1.367 . S
C1263 C1265 1.433 . S
C1264 C1260 1.350 . S
C1264 C1261 1.463 . S
C1264 N1268 1.427 . S
C1265 H1255 0.929 . S
C1265 C1263 1.433 . S
C1265 N1268 1.384 . S
C1266 H1257 0.929 . S
C1266 C1258 1.378 . S
C1266 C1261 1.350 . S
C1267 H1254 0.929 . S
C1267 C1259 1.433 . S
C1267 N1269 1.384 . S
N1268 C1264 1.427 . S
N1268 C1265 1.384 . S
N1269 C1261 1.427 . S
N1269 C1267 1.384 . S
H1270 C1276 0.930 . S
H1271 C1280 0.930 . S
H1272 C1285 0.929 . S
H1273 C1283 0.929 . S
H1274 C1278 0.929 . S
H1275 C1284 0.929 . S
C1276 H1270 0.930 . S
C1276 C1277 1.367 . S
C1276 C1284 1.378 . S
C1277 C1276 1.367 . S
C1277 C1285 1.433 . S
C1278 H1274 0.929 . S
C1278 C1280 1.378 . S
C1278 C1282 1.350 . S
C1279 C1282 1.463 . S
C1279 C1284 1.350 . S
C1279 N1287 1.427 . S
C1280 H1271 0.930 . S
C1280 C1278 1.378 . S
C1280 C1281 1.367 . S
C1281 C1280 1.367 . S
C1281 C1283 1.433 . S
C1282 C1278 1.350 . S
C1282 C1279 1.463 . S
C1282 N1286 1.427 . S
C1283 H1273 0.929 . S
C1283 C1281 1.433 . S
C1283 N1286 1.384 . S
C1284 H1275 0.929 . S
C1284 C1276 1.378 . S
C1284 C1279 1.350 . S
C1285 H1272 0.929 . S
C1285 C1277 1.433 . S
C1285 N1287 1.384 . S
N1286 C1282 1.427 . S
N1286 C1283 1.384 . S
N1287 C1279 1.427 . S
N1287 C1285 1.384 . S
H1288 C1294 0.930 . S
H1289 C1298 0.930 . S
H1290 C1303 0.929 . S
H1291 C1301 0.929 . S
H1292 C1296 0.929 . S
H1293 C1302 0.929 . S
C1294 H1288 0.930 . S
C1294 C1295 1.367 1_556 S
C1294 C1302 1.378 . S
C1295 C1294 1.367 1_554 S
C1295 C1303 1.433 . S
C1296 H1292 0.929 . S
C1296 C1298 1.378 . S
C1296 C1300 1.350 . S
C1297 C1300 1.463 . S
C1297 C1302 1.350 . S
C1297 N1305 1.427 . S
C1298 H1289 0.930 . S
C1298 C1296 1.378 . S
C1298 C1299 1.367 . S
C1299 C1298 1.367 . S
C1299 C1301 1.433 . S
C1300 C1296 1.350 . S
C1300 C1297 1.463 . S
C1300 N1304 1.427 . S
C1301 H1291 0.929 . S
C1301 C1299 1.433 . S
C1301 N1304 1.384 . S
C1302 H1293 0.929 . S
C1302 C1294 1.378 . S
C1302 C1297 1.350 . S
C1303 H1290 0.929 . S
C1303 C1295 1.433 . S
C1303 N1305 1.384 1_554 S
N1304 C1300 1.427 . S
N1304 C1301 1.384 . S
N1305 C1297 1.427 . S
N1305 C1303 1.384 1_556 S
H1306 C1312 0.930 . S
H1307 C1316 0.930 . S
H1308 C1321 0.929 . S
H1309 C1319 0.929 . S
H1310 C1314 0.929 . S
H1311 C1320 0.929 . S
C1312 H1306 0.930 . S
C1312 C1313 1.367 . S
C1312 C1320 1.378 . S
C1313 C1312 1.367 . S
C1313 C1321 1.433 . S
C1314 H1310 0.929 . S
C1314 C1316 1.378 . S
C1314 C1318 1.350 . S
C1315 C1318 1.463 . S
C1315 C1320 1.350 . S
C1315 N1323 1.427 . S
C1316 H1307 0.930 . S
C1316 C1314 1.378 . S
C1316 C1317 1.367 . S
C1317 C1316 1.367 . S
C1317 C1319 1.433 . S
C1318 C1314 1.350 . S
C1318 C1315 1.463 . S
C1318 N1322 1.427 . S
C1319 H1309 0.929 . S
C1319 C1317 1.433 . S
C1319 N1322 1.384 . S
C1320 H1311 0.929 . S
C1320 C1312 1.378 . S
C1320 C1315 1.350 . S
C1321 H1308 0.929 . S
C1321 C1313 1.433 . S
C1321 N1323 1.384 . S
N1322 C1318 1.427 . S
N1322 C1319 1.384 . S
N1323 C1315 1.427 . S
N1323 C1321 1.384 . S
H1324 C1330 0.930 . S
H1325 C1334 0.930 . S
H1326 C1339 0.929 . S
H1327 C1337 0.929 . S
H1328 C1332 0.929 . S
H1329 C1338 0.929 . S
C1330 H1324 0.930 . S
C1330 C1331 1.367 . S
C1330 C1338 1.378 . S
C1331 C1330 1.367 . S
C1331 C1339 1.433 . S
C1332 H1328 0.929 . S
C1332 C1334 1.378 . S
C1332 C1336 1.350 . S
C1333 C1336 1.463 . S
C1333 C1338 1.350 . S
C1333 N1341 1.427 . S
C1334 H1325 0.930 . S
C1334 C1332 1.378 . S
C1334 C1335 1.367 . S
C1335 C1334 1.367 . S
C1335 C1337 1.433 . S
C1336 C1332 1.350 . S
C1336 C1333 1.463 . S
C1336 N1340 1.427 . S
C1337 H1327 0.929 . S
C1337 C1335 1.433 . S
C1337 N1340 1.384 . S
C1338 H1329 0.929 . S
C1338 C1330 1.378 . S
C1338 C1333 1.350 . S
C1339 H1326 0.929 . S
C1339 C1331 1.433 . S
C1339 N1341 1.384 . S
N1340 C1336 1.427 . S
N1340 C1337 1.384 . S
N1341 C1333 1.427 . S
N1341 C1339 1.384 . S
H1342 C1348 0.930 . S
H1343 C1352 0.930 . S
H1344 C1357 0.929 . S
H1345 C1355 0.929 . S
H1346 C1350 0.929 . S
H1347 C1356 0.929 . S
C1348 H1342 0.930 . S
C1348 C1349 1.367 . S
C1348 C1356 1.378 . S
C1349 C1348 1.367 . S
C1349 C1357 1.433 . S
C1350 H1346 0.929 . S
C1350 C1352 1.378 . S
C1350 C1354 1.350 . S
C1351 C1354 1.463 . S
C1351 C1356 1.350 . S
C1351 N1359 1.427 . S
C1352 H1343 0.930 . S
C1352 C1350 1.378 . S
C1352 C1353 1.367 . S
C1353 C1352 1.367 . S
C1353 C1355 1.433 . S
C1354 C1350 1.350 . S
C1354 C1351 1.463 . S
C1354 N1358 1.427 . S
C1355 H1345 0.929 . S
C1355 C1353 1.433 . S
C1355 N1358 1.384 . S
C1356 H1347 0.929 . S
C1356 C1348 1.378 . S
C1356 C1351 1.350 . S
C1357 H1344 0.929 . S
C1357 C1349 1.433 . S
C1357 N1359 1.384 . S
N1358 C1354 1.427 . S
N1358 C1355 1.384 . S
N1359 C1351 1.427 . S
N1359 C1357 1.384 . S
H1360 C1366 0.930 . S
H1361 C1370 0.930 . S
H1362 C1375 0.929 . S
H1363 C1373 0.929 . S
H1364 C1368 0.929 . S
H1365 C1374 0.929 . S
C1366 H1360 0.930 . S
C1366 C1367 1.367 . S
C1366 C1374 1.378 . S
C1367 C1366 1.367 . S
C1367 C1375 1.433 . S
C1368 H1364 0.929 . S
C1368 C1370 1.378 . S
C1368 C1372 1.350 . S
C1369 C1372 1.463 1_565 S
C1369 C1374 1.350 . S
C1369 N1377 1.427 . S
C1370 H1361 0.930 . S
C1370 C1368 1.378 . S
C1370 C1371 1.367 . S
C1371 C1370 1.367 . S
C1371 C1373 1.433 . S
C1372 C1368 1.350 . S
C1372 C1369 1.463 1_545 S
C1372 N1376 1.427 . S
C1373 H1363 0.929 . S
C1373 C1371 1.433 . S
C1373 N1376 1.384 . S
C1374 H1365 0.929 . S
C1374 C1366 1.378 . S
C1374 C1369 1.350 . S
C1375 H1362 0.929 . S
C1375 C1367 1.433 . S
C1375 N1377 1.384 . S
N1376 C1372 1.427 . S
N1376 C1373 1.384 . S
N1377 C1369 1.427 . S
N1377 C1375 1.384 . S
H1378 C1384 0.930 . S
H1379 C1388 0.930 . S
H1380 C1393 0.929 . S
H1381 C1391 0.929 . S
H1382 C1386 0.929 . S
H1383 C1392 0.929 . S
C1384 H1378 0.930 . S
C1384 C1385 1.367 . S
C1384 C1392 1.378 . S
C1385 C1384 1.367 . S
C1385 C1393 1.433 . S
C1386 H1382 0.929 . S
C1386 C1388 1.378 . S
C1386 C1390 1.350 . S
C1387 C1390 1.463 . S
C1387 C1392 1.350 . S
C1387 N1395 1.427 . S
C1388 H1379 0.930 . S
C1388 C1386 1.378 . S
C1388 C1389 1.367 . S
C1389 C1388 1.367 . S
C1389 C1391 1.433 . S
C1390 C1386 1.350 . S
C1390 C1387 1.463 . S
C1390 N1394 1.427 . S
C1391 H1381 0.929 . S
C1391 C1389 1.433 . S
C1391 N1394 1.384 . S
C1392 H1383 0.929 . S
C1392 C1384 1.378 . S
C1392 C1387 1.350 . S
C1393 H1380 0.929 . S
C1393 C1385 1.433 . S
C1393 N1395 1.384 . S
N1394 C1390 1.427 . S
N1394 C1391 1.384 . S
N1395 C1387 1.427 . S
N1395 C1393 1.384 . S
H1396 C1402 0.930 . S
H1397 C1406 0.930 1_556 S
H1398 C1411 0.929 . S
H1399 C1409 0.929 . S
H1400 C1404 0.929 . S
H1401 C1410 0.929 . S
C1402 H1396 0.930 . S
C1402 C1403 1.367 . S
C1402 C1410 1.378 . S
C1403 C1402 1.367 . S
C1403 C1411 1.433 . S
C1404 H1400 0.929 . S
C1404 C1406 1.378 . S
C1404 C1408 1.350 . S
C1405 C1408 1.463 1_565 S
C1405 C1410 1.350 . S
C1405 N1413 1.427 . S
C1406 H1397 0.930 1_554 S
C1406 C1404 1.378 . S
C1406 C1407 1.367 . S
C1407 C1406 1.367 . S
C1407 C1409 1.433 . S
C1408 C1404 1.350 . S
C1408 C1405 1.463 1_545 S
C1408 N1412 1.427 . S
C1409 H1399 0.929 . S
C1409 C1407 1.433 . S
C1409 N1412 1.384 . S
C1410 H1401 0.929 . S
C1410 C1402 1.378 . S
C1410 C1405 1.350 . S
C1411 H1398 0.929 . S
C1411 C1403 1.433 . S
C1411 N1413 1.384 . S
N1412 C1408 1.427 . S
N1412 C1409 1.384 . S
N1413 C1405 1.427 . S
N1413 C1411 1.384 . S
H1414 C1420 0.930 . S
H1415 C1424 0.930 . S
H1416 C1429 0.929 . S
H1417 C1427 0.929 . S
H1418 C1422 0.929 . S
H1419 C1428 0.929 . S
C1420 H1414 0.930 . S
C1420 C1421 1.367 . S
C1420 C1428 1.378 . S
C1421 C1420 1.367 . S
C1421 C1429 1.433 . S
C1422 H1418 0.929 . S
C1422 C1424 1.378 . S
C1422 C1426 1.350 . S
C1423 C1426 1.463 . S
C1423 C1428 1.350 . S
C1423 N1431 1.427 . S
C1424 H1415 0.930 . S
C1424 C1422 1.378 . S
C1424 C1425 1.367 . S
C1425 C1424 1.367 . S
C1425 C1427 1.433 . S
C1426 C1422 1.350 . S
C1426 C1423 1.463 . S
C1426 N1430 1.427 . S
C1427 H1417 0.929 . S
C1427 C1425 1.433 . S
C1427 N1430 1.384 . S
C1428 H1419 0.929 . S
C1428 C1420 1.378 . S
C1428 C1423 1.350 . S
C1429 H1416 0.929 . S
C1429 C1421 1.433 . S
C1429 N1431 1.384 . S
N1430 C1426 1.427 . S
N1430 C1427 1.384 . S
N1431 C1423 1.427 . S
N1431 C1429 1.384 . S
H1432 C1438 0.930 . S
H1433 C1442 0.930 . S
H1434 C1447 0.929 . S
H1435 C1445 0.929 . S
H1436 C1440 0.929 . S
H1437 C1446 0.929 . S
C1438 H1432 0.930 . S
C1438 C1439 1.367 . S
C1438 C1446 1.378 . S
C1439 C1438 1.367 . S
C1439 C1447 1.433 . S
C1440 H1436 0.929 . S
C1440 C1442 1.378 . S
C1440 C1444 1.350 . S
C1441 C1444 1.463 1_565 S
C1441 C1446 1.350 . S
C1441 N1449 1.427 . S
C1442 H1433 0.930 . S
C1442 C1440 1.378 . S
C1442 C1443 1.367 . S
C1443 C1442 1.367 . S
C1443 C1445 1.433 . S
C1444 C1440 1.350 . S
C1444 C1441 1.463 1_545 S
C1444 N1448 1.427 . S
C1445 H1435 0.929 . S
C1445 C1443 1.433 . S
C1445 N1448 1.384 . S
C1446 H1437 0.929 . S
C1446 C1438 1.378 . S
C1446 C1441 1.350 . S
C1447 H1434 0.929 . S
C1447 C1439 1.433 . S
C1447 N1449 1.384 . S
N1448 C1444 1.427 . S
N1448 C1445 1.384 . S
N1449 C1441 1.427 . S
N1449 C1447 1.384 . S
H1450 C1456 0.930 . S
H1451 C1460 0.930 . S
H1452 C1465 0.929 . S
H1453 C1463 0.929 . S
H1454 C1458 0.929 . S
H1455 C1464 0.929 . S
C1456 H1450 0.930 . S
C1456 C1457 1.367 . S
C1456 C1464 1.378 . S
C1457 C1456 1.367 . S
C1457 C1465 1.433 . S
C1458 H1454 0.929 . S
C1458 C1460 1.378 . S
C1458 C1462 1.350 . S
C1459 C1462 1.463 . S
C1459 C1464 1.350 . S
C1459 N1467 1.427 . S
C1460 H1451 0.930 . S
C1460 C1458 1.378 . S
C1460 C1461 1.367 . S
C1461 C1460 1.367 . S
C1461 C1463 1.433 . S
C1462 C1458 1.350 . S
C1462 C1459 1.463 . S
C1462 N1466 1.427 . S
C1463 H1453 0.929 . S
C1463 C1461 1.433 . S
C1463 N1466 1.384 . S
C1464 H1455 0.929 . S
C1464 C1456 1.378 . S
C1464 C1459 1.350 . S
C1465 H1452 0.929 . S
C1465 C1457 1.433 . S
C1465 N1467 1.384 . S
N1466 C1462 1.427 . S
N1466 C1463 1.384 . S
N1467 C1459 1.427 . S
N1467 C1465 1.384 . S
H1468 C1474 0.930 . S
H1469 C1478 0.930 . S
H1470 C1483 0.929 . S
H1471 C1481 0.929 . S
H1472 C1476 0.954 . S
H1473 C1482 0.929 1_565 S
C1474 H1468 0.930 . S
C1474 C1475 1.367 . S
C1474 C1482 1.378 . S
C1475 C1474 1.367 . S
C1475 C1483 1.433 . S
C1476 H1472 0.954 . S
C1476 C1478 1.378 . S
C1476 C1480 1.350 1_554 S
C1477 C1480 1.463 1_545 S
C1477 C1482 1.350 . S
C1477 N1485 1.427 . S
C1478 H1469 0.930 . S
C1478 C1476 1.378 . S
C1478 C1479 1.367 1_554 S
C1479 C1478 1.367 1_556 S
C1479 C1481 1.433 . S
C1480 C1476 1.350 1_556 S
C1480 C1477 1.463 1_565 S
C1480 N1484 1.427 . S
C1481 H1471 0.929 . S
C1481 C1479 1.433 . S
C1481 N1484 1.384 . S
C1482 H1473 0.929 1_545 S
C1482 C1474 1.378 . S
C1482 C1477 1.350 . S
C1483 H1470 0.929 . S
C1483 C1475 1.433 . S
C1483 N1485 1.384 . S
N1484 C1480 1.427 . S
N1484 C1481 1.384 . S
N1485 C1477 1.427 . S
N1485 C1483 1.384 . S
H1486 C1492 0.930 . S
H1487 C1496 0.930 . S
H1488 C1501 0.929 . S
H1489 C1499 0.929 . S
H1490 C1494 0.929 . S
H1491 C1500 0.929 . S
C1492 H1486 0.930 . S
C1492 C1493 1.367 . S
C1492 C1500 1.378 . S
C1493 C1492 1.367 . S
C1493 C1501 1.433 . S
C1494 H1490 0.929 . S
C1494 C1496 1.378 . S
C1494 C1498 1.350 . S
C1495 C1498 1.463 . S
C1495 C1500 1.350 . S
C1495 N1503 1.427 . S
C1496 H1487 0.930 . S
C1496 C1494 1.378 . S
C1496 C1497 1.367 . S
C1497 C1496 1.367 . S
C1497 C1499 1.433 . S
C1498 C1494 1.350 . S
C1498 C1495 1.463 . S
C1498 N1502 1.427 . S
C1499 H1489 0.929 . S
C1499 C1497 1.433 . S
C1499 N1502 1.384 . S
C1500 H1491 0.929 . S
C1500 C1492 1.378 . S
C1500 C1495 1.350 . S
C1501 H1488 0.929 . S
C1501 C1493 1.433 . S
C1501 N1503 1.384 . S
N1502 C1498 1.427 . S
N1502 C1499 1.384 . S
N1503 C1495 1.427 . S
N1503 C1501 1.384 . S
C647 C6 1.826 . S
C651 C15 1.826 . S
C665 C55 1.652 . S
C669 C46 1.652 . S
C683 C95 1.869 . S
C687 C86 1.869 1_554 S
C701 C126 1.568 . S
C705 C135 1.568 . S
C719 C166 1.641 . S
C723 C175 1.641 . S
C737 C206 1.530 . S
C741 C215 1.530 . S
C755 C255 1.590 . S
C759 C246 1.590 . S
C773 C295 1.822 1_554 S
C777 C286 1.822 . S
C791 C335 1.928 . S
C795 C326 1.928 . S
C809 C375 1.674 . S
C813 C366 1.674 . S
C827 C406 1.608 1_556 S
C831 C415 1.608 . S
C845 C455 1.605 . S
C849 C446 1.605 . S
C863 C495 1.618 . S
C867 C486 1.618 . S
C881 C526 1.614 . S
C885 C535 1.614 . S
C899 C566 1.544 . S
C903 C575 1.544 . S
C917 C606 1.740 1_556 S
C921 C615 1.740 . S
C935 C9 1.495 . S
C939 C459 1.589 . S
C953 C50 1.878 . S
C957 C619 1.927 . S
C971 C90 1.679 . S
C975 C378 1.701 . S
C989 C129 1.779 . S
C993 C539 1.867 . S
C1007 C169 1.582 . S
C1011 C538 1.626 . S
C1025 C458 1.833 . S
C1029 C210 1.920 . S
C1043 C250 1.587 . S
C1047 C618 1.539 . S
C1061 C290 1.776 . S
C1065 C379 1.768 . S
C1079 C130 1.585 . S
C1083 C338 1.497 . S
C1097 C49 1.625 . S
C1101 C418 1.604 . S
C1115 C498 1.616 . S
C1119 C209 1.579 . S
C1133 C289 1.550 . S
C1137 C579 1.628 . S
C1151 C339 1.749 . S
C1155 C170 1.777 . S
C1169 C249 1.808 . S
C1173 C419 1.837 . S
C1187 C89 1.778 . S
C1191 C578 1.689 . S
C1205 C10 1.862 . S
C1209 C499 1.839 . S
C1223 C18 1.405 . S
C1227 C178 1.396 . S
C1241 C59 2.035 . S
C1245 C219 2.054 . S
C1259 C99 1.847 . S
C1263 C259 1.850 . S
C1277 C138 1.714 . S
C1281 C299 1.706 . S
C1295 C489 1.324 . S
C1299 C329 1.346 . S
C1313 C530 1.802 . S
C1317 C370 1.795 . S
C1331 C409 2.058 . S
C1335 C570 2.057 . S
C1349 C610 1.842 . S
C1353 C449 1.849 . S
C1367 C58 1.434 . S
C1371 C298 1.448 . S
C1385 C179 1.996 . S
C1389 C98 2.005 . S
C1403 C218 1.879 . S
C1407 C139 1.878 1_554 S
C1421 C19 1.681 . S
C1425 C258 1.689 . S
C1439 C609 1.476 . S
C1443 C369 1.462 . S
C1457 C490 2.028 . S
C1461 C410 2.053 . S
C1475 C529 1.839 . S
C1479 C450 1.839 1_556 S
C1493 C569 1.597 . S
C1497 C330 1.590 . S
