# Generated by pormake.
# Topology wjh, (4)-cn, num edge types: 1
# Building blocks:
#     Node 0, Type 0, BuildingBlock: QUQFOY_clean_sbu_1, # of connection points: 4
#     Node 1, Type 0, BuildingBlock: QUQFOY_clean_sbu_1, # of connection points: 4
#     Node 2, Type 0, BuildingBlock: QUQFOY_clean_sbu_1, # of connection points: 4
#     Node 3, Type 0, BuildingBlock: QUQFOY_clean_sbu_1, # of connection points: 4
#     Node 4, Type 0, BuildingBlock: QUQFOY_clean_sbu_1, # of connection points: 4
#     Node 5, Type 0, BuildingBlock: QUQFOY_clean_sbu_1, # of connection points: 4
#     Node 6, Type 0, BuildingBlock: QUQFOY_clean_sbu_1, # of connection points: 4
#     Node 7, Type 0, BuildingBlock: QUQFOY_clean_sbu_1, # of connection points: 4
#     Node 8, Type 0, BuildingBlock: QUQFOY_clean_sbu_1, # of connection points: 4
#     Node 9, Type 0, BuildingBlock: QUQFOY_clean_sbu_1, # of connection points: 4
#     Node 10, Type 0, BuildingBlock: QUQFOY_clean_sbu_1, # of connection points: 4
#     Node 11, Type 0, BuildingBlock: QUQFOY_clean_sbu_1, # of connection points: 4
#     Edge 12, Type (0, 0), BuildingBlock: OJICUG_clean_linker_0, # of connection points: 2
#     Edge 13, Type (0, 0), BuildingBlock: OJICUG_clean_linker_0, # of connection points: 2
#     Edge 14, Type (0, 0), BuildingBlock: OJICUG_clean_linker_0, # of connection points: 2
#     Edge 15, Type (0, 0), BuildingBlock: OJICUG_clean_linker_0, # of connection points: 2
#     Edge 16, Type (0, 0), BuildingBlock: OJICUG_clean_linker_0, # of connection points: 2
#     Edge 17, Type (0, 0), BuildingBlock: OJICUG_clean_linker_0, # of connection points: 2
#     Edge 18, Type (0, 0), BuildingBlock: OJICUG_clean_linker_0, # of connection points: 2
#     Edge 19, Type (0, 0), BuildingBlock: OJICUG_clean_linker_0, # of connection points: 2
#     Edge 20, Type (0, 0), BuildingBlock: OJICUG_clean_linker_0, # of connection points: 2
#     Edge 21, Type (0, 0), BuildingBlock: OJICUG_clean_linker_0, # of connection points: 2
#     Edge 22, Type (0, 0), BuildingBlock: OJICUG_clean_linker_0, # of connection points: 2
#     Edge 23, Type (0, 0), BuildingBlock: OJICUG_clean_linker_0, # of connection points: 2
#     Edge 24, Type (0, 0), BuildingBlock: OJICUG_clean_linker_0, # of connection points: 2
#     Edge 25, Type (0, 0), BuildingBlock: OJICUG_clean_linker_0, # of connection points: 2
#     Edge 26, Type (0, 0), BuildingBlock: OJICUG_clean_linker_0, # of connection points: 2
#     Edge 27, Type (0, 0), BuildingBlock: OJICUG_clean_linker_0, # of connection points: 2
#     Edge 28, Type (0, 0), BuildingBlock: OJICUG_clean_linker_0, # of connection points: 2
#     Edge 29, Type (0, 0), BuildingBlock: OJICUG_clean_linker_0, # of connection points: 2
#     Edge 30, Type (0, 0), BuildingBlock: OJICUG_clean_linker_0, # of connection points: 2
#     Edge 31, Type (0, 0), BuildingBlock: OJICUG_clean_linker_0, # of connection points: 2
#     Edge 32, Type (0, 0), BuildingBlock: OJICUG_clean_linker_0, # of connection points: 2
#     Edge 33, Type (0, 0), BuildingBlock: OJICUG_clean_linker_0, # of connection points: 2
#     Edge 34, Type (0, 0), BuildingBlock: OJICUG_clean_linker_0, # of connection points: 2
#     Edge 35, Type (0, 0), BuildingBlock: OJICUG_clean_linker_0, # of connection points: 2
# Relax obj value: 0.026
# Max RMSD: 0.074
# Mean RMSD: 0.073
data_MOF--net-wjh--node1-QUQFOY_clean_sbu_1--edge1-OJICUG_clean_linker_0
_symmetry_space_group_name_H-M    P1
_symmetry_Int_Tables_number       1
_symmetry_cell_setting            triclinic
loop_
_symmetry_equiv_pos_as_xyz
'x, y, z'
_cell_length_a     47.006366
_cell_length_b     46.87004
_cell_length_c     20.401508
_cell_angle_alpha  90.100201
_cell_angle_beta   90.085953
_cell_angle_gamma 119.99575
loop_
_atom_site_label
_atom_site_type_symbol
_atom_site_fract_x
_atom_site_fract_y
_atom_site_fract_z
_atom_type_partial_charge
O0 O 0.50027 0.08732 0.08475 0.0
Cd1 Cd 0.53438 0.13698 0.07903 0.0
Cd2 Cd 0.4831 0.13645 0.14973 0.0
O3 O 0.45608 0.0881 0.11907 0.0
O4 O 0.56776 0.13874 1.01556 0.0
O5 O 0.53639 0.16025 0.99411 0.0
C6 C 0.55846 0.1534 0.97476 0.0
C7 C 0.46357 0.17313 0.15304 0.0
C8 C 0.46977 0.0723 0.09833 0.0
C9 C 0.54752 0.15712 0.21895 0.0
O10 O 0.5169 0.14651 0.2227 0.0
O11 O 0.56079 0.15869 0.16377 0.0
O12 O 0.45332 0.1491 0.19401 0.0
O13 O 0.48284 0.17465 0.10634 0.0
O14 O 0.4146 0.50133 0.26913 0.0
Cd15 Cd 0.3966 0.53346 0.26497 0.0
Cd16 Cd 0.34844 0.48229 0.3273 0.0
O17 O 0.3682 0.45542 0.28829 0.0
O18 O 0.42693 0.5687 0.20304 0.0
O19 O 0.37465 0.5344 0.18041 0.0
C20 C 0.40296 0.55801 0.16178 0.0
C21 C 0.29542 0.47221 0.31938 0.0
C22 C 0.3986 0.47012 0.27433 0.0
C23 C 0.3887 0.54215 0.40625 0.0
O24 O 0.37171 0.51092 0.40751 0.0
O25 O 0.39804 0.55717 0.35173 0.0
O26 O 0.30201 0.45319 0.35397 0.0
O27 O 0.31845 0.49486 0.284 0.0
O28 O 0.91402 0.41462 0.40211 0.0
Cd29 Cd 0.86484 0.40016 0.39276 0.0
Cd30 Cd 0.86324 0.34868 0.46754 0.0
O31 O 0.9121 0.3699 0.44238 0.0
O32 O 0.86439 0.43191 0.32762 0.0
O33 O 0.84148 0.37862 0.30776 0.0
C34 C 0.849 0.40765 0.28753 0.0
C35 C 0.82788 0.29215 0.47406 0.0
C36 C 0.92845 0.3991 0.42035 0.0
C37 C 0.84311 0.3946 0.53093 0.0
O38 O 0.85184 0.37313 0.53663 0.0
O39 O 0.84348 0.40697 0.4753 0.0
O40 O 0.85107 0.30738 0.51632 0.0
O41 O 0.8264 0.30862 0.4247 0.0
O42 O 0.49968 0.91452 0.56433 0.0
Cd43 Cd 0.46469 0.86517 0.55791 0.0
Cd44 Cd 0.51473 0.86424 0.63272 0.0
O45 O 0.54259 0.91276 0.60397 0.0
O46 O 0.4322 0.86407 0.49284 0.0
O47 O 0.46207 0.8406 0.47423 0.0
C48 C 0.44063 0.84807 0.45356 0.0
C49 C 0.53491 0.82812 0.64174 0.0
C50 C 0.5298 0.92903 0.58118 0.0
C51 C 0.4495 0.8456 0.69717 0.0
O52 O 0.47968 0.85438 0.70252 0.0
O53 O 0.43711 0.84507 0.64145 0.0
O54 O 0.5438 0.85225 0.68223 0.0
O55 O 0.51665 0.82611 0.5925 0.0
O56 O 0.58458 0.50131 0.77067 0.0
Cd57 Cd 0.60254 0.46915 0.76608 0.0
Cd58 Cd 0.65092 0.5202 0.82857 0.0
O59 O 0.63106 0.54714 0.79048 0.0
O60 O 0.5722 0.43395 0.70359 0.0
O61 O 0.62447 0.4683 0.68161 0.0
C62 C 0.59617 0.44468 0.66257 0.0
C63 C 0.70369 0.52985 0.81839 0.0
C64 C 0.60064 0.53252 0.77635 0.0
C65 C 0.61093 0.46043 0.90719 0.0
O66 O 0.62811 0.49165 0.90878 0.0
O67 O 0.60125 0.44542 0.85253 0.0
O68 O 0.69768 0.54906 0.85391 0.0
O69 O 0.68016 0.50721 0.78359 0.0
O70 O 0.086 0.58491 0.91134 0.0
Cd71 Cd 0.13574 0.60154 0.90914 0.0
Cd72 Cd 0.13397 0.65013 0.97552 0.0
O73 O 0.08735 0.63126 0.9371 0.0
O74 O 0.13963 0.57084 0.8463 0.0
O75 O 0.16012 0.62383 0.82615 0.0
C76 C 0.15435 0.5952 0.80644 0.0
C77 C 0.17677 0.70364 0.97123 0.0
C78 C 0.07129 0.60121 0.91955 0.0
C79 C 0.1512 0.60679 0.05082 0.0
O80 O 0.13885 0.62545 0.05344 0.0
O81 O 0.15606 0.59718 0.99577 0.0
O82 O 0.15116 0.69618 1.00631 0.0
O83 O 0.17658 0.68124 0.93373 0.0
O84 O 0.91447 0.49957 0.90906 0.0
Cd85 Cd 0.86452 0.46717 0.9142 0.0
Cd86 Cd 0.86654 0.51814 0.85156 0.0
O87 O 0.91349 0.54523 0.88867 0.0
O88 O 0.86043 0.43224 0.97637 0.0
O89 O 0.84212 0.46629 0.99927 0.0
C90 C 0.84725 0.4429 1.01789 0.0
C91 C 0.82396 0.52873 0.86138 0.0
C92 C 0.92943 0.53074 0.90287 0.0
C93 C 0.84668 0.45792 0.77323 0.0
O94 O 0.86036 0.48911 0.77162 0.0
O95 O 0.84186 0.44311 0.82786 0.0
O96 O 0.8491 0.54733 0.82549 0.0
O97 O 0.82462 0.50614 0.89665 0.0
O98 O 0.4151 0.91525 0.07977 0.0
Cd99 Cd 0.39749 0.86514 0.08157 0.0
Cd100 Cd 0.3493 0.86806 1.01849 0.0
O101 O 0.36863 0.91438 0.05952 0.0
O102 O 0.42787 0.8602 0.14346 0.0
O103 O 0.37545 0.84145 0.16521 0.0
C104 C 0.40382 0.84643 0.1842 0.0
C105 C 0.29637 0.8246 1.02505 0.0
C106 C 0.39889 0.93022 0.07497 0.0
C107 C 0.39022 0.84954 0.93962 0.0
O108 O 0.37299 0.86349 0.93842 0.0
O109 O 0.3995 0.84371 0.99413 0.0
O110 O 0.30283 0.85039 0.99114 0.0
O111 O 0.31946 0.82504 0.06043 0.0
O112 O 0.50097 0.41591 0.28125 0.0
Cd113 Cd 0.53603 0.40178 0.28807 0.0
Cd114 Cd 0.48613 0.3505 0.21252 0.0
O115 O 0.45833 0.37138 0.23987 0.0
O116 O 0.56832 0.43348 0.35328 0.0
O117 O 0.53854 0.3801 0.37206 0.0
C118 C 0.55986 0.40915 0.39274 0.0
C119 C 0.46558 0.29403 0.20542 0.0
C120 C 0.47099 0.40036 0.26339 0.0
C121 C 0.55173 0.39696 0.14906 0.0
O122 O 0.52162 0.37533 0.14332 0.0
O123 O 0.56382 0.40918 0.20483 0.0
O124 O 0.45715 0.30904 0.16362 0.0
O125 O 0.48371 0.31067 0.25459 0.0
O126 O 0.08515 0.50127 0.42966 0.0
Cd127 Cd 0.13495 0.53436 0.43391 0.0
Cd128 Cd 0.13338 0.4842 0.36775 0.0
O129 O 0.08658 0.45624 0.40463 0.0
O130 O 0.1389 0.56883 0.49723 0.0
O131 O 0.15906 0.53607 0.51728 0.0
C132 C 0.15352 0.55904 0.5371 0.0
C133 C 0.17595 0.4733 0.37249 0.0
C134 C 0.07044 0.47024 0.421 0.0
C135 C 0.15099 0.54497 0.29285 0.0
O136 O 0.13857 0.51392 0.28996 0.0
O137 O 0.15573 0.55938 0.34801 0.0
O138 O 0.15038 0.45528 0.33688 0.0
O139 O 0.17581 0.49544 0.41028 0.0
O140 O 0.58618 0.08635 0.59238 0.0
Cd141 Cd 0.60176 0.13602 0.60049 0.0
Cd142 Cd 0.65273 0.136 0.52972 0.0
O143 O 0.63128 0.08741 0.55802 0.0
O144 O 0.57032 0.13776 0.66455 0.0
O145 O 0.62317 0.15904 0.68576 0.0
C146 C 0.59436 0.15239 0.70529 0.0
C147 C 0.709 0.17197 0.52612 0.0
C148 C 0.60172 0.07143 0.57781 0.0
C149 C 0.60899 0.15709 0.46149 0.0
O150 O 0.62921 0.14671 0.45738 0.0
O151 O 0.59703 0.15818 0.5167 0.0
O152 O 0.69478 0.14814 0.48459 0.0
O153 O 0.69166 0.17368 0.57345 0.0
O154 O 0.49857 0.58711 0.78208 0.0
Cd155 Cd 0.46348 0.60122 0.78834 0.0
Cd156 Cd 0.51365 0.65241 0.71299 0.0
O157 O 0.54135 0.63159 0.74156 0.0
O158 O 0.43109 0.56946 0.8529 0.0
O159 O 0.46077 0.62283 0.87243 0.0
C160 C 0.43946 0.59376 0.89263 0.0
C161 C 0.5343 0.70883 0.70359 0.0
C162 C 0.5286 0.60263 0.76488 0.0
C163 C 0.448 0.6057 0.64897 0.0
O164 O 0.47816 0.62717 0.6436 0.0
O165 O 0.43579 0.59374 0.70464 0.0
O166 O 0.54273 0.69329 0.66304 0.0
O167 O 0.51624 0.69281 0.75305 0.0
C168 C 0.59728 0.16571 0.28081 0.0
C169 C 0.56662 0.16402 0.28045 0.0
H170 H 0.63494 0.16517 0.3387 0.0
C171 C 0.55252 0.16512 0.34058 0.0
H172 H 0.60889 0.16512 0.2354 0.0
C173 C 0.5675 0.16526 0.39989 0.0
C174 C 0.59675 0.16408 0.40021 0.0
H175 H 0.52907 0.16427 0.34198 0.0
H176 H 0.55511 0.16429 0.44527 0.0
C177 C 0.61214 0.16563 0.34011 0.0
C178 C 0.42587 0.59329 0.46941 0.0
C179 C 0.39993 0.56056 0.46868 0.0
H180 H 0.46126 0.63343 0.52752 0.0
C181 C 0.3868 0.5446 0.52863 0.0
H182 H 0.43637 0.60636 0.42413 0.0
C183 C 0.40086 0.56024 0.58803 0.0
C184 C 0.42854 0.59198 0.58844 0.0
H185 H 0.3665 0.51949 0.52968 0.0
H186 H 0.39133 0.54668 0.63322 0.0
C187 C 0.44014 0.60879 0.52871 0.0
C188 C 0.84178 0.4552 0.65091 0.0
C189 C 0.83932 0.43937 0.71093 0.0
H190 H 0.84423 0.45314 0.54636 0.0
C191 C 0.83291 0.40673 0.71029 0.0
H192 H 0.84629 0.48023 0.64976 0.0
C193 C 0.83182 0.39128 0.65104 0.0
C194 C 0.83683 0.40804 0.59126 0.0
H195 H 0.8306 0.39375 0.75561 0.0
H196 H 0.82867 0.36675 0.65232 0.0
C197 C 0.84039 0.43962 0.59157 0.0
C198 C 0.40249 0.84392 0.75788 0.0
C199 C 0.43021 0.84001 0.75767 0.0
H200 H 0.36807 0.85008 0.81595 0.0
C201 C 0.44196 0.83501 0.8175 0.0
H202 H 0.39286 0.84781 0.71259 0.0
C203 C 0.42771 0.83617 0.87668 0.0
C204 C 0.40164 0.8427 0.87721 0.0
H205 H 0.46313 0.83162 0.81885 0.0
H206 H 0.43827 0.83368 0.92205 0.0
C207 C 0.38845 0.84544 0.81716 0.0
C208 C 0.55967 0.39377 0.02888 0.0
C209 C 0.57124 0.41063 0.08879 0.0
H210 H 0.56342 0.39615 0.92435 0.0
C211 C 0.59888 0.44239 0.08876 0.0
H212 H 0.53858 0.36911 1.02739 0.0
C213 C 0.61294 0.45801 0.02957 0.0
C214 C 0.59981 0.44202 0.96943 0.0
H215 H 0.60839 0.45598 0.1341 0.0
H216 H 0.63319 0.48315 0.03093 0.0
C217 C 0.57392 0.40925 0.96978 0.0
C218 C 0.1579 0.5495 0.17132 0.0
C219 C 0.15683 0.56363 0.23144 0.0
H220 H 0.15758 0.55244 0.06671 0.0
C221 C 0.15805 0.59418 0.23155 0.0
H222 H 0.15732 0.5261 0.1698 0.0
C223 C 0.15785 0.60907 0.1725 0.0
C224 C 0.1569 0.59392 0.11236 0.0
H225 H 0.15734 0.6057 0.27711 0.0
H226 H 0.15722 0.63185 0.17401 0.0
C227 C 0.15818 0.56463 0.11228 0.0
C228 C 0.45816 0.25 0.12709 0.0
C229 C 0.45867 0.26021 0.19218 0.0
H230 H 0.45983 0.21437 0.06341 0.0
C231 C 0.45667 0.23951 0.24361 0.0
H232 H 0.45997 0.26568 0.08648 0.0
C233 C 0.45555 0.20969 0.23024 0.0
C234 C 0.45755 0.20068 0.16532 0.0
H235 H 0.4571 0.24687 0.29413 0.0
H236 H 0.45536 0.1948 0.27098 0.0
C237 C 0.45818 0.22073 0.11379 0.0
C238 C 0.23453 0.4419 0.33698 0.0
C239 C 0.26416 0.47168 0.32897 0.0
H240 H 0.18272 0.419 0.3561 0.0
C241 C 0.26464 0.5016 0.33778 0.0
H242 H 0.23377 0.41854 0.33124 0.0
C243 C 0.23608 0.50183 0.35524 0.0
C244 C 0.20631 0.47216 0.36209 0.0
H245 H 0.28734 0.52487 0.33314 0.0
H246 H 0.23711 0.52529 0.36161 0.0
C247 C 0.20557 0.44215 0.35188 0.0
C248 C 0.76226 0.21913 0.56543 0.0
C249 C 0.74263 0.19917 0.51384 0.0
H250 H 0.80557 0.26388 0.59288 0.0
C251 C 0.7535 0.20802 0.44892 0.0
H252 H 0.75437 0.21287 0.61581 0.0
C253 C 0.78223 0.23766 0.43562 0.0
C254 C 0.8011 0.25835 0.48713 0.0
H255 H 0.73865 0.19318 0.40814 0.0
H256 H 0.78904 0.24496 0.38512 0.0
C257 C 0.79157 0.24822 0.55219 0.0
C258 C 0.54272 0.79286 0.72263 0.0
C259 C 0.5413 0.80106 0.65686 0.0
H260 H 0.54111 0.75671 0.78929 0.0
C261 C 0.54171 0.78068 0.60693 0.0
H262 H 0.54214 0.80802 0.76216 0.0
C263 C 0.54211 0.75184 0.62256 0.0
C264 C 0.541 0.74238 0.68835 0.0
H265 H 0.54056 0.78642 0.55593 0.0
H266 H 0.54107 0.73587 0.58304 0.0
C267 C 0.54202 0.76348 0.73827 0.0
C268 C 0.76479 0.56015 0.83338 0.0
C269 C 0.73506 0.53037 0.82587 0.0
H270 H 0.81688 0.58303 0.84957 0.0
C271 C 0.73473 0.50044 0.83275 0.0
H272 H 0.76545 0.58351 0.82908 0.0
C273 C 0.76356 0.50019 0.84771 0.0
C274 C 0.79342 0.52985 0.85394 0.0
H275 H 0.71197 0.47717 0.82843 0.0
H276 H 0.76265 0.47672 0.85252 0.0
C277 C 0.79398 0.55988 0.84579 0.0
C278 C 0.23698 0.73544 0.98856 0.0
C279 C 0.20718 0.73523 0.98175 0.0
H280 H 0.2883 0.76384 1.01075 0.0
C281 C 0.20646 0.76451 0.99202 0.0
H282 H 0.238 0.71301 0.98212 0.0
C283 C 0.23546 0.79382 1.00701 0.0
C284 C 0.26512 0.79378 1.01502 0.0
H285 H 0.1836 0.76474 0.98781 0.0
H286 H 0.23469 0.81641 1.01287 0.0
C287 C 0.26558 0.76433 1.00609 0.0
C288 C 0.60885 0.15966 0.82486 0.0
C289 C 0.58817 0.15842 0.7738 0.0
H290 H 0.61551 0.15882 0.92872 0.0
C291 C 0.55954 0.1594 0.78961 0.0
H292 H 0.63099 0.1588 0.8143 0.0
C293 C 0.55101 0.16009 0.85513 0.0
C294 C 0.57053 0.15902 0.90622 0.0
H295 H 0.54316 0.15857 0.7513 0.0
H296 H 0.52816 0.15954 0.86569 0.0
C297 C 0.59992 0.15956 0.8904 0.0
C298 C 0.44586 0.60903 1.01179 0.0
C299 C 0.42705 0.58763 0.96088 0.0
H300 H 0.45304 0.61631 0.11566 0.0
C301 C 0.39803 0.55837 0.97671 0.0
H302 H 0.46839 0.63169 1.00116 0.0
C303 C 0.38888 0.54987 0.0422 0.0
C304 C 0.40896 0.5701 0.09325 0.0
H305 H 0.38296 0.54144 0.93849 0.0
H306 H 0.36713 0.5265 0.05279 0.0
C307 C 0.43711 0.60017 0.07736 0.0
C308 C 0.84175 0.45123 0.13756 0.0
C309 C 0.8417 0.43101 0.08659 0.0
H310 H 0.84434 0.45976 0.24123 0.0
C311 C 0.84028 0.40113 0.10264 0.0
H312 H 0.84299 0.47445 0.12685 0.0
C313 C 0.84044 0.39241 0.16827 0.0
C314 C 0.84281 0.41376 0.21909 0.0
H315 H 0.84016 0.385 0.06443 0.0
H316 H 0.8406 0.36987 0.17901 0.0
C317 C 0.84267 0.44287 0.20309 0.0
C318 C 0.3989 0.84115 0.36912 0.0
C319 C 0.42811 0.84138 0.38528 0.0
H320 H 0.36777 0.84155 0.29269 0.0
C321 C 0.447 0.83894 0.33463 0.0
H322 H 0.38377 0.84287 0.40715 0.0
C323 C 0.43815 0.8388 0.26896 0.0
C324 C 0.40983 0.84032 0.25274 0.0
H325 H 0.46968 0.83917 0.34553 0.0
H326 H 0.45416 0.83878 0.23085 0.0
C327 C 0.38965 0.84024 0.30354 0.0
C328 C 0.56202 0.40262 0.57743 0.0
C329 C 0.59018 0.43265 0.59387 0.0
H330 H 0.53077 0.37117 0.50065 0.0
C331 C 0.61033 0.45289 0.54319 0.0
H332 H 0.54605 0.38646 0.61543 0.0
C333 C 0.60123 0.44444 0.47754 0.0
C334 C 0.5722 0.41521 0.46117 0.0
H335 H 0.6321 0.47623 0.55421 0.0
H336 H 0.61635 0.46138 0.43962 0.0
C337 C 0.55332 0.3938 0.5117 0.0
C338 C 0.1615 0.60122 0.6218 0.0
C339 C 0.16035 0.57149 0.60545 0.0
H340 H 0.16145 0.63254 0.69847 0.0
C341 C 0.1617 0.55191 0.65604 0.0
H342 H 0.16061 0.61689 0.58383 0.0
C343 C 0.16158 0.56058 0.72172 0.0
C344 C 0.16084 0.58937 0.73808 0.0
H345 H 0.16075 0.52883 0.64504 0.0
H346 H 0.16072 0.54405 0.7597 0.0
C347 C 0.16211 0.61025 0.68747 0.0
C348 C 0.41636 0.01835 0.09322 0.0
C349 C 0.45091 0.03594 0.09272 0.0
H350 H 0.37257 0.97093 0.08755 0.0
C351 C 0.46784 0.0184 0.08787 0.0
H352 H 0.40264 0.0312 0.09703 0.0
C353 C 0.45079 0.98417 0.08353 0.0
C354 C 0.41628 0.96647 0.08302 0.0
H355 H 0.49445 0.0311 0.0879 0.0
H356 H 0.46481 0.97164 0.07956 0.0
C357 C 0.39917 0.98389 0.08786 0.0
C358 C 0.41725 0.40014 0.26152 0.0
C359 C 0.45172 0.41744 0.26633 0.0
H360 H 0.37314 0.40319 0.26073 0.0
C361 C 0.46825 0.45192 0.27219 0.0
H362 H 0.40385 0.37356 0.25676 0.0
C363 C 0.45088 0.46878 0.2732 0.0
C364 C 0.41643 0.45163 0.26938 0.0
H365 H 0.49481 0.46608 0.27535 0.0
H366 H 0.46458 0.49536 0.27807 0.0
C367 C 0.39971 0.41708 0.26366 0.0
C368 C 0.01654 0.46827 0.42067 0.0
C369 C 0.03414 0.45134 0.42362 0.0
H370 H 0.96974 0.4651 0.41611 0.0
C371 C 0.01666 0.4167 0.4254 0.0
H372 H 0.02916 0.49492 0.41872 0.0
C373 C 0.9822 0.39943 0.42449 0.0
C374 C 0.96477 0.41653 0.42038 0.0
H375 H 0.02957 0.40299 0.4275 0.0
H376 H 0.96926 0.37276 0.42625 0.0
C377 C 0.98237 0.45111 0.41853 0.0
C378 C 0.53229 0.98329 0.57692 0.0
C379 C 0.54896 0.96543 0.57892 0.0
H380 H 0.5358 0.03044 0.57619 0.0
C381 C 0.5835 0.98274 0.58123 0.0
H382 H 0.5057 0.97078 0.57571 0.0
C383 C 0.60094 0.01729 0.58077 0.0
C384 C 0.58406 0.03501 0.57952 0.0
H385 H 0.597 0.9696 0.58297 0.0
H386 H 0.62753 0.0301 0.582 0.0
C387 C 0.54958 0.01758 0.57778 0.0
C388 C 0.59971 0.58563 0.7659 0.0
C389 C 0.58291 0.55111 0.77156 0.0
H390 H 0.59572 0.62923 0.75883 0.0
C391 C 0.54846 0.53406 0.77529 0.0
H392 H 0.62627 0.59944 0.76303 0.0
C393 C 0.53118 0.55101 0.77414 0.0
C394 C 0.54779 0.58547 0.76823 0.0
H395 H 0.53471 0.50749 0.78013 0.0
H396 H 0.50463 0.53691 0.77717 0.0
C397 C 0.58226 0.60267 0.76362 0.0
C398 C 0.01769 0.6012 0.91438 0.0
C399 C 0.03507 0.58397 0.91349 0.0
H400 H 0.97046 0.59792 0.91147 0.0
C401 C 0.01737 0.54942 0.90962 0.0
H402 H 0.03064 0.62784 0.91753 0.0
C403 C 0.98319 0.53241 0.90727 0.0
C404 C 0.9657 0.54946 0.90789 0.0
H405 H 0.02987 0.53528 0.90928 0.0
H406 H 0.97052 0.50577 0.90431 0.0
C407 C 0.98327 0.58409 0.9111 0.0
loop_
_geom_bond_atom_site_label_1
_geom_bond_atom_site_label_2
_geom_bond_distance
_geom_bond_site_symmetry_2
_ccdc_geom_bond_type
O0 Cd1 2.223 . S
O0 C8 1.315 . S
Cd1 O0 2.223 . S
Cd1 O4 2.297 1_554 S
Cd1 O5 2.439 1_554 S
Cd1 O11 2.240 . S
Cd2 O3 2.240 . S
Cd2 O10 2.223 . S
Cd2 O12 2.297 . S
Cd2 O13 2.439 . S
O3 Cd2 2.240 . S
O3 C8 1.279 . S
O4 Cd1 2.297 1_556 S
O4 C6 1.247 . S
O5 Cd1 2.439 1_556 S
O5 C6 1.208 . S
C6 O4 1.247 . S
C6 O5 1.208 . S
C7 O12 1.247 . S
C7 O13 1.208 . S
C8 O0 1.315 . S
C8 O3 1.279 . S
C9 O10 1.315 . S
C9 O11 1.279 . S
O10 Cd2 2.223 . S
O10 C9 1.315 . S
O11 Cd1 2.240 . S
O11 C9 1.279 . S
O12 Cd2 2.297 . S
O12 C7 1.247 . S
O13 Cd2 2.439 . S
O13 C7 1.208 . S
O14 Cd15 2.223 . S
O14 C22 1.315 . S
Cd15 O14 2.223 . S
Cd15 O18 2.297 . S
Cd15 O19 2.439 . S
Cd15 O25 2.240 . S
Cd16 O17 2.240 . S
Cd16 O24 2.223 . S
Cd16 O26 2.297 . S
Cd16 O27 2.439 . S
O17 Cd16 2.240 . S
O17 C22 1.279 . S
O18 Cd15 2.297 . S
O18 C20 1.247 . S
O19 Cd15 2.439 . S
O19 C20 1.208 . S
C20 O18 1.247 . S
C20 O19 1.208 . S
C21 O26 1.247 . S
C21 O27 1.208 . S
C22 O14 1.315 . S
C22 O17 1.279 . S
C23 O24 1.315 . S
C23 O25 1.279 . S
O24 Cd16 2.223 . S
O24 C23 1.315 . S
O25 Cd15 2.240 . S
O25 C23 1.279 . S
O26 Cd16 2.297 . S
O26 C21 1.247 . S
O27 Cd16 2.439 . S
O27 C21 1.208 . S
O28 Cd29 2.223 . S
O28 C36 1.315 . S
Cd29 O28 2.223 . S
Cd29 O32 2.297 . S
Cd29 O33 2.439 . S
Cd29 O39 2.240 . S
Cd30 O31 2.240 . S
Cd30 O38 2.223 . S
Cd30 O40 2.297 . S
Cd30 O41 2.439 . S
O31 Cd30 2.240 . S
O31 C36 1.279 . S
O32 Cd29 2.297 . S
O32 C34 1.247 . S
O33 Cd29 2.439 . S
O33 C34 1.208 . S
C34 O32 1.247 . S
C34 O33 1.208 . S
C35 O40 1.247 . S
C35 O41 1.208 . S
C36 O28 1.315 . S
C36 O31 1.279 . S
C37 O38 1.315 . S
C37 O39 1.279 . S
O38 Cd30 2.223 . S
O38 C37 1.315 . S
O39 Cd29 2.240 . S
O39 C37 1.279 . S
O40 Cd30 2.297 . S
O40 C35 1.247 . S
O41 Cd30 2.439 . S
O41 C35 1.208 . S
O42 Cd43 2.223 . S
O42 C50 1.315 . S
Cd43 O42 2.223 . S
Cd43 O46 2.297 . S
Cd43 O47 2.439 . S
Cd43 O53 2.240 . S
Cd44 O45 2.240 . S
Cd44 O52 2.223 . S
Cd44 O54 2.297 . S
Cd44 O55 2.439 . S
O45 Cd44 2.240 . S
O45 C50 1.279 . S
O46 Cd43 2.297 . S
O46 C48 1.247 . S
O47 Cd43 2.439 . S
O47 C48 1.208 . S
C48 O46 1.247 . S
C48 O47 1.208 . S
C49 O54 1.247 . S
C49 O55 1.208 . S
C50 O42 1.315 . S
C50 O45 1.279 . S
C51 O52 1.315 . S
C51 O53 1.279 . S
O52 Cd44 2.223 . S
O52 C51 1.315 . S
O53 Cd43 2.240 . S
O53 C51 1.279 . S
O54 Cd44 2.297 . S
O54 C49 1.247 . S
O55 Cd44 2.439 . S
O55 C49 1.208 . S
O56 Cd57 2.223 . S
O56 C64 1.315 . S
Cd57 O56 2.223 . S
Cd57 O60 2.297 . S
Cd57 O61 2.439 . S
Cd57 O67 2.240 . S
Cd58 O59 2.240 . S
Cd58 O66 2.223 . S
Cd58 O68 2.297 . S
Cd58 O69 2.439 . S
O59 Cd58 2.240 . S
O59 C64 1.279 . S
O60 Cd57 2.297 . S
O60 C62 1.247 . S
O61 Cd57 2.439 . S
O61 C62 1.208 . S
C62 O60 1.247 . S
C62 O61 1.208 . S
C63 O68 1.247 . S
C63 O69 1.208 . S
C64 O56 1.315 . S
C64 O59 1.279 . S
C65 O66 1.315 . S
C65 O67 1.279 . S
O66 Cd58 2.223 . S
O66 C65 1.315 . S
O67 Cd57 2.240 . S
O67 C65 1.279 . S
O68 Cd58 2.297 . S
O68 C63 1.247 . S
O69 Cd58 2.439 . S
O69 C63 1.208 . S
O70 Cd71 2.223 . S
O70 C78 1.315 . S
Cd71 O70 2.223 . S
Cd71 O74 2.297 . S
Cd71 O75 2.439 . S
Cd71 O81 2.240 . S
Cd72 O73 2.240 . S
Cd72 O80 2.223 1_556 S
Cd72 O82 2.297 . S
Cd72 O83 2.439 . S
O73 Cd72 2.240 . S
O73 C78 1.279 . S
O74 Cd71 2.297 . S
O74 C76 1.247 . S
O75 Cd71 2.439 . S
O75 C76 1.208 . S
C76 O74 1.247 . S
C76 O75 1.208 . S
C77 O82 1.247 . S
C77 O83 1.208 . S
C78 O70 1.315 . S
C78 O73 1.279 . S
C79 O80 1.315 . S
C79 O81 1.279 1_554 S
O80 Cd72 2.223 1_554 S
O80 C79 1.315 . S
O81 Cd71 2.240 . S
O81 C79 1.279 1_556 S
O82 Cd72 2.297 . S
O82 C77 1.247 . S
O83 Cd72 2.439 . S
O83 C77 1.208 . S
O84 Cd85 2.223 . S
O84 C92 1.315 . S
Cd85 O84 2.223 . S
Cd85 O88 2.297 1_556 S
Cd85 O89 2.439 . S
Cd85 O95 2.240 . S
Cd86 O87 2.240 . S
Cd86 O94 2.223 . S
Cd86 O96 2.297 . S
Cd86 O97 2.439 . S
O87 Cd86 2.240 . S
O87 C92 1.279 . S
O88 Cd85 2.297 1_554 S
O88 C90 1.247 . S
O89 Cd85 2.439 . S
O89 C90 1.208 1_556 S
C90 O88 1.247 . S
C90 O89 1.208 1_554 S
C91 O96 1.247 . S
C91 O97 1.208 . S
C92 O84 1.315 . S
C92 O87 1.279 . S
C93 O94 1.315 . S
C93 O95 1.279 . S
O94 Cd86 2.223 . S
O94 C93 1.315 . S
O95 Cd85 2.240 . S
O95 C93 1.279 . S
O96 Cd86 2.297 . S
O96 C91 1.247 . S
O97 Cd86 2.439 . S
O97 C91 1.208 . S
O98 Cd99 2.223 . S
O98 C106 1.315 . S
Cd99 O98 2.223 . S
Cd99 O102 2.297 . S
Cd99 O103 2.439 . S
Cd99 O109 2.240 1_554 S
Cd100 O101 2.245 . S
Cd100 O108 2.216 1_554 S
Cd100 O110 2.294 1_554 S
Cd100 O111 2.442 . S
O101 Cd100 2.245 . S
O101 C106 1.279 . S
O102 Cd99 2.297 . S
O102 C104 1.247 . S
O103 Cd99 2.439 . S
O103 C104 1.208 . S
C104 O102 1.247 . S
C104 O103 1.208 . S
C105 O110 1.247 1_554 S
C105 O111 1.208 . S
C106 O98 1.315 . S
C106 O101 1.279 . S
C107 O108 1.315 . S
C107 O109 1.279 . S
O108 Cd100 2.216 1_556 S
O108 C107 1.315 . S
O109 Cd99 2.240 1_556 S
O109 C107 1.279 . S
O110 Cd100 2.294 1_556 S
O110 C105 1.247 1_556 S
O111 Cd100 2.442 . S
O111 C105 1.208 . S
O112 Cd113 2.223 . S
O112 C120 1.315 . S
Cd113 O112 2.223 . S
Cd113 O116 2.297 . S
Cd113 O117 2.439 . S
Cd113 O123 2.240 . S
Cd114 O115 2.240 . S
Cd114 O122 2.223 . S
Cd114 O124 2.297 . S
Cd114 O125 2.439 . S
O115 Cd114 2.240 . S
O115 C120 1.279 . S
O116 Cd113 2.297 . S
O116 C118 1.247 . S
O117 Cd113 2.439 . S
O117 C118 1.208 . S
C118 O116 1.247 . S
C118 O117 1.208 . S
C119 O124 1.247 . S
C119 O125 1.208 . S
C120 O112 1.315 . S
C120 O115 1.279 . S
C121 O122 1.315 . S
C121 O123 1.279 . S
O122 Cd114 2.223 . S
O122 C121 1.315 . S
O123 Cd113 2.240 . S
O123 C121 1.279 . S
O124 Cd114 2.297 . S
O124 C119 1.247 . S
O125 Cd114 2.439 . S
O125 C119 1.208 . S
O126 Cd127 2.223 . S
O126 C134 1.315 . S
Cd127 O126 2.223 . S
Cd127 O130 2.297 . S
Cd127 O131 2.439 . S
Cd127 O137 2.240 . S
Cd128 O129 2.240 . S
Cd128 O136 2.223 . S
Cd128 O138 2.297 . S
Cd128 O139 2.439 . S
O129 Cd128 2.240 . S
O129 C134 1.279 . S
O130 Cd127 2.297 . S
O130 C132 1.247 . S
O131 Cd127 2.439 . S
O131 C132 1.208 . S
C132 O130 1.247 . S
C132 O131 1.208 . S
C133 O138 1.247 . S
C133 O139 1.208 . S
C134 O126 1.315 . S
C134 O129 1.279 . S
C135 O136 1.315 . S
C135 O137 1.279 . S
O136 Cd128 2.223 . S
O136 C135 1.315 . S
O137 Cd127 2.240 . S
O137 C135 1.279 . S
O138 Cd128 2.297 . S
O138 C133 1.247 . S
O139 Cd128 2.439 . S
O139 C133 1.208 . S
O140 Cd141 2.223 . S
O140 C148 1.315 . S
Cd141 O140 2.223 . S
Cd141 O144 2.297 . S
Cd141 O145 2.439 . S
Cd141 O151 2.240 . S
Cd142 O143 2.240 . S
Cd142 O150 2.223 . S
Cd142 O152 2.297 . S
Cd142 O153 2.439 . S
O143 Cd142 2.240 . S
O143 C148 1.279 . S
O144 Cd141 2.297 . S
O144 C146 1.247 . S
O145 Cd141 2.439 . S
O145 C146 1.208 . S
C146 O144 1.247 . S
C146 O145 1.208 . S
C147 O152 1.247 . S
C147 O153 1.208 . S
C148 O140 1.315 . S
C148 O143 1.279 . S
C149 O150 1.315 . S
C149 O151 1.279 . S
O150 Cd142 2.223 . S
O150 C149 1.315 . S
O151 Cd141 2.240 . S
O151 C149 1.279 . S
O152 Cd142 2.297 . S
O152 C147 1.247 . S
O153 Cd142 2.439 . S
O153 C147 1.208 . S
O154 Cd155 2.223 . S
O154 C162 1.315 . S
Cd155 O154 2.223 . S
Cd155 O158 2.297 . S
Cd155 O159 2.439 . S
Cd155 O165 2.240 . S
Cd156 O157 2.240 . S
Cd156 O164 2.223 . S
Cd156 O166 2.297 . S
Cd156 O167 2.439 . S
O157 Cd156 2.240 . S
O157 C162 1.279 . S
O158 Cd155 2.297 . S
O158 C160 1.247 . S
O159 Cd155 2.439 . S
O159 C160 1.208 . S
C160 O158 1.247 . S
C160 O159 1.208 . S
C161 O166 1.247 . S
C161 O167 1.208 . S
C162 O154 1.315 . S
C162 O157 1.279 . S
C163 O164 1.315 . S
C163 O165 1.279 . S
O164 Cd156 2.223 . S
O164 C163 1.315 . S
O165 Cd155 2.240 . S
O165 C163 1.279 . S
O166 Cd156 2.297 . S
O166 C161 1.247 . S
O167 Cd156 2.439 . S
O167 C161 1.208 . S
C168 C169 1.387 . S
C168 H172 0.950 . S
C168 C177 1.390 . S
C169 C168 1.387 . S
C169 C171 1.387 . S
H170 C177 0.950 . S
C171 C169 1.387 . S
C171 C173 1.390 . S
C171 H175 0.950 . S
H172 C168 0.950 . S
C173 C171 1.390 . S
C173 C174 1.387 . S
C173 H176 0.950 . S
C174 C173 1.387 . S
C174 C177 1.387 . S
H175 C171 0.950 . S
H176 C173 0.950 . S
C177 C168 1.390 . S
C177 H170 0.950 . S
C177 C174 1.387 . S
C178 C179 1.387 . S
C178 H182 0.950 . S
C178 C187 1.390 . S
C179 C178 1.387 . S
C179 C181 1.387 . S
H180 C187 0.950 . S
C181 C179 1.387 . S
C181 C183 1.390 . S
C181 H185 0.950 . S
H182 C178 0.950 . S
C183 C181 1.390 . S
C183 C184 1.387 . S
C183 H186 0.950 . S
C184 C183 1.387 . S
C184 C187 1.387 . S
H185 C181 0.950 . S
H186 C183 0.950 . S
C187 C178 1.390 . S
C187 H180 0.950 . S
C187 C184 1.387 . S
C188 C189 1.387 . S
C188 H192 0.950 . S
C188 C197 1.390 . S
C189 C188 1.387 . S
C189 C191 1.387 . S
H190 C197 0.950 . S
C191 C189 1.387 . S
C191 C193 1.390 . S
C191 H195 0.950 . S
H192 C188 0.950 . S
C193 C191 1.390 . S
C193 C194 1.387 . S
C193 H196 0.950 . S
C194 C193 1.387 . S
C194 C197 1.387 . S
H195 C191 0.950 . S
H196 C193 0.950 . S
C197 C188 1.390 . S
C197 H190 0.950 . S
C197 C194 1.387 . S
C198 C199 1.387 . S
C198 H202 0.950 . S
C198 C207 1.390 . S
C199 C198 1.387 . S
C199 C201 1.387 . S
H200 C207 0.950 . S
C201 C199 1.387 . S
C201 C203 1.390 . S
C201 H205 0.950 . S
H202 C198 0.950 . S
C203 C201 1.390 . S
C203 C204 1.387 . S
C203 H206 0.950 . S
C204 C203 1.387 . S
C204 C207 1.387 . S
H205 C201 0.950 . S
H206 C203 0.950 . S
C207 C198 1.390 . S
C207 H200 0.950 . S
C207 C204 1.387 . S
C208 C209 1.387 1_556 S
C208 H212 0.950 1_556 S
C208 C217 1.390 . S
C209 C208 1.387 1_554 S
C209 C211 1.387 . S
H210 C217 0.950 . S
C211 C209 1.387 . S
C211 C213 1.390 1_554 S
C211 H215 0.950 . S
H212 C208 0.950 1_554 S
C213 C211 1.390 1_556 S
C213 C214 1.387 . S
C213 H216 0.950 . S
C214 C213 1.387 . S
C214 C217 1.387 . S
H215 C211 0.950 . S
H216 C213 0.950 . S
C217 C208 1.390 . S
C217 H210 0.950 . S
C217 C214 1.387 . S
C218 C219 1.387 . S
C218 H222 0.950 . S
C218 C227 1.390 . S
C219 C218 1.387 . S
C219 C221 1.387 . S
H220 C227 0.950 . S
C221 C219 1.387 . S
C221 C223 1.390 . S
C221 H225 0.950 . S
H222 C218 0.950 . S
C223 C221 1.390 . S
C223 C224 1.387 . S
C223 H226 0.950 . S
C224 C223 1.387 . S
C224 C227 1.387 . S
H225 C221 0.950 . S
H226 C223 0.950 . S
C227 C218 1.390 . S
C227 H220 0.950 . S
C227 C224 1.387 . S
C228 C229 1.387 . S
C228 H232 0.950 . S
C228 C237 1.390 . S
C229 C228 1.387 . S
C229 C231 1.387 . S
H230 C237 0.950 . S
C231 C229 1.387 . S
C231 C233 1.390 . S
C231 H235 0.950 . S
H232 C228 0.950 . S
C233 C231 1.390 . S
C233 C234 1.387 . S
C233 H236 0.950 . S
C234 C233 1.387 . S
C234 C237 1.387 . S
H235 C231 0.950 . S
H236 C233 0.950 . S
C237 C228 1.390 . S
C237 H230 0.950 . S
C237 C234 1.387 . S
C238 C239 1.387 . S
C238 H242 0.950 . S
C238 C247 1.390 . S
C239 C238 1.387 . S
C239 C241 1.387 . S
H240 C247 0.950 . S
C241 C239 1.387 . S
C241 C243 1.390 . S
C241 H245 0.950 . S
H242 C238 0.950 . S
C243 C241 1.390 . S
C243 C244 1.387 . S
C243 H246 0.950 . S
C244 C243 1.387 . S
C244 C247 1.387 . S
H245 C241 0.950 . S
H246 C243 0.950 . S
C247 C238 1.390 . S
C247 H240 0.950 . S
C247 C244 1.387 . S
C248 C249 1.387 . S
C248 H252 0.950 . S
C248 C257 1.390 . S
C249 C248 1.387 . S
C249 C251 1.387 . S
H250 C257 0.950 . S
C251 C249 1.387 . S
C251 C253 1.390 . S
C251 H255 0.950 . S
H252 C248 0.950 . S
C253 C251 1.390 . S
C253 C254 1.387 . S
C253 H256 0.950 . S
C254 C253 1.387 . S
C254 C257 1.387 . S
H255 C251 0.950 . S
H256 C253 0.950 . S
C257 C248 1.390 . S
C257 H250 0.950 . S
C257 C254 1.387 . S
C258 C259 1.387 . S
C258 H262 0.950 . S
C258 C267 1.390 . S
C259 C258 1.387 . S
C259 C261 1.387 . S
H260 C267 0.950 . S
C261 C259 1.387 . S
C261 C263 1.390 . S
C261 H265 0.950 . S
H262 C258 0.950 . S
C263 C261 1.390 . S
C263 C264 1.387 . S
C263 H266 0.950 . S
C264 C263 1.387 . S
C264 C267 1.387 . S
H265 C261 0.950 . S
H266 C263 0.950 . S
C267 C258 1.390 . S
C267 H260 0.950 . S
C267 C264 1.387 . S
C268 C269 1.387 . S
C268 H272 0.950 . S
C268 C277 1.390 . S
C269 C268 1.387 . S
C269 C271 1.387 . S
H270 C277 0.950 . S
C271 C269 1.387 . S
C271 C273 1.390 . S
C271 H275 0.950 . S
H272 C268 0.950 . S
C273 C271 1.390 . S
C273 C274 1.387 . S
C273 H276 0.950 . S
C274 C273 1.387 . S
C274 C277 1.387 . S
H275 C271 0.950 . S
H276 C273 0.950 . S
C277 C268 1.390 . S
C277 H270 0.950 . S
C277 C274 1.387 . S
C278 C279 1.387 . S
C278 H282 0.950 . S
C278 C287 1.390 . S
C279 C278 1.387 . S
C279 C281 1.387 1_556 S
H280 C287 0.950 . S
C281 C279 1.387 1_554 S
C281 C283 1.390 . S
C281 H285 0.950 . S
H282 C278 0.950 . S
C283 C281 1.390 . S
C283 C284 1.387 1_554 S
C283 H286 0.950 . S
C284 C283 1.387 1_556 S
C284 C287 1.387 . S
H285 C281 0.950 . S
H286 C283 0.950 . S
C287 C278 1.390 . S
C287 H280 0.950 . S
C287 C284 1.387 . S
C288 C289 1.387 . S
C288 H292 0.950 . S
C288 C297 1.390 . S
C289 C288 1.387 . S
C289 C291 1.387 . S
H290 C297 0.950 . S
C291 C289 1.387 . S
C291 C293 1.390 . S
C291 H295 0.950 . S
H292 C288 0.950 . S
C293 C291 1.390 . S
C293 C294 1.387 . S
C293 H296 0.950 . S
C294 C293 1.387 . S
C294 C297 1.387 . S
H295 C291 0.950 . S
H296 C293 0.950 . S
C297 C288 1.390 . S
C297 H290 0.950 . S
C297 C294 1.387 . S
C298 C299 1.387 . S
C298 H302 0.950 . S
C298 C307 1.390 1_556 S
C299 C298 1.387 . S
C299 C301 1.387 . S
H300 C307 0.950 . S
C301 C299 1.387 . S
C301 C303 1.390 1_556 S
C301 H305 0.950 . S
H302 C298 0.950 . S
C303 C301 1.390 1_554 S
C303 C304 1.387 . S
C303 H306 0.950 . S
C304 C303 1.387 . S
C304 C307 1.387 . S
H305 C301 0.950 . S
H306 C303 0.950 . S
C307 C298 1.390 1_554 S
C307 H300 0.950 . S
C307 C304 1.387 . S
C308 C309 1.387 . S
C308 H312 0.950 . S
C308 C317 1.390 . S
C309 C308 1.387 . S
C309 C311 1.387 . S
H310 C317 0.950 . S
C311 C309 1.387 . S
C311 C313 1.390 . S
C311 H315 0.950 . S
H312 C308 0.950 . S
C313 C311 1.390 . S
C313 C314 1.387 . S
C313 H316 0.950 . S
C314 C313 1.387 . S
C314 C317 1.387 . S
H315 C311 0.950 . S
H316 C313 0.950 . S
C317 C308 1.390 . S
C317 H310 0.950 . S
C317 C314 1.387 . S
C318 C319 1.387 . S
C318 H322 0.950 . S
C318 C327 1.390 . S
C319 C318 1.387 . S
C319 C321 1.387 . S
H320 C327 0.950 . S
C321 C319 1.387 . S
C321 C323 1.390 . S
C321 H325 0.950 . S
H322 C318 0.950 . S
C323 C321 1.390 . S
C323 C324 1.387 . S
C323 H326 0.950 . S
C324 C323 1.387 . S
C324 C327 1.387 . S
H325 C321 0.950 . S
H326 C323 0.950 . S
C327 C318 1.390 . S
C327 H320 0.950 . S
C327 C324 1.387 . S
C328 C329 1.387 . S
C328 H332 0.950 . S
C328 C337 1.390 . S
C329 C328 1.387 . S
C329 C331 1.387 . S
H330 C337 0.950 . S
C331 C329 1.387 . S
C331 C333 1.390 . S
C331 H335 0.950 . S
H332 C328 0.950 . S
C333 C331 1.390 . S
C333 C334 1.387 . S
C333 H336 0.950 . S
C334 C333 1.387 . S
C334 C337 1.387 . S
H335 C331 0.950 . S
H336 C333 0.950 . S
C337 C328 1.390 . S
C337 H330 0.950 . S
C337 C334 1.387 . S
C338 C339 1.387 . S
C338 H342 0.950 . S
C338 C347 1.390 . S
C339 C338 1.387 . S
C339 C341 1.387 . S
H340 C347 0.950 . S
C341 C339 1.387 . S
C341 C343 1.390 . S
C341 H345 0.950 . S
H342 C338 0.950 . S
C343 C341 1.390 . S
C343 C344 1.387 . S
C343 H346 0.950 . S
C344 C343 1.387 . S
C344 C347 1.387 . S
H345 C341 0.950 . S
H346 C343 0.950 . S
C347 C338 1.390 . S
C347 H340 0.950 . S
C347 C344 1.387 . S
C348 C349 1.387 . S
C348 H352 0.950 . S
C348 C357 1.390 1_545 S
C349 C348 1.387 . S
C349 C351 1.387 . S
H350 C357 0.950 . S
C351 C349 1.387 . S
C351 C353 1.390 1_545 S
C351 H355 0.950 . S
H352 C348 0.950 . S
C353 C351 1.390 1_565 S
C353 C354 1.387 . S
C353 H356 0.950 . S
C354 C353 1.387 . S
C354 C357 1.387 . S
H355 C351 0.950 . S
H356 C353 0.950 . S
C357 C348 1.390 1_565 S
C357 H350 0.950 . S
C357 C354 1.387 . S
C358 C359 1.387 . S
C358 H362 0.950 . S
C358 C367 1.390 . S
C359 C358 1.387 . S
C359 C361 1.387 . S
H360 C367 0.950 . S
C361 C359 1.387 . S
C361 C363 1.390 . S
C361 H365 0.950 . S
H362 C358 0.950 . S
C363 C361 1.390 . S
C363 C364 1.387 . S
C363 H366 0.950 . S
C364 C363 1.387 . S
C364 C367 1.387 . S
H365 C361 0.950 . S
H366 C363 0.950 . S
C367 C358 1.390 . S
C367 H360 0.950 . S
C367 C364 1.387 . S
C368 C369 1.387 . S
C368 H372 0.950 . S
C368 C377 1.390 1_455 S
C369 C368 1.387 . S
C369 C371 1.387 . S
H370 C377 0.950 . S
C371 C369 1.387 . S
C371 C373 1.390 1_455 S
C371 H375 0.950 . S
H372 C368 0.950 . S
C373 C371 1.390 1_655 S
C373 C374 1.387 . S
C373 H376 0.950 . S
C374 C373 1.387 . S
C374 C377 1.387 . S
H375 C371 0.950 . S
H376 C373 0.950 . S
C377 C368 1.390 1_655 S
C377 H370 0.950 . S
C377 C374 1.387 . S
C378 C379 1.387 . S
C378 H382 0.950 . S
C378 C387 1.390 1_565 S
C379 C378 1.387 . S
C379 C381 1.387 . S
H380 C387 0.950 . S
C381 C379 1.387 . S
C381 C383 1.390 1_565 S
C381 H385 0.950 . S
H382 C378 0.950 . S
C383 C381 1.390 1_545 S
C383 C384 1.387 . S
C383 H386 0.950 . S
C384 C383 1.387 . S
C384 C387 1.387 . S
H385 C381 0.950 . S
H386 C383 0.950 . S
C387 C378 1.390 1_545 S
C387 H380 0.950 . S
C387 C384 1.387 . S
C388 C389 1.387 . S
C388 H392 0.950 . S
C388 C397 1.390 . S
C389 C388 1.387 . S
C389 C391 1.387 . S
H390 C397 0.950 . S
C391 C389 1.387 . S
C391 C393 1.390 . S
C391 H395 0.950 . S
H392 C388 0.950 . S
C393 C391 1.390 . S
C393 C394 1.387 . S
C393 H396 0.950 . S
C394 C393 1.387 . S
C394 C397 1.387 . S
H395 C391 0.950 . S
H396 C393 0.950 . S
C397 C388 1.390 . S
C397 H390 0.950 . S
C397 C394 1.387 . S
C398 C399 1.387 . S
C398 H402 0.950 . S
C398 C407 1.390 1_455 S
C399 C398 1.387 . S
C399 C401 1.387 . S
H400 C407 0.950 . S
C401 C399 1.387 . S
C401 C403 1.390 1_455 S
C401 H405 0.950 . S
H402 C398 0.950 . S
C403 C401 1.390 1_655 S
C403 C404 1.387 . S
C403 H406 0.950 . S
C404 C403 1.387 . S
C404 C407 1.387 . S
H405 C401 0.950 . S
H406 C403 0.950 . S
C407 C398 1.390 1_655 S
C407 H400 0.950 . S
C407 C404 1.387 . S
C169 C9 1.674 . S
C174 C149 1.674 . S
C179 C23 1.674 . S
C184 C163 1.674 . S
C189 C93 1.673 . S
C194 C37 1.673 . S
C199 C51 1.672 . S
C204 C107 1.672 . S
C209 C121 1.674 . S
C214 C65 1.674 . S
C219 C135 1.673 . S
C224 C79 1.673 . S
C229 C119 1.427 . S
C234 C7 1.429 . S
C239 C21 1.429 . S
C244 C133 1.429 . S
C249 C147 1.429 . S
C254 C35 1.428 . S
C259 C49 1.428 . S
C264 C161 1.429 . S
C269 C63 1.429 . S
C274 C91 1.429 . S
C279 C77 1.428 . S
C284 C105 1.427 1_556 S
C289 C146 1.356 . S
C294 C6 1.356 . S
C299 C160 1.356 . S
C304 C20 1.356 . S
C309 C90 1.353 . S
C314 C34 1.354 . S
C319 C48 1.353 . S
C324 C104 1.353 . S
C329 C62 1.356 . S
C334 C118 1.356 . S
C339 C132 1.354 . S
C344 C76 1.353 . S
C349 C8 1.342 . S
C354 C106 1.342 . S
C359 C120 1.343 . S
C364 C22 1.340 . S
C369 C134 1.342 . S
C374 C36 1.339 . S
C379 C50 1.340 . S
C384 C148 1.340 . S
C389 C64 1.343 . S
C394 C162 1.340 . S
C399 C78 1.343 . S
C404 C92 1.340 . S
