# Generated by pormake.
# Topology zfp, (5)-cn, num edge types: 1
# Building blocks:
#     Node 0, Type 0, BuildingBlock: BEQFEK_clean_sbu_0, # of connection points: 5
#     Node 1, Type 0, BuildingBlock: BEQFEK_clean_sbu_0, # of connection points: 5
#     Node 2, Type 0, BuildingBlock: BEQFEK_clean_sbu_0, # of connection points: 5
#     Node 3, Type 0, BuildingBlock: BEQFEK_clean_sbu_0, # of connection points: 5
#     Node 4, Type 0, BuildingBlock: BEQFEK_clean_sbu_0, # of connection points: 5
#     Node 5, Type 0, BuildingBlock: BEQFEK_clean_sbu_0, # of connection points: 5
#     Node 6, Type 0, BuildingBlock: BEQFEK_clean_sbu_0, # of connection points: 5
#     Node 7, Type 0, BuildingBlock: BEQFEK_clean_sbu_0, # of connection points: 5
#     Node 8, Type 0, BuildingBlock: BEQFEK_clean_sbu_0, # of connection points: 5
#     Node 9, Type 0, BuildingBlock: BEQFEK_clean_sbu_0, # of connection points: 5
#     Node 10, Type 0, BuildingBlock: BEQFEK_clean_sbu_0, # of connection points: 5
#     Node 11, Type 0, BuildingBlock: BEQFEK_clean_sbu_0, # of connection points: 5
#     Node 12, Type 0, BuildingBlock: BEQFEK_clean_sbu_0, # of connection points: 5
#     Node 13, Type 0, BuildingBlock: BEQFEK_clean_sbu_0, # of connection points: 5
#     Node 14, Type 0, BuildingBlock: BEQFEK_clean_sbu_0, # of connection points: 5
#     Node 15, Type 0, BuildingBlock: BEQFEK_clean_sbu_0, # of connection points: 5
#     Edge 16, Type (0, 0), None
#     Edge 17, Type (0, 0), None
#     Edge 18, Type (0, 0), None
#     Edge 19, Type (0, 0), None
#     Edge 20, Type (0, 0), None
#     Edge 21, Type (0, 0), None
#     Edge 22, Type (0, 0), None
#     Edge 23, Type (0, 0), None
#     Edge 24, Type (0, 0), None
#     Edge 25, Type (0, 0), None
#     Edge 26, Type (0, 0), None
#     Edge 27, Type (0, 0), None
#     Edge 28, Type (0, 0), None
#     Edge 29, Type (0, 0), None
#     Edge 30, Type (0, 0), None
#     Edge 31, Type (0, 0), None
#     Edge 32, Type (0, 0), None
#     Edge 33, Type (0, 0), None
#     Edge 34, Type (0, 0), None
#     Edge 35, Type (0, 0), None
#     Edge 36, Type (0, 0), None
#     Edge 37, Type (0, 0), None
#     Edge 38, Type (0, 0), None
#     Edge 39, Type (0, 0), None
#     Edge 40, Type (0, 0), None
#     Edge 41, Type (0, 0), None
#     Edge 42, Type (0, 0), None
#     Edge 43, Type (0, 0), None
#     Edge 44, Type (0, 0), None
#     Edge 45, Type (0, 0), None
#     Edge 46, Type (0, 0), None
#     Edge 47, Type (0, 0), None
#     Edge 48, Type (0, 0), None
#     Edge 49, Type (0, 0), None
#     Edge 50, Type (0, 0), None
#     Edge 51, Type (0, 0), None
#     Edge 52, Type (0, 0), None
#     Edge 53, Type (0, 0), None
#     Edge 54, Type (0, 0), None
#     Edge 55, Type (0, 0), None
# Relax obj value: 0.085
# Max RMSD: 0.145
# Mean RMSD: 0.145
data_MOF--net-zfp--node1-BEQFEK_clean_sbu_0--edge1-none
_symmetry_space_group_name_H-M    P1
_symmetry_Int_Tables_number       1
_symmetry_cell_setting            triclinic
loop_
_symmetry_equiv_pos_as_xyz
'x, y, z'
_cell_length_a     14.181805
_cell_length_b     14.181769
_cell_length_c     44.824054
_cell_angle_alpha  89.99997
_cell_angle_beta   90.000025
_cell_angle_gamma 89.999992
loop_
_atom_site_label
_atom_site_type_symbol
_atom_site_fract_x
_atom_site_fract_y
_atom_site_fract_z
_atom_type_partial_charge
Co0 Co 0.15815 0.33753 0.17437 0.0
Co1 Co 0.15383 0.33375 0.10377 0.0
C2 C 0.02729 0.20935 0.13605 0.0
O3 O 0.06074 0.24243 0.16046 0.0
O4 O 0.06696 0.22655 0.11101 0.0
C5 C 0.23201 0.27656 0.23292 0.0
O6 O 0.27666 0.20882 0.21881 0.0
C7 C 0.15172 0.33416 0.03602 0.0
C8 C 0.23376 0.46493 0.02952 0.0
C9 C 0.18602 0.39516 0.01411 0.0
N10 N 0.17838 0.36744 0.06297 0.0
N11 N 0.22821 0.4449 0.05867 0.0
C12 C 0.08988 0.25022 0.03188 0.0
H13 H 0.06114 0.22733 0.05355 0.0
H14 H 0.13214 0.19097 0.02292 0.0
H15 H 0.0319 0.26657 0.01607 0.0
C16 C 0.36724 0.3508 0.16123 0.0
N17 N 0.27576 0.34169 0.15294 0.0
N18 N 0.27266 0.3275 0.12401 0.0
C19 C 0.36169 0.32056 0.1134 0.0
C20 C 0.42573 0.33656 0.13659 0.0
C21 C 0.39944 0.37626 0.19198 0.0
H22 H 0.34257 0.41289 0.20436 0.0
H23 H 0.42067 0.31154 0.20412 0.0
H24 H 0.46219 0.42294 0.19075 0.0
O25 O 0.08474 0.45081 0.16747 0.0
O26 O 0.07274 0.43847 0.11815 0.0
H27 H 0.41763 0.34497 0.06966 0.0
H28 H 0.43539 0.22732 0.08346 0.0
C29 C 0.38468 0.28681 0.08253 0.0
H30 H 0.32075 0.26141 0.07088 0.0
H31 H 0.2564 0.48575 0.07587 0.0
O32 O 0.17879 0.33261 0.21853 0.0
C33 C 0.04836 0.47564 0.1428 0.0
Co34 Co 0.68512 0.15815 0.67437 0.0
Co35 Co 0.68889 0.15384 0.60377 0.0
C36 C 0.8133 0.02729 0.63605 0.0
O37 O 0.78022 0.06074 0.66046 0.0
O38 O 0.7961 0.06696 0.61101 0.0
C39 C 0.74609 0.23201 0.73292 0.0
O40 O 0.81383 0.27666 0.71881 0.0
C41 C 0.68848 0.15173 0.53602 0.0
C42 C 0.55772 0.23376 0.52952 0.0
C43 C 0.62749 0.18602 0.51411 0.0
N44 N 0.65521 0.17838 0.56297 0.0
N45 N 0.57775 0.22822 0.55867 0.0
C46 C 0.77243 0.08988 0.53188 0.0
H47 H 0.79531 0.06114 0.55355 0.0
H48 H 0.83168 0.13214 0.52292 0.0
H49 H 0.75608 0.0319 0.51607 0.0
C50 C 0.67185 0.36724 0.66123 0.0
N51 N 0.68096 0.27576 0.65294 0.0
N52 N 0.69515 0.27266 0.62401 0.0
C53 C 0.70208 0.36169 0.6134 0.0
C54 C 0.68608 0.42574 0.63659 0.0
C55 C 0.64639 0.39944 0.69198 0.0
H56 H 0.60976 0.34257 0.70436 0.0
H57 H 0.71111 0.42067 0.70412 0.0
H58 H 0.59971 0.46219 0.69075 0.0
O59 O 0.57184 0.08474 0.66747 0.0
O60 O 0.58417 0.07274 0.61815 0.0
H61 H 0.67768 0.41763 0.56966 0.0
H62 H 0.79533 0.43539 0.58346 0.0
C63 C 0.73584 0.38468 0.58253 0.0
H64 H 0.76123 0.32075 0.57088 0.0
H65 H 0.5369 0.25641 0.57587 0.0
O66 O 0.69004 0.17879 0.71853 0.0
C67 C 0.54701 0.04836 0.6428 0.0
Co68 Co 0.8645 0.68512 0.17437 0.0
Co69 Co 0.86881 0.6889 0.10377 0.0
C70 C 0.99536 0.8133 0.13605 0.0
O71 O 0.96191 0.78023 0.16046 0.0
O72 O 0.95569 0.7961 0.11101 0.0
C73 C 0.79064 0.7461 0.23292 0.0
O74 O 0.74599 0.81383 0.21881 0.0
C75 C 0.87093 0.68849 0.03602 0.0
C76 C 0.78889 0.55772 0.02952 0.0
C77 C 0.83663 0.62749 0.01411 0.0
N78 N 0.84427 0.65521 0.06297 0.0
N79 N 0.79443 0.57775 0.05867 0.0
C80 C 0.93277 0.77243 0.03188 0.0
H81 H 0.96151 0.79531 0.05355 0.0
H82 H 0.89051 0.83168 0.02292 0.0
H83 H 0.99075 0.75608 0.01607 0.0
C84 C 0.65541 0.67185 0.16123 0.0
N85 N 0.74689 0.68096 0.15294 0.0
N86 N 0.74999 0.69515 0.12401 0.0
C87 C 0.66096 0.70209 0.1134 0.0
C88 C 0.59691 0.68609 0.13659 0.0
C89 C 0.62321 0.6464 0.19198 0.0
H90 H 0.68008 0.60977 0.20436 0.0
H91 H 0.60198 0.71111 0.20412 0.0
H92 H 0.56046 0.59971 0.19075 0.0
O93 O 0.93791 0.57184 0.16747 0.0
O94 O 0.9499 0.58417 0.11815 0.0
H95 H 0.60502 0.67768 0.06966 0.0
H96 H 0.58726 0.79533 0.08346 0.0
C97 C 0.63797 0.73584 0.08253 0.0
H98 H 0.7019 0.76124 0.07088 0.0
H99 H 0.76624 0.53691 0.07587 0.0
O100 O 0.84386 0.69005 0.21853 0.0
C101 C 0.97428 0.54701 0.1428 0.0
Co102 Co 0.33753 0.8645 0.67437 0.0
Co103 Co 0.33375 0.86881 0.60377 0.0
C104 C 0.20935 0.99536 0.63605 0.0
O105 O 0.24242 0.96191 0.66046 0.0
O106 O 0.22655 0.95569 0.61101 0.0
C107 C 0.27655 0.79064 0.73292 0.0
O108 O 0.20882 0.74599 0.71881 0.0
C109 C 0.33416 0.87092 0.53602 0.0
C110 C 0.46493 0.78889 0.52952 0.0
C111 C 0.39516 0.83663 0.51411 0.0
N112 N 0.36744 0.84427 0.56297 0.0
N113 N 0.4449 0.79443 0.55867 0.0
C114 C 0.25022 0.93277 0.53188 0.0
H115 H 0.22734 0.96151 0.55355 0.0
H116 H 0.19097 0.89051 0.52292 0.0
H117 H 0.26657 0.99075 0.51607 0.0
C118 C 0.3508 0.65541 0.66123 0.0
N119 N 0.34169 0.74689 0.65294 0.0
N120 N 0.3275 0.74999 0.62401 0.0
C121 C 0.32056 0.66096 0.6134 0.0
C122 C 0.33656 0.59691 0.63659 0.0
C123 C 0.37625 0.62321 0.69198 0.0
H124 H 0.41288 0.68008 0.70436 0.0
H125 H 0.31154 0.60198 0.70412 0.0
H126 H 0.42294 0.56045 0.69075 0.0
O127 O 0.45081 0.93791 0.66747 0.0
O128 O 0.43848 0.9499 0.61815 0.0
H129 H 0.34497 0.60502 0.56966 0.0
H130 H 0.22732 0.58726 0.58346 0.0
C131 C 0.28681 0.63796 0.58253 0.0
H132 H 0.26141 0.7019 0.57088 0.0
H133 H 0.48574 0.76624 0.57587 0.0
O134 O 0.3326 0.84386 0.71853 0.0
C135 C 0.47564 0.97428 0.6428 0.0
Co136 Co 0.65815 0.18512 0.82367 0.0
Co137 Co 0.65383 0.1889 0.89427 0.0
C138 C 0.52729 0.3133 0.86199 0.0
O139 O 0.56074 0.28023 0.83758 0.0
O140 O 0.56696 0.2961 0.88702 0.0
C141 C 0.73201 0.24609 0.76512 0.0
O142 O 0.77666 0.31383 0.77923 0.0
C143 C 0.65172 0.18849 0.96202 0.0
C144 C 0.73376 0.05772 0.96851 0.0
C145 C 0.68602 0.12749 0.98393 0.0
N146 N 0.67838 0.15521 0.93507 0.0
N147 N 0.72821 0.07775 0.93936 0.0
C148 C 0.58988 0.27243 0.96616 0.0
H149 H 0.56114 0.29532 0.94449 0.0
H150 H 0.63214 0.33168 0.97511 0.0
H151 H 0.5319 0.25608 0.98197 0.0
C152 C 0.86724 0.17185 0.83681 0.0
N153 N 0.77576 0.18096 0.8451 0.0
N154 N 0.77266 0.19515 0.87402 0.0
C155 C 0.86169 0.20209 0.88463 0.0
C156 C 0.92573 0.18609 0.86145 0.0
C157 C 0.89943 0.14639 0.80606 0.0
H158 H 0.84256 0.10976 0.79368 0.0
H159 H 0.92067 0.21111 0.79392 0.0
H160 H 0.96219 0.09971 0.80729 0.0
O161 O 0.58474 0.07184 0.83057 0.0
O162 O 0.57274 0.08418 0.87989 0.0
H163 H 0.91763 0.17768 0.92838 0.0
H164 H 0.93539 0.29533 0.91458 0.0
C165 C 0.88468 0.23584 0.9155 0.0
H166 H 0.82075 0.26124 0.92716 0.0
H167 H 0.7564 0.03691 0.92217 0.0
O168 O 0.67879 0.19005 0.7795 0.0
C169 C 0.54836 0.04701 0.85524 0.0
Co170 Co 0.83753 0.65815 0.32367 0.0
Co171 Co 0.83375 0.65384 0.39427 0.0
C172 C 0.70935 0.52729 0.36199 0.0
O173 O 0.74242 0.56074 0.33758 0.0
O174 O 0.72655 0.56696 0.38702 0.0
C175 C 0.77656 0.73201 0.26512 0.0
O176 O 0.70882 0.77666 0.27923 0.0
C177 C 0.83416 0.65173 0.46202 0.0
C178 C 0.96493 0.73376 0.46851 0.0
C179 C 0.89516 0.68602 0.48393 0.0
N180 N 0.86744 0.67838 0.43507 0.0
N181 N 0.9449 0.72822 0.43936 0.0
C182 C 0.75022 0.58988 0.46616 0.0
H183 H 0.72733 0.56114 0.44449 0.0
H184 H 0.69097 0.63214 0.47511 0.0
H185 H 0.76657 0.5319 0.48197 0.0
C186 C 0.8508 0.86724 0.33681 0.0
N187 N 0.84169 0.77576 0.3451 0.0
N188 N 0.8275 0.77266 0.37402 0.0
C189 C 0.82056 0.86169 0.38463 0.0
C190 C 0.83656 0.92574 0.36145 0.0
C191 C 0.87626 0.89944 0.30606 0.0
H192 H 0.91289 0.84257 0.29368 0.0
H193 H 0.81154 0.92067 0.29392 0.0
H194 H 0.92294 0.9622 0.30729 0.0
O195 O 0.95081 0.58474 0.33057 0.0
O196 O 0.93847 0.57274 0.37989 0.0
H197 H 0.84497 0.91764 0.42838 0.0
H198 H 0.72732 0.93539 0.41458 0.0
C199 C 0.78681 0.88469 0.4155 0.0
H200 H 0.76141 0.82075 0.42716 0.0
H201 H 0.98574 0.75641 0.42217 0.0
O202 O 0.83261 0.67879 0.2795 0.0
C203 C 0.97564 0.54837 0.35524 0.0
Co204 Co 0.3645 0.83753 0.82367 0.0
Co205 Co 0.36881 0.83375 0.89427 0.0
C206 C 0.49536 0.70935 0.86199 0.0
O207 O 0.46191 0.74242 0.83758 0.0
O208 O 0.45569 0.72655 0.88702 0.0
C209 C 0.29064 0.77655 0.76512 0.0
O210 O 0.24599 0.70882 0.77923 0.0
C211 C 0.37092 0.83416 0.96202 0.0
C212 C 0.28889 0.96493 0.96851 0.0
C213 C 0.33663 0.89516 0.98393 0.0
N214 N 0.34427 0.86744 0.93507 0.0
N215 N 0.29443 0.9449 0.93936 0.0
C216 C 0.43277 0.75022 0.96616 0.0
H217 H 0.46151 0.72734 0.94449 0.0
H218 H 0.39051 0.69097 0.97511 0.0
H219 H 0.49075 0.76657 0.98197 0.0
C220 C 0.15541 0.8508 0.83681 0.0
N221 N 0.24689 0.84169 0.8451 0.0
N222 N 0.24999 0.8275 0.87402 0.0
C223 C 0.16096 0.82056 0.88463 0.0
C224 C 0.09691 0.83656 0.86145 0.0
C225 C 0.12321 0.87625 0.80606 0.0
H226 H 0.18008 0.91289 0.79368 0.0
H227 H 0.10198 0.81154 0.79392 0.0
H228 H 0.06046 0.92294 0.80729 0.0
O229 O 0.43791 0.95081 0.83056 0.0
O230 O 0.4499 0.93848 0.87989 0.0
H231 H 0.10502 0.84497 0.92838 0.0
H232 H 0.08726 0.72732 0.91458 0.0
C233 C 0.13796 0.78681 0.9155 0.0
H234 H 0.2019 0.76141 0.92716 0.0
H235 H 0.26624 0.98574 0.92217 0.0
O236 O 0.34386 0.8326 0.7795 0.0
C237 C 0.47428 0.97564 0.85524 0.0
Co238 Co 0.18512 0.3645 0.32367 0.0
Co239 Co 0.18889 0.36882 0.39427 0.0
C240 C 0.31329 0.49536 0.36199 0.0
O241 O 0.28022 0.46191 0.33758 0.0
O242 O 0.2961 0.45569 0.38702 0.0
C243 C 0.24609 0.29064 0.26512 0.0
O244 O 0.31383 0.24599 0.27923 0.0
C245 C 0.18848 0.37093 0.46202 0.0
C246 C 0.05772 0.28889 0.46851 0.0
C247 C 0.12749 0.33663 0.48393 0.0
N248 N 0.15521 0.34427 0.43507 0.0
N249 N 0.07775 0.29443 0.43936 0.0
C250 C 0.27243 0.43277 0.46616 0.0
H251 H 0.29531 0.46151 0.44449 0.0
H252 H 0.33168 0.39051 0.47511 0.0
H253 H 0.25608 0.49075 0.48197 0.0
C254 C 0.17185 0.15541 0.33681 0.0
N255 N 0.18096 0.24689 0.3451 0.0
N256 N 0.19515 0.24999 0.37402 0.0
C257 C 0.20209 0.16096 0.38463 0.0
C258 C 0.18609 0.09691 0.36145 0.0
C259 C 0.14639 0.12321 0.30606 0.0
H260 H 0.10976 0.18008 0.29368 0.0
H261 H 0.21111 0.10198 0.29392 0.0
H262 H 0.09971 0.06046 0.30729 0.0
O263 O 0.07184 0.43791 0.33056 0.0
O264 O 0.08417 0.44991 0.37989 0.0
H265 H 0.17768 0.10502 0.42838 0.0
H266 H 0.29533 0.08726 0.41458 0.0
C267 C 0.23584 0.13797 0.4155 0.0
H268 H 0.26123 0.2019 0.42716 0.0
H269 H 0.0369 0.26624 0.42217 0.0
O270 O 0.19004 0.34386 0.2795 0.0
C271 C 0.047 0.47428 0.35524 0.0
Co272 Co 0.86143 0.6855 0.82218 0.0
Co273 Co 0.87338 0.68317 0.89212 0.0
C274 C 0.99499 0.8098 0.8609 0.0
O275 O 0.9624 0.77621 0.83649 0.0
O276 O 0.95325 0.79484 0.88567 0.0
C277 C 0.78177 0.75452 0.76507 0.0
O278 O 0.73653 0.82107 0.77955 0.0
C279 C 0.86436 0.6876 0.95926 0.0
C280 C 0.85596 0.53395 0.96718 0.0
C281 C 0.85608 0.61996 0.98178 0.0
N282 N 0.8679 0.64229 0.93279 0.0
N283 N 0.86419 0.55069 0.93789 0.0
C284 C 0.85861 0.79248 0.96198 0.0
H285 H 0.8417 0.82477 0.94005 0.0
H286 H 0.80399 0.81242 0.97854 0.0
H287 H 0.92788 0.82034 0.9693 0.0
C288 C 0.65398 0.66936 0.83677 0.0
N289 N 0.74579 0.67749 0.84477 0.0
N290 N 0.75055 0.68603 0.87392 0.0
C291 C 0.66186 0.68913 0.88502 0.0
C292 C 0.59656 0.67906 0.86185 0.0
C293 C 0.62042 0.64791 0.80586 0.0
H294 H 0.67679 0.61315 0.79273 0.0
H295 H 0.59817 0.71401 0.79469 0.0
H296 H 0.558 0.6007 0.80676 0.0
O297 O 0.93386 0.56998 0.82547 0.0
O298 O 0.95367 0.58517 0.8743 0.0
H299 H 0.59701 0.65226 0.92634 0.0
H300 H 0.59859 0.77709 0.91816 0.0
C301 C 0.63957 0.7106 0.91683 0.0
H302 H 0.70407 0.71973 0.93006 0.0
H303 H 0.86495 0.49937 0.92121 0.0
O304 O 0.83615 0.69836 0.7789 0.0
C305 C 0.97458 0.54699 0.84958 0.0
Co306 Co 0.33715 0.86143 0.32218 0.0
Co307 Co 0.33948 0.87338 0.39212 0.0
C308 C 0.21285 0.99499 0.3609 0.0
O309 O 0.24644 0.9624 0.33649 0.0
O310 O 0.22781 0.95325 0.38567 0.0
C311 C 0.26813 0.78177 0.26507 0.0
O312 O 0.20158 0.73653 0.27955 0.0
C313 C 0.33505 0.86436 0.45926 0.0
C314 C 0.4887 0.85596 0.46718 0.0
C315 C 0.40269 0.85608 0.48178 0.0
N316 N 0.38036 0.8679 0.43279 0.0
N317 N 0.47196 0.86419 0.43789 0.0
C318 C 0.23017 0.85861 0.46198 0.0
H319 H 0.19788 0.8417 0.44005 0.0
H320 H 0.21023 0.80399 0.47854 0.0
H321 H 0.20231 0.92788 0.4693 0.0
C322 C 0.35329 0.65398 0.33677 0.0
N323 N 0.34516 0.7458 0.34477 0.0
N324 N 0.33662 0.75055 0.37392 0.0
C325 C 0.33352 0.66186 0.38502 0.0
C326 C 0.34359 0.59656 0.36185 0.0
C327 C 0.37474 0.62042 0.30586 0.0
H328 H 0.4095 0.67679 0.29273 0.0
H329 H 0.30864 0.59817 0.29469 0.0
H330 H 0.42194 0.558 0.30676 0.0
O331 O 0.45267 0.93387 0.32547 0.0
O332 O 0.43748 0.95368 0.3743 0.0
H333 H 0.37039 0.59701 0.42634 0.0
H334 H 0.24556 0.59859 0.41816 0.0
C335 C 0.31205 0.63957 0.41683 0.0
H336 H 0.30292 0.70407 0.43006 0.0
H337 H 0.52328 0.86496 0.42121 0.0
O338 O 0.32429 0.83615 0.2789 0.0
C339 C 0.47566 0.97458 0.34958 0.0
Co340 Co 0.16122 0.33715 0.82218 0.0
Co341 Co 0.14927 0.33948 0.89212 0.0
C342 C 0.02765 0.21285 0.8609 0.0
O343 O 0.06025 0.24644 0.83649 0.0
O344 O 0.06939 0.22781 0.88567 0.0
C345 C 0.24088 0.26813 0.76507 0.0
O346 O 0.28612 0.20158 0.77955 0.0
C347 C 0.15829 0.33505 0.95926 0.0
C348 C 0.16669 0.4887 0.96718 0.0
C349 C 0.16657 0.40269 0.98178 0.0
N350 N 0.15475 0.38036 0.93279 0.0
N351 N 0.15846 0.47196 0.93789 0.0
C352 C 0.16404 0.23017 0.96198 0.0
H353 H 0.18095 0.19788 0.94005 0.0
H354 H 0.21866 0.21023 0.97854 0.0
H355 H 0.09477 0.20231 0.9693 0.0
C356 C 0.36867 0.35329 0.83677 0.0
N357 N 0.27685 0.34516 0.84477 0.0
N358 N 0.2721 0.33662 0.87392 0.0
C359 C 0.36079 0.33352 0.88502 0.0
C360 C 0.42609 0.34359 0.86185 0.0
C361 C 0.40222 0.37474 0.80586 0.0
H362 H 0.34586 0.4095 0.79273 0.0
H363 H 0.42448 0.30864 0.79469 0.0
H364 H 0.46465 0.42195 0.80676 0.0
O365 O 0.08878 0.45267 0.82547 0.0
O366 O 0.06898 0.43748 0.8743 0.0
H367 H 0.42563 0.37039 0.92634 0.0
H368 H 0.42406 0.24556 0.91816 0.0
C369 C 0.38308 0.31205 0.91683 0.0
H370 H 0.31858 0.30292 0.93006 0.0
H371 H 0.1577 0.52328 0.92121 0.0
O372 O 0.18649 0.32429 0.7789 0.0
C373 C 0.04807 0.47566 0.84958 0.0
Co374 Co 0.6855 0.16122 0.32218 0.0
Co375 Co 0.68317 0.14928 0.39212 0.0
C376 C 0.8098 0.02766 0.3609 0.0
O377 O 0.77621 0.06025 0.33649 0.0
O378 O 0.79484 0.0694 0.38567 0.0
C379 C 0.75452 0.24088 0.26507 0.0
O380 O 0.82107 0.28613 0.27955 0.0
C381 C 0.6876 0.1583 0.45926 0.0
C382 C 0.53395 0.16669 0.46718 0.0
C383 C 0.61996 0.16657 0.48178 0.0
N384 N 0.64229 0.15475 0.43279 0.0
N385 N 0.55069 0.15847 0.43789 0.0
C386 C 0.79248 0.16404 0.46198 0.0
H387 H 0.82477 0.18095 0.44005 0.0
H388 H 0.81241 0.21866 0.47854 0.0
H389 H 0.82034 0.09477 0.4693 0.0
C390 C 0.66935 0.36868 0.33677 0.0
N391 N 0.67749 0.27686 0.34477 0.0
N392 N 0.68603 0.27211 0.37392 0.0
C393 C 0.68913 0.3608 0.38502 0.0
C394 C 0.67906 0.42609 0.36185 0.0
C395 C 0.64791 0.40223 0.30586 0.0
H396 H 0.61315 0.34587 0.29273 0.0
H397 H 0.714 0.42448 0.29469 0.0
H398 H 0.6007 0.46465 0.30676 0.0
O399 O 0.56998 0.08879 0.32547 0.0
O400 O 0.58517 0.06898 0.3743 0.0
H401 H 0.65226 0.42564 0.42634 0.0
H402 H 0.77709 0.42407 0.41816 0.0
C403 C 0.7106 0.38308 0.41683 0.0
H404 H 0.71973 0.31859 0.43006 0.0
H405 H 0.49937 0.1577 0.42121 0.0
O406 O 0.69836 0.1865 0.2789 0.0
C407 C 0.54699 0.04807 0.34958 0.0
Co408 Co 0.36143 0.83715 0.17586 0.0
Co409 Co 0.37338 0.83948 0.10591 0.0
C410 C 0.49499 0.71285 0.13714 0.0
O411 O 0.4624 0.74644 0.16155 0.0
O412 O 0.45325 0.72781 0.11236 0.0
C413 C 0.28177 0.76813 0.23297 0.0
O414 O 0.23653 0.70158 0.21849 0.0
C415 C 0.36436 0.83505 0.03878 0.0
C416 C 0.35596 0.9887 0.03086 0.0
C417 C 0.35608 0.90269 0.01626 0.0
N418 N 0.3679 0.88036 0.06524 0.0
N419 N 0.36419 0.97196 0.06015 0.0
C420 C 0.35861 0.73017 0.03606 0.0
H421 H 0.3417 0.69788 0.05798 0.0
H422 H 0.30399 0.71023 0.0195 0.0
H423 H 0.42788 0.70231 0.02874 0.0
C424 C 0.15398 0.8533 0.16127 0.0
N425 N 0.2458 0.84516 0.15327 0.0
N426 N 0.25055 0.83662 0.12412 0.0
C427 C 0.16186 0.83352 0.11301 0.0
C428 C 0.09656 0.84359 0.13619 0.0
C429 C 0.12042 0.87474 0.19218 0.0
H430 H 0.17679 0.9095 0.2053 0.0
H431 H 0.09817 0.80865 0.20334 0.0
H432 H 0.058 0.92195 0.19128 0.0
O433 O 0.43387 0.95267 0.17257 0.0
O434 O 0.45367 0.93748 0.12373 0.0
H435 H 0.09701 0.87039 0.0717 0.0
H436 H 0.09859 0.74556 0.07987 0.0
C437 C 0.13957 0.81205 0.08121 0.0
H438 H 0.20407 0.80292 0.06798 0.0
H439 H 0.36495 0.02328 0.07683 0.0
O440 O 0.33615 0.82429 0.21913 0.0
C441 C 0.47458 0.97566 0.14846 0.0
Co442 Co 0.1855 0.36143 0.67586 0.0
Co443 Co 0.18316 0.37338 0.60591 0.0
C444 C 0.3098 0.49499 0.63714 0.0
O445 O 0.27621 0.4624 0.66155 0.0
O446 O 0.29484 0.45325 0.61236 0.0
C447 C 0.25452 0.28177 0.73297 0.0
O448 O 0.32107 0.23652 0.71849 0.0
C449 C 0.1876 0.36436 0.53878 0.0
C450 C 0.03395 0.35596 0.53086 0.0
C451 C 0.11996 0.35608 0.51626 0.0
N452 N 0.14229 0.3679 0.56524 0.0
N453 N 0.05069 0.36419 0.56015 0.0
C454 C 0.29247 0.35861 0.53606 0.0
H455 H 0.32477 0.3417 0.55798 0.0
H456 H 0.31241 0.30399 0.5195 0.0
H457 H 0.32034 0.42788 0.52874 0.0
C458 C 0.16935 0.15398 0.66127 0.0
N459 N 0.17749 0.24579 0.65327 0.0
N460 N 0.18602 0.25055 0.62412 0.0
C461 C 0.18913 0.16186 0.61301 0.0
C462 C 0.17906 0.09656 0.63619 0.0
C463 C 0.14791 0.12042 0.69218 0.0
H464 H 0.11315 0.17679 0.7053 0.0
H465 H 0.214 0.09817 0.70334 0.0
H466 H 0.1007 0.058 0.69128 0.0
O467 O 0.06998 0.43387 0.67257 0.0
O468 O 0.08517 0.45367 0.62373 0.0
H469 H 0.15226 0.09701 0.5717 0.0
H470 H 0.27709 0.09859 0.57987 0.0
C471 C 0.21059 0.13957 0.58121 0.0
H472 H 0.21972 0.20407 0.56798 0.0
H473 H 0.99936 0.36495 0.57683 0.0
O474 O 0.19836 0.33615 0.71913 0.0
C475 C 0.04699 0.47458 0.64846 0.0
Co476 Co 0.66122 0.1855 0.17586 0.0
Co477 Co 0.64927 0.18317 0.10591 0.0
C478 C 0.52766 0.3098 0.13714 0.0
O479 O 0.56025 0.27621 0.16155 0.0
O480 O 0.56939 0.29484 0.11236 0.0
C481 C 0.74088 0.25452 0.23297 0.0
O482 O 0.78613 0.32107 0.21849 0.0
C483 C 0.65829 0.1876 0.03878 0.0
C484 C 0.66669 0.03395 0.03086 0.0
C485 C 0.66657 0.11996 0.01626 0.0
N486 N 0.65475 0.14229 0.06524 0.0
N487 N 0.65846 0.05069 0.06015 0.0
C488 C 0.66404 0.29248 0.03606 0.0
H489 H 0.68095 0.32477 0.05798 0.0
H490 H 0.71866 0.31242 0.01949 0.0
H491 H 0.59477 0.32034 0.02874 0.0
C492 C 0.86867 0.16936 0.16127 0.0
N493 N 0.77685 0.17749 0.15327 0.0
N494 N 0.7721 0.18603 0.12412 0.0
C495 C 0.86079 0.18913 0.11301 0.0
C496 C 0.92609 0.17906 0.13619 0.0
C497 C 0.90223 0.14791 0.19218 0.0
H498 H 0.84586 0.11315 0.2053 0.0
H499 H 0.92448 0.21401 0.20334 0.0
H500 H 0.96465 0.1007 0.19128 0.0
O501 O 0.58878 0.06998 0.17257 0.0
O502 O 0.56898 0.08517 0.12373 0.0
H503 H 0.92564 0.15226 0.0717 0.0
H504 H 0.92407 0.27709 0.07987 0.0
C505 C 0.88308 0.2106 0.08121 0.0
H506 H 0.81858 0.21973 0.06798 0.0
H507 H 0.6577 0.99937 0.07683 0.0
O508 O 0.6865 0.19837 0.21913 0.0
C509 C 0.54807 0.04699 0.14846 0.0
Co510 Co 0.83715 0.66122 0.67586 0.0
Co511 Co 0.83948 0.64928 0.60591 0.0
C512 C 0.71285 0.52766 0.63714 0.0
O513 O 0.74644 0.56025 0.66155 0.0
O514 O 0.72781 0.5694 0.61236 0.0
C515 C 0.76813 0.74088 0.73297 0.0
O516 O 0.70158 0.78613 0.71849 0.0
C517 C 0.83505 0.6583 0.53878 0.0
C518 C 0.9887 0.66669 0.53086 0.0
C519 C 0.90269 0.66657 0.51626 0.0
N520 N 0.88036 0.65475 0.56524 0.0
N521 N 0.97196 0.65846 0.56015 0.0
C522 C 0.73017 0.66404 0.53606 0.0
H523 H 0.69788 0.68095 0.55798 0.0
H524 H 0.71023 0.71866 0.5195 0.0
H525 H 0.70231 0.59477 0.52874 0.0
C526 C 0.85329 0.86867 0.66127 0.0
N527 N 0.84516 0.77686 0.65327 0.0
N528 N 0.83662 0.7721 0.62412 0.0
C529 C 0.83352 0.86079 0.61301 0.0
C530 C 0.84359 0.92609 0.63619 0.0
C531 C 0.87474 0.90223 0.69218 0.0
H532 H 0.9095 0.84586 0.7053 0.0
H533 H 0.80864 0.92448 0.70334 0.0
H534 H 0.92194 0.96465 0.69128 0.0
O535 O 0.95267 0.58879 0.67257 0.0
O536 O 0.93748 0.56898 0.62373 0.0
H537 H 0.87039 0.92564 0.5717 0.0
H538 H 0.74556 0.92407 0.57987 0.0
C539 C 0.81205 0.88308 0.58121 0.0
H540 H 0.80292 0.81858 0.56798 0.0
H541 H 0.02328 0.6577 0.57683 0.0
O542 O 0.82429 0.6865 0.71913 0.0
C543 C 0.97566 0.54807 0.64846 0.0
loop_
_geom_bond_atom_site_label_1
_geom_bond_atom_site_label_2
_geom_bond_distance
_geom_bond_site_symmetry_2
_ccdc_geom_bond_type
Co0 O3 1.970 1_455 S
Co0 N17 1.989 . S
Co0 O25 1.967 . S
Co0 O32 1.920 . S
Co1 O4 1.966 1_455 S
Co1 N10 2.022 . S
Co1 N18 1.993 . S
Co1 O26 1.941 . S
C2 O3 1.258 . S
C2 O4 1.263 . S
O3 Co0 1.970 1_655 S
O3 C2 1.258 . S
O4 Co1 1.966 1_655 S
O4 C2 1.263 . S
C5 O6 1.235 . S
C5 O32 1.289 . S
O6 C5 1.235 . S
C7 C9 1.400 . S
C7 N10 1.351 . S
C7 C12 1.501 . S
C8 C9 1.387 . S
C8 N11 1.341 . S
C9 C7 1.400 . S
C9 C8 1.387 . S
N10 Co1 2.022 . S
N10 C7 1.351 . S
N10 N11 1.365 . S
N11 C8 1.341 . S
N11 N10 1.365 . S
N11 H31 0.862 . S
C12 C7 1.501 . S
C12 H13 0.961 1_455 S
C12 H14 0.961 . S
C12 H15 0.960 1_455 S
H13 C12 0.961 1_655 S
H14 C12 0.961 . S
H15 C12 0.960 1_655 S
C16 N17 1.342 . S
C16 C20 1.401 . S
C16 C21 1.499 . S
N17 Co0 1.989 . S
N17 C16 1.342 . S
N17 N18 1.388 . S
N18 Co1 1.993 . S
N18 N17 1.388 . S
N18 C19 1.346 . S
C19 N18 1.346 . S
C19 C20 1.396 . S
C19 C29 1.510 . S
C20 C16 1.401 . S
C20 C19 1.396 . S
C21 C16 1.499 . S
C21 H22 0.959 . S
C21 H23 0.960 . S
C21 H24 0.961 . S
H22 C21 0.959 . S
H23 C21 0.960 . S
H24 C21 0.961 . S
O25 Co0 1.967 . S
O25 C33 1.258 . S
O26 Co1 1.941 . S
O26 C33 1.266 . S
H27 C29 0.959 . S
H28 C29 0.961 . S
C29 C19 1.510 . S
C29 H27 0.959 . S
C29 H28 0.961 . S
C29 H30 0.960 . S
H30 C29 0.960 . S
H31 N11 0.862 . S
O32 Co0 1.920 . S
O32 C5 1.289 . S
C33 O25 1.258 . S
C33 O26 1.266 . S
Co34 O37 1.970 1_545 S
Co34 N51 1.989 . S
Co34 O59 1.967 . S
Co34 O66 1.920 . S
Co35 O38 1.966 1_545 S
Co35 N44 2.022 . S
Co35 N52 1.993 . S
Co35 O60 1.941 . S
C36 O37 1.258 . S
C36 O38 1.263 . S
O37 Co34 1.970 1_565 S
O37 C36 1.258 . S
O38 Co35 1.966 1_565 S
O38 C36 1.263 . S
C39 O40 1.235 . S
C39 O66 1.289 . S
O40 C39 1.235 . S
C41 C43 1.400 . S
C41 N44 1.351 . S
C41 C46 1.501 . S
C42 C43 1.387 . S
C42 N45 1.341 . S
C43 C41 1.400 . S
C43 C42 1.387 . S
N44 Co35 2.022 . S
N44 C41 1.351 . S
N44 N45 1.365 . S
N45 C42 1.341 . S
N45 N44 1.365 . S
N45 H65 0.862 . S
C46 C41 1.501 . S
C46 H47 0.961 1_545 S
C46 H48 0.961 . S
C46 H49 0.960 1_545 S
H47 C46 0.961 1_565 S
H48 C46 0.961 . S
H49 C46 0.960 1_565 S
C50 N51 1.342 . S
C50 C54 1.401 . S
C50 C55 1.499 . S
N51 Co34 1.989 . S
N51 C50 1.342 . S
N51 N52 1.388 . S
N52 Co35 1.993 . S
N52 N51 1.388 . S
N52 C53 1.346 . S
C53 N52 1.346 . S
C53 C54 1.396 . S
C53 C63 1.510 . S
C54 C50 1.401 . S
C54 C53 1.396 . S
C55 C50 1.499 . S
C55 H56 0.959 . S
C55 H57 0.960 . S
C55 H58 0.961 . S
H56 C55 0.959 . S
H57 C55 0.960 . S
H58 C55 0.961 . S
O59 Co34 1.967 . S
O59 C67 1.258 . S
O60 Co35 1.941 . S
O60 C67 1.266 . S
H61 C63 0.959 . S
H62 C63 0.961 . S
C63 C53 1.510 . S
C63 H61 0.959 . S
C63 H62 0.961 . S
C63 H64 0.960 . S
H64 C63 0.960 . S
H65 N45 0.862 . S
O66 Co34 1.920 . S
O66 C39 1.289 . S
C67 O59 1.258 . S
C67 O60 1.266 . S
Co68 O71 1.970 1_655 S
Co68 N85 1.989 . S
Co68 O93 1.967 . S
Co68 O100 1.920 . S
Co69 O72 1.966 1_655 S
Co69 N78 2.022 . S
Co69 N86 1.993 . S
Co69 O94 1.941 . S
C70 O71 1.258 . S
C70 O72 1.263 . S
O71 Co68 1.970 1_455 S
O71 C70 1.258 . S
O72 Co69 1.966 1_455 S
O72 C70 1.263 . S
C73 O74 1.235 . S
C73 O100 1.289 . S
O74 C73 1.235 . S
C75 C77 1.400 . S
C75 N78 1.351 . S
C75 C80 1.501 . S
C76 C77 1.387 . S
C76 N79 1.341 . S
C77 C75 1.400 . S
C77 C76 1.387 . S
N78 Co69 2.022 . S
N78 C75 1.351 . S
N78 N79 1.365 . S
N79 C76 1.341 . S
N79 N78 1.365 . S
N79 H99 0.862 . S
C80 C75 1.501 . S
C80 H81 0.961 1_655 S
C80 H82 0.961 . S
C80 H83 0.960 1_655 S
H81 C80 0.961 1_455 S
H82 C80 0.961 . S
H83 C80 0.960 1_455 S
C84 N85 1.342 . S
C84 C88 1.401 . S
C84 C89 1.499 . S
N85 Co68 1.989 . S
N85 C84 1.342 . S
N85 N86 1.388 . S
N86 Co69 1.993 . S
N86 N85 1.388 . S
N86 C87 1.346 . S
C87 N86 1.346 . S
C87 C88 1.396 . S
C87 C97 1.510 . S
C88 C84 1.401 . S
C88 C87 1.396 . S
C89 C84 1.499 . S
C89 H90 0.959 . S
C89 H91 0.960 . S
C89 H92 0.961 . S
H90 C89 0.959 . S
H91 C89 0.960 . S
H92 C89 0.961 . S
O93 Co68 1.967 . S
O93 C101 1.258 . S
O94 Co69 1.941 . S
O94 C101 1.266 . S
H95 C97 0.959 . S
H96 C97 0.961 . S
C97 C87 1.510 . S
C97 H95 0.959 . S
C97 H96 0.961 . S
C97 H98 0.960 . S
H98 C97 0.960 . S
H99 N79 0.862 . S
O100 Co68 1.920 . S
O100 C73 1.289 . S
C101 O93 1.258 . S
C101 O94 1.266 . S
Co102 O105 1.970 1_565 S
Co102 N119 1.989 . S
Co102 O127 1.967 . S
Co102 O134 1.920 . S
Co103 O106 1.966 1_565 S
Co103 N112 2.022 . S
Co103 N120 1.993 . S
Co103 O128 1.941 . S
C104 O105 1.258 . S
C104 O106 1.263 . S
O105 Co102 1.970 1_545 S
O105 C104 1.258 . S
O106 Co103 1.966 1_545 S
O106 C104 1.263 . S
C107 O108 1.235 . S
C107 O134 1.289 . S
O108 C107 1.235 . S
C109 C111 1.400 . S
C109 N112 1.351 . S
C109 C114 1.501 . S
C110 C111 1.387 . S
C110 N113 1.341 . S
C111 C109 1.400 . S
C111 C110 1.387 . S
N112 Co103 2.022 . S
N112 C109 1.351 . S
N112 N113 1.365 . S
N113 C110 1.341 . S
N113 N112 1.365 . S
N113 H133 0.862 . S
C114 C109 1.501 . S
C114 H115 0.961 1_565 S
C114 H116 0.961 . S
C114 H117 0.960 1_565 S
H115 C114 0.961 1_545 S
H116 C114 0.961 . S
H117 C114 0.960 1_545 S
C118 N119 1.342 . S
C118 C122 1.401 . S
C118 C123 1.499 . S
N119 Co102 1.989 . S
N119 C118 1.342 . S
N119 N120 1.388 . S
N120 Co103 1.993 . S
N120 N119 1.388 . S
N120 C121 1.346 . S
C121 N120 1.346 . S
C121 C122 1.396 . S
C121 C131 1.510 . S
C122 C118 1.401 . S
C122 C121 1.396 . S
C123 C118 1.499 . S
C123 H124 0.959 . S
C123 H125 0.960 . S
C123 H126 0.961 . S
H124 C123 0.959 . S
H125 C123 0.960 . S
H126 C123 0.961 . S
O127 Co102 1.967 . S
O127 C135 1.258 . S
O128 Co103 1.941 . S
O128 C135 1.266 . S
H129 C131 0.959 . S
H130 C131 0.961 . S
C131 C121 1.510 . S
C131 H129 0.959 . S
C131 H130 0.961 . S
C131 H132 0.960 . S
H132 C131 0.960 . S
H133 N113 0.862 . S
O134 Co102 1.920 . S
O134 C107 1.289 . S
C135 O127 1.258 . S
C135 O128 1.266 . S
Co136 O139 1.970 . S
Co136 N153 1.989 . S
Co136 O161 1.967 . S
Co136 O168 1.920 . S
Co137 O140 1.966 . S
Co137 N146 2.022 . S
Co137 N154 1.993 . S
Co137 O162 1.941 . S
C138 O139 1.258 . S
C138 O140 1.263 . S
O139 Co136 1.970 . S
O139 C138 1.258 . S
O140 Co137 1.966 . S
O140 C138 1.263 . S
C141 O142 1.235 . S
C141 O168 1.289 . S
O142 C141 1.235 . S
C143 C145 1.400 . S
C143 N146 1.351 . S
C143 C148 1.501 . S
C144 C145 1.387 . S
C144 N147 1.341 . S
C145 C143 1.400 . S
C145 C144 1.387 . S
N146 Co137 2.022 . S
N146 C143 1.351 . S
N146 N147 1.365 . S
N147 C144 1.341 . S
N147 N146 1.365 . S
N147 H167 0.862 . S
C148 C143 1.501 . S
C148 H149 0.961 . S
C148 H150 0.961 . S
C148 H151 0.960 . S
H149 C148 0.961 . S
H150 C148 0.961 . S
H151 C148 0.960 . S
C152 N153 1.342 . S
C152 C156 1.401 . S
C152 C157 1.499 . S
N153 Co136 1.989 . S
N153 C152 1.342 . S
N153 N154 1.388 . S
N154 Co137 1.993 . S
N154 N153 1.388 . S
N154 C155 1.346 . S
C155 N154 1.346 . S
C155 C156 1.396 . S
C155 C165 1.510 . S
C156 C152 1.401 . S
C156 C155 1.396 . S
C157 C152 1.499 . S
C157 H158 0.959 . S
C157 H159 0.960 . S
C157 H160 0.961 . S
H158 C157 0.959 . S
H159 C157 0.960 . S
H160 C157 0.961 . S
O161 Co136 1.967 . S
O161 C169 1.258 . S
O162 Co137 1.941 . S
O162 C169 1.266 . S
H163 C165 0.959 . S
H164 C165 0.961 . S
C165 C155 1.510 . S
C165 H163 0.959 . S
C165 H164 0.961 . S
C165 H166 0.960 . S
H166 C165 0.960 . S
H167 N147 0.862 . S
O168 Co136 1.920 . S
O168 C141 1.289 . S
C169 O161 1.258 . S
C169 O162 1.266 . S
Co170 O173 1.970 . S
Co170 N187 1.989 . S
Co170 O195 1.967 . S
Co170 O202 1.920 . S
Co171 O174 1.966 . S
Co171 N180 2.022 . S
Co171 N188 1.993 . S
Co171 O196 1.941 . S
C172 O173 1.258 . S
C172 O174 1.263 . S
O173 Co170 1.970 . S
O173 C172 1.258 . S
O174 Co171 1.966 . S
O174 C172 1.263 . S
C175 O176 1.235 . S
C175 O202 1.289 . S
O176 C175 1.235 . S
C177 C179 1.400 . S
C177 N180 1.351 . S
C177 C182 1.501 . S
C178 C179 1.387 . S
C178 N181 1.341 . S
C179 C177 1.400 . S
C179 C178 1.387 . S
N180 Co171 2.022 . S
N180 C177 1.351 . S
N180 N181 1.365 . S
N181 C178 1.341 . S
N181 N180 1.365 . S
N181 H201 0.862 . S
C182 C177 1.501 . S
C182 H183 0.961 . S
C182 H184 0.961 . S
C182 H185 0.960 . S
H183 C182 0.961 . S
H184 C182 0.961 . S
H185 C182 0.960 . S
C186 N187 1.342 . S
C186 C190 1.401 . S
C186 C191 1.499 . S
N187 Co170 1.989 . S
N187 C186 1.342 . S
N187 N188 1.388 . S
N188 Co171 1.993 . S
N188 N187 1.388 . S
N188 C189 1.346 . S
C189 N188 1.346 . S
C189 C190 1.396 . S
C189 C199 1.510 . S
C190 C186 1.401 . S
C190 C189 1.396 . S
C191 C186 1.499 . S
C191 H192 0.959 . S
C191 H193 0.960 . S
C191 H194 0.961 . S
H192 C191 0.959 . S
H193 C191 0.960 . S
H194 C191 0.961 . S
O195 Co170 1.967 . S
O195 C203 1.258 . S
O196 Co171 1.941 . S
O196 C203 1.266 . S
H197 C199 0.959 . S
H198 C199 0.961 . S
C199 C189 1.510 . S
C199 H197 0.959 . S
C199 H198 0.961 . S
C199 H200 0.960 . S
H200 C199 0.960 . S
H201 N181 0.862 . S
O202 Co170 1.920 . S
O202 C175 1.289 . S
C203 O195 1.258 . S
C203 O196 1.266 . S
Co204 O207 1.970 . S
Co204 N221 1.989 . S
Co204 O229 1.967 . S
Co204 O236 1.920 . S
Co205 O208 1.966 . S
Co205 N214 2.022 . S
Co205 N222 1.993 . S
Co205 O230 1.941 . S
C206 O207 1.258 . S
C206 O208 1.263 . S
O207 Co204 1.970 . S
O207 C206 1.258 . S
O208 Co205 1.966 . S
O208 C206 1.263 . S
C209 O210 1.235 . S
C209 O236 1.289 . S
O210 C209 1.235 . S
C211 C213 1.400 . S
C211 N214 1.351 . S
C211 C216 1.501 . S
C212 C213 1.387 . S
C212 N215 1.341 . S
C213 C211 1.400 . S
C213 C212 1.387 . S
N214 Co205 2.022 . S
N214 C211 1.351 . S
N214 N215 1.365 . S
N215 C212 1.341 . S
N215 N214 1.365 . S
N215 H235 0.862 . S
C216 C211 1.501 . S
C216 H217 0.961 . S
C216 H218 0.961 . S
C216 H219 0.960 . S
H217 C216 0.961 . S
H218 C216 0.961 . S
H219 C216 0.960 . S
C220 N221 1.342 . S
C220 C224 1.401 . S
C220 C225 1.499 . S
N221 Co204 1.989 . S
N221 C220 1.342 . S
N221 N222 1.388 . S
N222 Co205 1.993 . S
N222 N221 1.388 . S
N222 C223 1.346 . S
C223 N222 1.346 . S
C223 C224 1.396 . S
C223 C233 1.510 . S
C224 C220 1.401 . S
C224 C223 1.396 . S
C225 C220 1.499 . S
C225 H226 0.959 . S
C225 H227 0.960 . S
C225 H228 0.961 . S
H226 C225 0.959 . S
H227 C225 0.960 . S
H228 C225 0.961 . S
O229 Co204 1.967 . S
O229 C237 1.258 . S
O230 Co205 1.941 . S
O230 C237 1.266 . S
H231 C233 0.959 . S
H232 C233 0.961 . S
C233 C223 1.510 . S
C233 H231 0.959 . S
C233 H232 0.961 . S
C233 H234 0.960 . S
H234 C233 0.960 . S
H235 N215 0.862 . S
O236 Co204 1.920 . S
O236 C209 1.289 . S
C237 O229 1.258 . S
C237 O230 1.266 . S
Co238 O241 1.970 . S
Co238 N255 1.989 . S
Co238 O263 1.967 . S
Co238 O270 1.920 . S
Co239 O242 1.966 . S
Co239 N248 2.022 . S
Co239 N256 1.993 . S
Co239 O264 1.941 . S
C240 O241 1.258 . S
C240 O242 1.263 . S
O241 Co238 1.970 . S
O241 C240 1.258 . S
O242 Co239 1.966 . S
O242 C240 1.263 . S
C243 O244 1.235 . S
C243 O270 1.289 . S
O244 C243 1.235 . S
C245 C247 1.400 . S
C245 N248 1.351 . S
C245 C250 1.501 . S
C246 C247 1.387 . S
C246 N249 1.341 . S
C247 C245 1.400 . S
C247 C246 1.387 . S
N248 Co239 2.022 . S
N248 C245 1.351 . S
N248 N249 1.365 . S
N249 C246 1.341 . S
N249 N248 1.365 . S
N249 H269 0.862 . S
C250 C245 1.501 . S
C250 H251 0.961 . S
C250 H252 0.961 . S
C250 H253 0.960 . S
H251 C250 0.961 . S
H252 C250 0.961 . S
H253 C250 0.960 . S
C254 N255 1.342 . S
C254 C258 1.401 . S
C254 C259 1.499 . S
N255 Co238 1.989 . S
N255 C254 1.342 . S
N255 N256 1.388 . S
N256 Co239 1.993 . S
N256 N255 1.388 . S
N256 C257 1.346 . S
C257 N256 1.346 . S
C257 C258 1.396 . S
C257 C267 1.510 . S
C258 C254 1.401 . S
C258 C257 1.396 . S
C259 C254 1.499 . S
C259 H260 0.959 . S
C259 H261 0.960 . S
C259 H262 0.961 . S
H260 C259 0.959 . S
H261 C259 0.960 . S
H262 C259 0.961 . S
O263 Co238 1.967 . S
O263 C271 1.258 . S
O264 Co239 1.941 . S
O264 C271 1.266 . S
H265 C267 0.959 . S
H266 C267 0.961 . S
C267 C257 1.510 . S
C267 H265 0.959 . S
C267 H266 0.961 . S
C267 H268 0.960 . S
H268 C267 0.960 . S
H269 N249 0.862 . S
O270 Co238 1.920 . S
O270 C243 1.289 . S
C271 O263 1.258 . S
C271 O264 1.266 . S
Co272 O275 1.970 1_655 S
Co272 N289 1.989 . S
Co272 O297 1.967 . S
Co272 O304 1.920 . S
Co273 O276 1.966 1_655 S
Co273 N282 2.022 . S
Co273 N290 1.993 . S
Co273 O298 1.941 . S
C274 O275 1.258 . S
C274 O276 1.263 . S
O275 Co272 1.970 1_455 S
O275 C274 1.258 . S
O276 Co273 1.966 1_455 S
O276 C274 1.263 . S
C277 O278 1.235 . S
C277 O304 1.289 . S
O278 C277 1.235 . S
C279 C281 1.400 . S
C279 N282 1.351 . S
C279 C284 1.501 . S
C280 C281 1.387 . S
C280 N283 1.341 . S
C281 C279 1.400 . S
C281 C280 1.387 . S
N282 Co273 2.022 . S
N282 C279 1.351 . S
N282 N283 1.365 . S
N283 C280 1.341 . S
N283 N282 1.365 . S
N283 H303 0.862 . S
C284 C279 1.501 . S
C284 H285 0.961 1_655 S
C284 H286 0.961 . S
C284 H287 0.960 1_655 S
H285 C284 0.961 1_455 S
H286 C284 0.961 . S
H287 C284 0.960 1_455 S
C288 N289 1.342 . S
C288 C292 1.401 . S
C288 C293 1.499 . S
N289 Co272 1.989 . S
N289 C288 1.342 . S
N289 N290 1.388 . S
N290 Co273 1.993 . S
N290 N289 1.388 . S
N290 C291 1.346 . S
C291 N290 1.346 . S
C291 C292 1.396 . S
C291 C301 1.510 . S
C292 C288 1.401 . S
C292 C291 1.396 . S
C293 C288 1.499 . S
C293 H294 0.959 . S
C293 H295 0.960 . S
C293 H296 0.961 . S
H294 C293 0.959 . S
H295 C293 0.960 . S
H296 C293 0.961 . S
O297 Co272 1.967 . S
O297 C305 1.258 . S
O298 Co273 1.941 . S
O298 C305 1.266 . S
H299 C301 0.959 . S
H300 C301 0.961 . S
C301 C291 1.510 . S
C301 H299 0.959 . S
C301 H300 0.961 . S
C301 H302 0.960 . S
H302 C301 0.960 . S
H303 N283 0.862 . S
O304 Co272 1.920 . S
O304 C277 1.289 . S
C305 O297 1.258 . S
C305 O298 1.266 . S
Co306 O309 1.970 1_565 S
Co306 N323 1.989 . S
Co306 O331 1.967 . S
Co306 O338 1.920 . S
Co307 O310 1.966 1_565 S
Co307 N316 2.022 . S
Co307 N324 1.993 . S
Co307 O332 1.941 . S
C308 O309 1.258 . S
C308 O310 1.263 . S
O309 Co306 1.970 1_545 S
O309 C308 1.258 . S
O310 Co307 1.966 1_545 S
O310 C308 1.263 . S
C311 O312 1.235 . S
C311 O338 1.289 . S
O312 C311 1.235 . S
C313 C315 1.400 . S
C313 N316 1.351 . S
C313 C318 1.501 . S
C314 C315 1.387 . S
C314 N317 1.341 . S
C315 C313 1.400 . S
C315 C314 1.387 . S
N316 Co307 2.022 . S
N316 C313 1.351 . S
N316 N317 1.365 . S
N317 C314 1.341 . S
N317 N316 1.365 . S
N317 H337 0.862 . S
C318 C313 1.501 . S
C318 H319 0.961 1_565 S
C318 H320 0.961 . S
C318 H321 0.960 1_565 S
H319 C318 0.961 1_545 S
H320 C318 0.961 . S
H321 C318 0.960 1_545 S
C322 N323 1.342 . S
C322 C326 1.401 . S
C322 C327 1.499 . S
N323 Co306 1.989 . S
N323 C322 1.342 . S
N323 N324 1.388 . S
N324 Co307 1.993 . S
N324 N323 1.388 . S
N324 C325 1.346 . S
C325 N324 1.346 . S
C325 C326 1.396 . S
C325 C335 1.510 . S
C326 C322 1.401 . S
C326 C325 1.396 . S
C327 C322 1.499 . S
C327 H328 0.959 . S
C327 H329 0.960 . S
C327 H330 0.961 . S
H328 C327 0.959 . S
H329 C327 0.960 . S
H330 C327 0.961 . S
O331 Co306 1.967 . S
O331 C339 1.258 . S
O332 Co307 1.941 . S
O332 C339 1.266 . S
H333 C335 0.959 . S
H334 C335 0.961 . S
C335 C325 1.510 . S
C335 H333 0.959 . S
C335 H334 0.961 . S
C335 H336 0.960 . S
H336 C335 0.960 . S
H337 N317 0.862 . S
O338 Co306 1.920 . S
O338 C311 1.289 . S
C339 O331 1.258 . S
C339 O332 1.266 . S
Co340 O343 1.970 1_455 S
Co340 N357 1.989 . S
Co340 O365 1.967 . S
Co340 O372 1.920 . S
Co341 O344 1.966 1_455 S
Co341 N350 2.022 . S
Co341 N358 1.993 . S
Co341 O366 1.941 . S
C342 O343 1.258 . S
C342 O344 1.263 . S
O343 Co340 1.970 1_655 S
O343 C342 1.258 . S
O344 Co341 1.966 1_655 S
O344 C342 1.263 . S
C345 O346 1.235 . S
C345 O372 1.289 . S
O346 C345 1.235 . S
C347 C349 1.400 . S
C347 N350 1.351 . S
C347 C352 1.501 . S
C348 C349 1.387 . S
C348 N351 1.341 . S
C349 C347 1.400 . S
C349 C348 1.387 . S
N350 Co341 2.022 . S
N350 C347 1.351 . S
N350 N351 1.365 . S
N351 C348 1.341 . S
N351 N350 1.365 . S
N351 H371 0.862 . S
C352 C347 1.501 . S
C352 H353 0.961 1_455 S
C352 H354 0.961 . S
C352 H355 0.960 1_455 S
H353 C352 0.961 1_655 S
H354 C352 0.961 . S
H355 C352 0.960 1_655 S
C356 N357 1.342 . S
C356 C360 1.401 . S
C356 C361 1.499 . S
N357 Co340 1.989 . S
N357 C356 1.342 . S
N357 N358 1.388 . S
N358 Co341 1.993 . S
N358 N357 1.388 . S
N358 C359 1.346 . S
C359 N358 1.346 . S
C359 C360 1.396 . S
C359 C369 1.510 . S
C360 C356 1.401 . S
C360 C359 1.396 . S
C361 C356 1.499 . S
C361 H362 0.959 . S
C361 H363 0.960 . S
C361 H364 0.961 . S
H362 C361 0.959 . S
H363 C361 0.960 . S
H364 C361 0.961 . S
O365 Co340 1.967 . S
O365 C373 1.258 . S
O366 Co341 1.941 . S
O366 C373 1.266 . S
H367 C369 0.959 . S
H368 C369 0.961 . S
C369 C359 1.510 . S
C369 H367 0.959 . S
C369 H368 0.961 . S
C369 H370 0.960 . S
H370 C369 0.960 . S
H371 N351 0.862 . S
O372 Co340 1.920 . S
O372 C345 1.289 . S
C373 O365 1.258 . S
C373 O366 1.266 . S
Co374 O377 1.970 1_545 S
Co374 N391 1.989 . S
Co374 O399 1.967 . S
Co374 O406 1.920 . S
Co375 O378 1.966 1_545 S
Co375 N384 2.022 . S
Co375 N392 1.993 . S
Co375 O400 1.941 . S
C376 O377 1.258 . S
C376 O378 1.263 . S
O377 Co374 1.970 1_565 S
O377 C376 1.258 . S
O378 Co375 1.966 1_565 S
O378 C376 1.263 . S
C379 O380 1.235 . S
C379 O406 1.289 . S
O380 C379 1.235 . S
C381 C383 1.400 . S
C381 N384 1.351 . S
C381 C386 1.501 . S
C382 C383 1.387 . S
C382 N385 1.341 . S
C383 C381 1.400 . S
C383 C382 1.387 . S
N384 Co375 2.022 . S
N384 C381 1.351 . S
N384 N385 1.365 . S
N385 C382 1.341 . S
N385 N384 1.365 . S
N385 H405 0.862 . S
C386 C381 1.501 . S
C386 H387 0.961 1_545 S
C386 H388 0.961 . S
C386 H389 0.960 1_545 S
H387 C386 0.961 1_565 S
H388 C386 0.961 . S
H389 C386 0.960 1_565 S
C390 N391 1.342 . S
C390 C394 1.401 . S
C390 C395 1.499 . S
N391 Co374 1.989 . S
N391 C390 1.342 . S
N391 N392 1.388 . S
N392 Co375 1.993 . S
N392 N391 1.388 . S
N392 C393 1.346 . S
C393 N392 1.346 . S
C393 C394 1.396 . S
C393 C403 1.510 . S
C394 C390 1.401 . S
C394 C393 1.396 . S
C395 C390 1.499 . S
C395 H396 0.959 . S
C395 H397 0.960 . S
C395 H398 0.961 . S
H396 C395 0.959 . S
H397 C395 0.960 . S
H398 C395 0.961 . S
O399 Co374 1.967 . S
O399 C407 1.258 . S
O400 Co375 1.941 . S
O400 C407 1.266 . S
H401 C403 0.959 . S
H402 C403 0.961 . S
C403 C393 1.510 . S
C403 H401 0.959 . S
C403 H402 0.961 . S
C403 H404 0.960 . S
H404 C403 0.960 . S
H405 N385 0.862 . S
O406 Co374 1.920 . S
O406 C379 1.289 . S
C407 O399 1.258 . S
C407 O400 1.266 . S
Co408 O411 1.970 . S
Co408 N425 1.989 . S
Co408 O433 1.967 . S
Co408 O440 1.920 . S
Co409 O412 1.966 . S
Co409 N418 2.022 . S
Co409 N426 1.993 . S
Co409 O434 1.941 . S
C410 O411 1.258 . S
C410 O412 1.263 . S
O411 Co408 1.970 . S
O411 C410 1.258 . S
O412 Co409 1.966 . S
O412 C410 1.263 . S
C413 O414 1.235 . S
C413 O440 1.289 . S
O414 C413 1.235 . S
C415 C417 1.400 . S
C415 N418 1.351 . S
C415 C420 1.501 . S
C416 C417 1.387 . S
C416 N419 1.341 . S
C417 C415 1.400 . S
C417 C416 1.387 . S
N418 Co409 2.022 . S
N418 C415 1.351 . S
N418 N419 1.365 . S
N419 C416 1.341 . S
N419 N418 1.365 . S
N419 H439 0.862 . S
C420 C415 1.501 . S
C420 H421 0.961 . S
C420 H422 0.961 . S
C420 H423 0.960 . S
H421 C420 0.961 . S
H422 C420 0.961 . S
H423 C420 0.960 . S
C424 N425 1.342 . S
C424 C428 1.401 . S
C424 C429 1.499 . S
N425 Co408 1.989 . S
N425 C424 1.342 . S
N425 N426 1.388 . S
N426 Co409 1.993 . S
N426 N425 1.388 . S
N426 C427 1.346 . S
C427 N426 1.346 . S
C427 C428 1.396 . S
C427 C437 1.510 . S
C428 C424 1.401 . S
C428 C427 1.396 . S
C429 C424 1.499 . S
C429 H430 0.959 . S
C429 H431 0.960 . S
C429 H432 0.961 . S
H430 C429 0.959 . S
H431 C429 0.960 . S
H432 C429 0.961 . S
O433 Co408 1.967 . S
O433 C441 1.258 . S
O434 Co409 1.941 . S
O434 C441 1.266 . S
H435 C437 0.959 . S
H436 C437 0.961 . S
C437 C427 1.510 . S
C437 H435 0.959 . S
C437 H436 0.961 . S
C437 H438 0.960 . S
H438 C437 0.960 . S
H439 N419 0.862 . S
O440 Co408 1.920 . S
O440 C413 1.289 . S
C441 O433 1.258 . S
C441 O434 1.266 . S
Co442 O445 1.970 . S
Co442 N459 1.989 . S
Co442 O467 1.967 . S
Co442 O474 1.920 . S
Co443 O446 1.966 . S
Co443 N452 2.022 . S
Co443 N460 1.993 . S
Co443 O468 1.941 . S
C444 O445 1.258 . S
C444 O446 1.263 . S
O445 Co442 1.970 . S
O445 C444 1.258 . S
O446 Co443 1.966 . S
O446 C444 1.263 . S
C447 O448 1.235 . S
C447 O474 1.289 . S
O448 C447 1.235 . S
C449 C451 1.400 . S
C449 N452 1.351 . S
C449 C454 1.501 . S
C450 C451 1.387 . S
C450 N453 1.341 . S
C451 C449 1.400 . S
C451 C450 1.387 . S
N452 Co443 2.022 . S
N452 C449 1.351 . S
N452 N453 1.365 . S
N453 C450 1.341 . S
N453 N452 1.365 . S
N453 H473 0.862 . S
C454 C449 1.501 . S
C454 H455 0.961 . S
C454 H456 0.961 . S
C454 H457 0.960 . S
H455 C454 0.961 . S
H456 C454 0.961 . S
H457 C454 0.960 . S
C458 N459 1.342 . S
C458 C462 1.401 . S
C458 C463 1.499 . S
N459 Co442 1.989 . S
N459 C458 1.342 . S
N459 N460 1.388 . S
N460 Co443 1.993 . S
N460 N459 1.388 . S
N460 C461 1.346 . S
C461 N460 1.346 . S
C461 C462 1.396 . S
C461 C471 1.510 . S
C462 C458 1.401 . S
C462 C461 1.396 . S
C463 C458 1.499 . S
C463 H464 0.959 . S
C463 H465 0.960 . S
C463 H466 0.961 . S
H464 C463 0.959 . S
H465 C463 0.960 . S
H466 C463 0.961 . S
O467 Co442 1.967 . S
O467 C475 1.258 . S
O468 Co443 1.941 . S
O468 C475 1.266 . S
H469 C471 0.959 . S
H470 C471 0.961 . S
C471 C461 1.510 . S
C471 H469 0.959 . S
C471 H470 0.961 . S
C471 H472 0.960 . S
H472 C471 0.960 . S
H473 N453 0.862 . S
O474 Co442 1.920 . S
O474 C447 1.289 . S
C475 O467 1.258 . S
C475 O468 1.266 . S
Co476 O479 1.970 . S
Co476 N493 1.989 . S
Co476 O501 1.967 . S
Co476 O508 1.920 . S
Co477 O480 1.966 . S
Co477 N486 2.022 . S
Co477 N494 1.993 . S
Co477 O502 1.941 . S
C478 O479 1.258 . S
C478 O480 1.263 . S
O479 Co476 1.970 . S
O479 C478 1.258 . S
O480 Co477 1.966 . S
O480 C478 1.263 . S
C481 O482 1.235 . S
C481 O508 1.289 . S
O482 C481 1.235 . S
C483 C485 1.400 . S
C483 N486 1.351 . S
C483 C488 1.501 . S
C484 C485 1.387 . S
C484 N487 1.341 . S
C485 C483 1.400 . S
C485 C484 1.387 . S
N486 Co477 2.022 . S
N486 C483 1.351 . S
N486 N487 1.365 . S
N487 C484 1.341 . S
N487 N486 1.365 . S
N487 H507 0.862 . S
C488 C483 1.501 . S
C488 H489 0.961 . S
C488 H490 0.961 . S
C488 H491 0.960 . S
H489 C488 0.961 . S
H490 C488 0.961 . S
H491 C488 0.960 . S
C492 N493 1.342 . S
C492 C496 1.401 . S
C492 C497 1.499 . S
N493 Co476 1.989 . S
N493 C492 1.342 . S
N493 N494 1.388 . S
N494 Co477 1.993 . S
N494 N493 1.388 . S
N494 C495 1.346 . S
C495 N494 1.346 . S
C495 C496 1.396 . S
C495 C505 1.510 . S
C496 C492 1.401 . S
C496 C495 1.396 . S
C497 C492 1.499 . S
C497 H498 0.959 . S
C497 H499 0.960 . S
C497 H500 0.961 . S
H498 C497 0.959 . S
H499 C497 0.960 . S
H500 C497 0.961 . S
O501 Co476 1.967 . S
O501 C509 1.258 . S
O502 Co477 1.941 . S
O502 C509 1.266 . S
H503 C505 0.959 . S
H504 C505 0.961 . S
C505 C495 1.510 . S
C505 H503 0.959 . S
C505 H504 0.961 . S
C505 H506 0.960 . S
H506 C505 0.960 . S
H507 N487 0.862 . S
O508 Co476 1.920 . S
O508 C481 1.289 . S
C509 O501 1.258 . S
C509 O502 1.266 . S
Co510 O513 1.970 . S
Co510 N527 1.989 . S
Co510 O535 1.967 . S
Co510 O542 1.920 . S
Co511 O514 1.966 . S
Co511 N520 2.022 . S
Co511 N528 1.993 . S
Co511 O536 1.941 . S
C512 O513 1.258 . S
C512 O514 1.263 . S
O513 Co510 1.970 . S
O513 C512 1.258 . S
O514 Co511 1.966 . S
O514 C512 1.263 . S
C515 O516 1.235 . S
C515 O542 1.289 . S
O516 C515 1.235 . S
C517 C519 1.400 . S
C517 N520 1.351 . S
C517 C522 1.501 . S
C518 C519 1.387 . S
C518 N521 1.341 . S
C519 C517 1.400 . S
C519 C518 1.387 . S
N520 Co511 2.022 . S
N520 C517 1.351 . S
N520 N521 1.365 . S
N521 C518 1.341 . S
N521 N520 1.365 . S
N521 H541 0.862 . S
C522 C517 1.501 . S
C522 H523 0.961 . S
C522 H524 0.961 . S
C522 H525 0.960 . S
H523 C522 0.961 . S
H524 C522 0.961 . S
H525 C522 0.960 . S
C526 N527 1.342 . S
C526 C530 1.401 . S
C526 C531 1.499 . S
N527 Co510 1.989 . S
N527 C526 1.342 . S
N527 N528 1.388 . S
N528 Co511 1.993 . S
N528 N527 1.388 . S
N528 C529 1.346 . S
C529 N528 1.346 . S
C529 C530 1.396 . S
C529 C539 1.510 . S
C530 C526 1.401 . S
C530 C529 1.396 . S
C531 C526 1.499 . S
C531 H532 0.959 . S
C531 H533 0.960 . S
C531 H534 0.961 . S
H532 C531 0.959 . S
H533 C531 0.960 . S
H534 C531 0.961 . S
O535 Co510 1.967 . S
O535 C543 1.258 . S
O536 Co511 1.941 . S
O536 C543 1.266 . S
H537 C539 0.959 . S
H538 C539 0.961 . S
C539 C529 1.510 . S
C539 H537 0.959 . S
C539 H538 0.961 . S
C539 H540 0.960 . S
H540 C539 0.960 . S
H541 N521 0.862 . S
O542 Co510 1.920 . S
O542 C515 1.289 . S
C543 O535 1.258 . S
C543 O536 1.266 . S
C5 C243 2.621 . S
C141 C39 2.621 . S
C175 C73 2.621 . S
C209 C107 2.621 . S
C277 C515 2.621 . S
C311 C413 2.621 . S
C447 C345 2.621 . S
C379 C481 2.621 . S
C9 C349 1.293 1_554 S
C383 C43 1.293 . S
C281 C77 1.293 1_556 S
C315 C111 1.293 . S
C485 C145 1.293 1_554 S
C519 C179 1.293 . S
C417 C213 1.293 1_554 S
C451 C247 1.293 . S
C33 C101 1.228 1_455 S
C135 C67 1.228 1_565 S
C237 C169 1.228 1_565 S
C271 C203 1.228 1_455 S
C305 C373 1.228 1_655 S
C407 C339 1.228 1_545 S
C441 C509 1.228 1_565 S
C475 C543 1.228 1_455 S
C478 C20 1.442 . S
C54 C512 1.442 . S
C410 C88 1.442 . S
C444 C122 1.442 . S
C342 C156 1.442 . S
C190 C376 1.442 . S
C274 C224 1.442 . S
C258 C308 1.442 . S
C206 C292 1.442 . S
C240 C326 1.442 . S
C138 C360 1.442 . S
C394 C172 1.442 . S
C70 C428 1.442 . S
C462 C104 1.442 . S
C496 C2 1.442 . S
C36 C530 1.442 . S
