# Generated by pormake.
# Topology kag, (6)-cn, num edge types: 1
# Building blocks:
#     Node 0, Type 0, BuildingBlock: UKALOJ_clean_sbu_0, # of connection points: 6
#     Node 1, Type 0, BuildingBlock: UKALOJ_clean_sbu_0, # of connection points: 6
#     Node 2, Type 0, BuildingBlock: UKALOJ_clean_sbu_0, # of connection points: 6
#     Edge 3, Type (0, 0), BuildingBlock: FUNLAD_clean_linker_1, # of connection points: 2
#     Edge 4, Type (0, 0), BuildingBlock: FUNLAD_clean_linker_1, # of connection points: 2
#     Edge 5, Type (0, 0), BuildingBlock: FUNLAD_clean_linker_1, # of connection points: 2
#     Edge 6, Type (0, 0), BuildingBlock: FUNLAD_clean_linker_1, # of connection points: 2
#     Edge 7, Type (0, 0), BuildingBlock: FUNLAD_clean_linker_1, # of connection points: 2
#     Edge 8, Type (0, 0), BuildingBlock: FUNLAD_clean_linker_1, # of connection points: 2
#     Edge 9, Type (0, 0), BuildingBlock: FUNLAD_clean_linker_1, # of connection points: 2
#     Edge 10, Type (0, 0), BuildingBlock: FUNLAD_clean_linker_1, # of connection points: 2
#     Edge 11, Type (0, 0), BuildingBlock: FUNLAD_clean_linker_1, # of connection points: 2
# Relax obj value: 0.126
# Max RMSD: 0.168
# Mean RMSD: 0.168
data_MOF--net-kag--node1-UKALOJ_clean_sbu_0--edge1-FUNLAD_clean_linker_1
_symmetry_space_group_name_H-M    P1
_symmetry_Int_Tables_number       1
_symmetry_cell_setting            triclinic
loop_
_symmetry_equiv_pos_as_xyz
'x, y, z'
_cell_length_a     30.127032
_cell_length_b     29.956829
_cell_length_c     20.958873
_cell_angle_alpha  90.468756
_cell_angle_beta   90.15989
_cell_angle_gamma 119.70934
loop_
_atom_site_label
_atom_site_type_symbol
_atom_site_fract_x
_atom_site_fract_y
_atom_site_fract_z
_atom_type_partial_charge
Zn0 Zn -0.00544 0.45566 0.91068 0.0
O1 O 0.0418 0.5358 0.90207 0.0
C2 C 0.08059 0.43988 0.94842 0.0
Zn3 Zn 0.00761 0.46214 1.01558 0.0
C4 C 0.0671 0.5619 0.95034 0.0
O5 O 0.06201 0.54031 1.00382 0.0
C6 C 0.933 0.35626 0.976 0.0
O7 O 0.95103 0.48229 0.02716 0.0
O8 O 0.93154 0.46781 0.92515 0.0
N9 N 0.02254 0.46972 0.11146 0.0
C10 C -0.00777 0.45463 0.16325 0.0
C11 C 0.06935 0.49277 0.19667 0.0
N12 N 0.07042 0.49341 0.13244 0.0
N13 N 0.02066 0.46863 0.21721 0.0
C14 C 0.0097 0.46516 0.76294 0.0
C15 C 0.93284 0.42175 0.72943 0.0
N16 N 0.97953 0.4478 0.81471 0.0
N17 N 0.93179 0.42087 0.79367 0.0
N18 N 0.98137 0.4493 0.70893 0.0
H19 H 0.08147 0.51075 0.81376 0.0
H20 H 0.07891 0.53165 0.73394 0.0
H21 H 0.08385 0.47508 0.74528 0.0
C22 C 0.06677 0.49766 0.76482 0.0
C23 C 0.93493 0.42622 0.16155 0.0
H24 H 0.92081 0.45032 0.18443 0.0
H25 H 0.92033 0.39048 0.18966 0.0
H26 H 0.91948 0.41625 0.11244 0.0
O27 O 0.95302 0.38402 0.02542 0.0
O28 O 0.94584 0.37591 0.92105 0.0
C29 C 0.92344 0.48029 0.98017 0.0
O30 O 0.05872 0.44415 0.89874 0.0
O31 O 0.06449 0.44324 1.00311 0.0
Zn32 Zn 0.46942 0.01584 0.93425 0.0
O33 O 0.49483 0.96214 0.93668 0.0
C34 C 0.3649 0.93121 0.95888 0.0
Zn35 Zn 0.45333 0.00373 0.03884 0.0
C36 C 0.49463 0.9395 0.98763 0.0
O37 O 0.47857 0.94904 0.03922 0.0
C38 C 0.43027 0.08185 0.98565 0.0
O39 O 0.52794 0.06316 0.05955 0.0
O40 O 0.54405 0.07494 0.95692 0.0
N41 N 0.43628 0.99345 0.13423 0.0
C42 C 0.46433 -0.00269 0.18645 0.0
C43 C 0.3919 0.98412 0.2188 0.0
N44 N 0.39118 0.98496 0.15455 0.0
N45 N 0.43753 0.99202 0.24012 0.0
C46 C 0.45761 0.02155 0.78687 0.0
C47 C 0.53011 0.03555 0.75371 0.0
N48 N 0.4862 0.02604 0.83878 0.0
N49 N 0.53133 0.03503 0.81797 0.0
N50 N 0.4841 0.02695 0.7329 0.0
H51 H 0.37757 0.969 0.77729 0.0
H52 H 0.39685 0.03325 0.75252 0.0
H53 H 0.39347 0.01896 0.8364 0.0
C54 C 0.4033 0.01027 0.78881 0.0
C55 C 0.5184 0.00779 0.18511 0.0
H56 H 0.52825 -0.00131 0.13779 0.0
H57 H 0.52427 0.98467 0.22178 0.0
H58 H 0.54452 0.04902 0.19643 0.0
O59 O 0.42924 0.0585 0.03645 0.0
O60 O 0.44449 0.07078 0.93373 0.0
C61 C 0.55868 0.08658 1.01464 0.0
O62 O 0.3954 0.955 0.91389 0.0
O63 O 0.3788 0.94454 0.01646 0.0
Zn64 Zn 0.54455 0.55411 0.1408 0.0
O65 O 0.52044 0.47509 0.1527 0.0
C66 C 0.64452 0.57049 0.09449 0.0
Zn67 Zn 0.54691 0.54849 0.03488 0.0
C68 C 0.51262 0.44845 0.10217 0.0
O69 O 0.52053 0.46987 0.04816 0.0
C70 C 0.57722 0.65369 0.07299 0.0
O71 O 0.47174 0.53296 0.02985 0.0
O72 O 0.46692 0.53675 0.1343 0.0
N73 N 0.54699 0.53636 0.93886 0.0
C74 C 0.53649 0.55638 0.88741 0.0
C75 C 0.55411 0.49974 0.85352 0.0
N76 N 0.55783 0.50113 0.91758 0.0
N77 N 0.54063 0.53399 0.83336 0.0
C78 C 0.52008 0.53787 0.28681 0.0
C79 C 0.57723 0.6101 0.32433 0.0
N80 N 0.54676 0.56683 0.23696 0.0
N81 N 0.58204 0.61176 0.26049 0.0
N82 N 0.5386 0.56408 0.34224 0.0
H83 H 0.45734 0.47745 0.23386 0.0
H84 H 0.44793 0.47619 0.31913 0.0
H85 H 0.49101 0.45681 0.28644 0.0
C86 C 0.47633 0.48402 0.28109 0.0
C87 C 0.52104 0.59681 0.89007 0.0
H88 H 0.50305 0.59621 0.93627 0.0
H89 H 0.49396 0.59112 0.85069 0.0
H90 H 0.55554 0.63507 0.88433 0.0
O91 O 0.57278 0.6274 0.02306 0.0
O92 O 0.56841 0.6326 0.12721 0.0
C93 C 0.44622 0.52971 0.0794 0.0
O94 O 0.62169 0.57068 0.14523 0.0
O95 O 0.62198 0.56297 0.04095 0.0
H96 H 0.03955 0.47944 0.63456 0.0
C97 C -0.00125 0.45892 0.64389 0.0
H98 H 0.92489 0.42145 0.6025 0.0
H99 H 0.06862 0.56746 0.36516 0.0
H100 H 0.08328 0.6401 0.43188 0.0
H101 H 0.05136 0.62729 0.54225 0.0
H102 H 0.00496 0.54189 0.5867 0.0
C103 C 0.96579 0.44324 0.59436 0.0
C104 C 0.9838 0.45146 0.52718 0.0
C105 C 0.01032 0.50174 0.50173 0.0
C106 C 0.02794 0.50906 0.43771 0.0
C107 C 0.05443 0.55966 0.4135 0.0
C108 C 0.063 0.60172 0.45121 0.0
C109 C 0.04509 0.59452 0.51337 0.0
C110 C 0.01882 0.54523 0.53847 0.0
H111 H 0.96246 0.44047 0.29158 0.0
C112 C 0.00324 0.4597 0.28224 0.0
H113 H 0.07708 0.49485 0.32371 0.0
H114 H 0.93346 0.35004 0.56088 0.0
H115 H 0.91855 0.27743 0.49397 0.0
H116 H 0.95 0.29025 0.38337 0.0
H117 H -0.00372 0.37568 0.33894 0.0
C118 C 0.03613 0.47426 0.33175 0.0
C119 C 0.01802 0.4661 0.39885 0.0
C120 C -0.0086 0.41582 0.42422 0.0
C121 C 0.97388 0.40849 0.48828 0.0
C122 C 0.94748 0.35788 0.51248 0.0
C123 C 0.93878 0.31581 0.47465 0.0
C124 C 0.95643 0.32303 0.41237 0.0
C125 C 0.98267 0.37233 0.3873 0.0
H126 H 0.49336 0.0055 0.3156 0.0
C127 C 0.45476 -0.00227 0.30551 0.0
H128 H 0.38588 0.98674 0.34582 0.0
H129 H 0.42927 0.92582 0.61796 0.0
H130 H 0.36227 0.84339 0.57869 0.0
H131 H 0.33135 0.83282 0.46748 0.0
H132 H 0.36757 0.90465 0.39474 0.0
C133 C 0.42499 -0.00438 0.35446 0.0
C134 C 0.44327 0.0028 0.42192 0.0
C135 C 0.42097 0.96072 0.46428 0.0
C136 C 0.43824 0.96705 0.52875 0.0
C137 C 0.41669 0.92373 0.56912 0.0
C138 C 0.37839 0.876 0.54705 0.0
C139 C 0.36103 0.87004 0.48443 0.0
C140 C 0.38207 0.91166 0.44323 0.0
H141 H 0.42767 0.0131 0.65807 0.0
C142 C 0.46635 0.02092 0.66771 0.0
H143 H 0.53494 0.03185 0.62661 0.0
H144 H 0.49084 0.09283 0.35519 0.0
H145 H 0.5576 0.17536 0.39455 0.0
H146 H 0.58853 0.18595 0.50576 0.0
H147 H 0.55256 0.11405 0.5784 0.0
C148 C 0.49577 0.02291 0.61841 0.0
C149 C 0.47713 0.01581 0.55112 0.0
C150 C 0.4993 0.05792 0.50881 0.0
C151 C 0.48203 0.05159 0.44434 0.0
C152 C 0.50345 0.09494 0.40402 0.0
C153 C 0.5416 0.14272 0.42614 0.0
C154 C 0.55897 0.1487 0.48876 0.0
C155 C 0.53808 0.10703 0.5299 0.0
H156 H 0.53913 0.58288 0.75748 0.0
C157 C 0.53568 0.54586 0.76824 0.0
H158 H 0.52549 0.47584 0.73104 0.0
H159 H 0.46639 0.58075 0.48698 0.0
H160 H 0.39687 0.57386 0.55244 0.0
H161 H 0.38689 0.54357 0.66338 0.0
H162 H 0.44658 0.52063 0.70984 0.0
C163 C 0.52857 0.5127 0.72045 0.0
C164 C 0.53133 0.52725 0.65226 0.0
C165 C 0.49501 0.53897 0.62542 0.0
C166 C 0.49986 0.55502 0.56087 0.0
C167 C 0.46407 0.56786 0.53557 0.0
C168 C 0.42399 0.56401 0.57257 0.0
C169 C 0.41844 0.54705 0.63508 0.0
C170 C 0.45325 0.5344 0.66135 0.0
H171 H 0.49791 0.50578 0.41485 0.0
C172 C 0.52488 0.54612 0.40664 0.0
H173 H 0.57507 0.61788 0.44998 0.0
H174 H 0.60672 0.50608 0.68803 0.0
H175 H 0.67375 0.50981 0.62098 0.0
H176 H 0.68046 0.53539 0.5083 0.0
H177 H 0.62013 0.55757 0.46213 0.0
C178 C 0.54734 0.57763 0.45693 0.0
C179 C 0.54003 0.55792 0.523 0.0
C180 C 0.5752 0.5445 0.54906 0.0
C181 C 0.57094 0.52922 0.61378 0.0
C182 C 0.60744 0.51716 0.6389 0.0
C183 C 0.64634 0.51932 0.60098 0.0
C184 C 0.65015 0.53377 0.53758 0.0
C185 C 0.61524 0.54641 0.5117 0.0
H186 H 0.14697 0.44468 0.89736 0.0
C187 C 0.12883 0.43888 0.94364 0.0
H188 H 0.13683 0.43558 0.04343 0.0
H189 H 0.33875 0.41774 0.97174 0.0
H190 H 0.27926 0.33158 0.93364 0.0
H191 H 0.18713 0.30213 0.92391 0.0
H192 H 0.15397 0.35882 0.95229 0.0
C193 C 0.15408 0.43942 0.99685 0.0
C194 C 0.20955 0.4578 0.99648 0.0
C195 C 0.22814 0.4244 0.979 0.0
C196 C 0.28118 0.44145 0.98458 0.0
C197 C 0.29884 0.407 0.96795 0.0
C198 C 0.26509 0.35737 0.94616 0.0
C199 C 0.21321 0.34078 0.94071 0.0
C200 C 0.19469 0.37369 0.95705 0.0
H201 H 0.37068 0.51276 0.11569 0.0
C202 C 0.39252 0.51667 0.07285 0.0
H203 H 0.39126 0.5109 0.97205 0.0
H204 H 0.18611 0.53248 0.02989 0.0
H205 H 0.24577 0.61949 0.06478 0.0
H206 H 0.33803 0.64946 0.0732 0.0
H207 H 0.37114 0.5926 0.0467 0.0
C208 C 0.37017 0.50857 1.01508 0.0
C209 C 0.31518 0.49174 1.00784 0.0
C210 C 0.29676 0.5258 0.02315 0.0
C211 C 0.24373 0.50866 0.01778 0.0
C212 C 0.22607 0.54334 0.03339 0.0
C213 C 0.2599 0.59349 0.05331 0.0
C214 C 0.31184 0.61036 0.05805 0.0
C215 C 0.33029 0.57716 0.04305 0.0
H216 H 0.62104 0.13897 0.07935 0.0
C217 C 0.61144 0.12581 0.03011 0.0
H218 H 0.63973 0.12893 0.93707 0.0
H219 H 0.82415 0.35046 0.04259 0.0
H220 H 0.76227 0.37915 0.03031 0.0
H221 H 0.67182 0.31736 1.00676 0.0
H222 H 0.64273 0.22639 0.9944 0.0
C223 C 0.64806 0.14354 0.98583 0.0
C224 C 0.70175 0.1804 1.00316 0.0
C225 C 0.71761 0.23316 1.01188 0.0
C226 C 0.7697 0.26872 0.02548 0.0
C227 C 0.78497 0.32156 0.03243 0.0
C228 C 0.74982 0.33863 0.02572 0.0
C229 C 0.69889 0.30383 1.01235 0.0
C230 C 0.68272 0.25168 1.00545 0.0
H231 H 0.87315 0.28234 0.93751 0.0
C232 C 0.88872 0.30445 0.98137 0.0
H233 H 0.87401 0.31333 0.07774 0.0
H234 H 0.68282 0.08129 0.9921 0.0
H235 H 0.74503 0.05257 1.00276 0.0
H236 H 0.83565 0.11453 0.02614 0.0
H237 H 0.86455 0.20567 0.03931 0.0
C238 C 0.86069 0.28976 0.03466 0.0
C239 C 0.80567 0.2513 0.02957 0.0
C240 C 0.78954 0.19841 0.02252 0.0
C241 C 0.7374 0.16282 1.00914 0.0
C242 C 0.7221 0.11005 1.00207 0.0
C243 C 0.75739 0.09306 1.00814 0.0
C244 C 0.80842 0.12795 0.02131 0.0
C245 C 0.82454 0.18009 0.02851 0.0
H246 H 0.52079 0.89171 0.93859 0.0
C247 C 0.51207 0.90167 0.98513 0.0
H248 H 0.51027 0.88928 0.0846 0.0
H249 H 0.4886 0.67357 0.96899 0.0
H250 H 0.40174 0.65232 0.94435 0.0
H251 H 0.37332 0.71586 0.96098 0.0
H252 H 0.43211 0.80148 1.00122 0.0
C253 C 0.51709 0.87897 0.03727 0.0
C254 C 0.53338 0.8399 0.03091 0.0
C255 C 0.49835 0.78991 1.00786 0.0
C256 C 0.51455 0.75312 0.99917 0.0
C257 C 0.47865 0.7033 0.97632 0.0
C258 C 0.42848 0.69043 0.96216 0.0
C259 C 0.41253 0.72625 0.97134 0.0
C260 C 0.44679 0.77537 0.99416 0.0
H261 H 0.58547 0.72515 0.11349 0.0
C262 C 0.5845 0.70583 0.06889 0.0
H263 H 0.57585 0.70505 0.96896 0.0
H264 H 0.60992 0.93274 0.0748 0.0
H265 H 0.69769 0.95494 0.09727 0.0
H266 H 0.72602 0.89118 0.08159 0.0
H267 H 0.66674 0.80482 0.04317 0.0
C268 C 0.57965 0.7253 1.01365 0.0
C269 C 0.56548 0.76621 1.0148 0.0
C270 C 0.60069 0.81647 0.03686 0.0
C271 C 0.58449 0.85332 0.0453 0.0
C272 C 0.6203 0.90329 0.06746 0.0
C273 C 0.67076 0.91652 0.08052 0.0
C274 C 0.6867 0.8806 0.07175 0.0
C275 C 0.65226 0.83112 0.05007 0.0
H276 H 0.85919 0.49029 0.9482 0.0
C277 C 0.88345 0.49416 0.98879 0.0
H278 H 0.90103 0.51652 0.08585 0.0
H279 H 0.77474 0.63285 0.98305 0.0
H280 H 0.85148 0.68659 0.92273 0.0
H281 H 0.92353 0.66935 0.92226 0.0
H282 H 0.91913 0.59814 0.98175 0.0
C283 C 0.87773 0.51319 0.04445 0.0
C284 C 0.83794 0.52814 0.05166 0.0
C285 C 0.84172 0.57057 0.01766 0.0
C286 C 0.80058 0.58092 0.01868 0.0
C287 C 0.80489 0.62314 0.98369 0.0
C288 C 0.84878 0.65441 0.94908 0.0
C289 C 0.88931 0.64468 0.94875 0.0
C290 C 0.88613 0.60343 0.98273 0.0
H291 H 0.71398 0.58119 0.14424 0.0
C292 C 0.69418 0.57249 0.09849 0.0
H293 H 0.6918 0.54783 1.00309 0.0
H294 H 0.82216 0.44814 0.12849 0.0
H295 H 0.74632 0.39526 0.19052 0.0
H296 H 0.67349 0.41125 0.18982 0.0
H297 H 0.67585 0.4797 0.127 0.0
C298 C 0.71137 0.55678 0.04901 0.0
C299 C 0.75627 0.54931 0.05444 0.0
C300 C 0.75348 0.50821 0.09084 0.0
C301 C 0.79494 0.49827 0.0903 0.0
C302 C 0.79161 0.45726 0.12708 0.0
C303 C 0.74828 0.42653 0.16283 0.0
C304 C 0.7073 0.43553 0.16242 0.0
C305 C 0.7094 0.47543 0.12646 0.0
H306 H 0.08348 0.63981 0.92685 0.0
C307 C 0.09996 0.61745 0.94547 0.0
H308 H 0.16424 0.61682 0.98301 0.0
H309 H 0.23104 0.85542 0.87889 0.0
H310 H 0.19343 0.81651 0.77627 0.0
H311 H 0.1547 0.72289 0.75913 0.0
H312 H 0.15087 0.66763 0.84523 0.0
C313 C 0.14878 0.64033 0.96502 0.0
C314 C 0.18081 0.69726 0.97003 0.0
C315 C 0.18713 0.72913 0.91705 0.0
C316 C 0.21425 0.78343 0.92479 0.0
C317 C 0.21428 0.8142 0.87384 0.0
C318 C 0.19245 0.79233 0.81497 0.0
C319 C 0.17035 0.73963 0.80547 0.0
C320 C 0.16777 0.70823 0.85565 0.0
H321 H 0.31762 0.86177 0.90237 0.0
C322 C 0.31779 0.88304 0.94472 0.0
H323 H 0.27998 0.88368 0.02838 0.0
H324 H 0.1727 0.64795 0.08324 0.0
H325 H 0.21727 0.68698 0.18185 0.0
H326 H 0.27505 0.7806 0.19035 0.0
H327 H 0.28747 0.83566 0.10096 0.0
C328 C 0.27922 0.86177 0.98643 0.0
C329 C 0.24109 0.80587 0.98255 0.0
C330 C 0.23575 0.77404 0.0352 0.0
C331 C 0.20438 0.7198 0.02942 0.0
C332 C 0.19753 0.68916 0.08379 0.0
C333 C 0.22273 0.71109 0.14107 0.0
C334 C 0.25512 0.76376 0.14589 0.0
C335 C 0.26174 0.79503 0.09388 0.0
H336 H 0.49172 0.37596 0.15227 0.0
C337 C 0.49501 0.39311 0.10577 0.0
H338 H 0.48518 0.38042 1.006 0.0
H339 H 0.51301 0.18314 0.08205 0.0
H340 H 0.60067 0.24647 0.10743 0.0
H341 H 0.62869 0.33894 0.10743 0.0
H342 H 0.56903 0.36878 0.08353 0.0
C343 C 0.48374 0.36405 0.05256 0.0
C344 C 0.46694 0.30848 0.0546 0.0
C345 C 0.50255 0.29202 0.06914 0.0
C346 C 0.48669 0.23878 0.06767 0.0
C347 C 0.52294 0.22316 0.0822 0.0
C348 C 0.57347 0.25911 0.0968 0.0
C349 C 0.5892 0.31119 0.09702 0.0
C350 C 0.55441 0.32773 0.08337 0.0
H351 H 0.42849 0.14865 0.94532 0.0
C352 C 0.42334 0.12711 0.98882 0.0
H353 H 0.41866 0.12766 0.0894 0.0
H354 H 0.38933 0.32747 0.02451 0.0
H355 H 0.30223 0.264 0.99553 0.0
H356 H 0.27522 0.17161 0.99159 0.0
H357 H 0.33526 0.14214 0.01669 0.0
C358 C 0.42095 0.14741 0.04521 0.0
C359 C 0.43573 0.20241 0.0501 0.0
C360 C 0.40023 0.2188 0.03548 0.0
C361 C 0.41586 0.272 0.03774 0.0
C362 C 0.37959 0.28751 0.02311 0.0
C363 C 0.32946 0.25148 1.00655 0.0
C364 C 0.31425 0.19945 1.00434 0.0
C365 C 0.34905 0.18306 0.0187 0.0
loop_
_geom_bond_atom_site_label_1
_geom_bond_atom_site_label_2
_geom_bond_distance
_geom_bond_site_symmetry_2
_ccdc_geom_bond_type
Zn0 O1 2.055 . S
Zn0 O8 2.046 1_455 S
Zn0 N16 2.036 . S
Zn0 O28 2.053 1_455 S
Zn0 O30 2.066 . S
O1 Zn0 2.055 . S
O1 C4 1.259 . S
C2 O30 1.256 . S
C2 O31 1.244 1_556 S
Zn3 O5 2.046 . S
Zn3 O7 2.055 1_455 S
Zn3 N9 2.036 . S
Zn3 O27 2.066 1_455 S
Zn3 O31 2.053 . S
C4 O1 1.259 . S
C4 O5 1.254 1_556 S
O5 Zn3 2.046 . S
O5 C4 1.254 1_554 S
C6 O27 1.256 . S
C6 O28 1.244 1_554 S
O7 Zn3 2.055 1_655 S
O7 C29 1.259 . S
O8 Zn0 2.046 1_655 S
O8 C29 1.254 1_556 S
N9 Zn3 2.036 . S
N9 C10 1.298 1_455 S
N9 N12 1.398 . S
C10 N9 1.298 1_655 S
C10 N13 1.367 1_655 S
C10 C23 1.481 . S
C11 N12 1.299 . S
C11 N13 1.379 . S
N12 N9 1.398 . S
N12 C11 1.299 . S
N13 C10 1.367 1_455 S
N13 C11 1.379 . S
C14 N16 1.298 . S
C14 N18 1.367 . S
C14 C22 1.481 . S
C15 N17 1.299 . S
C15 N18 1.379 1_655 S
N16 Zn0 2.036 . S
N16 C14 1.298 . S
N16 N17 1.398 1_455 S
N17 C15 1.299 . S
N17 N16 1.398 1_655 S
N18 C14 1.367 . S
N18 C15 1.379 1_455 S
H19 C22 0.980 . S
H20 C22 0.981 . S
H21 C22 0.981 . S
C22 C14 1.481 . S
C22 H19 0.980 . S
C22 H20 0.981 . S
C22 H21 0.981 . S
C23 C10 1.481 . S
C23 H24 0.980 . S
C23 H25 0.981 . S
C23 H26 0.981 . S
H24 C23 0.980 . S
H25 C23 0.981 . S
H26 C23 0.981 . S
O27 Zn3 2.066 1_655 S
O27 C6 1.256 . S
O28 Zn0 2.053 1_655 S
O28 C6 1.244 1_556 S
C29 O7 1.259 . S
C29 O8 1.254 1_554 S
O30 Zn0 2.066 . S
O30 C2 1.256 . S
O31 C2 1.244 1_554 S
O31 Zn3 2.053 . S
Zn32 O33 2.055 1_545 S
Zn32 O40 2.046 . S
Zn32 N48 2.036 . S
Zn32 O60 2.053 . S
Zn32 O62 2.066 1_545 S
O33 Zn32 2.055 1_565 S
O33 C36 1.259 . S
C34 O62 1.256 . S
C34 O63 1.244 1_556 S
Zn35 O37 2.046 1_545 S
Zn35 O39 2.055 . S
Zn35 N41 2.036 . S
Zn35 O59 2.066 . S
Zn35 O63 2.053 1_545 S
C36 O33 1.259 . S
C36 O37 1.254 1_556 S
O37 Zn35 2.046 1_565 S
O37 C36 1.254 1_554 S
C38 O59 1.256 . S
C38 O60 1.244 1_554 S
O39 Zn35 2.055 . S
O39 C61 1.259 . S
O40 Zn32 2.046 . S
O40 C61 1.254 1_556 S
N41 Zn35 2.036 . S
N41 C42 1.298 . S
N41 N44 1.398 1_545 S
C42 N41 1.298 . S
C42 N45 1.367 . S
C42 C55 1.481 . S
C43 N44 1.299 . S
C43 N45 1.379 1_565 S
N44 N41 1.398 1_565 S
N44 C43 1.299 . S
N45 C42 1.367 . S
N45 C43 1.379 1_545 S
C46 N48 1.298 1_565 S
C46 N50 1.367 1_565 S
C46 C54 1.481 . S
C47 N49 1.299 . S
C47 N50 1.379 . S
N48 Zn32 2.036 . S
N48 C46 1.298 1_545 S
N48 N49 1.398 . S
N49 C47 1.299 . S
N49 N48 1.398 . S
N50 C46 1.367 1_545 S
N50 C47 1.379 . S
H51 C54 0.980 . S
H52 C54 0.981 . S
H53 C54 0.981 . S
C54 C46 1.481 . S
C54 H51 0.980 . S
C54 H52 0.981 . S
C54 H53 0.981 . S
C55 C42 1.481 . S
C55 H56 0.980 . S
C55 H57 0.981 . S
C55 H58 0.981 . S
H56 C55 0.980 . S
H57 C55 0.981 . S
H58 C55 0.981 . S
O59 Zn35 2.066 . S
O59 C38 1.256 . S
O60 Zn32 2.053 . S
O60 C38 1.244 1_556 S
C61 O39 1.259 . S
C61 O40 1.254 1_554 S
O62 Zn32 2.066 1_565 S
O62 C34 1.256 . S
O63 C34 1.244 1_554 S
O63 Zn35 2.053 1_565 S
Zn64 O65 2.055 . S
Zn64 O72 2.046 . S
Zn64 N80 2.036 . S
Zn64 O92 2.053 . S
Zn64 O94 2.066 . S
O65 Zn64 2.055 . S
O65 C68 1.259 . S
C66 O94 1.256 . S
C66 O95 1.244 1_554 S
Zn67 O69 2.046 . S
Zn67 O71 2.055 . S
Zn67 N73 2.036 . S
Zn67 O91 2.066 . S
Zn67 O95 2.053 . S
C68 O65 1.259 . S
C68 O69 1.254 1_554 S
O69 Zn67 2.046 . S
O69 C68 1.254 1_556 S
C70 O91 1.256 . S
C70 O92 1.244 1_556 S
O71 Zn67 2.055 . S
O71 C93 1.259 . S
O72 Zn64 2.046 . S
O72 C93 1.254 1_554 S
N73 Zn67 2.036 . S
N73 C74 1.298 . S
N73 N76 1.398 . S
C74 N73 1.298 . S
C74 N77 1.367 . S
C74 C87 1.481 . S
C75 N76 1.299 . S
C75 N77 1.379 . S
N76 N73 1.398 . S
N76 C75 1.299 . S
N77 C74 1.367 . S
N77 C75 1.379 . S
C78 N80 1.298 . S
C78 N82 1.367 . S
C78 C86 1.481 . S
C79 N81 1.299 . S
C79 N82 1.379 . S
N80 Zn64 2.036 . S
N80 C78 1.298 . S
N80 N81 1.398 . S
N81 C79 1.299 . S
N81 N80 1.398 . S
N82 C78 1.367 . S
N82 C79 1.379 . S
H83 C86 0.980 . S
H84 C86 0.981 . S
H85 C86 0.981 . S
C86 C78 1.481 . S
C86 H83 0.980 . S
C86 H84 0.981 . S
C86 H85 0.981 . S
C87 C74 1.481 . S
C87 H88 0.980 . S
C87 H89 0.981 . S
C87 H90 0.981 . S
H88 C87 0.980 . S
H89 C87 0.981 . S
H90 C87 0.981 . S
O91 Zn67 2.066 . S
O91 C70 1.256 . S
O92 Zn64 2.053 . S
O92 C70 1.244 1_554 S
C93 O71 1.259 . S
C93 O72 1.254 1_556 S
O94 Zn64 2.066 . S
O94 C66 1.256 . S
O95 C66 1.244 1_556 S
O95 Zn67 2.053 . S
H96 C97 0.951 . S
C97 H96 0.951 . S
C97 C103 1.265 . S
H98 C103 0.950 1_655 S
H99 C107 0.949 . S
H100 C108 0.950 . S
H101 C109 0.951 . S
H102 C110 0.951 . S
C103 C97 1.265 . S
C103 H98 0.950 1_455 S
C103 C104 1.478 . S
C104 C103 1.478 . S
C104 C105 1.397 . S
C104 C121 1.394 . S
C105 C104 1.397 . S
C105 C106 1.438 . S
C105 C110 1.429 . S
C106 C105 1.438 . S
C106 C107 1.428 . S
C106 C119 1.394 . S
C107 H99 0.949 . S
C107 C106 1.428 . S
C107 C108 1.345 . S
C108 H100 0.950 . S
C108 C107 1.345 . S
C108 C109 1.424 . S
C109 H101 0.951 . S
C109 C108 1.424 . S
C109 C110 1.347 . S
C110 H102 0.951 . S
C110 C105 1.429 . S
C110 C109 1.347 . S
H111 C112 0.951 . S
C112 H111 0.951 . S
C112 C118 1.265 1_655 S
H113 C118 0.950 . S
H114 C122 0.949 . S
H115 C123 0.950 . S
H116 C124 0.951 . S
H117 C125 0.951 . S
C118 C112 1.265 1_455 S
C118 H113 0.950 . S
C118 C119 1.478 . S
C119 C106 1.394 . S
C119 C118 1.478 . S
C119 C120 1.397 . S
C120 C119 1.397 . S
C120 C121 1.438 . S
C120 C125 1.429 1_455 S
C121 C104 1.394 . S
C121 C120 1.438 . S
C121 C122 1.428 1_455 S
C122 H114 0.949 . S
C122 C121 1.428 1_655 S
C122 C123 1.345 . S
C123 H115 0.950 . S
C123 C122 1.345 . S
C123 C124 1.424 . S
C124 H116 0.951 . S
C124 C123 1.424 . S
C124 C125 1.347 . S
C125 H117 0.951 . S
C125 C120 1.429 1_655 S
C125 C124 1.347 . S
H126 C127 0.951 . S
C127 H126 0.951 . S
C127 C133 1.265 . S
H128 C133 0.950 . S
H129 C137 0.949 . S
H130 C138 0.950 . S
H131 C139 0.951 . S
H132 C140 0.951 . S
C133 C127 1.265 . S
C133 H128 0.950 . S
C133 C134 1.478 . S
C134 C133 1.478 . S
C134 C135 1.397 1_545 S
C134 C151 1.394 . S
C135 C134 1.397 1_565 S
C135 C136 1.438 . S
C135 C140 1.429 . S
C136 C135 1.438 . S
C136 C137 1.428 . S
C136 C149 1.394 1_565 S
C137 H129 0.949 . S
C137 C136 1.428 . S
C137 C138 1.345 . S
C138 H130 0.950 . S
C138 C137 1.345 . S
C138 C139 1.424 . S
C139 H131 0.951 . S
C139 C138 1.424 . S
C139 C140 1.347 . S
C140 H132 0.951 . S
C140 C135 1.429 . S
C140 C139 1.347 . S
H141 C142 0.951 . S
C142 H141 0.951 . S
C142 C148 1.265 1_565 S
H143 C148 0.950 . S
H144 C152 0.949 . S
H145 C153 0.950 . S
H146 C154 0.951 . S
H147 C155 0.951 . S
C148 C142 1.265 1_545 S
C148 H143 0.950 . S
C148 C149 1.478 . S
C149 C136 1.394 1_545 S
C149 C148 1.478 . S
C149 C150 1.397 . S
C150 C149 1.397 . S
C150 C151 1.438 . S
C150 C155 1.429 . S
C151 C134 1.394 . S
C151 C150 1.438 . S
C151 C152 1.428 . S
C152 H144 0.949 . S
C152 C151 1.428 . S
C152 C153 1.345 . S
C153 H145 0.950 . S
C153 C152 1.345 . S
C153 C154 1.424 . S
C154 H146 0.951 . S
C154 C153 1.424 . S
C154 C155 1.347 . S
C155 H147 0.951 . S
C155 C150 1.429 . S
C155 C154 1.347 . S
H156 C157 0.951 . S
C157 H156 0.951 . S
C157 C163 1.265 . S
H158 C163 0.950 . S
H159 C167 0.949 . S
H160 C168 0.950 . S
H161 C169 0.951 . S
H162 C170 0.951 . S
C163 C157 1.265 . S
C163 H158 0.950 . S
C163 C164 1.478 . S
C164 C163 1.478 . S
C164 C165 1.397 . S
C164 C181 1.394 . S
C165 C164 1.397 . S
C165 C166 1.438 . S
C165 C170 1.429 . S
C166 C165 1.438 . S
C166 C167 1.428 . S
C166 C179 1.394 . S
C167 H159 0.949 . S
C167 C166 1.428 . S
C167 C168 1.345 . S
C168 H160 0.950 . S
C168 C167 1.345 . S
C168 C169 1.424 . S
C169 H161 0.951 . S
C169 C168 1.424 . S
C169 C170 1.347 . S
C170 H162 0.951 . S
C170 C165 1.429 . S
C170 C169 1.347 . S
H171 C172 0.951 . S
C172 H171 0.951 . S
C172 C178 1.265 . S
H173 C178 0.950 . S
H174 C182 0.949 . S
H175 C183 0.950 . S
H176 C184 0.951 . S
H177 C185 0.951 . S
C178 C172 1.265 . S
C178 H173 0.950 . S
C178 C179 1.478 . S
C179 C166 1.394 . S
C179 C178 1.478 . S
C179 C180 1.397 . S
C180 C179 1.397 . S
C180 C181 1.438 . S
C180 C185 1.429 . S
C181 C164 1.394 . S
C181 C180 1.438 . S
C181 C182 1.428 . S
C182 H174 0.949 . S
C182 C181 1.428 . S
C182 C183 1.345 . S
C183 H175 0.950 . S
C183 C182 1.345 . S
C183 C184 1.424 . S
C184 H176 0.951 . S
C184 C183 1.424 . S
C184 C185 1.347 . S
C185 H177 0.951 . S
C185 C180 1.429 . S
C185 C184 1.347 . S
H186 C187 0.951 1_554 S
C187 H186 0.951 1_556 S
C187 C193 1.265 . S
H188 C193 0.950 . S
H189 C197 0.949 . S
H190 C198 0.950 . S
H191 C199 0.951 . S
H192 C200 0.951 . S
C193 C187 1.265 . S
C193 H188 0.950 . S
C193 C194 1.478 . S
C194 C193 1.478 . S
C194 C195 1.397 . S
C194 C211 1.394 1_556 S
C195 C194 1.397 . S
C195 C196 1.438 . S
C195 C200 1.429 . S
C196 C195 1.438 . S
C196 C197 1.428 . S
C196 C209 1.408 . S
C197 H189 0.949 . S
C197 C196 1.428 . S
C197 C198 1.345 . S
C198 H190 0.950 . S
C198 C197 1.345 . S
C198 C199 1.424 . S
C199 H191 0.951 . S
C199 C198 1.424 . S
C199 C200 1.347 . S
C200 H192 0.951 . S
C200 C195 1.429 . S
C200 C199 1.347 . S
H201 C202 0.951 . S
C202 H201 0.951 . S
C202 C208 1.265 1_556 S
H203 C208 0.950 . S
H204 C212 0.949 . S
H205 C213 0.950 . S
H206 C214 0.951 . S
H207 C215 0.951 . S
C208 C202 1.265 1_554 S
C208 H203 0.950 . S
C208 C209 1.476 1_554 S
C209 C196 1.408 . S
C209 C208 1.476 1_556 S
C209 C210 1.384 1_556 S
C210 C209 1.384 1_554 S
C210 C211 1.438 . S
C210 C215 1.429 . S
C211 C194 1.394 1_554 S
C211 C210 1.438 . S
C211 C212 1.428 . S
C212 H204 0.949 . S
C212 C211 1.428 . S
C212 C213 1.345 . S
C213 H205 0.950 . S
C213 C212 1.345 . S
C213 C214 1.424 . S
C214 H206 0.951 . S
C214 C213 1.424 . S
C214 C215 1.347 . S
C215 H207 0.951 . S
C215 C210 1.429 . S
C215 C214 1.347 . S
H216 C217 0.951 1_556 S
C217 H216 0.951 1_554 S
C217 C223 1.265 . S
H218 C223 0.950 . S
H219 C227 0.949 . S
H220 C228 0.950 . S
H221 C229 0.951 . S
H222 C230 0.951 . S
C223 C217 1.265 . S
C223 H218 0.950 . S
C223 C224 1.478 . S
C224 C223 1.478 . S
C224 C225 1.397 . S
C224 C241 1.394 1_554 S
C225 C224 1.397 . S
C225 C226 1.438 . S
C225 C230 1.429 . S
C226 C225 1.438 . S
C226 C227 1.428 . S
C226 C239 1.394 . S
C227 H219 0.949 . S
C227 C226 1.428 . S
C227 C228 1.345 . S
C228 H220 0.950 . S
C228 C227 1.345 . S
C228 C229 1.424 . S
C229 H221 0.951 . S
C229 C228 1.424 . S
C229 C230 1.347 . S
C230 H222 0.951 . S
C230 C225 1.429 . S
C230 C229 1.347 . S
H231 C232 0.951 . S
C232 H231 0.951 . S
C232 C238 1.265 . S
H233 C238 0.950 1_556 S
H234 C242 0.949 . S
H235 C243 0.950 . S
H236 C244 0.951 . S
H237 C245 0.951 . S
C238 C232 1.265 . S
C238 H233 0.950 1_554 S
C238 C239 1.478 . S
C239 C226 1.394 . S
C239 C238 1.478 . S
C239 C240 1.397 1_554 S
C240 C239 1.397 1_556 S
C240 C241 1.438 . S
C240 C245 1.429 . S
C241 C224 1.394 1_556 S
C241 C240 1.438 . S
C241 C242 1.428 . S
C242 H234 0.949 . S
C242 C241 1.428 . S
C242 C243 1.345 . S
C243 H235 0.950 . S
C243 C242 1.345 . S
C243 C244 1.424 . S
C244 H236 0.951 . S
C244 C243 1.424 . S
C244 C245 1.347 . S
C245 H237 0.951 . S
C245 C240 1.429 . S
C245 C244 1.347 . S
H246 C247 0.951 1_554 S
C247 H246 0.951 1_556 S
C247 C253 1.265 . S
H248 C253 0.950 . S
H249 C257 0.949 . S
H250 C258 0.950 . S
H251 C259 0.951 . S
H252 C260 0.951 . S
C253 C247 1.265 . S
C253 H248 0.950 . S
C253 C254 1.478 . S
C254 C253 1.478 . S
C254 C255 1.397 . S
C254 C271 1.394 1_556 S
C255 C254 1.397 . S
C255 C256 1.438 . S
C255 C260 1.429 . S
C256 C255 1.438 . S
C256 C257 1.428 . S
C256 C269 1.394 . S
C257 H249 0.949 . S
C257 C256 1.428 . S
C257 C258 1.345 . S
C258 H250 0.950 . S
C258 C257 1.345 . S
C258 C259 1.424 . S
C259 H251 0.951 . S
C259 C258 1.424 . S
C259 C260 1.347 . S
C260 H252 0.951 . S
C260 C255 1.429 . S
C260 C259 1.347 . S
H261 C262 0.951 . S
C262 H261 0.951 . S
C262 C268 1.265 . S
H263 C268 0.951 . S
H264 C272 0.949 . S
H265 C273 0.950 . S
H266 C274 0.951 . S
H267 C275 0.951 . S
C268 C262 1.265 . S
C268 H263 0.951 . S
C268 C269 1.478 . S
C269 C256 1.394 . S
C269 C268 1.478 . S
C269 C270 1.397 1_556 S
C270 C269 1.397 1_554 S
C270 C271 1.438 . S
C270 C275 1.429 . S
C271 C254 1.394 1_554 S
C271 C270 1.438 . S
C271 C272 1.428 . S
C272 H264 0.949 . S
C272 C271 1.428 . S
C272 C273 1.345 . S
C273 H265 0.950 . S
C273 C272 1.345 . S
C273 C274 1.424 . S
C274 H266 0.951 . S
C274 C273 1.424 . S
C274 C275 1.347 . S
C275 H267 0.951 . S
C275 C270 1.429 . S
C275 C274 1.347 . S
H276 C277 0.951 . S
C277 H276 0.951 . S
C277 C283 1.265 . S
H278 C283 0.950 1_556 S
H279 C287 0.949 . S
H280 C288 0.950 . S
H281 C289 0.951 . S
H282 C290 0.951 . S
C283 C277 1.265 . S
C283 H278 0.950 1_554 S
C283 C284 1.478 . S
C284 C283 1.478 . S
C284 C285 1.397 1_554 S
C284 C301 1.394 . S
C285 C284 1.397 1_556 S
C285 C286 1.438 . S
C285 C290 1.429 . S
C286 C285 1.438 . S
C286 C287 1.428 . S
C286 C299 1.394 1_556 S
C287 H279 0.949 . S
C287 C286 1.428 . S
C287 C288 1.345 . S
C288 H280 0.950 . S
C288 C287 1.345 . S
C288 C289 1.424 . S
C289 H281 0.951 . S
C289 C288 1.424 . S
C289 C290 1.347 . S
C290 H282 0.951 . S
C290 C285 1.429 . S
C290 C289 1.347 . S
H291 C292 0.951 . S
C292 H291 0.951 . S
C292 C298 1.265 . S
H293 C298 0.950 . S
H294 C302 0.949 . S
H295 C303 0.950 . S
H296 C304 0.951 . S
H297 C305 0.951 . S
C298 C292 1.265 . S
C298 H293 0.950 . S
C298 C299 1.478 . S
C299 C286 1.394 1_554 S
C299 C298 1.478 . S
C299 C300 1.397 . S
C300 C299 1.397 . S
C300 C301 1.438 . S
C300 C305 1.429 . S
C301 C284 1.394 . S
C301 C300 1.438 . S
C301 C302 1.428 . S
C302 H294 0.949 . S
C302 C301 1.428 . S
C302 C303 1.345 . S
C303 H295 0.950 . S
C303 C302 1.345 . S
C303 C304 1.424 . S
C304 H296 0.951 . S
C304 C303 1.424 . S
C304 C305 1.347 . S
C305 H297 0.951 . S
C305 C300 1.429 . S
C305 C304 1.347 . S
H306 C307 0.951 1_554 S
C307 H306 0.951 1_556 S
C307 C313 1.265 . S
H308 C313 0.950 . S
H309 C317 0.949 . S
H310 C318 0.950 . S
H311 C319 0.951 . S
H312 C320 0.951 . S
C313 C307 1.265 . S
C313 H308 0.950 . S
C313 C314 1.478 . S
C314 C313 1.478 . S
C314 C315 1.397 . S
C314 C331 1.394 1_556 S
C315 C314 1.397 . S
C315 C316 1.438 . S
C315 C320 1.429 . S
C316 C315 1.438 . S
C316 C317 1.428 . S
C316 C329 1.394 . S
C317 H309 0.949 . S
C317 C316 1.428 . S
C317 C318 1.345 . S
C318 H310 0.950 . S
C318 C317 1.345 . S
C318 C319 1.424 . S
C319 H311 0.951 . S
C319 C318 1.424 . S
C319 C320 1.347 . S
C320 H312 0.951 . S
C320 C315 1.429 . S
C320 C319 1.347 . S
H321 C322 0.951 . S
C322 H321 0.951 . S
C322 C328 1.265 . S
H323 C328 0.950 1_554 S
H324 C332 0.949 . S
H325 C333 0.950 . S
H326 C334 0.951 . S
H327 C335 0.951 . S
C328 C322 1.265 . S
C328 H323 0.950 1_556 S
C328 C329 1.478 . S
C329 C316 1.394 . S
C329 C328 1.478 . S
C329 C330 1.397 1_556 S
C330 C329 1.397 1_554 S
C330 C331 1.438 . S
C330 C335 1.429 . S
C331 C314 1.394 1_554 S
C331 C330 1.438 . S
C331 C332 1.428 . S
C332 H324 0.949 . S
C332 C331 1.428 . S
C332 C333 1.345 . S
C333 H325 0.950 . S
C333 C332 1.345 . S
C333 C334 1.424 . S
C334 H326 0.951 . S
C334 C333 1.424 . S
C334 C335 1.347 . S
C335 H327 0.951 . S
C335 C330 1.429 . S
C335 C334 1.347 . S
H336 C337 0.951 . S
C337 H336 0.951 . S
C337 C343 1.265 . S
H338 C343 0.950 . S
H339 C347 0.949 . S
H340 C348 0.950 . S
H341 C349 0.951 . S
H342 C350 0.951 . S
C343 C337 1.265 . S
C343 H338 0.950 . S
C343 C344 1.478 . S
C344 C343 1.478 . S
C344 C345 1.397 . S
C344 C361 1.394 1_554 S
C345 C344 1.397 . S
C345 C346 1.438 . S
C345 C350 1.429 . S
C346 C345 1.438 . S
C346 C347 1.428 . S
C346 C359 1.394 . S
C347 H339 0.949 . S
C347 C346 1.428 . S
C347 C348 1.345 . S
C348 H340 0.950 . S
C348 C347 1.345 . S
C348 C349 1.424 . S
C349 H341 0.951 . S
C349 C348 1.424 . S
C349 C350 1.347 . S
C350 H342 0.951 . S
C350 C345 1.429 . S
C350 C349 1.347 . S
H351 C352 0.951 . S
C352 H351 0.951 . S
C352 C358 1.265 . S
H353 C358 0.950 . S
H354 C362 0.949 . S
H355 C363 0.950 . S
H356 C364 0.951 . S
H357 C365 0.951 . S
C358 C352 1.265 . S
C358 H353 0.950 . S
C358 C359 1.478 . S
C359 C346 1.394 . S
C359 C358 1.478 . S
C359 C360 1.397 1_554 S
C360 C359 1.397 1_556 S
C360 C361 1.438 . S
C360 C365 1.429 . S
C361 C344 1.394 1_556 S
C361 C360 1.438 . S
C361 C362 1.428 . S
C362 H354 0.949 . S
C362 C361 1.428 . S
C362 C363 1.345 . S
C363 H355 0.950 . S
C363 C362 1.345 . S
C363 C364 1.424 . S
C364 H356 0.951 . S
C364 C363 1.424 . S
C364 C365 1.347 . S
C365 H357 0.951 . S
C365 C360 1.429 . S
C365 C364 1.347 . S
C97 N18 1.515 . S
C112 N13 1.504 1_655 S
C127 N45 1.466 . S
C142 N50 1.483 1_565 S
C157 N77 1.418 . S
C172 N82 1.410 . S
C187 C2 1.140 . S
C202 C93 1.165 . S
C217 C61 1.163 . S
C232 C6 1.141 . S
C247 C36 1.164 . S
C262 C70 1.141 . S
C277 C29 1.168 . S
C292 C66 1.182 . S
C307 C4 1.163 . S
C322 C34 1.141 . S
C337 C68 1.164 . S
C352 C38 1.140 . S
