# Generated by pormake.
# Topology rob, (6)-cn, num edge types: 1
# Building blocks:
#     Node 0, Type 0, BuildingBlock: UKALOJ_clean_sbu_0, # of connection points: 6
#     Node 1, Type 0, BuildingBlock: UKALOJ_clean_sbu_0, # of connection points: 6
#     Node 2, Type 0, BuildingBlock: UKALOJ_clean_sbu_0, # of connection points: 6
#     Node 3, Type 0, BuildingBlock: UKALOJ_clean_sbu_0, # of connection points: 6
#     Edge 4, Type (0, 0), BuildingBlock: KIFKEQ_clean_linker_1, # of connection points: 2
#     Edge 5, Type (0, 0), BuildingBlock: KIFKEQ_clean_linker_1, # of connection points: 2
#     Edge 6, Type (0, 0), BuildingBlock: KIFKEQ_clean_linker_1, # of connection points: 2
#     Edge 7, Type (0, 0), BuildingBlock: KIFKEQ_clean_linker_1, # of connection points: 2
#     Edge 8, Type (0, 0), BuildingBlock: KIFKEQ_clean_linker_1, # of connection points: 2
#     Edge 9, Type (0, 0), BuildingBlock: KIFKEQ_clean_linker_1, # of connection points: 2
#     Edge 10, Type (0, 0), BuildingBlock: KIFKEQ_clean_linker_1, # of connection points: 2
#     Edge 11, Type (0, 0), BuildingBlock: KIFKEQ_clean_linker_1, # of connection points: 2
#     Edge 12, Type (0, 0), BuildingBlock: KIFKEQ_clean_linker_1, # of connection points: 2
#     Edge 13, Type (0, 0), BuildingBlock: KIFKEQ_clean_linker_1, # of connection points: 2
#     Edge 14, Type (0, 0), BuildingBlock: KIFKEQ_clean_linker_1, # of connection points: 2
#     Edge 15, Type (0, 0), BuildingBlock: KIFKEQ_clean_linker_1, # of connection points: 2
# Relax obj value: 0.151
# Max RMSD: 0.190
# Mean RMSD: 0.190
data_MOF--net-rob--node1-UKALOJ_clean_sbu_0--edge1-KIFKEQ_clean_linker_1
_symmetry_space_group_name_H-M    P1
_symmetry_Int_Tables_number       1
_symmetry_cell_setting            triclinic
loop_
_symmetry_equiv_pos_as_xyz
'x, y, z'
_cell_length_a     14.853365
_cell_length_b     37.926053
_cell_length_c     24.28482
_cell_angle_alpha  99.025751
_cell_angle_beta   89.967553
_cell_angle_gamma 89.852769
loop_
_atom_site_label
_atom_site_type_symbol
_atom_site_fract_x
_atom_site_fract_y
_atom_site_fract_z
_atom_type_partial_charge
Zn0 Zn 0.26285 0.30272 -0.00043 0.0
O1 O 0.39686 0.29242 0.97335 0.0
C2 C 0.20321 0.28103 0.8829 0.0
Zn3 Zn 0.23067 0.24465 0.98121 0.0
C4 C 0.42078 0.26066 0.95423 0.0
O5 O 0.36493 0.2354 0.9546 0.0
C6 C 0.07277 0.28667 0.02662 0.0
O7 O 0.26597 0.23934 0.06369 0.0
O8 O 0.29732 0.29656 0.08143 0.0
N9 N 0.20699 0.19086 0.96273 0.0
C10 C 0.15296 0.16869 0.98592 0.0
C11 C 0.22591 0.13683 0.9205 0.0
N12 N 0.2522 0.17096 0.92211 0.0
N13 N 0.16339 0.13479 0.95997 0.0
C14 C 0.34039 0.37881 -0.00468 0.0
C15 C 0.26672 0.41045 0.06063 0.0
N16 N 0.28632 0.35651 0.01821 0.0
N17 N 0.24069 0.37627 0.05877 0.0
N18 N 0.32951 0.41267 0.02138 0.0
H19 H 0.37308 0.34407 0.91856 0.0
H20 H 0.46777 0.36151 0.96038 0.0
H21 H 0.40681 0.39003 0.921 0.0
C22 C 0.3999 0.36791 0.94568 0.0
C23 C 0.09388 0.17972 0.03572 0.0
H24 H 0.12058 0.20371 0.0625 0.0
H25 H 0.08761 0.15774 0.06072 0.0
H26 H 0.02572 0.18587 0.02118 0.0
O27 O 0.09663 0.25494 0.00735 0.0
O28 O 0.12863 0.31193 0.02628 0.0
C29 C 0.2904 0.26648 0.09789 0.0
O30 O 0.22749 0.30808 0.91729 0.0
O31 O 0.19633 0.25086 0.89912 0.0
Zn32 Zn 0.76402 0.80329 0.003 0.0
O33 O 0.89414 0.78965 0.97261 0.0
C34 C 0.6954 0.78513 0.88814 0.0
Zn35 Zn 0.72483 0.74594 0.98373 0.0
C36 C 0.91396 0.7576 0.95248 0.0
O37 O 0.85543 0.73329 0.95302 0.0
C38 C 0.57501 0.79163 0.03449 0.0
O39 O 0.76476 0.7379 0.06428 0.0
O40 O 0.80207 0.79446 0.08299 0.0
N41 N 0.68881 0.69341 0.96282 0.0
C42 C 0.63662 0.67145 0.98778 0.0
C43 C 0.68598 0.64135 0.91227 0.0
N44 N 0.71916 0.67462 0.91591 0.0
N45 N 0.63348 0.63853 0.95666 0.0
C46 C 0.85291 0.87753 -0.00152 0.0
C47 C 0.80398 0.908 0.0738 0.0
N48 N 0.80034 0.85581 0.02368 0.0
N49 N 0.77025 0.87483 0.07047 0.0
N50 N 0.8566 0.91052 0.02934 0.0
H51 H 0.86379 0.84338 0.91831 0.0
H52 H 0.96799 0.85918 0.94917 0.0
H53 H 0.89613 0.88915 0.91843 0.0
C54 C 0.89703 0.86672 0.94276 0.0
C55 C 0.59233 0.68199 0.0435 0.0
H56 H 0.62517 0.7054 0.06806 0.0
H57 H 0.59367 0.65948 0.06768 0.0
H58 H 0.52122 0.68934 0.03709 0.0
O59 O 0.5946 0.75958 0.01418 0.0
O60 O 0.63356 0.81592 0.03383 0.0
C61 C 0.79349 0.7642 0.09859 0.0
O62 O 0.72397 0.81136 0.92262 0.0
O63 O 0.68689 0.7548 0.90354 0.0
Zn64 Zn 0.22324 0.80425 0.50397 0.0
O65 O 0.2597 0.81265 0.42295 0.0
C66 C 0.07225 0.75908 0.45526 0.0
Zn67 Zn 0.26282 0.74688 0.48411 0.0
C68 C 0.28751 0.78628 0.38821 0.0
O69 O 0.29694 0.75596 0.40362 0.0
C70 C 0.19908 0.76453 0.59973 0.0
O71 O 0.39425 0.76033 0.51234 0.0
O72 O 0.35449 0.81664 0.5331 0.0
N73 N 0.29635 0.69405 0.46284 0.0
C74 C 0.35192 0.67225 0.48592 0.0
C75 C 0.2853 0.64039 0.41792 0.0
N76 N 0.25529 0.67416 0.42055 0.0
N77 N 0.34633 0.63857 0.45831 0.0
C78 C 0.14699 0.88056 0.49828 0.0
C79 C 0.16307 0.90595 0.58245 0.0
N80 N 0.18621 0.85665 0.52642 0.0
N81 N 0.19619 0.87255 0.57866 0.0
N82 N 0.13228 0.91169 0.53249 0.0
H83 H 0.17258 0.88146 0.41206 0.0
H84 H 0.05643 0.88807 0.4317 0.0
H85 H 0.10605 0.84407 0.42505 0.0
C86 C 0.11837 0.87289 0.43842 0.0
C87 C 0.40759 0.68333 0.53714 0.0
H88 H 0.37812 0.70683 0.56388 0.0
H89 H 0.47608 0.69033 0.5243 0.0
H90 H 0.41396 0.66106 0.56157 0.0
O91 O 0.22758 0.73839 0.56495 0.0
O92 O 0.18852 0.79479 0.58436 0.0
C93 C 0.4136 0.79233 0.53293 0.0
O94 O 0.09222 0.79106 0.47535 0.0
O95 O 0.1309 0.73469 0.45554 0.0
Zn96 Zn 0.72894 0.30378 0.50035 0.0
O97 O 0.76628 0.31034 0.41831 0.0
C98 C 0.57333 0.26084 0.45319 0.0
Zn99 Zn 0.76245 0.24569 0.48174 0.0
C100 C 0.79131 0.28318 0.38411 0.0
O101 O 0.79763 0.25305 0.4005 0.0
C102 C 0.70055 0.26574 0.59769 0.0
O103 O 0.89516 0.25727 0.50912 0.0
O104 O 0.86145 0.31426 0.52882 0.0
N105 N 0.79075 0.19227 0.46179 0.0
C106 C 0.84509 0.17009 0.48497 0.0
C107 C 0.77666 0.13859 0.41739 0.0
N108 N 0.74847 0.17259 0.41979 0.0
N109 N 0.83769 0.13638 0.45765 0.0
C110 C 0.65696 0.3806 0.49368 0.0
C111 C 0.67913 0.40701 0.57673 0.0
N112 N 0.6965 0.35685 0.52199 0.0
N113 N 0.71012 0.37334 0.57353 0.0
N114 N 0.64501 0.41228 0.52728 0.0
H115 H 0.70676 0.37426 0.41084 0.0
H116 H 0.59798 0.39411 0.4172 0.0
H117 H 0.61083 0.34692 0.4194 0.0
C118 C 0.64086 0.37369 0.43198 0.0
C119 C 0.90121 0.18091 0.53608 0.0
H120 H 0.87312 0.20482 0.56252 0.0
H121 H 0.97021 0.18715 0.52313 0.0
H122 H 0.90595 0.15878 0.5609 0.0
O123 O 0.72643 0.23885 0.56342 0.0
O124 O 0.69303 0.29586 0.58145 0.0
C125 C 0.91793 0.28902 0.52893 0.0
O126 O 0.59688 0.29256 0.47233 0.0
O127 O 0.62915 0.23548 0.45394 0.0
H128 H 0.46885 0.63213 0.00434 0.0
H129 H 0.6947 0.57135 0.92814 0.0
H130 H 0.39805 0.57764 0.02268 0.0
H131 H 0.62005 0.51628 0.94113 0.0
H132 H 0.50772 0.42477 0.01966 0.0
H133 H 0.58199 0.48005 0.0056 0.0
H134 H 0.32161 0.52732 0.98296 0.0
H135 H 0.24878 0.47252 0.0006 0.0
C136 C 0.50424 0.60721 -0.00771 0.0
C137 C 0.58931 0.6063 0.96681 0.0
C138 C 0.46237 0.57565 0.00144 0.0
C139 C 0.50316 0.54222 0.98373 0.0
C140 C 0.58723 0.54137 0.95678 0.0
C141 C 0.62977 0.57297 0.94869 0.0
C142 C 0.46711 0.44711 0.01143 0.0
C143 C 0.37304 0.44464 0.01078 0.0
C144 C 0.5093 0.47876 0.00308 0.0
C145 C 0.45815 0.50844 -0.00708 0.0
C146 C 0.36356 0.50552 0.99179 0.0
C147 C 0.32157 0.4741 0.00134 0.0
H148 H 0.52468 0.62718 0.46508 0.0
H149 H 0.26549 0.5785 0.47694 0.0
H150 H 0.59886 0.57195 0.48055 0.0
H151 H 0.33778 0.52387 0.49601 0.0
H152 H 0.48584 0.41911 0.47583 0.0
H153 H 0.41634 0.47409 0.45687 0.0
H154 H 0.63371 0.53464 0.54447 0.0
H155 H 0.70674 0.47898 0.55825 0.0
C156 C 0.48394 0.60464 0.47199 0.0
C157 C 0.38987 0.60678 0.47002 0.0
C158 C 0.52604 0.57303 0.48115 0.0
C159 C 0.47466 0.5431 0.48952 0.0
C160 C 0.38005 0.54581 0.48843 0.0
C161 C 0.33829 0.57715 0.47805 0.0
C162 C 0.52015 0.44415 0.48906 0.0
C163 C 0.6036 0.44477 0.51617 0.0
C164 C 0.47926 0.47586 0.47956 0.0
C165 C 0.51924 0.50917 0.49886 0.0
C166 C 0.60171 0.50967 0.5276 0.0
C167 C 0.64337 0.47784 0.53602 0.0
H168 H 0.24361 0.07506 0.98175 0.0
H169 H 0.98513 0.12292 0.96173 0.0
H170 H 0.17025 1.02066 0.00072 0.0
H171 H 0.91031 0.06802 0.97709 0.0
H172 H 0.79642 0.97792 0.05679 0.0
H173 H 0.87189 0.03261 0.04262 0.0
H174 H 0.09323 0.97021 0.96231 0.0
H175 H 0.02162 0.91617 0.98184 0.0
C176 C 0.17081 0.07358 0.98104 0.0
C177 C 0.11961 0.10295 0.97096 0.0
C178 C 0.1285 0.04239 0.99138 0.0
C179 C 0.03387 0.03963 0.99041 0.0
C180 C 0.98302 0.06921 0.97952 0.0
C181 C 0.02552 0.10063 0.9704 0.0
C182 C 0.8614 0.97601 0.03628 0.0
C183 C 0.90141 0.94251 0.01879 0.0
C184 C 0.9044 1.00737 0.02751 0.0
C185 C 0.98849 1.00611 0.0005 0.0
C186 C 0.0289 0.97252 0.98353 0.0
C187 C 0.98658 0.94121 -0.00663 0.0
H188 H 0.01585 0.12541 0.46873 0.0
H189 H 0.75638 0.07507 0.47036 0.0
H190 H 0.08911 0.07009 0.48632 0.0
H191 H 0.82891 1.01985 0.48861 0.0
H192 H -0.00367 0.94699 0.58968 0.0
H193 H 0.92411 1.00221 0.57118 0.0
H194 H 0.10323 1.00449 0.43171 0.0
H195 H 0.17449 0.94897 0.45014 0.0
C196 C 0.97478 0.10253 0.47342 0.0
C197 C 0.88076 0.10434 0.4689 0.0
C198 C 0.01644 0.07092 0.48297 0.0
C199 C 0.96448 0.04082 0.48895 0.0
C200 C 0.87035 0.04277 0.48457 0.0
C201 C 0.82898 0.07415 0.47399 0.0
C202 C 0.01968 0.95937 0.55504 0.0
C203 C 0.08984 0.94376 0.52085 0.0
C204 C 0.97843 0.99074 0.54434 0.0
C205 C 0.0081 1.00748 0.49997 0.0
C206 C 0.07933 0.99212 0.46624 0.0
C207 C 0.11946 0.96034 0.47638 0.0
H208 H 0.43554 0.30769 0.44551 0.0
H209 H 0.52844 0.20118 0.38049 0.0
H210 H 0.33652 0.30637 0.36534 0.0
H211 H 0.43266 0.20045 0.2996 0.0
H212 H 0.26337 0.20853 0.15046 0.0
H213 H 0.29636 0.20369 0.24756 0.0
H214 H 0.39045 0.31284 0.27446 0.0
H215 H 0.35547 0.31791 0.17865 0.0
C216 C 0.43265 0.28354 0.41509 0.0
C217 C 0.49175 0.25498 0.41838 0.0
C218 C 0.37653 0.28291 0.36889 0.0
C219 C 0.37943 0.25389 0.32508 0.0
C220 C 0.42914 0.22336 0.33232 0.0
C221 C 0.48443 0.22382 0.37884 0.0
C222 C 0.29054 0.23152 0.17737 0.0
C223 C 0.30807 0.26346 0.15675 0.0
C224 C 0.30905 0.22878 0.23298 0.0
C225 C 0.34558 0.25789 0.26892 0.0
C226 C 0.36042 0.2901 0.24847 0.0
C227 C 0.34163 0.29288 0.19315 0.0
H228 H 0.53876 0.85107 0.10996 0.0
H229 H 0.42986 0.74819 0.04012 0.0
H230 H 0.44141 0.8529 0.19044 0.0
H231 H 0.32965 0.75062 0.12007 0.0
H232 H 0.26878 0.84616 0.33877 0.0
H233 H 0.30309 0.85211 0.24223 0.0
H234 H 0.38279 0.74105 0.21005 0.0
H235 H 0.34656 0.73493 0.30518 0.0
C236 C 0.49111 0.82956 0.11053 0.0
C237 C 0.49418 0.79887 0.06976 0.0
C238 C 0.43488 0.83066 0.1568 0.0
C239 C 0.38014 0.80129 0.16254 0.0
C240 C 0.37347 0.77311 0.1176 0.0
C241 C 0.43043 0.77181 0.07163 0.0
C242 C 0.29282 0.82299 0.31081 0.0
C243 C 0.30604 0.7902 0.32978 0.0
C244 C 0.31217 0.82638 0.25552 0.0
C245 C 0.34507 0.79703 0.21828 0.0
C246 C 0.35557 0.76404 0.23708 0.0
C247 C 0.33613 0.76065 0.29205 0.0
H248 H 0.71687 0.84478 0.83872 0.0
H249 H 0.63239 0.73447 0.80549 0.0
H250 H 0.68325 0.85106 0.74219 0.0
H251 H 0.59744 0.74091 0.71018 0.0
H252 H 0.5584 0.74845 0.53907 0.0
H253 H 0.65552 0.75005 0.62024 0.0
H254 H 0.54474 0.85289 0.68982 0.0
H255 H 0.44988 0.85174 0.60839 0.0
C256 C 0.69125 0.8219 0.81086 0.0
C257 C 0.67609 0.78925 0.82989 0.0
C258 C 0.67247 0.82547 0.75557 0.0
C259 C 0.63843 0.79644 0.71836 0.0
C260 C 0.6256 0.76361 0.73726 0.0
C261 C 0.64432 0.76005 0.79228 0.0
C262 C 0.55732 0.77198 0.57073 0.0
C263 C 0.49424 0.79934 0.56837 0.0
C264 C 0.61255 0.77281 0.61737 0.0
C265 C 0.60514 0.80095 0.66234 0.0
C266 C 0.55162 0.83067 0.65615 0.0
C267 C 0.49693 0.82996 0.60931 0.0
H268 H 0.63518 0.31711 0.67873 0.0
H269 H 0.72763 0.20759 0.64995 0.0
H270 H 0.6014 0.31208 0.77474 0.0
H271 H 0.69569 0.20277 0.74723 0.0
H272 H 0.46515 0.20089 0.8815 0.0
H273 H 0.55987 0.1999 0.80012 0.0
H274 H 0.65735 0.30545 0.86547 0.0
H275 H 0.55992 0.30685 0.94656 0.0
C276 C 0.64925 0.29203 0.6931 0.0
C277 C 0.68268 0.26258 0.6565 0.0
C278 C 0.63118 0.28929 0.74854 0.0
C279 C 0.64655 0.25708 0.76893 0.0
C280 C 0.68268 0.22789 0.73273 0.0
C281 C 0.70055 0.2306 0.677 0.0
C282 C 0.50923 0.22339 0.87969 0.0
C283 C 0.50243 0.25457 0.91933 0.0
C284 C 0.56392 0.22278 0.83285 0.0
C285 C 0.61356 0.25316 0.82533 0.0
C286 C 0.61724 0.28213 0.86922 0.0
C287 C 0.56187 0.28286 0.91585 0.0
H288 H 0.85872 0.81492 0.18021 0.0
H289 H 0.76982 0.70513 0.14926 0.0
H290 H 0.8928 0.80919 0.27581 0.0
H291 H 0.80252 0.69956 0.24625 0.0
H292 H 0.03358 0.699 0.38173 0.0
H293 H 0.93954 0.69737 0.29982 0.0
H294 H 0.83333 0.80166 0.36572 0.0
H295 H 0.9303 0.80392 0.447 0.0
C296 C 0.84563 0.7896 0.19399 0.0
C297 C 0.81276 0.76034 0.15694 0.0
C298 C 0.86385 0.78646 0.2492 0.0
C299 C 0.84935 0.75401 0.26894 0.0
C300 C 0.81451 0.72488 0.23224 0.0
C301 C 0.79626 0.72804 0.17671 0.0
C302 C 0.98769 0.72104 0.3799 0.0
C303 C -0.00838 0.75214 0.41983 0.0
C304 C 0.93344 0.72005 0.3328 0.0
C305 C 0.88153 0.74997 0.3254 0.0
C306 C 0.87509 0.7787 0.36951 0.0
C307 C 0.93007 0.77987 0.4163 0.0
H308 H 0.85685 0.23129 0.30385 0.0
H309 H 0.76616 0.34099 0.33048 0.0
H310 H 0.89185 0.23566 0.20774 0.0
H311 H 0.79877 0.34511 0.23333 0.0
H312 H 0.93436 0.24028 0.03513 0.0
H313 H 0.83757 0.24179 0.11654 0.0
H314 H 0.93412 0.34768 0.18071 0.0
H315 H 0.02823 0.34655 0.09907 0.0
C316 C 0.84334 0.25627 0.28904 0.0
C317 C 0.80994 0.28597 0.32518 0.0
C318 C 0.86213 0.25863 0.23353 0.0
C319 C 0.84746 0.29069 0.21257 0.0
C320 C 0.81136 0.3201 0.24825 0.0
C321 C 0.79296 0.31778 0.30402 0.0
C322 C 0.93239 0.26434 0.06569 0.0
C323 C -0.00863 0.29272 0.06176 0.0
C324 C 0.87741 0.26514 0.11251 0.0
C325 C 0.88091 0.29427 0.15612 0.0
C326 C 0.93018 0.32466 0.14821 0.0
C327 C 0.98451 0.32398 0.10119 0.0
H328 H 0.95999 0.34797 0.60382 0.0
H329 H 0.05892 0.24316 0.53434 0.0
H330 H 0.05631 0.34817 0.6843 0.0
H331 H 0.15768 0.24375 0.61457 0.0
H332 H 0.22828 0.3396 0.83167 0.0
H333 H 0.19444 0.34525 0.73504 0.0
H334 H 0.10438 0.23559 0.7055 0.0
H335 H 0.14011 0.22973 0.80103 0.0
C336 C 0.00525 0.32559 0.60449 0.0
C337 C -0.00055 0.29494 0.5638 0.0
C338 C 0.06083 0.32573 0.65079 0.0
C339 C 0.11225 0.2954 0.65674 0.0
C340 C 0.11638 0.26701 0.61198 0.0
C341 C 0.06024 0.26676 0.56586 0.0
C342 C 0.20184 0.31666 0.80431 0.0
C343 C 0.18551 0.28436 0.82415 0.0
C344 C 0.18285 0.31987 0.74895 0.0
C345 C 0.14706 0.29087 0.71245 0.0
C346 C 0.1337 0.25827 0.73202 0.0
C347 C 0.15293 0.25504 0.78715 0.0
H348 H 0.13825 0.81531 0.68304 0.0
H349 H 0.22194 0.70475 0.64874 0.0
H350 H 0.10363 0.80871 0.77824 0.0
H351 H 0.1886 0.69829 0.74529 0.0
H352 H 0.05934 0.80101 0.94788 0.0
H353 H 0.1598 0.79896 0.86811 0.0
H354 H 0.04886 0.69675 0.79673 0.0
H355 H 0.95093 0.69825 0.87695 0.0
C356 C 0.15021 0.78964 0.69602 0.0
C357 C 0.18138 0.7604 0.65812 0.0
C358 C 0.1317 0.78599 0.751 0.0
C359 C 0.14415 0.75302 0.76956 0.0
C360 C 0.17812 0.72398 0.73213 0.0
C361 C 0.19672 0.72765 0.67687 0.0
C362 C 0.05901 0.77748 0.91618 0.0
C363 C -0.00482 0.75039 0.91761 0.0
C364 C 0.11617 0.77639 0.87037 0.0
C365 C 0.10967 0.74836 0.82521 0.0
C366 C 0.05512 0.71887 0.83058 0.0
C367 C -0.0014 0.71979 0.87667 0.0
loop_
_geom_bond_atom_site_label_1
_geom_bond_atom_site_label_2
_geom_bond_distance
_geom_bond_site_symmetry_2
_ccdc_geom_bond_type
Zn0 O1 2.055 1_554 S
Zn0 O8 2.046 . S
Zn0 N16 2.036 . S
Zn0 O28 2.053 . S
Zn0 O30 2.066 1_554 S
O1 Zn0 2.055 1_556 S
O1 C4 1.259 . S
C2 O30 1.256 . S
C2 O31 1.244 . S
Zn3 O5 2.046 . S
Zn3 O7 2.055 1_556 S
Zn3 N9 2.036 . S
Zn3 O27 2.066 1_556 S
Zn3 O31 2.053 . S
C4 O1 1.259 . S
C4 O5 1.254 . S
O5 Zn3 2.046 . S
O5 C4 1.254 . S
C6 O27 1.256 . S
C6 O28 1.244 . S
O7 Zn3 2.055 1_554 S
O7 C29 1.259 . S
O8 Zn0 2.046 . S
O8 C29 1.254 . S
N9 Zn3 2.036 . S
N9 C10 1.298 1_556 S
N9 N12 1.398 . S
C10 N9 1.298 1_554 S
C10 N13 1.367 1_554 S
C10 C23 1.481 . S
C11 N12 1.299 . S
C11 N13 1.379 . S
N12 N9 1.398 . S
N12 C11 1.299 . S
N13 C10 1.367 1_556 S
N13 C11 1.379 . S
C14 N16 1.298 1_556 S
C14 N18 1.367 1_556 S
C14 C22 1.481 . S
C15 N17 1.299 . S
C15 N18 1.379 . S
N16 Zn0 2.036 . S
N16 C14 1.298 1_554 S
N16 N17 1.398 . S
N17 C15 1.299 . S
N17 N16 1.398 . S
N18 C14 1.367 1_554 S
N18 C15 1.379 . S
H19 C22 0.980 . S
H20 C22 0.981 . S
H21 C22 0.981 . S
C22 C14 1.481 . S
C22 H19 0.980 . S
C22 H20 0.981 . S
C22 H21 0.981 . S
C23 C10 1.481 . S
C23 H24 0.980 . S
C23 H25 0.981 . S
C23 H26 0.981 . S
H24 C23 0.980 . S
H25 C23 0.981 . S
H26 C23 0.981 . S
O27 Zn3 2.066 1_554 S
O27 C6 1.256 . S
O28 Zn0 2.053 . S
O28 C6 1.244 . S
C29 O7 1.259 . S
C29 O8 1.254 . S
O30 Zn0 2.066 1_556 S
O30 C2 1.256 . S
O31 C2 1.244 . S
O31 Zn3 2.053 . S
Zn32 O33 2.055 1_554 S
Zn32 O40 2.046 . S
Zn32 N48 2.036 . S
Zn32 O60 2.053 . S
Zn32 O62 2.066 1_554 S
O33 Zn32 2.055 1_556 S
O33 C36 1.259 . S
C34 O62 1.256 . S
C34 O63 1.244 . S
Zn35 O37 2.046 . S
Zn35 O39 2.055 1_556 S
Zn35 N41 2.036 . S
Zn35 O59 2.066 1_556 S
Zn35 O63 2.053 . S
C36 O33 1.259 . S
C36 O37 1.254 . S
O37 Zn35 2.046 . S
O37 C36 1.254 . S
C38 O59 1.256 . S
C38 O60 1.244 . S
O39 Zn35 2.055 1_554 S
O39 C61 1.259 . S
O40 Zn32 2.046 . S
O40 C61 1.254 . S
N41 Zn35 2.036 . S
N41 C42 1.298 1_556 S
N41 N44 1.398 . S
C42 N41 1.298 1_554 S
C42 N45 1.367 1_554 S
C42 C55 1.481 . S
C43 N44 1.299 . S
C43 N45 1.379 . S
N44 N41 1.398 . S
N44 C43 1.299 . S
N45 C42 1.367 1_556 S
N45 C43 1.379 . S
C46 N48 1.298 1_556 S
C46 N50 1.367 1_556 S
C46 C54 1.481 . S
C47 N49 1.299 . S
C47 N50 1.379 . S
N48 Zn32 2.036 . S
N48 C46 1.298 1_554 S
N48 N49 1.398 . S
N49 C47 1.299 . S
N49 N48 1.398 . S
N50 C46 1.367 1_554 S
N50 C47 1.379 . S
H51 C54 0.980 . S
H52 C54 0.981 . S
H53 C54 0.981 . S
C54 C46 1.481 . S
C54 H51 0.980 . S
C54 H52 0.981 . S
C54 H53 0.981 . S
C55 C42 1.481 . S
C55 H56 0.980 . S
C55 H57 0.981 . S
C55 H58 0.981 . S
H56 C55 0.980 . S
H57 C55 0.981 . S
H58 C55 0.981 . S
O59 Zn35 2.066 1_554 S
O59 C38 1.256 . S
O60 Zn32 2.053 . S
O60 C38 1.244 . S
C61 O39 1.259 . S
C61 O40 1.254 . S
O62 Zn32 2.066 1_556 S
O62 C34 1.256 . S
O63 C34 1.244 . S
O63 Zn35 2.053 . S
Zn64 O65 2.055 . S
Zn64 O72 2.046 . S
Zn64 N80 2.036 . S
Zn64 O92 2.053 . S
Zn64 O94 2.066 . S
O65 Zn64 2.055 . S
O65 C68 1.259 . S
C66 O94 1.256 . S
C66 O95 1.244 . S
Zn67 O69 2.046 . S
Zn67 O71 2.055 . S
Zn67 N73 2.036 . S
Zn67 O91 2.066 . S
Zn67 O95 2.053 . S
C68 O65 1.259 . S
C68 O69 1.254 . S
O69 Zn67 2.046 . S
O69 C68 1.254 . S
C70 O91 1.256 . S
C70 O92 1.244 . S
O71 Zn67 2.055 . S
O71 C93 1.259 . S
O72 Zn64 2.046 . S
O72 C93 1.254 . S
N73 Zn67 2.036 . S
N73 C74 1.298 . S
N73 N76 1.398 . S
C74 N73 1.298 . S
C74 N77 1.367 . S
C74 C87 1.481 . S
C75 N76 1.299 . S
C75 N77 1.379 . S
N76 N73 1.398 . S
N76 C75 1.299 . S
N77 C74 1.367 . S
N77 C75 1.379 . S
C78 N80 1.298 . S
C78 N82 1.367 . S
C78 C86 1.481 . S
C79 N81 1.299 . S
C79 N82 1.379 . S
N80 Zn64 2.036 . S
N80 C78 1.298 . S
N80 N81 1.398 . S
N81 C79 1.299 . S
N81 N80 1.398 . S
N82 C78 1.367 . S
N82 C79 1.379 . S
H83 C86 0.980 . S
H84 C86 0.981 . S
H85 C86 0.981 . S
C86 C78 1.481 . S
C86 H83 0.980 . S
C86 H84 0.981 . S
C86 H85 0.981 . S
C87 C74 1.481 . S
C87 H88 0.980 . S
C87 H89 0.981 . S
C87 H90 0.981 . S
H88 C87 0.980 . S
H89 C87 0.981 . S
H90 C87 0.981 . S
O91 Zn67 2.066 . S
O91 C70 1.256 . S
O92 Zn64 2.053 . S
O92 C70 1.244 . S
C93 O71 1.259 . S
C93 O72 1.254 . S
O94 Zn64 2.066 . S
O94 C66 1.256 . S
O95 C66 1.244 . S
O95 Zn67 2.053 . S
Zn96 O97 2.055 . S
Zn96 O104 2.046 . S
Zn96 N112 2.036 . S
Zn96 O124 2.053 . S
Zn96 O126 2.066 . S
O97 Zn96 2.055 . S
O97 C100 1.259 . S
C98 O126 1.256 . S
C98 O127 1.244 . S
Zn99 O101 2.046 . S
Zn99 O103 2.055 . S
Zn99 N105 2.036 . S
Zn99 O123 2.066 . S
Zn99 O127 2.053 . S
C100 O97 1.259 . S
C100 O101 1.254 . S
O101 Zn99 2.046 . S
O101 C100 1.254 . S
C102 O123 1.256 . S
C102 O124 1.244 . S
O103 Zn99 2.055 . S
O103 C125 1.259 . S
O104 Zn96 2.046 . S
O104 C125 1.254 . S
N105 Zn99 2.036 . S
N105 C106 1.298 . S
N105 N108 1.398 . S
C106 N105 1.298 . S
C106 N109 1.367 . S
C106 C119 1.481 . S
C107 N108 1.299 . S
C107 N109 1.379 . S
N108 N105 1.398 . S
N108 C107 1.299 . S
N109 C106 1.367 . S
N109 C107 1.379 . S
C110 N112 1.298 . S
C110 N114 1.367 . S
C110 C118 1.481 . S
C111 N113 1.299 . S
C111 N114 1.379 . S
N112 Zn96 2.036 . S
N112 C110 1.298 . S
N112 N113 1.398 . S
N113 C111 1.299 . S
N113 N112 1.398 . S
N114 C110 1.367 . S
N114 C111 1.379 . S
H115 C118 0.980 . S
H116 C118 0.981 . S
H117 C118 0.981 . S
C118 C110 1.481 . S
C118 H115 0.980 . S
C118 H116 0.981 . S
C118 H117 0.981 . S
C119 C106 1.481 . S
C119 H120 0.980 . S
C119 H121 0.981 . S
C119 H122 0.981 . S
H120 C119 0.980 . S
H121 C119 0.981 . S
H122 C119 0.981 . S
O123 Zn99 2.066 . S
O123 C102 1.256 . S
O124 Zn96 2.053 . S
O124 C102 1.244 . S
C125 O103 1.259 . S
C125 O104 1.254 . S
O126 Zn96 2.066 . S
O126 C98 1.256 . S
O127 C98 1.244 . S
O127 Zn99 2.053 . S
H128 C136 0.950 . S
H129 C141 0.950 . S
H130 C138 0.950 . S
H131 C140 0.950 . S
H132 C142 0.950 . S
H133 C144 0.950 . S
H134 C146 0.950 . S
H135 C147 0.950 . S
C136 H128 0.950 . S
C136 C137 1.386 1_554 S
C136 C138 1.391 . S
C137 C136 1.386 1_556 S
C137 C141 1.393 . S
C138 H130 0.950 . S
C138 C136 1.391 . S
C138 C139 1.397 1_554 S
C139 C138 1.397 1_556 S
C139 C140 1.403 . S
C139 C145 1.489 1_556 S
C140 H131 0.950 . S
C140 C139 1.403 . S
C140 C141 1.391 . S
C141 H129 0.950 . S
C141 C137 1.393 . S
C141 C140 1.391 . S
C142 H132 0.950 . S
C142 C143 1.386 1_556 S
C142 C144 1.391 . S
C143 C142 1.386 1_554 S
C143 C147 1.393 . S
C144 H133 0.950 . S
C144 C142 1.391 . S
C144 C145 1.400 1_556 S
C145 C139 1.489 1_554 S
C145 C144 1.400 1_554 S
C145 C146 1.398 . S
C146 H134 0.950 . S
C146 C145 1.398 . S
C146 C147 1.391 . S
C147 H135 0.950 . S
C147 C143 1.393 . S
C147 C146 1.391 . S
H148 C156 0.950 . S
H149 C161 0.950 . S
H150 C158 0.950 . S
H151 C160 0.950 . S
H152 C162 0.950 . S
H153 C164 0.950 . S
H154 C166 0.950 . S
H155 C167 0.950 . S
C156 H148 0.950 . S
C156 C157 1.386 . S
C156 C158 1.391 . S
C157 C156 1.386 . S
C157 C161 1.393 . S
C158 H150 0.950 . S
C158 C156 1.391 . S
C158 C159 1.400 . S
C159 C158 1.400 . S
C159 C160 1.398 . S
C159 C165 1.491 . S
C160 H151 0.950 . S
C160 C159 1.398 . S
C160 C161 1.391 . S
C161 H149 0.950 . S
C161 C157 1.393 . S
C161 C160 1.391 . S
C162 H152 0.950 . S
C162 C163 1.386 . S
C162 C164 1.391 . S
C163 C162 1.386 . S
C163 C167 1.393 . S
C164 H153 0.950 . S
C164 C162 1.391 . S
C164 C165 1.400 . S
C165 C159 1.491 . S
C165 C164 1.400 . S
C165 C166 1.398 . S
C166 H154 0.950 . S
C166 C165 1.398 . S
C166 C167 1.391 . S
C167 H155 0.950 . S
C167 C163 1.393 . S
C167 C166 1.391 . S
H168 C176 0.950 . S
H169 C181 0.950 . S
H170 C178 0.950 . S
H171 C180 0.950 . S
H172 C182 0.950 . S
H173 C184 0.950 1_545 S
H174 C186 0.950 . S
H175 C187 0.950 . S
C176 H168 0.950 . S
C176 C177 1.386 1_556 S
C176 C178 1.391 . S
C177 C176 1.386 1_554 S
C177 C181 1.393 . S
C178 H170 0.950 . S
C178 C176 1.391 . S
C178 C179 1.408 1_556 S
C179 C178 1.408 1_554 S
C179 C180 1.398 1_455 S
C179 C185 1.484 1_444 S
C180 H171 0.950 . S
C180 C179 1.398 1_655 S
C180 C181 1.391 1_655 S
C181 H169 0.950 . S
C181 C177 1.393 . S
C181 C180 1.391 1_455 S
C182 H172 0.950 . S
C182 C183 1.383 1_554 S
C182 C184 1.391 . S
C183 C182 1.383 1_556 S
C183 C187 1.396 . S
C184 H173 0.950 1_565 S
C184 C182 1.391 . S
C184 C185 1.402 1_554 S
C185 C179 1.484 1_666 S
C185 C184 1.402 1_556 S
C185 C186 1.397 . S
C186 H174 0.950 . S
C186 C185 1.397 . S
C186 C187 1.391 . S
C187 H175 0.950 . S
C187 C183 1.396 . S
C187 C186 1.391 . S
H188 C196 0.950 . S
H189 C201 0.950 . S
H190 C198 0.950 1_455 S
H191 C200 0.950 1_565 S
H192 C202 0.950 1_655 S
H193 C204 0.950 . S
H194 C206 0.950 1_545 S
H195 C207 0.950 . S
C196 H188 0.950 . S
C196 C197 1.386 . S
C196 C198 1.391 . S
C197 C196 1.386 . S
C197 C201 1.393 . S
C198 H190 0.950 1_655 S
C198 C196 1.391 . S
C198 C199 1.400 . S
C199 C198 1.400 . S
C199 C200 1.398 . S
C199 C205 1.492 1_545 S
C200 H191 0.950 1_545 S
C200 C199 1.398 . S
C200 C201 1.391 . S
C201 H189 0.950 . S
C201 C197 1.393 . S
C201 C200 1.391 . S
C202 H192 0.950 1_455 S
C202 C203 1.386 . S
C202 C204 1.391 1_455 S
C203 C202 1.386 . S
C203 C207 1.393 . S
C204 H193 0.950 . S
C204 C202 1.391 1_655 S
C204 C205 1.402 . S
C205 C199 1.492 1_565 S
C205 C204 1.402 . S
C205 C206 1.395 1_655 S
C206 H194 0.950 1_565 S
C206 C205 1.395 1_455 S
C206 C207 1.391 . S
C207 H195 0.950 . S
C207 C203 1.393 . S
C207 C206 1.391 . S
H208 C216 0.950 . S
H209 C221 0.950 . S
H210 C218 0.950 . S
H211 C220 0.950 . S
H212 C222 0.950 . S
H213 C224 0.950 . S
H214 C226 0.950 . S
H215 C227 0.950 . S
C216 H208 0.950 . S
C216 C217 1.386 . S
C216 C218 1.391 . S
C217 C216 1.386 . S
C217 C221 1.393 . S
C218 H210 0.950 . S
C218 C216 1.391 . S
C218 C219 1.400 . S
C219 C218 1.400 . S
C219 C220 1.398 . S
C219 C225 1.491 . S
C220 H211 0.950 . S
C220 C219 1.398 . S
C220 C221 1.391 . S
C221 H209 0.950 . S
C221 C217 1.393 . S
C221 C220 1.391 . S
C222 H212 0.950 . S
C222 C223 1.386 . S
C222 C224 1.391 . S
C223 C222 1.386 . S
C223 C227 1.393 . S
C224 H213 0.950 . S
C224 C222 1.391 . S
C224 C225 1.400 . S
C225 C219 1.491 . S
C225 C224 1.400 . S
C225 C226 1.398 . S
C226 H214 0.950 . S
C226 C225 1.398 . S
C226 C227 1.391 . S
C227 H215 0.950 . S
C227 C223 1.393 . S
C227 C226 1.391 . S
H228 C236 0.950 . S
H229 C241 0.950 . S
H230 C238 0.950 . S
H231 C240 0.950 . S
H232 C242 0.950 . S
H233 C244 0.950 . S
H234 C246 0.950 . S
H235 C247 0.950 . S
C236 H228 0.950 . S
C236 C237 1.386 . S
C236 C238 1.391 . S
C237 C236 1.386 . S
C237 C241 1.393 . S
C238 H230 0.950 . S
C238 C236 1.391 . S
C238 C239 1.400 . S
C239 C238 1.400 . S
C239 C240 1.398 . S
C239 C245 1.491 . S
C240 H231 0.950 . S
C240 C239 1.398 . S
C240 C241 1.391 . S
C241 H229 0.950 . S
C241 C237 1.393 . S
C241 C240 1.391 . S
C242 H232 0.950 . S
C242 C243 1.386 . S
C242 C244 1.391 . S
C243 C242 1.386 . S
C243 C247 1.393 . S
C244 H233 0.950 . S
C244 C242 1.391 . S
C244 C245 1.400 . S
C245 C239 1.491 . S
C245 C244 1.400 . S
C245 C246 1.398 . S
C246 H234 0.950 . S
C246 C245 1.398 . S
C246 C247 1.391 . S
C247 H235 0.950 . S
C247 C243 1.393 . S
C247 C246 1.391 . S
H248 C256 0.950 . S
H249 C261 0.950 . S
H250 C258 0.950 . S
H251 C260 0.950 . S
H252 C262 0.950 . S
H253 C264 0.950 . S
H254 C266 0.950 . S
H255 C267 0.950 . S
C256 H248 0.950 . S
C256 C257 1.386 . S
C256 C258 1.391 . S
C257 C256 1.386 . S
C257 C261 1.393 . S
C258 H250 0.950 . S
C258 C256 1.391 . S
C258 C259 1.400 . S
C259 C258 1.400 . S
C259 C260 1.398 . S
C259 C265 1.491 . S
C260 H251 0.950 . S
C260 C259 1.398 . S
C260 C261 1.391 . S
C261 H249 0.950 . S
C261 C257 1.393 . S
C261 C260 1.391 . S
C262 H252 0.950 . S
C262 C263 1.386 . S
C262 C264 1.391 . S
C263 C262 1.386 . S
C263 C267 1.393 . S
C264 H253 0.950 . S
C264 C262 1.391 . S
C264 C265 1.400 . S
C265 C259 1.491 . S
C265 C264 1.400 . S
C265 C266 1.398 . S
C266 H254 0.950 . S
C266 C265 1.398 . S
C266 C267 1.391 . S
C267 H255 0.950 . S
C267 C263 1.393 . S
C267 C266 1.391 . S
H268 C276 0.950 . S
H269 C281 0.950 . S
H270 C278 0.950 . S
H271 C280 0.950 . S
H272 C282 0.950 . S
H273 C284 0.950 . S
H274 C286 0.950 . S
H275 C287 0.950 . S
C276 H268 0.950 . S
C276 C277 1.386 . S
C276 C278 1.391 . S
C277 C276 1.386 . S
C277 C281 1.393 . S
C278 H270 0.950 . S
C278 C276 1.391 . S
C278 C279 1.400 . S
C279 C278 1.400 . S
C279 C280 1.398 . S
C279 C285 1.491 . S
C280 H271 0.950 . S
C280 C279 1.398 . S
C280 C281 1.391 . S
C281 H269 0.950 . S
C281 C277 1.393 . S
C281 C280 1.391 . S
C282 H272 0.950 . S
C282 C283 1.386 . S
C282 C284 1.391 . S
C283 C282 1.386 . S
C283 C287 1.393 . S
C284 H273 0.950 . S
C284 C282 1.391 . S
C284 C285 1.400 . S
C285 C279 1.491 . S
C285 C284 1.400 . S
C285 C286 1.398 . S
C286 H274 0.950 . S
C286 C285 1.398 . S
C286 C287 1.391 . S
C287 H275 0.950 . S
C287 C283 1.393 . S
C287 C286 1.391 . S
H288 C296 0.950 . S
H289 C301 0.950 . S
H290 C298 0.950 . S
H291 C300 0.950 . S
H292 C302 0.950 . S
H293 C304 0.950 . S
H294 C306 0.950 . S
H295 C307 0.950 . S
C296 H288 0.950 . S
C296 C297 1.386 . S
C296 C298 1.391 . S
C297 C296 1.386 . S
C297 C301 1.393 . S
C298 H290 0.950 . S
C298 C296 1.391 . S
C298 C299 1.400 . S
C299 C298 1.400 . S
C299 C300 1.398 . S
C299 C305 1.491 1_655 S
C300 H291 0.950 . S
C300 C299 1.398 . S
C300 C301 1.391 . S
C301 H289 0.950 . S
C301 C297 1.393 . S
C301 C300 1.391 . S
C302 H292 0.950 . S
C302 C303 1.386 . S
C302 C304 1.391 . S
C303 C302 1.386 . S
C303 C307 1.393 . S
C304 H293 0.950 . S
C304 C302 1.391 . S
C304 C305 1.400 . S
C305 C299 1.491 1_455 S
C305 C304 1.400 . S
C305 C306 1.398 . S
C306 H294 0.950 . S
C306 C305 1.398 . S
C306 C307 1.391 . S
C307 H295 0.950 . S
C307 C303 1.393 . S
C307 C306 1.391 . S
H308 C316 0.950 . S
H309 C321 0.950 . S
H310 C318 0.950 . S
H311 C320 0.950 . S
H312 C322 0.950 1_655 S
H313 C324 0.950 . S
H314 C326 0.950 . S
H315 C327 0.950 . S
C316 H308 0.950 . S
C316 C317 1.386 1_455 S
C316 C318 1.391 . S
C317 C316 1.386 1_655 S
C317 C321 1.393 . S
C318 H310 0.950 . S
C318 C316 1.391 . S
C318 C319 1.400 1_455 S
C319 C318 1.400 1_655 S
C319 C320 1.398 . S
C319 C325 1.491 1_655 S
C320 H311 0.950 . S
C320 C319 1.398 . S
C320 C321 1.391 . S
C321 H309 0.950 . S
C321 C317 1.393 . S
C321 C320 1.391 . S
C322 H312 0.950 1_455 S
C322 C323 1.386 . S
C322 C324 1.391 1_455 S
C323 C322 1.386 . S
C323 C327 1.393 . S
C324 H313 0.950 . S
C324 C322 1.391 1_655 S
C324 C325 1.400 1_655 S
C325 C319 1.491 1_455 S
C325 C324 1.400 1_455 S
C325 C326 1.398 . S
C326 H314 0.950 . S
C326 C325 1.398 . S
C326 C327 1.391 . S
C327 H315 0.950 . S
C327 C323 1.393 . S
C327 C326 1.391 . S
H328 C336 0.950 . S
H329 C341 0.950 . S
H330 C338 0.950 . S
H331 C340 0.950 . S
H332 C342 0.950 . S
H333 C344 0.950 . S
H334 C346 0.950 . S
H335 C347 0.950 1_655 S
C336 H328 0.950 . S
C336 C337 1.386 . S
C336 C338 1.391 . S
C337 C336 1.386 . S
C337 C341 1.393 1_655 S
C338 H330 0.950 . S
C338 C336 1.391 . S
C338 C339 1.400 . S
C339 C338 1.400 . S
C339 C340 1.398 1_655 S
C339 C345 1.491 1_655 S
C340 H331 0.950 . S
C340 C339 1.398 1_455 S
C340 C341 1.391 . S
C341 H329 0.950 . S
C341 C337 1.393 1_455 S
C341 C340 1.391 . S
C342 H332 0.950 . S
C342 C343 1.386 . S
C342 C344 1.391 . S
C343 C342 1.386 . S
C343 C347 1.393 . S
C344 H333 0.950 . S
C344 C342 1.391 . S
C344 C345 1.400 . S
C345 C339 1.491 1_455 S
C345 C344 1.400 . S
C345 C346 1.398 1_455 S
C346 H334 0.950 . S
C346 C345 1.398 1_655 S
C346 C347 1.391 1_655 S
C347 H335 0.950 1_455 S
C347 C343 1.393 . S
C347 C346 1.391 1_455 S
H348 C356 0.950 1_655 S
H349 C361 0.950 . S
H350 C358 0.950 . S
H351 C360 0.950 . S
H352 C362 0.950 . S
H353 C364 0.950 . S
H354 C366 0.950 . S
H355 C367 0.950 . S
C356 H348 0.950 1_455 S
C356 C357 1.386 . S
C356 C358 1.391 1_455 S
C357 C356 1.386 . S
C357 C361 1.393 . S
C358 H350 0.950 . S
C358 C356 1.391 1_655 S
C358 C359 1.400 1_655 S
C359 C358 1.400 1_455 S
C359 C360 1.398 . S
C359 C365 1.491 1_455 S
C360 H351 0.950 . S
C360 C359 1.398 . S
C360 C361 1.391 . S
C361 H349 0.950 . S
C361 C357 1.393 . S
C361 C360 1.391 . S
C362 H352 0.950 . S
C362 C363 1.386 1_455 S
C362 C364 1.391 . S
C363 C362 1.386 1_655 S
C363 C367 1.393 . S
C364 H353 0.950 . S
C364 C362 1.391 . S
C364 C365 1.400 1_455 S
C365 C359 1.491 1_655 S
C365 C364 1.400 1_655 S
C365 C366 1.398 . S
C366 H354 0.950 . S
C366 C365 1.398 . S
C366 C367 1.391 . S
C367 H355 0.950 . S
C367 C363 1.393 . S
C367 C366 1.391 . S
C137 N45 1.589 . S
C143 N18 1.558 . S
C157 N77 1.585 . S
C163 N114 1.611 . S
C177 N13 1.610 1_554 S
C183 N50 1.584 1_556 S
C197 N109 1.582 . S
C203 N82 1.610 . S
C217 C98 0.962 . S
C223 C29 0.973 . S
C237 C38 0.982 . S
C243 C68 0.974 . S
C257 C34 0.988 . S
C263 C93 0.995 . S
C277 C102 0.999 . S
C283 C4 1.007 . S
C297 C61 0.973 . S
C303 C66 0.962 . S
C317 C100 0.972 . S
C323 C6 0.972 . S
C337 C125 0.993 . S
C343 C2 1.001 . S
C357 C70 1.001 . S
C363 C36 0.997 . S
